# Generated by pormake.
# Topology ukg, (4)-cn, num edge types: 1
# Building blocks:
#     Node 0, Type 0, BuildingBlock: ICAMEG_clean_sbu_1, # of connection points: 4
#     Node 1, Type 0, BuildingBlock: ICAMEG_clean_sbu_1, # of connection points: 4
#     Node 2, Type 0, BuildingBlock: ICAMEG_clean_sbu_1, # of connection points: 4
#     Node 3, Type 0, BuildingBlock: ICAMEG_clean_sbu_1, # of connection points: 4
#     Node 4, Type 0, BuildingBlock: ICAMEG_clean_sbu_1, # of connection points: 4
#     Node 5, Type 0, BuildingBlock: ICAMEG_clean_sbu_1, # of connection points: 4
#     Node 6, Type 0, BuildingBlock: ICAMEG_clean_sbu_1, # of connection points: 4
#     Node 7, Type 0, BuildingBlock: ICAMEG_clean_sbu_1, # of connection points: 4
#     Edge 8, Type (0, 0), BuildingBlock: MIFKUJ_clean_linker_0, # of connection points: 2
#     Edge 9, Type (0, 0), BuildingBlock: MIFKUJ_clean_linker_0, # of connection points: 2
#     Edge 10, Type (0, 0), BuildingBlock: MIFKUJ_clean_linker_0, # of connection points: 2
#     Edge 11, Type (0, 0), BuildingBlock: MIFKUJ_clean_linker_0, # of connection points: 2
#     Edge 12, Type (0, 0), BuildingBlock: MIFKUJ_clean_linker_0, # of connection points: 2
#     Edge 13, Type (0, 0), BuildingBlock: MIFKUJ_clean_linker_0, # of connection points: 2
#     Edge 14, Type (0, 0), BuildingBlock: MIFKUJ_clean_linker_0, # of connection points: 2
#     Edge 15, Type (0, 0), BuildingBlock: MIFKUJ_clean_linker_0, # of connection points: 2
#     Edge 16, Type (0, 0), BuildingBlock: MIFKUJ_clean_linker_0, # of connection points: 2
#     Edge 17, Type (0, 0), BuildingBlock: MIFKUJ_clean_linker_0, # of connection points: 2
#     Edge 18, Type (0, 0), BuildingBlock: MIFKUJ_clean_linker_0, # of connection points: 2
#     Edge 19, Type (0, 0), BuildingBlock: MIFKUJ_clean_linker_0, # of connection points: 2
#     Edge 20, Type (0, 0), BuildingBlock: MIFKUJ_clean_linker_0, # of connection points: 2
#     Edge 21, Type (0, 0), BuildingBlock: MIFKUJ_clean_linker_0, # of connection points: 2
#     Edge 22, Type (0, 0), BuildingBlock: MIFKUJ_clean_linker_0, # of connection points: 2
#     Edge 23, Type (0, 0), BuildingBlock: MIFKUJ_clean_linker_0, # of connection points: 2
# Relax obj value: 0.020
# Max RMSD: 0.101
# Mean RMSD: 0.101
data_MOF--net-ukg--node1-ICAMEG_clean_sbu_1--edge1-MIFKUJ_clean_linker_0
_symmetry_space_group_name_H-M    P1
_symmetry_Int_Tables_number       1
_symmetry_cell_setting            triclinic
loop_
_symmetry_equiv_pos_as_xyz
'x, y, z'
_cell_length_a     42.057316
_cell_length_b     42.034137
_cell_length_c     51.657722
_cell_angle_alpha  90.008647
_cell_angle_beta   90.019543
_cell_angle_gamma 89.973943
loop_
_atom_site_label
_atom_site_type_symbol
_atom_site_fract_x
_atom_site_fract_y
_atom_site_fract_z
_atom_type_partial_charge
Co0 Co 0.04173 0.64464 0.18034 0.0
Co1 Co 0.98816 0.66493 0.13231 0.0
O2 O 0.02975 0.65028 0.14416 0.0
C3 C 0.08912 0.68953 0.15974 0.0
O4 O 0.06528 0.70495 0.14917 0.0
C5 C 0.99686 0.60255 0.10777 0.0
O6 O 0.00534 0.59228 0.13075 0.0
O7 O 0.9657 0.63503 0.15584 0.0
O8 O -0.00025 0.62477 0.18836 0.0
H9 H 0.87546 0.70262 0.14263 0.0
H10 H 0.08363 0.6205 0.1386 0.0
O11 O 0.084 0.66449 0.17298 0.0
H12 H 0.05551 0.5263 0.19066 0.0
H13 H 0.11746 0.61796 0.25267 0.0
H14 H 0.00897 0.65336 0.23064 0.0
H15 H 0.03577 0.57951 0.20281 0.0
H16 H 0.10137 0.62464 0.20705 0.0
O17 O 0.98879 0.63152 0.10466 0.0
H18 H 0.92803 0.68441 0.1578 0.0
H19 H 0.95984 0.67544 0.08013 0.0
H20 H 0.02389 0.64654 0.27648 0.0
H21 H 0.10411 0.56777 0.12585 0.0
H22 H 0.07853 0.62877 0.28774 0.0
H23 H 0.08994 0.52019 0.15191 0.0
O24 O 0.02453 0.6873 0.18957 0.0
H25 H 0.06993 0.69649 0.06621 0.0
H26 H 0.98183 0.73425 0.12121 0.0
H27 H 0.01016 0.77238 0.09323 0.0
H28 H 0.05454 0.75354 0.06544 0.0
H29 H 0.04118 0.65923 0.09469 0.0
H30 H 0.90752 0.69328 0.06408 0.0
H31 H 0.86495 0.70715 0.09544 0.0
O32 O 0.98684 0.69818 0.15987 0.0
C33 C 0.97263 0.62221 0.17749 0.0
C34 C 0.89386 0.69678 0.12877 0.0
C35 C 0.91184 0.69149 0.08469 0.0
N36 N 0.94706 0.67921 0.11988 0.0
C37 C 0.9237 0.68657 0.13725 0.0
C38 C 0.94139 0.68135 0.09388 0.0
C39 C 0.88796 0.69927 0.10229 0.0
C40 C 0.07761 0.59994 0.15018 0.0
N41 N 0.05857 0.60308 0.17145 0.0
C42 C 0.08918 0.57013 0.1428 0.0
C43 C 0.08118 0.54344 0.15741 0.0
C44 C 0.06184 0.54685 0.17914 0.0
C45 C 0.05066 0.57702 0.18589 0.0
C46 C 0.09358 0.62567 0.24801 0.0
C47 C 0.03271 0.64538 0.23538 0.0
C48 C 0.08437 0.62958 0.22222 0.0
N49 N 0.0542 0.63915 0.2162 0.0
C50 C 0.04106 0.64167 0.26138 0.0
C51 C 0.07172 0.63173 0.26768 0.0
C52 C 0.00234 0.7047 0.18044 0.0
C53 C 0.05058 0.70497 0.07817 0.0
C54 C 0.00116 0.72588 0.10922 0.0
C55 C 0.01707 0.74757 0.09337 0.0
C56 C 0.04196 0.73698 0.07778 0.0
N57 N 0.00974 0.69451 0.10948 0.0
C58 C 0.03411 0.68395 0.09425 0.0
Co59 Co 0.34877 0.54173 0.68269 0.0
Co60 Co 0.32931 0.48675 0.63582 0.0
O61 O 0.34352 0.52876 0.64672 0.0
C62 C 0.30527 0.59005 0.66129 0.0
O63 O 0.2876 0.56647 0.6529 0.0
C64 C 0.39065 0.49518 0.60973 0.0
O65 O 0.40192 0.50298 0.63256 0.0
O66 O 0.36076 0.46576 0.65881 0.0
O67 O 0.36666 0.4992 0.69246 0.0
H68 H 0.29599 0.37314 0.64908 0.0
H69 H 0.37568 0.5814 0.64059 0.0
O70 O 0.33089 0.58444 0.67365 0.0
H71 H 0.46728 0.5504 0.69461 0.0
H72 H 0.37618 0.61994 0.753 0.0
H73 H 0.33645 0.51211 0.73383 0.0
H74 H 0.41301 0.53335 0.70624 0.0
H75 H 0.37082 0.60156 0.70785 0.0
O76 O 0.36147 0.48763 0.60726 0.0
H77 H 0.31274 0.42677 0.66285 0.0
H78 H 0.31731 0.45681 0.58444 0.0
H79 H 0.34179 0.52937 0.77928 0.0
H80 H 0.42952 0.59909 0.62831 0.0
H81 H 0.36175 0.58366 0.78909 0.0
H82 H 0.47579 0.58349 0.65538 0.0
O83 O 0.30542 0.52625 0.69149 0.0
H84 H 0.29284 0.56655 0.56974 0.0
H85 H 0.25985 0.47824 0.62653 0.0
H86 H 0.21987 0.50505 0.59925 0.0
H87 H 0.2363 0.54951 0.57055 0.0
H88 H 0.332 0.53929 0.59755 0.0
H89 H 0.3008 0.40341 0.5698 0.0
H90 H 0.28996 0.36118 0.60225 0.0
O91 O 0.29713 0.48531 0.66424 0.0
C92 C 0.37136 0.47254 0.68126 0.0
C93 C 0.30054 0.39137 0.63476 0.0
C94 C 0.30327 0.40836 0.59026 0.0
N95 N 0.31565 0.44496 0.62448 0.0
C96 C 0.30992 0.42182 0.64245 0.0
C97 C 0.31264 0.43853 0.59866 0.0
C98 C 0.29719 0.38467 0.60848 0.0
C99 C 0.39565 0.5748 0.65261 0.0
N100 N 0.39119 0.5565 0.67417 0.0
C101 C 0.4261 0.58477 0.6455 0.0
C102 C 0.45206 0.57597 0.66067 0.0
C103 C 0.4473 0.55738 0.68268 0.0
C104 C 0.41653 0.54776 0.68915 0.0
C105 C 0.36758 0.59619 0.74898 0.0
C106 C 0.34546 0.53564 0.73797 0.0
C107 C 0.36445 0.58566 0.72346 0.0
N108 N 0.35369 0.55566 0.71824 0.0
C109 C 0.34831 0.54534 0.76373 0.0
C110 C 0.35947 0.57582 0.76921 0.0
C111 C 0.28928 0.50243 0.68364 0.0
C112 C 0.28541 0.54714 0.5821 0.0
C113 C 0.26718 0.49762 0.61414 0.0
C114 C 0.24444 0.51266 0.59869 0.0
C115 C 0.25368 0.5376 0.58259 0.0
N116 N 0.29826 0.50709 0.61352 0.0
C117 C 0.3075 0.53153 0.5978 0.0
Co118 Co 0.4583 0.85182 0.18343 0.0
Co119 Co 0.50876 0.82692 0.13459 0.0
O120 O 0.46866 0.84436 0.14712 0.0
C121 C 0.40908 0.80741 0.16503 0.0
O122 O 0.43217 0.79089 0.15447 0.0
C123 C 0.50384 0.88971 0.10983 0.0
O124 O 0.49612 0.90076 0.13274 0.0
O125 O 0.53389 0.85528 0.15781 0.0
O126 O 0.50097 0.87096 0.18967 0.0
H127 H 0.61832 0.78058 0.14374 0.0
H128 H 0.41518 0.87497 0.14206 0.0
O129 O 0.4153 0.83268 0.17767 0.0
H130 H 0.4479 0.97088 0.19015 0.0
H131 H 0.38577 0.88375 0.25645 0.0
H132 H 0.49263 0.84473 0.23325 0.0
H133 H 0.46686 0.91781 0.20348 0.0
H134 H 0.40019 0.87463 0.21075 0.0
O135 O 0.50996 0.86024 0.1069 0.0
H136 H 0.56747 0.8025 0.15944 0.0
H137 H 0.53558 0.81485 0.08206 0.0
H138 H 0.47931 0.85376 0.27917 0.0
H139 H 0.39544 0.92754 0.12818 0.0
H140 H 0.42553 0.8734 0.29101 0.0
H141 H 0.41192 0.97597 0.15224 0.0
O142 O 0.47514 0.8093 0.19382 0.0
H143 H 0.42243 0.80156 0.07057 0.0
H144 H 0.51052 0.75755 0.12243 0.0
H145 H 0.47862 0.7217 0.09497 0.0
H146 H 0.4342 0.74369 0.06879 0.0
H147 H 0.45481 0.8365 0.09845 0.0
H148 H 0.58624 0.7933 0.06551 0.0
H149 H 0.62796 0.77585 0.09646 0.0
O150 O 0.50815 0.79363 0.162 0.0
C151 C 0.52812 0.8705 0.17868 0.0
C152 C 0.60029 0.78799 0.13007 0.0
C153 C 0.58229 0.79518 0.08616 0.0
N154 N 0.5485 0.80971 0.12168 0.0
C155 C 0.57141 0.80034 0.13884 0.0
C156 C 0.5537 0.80744 0.09564 0.0
C157 C 0.60569 0.78538 0.10353 0.0
C158 C 0.42221 0.8959 0.15278 0.0
N159 N 0.44207 0.89332 0.17361 0.0
C160 C 0.41105 0.92562 0.14477 0.0
C161 C 0.42034 0.95279 0.15825 0.0
C162 C 0.44055 0.94995 0.17951 0.0
C163 C 0.45127 0.91985 0.18694 0.0
C164 C 0.40929 0.87523 0.25153 0.0
C165 C 0.46925 0.85346 0.23825 0.0
C166 C 0.41757 0.86996 0.2257 0.0
N167 N 0.44729 0.85936 0.21935 0.0
C168 C 0.46181 0.85845 0.26428 0.0
C169 C 0.43162 0.86944 0.27091 0.0
C170 C 0.49465 0.78951 0.18385 0.0
C171 C 0.44176 0.7917 0.08185 0.0
C172 C 0.49119 0.76727 0.11115 0.0
C173 C 0.47326 0.74687 0.09559 0.0
C174 C 0.44835 0.75923 0.08089 0.0
N175 N 0.48458 0.79908 0.11201 0.0
C176 C 0.46026 0.81139 0.09759 0.0
Co177 Co 0.1454 0.9591 0.67967 0.0
Co178 Co 0.16975 0.01073 0.6315 0.0
O179 O 0.15366 0.96992 0.64364 0.0
C180 C 0.19353 0.91229 0.66323 0.0
O181 O 0.21012 0.93634 0.65431 0.0
C182 C 0.10762 0.00352 0.60604 0.0
O183 O 0.09659 0.99532 0.62883 0.0
O184 O 0.14013 0.03471 0.65446 0.0
O185 O 0.124 0.00086 0.68556 0.0
H186 H 0.21156 0.12207 0.64119 0.0
H187 H 0.12584 0.91517 0.63764 0.0
O188 O 0.16679 0.91703 0.67416 0.0
H189 H 0.02691 0.94285 0.68365 0.0
H190 H 0.11469 0.88467 0.75176 0.0
H191 H 0.1492 0.99346 0.72972 0.0
H192 H 0.07848 0.96427 0.69826 0.0
H193 H 0.12458 0.89979 0.70631 0.0
O194 O 0.13687 0.01076 0.60339 0.0
H195 H 0.19155 0.0703 0.65666 0.0
H196 H 0.18166 0.03802 0.57917 0.0
H197 H 0.13936 0.97944 0.77539 0.0
H198 H 0.07484 0.893 0.62249 0.0
H199 H 0.12197 0.92469 0.78664 0.0
H200 H 0.02488 0.90693 0.6455 0.0
O201 O 0.18663 0.97802 0.69107 0.0
H202 H 0.19954 0.92599 0.5673 0.0
H203 H 0.23925 0.01486 0.62058 0.0
H204 H 0.27678 0.98458 0.59338 0.0
H205 H 0.25695 0.9398 0.56646 0.0
H206 H 0.1629 0.95676 0.59493 0.0
H207 H 0.20133 0.08954 0.56283 0.0
H208 H 0.21654 0.13194 0.59395 0.0
O209 O 0.20244 0.01126 0.65944 0.0
C210 C 0.12424 0.0282 0.67482 0.0
C211 C 0.20509 0.10375 0.62744 0.0
C212 C 0.1993 0.08551 0.58346 0.0
N213 N 0.18564 0.05112 0.61884 0.0
C214 C 0.19383 0.07436 0.63609 0.0
C215 C 0.18811 0.05642 0.59282 0.0
C216 C 0.20785 0.10928 0.60093 0.0
C217 C 0.10424 0.92111 0.6479 0.0
N218 N 0.10514 0.94093 0.66885 0.0
C219 C 0.07542 0.90857 0.63917 0.0
C220 C 0.04739 0.91644 0.65207 0.0
C221 C 0.04851 0.93661 0.67346 0.0
C222 C 0.07776 0.94873 0.68161 0.0
C223 C 0.1222 0.90862 0.74709 0.0
C224 C 0.14144 0.96965 0.73446 0.0
C225 C 0.12789 0.91729 0.72141 0.0
N226 N 0.13721 0.94754 0.71538 0.0
C227 C 0.13599 0.96182 0.76036 0.0
C228 C 0.12628 0.93109 0.76666 0.0
C229 C 0.20611 0.99817 0.68152 0.0
C230 C 0.20845 0.9455 0.57889 0.0
C231 C 0.23047 0.99537 0.60897 0.0
C232 C 0.25181 0.97835 0.59356 0.0
C233 C 0.24067 0.95324 0.57845 0.0
N234 N 0.19891 0.98767 0.60926 0.0
C235 C 0.1878 0.96308 0.5945 0.0
Co236 Co 0.95453 0.35103 0.81626 0.0
Co237 Co 0.00783 0.32902 0.86404 0.0
O238 O 0.96649 0.34443 0.85235 0.0
C239 C 0.90759 0.30544 0.83654 0.0
O240 O 0.93151 0.29044 0.84738 0.0
C241 C 0.00032 0.39148 0.88879 0.0
O242 O 0.99141 0.40191 0.86597 0.0
O243 O 0.03063 0.35864 0.84048 0.0
O244 O 0.99634 0.37163 0.80876 0.0
H245 H 0.11973 0.28932 0.85308 0.0
H246 H 0.91214 0.37326 0.8584 0.0
O247 O 0.91248 0.3304 0.82313 0.0
H248 H 0.93958 0.46953 0.80867 0.0
H249 H 0.87835 0.37931 0.7447 0.0
H250 H 0.98717 0.344 0.76573 0.0
H251 H 0.95996 0.41698 0.79537 0.0
H252 H 0.89474 0.37152 0.79012 0.0
O253 O 0.00804 0.36238 0.89174 0.0
H254 H 0.06733 0.30834 0.8382 0.0
H255 H 0.03638 0.31798 0.91605 0.0
H256 H 0.97188 0.35175 0.72004 0.0
H257 H 0.891 0.42529 0.87226 0.0
H258 H 0.9171 0.36953 0.7093 0.0
H259 H 0.90482 0.47391 0.84738 0.0
O260 O 0.97228 0.30892 0.80604 0.0
H261 H 0.92581 0.29889 0.93036 0.0
H262 H 0.01298 0.25958 0.87508 0.0
H263 H 0.98406 0.22194 0.90312 0.0
H264 H 0.94014 0.24157 0.93103 0.0
H265 H 0.95516 0.33565 0.90184 0.0
H266 H 0.08855 0.2993 0.9318 0.0
H267 H 0.13061 0.2847 0.9002 0.0
O268 O 0.00833 0.29585 0.83643 0.0
C269 C 0.02368 0.3729 0.81943 0.0
C270 C 0.10157 0.2955 0.86704 0.0
C271 C 0.08408 0.30114 0.91123 0.0
N272 N 0.04876 0.31397 0.87624 0.0
C273 C 0.07182 0.30618 0.85873 0.0
C274 C 0.05461 0.31175 0.9022 0.0
C275 C 0.10766 0.29295 0.89348 0.0
C276 C 0.91801 0.39427 0.84733 0.0
N277 N 0.9372 0.39208 0.82606 0.0
C278 C 0.90607 0.42368 0.85533 0.0
C279 C 0.91387 0.45096 0.84138 0.0
C280 C 0.93339 0.44852 0.81967 0.0
C281 C 0.94493 0.41872 0.81227 0.0
C282 C 0.9023 0.37163 0.74913 0.0
C283 C 0.96337 0.35195 0.7612 0.0
C284 C 0.9117 0.36711 0.77481 0.0
N285 N 0.94196 0.35756 0.78055 0.0
C286 C 0.95481 0.3562 0.7353 0.0
C287 C 0.92406 0.36614 0.72928 0.0
C288 C 0.9936 0.29052 0.81526 0.0
C289 C 0.94496 0.29008 0.91834 0.0
C290 C 0.99387 0.26829 0.88714 0.0
C291 C 0.97761 0.24688 0.90301 0.0
C292 C 0.95299 0.2579 0.91868 0.0
N293 N 0.98587 0.29981 0.88693 0.0
C294 C 0.96176 0.3108 0.90225 0.0
Co295 Co 0.65398 0.4607 0.32093 0.0
Co296 Co 0.66954 0.51085 0.37239 0.0
O297 O 0.65508 0.47035 0.35793 0.0
C298 C 0.69143 0.40877 0.34431 0.0
O299 O 0.70445 0.43007 0.35952 0.0
C300 C 0.60492 0.50316 0.39327 0.0
O301 O 0.59579 0.49694 0.36949 0.0
O302 O 0.64192 0.53519 0.34826 0.0
O303 O 0.63788 0.50435 0.31287 0.0
H304 H 0.70914 0.62352 0.36878 0.0
H305 H 0.62171 0.41771 0.35796 0.0
O306 O 0.67039 0.41677 0.32783 0.0
H307 H 0.53722 0.45627 0.29965 0.0
H308 H 0.63312 0.39123 0.24335 0.0
H309 H 0.67275 0.49532 0.27333 0.0
H310 H 0.59288 0.47298 0.29326 0.0
H311 H 0.63379 0.40437 0.28991 0.0
O312 O 0.63398 0.50931 0.39805 0.0
H313 H 0.69166 0.57218 0.35052 0.0
H314 H 0.6763 0.53572 0.42615 0.0
H315 H 0.672 0.48336 0.22659 0.0
H316 H 0.56638 0.40022 0.36497 0.0
H317 H 0.65225 0.43095 0.21134 0.0
H318 H 0.52368 0.41963 0.33573 0.0
O319 O 0.69841 0.4755 0.31661 0.0
H320 H 0.69346 0.42518 0.43741 0.0
H321 H 0.7379 0.51478 0.38756 0.0
H322 H 0.7728 0.48417 0.41676 0.0
H323 H 0.75059 0.43903 0.44195 0.0
H324 H 0.65948 0.45618 0.40776 0.0
H325 H 0.69336 0.58675 0.44524 0.0
H326 H 0.71006 0.63104 0.41647 0.0
O327 O 0.70528 0.5133 0.3469 0.0
C328 C 0.63309 0.53037 0.32498 0.0
C329 C 0.70206 0.60436 0.38152 0.0
C330 C 0.69316 0.58373 0.42443 0.0
N331 N 0.68335 0.55088 0.38726 0.0
C332 C 0.69226 0.5752 0.3713 0.0
C333 C 0.68349 0.55491 0.41352 0.0
C334 C 0.70253 0.60857 0.40828 0.0
C335 C 0.6033 0.42596 0.34499 0.0
N336 N 0.61053 0.44617 0.32514 0.0
C337 C 0.572 0.4161 0.34912 0.0
C338 C 0.54804 0.42704 0.33273 0.0
C339 C 0.55562 0.44761 0.31249 0.0
C340 C 0.58718 0.45702 0.30899 0.0
C341 C 0.64176 0.41417 0.24976 0.0
C342 C 0.6638 0.47258 0.26682 0.0
C343 C 0.64224 0.42173 0.27609 0.0
N344 N 0.65299 0.4507 0.28429 0.0
C345 C 0.6636 0.46588 0.24034 0.0
C346 C 0.6525 0.43646 0.2318 0.0
C347 C 0.71458 0.49761 0.32715 0.0
C348 C 0.70339 0.44485 0.42659 0.0
C349 C 0.72808 0.49508 0.39837 0.0
C350 C 0.74794 0.4779 0.41493 0.0
C351 C 0.73546 0.4526 0.42909 0.0
N352 N 0.69666 0.48732 0.396 0.0
C353 C 0.68423 0.4626 0.40987 0.0
Co354 Co 0.53973 0.14594 0.81703 0.0
Co355 Co 0.48951 0.1643 0.86784 0.0
O356 O 0.53035 0.15073 0.8538 0.0
C357 C 0.5871 0.19146 0.83647 0.0
O358 O 0.56349 0.20581 0.84828 0.0
C359 C 0.5016 0.10202 0.89182 0.0
O360 O 0.50853 0.09181 0.86848 0.0
O361 O 0.46619 0.13378 0.8453 0.0
O362 O 0.49769 0.12527 0.81079 0.0
H363 H 0.37533 0.19894 0.86304 0.0
H364 H 0.58584 0.12241 0.85605 0.0
O365 O 0.58192 0.16689 0.82266 0.0
H366 H 0.55505 0.02804 0.80518 0.0
H367 H 0.61106 0.12184 0.7413 0.0
H368 H 0.50363 0.15519 0.76827 0.0
H369 H 0.53288 0.08085 0.79474 0.0
H370 H 0.59775 0.12732 0.78761 0.0
O371 O 0.49311 0.13081 0.89526 0.0
H372 H 0.42728 0.18256 0.84533 0.0
H373 H 0.46469 0.17356 0.92136 0.0
H374 H 0.51581 0.14978 0.72177 0.0
H375 H 0.6088 0.07011 0.867 0.0
H376 H 0.56987 0.13299 0.70803 0.0
H377 H 0.59332 0.02244 0.84153 0.0
O378 O 0.5206 0.18802 0.80895 0.0
H379 H 0.576 0.19748 0.9293 0.0
H380 H 0.48189 0.23318 0.8803 0.0
H381 H 0.51158 0.27181 0.90689 0.0
H382 H 0.55901 0.254 0.93164 0.0
H383 H 0.54577 0.15972 0.90227 0.0
H384 H 0.41306 0.18963 0.93991 0.0
H385 H 0.36798 0.20257 0.91066 0.0
O386 O 0.48529 0.19791 0.84063 0.0
C387 C 0.47167 0.12158 0.82313 0.0
C388 C 0.39483 0.19348 0.87598 0.0
C389 C 0.41599 0.18821 0.91913 0.0
N390 N 0.44904 0.1774 0.88229 0.0
C391 C 0.42432 0.18429 0.86607 0.0
C392 C 0.44514 0.17907 0.90852 0.0
C393 C 0.39071 0.19548 0.90271 0.0
C394 C 0.57925 0.10184 0.8447 0.0
N395 N 0.5582 0.10471 0.82469 0.0
C396 C 0.59222 0.07226 0.85107 0.0
C397 C 0.58348 0.04552 0.83679 0.0
C398 C 0.562 0.04864 0.8164 0.0
C399 C 0.54948 0.07859 0.81061 0.0
C400 C 0.58739 0.12909 0.74705 0.0
C401 C 0.52713 0.14763 0.76244 0.0
C402 C 0.57974 0.13227 0.77323 0.0
N403 N 0.54985 0.14124 0.78061 0.0
C404 C 0.53392 0.14472 0.73608 0.0
C405 C 0.56427 0.13534 0.72839 0.0
C406 C 0.49874 0.20485 0.81922 0.0
C407 C 0.55532 0.2055 0.91866 0.0
C408 C 0.50254 0.22528 0.89095 0.0
C409 C 0.51922 0.24724 0.90603 0.0
C410 C 0.54581 0.23723 0.91993 0.0
N411 N 0.51205 0.19422 0.88978 0.0
C412 C 0.53803 0.1842 0.90341 0.0
Co413 Co 0.85474 0.04232 0.31269 0.0
Co414 Co 0.83618 0.98914 0.36145 0.0
O415 O 0.84989 0.03076 0.34905 0.0
C416 C 0.80949 0.08888 0.33401 0.0
O417 O 0.79563 0.06484 0.34562 0.0
C418 C 0.89861 0.99908 0.38576 0.0
O419 O 0.90883 0.00713 0.36267 0.0
O420 O 0.86643 0.96705 0.33802 0.0
O421 O 0.87551 0.00056 0.30489 0.0
H422 H 0.80139 0.87532 0.35244 0.0
H423 H 0.87832 0.08563 0.35371 0.0
O424 O 0.83382 0.08427 0.31979 0.0
H425 H 0.9726 0.05819 0.30153 0.0
H426 H 0.87878 0.11788 0.2397 0.0
H427 H 0.84591 0.00887 0.26267 0.0
H428 H 0.91975 0.03708 0.28999 0.0
H429 H 0.87323 0.10201 0.28546 0.0
O430 O 0.86969 0.99092 0.38897 0.0
H431 H 0.81816 0.9281 0.33665 0.0
H432 H 0.82648 0.96147 0.41395 0.0
H433 H 0.85143 0.02363 0.21666 0.0
H434 H 0.93068 0.10747 0.36584 0.0
H435 H 0.86796 0.0785 0.20494 0.0
H436 H 0.9783 0.09366 0.33972 0.0
O437 O 0.81248 0.02399 0.3039 0.0
H438 H 0.80336 0.07128 0.42691 0.0
H439 H 0.7671 0.98159 0.37289 0.0
H440 H 0.72858 0.00963 0.40074 0.0
H441 H 0.74666 0.05481 0.42803 0.0
H442 H 0.84101 0.04279 0.39857 0.0
H443 H 0.81006 0.90898 0.4306 0.0
H444 H 0.79725 0.86551 0.39973 0.0
O445 O 0.80277 0.9866 0.33404 0.0
C446 C 0.87883 0.97372 0.31616 0.0
C447 C 0.80677 0.89411 0.36608 0.0
C448 C 0.81168 0.91299 0.40995 0.0
N449 N 0.82293 0.94792 0.37436 0.0
C450 C 0.81616 0.92407 0.35725 0.0
C451 C 0.82101 0.94264 0.40041 0.0
C452 C 0.80449 0.88861 0.39262 0.0
C453 C 0.89889 0.07977 0.3421 0.0
N454 N 0.89597 0.06021 0.32111 0.0
C455 C 0.92849 0.0921 0.34912 0.0
C456 C 0.9552 0.08431 0.33448 0.0
C457 C 0.95202 0.06439 0.31306 0.0
C458 C 0.92205 0.05245 0.30665 0.0
C459 C 0.87163 0.09388 0.24456 0.0
C460 C 0.85333 0.03272 0.25771 0.0
C461 C 0.86839 0.08478 0.27043 0.0
N462 N 0.85951 0.05448 0.2767 0.0
C463 C 0.85632 0.04097 0.23163 0.0
C464 C 0.86556 0.07177 0.22507 0.0
C465 C 0.79571 0.00151 0.3133 0.0
C466 C 0.79521 0.05157 0.41517 0.0
C467 C 0.77514 0.00127 0.38467 0.0
C468 C 0.75323 0.01701 0.40044 0.0
C469 C 0.7634 0.04234 0.41576 0.0
N470 N 0.80631 0.01046 0.3842 0.0
C471 C 0.81646 0.03525 0.39919 0.0
H472 H 0.02231 0.37941 0.93761 0.0
H473 H 0.02241 0.41543 0.97472 0.0
H474 H 0.97917 0.48869 0.92798 0.0
H475 H 0.97946 0.45301 0.89061 0.0
H476 H 0.02624 0.5125 0.95729 0.0
H477 H 0.93526 0.44539 0.97079 0.0
H478 H 0.90711 0.39421 0.97501 0.0
H479 H 0.96536 0.36966 0.04031 0.0
H480 H 0.99419 0.42053 0.03624 0.0
H481 H 0.97604 0.6143 0.05857 0.0
H482 H 0.97718 0.5782 0.02154 0.0
H483 H 0.02019 0.50553 0.06904 0.0
H484 H 0.01865 0.54131 0.10634 0.0
H485 H 0.97376 0.48124 0.03946 0.0
H486 H 0.06443 0.54857 0.02625 0.0
H487 H 0.09261 0.59973 0.02201 0.0
H488 H 0.03504 0.62386 0.95621 0.0
H489 H 0.00618 0.57302 0.96029 0.0
C490 C 0.01284 0.40319 0.9352 0.0
C491 C 0.00079 0.41333 0.91119 0.0
C492 C 0.01283 0.42371 0.95646 0.0
C493 C 0.00044 0.4546 0.95418 0.0
C494 C 0.98882 0.46494 0.93015 0.0
C495 C 0.98895 0.44449 0.90884 0.0
C496 C 0.99944 0.47611 0.97691 0.0
C497 C 0.01442 0.50585 0.97516 0.0
C498 C 0.98463 0.46709 0.00039 0.0
C499 C 0.96708 0.43665 0.00306 0.0
C500 C 0.94221 0.42899 0.98594 0.0
C501 C 0.92612 0.40005 0.98832 0.0
C502 C 0.9345 0.37866 0.00787 0.0
C503 C 0.95893 0.38623 0.02515 0.0
C504 C 0.97513 0.41513 0.02283 0.0
C505 C 0.98574 0.59064 0.06116 0.0
C506 C 0.9973 0.58067 0.08538 0.0
C507 C 0.98648 0.57007 0.03994 0.0
C508 C 0.99913 0.53932 0.04246 0.0
C509 C 0.01035 0.52918 0.06668 0.0
C510 C 0.00949 0.54968 0.08795 0.0
C511 C 0.00052 0.51766 0.01984 0.0
C512 C 0.98561 0.48788 0.02161 0.0
C513 C 0.0154 0.52665 0.99638 0.0
C514 C 0.03294 0.5571 0.99373 0.0
C515 C 0.05762 0.56488 0.01099 0.0
C516 C 0.07374 0.59381 0.0086 0.0
C517 C 0.06557 0.61506 0.98889 0.0
C518 C 0.04132 0.60739 0.97148 0.0
C519 C 0.02509 0.5785 0.97381 0.0
H520 H 0.07807 0.63746 0.98708 0.0
H521 H 0.92202 0.35626 0.00968 0.0
H522 H 0.45445 0.50704 0.60846 0.0
H523 H 0.48905 0.50848 0.57056 0.0
H524 H 0.40913 0.48664 0.52128 0.0
H525 H 0.3744 0.48442 0.5592 0.0
H526 H 0.46038 0.4528 0.50748 0.0
H527 H 0.4379 0.56229 0.52568 0.0
H528 H 0.43403 0.60998 0.55331 0.0
H529 H 0.53463 0.60662 0.56723 0.0
H530 H 0.53904 0.55859 0.54001 0.0
H531 H 0.5408 0.4923 0.39044 0.0
H532 H 0.50261 0.49182 0.42615 0.0
H533 H 0.57818 0.51243 0.48011 0.0
H534 H 0.61635 0.51353 0.44458 0.0
H535 H 0.52668 0.54805 0.49005 0.0
H536 H 0.54862 0.43731 0.47346 0.0
H537 H 0.55251 0.38931 0.4462 0.0
H538 H 0.45272 0.39517 0.42923 0.0
H539 H 0.44834 0.44352 0.45611 0.0
C540 C 0.44421 0.50247 0.58958 0.0
C541 C 0.41166 0.49571 0.58683 0.0
C542 C 0.464 0.50345 0.56792 0.0
C543 C 0.45157 0.49812 0.54306 0.0
C544 C 0.41918 0.49089 0.54028 0.0
C545 C 0.39938 0.48972 0.56197 0.0
C546 C 0.47241 0.5002 0.51999 0.0
C547 C 0.47451 0.47381 0.50343 0.0
C548 C 0.49123 0.52742 0.51498 0.0
C549 C 0.48875 0.55668 0.53096 0.0
C550 C 0.45917 0.57161 0.53475 0.0
C551 C 0.45688 0.59871 0.55034 0.0
C552 C 0.48405 0.61128 0.56207 0.0
C553 C 0.5136 0.59684 0.55815 0.0
C554 C 0.51601 0.56969 0.54262 0.0
C555 C 0.54928 0.49678 0.4099 0.0
C556 C 0.58162 0.50288 0.41468 0.0
C557 C 0.52745 0.4964 0.43029 0.0
C558 C 0.53763 0.5018 0.45581 0.0
C559 C 0.56982 0.50824 0.46057 0.0
C560 C 0.59162 0.50873 0.44022 0.0
C561 C 0.51489 0.50054 0.4777 0.0
C562 C 0.5124 0.52712 0.49402 0.0
C563 C 0.49571 0.47351 0.48247 0.0
C564 C 0.49823 0.44421 0.46658 0.0
C565 C 0.52755 0.42849 0.46378 0.0
C566 C 0.52984 0.40121 0.44841 0.0
C567 C 0.50289 0.38925 0.43593 0.0
C568 C 0.47358 0.40449 0.43887 0.0
C569 C 0.47118 0.43182 0.45418 0.0
H570 H 0.50471 0.36813 0.42403 0.0
H571 H 0.48223 0.63223 0.57415 0.0
H572 H 0.51927 0.8749 0.05985 0.0
H573 H 0.5212 0.91077 0.02265 0.0
H574 H 0.49252 0.98901 0.07141 0.0
H575 H 0.49084 0.95343 0.10878 0.0
H576 H 0.47506 0.94573 0.0002 0.0
H577 H 0.52892 0.05685 0.05034 0.0
H578 H 0.5651 0.06937 0.08655 0.0
H579 H 0.61025 0.97833 0.07809 0.0
H580 H 0.57475 0.96549 0.0416 0.0
H581 H 0.48888 0.11528 0.94258 0.0
H582 H 0.4911 0.07879 0.97936 0.0
H583 H 0.52171 0.00316 0.92869 0.0
H584 H 0.51929 0.03939 0.89173 0.0
H585 H 0.5398 0.04441 0.00037 0.0
H586 H 0.48787 0.93374 0.94958 0.0
H587 H 0.45195 0.9206 0.91335 0.0
H588 H 0.40366 0.00983 0.92308 0.0
H589 H 0.43898 0.02329 0.95957 0.0
C590 C 0.51346 0.89976 0.0627 0.0
C591 C 0.50505 0.91136 0.08731 0.0
C592 C 0.5145 0.92019 0.0414 0.0
C593 C 0.50732 0.95259 0.04432 0.0
C594 C 0.49864 0.96418 0.06881 0.0
C595 C 0.4976 0.94378 0.09013 0.0
C596 C 0.50849 0.9742 0.02169 0.0
C597 C 0.48958 0.96706 8e-05 0.0
C598 C 0.52699 0.00232 0.02177 0.0
C599 C 0.54892 0.0101 0.04339 0.0
C600 C 0.54667 0.03957 0.05613 0.0
C601 C 0.56706 0.04672 0.07672 0.0
C602 C 0.5899 0.02462 0.08468 0.0
C603 C 0.59249 0.99539 0.07198 0.0
C604 C 0.57222 0.98815 0.05136 0.0
C605 C 0.4961 0.09089 0.93923 0.0
C606 C 0.50364 0.08016 0.91418 0.0
C607 C 0.49748 0.07012 0.9603 0.0
C608 C 0.50626 0.03823 0.95671 0.0
C609 C 0.51444 0.02759 0.93182 0.0
C610 C 0.51308 0.04835 0.91073 0.0
C611 C 0.50628 0.01597 0.97895 0.0
C612 C 0.52538 0.02301 0.00048 0.0
C613 C 0.48804 0.98769 0.97879 0.0
C614 C 0.46632 0.97965 0.95712 0.0
C615 C 0.46951 0.95049 0.94404 0.0
C616 C 0.44926 0.943 0.92345 0.0
C617 C 0.42561 0.96441 0.91586 0.0
C618 C 0.42207 0.99332 0.92891 0.0
C619 C 0.44222 0.00091 0.94953 0.0
H620 H 0.40998 0.95858 0.8999 0.0
H621 H 0.60563 0.03019 0.10063 0.0
H622 H 0.88517 0.98441 0.43613 0.0
H623 H 0.92127 0.98596 0.47314 0.0
H624 H 0.99746 0.01711 0.42335 0.0
H625 H 0.96158 0.01537 0.38609 0.0
H626 H 0.0167 0.9705 0.45651 0.0
H627 H 0.96054 0.06953 0.46198 0.0
H628 H 0.91314 0.10402 0.4634 0.0
H629 H 0.88199 0.05771 0.533 0.0
H630 H 0.92899 0.02258 0.53177 0.0
H631 H 0.12241 0.01915 0.55607 0.0
H632 H 0.08705 0.01898 0.51853 0.0
H633 H 0.00932 0.98819 0.56687 0.0
H634 H 0.04441 0.98856 0.6046 0.0
H635 H 0.99135 0.0354 0.53408 0.0
H636 H 0.04692 0.93591 0.52833 0.0
H637 H 0.09418 0.90122 0.52698 0.0
H638 H 0.1263 0.94822 0.45798 0.0
H639 H 0.07944 0.98355 0.45915 0.0
C640 C 0.90961 0.99159 0.43301 0.0
C641 C 0.92049 -0.00017 0.40816 0.0
C642 C 0.93017 0.99256 0.45421 0.0
C643 C 0.96195 0.00196 0.45102 0.0
C644 C 0.97301 0.00982 0.42621 0.0
C645 C 0.95244 0.00889 0.40497 0.0
C646 C 0.98362 0.00351 0.4736 0.0
C647 C 0.01142 0.98504 0.47332 0.0
C648 C 0.97631 0.02196 0.49574 0.0
C649 C 0.94814 0.04322 0.49665 0.0
C650 C 0.94346 0.06653 0.47748 0.0
C651 C 0.91668 0.08622 0.47827 0.0
C652 C 0.89453 0.08301 0.49824 0.0
C653 C 0.89915 0.06014 0.51752 0.0
C654 C 0.92587 0.04036 0.5168 0.0
C655 C 0.09779 0.01237 0.55875 0.0
C656 C 0.08623 0.0038 0.58332 0.0
C657 C 0.07764 0.01219 0.53725 0.0
C658 C 0.04565 0.00328 0.53988 0.0
C659 C 0.03394 0.99514 0.56443 0.0
C660 C 0.05406 0.99529 0.58595 0.0
C661 C 0.02439 0.00233 0.51701 0.0
C662 C 0.99667 0.02091 0.51724 0.0
C663 C 0.03176 0.98397 0.49484 0.0
C664 C 0.05983 0.96259 0.49397 0.0
C665 C 0.06418 0.93902 0.51298 0.0
C666 C 0.09088 0.91921 0.51223 0.0
C667 C 0.11327 0.92257 0.49245 0.0
C668 C 0.10895 0.94568 0.47332 0.0
C669 C 0.08232 0.96559 0.474 0.0
H670 H 0.13393 0.90722 0.4919 0.0
H671 H 0.87381 0.09827 0.49881 0.0
H672 H 0.14321 0.66465 0.1808 0.0
H673 H 0.19691 0.68641 0.17881 0.0
H674 H 0.16331 0.76377 0.13125 0.0
H675 H 0.10933 0.74198 0.1329 0.0
H676 H 0.22107 0.74035 0.11447 0.0
H677 H 0.17413 0.77678 0.19356 0.0
H678 H 0.14572 0.77084 0.23503 0.0
H679 H 0.22055 0.711 0.26384 0.0
H680 H 0.2492 0.7162 0.22237 0.0
H681 H 0.35582 0.83655 0.1838 0.0
H682 H 0.30079 0.81879 0.17992 0.0
H683 H 0.33166 0.73648 0.13679 0.0
H684 H 0.38683 0.75436 0.14017 0.0
H685 H 0.27325 0.76689 0.19793 0.0
H686 H 0.27347 0.71558 0.09373 0.0
H687 H 0.30048 0.72494 0.05203 0.0
H688 H 0.31663 0.82246 0.07298 0.0
H689 H 0.28932 0.81382 0.11462 0.0
C690 C 0.14719 0.6862 0.16977 0.0
C691 C 0.12192 0.70178 0.15723 0.0
C692 C 0.17791 0.69861 0.16869 0.0
C693 C 0.18396 0.7269 0.15516 0.0
C694 C 0.15907 0.74193 0.14183 0.0
C695 C 0.12824 0.72953 0.14291 0.0
C696 C 0.21603 0.74138 0.15595 0.0
C697 C 0.23253 0.74619 0.13268 0.0
C698 C 0.23065 0.74954 0.17971 0.0
C699 C 0.21368 0.74667 0.20479 0.0
C700 C 0.18443 0.76218 0.20868 0.0
C701 C 0.16829 0.75897 0.23219 0.0
C702 C 0.18129 0.7405 0.25203 0.0
C703 C 0.2105 0.72527 0.24844 0.0
C704 C 0.22671 0.72837 0.22494 0.0
C705 C 0.35094 0.81472 0.17338 0.0
C706 C 0.37573 0.79682 0.16234 0.0
C707 C 0.31946 0.80459 0.17123 0.0
C708 C 0.3121 0.77644 0.15793 0.0
C709 C 0.33676 0.75853 0.14682 0.0
C710 C 0.3683 0.76869 0.1489 0.0
C711 C 0.27868 0.76536 0.15646 0.0
C712 C 0.26187 0.76114 0.17966 0.0
C713 C 0.26365 0.75832 0.13261 0.0
C714 C 0.27961 0.76394 0.10741 0.0
C715 C 0.28266 0.73906 0.08938 0.0
C716 C 0.29804 0.74423 0.06577 0.0
C717 C 0.31036 0.77424 0.0599 0.0
C718 C 0.30719 0.79919 0.07759 0.0
C719 C 0.29179 0.79415 0.10122 0.0
H720 H 0.3223 0.77818 0.04162 0.0
H721 H 0.16875 0.73803 0.27022 0.0
H722 H 0.34143 0.64363 0.66491 0.0
H723 H 0.32369 0.69879 0.6618 0.0
H724 H 0.22777 0.66692 0.64731 0.0
H725 H 0.24569 0.61157 0.64935 0.0
H726 H 0.23946 0.71674 0.61873 0.0
H727 H 0.2532 0.69153 0.70835 0.0
H728 H 0.28191 0.67193 0.74681 0.0
H729 H 0.3523 0.74493 0.73718 0.0
H730 H 0.32426 0.76467 0.6984 0.0
H731 H 0.15981 0.85694 0.66479 0.0
H732 H 0.18046 0.80262 0.66118 0.0
H733 H 0.27565 0.83932 0.65313 0.0
H734 H 0.25514 0.89383 0.65611 0.0
H735 H 0.26511 0.78825 0.69231 0.0
H736 H 0.24749 0.81401 0.60252 0.0
H737 H 0.21558 0.83309 0.56561 0.0
H738 H 0.14798 0.75813 0.57813 0.0
H739 H 0.17923 0.73893 0.61543 0.0
C740 C 0.31659 0.64837 0.66088 0.0
C741 C 0.29485 0.6233 0.65766 0.0
C742 C 0.30645 0.67992 0.65921 0.0
C743 C 0.27425 0.68704 0.65494 0.0
C744 C 0.25271 0.66202 0.65075 0.0
C745 C 0.26296 0.63041 0.65198 0.0
C746 C 0.26288 0.72049 0.65575 0.0
C747 C 0.24482 0.73223 0.63496 0.0
C748 C 0.27012 0.74091 0.67679 0.0
C749 C 0.2868 0.72938 0.70032 0.0
C750 C 0.27491 0.70328 0.71434 0.0
C751 C 0.29106 0.69215 0.7362 0.0
C752 C 0.31896 0.70711 0.74439 0.0
C753 C 0.33071 0.73333 0.73078 0.0
C754 C 0.3147 0.74451 0.70887 0.0
C755 C 0.18513 0.85344 0.66218 0.0
C756 C 0.2059 0.87958 0.66074 0.0
C757 C 0.19683 0.82246 0.66005 0.0
C758 C 0.22951 0.81712 0.65684 0.0
C759 C 0.25035 0.8431 0.65557 0.0
C760 C 0.23859 0.87414 0.65719 0.0
C761 C 0.2419 0.78428 0.65534 0.0
C762 C 0.25999 0.77269 0.67607 0.0
C763 C 0.23422 0.7639 0.6345 0.0
C764 C 0.21554 0.77523 0.61194 0.0
C765 C 0.22567 0.80177 0.59756 0.0
C766 C 0.20773 0.81258 0.57654 0.0
C767 C 0.17973 0.79688 0.56957 0.0
C768 C 0.16966 0.77029 0.58358 0.0
C769 C 0.18748 0.75943 0.60465 0.0
H770 H 0.16587 0.80528 0.55328 0.0
H771 H 0.33144 0.69844 0.76131 0.0
H772 H 0.63867 0.17738 0.80666 0.0
H773 H 0.69295 0.19677 0.81182 0.0
H774 H 0.66435 0.25077 0.87898 0.0
H775 H 0.60959 0.23234 0.87332 0.0
H776 H 0.70172 0.28522 0.85161 0.0
H777 H 0.70767 0.18019 0.88419 0.0
H778 H 0.6998 0.12208 0.88474 0.0
H779 H 0.75945 0.11244 0.81776 0.0
H780 H 0.76729 0.17057 0.81655 0.0
H781 H 0.88616 0.26172 0.87166 0.0
H782 H 0.83154 0.24286 0.8774 0.0
H783 H 0.80085 0.30268 0.81423 0.0
H784 H 0.85497 0.32233 0.80898 0.0
H785 H 0.79331 0.21088 0.84835 0.0
H786 H 0.72691 0.32872 0.82238 0.0
H787 H 0.73481 0.38652 0.82751 0.0
H788 H 0.79627 0.36995 0.89251 0.0
H789 H 0.78837 0.3121 0.88803 0.0
C790 C 0.64394 0.19337 0.82255 0.0
C791 C 0.61991 0.20331 0.83962 0.0
C792 C 0.67504 0.20429 0.82558 0.0
C793 C 0.68292 0.22477 0.84609 0.0
C794 C 0.65887 0.23492 0.86305 0.0
C795 C 0.62761 0.22437 0.8598 0.0
C796 C 0.71613 0.2361 0.84934 0.0
C797 C 0.72173 0.26895 0.85103 0.0
C798 C 0.74228 0.21484 0.84943 0.0
C799 C 0.73789 0.1798 0.85019 0.0
C800 C 0.71895 0.16571 0.86948 0.0
C801 C 0.71451 0.13276 0.86992 0.0
C802 C 0.72907 0.11359 0.85127 0.0
C803 C 0.74817 0.12733 0.83218 0.0
C804 C 0.75266 0.16028 0.83163 0.0
C805 C 0.86771 0.2709 0.85906 0.0
C806 C 0.87481 0.29361 0.83994 0.0
C807 C 0.83653 0.26009 0.86235 0.0
C808 C 0.81197 0.2717 0.84652 0.0
C809 C 0.8192 0.29396 0.82713 0.0
C810 C 0.85022 0.30505 0.82404 0.0
C811 C 0.77888 0.26004 0.84967 0.0
C812 C 0.7733 0.22712 0.8492 0.0
C813 C 0.75276 0.28118 0.85163 0.0
C814 C 0.75722 0.31603 0.85472 0.0
C815 C 0.74196 0.33741 0.83786 0.0
C816 C 0.74647 0.37019 0.84063 0.0
C817 C 0.76609 0.38189 0.86028 0.0
C818 C 0.78116 0.36085 0.87725 0.0
C819 C 0.77669 0.32806 0.87458 0.0
H820 H 0.76959 0.40727 0.86237 0.0
H821 H 0.7256 0.08808 0.85164 0.0
H822 H 0.70264 0.3726 0.38705 0.0
H823 H 0.71982 0.31691 0.38822 0.0
H824 H 0.7244 0.31597 0.30462 0.0
H825 H 0.7044 0.3705 0.30358 0.0
H826 H 0.7031 0.26407 0.31712 0.0
H827 H 0.79292 0.32279 0.34975 0.0
H828 H 0.82108 0.35993 0.37877 0.0
H829 H 0.79761 0.30144 0.44417 0.0
H830 H 0.76899 0.26414 0.41556 0.0
H831 H 0.81797 0.13963 0.30196 0.0
H832 H 0.79578 0.1932 0.30672 0.0
H833 H 0.75095 0.1654 0.37825 0.0
H834 H 0.77239 0.11138 0.37334 0.0
H835 H 0.79059 0.22901 0.3749 0.0
H836 H 0.703 0.16868 0.33754 0.0
H837 H 0.68017 0.13206 0.30519 0.0
H838 H 0.70685 0.19601 0.24414 0.0
H839 H 0.7303 0.23278 0.27612 0.0
C840 C 0.70726 0.36027 0.36901 0.0
C841 C 0.70234 0.37559 0.34524 0.0
C842 C 0.71735 0.32856 0.36965 0.0
C843 C 0.7242 0.31219 0.34652 0.0
C844 C 0.71925 0.32781 0.32277 0.0
C845 C 0.70797 0.35902 0.32214 0.0
C846 C 0.73619 0.2788 0.34679 0.0
C847 C 0.72246 0.25672 0.32964 0.0
C848 C 0.76114 0.26861 0.36337 0.0
C849 C 0.77855 0.29087 0.38055 0.0
C850 C 0.79362 0.31796 0.37034 0.0
C851 C 0.80967 0.33902 0.38671 0.0
C852 C 0.81105 0.33309 0.4133 0.0
C853 C 0.79648 0.30603 0.42357 0.0
C854 C 0.78036 0.28491 0.40729 0.0
C855 C 0.80346 0.14493 0.31874 0.0
C856 C 0.79677 0.12135 0.33723 0.0
C857 C 0.79082 0.17548 0.3214 0.0
C858 C 0.7718 0.18306 0.34281 0.0
C859 C 0.76564 0.15985 0.36163 0.0
C860 C 0.77774 0.12906 0.35872 0.0
C861 C 0.7578 0.21515 0.34504 0.0
C862 C 0.77114 0.23673 0.36261 0.0
C863 C 0.73317 0.22519 0.32838 0.0
C864 C 0.71866 0.20332 0.3092 0.0
C865 C 0.70424 0.17479 0.3172 0.0
C866 C 0.69114 0.15404 0.29894 0.0
C867 C 0.69213 0.16167 0.27262 0.0
C868 C 0.70613 0.19012 0.26453 0.0
C869 C 0.71929 0.21093 0.28272 0.0
H870 H 0.68199 0.14556 0.25851 0.0
H871 H 0.82347 0.34944 0.42594 0.0
H872 H 0.74572 0.5544 0.33108 0.0
H873 H 0.79183 0.57192 0.30626 0.0
H874 H 0.79894 0.47892 0.27128 0.0
H875 H 0.75185 0.46171 0.29514 0.0
H876 H 0.85098 0.55798 0.30151 0.0
H877 H 0.8224 0.4846 0.2095 0.0
H878 H 0.77584 0.46049 0.18803 0.0
H879 H 0.71473 0.52992 0.22332 0.0
H880 H 0.76095 0.55468 0.24469 0.0
H881 H 0.97986 0.57913 0.21676 0.0
H882 H 0.93809 0.55336 0.2419 0.0
H883 H 0.86679 0.60071 0.19575 0.0
H884 H 0.90842 0.62538 0.16973 0.0
H885 H 0.84715 0.54413 0.20614 0.0
H886 H 0.89135 0.62928 0.25603 0.0
H887 H 0.93473 0.65969 0.27651 0.0
H888 H 0.95757 0.5794 0.32442 0.0
H889 H 0.91464 0.54831 0.3039 0.0
C890 C 0.75725 0.53758 0.31827 0.0
C891 C 0.74486 0.50683 0.31476 0.0
C892 C 0.78369 0.54761 0.30413 0.0
C893 C 0.79849 0.52697 0.28648 0.0
C894 C 0.78741 0.49556 0.28425 0.0
C895 C 0.76058 0.48571 0.29798 0.0
C896 C 0.8243 0.5389 0.26945 0.0
C897 C 0.8502 0.55482 0.28068 0.0
C898 C 0.82298 0.53548 0.24217 0.0
C899 C 0.79511 0.52126 0.22889 0.0
C900 C 0.79904 0.4948 0.21256 0.0
C901 C 0.77271 0.481 0.20044 0.0
C902 C 0.74233 0.49359 0.20438 0.0
C903 C 0.73825 0.52011 0.22035 0.0
C904 C 0.7645 0.53403 0.23247 0.0
C905 C 0.95531 0.58377 0.21174 0.0
C906 C 0.94749 0.60452 0.19136 0.0
C907 C 0.93143 0.56913 0.22623 0.0
C908 C 0.89929 0.57563 0.22109 0.0
C909 C 0.89142 0.59537 0.20013 0.0
C910 C 0.91528 0.60955 0.1853 0.0
C911 C 0.87389 0.56306 0.23821 0.0
C912 C 0.84807 0.54705 0.227 0.0
C913 C 0.87468 0.56749 0.2654 0.0
C914 C 0.89998 0.58638 0.27826 0.0
C915 C 0.90572 0.61806 0.27085 0.0
C916 C 0.93024 0.63542 0.28245 0.0
C917 C 0.94895 0.62146 0.3017 0.0
C918 C 0.94309 0.59016 0.30947 0.0
C919 C 0.91866 0.57267 0.29787 0.0
H920 H 0.96796 0.63491 0.31063 0.0
H921 H 0.72198 0.48283 0.19501 0.0
H922 H 0.40414 0.42238 0.66097 0.0
H923 H 0.42938 0.37875 0.68449 0.0
H924 H 0.40195 0.42175 0.75702 0.0
H925 H 0.37806 0.46624 0.7336 0.0
H926 H 0.45747 0.39683 0.76256 0.0
H927 H 0.35889 0.35962 0.72801 0.0
H928 H 0.31901 0.35008 0.69389 0.0
H929 H 0.38484 0.28982 0.65346 0.0
H930 H 0.42533 0.29942 0.68715 0.0
H931 H 0.462 0.25366 0.83776 0.0
H932 H 0.4433 0.30051 0.81419 0.0
H933 H 0.4913 0.26781 0.74542 0.0
H934 H 0.51057 0.22109 0.76884 0.0
H935 H 0.42594 0.28703 0.73827 0.0
H936 H 0.52397 0.32505 0.77628 0.0
H937 H 0.56072 0.33482 0.81262 0.0
H938 H 0.49049 0.39321 0.84984 0.0
H939 H 0.45313 0.38338 0.81388 0.0
C940 C 0.40376 0.42266 0.68194 0.0
C941 C 0.38885 0.44756 0.69545 0.0
C942 C 0.41805 0.39764 0.69537 0.0
C943 C 0.41686 0.39651 0.72254 0.0
C944 C 0.40306 0.42199 0.73607 0.0
C945 C 0.38935 0.44739 0.72265 0.0
C946 C 0.42897 0.36828 0.73678 0.0
C947 C 0.45027 0.37288 0.75739 0.0
C948 C 0.41978 0.33691 0.72999 0.0
C949 C 0.39525 0.33048 0.70999 0.0
C950 C 0.36492 0.34446 0.71177 0.0
C951 C 0.34221 0.33905 0.69251 0.0
C952 C 0.34942 0.31944 0.67147 0.0
C953 C 0.37931 0.30506 0.66974 0.0
C954 C 0.40215 0.31045 0.68893 0.0
C955 C 0.46878 0.25647 0.81767 0.0
C956 C 0.48796 0.23367 0.80525 0.0
C957 C 0.45807 0.28327 0.80426 0.0
C958 C 0.46606 0.28758 0.77814 0.0
C959 C 0.48494 0.26484 0.7656 0.0
C960 C 0.49604 0.23825 0.77907 0.0
C961 C 0.45442 0.31573 0.76381 0.0
C962 C 0.43313 0.31105 0.74328 0.0
C963 C 0.46306 0.34699 0.77103 0.0
C964 C 0.48565 0.35323 0.7925 0.0
C965 C 0.51627 0.33977 0.7923 0.0
C966 C 0.53723 0.34535 0.81282 0.0
C967 C 0.52792 0.36456 0.83356 0.0
C968 C 0.49766 0.37831 0.83378 0.0
C969 C 0.4766 0.37276 0.81332 0.0
H970 H 0.54417 0.36885 0.84943 0.0
H971 H 0.33182 0.31534 0.65655 0.0
H972 H 0.52371 0.91516 0.21703 0.0
H973 H 0.56688 0.94365 0.23828 0.0
H974 H 0.6351 0.89417 0.19058 0.0
H975 H 0.59193 0.86637 0.16855 0.0
H976 H 0.61174 0.92395 0.26721 0.0
H977 H 0.70109 0.93826 0.1814 0.0
H978 H 0.6995 0.94747 0.13426 0.0
H979 H 0.60695 0.98975 0.14129 0.0
H980 H 0.60819 0.98131 0.18851 0.0
H981 H 0.76477 0.94467 0.31644 0.0
H982 H 0.71792 0.9277 0.29248 0.0
H983 H 0.71337 0.01928 0.25485 0.0
H984 H 0.7614 0.03594 0.27796 0.0
H985 H 0.7009 0.97645 0.22113 0.0
H986 H 0.66183 0.99777 0.30546 0.0
H987 H 0.66026 0.99531 0.35313 0.0
H988 H 0.64503 0.8944 0.34977 0.0
H989 H 0.64703 0.89616 0.30207 0.0
C990 C 0.54785 0.91054 0.21083 0.0
C991 C 0.55431 0.88854 0.19098 0.0
C992 C 0.57255 0.92682 0.22308 0.0
C993 C 0.60426 0.92133 0.21591 0.0
C994 C 0.61081 0.89937 0.1961 0.0
C995 C 0.58607 0.88335 0.18359 0.0
C996 C 0.63054 0.93742 0.22998 0.0
C997 C 0.63115 0.93556 0.25711 0.0
C998 C 0.65544 0.95339 0.21691 0.0
C999 C 0.65465 0.95887 0.18851 0.0
C1000 C 0.68046 0.94966 0.17292 0.0
C1001 C 0.67962 0.95474 0.14618 0.0
C1002 C 0.65312 0.96912 0.13479 0.0
C1003 C 0.62743 0.97854 0.15012 0.0
C1004 C 0.62819 0.97358 0.17688 0.0
C1005 C 0.75379 0.96128 0.30313 0.0
C1006 C 0.76672 0.99173 0.29921 0.0
C1007 C 0.72686 0.95158 0.2895 0.0
C1008 C 0.71166 0.97241 0.27221 0.0
C1009 C 0.72462 0.0028 0.26812 0.0
C1010 C 0.752 0.01232 0.2814 0.0
C1011 C 0.68248 0.96217 0.25828 0.0
C1012 C 0.68133 0.9651 0.23121 0.0
C1013 C 0.65645 0.94823 0.27146 0.0
C1014 C 0.65479 0.94708 0.30017 0.0
C1015 C 0.65832 0.97503 0.31488 0.0
C1016 C 0.65735 0.97376 0.34191 0.0
C1017 C 0.6526 0.94471 0.35447 0.0
C1018 C 0.64872 0.91688 0.34002 0.0
C1019 C 0.64974 0.918 0.31298 0.0
H1020 H 0.65188 0.94378 0.3754 0.0
H1021 H 0.65253 0.97303 0.11409 0.0
H1022 H 0.9619 0.26379 0.77424 0.0
H1023 H 0.97705 0.21649 0.74956 0.0
H1024 H 0.06064 0.20567 0.79723 0.0
H1025 H 0.04515 0.25196 0.82251 0.0
H1026 H 0.0248 0.20367 0.72014 0.0
H1027 H 0.08171 0.13017 0.80412 0.0
H1028 H 0.07335 0.12158 0.85086 0.0
H1029 H 0.97535 0.14856 0.84295 0.0
H1030 H 0.98298 0.15682 0.79611 0.0
H1031 H 0.13371 0.09224 0.67088 0.0
H1032 H 0.10513 0.13446 0.69338 0.0
H1033 H 0.04308 0.06469 0.72812 0.0
H1034 H 0.07267 0.02223 0.70665 0.0
H1035 H 0.05854 0.10352 0.76288 0.0
H1036 H 0.01849 0.1172 0.67782 0.0
H1037 H 0.02048 0.1234 0.63039 0.0
H1038 H 0.07204 0.21091 0.63898 0.0
H1039 H 0.07077 0.20501 0.68647 0.0
C1040 C 0.98338 0.25118 0.7796 0.0
C1041 C 0.00221 0.2616 0.80047 0.0
C1042 C 0.99205 0.22419 0.76541 0.0
C1043 C 0.01975 0.20722 0.77174 0.0
C1044 C 0.03874 0.21784 0.79236 0.0
C1045 C 0.02991 0.2445 0.80674 0.0
C1046 C 0.02945 0.1789 0.75645 0.0
C1047 C 0.03199 0.18169 0.72945 0.0
C1048 C 0.03795 0.14985 0.76849 0.0
C1049 C 0.03301 0.14435 0.79661 0.0
C1050 C 0.05833 0.13408 0.81232 0.0
C1051 C 0.05372 0.12931 0.83884 0.0
C1052 C 0.02386 0.1346 0.84987 0.0
C1053 C 0.99849 0.14456 0.83439 0.0
C1054 C 0.00296 0.14932 0.80786 0.0
C1055 C 0.11379 0.0859 0.68312 0.0
C1056 C 0.10544 0.05389 0.68697 0.0
C1057 C 0.09731 0.11011 0.69589 0.0
C1058 C 0.07155 0.1029 0.71219 0.0
C1059 C 0.06285 0.07092 0.71569 0.0
C1060 C 0.07975 0.04666 0.70335 0.0
C1061 C 0.05481 0.12856 0.72658 0.0
C1062 C 0.05099 0.12531 0.75346 0.0
C1063 C 0.04408 0.15673 0.7143 0.0
C1064 C 0.0447 0.16054 0.68573 0.0
C1065 C 0.03042 0.13767 0.6696 0.0
C1066 C 0.0314 0.14114 0.6427 0.0
C1067 C 0.04642 0.16751 0.63168 0.0
C1068 C 0.06042 0.1905 0.64754 0.0
C1069 C 0.05954 0.18712 0.67446 0.0
H1070 H 0.04717 0.17014 0.61084 0.0
H1071 H 0.02036 0.13094 0.87041 0.0
H1072 H 0.08777 0.36924 0.82733 0.0
H1073 H 0.12949 0.39821 0.80472 0.0
H1074 H 0.05861 0.4486 0.76028 0.0
H1075 H 0.01671 0.4186 0.78205 0.0
H1076 H 0.10266 0.43169 0.72969 0.0
H1077 H 0.10249 0.48503 0.81036 0.0
H1078 H 0.10286 0.49072 0.85786 0.0
H1079 H 0.195 0.44689 0.86133 0.0
H1080 H 0.195 0.4405 0.81387 0.0
H1081 H 0.25626 0.53838 0.71889 0.0
H1082 H 0.2075 0.52375 0.74185 0.0
H1083 H 0.20824 0.4321 0.70417 0.0
H1084 H 0.25602 0.44686 0.68058 0.0
H1085 H 0.19421 0.48031 0.77558 0.0
H1086 H 0.13566 0.40461 0.6936 0.0
H1087 H 0.13282 0.40463 0.64592 0.0
H1088 H 0.1523 0.50487 0.64472 0.0
H1089 H 0.15471 0.5056 0.6924 0.0
C1090 C 0.08099 0.38665 0.81288 0.0
C1091 C 0.04887 0.39167 0.80656 0.0
C1092 C 0.10492 0.40337 0.80006 0.0
C1093 C 0.09724 0.42605 0.78108 0.0
C1094 C 0.06515 0.43129 0.77488 0.0
C1095 C 0.0412 0.41416 0.78739 0.0
C1096 C 0.12283 0.44308 0.76693 0.0
C1097 C 0.12254 0.44253 0.73975 0.0
C1098 C 0.14838 0.4581 0.77997 0.0
C1099 C 0.14865 0.46212 0.80854 0.0
C1100 C 0.12276 0.47643 0.82126 0.0
C1101 C 0.12291 0.4798 0.84818 0.0
C1102 C 0.14892 0.46913 0.86261 0.0
C1103 C 0.17487 0.45514 0.85013 0.0
C1104 C 0.17483 0.45168 0.82321 0.0
C1105 C 0.24591 0.51517 0.71541 0.0
C1106 C 0.25991 0.49388 0.69775 0.0
C1107 C 0.21809 0.50683 0.72858 0.0
C1108 C 0.20389 0.47703 0.72443 0.0
C1109 C 0.21824 0.45556 0.7072 0.0
C1110 C 0.24571 0.464 0.6938 0.0
C1111 C 0.1745 0.46784 0.73844 0.0
C1112 C 0.17408 0.46988 0.76555 0.0
C1113 C 0.14779 0.45516 0.72532 0.0
C1114 C 0.14558 0.45508 0.69661 0.0
C1115 C 0.1391 0.42671 0.68319 0.0
C1116 C 0.13762 0.42658 0.65615 0.0
C1117 C 0.14245 0.45472 0.6423 0.0
C1118 C 0.14864 0.48308 0.65547 0.0
C1119 C 0.15008 0.48335 0.6825 0.0
H1120 H 0.14137 0.45455 0.62136 0.0
H1121 H 0.14898 0.47174 0.88345 0.0
H1122 H 0.60531 0.5836 0.34563 0.0
H1123 H 0.57853 0.62671 0.32233 0.0
H1124 H 0.59709 0.57937 0.24983 0.0
H1125 H 0.6235 0.53602 0.27285 0.0
H1126 H 0.61352 0.64524 0.25087 0.0
H1127 H 0.52611 0.57579 0.2718 0.0
H1128 H 0.49245 0.54426 0.30124 0.0
H1129 H 0.46825 0.62881 0.34355 0.0
H1130 H 0.50222 0.66079 0.31459 0.0
H1131 H 0.52201 0.7351 0.16556 0.0
H1132 H 0.54155 0.69002 0.19052 0.0
H1133 H 0.50778 0.73379 0.26088 0.0
H1134 H 0.48712 0.77874 0.23585 0.0
H1135 H 0.49915 0.67071 0.26259 0.0
H1136 H 0.58525 0.74063 0.24243 0.0
H1137 H 0.61917 0.77317 0.21391 0.0
H1138 H 0.64719 0.68948 0.17205 0.0
H1139 H 0.61295 0.65649 0.20002 0.0
C1140 C 0.60365 0.58232 0.32473 0.0
C1141 C 0.61654 0.55635 0.31111 0.0
C1142 C 0.58827 0.60691 0.31149 0.0
C1143 C 0.58581 0.60609 0.28441 0.0
C1144 C 0.59879 0.58037 0.27075 0.0
C1145 C 0.61376 0.55558 0.28397 0.0
C1146 C 0.5701 0.6323 0.27021 0.0
C1147 C 0.58844 0.65061 0.25317 0.0
C1148 C 0.53762 0.63978 0.2739 0.0
C1149 C 0.51699 0.62063 0.2912 0.0
C1150 C 0.51385 0.58762 0.28752 0.0
C1151 C 0.49467 0.56967 0.3041 0.0
C1152 C 0.47829 0.58451 0.3243 0.0
C1153 C 0.48099 0.61734 0.32792 0.0
C1154 C 0.50019 0.6354 0.31142 0.0
C1155 C 0.51836 0.73505 0.1863 0.0
C1156 C 0.50331 0.76072 0.19874 0.0
C1157 C 0.52966 0.70927 0.20057 0.0
C1158 C 0.52682 0.70891 0.22763 0.0
C1159 C 0.5104 0.73369 0.24002 0.0
C1160 C 0.49865 0.75937 0.22568 0.0
C1161 C 0.5425 0.6835 0.24294 0.0
C1162 C 0.52424 0.66542 0.26029 0.0
C1163 C 0.57521 0.67641 0.23977 0.0
C1164 C 0.59632 0.69611 0.2232 0.0
C1165 C 0.59849 0.72918 0.22705 0.0
C1166 C 0.61778 0.74771 0.21098 0.0
C1167 C 0.63529 0.73341 0.19117 0.0
C1168 C 0.63359 0.70053 0.1874 0.0
C1169 C 0.61426 0.6819 0.20336 0.0
H1170 H 0.65024 0.74778 0.17877 0.0
H1171 H 0.46345 0.57057 0.33711 0.0
H1172 H 0.46687 0.10567 0.77202 0.0
H1173 H 0.42193 0.08058 0.7502 0.0
H1174 H 0.37343 0.07055 0.82323 0.0
H1175 H 0.41809 0.09638 0.84537 0.0
H1176 H 0.37285 0.01404 0.78425 0.0
H1177 H 0.349 0.12632 0.79493 0.0
H1178 H 0.36268 0.18323 0.79198 0.0
H1179 H 0.37545 0.17421 0.70983 0.0
H1180 H 0.36243 0.11704 0.71239 0.0
H1181 H 0.21798 0.9859 0.73277 0.0
H1182 H 0.26358 0.00338 0.7584 0.0
H1183 H 0.3042 0.04764 0.69068 0.0
H1184 H 0.25836 0.03121 0.66518 0.0
H1185 H 0.30847 0.08644 0.7293 0.0
H1186 H 0.33294 0.97644 0.7165 0.0
H1187 H 0.3234 0.91858 0.71732 0.0
H1188 H 0.31335 0.92151 0.80001 0.0
H1189 H 0.32236 0.97951 0.79964 0.0
C1190 C 0.44687 0.09785 0.78357 0.0
C1191 C 0.44594 0.10333 0.81043 0.0
C1192 C 0.42125 0.08347 0.77104 0.0
C1193 C 0.39448 0.07387 0.78516 0.0
C1194 C 0.39402 0.07779 0.8121 0.0
C1195 C 0.41945 0.09269 0.82464 0.0
C1196 C 0.36606 0.06221 0.77133 0.0
C1197 C 0.35837 0.02982 0.77252 0.0
C1198 C 0.34794 0.08282 0.75556 0.0
C1199 C 0.35505 0.11734 0.75389 0.0
C1200 C 0.35498 0.13641 0.77627 0.0
C1201 C 0.36258 0.16872 0.77466 0.0
C1202 C 0.37001 0.18232 0.75074 0.0
C1203 C 0.36973 0.16364 0.72836 0.0
C1204 C 0.36223 0.13128 0.72987 0.0
C1205 C 0.23672 0.99916 0.72328 0.0
C1206 C 0.23448 0.0071 0.69688 0.0
C1207 C 0.26285 0.00905 0.73795 0.0
C1208 C 0.28751 0.02658 0.72643 0.0
C1209 C 0.28546 0.03421 0.70003 0.0
C1210 C 0.25922 0.02467 0.68544 0.0
C1211 C 0.31499 0.03795 0.74194 0.0
C1212 C 0.32264 0.07046 0.74108 0.0
C1213 C 0.33331 0.01727 0.7577 0.0
C1214 C 0.32798 0.98238 0.75801 0.0
C1215 C 0.32843 0.96479 0.73484 0.0
C1216 C 0.32316 0.93196 0.73522 0.0
C1217 C 0.31768 0.91639 0.75869 0.0
C1218 C 0.31754 0.93361 0.78184 0.0
C1219 C 0.32275 0.96647 0.78155 0.0
H1220 H 0.31361 0.89097 0.75896 0.0
H1221 H 0.37591 0.20734 0.74953 0.0
H1222 H 0.94473 0.73405 0.18184 0.0
H1223 H 0.93035 0.78243 0.20497 0.0
H1224 H 0.02676 0.79126 0.23283 0.0
H1225 H 0.04083 0.74159 0.21077 0.0
H1226 H 0.98986 0.80623 0.26958 0.0
H1227 H 0.99561 0.83864 0.18189 0.0
H1228 H 0.98529 0.83597 0.13495 0.0
H1229 H 0.88542 0.84908 0.14854 0.0
H1230 H 0.89506 0.85129 0.1956 0.0
H1231 H 0.91728 0.9799 0.27356 0.0
H1232 H 0.94614 0.93788 0.25084 0.0
H1233 H 0.90991 0.86866 0.30501 0.0
H1234 H 0.88206 0.91053 0.32833 0.0
H1235 H 0.92649 0.88971 0.22539 0.0
H1236 H 0.95887 0.80735 0.31278 0.0
H1237 H 0.97502 0.81297 0.35845 0.0
H1238 H 0.01029 0.90691 0.34302 0.0
H1239 H 0.99482 0.90169 0.29718 0.0
C1240 C 0.96289 0.74631 0.19286 0.0
C1241 C 0.99394 0.73416 0.19439 0.0
C1242 C 0.9547 0.77412 0.20596 0.0
C1243 C 0.97764 0.79103 0.22016 0.0
C1244 C 0.00866 0.77875 0.22192 0.0
C1245 C 0.01669 0.75043 0.2093 0.0
C1246 C 0.96889 0.82114 0.23348 0.0
C1247 C 0.97618 0.82457 0.25987 0.0
C1248 C 0.95195 0.84567 0.22067 0.0
C1249 C 0.94606 0.84496 0.19231 0.0
C1250 C 0.97143 0.84081 0.17488 0.0
C1251 C 0.9657 0.83937 0.14825 0.0
C1252 C 0.93472 0.84232 0.13877 0.0
C1253 C 0.90941 0.8468 0.15591 0.0
C1254 C 0.915 0.84819 0.18257 0.0
C1255 C 0.91577 0.9558 0.28084 0.0
C1256 C 0.89746 0.94866 0.30288 0.0
C1257 C 0.93223 0.93177 0.26777 0.0
C1258 C 0.93057 0.90012 0.27637 0.0
C1259 C 0.91226 0.89297 0.29834 0.0
C1260 C 0.89616 0.91699 0.3116 0.0
C1261 C 0.94649 0.87423 0.26168 0.0
C1262 C 0.94055 0.8716 0.23503 0.0
C1263 C 0.96565 0.85105 0.27404 0.0
C1264 C 0.97544 0.85419 0.30155 0.0
C1265 C 0.97023 0.82914 0.31909 0.0
C1266 C 0.97924 0.83227 0.34502 0.0
C1267 C 0.9936 0.86031 0.35364 0.0
C1268 C 0.99908 0.88524 0.33633 0.0
C1269 C 0.99016 0.88222 0.31038 0.0
H1270 H 0.00052 0.8627 0.37373 0.0
H1271 H 0.93032 0.84117 0.11814 0.0
loop_
_geom_bond_atom_site_label_1
_geom_bond_atom_site_label_2
_geom_bond_distance
_geom_bond_site_symmetry_2
_ccdc_geom_bond_type
Co0 O2 2.143 . S
Co0 O8 2.074 1_455 S
Co0 O11 2.093 . S
Co0 O24 2.097 . S
Co0 N41 2.151 . S
Co0 N49 2.214 . S
Co1 O2 2.160 1_655 S
Co1 O7 2.058 . S
Co1 O17 2.057 . S
Co1 O32 2.037 . S
Co1 N36 2.145 . S
Co1 N57 2.245 1_655 S
O2 Co0 2.143 . S
O2 Co1 2.160 1_455 S
C3 O4 1.278 . S
C3 O11 1.224 . S
O4 C3 1.278 . S
C5 O6 1.245 . S
C5 O17 1.232 1_455 S
O6 C5 1.245 . S
O7 Co1 2.058 . S
O7 C33 1.269 . S
O8 Co0 2.074 1_655 S
O8 C33 1.257 . S
H9 C34 0.930 . S
H10 C40 0.930 . S
O11 Co0 2.093 . S
O11 C3 1.224 . S
H12 C44 0.929 . S
H13 C46 0.930 . S
H14 C47 0.930 1_655 S
H15 C45 0.929 . S
H16 C48 0.928 . S
O17 Co1 2.057 . S
O17 C5 1.232 1_655 S
H18 C37 0.929 . S
H19 C38 0.929 . S
H20 C50 0.931 1_655 S
H21 C42 0.929 . S
H22 C51 0.930 . S
H23 C43 0.931 . S
O24 Co0 2.097 . S
O24 C52 1.214 1_455 S
H25 C53 0.929 . S
H26 C54 0.929 . S
H27 C55 0.930 1_655 S
H28 C56 0.929 . S
H29 C58 0.930 . S
H30 C35 0.930 . S
H31 C39 0.930 . S
O32 Co1 2.037 . S
O32 C52 1.234 . S
C33 O7 1.269 . S
C33 O8 1.257 . S
C34 H9 0.930 . S
C34 C37 1.388 . S
C34 C39 1.418 . S
C35 H30 0.930 . S
C35 C38 1.404 . S
C35 C39 1.353 . S
N36 Co1 2.145 . S
N36 C37 1.397 . S
N36 C38 1.334 . S
C37 H18 0.929 . S
C37 C34 1.388 . S
C37 N36 1.397 . S
C38 H19 0.929 . S
C38 C35 1.404 . S
C38 N36 1.334 . S
C39 H31 0.930 . S
C39 C34 1.418 . S
C39 C35 1.353 . S
C40 H10 0.930 . S
C40 N41 1.330 . S
C40 C42 1.446 . S
N41 Co0 2.151 . S
N41 C40 1.330 . S
N41 C45 1.418 . S
C42 H21 0.929 . S
C42 C40 1.446 . S
C42 C43 1.332 . S
C43 H23 0.931 . S
C43 C42 1.332 . S
C43 C44 1.267 . S
C44 H12 0.929 . S
C44 C43 1.267 . S
C44 C45 1.251 . S
C45 H15 0.929 . S
C45 N41 1.418 . S
C45 C44 1.251 . S
C46 H13 0.930 . S
C46 C48 1.406 . S
C46 C51 1.261 . S
C47 H14 0.930 1_455 S
C47 N49 1.325 . S
C47 C50 1.357 . S
C48 H16 0.928 . S
C48 C46 1.406 . S
C48 N49 1.261 . S
N49 Co0 2.214 . S
N49 C47 1.325 . S
N49 C48 1.261 . S
C50 H20 0.931 1_455 S
C50 C47 1.357 . S
C50 C51 1.312 . S
C51 H22 0.930 . S
C51 C46 1.261 . S
C51 C50 1.312 . S
C52 O24 1.214 1_655 S
C52 O32 1.234 . S
C53 H25 0.929 . S
C53 C56 1.391 . S
C53 C58 1.391 . S
C54 H26 0.929 . S
C54 C55 1.390 1_655 S
C54 N57 1.378 1_655 S
C55 H27 0.930 1_455 S
C55 C54 1.390 1_455 S
C55 C56 1.392 . S
C56 H28 0.929 . S
C56 C53 1.391 . S
C56 C55 1.392 . S
N57 Co1 2.245 1_455 S
N57 C54 1.378 1_455 S
N57 C58 1.415 . S
C58 H29 0.930 . S
C58 C53 1.391 . S
C58 N57 1.415 . S
Co59 O61 2.143 . S
Co59 O67 2.074 . S
Co59 O70 2.093 . S
Co59 O83 2.097 . S
Co59 N100 2.151 . S
Co59 N108 2.214 . S
Co60 O61 2.160 . S
Co60 O66 2.058 . S
Co60 O76 2.057 . S
Co60 O91 2.037 . S
Co60 N95 2.145 . S
Co60 N116 2.257 . S
O61 Co59 2.143 . S
O61 Co60 2.160 . S
C62 O63 1.278 . S
C62 O70 1.224 . S
O63 C62 1.278 . S
C64 O65 1.245 . S
C64 O76 1.232 . S
O65 C64 1.245 . S
O66 Co60 2.058 . S
O66 C92 1.269 . S
O67 Co59 2.074 . S
O67 C92 1.257 . S
H68 C93 0.930 . S
H69 C99 0.930 . S
O70 Co59 2.093 . S
O70 C62 1.224 . S
H71 C103 0.929 . S
H72 C105 0.930 . S
H73 C106 0.930 . S
H74 C104 0.929 . S
H75 C107 0.928 . S
O76 Co60 2.057 . S
O76 C64 1.232 . S
H77 C96 0.929 . S
H78 C97 0.929 . S
H79 C109 0.931 . S
H80 C101 0.929 . S
H81 C110 0.930 . S
H82 C102 0.931 . S
O83 Co59 2.097 . S
O83 C111 1.214 . S
H84 C112 0.929 . S
H85 C113 0.929 . S
H86 C114 0.930 . S
H87 C115 0.929 . S
H88 C117 0.930 . S
H89 C94 0.930 . S
H90 C98 0.930 . S
O91 Co60 2.037 . S
O91 C111 1.234 . S
C92 O66 1.269 . S
C92 O67 1.257 . S
C93 H68 0.930 . S
C93 C96 1.388 . S
C93 C98 1.418 . S
C94 H89 0.930 . S
C94 C97 1.404 . S
C94 C98 1.353 . S
N95 Co60 2.145 . S
N95 C96 1.397 . S
N95 C97 1.334 . S
C96 H77 0.929 . S
C96 C93 1.388 . S
C96 N95 1.397 . S
C97 H78 0.929 . S
C97 C94 1.404 . S
C97 N95 1.334 . S
C98 H90 0.930 . S
C98 C93 1.418 . S
C98 C94 1.353 . S
C99 H69 0.930 . S
C99 N100 1.330 . S
C99 C101 1.446 . S
N100 Co59 2.151 . S
N100 C99 1.330 . S
N100 C104 1.418 . S
C101 H80 0.929 . S
C101 C99 1.446 . S
C101 C102 1.332 . S
C102 H82 0.931 . S
C102 C101 1.332 . S
C102 C103 1.267 . S
C103 H71 0.929 . S
C103 C102 1.267 . S
C103 C104 1.251 . S
C104 H74 0.929 . S
C104 N100 1.418 . S
C104 C103 1.251 . S
C105 H72 0.930 . S
C105 C107 1.406 . S
C105 C110 1.261 . S
C106 H73 0.930 . S
C106 N108 1.325 . S
C106 C109 1.357 . S
C107 H75 0.928 . S
C107 C105 1.406 . S
C107 N108 1.261 . S
N108 Co59 2.214 . S
N108 C106 1.325 . S
N108 C107 1.261 . S
C109 H79 0.931 . S
C109 C106 1.357 . S
C109 C110 1.312 . S
C110 H81 0.930 . S
C110 C105 1.261 . S
C110 C109 1.312 . S
C111 O83 1.214 . S
C111 O91 1.234 . S
C112 H84 0.929 . S
C112 C115 1.391 . S
C112 C117 1.391 . S
C113 H85 0.929 . S
C113 C114 1.390 . S
C113 N116 1.391 . S
C114 H86 0.930 . S
C114 C113 1.390 . S
C114 C115 1.392 . S
C115 H87 0.929 . S
C115 C112 1.391 . S
C115 C114 1.392 . S
N116 Co60 2.257 . S
N116 C113 1.391 . S
N116 C117 1.388 . S
C117 H88 0.930 . S
C117 C112 1.391 . S
C117 N116 1.388 . S
Co118 O120 2.143 . S
Co118 O126 2.074 . S
Co118 O129 2.093 . S
Co118 O142 2.097 . S
Co118 N159 2.151 . S
Co118 N167 2.214 . S
Co119 O120 2.160 . S
Co119 O125 2.058 . S
Co119 O135 2.057 . S
Co119 O150 2.037 . S
Co119 N154 2.145 . S
Co119 N175 2.257 . S
O120 Co118 2.143 . S
O120 Co119 2.160 . S
C121 O122 1.278 . S
C121 O129 1.224 . S
O122 C121 1.278 . S
C123 O124 1.245 . S
C123 O135 1.232 . S
O124 C123 1.245 . S
O125 Co119 2.058 . S
O125 C151 1.269 . S
O126 Co118 2.074 . S
O126 C151 1.257 . S
H127 C152 0.930 . S
H128 C158 0.930 . S
O129 Co118 2.093 . S
O129 C121 1.224 . S
H130 C162 0.929 . S
H131 C164 0.930 . S
H132 C165 0.930 . S
H133 C163 0.929 . S
H134 C166 0.928 . S
O135 Co119 2.057 . S
O135 C123 1.232 . S
H136 C155 0.929 . S
H137 C156 0.929 . S
H138 C168 0.931 . S
H139 C160 0.929 . S
H140 C169 0.930 . S
H141 C161 0.931 . S
O142 Co118 2.097 . S
O142 C170 1.214 . S
H143 C171 0.929 . S
H144 C172 0.929 . S
H145 C173 0.930 . S
H146 C174 0.929 . S
H147 C176 0.930 . S
H148 C153 0.930 . S
H149 C157 0.930 . S
O150 Co119 2.037 . S
O150 C170 1.234 . S
C151 O125 1.269 . S
C151 O126 1.257 . S
C152 H127 0.930 . S
C152 C155 1.388 . S
C152 C157 1.418 . S
C153 H148 0.930 . S
C153 C156 1.404 . S
C153 C157 1.353 . S
N154 Co119 2.145 . S
N154 C155 1.397 . S
N154 C156 1.334 . S
C155 H136 0.929 . S
C155 C152 1.388 . S
C155 N154 1.397 . S
C156 H137 0.929 . S
C156 C153 1.404 . S
C156 N154 1.334 . S
C157 H149 0.930 . S
C157 C152 1.418 . S
C157 C153 1.353 . S
C158 H128 0.930 . S
C158 N159 1.330 . S
C158 C160 1.446 . S
N159 Co118 2.151 . S
N159 C158 1.330 . S
N159 C163 1.418 . S
C160 H139 0.929 . S
C160 C158 1.446 . S
C160 C161 1.332 . S
C161 H141 0.931 . S
C161 C160 1.332 . S
C161 C162 1.267 . S
C162 H130 0.929 . S
C162 C161 1.267 . S
C162 C163 1.251 . S
C163 H133 0.929 . S
C163 N159 1.418 . S
C163 C162 1.251 . S
C164 H131 0.930 . S
C164 C166 1.406 . S
C164 C169 1.261 . S
C165 H132 0.930 . S
C165 N167 1.325 . S
C165 C168 1.357 . S
C166 H134 0.928 . S
C166 C164 1.406 . S
C166 N167 1.261 . S
N167 Co118 2.214 . S
N167 C165 1.325 . S
N167 C166 1.261 . S
C168 H138 0.931 . S
C168 C165 1.357 . S
C168 C169 1.312 . S
C169 H140 0.930 . S
C169 C164 1.261 . S
C169 C168 1.312 . S
C170 O142 1.214 . S
C170 O150 1.234 . S
C171 H143 0.929 . S
C171 C174 1.391 . S
C171 C176 1.391 . S
C172 H144 0.929 . S
C172 C173 1.390 . S
C172 N175 1.391 . S
C173 H145 0.930 . S
C173 C172 1.390 . S
C173 C174 1.392 . S
C174 H146 0.929 . S
C174 C171 1.391 . S
C174 C173 1.392 . S
N175 Co119 2.257 . S
N175 C172 1.391 . S
N175 C176 1.388 . S
C176 H147 0.930 . S
C176 C171 1.391 . S
C176 N175 1.388 . S
Co177 O179 2.143 . S
Co177 O185 2.074 1_565 S
Co177 O188 2.093 . S
Co177 O201 2.097 . S
Co177 N218 2.151 . S
Co177 N226 2.214 . S
Co178 O179 2.160 1_545 S
Co178 O184 2.058 . S
Co178 O194 2.057 . S
Co178 O209 2.037 . S
Co178 N213 2.145 . S
Co178 N234 2.245 1_545 S
O179 Co177 2.143 . S
O179 Co178 2.160 1_565 S
C180 O181 1.278 . S
C180 O188 1.224 . S
O181 C180 1.278 . S
C182 O183 1.245 . S
C182 O194 1.232 1_565 S
O183 C182 1.245 . S
O184 Co178 2.058 . S
O184 C210 1.269 . S
O185 Co177 2.074 1_545 S
O185 C210 1.257 . S
H186 C211 0.930 . S
H187 C217 0.930 . S
O188 Co177 2.093 . S
O188 C180 1.224 . S
H189 C221 0.929 . S
H190 C223 0.930 . S
H191 C224 0.930 1_545 S
H192 C222 0.929 . S
H193 C225 0.928 . S
O194 Co178 2.057 . S
O194 C182 1.232 1_545 S
H195 C214 0.929 . S
H196 C215 0.929 . S
H197 C227 0.931 1_545 S
H198 C219 0.929 . S
H199 C228 0.930 . S
H200 C220 0.931 . S
O201 Co177 2.097 . S
O201 C229 1.214 1_565 S
H202 C230 0.929 . S
H203 C231 0.929 . S
H204 C232 0.930 1_545 S
H205 C233 0.929 . S
H206 C235 0.930 . S
H207 C212 0.930 . S
H208 C216 0.930 . S
O209 Co178 2.037 . S
O209 C229 1.234 . S
C210 O184 1.269 . S
C210 O185 1.257 . S
C211 H186 0.930 . S
C211 C214 1.388 . S
C211 C216 1.418 . S
C212 H207 0.930 . S
C212 C215 1.404 . S
C212 C216 1.353 . S
N213 Co178 2.145 . S
N213 C214 1.397 . S
N213 C215 1.334 . S
C214 H195 0.929 . S
C214 C211 1.388 . S
C214 N213 1.397 . S
C215 H196 0.929 . S
C215 C212 1.404 . S
C215 N213 1.334 . S
C216 H208 0.930 . S
C216 C211 1.418 . S
C216 C212 1.353 . S
C217 H187 0.930 . S
C217 N218 1.330 . S
C217 C219 1.446 . S
N218 Co177 2.151 . S
N218 C217 1.330 . S
N218 C222 1.418 . S
C219 H198 0.929 . S
C219 C217 1.446 . S
C219 C220 1.332 . S
C220 H200 0.931 . S
C220 C219 1.332 . S
C220 C221 1.267 . S
C221 H189 0.929 . S
C221 C220 1.267 . S
C221 C222 1.251 . S
C222 H192 0.929 . S
C222 N218 1.418 . S
C222 C221 1.251 . S
C223 H190 0.930 . S
C223 C225 1.406 . S
C223 C228 1.261 . S
C224 H191 0.930 1_565 S
C224 N226 1.325 . S
C224 C227 1.357 . S
C225 H193 0.928 . S
C225 C223 1.406 . S
C225 N226 1.261 . S
N226 Co177 2.214 . S
N226 C224 1.325 . S
N226 C225 1.261 . S
C227 H197 0.931 1_565 S
C227 C224 1.357 . S
C227 C228 1.312 . S
C228 H199 0.930 . S
C228 C223 1.261 . S
C228 C227 1.312 . S
C229 O201 1.214 1_545 S
C229 O209 1.234 . S
C230 H202 0.929 . S
C230 C233 1.391 . S
C230 C235 1.391 . S
C231 H203 0.929 . S
C231 C232 1.390 1_545 S
C231 N234 1.378 1_545 S
C232 H204 0.930 1_565 S
C232 C231 1.390 1_565 S
C232 C233 1.392 . S
C233 H205 0.929 . S
C233 C230 1.391 . S
C233 C232 1.392 . S
N234 Co178 2.245 1_565 S
N234 C231 1.378 1_565 S
N234 C235 1.415 . S
C235 H206 0.930 . S
C235 C230 1.391 . S
C235 N234 1.415 . S
Co236 O238 2.143 . S
Co236 O244 2.074 1_655 S
Co236 O247 2.093 . S
Co236 O260 2.097 . S
Co236 N277 2.151 . S
Co236 N285 2.214 . S
Co237 O238 2.160 1_455 S
Co237 O243 2.058 . S
Co237 O253 2.057 . S
Co237 O268 2.037 . S
Co237 N272 2.145 . S
Co237 N293 2.245 1_455 S
O238 Co236 2.143 . S
O238 Co237 2.160 1_655 S
C239 O240 1.278 . S
C239 O247 1.224 . S
O240 C239 1.278 . S
C241 O242 1.245 . S
C241 O253 1.232 1_655 S
O242 C241 1.245 . S
O243 Co237 2.058 . S
O243 C269 1.269 . S
O244 Co236 2.074 1_455 S
O244 C269 1.257 . S
H245 C270 0.930 . S
H246 C276 0.930 . S
O247 Co236 2.093 . S
O247 C239 1.224 . S
H248 C280 0.929 . S
H249 C282 0.930 . S
H250 C283 0.930 1_455 S
H251 C281 0.929 . S
H252 C284 0.928 . S
O253 Co237 2.057 . S
O253 C241 1.232 1_455 S
H254 C273 0.929 . S
H255 C274 0.929 . S
H256 C286 0.931 1_455 S
H257 C278 0.929 . S
H258 C287 0.930 . S
H259 C279 0.931 . S
O260 Co236 2.097 . S
O260 C288 1.214 1_655 S
H261 C289 0.929 . S
H262 C290 0.929 . S
H263 C291 0.930 1_455 S
H264 C292 0.929 . S
H265 C294 0.930 . S
H266 C271 0.930 . S
H267 C275 0.930 . S
O268 Co237 2.037 . S
O268 C288 1.234 . S
C269 O243 1.269 . S
C269 O244 1.257 . S
C270 H245 0.930 . S
C270 C273 1.388 . S
C270 C275 1.418 . S
C271 H266 0.930 . S
C271 C274 1.404 . S
C271 C275 1.353 . S
N272 Co237 2.145 . S
N272 C273 1.397 . S
N272 C274 1.334 . S
C273 H254 0.929 . S
C273 C270 1.388 . S
C273 N272 1.397 . S
C274 H255 0.929 . S
C274 C271 1.404 . S
C274 N272 1.334 . S
C275 H267 0.930 . S
C275 C270 1.418 . S
C275 C271 1.353 . S
C276 H246 0.930 . S
C276 N277 1.330 . S
C276 C278 1.446 . S
N277 Co236 2.151 . S
N277 C276 1.330 . S
N277 C281 1.418 . S
C278 H257 0.929 . S
C278 C276 1.446 . S
C278 C279 1.332 . S
C279 H259 0.931 . S
C279 C278 1.332 . S
C279 C280 1.267 . S
C280 H248 0.929 . S
C280 C279 1.267 . S
C280 C281 1.251 . S
C281 H251 0.929 . S
C281 N277 1.418 . S
C281 C280 1.251 . S
C282 H249 0.930 . S
C282 C284 1.406 . S
C282 C287 1.261 . S
C283 H250 0.930 1_655 S
C283 N285 1.325 . S
C283 C286 1.357 . S
C284 H252 0.928 . S
C284 C282 1.406 . S
C284 N285 1.261 . S
N285 Co236 2.214 . S
N285 C283 1.325 . S
N285 C284 1.261 . S
C286 H256 0.931 1_655 S
C286 C283 1.357 . S
C286 C287 1.312 . S
C287 H258 0.930 . S
C287 C282 1.261 . S
C287 C286 1.312 . S
C288 O260 1.214 1_455 S
C288 O268 1.234 . S
C289 H261 0.929 . S
C289 C292 1.391 . S
C289 C294 1.391 . S
C290 H262 0.929 . S
C290 C291 1.390 1_455 S
C290 N293 1.378 1_455 S
C291 H263 0.930 1_655 S
C291 C290 1.390 1_655 S
C291 C292 1.392 . S
C292 H264 0.929 . S
C292 C289 1.391 . S
C292 C291 1.392 . S
N293 Co237 2.245 1_655 S
N293 C290 1.378 1_655 S
N293 C294 1.415 . S
C294 H265 0.930 . S
C294 C289 1.391 . S
C294 N293 1.415 . S
Co295 O297 2.143 . S
Co295 O303 2.074 . S
Co295 O306 2.093 . S
Co295 O319 2.097 . S
Co295 N336 2.151 . S
Co295 N344 2.214 . S
Co296 O297 2.160 . S
Co296 O302 2.058 . S
Co296 O312 2.057 . S
Co296 O327 2.037 . S
Co296 N331 2.145 . S
Co296 N352 2.257 . S
O297 Co295 2.143 . S
O297 Co296 2.160 . S
C298 O299 1.278 . S
C298 O306 1.224 . S
O299 C298 1.278 . S
C300 O301 1.245 . S
C300 O312 1.232 . S
O301 C300 1.245 . S
O302 Co296 2.058 . S
O302 C328 1.269 . S
O303 Co295 2.074 . S
O303 C328 1.257 . S
H304 C329 0.930 . S
H305 C335 0.930 . S
O306 Co295 2.093 . S
O306 C298 1.224 . S
H307 C339 0.929 . S
H308 C341 0.930 . S
H309 C342 0.930 . S
H310 C340 0.929 . S
H311 C343 0.928 . S
O312 Co296 2.057 . S
O312 C300 1.232 . S
H313 C332 0.929 . S
H314 C333 0.929 . S
H315 C345 0.931 . S
H316 C337 0.929 . S
H317 C346 0.930 . S
H318 C338 0.931 . S
O319 Co295 2.097 . S
O319 C347 1.214 . S
H320 C348 0.929 . S
H321 C349 0.929 . S
H322 C350 0.930 . S
H323 C351 0.929 . S
H324 C353 0.930 . S
H325 C330 0.930 . S
H326 C334 0.930 . S
O327 Co296 2.037 . S
O327 C347 1.234 . S
C328 O302 1.269 . S
C328 O303 1.257 . S
C329 H304 0.930 . S
C329 C332 1.388 . S
C329 C334 1.418 . S
C330 H325 0.930 . S
C330 C333 1.404 . S
C330 C334 1.353 . S
N331 Co296 2.145 . S
N331 C332 1.397 . S
N331 C333 1.334 . S
C332 H313 0.929 . S
C332 C329 1.388 . S
C332 N331 1.397 . S
C333 H314 0.929 . S
C333 C330 1.404 . S
C333 N331 1.334 . S
C334 H326 0.930 . S
C334 C329 1.418 . S
C334 C330 1.353 . S
C335 H305 0.930 . S
C335 N336 1.330 . S
C335 C337 1.446 . S
N336 Co295 2.151 . S
N336 C335 1.330 . S
N336 C340 1.418 . S
C337 H316 0.929 . S
C337 C335 1.446 . S
C337 C338 1.332 . S
C338 H318 0.931 . S
C338 C337 1.332 . S
C338 C339 1.267 . S
C339 H307 0.929 . S
C339 C338 1.267 . S
C339 C340 1.251 . S
C340 H310 0.929 . S
C340 N336 1.418 . S
C340 C339 1.251 . S
C341 H308 0.930 . S
C341 C343 1.406 . S
C341 C346 1.261 . S
C342 H309 0.930 . S
C342 N344 1.325 . S
C342 C345 1.357 . S
C343 H311 0.928 . S
C343 C341 1.406 . S
C343 N344 1.261 . S
N344 Co295 2.214 . S
N344 C342 1.325 . S
N344 C343 1.261 . S
C345 H315 0.931 . S
C345 C342 1.357 . S
C345 C346 1.312 . S
C346 H317 0.930 . S
C346 C341 1.261 . S
C346 C345 1.312 . S
C347 O319 1.214 . S
C347 O327 1.234 . S
C348 H320 0.929 . S
C348 C351 1.391 . S
C348 C353 1.391 . S
C349 H321 0.929 . S
C349 C350 1.390 . S
C349 N352 1.391 . S
C350 H322 0.930 . S
C350 C349 1.390 . S
C350 C351 1.392 . S
C351 H323 0.929 . S
C351 C348 1.391 . S
C351 C350 1.392 . S
N352 Co296 2.257 . S
N352 C349 1.391 . S
N352 C353 1.388 . S
C353 H324 0.930 . S
C353 C348 1.391 . S
C353 N352 1.388 . S
Co354 O356 2.143 . S
Co354 O362 2.074 . S
Co354 O365 2.093 . S
Co354 O378 2.097 . S
Co354 N395 2.151 . S
Co354 N403 2.214 . S
Co355 O356 2.160 . S
Co355 O361 2.058 . S
Co355 O371 2.057 . S
Co355 O386 2.037 . S
Co355 N390 2.145 . S
Co355 N411 2.257 . S
O356 Co354 2.143 . S
O356 Co355 2.160 . S
C357 O358 1.278 . S
C357 O365 1.224 . S
O358 C357 1.278 . S
C359 O360 1.245 . S
C359 O371 1.232 . S
O360 C359 1.245 . S
O361 Co355 2.058 . S
O361 C387 1.269 . S
O362 Co354 2.074 . S
O362 C387 1.257 . S
H363 C388 0.930 . S
H364 C394 0.930 . S
O365 Co354 2.093 . S
O365 C357 1.224 . S
H366 C398 0.929 . S
H367 C400 0.930 . S
H368 C401 0.930 . S
H369 C399 0.929 . S
H370 C402 0.928 . S
O371 Co355 2.057 . S
O371 C359 1.232 . S
H372 C391 0.929 . S
H373 C392 0.929 . S
H374 C404 0.931 . S
H375 C396 0.929 . S
H376 C405 0.930 . S
H377 C397 0.931 . S
O378 Co354 2.097 . S
O378 C406 1.214 . S
H379 C407 0.929 . S
H380 C408 0.929 . S
H381 C409 0.930 . S
H382 C410 0.929 . S
H383 C412 0.930 . S
H384 C389 0.930 . S
H385 C393 0.930 . S
O386 Co355 2.037 . S
O386 C406 1.234 . S
C387 O361 1.269 . S
C387 O362 1.257 . S
C388 H363 0.930 . S
C388 C391 1.388 . S
C388 C393 1.418 . S
C389 H384 0.930 . S
C389 C392 1.404 . S
C389 C393 1.353 . S
N390 Co355 2.145 . S
N390 C391 1.397 . S
N390 C392 1.334 . S
C391 H372 0.929 . S
C391 C388 1.388 . S
C391 N390 1.397 . S
C392 H373 0.929 . S
C392 C389 1.404 . S
C392 N390 1.334 . S
C393 H385 0.930 . S
C393 C388 1.418 . S
C393 C389 1.353 . S
C394 H364 0.930 . S
C394 N395 1.330 . S
C394 C396 1.446 . S
N395 Co354 2.151 . S
N395 C394 1.330 . S
N395 C399 1.418 . S
C396 H375 0.929 . S
C396 C394 1.446 . S
C396 C397 1.332 . S
C397 H377 0.931 . S
C397 C396 1.332 . S
C397 C398 1.267 . S
C398 H366 0.929 . S
C398 C397 1.267 . S
C398 C399 1.251 . S
C399 H369 0.929 . S
C399 N395 1.418 . S
C399 C398 1.251 . S
C400 H367 0.930 . S
C400 C402 1.406 . S
C400 C405 1.261 . S
C401 H368 0.930 . S
C401 N403 1.325 . S
C401 C404 1.357 . S
C402 H370 0.928 . S
C402 C400 1.406 . S
C402 N403 1.261 . S
N403 Co354 2.214 . S
N403 C401 1.325 . S
N403 C402 1.261 . S
C404 H374 0.931 . S
C404 C401 1.357 . S
C404 C405 1.312 . S
C405 H376 0.930 . S
C405 C400 1.261 . S
C405 C404 1.312 . S
C406 O378 1.214 . S
C406 O386 1.234 . S
C407 H379 0.929 . S
C407 C410 1.391 . S
C407 C412 1.391 . S
C408 H380 0.929 . S
C408 C409 1.390 . S
C408 N411 1.391 . S
C409 H381 0.930 . S
C409 C408 1.390 . S
C409 C410 1.392 . S
C410 H382 0.929 . S
C410 C407 1.391 . S
C410 C409 1.392 . S
N411 Co355 2.257 . S
N411 C408 1.391 . S
N411 C412 1.388 . S
C412 H383 0.930 . S
C412 C407 1.391 . S
C412 N411 1.388 . S
Co413 O415 2.143 . S
Co413 O421 2.074 1_545 S
Co413 O424 2.093 . S
Co413 O437 2.097 . S
Co413 N454 2.151 . S
Co413 N462 2.214 . S
Co414 O415 2.160 1_565 S
Co414 O420 2.058 . S
Co414 O430 2.057 . S
Co414 O445 2.037 . S
Co414 N449 2.145 . S
Co414 N470 2.245 1_565 S
O415 Co413 2.143 . S
O415 Co414 2.160 1_545 S
C416 O417 1.278 . S
C416 O424 1.224 . S
O417 C416 1.278 . S
C418 O419 1.245 . S
C418 O430 1.232 1_545 S
O419 C418 1.245 . S
O420 Co414 2.058 . S
O420 C446 1.269 . S
O421 Co413 2.074 1_565 S
O421 C446 1.257 . S
H422 C447 0.930 . S
H423 C453 0.930 . S
O424 Co413 2.093 . S
O424 C416 1.224 . S
H425 C457 0.929 . S
H426 C459 0.930 . S
H427 C460 0.930 1_565 S
H428 C458 0.929 . S
H429 C461 0.928 . S
O430 Co414 2.057 . S
O430 C418 1.232 1_565 S
H431 C450 0.929 . S
H432 C451 0.929 . S
H433 C463 0.931 1_565 S
H434 C455 0.929 . S
H435 C464 0.930 . S
H436 C456 0.931 . S
O437 Co413 2.097 . S
O437 C465 1.214 1_545 S
H438 C466 0.929 . S
H439 C467 0.929 . S
H440 C468 0.930 1_565 S
H441 C469 0.929 . S
H442 C471 0.930 . S
H443 C448 0.930 . S
H444 C452 0.930 . S
O445 Co414 2.037 . S
O445 C465 1.234 . S
C446 O420 1.269 . S
C446 O421 1.257 . S
C447 H422 0.930 . S
C447 C450 1.388 . S
C447 C452 1.418 . S
C448 H443 0.930 . S
C448 C451 1.404 . S
C448 C452 1.353 . S
N449 Co414 2.145 . S
N449 C450 1.397 . S
N449 C451 1.334 . S
C450 H431 0.929 . S
C450 C447 1.388 . S
C450 N449 1.397 . S
C451 H432 0.929 . S
C451 C448 1.404 . S
C451 N449 1.334 . S
C452 H444 0.930 . S
C452 C447 1.418 . S
C452 C448 1.353 . S
C453 H423 0.930 . S
C453 N454 1.330 . S
C453 C455 1.446 . S
N454 Co413 2.151 . S
N454 C453 1.330 . S
N454 C458 1.418 . S
C455 H434 0.929 . S
C455 C453 1.446 . S
C455 C456 1.332 . S
C456 H436 0.931 . S
C456 C455 1.332 . S
C456 C457 1.267 . S
C457 H425 0.929 . S
C457 C456 1.267 . S
C457 C458 1.251 . S
C458 H428 0.929 . S
C458 N454 1.418 . S
C458 C457 1.251 . S
C459 H426 0.930 . S
C459 C461 1.406 . S
C459 C464 1.261 . S
C460 H427 0.930 1_545 S
C460 N462 1.325 . S
C460 C463 1.357 . S
C461 H429 0.928 . S
C461 C459 1.406 . S
C461 N462 1.261 . S
N462 Co413 2.214 . S
N462 C460 1.325 . S
N462 C461 1.261 . S
C463 H433 0.931 1_545 S
C463 C460 1.357 . S
C463 C464 1.312 . S
C464 H435 0.930 . S
C464 C459 1.261 . S
C464 C463 1.312 . S
C465 O437 1.214 1_565 S
C465 O445 1.234 . S
C466 H438 0.929 . S
C466 C469 1.391 . S
C466 C471 1.391 . S
C467 H439 0.929 . S
C467 C468 1.390 1_565 S
C467 N470 1.378 1_565 S
C468 H440 0.930 1_545 S
C468 C467 1.390 1_545 S
C468 C469 1.392 . S
C469 H441 0.929 . S
C469 C466 1.391 . S
C469 C468 1.392 . S
N470 Co414 2.245 1_545 S
N470 C467 1.378 1_545 S
N470 C471 1.415 . S
C471 H442 0.930 . S
C471 C466 1.391 . S
C471 N470 1.415 . S
H472 C490 0.951 . S
H473 C492 0.951 . S
H474 C494 0.950 . S
H475 C495 0.950 . S
H476 C497 0.950 . S
H477 C500 0.950 . S
H478 C501 0.950 . S
H479 C503 0.950 . S
H480 C504 0.950 . S
H481 C505 0.951 . S
H482 C507 0.951 . S
H483 C509 0.950 . S
H484 C510 0.950 . S
H485 C512 0.950 . S
H486 C515 0.950 . S
H487 C516 0.950 . S
H488 C518 0.950 . S
H489 C519 0.950 . S
C490 H472 0.951 . S
C490 C491 1.366 1_455 S
C490 C492 1.388 . S
C491 C490 1.366 1_655 S
C491 C495 1.385 . S
C492 H473 0.951 . S
C492 C490 1.388 . S
C492 C493 1.366 1_455 S
C493 C492 1.366 1_655 S
C493 C494 1.414 . S
C493 C496 1.499 . S
C494 H474 0.950 . S
C494 C493 1.414 . S
C494 C495 1.374 . S
C495 H475 0.950 . S
C495 C491 1.385 . S
C495 C494 1.374 . S
C496 C493 1.499 . S
C496 C497 1.373 . S
C496 C498 1.389 1_656 S
C497 H476 0.950 . S
C497 C496 1.373 . S
C497 C513 1.377 . S
C498 C496 1.389 1_454 S
C498 C499 1.524 . S
C498 C512 1.377 . S
C499 C498 1.524 . S
C499 C500 1.397 1_455 S
C499 C504 1.363 . S
C500 H477 0.950 . S
C500 C499 1.397 1_655 S
C500 C501 1.334 . S
C501 H478 0.950 . S
C501 C500 1.334 . S
C501 C502 1.287 1_655 S
C502 C501 1.287 1_455 S
C502 C503 1.524 . S
C502 H521 0.913 . S
C503 H479 0.950 . S
C503 C502 1.524 . S
C503 C504 1.415 . S
C504 H480 0.950 . S
C504 C499 1.363 . S
C504 C503 1.415 . S
C505 H481 0.951 . S
C505 C506 1.366 1_655 S
C505 C507 1.388 . S
C506 C505 1.366 1_455 S
C506 C510 1.385 . S
C507 H482 0.951 . S
C507 C505 1.388 . S
C507 C508 1.366 1_655 S
C508 C507 1.366 1_455 S
C508 C509 1.414 . S
C508 C511 1.499 . S
C509 H483 0.950 . S
C509 C508 1.414 . S
C509 C510 1.374 . S
C510 H484 0.950 . S
C510 C506 1.385 . S
C510 C509 1.374 . S
C511 C508 1.499 . S
C511 C512 1.373 . S
C511 C513 1.389 1_454 S
C512 H485 0.950 . S
C512 C498 1.377 . S
C512 C511 1.373 . S
C513 C497 1.377 . S
C513 C511 1.389 1_656 S
C513 C514 1.524 . S
C514 C513 1.524 . S
C514 C515 1.397 1_655 S
C514 C519 1.363 . S
C515 H486 0.950 . S
C515 C514 1.397 1_455 S
C515 C516 1.334 . S
C516 H487 0.950 . S
C516 C515 1.334 . S
C516 C517 1.287 1_455 S
C517 C516 1.287 1_655 S
C517 C518 1.524 . S
C517 H520 0.999 . S
C518 H488 0.950 . S
C518 C517 1.524 . S
C518 C519 1.415 . S
C519 H489 0.950 . S
C519 C514 1.363 . S
C519 C518 1.415 . S
H520 C517 0.999 . S
H521 C502 0.913 . S
H522 C540 0.951 . S
H523 C542 0.951 . S
H524 C544 0.950 . S
H525 C545 0.950 . S
H526 C547 0.950 . S
H527 C550 0.950 . S
H528 C551 0.950 . S
H529 C553 0.950 . S
H530 C554 0.950 . S
H531 C555 0.951 . S
H532 C557 0.951 . S
H533 C559 0.950 . S
H534 C560 0.950 . S
H535 C562 0.950 . S
H536 C565 0.950 . S
H537 C566 0.950 . S
H538 C568 0.950 . S
H539 C569 0.950 . S
C540 H522 0.951 . S
C540 C541 1.366 . S
C540 C542 1.388 . S
C541 C540 1.366 . S
C541 C545 1.385 . S
C542 H523 0.951 . S
C542 C540 1.388 . S
C542 C543 1.366 . S
C543 C542 1.366 . S
C543 C544 1.414 . S
C543 C546 1.499 . S
C544 H524 0.950 . S
C544 C543 1.414 . S
C544 C545 1.374 . S
C545 H525 0.950 . S
C545 C541 1.385 . S
C545 C544 1.374 . S
C546 C543 1.499 . S
C546 C547 1.373 . S
C546 C548 1.389 . S
C547 H526 0.950 . S
C547 C546 1.373 . S
C547 C563 1.377 . S
C548 C546 1.389 . S
C548 C549 1.524 . S
C548 C562 1.377 . S
C549 C548 1.524 . S
C549 C550 1.397 . S
C549 C554 1.363 . S
C550 H527 0.950 . S
C550 C549 1.397 . S
C550 C551 1.334 . S
C551 H528 0.950 . S
C551 C550 1.334 . S
C551 C552 1.287 . S
C552 C551 1.287 . S
C552 C553 1.524 . S
C552 H571 0.913 . S
C553 H529 0.950 . S
C553 C552 1.524 . S
C553 C554 1.415 . S
C554 H530 0.950 . S
C554 C549 1.363 . S
C554 C553 1.415 . S
C555 H531 0.951 . S
C555 C556 1.366 . S
C555 C557 1.388 . S
C556 C555 1.366 . S
C556 C560 1.385 . S
C557 H532 0.951 . S
C557 C555 1.388 . S
C557 C558 1.366 . S
C558 C557 1.366 . S
C558 C559 1.414 . S
C558 C561 1.499 . S
C559 H533 0.950 . S
C559 C558 1.414 . S
C559 C560 1.374 . S
C560 H534 0.950 . S
C560 C556 1.385 . S
C560 C559 1.374 . S
C561 C558 1.499 . S
C561 C562 1.373 . S
C561 C563 1.389 . S
C562 H535 0.950 . S
C562 C548 1.377 . S
C562 C561 1.373 . S
C563 C547 1.377 . S
C563 C561 1.389 . S
C563 C564 1.524 . S
C564 C563 1.524 . S
C564 C565 1.397 . S
C564 C569 1.363 . S
C565 H536 0.950 . S
C565 C564 1.397 . S
C565 C566 1.334 . S
C566 H537 0.950 . S
C566 C565 1.334 . S
C566 C567 1.287 . S
C567 C566 1.287 . S
C567 C568 1.524 . S
C567 H570 0.999 . S
C568 H538 0.950 . S
C568 C567 1.524 . S
C568 C569 1.415 . S
C569 H539 0.950 . S
C569 C564 1.363 . S
C569 C568 1.415 . S
H570 C567 0.999 . S
H571 C552 0.913 . S
H572 C590 0.951 . S
H573 C592 0.951 . S
H574 C594 0.950 . S
H575 C595 0.950 . S
H576 C597 0.950 . S
H577 C600 0.950 . S
H578 C601 0.950 . S
H579 C603 0.950 . S
H580 C604 0.950 . S
H581 C605 0.951 . S
H582 C607 0.951 . S
H583 C609 0.950 . S
H584 C610 0.950 . S
H585 C612 0.950 . S
H586 C615 0.950 . S
H587 C616 0.950 . S
H588 C618 0.950 . S
H589 C619 0.950 . S
C590 H572 0.951 . S
C590 C591 1.366 . S
C590 C592 1.388 . S
C591 C590 1.366 . S
C591 C595 1.385 . S
C592 H573 0.951 . S
C592 C590 1.388 . S
C592 C593 1.366 . S
C593 C592 1.366 . S
C593 C594 1.414 . S
C593 C596 1.499 . S
C594 H574 0.950 . S
C594 C593 1.414 . S
C594 C595 1.374 . S
C595 H575 0.950 . S
C595 C591 1.385 . S
C595 C594 1.374 . S
C596 C593 1.499 . S
C596 C597 1.373 1_554 S
C596 C598 1.389 1_565 S
C597 H576 0.950 . S
C597 C596 1.373 1_556 S
C597 C613 1.377 . S
C598 C596 1.389 1_545 S
C598 C599 1.524 . S
C598 C612 1.377 . S
C599 C598 1.524 . S
C599 C600 1.397 . S
C599 C604 1.363 . S
C600 H577 0.950 . S
C600 C599 1.397 . S
C600 C601 1.334 . S
C601 H578 0.950 . S
C601 C600 1.334 . S
C601 C602 1.287 . S
C602 C601 1.287 . S
C602 C603 1.524 . S
C602 H621 0.913 . S
C603 H579 0.950 . S
C603 C602 1.524 . S
C603 C604 1.415 . S
C604 H580 0.950 . S
C604 C599 1.363 . S
C604 C603 1.415 . S
C605 H581 0.951 . S
C605 C606 1.366 . S
C605 C607 1.388 . S
C606 C605 1.366 . S
C606 C610 1.385 . S
C607 H582 0.951 . S
C607 C605 1.388 . S
C607 C608 1.366 . S
C608 C607 1.366 . S
C608 C609 1.414 . S
C608 C611 1.499 . S
C609 H583 0.950 . S
C609 C608 1.414 . S
C609 C610 1.374 . S
C610 H584 0.950 . S
C610 C606 1.385 . S
C610 C609 1.374 . S
C611 C608 1.499 . S
C611 C612 1.373 1_556 S
C611 C613 1.389 1_545 S
C612 H585 0.950 . S
C612 C598 1.377 . S
C612 C611 1.373 1_554 S
C613 C597 1.377 . S
C613 C611 1.389 1_565 S
C613 C614 1.524 . S
C614 C613 1.524 . S
C614 C615 1.397 . S
C614 C619 1.363 . S
C615 H586 0.950 . S
C615 C614 1.397 . S
C615 C616 1.334 . S
C616 H587 0.950 . S
C616 C615 1.334 . S
C616 C617 1.287 . S
C617 C616 1.287 . S
C617 C618 1.524 . S
C617 H620 0.999 . S
C618 H588 0.950 . S
C618 C617 1.524 . S
C618 C619 1.415 . S
C619 H589 0.950 . S
C619 C614 1.363 . S
C619 C618 1.415 . S
H620 C617 0.999 . S
H621 C602 0.913 . S
H622 C640 0.951 . S
H623 C642 0.951 . S
H624 C644 0.950 . S
H625 C645 0.950 . S
H626 C647 0.952 . S
H627 C650 0.950 . S
H628 C651 0.950 . S
H629 C653 0.950 . S
H630 C654 0.950 . S
H631 C655 0.951 . S
H632 C657 0.951 . S
H633 C659 0.950 . S
H634 C660 0.950 . S
H635 C662 0.952 . S
H636 C665 0.950 . S
H637 C666 0.950 . S
H638 C668 0.950 . S
H639 C669 0.950 . S
C640 H622 0.951 . S
C640 C641 1.366 . S
C640 C642 1.388 . S
C641 C640 1.366 . S
C641 C645 1.385 . S
C642 H623 0.951 . S
C642 C640 1.388 . S
C642 C643 1.366 . S
C643 C642 1.366 . S
C643 C644 1.414 . S
C643 C646 1.499 . S
C644 H624 0.950 . S
C644 C643 1.414 . S
C644 C645 1.374 . S
C645 H625 0.950 . S
C645 C641 1.385 . S
C645 C644 1.374 . S
C646 C643 1.499 . S
C646 C647 1.355 1_645 S
C646 C648 1.389 . S
C647 H626 0.952 . S
C647 C646 1.355 1_465 S
C647 C663 1.394 . S
C648 C646 1.389 . S
C648 C649 1.524 . S
C648 C662 1.394 . S
C649 C648 1.524 . S
C649 C650 1.397 . S
C649 C654 1.363 . S
C650 H627 0.950 . S
C650 C649 1.397 . S
C650 C651 1.334 . S
C651 H628 0.950 . S
C651 C650 1.334 . S
C651 C652 1.287 . S
C652 C651 1.287 . S
C652 C653 1.524 . S
C652 H671 0.913 . S
C653 H629 0.950 . S
C653 C652 1.524 . S
C653 C654 1.415 . S
C654 H630 0.950 . S
C654 C649 1.363 . S
C654 C653 1.415 . S
C655 H631 0.951 . S
C655 C656 1.366 . S
C655 C657 1.388 . S
C656 C655 1.366 . S
C656 C660 1.385 . S
C657 H632 0.951 . S
C657 C655 1.388 . S
C657 C658 1.366 . S
C658 C657 1.366 . S
C658 C659 1.414 . S
C658 C661 1.499 . S
C659 H633 0.950 . S
C659 C658 1.414 . S
C659 C660 1.374 . S
C660 H634 0.950 . S
C660 C656 1.385 . S
C660 C659 1.374 . S
C661 C658 1.499 . S
C661 C662 1.355 1_465 S
C661 C663 1.389 . S
C662 H635 0.952 . S
C662 C648 1.394 . S
C662 C661 1.355 1_645 S
C663 C647 1.394 . S
C663 C661 1.389 . S
C663 C664 1.524 . S
C664 C663 1.524 . S
C664 C665 1.397 . S
C664 C669 1.363 . S
C665 H636 0.950 . S
C665 C664 1.397 . S
C665 C666 1.334 . S
C666 H637 0.950 . S
C666 C665 1.334 . S
C666 C667 1.287 . S
C667 C666 1.287 . S
C667 C668 1.524 . S
C667 H670 0.999 . S
C668 H638 0.950 . S
C668 C667 1.524 . S
C668 C669 1.415 . S
C669 H639 0.950 . S
C669 C664 1.363 . S
C669 C668 1.415 . S
H670 C667 0.999 . S
H671 C652 0.913 . S
H672 C690 0.951 . S
H673 C692 0.951 . S
H674 C694 0.950 . S
H675 C695 0.950 . S
H676 C697 0.950 . S
H677 C700 0.950 . S
H678 C701 0.950 . S
H679 C703 0.950 . S
H680 C704 0.950 . S
H681 C705 0.951 . S
H682 C707 0.951 . S
H683 C709 0.950 . S
H684 C710 0.950 . S
H685 C712 0.950 . S
H686 C715 0.950 . S
H687 C716 0.950 . S
H688 C718 0.950 . S
H689 C719 0.950 . S
C690 H672 0.951 . S
C690 C691 1.366 . S
C690 C692 1.388 . S
C691 C690 1.366 . S
C691 C695 1.385 . S
C692 H673 0.951 . S
C692 C690 1.388 . S
C692 C693 1.366 . S
C693 C692 1.366 . S
C693 C694 1.414 . S
C693 C696 1.499 . S
C694 H674 0.950 . S
C694 C693 1.414 . S
C694 C695 1.374 . S
C695 H675 0.950 . S
C695 C691 1.385 . S
C695 C694 1.374 . S
C696 C693 1.499 . S
C696 C697 1.373 . S
C696 C698 1.389 . S
C697 H676 0.950 . S
C697 C696 1.373 . S
C697 C713 1.377 . S
C698 C696 1.389 . S
C698 C699 1.524 . S
C698 C712 1.377 . S
C699 C698 1.524 . S
C699 C700 1.397 . S
C699 C704 1.363 . S
C700 H677 0.950 . S
C700 C699 1.397 . S
C700 C701 1.334 . S
C701 H678 0.950 . S
C701 C700 1.334 . S
C701 C702 1.287 . S
C702 C701 1.287 . S
C702 C703 1.524 . S
C702 H721 0.913 . S
C703 H679 0.950 . S
C703 C702 1.524 . S
C703 C704 1.415 . S
C704 H680 0.950 . S
C704 C699 1.363 . S
C704 C703 1.415 . S
C705 H681 0.951 . S
C705 C706 1.366 . S
C705 C707 1.388 . S
C706 C705 1.366 . S
C706 C710 1.385 . S
C707 H682 0.951 . S
C707 C705 1.388 . S
C707 C708 1.366 . S
C708 C707 1.366 . S
C708 C709 1.414 . S
C708 C711 1.499 . S
C709 H683 0.950 . S
C709 C708 1.414 . S
C709 C710 1.374 . S
C710 H684 0.950 . S
C710 C706 1.385 . S
C710 C709 1.374 . S
C711 C708 1.499 . S
C711 C712 1.373 . S
C711 C713 1.389 . S
C712 H685 0.950 . S
C712 C698 1.377 . S
C712 C711 1.373 . S
C713 C697 1.377 . S
C713 C711 1.389 . S
C713 C714 1.524 . S
C714 C713 1.524 . S
C714 C715 1.397 . S
C714 C719 1.363 . S
C715 H686 0.950 . S
C715 C714 1.397 . S
C715 C716 1.334 . S
C716 H687 0.950 . S
C716 C715 1.334 . S
C716 C717 1.287 . S
C717 C716 1.287 . S
C717 C718 1.524 . S
C717 H720 0.999 . S
C718 H688 0.950 . S
C718 C717 1.524 . S
C718 C719 1.415 . S
C719 H689 0.950 . S
C719 C714 1.363 . S
C719 C718 1.415 . S
H720 C717 0.999 . S
H721 C702 0.913 . S
H722 C740 0.951 . S
H723 C742 0.951 . S
H724 C744 0.950 . S
H725 C745 0.950 . S
H726 C747 0.950 . S
H727 C750 0.950 . S
H728 C751 0.950 . S
H729 C753 0.950 . S
H730 C754 0.950 . S
H731 C755 0.951 . S
H732 C757 0.951 . S
H733 C759 0.950 . S
H734 C760 0.950 . S
H735 C762 0.950 . S
H736 C765 0.950 . S
H737 C766 0.950 . S
H738 C768 0.950 . S
H739 C769 0.950 . S
C740 H722 0.951 . S
C740 C741 1.366 . S
C740 C742 1.388 . S
C741 C740 1.366 . S
C741 C745 1.385 . S
C742 H723 0.951 . S
C742 C740 1.388 . S
C742 C743 1.366 . S
C743 C742 1.366 . S
C743 C744 1.414 . S
C743 C746 1.499 . S
C744 H724 0.950 . S
C744 C743 1.414 . S
C744 C745 1.374 . S
C745 H725 0.950 . S
C745 C741 1.385 . S
C745 C744 1.374 . S
C746 C743 1.499 . S
C746 C747 1.373 . S
C746 C748 1.389 . S
C747 H726 0.950 . S
C747 C746 1.373 . S
C747 C763 1.377 . S
C748 C746 1.389 . S
C748 C749 1.524 . S
C748 C762 1.377 . S
C749 C748 1.524 . S
C749 C750 1.397 . S
C749 C754 1.363 . S
C750 H727 0.950 . S
C750 C749 1.397 . S
C750 C751 1.334 . S
C751 H728 0.950 . S
C751 C750 1.334 . S
C751 C752 1.287 . S
C752 C751 1.287 . S
C752 C753 1.524 . S
C752 H771 0.913 . S
C753 H729 0.950 . S
C753 C752 1.524 . S
C753 C754 1.415 . S
C754 H730 0.950 . S
C754 C749 1.363 . S
C754 C753 1.415 . S
C755 H731 0.951 . S
C755 C756 1.366 . S
C755 C757 1.388 . S
C756 C755 1.366 . S
C756 C760 1.385 . S
C757 H732 0.951 . S
C757 C755 1.388 . S
C757 C758 1.366 . S
C758 C757 1.366 . S
C758 C759 1.414 . S
C758 C761 1.499 . S
C759 H733 0.950 . S
C759 C758 1.414 . S
C759 C760 1.374 . S
C760 H734 0.950 . S
C760 C756 1.385 . S
C760 C759 1.374 . S
C761 C758 1.499 . S
C761 C762 1.373 . S
C761 C763 1.389 . S
C762 H735 0.950 . S
C762 C748 1.377 . S
C762 C761 1.373 . S
C763 C747 1.377 . S
C763 C761 1.389 . S
C763 C764 1.524 . S
C764 C763 1.524 . S
C764 C765 1.397 . S
C764 C769 1.363 . S
C765 H736 0.950 . S
C765 C764 1.397 . S
C765 C766 1.334 . S
C766 H737 0.950 . S
C766 C765 1.334 . S
C766 C767 1.287 . S
C767 C766 1.287 . S
C767 C768 1.524 . S
C767 H770 0.999 . S
C768 H738 0.950 . S
C768 C767 1.524 . S
C768 C769 1.415 . S
C769 H739 0.950 . S
C769 C764 1.363 . S
C769 C768 1.415 . S
H770 C767 0.999 . S
H771 C752 0.913 . S
H772 C790 0.951 . S
H773 C792 0.951 . S
H774 C794 0.950 . S
H775 C795 0.950 . S
H776 C797 0.950 . S
H777 C800 0.950 . S
H778 C801 0.950 . S
H779 C803 0.950 . S
H780 C804 0.950 . S
H781 C805 0.951 . S
H782 C807 0.951 . S
H783 C809 0.950 . S
H784 C810 0.950 . S
H785 C812 0.950 . S
H786 C815 0.950 . S
H787 C816 0.950 . S
H788 C818 0.950 . S
H789 C819 0.950 . S
C790 H772 0.951 . S
C790 C791 1.366 . S
C790 C792 1.388 . S
C791 C790 1.366 . S
C791 C795 1.385 . S
C792 H773 0.951 . S
C792 C790 1.388 . S
C792 C793 1.366 . S
C793 C792 1.366 . S
C793 C794 1.414 . S
C793 C796 1.499 . S
C794 H774 0.950 . S
C794 C793 1.414 . S
C794 C795 1.374 . S
C795 H775 0.950 . S
C795 C791 1.385 . S
C795 C794 1.374 . S
C796 C793 1.499 . S
C796 C797 1.373 . S
C796 C798 1.389 . S
C797 H776 0.950 . S
C797 C796 1.373 . S
C797 C813 1.377 . S
C798 C796 1.389 . S
C798 C799 1.524 . S
C798 C812 1.377 . S
C799 C798 1.524 . S
C799 C800 1.397 . S
C799 C804 1.363 . S
C800 H777 0.950 . S
C800 C799 1.397 . S
C800 C801 1.334 . S
C801 H778 0.950 . S
C801 C800 1.334 . S
C801 C802 1.287 . S
C802 C801 1.287 . S
C802 C803 1.524 . S
C802 H821 0.913 . S
C803 H779 0.950 . S
C803 C802 1.524 . S
C803 C804 1.415 . S
C804 H780 0.950 . S
C804 C799 1.363 . S
C804 C803 1.415 . S
C805 H781 0.951 . S
C805 C806 1.366 . S
C805 C807 1.388 . S
C806 C805 1.366 . S
C806 C810 1.385 . S
C807 H782 0.951 . S
C807 C805 1.388 . S
C807 C808 1.366 . S
C808 C807 1.366 . S
C808 C809 1.414 . S
C808 C811 1.499 . S
C809 H783 0.950 . S
C809 C808 1.414 . S
C809 C810 1.374 . S
C810 H784 0.950 . S
C810 C806 1.385 . S
C810 C809 1.374 . S
C811 C808 1.499 . S
C811 C812 1.373 . S
C811 C813 1.389 . S
C812 H785 0.950 . S
C812 C798 1.377 . S
C812 C811 1.373 . S
C813 C797 1.377 . S
C813 C811 1.389 . S
C813 C814 1.524 . S
C814 C813 1.524 . S
C814 C815 1.397 . S
C814 C819 1.363 . S
C815 H786 0.950 . S
C815 C814 1.397 . S
C815 C816 1.334 . S
C816 H787 0.950 . S
C816 C815 1.334 . S
C816 C817 1.287 . S
C817 C816 1.287 . S
C817 C818 1.524 . S
C817 H820 0.999 . S
C818 H788 0.950 . S
C818 C817 1.524 . S
C818 C819 1.415 . S
C819 H789 0.950 . S
C819 C814 1.363 . S
C819 C818 1.415 . S
H820 C817 0.999 . S
H821 C802 0.913 . S
H822 C840 0.951 . S
H823 C842 0.951 . S
H824 C844 0.950 . S
H825 C845 0.950 . S
H826 C847 0.950 . S
H827 C850 0.950 . S
H828 C851 0.950 . S
H829 C853 0.950 . S
H830 C854 0.950 . S
H831 C855 0.951 . S
H832 C857 0.951 . S
H833 C859 0.950 . S
H834 C860 0.950 . S
H835 C862 0.950 . S
H836 C865 0.950 . S
H837 C866 0.950 . S
H838 C868 0.950 . S
H839 C869 0.950 . S
C840 H822 0.951 . S
C840 C841 1.366 . S
C840 C842 1.388 . S
C841 C840 1.366 . S
C841 C845 1.385 . S
C842 H823 0.951 . S
C842 C840 1.388 . S
C842 C843 1.366 . S
C843 C842 1.366 . S
C843 C844 1.414 . S
C843 C846 1.499 . S
C844 H824 0.950 . S
C844 C843 1.414 . S
C844 C845 1.374 . S
C845 H825 0.950 . S
C845 C841 1.385 . S
C845 C844 1.374 . S
C846 C843 1.499 . S
C846 C847 1.373 . S
C846 C848 1.389 . S
C847 H826 0.950 . S
C847 C846 1.373 . S
C847 C863 1.377 . S
C848 C846 1.389 . S
C848 C849 1.524 . S
C848 C862 1.377 . S
C849 C848 1.524 . S
C849 C850 1.397 . S
C849 C854 1.363 . S
C850 H827 0.950 . S
C850 C849 1.397 . S
C850 C851 1.334 . S
C851 H828 0.950 . S
C851 C850 1.334 . S
C851 C852 1.287 . S
C852 C851 1.287 . S
C852 C853 1.524 . S
C852 H871 0.913 . S
C853 H829 0.950 . S
C853 C852 1.524 . S
C853 C854 1.415 . S
C854 H830 0.950 . S
C854 C849 1.363 . S
C854 C853 1.415 . S
C855 H831 0.951 . S
C855 C856 1.366 . S
C855 C857 1.388 . S
C856 C855 1.366 . S
C856 C860 1.385 . S
C857 H832 0.951 . S
C857 C855 1.388 . S
C857 C858 1.366 . S
C858 C857 1.366 . S
C858 C859 1.414 . S
C858 C861 1.499 . S
C859 H833 0.950 . S
C859 C858 1.414 . S
C859 C860 1.374 . S
C860 H834 0.950 . S
C860 C856 1.385 . S
C860 C859 1.374 . S
C861 C858 1.499 . S
C861 C862 1.373 . S
C861 C863 1.389 . S
C862 H835 0.950 . S
C862 C848 1.377 . S
C862 C861 1.373 . S
C863 C847 1.377 . S
C863 C861 1.389 . S
C863 C864 1.524 . S
C864 C863 1.524 . S
C864 C865 1.397 . S
C864 C869 1.363 . S
C865 H836 0.950 . S
C865 C864 1.397 . S
C865 C866 1.334 . S
C866 H837 0.950 . S
C866 C865 1.334 . S
C866 C867 1.287 . S
C867 C866 1.287 . S
C867 C868 1.524 . S
C867 H870 0.999 . S
C868 H838 0.950 . S
C868 C867 1.524 . S
C868 C869 1.415 . S
C869 H839 0.950 . S
C869 C864 1.363 . S
C869 C868 1.415 . S
H870 C867 0.999 . S
H871 C852 0.913 . S
H872 C890 0.951 . S
H873 C892 0.951 . S
H874 C894 0.950 . S
H875 C895 0.950 . S
H876 C897 0.950 . S
H877 C900 0.950 . S
H878 C901 0.950 . S
H879 C903 0.950 . S
H880 C904 0.950 . S
H881 C905 0.951 . S
H882 C907 0.951 . S
H883 C909 0.950 . S
H884 C910 0.950 . S
H885 C912 0.950 . S
H886 C915 0.950 . S
H887 C916 0.950 . S
H888 C918 0.950 . S
H889 C919 0.950 . S
C890 H872 0.951 . S
C890 C891 1.366 . S
C890 C892 1.388 . S
C891 C890 1.366 . S
C891 C895 1.385 . S
C892 H873 0.951 . S
C892 C890 1.388 . S
C892 C893 1.366 . S
C893 C892 1.366 . S
C893 C894 1.414 . S
C893 C896 1.499 . S
C894 H874 0.950 . S
C894 C893 1.414 . S
C894 C895 1.374 . S
C895 H875 0.950 . S
C895 C891 1.385 . S
C895 C894 1.374 . S
C896 C893 1.499 . S
C896 C897 1.373 . S
C896 C898 1.389 . S
C897 H876 0.950 . S
C897 C896 1.373 . S
C897 C913 1.377 . S
C898 C896 1.389 . S
C898 C899 1.524 . S
C898 C912 1.377 . S
C899 C898 1.524 . S
C899 C900 1.397 . S
C899 C904 1.363 . S
C900 H877 0.950 . S
C900 C899 1.397 . S
C900 C901 1.334 . S
C901 H878 0.950 . S
C901 C900 1.334 . S
C901 C902 1.287 . S
C902 C901 1.287 . S
C902 C903 1.524 . S
C902 H921 0.913 . S
C903 H879 0.950 . S
C903 C902 1.524 . S
C903 C904 1.415 . S
C904 H880 0.950 . S
C904 C899 1.363 . S
C904 C903 1.415 . S
C905 H881 0.951 . S
C905 C906 1.366 . S
C905 C907 1.388 . S
C906 C905 1.366 . S
C906 C910 1.385 . S
C907 H882 0.951 . S
C907 C905 1.388 . S
C907 C908 1.366 . S
C908 C907 1.366 . S
C908 C909 1.414 . S
C908 C911 1.499 . S
C909 H883 0.950 . S
C909 C908 1.414 . S
C909 C910 1.374 . S
C910 H884 0.950 . S
C910 C906 1.385 . S
C910 C909 1.374 . S
C911 C908 1.499 . S
C911 C912 1.373 . S
C911 C913 1.389 . S
C912 H885 0.950 . S
C912 C898 1.377 . S
C912 C911 1.373 . S
C913 C897 1.377 . S
C913 C911 1.389 . S
C913 C914 1.524 . S
C914 C913 1.524 . S
C914 C915 1.397 . S
C914 C919 1.363 . S
C915 H886 0.950 . S
C915 C914 1.397 . S
C915 C916 1.334 . S
C916 H887 0.950 . S
C916 C915 1.334 . S
C916 C917 1.287 . S
C917 C916 1.287 . S
C917 C918 1.524 . S
C917 H920 0.999 . S
C918 H888 0.950 . S
C918 C917 1.524 . S
C918 C919 1.415 . S
C919 H889 0.950 . S
C919 C914 1.363 . S
C919 C918 1.415 . S
H920 C917 0.999 . S
H921 C902 0.913 . S
H922 C940 0.951 . S
H923 C942 0.951 . S
H924 C944 0.950 . S
H925 C945 0.950 . S
H926 C947 0.950 . S
H927 C950 0.950 . S
H928 C951 0.950 . S
H929 C953 0.950 . S
H930 C954 0.950 . S
H931 C955 0.951 . S
H932 C957 0.951 . S
H933 C959 0.950 . S
H934 C960 0.950 . S
H935 C962 0.950 . S
H936 C965 0.950 . S
H937 C966 0.950 . S
H938 C968 0.950 . S
H939 C969 0.950 . S
C940 H922 0.951 . S
C940 C941 1.366 . S
C940 C942 1.388 . S
C941 C940 1.366 . S
C941 C945 1.385 . S
C942 H923 0.951 . S
C942 C940 1.388 . S
C942 C943 1.366 . S
C943 C942 1.366 . S
C943 C944 1.414 . S
C943 C946 1.499 . S
C944 H924 0.950 . S
C944 C943 1.414 . S
C944 C945 1.374 . S
C945 H925 0.950 . S
C945 C941 1.385 . S
C945 C944 1.374 . S
C946 C943 1.499 . S
C946 C947 1.373 . S
C946 C948 1.389 . S
C947 H926 0.950 . S
C947 C946 1.373 . S
C947 C963 1.377 . S
C948 C946 1.389 . S
C948 C949 1.524 . S
C948 C962 1.377 . S
C949 C948 1.524 . S
C949 C950 1.397 . S
C949 C954 1.363 . S
C950 H927 0.950 . S
C950 C949 1.397 . S
C950 C951 1.334 . S
C951 H928 0.950 . S
C951 C950 1.334 . S
C951 C952 1.287 . S
C952 C951 1.287 . S
C952 C953 1.524 . S
C952 H971 0.913 . S
C953 H929 0.950 . S
C953 C952 1.524 . S
C953 C954 1.415 . S
C954 H930 0.950 . S
C954 C949 1.363 . S
C954 C953 1.415 . S
C955 H931 0.951 . S
C955 C956 1.366 . S
C955 C957 1.388 . S
C956 C955 1.366 . S
C956 C960 1.385 . S
C957 H932 0.951 . S
C957 C955 1.388 . S
C957 C958 1.366 . S
C958 C957 1.366 . S
C958 C959 1.414 . S
C958 C961 1.499 . S
C959 H933 0.950 . S
C959 C958 1.414 . S
C959 C960 1.374 . S
C960 H934 0.950 . S
C960 C956 1.385 . S
C960 C959 1.374 . S
C961 C958 1.499 . S
C961 C962 1.373 . S
C961 C963 1.389 . S
C962 H935 0.950 . S
C962 C948 1.377 . S
C962 C961 1.373 . S
C963 C947 1.377 . S
C963 C961 1.389 . S
C963 C964 1.524 . S
C964 C963 1.524 . S
C964 C965 1.397 . S
C964 C969 1.363 . S
C965 H936 0.950 . S
C965 C964 1.397 . S
C965 C966 1.334 . S
C966 H937 0.950 . S
C966 C965 1.334 . S
C966 C967 1.287 . S
C967 C966 1.287 . S
C967 C968 1.524 . S
C967 H970 0.999 . S
C968 H938 0.950 . S
C968 C967 1.524 . S
C968 C969 1.415 . S
C969 H939 0.950 . S
C969 C964 1.363 . S
C969 C968 1.415 . S
H970 C967 0.999 . S
H971 C952 0.913 . S
H972 C990 0.951 . S
H973 C992 0.951 . S
H974 C994 0.950 . S
H975 C995 0.950 . S
H976 C997 0.950 . S
H977 C1000 0.950 . S
H978 C1001 0.950 . S
H979 C1003 0.950 . S
H980 C1004 0.950 1_545 S
H981 C1005 0.951 . S
H982 C1007 0.951 . S
H983 C1009 0.950 1_545 S
H984 C1010 0.934 1_545 S
H985 C1012 0.950 . S
H986 C1015 0.950 . S
H987 C1016 0.950 . S
H988 C1018 0.950 . S
H989 C1019 0.950 . S
C990 H972 0.951 . S
C990 C991 1.366 . S
C990 C992 1.388 . S
C991 C990 1.366 . S
C991 C995 1.385 . S
C992 H973 0.951 . S
C992 C990 1.388 . S
C992 C993 1.366 . S
C993 C992 1.366 . S
C993 C994 1.414 . S
C993 C996 1.499 . S
C994 H974 0.950 . S
C994 C993 1.414 . S
C994 C995 1.374 . S
C995 H975 0.950 . S
C995 C991 1.385 . S
C995 C994 1.374 . S
C996 C993 1.499 . S
C996 C997 1.373 . S
C996 C998 1.389 . S
C997 H976 0.950 . S
C997 C996 1.373 . S
C997 C1013 1.377 . S
C998 C996 1.389 . S
C998 C999 1.524 . S
C998 C1012 1.377 . S
C999 C998 1.524 . S
C999 C1000 1.397 . S
C999 C1004 1.363 . S
C1000 H977 0.950 . S
C1000 C999 1.397 . S
C1000 C1001 1.334 . S
C1001 H978 0.950 . S
C1001 C1000 1.334 . S
C1001 C1002 1.287 . S
C1002 C1001 1.287 . S
C1002 C1003 1.524 1_565 S
C1002 H1021 0.913 . S
C1003 H979 0.950 . S
C1003 C1002 1.524 1_545 S
C1003 C1004 1.415 1_545 S
C1004 H980 0.950 1_565 S
C1004 C999 1.363 . S
C1004 C1003 1.415 1_565 S
C1005 H981 0.951 . S
C1005 C1006 1.366 . S
C1005 C1007 1.388 . S
C1006 C1005 1.366 . S
C1006 C1010 1.395 . S
C1007 H982 0.951 . S
C1007 C1005 1.388 . S
C1007 C1008 1.366 . S
C1008 C1007 1.366 . S
C1008 C1009 1.414 . S
C1008 C1011 1.499 . S
C1009 H983 0.950 1_565 S
C1009 C1008 1.414 . S
C1009 C1010 1.380 . S
C1010 H984 0.934 1_565 S
C1010 C1006 1.395 . S
C1010 C1009 1.380 . S
C1011 C1008 1.499 . S
C1011 C1012 1.373 . S
C1011 C1013 1.389 . S
C1012 H985 0.950 . S
C1012 C998 1.377 . S
C1012 C1011 1.373 . S
C1013 C997 1.377 . S
C1013 C1011 1.389 . S
C1013 C1014 1.524 . S
C1014 C1013 1.524 . S
C1014 C1015 1.397 . S
C1014 C1019 1.363 . S
C1015 H986 0.950 . S
C1015 C1014 1.397 . S
C1015 C1016 1.334 . S
C1016 H987 0.950 . S
C1016 C1015 1.334 . S
C1016 C1017 1.287 . S
C1017 C1016 1.287 . S
C1017 C1018 1.524 . S
C1017 H1020 0.999 . S
C1018 H988 0.950 . S
C1018 C1017 1.524 . S
C1018 C1019 1.415 . S
C1019 H989 0.950 . S
C1019 C1014 1.363 . S
C1019 C1018 1.415 . S
H1020 C1017 0.999 . S
H1021 C1002 0.913 . S
H1022 C1040 0.951 1_655 S
H1023 C1042 0.951 . S
H1024 C1044 0.950 . S
H1025 C1045 0.950 . S
H1026 C1047 0.950 . S
H1027 C1050 0.950 . S
H1028 C1051 0.950 . S
H1029 C1053 0.950 . S
H1030 C1054 0.950 . S
H1031 C1055 0.951 . S
H1032 C1057 0.951 . S
H1033 C1059 0.950 . S
H1034 C1060 0.950 . S
H1035 C1062 0.950 . S
H1036 C1065 0.950 . S
H1037 C1066 0.950 . S
H1038 C1068 0.950 . S
H1039 C1069 0.950 . S
C1040 H1022 0.951 1_455 S
C1040 C1041 1.366 . S
C1040 C1042 1.388 . S
C1041 C1040 1.366 . S
C1041 C1045 1.385 . S
C1042 H1023 0.951 . S
C1042 C1040 1.388 . S
C1042 C1043 1.366 . S
C1043 C1042 1.366 . S
C1043 C1044 1.414 . S
C1043 C1046 1.499 . S
C1044 H1024 0.950 . S
C1044 C1043 1.414 . S
C1044 C1045 1.374 . S
C1045 H1025 0.950 . S
C1045 C1041 1.385 . S
C1045 C1044 1.374 . S
C1046 C1043 1.499 . S
C1046 C1047 1.373 . S
C1046 C1048 1.389 . S
C1047 H1026 0.950 . S
C1047 C1046 1.373 . S
C1047 C1063 1.377 . S
C1048 C1046 1.389 . S
C1048 C1049 1.524 . S
C1048 C1062 1.377 . S
C1049 C1048 1.524 . S
C1049 C1050 1.397 . S
C1049 C1054 1.363 . S
C1050 H1027 0.950 . S
C1050 C1049 1.397 . S
C1050 C1051 1.334 . S
C1051 H1028 0.950 . S
C1051 C1050 1.334 . S
C1051 C1052 1.287 . S
C1052 C1051 1.287 . S
C1052 C1053 1.524 1_455 S
C1052 H1071 0.913 . S
C1053 H1029 0.950 . S
C1053 C1052 1.524 1_655 S
C1053 C1054 1.415 1_655 S
C1054 H1030 0.950 . S
C1054 C1049 1.363 . S
C1054 C1053 1.415 1_455 S
C1055 H1031 0.951 . S
C1055 C1056 1.366 . S
C1055 C1057 1.388 . S
C1056 C1055 1.366 . S
C1056 C1060 1.385 . S
C1057 H1032 0.951 . S
C1057 C1055 1.388 . S
C1057 C1058 1.366 . S
C1058 C1057 1.366 . S
C1058 C1059 1.414 . S
C1058 C1061 1.499 . S
C1059 H1033 0.950 . S
C1059 C1058 1.414 . S
C1059 C1060 1.374 . S
C1060 H1034 0.950 . S
C1060 C1056 1.385 . S
C1060 C1059 1.374 . S
C1061 C1058 1.499 . S
C1061 C1062 1.373 . S
C1061 C1063 1.389 . S
C1062 H1035 0.950 . S
C1062 C1048 1.377 . S
C1062 C1061 1.373 . S
C1063 C1047 1.377 . S
C1063 C1061 1.389 . S
C1063 C1064 1.524 . S
C1064 C1063 1.524 . S
C1064 C1065 1.397 . S
C1064 C1069 1.363 . S
C1065 H1036 0.950 . S
C1065 C1064 1.397 . S
C1065 C1066 1.334 . S
C1066 H1037 0.950 . S
C1066 C1065 1.334 . S
C1066 C1067 1.287 . S
C1067 C1066 1.287 . S
C1067 C1068 1.524 . S
C1067 H1070 0.999 . S
C1068 H1038 0.950 . S
C1068 C1067 1.524 . S
C1068 C1069 1.415 . S
C1069 H1039 0.950 . S
C1069 C1064 1.363 . S
C1069 C1068 1.415 . S
H1070 C1067 0.999 . S
H1071 C1052 0.913 . S
H1072 C1090 0.951 . S
H1073 C1092 0.951 . S
H1074 C1094 0.950 . S
H1075 C1095 0.950 . S
H1076 C1097 0.950 . S
H1077 C1100 0.950 . S
H1078 C1101 0.950 . S
H1079 C1103 0.950 . S
H1080 C1104 0.950 . S
H1081 C1105 0.951 . S
H1082 C1107 0.951 . S
H1083 C1109 0.950 . S
H1084 C1110 0.950 . S
H1085 C1112 0.950 . S
H1086 C1115 0.950 . S
H1087 C1116 0.950 . S
H1088 C1118 0.950 . S
H1089 C1119 0.950 . S
C1090 H1072 0.951 . S
C1090 C1091 1.366 . S
C1090 C1092 1.388 . S
C1091 C1090 1.366 . S
C1091 C1095 1.385 . S
C1092 H1073 0.951 . S
C1092 C1090 1.388 . S
C1092 C1093 1.366 . S
C1093 C1092 1.366 . S
C1093 C1094 1.414 . S
C1093 C1096 1.499 . S
C1094 H1074 0.950 . S
C1094 C1093 1.414 . S
C1094 C1095 1.374 . S
C1095 H1075 0.950 . S
C1095 C1091 1.385 . S
C1095 C1094 1.374 . S
C1096 C1093 1.499 . S
C1096 C1097 1.373 . S
C1096 C1098 1.389 . S
C1097 H1076 0.950 . S
C1097 C1096 1.373 . S
C1097 C1113 1.377 . S
C1098 C1096 1.389 . S
C1098 C1099 1.524 . S
C1098 C1112 1.377 . S
C1099 C1098 1.524 . S
C1099 C1100 1.397 . S
C1099 C1104 1.363 . S
C1100 H1077 0.950 . S
C1100 C1099 1.397 . S
C1100 C1101 1.334 . S
C1101 H1078 0.950 . S
C1101 C1100 1.334 . S
C1101 C1102 1.287 . S
C1102 C1101 1.287 . S
C1102 C1103 1.524 . S
C1102 H1121 0.913 . S
C1103 H1079 0.950 . S
C1103 C1102 1.524 . S
C1103 C1104 1.415 . S
C1104 H1080 0.950 . S
C1104 C1099 1.363 . S
C1104 C1103 1.415 . S
C1105 H1081 0.951 . S
C1105 C1106 1.366 . S
C1105 C1107 1.388 . S
C1106 C1105 1.366 . S
C1106 C1110 1.385 . S
C1107 H1082 0.951 . S
C1107 C1105 1.388 . S
C1107 C1108 1.366 . S
C1108 C1107 1.366 . S
C1108 C1109 1.414 . S
C1108 C1111 1.499 . S
C1109 H1083 0.950 . S
C1109 C1108 1.414 . S
C1109 C1110 1.374 . S
C1110 H1084 0.950 . S
C1110 C1106 1.385 . S
C1110 C1109 1.374 . S
C1111 C1108 1.499 . S
C1111 C1112 1.373 . S
C1111 C1113 1.389 . S
C1112 H1085 0.950 . S
C1112 C1098 1.377 . S
C1112 C1111 1.373 . S
C1113 C1097 1.377 . S
C1113 C1111 1.389 . S
C1113 C1114 1.524 . S
C1114 C1113 1.524 . S
C1114 C1115 1.397 . S
C1114 C1119 1.363 . S
C1115 H1086 0.950 . S
C1115 C1114 1.397 . S
C1115 C1116 1.334 . S
C1116 H1087 0.950 . S
C1116 C1115 1.334 . S
C1116 C1117 1.287 . S
C1117 C1116 1.287 . S
C1117 C1118 1.524 . S
C1117 H1120 0.999 . S
C1118 H1088 0.950 . S
C1118 C1117 1.524 . S
C1118 C1119 1.415 . S
C1119 H1089 0.950 . S
C1119 C1114 1.363 . S
C1119 C1118 1.415 . S
H1120 C1117 0.999 . S
H1121 C1102 0.913 . S
H1122 C1140 0.951 . S
H1123 C1142 0.951 . S
H1124 C1144 0.950 . S
H1125 C1145 0.950 . S
H1126 C1147 0.950 . S
H1127 C1150 0.950 . S
H1128 C1151 0.950 . S
H1129 C1153 0.950 . S
H1130 C1154 0.950 . S
H1131 C1155 0.951 . S
H1132 C1157 0.951 . S
H1133 C1159 0.950 . S
H1134 C1160 0.950 . S
H1135 C1162 0.950 . S
H1136 C1165 0.950 . S
H1137 C1166 0.950 . S
H1138 C1168 0.950 . S
H1139 C1169 0.950 . S
C1140 H1122 0.951 . S
C1140 C1141 1.366 . S
C1140 C1142 1.388 . S
C1141 C1140 1.366 . S
C1141 C1145 1.385 . S
C1142 H1123 0.951 . S
C1142 C1140 1.388 . S
C1142 C1143 1.366 . S
C1143 C1142 1.366 . S
C1143 C1144 1.414 . S
C1143 C1146 1.499 . S
C1144 H1124 0.950 . S
C1144 C1143 1.414 . S
C1144 C1145 1.374 . S
C1145 H1125 0.950 . S
C1145 C1141 1.385 . S
C1145 C1144 1.374 . S
C1146 C1143 1.499 . S
C1146 C1147 1.373 . S
C1146 C1148 1.389 . S
C1147 H1126 0.950 . S
C1147 C1146 1.373 . S
C1147 C1163 1.377 . S
C1148 C1146 1.389 . S
C1148 C1149 1.524 . S
C1148 C1162 1.377 . S
C1149 C1148 1.524 . S
C1149 C1150 1.397 . S
C1149 C1154 1.363 . S
C1150 H1127 0.950 . S
C1150 C1149 1.397 . S
C1150 C1151 1.334 . S
C1151 H1128 0.950 . S
C1151 C1150 1.334 . S
C1151 C1152 1.287 . S
C1152 C1151 1.287 . S
C1152 C1153 1.524 . S
C1152 H1171 0.913 . S
C1153 H1129 0.950 . S
C1153 C1152 1.524 . S
C1153 C1154 1.415 . S
C1154 H1130 0.950 . S
C1154 C1149 1.363 . S
C1154 C1153 1.415 . S
C1155 H1131 0.951 . S
C1155 C1156 1.366 . S
C1155 C1157 1.388 . S
C1156 C1155 1.366 . S
C1156 C1160 1.385 . S
C1157 H1132 0.951 . S
C1157 C1155 1.388 . S
C1157 C1158 1.366 . S
C1158 C1157 1.366 . S
C1158 C1159 1.414 . S
C1158 C1161 1.499 . S
C1159 H1133 0.950 . S
C1159 C1158 1.414 . S
C1159 C1160 1.374 . S
C1160 H1134 0.950 . S
C1160 C1156 1.385 . S
C1160 C1159 1.374 . S
C1161 C1158 1.499 . S
C1161 C1162 1.373 . S
C1161 C1163 1.389 . S
C1162 H1135 0.950 . S
C1162 C1148 1.377 . S
C1162 C1161 1.373 . S
C1163 C1147 1.377 . S
C1163 C1161 1.389 . S
C1163 C1164 1.524 . S
C1164 C1163 1.524 . S
C1164 C1165 1.397 . S
C1164 C1169 1.363 . S
C1165 H1136 0.950 . S
C1165 C1164 1.397 . S
C1165 C1166 1.334 . S
C1166 H1137 0.950 . S
C1166 C1165 1.334 . S
C1166 C1167 1.287 . S
C1167 C1166 1.287 . S
C1167 C1168 1.524 . S
C1167 H1170 0.999 . S
C1168 H1138 0.950 . S
C1168 C1167 1.524 . S
C1168 C1169 1.415 . S
C1169 H1139 0.950 . S
C1169 C1164 1.363 . S
C1169 C1168 1.415 . S
H1170 C1167 0.999 . S
H1171 C1152 0.913 . S
H1172 C1190 0.951 . S
H1173 C1192 0.951 . S
H1174 C1194 0.950 . S
H1175 C1195 0.950 . S
H1176 C1197 0.950 . S
H1177 C1200 0.950 . S
H1178 C1201 0.950 . S
H1179 C1203 0.950 . S
H1180 C1204 0.950 . S
H1181 C1205 0.951 1_565 S
H1182 C1207 0.951 . S
H1183 C1209 0.950 . S
H1184 C1210 0.950 . S
H1185 C1212 0.950 . S
H1186 C1215 0.950 1_545 S
H1187 C1216 0.950 . S
H1188 C1218 0.950 . S
H1189 C1219 0.950 . S
C1190 H1172 0.951 . S
C1190 C1191 1.366 . S
C1190 C1192 1.388 . S
C1191 C1190 1.366 . S
C1191 C1195 1.385 . S
C1192 H1173 0.951 . S
C1192 C1190 1.388 . S
C1192 C1193 1.366 . S
C1193 C1192 1.366 . S
C1193 C1194 1.414 . S
C1193 C1196 1.499 . S
C1194 H1174 0.950 . S
C1194 C1193 1.414 . S
C1194 C1195 1.374 . S
C1195 H1175 0.950 . S
C1195 C1191 1.385 . S
C1195 C1194 1.374 . S
C1196 C1193 1.499 . S
C1196 C1197 1.373 . S
C1196 C1198 1.389 . S
C1197 H1176 0.950 . S
C1197 C1196 1.373 . S
C1197 C1213 1.377 . S
C1198 C1196 1.389 . S
C1198 C1199 1.524 . S
C1198 C1212 1.377 . S
C1199 C1198 1.524 . S
C1199 C1200 1.397 . S
C1199 C1204 1.363 . S
C1200 H1177 0.950 . S
C1200 C1199 1.397 . S
C1200 C1201 1.334 . S
C1201 H1178 0.950 . S
C1201 C1200 1.334 . S
C1201 C1202 1.287 . S
C1202 C1201 1.287 . S
C1202 C1203 1.524 . S
C1202 H1221 0.913 . S
C1203 H1179 0.950 . S
C1203 C1202 1.524 . S
C1203 C1204 1.415 . S
C1204 H1180 0.950 . S
C1204 C1199 1.363 . S
C1204 C1203 1.415 . S
C1205 H1181 0.951 1_545 S
C1205 C1206 1.366 . S
C1205 C1207 1.388 . S
C1206 C1205 1.366 . S
C1206 C1210 1.385 . S
C1207 H1182 0.951 . S
C1207 C1205 1.388 . S
C1207 C1208 1.366 . S
C1208 C1207 1.366 . S
C1208 C1209 1.414 . S
C1208 C1211 1.499 . S
C1209 H1183 0.950 . S
C1209 C1208 1.414 . S
C1209 C1210 1.374 . S
C1210 H1184 0.950 . S
C1210 C1206 1.385 . S
C1210 C1209 1.374 . S
C1211 C1208 1.499 . S
C1211 C1212 1.373 . S
C1211 C1213 1.389 . S
C1212 H1185 0.950 . S
C1212 C1198 1.377 . S
C1212 C1211 1.373 . S
C1213 C1197 1.377 . S
C1213 C1211 1.389 . S
C1213 C1214 1.524 . S
C1214 C1213 1.524 . S
C1214 C1215 1.397 1_545 S
C1214 C1219 1.363 1_545 S
C1215 H1186 0.950 1_565 S
C1215 C1214 1.397 1_565 S
C1215 C1216 1.334 . S
C1216 H1187 0.950 . S
C1216 C1215 1.334 . S
C1216 C1217 1.287 . S
C1217 C1216 1.287 . S
C1217 C1218 1.524 . S
C1217 H1220 0.999 . S
C1218 H1188 0.950 . S
C1218 C1217 1.524 . S
C1218 C1219 1.415 . S
C1219 H1189 0.950 . S
C1219 C1214 1.363 1_565 S
C1219 C1218 1.415 . S
H1220 C1217 0.999 . S
H1221 C1202 0.913 . S
H1222 C1240 0.951 . S
H1223 C1242 0.951 . S
H1224 C1244 0.950 . S
H1225 C1245 0.950 1_455 S
H1226 C1247 0.950 . S
H1227 C1250 0.950 . S
H1228 C1251 0.950 . S
H1229 C1253 0.950 . S
H1230 C1254 0.950 . S
H1231 C1255 0.951 . S
H1232 C1257 0.951 . S
H1233 C1259 0.950 . S
H1234 C1260 0.950 . S
H1235 C1262 0.950 . S
H1236 C1265 0.950 . S
H1237 C1266 0.950 . S
H1238 C1268 0.950 . S
H1239 C1269 0.950 . S
C1240 H1222 0.951 . S
C1240 C1241 1.366 . S
C1240 C1242 1.388 . S
C1241 C1240 1.366 . S
C1241 C1245 1.385 . S
C1242 H1223 0.951 . S
C1242 C1240 1.388 . S
C1242 C1243 1.366 . S
C1243 C1242 1.366 . S
C1243 C1244 1.414 . S
C1243 C1246 1.499 . S
C1244 H1224 0.950 . S
C1244 C1243 1.414 . S
C1244 C1245 1.374 . S
C1245 H1225 0.950 1_655 S
C1245 C1241 1.385 . S
C1245 C1244 1.374 . S
C1246 C1243 1.499 . S
C1246 C1247 1.373 . S
C1246 C1248 1.389 . S
C1247 H1226 0.950 . S
C1247 C1246 1.373 . S
C1247 C1263 1.377 . S
C1248 C1246 1.389 . S
C1248 C1249 1.524 . S
C1248 C1262 1.377 . S
C1249 C1248 1.524 . S
C1249 C1250 1.397 . S
C1249 C1254 1.363 . S
C1250 H1227 0.950 . S
C1250 C1249 1.397 . S
C1250 C1251 1.334 . S
C1251 H1228 0.950 . S
C1251 C1250 1.334 . S
C1251 C1252 1.287 . S
C1252 C1251 1.287 . S
C1252 C1253 1.524 . S
C1252 H1271 0.913 . S
C1253 H1229 0.950 . S
C1253 C1252 1.524 . S
C1253 C1254 1.415 . S
C1254 H1230 0.950 . S
C1254 C1249 1.363 . S
C1254 C1253 1.415 . S
C1255 H1231 0.951 . S
C1255 C1256 1.366 . S
C1255 C1257 1.388 . S
C1256 C1255 1.366 . S
C1256 C1260 1.385 . S
C1257 H1232 0.951 . S
C1257 C1255 1.388 . S
C1257 C1258 1.366 . S
C1258 C1257 1.366 . S
C1258 C1259 1.414 . S
C1258 C1261 1.499 . S
C1259 H1233 0.950 . S
C1259 C1258 1.414 . S
C1259 C1260 1.374 . S
C1260 H1234 0.950 . S
C1260 C1256 1.385 . S
C1260 C1259 1.374 . S
C1261 C1258 1.499 . S
C1261 C1262 1.373 . S
C1261 C1263 1.389 . S
C1262 H1235 0.950 . S
C1262 C1248 1.377 . S
C1262 C1261 1.373 . S
C1263 C1247 1.377 . S
C1263 C1261 1.389 . S
C1263 C1264 1.524 . S
C1264 C1263 1.524 . S
C1264 C1265 1.397 . S
C1264 C1269 1.363 1_655 S
C1265 H1236 0.950 . S
C1265 C1264 1.397 . S
C1265 C1266 1.334 . S
C1266 H1237 0.950 . S
C1266 C1265 1.334 . S
C1266 C1267 1.287 1_655 S
C1267 C1266 1.287 1_455 S
C1267 C1268 1.524 . S
C1267 H1270 0.999 . S
C1268 H1238 0.950 . S
C1268 C1267 1.524 . S
C1268 C1269 1.415 . S
C1269 H1239 0.950 . S
C1269 C1264 1.363 1_455 S
C1269 C1268 1.415 . S
H1270 C1267 0.999 . S
H1271 C1252 0.913 . S
C491 C241 1.530 . S
C506 C5 1.530 . S
C541 C64 1.530 . S
C556 C300 1.530 . S
C591 C123 1.530 . S
C606 C359 1.530 . S
C641 C418 1.530 . S
C656 C182 1.530 . S
C691 C3 1.424 . S
C706 C121 1.424 . S
C741 C62 1.424 . S
C756 C180 1.423 . S
C791 C357 1.423 . S
C806 C239 1.423 . S
C841 C298 1.423 . S
C856 C416 1.424 . S
C891 C347 1.182 . S
C906 C33 1.178 . S
C941 C92 1.178 . S
C956 C406 1.182 . S
C991 C151 1.178 . S
C1006 C465 1.182 . S
C1041 C288 1.182 . S
C1056 C210 1.178 . S
C1091 C269 1.178 . S
C1106 C111 1.182 . S
C1141 C328 1.178 . S
C1156 C170 1.182 . S
C1191 C387 1.179 . S
C1206 C229 1.182 . S
C1241 C52 1.182 . S
C1256 C446 1.178 . S
