# Generated by pormake.
# Topology wkj, (6)-cn, num edge types: 1
# Building blocks:
#     Node 0, Type 0, BuildingBlock: BETFAJ_clean_sbu_0, # of connection points: 6
#     Node 1, Type 0, BuildingBlock: BETFAJ_clean_sbu_0, # of connection points: 6
#     Node 2, Type 0, BuildingBlock: BETFAJ_clean_sbu_0, # of connection points: 6
#     Node 3, Type 0, BuildingBlock: BETFAJ_clean_sbu_0, # of connection points: 6
#     Node 4, Type 0, BuildingBlock: BETFAJ_clean_sbu_0, # of connection points: 6
#     Node 5, Type 0, BuildingBlock: BETFAJ_clean_sbu_0, # of connection points: 6
#     Node 6, Type 0, BuildingBlock: BETFAJ_clean_sbu_0, # of connection points: 6
#     Node 7, Type 0, BuildingBlock: BETFAJ_clean_sbu_0, # of connection points: 6
#     Node 8, Type 0, BuildingBlock: BETFAJ_clean_sbu_0, # of connection points: 6
#     Node 9, Type 0, BuildingBlock: BETFAJ_clean_sbu_0, # of connection points: 6
#     Node 10, Type 0, BuildingBlock: BETFAJ_clean_sbu_0, # of connection points: 6
#     Node 11, Type 0, BuildingBlock: BETFAJ_clean_sbu_0, # of connection points: 6
#     Edge 12, Type (0, 0), BuildingBlock: CIFDUS_clean_linker_0, # of connection points: 2
#     Edge 13, Type (0, 0), BuildingBlock: CIFDUS_clean_linker_0, # of connection points: 2
#     Edge 14, Type (0, 0), BuildingBlock: CIFDUS_clean_linker_0, # of connection points: 2
#     Edge 15, Type (0, 0), BuildingBlock: CIFDUS_clean_linker_0, # of connection points: 2
#     Edge 16, Type (0, 0), BuildingBlock: CIFDUS_clean_linker_0, # of connection points: 2
#     Edge 17, Type (0, 0), BuildingBlock: CIFDUS_clean_linker_0, # of connection points: 2
#     Edge 18, Type (0, 0), BuildingBlock: CIFDUS_clean_linker_0, # of connection points: 2
#     Edge 19, Type (0, 0), BuildingBlock: CIFDUS_clean_linker_0, # of connection points: 2
#     Edge 20, Type (0, 0), BuildingBlock: CIFDUS_clean_linker_0, # of connection points: 2
#     Edge 21, Type (0, 0), BuildingBlock: CIFDUS_clean_linker_0, # of connection points: 2
#     Edge 22, Type (0, 0), BuildingBlock: CIFDUS_clean_linker_0, # of connection points: 2
#     Edge 23, Type (0, 0), BuildingBlock: CIFDUS_clean_linker_0, # of connection points: 2
#     Edge 24, Type (0, 0), BuildingBlock: CIFDUS_clean_linker_0, # of connection points: 2
#     Edge 25, Type (0, 0), BuildingBlock: CIFDUS_clean_linker_0, # of connection points: 2
#     Edge 26, Type (0, 0), BuildingBlock: CIFDUS_clean_linker_0, # of connection points: 2
#     Edge 27, Type (0, 0), BuildingBlock: CIFDUS_clean_linker_0, # of connection points: 2
#     Edge 28, Type (0, 0), BuildingBlock: CIFDUS_clean_linker_0, # of connection points: 2
#     Edge 29, Type (0, 0), BuildingBlock: CIFDUS_clean_linker_0, # of connection points: 2
#     Edge 30, Type (0, 0), BuildingBlock: CIFDUS_clean_linker_0, # of connection points: 2
#     Edge 31, Type (0, 0), BuildingBlock: CIFDUS_clean_linker_0, # of connection points: 2
#     Edge 32, Type (0, 0), BuildingBlock: CIFDUS_clean_linker_0, # of connection points: 2
#     Edge 33, Type (0, 0), BuildingBlock: CIFDUS_clean_linker_0, # of connection points: 2
#     Edge 34, Type (0, 0), BuildingBlock: CIFDUS_clean_linker_0, # of connection points: 2
#     Edge 35, Type (0, 0), BuildingBlock: CIFDUS_clean_linker_0, # of connection points: 2
#     Edge 36, Type (0, 0), BuildingBlock: CIFDUS_clean_linker_0, # of connection points: 2
#     Edge 37, Type (0, 0), BuildingBlock: CIFDUS_clean_linker_0, # of connection points: 2
#     Edge 38, Type (0, 0), BuildingBlock: CIFDUS_clean_linker_0, # of connection points: 2
#     Edge 39, Type (0, 0), BuildingBlock: CIFDUS_clean_linker_0, # of connection points: 2
#     Edge 40, Type (0, 0), BuildingBlock: CIFDUS_clean_linker_0, # of connection points: 2
#     Edge 41, Type (0, 0), BuildingBlock: CIFDUS_clean_linker_0, # of connection points: 2
#     Edge 42, Type (0, 0), BuildingBlock: CIFDUS_clean_linker_0, # of connection points: 2
#     Edge 43, Type (0, 0), BuildingBlock: CIFDUS_clean_linker_0, # of connection points: 2
#     Edge 44, Type (0, 0), BuildingBlock: CIFDUS_clean_linker_0, # of connection points: 2
#     Edge 45, Type (0, 0), BuildingBlock: CIFDUS_clean_linker_0, # of connection points: 2
#     Edge 46, Type (0, 0), BuildingBlock: CIFDUS_clean_linker_0, # of connection points: 2
#     Edge 47, Type (0, 0), BuildingBlock: CIFDUS_clean_linker_0, # of connection points: 2
# Relax obj value: 0.893
# Max RMSD: 0.174
# Mean RMSD: 0.174
data_MOF--net-wkj--node1-BETFAJ_clean_sbu_0--edge1-CIFDUS_clean_linker_0
_symmetry_space_group_name_H-M    P1
_symmetry_Int_Tables_number       1
_symmetry_cell_setting            triclinic
loop_
_symmetry_equiv_pos_as_xyz
'x, y, z'
_cell_length_a     43.654072
_cell_length_b     43.628917
_cell_length_c     27.071396
_cell_angle_alpha  90.077895
_cell_angle_beta   90.05991
_cell_angle_gamma 120.41866
loop_
_atom_site_label
_atom_site_type_symbol
_atom_site_fract_x
_atom_site_fract_y
_atom_site_fract_z
_atom_type_partial_charge
Sm0 Sm 0.438 0.07817 0.38933 0.0
Sm1 Sm 0.50934 0.11428 0.36137 0.0
C2 C 0.36842 0.04085 0.40357 0.0
C3 C 0.34398 0.0437 0.43768 0.0
C4 C 0.35761 0.06669 0.47827 0.0
C5 C 0.33545 0.06331 0.51743 0.0
C6 C 0.29915 0.03694 0.51654 0.0
C7 C 0.28495 0.01707 0.47284 0.0
C8 C 0.30735 0.02014 0.43387 0.0
C9 C 0.46341 0.15088 0.3707 0.0
C10 C 0.49119 0.11247 0.48851 0.0
C11 C 0.57214 0.16713 0.33348 0.0
C12 C 0.58771 0.19888 0.30243 0.0
C13 C 0.56711 0.20365 0.26709 0.0
C14 C 0.58104 0.23586 0.24192 0.0
C15 C 0.61581 0.26378 0.2517 0.0
C16 C 0.63631 0.25889 0.28735 0.0
C17 C 0.62222 0.2267 0.31278 0.0
C18 C 0.49986 0.06214 0.42265 0.0
C19 C 0.45521 0.04832 0.27881 0.0
O20 O 0.39092 0.03355 0.42464 0.0
O21 O 0.38318 0.06552 0.36993 0.0
O22 O 0.46818 0.12999 0.34325 0.0
O23 O 0.44739 0.13391 0.41048 0.0
O24 O 0.45793 0.09036 0.47347 0.0
O25 O 0.51527 0.12833 0.45178 0.0
O26 O 0.55417 0.16875 0.37087 0.0
O27 O 0.55677 0.13578 0.31202 0.0
O28 O 0.47667 0.05876 0.39136 0.0
O29 O 0.53062 0.08957 0.4138 0.0
O30 O 0.48879 0.07474 0.28827 0.0
O31 O 0.43129 0.04445 0.31326 0.0
H32 H 0.38589 0.08525 0.48152 0.0
H33 H 0.34772 0.07907 0.55021 0.0
H34 H 0.25702 -0.0028 0.47026 0.0
H35 H 0.29641 0.00252 0.40233 0.0
H36 H 0.54028 0.18253 0.25914 0.0
H37 H 0.56499 0.23849 0.21357 0.0
H38 H 0.66323 0.27984 0.29525 0.0
H39 H 0.63816 0.22362 0.34087 0.0
Sm40 Sm 0.38536 0.47379 0.73611 0.0
Sm41 Sm 0.41982 0.54502 0.70617 0.0
C42 C 0.35388 0.40425 0.74997 0.0
C43 C 0.32536 0.37821 0.7815 0.0
C44 C 0.31429 0.38975 0.82237 0.0
C45 C 0.2928 0.36548 0.85818 0.0
C46 C 0.28186 0.32913 0.85362 0.0
C47 C 0.28971 0.31732 0.80953 0.0
C48 C 0.31166 0.3418 0.77392 0.0
C49 C 0.33719 0.49745 0.71894 0.0
C50 C 0.40438 0.52834 0.83396 0.0
C51 C 0.42848 0.60644 0.67501 0.0
C52 C 0.41032 0.6181 0.64101 0.0
C53 C 0.41831 0.65356 0.64151 0.0
C54 C 0.39772 0.66371 0.61399 0.0
C55 C 0.36843 0.63826 0.58665 0.0
C56 C 0.36067 0.60277 0.58642 0.0
C57 C 0.38153 0.59284 0.61317 0.0
C58 C 0.46359 0.53698 0.7675 0.0
C59 C 0.42859 0.48979 0.62249 0.0
O60 O 0.38272 0.42738 0.77327 0.0
O61 O 0.34448 0.41857 0.71521 0.0
O62 O 0.36244 0.50251 0.69049 0.0
O63 O 0.33897 0.48202 0.75871 0.0
O64 O 0.39244 0.49483 0.81971 0.0
O65 O 0.41277 0.55204 0.79664 0.0
O66 O 0.40906 0.58895 0.71296 0.0
O67 O 0.44596 0.59205 0.65606 0.0
O68 O 0.44365 0.51356 0.73629 0.0
O69 O 0.46642 0.56742 0.75895 0.0
O70 O 0.43539 0.52327 0.63093 0.0
O71 O 0.41078 0.46674 0.65908 0.0
H72 H 0.32437 0.41784 0.8284 0.0
H73 H 0.28777 0.37597 0.89147 0.0
H74 H 0.2811 0.2895 0.80418 0.0
H75 H 0.31959 0.3325 0.74198 0.0
H76 H 0.44015 0.67324 0.66364 0.0
H77 H 0.40458 0.6913 0.61403 0.0
H78 H 0.33901 0.5828 0.56434 0.0
H79 H 0.37501 0.56537 0.61269 0.0
Sm80 Sm 0.88407 0.36893 1.04403 0.0
Sm81 Sm 0.86126 0.41785 1.02395 0.0
C82 C 0.90168 0.32223 1.0753 0.0
C83 C 0.92168 0.31732 1.11486 0.0
C84 C 0.92014 0.32758 0.16347 0.0
C85 C 0.93669 0.31986 0.20142 0.0
C86 C 0.95538 0.30218 0.19128 0.0
C87 C 0.95815 0.29321 1.14238 0.0
C88 C 0.94113 0.30052 1.10438 0.0
C89 C 0.81773 0.3353 0.99618 0.0
C90 C 0.86652 0.40792 0.14783 0.0
C91 C 0.81905 0.4376 0.98354 0.0
C92 C 0.79225 0.41615 0.94616 0.0
C93 C 0.76205 0.419 0.9377 0.0
C94 C 0.73517 0.39496 0.90566 0.0
C95 C 0.7379 0.36731 0.88315 0.0
C96 C 0.76805 0.36454 0.89266 0.0
C97 C 0.79487 0.38872 0.92344 0.0
C98 C 0.92467 0.45007 1.07001 0.0
C99 C 0.91671 0.40973 0.93491 0.0
O100 O 0.91987 0.34608 1.04187 0.0
O101 O 0.87279 0.32197 1.08838 0.0
O102 O 0.82705 0.35707 1.03205 0.0
O103 O 0.84517 0.33394 0.98178 0.0
O104 O 0.8782 0.38654 1.12979 0.0
O105 O 0.85583 0.42264 1.11324 0.0
O106 O 0.81267 0.42196 1.02642 0.0
O107 O 0.85225 0.45108 0.97 0.0
O108 O 0.91519 0.4276 1.0357 0.0
O109 O 0.90252 0.46156 1.07524 0.0
O110 O 0.89319 0.42062 0.94571 0.0
O111 O 0.92039 0.39044 0.97034 0.0
H112 H 0.90569 0.34103 0.17226 0.0
H113 H 0.93495 0.32776 0.2388 0.0
H114 H 0.97274 0.27986 1.13384 0.0
H115 H 0.94265 0.29257 1.06694 0.0
H116 H 0.75923 0.43957 0.95587 0.0
H117 H 0.71247 0.398 0.89826 0.0
H118 H 0.77166 0.34436 0.87478 0.0
H119 H 0.81774 0.38578 0.92985 0.0
Sm120 Sm 0.50546 0.90067 0.37946 0.0
Sm121 Sm 0.43467 0.88289 0.36695 0.0
C122 C 0.57057 0.91565 0.40466 0.0
C123 C 0.58981 0.91975 0.45082 0.0
C124 C 0.57102 0.90408 0.49426 0.0
C125 C 0.58905 0.90944 0.53872 0.0
C126 C 0.62633 0.93059 0.54069 0.0
C127 C 0.6452 0.94528 0.49666 0.0
C128 C 0.627 0.93987 0.45197 0.0
C129 C 0.46651 0.83544 0.33007 0.0
C130 C 0.45137 0.87382 0.48576 0.0
C131 C 0.36921 0.84914 0.33081 0.0
C132 C 0.34307 0.81156 0.32221 0.0
C133 C 0.34751 0.78473 0.34353 0.0
C134 C 0.32835 0.74991 0.3254 0.0
C135 C 0.30526 0.74172 0.28474 0.0
C136 C 0.29814 0.7681 0.26771 0.0
C137 C 0.31696 0.80266 0.28623 0.0
C138 C 0.46848 0.93991 0.42562 0.0
C139 C 0.4938 0.94334 0.28022 0.0
O140 O 0.5624 0.93995 0.39521 0.0
O141 O 0.54446 0.88371 0.39536 0.0
O142 O 0.45679 0.84476 0.36883 0.0
O143 O 0.4948 0.86287 0.31291 0.0
O144 O 0.48432 0.88771 0.46612 0.0
O145 O 0.42522 0.86535 0.45299 0.0
O146 O 0.37644 0.85944 0.3767 0.0
O147 O 0.39762 0.86174 0.30332 0.0
O148 O 0.48223 0.93494 0.38773 0.0
O149 O 0.43412 0.92 0.42498 0.0
O150 O 0.45993 0.92432 0.29641 0.0
O151 O 0.51744 0.93928 0.30729 0.0
H152 H 0.54231 0.88834 0.49407 0.0
H153 H 0.57351 0.89844 0.57197 0.0
H154 H 0.67389 0.96168 0.49701 0.0
H155 H 0.64187 0.95197 0.41855 0.0
H156 H 0.36757 0.79119 0.37165 0.0
H157 H 0.33391 0.73024 0.34046 0.0
H158 H 0.28089 0.76344 0.23639 0.0
H159 H 0.31321 0.82308 0.26946 0.0
Sm160 Sm 0.61651 0.51389 0.71575 0.0
Sm161 Sm 0.55759 0.44528 0.70109 0.0
C162 C 0.67126 0.57673 0.74113 0.0
C163 C 0.68409 0.59861 0.78579 0.0
C164 C 0.67777 0.58264 0.83243 0.0
C165 C 0.68823 0.60352 0.8749 0.0
C166 C 0.70488 0.6407 0.87148 0.0
C167 C 0.71211 0.65671 0.82465 0.0
C168 C 0.70186 0.63573 0.78201 0.0
C169 C 0.63762 0.47037 0.6683 0.0
C170 C 0.5815 0.45939 0.82148 0.0
C171 C 0.52022 0.37923 0.66757 0.0
C172 C 0.52986 0.35164 0.66235 0.0
C173 C 0.56577 0.36151 0.66233 0.0
C174 C 0.57599 0.33752 0.64705 0.0
C175 C 0.55041 0.30284 0.63167 0.0
C176 C 0.5142 0.29173 0.63897 0.0
C177 C 0.50401 0.31617 0.6533 0.0
C178 C 0.54041 0.486 0.75569 0.0
C179 C 0.56547 0.50703 0.61311 0.0
O180 O 0.64219 0.57284 0.72159 0.0
O181 O 0.6719 0.5472 0.74193 0.0
O182 O 0.61691 0.46197 0.70532 0.0
O183 O 0.64266 0.50027 0.65122 0.0
O184 O 0.60362 0.49256 0.80356 0.0
O185 O 0.56331 0.43467 0.78693 0.0
O186 O 0.51748 0.38808 0.71265 0.0
O187 O 0.53785 0.40685 0.63895 0.0
O188 O 0.55989 0.49643 0.71819 0.0
O189 O 0.52242 0.45153 0.75764 0.0
O190 O 0.54751 0.4729 0.62829 0.0
O191 O 0.59402 0.52879 0.64117 0.0
H192 H 0.66391 0.55399 0.83614 0.0
H193 H 0.68151 0.59039 0.91049 0.0
H194 H 0.7247 0.6853 0.82113 0.0
H195 H 0.70694 0.64841 0.74617 0.0
H196 H 0.58613 0.38866 0.67048 0.0
H197 H 0.60416 0.34779 0.64276 0.0
H198 H 0.49355 0.26493 0.62999 0.0
H199 H 0.47605 0.30784 0.65462 0.0
Sm200 Sm 0.08216 0.58258 1.05296 0.0
Sm201 Sm 0.1239 0.55907 1.02942 0.0
C202 C 0.04405 0.61035 1.08438 0.0
C203 C 0.02294 0.61377 1.12346 0.0
C204 C 0.03134 0.61369 0.17338 0.0
C205 C 0.01369 0.62172 0.20946 0.0
C206 C -0.01255 0.62986 0.19603 0.0
C207 C 0.97812 0.6284 0.14613 0.0
C208 C -0.00412 0.6205 1.11007 0.0
C209 C 0.14683 0.63682 1.01185 0.0
C210 C 0.11427 0.56057 0.15495 0.0
C211 C 0.18493 0.56774 0.99627 0.0
C212 C 0.21191 0.59556 0.96451 0.0
C213 C 0.24632 0.60089 0.96055 0.0
C214 C 0.27091 0.62672 0.92813 0.0
C215 C 0.26147 0.64795 0.90034 0.0
C216 C 0.22753 0.64358 0.90679 0.0
C217 C 0.20295 0.61739 0.93792 0.0
C218 C 0.07436 0.49869 1.07038 0.0
C219 C 0.06056 0.55126 0.93953 0.0
O220 O 0.03025 0.58037 1.06012 0.0
O221 O 0.07815 0.62488 1.09203 0.0
O222 O 0.14256 0.61637 1.04711 0.0
O223 O 0.11605 0.62554 0.99174 0.0
O224 O 0.09288 0.57215 1.13823 0.0
O225 O 0.13175 0.55432 1.11905 0.0
O226 O 0.18145 0.57873 1.03961 0.0
O227 O 0.15428 0.54669 0.97511 0.0
O228 O 0.07149 0.52652 1.07046 0.0
O229 O 0.10023 0.50087 1.04449 0.0
O230 O 0.09196 0.55271 0.94862 0.0
O231 O 0.04758 0.55829 0.97925 0.0
H232 H 0.05206 0.60834 0.18432 0.0
H233 H 0.02076 0.62185 0.24786 0.0
H234 H 0.95797 0.63449 1.1349 0.0
H235 H -0.01076 0.62074 1.07153 0.0
H236 H 0.25375 0.58438 0.98119 0.0
H237 H 0.29669 0.62918 0.92327 0.0
H238 H 0.21888 0.65861 0.88491 0.0
H239 H 0.17638 0.61331 0.93987 0.0
Sm240 Sm 0.88488 0.5178 0.57188 0.0
Sm241 Sm 0.88463 0.46025 0.57184 0.0
C242 C 0.88699 0.57889 0.5541 0.0
C243 C 0.87521 0.59135 0.51211 0.0
C244 C 0.85496 0.56727 0.47478 0.0
C245 C 0.85325 0.57971 0.42812 0.0
C246 C 0.87192 0.61644 0.41832 0.0
C247 C 0.8871 0.6403 0.45821 0.0
C248 C 0.88929 0.62779 0.50479 0.0
C249 C 0.8191 0.4688 0.60925 0.0
C250 C 0.8725 0.47023 0.45639 0.0
C251 C 0.86376 0.39427 0.59813 0.0
C252 C 0.82706 0.36431 0.60105 0.0
C253 C 0.80034 0.36546 0.57352 0.0
C254 C 0.7653 0.348 0.59058 0.0
C255 C 0.75677 0.32998 0.63607 0.0
C256 C 0.78252 0.32413 0.65876 0.0
C257 C 0.81744 0.34131 0.64142 0.0
C258 C 0.9468 0.51625 0.5323 0.0
C259 C 0.93114 0.50962 0.67189 0.0
O260 O 0.91307 0.57345 0.54449 0.0
O261 O 0.86209 0.55312 0.57951 0.0
O262 O 0.8335 0.46472 0.57061 0.0
O263 O 0.84307 0.49566 0.63411 0.0
O264 O 0.87689 0.49998 0.48032 0.0
O265 O 0.87271 0.44668 0.48675 0.0
O266 O 0.87632 0.40657 0.5542 0.0
O267 O 0.87037 0.41952 0.62979 0.0
O268 O 0.93345 0.51624 0.57299 0.0
O269 O 0.92811 0.48478 0.51306 0.0
O270 O 0.92205 0.47996 0.64621 0.0
O271 O 0.91872 0.52947 0.65099 0.0
H272 H 0.84346 0.53893 0.4802 0.0
H273 H 0.84115 0.5604 0.39863 0.0
H274 H 0.90088 0.66874 0.45208 0.0
H275 H 0.90459 0.64666 0.53363 0.0
H276 H 0.80715 0.38311 0.54212 0.0
H277 H 0.746 0.35225 0.57133 0.0
H278 H 0.77732 0.31037 0.69372 0.0
H279 H 0.83765 0.34015 0.66326 0.0
Sm280 Sm 0.36659 0.89475 0.89214 0.0
Sm281 Sm 0.3989 0.85611 0.92471 0.0
C282 C 0.33916 0.93562 0.87306 0.0
C283 C 0.31574 0.93717 0.83571 0.0
C284 C 0.30992 0.919 0.79089 0.0
C285 C 0.29 0.92285 0.75376 0.0
C286 C 0.27524 0.94474 0.76093 0.0
C287 C 0.27958 0.96133 0.80711 0.0
C288 C 0.2998 0.95762 0.84419 0.0
C289 C 0.31635 0.8229 0.91069 0.0
C290 C 0.39489 0.86869 0.79424 0.0
C291 C 0.40372 0.79863 0.94039 0.0
C292 C 0.3901 0.76863 0.97562 0.0
C293 C 0.35588 0.7386 0.97053 0.0
C294 C 0.34206 0.71243 1.00722 0.0
C295 C 0.36206 0.7159 1.04993 0.0
C296 C 0.39735 0.74455 1.05253 0.0
C297 C 0.41119 0.77036 1.01576 0.0
C298 C 0.44958 0.92168 0.90051 0.0
C299 C 0.39955 0.91614 1.01083 0.0
O300 O 0.37037 0.94257 0.8576 0.0
O301 O 0.32446 0.90846 0.90284 0.0
O302 O 0.34221 0.84314 0.93887 0.0
O303 O 0.31812 0.84024 0.87087 0.0
O304 O 0.37835 0.8859 0.80863 0.0
O305 O 0.40487 0.85467 0.8318 0.0
O306 O 0.38064 0.79932 0.91026 0.0
O307 O 0.42676 0.8302 0.95742 0.0
O308 O 0.4209 0.90276 0.87755 0.0
O309 O 0.45406 0.90403 0.93579 0.0
O310 O 0.40276 0.88683 1.00522 0.0
O311 O 0.38894 0.92533 0.96992 0.0
H312 H 0.32186 0.90285 0.78395 0.0
H313 H 0.28794 0.9102 0.7185 0.0
H314 H 0.2683 0.97804 0.81405 0.0
H315 H 0.30377 0.97147 0.87898 0.0
H316 H 0.33922 0.73592 0.93921 0.0
H317 H 0.31512 0.69045 1.00316 0.0
H318 H 0.41378 0.74884 1.08471 0.0
H319 H 0.43795 0.79268 1.02012 0.0
Sm320 Sm 0.48488 0.39913 0.23376 0.0
Sm321 Sm 0.55047 0.41868 0.26468 0.0
C322 C 0.42165 0.37998 0.19577 0.0
C323 C 0.39594 0.35237 0.16232 0.0
C324 C 0.40715 0.34373 1.1187 0.0
C325 C 0.38225 0.32006 1.08498 0.0
C326 C 0.34555 0.30423 1.09434 0.0
C327 C 0.33457 0.31104 1.13985 0.0
C328 C 0.3596 0.33507 0.17344 0.0
C329 C 0.48982 0.34053 0.27042 0.0
C330 C 0.54075 0.41702 1.13677 0.0
C331 C 0.60281 0.41375 0.30708 0.0
C332 C 0.60562 0.38472 0.33029 0.0
C333 C 0.58856 0.35041 0.3096 0.0
C334 C 0.58622 0.3218 0.33604 0.0
C335 C 0.60049 0.32695 0.38395 0.0
C336 C 0.6205 0.36198 0.40234 0.0
C337 C 0.62296 0.39053 0.37575 0.0
C338 C 0.55811 0.47719 0.22343 0.0
C339 C 0.49571 0.43267 0.34759 0.0
O340 O 0.45152 0.40444 0.17646 0.0
O341 O 0.42592 0.36911 0.23861 0.0
O342 O 0.50986 0.36343 0.23935 0.0
O343 O 0.46777 0.34979 0.28628 0.0
O344 O 0.50694 0.40386 0.15014 0.0
O345 O 0.56336 0.42382 0.17489 0.0
O346 O 0.59682 0.41097 0.25973 0.0
O347 O 0.58385 0.42451 0.33059 0.0
O348 O 0.53051 0.45583 0.24825 0.0
O349 O 0.58412 0.47124 0.22713 0.0
O350 O 0.52411 0.4279 0.34292 0.0
O351 O 0.47792 0.4273 0.30549 0.0
H352 H 0.43512 0.35634 1.10965 0.0
H353 H 0.39193 0.31612 1.05014 0.0
H354 H 0.30662 0.29898 0.14861 0.0
H355 H 0.35052 0.34102 0.2074 0.0
H356 H 0.57541 0.3454 0.27415 0.0
H357 H 0.57103 0.2953 0.32059 0.0
H358 H 0.63154 0.36714 0.43931 0.0
H359 H 0.63651 0.41683 0.39217 0.0
Sm360 Sm 0.09651 0.44668 0.57293 0.0
Sm361 Sm 0.09795 0.5059 0.57631 0.0
C362 C 0.09359 0.3856 0.55193 0.0
C363 C 0.09269 0.36745 0.5059 0.0
C364 C 0.10776 0.38716 0.46278 0.0
C365 C 0.10067 0.37009 0.41716 0.0
C366 C 0.07822 0.33302 0.41391 0.0
C367 C 0.06599 0.31311 0.45772 0.0
C368 C 0.07306 0.33028 0.50346 0.0
C369 C 0.15904 0.49327 0.62071 0.0
C370 C 0.11093 0.49642 0.46039 0.0
C371 C 0.11784 0.57143 0.60477 0.0
C372 C 0.15381 0.60226 0.61039 0.0
C373 C 0.18266 0.60229 0.58732 0.0
C374 C 0.21722 0.62429 0.60497 0.0
C375 C 0.22331 0.64598 0.64666 0.0
C376 C 0.19472 0.64894 0.66536 0.0
C377 C 0.16028 0.62716 0.64745 0.0
C378 C 0.03665 0.45216 0.53109 0.0
C379 C 0.04974 0.45366 0.67267 0.0
O380 O 0.06562 0.38817 0.56048 0.0
O381 O 0.12295 0.41512 0.56117 0.0
O382 O 0.14795 0.49985 0.58062 0.0
O383 O 0.13361 0.46463 0.64036 0.0
O384 O 0.1042 0.46547 0.48258 0.0
O385 O 0.11275 0.52047 0.49192 0.0
O386 O 0.10715 0.55999 0.5599 0.0
O387 O 0.11077 0.54569 0.63557 0.0
O388 O 0.04901 0.45017 0.57168 0.0
O389 O 0.05576 0.48461 0.51543 0.0
O390 O 0.05915 0.48393 0.64858 0.0
O391 O 0.06222 0.43404 0.65123 0.0
H392 H 0.12313 0.41592 0.46391 0.0
H393 H 0.11016 0.38632 0.38423 0.0
H394 H 0.04888 0.28449 0.45632 0.0
H395 H 0.0614 0.3147 0.53651 0.0
H396 H 0.17818 0.58307 0.55868 0.0
H397 H 0.23858 0.62176 0.58902 0.0
H398 H 0.19794 0.665 0.69763 0.0
H399 H 0.13835 0.62733 0.6659 0.0
Sm400 Sm 0.56997 0.09143 0.89459 0.0
Sm401 Sm 0.55946 0.13793 0.92469 0.0
C402 C 0.58545 0.04096 0.8774 0.0
C403 C 0.61145 0.03823 0.84645 0.0
C404 C 0.62408 0.05844 0.80326 0.0
C405 C 0.64581 0.05307 0.77111 0.0
C406 C 0.6557 0.02765 0.78184 0.0
C407 C 0.64541 0.00971 0.82741 0.0
C408 C 0.62321 0.01481 0.85933 0.0
C409 C 0.63482 0.15664 0.90969 0.0
C410 C 0.55117 0.11916 0.79507 0.0
C411 C 0.57529 0.20521 0.93059 0.0
C412 C 0.59816 0.24026 0.95358 0.0
C413 C 0.63485 0.26073 0.94434 0.0
C414 C 0.6559 0.29251 0.97025 0.0
C415 C 0.64068 0.30407 1.00642 0.0
C416 C 0.60325 0.28518 1.01088 0.0
C417 C 0.58245 0.25384 0.98485 0.0
C418 C 0.49281 0.09212 0.91099 0.0
C419 C 0.54448 0.07337 1.01175 0.0
O420 O 0.56047 0.04319 0.85404 0.0
O421 O 0.59848 0.06297 0.91445 0.0
O422 O 0.61044 0.14015 0.94066 0.0
O423 O 0.62375 0.14069 0.86744 0.0
O424 O 0.56094 0.09664 0.80982 0.0
O425 O 0.54907 0.13868 0.83264 0.0
O426 O 0.58964 0.19379 0.89863 0.0
O427 O 0.55161 0.17989 0.95858 0.0
O428 O 0.51671 0.09134 0.88406 0.0
O429 O 0.50379 0.11286 0.94935 0.0
O430 O 0.55369 0.10803 1.0072 0.0
O431 O 0.54336 0.059 0.96824 0.0
H432 H 0.61581 0.0772 0.79322 0.0
H433 H 0.65265 0.06713 0.73627 0.0
H434 H 0.65305 0.99046 0.83731 0.0
H435 H 0.61425 -0.00041 0.8932 0.0
H436 H 0.64749 0.25163 0.91854 0.0
H437 H 0.68429 0.30672 0.96401 0.0
H438 H 0.58963 0.29243 1.03763 0.0
H439 H 0.55401 0.23923 0.99112 0.0
Sm440 Sm 0.50399 0.61865 0.2494 0.0
Sm441 Sm 0.43172 0.57142 0.26482 0.0
C442 C 0.57033 0.66569 0.22419 0.0
C443 C 0.59319 0.67541 0.18074 0.0
C444 C 0.57841 0.66816 1.13322 0.0
C445 C 0.60035 0.67792 1.09198 0.0
C446 C 0.63741 0.69485 1.09763 0.0
C447 C 0.65217 0.70219 0.14532 0.0
C448 C 0.63012 0.69263 0.18668 0.0
C449 C 0.4705 0.65198 0.2952 0.0
C450 C 0.45218 0.58739 1.14268 0.0
C451 C 0.36647 0.54813 0.29773 0.0
C452 C 0.34727 0.56723 0.30602 0.0
C453 C 0.35811 0.59977 0.28228 0.0
C454 C 0.34685 0.62261 0.29984 0.0
C455 C 0.32559 0.61376 0.3425 0.0
C456 C 0.31111 0.57893 0.36156 0.0
C457 C 0.32206 0.55605 0.3436 0.0
C458 C 0.45913 0.53742 0.21722 0.0
C459 C 0.49183 0.57235 0.3547 0.0
O460 O 0.56147 0.63535 0.24493 0.0
O461 O 0.54389 0.67149 0.22106 0.0
O462 O 0.45919 0.63199 0.25739 0.0
O463 O 0.49716 0.65047 0.31329 0.0
O464 O 0.48498 0.60564 0.16263 0.0
O465 O 0.42539 0.57395 0.17541 0.0
O466 O 0.37351 0.54495 0.25195 0.0
O467 O 0.39363 0.55742 0.32692 0.0
O468 O 0.47438 0.55941 0.25186 0.0
O469 O 0.42554 0.52664 0.21457 0.0
O470 O 0.45759 0.56155 0.34192 0.0
O471 O 0.51614 0.59439 0.32233 0.0
H472 H 0.54992 0.65475 1.12798 0.0
H473 H 0.58821 0.6711 1.05567 0.0
H474 H 0.68065 0.71498 0.15054 0.0
H475 H 0.64185 0.69845 0.22327 0.0
H476 H 0.37745 0.60878 0.2527 0.0
H477 H 0.35768 0.64856 0.28305 0.0
H478 H 0.29455 0.57041 0.39415 0.0
H479 H 0.31323 0.53091 0.36208 0.0
H480 H 0.49566 0.19586 0.28812 0.0
H481 H 0.43827 0.18703 0.42192 0.0
H482 H 0.44044 0.24263 0.40333 0.0
H483 H 0.45822 0.29493 0.34945 0.0
H484 H 0.51849 0.30679 0.21784 0.0
H485 H 0.51573 0.25025 0.23506 0.0
C486 C 0.48377 0.2061 0.31334 0.0
C487 C 0.46666 0.18636 0.35664 0.0
C488 C 0.48555 0.23923 0.30271 0.0
C489 C 0.45153 0.20083 0.38835 0.0
C490 C 0.4527 0.23297 0.37769 0.0
C491 C 0.47079 0.28523 0.32439 0.0
C492 C 0.48848 0.30567 0.28208 0.0
C493 C 0.46955 0.25254 0.335 0.0
C494 C 0.50468 0.29216 0.25065 0.0
C495 C 0.50307 0.25953 0.26055 0.0
H496 H 0.31693 0.51778 0.63065 0.0
H497 H 0.28254 0.48243 0.77985 0.0
H498 H 0.22708 0.48092 0.76415 0.0
H499 H 0.18566 0.48557 0.70764 0.0
H500 H 0.2184 0.52309 0.55923 0.0
H501 H 0.27655 0.5287 0.57527 0.0
C502 C 0.29764 0.51037 0.65997 0.0
C503 C 0.30458 0.50006 0.70663 0.0
C504 C 0.26504 0.50995 0.65086 0.0
C505 C 0.27851 0.49026 0.74357 0.0
C506 C 0.24646 0.48941 0.73467 0.0
C507 C 0.20568 0.49562 0.67889 0.0
C508 C 0.19715 0.50379 0.63215 0.0
C509 C 0.2391 0.49865 0.68841 0.0
C510 C 0.22385 0.51676 0.59567 0.0
C511 C 0.25721 0.51968 0.60481 0.0
H512 H 0.79215 0.29307 0.91312 0.0
H513 H 0.75858 0.30776 1.05627 0.0
H514 H 0.69999 0.25462 1.04329 0.0
H515 H 0.65814 0.20169 0.99211 0.0
H516 H 0.69161 0.18922 0.84744 0.0
H517 H 0.74932 0.24301 0.85998 0.0
C518 C 0.77194 0.28489 0.9414 0.0
C519 C 0.78028 0.30492 0.9858 0.0
C520 C 0.73791 0.25411 0.93346 0.0
C521 C 0.75332 0.29349 1.02163 0.0
C522 C 0.71967 0.26272 1.01429 0.0
C523 C 0.67808 0.21062 0.96334 0.0
C524 C 0.67016 0.19053 0.91891 0.0
C525 C 0.71163 0.24242 0.97056 0.0
C526 C 0.69654 0.20345 0.88207 0.0
C527 C 0.72979 0.23446 0.88925 0.0
H528 H 0.45249 0.69356 0.23609 0.0
H529 H 0.47374 0.67871 0.38687 0.0
H530 H 0.47028 0.73064 0.41236 0.0
H531 H 0.46649 0.78431 0.39158 0.0
H532 H 0.45098 0.80276 0.23991 0.0
H533 H 0.4465 0.74642 0.21568 0.0
C534 C 0.45574 0.70128 0.27466 0.0
C535 C 0.46319 0.68151 0.30945 0.0
C536 C 0.45496 0.73252 0.28914 0.0
C537 C 0.46791 0.69288 0.35908 0.0
C538 C 0.46606 0.72291 0.37379 0.0
C539 C 0.46139 0.77569 0.35336 0.0
C540 C 0.4585 0.79801 0.31785 0.0
C541 C 0.46032 0.74353 0.33917 0.0
C542 C 0.45291 0.78635 0.26832 0.0
C543 C 0.45055 0.75399 0.25432 0.0
H544 H 0.67 0.46221 0.5849 0.0
H545 H 0.67447 0.4621 0.74388 0.0
H546 H 0.7293 0.45979 0.74022 0.0
H547 H 0.77939 0.4628 0.6919 0.0
H548 H 0.7726 0.45758 0.53309 0.0
H549 H 0.71578 0.45622 0.53663 0.0
C550 C 0.68253 0.46091 0.61879 0.0
C551 C 0.66757 0.4623 0.66476 0.0
C552 C 0.7141 0.45872 0.61642 0.0
C553 C 0.68469 0.46072 0.70801 0.0
C554 C 0.71644 0.45968 0.70591 0.0
C555 C 0.76516 0.46058 0.65801 0.0
C556 C 0.7808 0.46026 0.61217 0.0
C557 C 0.73186 0.45931 0.66037 0.0
C558 C 0.76153 0.45747 0.56892 0.0
C559 C 0.72896 0.45703 0.57096 0.0
H560 H 0.30238 0.77666 0.99171 0.0
H561 H 0.25459 0.7885 0.85901 0.0
H562 H 0.19946 0.73385 0.87734 0.0
H563 H 0.16273 0.6823 0.9318 0.0
H564 H 0.21021 0.66776 1.06249 0.0
H565 H 0.2661 0.72263 1.04446 0.0
C566 C 0.27994 0.76737 0.96681 0.0
C567 C 0.28322 0.78774 0.92406 0.0
C568 C 0.24754 0.73491 0.97737 0.0
C569 C 0.25347 0.77424 0.89231 0.0
C570 C 0.22154 0.74266 0.9028 0.0
C571 C 0.18523 0.69108 0.95649 0.0
C572 C 0.1815 0.67059 0.99905 0.0
C573 C 0.21793 0.72277 0.9454 0.0
C574 C 0.21164 0.68268 1.02976 0.0
C575 C 0.24392 0.71427 1.01935 0.0
H576 H 0.62683 0.34703 1.06714 0.0
H577 H 0.70741 0.32006 1.04069 0.0
H578 H 0.71419 0.31533 1.12861 0.0
H579 H 0.67864 0.29241 0.20427 0.0
H580 H 0.58775 0.30494 0.22535 0.0
H581 H 0.60214 0.34018 0.15005 0.0
C582 C 0.64636 0.34072 1.08075 0.0
C583 C 0.66266 0.32853 1.04743 0.0
C584 C 0.64669 0.33358 1.13117 0.0
C585 C 0.69149 0.32576 1.06525 0.0
C586 C 0.69514 0.32258 1.11594 0.0
C587 C 0.66302 0.30432 0.19362 0.0
C588 C 0.63172 0.29546 0.21945 0.0
C589 C 0.66976 0.32196 0.14824 0.0
C590 C 0.61171 0.31111 0.20551 0.0
C591 C 0.61984 0.33107 0.16224 0.0
H592 H 0.27608 0.61028 0.40929 0.0
H593 H 0.37972 0.68404 0.3511 0.0
H594 H 0.39999 0.7091 0.43234 0.0
H595 H 0.39648 0.69042 0.51862 0.0
H596 H 0.29647 0.60843 0.57695 0.0
H597 H 0.2671 0.60568 0.49892 0.0
C598 C 0.30283 0.6326 0.41422 0.0
C599 C 0.32741 0.6423 0.37529 0.0
C600 C 0.31564 0.64413 0.46225 0.0
C601 C 0.3606 0.67379 0.38086 0.0
C602 C 0.37265 0.68795 0.4279 0.0
C603 C 0.36792 0.67336 0.51509 0.0
C604 C 0.34885 0.64862 0.55236 0.0
C605 C 0.3518 0.67024 0.4691 0.0
C606 C 0.31178 0.62697 0.5479 0.0
C607 C 0.29504 0.62526 0.50315 0.0
H608 H 0.71608 0.38887 0.8039 0.0
H609 H 0.70614 0.29517 0.87229 0.0
H610 H 0.69734 0.26687 0.79169 0.0
H611 H 0.7152 0.27907 0.7044 0.0
H612 H 0.73172 0.37641 0.63864 0.0
H613 H 0.71245 0.39128 0.7139 0.0
C614 C 0.70988 0.36148 0.80141 0.0
C615 C 0.71345 0.34472 0.84343 0.0
C616 C 0.70679 0.34618 0.75469 0.0
C617 C 0.70457 0.30895 0.83998 0.0
C618 C 0.69996 0.29291 0.79376 0.0
C619 C 0.71334 0.30291 0.70594 0.0
C620 C 0.72732 0.32762 0.66698 0.0
C621 C 0.70467 0.31281 0.75087 0.0
C622 C 0.72252 0.35725 0.66839 0.0
C623 C 0.71195 0.36626 0.712 0.0
H624 H 0.29322 0.6888 1.08063 0.0
H625 H 0.39138 0.69463 1.1234 0.0
H626 H 0.37535 0.69177 0.21001 0.0
H627 H 0.34464 0.7097 0.26847 0.0
H628 H 0.24575 0.70244 0.22615 0.0
H629 H 0.25029 0.68186 1.14429 0.0
C630 C 0.31054 0.68773 1.10838 0.0
C631 C 0.3449 0.69504 1.0956 0.0
C632 C 0.30136 0.68654 0.15828 0.0
C633 C 0.36583 0.69161 1.1324 0.0
C634 C 0.35665 0.68987 0.1821 0.0
C635 C 0.32296 0.702 0.24261 0.0
C636 C 0.29648 0.71072 0.25199 0.0
C637 C 0.32616 0.69094 0.1952 0.0
C638 C 0.26784 0.69843 0.21861 0.0
C639 C 0.27043 0.68671 0.17161 0.0
H640 H 0.63691 0.31537 0.45754 0.0
H641 H 0.53315 0.2704 0.39094 0.0
H642 H 0.50537 0.2442 0.46899 0.0
H643 H 0.51133 0.25645 0.55691 0.0
H644 H 0.61444 0.30307 0.62646 0.0
H645 H 0.6414 0.30543 0.5468 0.0
C646 C 0.60827 0.2985 0.4597 0.0
C647 C 0.5871 0.2968 0.41929 0.0
C648 C 0.59225 0.28504 0.5057 0.0
C649 C 0.55019 0.27326 0.42173 0.0
C650 C 0.53412 0.25855 0.4668 0.0
C651 C 0.53947 0.26569 0.55585 0.0
C652 C 0.56136 0.28333 0.59688 0.0
C653 C 0.55489 0.2677 0.50971 0.0
C654 C 0.59727 0.29237 0.59448 0.0
C655 C 0.61283 0.29369 0.54881 0.0
H656 H 0.28764 0.62497 0.82846 0.0
H657 H 0.28013 0.71576 0.87293 0.0
H658 H 0.2798 0.73158 0.78656 0.0
H659 H 0.2594 0.70627 0.7035 0.0
H660 H 0.25925 0.61043 0.66294 0.0
H661 H 0.28688 0.61129 0.74076 0.0
C662 C 0.28806 0.64939 0.81932 0.0
C663 C 0.28219 0.66824 0.85663 0.0
C664 C 0.2855 0.65688 0.76962 0.0
C665 C 0.28358 0.70026 0.84448 0.0
C666 C 0.28289 0.70901 0.79502 0.0
C667 C 0.26656 0.68628 0.71103 0.0
C668 C 0.25519 0.65722 0.67855 0.0
C669 C 0.2802 0.68541 0.75769 0.0
C670 C 0.26654 0.63268 0.68753 0.0
C671 C 0.28202 0.6328 0.73269 0.0
H672 H 0.41414 0.91202 1.12125 0.0
H673 H 0.40367 0.98157 1.01881 0.0
H674 H 0.42296 0.02707 1.0822 0.0
H675 H 0.44333 0.05089 0.17038 0.0
H676 H 0.43811 0.97672 0.27911 0.0
H677 H 0.42355 0.93212 0.21386 0.0
C678 C 0.41599 0.93698 1.11169 0.0
C679 C 0.40911 0.94207 1.05999 0.0
C680 C 0.42441 0.9638 0.15195 0.0
C681 C 0.41047 0.97535 1.05435 0.0
C682 C 0.42135 0.00226 1.09211 0.0
C683 C 0.43952 0.02524 0.1808 0.0
C684 C 0.44428 0.01981 0.23296 0.0
C685 C 0.4289 -0.00243 1.14166 0.0
C686 C 0.43645 0.98424 0.24155 0.0
C687 C 0.42781 0.95786 0.20303 0.0
H688 H 0.50231 0.428 0.45943 0.0
H689 H 0.45625 0.46645 0.35311 0.0
H690 H 0.43279 0.48597 0.42009 0.0
H691 H 0.42427 0.49502 0.51216 0.0
H692 H 0.46634 0.45326 0.61932 0.0
H693 H 0.4903 0.43365 0.55234 0.0
C694 C 0.48739 0.44079 0.44984 0.0
C695 C 0.48272 0.44529 0.39703 0.0
C696 C 0.47229 0.45216 0.49092 0.0
C697 C 0.46182 0.46179 0.39044 0.0
C698 C 0.44779 0.47331 0.43006 0.0
C699 C 0.43876 0.48182 0.52195 0.0
C700 C 0.44325 0.47747 0.5747 0.0
C701 C 0.45268 0.46918 0.48114 0.0
C702 C 0.46181 0.45861 0.5818 0.0
C703 C 0.47596 0.44695 0.54221 0.0
H704 H -0.0135 0.45669 0.70656 0.0
H705 H 0.05762 0.4233 0.76042 0.0
H706 H 0.02661 0.40811 0.84015 0.0
H707 H 0.97823 0.40376 0.89984 0.0
H708 H 0.90706 0.43723 0.84553 0.0
H709 H 0.93694 0.45062 0.76537 0.0
C710 C -0.00395 0.44664 0.73549 0.0
C711 C 0.02661 0.44256 0.72402 0.0
C712 C 0.97699 0.43717 0.78367 0.0
C713 C 0.03547 0.42767 0.76462 0.0
C714 C 0.01724 0.41882 0.81171 0.0
C715 C 0.96897 0.41434 0.8711 0.0
C716 C 0.93872 0.419 0.8827 0.0
C717 C -0.01221 0.42341 0.82272 0.0
C718 C 0.92924 0.43288 0.84155 0.0
C719 C 0.94706 0.44103 0.79426 0.0
H720 H 0.49865 0.93883 0.17103 0.0
H721 H 0.51784 0.01705 0.28224 0.0
H722 H 0.53307 0.06192 0.2174 0.0
H723 H 0.54053 0.08176 1.12472 0.0
H724 H 0.52966 0.0042 1.01698 0.0
H725 H 0.51166 0.95965 1.08114 0.0
C726 C 0.5062 0.96559 0.18216 0.0
C727 C 0.50579 0.97232 0.23503 0.0
C728 C 0.5162 -0.00704 1.14298 0.0
C729 C 0.51691 0.00879 0.24427 0.0
C730 C 0.52581 0.03529 0.20596 0.0
C731 C 0.53429 0.05527 1.11422 0.0
C732 C 0.53545 0.04807 1.06131 0.0
C733 C 0.52544 0.02827 0.15427 0.0
C734 C 0.52772 0.01238 1.05394 0.0
C735 C 0.51771 0.98603 1.09208 0.0
H736 H 0.52244 0.54085 0.58831 0.0
H737 H 0.5841 0.50256 0.51511 0.0
H738 H 0.57001 0.51886 0.43506 0.0
H739 H 0.53898 0.54375 0.38048 0.0
H740 H 0.47264 0.57669 0.45297 0.0
H741 H 0.49009 0.56434 0.53344 0.0
C742 C 0.53337 0.53605 0.55531 0.0
C743 C 0.55548 0.51981 0.56153 0.0
C744 C 0.52417 0.54528 0.50661 0.0
C745 C 0.56765 0.51458 0.51514 0.0
C746 C 0.55933 0.52418 0.46791 0.0
C747 C 0.52786 0.54836 0.41344 0.0
C748 C 0.50342 0.56186 0.40687 0.0
C749 C 0.53732 0.53946 0.46214 0.0
C750 C 0.49073 0.56656 0.45316 0.0
C751 C 0.50117 0.55944 0.50064 0.0
H752 H -0.00605 0.54735 0.90544 0.0
H753 H 0.07866 0.5356 0.84515 0.0
H754 H 0.05022 0.52378 0.76348 0.0
H755 H -0.00018 0.51577 0.70379 0.0
H756 H 0.91545 0.52765 0.76478 0.0
H757 H 0.94422 0.53987 0.84611 0.0
C758 C 0.00678 0.54221 0.87498 0.0
C759 C 0.04019 0.54294 0.8856 0.0
C760 C -0.01053 0.53504 0.82542 0.0
C761 C 0.05403 0.5358 0.8421 0.0
C762 C 0.03724 0.52885 0.79382 0.0
C763 C -0.01301 0.52058 0.73453 0.0
C764 C 0.95337 0.51954 0.72435 0.0
C765 C 0.00465 0.52818 0.784 0.0
C766 C 0.94013 0.52754 0.76767 0.0
C767 C 0.95707 0.53464 0.81574 0.0
H768 H 0.54868 0.06563 0.48478 0.0
H769 H 0.43618 0.02401 0.47403 0.0
H770 H 0.42637 0.98196 0.53902 0.0
H771 H 0.43921 0.93674 0.51383 0.0
H772 H 0.54103 0.97259 0.44838 0.0
H773 H 0.56723 0.02313 0.50424 0.0
C774 C 0.52185 0.04683 0.49689 0.0
C775 C 0.49304 0.04476 0.47081 0.0
C776 C 0.51566 0.01619 0.52165 0.0
C777 C 0.45881 0.02405 0.49024 0.0
C778 C 0.45355 0.00012 0.52783 0.0
C779 C 0.46745 0.95609 0.51234 0.0
C780 C 0.4872 0.95452 0.47264 0.0
C781 C 0.47931 0.99004 0.53108 0.0
C782 C 0.52428 0.97523 0.47529 0.0
C783 C 0.53895 0.00445 0.5072 0.0
H784 H 0.51907 0.58441 0.8196 0.0
H785 H 0.43418 0.47545 0.82474 0.0
H786 H 0.4657 0.46318 0.88678 0.0
H787 H 0.51433 0.46292 0.846 0.0
H788 H 0.58905 0.55777 0.77035 0.0
H789 H 0.57868 0.5933 0.82936 0.0
C790 C 0.5078 0.55776 0.8346 0.0
C791 C 0.47593 0.53053 0.81445 0.0
C792 C 0.53047 0.54735 0.85545 0.0
C793 C 0.4593 0.49707 0.83731 0.0
C794 C 0.47806 0.49013 0.87273 0.0
C795 C 0.52855 0.49172 0.84332 0.0
C796 C 0.54839 0.50752 0.80071 0.0
C797 C 0.51493 0.51045 0.86761 0.0
C798 C 0.57081 0.54453 0.80027 0.0
C799 C 0.56447 0.5647 0.83435 0.0
H800 H 0.94036 0.3998 1.0855 0.0
H801 H 0.95329 0.49547 0.14998 0.0
H802 H 0.00556 0.50365 0.19476 0.0
H803 H 0.05723 0.50467 0.16447 0.0
H804 H 0.04866 0.42679 1.06009 0.0
H805 H -0.01204 0.38705 1.08699 0.0
C806 C 0.95409 0.42171 1.1105 0.0
C807 C 0.9459 0.4489 1.11083 0.0
C808 C -0.01386 0.42828 1.12974 0.0
C809 C 0.96125 0.47575 0.14641 0.0
C810 C -0.00922 0.47997 0.17229 0.0
C811 C 0.04272 0.47856 0.14905 0.0
C812 C 0.05531 0.4702 1.10646 0.0
C813 C 0.0064 0.46022 0.15651 0.0
C814 C 0.03817 0.43488 1.09045 0.0
C815 C 0.0032 0.41245 1.10555 0.0
H816 H -0.00531 0.44278 0.44408 0.0
H817 H 0.97605 0.40817 0.59184 0.0
H818 H 0.97593 0.46227 0.61923 0.0
H819 H -0.00355 0.52571 0.59915 0.0
H820 H -0.00744 0.55173 0.44903 0.0
H821 H -0.00115 0.50107 0.4209 0.0
C822 C -0.00986 0.44741 0.48202 0.0
C823 C -0.00185 0.43135 0.52069 0.0
C824 C -0.00846 0.47921 0.49501 0.0
C825 C 0.9799 0.42812 0.56486 0.0
C826 C 0.9812 0.45924 0.58101 0.0
C827 C -0.00279 0.5201 0.5602 0.0
C828 C -0.01481 0.53521 0.52555 0.0
C829 C -0.00866 0.48678 0.54646 0.0
C830 C -0.00542 0.53455 0.47604 0.0
C831 C -0.00373 0.50492 0.45988 0.0
H832 H 0.44816 0.9644 0.83088 0.0
H833 H 0.47703 0.96096 0.98241 0.0
H834 H 0.46963 0.01116 1.0026 0.0
H835 H 0.44877 0.05077 0.97965 0.0
H836 H 0.44805 0.07251 0.82628 0.0
H837 H 0.43802 0.01325 0.80482 0.0
C838 C 0.4533 0.97512 0.86816 0.0
C839 C 0.46204 0.9589 0.90572 0.0
C840 C 0.44784 0.00289 0.87999 0.0
C841 C 0.47025 0.97343 0.95323 0.0
C842 C 0.46402 0.00053 0.96548 0.0
C843 C 0.44561 0.04188 0.94147 0.0
C844 C 0.45525 0.06678 0.90412 0.0
C845 C 0.45066 0.01375 0.92994 0.0
C846 C 0.44518 0.05434 0.85555 0.0
C847 C 0.44133 0.0215 0.84317 0.0
H848 H 0.52666 0.583 0.19353 0.0
H849 H 0.43389 0.48802 1.14287 0.0
H850 H 0.47127 0.46848 1.10384 0.0
H851 H 0.51625 0.46151 1.1448 0.0
H852 H 0.60359 0.5487 0.21989 0.0
H853 H 0.5849 0.58897 0.18791 0.0
C854 C 0.51499 0.55877 0.17217 0.0
C855 C 0.47845 0.53478 0.1754 0.0
C856 C 0.53658 0.54626 0.15536 0.0
C857 C 0.46248 0.50527 1.14399 0.0
C858 C 0.48397 0.4944 1.12142 0.0
C859 C 0.53253 0.48953 0.15131 0.0
C860 C 0.55905 0.50206 0.18733 0.0
C861 C 0.51968 0.51119 1.13627 0.0
C862 C 0.58141 0.53859 0.19438 0.0
C863 C 0.57081 0.56149 0.17572 0.0
H864 H 0.28376 0.00947 0.7384 0.0
H865 H 0.23327 0.90106 0.68617 0.0
H866 H 0.22786 0.92037 0.60384 0.0
H867 H 0.25218 0.96906 0.54473 0.0
H868 H 0.30179 0.07755 0.59652 0.0
H869 H 0.29152 0.05674 0.68178 0.0
C870 C 0.27016 0.98975 0.70974 0.0
C871 C 0.26037 0.95405 0.71792 0.0
C872 C 0.26753 0.00108 0.66228 0.0
C873 C 0.2424 0.92894 0.68029 0.0
C874 C 0.23922 0.93994 0.63319 0.0
C875 C 0.25935 0.98832 0.57426 0.0
C876 C 0.27942 0.02499 0.56409 0.0
C877 C 0.25398 0.97623 0.62314 0.0
C878 C 0.28774 0.0492 0.60331 0.0
C879 C 0.28193 0.03732 0.65215 0.0
H880 H 0.28682 0.30853 1.07283 0.0
H881 H 0.34624 0.25995 1.02246 0.0
H882 H 0.32167 0.25381 0.93976 0.0
H883 H 0.29932 0.2796 0.87999 0.0
H884 H 0.23937 0.32768 0.93012 0.0
H885 H 0.24711 0.31515 1.01549 0.0
C886 C 0.29321 0.29501 1.04462 0.0
C887 C 0.3199 0.28652 1.05316 0.0
C888 C 0.27946 0.29213 0.99692 0.0
C889 C 0.32707 0.26834 1.01618 0.0
C890 C 0.313 0.26478 0.96884 0.0
C891 C 0.2863 0.28586 0.90906 0.0
C892 C 0.27067 0.30658 0.89878 0.0
C893 C 0.29157 0.27933 0.95809 0.0
C894 C 0.25319 0.31336 0.93723 0.0
C895 C 0.25768 0.30628 0.98614 0.0
H896 H 0.02429 0.31982 0.19853 0.0
H897 H 0.92419 0.26676 0.27549 0.0
H898 H 0.95393 0.26407 0.35039 0.0
H899 H 0.00878 0.28746 0.39705 0.0
H900 H 0.1098 0.34447 0.32269 0.0
H901 H 0.07934 0.33426 0.24321 0.0
C902 C 0.00903 0.3068 0.23139 0.0
C903 C 0.97236 0.29404 0.23217 0.0
C904 C 0.02649 0.3064 0.27471 0.0
C905 C 0.95261 0.27725 0.27467 0.0
C906 C 0.96957 0.27571 0.31736 0.0
C907 C 0.02426 0.2964 0.36335 0.0
C908 C 0.06148 0.31714 0.3658 0.0
C909 C 0.00663 0.29172 0.31838 0.0
C910 C 0.08106 0.32885 0.32171 0.0
C911 C 0.06366 0.32321 0.27637 0.0
H912 H 0.63955 0.95991 0.76238 0.0
H913 H 0.70431 0.0676 0.71004 0.0
H914 H 0.70777 0.04534 0.62878 0.0
H915 H 0.6784 -0.00368 0.56932 0.0
H916 H 0.6138 0.88886 0.62227 0.0
H917 H 0.62537 0.91021 0.70736 0.0
C918 C 0.65586 0.97871 0.73416 0.0
C919 C 0.67022 0.01541 0.74167 0.0
C920 C 0.65718 0.96576 0.68734 0.0
C921 C 0.69166 0.03914 0.70455 0.0
C922 C 0.69365 0.02645 0.65803 0.0
C923 C 0.66813 0.97734 0.59939 0.0
C924 C 0.64407 0.94123 0.58955 0.0
C925 C 0.67427 0.98988 0.64818 0.0
C926 C 0.63137 0.91699 0.62901 0.0
C927 C 0.63793 0.92917 0.67766 0.0
H928 H 0.68794 0.67714 1.08647 0.0
H929 H 0.63589 0.72501 1.01021 0.0
H930 H 0.66019 0.71947 0.93166 0.0
H931 H 0.68471 0.68917 0.88426 0.0
H932 H 0.73319 0.63754 0.96008 0.0
H933 H 0.72267 0.65722 1.03957 0.0
C934 C 0.68304 0.68755 1.0529 0.0
C935 C 0.65971 0.70082 1.0537 0.0
C936 C 0.69606 0.68313 1.00784 0.0
C937 C 0.65333 0.71409 1.01006 0.0
C938 C 0.66714 0.71087 0.96525 0.0
C939 C 0.69426 0.68347 0.91805 0.0
C940 C 0.70912 0.66149 0.91663 0.0
C941 C 0.68687 0.69364 0.96347 0.0
C942 C 0.72117 0.65402 0.9606 0.0
C943 C 0.71502 0.66511 1.00595 0.0
H944 H 0.91688 0.6058 0.20649 0.0
H945 H 0.01947 0.67698 0.27087 0.0
H946 H -0.00893 0.68677 0.34173 0.0
H947 H 0.93828 0.66595 0.3913 0.0
H948 H 0.83513 0.5923 0.3304 0.0
H949 H 0.8626 0.59378 0.25107 0.0
C950 C 0.93294 0.62411 0.2355 0.0
C951 C 0.97012 0.63993 0.23433 0.0
C952 C 0.91639 0.62913 0.27658 0.0
C953 C -0.00926 0.66374 0.27187 0.0
C954 C 0.97455 0.66952 0.31215 0.0
C955 C 0.92138 0.65139 0.36028 0.0
C956 C 0.88473 0.62831 0.36725 0.0
C957 C 0.93745 0.65109 0.31586 0.0
C958 C 0.86353 0.6097 0.32629 0.0
C959 C 0.87926 0.61028 0.28109 0.0
H960 H 0.5533 0.1239 0.54824 0.0
H961 H 0.4487 0.10887 0.56753 0.0
H962 H 0.45665 0.1116 0.65729 0.0
H963 H 0.49243 0.11665 0.73567 0.0
H964 H 0.59477 0.12626 0.71624 0.0
H965 H 0.58834 0.12725 0.62648 0.0
C966 C 0.53208 0.12167 0.57144 0.0
C967 C 0.50012 0.11689 0.54717 0.0
C968 C 0.53646 0.12223 0.62582 0.0
C969 C 0.47376 0.11307 0.58166 0.0
C970 C 0.47835 0.11456 0.63449 0.0
C971 C 0.51394 0.11962 0.71243 0.0
C972 C 0.54513 0.12246 0.73664 0.0
C973 C 0.50953 0.11905 0.65803 0.0
C974 C 0.57082 0.12474 0.70211 0.0
C975 C 0.567 0.12516 0.6493 0.0
H976 H 0.45985 0.58699 0.8952 0.0
H977 H 0.35946 0.49005 0.91153 0.0
H978 H 0.36303 0.49856 1.00123 0.0
H979 H 0.39455 0.53278 1.08028 0.0
H980 H 0.49739 0.62686 1.06485 0.0
H981 H 0.49259 0.62002 0.97482 0.0
C982 C 0.43817 0.56767 0.91771 0.0
C983 C 0.40843 0.53777 0.89254 0.0
C984 C 0.4409 0.57222 0.9722 0.0
C985 C 0.38241 0.51357 0.92628 0.0
C986 C 0.38455 0.51847 0.97908 0.0
C987 C 0.41613 0.55231 1.05786 0.0
C988 C 0.44651 0.58125 1.08334 0.0
C989 C 0.41362 0.54764 1.00346 0.0
C990 C 0.47344 0.60457 1.04986 0.0
C991 C 0.47066 0.60055 0.99685 0.0
H992 H 0.85981 0.46236 0.2072 0.0
H993 H 0.87696 0.3744 0.2292 0.0
H994 H 0.87958 0.38416 0.31852 0.0
H995 H 0.87728 0.41721 0.39558 0.0
H996 H 0.86324 0.50717 0.37532 0.0
H997 H 0.85947 0.49712 0.28541 0.0
C998 C 0.86398 0.44483 0.23088 0.0
C999 C 0.86762 0.41654 0.20705 0.0
C1000 C 0.86617 0.45117 0.2853 0.0
C1001 C 0.87359 0.39593 0.24243 0.0
C1002 C 0.87518 0.40171 0.29516 0.0
C1003 C 0.87329 0.43502 0.37223 0.0
C1004 C 0.87038 0.46346 0.39659 0.0
C1005 C 0.87152 0.42917 0.31799 0.0
C1006 C 0.8656 0.48514 0.36161 0.0
C1007 C 0.86338 0.47917 0.30859 0.0
H1008 H 0.39277 0.86694 0.54747 0.0
H1009 H 0.49494 0.8757 0.56428 0.0
H1010 H 0.48781 0.87316 0.65439 0.0
H1011 H 0.4529 0.86929 0.73382 0.0
H1012 H 0.35293 0.86534 0.71538 0.0
H1013 H 0.35916 0.86507 0.62578 0.0
C1014 C 0.41373 0.86801 0.57017 0.0
C1015 C 0.44465 0.87098 0.54506 0.0
C1016 C 0.40979 0.86738 0.62452 0.0
C1017 C 0.47066 0.87305 0.57895 0.0
C1018 C 0.4665 0.87163 0.63201 0.0
C1019 C 0.43193 0.86792 0.71085 0.0
C1020 C 0.4015 0.86659 0.7355 0.0
C1021 C 0.43617 0.86879 0.65628 0.0
C1022 C 0.3764 0.86595 0.70114 0.0
C1023 C 0.38006 0.86588 0.64834 0.0
H1024 H 0.619 0.48887 0.91923 0.0
H1025 H 0.51974 0.40445 0.86179 0.0
H1026 H 0.49855 0.38525 0.94568 0.0
H1027 H 0.50562 0.3905 1.03982 0.0
H1028 H 0.60656 0.47023 1.09869 0.0
H1029 H 0.62772 0.49127 1.01456 0.0
C1030 C 0.59264 0.4661 0.92416 0.0
C1031 C 0.57164 0.44899 0.87971 0.0
C1032 C 0.58007 0.45349 0.97541 0.0
C1033 C 0.53773 0.41922 0.89169 0.0
C1034 C 0.52509 0.40785 0.94121 0.0
C1035 C 0.53252 0.4124 1.03516 0.0
C1036 C 0.55378 0.42791 1.07969 0.0
C1037 C 0.54564 0.42441 0.98422 0.0
C1038 C 0.58855 0.45646 1.06837 0.0
C1039 C 0.60098 0.46897 1.01879 0.0
H1040 H 0.10446 0.54899 0.4017 0.0
H1041 H 0.12207 0.46149 0.37869 0.0
H1042 H 0.12653 0.47292 0.28915 0.0
H1043 H 0.12534 0.50803 0.21212 0.0
H1044 H 0.10293 0.59228 0.23689 0.0
H1045 H 0.10077 0.58189 0.3259 0.0
C1046 C 0.10941 0.53205 0.37779 0.0
C1047 C 0.11317 0.50392 0.40107 0.0
C1048 C 0.11133 0.53853 0.32387 0.0
C1049 C 0.11903 0.48325 0.36559 0.0
C1050 C 0.12167 0.49001 0.31287 0.0
C1051 C 0.12038 0.52476 0.23643 0.0
C1052 C 0.11521 0.55232 0.21369 0.0
C1053 C 0.11801 0.51772 0.29055 0.0
C1054 C 0.10773 0.57155 0.24956 0.0
C1055 C 0.10633 0.56537 0.30202 0.0
loop_
_geom_bond_atom_site_label_1
_geom_bond_atom_site_label_2
_geom_bond_distance
_geom_bond_site_symmetry_2
_ccdc_geom_bond_type
Sm0 C2 2.846 . S
Sm0 O20 2.543 . S
Sm0 O21 2.450 . S
Sm0 O22 2.681 . S
Sm0 O23 2.464 . S
Sm0 O24 2.396 . S
Sm0 O28 2.386 . S
Sm0 O31 2.408 . S
Sm1 C11 2.846 . S
Sm1 O22 2.386 . S
Sm1 O25 2.408 . S
Sm1 O26 2.543 . S
Sm1 O27 2.450 . S
Sm1 O28 2.681 . S
Sm1 O29 2.464 . S
Sm1 O30 2.396 . S
C2 Sm0 2.846 . S
C2 C3 1.506 . S
C2 O20 1.261 . S
C2 O21 1.242 . S
C3 C2 1.506 . S
C3 C4 1.358 . S
C3 C8 1.382 . S
C4 C3 1.358 . S
C4 C5 1.385 . S
C4 H32 0.930 . S
C5 C4 1.385 . S
C5 C6 1.395 . S
C5 H33 0.929 . S
C6 C5 1.395 . S
C6 C7 1.335 . S
C7 C6 1.335 . S
C7 C8 1.398 . S
C7 H34 0.930 . S
C8 C3 1.382 . S
C8 C7 1.398 . S
C8 H35 0.929 . S
C9 O22 1.271 . S
C9 O23 1.251 . S
C10 O24 1.252 . S
C10 O25 1.272 . S
C11 Sm1 2.846 . S
C11 C12 1.506 . S
C11 O26 1.261 . S
C11 O27 1.242 . S
C12 C11 1.506 . S
C12 C13 1.358 . S
C12 C17 1.382 . S
C13 C12 1.358 . S
C13 C14 1.385 . S
C13 H36 0.930 . S
C14 C13 1.385 . S
C14 C15 1.395 . S
C14 H37 0.929 . S
C15 C14 1.395 . S
C15 C16 1.335 . S
C16 C15 1.335 . S
C16 C17 1.398 . S
C16 H38 0.930 . S
C17 C12 1.382 . S
C17 C16 1.398 . S
C17 H39 0.929 . S
C18 O28 1.271 . S
C18 O29 1.251 . S
C19 O30 1.252 . S
C19 O31 1.272 . S
O20 Sm0 2.543 . S
O20 C2 1.261 . S
O21 Sm0 2.450 . S
O21 C2 1.242 . S
O22 Sm0 2.681 . S
O22 Sm1 2.386 . S
O22 C9 1.271 . S
O23 Sm0 2.464 . S
O23 C9 1.251 . S
O24 Sm0 2.396 . S
O24 C10 1.252 . S
O25 Sm1 2.408 . S
O25 C10 1.272 . S
O26 Sm1 2.543 . S
O26 C11 1.261 . S
O27 Sm1 2.450 . S
O27 C11 1.242 . S
O28 Sm0 2.386 . S
O28 Sm1 2.681 . S
O28 C18 1.271 . S
O29 Sm1 2.464 . S
O29 C18 1.251 . S
O30 Sm1 2.396 . S
O30 C19 1.252 . S
O31 Sm0 2.408 . S
O31 C19 1.272 . S
H32 C4 0.930 . S
H33 C5 0.929 . S
H34 C7 0.930 . S
H35 C8 0.929 . S
H36 C13 0.930 . S
H37 C14 0.929 . S
H38 C16 0.930 . S
H39 C17 0.929 . S
Sm40 C42 2.846 . S
Sm40 O60 2.543 . S
Sm40 O61 2.450 . S
Sm40 O62 2.681 . S
Sm40 O63 2.464 . S
Sm40 O64 2.396 . S
Sm40 O68 2.386 . S
Sm40 O71 2.408 . S
Sm41 C51 2.846 . S
Sm41 O62 2.386 . S
Sm41 O65 2.408 . S
Sm41 O66 2.543 . S
Sm41 O67 2.450 . S
Sm41 O68 2.681 . S
Sm41 O69 2.464 . S
Sm41 O70 2.396 . S
C42 Sm40 2.846 . S
C42 C43 1.506 . S
C42 O60 1.261 . S
C42 O61 1.242 . S
C43 C42 1.506 . S
C43 C44 1.358 . S
C43 C48 1.382 . S
C44 C43 1.358 . S
C44 C45 1.385 . S
C44 H72 0.930 . S
C45 C44 1.385 . S
C45 C46 1.395 . S
C45 H73 0.929 . S
C46 C45 1.395 . S
C46 C47 1.335 . S
C47 C46 1.335 . S
C47 C48 1.398 . S
C47 H74 0.930 . S
C48 C43 1.382 . S
C48 C47 1.398 . S
C48 H75 0.929 . S
C49 O62 1.271 . S
C49 O63 1.251 . S
C50 O64 1.252 . S
C50 O65 1.272 . S
C51 Sm41 2.846 . S
C51 C52 1.506 . S
C51 O66 1.261 . S
C51 O67 1.242 . S
C52 C51 1.506 . S
C52 C53 1.358 . S
C52 C57 1.382 . S
C53 C52 1.358 . S
C53 C54 1.385 . S
C53 H76 0.930 . S
C54 C53 1.385 . S
C54 C55 1.395 . S
C54 H77 0.929 . S
C55 C54 1.395 . S
C55 C56 1.335 . S
C56 C55 1.335 . S
C56 C57 1.398 . S
C56 H78 0.930 . S
C57 C52 1.382 . S
C57 C56 1.398 . S
C57 H79 0.929 . S
C58 O68 1.271 . S
C58 O69 1.251 . S
C59 O70 1.252 . S
C59 O71 1.272 . S
O60 Sm40 2.543 . S
O60 C42 1.261 . S
O61 Sm40 2.450 . S
O61 C42 1.242 . S
O62 Sm40 2.681 . S
O62 Sm41 2.386 . S
O62 C49 1.271 . S
O63 Sm40 2.464 . S
O63 C49 1.251 . S
O64 Sm40 2.396 . S
O64 C50 1.252 . S
O65 Sm41 2.408 . S
O65 C50 1.272 . S
O66 Sm41 2.543 . S
O66 C51 1.261 . S
O67 Sm41 2.450 . S
O67 C51 1.242 . S
O68 Sm40 2.386 . S
O68 Sm41 2.681 . S
O68 C58 1.271 . S
O69 Sm41 2.464 . S
O69 C58 1.251 . S
O70 Sm41 2.396 . S
O70 C59 1.252 . S
O71 Sm40 2.408 . S
O71 C59 1.272 . S
H72 C44 0.930 . S
H73 C45 0.929 . S
H74 C47 0.930 . S
H75 C48 0.929 . S
H76 C53 0.930 . S
H77 C54 0.929 . S
H78 C56 0.930 . S
H79 C57 0.929 . S
Sm80 C82 2.846 1_556 S
Sm80 O100 2.543 1_556 S
Sm80 O101 2.450 . S
Sm80 O102 2.681 . S
Sm80 O103 2.464 . S
Sm80 O104 2.396 . S
Sm80 O108 2.386 . S
Sm80 O111 2.408 . S
Sm81 C91 2.846 . S
Sm81 O102 2.386 . S
Sm81 O105 2.408 . S
Sm81 O106 2.543 . S
Sm81 O107 2.450 . S
Sm81 O108 2.681 . S
Sm81 O109 2.464 . S
Sm81 O110 2.396 . S
C82 Sm80 2.846 1_554 S
C82 C83 1.506 . S
C82 O100 1.261 . S
C82 O101 1.242 1_554 S
C83 C82 1.506 . S
C83 C84 1.358 . S
C83 C88 1.382 . S
C84 C83 1.358 . S
C84 C85 1.385 . S
C84 H112 0.930 . S
C85 C84 1.385 . S
C85 C86 1.395 . S
C85 H113 0.929 . S
C86 C85 1.395 . S
C86 C87 1.335 . S
C87 C86 1.335 . S
C87 C88 1.398 . S
C87 H114 0.930 . S
C88 C83 1.382 . S
C88 C87 1.398 . S
C88 H115 0.929 . S
C89 O102 1.271 . S
C89 O103 1.251 . S
C90 O104 1.252 . S
C90 O105 1.272 . S
C91 Sm81 2.846 . S
C91 C92 1.506 . S
C91 O106 1.261 . S
C91 O107 1.242 . S
C92 C91 1.506 . S
C92 C93 1.358 . S
C92 C97 1.382 . S
C93 C92 1.358 . S
C93 C94 1.385 . S
C93 H116 0.930 . S
C94 C93 1.385 . S
C94 C95 1.395 . S
C94 H117 0.929 . S
C95 C94 1.395 . S
C95 C96 1.335 . S
C96 C95 1.335 . S
C96 C97 1.398 . S
C96 H118 0.930 . S
C97 C92 1.382 . S
C97 C96 1.398 . S
C97 H119 0.929 . S
C98 O108 1.271 . S
C98 O109 1.251 . S
C99 O110 1.252 . S
C99 O111 1.272 . S
O100 Sm80 2.543 1_554 S
O100 C82 1.261 . S
O101 Sm80 2.450 . S
O101 C82 1.242 1_556 S
O102 Sm80 2.681 . S
O102 Sm81 2.386 . S
O102 C89 1.271 . S
O103 Sm80 2.464 . S
O103 C89 1.251 . S
O104 Sm80 2.396 . S
O104 C90 1.252 . S
O105 Sm81 2.408 . S
O105 C90 1.272 . S
O106 Sm81 2.543 . S
O106 C91 1.261 . S
O107 Sm81 2.450 . S
O107 C91 1.242 . S
O108 Sm80 2.386 . S
O108 Sm81 2.681 . S
O108 C98 1.271 . S
O109 Sm81 2.464 . S
O109 C98 1.251 . S
O110 Sm81 2.396 . S
O110 C99 1.252 . S
O111 Sm80 2.408 . S
O111 C99 1.272 . S
H112 C84 0.930 . S
H113 C85 0.929 . S
H114 C87 0.930 . S
H115 C88 0.929 . S
H116 C93 0.930 . S
H117 C94 0.929 . S
H118 C96 0.930 . S
H119 C97 0.929 . S
Sm120 C122 2.846 . S
Sm120 O140 2.543 . S
Sm120 O141 2.450 . S
Sm120 O142 2.681 . S
Sm120 O143 2.464 . S
Sm120 O144 2.396 . S
Sm120 O148 2.386 . S
Sm120 O151 2.408 . S
Sm121 C131 2.846 . S
Sm121 O142 2.386 . S
Sm121 O145 2.408 . S
Sm121 O146 2.543 . S
Sm121 O147 2.450 . S
Sm121 O148 2.681 . S
Sm121 O149 2.464 . S
Sm121 O150 2.396 . S
C122 Sm120 2.846 . S
C122 C123 1.506 . S
C122 O140 1.261 . S
C122 O141 1.242 . S
C123 C122 1.506 . S
C123 C124 1.358 . S
C123 C128 1.382 . S
C124 C123 1.358 . S
C124 C125 1.385 . S
C124 H152 0.930 . S
C125 C124 1.385 . S
C125 C126 1.395 . S
C125 H153 0.929 . S
C126 C125 1.395 . S
C126 C127 1.335 . S
C127 C126 1.335 . S
C127 C128 1.398 . S
C127 H154 0.930 . S
C128 C123 1.382 . S
C128 C127 1.398 . S
C128 H155 0.929 . S
C129 O142 1.271 . S
C129 O143 1.251 . S
C130 O144 1.252 . S
C130 O145 1.272 . S
C131 Sm121 2.846 . S
C131 C132 1.506 . S
C131 O146 1.261 . S
C131 O147 1.242 . S
C132 C131 1.506 . S
C132 C133 1.358 . S
C132 C137 1.382 . S
C133 C132 1.358 . S
C133 C134 1.385 . S
C133 H156 0.930 . S
C134 C133 1.385 . S
C134 C135 1.395 . S
C134 H157 0.929 . S
C135 C134 1.395 . S
C135 C136 1.335 . S
C136 C135 1.335 . S
C136 C137 1.398 . S
C136 H158 0.930 . S
C137 C132 1.382 . S
C137 C136 1.398 . S
C137 H159 0.929 . S
C138 O148 1.271 . S
C138 O149 1.251 . S
C139 O150 1.252 . S
C139 O151 1.272 . S
O140 Sm120 2.543 . S
O140 C122 1.261 . S
O141 Sm120 2.450 . S
O141 C122 1.242 . S
O142 Sm120 2.681 . S
O142 Sm121 2.386 . S
O142 C129 1.271 . S
O143 Sm120 2.464 . S
O143 C129 1.251 . S
O144 Sm120 2.396 . S
O144 C130 1.252 . S
O145 Sm121 2.408 . S
O145 C130 1.272 . S
O146 Sm121 2.543 . S
O146 C131 1.261 . S
O147 Sm121 2.450 . S
O147 C131 1.242 . S
O148 Sm120 2.386 . S
O148 Sm121 2.681 . S
O148 C138 1.271 . S
O149 Sm121 2.464 . S
O149 C138 1.251 . S
O150 Sm121 2.396 . S
O150 C139 1.252 . S
O151 Sm120 2.408 . S
O151 C139 1.272 . S
H152 C124 0.930 . S
H153 C125 0.929 . S
H154 C127 0.930 . S
H155 C128 0.929 . S
H156 C133 0.930 . S
H157 C134 0.929 . S
H158 C136 0.930 . S
H159 C137 0.929 . S
Sm160 C162 2.846 . S
Sm160 O180 2.543 . S
Sm160 O181 2.450 . S
Sm160 O182 2.681 . S
Sm160 O183 2.464 . S
Sm160 O184 2.396 . S
Sm160 O188 2.386 . S
Sm160 O191 2.408 . S
Sm161 C171 2.846 . S
Sm161 O182 2.386 . S
Sm161 O185 2.408 . S
Sm161 O186 2.543 . S
Sm161 O187 2.450 . S
Sm161 O188 2.681 . S
Sm161 O189 2.464 . S
Sm161 O190 2.396 . S
C162 Sm160 2.846 . S
C162 C163 1.506 . S
C162 O180 1.261 . S
C162 O181 1.242 . S
C163 C162 1.506 . S
C163 C164 1.358 . S
C163 C168 1.382 . S
C164 C163 1.358 . S
C164 C165 1.385 . S
C164 H192 0.930 . S
C165 C164 1.385 . S
C165 C166 1.395 . S
C165 H193 0.929 . S
C166 C165 1.395 . S
C166 C167 1.335 . S
C167 C166 1.335 . S
C167 C168 1.398 . S
C167 H194 0.930 . S
C168 C163 1.382 . S
C168 C167 1.398 . S
C168 H195 0.929 . S
C169 O182 1.271 . S
C169 O183 1.251 . S
C170 O184 1.252 . S
C170 O185 1.272 . S
C171 Sm161 2.846 . S
C171 C172 1.506 . S
C171 O186 1.261 . S
C171 O187 1.242 . S
C172 C171 1.506 . S
C172 C173 1.358 . S
C172 C177 1.382 . S
C173 C172 1.358 . S
C173 C174 1.385 . S
C173 H196 0.930 . S
C174 C173 1.385 . S
C174 C175 1.395 . S
C174 H197 0.929 . S
C175 C174 1.395 . S
C175 C176 1.335 . S
C176 C175 1.335 . S
C176 C177 1.398 . S
C176 H198 0.930 . S
C177 C172 1.382 . S
C177 C176 1.398 . S
C177 H199 0.929 . S
C178 O188 1.271 . S
C178 O189 1.251 . S
C179 O190 1.252 . S
C179 O191 1.272 . S
O180 Sm160 2.543 . S
O180 C162 1.261 . S
O181 Sm160 2.450 . S
O181 C162 1.242 . S
O182 Sm160 2.681 . S
O182 Sm161 2.386 . S
O182 C169 1.271 . S
O183 Sm160 2.464 . S
O183 C169 1.251 . S
O184 Sm160 2.396 . S
O184 C170 1.252 . S
O185 Sm161 2.408 . S
O185 C170 1.272 . S
O186 Sm161 2.543 . S
O186 C171 1.261 . S
O187 Sm161 2.450 . S
O187 C171 1.242 . S
O188 Sm160 2.386 . S
O188 Sm161 2.681 . S
O188 C178 1.271 . S
O189 Sm161 2.464 . S
O189 C178 1.251 . S
O190 Sm161 2.396 . S
O190 C179 1.252 . S
O191 Sm160 2.408 . S
O191 C179 1.272 . S
H192 C164 0.930 . S
H193 C165 0.929 . S
H194 C167 0.930 . S
H195 C168 0.929 . S
H196 C173 0.930 . S
H197 C174 0.929 . S
H198 C176 0.930 . S
H199 C177 0.929 . S
Sm200 C202 2.846 1_556 S
Sm200 O220 2.543 1_556 S
Sm200 O221 2.450 . S
Sm200 O222 2.681 . S
Sm200 O223 2.464 . S
Sm200 O224 2.396 . S
Sm200 O228 2.386 . S
Sm200 O231 2.408 . S
Sm201 C211 2.846 . S
Sm201 O222 2.386 . S
Sm201 O225 2.408 . S
Sm201 O226 2.543 . S
Sm201 O227 2.450 . S
Sm201 O228 2.681 . S
Sm201 O229 2.464 . S
Sm201 O230 2.396 . S
C202 Sm200 2.846 1_554 S
C202 C203 1.506 . S
C202 O220 1.261 . S
C202 O221 1.242 1_554 S
C203 C202 1.506 . S
C203 C204 1.358 . S
C203 C208 1.382 . S
C204 C203 1.358 . S
C204 C205 1.385 . S
C204 H232 0.930 . S
C205 C204 1.385 . S
C205 C206 1.395 . S
C205 H233 0.929 . S
C206 C205 1.395 . S
C206 C207 1.335 . S
C207 C206 1.335 . S
C207 C208 1.398 . S
C207 H234 0.930 . S
C208 C203 1.382 . S
C208 C207 1.398 . S
C208 H235 0.929 . S
C209 O222 1.271 . S
C209 O223 1.251 . S
C210 O224 1.252 . S
C210 O225 1.272 . S
C211 Sm201 2.846 . S
C211 C212 1.506 . S
C211 O226 1.261 . S
C211 O227 1.242 . S
C212 C211 1.506 . S
C212 C213 1.358 . S
C212 C217 1.382 . S
C213 C212 1.358 . S
C213 C214 1.385 . S
C213 H236 0.930 . S
C214 C213 1.385 . S
C214 C215 1.395 . S
C214 H237 0.929 . S
C215 C214 1.395 . S
C215 C216 1.335 . S
C216 C215 1.335 . S
C216 C217 1.398 . S
C216 H238 0.930 . S
C217 C212 1.382 . S
C217 C216 1.398 . S
C217 H239 0.929 . S
C218 O228 1.271 . S
C218 O229 1.251 . S
C219 O230 1.252 . S
C219 O231 1.272 . S
O220 Sm200 2.543 1_554 S
O220 C202 1.261 . S
O221 Sm200 2.450 . S
O221 C202 1.242 1_556 S
O222 Sm200 2.681 . S
O222 Sm201 2.386 . S
O222 C209 1.271 . S
O223 Sm200 2.464 . S
O223 C209 1.251 . S
O224 Sm200 2.396 . S
O224 C210 1.252 . S
O225 Sm201 2.408 . S
O225 C210 1.272 . S
O226 Sm201 2.543 . S
O226 C211 1.261 . S
O227 Sm201 2.450 . S
O227 C211 1.242 . S
O228 Sm200 2.386 . S
O228 Sm201 2.681 . S
O228 C218 1.271 . S
O229 Sm201 2.464 . S
O229 C218 1.251 . S
O230 Sm201 2.396 . S
O230 C219 1.252 . S
O231 Sm200 2.408 . S
O231 C219 1.272 . S
H232 C204 0.930 . S
H233 C205 0.929 . S
H234 C207 0.930 . S
H235 C208 0.929 . S
H236 C213 0.930 . S
H237 C214 0.929 . S
H238 C216 0.930 . S
H239 C217 0.929 . S
Sm240 C242 2.846 . S
Sm240 O260 2.543 . S
Sm240 O261 2.450 . S
Sm240 O262 2.681 . S
Sm240 O263 2.464 . S
Sm240 O264 2.396 . S
Sm240 O268 2.386 . S
Sm240 O271 2.408 . S
Sm241 C251 2.846 . S
Sm241 O262 2.386 . S
Sm241 O265 2.408 . S
Sm241 O266 2.543 . S
Sm241 O267 2.450 . S
Sm241 O268 2.681 . S
Sm241 O269 2.464 . S
Sm241 O270 2.396 . S
C242 Sm240 2.846 . S
C242 C243 1.506 . S
C242 O260 1.261 . S
C242 O261 1.242 . S
C243 C242 1.506 . S
C243 C244 1.358 . S
C243 C248 1.382 . S
C244 C243 1.358 . S
C244 C245 1.385 . S
C244 H272 0.930 . S
C245 C244 1.385 . S
C245 C246 1.395 . S
C245 H273 0.929 . S
C246 C245 1.395 . S
C246 C247 1.335 . S
C247 C246 1.335 . S
C247 C248 1.398 . S
C247 H274 0.930 . S
C248 C243 1.382 . S
C248 C247 1.398 . S
C248 H275 0.929 . S
C249 O262 1.271 . S
C249 O263 1.251 . S
C250 O264 1.252 . S
C250 O265 1.272 . S
C251 Sm241 2.846 . S
C251 C252 1.506 . S
C251 O266 1.261 . S
C251 O267 1.242 . S
C252 C251 1.506 . S
C252 C253 1.358 . S
C252 C257 1.382 . S
C253 C252 1.358 . S
C253 C254 1.385 . S
C253 H276 0.930 . S
C254 C253 1.385 . S
C254 C255 1.395 . S
C254 H277 0.929 . S
C255 C254 1.395 . S
C255 C256 1.335 . S
C256 C255 1.335 . S
C256 C257 1.398 . S
C256 H278 0.930 . S
C257 C252 1.382 . S
C257 C256 1.398 . S
C257 H279 0.929 . S
C258 O268 1.271 . S
C258 O269 1.251 . S
C259 O270 1.252 . S
C259 O271 1.272 . S
O260 Sm240 2.543 . S
O260 C242 1.261 . S
O261 Sm240 2.450 . S
O261 C242 1.242 . S
O262 Sm240 2.681 . S
O262 Sm241 2.386 . S
O262 C249 1.271 . S
O263 Sm240 2.464 . S
O263 C249 1.251 . S
O264 Sm240 2.396 . S
O264 C250 1.252 . S
O265 Sm241 2.408 . S
O265 C250 1.272 . S
O266 Sm241 2.543 . S
O266 C251 1.261 . S
O267 Sm241 2.450 . S
O267 C251 1.242 . S
O268 Sm240 2.386 . S
O268 Sm241 2.681 . S
O268 C258 1.271 . S
O269 Sm241 2.464 . S
O269 C258 1.251 . S
O270 Sm241 2.396 . S
O270 C259 1.252 . S
O271 Sm240 2.408 . S
O271 C259 1.272 . S
H272 C244 0.930 . S
H273 C245 0.929 . S
H274 C247 0.930 . S
H275 C248 0.929 . S
H276 C253 0.930 . S
H277 C254 0.929 . S
H278 C256 0.930 . S
H279 C257 0.929 . S
Sm280 C282 2.846 . S
Sm280 O300 2.543 . S
Sm280 O301 2.450 . S
Sm280 O302 2.681 . S
Sm280 O303 2.464 . S
Sm280 O304 2.396 . S
Sm280 O308 2.386 . S
Sm280 O311 2.408 . S
Sm281 C291 2.846 . S
Sm281 O302 2.386 . S
Sm281 O305 2.408 . S
Sm281 O306 2.543 . S
Sm281 O307 2.450 . S
Sm281 O308 2.681 . S
Sm281 O309 2.464 . S
Sm281 O310 2.396 . S
C282 Sm280 2.846 . S
C282 C283 1.506 . S
C282 O300 1.261 . S
C282 O301 1.242 . S
C283 C282 1.506 . S
C283 C284 1.358 . S
C283 C288 1.382 . S
C284 C283 1.358 . S
C284 C285 1.385 . S
C284 H312 0.930 . S
C285 C284 1.385 . S
C285 C286 1.395 . S
C285 H313 0.929 . S
C286 C285 1.395 . S
C286 C287 1.335 . S
C287 C286 1.335 . S
C287 C288 1.398 . S
C287 H314 0.930 . S
C288 C283 1.382 . S
C288 C287 1.398 . S
C288 H315 0.929 . S
C289 O302 1.271 . S
C289 O303 1.251 . S
C290 O304 1.252 . S
C290 O305 1.272 . S
C291 Sm281 2.846 . S
C291 C292 1.506 . S
C291 O306 1.261 . S
C291 O307 1.242 . S
C292 C291 1.506 . S
C292 C293 1.358 . S
C292 C297 1.382 . S
C293 C292 1.358 . S
C293 C294 1.385 . S
C293 H316 0.930 . S
C294 C293 1.385 . S
C294 C295 1.395 . S
C294 H317 0.929 . S
C295 C294 1.395 . S
C295 C296 1.335 . S
C296 C295 1.335 . S
C296 C297 1.398 . S
C296 H318 0.930 . S
C297 C292 1.382 . S
C297 C296 1.398 . S
C297 H319 0.929 . S
C298 O308 1.271 . S
C298 O309 1.251 . S
C299 O310 1.252 . S
C299 O311 1.272 . S
O300 Sm280 2.543 . S
O300 C282 1.261 . S
O301 Sm280 2.450 . S
O301 C282 1.242 . S
O302 Sm280 2.681 . S
O302 Sm281 2.386 . S
O302 C289 1.271 . S
O303 Sm280 2.464 . S
O303 C289 1.251 . S
O304 Sm280 2.396 . S
O304 C290 1.252 . S
O305 Sm281 2.408 . S
O305 C290 1.272 . S
O306 Sm281 2.543 . S
O306 C291 1.261 . S
O307 Sm281 2.450 . S
O307 C291 1.242 . S
O308 Sm280 2.386 . S
O308 Sm281 2.681 . S
O308 C298 1.271 . S
O309 Sm281 2.464 . S
O309 C298 1.251 . S
O310 Sm281 2.396 . S
O310 C299 1.252 . S
O311 Sm280 2.408 . S
O311 C299 1.272 . S
H312 C284 0.930 . S
H313 C285 0.929 . S
H314 C287 0.930 . S
H315 C288 0.929 . S
H316 C293 0.930 . S
H317 C294 0.929 . S
H318 C296 0.930 . S
H319 C297 0.929 . S
Sm320 C322 2.846 1_554 S
Sm320 O340 2.543 1_554 S
Sm320 O341 2.450 . S
Sm320 O342 2.681 . S
Sm320 O343 2.464 . S
Sm320 O344 2.396 . S
Sm320 O348 2.386 . S
Sm320 O351 2.408 . S
Sm321 C331 2.846 . S
Sm321 O342 2.386 . S
Sm321 O345 2.408 . S
Sm321 O346 2.543 . S
Sm321 O347 2.450 . S
Sm321 O348 2.681 . S
Sm321 O349 2.464 . S
Sm321 O350 2.396 . S
C322 Sm320 2.846 1_556 S
C322 C323 1.506 . S
C322 O340 1.261 . S
C322 O341 1.242 1_556 S
C323 C322 1.506 . S
C323 C324 1.358 . S
C323 C328 1.382 . S
C324 C323 1.358 . S
C324 C325 1.385 . S
C324 H352 0.930 . S
C325 C324 1.385 . S
C325 C326 1.395 . S
C325 H353 0.929 . S
C326 C325 1.395 . S
C326 C327 1.335 . S
C327 C326 1.335 . S
C327 C328 1.398 . S
C327 H354 0.930 . S
C328 C323 1.382 . S
C328 C327 1.398 . S
C328 H355 0.929 . S
C329 O342 1.271 . S
C329 O343 1.251 . S
C330 O344 1.252 . S
C330 O345 1.272 . S
C331 Sm321 2.846 . S
C331 C332 1.506 . S
C331 O346 1.261 . S
C331 O347 1.242 . S
C332 C331 1.506 . S
C332 C333 1.358 . S
C332 C337 1.382 . S
C333 C332 1.358 . S
C333 C334 1.385 . S
C333 H356 0.930 . S
C334 C333 1.385 . S
C334 C335 1.395 . S
C334 H357 0.929 . S
C335 C334 1.395 . S
C335 C336 1.335 . S
C336 C335 1.335 . S
C336 C337 1.398 . S
C336 H358 0.930 . S
C337 C332 1.382 . S
C337 C336 1.398 . S
C337 H359 0.929 . S
C338 O348 1.271 . S
C338 O349 1.251 . S
C339 O350 1.252 . S
C339 O351 1.272 . S
O340 Sm320 2.543 1_556 S
O340 C322 1.261 . S
O341 Sm320 2.450 . S
O341 C322 1.242 1_554 S
O342 Sm320 2.681 . S
O342 Sm321 2.386 . S
O342 C329 1.271 . S
O343 Sm320 2.464 . S
O343 C329 1.251 . S
O344 Sm320 2.396 . S
O344 C330 1.252 . S
O345 Sm321 2.408 . S
O345 C330 1.272 . S
O346 Sm321 2.543 . S
O346 C331 1.261 . S
O347 Sm321 2.450 . S
O347 C331 1.242 . S
O348 Sm320 2.386 . S
O348 Sm321 2.681 . S
O348 C338 1.271 . S
O349 Sm321 2.464 . S
O349 C338 1.251 . S
O350 Sm321 2.396 . S
O350 C339 1.252 . S
O351 Sm320 2.408 . S
O351 C339 1.272 . S
H352 C324 0.930 . S
H353 C325 0.929 . S
H354 C327 0.930 . S
H355 C328 0.929 . S
H356 C333 0.930 . S
H357 C334 0.929 . S
H358 C336 0.930 . S
H359 C337 0.929 . S
Sm360 C362 2.846 . S
Sm360 O380 2.543 . S
Sm360 O381 2.450 . S
Sm360 O382 2.681 . S
Sm360 O383 2.464 . S
Sm360 O384 2.396 . S
Sm360 O388 2.386 . S
Sm360 O391 2.408 . S
Sm361 C371 2.846 . S
Sm361 O382 2.386 . S
Sm361 O385 2.408 . S
Sm361 O386 2.543 . S
Sm361 O387 2.450 . S
Sm361 O388 2.681 . S
Sm361 O389 2.464 . S
Sm361 O390 2.396 . S
C362 Sm360 2.846 . S
C362 C363 1.506 . S
C362 O380 1.261 . S
C362 O381 1.242 . S
C363 C362 1.506 . S
C363 C364 1.358 . S
C363 C368 1.382 . S
C364 C363 1.358 . S
C364 C365 1.385 . S
C364 H392 0.930 . S
C365 C364 1.385 . S
C365 C366 1.395 . S
C365 H393 0.929 . S
C366 C365 1.395 . S
C366 C367 1.335 . S
C367 C366 1.335 . S
C367 C368 1.398 . S
C367 H394 0.930 . S
C368 C363 1.382 . S
C368 C367 1.398 . S
C368 H395 0.929 . S
C369 O382 1.271 . S
C369 O383 1.251 . S
C370 O384 1.252 . S
C370 O385 1.272 . S
C371 Sm361 2.846 . S
C371 C372 1.506 . S
C371 O386 1.261 . S
C371 O387 1.242 . S
C372 C371 1.506 . S
C372 C373 1.358 . S
C372 C377 1.382 . S
C373 C372 1.358 . S
C373 C374 1.385 . S
C373 H396 0.930 . S
C374 C373 1.385 . S
C374 C375 1.395 . S
C374 H397 0.929 . S
C375 C374 1.395 . S
C375 C376 1.335 . S
C376 C375 1.335 . S
C376 C377 1.398 . S
C376 H398 0.930 . S
C377 C372 1.382 . S
C377 C376 1.398 . S
C377 H399 0.929 . S
C378 O388 1.271 . S
C378 O389 1.251 . S
C379 O390 1.252 . S
C379 O391 1.272 . S
O380 Sm360 2.543 . S
O380 C362 1.261 . S
O381 Sm360 2.450 . S
O381 C362 1.242 . S
O382 Sm360 2.681 . S
O382 Sm361 2.386 . S
O382 C369 1.271 . S
O383 Sm360 2.464 . S
O383 C369 1.251 . S
O384 Sm360 2.396 . S
O384 C370 1.252 . S
O385 Sm361 2.408 . S
O385 C370 1.272 . S
O386 Sm361 2.543 . S
O386 C371 1.261 . S
O387 Sm361 2.450 . S
O387 C371 1.242 . S
O388 Sm360 2.386 . S
O388 Sm361 2.681 . S
O388 C378 1.271 . S
O389 Sm361 2.464 . S
O389 C378 1.251 . S
O390 Sm361 2.396 . S
O390 C379 1.252 . S
O391 Sm360 2.408 . S
O391 C379 1.272 . S
H392 C364 0.930 . S
H393 C365 0.929 . S
H394 C367 0.930 . S
H395 C368 0.929 . S
H396 C373 0.930 . S
H397 C374 0.929 . S
H398 C376 0.930 . S
H399 C377 0.929 . S
Sm400 C402 2.846 . S
Sm400 O420 2.543 . S
Sm400 O421 2.450 . S
Sm400 O422 2.681 . S
Sm400 O423 2.464 . S
Sm400 O424 2.396 . S
Sm400 O428 2.386 . S
Sm400 O431 2.408 . S
Sm401 C411 2.846 . S
Sm401 O422 2.386 . S
Sm401 O425 2.408 . S
Sm401 O426 2.543 . S
Sm401 O427 2.450 . S
Sm401 O428 2.681 . S
Sm401 O429 2.464 . S
Sm401 O430 2.396 . S
C402 Sm400 2.846 . S
C402 C403 1.506 . S
C402 O420 1.261 . S
C402 O421 1.242 . S
C403 C402 1.506 . S
C403 C404 1.358 . S
C403 C408 1.382 . S
C404 C403 1.358 . S
C404 C405 1.385 . S
C404 H432 0.930 . S
C405 C404 1.385 . S
C405 C406 1.395 . S
C405 H433 0.929 . S
C406 C405 1.395 . S
C406 C407 1.335 . S
C407 C406 1.335 . S
C407 C408 1.398 . S
C407 H434 0.930 . S
C408 C403 1.382 . S
C408 C407 1.398 . S
C408 H435 0.929 . S
C409 O422 1.271 . S
C409 O423 1.251 . S
C410 O424 1.252 . S
C410 O425 1.272 . S
C411 Sm401 2.846 . S
C411 C412 1.506 . S
C411 O426 1.261 . S
C411 O427 1.242 . S
C412 C411 1.506 . S
C412 C413 1.358 . S
C412 C417 1.382 . S
C413 C412 1.358 . S
C413 C414 1.385 . S
C413 H436 0.930 . S
C414 C413 1.385 . S
C414 C415 1.395 . S
C414 H437 0.929 . S
C415 C414 1.395 . S
C415 C416 1.335 . S
C416 C415 1.335 . S
C416 C417 1.398 . S
C416 H438 0.930 . S
C417 C412 1.382 . S
C417 C416 1.398 . S
C417 H439 0.929 . S
C418 O428 1.271 . S
C418 O429 1.251 . S
C419 O430 1.252 . S
C419 O431 1.272 . S
O420 Sm400 2.543 . S
O420 C402 1.261 . S
O421 Sm400 2.450 . S
O421 C402 1.242 . S
O422 Sm400 2.681 . S
O422 Sm401 2.386 . S
O422 C409 1.271 . S
O423 Sm400 2.464 . S
O423 C409 1.251 . S
O424 Sm400 2.396 . S
O424 C410 1.252 . S
O425 Sm401 2.408 . S
O425 C410 1.272 . S
O426 Sm401 2.543 . S
O426 C411 1.261 . S
O427 Sm401 2.450 . S
O427 C411 1.242 . S
O428 Sm400 2.386 . S
O428 Sm401 2.681 . S
O428 C418 1.271 . S
O429 Sm401 2.464 . S
O429 C418 1.251 . S
O430 Sm401 2.396 . S
O430 C419 1.252 . S
O431 Sm400 2.408 . S
O431 C419 1.272 . S
H432 C404 0.930 . S
H433 C405 0.929 . S
H434 C407 0.930 . S
H435 C408 0.929 . S
H436 C413 0.930 . S
H437 C414 0.929 . S
H438 C416 0.930 . S
H439 C417 0.929 . S
Sm440 C442 2.846 1_554 S
Sm440 O460 2.543 1_554 S
Sm440 O461 2.450 . S
Sm440 O462 2.681 . S
Sm440 O463 2.464 . S
Sm440 O464 2.396 . S
Sm440 O468 2.386 . S
Sm440 O471 2.408 . S
Sm441 C451 2.846 . S
Sm441 O462 2.386 . S
Sm441 O465 2.408 . S
Sm441 O466 2.543 . S
Sm441 O467 2.450 . S
Sm441 O468 2.681 . S
Sm441 O469 2.464 . S
Sm441 O470 2.396 . S
C442 Sm440 2.846 1_556 S
C442 C443 1.506 . S
C442 O460 1.261 . S
C442 O461 1.242 1_556 S
C443 C442 1.506 . S
C443 C444 1.358 . S
C443 C448 1.382 . S
C444 C443 1.358 . S
C444 C445 1.385 . S
C444 H472 0.930 . S
C445 C444 1.385 . S
C445 C446 1.395 . S
C445 H473 0.929 . S
C446 C445 1.395 . S
C446 C447 1.335 . S
C447 C446 1.335 . S
C447 C448 1.398 . S
C447 H474 0.930 . S
C448 C443 1.382 . S
C448 C447 1.398 . S
C448 H475 0.929 . S
C449 O462 1.271 . S
C449 O463 1.251 . S
C450 O464 1.252 . S
C450 O465 1.272 . S
C451 Sm441 2.846 . S
C451 C452 1.506 . S
C451 O466 1.261 . S
C451 O467 1.242 . S
C452 C451 1.506 . S
C452 C453 1.358 . S
C452 C457 1.382 . S
C453 C452 1.358 . S
C453 C454 1.385 . S
C453 H476 0.930 . S
C454 C453 1.385 . S
C454 C455 1.395 . S
C454 H477 0.929 . S
C455 C454 1.395 . S
C455 C456 1.335 . S
C456 C455 1.335 . S
C456 C457 1.398 . S
C456 H478 0.930 . S
C457 C452 1.382 . S
C457 C456 1.398 . S
C457 H479 0.929 . S
C458 O468 1.271 . S
C458 O469 1.251 . S
C459 O470 1.252 . S
C459 O471 1.272 . S
O460 Sm440 2.543 1_556 S
O460 C442 1.261 . S
O461 Sm440 2.450 . S
O461 C442 1.242 1_554 S
O462 Sm440 2.681 . S
O462 Sm441 2.386 . S
O462 C449 1.271 . S
O463 Sm440 2.464 . S
O463 C449 1.251 . S
O464 Sm440 2.396 . S
O464 C450 1.252 . S
O465 Sm441 2.408 . S
O465 C450 1.272 . S
O466 Sm441 2.543 . S
O466 C451 1.261 . S
O467 Sm441 2.450 . S
O467 C451 1.242 . S
O468 Sm440 2.386 . S
O468 Sm441 2.681 . S
O468 C458 1.271 . S
O469 Sm441 2.464 . S
O469 C458 1.251 . S
O470 Sm441 2.396 . S
O470 C459 1.252 . S
O471 Sm440 2.408 . S
O471 C459 1.272 . S
H472 C444 0.930 . S
H473 C445 0.929 . S
H474 C447 0.930 . S
H475 C448 0.929 . S
H476 C453 0.930 . S
H477 C454 0.929 . S
H478 C456 0.930 . S
H479 C457 0.929 . S
H480 C486 0.930 . S
H481 C489 0.930 . S
H482 C490 0.930 . S
H483 C491 0.930 . S
H484 C494 0.930 . S
H485 C495 0.930 . S
C486 H480 0.930 . S
C486 C487 1.355 . S
C486 C488 1.415 . S
C487 C486 1.355 . S
C487 C489 1.419 . S
C488 C486 1.415 . S
C488 C493 1.425 . S
C488 C495 1.409 . S
C489 H481 0.930 . S
C489 C487 1.419 . S
C489 C490 1.362 . S
C490 H482 0.930 . S
C490 C489 1.362 . S
C490 C493 1.409 . S
C491 H483 0.930 . S
C491 C492 1.355 . S
C491 C493 1.415 . S
C492 C491 1.355 . S
C492 C494 1.419 . S
C493 C488 1.425 . S
C493 C490 1.409 . S
C493 C491 1.415 . S
C494 H484 0.930 . S
C494 C492 1.419 . S
C494 C495 1.362 . S
C495 H485 0.930 . S
C495 C488 1.409 . S
C495 C494 1.362 . S
H496 C502 0.930 . S
H497 C505 0.930 . S
H498 C506 0.930 . S
H499 C507 0.930 . S
H500 C510 0.930 . S
H501 C511 0.930 . S
C502 H496 0.930 . S
C502 C503 1.355 . S
C502 C504 1.415 . S
C503 C502 1.355 . S
C503 C505 1.419 . S
C504 C502 1.415 . S
C504 C509 1.425 . S
C504 C511 1.409 . S
C505 H497 0.930 . S
C505 C503 1.419 . S
C505 C506 1.362 . S
C506 H498 0.930 . S
C506 C505 1.362 . S
C506 C509 1.409 . S
C507 H499 0.930 . S
C507 C508 1.355 . S
C507 C509 1.415 . S
C508 C507 1.355 . S
C508 C510 1.419 . S
C509 C504 1.425 . S
C509 C506 1.409 . S
C509 C507 1.415 . S
C510 H500 0.930 . S
C510 C508 1.419 . S
C510 C511 1.362 . S
C511 H501 0.930 . S
C511 C504 1.409 . S
C511 C510 1.362 . S
H512 C518 0.930 . S
H513 C521 0.930 . S
H514 C522 0.930 . S
H515 C523 0.930 . S
H516 C526 0.930 . S
H517 C527 0.930 . S
C518 H512 0.930 . S
C518 C519 1.355 . S
C518 C520 1.415 . S
C519 C518 1.355 . S
C519 C521 1.419 . S
C520 C518 1.415 . S
C520 C525 1.425 . S
C520 C527 1.409 . S
C521 H513 0.930 . S
C521 C519 1.419 . S
C521 C522 1.362 . S
C522 H514 0.930 . S
C522 C521 1.362 . S
C522 C525 1.409 . S
C523 H515 0.930 . S
C523 C524 1.355 . S
C523 C525 1.415 . S
C524 C523 1.355 . S
C524 C526 1.419 . S
C525 C520 1.425 . S
C525 C522 1.409 . S
C525 C523 1.415 . S
C526 H516 0.930 . S
C526 C524 1.419 . S
C526 C527 1.362 . S
C527 H517 0.930 . S
C527 C520 1.409 . S
C527 C526 1.362 . S
H528 C534 0.930 . S
H529 C537 0.930 . S
H530 C538 0.930 . S
H531 C539 0.930 . S
H532 C542 0.930 . S
H533 C543 0.930 . S
C534 H528 0.930 . S
C534 C535 1.355 . S
C534 C536 1.415 . S
C535 C534 1.355 . S
C535 C537 1.419 . S
C536 C534 1.415 . S
C536 C541 1.425 . S
C536 C543 1.409 . S
C537 H529 0.930 . S
C537 C535 1.419 . S
C537 C538 1.362 . S
C538 H530 0.930 . S
C538 C537 1.362 . S
C538 C541 1.409 . S
C539 H531 0.930 . S
C539 C540 1.355 . S
C539 C541 1.415 . S
C540 C539 1.355 . S
C540 C542 1.419 . S
C541 C536 1.425 . S
C541 C538 1.409 . S
C541 C539 1.415 . S
C542 H532 0.930 . S
C542 C540 1.419 . S
C542 C543 1.362 . S
C543 H533 0.930 . S
C543 C536 1.409 . S
C543 C542 1.362 . S
H544 C550 0.930 . S
H545 C553 0.930 . S
H546 C554 0.930 . S
H547 C555 0.930 . S
H548 C558 0.930 . S
H549 C559 0.930 . S
C550 H544 0.930 . S
C550 C551 1.355 . S
C550 C552 1.415 . S
C551 C550 1.355 . S
C551 C553 1.419 . S
C552 C550 1.415 . S
C552 C557 1.425 . S
C552 C559 1.409 . S
C553 H545 0.930 . S
C553 C551 1.419 . S
C553 C554 1.362 . S
C554 H546 0.930 . S
C554 C553 1.362 . S
C554 C557 1.409 . S
C555 H547 0.930 . S
C555 C556 1.355 . S
C555 C557 1.415 . S
C556 C555 1.355 . S
C556 C558 1.419 . S
C557 C552 1.425 . S
C557 C554 1.409 . S
C557 C555 1.415 . S
C558 H548 0.930 . S
C558 C556 1.419 . S
C558 C559 1.362 . S
C559 H549 0.930 . S
C559 C552 1.409 . S
C559 C558 1.362 . S
H560 C566 0.930 . S
H561 C569 0.930 . S
H562 C570 0.930 . S
H563 C571 0.930 . S
H564 C574 0.930 . S
H565 C575 0.930 . S
C566 H560 0.930 . S
C566 C567 1.355 . S
C566 C568 1.415 . S
C567 C566 1.355 . S
C567 C569 1.419 . S
C568 C566 1.415 . S
C568 C573 1.425 . S
C568 C575 1.409 . S
C569 H561 0.930 . S
C569 C567 1.419 . S
C569 C570 1.362 . S
C570 H562 0.930 . S
C570 C569 1.362 . S
C570 C573 1.409 . S
C571 H563 0.930 . S
C571 C572 1.355 . S
C571 C573 1.415 . S
C572 C571 1.355 . S
C572 C574 1.419 . S
C573 C568 1.425 . S
C573 C570 1.409 . S
C573 C571 1.415 . S
C574 H564 0.930 . S
C574 C572 1.419 . S
C574 C575 1.362 . S
C575 H565 0.930 . S
C575 C568 1.409 . S
C575 C574 1.362 . S
H576 C582 0.926 1_554 S
H577 C585 0.930 . S
H578 C586 0.930 . S
H579 C587 0.926 1_556 S
H580 C590 0.930 . S
H581 C591 0.930 . S
C582 H576 0.926 1_556 S
C582 C583 1.355 . S
C582 C584 1.415 1_556 S
C583 C582 1.355 . S
C583 C585 1.419 . S
C584 C582 1.415 1_554 S
C584 C589 1.425 1_554 S
C584 C591 1.409 . S
C585 H577 0.930 . S
C585 C583 1.419 . S
C585 C586 1.362 . S
C586 H578 0.930 . S
C586 C585 1.362 . S
C586 C589 1.409 . S
C587 H579 0.926 1_554 S
C587 C588 1.355 . S
C587 C589 1.415 1_554 S
C588 C587 1.355 . S
C588 C590 1.419 . S
C589 C584 1.425 1_556 S
C589 C586 1.409 . S
C589 C587 1.415 1_556 S
C590 H580 0.930 . S
C590 C588 1.419 . S
C590 C591 1.362 . S
C591 H581 0.930 . S
C591 C584 1.409 . S
C591 C590 1.362 . S
H592 C598 0.930 . S
H593 C601 0.930 . S
H594 C602 0.930 . S
H595 C603 0.930 . S
H596 C606 0.930 . S
H597 C607 0.930 . S
C598 H592 0.930 . S
C598 C599 1.355 . S
C598 C600 1.415 . S
C599 C598 1.355 . S
C599 C601 1.419 . S
C600 C598 1.415 . S
C600 C605 1.425 . S
C600 C607 1.409 . S
C601 H593 0.930 . S
C601 C599 1.419 . S
C601 C602 1.362 . S
C602 H594 0.930 . S
C602 C601 1.362 . S
C602 C605 1.409 . S
C603 H595 0.930 . S
C603 C604 1.355 . S
C603 C605 1.415 . S
C604 C603 1.355 . S
C604 C606 1.419 . S
C605 C600 1.425 . S
C605 C602 1.409 . S
C605 C603 1.415 . S
C606 H596 0.930 . S
C606 C604 1.419 . S
C606 C607 1.362 . S
C607 H597 0.930 . S
C607 C600 1.409 . S
C607 C606 1.362 . S
H608 C614 0.930 . S
H609 C617 0.930 . S
H610 C618 0.930 . S
H611 C619 0.930 . S
H612 C622 0.930 . S
H613 C623 0.930 . S
C614 H608 0.930 . S
C614 C615 1.355 . S
C614 C616 1.415 . S
C615 C614 1.355 . S
C615 C617 1.419 . S
C616 C614 1.415 . S
C616 C621 1.425 . S
C616 C623 1.409 . S
C617 H609 0.930 . S
C617 C615 1.419 . S
C617 C618 1.362 . S
C618 H610 0.930 . S
C618 C617 1.362 . S
C618 C621 1.409 . S
C619 H611 0.930 . S
C619 C620 1.355 . S
C619 C621 1.415 . S
C620 C619 1.355 . S
C620 C622 1.419 . S
C621 C616 1.425 . S
C621 C618 1.409 . S
C621 C619 1.415 . S
C622 H612 0.930 . S
C622 C620 1.419 . S
C622 C623 1.362 . S
C623 H613 0.930 . S
C623 C616 1.409 . S
C623 C622 1.362 . S
H624 C630 0.930 . S
H625 C633 0.930 . S
H626 C634 0.930 . S
H627 C635 0.930 . S
H628 C638 0.930 . S
H629 C639 0.930 . S
C630 H624 0.930 . S
C630 C631 1.355 1_554 S
C630 C632 1.415 . S
C631 C630 1.355 1_556 S
C631 C633 1.419 . S
C632 C630 1.415 . S
C632 C637 1.425 1_554 S
C632 C639 1.409 . S
C633 H625 0.930 . S
C633 C631 1.419 . S
C633 C634 1.362 . S
C634 H626 0.930 . S
C634 C633 1.362 . S
C634 C637 1.409 . S
C635 H627 0.930 . S
C635 C636 1.355 1_556 S
C635 C637 1.415 . S
C636 C635 1.355 1_554 S
C636 C638 1.419 . S
C637 C632 1.425 1_556 S
C637 C634 1.409 . S
C637 C635 1.415 . S
C638 H628 0.930 . S
C638 C636 1.419 . S
C638 C639 1.362 . S
C639 H629 0.930 . S
C639 C632 1.409 . S
C639 C638 1.362 . S
H640 C646 0.930 . S
H641 C649 0.930 . S
H642 C650 0.930 . S
H643 C651 0.930 . S
H644 C654 0.930 . S
H645 C655 0.930 . S
C646 H640 0.930 . S
C646 C647 1.355 . S
C646 C648 1.415 . S
C647 C646 1.355 . S
C647 C649 1.419 . S
C648 C646 1.415 . S
C648 C653 1.425 . S
C648 C655 1.409 . S
C649 H641 0.930 . S
C649 C647 1.419 . S
C649 C650 1.362 . S
C650 H642 0.930 . S
C650 C649 1.362 . S
C650 C653 1.409 . S
C651 H643 0.930 . S
C651 C652 1.355 . S
C651 C653 1.415 . S
C652 C651 1.355 . S
C652 C654 1.419 . S
C653 C648 1.425 . S
C653 C650 1.409 . S
C653 C651 1.415 . S
C654 H644 0.930 . S
C654 C652 1.419 . S
C654 C655 1.362 . S
C655 H645 0.930 . S
C655 C648 1.409 . S
C655 C654 1.362 . S
H656 C662 0.930 . S
H657 C665 0.930 . S
H658 C666 0.930 . S
H659 C667 0.930 . S
H660 C670 0.930 . S
H661 C671 0.930 . S
C662 H656 0.930 . S
C662 C663 1.355 . S
C662 C664 1.415 . S
C663 C662 1.355 . S
C663 C665 1.419 . S
C664 C662 1.415 . S
C664 C669 1.425 . S
C664 C671 1.409 . S
C665 H657 0.930 . S
C665 C663 1.419 . S
C665 C666 1.362 . S
C666 H658 0.930 . S
C666 C665 1.362 . S
C666 C669 1.409 . S
C667 H659 0.930 . S
C667 C668 1.355 . S
C667 C669 1.415 . S
C668 C667 1.355 . S
C668 C670 1.419 . S
C669 C664 1.425 . S
C669 C666 1.409 . S
C669 C667 1.415 . S
C670 H660 0.930 . S
C670 C668 1.419 . S
C670 C671 1.362 . S
C671 H661 0.930 . S
C671 C664 1.409 . S
C671 C670 1.362 . S
H672 C678 0.930 . S
H673 C681 0.930 . S
H674 C682 0.930 . S
H675 C683 0.930 . S
H676 C686 0.930 . S
H677 C687 0.930 . S
C678 H672 0.930 . S
C678 C679 1.355 . S
C678 C680 1.415 1_556 S
C679 C678 1.355 . S
C679 C681 1.419 1_565 S
C680 C678 1.415 1_554 S
C680 C685 1.425 1_564 S
C680 C687 1.409 . S
C681 H673 0.930 . S
C681 C679 1.419 1_545 S
C681 C682 1.362 . S
C682 H674 0.930 . S
C682 C681 1.362 . S
C682 C685 1.409 . S
C683 H675 0.930 . S
C683 C684 1.355 . S
C683 C685 1.415 1_554 S
C684 C683 1.355 . S
C684 C686 1.419 1_545 S
C685 C680 1.425 1_546 S
C685 C682 1.409 . S
C685 C683 1.415 1_556 S
C686 H676 0.930 . S
C686 C684 1.419 1_565 S
C686 C687 1.362 . S
C687 H677 0.930 . S
C687 C680 1.409 . S
C687 C686 1.362 . S
H688 C694 0.930 . S
H689 C697 0.930 . S
H690 C698 0.930 . S
H691 C699 0.930 . S
H692 C702 0.930 . S
H693 C703 0.930 . S
C694 H688 0.930 . S
C694 C695 1.355 . S
C694 C696 1.415 . S
C695 C694 1.355 . S
C695 C697 1.419 . S
C696 C694 1.415 . S
C696 C701 1.425 . S
C696 C703 1.409 . S
C697 H689 0.930 . S
C697 C695 1.419 . S
C697 C698 1.362 . S
C698 H690 0.930 . S
C698 C697 1.362 . S
C698 C701 1.409 . S
C699 H691 0.930 . S
C699 C700 1.355 . S
C699 C701 1.415 . S
C700 C699 1.355 . S
C700 C702 1.419 . S
C701 C696 1.425 . S
C701 C698 1.409 . S
C701 C699 1.415 . S
C702 H692 0.930 . S
C702 C700 1.419 . S
C702 C703 1.362 . S
C703 H693 0.930 . S
C703 C696 1.409 . S
C703 C702 1.362 . S
H704 C710 0.930 1_655 S
H705 C713 0.930 . S
H706 C714 0.930 . S
H707 C715 0.930 1_455 S
H708 C718 0.930 . S
H709 C719 0.930 . S
C710 H704 0.930 1_455 S
C710 C711 1.355 . S
C710 C712 1.415 1_455 S
C711 C710 1.355 . S
C711 C713 1.419 . S
C712 C710 1.415 1_655 S
C712 C717 1.425 1_655 S
C712 C719 1.409 . S
C713 H705 0.930 . S
C713 C711 1.419 . S
C713 C714 1.362 . S
C714 H706 0.930 . S
C714 C713 1.362 . S
C714 C717 1.409 . S
C715 H707 0.930 1_655 S
C715 C716 1.355 . S
C715 C717 1.415 1_655 S
C716 C715 1.355 . S
C716 C718 1.419 . S
C717 C712 1.425 1_455 S
C717 C714 1.409 . S
C717 C715 1.415 1_455 S
C718 H708 0.930 . S
C718 C716 1.419 . S
C718 C719 1.362 . S
C719 H709 0.930 . S
C719 C712 1.409 . S
C719 C718 1.362 . S
H720 C726 0.930 1_545 S
H721 C729 0.930 . S
H722 C730 0.930 1_556 S
H723 C731 0.930 1_565 S
H724 C734 0.930 . S
H725 C735 0.930 1_554 S
C726 H720 0.930 1_565 S
C726 C727 1.355 . S
C726 C728 1.415 1_565 S
C727 C726 1.355 . S
C727 C729 1.419 . S
C728 C726 1.415 1_545 S
C728 C733 1.425 1_544 S
C728 C735 1.409 1_554 S
C729 H721 0.930 . S
C729 C727 1.419 . S
C729 C730 1.362 . S
C730 H722 0.930 1_554 S
C730 C729 1.362 . S
C730 C733 1.409 1_554 S
C731 H723 0.930 1_545 S
C731 C732 1.355 . S
C731 C733 1.415 1_545 S
C732 C731 1.355 . S
C732 C734 1.419 . S
C733 C728 1.425 1_566 S
C733 C730 1.409 1_556 S
C733 C731 1.415 1_565 S
C734 H724 0.930 . S
C734 C732 1.419 . S
C734 C735 1.362 . S
C735 H725 0.930 1_556 S
C735 C728 1.409 1_556 S
C735 C734 1.362 . S
H736 C742 0.930 . S
H737 C745 0.930 . S
H738 C746 0.930 . S
H739 C747 0.930 . S
H740 C750 0.930 . S
H741 C751 0.930 . S
C742 H736 0.930 . S
C742 C743 1.355 . S
C742 C744 1.415 . S
C743 C742 1.355 . S
C743 C745 1.419 . S
C744 C742 1.415 . S
C744 C749 1.425 . S
C744 C751 1.409 . S
C745 H737 0.930 . S
C745 C743 1.419 . S
C745 C746 1.362 . S
C746 H738 0.930 . S
C746 C745 1.362 . S
C746 C749 1.409 . S
C747 H739 0.930 . S
C747 C748 1.355 . S
C747 C749 1.415 . S
C748 C747 1.355 . S
C748 C750 1.419 . S
C749 C744 1.425 . S
C749 C746 1.409 . S
C749 C747 1.415 . S
C750 H740 0.930 . S
C750 C748 1.419 . S
C750 C751 1.362 . S
C751 H741 0.930 . S
C751 C744 1.409 . S
C751 C750 1.362 . S
H752 C758 0.930 1_655 S
H753 C761 0.930 . S
H754 C762 0.930 . S
H755 C763 0.930 1_455 S
H756 C766 0.930 . S
H757 C767 0.930 . S
C758 H752 0.930 1_455 S
C758 C759 1.355 . S
C758 C760 1.415 1_455 S
C759 C758 1.355 . S
C759 C761 1.419 . S
C760 C758 1.415 1_655 S
C760 C765 1.425 1_655 S
C760 C767 1.409 . S
C761 H753 0.930 . S
C761 C759 1.419 . S
C761 C762 1.362 . S
C762 H754 0.930 . S
C762 C761 1.362 . S
C762 C765 1.409 . S
C763 H755 0.930 1_655 S
C763 C764 1.355 . S
C763 C765 1.415 1_655 S
C764 C763 1.355 . S
C764 C766 1.419 . S
C765 C760 1.425 1_455 S
C765 C762 1.409 . S
C765 C763 1.415 1_455 S
C766 H756 0.930 . S
C766 C764 1.419 . S
C766 C767 1.362 . S
C767 H757 0.930 . S
C767 C760 1.409 . S
C767 C766 1.362 . S
H768 C774 0.930 . S
H769 C777 0.930 . S
H770 C778 0.930 . S
H771 C779 0.930 . S
H772 C782 0.930 . S
H773 C783 0.930 . S
C774 H768 0.930 . S
C774 C775 1.355 . S
C774 C776 1.415 . S
C775 C774 1.355 . S
C775 C777 1.419 . S
C776 C774 1.415 . S
C776 C781 1.425 1_545 S
C776 C783 1.409 . S
C777 H769 0.930 . S
C777 C775 1.419 . S
C777 C778 1.362 1_545 S
C778 H770 0.930 . S
C778 C777 1.362 1_565 S
C778 C781 1.409 . S
C779 H771 0.930 . S
C779 C780 1.355 . S
C779 C781 1.415 . S
C780 C779 1.355 . S
C780 C782 1.419 . S
C781 C776 1.425 1_565 S
C781 C778 1.409 . S
C781 C779 1.415 . S
C782 H772 0.930 . S
C782 C780 1.419 . S
C782 C783 1.362 1_565 S
C783 H773 0.930 . S
C783 C776 1.409 . S
C783 C782 1.362 1_545 S
H784 C790 0.930 . S
H785 C793 0.930 . S
H786 C794 0.930 . S
H787 C795 0.930 . S
H788 C798 0.930 . S
H789 C799 0.930 . S
C790 H784 0.930 . S
C790 C791 1.355 . S
C790 C792 1.415 . S
C791 C790 1.355 . S
C791 C793 1.419 . S
C792 C790 1.415 . S
C792 C797 1.425 . S
C792 C799 1.409 . S
C793 H785 0.930 . S
C793 C791 1.419 . S
C793 C794 1.362 . S
C794 H786 0.930 . S
C794 C793 1.362 . S
C794 C797 1.409 . S
C795 H787 0.930 . S
C795 C796 1.355 . S
C795 C797 1.415 . S
C796 C795 1.355 . S
C796 C798 1.419 . S
C797 C792 1.425 . S
C797 C794 1.409 . S
C797 C795 1.415 . S
C798 H788 0.930 . S
C798 C796 1.419 . S
C798 C799 1.362 . S
C799 H789 0.930 . S
C799 C792 1.409 . S
C799 C798 1.362 . S
H800 C806 0.930 1_455 S
H801 C809 0.930 . S
H802 C810 0.930 . S
H803 C811 0.930 1_655 S
H804 C814 0.930 . S
H805 C815 0.930 . S
C806 H800 0.930 1_655 S
C806 C807 1.355 . S
C806 C808 1.415 1_655 S
C807 C806 1.355 . S
C807 C809 1.419 . S
C808 C806 1.415 1_455 S
C808 C813 1.425 1_455 S
C808 C815 1.409 . S
C809 H801 0.930 . S
C809 C807 1.419 . S
C809 C810 1.362 . S
C810 H802 0.930 . S
C810 C809 1.362 . S
C810 C813 1.409 . S
C811 H803 0.930 1_455 S
C811 C812 1.355 . S
C811 C813 1.415 1_455 S
C812 C811 1.355 . S
C812 C814 1.419 . S
C813 C808 1.425 1_655 S
C813 C810 1.409 . S
C813 C811 1.415 1_655 S
C814 H804 0.930 . S
C814 C812 1.419 . S
C814 C815 1.362 . S
C815 H805 0.930 . S
C815 C808 1.409 . S
C815 C814 1.362 . S
H816 C822 0.930 . S
H817 C825 0.930 . S
H818 C826 0.930 . S
H819 C827 0.930 . S
H820 C830 0.930 . S
H821 C831 0.930 . S
C822 H816 0.930 . S
C822 C823 1.355 . S
C822 C824 1.415 . S
C823 C822 1.355 . S
C823 C825 1.419 . S
C824 C822 1.415 . S
C824 C829 1.425 1_455 S
C824 C831 1.409 . S
C825 H817 0.930 . S
C825 C823 1.419 . S
C825 C826 1.362 1_455 S
C826 H818 0.930 . S
C826 C825 1.362 1_655 S
C826 C829 1.409 . S
C827 H819 0.930 . S
C827 C828 1.355 . S
C827 C829 1.415 . S
C828 C827 1.355 . S
C828 C830 1.419 . S
C829 C824 1.425 1_655 S
C829 C826 1.409 . S
C829 C827 1.415 . S
C830 H820 0.930 . S
C830 C828 1.419 . S
C830 C831 1.362 1_655 S
C831 H821 0.930 . S
C831 C824 1.409 . S
C831 C830 1.362 1_455 S
H832 C838 0.930 . S
H833 C841 0.930 . S
H834 C842 0.930 . S
H835 C843 0.930 . S
H836 C846 0.930 . S
H837 C847 0.930 . S
C838 H832 0.930 . S
C838 C839 1.355 . S
C838 C840 1.415 . S
C839 C838 1.355 . S
C839 C841 1.419 . S
C840 C838 1.415 . S
C840 C845 1.425 1_565 S
C840 C847 1.409 . S
C841 H833 0.930 . S
C841 C839 1.419 . S
C841 C842 1.362 1_565 S
C842 H834 0.930 . S
C842 C841 1.362 1_545 S
C842 C845 1.409 . S
C843 H835 0.930 . S
C843 C844 1.355 . S
C843 C845 1.415 . S
C844 C843 1.355 . S
C844 C846 1.419 . S
C845 C840 1.425 1_545 S
C845 C842 1.409 . S
C845 C843 1.415 . S
C846 H836 0.930 . S
C846 C844 1.419 . S
C846 C847 1.362 1_545 S
C847 H837 0.930 . S
C847 C840 1.409 . S
C847 C846 1.362 1_565 S
H848 C854 0.930 . S
H849 C857 0.930 . S
H850 C858 0.930 . S
H851 C859 0.930 . S
H852 C862 0.930 . S
H853 C863 0.930 . S
C854 H848 0.930 . S
C854 C855 1.355 . S
C854 C856 1.415 . S
C855 C854 1.355 . S
C855 C857 1.419 . S
C856 C854 1.415 . S
C856 C861 1.425 . S
C856 C863 1.409 . S
C857 H849 0.930 . S
C857 C855 1.419 . S
C857 C858 1.362 . S
C858 H850 0.930 . S
C858 C857 1.362 . S
C858 C861 1.409 . S
C859 H851 0.930 . S
C859 C860 1.355 . S
C859 C861 1.415 . S
C860 C859 1.355 . S
C860 C862 1.419 . S
C861 C856 1.425 . S
C861 C858 1.409 . S
C861 C859 1.415 . S
C862 H852 0.930 . S
C862 C860 1.419 . S
C862 C863 1.362 . S
C863 H853 0.930 . S
C863 C856 1.409 . S
C863 C862 1.362 . S
H864 C870 0.930 . S
H865 C873 0.930 . S
H866 C874 0.930 . S
H867 C875 0.930 . S
H868 C878 0.930 . S
H869 C879 0.930 . S
C870 H864 0.930 . S
C870 C871 1.355 . S
C870 C872 1.415 . S
C871 C870 1.355 . S
C871 C873 1.419 . S
C872 C870 1.415 . S
C872 C877 1.425 1_565 S
C872 C879 1.409 1_565 S
C873 H865 0.930 . S
C873 C871 1.419 . S
C873 C874 1.362 . S
C874 H866 0.930 . S
C874 C873 1.362 . S
C874 C877 1.409 1_565 S
C875 H867 0.930 . S
C875 C876 1.355 . S
C875 C877 1.415 . S
C876 C875 1.355 . S
C876 C878 1.419 . S
C877 C872 1.425 1_545 S
C877 C874 1.409 1_545 S
C877 C875 1.415 . S
C878 H868 0.930 . S
C878 C876 1.419 . S
C878 C879 1.362 . S
C879 H869 0.930 . S
C879 C872 1.409 1_545 S
C879 C878 1.362 . S
H880 C886 0.930 . S
H881 C889 0.930 . S
H882 C890 0.930 . S
H883 C891 0.930 . S
H884 C894 0.930 . S
H885 C895 0.930 . S
C886 H880 0.930 . S
C886 C887 1.355 . S
C886 C888 1.415 . S
C887 C886 1.355 . S
C887 C889 1.419 . S
C888 C886 1.415 . S
C888 C893 1.425 . S
C888 C895 1.409 . S
C889 H881 0.930 . S
C889 C887 1.419 . S
C889 C890 1.362 . S
C890 H882 0.930 . S
C890 C889 1.362 . S
C890 C893 1.409 . S
C891 H883 0.930 . S
C891 C892 1.355 . S
C891 C893 1.415 . S
C892 C891 1.355 . S
C892 C894 1.419 . S
C893 C888 1.425 . S
C893 C890 1.409 . S
C893 C891 1.415 . S
C894 H884 0.930 . S
C894 C892 1.419 . S
C894 C895 1.362 . S
C895 H885 0.930 . S
C895 C888 1.409 . S
C895 C894 1.362 . S
H896 C902 0.930 . S
H897 C905 0.930 . S
H898 C906 0.930 . S
H899 C907 0.930 . S
H900 C910 0.930 . S
H901 C911 0.930 . S
C902 H896 0.930 . S
C902 C903 1.355 . S
C902 C904 1.415 . S
C903 C902 1.355 . S
C903 C905 1.419 . S
C904 C902 1.415 . S
C904 C909 1.425 1_655 S
C904 C911 1.409 1_655 S
C905 H897 0.930 . S
C905 C903 1.419 . S
C905 C906 1.362 . S
C906 H898 0.930 . S
C906 C905 1.362 . S
C906 C909 1.409 1_655 S
C907 H899 0.930 . S
C907 C908 1.355 . S
C907 C909 1.415 . S
C908 C907 1.355 . S
C908 C910 1.419 . S
C909 C904 1.425 1_455 S
C909 C906 1.409 1_455 S
C909 C907 1.415 . S
C910 H900 0.930 . S
C910 C908 1.419 . S
C910 C911 1.362 . S
C911 H901 0.930 . S
C911 C904 1.409 1_455 S
C911 C910 1.362 . S
H912 C918 0.930 . S
H913 C921 0.930 . S
H914 C922 0.930 . S
H915 C923 0.930 . S
H916 C926 0.930 . S
H917 C927 0.930 . S
C918 H912 0.930 . S
C918 C919 1.355 . S
C918 C920 1.441 . S
C919 C918 1.355 . S
C919 C921 1.419 . S
C920 C918 1.441 . S
C920 C925 1.406 1_545 S
C920 C927 1.393 1_545 S
C921 H913 0.930 . S
C921 C919 1.419 . S
C921 C922 1.362 . S
C922 H914 0.930 . S
C922 C921 1.362 . S
C922 C925 1.393 1_545 S
C923 H915 0.930 . S
C923 C924 1.355 . S
C923 C925 1.441 . S
C924 C923 1.355 . S
C924 C926 1.419 . S
C925 C920 1.406 1_565 S
C925 C922 1.393 1_565 S
C925 C923 1.441 . S
C926 H916 0.930 . S
C926 C924 1.419 . S
C926 C927 1.362 . S
C927 H917 0.930 . S
C927 C920 1.393 1_565 S
C927 C926 1.362 . S
H928 C934 0.930 . S
H929 C937 0.930 . S
H930 C938 0.930 . S
H931 C939 0.930 . S
H932 C942 0.930 . S
H933 C943 0.930 . S
C934 H928 0.930 . S
C934 C935 1.355 . S
C934 C936 1.415 . S
C935 C934 1.355 . S
C935 C937 1.419 . S
C936 C934 1.415 . S
C936 C941 1.425 . S
C936 C943 1.409 . S
C937 H929 0.930 . S
C937 C935 1.419 . S
C937 C938 1.362 . S
C938 H930 0.930 . S
C938 C937 1.362 . S
C938 C941 1.409 . S
C939 H931 0.930 . S
C939 C940 1.355 . S
C939 C941 1.415 . S
C940 C939 1.355 . S
C940 C942 1.419 . S
C941 C936 1.425 . S
C941 C938 1.409 . S
C941 C939 1.415 . S
C942 H932 0.930 . S
C942 C940 1.419 . S
C942 C943 1.362 . S
C943 H933 0.930 . S
C943 C936 1.409 . S
C943 C942 1.362 . S
H944 C950 0.930 . S
H945 C953 0.930 . S
H946 C954 0.930 . S
H947 C955 0.930 . S
H948 C958 0.930 . S
H949 C959 0.930 . S
C950 H944 0.930 . S
C950 C951 1.355 . S
C950 C952 1.418 . S
C951 C950 1.355 . S
C951 C953 1.419 . S
C952 C950 1.418 . S
C952 C957 1.427 1_455 S
C952 C959 1.405 1_455 S
C953 H945 0.930 . S
C953 C951 1.419 . S
C953 C954 1.362 . S
C954 H946 0.930 . S
C954 C953 1.362 . S
C954 C957 1.406 1_455 S
C955 H947 0.930 . S
C955 C956 1.355 . S
C955 C957 1.417 . S
C956 C955 1.355 . S
C956 C958 1.419 . S
C957 C952 1.427 1_655 S
C957 C954 1.406 1_655 S
C957 C955 1.417 . S
C958 H948 0.930 . S
C958 C956 1.419 . S
C958 C959 1.362 . S
C959 H949 0.930 . S
C959 C952 1.405 1_655 S
C959 C958 1.362 . S
H960 C966 0.930 . S
H961 C969 0.930 . S
H962 C970 0.930 . S
H963 C971 0.930 . S
H964 C974 0.930 . S
H965 C975 0.930 . S
C966 H960 0.930 . S
C966 C967 1.355 . S
C966 C968 1.415 . S
C967 C966 1.355 . S
C967 C969 1.419 . S
C968 C966 1.415 . S
C968 C973 1.425 . S
C968 C975 1.409 . S
C969 H961 0.930 . S
C969 C967 1.419 . S
C969 C970 1.362 . S
C970 H962 0.930 . S
C970 C969 1.362 . S
C970 C973 1.409 . S
C971 H963 0.930 . S
C971 C972 1.355 . S
C971 C973 1.415 . S
C972 C971 1.355 . S
C972 C974 1.419 . S
C973 C968 1.425 . S
C973 C970 1.409 . S
C973 C971 1.415 . S
C974 H964 0.930 . S
C974 C972 1.419 . S
C974 C975 1.362 . S
C975 H965 0.930 . S
C975 C968 1.409 . S
C975 C974 1.362 . S
H976 C982 0.930 . S
H977 C985 0.930 . S
H978 C986 0.930 . S
H979 C987 0.930 . S
H980 C990 0.930 . S
H981 C991 0.930 . S
C982 H976 0.930 . S
C982 C983 1.355 . S
C982 C984 1.415 . S
C983 C982 1.355 . S
C983 C985 1.419 . S
C984 C982 1.415 . S
C984 C989 1.425 . S
C984 C991 1.409 . S
C985 H977 0.930 . S
C985 C983 1.419 . S
C985 C986 1.362 . S
C986 H978 0.930 . S
C986 C985 1.362 . S
C986 C989 1.409 . S
C987 H979 0.930 . S
C987 C988 1.355 . S
C987 C989 1.415 . S
C988 C987 1.355 . S
C988 C990 1.419 . S
C989 C984 1.425 . S
C989 C986 1.409 . S
C989 C987 1.415 . S
C990 H980 0.930 . S
C990 C988 1.419 . S
C990 C991 1.362 . S
C991 H981 0.930 . S
C991 C984 1.409 . S
C991 C990 1.362 . S
H992 C998 0.930 . S
H993 C1001 0.930 . S
H994 C1002 0.930 . S
H995 C1003 0.930 . S
H996 C1006 0.930 . S
H997 C1007 0.930 . S
C998 H992 0.930 . S
C998 C999 1.355 . S
C998 C1000 1.415 . S
C999 C998 1.355 . S
C999 C1001 1.419 . S
C1000 C998 1.415 . S
C1000 C1005 1.425 . S
C1000 C1007 1.409 . S
C1001 H993 0.930 . S
C1001 C999 1.419 . S
C1001 C1002 1.362 . S
C1002 H994 0.930 . S
C1002 C1001 1.362 . S
C1002 C1005 1.409 . S
C1003 H995 0.930 . S
C1003 C1004 1.355 . S
C1003 C1005 1.415 . S
C1004 C1003 1.355 . S
C1004 C1006 1.419 . S
C1005 C1000 1.425 . S
C1005 C1002 1.409 . S
C1005 C1003 1.415 . S
C1006 H996 0.930 . S
C1006 C1004 1.419 . S
C1006 C1007 1.362 . S
C1007 H997 0.930 . S
C1007 C1000 1.409 . S
C1007 C1006 1.362 . S
H1008 C1014 0.930 . S
H1009 C1017 0.930 . S
H1010 C1018 0.930 . S
H1011 C1019 0.930 . S
H1012 C1022 0.930 . S
H1013 C1023 0.930 . S
C1014 H1008 0.930 . S
C1014 C1015 1.355 . S
C1014 C1016 1.415 . S
C1015 C1014 1.355 . S
C1015 C1017 1.419 . S
C1016 C1014 1.415 . S
C1016 C1021 1.425 . S
C1016 C1023 1.409 . S
C1017 H1009 0.930 . S
C1017 C1015 1.419 . S
C1017 C1018 1.362 . S
C1018 H1010 0.930 . S
C1018 C1017 1.362 . S
C1018 C1021 1.409 . S
C1019 H1011 0.930 . S
C1019 C1020 1.355 . S
C1019 C1021 1.415 . S
C1020 C1019 1.355 . S
C1020 C1022 1.419 . S
C1021 C1016 1.425 . S
C1021 C1018 1.409 . S
C1021 C1019 1.415 . S
C1022 H1012 0.930 . S
C1022 C1020 1.419 . S
C1022 C1023 1.362 . S
C1023 H1013 0.930 . S
C1023 C1016 1.409 . S
C1023 C1022 1.362 . S
H1024 C1030 0.930 . S
H1025 C1033 0.930 . S
H1026 C1034 0.930 . S
H1027 C1035 0.930 . S
H1028 C1038 0.930 . S
H1029 C1039 0.930 . S
C1030 H1024 0.930 . S
C1030 C1031 1.355 . S
C1030 C1032 1.415 . S
C1031 C1030 1.355 . S
C1031 C1033 1.419 . S
C1032 C1030 1.415 . S
C1032 C1037 1.425 . S
C1032 C1039 1.409 . S
C1033 H1025 0.930 . S
C1033 C1031 1.419 . S
C1033 C1034 1.362 . S
C1034 H1026 0.930 . S
C1034 C1033 1.362 . S
C1034 C1037 1.409 . S
C1035 H1027 0.930 . S
C1035 C1036 1.355 . S
C1035 C1037 1.415 . S
C1036 C1035 1.355 . S
C1036 C1038 1.419 . S
C1037 C1032 1.425 . S
C1037 C1034 1.409 . S
C1037 C1035 1.415 . S
C1038 H1028 0.930 . S
C1038 C1036 1.419 . S
C1038 C1039 1.362 . S
C1039 H1029 0.930 . S
C1039 C1032 1.409 . S
C1039 C1038 1.362 . S
H1040 C1046 0.930 . S
H1041 C1049 0.930 . S
H1042 C1050 0.930 . S
H1043 C1051 0.930 . S
H1044 C1054 0.930 . S
H1045 C1055 0.930 . S
C1046 H1040 0.930 . S
C1046 C1047 1.355 . S
C1046 C1048 1.415 . S
C1047 C1046 1.355 . S
C1047 C1049 1.419 . S
C1048 C1046 1.415 . S
C1048 C1053 1.425 . S
C1048 C1055 1.409 . S
C1049 H1041 0.930 . S
C1049 C1047 1.419 . S
C1049 C1050 1.362 . S
C1050 H1042 0.930 . S
C1050 C1049 1.362 . S
C1050 C1053 1.409 . S
C1051 H1043 0.930 . S
C1051 C1052 1.355 . S
C1051 C1053 1.415 . S
C1052 C1051 1.355 . S
C1052 C1054 1.419 . S
C1053 C1048 1.425 . S
C1053 C1050 1.409 . S
C1053 C1051 1.415 . S
C1054 H1044 0.930 . S
C1054 C1052 1.419 . S
C1054 C1055 1.362 . S
C1055 H1045 0.930 . S
C1055 C1048 1.409 . S
C1055 C1054 1.362 . S
C487 C9 1.139 . S
C492 C329 1.187 . S
C503 C49 1.171 . S
C508 C369 1.210 . S
C519 C89 1.214 . S
C524 C409 1.182 . S
C535 C449 1.127 . S
C540 C129 1.131 . S
C551 C169 1.197 . S
C556 C249 1.214 . S
C567 C289 1.144 . S
C572 C209 1.192 . S
C583 C415 1.713 . S
C588 C15 1.742 . S
C599 C455 1.766 . S
C604 C55 1.772 . S
C615 C95 1.768 . S
C620 C255 1.748 . S
C631 C295 1.670 . S
C636 C135 1.672 . S
C647 C335 1.678 . S
C652 C175 1.703 . S
C663 C215 1.770 . S
C668 C375 1.754 . S
C679 C299 4.286 . S
C684 C19 4.286 . S
C695 C339 4.303 . S
C700 C59 4.286 . S
C711 C379 4.288 . S
C716 C99 4.305 . S
C727 C139 4.289 . S
C732 C419 4.305 . S
C743 C179 4.282 . S
C748 C459 4.292 . S
C759 C219 4.305 . S
C764 C259 4.299 . S
C775 C18 0.846 . S
C780 C138 0.785 . S
C791 C58 0.849 . S
C796 C178 0.801 . S
C807 C98 0.714 . S
C812 C218 0.672 . S
C823 C378 0.724 . S
C828 C258 0.814 . S
C839 C298 0.803 . S
C844 C418 0.849 . S
C855 C458 0.781 . S
C860 C338 0.693 . S
C871 C286 0.843 . S
C876 C6 0.874 . S
C887 C326 0.695 . S
C892 C46 0.655 . S
C903 C86 0.765 . S
C908 C366 0.838 . S
C919 C406 0.858 . S
C924 C126 0.797 . S
C935 C446 0.840 . S
C940 C166 0.767 . S
C951 C206 0.865 . S
C956 C246 0.870 . S
C967 C10 4.772 . S
C972 C410 4.773 . S
C983 C50 4.769 . S
C988 C450 4.773 1_556 S
C999 C90 4.769 1_554 S
C1004 C250 4.774 . S
C1015 C130 4.774 . S
C1020 C290 4.769 . S
C1031 C170 4.769 . S
C1036 C330 4.770 1_556 S
C1047 C370 4.770 . S
C1052 C210 4.774 1_554 S
