# Generated by pormake.
# Topology xfx, (5)-cn, num edge types: 1
# Building blocks:
#     Node 0, Type 0, BuildingBlock: BEQFEK_clean_sbu_0, # of connection points: 5
#     Node 1, Type 0, BuildingBlock: BEQFEK_clean_sbu_0, # of connection points: 5
#     Node 2, Type 0, BuildingBlock: BEQFEK_clean_sbu_0, # of connection points: 5
#     Node 3, Type 0, BuildingBlock: BEQFEK_clean_sbu_0, # of connection points: 5
#     Node 4, Type 0, BuildingBlock: BEQFEK_clean_sbu_0, # of connection points: 5
#     Node 5, Type 0, BuildingBlock: BEQFEK_clean_sbu_0, # of connection points: 5
#     Node 6, Type 0, BuildingBlock: BEQFEK_clean_sbu_0, # of connection points: 5
#     Node 7, Type 0, BuildingBlock: BEQFEK_clean_sbu_0, # of connection points: 5
#     Edge 8, Type (0, 0), BuildingBlock: UVAHIK_clean_linker_0, # of connection points: 2
#     Edge 9, Type (0, 0), BuildingBlock: UVAHIK_clean_linker_0, # of connection points: 2
#     Edge 10, Type (0, 0), BuildingBlock: UVAHIK_clean_linker_0, # of connection points: 2
#     Edge 11, Type (0, 0), BuildingBlock: UVAHIK_clean_linker_0, # of connection points: 2
#     Edge 12, Type (0, 0), BuildingBlock: UVAHIK_clean_linker_0, # of connection points: 2
#     Edge 13, Type (0, 0), BuildingBlock: UVAHIK_clean_linker_0, # of connection points: 2
#     Edge 14, Type (0, 0), BuildingBlock: UVAHIK_clean_linker_0, # of connection points: 2
#     Edge 15, Type (0, 0), BuildingBlock: UVAHIK_clean_linker_0, # of connection points: 2
#     Edge 16, Type (0, 0), BuildingBlock: UVAHIK_clean_linker_0, # of connection points: 2
#     Edge 17, Type (0, 0), BuildingBlock: UVAHIK_clean_linker_0, # of connection points: 2
#     Edge 18, Type (0, 0), BuildingBlock: UVAHIK_clean_linker_0, # of connection points: 2
#     Edge 19, Type (0, 0), BuildingBlock: UVAHIK_clean_linker_0, # of connection points: 2
#     Edge 20, Type (0, 0), BuildingBlock: UVAHIK_clean_linker_0, # of connection points: 2
#     Edge 21, Type (0, 0), BuildingBlock: UVAHIK_clean_linker_0, # of connection points: 2
#     Edge 22, Type (0, 0), BuildingBlock: UVAHIK_clean_linker_0, # of connection points: 2
#     Edge 23, Type (0, 0), BuildingBlock: UVAHIK_clean_linker_0, # of connection points: 2
#     Edge 24, Type (0, 0), BuildingBlock: UVAHIK_clean_linker_0, # of connection points: 2
#     Edge 25, Type (0, 0), BuildingBlock: UVAHIK_clean_linker_0, # of connection points: 2
#     Edge 26, Type (0, 0), BuildingBlock: UVAHIK_clean_linker_0, # of connection points: 2
#     Edge 27, Type (0, 0), BuildingBlock: UVAHIK_clean_linker_0, # of connection points: 2
# Relax obj value: 0.362
# Max RMSD: 0.205
# Mean RMSD: 0.205
data_MOF--net-xfx--node1-BEQFEK_clean_sbu_0--edge1-UVAHIK_clean_linker_0
_symmetry_space_group_name_H-M    P1
_symmetry_Int_Tables_number       1
_symmetry_cell_setting            triclinic
loop_
_symmetry_equiv_pos_as_xyz
'x, y, z'
_cell_length_a     50.509811
_cell_length_b     50.070239
_cell_length_c     42.760884
_cell_angle_alpha  89.912141
_cell_angle_beta   89.768367
_cell_angle_gamma 79.642026
loop_
_atom_site_label
_atom_site_type_symbol
_atom_site_fract_x
_atom_site_fract_y
_atom_site_fract_z
_atom_type_partial_charge
Co0 Co 0.31972 0.01872 0.3841 0.0
Co1 Co 0.30961 0.96919 0.42451 0.0
C2 C 0.32296 0.96332 0.35594 0.0
O3 O 0.32407 0.98844 0.35382 0.0
O4 O 0.31738 0.95301 0.38187 0.0
C5 C 0.31079 0.05529 0.33288 0.0
O6 O 0.29793 0.03681 0.32171 0.0
C7 C 0.28114 0.92482 0.44038 0.0
C8 C 0.28674 0.92068 0.49144 0.0
C9 C 0.27429 0.91069 0.46628 0.0
N10 N 0.29691 0.94227 0.44978 0.0
N11 N 0.30041 0.93948 0.48031 0.0
C12 C 0.27047 0.92409 0.40785 0.0
H13 H 0.26889 0.94432 0.39665 0.0
H14 H 0.25044 0.91794 0.40788 0.0
H15 H 0.28461 0.90918 0.39386 0.0
C16 C 0.26639 0.04315 0.40914 0.0
N17 N 0.28707 0.02218 0.40639 0.0
N18 N 0.28229 0.00168 0.42348 0.0
C19 C 0.25802 0.0091 0.43758 0.0
C20 C 0.24707 0.03561 0.42877 0.0
C21 C 0.26612 0.07061 0.39508 0.0
H22 H 0.28623 0.0763 0.3975 0.0
H23 H 0.26135 0.06992 0.36983 0.0
H24 H 0.25097 0.08641 0.4065 0.0
O25 O 0.35056 0.01271 0.41289 0.0
O26 O 0.34513 0.97679 0.4413 0.0
H27 H 0.25847 0.98455 0.47858 0.0
H28 H 0.22513 0.00101 0.4668 0.0
C29 C 0.24521 0.99092 0.45831 0.0
H30 H 0.2428 0.97249 0.44512 0.0
H31 H 0.31141 0.95101 0.49369 0.0
O32 O 0.3214 0.05191 0.35981 0.0
C33 C 0.3587 -0.00483 0.43395 0.0
Co34 Co 0.98042 0.67996 0.56979 0.0
Co35 Co 0.02779 0.68831 0.52542 0.0
C36 C 0.03562 0.67558 0.59475 0.0
O37 O 0.01063 0.67645 0.59944 0.0
O38 O 0.04468 0.67923 0.56752 0.0
C39 C 0.94307 0.68964 0.62065 0.0
O40 O 0.95952 0.70514 0.63105 0.0
C41 C 0.06747 0.72194 0.50826 0.0
C42 C 0.08243 0.70567 0.46233 0.0
C43 C 0.08543 0.72532 0.4843 0.0
N44 N 0.05454 0.70159 0.50055 0.0
N45 N 0.06357 0.69196 0.47302 0.0
C46 C 0.06321 0.73684 0.53873 0.0
H47 H 0.0526 0.72582 0.55573 0.0
H48 H 0.05044 0.75702 0.53491 0.0
H49 H 0.08277 0.7398 0.54861 0.0
C50 C 0.95513 0.73273 0.54293 0.0
N51 N 0.97635 0.71243 0.54654 0.0
N52 N -0.00434 0.71592 0.52702 0.0
C53 C 0.98702 0.73866 0.51003 0.0
C54 C 0.96106 0.75007 0.51961 0.0
C55 C 0.92963 0.73532 0.56156 0.0
H56 H 0.93437 0.73705 0.58664 0.0
H57 H 0.91476 0.75352 0.55508 0.0
H58 H 0.92065 0.71686 0.55834 0.0
O59 O 0.98593 0.64848 0.54094 0.0
O60 O 0.01936 0.65315 0.50841 0.0
H61 H -0.01173 0.76114 0.467 0.0
H62 H 0.01731 0.75912 0.4917 0.0
C63 C 0.00201 0.74769 0.4829 0.0
H64 H 0.01245 0.72982 0.46967 0.0
H65 H 0.05697 0.67597 0.46161 0.0
O66 O 0.94789 0.67762 0.59457 0.0
C67 C 0.00148 0.63993 0.51814 0.0
Co68 Co 0.67791 0.9819 0.37994 0.0
Co69 Co 0.68464 0.03067 0.42333 0.0
C70 C 0.67302 0.038 0.35429 0.0
O71 O 0.67378 0.01271 0.35042 0.0
O72 O 0.67651 0.04773 0.38116 0.0
C73 C 0.68789 0.94638 0.32758 0.0
O74 O 0.69979 0.96566 0.31644 0.0
C75 C 0.71249 0.07492 0.43998 0.0
C76 C 0.70415 0.08074 0.49045 0.0
C77 C 0.71799 0.08989 0.46571 0.0
N78 N 0.69616 0.05785 0.44904 0.0
N79 N 0.69103 0.0616 0.47921 0.0
C80 C 0.72484 0.07454 0.40807 0.0
H81 H 0.72605 0.05423 0.39723 0.0
H82 H 0.74527 0.07974 0.40918 0.0
H83 H 0.71201 0.08973 0.39312 0.0
C84 C 0.73113 0.95867 0.40566 0.0
N85 N 0.70988 0.97905 0.40303 0.0
N86 N 0.71301 -0.00094 0.42177 0.0
C87 C 0.73661 0.99178 0.43715 0.0
C88 C 0.74896 0.96604 0.42719 0.0
C89 C 0.73314 0.93176 0.38973 0.0
H90 H 0.71375 0.92448 0.392 0.0
H91 H 0.73731 0.9342 0.3645 0.0
H92 H 0.74934 0.91626 0.3998 0.0
O93 O 0.64635 0.98634 0.40832 0.0
O94 O 0.64976 0.02114 0.43949 0.0
H95 H 0.73177 0.01534 0.47914 0.0
H96 H 0.76604 -0.0015 0.47169 0.0
C97 C 0.74719 0.00916 0.46077 0.0
H98 H 0.75138 0.02776 0.44914 0.0
H99 H 0.67922 0.05058 0.4923 0.0
O100 O 0.67763 0.94888 0.35483 0.0
C101 C 0.63723 0.0025 0.43042 0.0
Co102 Co 0.01327 0.32107 0.56658 0.0
Co103 Co 0.96472 0.31102 0.52509 0.0
C104 C 0.95829 0.32457 0.59389 0.0
O105 O 0.98324 0.32488 0.59706 0.0
O106 O 0.9486 0.31978 0.56746 0.0
C107 C 0.04964 0.31246 0.61766 0.0
O108 O 0.03187 0.29867 0.62878 0.0
C109 C 0.91986 0.28295 0.50968 0.0
C110 C 0.9177 0.28642 0.45825 0.0
C111 C 0.90673 0.27498 0.48366 0.0
N112 N 0.93813 0.29778 0.49995 0.0
N113 N 0.93649 0.30001 0.46919 0.0
C114 C 0.91448 0.27789 0.54345 0.0
H115 H 0.90929 0.29762 0.55573 0.0
H116 H 0.93296 0.26631 0.55433 0.0
H117 H 0.89743 0.26703 0.54682 0.0
C118 C 0.03809 0.26767 0.54114 0.0
N119 N 0.01706 0.28827 0.54415 0.0
N120 N -0.00308 0.28344 0.5269 0.0
C121 C 0.00458 0.25914 0.51262 0.0
C122 C 0.03093 0.24829 0.52127 0.0
C123 C 0.06531 0.26785 0.55481 0.0
H124 H 0.07038 0.28841 0.55269 0.0
H125 H 0.06499 0.26251 0.57998 0.0
H126 H 0.08119 0.25317 0.54288 0.0
O127 O 0.00713 0.35224 0.5376 0.0
O128 O 0.97268 0.34647 0.50761 0.0
H129 H 0.98209 0.25878 0.47047 0.0
H130 H -0.00372 0.22532 0.485 0.0
C131 C 0.98677 0.24622 0.4918 0.0
H132 H 0.96763 0.24532 0.50414 0.0
H133 H 0.94867 0.31023 0.45557 0.0
O134 O 0.046 0.32329 0.59077 0.0
C135 C -0.00946 0.36027 0.51573 0.0
Co136 Co 0.8185 0.51793 0.88309 0.0
Co137 Co 0.81018 0.46896 0.92532 0.0
C138 C 0.82258 0.46231 0.85637 0.0
O139 O 0.82212 0.48761 0.8529 0.0
O140 O 0.81875 0.45231 0.88306 0.0
C141 C 0.80667 0.5571 0.8339 0.0
O142 O 0.78921 0.54208 0.82509 0.0
C143 C 0.78229 0.42433 0.94118 0.0
C144 C 0.78865 0.41945 -0.00795 0.0
C145 C 0.77595 0.40971 0.96691 0.0
N146 N 0.798 0.4418 0.95063 0.0
N147 N 0.80196 0.43858 -0.01896 0.0
C148 C 0.7712 0.42402 0.9088 0.0
H149 H 0.76972 0.44432 0.89779 0.0
H150 H 0.75104 0.41812 0.90911 0.0
H151 H 0.785 0.40908 0.89448 0.0
C152 C 0.76538 0.5422 0.90939 0.0
N153 N 0.78624 0.52145 0.90621 0.0
N154 N 0.78217 0.50098 0.92385 0.0
C155 C 0.75816 0.50818 0.93862 0.0
C156 C 0.74666 0.53449 0.92969 0.0
C157 C 0.76449 0.56985 0.89556 0.0
H158 H 0.78486 0.57513 0.89555 0.0
H159 H 0.75721 0.5699 0.87113 0.0
H160 H 0.7507 0.58557 0.9089 0.0
O161 O 0.84963 0.51252 0.91161 0.0
O162 O 0.84508 0.47768 0.94229 0.0
H163 H 0.76022 0.48387 -0.02002 0.0
H164 H 0.72642 0.50008 0.96961 0.0
C165 C 0.74623 0.49004 0.96029 0.0
H166 H 0.74348 0.47149 0.94756 0.0
H167 H 0.81307 0.45 -0.00556 0.0
O168 O 0.82053 0.55072 0.85839 0.0
C169 C 0.85811 0.49612 0.93365 0.0
Co170 Co 0.48007 0.1803 0.06853 0.0
Co171 Co 0.52796 0.18917 0.02504 0.0
C172 C 0.53546 0.17523 0.09384 0.0
O173 O 0.51042 0.17615 0.09816 0.0
O174 O 0.54474 0.17923 0.06685 0.0
C175 C 0.44451 0.19214 0.11975 0.0
O176 O 0.462 0.20744 0.12761 0.0
C177 C 0.56972 0.22107 0.00863 0.0
C178 C 0.5808 0.20784 0.9604 0.0
C179 C 0.58632 0.22534 -0.01633 0.0
N180 N 0.55493 0.20236 0.00023 0.0
N181 N 0.56175 0.1945 0.97137 0.0
C182 C 0.56844 0.23389 0.04039 0.0
H183 H 0.55904 0.2221 0.05767 0.0
H184 H 0.55591 0.25445 0.0394 0.0
H185 H 0.58891 0.23577 0.04836 0.0
C186 C 0.45534 0.23368 0.04266 0.0
N187 N 0.4763 0.21303 0.04577 0.0
N188 N 0.49605 0.21708 0.02721 0.0
C189 C 0.48806 0.24068 0.01156 0.0
C190 C 0.46207 0.25214 0.02115 0.0
C191 C 0.4283 0.23425 0.05744 0.0
H192 H 0.42305 0.2137 0.05683 0.0
H193 H 0.42901 0.24068 0.08218 0.0
H194 H 0.41232 0.24854 0.04525 0.0
O195 O 0.48541 0.14894 0.03955 0.0
O196 O 0.51903 0.15427 0.00758 0.0
H197 H 0.51296 0.23582 0.97055 0.0
H198 H 0.49347 0.26967 -0.02474 0.0
C199 C 0.5049 0.25186 -0.01231 0.0
H200 H 0.5221 0.25841 -0.00051 0.0
H201 H 0.55334 0.1801 0.9591 0.0
O202 O 0.44787 0.17886 0.0943 0.0
C203 C 0.50122 0.14073 0.01683 0.0
Co204 Co 0.17481 0.48349 0.88333 0.0
Co205 Co 0.18434 0.5323 0.92513 0.0
C206 C 0.17191 0.53921 0.85648 0.0
O207 O 0.17154 0.51404 0.85344 0.0
O208 O 0.17626 0.54923 0.88292 0.0
C209 C 0.186 0.44774 0.83208 0.0
O210 O 0.20135 0.46522 0.82403 0.0
C211 C 0.21323 0.57617 0.94093 0.0
C212 C 0.20668 0.58115 -0.0082 0.0
C213 C 0.21976 0.59062 0.96663 0.0
N214 N 0.19707 0.55906 0.95045 0.0
N215 N 0.19301 0.56234 -0.01914 0.0
C216 C 0.22453 0.57623 0.90852 0.0
H217 H 0.22546 0.55605 0.89746 0.0
H218 H 0.24497 0.58146 0.90879 0.0
H219 H 0.21119 0.59157 0.89427 0.0
C220 C 0.22751 0.45833 0.90905 0.0
N221 N 0.20706 0.47949 0.90612 0.0
N222 N 0.21174 0.49981 0.92348 0.0
C223 C 0.23578 0.49211 0.93783 0.0
C224 C 0.24665 0.46559 0.92895 0.0
C225 C 0.2276 0.43088 0.89515 0.0
H226 H 0.20706 0.42601 0.896 0.0
H227 H 0.23415 0.43096 0.87037 0.0
H228 H 0.24147 0.41482 0.90785 0.0
O229 O 0.14358 0.48933 0.91196 0.0
O230 O 0.14902 0.52417 0.94207 0.0
H231 H 0.23481 0.51647 -0.02102 0.0
H232 H 0.26828 0.49979 0.96763 0.0
C233 C 0.24841 0.51005 0.95889 0.0
H234 H 0.25123 0.52847 0.94587 0.0
H235 H 0.18156 0.55119 -0.0057 0.0
O236 O 0.17308 0.45106 0.85776 0.0
C237 C 0.13543 0.50609 0.93382 0.0
Co238 Co 0.51604 0.82232 0.06594 0.0
Co239 Co 0.46651 0.8118 0.02646 0.0
C240 C 0.46114 0.8261 0.09477 0.0
O241 O 0.48603 0.82724 0.0965 0.0
O242 O 0.45085 0.82016 0.06913 0.0
C243 C 0.55263 0.81073 0.11593 0.0
O244 O 0.53553 0.79514 0.12441 0.0
C245 C 0.4218 0.78344 0.01089 0.0
C246 C 0.41914 0.78784 0.95957 0.0
C247 C 0.40856 0.77577 -0.01521 0.0
N248 N 0.43978 0.79869 0.00138 0.0
N249 N 0.43783 0.80148 0.97069 0.0
C250 C 0.41689 0.77753 0.04455 0.0
H251 H 0.41224 0.7969 0.05758 0.0
H252 H 0.4354 0.76537 0.05472 0.0
H253 H 0.39966 0.76689 0.04779 0.0
C254 C 0.54018 0.7685 0.0409 0.0
N255 N 0.51927 0.7892 0.04419 0.0
N256 N 0.49869 0.78415 0.02787 0.0
C257 C 0.50591 0.75956 0.01407 0.0
C258 C 0.53244 0.74879 0.02201 0.0
C259 C 0.56787 0.76882 0.05313 0.0
H260 H 0.5724 0.78963 0.05178 0.0
H261 H 0.56891 0.7622 0.07793 0.0
H262 H 0.58338 0.75496 0.03962 0.0
O263 O 0.51041 0.85287 0.03633 0.0
O264 O 0.47441 0.8474 0.00878 0.0
H265 H 0.48203 0.75862 0.97308 0.0
H266 H 0.49693 0.72537 -0.01239 0.0
C267 C 0.48754 0.7463 -0.00558 0.0
H268 H 0.46887 0.74537 0.00774 0.0
H269 H 0.44976 0.8121 0.95721 0.0
O270 O 0.54865 0.82408 0.09056 0.0
C271 C 0.49296 0.86087 0.01534 0.0
C272 C 0.60211 0.9751 0.44438 0.0
C273 C 0.61038 0.00043 0.44349 0.0
C274 C 0.57546 0.97319 0.45152 0.0
C275 C 0.50903 0.01331 0.47883 0.0
H276 H 0.48091 0.95932 0.43036 0.0
C277 C 0.39651 0.01914 0.44764 0.0
C278 C 0.38589 -0.005 0.44722 0.0
C279 C 0.42369 0.01867 0.45433 0.0
C280 C 0.48848 0.97422 0.4445 0.0
H281 H 0.59734 0.04358 0.45049 0.0
H282 H 0.55053 0.04055 0.46176 0.0
H283 H 0.5286 0.96089 0.42813 0.0
H284 H 0.39534 0.95157 0.45491 0.0
H285 H 0.44308 0.95068 0.46618 0.0
H286 H 0.46823 0.02746 0.49365 0.0
C287 C 0.56472 0.02192 0.4578 0.0
C288 C 0.516 0.97513 0.44334 0.0
C289 C 0.59163 0.02375 0.45129 0.0
C290 C 0.40283 0.97052 0.45525 0.0
C291 C 0.43022 0.97 0.46142 0.0
C292 C 0.48136 0.01263 0.4796 0.0
C293 C 0.55604 -0.00335 0.45719 0.0
C294 C 0.52677 -0.00518 0.46027 0.0
C295 C 0.44109 -0.006 0.46028 0.0
C296 C 0.47073 -0.00679 0.46222 0.0
H297 H 0.61617 0.95671 0.43875 0.0
H298 H 0.57002 0.95325 0.45182 0.0
H299 H 0.51641 0.02848 0.49266 0.0
H300 H 0.384 0.03834 0.44157 0.0
H301 H 0.43139 0.03749 0.45305 0.0
C302 C 0.97408 0.60515 0.50329 0.0
C303 C -0.00066 0.61309 0.50472 0.0
C304 C 0.97193 0.57841 0.49601 0.0
C305 C 0.01133 0.51098 0.46966 0.0
H306 H 0.95638 0.48358 0.51724 0.0
C307 C 0.01506 0.39793 0.50214 0.0
C308 C -0.00904 0.38753 0.50214 0.0
C309 C 0.01507 0.42522 0.49509 0.0
C310 C 0.97155 0.49095 0.50334 0.0
H311 H 0.04216 0.59943 0.49854 0.0
H312 H 0.03868 0.55238 0.48706 0.0
H313 H 0.95857 0.53154 0.51925 0.0
H314 H 0.94812 0.39743 0.49332 0.0
H315 H 0.94804 0.44541 0.48144 0.0
H316 H 0.0251 0.46968 0.45536 0.0
C317 C 0.02031 0.56692 0.49067 0.0
C318 C 0.97282 0.51862 0.50437 0.0
C319 C 0.02239 0.59395 0.49729 0.0
C320 C 0.96703 0.40477 0.49332 0.0
C321 C 0.96696 0.43228 0.48678 0.0
C322 C 0.01028 0.48315 0.46903 0.0
C323 C -0.00494 0.55855 0.49079 0.0
C324 C -0.00714 0.52913 0.48777 0.0
C325 C -0.0091 0.44296 0.48834 0.0
C326 C -0.00949 0.47278 0.4861 0.0
H327 H 0.95592 0.61954 0.50865 0.0
H328 H 0.95204 0.57323 0.4953 0.0
H329 H 0.02677 0.51816 0.45608 0.0
H330 H 0.03384 0.38517 0.50883 0.0
H331 H 0.03381 0.43278 0.4967 0.0
C332 C 0.8926 0.52326 0.94984 0.0
C333 C 0.88471 0.49785 0.94727 0.0
C334 C 0.91917 0.52519 0.95702 0.0
C335 C 0.98628 0.48467 -0.01912 0.0
H336 H 0.01296 0.54121 0.93482 0.0
C337 C 0.09798 0.48132 0.94686 0.0
C338 C 0.1084 0.50556 0.9474 0.0
C339 C 0.07098 0.48127 0.95422 0.0
C340 C 0.0058 0.52558 0.94831 0.0
H341 H 0.8983 0.45449 0.95139 0.0
H342 H 0.94503 0.45761 0.96274 0.0
H343 H 0.96536 0.53918 0.93351 0.0
H344 H 0.09881 0.5486 0.95749 0.0
H345 H 0.05134 0.54862 0.96994 0.0
H346 H 0.02738 0.47033 -0.00593 0.0
C347 C 0.93058 0.47625 0.96008 0.0
C348 C 0.97834 0.52441 0.94767 0.0
C349 C 0.90373 0.47437 0.95354 0.0
C350 C 0.09146 0.52958 0.95703 0.0
C351 C 0.06423 0.52961 0.9639 0.0
C352 C 0.01388 0.48565 -0.01887 0.0
C353 C 0.93889 0.5017 0.961 0.0
C354 C 0.96809 0.5038 0.96371 0.0
C355 C 0.05355 0.50554 0.96185 0.0
C356 C 0.024 0.50598 0.96458 0.0
H357 H 0.8783 0.54175 0.94538 0.0
H358 H 0.92434 0.54521 0.95855 0.0
H359 H 0.97929 0.46877 -0.006 0.0
H360 H 0.11052 0.46245 0.93959 0.0
H361 H 0.06342 0.46243 0.95221 0.0
C362 C 0.51824 0.89586 -0.00468 0.0
C363 C 0.49343 0.88775 0.00094 0.0
C364 C 0.51945 0.92287 -0.0119 0.0
C365 C 0.47727 0.99119 0.97024 0.0
H366 H 0.53674 0.01691 0.0102 0.0
C367 C 0.4761 0.10292 0.00622 0.0
C368 C 0.49992 0.11363 0.00334 0.0
C369 C 0.47565 0.07584 -0.00143 0.0
C370 C 0.52024 0.01005 -0.00159 0.0
H371 H 0.4503 0.90139 0.00212 0.0
H372 H 0.45227 0.94882 -0.00933 0.0
H373 H 0.53509 0.9688 0.01065 0.0
H374 H 0.5417 0.10448 -0.0112 0.0
H375 H 0.54103 0.05691 -0.02421 0.0
H376 H 0.46183 0.03302 0.95964 0.0
C377 C 0.47091 0.93425 -0.00904 0.0
C378 C 0.51927 0.98229 -0.00146 0.0
C379 C 0.4697 0.90699 -0.00247 0.0
C380 C 0.523 0.09692 -0.00885 0.0
C381 C 0.52267 0.06962 -0.01605 0.0
C382 C 0.47808 0.01907 0.97049 0.0
C383 C 0.4959 0.94278 -0.01286 0.0
C384 C 0.49765 0.97236 -0.01527 0.0
C385 C 0.49912 0.05861 -0.01175 0.0
C386 C 0.49945 0.02886 -0.01513 0.0
H387 H 0.53688 0.88142 -0.00239 0.0
H388 H 0.53904 0.92823 -0.01572 0.0
H389 H 0.46052 0.98447 0.95887 0.0
H390 H 0.45793 0.11524 0.01547 0.0
H391 H 0.45724 0.06804 0.00237 0.0
C392 C 0.05242 0.21674 0.47896 0.0
C393 C 0.04841 0.22271 0.51087 0.0
C394 C 0.07117 0.19408 0.46931 0.0
C395 C 0.11321 0.12946 0.49795 0.0
H396 H 0.1584 0.13995 0.42715 0.0
C397 C 0.21444 0.05776 0.46966 0.0
C398 C 0.22107 0.0527 0.43804 0.0
C399 C 0.19133 0.07639 0.47805 0.0
C400 C 0.14575 0.13647 0.4467 0.0
H401 H 0.06012 0.20926 0.55773 0.0
H402 H 0.09315 0.1701 0.5411 0.0
H403 H 0.12166 0.17603 0.44227 0.0
H404 H 0.20834 0.06226 0.39045 0.0
H405 H 0.16797 0.0946 0.40494 0.0
H406 H 0.13782 0.09003 0.50268 0.0
C407 C 0.08166 0.18256 0.52337 0.0
C408 C 0.12457 0.15721 0.45537 0.0
C409 C 0.06288 0.20513 0.53296 0.0
C410 C 0.20374 0.06593 0.41501 0.0
C411 C 0.18072 0.08456 0.42334 0.0
C412 C 0.13449 0.10872 0.48933 0.0
C413 C 0.08642 0.17692 0.49139 0.0
C414 C 0.10807 0.1541 0.48123 0.0
C415 C 0.17444 0.09043 0.45496 0.0
C416 C 0.15113 0.112 0.46367 0.0
H417 H 0.0417 0.23008 0.46142 0.0
H418 H 0.07394 0.19021 0.4445 0.0
H419 H 0.10073 0.12611 0.5177 0.0
H420 H 0.22767 0.04809 0.48786 0.0
H421 H 0.18728 0.08058 0.50262 0.0
C422 C 0.23638 0.89291 0.49191 0.0
C423 C 0.25567 0.89095 0.46793 0.0
C424 C 0.21831 0.87477 0.49331 0.0
C425 C 0.19094 0.82342 0.44527 0.0
H426 H 0.16455 0.80381 0.52585 0.0
C427 C 0.12839 0.73751 0.46374 0.0
C428 C 0.10486 0.74448 0.48194 0.0
C429 C 0.147 0.75508 0.46142 0.0
C430 C 0.17167 0.80921 0.50317 0.0
H431 H 0.27205 0.86778 0.42741 0.0
H432 H 0.24132 0.83545 0.43038 0.0
H433 H 0.19723 0.83408 0.52346 0.0
H434 H 0.08178 0.77689 0.50977 0.0
H435 H 0.11481 0.80655 0.50716 0.0
H436 H 0.16582 0.79763 0.42527 0.0
C437 C 0.23924 0.85161 0.44748 0.0
C438 C 0.19032 0.82674 0.50171 0.0
C439 C 0.257 0.87009 0.44579 0.0
C440 C 0.10016 0.76988 0.49702 0.0
C441 C 0.11899 0.7872 0.49516 0.0
C442 C 0.17264 0.80548 0.44681 0.0
C443 C 0.21946 0.85377 0.47115 0.0
C444 C 0.20009 0.83435 0.47272 0.0
C445 C 0.14265 0.77995 0.47745 0.0
C446 C 0.16264 0.79838 0.47576 0.0
H447 H 0.23484 0.9089 0.50921 0.0
H448 H 0.20315 0.8776 0.51155 0.0
H449 H 0.19747 0.82906 0.42245 0.0
H450 H 0.13263 0.71827 0.45152 0.0
H451 H 0.16507 0.74897 0.44755 0.0
C452 C 0.77762 0.94115 0.46951 0.0
C453 C 0.77435 0.94898 0.43805 0.0
C454 C 0.79997 0.92203 0.47885 0.0
C455 C 0.86813 0.88669 0.45436 0.0
H456 H 0.85194 0.82898 0.50768 0.0
C457 C 0.94939 0.79957 0.50555 0.0
C458 C 0.94251 0.77362 0.50618 0.0
C459 C 0.93039 0.82223 0.49638 0.0
C460 C 0.85681 0.84488 0.49268 0.0
H461 H 0.79212 0.94385 0.39186 0.0
H462 H 0.83125 0.91055 0.40804 0.0
H463 H 0.81647 0.86705 0.49466 0.0
H464 H 0.91131 0.75058 0.49557 0.0
H465 H 0.87819 0.78992 0.47965 0.0
H466 H 0.90848 0.86409 0.45207 0.0
C467 C 0.81674 0.91922 0.42562 0.0
C468 C 0.83652 0.86691 0.48553 0.0
C469 C 0.79431 0.93819 0.4163 0.0
C470 C 0.9169 0.77048 0.49588 0.0
C471 C 0.89793 0.79302 0.48691 0.0
C472 C 0.88854 0.86469 0.46175 0.0
C473 C 0.81957 0.91044 0.45689 0.0
C474 C 0.84182 0.88799 0.46605 0.0
C475 C 0.90419 0.81927 0.48773 0.0
C476 C 0.88301 0.84333 0.48067 0.0
H477 H 0.76234 0.94899 0.48665 0.0
H478 H 0.80167 0.91594 0.50317 0.0
H479 H 0.87293 0.90267 0.43945 0.0
H480 H 0.96907 0.80245 0.51331 0.0
H481 H 0.93586 0.84215 0.49724 0.0
C482 C 0.75379 0.10947 0.49316 0.0
C483 C 0.73636 0.10987 0.46762 0.0
C484 C 0.77169 0.12776 0.49477 0.0
C485 C 0.80312 0.17546 0.44536 0.0
H486 H 0.82258 0.20139 0.52597 0.0
C487 C 0.8656 0.26157 0.46018 0.0
C488 C 0.8867 0.2566 0.48195 0.0
C489 C 0.8469 0.24409 0.45808 0.0
C490 C 0.81744 0.19421 0.50329 0.0
H491 H 0.72297 0.13065 0.42453 0.0
H492 H 0.75355 0.16308 0.42762 0.0
H493 H 0.79009 0.17092 0.52333 0.0
H494 H 0.90606 0.22798 0.51657 0.0
H495 H 0.87279 0.19823 0.51393 0.0
H496 H 0.83013 0.19944 0.42545 0.0
C497 C 0.75428 0.14799 0.44591 0.0
C498 C 0.79888 0.17658 0.50173 0.0
C499 C 0.73665 0.12942 0.44412 0.0
C500 C 0.88921 0.23326 0.50081 0.0
C501 C 0.87032 0.21602 0.49904 0.0
C502 C 0.82139 0.19341 0.44693 0.0
C503 C 0.77226 0.14732 0.47114 0.0
C504 C 0.79157 0.16675 0.47275 0.0
C505 C 0.8489 0.22127 0.47773 0.0
C506 C 0.82891 0.20281 0.47593 0.0
H507 H 0.75403 0.09456 0.51159 0.0
H508 H 0.78543 0.12617 0.51433 0.0
H509 H 0.79849 0.16804 0.42263 0.0
H510 H 0.86341 0.27914 0.44497 0.0
H511 H 0.83063 0.24864 0.44139 0.0
C512 C 0.56455 0.7059 0.03421 0.0
C513 C 0.54958 0.7229 0.01198 0.0
C514 C 0.58309 0.68307 0.02486 0.0
C515 C 0.62454 0.65609 0.95646 0.0
H516 H 0.6387 0.58996 0.00567 0.0
C517 C 0.70288 0.56415 0.91655 0.0
C518 C 0.72069 0.55138 0.93939 0.0
C519 C 0.67998 0.58284 0.92507 0.0
C520 C 0.63511 0.60835 -0.00822 0.0
H521 H 0.54176 0.72902 0.96254 0.0
H522 H 0.5736 0.68868 0.94606 0.0
H523 H 0.60192 0.62642 0.02064 0.0
H524 H 0.72832 0.54765 -0.01091 0.0
H525 H 0.68812 0.58029 0.0042 0.0
H526 H 0.65781 0.6382 0.92778 0.0
C527 C 0.57137 0.6932 0.97078 0.0
C528 C 0.61401 0.6293 0.00036 0.0
C529 C 0.55285 0.71611 -0.01981 0.0
C530 C 0.71468 0.55693 0.97106 0.0
C531 C 0.69168 0.57566 -0.02035 0.0
C532 C 0.64554 0.63515 0.94785 0.0
C533 C 0.58711 0.67661 -0.00703 0.0
C534 C 0.60854 0.65356 -0.01706 0.0
C535 C 0.67433 0.58927 0.9567 0.0
C536 C 0.65123 0.61106 0.96547 0.0
H537 H 0.56238 0.71068 0.0589 0.0
H538 H 0.59498 0.67106 0.04264 0.0
H539 H 0.62138 0.67461 0.9428 0.0
H540 H 0.70703 0.56011 0.89197 0.0
H541 H 0.66685 0.59253 0.9068 0.0
C542 C 0.75865 0.36938 0.94569 0.0
C543 C 0.75761 0.38971 0.96846 0.0
C544 C 0.74106 0.35073 0.94718 0.0
C545 C 0.69352 0.32407 0.00161 0.0
H546 H 0.66685 0.29766 0.92481 0.0
C547 C 0.60248 0.26878 -0.0024 0.0
C548 C 0.60621 0.24397 -0.01867 0.0
C549 C 0.62164 0.28572 -0.00423 0.0
C550 C 0.67431 0.30472 0.94643 0.0
H551 H 0.73754 0.40645 0.01072 0.0
H552 H 0.70617 0.3748 0.01281 0.0
H553 H 0.69865 0.32897 0.92232 0.0
H554 H 0.63242 0.21847 0.94877 0.0
H555 H 0.66554 0.24855 0.94491 0.0
H556 H 0.66825 0.30051 0.02556 0.0
C557 C 0.72095 0.37257 -0.00583 0.0
C558 C 0.69267 0.3226 0.94508 0.0
C559 C 0.73884 0.39089 -0.00709 0.0
C560 C 0.62902 0.23725 0.96194 0.0
C561 C 0.64799 0.25445 0.95969 0.0
C562 C 0.67483 0.30659 0.00292 0.0
C563 C 0.72178 0.35215 0.97133 0.0
C564 C 0.70254 0.33262 0.97267 0.0
C565 C 0.64466 0.2787 -0.02306 0.0
C566 C 0.66499 0.29676 -0.02464 0.0
H567 H 0.77333 0.36763 0.92693 0.0
H568 H 0.74286 0.33502 0.92955 0.0
H569 H 0.70102 0.3307 0.02342 0.0
H570 H 0.58457 0.27563 0.01127 0.0
H571 H 0.6182 0.30463 0.00871 0.0
C572 C 0.43835 0.28178 -0.02145 0.0
C573 C 0.4444 0.27742 0.01035 0.0
C574 C 0.41949 0.30433 0.96899 0.0
C575 C 0.38026 0.37095 -0.00328 0.0
H576 H 0.33208 0.35931 0.9298 0.0
C577 C 0.27905 0.44343 0.96991 0.0
C578 C 0.27243 0.4482 0.93828 0.0
C579 C 0.30195 0.42457 -0.02166 0.0
C580 C 0.34555 0.36303 0.94829 0.0
H581 H 0.4358 0.29325 0.05705 0.0
H582 H 0.40241 0.33213 0.04068 0.0
H583 H 0.36845 0.32288 0.94476 0.0
H584 H 0.28496 0.43783 0.8907 0.0
H585 H 0.32475 0.40485 0.90529 0.0
H586 H 0.35662 0.41097 0.00069 0.0
C587 C 0.41258 0.31866 0.02287 0.0
C588 C 0.36655 0.34212 0.95683 0.0
C589 C 0.43159 0.29626 0.03234 0.0
C590 C 0.28952 0.43439 0.91527 0.0
C591 C 0.31223 0.41543 0.92364 0.0
C592 C 0.35907 0.39181 -0.01167 0.0
C593 C 0.40596 0.32287 -0.00893 0.0
C594 C 0.38422 0.3457 -0.01878 0.0
C595 C 0.3185 0.40993 0.95527 0.0
C596 C 0.34144 0.38809 0.96401 0.0
H597 H 0.44756 0.26731 0.96115 0.0
H598 H 0.41529 0.30702 0.94426 0.0
H599 H 0.39363 0.3747 0.01529 0.0
H600 H 0.26599 0.45349 -0.01188 0.0
H601 H 0.30608 0.42064 0.00292 0.0
C602 C 0.25666 0.60924 -0.0069 0.0
C603 C 0.23849 0.61027 0.96815 0.0
C604 C 0.27491 0.62719 -0.00567 0.0
C605 C 0.28627 0.69386 0.96728 0.0
H606 H 0.36138 0.66516 -0.01603 0.0
C607 C 0.36764 0.76202 0.96121 0.0
C608 C 0.38887 0.75705 -0.01724 0.0
C609 C 0.3493 0.74419 0.95873 0.0
C610 C 0.34044 0.6737 -0.02021 0.0
H611 H 0.22429 0.63181 0.92573 0.0
H612 H 0.25605 0.66339 0.928 0.0
H613 H 0.3291 0.63447 -0.01815 0.0
H614 H 0.40873 0.7282 0.01681 0.0
H615 H 0.37604 0.69814 0.01408 0.0
H616 H 0.29729 0.73315 0.96605 0.0
C617 C 0.25642 0.64841 0.94637 0.0
C618 C 0.32195 0.656 -0.02156 0.0
C619 C 0.23842 0.63017 0.9449 0.0
C620 C 0.39186 0.73338 0.00107 0.0
C621 C 0.37339 0.71573 -0.0011 0.0
C622 C 0.30469 0.71164 0.96906 0.0
C623 C 0.27504 0.64696 0.97095 0.0
C624 C 0.29465 0.66586 0.97219 0.0
C625 C 0.35178 0.72084 -0.02229 0.0
C626 C 0.33209 0.70185 -0.02461 0.0
H627 H 0.25708 0.59418 0.0114 0.0
H628 H 0.2888 0.62577 0.01374 0.0
H629 H 0.26531 0.7021 0.96272 0.0
H630 H 0.36513 0.77981 0.94631 0.0
H631 H 0.33339 0.74859 0.94159 0.0
C632 C 0.3258 0.09991 0.32644 0.0
C633 C 0.31506 0.07848 0.31335 0.0
C634 C 0.33301 0.1201 0.30735 0.0
C635 C 0.32941 0.14713 0.22571 0.0
H636 H 0.40105 0.1601 0.24453 0.0
C637 C 0.4043 0.17163 0.13329 0.0
C638 C 0.42259 0.18853 0.14142 0.0
C639 C 0.38577 0.16541 0.1552 0.0
C640 C 0.38078 0.15727 0.23922 0.0
H641 H 0.30193 0.06224 0.27027 0.0
H642 H 0.31522 0.09693 0.23686 0.0
H643 H 0.3779 0.13599 0.28196 0.0
H644 H 0.43452 0.21369 0.17819 0.0
H645 H 0.40212 0.20278 0.21645 0.0
H646 H 0.33314 0.16728 0.18207 0.0
C647 C 0.31768 0.09851 0.26189 0.0
C648 C 0.36745 0.14343 0.26075 0.0
C649 C 0.31024 0.07846 0.28104 0.0
C650 C 0.42089 0.20038 0.1713 0.0
C651 C 0.40238 0.1941 0.19324 0.0
C652 C 0.34286 0.16088 0.20405 0.0
C653 C 0.32987 0.11913 0.27473 0.0
C654 C 0.3419 0.13755 0.25392 0.0
C655 C 0.38517 0.17594 0.18569 0.0
C656 C 0.36897 0.16546 0.21028 0.0
H657 H 0.32936 0.10069 0.35136 0.0
H658 H 0.34182 0.13602 0.31805 0.0
H659 H 0.30956 0.14333 0.21997 0.0
H660 H 0.40497 0.16233 0.11037 0.0
H661 H 0.37294 0.15116 0.14874 0.0
C662 C 0.08067 0.65328 0.61519 0.0
C663 C 0.05452 0.66762 0.62096 0.0
C664 C 0.09711 0.64223 0.63999 0.0
C665 C 0.11102 0.6461 0.72299 0.0
H666 H 0.12851 0.56753 0.72139 0.0
C667 C 0.14975 0.5834 0.8329 0.0
C668 C 0.16483 0.55718 0.82913 0.0
C669 C 0.1395 0.59876 0.8068 0.0
C670 C 0.12456 0.58949 0.72211 0.0
H671 H 0.02571 0.68294 0.65729 0.0
H672 H 0.05494 0.66445 0.70066 0.0
H673 H 0.10576 0.59182 0.67709 0.0
H674 H 0.18266 0.52718 0.79517 0.0
H675 H 0.16656 0.55447 0.74972 0.0
H676 H 0.13037 0.6441 0.76753 0.0
C677 C 0.06246 0.66148 0.67692 0.0
C678 C 0.11128 0.60337 0.69666 0.0
C679 C 0.04575 0.67196 0.65211 0.0
C680 C 0.17083 0.54725 0.79876 0.0
C681 C 0.16125 0.56286 0.77268 0.0
C682 C 0.12494 0.63227 0.7482 0.0
C683 C 0.088 0.64593 0.67103 0.0
C684 C 0.10406 0.63174 0.69703 0.0
C685 C 0.14465 0.58851 0.77623 0.0
C686 C 0.13159 0.60367 0.7484 0.0
H687 H 0.08793 0.64945 0.59146 0.0
H688 H 0.11676 0.6303 0.63492 0.0
H689 H 0.10572 0.66804 0.72372 0.0
H690 H 0.14461 0.59147 0.85607 0.0
H691 H 0.12658 0.61815 0.81084 0.0
C692 C 0.67394 0.90135 0.32041 0.0
C693 C 0.68388 0.92344 0.30758 0.0
C694 C 0.66668 0.88148 0.30099 0.0
C695 C 0.66864 0.85674 0.21849 0.0
H696 H 0.59804 0.84179 0.23972 0.0
C697 C 0.59245 0.83211 0.12833 0.0
C698 C 0.57482 0.81459 0.13688 0.0
C699 C 0.61122 0.83848 0.14967 0.0
C700 C 0.61802 0.84518 0.23369 0.0
H701 H 0.69564 0.94117 0.26454 0.0
H702 H 0.68229 0.90702 0.23062 0.0
H703 H 0.62157 0.8655 0.27683 0.0
H704 H 0.56431 0.78848 0.17373 0.0
H705 H 0.59714 0.7996 0.21096 0.0
H706 H 0.66422 0.83751 0.17454 0.0
C707 C 0.68046 0.90469 0.25567 0.0
C708 C 0.63159 0.85879 0.25504 0.0
C709 C 0.68795 0.92442 0.27512 0.0
C710 C 0.57742 0.80229 0.16654 0.0
C711 C 0.59617 0.80869 0.18789 0.0
C712 C 0.65496 0.8432 0.19702 0.0
C713 C 0.66898 0.88344 0.26832 0.0
C714 C 0.65676 0.86535 0.24742 0.0
C715 C 0.61273 0.82745 0.17998 0.0
C716 C 0.62921 0.83789 0.20413 0.0
H717 H 0.67097 0.89982 0.34541 0.0
H718 H 0.65846 0.86505 0.31154 0.0
H719 H 0.68819 0.86109 0.2121 0.0
H720 H 0.59108 0.84178 0.10557 0.0
H721 H 0.62353 0.85318 0.14294 0.0
C722 C 0.94988 0.3298 0.65159 0.0
C723 C 0.94001 0.33249 0.62082 0.0
C724 C 0.93352 0.34029 0.6768 0.0
C725 C 0.88326 0.3968 0.6966 0.0
H726 H 0.86648 0.35676 0.76948 0.0
C727 C 0.82362 0.45347 0.79878 0.0
C728 C 0.83009 0.44415 0.82926 0.0
C729 C 0.83339 0.43762 0.77289 0.0
C730 C 0.87126 0.36842 0.74959 0.0
H731 H 0.90503 0.34771 0.59245 0.0
H732 H 0.87678 0.36693 0.63653 0.0
H733 H 0.89114 0.33255 0.7257 0.0
H734 H 0.85142 0.41074 0.85662 0.0
H735 H 0.86978 0.38373 0.81173 0.0
H736 H 0.86538 0.43279 0.72065 0.0
C737 C 0.89704 0.35626 0.64103 0.0
C738 C 0.88519 0.35442 0.7244 0.0
C739 C 0.91317 0.34517 0.61589 0.0
C740 C 0.8459 0.41832 0.83336 0.0
C741 C 0.85634 0.40276 0.80746 0.0
C742 C 0.86998 0.41087 0.72201 0.0
C743 C 0.9072 0.35422 0.67162 0.0
C744 C 0.89129 0.36852 0.69773 0.0
C745 C 0.85065 0.41237 0.77674 0.0
C746 C 0.86377 0.39697 0.74902 0.0
H747 H 0.97046 0.3201 0.65612 0.0
H748 H 0.94181 0.33862 0.70019 0.0
H749 H 0.8881 0.40814 0.67641 0.0
H750 H 0.81124 0.47322 0.79494 0.0
H751 H 0.82766 0.44549 0.74984 0.0
C752 C 0.67261 0.04739 0.29686 0.0
C753 C 0.66564 0.05638 0.32737 0.0
C754 C 0.66283 0.06326 0.27105 0.0
C755 C 0.62384 0.13192 0.24792 0.0
H756 H 0.60782 0.09179 0.17501 0.0
C757 C 0.54499 0.17062 0.15129 0.0
C758 C 0.55414 0.1671 0.1202 0.0
C759 C 0.5617 0.16021 0.17612 0.0
C760 C 0.61245 0.10327 0.19509 0.0
H761 H 0.64347 0.08928 0.35488 0.0
H762 H 0.62511 0.11634 0.31007 0.0
H763 H 0.63095 0.06748 0.21906 0.0
H764 H 0.58823 0.15047 0.09085 0.0
H765 H 0.61708 0.13145 0.13431 0.0
H766 H 0.60339 0.16754 0.22415 0.0
C767 C 0.63893 0.09754 0.30575 0.0
C768 C 0.62594 0.08939 0.22041 0.0
C769 C 0.64936 0.08196 0.3316 0.0
C770 C 0.58064 0.15363 0.11453 0.0
C771 C 0.59711 0.14266 0.13933 0.0
C772 C 0.60973 0.14572 0.22282 0.0
C773 C 0.64507 0.08819 0.275 0.0
C774 C 0.63183 0.10343 0.24734 0.0
C775 C 0.58765 0.14556 0.1703 0.0
C776 C 0.60389 0.13148 0.19623 0.0
H777 H 0.68537 0.02784 0.29294 0.0
H778 H 0.66889 0.05562 0.24796 0.0
H779 H 0.62836 0.14367 0.26778 0.0
H780 H 0.52469 0.18095 0.1564 0.0
H781 H 0.55391 0.16256 0.19979 0.0
C782 C 0.07249 0.31188 0.66948 0.0
C783 C 0.07207 0.31777 0.63735 0.0
C784 C 0.09162 0.32027 0.68888 0.0
C785 C 0.13269 0.37364 0.69171 0.0
H786 H 0.15995 0.33696 0.76808 0.0
C787 C 0.16523 0.40746 0.81876 0.0
C788 C 0.18157 0.42622 0.81014 0.0
C789 C 0.15812 0.38945 0.79674 0.0
C790 C 0.15254 0.34737 0.74676 0.0
H791 H 0.09262 0.33513 0.59989 0.0
H792 H 0.12634 0.34925 0.6336 0.0
H793 H 0.1363 0.31335 0.73015 0.0
H794 H 0.20473 0.43962 0.77223 0.0
H795 H 0.19222 0.40821 0.73378 0.0
H796 H 0.14824 0.40784 0.70856 0.0
C797 C 0.11144 0.33884 0.644 0.0
C798 C 0.13896 0.33391 0.7251 0.0
C799 C 0.09219 0.33065 0.62466 0.0
C800 C 0.19192 0.42556 0.77955 0.0
C801 C 0.18471 0.40765 0.7575 0.0
C802 C 0.14637 0.38698 0.71322 0.0
C803 C 0.11085 0.33452 0.67648 0.0
C804 C 0.12835 0.34713 0.69764 0.0
C805 C 0.16714 0.38994 0.76565 0.0
C806 C 0.15594 0.37422 0.74126 0.0
H807 H 0.05729 0.30191 0.67995 0.0
H808 H 0.09039 0.31681 0.7138 0.0
H809 H 0.12436 0.38469 0.67116 0.0
H810 H 0.15708 0.40733 0.84222 0.0
H811 H 0.1444 0.37618 0.80366 0.0
C812 C 0.33515 0.9172 0.33088 0.0
C813 C 0.33052 0.94567 0.32823 0.0
C814 C 0.34539 0.9008 0.30549 0.0
C815 C 0.38578 0.87394 0.25651 0.0
H816 H 0.36585 0.89375 0.17097 0.0
C817 C 0.45517 0.83914 0.15134 0.0
C818 C 0.4437 0.83381 0.12259 0.0
C819 C 0.43889 0.84902 0.1768 0.0
C820 C 0.37144 0.88763 0.19469 0.0
H821 H 0.33186 0.9791 0.29622 0.0
H822 H 0.34968 0.95067 0.2523 0.0
H823 H 0.34042 0.91799 0.21402 0.0
H824 H 0.40593 0.83389 0.09859 0.0
H825 H 0.37752 0.85089 0.14318 0.0
H826 H 0.41694 0.84371 0.23717 0.0
C827 C 0.34533 0.94091 0.27387 0.0
C828 C 0.35703 0.90176 0.21941 0.0
C829 C 0.33524 0.95727 0.2992 0.0
C830 C 0.41548 0.83774 0.12033 0.0
C831 C 0.39917 0.8477 0.14584 0.0
C832 C 0.40023 0.85983 0.23179 0.0
C833 C 0.35103 0.91249 0.27682 0.0
C834 C 0.36434 0.89546 0.25063 0.0
C835 C 0.41068 0.85388 0.17425 0.0
C836 C 0.39358 0.86685 0.20055 0.0
H837 H 0.3317 0.90756 0.35285 0.0
H838 H 0.34925 0.87896 0.30845 0.0
H839 H 0.39212 0.86865 0.28023 0.0
H840 H 0.47681 0.83635 0.15401 0.0
H841 H 0.4485 0.85383 0.19814 0.0
C842 C 0.91 0.70275 0.66414 0.0
C843 C 0.92 0.68496 0.63979 0.0
C844 C 0.88962 0.69689 0.68383 0.0
C845 C 0.84215 0.6477 0.69506 0.0
H846 H 0.85407 0.66079 0.7827 0.0
C847 C 0.8352 0.59085 0.81905 0.0
C848 C 0.81176 0.58001 0.81441 0.0
C849 C 0.84178 0.61047 0.79879 0.0
C850 C 0.85049 0.65685 0.75833 0.0
H851 H 0.916 0.64761 0.61621 0.0
H852 H 0.88178 0.63661 0.65122 0.0
H853 H 0.87814 0.68179 0.74336 0.0
H854 H 0.77586 0.5825 0.78619 0.0
H855 H 0.78685 0.61761 0.75127 0.0
H856 H 0.8166 0.62058 0.71014 0.0
C857 C 0.88872 0.6556 0.65476 0.0
C858 C 0.86399 0.66935 0.73561 0.0
C859 C 0.90864 0.66175 0.63476 0.0
C860 C 0.79425 0.59027 0.79007 0.0
C861 C 0.80063 0.6103 0.77 0.0
C862 C 0.82915 0.63469 0.71781 0.0
C863 C 0.87925 0.67281 0.67996 0.0
C864 C 0.86085 0.66407 0.70367 0.0
C865 C 0.82486 0.62015 0.77362 0.0
C866 C 0.83403 0.63821 0.74976 0.0
H867 H 0.91816 0.72101 0.66825 0.0
H868 H 0.88246 0.71096 0.7025 0.0
H869 H 0.83848 0.64385 0.6707 0.0
H870 H 0.84916 0.58334 0.83756 0.0
H871 H 0.86088 0.617 0.8021 0.0
loop_
_geom_bond_atom_site_label_1
_geom_bond_atom_site_label_2
_geom_bond_distance
_geom_bond_site_symmetry_2
_ccdc_geom_bond_type
Co0 O3 1.970 1_545 S
Co0 N17 1.989 . S
Co0 O25 1.967 . S
Co0 O32 1.920 . S
Co1 O4 1.966 . S
Co1 N10 2.022 . S
Co1 N18 1.993 1_565 S
Co1 O26 1.941 . S
C2 O3 1.258 . S
C2 O4 1.263 . S
O3 Co0 1.970 1_565 S
O3 C2 1.258 . S
O4 Co1 1.966 . S
O4 C2 1.263 . S
C5 O6 1.235 . S
C5 O32 1.289 . S
O6 C5 1.235 . S
C7 C9 1.400 . S
C7 N10 1.351 . S
C7 C12 1.501 . S
C8 C9 1.387 . S
C8 N11 1.341 . S
C9 C7 1.400 . S
C9 C8 1.387 . S
N10 Co1 2.022 . S
N10 C7 1.351 . S
N10 N11 1.365 . S
N11 C8 1.341 . S
N11 N10 1.365 . S
N11 H31 0.862 . S
C12 C7 1.501 . S
C12 H13 0.961 . S
C12 H14 0.961 . S
C12 H15 0.960 . S
H13 C12 0.961 . S
H14 C12 0.961 . S
H15 C12 0.960 . S
C16 N17 1.342 . S
C16 C20 1.401 . S
C16 C21 1.499 . S
N17 Co0 1.989 . S
N17 C16 1.342 . S
N17 N18 1.388 . S
N18 Co1 1.993 1_545 S
N18 N17 1.388 . S
N18 C19 1.346 . S
C19 N18 1.346 . S
C19 C20 1.396 . S
C19 C29 1.510 . S
C20 C16 1.401 . S
C20 C19 1.396 . S
C21 C16 1.499 . S
C21 H22 0.959 . S
C21 H23 0.960 . S
C21 H24 0.961 . S
H22 C21 0.959 . S
H23 C21 0.960 . S
H24 C21 0.961 . S
O25 Co0 1.967 . S
O25 C33 1.258 1_545 S
O26 Co1 1.941 . S
O26 C33 1.266 . S
H27 C29 0.959 . S
H28 C29 0.961 . S
C29 C19 1.510 . S
C29 H27 0.959 . S
C29 H28 0.961 . S
C29 H30 0.960 1_545 S
H30 C29 0.960 1_565 S
H31 N11 0.862 . S
O32 Co0 1.920 . S
O32 C5 1.289 . S
C33 O25 1.258 1_565 S
C33 O26 1.266 . S
Co34 O37 1.970 1_655 S
Co34 N51 1.989 . S
Co34 O59 1.967 1_655 S
Co34 O66 1.920 . S
Co35 O38 1.966 . S
Co35 N44 2.022 . S
Co35 N52 1.987 1_455 S
Co35 O60 1.941 . S
C36 O37 1.258 . S
C36 O38 1.263 . S
O37 Co34 1.970 1_455 S
O37 C36 1.258 . S
O38 Co35 1.966 . S
O38 C36 1.263 . S
C39 O40 1.235 . S
C39 O66 1.289 . S
O40 C39 1.235 . S
C41 C43 1.400 . S
C41 N44 1.351 . S
C41 C46 1.501 . S
C42 C43 1.387 . S
C42 N45 1.341 . S
C43 C41 1.400 . S
C43 C42 1.387 . S
N44 Co35 2.022 . S
N44 C41 1.351 . S
N44 N45 1.365 . S
N45 C42 1.341 . S
N45 N44 1.365 . S
N45 H65 0.862 . S
C46 C41 1.501 . S
C46 H47 0.961 . S
C46 H48 0.961 . S
C46 H49 0.960 . S
H47 C46 0.961 . S
H48 C46 0.961 . S
H49 C46 0.960 . S
C50 N51 1.342 . S
C50 C54 1.401 . S
C50 C55 1.499 . S
N51 Co34 1.989 . S
N51 C50 1.342 . S
N51 N52 1.394 . S
N52 Co35 1.987 1_655 S
N52 N51 1.394 . S
N52 C53 1.348 . S
C53 N52 1.348 . S
C53 C54 1.396 . S
C53 C63 1.510 1_655 S
C54 C50 1.401 . S
C54 C53 1.396 . S
C55 C50 1.499 . S
C55 H56 0.959 . S
C55 H57 0.960 . S
C55 H58 0.961 . S
H56 C55 0.959 . S
H57 C55 0.960 . S
H58 C55 0.961 . S
O59 Co34 1.967 1_455 S
O59 C67 1.258 . S
O60 Co35 1.941 . S
O60 C67 1.266 . S
H61 C63 0.959 1_655 S
H62 C63 0.961 . S
C63 C53 1.510 1_455 S
C63 H61 0.959 1_455 S
C63 H62 0.961 . S
C63 H64 0.960 . S
H64 C63 0.960 . S
H65 N45 0.862 . S
O66 Co34 1.920 . S
O66 C39 1.289 . S
C67 O59 1.258 . S
C67 O60 1.266 . S
Co68 O71 1.970 1_565 S
Co68 N85 1.989 . S
Co68 O93 1.967 1_565 S
Co68 O100 1.920 . S
Co69 O72 1.966 . S
Co69 N78 2.022 . S
Co69 N86 1.987 1_545 S
Co69 O94 1.941 . S
C70 O71 1.258 . S
C70 O72 1.263 . S
O71 Co68 1.970 1_545 S
O71 C70 1.258 . S
O72 Co69 1.966 . S
O72 C70 1.263 . S
C73 O74 1.235 . S
C73 O100 1.289 . S
O74 C73 1.235 . S
C75 C77 1.400 . S
C75 N78 1.351 . S
C75 C80 1.501 . S
C76 C77 1.387 . S
C76 N79 1.341 . S
C77 C75 1.400 . S
C77 C76 1.387 . S
N78 Co69 2.022 . S
N78 C75 1.351 . S
N78 N79 1.365 . S
N79 C76 1.341 . S
N79 N78 1.365 . S
N79 H99 0.862 . S
C80 C75 1.501 . S
C80 H81 0.961 . S
C80 H82 0.961 . S
C80 H83 0.960 . S
H81 C80 0.961 . S
H82 C80 0.961 . S
H83 C80 0.960 . S
C84 N85 1.342 . S
C84 C88 1.401 . S
C84 C89 1.499 . S
N85 Co68 1.989 . S
N85 C84 1.342 . S
N85 N86 1.394 . S
N86 Co69 1.987 1_565 S
N86 N85 1.394 . S
N86 C87 1.348 . S
C87 N86 1.348 . S
C87 C88 1.396 . S
C87 C97 1.510 1_565 S
C88 C84 1.401 . S
C88 C87 1.396 . S
C89 C84 1.499 . S
C89 H90 0.959 . S
C89 H91 0.960 . S
C89 H92 0.961 . S
H90 C89 0.959 . S
H91 C89 0.960 . S
H92 C89 0.961 . S
O93 Co68 1.967 1_545 S
O93 C101 1.258 . S
O94 Co69 1.941 . S
O94 C101 1.266 . S
H95 C97 0.959 1_565 S
H96 C97 0.961 . S
C97 C87 1.510 1_545 S
C97 H95 0.959 1_545 S
C97 H96 0.961 . S
C97 H98 0.960 . S
H98 C97 0.960 . S
H99 N79 0.862 . S
O100 Co68 1.920 . S
O100 C73 1.289 . S
C101 O93 1.258 . S
C101 O94 1.266 . S
Co102 O105 1.970 1_455 S
Co102 N119 1.989 . S
Co102 O127 1.967 . S
Co102 O134 1.920 . S
Co103 O106 1.966 . S
Co103 N112 2.022 . S
Co103 N120 1.993 1_655 S
Co103 O128 1.941 . S
C104 O105 1.258 . S
C104 O106 1.263 . S
O105 Co102 1.970 1_655 S
O105 C104 1.258 . S
O106 Co103 1.966 . S
O106 C104 1.263 . S
C107 O108 1.235 . S
C107 O134 1.289 . S
O108 C107 1.235 . S
C109 C111 1.400 . S
C109 N112 1.351 . S
C109 C114 1.501 . S
C110 C111 1.387 . S
C110 N113 1.341 . S
C111 C109 1.400 . S
C111 C110 1.387 . S
N112 Co103 2.022 . S
N112 C109 1.351 . S
N112 N113 1.365 . S
N113 C110 1.341 . S
N113 N112 1.365 . S
N113 H133 0.862 . S
C114 C109 1.501 . S
C114 H115 0.961 . S
C114 H116 0.961 . S
C114 H117 0.960 . S
H115 C114 0.961 . S
H116 C114 0.961 . S
H117 C114 0.960 . S
C118 N119 1.342 . S
C118 C122 1.401 . S
C118 C123 1.499 . S
N119 Co102 1.989 . S
N119 C118 1.342 . S
N119 N120 1.388 . S
N120 Co103 1.993 1_455 S
N120 N119 1.388 . S
N120 C121 1.346 . S
C121 N120 1.346 . S
C121 C122 1.396 . S
C121 C131 1.510 . S
C122 C118 1.401 . S
C122 C121 1.396 . S
C123 C118 1.499 . S
C123 H124 0.959 . S
C123 H125 0.960 . S
C123 H126 0.961 . S
H124 C123 0.959 . S
H125 C123 0.960 . S
H126 C123 0.961 . S
O127 Co102 1.967 . S
O127 C135 1.258 1_455 S
O128 Co103 1.941 . S
O128 C135 1.266 . S
H129 C131 0.959 . S
H130 C131 0.961 . S
C131 C121 1.510 . S
C131 H129 0.959 . S
C131 H130 0.961 . S
C131 H132 0.960 1_455 S
H132 C131 0.960 1_655 S
H133 N113 0.862 . S
O134 Co102 1.920 . S
O134 C107 1.289 . S
C135 O127 1.258 1_655 S
C135 O128 1.266 . S
Co136 O139 1.970 . S
Co136 N153 1.989 . S
Co136 O161 1.967 . S
Co136 O168 1.920 . S
Co137 O140 1.966 . S
Co137 N146 2.022 . S
Co137 N154 1.993 . S
Co137 O162 1.941 . S
C138 O139 1.258 . S
C138 O140 1.263 . S
O139 Co136 1.970 . S
O139 C138 1.258 . S
O140 Co137 1.966 . S
O140 C138 1.263 . S
C141 O142 1.235 . S
C141 O168 1.289 . S
O142 C141 1.235 . S
C143 C145 1.400 . S
C143 N146 1.351 . S
C143 C148 1.501 . S
C144 C145 1.387 1_554 S
C144 N147 1.341 . S
C145 C143 1.400 . S
C145 C144 1.387 1_556 S
N146 Co137 2.022 . S
N146 C143 1.351 . S
N146 N147 1.365 1_556 S
N147 C144 1.341 . S
N147 N146 1.365 1_554 S
N147 H167 0.862 . S
C148 C143 1.501 . S
C148 H149 0.961 . S
C148 H150 0.961 . S
C148 H151 0.960 . S
H149 C148 0.961 . S
H150 C148 0.961 . S
H151 C148 0.960 . S
C152 N153 1.342 . S
C152 C156 1.401 . S
C152 C157 1.499 . S
N153 Co136 1.989 . S
N153 C152 1.342 . S
N153 N154 1.388 . S
N154 Co137 1.993 . S
N154 N153 1.388 . S
N154 C155 1.346 . S
C155 N154 1.346 . S
C155 C156 1.396 . S
C155 C165 1.510 . S
C156 C152 1.401 . S
C156 C155 1.396 . S
C157 C152 1.499 . S
C157 H158 0.959 . S
C157 H159 0.960 . S
C157 H160 0.961 . S
H158 C157 0.959 . S
H159 C157 0.960 . S
H160 C157 0.961 . S
O161 Co136 1.967 . S
O161 C169 1.258 . S
O162 Co137 1.941 . S
O162 C169 1.266 . S
H163 C165 0.959 1_554 S
H164 C165 0.961 . S
C165 C155 1.510 . S
C165 H163 0.959 1_556 S
C165 H164 0.961 . S
C165 H166 0.960 . S
H166 C165 0.960 . S
H167 N147 0.862 . S
O168 Co136 1.920 . S
O168 C141 1.289 . S
C169 O161 1.258 . S
C169 O162 1.266 . S
Co170 O173 1.970 . S
Co170 N187 1.989 . S
Co170 O195 1.967 . S
Co170 O202 1.920 . S
Co171 O174 1.966 . S
Co171 N180 2.022 . S
Co171 N188 1.993 . S
Co171 O196 1.941 . S
C172 O173 1.258 . S
C172 O174 1.263 . S
O173 Co170 1.970 . S
O173 C172 1.258 . S
O174 Co171 1.966 . S
O174 C172 1.263 . S
C175 O176 1.235 . S
C175 O202 1.289 . S
O176 C175 1.235 . S
C177 C179 1.400 . S
C177 N180 1.351 . S
C177 C182 1.501 . S
C178 C179 1.387 1_556 S
C178 N181 1.341 . S
C179 C177 1.400 . S
C179 C178 1.387 1_554 S
N180 Co171 2.022 . S
N180 C177 1.351 . S
N180 N181 1.365 1_554 S
N181 C178 1.341 . S
N181 N180 1.365 1_556 S
N181 H201 0.862 . S
C182 C177 1.501 . S
C182 H183 0.961 . S
C182 H184 0.961 . S
C182 H185 0.960 . S
H183 C182 0.961 . S
H184 C182 0.961 . S
H185 C182 0.960 . S
C186 N187 1.342 . S
C186 C190 1.401 . S
C186 C191 1.499 . S
N187 Co170 1.989 . S
N187 C186 1.342 . S
N187 N188 1.388 . S
N188 Co171 1.993 . S
N188 N187 1.388 . S
N188 C189 1.346 . S
C189 N188 1.346 . S
C189 C190 1.396 . S
C189 C199 1.510 . S
C190 C186 1.401 . S
C190 C189 1.396 . S
C191 C186 1.499 . S
C191 H192 0.959 . S
C191 H193 0.960 . S
C191 H194 0.961 . S
H192 C191 0.959 . S
H193 C191 0.960 . S
H194 C191 0.961 . S
O195 Co170 1.967 . S
O195 C203 1.258 . S
O196 Co171 1.941 . S
O196 C203 1.266 . S
H197 C199 0.959 1_556 S
H198 C199 0.961 . S
C199 C189 1.510 . S
C199 H197 0.959 1_554 S
C199 H198 0.961 . S
C199 H200 0.960 . S
H200 C199 0.960 . S
H201 N181 0.862 . S
O202 Co170 1.920 . S
O202 C175 1.289 . S
C203 O195 1.258 . S
C203 O196 1.266 . S
Co204 O207 1.970 . S
Co204 N221 1.989 . S
Co204 O229 1.967 . S
Co204 O236 1.920 . S
Co205 O208 1.966 . S
Co205 N214 2.022 . S
Co205 N222 1.993 . S
Co205 O230 1.941 . S
C206 O207 1.258 . S
C206 O208 1.263 . S
O207 Co204 1.970 . S
O207 C206 1.258 . S
O208 Co205 1.966 . S
O208 C206 1.263 . S
C209 O210 1.235 . S
C209 O236 1.289 . S
O210 C209 1.235 . S
C211 C213 1.400 . S
C211 N214 1.351 . S
C211 C216 1.501 . S
C212 C213 1.387 1_554 S
C212 N215 1.341 . S
C213 C211 1.400 . S
C213 C212 1.387 1_556 S
N214 Co205 2.022 . S
N214 C211 1.351 . S
N214 N215 1.365 1_556 S
N215 C212 1.341 . S
N215 N214 1.365 1_554 S
N215 H235 0.862 . S
C216 C211 1.501 . S
C216 H217 0.961 . S
C216 H218 0.961 . S
C216 H219 0.960 . S
H217 C216 0.961 . S
H218 C216 0.961 . S
H219 C216 0.960 . S
C220 N221 1.342 . S
C220 C224 1.401 . S
C220 C225 1.499 . S
N221 Co204 1.989 . S
N221 C220 1.342 . S
N221 N222 1.388 . S
N222 Co205 1.993 . S
N222 N221 1.388 . S
N222 C223 1.346 . S
C223 N222 1.346 . S
C223 C224 1.396 . S
C223 C233 1.510 . S
C224 C220 1.401 . S
C224 C223 1.396 . S
C225 C220 1.499 . S
C225 H226 0.959 . S
C225 H227 0.960 . S
C225 H228 0.961 . S
H226 C225 0.959 . S
H227 C225 0.960 . S
H228 C225 0.961 . S
O229 Co204 1.967 . S
O229 C237 1.258 . S
O230 Co205 1.941 . S
O230 C237 1.266 . S
H231 C233 0.959 1_554 S
H232 C233 0.961 . S
C233 C223 1.510 . S
C233 H231 0.959 1_556 S
C233 H232 0.961 . S
C233 H234 0.960 . S
H234 C233 0.960 . S
H235 N215 0.862 . S
O236 Co204 1.920 . S
O236 C209 1.289 . S
C237 O229 1.258 . S
C237 O230 1.266 . S
Co238 O241 1.970 . S
Co238 N255 1.989 . S
Co238 O263 1.967 . S
Co238 O270 1.920 . S
Co239 O242 1.966 . S
Co239 N248 2.022 . S
Co239 N256 1.993 . S
Co239 O264 1.941 . S
C240 O241 1.258 . S
C240 O242 1.263 . S
O241 Co238 1.970 . S
O241 C240 1.258 . S
O242 Co239 1.966 . S
O242 C240 1.263 . S
C243 O244 1.235 . S
C243 O270 1.289 . S
O244 C243 1.235 . S
C245 C247 1.400 . S
C245 N248 1.351 . S
C245 C250 1.501 . S
C246 C247 1.387 1_556 S
C246 N249 1.341 . S
C247 C245 1.400 . S
C247 C246 1.387 1_554 S
N248 Co239 2.022 . S
N248 C245 1.351 . S
N248 N249 1.365 1_554 S
N249 C246 1.341 . S
N249 N248 1.365 1_556 S
N249 H269 0.862 . S
C250 C245 1.501 . S
C250 H251 0.961 . S
C250 H252 0.961 . S
C250 H253 0.960 . S
H251 C250 0.961 . S
H252 C250 0.961 . S
H253 C250 0.960 . S
C254 N255 1.342 . S
C254 C258 1.401 . S
C254 C259 1.499 . S
N255 Co238 1.989 . S
N255 C254 1.342 . S
N255 N256 1.388 . S
N256 Co239 1.993 . S
N256 N255 1.388 . S
N256 C257 1.346 . S
C257 N256 1.346 . S
C257 C258 1.396 . S
C257 C267 1.510 . S
C258 C254 1.401 . S
C258 C257 1.396 . S
C259 C254 1.499 . S
C259 H260 0.959 . S
C259 H261 0.960 . S
C259 H262 0.961 . S
H260 C259 0.959 . S
H261 C259 0.960 . S
H262 C259 0.961 . S
O263 Co238 1.967 . S
O263 C271 1.258 . S
O264 Co239 1.941 . S
O264 C271 1.266 . S
H265 C267 0.959 1_556 S
H266 C267 0.961 . S
C267 C257 1.510 . S
C267 H265 0.959 1_554 S
C267 H266 0.961 . S
C267 H268 0.960 . S
H268 C267 0.960 . S
H269 N249 0.862 . S
O270 Co238 1.920 . S
O270 C243 1.289 . S
C271 O263 1.258 . S
C271 O264 1.266 . S
C272 C273 1.349 . S
C272 C274 1.327 . S
C272 H297 0.950 1_545 S
C273 C272 1.349 . S
C273 C289 1.349 . S
C274 C272 1.327 . S
C274 C293 1.429 . S
C274 H298 0.950 1_545 S
C275 C292 1.574 . S
C275 C294 1.368 . S
C275 H299 0.949 . S
H276 C280 0.949 . S
C277 C278 1.349 1_545 S
C277 C279 1.327 . S
C277 H300 0.950 . S
C278 C277 1.349 1_565 S
C278 C290 1.349 . S
C279 C277 1.327 . S
C279 C295 1.429 . S
C279 H301 0.950 . S
C280 H276 0.949 . S
C280 C288 1.574 . S
C280 C296 1.368 1_565 S
H281 C289 0.950 . S
H282 C287 0.950 . S
H283 C288 0.949 . S
H284 C290 0.950 . S
H285 C291 0.950 . S
H286 C292 0.949 . S
C287 H282 0.950 . S
C287 C289 1.327 . S
C287 C293 1.429 . S
C288 C280 1.574 . S
C288 H283 0.949 . S
C288 C294 1.368 1_565 S
C289 C273 1.349 . S
C289 H281 0.950 . S
C289 C287 1.327 . S
C290 C278 1.349 . S
C290 H284 0.950 . S
C290 C291 1.327 . S
C291 H285 0.950 . S
C291 C290 1.327 . S
C291 C295 1.429 1_565 S
C292 C275 1.574 . S
C292 H286 0.949 . S
C292 C296 1.368 . S
C293 C274 1.429 . S
C293 C287 1.429 . S
C293 C294 1.523 . S
C294 C275 1.368 . S
C294 C288 1.368 1_545 S
C294 C293 1.523 . S
C295 C279 1.429 . S
C295 C291 1.429 1_545 S
C295 C296 1.523 . S
C296 C280 1.368 1_545 S
C296 C292 1.368 . S
C296 C295 1.523 . S
H297 C272 0.950 1_565 S
H298 C274 0.950 1_565 S
H299 C275 0.949 . S
H300 C277 0.950 . S
H301 C279 0.950 . S
C302 C303 1.349 . S
C302 C304 1.327 . S
C302 H327 0.950 1_455 S
C303 C302 1.349 . S
C303 C319 1.349 . S
C304 C302 1.327 . S
C304 C323 1.429 . S
C304 H328 0.950 1_455 S
C305 C322 1.574 . S
C305 C324 1.368 . S
C305 H329 0.949 . S
H306 C310 0.949 . S
C307 C308 1.349 1_455 S
C307 C309 1.327 . S
C307 H330 0.950 . S
C308 C307 1.349 1_655 S
C308 C320 1.349 . S
C309 C307 1.327 . S
C309 C325 1.429 . S
C309 H331 0.950 . S
C310 H306 0.949 . S
C310 C318 1.574 . S
C310 C326 1.368 1_655 S
H311 C319 0.950 . S
H312 C317 0.950 . S
H313 C318 0.949 . S
H314 C320 0.950 . S
H315 C321 0.950 . S
H316 C322 0.949 . S
C317 H312 0.950 . S
C317 C319 1.327 . S
C317 C323 1.429 . S
C318 C310 1.574 . S
C318 H313 0.949 . S
C318 C324 1.368 1_655 S
C319 C303 1.349 . S
C319 H311 0.950 . S
C319 C317 1.327 . S
C320 C308 1.349 . S
C320 H314 0.950 . S
C320 C321 1.327 . S
C321 H315 0.950 . S
C321 C320 1.327 . S
C321 C325 1.429 1_655 S
C322 C305 1.574 . S
C322 H316 0.949 . S
C322 C326 1.368 . S
C323 C304 1.429 . S
C323 C317 1.429 . S
C323 C324 1.523 . S
C324 C305 1.368 . S
C324 C318 1.368 1_455 S
C324 C323 1.523 . S
C325 C309 1.429 . S
C325 C321 1.429 1_455 S
C325 C326 1.523 . S
C326 C310 1.368 1_455 S
C326 C322 1.368 . S
C326 C325 1.523 . S
H327 C302 0.950 1_655 S
H328 C304 0.950 1_655 S
H329 C305 0.949 . S
H330 C307 0.950 . S
H331 C309 0.950 . S
C332 C333 1.349 . S
C332 C334 1.327 . S
C332 H357 0.950 . S
C333 C332 1.349 . S
C333 C349 1.349 . S
C334 C332 1.327 . S
C334 C353 1.429 . S
C334 H358 0.950 . S
C335 C352 1.574 1_655 S
C335 C354 1.368 . S
C335 H359 0.949 1_556 S
H336 C340 0.949 . S
C337 C338 1.349 . S
C337 C339 1.327 . S
C337 H360 0.950 1_556 S
C338 C337 1.349 . S
C338 C350 1.349 . S
C339 C337 1.327 . S
C339 C355 1.429 . S
C339 H361 0.950 1_556 S
C340 H336 0.949 . S
C340 C348 1.574 1_455 S
C340 C356 1.368 . S
H341 C349 0.950 1_554 S
H342 C347 0.950 1_554 S
H343 C348 0.949 . S
H344 C350 0.950 . S
H345 C351 0.950 . S
H346 C352 0.949 1_554 S
C347 H342 0.950 1_556 S
C347 C349 1.327 . S
C347 C353 1.429 . S
C348 C340 1.574 1_655 S
C348 H343 0.949 . S
C348 C354 1.368 . S
C349 C333 1.349 . S
C349 H341 0.950 1_556 S
C349 C347 1.327 . S
C350 C338 1.349 . S
C350 H344 0.950 . S
C350 C351 1.327 . S
C351 H345 0.950 . S
C351 C350 1.327 . S
C351 C355 1.429 . S
C352 C335 1.574 1_455 S
C352 H346 0.949 1_556 S
C352 C356 1.368 . S
C353 C334 1.429 . S
C353 C347 1.429 . S
C353 C354 1.523 . S
C354 C335 1.368 . S
C354 C348 1.368 . S
C354 C353 1.523 . S
C355 C339 1.429 . S
C355 C351 1.429 . S
C355 C356 1.523 . S
C356 C340 1.368 . S
C356 C352 1.368 . S
C356 C355 1.523 . S
H357 C332 0.950 . S
H358 C334 0.950 . S
H359 C335 0.949 1_554 S
H360 C337 0.950 1_554 S
H361 C339 0.950 1_554 S
C362 C363 1.349 . S
C362 C364 1.327 . S
C362 H387 0.950 . S
C363 C362 1.349 . S
C363 C379 1.349 . S
C364 C362 1.327 . S
C364 C383 1.429 . S
C364 H388 0.950 . S
C365 C382 1.574 1_565 S
C365 C384 1.368 . S
C365 H389 0.949 1_554 S
H366 C370 0.949 . S
C367 C368 1.349 . S
C367 C369 1.327 . S
C367 H390 0.950 1_554 S
C368 C367 1.349 . S
C368 C380 1.349 . S
C369 C367 1.327 . S
C369 C385 1.429 . S
C369 H391 0.950 1_554 S
C370 H366 0.949 . S
C370 C378 1.574 1_545 S
C370 C386 1.368 . S
H371 C379 0.950 1_556 S
H372 C377 0.950 1_556 S
H373 C378 0.949 . S
H374 C380 0.950 . S
H375 C381 0.950 . S
H376 C382 0.949 1_556 S
C377 H372 0.950 1_554 S
C377 C379 1.327 . S
C377 C383 1.429 . S
C378 C370 1.574 1_565 S
C378 H373 0.949 . S
C378 C384 1.368 . S
C379 C363 1.349 . S
C379 H371 0.950 1_554 S
C379 C377 1.327 . S
C380 C368 1.349 . S
C380 H374 0.950 . S
C380 C381 1.327 . S
C381 H375 0.950 . S
C381 C380 1.327 . S
C381 C385 1.429 . S
C382 C365 1.574 1_545 S
C382 H376 0.949 1_554 S
C382 C386 1.368 . S
C383 C364 1.429 . S
C383 C377 1.429 . S
C383 C384 1.523 . S
C384 C365 1.368 . S
C384 C378 1.368 . S
C384 C383 1.523 . S
C385 C369 1.429 . S
C385 C381 1.429 . S
C385 C386 1.523 . S
C386 C370 1.368 . S
C386 C382 1.368 . S
C386 C385 1.523 . S
H387 C362 0.950 . S
H388 C364 0.950 . S
H389 C365 0.949 1_556 S
H390 C367 0.950 1_556 S
H391 C369 0.950 1_556 S
C392 C393 1.349 . S
C392 C394 1.327 . S
C392 H417 0.950 . S
C393 C392 1.349 . S
C393 C409 1.349 . S
C394 C392 1.327 . S
C394 C413 1.429 . S
C394 H418 0.950 . S
C395 C412 1.574 . S
C395 C414 1.368 . S
C395 H419 0.949 . S
H396 C400 0.949 . S
C397 C398 1.349 . S
C397 C399 1.327 . S
C397 H420 0.950 . S
C398 C397 1.349 . S
C398 C410 1.349 . S
C399 C397 1.327 . S
C399 C415 1.429 . S
C399 H421 0.950 . S
C400 H396 0.949 . S
C400 C408 1.574 . S
C400 C416 1.368 . S
H401 C409 0.950 . S
H402 C407 0.950 . S
H403 C408 0.949 . S
H404 C410 0.950 . S
H405 C411 0.950 . S
H406 C412 0.949 . S
C407 H402 0.950 . S
C407 C409 1.327 . S
C407 C413 1.429 . S
C408 C400 1.574 . S
C408 H403 0.949 . S
C408 C414 1.368 . S
C409 C393 1.349 . S
C409 H401 0.950 . S
C409 C407 1.327 . S
C410 C398 1.349 . S
C410 H404 0.950 . S
C410 C411 1.327 . S
C411 H405 0.950 . S
C411 C410 1.327 . S
C411 C415 1.429 . S
C412 C395 1.574 . S
C412 H406 0.949 . S
C412 C416 1.368 . S
C413 C394 1.429 . S
C413 C407 1.429 . S
C413 C414 1.523 . S
C414 C395 1.368 . S
C414 C408 1.368 . S
C414 C413 1.523 . S
C415 C399 1.429 . S
C415 C411 1.429 . S
C415 C416 1.523 . S
C416 C400 1.368 . S
C416 C412 1.368 . S
C416 C415 1.523 . S
H417 C392 0.950 . S
H418 C394 0.950 . S
H419 C395 0.949 . S
H420 C397 0.950 . S
H421 C399 0.950 . S
C422 C423 1.349 . S
C422 C424 1.327 . S
C422 H447 0.950 . S
C423 C422 1.349 . S
C423 C439 1.349 . S
C424 C422 1.327 . S
C424 C443 1.429 . S
C424 H448 0.950 . S
C425 C442 1.574 . S
C425 C444 1.368 . S
C425 H449 0.949 . S
H426 C430 0.949 . S
C427 C428 1.349 . S
C427 C429 1.327 . S
C427 H450 0.950 . S
C428 C427 1.349 . S
C428 C440 1.349 . S
C429 C427 1.327 . S
C429 C445 1.429 . S
C429 H451 0.950 . S
C430 H426 0.949 . S
C430 C438 1.574 . S
C430 C446 1.368 . S
H431 C439 0.950 . S
H432 C437 0.950 . S
H433 C438 0.949 . S
H434 C440 0.950 . S
H435 C441 0.950 . S
H436 C442 0.949 . S
C437 H432 0.950 . S
C437 C439 1.327 . S
C437 C443 1.429 . S
C438 C430 1.574 . S
C438 H433 0.949 . S
C438 C444 1.368 . S
C439 C423 1.349 . S
C439 H431 0.950 . S
C439 C437 1.327 . S
C440 C428 1.349 . S
C440 H434 0.950 . S
C440 C441 1.327 . S
C441 H435 0.950 . S
C441 C440 1.327 . S
C441 C445 1.429 . S
C442 C425 1.574 . S
C442 H436 0.949 . S
C442 C446 1.368 . S
C443 C424 1.429 . S
C443 C437 1.429 . S
C443 C444 1.523 . S
C444 C425 1.368 . S
C444 C438 1.368 . S
C444 C443 1.523 . S
C445 C429 1.429 . S
C445 C441 1.429 . S
C445 C446 1.523 . S
C446 C430 1.368 . S
C446 C442 1.368 . S
C446 C445 1.523 . S
H447 C422 0.950 . S
H448 C424 0.950 . S
H449 C425 0.949 . S
H450 C427 0.950 . S
H451 C429 0.950 . S
C452 C453 1.349 . S
C452 C454 1.327 . S
C452 H477 0.950 . S
C453 C452 1.349 . S
C453 C469 1.349 . S
C454 C452 1.327 . S
C454 C473 1.429 . S
C454 H478 0.950 . S
C455 C472 1.574 . S
C455 C474 1.368 . S
C455 H479 0.949 . S
H456 C460 0.949 . S
C457 C458 1.349 . S
C457 C459 1.327 . S
C457 H480 0.950 . S
C458 C457 1.349 . S
C458 C470 1.349 . S
C459 C457 1.327 . S
C459 C475 1.429 . S
C459 H481 0.950 . S
C460 H456 0.949 . S
C460 C468 1.574 . S
C460 C476 1.368 . S
H461 C469 0.950 . S
H462 C467 0.950 . S
H463 C468 0.949 . S
H464 C470 0.950 . S
H465 C471 0.950 . S
H466 C472 0.949 . S
C467 H462 0.950 . S
C467 C469 1.327 . S
C467 C473 1.429 . S
C468 C460 1.574 . S
C468 H463 0.949 . S
C468 C474 1.368 . S
C469 C453 1.349 . S
C469 H461 0.950 . S
C469 C467 1.327 . S
C470 C458 1.349 . S
C470 H464 0.950 . S
C470 C471 1.327 . S
C471 H465 0.950 . S
C471 C470 1.327 . S
C471 C475 1.429 . S
C472 C455 1.574 . S
C472 H466 0.949 . S
C472 C476 1.368 . S
C473 C454 1.429 . S
C473 C467 1.429 . S
C473 C474 1.523 . S
C474 C455 1.368 . S
C474 C468 1.368 . S
C474 C473 1.523 . S
C475 C459 1.429 . S
C475 C471 1.429 . S
C475 C476 1.523 . S
C476 C460 1.368 . S
C476 C472 1.368 . S
C476 C475 1.523 . S
H477 C452 0.950 . S
H478 C454 0.950 . S
H479 C455 0.949 . S
H480 C457 0.950 . S
H481 C459 0.950 . S
C482 C483 1.349 . S
C482 C484 1.327 . S
C482 H507 0.950 . S
C483 C482 1.349 . S
C483 C499 1.349 . S
C484 C482 1.327 . S
C484 C503 1.429 . S
C484 H508 0.950 . S
C485 C502 1.574 . S
C485 C504 1.368 . S
C485 H509 0.949 . S
H486 C490 0.949 . S
C487 C488 1.349 . S
C487 C489 1.327 . S
C487 H510 0.950 . S
C488 C487 1.349 . S
C488 C500 1.349 . S
C489 C487 1.327 . S
C489 C505 1.429 . S
C489 H511 0.950 . S
C490 H486 0.949 . S
C490 C498 1.574 . S
C490 C506 1.368 . S
H491 C499 0.950 . S
H492 C497 0.950 . S
H493 C498 0.949 . S
H494 C500 0.950 . S
H495 C501 0.950 . S
H496 C502 0.949 . S
C497 H492 0.950 . S
C497 C499 1.327 . S
C497 C503 1.429 . S
C498 C490 1.574 . S
C498 H493 0.949 . S
C498 C504 1.368 . S
C499 C483 1.349 . S
C499 H491 0.950 . S
C499 C497 1.327 . S
C500 C488 1.349 . S
C500 H494 0.950 . S
C500 C501 1.327 . S
C501 H495 0.950 . S
C501 C500 1.327 . S
C501 C505 1.429 . S
C502 C485 1.574 . S
C502 H496 0.949 . S
C502 C506 1.368 . S
C503 C484 1.429 . S
C503 C497 1.429 . S
C503 C504 1.523 . S
C504 C485 1.368 . S
C504 C498 1.368 . S
C504 C503 1.523 . S
C505 C489 1.429 . S
C505 C501 1.429 . S
C505 C506 1.523 . S
C506 C490 1.368 . S
C506 C502 1.368 . S
C506 C505 1.523 . S
H507 C482 0.950 . S
H508 C484 0.950 . S
H509 C485 0.949 . S
H510 C487 0.950 . S
H511 C489 0.950 . S
C512 C513 1.349 . S
C512 C514 1.327 . S
C512 H537 0.950 . S
C513 C512 1.349 . S
C513 C529 1.349 . S
C514 C512 1.327 . S
C514 C533 1.429 . S
C514 H538 0.950 . S
C515 C532 1.574 . S
C515 C534 1.368 1_556 S
C515 H539 0.949 . S
H516 C520 0.949 . S
C517 C518 1.349 . S
C517 C519 1.327 . S
C517 H540 0.950 . S
C518 C517 1.349 . S
C518 C530 1.349 . S
C519 C517 1.327 . S
C519 C535 1.429 . S
C519 H541 0.950 . S
C520 H516 0.949 . S
C520 C528 1.574 . S
C520 C536 1.368 1_554 S
H521 C529 0.950 1_556 S
H522 C527 0.973 . S
H523 C528 0.949 . S
H524 C530 0.950 1_554 S
H525 C531 0.973 . S
H526 C532 0.949 . S
C527 H522 0.973 . S
C527 C529 1.320 1_556 S
C527 C533 1.414 1_556 S
C528 C520 1.574 . S
C528 H523 0.949 . S
C528 C534 1.368 . S
C529 C513 1.349 . S
C529 H521 0.950 1_554 S
C529 C527 1.320 1_554 S
C530 C518 1.349 . S
C530 H524 0.950 1_556 S
C530 C531 1.320 1_556 S
C531 H525 0.973 . S
C531 C530 1.320 1_554 S
C531 C535 1.414 1_554 S
C532 C515 1.574 . S
C532 H526 0.949 . S
C532 C536 1.368 . S
C533 C514 1.429 . S
C533 C527 1.414 1_554 S
C533 C534 1.523 . S
C534 C515 1.368 1_554 S
C534 C528 1.368 . S
C534 C533 1.523 . S
C535 C519 1.429 . S
C535 C531 1.414 1_556 S
C535 C536 1.523 . S
C536 C520 1.368 1_556 S
C536 C532 1.368 . S
C536 C535 1.523 . S
H537 C512 0.950 . S
H538 C514 0.950 . S
H539 C515 0.949 . S
H540 C517 0.950 . S
H541 C519 0.950 . S
C542 C543 1.349 . S
C542 C544 1.327 . S
C542 H567 0.950 . S
C543 C542 1.349 . S
C543 C559 1.349 1_556 S
C544 C542 1.327 . S
C544 C563 1.429 . S
C544 H568 0.950 . S
C545 C562 1.574 . S
C545 C564 1.342 1_554 S
C545 H569 0.949 . S
H546 C550 0.949 . S
C547 C548 1.349 . S
C547 C549 1.327 . S
C547 H570 0.950 . S
C548 C547 1.349 . S
C548 C560 1.349 1_554 S
C549 C547 1.327 . S
C549 C565 1.429 . S
C549 H571 0.950 . S
C550 H546 0.949 . S
C550 C558 1.574 . S
C550 C566 1.342 1_556 S
H551 C559 0.950 . S
H552 C557 0.950 . S
H553 C558 0.949 . S
H554 C560 0.950 . S
H555 C561 0.950 . S
H556 C562 0.949 . S
C557 H552 0.950 . S
C557 C559 1.327 . S
C557 C563 1.429 1_554 S
C558 C550 1.574 . S
C558 H553 0.949 . S
C558 C564 1.395 . S
C559 C543 1.349 1_554 S
C559 H551 0.950 . S
C559 C557 1.327 . S
C560 C548 1.349 1_556 S
C560 H554 0.950 . S
C560 C561 1.327 . S
C561 H555 0.950 . S
C561 C560 1.327 . S
C561 C565 1.429 1_556 S
C562 C545 1.574 . S
C562 H556 0.949 . S
C562 C566 1.395 . S
C563 C544 1.429 . S
C563 C557 1.429 1_556 S
C563 C564 1.524 . S
C564 C545 1.342 1_556 S
C564 C558 1.395 . S
C564 C563 1.524 . S
C565 C549 1.429 . S
C565 C561 1.429 1_554 S
C565 C566 1.524 . S
C566 C550 1.342 1_554 S
C566 C562 1.395 . S
C566 C565 1.524 . S
H567 C542 0.950 . S
H568 C544 0.950 . S
H569 C545 0.949 . S
H570 C547 0.950 . S
H571 C549 0.950 . S
C572 C573 1.349 . S
C572 C574 1.326 . S
C572 H597 0.950 1_554 S
C573 C572 1.349 . S
C573 C589 1.349 . S
C574 C572 1.326 . S
C574 C593 1.427 . S
C574 H598 0.952 1_554 S
C575 C592 1.574 . S
C575 C594 1.368 . S
C575 H599 0.949 . S
H576 C580 0.949 . S
C577 C578 1.349 . S
C577 C579 1.326 . S
C577 H600 0.950 1_556 S
C578 C577 1.349 . S
C578 C590 1.349 . S
C579 C577 1.326 . S
C579 C595 1.427 . S
C579 H601 0.952 1_556 S
C580 H576 0.949 . S
C580 C588 1.574 . S
C580 C596 1.368 . S
H581 C589 0.950 . S
H582 C587 0.950 . S
H583 C588 0.949 . S
H584 C590 0.950 . S
H585 C591 0.950 . S
H586 C592 0.949 . S
C587 H582 0.950 . S
C587 C589 1.327 . S
C587 C593 1.429 . S
C588 C580 1.574 . S
C588 H583 0.949 . S
C588 C594 1.368 1_556 S
C589 C573 1.349 . S
C589 H581 0.950 . S
C589 C587 1.327 . S
C590 C578 1.349 . S
C590 H584 0.950 . S
C590 C591 1.327 . S
C591 H585 0.950 . S
C591 C590 1.327 . S
C591 C595 1.429 . S
C592 C575 1.574 . S
C592 H586 0.949 . S
C592 C596 1.368 1_554 S
C593 C574 1.427 . S
C593 C587 1.429 . S
C593 C594 1.523 . S
C594 C575 1.368 . S
C594 C588 1.368 1_554 S
C594 C593 1.523 . S
C595 C579 1.427 . S
C595 C591 1.429 . S
C595 C596 1.523 . S
C596 C580 1.368 . S
C596 C592 1.368 1_556 S
C596 C595 1.523 . S
H597 C572 0.950 1_556 S
H598 C574 0.952 1_556 S
H599 C575 0.949 . S
H600 C577 0.950 1_554 S
H601 C579 0.952 1_554 S
C602 C603 1.349 1_554 S
C602 C604 1.327 . S
C602 H627 0.950 . S
C603 C602 1.349 1_556 S
C603 C619 1.349 . S
C604 C602 1.327 . S
C604 C623 1.429 1_554 S
C604 H628 0.950 . S
C605 C622 1.574 . S
C605 C624 1.394 . S
C605 H629 0.949 . S
H606 C610 0.949 . S
C607 C608 1.349 1_556 S
C607 C609 1.327 . S
C607 H630 0.950 . S
C608 C607 1.349 1_554 S
C608 C620 1.349 . S
C609 C607 1.327 . S
C609 C625 1.429 1_556 S
C609 H631 0.950 . S
C610 H606 0.949 . S
C610 C618 1.574 . S
C610 C626 1.394 . S
H611 C619 0.950 . S
H612 C617 0.950 . S
H613 C618 0.949 . S
H614 C620 0.950 . S
H615 C621 0.950 . S
H616 C622 0.949 . S
C617 H612 0.950 . S
C617 C619 1.327 . S
C617 C623 1.429 . S
C618 C610 1.574 . S
C618 H613 0.949 . S
C618 C624 1.343 1_554 S
C619 C603 1.349 . S
C619 H611 0.950 . S
C619 C617 1.327 . S
C620 C608 1.349 . S
C620 H614 0.950 . S
C620 C621 1.327 . S
C621 H615 0.950 . S
C621 C620 1.327 . S
C621 C625 1.429 . S
C622 C605 1.574 . S
C622 H616 0.949 . S
C622 C626 1.342 1_556 S
C623 C604 1.429 1_556 S
C623 C617 1.429 . S
C623 C624 1.524 . S
C624 C605 1.394 . S
C624 C618 1.343 1_556 S
C624 C623 1.524 . S
C625 C609 1.429 1_554 S
C625 C621 1.429 . S
C625 C626 1.524 . S
C626 C610 1.394 . S
C626 C622 1.342 1_554 S
C626 C625 1.524 . S
H627 C602 0.950 . S
H628 C604 0.950 . S
H629 C605 0.949 . S
H630 C607 0.950 . S
H631 C609 0.950 . S
C632 C633 1.349 . S
C632 C634 1.327 . S
C632 H657 0.950 . S
C633 C632 1.349 . S
C633 C649 1.349 . S
C634 C632 1.327 . S
C634 C653 1.429 . S
C634 H658 0.950 . S
C635 C652 1.574 . S
C635 C654 1.368 . S
C635 H659 0.949 . S
H636 C640 0.949 . S
C637 C638 1.349 . S
C637 C639 1.327 . S
C637 H660 0.950 . S
C638 C637 1.349 . S
C638 C650 1.349 . S
C639 C637 1.327 . S
C639 C655 1.429 . S
C639 H661 0.950 . S
C640 H636 0.949 . S
C640 C648 1.574 . S
C640 C656 1.368 . S
H641 C649 0.950 . S
H642 C647 0.950 . S
H643 C648 0.949 . S
H644 C650 0.950 . S
H645 C651 0.950 . S
H646 C652 0.949 . S
C647 H642 0.950 . S
C647 C649 1.327 . S
C647 C653 1.429 . S
C648 C640 1.574 . S
C648 H643 0.949 . S
C648 C654 1.368 . S
C649 C633 1.349 . S
C649 H641 0.950 . S
C649 C647 1.327 . S
C650 C638 1.349 . S
C650 H644 0.950 . S
C650 C651 1.327 . S
C651 H645 0.950 . S
C651 C650 1.327 . S
C651 C655 1.429 . S
C652 C635 1.574 . S
C652 H646 0.949 . S
C652 C656 1.368 . S
C653 C634 1.429 . S
C653 C647 1.429 . S
C653 C654 1.523 . S
C654 C635 1.368 . S
C654 C648 1.368 . S
C654 C653 1.523 . S
C655 C639 1.429 . S
C655 C651 1.429 . S
C655 C656 1.523 . S
C656 C640 1.368 . S
C656 C652 1.368 . S
C656 C655 1.523 . S
H657 C632 0.950 . S
H658 C634 0.950 . S
H659 C635 0.949 . S
H660 C637 0.950 . S
H661 C639 0.950 . S
C662 C663 1.349 . S
C662 C664 1.327 . S
C662 H687 0.950 . S
C663 C662 1.349 . S
C663 C679 1.349 . S
C664 C662 1.327 . S
C664 C683 1.429 . S
C664 H688 0.950 . S
C665 C682 1.574 . S
C665 C684 1.368 . S
C665 H689 0.949 . S
H666 C670 0.949 . S
C667 C668 1.349 . S
C667 C669 1.327 . S
C667 H690 0.950 . S
C668 C667 1.349 . S
C668 C680 1.349 . S
C669 C667 1.327 . S
C669 C685 1.429 . S
C669 H691 0.950 . S
C670 H666 0.949 . S
C670 C678 1.574 . S
C670 C686 1.368 . S
H671 C679 0.950 . S
H672 C677 0.950 . S
H673 C678 0.949 . S
H674 C680 0.950 . S
H675 C681 0.950 . S
H676 C682 0.949 . S
C677 H672 0.950 . S
C677 C679 1.327 . S
C677 C683 1.429 . S
C678 C670 1.574 . S
C678 H673 0.949 . S
C678 C684 1.368 . S
C679 C663 1.349 . S
C679 H671 0.950 . S
C679 C677 1.327 . S
C680 C668 1.349 . S
C680 H674 0.950 . S
C680 C681 1.327 . S
C681 H675 0.950 . S
C681 C680 1.327 . S
C681 C685 1.429 . S
C682 C665 1.574 . S
C682 H676 0.949 . S
C682 C686 1.368 . S
C683 C664 1.429 . S
C683 C677 1.429 . S
C683 C684 1.523 . S
C684 C665 1.368 . S
C684 C678 1.368 . S
C684 C683 1.523 . S
C685 C669 1.429 . S
C685 C681 1.429 . S
C685 C686 1.523 . S
C686 C670 1.368 . S
C686 C682 1.368 . S
C686 C685 1.523 . S
H687 C662 0.950 . S
H688 C664 0.950 . S
H689 C665 0.949 . S
H690 C667 0.950 . S
H691 C669 0.950 . S
C692 C693 1.349 . S
C692 C694 1.327 . S
C692 H717 0.950 . S
C693 C692 1.349 . S
C693 C709 1.349 . S
C694 C692 1.327 . S
C694 C713 1.429 . S
C694 H718 0.950 . S
C695 C712 1.574 . S
C695 C714 1.368 . S
C695 H719 0.949 . S
H696 C700 0.949 . S
C697 C698 1.349 . S
C697 C699 1.327 . S
C697 H720 0.950 . S
C698 C697 1.349 . S
C698 C710 1.349 . S
C699 C697 1.327 . S
C699 C715 1.429 . S
C699 H721 0.950 . S
C700 H696 0.949 . S
C700 C708 1.574 . S
C700 C716 1.368 . S
H701 C709 0.950 . S
H702 C707 0.950 . S
H703 C708 0.949 . S
H704 C710 0.950 . S
H705 C711 0.950 . S
H706 C712 0.949 . S
C707 H702 0.950 . S
C707 C709 1.327 . S
C707 C713 1.429 . S
C708 C700 1.574 . S
C708 H703 0.949 . S
C708 C714 1.368 . S
C709 C693 1.349 . S
C709 H701 0.950 . S
C709 C707 1.327 . S
C710 C698 1.349 . S
C710 H704 0.950 . S
C710 C711 1.327 . S
C711 H705 0.950 . S
C711 C710 1.327 . S
C711 C715 1.429 . S
C712 C695 1.574 . S
C712 H706 0.949 . S
C712 C716 1.368 . S
C713 C694 1.429 . S
C713 C707 1.429 . S
C713 C714 1.523 . S
C714 C695 1.368 . S
C714 C708 1.368 . S
C714 C713 1.523 . S
C715 C699 1.429 . S
C715 C711 1.429 . S
C715 C716 1.523 . S
C716 C700 1.368 . S
C716 C712 1.368 . S
C716 C715 1.523 . S
H717 C692 0.950 . S
H718 C694 0.950 . S
H719 C695 0.949 . S
H720 C697 0.950 . S
H721 C699 0.950 . S
C722 C723 1.349 . S
C722 C724 1.327 . S
C722 H747 0.950 . S
C723 C722 1.349 . S
C723 C739 1.349 . S
C724 C722 1.327 . S
C724 C743 1.429 . S
C724 H748 0.950 . S
C725 C742 1.574 . S
C725 C744 1.368 . S
C725 H749 0.949 . S
H726 C730 0.949 . S
C727 C728 1.349 . S
C727 C729 1.327 . S
C727 H750 0.950 . S
C728 C727 1.349 . S
C728 C740 1.349 . S
C729 C727 1.327 . S
C729 C745 1.429 . S
C729 H751 0.950 . S
C730 H726 0.949 . S
C730 C738 1.574 . S
C730 C746 1.368 . S
H731 C739 0.950 . S
H732 C737 0.950 . S
H733 C738 0.949 . S
H734 C740 0.950 . S
H735 C741 0.950 . S
H736 C742 0.949 . S
C737 H732 0.950 . S
C737 C739 1.327 . S
C737 C743 1.429 . S
C738 C730 1.574 . S
C738 H733 0.949 . S
C738 C744 1.368 . S
C739 C723 1.349 . S
C739 H731 0.950 . S
C739 C737 1.327 . S
C740 C728 1.349 . S
C740 H734 0.950 . S
C740 C741 1.327 . S
C741 H735 0.950 . S
C741 C740 1.327 . S
C741 C745 1.429 . S
C742 C725 1.574 . S
C742 H736 0.949 . S
C742 C746 1.368 . S
C743 C724 1.429 . S
C743 C737 1.429 . S
C743 C744 1.523 . S
C744 C725 1.368 . S
C744 C738 1.368 . S
C744 C743 1.523 . S
C745 C729 1.429 . S
C745 C741 1.429 . S
C745 C746 1.523 . S
C746 C730 1.368 . S
C746 C742 1.368 . S
C746 C745 1.523 . S
H747 C722 0.950 . S
H748 C724 0.950 . S
H749 C725 0.949 . S
H750 C727 0.950 . S
H751 C729 0.950 . S
C752 C753 1.349 . S
C752 C754 1.327 . S
C752 H777 0.950 . S
C753 C752 1.349 . S
C753 C769 1.349 . S
C754 C752 1.327 . S
C754 C773 1.429 . S
C754 H778 0.950 . S
C755 C772 1.574 . S
C755 C774 1.368 . S
C755 H779 0.949 . S
H756 C760 0.949 . S
C757 C758 1.349 . S
C757 C759 1.327 . S
C757 H780 0.950 . S
C758 C757 1.349 . S
C758 C770 1.349 . S
C759 C757 1.327 . S
C759 C775 1.429 . S
C759 H781 0.950 . S
C760 H756 0.949 . S
C760 C768 1.574 . S
C760 C776 1.368 . S
H761 C769 0.950 . S
H762 C767 0.950 . S
H763 C768 0.949 . S
H764 C770 0.950 . S
H765 C771 0.950 . S
H766 C772 0.949 . S
C767 H762 0.950 . S
C767 C769 1.327 . S
C767 C773 1.429 . S
C768 C760 1.574 . S
C768 H763 0.949 . S
C768 C774 1.368 . S
C769 C753 1.349 . S
C769 H761 0.950 . S
C769 C767 1.327 . S
C770 C758 1.349 . S
C770 H764 0.950 . S
C770 C771 1.327 . S
C771 H765 0.950 . S
C771 C770 1.327 . S
C771 C775 1.429 . S
C772 C755 1.574 . S
C772 H766 0.949 . S
C772 C776 1.368 . S
C773 C754 1.429 . S
C773 C767 1.429 . S
C773 C774 1.523 . S
C774 C755 1.368 . S
C774 C768 1.368 . S
C774 C773 1.523 . S
C775 C759 1.429 . S
C775 C771 1.429 . S
C775 C776 1.523 . S
C776 C760 1.368 . S
C776 C772 1.368 . S
C776 C775 1.523 . S
H777 C752 0.950 . S
H778 C754 0.950 . S
H779 C755 0.949 . S
H780 C757 0.950 . S
H781 C759 0.950 . S
C782 C783 1.349 . S
C782 C784 1.327 . S
C782 H807 0.950 . S
C783 C782 1.349 . S
C783 C799 1.349 . S
C784 C782 1.327 . S
C784 C803 1.429 . S
C784 H808 0.950 . S
C785 C802 1.574 . S
C785 C804 1.368 . S
C785 H809 0.949 . S
H786 C790 0.949 . S
C787 C788 1.349 . S
C787 C789 1.327 . S
C787 H810 0.950 . S
C788 C787 1.349 . S
C788 C800 1.349 . S
C789 C787 1.327 . S
C789 C805 1.429 . S
C789 H811 0.950 . S
C790 H786 0.949 . S
C790 C798 1.574 . S
C790 C806 1.368 . S
H791 C799 0.950 . S
H792 C797 0.950 . S
H793 C798 0.949 . S
H794 C800 0.950 . S
H795 C801 0.950 . S
H796 C802 0.949 . S
C797 H792 0.950 . S
C797 C799 1.327 . S
C797 C803 1.429 . S
C798 C790 1.574 . S
C798 H793 0.949 . S
C798 C804 1.368 . S
C799 C783 1.349 . S
C799 H791 0.950 . S
C799 C797 1.327 . S
C800 C788 1.349 . S
C800 H794 0.950 . S
C800 C801 1.327 . S
C801 H795 0.950 . S
C801 C800 1.327 . S
C801 C805 1.429 . S
C802 C785 1.574 . S
C802 H796 0.949 . S
C802 C806 1.368 . S
C803 C784 1.429 . S
C803 C797 1.429 . S
C803 C804 1.523 . S
C804 C785 1.368 . S
C804 C798 1.368 . S
C804 C803 1.523 . S
C805 C789 1.429 . S
C805 C801 1.429 . S
C805 C806 1.523 . S
C806 C790 1.368 . S
C806 C802 1.368 . S
C806 C805 1.523 . S
H807 C782 0.950 . S
H808 C784 0.950 . S
H809 C785 0.949 . S
H810 C787 0.950 . S
H811 C789 0.950 . S
C812 C813 1.349 . S
C812 C814 1.327 . S
C812 H837 0.950 . S
C813 C812 1.349 . S
C813 C829 1.349 . S
C814 C812 1.327 . S
C814 C833 1.429 . S
C814 H838 0.950 . S
C815 C832 1.574 . S
C815 C834 1.368 . S
C815 H839 0.949 . S
H816 C820 0.949 . S
C817 C818 1.349 . S
C817 C819 1.327 . S
C817 H840 0.950 . S
C818 C817 1.349 . S
C818 C830 1.349 . S
C819 C817 1.327 . S
C819 C835 1.429 . S
C819 H841 0.950 . S
C820 H816 0.949 . S
C820 C828 1.574 . S
C820 C836 1.368 . S
H821 C829 0.950 . S
H822 C827 0.950 . S
H823 C828 0.949 . S
H824 C830 0.950 . S
H825 C831 0.950 . S
H826 C832 0.949 . S
C827 H822 0.950 . S
C827 C829 1.327 . S
C827 C833 1.429 . S
C828 C820 1.574 . S
C828 H823 0.949 . S
C828 C834 1.368 . S
C829 C813 1.349 . S
C829 H821 0.950 . S
C829 C827 1.327 . S
C830 C818 1.349 . S
C830 H824 0.950 . S
C830 C831 1.327 . S
C831 H825 0.950 . S
C831 C830 1.327 . S
C831 C835 1.429 . S
C832 C815 1.574 . S
C832 H826 0.949 . S
C832 C836 1.368 . S
C833 C814 1.429 . S
C833 C827 1.429 . S
C833 C834 1.523 . S
C834 C815 1.368 . S
C834 C828 1.368 . S
C834 C833 1.523 . S
C835 C819 1.429 . S
C835 C831 1.429 . S
C835 C836 1.523 . S
C836 C820 1.368 . S
C836 C832 1.368 . S
C836 C835 1.523 . S
H837 C812 0.950 . S
H838 C814 0.950 . S
H839 C815 0.949 . S
H840 C817 0.950 . S
H841 C819 0.950 . S
C842 C843 1.349 . S
C842 C844 1.327 . S
C842 H867 0.950 . S
C843 C842 1.349 . S
C843 C859 1.349 . S
C844 C842 1.327 . S
C844 C863 1.429 . S
C844 H868 0.950 . S
C845 C862 1.574 . S
C845 C864 1.368 . S
C845 H869 0.949 . S
H846 C850 0.949 . S
C847 C848 1.349 . S
C847 C849 1.327 . S
C847 H870 0.950 . S
C848 C847 1.349 . S
C848 C860 1.349 . S
C849 C847 1.327 . S
C849 C865 1.429 . S
C849 H871 0.950 . S
C850 H846 0.949 . S
C850 C858 1.574 . S
C850 C866 1.368 . S
H851 C859 0.950 . S
H852 C857 0.950 . S
H853 C858 0.949 . S
H854 C860 0.950 . S
H855 C861 0.950 . S
H856 C862 0.949 . S
C857 H852 0.950 . S
C857 C859 1.327 . S
C857 C863 1.429 . S
C858 C850 1.574 . S
C858 H853 0.949 . S
C858 C864 1.368 . S
C859 C843 1.349 . S
C859 H851 0.950 . S
C859 C857 1.327 . S
C860 C848 1.349 . S
C860 H854 0.950 . S
C860 C861 1.327 . S
C861 H855 0.950 . S
C861 C860 1.327 . S
C861 C865 1.429 . S
C862 C845 1.574 . S
C862 H856 0.949 . S
C862 C866 1.368 . S
C863 C844 1.429 . S
C863 C857 1.429 . S
C863 C864 1.523 . S
C864 C845 1.368 . S
C864 C858 1.368 . S
C864 C863 1.523 . S
C865 C849 1.429 . S
C865 C861 1.429 . S
C865 C866 1.523 . S
C866 C850 1.368 . S
C866 C862 1.368 . S
C866 C865 1.523 . S
H867 C842 0.950 . S
H868 C844 0.950 . S
H869 C845 0.949 . S
H870 C847 0.950 . S
H871 C849 0.950 . S
C273 C101 0.758 . S
C278 C33 0.758 . S
C303 C67 0.758 . S
C308 C135 0.758 . S
C333 C169 0.758 . S
C338 C237 0.758 . S
C363 C271 0.758 . S
C368 C203 0.758 . S
C393 C122 1.548 . S
C398 C20 1.548 . S
C423 C9 1.666 . S
C428 C43 1.666 . S
C453 C88 1.549 . S
C458 C54 1.549 . S
C483 C77 1.666 . S
C488 C111 1.666 . S
C513 C258 1.549 . S
C518 C156 1.549 . S
C543 C145 1.666 . S
C548 C179 1.666 . S
C573 C190 1.549 . S
C578 C224 1.549 . S
C603 C213 1.665 . S
C608 C247 1.665 . S
C633 C5 0.412 . S
C638 C175 0.412 . S
C663 C36 1.112 . S
C668 C206 1.112 . S
C693 C73 0.412 . S
C698 C243 0.412 . S
C723 C104 1.112 . S
C728 C138 1.112 . S
C753 C70 1.112 . S
C758 C172 1.112 . S
C783 C107 0.412 . S
C788 C209 0.412 . S
C813 C2 1.112 . S
C818 C240 1.112 . S
C843 C39 0.412 . S
C848 C141 0.412 . S
