# Generated by pormake.
# Topology wkh, (6)-cn, num edge types: 1
# Building blocks:
#     Node 0, Type 0, BuildingBlock: IZENUY_clean_sbu_0, # of connection points: 6
#     Node 1, Type 0, BuildingBlock: IZENUY_clean_sbu_0, # of connection points: 6
#     Node 2, Type 0, BuildingBlock: IZENUY_clean_sbu_0, # of connection points: 6
#     Node 3, Type 0, BuildingBlock: IZENUY_clean_sbu_0, # of connection points: 6
#     Node 4, Type 0, BuildingBlock: IZENUY_clean_sbu_0, # of connection points: 6
#     Node 5, Type 0, BuildingBlock: IZENUY_clean_sbu_0, # of connection points: 6
#     Node 6, Type 0, BuildingBlock: IZENUY_clean_sbu_0, # of connection points: 6
#     Node 7, Type 0, BuildingBlock: IZENUY_clean_sbu_0, # of connection points: 6
#     Node 8, Type 0, BuildingBlock: IZENUY_clean_sbu_0, # of connection points: 6
#     Node 9, Type 0, BuildingBlock: IZENUY_clean_sbu_0, # of connection points: 6
#     Node 10, Type 0, BuildingBlock: IZENUY_clean_sbu_0, # of connection points: 6
#     Node 11, Type 0, BuildingBlock: IZENUY_clean_sbu_0, # of connection points: 6
#     Edge 12, Type (0, 0), BuildingBlock: TEMPAE_clean_linker_10, # of connection points: 2
#     Edge 13, Type (0, 0), BuildingBlock: TEMPAE_clean_linker_10, # of connection points: 2
#     Edge 14, Type (0, 0), BuildingBlock: TEMPAE_clean_linker_10, # of connection points: 2
#     Edge 15, Type (0, 0), BuildingBlock: TEMPAE_clean_linker_10, # of connection points: 2
#     Edge 16, Type (0, 0), BuildingBlock: TEMPAE_clean_linker_10, # of connection points: 2
#     Edge 17, Type (0, 0), BuildingBlock: TEMPAE_clean_linker_10, # of connection points: 2
#     Edge 18, Type (0, 0), BuildingBlock: TEMPAE_clean_linker_10, # of connection points: 2
#     Edge 19, Type (0, 0), BuildingBlock: TEMPAE_clean_linker_10, # of connection points: 2
#     Edge 20, Type (0, 0), BuildingBlock: TEMPAE_clean_linker_10, # of connection points: 2
#     Edge 21, Type (0, 0), BuildingBlock: TEMPAE_clean_linker_10, # of connection points: 2
#     Edge 22, Type (0, 0), BuildingBlock: TEMPAE_clean_linker_10, # of connection points: 2
#     Edge 23, Type (0, 0), BuildingBlock: TEMPAE_clean_linker_10, # of connection points: 2
#     Edge 24, Type (0, 0), BuildingBlock: TEMPAE_clean_linker_10, # of connection points: 2
#     Edge 25, Type (0, 0), BuildingBlock: TEMPAE_clean_linker_10, # of connection points: 2
#     Edge 26, Type (0, 0), BuildingBlock: TEMPAE_clean_linker_10, # of connection points: 2
#     Edge 27, Type (0, 0), BuildingBlock: TEMPAE_clean_linker_10, # of connection points: 2
#     Edge 28, Type (0, 0), BuildingBlock: TEMPAE_clean_linker_10, # of connection points: 2
#     Edge 29, Type (0, 0), BuildingBlock: TEMPAE_clean_linker_10, # of connection points: 2
#     Edge 30, Type (0, 0), BuildingBlock: TEMPAE_clean_linker_10, # of connection points: 2
#     Edge 31, Type (0, 0), BuildingBlock: TEMPAE_clean_linker_10, # of connection points: 2
#     Edge 32, Type (0, 0), BuildingBlock: TEMPAE_clean_linker_10, # of connection points: 2
#     Edge 33, Type (0, 0), BuildingBlock: TEMPAE_clean_linker_10, # of connection points: 2
#     Edge 34, Type (0, 0), BuildingBlock: TEMPAE_clean_linker_10, # of connection points: 2
#     Edge 35, Type (0, 0), BuildingBlock: TEMPAE_clean_linker_10, # of connection points: 2
#     Edge 36, Type (0, 0), BuildingBlock: TEMPAE_clean_linker_10, # of connection points: 2
#     Edge 37, Type (0, 0), BuildingBlock: TEMPAE_clean_linker_10, # of connection points: 2
#     Edge 38, Type (0, 0), BuildingBlock: TEMPAE_clean_linker_10, # of connection points: 2
#     Edge 39, Type (0, 0), BuildingBlock: TEMPAE_clean_linker_10, # of connection points: 2
#     Edge 40, Type (0, 0), BuildingBlock: TEMPAE_clean_linker_10, # of connection points: 2
#     Edge 41, Type (0, 0), BuildingBlock: TEMPAE_clean_linker_10, # of connection points: 2
#     Edge 42, Type (0, 0), BuildingBlock: TEMPAE_clean_linker_10, # of connection points: 2
#     Edge 43, Type (0, 0), BuildingBlock: TEMPAE_clean_linker_10, # of connection points: 2
#     Edge 44, Type (0, 0), BuildingBlock: TEMPAE_clean_linker_10, # of connection points: 2
#     Edge 45, Type (0, 0), BuildingBlock: TEMPAE_clean_linker_10, # of connection points: 2
#     Edge 46, Type (0, 0), BuildingBlock: TEMPAE_clean_linker_10, # of connection points: 2
#     Edge 47, Type (0, 0), BuildingBlock: TEMPAE_clean_linker_10, # of connection points: 2
# Relax obj value: 0.286
# Max RMSD: 0.257
# Mean RMSD: 0.257
data_MOF--net-wkh--node1-IZENUY_clean_sbu_0--edge1-TEMPAE_clean_linker_10
_symmetry_space_group_name_H-M    P1
_symmetry_Int_Tables_number       1
_symmetry_cell_setting            triclinic
loop_
_symmetry_equiv_pos_as_xyz
'x, y, z'
_cell_length_a     26.994137
_cell_length_b     27.00428
_cell_length_c     80.986643
_cell_angle_alpha  89.994633
_cell_angle_beta   90.000035
_cell_angle_gamma 120.04001
loop_
_atom_site_label
_atom_site_type_symbol
_atom_site_fract_x
_atom_site_fract_y
_atom_site_fract_z
_atom_type_partial_charge
Fe0 Fe 0.22993 0.32109 1.01376 0.0
Fe1 Fe 0.31839 0.2826 1.017 0.0
O2 O 0.29142 0.32692 0.02343 0.0
Fe3 Fe 0.32584 0.37625 0.03976 0.0
O4 O 0.26176 0.34117 0.05236 0.0
O5 O 0.20062 0.3347 0.03326 0.0
O6 O 0.18721 0.24689 1.01903 0.0
C7 C 0.19908 0.20949 1.01479 0.0
C8 C 0.28388 0.43391 1.01881 0.0
O9 O 0.24926 0.22266 1.01064 0.0
C10 C 0.41987 0.38812 0.02337 0.0
O11 O 0.24786 0.30406 0.99273 0.0
O12 O 0.33255 0.31257 0.99641 0.0
O13 O 0.30468 0.42847 0.03236 0.0
O14 O 0.26854 0.39565 1.008 0.0
C15 C 0.32697 0.27695 0.05038 0.0
O16 O 0.39281 0.33413 0.02209 0.0
O17 O 0.3938 0.41393 0.02816 0.0
C18 C 0.2937 0.30792 0.98678 0.0
O19 O 0.30513 0.24977 0.03721 0.0
O20 O 0.3494 0.33112 0.05071 0.0
C21 C 0.2125 0.33177 0.04841 0.0
Fe22 Fe 0.95467 0.32475 0.20636 0.0
Fe23 Fe 0.91297 0.22757 0.18078 0.0
O24 O 0.96897 0.28977 0.19006 0.0
Fe25 Fe 0.03997 0.31684 0.18333 0.0
O26 O 0.06077 0.30487 0.20352 0.0
O27 O 0.02421 0.34973 0.21693 0.0
O28 O 0.92749 0.26154 0.21923 0.0
C29 C 0.88795 0.21185 0.21557 0.0
C30 C 0.03524 0.41805 0.1894 0.0
O31 O 0.87131 0.19917 0.20057 0.0
C32 C 0.9883 0.29018 0.15335 0.0
O33 O 0.8805 0.3023 0.19932 0.0
O34 O 0.87628 0.2654 0.17502 0.0
O35 O 0.06248 0.39132 0.18811 0.0
O36 O 0.98358 0.39191 0.19444 0.0
C37 C 0.99436 0.19756 0.18161 0.0
O38 O 0.94675 0.24452 0.15956 0.0
O39 O 0.02284 0.32966 0.16276 0.0
C40 C 0.85377 0.2811 0.18586 0.0
O41 O 0.94522 0.18561 0.18606 0.0
O42 O 0.03097 0.2476 0.17721 0.0
C43 C 0.05591 0.32731 0.21662 0.0
Fe44 Fe 0.7158 0.93114 0.35034 0.0
Fe45 Fe 0.72215 0.04634 0.35635 0.0
O46 O 0.68697 0.97098 0.35956 0.0
Fe47 Fe 0.62602 0.93787 0.37272 0.0
O48 O 0.64372 0.88635 0.38191 0.0
O49 O 0.72561 0.90562 0.37048 0.0
O50 O 0.78958 0.9886 0.35206 0.0
C51 C 0.8108 0.02826 0.36264 0.0
C52 C 0.59521 0.85274 0.34939 0.0
O53 O 0.78623 0.0559 0.36631 0.0
C54 C 0.61278 0.023 0.35417 0.0
O55 O 0.70923 0.95399 0.32928 0.0
O56 O 0.74919 0.04491 0.33567 0.0
O57 O 0.58106 0.885 0.35706 0.0
O58 O 0.64704 0.86664 0.34755 0.0
C59 C 0.69527 0.03819 0.38968 0.0
O60 O 0.65944 0.04022 0.3466 0.0
O61 O 0.59846 0.98637 0.36589 0.0
C62 C 0.73199 0.00603 0.32484 0.0
O63 O 0.70276 0.0643 0.37624 0.0
O64 O 0.667 0.98444 0.38987 0.0
C65 C 0.68955 0.88417 0.38213 0.0
Fe66 Fe 0.68441 0.62632 0.54007 0.0
Fe67 Fe 0.7834 0.68282 0.51511 0.0
O68 O 0.72066 0.67645 0.52405 0.0
Fe69 Fe 0.69464 0.72109 0.51713 0.0
O70 O 0.70483 0.75281 0.5374 0.0
O71 O 0.66011 0.67122 0.55081 0.0
O72 O 0.74727 0.66043 0.55326 0.0
C73 C 0.79662 0.66921 0.54971 0.0
C74 C 0.59193 0.61542 0.52285 0.0
O75 O 0.80959 0.66654 0.53469 0.0
C76 C 0.72482 0.69888 0.48739 0.0
O77 O 0.70597 0.57426 0.53266 0.0
O78 O 0.7449 0.60902 0.50866 0.0
O79 O 0.61942 0.66935 0.52134 0.0
O80 O 0.61746 0.58944 0.52796 0.0
C81 C 0.81441 0.79404 0.5166 0.0
O82 O 0.76958 0.7028 0.49407 0.0
O83 O 0.68371 0.69234 0.49634 0.0
C84 C 0.72778 0.56964 0.51918 0.0
O85 O 0.82544 0.75631 0.52117 0.0
O86 O 0.765 0.78133 0.5117 0.0
C87 C 0.68214 0.72536 0.55046 0.0
Fe88 Fe 0.06005 0.68122 0.70727 0.0
Fe89 Fe 0.1008 0.7766 0.68111 0.0
O90 O 0.04511 0.71538 0.69088 0.0
Fe91 Fe 0.97374 0.68833 0.68447 0.0
O92 O 0.95437 0.70208 0.70464 0.0
O93 O 0.99136 0.65793 0.71823 0.0
O94 O 0.08922 0.7455 0.71976 0.0
C95 C 0.12915 0.79463 0.71572 0.0
C96 C 0.97766 0.58701 0.69097 0.0
O97 O 0.14391 0.8062 0.70056 0.0
C98 C 0.02351 0.71239 0.65425 0.0
O99 O 0.13345 0.70223 0.69985 0.0
O100 O 0.13657 0.73778 0.67542 0.0
O101 O 0.95074 0.61405 0.68971 0.0
O102 O 0.0296 0.61309 0.69575 0.0
C103 C 0.0202 0.8076 0.68199 0.0
O104 O 0.0656 0.75833 0.66012 0.0
O105 O 0.98944 0.67369 0.66394 0.0
C106 C 0.15964 0.72278 0.68628 0.0
O107 O 0.06946 0.81951 0.68629 0.0
O108 O 0.98304 0.75732 0.67796 0.0
C109 C 0.95969 0.68043 0.71784 0.0
Fe110 Fe 0.3254 0.09736 0.84726 0.0
Fe111 Fe 0.28644 0.97029 0.85052 0.0
O112 O 0.33084 0.04157 0.85698 0.0
Fe113 Fe 0.37992 0.05635 0.87337 0.0
O114 O 0.34476 0.08536 0.8859 0.0
O115 O 0.33885 0.14024 0.86676 0.0
O116 O 0.25109 0.06599 0.85243 0.0
C117 C 0.21364 0.01672 0.84815 0.0
C118 C 0.43813 0.15614 0.85248 0.0
O119 O 0.22671 0.97962 0.84406 0.0
C120 C 0.39174 0.97415 0.85702 0.0
O121 O 0.30858 0.06245 0.82623 0.0
O122 O 0.31674 0.98613 0.82998 0.0
O123 O 0.43241 0.12979 0.86602 0.0
O124 O 0.40008 0.1332 0.84161 0.0
C125 C 0.28026 0.95593 0.88389 0.0
O126 O 0.33775 0.94727 0.8557 0.0
O127 O 0.41763 0.02603 0.86183 0.0
C128 C 0.31236 0.0204 0.82031 0.0
O129 O 0.25328 0.95071 0.87069 0.0
O130 O 0.33446 0.98759 0.88428 0.0
C131 C 0.33562 0.12533 0.88191 0.0
Fe132 Fe 0.72654 0.6905 0.8508 0.0
Fe133 Fe 0.63306 0.68285 0.8279 0.0
O134 O 0.68229 0.71742 0.84425 0.0
Fe135 Fe 0.68808 0.779 0.85382 0.0
O136 O 0.76235 0.82162 0.84857 0.0
O137 O 0.78647 0.75967 0.85714 0.0
O138 O 0.75956 0.70354 0.83063 0.0
C139 C 0.73251 0.68159 0.81745 0.0
C140 C 0.701 0.71553 0.88093 0.0
O141 O 0.67833 0.6592 0.81706 0.0
C142 C 0.57525 0.72499 0.84873 0.0
O143 O 0.67503 0.61607 0.84575 0.0
O144 O 0.59526 0.61501 0.83955 0.0
O145 O 0.70502 0.76134 0.87491 0.0
O146 O 0.69633 0.67656 0.87135 0.0
C147 C 0.6776 0.79602 0.81913 0.0
O148 O 0.58077 0.70411 0.83521 0.0
O149 O 0.61349 0.74045 0.85956 0.0
C150 C 0.62104 0.589 0.84442 0.0
O151 O 0.66826 0.74676 0.81525 0.0
O152 O 0.67455 0.80807 0.83426 0.0
C153 C 0.79971 0.80978 0.8529 0.0
Fe154 Fe 0.03884 0.72307 1.01715 0.0
Fe155 Fe 0.95266 0.62953 0.99433 0.0
O156 O 0.96751 0.67865 1.01071 0.0
Fe157 Fe 0.91173 0.68414 0.02042 0.0
O158 O 0.94309 0.75838 1.01522 0.0
O159 O 0.02952 0.78282 0.02357 0.0
O160 O 0.05839 0.75611 0.99696 0.0
C161 C 0.05311 0.72909 0.98377 0.0
C162 C 0.98883 0.69739 0.04737 0.0
O163 O 0.02141 0.67491 0.98339 0.0
C164 C 0.85293 0.57142 1.01526 0.0
O165 O 0.06183 0.67172 1.01199 0.0
O166 O 0.98301 0.59187 1.00587 0.0
O167 O 0.94672 0.70109 0.04145 0.0
O168 O 0.02305 0.69289 0.03771 0.0
C169 C 0.88363 0.67378 0.98579 0.0
O170 O 0.87922 0.57709 1.00171 0.0
O171 O 0.8759 0.60952 0.02612 0.0
C172 C 0.03494 0.61775 1.01066 0.0
O173 O 0.92361 0.66463 0.98179 0.0
O174 O 0.86876 0.67058 1.00094 0.0
C175 C 0.99238 0.79585 0.01948 0.0
Fe176 Fe 0.31914 0.03618 0.18372 0.0
Fe177 Fe 0.32701 0.95061 0.16078 0.0
O178 O 0.29238 0.96504 0.17715 0.0
Fe179 Fe 0.23096 0.90899 0.18676 0.0
O180 O 0.18799 0.94026 0.18154 0.0
O181 O 0.24985 0.02655 0.19005 0.0
O182 O 0.30601 0.05613 0.16354 0.0
C183 C 0.32795 0.0511 0.15035 0.0
C184 C 0.2941 0.98558 0.21385 0.0
O185 O 0.35049 0.01949 0.14995 0.0
C186 C 0.28528 0.85066 0.18158 0.0
O187 O 0.39366 0.05941 0.17867 0.0
O188 O 0.39487 0.98085 0.17242 0.0
O189 O 0.24847 0.94356 0.20782 0.0
O190 O 0.33311 0.01999 0.20428 0.0
C191 C 0.21381 0.88142 0.15209 0.0
O192 O 0.30601 0.87716 0.16807 0.0
O193 O 0.2699 0.87335 0.19246 0.0
C194 C 0.42079 0.0326 0.17733 0.0
O195 O 0.26295 0.92161 0.14816 0.0
O196 O 0.20198 0.86633 0.16722 0.0
C197 C 0.19972 0.98942 0.18588 0.0
Fe198 Fe 0.38112 0.32411 0.32614 0.0
Fe199 Fe 0.32502 0.23079 0.3529 0.0
O200 O 0.33337 0.29314 0.34302 0.0
Fe201 Fe 0.29297 0.32433 0.34978 0.0
O202 O 0.25766 0.31084 0.32992 0.0
O203 O 0.33716 0.34946 0.31545 0.0
O204 O 0.34222 0.25914 0.31409 0.0
C205 C 0.33132 0.20963 0.31827 0.0
C206 C 0.39968 0.42201 0.34145 0.0
O207 O 0.33432 0.19826 0.33345 0.0
C208 C 0.31841 0.29881 0.37984 0.0
O209 O 0.43169 0.30049 0.33324 0.0
O210 O 0.40041 0.26604 0.3579 0.0
O211 O 0.34626 0.39728 0.34388 0.0
O212 O 0.42288 0.39312 0.33699 0.0
C213 C 0.21521 0.20661 0.35314 0.0
O214 O 0.31209 0.25192 0.37394 0.0
O215 O 0.32534 0.33848 0.37013 0.0
C216 C 0.43744 0.2797 0.34675 0.0
O217 O 0.24944 0.19082 0.34855 0.0
O218 O 0.23198 0.25779 0.35692 0.0
C219 C 0.2835 0.3299 0.3164 0.0
Fe220 Fe 0.05783 0.37305 0.49327 0.0
Fe221 Fe 0.09859 0.31805 0.51931 0.0
O222 O 0.0428 0.32409 0.50973 0.0
Fe223 Fe 0.9716 0.28078 0.51656 0.0
O224 O 0.9492 0.2473 0.49653 0.0
O225 O 0.98884 0.32781 0.48241 0.0
O226 O 0.0862 0.33736 0.48072 0.0
C227 C 0.1265 0.32864 0.48463 0.0
C228 C 0.97668 0.38648 0.50989 0.0
O229 O 0.14129 0.3315 0.49977 0.0
C230 C 0.023 0.30568 0.54658 0.0
O231 O 0.13164 0.42524 0.5006 0.0
O232 O 0.13523 0.3927 0.525 0.0
O233 O 0.94951 0.33273 0.51162 0.0
O234 O 0.02821 0.41161 0.50476 0.0
C235 C 0.01688 0.20673 0.51849 0.0
O236 O 0.06433 0.30114 0.54045 0.0
O237 O 0.98924 0.3114 0.53706 0.0
C238 C 0.15815 0.4308 0.51413 0.0
O239 O 0.06625 0.24376 0.5141 0.0
O240 O 0.98032 0.22045 0.52273 0.0
C241 C 0.95449 0.27411 0.4833 0.0
Fe242 Fe 0.69395 0.96832 0.68358 0.0
Fe243 Fe 0.68634 0.0545 0.66082 0.0
O244 O 0.72104 0.03958 0.67707 0.0
Fe245 Fe 0.78291 0.09523 0.68661 0.0
O246 O 0.82523 0.06347 0.68119 0.0
O247 O 0.76316 0.97737 0.68977 0.0
O248 O 0.70647 0.94834 0.66335 0.0
C249 C 0.68429 0.95352 0.65023 0.0
C250 C 0.7197 0.01873 0.71375 0.0
O251 O 0.66223 0.98559 0.64991 0.0
C252 C 0.72905 0.15426 0.68177 0.0
O253 O 0.61948 0.94561 0.67867 0.0
O254 O 0.61867 0.02449 0.67258 0.0
O255 O 0.76552 0.06048 0.70768 0.0
O256 O 0.68049 0.98452 0.7042 0.0
C257 C 0.79947 0.12311 0.65192 0.0
O258 O 0.70798 0.12807 0.66823 0.0
O259 O 0.74466 0.13135 0.69251 0.0
C260 C 0.59257 0.97268 0.67745 0.0
O261 O 0.75008 0.08322 0.64808 0.0
O262 O 0.81178 0.13803 0.66705 0.0
C263 C 0.81327 0.01418 0.68547 0.0
C264 C 0.76019 0.51952 0.03087 0.0
C265 C 0.78911 0.53648 1.0157 0.0
C266 C 0.70056 0.49724 0.03192 0.0
C267 C 0.66881 0.49309 1.0175 0.0
C268 C 0.69772 0.50977 1.00211 0.0
C269 C 0.75714 0.53048 1.00137 0.0
C270 C 0.67163 0.47885 0.04853 0.0
C271 C 0.66618 0.50728 0.98646 0.0
C272 C 0.50918 0.38436 1.01758 0.0
C273 C 0.48371 0.41767 0.02127 0.0
C274 C 0.56871 0.40843 1.01625 0.0
C275 C 0.60494 0.46795 1.01841 0.0
C276 C 0.57994 0.50244 0.02175 0.0
C277 C 0.5197 0.47691 0.02324 0.0
C278 C 0.59289 0.36966 1.0128 0.0
C279 C 0.61695 0.56626 0.02388 0.0
H280 H 0.78457 0.52494 0.04203 0.0
H281 H 0.7791 0.54502 0.98964 0.0
H282 H 0.65095 0.50424 0.05169 0.0
H283 H 0.63743 0.43326 0.04806 0.0
H284 H 0.70208 0.4842 0.05853 0.0
H285 H 0.69501 0.52332 0.97556 0.0
H286 H 0.63203 0.46262 0.98401 0.0
H287 H 0.6451 0.5333 0.98791 0.0
H288 H 0.4825 0.33857 1.01593 0.0
H289 H 0.50092 0.50325 0.02602 0.0
H290 H 0.62169 0.37273 0.02302 0.0
H291 H 0.61884 0.38338 1.00134 0.0
H292 H 0.55897 0.32416 1.0114 0.0
H293 H 0.64549 0.57564 0.0347 0.0
H294 H 0.59122 0.58755 0.02568 0.0
H295 H 0.64474 0.58512 1.01289 0.0
C296 C 0.22921 0.75541 0.16757 0.0
C297 C 0.25621 0.78691 0.18188 0.0
C298 C 0.19019 0.6961 0.16826 0.0
C299 C 0.17885 0.66677 0.18356 0.0
C300 C 0.20752 0.69803 0.19794 0.0
C301 C 0.24503 0.75762 0.19697 0.0
C302 C 0.15986 0.66512 0.15267 0.0
C303 C 0.198 0.66859 0.21444 0.0
C304 C 0.04614 0.51772 0.1896 0.0
C305 C 0.06919 0.4818 0.18716 0.0
C306 C 0.08081 0.57795 0.18814 0.0
C307 C 0.14004 0.60295 0.18437 0.0
C308 C 0.16306 0.56677 0.18169 0.0
C309 C 0.12762 0.50727 0.18297 0.0
C310 C 0.05426 0.61494 0.19079 0.0
C311 C 0.22576 0.59097 0.17777 0.0
H312 H 0.23604 0.77769 0.15592 0.0
H313 H 0.26479 0.78168 0.20812 0.0
H314 H 0.17009 0.63105 0.14983 0.0
H315 H 0.11286 0.64404 0.15444 0.0
H316 H 0.17185 0.69431 0.14187 0.0
H317 H 0.22392 0.69868 0.22442 0.0
H318 H 0.15215 0.64796 0.21789 0.0
H319 H 0.20916 0.6343 0.21361 0.0
H320 H 1.00129 0.49894 0.19277 0.0
H321 H 0.14653 0.48061 0.18093 0.0
H322 H 0.06274 0.6433 0.17997 0.0
H323 H 0.07402 0.64289 0.20169 0.0
H324 H 0.00729 0.5892 0.19277 0.0
H325 H 0.23717 0.61724 0.16637 0.0
H326 H 0.23714 0.55708 0.176 0.0
H327 H 0.25234 0.61946 0.18793 0.0
C328 C 0.49522 0.24345 0.36148 0.0
C329 C 0.47073 0.24918 0.34684 0.0
C330 C 0.51739 0.20597 0.36247 0.0
C331 C 0.51264 0.17112 0.34874 0.0
C332 C 0.48768 0.17664 0.33395 0.0
C333 C 0.46823 0.21627 0.33308 0.0
C334 C 0.5455 0.20332 0.3783 0.0
C335 C 0.47955 0.13917 0.31918 0.0
C336 C 0.61528 0.11307 0.34513 0.0
C337 C 0.58381 0.05767 0.35189 0.0
C338 C 0.59276 0.14997 0.34415 0.0
C339 C 0.53627 0.13109 0.34959 0.0
C340 C 0.50333 0.07463 0.35596 0.0
C341 C 0.52777 0.03898 0.35731 0.0
C342 C 0.63026 0.20999 0.33768 0.0
C343 C 0.44229 0.05197 0.36141 0.0
H344 H 0.49636 0.26785 0.37225 0.0
H345 H 0.44791 0.21903 0.32185 0.0
H346 H 0.52097 0.15995 0.38376 0.0
H347 H 0.58931 0.21138 0.3757 0.0
H348 H 0.54835 0.23501 0.38755 0.0
H349 H 0.45862 0.14802 0.30867 0.0
H350 H 0.52142 0.14552 0.31495 0.0
H351 H 0.45282 0.0935 0.3227 0.0
H352 H 0.6589 0.12883 0.34106 0.0
H353 H 0.50302 0.99654 0.36257 0.0
H354 H 0.63456 0.24152 0.34718 0.0
H355 H 0.61031 0.21719 0.32665 0.0
H356 H 0.67373 0.21862 0.33425 0.0
H357 H 0.44118 0.07691 0.37214 0.0
H358 H 0.42101 0.0061 0.36495 0.0
H359 H 0.41736 0.05716 0.35134 0.0
C360 C 0.25435 0.47302 0.50029 0.0
C361 C 0.22206 0.46613 0.51461 0.0
C362 C 0.31392 0.49427 0.50106 0.0
C363 C 0.3427 0.5105 0.51648 0.0
C364 C 0.31058 0.5054 0.5309 0.0
C365 C 0.25087 0.48272 0.52982 0.0
C366 C 0.34578 0.49773 0.48538 0.0
C367 C 0.33922 0.52312 0.54757 0.0
C368 C 0.49195 0.52667 0.52229 0.0
C369 C 0.52804 0.58603 0.5206 0.0
C370 C 0.43171 0.50116 0.52066 0.0
C371 C 0.4067 0.53574 0.51747 0.0
C372 C 0.44303 0.5954 0.5156 0.0
C373 C 0.5026 0.61948 0.51707 0.0
C374 C 0.39472 0.43722 0.52249 0.0
C375 C 0.4189 0.63432 0.51234 0.0
H376 H 0.23255 0.45878 0.48852 0.0
H377 H 0.22631 0.47665 0.54099 0.0
H378 H 0.38008 0.54251 0.48317 0.0
H379 H 0.36669 0.4715 0.48665 0.0
H380 H 0.31719 0.48248 0.47442 0.0
H381 H 0.30857 0.51725 0.55756 0.0
H382 H 0.35994 0.49769 0.55062 0.0
H383 H 0.37335 0.56876 0.54726 0.0
H384 H 0.51064 0.50018 0.52496 0.0
H385 H 0.52932 0.66538 0.51567 0.0
H386 H 0.36723 0.41895 0.51142 0.0
H387 H 0.36587 0.4272 0.53327 0.0
H388 H 0.42044 0.41588 0.52419 0.0
H389 H 0.39309 0.6211 0.50084 0.0
H390 H 0.45284 0.67987 0.5111 0.0
H391 H 0.38997 0.63078 0.52257 0.0
C392 C 0.76958 0.24632 0.69766 0.0
C393 C 0.7574 0.21799 0.68239 0.0
C394 C 0.80676 0.30591 0.69887 0.0
C395 C 0.83388 0.33829 0.6845 0.0
C396 C 0.8213 0.31001 0.669 0.0
C397 C 0.78285 0.25056 0.66811 0.0
C398 C 0.8177 0.33412 0.7156 0.0
C399 C 0.84975 0.34229 0.65338 0.0
C400 C 0.88436 0.4977 0.68534 0.0
C401 C 0.94333 0.52322 0.68882 0.0
C402 C 0.84897 0.43823 0.68383 0.0
C403 C 0.87252 0.40212 0.6856 0.0
C404 C 0.93217 0.42717 0.68876 0.0
C405 C 0.96683 0.48735 0.69042 0.0
C406 C 0.78583 0.41399 0.6806 0.0
C407 C 0.95923 0.39029 0.69049 0.0
H408 H 0.751 0.22146 0.70878 0.0
H409 H 0.77527 0.22906 0.6563 0.0
H410 H 0.8639 0.35483 0.71863 0.0
H411 H 0.80613 0.36819 0.7154 0.0
H412 H 0.79293 0.30322 0.72555 0.0
H413 H 0.8366 0.31398 0.64237 0.0
H414 H 0.83905 0.37644 0.65125 0.0
H415 H 0.89694 0.36343 0.65467 0.0
H416 H 0.86504 0.52428 0.68399 0.0
H417 H 0.01209 0.50616 0.69303 0.0
H418 H 0.76046 0.38473 0.69078 0.0
H419 H 0.77328 0.38852 0.66904 0.0
H420 H 0.77407 0.44782 0.67948 0.0
H421 H 0.94036 0.36117 0.70121 0.0
H422 H 1.00632 0.41607 0.69223 0.0
H423 H 0.95015 0.36311 0.67936 0.0
C424 C 0.53366 0.7792 0.83486 0.0
C425 C 0.54005 0.75353 0.84919 0.0
C426 C 0.51281 0.81776 0.83562 0.0
C427 C 0.49647 0.83018 0.85104 0.0
C428 C 0.50099 0.80284 0.86545 0.0
C429 C 0.52333 0.76559 0.86438 0.0
C430 C 0.50984 0.84649 0.81996 0.0
C431 C 0.48299 0.81359 0.8821 0.0
C432 C 0.48051 0.96317 0.85677 0.0
C433 C 0.42119 0.93981 0.85493 0.0
C434 C 0.50597 0.92845 0.85524 0.0
C435 C 0.47137 0.86889 0.85198 0.0
C436 C 0.41177 0.84549 0.84997 0.0
C437 C 0.38775 0.88094 0.85134 0.0
C438 C 0.56987 0.95537 0.85722 0.0
C439 C 0.37286 0.78245 0.84662 0.0
H440 H 0.54802 0.77171 0.82311 0.0
H441 H 0.52905 0.74685 0.87555 0.0
H442 H 0.4651 0.83591 0.81762 0.0
H443 H 0.53595 0.89363 0.82132 0.0
H444 H 0.52551 0.83348 0.80903 0.0
H445 H 0.48857 0.78864 0.8921 0.0
H446 H 0.50848 0.85973 0.8852 0.0
H447 H 0.43738 0.80214 0.88172 0.0
H448 H 0.50695 0.00835 0.85947 0.0
H449 H 0.34189 0.86175 0.8498 0.0
H450 H 0.58844 0.94632 0.84619 0.0
H451 H 0.57954 0.93636 0.86802 0.0
H452 H 0.59123 1.00242 0.85898 0.0
H453 H 0.38629 0.77004 0.83513 0.0
H454 H 0.32733 0.77081 0.84531 0.0
H455 H 0.37618 0.7569 0.85684 0.0
C456 C 0.62475 0.49979 0.85037 0.0
C457 C 0.59148 0.52518 0.84654 0.0
C458 C 0.60071 0.44029 0.8517 0.0
C459 C 0.54125 0.40401 0.8494 0.0
C460 C 0.50678 0.42893 0.84592 0.0
C461 C 0.53228 0.48915 0.84444 0.0
C462 C 0.63948 0.41619 0.8553 0.0
C463 C 0.44301 0.39187 0.84364 0.0
C464 C 0.49029 0.24895 0.83692 0.0
C465 C 0.47298 0.21994 0.85208 0.0
C466 C 0.5125 0.30854 0.83589 0.0
C467 C 0.51618 0.34016 0.85029 0.0
C468 C 0.49911 0.31115 0.86566 0.0
C469 C 0.47852 0.25178 0.86639 0.0
C470 C 0.53133 0.33759 0.81931 0.0
C471 C 0.50104 0.34254 0.88129 0.0
H472 H 0.6705 0.52651 0.85213 0.0
H473 H 0.50596 0.50786 0.84154 0.0
H474 H 0.62544 0.39018 0.86675 0.0
H475 H 0.63677 0.38748 0.8451 0.0
H476 H 0.68492 0.45014 0.8568 0.0
H477 H 0.42169 0.41754 0.84177 0.0
H478 H 0.43399 0.36347 0.83281 0.0
H479 H 0.42385 0.36395 0.85459 0.0
H480 H 0.48522 0.22465 0.82577 0.0
H481 H 0.46369 0.22975 0.8781 0.0
H482 H 0.5769 0.37184 0.81987 0.0
H483 H 0.50595 0.3582 0.81605 0.0
H484 H 0.52634 0.30724 0.80931 0.0
H485 H 0.48468 0.31363 0.89216 0.0
H486 H 0.475 0.36355 0.87974 0.0
H487 H 0.54561 0.3767 0.88385 0.0
C488 C 0.04579 0.52895 1.01094 0.0
C489 C 0.0693 0.5883 1.01268 0.0
C490 C 0.08047 0.50344 1.01243 0.0
C491 C 0.14016 0.53802 1.01553 0.0
C492 C 0.16373 0.59767 1.01743 0.0
C493 C 0.12831 0.62174 1.0161 0.0
C494 C 0.05338 0.4395 1.01057 0.0
C495 C 0.22691 0.63654 0.02061 0.0
C496 C 0.23001 0.47593 0.03265 0.0
C497 C 0.25531 0.46907 1.01831 0.0
C498 C 0.19153 0.49687 0.0319 0.0
C499 C 0.17879 0.51283 1.01647 0.0
C500 C 0.20573 0.50782 1.00203 0.0
C501 C 0.24292 0.48541 1.0031 0.0
C502 C 0.16323 0.50037 0.04759 0.0
C503 C 0.19462 0.5254 0.98537 0.0
H504 H 1.0005 0.50252 1.00836 0.0
H505 H 0.14763 0.66762 1.01755 0.0
H506 H 0.07213 0.4295 0.99977 0.0
H507 H 0.0626 0.42117 0.02163 0.0
H508 H 1.00628 0.41819 1.00889 0.0
H509 H 0.2387 0.68213 0.02181 0.0
H510 H 0.2396 0.62343 0.0321 0.0
H511 H 0.25214 0.63284 1.01036 0.0
H512 H 0.23776 0.46188 0.04442 0.0
H513 H 0.26139 0.47935 0.99192 0.0
H514 H 0.11603 0.47437 0.04632 0.0
H515 H 0.17402 0.5452 0.04984 0.0
H516 H 0.17642 0.48492 0.05853 0.0
H517 H 0.14838 0.49994 0.98237 0.0
H518 H 0.21927 0.51946 0.97535 0.0
H519 H 0.2062 0.57104 0.98565 0.0
C520 C 0.51 0.12556 0.18338 0.0
C521 C 0.48458 0.06688 0.17954 0.0
C522 C 0.56952 0.16099 0.18483 0.0
C523 C 0.60575 0.13774 0.18263 0.0
C524 C 0.58078 0.07835 0.17913 0.0
C525 C 0.52057 0.04367 0.17754 0.0
C526 C 0.59368 0.22387 0.18842 0.0
C527 C 0.61778 0.05158 0.17695 0.0
C528 C 0.76115 0.2413 0.17028 0.0
C529 C 0.79002 0.25278 0.18545 0.0
C530 C 0.70148 0.20425 0.16921 0.0
C531 C 0.66962 0.17646 0.18359 0.0
C532 C 0.69847 0.1883 0.19899 0.0
C533 C 0.75796 0.22673 0.19976 0.0
C534 C 0.67263 0.19417 0.1526 0.0
C535 C 0.66678 0.15905 0.21461 0.0
H536 H 0.48331 0.14462 0.18506 0.0
H537 H 0.50183 0.99863 0.17464 0.0
H538 H 0.61959 0.23583 0.19989 0.0
H539 H 0.62253 0.24987 0.17824 0.0
H540 H 0.55976 0.23538 0.18988 0.0
H541 H 0.59204 0.00456 0.1751 0.0
H542 H 0.64631 0.07088 0.16613 0.0
H543 H 0.64558 0.0604 0.18793 0.0
H544 H 0.78562 0.26036 0.15914 0.0
H545 H 0.7799 0.2338 0.21148 0.0
H546 H 0.63843 0.20552 0.15313 0.0
H547 H 0.65197 0.14818 0.14932 0.0
H548 H 0.70314 0.21958 0.14263 0.0
H549 H 0.63287 0.16982 0.21711 0.0
H550 H 0.69556 0.17143 0.22551 0.0
H551 H 0.64537 0.11194 0.21308 0.0
C552 C 0.48568 0.52053 0.34691 0.0
C553 C 0.43026 0.48588 0.34069 0.0
C554 C 0.51003 0.58073 0.34784 0.0
C555 C 0.47863 0.60691 0.34217 0.0
C556 C 0.42357 0.57199 0.33537 0.0
C557 C 0.40016 0.51238 0.33481 0.0
C558 C 0.56879 0.61626 0.35526 0.0
C559 C 0.38879 0.5975 0.32885 0.0
C560 C 0.51741 0.7558 0.3583 0.0
C561 C 0.5534 0.79167 0.34577 0.0
C562 C 0.49237 0.69571 0.35724 0.0
C563 C 0.50302 0.67066 0.34324 0.0
C564 C 0.53655 0.70665 0.33015 0.0
C565 C 0.5616 0.76642 0.33164 0.0
C566 C 0.45702 0.65922 0.37151 0.0
C567 C 0.54819 0.68224 0.31484 0.0
H568 H 0.50903 0.50052 0.35159 0.0
H569 H 0.35746 0.48612 0.32982 0.0
H570 H 0.59769 0.64909 0.34628 0.0
H571 H 0.56626 0.63925 0.36629 0.0
H572 H 0.58799 0.58989 0.35895 0.0
H573 H 0.34744 0.56472 0.32341 0.0
H574 H 0.37978 0.61954 0.33897 0.0
H575 H 0.4134 0.63006 0.31927 0.0
H576 H 0.51234 0.77486 0.36949 0.0
H577 H 0.59031 0.79386 0.32206 0.0
H578 H 0.47844 0.63739 0.37715 0.0
H579 H 0.41446 0.62546 0.36709 0.0
H580 H 0.45077 0.68471 0.3812 0.0
H581 H 0.57372 0.66182 0.31813 0.0
H582 H 0.57193 0.71548 0.30532 0.0
H583 H 0.50741 0.64859 0.30938 0.0
C584 C 0.96603 0.47549 0.50998 0.0
C585 C 0.94277 0.41632 0.5121 0.0
C586 C 0.93145 0.50107 0.51166 0.0
C587 C 0.87215 0.4667 0.51535 0.0
C588 C 0.84888 0.40728 0.51764 0.0
C589 C 0.88418 0.38318 0.51612 0.0
C590 C 0.9582 0.56481 0.50939 0.0
C591 C 0.78608 0.3686 0.52143 0.0
C592 C 0.78289 0.52884 0.53285 0.0
C593 C 0.75604 0.53427 0.51865 0.0
C594 C 0.82189 0.50859 0.53191 0.0
C595 C 0.83344 0.49173 0.51645 0.0
C596 C 0.80484 0.4952 0.50217 0.0
C597 C 0.76728 0.5171 0.50341 0.0
C598 C 0.85202 0.50681 0.54741 0.0
C599 C 0.81453 0.47647 0.48551 0.0
H600 H 0.01099 0.50169 0.50695 0.0
H601 H 0.86501 0.33744 0.51789 0.0
H602 H 0.93846 0.57383 0.49864 0.0
H603 H 0.94988 0.58402 0.5204 0.0
H604 H 1.00515 0.58606 0.50737 0.0
H605 H 0.77451 0.32315 0.52288 0.0
H606 H 0.7746 0.38264 0.53297 0.0
H607 H 0.7597 0.37137 0.51136 0.0
H608 H 0.77604 0.54363 0.54461 0.0
H609 H 0.74767 0.5222 0.49234 0.0
H610 H 0.89905 0.53274 0.54569 0.0
H611 H 0.8416 0.46226 0.54997 0.0
H612 H 0.84001 0.52334 0.55835 0.0
H613 H 0.86043 0.50198 0.48212 0.0
H614 H 0.78873 0.48134 0.47563 0.0
H615 H 0.80336 0.43096 0.48603 0.0
C616 C 0.50338 0.88005 0.68379 0.0
C617 C 0.52878 0.93857 0.67974 0.0
C618 C 0.44387 0.84463 0.68524 0.0
C619 C 0.40759 0.86771 0.68284 0.0
C620 C 0.43253 0.92699 0.67916 0.0
C621 C 0.49276 0.96167 0.67756 0.0
C622 C 0.41976 0.7819 0.68905 0.0
C623 C 0.39549 0.95361 0.67678 0.0
C624 C 0.25226 0.76303 0.67063 0.0
C625 C 0.22346 0.75181 0.68581 0.0
C626 C 0.31187 0.80044 0.6695 0.0
C627 C 0.34372 0.82893 0.68382 0.0
C628 C 0.31491 0.81751 0.69922 0.0
C629 C 0.25552 0.77866 0.70005 0.0
C630 C 0.34069 0.81007 0.6529 0.0
C631 C 0.34652 0.84757 0.71476 0.0
H632 H 0.53009 0.86109 0.68563 0.0
H633 H 0.51147 0.00658 0.6745 0.0
H634 H 0.3939 0.77037 0.70053 0.0
H635 H 0.39089 0.75548 0.67893 0.0
H636 H 0.45371 0.77048 0.69062 0.0
H637 H 0.42119 1.00056 0.67479 0.0
H638 H 0.36699 0.9339 0.66598 0.0
H639 H 0.36765 0.94516 0.68773 0.0
H640 H 0.22779 0.74339 0.65953 0.0
H641 H 0.23365 0.77183 0.71178 0.0
H642 H 0.37494 0.7988 0.65353 0.0
H643 H 0.36129 0.85595 0.6495 0.0
H644 H 0.31019 0.78432 0.64298 0.0
H645 H 0.38067 0.83725 0.71739 0.0
H646 H 0.31774 0.83546 0.72566 0.0
H647 H 0.3676 0.89459 0.71306 0.0
C648 C 0.35121 0.30461 0.96268 0.0
C649 C 0.29809 0.29392 0.96898 0.0
C650 C 0.35587 0.28224 0.94737 0.0
C651 C 0.30626 0.24801 0.93779 0.0
C652 C 0.2529 0.23988 0.94356 0.0
C653 C 0.24941 0.26274 0.95902 0.0
C654 C 0.41377 0.2924 0.94197 0.0
C655 C 0.1988 0.20433 0.93381 0.0
C656 C 0.32972 0.21052 0.89342 0.0
C657 C 0.32502 0.15666 0.89565 0.0
C658 C 0.32233 0.24021 0.90681 0.0
C659 C 0.30974 0.21571 0.92291 0.0
C660 C 0.30373 0.16085 0.92507 0.0
C661 C 0.31138 0.13237 0.91156 0.0
C662 C 0.32913 0.29839 0.90379 0.0
C663 C 0.29053 0.13249 0.94183 0.0
H664 H 0.38938 0.3287 0.9701 0.0
H665 H 0.20802 0.25359 0.96367 0.0
H666 H 0.41431 0.25162 0.9426 0.0
H667 H 0.42236 0.30727 0.92897 0.0
H668 H 0.44894 0.32447 0.94984 0.0
H669 H 0.1625 0.20851 0.9386 0.0
H670 H 0.20564 0.21699 0.92061 0.0
H671 H 0.18686 0.15863 0.93446 0.0
H672 H 0.34035 0.23006 0.88129 0.0
H673 H 0.30701 0.09068 0.91358 0.0
H674 H 0.36692 0.33128 0.91065 0.0
H675 H 0.29116 0.29964 0.9085 0.0
H676 H 0.33482 0.30997 0.89049 0.0
H677 H 0.32581 0.15881 0.95053 0.0
H678 H 0.2849 0.08884 0.94139 0.0
H679 H 0.25093 0.12944 0.94691 0.0
C680 C 0.98969 0.24474 0.12585 0.0
C681 C 1.00602 0.29384 0.13551 0.0
C682 C 0.01599 0.24801 0.11039 0.0
C683 C 0.05999 0.30158 0.10431 0.0
C684 C 0.07407 0.35149 0.11358 0.0
C685 C 0.04711 0.34703 0.12889 0.0
C686 C 0.99885 0.19358 0.10099 0.0
C687 C 0.12044 0.40963 0.10784 0.0
C688 C 0.18224 0.30921 0.07821 0.0
C689 C 0.1706 0.32109 0.06219 0.0
C690 C 0.14601 0.30134 0.09171 0.0
C691 C 0.09598 0.30526 0.08945 0.0
C692 C 0.08309 0.31605 0.07326 0.0
C693 C 0.12033 0.32377 0.05987 0.0
C694 C 0.16228 0.29014 0.10858 0.0
C695 C 0.0304 0.32051 0.07013 0.0
H696 H 0.95854 0.2033 0.13075 0.0
H697 H 0.06027 0.3855 0.13608 0.0
H698 H 0.99253 0.19912 0.08773 0.0
H699 H 0.03359 0.18307 0.10182 0.0
H700 H 0.95895 0.15688 0.10595 0.0
H701 H 0.1225 0.44479 0.11548 0.0
H702 H 0.16252 0.41175 0.10852 0.0
H703 H 0.11343 0.41687 0.09478 0.0
H704 H 0.22042 0.3064 0.0803 0.0
H705 H 0.11058 0.33296 0.04766 0.0
H706 H 0.12662 0.2503 0.11386 0.0
H707 H 0.17026 0.32565 0.11706 0.0
H708 H 0.20121 0.28604 0.10823 0.0
H709 H 0.99197 0.28211 0.07502 0.0
H710 H 0.02393 0.32494 0.05678 0.0
H711 H 0.03408 0.35816 0.07675 0.0
C712 C 0.80124 0.12981 0.22989 0.0
C713 C 0.85997 0.17041 0.2296 0.0
C714 C 0.77504 0.09609 0.24417 0.0
C715 C 0.80832 0.10212 0.25848 0.0
C716 C 0.86804 0.14127 0.25786 0.0
C717 C 0.89272 0.1749 0.24363 0.0
C718 C 0.71126 0.05581 0.24417 0.0
C719 C 0.90597 0.14939 0.27253 0.0
C720 C 0.7477 0.07688 0.30245 0.0
C721 C 0.7439 0.02478 0.30703 0.0
C722 C 0.76541 0.1005 0.28653 0.0
C723 C 0.78094 0.07222 0.27462 0.0
C724 C 0.77521 0.01844 0.27892 0.0
C725 C 0.7564 0.99519 0.29497 0.0
C726 C 0.76977 0.1573 0.28273 0.0
C727 C 0.79147 0.98666 0.26678 0.0
H728 H 0.77529 0.12613 0.21924 0.0
H729 H 0.9382 0.20567 0.24358 0.0
H730 H 0.7012 0.01285 0.24857 0.0
H731 H 0.69066 0.07188 0.25283 0.0
H732 H 0.69221 0.05154 0.23172 0.0
H733 H 0.95209 0.17763 0.26965 0.0
H734 H 0.89454 0.16863 0.2829 0.0
H735 H 0.89928 0.10747 0.27683 0.0
H736 H 0.73771 0.10011 0.31152 0.0
H737 H 0.75404 0.95518 0.29829 0.0
H738 H 0.74776 0.15483 0.27093 0.0
H739 H 0.8154 0.19057 0.28124 0.0
H740 H 0.75089 0.17115 0.29264 0.0
H741 H 0.77067 0.98301 0.25468 0.0
H742 H 0.77934 0.9431 0.27122 0.0
H743 H 0.83841 0.01096 0.26473 0.0
C744 C 0.68483 0.86442 0.41257 0.0
C745 C 0.70042 0.85644 0.39666 0.0
C746 C 0.69341 0.83856 0.42658 0.0
C747 C 0.71625 0.80158 0.42477 0.0
C748 C 0.73216 0.79334 0.40871 0.0
C749 C 0.72507 0.82162 0.39492 0.0
C750 C 0.67772 0.85078 0.44338 0.0
C751 C 0.7553 0.75342 0.40601 0.0
C752 C 0.77457 0.76811 0.46404 0.0
C753 C 0.72623 0.71862 0.47 0.0
C754 C 0.77258 0.79472 0.44918 0.0
C755 C 0.7215 0.77055 0.43967 0.0
C756 C 0.67365 0.71874 0.44521 0.0
C757 C 0.67623 0.6942 0.46038 0.0
C758 C 0.82411 0.85076 0.44425 0.0
C759 C 0.61868 0.69031 0.43544 0.0
H760 H 0.66641 0.89177 0.4141 0.0
H761 H 0.7371 0.81499 0.3827 0.0
H762 H 0.64166 0.81109 0.4486 0.0
H763 H 0.71442 0.86529 0.45198 0.0
H764 H 0.66501 0.88404 0.4429 0.0
H765 H 0.76624 0.75186 0.39287 0.0
H766 H 0.79411 0.76697 0.41365 0.0
H767 H 0.72306 0.70959 0.41002 0.0
H768 H 0.81296 0.78824 0.47155 0.0
H769 H 0.63846 0.6564 0.46494 0.0
H770 H 0.81363 0.88551 0.44519 0.0
H771 H 0.83582 0.84914 0.43122 0.0
H772 H 0.86181 0.86194 0.45221 0.0
H773 H 0.59802 0.71691 0.43595 0.0
H774 H 0.588 0.64703 0.44025 0.0
H775 H 0.62763 0.6865 0.42226 0.0
C776 C 0.82552 0.69035 0.57966 0.0
C777 C 0.83759 0.67895 0.56364 0.0
C778 C 0.86176 0.69828 0.59317 0.0
C779 C 0.91201 0.69474 0.5909 0.0
C780 C 0.92506 0.68407 0.57473 0.0
C781 C 0.88795 0.67644 0.56135 0.0
C782 C 0.84546 0.70941 0.61004 0.0
C783 C 0.97788 0.67982 0.57161 0.0
C784 C 0.02002 0.75673 0.62682 0.0
C785 C 1.00451 0.70795 0.63654 0.0
C786 C 0.99262 0.75289 0.61153 0.0
C787 C 0.94842 0.69904 0.60569 0.0
C788 C 0.93509 0.64946 0.61502 0.0
C789 C 0.96306 0.65449 0.63018 0.0
C790 C 0.00886 0.807 0.60206 0.0
C791 C 0.88863 0.59105 0.6095 0.0
H792 H 0.78721 0.69295 0.58172 0.0
H793 H 0.89797 0.66759 0.54913 0.0
H794 H 0.83786 0.67409 0.61855 0.0
H795 H 0.88096 0.74946 0.61528 0.0
H796 H 0.80629 0.71312 0.6097 0.0
H797 H 0.98384 0.67434 0.55829 0.0
H798 H 0.01634 0.71883 0.57621 0.0
H799 H 0.9749 0.64292 0.5785 0.0
H800 H 0.05139 0.79835 0.63155 0.0
H801 H 0.95052 0.6163 0.63745 0.0
H802 H 0.97369 0.81688 0.6029 0.0
H803 H 0.01505 0.80133 0.58879 0.0
H804 H 0.04859 0.84413 0.60692 0.0
H805 H 0.84649 0.58876 0.6103 0.0
H806 H 0.88706 0.55621 0.61718 0.0
H807 H 0.89514 0.58346 0.59642 0.0
C808 C 0.26716 0.0193 0.79256 0.0
C809 C 0.29844 1.00198 0.80253 0.0
C810 C 0.24422 0.99278 0.77712 0.0
C811 C 0.25238 0.94756 0.77138 0.0
C812 C 0.28676 0.9324 0.78097 0.0
C813 C 0.30921 0.9596 0.79625 0.0
C814 C 0.20852 0.01108 0.76737 0.0
C815 C 0.29697 0.8847 0.7756 0.0
C816 C 0.1365 0.82624 0.74534 0.0
C817 C 0.16061 0.83675 0.72941 0.0
C818 C 0.16511 0.8626 0.75879 0.0
C819 C 0.21993 0.91153 0.75656 0.0
C820 C 0.24426 0.92329 0.74044 0.0
C821 C 0.21443 0.88598 0.7271 0.0
C822 C 0.13695 0.84761 0.77559 0.0
C823 C 0.30239 0.97475 0.73735 0.0
H824 H 0.25795 0.05149 0.79719 0.0
H825 H 0.33339 0.94568 0.80368 0.0
H826 H 0.221 0.01671 0.75415 0.0
H827 H 0.16282 0.97727 0.76809 0.0
H828 H 0.21275 0.05163 0.77211 0.0
H829 H 0.32919 0.88182 0.78345 0.0
H830 H 0.25622 0.8433 0.77629 0.0
H831 H 0.31167 0.89084 0.76258 0.0
H832 H 0.09483 0.78886 0.74741 0.0
H833 H 0.23383 0.89478 0.71495 0.0
H834 H 0.13388 0.88416 0.78063 0.0
H835 H 0.16342 0.83887 0.78429 0.0
H836 H 0.0933 0.80948 0.77521 0.0
H837 H 0.30364 0.01399 0.74202 0.0
H838 H 0.31381 0.98049 0.72403 0.0
H839 H 0.33541 0.97005 0.74419 0.0
C840 C 0.70386 0.65818 0.90513 0.0
C841 C 0.71494 0.71131 0.89874 0.0
C842 C 0.72624 0.65358 0.92044 0.0
C843 C 0.76088 0.70326 0.92994 0.0
C844 C 0.76938 0.75666 0.9241 0.0
C845 C 0.74651 0.76009 0.90863 0.0
C846 C 0.71567 0.59563 0.92592 0.0
C847 C 0.80538 0.81083 0.93376 0.0
C848 C 0.79863 0.68014 0.97431 0.0
C849 C 0.85229 0.68438 0.97205 0.0
C850 C 0.76893 0.6876 0.96093 0.0
C851 C 0.79322 0.69976 0.94481 0.0
C852 C 0.84788 0.70528 0.94261 0.0
C853 C 0.87638 0.6976 0.95611 0.0
C854 C 0.71098 0.68135 0.96399 0.0
C855 C 0.87601 0.718 0.92582 0.0
H856 H 0.67946 0.61994 0.89776 0.0
H857 H 0.75596 0.80149 0.90392 0.0
H858 H 0.75626 0.59471 0.92527 0.0
H859 H 0.70097 0.58739 0.93894 0.0
H860 H 0.68331 0.56046 0.91812 0.0
H861 H 0.8014 0.84721 0.92894 0.0
H862 H 0.79293 0.80431 0.94698 0.0
H863 H 0.85099 0.82247 0.93306 0.0
H864 H 0.77924 0.66985 0.98647 0.0
H865 H 0.91792 0.70162 0.95406 0.0
H866 H 0.67779 0.64359 0.9572 0.0
H867 H 0.71001 0.71941 0.95924 0.0
H868 H 0.69958 0.67597 0.97731 0.0
H869 H 0.84936 0.68267 0.91717 0.0
H870 H 0.91953 0.72327 0.92622 0.0
H871 H 0.87934 0.75765 0.92069 0.0
C872 C 0.98994 0.74283 0.07508 0.0
C873 C 0.00738 0.71158 0.06514 0.0
C874 C 0.01648 0.76595 0.0905 0.0
C875 C 0.06183 0.75801 0.09626 0.0
C876 C 0.07714 0.72371 0.0867 0.0
C877 C 0.04993 0.70108 0.07143 0.0
C878 C 0.99802 0.80158 0.10022 0.0
C879 C 0.12498 0.71372 0.0921 0.0
C880 C 0.18272 0.87404 0.1224 0.0
C881 C 0.17203 0.84991 0.13834 0.0
C882 C 0.14658 0.84536 0.10891 0.0
C883 C 0.0977 0.79047 0.11111 0.0
C884 C 0.0858 0.76611 0.12722 0.0
C885 C 0.12288 0.796 0.14059 0.0
C886 C 0.16171 0.87356 0.09213 0.0
C887 C 0.03444 0.70789 0.13027 0.0
H888 H 0.95762 0.75184 0.07044 0.0
H889 H 0.06394 0.67694 0.06402 0.0
H890 H 0.99224 0.78904 0.11343 0.0
H891 H 0.03183 0.84727 0.09953 0.0
H892 H 0.9575 0.79734 0.09544 0.0
H893 H 0.12802 0.68158 0.08426 0.0
H894 H 0.16632 0.75453 0.09142 0.0
H895 H 0.11883 0.69903 0.10511 0.0
H896 H 0.22006 0.91576 0.12037 0.0
H897 H 0.11396 0.77657 0.15274 0.0
H898 H 0.12513 0.87652 0.08703 0.0
H899 H 0.17064 0.84718 0.08345 0.0
H900 H 0.19977 0.91724 0.09253 0.0
H901 H 0.99514 0.70653 0.12558 0.0
H902 H 0.02863 0.69637 0.14358 0.0
H903 H 0.03932 0.67501 0.12342 0.0
C904 C 0.24857 0.98543 0.24144 0.0
C905 C 0.2977 1.00384 0.23162 0.0
C906 C 0.25106 0.01152 0.25687 0.0
C907 C 0.30383 0.05742 0.26274 0.0
C908 C 0.35395 0.07373 0.2533 0.0
C909 C 0.3503 0.04693 0.23803 0.0
C910 C 0.1965 0.99196 0.26647 0.0
C911 C 0.41127 0.12219 0.25883 0.0
C912 C 0.30621 0.17722 0.28875 0.0
C913 C 0.32003 0.16706 0.30469 0.0
C914 C 0.29919 0.14109 0.2753 0.0
C915 C 0.30612 0.09282 0.27756 0.0
C916 C 0.31866 0.08128 0.2937 0.0
C917 C 0.32533 0.11831 0.30703 0.0
C918 C 0.28594 0.15578 0.25848 0.0
C919 C 0.32652 0.0306 0.29683 0.0
H920 H 0.20757 0.95264 0.23672 0.0
H921 H 0.38879 0.06169 0.23071 0.0
H922 H 0.20313 0.98626 0.2797 0.0
H923 H 0.18376 0.02511 0.26575 0.0
H924 H 0.16081 0.95115 0.26162 0.0
H925 H 0.44698 0.1261 0.25106 0.0
H926 H 0.41096 0.16308 0.25817 0.0
H927 H 0.41969 0.11605 0.27186 0.0
H928 H 0.30142 0.21426 0.28666 0.0
H929 H 0.33625 0.10987 0.31919 0.0
H930 H 0.24694 0.1187 0.25332 0.0
H931 H 0.32171 0.16561 0.24988 0.0
H932 H 0.27926 0.19316 0.25886 0.0
H933 H 0.28988 0.99114 0.29169 0.0
H934 H 0.33059 0.02409 0.3102 0.0
H935 H 0.3657 0.03708 0.29045 0.0
C936 C 0.31046 0.35466 0.40376 0.0
C937 C 0.30269 0.30256 0.39751 0.0
C938 C 0.28648 0.35775 0.41897 0.0
C939 C 0.25346 0.30755 0.42847 0.0
C940 C 0.24796 0.25529 0.42269 0.0
C941 C 0.27259 0.25343 0.40739 0.0
C942 C 0.2938 0.41452 0.4244 0.0
C943 C 0.21341 0.20053 0.43225 0.0
C944 C 0.21372 0.32698 0.47296 0.0
C945 C 0.15879 0.31978 0.47081 0.0
C946 C 0.24458 0.3219 0.45948 0.0
C947 C 0.22018 0.30908 0.44338 0.0
C948 C 0.16424 0.30046 0.44129 0.0
C949 C 0.13463 0.30595 0.45488 0.0
C950 C 0.30386 0.33136 0.46243 0.0
C951 C 0.13587 0.28677 0.42452 0.0
H952 H 0.33355 0.39313 0.3964 0.0
H953 H 0.26579 0.21278 0.40282 0.0
H954 H 0.25195 0.4129 0.42376 0.0
H955 H 0.30847 0.4235 0.43742 0.0
H956 H 0.32492 0.45048 0.41657 0.0
H957 H 0.21908 0.16523 0.42738 0.0
H958 H 0.22565 0.20719 0.44549 0.0
H959 H 0.16734 0.18718 0.43151 0.0
H960 H 0.23321 0.3379 0.4851 0.0
H961 H 0.09217 0.29977 0.45293 0.0
H962 H 0.33561 0.36966 0.45551 0.0
H963 H 0.30683 0.29432 0.45774 0.0
H964 H 0.31566 0.33761 0.47572 0.0
H965 H 0.16079 0.32299 0.41596 0.0
H966 H 0.09124 0.27854 0.42503 0.0
H967 H 0.13524 0.2486 0.41921 0.0
C968 C 0.02128 0.25892 0.57415 0.0
C969 C 1.00458 0.29115 0.56438 0.0
C970 C 0.9949 0.23586 0.58961 0.0
C971 C 0.95045 0.24486 0.5956 0.0
C972 C 0.93583 0.28001 0.58619 0.0
C973 C 0.96284 0.30252 0.57087 0.0
C974 C 0.01259 0.19925 0.59914 0.0
C975 C 0.88897 0.29117 0.59181 0.0
C976 C 0.82924 0.13022 0.62207 0.0
C977 C 0.84101 0.15424 0.63803 0.0
C978 C 0.86507 0.15844 0.60847 0.0
C979 C 0.91478 0.21279 0.61056 0.0
C980 C 0.92777 0.23704 0.62668 0.0
C981 C 0.89097 0.20761 0.64018 0.0
C982 C 0.84873 0.13034 0.59169 0.0
C983 C 0.98007 0.29467 0.62964 0.0
H984 H 0.05292 0.24918 0.56936 0.0
H985 H 0.94934 0.32738 0.5636 0.0
H986 H 0.01921 0.21176 0.61236 0.0
H987 H 0.97799 0.15386 0.59851 0.0
H988 H 0.05246 0.20248 0.59417 0.0
H989 H 0.88635 0.3237 0.58405 0.0
H990 H 0.84717 0.25083 0.59124 0.0
H991 H 0.89592 0.30591 0.60483 0.0
H992 H 0.79129 0.08892 0.6201 0.0
H993 H 0.9008 0.22697 0.65234 0.0
H994 H 0.88458 0.12652 0.5864 0.0
H995 H 0.84014 0.15726 0.58313 0.0
H996 H 0.81012 0.08704 0.59217 0.0
H997 H 0.01871 0.295 0.62482 0.0
H998 H 0.98654 0.3062 0.64294 0.0
H999 H 0.97589 0.32807 0.62285 0.0
C1000 C 0.70115 0.82621 0.78937 0.0
C1001 C 0.6883 0.83768 0.80528 0.0
C1002 C 0.70894 0.86208 0.77577 0.0
C1003 C 0.7039 0.91153 0.77784 0.0
C1004 C 0.69211 0.92426 0.79393 0.0
C1005 C 0.68455 0.88741 0.80741 0.0
C1006 C 0.72125 0.84602 0.75903 0.0
C1007 C 0.6864 0.97631 0.79685 0.0
C1008 C 0.76445 0.01777 0.74143 0.0
C1009 C 0.7156 1.00063 0.73157 0.0
C1010 C 0.76101 0.99168 0.75694 0.0
C1011 C 0.70752 0.94708 0.76287 0.0
C1012 C 0.6578 0.93208 0.75339 0.0
C1013 C 0.66242 0.95882 0.73802 0.0
C1014 C 0.81525 0.00978 0.76656 0.0
C1015 C 0.59975 0.88505 0.75896 0.0
H1016 H 0.7048 0.78845 0.78742 0.0
H1017 H 0.67456 0.89698 0.81954 0.0
H1018 H 0.68585 0.83727 0.75039 0.0
H1019 H 0.76097 0.88206 0.75381 0.0
H1020 H 0.7262 0.80761 0.75953 0.0
H1021 H 0.6812 0.98274 0.81015 0.0
H1022 H 0.72462 0.01507 0.79203 0.0
H1023 H 0.64871 0.97184 0.79004 0.0
H1024 H 0.80588 0.04952 0.73667 0.0
H1025 H 0.62412 0.94503 0.73069 0.0
H1026 H 0.82648 0.97551 0.76595 0.0
H1027 H 0.80899 0.01617 0.77976 0.0
H1028 H 0.85179 0.04986 0.76164 0.0
H1029 H 0.59851 0.84338 0.75843 0.0
H1030 H 0.5646 0.88221 0.75114 0.0
H1031 H 0.59171 0.89195 0.77196 0.0
C1032 C 0.29494 0.10999 0.13504 0.0
C1033 C 0.33009 0.08539 0.13569 0.0
C1034 C 0.29528 0.14183 0.12127 0.0
C1035 C 0.33221 0.1501 0.10783 0.0
C1036 C 0.36818 0.12584 0.10845 0.0
C1037 C 0.36637 0.09341 0.12231 0.0
C1038 C 0.25548 0.16601 0.12103 0.0
C1039 C 0.40854 0.13407 0.09446 0.0
C1040 C 0.29422 0.1853 0.06581 0.0
C1041 C 0.3293 0.24506 0.06508 0.0
C1042 C 0.29484 0.154 0.07959 0.0
C1043 C 0.33201 0.18291 0.09297 0.0
C1044 C 0.36789 0.24317 0.09227 0.0
C1045 C 0.36578 0.27357 0.07841 0.0
C1046 C 0.25513 0.08998 0.07991 0.0
C1047 C 0.4085 0.27554 0.1062 0.0
H1048 H 0.26633 0.10366 0.14523 0.0
H1049 H 0.39373 0.07471 0.1227 0.0
H1050 H 0.28044 0.21316 0.11956 0.0
H1051 H 0.2261 0.14864 0.11031 0.0
H1052 H 0.22945 0.15582 0.13248 0.0
H1053 H 0.43513 0.11418 0.09706 0.0
H1054 H 0.38387 0.11507 0.08297 0.0
H1055 H 0.4373 0.18039 0.0921 0.0
H1056 H 0.26545 0.16282 0.05566 0.0
H1057 H 0.39311 0.31965 0.07795 0.0
H1058 H 0.22602 0.07801 0.0907 0.0
H1059 H 0.28019 0.06789 0.08131 0.0
H1060 H 0.2288 0.07394 0.06852 0.0
H1061 H 0.38405 0.26987 0.11773 0.0
H1062 H 0.43491 0.32204 0.10355 0.0
H1063 H 0.43743 0.25817 0.10849 0.0
C1064 C 0.09933 0.36768 0.24437 0.0
C1065 C 0.09022 0.32999 0.2313 0.0
C1066 C 0.1318 0.37002 0.25827 0.0
C1067 C 0.15488 0.3331 0.25924 0.0
C1068 C 0.14541 0.29467 0.24613 0.0
C1069 C 0.11361 0.29387 0.2323 0.0
C1070 C 0.14143 0.41201 0.2719 0.0
C1071 C 0.16833 0.25385 0.24677 0.0
C1072 C 0.27922 0.36706 0.28826 0.0
C1073 C 0.25096 0.33211 0.30188 0.0
C1074 C 0.24844 0.36867 0.27444 0.0
C1075 C 0.18803 0.33376 0.27409 0.0
C1076 C 0.15932 0.29827 0.28779 0.0
C1077 C 0.19104 0.2982 0.30153 0.0
C1078 C 0.28059 0.40755 0.26017 0.0
C1079 C 0.0951 0.25963 0.28782 0.0
H1080 H 0.08153 0.39578 0.24369 0.0
H1081 H 0.10634 0.26414 0.22234 0.0
H1082 H 0.12268 0.38868 0.2836 0.0
H1083 H 0.18798 0.44033 0.27403 0.0
H1084 H 0.12216 0.43899 0.26906 0.0
H1085 H 0.15702 0.22647 0.23558 0.0
H1086 H 0.21559 0.27809 0.24802 0.0
H1087 H 0.15103 0.22578 0.25777 0.0
H1088 H 0.32544 0.39352 0.28844 0.0
H1089 H 0.16882 0.27063 0.31193 0.0
H1090 H 0.26372 0.43672 0.25757 0.0
H1091 H 0.27407 0.38175 0.24887 0.0
H1092 H 0.32726 0.43368 0.26261 0.0
H1093 H 0.07378 0.28532 0.28616 0.0
H1094 H 0.07925 0.23469 0.29945 0.0
H1095 H 0.082 0.22928 0.27731 0.0
C1096 C 0.74897 0.04809 0.41582 0.0
C1097 C 0.72617 0.07106 0.40463 0.0
C1098 C 0.78595 0.08167 0.4286 0.0
C1099 C 0.7993 0.13927 0.43054 0.0
C1100 C 0.77449 0.16189 0.41965 0.0
C1101 C 0.73909 0.12788 0.40667 0.0
C1102 C 0.81242 0.05607 0.43963 0.0
C1103 C 0.78592 0.22233 0.42156 0.0
C1104 C 0.85635 0.20749 0.47265 0.0
C1105 C 0.91492 0.24295 0.46951 0.0
C1106 C 0.81815 0.17484 0.46002 0.0
C1107 C 0.83928 0.17586 0.44393 0.0
C1108 C 0.89865 0.21148 0.44071 0.0
C1109 C 0.9356 0.24543 0.45349 0.0
C1110 C 0.75515 0.13909 0.46391 0.0
C1111 C 0.92337 0.21258 0.4239 0.0
H1112 H 0.74017 0.0046 0.4141 0.0
H1113 H 0.72179 0.14593 0.39801 0.0
H1114 H 0.85969 0.08067 0.43833 0.0
H1115 H 0.80242 0.059 0.45275 0.0
H1116 H 0.79716 0.0105 0.43665 0.0
H1117 H 0.76037 0.23222 0.4128 0.0
H1118 H 0.77581 0.22924 0.43434 0.0
H1119 H 0.83194 0.25307 0.41942 0.0
H1120 H 0.84032 0.20564 0.48505 0.0
H1121 H 0.98101 0.27227 0.45111 0.0
H1122 H 0.74079 0.09309 0.46221 0.0
H1123 H 0.72999 0.1498 0.45527 0.0
H1124 H 0.74517 0.14562 0.47676 0.0
H1125 H 0.91337 0.16877 0.42041 0.0
H1126 H 0.97052 0.24133 0.42351 0.0
H1127 H 0.90359 0.227 0.41446 0.0
C1128 C 0.71441 0.81703 0.5658 0.0
C1129 C 0.67935 0.75724 0.5651 0.0
C1130 C 0.71379 0.84845 0.57954 0.0
C1131 C 0.67668 0.81968 0.59294 0.0
C1132 C 0.6407 0.75941 0.59227 0.0
C1133 C 0.64279 0.72885 0.57843 0.0
C1134 C 0.75362 0.91246 0.57982 0.0
C1135 C 0.60014 0.72719 0.60622 0.0
C1136 C 0.71569 0.89344 0.63486 0.0
C1137 C 0.68113 0.91868 0.63559 0.0
C1138 C 0.71437 0.86094 0.62115 0.0
C1139 C 0.67701 0.85266 0.60782 0.0
C1140 C 0.64156 0.8775 0.60853 0.0
C1141 C 0.64436 0.91058 0.62233 0.0
C1142 C 0.75368 0.8362 0.62082 0.0
C1143 C 0.6008 0.86929 0.59466 0.0
H1144 H 0.74326 0.83945 0.55566 0.0
H1145 H 0.6155 0.68277 0.57801 0.0
H1146 H 0.72871 0.93466 0.58134 0.0
H1147 H 0.78305 0.92438 0.59053 0.0
H1148 H 0.77962 0.92844 0.56837 0.0
H1149 H 0.57336 0.68075 0.60355 0.0
H1150 H 0.62469 0.73254 0.61771 0.0
H1151 H 0.57159 0.74494 0.6086 0.0
H1152 H 0.74466 0.89979 0.64496 0.0
H1153 H 0.61741 0.92973 0.62279 0.0
H1154 H 0.78288 0.85331 0.61005 0.0
H1155 H 0.72833 0.78906 0.61938 0.0
H1156 H 0.77993 0.84622 0.63222 0.0
H1157 H 0.62514 0.88818 0.58311 0.0
H1158 H 0.57441 0.88933 0.59736 0.0
H1159 H 0.57186 0.82298 0.59234 0.0
C1160 C 0.90076 0.71345 0.73311 0.0
C1161 C 0.92545 0.67838 0.7325 0.0
C1162 C 0.86871 0.71304 0.74683 0.0
C1163 C 0.86033 0.67613 0.76028 0.0
C1164 C 0.88473 0.64027 0.75972 0.0
C1165 C 0.91736 0.64215 0.7459 0.0
C1166 C 0.84439 0.75272 0.747 0.0
C1167 C 0.87639 0.59995 0.77373 0.0
C1168 C 0.82442 0.71423 0.80217 0.0
C1169 C 0.76462 0.67915 0.80283 0.0
C1170 C 0.85596 0.71352 0.78846 0.0
C1171 C 0.82727 0.67626 0.77508 0.0
C1172 C 0.76697 0.64037 0.77571 0.0
C1173 C 0.73632 0.64257 0.7895 0.0
C1174 C 0.92 0.75326 0.78822 0.0
C1175 C 0.73483 0.5997 0.76178 0.0
H1176 H 0.90713 0.74202 0.7229 0.0
H1177 H 0.93612 0.61484 0.74554 0.0
H1178 H 0.7972 0.72768 0.7484 0.0
H1179 H 0.86152 0.78206 0.75774 0.0
H1180 H 0.85473 0.77879 0.73556 0.0
H1181 H 0.89645 0.57349 0.77118 0.0
H1182 H 0.89515 0.62462 0.78523 0.0
H1183 H 0.83003 0.57109 0.77602 0.0
H1184 H 0.84673 0.74308 0.81231 0.0
H1185 H 0.69022 0.61525 0.7899 0.0
H1186 H 0.9321 0.78238 0.77743 0.0
H1187 H 0.94216 0.72825 0.78685 0.0
H1188 H 0.93587 0.77955 0.79961 0.0
H1189 H 0.74057 0.62409 0.75023 0.0
H1190 H 0.6883 0.5732 0.76438 0.0
H1191 H 0.75236 0.57087 0.75954 0.0
C1192 C 0.09539 0.73288 0.95572 0.0
C1193 C 0.08736 0.76119 0.96909 0.0
C1194 C 0.12795 0.76348 0.94188 0.0
C1195 C 0.15232 0.82374 0.94124 0.0
C1196 C 0.14399 0.85244 0.95465 0.0
C1197 C 0.11202 0.82095 0.96841 0.0
C1198 C 0.13624 0.73133 0.92791 0.0
C1199 C 0.16828 0.91645 0.9544 0.0
C1200 C 0.27635 0.91364 0.91194 0.0
C1201 C 0.24809 0.92169 0.89856 0.0
C1202 C 0.24568 0.88111 0.92578 0.0
C1203 C 0.1854 0.85677 0.92641 0.0
C1204 C 0.15675 0.8651 0.91298 0.0
C1205 C 0.1883 0.89704 0.89922 0.0
C1206 C 0.2778 0.87282 0.93976 0.0
C1207 C 0.09272 0.84084 0.91321 0.0
H1208 H 0.07665 0.68681 0.95613 0.0
H1209 H 0.10568 0.84326 0.97859 0.0
H1210 H 0.11748 0.73709 0.91639 0.0
H1211 H 0.18259 0.7488 0.92562 0.0
H1212 H 0.11615 0.68481 0.93051 0.0
H1213 H 0.15793 0.93231 0.96581 0.0
H1214 H 0.21547 0.93863 0.953 0.0
H1215 H 0.15115 0.92849 0.94363 0.0
H1216 H 0.32244 0.93236 0.91155 0.0
H1217 H 0.16602 0.90339 0.88903 0.0
H1218 H 0.26028 0.82648 0.94207 0.0
H1219 H 0.27203 0.89162 0.95128 0.0
H1220 H 0.32434 0.89286 0.93718 0.0
H1221 H 0.07051 0.79367 0.91462 0.0
H1222 H 0.07689 0.85116 0.90179 0.0
H1223 H 0.08066 0.85802 0.92397 0.0
C1224 C 0.15992 0.11228 1.00341 0.0
C1225 C 0.1535 0.14995 1.01382 0.0
C1226 C 0.12076 0.05387 1.00393 0.0
C1227 C 0.07488 0.03322 1.01531 0.0
C1228 C 0.06545 0.07153 0.02483 0.0
C1229 C 0.10513 0.12998 0.02394 0.0
C1230 C 0.1314 0.01402 0.99333 0.0
C1231 C 0.01655 0.05068 0.03695 0.0
C1232 C 0.97774 0.87527 1.01046 0.0
C1233 C 1.0062 0.8553 0.02054 0.0
C1234 C 0.99646 0.9337 1.00963 0.0
C1235 C 0.0442 0.97197 1.01918 0.0
C1236 C 0.06941 0.95129 0.03054 0.0
C1237 C 0.05023 0.89291 0.03099 0.0
C1238 C 0.96842 0.95459 0.99754 0.0
C1239 C 0.11989 0.9911 0.04118 0.0
H1240 H 0.1967 0.12821 0.99528 0.0
H1241 H 0.10006 0.15952 0.03186 0.0
H1242 H 0.14618 0.99036 1.00123 0.0
H1243 H 0.09137 0.982 0.98715 0.0
H1244 H 0.1644 0.03739 0.98371 0.0
H1245 H 0.0076 0.08524 0.04043 0.0
H1246 H 0.97702 0.01417 0.03182 0.0
H1247 H 0.02774 0.03557 0.04834 0.0
H1248 H 0.94317 0.84578 1.00251 0.0
H1249 H 0.07109 0.87695 0.0391 0.0
H1250 H 0.99479 0.96988 0.98616 0.0
H1251 H 0.96533 0.99099 1.00271 0.0
H1252 H 0.92491 0.92001 0.99403 0.0
H1253 H 0.15842 0.01478 0.0333 0.0
H1254 H 0.1294 0.96769 0.05079 0.0
H1255 H 0.11189 0.02311 0.04734 0.0
C1256 C 0.16023 0.04655 0.19766 0.0
C1257 C 0.15403 1.00313 0.187 0.0
C1258 C 0.12125 0.06599 0.19725 0.0
C1259 C 0.0758 0.04165 0.18572 0.0
C1260 C 0.06643 0.99437 0.17598 0.0
C1261 C 0.10593 0.97538 0.17676 0.0
C1262 C 0.13181 0.11595 0.2081 0.0
C1263 C 0.01789 0.96719 0.16372 0.0
C1264 C 0.97943 0.10329 0.19057 0.0
C1265 C 0.00841 0.15206 0.18063 0.0
C1266 C 0.99778 0.06331 0.19135 0.0
C1267 C 0.04576 0.07287 0.18192 0.0
C1268 C 0.07171 0.11928 0.17074 0.0
C1269 C 0.05282 0.1587 0.17031 0.0
C1270 C 0.96895 0.01382 0.20325 0.0
C1271 C 0.12253 0.13011 0.16024 0.0
H1272 H 0.19678 0.06682 0.2059 0.0
H1273 H 0.10102 0.94125 0.16865 0.0
H1274 H 0.14724 0.15493 0.20039 0.0
H1275 H 0.09163 0.10785 0.21417 0.0
H1276 H 0.16432 0.12474 0.21779 0.0
H1277 H 0.00878 0.92377 0.16005 0.0
H1278 H 0.97831 0.96413 0.16882 0.0
H1279 H 0.02959 0.99411 0.15245 0.0
H1280 H 0.94456 0.098 0.19843 0.0
H1281 H 0.07413 0.19578 0.16231 0.0
H1282 H 0.9948 0.02424 0.21471 0.0
H1283 H 0.96578 0.97444 0.19797 0.0
H1284 H 0.92539 0.005 0.20664 0.0
H1285 H 0.16062 0.14411 0.16825 0.0
H1286 H 0.13285 0.16372 0.15079 0.0
H1287 H 0.11438 0.09035 0.15389 0.0
C1288 C 0.14433 0.15213 0.37445 0.0
C1289 C 0.15763 0.16426 0.35772 0.0
C1290 C 0.08738 0.12236 0.37964 0.0
C1291 C 0.04378 0.10617 0.36771 0.0
C1292 C 0.05745 0.11557 0.35065 0.0
C1293 C 0.11474 0.14461 0.34585 0.0
C1294 C 0.07462 0.11218 0.39787 0.0
C1295 C 0.01189 0.09881 0.33754 0.0
C1296 C 0.88721 0.00708 0.36951 0.0
C1297 C 0.86832 0.0468 0.36873 0.0
C1298 C 0.94508 0.02543 0.37172 0.0
C1299 C 0.98416 0.08465 0.37273 0.0
C1300 C 0.96425 0.12398 0.37433 0.0
C1301 C 0.90589 0.10433 0.37237 0.0
C1302 C 0.9649 0.98221 0.37098 0.0
C1303 C 1.005 0.18746 0.37599 0.0
H1304 H 0.17846 0.16841 0.38352 0.0
H1305 H 0.12608 0.15526 0.33296 0.0
H1306 H 0.07206 0.14865 0.40321 0.0
H1307 H 0.03329 0.07253 0.40022 0.0
H1308 H 0.10919 0.1093 0.40447 0.0
H1309 H 0.03003 0.10783 0.32486 0.0
H1310 H 0.98009 0.05254 0.33845 0.0
H1311 H 0.98879 0.1227 0.33944 0.0
H1312 H 0.8573 0.96205 0.36739 0.0
H1313 H 0.89068 0.13466 0.37225 0.0
H1314 H 1.00141 0.99421 0.37949 0.0
H1315 H 0.9796 0.98098 0.35827 0.0
H1316 H 0.92982 0.93859 0.37418 0.0
H1317 H 0.03863 0.1961 0.38525 0.0
H1318 H 0.98252 0.21075 0.37967 0.0
H1319 H 0.02652 0.20477 0.36396 0.0
C1320 C 0.95487 0.10876 0.529 0.0
C1321 C 1.00268 0.14712 0.51981 0.0
C1322 C 0.93671 0.05061 0.52893 0.0
C1323 C 0.96715 0.03084 0.51934 0.0
C1324 C 0.01809 0.06979 0.51112 0.0
C1325 C 0.03538 0.12795 0.51144 0.0
C1326 C 0.88243 0.01005 0.53809 0.0
C1327 C 0.05185 0.04993 0.50101 0.0
C1328 C 0.90585 0.87441 0.52675 0.0
C1329 C 0.8608 0.85293 0.51538 0.0
C1330 C 0.94565 0.93288 0.52719 0.0
C1331 C 0.93969 0.96944 0.5159 0.0
C1332 C 0.89806 0.94675 0.50323 0.0
C1333 C 0.85852 0.88845 0.50324 0.0
C1334 C 0.99024 0.95592 0.54067 0.0
C1335 C 0.89147 0.98456 0.49071 0.0
H1336 H 0.93045 0.12388 0.53582 0.0
H1337 H 0.07289 0.15789 0.50449 0.0
H1338 H 0.84791 0.98464 0.52907 0.0
H1339 H 0.88898 0.97961 0.54567 0.0
H1340 H 0.86759 0.03296 0.54631 0.0
H1341 H 0.09664 0.08492 0.4991 0.0
H1342 H 0.05243 0.01322 0.50696 0.0
H1343 H 0.0315 0.03559 0.48871 0.0
H1344 H 0.90777 0.84627 0.53597 0.0
H1345 H 0.82448 0.87103 0.49413 0.0
H1346 H 0.97529 0.97257 0.55088 0.0
H1347 H 0.03132 0.99179 0.53607 0.0
H1348 H 0.99793 0.92213 0.54575 0.0
H1349 H 0.87267 0.00817 0.49681 0.0
H1350 H 0.86311 0.95947 0.48031 0.0
H1351 H 0.93367 0.01661 0.48562 0.0
C1352 C 0.96292 0.84666 0.67001 0.0
C1353 C 1.00655 0.85329 0.68066 0.0
C1354 C 0.94379 0.8859 0.67019 0.0
C1355 C 0.96867 0.93206 0.68147 0.0
C1356 C 0.01616 0.94179 0.69119 0.0
C1357 C 0.03482 0.90201 0.69063 0.0
C1358 C 0.8936 0.87494 0.65938 0.0
C1359 C 0.04389 0.99105 0.70319 0.0
C1360 C 0.9072 0.02854 0.67635 0.0
C1361 C 0.85878 1.00015 0.68645 0.0
C1362 C 0.94701 0.00994 0.67556 0.0
C1363 C 0.93764 0.96238 0.68517 0.0
C1364 C 0.89162 0.93711 0.69651 0.0
C1365 C 0.85235 0.95619 0.69692 0.0
C1366 C 0.99606 0.03804 0.66349 0.0
C1367 C 0.88101 0.88679 0.70719 0.0
H1368 H 0.94225 0.80963 0.66197 0.0
H1369 H 0.06915 0.90728 0.69872 0.0
H1370 H 0.85481 0.85998 0.66715 0.0
H1371 H 0.90165 0.91484 0.65314 0.0
H1372 H 0.88451 0.84194 0.64982 0.0
H1373 H 0.08735 1.00015 0.70683 0.0
H1374 H 0.04705 0.03039 0.69787 0.0
H1375 H 0.01728 0.98021 0.71451 0.0
H1376 H 0.91228 0.06305 0.66838 0.0
H1377 H 0.81554 0.93537 0.70504 0.0
H1378 H 0.98505 0.0117 0.65212 0.0
H1379 H 0.03557 0.04118 0.66869 0.0
H1380 H 1.00499 0.08152 0.65998 0.0
H1381 H 0.8667 0.84831 0.69933 0.0
H1382 H 0.84769 0.87697 0.71671 0.0
H1383 H 0.92096 0.89516 0.71349 0.0
C1384 C 0.11653 0.95877 0.83665 0.0
C1385 C 0.15413 1.00284 0.84709 0.0
C1386 C 0.05811 0.93948 0.83711 0.0
C1387 C 0.03736 0.96463 0.84847 0.0
C1388 C 0.07562 0.01241 0.85801 0.0
C1389 C 0.1341 0.03123 0.85717 0.0
C1390 C 0.01832 0.88897 0.82649 0.0
C1391 C 0.05467 0.04039 0.8701 0.0
C1392 C 0.87928 0.90364 0.84371 0.0
C1393 C 0.8593 0.85533 0.85384 0.0
C1394 C 0.93775 0.94331 0.84281 0.0
C1395 C 0.97608 0.93391 0.85234 0.0
C1396 C 0.95544 0.88808 0.86373 0.0
C1397 C 0.89701 0.84894 0.86426 0.0
C1398 C 0.9586 0.99216 0.83068 0.0
C1399 C 0.99533 0.87748 0.87433 0.0
H1400 H 0.13253 0.93795 0.82854 0.0
H1401 H 0.16358 0.06583 0.86512 0.0
H1402 H 0.99469 0.85046 0.83438 0.0
H1403 H 0.98625 0.89688 0.82032 0.0
H1404 H 0.04176 0.87948 0.81688 0.0
H1405 H 0.08923 0.0839 0.87362 0.0
H1406 H 0.01824 0.04344 0.86493 0.0
H1407 H 0.03938 0.01401 0.88147 0.0
H1408 H 0.84972 0.9087 0.83578 0.0
H1409 H 0.88108 0.8122 0.8724 0.0
H1410 H 0.97378 0.98099 0.81931 0.0
H1411 H 0.99507 0.03172 0.83582 0.0
H1412 H 0.924 1.00104 0.82718 0.0
H1413 H 0.01902 0.86273 0.86644 0.0
H1414 H 0.97196 0.84449 0.88395 0.0
H1415 H 0.02734 0.91751 0.8805 0.0
loop_
_geom_bond_atom_site_label_1
_geom_bond_atom_site_label_2
_geom_bond_distance
_geom_bond_site_symmetry_2
_ccdc_geom_bond_type
Fe0 O2 1.931 . S
Fe0 O5 2.023 . S
Fe0 O6 2.005 . S
Fe0 O11 1.948 1_554 S
Fe0 O14 1.992 1_554 S
Fe1 O2 1.918 . S
Fe1 O9 1.997 . S
Fe1 O12 1.996 1_554 S
Fe1 O16 1.976 . S
Fe1 O19 2.002 . S
O2 Fe0 1.931 . S
O2 Fe1 1.918 . S
O2 Fe3 1.918 . S
Fe3 O2 1.918 . S
Fe3 O4 2.002 . S
Fe3 O13 1.976 . S
Fe3 O17 1.996 . S
Fe3 O20 1.997 . S
O4 Fe3 2.002 . S
O4 C21 1.295 . S
O5 Fe0 2.023 . S
O5 C21 1.235 . S
O6 Fe0 2.005 . S
O6 C7 1.295 . S
C7 O6 1.295 . S
C7 O9 1.235 . S
C8 O13 1.287 . S
C8 O14 1.255 1_554 S
O9 Fe1 1.997 . S
O9 C7 1.235 . S
C10 O16 1.287 . S
C10 O17 1.255 . S
O11 Fe0 1.948 1_556 S
O11 C18 1.287 . S
O12 Fe1 1.996 1_556 S
O12 C18 1.255 . S
O13 Fe3 1.976 . S
O13 C8 1.287 . S
O14 Fe0 1.992 1_556 S
O14 C8 1.255 1_556 S
C15 O19 1.295 . S
C15 O20 1.235 . S
O16 Fe1 1.976 . S
O16 C10 1.287 . S
O17 Fe3 1.996 . S
O17 C10 1.255 . S
C18 O11 1.287 . S
C18 O12 1.255 . S
O19 Fe1 2.002 . S
O19 C15 1.295 . S
O20 Fe3 1.997 . S
O20 C15 1.235 . S
C21 O4 1.295 . S
C21 O5 1.235 . S
Fe22 O24 1.918 . S
Fe22 O27 1.998 1_655 S
Fe22 O28 2.002 . S
Fe22 O33 1.976 . S
Fe22 O36 1.996 . S
Fe23 O24 1.918 . S
Fe23 O31 1.997 . S
Fe23 O34 1.996 . S
Fe23 O38 1.976 . S
Fe23 O41 2.002 . S
O24 Fe22 1.918 . S
O24 Fe23 1.918 . S
O24 Fe25 1.918 1_655 S
Fe25 O24 1.918 1_455 S
Fe25 O26 2.002 . S
Fe25 O35 1.976 . S
Fe25 O39 1.996 . S
Fe25 O42 1.997 . S
O26 Fe25 2.002 . S
O26 C43 1.295 . S
O27 Fe22 1.998 1_455 S
O27 C43 1.234 . S
O28 Fe22 2.002 . S
O28 C29 1.295 . S
C29 O28 1.295 . S
C29 O31 1.235 . S
C30 O35 1.287 . S
C30 O36 1.255 1_455 S
O31 Fe23 1.997 . S
O31 C29 1.235 . S
C32 O38 1.287 . S
C32 O39 1.255 1_655 S
O33 Fe22 1.976 . S
O33 C40 1.287 . S
O34 Fe23 1.996 . S
O34 C40 1.255 . S
O35 Fe25 1.976 . S
O35 C30 1.287 . S
O36 Fe22 1.996 . S
O36 C30 1.255 1_655 S
C37 O41 1.295 1_455 S
C37 O42 1.235 . S
O38 Fe23 1.976 . S
O38 C32 1.287 . S
O39 Fe25 1.996 . S
O39 C32 1.255 1_455 S
C40 O33 1.287 . S
C40 O34 1.255 . S
O41 Fe23 2.002 . S
O41 C37 1.295 1_655 S
O42 Fe25 1.997 . S
O42 C37 1.235 . S
C43 O26 1.295 . S
C43 O27 1.234 . S
Fe44 O46 1.918 . S
Fe44 O49 1.997 . S
Fe44 O50 2.002 . S
Fe44 O55 1.976 . S
Fe44 O58 1.996 . S
Fe45 O46 1.918 1_545 S
Fe45 O53 1.997 . S
Fe45 O56 1.996 . S
Fe45 O60 1.976 . S
Fe45 O63 2.002 . S
O46 Fe44 1.918 . S
O46 Fe45 1.918 1_565 S
O46 Fe47 1.918 . S
Fe47 O46 1.918 . S
Fe47 O48 2.002 . S
Fe47 O57 1.976 . S
Fe47 O61 1.996 . S
Fe47 O64 1.996 1_565 S
O48 Fe47 2.002 . S
O48 C65 1.295 . S
O49 Fe44 1.997 . S
O49 C65 1.235 . S
O50 Fe44 2.002 . S
O50 C51 1.295 1_565 S
C51 O50 1.295 1_545 S
C51 O53 1.235 . S
C52 O57 1.287 . S
C52 O58 1.255 . S
O53 Fe45 1.997 . S
O53 C51 1.235 . S
C54 O60 1.287 . S
C54 O61 1.255 1_545 S
O55 Fe44 1.976 . S
O55 C62 1.287 . S
O56 Fe45 1.996 . S
O56 C62 1.255 1_545 S
O57 Fe47 1.976 . S
O57 C52 1.287 . S
O58 Fe44 1.996 . S
O58 C52 1.255 . S
C59 O63 1.295 . S
C59 O64 1.236 . S
O60 Fe45 1.976 . S
O60 C54 1.287 . S
O61 Fe47 1.996 . S
O61 C54 1.255 1_565 S
C62 O55 1.287 . S
C62 O56 1.255 1_565 S
O63 Fe45 2.002 . S
O63 C59 1.295 . S
O64 Fe47 1.996 1_545 S
O64 C59 1.236 . S
C65 O48 1.295 . S
C65 O49 1.235 . S
Fe66 O68 1.918 . S
Fe66 O71 1.997 . S
Fe66 O72 2.002 . S
Fe66 O77 1.976 . S
Fe66 O80 1.996 . S
Fe67 O68 1.918 . S
Fe67 O75 1.997 . S
Fe67 O78 1.996 . S
Fe67 O82 1.976 . S
Fe67 O85 2.002 . S
O68 Fe66 1.918 . S
O68 Fe67 1.918 . S
O68 Fe69 1.918 . S
Fe69 O68 1.918 . S
Fe69 O70 2.002 . S
Fe69 O79 1.976 . S
Fe69 O83 1.996 . S
Fe69 O86 1.997 . S
O70 Fe69 2.002 . S
O70 C87 1.295 . S
O71 Fe66 1.997 . S
O71 C87 1.235 . S
O72 Fe66 2.002 . S
O72 C73 1.295 . S
C73 O72 1.295 . S
C73 O75 1.235 . S
C74 O79 1.287 . S
C74 O80 1.255 . S
O75 Fe67 1.997 . S
O75 C73 1.235 . S
C76 O82 1.287 . S
C76 O83 1.255 . S
O77 Fe66 1.976 . S
O77 C84 1.287 . S
O78 Fe67 1.996 . S
O78 C84 1.255 . S
O79 Fe69 1.976 . S
O79 C74 1.287 . S
O80 Fe66 1.996 . S
O80 C74 1.255 . S
C81 O85 1.295 . S
C81 O86 1.235 . S
O82 Fe67 1.976 . S
O82 C76 1.287 . S
O83 Fe69 1.996 . S
O83 C76 1.255 . S
C84 O77 1.287 . S
C84 O78 1.255 . S
O85 Fe67 2.002 . S
O85 C81 1.295 . S
O86 Fe69 1.997 . S
O86 C81 1.235 . S
C87 O70 1.295 . S
C87 O71 1.235 . S
Fe88 O90 1.918 . S
Fe88 O93 1.995 1_455 S
Fe88 O94 2.002 . S
Fe88 O99 1.976 . S
Fe88 O102 1.996 . S
Fe89 O90 1.918 . S
Fe89 O97 1.997 . S
Fe89 O100 1.996 . S
Fe89 O104 1.976 . S
Fe89 O107 2.002 . S
O90 Fe88 1.918 . S
O90 Fe89 1.918 . S
O90 Fe91 1.918 1_455 S
Fe91 O90 1.918 1_655 S
Fe91 O92 2.002 . S
Fe91 O101 1.976 . S
Fe91 O105 1.996 . S
Fe91 O108 1.997 . S
O92 Fe91 2.002 . S
O92 C109 1.295 . S
O93 Fe88 1.995 1_655 S
O93 C109 1.237 . S
O94 Fe88 2.002 . S
O94 C95 1.295 . S
C95 O94 1.295 . S
C95 O97 1.235 . S
C96 O101 1.287 . S
C96 O102 1.255 1_655 S
O97 Fe89 1.997 . S
O97 C95 1.235 . S
C98 O104 1.287 . S
C98 O105 1.255 1_455 S
O99 Fe88 1.976 . S
O99 C106 1.287 . S
O100 Fe89 1.996 . S
O100 C106 1.255 . S
O101 Fe91 1.976 . S
O101 C96 1.287 . S
O102 Fe88 1.996 . S
O102 C96 1.255 1_455 S
C103 O107 1.295 1_655 S
C103 O108 1.235 . S
O104 Fe89 1.976 . S
O104 C98 1.287 . S
O105 Fe91 1.996 . S
O105 C98 1.255 1_655 S
C106 O99 1.287 . S
C106 O100 1.255 . S
O107 Fe89 2.002 . S
O107 C103 1.295 1_455 S
O108 Fe91 1.997 . S
O108 C103 1.235 . S
C109 O92 1.295 . S
C109 O93 1.237 . S
Fe110 O112 1.918 . S
Fe110 O115 1.997 . S
Fe110 O116 2.002 . S
Fe110 O121 1.976 . S
Fe110 O124 1.996 . S
Fe111 O112 1.918 1_565 S
Fe111 O119 1.997 . S
Fe111 O122 1.996 . S
Fe111 O126 1.976 . S
Fe111 O129 2.002 . S
O112 Fe110 1.918 . S
O112 Fe111 1.918 1_545 S
O112 Fe113 1.918 . S
Fe113 O112 1.918 . S
Fe113 O114 2.002 . S
Fe113 O123 1.976 . S
Fe113 O127 1.996 . S
Fe113 O130 1.996 1_545 S
O114 Fe113 2.002 . S
O114 C131 1.295 . S
O115 Fe110 1.997 . S
O115 C131 1.235 . S
O116 Fe110 2.002 . S
O116 C117 1.295 1_545 S
C117 O116 1.295 1_565 S
C117 O119 1.235 . S
C118 O123 1.287 . S
C118 O124 1.255 . S
O119 Fe111 1.997 . S
O119 C117 1.235 . S
C120 O126 1.287 . S
C120 O127 1.255 1_565 S
O121 Fe110 1.976 . S
O121 C128 1.287 . S
O122 Fe111 1.996 . S
O122 C128 1.255 1_565 S
O123 Fe113 1.976 . S
O123 C118 1.287 . S
O124 Fe110 1.996 . S
O124 C118 1.255 . S
C125 O129 1.295 . S
C125 O130 1.236 . S
O126 Fe111 1.976 . S
O126 C120 1.287 . S
O127 Fe113 1.996 . S
O127 C120 1.255 1_545 S
C128 O121 1.287 . S
C128 O122 1.255 1_545 S
O129 Fe111 2.002 . S
O129 C125 1.295 . S
O130 Fe113 1.996 1_565 S
O130 C125 1.236 . S
C131 O114 1.295 . S
C131 O115 1.235 . S
Fe132 O134 1.918 . S
Fe132 O137 1.997 . S
Fe132 O138 2.002 . S
Fe132 O143 1.976 . S
Fe132 O146 1.996 . S
Fe133 O134 1.918 . S
Fe133 O141 1.997 . S
Fe133 O144 1.996 . S
Fe133 O148 1.976 . S
Fe133 O151 2.002 . S
O134 Fe132 1.918 . S
O134 Fe133 1.918 . S
O134 Fe135 1.918 . S
Fe135 O134 1.918 . S
Fe135 O136 2.002 . S
Fe135 O145 1.976 . S
Fe135 O149 1.996 . S
Fe135 O152 1.997 . S
O136 Fe135 2.002 . S
O136 C153 1.295 . S
O137 Fe132 1.997 . S
O137 C153 1.235 . S
O138 Fe132 2.002 . S
O138 C139 1.295 . S
C139 O138 1.295 . S
C139 O141 1.235 . S
C140 O145 1.287 . S
C140 O146 1.255 . S
O141 Fe133 1.997 . S
O141 C139 1.235 . S
C142 O148 1.287 . S
C142 O149 1.255 . S
O143 Fe132 1.976 . S
O143 C150 1.287 . S
O144 Fe133 1.996 . S
O144 C150 1.255 . S
O145 Fe135 1.976 . S
O145 C140 1.287 . S
O146 Fe132 1.996 . S
O146 C140 1.255 . S
C147 O151 1.295 . S
C147 O152 1.235 . S
O148 Fe133 1.976 . S
O148 C142 1.287 . S
O149 Fe135 1.996 . S
O149 C142 1.255 . S
C150 O143 1.287 . S
C150 O144 1.255 . S
O151 Fe133 2.002 . S
O151 C147 1.295 . S
O152 Fe135 1.997 . S
O152 C147 1.235 . S
C153 O136 1.295 . S
C153 O137 1.235 . S
Fe154 O156 1.918 1_455 S
Fe154 O159 1.997 . S
Fe154 O160 2.002 . S
Fe154 O165 1.976 . S
Fe154 O168 1.996 1_556 S
Fe155 O156 1.918 . S
Fe155 O163 1.997 1_655 S
Fe155 O166 1.996 . S
Fe155 O170 1.976 . S
Fe155 O173 2.002 . S
O156 Fe154 1.918 1_655 S
O156 Fe155 1.918 . S
O156 Fe157 1.918 . S
Fe157 O156 1.918 . S
Fe157 O158 2.002 . S
Fe157 O167 1.976 1_556 S
Fe157 O171 1.997 . S
Fe157 O174 1.997 . S
O158 Fe157 2.002 . S
O158 C175 1.295 1_655 S
O159 Fe154 1.997 . S
O159 C175 1.235 . S
O160 Fe154 2.002 . S
O160 C161 1.295 . S
C161 O160 1.295 . S
C161 O163 1.235 . S
C162 O167 1.287 . S
C162 O168 1.255 1_655 S
O163 Fe155 1.997 1_455 S
O163 C161 1.235 . S
C164 O170 1.287 . S
C164 O171 1.259 . S
O165 Fe154 1.976 . S
O165 C172 1.287 . S
O166 Fe155 1.996 . S
O166 C172 1.255 1_655 S
O167 Fe157 1.976 1_554 S
O167 C162 1.287 . S
O168 Fe154 1.996 1_554 S
O168 C162 1.255 1_455 S
C169 O173 1.295 . S
C169 O174 1.235 . S
O170 Fe155 1.976 . S
O170 C164 1.287 . S
O171 Fe157 1.997 . S
O171 C164 1.259 . S
C172 O165 1.287 . S
C172 O166 1.255 1_455 S
O173 Fe155 2.002 . S
O173 C169 1.295 . S
O174 Fe157 1.997 . S
O174 C169 1.235 . S
C175 O158 1.295 1_455 S
C175 O159 1.235 . S
Fe176 O178 1.918 1_545 S
Fe176 O181 1.997 . S
Fe176 O182 2.002 . S
Fe176 O187 1.976 . S
Fe176 O190 1.996 . S
Fe177 O178 1.918 . S
Fe177 O185 1.996 1_565 S
Fe177 O188 1.996 . S
Fe177 O192 1.976 . S
Fe177 O195 2.002 . S
O178 Fe176 1.918 1_565 S
O178 Fe177 1.918 . S
O178 Fe179 1.918 . S
Fe179 O178 1.918 . S
Fe179 O180 2.002 . S
Fe179 O189 1.976 . S
Fe179 O193 1.996 . S
Fe179 O196 1.997 . S
O180 Fe179 2.002 . S
O180 C197 1.295 1_565 S
O181 Fe176 1.997 . S
O181 C197 1.235 . S
O182 Fe176 2.002 . S
O182 C183 1.295 . S
C183 O182 1.295 . S
C183 O185 1.236 . S
C184 O189 1.287 . S
C184 O190 1.255 1_565 S
O185 Fe177 1.996 1_545 S
O185 C183 1.236 . S
C186 O192 1.287 . S
C186 O193 1.255 . S
O187 Fe176 1.976 . S
O187 C194 1.287 . S
O188 Fe177 1.996 . S
O188 C194 1.255 1_565 S
O189 Fe179 1.976 . S
O189 C184 1.287 . S
O190 Fe176 1.996 . S
O190 C184 1.255 1_545 S
C191 O195 1.295 . S
C191 O196 1.235 . S
O192 Fe177 1.976 . S
O192 C186 1.287 . S
O193 Fe179 1.996 . S
O193 C186 1.255 . S
C194 O187 1.287 . S
C194 O188 1.255 1_545 S
O195 Fe177 2.002 . S
O195 C191 1.295 . S
O196 Fe179 1.997 . S
O196 C191 1.235 . S
C197 O180 1.295 1_545 S
C197 O181 1.235 . S
Fe198 O200 1.918 . S
Fe198 O203 1.997 . S
Fe198 O204 2.002 . S
Fe198 O209 1.976 . S
Fe198 O212 1.996 . S
Fe199 O200 1.918 . S
Fe199 O207 1.997 . S
Fe199 O210 1.996 . S
Fe199 O214 1.976 . S
Fe199 O217 2.002 . S
O200 Fe198 1.918 . S
O200 Fe199 1.918 . S
O200 Fe201 1.918 . S
Fe201 O200 1.918 . S
Fe201 O202 2.002 . S
Fe201 O211 1.976 . S
Fe201 O215 1.996 . S
Fe201 O218 1.997 . S
O202 Fe201 2.002 . S
O202 C219 1.295 . S
O203 Fe198 1.997 . S
O203 C219 1.235 . S
O204 Fe198 2.002 . S
O204 C205 1.295 . S
C205 O204 1.295 . S
C205 O207 1.235 . S
C206 O211 1.287 . S
C206 O212 1.255 . S
O207 Fe199 1.997 . S
O207 C205 1.235 . S
C208 O214 1.287 . S
C208 O215 1.255 . S
O209 Fe198 1.976 . S
O209 C216 1.287 . S
O210 Fe199 1.996 . S
O210 C216 1.255 . S
O211 Fe201 1.976 . S
O211 C206 1.287 . S
O212 Fe198 1.996 . S
O212 C206 1.255 . S
C213 O217 1.295 . S
C213 O218 1.235 . S
O214 Fe199 1.976 . S
O214 C208 1.287 . S
O215 Fe201 1.996 . S
O215 C208 1.255 . S
C216 O209 1.287 . S
C216 O210 1.255 . S
O217 Fe199 2.002 . S
O217 C213 1.295 . S
O218 Fe201 1.997 . S
O218 C213 1.235 . S
C219 O202 1.295 . S
C219 O203 1.235 . S
Fe220 O222 1.918 . S
Fe220 O225 1.995 1_455 S
Fe220 O226 2.002 . S
Fe220 O231 1.976 . S
Fe220 O234 1.996 . S
Fe221 O222 1.918 . S
Fe221 O229 1.997 . S
Fe221 O232 1.996 . S
Fe221 O236 1.976 . S
Fe221 O239 2.002 . S
O222 Fe220 1.918 . S
O222 Fe221 1.918 . S
O222 Fe223 1.918 1_455 S
Fe223 O222 1.918 1_655 S
Fe223 O224 2.002 . S
Fe223 O233 1.976 . S
Fe223 O237 1.996 . S
Fe223 O240 1.997 . S
O224 Fe223 2.002 . S
O224 C241 1.295 . S
O225 Fe220 1.995 1_655 S
O225 C241 1.237 . S
O226 Fe220 2.002 . S
O226 C227 1.295 . S
C227 O226 1.295 . S
C227 O229 1.235 . S
C228 O233 1.287 . S
C228 O234 1.255 1_655 S
O229 Fe221 1.997 . S
O229 C227 1.235 . S
C230 O236 1.287 . S
C230 O237 1.255 1_455 S
O231 Fe220 1.976 . S
O231 C238 1.287 . S
O232 Fe221 1.996 . S
O232 C238 1.255 . S
O233 Fe223 1.976 . S
O233 C228 1.287 . S
O234 Fe220 1.996 . S
O234 C228 1.255 1_455 S
C235 O239 1.295 1_655 S
C235 O240 1.235 . S
O236 Fe221 1.976 . S
O236 C230 1.287 . S
O237 Fe223 1.996 . S
O237 C230 1.255 1_655 S
C238 O231 1.287 . S
C238 O232 1.255 . S
O239 Fe221 2.002 . S
O239 C235 1.295 1_455 S
O240 Fe223 1.997 . S
O240 C235 1.235 . S
C241 O224 1.295 . S
C241 O225 1.237 . S
Fe242 O244 1.918 1_565 S
Fe242 O247 1.997 . S
Fe242 O248 2.002 . S
Fe242 O253 1.976 . S
Fe242 O256 1.996 . S
Fe243 O244 1.918 . S
Fe243 O251 1.997 1_545 S
Fe243 O254 1.996 . S
Fe243 O258 1.976 . S
Fe243 O261 2.002 . S
O244 Fe242 1.918 1_545 S
O244 Fe243 1.918 . S
O244 Fe245 1.918 . S
Fe245 O244 1.918 . S
Fe245 O246 2.002 . S
Fe245 O255 1.976 . S
Fe245 O259 1.996 . S
Fe245 O262 1.997 . S
O246 Fe245 2.002 . S
O246 C263 1.295 1_545 S
O247 Fe242 1.997 . S
O247 C263 1.235 . S
O248 Fe242 2.002 . S
O248 C249 1.295 . S
C249 O248 1.295 . S
C249 O251 1.235 . S
C250 O255 1.287 . S
C250 O256 1.255 1_545 S
O251 Fe243 1.997 1_565 S
O251 C249 1.235 . S
C252 O258 1.287 . S
C252 O259 1.255 . S
O253 Fe242 1.976 . S
O253 C260 1.287 . S
O254 Fe243 1.996 . S
O254 C260 1.255 1_545 S
O255 Fe245 1.976 . S
O255 C250 1.287 . S
O256 Fe242 1.996 . S
O256 C250 1.255 1_565 S
C257 O261 1.295 . S
C257 O262 1.235 . S
O258 Fe243 1.976 . S
O258 C252 1.287 . S
O259 Fe245 1.996 . S
O259 C252 1.255 . S
C260 O253 1.287 . S
C260 O254 1.255 1_565 S
O261 Fe243 2.002 . S
O261 C257 1.295 . S
O262 Fe245 1.997 . S
O262 C257 1.235 . S
C263 O246 1.295 1_565 S
C263 O247 1.235 . S
C264 C265 1.391 1_554 S
C264 C266 1.394 . S
C264 H280 0.931 . S
C265 C264 1.391 1_556 S
C265 C269 1.376 . S
C266 C264 1.394 . S
C266 C267 1.369 . S
C266 C270 1.531 . S
C267 C266 1.369 . S
C267 C268 1.410 1_554 S
C267 C275 1.503 . S
C268 C267 1.410 1_556 S
C268 C269 1.392 . S
C268 C271 1.511 . S
C269 C265 1.376 . S
C269 C268 1.392 . S
C269 H281 0.929 . S
C270 C266 1.531 . S
C270 H282 0.960 . S
C270 H283 0.962 . S
C270 H284 0.960 . S
C271 C268 1.511 . S
C271 H285 0.961 . S
C271 H286 0.961 . S
C271 H287 0.961 . S
C272 C273 1.372 1_556 S
C272 C274 1.363 . S
C272 H288 0.930 . S
C273 C272 1.372 1_554 S
C273 C277 1.408 . S
C274 C272 1.363 . S
C274 C275 1.370 1_556 S
C274 C278 1.524 . S
C275 C267 1.503 . S
C275 C274 1.370 1_554 S
C275 C276 1.403 . S
C276 C275 1.403 . S
C276 C277 1.404 . S
C276 C279 1.539 . S
C277 C273 1.408 . S
C277 C276 1.404 . S
C277 H289 0.930 . S
C278 C274 1.524 . S
C278 H290 0.956 . S
C278 H291 0.961 . S
C278 H292 0.961 . S
C279 C276 1.539 . S
C279 H293 0.958 . S
C279 H294 0.961 . S
C279 H295 0.960 . S
H280 C264 0.931 . S
H281 C269 0.929 . S
H282 C270 0.960 . S
H283 C270 0.962 . S
H284 C270 0.960 . S
H285 C271 0.961 . S
H286 C271 0.961 . S
H287 C271 0.961 . S
H288 C272 0.930 . S
H289 C277 0.930 . S
H290 C278 0.956 . S
H291 C278 0.961 . S
H292 C278 0.961 . S
H293 C279 0.958 . S
H294 C279 0.961 . S
H295 C279 0.960 . S
C296 C297 1.391 . S
C296 C298 1.394 . S
C296 H312 0.931 . S
C297 C296 1.391 . S
C297 C301 1.376 . S
C298 C296 1.394 . S
C298 C299 1.369 . S
C298 C302 1.531 . S
C299 C298 1.369 . S
C299 C300 1.410 . S
C299 C307 1.503 . S
C300 C299 1.410 . S
C300 C301 1.392 . S
C300 C303 1.511 . S
C301 C297 1.376 . S
C301 C300 1.392 . S
C301 H313 0.929 . S
C302 C298 1.531 . S
C302 H314 0.960 . S
C302 H315 0.962 . S
C302 H316 0.960 . S
C303 C300 1.511 . S
C303 H317 0.961 . S
C303 H318 0.961 . S
C303 H319 0.961 . S
C304 C305 1.370 . S
C304 C306 1.363 . S
C304 H320 0.931 . S
C305 C304 1.370 . S
C305 C309 1.408 . S
C306 C304 1.363 . S
C306 C307 1.370 . S
C306 C310 1.524 . S
C307 C299 1.503 . S
C307 C306 1.370 . S
C307 C308 1.403 . S
C308 C307 1.403 . S
C308 C309 1.404 . S
C308 C311 1.539 . S
C309 C305 1.408 . S
C309 C308 1.404 . S
C309 H321 0.930 . S
C310 C306 1.524 . S
C310 H322 0.956 . S
C310 H323 0.961 . S
C310 H324 0.961 . S
C311 C308 1.539 . S
C311 H325 0.958 . S
C311 H326 0.961 . S
C311 H327 0.960 . S
H312 C296 0.931 . S
H313 C301 0.929 . S
H314 C302 0.960 . S
H315 C302 0.962 . S
H316 C302 0.960 . S
H317 C303 0.961 . S
H318 C303 0.961 . S
H319 C303 0.961 . S
H320 C304 0.931 . S
H321 C309 0.930 . S
H322 C310 0.956 . S
H323 C310 0.961 . S
H324 C310 0.961 . S
H325 C311 0.958 . S
H326 C311 0.961 . S
H327 C311 0.960 . S
C328 C329 1.391 . S
C328 C330 1.394 . S
C328 H344 0.931 . S
C329 C328 1.391 . S
C329 C333 1.376 . S
C330 C328 1.394 . S
C330 C331 1.369 . S
C330 C334 1.531 . S
C331 C330 1.369 . S
C331 C332 1.410 . S
C331 C339 1.503 . S
C332 C331 1.410 . S
C332 C333 1.392 . S
C332 C335 1.511 . S
C333 C329 1.376 . S
C333 C332 1.392 . S
C333 H345 0.929 . S
C334 C330 1.531 . S
C334 H346 0.960 . S
C334 H347 0.962 . S
C334 H348 0.960 . S
C335 C332 1.511 . S
C335 H349 0.961 . S
C335 H350 0.961 . S
C335 H351 0.961 . S
C336 C337 1.370 . S
C336 C338 1.363 . S
C336 H352 0.931 . S
C337 C336 1.370 . S
C337 C341 1.408 . S
C338 C336 1.363 . S
C338 C339 1.370 . S
C338 C342 1.524 . S
C339 C331 1.503 . S
C339 C338 1.370 . S
C339 C340 1.403 . S
C340 C339 1.403 . S
C340 C341 1.404 . S
C340 C343 1.539 . S
C341 C337 1.408 . S
C341 C340 1.404 . S
C341 H353 0.930 1_545 S
C342 C338 1.524 . S
C342 H354 0.956 . S
C342 H355 0.961 . S
C342 H356 0.961 . S
C343 C340 1.539 . S
C343 H357 0.958 1_545 S
C343 H358 0.961 1_545 S
C343 H359 0.960 . S
H344 C328 0.931 . S
H345 C333 0.929 . S
H346 C334 0.960 . S
H347 C334 0.962 . S
H348 C334 0.960 . S
H349 C335 0.961 . S
H350 C335 0.961 . S
H351 C335 0.961 . S
H352 C336 0.931 . S
H353 C341 0.930 1_565 S
H354 C342 0.956 . S
H355 C342 0.961 . S
H356 C342 0.961 . S
H357 C343 0.958 1_565 S
H358 C343 0.961 1_565 S
H359 C343 0.960 . S
C360 C361 1.391 . S
C360 C362 1.394 . S
C360 H376 0.931 . S
C361 C360 1.391 . S
C361 C365 1.376 . S
C362 C360 1.394 . S
C362 C363 1.369 . S
C362 C366 1.531 . S
C363 C362 1.369 . S
C363 C364 1.410 . S
C363 C371 1.503 . S
C364 C363 1.410 . S
C364 C365 1.392 . S
C364 C367 1.511 . S
C365 C361 1.376 . S
C365 C364 1.392 . S
C365 H377 0.929 . S
C366 C362 1.531 . S
C366 H378 0.960 . S
C366 H379 0.962 . S
C366 H380 0.960 . S
C367 C364 1.511 . S
C367 H381 0.961 . S
C367 H382 0.961 . S
C367 H383 0.961 . S
C368 C369 1.370 . S
C368 C370 1.363 . S
C368 H384 0.931 . S
C369 C368 1.370 . S
C369 C373 1.408 . S
C370 C368 1.363 . S
C370 C371 1.370 . S
C370 C374 1.524 . S
C371 C363 1.503 . S
C371 C370 1.370 . S
C371 C372 1.403 . S
C372 C371 1.403 . S
C372 C373 1.404 . S
C372 C375 1.539 . S
C373 C369 1.408 . S
C373 C372 1.404 . S
C373 H385 0.930 . S
C374 C370 1.524 . S
C374 H386 0.956 . S
C374 H387 0.961 . S
C374 H388 0.961 . S
C375 C372 1.539 . S
C375 H389 0.958 . S
C375 H390 0.961 . S
C375 H391 0.960 . S
H376 C360 0.931 . S
H377 C365 0.929 . S
H378 C366 0.960 . S
H379 C366 0.962 . S
H380 C366 0.960 . S
H381 C367 0.961 . S
H382 C367 0.961 . S
H383 C367 0.961 . S
H384 C368 0.931 . S
H385 C373 0.930 . S
H386 C374 0.956 . S
H387 C374 0.961 . S
H388 C374 0.961 . S
H389 C375 0.958 . S
H390 C375 0.961 . S
H391 C375 0.960 . S
C392 C393 1.391 . S
C392 C394 1.394 . S
C392 H408 0.931 . S
C393 C392 1.391 . S
C393 C397 1.376 . S
C394 C392 1.394 . S
C394 C395 1.369 . S
C394 C398 1.531 . S
C395 C394 1.369 . S
C395 C396 1.410 . S
C395 C403 1.503 . S
C396 C395 1.410 . S
C396 C397 1.392 . S
C396 C399 1.511 . S
C397 C393 1.376 . S
C397 C396 1.392 . S
C397 H409 0.929 . S
C398 C394 1.531 . S
C398 H410 0.960 . S
C398 H411 0.962 . S
C398 H412 0.960 . S
C399 C396 1.511 . S
C399 H413 0.961 . S
C399 H414 0.961 . S
C399 H415 0.961 . S
C400 C401 1.370 . S
C400 C402 1.363 . S
C400 H416 0.931 . S
C401 C400 1.370 . S
C401 C405 1.408 . S
C402 C400 1.363 . S
C402 C403 1.370 . S
C402 C406 1.524 . S
C403 C395 1.503 . S
C403 C402 1.370 . S
C403 C404 1.403 . S
C404 C403 1.403 . S
C404 C405 1.404 . S
C404 C407 1.539 . S
C405 C401 1.408 . S
C405 C404 1.404 . S
C405 H417 0.930 1_655 S
C406 C402 1.524 . S
C406 H418 0.956 . S
C406 H419 0.961 . S
C406 H420 0.961 . S
C407 C404 1.539 . S
C407 H421 0.958 1_655 S
C407 H422 0.961 1_655 S
C407 H423 0.960 . S
H408 C392 0.931 . S
H409 C397 0.929 . S
H410 C398 0.960 . S
H411 C398 0.962 . S
H412 C398 0.960 . S
H413 C399 0.961 . S
H414 C399 0.961 . S
H415 C399 0.961 . S
H416 C400 0.931 . S
H417 C405 0.930 1_455 S
H418 C406 0.956 . S
H419 C406 0.961 . S
H420 C406 0.961 . S
H421 C407 0.958 1_455 S
H422 C407 0.961 1_455 S
H423 C407 0.960 . S
C424 C425 1.391 . S
C424 C426 1.394 . S
C424 H440 0.931 . S
C425 C424 1.391 . S
C425 C429 1.376 . S
C426 C424 1.394 . S
C426 C427 1.369 . S
C426 C430 1.531 . S
C427 C426 1.369 . S
C427 C428 1.410 . S
C427 C435 1.503 . S
C428 C427 1.410 . S
C428 C429 1.392 . S
C428 C431 1.511 . S
C429 C425 1.376 . S
C429 C428 1.392 . S
C429 H441 0.929 . S
C430 C426 1.531 . S
C430 H442 0.960 . S
C430 H443 0.962 . S
C430 H444 0.960 . S
C431 C428 1.511 . S
C431 H445 0.961 . S
C431 H446 0.961 . S
C431 H447 0.961 . S
C432 C433 1.370 . S
C432 C434 1.363 . S
C432 H448 0.931 . S
C433 C432 1.370 . S
C433 C437 1.408 . S
C434 C432 1.363 . S
C434 C435 1.370 . S
C434 C438 1.524 . S
C435 C427 1.503 . S
C435 C434 1.370 . S
C435 C436 1.403 . S
C436 C435 1.403 . S
C436 C437 1.404 . S
C436 C439 1.539 . S
C437 C433 1.408 . S
C437 C436 1.404 . S
C437 H449 0.930 . S
C438 C434 1.524 . S
C438 H450 0.956 . S
C438 H451 0.961 . S
C438 H452 0.961 . S
C439 C436 1.539 . S
C439 H453 0.958 . S
C439 H454 0.961 . S
C439 H455 0.960 . S
H440 C424 0.931 . S
H441 C429 0.929 . S
H442 C430 0.960 . S
H443 C430 0.962 . S
H444 C430 0.960 . S
H445 C431 0.961 . S
H446 C431 0.961 . S
H447 C431 0.961 . S
H448 C432 0.931 . S
H449 C437 0.930 . S
H450 C438 0.956 . S
H451 C438 0.961 . S
H452 C438 0.961 . S
H453 C439 0.958 . S
H454 C439 0.961 . S
H455 C439 0.960 . S
C456 C457 1.391 . S
C456 C458 1.394 . S
C456 H472 0.931 . S
C457 C456 1.391 . S
C457 C461 1.376 . S
C458 C456 1.394 . S
C458 C459 1.369 . S
C458 C462 1.531 . S
C459 C458 1.369 . S
C459 C460 1.410 . S
C459 C467 1.503 . S
C460 C459 1.410 . S
C460 C461 1.392 . S
C460 C463 1.511 . S
C461 C457 1.376 . S
C461 C460 1.392 . S
C461 H473 0.929 . S
C462 C458 1.531 . S
C462 H474 0.960 . S
C462 H475 0.962 . S
C462 H476 0.960 . S
C463 C460 1.511 . S
C463 H477 0.961 . S
C463 H478 0.961 . S
C463 H479 0.961 . S
C464 C465 1.370 . S
C464 C466 1.363 . S
C464 H480 0.931 . S
C465 C464 1.370 . S
C465 C469 1.408 . S
C466 C464 1.363 . S
C466 C467 1.370 . S
C466 C470 1.524 . S
C467 C459 1.503 . S
C467 C466 1.370 . S
C467 C468 1.403 . S
C468 C467 1.403 . S
C468 C469 1.404 . S
C468 C471 1.539 . S
C469 C465 1.408 . S
C469 C468 1.404 . S
C469 H481 0.930 . S
C470 C466 1.524 . S
C470 H482 0.956 . S
C470 H483 0.961 . S
C470 H484 0.961 . S
C471 C468 1.539 . S
C471 H485 0.958 . S
C471 H486 0.961 . S
C471 H487 0.960 . S
H472 C456 0.931 . S
H473 C461 0.929 . S
H474 C462 0.960 . S
H475 C462 0.962 . S
H476 C462 0.960 . S
H477 C463 0.961 . S
H478 C463 0.961 . S
H479 C463 0.961 . S
H480 C464 0.931 . S
H481 C469 0.930 . S
H482 C470 0.956 . S
H483 C470 0.961 . S
H484 C470 0.961 . S
H485 C471 0.958 . S
H486 C471 0.961 . S
H487 C471 0.960 . S
C488 C489 1.391 . S
C488 C490 1.394 . S
C488 H504 0.931 1_455 S
C489 C488 1.391 . S
C489 C493 1.376 . S
C490 C488 1.394 . S
C490 C491 1.369 . S
C490 C494 1.531 . S
C491 C490 1.369 . S
C491 C492 1.410 . S
C491 C499 1.503 . S
C492 C491 1.410 . S
C492 C493 1.392 . S
C492 C495 1.511 1_556 S
C493 C489 1.376 . S
C493 C492 1.392 . S
C493 H505 0.929 1_556 S
C494 C490 1.531 . S
C494 H506 0.960 . S
C494 H507 0.962 . S
C494 H508 0.960 . S
C495 C492 1.511 1_554 S
C495 H509 0.961 . S
C495 H510 0.961 . S
C495 H511 0.929 1_554 S
C496 C497 1.337 1_554 S
C496 C498 1.363 . S
C496 H512 0.931 . S
C497 C496 1.337 1_556 S
C497 C501 1.454 . S
C498 C496 1.363 . S
C498 C499 1.370 1_554 S
C498 C502 1.524 . S
C499 C491 1.503 . S
C499 C498 1.370 1_556 S
C499 C500 1.403 . S
C500 C499 1.403 . S
C500 C501 1.404 . S
C500 C503 1.539 . S
C501 C497 1.454 . S
C501 C500 1.404 . S
C501 H513 0.930 . S
C502 C498 1.524 . S
C502 H514 0.956 . S
C502 H515 0.961 . S
C502 H516 0.961 . S
C503 C500 1.539 . S
C503 H517 0.958 . S
C503 H518 0.961 . S
C503 H519 0.960 . S
H504 C488 0.931 1_655 S
H505 C493 0.929 1_554 S
H506 C494 0.960 . S
H507 C494 0.962 . S
H508 C494 0.960 . S
H509 C495 0.961 . S
H510 C495 0.961 . S
H511 C495 0.929 1_556 S
H512 C496 0.931 . S
H513 C501 0.930 . S
H514 C502 0.956 . S
H515 C502 0.961 . S
H516 C502 0.961 . S
H517 C503 0.958 . S
H518 C503 0.961 . S
H519 C503 0.960 . S
C520 C521 1.391 . S
C520 C522 1.394 . S
C520 H536 0.931 . S
C521 C520 1.391 . S
C521 C525 1.376 . S
C522 C520 1.394 . S
C522 C523 1.369 . S
C522 C526 1.531 . S
C523 C522 1.369 . S
C523 C524 1.410 . S
C523 C531 1.503 . S
C524 C523 1.410 . S
C524 C525 1.392 . S
C524 C527 1.511 . S
C525 C521 1.376 . S
C525 C524 1.392 . S
C525 H537 0.929 1_545 S
C526 C522 1.531 . S
C526 H538 0.960 . S
C526 H539 0.962 . S
C526 H540 0.960 . S
C527 C524 1.511 . S
C527 H541 0.961 1_545 S
C527 H542 0.961 . S
C527 H543 0.961 . S
C528 C529 1.370 . S
C528 C530 1.363 . S
C528 H544 0.931 . S
C529 C528 1.370 . S
C529 C533 1.408 . S
C530 C528 1.363 . S
C530 C531 1.370 . S
C530 C534 1.524 . S
C531 C523 1.503 . S
C531 C530 1.370 . S
C531 C532 1.403 . S
C532 C531 1.403 . S
C532 C533 1.404 . S
C532 C535 1.539 . S
C533 C529 1.408 . S
C533 C532 1.404 . S
C533 H545 0.930 . S
C534 C530 1.524 . S
C534 H546 0.956 . S
C534 H547 0.961 . S
C534 H548 0.961 . S
C535 C532 1.539 . S
C535 H549 0.958 . S
C535 H550 0.961 . S
C535 H551 0.960 . S
H536 C520 0.931 . S
H537 C525 0.929 1_565 S
H538 C526 0.960 . S
H539 C526 0.962 . S
H540 C526 0.960 . S
H541 C527 0.961 1_565 S
H542 C527 0.961 . S
H543 C527 0.961 . S
H544 C528 0.931 . S
H545 C533 0.930 . S
H546 C534 0.956 . S
H547 C534 0.961 . S
H548 C534 0.961 . S
H549 C535 0.958 . S
H550 C535 0.961 . S
H551 C535 0.960 . S
C552 C553 1.391 . S
C552 C554 1.394 . S
C552 H568 0.931 . S
C553 C552 1.391 . S
C553 C557 1.376 . S
C554 C552 1.394 . S
C554 C555 1.369 . S
C554 C558 1.531 . S
C555 C554 1.369 . S
C555 C556 1.410 . S
C555 C563 1.503 . S
C556 C555 1.410 . S
C556 C557 1.392 . S
C556 C559 1.511 . S
C557 C553 1.376 . S
C557 C556 1.392 . S
C557 H569 0.929 . S
C558 C554 1.531 . S
C558 H570 0.960 . S
C558 H571 0.962 . S
C558 H572 0.960 . S
C559 C556 1.511 . S
C559 H573 0.961 . S
C559 H574 0.961 . S
C559 H575 0.961 . S
C560 C561 1.370 . S
C560 C562 1.363 . S
C560 H576 0.931 . S
C561 C560 1.370 . S
C561 C565 1.408 . S
C562 C560 1.363 . S
C562 C563 1.370 . S
C562 C566 1.524 . S
C563 C555 1.503 . S
C563 C562 1.370 . S
C563 C564 1.403 . S
C564 C563 1.403 . S
C564 C565 1.404 . S
C564 C567 1.539 . S
C565 C561 1.408 . S
C565 C564 1.404 . S
C565 H577 0.930 . S
C566 C562 1.524 . S
C566 H578 0.956 . S
C566 H579 0.961 . S
C566 H580 0.961 . S
C567 C564 1.539 . S
C567 H581 0.958 . S
C567 H582 0.961 . S
C567 H583 0.960 . S
H568 C552 0.931 . S
H569 C557 0.929 . S
H570 C558 0.960 . S
H571 C558 0.962 . S
H572 C558 0.960 . S
H573 C559 0.961 . S
H574 C559 0.961 . S
H575 C559 0.961 . S
H576 C560 0.931 . S
H577 C565 0.930 . S
H578 C566 0.956 . S
H579 C566 0.961 . S
H580 C566 0.961 . S
H581 C567 0.958 . S
H582 C567 0.961 . S
H583 C567 0.960 . S
C584 C585 1.391 . S
C584 C586 1.394 . S
C584 H600 0.931 1_655 S
C585 C584 1.391 . S
C585 C589 1.376 . S
C586 C584 1.394 . S
C586 C587 1.369 . S
C586 C590 1.531 . S
C587 C586 1.369 . S
C587 C588 1.410 . S
C587 C595 1.503 . S
C588 C587 1.410 . S
C588 C589 1.392 . S
C588 C591 1.511 . S
C589 C585 1.376 . S
C589 C588 1.392 . S
C589 H601 0.929 . S
C590 C586 1.531 . S
C590 H602 0.960 . S
C590 H603 0.962 . S
C590 H604 0.960 1_655 S
C591 C588 1.511 . S
C591 H605 0.961 . S
C591 H606 0.961 . S
C591 H607 0.961 . S
C592 C593 1.370 . S
C592 C594 1.363 . S
C592 H608 0.931 . S
C593 C592 1.370 . S
C593 C597 1.408 . S
C594 C592 1.363 . S
C594 C595 1.370 . S
C594 C598 1.524 . S
C595 C587 1.503 . S
C595 C594 1.370 . S
C595 C596 1.403 . S
C596 C595 1.403 . S
C596 C597 1.404 . S
C596 C599 1.539 . S
C597 C593 1.408 . S
C597 C596 1.404 . S
C597 H609 0.930 . S
C598 C594 1.524 . S
C598 H610 0.956 . S
C598 H611 0.961 . S
C598 H612 0.961 . S
C599 C596 1.539 . S
C599 H613 0.958 . S
C599 H614 0.961 . S
C599 H615 0.960 . S
H600 C584 0.931 1_455 S
H601 C589 0.929 . S
H602 C590 0.960 . S
H603 C590 0.962 . S
H604 C590 0.960 1_455 S
H605 C591 0.961 . S
H606 C591 0.961 . S
H607 C591 0.961 . S
H608 C592 0.931 . S
H609 C597 0.930 . S
H610 C598 0.956 . S
H611 C598 0.961 . S
H612 C598 0.961 . S
H613 C599 0.958 . S
H614 C599 0.961 . S
H615 C599 0.960 . S
C616 C617 1.391 . S
C616 C618 1.394 . S
C616 H632 0.931 . S
C617 C616 1.391 . S
C617 C621 1.376 . S
C618 C616 1.394 . S
C618 C619 1.369 . S
C618 C622 1.531 . S
C619 C618 1.369 . S
C619 C620 1.410 . S
C619 C627 1.503 . S
C620 C619 1.410 . S
C620 C621 1.392 . S
C620 C623 1.511 . S
C621 C617 1.376 . S
C621 C620 1.392 . S
C621 H633 0.929 1_565 S
C622 C618 1.531 . S
C622 H634 0.960 . S
C622 H635 0.962 . S
C622 H636 0.960 . S
C623 C620 1.511 . S
C623 H637 0.961 1_565 S
C623 H638 0.961 . S
C623 H639 0.961 . S
C624 C625 1.370 . S
C624 C626 1.363 . S
C624 H640 0.931 . S
C625 C624 1.370 . S
C625 C629 1.408 . S
C626 C624 1.363 . S
C626 C627 1.370 . S
C626 C630 1.524 . S
C627 C619 1.503 . S
C627 C626 1.370 . S
C627 C628 1.403 . S
C628 C627 1.403 . S
C628 C629 1.404 . S
C628 C631 1.539 . S
C629 C625 1.408 . S
C629 C628 1.404 . S
C629 H641 0.930 . S
C630 C626 1.524 . S
C630 H642 0.956 . S
C630 H643 0.961 . S
C630 H644 0.961 . S
C631 C628 1.539 . S
C631 H645 0.958 . S
C631 H646 0.961 . S
C631 H647 0.960 . S
H632 C616 0.931 . S
H633 C621 0.929 1_545 S
H634 C622 0.960 . S
H635 C622 0.962 . S
H636 C622 0.960 . S
H637 C623 0.961 1_545 S
H638 C623 0.961 . S
H639 C623 0.961 . S
H640 C624 0.931 . S
H641 C629 0.930 . S
H642 C630 0.956 . S
H643 C630 0.961 . S
H644 C630 0.961 . S
H645 C631 0.958 . S
H646 C631 0.961 . S
H647 C631 0.960 . S
C648 C649 1.391 . S
C648 C650 1.394 . S
C648 H664 0.931 . S
C649 C648 1.391 . S
C649 C653 1.376 . S
C650 C648 1.394 . S
C650 C651 1.369 . S
C650 C654 1.531 . S
C651 C650 1.369 . S
C651 C652 1.410 . S
C651 C659 1.503 . S
C652 C651 1.410 . S
C652 C653 1.392 . S
C652 C655 1.511 . S
C653 C649 1.376 . S
C653 C652 1.392 . S
C653 H665 0.929 . S
C654 C650 1.531 . S
C654 H666 0.960 . S
C654 H667 0.962 . S
C654 H668 0.960 . S
C655 C652 1.511 . S
C655 H669 0.961 . S
C655 H670 0.961 . S
C655 H671 0.961 . S
C656 C657 1.370 . S
C656 C658 1.363 . S
C656 H672 0.931 . S
C657 C656 1.370 . S
C657 C661 1.408 . S
C658 C656 1.363 . S
C658 C659 1.370 . S
C658 C662 1.524 . S
C659 C651 1.503 . S
C659 C658 1.370 . S
C659 C660 1.403 . S
C660 C659 1.403 . S
C660 C661 1.404 . S
C660 C663 1.539 . S
C661 C657 1.408 . S
C661 C660 1.404 . S
C661 H673 0.930 . S
C662 C658 1.524 . S
C662 H674 0.956 . S
C662 H675 0.961 . S
C662 H676 0.961 . S
C663 C660 1.539 . S
C663 H677 0.958 . S
C663 H678 0.961 . S
C663 H679 0.960 . S
H664 C648 0.931 . S
H665 C653 0.929 . S
H666 C654 0.960 . S
H667 C654 0.962 . S
H668 C654 0.960 . S
H669 C655 0.961 . S
H670 C655 0.961 . S
H671 C655 0.961 . S
H672 C656 0.931 . S
H673 C661 0.930 . S
H674 C662 0.956 . S
H675 C662 0.961 . S
H676 C662 0.961 . S
H677 C663 0.958 . S
H678 C663 0.961 . S
H679 C663 0.960 . S
C680 C681 1.391 1_455 S
C680 C682 1.394 . S
C680 H696 0.931 . S
C681 C680 1.391 1_655 S
C681 C685 1.376 . S
C682 C680 1.394 . S
C682 C683 1.369 . S
C682 C686 1.531 . S
C683 C682 1.369 . S
C683 C684 1.388 1_455 S
C683 C691 1.503 . S
C684 C683 1.388 1_655 S
C684 C685 1.402 . S
C684 C687 1.523 . S
C685 C681 1.376 . S
C685 C684 1.402 . S
C685 H697 0.929 . S
C686 C682 1.531 . S
C686 H698 0.960 . S
C686 H699 0.962 . S
C686 H700 0.960 . S
C687 C684 1.523 . S
C687 H701 0.961 . S
C687 H702 0.961 1_655 S
C687 H703 0.961 . S
C688 C689 1.370 . S
C688 C690 1.363 . S
C688 H704 0.931 . S
C689 C688 1.370 . S
C689 C693 1.408 . S
C690 C688 1.363 . S
C690 C691 1.370 . S
C690 C694 1.524 . S
C691 C683 1.503 . S
C691 C690 1.370 . S
C691 C692 1.403 . S
C692 C691 1.403 . S
C692 C693 1.404 . S
C692 C695 1.539 1_455 S
C693 C689 1.408 . S
C693 C692 1.404 . S
C693 H705 0.930 . S
C694 C690 1.524 . S
C694 H706 0.956 . S
C694 H707 0.961 . S
C694 H708 0.961 . S
C695 C692 1.539 1_655 S
C695 H709 0.958 . S
C695 H710 0.961 . S
C695 H711 0.960 . S
H696 C680 0.931 . S
H697 C685 0.929 . S
H698 C686 0.960 . S
H699 C686 0.962 . S
H700 C686 0.960 . S
H701 C687 0.961 . S
H702 C687 0.961 1_455 S
H703 C687 0.961 . S
H704 C688 0.931 . S
H705 C693 0.930 . S
H706 C694 0.956 . S
H707 C694 0.961 . S
H708 C694 0.961 . S
H709 C695 0.958 . S
H710 C695 0.961 . S
H711 C695 0.960 . S
C712 C713 1.391 . S
C712 C714 1.394 . S
C712 H728 0.931 . S
C713 C712 1.391 . S
C713 C717 1.376 . S
C714 C712 1.394 . S
C714 C715 1.369 . S
C714 C718 1.531 1_545 S
C715 C714 1.369 . S
C715 C716 1.410 . S
C715 C723 1.503 . S
C716 C715 1.410 . S
C716 C717 1.392 . S
C716 C719 1.511 . S
C717 C713 1.376 . S
C717 C716 1.392 . S
C717 H729 0.929 . S
C718 C714 1.531 1_565 S
C718 H730 0.960 . S
C718 H731 0.962 . S
C718 H732 0.960 . S
C719 C716 1.511 . S
C719 H733 0.961 . S
C719 H734 0.961 . S
C719 H735 0.961 . S
C720 C721 1.363 1_545 S
C720 C722 1.363 . S
C720 H736 0.931 . S
C721 C720 1.363 1_565 S
C721 C725 1.413 1_565 S
C722 C720 1.363 . S
C722 C723 1.370 . S
C722 C726 1.524 . S
C723 C715 1.503 . S
C723 C722 1.370 . S
C723 C724 1.403 . S
C724 C723 1.403 . S
C724 C725 1.404 . S
C724 C727 1.539 . S
C725 C721 1.413 1_545 S
C725 C724 1.404 . S
C725 H737 0.930 1_545 S
C726 C722 1.524 . S
C726 H738 0.956 . S
C726 H739 0.961 . S
C726 H740 0.961 . S
C727 C724 1.539 . S
C727 H741 0.958 . S
C727 H742 0.961 . S
C727 H743 0.960 . S
H728 C712 0.931 . S
H729 C717 0.929 . S
H730 C718 0.960 . S
H731 C718 0.962 . S
H732 C718 0.960 . S
H733 C719 0.961 . S
H734 C719 0.961 . S
H735 C719 0.961 . S
H736 C720 0.931 . S
H737 C725 0.930 1_565 S
H738 C726 0.956 . S
H739 C726 0.961 . S
H740 C726 0.961 . S
H741 C727 0.958 . S
H742 C727 0.961 . S
H743 C727 0.960 . S
C744 C745 1.391 . S
C744 C746 1.394 . S
C744 H760 0.931 . S
C745 C744 1.391 . S
C745 C749 1.376 . S
C746 C744 1.394 . S
C746 C747 1.369 . S
C746 C750 1.531 . S
C747 C746 1.369 . S
C747 C748 1.410 . S
C747 C755 1.503 . S
C748 C747 1.410 . S
C748 C749 1.392 . S
C748 C751 1.511 . S
C749 C745 1.376 . S
C749 C748 1.392 . S
C749 H761 0.929 . S
C750 C746 1.531 . S
C750 H762 0.960 . S
C750 H763 0.962 . S
C750 H764 0.960 . S
C751 C748 1.511 . S
C751 H765 0.961 . S
C751 H766 0.961 . S
C751 H767 0.961 . S
C752 C753 1.370 . S
C752 C754 1.363 . S
C752 H768 0.931 . S
C753 C752 1.370 . S
C753 C757 1.408 . S
C754 C752 1.363 . S
C754 C755 1.370 . S
C754 C758 1.524 . S
C755 C747 1.503 . S
C755 C754 1.370 . S
C755 C756 1.403 . S
C756 C755 1.403 . S
C756 C757 1.404 . S
C756 C759 1.539 . S
C757 C753 1.408 . S
C757 C756 1.404 . S
C757 H769 0.930 . S
C758 C754 1.524 . S
C758 H770 0.956 . S
C758 H771 0.961 . S
C758 H772 0.961 . S
C759 C756 1.539 . S
C759 H773 0.958 . S
C759 H774 0.961 . S
C759 H775 0.960 . S
H760 C744 0.931 . S
H761 C749 0.929 . S
H762 C750 0.960 . S
H763 C750 0.962 . S
H764 C750 0.960 . S
H765 C751 0.961 . S
H766 C751 0.961 . S
H767 C751 0.961 . S
H768 C752 0.931 . S
H769 C757 0.930 . S
H770 C758 0.956 . S
H771 C758 0.961 . S
H772 C758 0.961 . S
H773 C759 0.958 . S
H774 C759 0.961 . S
H775 C759 0.960 . S
C776 C777 1.391 . S
C776 C778 1.394 . S
C776 H792 0.931 . S
C777 C776 1.391 . S
C777 C781 1.376 . S
C778 C776 1.394 . S
C778 C779 1.369 . S
C778 C782 1.531 . S
C779 C778 1.369 . S
C779 C780 1.410 . S
C779 C787 1.503 . S
C780 C779 1.410 . S
C780 C781 1.392 . S
C780 C783 1.511 1_655 S
C781 C777 1.376 . S
C781 C780 1.392 . S
C781 H793 0.929 . S
C782 C778 1.531 . S
C782 H794 0.960 . S
C782 H795 0.962 . S
C782 H796 0.960 . S
C783 C780 1.511 1_455 S
C783 H797 0.961 . S
C783 H798 0.961 . S
C783 H799 0.961 . S
C784 C785 1.370 1_655 S
C784 C786 1.363 . S
C784 H800 0.931 . S
C785 C784 1.370 1_455 S
C785 C789 1.408 1_455 S
C786 C784 1.363 . S
C786 C787 1.370 . S
C786 C790 1.524 . S
C787 C779 1.503 . S
C787 C786 1.370 . S
C787 C788 1.403 . S
C788 C787 1.403 . S
C788 C789 1.404 . S
C788 C791 1.539 . S
C789 C785 1.408 1_655 S
C789 C788 1.404 . S
C789 H801 0.930 1_655 S
C790 C786 1.524 . S
C790 H802 0.956 . S
C790 H803 0.961 . S
C790 H804 0.961 . S
C791 C788 1.539 . S
C791 H805 0.958 . S
C791 H806 0.961 . S
C791 H807 0.960 . S
H792 C776 0.931 . S
H793 C781 0.929 . S
H794 C782 0.960 . S
H795 C782 0.962 . S
H796 C782 0.960 . S
H797 C783 0.961 . S
H798 C783 0.961 . S
H799 C783 0.961 . S
H800 C784 0.931 . S
H801 C789 0.930 1_455 S
H802 C790 0.956 . S
H803 C790 0.961 . S
H804 C790 0.961 . S
H805 C791 0.958 . S
H806 C791 0.961 . S
H807 C791 0.960 . S
C808 C809 1.391 . S
C808 C810 1.394 . S
C808 H824 0.931 . S
C809 C808 1.391 . S
C809 C813 1.376 1_545 S
C810 C808 1.394 . S
C810 C811 1.369 1_545 S
C810 C814 1.531 . S
C811 C810 1.369 1_565 S
C811 C812 1.410 . S
C811 C819 1.503 . S
C812 C811 1.410 . S
C812 C813 1.392 . S
C812 C815 1.511 . S
C813 C809 1.376 1_565 S
C813 C812 1.392 . S
C813 H825 0.929 . S
C814 C810 1.531 . S
C814 H826 0.960 . S
C814 H827 0.962 . S
C814 H828 0.960 . S
C815 C812 1.511 . S
C815 H829 0.961 . S
C815 H830 0.961 . S
C815 H831 0.961 . S
C816 C817 1.370 . S
C816 C818 1.363 . S
C816 H832 0.931 . S
C817 C816 1.370 . S
C817 C821 1.408 . S
C818 C816 1.363 . S
C818 C819 1.370 . S
C818 C822 1.524 . S
C819 C811 1.503 . S
C819 C818 1.370 . S
C819 C820 1.403 . S
C820 C819 1.403 . S
C820 C821 1.404 . S
C820 C823 1.539 . S
C821 C817 1.408 . S
C821 C820 1.404 . S
C821 H833 0.930 . S
C822 C818 1.524 . S
C822 H834 0.956 . S
C822 H835 0.961 . S
C822 H836 0.961 . S
C823 C820 1.539 . S
C823 H837 0.958 . S
C823 H838 0.961 . S
C823 H839 0.960 . S
H824 C808 0.931 . S
H825 C813 0.929 . S
H826 C814 0.960 . S
H827 C814 0.962 . S
H828 C814 0.960 . S
H829 C815 0.961 . S
H830 C815 0.961 . S
H831 C815 0.961 . S
H832 C816 0.931 . S
H833 C821 0.930 . S
H834 C822 0.956 . S
H835 C822 0.961 . S
H836 C822 0.961 . S
H837 C823 0.958 . S
H838 C823 0.961 . S
H839 C823 0.960 . S
C840 C841 1.391 . S
C840 C842 1.394 . S
C840 H856 0.931 . S
C841 C840 1.391 . S
C841 C845 1.376 . S
C842 C840 1.394 . S
C842 C843 1.369 . S
C842 C846 1.531 . S
C843 C842 1.369 . S
C843 C844 1.410 . S
C843 C851 1.503 . S
C844 C843 1.410 . S
C844 C845 1.392 . S
C844 C847 1.511 . S
C845 C841 1.376 . S
C845 C844 1.392 . S
C845 H857 0.929 . S
C846 C842 1.531 . S
C846 H858 0.960 . S
C846 H859 0.962 . S
C846 H860 0.960 . S
C847 C844 1.511 . S
C847 H861 0.961 . S
C847 H862 0.961 . S
C847 H863 0.961 . S
C848 C849 1.370 . S
C848 C850 1.363 . S
C848 H864 0.931 . S
C849 C848 1.370 . S
C849 C853 1.408 . S
C850 C848 1.363 . S
C850 C851 1.370 . S
C850 C854 1.524 . S
C851 C843 1.503 . S
C851 C850 1.370 . S
C851 C852 1.403 . S
C852 C851 1.403 . S
C852 C853 1.404 . S
C852 C855 1.539 . S
C853 C849 1.408 . S
C853 C852 1.404 . S
C853 H865 0.930 . S
C854 C850 1.524 . S
C854 H866 0.956 . S
C854 H867 0.961 . S
C854 H868 0.961 . S
C855 C852 1.539 . S
C855 H869 0.958 . S
C855 H870 0.961 . S
C855 H871 0.960 . S
H856 C840 0.931 . S
H857 C845 0.929 . S
H858 C846 0.960 . S
H859 C846 0.962 . S
H860 C846 0.960 . S
H861 C847 0.961 . S
H862 C847 0.961 . S
H863 C847 0.961 . S
H864 C848 0.931 . S
H865 C853 0.930 . S
H866 C854 0.956 . S
H867 C854 0.961 . S
H868 C854 0.961 . S
H869 C855 0.958 . S
H870 C855 0.961 . S
H871 C855 0.960 . S
C872 C873 1.391 . S
C872 C874 1.394 1_655 S
C872 H888 0.931 . S
C873 C872 1.391 . S
C873 C877 1.376 1_655 S
C874 C872 1.394 1_455 S
C874 C875 1.369 . S
C874 C878 1.531 . S
C875 C874 1.369 . S
C875 C876 1.410 . S
C875 C883 1.503 . S
C876 C875 1.410 . S
C876 C877 1.392 . S
C876 C879 1.511 . S
C877 C873 1.376 1_455 S
C877 C876 1.392 . S
C877 H889 0.929 . S
C878 C874 1.531 . S
C878 H890 0.960 . S
C878 H891 0.962 . S
C878 H892 0.960 1_455 S
C879 C876 1.511 . S
C879 H893 0.961 . S
C879 H894 0.961 . S
C879 H895 0.961 . S
C880 C881 1.370 . S
C880 C882 1.363 . S
C880 H896 0.931 . S
C881 C880 1.370 . S
C881 C885 1.408 . S
C882 C880 1.363 . S
C882 C883 1.370 . S
C882 C886 1.524 . S
C883 C875 1.503 . S
C883 C882 1.370 . S
C883 C884 1.403 . S
C884 C883 1.403 . S
C884 C885 1.404 . S
C884 C887 1.539 1_455 S
C885 C881 1.408 . S
C885 C884 1.404 . S
C885 H897 0.930 . S
C886 C882 1.524 . S
C886 H898 0.956 . S
C886 H899 0.961 . S
C886 H900 0.961 . S
C887 C884 1.539 1_655 S
C887 H901 0.958 . S
C887 H902 0.961 . S
C887 H903 0.960 . S
H888 C872 0.931 . S
H889 C877 0.929 . S
H890 C878 0.960 . S
H891 C878 0.962 . S
H892 C878 0.960 1_655 S
H893 C879 0.961 . S
H894 C879 0.961 . S
H895 C879 0.961 . S
H896 C880 0.931 . S
H897 C885 0.930 . S
H898 C886 0.956 . S
H899 C886 0.961 . S
H900 C886 0.961 . S
H901 C887 0.958 . S
H902 C887 0.961 . S
H903 C887 0.960 . S
C904 C905 1.391 . S
C904 C906 1.394 . S
C904 H920 0.931 . S
C905 C904 1.391 . S
C905 C909 1.376 1_565 S
C906 C904 1.394 . S
C906 C907 1.369 1_565 S
C906 C910 1.531 . S
C907 C906 1.369 1_545 S
C907 C908 1.410 . S
C907 C915 1.503 . S
C908 C907 1.410 . S
C908 C909 1.392 . S
C908 C911 1.511 . S
C909 C905 1.376 1_545 S
C909 C908 1.392 . S
C909 H921 0.929 . S
C910 C906 1.531 . S
C910 H922 0.960 . S
C910 H923 0.962 . S
C910 H924 0.960 . S
C911 C908 1.511 . S
C911 H925 0.961 . S
C911 H926 0.961 . S
C911 H927 0.961 . S
C912 C913 1.370 . S
C912 C914 1.363 . S
C912 H928 0.931 . S
C913 C912 1.370 . S
C913 C917 1.408 . S
C914 C912 1.363 . S
C914 C915 1.370 . S
C914 C918 1.524 . S
C915 C907 1.503 . S
C915 C914 1.370 . S
C915 C916 1.403 . S
C916 C915 1.403 . S
C916 C917 1.404 . S
C916 C919 1.539 . S
C917 C913 1.408 . S
C917 C916 1.404 . S
C917 H929 0.930 . S
C918 C914 1.524 . S
C918 H930 0.956 . S
C918 H931 0.961 . S
C918 H932 0.961 . S
C919 C916 1.539 . S
C919 H933 0.958 . S
C919 H934 0.961 . S
C919 H935 0.960 . S
H920 C904 0.931 . S
H921 C909 0.929 . S
H922 C910 0.960 . S
H923 C910 0.962 . S
H924 C910 0.960 . S
H925 C911 0.961 . S
H926 C911 0.961 . S
H927 C911 0.961 . S
H928 C912 0.931 . S
H929 C917 0.930 . S
H930 C918 0.956 . S
H931 C918 0.961 . S
H932 C918 0.961 . S
H933 C919 0.958 . S
H934 C919 0.961 . S
H935 C919 0.960 . S
C936 C937 1.391 . S
C936 C938 1.394 . S
C936 H952 0.931 . S
C937 C936 1.391 . S
C937 C941 1.376 . S
C938 C936 1.394 . S
C938 C939 1.369 . S
C938 C942 1.531 . S
C939 C938 1.369 . S
C939 C940 1.410 . S
C939 C947 1.503 . S
C940 C939 1.410 . S
C940 C941 1.392 . S
C940 C943 1.511 . S
C941 C937 1.376 . S
C941 C940 1.392 . S
C941 H953 0.929 . S
C942 C938 1.531 . S
C942 H954 0.960 . S
C942 H955 0.962 . S
C942 H956 0.960 . S
C943 C940 1.511 . S
C943 H957 0.961 . S
C943 H958 0.961 . S
C943 H959 0.961 . S
C944 C945 1.370 . S
C944 C946 1.363 . S
C944 H960 0.931 . S
C945 C944 1.370 . S
C945 C949 1.408 . S
C946 C944 1.363 . S
C946 C947 1.370 . S
C946 C950 1.524 . S
C947 C939 1.503 . S
C947 C946 1.370 . S
C947 C948 1.403 . S
C948 C947 1.403 . S
C948 C949 1.404 . S
C948 C951 1.539 . S
C949 C945 1.408 . S
C949 C948 1.404 . S
C949 H961 0.930 . S
C950 C946 1.524 . S
C950 H962 0.956 . S
C950 H963 0.961 . S
C950 H964 0.961 . S
C951 C948 1.539 . S
C951 H965 0.958 . S
C951 H966 0.961 . S
C951 H967 0.960 . S
H952 C936 0.931 . S
H953 C941 0.929 . S
H954 C942 0.960 . S
H955 C942 0.962 . S
H956 C942 0.960 . S
H957 C943 0.961 . S
H958 C943 0.961 . S
H959 C943 0.961 . S
H960 C944 0.931 . S
H961 C949 0.930 . S
H962 C950 0.956 . S
H963 C950 0.961 . S
H964 C950 0.961 . S
H965 C951 0.958 . S
H966 C951 0.961 . S
H967 C951 0.960 . S
C968 C969 1.391 . S
C968 C970 1.394 . S
C968 H984 0.931 . S
C969 C968 1.391 . S
C969 C973 1.376 1_455 S
C970 C968 1.394 . S
C970 C971 1.369 1_455 S
C970 C974 1.531 . S
C971 C970 1.369 1_655 S
C971 C972 1.410 . S
C971 C979 1.503 . S
C972 C971 1.410 . S
C972 C973 1.392 . S
C972 C975 1.511 . S
C973 C969 1.376 1_655 S
C973 C972 1.392 . S
C973 H985 0.929 . S
C974 C970 1.531 . S
C974 H986 0.960 . S
C974 H987 0.962 . S
C974 H988 0.960 . S
C975 C972 1.511 . S
C975 H989 0.961 . S
C975 H990 0.961 . S
C975 H991 0.961 . S
C976 C977 1.370 . S
C976 C978 1.363 . S
C976 H992 0.931 . S
C977 C976 1.370 . S
C977 C981 1.408 . S
C978 C976 1.363 . S
C978 C979 1.370 . S
C978 C982 1.524 . S
C979 C971 1.503 . S
C979 C978 1.370 . S
C979 C980 1.403 . S
C980 C979 1.403 . S
C980 C981 1.404 . S
C980 C983 1.539 . S
C981 C977 1.408 . S
C981 C980 1.404 . S
C981 H993 0.930 . S
C982 C978 1.524 . S
C982 H994 0.956 . S
C982 H995 0.961 . S
C982 H996 0.961 . S
C983 C980 1.539 . S
C983 H997 0.958 . S
C983 H998 0.961 . S
C983 H999 0.960 . S
H984 C968 0.931 . S
H985 C973 0.929 . S
H986 C974 0.960 . S
H987 C974 0.962 . S
H988 C974 0.960 . S
H989 C975 0.961 . S
H990 C975 0.961 . S
H991 C975 0.961 . S
H992 C976 0.931 . S
H993 C981 0.930 . S
H994 C982 0.956 . S
H995 C982 0.961 . S
H996 C982 0.961 . S
H997 C983 0.958 . S
H998 C983 0.961 . S
H999 C983 0.960 . S
C1000 C1001 1.391 . S
C1000 C1002 1.394 . S
C1000 H1016 0.931 . S
C1001 C1000 1.391 . S
C1001 C1005 1.376 . S
C1002 C1000 1.394 . S
C1002 C1003 1.369 . S
C1002 C1006 1.531 . S
C1003 C1002 1.369 . S
C1003 C1004 1.410 . S
C1003 C1011 1.503 . S
C1004 C1003 1.410 . S
C1004 C1005 1.392 . S
C1004 C1007 1.511 . S
C1005 C1001 1.376 . S
C1005 C1004 1.392 . S
C1005 H1017 0.929 . S
C1006 C1002 1.531 . S
C1006 H1018 0.960 . S
C1006 H1019 0.962 . S
C1006 H1020 0.960 . S
C1007 C1004 1.511 . S
C1007 H1021 0.961 . S
C1007 H1022 0.961 . S
C1007 H1023 0.961 . S
C1008 C1009 1.367 1_545 S
C1008 C1010 1.363 1_545 S
C1008 H1024 0.931 . S
C1009 C1008 1.367 1_565 S
C1009 C1013 1.421 . S
C1010 C1008 1.363 1_565 S
C1010 C1011 1.370 . S
C1010 C1014 1.524 1_565 S
C1011 C1003 1.503 . S
C1011 C1010 1.370 . S
C1011 C1012 1.403 . S
C1012 C1011 1.403 . S
C1012 C1013 1.404 . S
C1012 C1015 1.539 . S
C1013 C1009 1.421 . S
C1013 C1012 1.404 . S
C1013 H1025 0.930 . S
C1014 C1010 1.524 1_545 S
C1014 H1026 0.956 . S
C1014 H1027 0.961 . S
C1014 H1028 0.961 . S
C1015 C1012 1.539 . S
C1015 H1029 0.958 . S
C1015 H1030 0.961 . S
C1015 H1031 0.960 . S
H1016 C1000 0.931 . S
H1017 C1005 0.929 . S
H1018 C1006 0.960 . S
H1019 C1006 0.962 . S
H1020 C1006 0.960 . S
H1021 C1007 0.961 . S
H1022 C1007 0.961 . S
H1023 C1007 0.961 . S
H1024 C1008 0.931 . S
H1025 C1013 0.930 . S
H1026 C1014 0.956 . S
H1027 C1014 0.961 . S
H1028 C1014 0.961 . S
H1029 C1015 0.958 . S
H1030 C1015 0.961 . S
H1031 C1015 0.960 . S
C1032 C1033 1.391 . S
C1032 C1034 1.394 . S
C1032 H1048 0.931 . S
C1033 C1032 1.391 . S
C1033 C1037 1.376 . S
C1034 C1032 1.394 . S
C1034 C1035 1.369 . S
C1034 C1038 1.531 . S
C1035 C1034 1.369 . S
C1035 C1036 1.410 . S
C1035 C1043 1.503 . S
C1036 C1035 1.410 . S
C1036 C1037 1.392 . S
C1036 C1039 1.511 . S
C1037 C1033 1.376 . S
C1037 C1036 1.392 . S
C1037 H1049 0.929 . S
C1038 C1034 1.531 . S
C1038 H1050 0.960 . S
C1038 H1051 0.962 . S
C1038 H1052 0.960 . S
C1039 C1036 1.511 . S
C1039 H1053 0.961 . S
C1039 H1054 0.961 . S
C1039 H1055 0.961 . S
C1040 C1041 1.370 . S
C1040 C1042 1.363 . S
C1040 H1056 0.931 . S
C1041 C1040 1.370 . S
C1041 C1045 1.408 . S
C1042 C1040 1.363 . S
C1042 C1043 1.370 . S
C1042 C1046 1.524 . S
C1043 C1035 1.503 . S
C1043 C1042 1.370 . S
C1043 C1044 1.403 . S
C1044 C1043 1.403 . S
C1044 C1045 1.404 . S
C1044 C1047 1.539 . S
C1045 C1041 1.408 . S
C1045 C1044 1.404 . S
C1045 H1057 0.930 . S
C1046 C1042 1.524 . S
C1046 H1058 0.956 . S
C1046 H1059 0.961 . S
C1046 H1060 0.961 . S
C1047 C1044 1.539 . S
C1047 H1061 0.958 . S
C1047 H1062 0.961 . S
C1047 H1063 0.960 . S
H1048 C1032 0.931 . S
H1049 C1037 0.929 . S
H1050 C1038 0.960 . S
H1051 C1038 0.962 . S
H1052 C1038 0.960 . S
H1053 C1039 0.961 . S
H1054 C1039 0.961 . S
H1055 C1039 0.961 . S
H1056 C1040 0.931 . S
H1057 C1045 0.930 . S
H1058 C1046 0.956 . S
H1059 C1046 0.961 . S
H1060 C1046 0.961 . S
H1061 C1047 0.958 . S
H1062 C1047 0.961 . S
H1063 C1047 0.960 . S
C1064 C1065 1.391 . S
C1064 C1066 1.394 . S
C1064 H1080 0.931 . S
C1065 C1064 1.391 . S
C1065 C1069 1.376 . S
C1066 C1064 1.394 . S
C1066 C1067 1.369 . S
C1066 C1070 1.531 . S
C1067 C1066 1.369 . S
C1067 C1068 1.410 . S
C1067 C1075 1.503 . S
C1068 C1067 1.410 . S
C1068 C1069 1.392 . S
C1068 C1071 1.511 . S
C1069 C1065 1.376 . S
C1069 C1068 1.392 . S
C1069 H1081 0.929 . S
C1070 C1066 1.531 . S
C1070 H1082 0.960 . S
C1070 H1083 0.962 . S
C1070 H1084 0.960 . S
C1071 C1068 1.511 . S
C1071 H1085 0.961 . S
C1071 H1086 0.961 . S
C1071 H1087 0.961 . S
C1072 C1073 1.370 . S
C1072 C1074 1.363 . S
C1072 H1088 0.931 . S
C1073 C1072 1.370 . S
C1073 C1077 1.408 . S
C1074 C1072 1.363 . S
C1074 C1075 1.370 . S
C1074 C1078 1.524 . S
C1075 C1067 1.503 . S
C1075 C1074 1.370 . S
C1075 C1076 1.403 . S
C1076 C1075 1.403 . S
C1076 C1077 1.404 . S
C1076 C1079 1.539 . S
C1077 C1073 1.408 . S
C1077 C1076 1.404 . S
C1077 H1089 0.930 . S
C1078 C1074 1.524 . S
C1078 H1090 0.956 . S
C1078 H1091 0.961 . S
C1078 H1092 0.961 . S
C1079 C1076 1.539 . S
C1079 H1093 0.958 . S
C1079 H1094 0.961 . S
C1079 H1095 0.960 . S
H1080 C1064 0.931 . S
H1081 C1069 0.929 . S
H1082 C1070 0.960 . S
H1083 C1070 0.962 . S
H1084 C1070 0.960 . S
H1085 C1071 0.961 . S
H1086 C1071 0.961 . S
H1087 C1071 0.961 . S
H1088 C1072 0.931 . S
H1089 C1077 0.930 . S
H1090 C1078 0.956 . S
H1091 C1078 0.961 . S
H1092 C1078 0.961 . S
H1093 C1079 0.958 . S
H1094 C1079 0.961 . S
H1095 C1079 0.960 . S
C1096 C1097 1.391 . S
C1096 C1098 1.394 . S
C1096 H1112 0.931 . S
C1097 C1096 1.391 . S
C1097 C1101 1.376 . S
C1098 C1096 1.394 . S
C1098 C1099 1.369 . S
C1098 C1102 1.531 . S
C1099 C1098 1.369 . S
C1099 C1100 1.410 . S
C1099 C1107 1.503 . S
C1100 C1099 1.410 . S
C1100 C1101 1.392 . S
C1100 C1103 1.511 . S
C1101 C1097 1.376 . S
C1101 C1100 1.392 . S
C1101 H1113 0.929 . S
C1102 C1098 1.531 . S
C1102 H1114 0.960 . S
C1102 H1115 0.962 . S
C1102 H1116 0.960 . S
C1103 C1100 1.511 . S
C1103 H1117 0.961 . S
C1103 H1118 0.961 . S
C1103 H1119 0.961 . S
C1104 C1105 1.370 . S
C1104 C1106 1.363 . S
C1104 H1120 0.931 . S
C1105 C1104 1.370 . S
C1105 C1109 1.408 . S
C1106 C1104 1.363 . S
C1106 C1107 1.370 . S
C1106 C1110 1.524 . S
C1107 C1099 1.503 . S
C1107 C1106 1.370 . S
C1107 C1108 1.403 . S
C1108 C1107 1.403 . S
C1108 C1109 1.404 . S
C1108 C1111 1.539 . S
C1109 C1105 1.408 . S
C1109 C1108 1.404 . S
C1109 H1121 0.930 . S
C1110 C1106 1.524 . S
C1110 H1122 0.956 . S
C1110 H1123 0.961 . S
C1110 H1124 0.961 . S
C1111 C1108 1.539 . S
C1111 H1125 0.958 . S
C1111 H1126 0.961 . S
C1111 H1127 0.960 . S
H1112 C1096 0.931 . S
H1113 C1101 0.929 . S
H1114 C1102 0.960 . S
H1115 C1102 0.962 . S
H1116 C1102 0.960 . S
H1117 C1103 0.961 . S
H1118 C1103 0.961 . S
H1119 C1103 0.961 . S
H1120 C1104 0.931 . S
H1121 C1109 0.930 . S
H1122 C1110 0.956 . S
H1123 C1110 0.961 . S
H1124 C1110 0.961 . S
H1125 C1111 0.958 . S
H1126 C1111 0.961 . S
H1127 C1111 0.960 . S
C1128 C1129 1.391 . S
C1128 C1130 1.394 . S
C1128 H1144 0.931 . S
C1129 C1128 1.391 . S
C1129 C1133 1.376 . S
C1130 C1128 1.394 . S
C1130 C1131 1.369 . S
C1130 C1134 1.531 . S
C1131 C1130 1.369 . S
C1131 C1132 1.410 . S
C1131 C1139 1.503 . S
C1132 C1131 1.410 . S
C1132 C1133 1.392 . S
C1132 C1135 1.511 . S
C1133 C1129 1.376 . S
C1133 C1132 1.392 . S
C1133 H1145 0.929 . S
C1134 C1130 1.531 . S
C1134 H1146 0.960 . S
C1134 H1147 0.962 . S
C1134 H1148 0.960 . S
C1135 C1132 1.511 . S
C1135 H1149 0.961 . S
C1135 H1150 0.961 . S
C1135 H1151 0.961 . S
C1136 C1137 1.370 . S
C1136 C1138 1.363 . S
C1136 H1152 0.931 . S
C1137 C1136 1.370 . S
C1137 C1141 1.408 . S
C1138 C1136 1.363 . S
C1138 C1139 1.370 . S
C1138 C1142 1.524 . S
C1139 C1131 1.503 . S
C1139 C1138 1.370 . S
C1139 C1140 1.403 . S
C1140 C1139 1.403 . S
C1140 C1141 1.404 . S
C1140 C1143 1.539 . S
C1141 C1137 1.408 . S
C1141 C1140 1.404 . S
C1141 H1153 0.930 . S
C1142 C1138 1.524 . S
C1142 H1154 0.956 . S
C1142 H1155 0.961 . S
C1142 H1156 0.961 . S
C1143 C1140 1.539 . S
C1143 H1157 0.958 . S
C1143 H1158 0.961 . S
C1143 H1159 0.960 . S
H1144 C1128 0.931 . S
H1145 C1133 0.929 . S
H1146 C1134 0.960 . S
H1147 C1134 0.962 . S
H1148 C1134 0.960 . S
H1149 C1135 0.961 . S
H1150 C1135 0.961 . S
H1151 C1135 0.961 . S
H1152 C1136 0.931 . S
H1153 C1141 0.930 . S
H1154 C1142 0.956 . S
H1155 C1142 0.961 . S
H1156 C1142 0.961 . S
H1157 C1143 0.958 . S
H1158 C1143 0.961 . S
H1159 C1143 0.960 . S
C1160 C1161 1.391 . S
C1160 C1162 1.394 . S
C1160 H1176 0.931 . S
C1161 C1160 1.391 . S
C1161 C1165 1.376 . S
C1162 C1160 1.394 . S
C1162 C1163 1.369 . S
C1162 C1166 1.531 . S
C1163 C1162 1.369 . S
C1163 C1164 1.410 . S
C1163 C1171 1.503 . S
C1164 C1163 1.410 . S
C1164 C1165 1.392 . S
C1164 C1167 1.511 . S
C1165 C1161 1.376 . S
C1165 C1164 1.392 . S
C1165 H1177 0.929 . S
C1166 C1162 1.531 . S
C1166 H1178 0.960 . S
C1166 H1179 0.962 . S
C1166 H1180 0.960 . S
C1167 C1164 1.511 . S
C1167 H1181 0.961 . S
C1167 H1182 0.961 . S
C1167 H1183 0.961 . S
C1168 C1169 1.370 . S
C1168 C1170 1.363 . S
C1168 H1184 0.931 . S
C1169 C1168 1.370 . S
C1169 C1173 1.408 . S
C1170 C1168 1.363 . S
C1170 C1171 1.370 . S
C1170 C1174 1.524 . S
C1171 C1163 1.503 . S
C1171 C1170 1.370 . S
C1171 C1172 1.403 . S
C1172 C1171 1.403 . S
C1172 C1173 1.404 . S
C1172 C1175 1.539 . S
C1173 C1169 1.408 . S
C1173 C1172 1.404 . S
C1173 H1185 0.930 . S
C1174 C1170 1.524 . S
C1174 H1186 0.956 . S
C1174 H1187 0.961 . S
C1174 H1188 0.961 . S
C1175 C1172 1.539 . S
C1175 H1189 0.958 . S
C1175 H1190 0.961 . S
C1175 H1191 0.960 . S
H1176 C1160 0.931 . S
H1177 C1165 0.929 . S
H1178 C1166 0.960 . S
H1179 C1166 0.962 . S
H1180 C1166 0.960 . S
H1181 C1167 0.961 . S
H1182 C1167 0.961 . S
H1183 C1167 0.961 . S
H1184 C1168 0.931 . S
H1185 C1173 0.930 . S
H1186 C1174 0.956 . S
H1187 C1174 0.961 . S
H1188 C1174 0.961 . S
H1189 C1175 0.958 . S
H1190 C1175 0.961 . S
H1191 C1175 0.960 . S
C1192 C1193 1.391 . S
C1192 C1194 1.394 . S
C1192 H1208 0.931 . S
C1193 C1192 1.391 . S
C1193 C1197 1.376 . S
C1194 C1192 1.394 . S
C1194 C1195 1.369 . S
C1194 C1198 1.531 . S
C1195 C1194 1.369 . S
C1195 C1196 1.410 . S
C1195 C1203 1.503 . S
C1196 C1195 1.410 . S
C1196 C1197 1.392 . S
C1196 C1199 1.511 . S
C1197 C1193 1.376 . S
C1197 C1196 1.392 . S
C1197 H1209 0.929 . S
C1198 C1194 1.531 . S
C1198 H1210 0.960 . S
C1198 H1211 0.962 . S
C1198 H1212 0.960 . S
C1199 C1196 1.511 . S
C1199 H1213 0.961 . S
C1199 H1214 0.961 . S
C1199 H1215 0.961 . S
C1200 C1201 1.370 . S
C1200 C1202 1.363 . S
C1200 H1216 0.931 . S
C1201 C1200 1.370 . S
C1201 C1205 1.408 . S
C1202 C1200 1.363 . S
C1202 C1203 1.370 . S
C1202 C1206 1.524 . S
C1203 C1195 1.503 . S
C1203 C1202 1.370 . S
C1203 C1204 1.403 . S
C1204 C1203 1.403 . S
C1204 C1205 1.404 . S
C1204 C1207 1.539 . S
C1205 C1201 1.408 . S
C1205 C1204 1.404 . S
C1205 H1217 0.930 . S
C1206 C1202 1.524 . S
C1206 H1218 0.956 . S
C1206 H1219 0.961 . S
C1206 H1220 0.961 . S
C1207 C1204 1.539 . S
C1207 H1221 0.958 . S
C1207 H1222 0.961 . S
C1207 H1223 0.960 . S
H1208 C1192 0.931 . S
H1209 C1197 0.929 . S
H1210 C1198 0.960 . S
H1211 C1198 0.962 . S
H1212 C1198 0.960 . S
H1213 C1199 0.961 . S
H1214 C1199 0.961 . S
H1215 C1199 0.961 . S
H1216 C1200 0.931 . S
H1217 C1205 0.930 . S
H1218 C1206 0.956 . S
H1219 C1206 0.961 . S
H1220 C1206 0.961 . S
H1221 C1207 0.958 . S
H1222 C1207 0.961 . S
H1223 C1207 0.960 . S
C1224 C1225 1.391 . S
C1224 C1226 1.394 . S
C1224 H1240 0.931 . S
C1225 C1224 1.391 . S
C1225 C1229 1.376 . S
C1226 C1224 1.394 . S
C1226 C1227 1.369 . S
C1226 C1230 1.520 1_554 S
C1227 C1226 1.369 . S
C1227 C1228 1.410 . S
C1227 C1235 1.492 1_544 S
C1228 C1227 1.410 . S
C1228 C1229 1.392 . S
C1228 C1231 1.511 . S
C1229 C1225 1.376 . S
C1229 C1228 1.392 . S
C1229 H1241 0.929 . S
C1230 C1226 1.520 1_556 S
C1230 H1242 0.940 1_546 S
C1230 H1243 1.022 . S
C1230 H1244 0.936 1_556 S
C1231 C1228 1.511 . S
C1231 H1245 0.961 . S
C1231 H1246 0.961 1_545 S
C1231 H1247 0.961 . S
C1232 C1233 1.370 . S
C1232 C1234 1.363 . S
C1232 H1248 0.931 . S
C1233 C1232 1.370 . S
C1233 C1237 1.408 1_556 S
C1234 C1232 1.363 . S
C1234 C1235 1.416 . S
C1234 C1238 1.524 . S
C1235 C1227 1.492 1_566 S
C1235 C1234 1.416 . S
C1235 C1236 1.369 1_556 S
C1236 C1235 1.369 1_554 S
C1236 C1237 1.404 . S
C1236 C1239 1.539 . S
C1237 C1233 1.408 1_554 S
C1237 C1236 1.404 . S
C1237 H1249 0.930 . S
C1238 C1234 1.524 . S
C1238 H1250 0.956 1_565 S
C1238 H1251 0.961 1_565 S
C1238 H1252 0.961 . S
C1239 C1236 1.539 . S
C1239 H1253 0.958 . S
C1239 H1254 0.961 . S
C1239 H1255 0.960 . S
H1240 C1224 0.931 . S
H1241 C1229 0.929 . S
H1242 C1230 0.940 1_564 S
H1243 C1230 1.022 . S
H1244 C1230 0.936 1_554 S
H1245 C1231 0.961 . S
H1246 C1231 0.961 1_565 S
H1247 C1231 0.961 . S
H1248 C1232 0.931 . S
H1249 C1237 0.930 . S
H1250 C1238 0.956 1_545 S
H1251 C1238 0.961 1_545 S
H1252 C1238 0.961 . S
H1253 C1239 0.958 . S
H1254 C1239 0.961 . S
H1255 C1239 0.960 . S
C1256 C1257 1.391 . S
C1256 C1258 1.394 . S
C1256 H1272 0.931 . S
C1257 C1256 1.391 . S
C1257 C1261 1.376 . S
C1258 C1256 1.394 . S
C1258 C1259 1.369 . S
C1258 C1262 1.531 . S
C1259 C1258 1.369 . S
C1259 C1260 1.410 . S
C1259 C1267 1.503 . S
C1260 C1259 1.410 . S
C1260 C1261 1.392 . S
C1260 C1263 1.511 . S
C1261 C1257 1.376 . S
C1261 C1260 1.392 . S
C1261 H1273 0.929 . S
C1262 C1258 1.531 . S
C1262 H1274 0.960 . S
C1262 H1275 0.962 . S
C1262 H1276 0.960 . S
C1263 C1260 1.511 . S
C1263 H1277 0.961 . S
C1263 H1278 0.961 . S
C1263 H1279 0.961 . S
C1264 C1265 1.370 1_655 S
C1264 C1266 1.363 1_655 S
C1264 H1280 0.931 . S
C1265 C1264 1.370 1_455 S
C1265 C1269 1.408 . S
C1266 C1264 1.363 1_455 S
C1266 C1267 1.370 . S
C1266 C1270 1.524 . S
C1267 C1259 1.503 . S
C1267 C1266 1.370 . S
C1267 C1268 1.403 . S
C1268 C1267 1.403 . S
C1268 C1269 1.404 . S
C1268 C1271 1.539 . S
C1269 C1265 1.408 . S
C1269 C1268 1.404 . S
C1269 H1281 0.930 . S
C1270 C1266 1.524 . S
C1270 H1282 0.956 . S
C1270 H1283 0.960 . S
C1270 H1284 0.961 1_455 S
C1271 C1268 1.539 . S
C1271 H1285 0.958 . S
C1271 H1286 0.961 . S
C1271 H1287 0.960 . S
H1272 C1256 0.931 . S
H1273 C1261 0.929 . S
H1274 C1262 0.960 . S
H1275 C1262 0.962 . S
H1276 C1262 0.960 . S
H1277 C1263 0.961 . S
H1278 C1263 0.961 . S
H1279 C1263 0.961 . S
H1280 C1264 0.931 . S
H1281 C1269 0.930 . S
H1282 C1270 0.956 . S
H1283 C1270 0.960 . S
H1284 C1270 0.961 1_655 S
H1285 C1271 0.958 . S
H1286 C1271 0.961 . S
H1287 C1271 0.960 . S
C1288 C1289 1.391 . S
C1288 C1290 1.394 . S
C1288 H1304 0.931 . S
C1289 C1288 1.391 . S
C1289 C1293 1.376 . S
C1290 C1288 1.394 . S
C1290 C1291 1.369 . S
C1290 C1294 1.531 . S
C1291 C1290 1.369 . S
C1291 C1292 1.410 . S
C1291 C1299 1.503 1_455 S
C1292 C1291 1.410 . S
C1292 C1293 1.392 . S
C1292 C1295 1.511 . S
C1293 C1289 1.376 . S
C1293 C1292 1.392 . S
C1293 H1305 0.929 . S
C1294 C1290 1.531 . S
C1294 H1306 0.960 . S
C1294 H1307 0.962 . S
C1294 H1308 0.960 . S
C1295 C1292 1.511 . S
C1295 H1309 0.961 . S
C1295 H1310 0.961 1_455 S
C1295 H1311 0.954 1_455 S
C1296 C1297 1.370 . S
C1296 C1298 1.363 . S
C1296 H1312 0.931 1_545 S
C1297 C1296 1.370 . S
C1297 C1301 1.408 . S
C1298 C1296 1.363 . S
C1298 C1299 1.370 . S
C1298 C1302 1.524 . S
C1299 C1291 1.503 1_655 S
C1299 C1298 1.370 . S
C1299 C1300 1.403 . S
C1300 C1299 1.403 . S
C1300 C1301 1.404 . S
C1300 C1303 1.539 . S
C1301 C1297 1.408 . S
C1301 C1300 1.404 . S
C1301 H1313 0.930 . S
C1302 C1298 1.524 . S
C1302 H1314 0.956 1_655 S
C1302 H1315 0.961 1_655 S
C1302 H1316 0.961 1_545 S
C1303 C1300 1.539 . S
C1303 H1317 0.958 . S
C1303 H1318 0.961 . S
C1303 H1319 0.960 . S
H1304 C1288 0.931 . S
H1305 C1293 0.929 . S
H1306 C1294 0.960 . S
H1307 C1294 0.962 . S
H1308 C1294 0.960 . S
H1309 C1295 0.961 . S
H1310 C1295 0.961 1_655 S
H1311 C1295 0.954 1_655 S
H1312 C1296 0.931 1_565 S
H1313 C1301 0.930 . S
H1314 C1302 0.956 1_455 S
H1315 C1302 0.961 1_455 S
H1316 C1302 0.961 1_565 S
H1317 C1303 0.958 . S
H1318 C1303 0.961 . S
H1319 C1303 0.960 . S
C1320 C1321 1.391 . S
C1320 C1322 1.394 . S
C1320 H1336 0.931 . S
C1321 C1320 1.391 . S
C1321 C1325 1.376 1_655 S
C1322 C1320 1.394 . S
C1322 C1323 1.369 . S
C1322 C1326 1.531 . S
C1323 C1322 1.369 . S
C1323 C1324 1.410 . S
C1323 C1331 1.503 1_545 S
C1324 C1323 1.410 . S
C1324 C1325 1.392 1_655 S
C1324 C1327 1.511 1_655 S
C1325 C1321 1.376 1_455 S
C1325 C1324 1.392 1_455 S
C1325 H1337 0.929 . S
C1326 C1322 1.531 . S
C1326 H1338 0.960 1_545 S
C1326 H1339 0.962 . S
C1326 H1340 0.960 . S
C1327 C1324 1.511 1_455 S
C1327 H1341 0.961 . S
C1327 H1342 0.961 1_455 S
C1327 H1343 0.961 . S
C1328 C1329 1.370 . S
C1328 C1330 1.363 . S
C1328 H1344 0.931 . S
C1329 C1328 1.370 . S
C1329 C1333 1.408 . S
C1330 C1328 1.363 . S
C1330 C1331 1.370 . S
C1330 C1334 1.524 . S
C1331 C1323 1.503 1_565 S
C1331 C1330 1.370 . S
C1331 C1332 1.403 . S
C1332 C1331 1.403 . S
C1332 C1333 1.404 . S
C1332 C1335 1.539 . S
C1333 C1329 1.408 . S
C1333 C1332 1.404 . S
C1333 H1345 0.930 . S
C1334 C1330 1.524 . S
C1334 H1346 0.956 1_565 S
C1334 H1347 0.961 1_565 S
C1334 H1348 0.961 . S
C1335 C1332 1.539 . S
C1335 H1349 0.958 . S
C1335 H1350 0.961 . S
C1335 H1351 0.960 . S
H1336 C1320 0.931 . S
H1337 C1325 0.929 . S
H1338 C1326 0.960 1_565 S
H1339 C1326 0.962 . S
H1340 C1326 0.960 . S
H1341 C1327 0.961 . S
H1342 C1327 0.961 1_655 S
H1343 C1327 0.961 . S
H1344 C1328 0.931 . S
H1345 C1333 0.930 . S
H1346 C1334 0.956 1_545 S
H1347 C1334 0.961 1_545 S
H1348 C1334 0.961 . S
H1349 C1335 0.958 . S
H1350 C1335 0.961 . S
H1351 C1335 0.960 . S
C1352 C1353 1.391 . S
C1352 C1354 1.394 . S
C1352 H1368 0.931 1_655 S
C1353 C1352 1.391 . S
C1353 C1357 1.376 . S
C1354 C1352 1.394 . S
C1354 C1355 1.369 . S
C1354 C1358 1.531 . S
C1355 C1354 1.369 . S
C1355 C1356 1.410 . S
C1355 C1363 1.503 . S
C1356 C1355 1.410 . S
C1356 C1357 1.392 . S
C1356 C1359 1.511 . S
C1357 C1353 1.376 . S
C1357 C1356 1.392 . S
C1357 H1369 0.929 . S
C1358 C1354 1.531 . S
C1358 H1370 0.960 . S
C1358 H1371 0.962 1_655 S
C1358 H1372 0.960 1_655 S
C1359 C1356 1.511 . S
C1359 H1373 0.961 . S
C1359 H1374 0.961 . S
C1359 H1375 0.961 . S
C1360 C1361 1.370 . S
C1360 C1362 1.363 . S
C1360 H1376 0.931 1_565 S
C1361 C1360 1.370 . S
C1361 C1365 1.408 . S
C1362 C1360 1.363 . S
C1362 C1363 1.370 . S
C1362 C1366 1.524 . S
C1363 C1355 1.503 . S
C1363 C1362 1.370 . S
C1363 C1364 1.403 . S
C1364 C1363 1.403 . S
C1364 C1365 1.404 . S
C1364 C1367 1.539 . S
C1365 C1361 1.408 . S
C1365 C1364 1.404 . S
C1365 H1377 0.930 . S
C1366 C1362 1.524 . S
C1366 H1378 0.956 . S
C1366 H1379 0.961 . S
C1366 H1380 0.961 1_565 S
C1367 C1364 1.539 . S
C1367 H1381 0.958 . S
C1367 H1382 0.961 . S
C1367 H1383 0.960 . S
H1368 C1352 0.931 1_455 S
H1369 C1357 0.929 . S
H1370 C1358 0.960 . S
H1371 C1358 0.962 1_455 S
H1372 C1358 0.960 1_455 S
H1373 C1359 0.961 . S
H1374 C1359 0.961 . S
H1375 C1359 0.961 . S
H1376 C1360 0.931 1_545 S
H1377 C1365 0.930 . S
H1378 C1366 0.956 . S
H1379 C1366 0.961 . S
H1380 C1366 0.961 1_545 S
H1381 C1367 0.958 . S
H1382 C1367 0.961 . S
H1383 C1367 0.960 . S
C1384 C1385 1.391 . S
C1384 C1386 1.394 . S
C1384 H1400 0.931 1_565 S
C1385 C1384 1.391 . S
C1385 C1389 1.376 . S
C1386 C1384 1.394 . S
C1386 C1387 1.369 . S
C1386 C1390 1.531 . S
C1387 C1386 1.369 . S
C1387 C1388 1.410 . S
C1387 C1395 1.503 1_455 S
C1388 C1387 1.410 . S
C1388 C1389 1.392 . S
C1388 C1391 1.511 . S
C1389 C1385 1.376 . S
C1389 C1388 1.392 . S
C1389 H1401 0.929 . S
C1390 C1386 1.531 . S
C1390 H1402 0.960 . S
C1390 H1403 0.957 1_565 S
C1390 H1404 0.960 . S
C1391 C1388 1.511 . S
C1391 H1405 0.961 . S
C1391 H1406 0.961 1_455 S
C1391 H1407 0.961 . S
C1392 C1393 1.370 . S
C1392 C1394 1.363 . S
C1392 H1408 0.931 . S
C1393 C1392 1.370 . S
C1393 C1397 1.408 . S
C1394 C1392 1.363 . S
C1394 C1395 1.370 . S
C1394 C1398 1.524 . S
C1395 C1387 1.503 1_655 S
C1395 C1394 1.370 . S
C1395 C1396 1.403 . S
C1396 C1395 1.403 . S
C1396 C1397 1.404 . S
C1396 C1399 1.539 . S
C1397 C1393 1.408 . S
C1397 C1396 1.404 . S
C1397 H1409 0.930 . S
C1398 C1394 1.524 . S
C1398 H1410 0.956 . S
C1398 H1411 0.961 . S
C1398 H1412 0.961 . S
C1399 C1396 1.539 . S
C1399 H1413 0.958 . S
C1399 H1414 0.961 . S
C1399 H1415 0.960 1_655 S
H1400 C1384 0.931 1_545 S
H1401 C1389 0.929 . S
H1402 C1390 0.960 . S
H1403 C1390 0.957 1_545 S
H1404 C1390 0.960 . S
H1405 C1391 0.961 . S
H1406 C1391 0.961 1_655 S
H1407 C1391 0.961 . S
H1408 C1392 0.931 . S
H1409 C1397 0.930 . S
H1410 C1398 0.956 . S
H1411 C1398 0.961 . S
H1412 C1398 0.961 . S
H1413 C1399 0.958 . S
H1414 C1399 0.961 . S
H1415 C1399 0.960 1_455 S
C265 C164 1.759 . S
C273 C10 1.835 . S
C297 C186 1.791 . S
C305 C30 1.827 . S
C329 C216 1.754 . S
C337 C54 1.836 . S
C361 C238 1.803 . S
C369 C74 1.825 . S
C393 C252 1.753 . S
C401 C96 1.835 . S
C425 C142 1.786 . S
C433 C120 1.828 . S
C457 C150 1.836 . S
C465 C118 1.773 . S
C489 C172 1.816 . S
C497 C8 1.782 1_556 S
C521 C194 1.833 . S
C529 C40 1.775 . S
C553 C206 1.827 . S
C561 C52 1.783 . S
C585 C228 1.832 . S
C593 C84 1.779 . S
C617 C260 1.827 . S
C625 C106 1.780 . S
C649 C18 1.417 . S
C657 C131 1.442 . S
C681 C32 1.438 . S
C689 C21 1.447 . S
C713 C29 1.439 . S
C721 C62 1.427 . S
C745 C65 1.440 . S
C753 C76 1.440 . S
C777 C73 1.432 . S
C785 C98 1.438 . S
C809 C128 1.441 . S
C817 C95 1.435 . S
C841 C140 1.407 . S
C849 C169 1.429 . S
C873 C162 1.451 . S
C881 C191 1.445 . S
C905 C184 1.439 . S
C913 C205 1.434 . S
C937 C208 1.402 . S
C945 C227 1.432 . S
C969 C230 1.444 . S
C977 C257 1.437 . S
C1001 C147 1.413 . S
C1009 C250 1.420 1_565 S
C1033 C183 1.141 . S
C1041 C15 1.152 . S
C1065 C43 1.124 . S
C1073 C219 1.141 . S
C1097 C59 1.129 . S
C1105 C241 1.150 . S
C1129 C87 1.126 . S
C1137 C249 1.148 . S
C1161 C109 1.137 . S
C1169 C139 1.151 . S
C1193 C161 1.149 . S
C1201 C125 1.137 . S
C1225 C7 0.423 . S
C1233 C175 0.310 . S
C1257 C197 0.322 . S
C1265 C37 0.338 . S
C1289 C213 0.372 . S
C1297 C51 0.319 . S
C1321 C235 0.427 . S
C1329 C81 0.321 . S
C1353 C103 0.277 . S
C1361 C263 0.361 . S
C1385 C117 0.290 . S
C1393 C153 0.353 . S
