# Generated by pormake.
# Topology uos, (4)-cn, num edge types: 1
# Building blocks:
#     Node 0, Type 0, BuildingBlock: QUQFOY_clean_sbu_3, # of connection points: 4
#     Node 1, Type 0, BuildingBlock: QUQFOY_clean_sbu_3, # of connection points: 4
#     Node 2, Type 0, BuildingBlock: QUQFOY_clean_sbu_3, # of connection points: 4
#     Node 3, Type 0, BuildingBlock: QUQFOY_clean_sbu_3, # of connection points: 4
#     Node 4, Type 0, BuildingBlock: QUQFOY_clean_sbu_3, # of connection points: 4
#     Node 5, Type 0, BuildingBlock: QUQFOY_clean_sbu_3, # of connection points: 4
#     Node 6, Type 0, BuildingBlock: QUQFOY_clean_sbu_3, # of connection points: 4
#     Node 7, Type 0, BuildingBlock: QUQFOY_clean_sbu_3, # of connection points: 4
#     Node 8, Type 0, BuildingBlock: QUQFOY_clean_sbu_3, # of connection points: 4
#     Node 9, Type 0, BuildingBlock: QUQFOY_clean_sbu_3, # of connection points: 4
#     Node 10, Type 0, BuildingBlock: QUQFOY_clean_sbu_3, # of connection points: 4
#     Node 11, Type 0, BuildingBlock: QUQFOY_clean_sbu_3, # of connection points: 4
#     Node 12, Type 0, BuildingBlock: QUQFOY_clean_sbu_3, # of connection points: 4
#     Node 13, Type 0, BuildingBlock: QUQFOY_clean_sbu_3, # of connection points: 4
#     Node 14, Type 0, BuildingBlock: QUQFOY_clean_sbu_3, # of connection points: 4
#     Node 15, Type 0, BuildingBlock: QUQFOY_clean_sbu_3, # of connection points: 4
#     Node 16, Type 0, BuildingBlock: QUQFOY_clean_sbu_3, # of connection points: 4
#     Node 17, Type 0, BuildingBlock: QUQFOY_clean_sbu_3, # of connection points: 4
#     Node 18, Type 0, BuildingBlock: QUQFOY_clean_sbu_3, # of connection points: 4
#     Node 19, Type 0, BuildingBlock: QUQFOY_clean_sbu_3, # of connection points: 4
#     Node 20, Type 0, BuildingBlock: QUQFOY_clean_sbu_3, # of connection points: 4
#     Node 21, Type 0, BuildingBlock: QUQFOY_clean_sbu_3, # of connection points: 4
#     Node 22, Type 0, BuildingBlock: QUQFOY_clean_sbu_3, # of connection points: 4
#     Node 23, Type 0, BuildingBlock: QUQFOY_clean_sbu_3, # of connection points: 4
#     Node 24, Type 0, BuildingBlock: QUQFOY_clean_sbu_3, # of connection points: 4
#     Node 25, Type 0, BuildingBlock: QUQFOY_clean_sbu_3, # of connection points: 4
#     Node 26, Type 0, BuildingBlock: QUQFOY_clean_sbu_3, # of connection points: 4
#     Node 27, Type 0, BuildingBlock: QUQFOY_clean_sbu_3, # of connection points: 4
#     Node 28, Type 0, BuildingBlock: QUQFOY_clean_sbu_3, # of connection points: 4
#     Node 29, Type 0, BuildingBlock: QUQFOY_clean_sbu_3, # of connection points: 4
#     Node 30, Type 0, BuildingBlock: QUQFOY_clean_sbu_3, # of connection points: 4
#     Node 31, Type 0, BuildingBlock: QUQFOY_clean_sbu_3, # of connection points: 4
#     Edge 32, Type (0, 0), BuildingBlock: KIFKEQ_clean_linker_1, # of connection points: 2
#     Edge 33, Type (0, 0), BuildingBlock: KIFKEQ_clean_linker_1, # of connection points: 2
#     Edge 34, Type (0, 0), BuildingBlock: KIFKEQ_clean_linker_1, # of connection points: 2
#     Edge 35, Type (0, 0), BuildingBlock: KIFKEQ_clean_linker_1, # of connection points: 2
#     Edge 36, Type (0, 0), BuildingBlock: KIFKEQ_clean_linker_1, # of connection points: 2
#     Edge 37, Type (0, 0), BuildingBlock: KIFKEQ_clean_linker_1, # of connection points: 2
#     Edge 38, Type (0, 0), BuildingBlock: KIFKEQ_clean_linker_1, # of connection points: 2
#     Edge 39, Type (0, 0), BuildingBlock: KIFKEQ_clean_linker_1, # of connection points: 2
#     Edge 40, Type (0, 0), BuildingBlock: KIFKEQ_clean_linker_1, # of connection points: 2
#     Edge 41, Type (0, 0), BuildingBlock: KIFKEQ_clean_linker_1, # of connection points: 2
#     Edge 42, Type (0, 0), BuildingBlock: KIFKEQ_clean_linker_1, # of connection points: 2
#     Edge 43, Type (0, 0), BuildingBlock: KIFKEQ_clean_linker_1, # of connection points: 2
#     Edge 44, Type (0, 0), BuildingBlock: KIFKEQ_clean_linker_1, # of connection points: 2
#     Edge 45, Type (0, 0), BuildingBlock: KIFKEQ_clean_linker_1, # of connection points: 2
#     Edge 46, Type (0, 0), BuildingBlock: KIFKEQ_clean_linker_1, # of connection points: 2
#     Edge 47, Type (0, 0), BuildingBlock: KIFKEQ_clean_linker_1, # of connection points: 2
#     Edge 48, Type (0, 0), BuildingBlock: KIFKEQ_clean_linker_1, # of connection points: 2
#     Edge 49, Type (0, 0), BuildingBlock: KIFKEQ_clean_linker_1, # of connection points: 2
#     Edge 50, Type (0, 0), BuildingBlock: KIFKEQ_clean_linker_1, # of connection points: 2
#     Edge 51, Type (0, 0), BuildingBlock: KIFKEQ_clean_linker_1, # of connection points: 2
#     Edge 52, Type (0, 0), BuildingBlock: KIFKEQ_clean_linker_1, # of connection points: 2
#     Edge 53, Type (0, 0), BuildingBlock: KIFKEQ_clean_linker_1, # of connection points: 2
#     Edge 54, Type (0, 0), BuildingBlock: KIFKEQ_clean_linker_1, # of connection points: 2
#     Edge 55, Type (0, 0), BuildingBlock: KIFKEQ_clean_linker_1, # of connection points: 2
#     Edge 56, Type (0, 0), BuildingBlock: KIFKEQ_clean_linker_1, # of connection points: 2
#     Edge 57, Type (0, 0), BuildingBlock: KIFKEQ_clean_linker_1, # of connection points: 2
#     Edge 58, Type (0, 0), BuildingBlock: KIFKEQ_clean_linker_1, # of connection points: 2
#     Edge 59, Type (0, 0), BuildingBlock: KIFKEQ_clean_linker_1, # of connection points: 2
#     Edge 60, Type (0, 0), BuildingBlock: KIFKEQ_clean_linker_1, # of connection points: 2
#     Edge 61, Type (0, 0), BuildingBlock: KIFKEQ_clean_linker_1, # of connection points: 2
#     Edge 62, Type (0, 0), BuildingBlock: KIFKEQ_clean_linker_1, # of connection points: 2
#     Edge 63, Type (0, 0), BuildingBlock: KIFKEQ_clean_linker_1, # of connection points: 2
#     Edge 64, Type (0, 0), BuildingBlock: KIFKEQ_clean_linker_1, # of connection points: 2
#     Edge 65, Type (0, 0), BuildingBlock: KIFKEQ_clean_linker_1, # of connection points: 2
#     Edge 66, Type (0, 0), BuildingBlock: KIFKEQ_clean_linker_1, # of connection points: 2
#     Edge 67, Type (0, 0), BuildingBlock: KIFKEQ_clean_linker_1, # of connection points: 2
#     Edge 68, Type (0, 0), BuildingBlock: KIFKEQ_clean_linker_1, # of connection points: 2
#     Edge 69, Type (0, 0), BuildingBlock: KIFKEQ_clean_linker_1, # of connection points: 2
#     Edge 70, Type (0, 0), BuildingBlock: KIFKEQ_clean_linker_1, # of connection points: 2
#     Edge 71, Type (0, 0), BuildingBlock: KIFKEQ_clean_linker_1, # of connection points: 2
#     Edge 72, Type (0, 0), BuildingBlock: KIFKEQ_clean_linker_1, # of connection points: 2
#     Edge 73, Type (0, 0), BuildingBlock: KIFKEQ_clean_linker_1, # of connection points: 2
#     Edge 74, Type (0, 0), BuildingBlock: KIFKEQ_clean_linker_1, # of connection points: 2
#     Edge 75, Type (0, 0), BuildingBlock: KIFKEQ_clean_linker_1, # of connection points: 2
#     Edge 76, Type (0, 0), BuildingBlock: KIFKEQ_clean_linker_1, # of connection points: 2
#     Edge 77, Type (0, 0), BuildingBlock: KIFKEQ_clean_linker_1, # of connection points: 2
#     Edge 78, Type (0, 0), BuildingBlock: KIFKEQ_clean_linker_1, # of connection points: 2
#     Edge 79, Type (0, 0), BuildingBlock: KIFKEQ_clean_linker_1, # of connection points: 2
#     Edge 80, Type (0, 0), BuildingBlock: KIFKEQ_clean_linker_1, # of connection points: 2
#     Edge 81, Type (0, 0), BuildingBlock: KIFKEQ_clean_linker_1, # of connection points: 2
#     Edge 82, Type (0, 0), BuildingBlock: KIFKEQ_clean_linker_1, # of connection points: 2
#     Edge 83, Type (0, 0), BuildingBlock: KIFKEQ_clean_linker_1, # of connection points: 2
#     Edge 84, Type (0, 0), BuildingBlock: KIFKEQ_clean_linker_1, # of connection points: 2
#     Edge 85, Type (0, 0), BuildingBlock: KIFKEQ_clean_linker_1, # of connection points: 2
#     Edge 86, Type (0, 0), BuildingBlock: KIFKEQ_clean_linker_1, # of connection points: 2
#     Edge 87, Type (0, 0), BuildingBlock: KIFKEQ_clean_linker_1, # of connection points: 2
#     Edge 88, Type (0, 0), BuildingBlock: KIFKEQ_clean_linker_1, # of connection points: 2
#     Edge 89, Type (0, 0), BuildingBlock: KIFKEQ_clean_linker_1, # of connection points: 2
#     Edge 90, Type (0, 0), BuildingBlock: KIFKEQ_clean_linker_1, # of connection points: 2
#     Edge 91, Type (0, 0), BuildingBlock: KIFKEQ_clean_linker_1, # of connection points: 2
#     Edge 92, Type (0, 0), BuildingBlock: KIFKEQ_clean_linker_1, # of connection points: 2
#     Edge 93, Type (0, 0), BuildingBlock: KIFKEQ_clean_linker_1, # of connection points: 2
#     Edge 94, Type (0, 0), BuildingBlock: KIFKEQ_clean_linker_1, # of connection points: 2
#     Edge 95, Type (0, 0), BuildingBlock: KIFKEQ_clean_linker_1, # of connection points: 2
# Relax obj value: 0.043
# Max RMSD: 0.063
# Mean RMSD: 0.063
data_MOF--net-uos--node1-QUQFOY_clean_sbu_3--edge1-KIFKEQ_clean_linker_1
_symmetry_space_group_name_H-M    P1
_symmetry_Int_Tables_number       1
_symmetry_cell_setting            triclinic
loop_
_symmetry_equiv_pos_as_xyz
'x, y, z'
_cell_length_a     89.083617
_cell_length_b     89.023576
_cell_length_c     24.605641
_cell_angle_alpha  90.124488
_cell_angle_beta   89.994095
_cell_angle_gamma 90.025876
loop_
_atom_site_label
_atom_site_type_symbol
_atom_site_fract_x
_atom_site_fract_y
_atom_site_fract_z
_atom_type_partial_charge
C0 C 0.16637 0.2012 0.13463 0.0
O1 O 0.1677 0.20203 0.18592 0.0
Cd2 Cd 0.16377 0.1823 0.25041 0.0
O3 O 0.16354 0.18876 0.11122 0.0
Cd4 Cd 0.16144 0.16252 0.1429 0.0
C5 C 0.19368 0.16089 0.21403 0.0
O6 O 0.14394 0.16698 0.21786 0.0
O7 O 0.15389 0.14498 0.21259 0.0
O8 O 0.14391 0.15805 0.06948 0.0
C9 C 0.14468 0.15369 0.23593 0.0
O10 O 0.18649 0.16756 0.25166 0.0
C11 C 0.15004 0.14601 0.05306 0.0
O12 O 0.18806 0.15922 0.16675 0.0
O13 O 0.162 0.14196 0.07694 0.0
C14 C 0.03789 0.93077 0.37421 0.0
O15 O 0.03762 0.93326 0.42501 0.0
Cd16 Cd 0.05812 0.9305 0.48677 0.0
O17 O 0.05008 0.92729 0.35025 0.0
Cd18 Cd 0.07677 0.9252 0.37842 0.0
C19 C 0.08094 0.95864 0.44144 0.0
O20 O 0.07257 0.90954 0.45826 0.0
O21 O 0.09488 0.91853 0.44779 0.0
O22 O 0.08096 0.90416 0.31843 0.0
C23 C 0.08611 0.90999 0.47394 0.0
O24 O 0.07334 0.95271 0.47951 0.0
C25 C 0.09128 0.91024 0.29066 0.0
O26 O 0.0828 0.95182 0.3963 0.0
O27 O 0.09453 0.92379 0.3019 0.0
C28 C 0.31118 0.79182 0.63128 0.0
O29 O 0.31025 0.79243 0.68271 0.0
Cd30 Cd 0.31348 0.81427 0.73753 0.0
O31 O 0.31314 0.80366 0.6031 0.0
Cd32 Cd 0.3145 0.83111 0.62204 0.0
C33 C 0.28225 0.8332 0.69465 0.0
O34 O 0.33283 0.82813 0.69433 0.0
O35 O 0.32428 0.85051 0.68303 0.0
O36 O 0.33023 0.83125 0.54176 0.0
C37 C 0.33331 0.84186 0.70747 0.0
O38 O 0.28974 0.82718 0.73284 0.0
C39 C 0.32546 0.84365 0.5233 0.0
O40 O 0.28797 0.83486 0.64749 0.0
O41 O 0.31491 0.84998 0.54941 0.0
C42 C 0.43794 0.07546 0.90121 0.0
O43 O 0.43972 0.07429 0.95214 0.0
Cd44 Cd 0.42075 0.0696 0.01775 0.0
O45 O 0.42503 0.07438 0.87944 0.0
Cd46 Cd 0.39907 0.06999 0.91315 0.0
C47 C 0.40763 0.03614 0.96437 0.0
O48 O 0.39969 0.08455 -0.00374 0.0
O49 O 0.38164 0.06841 0.98917 0.0
O50 O 0.38987 0.09111 0.86285 0.0
C51 C 0.38768 0.07907 0.01554 0.0
O52 O 0.41394 0.04371 0.00192 0.0
C53 C 0.38052 0.08396 0.83388 0.0
O54 O 0.40193 0.04264 0.92303 0.0
O55 O 0.37999 0.06977 0.84008 0.0
C56 C 0.14344 0.8038 0.85536 0.0
O57 O 0.1383 0.80535 0.80756 0.0
Cd58 Cd 0.13749 0.82866 0.75932 0.0
O59 O 0.14704 0.81518 0.88403 0.0
Cd60 Cd 0.145 0.84286 0.87755 0.0
C61 C 0.17339 0.84169 0.78709 0.0
O62 O 0.12399 0.84549 0.81549 0.0
O63 O 0.13758 0.86523 0.82881 0.0
O64 O 0.13085 0.84324 0.96069 0.0
C65 C 0.12622 0.85932 0.80629 0.0
O66 O 0.16377 0.83662 0.75334 0.0
C67 C 0.13892 0.85297 0.98456 0.0
O68 O 0.16979 0.8444 0.8363 0.0
O69 O 0.15058 0.8575 0.95958 0.0
C70 C 0.43993 0.89332 0.11114 0.0
O71 O 0.43899 0.8889 0.06214 0.0
Cd72 Cd 0.4166 0.88931 0.00826 0.0
O73 O 0.42824 0.89687 0.13804 0.0
Cd74 Cd 0.40066 0.89586 0.12406 0.0
C75 C 0.40461 0.92527 0.03908 0.0
O76 O 0.3982 0.87576 0.05728 0.0
O77 O 0.37915 0.89044 0.06764 0.0
O78 O 0.39769 0.8819 0.20768 0.0
C79 C 0.38479 0.87902 0.04465 0.0
O80 O 0.40954 0.91591 0.00407 0.0
C81 C 0.38726 0.89011 0.22657 0.0
O82 O 0.40131 0.9211 0.08716 0.0
O83 O 0.38362 0.90162 0.19903 0.0
C84 C 0.3369 0.1805 0.36325 0.0
O85 O 0.33969 0.17517 0.31642 0.0
Cd86 Cd 0.33769 0.14957 0.28949 0.0
O87 O 0.33297 0.17188 0.40208 0.0
Cd88 Cd 0.329 0.14431 0.41327 0.0
C89 C 0.30062 0.14493 0.32314 0.0
O90 O 0.34971 0.13557 0.35883 0.0
O91 O 0.33252 0.11917 0.37404 0.0
O92 O 0.34175 0.14576 0.49958 0.0
C93 C 0.34541 0.12207 0.35508 0.0
O94 O 0.31068 0.14478 0.28635 0.0
C95 C 0.33251 0.13754 0.52519 0.0
O96 O 0.30411 0.14596 0.37323 0.0
O97 O 0.32092 0.1332 0.49945 0.0
C98 C 0.05182 0.08648 0.6091 0.0
O99 O 0.05361 0.09181 0.5617 0.0
Cd100 Cd 0.07666 0.09877 0.51888 0.0
O101 O 0.0628 0.08466 0.64158 0.0
Cd102 Cd 0.0902 0.08975 0.64021 0.0
C103 C 0.09465 0.06481 0.53611 0.0
O104 O 0.08906 0.11255 0.58773 0.0
O105 O 0.11122 0.10424 0.60364 0.0
O106 O 0.0878 0.09839 0.73299 0.0
C107 C 0.10306 0.11418 0.58175 0.0
O108 O 0.08892 0.07457 0.50448 0.0
C109 C 0.09941 0.09161 0.75013 0.0
O110 O 0.09577 0.06725 0.58705 0.0
O111 O 0.10621 0.08312 0.71666 0.0
C112 C 0.82913 0.78658 0.82908 0.0
O113 O 0.82965 0.78871 0.77809 0.0
Cd114 Cd 0.82552 0.81141 0.73049 0.0
O115 O 0.82641 0.79741 0.86169 0.0
Cd116 Cd 0.82244 0.82515 0.85295 0.0
C117 C 0.79045 0.82077 0.78075 0.0
O118 O 0.84012 0.82861 0.78052 0.0
O119 O 0.82631 0.84787 0.79704 0.0
O120 O 0.84006 0.82829 0.92613 0.0
C121 C 0.83707 0.84216 0.77038 0.0
O122 O 0.79901 0.81692 0.74168 0.0
C123 C 0.83228 0.83752 0.95355 0.0
O124 O 0.79579 0.82366 0.82773 0.0
O125 O 0.81916 0.84039 0.936 0.0
C126 C 0.94418 0.07477 0.5659 0.0
O127 O 0.94227 0.0756 0.51484 0.0
Cd128 Cd 0.91952 0.07964 0.46649 0.0
O129 O 0.93315 0.0761 0.59862 0.0
Cd130 Cd 0.90554 0.07961 0.58916 0.0
C131 C 0.90129 0.04812 0.51294 0.0
O132 O 0.90615 0.09778 0.51682 0.0
O133 O 0.88454 0.08797 0.53286 0.0
O134 O 0.90498 0.09783 0.6619 0.0
C135 C 0.89227 0.09738 0.50627 0.0
O136 O 0.90674 0.05579 0.47402 0.0
C137 C 0.89467 0.09149 0.68902 0.0
O138 O 0.9005 0.05353 0.56096 0.0
O139 O 0.89006 0.07883 0.67177 0.0
C140 C 0.6633 0.19503 0.35364 0.0
O141 O 0.66013 0.1959 0.30348 0.0
Cd142 Cd 0.65906 0.17543 0.24111 0.0
O143 O 0.66501 0.18238 0.37698 0.0
Cd144 Cd 0.66121 0.1556 0.35029 0.0
C145 C 0.69207 0.15663 0.27247 0.0
O146 O 0.64211 0.15831 0.28036 0.0
O147 O 0.65335 0.13694 0.28374 0.0
O148 O 0.64494 0.15321 0.42792 0.0
C149 C 0.64339 0.14509 0.26194 0.0
O150 O 0.68402 0.16413 0.23942 0.0
C151 C 0.65059 0.14105 0.44527 0.0
O152 O 0.68697 0.15267 0.31869 0.0
O153 O 0.66194 0.13594 0.41993 0.0
C154 C 0.5444 0.92115 0.10853 0.0
O155 O 0.54519 0.92336 0.05765 0.0
Cd156 Cd 0.5675 0.9221 0.00404 0.0
O157 O 0.5562 0.9192 0.13693 0.0
Cd158 Cd 0.58372 0.92018 0.11969 0.0
C159 C 0.58433 0.95351 0.05425 0.0
O160 O 0.58206 0.9028 0.04383 0.0
O161 O 0.60383 0.91261 0.05698 0.0
O162 O 0.58437 0.90351 0.19756 0.0
C163 C 0.59577 0.90337 0.03082 0.0
O164 O 0.57977 0.94615 0.01311 0.0
C165 C 0.59659 0.90849 0.21703 0.0
O166 O 0.58514 0.94745 0.10109 0.0
O167 O 0.60258 0.91954 0.19266 0.0
C168 C 0.82436 0.19271 0.13034 0.0
O169 O 0.82756 0.1894 0.17917 0.0
Cd170 Cd 0.83311 0.1657 0.21791 0.0
O171 O 0.82445 0.1827 0.09314 0.0
Cd172 Cd 0.82972 0.15513 0.0909 0.0
C173 C 0.80016 0.14919 0.17462 0.0
O174 O 0.84969 0.15431 0.15629 0.0
O175 O 0.83947 0.13301 0.13855 0.0
O176 O 0.84571 0.15705 0.01203 0.0
C177 C 0.84959 0.14026 0.16355 0.0
O178 O 0.80878 0.15347 0.21297 0.0
C179 C 0.83928 0.14669 0.98518 0.0
O180 O 0.80451 0.14948 0.12521 0.0
O181 O 0.82743 0.14108 0.00562 0.0
C182 C 0.54283 0.09401 0.87335 0.0
O183 O 0.5454 0.09785 0.92225 0.0
Cd184 Cd 0.56899 0.09786 0.96819 0.0
O185 O 0.55346 0.08995 0.84184 0.0
Cd186 Cd 0.58128 0.08846 0.84724 0.0
C187 C 0.58002 0.06128 0.94352 0.0
O188 O 0.58457 0.11015 0.9048 0.0
O189 O 0.60441 0.09697 0.89214 0.0
O190 O 0.58168 0.09921 0.75716 0.0
C191 C 0.59842 0.1084 0.91382 0.0
O192 O 0.57662 0.07153 0.97763 0.0
C193 C 0.59211 0.09085 0.73925 0.0
O194 O 0.58128 0.06419 0.893 0.0
O195 O 0.59687 0.08059 0.77066 0.0
C196 C 0.64199 0.79522 0.6335 0.0
O197 O 0.63869 0.79724 0.68316 0.0
Cd198 Cd 0.64304 0.81961 0.73364 0.0
O199 O 0.64684 0.80597 0.60418 0.0
Cd200 Cd 0.64994 0.83375 0.61613 0.0
C201 C 0.67981 0.82706 0.69637 0.0
O202 O 0.63058 0.83841 0.68342 0.0
O203 O 0.64671 0.85615 0.67313 0.0
O204 O 0.63551 0.8369 0.53344 0.0
C205 C 0.63484 0.85153 0.69595 0.0
O206 O 0.67026 0.82342 0.73261 0.0
C207 C 0.64392 0.84692 0.51308 0.0
O208 O 0.6756 0.83064 0.64858 0.0
O209 O 0.65576 0.85027 0.53928 0.0
C210 C 0.93405 0.90744 0.36188 0.0
O211 O 0.9337 0.90347 0.41137 0.0
Cd212 Cd 0.91186 0.90404 0.46724 0.0
O213 O 0.92202 0.9103 0.33592 0.0
Cd214 Cd 0.89457 0.90744 0.35315 0.0
C215 C 0.89661 0.93849 0.42977 0.0
O216 O 0.89405 0.88868 0.42392 0.0
O217 O 0.87392 0.9019 0.41507 0.0
O218 O 0.89308 0.88925 0.2816 0.0
C219 C 0.88067 0.89123 0.43872 0.0
O220 O 0.9029 0.92993 0.46444 0.0
C221 C 0.88255 0.8955 0.25538 0.0
O222 O 0.89282 0.93356 0.38301 0.0
O223 O 0.878 0.90819 0.27279 0.0
C224 C 0.65382 0.68519 0.62234 0.0
O225 O 0.65101 0.67981 0.66895 0.0
Cd226 Cd 0.65713 0.65544 0.69919 0.0
O227 O 0.65986 0.67704 0.5856 0.0
Cd228 Cd 0.66749 0.6499 0.5778 0.0
C229 C 0.69505 0.6551 0.66836 0.0
O230 O 0.64764 0.63905 0.63147 0.0
O231 O 0.66686 0.62482 0.6205 0.0
O232 O 0.65431 0.64964 0.49235 0.0
C233 C 0.65353 0.62626 0.63767 0.0
O234 O 0.68445 0.65509 0.70314 0.0
C235 C 0.66383 0.64175 0.46676 0.0
O236 O 0.69226 0.65419 0.61763 0.0
O237 O 0.67585 0.63843 0.4918 0.0
C238 C 0.53772 0.3918 0.91175 0.0
O239 O 0.54099 0.39099 0.9619 0.0
Cd240 Cd 0.56463 0.3941 0.00444 0.0
O241 O 0.54779 0.39459 0.87626 0.0
Cd242 Cd 0.57563 0.39838 0.88082 0.0
C243 C 0.5734 0.42956 0.96011 0.0
O244 O 0.58025 0.37922 0.94826 0.0
O245 O 0.59905 0.39347 0.93113 0.0
O246 O 0.57835 0.38411 0.7968 0.0
C247 C 0.59394 0.38215 0.95609 0.0
O248 O 0.57071 0.4208 -0.00022 0.0
C249 C 0.58794 0.39293 0.77592 0.0
O250 O 0.57461 0.42445 0.91188 0.0
O251 O 0.59098 0.40484 0.80222 0.0
C252 C 0.81406 0.30111 0.11682 0.0
O253 O 0.81736 0.30296 0.16661 0.0
Cd254 Cd 0.82869 0.32431 0.2084 0.0
O255 O 0.81593 0.31157 0.08217 0.0
Cd256 Cd 0.82383 0.33833 0.08696 0.0
C257 C 0.79911 0.34801 0.18706 0.0
O258 O 0.84564 0.33284 0.14117 0.0
O259 O 0.84182 0.35624 0.12637 0.0
O260 O 0.83245 0.33391 -0.00474 0.0
C261 C 0.85001 0.34622 0.14755 0.0
O262 O 0.80783 0.34134 0.22011 0.0
C263 C 0.82888 0.3468 0.97752 0.0
O264 O 0.80165 0.34777 0.13601 0.0
O265 O 0.82194 0.35548 0.00996 0.0
C266 C 0.93562 0.57072 0.40333 0.0
O267 O 0.93665 0.56953 0.45455 0.0
Cd268 Cd 0.91633 0.56522 0.51513 0.0
O269 O 0.92304 0.56951 0.37919 0.0
Cd270 Cd 0.89661 0.56425 0.40614 0.0
C271 C 0.90597 0.53102 0.4611 0.0
O272 O 0.89605 0.5804 0.48557 0.0
O273 O 0.87771 0.56471 0.47825 0.0
O274 O 0.89116 0.58263 0.33739 0.0
C275 C 0.88358 0.57568 0.50333 0.0
O276 O 0.91082 0.53894 0.50052 0.0
C277 C 0.87996 0.57591 0.31691 0.0
O278 O 0.90105 0.53719 0.41787 0.0
O279 O 0.87659 0.56317 0.33676 0.0
C280 C 0.6738 0.30042 0.36892 0.0
O281 O 0.67348 0.30126 0.31743 0.0
Cd282 Cd 0.66626 0.32235 0.2639 0.0
O283 O 0.67073 0.31179 0.39848 0.0
Cd284 Cd 0.66482 0.3387 0.38089 0.0
C285 C 0.69494 0.34582 0.30127 0.0
O286 O 0.64624 0.33416 0.31028 0.0
O287 O 0.65289 0.35715 0.32204 0.0
O288 O 0.64913 0.33732 0.46125 0.0
C289 C 0.64463 0.34781 0.29728 0.0
O290 O 0.68772 0.33875 0.26465 0.0
C291 C 0.65302 0.34998 0.48041 0.0
O292 O 0.69007 0.34642 0.35002 0.0
O293 O 0.66319 0.35708 0.45493 0.0
C294 C 0.95278 0.38541 0.58679 0.0
O295 O 0.95307 0.38315 0.5358 0.0
Cd296 Cd 0.93243 0.38506 0.47384 0.0
O297 O 0.94047 0.38792 0.61151 0.0
Cd298 Cd 0.9136 0.38794 0.58549 0.0
C299 C 0.91846 0.41957 0.51186 0.0
O300 O 0.9131 0.36991 0.51055 0.0
O301 O 0.89391 0.38442 0.51978 0.0
O302 O 0.90595 0.37228 0.66126 0.0
C303 C 0.90014 0.37372 0.49444 0.0
O304 O 0.92445 0.41147 0.47497 0.0
C305 C 0.89603 0.3814 0.67839 0.0
O306 O 0.91453 0.41391 0.55719 0.0
O307 O 0.89494 0.3939 0.65397 0.0
C308 C 0.83922 0.67837 0.88504 0.0
O309 O 0.84458 0.67441 0.83945 0.0
Cd310 Cd 0.83898 0.65136 0.79578 0.0
O311 O 0.83171 0.66919 0.91404 0.0
Cd312 Cd 0.82608 0.6416 0.91116 0.0
C313 C 0.80037 0.64978 0.81701 0.0
O314 O 0.84708 0.63278 0.85734 0.0
O315 O 0.82797 0.61802 0.85993 0.0
O316 O 0.83712 0.64082 0.00057 0.0
C317 C 0.84136 0.62023 0.84462 0.0
O318 O 0.81157 0.65127 0.78519 0.0
C319 C 0.82798 0.63135 0.02018 0.0
O320 O 0.80225 0.64683 0.86722 0.0
O321 O 0.8172 0.62717 0.98989 0.0
C322 C 0.56073 0.58345 0.08501 0.0
O323 O 0.5598 0.58553 0.03413 0.0
Cd324 Cd 0.57805 0.57662 0.97153 0.0
O325 O 0.57267 0.5782 0.10621 0.0
Cd326 Cd 0.59883 0.57296 0.07531 0.0
C327 C 0.58559 0.54097 0.02321 0.0
O328 O 0.6008 0.58832 -0.00473 0.0
O329 O 0.61681 0.57019 6e-05 0.0
O330 O 0.60732 0.59347 0.12969 0.0
C331 C 0.61216 0.58178 0.97534 0.0
O332 O 0.5801 0.54964 0.98713 0.0
C333 C 0.61665 0.58623 0.15831 0.0
O334 O 0.59282 0.5463 0.06366 0.0
O335 O 0.61746 0.5721 0.15031 0.0
C336 C 0.33351 0.29269 0.37237 0.0
O337 O 0.33759 0.2979 0.32672 0.0
Cd338 Cd 0.33331 0.32258 0.2941 0.0
O339 O 0.32704 0.30104 0.40748 0.0
Cd340 Cd 0.32085 0.3284 0.41463 0.0
C341 C 0.295 0.32572 0.3168 0.0
O342 O 0.342 0.33824 0.36466 0.0
O343 O 0.32347 0.3534 0.37315 0.0
O344 O 0.33164 0.32762 0.5046 0.0
C345 C 0.33674 0.35122 0.35653 0.0
O346 O 0.30616 0.32575 0.28435 0.0
C347 C 0.32241 0.33675 0.52588 0.0
O348 O 0.2969 0.32522 0.36814 0.0
O349 O 0.31155 0.34112 0.49641 0.0
C350 C 0.45692 0.57681 0.11973 0.0
O351 O 0.4572 0.57573 0.06832 0.0
Cd352 Cd 0.43645 0.57506 0.00729 0.0
O353 O 0.4446 0.57736 0.14582 0.0
Cd354 Cd 0.41774 0.57583 0.11915 0.0
C355 C 0.42041 0.54249 0.053 0.0
O356 O 0.41846 0.59235 0.04056 0.0
O357 O 0.39814 0.57951 0.05215 0.0
O358 O 0.41102 0.59542 0.18202 0.0
C359 C 0.40512 0.58954 0.02581 0.0
O360 O 0.42656 0.54991 0.01485 0.0
C361 C 0.40163 0.58778 0.20909 0.0
O362 O 0.41701 0.5488 0.09798 0.0
O363 O 0.40017 0.57401 0.19625 0.0
C364 C 0.16959 0.69891 0.84087 0.0
O365 O 0.17145 0.6984 0.78976 0.0
Cd366 Cd 0.1692 0.67654 0.73419 0.0
O367 O 0.16706 0.68702 0.8681 0.0
Cd368 Cd 0.16553 0.65968 0.84866 0.0
C369 C 0.19896 0.65656 0.78432 0.0
O370 O 0.14906 0.66252 0.77118 0.0
O371 O 0.1576 0.64017 0.7848 0.0
O372 O 0.14578 0.65876 0.91514 0.0
C373 C 0.14899 0.64876 0.75816 0.0
O374 O 0.19238 0.66301 0.74487 0.0
C375 C 0.15104 0.64795 0.94255 0.0
O376 O 0.19239 0.65495 0.83003 0.0
O377 O 0.16375 0.64282 0.92802 0.0
C378 C 0.05309 0.41681 0.58034 0.0
O379 O 0.05214 0.41748 0.52894 0.0
Cd380 Cd 0.07243 0.42005 0.46666 0.0
O381 O 0.06567 0.41797 0.60458 0.0
Cd382 Cd 0.09223 0.42266 0.57815 0.0
C383 C 0.08422 0.45482 0.51071 0.0
O384 O 0.09191 0.40512 0.50305 0.0
O385 O 0.11214 0.41814 0.5111 0.0
O386 O 0.09657 0.40618 0.65388 0.0
C387 C 0.10498 0.40799 0.48594 0.0
O388 O 0.07893 0.44624 0.47396 0.0
C389 C 0.10798 0.41299 0.67243 0.0
O390 O 0.08895 0.44949 0.55569 0.0
O391 O 0.1119 0.42498 0.64834 0.0
C392 C 0.33671 0.68742 0.63454 0.0
O393 O 0.34157 0.68677 0.68299 0.0
Cd394 Cd 0.34302 0.66419 0.73511 0.0
O395 O 0.33383 0.67552 0.60766 0.0
Cd396 Cd 0.33739 0.64805 0.61937 0.0
C397 C 0.30817 0.64865 0.70596 0.0
O398 O 0.35806 0.64765 0.6834 0.0
O399 O 0.34586 0.62688 0.67315 0.0
O400 O 0.35246 0.64837 0.53877 0.0
C401 C 0.3567 0.63386 0.69504 0.0
O402 O 0.31723 0.65476 0.7395 0.0
C403 C 0.34576 0.63769 0.51468 0.0
O404 O 0.31229 0.64547 0.65764 0.0
O405 O 0.33431 0.63215 0.53825 0.0
C406 C 0.03834 0.59892 0.36858 0.0
O407 O 0.0401 0.6023 0.41833 0.0
Cd408 Cd 0.0631 0.60067 0.46801 0.0
O409 O 0.04952 0.59557 0.33864 0.0
Cd410 Cd 0.07727 0.59567 0.34843 0.0
C411 C 0.07509 0.56523 0.42929 0.0
O412 O 0.08089 0.61467 0.41815 0.0
O413 O 0.09958 0.59986 0.40248 0.0
O414 O 0.08049 0.61219 0.27197 0.0
C415 C 0.09439 0.61108 0.42799 0.0
O416 O 0.07042 0.57415 0.46621 0.0
C417 C 0.08943 0.60372 0.24599 0.0
O418 O 0.07767 0.56991 0.38123 0.0
O419 O 0.09207 0.59085 0.26619 0.0
C420 C 0.15499 0.30644 0.08647 0.0
O421 O 0.14958 0.30843 0.13368 0.0
Cd422 Cd 0.15221 0.33082 0.186 0.0
O423 O 0.16109 0.31719 0.06042 0.0
Cd424 Cd 0.16418 0.34482 0.07126 0.0
C425 C 0.19039 0.33682 0.16487 0.0
O426 O 0.1428 0.34967 0.12869 0.0
O427 O 0.15906 0.36748 0.12541 0.0
O428 O 0.15292 0.34636 0.98256 0.0
C429 C 0.14661 0.36275 0.14343 0.0
O430 O 0.1794 0.33394 0.19643 0.0
C431 C 0.16127 0.35685 0.96509 0.0
O432 O 0.18827 0.3403 0.1152 0.0
O433 O 0.17181 0.36128 -0.00388 0.0
C434 C 0.42936 0.39138 0.91708 0.0
O435 O 0.42859 0.38841 0.96739 0.0
Cd436 Cd 0.40854 0.39576 0.02502 0.0
O437 O 0.41829 0.39714 0.89183 0.0
Cd438 Cd 0.3913 0.40204 0.91347 0.0
C439 C 0.40259 0.43247 0.98096 0.0
O440 O 0.38714 0.38454 0.98665 0.0
O441 O 0.3713 0.40273 0.98205 0.0
O442 O 0.38653 0.38506 0.83975 0.0
C443 C 0.37534 0.39065 0.00487 0.0
O444 O 0.40661 0.42309 0.01723 0.0
C445 C 0.37585 0.39245 0.81869 0.0
O446 O 0.39722 0.42802 0.93565 0.0
O447 O 0.37263 0.40504 0.84025 0.0
H448 H 0.28865 0.13572 0.22634 0.0
H449 H 0.2766 0.15386 0.38338 0.0
H450 H 0.26243 0.13681 0.1982 0.0
H451 H 0.25063 0.15568 0.35467 0.0
H452 H 0.20329 0.14919 0.30904 0.0
H453 H 0.2288 0.14253 0.3342 0.0
H454 H 0.24396 0.1544 0.17281 0.0
H455 H 0.21813 0.16018 0.14696 0.0
C456 C 0.28038 0.13995 0.25482 0.0
C457 C 0.28466 0.14472 0.30706 0.0
C458 C 0.26537 0.14066 0.23859 0.0
C459 C 0.25436 0.14635 0.27403 0.0
C460 C 0.25869 0.15091 0.32657 0.0
C461 C 0.27363 0.14997 0.34304 0.0
C462 C 0.21208 0.15016 0.27879 0.0
C463 C 0.20884 0.15534 0.2263 0.0
C464 C 0.22672 0.14645 0.29327 0.0
C465 C 0.23854 0.14822 0.25598 0.0
C466 C 0.23516 0.15278 0.20254 0.0
C467 C 0.22038 0.15616 0.18768 0.0
H468 H 0.08352 0.97307 0.53804 0.0
H469 H 0.09319 0.97822 0.36691 0.0
H470 H 0.09162 -0.0015 0.55481 0.0
H471 H 0.10174 0.00399 0.38417 0.0
H472 H 0.08758 0.0533 0.43629 0.0
H473 H 0.08876 0.02713 0.40849 0.0
H474 H 0.11187 0.01615 0.55759 0.0
H475 H 0.1102 0.0423 0.58642 0.0
C476 C 0.08758 0.97959 0.50394 0.0
C477 C 0.08746 0.97369 0.45093 0.0
C478 C 0.09246 -0.00583 0.51376 0.0
C479 C 0.09739 0.00331 0.47088 0.0
C480 C 0.09791 -0.00276 0.41801 0.0
C481 C 0.09305 0.98251 0.40813 0.0
C482 C 0.09321 0.04538 0.46269 0.0
C483 C 0.09842 0.04979 0.51427 0.0
C484 C 0.09399 0.03036 0.44648 0.0
C485 C 0.10012 0.0195 0.48134 0.0
C486 C 0.10673 0.02421 0.53044 0.0
C487 C 0.1058 0.03919 0.54693 0.0
H488 H 0.18612 0.83267 0.69134 0.0
H489 H 0.19627 0.85537 0.84246 0.0
H490 H 0.21252 0.83351 0.66634 0.0
H491 H 0.22263 0.85663 0.81658 0.0
H492 H 0.26084 0.84316 0.62249 0.0
H493 H 0.23438 0.84838 0.64182 0.0
H494 H 0.24186 0.83795 0.81114 0.0
H495 H 0.26806 0.83318 0.7924 0.0
C496 C 0.19394 0.83809 0.71883 0.0
C497 C 0.18913 0.84373 0.76934 0.0
C498 C 0.20908 0.83868 0.70423 0.0
C499 C 0.21971 0.84501 0.73967 0.0
C500 C 0.21476 0.8514 0.78883 0.0
C501 C 0.19964 0.85071 0.80362 0.0
C502 C 0.25684 0.8422 0.6639 0.0
C503 C 0.26654 0.83763 0.70576 0.0
C504 C 0.24168 0.84512 0.67493 0.0
C505 C 0.236 0.84357 0.72803 0.0
C506 C 0.24587 0.8395 0.76996 0.0
C507 C 0.26092 0.8366 0.75902 0.0
H508 H 0.41809 0.01969 0.04907 0.0
H509 H 0.39516 0.01522 0.89487 0.0
H510 H 0.41601 0.99291 0.06344 0.0
H511 H 0.39302 0.98805 0.90991 0.0
H512 H 0.41049 0.93838 0.94059 0.0
H513 H 0.41018 0.96515 0.91894 0.0
H514 H 0.39513 0.97509 0.08191 0.0
H515 H 0.39557 0.94848 0.10394 0.0
C516 C 0.41258 0.01301 0.0181 0.0
C517 C 0.40671 0.01965 0.97085 0.0
C518 C 0.41131 -0.00236 0.02664 0.0
C519 C 0.40417 0.98845 0.98819 0.0
C520 C 0.39857 -0.00507 0.94022 0.0
C521 C 0.39977 0.01045 0.9317 0.0
C522 C 0.407 0.94627 0.97169 0.0
C523 C 0.40325 0.9413 0.02426 0.0
C524 C 0.40673 0.96157 0.9591 0.0
C525 C 0.40278 0.97217 -0.0011 0.0
C526 C 0.39845 0.96716 0.0507 0.0
C527 C 0.39867 0.9519 0.06324 0.0
H528 H 0.76832 0.83059 0.85016 0.0
H529 H 0.7756 0.81365 0.68743 0.0
H530 H 0.74152 0.83301 0.8307 0.0
H531 H 0.74897 0.81576 0.66866 0.0
H532 H 0.70342 0.8355 0.63213 0.0
H533 H 0.73005 0.83478 0.65442 0.0
H534 H 0.71947 0.81738 0.81367 0.0
H535 H 0.69283 0.81841 0.79198 0.0
C536 C 0.76422 0.82732 0.81043 0.0
C537 C 0.77412 0.82196 0.77037 0.0
C538 C 0.74887 0.82865 0.79934 0.0
C539 C 0.74314 0.82466 0.748 0.0
C540 C 0.75305 0.81921 0.70824 0.0
C541 C 0.76833 0.8179 0.71923 0.0
C542 C 0.70676 0.83157 0.67196 0.0
C543 C 0.69598 0.82694 0.71012 0.0
C544 C 0.72203 0.8311 0.68467 0.0
C545 C 0.72688 0.82594 0.73573 0.0
C546 C 0.7161 0.82156 0.77421 0.0
C547 C 0.70082 0.82206 0.76157 0.0
H548 H 0.90549 0.9529 0.5222 0.0
H549 H 0.88215 0.96018 0.37045 0.0
H550 H 0.90336 0.97939 0.54365 0.0
H551 H 0.87961 0.98678 0.39291 0.0
H552 H 0.9007 0.03394 0.41485 0.0
H553 H 0.89668 0.00752 0.39686 0.0
H554 H 0.88724 0.0001 0.56701 0.0
H555 H 0.89177 0.0267 0.58555 0.0
C556 C 0.8997 0.96012 0.49369 0.0
C557 C 0.89416 0.95444 0.44421 0.0
C558 C 0.89834 0.97532 0.50634 0.0
C559 C 0.89134 0.98523 0.46999 0.0
C560 C 0.88525 0.97946 0.42145 0.0
C561 C 0.88668 0.96423 0.40861 0.0
C562 C 0.89762 0.02675 0.44852 0.0
C563 C 0.8968 0.03241 0.50186 0.0
C564 C 0.89516 0.01157 0.43801 0.0
C565 C 0.89173 0.00165 0.48051 0.0
C566 C 0.89011 0.00743 0.5335 0.0
C567 C 0.89262 0.02267 0.5441 0.0
H568 H 0.70709 0.16535 0.18132 0.0
H569 H 0.71204 0.13864 0.32679 0.0
H570 H 0.73282 0.15986 0.15631 0.0
H571 H 0.73783 0.13276 0.30074 0.0
H572 H 0.78746 0.14756 0.27525 0.0
H573 H 0.76097 0.14645 0.29704 0.0
H574 H 0.75043 0.14111 0.12664 0.0
H575 H 0.77708 0.14273 0.10443 0.0
C576 C 0.71361 0.15814 0.20771 0.0
C577 C 0.70755 0.15258 0.25642 0.0
C578 C 0.72835 0.15485 0.19298 0.0
C579 C 0.73739 0.14583 0.22642 0.0
C580 C 0.7312 0.13988 0.27438 0.0
C581 C 0.71643 0.14325 0.2893 0.0
C582 C 0.77955 0.14592 0.24235 0.0
C583 C 0.78438 0.14554 0.18794 0.0
C584 C 0.76432 0.14515 0.25498 0.0
C585 C 0.75355 0.1439 0.21353 0.0
C586 C 0.75844 0.14239 0.15941 0.0
C587 C 0.77372 0.14322 0.1467 0.0
H588 H 0.58571 0.05198 0.04743 0.0
H589 H 0.57987 0.03554 0.88347 0.0
H590 H 0.58972 0.02635 0.07911 0.0
H591 H 0.58315 0.00998 0.91518 0.0
H592 H 0.5992 0.96608 0.97029 0.0
H593 H 0.60057 0.9926 0.94732 0.0
H594 H 0.57689 0.00358 0.09572 0.0
H595 H 0.57641 0.97696 0.11992 0.0
C596 C 0.5852 0.04287 0.01821 0.0
C597 C 0.58248 0.04577 0.96292 0.0
C598 C 0.58746 0.02817 0.03641 0.0
C599 C 0.58686 0.01603 -0.00021 0.0
C600 C 0.5841 0.01901 0.94449 0.0
C601 C 0.58207 0.03369 0.92624 0.0
C602 C 0.59464 0.97424 -0.00146 0.0
C603 C 0.58763 0.96955 0.04665 0.0
C604 C 0.59525 0.98942 0.98515 0.0
C605 C 0.58848 0.00025 0.01887 0.0
C606 C 0.58228 -0.0044 0.06881 0.0
C607 C 0.58198 0.98036 0.08278 0.0
H608 H 0.7047 0.66318 0.76924 0.0
H609 H 0.72079 0.64846 0.61222 0.0
H610 H 0.73019 0.66286 0.80419 0.0
H611 H 0.74635 0.64765 0.64782 0.0
H612 H 0.79216 0.66018 0.71686 0.0
H613 H 0.76691 0.66259 0.68005 0.0
H614 H 0.74864 0.64486 0.82952 0.0
H615 H 0.77383 0.64293 0.86696 0.0
C616 C 0.71369 0.65984 0.74216 0.0
C617 C 0.71072 0.65576 0.68801 0.0
C618 C 0.72831 0.65957 0.76234 0.0
C619 C 0.74031 0.65506 0.72905 0.0
C620 C 0.73739 0.65131 0.67446 0.0
C621 C 0.72274 0.65173 0.65407 0.0
C622 C 0.78275 0.65684 0.74194 0.0
C623 C 0.78501 0.65138 0.79491 0.0
C624 C 0.76827 0.65814 0.72068 0.0
C625 C 0.75573 0.65392 0.75176 0.0
C626 C 0.75801 0.64847 0.80475 0.0
C627 C 0.77248 0.64727 0.82617 0.0
H628 H 0.57179 0.44434 0.05764 0.0
H629 H 0.57947 0.45165 0.88618 0.0
H630 H 0.57481 0.47117 0.07452 0.0
H631 H 0.58274 0.47839 0.90336 0.0
H632 H 0.56999 0.52644 0.94368 0.0
H633 H 0.56716 0.49961 0.93007 0.0
H634 H 0.59397 0.4912 0.07306 0.0
H635 H 0.59666 0.51827 0.08747 0.0
C636 C 0.57416 0.45165 0.02355 0.0
C637 C 0.57531 0.44584 0.97046 0.0
C638 C 0.576 0.46701 0.03335 0.0
C639 C 0.57897 0.4769 0.99029 0.0
C640 C 0.58023 0.47108 0.93731 0.0
C641 C 0.57842 0.45573 0.9275 0.0
C642 C 0.57529 0.51893 0.97243 0.0
C643 C 0.58362 0.52454 0.01662 0.0
C644 C 0.57373 0.50352 0.96434 0.0
C645 C 0.58045 0.49328 0.00016 0.0
C646 C 0.58859 0.49883 0.04493 0.0
C647 C 0.59017 0.51433 0.05306 0.0
H648 H 0.71623 0.35858 0.36832 0.0
H649 H 0.70692 0.34799 0.20012 0.0
H650 H 0.74185 0.36563 0.34343 0.0
H651 H 0.73233 0.35426 0.17592 0.0
H652 H 0.77794 0.36454 0.13239 0.0
H653 H 0.75263 0.37048 0.16353 0.0
H654 H 0.76288 0.35105 0.32014 0.0
H655 H 0.78818 0.34593 0.29019 0.0
C656 C 0.71956 0.35795 0.32605 0.0
C657 C 0.70964 0.35238 0.28647 0.0
C658 C 0.73426 0.36193 0.31176 0.0
C659 C 0.73929 0.36032 0.25774 0.0
C660 C 0.72894 0.35584 0.2178 0.0
C661 C 0.71432 0.352 0.23193 0.0
C662 C 0.77487 0.36191 0.17389 0.0
C663 C 0.78494 0.3544 0.20828 0.0
C664 C 0.76034 0.36525 0.19174 0.0
C665 C 0.75554 0.36089 0.24394 0.0
C666 C 0.7661 0.35466 0.2798 0.0
C667 C 0.78065 0.35155 0.26229 0.0
H668 H 0.92616 0.43612 0.4221 0.0
H669 H 0.90426 0.4395 0.57854 0.0
H670 H 0.92195 0.46293 0.40728 0.0
H671 H 0.89984 0.46607 0.56313 0.0
H672 H 0.89986 0.50956 0.38334 0.0
H673 H 0.90191 0.48223 0.39323 0.0
H674 H 0.91596 0.4881 0.55996 0.0
H675 H 0.91371 0.51504 0.55071 0.0
C676 C 0.92039 0.44254 0.45316 0.0
C677 C 0.91571 0.43571 0.50179 0.0
C678 C 0.91787 0.45785 0.44442 0.0
C679 C 0.91064 0.46659 0.48417 0.0
C680 C 0.90566 0.45967 0.53212 0.0
C681 C 0.90818 0.44442 0.54089 0.0
C682 C 0.90328 0.50497 0.42214 0.0
C683 C 0.9066 0.51449 0.4662 0.0
C684 C 0.90454 0.48936 0.42768 0.0
C685 C 0.90903 0.48305 0.47745 0.0
C686 C 0.91224 0.49259 0.52137 0.0
C687 C 0.91103 0.50808 0.51586 0.0
H688 H 0.26854 0.31727 0.36414 0.0
H689 H 0.28696 0.33699 0.21844 0.0
H690 H 0.24334 0.31956 0.32647 0.0
H691 H 0.26184 0.3401 0.18197 0.0
H692 H 0.21613 0.33119 0.10822 0.0
H693 H 0.24131 0.32773 0.14464 0.0
H694 H 0.22461 0.33693 0.30647 0.0
H695 H 0.19937 0.33953 0.27015 0.0
C696 C 0.26717 0.32219 0.32422 0.0
C697 C 0.2797 0.3269 0.29417 0.0
C698 C 0.25272 0.32363 0.3027 0.0
C699 C 0.25047 0.33008 0.2511 0.0
C700 C 0.26308 0.3348 0.22127 0.0
C701 C 0.27752 0.3331 0.24234 0.0
C702 C 0.2179 0.33251 0.15153 0.0
C703 C 0.20581 0.3356 0.18635 0.0
C704 C 0.23234 0.33059 0.1725 0.0
C705 C 0.23507 0.33201 0.22867 0.0
C706 C 0.22294 0.3354 0.26323 0.0
C707 C 0.20847 0.33702 0.24237 0.0
H708 H 0.40765 0.5223 0.12364 0.0
H709 H 0.4257 0.52624 0.96109 0.0
H710 H 0.40222 0.49577 0.1066 0.0
H711 H 0.4205 0.49988 0.9447 0.0
H712 H 0.396 0.45607 0.91373 0.0
H713 H 0.39923 0.48279 0.93259 0.0
H714 H 0.41633 0.47228 0.09232 0.0
H715 H 0.4129 0.44565 0.07406 0.0
C716 C 0.41048 0.51753 0.08443 0.0
C717 C 0.41712 0.5264 0.04381 0.0
C718 C 0.40741 0.50235 0.07473 0.0
C719 C 0.41088 0.49578 0.02421 0.0
C720 C 0.41747 0.50467 0.9837 0.0
C721 C 0.42056 0.51977 -0.00664 0.0
C722 C 0.4004 0.45946 0.95292 0.0
C723 C 0.40427 0.44871 -0.00778 0.0
C724 C 0.40229 0.47476 0.96366 0.0
C725 C 0.40806 0.47962 0.01392 0.0
C726 C 0.41169 0.46889 0.05349 0.0
C727 C 0.40983 0.45362 0.04276 0.0
H728 H 0.29438 0.65824 0.79895 0.0
H729 H 0.28637 0.63306 0.65133 0.0
H730 H 0.26788 0.65666 0.8215 0.0
H731 H 0.25987 0.63105 0.67493 0.0
H732 H 0.2139 0.65442 0.68855 0.0
H733 H 0.24021 0.64926 0.67407 0.0
H734 H 0.2461 0.64177 0.84627 0.0
H735 H 0.21949 0.64741 0.86118 0.0
C736 C 0.28702 0.6521 0.77179 0.0
C737 C 0.29244 0.64602 0.72278 0.0
C738 C 0.27182 0.65108 0.78504 0.0
C739 C 0.26172 0.64386 0.74977 0.0
C740 C 0.26732 0.63695 0.70245 0.0
C741 C 0.28251 0.63808 0.68895 0.0
C742 C 0.22072 0.65155 0.72348 0.0
C743 C 0.21463 0.65155 0.77619 0.0
C744 C 0.23583 0.6484 0.71501 0.0
C745 C 0.2453 0.64511 0.75899 0.0
C746 C 0.23911 0.64443 0.8116 0.0
C747 C 0.22388 0.64758 0.82013 0.0
H748 H 0.09248 0.47775 0.58 0.0
H749 H 0.07613 0.46898 0.41747 0.0
H750 H 0.09165 0.50477 0.56155 0.0
H751 H 0.07503 0.49565 0.39985 0.0
H752 H 0.08723 0.54345 0.36436 0.0
H753 H 0.09117 0.51709 0.38613 0.0
H754 H 0.07262 0.52439 0.54626 0.0
H755 H 0.06898 0.55087 0.52506 0.0
C756 C 0.08876 0.48155 0.54044 0.0
C757 C 0.08436 0.47119 0.50031 0.0
C758 C 0.08822 0.497 0.52998 0.0
C759 C 0.08333 0.50233 0.47915 0.0
C760 C 0.0791 0.49194 0.43906 0.0
C761 C 0.07963 0.47659 0.44944 0.0
C762 C 0.08402 0.53946 0.40427 0.0
C763 C 0.07767 0.54925 0.44276 0.0
C764 C 0.08626 0.52435 0.41672 0.0
C765 C 0.08213 0.51865 0.46784 0.0
C766 C 0.07607 0.52848 0.50676 0.0
C767 C 0.07387 0.54363 0.49437 0.0
H768 H 0.15714 0.11723 0.02362 0.0
H769 H 0.12678 0.15369 0.98731 0.0
H770 H 0.14408 0.10133 0.95784 0.0
H771 H 0.1141 0.13807 0.92059 0.0
H772 H 0.08561 0.10551 0.83518 0.0
H773 H 0.09777 0.11691 0.91374 0.0
H774 H 0.14037 0.0986 0.86175 0.0
H775 H 0.12807 0.08671 0.78448 0.0
C776 C 0.14778 0.12189 0.00115 0.0
C777 C 0.14297 0.1367 0.01053 0.0
C778 C 0.1403 0.11278 0.96355 0.0
C779 C 0.12792 0.11835 0.93445 0.0
C780 C 0.12332 0.13327 0.94334 0.0
C781 C 0.13071 0.1423 0.98111 0.0
C782 C 0.0975 0.10361 0.84138 0.0
C783 C 0.10594 0.0954 0.80342 0.0
C784 C 0.1045 0.11026 0.88605 0.0
C785 C 0.12011 0.10901 0.89318 0.0
C786 C 0.12833 0.09979 0.85753 0.0
C787 C 0.12128 0.09297 0.81317 0.0
H788 H 0.11343 0.84671 0.04053 0.0
H789 H 0.15285 0.87502 0.04416 0.0
H790 H 0.10301 0.86039 0.11675 0.0
H791 H 0.14261 0.88847 0.12256 0.0
H792 H 0.09145 0.87999 0.27776 0.0
H793 H 0.10492 0.86532 0.21034 0.0
H794 H 0.12287 0.90616 0.14111 0.0
H795 H 0.10984 0.92084 0.21064 0.0
C796 C 0.12004 0.85566 0.05844 0.0
C797 C 0.13394 0.85983 0.03615 0.0
C798 C 0.11408 0.86349 0.10246 0.0
C799 C 0.12193 0.87559 0.12577 0.0
C800 C 0.13616 0.87936 0.10497 0.0
C801 C 0.1421 0.87157 0.06046 0.0
C802 C 0.09828 0.88585 0.24816 0.0
C803 C 0.09947 0.90157 0.24901 0.0
C804 C 0.10599 0.87743 0.20941 0.0
C805 C 0.11489 0.88454 0.16993 0.0
C806 C 0.11627 0.9003 0.17132 0.0
C807 C 0.1087 0.90873 0.21075 0.0
H808 H 0.35955 0.89982 0.25862 0.0
H809 H 0.39544 0.86962 0.30284 0.0
H810 H 0.34372 0.88896 0.32925 0.0
H811 H 0.37991 0.85919 0.3748 0.0
H812 H 0.34407 0.83063 0.44946 0.0
H813 H 0.35883 0.843 0.37955 0.0
H814 H 0.33925 0.8857 0.4243 0.0
H815 H 0.32399 0.87314 0.49302 0.0
C816 C 0.36418 0.89111 0.28432 0.0
C817 C 0.37868 0.88547 0.27498 0.0
C818 C 0.3551 0.88488 0.32482 0.0
C819 C 0.36043 0.873 0.35706 0.0
C820 C 0.37527 0.86801 0.34964 0.0
C821 C 0.38425 0.8741 0.30881 0.0
C822 C 0.34278 0.84263 0.44389 0.0
C823 C 0.33292 0.85093 0.47676 0.0
C824 C 0.35137 0.84977 0.40424 0.0
C825 C 0.35048 0.86541 0.39701 0.0
C826 C 0.34019 0.87364 0.42862 0.0
C827 C 0.33144 0.86645 0.46797 0.0
H828 H 0.37532 0.11394 0.8306 0.0
H829 H 0.36363 0.0723 0.75055 0.0
H830 H 0.36075 0.12787 0.76428 0.0
H831 H 0.34935 0.08637 0.68264 0.0
H832 H 0.31841 0.11514 0.58177 0.0
H833 H 0.32771 0.10249 0.66325 0.0
H834 H 0.36484 0.1337 0.67058 0.0
H835 H 0.35543 0.14643 0.59053 0.0
C836 C 0.36962 0.10775 0.79873 0.0
C837 C 0.3708 0.09204 0.7952 0.0
C838 C 0.36127 0.11575 0.7607 0.0
C839 C 0.35404 0.10826 0.71781 0.0
C840 C 0.35469 0.09247 0.71551 0.0
C841 C 0.36296 0.08442 0.75406 0.0
C842 C 0.32834 0.1195 0.6017 0.0
C843 C 0.33625 0.13172 0.57963 0.0
C844 C 0.33374 0.11217 0.64798 0.0
C845 C 0.34708 0.11699 0.67308 0.0
C846 C 0.35445 0.12976 0.65267 0.0
C847 C 0.34909 0.13704 0.60655 0.0
H848 H 0.81865 0.85744 0.02338 0.0
H849 H 0.86108 0.83597 0.98855 0.0
H850 H 0.83058 0.87181 0.09654 0.0
H851 H 0.87302 0.85063 0.05924 0.0
H852 H 0.88731 0.86674 0.22369 0.0
H853 H 0.87431 0.85262 0.15407 0.0
H854 H 0.84826 0.89196 0.113 0.0
H855 H 0.86097 0.90605 0.1852 0.0
C856 C 0.83048 0.85574 0.0315 0.0
C857 C 0.83889 0.84548 0.00054 0.0
C858 C 0.83735 0.86409 0.07294 0.0
C859 C 0.85277 0.86238 0.08387 0.0
C860 C 0.86108 0.85205 0.05283 0.0
C861 C 0.85422 0.84364 0.01204 0.0
C862 C 0.87889 0.87246 0.19966 0.0
C863 C 0.87525 0.88757 0.2097 0.0
C864 C 0.87144 0.86434 0.15949 0.0
C865 C 0.86029 0.87115 0.12757 0.0
C866 C 0.85667 0.88632 0.13729 0.0
C867 C 0.86405 0.89444 0.17818 0.0
H868 H 0.8279 0.12556 0.91524 0.0
H869 H 0.86732 0.15244 0.94719 0.0
H870 H 0.84139 0.11231 0.84331 0.0
H871 H 0.88099 0.1388 0.87778 0.0
H872 H 0.89803 0.12075 0.7179 0.0
H873 H 0.88388 0.13477 0.78506 0.0
H874 H 0.86057 0.09414 0.83157 0.0
H875 H 0.8743 0.08023 0.76187 0.0
C876 C 0.83939 0.12872 0.90656 0.0
C877 C 0.84652 0.14008 0.93672 0.0
C878 C 0.8472 0.12099 0.86587 0.0
C879 C 0.86236 0.12434 0.85499 0.0
C880 C 0.86929 0.13601 0.88431 0.0
C881 C 0.86144 0.14385 0.92432 0.0
C882 C 0.88999 0.11476 0.7428 0.0
C883 C 0.88731 0.09937 0.73469 0.0
C884 C 0.88187 0.12281 0.78151 0.0
C885 C 0.87101 0.11564 0.81382 0.0
C886 C 0.86861 0.10012 0.80668 0.0
C887 C 0.87661 0.09209 0.76725 0.0
H888 H 0.58152 0.10791 0.6562 0.0
H889 H 0.62026 0.08248 0.70767 0.0
H890 H 0.59608 0.11863 0.58208 0.0
H891 H 0.63504 0.09365 0.63471 0.0
H892 H 0.65464 0.11159 0.47338 0.0
H893 H 0.63987 0.09709 0.53867 0.0
H894 H 0.61541 0.13729 0.58224 0.0
H895 H 0.62977 0.15154 0.51623 0.0
C896 C 0.59309 0.10444 0.65109 0.0
C897 C 0.59981 0.09452 0.68799 0.0
C898 C 0.60149 0.11069 0.60902 0.0
C899 C 0.61684 0.10733 0.60349 0.0
C900 C 0.62325 0.0965 0.63789 0.0
C901 C 0.61478 0.09009 0.67967 0.0
C902 C 0.64621 0.11731 0.49743 0.0
C903 C 0.64329 0.13267 0.48959 0.0
C904 C 0.63773 0.10901 0.53467 0.0
C905 C 0.62625 0.11597 0.56483 0.0
C906 C 0.62383 0.13147 0.55844 0.0
C907 C 0.63219 0.1397 0.52108 0.0
H908 H 0.62332 0.8385 0.43737 0.0
H909 H 0.65345 0.87463 0.48031 0.0
H910 H 0.61271 0.85382 0.36522 0.0
H911 H 0.64237 0.8903 0.40969 0.0
H912 H 0.62605 0.91022 0.24753 0.0
H913 H 0.63882 0.89496 0.31566 0.0
H914 H 0.59643 0.87452 0.35885 0.0
H915 H 0.5839 0.88924 0.28929 0.0
C916 C 0.62773 0.84971 0.43108 0.0
C917 C 0.63916 0.85539 0.46456 0.0
C918 C 0.62154 0.85857 0.39014 0.0
C919 C 0.62643 0.87345 0.38232 0.0
C920 C 0.63835 0.87889 0.41431 0.0
C921 C 0.64472 0.86991 0.45482 0.0
C922 C 0.61947 0.90256 0.27206 0.0
C923 C 0.604 0.90085 0.26296 0.0
C924 C 0.62678 0.89381 0.31113 0.0
C925 C 0.61872 0.8833 0.34225 0.0
C926 C 0.6031 0.88214 0.33457 0.0
C927 C 0.59586 0.89071 0.29512 0.0
H928 H 0.64065 0.64959 0.40133 0.0
H929 H 0.67794 0.61875 0.41281 0.0
H930 H 0.63126 0.63607 0.32282 0.0
H931 H 0.66864 0.60525 0.33273 0.0
H932 H 0.63302 0.57459 0.24326 0.0
H933 H 0.64693 0.58881 0.31235 0.0
H934 H 0.63605 0.63014 0.22946 0.0
H935 H 0.62189 0.61612 0.16219 0.0
C936 C 0.64704 0.64011 0.38626 0.0
C937 C 0.66001 0.63522 0.41333 0.0
C938 C 0.64169 0.63236 0.34103 0.0
C939 C 0.64917 0.61953 0.32161 0.0
C940 C 0.66254 0.615 0.34717 0.0
C941 C 0.66795 0.62282 0.39257 0.0
C942 C 0.63373 0.5867 0.23983 0.0
C943 C 0.62614 0.59427 0.19803 0.0
C944 C 0.64177 0.59484 0.27904 0.0
C945 C 0.64244 0.61063 0.27668 0.0
C946 C 0.63548 0.61803 0.23315 0.0
C947 C 0.62737 0.60997 0.19456 0.0
H948 H 0.61442 0.40473 0.74062 0.0
H949 H 0.58123 0.37093 0.70254 0.0
H950 H 0.63086 0.39463 0.67056 0.0
H951 H 0.59733 0.36124 0.63059 0.0
H952 H 0.63536 0.33567 0.55422 0.0
H953 H 0.61951 0.34702 0.62352 0.0
H954 H 0.63556 0.39104 0.57726 0.0
H955 H 0.65195 0.37954 0.50967 0.0
C956 C 0.61048 0.39537 0.71626 0.0
C957 C 0.59658 0.38855 0.72724 0.0
C958 C 0.61991 0.38957 0.67601 0.0
C959 C 0.61556 0.37694 0.64539 0.0
C960 C 0.60125 0.37069 0.65443 0.0
C961 C 0.59193 0.37636 0.6952 0.0
C962 C 0.63565 0.34775 0.55945 0.0
C963 C 0.64489 0.35672 0.52663 0.0
C964 C 0.62641 0.3543 0.59869 0.0
C965 C 0.62601 0.37 0.60542 0.0
C966 C 0.63563 0.37892 0.57356 0.0
C967 C 0.64504 0.37233 0.53481 0.0
H968 H 0.87033 0.39587 0.70825 0.0
H969 H 0.89765 0.35714 0.74535 0.0
H970 H 0.85158 0.3875 0.77376 0.0
H971 H 0.87924 0.34905 0.81215 0.0
H972 H 0.8396 0.32991 0.89383 0.0
H973 H 0.85457 0.33872 0.81749 0.0
H974 H 0.84748 0.38463 0.86913 0.0
H975 H 0.83201 0.3758 0.94413 0.0
C976 C 0.87242 0.38568 0.73098 0.0
C977 C 0.88544 0.37714 0.72172 0.0
C978 C 0.86167 0.38088 0.76847 0.0
C979 C 0.8638 0.36751 0.7977 0.0
C980 C 0.87703 0.3592 0.78927 0.0
C981 C 0.88769 0.36392 0.75149 0.0
C982 C 0.84093 0.34189 0.88798 0.0
C983 C 0.83479 0.35216 0.92515 0.0
C984 C 0.84965 0.34694 0.84465 0.0
C985 C 0.85256 0.36236 0.83808 0.0
C986 C 0.84546 0.37268 0.87295 0.0
C987 C 0.83657 0.36762 0.91594 0.0
H988 H 0.85111 0.56945 0.28538 0.0
H989 H 0.88852 0.59892 0.25222 0.0
H990 H 0.83572 0.58346 0.22037 0.0
H991 H 0.87354 0.61243 0.18633 0.0
H992 H 0.84283 0.64329 0.10623 0.0
H993 H 0.85349 0.62966 0.18266 0.0
H994 H 0.8324 0.58882 0.12557 0.0
H995 H 0.82109 0.60274 0.05063 0.0
C996 C 0.85609 0.57878 0.26364 0.0
C997 C 0.87097 0.58316 0.27401 0.0
C998 C 0.84728 0.58681 0.22651 0.0
C999 C 0.85328 0.59928 0.19887 0.0
C1000 C 0.86835 0.60324 0.20814 0.0
C1001 C 0.87703 0.59537 0.24549 0.0
C1002 C 0.84014 0.63149 0.11099 0.0
C1003 C 0.83127 0.62402 0.07241 0.0
C1004 C 0.84639 0.62362 0.15435 0.0
C1005 C 0.8442 0.60803 0.1593 0.0
C1006 C 0.83434 0.6008 0.12303 0.0
C1007 C 0.82783 0.60877 0.0801 0.0
H1008 H 0.33882 0.32516 0.60878 0.0
H1009 H 0.31452 0.36482 0.55962 0.0
H1010 H 0.35015 0.33917 0.68327 0.0
H1011 H 0.32644 0.37911 0.63248 0.0
H1012 H 0.34673 0.39858 0.79069 0.0
H1013 H 0.33108 0.38445 0.72663 0.0
H1014 H 0.36951 0.35734 0.68279 0.0
H1015 H 0.3848 0.37097 0.74788 0.0
C1016 C 0.33569 0.33681 0.61466 0.0
C1017 C 0.32592 0.34395 0.57828 0.0
C1018 C 0.34233 0.34491 0.65682 0.0
C1019 C 0.3396 0.36041 0.66271 0.0
C1020 C 0.32883 0.36723 0.62907 0.0
C1021 C 0.32196 0.35902 0.58738 0.0
C1022 C 0.3518 0.38971 0.76674 0.0
C1023 C 0.36693 0.38579 0.77435 0.0
C1024 C 0.34285 0.38158 0.73025 0.0
C1025 C 0.34894 0.36951 0.70051 0.0
C1026 C 0.36429 0.36619 0.7064 0.0
C1027 C 0.37313 0.37414 0.74317 0.0
H1028 H 0.37082 0.64674 0.46154 0.0
H1029 H 0.33524 0.61376 0.45509 0.0
H1030 H 0.38333 0.63446 0.38646 0.0
H1031 H 0.34759 0.60166 0.37764 0.0
H1032 H 0.39741 0.6176 0.22447 0.0
H1033 H 0.38204 0.62993 0.29251 0.0
H1034 H 0.36961 0.58669 0.35839 0.0
H1035 H 0.38459 0.57426 0.28805 0.0
C1036 C 0.36549 0.63701 0.44331 0.0
C1037 C 0.35204 0.63121 0.46431 0.0
C1038 C 0.37266 0.62999 0.39992 0.0
C1039 C 0.36648 0.61706 0.37587 0.0
C1040 C 0.35275 0.61149 0.39574 0.0
C1041 C 0.3456 0.6185 0.43968 0.0
C1042 C 0.39142 0.6107 0.25348 0.0
C1043 C 0.39235 0.59497 0.25143 0.0
C1044 C 0.38261 0.61778 0.29261 0.0
C1045 C 0.37471 0.60932 0.33137 0.0
C1046 C 0.37543 0.59354 0.3288 0.0
C1047 C 0.38412 0.58642 0.28893 0.0
H1048 H 0.12194 0.65361 0.96723 0.0
H1049 H 0.15991 0.62676 0.01691 0.0
H1050 H 0.10659 0.64193 0.03653 0.0
H1051 H 0.1446 0.61541 0.08849 0.0
H1052 H 0.10893 0.58837 0.1798 0.0
H1053 H 0.12383 0.59861 0.10505 0.0
H1054 H 0.10365 0.64217 0.13147 0.0
H1055 H 0.08846 0.63187 0.20401 0.0
C1056 C 0.12708 0.64533 -0.00647 0.0
C1057 C 0.14218 0.64119 0.9869 0.0
C1058 C 0.11826 0.63865 0.03346 0.0
C1059 C 0.12436 0.62779 0.06841 0.0
C1060 C 0.1395 0.62361 0.06182 0.0
C1061 C 0.14831 0.6302 0.02123 0.0
C1062 C 0.10755 0.60007 0.16894 0.0
C1063 C 0.09746 0.60929 0.19756 0.0
C1064 C 0.1162 0.60598 0.12657 0.0
C1065 C 0.11498 0.62123 0.11229 0.0
C1066 C 0.10471 0.63033 0.14061 0.0
C1067 C 0.09601 0.62442 0.18244 0.0
H1068 H 0.09893 0.39141 0.74259 0.0
H1069 H 0.13695 0.41941 0.70252 0.0
H1070 H 0.11398 0.3781 0.80897 0.0
H1071 H 0.15231 0.40568 0.76847 0.0
H1072 H 0.16775 0.38586 0.93761 0.0
H1073 H 0.15584 0.40044 0.86538 0.0
H1074 H 0.13406 0.36018 0.80657 0.0
H1075 H 0.14548 0.34583 0.8797 0.0
C1076 C 0.11053 0.39475 0.74813 0.0
C1077 C 0.11679 0.40638 0.71715 0.0
C1078 C 0.11922 0.387 0.78578 0.0
C1079 C 0.13447 0.39056 0.79301 0.0
C1080 C 0.14061 0.40264 0.76368 0.0
C1081 C 0.13182 0.41051 0.72608 0.0
C1082 C 0.16071 0.3801 0.90835 0.0
C1083 C 0.15736 0.36477 0.91455 0.0
C1084 C 0.15387 0.38845 0.86706 0.0
C1085 C 0.14368 0.38154 0.83118 0.0
C1086 C 0.14146 0.36593 0.83468 0.0
C1087 C 0.14812 0.35767 0.87618 0.0
H1088 H 0.17798 0.29347 0.03073 0.0
H1089 H 0.13395 0.28462 0.09663 0.0
H1090 H 0.18206 0.26642 0.01923 0.0
H1091 H 0.13784 0.25772 0.08355 0.0
H1092 H 0.14811 0.20953 0.05124 0.0
H1093 H 0.14537 0.23503 0.01468 0.0
H1094 H 0.18323 0.2496 0.11078 0.0
H1095 H 0.18561 0.2244 0.14857 0.0
C1096 C 0.16894 0.28578 0.04043 0.0
C1097 C 0.15573 0.29102 0.06516 0.0
C1098 C 0.17128 0.27036 0.03385 0.0
C1099 C 0.16026 0.26007 0.05059 0.0
C1100 C 0.14643 0.26545 0.06981 0.0
C1101 C 0.14425 0.2808 0.07766 0.0
C1102 C 0.15612 0.21811 0.06305 0.0
C1103 C 0.16697 0.21516 0.10301 0.0
C1104 C 0.15455 0.23263 0.04216 0.0
C1105 C 0.16412 0.24418 0.05987 0.0
C1106 C 0.17584 0.24082 0.09597 0.0
C1107 C 0.17714 0.22647 0.11791 0.0
H1108 H 0.95865 0.8898 0.37003 0.0
H1109 H 0.94263 0.93107 0.29901 0.0
H1110 H 0.98438 0.8967 0.34707 0.0
H1111 H 0.96858 0.93827 0.2776 0.0
H1112 H 0.01366 0.94876 0.38864 0.0
H1113 H 0.98801 0.94337 0.35984 0.0
H1114 H 0.00374 0.90502 0.26862 0.0
H1115 H 0.02958 0.9107 0.29616 0.0
C1116 C 0.96064 0.90013 0.34799 0.0
C1117 C 0.94877 0.90996 0.33649 0.0
C1118 C 0.97533 0.90404 0.3345 0.0
C1119 C 0.97841 0.91801 0.31059 0.0
C1120 C 0.96643 0.9274 0.29569 0.0
C1121 C 0.95165 0.92328 0.30788 0.0
C1122 C 0.0117 0.93955 0.36062 0.0
C1123 C 0.0235 0.93005 0.34499 0.0
C1124 C -0.00295 0.93653 0.34385 0.0
C1125 C -0.00605 0.92375 0.31226 0.0
C1126 C 0.00591 0.91497 0.29281 0.0
C1127 C 0.02065 0.91823 0.30851 0.0
H1128 H 0.29375 0.76766 0.65329 0.0
H1129 H 0.33094 0.78238 0.55437 0.0
H1130 H 0.29955 0.74154 0.63103 0.0
H1131 H 0.3371 0.75613 0.53374 0.0
H1132 H 0.35301 0.71292 0.64655 0.0
H1133 H 0.34548 0.73836 0.62156 0.0
H1134 H 0.3051 0.72093 0.54781 0.0
H1135 H 0.31294 0.69528 0.57105 0.0
C1136 C 0.30283 0.76529 0.62521 0.0
C1137 C 0.31195 0.77693 0.60565 0.0
C1138 C 0.3061 0.75039 0.6123 0.0
C1139 C 0.31878 0.74692 0.58085 0.0
C1140 C 0.32721 0.7586 0.55776 0.0
C1141 C 0.32367 0.77357 0.56947 0.0
C1142 C 0.34277 0.71449 0.62352 0.0
C1143 C 0.33349 0.70224 0.61095 0.0
C1144 C 0.33853 0.729 0.60883 0.0
C1145 C 0.32477 0.7315 0.5826 0.0
C1146 C 0.31583 0.71919 0.56754 0.0
C1147 C 0.3203 0.70459 0.58088 0.0
H1148 H 0.45991 0.05565 0.87926 0.0
H1149 H 0.44616 0.10146 0.85242 0.0
H1150 H 0.48523 0.06177 0.84869 0.0
H1151 H 0.47166 0.10776 0.82229 0.0
H1152 H 0.51982 0.11135 0.90875 0.0
H1153 H 0.49323 0.10788 0.89043 0.0
H1154 H 0.50366 0.07211 0.77772 0.0
H1155 H 0.5305 0.07574 0.7957 0.0
C1156 C 0.46222 0.06688 0.86452 0.0
C1157 C 0.45126 0.07811 0.8679 0.0
C1158 C 0.47667 0.07039 0.84682 0.0
C1159 C 0.48041 0.08527 0.83348 0.0
C1160 C 0.46903 0.09622 0.83242 0.0
C1161 C 0.45449 0.09263 0.8494 0.0
C1162 C 0.51647 0.10299 0.87904 0.0
C1163 C 0.52716 0.09364 0.85432 0.0
C1164 C 0.50125 0.10113 0.86804 0.0
C1165 C 0.4964 0.0897 0.83271 0.0
C1166 C 0.50714 0.081 0.8051 0.0
C1167 C 0.52245 0.08306 0.81542 0.0
H1168 H 0.12704 0.7786 0.83702 0.0
H1169 H 0.16704 0.79472 0.91735 0.0
H1170 H 0.13454 0.75272 0.85583 0.0
H1171 H 0.17482 0.76871 0.93436 0.0
H1172 H 0.18638 0.72365 0.82008 0.0
H1173 H 0.18025 0.7495 0.8453 0.0
H1174 H 0.14302 0.73359 0.94148 0.0
H1175 H 0.1495 0.7076 0.91791 0.0
C1176 C 0.13725 0.77658 0.85979 0.0
C1177 C 0.14652 0.78857 0.87552 0.0
C1178 C 0.14148 0.76183 0.87088 0.0
C1179 C 0.15521 0.75884 0.89666 0.0
C1180 C 0.16412 0.77082 0.91489 0.0
C1181 C 0.15968 0.78564 0.90513 0.0
C1182 C 0.17727 0.72566 0.84835 0.0
C1183 C 0.16837 0.71373 0.86694 0.0
C1184 C 0.17381 0.7404 0.86295 0.0
C1185 C 0.16117 0.74342 0.89518 0.0
C1186 C 0.15288 0.73144 0.91688 0.0
C1187 C 0.1566 0.71664 0.90348 0.0
H1188 H 0.46521 0.8769 0.09451 0.0
H1189 H 0.44847 0.9162 0.17785 0.0
H1190 H 0.49092 0.88437 0.11623 0.0
H1191 H 0.47432 0.92396 0.19785 0.0
H1192 H 0.51932 0.9374 0.08827 0.0
H1193 H 0.49355 0.9304 0.11105 0.0
H1194 H 0.50993 0.89245 0.20223 0.0
H1195 H 0.53585 0.89981 0.18116 0.0
C1196 C 0.46704 0.88691 0.11874 0.0
C1197 C 0.45493 0.89602 0.13431 0.0
C1198 C 0.48171 0.89113 0.13143 0.0
C1199 C 0.4845 0.90471 0.15871 0.0
C1200 C 0.47237 0.91338 0.17715 0.0
C1201 C 0.45764 0.90894 0.16574 0.0
C1202 C 0.51741 0.92791 0.11491 0.0
C1203 C 0.52948 0.91911 0.13291 0.0
C1204 C 0.50271 0.92396 0.12813 0.0
C1205 C 0.49985 0.91091 0.15833 0.0
C1206 C 0.51194 0.90262 0.17923 0.0
C1207 C 0.5267 0.90684 0.16728 0.0
H1208 H 0.34349 0.20166 0.28741 0.0
H1209 H 0.33224 0.19664 0.45737 0.0
H1210 H 0.34393 0.22863 0.29811 0.0
H1211 H 0.3331 0.22398 0.46847 0.0
H1212 H 0.31692 0.2738 0.43661 0.0
H1213 H 0.31903 0.2464 0.44117 0.0
H1214 H 0.35835 0.24823 0.33841 0.0
H1215 H 0.35584 0.27534 0.33214 0.0
C1216 C 0.34129 0.20629 0.32736 0.0
C1217 C 0.33783 0.19695 0.37155 0.0
C1218 C 0.34166 0.22182 0.3336 0.0
C1219 C 0.33872 0.22848 0.38432 0.0
C1220 C 0.33535 0.21918 0.42882 0.0
C1221 C 0.33493 0.20354 0.4225 0.0
C1222 C 0.32612 0.2683 0.41578 0.0
C1223 C 0.33604 0.27661 0.38316 0.0
C1224 C 0.32738 0.25264 0.41853 0.0
C1225 C 0.33868 0.24511 0.3892 0.0
C1226 C 0.34925 0.25363 0.36014 0.0
C1227 C 0.34786 0.26917 0.35673 0.0
H1228 H 0.96776 0.06249 0.5124 0.0
H1229 H 0.95536 0.08266 0.66584 0.0
H1230 H -0.00608 0.06241 0.53992 0.0
H1231 H 0.98182 0.08261 0.69359 0.0
H1232 H 0.03 0.10421 0.65029 0.0
H1233 H 0.00324 0.09814 0.65506 0.0
H1234 H 0.01296 0.05259 0.60526 0.0
H1235 H 0.03972 0.0588 0.60045 0.0
C1236 C 0.97062 0.06668 0.55247 0.0
C1237 C 0.95957 0.07278 0.58669 0.0
C1238 C 0.9856 0.06648 0.56849 0.0
C1239 C 0.9899 0.07251 0.61892 0.0
C1240 C 0.97877 0.07792 0.65444 0.0
C1241 C 0.96368 0.07793 0.63863 0.0
C1242 C 0.02638 0.09278 0.64239 0.0
C1243 C 0.03671 0.08192 0.62519 0.0
C1244 C 0.01113 0.08927 0.6453 0.0
C1245 C 0.00603 0.07491 0.63016 0.0
C1246 C 0.01659 0.06376 0.61684 0.0
C1247 C 0.03185 0.06726 0.6143 0.0
H1248 H 0.81837 0.69579 0.93669 0.0
H1249 H 0.86279 0.69685 0.86669 0.0
H1250 H 0.81771 0.72329 0.93654 0.0
H1251 H 0.86237 0.7242 0.86826 0.0
H1252 H 0.84196 0.76363 0.77377 0.0
H1253 H 0.84649 0.73828 0.80416 0.0
H1254 H 0.82816 0.74918 0.96193 0.0
H1255 H 0.82346 0.77502 0.93102 0.0
C1256 C 0.82822 0.70191 0.92348 0.0
C1257 C 0.8405 0.69429 0.90061 0.0
C1258 C 0.82786 0.71764 0.92349 0.0
C1259 C 0.83985 0.72584 0.90112 0.0
C1260 C 0.85283 0.71814 0.88453 0.0
C1261 C 0.85309 0.70251 0.88376 0.0
C1262 C 0.83893 0.76075 0.8151 0.0
C1263 C 0.83226 0.77134 0.84987 0.0
C1264 C 0.84171 0.74621 0.83277 0.0
C1265 C 0.83787 0.74179 0.88571 0.0
C1266 C 0.83128 0.75234 0.92097 0.0
C1267 C 0.82862 0.76708 0.90332 0.0
H1268 H 0.68848 0.20475 0.40527 0.0
H1269 H 0.64287 0.217 0.36705 0.0
H1270 H 0.69363 0.23076 0.43354 0.0
H1271 H 0.64777 0.2427 0.39681 0.0
H1272 H 0.65854 0.28805 0.45363 0.0
H1273 H 0.65723 0.26116 0.47481 0.0
H1274 H 0.69276 0.25253 0.3596 0.0
H1275 H 0.69374 0.27919 0.33741 0.0
C1276 C 0.67942 0.21287 0.40528 0.0
C1277 C 0.66532 0.20906 0.38401 0.0
C1278 C 0.68235 0.22768 0.42137 0.0
C1279 C 0.67108 0.23867 0.41749 0.0
C1280 C 0.65659 0.23441 0.401 0.0
C1281 C 0.6538 0.21976 0.38366 0.0
C1282 C 0.66646 0.28045 0.43456 0.0
C1283 C 0.67612 0.28556 0.3935 0.0
C1284 C 0.6657 0.26511 0.44662 0.0
C1285 C 0.67486 0.25483 0.41869 0.0
C1286 C 0.68568 0.26024 0.38211 0.0
C1287 C 0.68618 0.27546 0.36914 0.0
H1288 H 0.79314 0.28326 0.1629 0.0
H1289 H 0.82567 0.28485 0.03318 0.0
H1290 H 0.79161 0.25604 0.15367 0.0
H1291 H 0.82478 0.25744 0.02562 0.0
H1292 H 0.81954 0.20598 0.03043 0.0
H1293 H 0.81242 0.23223 0.01333 0.0
H1294 H 0.81214 0.24059 0.1864 0.0
H1295 H 0.81896 0.21486 0.20332 0.0
C1296 C 0.7996 0.27777 0.13124 0.0
C1297 C 0.80966 0.28599 0.09925 0.0
C1298 C 0.79881 0.26221 0.12611 0.0
C1299 C 0.80844 0.2546 0.09015 0.0
C1300 C 0.81725 0.263 0.05377 0.0
C1301 C 0.81778 0.27867 0.05811 0.0
C1302 C 0.81783 0.21346 0.06464 0.0
C1303 C 0.8199 0.20834 0.1182 0.0
C1304 C 0.81374 0.22843 0.05485 0.0
C1305 C 0.81146 0.2384 0.09852 0.0
C1306 C 0.81338 0.23314 0.15181 0.0
C1307 C 0.81753 0.21836 0.1615 0.0
H1308 H 0.63932 0.70429 0.6904 0.0
H1309 H 0.6601 0.70236 0.53172 0.0
H1310 H 0.63463 0.73072 0.67888 0.0
H1311 H 0.65494 0.72922 0.51941 0.0
H1312 H 0.66262 0.78038 0.57147 0.0
H1313 H 0.66376 0.75318 0.55694 0.0
H1314 H 0.61999 0.74853 0.63103 0.0
H1315 H 0.61935 0.77547 0.64813 0.0
C1316 C 0.64273 0.70946 0.65256 0.0
C1317 C 0.65017 0.70117 0.6121 0.0
C1318 C 0.63986 0.72468 0.64565 0.0
C1319 C 0.64424 0.73211 0.5979 0.0
C1320 C 0.65146 0.72382 0.55673 0.0
C1321 C 0.65436 0.70845 0.5637 0.0
C1322 C 0.65311 0.77352 0.5832 0.0
C1323 C 0.64101 0.77987 0.61167 0.0
C1324 C 0.65372 0.75796 0.5748 0.0
C1325 C 0.64213 0.74864 0.59412 0.0
C1326 C 0.62932 0.75533 0.61721 0.0
C1327 C 0.62888 0.77076 0.62668 0.0
H1328 H 0.51685 0.37653 0.96867 0.0
H1329 H 0.523 0.40114 0.81914 0.0
H1330 H 0.49039 0.37416 0.95003 0.0
H1331 H 0.49602 0.39858 0.79973 0.0
H1332 H 0.44608 0.41164 0.86086 0.0
H1333 H 0.47298 0.40943 0.8421 0.0
H1334 H 0.47167 0.36296 0.8924 0.0
H1335 H 0.44507 0.36552 0.91385 0.0
C1336 C 0.51255 0.38128 0.93127 0.0
C1337 C 0.52197 0.38919 0.89571 0.0
C1338 C 0.49735 0.37973 0.92013 0.0
C1339 C 0.49108 0.38607 0.87309 0.0
C1340 C 0.50056 0.39358 0.83629 0.0
C1341 C 0.51596 0.39501 0.8473 0.0
C1342 C 0.4515 0.40085 0.86592 0.0
C1343 C 0.44372 0.38881 0.88949 0.0
C1344 C 0.46687 0.39954 0.85505 0.0
C1345 C 0.47451 0.38612 0.86712 0.0
C1346 C 0.46616 0.37356 0.88406 0.0
C1347 C 0.45095 0.37497 0.89606 0.0
H1348 H 0.94106 0.59468 0.33794 0.0
H1349 H 0.96101 0.55431 0.40216 0.0
H1350 H 0.96587 0.60301 0.30604 0.0
H1351 H 0.98556 0.56227 0.36874 0.0
H1352 H 0.02803 0.57808 0.29646 0.0
H1353 H 0.00169 0.5712 0.2817 0.0
H1354 H 0.98773 0.60899 0.37953 0.0
H1355 H 0.01395 0.61559 0.3956 0.0
C1356 C 0.95066 0.58735 0.34309 0.0
C1357 C 0.9493 0.57393 0.37247 0.0
C1358 C 0.96477 0.59209 0.32494 0.0
C1359 C 0.97754 0.58323 0.33478 0.0
C1360 C 0.97585 0.56919 0.35994 0.0
C1361 C 0.96187 0.56468 0.37933 0.0
C1362 C 0.01931 0.5852 0.31314 0.0
C1363 C 0.02294 0.59724 0.34774 0.0
C1364 C 0.00429 0.58127 0.30467 0.0
C1365 C 0.99277 0.58957 0.32954 0.0
C1366 C -0.00358 0.60251 0.35945 0.0
C1367 C 0.0114 0.60622 0.369 0.0
H1368 H 0.97826 0.36935 0.57081 0.0
H1369 H 0.95979 0.4059 0.66496 0.0
H1370 H 0.00353 0.37687 0.59751 0.0
H1371 H 0.98521 0.41374 0.69037 0.0
H1372 H 0.02723 0.43253 0.57862 0.0
H1373 H 0.00269 0.42364 0.60865 0.0
H1374 H 0.02333 0.384 0.67641 0.0
H1375 H 0.04809 0.39329 0.64798 0.0
C1376 C 0.97961 0.37865 0.59885 0.0
C1377 C 0.96717 0.38716 0.61539 0.0
C1378 C -0.00595 0.3829 0.61446 0.0
C1379 C -0.00374 0.39592 0.64574 0.0
C1380 C 0.98374 0.40362 0.66643 0.0
C1381 C 0.96923 0.39913 0.6519 0.0
C1382 C 0.02656 0.42227 0.60212 0.0
C1383 C 0.0394 0.41354 0.6111 0.0
C1384 C 0.01256 0.41721 0.61958 0.0
C1385 C 0.01117 0.40314 0.64481 0.0
C1386 C 0.02418 0.39494 0.65743 0.0
C1387 C 0.03828 0.40023 0.64124 0.0
H1388 H 0.46879 0.60128 0.16939 0.0
H1389 H 0.47752 0.55491 0.12986 0.0
H1390 H 0.49557 0.60512 0.18828 0.0
H1391 H 0.50409 0.55855 0.14951 0.0
H1392 H 0.55157 0.56723 0.17301 0.0
H1393 H 0.52609 0.56671 0.21055 0.0
H1394 H 0.51395 0.60416 0.10832 0.0
H1395 H 0.53917 0.6045 0.07046 0.0
C1396 C 0.47635 0.59177 0.16747 0.0
C1397 C 0.47129 0.57783 0.14823 0.0
C1398 C 0.49163 0.59395 0.17811 0.0
C1399 C 0.5019 0.58216 0.17005 0.0
C1400 C 0.49644 0.5678 0.1567 0.0
C1401 C 0.48126 0.56571 0.1452 0.0
C1402 C 0.54359 0.57569 0.16019 0.0
C1403 C 0.54717 0.58574 0.11822 0.0
C1404 C 0.52904 0.57538 0.18164 0.0
C1405 C 0.51805 0.58532 0.16209 0.0
C1406 C 0.52221 0.59645 0.12457 0.0
C1407 C 0.5366 0.59656 0.10246 0.0
H1408 H 0.12539 0.17025 0.29883 0.0
H1409 H 0.1484 0.12754 0.29064 0.0
H1410 H 0.11542 0.16349 0.38844 0.0
H1411 H 0.13853 0.12092 0.37937 0.0
H1412 H 0.08756 0.13167 0.50986 0.0
H1413 H 0.0976 0.14337 0.42777 0.0
H1414 H 0.14242 0.13046 0.47539 0.0
H1415 H 0.13246 0.11868 0.55706 0.0
C1416 C 0.12825 0.15943 0.31601 0.0
C1417 C 0.13772 0.14944 0.28793 0.0
C1418 C 0.12258 0.1556 0.36714 0.0
C1419 C 0.12645 0.14183 0.39099 0.0
C1420 C 0.13566 0.13177 0.36236 0.0
C1421 C 0.14119 0.1355 0.31133 0.0
C1422 C 0.09959 0.13165 0.50342 0.0
C1423 C 0.10922 0.124 0.53919 0.0
C1424 C 0.10531 0.13837 0.45655 0.0
C1425 C 0.12071 0.13752 0.44497 0.0
C1426 C 0.13045 0.13099 0.48303 0.0
C1427 C 0.12476 0.1243 0.5298 0.0
H1428 H 0.11401 0.91036 0.5186 0.0
H1429 H 0.06931 0.89259 0.54228 0.0
H1430 H 0.12215 0.89847 0.60241 0.0
H1431 H 0.07747 0.88083 0.62696 0.0
H1432 H 0.10533 0.8479 0.73616 0.0
H1433 H 0.09453 0.86041 0.65711 0.0
H1434 H 0.11781 0.9013 0.70054 0.0
H1435 H 0.12879 0.88877 0.77886 0.0
C1436 C 0.10591 0.90394 0.5418 0.0
C1437 C 0.09102 0.90243 0.52401 0.0
C1438 C 0.11055 0.89723 0.59002 0.0
C1439 C 0.10039 0.88887 0.62144 0.0
C1440 C 0.08553 0.88718 0.60337 0.0
C1441 C 0.08087 0.89393 0.55505 0.0
C1442 C 0.10796 0.85962 0.7292 0.0
C1443 C 0.11805 0.86732 0.76319 0.0
C1444 C 0.10175 0.86678 0.68408 0.0
C1445 C 0.10552 0.88175 0.67236 0.0
C1446 C 0.11497 0.88966 0.70804 0.0
C1447 C 0.12118 0.88251 0.753 0.0
H1448 H 0.35628 0.88401 0.01007 0.0
H1449 H 0.39626 0.85844 0.97312 0.0
H1450 H 0.34444 0.87456 0.92775 0.0
H1451 H 0.38443 0.84915 0.88995 0.0
H1452 H 0.35093 0.825 0.77445 0.0
H1453 H 0.36356 0.83317 0.8574 0.0
H1454 H 0.34807 0.87851 0.82999 0.0
H1455 H 0.33523 0.87033 0.74769 0.0
C1456 C 0.36251 0.87631 0.98446 0.0
C1457 C 0.37722 0.87203 -0.00221 0.0
C1458 C 0.35577 0.871 0.93712 0.0
C1459 C 0.36361 0.86131 0.90207 0.0
C1460 C 0.37813 0.85658 0.91634 0.0
C1461 C 0.38489 0.8619 0.96387 0.0
C1462 C 0.35031 0.83673 0.78599 0.0
C1463 C 0.34199 0.84701 0.75491 0.0
C1464 C 0.35758 0.8414 0.83334 0.0
C1465 C 0.35665 0.85643 0.85041 0.0
C1466 C 0.34872 0.86679 0.81835 0.0
C1467 C 0.34146 0.86213 0.77107 0.0
H1468 H 0.36859 0.06365 0.08194 0.0
H1469 H 0.39457 0.10451 0.07085 0.0
H1470 H 0.35986 0.0711 0.17203 0.0
H1471 H 0.38533 0.11235 0.15922 0.0
H1472 H 0.37498 0.12109 0.3299 0.0
H1473 H 0.38642 0.10814 0.25304 0.0
H1474 H 0.3434 0.08848 0.21275 0.0
H1475 H 0.33229 0.10073 0.29146 0.0
C1476 C 0.37234 0.07427 0.0987 0.0
C1477 C 0.38221 0.08355 0.06954 0.0
C1478 C 0.36733 0.07855 0.15023 0.0
C1479 C 0.37193 0.09229 0.17313 0.0
C1480 C 0.38184 0.10151 0.14365 0.0
C1481 C 0.38702 0.09712 0.09265 0.0
C1482 C 0.36811 0.11366 0.30529 0.0
C1483 C 0.35276 0.11198 0.31607 0.0
C1484 C 0.37461 0.10637 0.26099 0.0
C1485 C 0.36577 0.09757 0.22584 0.0
C1486 C 0.3506 0.09509 0.23902 0.0
C1487 C 0.34417 0.10214 0.2841 0.0
H1488 H 0.8521 0.89365 0.47754 0.0
H1489 H 0.8949 0.87256 0.50933 0.0
H1490 H 0.84178 0.88212 0.55925 0.0
H1491 H 0.88474 0.86144 0.59172 0.0
H1492 H 0.83278 0.87116 0.73745 0.0
H1493 H 0.84361 0.88336 0.65766 0.0
H1494 H 0.86718 0.84236 0.61763 0.0
H1495 H 0.85679 0.8304 0.69779 0.0
C1496 C 0.8593 0.88658 0.50208 0.0
C1497 C 0.87427 0.88393 0.48703 0.0
C1498 C 0.85343 0.8801 0.54907 0.0
C1499 C 0.86246 0.87091 0.58196 0.0
C1500 C 0.87744 0.86829 0.56681 0.0
C1501 C 0.88327 0.87469 0.51969 0.0
C1502 C 0.84036 0.86483 0.71171 0.0
C1503 C 0.84395 0.84985 0.72376 0.0
C1504 C 0.84647 0.87176 0.66589 0.0
C1505 C 0.85622 0.8638 0.63133 0.0
C1506 C 0.85989 0.84886 0.64386 0.0
C1507 C 0.85387 0.84199 0.68968 0.0
H1508 H 0.86921 0.15418 0.23194 0.0
H1509 H 0.84793 0.11139 0.20002 0.0
H1510 H 0.87982 0.14419 0.31561 0.0
H1511 H 0.85877 0.10134 0.28337 0.0
H1512 H 0.86375 0.09566 0.46666 0.0
H1513 H 0.8544 0.10594 0.38143 0.0
H1514 H 0.89792 0.1255 0.34964 0.0
H1515 H 0.90723 0.11542 0.43527 0.0
C1516 C 0.86699 0.14257 0.24238 0.0
C1517 C 0.85764 0.13359 0.20976 0.0
C1518 C 0.87309 0.13686 0.2902 0.0
C1519 C 0.86994 0.12207 0.3062 0.0
C1520 C 0.86112 0.11289 0.27243 0.0
C1521 C 0.85503 0.11859 0.22454 0.0
C1522 C 0.87128 0.10225 0.44169 0.0
C1523 C 0.88623 0.10469 0.45741 0.0
C1524 C 0.86597 0.10801 0.39272 0.0
C1525 C 0.8755 0.11634 0.35871 0.0
C1526 C 0.89032 0.11915 0.3752 0.0
C1527 C 0.89565 0.11337 0.42415 0.0
H1528 H 0.62626 0.1623 0.1943 0.0
H1529 H 0.6445 0.11764 0.21356 0.0
H1530 H 0.61622 0.15519 0.10556 0.0
H1531 H 0.63423 0.11047 0.12568 0.0
H1532 H 0.62748 0.10566 0.94691 0.0
H1533 H 0.63858 0.11581 0.02975 0.0
H1534 H 0.59706 0.13884 0.06606 0.0
H1535 H 0.58608 0.12901 0.98264 0.0
C1536 C 0.62798 0.15093 0.17982 0.0
C1537 C 0.63619 0.14052 0.21069 0.0
C1538 C 0.62225 0.14688 0.12907 0.0
C1539 C 0.62462 0.13234 0.10844 0.0
C1540 C 0.63254 0.12186 0.13995 0.0
C1541 C 0.63829 0.12592 0.19052 0.0
C1542 C 0.62082 0.1131 0.97213 0.0
C1543 C 0.60587 0.1164 0.95874 0.0
C1544 C 0.62713 0.11881 0.01972 0.0
C1545 C 0.61858 0.12789 0.05481 0.0
C1546 C 0.60393 0.13191 0.03974 0.0
C1547 C 0.59763 0.12624 0.99203 0.0
H1548 H 0.61308 0.84157 0.76488 0.0
H1549 H 0.64185 0.87962 0.73245 0.0
H1550 H 0.60371 0.85398 0.84629 0.0
H1551 H 0.63214 0.89225 0.81317 0.0
H1552 H 0.62459 0.90226 -0.00671 0.0
H1553 H 0.63366 0.88987 0.91108 0.0
H1554 H 0.58856 0.87482 0.87557 0.0
H1555 H 0.57961 0.88681 0.95838 0.0
C1556 C 0.61725 0.85268 0.77476 0.0
C1557 C 0.62823 0.85961 0.74245 0.0
C1558 C 0.61184 0.85981 0.82133 0.0
C1559 C 0.61724 0.87406 0.83634 0.0
C1560 C 0.62797 0.88115 0.80322 0.0
C1561 C 0.63343 0.87398 0.75677 0.0
C1562 C 0.61666 0.89625 0.968 0.0
C1563 C 0.60142 0.89549 0.98223 0.0
C1564 C 0.62181 0.88925 0.92072 0.0
C1565 C 0.61181 0.88143 0.88668 0.0
C1566 C 0.59658 0.88061 0.90124 0.0
C1567 C 0.59145 0.88752 0.9486 0.0
H1568 H 0.63243 0.56683 0.91117 0.0
H1569 H 0.60559 0.6072 0.92006 0.0
H1570 H 0.64169 0.57452 0.82177 0.0
H1571 H 0.6151 0.61504 0.8324 0.0
H1572 H 0.6241 0.62257 0.661 0.0
H1573 H 0.61351 0.60909 0.73804 0.0
H1574 H 0.65783 0.59341 0.7816 0.0
H1575 H 0.66828 0.60636 0.70289 0.0
C1576 C 0.62858 0.57736 0.89413 0.0
C1577 C 0.61827 0.58641 0.9224 0.0
C1578 C 0.63387 0.58175 0.84305 0.0
C1579 C 0.62897 0.59528 0.81965 0.0
C1580 C 0.61878 0.60434 0.84846 0.0
C1581 C 0.61345 0.59993 0.89906 0.0
C1582 C 0.63149 0.61591 0.68632 0.0
C1583 C 0.64699 0.61564 0.67665 0.0
C1584 C 0.62547 0.6083 0.73063 0.0
C1585 C 0.6349 0.60053 0.76675 0.0
C1586 C 0.65027 0.59928 0.75453 0.0
C1587 C 0.65626 0.60672 0.70953 0.0
H1588 H 0.62973 0.32951 0.2262 0.0
H1589 H 0.64106 0.37599 0.25687 0.0
H1590 H 0.61811 0.33667 0.14019 0.0
H1591 H 0.62928 0.38312 0.17152 0.0
H1592 H 0.62214 0.38896 0.99168 0.0
H1593 H 0.63439 0.37977 0.07374 0.0
H1594 H 0.59637 0.35098 0.10594 0.0
H1595 H 0.58422 0.35996 0.02349 0.0
C1596 C 0.62959 0.34126 0.21485 0.0
C1597 C 0.63635 0.35219 0.24806 0.0
C1598 C 0.62295 0.34534 0.16568 0.0
C1599 C 0.62298 0.36042 0.14894 0.0
C1600 C 0.62939 0.37137 0.18288 0.0
C1601 C 0.63601 0.36731 0.23197 0.0
C1602 C 0.61649 0.38053 0.0159 0.0
C1603 C 0.60217 0.37529 0.00155 0.0
C1604 C 0.62345 0.37535 0.06303 0.0
C1605 C 0.61622 0.36483 0.09653 0.0
C1606 C 0.60222 0.35905 0.08077 0.0
C1607 C 0.59525 0.36424 0.03367 0.0
H1608 H 0.87417 0.38263 0.44698 0.0
H1609 H 0.91241 0.35342 0.42326 0.0
H1610 H 0.86488 0.37602 0.35738 0.0
H1611 H 0.90297 0.34678 0.33274 0.0
H1612 H 0.86599 0.32693 0.2112 0.0
H1613 H 0.88013 0.3333 0.29299 0.0
H1614 H 0.87317 0.38047 0.26095 0.0
H1615 H 0.85891 0.37415 0.17952 0.0
C1616 C 0.88058 0.37476 0.42267 0.0
C1617 C 0.89405 0.36858 0.44201 0.0
C1618 C 0.87533 0.3711 0.37114 0.0
C1619 C 0.88338 0.36113 0.3379 0.0
C1620 C 0.89663 0.35457 0.35764 0.0
C1621 C 0.90198 0.35833 0.40933 0.0
C1622 C 0.86776 0.33866 0.22099 0.0
C1623 C 0.86109 0.35005 0.18971 0.0
C1624 C 0.8759 0.34229 0.26765 0.0
C1625 C 0.87745 0.35735 0.28361 0.0
C1626 C 0.87185 0.36875 0.24992 0.0
C1627 C 0.86375 0.36514 0.20327 0.0
H1628 H 0.87075 0.61934 0.81516 0.0
H1629 H 0.82732 0.60059 0.77621 0.0
H1630 H 0.8815 0.60697 0.7358 0.0
H1631 H 0.83781 0.58888 0.69535 0.0
H1632 H 0.86295 0.56197 0.56857 0.0
H1633 H 0.85367 0.57069 0.65634 0.0
H1634 H 0.88079 0.61081 0.64143 0.0
H1635 H 0.89056 0.60169 0.55526 0.0
C1636 C 0.86354 0.61247 0.78976 0.0
C1637 C 0.84821 0.611 0.80155 0.0
C1638 C 0.86965 0.60551 0.744 0.0
C1639 C 0.86047 0.59716 0.70852 0.0
C1640 C 0.84526 0.59511 0.7219 0.0
C1641 C 0.83921 0.60187 0.76823 0.0
C1642 C 0.8669 0.57265 0.58422 0.0
C1643 C 0.87746 0.58117 0.55524 0.0
C1644 C 0.86157 0.57766 0.63444 0.0
C1645 C 0.86653 0.59142 0.65623 0.0
C1646 C 0.87699 0.59998 0.62668 0.0
C1647 C 0.88248 0.59485 0.57697 0.0
H1648 H 0.36573 0.35169 0.32291 0.0
H1649 H 0.32239 0.37179 0.29299 0.0
H1650 H 0.37542 0.36311 0.24015 0.0
H1651 H 0.33185 0.38268 0.20903 0.0
H1652 H 0.35668 0.40662 0.07161 0.0
H1653 H 0.34835 0.39967 0.16269 0.0
H1654 H 0.37131 0.3571 0.1468 0.0
H1655 H 0.38004 0.36428 0.05701 0.0
C1656 C 0.35836 0.35875 0.29901 0.0
C1657 C 0.34329 0.36072 0.31388 0.0
C1658 C 0.36384 0.36516 0.25137 0.0
C1659 C 0.35428 0.37346 0.21729 0.0
C1660 C 0.33951 0.37636 0.23436 0.0
C1661 C 0.33408 0.37012 0.28249 0.0
C1662 C 0.35985 0.39575 0.08761 0.0
C1663 C 0.36903 0.38599 0.05743 0.0
C1664 C 0.35511 0.39179 0.13975 0.0
C1665 C 0.35936 0.37794 0.16234 0.0
C1666 C 0.3682 0.36804 0.1313 0.0
C1667 C 0.37305 0.37206 0.07956 0.0
H1668 H 0.37689 0.58564 0.98617 0.0
H1669 H 0.41879 0.60846 0.95397 0.0
H1670 H 0.36626 0.59617 0.90356 0.0
H1671 H 0.40823 0.61876 0.87044 0.0
H1672 H 0.35635 0.60462 0.72726 0.0
H1673 H 0.36901 0.59375 0.80557 0.0
H1674 H 0.38916 0.63681 0.84164 0.0
H1675 H 0.37677 0.64761 0.76249 0.0
C1676 C 0.38384 0.59286 0.96131 0.0
C1677 C 0.39866 0.59622 0.97642 0.0
C1678 C 0.3778 0.5988 0.91378 0.0
C1679 C 0.38647 0.60818 0.88032 0.0
C1680 C 0.40126 0.61165 0.89566 0.0
C1681 C 0.40731 0.60572 0.94335 0.0
C1682 C 0.36361 0.61172 0.7516 0.0
C1683 C 0.36549 0.62698 0.73909 0.0
C1684 C 0.37077 0.60552 0.79659 0.0
C1685 C 0.37992 0.61448 0.83006 0.0
C1686 C 0.38225 0.62961 0.81635 0.0
C1687 C 0.37512 0.6358 0.77119 0.0
H1688 H 0.14733 0.62013 0.71887 0.0
H1689 H 0.13177 0.66539 0.68946 0.0
H1690 H 0.13404 0.61151 0.638 0.0
H1691 H 0.11875 0.65681 0.60806 0.0
H1692 H 0.08435 0.63195 0.50083 0.0
H1693 H 0.09737 0.64115 0.58149 0.0
H1694 H 0.13612 0.61435 0.53926 0.0
H1695 H 0.12302 0.60493 0.45929 0.0
C1696 C 0.1411 0.62822 0.69512 0.0
C1697 C 0.14062 0.64342 0.71033 0.0
C1698 C 0.13357 0.62332 0.64866 0.0
C1699 C 0.12544 0.63352 0.6166 0.0
C1700 C 0.12481 0.64868 0.63226 0.0
C1701 C 0.13232 0.65358 0.67873 0.0
C1702 C 0.09569 0.62812 0.50859 0.0
C1703 C 0.10266 0.61768 0.47398 0.0
C1704 C 0.10315 0.63341 0.55466 0.0
C1705 C 0.11771 0.62836 0.56682 0.0
C1706 C 0.1248 0.61822 0.53141 0.0
C1707 C 0.11734 0.61292 0.48543 0.0
H1708 H 0.12464 0.35139 0.20838 0.0
H1709 H 0.15171 0.39101 0.18225 0.0
H1710 H 0.11431 0.36257 0.29043 0.0
H1711 H 0.14094 0.40249 0.26346 0.0
H1712 H 0.13336 0.4098 0.44517 0.0
H1713 H 0.14262 0.39939 0.35984 0.0
H1714 H 0.0984 0.38176 0.32509 0.0
H1715 H 0.08933 0.39167 0.41132 0.0
C1716 C 0.12817 0.36262 0.21964 0.0
C1717 C 0.13905 0.37031 0.18915 0.0
C1718 C 0.12221 0.36906 0.26661 0.0
C1719 C 0.12688 0.38339 0.28375 0.0
C1720 C 0.13734 0.39131 0.25198 0.0
C1721 C 0.14341 0.3848 0.20524 0.0
C1722 C 0.12566 0.40365 0.4193 0.0
C1723 C 0.11066 0.40148 0.43489 0.0
C1724 C 0.13091 0.39781 0.3702 0.0
C1725 C 0.12123 0.38981 0.33549 0.0
C1726 C 0.1062 0.38769 0.35119 0.0
C1727 C 0.101 0.3934 0.40053 0.0
loop_
_geom_bond_atom_site_label_1
_geom_bond_atom_site_label_2
_geom_bond_distance
_geom_bond_site_symmetry_2
_ccdc_geom_bond_type
C0 O1 1.306 . S
C0 O3 1.160 . S
O1 C0 1.306 . S
O1 Cd2 2.228 . S
Cd2 O1 2.228 . S
Cd2 O6 2.273 . S
Cd2 O10 2.277 . S
O3 C0 1.160 . S
O3 Cd4 2.203 . S
Cd4 O3 2.203 . S
Cd4 O6 2.411 . S
Cd4 O7 2.333 . S
Cd4 O8 2.352 . S
Cd4 O12 2.277 . S
Cd4 O13 2.356 . S
C5 O10 1.209 . S
C5 O12 1.226 . S
O6 Cd2 2.273 . S
O6 Cd4 2.411 . S
O6 C9 1.320 . S
O7 Cd4 2.333 . S
O7 C9 1.214 . S
O8 Cd4 2.352 . S
O8 C11 1.258 . S
C9 O6 1.320 . S
C9 O7 1.214 . S
O10 Cd2 2.277 . S
O10 C5 1.209 . S
C11 O8 1.258 . S
C11 O13 1.282 . S
O12 Cd4 2.277 . S
O12 C5 1.226 . S
O13 Cd4 2.356 . S
O13 C11 1.282 . S
C14 O15 1.306 . S
C14 O17 1.160 . S
O15 C14 1.306 . S
O15 Cd16 2.228 . S
Cd16 O15 2.228 . S
Cd16 O20 2.273 . S
Cd16 O24 2.277 . S
O17 C14 1.160 . S
O17 Cd18 2.203 . S
Cd18 O17 2.203 . S
Cd18 O20 2.411 . S
Cd18 O21 2.333 . S
Cd18 O22 2.352 . S
Cd18 O26 2.277 . S
Cd18 O27 2.356 . S
C19 O24 1.209 . S
C19 O26 1.226 . S
O20 Cd16 2.273 . S
O20 Cd18 2.411 . S
O20 C23 1.320 . S
O21 Cd18 2.333 . S
O21 C23 1.214 . S
O22 Cd18 2.352 . S
O22 C25 1.258 . S
C23 O20 1.320 . S
C23 O21 1.214 . S
O24 Cd16 2.277 . S
O24 C19 1.209 . S
C25 O22 1.258 . S
C25 O27 1.282 . S
O26 Cd18 2.277 . S
O26 C19 1.226 . S
O27 Cd18 2.356 . S
O27 C25 1.282 . S
C28 O29 1.306 . S
C28 O31 1.160 . S
O29 C28 1.306 . S
O29 Cd30 2.228 . S
Cd30 O29 2.228 . S
Cd30 O34 2.273 . S
Cd30 O38 2.277 . S
O31 C28 1.160 . S
O31 Cd32 2.203 . S
Cd32 O31 2.203 . S
Cd32 O34 2.411 . S
Cd32 O35 2.333 . S
Cd32 O36 2.352 . S
Cd32 O40 2.277 . S
Cd32 O41 2.356 . S
C33 O38 1.209 . S
C33 O40 1.226 . S
O34 Cd30 2.273 . S
O34 Cd32 2.411 . S
O34 C37 1.320 . S
O35 Cd32 2.333 . S
O35 C37 1.214 . S
O36 Cd32 2.352 . S
O36 C39 1.258 . S
C37 O34 1.320 . S
C37 O35 1.214 . S
O38 Cd30 2.277 . S
O38 C33 1.209 . S
C39 O36 1.258 . S
C39 O41 1.282 . S
O40 Cd32 2.277 . S
O40 C33 1.226 . S
O41 Cd32 2.356 . S
O41 C39 1.282 . S
C42 O43 1.306 . S
C42 O45 1.160 . S
O43 C42 1.306 . S
O43 Cd44 2.228 1_556 S
Cd44 O43 2.228 1_554 S
Cd44 O48 2.273 1_554 S
Cd44 O52 2.277 1_554 S
O45 C42 1.160 . S
O45 Cd46 2.203 . S
Cd46 O45 2.203 . S
Cd46 O48 2.411 . S
Cd46 O49 2.333 . S
Cd46 O50 2.352 . S
Cd46 O54 2.277 . S
Cd46 O55 2.356 . S
C47 O52 1.209 . S
C47 O54 1.226 . S
O48 Cd44 2.273 1_556 S
O48 Cd46 2.411 . S
O48 C51 1.320 . S
O49 Cd46 2.333 . S
O49 C51 1.214 . S
O50 Cd46 2.352 . S
O50 C53 1.258 . S
C51 O48 1.320 . S
C51 O49 1.214 . S
O52 Cd44 2.277 1_556 S
O52 C47 1.209 . S
C53 O50 1.258 . S
C53 O55 1.282 . S
O54 Cd46 2.277 . S
O54 C47 1.226 . S
O55 Cd46 2.356 . S
O55 C53 1.282 . S
C56 O57 1.306 . S
C56 O59 1.160 . S
O57 C56 1.306 . S
O57 Cd58 2.228 . S
Cd58 O57 2.228 . S
Cd58 O62 2.273 . S
Cd58 O66 2.277 . S
O59 C56 1.160 . S
O59 Cd60 2.203 . S
Cd60 O59 2.203 . S
Cd60 O62 2.411 . S
Cd60 O63 2.333 . S
Cd60 O64 2.352 . S
Cd60 O68 2.277 . S
Cd60 O69 2.356 . S
C61 O66 1.209 . S
C61 O68 1.226 . S
O62 Cd58 2.273 . S
O62 Cd60 2.411 . S
O62 C65 1.320 . S
O63 Cd60 2.333 . S
O63 C65 1.214 . S
O64 Cd60 2.352 . S
O64 C67 1.258 . S
C65 O62 1.320 . S
C65 O63 1.214 . S
O66 Cd58 2.277 . S
O66 C61 1.209 . S
C67 O64 1.258 . S
C67 O69 1.282 . S
O68 Cd60 2.277 . S
O68 C61 1.226 . S
O69 Cd60 2.356 . S
O69 C67 1.282 . S
C70 O71 1.306 . S
C70 O73 1.160 . S
O71 C70 1.306 . S
O71 Cd72 2.228 1_554 S
Cd72 O71 2.228 1_556 S
Cd72 O76 2.273 1_556 S
Cd72 O80 2.277 1_556 S
O73 C70 1.160 . S
O73 Cd74 2.203 . S
Cd74 O73 2.203 . S
Cd74 O76 2.411 . S
Cd74 O77 2.333 . S
Cd74 O78 2.352 . S
Cd74 O82 2.277 . S
Cd74 O83 2.356 . S
C75 O80 1.209 . S
C75 O82 1.226 . S
O76 Cd72 2.273 1_554 S
O76 Cd74 2.411 . S
O76 C79 1.320 . S
O77 Cd74 2.333 . S
O77 C79 1.214 . S
O78 Cd74 2.352 . S
O78 C81 1.258 . S
C79 O76 1.320 . S
C79 O77 1.214 . S
O80 Cd72 2.277 1_554 S
O80 C75 1.209 . S
C81 O78 1.258 . S
C81 O83 1.282 . S
O82 Cd74 2.277 . S
O82 C75 1.226 . S
O83 Cd74 2.356 . S
O83 C81 1.282 . S
C84 O85 1.306 . S
C84 O87 1.160 . S
O85 C84 1.306 . S
O85 Cd86 2.228 . S
Cd86 O85 2.228 . S
Cd86 O90 2.273 . S
Cd86 O94 2.277 . S
O87 C84 1.160 . S
O87 Cd88 2.203 . S
Cd88 O87 2.203 . S
Cd88 O90 2.411 . S
Cd88 O91 2.333 . S
Cd88 O92 2.352 . S
Cd88 O96 2.277 . S
Cd88 O97 2.356 . S
C89 O94 1.209 . S
C89 O96 1.226 . S
O90 Cd86 2.273 . S
O90 Cd88 2.411 . S
O90 C93 1.320 . S
O91 Cd88 2.333 . S
O91 C93 1.214 . S
O92 Cd88 2.352 . S
O92 C95 1.258 . S
C93 O90 1.320 . S
C93 O91 1.214 . S
O94 Cd86 2.277 . S
O94 C89 1.209 . S
C95 O92 1.258 . S
C95 O97 1.282 . S
O96 Cd88 2.277 . S
O96 C89 1.226 . S
O97 Cd88 2.356 . S
O97 C95 1.282 . S
C98 O99 1.306 . S
C98 O101 1.160 . S
O99 C98 1.306 . S
O99 Cd100 2.228 . S
Cd100 O99 2.228 . S
Cd100 O104 2.273 . S
Cd100 O108 2.277 . S
O101 C98 1.160 . S
O101 Cd102 2.203 . S
Cd102 O101 2.203 . S
Cd102 O104 2.411 . S
Cd102 O105 2.333 . S
Cd102 O106 2.352 . S
Cd102 O110 2.277 . S
Cd102 O111 2.356 . S
C103 O108 1.209 . S
C103 O110 1.226 . S
O104 Cd100 2.273 . S
O104 Cd102 2.411 . S
O104 C107 1.320 . S
O105 Cd102 2.333 . S
O105 C107 1.214 . S
O106 Cd102 2.352 . S
O106 C109 1.258 . S
C107 O104 1.320 . S
C107 O105 1.214 . S
O108 Cd100 2.277 . S
O108 C103 1.209 . S
C109 O106 1.258 . S
C109 O111 1.282 . S
O110 Cd102 2.277 . S
O110 C103 1.226 . S
O111 Cd102 2.356 . S
O111 C109 1.282 . S
C112 O113 1.306 . S
C112 O115 1.160 . S
O113 C112 1.306 . S
O113 Cd114 2.228 . S
Cd114 O113 2.228 . S
Cd114 O118 2.273 . S
Cd114 O122 2.277 . S
O115 C112 1.160 . S
O115 Cd116 2.203 . S
Cd116 O115 2.203 . S
Cd116 O118 2.411 . S
Cd116 O119 2.333 . S
Cd116 O120 2.352 . S
Cd116 O124 2.277 . S
Cd116 O125 2.356 . S
C117 O122 1.209 . S
C117 O124 1.226 . S
O118 Cd114 2.273 . S
O118 Cd116 2.411 . S
O118 C121 1.320 . S
O119 Cd116 2.333 . S
O119 C121 1.214 . S
O120 Cd116 2.352 . S
O120 C123 1.258 . S
C121 O118 1.320 . S
C121 O119 1.214 . S
O122 Cd114 2.277 . S
O122 C117 1.209 . S
C123 O120 1.258 . S
C123 O125 1.282 . S
O124 Cd116 2.277 . S
O124 C117 1.226 . S
O125 Cd116 2.356 . S
O125 C123 1.282 . S
C126 O127 1.306 . S
C126 O129 1.160 . S
O127 C126 1.306 . S
O127 Cd128 2.228 . S
Cd128 O127 2.228 . S
Cd128 O132 2.273 . S
Cd128 O136 2.277 . S
O129 C126 1.160 . S
O129 Cd130 2.203 . S
Cd130 O129 2.203 . S
Cd130 O132 2.411 . S
Cd130 O133 2.333 . S
Cd130 O134 2.352 . S
Cd130 O138 2.277 . S
Cd130 O139 2.356 . S
C131 O136 1.209 . S
C131 O138 1.226 . S
O132 Cd128 2.273 . S
O132 Cd130 2.411 . S
O132 C135 1.320 . S
O133 Cd130 2.333 . S
O133 C135 1.214 . S
O134 Cd130 2.352 . S
O134 C137 1.258 . S
C135 O132 1.320 . S
C135 O133 1.214 . S
O136 Cd128 2.277 . S
O136 C131 1.209 . S
C137 O134 1.258 . S
C137 O139 1.282 . S
O138 Cd130 2.277 . S
O138 C131 1.226 . S
O139 Cd130 2.356 . S
O139 C137 1.282 . S
C140 O141 1.306 . S
C140 O143 1.160 . S
O141 C140 1.306 . S
O141 Cd142 2.228 . S
Cd142 O141 2.228 . S
Cd142 O146 2.273 . S
Cd142 O150 2.277 . S
O143 C140 1.160 . S
O143 Cd144 2.203 . S
Cd144 O143 2.203 . S
Cd144 O146 2.411 . S
Cd144 O147 2.333 . S
Cd144 O148 2.352 . S
Cd144 O152 2.277 . S
Cd144 O153 2.356 . S
C145 O150 1.209 . S
C145 O152 1.226 . S
O146 Cd142 2.273 . S
O146 Cd144 2.411 . S
O146 C149 1.320 . S
O147 Cd144 2.333 . S
O147 C149 1.214 . S
O148 Cd144 2.352 . S
O148 C151 1.258 . S
C149 O146 1.320 . S
C149 O147 1.214 . S
O150 Cd142 2.277 . S
O150 C145 1.209 . S
C151 O148 1.258 . S
C151 O153 1.282 . S
O152 Cd144 2.277 . S
O152 C145 1.226 . S
O153 Cd144 2.356 . S
O153 C151 1.282 . S
C154 O155 1.306 . S
C154 O157 1.160 . S
O155 C154 1.306 . S
O155 Cd156 2.228 1_554 S
Cd156 O155 2.228 1_556 S
Cd156 O160 2.273 1_556 S
Cd156 O164 2.277 1_556 S
O157 C154 1.160 . S
O157 Cd158 2.203 . S
Cd158 O157 2.203 . S
Cd158 O160 2.411 . S
Cd158 O161 2.333 . S
Cd158 O162 2.352 . S
Cd158 O166 2.277 . S
Cd158 O167 2.356 . S
C159 O164 1.209 . S
C159 O166 1.226 . S
O160 Cd156 2.273 1_554 S
O160 Cd158 2.411 . S
O160 C163 1.320 . S
O161 Cd158 2.333 . S
O161 C163 1.214 . S
O162 Cd158 2.352 . S
O162 C165 1.258 . S
C163 O160 1.320 . S
C163 O161 1.214 . S
O164 Cd156 2.277 1_554 S
O164 C159 1.209 . S
C165 O162 1.258 . S
C165 O167 1.282 . S
O166 Cd158 2.277 . S
O166 C159 1.226 . S
O167 Cd158 2.356 . S
O167 C165 1.282 . S
C168 O169 1.306 . S
C168 O171 1.160 . S
O169 C168 1.306 . S
O169 Cd170 2.228 . S
Cd170 O169 2.228 . S
Cd170 O174 2.273 . S
Cd170 O178 2.277 . S
O171 C168 1.160 . S
O171 Cd172 2.203 . S
Cd172 O171 2.203 . S
Cd172 O174 2.411 . S
Cd172 O175 2.333 . S
Cd172 O176 2.352 . S
Cd172 O180 2.277 . S
Cd172 O181 2.356 . S
C173 O178 1.209 . S
C173 O180 1.226 . S
O174 Cd170 2.273 . S
O174 Cd172 2.411 . S
O174 C177 1.320 . S
O175 Cd172 2.333 . S
O175 C177 1.214 . S
O176 Cd172 2.352 . S
O176 C179 1.258 . S
C177 O174 1.320 . S
C177 O175 1.214 . S
O178 Cd170 2.277 . S
O178 C173 1.209 . S
C179 O176 1.258 . S
C179 O181 1.282 . S
O180 Cd172 2.277 . S
O180 C173 1.226 . S
O181 Cd172 2.356 . S
O181 C179 1.282 . S
C182 O183 1.306 . S
C182 O185 1.160 . S
O183 C182 1.306 . S
O183 Cd184 2.228 1_556 S
Cd184 O183 2.228 1_554 S
Cd184 O188 2.273 1_554 S
Cd184 O192 2.277 1_554 S
O185 C182 1.160 . S
O185 Cd186 2.203 . S
Cd186 O185 2.203 . S
Cd186 O188 2.411 . S
Cd186 O189 2.333 . S
Cd186 O190 2.352 . S
Cd186 O194 2.277 . S
Cd186 O195 2.356 . S
C187 O192 1.209 . S
C187 O194 1.226 . S
O188 Cd184 2.273 1_556 S
O188 Cd186 2.411 . S
O188 C191 1.320 . S
O189 Cd186 2.333 . S
O189 C191 1.214 . S
O190 Cd186 2.352 . S
O190 C193 1.258 . S
C191 O188 1.320 . S
C191 O189 1.214 . S
O192 Cd184 2.277 1_556 S
O192 C187 1.209 . S
C193 O190 1.258 . S
C193 O195 1.282 . S
O194 Cd186 2.277 . S
O194 C187 1.226 . S
O195 Cd186 2.356 . S
O195 C193 1.282 . S
C196 O197 1.306 . S
C196 O199 1.160 . S
O197 C196 1.306 . S
O197 Cd198 2.228 . S
Cd198 O197 2.228 . S
Cd198 O202 2.273 . S
Cd198 O206 2.277 . S
O199 C196 1.160 . S
O199 Cd200 2.203 . S
Cd200 O199 2.203 . S
Cd200 O202 2.411 . S
Cd200 O203 2.333 . S
Cd200 O204 2.352 . S
Cd200 O208 2.277 . S
Cd200 O209 2.356 . S
C201 O206 1.209 . S
C201 O208 1.226 . S
O202 Cd198 2.273 . S
O202 Cd200 2.411 . S
O202 C205 1.320 . S
O203 Cd200 2.333 . S
O203 C205 1.214 . S
O204 Cd200 2.352 . S
O204 C207 1.258 . S
C205 O202 1.320 . S
C205 O203 1.214 . S
O206 Cd198 2.277 . S
O206 C201 1.209 . S
C207 O204 1.258 . S
C207 O209 1.282 . S
O208 Cd200 2.277 . S
O208 C201 1.226 . S
O209 Cd200 2.356 . S
O209 C207 1.282 . S
C210 O211 1.306 . S
C210 O213 1.160 . S
O211 C210 1.306 . S
O211 Cd212 2.228 . S
Cd212 O211 2.228 . S
Cd212 O216 2.273 . S
Cd212 O220 2.277 . S
O213 C210 1.160 . S
O213 Cd214 2.203 . S
Cd214 O213 2.203 . S
Cd214 O216 2.411 . S
Cd214 O217 2.333 . S
Cd214 O218 2.352 . S
Cd214 O222 2.277 . S
Cd214 O223 2.356 . S
C215 O220 1.209 . S
C215 O222 1.226 . S
O216 Cd212 2.273 . S
O216 Cd214 2.411 . S
O216 C219 1.320 . S
O217 Cd214 2.333 . S
O217 C219 1.214 . S
O218 Cd214 2.352 . S
O218 C221 1.258 . S
C219 O216 1.320 . S
C219 O217 1.214 . S
O220 Cd212 2.277 . S
O220 C215 1.209 . S
C221 O218 1.258 . S
C221 O223 1.282 . S
O222 Cd214 2.277 . S
O222 C215 1.226 . S
O223 Cd214 2.356 . S
O223 C221 1.282 . S
C224 O225 1.306 . S
C224 O227 1.160 . S
O225 C224 1.306 . S
O225 Cd226 2.228 . S
Cd226 O225 2.228 . S
Cd226 O230 2.273 . S
Cd226 O234 2.277 . S
O227 C224 1.160 . S
O227 Cd228 2.203 . S
Cd228 O227 2.203 . S
Cd228 O230 2.411 . S
Cd228 O231 2.333 . S
Cd228 O232 2.352 . S
Cd228 O236 2.277 . S
Cd228 O237 2.356 . S
C229 O234 1.209 . S
C229 O236 1.226 . S
O230 Cd226 2.273 . S
O230 Cd228 2.411 . S
O230 C233 1.320 . S
O231 Cd228 2.333 . S
O231 C233 1.214 . S
O232 Cd228 2.352 . S
O232 C235 1.258 . S
C233 O230 1.320 . S
C233 O231 1.214 . S
O234 Cd226 2.277 . S
O234 C229 1.209 . S
C235 O232 1.258 . S
C235 O237 1.282 . S
O236 Cd228 2.277 . S
O236 C229 1.226 . S
O237 Cd228 2.356 . S
O237 C235 1.282 . S
C238 O239 1.306 . S
C238 O241 1.160 . S
O239 C238 1.306 . S
O239 Cd240 2.228 1_556 S
Cd240 O239 2.228 1_554 S
Cd240 O244 2.273 1_554 S
Cd240 O248 2.277 1_554 S
O241 C238 1.160 . S
O241 Cd242 2.203 . S
Cd242 O241 2.203 . S
Cd242 O244 2.411 . S
Cd242 O245 2.333 . S
Cd242 O246 2.352 . S
Cd242 O250 2.277 . S
Cd242 O251 2.356 . S
C243 O248 1.209 . S
C243 O250 1.226 . S
O244 Cd240 2.273 1_556 S
O244 Cd242 2.411 . S
O244 C247 1.320 . S
O245 Cd242 2.333 . S
O245 C247 1.214 . S
O246 Cd242 2.352 . S
O246 C249 1.258 . S
C247 O244 1.320 . S
C247 O245 1.214 . S
O248 Cd240 2.277 1_556 S
O248 C243 1.209 . S
C249 O246 1.258 . S
C249 O251 1.282 . S
O250 Cd242 2.277 . S
O250 C243 1.226 . S
O251 Cd242 2.356 . S
O251 C249 1.282 . S
C252 O253 1.306 . S
C252 O255 1.160 . S
O253 C252 1.306 . S
O253 Cd254 2.228 . S
Cd254 O253 2.228 . S
Cd254 O258 2.273 . S
Cd254 O262 2.277 . S
O255 C252 1.160 . S
O255 Cd256 2.203 . S
Cd256 O255 2.203 . S
Cd256 O258 2.411 . S
Cd256 O259 2.333 . S
Cd256 O260 2.352 . S
Cd256 O264 2.277 . S
Cd256 O265 2.356 . S
C257 O262 1.209 . S
C257 O264 1.226 . S
O258 Cd254 2.273 . S
O258 Cd256 2.411 . S
O258 C261 1.320 . S
O259 Cd256 2.333 . S
O259 C261 1.214 . S
O260 Cd256 2.352 . S
O260 C263 1.258 . S
C261 O258 1.320 . S
C261 O259 1.214 . S
O262 Cd254 2.277 . S
O262 C257 1.209 . S
C263 O260 1.258 . S
C263 O265 1.282 . S
O264 Cd256 2.277 . S
O264 C257 1.226 . S
O265 Cd256 2.356 . S
O265 C263 1.282 . S
C266 O267 1.306 . S
C266 O269 1.160 . S
O267 C266 1.306 . S
O267 Cd268 2.228 . S
Cd268 O267 2.228 . S
Cd268 O272 2.273 . S
Cd268 O276 2.277 . S
O269 C266 1.160 . S
O269 Cd270 2.203 . S
Cd270 O269 2.203 . S
Cd270 O272 2.411 . S
Cd270 O273 2.333 . S
Cd270 O274 2.352 . S
Cd270 O278 2.277 . S
Cd270 O279 2.356 . S
C271 O276 1.209 . S
C271 O278 1.226 . S
O272 Cd268 2.273 . S
O272 Cd270 2.411 . S
O272 C275 1.320 . S
O273 Cd270 2.333 . S
O273 C275 1.214 . S
O274 Cd270 2.352 . S
O274 C277 1.258 . S
C275 O272 1.320 . S
C275 O273 1.214 . S
O276 Cd268 2.277 . S
O276 C271 1.209 . S
C277 O274 1.258 . S
C277 O279 1.282 . S
O278 Cd270 2.277 . S
O278 C271 1.226 . S
O279 Cd270 2.356 . S
O279 C277 1.282 . S
C280 O281 1.306 . S
C280 O283 1.160 . S
O281 C280 1.306 . S
O281 Cd282 2.228 . S
Cd282 O281 2.228 . S
Cd282 O286 2.273 . S
Cd282 O290 2.277 . S
O283 C280 1.160 . S
O283 Cd284 2.203 . S
Cd284 O283 2.203 . S
Cd284 O286 2.411 . S
Cd284 O287 2.333 . S
Cd284 O288 2.352 . S
Cd284 O292 2.277 . S
Cd284 O293 2.356 . S
C285 O290 1.209 . S
C285 O292 1.226 . S
O286 Cd282 2.273 . S
O286 Cd284 2.411 . S
O286 C289 1.320 . S
O287 Cd284 2.333 . S
O287 C289 1.214 . S
O288 Cd284 2.352 . S
O288 C291 1.258 . S
C289 O286 1.320 . S
C289 O287 1.214 . S
O290 Cd282 2.277 . S
O290 C285 1.209 . S
C291 O288 1.258 . S
C291 O293 1.282 . S
O292 Cd284 2.277 . S
O292 C285 1.226 . S
O293 Cd284 2.356 . S
O293 C291 1.282 . S
C294 O295 1.306 . S
C294 O297 1.160 . S
O295 C294 1.306 . S
O295 Cd296 2.228 . S
Cd296 O295 2.228 . S
Cd296 O300 2.273 . S
Cd296 O304 2.277 . S
O297 C294 1.160 . S
O297 Cd298 2.203 . S
Cd298 O297 2.203 . S
Cd298 O300 2.411 . S
Cd298 O301 2.333 . S
Cd298 O302 2.352 . S
Cd298 O306 2.277 . S
Cd298 O307 2.356 . S
C299 O304 1.209 . S
C299 O306 1.226 . S
O300 Cd296 2.273 . S
O300 Cd298 2.411 . S
O300 C303 1.320 . S
O301 Cd298 2.333 . S
O301 C303 1.214 . S
O302 Cd298 2.352 . S
O302 C305 1.258 . S
C303 O300 1.320 . S
C303 O301 1.214 . S
O304 Cd296 2.277 . S
O304 C299 1.209 . S
C305 O302 1.258 . S
C305 O307 1.282 . S
O306 Cd298 2.277 . S
O306 C299 1.226 . S
O307 Cd298 2.356 . S
O307 C305 1.282 . S
C308 O309 1.306 . S
C308 O311 1.160 . S
O309 C308 1.306 . S
O309 Cd310 2.228 . S
Cd310 O309 2.228 . S
Cd310 O314 2.273 . S
Cd310 O318 2.277 . S
O311 C308 1.160 . S
O311 Cd312 2.203 . S
Cd312 O311 2.203 . S
Cd312 O314 2.411 . S
Cd312 O315 2.333 . S
Cd312 O316 2.352 . S
Cd312 O320 2.277 . S
Cd312 O321 2.356 . S
C313 O318 1.209 . S
C313 O320 1.226 . S
O314 Cd310 2.273 . S
O314 Cd312 2.411 . S
O314 C317 1.320 . S
O315 Cd312 2.333 . S
O315 C317 1.214 . S
O316 Cd312 2.352 . S
O316 C319 1.258 . S
C317 O314 1.320 . S
C317 O315 1.214 . S
O318 Cd310 2.277 . S
O318 C313 1.209 . S
C319 O316 1.258 . S
C319 O321 1.282 . S
O320 Cd312 2.277 . S
O320 C313 1.226 . S
O321 Cd312 2.356 . S
O321 C319 1.282 . S
C322 O323 1.306 . S
C322 O325 1.160 . S
O323 C322 1.306 . S
O323 Cd324 2.228 1_554 S
Cd324 O323 2.228 1_556 S
Cd324 O328 2.273 1_556 S
Cd324 O332 2.277 1_556 S
O325 C322 1.160 . S
O325 Cd326 2.203 . S
Cd326 O325 2.203 . S
Cd326 O328 2.411 . S
Cd326 O329 2.333 . S
Cd326 O330 2.352 . S
Cd326 O334 2.277 . S
Cd326 O335 2.356 . S
C327 O332 1.209 . S
C327 O334 1.226 . S
O328 Cd324 2.273 1_554 S
O328 Cd326 2.411 . S
O328 C331 1.320 . S
O329 Cd326 2.333 . S
O329 C331 1.214 . S
O330 Cd326 2.352 . S
O330 C333 1.258 . S
C331 O328 1.320 . S
C331 O329 1.214 . S
O332 Cd324 2.277 1_554 S
O332 C327 1.209 . S
C333 O330 1.258 . S
C333 O335 1.282 . S
O334 Cd326 2.277 . S
O334 C327 1.226 . S
O335 Cd326 2.356 . S
O335 C333 1.282 . S
C336 O337 1.306 . S
C336 O339 1.160 . S
O337 C336 1.306 . S
O337 Cd338 2.228 . S
Cd338 O337 2.228 . S
Cd338 O342 2.273 . S
Cd338 O346 2.277 . S
O339 C336 1.160 . S
O339 Cd340 2.203 . S
Cd340 O339 2.203 . S
Cd340 O342 2.411 . S
Cd340 O343 2.333 . S
Cd340 O344 2.352 . S
Cd340 O348 2.277 . S
Cd340 O349 2.356 . S
C341 O346 1.209 . S
C341 O348 1.226 . S
O342 Cd338 2.273 . S
O342 Cd340 2.411 . S
O342 C345 1.320 . S
O343 Cd340 2.333 . S
O343 C345 1.214 . S
O344 Cd340 2.352 . S
O344 C347 1.258 . S
C345 O342 1.320 . S
C345 O343 1.214 . S
O346 Cd338 2.277 . S
O346 C341 1.209 . S
C347 O344 1.258 . S
C347 O349 1.282 . S
O348 Cd340 2.277 . S
O348 C341 1.226 . S
O349 Cd340 2.356 . S
O349 C347 1.282 . S
C350 O351 1.306 . S
C350 O353 1.160 . S
O351 C350 1.306 . S
O351 Cd352 2.228 1_554 S
Cd352 O351 2.228 1_556 S
Cd352 O356 2.273 1_556 S
Cd352 O360 2.277 1_556 S
O353 C350 1.160 . S
O353 Cd354 2.203 . S
Cd354 O353 2.203 . S
Cd354 O356 2.411 . S
Cd354 O357 2.333 . S
Cd354 O358 2.352 . S
Cd354 O362 2.277 . S
Cd354 O363 2.356 . S
C355 O360 1.209 . S
C355 O362 1.226 . S
O356 Cd352 2.273 1_554 S
O356 Cd354 2.411 . S
O356 C359 1.320 . S
O357 Cd354 2.333 . S
O357 C359 1.214 . S
O358 Cd354 2.352 . S
O358 C361 1.258 . S
C359 O356 1.320 . S
C359 O357 1.214 . S
O360 Cd352 2.277 1_554 S
O360 C355 1.209 . S
C361 O358 1.258 . S
C361 O363 1.282 . S
O362 Cd354 2.277 . S
O362 C355 1.226 . S
O363 Cd354 2.356 . S
O363 C361 1.282 . S
C364 O365 1.306 . S
C364 O367 1.160 . S
O365 C364 1.306 . S
O365 Cd366 2.228 . S
Cd366 O365 2.228 . S
Cd366 O370 2.273 . S
Cd366 O374 2.277 . S
O367 C364 1.160 . S
O367 Cd368 2.203 . S
Cd368 O367 2.203 . S
Cd368 O370 2.411 . S
Cd368 O371 2.333 . S
Cd368 O372 2.352 . S
Cd368 O376 2.277 . S
Cd368 O377 2.356 . S
C369 O374 1.209 . S
C369 O376 1.226 . S
O370 Cd366 2.273 . S
O370 Cd368 2.411 . S
O370 C373 1.320 . S
O371 Cd368 2.333 . S
O371 C373 1.214 . S
O372 Cd368 2.352 . S
O372 C375 1.258 . S
C373 O370 1.320 . S
C373 O371 1.214 . S
O374 Cd366 2.277 . S
O374 C369 1.209 . S
C375 O372 1.258 . S
C375 O377 1.282 . S
O376 Cd368 2.277 . S
O376 C369 1.226 . S
O377 Cd368 2.356 . S
O377 C375 1.282 . S
C378 O379 1.306 . S
C378 O381 1.160 . S
O379 C378 1.306 . S
O379 Cd380 2.228 . S
Cd380 O379 2.228 . S
Cd380 O384 2.273 . S
Cd380 O388 2.277 . S
O381 C378 1.160 . S
O381 Cd382 2.203 . S
Cd382 O381 2.203 . S
Cd382 O384 2.411 . S
Cd382 O385 2.333 . S
Cd382 O386 2.352 . S
Cd382 O390 2.277 . S
Cd382 O391 2.356 . S
C383 O388 1.209 . S
C383 O390 1.226 . S
O384 Cd380 2.273 . S
O384 Cd382 2.411 . S
O384 C387 1.320 . S
O385 Cd382 2.333 . S
O385 C387 1.214 . S
O386 Cd382 2.352 . S
O386 C389 1.258 . S
C387 O384 1.320 . S
C387 O385 1.214 . S
O388 Cd380 2.277 . S
O388 C383 1.209 . S
C389 O386 1.258 . S
C389 O391 1.282 . S
O390 Cd382 2.277 . S
O390 C383 1.226 . S
O391 Cd382 2.356 . S
O391 C389 1.282 . S
C392 O393 1.306 . S
C392 O395 1.160 . S
O393 C392 1.306 . S
O393 Cd394 2.228 . S
Cd394 O393 2.228 . S
Cd394 O398 2.273 . S
Cd394 O402 2.277 . S
O395 C392 1.160 . S
O395 Cd396 2.203 . S
Cd396 O395 2.203 . S
Cd396 O398 2.411 . S
Cd396 O399 2.333 . S
Cd396 O400 2.352 . S
Cd396 O404 2.277 . S
Cd396 O405 2.356 . S
C397 O402 1.209 . S
C397 O404 1.226 . S
O398 Cd394 2.273 . S
O398 Cd396 2.411 . S
O398 C401 1.320 . S
O399 Cd396 2.333 . S
O399 C401 1.214 . S
O400 Cd396 2.352 . S
O400 C403 1.258 . S
C401 O398 1.320 . S
C401 O399 1.214 . S
O402 Cd394 2.277 . S
O402 C397 1.209 . S
C403 O400 1.258 . S
C403 O405 1.282 . S
O404 Cd396 2.277 . S
O404 C397 1.226 . S
O405 Cd396 2.356 . S
O405 C403 1.282 . S
C406 O407 1.306 . S
C406 O409 1.160 . S
O407 C406 1.306 . S
O407 Cd408 2.228 . S
Cd408 O407 2.228 . S
Cd408 O412 2.273 . S
Cd408 O416 2.277 . S
O409 C406 1.160 . S
O409 Cd410 2.203 . S
Cd410 O409 2.203 . S
Cd410 O412 2.411 . S
Cd410 O413 2.333 . S
Cd410 O414 2.352 . S
Cd410 O418 2.277 . S
Cd410 O419 2.356 . S
C411 O416 1.209 . S
C411 O418 1.226 . S
O412 Cd408 2.273 . S
O412 Cd410 2.411 . S
O412 C415 1.320 . S
O413 Cd410 2.333 . S
O413 C415 1.214 . S
O414 Cd410 2.352 . S
O414 C417 1.258 . S
C415 O412 1.320 . S
C415 O413 1.214 . S
O416 Cd408 2.277 . S
O416 C411 1.209 . S
C417 O414 1.258 . S
C417 O419 1.282 . S
O418 Cd410 2.277 . S
O418 C411 1.226 . S
O419 Cd410 2.356 . S
O419 C417 1.282 . S
C420 O421 1.306 . S
C420 O423 1.160 . S
O421 C420 1.306 . S
O421 Cd422 2.228 . S
Cd422 O421 2.228 . S
Cd422 O426 2.273 . S
Cd422 O430 2.277 . S
O423 C420 1.160 . S
O423 Cd424 2.203 . S
Cd424 O423 2.203 . S
Cd424 O426 2.411 . S
Cd424 O427 2.333 . S
Cd424 O428 2.352 . S
Cd424 O432 2.277 . S
Cd424 O433 2.356 . S
C425 O430 1.209 . S
C425 O432 1.226 . S
O426 Cd422 2.273 . S
O426 Cd424 2.411 . S
O426 C429 1.320 . S
O427 Cd424 2.333 . S
O427 C429 1.214 . S
O428 Cd424 2.352 . S
O428 C431 1.258 . S
C429 O426 1.320 . S
C429 O427 1.214 . S
O430 Cd422 2.277 . S
O430 C425 1.209 . S
C431 O428 1.258 . S
C431 O433 1.282 . S
O432 Cd424 2.277 . S
O432 C425 1.226 . S
O433 Cd424 2.356 . S
O433 C431 1.282 . S
C434 O435 1.306 . S
C434 O437 1.160 . S
O435 C434 1.306 . S
O435 Cd436 2.228 1_556 S
Cd436 O435 2.228 1_554 S
Cd436 O440 2.273 1_554 S
Cd436 O444 2.277 1_554 S
O437 C434 1.160 . S
O437 Cd438 2.203 . S
Cd438 O437 2.203 . S
Cd438 O440 2.411 . S
Cd438 O441 2.333 . S
Cd438 O442 2.352 . S
Cd438 O446 2.277 . S
Cd438 O447 2.356 . S
C439 O444 1.209 . S
C439 O446 1.226 . S
O440 Cd436 2.273 1_556 S
O440 Cd438 2.411 . S
O440 C443 1.320 . S
O441 Cd438 2.333 . S
O441 C443 1.214 . S
O442 Cd438 2.352 . S
O442 C445 1.258 . S
C443 O440 1.320 . S
C443 O441 1.214 . S
O444 Cd436 2.277 1_556 S
O444 C439 1.209 . S
C445 O442 1.258 . S
C445 O447 1.282 . S
O446 Cd438 2.277 . S
O446 C439 1.226 . S
O447 Cd438 2.356 . S
O447 C445 1.282 . S
H448 C456 0.950 . S
H449 C461 0.950 . S
H450 C458 0.950 . S
H451 C460 0.950 . S
H452 C462 0.950 . S
H453 C464 0.950 . S
H454 C466 0.950 . S
H455 C467 0.950 . S
C456 H448 0.950 . S
C456 C457 1.386 . S
C456 C458 1.391 . S
C457 C456 1.386 . S
C457 C461 1.393 . S
C458 H450 0.950 . S
C458 C456 1.391 . S
C458 C459 1.400 . S
C459 C458 1.400 . S
C459 C460 1.398 . S
C459 C465 1.491 . S
C460 H451 0.950 . S
C460 C459 1.398 . S
C460 C461 1.391 . S
C461 H449 0.950 . S
C461 C457 1.393 . S
C461 C460 1.391 . S
C462 H452 0.950 . S
C462 C463 1.386 . S
C462 C464 1.391 . S
C463 C462 1.386 . S
C463 C467 1.393 . S
C464 H453 0.950 . S
C464 C462 1.391 . S
C464 C465 1.400 . S
C465 C459 1.491 . S
C465 C464 1.400 . S
C465 C466 1.398 . S
C466 H454 0.950 . S
C466 C465 1.398 . S
C466 C467 1.391 . S
C467 H455 0.950 . S
C467 C463 1.393 . S
C467 C466 1.391 . S
H468 C476 0.950 . S
H469 C481 0.950 . S
H470 C478 0.950 . S
H471 C480 0.950 . S
H472 C482 0.950 . S
H473 C484 0.950 . S
H474 C486 0.950 . S
H475 C487 0.950 . S
C476 H468 0.950 . S
C476 C477 1.386 . S
C476 C478 1.391 . S
C477 C476 1.386 . S
C477 C481 1.393 . S
C478 H470 0.950 . S
C478 C476 1.391 . S
C478 C479 1.400 . S
C479 C478 1.400 . S
C479 C480 1.398 . S
C479 C485 1.491 1_565 S
C480 H471 0.950 . S
C480 C479 1.398 . S
C480 C481 1.391 . S
C481 H469 0.950 . S
C481 C477 1.393 . S
C481 C480 1.391 . S
C482 H472 0.950 . S
C482 C483 1.386 . S
C482 C484 1.391 . S
C483 C482 1.386 . S
C483 C487 1.393 . S
C484 H473 0.950 . S
C484 C482 1.391 . S
C484 C485 1.400 . S
C485 C479 1.491 1_545 S
C485 C484 1.400 . S
C485 C486 1.398 . S
C486 H474 0.950 . S
C486 C485 1.398 . S
C486 C487 1.391 . S
C487 H475 0.950 . S
C487 C483 1.393 . S
C487 C486 1.391 . S
H488 C496 0.950 . S
H489 C501 0.950 . S
H490 C498 0.950 . S
H491 C500 0.950 . S
H492 C502 0.950 . S
H493 C504 0.950 . S
H494 C506 0.950 . S
H495 C507 0.950 . S
C496 H488 0.950 . S
C496 C497 1.386 . S
C496 C498 1.391 . S
C497 C496 1.386 . S
C497 C501 1.393 . S
C498 H490 0.950 . S
C498 C496 1.391 . S
C498 C499 1.400 . S
C499 C498 1.400 . S
C499 C500 1.398 . S
C499 C505 1.491 . S
C500 H491 0.950 . S
C500 C499 1.398 . S
C500 C501 1.391 . S
C501 H489 0.950 . S
C501 C497 1.393 . S
C501 C500 1.391 . S
C502 H492 0.950 . S
C502 C503 1.386 . S
C502 C504 1.391 . S
C503 C502 1.386 . S
C503 C507 1.393 . S
C504 H493 0.950 . S
C504 C502 1.391 . S
C504 C505 1.400 . S
C505 C499 1.491 . S
C505 C504 1.400 . S
C505 C506 1.398 . S
C506 H494 0.950 . S
C506 C505 1.398 . S
C506 C507 1.391 . S
C507 H495 0.950 . S
C507 C503 1.393 . S
C507 C506 1.391 . S
H508 C516 0.950 . S
H509 C521 0.950 . S
H510 C518 0.950 . S
H511 C520 0.950 . S
H512 C522 0.950 . S
H513 C524 0.950 . S
H514 C526 0.950 . S
H515 C527 0.950 . S
C516 H508 0.950 . S
C516 C517 1.386 . S
C516 C518 1.391 1_556 S
C517 C516 1.386 . S
C517 C521 1.393 . S
C518 H510 0.950 . S
C518 C516 1.391 1_554 S
C518 C519 1.400 1_554 S
C519 C518 1.400 1_556 S
C519 C520 1.398 . S
C519 C525 1.491 1_546 S
C520 H511 0.950 . S
C520 C519 1.398 . S
C520 C521 1.391 . S
C521 H509 0.950 . S
C521 C517 1.393 . S
C521 C520 1.391 . S
C522 H512 0.950 . S
C522 C523 1.386 . S
C522 C524 1.391 1_554 S
C523 C522 1.386 . S
C523 C527 1.393 . S
C524 H513 0.950 . S
C524 C522 1.391 1_556 S
C524 C525 1.400 1_556 S
C525 C519 1.491 1_564 S
C525 C524 1.400 1_554 S
C525 C526 1.398 . S
C526 H514 0.950 . S
C526 C525 1.398 . S
C526 C527 1.391 . S
C527 H515 0.950 . S
C527 C523 1.393 . S
C527 C526 1.391 . S
H528 C536 0.950 . S
H529 C541 0.950 . S
H530 C538 0.950 . S
H531 C540 0.950 . S
H532 C542 0.950 . S
H533 C544 0.950 . S
H534 C546 0.950 . S
H535 C547 0.950 . S
C536 H528 0.950 . S
C536 C537 1.386 . S
C536 C538 1.391 . S
C537 C536 1.386 . S
C537 C541 1.393 . S
C538 H530 0.950 . S
C538 C536 1.391 . S
C538 C539 1.400 . S
C539 C538 1.400 . S
C539 C540 1.398 . S
C539 C545 1.491 . S
C540 H531 0.950 . S
C540 C539 1.398 . S
C540 C541 1.391 . S
C541 H529 0.950 . S
C541 C537 1.393 . S
C541 C540 1.391 . S
C542 H532 0.950 . S
C542 C543 1.386 . S
C542 C544 1.391 . S
C543 C542 1.386 . S
C543 C547 1.393 . S
C544 H533 0.950 . S
C544 C542 1.391 . S
C544 C545 1.400 . S
C545 C539 1.491 . S
C545 C544 1.400 . S
C545 C546 1.398 . S
C546 H534 0.950 . S
C546 C545 1.398 . S
C546 C547 1.391 . S
C547 H535 0.950 . S
C547 C543 1.393 . S
C547 C546 1.391 . S
H548 C556 0.950 . S
H549 C561 0.950 . S
H550 C558 0.950 . S
H551 C560 0.950 . S
H552 C562 0.950 . S
H553 C564 0.950 . S
H554 C566 0.950 . S
H555 C567 0.950 . S
C556 H548 0.950 . S
C556 C557 1.386 . S
C556 C558 1.391 . S
C557 C556 1.386 . S
C557 C561 1.393 . S
C558 H550 0.950 . S
C558 C556 1.391 . S
C558 C559 1.400 . S
C559 C558 1.400 . S
C559 C560 1.398 . S
C559 C565 1.491 1_565 S
C560 H551 0.950 . S
C560 C559 1.398 . S
C560 C561 1.391 . S
C561 H549 0.950 . S
C561 C557 1.393 . S
C561 C560 1.391 . S
C562 H552 0.950 . S
C562 C563 1.386 . S
C562 C564 1.391 . S
C563 C562 1.386 . S
C563 C567 1.393 . S
C564 H553 0.950 . S
C564 C562 1.391 . S
C564 C565 1.400 . S
C565 C559 1.491 1_545 S
C565 C564 1.400 . S
C565 C566 1.398 . S
C566 H554 0.950 . S
C566 C565 1.398 . S
C566 C567 1.391 . S
C567 H555 0.950 . S
C567 C563 1.393 . S
C567 C566 1.391 . S
H568 C576 0.950 . S
H569 C581 0.950 . S
H570 C578 0.950 . S
H571 C580 0.950 . S
H572 C582 0.950 . S
H573 C584 0.950 . S
H574 C586 0.950 . S
H575 C587 0.950 . S
C576 H568 0.950 . S
C576 C577 1.386 . S
C576 C578 1.391 . S
C577 C576 1.386 . S
C577 C581 1.393 . S
C578 H570 0.950 . S
C578 C576 1.391 . S
C578 C579 1.400 . S
C579 C578 1.400 . S
C579 C580 1.398 . S
C579 C585 1.491 . S
C580 H571 0.950 . S
C580 C579 1.398 . S
C580 C581 1.391 . S
C581 H569 0.950 . S
C581 C577 1.393 . S
C581 C580 1.391 . S
C582 H572 0.950 . S
C582 C583 1.386 . S
C582 C584 1.391 . S
C583 C582 1.386 . S
C583 C587 1.393 . S
C584 H573 0.950 . S
C584 C582 1.391 . S
C584 C585 1.400 . S
C585 C579 1.491 . S
C585 C584 1.400 . S
C585 C586 1.398 . S
C586 H574 0.950 . S
C586 C585 1.398 . S
C586 C587 1.391 . S
C587 H575 0.950 . S
C587 C583 1.393 . S
C587 C586 1.391 . S
H588 C596 0.950 . S
H589 C601 0.950 . S
H590 C598 0.950 . S
H591 C600 0.950 . S
H592 C602 0.950 . S
H593 C604 0.950 . S
H594 C606 0.950 . S
H595 C607 0.950 . S
C596 H588 0.950 . S
C596 C597 1.386 1_554 S
C596 C598 1.391 . S
C597 C596 1.386 1_556 S
C597 C601 1.393 . S
C598 H590 0.950 . S
C598 C596 1.391 . S
C598 C599 1.400 1_554 S
C599 C598 1.400 1_556 S
C599 C600 1.398 . S
C599 C605 1.491 1_546 S
C600 H591 0.950 . S
C600 C599 1.398 . S
C600 C601 1.391 . S
C601 H589 0.950 . S
C601 C597 1.393 . S
C601 C600 1.391 . S
C602 H592 0.950 . S
C602 C603 1.386 1_556 S
C602 C604 1.391 . S
C603 C602 1.386 1_554 S
C603 C607 1.393 . S
C604 H593 0.950 . S
C604 C602 1.391 . S
C604 C605 1.400 1_556 S
C605 C599 1.491 1_564 S
C605 C604 1.400 1_554 S
C605 C606 1.398 . S
C606 H594 0.950 . S
C606 C605 1.398 . S
C606 C607 1.391 . S
C607 H595 0.950 . S
C607 C603 1.393 . S
C607 C606 1.391 . S
H608 C616 0.950 . S
H609 C621 0.950 . S
H610 C618 0.950 . S
H611 C620 0.950 . S
H612 C622 0.950 . S
H613 C624 0.950 . S
H614 C626 0.950 . S
H615 C627 0.950 . S
C616 H608 0.950 . S
C616 C617 1.386 . S
C616 C618 1.391 . S
C617 C616 1.386 . S
C617 C621 1.393 . S
C618 H610 0.950 . S
C618 C616 1.391 . S
C618 C619 1.400 . S
C619 C618 1.400 . S
C619 C620 1.398 . S
C619 C625 1.491 . S
C620 H611 0.950 . S
C620 C619 1.398 . S
C620 C621 1.391 . S
C621 H609 0.950 . S
C621 C617 1.393 . S
C621 C620 1.391 . S
C622 H612 0.950 . S
C622 C623 1.386 . S
C622 C624 1.391 . S
C623 C622 1.386 . S
C623 C627 1.393 . S
C624 H613 0.950 . S
C624 C622 1.391 . S
C624 C625 1.400 . S
C625 C619 1.491 . S
C625 C624 1.400 . S
C625 C626 1.398 . S
C626 H614 0.950 . S
C626 C625 1.398 . S
C626 C627 1.391 . S
C627 H615 0.950 . S
C627 C623 1.393 . S
C627 C626 1.391 . S
H628 C636 0.950 1_554 S
H629 C641 0.950 . S
H630 C638 0.950 . S
H631 C640 0.950 . S
H632 C642 0.950 1_556 S
H633 C644 0.950 . S
H634 C646 0.950 . S
H635 C647 0.950 . S
C636 H628 0.950 1_556 S
C636 C637 1.386 . S
C636 C638 1.391 1_556 S
C637 C636 1.386 . S
C637 C641 1.393 . S
C638 H630 0.950 . S
C638 C636 1.391 1_554 S
C638 C639 1.400 1_554 S
C639 C638 1.400 1_556 S
C639 C640 1.398 . S
C639 C645 1.491 1_556 S
C640 H631 0.950 . S
C640 C639 1.398 . S
C640 C641 1.391 . S
C641 H629 0.950 . S
C641 C637 1.393 . S
C641 C640 1.391 . S
C642 H632 0.950 1_554 S
C642 C643 1.386 . S
C642 C644 1.391 1_554 S
C643 C642 1.386 . S
C643 C647 1.393 . S
C644 H633 0.950 . S
C644 C642 1.391 1_556 S
C644 C645 1.400 1_556 S
C645 C639 1.491 1_554 S
C645 C644 1.400 1_554 S
C645 C646 1.398 . S
C646 H634 0.950 . S
C646 C645 1.398 . S
C646 C647 1.391 . S
C647 H635 0.950 . S
C647 C643 1.393 . S
C647 C646 1.391 . S
H648 C656 0.950 . S
H649 C661 0.950 . S
H650 C658 0.950 . S
H651 C660 0.950 . S
H652 C662 0.950 . S
H653 C664 0.950 . S
H654 C666 0.950 . S
H655 C667 0.950 . S
C656 H648 0.950 . S
C656 C657 1.386 . S
C656 C658 1.391 . S
C657 C656 1.386 . S
C657 C661 1.393 . S
C658 H650 0.950 . S
C658 C656 1.391 . S
C658 C659 1.400 . S
C659 C658 1.400 . S
C659 C660 1.398 . S
C659 C665 1.491 . S
C660 H651 0.950 . S
C660 C659 1.398 . S
C660 C661 1.391 . S
C661 H649 0.950 . S
C661 C657 1.393 . S
C661 C660 1.391 . S
C662 H652 0.950 . S
C662 C663 1.386 . S
C662 C664 1.391 . S
C663 C662 1.386 . S
C663 C667 1.393 . S
C664 H653 0.950 . S
C664 C662 1.391 . S
C664 C665 1.400 . S
C665 C659 1.491 . S
C665 C664 1.400 . S
C665 C666 1.398 . S
C666 H654 0.950 . S
C666 C665 1.398 . S
C666 C667 1.391 . S
C667 H655 0.950 . S
C667 C663 1.393 . S
C667 C666 1.391 . S
H668 C676 0.950 . S
H669 C681 0.950 . S
H670 C678 0.950 . S
H671 C680 0.950 . S
H672 C682 0.950 . S
H673 C684 0.950 . S
H674 C686 0.950 . S
H675 C687 0.950 . S
C676 H668 0.950 . S
C676 C677 1.386 . S
C676 C678 1.391 . S
C677 C676 1.386 . S
C677 C681 1.393 . S
C678 H670 0.950 . S
C678 C676 1.391 . S
C678 C679 1.400 . S
C679 C678 1.400 . S
C679 C680 1.398 . S
C679 C685 1.491 . S
C680 H671 0.950 . S
C680 C679 1.398 . S
C680 C681 1.391 . S
C681 H669 0.950 . S
C681 C677 1.393 . S
C681 C680 1.391 . S
C682 H672 0.950 . S
C682 C683 1.386 . S
C682 C684 1.391 . S
C683 C682 1.386 . S
C683 C687 1.393 . S
C684 H673 0.950 . S
C684 C682 1.391 . S
C684 C685 1.400 . S
C685 C679 1.491 . S
C685 C684 1.400 . S
C685 C686 1.398 . S
C686 H674 0.950 . S
C686 C685 1.398 . S
C686 C687 1.391 . S
C687 H675 0.950 . S
C687 C683 1.393 . S
C687 C686 1.391 . S
H688 C696 0.950 . S
H689 C701 0.950 . S
H690 C698 0.950 . S
H691 C700 0.950 . S
H692 C702 0.950 . S
H693 C704 0.950 . S
H694 C706 0.950 . S
H695 C707 0.950 . S
C696 H688 0.950 . S
C696 C697 1.386 . S
C696 C698 1.391 . S
C697 C696 1.386 . S
C697 C701 1.393 . S
C698 H690 0.950 . S
C698 C696 1.391 . S
C698 C699 1.400 . S
C699 C698 1.400 . S
C699 C700 1.398 . S
C699 C705 1.491 . S
C700 H691 0.950 . S
C700 C699 1.398 . S
C700 C701 1.391 . S
C701 H689 0.950 . S
C701 C697 1.393 . S
C701 C700 1.391 . S
C702 H692 0.950 . S
C702 C703 1.386 . S
C702 C704 1.391 . S
C703 C702 1.386 . S
C703 C707 1.393 . S
C704 H693 0.950 . S
C704 C702 1.391 . S
C704 C705 1.400 . S
C705 C699 1.491 . S
C705 C704 1.400 . S
C705 C706 1.398 . S
C706 H694 0.950 . S
C706 C705 1.398 . S
C706 C707 1.391 . S
C707 H695 0.950 . S
C707 C703 1.393 . S
C707 C706 1.391 . S
H708 C716 0.950 . S
H709 C721 0.950 1_556 S
H710 C718 0.950 . S
H711 C720 0.950 . S
H712 C722 0.950 . S
H713 C724 0.950 . S
H714 C726 0.950 . S
H715 C727 0.950 1_554 S
C716 H708 0.950 . S
C716 C717 1.386 . S
C716 C718 1.391 . S
C717 C716 1.386 . S
C717 C721 1.393 . S
C718 H710 0.950 . S
C718 C716 1.391 . S
C718 C719 1.400 . S
C719 C718 1.400 . S
C719 C720 1.398 1_554 S
C719 C725 1.491 1_554 S
C720 H711 0.950 . S
C720 C719 1.398 1_556 S
C720 C721 1.391 1_556 S
C721 H709 0.950 1_554 S
C721 C717 1.393 . S
C721 C720 1.391 1_554 S
C722 H712 0.950 . S
C722 C723 1.386 . S
C722 C724 1.391 . S
C723 C722 1.386 . S
C723 C727 1.393 . S
C724 H713 0.950 . S
C724 C722 1.391 . S
C724 C725 1.400 . S
C725 C719 1.491 1_556 S
C725 C724 1.400 . S
C725 C726 1.398 1_556 S
C726 H714 0.950 . S
C726 C725 1.398 1_554 S
C726 C727 1.391 1_554 S
C727 H715 0.950 1_556 S
C727 C723 1.393 . S
C727 C726 1.391 1_556 S
H728 C736 0.950 . S
H729 C741 0.950 . S
H730 C738 0.950 . S
H731 C740 0.950 . S
H732 C742 0.950 . S
H733 C744 0.950 . S
H734 C746 0.950 . S
H735 C747 0.950 . S
C736 H728 0.950 . S
C736 C737 1.386 . S
C736 C738 1.391 . S
C737 C736 1.386 . S
C737 C741 1.393 . S
C738 H730 0.950 . S
C738 C736 1.391 . S
C738 C739 1.400 . S
C739 C738 1.400 . S
C739 C740 1.398 . S
C739 C745 1.491 . S
C740 H731 0.950 . S
C740 C739 1.398 . S
C740 C741 1.391 . S
C741 H729 0.950 . S
C741 C737 1.393 . S
C741 C740 1.391 . S
C742 H732 0.950 . S
C742 C743 1.386 . S
C742 C744 1.391 . S
C743 C742 1.386 . S
C743 C747 1.393 . S
C744 H733 0.950 . S
C744 C742 1.391 . S
C744 C745 1.400 . S
C745 C739 1.491 . S
C745 C744 1.400 . S
C745 C746 1.398 . S
C746 H734 0.950 . S
C746 C745 1.398 . S
C746 C747 1.391 . S
C747 H735 0.950 . S
C747 C743 1.393 . S
C747 C746 1.391 . S
H748 C756 0.950 . S
H749 C761 0.950 . S
H750 C758 0.950 . S
H751 C760 0.950 . S
H752 C762 0.950 . S
H753 C764 0.950 . S
H754 C766 0.950 . S
H755 C767 0.950 . S
C756 H748 0.950 . S
C756 C757 1.386 . S
C756 C758 1.391 . S
C757 C756 1.386 . S
C757 C761 1.393 . S
C758 H750 0.950 . S
C758 C756 1.391 . S
C758 C759 1.400 . S
C759 C758 1.400 . S
C759 C760 1.398 . S
C759 C765 1.491 . S
C760 H751 0.950 . S
C760 C759 1.398 . S
C760 C761 1.391 . S
C761 H749 0.950 . S
C761 C757 1.393 . S
C761 C760 1.391 . S
C762 H752 0.950 . S
C762 C763 1.386 . S
C762 C764 1.391 . S
C763 C762 1.386 . S
C763 C767 1.393 . S
C764 H753 0.950 . S
C764 C762 1.391 . S
C764 C765 1.400 . S
C765 C759 1.491 . S
C765 C764 1.400 . S
C765 C766 1.398 . S
C766 H754 0.950 . S
C766 C765 1.398 . S
C766 C767 1.391 . S
C767 H755 0.950 . S
C767 C763 1.393 . S
C767 C766 1.391 . S
H768 C776 0.950 . S
H769 C781 0.950 1_554 S
H770 C778 0.950 . S
H771 C780 0.950 . S
H772 C782 0.950 . S
H773 C784 0.950 . S
H774 C786 0.950 . S
H775 C787 0.950 . S
C776 H768 0.950 . S
C776 C777 1.386 . S
C776 C778 1.391 . S
C777 C776 1.386 . S
C777 C781 1.393 . S
C778 H770 0.950 . S
C778 C776 1.391 . S
C778 C779 1.400 . S
C779 C778 1.400 . S
C779 C780 1.398 . S
C779 C785 1.491 . S
C780 H771 0.950 . S
C780 C779 1.398 . S
C780 C781 1.391 . S
C781 H769 0.950 1_556 S
C781 C777 1.393 . S
C781 C780 1.391 . S
C782 H772 0.950 . S
C782 C783 1.386 . S
C782 C784 1.391 . S
C783 C782 1.386 . S
C783 C787 1.393 . S
C784 H773 0.950 . S
C784 C782 1.391 . S
C784 C785 1.400 . S
C785 C779 1.491 . S
C785 C784 1.400 . S
C785 C786 1.398 . S
C786 H774 0.950 . S
C786 C785 1.398 . S
C786 C787 1.391 . S
C787 H775 0.950 . S
C787 C783 1.393 . S
C787 C786 1.391 . S
H788 C796 0.950 1_556 S
H789 C801 0.950 . S
H790 C798 0.950 . S
H791 C800 0.950 . S
H792 C802 0.950 . S
H793 C804 0.950 . S
H794 C806 0.950 . S
H795 C807 0.950 . S
C796 H788 0.950 1_554 S
C796 C797 1.386 . S
C796 C798 1.391 . S
C797 C796 1.386 . S
C797 C801 1.393 . S
C798 H790 0.950 . S
C798 C796 1.391 . S
C798 C799 1.400 . S
C799 C798 1.400 . S
C799 C800 1.398 . S
C799 C805 1.491 . S
C800 H791 0.950 . S
C800 C799 1.398 . S
C800 C801 1.391 . S
C801 H789 0.950 . S
C801 C797 1.393 . S
C801 C800 1.391 . S
C802 H792 0.950 . S
C802 C803 1.386 . S
C802 C804 1.391 . S
C803 C802 1.386 . S
C803 C807 1.393 . S
C804 H793 0.950 . S
C804 C802 1.391 . S
C804 C805 1.400 . S
C805 C799 1.491 . S
C805 C804 1.400 . S
C805 C806 1.398 . S
C806 H794 0.950 . S
C806 C805 1.398 . S
C806 C807 1.391 . S
C807 H795 0.950 . S
C807 C803 1.393 . S
C807 C806 1.391 . S
H808 C816 0.950 . S
H809 C821 0.950 . S
H810 C818 0.950 . S
H811 C820 0.950 . S
H812 C822 0.950 . S
H813 C824 0.950 . S
H814 C826 0.950 . S
H815 C827 0.950 . S
C816 H808 0.950 . S
C816 C817 1.386 . S
C816 C818 1.391 . S
C817 C816 1.386 . S
C817 C821 1.393 . S
C818 H810 0.950 . S
C818 C816 1.391 . S
C818 C819 1.400 . S
C819 C818 1.400 . S
C819 C820 1.398 . S
C819 C825 1.491 . S
C820 H811 0.950 . S
C820 C819 1.398 . S
C820 C821 1.391 . S
C821 H809 0.950 . S
C821 C817 1.393 . S
C821 C820 1.391 . S
C822 H812 0.950 . S
C822 C823 1.386 . S
C822 C824 1.391 . S
C823 C822 1.386 . S
C823 C827 1.393 . S
C824 H813 0.950 . S
C824 C822 1.391 . S
C824 C825 1.400 . S
C825 C819 1.491 . S
C825 C824 1.400 . S
C825 C826 1.398 . S
C826 H814 0.950 . S
C826 C825 1.398 . S
C826 C827 1.391 . S
C827 H815 0.950 . S
C827 C823 1.393 . S
C827 C826 1.391 . S
H828 C836 0.950 . S
H829 C841 0.950 . S
H830 C838 0.950 . S
H831 C840 0.950 . S
H832 C842 0.950 . S
H833 C844 0.950 . S
H834 C846 0.950 . S
H835 C847 0.950 . S
C836 H828 0.950 . S
C836 C837 1.386 . S
C836 C838 1.391 . S
C837 C836 1.386 . S
C837 C841 1.393 . S
C838 H830 0.950 . S
C838 C836 1.391 . S
C838 C839 1.400 . S
C839 C838 1.400 . S
C839 C840 1.398 . S
C839 C845 1.491 . S
C840 H831 0.950 . S
C840 C839 1.398 . S
C840 C841 1.391 . S
C841 H829 0.950 . S
C841 C837 1.393 . S
C841 C840 1.391 . S
C842 H832 0.950 . S
C842 C843 1.386 . S
C842 C844 1.391 . S
C843 C842 1.386 . S
C843 C847 1.393 . S
C844 H833 0.950 . S
C844 C842 1.391 . S
C844 C845 1.400 . S
C845 C839 1.491 . S
C845 C844 1.400 . S
C845 C846 1.398 . S
C846 H834 0.950 . S
C846 C845 1.398 . S
C846 C847 1.391 . S
C847 H835 0.950 . S
C847 C843 1.393 . S
C847 C846 1.391 . S
H848 C856 0.950 . S
H849 C861 0.950 . S
H850 C858 0.950 . S
H851 C860 0.950 . S
H852 C862 0.950 . S
H853 C864 0.950 . S
H854 C866 0.950 . S
H855 C867 0.950 . S
C856 H848 0.950 . S
C856 C857 1.386 . S
C856 C858 1.391 . S
C857 C856 1.386 . S
C857 C861 1.393 . S
C858 H850 0.950 . S
C858 C856 1.391 . S
C858 C859 1.400 . S
C859 C858 1.400 . S
C859 C860 1.398 . S
C859 C865 1.491 . S
C860 H851 0.950 . S
C860 C859 1.398 . S
C860 C861 1.391 . S
C861 H849 0.950 . S
C861 C857 1.393 . S
C861 C860 1.391 . S
C862 H852 0.950 . S
C862 C863 1.386 . S
C862 C864 1.391 . S
C863 C862 1.386 . S
C863 C867 1.393 . S
C864 H853 0.950 . S
C864 C862 1.391 . S
C864 C865 1.400 . S
C865 C859 1.491 . S
C865 C864 1.400 . S
C865 C866 1.398 . S
C866 H854 0.950 . S
C866 C865 1.398 . S
C866 C867 1.391 . S
C867 H855 0.950 . S
C867 C863 1.393 . S
C867 C866 1.391 . S
H868 C876 0.950 . S
H869 C881 0.950 1_554 S
H870 C878 0.950 . S
H871 C880 0.950 . S
H872 C882 0.950 . S
H873 C884 0.950 . S
H874 C886 0.950 . S
H875 C887 0.950 . S
C876 H868 0.950 . S
C876 C877 1.386 . S
C876 C878 1.391 . S
C877 C876 1.386 . S
C877 C881 1.393 . S
C878 H870 0.950 . S
C878 C876 1.391 . S
C878 C879 1.400 . S
C879 C878 1.400 . S
C879 C880 1.398 . S
C879 C885 1.491 . S
C880 H871 0.950 . S
C880 C879 1.398 . S
C880 C881 1.391 . S
C881 H869 0.950 1_556 S
C881 C877 1.393 . S
C881 C880 1.391 . S
C882 H872 0.950 . S
C882 C883 1.386 . S
C882 C884 1.391 . S
C883 C882 1.386 . S
C883 C887 1.393 . S
C884 H873 0.950 . S
C884 C882 1.391 . S
C884 C885 1.400 . S
C885 C879 1.491 . S
C885 C884 1.400 . S
C885 C886 1.398 . S
C886 H874 0.950 . S
C886 C885 1.398 . S
C886 C887 1.391 . S
C887 H875 0.950 . S
C887 C883 1.393 . S
C887 C886 1.391 . S
H888 C896 0.950 . S
H889 C901 0.950 . S
H890 C898 0.950 . S
H891 C900 0.950 . S
H892 C902 0.950 . S
H893 C904 0.950 . S
H894 C906 0.950 . S
H895 C907 0.950 . S
C896 H888 0.950 . S
C896 C897 1.386 . S
C896 C898 1.391 . S
C897 C896 1.386 . S
C897 C901 1.393 . S
C898 H890 0.950 . S
C898 C896 1.391 . S
C898 C899 1.400 . S
C899 C898 1.400 . S
C899 C900 1.398 . S
C899 C905 1.491 . S
C900 H891 0.950 . S
C900 C899 1.398 . S
C900 C901 1.391 . S
C901 H889 0.950 . S
C901 C897 1.393 . S
C901 C900 1.391 . S
C902 H892 0.950 . S
C902 C903 1.386 . S
C902 C904 1.391 . S
C903 C902 1.386 . S
C903 C907 1.393 . S
C904 H893 0.950 . S
C904 C902 1.391 . S
C904 C905 1.400 . S
C905 C899 1.491 . S
C905 C904 1.400 . S
C905 C906 1.398 . S
C906 H894 0.950 . S
C906 C905 1.398 . S
C906 C907 1.391 . S
C907 H895 0.950 . S
C907 C903 1.393 . S
C907 C906 1.391 . S
H908 C916 0.950 . S
H909 C921 0.950 . S
H910 C918 0.950 . S
H911 C920 0.950 . S
H912 C922 0.950 . S
H913 C924 0.950 . S
H914 C926 0.950 . S
H915 C927 0.950 . S
C916 H908 0.950 . S
C916 C917 1.386 . S
C916 C918 1.391 . S
C917 C916 1.386 . S
C917 C921 1.393 . S
C918 H910 0.950 . S
C918 C916 1.391 . S
C918 C919 1.400 . S
C919 C918 1.400 . S
C919 C920 1.398 . S
C919 C925 1.491 . S
C920 H911 0.950 . S
C920 C919 1.398 . S
C920 C921 1.391 . S
C921 H909 0.950 . S
C921 C917 1.393 . S
C921 C920 1.391 . S
C922 H912 0.950 . S
C922 C923 1.386 . S
C922 C924 1.391 . S
C923 C922 1.386 . S
C923 C927 1.393 . S
C924 H913 0.950 . S
C924 C922 1.391 . S
C924 C925 1.400 . S
C925 C919 1.491 . S
C925 C924 1.400 . S
C925 C926 1.398 . S
C926 H914 0.950 . S
C926 C925 1.398 . S
C926 C927 1.391 . S
C927 H915 0.950 . S
C927 C923 1.393 . S
C927 C926 1.391 . S
H928 C936 0.950 . S
H929 C941 0.950 . S
H930 C938 0.950 . S
H931 C940 0.950 . S
H932 C942 0.950 . S
H933 C944 0.950 . S
H934 C946 0.950 . S
H935 C947 0.950 . S
C936 H928 0.950 . S
C936 C937 1.386 . S
C936 C938 1.391 . S
C937 C936 1.386 . S
C937 C941 1.393 . S
C938 H930 0.950 . S
C938 C936 1.391 . S
C938 C939 1.400 . S
C939 C938 1.400 . S
C939 C940 1.398 . S
C939 C945 1.491 . S
C940 H931 0.950 . S
C940 C939 1.398 . S
C940 C941 1.391 . S
C941 H929 0.950 . S
C941 C937 1.393 . S
C941 C940 1.391 . S
C942 H932 0.950 . S
C942 C943 1.386 . S
C942 C944 1.391 . S
C943 C942 1.386 . S
C943 C947 1.393 . S
C944 H933 0.950 . S
C944 C942 1.391 . S
C944 C945 1.400 . S
C945 C939 1.491 . S
C945 C944 1.400 . S
C945 C946 1.398 . S
C946 H934 0.950 . S
C946 C945 1.398 . S
C946 C947 1.391 . S
C947 H935 0.950 . S
C947 C943 1.393 . S
C947 C946 1.391 . S
H948 C956 0.950 . S
H949 C961 0.950 . S
H950 C958 0.950 . S
H951 C960 0.950 . S
H952 C962 0.950 . S
H953 C964 0.950 . S
H954 C966 0.950 . S
H955 C967 0.950 . S
C956 H948 0.950 . S
C956 C957 1.386 . S
C956 C958 1.391 . S
C957 C956 1.386 . S
C957 C961 1.393 . S
C958 H950 0.950 . S
C958 C956 1.391 . S
C958 C959 1.400 . S
C959 C958 1.400 . S
C959 C960 1.398 . S
C959 C965 1.491 . S
C960 H951 0.950 . S
C960 C959 1.398 . S
C960 C961 1.391 . S
C961 H949 0.950 . S
C961 C957 1.393 . S
C961 C960 1.391 . S
C962 H952 0.950 . S
C962 C963 1.386 . S
C962 C964 1.391 . S
C963 C962 1.386 . S
C963 C967 1.393 . S
C964 H953 0.950 . S
C964 C962 1.391 . S
C964 C965 1.400 . S
C965 C959 1.491 . S
C965 C964 1.400 . S
C965 C966 1.398 . S
C966 H954 0.950 . S
C966 C965 1.398 . S
C966 C967 1.391 . S
C967 H955 0.950 . S
C967 C963 1.393 . S
C967 C966 1.391 . S
H968 C976 0.950 . S
H969 C981 0.950 . S
H970 C978 0.950 . S
H971 C980 0.950 . S
H972 C982 0.950 . S
H973 C984 0.950 . S
H974 C986 0.950 . S
H975 C987 0.950 . S
C976 H968 0.950 . S
C976 C977 1.386 . S
C976 C978 1.391 . S
C977 C976 1.386 . S
C977 C981 1.393 . S
C978 H970 0.950 . S
C978 C976 1.391 . S
C978 C979 1.400 . S
C979 C978 1.400 . S
C979 C980 1.398 . S
C979 C985 1.491 . S
C980 H971 0.950 . S
C980 C979 1.398 . S
C980 C981 1.391 . S
C981 H969 0.950 . S
C981 C977 1.393 . S
C981 C980 1.391 . S
C982 H972 0.950 . S
C982 C983 1.386 . S
C982 C984 1.391 . S
C983 C982 1.386 . S
C983 C987 1.393 . S
C984 H973 0.950 . S
C984 C982 1.391 . S
C984 C985 1.400 . S
C985 C979 1.491 . S
C985 C984 1.400 . S
C985 C986 1.398 . S
C986 H974 0.950 . S
C986 C985 1.398 . S
C986 C987 1.391 . S
C987 H975 0.950 . S
C987 C983 1.393 . S
C987 C986 1.391 . S
H988 C996 0.950 . S
H989 C1001 0.950 . S
H990 C998 0.950 . S
H991 C1000 0.950 . S
H992 C1002 0.950 . S
H993 C1004 0.950 . S
H994 C1006 0.950 . S
H995 C1007 0.950 . S
C996 H988 0.950 . S
C996 C997 1.386 . S
C996 C998 1.391 . S
C997 C996 1.386 . S
C997 C1001 1.393 . S
C998 H990 0.950 . S
C998 C996 1.391 . S
C998 C999 1.400 . S
C999 C998 1.400 . S
C999 C1000 1.398 . S
C999 C1005 1.491 . S
C1000 H991 0.950 . S
C1000 C999 1.398 . S
C1000 C1001 1.391 . S
C1001 H989 0.950 . S
C1001 C997 1.393 . S
C1001 C1000 1.391 . S
C1002 H992 0.950 . S
C1002 C1003 1.386 . S
C1002 C1004 1.391 . S
C1003 C1002 1.386 . S
C1003 C1007 1.393 . S
C1004 H993 0.950 . S
C1004 C1002 1.391 . S
C1004 C1005 1.400 . S
C1005 C999 1.491 . S
C1005 C1004 1.400 . S
C1005 C1006 1.398 . S
C1006 H994 0.950 . S
C1006 C1005 1.398 . S
C1006 C1007 1.391 . S
C1007 H995 0.950 . S
C1007 C1003 1.393 . S
C1007 C1006 1.391 . S
H1008 C1016 0.950 . S
H1009 C1021 0.950 . S
H1010 C1018 0.950 . S
H1011 C1020 0.950 . S
H1012 C1022 0.950 . S
H1013 C1024 0.950 . S
H1014 C1026 0.950 . S
H1015 C1027 0.950 . S
C1016 H1008 0.950 . S
C1016 C1017 1.386 . S
C1016 C1018 1.391 . S
C1017 C1016 1.386 . S
C1017 C1021 1.393 . S
C1018 H1010 0.950 . S
C1018 C1016 1.391 . S
C1018 C1019 1.400 . S
C1019 C1018 1.400 . S
C1019 C1020 1.398 . S
C1019 C1025 1.491 . S
C1020 H1011 0.950 . S
C1020 C1019 1.398 . S
C1020 C1021 1.391 . S
C1021 H1009 0.950 . S
C1021 C1017 1.393 . S
C1021 C1020 1.391 . S
C1022 H1012 0.950 . S
C1022 C1023 1.386 . S
C1022 C1024 1.391 . S
C1023 C1022 1.386 . S
C1023 C1027 1.393 . S
C1024 H1013 0.950 . S
C1024 C1022 1.391 . S
C1024 C1025 1.400 . S
C1025 C1019 1.491 . S
C1025 C1024 1.400 . S
C1025 C1026 1.398 . S
C1026 H1014 0.950 . S
C1026 C1025 1.398 . S
C1026 C1027 1.391 . S
C1027 H1015 0.950 . S
C1027 C1023 1.393 . S
C1027 C1026 1.391 . S
H1028 C1036 0.950 . S
H1029 C1041 0.950 . S
H1030 C1038 0.950 . S
H1031 C1040 0.950 . S
H1032 C1042 0.950 . S
H1033 C1044 0.950 . S
H1034 C1046 0.950 . S
H1035 C1047 0.950 . S
C1036 H1028 0.950 . S
C1036 C1037 1.386 . S
C1036 C1038 1.391 . S
C1037 C1036 1.386 . S
C1037 C1041 1.393 . S
C1038 H1030 0.950 . S
C1038 C1036 1.391 . S
C1038 C1039 1.400 . S
C1039 C1038 1.400 . S
C1039 C1040 1.398 . S
C1039 C1045 1.491 . S
C1040 H1031 0.950 . S
C1040 C1039 1.398 . S
C1040 C1041 1.391 . S
C1041 H1029 0.950 . S
C1041 C1037 1.393 . S
C1041 C1040 1.391 . S
C1042 H1032 0.950 . S
C1042 C1043 1.386 . S
C1042 C1044 1.391 . S
C1043 C1042 1.386 . S
C1043 C1047 1.393 . S
C1044 H1033 0.950 . S
C1044 C1042 1.391 . S
C1044 C1045 1.400 . S
C1045 C1039 1.491 . S
C1045 C1044 1.400 . S
C1045 C1046 1.398 . S
C1046 H1034 0.950 . S
C1046 C1045 1.398 . S
C1046 C1047 1.391 . S
C1047 H1035 0.950 . S
C1047 C1043 1.393 . S
C1047 C1046 1.391 . S
H1048 C1056 0.950 . S
H1049 C1061 0.950 1_556 S
H1050 C1058 0.950 . S
H1051 C1060 0.950 . S
H1052 C1062 0.950 . S
H1053 C1064 0.950 . S
H1054 C1066 0.950 . S
H1055 C1067 0.950 . S
C1056 H1048 0.950 . S
C1056 C1057 1.386 . S
C1056 C1058 1.391 . S
C1057 C1056 1.386 . S
C1057 C1061 1.393 . S
C1058 H1050 0.950 . S
C1058 C1056 1.391 . S
C1058 C1059 1.400 . S
C1059 C1058 1.400 . S
C1059 C1060 1.398 . S
C1059 C1065 1.491 . S
C1060 H1051 0.950 . S
C1060 C1059 1.398 . S
C1060 C1061 1.391 . S
C1061 H1049 0.950 1_554 S
C1061 C1057 1.393 . S
C1061 C1060 1.391 . S
C1062 H1052 0.950 . S
C1062 C1063 1.386 . S
C1062 C1064 1.391 . S
C1063 C1062 1.386 . S
C1063 C1067 1.393 . S
C1064 H1053 0.950 . S
C1064 C1062 1.391 . S
C1064 C1065 1.400 . S
C1065 C1059 1.491 . S
C1065 C1064 1.400 . S
C1065 C1066 1.398 . S
C1066 H1054 0.950 . S
C1066 C1065 1.398 . S
C1066 C1067 1.391 . S
C1067 H1055 0.950 . S
C1067 C1063 1.393 . S
C1067 C1066 1.391 . S
H1068 C1076 0.950 . S
H1069 C1081 0.950 . S
H1070 C1078 0.950 . S
H1071 C1080 0.950 . S
H1072 C1082 0.950 . S
H1073 C1084 0.950 . S
H1074 C1086 0.950 . S
H1075 C1087 0.950 . S
C1076 H1068 0.950 . S
C1076 C1077 1.386 . S
C1076 C1078 1.391 . S
C1077 C1076 1.386 . S
C1077 C1081 1.393 . S
C1078 H1070 0.950 . S
C1078 C1076 1.391 . S
C1078 C1079 1.400 . S
C1079 C1078 1.400 . S
C1079 C1080 1.398 . S
C1079 C1085 1.491 . S
C1080 H1071 0.950 . S
C1080 C1079 1.398 . S
C1080 C1081 1.391 . S
C1081 H1069 0.950 . S
C1081 C1077 1.393 . S
C1081 C1080 1.391 . S
C1082 H1072 0.950 . S
C1082 C1083 1.386 . S
C1082 C1084 1.391 . S
C1083 C1082 1.386 . S
C1083 C1087 1.393 . S
C1084 H1073 0.950 . S
C1084 C1082 1.391 . S
C1084 C1085 1.400 . S
C1085 C1079 1.491 . S
C1085 C1084 1.400 . S
C1085 C1086 1.398 . S
C1086 H1074 0.950 . S
C1086 C1085 1.398 . S
C1086 C1087 1.391 . S
C1087 H1075 0.950 . S
C1087 C1083 1.393 . S
C1087 C1086 1.391 . S
H1088 C1096 0.950 . S
H1089 C1101 0.950 . S
H1090 C1098 0.950 . S
H1091 C1100 0.950 . S
H1092 C1102 0.950 . S
H1093 C1104 0.950 . S
H1094 C1106 0.950 . S
H1095 C1107 0.950 . S
C1096 H1088 0.950 . S
C1096 C1097 1.386 . S
C1096 C1098 1.391 . S
C1097 C1096 1.386 . S
C1097 C1101 1.393 . S
C1098 H1090 0.950 . S
C1098 C1096 1.391 . S
C1098 C1099 1.400 . S
C1099 C1098 1.400 . S
C1099 C1100 1.398 . S
C1099 C1105 1.491 . S
C1100 H1091 0.950 . S
C1100 C1099 1.398 . S
C1100 C1101 1.391 . S
C1101 H1089 0.950 . S
C1101 C1097 1.393 . S
C1101 C1100 1.391 . S
C1102 H1092 0.950 . S
C1102 C1103 1.386 . S
C1102 C1104 1.391 . S
C1103 C1102 1.386 . S
C1103 C1107 1.393 . S
C1104 H1093 0.950 . S
C1104 C1102 1.391 . S
C1104 C1105 1.400 . S
C1105 C1099 1.491 . S
C1105 C1104 1.400 . S
C1105 C1106 1.398 . S
C1106 H1094 0.950 . S
C1106 C1105 1.398 . S
C1106 C1107 1.391 . S
C1107 H1095 0.950 . S
C1107 C1103 1.393 . S
C1107 C1106 1.391 . S
H1108 C1116 0.950 . S
H1109 C1121 0.950 . S
H1110 C1118 0.950 . S
H1111 C1120 0.950 . S
H1112 C1122 0.950 . S
H1113 C1124 0.950 . S
H1114 C1126 0.950 . S
H1115 C1127 0.950 . S
C1116 H1108 0.950 . S
C1116 C1117 1.386 . S
C1116 C1118 1.391 . S
C1117 C1116 1.386 . S
C1117 C1121 1.393 . S
C1118 H1110 0.950 . S
C1118 C1116 1.391 . S
C1118 C1119 1.400 . S
C1119 C1118 1.400 . S
C1119 C1120 1.398 . S
C1119 C1125 1.491 1_655 S
C1120 H1111 0.950 . S
C1120 C1119 1.398 . S
C1120 C1121 1.391 . S
C1121 H1109 0.950 . S
C1121 C1117 1.393 . S
C1121 C1120 1.391 . S
C1122 H1112 0.950 . S
C1122 C1123 1.386 . S
C1122 C1124 1.391 . S
C1123 C1122 1.386 . S
C1123 C1127 1.393 . S
C1124 H1113 0.950 . S
C1124 C1122 1.391 . S
C1124 C1125 1.400 . S
C1125 C1119 1.491 1_455 S
C1125 C1124 1.400 . S
C1125 C1126 1.398 . S
C1126 H1114 0.950 . S
C1126 C1125 1.398 . S
C1126 C1127 1.391 . S
C1127 H1115 0.950 . S
C1127 C1123 1.393 . S
C1127 C1126 1.391 . S
H1128 C1136 0.950 . S
H1129 C1141 0.950 . S
H1130 C1138 0.950 . S
H1131 C1140 0.950 . S
H1132 C1142 0.950 . S
H1133 C1144 0.950 . S
H1134 C1146 0.950 . S
H1135 C1147 0.950 . S
C1136 H1128 0.950 . S
C1136 C1137 1.386 . S
C1136 C1138 1.391 . S
C1137 C1136 1.386 . S
C1137 C1141 1.393 . S
C1138 H1130 0.950 . S
C1138 C1136 1.391 . S
C1138 C1139 1.400 . S
C1139 C1138 1.400 . S
C1139 C1140 1.398 . S
C1139 C1145 1.491 . S
C1140 H1131 0.950 . S
C1140 C1139 1.398 . S
C1140 C1141 1.391 . S
C1141 H1129 0.950 . S
C1141 C1137 1.393 . S
C1141 C1140 1.391 . S
C1142 H1132 0.950 . S
C1142 C1143 1.386 . S
C1142 C1144 1.391 . S
C1143 C1142 1.386 . S
C1143 C1147 1.393 . S
C1144 H1133 0.950 . S
C1144 C1142 1.391 . S
C1144 C1145 1.400 . S
C1145 C1139 1.491 . S
C1145 C1144 1.400 . S
C1145 C1146 1.398 . S
C1146 H1134 0.950 . S
C1146 C1145 1.398 . S
C1146 C1147 1.391 . S
C1147 H1135 0.950 . S
C1147 C1143 1.393 . S
C1147 C1146 1.391 . S
H1148 C1156 0.950 . S
H1149 C1161 0.950 . S
H1150 C1158 0.950 . S
H1151 C1160 0.950 . S
H1152 C1162 0.950 . S
H1153 C1164 0.950 . S
H1154 C1166 0.950 . S
H1155 C1167 0.950 . S
C1156 H1148 0.950 . S
C1156 C1157 1.386 . S
C1156 C1158 1.391 . S
C1157 C1156 1.386 . S
C1157 C1161 1.393 . S
C1158 H1150 0.950 . S
C1158 C1156 1.391 . S
C1158 C1159 1.400 . S
C1159 C1158 1.400 . S
C1159 C1160 1.398 . S
C1159 C1165 1.491 . S
C1160 H1151 0.950 . S
C1160 C1159 1.398 . S
C1160 C1161 1.391 . S
C1161 H1149 0.950 . S
C1161 C1157 1.393 . S
C1161 C1160 1.391 . S
C1162 H1152 0.950 . S
C1162 C1163 1.386 . S
C1162 C1164 1.391 . S
C1163 C1162 1.386 . S
C1163 C1167 1.393 . S
C1164 H1153 0.950 . S
C1164 C1162 1.391 . S
C1164 C1165 1.400 . S
C1165 C1159 1.491 . S
C1165 C1164 1.400 . S
C1165 C1166 1.398 . S
C1166 H1154 0.950 . S
C1166 C1165 1.398 . S
C1166 C1167 1.391 . S
C1167 H1155 0.950 . S
C1167 C1163 1.393 . S
C1167 C1166 1.391 . S
H1168 C1176 0.950 . S
H1169 C1181 0.950 . S
H1170 C1178 0.950 . S
H1171 C1180 0.950 . S
H1172 C1182 0.950 . S
H1173 C1184 0.950 . S
H1174 C1186 0.950 . S
H1175 C1187 0.950 . S
C1176 H1168 0.950 . S
C1176 C1177 1.386 . S
C1176 C1178 1.391 . S
C1177 C1176 1.386 . S
C1177 C1181 1.393 . S
C1178 H1170 0.950 . S
C1178 C1176 1.391 . S
C1178 C1179 1.400 . S
C1179 C1178 1.400 . S
C1179 C1180 1.398 . S
C1179 C1185 1.491 . S
C1180 H1171 0.950 . S
C1180 C1179 1.398 . S
C1180 C1181 1.391 . S
C1181 H1169 0.950 . S
C1181 C1177 1.393 . S
C1181 C1180 1.391 . S
C1182 H1172 0.950 . S
C1182 C1183 1.386 . S
C1182 C1184 1.391 . S
C1183 C1182 1.386 . S
C1183 C1187 1.393 . S
C1184 H1173 0.950 . S
C1184 C1182 1.391 . S
C1184 C1185 1.400 . S
C1185 C1179 1.491 . S
C1185 C1184 1.400 . S
C1185 C1186 1.398 . S
C1186 H1174 0.950 . S
C1186 C1185 1.398 . S
C1186 C1187 1.391 . S
C1187 H1175 0.950 . S
C1187 C1183 1.393 . S
C1187 C1186 1.391 . S
H1188 C1196 0.950 . S
H1189 C1201 0.950 . S
H1190 C1198 0.950 . S
H1191 C1200 0.950 . S
H1192 C1202 0.950 . S
H1193 C1204 0.950 . S
H1194 C1206 0.950 . S
H1195 C1207 0.950 . S
C1196 H1188 0.950 . S
C1196 C1197 1.386 . S
C1196 C1198 1.391 . S
C1197 C1196 1.386 . S
C1197 C1201 1.393 . S
C1198 H1190 0.950 . S
C1198 C1196 1.391 . S
C1198 C1199 1.400 . S
C1199 C1198 1.400 . S
C1199 C1200 1.398 . S
C1199 C1205 1.491 . S
C1200 H1191 0.950 . S
C1200 C1199 1.398 . S
C1200 C1201 1.391 . S
C1201 H1189 0.950 . S
C1201 C1197 1.393 . S
C1201 C1200 1.391 . S
C1202 H1192 0.950 . S
C1202 C1203 1.386 . S
C1202 C1204 1.391 . S
C1203 C1202 1.386 . S
C1203 C1207 1.393 . S
C1204 H1193 0.950 . S
C1204 C1202 1.391 . S
C1204 C1205 1.400 . S
C1205 C1199 1.491 . S
C1205 C1204 1.400 . S
C1205 C1206 1.398 . S
C1206 H1194 0.950 . S
C1206 C1205 1.398 . S
C1206 C1207 1.391 . S
C1207 H1195 0.950 . S
C1207 C1203 1.393 . S
C1207 C1206 1.391 . S
H1208 C1216 0.950 . S
H1209 C1221 0.950 . S
H1210 C1218 0.950 . S
H1211 C1220 0.950 . S
H1212 C1222 0.950 . S
H1213 C1224 0.950 . S
H1214 C1226 0.950 . S
H1215 C1227 0.950 . S
C1216 H1208 0.950 . S
C1216 C1217 1.386 . S
C1216 C1218 1.391 . S
C1217 C1216 1.386 . S
C1217 C1221 1.393 . S
C1218 H1210 0.950 . S
C1218 C1216 1.391 . S
C1218 C1219 1.400 . S
C1219 C1218 1.400 . S
C1219 C1220 1.398 . S
C1219 C1225 1.491 . S
C1220 H1211 0.950 . S
C1220 C1219 1.398 . S
C1220 C1221 1.391 . S
C1221 H1209 0.950 . S
C1221 C1217 1.393 . S
C1221 C1220 1.391 . S
C1222 H1212 0.950 . S
C1222 C1223 1.386 . S
C1222 C1224 1.391 . S
C1223 C1222 1.386 . S
C1223 C1227 1.393 . S
C1224 H1213 0.950 . S
C1224 C1222 1.391 . S
C1224 C1225 1.400 . S
C1225 C1219 1.491 . S
C1225 C1224 1.400 . S
C1225 C1226 1.398 . S
C1226 H1214 0.950 . S
C1226 C1225 1.398 . S
C1226 C1227 1.391 . S
C1227 H1215 0.950 . S
C1227 C1223 1.393 . S
C1227 C1226 1.391 . S
H1228 C1236 0.950 . S
H1229 C1241 0.950 . S
H1230 C1238 0.950 . S
H1231 C1240 0.950 . S
H1232 C1242 0.950 . S
H1233 C1244 0.950 . S
H1234 C1246 0.950 . S
H1235 C1247 0.950 . S
C1236 H1228 0.950 . S
C1236 C1237 1.386 . S
C1236 C1238 1.391 . S
C1237 C1236 1.386 . S
C1237 C1241 1.393 . S
C1238 H1230 0.950 . S
C1238 C1236 1.391 . S
C1238 C1239 1.400 . S
C1239 C1238 1.400 . S
C1239 C1240 1.398 . S
C1239 C1245 1.491 1_655 S
C1240 H1231 0.950 . S
C1240 C1239 1.398 . S
C1240 C1241 1.391 . S
C1241 H1229 0.950 . S
C1241 C1237 1.393 . S
C1241 C1240 1.391 . S
C1242 H1232 0.950 . S
C1242 C1243 1.386 . S
C1242 C1244 1.391 . S
C1243 C1242 1.386 . S
C1243 C1247 1.393 . S
C1244 H1233 0.950 . S
C1244 C1242 1.391 . S
C1244 C1245 1.400 . S
C1245 C1239 1.491 1_455 S
C1245 C1244 1.400 . S
C1245 C1246 1.398 . S
C1246 H1234 0.950 . S
C1246 C1245 1.398 . S
C1246 C1247 1.391 . S
C1247 H1235 0.950 . S
C1247 C1243 1.393 . S
C1247 C1246 1.391 . S
H1248 C1256 0.950 . S
H1249 C1261 0.950 . S
H1250 C1258 0.950 . S
H1251 C1260 0.950 . S
H1252 C1262 0.950 . S
H1253 C1264 0.950 . S
H1254 C1266 0.950 . S
H1255 C1267 0.950 . S
C1256 H1248 0.950 . S
C1256 C1257 1.386 . S
C1256 C1258 1.391 . S
C1257 C1256 1.386 . S
C1257 C1261 1.393 . S
C1258 H1250 0.950 . S
C1258 C1256 1.391 . S
C1258 C1259 1.400 . S
C1259 C1258 1.400 . S
C1259 C1260 1.398 . S
C1259 C1265 1.491 . S
C1260 H1251 0.950 . S
C1260 C1259 1.398 . S
C1260 C1261 1.391 . S
C1261 H1249 0.950 . S
C1261 C1257 1.393 . S
C1261 C1260 1.391 . S
C1262 H1252 0.950 . S
C1262 C1263 1.386 . S
C1262 C1264 1.391 . S
C1263 C1262 1.386 . S
C1263 C1267 1.393 . S
C1264 H1253 0.950 . S
C1264 C1262 1.391 . S
C1264 C1265 1.400 . S
C1265 C1259 1.491 . S
C1265 C1264 1.400 . S
C1265 C1266 1.398 . S
C1266 H1254 0.950 . S
C1266 C1265 1.398 . S
C1266 C1267 1.391 . S
C1267 H1255 0.950 . S
C1267 C1263 1.393 . S
C1267 C1266 1.391 . S
H1268 C1276 0.950 . S
H1269 C1281 0.950 . S
H1270 C1278 0.950 . S
H1271 C1280 0.950 . S
H1272 C1282 0.950 . S
H1273 C1284 0.950 . S
H1274 C1286 0.950 . S
H1275 C1287 0.950 . S
C1276 H1268 0.950 . S
C1276 C1277 1.386 . S
C1276 C1278 1.391 . S
C1277 C1276 1.386 . S
C1277 C1281 1.393 . S
C1278 H1270 0.950 . S
C1278 C1276 1.391 . S
C1278 C1279 1.400 . S
C1279 C1278 1.400 . S
C1279 C1280 1.398 . S
C1279 C1285 1.491 . S
C1280 H1271 0.950 . S
C1280 C1279 1.398 . S
C1280 C1281 1.391 . S
C1281 H1269 0.950 . S
C1281 C1277 1.393 . S
C1281 C1280 1.391 . S
C1282 H1272 0.950 . S
C1282 C1283 1.386 . S
C1282 C1284 1.391 . S
C1283 C1282 1.386 . S
C1283 C1287 1.393 . S
C1284 H1273 0.950 . S
C1284 C1282 1.391 . S
C1284 C1285 1.400 . S
C1285 C1279 1.491 . S
C1285 C1284 1.400 . S
C1285 C1286 1.398 . S
C1286 H1274 0.950 . S
C1286 C1285 1.398 . S
C1286 C1287 1.391 . S
C1287 H1275 0.950 . S
C1287 C1283 1.393 . S
C1287 C1286 1.391 . S
H1288 C1296 0.950 . S
H1289 C1301 0.950 . S
H1290 C1298 0.950 . S
H1291 C1300 0.950 . S
H1292 C1302 0.950 . S
H1293 C1304 0.950 . S
H1294 C1306 0.950 . S
H1295 C1307 0.950 . S
C1296 H1288 0.950 . S
C1296 C1297 1.386 . S
C1296 C1298 1.391 . S
C1297 C1296 1.386 . S
C1297 C1301 1.393 . S
C1298 H1290 0.950 . S
C1298 C1296 1.391 . S
C1298 C1299 1.400 . S
C1299 C1298 1.400 . S
C1299 C1300 1.398 . S
C1299 C1305 1.491 . S
C1300 H1291 0.950 . S
C1300 C1299 1.398 . S
C1300 C1301 1.391 . S
C1301 H1289 0.950 . S
C1301 C1297 1.393 . S
C1301 C1300 1.391 . S
C1302 H1292 0.950 . S
C1302 C1303 1.386 . S
C1302 C1304 1.391 . S
C1303 C1302 1.386 . S
C1303 C1307 1.393 . S
C1304 H1293 0.950 . S
C1304 C1302 1.391 . S
C1304 C1305 1.400 . S
C1305 C1299 1.491 . S
C1305 C1304 1.400 . S
C1305 C1306 1.398 . S
C1306 H1294 0.950 . S
C1306 C1305 1.398 . S
C1306 C1307 1.391 . S
C1307 H1295 0.950 . S
C1307 C1303 1.393 . S
C1307 C1306 1.391 . S
H1308 C1316 0.950 . S
H1309 C1321 0.950 . S
H1310 C1318 0.950 . S
H1311 C1320 0.950 . S
H1312 C1322 0.950 . S
H1313 C1324 0.950 . S
H1314 C1326 0.950 . S
H1315 C1327 0.950 . S
C1316 H1308 0.950 . S
C1316 C1317 1.386 . S
C1316 C1318 1.391 . S
C1317 C1316 1.386 . S
C1317 C1321 1.393 . S
C1318 H1310 0.950 . S
C1318 C1316 1.391 . S
C1318 C1319 1.400 . S
C1319 C1318 1.400 . S
C1319 C1320 1.398 . S
C1319 C1325 1.491 . S
C1320 H1311 0.950 . S
C1320 C1319 1.398 . S
C1320 C1321 1.391 . S
C1321 H1309 0.950 . S
C1321 C1317 1.393 . S
C1321 C1320 1.391 . S
C1322 H1312 0.950 . S
C1322 C1323 1.386 . S
C1322 C1324 1.391 . S
C1323 C1322 1.386 . S
C1323 C1327 1.393 . S
C1324 H1313 0.950 . S
C1324 C1322 1.391 . S
C1324 C1325 1.400 . S
C1325 C1319 1.491 . S
C1325 C1324 1.400 . S
C1325 C1326 1.398 . S
C1326 H1314 0.950 . S
C1326 C1325 1.398 . S
C1326 C1327 1.391 . S
C1327 H1315 0.950 . S
C1327 C1323 1.393 . S
C1327 C1326 1.391 . S
H1328 C1336 0.950 . S
H1329 C1341 0.950 . S
H1330 C1338 0.950 . S
H1331 C1340 0.950 . S
H1332 C1342 0.950 . S
H1333 C1344 0.950 . S
H1334 C1346 0.950 . S
H1335 C1347 0.950 . S
C1336 H1328 0.950 . S
C1336 C1337 1.386 . S
C1336 C1338 1.391 . S
C1337 C1336 1.386 . S
C1337 C1341 1.393 . S
C1338 H1330 0.950 . S
C1338 C1336 1.391 . S
C1338 C1339 1.400 . S
C1339 C1338 1.400 . S
C1339 C1340 1.398 . S
C1339 C1345 1.491 . S
C1340 H1331 0.950 . S
C1340 C1339 1.398 . S
C1340 C1341 1.391 . S
C1341 H1329 0.950 . S
C1341 C1337 1.393 . S
C1341 C1340 1.391 . S
C1342 H1332 0.950 . S
C1342 C1343 1.386 . S
C1342 C1344 1.391 . S
C1343 C1342 1.386 . S
C1343 C1347 1.393 . S
C1344 H1333 0.950 . S
C1344 C1342 1.391 . S
C1344 C1345 1.400 . S
C1345 C1339 1.491 . S
C1345 C1344 1.400 . S
C1345 C1346 1.398 . S
C1346 H1334 0.950 . S
C1346 C1345 1.398 . S
C1346 C1347 1.391 . S
C1347 H1335 0.950 . S
C1347 C1343 1.393 . S
C1347 C1346 1.391 . S
H1348 C1356 0.950 . S
H1349 C1361 0.950 . S
H1350 C1358 0.950 . S
H1351 C1360 0.950 . S
H1352 C1362 0.950 . S
H1353 C1364 0.950 . S
H1354 C1366 0.950 . S
H1355 C1367 0.950 . S
C1356 H1348 0.950 . S
C1356 C1357 1.386 . S
C1356 C1358 1.391 . S
C1357 C1356 1.386 . S
C1357 C1361 1.393 . S
C1358 H1350 0.950 . S
C1358 C1356 1.391 . S
C1358 C1359 1.400 . S
C1359 C1358 1.400 . S
C1359 C1360 1.398 . S
C1359 C1365 1.491 1_655 S
C1360 H1351 0.950 . S
C1360 C1359 1.398 . S
C1360 C1361 1.391 . S
C1361 H1349 0.950 . S
C1361 C1357 1.393 . S
C1361 C1360 1.391 . S
C1362 H1352 0.950 . S
C1362 C1363 1.386 . S
C1362 C1364 1.391 . S
C1363 C1362 1.386 . S
C1363 C1367 1.393 . S
C1364 H1353 0.950 . S
C1364 C1362 1.391 . S
C1364 C1365 1.400 . S
C1365 C1359 1.491 1_455 S
C1365 C1364 1.400 . S
C1365 C1366 1.398 . S
C1366 H1354 0.950 . S
C1366 C1365 1.398 . S
C1366 C1367 1.391 . S
C1367 H1355 0.950 . S
C1367 C1363 1.393 . S
C1367 C1366 1.391 . S
H1368 C1376 0.950 . S
H1369 C1381 0.950 . S
H1370 C1378 0.950 . S
H1371 C1380 0.950 . S
H1372 C1382 0.950 . S
H1373 C1384 0.950 . S
H1374 C1386 0.950 . S
H1375 C1387 0.950 . S
C1376 H1368 0.950 . S
C1376 C1377 1.386 . S
C1376 C1378 1.391 . S
C1377 C1376 1.386 . S
C1377 C1381 1.393 . S
C1378 H1370 0.950 . S
C1378 C1376 1.391 . S
C1378 C1379 1.400 . S
C1379 C1378 1.400 . S
C1379 C1380 1.398 . S
C1379 C1385 1.491 1_655 S
C1380 H1371 0.950 . S
C1380 C1379 1.398 . S
C1380 C1381 1.391 . S
C1381 H1369 0.950 . S
C1381 C1377 1.393 . S
C1381 C1380 1.391 . S
C1382 H1372 0.950 . S
C1382 C1383 1.386 . S
C1382 C1384 1.391 . S
C1383 C1382 1.386 . S
C1383 C1387 1.393 . S
C1384 H1373 0.950 . S
C1384 C1382 1.391 . S
C1384 C1385 1.400 . S
C1385 C1379 1.491 1_455 S
C1385 C1384 1.400 . S
C1385 C1386 1.398 . S
C1386 H1374 0.950 . S
C1386 C1385 1.398 . S
C1386 C1387 1.391 . S
C1387 H1375 0.950 . S
C1387 C1383 1.393 . S
C1387 C1386 1.391 . S
H1388 C1396 0.950 . S
H1389 C1401 0.950 . S
H1390 C1398 0.950 . S
H1391 C1400 0.950 . S
H1392 C1402 0.950 . S
H1393 C1404 0.950 . S
H1394 C1406 0.950 . S
H1395 C1407 0.950 . S
C1396 H1388 0.950 . S
C1396 C1397 1.386 . S
C1396 C1398 1.391 . S
C1397 C1396 1.386 . S
C1397 C1401 1.393 . S
C1398 H1390 0.950 . S
C1398 C1396 1.391 . S
C1398 C1399 1.400 . S
C1399 C1398 1.400 . S
C1399 C1400 1.398 . S
C1399 C1405 1.491 . S
C1400 H1391 0.950 . S
C1400 C1399 1.398 . S
C1400 C1401 1.391 . S
C1401 H1389 0.950 . S
C1401 C1397 1.393 . S
C1401 C1400 1.391 . S
C1402 H1392 0.950 . S
C1402 C1403 1.386 . S
C1402 C1404 1.391 . S
C1403 C1402 1.386 . S
C1403 C1407 1.393 . S
C1404 H1393 0.950 . S
C1404 C1402 1.391 . S
C1404 C1405 1.400 . S
C1405 C1399 1.491 . S
C1405 C1404 1.400 . S
C1405 C1406 1.398 . S
C1406 H1394 0.950 . S
C1406 C1405 1.398 . S
C1406 C1407 1.391 . S
C1407 H1395 0.950 . S
C1407 C1403 1.393 . S
C1407 C1406 1.391 . S
H1408 C1416 0.950 . S
H1409 C1421 0.950 . S
H1410 C1418 0.950 . S
H1411 C1420 0.950 . S
H1412 C1422 0.950 . S
H1413 C1424 0.950 . S
H1414 C1426 0.950 . S
H1415 C1427 0.950 . S
C1416 H1408 0.950 . S
C1416 C1417 1.386 . S
C1416 C1418 1.391 . S
C1417 C1416 1.386 . S
C1417 C1421 1.393 . S
C1418 H1410 0.950 . S
C1418 C1416 1.391 . S
C1418 C1419 1.400 . S
C1419 C1418 1.400 . S
C1419 C1420 1.398 . S
C1419 C1425 1.491 . S
C1420 H1411 0.950 . S
C1420 C1419 1.398 . S
C1420 C1421 1.391 . S
C1421 H1409 0.950 . S
C1421 C1417 1.393 . S
C1421 C1420 1.391 . S
C1422 H1412 0.950 . S
C1422 C1423 1.386 . S
C1422 C1424 1.391 . S
C1423 C1422 1.386 . S
C1423 C1427 1.393 . S
C1424 H1413 0.950 . S
C1424 C1422 1.391 . S
C1424 C1425 1.400 . S
C1425 C1419 1.491 . S
C1425 C1424 1.400 . S
C1425 C1426 1.398 . S
C1426 H1414 0.950 . S
C1426 C1425 1.398 . S
C1426 C1427 1.391 . S
C1427 H1415 0.950 . S
C1427 C1423 1.393 . S
C1427 C1426 1.391 . S
H1428 C1436 0.950 . S
H1429 C1441 0.950 . S
H1430 C1438 0.950 . S
H1431 C1440 0.950 . S
H1432 C1442 0.950 . S
H1433 C1444 0.950 . S
H1434 C1446 0.950 . S
H1435 C1447 0.950 . S
C1436 H1428 0.950 . S
C1436 C1437 1.386 . S
C1436 C1438 1.391 . S
C1437 C1436 1.386 . S
C1437 C1441 1.393 . S
C1438 H1430 0.950 . S
C1438 C1436 1.391 . S
C1438 C1439 1.400 . S
C1439 C1438 1.400 . S
C1439 C1440 1.398 . S
C1439 C1445 1.491 . S
C1440 H1431 0.950 . S
C1440 C1439 1.398 . S
C1440 C1441 1.391 . S
C1441 H1429 0.950 . S
C1441 C1437 1.393 . S
C1441 C1440 1.391 . S
C1442 H1432 0.950 . S
C1442 C1443 1.386 . S
C1442 C1444 1.391 . S
C1443 C1442 1.386 . S
C1443 C1447 1.393 . S
C1444 H1433 0.950 . S
C1444 C1442 1.391 . S
C1444 C1445 1.400 . S
C1445 C1439 1.491 . S
C1445 C1444 1.400 . S
C1445 C1446 1.398 . S
C1446 H1434 0.950 . S
C1446 C1445 1.398 . S
C1446 C1447 1.391 . S
C1447 H1435 0.950 . S
C1447 C1443 1.393 . S
C1447 C1446 1.391 . S
H1448 C1456 0.950 1_554 S
H1449 C1461 0.950 . S
H1450 C1458 0.950 . S
H1451 C1460 0.950 . S
H1452 C1462 0.950 . S
H1453 C1464 0.950 . S
H1454 C1466 0.950 . S
H1455 C1467 0.950 . S
C1456 H1448 0.950 1_556 S
C1456 C1457 1.386 . S
C1456 C1458 1.391 . S
C1457 C1456 1.386 . S
C1457 C1461 1.393 . S
C1458 H1450 0.950 . S
C1458 C1456 1.391 . S
C1458 C1459 1.400 . S
C1459 C1458 1.400 . S
C1459 C1460 1.398 . S
C1459 C1465 1.491 . S
C1460 H1451 0.950 . S
C1460 C1459 1.398 . S
C1460 C1461 1.391 . S
C1461 H1449 0.950 . S
C1461 C1457 1.393 . S
C1461 C1460 1.391 . S
C1462 H1452 0.950 . S
C1462 C1463 1.386 . S
C1462 C1464 1.391 . S
C1463 C1462 1.386 . S
C1463 C1467 1.393 . S
C1464 H1453 0.950 . S
C1464 C1462 1.391 . S
C1464 C1465 1.400 . S
C1465 C1459 1.491 . S
C1465 C1464 1.400 . S
C1465 C1466 1.398 . S
C1466 H1454 0.950 . S
C1466 C1465 1.398 . S
C1466 C1467 1.391 . S
C1467 H1455 0.950 . S
C1467 C1463 1.393 . S
C1467 C1466 1.391 . S
H1468 C1476 0.950 1_556 S
H1469 C1481 0.950 . S
H1470 C1478 0.950 . S
H1471 C1480 0.950 . S
H1472 C1482 0.950 . S
H1473 C1484 0.950 . S
H1474 C1486 0.950 . S
H1475 C1487 0.950 . S
C1476 H1468 0.950 1_554 S
C1476 C1477 1.386 . S
C1476 C1478 1.391 . S
C1477 C1476 1.386 . S
C1477 C1481 1.393 . S
C1478 H1470 0.950 . S
C1478 C1476 1.391 . S
C1478 C1479 1.400 . S
C1479 C1478 1.400 . S
C1479 C1480 1.398 . S
C1479 C1485 1.491 . S
C1480 H1471 0.950 . S
C1480 C1479 1.398 . S
C1480 C1481 1.391 . S
C1481 H1469 0.950 . S
C1481 C1477 1.393 . S
C1481 C1480 1.391 . S
C1482 H1472 0.950 . S
C1482 C1483 1.386 . S
C1482 C1484 1.391 . S
C1483 C1482 1.386 . S
C1483 C1487 1.393 . S
C1484 H1473 0.950 . S
C1484 C1482 1.391 . S
C1484 C1485 1.400 . S
C1485 C1479 1.491 . S
C1485 C1484 1.400 . S
C1485 C1486 1.398 . S
C1486 H1474 0.950 . S
C1486 C1485 1.398 . S
C1486 C1487 1.391 . S
C1487 H1475 0.950 . S
C1487 C1483 1.393 . S
C1487 C1486 1.391 . S
H1488 C1496 0.950 . S
H1489 C1501 0.950 . S
H1490 C1498 0.950 . S
H1491 C1500 0.950 . S
H1492 C1502 0.950 . S
H1493 C1504 0.950 . S
H1494 C1506 0.950 . S
H1495 C1507 0.950 . S
C1496 H1488 0.950 . S
C1496 C1497 1.386 . S
C1496 C1498 1.391 . S
C1497 C1496 1.386 . S
C1497 C1501 1.393 . S
C1498 H1490 0.950 . S
C1498 C1496 1.391 . S
C1498 C1499 1.400 . S
C1499 C1498 1.400 . S
C1499 C1500 1.398 . S
C1499 C1505 1.491 . S
C1500 H1491 0.950 . S
C1500 C1499 1.398 . S
C1500 C1501 1.391 . S
C1501 H1489 0.950 . S
C1501 C1497 1.393 . S
C1501 C1500 1.391 . S
C1502 H1492 0.950 . S
C1502 C1503 1.386 . S
C1502 C1504 1.391 . S
C1503 C1502 1.386 . S
C1503 C1507 1.393 . S
C1504 H1493 0.950 . S
C1504 C1502 1.391 . S
C1504 C1505 1.400 . S
C1505 C1499 1.491 . S
C1505 C1504 1.400 . S
C1505 C1506 1.398 . S
C1506 H1494 0.950 . S
C1506 C1505 1.398 . S
C1506 C1507 1.391 . S
C1507 H1495 0.950 . S
C1507 C1503 1.393 . S
C1507 C1506 1.391 . S
H1508 C1516 0.950 . S
H1509 C1521 0.950 . S
H1510 C1518 0.950 . S
H1511 C1520 0.950 . S
H1512 C1522 0.950 . S
H1513 C1524 0.950 . S
H1514 C1526 0.950 . S
H1515 C1527 0.950 . S
C1516 H1508 0.950 . S
C1516 C1517 1.386 . S
C1516 C1518 1.391 . S
C1517 C1516 1.386 . S
C1517 C1521 1.393 . S
C1518 H1510 0.950 . S
C1518 C1516 1.391 . S
C1518 C1519 1.400 . S
C1519 C1518 1.400 . S
C1519 C1520 1.398 . S
C1519 C1525 1.491 . S
C1520 H1511 0.950 . S
C1520 C1519 1.398 . S
C1520 C1521 1.391 . S
C1521 H1509 0.950 . S
C1521 C1517 1.393 . S
C1521 C1520 1.391 . S
C1522 H1512 0.950 . S
C1522 C1523 1.386 . S
C1522 C1524 1.391 . S
C1523 C1522 1.386 . S
C1523 C1527 1.393 . S
C1524 H1513 0.950 . S
C1524 C1522 1.391 . S
C1524 C1525 1.400 . S
C1525 C1519 1.491 . S
C1525 C1524 1.400 . S
C1525 C1526 1.398 . S
C1526 H1514 0.950 . S
C1526 C1525 1.398 . S
C1526 C1527 1.391 . S
C1527 H1515 0.950 . S
C1527 C1523 1.393 . S
C1527 C1526 1.391 . S
H1528 C1536 0.950 . S
H1529 C1541 0.950 . S
H1530 C1538 0.950 . S
H1531 C1540 0.950 . S
H1532 C1542 0.950 . S
H1533 C1544 0.950 . S
H1534 C1546 0.950 . S
H1535 C1547 0.950 1_556 S
C1536 H1528 0.950 . S
C1536 C1537 1.386 . S
C1536 C1538 1.391 . S
C1537 C1536 1.386 . S
C1537 C1541 1.393 . S
C1538 H1530 0.950 . S
C1538 C1536 1.391 . S
C1538 C1539 1.400 . S
C1539 C1538 1.400 . S
C1539 C1540 1.398 . S
C1539 C1545 1.491 . S
C1540 H1531 0.950 . S
C1540 C1539 1.398 . S
C1540 C1541 1.391 . S
C1541 H1529 0.950 . S
C1541 C1537 1.393 . S
C1541 C1540 1.391 . S
C1542 H1532 0.950 . S
C1542 C1543 1.386 . S
C1542 C1544 1.391 . S
C1543 C1542 1.386 . S
C1543 C1547 1.393 . S
C1544 H1533 0.950 . S
C1544 C1542 1.391 . S
C1544 C1545 1.400 . S
C1545 C1539 1.491 . S
C1545 C1544 1.400 . S
C1545 C1546 1.398 . S
C1546 H1534 0.950 . S
C1546 C1545 1.398 . S
C1546 C1547 1.391 . S
C1547 H1535 0.950 1_554 S
C1547 C1543 1.393 . S
C1547 C1546 1.391 . S
H1548 C1556 0.950 . S
H1549 C1561 0.950 . S
H1550 C1558 0.950 . S
H1551 C1560 0.950 . S
H1552 C1562 0.950 . S
H1553 C1564 0.950 . S
H1554 C1566 0.950 . S
H1555 C1567 0.950 . S
C1556 H1548 0.950 . S
C1556 C1557 1.386 . S
C1556 C1558 1.391 . S
C1557 C1556 1.386 . S
C1557 C1561 1.393 . S
C1558 H1550 0.950 . S
C1558 C1556 1.391 . S
C1558 C1559 1.400 . S
C1559 C1558 1.400 . S
C1559 C1560 1.398 . S
C1559 C1565 1.491 . S
C1560 H1551 0.950 . S
C1560 C1559 1.398 . S
C1560 C1561 1.391 . S
C1561 H1549 0.950 . S
C1561 C1557 1.393 . S
C1561 C1560 1.391 . S
C1562 H1552 0.950 . S
C1562 C1563 1.386 . S
C1562 C1564 1.391 . S
C1563 C1562 1.386 . S
C1563 C1567 1.393 . S
C1564 H1553 0.950 . S
C1564 C1562 1.391 . S
C1564 C1565 1.400 . S
C1565 C1559 1.491 . S
C1565 C1564 1.400 . S
C1565 C1566 1.398 . S
C1566 H1554 0.950 . S
C1566 C1565 1.398 . S
C1566 C1567 1.391 . S
C1567 H1555 0.950 . S
C1567 C1563 1.393 . S
C1567 C1566 1.391 . S
H1568 C1576 0.950 . S
H1569 C1581 0.950 1_554 S
H1570 C1578 0.950 . S
H1571 C1580 0.950 . S
H1572 C1582 0.950 . S
H1573 C1584 0.950 . S
H1574 C1586 0.950 . S
H1575 C1587 0.950 . S
C1576 H1568 0.950 . S
C1576 C1577 1.386 . S
C1576 C1578 1.391 . S
C1577 C1576 1.386 . S
C1577 C1581 1.393 . S
C1578 H1570 0.950 . S
C1578 C1576 1.391 . S
C1578 C1579 1.400 . S
C1579 C1578 1.400 . S
C1579 C1580 1.398 . S
C1579 C1585 1.491 . S
C1580 H1571 0.950 . S
C1580 C1579 1.398 . S
C1580 C1581 1.391 . S
C1581 H1569 0.950 1_556 S
C1581 C1577 1.393 . S
C1581 C1580 1.391 . S
C1582 H1572 0.950 . S
C1582 C1583 1.386 . S
C1582 C1584 1.391 . S
C1583 C1582 1.386 . S
C1583 C1587 1.393 . S
C1584 H1573 0.950 . S
C1584 C1582 1.391 . S
C1584 C1585 1.400 . S
C1585 C1579 1.491 . S
C1585 C1584 1.400 . S
C1585 C1586 1.398 . S
C1586 H1574 0.950 . S
C1586 C1585 1.398 . S
C1586 C1587 1.391 . S
C1587 H1575 0.950 . S
C1587 C1583 1.393 . S
C1587 C1586 1.391 . S
H1588 C1596 0.950 . S
H1589 C1601 0.950 . S
H1590 C1598 0.950 . S
H1591 C1600 0.950 . S
H1592 C1602 0.950 1_556 S
H1593 C1604 0.950 . S
H1594 C1606 0.950 . S
H1595 C1607 0.950 . S
C1596 H1588 0.950 . S
C1596 C1597 1.386 . S
C1596 C1598 1.391 . S
C1597 C1596 1.386 . S
C1597 C1601 1.393 . S
C1598 H1590 0.950 . S
C1598 C1596 1.391 . S
C1598 C1599 1.400 . S
C1599 C1598 1.400 . S
C1599 C1600 1.398 . S
C1599 C1605 1.491 . S
C1600 H1591 0.950 . S
C1600 C1599 1.398 . S
C1600 C1601 1.391 . S
C1601 H1589 0.950 . S
C1601 C1597 1.393 . S
C1601 C1600 1.391 . S
C1602 H1592 0.950 1_554 S
C1602 C1603 1.386 . S
C1602 C1604 1.391 . S
C1603 C1602 1.386 . S
C1603 C1607 1.393 . S
C1604 H1593 0.950 . S
C1604 C1602 1.391 . S
C1604 C1605 1.400 . S
C1605 C1599 1.491 . S
C1605 C1604 1.400 . S
C1605 C1606 1.398 . S
C1606 H1594 0.950 . S
C1606 C1605 1.398 . S
C1606 C1607 1.391 . S
C1607 H1595 0.950 . S
C1607 C1603 1.393 . S
C1607 C1606 1.391 . S
H1608 C1616 0.950 . S
H1609 C1621 0.950 . S
H1610 C1618 0.950 . S
H1611 C1620 0.950 . S
H1612 C1622 0.950 . S
H1613 C1624 0.950 . S
H1614 C1626 0.950 . S
H1615 C1627 0.950 . S
C1616 H1608 0.950 . S
C1616 C1617 1.386 . S
C1616 C1618 1.391 . S
C1617 C1616 1.386 . S
C1617 C1621 1.393 . S
C1618 H1610 0.950 . S
C1618 C1616 1.391 . S
C1618 C1619 1.400 . S
C1619 C1618 1.400 . S
C1619 C1620 1.398 . S
C1619 C1625 1.491 . S
C1620 H1611 0.950 . S
C1620 C1619 1.398 . S
C1620 C1621 1.391 . S
C1621 H1609 0.950 . S
C1621 C1617 1.393 . S
C1621 C1620 1.391 . S
C1622 H1612 0.950 . S
C1622 C1623 1.386 . S
C1622 C1624 1.391 . S
C1623 C1622 1.386 . S
C1623 C1627 1.393 . S
C1624 H1613 0.950 . S
C1624 C1622 1.391 . S
C1624 C1625 1.400 . S
C1625 C1619 1.491 . S
C1625 C1624 1.400 . S
C1625 C1626 1.398 . S
C1626 H1614 0.950 . S
C1626 C1625 1.398 . S
C1626 C1627 1.391 . S
C1627 H1615 0.950 . S
C1627 C1623 1.393 . S
C1627 C1626 1.391 . S
H1628 C1636 0.950 . S
H1629 C1641 0.950 . S
H1630 C1638 0.950 . S
H1631 C1640 0.950 . S
H1632 C1642 0.950 . S
H1633 C1644 0.950 . S
H1634 C1646 0.950 . S
H1635 C1647 0.950 . S
C1636 H1628 0.950 . S
C1636 C1637 1.386 . S
C1636 C1638 1.391 . S
C1637 C1636 1.386 . S
C1637 C1641 1.393 . S
C1638 H1630 0.950 . S
C1638 C1636 1.391 . S
C1638 C1639 1.400 . S
C1639 C1638 1.400 . S
C1639 C1640 1.398 . S
C1639 C1645 1.491 . S
C1640 H1631 0.950 . S
C1640 C1639 1.398 . S
C1640 C1641 1.391 . S
C1641 H1629 0.950 . S
C1641 C1637 1.393 . S
C1641 C1640 1.391 . S
C1642 H1632 0.950 . S
C1642 C1643 1.386 . S
C1642 C1644 1.391 . S
C1643 C1642 1.386 . S
C1643 C1647 1.393 . S
C1644 H1633 0.950 . S
C1644 C1642 1.391 . S
C1644 C1645 1.400 . S
C1645 C1639 1.491 . S
C1645 C1644 1.400 . S
C1645 C1646 1.398 . S
C1646 H1634 0.950 . S
C1646 C1645 1.398 . S
C1646 C1647 1.391 . S
C1647 H1635 0.950 . S
C1647 C1643 1.393 . S
C1647 C1646 1.391 . S
H1648 C1656 0.950 . S
H1649 C1661 0.950 . S
H1650 C1658 0.950 . S
H1651 C1660 0.950 . S
H1652 C1662 0.950 1_556 S
H1653 C1664 0.950 . S
H1654 C1666 0.950 . S
H1655 C1667 0.950 . S
C1656 H1648 0.950 . S
C1656 C1657 1.386 . S
C1656 C1658 1.391 . S
C1657 C1656 1.386 . S
C1657 C1661 1.393 . S
C1658 H1650 0.950 . S
C1658 C1656 1.391 . S
C1658 C1659 1.400 . S
C1659 C1658 1.400 . S
C1659 C1660 1.398 . S
C1659 C1665 1.491 . S
C1660 H1651 0.950 . S
C1660 C1659 1.398 . S
C1660 C1661 1.391 . S
C1661 H1649 0.950 . S
C1661 C1657 1.393 . S
C1661 C1660 1.391 . S
C1662 H1652 0.950 1_554 S
C1662 C1663 1.386 . S
C1662 C1664 1.391 . S
C1663 C1662 1.386 . S
C1663 C1667 1.393 . S
C1664 H1653 0.950 . S
C1664 C1662 1.391 . S
C1664 C1665 1.400 . S
C1665 C1659 1.491 . S
C1665 C1664 1.400 . S
C1665 C1666 1.398 . S
C1666 H1654 0.950 . S
C1666 C1665 1.398 . S
C1666 C1667 1.391 . S
C1667 H1655 0.950 . S
C1667 C1663 1.393 . S
C1667 C1666 1.391 . S
H1668 C1676 0.950 1_554 S
H1669 C1681 0.950 . S
H1670 C1678 0.950 . S
H1671 C1680 0.950 . S
H1672 C1682 0.950 . S
H1673 C1684 0.950 . S
H1674 C1686 0.950 . S
H1675 C1687 0.950 . S
C1676 H1668 0.950 1_556 S
C1676 C1677 1.386 . S
C1676 C1678 1.391 . S
C1677 C1676 1.386 . S
C1677 C1681 1.393 . S
C1678 H1670 0.950 . S
C1678 C1676 1.391 . S
C1678 C1679 1.400 . S
C1679 C1678 1.400 . S
C1679 C1680 1.398 . S
C1679 C1685 1.491 . S
C1680 H1671 0.950 . S
C1680 C1679 1.398 . S
C1680 C1681 1.391 . S
C1681 H1669 0.950 . S
C1681 C1677 1.393 . S
C1681 C1680 1.391 . S
C1682 H1672 0.950 . S
C1682 C1683 1.386 . S
C1682 C1684 1.391 . S
C1683 C1682 1.386 . S
C1683 C1687 1.393 . S
C1684 H1673 0.950 . S
C1684 C1682 1.391 . S
C1684 C1685 1.400 . S
C1685 C1679 1.491 . S
C1685 C1684 1.400 . S
C1685 C1686 1.398 . S
C1686 H1674 0.950 . S
C1686 C1685 1.398 . S
C1686 C1687 1.391 . S
C1687 H1675 0.950 . S
C1687 C1683 1.393 . S
C1687 C1686 1.391 . S
H1688 C1696 0.950 . S
H1689 C1701 0.950 . S
H1690 C1698 0.950 . S
H1691 C1700 0.950 . S
H1692 C1702 0.950 . S
H1693 C1704 0.950 . S
H1694 C1706 0.950 . S
H1695 C1707 0.950 . S
C1696 H1688 0.950 . S
C1696 C1697 1.386 . S
C1696 C1698 1.391 . S
C1697 C1696 1.386 . S
C1697 C1701 1.393 . S
C1698 H1690 0.950 . S
C1698 C1696 1.391 . S
C1698 C1699 1.400 . S
C1699 C1698 1.400 . S
C1699 C1700 1.398 . S
C1699 C1705 1.491 . S
C1700 H1691 0.950 . S
C1700 C1699 1.398 . S
C1700 C1701 1.391 . S
C1701 H1689 0.950 . S
C1701 C1697 1.393 . S
C1701 C1700 1.391 . S
C1702 H1692 0.950 . S
C1702 C1703 1.386 . S
C1702 C1704 1.391 . S
C1703 C1702 1.386 . S
C1703 C1707 1.393 . S
C1704 H1693 0.950 . S
C1704 C1702 1.391 . S
C1704 C1705 1.400 . S
C1705 C1699 1.491 . S
C1705 C1704 1.400 . S
C1705 C1706 1.398 . S
C1706 H1694 0.950 . S
C1706 C1705 1.398 . S
C1706 C1707 1.391 . S
C1707 H1695 0.950 . S
C1707 C1703 1.393 . S
C1707 C1706 1.391 . S
H1708 C1716 0.950 . S
H1709 C1721 0.950 . S
H1710 C1718 0.950 . S
H1711 C1720 0.950 . S
H1712 C1722 0.950 . S
H1713 C1724 0.950 . S
H1714 C1726 0.950 . S
H1715 C1727 0.950 . S
C1716 H1708 0.950 . S
C1716 C1717 1.386 . S
C1716 C1718 1.391 . S
C1717 C1716 1.386 . S
C1717 C1721 1.393 . S
C1718 H1710 0.950 . S
C1718 C1716 1.391 . S
C1718 C1719 1.400 . S
C1719 C1718 1.400 . S
C1719 C1720 1.398 . S
C1719 C1725 1.491 . S
C1720 H1711 0.950 . S
C1720 C1719 1.398 . S
C1720 C1721 1.391 . S
C1721 H1709 0.950 . S
C1721 C1717 1.393 . S
C1721 C1720 1.391 . S
C1722 H1712 0.950 . S
C1722 C1723 1.386 . S
C1722 C1724 1.391 . S
C1723 C1722 1.386 . S
C1723 C1727 1.393 . S
C1724 H1713 0.950 . S
C1724 C1722 1.391 . S
C1724 C1725 1.400 . S
C1725 C1719 1.491 . S
C1725 C1724 1.400 . S
C1725 C1726 1.398 . S
C1726 H1714 0.950 . S
C1726 C1725 1.398 . S
C1726 C1727 1.391 . S
C1727 H1715 0.950 . S
C1727 C1723 1.393 . S
C1727 C1726 1.391 . S
C457 C89 1.488 . S
C463 C5 1.485 . S
C477 C19 1.489 . S
C483 C103 1.488 . S
C497 C61 1.486 . S
C503 C33 1.484 . S
C517 C47 1.489 . S
C523 C75 1.488 . S
C537 C117 1.489 . S
C543 C201 1.487 . S
C557 C215 1.488 . S
C563 C131 1.489 . S
C577 C145 1.487 . S
C583 C173 1.489 . S
C597 C187 1.485 . S
C603 C159 1.488 . S
C617 C229 1.488 . S
C623 C313 1.484 . S
C637 C243 1.488 . S
C643 C327 1.485 . S
C657 C285 1.484 . S
C663 C257 1.488 . S
C677 C299 1.485 . S
C683 C271 1.485 . S
C697 C341 1.488 . S
C703 C425 1.485 . S
C717 C355 1.486 . S
C723 C439 1.484 . S
C737 C397 1.488 . S
C743 C369 1.489 . S
C757 C383 1.488 . S
C763 C411 1.484 . S
C777 C11 1.467 1_556 S
C783 C109 1.472 . S
C797 C67 1.475 1_554 S
C803 C25 1.467 . S
C817 C81 1.467 . S
C823 C39 1.473 . S
C837 C53 1.476 . S
C843 C95 1.470 . S
C857 C123 1.475 1_554 S
C863 C221 1.473 . S
C877 C179 1.476 1_556 S
C883 C137 1.469 . S
C897 C193 1.467 . S
C903 C151 1.472 . S
C917 C207 1.467 . S
C923 C165 1.472 . S
C937 C235 1.468 . S
C943 C333 1.476 . S
C957 C249 1.469 . S
C963 C291 1.468 . S
C977 C305 1.468 . S
C983 C263 1.469 1_556 S
C997 C277 1.470 . S
C1003 C319 1.467 1_554 S
C1017 C347 1.474 . S
C1023 C445 1.467 . S
C1037 C403 1.469 . S
C1043 C361 1.476 . S
C1057 C375 1.471 1_554 S
C1063 C417 1.467 . S
C1077 C389 1.468 . S
C1083 C431 1.470 1_556 S
C1097 C420 1.473 . S
C1103 C0 1.489 . S
C1117 C210 1.481 . S
C1123 C14 1.480 . S
C1137 C28 1.487 . S
C1143 C392 1.475 . S
C1157 C42 1.488 . S
C1163 C182 1.474 . S
C1177 C56 1.473 . S
C1183 C364 1.489 . S
C1197 C70 1.473 . S
C1203 C154 1.489 . S
C1217 C84 1.482 . S
C1223 C336 1.479 . S
C1237 C126 1.481 . S
C1243 C98 1.481 . S
C1257 C308 1.489 . S
C1263 C112 1.473 . S
C1277 C140 1.473 . S
C1283 C280 1.488 . S
C1297 C252 1.481 . S
C1303 C168 1.480 . S
C1317 C224 1.473 . S
C1323 C196 1.489 . S
C1337 C238 1.473 . S
C1343 C434 1.489 . S
C1357 C266 1.477 . S
C1363 C406 1.485 . S
C1377 C294 1.474 . S
C1383 C378 1.488 . S
C1397 C350 1.489 . S
C1403 C322 1.473 . S
C1417 C9 1.480 . S
C1423 C107 1.479 . S
C1437 C23 1.480 . S
C1443 C65 1.480 . S
C1457 C79 1.480 1_556 S
C1463 C37 1.480 . S
C1477 C51 1.479 1_554 S
C1483 C93 1.480 . S
C1497 C219 1.480 . S
C1503 C121 1.479 . S
C1517 C177 1.480 . S
C1523 C135 1.480 . S
C1537 C149 1.480 . S
C1543 C191 1.480 1_554 S
C1557 C205 1.480 . S
C1563 C163 1.480 1_556 S
C1577 C331 1.480 1_556 S
C1583 C233 1.479 . S
C1597 C289 1.479 . S
C1603 C247 1.479 1_554 S
C1617 C303 1.480 . S
C1623 C261 1.480 . S
C1637 C317 1.479 . S
C1643 C275 1.480 . S
C1657 C345 1.480 . S
C1663 C443 1.479 1_554 S
C1677 C359 1.480 1_556 S
C1683 C401 1.479 . S
C1697 C373 1.479 . S
C1703 C415 1.479 . S
C1717 C429 1.480 . S
C1723 C387 1.480 . S
