# Generated by pormake.
# Topology gsi, (4)-cn, num edge types: 1
# Building blocks:
#     Node 0, Type 0, BuildingBlock: QUQFOY_clean_sbu_1, # of connection points: 4
#     Node 1, Type 0, BuildingBlock: QUQFOY_clean_sbu_1, # of connection points: 4
#     Node 2, Type 0, BuildingBlock: QUQFOY_clean_sbu_1, # of connection points: 4
#     Node 3, Type 0, BuildingBlock: QUQFOY_clean_sbu_1, # of connection points: 4
#     Node 4, Type 0, BuildingBlock: QUQFOY_clean_sbu_1, # of connection points: 4
#     Node 5, Type 0, BuildingBlock: QUQFOY_clean_sbu_1, # of connection points: 4
#     Node 6, Type 0, BuildingBlock: QUQFOY_clean_sbu_1, # of connection points: 4
#     Node 7, Type 0, BuildingBlock: QUQFOY_clean_sbu_1, # of connection points: 4
#     Node 8, Type 0, BuildingBlock: QUQFOY_clean_sbu_1, # of connection points: 4
#     Node 9, Type 0, BuildingBlock: QUQFOY_clean_sbu_1, # of connection points: 4
#     Node 10, Type 0, BuildingBlock: QUQFOY_clean_sbu_1, # of connection points: 4
#     Node 11, Type 0, BuildingBlock: QUQFOY_clean_sbu_1, # of connection points: 4
#     Node 12, Type 0, BuildingBlock: QUQFOY_clean_sbu_1, # of connection points: 4
#     Node 13, Type 0, BuildingBlock: QUQFOY_clean_sbu_1, # of connection points: 4
#     Node 14, Type 0, BuildingBlock: QUQFOY_clean_sbu_1, # of connection points: 4
#     Node 15, Type 0, BuildingBlock: QUQFOY_clean_sbu_1, # of connection points: 4
#     Edge 16, Type (0, 0), BuildingBlock: CIFDUS_clean_linker_0, # of connection points: 2
#     Edge 17, Type (0, 0), BuildingBlock: CIFDUS_clean_linker_0, # of connection points: 2
#     Edge 18, Type (0, 0), BuildingBlock: CIFDUS_clean_linker_0, # of connection points: 2
#     Edge 19, Type (0, 0), BuildingBlock: CIFDUS_clean_linker_0, # of connection points: 2
#     Edge 20, Type (0, 0), BuildingBlock: CIFDUS_clean_linker_0, # of connection points: 2
#     Edge 21, Type (0, 0), BuildingBlock: CIFDUS_clean_linker_0, # of connection points: 2
#     Edge 22, Type (0, 0), BuildingBlock: CIFDUS_clean_linker_0, # of connection points: 2
#     Edge 23, Type (0, 0), BuildingBlock: CIFDUS_clean_linker_0, # of connection points: 2
#     Edge 24, Type (0, 0), BuildingBlock: CIFDUS_clean_linker_0, # of connection points: 2
#     Edge 25, Type (0, 0), BuildingBlock: CIFDUS_clean_linker_0, # of connection points: 2
#     Edge 26, Type (0, 0), BuildingBlock: CIFDUS_clean_linker_0, # of connection points: 2
#     Edge 27, Type (0, 0), BuildingBlock: CIFDUS_clean_linker_0, # of connection points: 2
#     Edge 28, Type (0, 0), BuildingBlock: CIFDUS_clean_linker_0, # of connection points: 2
#     Edge 29, Type (0, 0), BuildingBlock: CIFDUS_clean_linker_0, # of connection points: 2
#     Edge 30, Type (0, 0), BuildingBlock: CIFDUS_clean_linker_0, # of connection points: 2
#     Edge 31, Type (0, 0), BuildingBlock: CIFDUS_clean_linker_0, # of connection points: 2
#     Edge 32, Type (0, 0), BuildingBlock: CIFDUS_clean_linker_0, # of connection points: 2
#     Edge 33, Type (0, 0), BuildingBlock: CIFDUS_clean_linker_0, # of connection points: 2
#     Edge 34, Type (0, 0), BuildingBlock: CIFDUS_clean_linker_0, # of connection points: 2
#     Edge 35, Type (0, 0), BuildingBlock: CIFDUS_clean_linker_0, # of connection points: 2
#     Edge 36, Type (0, 0), BuildingBlock: CIFDUS_clean_linker_0, # of connection points: 2
#     Edge 37, Type (0, 0), BuildingBlock: CIFDUS_clean_linker_0, # of connection points: 2
#     Edge 38, Type (0, 0), BuildingBlock: CIFDUS_clean_linker_0, # of connection points: 2
#     Edge 39, Type (0, 0), BuildingBlock: CIFDUS_clean_linker_0, # of connection points: 2
#     Edge 40, Type (0, 0), BuildingBlock: CIFDUS_clean_linker_0, # of connection points: 2
#     Edge 41, Type (0, 0), BuildingBlock: CIFDUS_clean_linker_0, # of connection points: 2
#     Edge 42, Type (0, 0), BuildingBlock: CIFDUS_clean_linker_0, # of connection points: 2
#     Edge 43, Type (0, 0), BuildingBlock: CIFDUS_clean_linker_0, # of connection points: 2
#     Edge 44, Type (0, 0), BuildingBlock: CIFDUS_clean_linker_0, # of connection points: 2
#     Edge 45, Type (0, 0), BuildingBlock: CIFDUS_clean_linker_0, # of connection points: 2
#     Edge 46, Type (0, 0), BuildingBlock: CIFDUS_clean_linker_0, # of connection points: 2
#     Edge 47, Type (0, 0), BuildingBlock: CIFDUS_clean_linker_0, # of connection points: 2
# Relax obj value: 0.159
# Max RMSD: 0.224
# Mean RMSD: 0.174
data_MOF--net-gsi--node1-QUQFOY_clean_sbu_1--edge1-CIFDUS_clean_linker_0
_symmetry_space_group_name_H-M    P1
_symmetry_Int_Tables_number       1
_symmetry_cell_setting            triclinic
loop_
_symmetry_equiv_pos_as_xyz
'x, y, z'
_cell_length_a     32.802794
_cell_length_b     40.340139
_cell_length_c     42.452929
_cell_angle_alpha  89.863456
_cell_angle_beta   90.217098
_cell_angle_gamma 99.870439
loop_
_atom_site_label
_atom_site_type_symbol
_atom_site_fract_x
_atom_site_fract_y
_atom_site_fract_z
_atom_type_partial_charge
O0 O 0.11153 0.21062 0.1414 0.0
Cd1 Cd 0.16072 0.18534 0.14732 0.0
Cd2 Cd 0.10576 0.1535 0.18927 0.0
O3 O 0.06243 0.17471 0.16449 0.0
O4 O 0.19913 0.20729 0.1145 0.0
O5 O 0.17377 0.15306 0.11356 0.0
C6 C 0.19649 0.17872 0.10061 0.0
C7 C 0.09762 0.09793 0.20627 0.0
C8 C 0.07366 0.20127 0.14833 0.0
C9 C 0.18035 0.1983 0.21454 0.0
O10 O 0.14291 0.18521 0.2194 0.0
O11 O 0.19586 0.1971 0.1873 0.0
O12 O 0.07681 0.11894 0.21865 0.0
O13 O 0.12056 0.10776 0.18217 0.0
O14 O 0.84908 0.29317 0.13378 0.0
Cd15 Cd 0.80013 0.31913 0.13726 0.0
Cd16 Cd 0.85398 0.35387 0.17701 0.0
O17 O 0.8978 0.33053 0.15568 0.0
O18 O 0.76223 0.29751 0.1039 0.0
O19 O 0.78914 0.3515 0.10285 0.0
C20 C 0.76605 0.32609 0.08975 0.0
C21 C 0.86072 0.41081 0.18784 0.0
C22 C 0.88682 0.3029 0.14113 0.0
C23 C 0.7795 0.31111 0.20456 0.0
O24 O 0.81666 0.32522 0.20909 0.0
O25 O 0.76429 0.30947 0.17696 0.0
O26 O 0.88128 0.39173 0.20354 0.0
O27 O 0.83888 0.39809 0.16399 0.0
O28 O 0.11052 0.83478 0.36464 0.0
Cd29 Cd 0.17317 0.85362 0.36462 0.0
Cd30 Cd 0.14889 0.87392 0.30188 0.0
O31 O 0.0954 0.84293 0.31468 0.0
O32 O 0.18655 0.83284 0.40494 0.0
O33 O 0.20019 0.88752 0.39751 0.0
C34 C 0.20127 0.8621 0.41578 0.0
C35 C 0.1417 0.92319 0.27479 0.0
C36 C 0.0854 0.83038 0.34159 0.0
C37 C 0.21352 0.82998 0.30594 0.0
O38 O 0.19474 0.84833 0.28872 0.0
O39 O 0.20881 0.82908 0.33562 0.0
O40 O 0.13503 0.89435 0.26109 0.0
O41 O 0.15295 0.92435 0.304 0.0
O42 O 0.86851 0.68252 0.35414 0.0
Cd43 Cd 0.80669 0.66205 0.3569 0.0
Cd44 Cd 0.82715 0.63033 0.29981 0.0
O45 O 0.88177 0.66259 0.30758 0.0
O46 O 0.7921 0.68453 0.39591 0.0
O47 O 0.78248 0.62942 0.39149 0.0
C48 C 0.7796 0.65552 0.40829 0.0
C49 C 0.83359 0.57719 0.28043 0.0
C50 C 0.89288 0.68137 0.33114 0.0
C51 C 0.76286 0.67469 0.29597 0.0
O52 O 0.78032 0.6529 0.28234 0.0
O53 O 0.76967 0.68148 0.32492 0.0
O54 O 0.84032 0.60356 0.26285 0.0
O55 O 0.8225 0.58077 0.30921 0.0
O56 O 0.38059 0.81536 0.63367 0.0
Cd57 Cd 0.32722 0.8362 0.63582 0.0
Cd58 Cd 0.37297 0.86807 0.68368 0.0
O59 O 0.42251 0.85132 0.66311 0.0
O60 O 0.2951 0.81153 0.60091 0.0
O61 O 0.31228 0.86674 0.60087 0.0
C62 C 0.29411 0.83973 0.58706 0.0
C63 C 0.3712 0.92325 0.69824 0.0
C64 C 0.41646 0.82606 0.64477 0.0
C65 C 0.2988 0.81862 0.70095 0.0
O66 O 0.33437 0.83303 0.70984 0.0
O67 O 0.28764 0.82082 0.67248 0.0
O68 O 0.39183 0.90461 0.71445 0.0
O69 O 0.35381 0.91125 0.67232 0.0
O70 O 0.81257 0.91835 0.85034 0.0
Cd71 Cd 0.80228 0.87436 0.87629 0.0
Cd72 Cd 0.8695 0.86597 0.8441 0.0
O73 O 0.87474 0.91633 0.83158 0.0
O74 O 0.76671 0.88325 0.91213 0.0
O75 O 0.82843 0.86878 0.91845 0.0
C76 C 0.79533 0.87651 0.93078 0.0
C77 C 0.92309 0.83657 0.85572 0.0
C78 C 0.84397 0.93153 0.83438 0.0
C79 C 0.78778 0.82184 0.82832 0.0
O80 O 0.82446 0.83413 0.82027 0.0
O81 O 0.77214 0.83257 0.85279 0.0
O82 O 0.91876 0.84879 0.82807 0.0
O83 O 0.89991 0.84447 0.87807 0.0
O84 O 0.14996 0.59086 0.84576 0.0
Cd85 Cd 0.16629 0.63366 0.87256 0.0
Cd86 Cd 0.09886 0.6501 0.84117 0.0
O87 O 0.08814 0.59911 0.83013 0.0
O88 O 0.19997 0.62121 0.90839 0.0
O89 O 0.14101 0.64029 0.91454 0.0
C90 C 0.17258 0.62985 0.92697 0.0
C91 C 0.0451 0.68172 0.84471 0.0
C92 C 0.11603 0.58074 0.83145 0.0
C93 C 0.18555 0.68803 0.8266 0.0
O94 O 0.14782 0.67945 0.81884 0.0
O95 O 0.20012 0.67433 0.85006 0.0
O96 O 0.05308 0.66726 0.81904 0.0
O97 O 0.06528 0.67577 0.86967 0.0
O98 O 0.89797 0.15823 0.66021 0.0
Cd99 Cd 0.85221 0.13993 0.69194 0.0
Cd100 Cd 0.80215 0.15805 0.63988 0.0
O101 O 0.85931 0.18695 0.63194 0.0
O102 O 0.88352 0.12161 0.72668 0.0
O103 O 0.8321 0.09065 0.70072 0.0
C104 C 0.86004 0.09294 0.72251 0.0
C105 C 0.76116 0.14795 0.59418 0.0
C106 C 0.89461 0.18102 0.64015 0.0
C107 C 0.78728 0.1821 0.70424 0.0
O108 O 0.77094 0.17068 0.67846 0.0
O109 O 0.82216 0.1754 0.71283 0.0
O110 O 0.76821 0.17691 0.60745 0.0
O111 O 0.7773 0.12406 0.60671 0.0
O112 O 0.07852 0.35225 0.6688 0.0
Cd113 Cd 0.12877 0.37066 0.69682 0.0
Cd114 Cd 0.17218 0.35224 0.64436 0.0
O115 O 0.11372 0.32646 0.63526 0.0
O116 O 0.10609 0.39535 0.7317 0.0
O117 O 0.15487 0.4195 0.69913 0.0
C118 C 0.13135 0.42187 0.7231 0.0
C119 C 0.20983 0.37004 0.59867 0.0
C120 C 0.07949 0.33165 0.64632 0.0
C121 C 0.18985 0.32414 0.70722 0.0
O122 O 0.20327 0.33249 0.6798 0.0
O123 O 0.15848 0.33498 0.718 0.0
O124 O 0.20334 0.33911 0.60748 0.0
O125 O 0.19565 0.39156 0.61614 0.0
O126 O 0.63027 0.09159 0.34337 0.0
Cd127 Cd 0.64445 0.13528 0.36915 0.0
Cd128 Cd 0.57032 0.13989 0.34996 0.0
O129 O 0.56263 0.08846 0.34214 0.0
O130 O 0.69391 0.1289 0.39442 0.0
O131 O 0.63477 0.13635 0.41589 0.0
C132 C 0.67233 0.13119 0.41938 0.0
C133 C 0.52952 0.17043 0.37859 0.0
C134 C 0.59461 0.07562 0.33632 0.0
C135 C 0.63888 0.18549 0.31978 0.0
O136 O 0.60253 0.16926 0.31561 0.0
O137 O 0.66031 0.1787 0.34319 0.0
O138 O 0.51585 0.15505 0.35304 0.0
O139 O 0.56488 0.1657 0.38962 0.0
O140 O 0.60376 0.70406 0.62774 0.0
Cd141 Cd 0.65727 0.68331 0.62872 0.0
Cd142 Cd 0.61147 0.64762 0.67418 0.0
O143 O 0.5619 0.66557 0.6546 0.0
O144 O 0.68889 0.70824 0.59367 0.0
O145 O 0.67119 0.65304 0.59347 0.0
C146 C 0.68913 0.68011 0.57958 0.0
C147 C 0.61223 0.59184 0.68751 0.0
C148 C 0.56787 0.6923 0.63809 0.0
C149 C 0.68489 0.69694 0.69451 0.0
O150 O 0.64957 0.68106 0.70223 0.0
O151 O 0.69661 0.69727 0.66604 0.0
O152 O 0.59169 0.61021 0.70389 0.0
O153 O 0.63002 0.60445 0.662 0.0
O154 O 0.60994 0.32619 0.85617 0.0
Cd155 Cd 0.67154 0.34728 0.8613 0.0
Cd156 Cd 0.653 0.37411 0.8009 0.0
O157 O 0.59706 0.34408 0.80858 0.0
O158 O 0.68145 0.3254 0.9019 0.0
O159 O 0.69267 0.38044 0.89637 0.0
C160 C 0.69292 0.35455 0.91419 0.0
C161 C 0.64989 0.42761 0.78063 0.0
C162 C 0.58567 0.32649 0.83282 0.0
C163 C 0.71765 0.32952 0.80367 0.0
O164 O 0.69847 0.34814 0.78701 0.0
O165 O 0.712 0.32686 0.83321 0.0
O166 O 0.64292 0.40123 0.7631 0.0
O167 O 0.66002 0.42382 0.8097 0.0
O168 O 0.3632 0.18054 0.87388 0.0
Cd169 Cd 0.30067 0.16139 0.87468 0.0
Cd170 Cd 0.32346 0.13707 0.81434 0.0
O171 O 0.37762 0.16852 0.82484 0.0
O172 O 0.28804 0.18267 0.91481 0.0
O173 O 0.27525 0.1278 0.90827 0.0
C174 C 0.27468 0.15339 0.9263 0.0
C175 C 0.32976 0.08454 0.79345 0.0
C176 C 0.38809 0.18304 0.85084 0.0
C177 C 0.25907 0.18134 0.81477 0.0
O178 O 0.27768 0.16187 0.79887 0.0
O179 O 0.26413 0.18414 0.84441 0.0
O180 O 0.33709 0.1115 0.77664 0.0
O181 O 0.31779 0.0872 0.82216 0.0
O182 O 0.34142 0.41984 0.35223 0.0
Cd183 Cd 0.32957 0.37485 0.37631 0.0
Cd184 Cd 0.40154 0.36978 0.35222 0.0
O185 O 0.40811 0.42133 0.34454 0.0
O186 O 0.28678 0.37991 0.4085 0.0
O187 O 0.34921 0.36961 0.42054 0.0
C188 C 0.3133 0.37472 0.42968 0.0
C189 C 0.44656 0.33974 0.37759 0.0
C190 C 0.37612 0.43517 0.34239 0.0
C191 C 0.32829 0.32552 0.32504 0.0
O192 O 0.36512 0.34026 0.31996 0.0
O193 O 0.30883 0.33313 0.34909 0.0
O194 O 0.45652 0.3549 0.3512 0.0
O195 O 0.41268 0.34422 0.39104 0.0
O196 O 0.39288 0.65474 0.1701 0.0
Cd197 Cd 0.34431 0.63599 0.19929 0.0
Cd198 Cd 0.29796 0.65132 0.14681 0.0
O199 O 0.35486 0.68 0.13795 0.0
O200 O 0.3699 0.61476 0.23533 0.0
O201 O 0.32156 0.58675 0.20438 0.0
C202 C 0.34607 0.58691 0.22831 0.0
C203 C 0.26134 0.63244 0.10078 0.0
C204 C 0.38998 0.67568 0.14816 0.0
C205 C 0.27984 0.6796 0.20868 0.0
O206 O 0.2652 0.66899 0.18212 0.0
O207 O 0.31313 0.67132 0.219 0.0
O208 O 0.26565 0.6632 0.10981 0.0
O209 O 0.27707 0.61165 0.1183 0.0
O210 O 0.56879 0.85084 0.1673 0.0
Cd211 Cd 0.61743 0.87202 0.19585 0.0
Cd212 Cd 0.66358 0.84919 0.14704 0.0
O213 O 0.60574 0.82383 0.13611 0.0
O214 O 0.59098 0.89585 0.22935 0.0
O215 O 0.64042 0.92153 0.19822 0.0
C216 C 0.61549 0.92302 0.22147 0.0
C217 C 0.70361 0.8692 0.10317 0.0
C218 C 0.57098 0.82927 0.14585 0.0
C219 C 0.67621 0.82446 0.21192 0.0
O220 O 0.69051 0.82856 0.18415 0.0
O221 O 0.64647 0.83863 0.22076 0.0
O222 O 0.69747 0.83792 0.11094 0.0
O223 O 0.6881 0.88975 0.12095 0.0
H224 H 0.25972 0.23155 0.21172 0.0
H225 H 0.15558 0.20798 0.27466 0.0
H226 H 0.19296 0.24416 0.31495 0.0
H227 H 0.25332 0.2852 0.33106 0.0
H228 H 0.3573 0.30901 0.26801 0.0
H229 H 0.32179 0.2699 0.22909 0.0
C230 C 0.24531 0.23404 0.23434 0.0
C231 C 0.20477 0.2173 0.24001 0.0
C232 C 0.26679 0.25512 0.25734 0.0
C233 C 0.18668 0.22071 0.26956 0.0
C234 C 0.20798 0.24147 0.29262 0.0
C235 C 0.26832 0.28175 0.30887 0.0
C236 C 0.30772 0.30027 0.30237 0.0
C237 C 0.24773 0.25927 0.28654 0.0
C238 C 0.32687 0.2952 0.2736 0.0
C239 C 0.3066 0.27285 0.25129 0.0
H240 H 0.70083 0.27621 0.20297 0.0
H241 H 0.8044 0.307 0.26563 0.0
H242 H 0.76864 0.27241 0.30757 0.0
H243 H 0.71079 0.22983 0.32499 0.0
H244 H 0.60739 0.1986 0.26233 0.0
H245 H 0.64029 0.23717 0.22194 0.0
C246 C 0.7154 0.27568 0.2259 0.0
C247 C 0.75544 0.29383 0.23098 0.0
C248 C 0.6949 0.25546 0.24985 0.0
C249 C 0.77371 0.29307 0.26095 0.0
C250 C 0.75336 0.27322 0.28496 0.0
C251 C 0.6953 0.2316 0.30258 0.0
C252 C 0.657 0.21105 0.29654 0.0
C253 C 0.71441 0.25369 0.27942 0.0
C254 C 0.63706 0.214 0.26754 0.0
C255 C 0.65585 0.23601 0.24439 0.0
H256 H 0.30529 0.71237 0.26355 0.0
H257 H 0.21254 0.70593 0.19018 0.0
H258 H 0.18698 0.75387 0.21235 0.0
H259 H 0.19118 0.79806 0.25171 0.0
H260 H 0.2797 0.80314 0.3276 0.0
H261 H 0.30738 0.75569 0.30488 0.0
C262 C 0.27919 0.72121 0.25262 0.0
C263 C 0.26104 0.70554 0.22514 0.0
C264 C 0.26446 0.74896 0.26553 0.0
C265 C 0.22719 0.71737 0.21133 0.0
C266 C 0.21266 0.745 0.22385 0.0
C267 C 0.21705 0.78919 0.26299 0.0
C268 C 0.23408 0.80446 0.29084 0.0
C269 C 0.2314 0.76122 0.25062 0.0
C270 C 0.2666 0.79201 0.30583 0.0
C271 C 0.28213 0.76477 0.293 0.0
H272 H 0.72868 0.728 0.31574 0.0
H273 H 0.74777 0.67093 0.23267 0.0
H274 H 0.72383 0.71308 0.19951 0.0
H275 H 0.70203 0.76776 0.19373 0.0
H276 H 0.68033 0.8243 0.27626 0.0
H277 H 0.70153 0.78087 0.3101 0.0
C278 C 0.72698 0.72445 0.29043 0.0
C279 C 0.74042 0.69643 0.27676 0.0
C280 C 0.71366 0.74903 0.27138 0.0
C281 C 0.73777 0.69224 0.24389 0.0
C282 C 0.7244 0.71649 0.22484 0.0
C283 C 0.70233 0.77072 0.21914 0.0
C284 C 0.69062 0.79944 0.23257 0.0
C285 C 0.71335 0.74535 0.23829 0.0
C286 C 0.68982 0.80253 0.26548 0.0
C287 C 0.70169 0.77767 0.28477 0.0
H288 H 0.31975 0.79361 0.75709 0.0
H289 H 0.21639 0.79501 0.69406 0.0
H290 H 0.17213 0.75563 0.7282 0.0
H291 H 0.16363 0.71901 0.7742 0.0
H292 H 0.26705 0.71553 0.83666 0.0
H293 H 0.31058 0.75765 0.80431 0.0
C294 C 0.28742 0.78558 0.75102 0.0
C295 C 0.27137 0.79717 0.72307 0.0
C296 C 0.26232 0.76241 0.77043 0.0
C297 C 0.22952 0.78636 0.71538 0.0
C298 C 0.20421 0.76381 0.73485 0.0
C299 C 0.19566 0.72746 0.7809 0.0
C300 C 0.2121 0.714 0.80775 0.0
C301 C 0.22046 0.75134 0.76214 0.0
C302 C 0.25366 0.72536 0.81602 0.0
C303 C 0.27854 0.74947 0.79757 0.0
H304 H 0.66185 0.71535 0.75242 0.0
H305 H 0.76641 0.72474 0.68951 0.0
H306 H 0.80785 0.76285 0.72645 0.0
H307 H 0.81312 0.79581 0.77467 0.0
H308 H 0.70822 0.78868 0.83702 0.0
H309 H 0.66806 0.74711 0.80207 0.0
C310 C 0.69385 0.72542 0.74695 0.0
C311 C 0.711 0.71731 0.71821 0.0
C312 C 0.71726 0.74785 0.76799 0.0
C313 C 0.75243 0.73071 0.71139 0.0
C314 C 0.77612 0.75253 0.73247 0.0
C315 C 0.78152 0.78513 0.78081 0.0
C316 C 0.7636 0.79554 0.80834 0.0
C317 C 0.75861 0.76168 0.76053 0.0
C318 C 0.72268 0.78124 0.81589 0.0
C319 C 0.69973 0.75748 0.79593 0.0
H320 H 0.69448 0.297 0.7501 0.0
H321 H 0.78709 0.30581 0.82327 0.0
H322 H 0.81656 0.25969 0.79957 0.0
H323 H 0.81464 0.21623 0.7582 0.0
H324 H 0.71714 0.20562 0.68825 0.0
H325 H 0.69035 0.25256 0.71108 0.0
C326 C 0.72164 0.28926 0.76052 0.0
C327 C 0.73934 0.30521 0.78784 0.0
C328 C 0.73691 0.26191 0.74775 0.0
C329 C 0.77351 0.29417 0.80184 0.0
C330 C 0.79004 0.26767 0.78847 0.0
C331 C 0.78727 0.22395 0.7482 0.0
C332 C 0.76815 0.20739 0.72143 0.0
C333 C 0.77167 0.25109 0.76157 0.0
C334 C 0.73261 0.21776 0.70882 0.0
C335 C 0.71734 0.24483 0.7217 0.0
H336 H 0.16751 0.29675 0.76506 0.0
H337 H 0.25288 0.29299 0.68835 0.0
H338 H 0.27835 0.24641 0.71356 0.0
H339 H 0.27681 0.20672 0.75693 0.0
H340 H 0.19575 0.21186 0.83582 0.0
H341 H 0.16752 0.25746 0.80987 0.0
C342 C 0.19193 0.28594 0.754 0.0
C343 C 0.20813 0.29845 0.72479 0.0
C344 C 0.2067 0.25901 0.76871 0.0
C345 C 0.23979 0.28405 0.71083 0.0
C346 C 0.25427 0.25719 0.72512 0.0
C347 C 0.25241 0.21737 0.76823 0.0
C348 C 0.23779 0.20556 0.79795 0.0
C349 C 0.23772 0.24431 0.75385 0.0
C350 C 0.20708 0.2203 0.81272 0.0
C351 C 0.19121 0.24651 0.79801 0.0
H352 H 0.10909 0.97578 0.2969 0.0
H353 H 0.15984 0.93809 0.21347 0.0
H354 H 0.1495 0.98836 0.18412 0.0
H355 H 0.12737 0.04382 0.18269 0.0
H356 H 0.07157 0.07901 0.26533 0.0
H357 H 0.08178 0.02881 0.29421 0.0
C358 C 0.11802 0.97875 0.27233 0.0
C359 C 0.13578 0.95371 0.25743 0.0
C360 C 0.11066 0.00711 0.25537 0.0
C361 C 0.14635 0.95729 0.22542 0.0
C362 C 0.14037 0.98595 0.20864 0.0
C363 C 0.11704 0.04029 0.2069 0.0
C364 C 0.0989 0.06522 0.22181 0.0
C365 C 0.12262 0.01109 0.2234 0.0
C366 C 0.08546 0.06018 0.25317 0.0
C367 C 0.09155 0.03157 0.26984 0.0
H368 H 0.86669 0.43169 0.2481 0.0
H369 H 0.84723 0.46555 0.15369 0.0
H370 H 0.83798 0.52059 0.17414 0.0
H371 H 0.83361 0.5583 0.21914 0.0
H372 H 0.84718 0.52223 0.31373 0.0
H373 H 0.86016 0.46853 0.29297 0.0
C374 C 0.86099 0.45129 0.23196 0.0
C375 C 0.8583 0.44488 0.1994 0.0
C376 C 0.85414 0.48222 0.24399 0.0
C377 C 0.84978 0.47011 0.17881 0.0
C378 C 0.84435 0.50145 0.19052 0.0
C379 C 0.83942 0.53866 0.23519 0.0
C380 C 0.83957 0.54422 0.26793 0.0
C381 C 0.8461 0.50766 0.22309 0.0
C382 C 0.84671 0.51848 0.28847 0.0
C383 C 0.85433 0.48786 0.2766 0.0
H384 H 0.28914 0.20064 0.97124 0.0
H385 H 0.22665 0.09903 0.95512 0.0
H386 H 0.19841 0.0968 0.00877 0.0
H387 H 0.18852 0.12557 0.05929 0.0
H388 H 0.25229 0.22743 0.07342 0.0
H389 H 0.28312 0.22754 0.02155 0.0
C390 C 0.2694 0.1779 0.9794 0.0
C391 C 0.25957 0.1502 0.95914 0.0
C392 C 0.25345 0.17688 0.00996 0.0
C393 C 0.23454 0.12076 0.97029 0.0
C394 C 0.21834 0.11953 1.00091 0.0
C395 C 0.2095 0.1476 0.05109 0.0
C396 C 0.21773 0.17655 0.07017 0.0
C397 C 0.22715 0.14767 0.02084 0.0
C398 C 0.24506 0.2049 0.05921 0.0
C399 C 0.26276 0.20505 0.02949 0.0
H400 H 0.77408 0.38016 0.04936 0.0
H401 H 0.71199 0.27737 0.06071 0.0
H402 H 0.68239 0.27822 0.0083 0.0
H403 H 0.67725 0.30627 0.95826 0.0
H404 H 0.73828 0.40881 0.94496 0.0
H405 H 0.76482 0.41006 0.99922 0.0
C406 C 0.75376 0.35811 0.04042 0.0
C407 C 0.74565 0.32864 0.05889 0.0
C408 C 0.7368 0.35862 0.0099 0.0
C409 C 0.71912 0.3003 0.047 0.0
C410 C 0.70211 0.30071 0.01697 0.0
C411 C 0.69624 0.32902 0.96719 0.0
C412 C 0.70622 0.35726 0.94754 0.0
C413 C 0.71132 0.32945 0.99807 0.0
C414 C 0.73027 0.38668 0.95966 0.0
C415 C 0.74554 0.38734 0.99061 0.0
H416 H 0.29229 0.89337 0.54717 0.0
H417 H 0.24789 0.78672 0.55776 0.0
H418 H 0.21451 0.78503 0.50662 0.0
H419 H 0.19948 0.81261 0.45843 0.0
H420 H 0.24309 0.91884 0.44541 0.0
H421 H 0.27496 0.92195 0.49803 0.0
C422 C 0.27514 0.86986 0.53828 0.0
C423 C 0.27285 0.8402 0.55629 0.0
C424 C 0.25593 0.86892 0.50844 0.0
C425 C 0.25046 0.80992 0.54444 0.0
C426 C 0.23125 0.80886 0.51513 0.0
C427 C 0.21586 0.83657 0.46699 0.0
C428 C 0.2191 0.86541 0.44794 0.0
C429 C 0.2341 0.83806 0.49688 0.0
C430 C 0.2402 0.89623 0.45962 0.0
C431 C 0.25847 0.89798 0.48966 0.0
H432 H 0.69387 0.62584 0.54147 0.0
H433 H 0.72943 0.73387 0.54742 0.0
H434 H 0.76094 0.73523 0.49573 0.0
H435 H 0.77731 0.70668 0.44849 0.0
H436 H 0.74288 0.59891 0.44061 0.0
H437 H 0.71225 0.59653 0.49341 0.0
C438 C 0.70863 0.64961 0.53145 0.0
C439 C 0.70908 0.6797 0.54836 0.0
C440 C 0.72688 0.65033 0.50137 0.0
C441 C 0.72843 0.7103 0.53502 0.0
C442 C 0.74653 0.71117 0.50539 0.0
C443 C 0.76319 0.68256 0.45822 0.0
C444 C 0.76224 0.65304 0.44055 0.0
C445 C 0.74572 0.68144 0.48832 0.0
C446 C 0.744 0.62204 0.45372 0.0
C447 C 0.72643 0.62069 0.48389 0.0
H448 H 0.97068 0.31872 0.13621 0.0
H449 H 0.86959 0.23478 0.1363 0.0
H450 H 0.91836 0.19545 0.13677 0.0
H451 H -0.01014 0.18492 0.14202 0.0
H452 H 0.09094 0.26881 0.13885 0.0
H453 H 0.04223 0.30793 0.1344 0.0
C454 C 0.95941 0.29182 0.13591 0.0
C455 C 0.91666 0.27973 0.13658 0.0
C456 C -0.01237 0.26926 0.13582 0.0
C457 C 0.90241 0.24479 0.13577 0.0
C458 C 0.93026 0.22222 0.13622 0.0
C459 C 0.00114 0.21173 0.13995 0.0
C460 C 0.04387 0.22393 0.14113 0.0
C461 C 0.97295 0.23417 0.137 0.0
C462 C 0.05815 0.25871 0.138 0.0
C463 C 0.03032 0.28118 0.13562 0.0
H464 H 0.92729 0.72496 0.37682 0.0
H465 H 0.94653 0.69252 0.28188 0.0
H466 H 0.00585 0.73744 0.27632 0.0
H467 H 0.05107 0.7867 0.29757 0.0
H468 H 0.03562 0.81765 0.39329 0.0
H469 H 0.9753 0.77284 0.39922 0.0
C470 C 0.94471 0.72748 0.35503 0.0
C471 C 0.93226 0.70545 0.32977 0.0
C472 C 0.97889 0.75345 0.3519 0.0
C473 C 0.95536 0.70903 0.30175 0.0
C474 C -0.01086 0.73489 0.29841 0.0
C475 C 0.03409 0.78393 0.31958 0.0
C476 C 0.04699 0.80576 0.34475 0.0
C477 C 0.00073 0.75751 0.32313 0.0
C478 C 0.02571 0.80132 0.37349 0.0
C479 C -0.0085 0.77562 0.37691 0.0
H480 H 0.57656 0.75994 0.63487 0.0
H481 H 0.48452 0.66969 0.63429 0.0
H482 H 0.42942 0.70374 0.63295 0.0
H483 H 0.40773 0.759 0.63574 0.0
H484 H 0.49982 0.84891 0.64249 0.0
H485 H 0.55488 0.81519 0.63745 0.0
C486 C 0.54442 0.74774 0.63394 0.0
C487 C 0.5345 0.71237 0.63438 0.0
C488 C 0.51309 0.76744 0.63451 0.0
C489 C 0.4928 0.69686 0.63389 0.0
C490 C 0.46139 0.71632 0.63317 0.0
C491 C 0.43987 0.77125 0.63564 0.0
C492 C 0.44981 0.8064 0.63922 0.0
C493 C 0.4712 0.7516 0.63401 0.0
C494 C 0.49151 0.8219 0.63972 0.0
C495 C 0.52291 0.80264 0.63687 0.0
H496 H 0.79876 0.0471 0.74725 0.0
H497 H 0.93143 0.07489 0.74397 0.0
H498 H 0.93897 0.02744 0.77846 0.0
H499 H 0.9073 0.97748 0.80945 0.0
H500 H 0.77417 0.95387 0.8162 0.0
H501 H 0.76739 1.00024 0.78102 0.0
C502 C 0.82928 0.04257 0.75399 0.0
C503 C 0.86449 0.06399 0.7428 0.0
C504 C 0.83329 0.01612 0.77476 0.0
C505 C 0.90389 0.05848 0.75222 0.0
C506 C 0.90819 0.03142 0.77196 0.0
C507 C 0.87689 0.98271 0.80339 0.0
C508 C 0.84138 0.96212 0.81549 0.0
C509 C 0.87306 0.01003 0.78344 0.0
C510 C 0.80213 0.96938 0.80751 0.0
C511 C 0.79811 0.99581 0.78716 0.0
H512 H 0.17512 0.55829 0.79793 0.0
H513 H 0.04638 0.53324 0.82321 0.0
H514 H 0.03976 0.48131 0.79209 0.0
H515 H 0.07113 0.44311 0.75773 0.0
H516 H 0.19828 0.47159 0.72882 0.0
H517 H 0.20503 0.52234 0.76113 0.0
C518 C 0.14568 0.54131 0.79678 0.0
C519 C 0.11142 0.54915 0.81321 0.0
C520 C 0.14185 0.51233 0.77803 0.0
C521 C 0.07319 0.52749 0.81091 0.0
C522 C 0.06945 0.4979 0.79312 0.0
C523 C 0.10025 0.46052 0.75848 0.0
C524 C 0.13427 0.45356 0.74107 0.0
C525 C 0.1036 0.49007 0.77657 0.0
C526 C 0.17165 0.47648 0.74191 0.0
C527 C 0.17557 0.5054 0.76049 0.0
H528 H 0.76236 0.84123 0.07365 0.0
H529 H 0.69063 0.92096 0.06521 0.0
H530 H 0.71503 0.9319 0.01114 0.0
H531 H 0.75074 0.91445 0.96458 0.0
H532 H 0.82526 0.83667 0.97388 0.0
H533 H 0.80612 0.82941 0.02946 0.0
C534 C 0.75268 0.86138 0.06011 0.0
C535 C 0.7244 0.88002 0.07317 0.0
C536 C 0.76702 0.86761 0.02918 0.0
C537 C 0.71244 0.90633 0.05563 0.0
C538 C 0.72613 0.9124 0.02466 0.0
C539 C 0.76318 0.89624 0.97895 0.0
C540 C 0.78885 0.87576 0.96517 0.0
C541 C 0.75246 0.89254 0.01092 0.0
C542 C 0.80538 0.85265 0.98402 0.0
C543 C 0.79429 0.8484 0.01573 0.0
H544 H 0.21748 0.59133 0.96048 0.0
H545 H 0.14201 0.66833 0.97063 0.0
H546 H 0.16026 0.67393 0.02649 0.0
H547 H 0.20308 0.66086 0.07093 0.0
H548 H 0.27645 0.58239 0.06164 0.0
H549 H 0.25313 0.57301 0.007 0.0
C550 C 0.20466 0.60904 0.97506 0.0
C551 C 0.17891 0.62973 0.96143 0.0
C552 C 0.215 0.6119 0.0072 0.0
C553 C 0.16196 0.65219 0.98059 0.0
C554 C 0.17252 0.6555 0.01249 0.0
C555 C 0.21344 0.64135 0.05706 0.0
C556 C 0.24178 0.62258 0.07007 0.0
C557 C 0.1998 0.63607 0.02582 0.0
C558 C 0.25459 0.5971 0.05209 0.0
C559 C 0.24149 0.59192 0.02081 0.0
H560 H 0.64959 0.15658 0.47453 0.0
H561 H 0.7362 0.09916 0.43477 0.0
H562 H 0.76856 0.09585 0.48638 0.0
H563 H 0.77502 0.11229 0.54234 0.0
H564 H 0.69291 0.17458 0.58054 0.0
H565 H 0.65571 0.17267 0.53038 0.0
C566 C 0.67531 0.1431 0.47728 0.0
C567 C 0.69049 0.12815 0.45095 0.0
C568 C 0.69456 0.14216 0.50682 0.0
C569 C 0.72412 0.11106 0.45471 0.0
C570 C 0.74259 0.10908 0.48422 0.0
C571 C 0.74854 0.12491 0.53971 0.0
C572 C 0.73638 0.14329 0.565 0.0
C573 C 0.72843 0.1249 0.51038 0.0
C574 C 0.70264 0.1602 0.56128 0.0
C575 C 0.68147 0.1592 0.53262 0.0
H576 H 0.27011 0.34196 0.57187 0.0
H577 H 0.19525 0.41873 0.55752 0.0
H578 H 0.22161 0.42776 0.50366 0.0
H579 H 0.2618 0.4103 0.45939 0.0
H580 H 0.34008 0.33618 0.47524 0.0
H581 H 0.3167 0.32961 0.5299 0.0
C582 C 0.26006 0.36099 0.55705 0.0
C583 C 0.23057 0.37946 0.56839 0.0
C584 C 0.27567 0.36624 0.52638 0.0
C585 C 0.21806 0.40432 0.54923 0.0
C586 C 0.23288 0.40928 0.51841 0.0
C587 C 0.27391 0.39293 0.47496 0.0
C588 C 0.30213 0.37339 0.46333 0.0
C589 C 0.26099 0.38984 0.50652 0.0
C590 C 0.31825 0.3514 0.48374 0.0
C591 C 0.30481 0.34758 0.51492 0.0
H592 H 0.02788 0.72358 0.89232 0.0
H593 H 0.00065 0.69791 0.79482 0.0
H594 H 0.9633 0.74461 0.78963 0.0
H595 H 0.94001 0.79363 0.81159 0.0
H596 H 0.96144 0.81863 0.90957 0.0
H597 H -0.00017 0.77166 0.91567 0.0
C598 C 0.01326 0.72795 0.8701 0.0
C599 C 0.01736 0.70721 0.84397 0.0
C600 C -0.00857 0.75511 0.86716 0.0
C601 C -0.0018 0.71334 0.81535 0.0
C602 C 0.97695 0.74024 0.81223 0.0
C603 C 0.95351 0.78912 0.83425 0.0
C604 C 0.94877 0.81004 0.85992 0.0
C605 C 0.97396 0.76156 0.83777 0.0
C606 C 0.96525 0.80315 0.88934 0.0
C607 C -0.01305 0.7762 0.89284 0.0
H608 H 0.07163 0.26676 0.6291 0.0
H609 H 0.0014 0.34648 0.64377 0.0
H610 H 0.93679 0.30654 0.63694 0.0
H611 H 0.90094 0.24804 0.63444 0.0
H612 H 0.97168 0.16757 0.62805 0.0
H613 H 0.03568 0.20865 0.62348 0.0
C614 C 0.04217 0.27551 0.63 0.0
C615 C 0.04106 0.30943 0.6368 0.0
C616 C 0.00539 0.25215 0.62781 0.0
C617 C 0.00281 0.32043 0.63856 0.0
C618 C 0.96598 0.2976 0.63476 0.0
C619 C 0.93031 0.23958 0.63118 0.0
C620 C 0.93184 0.20497 0.63135 0.0
C621 C 0.96694 0.26325 0.63046 0.0
C622 C 0.96999 0.19415 0.62788 0.0
C623 C 0.00647 0.21761 0.62542 0.0
H624 H 0.56528 0.23443 0.38869 0.0
H625 H 0.44794 0.16768 0.39236 0.0
H626 H 0.41223 0.21579 0.39937 0.0
H627 H 0.41372 0.27684 0.39534 0.0
H628 H 0.53008 0.34308 0.38178 0.0
H629 H 0.56715 0.29564 0.3882 0.0
C630 C 0.53203 0.23048 0.39215 0.0
C631 C 0.50918 0.19768 0.39061 0.0
C632 C 0.51165 0.25837 0.39392 0.0
C633 C 0.46604 0.19275 0.39394 0.0
C634 C 0.44569 0.22026 0.39767 0.0
C635 C 0.44729 0.28095 0.39484 0.0
C636 C 0.46933 0.31335 0.38856 0.0
C637 C 0.46802 0.25323 0.39643 0.0
C638 C 0.51266 0.31835 0.38692 0.0
C639 C 0.53375 0.29121 0.39037 0.0
H640 H 0.61315 0.57232 0.74825 0.0
H641 H 0.62668 0.53749 0.65354 0.0
H642 H 0.63975 0.48339 0.67408 0.0
H643 H 0.64756 0.44629 0.71916 0.0
H644 H 0.63889 0.48314 0.81383 0.0
H645 H 0.62417 0.53644 0.79312 0.0
C646 C 0.61856 0.55275 0.73209 0.0
C647 C 0.61832 0.55859 0.69942 0.0
C648 C 0.62736 0.5223 0.7441 0.0
C649 C 0.62641 0.5334 0.67877 0.0
C650 C 0.63398 0.50257 0.69052 0.0
C651 C 0.6426 0.46605 0.73525 0.0
C652 C 0.64418 0.46073 0.768 0.0
C653 C 0.63466 0.49679 0.72316 0.0
C654 C 0.63804 0.48665 0.78854 0.0
C655 C 0.62939 0.51706 0.77672 0.0
H656 H 0.33409 0.06763 0.73176 0.0
H657 H 0.3413 0.02848 0.82593 0.0
H658 H 0.35715 0.97593 0.8046 0.0
H659 H 0.36923 0.94123 0.75929 0.0
H660 H 0.35691 0.97831 0.665 0.0
H661 H 0.34313 0.03177 0.68623 0.0
C662 C 0.33904 0.04754 0.7476 0.0
C663 C 0.33668 0.05198 0.7804 0.0
C664 C 0.34753 0.0172 0.73514 0.0
C665 C 0.34276 0.02564 0.80061 0.0
C666 C 0.35204 0.99566 0.78843 0.0
C667 C 0.36393 0.96116 0.74339 0.0
C668 C 0.3647 0.95613 0.71064 0.0
C669 C 0.3547 0.99125 0.75577 0.0
C670 C 0.35676 0.98177 0.6903 0.0
C671 C 0.34879 0.01225 0.70243 0.0
H672 H 0.42465 0.2219 0.804 0.0
H673 H 0.43736 0.19929 0.9025 0.0
H674 H 0.49917 0.24298 0.90609 0.0
H675 H 0.5492 0.28757 0.88095 0.0
H676 H 0.53306 0.31186 0.783 0.0
H677 H 0.47226 0.26794 0.77969 0.0
C678 C 0.44132 0.22623 0.82615 0.0
C679 C 0.42715 0.20709 0.85281 0.0
C680 C 0.47566 0.25204 0.82825 0.0
C681 C 0.44815 0.21356 0.88161 0.0
C682 C 0.48325 0.23861 0.88368 0.0
C683 C 0.53217 0.28347 0.85896 0.0
C684 C 0.54583 0.30294 0.83225 0.0
C685 C 0.49713 0.25812 0.85716 0.0
C686 C 0.52325 0.29737 0.80397 0.0
C687 C 0.48862 0.27207 0.80195 0.0
H688 H 0.40753 0.57255 0.26672 0.0
H689 H 0.28415 0.53303 0.23386 0.0
H690 H 0.28201 0.48387 0.26788 0.0
H691 H 0.31501 0.45203 0.30659 0.0
H692 H 0.44046 0.48826 0.3365 0.0
H693 H 0.44202 0.53903 0.30415 0.0
C694 C 0.38022 0.55313 0.26703 0.0
C695 C 0.34595 0.55647 0.24788 0.0
C696 C 0.37954 0.52453 0.28622 0.0
C697 C 0.31095 0.53098 0.24825 0.0
C698 C 0.30964 0.50294 0.2678 0.0
C699 C 0.34259 0.47121 0.30632 0.0
C700 C 0.37737 0.46673 0.32431 0.0
C701 C 0.34367 0.49952 0.28691 0.0
C702 C 0.41323 0.49133 0.32305 0.0
C703 C 0.41411 0.52026 0.30451 0.0
H704 H 0.65154 0.05968 0.29622 0.0
H705 H 0.53024 0.02223 0.33351 0.0
H706 H 0.52578 0.97155 0.30089 0.0
H707 H 0.55694 0.93802 0.26187 0.0
H708 H 0.67642 0.97811 0.22248 0.0
H709 H 0.68086 0.02795 0.25566 0.0
C710 C 0.62423 0.04029 0.29745 0.0
C711 C 0.59151 0.04437 0.31763 0.0
C712 C 0.62147 0.01193 0.27804 0.0
C713 C 0.55591 0.01949 0.31834 0.0
C714 C 0.55337 0.9906 0.29965 0.0
C715 C 0.58385 0.95776 0.26046 0.0
C716 C 0.6164 0.95431 0.2398 0.0
C717 C 0.58599 0.98659 0.27939 0.0
C718 C 0.6509 0.98019 0.23805 0.0
C719 C 0.65356 0.00862 0.25715 0.0
H720 H 0.56552 0.76331 0.13427 0.0
H721 H 0.49237 0.84234 0.13926 0.0
H722 H 0.42884 0.80068 0.13438 0.0
H723 H 0.39467 0.74169 0.13653 0.0
H724 H 0.46823 0.66283 0.14024 0.0
H725 H 0.53138 0.70445 0.13349 0.0
C726 C 0.53568 0.77146 0.13342 0.0
C727 C 0.53339 0.80575 0.13689 0.0
C728 C 0.49954 0.74731 0.13255 0.0
C729 C 0.49466 0.81603 0.13652 0.0
C730 C 0.45847 0.79224 0.13389 0.0
C731 C 0.42449 0.73361 0.13504 0.0
C732 C 0.42706 0.69938 0.13865 0.0
C733 C 0.46056 0.75777 0.13302 0.0
C734 C 0.46576 0.68912 0.13743 0.0
C735 C 0.50174 0.71288 0.1337 0.0
loop_
_geom_bond_atom_site_label_1
_geom_bond_atom_site_label_2
_geom_bond_distance
_geom_bond_site_symmetry_2
_ccdc_geom_bond_type
O0 Cd1 2.223 . S
O0 C8 1.315 . S
Cd1 O0 2.223 . S
Cd1 O4 2.297 . S
Cd1 O5 2.439 . S
Cd1 O11 2.240 . S
Cd2 O3 2.240 . S
Cd2 O10 2.223 . S
Cd2 O12 2.297 . S
Cd2 O13 2.439 . S
O3 Cd2 2.240 . S
O3 C8 1.279 . S
O4 Cd1 2.297 . S
O4 C6 1.247 . S
O5 Cd1 2.439 . S
O5 C6 1.208 . S
C6 O4 1.247 . S
C6 O5 1.208 . S
C7 O12 1.247 . S
C7 O13 1.208 . S
C8 O0 1.315 . S
C8 O3 1.279 . S
C9 O10 1.315 . S
C9 O11 1.279 . S
O10 Cd2 2.223 . S
O10 C9 1.315 . S
O11 Cd1 2.240 . S
O11 C9 1.279 . S
O12 Cd2 2.297 . S
O12 C7 1.247 . S
O13 Cd2 2.439 . S
O13 C7 1.208 . S
O14 Cd15 2.223 . S
O14 C22 1.315 . S
Cd15 O14 2.223 . S
Cd15 O18 2.297 . S
Cd15 O19 2.439 . S
Cd15 O25 2.240 . S
Cd16 O17 2.240 . S
Cd16 O24 2.223 . S
Cd16 O26 2.297 . S
Cd16 O27 2.439 . S
O17 Cd16 2.240 . S
O17 C22 1.279 . S
O18 Cd15 2.297 . S
O18 C20 1.247 . S
O19 Cd15 2.439 . S
O19 C20 1.208 . S
C20 O18 1.247 . S
C20 O19 1.208 . S
C21 O26 1.247 . S
C21 O27 1.208 . S
C22 O14 1.315 . S
C22 O17 1.279 . S
C23 O24 1.315 . S
C23 O25 1.279 . S
O24 Cd16 2.223 . S
O24 C23 1.315 . S
O25 Cd15 2.240 . S
O25 C23 1.279 . S
O26 Cd16 2.297 . S
O26 C21 1.247 . S
O27 Cd16 2.439 . S
O27 C21 1.208 . S
O28 Cd29 2.223 . S
O28 C36 1.315 . S
Cd29 O28 2.223 . S
Cd29 O32 2.297 . S
Cd29 O33 2.439 . S
Cd29 O39 2.240 . S
Cd30 O31 2.240 . S
Cd30 O38 2.223 . S
Cd30 O40 2.297 . S
Cd30 O41 2.439 . S
O31 Cd30 2.240 . S
O31 C36 1.279 . S
O32 Cd29 2.297 . S
O32 C34 1.247 . S
O33 Cd29 2.439 . S
O33 C34 1.208 . S
C34 O32 1.247 . S
C34 O33 1.208 . S
C35 O40 1.247 . S
C35 O41 1.208 . S
C36 O28 1.315 . S
C36 O31 1.279 . S
C37 O38 1.315 . S
C37 O39 1.279 . S
O38 Cd30 2.223 . S
O38 C37 1.315 . S
O39 Cd29 2.240 . S
O39 C37 1.279 . S
O40 Cd30 2.297 . S
O40 C35 1.247 . S
O41 Cd30 2.439 . S
O41 C35 1.208 . S
O42 Cd43 2.223 . S
O42 C50 1.315 . S
Cd43 O42 2.223 . S
Cd43 O46 2.297 . S
Cd43 O47 2.439 . S
Cd43 O53 2.240 . S
Cd44 O45 2.240 . S
Cd44 O52 2.223 . S
Cd44 O54 2.297 . S
Cd44 O55 2.439 . S
O45 Cd44 2.240 . S
O45 C50 1.279 . S
O46 Cd43 2.297 . S
O46 C48 1.247 . S
O47 Cd43 2.439 . S
O47 C48 1.208 . S
C48 O46 1.247 . S
C48 O47 1.208 . S
C49 O54 1.247 . S
C49 O55 1.208 . S
C50 O42 1.315 . S
C50 O45 1.279 . S
C51 O52 1.315 . S
C51 O53 1.279 . S
O52 Cd44 2.223 . S
O52 C51 1.315 . S
O53 Cd43 2.240 . S
O53 C51 1.279 . S
O54 Cd44 2.297 . S
O54 C49 1.247 . S
O55 Cd44 2.439 . S
O55 C49 1.208 . S
O56 Cd57 2.223 . S
O56 C64 1.315 . S
Cd57 O56 2.223 . S
Cd57 O60 2.297 . S
Cd57 O61 2.439 . S
Cd57 O67 2.240 . S
Cd58 O59 2.240 . S
Cd58 O66 2.223 . S
Cd58 O68 2.297 . S
Cd58 O69 2.439 . S
O59 Cd58 2.240 . S
O59 C64 1.279 . S
O60 Cd57 2.297 . S
O60 C62 1.247 . S
O61 Cd57 2.439 . S
O61 C62 1.208 . S
C62 O60 1.247 . S
C62 O61 1.208 . S
C63 O68 1.247 . S
C63 O69 1.208 . S
C64 O56 1.315 . S
C64 O59 1.279 . S
C65 O66 1.315 . S
C65 O67 1.279 . S
O66 Cd58 2.223 . S
O66 C65 1.315 . S
O67 Cd57 2.240 . S
O67 C65 1.279 . S
O68 Cd58 2.297 . S
O68 C63 1.247 . S
O69 Cd58 2.439 . S
O69 C63 1.208 . S
O70 Cd71 2.223 . S
O70 C78 1.315 . S
Cd71 O70 2.223 . S
Cd71 O74 2.297 . S
Cd71 O75 2.439 . S
Cd71 O81 2.240 . S
Cd72 O73 2.240 . S
Cd72 O80 2.223 . S
Cd72 O82 2.297 . S
Cd72 O83 2.439 . S
O73 Cd72 2.240 . S
O73 C78 1.279 . S
O74 Cd71 2.297 . S
O74 C76 1.247 . S
O75 Cd71 2.439 . S
O75 C76 1.208 . S
C76 O74 1.247 . S
C76 O75 1.208 . S
C77 O82 1.247 . S
C77 O83 1.208 . S
C78 O70 1.315 . S
C78 O73 1.279 . S
C79 O80 1.315 . S
C79 O81 1.279 . S
O80 Cd72 2.223 . S
O80 C79 1.315 . S
O81 Cd71 2.240 . S
O81 C79 1.279 . S
O82 Cd72 2.297 . S
O82 C77 1.247 . S
O83 Cd72 2.439 . S
O83 C77 1.208 . S
O84 Cd85 2.223 . S
O84 C92 1.315 . S
Cd85 O84 2.223 . S
Cd85 O88 2.297 . S
Cd85 O89 2.439 . S
Cd85 O95 2.240 . S
Cd86 O87 2.240 . S
Cd86 O94 2.223 . S
Cd86 O96 2.297 . S
Cd86 O97 2.439 . S
O87 Cd86 2.240 . S
O87 C92 1.279 . S
O88 Cd85 2.297 . S
O88 C90 1.247 . S
O89 Cd85 2.439 . S
O89 C90 1.208 . S
C90 O88 1.247 . S
C90 O89 1.208 . S
C91 O96 1.247 . S
C91 O97 1.208 . S
C92 O84 1.315 . S
C92 O87 1.279 . S
C93 O94 1.315 . S
C93 O95 1.279 . S
O94 Cd86 2.223 . S
O94 C93 1.315 . S
O95 Cd85 2.240 . S
O95 C93 1.279 . S
O96 Cd86 2.297 . S
O96 C91 1.247 . S
O97 Cd86 2.439 . S
O97 C91 1.208 . S
O98 Cd99 2.223 . S
O98 C106 1.315 . S
Cd99 O98 2.223 . S
Cd99 O102 2.297 . S
Cd99 O103 2.439 . S
Cd99 O109 2.240 . S
Cd100 O101 2.240 . S
Cd100 O108 2.223 . S
Cd100 O110 2.297 . S
Cd100 O111 2.439 . S
O101 Cd100 2.240 . S
O101 C106 1.279 . S
O102 Cd99 2.297 . S
O102 C104 1.247 . S
O103 Cd99 2.439 . S
O103 C104 1.208 . S
C104 O102 1.247 . S
C104 O103 1.208 . S
C105 O110 1.247 . S
C105 O111 1.208 . S
C106 O98 1.315 . S
C106 O101 1.279 . S
C107 O108 1.315 . S
C107 O109 1.279 . S
O108 Cd100 2.223 . S
O108 C107 1.315 . S
O109 Cd99 2.240 . S
O109 C107 1.279 . S
O110 Cd100 2.297 . S
O110 C105 1.247 . S
O111 Cd100 2.439 . S
O111 C105 1.208 . S
O112 Cd113 2.223 . S
O112 C120 1.315 . S
Cd113 O112 2.223 . S
Cd113 O116 2.297 . S
Cd113 O117 2.439 . S
Cd113 O123 2.240 . S
Cd114 O115 2.240 . S
Cd114 O122 2.223 . S
Cd114 O124 2.297 . S
Cd114 O125 2.439 . S
O115 Cd114 2.240 . S
O115 C120 1.279 . S
O116 Cd113 2.297 . S
O116 C118 1.247 . S
O117 Cd113 2.439 . S
O117 C118 1.208 . S
C118 O116 1.247 . S
C118 O117 1.208 . S
C119 O124 1.247 . S
C119 O125 1.208 . S
C120 O112 1.315 . S
C120 O115 1.279 . S
C121 O122 1.315 . S
C121 O123 1.279 . S
O122 Cd114 2.223 . S
O122 C121 1.315 . S
O123 Cd113 2.240 . S
O123 C121 1.279 . S
O124 Cd114 2.297 . S
O124 C119 1.247 . S
O125 Cd114 2.439 . S
O125 C119 1.208 . S
O126 Cd127 2.223 . S
O126 C134 1.315 . S
Cd127 O126 2.223 . S
Cd127 O130 2.297 . S
Cd127 O131 2.439 . S
Cd127 O137 2.240 . S
Cd128 O129 2.240 . S
Cd128 O136 2.223 . S
Cd128 O138 2.297 . S
Cd128 O139 2.439 . S
O129 Cd128 2.240 . S
O129 C134 1.279 . S
O130 Cd127 2.297 . S
O130 C132 1.247 . S
O131 Cd127 2.439 . S
O131 C132 1.208 . S
C132 O130 1.247 . S
C132 O131 1.208 . S
C133 O138 1.247 . S
C133 O139 1.208 . S
C134 O126 1.315 . S
C134 O129 1.279 . S
C135 O136 1.315 . S
C135 O137 1.279 . S
O136 Cd128 2.223 . S
O136 C135 1.315 . S
O137 Cd127 2.240 . S
O137 C135 1.279 . S
O138 Cd128 2.297 . S
O138 C133 1.247 . S
O139 Cd128 2.439 . S
O139 C133 1.208 . S
O140 Cd141 2.223 . S
O140 C148 1.315 . S
Cd141 O140 2.223 . S
Cd141 O144 2.297 . S
Cd141 O145 2.439 . S
Cd141 O151 2.240 . S
Cd142 O143 2.240 . S
Cd142 O150 2.223 . S
Cd142 O152 2.297 . S
Cd142 O153 2.439 . S
O143 Cd142 2.240 . S
O143 C148 1.279 . S
O144 Cd141 2.297 . S
O144 C146 1.247 . S
O145 Cd141 2.439 . S
O145 C146 1.208 . S
C146 O144 1.247 . S
C146 O145 1.208 . S
C147 O152 1.247 . S
C147 O153 1.208 . S
C148 O140 1.315 . S
C148 O143 1.279 . S
C149 O150 1.315 . S
C149 O151 1.279 . S
O150 Cd142 2.223 . S
O150 C149 1.315 . S
O151 Cd141 2.240 . S
O151 C149 1.279 . S
O152 Cd142 2.297 . S
O152 C147 1.247 . S
O153 Cd142 2.439 . S
O153 C147 1.208 . S
O154 Cd155 2.223 . S
O154 C162 1.315 . S
Cd155 O154 2.223 . S
Cd155 O158 2.297 . S
Cd155 O159 2.439 . S
Cd155 O165 2.240 . S
Cd156 O157 2.240 . S
Cd156 O164 2.223 . S
Cd156 O166 2.297 . S
Cd156 O167 2.439 . S
O157 Cd156 2.240 . S
O157 C162 1.279 . S
O158 Cd155 2.297 . S
O158 C160 1.247 . S
O159 Cd155 2.439 . S
O159 C160 1.208 . S
C160 O158 1.247 . S
C160 O159 1.208 . S
C161 O166 1.247 . S
C161 O167 1.208 . S
C162 O154 1.315 . S
C162 O157 1.279 . S
C163 O164 1.315 . S
C163 O165 1.279 . S
O164 Cd156 2.223 . S
O164 C163 1.315 . S
O165 Cd155 2.240 . S
O165 C163 1.279 . S
O166 Cd156 2.297 . S
O166 C161 1.247 . S
O167 Cd156 2.439 . S
O167 C161 1.208 . S
O168 Cd169 2.223 . S
O168 C176 1.315 . S
Cd169 O168 2.223 . S
Cd169 O172 2.297 . S
Cd169 O173 2.439 . S
Cd169 O179 2.240 . S
Cd170 O171 2.240 . S
Cd170 O178 2.223 . S
Cd170 O180 2.297 . S
Cd170 O181 2.439 . S
O171 Cd170 2.240 . S
O171 C176 1.279 . S
O172 Cd169 2.297 . S
O172 C174 1.247 . S
O173 Cd169 2.439 . S
O173 C174 1.208 . S
C174 O172 1.247 . S
C174 O173 1.208 . S
C175 O180 1.247 . S
C175 O181 1.208 . S
C176 O168 1.315 . S
C176 O171 1.279 . S
C177 O178 1.315 . S
C177 O179 1.279 . S
O178 Cd170 2.223 . S
O178 C177 1.315 . S
O179 Cd169 2.240 . S
O179 C177 1.279 . S
O180 Cd170 2.297 . S
O180 C175 1.247 . S
O181 Cd170 2.439 . S
O181 C175 1.208 . S
O182 Cd183 2.223 . S
O182 C190 1.315 . S
Cd183 O182 2.223 . S
Cd183 O186 2.297 . S
Cd183 O187 2.439 . S
Cd183 O193 2.240 . S
Cd184 O185 2.240 . S
Cd184 O192 2.223 . S
Cd184 O194 2.297 . S
Cd184 O195 2.439 . S
O185 Cd184 2.240 . S
O185 C190 1.279 . S
O186 Cd183 2.297 . S
O186 C188 1.247 . S
O187 Cd183 2.439 . S
O187 C188 1.208 . S
C188 O186 1.247 . S
C188 O187 1.208 . S
C189 O194 1.247 . S
C189 O195 1.208 . S
C190 O182 1.315 . S
C190 O185 1.279 . S
C191 O192 1.315 . S
C191 O193 1.279 . S
O192 Cd184 2.223 . S
O192 C191 1.315 . S
O193 Cd183 2.240 . S
O193 C191 1.279 . S
O194 Cd184 2.297 . S
O194 C189 1.247 . S
O195 Cd184 2.439 . S
O195 C189 1.208 . S
O196 Cd197 2.223 . S
O196 C204 1.315 . S
Cd197 O196 2.223 . S
Cd197 O200 2.297 . S
Cd197 O201 2.439 . S
Cd197 O207 2.240 . S
Cd198 O199 2.240 . S
Cd198 O206 2.223 . S
Cd198 O208 2.297 . S
Cd198 O209 2.439 . S
O199 Cd198 2.240 . S
O199 C204 1.279 . S
O200 Cd197 2.297 . S
O200 C202 1.247 . S
O201 Cd197 2.439 . S
O201 C202 1.208 . S
C202 O200 1.247 . S
C202 O201 1.208 . S
C203 O208 1.247 . S
C203 O209 1.208 . S
C204 O196 1.315 . S
C204 O199 1.279 . S
C205 O206 1.315 . S
C205 O207 1.279 . S
O206 Cd198 2.223 . S
O206 C205 1.315 . S
O207 Cd197 2.240 . S
O207 C205 1.279 . S
O208 Cd198 2.297 . S
O208 C203 1.247 . S
O209 Cd198 2.439 . S
O209 C203 1.208 . S
O210 Cd211 2.223 . S
O210 C218 1.315 . S
Cd211 O210 2.223 . S
Cd211 O214 2.297 . S
Cd211 O215 2.439 . S
Cd211 O221 2.240 . S
Cd212 O213 2.240 . S
Cd212 O220 2.223 . S
Cd212 O222 2.297 . S
Cd212 O223 2.439 . S
O213 Cd212 2.240 . S
O213 C218 1.279 . S
O214 Cd211 2.297 . S
O214 C216 1.247 . S
O215 Cd211 2.439 . S
O215 C216 1.208 . S
C216 O214 1.247 . S
C216 O215 1.208 . S
C217 O222 1.247 . S
C217 O223 1.208 . S
C218 O210 1.315 . S
C218 O213 1.279 . S
C219 O220 1.315 . S
C219 O221 1.279 . S
O220 Cd212 2.223 . S
O220 C219 1.315 . S
O221 Cd211 2.240 . S
O221 C219 1.279 . S
O222 Cd212 2.297 . S
O222 C217 1.247 . S
O223 Cd212 2.439 . S
O223 C217 1.208 . S
H224 C230 0.930 . S
H225 C233 0.930 . S
H226 C234 0.930 . S
H227 C235 0.930 . S
H228 C238 0.930 . S
H229 C239 0.930 . S
C230 H224 0.930 . S
C230 C231 1.355 . S
C230 C232 1.415 . S
C231 C230 1.355 . S
C231 C233 1.419 . S
C232 C230 1.415 . S
C232 C237 1.425 . S
C232 C239 1.409 . S
C233 H225 0.930 . S
C233 C231 1.419 . S
C233 C234 1.362 . S
C234 H226 0.930 . S
C234 C233 1.362 . S
C234 C237 1.409 . S
C235 H227 0.930 . S
C235 C236 1.355 . S
C235 C237 1.415 . S
C236 C235 1.355 . S
C236 C238 1.419 . S
C237 C232 1.425 . S
C237 C234 1.409 . S
C237 C235 1.415 . S
C238 H228 0.930 . S
C238 C236 1.419 . S
C238 C239 1.362 . S
C239 H229 0.930 . S
C239 C232 1.409 . S
C239 C238 1.362 . S
H240 C246 0.930 . S
H241 C249 0.930 . S
H242 C250 0.930 . S
H243 C251 0.930 . S
H244 C254 0.930 . S
H245 C255 0.930 . S
C246 H240 0.930 . S
C246 C247 1.355 . S
C246 C248 1.415 . S
C247 C246 1.355 . S
C247 C249 1.419 . S
C248 C246 1.415 . S
C248 C253 1.425 . S
C248 C255 1.409 . S
C249 H241 0.930 . S
C249 C247 1.419 . S
C249 C250 1.362 . S
C250 H242 0.930 . S
C250 C249 1.362 . S
C250 C253 1.409 . S
C251 H243 0.930 . S
C251 C252 1.355 . S
C251 C253 1.415 . S
C252 C251 1.355 . S
C252 C254 1.419 . S
C253 C248 1.425 . S
C253 C250 1.409 . S
C253 C251 1.415 . S
C254 H244 0.930 . S
C254 C252 1.419 . S
C254 C255 1.362 . S
C255 H245 0.930 . S
C255 C248 1.409 . S
C255 C254 1.362 . S
H256 C262 0.930 . S
H257 C265 0.930 . S
H258 C266 0.930 . S
H259 C267 0.930 . S
H260 C270 0.930 . S
H261 C271 0.930 . S
C262 H256 0.930 . S
C262 C263 1.355 . S
C262 C264 1.415 . S
C263 C262 1.355 . S
C263 C265 1.419 . S
C264 C262 1.415 . S
C264 C269 1.425 . S
C264 C271 1.409 . S
C265 H257 0.930 . S
C265 C263 1.419 . S
C265 C266 1.362 . S
C266 H258 0.930 . S
C266 C265 1.362 . S
C266 C269 1.409 . S
C267 H259 0.930 . S
C267 C268 1.355 . S
C267 C269 1.415 . S
C268 C267 1.355 . S
C268 C270 1.419 . S
C269 C264 1.425 . S
C269 C266 1.409 . S
C269 C267 1.415 . S
C270 H260 0.930 . S
C270 C268 1.419 . S
C270 C271 1.362 . S
C271 H261 0.930 . S
C271 C264 1.409 . S
C271 C270 1.362 . S
H272 C278 0.930 . S
H273 C281 0.930 . S
H274 C282 0.930 . S
H275 C283 0.930 . S
H276 C286 0.930 . S
H277 C287 0.930 . S
C278 H272 0.930 . S
C278 C279 1.355 . S
C278 C280 1.415 . S
C279 C278 1.355 . S
C279 C281 1.419 . S
C280 C278 1.415 . S
C280 C285 1.425 . S
C280 C287 1.409 . S
C281 H273 0.930 . S
C281 C279 1.419 . S
C281 C282 1.362 . S
C282 H274 0.930 . S
C282 C281 1.362 . S
C282 C285 1.409 . S
C283 H275 0.930 . S
C283 C284 1.355 . S
C283 C285 1.415 . S
C284 C283 1.355 . S
C284 C286 1.419 . S
C285 C280 1.425 . S
C285 C282 1.409 . S
C285 C283 1.415 . S
C286 H276 0.930 . S
C286 C284 1.419 . S
C286 C287 1.362 . S
C287 H277 0.930 . S
C287 C280 1.409 . S
C287 C286 1.362 . S
H288 C294 0.930 . S
H289 C297 0.930 . S
H290 C298 0.930 . S
H291 C299 0.930 . S
H292 C302 0.930 . S
H293 C303 0.930 . S
C294 H288 0.930 . S
C294 C295 1.355 . S
C294 C296 1.415 . S
C295 C294 1.355 . S
C295 C297 1.419 . S
C296 C294 1.415 . S
C296 C301 1.425 . S
C296 C303 1.409 . S
C297 H289 0.930 . S
C297 C295 1.419 . S
C297 C298 1.362 . S
C298 H290 0.930 . S
C298 C297 1.362 . S
C298 C301 1.409 . S
C299 H291 0.930 . S
C299 C300 1.355 . S
C299 C301 1.415 . S
C300 C299 1.355 . S
C300 C302 1.419 . S
C301 C296 1.425 . S
C301 C298 1.409 . S
C301 C299 1.415 . S
C302 H292 0.930 . S
C302 C300 1.419 . S
C302 C303 1.362 . S
C303 H293 0.930 . S
C303 C296 1.409 . S
C303 C302 1.362 . S
H304 C310 0.930 . S
H305 C313 0.930 . S
H306 C314 0.930 . S
H307 C315 0.930 . S
H308 C318 0.930 . S
H309 C319 0.930 . S
C310 H304 0.930 . S
C310 C311 1.355 . S
C310 C312 1.415 . S
C311 C310 1.355 . S
C311 C313 1.419 . S
C312 C310 1.415 . S
C312 C317 1.425 . S
C312 C319 1.409 . S
C313 H305 0.930 . S
C313 C311 1.419 . S
C313 C314 1.362 . S
C314 H306 0.930 . S
C314 C313 1.362 . S
C314 C317 1.409 . S
C315 H307 0.930 . S
C315 C316 1.355 . S
C315 C317 1.415 . S
C316 C315 1.355 . S
C316 C318 1.419 . S
C317 C312 1.425 . S
C317 C314 1.409 . S
C317 C315 1.415 . S
C318 H308 0.930 . S
C318 C316 1.419 . S
C318 C319 1.362 . S
C319 H309 0.930 . S
C319 C312 1.409 . S
C319 C318 1.362 . S
H320 C326 0.930 . S
H321 C329 0.930 . S
H322 C330 0.930 . S
H323 C331 0.930 . S
H324 C334 0.930 . S
H325 C335 0.930 . S
C326 H320 0.930 . S
C326 C327 1.355 . S
C326 C328 1.415 . S
C327 C326 1.355 . S
C327 C329 1.419 . S
C328 C326 1.415 . S
C328 C333 1.425 . S
C328 C335 1.409 . S
C329 H321 0.930 . S
C329 C327 1.419 . S
C329 C330 1.362 . S
C330 H322 0.930 . S
C330 C329 1.362 . S
C330 C333 1.409 . S
C331 H323 0.930 . S
C331 C332 1.355 . S
C331 C333 1.415 . S
C332 C331 1.355 . S
C332 C334 1.419 . S
C333 C328 1.425 . S
C333 C330 1.409 . S
C333 C331 1.415 . S
C334 H324 0.930 . S
C334 C332 1.419 . S
C334 C335 1.362 . S
C335 H325 0.930 . S
C335 C328 1.409 . S
C335 C334 1.362 . S
H336 C342 0.930 . S
H337 C345 0.930 . S
H338 C346 0.930 . S
H339 C347 0.930 . S
H340 C350 0.930 . S
H341 C351 0.930 . S
C342 H336 0.930 . S
C342 C343 1.355 . S
C342 C344 1.415 . S
C343 C342 1.355 . S
C343 C345 1.419 . S
C344 C342 1.415 . S
C344 C349 1.425 . S
C344 C351 1.409 . S
C345 H337 0.930 . S
C345 C343 1.419 . S
C345 C346 1.362 . S
C346 H338 0.930 . S
C346 C345 1.362 . S
C346 C349 1.409 . S
C347 H339 0.930 . S
C347 C348 1.355 . S
C347 C349 1.415 . S
C348 C347 1.355 . S
C348 C350 1.419 . S
C349 C344 1.425 . S
C349 C346 1.409 . S
C349 C347 1.415 . S
C350 H340 0.930 . S
C350 C348 1.419 . S
C350 C351 1.362 . S
C351 H341 0.930 . S
C351 C344 1.409 . S
C351 C350 1.362 . S
H352 C358 0.930 . S
H353 C361 0.930 . S
H354 C362 0.930 . S
H355 C363 0.930 . S
H356 C366 0.930 . S
H357 C367 0.930 . S
C358 H352 0.930 . S
C358 C359 1.355 . S
C358 C360 1.415 1_565 S
C359 C358 1.355 . S
C359 C361 1.419 . S
C360 C358 1.415 1_545 S
C360 C365 1.425 . S
C360 C367 1.409 . S
C361 H353 0.930 . S
C361 C359 1.419 . S
C361 C362 1.362 . S
C362 H354 0.930 . S
C362 C361 1.362 . S
C362 C365 1.409 1_565 S
C363 H355 0.930 . S
C363 C364 1.355 . S
C363 C365 1.415 . S
C364 C363 1.355 . S
C364 C366 1.419 . S
C365 C360 1.425 . S
C365 C362 1.409 1_545 S
C365 C363 1.415 . S
C366 H356 0.930 . S
C366 C364 1.419 . S
C366 C367 1.362 . S
C367 H357 0.930 . S
C367 C360 1.409 . S
C367 C366 1.362 . S
H368 C374 0.930 . S
H369 C377 0.930 . S
H370 C378 0.930 . S
H371 C379 0.930 . S
H372 C382 0.930 . S
H373 C383 0.930 . S
C374 H368 0.930 . S
C374 C375 1.355 . S
C374 C376 1.415 . S
C375 C374 1.355 . S
C375 C377 1.419 . S
C376 C374 1.415 . S
C376 C381 1.425 . S
C376 C383 1.409 . S
C377 H369 0.930 . S
C377 C375 1.419 . S
C377 C378 1.362 . S
C378 H370 0.930 . S
C378 C377 1.362 . S
C378 C381 1.409 . S
C379 H371 0.930 . S
C379 C380 1.355 . S
C379 C381 1.415 . S
C380 C379 1.355 . S
C380 C382 1.419 . S
C381 C376 1.425 . S
C381 C378 1.409 . S
C381 C379 1.415 . S
C382 H372 0.930 . S
C382 C380 1.419 . S
C382 C383 1.362 . S
C383 H373 0.930 . S
C383 C376 1.409 . S
C383 C382 1.362 . S
H384 C390 0.930 . S
H385 C393 0.930 . S
H386 C394 0.930 . S
H387 C395 0.930 . S
H388 C398 0.930 . S
H389 C399 0.926 1_556 S
C390 H384 0.930 . S
C390 C391 1.355 . S
C390 C392 1.415 . S
C391 C390 1.355 . S
C391 C393 1.419 . S
C392 C390 1.415 . S
C392 C397 1.425 . S
C392 C399 1.393 1_556 S
C393 H385 0.930 . S
C393 C391 1.419 . S
C393 C394 1.362 . S
C394 H386 0.930 . S
C394 C393 1.362 . S
C394 C397 1.409 . S
C395 H387 0.930 . S
C395 C396 1.355 . S
C395 C397 1.415 1_554 S
C396 C395 1.355 . S
C396 C398 1.419 . S
C397 C392 1.425 . S
C397 C394 1.409 . S
C397 C395 1.415 1_556 S
C398 H388 0.930 . S
C398 C396 1.419 . S
C398 C399 1.384 . S
C399 H389 0.926 1_554 S
C399 C392 1.393 1_554 S
C399 C398 1.384 . S
H400 C406 0.930 1_556 S
H401 C409 0.930 . S
H402 C410 0.930 . S
H403 C411 0.930 . S
H404 C414 0.930 . S
H405 C415 0.930 . S
C406 H400 0.930 1_554 S
C406 C407 1.355 . S
C406 C408 1.415 1_554 S
C407 C406 1.355 . S
C407 C409 1.419 . S
C408 C406 1.415 1_556 S
C408 C413 1.425 . S
C408 C415 1.409 . S
C409 H401 0.930 . S
C409 C407 1.419 . S
C409 C410 1.362 . S
C410 H402 0.930 . S
C410 C409 1.362 . S
C410 C413 1.409 1_554 S
C411 H403 0.930 . S
C411 C412 1.355 . S
C411 C413 1.415 . S
C412 C411 1.355 . S
C412 C414 1.419 . S
C413 C408 1.425 . S
C413 C410 1.409 1_556 S
C413 C411 1.415 . S
C414 H404 0.930 . S
C414 C412 1.419 . S
C414 C415 1.362 . S
C415 H405 0.930 . S
C415 C408 1.409 . S
C415 C414 1.362 . S
H416 C422 0.930 . S
H417 C425 0.930 . S
H418 C426 0.930 . S
H419 C427 0.930 . S
H420 C430 0.930 . S
H421 C431 0.930 . S
C422 H416 0.930 . S
C422 C423 1.355 . S
C422 C424 1.415 . S
C423 C422 1.355 . S
C423 C425 1.419 . S
C424 C422 1.415 . S
C424 C429 1.425 . S
C424 C431 1.409 . S
C425 H417 0.930 . S
C425 C423 1.419 . S
C425 C426 1.362 . S
C426 H418 0.930 . S
C426 C425 1.362 . S
C426 C429 1.409 . S
C427 H419 0.930 . S
C427 C428 1.355 . S
C427 C429 1.415 . S
C428 C427 1.355 . S
C428 C430 1.419 . S
C429 C424 1.425 . S
C429 C426 1.409 . S
C429 C427 1.415 . S
C430 H420 0.930 . S
C430 C428 1.419 . S
C430 C431 1.362 . S
C431 H421 0.930 . S
C431 C424 1.409 . S
C431 C430 1.362 . S
H432 C438 0.930 . S
H433 C441 0.930 . S
H434 C442 0.930 . S
H435 C443 0.930 . S
H436 C446 0.930 . S
H437 C447 0.930 . S
C438 H432 0.930 . S
C438 C439 1.355 . S
C438 C440 1.415 . S
C439 C438 1.355 . S
C439 C441 1.419 . S
C440 C438 1.415 . S
C440 C445 1.425 . S
C440 C447 1.409 . S
C441 H433 0.930 . S
C441 C439 1.419 . S
C441 C442 1.362 . S
C442 H434 0.930 . S
C442 C441 1.362 . S
C442 C445 1.409 . S
C443 H435 0.930 . S
C443 C444 1.355 . S
C443 C445 1.415 . S
C444 C443 1.355 . S
C444 C446 1.419 . S
C445 C440 1.425 . S
C445 C442 1.409 . S
C445 C443 1.415 . S
C446 H436 0.930 . S
C446 C444 1.419 . S
C446 C447 1.362 . S
C447 H437 0.930 . S
C447 C440 1.409 . S
C447 C446 1.362 . S
H448 C454 0.930 . S
H449 C457 0.930 . S
H450 C458 0.930 . S
H451 C459 0.930 . S
H452 C462 0.930 . S
H453 C463 0.930 . S
C454 H448 0.930 . S
C454 C455 1.355 . S
C454 C456 1.415 1_655 S
C455 C454 1.355 . S
C455 C457 1.419 . S
C456 C454 1.415 1_455 S
C456 C461 1.425 1_455 S
C456 C463 1.409 . S
C457 H449 0.930 . S
C457 C455 1.419 . S
C457 C458 1.362 . S
C458 H450 0.930 . S
C458 C457 1.362 . S
C458 C461 1.409 . S
C459 H451 0.930 . S
C459 C460 1.355 . S
C459 C461 1.415 1_455 S
C460 C459 1.355 . S
C460 C462 1.419 . S
C461 C456 1.425 1_655 S
C461 C458 1.409 . S
C461 C459 1.415 1_655 S
C462 H452 0.930 . S
C462 C460 1.419 . S
C462 C463 1.362 . S
C463 H453 0.930 . S
C463 C456 1.409 . S
C463 C462 1.362 . S
H464 C470 0.930 . S
H465 C473 0.930 . S
H466 C474 0.930 . S
H467 C475 0.930 . S
H468 C478 0.930 . S
H469 C479 0.930 . S
C470 H464 0.930 . S
C470 C471 1.355 . S
C470 C472 1.414 1_655 S
C471 C470 1.355 . S
C471 C473 1.419 . S
C472 C470 1.414 1_455 S
C472 C477 1.425 1_455 S
C472 C479 1.410 . S
C473 H465 0.930 . S
C473 C471 1.419 . S
C473 C474 1.362 . S
C474 H466 0.930 . S
C474 C473 1.362 . S
C474 C477 1.410 . S
C475 H467 0.930 . S
C475 C476 1.355 . S
C475 C477 1.414 1_455 S
C476 C475 1.355 . S
C476 C478 1.419 . S
C477 C472 1.425 1_655 S
C477 C474 1.410 . S
C477 C475 1.414 1_655 S
C478 H468 0.930 . S
C478 C476 1.419 . S
C478 C479 1.362 . S
C479 H469 0.930 . S
C479 C472 1.410 . S
C479 C478 1.362 . S
H480 C486 0.930 . S
H481 C489 0.930 . S
H482 C490 0.930 . S
H483 C491 0.930 . S
H484 C494 0.930 . S
H485 C495 0.930 . S
C486 H480 0.930 . S
C486 C487 1.355 . S
C486 C488 1.415 . S
C487 C486 1.355 . S
C487 C489 1.419 . S
C488 C486 1.415 . S
C488 C493 1.425 . S
C488 C495 1.409 . S
C489 H481 0.930 . S
C489 C487 1.419 . S
C489 C490 1.362 . S
C490 H482 0.930 . S
C490 C489 1.362 . S
C490 C493 1.409 . S
C491 H483 0.930 . S
C491 C492 1.355 . S
C491 C493 1.415 . S
C492 C491 1.355 . S
C492 C494 1.419 . S
C493 C488 1.425 . S
C493 C490 1.409 . S
C493 C491 1.415 . S
C494 H484 0.930 . S
C494 C492 1.419 . S
C494 C495 1.362 . S
C495 H485 0.930 . S
C495 C488 1.409 . S
C495 C494 1.362 . S
H496 C502 0.930 . S
H497 C505 0.930 . S
H498 C506 0.930 . S
H499 C507 0.930 . S
H500 C510 0.930 . S
H501 C511 0.930 . S
C502 H496 0.930 . S
C502 C503 1.355 . S
C502 C504 1.415 1_545 S
C503 C502 1.355 . S
C503 C505 1.419 . S
C504 C502 1.415 1_565 S
C504 C509 1.425 . S
C504 C511 1.409 . S
C505 H497 0.930 . S
C505 C503 1.419 . S
C505 C506 1.362 . S
C506 H498 0.930 . S
C506 C505 1.362 . S
C506 C509 1.409 1_545 S
C507 H499 0.930 . S
C507 C508 1.355 . S
C507 C509 1.415 . S
C508 C507 1.355 . S
C508 C510 1.419 . S
C509 C504 1.425 . S
C509 C506 1.409 1_565 S
C509 C507 1.415 . S
C510 H500 0.930 . S
C510 C508 1.419 . S
C510 C511 1.362 . S
C511 H501 0.930 . S
C511 C504 1.409 . S
C511 C510 1.362 . S
H512 C518 0.930 . S
H513 C521 0.930 . S
H514 C522 0.930 . S
H515 C523 0.930 . S
H516 C526 0.930 . S
H517 C527 0.930 . S
C518 H512 0.930 . S
C518 C519 1.355 . S
C518 C520 1.415 . S
C519 C518 1.355 . S
C519 C521 1.419 . S
C520 C518 1.415 . S
C520 C525 1.425 . S
C520 C527 1.409 . S
C521 H513 0.930 . S
C521 C519 1.419 . S
C521 C522 1.362 . S
C522 H514 0.930 . S
C522 C521 1.362 . S
C522 C525 1.409 . S
C523 H515 0.930 . S
C523 C524 1.355 . S
C523 C525 1.415 . S
C524 C523 1.355 . S
C524 C526 1.419 . S
C525 C520 1.425 . S
C525 C522 1.409 . S
C525 C523 1.415 . S
C526 H516 0.930 . S
C526 C524 1.419 . S
C526 C527 1.362 . S
C527 H517 0.930 . S
C527 C520 1.409 . S
C527 C526 1.362 . S
H528 C534 0.930 . S
H529 C537 0.930 . S
H530 C538 0.930 . S
H531 C539 0.930 . S
H532 C542 0.930 . S
H533 C543 0.930 . S
C534 H528 0.930 . S
C534 C535 1.355 . S
C534 C536 1.415 . S
C535 C534 1.355 . S
C535 C537 1.419 . S
C536 C534 1.415 . S
C536 C541 1.425 . S
C536 C543 1.409 . S
C537 H529 0.930 . S
C537 C535 1.419 . S
C537 C538 1.362 . S
C538 H530 0.930 . S
C538 C537 1.362 . S
C538 C541 1.409 . S
C539 H531 0.930 . S
C539 C540 1.355 . S
C539 C541 1.415 1_556 S
C540 C539 1.355 . S
C540 C542 1.419 . S
C541 C536 1.425 . S
C541 C538 1.409 . S
C541 C539 1.415 1_554 S
C542 H532 0.930 . S
C542 C540 1.419 . S
C542 C543 1.362 1_556 S
C543 H533 0.930 . S
C543 C536 1.409 . S
C543 C542 1.362 1_554 S
H544 C550 0.930 . S
H545 C553 0.930 . S
H546 C554 0.930 . S
H547 C555 0.930 . S
H548 C558 0.930 . S
H549 C559 0.930 . S
C550 H544 0.930 . S
C550 C551 1.355 . S
C550 C552 1.415 1_556 S
C551 C550 1.355 . S
C551 C553 1.419 . S
C552 C550 1.415 1_554 S
C552 C557 1.425 . S
C552 C559 1.409 . S
C553 H545 0.930 . S
C553 C551 1.419 . S
C553 C554 1.362 1_556 S
C554 H546 0.930 . S
C554 C553 1.362 1_554 S
C554 C557 1.409 . S
C555 H547 0.930 . S
C555 C556 1.355 . S
C555 C557 1.415 . S
C556 C555 1.355 . S
C556 C558 1.419 . S
C557 C552 1.425 . S
C557 C554 1.409 . S
C557 C555 1.415 . S
C558 H548 0.930 . S
C558 C556 1.419 . S
C558 C559 1.362 . S
C559 H549 0.930 . S
C559 C552 1.409 . S
C559 C558 1.362 . S
H560 C566 0.930 . S
H561 C569 0.930 . S
H562 C570 0.930 . S
H563 C571 0.930 . S
H564 C574 0.930 . S
H565 C575 0.930 . S
C566 H560 0.930 . S
C566 C567 1.355 . S
C566 C568 1.415 . S
C567 C566 1.355 . S
C567 C569 1.419 . S
C568 C566 1.415 . S
C568 C573 1.425 . S
C568 C575 1.409 . S
C569 H561 0.930 . S
C569 C567 1.419 . S
C569 C570 1.362 . S
C570 H562 0.930 . S
C570 C569 1.362 . S
C570 C573 1.409 . S
C571 H563 0.930 . S
C571 C572 1.355 . S
C571 C573 1.415 . S
C572 C571 1.355 . S
C572 C574 1.419 . S
C573 C568 1.425 . S
C573 C570 1.409 . S
C573 C571 1.415 . S
C574 H564 0.930 . S
C574 C572 1.419 . S
C574 C575 1.362 . S
C575 H565 0.930 . S
C575 C568 1.409 . S
C575 C574 1.362 . S
H576 C582 0.930 . S
H577 C585 0.930 . S
H578 C586 0.930 . S
H579 C587 0.930 . S
H580 C590 0.930 . S
H581 C591 0.930 . S
C582 H576 0.930 . S
C582 C583 1.355 . S
C582 C584 1.415 . S
C583 C582 1.355 . S
C583 C585 1.419 . S
C584 C582 1.415 . S
C584 C589 1.425 . S
C584 C591 1.409 . S
C585 H577 0.930 . S
C585 C583 1.419 . S
C585 C586 1.362 . S
C586 H578 0.930 . S
C586 C585 1.362 . S
C586 C589 1.409 . S
C587 H579 0.930 . S
C587 C588 1.355 . S
C587 C589 1.415 . S
C588 C587 1.355 . S
C588 C590 1.419 . S
C589 C584 1.425 . S
C589 C586 1.409 . S
C589 C587 1.415 . S
C590 H580 0.930 . S
C590 C588 1.419 . S
C590 C591 1.362 . S
C591 H581 0.930 . S
C591 C584 1.409 . S
C591 C590 1.362 . S
H592 C598 0.930 . S
H593 C601 0.930 . S
H594 C602 0.930 . S
H595 C603 0.930 . S
H596 C606 0.930 . S
H597 C607 0.930 . S
C598 H592 0.930 . S
C598 C599 1.355 . S
C598 C600 1.415 . S
C599 C598 1.355 . S
C599 C601 1.419 1_455 S
C600 C598 1.415 . S
C600 C605 1.425 1_455 S
C600 C607 1.409 . S
C601 H593 0.930 . S
C601 C599 1.419 1_655 S
C601 C602 1.362 . S
C602 H594 0.930 . S
C602 C601 1.362 . S
C602 C605 1.409 . S
C603 H595 0.930 . S
C603 C604 1.355 . S
C603 C605 1.415 . S
C604 C603 1.355 . S
C604 C606 1.419 1_655 S
C605 C600 1.425 1_655 S
C605 C602 1.409 . S
C605 C603 1.415 . S
C606 H596 0.930 . S
C606 C604 1.419 1_455 S
C606 C607 1.362 . S
C607 H597 0.930 . S
C607 C600 1.409 . S
C607 C606 1.362 . S
H608 C614 0.930 . S
H609 C617 0.930 . S
H610 C618 0.930 . S
H611 C619 0.930 . S
H612 C622 0.930 . S
H613 C623 0.930 . S
C614 H608 0.930 . S
C614 C615 1.355 . S
C614 C616 1.425 . S
C615 C614 1.355 . S
C615 C617 1.419 . S
C616 C614 1.425 . S
C616 C621 1.428 1_455 S
C616 C623 1.398 1_455 S
C617 H609 0.930 . S
C617 C615 1.419 . S
C617 C618 1.362 . S
C618 H610 0.930 . S
C618 C617 1.362 . S
C618 C621 1.398 1_455 S
C619 H611 0.930 . S
C619 C620 1.355 . S
C619 C621 1.425 . S
C620 C619 1.355 . S
C620 C622 1.419 . S
C621 C616 1.428 1_655 S
C621 C618 1.398 1_655 S
C621 C619 1.425 . S
C622 H612 0.930 . S
C622 C620 1.419 . S
C622 C623 1.362 . S
C623 H613 0.930 . S
C623 C616 1.398 1_655 S
C623 C622 1.362 . S
H624 C630 0.930 . S
H625 C633 0.930 . S
H626 C634 0.930 . S
H627 C635 0.930 . S
H628 C638 0.930 . S
H629 C639 0.930 . S
C630 H624 0.930 . S
C630 C631 1.355 . S
C630 C632 1.415 . S
C631 C630 1.355 . S
C631 C633 1.419 . S
C632 C630 1.415 . S
C632 C637 1.425 . S
C632 C639 1.409 . S
C633 H625 0.930 . S
C633 C631 1.419 . S
C633 C634 1.362 . S
C634 H626 0.930 . S
C634 C633 1.362 . S
C634 C637 1.409 . S
C635 H627 0.930 . S
C635 C636 1.355 . S
C635 C637 1.415 . S
C636 C635 1.355 . S
C636 C638 1.419 . S
C637 C632 1.425 . S
C637 C634 1.409 . S
C637 C635 1.415 . S
C638 H628 0.930 . S
C638 C636 1.419 . S
C638 C639 1.362 . S
C639 H629 0.930 . S
C639 C632 1.409 . S
C639 C638 1.362 . S
H640 C646 0.930 . S
H641 C649 0.930 . S
H642 C650 0.930 . S
H643 C651 0.930 . S
H644 C654 0.930 . S
H645 C655 0.930 . S
C646 H640 0.930 . S
C646 C647 1.355 . S
C646 C648 1.415 . S
C647 C646 1.355 . S
C647 C649 1.419 . S
C648 C646 1.415 . S
C648 C653 1.425 . S
C648 C655 1.409 . S
C649 H641 0.930 . S
C649 C647 1.419 . S
C649 C650 1.362 . S
C650 H642 0.930 . S
C650 C649 1.362 . S
C650 C653 1.409 . S
C651 H643 0.930 . S
C651 C652 1.355 . S
C651 C653 1.415 . S
C652 C651 1.355 . S
C652 C654 1.419 . S
C653 C648 1.425 . S
C653 C650 1.409 . S
C653 C651 1.415 . S
C654 H644 0.930 . S
C654 C652 1.419 . S
C654 C655 1.362 . S
C655 H645 0.930 . S
C655 C648 1.409 . S
C655 C654 1.362 . S
H656 C662 0.930 . S
H657 C665 0.930 . S
H658 C666 0.930 . S
H659 C667 0.930 . S
H660 C670 0.930 . S
H661 C671 0.930 . S
C662 H656 0.930 . S
C662 C663 1.355 . S
C662 C664 1.415 1_545 S
C663 C662 1.355 . S
C663 C665 1.419 . S
C664 C662 1.415 1_565 S
C664 C669 1.425 . S
C664 C671 1.409 . S
C665 H657 0.930 . S
C665 C663 1.419 . S
C665 C666 1.362 1_545 S
C666 H658 0.930 . S
C666 C665 1.362 1_565 S
C666 C669 1.409 . S
C667 H659 0.930 . S
C667 C668 1.355 . S
C667 C669 1.415 . S
C668 C667 1.355 . S
C668 C670 1.419 . S
C669 C664 1.425 . S
C669 C666 1.409 . S
C669 C667 1.415 . S
C670 H660 0.930 . S
C670 C668 1.419 . S
C670 C671 1.362 . S
C671 H661 0.930 . S
C671 C664 1.409 . S
C671 C670 1.362 . S
H672 C678 0.930 . S
H673 C681 0.930 . S
H674 C682 0.930 . S
H675 C683 0.930 . S
H676 C686 0.930 . S
H677 C687 0.930 . S
C678 H672 0.930 . S
C678 C679 1.355 . S
C678 C680 1.415 . S
C679 C678 1.355 . S
C679 C681 1.419 . S
C680 C678 1.415 . S
C680 C685 1.425 . S
C680 C687 1.409 . S
C681 H673 0.930 . S
C681 C679 1.419 . S
C681 C682 1.362 . S
C682 H674 0.930 . S
C682 C681 1.362 . S
C682 C685 1.409 . S
C683 H675 0.930 . S
C683 C684 1.355 . S
C683 C685 1.415 . S
C684 C683 1.355 . S
C684 C686 1.419 . S
C685 C680 1.425 . S
C685 C682 1.409 . S
C685 C683 1.415 . S
C686 H676 0.930 . S
C686 C684 1.419 . S
C686 C687 1.362 . S
C687 H677 0.930 . S
C687 C680 1.409 . S
C687 C686 1.362 . S
H688 C694 0.930 . S
H689 C697 0.930 . S
H690 C698 0.930 . S
H691 C699 0.930 . S
H692 C702 0.930 . S
H693 C703 0.930 . S
C694 H688 0.930 . S
C694 C695 1.355 . S
C694 C696 1.415 . S
C695 C694 1.355 . S
C695 C697 1.419 . S
C696 C694 1.415 . S
C696 C701 1.425 . S
C696 C703 1.409 . S
C697 H689 0.930 . S
C697 C695 1.419 . S
C697 C698 1.362 . S
C698 H690 0.930 . S
C698 C697 1.362 . S
C698 C701 1.409 . S
C699 H691 0.930 . S
C699 C700 1.355 . S
C699 C701 1.415 . S
C700 C699 1.355 . S
C700 C702 1.419 . S
C701 C696 1.425 . S
C701 C698 1.409 . S
C701 C699 1.415 . S
C702 H692 0.930 . S
C702 C700 1.419 . S
C702 C703 1.362 . S
C703 H693 0.930 . S
C703 C696 1.409 . S
C703 C702 1.362 . S
H704 C710 0.930 . S
H705 C713 0.930 . S
H706 C714 0.930 . S
H707 C715 0.930 . S
H708 C718 0.930 . S
H709 C719 0.930 . S
C710 H704 0.930 . S
C710 C711 1.355 . S
C710 C712 1.415 . S
C711 C710 1.355 . S
C711 C713 1.419 . S
C712 C710 1.415 . S
C712 C717 1.425 . S
C712 C719 1.409 1_545 S
C713 H705 0.930 . S
C713 C711 1.419 . S
C713 C714 1.362 . S
C714 H706 0.930 . S
C714 C713 1.362 . S
C714 C717 1.409 . S
C715 H707 0.930 . S
C715 C716 1.355 . S
C715 C717 1.415 1_565 S
C716 C715 1.355 . S
C716 C718 1.419 . S
C717 C712 1.425 . S
C717 C714 1.409 . S
C717 C715 1.415 1_545 S
C718 H708 0.930 . S
C718 C716 1.419 . S
C718 C719 1.362 . S
C719 H709 0.930 . S
C719 C712 1.409 1_565 S
C719 C718 1.362 . S
H720 C726 0.930 . S
H721 C729 0.930 . S
H722 C730 0.930 . S
H723 C731 0.930 . S
H724 C734 0.930 . S
H725 C735 0.930 . S
C726 H720 0.930 . S
C726 C727 1.355 . S
C726 C728 1.415 . S
C727 C726 1.355 . S
C727 C729 1.419 . S
C728 C726 1.415 . S
C728 C733 1.425 . S
C728 C735 1.409 . S
C729 H721 0.930 . S
C729 C727 1.419 . S
C729 C730 1.362 . S
C730 H722 0.930 . S
C730 C729 1.362 . S
C730 C733 1.409 . S
C731 H723 0.930 . S
C731 C732 1.355 . S
C731 C733 1.415 . S
C732 C731 1.355 . S
C732 C734 1.419 . S
C733 C728 1.425 . S
C733 C730 1.409 . S
C733 C731 1.415 . S
C734 H724 0.930 . S
C734 C732 1.419 . S
C734 C735 1.362 . S
C735 H725 0.930 . S
C735 C728 1.409 . S
C735 C734 1.362 . S
C231 C9 1.534 . S
C236 C191 1.510 . S
C247 C23 1.531 . S
C252 C135 1.542 . S
C263 C205 1.265 . S
C268 C37 1.285 . S
C279 C51 1.274 . S
C284 C219 1.283 . S
C295 C65 1.553 . S
C300 C93 1.512 . S
C311 C149 1.550 . S
C316 C79 1.533 . S
C327 C163 1.270 . S
C332 C107 1.266 . S
C343 C121 1.252 . S
C348 C177 1.274 . S
C359 C35 1.380 . S
C364 C7 1.434 . S
C375 C21 1.479 . S
C380 C49 1.364 . S
C391 C174 1.437 . S
C396 C6 1.463 . S
C407 C20 1.469 . S
C412 C160 1.347 . S
C423 C62 1.451 . S
C428 C34 1.377 . S
C439 C146 1.453 . S
C444 C48 1.414 . S
C455 C22 2.217 . S
C460 C8 2.219 . S
C471 C50 1.527 . S
C476 C36 1.520 . S
C487 C148 2.229 . S
C492 C64 2.223 . S
C503 C104 1.637 . S
C508 C78 1.729 . S
C519 C92 1.762 . S
C524 C118 1.657 . S
C535 C217 1.629 . S
C540 C76 1.717 . S
C551 C90 1.731 . S
C556 C203 1.621 . S
C567 C132 1.692 . S
C572 C105 1.682 . S
C583 C119 1.635 . S
C588 C188 1.713 . S
C599 C91 1.059 . S
C604 C77 1.070 . S
C615 C120 1.827 . S
C620 C106 1.820 . S
C631 C133 1.040 . S
C636 C189 1.083 . S
C647 C147 1.482 . S
C652 C161 1.374 . S
C663 C175 1.389 . S
C668 C63 1.483 . S
C679 C176 1.519 . S
C684 C162 1.536 . S
C695 C202 1.677 . S
C700 C190 1.734 . S
C711 C134 1.748 . S
C716 C216 1.613 . S
C727 C218 1.829 . S
C732 C204 1.820 . S
