# Generated by pormake.
# Topology wil, (6)-cn, num edge types: 1
# Building blocks:
#     Node 0, Type 0, BuildingBlock: IZENUY_clean_sbu_0, # of connection points: 6
#     Node 1, Type 0, BuildingBlock: IZENUY_clean_sbu_0, # of connection points: 6
#     Node 2, Type 0, BuildingBlock: IZENUY_clean_sbu_0, # of connection points: 6
#     Node 3, Type 0, BuildingBlock: IZENUY_clean_sbu_0, # of connection points: 6
#     Node 4, Type 0, BuildingBlock: IZENUY_clean_sbu_0, # of connection points: 6
#     Node 5, Type 0, BuildingBlock: IZENUY_clean_sbu_0, # of connection points: 6
#     Node 6, Type 0, BuildingBlock: IZENUY_clean_sbu_0, # of connection points: 6
#     Node 7, Type 0, BuildingBlock: IZENUY_clean_sbu_0, # of connection points: 6
#     Node 8, Type 0, BuildingBlock: IZENUY_clean_sbu_0, # of connection points: 6
#     Node 9, Type 0, BuildingBlock: IZENUY_clean_sbu_0, # of connection points: 6
#     Node 10, Type 0, BuildingBlock: IZENUY_clean_sbu_0, # of connection points: 6
#     Node 11, Type 0, BuildingBlock: IZENUY_clean_sbu_0, # of connection points: 6
#     Node 12, Type 0, BuildingBlock: IZENUY_clean_sbu_0, # of connection points: 6
#     Node 13, Type 0, BuildingBlock: IZENUY_clean_sbu_0, # of connection points: 6
#     Node 14, Type 0, BuildingBlock: IZENUY_clean_sbu_0, # of connection points: 6
#     Node 15, Type 0, BuildingBlock: IZENUY_clean_sbu_0, # of connection points: 6
#     Node 16, Type 0, BuildingBlock: IZENUY_clean_sbu_0, # of connection points: 6
#     Node 17, Type 0, BuildingBlock: IZENUY_clean_sbu_0, # of connection points: 6
#     Node 18, Type 0, BuildingBlock: IZENUY_clean_sbu_0, # of connection points: 6
#     Node 19, Type 0, BuildingBlock: IZENUY_clean_sbu_0, # of connection points: 6
#     Node 20, Type 0, BuildingBlock: IZENUY_clean_sbu_0, # of connection points: 6
#     Node 21, Type 0, BuildingBlock: IZENUY_clean_sbu_0, # of connection points: 6
#     Node 22, Type 0, BuildingBlock: IZENUY_clean_sbu_0, # of connection points: 6
#     Node 23, Type 0, BuildingBlock: IZENUY_clean_sbu_0, # of connection points: 6
#     Node 24, Type 0, BuildingBlock: IZENUY_clean_sbu_0, # of connection points: 6
#     Node 25, Type 0, BuildingBlock: IZENUY_clean_sbu_0, # of connection points: 6
#     Node 26, Type 0, BuildingBlock: IZENUY_clean_sbu_0, # of connection points: 6
#     Node 27, Type 0, BuildingBlock: IZENUY_clean_sbu_0, # of connection points: 6
#     Node 28, Type 0, BuildingBlock: IZENUY_clean_sbu_0, # of connection points: 6
#     Node 29, Type 0, BuildingBlock: IZENUY_clean_sbu_0, # of connection points: 6
#     Node 30, Type 0, BuildingBlock: IZENUY_clean_sbu_0, # of connection points: 6
#     Node 31, Type 0, BuildingBlock: IZENUY_clean_sbu_0, # of connection points: 6
#     Edge 32, Type (0, 0), BuildingBlock: UVAHIK_clean_linker_0, # of connection points: 2
#     Edge 33, Type (0, 0), BuildingBlock: UVAHIK_clean_linker_0, # of connection points: 2
#     Edge 34, Type (0, 0), BuildingBlock: UVAHIK_clean_linker_0, # of connection points: 2
#     Edge 35, Type (0, 0), BuildingBlock: UVAHIK_clean_linker_0, # of connection points: 2
#     Edge 36, Type (0, 0), BuildingBlock: UVAHIK_clean_linker_0, # of connection points: 2
#     Edge 37, Type (0, 0), BuildingBlock: UVAHIK_clean_linker_0, # of connection points: 2
#     Edge 38, Type (0, 0), BuildingBlock: UVAHIK_clean_linker_0, # of connection points: 2
#     Edge 39, Type (0, 0), BuildingBlock: UVAHIK_clean_linker_0, # of connection points: 2
#     Edge 40, Type (0, 0), BuildingBlock: UVAHIK_clean_linker_0, # of connection points: 2
#     Edge 41, Type (0, 0), BuildingBlock: UVAHIK_clean_linker_0, # of connection points: 2
#     Edge 42, Type (0, 0), BuildingBlock: UVAHIK_clean_linker_0, # of connection points: 2
#     Edge 43, Type (0, 0), BuildingBlock: UVAHIK_clean_linker_0, # of connection points: 2
#     Edge 44, Type (0, 0), BuildingBlock: UVAHIK_clean_linker_0, # of connection points: 2
#     Edge 45, Type (0, 0), BuildingBlock: UVAHIK_clean_linker_0, # of connection points: 2
#     Edge 46, Type (0, 0), BuildingBlock: UVAHIK_clean_linker_0, # of connection points: 2
#     Edge 47, Type (0, 0), BuildingBlock: UVAHIK_clean_linker_0, # of connection points: 2
#     Edge 48, Type (0, 0), BuildingBlock: UVAHIK_clean_linker_0, # of connection points: 2
#     Edge 49, Type (0, 0), BuildingBlock: UVAHIK_clean_linker_0, # of connection points: 2
#     Edge 50, Type (0, 0), BuildingBlock: UVAHIK_clean_linker_0, # of connection points: 2
#     Edge 51, Type (0, 0), BuildingBlock: UVAHIK_clean_linker_0, # of connection points: 2
#     Edge 52, Type (0, 0), BuildingBlock: UVAHIK_clean_linker_0, # of connection points: 2
#     Edge 53, Type (0, 0), BuildingBlock: UVAHIK_clean_linker_0, # of connection points: 2
#     Edge 54, Type (0, 0), BuildingBlock: UVAHIK_clean_linker_0, # of connection points: 2
#     Edge 55, Type (0, 0), BuildingBlock: UVAHIK_clean_linker_0, # of connection points: 2
#     Edge 56, Type (0, 0), BuildingBlock: UVAHIK_clean_linker_0, # of connection points: 2
#     Edge 57, Type (0, 0), BuildingBlock: UVAHIK_clean_linker_0, # of connection points: 2
#     Edge 58, Type (0, 0), BuildingBlock: UVAHIK_clean_linker_0, # of connection points: 2
#     Edge 59, Type (0, 0), BuildingBlock: UVAHIK_clean_linker_0, # of connection points: 2
#     Edge 60, Type (0, 0), BuildingBlock: UVAHIK_clean_linker_0, # of connection points: 2
#     Edge 61, Type (0, 0), BuildingBlock: UVAHIK_clean_linker_0, # of connection points: 2
#     Edge 62, Type (0, 0), BuildingBlock: UVAHIK_clean_linker_0, # of connection points: 2
#     Edge 63, Type (0, 0), BuildingBlock: UVAHIK_clean_linker_0, # of connection points: 2
#     Edge 64, Type (0, 0), BuildingBlock: UVAHIK_clean_linker_0, # of connection points: 2
#     Edge 65, Type (0, 0), BuildingBlock: UVAHIK_clean_linker_0, # of connection points: 2
#     Edge 66, Type (0, 0), BuildingBlock: UVAHIK_clean_linker_0, # of connection points: 2
#     Edge 67, Type (0, 0), BuildingBlock: UVAHIK_clean_linker_0, # of connection points: 2
#     Edge 68, Type (0, 0), BuildingBlock: UVAHIK_clean_linker_0, # of connection points: 2
#     Edge 69, Type (0, 0), BuildingBlock: UVAHIK_clean_linker_0, # of connection points: 2
#     Edge 70, Type (0, 0), BuildingBlock: UVAHIK_clean_linker_0, # of connection points: 2
#     Edge 71, Type (0, 0), BuildingBlock: UVAHIK_clean_linker_0, # of connection points: 2
#     Edge 72, Type (0, 0), BuildingBlock: UVAHIK_clean_linker_0, # of connection points: 2
#     Edge 73, Type (0, 0), BuildingBlock: UVAHIK_clean_linker_0, # of connection points: 2
#     Edge 74, Type (0, 0), BuildingBlock: UVAHIK_clean_linker_0, # of connection points: 2
#     Edge 75, Type (0, 0), BuildingBlock: UVAHIK_clean_linker_0, # of connection points: 2
#     Edge 76, Type (0, 0), BuildingBlock: UVAHIK_clean_linker_0, # of connection points: 2
#     Edge 77, Type (0, 0), BuildingBlock: UVAHIK_clean_linker_0, # of connection points: 2
#     Edge 78, Type (0, 0), BuildingBlock: UVAHIK_clean_linker_0, # of connection points: 2
#     Edge 79, Type (0, 0), BuildingBlock: UVAHIK_clean_linker_0, # of connection points: 2
#     Edge 80, Type (0, 0), BuildingBlock: UVAHIK_clean_linker_0, # of connection points: 2
#     Edge 81, Type (0, 0), BuildingBlock: UVAHIK_clean_linker_0, # of connection points: 2
#     Edge 82, Type (0, 0), BuildingBlock: UVAHIK_clean_linker_0, # of connection points: 2
#     Edge 83, Type (0, 0), BuildingBlock: UVAHIK_clean_linker_0, # of connection points: 2
#     Edge 84, Type (0, 0), BuildingBlock: UVAHIK_clean_linker_0, # of connection points: 2
#     Edge 85, Type (0, 0), BuildingBlock: UVAHIK_clean_linker_0, # of connection points: 2
#     Edge 86, Type (0, 0), BuildingBlock: UVAHIK_clean_linker_0, # of connection points: 2
#     Edge 87, Type (0, 0), BuildingBlock: UVAHIK_clean_linker_0, # of connection points: 2
#     Edge 88, Type (0, 0), BuildingBlock: UVAHIK_clean_linker_0, # of connection points: 2
#     Edge 89, Type (0, 0), BuildingBlock: UVAHIK_clean_linker_0, # of connection points: 2
#     Edge 90, Type (0, 0), BuildingBlock: UVAHIK_clean_linker_0, # of connection points: 2
#     Edge 91, Type (0, 0), BuildingBlock: UVAHIK_clean_linker_0, # of connection points: 2
#     Edge 92, Type (0, 0), BuildingBlock: UVAHIK_clean_linker_0, # of connection points: 2
#     Edge 93, Type (0, 0), BuildingBlock: UVAHIK_clean_linker_0, # of connection points: 2
#     Edge 94, Type (0, 0), BuildingBlock: UVAHIK_clean_linker_0, # of connection points: 2
#     Edge 95, Type (0, 0), BuildingBlock: UVAHIK_clean_linker_0, # of connection points: 2
#     Edge 96, Type (0, 0), BuildingBlock: UVAHIK_clean_linker_0, # of connection points: 2
#     Edge 97, Type (0, 0), BuildingBlock: UVAHIK_clean_linker_0, # of connection points: 2
#     Edge 98, Type (0, 0), BuildingBlock: UVAHIK_clean_linker_0, # of connection points: 2
#     Edge 99, Type (0, 0), BuildingBlock: UVAHIK_clean_linker_0, # of connection points: 2
#     Edge 100, Type (0, 0), BuildingBlock: UVAHIK_clean_linker_0, # of connection points: 2
#     Edge 101, Type (0, 0), BuildingBlock: UVAHIK_clean_linker_0, # of connection points: 2
#     Edge 102, Type (0, 0), BuildingBlock: UVAHIK_clean_linker_0, # of connection points: 2
#     Edge 103, Type (0, 0), BuildingBlock: UVAHIK_clean_linker_0, # of connection points: 2
#     Edge 104, Type (0, 0), BuildingBlock: UVAHIK_clean_linker_0, # of connection points: 2
#     Edge 105, Type (0, 0), BuildingBlock: UVAHIK_clean_linker_0, # of connection points: 2
#     Edge 106, Type (0, 0), BuildingBlock: UVAHIK_clean_linker_0, # of connection points: 2
#     Edge 107, Type (0, 0), BuildingBlock: UVAHIK_clean_linker_0, # of connection points: 2
#     Edge 108, Type (0, 0), BuildingBlock: UVAHIK_clean_linker_0, # of connection points: 2
#     Edge 109, Type (0, 0), BuildingBlock: UVAHIK_clean_linker_0, # of connection points: 2
#     Edge 110, Type (0, 0), BuildingBlock: UVAHIK_clean_linker_0, # of connection points: 2
#     Edge 111, Type (0, 0), BuildingBlock: UVAHIK_clean_linker_0, # of connection points: 2
#     Edge 112, Type (0, 0), BuildingBlock: UVAHIK_clean_linker_0, # of connection points: 2
#     Edge 113, Type (0, 0), BuildingBlock: UVAHIK_clean_linker_0, # of connection points: 2
#     Edge 114, Type (0, 0), BuildingBlock: UVAHIK_clean_linker_0, # of connection points: 2
#     Edge 115, Type (0, 0), BuildingBlock: UVAHIK_clean_linker_0, # of connection points: 2
#     Edge 116, Type (0, 0), BuildingBlock: UVAHIK_clean_linker_0, # of connection points: 2
#     Edge 117, Type (0, 0), BuildingBlock: UVAHIK_clean_linker_0, # of connection points: 2
#     Edge 118, Type (0, 0), BuildingBlock: UVAHIK_clean_linker_0, # of connection points: 2
#     Edge 119, Type (0, 0), BuildingBlock: UVAHIK_clean_linker_0, # of connection points: 2
#     Edge 120, Type (0, 0), BuildingBlock: UVAHIK_clean_linker_0, # of connection points: 2
#     Edge 121, Type (0, 0), BuildingBlock: UVAHIK_clean_linker_0, # of connection points: 2
#     Edge 122, Type (0, 0), BuildingBlock: UVAHIK_clean_linker_0, # of connection points: 2
#     Edge 123, Type (0, 0), BuildingBlock: UVAHIK_clean_linker_0, # of connection points: 2
#     Edge 124, Type (0, 0), BuildingBlock: UVAHIK_clean_linker_0, # of connection points: 2
#     Edge 125, Type (0, 0), BuildingBlock: UVAHIK_clean_linker_0, # of connection points: 2
#     Edge 126, Type (0, 0), BuildingBlock: UVAHIK_clean_linker_0, # of connection points: 2
#     Edge 127, Type (0, 0), BuildingBlock: UVAHIK_clean_linker_0, # of connection points: 2
# Relax obj value: 0.468
# Max RMSD: 0.260
# Mean RMSD: 0.260
data_MOF--net-wil--node1-IZENUY_clean_sbu_0--edge1-UVAHIK_clean_linker_0
_symmetry_space_group_name_H-M    P1
_symmetry_Int_Tables_number       1
_symmetry_cell_setting            triclinic
loop_
_symmetry_equiv_pos_as_xyz
'x, y, z'
_cell_length_a     87.82261
_cell_length_b     87.780545
_cell_length_c     31.760318
_cell_angle_alpha  89.991784
_cell_angle_beta   89.987636
_cell_angle_gamma 90.009516
loop_
_atom_site_label
_atom_site_type_symbol
_atom_site_fract_x
_atom_site_fract_y
_atom_site_fract_z
_atom_type_partial_charge
Fe0 Fe 0.16211 0.20932 0.35174 0.0
Fe1 Fe 0.13996 0.19278 0.29384 0.0
O2 O 0.15145 0.19286 0.33942 0.0
Fe3 Fe 0.15197 0.17662 0.37276 0.0
O4 O 0.15431 0.18758 0.4219 0.0
O5 O 0.1522 0.21137 0.40101 0.0
O6 O 0.14827 0.22281 0.32966 0.0
C7 C 0.13417 0.22143 0.32233 0.0
C8 C 0.1819 0.18498 0.37566 0.0
O9 O 0.1285 0.20862 0.31326 0.0
C10 C 0.15213 0.16435 0.28966 0.0
O11 O 0.17262 0.20853 0.3026 0.0
O12 O 0.15222 0.20564 0.26381 0.0
O13 O 0.17247 0.17458 0.36694 0.0
O14 O 0.1778 0.19883 0.37649 0.0
C15 C 0.12168 0.17727 0.35281 0.0
O16 O 0.15078 0.17718 0.27218 0.0
O17 O 0.14977 0.16283 0.32898 0.0
C18 C 0.166 0.20962 0.2675 0.0
O19 O 0.12547 0.17989 0.31512 0.0
O20 O 0.1315 0.1776 0.38173 0.0
C21 C 0.15161 0.20148 0.42964 0.0
Fe22 Fe 0.04578 0.91406 0.6097 0.0
Fe23 Fe 0.06094 0.89213 0.54846 0.0
O24 O 0.0616 0.90277 0.59558 0.0
Fe25 Fe 0.07791 0.90184 0.62867 0.0
O26 O 0.06714 0.90409 0.67842 0.0
O27 O 0.04331 0.90334 0.65747 0.0
O28 O 0.03152 0.90139 0.58606 0.0
C29 C 0.03207 0.88737 0.57683 0.0
C30 C 0.07113 0.93212 0.63513 0.0
O31 O 0.04453 0.88124 0.56646 0.0
C32 C 0.09007 0.90246 0.54521 0.0
O33 O 0.04704 0.92544 0.56229 0.0
O34 O 0.04883 0.90572 0.52023 0.0
O35 O 0.08103 0.92228 0.6255 0.0
O36 O 0.05711 0.92877 0.63616 0.0
C37 C 0.076 0.87201 0.60447 0.0
O38 O 0.07713 0.90239 0.52806 0.0
O39 O 0.0915 0.89958 0.5843 0.0
C40 C 0.04592 0.91968 0.52612 0.0
O41 O 0.07299 0.87653 0.56758 0.0
O42 O 0.07597 0.88128 0.63488 0.0
C43 C 0.05309 0.90222 0.68621 0.0
Fe44 Fe 0.36693 0.81091 0.81802 0.0
Fe45 Fe 0.34911 0.82964 0.8828 0.0
O46 O 0.352 0.81231 0.85519 0.0
Fe47 Fe 0.34003 0.79651 0.86492 0.0
O48 O 0.35601 0.78468 0.88083 0.0
O49 O 0.3709 0.79068 0.82779 0.0
O50 O 0.38105 0.81529 0.85767 0.0
C51 C 0.38135 0.82771 0.87746 0.0
C52 C 0.34523 0.79484 0.77639 0.0
O53 O 0.36928 0.83546 0.88201 0.0
C54 C 0.31884 0.8189 0.86978 0.0
O55 O 0.36554 0.8309 0.80119 0.0
O56 O 0.34524 0.83971 0.83388 0.0
O57 O 0.34085 0.78915 0.81097 0.0
O58 O 0.35388 0.8063 0.77583 0.0
C59 C 0.34492 0.80906 0.9459 0.0
O60 O 0.32847 0.82715 0.88877 0.0
O61 O 0.3231 0.80713 0.85022 0.0
C62 C 0.35449 0.84013 0.80347 0.0
O63 O 0.35264 0.82036 0.9334 0.0
O64 O 0.33728 0.80101 0.92049 0.0
C65 C 0.3674 0.78189 0.85786 0.0
Fe66 Fe 0.41911 0.09869 0.13641 0.0
Fe67 Fe 0.45064 0.08407 0.12378 0.0
O68 O 0.43709 0.09828 0.11085 0.0
Fe69 Fe 0.44147 0.11206 0.07217 0.0
O70 O 0.43886 0.12755 0.10906 0.0
O71 O 0.41694 0.11953 0.1337 0.0
O72 O 0.42807 0.1012 0.18786 0.0
C73 C 0.43764 0.09184 0.20249 0.0
C74 C 0.41101 0.1043 0.05456 0.0
O75 O 0.4448 0.08276 0.17879 0.0
C76 C 0.45448 0.08742 0.03529 0.0
O77 O 0.41809 0.07797 0.144 0.0
O78 O 0.43761 0.06888 0.10889 0.0
O79 O 0.42198 0.11359 0.05244 0.0
O80 O 0.40905 0.09606 0.08671 0.0
C81 C 0.46927 0.10896 0.11687 0.0
O82 O 0.45909 0.08297 0.07097 0.0
O83 O 0.44439 0.09755 0.03265 0.0
C84 C 0.42503 0.06682 0.12742 0.0
O85 O 0.4646 0.09825 0.14008 0.0
O86 O 0.46179 0.11295 0.08466 0.0
C87 C 0.42669 0.13005 0.12887 0.0
Fe88 Fe 0.15351 0.82681 0.12082 0.0
Fe89 Fe 0.16507 0.79396 0.13106 0.0
O90 O 0.15289 0.80894 0.14701 0.0
Fe91 Fe 0.14004 0.80616 0.18909 0.0
O92 O 0.12387 0.8102 0.15567 0.0
O93 O 0.13326 0.83129 0.12933 0.0
O94 O 0.14799 0.81802 0.07126 0.0
C95 C 0.15527 0.80716 0.0547 0.0
C96 C 0.15154 0.83578 0.20281 0.0
O97 O 0.16475 0.79932 0.07541 0.0
C98 C 0.16451 0.79101 0.22033 0.0
O99 O 0.17382 0.82558 0.10695 0.0
O100 O 0.1819 0.80537 0.14081 0.0
O101 O 0.14121 0.82589 0.20782 0.0
O102 O 0.15907 0.83657 0.16899 0.0
C103 C 0.139 0.77776 0.14605 0.0
O104 O 0.16731 0.78584 0.18394 0.0
O105 O 0.15534 0.8019 0.22516 0.0
C106 C 0.18466 0.8175 0.12092 0.0
O107 O 0.14915 0.7814 0.1198 0.0
O108 O 0.13662 0.78588 0.17832 0.0
C109 C 0.12204 0.82256 0.13622 0.0
Fe110 Fe 0.44187 0.89159 0.45611 0.0
Fe111 Fe 0.42422 0.90118 0.3767 0.0
O112 O 0.44089 0.90192 0.40844 0.0
Fe113 Fe 0.45683 0.91275 0.39247 0.0
O114 O 0.47098 0.90008 0.41624 0.0
O115 O 0.45784 0.88022 0.43723 0.0
O116 O 0.42934 0.8761 0.43908 0.0
C117 C 0.42572 0.87149 0.40275 0.0
C118 C 0.45774 0.919 0.47554 0.0
O119 O 0.42531 0.88059 0.37209 0.0
C120 C 0.4318 0.9311 0.36641 0.0
O121 O 0.42616 0.90231 0.4773 0.0
O122 O 0.41105 0.89997 0.42225 0.0
O123 O 0.45613 0.92457 0.43921 0.0
O124 O 0.45457 0.90515 0.48246 0.0
C125 C 0.44857 0.89957 0.31813 0.0
O126 O 0.42178 0.9217 0.3781 0.0
O127 O 0.44571 0.92739 0.36516 0.0
C128 C 0.41307 0.90299 0.46105 0.0
O129 O 0.43466 0.90225 0.32609 0.0
O130 O 0.45872 0.90149 0.34554 0.0
C131 C 0.47026 0.8861 0.42564 0.0
Fe132 Fe 0.36118 0.19344 0.68791 0.0
Fe133 Fe 0.34768 0.17541 0.61364 0.0
O134 O 0.34879 0.19237 0.64425 0.0
Fe135 Fe 0.33774 0.20844 0.63082 0.0
O136 O 0.35157 0.22259 0.64921 0.0
O137 O 0.37184 0.20919 0.66503 0.0
O138 O 0.37564 0.18074 0.66565 0.0
C139 C 0.37844 0.17724 0.62781 0.0
C140 C 0.33499 0.20959 0.71564 0.0
O141 O 0.36786 0.17626 0.60109 0.0
C142 C 0.31774 0.18358 0.61342 0.0
O143 O 0.35132 0.17798 0.71346 0.0
O144 O 0.35111 0.1625 0.65892 0.0
O145 O 0.32799 0.20852 0.68111 0.0
O146 O 0.349 0.20632 0.71818 0.0
C147 C 0.34631 0.19916 0.55276 0.0
O148 O 0.3273 0.17339 0.62315 0.0
O149 O 0.32185 0.19734 0.60968 0.0
C150 C 0.34962 0.16486 0.69819 0.0
O151 O 0.34404 0.18539 0.56332 0.0
O152 O 0.34689 0.20951 0.58015 0.0
C153 C 0.36579 0.2217 0.65506 0.0
Fe154 Fe 0.07793 0.09904 0.87449 0.0
Fe155 Fe 0.04449 0.08918 0.88558 0.0
O156 O 0.06059 0.09942 0.90334 0.0
Fe157 Fe 0.05931 0.11032 0.94998 0.0
O158 O 0.07307 0.12488 0.93343 0.0
O159 O 0.07755 0.11965 0.86708 0.0
O160 O 0.06881 0.09713 0.82247 0.0
C161 C 0.05529 0.09971 0.81059 0.0
C162 C 0.08727 0.09758 0.96009 0.0
O163 O 0.04442 0.09953 0.83644 0.0
C164 C 0.04132 0.08429 0.96935 0.0
O165 O 0.0795 0.07847 0.8792 0.0
O166 O 0.0556 0.07343 0.86305 0.0
O167 O 0.07394 0.0989 0.97436 0.0
O168 O 0.09017 0.10064 0.9218 0.0
C169 C 0.03188 0.11701 0.9148 0.0
O170 O 0.04315 0.07818 0.9338 0.0
O171 O 0.04534 0.09793 0.97558 0.0
C172 C 0.06932 0.06922 0.86744 0.0
O173 O 0.03057 0.1031 0.90497 0.0
O174 O 0.04436 0.12231 0.92808 0.0
C175 C 0.07724 0.12907 0.8971 0.0
Fe176 Fe 0.83771 0.80042 0.62423 0.0
Fe177 Fe 0.85142 0.8323 0.61174 0.0
O178 O 0.85141 0.81439 0.63767 0.0
Fe179 Fe 0.86506 0.81062 0.67725 0.0
O180 O 0.86668 0.79022 0.66565 0.0
O181 O 0.85232 0.7867 0.60983 0.0
O182 O 0.83694 0.80593 0.56882 0.0
C183 C 0.84594 0.81345 0.54563 0.0
C184 C 0.84022 0.79729 0.71306 0.0
O185 O 0.85483 0.82336 0.56081 0.0
C186 C 0.85601 0.84082 0.69338 0.0
O187 O 0.82202 0.81307 0.63733 0.0
O188 O 0.83082 0.83263 0.60211 0.0
O189 O 0.85043 0.80731 0.71634 0.0
O190 O 0.83621 0.79238 0.67728 0.0
C191 C 0.88285 0.82577 0.62087 0.0
O192 O 0.84777 0.84219 0.66107 0.0
O193 O 0.86584 0.83034 0.69625 0.0
C194 C 0.81973 0.82543 0.61802 0.0
O195 O 0.87213 0.83527 0.61606 0.0
O196 O 0.88063 0.81357 0.64082 0.0
C197 C 0.8629 0.78236 0.63392 0.0
Fe198 Fe 0.95946 0.08943 0.37909 0.0
Fe199 Fe 0.92554 0.09821 0.37383 0.0
O200 O 0.94353 0.09936 0.39938 0.0
Fe201 Fe 0.94559 0.1107 0.4451 0.0
O202 O 0.95978 0.12283 0.42035 0.0
O203 O 0.97338 0.10398 0.39422 0.0
O204 O 0.95796 0.09934 0.32947 0.0
C205 C 0.94652 0.09901 0.30574 0.0
C206 C 0.96438 0.08521 0.46285 0.0
O207 O 0.93342 0.09604 0.32026 0.0
C208 C 0.91814 0.09761 0.46123 0.0
O209 O 0.94827 0.07315 0.35988 0.0
O210 O 0.9247 0.07768 0.38022 0.0
O211 O 0.96028 0.09883 0.46888 0.0
O212 O 0.96244 0.07888 0.42764 0.0
C213 C 0.92589 0.12843 0.3943 0.0
O214 O 0.91437 0.09992 0.42311 0.0
O215 O 0.93177 0.09924 0.47277 0.0
C216 C 0.93478 0.06863 0.36682 0.0
O217 O 0.92512 0.11872 0.36503 0.0
O218 O 0.93118 0.12478 0.42993 0.0
C219 C 0.97187 0.11791 0.40367 0.0
Fe220 Fe 0.66441 0.19995 0.12429 0.0
Fe221 Fe 0.65168 0.16746 0.11898 0.0
O222 O 0.65209 0.18558 0.14393 0.0
Fe223 Fe 0.6402 0.18932 0.18762 0.0
O224 O 0.63637 0.20919 0.17284 0.0
O225 O 0.64858 0.21256 0.11282 0.0
O226 O 0.66335 0.19349 0.06962 0.0
C227 C 0.65279 0.18637 0.05115 0.0
C228 C 0.66489 0.20561 0.21262 0.0
O229 O 0.64526 0.17616 0.06986 0.0
C230 C 0.65144 0.1594 0.20219 0.0
O231 O 0.68109 0.18823 0.1343 0.0
O232 O 0.67178 0.1681 0.1024 0.0
O233 O 0.65616 0.19462 0.22062 0.0
O234 O 0.66745 0.20942 0.17494 0.0
C235 C 0.62067 0.17181 0.14131 0.0
O236 O 0.65782 0.15785 0.16676 0.0
O237 O 0.64208 0.17009 0.20938 0.0
C238 C 0.68314 0.1757 0.1155 0.0
O239 O 0.63163 0.16328 0.13091 0.0
O240 O 0.62312 0.18445 0.15868 0.0
C241 C 0.63848 0.21653 0.13894 0.0
Fe242 Fe 0.56029 0.88744 0.92168 0.0
Fe243 Fe 0.5496 0.91758 0.88267 0.0
O244 O 0.56356 0.90314 0.88802 0.0
Fe245 Fe 0.58092 0.9044 0.85963 0.0
O246 O 0.58371 0.88362 0.8548 0.0
O247 O 0.56235 0.8741 0.87868 0.0
O248 O 0.53977 0.88659 0.91219 0.0
C249 C 0.53144 0.8922 0.88369 0.0
C250 C 0.59114 0.89497 0.93654 0.0
O251 O 0.53532 0.90414 0.8643 0.0
C252 C 0.57473 0.93546 0.88019 0.0
O253 O 0.55776 0.89962 0.96724 0.0
O254 O 0.54256 0.91609 0.93673 0.0
O255 O 0.59187 0.90514 0.90843 0.0
O256 O 0.58031 0.88545 0.93717 0.0
C257 C 0.56068 0.91353 0.79965 0.0
O258 O 0.56278 0.93218 0.90039 0.0
O259 O 0.58142 0.92533 0.85866 0.0
C260 C 0.54768 0.90981 0.96967 0.0
O261 O 0.55404 0.92143 0.82749 0.0
O262 O 0.57081 0.90389 0.80932 0.0
C263 C 0.57427 0.87273 0.85704 0.0
Fe264 Fe 0.83999 0.20606 0.8569 0.0
Fe265 Fe 0.85143 0.17431 0.88369 0.0
O266 O 0.85185 0.1901 0.84858 0.0
Fe267 Fe 0.86439 0.19014 0.80513 0.0
O268 O 0.87438 0.20691 0.82457 0.0
O269 O 0.85346 0.22003 0.83528 0.0
O270 O 0.8487 0.20947 0.90717 0.0
C271 C 0.84913 0.20015 0.93723 0.0
C272 C 0.83788 0.20435 0.77225 0.0
O273 O 0.8475 0.18595 0.93101 0.0
C274 C 0.85357 0.16107 0.80218 0.0
O275 O 0.82438 0.19514 0.88071 0.0
O276 O 0.83123 0.17113 0.87513 0.0
O277 O 0.85203 0.20166 0.77153 0.0
O278 O 0.83061 0.20377 0.80643 0.0
C279 C 0.88207 0.17647 0.86884 0.0
O280 O 0.85522 0.16003 0.84187 0.0
O281 O 0.85506 0.17364 0.78351 0.0
C282 C 0.82113 0.1811 0.88148 0.0
O283 O 0.87154 0.17633 0.89578 0.0
O284 O 0.87915 0.1786 0.83034 0.0
C285 C 0.8678 0.21946 0.83119 0.0
Fe286 Fe 0.55514 0.10862 0.54243 0.0
Fe287 Fe 0.539 0.08942 0.60875 0.0
O288 O 0.55556 0.09885 0.59101 0.0
Fe289 Fe 0.57234 0.09871 0.62223 0.0
O290 O 0.57252 0.11934 0.62564 0.0
O291 O 0.56848 0.12362 0.55842 0.0
O292 O 0.53981 0.12112 0.56011 0.0
C293 C 0.52704 0.11617 0.57205 0.0
C294 C 0.58338 0.09592 0.53795 0.0
O295 O 0.5255 0.10249 0.58361 0.0
C296 C 0.56283 0.06968 0.63624 0.0
O297 O 0.54168 0.09538 0.51765 0.0
O298 O 0.53876 0.07688 0.56353 0.0
O299 O 0.58545 0.0989 0.57668 0.0
O300 O 0.57029 0.09686 0.52182 0.0
C301 C 0.54851 0.10248 0.68169 0.0
O302 O 0.54928 0.07458 0.63772 0.0
O303 O 0.57335 0.07798 0.6217 0.0
C304 C 0.53748 0.08194 0.52652 0.0
O305 O 0.53816 0.10156 0.6544 0.0
O306 O 0.56209 0.09864 0.67307 0.0
C307 C 0.57248 0.12826 0.59449 0.0
Fe308 Fe 0.63753 0.80607 0.32107 0.0
Fe309 Fe 0.6635 0.79699 0.38025 0.0
O310 O 0.65034 0.81078 0.36194 0.0
Fe311 Fe 0.64999 0.82937 0.3841 0.0
O312 O 0.62942 0.8321 0.37656 0.0
O313 O 0.62124 0.80986 0.35444 0.0
O314 O 0.6356 0.78602 0.33577 0.0
C315 C 0.63838 0.77895 0.36956 0.0
C316 C 0.64679 0.83581 0.30021 0.0
O317 O 0.6484 0.78376 0.39479 0.0
C318 C 0.68167 0.82202 0.38409 0.0
O319 O 0.65301 0.80195 0.28516 0.0
O320 O 0.66597 0.78765 0.32912 0.0
O321 O 0.65441 0.83812 0.33335 0.0
O322 O 0.63709 0.82519 0.2985 0.0
C323 C 0.65396 0.8121 0.45462 0.0
O324 O 0.67964 0.80912 0.36745 0.0
O325 O 0.6704 0.82987 0.39626 0.0
C326 C 0.66301 0.79195 0.292 0.0
O327 O 0.66322 0.80384 0.43444 0.0
O328 O 0.64571 0.82187 0.43637 0.0
C329 C 0.61877 0.82248 0.3721 0.0
Fe330 Fe 0.9574 0.91471 0.11584 0.0
Fe331 Fe 0.92535 0.90229 0.13617 0.0
O332 O 0.9422 0.90211 0.10488 0.0
Fe333 Fe 0.94411 0.8891 0.06277 0.0
O334 O 0.96061 0.88009 0.08677 0.0
O335 O 0.97245 0.90165 0.0987 0.0
O336 O 0.95954 0.90663 0.1675 0.0
C337 C 0.94936 0.9062 0.19536 0.0
C338 C 0.95799 0.91593 0.03079 0.0
O339 O 0.93535 0.90712 0.18575 0.0
C340 C 0.91479 0.89861 0.05195 0.0
O341 O 0.94526 0.93008 0.13561 0.0
O342 O 0.92175 0.9223 0.12533 0.0
O343 O 0.956 0.90165 0.03062 0.0
O344 O 0.95639 0.92349 0.06423 0.0
C345 C 0.92913 0.87153 0.12461 0.0
O346 O 0.91255 0.89761 0.09146 0.0
O347 O 0.92795 0.89736 0.03661 0.0
C348 C 0.93116 0.93282 0.13283 0.0
O349 O 0.92758 0.88233 0.1504 0.0
O350 O 0.93253 0.87409 0.08664 0.0
C351 C 0.97262 0.88728 0.0957 0.0
Fe352 Fe 0.66436 0.71058 0.85683 0.0
Fe353 Fe 0.64286 0.69616 0.79276 0.0
O354 O 0.65394 0.69465 0.83901 0.0
Fe355 Fe 0.65438 0.67731 0.86801 0.0
O356 O 0.65669 0.68653 0.91975 0.0
O357 O 0.65373 0.71082 0.90543 0.0
O358 O 0.65097 0.72488 0.83709 0.0
C359 C 0.63712 0.72412 0.82654 0.0
C360 C 0.68418 0.68566 0.87428 0.0
O361 O 0.63145 0.71168 0.81423 0.0
C362 C 0.65439 0.66761 0.78241 0.0
O363 O 0.67546 0.71153 0.8089 0.0
O364 O 0.65578 0.70956 0.76659 0.0
O365 O 0.67494 0.67552 0.86212 0.0
O366 O 0.67978 0.69927 0.87987 0.0
C367 C 0.62408 0.67917 0.84778 0.0
O368 O 0.65348 0.68096 0.76809 0.0
O369 O 0.65214 0.665 0.82124 0.0
C370 C 0.66944 0.71349 0.77328 0.0
O371 O 0.6279 0.68312 0.8109 0.0
O372 O 0.63392 0.67804 0.87657 0.0
C373 C 0.65338 0.69994 0.93117 0.0
Fe374 Fe 0.58083 0.39874 0.13326 0.0
Fe375 Fe 0.54924 0.4124 0.11702 0.0
O376 O 0.56343 0.39874 0.10507 0.0
Fe377 Fe 0.56031 0.38496 0.06551 0.0
O378 O 0.56294 0.36939 0.10236 0.0
O379 O 0.5843 0.37814 0.1283 0.0
O380 O 0.57079 0.3948 0.18229 0.0
C381 C 0.5603 0.40327 0.19622 0.0
C382 C 0.59097 0.39411 0.0534 0.0
O383 O 0.5539 0.41313 0.17317 0.0
C384 C 0.54699 0.40931 0.0277 0.0
O385 O 0.58077 0.4193 0.14367 0.0
O386 O 0.56203 0.42819 0.10536 0.0
O387 O 0.58034 0.38446 0.04885 0.0
O388 O 0.59156 0.40265 0.0854 0.0
C389 C 0.53153 0.38698 0.10603 0.0
O390 O 0.54188 0.41374 0.06295 0.0
O391 O 0.55739 0.39945 0.02591 0.0
C392 C 0.57413 0.4304 0.12601 0.0
O393 O 0.53549 0.39768 0.13017 0.0
O394 O 0.53975 0.38316 0.07502 0.0
C395 C 0.57524 0.36718 0.12179 0.0
Fe396 Fe 0.8503 0.32857 0.38618 0.0
Fe397 Fe 0.83578 0.29698 0.37651 0.0
O398 O 0.84904 0.31086 0.35965 0.0
Fe399 Fe 0.86112 0.30709 0.31638 0.0
O400 O 0.87803 0.30953 0.34846 0.0
O401 O 0.87073 0.33124 0.37601 0.0
O402 O 0.85559 0.31916 0.43518 0.0
C403 C 0.84749 0.30898 0.45215 0.0
C404 C 0.85247 0.33783 0.3045 0.0
O405 O 0.83713 0.30214 0.43206 0.0
C406 C 0.83488 0.2944 0.28731 0.0
O407 O 0.83017 0.32908 0.40182 0.0
O408 O 0.81985 0.30985 0.36836 0.0
O409 O 0.86167 0.32695 0.29843 0.0
O410 O 0.84511 0.33895 0.33854 0.0
C411 C 0.86023 0.2787 0.35909 0.0
O412 O 0.83226 0.28925 0.32382 0.0
O413 O 0.84503 0.30435 0.28155 0.0
C414 C 0.81846 0.32211 0.38876 0.0
O415 O 0.85076 0.28313 0.38635 0.0
O416 O 0.86271 0.28654 0.32635 0.0
C417 C 0.88111 0.32165 0.36795 0.0
Fe418 Fe 0.95428 0.58814 0.61369 0.0
Fe419 Fe 0.93988 0.61018 0.55138 0.0
O420 O 0.93855 0.59932 0.598 0.0
Fe421 Fe 0.92169 0.59988 0.62906 0.0
O422 O 0.93173 0.59763 0.68002 0.0
O423 O 0.95586 0.59875 0.66193 0.0
O424 O 0.96876 0.60097 0.59196 0.0
C425 C 0.96823 0.61503 0.58326 0.0
C426 C 0.92879 0.56972 0.63601 0.0
O427 O 0.9559 0.62111 0.5717 0.0
C428 C 0.91094 0.5994 0.5442 0.0
O429 O 0.95387 0.57689 0.56588 0.0
O430 O 0.95246 0.59677 0.52419 0.0
O431 O 0.91896 0.57942 0.62497 0.0
O432 O 0.94274 0.57325 0.63862 0.0
C433 C 0.92376 0.62987 0.60616 0.0
O434 O 0.92412 0.59994 0.52858 0.0
O435 O 0.9088 0.60206 0.58316 0.0
C436 C 0.95527 0.58279 0.52993 0.0
O437 O 0.92749 0.6256 0.56957 0.0
O438 O 0.9231 0.62043 0.63607 0.0
C439 C 0.94563 0.59959 0.68956 0.0
Fe440 Fe 0.65008 0.32792 0.61564 0.0
Fe441 Fe 0.66283 0.29581 0.63072 0.0
O442 O 0.64922 0.31014 0.64223 0.0
Fe443 Fe 0.6348 0.3068 0.6799 0.0
O444 O 0.61981 0.31068 0.64231 0.0
O445 O 0.62956 0.33185 0.61802 0.0
O446 O 0.64696 0.31856 0.56491 0.0
C447 C 0.65575 0.30827 0.55115 0.0
C448 C 0.64498 0.33669 0.69712 0.0
O449 O 0.66478 0.30128 0.57546 0.0
C450 C 0.65806 0.292 0.71892 0.0
O451 O 0.67078 0.32752 0.60832 0.0
O452 O 0.67856 0.30811 0.64606 0.0
O453 O 0.63489 0.3264 0.69952 0.0
O454 O 0.65333 0.33803 0.66489 0.0
C455 C 0.63676 0.27867 0.63574 0.0
O456 O 0.66305 0.28746 0.68374 0.0
O457 O 0.64849 0.30263 0.72073 0.0
C458 C 0.6814 0.32038 0.62674 0.0
O459 O 0.64817 0.28254 0.61409 0.0
O460 O 0.63241 0.28659 0.66683 0.0
C461 C 0.61824 0.32317 0.62343 0.0
Fe462 Fe 0.94135 0.389 0.92983 0.0
Fe463 Fe 0.91885 0.40066 0.86357 0.0
O464 O 0.93674 0.40194 0.88925 0.0
Fe465 Fe 0.95 0.41613 0.87421 0.0
O466 O 0.96422 0.4019 0.85999 0.0
O467 O 0.96175 0.3884 0.91791 0.0
O468 O 0.93913 0.37276 0.89504 0.0
C469 C 0.92705 0.36971 0.87535 0.0
C470 C 0.95388 0.41453 0.96317 0.0
O471 O 0.91705 0.37989 0.86945 0.0
C472 C 0.92407 0.43276 0.86821 0.0
O473 O 0.92184 0.3874 0.94931 0.0
O474 O 0.90861 0.40409 0.9127 0.0
O475 O 0.95838 0.4184 0.92684 0.0
O476 O 0.94392 0.4043 0.9673 0.0
C477 C 0.93768 0.40622 0.79705 0.0
O478 O 0.91746 0.42119 0.85269 0.0
O479 O 0.93668 0.4313 0.88695 0.0
C480 C 0.91069 0.39644 0.94594 0.0
O481 O 0.92812 0.39715 0.81303 0.0
O482 O 0.94422 0.4163 0.81895 0.0
C483 C 0.96917 0.39196 0.88524 0.0
Fe484 Fe 0.86087 0.69441 0.20105 0.0
Fe485 Fe 0.84881 0.6773 0.12324 0.0
O486 O 0.84978 0.69403 0.15473 0.0
Fe487 Fe 0.83986 0.71062 0.13954 0.0
O488 O 0.85351 0.72413 0.16229 0.0
O489 O 0.8728 0.70985 0.18123 0.0
O490 O 0.87544 0.6812 0.18171 0.0
C491 C 0.87907 0.67749 0.14456 0.0
C492 C 0.83462 0.71181 0.22303 0.0
O493 O 0.86927 0.67714 0.1156 0.0
C494 C 0.81946 0.68684 0.11563 0.0
O495 O 0.84967 0.67928 0.22367 0.0
O496 O 0.85014 0.66405 0.16856 0.0
O497 O 0.82854 0.71066 0.18719 0.0
O498 O 0.84831 0.70771 0.22873 0.0
C499 C 0.85109 0.7014 0.06401 0.0
O500 O 0.82814 0.67625 0.12782 0.0
O501 O 0.82433 0.70039 0.11341 0.0
C502 C 0.84779 0.6663 0.20756 0.0
O503 O 0.84742 0.68776 0.07273 0.0
O504 O 0.85079 0.71163 0.09177 0.0
C505 C 0.86747 0.72267 0.17107 0.0
Fe506 Fe 0.55831 0.60779 0.44325 0.0
Fe507 Fe 0.57719 0.59763 0.36662 0.0
O508 O 0.56011 0.59689 0.39679 0.0
Fe509 Fe 0.54462 0.58551 0.38038 0.0
O510 O 0.52988 0.59822 0.40104 0.0
O511 O 0.5423 0.61855 0.42187 0.0
O512 O 0.57069 0.6233 0.42575 0.0
C513 C 0.57476 0.62759 0.38949 0.0
C514 C 0.54309 0.58028 0.46419 0.0
O515 O 0.57566 0.61817 0.35955 0.0
C516 C 0.57042 0.56736 0.35944 0.0
O517 O 0.57403 0.59771 0.46702 0.0
O518 O 0.58969 0.59995 0.41315 0.0
O519 O 0.54475 0.57433 0.42838 0.0
O520 O 0.54567 0.59431 0.46981 0.0
C521 C 0.55373 0.59695 0.30483 0.0
O522 O 0.58012 0.57717 0.37072 0.0
O523 O 0.55646 0.57072 0.35634 0.0
C524 C 0.5873 0.59722 0.45191 0.0
O525 O 0.56758 0.59526 0.31521 0.0
O526 O 0.54329 0.596 0.33184 0.0
C527 C 0.53016 0.6123 0.40934 0.0
Fe528 Fe 0.35991 0.30877 0.19889 0.0
Fe529 Fe 0.33977 0.29351 0.13335 0.0
O530 O 0.34983 0.30967 0.15088 0.0
Fe531 Fe 0.35002 0.32656 0.12003 0.0
O532 O 0.37066 0.32593 0.11531 0.0
O533 O 0.37512 0.32183 0.18243 0.0
O534 O 0.37186 0.29308 0.18042 0.0
C535 C 0.36635 0.28052 0.16843 0.0
C536 C 0.34774 0.33724 0.20446 0.0
O537 O 0.35258 0.27959 0.15728 0.0
C538 C 0.32053 0.31802 0.10829 0.0
O539 O 0.34643 0.29569 0.22415 0.0
O540 O 0.32753 0.29341 0.17924 0.0
O541 O 0.35105 0.33952 0.16601 0.0
O542 O 0.34862 0.32411 0.22026 0.0
C543 C 0.35197 0.30279 0.05932 0.0
O544 O 0.32505 0.30436 0.10589 0.0
O545 O 0.32932 0.32831 0.12196 0.0
C546 C 0.33271 0.29228 0.21613 0.0
O547 O 0.35153 0.29251 0.08694 0.0
O548 O 0.34898 0.31651 0.06886 0.0
C549 C 0.37969 0.32575 0.1462 0.0
Fe550 Fe 0.46036 0.58811 0.87975 0.0
Fe551 Fe 0.42815 0.60091 0.86495 0.0
O552 O 0.4451 0.59991 0.89549 0.0
Fe553 Fe 0.44698 0.61102 0.94161 0.0
O554 O 0.46324 0.62135 0.92008 0.0
O555 O 0.4753 0.60072 0.89977 0.0
O556 O 0.46201 0.59822 0.83067 0.0
C557 C 0.45166 0.59918 0.80344 0.0
C558 C 0.46164 0.58337 0.96385 0.0
O559 O 0.43777 0.59796 0.81378 0.0
C560 C 0.41774 0.60127 0.95015 0.0
O561 O 0.44819 0.5734 0.85643 0.0
O562 O 0.42467 0.58058 0.86999 0.0
O563 O 0.45934 0.59747 0.96887 0.0
O564 O 0.45993 0.57726 0.92829 0.0
C565 C 0.43101 0.63086 0.88681 0.0
O566 O 0.41559 0.6038 0.91114 0.0
O567 O 0.43099 0.60137 0.96547 0.0
C568 C 0.43413 0.57044 0.85939 0.0
O569 O 0.43034 0.62137 0.857 0.0
O570 O 0.43487 0.62664 0.92332 0.0
C571 C 0.47521 0.61489 0.90707 0.0
Fe572 Fe 0.13662 0.69163 0.68917 0.0
Fe573 Fe 0.16176 0.70227 0.62908 0.0
O574 O 0.14893 0.68804 0.6463 0.0
Fe575 Fe 0.14831 0.67014 0.62034 0.0
O576 O 0.12796 0.66674 0.63034 0.0
O577 O 0.11991 0.68832 0.65701 0.0
O578 O 0.13418 0.71202 0.67792 0.0
C579 C 0.13662 0.71981 0.64504 0.0
C580 C 0.14675 0.6615 0.70265 0.0
O581 O 0.14635 0.71556 0.61827 0.0
C582 C 0.17996 0.67764 0.61845 0.0
O583 O 0.15246 0.69527 0.72409 0.0
O584 O 0.1648 0.71055 0.68149 0.0
O585 O 0.15381 0.6602 0.66821 0.0
O586 O 0.137 0.67192 0.70833 0.0
C587 C 0.15048 0.68954 0.55393 0.0
O588 O 0.17809 0.68999 0.63821 0.0
O589 O 0.16852 0.67028 0.60503 0.0
C590 C 0.16194 0.70584 0.71833 0.0
O591 O 0.16072 0.6967 0.57371 0.0
O592 O 0.14274 0.67916 0.57116 0.0
C593 C 0.1173 0.67612 0.63745 0.0
Fe594 Fe 0.05942 0.38735 0.44401 0.0
Fe595 Fe 0.04442 0.41255 0.39289 0.0
O596 O 0.06021 0.40046 0.40181 0.0
Fe597 Fe 0.07653 0.40118 0.36856 0.0
O598 O 0.07482 0.38113 0.35485 0.0
O599 O 0.07137 0.37287 0.41922 0.0
O600 O 0.04302 0.37766 0.42133 0.0
C601 C 0.03065 0.38439 0.41339 0.0
C602 C 0.08842 0.39811 0.45167 0.0
O603 O 0.03017 0.39878 0.41114 0.0
C604 C 0.06976 0.43156 0.37233 0.0
O605 O 0.0473 0.39922 0.47728 0.0
O606 O 0.04585 0.42117 0.44476 0.0
O607 O 0.0901 0.39713 0.41193 0.0
O608 O 0.07555 0.39635 0.46859 0.0
C609 C 0.05153 0.40384 0.31249 0.0
O610 O 0.05569 0.42843 0.37206 0.0
O611 O 0.07959 0.42132 0.37855 0.0
C612 C 0.04442 0.41334 0.47785 0.0
O613 O 0.04174 0.40461 0.34132 0.0
O614 O 0.06564 0.40536 0.3201 0.0
C615 C 0.07409 0.37033 0.38086 0.0
Fe616 Fe 0.33679 0.70326 0.37689 0.0
Fe617 Fe 0.35012 0.67099 0.37862 0.0
O618 O 0.34942 0.68946 0.356 0.0
Fe619 Fe 0.36145 0.69413 0.31336 0.0
O620 O 0.36446 0.71395 0.32969 0.0
O621 O 0.35231 0.71605 0.39005 0.0
O622 O 0.33792 0.69605 0.43088 0.0
C623 C 0.34857 0.68879 0.44857 0.0
C624 C 0.33622 0.70971 0.289 0.0
O625 O 0.35625 0.67899 0.42876 0.0
C626 C 0.35097 0.6643 0.29473 0.0
O627 O 0.32039 0.69135 0.36539 0.0
O628 O 0.32997 0.67092 0.39501 0.0
O629 O 0.34548 0.69924 0.28016 0.0
O630 O 0.33363 0.71322 0.32694 0.0
C631 C 0.38106 0.6768 0.35991 0.0
O632 O 0.34428 0.6621 0.32947 0.0
O633 O 0.3604 0.67509 0.2898 0.0
C634 C 0.31851 0.67858 0.383 0.0
O635 O 0.37029 0.66755 0.36672 0.0
O636 O 0.37844 0.68954 0.34326 0.0
C637 C 0.36223 0.72074 0.36434 0.0
Fe638 Fe 0.05618 0.60968 0.05691 0.0
Fe639 Fe 0.04149 0.5861 0.1143 0.0
O640 O 0.0573 0.59769 0.10142 0.0
Fe641 Fe 0.07402 0.59757 0.13311 0.0
O642 O 0.07265 0.61794 0.14362 0.0
O643 O 0.06853 0.62458 0.07805 0.0
O644 O 0.04013 0.62009 0.07899 0.0
C645 C 0.02775 0.61376 0.08896 0.0
C646 C 0.08509 0.59887 0.04872 0.0
O647 O 0.02709 0.5995 0.09463 0.0
C648 C 0.06695 0.56727 0.13487 0.0
O649 O 0.04365 0.59706 0.02693 0.0
O650 O 0.0421 0.57611 0.06433 0.0
O651 O 0.0871 0.6007 0.08808 0.0
O652 O 0.07199 0.59995 0.03272 0.0
C653 C 0.04979 0.59582 0.19249 0.0
O654 O 0.05294 0.57061 0.13681 0.0
O655 O 0.07678 0.57724 0.12577 0.0
C656 C 0.0408 0.58297 0.02964 0.0
O657 O 0.03966 0.59541 0.16449 0.0
O658 O 0.06376 0.59424 0.18316 0.0
C659 C 0.07206 0.62804 0.11538 0.0
Fe660 Fe 0.13843 0.3098 0.81411 0.0
Fe661 Fe 0.16272 0.29854 0.87576 0.0
O662 O 0.15048 0.31319 0.85771 0.0
Fe663 Fe 0.15049 0.33125 0.88299 0.0
O664 O 0.13021 0.33518 0.87303 0.0
O665 O 0.12152 0.31411 0.84429 0.0
O666 O 0.13511 0.28957 0.82657 0.0
C667 C 0.13708 0.28188 0.85995 0.0
C668 C 0.14944 0.33957 0.79998 0.0
O669 O 0.14674 0.28602 0.8871 0.0
C670 C 0.18183 0.32276 0.88362 0.0
O671 O 0.15445 0.3054 0.78054 0.0
O672 O 0.16554 0.28963 0.82406 0.0
O673 O 0.15624 0.34086 0.83478 0.0
O674 O 0.13964 0.32927 0.79379 0.0
C675 C 0.15236 0.31236 0.9507 0.0
O676 O 0.17948 0.3101 0.86583 0.0
O677 O 0.17078 0.33058 0.89754 0.0
C678 C 0.1634 0.29446 0.78704 0.0
O679 O 0.16205 0.30456 0.93075 0.0
O680 O 0.14483 0.32279 0.93298 0.0
C681 C 0.11921 0.32657 0.86292 0.0
Fe682 Fe 0.45175 0.41667 0.61373 0.0
Fe683 Fe 0.42057 0.40187 0.62924 0.0
O684 O 0.43775 0.40301 0.60001 0.0
Fe685 Fe 0.44095 0.39042 0.55762 0.0
O686 O 0.4615 0.38882 0.56632 0.0
O687 O 0.46582 0.40192 0.62413 0.0
O688 O 0.4473 0.41635 0.67001 0.0
C689 C 0.44141 0.40586 0.69187 0.0
C690 C 0.4538 0.41571 0.52413 0.0
O691 O 0.43117 0.39731 0.67703 0.0
C692 C 0.41016 0.39911 0.54843 0.0
O693 O 0.43857 0.43231 0.60469 0.0
O694 O 0.42013 0.42228 0.64229 0.0
O695 O 0.44332 0.40601 0.52101 0.0
O696 O 0.45902 0.41925 0.55996 0.0
C697 C 0.42727 0.37089 0.61282 0.0
O698 O 0.40914 0.40625 0.58291 0.0
O699 O 0.42098 0.38993 0.54142 0.0
C700 C 0.42649 0.43384 0.62593 0.0
O701 O 0.41783 0.3813 0.62173 0.0
O702 O 0.4389 0.37383 0.59111 0.0
C703 C 0.46974 0.39182 0.59794 0.0
C704 C 0.14085 0.29979 0.01225 0.0
C705 C 0.15161 0.31 0.99616 0.0
C706 C 0.14346 0.29257 0.05077 0.0
C707 C 0.17671 0.27938 0.10928 0.0
H708 H 0.14591 0.26149 0.18137 0.0
C709 C 0.17987 0.23347 0.24844 0.0
C710 C 0.17176 0.22042 0.23573 0.0
C711 C 0.1802 0.2464 0.22262 0.0
C712 C 0.15464 0.26657 0.16172 0.0
H713 H 0.17284 0.3217 0.00823 0.0
H714 H 0.17716 0.30956 0.07645 0.0
H715 H 0.13915 0.2828 0.13544 0.0
H716 H 0.1593 0.21 0.18435 0.0
H717 H 0.16001 0.23252 0.13937 0.0
H718 H 0.19203 0.26272 0.1351 0.0
C719 C 0.16685 0.30689 0.05929 0.0
C720 C 0.15078 0.2787 0.13539 0.0
C721 C 0.16427 0.31402 0.02065 0.0
C722 C 0.16559 0.2199 0.19495 0.0
C723 C 0.16589 0.23279 0.16936 0.0
C724 C 0.18058 0.2673 0.13592 0.0
C725 C 0.15692 0.29545 0.07359 0.0
C726 C 0.16164 0.2849 0.10777 0.0
C727 C 0.17252 0.2463 0.18394 0.0
C728 C 0.16943 0.26055 0.16123 0.0
H729 H 0.13124 0.29626 0.99321 0.0
H730 H 0.13563 0.28371 0.06055 0.0
H731 H 0.18532 0.28371 0.08801 0.0
H732 H 0.18461 0.23426 0.27985 0.0
H733 H 0.18538 0.25678 0.23422 0.0
C734 C 0.03916 0.92389 0.45132 0.0
C735 C 0.03678 0.92747 0.49381 0.0
C736 C 0.02803 0.92722 0.42145 0.0
C737 C 0.98707 0.92779 0.41667 0.0
H738 H 0.99512 0.935 0.29834 0.0
C739 C 0.9687 0.90201 0.25052 0.0
C740 C 0.95453 0.90812 0.2391 0.0
C741 C 0.97619 0.90724 0.28626 0.0
C742 C 0.99264 0.93321 0.3314 0.0
H743 H 0.02151 0.93841 0.53813 0.0
H744 H 0.0019 0.94415 0.4857 0.0
H745 H 0.01423 0.94205 0.35064 0.0
H746 H 0.93643 0.9235 0.25781 0.0
H747 H 0.94962 0.9325 0.32158 0.0
H748 H 0.96573 0.91818 0.39669 0.0
C749 C 0.0124 0.9388 0.47556 0.0
C750 C 0.00355 0.93722 0.36125 0.0
C751 C 0.02368 0.93566 0.50543 0.0
C752 C 0.94729 0.9185 0.26626 0.0
C753 C 0.95485 0.92374 0.30238 0.0
C754 C 0.97608 0.92384 0.38666 0.0
C755 C 0.01422 0.93403 0.43363 0.0
C756 C 0.00119 0.93387 0.40397 0.0
C757 C 0.96963 0.91861 0.31135 0.0
C758 C 0.97913 0.92592 0.34376 0.0
H759 H 0.04914 0.91752 0.44169 0.0
H760 H 0.02974 0.92328 0.38948 0.0
H761 H 0.98498 0.92495 0.44935 0.0
H762 H 0.97448 0.89396 0.23017 0.0
H763 H 0.98752 0.903 0.29308 0.0
C764 C 0.36591 0.70056 0.50022 0.0
C765 C 0.35219 0.69297 0.49194 0.0
C766 C 0.36716 0.70991 0.53568 0.0
C767 C 0.34925 0.72176 0.63533 0.0
H768 H 0.35663 0.76282 0.59492 0.0
C769 C 0.33349 0.7733 0.73681 0.0
C770 C 0.34402 0.78533 0.73824 0.0
C771 C 0.33479 0.76193 0.70629 0.0
C772 C 0.35477 0.75144 0.60702 0.0
H773 H 0.32962 0.68786 0.51526 0.0
H774 H 0.33201 0.70364 0.57819 0.0
H775 H 0.36084 0.74126 0.54817 0.0
H776 H 0.36358 0.79541 0.70708 0.0
H777 H 0.36604 0.77551 0.65455 0.0
H778 H 0.34326 0.73185 0.69424 0.0
C779 C 0.34174 0.70253 0.55742 0.0
C780 C 0.35725 0.73909 0.58026 0.0
C781 C 0.34038 0.69346 0.5216 0.0
C782 C 0.3552 0.78635 0.70669 0.0
C783 C 0.35664 0.77488 0.67655 0.0
C784 C 0.34697 0.73411 0.66233 0.0
C785 C 0.35479 0.7115 0.56343 0.0
C786 C 0.35432 0.72416 0.594 0.0
C787 C 0.34677 0.76225 0.6769 0.0
C788 C 0.34945 0.74913 0.64828 0.0
H789 H 0.37501 0.70056 0.47717 0.0
H790 H 0.37736 0.71669 0.53985 0.0
H791 H 0.34689 0.71035 0.64656 0.0
H792 H 0.32469 0.77227 0.76054 0.0
H793 H 0.32669 0.75264 0.70664 0.0
C794 C 0.53026 0.11256 0.73415 0.0
C795 C 0.54364 0.10439 0.72566 0.0
C796 C 0.52318 0.1113 0.77318 0.0
C797 C 0.51844 0.08301 0.8559 0.0
H798 H 0.49352 0.11477 0.90535 0.0
C799 C 0.47819 0.07713 0.00202 0.0
C800 C 0.46402 0.08448 0.99781 0.0
C801 C 0.4891 0.07822 0.9701 0.0
C802 C 0.5004 0.10579 0.89171 0.0
H803 H 0.5608 0.08945 0.75212 0.0
H804 H 0.54842 0.08735 0.82098 0.0
H805 H 0.5124 0.1214 0.8522 0.0
H806 H 0.44955 0.09712 0.95476 0.0
H807 H 0.46858 0.09898 0.89932 0.0
H808 H 0.50625 0.06741 0.89562 0.0
C809 C 0.54335 0.09458 0.79717 0.0
C810 C 0.51123 0.10958 0.86147 0.0
C811 C 0.55052 0.09593 0.75801 0.0
C812 C 0.46042 0.09154 0.95935 0.0
C813 C 0.47134 0.09271 0.9277 0.0
C814 C 0.50766 0.07923 0.88659 0.0
C815 C 0.5293 0.1018 0.80453 0.0
C816 C 0.52004 0.09819 0.84224 0.0
C817 C 0.48598 0.08669 0.93367 0.0
C818 C 0.49824 0.09054 0.90369 0.0
H819 H 0.52475 0.11917 0.70969 0.0
H820 H 0.51232 0.11692 0.77758 0.0
H821 H 0.52494 0.07394 0.84136 0.0
H822 H 0.4813 0.0715 0.03113 0.0
H823 H 0.5003 0.07337 0.97518 0.0
C824 C 0.1595 0.69027 0.48065 0.0
C825 C 0.14812 0.69375 0.51009 0.0
C826 C 0.16109 0.69911 0.44436 0.0
C827 C 0.15776 0.72028 0.36482 0.0
H828 H 0.16591 0.76093 0.40733 0.0
C829 C 0.17621 0.76777 0.25231 0.0
C830 C 0.16821 0.78152 0.25734 0.0
C831 C 0.17601 0.75677 0.28409 0.0
C832 C 0.16353 0.74971 0.39479 0.0
H833 H 0.12891 0.70828 0.52424 0.0
H834 H 0.13173 0.72386 0.4608 0.0
H835 H 0.158 0.74093 0.45572 0.0
H836 H 0.15518 0.7952 0.30147 0.0
H837 H 0.15448 0.77603 0.356 0.0
H838 H 0.16266 0.72911 0.30362 0.0
C839 C 0.13923 0.7142 0.46536 0.0
C840 C 0.15898 0.73829 0.42249 0.0
C841 C 0.13751 0.70521 0.50125 0.0
C842 C 0.16135 0.78467 0.29634 0.0
C843 C 0.161 0.77364 0.32783 0.0
C844 C 0.16203 0.7318 0.33684 0.0
C845 C 0.1515 0.71166 0.4379 0.0
C846 C 0.1559 0.72356 0.40765 0.0
C847 C 0.16774 0.7593 0.32134 0.0
C848 C 0.16483 0.7467 0.35148 0.0
H849 H 0.16801 0.6817 0.48768 0.0
H850 H 0.17068 0.69707 0.42367 0.0
H851 H 0.15556 0.70892 0.35295 0.0
H852 H 0.18181 0.76507 0.22285 0.0
H853 H 0.18173 0.74602 0.27863 0.0
C854 C 0.55315 0.90524 0.72723 0.0
C855 C 0.55684 0.91691 0.75558 0.0
C856 C 0.54524 0.90868 0.69005 0.0
C857 C 0.51683 0.93622 0.65829 0.0
H858 H 0.51953 0.91731 0.54828 0.0
C859 C 0.48188 0.93269 0.49079 0.0
C860 C 0.46815 0.9264 0.50547 0.0
C861 C 0.494 0.9351 0.51855 0.0
C862 C 0.51879 0.92287 0.57867 0.0
H863 H 0.55684 0.94133 0.76566 0.0
H864 H 0.54332 0.94732 0.70079 0.0
H865 H 0.54021 0.9137 0.59924 0.0
H866 H 0.45582 0.91887 0.56068 0.0
H867 H 0.47675 0.92375 0.60955 0.0
H868 H 0.49511 0.94473 0.63863 0.0
C869 C 0.54616 0.93554 0.70741 0.0
C870 C 0.53053 0.92069 0.60784 0.0
C871 C 0.55395 0.93212 0.74438 0.0
C872 C 0.46624 0.92389 0.54877 0.0
C873 C 0.47822 0.92662 0.57661 0.0
C874 C 0.50503 0.93819 0.62944 0.0
C875 C 0.54104 0.92382 0.681 0.0
C876 C 0.52956 0.9272 0.64811 0.0
C877 C 0.49241 0.93158 0.56144 0.0
C878 C 0.50579 0.93136 0.58963 0.0
H879 H 0.55517 0.89343 0.73544 0.0
H880 H 0.54139 0.89942 0.6702 0.0
H881 H 0.51567 0.9412 0.68933 0.0
H882 H 0.48373 0.93446 0.45742 0.0
H883 H 0.50482 0.939 0.50623 0.0
C884 C 0.34163 0.30508 0.98623 0.0
C885 C 0.35124 0.29767 0.01519 0.0
C886 C 0.33698 0.29757 0.94947 0.0
C887 C 0.33597 0.27716 0.86589 0.0
H888 H 0.31836 0.23836 0.8988 0.0
C889 C 0.32066 0.23216 0.74194 0.0
C890 C 0.32842 0.2185 0.7503 0.0
C891 C 0.3187 0.24296 0.77389 0.0
C892 C 0.32311 0.2492 0.88909 0.0
H893 H 0.36484 0.27746 0.02636 0.0
H894 H 0.35679 0.26448 0.96232 0.0
H895 H 0.32654 0.25637 0.95274 0.0
H896 H 0.33893 0.20471 0.79871 0.0
H897 H 0.33527 0.22327 0.85447 0.0
H898 H 0.33348 0.26957 0.80217 0.0
C899 C 0.35267 0.27592 0.96833 0.0
C900 C 0.3278 0.25946 0.91989 0.0
C901 C 0.35734 0.28338 0.00474 0.0
C902 C 0.33284 0.21515 0.79165 0.0
C903 C 0.33071 0.2258 0.82356 0.0
C904 C 0.33139 0.26679 0.83489 0.0
C905 C 0.3419 0.28264 0.94156 0.0
C906 C 0.33478 0.27324 0.90853 0.0
C907 C 0.32427 0.24011 0.81463 0.0
C908 C 0.32548 0.25244 0.84631 0.0
H909 H 0.33664 0.31604 0.99368 0.0
H910 H 0.32871 0.30295 0.92898 0.0
H911 H 0.34128 0.28778 0.85658 0.0
H912 H 0.3173 0.23506 0.71011 0.0
H913 H 0.31358 0.25385 0.76625 0.0
C914 C 0.94377 0.08566 0.23705 0.0
C915 C 0.94949 0.09803 0.26026 0.0
C916 C 0.95001 0.08208 0.19771 0.0
C917 C 0.97367 0.09588 0.11044 0.0
H918 H 0.99454 0.05694 0.11645 0.0
C919 C 0.03221 0.08013 0.04234 0.0
C920 C 0.03014 0.0779 -0.00103 0.0
C921 C 0.01991 0.07878 0.06995 0.0
C922 C 0.98849 0.06766 0.11397 0.0
H923 H 0.96526 0.11697 0.25974 0.0
H924 H 0.97564 0.11115 0.19017 0.0
H925 H 0.97556 0.06363 0.17016 0.0
H926 H 0.01385 0.0718 0.95054 0.0
H927 H 0.99219 0.06983 -0.00095 0.0
H928 H 0.98706 0.10012 0.05516 0.0
C929 C 0.9665 0.10415 0.20244 0.0
C930 C 0.97764 0.07148 0.14446 0.0
C931 C 0.96057 0.10749 0.24213 0.0
C932 C 0.01581 0.07323 0.98399 0.0
C933 C 0.00341 0.07223 0.01154 0.0
C934 C 0.98428 0.09193 0.07953 0.0
C935 C 0.96174 0.09105 0.18071 0.0
C936 C 0.97053 0.08583 0.1437 0.0
C937 C 0.00534 0.07548 0.05443 0.0
C938 C 0.99207 0.078 0.08186 0.0
H939 H 0.93543 0.07804 0.25078 0.0
H940 H 0.94619 0.07191 0.1815 0.0
H941 H 0.96839 0.10703 0.10936 0.0
H942 H 0.04309 0.08398 0.05445 0.0
H943 H 0.02154 0.08147 0.10294 0.0
C944 C 0.84233 0.79203 0.79013 0.0
C945 C 0.83583 0.78853 0.75091 0.0
C946 C 0.8412 0.78178 0.82352 0.0
C947 C 0.83752 0.74068 0.84035 0.0
H948 H 0.83811 0.75281 0.95766 0.0
C949 C 0.86067 0.71969 0.01132 0.0
C950 C 0.85195 0.70669 0.02021 0.0
C951 C 0.858 0.72804 0.97487 0.0
C952 C 0.83797 0.74929 0.92496 0.0
H953 H 0.8217 0.77226 0.7173 0.0
H954 H 0.81953 0.75451 0.77598 0.0
H955 H 0.83199 0.77159 0.90379 0.0
H956 H 0.83468 0.6913 0.99631 0.0
H957 H 0.83015 0.70594 0.9316 0.0
H958 H 0.84358 0.7183 0.86211 0.0
C959 C 0.82586 0.76498 0.78045 0.0
C960 C 0.83446 0.76001 0.89417 0.0
C961 C 0.82701 0.77522 0.74698 0.0
C962 C 0.84164 0.70123 0.98991 0.0
C963 C 0.83897 0.70964 0.95316 0.0
C964 C 0.84088 0.72987 0.87135 0.0
C965 C 0.83345 0.76787 0.81852 0.0
C966 C 0.83465 0.75596 0.85143 0.0
C967 C 0.84658 0.72352 0.94666 0.0
C968 C 0.84159 0.73425 0.91373 0.0
H969 H 0.84912 0.80222 0.79436 0.0
H970 H 0.84726 0.78436 0.85235 0.0
H971 H 0.8379 0.73722 0.80765 0.0
H972 H 0.86874 0.72405 0.03415 0.0
H973 H 0.86421 0.73856 0.96998 0.0
C974 C 0.9893 0.07343 0.4814 0.0
C975 C 0.97487 0.07867 0.49402 0.0
C976 C 0.00121 0.07263 0.51066 0.0
C977 C 0.0156 0.09567 0.58648 0.0
H978 H 0.03259 0.06449 0.65906 0.0
C979 C 0.03856 0.10724 0.75107 0.0
C980 C 0.0514 0.0993 0.76552 0.0
C981 C 0.03274 0.10441 0.711 0.0
C982 C 0.02823 0.07326 0.6383 0.0
H983 H 0.96109 0.08563 0.54717 0.0
H984 H 0.98179 0.08386 0.59829 0.0
H985 H 0.01494 0.05727 0.60239 0.0
H986 H 0.06861 0.08263 0.74904 0.0
H987 H 0.0582 0.07748 0.6788 0.0
H988 H 0.02807 0.11178 0.62348 0.0
C989 C 0.98391 0.08051 0.56597 0.0
C990 C 0.01814 0.06911 0.60612 0.0
C991 C 0.97209 0.08146 0.53684 0.0
C992 C 0.0588 0.08905 0.73837 0.0
C993 C 0.05278 0.08599 0.69844 0.0
C994 C 0.02558 0.09982 0.61861 0.0
C995 C 0.99867 0.07684 0.55268 0.0
C996 C 0.01147 0.08037 0.5809 0.0
C997 C 0.03948 0.09339 0.68485 0.0
C998 C 0.0316 0.08872 0.64572 0.0
H999 H 0.99176 0.07148 0.44841 0.0
H1000 H 0.0126 0.06991 0.4999 0.0
H1001 H 0.01049 0.1045 0.56726 0.0
H1002 H 0.03261 0.11512 0.77154 0.0
H1003 H 0.02239 0.11018 0.70153 0.0
C1004 C 0.6434 0.30152 0.48269 0.0
C1005 C 0.6566 0.30444 0.50615 0.0
C1006 C 0.64442 0.2936 0.44444 0.0
C1007 C 0.67219 0.27772 0.36615 0.0
H1008 H 0.64354 0.24417 0.36213 0.0
C1009 C 0.67299 0.23158 0.23582 0.0
C1010 C 0.66816 0.21678 0.24641 0.0
C1011 C 0.67234 0.24334 0.26536 0.0
C1012 C 0.65175 0.25337 0.36307 0.0
H1013 H 0.68122 0.30285 0.50666 0.0
H1014 H 0.68303 0.28915 0.44069 0.0
H1015 H 0.6399 0.26443 0.41324 0.0
H1016 H 0.66027 0.20245 0.29759 0.0
H1017 H 0.65973 0.22284 0.34964 0.0
H1018 H 0.68448 0.26623 0.31748 0.0
C1019 C 0.67189 0.29286 0.45108 0.0
C1020 C 0.64946 0.26519 0.3918 0.0
C1021 C 0.67086 0.30067 0.4891 0.0
C1022 C 0.66394 0.21374 0.28825 0.0
C1023 C 0.66342 0.22549 0.31794 0.0
C1024 C 0.67455 0.26583 0.33764 0.0
C1025 C 0.65865 0.2886 0.42921 0.0
C1026 C 0.65979 0.27739 0.39422 0.0
C1027 C 0.66703 0.24054 0.30638 0.0
C1028 C 0.66449 0.25337 0.33622 0.0
H1029 H 0.63228 0.30425 0.49541 0.0
H1030 H 0.63402 0.29073 0.42792 0.0
H1031 H 0.68029 0.28702 0.36684 0.0
H1032 H 0.67631 0.23438 0.20389 0.0
H1033 H 0.67519 0.25477 0.25524 0.0
C1034 C 0.52627 0.92137 0.01053 0.0
C1035 C 0.53877 0.91135 0.00903 0.0
C1036 C 0.51551 0.92024 0.04272 0.0
C1037 C 0.50016 0.89145 0.11492 0.0
H1038 H 0.47978 0.92564 0.16773 0.0
C1039 C 0.4664 0.88734 0.26848 0.0
C1040 C 0.4539 0.89701 0.27489 0.0
C1041 C 0.47456 0.88788 0.23092 0.0
C1042 C 0.48514 0.91597 0.15257 0.0
H1043 H 0.5505 0.89326 0.04249 0.0
H1044 H 0.53186 0.89153 0.09914 0.0
H1045 H 0.4999 0.9303 0.1163 0.0
H1046 H 0.4394 0.91409 0.24643 0.0
H1047 H 0.45375 0.91506 0.18014 0.0
H1048 H 0.48561 0.87712 0.15176 0.0
C1049 C 0.53017 0.89995 0.07464 0.0
C1050 C 0.49675 0.91865 0.12338 0.0
C1051 C 0.54096 0.90108 0.04245 0.0
C1052 C 0.44892 0.9064 0.24191 0.0
C1053 C 0.45723 0.90709 0.20432 0.0
C1054 C 0.48858 0.88878 0.14409 0.0
C1055 C 0.51704 0.90911 0.07419 0.0
C1056 C 0.50456 0.90641 0.10478 0.0
C1057 C 0.47047 0.89825 0.19919 0.0
C1058 C 0.48111 0.90101 0.16373 0.0
H1059 H 0.52427 0.92949 0.98544 0.0
H1060 H 0.50554 0.9275 0.04152 0.0
H1061 H 0.50568 0.88177 0.10028 0.0
H1062 H 0.47047 0.88007 0.29367 0.0
H1063 H 0.48474 0.881 0.22814 0.0
C1064 C 0.83828 0.21089 0.6966 0.0
C1065 C 0.83164 0.2129 0.73636 0.0
C1066 C 0.83696 0.22214 0.66597 0.0
C1067 C 0.83316 0.26363 0.66299 0.0
H1068 H 0.8379 0.25685 0.54311 0.0
C1069 C 0.8377 0.30779 0.52457 0.0
C1070 C 0.84949 0.30459 0.49606 0.0
C1071 C 0.8354 0.29843 0.55955 0.0
C1072 C 0.83666 0.25885 0.57661 0.0
H1073 H 0.81685 0.22735 0.7737 0.0
H1074 H 0.81414 0.24692 0.71951 0.0
H1075 H 0.83008 0.23583 0.58829 0.0
H1076 H 0.86873 0.29001 0.48269 0.0
H1077 H 0.8647 0.27356 0.54388 0.0
H1078 H 0.83953 0.28685 0.65052 0.0
C1079 C 0.82075 0.23682 0.71247 0.0
C1080 C 0.83213 0.24686 0.60244 0.0
C1081 C 0.82209 0.2255 0.74325 0.0
C1082 C 0.85984 0.29289 0.50499 0.0
C1083 C 0.8574 0.28339 0.53954 0.0
C1084 C 0.83743 0.27574 0.63688 0.0
C1085 C 0.82887 0.23563 0.67442 0.0
C1086 C 0.83077 0.24897 0.64613 0.0
C1087 C 0.84469 0.28563 0.56565 0.0
C1088 C 0.83964 0.27328 0.59374 0.0
H1089 H 0.84566 0.20124 0.6905 0.0
H1090 H 0.84341 0.22079 0.63716 0.0
H1091 H 0.83243 0.26563 0.69657 0.0
H1092 H 0.82938 0.31653 0.51744 0.0
H1093 H 0.82549 0.30027 0.57923 0.0
C1094 C 0.52804 0.07646 0.45448 0.0
C1095 C 0.52625 0.07497 0.49818 0.0
C1096 C 0.5156 0.07443 0.42772 0.0
C1097 C 0.48689 0.06432 0.37929 0.0
H1098 H 0.45629 0.09497 0.40438 0.0
C1099 C 0.43918 0.07475 0.26372 0.0
C1100 C 0.4396 0.08968 0.24793 0.0
C1101 C 0.44595 0.07129 0.30217 0.0
C1102 C 0.46463 0.08624 0.39735 0.0
H1103 H 0.51035 0.06943 0.54816 0.0
H1104 H 0.48849 0.06623 0.50122 0.0
H1105 H 0.47666 0.08977 0.45531 0.0
H1106 H 0.44605 0.11297 0.26114 0.0
H1107 H 0.45795 0.10694 0.32907 0.0
H1108 H 0.47527 0.06109 0.32089 0.0
C1109 C 0.49956 0.06871 0.48779 0.0
C1110 C 0.47619 0.0832 0.42647 0.0
C1111 C 0.51209 0.07036 0.51448 0.0
C1112 C 0.44544 0.10142 0.27309 0.0
C1113 C 0.45228 0.09794 0.31178 0.0
C1114 C 0.47521 0.06715 0.35059 0.0
C1115 C 0.50113 0.07124 0.44441 0.0
C1116 C 0.4876 0.07248 0.41712 0.0
C1117 C 0.45332 0.0827 0.32537 0.0
C1118 C 0.46418 0.07838 0.3589 0.0
H1119 H 0.53879 0.08021 0.44134 0.0
H1120 H 0.51704 0.07651 0.39433 0.0
H1121 H 0.49563 0.05609 0.37139 0.0
H1122 H 0.43469 0.06553 0.24468 0.0
H1123 H 0.44641 0.0595 0.31225 0.0
C1124 C 0.66724 0.70224 0.99839 0.0
C1125 C 0.65367 0.704 0.97572 0.0
C1126 C 0.66942 0.7102 0.03596 0.0
C1127 C 0.65479 0.74525 0.08632 0.0
H1128 H 0.68222 0.73369 0.1763 0.0
C1129 C 0.668 0.7881 0.21543 0.0
C1130 C 0.66787 0.78232 0.25657 0.0
C1131 C 0.66925 0.77822 0.18117 0.0
C1132 C 0.67443 0.73708 0.15161 0.0
H1133 H 0.63126 0.71414 0.97535 0.0
H1134 H 0.63446 0.72708 0.04273 0.0
H1135 H 0.67617 0.71539 0.12132 0.0
H1136 H 0.66994 0.76186 0.29447 0.0
H1137 H 0.67131 0.74463 0.23516 0.0
H1138 H 0.6522 0.7665 0.11762 0.0
C1139 C 0.64377 0.72023 0.03081 0.0
C1140 C 0.67108 0.72661 0.11977 0.0
C1141 C 0.64178 0.71263 0.99268 0.0
C1142 C 0.67009 0.76665 0.26302 0.0
C1143 C 0.67093 0.75674 0.22884 0.0
C1144 C 0.65788 0.75556 0.11847 0.0
C1145 C 0.65792 0.71982 0.05168 0.0
C1146 C 0.66115 0.73055 0.08679 0.0
C1147 C 0.6699 0.76234 0.18745 0.0
C1148 C 0.66773 0.75165 0.15162 0.0
H1149 H 0.67665 0.69582 0.98522 0.0
H1150 H 0.68049 0.70964 0.05083 0.0
H1151 H 0.64746 0.74894 0.0609 0.0
H1152 H 0.66648 0.80018 0.2097 0.0
H1153 H 0.66897 0.783 0.14976 0.0
C1154 C 0.03293 0.8962 0.73792 0.0
C1155 C 0.04725 0.90266 0.72965 0.0
C1156 C 0.02479 0.9004 0.77366 0.0
C1157 C 0.00641 0.92316 0.82336 0.0
H1158 H 0.01743 0.91997 0.94114 0.0
C1159 C 0.96306 0.91703 0.95436 0.0
C1160 C 0.96627 0.92246 0.99488 0.0
C1161 C 0.97343 0.91923 0.92173 0.0
C1162 C 0.01434 0.92133 0.90834 0.0
H1163 H 0.06492 0.91746 0.75409 0.0
H1164 H 0.05064 0.9246 0.81768 0.0
H1165 H 0.03602 0.91301 0.88685 0.0
H1166 H 0.98223 0.93537 0.03273 0.0
H1167 H 0.00049 0.93925 0.97533 0.0
H1168 H 0.98468 0.93106 0.84435 0.0
C1169 C 0.04576 0.91641 0.79605 0.0
C1170 C 0.02495 0.91724 0.8774 0.0
C1171 C 0.05396 0.91221 0.75997 0.0
C1172 C 0.97943 0.93124 0.00154 0.0
C1173 C 0.98995 0.93328 0.96889 0.0
C1174 C 0.9959 0.92735 0.8541 0.0
C1175 C 0.03082 0.9111 0.80192 0.0
C1176 C 0.02081 0.91755 0.83477 0.0
C1177 C 0.9873 0.92676 0.92911 0.0
C1178 C 0.99952 0.92589 0.89695 0.0
H1179 H 0.02755 0.88874 0.71516 0.0
H1180 H 0.01342 0.89589 0.77807 0.0
H1181 H 0.0031 0.92381 0.79054 0.0
H1182 H 0.95303 0.91015 0.94863 0.0
H1183 H 0.97107 0.91394 0.89162 0.0
C1184 C 0.6736 0.72397 0.70164 0.0
C1185 C 0.67572 0.72522 0.74527 0.0
C1186 C 0.67484 0.73683 0.676 0.0
C1187 C 0.68405 0.7671 0.63137 0.0
H1188 H 0.65013 0.79396 0.65703 0.0
C1189 C 0.66941 0.8144 0.51858 0.0
C1190 C 0.65511 0.81154 0.50053 0.0
C1191 C 0.67313 0.80822 0.55764 0.0
C1192 C 0.65979 0.78672 0.64999 0.0
H1193 H 0.68149 0.74063 0.79622 0.0
H1194 H 0.68322 0.76322 0.75129 0.0
H1195 H 0.65696 0.77348 0.70625 0.0
H1196 H 0.63298 0.80137 0.51018 0.0
H1197 H 0.63936 0.79067 0.57927 0.0
H1198 H 0.68664 0.77991 0.5746 0.0
C1199 C 0.68094 0.75224 0.73702 0.0
C1200 C 0.66373 0.77509 0.67806 0.0
C1201 C 0.68013 0.7393 0.76251 0.0
C1202 C 0.64396 0.80393 0.52402 0.0
C1203 C 0.64766 0.79776 0.56336 0.0
C1204 C 0.68034 0.7789 0.60381 0.0
C1205 C 0.67782 0.75115 0.69386 0.0
C1206 C 0.67562 0.76497 0.6683 0.0
C1207 C 0.66258 0.79907 0.57913 0.0
C1208 C 0.66793 0.78855 0.61231 0.0
H1209 H 0.66995 0.71328 0.68785 0.0
H1210 H 0.67229 0.73579 0.64274 0.0
H1211 H 0.69316 0.75932 0.62318 0.0
H1212 H 0.67822 0.82012 0.50061 0.0
H1213 H 0.68466 0.80946 0.56933 0.0
C1214 C 0.44726 0.41635 0.76221 0.0
C1215 C 0.44724 0.40385 0.73466 0.0
C1216 C 0.45681 0.41645 0.79733 0.0
C1217 C 0.49433 0.40413 0.82303 0.0
H1218 H 0.48503 0.41505 0.93842 0.0
C1219 C 0.53955 0.40272 0.95403 0.0
C1220 C 0.53782 0.41219 0.98939 0.0
C1221 C 0.52861 0.40262 0.9222 0.0
C1222 C 0.48788 0.4123 0.90614 0.0
H1223 H 0.4566 0.3815 0.72243 0.0
H1224 H 0.4736 0.38176 0.78374 0.0
H1225 H 0.46434 0.41156 0.88795 0.0
H1226 H 0.52403 0.43009 0.01694 0.0
H1227 H 0.50533 0.4305 0.96027 0.0
H1228 H 0.51779 0.40549 0.8401 0.0
C1229 C 0.46602 0.39131 0.77858 0.0
C1230 C 0.47599 0.4101 0.87748 0.0
C1231 C 0.45619 0.39107 0.74394 0.0
C1232 C 0.52562 0.42255 0.99032 0.0
C1233 C 0.51478 0.42262 0.95808 0.0
C1234 C 0.50621 0.4066 0.85137 0.0
C1235 C 0.46676 0.40423 0.80464 0.0
C1236 C 0.47913 0.40586 0.83583 0.0
C1237 C 0.5158 0.41222 0.92446 0.0
C1238 C 0.50317 0.4106 0.89345 0.0
H1239 H 0.44063 0.42643 0.75497 0.0
H1240 H 0.45727 0.42657 0.81682 0.0
H1241 H 0.49703 0.4012 0.79073 0.0
H1242 H 0.54878 0.39456 0.95221 0.0
H1243 H 0.5298 0.39436 0.89712 0.0
C1244 C 0.85402 0.2213 0.98676 0.0
C1245 C 0.84817 0.20663 0.97985 0.0
C1246 C 0.84985 0.22949 0.02238 0.0
C1247 C 0.82783 0.24733 0.07569 0.0
H1248 H 0.83285 0.23548 0.19235 0.0
C1249 C 0.83368 0.28993 0.20972 0.0
C1250 C 0.82913 0.28582 0.25056 0.0
C1251 C 0.83168 0.27983 0.1763 0.0
C1252 C 0.83099 0.23881 0.15993 0.0
H1253 H 0.83446 0.18846 0.00637 0.0
H1254 H 0.82736 0.20285 0.06979 0.0
H1255 H 0.83926 0.21742 0.13647 0.0
H1256 H 0.81736 0.26862 0.28747 0.0
H1257 H 0.81378 0.25107 0.2289 0.0
H1258 H 0.81993 0.2688 0.0987 0.0
C1259 C 0.83503 0.20798 0.04712 0.0
C1260 C 0.83475 0.22849 0.12806 0.0
C1261 C 0.83918 0.19973 0.01113 0.0
C1262 C 0.82117 0.27207 0.25647 0.0
C1263 C 0.8192 0.26195 0.22302 0.0
C1264 C 0.82397 0.25758 0.10741 0.0
C1265 C 0.83981 0.22315 0.05191 0.0
C1266 C 0.83374 0.23291 0.08576 0.0
C1267 C 0.82504 0.26545 0.18303 0.0
C1268 C 0.82604 0.25364 0.14985 0.0
H1269 H 0.8611 0.22681 0.96332 0.0
H1270 H 0.85399 0.24104 0.02601 0.0
H1271 H 0.82666 0.25085 0.04315 0.0
H1272 H 0.83972 0.30049 0.20399 0.0
H1273 H 0.83636 0.28288 0.14589 0.0
C1274 C 0.97778 0.56734 0.50859 0.0
C1275 C 0.96433 0.57503 0.49749 0.0
C1276 C 0.98888 0.56434 0.47805 0.0
C1277 C 0.99653 0.56553 0.36292 0.0
H1278 H 0.03428 0.58549 0.39478 0.0
C1279 C 0.05213 0.58481 0.265 0.0
C1280 C 0.04451 0.59438 0.23634 0.0
C1281 C 0.04473 0.57986 0.30167 0.0
C1282 C 0.02394 0.5796 0.38573 0.0
H1283 H 0.9512 0.58426 0.44584 0.0
H1284 H 0.97025 0.57874 0.39252 0.0
H1285 H 0.0157 0.57858 0.44914 0.0
H1286 H 0.02396 0.60747 0.2254 0.0
H1287 H 0.01117 0.59889 0.28916 0.0
H1288 H 0.00429 0.56763 0.29932 0.0
C1289 C 0.97239 0.57506 0.42453 0.0
C1290 C 0.01334 0.57556 0.41672 0.0
C1291 C 0.96146 0.57825 0.45503 0.0
C1292 C 0.03004 0.60002 0.24679 0.0
C1293 C 0.02269 0.59505 0.28304 0.0
C1294 C 0.00704 0.56966 0.3321 0.0
C1295 C 0.98652 0.56876 0.43602 0.0
C1296 C 0.99924 0.56911 0.40534 0.0
C1297 C 0.02969 0.58443 0.30971 0.0
C1298 C 0.0205 0.57729 0.34315 0.0
H1299 H 0.98033 0.5649 0.54128 0.0
H1300 H 0.99962 0.55938 0.48768 0.0
H1301 H 0.98587 0.56039 0.35331 0.0
H1302 H 0.06324 0.5802 0.25748 0.0
H1303 H 0.05031 0.57172 0.32212 0.0
C1304 C 0.65035 0.28392 0.79129 0.0
C1305 C 0.66004 0.28214 0.75637 0.0
C1306 C 0.64942 0.27262 0.82205 0.0
C1307 C 0.657 0.23128 0.8356 0.0
H1308 H 0.64657 0.24002 0.9517 0.0
C1309 C 0.66117 0.1901 0.9778 0.0
C1310 C 0.64947 0.19087 0.00778 0.0
C1311 C 0.66075 0.19935 0.94207 0.0
C1312 C 0.64925 0.23743 0.91918 0.0
H1313 H 0.67738 0.26772 0.72854 0.0
H1314 H 0.6763 0.24833 0.78336 0.0
H1315 H 0.6515 0.26095 0.9034 0.0
H1316 H 0.6278 0.2011 0.02338 0.0
H1317 H 0.62708 0.21747 0.96089 0.0
H1318 H 0.65542 0.20765 0.85251 0.0
C1319 C 0.66891 0.25816 0.78598 0.0
C1320 C 0.65211 0.24942 0.89145 0.0
C1321 C 0.6697 0.26939 0.75483 0.0
C1322 C 0.63674 0.20008 3e-05 0.0
C1323 C 0.63644 0.20956 0.96469 0.0
C1324 C 0.65439 0.21927 0.86363 0.0
C1325 C 0.65834 0.25935 0.81913 0.0
C1326 C 0.65598 0.24653 0.84921 0.0
C1327 C 0.64878 0.20976 0.93649 0.0
C1328 C 0.65041 0.22226 0.90558 0.0
H1329 H 0.64272 0.29358 0.79357 0.0
H1330 H 0.64106 0.27396 0.84682 0.0
H1331 H 0.65962 0.22858 0.80314 0.0
H1332 H 0.67125 0.18331 0.98382 0.0
H1333 H 0.67044 0.19937 0.92094 0.0
C1334 C 0.96057 0.41133 0.03905 0.0
C1335 C 0.96353 0.41823 -5e-05 0.0
C1336 C 0.97174 0.41103 0.07019 0.0
C1337 C 0.00745 0.42676 0.10917 0.0
H1338 H 0.01477 0.38509 0.14468 0.0
C1339 C 0.05208 0.41193 0.23681 0.0
C1340 C 0.04579 0.403 0.26911 0.0
C1341 C 0.04441 0.41341 0.19831 0.0
C1342 C 0.01289 0.39678 0.13508 0.0
H1343 H 0.97991 0.43178 0.96489 0.0
H1344 H 0.99933 0.43142 0.01994 0.0
H1345 H 0.99538 0.39036 0.09186 0.0
H1346 H 0.02732 0.38781 0.28596 0.0
H1347 H 0.01411 0.39022 0.21933 0.0
H1348 H 0.02455 0.43323 0.15386 0.0
C1349 C 0.98844 0.42604 0.02592 0.0
C1350 C 0.00176 0.3998 0.10502 0.0
C1351 C 0.97729 0.42626 0.99451 0.0
C1352 C 0.03238 0.39478 0.26147 0.0
C1353 C 0.02486 0.39611 0.22317 0.0
C1354 C 0.01854 0.42375 0.13974 0.0
C1355 C 0.98601 0.41778 0.0631 0.0
C1356 C 0.99864 0.41483 0.09268 0.0
C1357 C 0.03052 0.40578 0.19158 0.0
C1358 C 0.02104 0.40876 0.15385 0.0
H1359 H 0.95004 0.40521 0.04458 0.0
H1360 H 0.96951 0.40486 0.0991 0.0
H1361 H 0.0053 0.43843 0.0998 0.0
H1362 H 0.06235 0.41847 0.24221 0.0
H1363 H 0.04908 0.42085 0.17436 0.0
C1364 C 0.82363 0.73722 0.23824 0.0
C1365 C 0.82859 0.72298 0.2531 0.0
C1366 C 0.82391 0.74992 0.26476 0.0
C1367 C 0.84609 0.76233 0.35616 0.0
H1368 H 0.81862 0.79683 0.35942 0.0
C1369 C 0.85731 0.80901 0.47457 0.0
C1370 C 0.84448 0.81125 0.50003 0.0
C1371 C 0.85562 0.80247 0.43461 0.0
C1372 C 0.82646 0.78732 0.35858 0.0
H1373 H 0.83585 0.71035 0.30803 0.0
H1374 H 0.83551 0.7323 0.35498 0.0
H1375 H 0.81283 0.77519 0.31371 0.0
H1376 H 0.81984 0.81046 0.50242 0.0
H1377 H 0.81687 0.79897 0.43371 0.0
H1378 H 0.85929 0.77385 0.40248 0.0
C1379 C 0.83206 0.73385 0.32252 0.0
C1380 C 0.82314 0.77495 0.33239 0.0
C1381 C 0.83199 0.72123 0.29594 0.0
C1382 C 0.82992 0.8086 0.48339 0.0
C1383 C 0.82822 0.80214 0.44373 0.0
C1384 C 0.84936 0.7746 0.3824 0.0
C1385 C 0.82899 0.74847 0.30651 0.0
C1386 C 0.83269 0.76211 0.33202 0.0
C1387 C 0.84109 0.79814 0.41992 0.0
C1388 C 0.83936 0.78705 0.38495 0.0
H1389 H 0.82116 0.73891 0.20515 0.0
H1390 H 0.8214 0.76102 0.25157 0.0
H1391 H 0.85396 0.75283 0.3555 0.0
H1392 H 0.86864 0.81105 0.48683 0.0
H1393 H 0.86574 0.79982 0.41655 0.0
C1394 C 0.51996 0.56585 0.48539 0.0
C1395 C 0.53393 0.57254 0.4964 0.0
C1396 C 0.5088 0.56344 0.51615 0.0
C1397 C 0.50152 0.56504 0.63158 0.0
H1398 H 0.46543 0.58795 0.60026 0.0
C1399 C 0.44807 0.58842 0.7311 0.0
C1400 C 0.45646 0.59755 0.7592 0.0
C1401 C 0.4549 0.58295 0.69415 0.0
C1402 C 0.47528 0.58126 0.60917 0.0
H1403 H 0.54788 0.58054 0.54796 0.0
H1404 H 0.52871 0.576 0.60168 0.0
H1405 H 0.48325 0.57953 0.54563 0.0
H1406 H 0.47784 0.60941 0.76876 0.0
H1407 H 0.48963 0.59993 0.70448 0.0
H1408 H 0.49413 0.56782 0.69533 0.0
C1409 C 0.5262 0.57263 0.56961 0.0
C1410 C 0.48544 0.57634 0.57802 0.0
C1411 C 0.53721 0.57525 0.53889 0.0
C1412 C 0.47116 0.60231 0.74781 0.0
C1413 C 0.47794 0.59682 0.71127 0.0
C1414 C 0.49146 0.57004 0.66257 0.0
C1415 C 0.5116 0.56747 0.55828 0.0
C1416 C 0.49901 0.56879 0.58917 0.0
C1417 C 0.47012 0.58658 0.68524 0.0
C1418 C 0.47863 0.57871 0.6517 0.0
H1419 H 0.51711 0.56388 0.45265 0.0
H1420 H 0.49769 0.55934 0.50663 0.0
H1421 H 0.51175 0.55906 0.64104 0.0
H1422 H 0.43677 0.58447 0.73933 0.0
H1423 H 0.44869 0.5751 0.67422 0.0
C1424 C 0.32692 0.28573 0.29016 0.0
C1425 C 0.32465 0.28286 0.24723 0.0
C1426 C 0.32346 0.2746 0.31994 0.0
C1427 C 0.32549 0.23376 0.32685 0.0
H1428 H 0.31512 0.24207 0.44324 0.0
C1429 C 0.34961 0.2185 0.49668 0.0
C1430 C 0.34424 0.20408 0.50874 0.0
C1431 C 0.34432 0.22534 0.46001 0.0
C1432 C 0.31779 0.2395 0.41069 0.0
H1433 H 0.31593 0.26667 0.20169 0.0
H1434 H 0.30999 0.24705 0.25401 0.0
H1435 H 0.30785 0.26025 0.38859 0.0
H1436 H 0.33014 0.18493 0.49005 0.0
H1437 H 0.32108 0.19698 0.42476 0.0
H1438 H 0.33618 0.21335 0.34979 0.0
C1439 C 0.31438 0.25793 0.26457 0.0
C1440 C 0.31366 0.24987 0.37951 0.0
C1441 C 0.31763 0.2692 0.23474 0.0
C1442 C 0.33455 0.19602 0.48135 0.0
C1443 C 0.32928 0.20291 0.44428 0.0
C1444 C 0.32955 0.22331 0.35817 0.0
C1445 C 0.31787 0.26031 0.30725 0.0
C1446 C 0.31814 0.24749 0.33759 0.0
C1447 C 0.33367 0.21786 0.43452 0.0
C1448 C 0.32631 0.2265 0.40043 0.0
H1449 H 0.33239 0.29615 0.30043 0.0
H1450 H 0.32643 0.27676 0.3525 0.0
H1451 H 0.32922 0.23168 0.29486 0.0
H1452 H 0.35717 0.22492 0.51702 0.0
H1453 H 0.34798 0.23683 0.45257 0.0
C1454 C 0.55683 0.58633 0.23224 0.0
C1455 C 0.54899 0.59588 0.26047 0.0
C1456 C 0.54972 0.5814 0.19513 0.0
C1457 C 0.52939 0.58087 0.11013 0.0
H1458 H 0.49141 0.56132 0.14188 0.0
C1459 C 0.48395 0.56784 0.98614 0.0
C1460 C 0.47044 0.57553 0.99665 0.0
C1461 C 0.4949 0.56492 0.01712 0.0
C1462 C 0.50205 0.56655 0.13247 0.0
H1463 H 0.5284 0.60902 0.27018 0.0
H1464 H 0.51612 0.60051 0.20556 0.0
H1465 H 0.50949 0.56899 0.19626 0.0
H1466 H 0.45703 0.58484 0.04764 0.0
H1467 H 0.47582 0.57944 0.10175 0.0
H1468 H 0.52146 0.57948 0.0465 0.0
C1469 C 0.52759 0.59666 0.21235 0.0
C1470 C 0.51236 0.57094 0.16351 0.0
C1471 C 0.53465 0.60161 0.24907 0.0
C1472 C 0.46734 0.57881 0.03894 0.0
C1473 C 0.47812 0.57569 0.06989 0.0
C1474 C 0.51899 0.57656 0.07892 0.0
C1475 C 0.53476 0.58599 0.1862 0.0
C1476 C 0.52578 0.57869 0.15266 0.0
C1477 C 0.49232 0.56943 0.059 0.0
C1478 C 0.50491 0.56999 0.09003 0.0
H1479 H 0.56784 0.58163 0.24052 0.0
H1480 H 0.55544 0.57321 0.17512 0.0
H1481 H 0.53971 0.58683 0.10124 0.0
H1482 H 0.48666 0.56538 0.95356 0.0
H1483 H 0.5057 0.55998 0.00796 0.0
C1484 C 0.17509 0.72868 0.74843 0.0
C1485 C 0.16575 0.71581 0.75433 0.0
C1486 C 0.17524 0.74039 0.77825 0.0
C1487 C 0.14905 0.75862 0.84752 0.0
H1488 H 0.18323 0.77548 0.90889 0.0
C1489 C 0.14195 0.79363 0.99785 0.0
C1490 C 0.15358 0.80356 0.01014 0.0
C1491 C 0.14308 0.7857 0.95991 0.0
C1492 C 0.17359 0.77123 0.8912 0.0
H1493 H 0.15047 0.7045 0.79819 0.0
H1494 H 0.15064 0.72504 0.84963 0.0
H1495 H 0.1875 0.75502 0.85823 0.0
H1496 H 0.17493 0.81396 0.99219 0.0
H1497 H 0.17656 0.8008 0.92453 0.0
H1498 H 0.13509 0.77479 0.87971 0.0
C1499 C 0.15768 0.72606 0.82176 0.0
C1500 C 0.17607 0.7594 0.86258 0.0
C1501 C 0.1577 0.71427 0.7924 0.0
C1502 C 0.16572 0.80649 0.9827 0.0
C1503 C 0.16676 0.79875 0.94442 0.0
C1504 C 0.14659 0.77061 0.8755 0.0
C1505 C 0.16596 0.73943 0.81406 0.0
C1506 C 0.16375 0.75275 0.84153 0.0
C1507 C 0.15587 0.78766 0.93363 0.0
C1508 C 0.15876 0.77678 0.89865 0.0
H1509 H 0.18149 0.73016 0.71957 0.0
H1510 H 0.1818 0.7506 0.772 0.0
H1511 H 0.13943 0.75379 0.83086 0.0
H1512 H 0.13271 0.79096 0.01926 0.0
H1513 H 0.13456 0.77714 0.95308 0.0
C1514 C 0.02262 0.42895 0.50465 0.0
C1515 C 0.03464 0.41875 0.51255 0.0
C1516 C 0.01025 0.42977 0.53248 0.0
C1517 C 0.9887 0.40398 0.5935 0.0
H1518 H 0.97336 0.43678 0.66308 0.0
C1519 C 0.95078 0.39378 0.73751 0.0
C1520 C 0.94163 0.40568 0.75234 0.0
C1521 C 0.9594 0.39573 0.7009 0.0
C1522 C 0.97719 0.42758 0.64303 0.0
H1523 H 0.04406 0.40287 0.55791 0.0
H1524 H 0.0225 0.4043 0.60609 0.0
H1525 H 0.99489 0.44142 0.61608 0.0
H1526 H 0.93315 0.42834 0.73949 0.0
H1527 H 0.94744 0.43144 0.67412 0.0
H1528 H 0.97115 0.39007 0.61988 0.0
C1529 C 0.02255 0.41145 0.57828 0.0
C1530 C 0.98961 0.43027 0.61645 0.0
C1531 C 0.0349 0.41073 0.55086 0.0
C1532 C 0.94005 0.41895 0.72815 0.0
C1533 C 0.94844 0.42081 0.69119 0.0
C1534 C 0.97616 0.40135 0.61947 0.0
C1535 C 0.00984 0.42039 0.56824 0.0
C1536 C 0.99569 0.41836 0.5925 0.0
C1537 C 0.95888 0.40958 0.6784 0.0
C1538 C 0.97051 0.41298 0.64556 0.0
H1539 H 0.02205 0.43519 0.47527 0.0
H1540 H 0.00054 0.4368 0.52442 0.0
H1541 H 0.99316 0.39469 0.57472 0.0
H1542 H 0.95243 0.38362 0.75635 0.0
H1543 H 0.96739 0.38686 0.69241 0.0
C1544 C 0.33444 0.71714 0.21298 0.0
C1545 C 0.33198 0.72067 0.25561 0.0
C1546 C 0.33363 0.72854 0.18233 0.0
C1547 C 0.34076 0.76897 0.17068 0.0
H1548 H 0.32084 0.7645 0.06253 0.0
C1549 C 0.35531 0.80201 0.01641 0.0
C1550 C 0.34286 0.80577 0.99082 0.0
C1551 C 0.35293 0.79418 0.05434 0.0
C1552 C 0.32634 0.76598 0.09278 0.0
H1553 H 0.32584 0.73878 0.29909 0.0
H1554 H 0.3246 0.75861 0.24553 0.0
H1555 H 0.31753 0.74486 0.11618 0.0
H1556 H 0.31825 0.80582 0.98603 0.0
H1557 H 0.31411 0.79245 0.05229 0.0
H1558 H 0.34996 0.78991 0.14661 0.0
C1559 C 0.32721 0.74705 0.23602 0.0
C1560 C 0.32452 0.7547 0.12327 0.0
C1561 C 0.32778 0.73563 0.26655 0.0
C1562 C 0.32802 0.80298 0.00537 0.0
C1563 C 0.32565 0.79524 0.04303 0.0
C1564 C 0.34277 0.78018 0.13987 0.0
C1565 C 0.33054 0.74369 0.19386 0.0
C1566 C 0.33175 0.75605 0.16242 0.0
C1567 C 0.33809 0.79007 0.06676 0.0
C1568 C 0.33558 0.77877 0.10063 0.0
H1569 H 0.33769 0.70573 0.20355 0.0
H1570 H 0.33623 0.72567 0.14995 0.0
H1571 H 0.34659 0.77018 0.20055 0.0
H1572 H 0.36683 0.80389 0.00541 0.0
H1573 H 0.36271 0.79029 0.07213 0.0
C1574 C 0.96502 0.60512 0.74387 0.0
C1575 C 0.95081 0.5988 0.73363 0.0
C1576 C 0.97269 0.60048 0.78 0.0
C1577 C 0.98973 0.5757 0.82746 0.0
H1578 H 0.98028 0.5813 0.94561 0.0
C1579 C 0.03492 0.5806 0.95386 0.0
C1580 C 0.03178 0.57622 0.9954 0.0
C1581 C 0.02405 0.57856 0.92242 0.0
C1582 C 0.98289 0.57924 0.91277 0.0
H1583 H 0.9328 0.58379 0.75509 0.0
H1584 H 0.94624 0.5759 0.81945 0.0
H1585 H 0.96166 0.58887 0.89201 0.0
H1586 H 0.01535 0.56529 0.03636 0.0
H1587 H 0.99623 0.56166 0.98106 0.0
H1588 H 0.01106 0.56651 0.84758 0.0
C1589 C 0.95139 0.58433 0.79902 0.0
C1590 C 0.97227 0.58368 0.88223 0.0
C1591 C 0.94368 0.58895 0.7625 0.0
C1592 C 0.0181 0.56858 0.00437 0.0
C1593 C 0.00709 0.5667 0.97289 0.0
C1594 C 1.00024 0.57115 0.85781 0.0
C1595 C 0.96626 0.58952 0.80673 0.0
C1596 C 0.97592 0.5825 0.8394 0.0
C1597 C 0.00974 0.57224 0.93199 0.0
C1598 C 0.99723 0.57347 0.90075 0.0
H1599 H 0.97074 0.61278 0.72225 0.0
H1600 H 0.98406 0.60481 0.7858 0.0
H1601 H 0.99265 0.57448 0.79447 0.0
H1602 H 0.04534 0.58662 0.94633 0.0
H1603 H 0.02644 0.58309 0.8914 0.0
C1604 C 0.1733 0.26986 0.75797 0.0
C1605 C 0.16741 0.28458 0.75104 0.0
C1606 C 0.17295 0.25897 0.72587 0.0
C1607 C 0.17435 0.24082 0.64038 0.0
H1608 H 0.133 0.23838 0.59769 0.0
C1609 C 0.15801 0.19952 0.5063 0.0
C1610 C 0.1504 0.20696 0.47328 0.0
C1611 C 0.15934 0.20656 0.54568 0.0
C1612 C 0.14459 0.2389 0.60926 0.0
H1613 H 0.15831 0.29991 0.70361 0.0
H1614 H 0.15764 0.28086 0.64797 0.0
H1615 H 0.13915 0.25658 0.65304 0.0
H1616 H 0.13725 0.22691 0.45612 0.0
H1617 H 0.13952 0.23912 0.52423 0.0
H1618 H 0.17996 0.22363 0.59507 0.0
C1619 C 0.16225 0.27773 0.67842 0.0
C1620 C 0.1481 0.24933 0.6408 0.0
C1621 C 0.16271 0.28863 0.71024 0.0
C1622 C 0.14324 0.22097 0.48102 0.0
C1623 C 0.14447 0.22791 0.5202 0.0
C1624 C 0.17087 0.23046 0.60828 0.0
C1625 C 0.16668 0.26267 0.6866 0.0
C1626 C 0.16307 0.25066 0.65574 0.0
C1627 C 0.15291 0.22102 0.5526 0.0
C1628 C 0.15604 0.22974 0.59159 0.0
H1629 H 0.17712 0.2664 0.78896 0.0
H1630 H 0.17653 0.24742 0.73265 0.0
H1631 H 0.18594 0.24161 0.6518 0.0
H1632 H 0.16368 0.18873 0.50102 0.0
H1633 H 0.16578 0.20094 0.57025 0.0
C1634 C 0.46141 0.4099 0.45011 0.0
C1635 C 0.46332 0.41879 0.4866 0.0
C1636 C 0.47292 0.40916 0.41991 0.0
C1637 C 0.50698 0.42665 0.3768 0.0
H1638 H 0.5209 0.38505 0.36149 0.0
C1639 C 0.55705 0.41432 0.26709 0.0
C1640 C 0.55491 0.40203 0.23958 0.0
C1641 C 0.54788 0.41585 0.30277 0.0
C1642 C 0.5171 0.39671 0.36504 0.0
H1643 H 0.47802 0.43525 0.5174 0.0
H1644 H 0.49793 0.43429 0.46366 0.0
H1645 H 0.49941 0.39027 0.40792 0.0
H1646 H 0.54209 0.38147 0.22773 0.0
H1647 H 0.52579 0.3842 0.28925 0.0
H1648 H 0.5241 0.43313 0.33261 0.0
C1649 C 0.48766 0.42764 0.4592 0.0
C1650 C 0.50481 0.39968 0.39164 0.0
C1651 C 0.47624 0.42822 0.48983 0.0
C1652 C 0.54418 0.39079 0.24936 0.0
C1653 C 0.53481 0.39244 0.28459 0.0
C1654 C 0.51912 0.42366 0.34958 0.0
C1655 C 0.48639 0.41754 0.42515 0.0
C1656 C 0.49954 0.41464 0.39734 0.0
C1657 C 0.53612 0.40534 0.31077 0.0
C1658 C 0.52426 0.40863 0.34302 0.0
H1659 H 0.45159 0.40256 0.44635 0.0
H1660 H 0.47161 0.4015 0.39341 0.0
H1661 H 0.5031 0.43827 0.38082 0.0
H1662 H 0.56512 0.42325 0.2595 0.0
H1663 H 0.54948 0.42571 0.32276 0.0
C1664 C 0.11307 0.10456 0.98703 0.0
C1665 C 0.09969 0.09596 0.99104 0.0
C1666 C 0.12302 0.10606 0.02122 0.0
C1667 C 0.14373 0.10712 0.09775 0.0
H1668 H 0.12008 0.11463 0.19872 0.0
C1669 C 0.14699 0.13676 0.27466 0.0
C1670 C 0.15304 0.15084 0.26192 0.0
C1671 C 0.14455 0.12518 0.24508 0.0
C1672 C 0.12702 0.11221 0.17132 0.0
H1673 H 0.087 0.08081 0.03185 0.0
H1674 H 0.10466 0.0828 0.09077 0.0
H1675 H 0.10805 0.10285 0.13862 0.0
H1676 H 0.16283 0.16324 0.20941 0.0
H1677 H 0.15852 0.14321 0.15809 0.0
H1678 H 0.16246 0.11752 0.13016 0.0
C1679 C 0.10724 0.08892 0.06204 0.0
C1680 C 0.12009 0.1054 0.13659 0.0
C1681 C 0.09717 0.08767 0.0282 0.0
C1682 C 0.15797 0.15257 0.22008 0.0
C1683 C 0.15562 0.14101 0.19067 0.0
C1684 C 0.15066 0.11403 0.13256 0.0
C1685 C 0.11984 0.09879 0.05981 0.0
C1686 C 0.12818 0.10323 0.09881 0.0
C1687 C 0.14822 0.12746 0.20239 0.0
C1688 C 0.14222 0.11713 0.16922 0.0
H1689 H 0.11523 0.11114 0.95878 0.0
H1690 H 0.13253 0.11383 0.01828 0.0
H1691 H 0.1504 0.10535 0.06948 0.0
H1692 H 0.14314 0.13505 0.30672 0.0
H1693 H 0.13903 0.11477 0.25518 0.0
C1694 C 0.10207 0.90791 0.47567 0.0
C1695 C 0.10345 0.90218 0.51683 0.0
C1696 C 0.11291 0.90438 0.44505 0.0
C1697 C 0.13798 0.87265 0.42032 0.0
H1698 H 0.14689 0.89671 0.32092 0.0
C1699 C 0.1612 0.84353 0.27279 0.0
C1700 C 0.1534 0.84732 0.23577 0.0
C1701 C 0.16003 0.85281 0.30841 0.0
C1702 C 0.14453 0.88984 0.34848 0.0
H1703 H 0.11802 0.88943 0.55914 0.0
H1704 H 0.13709 0.88334 0.50558 0.0
H1705 H 0.13625 0.90905 0.38332 0.0
H1706 H 0.13866 0.8638 0.20591 0.0
H1707 H 0.13636 0.88 0.2682 0.0
H1708 H 0.14545 0.85334 0.38517 0.0
C1709 C 0.12747 0.89039 0.4969 0.0
C1710 C 0.13847 0.89692 0.38428 0.0
C1711 C 0.11663 0.894 0.5277 0.0
C1712 C 0.14501 0.86088 0.23402 0.0
C1713 C 0.14373 0.87013 0.26974 0.0
C1714 C 0.144 0.86558 0.38461 0.0
C1715 C 0.12538 0.89499 0.4548 0.0
C1716 C 0.13466 0.88831 0.42016 0.0
C1717 C 0.15079 0.86592 0.30786 0.0
C1718 C 0.14692 0.87399 0.34776 0.0
H1719 H 0.09208 0.91434 0.4664 0.0
H1720 H 0.11084 0.90806 0.41301 0.0
H1721 H 0.13498 0.86559 0.44704 0.0
H1722 H 0.16756 0.83298 0.27481 0.0
H1723 H 0.16582 0.84934 0.33696 0.0
C1724 C 0.40244 0.90962 0.53133 0.0
C1725 C 0.39999 0.90418 0.4903 0.0
C1726 C 0.39153 0.90749 0.5626 0.0
C1727 C 0.36173 0.87976 0.58817 0.0
H1728 H 0.36196 0.90246 0.69291 0.0
C1729 C 0.34106 0.85363 0.74522 0.0
C1730 C 0.35363 0.85245 0.7723 0.0
C1731 C 0.34161 0.86346 0.71047 0.0
C1732 C 0.36154 0.89613 0.66365 0.0
H1733 H 0.38346 0.89367 0.44878 0.0
H1734 H 0.36412 0.89023 0.5034 0.0
H1735 H 0.37132 0.91447 0.62856 0.0
H1736 H 0.37617 0.86097 0.78631 0.0
H1737 H 0.37691 0.8786 0.72671 0.0
H1738 H 0.3523 0.8613 0.62384 0.0
C1739 C 0.37471 0.8958 0.51164 0.0
C1740 C 0.36701 0.90293 0.62683 0.0
C1741 C 0.38573 0.8979 0.4802 0.0
C1742 C 0.36633 0.86183 0.76588 0.0
C1743 C 0.36671 0.87192 0.73195 0.0
C1744 C 0.35599 0.87308 0.62486 0.0
C1745 C 0.37776 0.89994 0.55368 0.0
C1746 C 0.36801 0.89452 0.58913 0.0
C1747 C 0.35456 0.87249 0.70321 0.0
C1748 C 0.35656 0.88095 0.66328 0.0
H1749 H 0.41325 0.91468 0.54006 0.0
H1750 H 0.39447 0.91075 0.59444 0.0
H1751 H 0.36237 0.87283 0.56003 0.0
H1752 H 0.33124 0.84631 0.74946 0.0
H1753 H 0.33217 0.86364 0.68852 0.0
C1754 C 0.36027 0.1406 0.72643 0.0
C1755 C 0.34923 0.15212 0.72835 0.0
C1756 C 0.36272 0.13107 0.76115 0.0
C1757 C 0.36586 0.11053 0.83728 0.0
H1758 H 0.36281 0.13265 0.94265 0.0
C1759 C 0.38454 0.10529 0.02469 0.0
C1760 C 0.40031 0.10385 0.01886 0.0
C1761 C 0.37495 0.10744 0.98982 0.0
C1762 C 0.36343 0.12616 0.91369 0.0
H1763 H 0.33117 0.16188 0.76596 0.0
H1764 H 0.33463 0.14461 0.82526 0.0
H1765 H 0.3519 0.14347 0.87929 0.0
H1766 H 0.41838 0.10252 0.97259 0.0
H1767 H 0.40167 0.10575 0.91195 0.0
H1768 H 0.37861 0.09383 0.87187 0.0
C1769 C 0.34194 0.1433 0.79808 0.0
C1770 C 0.35711 0.13233 0.8771 0.0
C1771 C 0.33978 0.15307 0.76386 0.0
C1772 C 0.40623 0.10361 0.9778 0.0
C1773 C 0.39667 0.10537 0.94311 0.0
C1774 C 0.37243 0.10449 0.87383 0.0
C1775 C 0.35398 0.1327 0.79819 0.0
C1776 C 0.35858 0.12483 0.83804 0.0
C1777 C 0.381 0.10776 0.94876 0.0
C1778 C 0.3716 0.11245 0.91215 0.0
H1779 H 0.36785 0.13982 0.6996 0.0
H1780 H 0.37219 0.1232 0.75983 0.0
H1781 H 0.36694 0.10419 0.8082 0.0
H1782 H 0.37977 0.10562 0.05612 0.0
H1783 H 0.3629 0.10931 0.99497 0.0
C1784 C 0.88816 0.89141 0.03049 0.0
C1785 C 0.90197 0.89885 0.0218 0.0
C1786 C 0.8776 0.88882 0.99812 0.0
C1787 C 0.86924 0.89781 0.88479 0.0
H1788 H 0.85818 0.85511 0.87935 0.0
C1789 C 0.86573 0.86353 0.73138 0.0
C1790 C 0.85494 0.85186 0.72787 0.0
C1791 C 0.86668 0.87213 0.76833 0.0
C1792 C 0.86084 0.86715 0.88061 0.0
H1793 H 0.91494 0.91064 0.97371 0.0
H1794 H 0.89678 0.90613 0.91778 0.0
H1795 H 0.86808 0.86557 0.94468 0.0
H1796 H 0.83648 0.84006 0.75899 0.0
H1797 H 0.83811 0.8551 0.82394 0.0
H1798 H 0.86291 0.89905 0.81969 0.0
C1799 C 0.89391 0.90227 0.94918 0.0
C1800 C 0.86649 0.87318 0.91822 0.0
C1801 C 0.90443 0.90476 0.98126 0.0
C1802 C 0.84472 0.84922 0.761 0.0
C1803 C 0.84574 0.85773 0.79815 0.0
C1804 C 0.8637 0.89174 0.84707 0.0
C1805 C 0.88063 0.89376 0.95671 0.0
C1806 C 0.87134 0.88844 0.92032 0.0
C1807 C 0.857 0.86901 0.80262 0.0
C1808 C 0.85996 0.87621 0.84418 0.0
H1809 H 0.88598 0.88673 0.06147 0.0
H1810 H 0.86738 0.8824 0.0051 0.0
H1811 H 0.87256 0.90969 0.88554 0.0
H1812 H 0.87388 0.8655 0.70635 0.0
H1813 H 0.87562 0.88058 0.771 0.0
C1814 C 0.91067 0.09278 0.53601 0.0
C1815 C 0.90636 0.09635 0.4945 0.0
C1816 C 0.90044 0.09462 0.56927 0.0
C1817 C 0.86869 0.11945 0.59551 0.0
H1818 H 0.86951 0.09749 0.70146 0.0
C1819 C 0.864 0.13598 0.77926 0.0
C1820 C 0.85295 0.14742 0.77535 0.0
C1821 C 0.86638 0.12564 0.74629 0.0
C1822 C 0.86913 0.10374 0.67209 0.0
H1823 H 0.88747 0.10328 0.45497 0.0
H1824 H 0.86953 0.10639 0.51315 0.0
H1825 H 0.88134 0.08629 0.63898 0.0
H1826 H 0.83468 0.15615 0.73657 0.0
H1827 H 0.83821 0.13765 0.68019 0.0
H1828 H 0.85733 0.13724 0.62848 0.0
C1829 C 0.88094 0.10242 0.51997 0.0
C1830 C 0.87588 0.09731 0.63626 0.0
C1831 C 0.89119 0.10054 0.48659 0.0
C1832 C 0.84331 0.14742 0.74014 0.0
C1833 C 0.84547 0.13694 0.70767 0.0
C1834 C 0.86202 0.12588 0.63118 0.0
C1835 C 0.88564 0.10007 0.56186 0.0
C1836 C 0.8761 0.1053 0.59783 0.0
C1837 C 0.85761 0.1265 0.70917 0.0
C1838 C 0.8625 0.11832 0.67027 0.0
H1839 H 0.92224 0.08935 0.54317 0.0
H1840 H 0.90451 0.09277 0.60105 0.0
H1841 H 0.86887 0.12607 0.56674 0.0
H1842 H 0.87169 0.13589 0.80594 0.0
H1843 H 0.87589 0.11783 0.7486 0.0
C1844 C 0.66011 0.1508 0.27245 0.0
C1845 C 0.65284 0.14749 0.2343 0.0
C1846 C 0.65823 0.14121 0.30722 0.0
C1847 C 0.63987 0.1047 0.34325 0.0
H1848 H 0.63144 0.12878 0.44286 0.0
C1849 C 0.59444 0.09034 0.46704 0.0
C1850 C 0.59657 0.09505 0.50895 0.0
C1851 C 0.6057 0.09293 0.43679 0.0
C1852 C 0.63408 0.12176 0.41577 0.0
H1853 H 0.63835 0.13153 0.20152 0.0
H1854 H 0.63453 0.115 0.26235 0.0
H1855 H 0.64347 0.14066 0.38277 0.0
H1856 H 0.61279 0.10487 0.55273 0.0
H1857 H 0.63244 0.10943 0.49977 0.0
H1858 H 0.62938 0.08603 0.37591 0.0
C1859 C 0.64216 0.12462 0.26552 0.0
C1860 C 0.64104 0.12859 0.38109 0.0
C1861 C 0.6443 0.13408 0.23055 0.0
C1862 C 0.61075 0.10116 0.52071 0.0
C1863 C 0.62198 0.10386 0.49032 0.0
C1864 C 0.63274 0.09789 0.37793 0.0
C1865 C 0.64861 0.12839 0.30482 0.0
C1866 C 0.64366 0.12029 0.34385 0.0
C1867 C 0.6193 0.10037 0.44774 0.0
C1868 C 0.62939 0.10647 0.41414 0.0
H1869 H 0.66663 0.16121 0.27597 0.0
H1870 H 0.66368 0.14431 0.33656 0.0
H1871 H 0.64197 0.09785 0.31549 0.0
H1872 H 0.58369 0.08549 0.45704 0.0
H1873 H 0.60323 0.09015 0.40427 0.0
C1874 C 0.60932 0.90548 0.99021 0.0
C1875 C 0.60354 0.89304 0.96742 0.0
C1876 C 0.61912 0.90304 0.0245 0.0
C1877 C 0.64418 0.87433 0.07431 0.0
H1878 H 0.62787 0.88842 0.18088 0.0
C1879 C 0.64701 0.83893 0.22287 0.0
C1880 C 0.64835 0.84566 0.26277 0.0
C1881 C 0.64636 0.84787 0.18672 0.0
C1882 C 0.63289 0.88472 0.15145 0.0
H1883 H 0.60404 0.8685 0.96073 0.0
H1884 H 0.62142 0.86429 0.01929 0.0
H1885 H 0.61794 0.89885 0.11497 0.0
H1886 H 0.65063 0.86702 0.29625 0.0
H1887 H 0.64918 0.88291 0.23235 0.0
H1888 H 0.65857 0.85965 0.11048 0.0
C1889 C 0.61838 0.87588 0.01119 0.0
C1890 C 0.62718 0.89069 0.11368 0.0
C1891 C 0.60837 0.87828 0.97778 0.0
C1892 C 0.64967 0.86157 0.26576 0.0
C1893 C 0.64876 0.87063 0.22931 0.0
C1894 C 0.64994 0.86845 0.11195 0.0
C1895 C 0.62356 0.88817 0.03563 0.0
C1896 C 0.63226 0.88499 0.07476 0.0
C1897 C 0.64686 0.86384 0.18943 0.0
C1898 C 0.64381 0.873 0.15089 0.0
H1899 H 0.60561 0.91696 0.983 0.0
H1900 H 0.62293 0.91271 0.0429 0.0
H1901 H 0.64846 0.8699 0.04475 0.0
H1902 H 0.64603 0.82668 0.21966 0.0
H1903 H 0.64466 0.84224 0.15675 0.0
C1904 C 0.5985 0.58902 0.52026 0.0
C1905 C 0.60006 0.59695 0.48214 0.0
C1906 C 0.60872 0.59149 0.55324 0.0
C1907 C 0.62129 0.60936 0.6257 0.0
H1908 H 0.66266 0.62425 0.61475 0.0
C1909 C 0.64948 0.6403 0.76325 0.0
C1910 C 0.65472 0.65486 0.75182 0.0
C1911 C 0.64668 0.62928 0.73238 0.0
C1912 C 0.65115 0.62001 0.61835 0.0
H1913 H 0.61408 0.61289 0.44743 0.0
H1914 H 0.6316 0.6177 0.50536 0.0
H1915 H 0.65056 0.61132 0.55532 0.0
H1916 H 0.66258 0.66873 0.6996 0.0
H1917 H 0.65767 0.64958 0.64599 0.0
H1918 H 0.62166 0.61844 0.68804 0.0
C1919 C 0.62275 0.60926 0.50975 0.0
C1920 C 0.64418 0.61266 0.58426 0.0
C1921 C 0.61268 0.60654 0.47642 0.0
C1922 C 0.65838 0.65768 0.70942 0.0
C1923 C 0.65568 0.64664 0.67865 0.0
C1924 C 0.62828 0.61657 0.65974 0.0
C1925 C 0.6205 0.60226 0.5492 0.0
C1926 C 0.62898 0.60766 0.58708 0.0
C1927 C 0.64919 0.63255 0.68957 0.0
C1928 C 0.64311 0.6224 0.65609 0.0
H1929 H 0.58893 0.58143 0.52529 0.0
H1930 H 0.60689 0.58553 0.58266 0.0
H1931 H 0.6095 0.60598 0.62908 0.0
H1932 H 0.64662 0.63773 0.79565 0.0
H1933 H 0.64188 0.61843 0.7418 0.0
C1934 C 0.64501 0.34106 0.77393 0.0
C1935 C 0.64664 0.34707 0.73327 0.0
C1936 C 0.64522 0.35056 0.80894 0.0
C1937 C 0.63341 0.38761 0.84143 0.0
H1938 H 0.65088 0.3741 0.9472 0.0
C1939 C 0.60868 0.40645 0.00187 0.0
C1940 C 0.60383 0.39346 0.02387 0.0
C1941 C 0.619 0.40503 0.96835 0.0
C1942 C 0.64612 0.37823 0.91787 0.0
H1943 H 0.65022 0.36768 0.6971 0.0
H1944 H 0.65 0.38463 0.75908 0.0
H1945 H 0.6604 0.36365 0.88101 0.0
H1946 H 0.60647 0.36907 0.03045 0.0
H1947 H 0.62469 0.36659 0.97313 0.0
H1948 H 0.61832 0.4013 0.87858 0.0
C1949 C 0.64883 0.37246 0.76354 0.0
C1950 C 0.65156 0.37226 0.88003 0.0
C1951 C 0.64897 0.36281 0.72825 0.0
C1952 C 0.6101 0.37924 0.01388 0.0
C1953 C 0.6206 0.37786 0.98125 0.0
C1954 C 0.62796 0.39361 0.8794 0.0
C1955 C 0.64682 0.36639 0.80419 0.0
C1956 C 0.64465 0.37622 0.84166 0.0
C1957 C 0.62484 0.39065 0.9573 0.0
C1958 C 0.63367 0.38827 0.91804 0.0
H1959 H 0.6433 0.32895 0.77866 0.0
H1960 H 0.64339 0.34556 0.83971 0.0
H1961 H 0.62784 0.39083 0.81232 0.0
H1962 H 0.60383 0.41751 0.00895 0.0
H1963 H 0.62204 0.41504 0.95027 0.0
C1964 C 0.84055 0.35321 0.24711 0.0
C1965 C 0.85281 0.35054 0.27443 0.0
C1966 C 0.84229 0.36305 0.21261 0.0
C1967 C 0.8681 0.39226 0.16605 0.0
H1968 H 0.85903 0.3725 0.05979 0.0
C1969 C 0.90612 0.39717 0.02267 0.0
C1970 C 0.90006 0.39735 0.98181 0.0
C1971 C 0.89662 0.39595 0.0576 0.0
C1972 C 0.86129 0.37842 0.08905 0.0
H1973 H 0.87618 0.35631 0.28872 0.0
H1974 H 0.87918 0.37366 0.22942 0.0
H1975 H 0.84864 0.36211 0.12507 0.0
H1976 H 0.87928 0.39692 0.9452 0.0
H1977 H 0.86243 0.39435 0.00695 0.0
H1978 H 0.88152 0.408 0.13031 0.0
C1979 C 0.86819 0.36836 0.23437 0.0
C1980 C 0.85534 0.37246 0.12652 0.0
C1981 C 0.86651 0.3584 0.26829 0.0
C1982 C 0.88419 0.39689 0.97648 0.0
C1983 C 0.8746 0.39535 0.0117 0.0
C1984 C 0.87404 0.3982 0.12868 0.0
C1985 C 0.85627 0.37046 0.20537 0.0
C1986 C 0.85928 0.37891 0.16559 0.0
C1987 C 0.88078 0.39464 0.0526 0.0
C1988 C 0.8713 0.39092 0.09 0.0
H1989 H 0.82996 0.34702 0.25102 0.0
H1990 H 0.8329 0.36445 0.19083 0.0
H1991 H 0.87111 0.39765 0.19559 0.0
H1992 H 0.91833 0.39754 0.02761 0.0
H1993 H 0.90179 0.39521 0.08849 0.0
C1994 C 0.83732 0.65547 0.27374 0.0
C1995 C 0.846 0.65345 0.23706 0.0
C1996 C 0.83866 0.64531 0.30736 0.0
C1997 C 0.85755 0.60932 0.34368 0.0
H1998 H 0.86341 0.63287 0.44567 0.0
C1999 C 0.90036 0.59396 0.47286 0.0
C2000 C 0.89797 0.59898 0.51439 0.0
C2001 C 0.88954 0.59674 0.44163 0.0
C2002 C 0.86146 0.62595 0.41796 0.0
H2003 H 0.86203 0.63865 0.20533 0.0
H2004 H 0.86479 0.62111 0.26451 0.0
H2005 H 0.85231 0.64488 0.38448 0.0
H2006 H 0.88167 0.60952 0.55656 0.0
H2007 H 0.86263 0.61427 0.50194 0.0
H2008 H 0.86756 0.59059 0.37706 0.0
C2009 C 0.85667 0.63033 0.26718 0.0
C2010 C 0.85506 0.63287 0.38259 0.0
C2011 C 0.8551 0.64038 0.23316 0.0
C2012 C 0.88389 0.60558 0.52482 0.0
C2013 C 0.87304 0.60841 0.49344 0.0
C2014 C 0.86401 0.60238 0.37918 0.0
C2015 C 0.849 0.6331 0.30543 0.0
C2016 C 0.85341 0.6248 0.34457 0.0
C2017 C 0.87604 0.60462 0.45114 0.0
C2018 C 0.86646 0.61077 0.41636 0.0
H2019 H 0.83012 0.66542 0.27734 0.0
H2020 H 0.83224 0.64756 0.3358 0.0
H2021 H 0.85623 0.60268 0.31518 0.0
H2022 H 0.91103 0.58869 0.46387 0.0
H2023 H 0.89231 0.59372 0.40947 0.0
C2024 C 0.35654 0.36243 0.23146 0.0
C2025 C 0.34644 0.35009 0.23413 0.0
C2026 C 0.35827 0.37237 0.26559 0.0
C2027 C 0.35361 0.37093 0.38127 0.0
H2028 H 0.37199 0.41098 0.37429 0.0
C2029 C 0.38292 0.3977 0.52508 0.0
C2030 C 0.39831 0.40044 0.5159 0.0
C2031 C 0.37242 0.39574 0.49223 0.0
C2032 C 0.36667 0.39989 0.37679 0.0
H2033 H 0.32911 0.33932 0.27235 0.0
H2034 H 0.33139 0.35715 0.33081 0.0
H2035 H 0.36019 0.39983 0.31182 0.0
H2036 H 0.41468 0.40439 0.46612 0.0
H2037 H 0.39639 0.40141 0.40907 0.0
H2038 H 0.36046 0.37085 0.4459 0.0
C2039 C 0.33852 0.35884 0.30339 0.0
C2040 C 0.36002 0.39342 0.34094 0.0
C2041 C 0.33706 0.34871 0.2697 0.0
C2042 C 0.40283 0.40232 0.47386 0.0
C2043 C 0.39234 0.4007 0.44124 0.0
C2044 C 0.36005 0.37748 0.41715 0.0
C2045 C 0.34973 0.37031 0.30279 0.0
C2046 C 0.35395 0.37857 0.34225 0.0
C2047 C 0.37715 0.39683 0.44994 0.0
C2048 C 0.36718 0.39176 0.4149 0.0
H2049 H 0.36404 0.36363 0.20456 0.0
H2050 H 0.36712 0.38093 0.2638 0.0
H2051 H 0.34932 0.3594 0.38377 0.0
H2052 H 0.37925 0.39607 0.55732 0.0
H2053 H 0.36077 0.39274 0.49976 0.0
C2054 C 0.35768 0.6393 0.26324 0.0
C2055 C 0.34973 0.6531 0.26065 0.0
C2056 C 0.35992 0.63044 0.22712 0.0
C2057 C 0.36246 0.63634 0.11219 0.0
H2058 H 0.3717 0.59316 0.11215 0.0
C2059 C 0.3911 0.60897 0.96916 0.0
C2060 C 0.40477 0.60162 0.97996 0.0
C2061 C 0.38022 0.61222 0.00012 0.0
C2062 C 0.36904 0.60521 0.1116 0.0
H2063 H 0.33707 0.66815 0.21973 0.0
H2064 H 0.34016 0.65232 0.15707 0.0
H2065 H 0.35944 0.60461 0.17359 0.0
H2066 H 0.41713 0.59068 0.03076 0.0
H2067 H 0.39818 0.59628 0.08452 0.0
H2068 H 0.37237 0.63704 0.05079 0.0
C2069 C 0.34511 0.64846 0.1864 0.0
C2070 C 0.36209 0.6118 0.14688 0.0
C2071 C 0.34314 0.65744 0.22232 0.0
C2072 C 0.40675 0.59646 0.02151 0.0
C2073 C 0.39584 0.59958 0.05231 0.0
C2074 C 0.36923 0.62973 0.07688 0.0
C2075 C 0.35414 0.63521 0.18784 0.0
C2076 C 0.35913 0.62756 0.14815 0.0
C2077 C 0.38274 0.60804 0.04231 0.0
C2078 C 0.37302 0.6142 0.07664 0.0
H2079 H 0.3631 0.63594 0.29244 0.0
H2080 H 0.36709 0.62045 0.22959 0.0
H2081 H 0.36068 0.64854 0.112 0.0
H2082 H 0.38922 0.61308 0.93743 0.0
H2083 H 0.37016 0.61862 0.99142 0.0
C2084 C 0.0961 0.59326 0.97814 0.0
C2085 C 0.09818 0.59864 0.01942 0.0
C2086 C 0.10703 0.59604 0.9472 0.0
C2087 C 0.1341 0.62579 0.92171 0.0
H2088 H 0.14088 0.60109 0.82224 0.0
C2089 C 0.1569 0.65353 0.77188 0.0
C2090 C 0.14847 0.65 0.73574 0.0
C2091 C 0.15585 0.64435 0.80771 0.0
C2092 C 0.13913 0.60813 0.84982 0.0
H2093 H 0.11392 0.61001 0.06153 0.0
H2094 H 0.1331 0.61491 0.00724 0.0
H2095 H 0.12999 0.58949 0.88539 0.0
H2096 H 0.13273 0.63407 0.70755 0.0
H2097 H 0.13057 0.61809 0.77028 0.0
H2098 H 0.14232 0.6446 0.88581 0.0
C2099 C 0.12292 0.60865 -0.00118 0.0
C2100 C 0.13294 0.60147 0.88603 0.0
C2101 C 0.11199 0.60575 0.02997 0.0
C2102 C 0.13955 0.63678 0.73499 0.0
C2103 C 0.13836 0.62765 0.77095 0.0
C2104 C 0.14022 0.63245 0.88555 0.0
C2105 C 0.12026 0.60435 0.95674 0.0
C2106 C 0.12986 0.61036 0.9219 0.0
C2107 C 0.14608 0.63163 0.80827 0.0
C2108 C 0.14233 0.62383 0.84865 0.0
H2109 H 0.08561 0.58764 0.96915 0.0
H2110 H 0.10453 0.59265 0.91515 0.0
H2111 H 0.13168 0.63304 0.94849 0.0
H2112 H 0.16372 0.66382 0.77307 0.0
H2113 H 0.16213 0.64762 0.83561 0.0
C2114 C 0.1604 0.34674 0.73104 0.0
C2115 C 0.15179 0.35079 0.76645 0.0
C2116 C 0.15973 0.35556 0.69443 0.0
C2117 C 0.14362 0.39142 0.64837 0.0
H2118 H 0.13583 0.36526 0.55241 0.0
C2119 C 0.09994 0.40448 0.52094 0.0
C2120 C 0.10174 0.39864 0.48006 0.0
C2121 C 0.11111 0.40215 0.55142 0.0
C2122 C 0.13836 0.37285 0.57838 0.0
H2123 H 0.13617 0.36729 0.79259 0.0
H2124 H 0.1347 0.38263 0.72854 0.0
H2125 H 0.14648 0.35447 0.6161 0.0
H2126 H 0.11718 0.38687 0.43799 0.0
H2127 H 0.13681 0.38268 0.49162 0.0
H2128 H 0.13453 0.40963 0.61106 0.0
C2129 C 0.14234 0.37295 0.72902 0.0
C2130 C 0.14449 0.36664 0.61513 0.0
C2131 C 0.14313 0.36418 0.76575 0.0
C2132 C 0.1155 0.39149 0.46927 0.0
C2133 C 0.12667 0.389 0.50004 0.0
C2134 C 0.13743 0.39763 0.61157 0.0
C2135 C 0.15018 0.36841 0.69237 0.0
C2136 C 0.14667 0.37572 0.65115 0.0
C2137 C 0.12433 0.39382 0.54185 0.0
C2138 C 0.13418 0.38828 0.57674 0.0
H2139 H 0.167 0.33631 0.73095 0.0
H2140 H 0.1661 0.35186 0.66708 0.0
H2141 H 0.14544 0.39881 0.67522 0.0
H2142 H 0.08948 0.41014 0.53003 0.0
H2143 H 0.10884 0.40591 0.58329 0.0
C2144 C 0.29929 0.16455 0.58232 0.0
C2145 C 0.30254 0.17941 0.59648 0.0
C2146 C 0.28624 0.16172 0.55791 0.0
C2147 C 0.26485 0.17994 0.478 0.0
H2148 H 0.22819 0.15762 0.5065 0.0
C2149 C 0.20798 0.19265 0.39864 0.0
C2150 C 0.1972 0.18105 0.39232 0.0
C2151 C 0.22161 0.18969 0.41962 0.0
C2152 C 0.23847 0.16361 0.49757 0.0
H2153 H 0.29396 0.2026 0.59905 0.0
H2154 H 0.27154 0.19764 0.5563 0.0
H2155 H 0.25018 0.15692 0.55421 0.0
H2156 H 0.19263 0.157 0.40172 0.0
H2157 H 0.21667 0.15177 0.43812 0.0
H2158 H 0.25337 0.18685 0.42189 0.0
C2159 C 0.27909 0.18826 0.56381 0.0
C2160 C 0.251 0.16323 0.52498 0.0
C2161 C 0.29193 0.19106 0.58834 0.0
C2162 C 0.2007 0.1662 0.40598 0.0
C2163 C 0.21441 0.16323 0.42719 0.0
C2164 C 0.25247 0.18019 0.45049 0.0
C2165 C 0.27638 0.17372 0.54728 0.0
C2166 C 0.26409 0.17179 0.51592 0.0
C2167 C 0.22493 0.17501 0.43484 0.0
C2168 C 0.23891 0.17249 0.46059 0.0
H2169 H 0.30724 0.15534 0.5879 0.0
H2170 H 0.28432 0.1504 0.54542 0.0
H2171 H 0.27491 0.18653 0.47027 0.0
H2172 H 0.2057 0.20422 0.38856 0.0
H2173 H 0.22928 0.19913 0.4254 0.0
C2174 C 0.06341 0.04192 0.85234 0.0
C2175 C 0.07374 0.05413 0.8507 0.0
C2176 C 0.0665 0.02832 0.83109 0.0
C2177 C 0.08377 0.01481 0.73629 0.0
H2178 H 0.0805 0.97442 0.78509 0.0
C2179 C 0.06671 0.95984 0.64708 0.0
C2180 C 0.07583 0.94689 0.65327 0.0
C2181 C 0.06953 0.97324 0.66956 0.0
C2182 C 0.08162 0.98563 0.77116 0.0
H2183 H 0.09553 0.0616 0.82612 0.0
H2184 H 0.1007 0.0379 0.78777 0.0
H2185 H 0.07963 0.99692 0.8309 0.0
H2186 H 0.0952 0.93783 0.68727 0.0
H2187 H 0.09984 0.96122 0.72775 0.0
H2188 H 0.08482 0.00355 0.67633 0.0
C2189 C 0.09036 0.03882 0.80621 0.0
C2190 C 0.08105 0.99846 0.79728 0.0
C2191 C 0.08745 0.05231 0.82837 0.0
C2192 C 0.08814 0.94773 0.68146 0.0
C2193 C 0.09072 0.96103 0.70481 0.0
C2194 C 0.08399 0.00199 0.71009 0.0
C2195 C 0.07981 0.0268 0.80692 0.0
C2196 C 0.08197 0.01317 0.78003 0.0
C2197 C 0.08128 0.97381 0.69948 0.0
C2198 C 0.08276 0.9873 0.72726 0.0
H2199 H 0.05273 0.04306 0.86916 0.0
H2200 H 0.05814 0.01925 0.83188 0.0
H2201 H 0.08436 0.02604 0.72222 0.0
H2202 H 0.05709 0.95945 0.62574 0.0
H2203 H 0.06203 0.9829 0.66512 0.0
C2204 C 0.2097 0.80712 0.09678 0.0
C2205 C 0.19999 0.81971 0.1024 0.0
C2206 C 0.22241 0.80819 0.07046 0.0
C2207 C 0.24992 0.83324 0.02122 0.0
H2208 H 0.24928 0.80444 0.92859 0.0
C2209 C 0.2971 0.83458 0.89594 0.0
C2210 C 0.30272 0.82041 0.88253 0.0
C2211 C 0.28338 0.83552 0.91815 0.0
C2212 C 0.2498 0.81245 0.95445 0.0
H2213 H 0.19668 0.84357 0.08735 0.0
H2214 H 0.21933 0.84556 0.0426 0.0
H2215 H 0.22905 0.80392 0.98111 0.0
H2216 H 0.29801 0.79619 0.88004 0.0
H2217 H 0.27446 0.79769 0.91971 0.0
H2218 H 0.27098 0.84134 0.9962 0.0
C2219 C 0.21686 0.83483 0.05802 0.0
C2220 C 0.23816 0.81216 0.98445 0.0
C2221 C 0.20395 0.83369 0.0837 0.0
C2222 C 0.29388 0.80732 0.88941 0.0
C2223 C 0.28032 0.80821 0.91235 0.0
C2224 C 0.26175 0.83333 0.9917 0.0
C2225 C 0.22585 0.82194 0.05 0.0
C2226 C 0.23817 0.82248 0.01821 0.0
C2227 C 0.27513 0.82226 0.9283 0.0
C2228 C 0.26192 0.82287 0.95797 0.0
H2229 H 0.20696 0.79615 0.11043 0.0
H2230 H 0.22929 0.79814 0.06504 0.0
H2231 H 0.25016 0.84128 0.04707 0.0
H2232 H 0.30368 0.84486 0.89098 0.0
H2233 H 0.27956 0.84661 0.92866 0.0
C2234 C 0.42993 0.03856 0.1314 0.0
C2235 C 0.42079 0.05122 0.14145 0.0
C2236 C 0.42805 0.02473 0.15287 0.0
C2237 C 0.418 0.0121 0.25713 0.0
H2238 H 0.41749 0.97114 0.21137 0.0
C2239 C 0.4371 0.95814 0.34719 0.0
C2240 C 0.42723 0.94555 0.3462 0.0
C2241 C 0.43403 0.97108 0.32306 0.0
C2242 C 0.41749 0.98253 0.2245 0.0
H2243 H 0.40161 0.05875 0.17942 0.0
H2244 H 0.39861 0.0348 0.21698 0.0
H2245 H 0.41602 0.99313 0.1636 0.0
H2246 H 0.40629 0.9367 0.31959 0.0
H2247 H 0.40112 0.9593 0.27639 0.0
H2248 H 0.42015 0.00158 0.31778 0.0
C2249 C 0.40726 0.03562 0.19275 0.0
C2250 C 0.41674 0.99506 0.19723 0.0
C2251 C 0.40897 0.04933 0.17099 0.0
C2252 C 0.41399 0.94632 0.32137 0.0
C2253 C 0.41111 0.95915 0.2964 0.0
C2254 C 0.41906 0.99961 0.28424 0.0
C2255 C 0.41711 0.02338 0.18497 0.0
C2256 C 0.41703 0.00996 0.21333 0.0
C2257 C 0.42121 0.97156 0.29668 0.0
C2258 C 0.41889 0.98472 0.26818 0.0
H2259 H 0.43911 0.03957 0.10881 0.0
H2260 H 0.43579 0.01542 0.14628 0.0
H2261 H 0.41841 0.02347 0.27033 0.0
H2262 H 0.44742 0.95781 0.36589 0.0
H2263 H 0.44202 0.98049 0.32367 0.0
C2264 C 0.80221 0.84057 0.57224 0.0
C2265 C 0.80419 0.829 0.60247 0.0
C2266 C 0.78863 0.84177 0.54966 0.0
C2267 C 0.74833 0.83131 0.54592 0.0
H2268 H 0.75418 0.83061 0.42472 0.0
C2269 C 0.70967 0.8167 0.3927 0.0
C2270 C 0.69696 0.82601 0.40075 0.0
C2271 C 0.72318 0.81867 0.41552 0.0
C2272 C 0.7524 0.83084 0.45846 0.0
H2273 H 0.79286 0.81047 0.63512 0.0
H2274 H 0.76893 0.81288 0.59622 0.0
H2275 H 0.77633 0.83142 0.4715 0.0
H2276 H 0.6889 0.84533 0.43734 0.0
H2277 H 0.71234 0.84856 0.47711 0.0
H2278 H 0.72439 0.83072 0.53285 0.0
C2279 C 0.77807 0.82084 0.58972 0.0
C2280 C 0.76503 0.83141 0.48521 0.0
C2281 C 0.79176 0.81949 0.61204 0.0
C2282 C 0.69841 0.8379 0.43027 0.0
C2283 C 0.71179 0.8397 0.45341 0.0
C2284 C 0.73569 0.831 0.51915 0.0
C2285 C 0.77662 0.83161 0.55722 0.0
C2286 C 0.76312 0.83158 0.52919 0.0
C2287 C 0.72415 0.82985 0.4471 0.0
C2288 C 0.73761 0.83068 0.47517 0.0
H2289 H 0.81146 0.84819 0.56413 0.0
H2290 H 0.78771 0.85035 0.52526 0.0
H2291 H 0.74655 0.83143 0.57967 0.0
H2292 H 0.70897 0.80744 0.37024 0.0
H2293 H 0.73258 0.81094 0.41001 0.0
C2294 C 0.93426 0.96088 0.14113 0.0
C2295 C 0.92575 0.94764 0.14896 0.0
C2296 C 0.93139 0.97424 0.16374 0.0
C2297 C 0.92135 0.98568 0.26768 0.0
H2298 H 0.9171 0.02646 0.2221 0.0
C2299 C 0.94081 0.04156 0.34901 0.0
C2300 C 0.93022 0.05355 0.35035 0.0
C2301 C 0.93743 0.02809 0.32741 0.0
C2302 C 0.91812 0.01512 0.23525 0.0
H2303 H 0.90729 0.93805 0.1857 0.0
H2304 H 0.90256 0.96137 0.22621 0.0
H2305 H 0.91582 0.00437 0.17482 0.0
H2306 H 0.90769 0.06074 0.33076 0.0
H2307 H 0.90199 0.03731 0.29184 0.0
H2308 H 0.92461 0.99646 0.32769 0.0
C2309 C 0.91123 0.96145 0.20194 0.0
C2310 C 0.91743 0.00253 0.20825 0.0
C2311 C 0.91384 0.94818 0.17851 0.0
C2312 C 0.91599 0.05162 0.33074 0.0
C2313 C 0.91277 0.03829 0.30822 0.0
C2314 C 0.9224 0.99828 0.29451 0.0
C2315 C 0.92023 0.97447 0.19539 0.0
C2316 C 0.91918 0.98771 0.22419 0.0
C2317 C 0.92355 0.02651 0.30587 0.0
C2318 C 0.92094 0.01311 0.27846 0.0
H2319 H 0.9436 0.96069 0.11884 0.0
H2320 H 0.93855 0.9841 0.15834 0.0
H2321 H 0.92291 0.97437 0.28063 0.0
H2322 H 0.95189 0.04278 0.36364 0.0
H2323 H 0.94596 0.0192 0.32582 0.0
C2324 C 0.79358 0.1863 0.89483 0.0
C2325 C 0.8062 0.17659 0.89919 0.0
C2326 C 0.78019 0.18358 0.91744 0.0
C2327 C 0.76732 0.16814 0.01688 0.0
H2328 H 0.72696 0.17009 0.96767 0.0
C2329 C 0.69994 0.16099 0.06643 0.0
C2330 C 0.69845 0.1721 0.09814 0.0
C2331 C 0.71355 0.15944 0.04405 0.0
C2332 C 0.73816 0.16941 0.98183 0.0
H2333 H 0.81456 0.15619 0.92997 0.0
H2334 H 0.79119 0.1516 0.9702 0.0
H2335 H 0.74939 0.17109 0.92202 0.0
H2336 H 0.71055 0.18954 0.13312 0.0
H2337 H 0.73449 0.18654 0.09448 0.0
H2338 H 0.75606 0.16702 0.07685 0.0
C2339 C 0.79167 0.16123 0.9489 0.0
C2340 C 0.75097 0.17005 0.95573 0.0
C2341 C 0.80497 0.16377 0.92555 0.0
C2342 C 0.71128 0.18089 0.10886 0.0
C2343 C 0.72499 0.17917 0.08678 0.0
C2344 C 0.7545 0.16778 0.04309 0.0
C2345 C 0.77925 0.17126 0.94557 0.0
C2346 C 0.76568 0.16949 0.97298 0.0
C2347 C 0.72609 0.16877 0.05325 0.0
C2348 C 0.73979 0.16846 0.02581 0.0
H2349 H 0.79424 0.1963 0.87491 0.0
H2350 H 0.77082 0.19153 0.91442 0.0
H2351 H 0.77855 0.16784 0.031 0.0
H2352 H 0.69036 0.15396 0.05729 0.0
H2353 H 0.71415 0.15119 0.01872 0.0
C2354 C 0.5552 0.04869 0.68504 0.0
C2355 C 0.56658 0.05568 0.66044 0.0
C2356 C 0.55875 0.03678 0.71233 0.0
C2357 C 0.58498 0.00582 0.7331 0.0
H2358 H 0.56928 0.00878 0.84702 0.0
C2359 C 0.59126 0.9555 0.84759 0.0
C2360 C 0.57795 0.95164 0.86982 0.0
C2361 C 0.59259 0.96967 0.8277 0.0
C2362 C 0.57368 0.0077 0.81532 0.0
H2363 H 0.59056 0.05505 0.64419 0.0
H2364 H 0.59667 0.03372 0.6914 0.0
H2365 H 0.5661 0.03009 0.79853 0.0
H2366 H 0.5561 0.96016 0.89128 0.0
H2367 H 0.55827 0.98462 0.85626 0.0
H2368 H 0.59185 0.98317 0.74887 0.0
C2369 C 0.58503 0.03777 0.68967 0.0
C2370 C 0.57191 0.01994 0.7876 0.0
C2371 C 0.58153 0.04994 0.66262 0.0
C2372 C 0.56655 0.96274 0.87462 0.0
C2373 C 0.56782 0.97684 0.8544 0.0
C2374 C 0.58659 0.99347 0.76067 0.0
C2375 C 0.57371 0.03133 0.71547 0.0
C2376 C 0.57724 0.019 0.74596 0.0
C2377 C 0.58059 0.98027 0.82929 0.0
C2378 C 0.58067 0.99412 0.80192 0.0
H2379 H 0.54355 0.05273 0.68431 0.0
H2380 H 0.54974 0.03184 0.73125 0.0
H2381 H 0.58912 0.00477 0.7011 0.0
H2382 H 0.60032 0.94726 0.84355 0.0
H2383 H 0.60278 0.97204 0.80965 0.0
C2384 C 0.79612 0.69523 0.07724 0.0
C2385 C 0.8047 0.68328 0.09483 0.0
C2386 C 0.78363 0.69221 0.05152 0.0
C2387 C 0.75362 0.66632 0.02341 0.0
H2388 H 0.75613 0.68644 0.91483 0.0
C2389 C 0.70286 0.66692 0.90532 0.0
C2390 C 0.69957 0.68154 0.88963 0.0
C2391 C 0.71667 0.6641 0.92629 0.0
C2392 C 0.75521 0.68074 0.94498 0.0
H2393 H 0.80614 0.6587 0.10113 0.0
H2394 H 0.78381 0.65346 0.05662 0.0
H2395 H 0.77778 0.68732 0.9627 0.0
H2396 H 0.70848 0.70439 0.88165 0.0
H2397 H 0.73229 0.69956 0.9177 0.0
H2398 H 0.73068 0.66049 0.00661 0.0
C2399 C 0.78708 0.66516 0.06257 0.0
C2400 C 0.76764 0.68121 0.9723 0.0
C2401 C 0.79982 0.66818 0.08807 0.0
C2402 C 0.71065 0.69301 0.89337 0.0
C2403 C 0.72438 0.69019 0.91391 0.0
C2404 C 0.74105 0.66599 0.99613 0.0
C2405 C 0.7792 0.67718 0.04307 0.0
C2406 C 0.76681 0.67442 0.01225 0.0
C2407 C 0.72749 0.67581 0.93142 0.0
C2408 C 0.74153 0.67365 0.95714 0.0
H2409 H 0.79938 0.70701 0.0819 0.0
H2410 H 0.77758 0.70169 0.03742 0.0
H2411 H 0.75273 0.66101 0.0541 0.0
H2412 H 0.69451 0.65788 0.90317 0.0
H2413 H 0.71875 0.65287 0.93914 0.0
C2414 C 0.59062 0.44808 0.1676 0.0
C2415 C 0.57826 0.44603 0.13991 0.0
C2416 C 0.5927 0.46187 0.18868 0.0
C2417 C 0.58287 0.50245 0.19317 0.0
H2418 H 0.5835 0.4966 0.31433 0.0
C2419 C 0.58785 0.55229 0.31312 0.0
C2420 C 0.57542 0.55277 0.34095 0.0
C2421 C 0.59053 0.53929 0.28861 0.0
C2422 C 0.58348 0.49839 0.28058 0.0
H2423 H 0.55921 0.45744 0.10995 0.0
H2424 H 0.5631 0.48173 0.14638 0.0
H2425 H 0.58408 0.47447 0.2676 0.0
H2426 H 0.5565 0.53993 0.36651 0.0
H2427 H 0.56162 0.51698 0.32518 0.0
H2428 H 0.58211 0.52643 0.20643 0.0
C2429 C 0.57103 0.4725 0.15197 0.0
C2430 C 0.58387 0.48576 0.25384 0.0
C2431 C 0.56882 0.45859 0.13111 0.0
C2432 C 0.56625 0.53977 0.34557 0.0
C2433 C 0.56915 0.52668 0.32189 0.0
C2434 C 0.58277 0.51513 0.21999 0.0
C2435 C 0.58264 0.47404 0.18218 0.0
C2436 C 0.58335 0.48764 0.20989 0.0
C2437 C 0.58104 0.52647 0.29234 0.0
C2438 C 0.58284 0.51318 0.26395 0.0
H2439 H 0.59825 0.43875 0.17488 0.0
H2440 H 0.60188 0.46283 0.21133 0.0
H2441 H 0.58247 0.50421 0.15943 0.0
H2442 H 0.59492 0.56226 0.30844 0.0
H2443 H 0.5998 0.53936 0.2661 0.0
C2444 C 0.70003 0.33696 0.58902 0.0
C2445 C 0.69725 0.32396 0.61383 0.0
C2446 C 0.71373 0.3386 0.56726 0.0
C2447 C 0.73641 0.33022 0.49843 0.0
H2448 H 0.77709 0.32474 0.54323 0.0
C2449 C 0.79034 0.31759 0.39773 0.0
C2450 C 0.80357 0.32576 0.40843 0.0
C2451 C 0.77712 0.31896 0.42214 0.0
C2452 C 0.76578 0.32637 0.53037 0.0
H2453 H 0.70735 0.30322 0.63836 0.0
H2454 H 0.73153 0.30634 0.60095 0.0
H2455 H 0.75516 0.32426 0.591 0.0
H2456 H 0.81291 0.34246 0.45192 0.0
H2457 H 0.78996 0.34464 0.49439 0.0
H2458 H 0.74697 0.33196 0.43771 0.0
C2459 C 0.72292 0.3151 0.59798 0.0
C2460 C 0.75327 0.326 0.55764 0.0
C2461 C 0.70909 0.31335 0.61951 0.0
C2462 C 0.80297 0.33595 0.44265 0.0
C2463 C 0.78987 0.33713 0.46732 0.0
C2464 C 0.74888 0.33032 0.4711 0.0
C2465 C 0.72508 0.32742 0.57029 0.0
C2466 C 0.73847 0.328 0.54193 0.0
C2467 C 0.77696 0.32837 0.45796 0.0
C2468 C 0.76369 0.32845 0.48682 0.0
H2469 H 0.69126 0.34546 0.58427 0.0
H2470 H 0.71523 0.34835 0.54675 0.0
H2471 H 0.72509 0.3316 0.48544 0.0
H2472 H 0.79039 0.30965 0.37164 0.0
H2473 H 0.76729 0.31209 0.41423 0.0
C2474 C 0.91069 0.55411 0.67907 0.0
C2475 C 0.92394 0.55504 0.65434 0.0
C2476 C 0.90766 0.54101 0.70281 0.0
C2477 C 0.91578 0.50033 0.7122 0.0
H2478 H 0.91245 0.50593 0.8331 0.0
C2479 C 0.92764 0.4612 0.86441 0.0
C2480 C 0.9193 0.44809 0.85341 0.0
C2481 C 0.92522 0.47498 0.84316 0.0
C2482 C 0.91324 0.50423 0.79939 0.0
H2483 H 0.94398 0.54282 0.63339 0.0
H2484 H 0.93835 0.51971 0.67346 0.0
H2485 H 0.91354 0.52825 0.78655 0.0
H2486 H 0.901 0.43963 0.81372 0.0
H2487 H 0.89702 0.46354 0.7766 0.0
H2488 H 0.9157 0.47638 0.72484 0.0
C2489 C 0.93044 0.52916 0.67493 0.0
C2490 C 0.91377 0.51696 0.7728 0.0
C2491 C 0.93365 0.54236 0.65202 0.0
C2492 C 0.90774 0.44942 0.82292 0.0
C2493 C 0.90547 0.4631 0.8014 0.0
C2494 C 0.91497 0.48764 0.73865 0.0
C2495 C 0.91764 0.5285 0.70137 0.0
C2496 C 0.91532 0.5151 0.72903 0.0
C2497 C 0.91453 0.47586 0.81031 0.0
C2498 C 0.91394 0.48945 0.78255 0.0
H2499 H 0.90313 0.56381 0.68188 0.0
H2500 H 0.89769 0.54073 0.72289 0.0
H2501 H 0.91699 0.49861 0.67859 0.0
H2502 H 0.93659 0.46062 0.8878 0.0
H2503 H 0.93237 0.48466 0.85063 0.0
C2504 C 0.20957 0.31648 0.89107 0.0
C2505 C 0.19753 0.3268 0.89694 0.0
C2506 C 0.22373 0.31907 0.90983 0.0
C2507 C 0.24059 0.33918 0.00069 0.0
H2508 H 0.27805 0.32347 0.95295 0.0
C2509 C 0.30026 0.33693 0.08597 0.0
C2510 C 0.30612 0.322 0.08641 0.0
C2511 C 0.28739 0.34047 0.06153 0.0
C2512 C 0.26769 0.32804 0.96651 0.0
H2513 H 0.1913 0.34849 0.92485 0.0
H2514 H 0.2161 0.35316 0.95677 0.0
H2515 H 0.25523 0.32483 0.9094 0.0
H2516 H 0.30273 0.29907 0.06207 0.0
H2517 H 0.28076 0.30534 0.0196 0.0
H2518 H 0.25321 0.34212 0.05811 0.0
C2519 C 0.21448 0.34286 0.93854 0.0
C2520 C 0.25459 0.32873 0.9417 0.0
C2521 C 0.20028 0.34023 0.91992 0.0
C2522 C 0.29865 0.31071 0.06265 0.0
C2523 C 0.28608 0.31429 0.03794 0.0
C2524 C 0.2538 0.33865 0.02541 0.0
C2525 C 0.22627 0.33212 0.93469 0.0
C2526 C 0.24073 0.33379 0.95887 0.0
C2527 C 0.28043 0.3292 0.03663 0.0
C2528 C 0.26731 0.33258 0.0089 0.0
H2529 H 0.20789 0.306 0.87367 0.0
H2530 H 0.23244 0.31043 0.9065 0.0
H2531 H 0.23012 0.34303 0.01516 0.0
H2532 H 0.30574 0.34588 0.10388 0.0
H2533 H 0.28314 0.35205 0.06115 0.0
C2534 C 0.4108 0.45054 0.67286 0.0
C2535 C 0.42216 0.44918 0.64179 0.0
C2536 C 0.4088 0.46419 0.69474 0.0
C2537 C 0.41843 0.4886 0.75748 0.0
H2538 H 0.41782 0.52926 0.70976 0.0
C2539 C 0.43794 0.54282 0.84485 0.0
C2540 C 0.42872 0.55584 0.84175 0.0
C2541 C 0.4344 0.52968 0.82208 0.0
C2542 C 0.41781 0.51796 0.72347 0.0
H2543 H 0.43942 0.4616 0.60697 0.0
H2544 H 0.4357 0.48557 0.64486 0.0
H2545 H 0.41643 0.50702 0.6631 0.0
H2546 H 0.40842 0.56527 0.81305 0.0
H2547 H 0.40239 0.54227 0.77237 0.0
H2548 H 0.42047 0.49949 0.81764 0.0
C2549 C 0.42848 0.47595 0.65245 0.0
C2550 C 0.41713 0.50527 0.69681 0.0
C2551 C 0.43061 0.46221 0.63078 0.0
C2552 C 0.41559 0.55531 0.81649 0.0
C2553 C 0.41223 0.54224 0.79291 0.0
C2554 C 0.41938 0.50126 0.78401 0.0
C2555 C 0.41795 0.47688 0.68571 0.0
C2556 C 0.41754 0.49046 0.71356 0.0
C2557 C 0.42176 0.5294 0.79502 0.0
C2558 C 0.41922 0.51606 0.76726 0.0
H2559 H 0.40397 0.44081 0.68203 0.0
H2560 H 0.40045 0.46466 0.71981 0.0
H2561 H 0.41894 0.47732 0.77126 0.0
H2562 H 0.44818 0.54298 0.86387 0.0
H2563 H 0.44198 0.51997 0.82408 0.0
C2564 C 0.29045 0.68371 0.39129 0.0
C2565 C 0.30331 0.67478 0.40074 0.0
C2566 C 0.27689 0.68187 0.41396 0.0
C2567 C 0.26385 0.67023 0.5184 0.0
H2568 H 0.22354 0.67052 0.46875 0.0
C2569 C 0.1966 0.66286 0.56906 0.0
C2570 C 0.1952 0.67403 0.60068 0.0
C2571 C 0.2101 0.66134 0.54618 0.0
C2572 C 0.23473 0.67032 0.48307 0.0
H2573 H 0.3116 0.65627 0.43998 0.0
H2574 H 0.28803 0.65319 0.47942 0.0
H2575 H 0.24598 0.67065 0.42311 0.0
H2576 H 0.20738 0.69164 0.63479 0.0
H2577 H 0.2311 0.68873 0.59524 0.0
H2578 H 0.25259 0.6702 0.57837 0.0
C2579 C 0.28851 0.6617 0.45475 0.0
C2580 C 0.24756 0.6705 0.45693 0.0
C2581 C 0.30198 0.66341 0.43181 0.0
C2582 C 0.20802 0.68294 0.61068 0.0
C2583 C 0.22162 0.68128 0.58801 0.0
C2584 C 0.25102 0.67025 0.54454 0.0
C2585 C 0.27594 0.67116 0.44681 0.0
C2586 C 0.26226 0.67046 0.47431 0.0
C2587 C 0.22262 0.67079 0.55465 0.0
C2588 C 0.23632 0.6703 0.52716 0.0
H2589 H 0.29105 0.69257 0.36759 0.0
H2590 H 0.26739 0.68934 0.40716 0.0
H2591 H 0.27505 0.67036 0.53272 0.0
H2592 H 0.18701 0.65575 0.56048 0.0
H2593 H 0.21062 0.65299 0.52111 0.0
C2594 C 0.06511 0.45937 0.36141 0.0
C2595 C 0.07452 0.44658 0.35579 0.0
C2596 C 0.06786 0.47283 0.33909 0.0
C2597 C 0.08103 0.48497 0.23768 0.0
H2598 H 0.08095 0.52583 0.28425 0.0
C2599 C 0.0623 0.53966 0.14934 0.0
C2600 C 0.07187 0.55245 0.15244 0.0
C2601 C 0.06554 0.52637 0.17192 0.0
C2602 C 0.08115 0.51448 0.27086 0.0
H2603 H 0.09448 0.43803 0.32332 0.0
H2604 H 0.09904 0.46149 0.2834 0.0
H2605 H 0.08149 0.50375 0.33164 0.0
H2606 H 0.09251 0.56123 0.18097 0.0
H2607 H 0.09792 0.53807 0.22145 0.0
H2608 H 0.07981 0.49569 0.17699 0.0
C2609 C 0.08969 0.46111 0.30562 0.0
C2610 C 0.0814 0.50189 0.29792 0.0
C2611 C 0.08715 0.44775 0.32873 0.0
C2612 C 0.08504 0.55149 0.17751 0.0
C2613 C 0.08807 0.53831 0.20093 0.0
C2614 C 0.08044 0.49756 0.21066 0.0
C2615 C 0.07987 0.47365 0.30996 0.0
C2616 C 0.0812 0.48702 0.28158 0.0
C2617 C 0.07821 0.52573 0.19885 0.0
C2618 C 0.08036 0.51242 0.22702 0.0
H2619 H 0.05525 0.45876 0.38187 0.0
H2620 H 0.06008 0.48231 0.34283 0.0
H2621 H 0.08071 0.47362 0.22431 0.0
H2622 H 0.05204 0.54012 0.13046 0.0
H2623 H 0.05771 0.51686 0.16998 0.0
C2624 C 0.07052 0.34235 0.38894 0.0
C2625 C 0.07743 0.35455 0.36768 0.0
C2626 C 0.07416 0.32732 0.37874 0.0
C2627 C 0.09476 0.30326 0.29948 0.0
H2628 H 0.09692 0.27498 0.39317 0.0
C2629 C 0.13153 0.2488 0.30353 0.0
C2630 C 0.12491 0.23541 0.31945 0.0
C2631 C 0.12351 0.26251 0.30407 0.0
C2632 C 0.09613 0.28268 0.36658 0.0
H2633 H 0.09336 0.36064 0.31847 0.0
H2634 H 0.10039 0.33441 0.30192 0.0
H2635 H 0.08759 0.30069 0.40488 0.0
H2636 H 0.10464 0.22568 0.34738 0.0
H2637 H 0.09068 0.24998 0.34971 0.0
H2638 H 0.1043 0.28529 0.26199 0.0
C2639 C 0.09176 0.33636 0.32565 0.0
C2640 C 0.09073 0.29746 0.37316 0.0
C2641 C 0.08783 0.35143 0.33527 0.0
C2642 C 0.10994 0.23587 0.33484 0.0
C2643 C 0.10201 0.24972 0.3363 0.0
C2644 C 0.10043 0.28854 0.29312 0.0
C2645 C 0.08512 0.32408 0.34767 0.0
C2646 C 0.09008 0.30803 0.33981 0.0
C2647 C 0.10882 0.26319 0.32134 0.0
C2648 C 0.10129 0.27817 0.32671 0.0
H2649 H 0.06225 0.34444 0.4136 0.0
H2650 H 0.06843 0.31826 0.39558 0.0
H2651 H 0.09416 0.3109 0.27279 0.0
H2652 H 0.14304 0.24871 0.29119 0.0
H2653 H 0.12907 0.27273 0.29264 0.0
C2654 C 0.91054 0.81933 0.61213 0.0
C2655 C 0.89856 0.82987 0.60803 0.0
C2656 C 0.92551 0.82352 0.60244 0.0
C2657 C 0.94838 0.85339 0.54814 0.0
H2658 H 0.98001 0.84117 0.62641 0.0
C2659 C 0.00382 0.88678 0.56978 0.0
C2660 C 0.01761 0.87879 0.57386 0.0
C2661 C 0.98999 0.87903 0.56829 0.0
C2662 C 0.97136 0.84446 0.60386 0.0
H2663 H 0.89292 0.85299 0.58959 0.0
H2664 H 0.91896 0.86037 0.57356 0.0
H2665 H 0.95432 0.83094 0.63426 0.0
H2666 H 0.02772 0.85635 0.57921 0.0
H2667 H 0.00329 0.8427 0.57741 0.0
H2668 H 0.96532 0.86741 0.51892 0.0
C2669 C 0.91681 0.84877 0.58356 0.0
C2670 C 0.95663 0.8386 0.6083 0.0
C2671 C 0.90185 0.84457 0.59304 0.0
C2672 C 0.01727 0.8628 0.57598 0.0
C2673 C 0.00332 0.85501 0.57511 0.0
C2674 C 0.96306 0.85933 0.54394 0.0
C2675 C 0.92886 0.83836 0.58853 0.0
C2676 C 0.94487 0.84326 0.58106 0.0
C2677 C 0.98955 0.86308 0.5713 0.0
C2678 C 0.97462 0.85518 0.57231 0.0
H2679 H 0.9084 0.80786 0.62326 0.0
H2680 H 0.93446 0.81515 0.60604 0.0
H2681 H 0.93972 0.85696 0.526 0.0
H2682 H 0.00367 0.89911 0.56783 0.0
H2683 H 0.97957 0.88557 0.56588 0.0
C2684 C 0.37391 0.75816 0.89822 0.0
C2685 C 0.37523 0.767 0.86156 0.0
C2686 C 0.38048 0.74365 0.90025 0.0
C2687 C 0.40826 0.71804 0.84553 0.0
H2688 H 0.38668 0.68669 0.90748 0.0
C2689 C 0.4236 0.65324 0.84133 0.0
C2690 C 0.42509 0.64655 0.88135 0.0
C2691 C 0.41776 0.66804 0.83721 0.0
C2692 C 0.39284 0.69535 0.89011 0.0
H2693 H 0.38452 0.76754 0.79825 0.0
H2694 H 0.39549 0.74219 0.80122 0.0
H2695 H 0.37622 0.71235 0.90431 0.0
H2696 H 0.4215 0.65014 0.94832 0.0
H2697 H 0.41114 0.67566 0.94089 0.0
H2698 H 0.42468 0.70073 0.83064 0.0
C2699 C 0.38979 0.74653 0.82897 0.0
C2700 C 0.38693 0.71012 0.88857 0.0
C2701 C 0.38343 0.7611 0.8272 0.0
C2702 C 0.42059 0.65494 0.91699 0.0
C2703 C 0.41455 0.66954 0.91281 0.0
C2704 C 0.41405 0.70319 0.84659 0.0
C2705 C 0.38832 0.73753 0.86539 0.0
C2706 C 0.39462 0.72173 0.86662 0.0
C2707 C 0.41304 0.67625 0.87295 0.0
C2708 C 0.40647 0.69175 0.86927 0.0
H2709 H 0.36775 0.76242 0.92532 0.0
H2710 H 0.37939 0.73723 0.9292 0.0
H2711 H 0.41465 0.72668 0.82881 0.0
H2712 H 0.42699 0.64707 0.81332 0.0
H2713 H 0.41667 0.67298 0.80609 0.0
C2714 C 0.59266 0.17447 0.15528 0.0
C2715 C 0.60483 0.16604 0.13837 0.0
C2716 C 0.57789 0.16854 0.15535 0.0
C2717 C 0.55666 0.1321 0.14706 0.0
H2718 H 0.52238 0.15863 0.12415 0.0
C2719 C 0.4896 0.12749 0.09673 0.0
C2720 C 0.48442 0.11598 0.12404 0.0
C2721 C 0.50405 0.13381 0.10155 0.0
C2722 C 0.53183 0.15104 0.13046 0.0
H2723 H 0.61088 0.14486 0.10734 0.0
H2724 H 0.58507 0.13468 0.10662 0.0
H2725 H 0.54803 0.16907 0.12421 0.0
H2726 H 0.49038 0.1023 0.17846 0.0
H2727 H 0.51571 0.11353 0.18721 0.0
H2728 H 0.54043 0.11396 0.15184 0.0
C2729 C 0.58701 0.14575 0.1207 0.0
C2730 C 0.54654 0.15707 0.13095 0.0
C2731 C 0.6018 0.15166 0.12075 0.0
C2732 C 0.49402 0.11111 0.15682 0.0
C2733 C 0.50856 0.11748 0.16167 0.0
C2734 C 0.54192 0.12606 0.14647 0.0
C2735 C 0.57488 0.15405 0.13834 0.0
C2736 C 0.55917 0.14766 0.13889 0.0
C2737 C 0.51376 0.12888 0.13393 0.0
C2738 C 0.52933 0.13543 0.13769 0.0
H2739 H 0.59457 0.18556 0.16929 0.0
H2740 H 0.56888 0.17519 0.1696 0.0
H2741 H 0.5661 0.12457 0.15395 0.0
H2742 H 0.48257 0.13154 0.07105 0.0
H2743 H 0.50774 0.14236 0.07917 0.0
C2744 C 0.07301 0.65555 0.09605 0.0
C2745 C 0.07726 0.64382 0.12378 0.0
C2746 C 0.07898 0.67018 0.10044 0.0
C2747 C 0.09976 0.69596 0.17329 0.0
H2748 H 0.11009 0.71665 0.06919 0.0
C2749 C 0.11951 0.75882 0.17055 0.0
C2750 C 0.13114 0.76285 0.14218 0.0
C2751 C 0.1127 0.74443 0.16878 0.0
C2752 C 0.10742 0.71102 0.09862 0.0
H2753 H 0.09075 0.63841 0.17891 0.0
H2754 H 0.10148 0.66403 0.18623 0.0
H2755 H 0.09897 0.69135 0.06672 0.0
H2756 H 0.1446 0.75486 0.08933 0.0
H2757 H 0.13293 0.72971 0.08665 0.0
H2758 H 0.10872 0.7155 0.20516 0.0
C2759 C 0.09334 0.66191 0.1613 0.0
C2760 C 0.10081 0.69655 0.0972 0.0
C2761 C 0.08722 0.64722 0.15711 0.0
C2762 C 0.13563 0.75219 0.11156 0.0
C2763 C 0.12888 0.73776 0.10994 0.0
C2764 C 0.10645 0.71044 0.17471 0.0
C2765 C 0.08952 0.6735 0.13244 0.0
C2766 C 0.09679 0.68885 0.13448 0.0
C2767 C 0.11739 0.73364 0.13871 0.0
C2768 C 0.11033 0.71818 0.13736 0.0
H2769 H 0.06517 0.65336 0.0704 0.0
H2770 H 0.07541 0.67888 0.07837 0.0
H2771 H 0.09674 0.69044 0.20261 0.0
H2772 H 0.11569 0.76676 0.19442 0.0
H2773 H 0.1037 0.74179 0.19092 0.0
C2774 C 0.49842 0.88518 0.43053 0.0
C2775 C 0.48458 0.87731 0.42647 0.0
C2776 C 0.51221 0.87753 0.42683 0.0
C2777 C 0.53116 0.84021 0.4281 0.0
H2778 H 0.56092 0.86202 0.36079 0.0
C2779 C 0.5908 0.81662 0.37748 0.0
C2780 C 0.60295 0.82696 0.3823 0.0
C2781 C 0.57577 0.82133 0.38432 0.0
C2782 C 0.55277 0.85583 0.37985 0.0
H2783 H 0.47427 0.85513 0.4174 0.0
H2784 H 0.49867 0.84162 0.41023 0.0
H2785 H 0.53557 0.87258 0.36981 0.0
H2786 H 0.60883 0.85013 0.39982 0.0
H2787 H 0.58272 0.85827 0.41143 0.0
H2788 H 0.5486 0.8234 0.43783 0.0
C2789 C 0.49873 0.85374 0.41653 0.0
C2790 C 0.53825 0.86187 0.38508 0.0
C2791 C 0.4848 0.86145 0.4206 0.0
C2792 C 0.59978 0.8419 0.39545 0.0
C2793 C 0.58481 0.8466 0.40196 0.0
C2794 C 0.54577 0.83408 0.42263 0.0
C2795 C 0.51256 0.86183 0.4185 0.0
C2796 C 0.5274 0.85436 0.41013 0.0
C2797 C 0.57264 0.83646 0.39573 0.0
C2798 C 0.55679 0.84205 0.39925 0.0
H2799 H 0.49864 0.89737 0.43593 0.0
H2800 H 0.52266 0.88401 0.42977 0.0
H2801 H 0.52302 0.83417 0.44753 0.0
H2802 H 0.59287 0.80499 0.36766 0.0
H2803 H 0.56659 0.8133 0.37929 0.0
C2804 C 0.39068 0.23588 0.65039 0.0
C2805 C 0.37478 0.23595 0.65575 0.0
C2806 C 0.39885 0.24962 0.6503 0.0
C2807 C 0.39668 0.28928 0.68673 0.0
H2808 H 0.42166 0.29948 0.5901 0.0
C2809 C 0.40965 0.35116 0.64229 0.0
C2810 C 0.42371 0.35487 0.62379 0.0
C2811 C 0.40587 0.33602 0.65064 0.0
C2812 C 0.415 0.29674 0.61777 0.0
H2813 H 0.35507 0.25039 0.66621 0.0
H2814 H 0.36929 0.27411 0.6667 0.0
H2815 H 0.41138 0.27373 0.59719 0.0
H2816 H 0.44503 0.34553 0.60078 0.0
H2817 H 0.43848 0.31906 0.61598 0.0
H2818 H 0.40006 0.31221 0.70725 0.0
C2819 C 0.37544 0.26353 0.66239 0.0
C2820 C 0.40911 0.28198 0.62175 0.0
C2821 C 0.36729 0.24993 0.66174 0.0
C2822 C 0.43405 0.34307 0.61478 0.0
C2823 C 0.43027 0.32788 0.62332 0.0
C2824 C 0.40266 0.30395 0.68299 0.0
C2825 C 0.39127 0.26355 0.65652 0.0
C2826 C 0.39953 0.27827 0.65563 0.0
C2827 C 0.41607 0.32416 0.64101 0.0
C2828 C 0.4115 0.30801 0.6478 0.0
H2829 H 0.39674 0.22527 0.64563 0.0
H2830 H 0.41107 0.24936 0.64568 0.0
H2831 H 0.3895 0.28663 0.71349 0.0
H2832 H 0.40139 0.35993 0.64956 0.0
H2833 H 0.39471 0.33359 0.66356 0.0
C2834 C 0.91006 0.17705 0.85519 0.0
C2835 C 0.89786 0.17274 0.88126 0.0
C2836 C 0.92497 0.17288 0.86525 0.0
C2837 C 0.94594 0.14283 0.91685 0.0
H2838 H 0.98045 0.17031 0.91043 0.0
C2839 C 0.0062 0.12031 0.94527 0.0
C2840 C 0.01786 0.12595 0.91947 0.0
C2841 C 0.99208 0.12754 0.94657 0.0
C2842 C 0.97098 0.16244 0.91192 0.0
H2843 H 0.89174 0.16099 0.93889 0.0
H2844 H 0.91786 0.15335 0.95594 0.0
H2845 H 0.95465 0.18024 0.90147 0.0
H2846 H 0.02427 0.14361 0.87554 0.0
H2847 H 0.99928 0.15599 0.87601 0.0
H2848 H 0.96201 0.12489 0.92494 0.0
C2849 C 0.91582 0.16006 0.92787 0.0
C2850 C 0.9562 0.16816 0.90706 0.0
C2851 C 0.90091 0.16446 0.91818 0.0
C2852 C 0.01541 0.1392 0.89588 0.0
C2853 C 0.0011 0.14628 0.89639 0.0
C2854 C 0.96067 0.13707 0.92103 0.0
C2855 C 0.92796 0.16412 0.90126 0.0
C2856 C 0.94356 0.15839 0.90931 0.0
C2857 C 0.98913 0.14034 0.9211 0.0
C2858 C 0.97343 0.14677 0.91849 0.0
H2859 H 0.90808 0.18355 0.8267 0.0
H2860 H 0.9341 0.17606 0.84404 0.0
H2861 H 0.93641 0.135 0.91799 0.0
H2862 H 0.00796 0.11014 0.964 0.0
H2863 H 0.98337 0.12288 0.96699 0.0
C2864 C 0.88246 0.76277 0.65281 0.0
C2865 C 0.86975 0.76703 0.62856 0.0
C2866 C 0.88836 0.74802 0.65044 0.0
C2867 C 0.88854 0.71318 0.5844 0.0
H2868 H 0.90298 0.69417 0.68719 0.0
C2869 C 0.92155 0.6567 0.58065 0.0
C2870 C 0.91847 0.64578 0.61192 0.0
C2871 C 0.91574 0.67145 0.58376 0.0
C2872 C 0.89887 0.69924 0.65825 0.0
H2873 H 0.85345 0.75911 0.58218 0.0
H2874 H 0.86362 0.73328 0.57845 0.0
H2875 H 0.89221 0.71973 0.68971 0.0
H2876 H 0.90711 0.64196 0.67159 0.0
H2877 H 0.89671 0.66774 0.67677 0.0
H2878 H 0.89479 0.69255 0.55312 0.0
C2879 C 0.86916 0.74143 0.59896 0.0
C2880 C 0.89288 0.714 0.65958 0.0
C2881 C 0.86329 0.75624 0.60116 0.0
C2882 C 0.90973 0.65011 0.64703 0.0
C2883 C 0.9038 0.6649 0.65 0.0
C2884 C 0.89447 0.69841 0.5831 0.0
C2885 C 0.88168 0.73708 0.62393 0.0
C2886 C 0.88773 0.72121 0.62261 0.0
C2887 C 0.90658 0.6757 0.61807 0.0
C2888 C 0.89984 0.69128 0.61994 0.0
H2889 H 0.88782 0.77082 0.674 0.0
H2890 H 0.89822 0.74522 0.6694 0.0
H2891 H 0.88481 0.71838 0.55526 0.0
H2892 H 0.92841 0.65383 0.55342 0.0
H2893 H 0.91846 0.67953 0.55911 0.0
C2894 C 0.09961 0.17391 0.40258 0.0
C2895 C 0.10578 0.17273 0.36187 0.0
C2896 C 0.08428 0.17034 0.40994 0.0
C2897 C 0.04762 0.16444 0.35231 0.0
H2898 H 0.03543 0.1429 0.45343 0.0
C2899 C 0.995 0.12591 0.36458 0.0
C2900 C 0.98526 0.1279 0.39917 0.0
C2901 C 0.00863 0.13401 0.36192 0.0
C2902 C 0.03866 0.14913 0.42536 0.0
H2903 H 0.10083 0.16638 0.29729 0.0
H2904 H 0.07451 0.15963 0.31026 0.0
H2905 H 0.06177 0.15151 0.44577 0.0
H2906 H 0.98195 0.13996 0.45796 0.0
H2907 H 0.00624 0.15389 0.45391 0.0
H2908 H 0.02469 0.16121 0.331 0.0
C2909 C 0.08122 0.16386 0.33637 0.0
C2910 C 0.05373 0.15409 0.42093 0.0
C2911 C 0.09641 0.1676 0.32896 0.0
C2912 C 0.98923 0.13837 0.43077 0.0
C2913 C 0.00311 0.14622 0.42862 0.0
C2914 C 0.03267 0.15927 0.35648 0.0
C2915 C 0.07485 0.16536 0.37679 0.0
C2916 C 0.0585 0.16149 0.38386 0.0
C2917 C 0.01296 0.144 0.39427 0.0
C2918 C 0.02813 0.15132 0.39266 0.0
H2919 H 0.10654 0.17793 0.42853 0.0
H2920 H 0.07976 0.17174 0.44143 0.0
H2921 H 0.05071 0.1705 0.32386 0.0
H2922 H 0.99218 0.11788 0.33986 0.0
H2923 H 0.01608 0.13202 0.33528 0.0
C2924 C 0.59631 0.34819 0.12649 0.0
C2925 C 0.58063 0.35139 0.12794 0.0
C2926 C 0.60148 0.33315 0.1272 0.0
C2927 C 0.59428 0.29533 0.16303 0.0
H2928 H 0.61676 0.28151 0.06511 0.0
C2929 C 0.61614 0.23351 0.1522 0.0
C2930 C 0.6303 0.23108 0.13283 0.0
C2931 C 0.60893 0.24766 0.14938 0.0
C2932 C 0.61073 0.28519 0.09303 0.0
H2933 H 0.55812 0.34141 0.13282 0.0
H2934 H 0.56732 0.31499 0.13585 0.0
H2935 H 0.60678 0.30741 0.06715 0.0
H2936 H 0.64798 0.24149 0.09494 0.0
H2937 H 0.63586 0.26635 0.09159 0.0
H2938 H 0.59884 0.27357 0.19022 0.0
C2939 C 0.57549 0.3242 0.13345 0.0
C2940 C 0.60491 0.3 0.09394 0.0
C2941 C 0.57026 0.33926 0.13173 0.0
C2942 C 0.63699 0.24299 0.10988 0.0
C2943 C 0.62995 0.25726 0.10781 0.0
C2944 C 0.60038 0.28062 0.16258 0.0
C2945 C 0.59112 0.32105 0.13033 0.0
C2946 C 0.5967 0.30519 0.12899 0.0
C2947 C 0.61587 0.25986 0.12789 0.0
C2948 C 0.60877 0.27534 0.12763 0.0
H2949 H 0.60457 0.35727 0.12312 0.0
H2950 H 0.6136 0.33095 0.12494 0.0
H2951 H 0.58805 0.29918 0.1905 0.0
H2952 H 0.61065 0.22446 0.16976 0.0
H2953 H 0.59793 0.24903 0.16432 0.0
C2954 C 0.39783 0.85071 0.88704 0.0
C2955 C 0.39631 0.83476 0.88618 0.0
C2956 C 0.41226 0.85742 0.8886 0.0
C2957 C 0.45215 0.85077 0.91643 0.0
H2958 H 0.4613 0.88024 0.82897 0.0
C2959 C 0.51351 0.87029 0.88753 0.0
C2960 C 0.51609 0.88568 0.8778 0.0
C2961 C 0.49879 0.86434 0.88742 0.0
C2962 C 0.4589 0.87222 0.85401 0.0
H2963 H 0.40861 0.81337 0.88845 0.0
H2964 H 0.4338 0.82513 0.89233 0.0
H2965 H 0.43561 0.86982 0.83489 0.0
H2966 H 0.50534 0.90683 0.85913 0.0
H2967 H 0.47948 0.89658 0.86008 0.0
H2968 H 0.47522 0.85331 0.93633 0.0
C2969 C 0.42384 0.8324 0.89135 0.0
C2970 C 0.44419 0.86624 0.85732 0.0
C2971 C 0.40944 0.82568 0.88908 0.0
C2972 C 0.50369 0.89489 0.86645 0.0
C2973 C 0.48887 0.88899 0.86699 0.0
C2974 C 0.46679 0.85689 0.91353 0.0
C2975 C 0.4254 0.84832 0.89009 0.0
C2976 C 0.44073 0.85534 0.8883 0.0
C2977 C 0.48621 0.87369 0.87831 0.0
C2978 C 0.47044 0.86755 0.88193 0.0
H2979 H 0.38794 0.85801 0.88453 0.0
H2980 H 0.41316 0.86973 0.88796 0.0
H2981 H 0.44973 0.8425 0.94087 0.0
H2982 H 0.5229 0.86288 0.89594 0.0
H2983 H 0.49728 0.85241 0.895 0.0
C2984 C 0.86868 0.24766 0.82196 0.0
C2985 C 0.87644 0.23393 0.82954 0.0
C2986 C 0.87649 0.26148 0.82135 0.0
C2987 C 0.90972 0.28067 0.86399 0.0
H2988 H 0.90003 0.31112 0.77963 0.0
C2989 C 0.93416 0.34196 0.87165 0.0
C2990 C 0.92363 0.3537 0.8637 0.0
C2991 C 0.93047 0.32678 0.86277 0.0
C2992 C 0.90281 0.30278 0.80357 0.0
H2993 H 0.89854 0.22393 0.84223 0.0
H2994 H 0.91224 0.24834 0.84192 0.0
H2995 H 0.88987 0.2854 0.7727 0.0
H2996 H 0.90109 0.35864 0.83924 0.0
H2997 H 0.89461 0.3323 0.82451 0.0
H2998 H 0.92214 0.29821 0.89584 0.0
C2999 C 0.90008 0.24827 0.8362 0.0
C3000 C 0.89704 0.28804 0.79948 0.0
C3001 C 0.89227 0.23433 0.83621 0.0
C3002 C 0.9095 0.34993 0.84576 0.0
C3003 C 0.90581 0.33479 0.83699 0.0
C3004 C 0.91543 0.29548 0.86826 0.0
C3005 C 0.89224 0.26198 0.82873 0.0
C3006 C 0.90012 0.27693 0.83016 0.0
C3007 C 0.91619 0.32299 0.84569 0.0
C3008 C 0.91172 0.30682 0.83863 0.0
H3009 H 0.8565 0.24777 0.8165 0.0
H3010 H 0.87009 0.27187 0.81606 0.0
H3011 H 0.91219 0.27237 0.88828 0.0
H3012 H 0.9452 0.34447 0.88522 0.0
H3013 H 0.9388 0.318 0.86939 0.0
C3014 C 0.51293 0.14075 0.58181 0.0
C3015 C 0.51322 0.12557 0.56791 0.0
C3016 C 0.49912 0.14875 0.58312 0.0
C3017 C 0.46016 0.15015 0.5416 0.0
H3018 H 0.44831 0.16327 0.65338 0.0
C3019 C 0.3974 0.16288 0.58392 0.0
C3020 C 0.39426 0.17344 0.61593 0.0
C3021 C 0.41245 0.15881 0.57468 0.0
C3022 C 0.45145 0.16005 0.62166 0.0
H3023 H 0.4997 0.10714 0.54215 0.0
H3024 H 0.47577 0.12127 0.54306 0.0
H3025 H 0.47401 0.15399 0.64121 0.0
H3026 H 0.40436 0.18866 0.66179 0.0
H3027 H 0.43053 0.18221 0.64444 0.0
H3028 H 0.43774 0.15632 0.52166 0.0
C3029 C 0.48607 0.12692 0.55347 0.0
C3030 C 0.46623 0.15468 0.61482 0.0
C3031 C 0.49973 0.11882 0.55317 0.0
C3032 C 0.40645 0.18027 0.63742 0.0
C3033 C 0.42147 0.17648 0.62759 0.0
C3034 C 0.44545 0.15581 0.5482 0.0
C3035 C 0.48555 0.14182 0.56942 0.0
C3036 C 0.47063 0.14942 0.57495 0.0
C3037 C 0.42473 0.16547 0.59663 0.0
C3038 C 0.44077 0.16056 0.58856 0.0
H3039 H 0.52319 0.14613 0.59354 0.0
H3040 H 0.49897 0.16024 0.59554 0.0
H3041 H 0.46332 0.14619 0.5105 0.0
H3042 H 0.38821 0.1574 0.56694 0.0
H3043 H 0.41439 0.15012 0.55112 0.0
C3044 C 0.61849 0.75975 0.35123 0.0
C3045 C 0.63116 0.76384 0.3758 0.0
C3046 C 0.61243 0.74509 0.35326 0.0
C3047 C 0.61148 0.70996 0.41769 0.0
H3048 H 0.59801 0.69172 0.31282 0.0
C3049 C 0.57706 0.6543 0.4157 0.0
C3050 C 0.58035 0.64343 0.38448 0.0
C3051 C 0.5833 0.6689 0.41381 0.0
C3052 C 0.60184 0.69656 0.34233 0.0
H3053 H 0.64714 0.75578 0.42279 0.0
H3054 H 0.63663 0.73 0.42609 0.0
H3055 H 0.60917 0.71711 0.31237 0.0
H3056 H 0.59253 0.63955 0.32609 0.0
H3057 H 0.60363 0.66509 0.32297 0.0
H3058 H 0.60449 0.68926 0.44751 0.0
C3059 C 0.6313 0.73824 0.40545 0.0
C3060 C 0.60807 0.71123 0.34219 0.0
C3061 C 0.63734 0.75302 0.40358 0.0
C3062 C 0.58972 0.64767 0.35055 0.0
C3063 C 0.59607 0.66232 0.34878 0.0
C3064 C 0.60529 0.69527 0.41782 0.0
C3065 C 0.61891 0.73403 0.37975 0.0
C3066 C 0.61282 0.71818 0.37992 0.0
C3067 C 0.5931 0.67304 0.38077 0.0
C3068 C 0.60024 0.68844 0.3802 0.0
H3069 H 0.61332 0.76786 0.32983 0.0
H3070 H 0.60265 0.7424 0.33385 0.0
H3071 H 0.61494 0.71496 0.44735 0.0
H3072 H 0.56974 0.65149 0.44204 0.0
H3073 H 0.58044 0.67695 0.4384 0.0
C3074 C 0.09389 0.81799 0.13157 0.0
C3075 C 0.1064 0.8279 0.12728 0.0
C3076 C 0.07903 0.82337 0.12635 0.0
C3077 C 0.0571 0.85839 0.1367 0.0
H3078 H 0.0262 0.83798 0.07011 0.0
C3079 C 0.00096 0.88782 0.0977 0.0
C3080 C 0.98742 0.8793 0.09828 0.0
C3081 C 0.01504 0.88065 0.10087 0.0
C3082 C 0.03464 0.84368 0.08933 0.0
H3083 H 0.1131 0.85111 0.11271 0.0
H3084 H 0.08717 0.86048 0.10393 0.0
H3085 H 0.05179 0.82702 0.07518 0.0
H3086 H 0.97805 0.85649 0.10224 0.0
H3087 H 0.00284 0.84387 0.10868 0.0
H3088 H 0.04011 0.87491 0.15152 0.0
C3089 C 0.08889 0.84858 0.11159 0.0
C3090 C 0.04928 0.83744 0.09207 0.0
C3091 C 0.10374 0.84318 0.1164 0.0
C3092 C 0.9883 0.86335 0.10165 0.0
C3093 C 0.00248 0.85614 0.10516 0.0
C3094 C 0.0425 0.86453 0.13431 0.0
C3095 C 0.0764 0.83879 0.11716 0.0
C3096 C 0.0607 0.8449 0.11523 0.0
C3097 C 0.01601 0.86475 0.10519 0.0
C3098 C 0.03116 0.85742 0.10998 0.0
H3099 H 0.09557 0.80612 0.1397 0.0
H3100 H 0.06959 0.8156 0.13091 0.0
H3101 H 0.06559 0.86418 0.15557 0.0
H3102 H 0.00074 0.90011 0.09459 0.0
H3103 H 0.02522 0.88761 0.09968 0.0
C3104 C 0.59344 0.8542 0.82864 0.0
C3105 C 0.57844 0.85739 0.84124 0.0
C3106 C 0.59785 0.83928 0.81921 0.0
C3107 C 0.58695 0.79955 0.84298 0.0
H3108 H 0.6187 0.79032 0.76213 0.0
C3109 C 0.61246 0.73876 0.82113 0.0
C3110 C 0.62846 0.73852 0.82257 0.0
C3111 C 0.60464 0.75265 0.81771 0.0
C3112 C 0.60979 0.79272 0.78477 0.0
H3113 H 0.55607 0.84753 0.85122 0.0
H3114 H 0.56369 0.82159 0.83391 0.0
H3115 H 0.608 0.81594 0.76488 0.0
H3116 H 0.64878 0.75263 0.82025 0.0
H3117 H 0.63522 0.77659 0.81405 0.0
H3118 H 0.58897 0.77633 0.86321 0.0
C3119 C 0.57215 0.83054 0.83238 0.0
C3120 C 0.6037 0.80742 0.78648 0.0
C3121 C 0.56777 0.84544 0.84205 0.0
C3122 C 0.63644 0.75238 0.81967 0.0
C3123 C 0.62868 0.76614 0.81564 0.0
C3124 C 0.59298 0.78481 0.84105 0.0
C3125 C 0.58734 0.8272 0.82183 0.0
C3126 C 0.59248 0.81113 0.81635 0.0
C3127 C 0.61272 0.76647 0.81481 0.0
C3128 C 0.60474 0.78136 0.81269 0.0
H3129 H 0.60197 0.86311 0.8278 0.0
H3130 H 0.60969 0.83714 0.81169 0.0
H3131 H 0.57845 0.80201 0.86674 0.0
H3132 H 0.60602 0.72826 0.82321 0.0
H3133 H 0.59231 0.75259 0.81708 0.0
C3134 C 0.40382 0.33605 0.17706 0.0
C3135 C 0.3954 0.33168 0.14135 0.0
C3136 C 0.41853 0.3419 0.17292 0.0
C3137 C 0.45185 0.34213 0.1041 0.0
H3138 H 0.46254 0.37921 0.16351 0.0
C3139 C 0.50938 0.37245 0.07694 0.0
C3140 C 0.51629 0.37997 0.11101 0.0
C3141 C 0.49473 0.36639 0.08075 0.0
C3142 C 0.45987 0.3687 0.14724 0.0
H3143 H 0.39597 0.32986 0.07328 0.0
H3144 H 0.42189 0.33988 0.06615 0.0
H3145 H 0.43685 0.36895 0.16962 0.0
H3146 H 0.5134 0.38668 0.17619 0.0
H3147 H 0.48805 0.37562 0.18342 0.0
H3148 H 0.4749 0.34157 0.08255 0.0
C3149 C 0.41698 0.33882 0.0973 0.0
C3150 C 0.4451 0.36289 0.15058 0.0
C3151 C 0.40213 0.33316 0.10138 0.0
C3152 C 0.50833 0.38106 0.14926 0.0
C3153 C 0.49374 0.3748 0.15326 0.0
C3154 C 0.46669 0.34782 0.10119 0.0
C3155 C 0.42528 0.34333 0.13304 0.0
C3156 C 0.44093 0.34956 0.12899 0.0
C3157 C 0.48667 0.36748 0.11893 0.0
C3158 C 0.47091 0.36123 0.12263 0.0
H3159 H 0.39898 0.33511 0.20833 0.0
H3160 H 0.42471 0.34516 0.20103 0.0
H3161 H 0.44899 0.33172 0.08754 0.0
H3162 H 0.51514 0.37155 0.04688 0.0
H3163 H 0.48963 0.36112 0.05335 0.0
C3164 C 0.86759 0.25568 0.4016 0.0
C3165 C 0.86725 0.26341 0.36283 0.0
C3166 C 0.87409 0.24115 0.40457 0.0
C3167 C 0.88316 0.2072 0.34198 0.0
H3168 H 0.91197 0.19824 0.43099 0.0
C3169 C 0.91613 0.14991 0.34906 0.0
C3170 C 0.91905 0.14376 0.38909 0.0
C3171 C 0.90995 0.16457 0.34498 0.0
C3172 C 0.90377 0.20042 0.40627 0.0
H3173 H 0.8734 0.26186 0.29675 0.0
H3174 H 0.88452 0.23649 0.30195 0.0
H3175 H 0.9006 0.22349 0.42659 0.0
H3176 H 0.91735 0.14804 0.45625 0.0
H3177 H 0.90619 0.17314 0.44925 0.0
H3178 H 0.88599 0.18408 0.32215 0.0
C3179 C 0.8798 0.24168 0.33 0.0
C3180 C 0.8973 0.21494 0.40374 0.0
C3181 C 0.87351 0.25626 0.32714 0.0
C3182 C 0.91544 0.15248 0.42487 0.0
C3183 C 0.90911 0.16698 0.42083 0.0
C3184 C 0.88948 0.1926 0.34481 0.0
C3185 C 0.88017 0.23397 0.36871 0.0
C3186 C 0.88693 0.21849 0.37158 0.0
C3187 C 0.90639 0.17333 0.38088 0.0
C3188 C 0.89986 0.18898 0.37707 0.0
H3189 H 0.86289 0.26088 0.42967 0.0
H3190 H 0.87416 0.23543 0.43478 0.0
H3191 H 0.8751 0.20959 0.31704 0.0
H3192 H 0.91885 0.14351 0.3209 0.0
H3193 H 0.9082 0.16912 0.31367 0.0
C3194 C 0.08948 0.68251 0.63211 0.0
C3195 C 0.10143 0.67205 0.62634 0.0
C3196 C 0.07447 0.67849 0.62232 0.0
C3197 C 0.05176 0.64983 0.56317 0.0
H3198 H 0.0197 0.66052 0.6418 0.0
C3199 C 0.99651 0.61588 0.57839 0.0
C3200 C 0.98263 0.62373 0.58219 0.0
C3201 C 0.01028 0.62374 0.57866 0.0
C3202 C 0.02848 0.65768 0.61918 0.0
H3203 H 0.10695 0.64917 0.60543 0.0
H3204 H 0.08087 0.64208 0.58927 0.0
H3205 H 0.04537 0.67056 0.65228 0.0
H3206 H 0.9723 0.64602 0.58899 0.0
H3207 H 0.99665 0.65985 0.5904 0.0
H3208 H 0.035 0.63642 0.5312 0.0
C3209 C 0.08307 0.65351 0.60056 0.0
C3210 C 0.04319 0.66342 0.62513 0.0
C3211 C 0.09805 0.65754 0.61016 0.0
C3212 C 0.98283 0.63969 0.5859 0.0
C3213 C 0.99672 0.64758 0.58687 0.0
C3214 C 0.03712 0.64401 0.55745 0.0
C3215 C 0.07108 0.66391 0.6066 0.0
C3216 C 0.0551 0.65925 0.59776 0.0
C3217 C 0.01057 0.63964 0.58325 0.0
C3218 C 0.02542 0.64759 0.58594 0.0
H3219 H 0.0917 0.69383 0.64424 0.0
H3220 H 0.06554 0.68683 0.62692 0.0
H3221 H 0.06055 0.64669 0.54089 0.0
H3222 H 0.99676 0.60359 0.57524 0.0
H3223 H 0.02078 0.6173 0.57634 0.0
C3224 C 0.58624 0.14846 0.6356 0.0
C3225 C 0.57844 0.14395 0.59904 0.0
C3226 C 0.59228 0.16315 0.63895 0.0
C3227 C 0.60369 0.19638 0.57376 0.0
H3228 H 0.60289 0.21757 0.68078 0.0
C3229 C 0.63612 0.25288 0.60152 0.0
C3230 C 0.62933 0.26379 0.62793 0.0
C3231 C 0.62963 0.23843 0.59693 0.0
C3232 C 0.60307 0.2119 0.65051 0.0
H3233 H 0.57052 0.1515 0.53776 0.0
H3234 H 0.58069 0.17716 0.54402 0.0
H3235 H 0.59179 0.19226 0.67535 0.0
H3236 H 0.61004 0.26825 0.66885 0.0
H3237 H 0.59856 0.24326 0.66 0.0
H3238 H 0.61454 0.21622 0.54861 0.0
C3239 C 0.58252 0.16925 0.5697 0.0
C3240 C 0.59689 0.19727 0.64755 0.0
C3241 C 0.57659 0.15455 0.56623 0.0
C3242 C 0.61566 0.26007 0.64859 0.0
C3243 C 0.60912 0.24568 0.64375 0.0
C3244 C 0.60978 0.21106 0.57665 0.0
C3245 C 0.59055 0.17372 0.60595 0.0
C3246 C 0.59713 0.18931 0.60915 0.0
C3247 C 0.61614 0.23459 0.61838 0.0
C3248 C 0.60955 0.219 0.61507 0.0
H3249 H 0.58791 0.14056 0.6614 0.0
H3250 H 0.59856 0.16613 0.66711 0.0
H3251 H 0.60427 0.19053 0.54379 0.0
H3252 H 0.64668 0.25535 0.58525 0.0
H3253 H 0.63543 0.23013 0.57747 0.0
C3254 C 0.09964 0.34308 0.89774 0.0
C3255 C 0.10345 0.33233 0.86672 0.0
C3256 C 0.08495 0.34921 0.8995 0.0
C3257 C 0.05326 0.36032 0.83605 0.0
H3258 H 0.02782 0.35463 0.93447 0.0
C3259 C 0.99068 0.3817 0.84153 0.0
C3260 C 0.98479 0.38603 0.88079 0.0
C3261 C 0.00517 0.37506 0.83876 0.0
C3262 C 0.03482 0.35665 0.90699 0.0
H3263 H 0.09491 0.31963 0.81305 0.0
H3264 H 0.06936 0.33075 0.81548 0.0
H3265 H 0.05318 0.34347 0.93266 0.0
H3266 H 0.98962 0.38771 0.94751 0.0
H3267 H 0.01504 0.37711 0.9426 0.0
H3268 H 0.03534 0.37406 0.81088 0.0
C3269 C 0.07771 0.33421 0.8387 0.0
C3270 C 0.04931 0.3501 0.90595 0.0
C3271 C 0.09227 0.3278 0.83756 0.0
C3272 C 0.9938 0.3842 0.9169 0.0
C3273 C 0.00836 0.37796 0.91406 0.0
C3274 C 0.03889 0.36719 0.83742 0.0
C3275 C 0.07396 0.34498 0.86961 0.0
C3276 C 0.05862 0.35188 0.8705 0.0
C3277 C 0.01417 0.37297 0.87513 0.0
C3278 C 0.02945 0.36549 0.87299 0.0
H3279 H 0.10804 0.34678 0.92055 0.0
H3280 H 0.08226 0.35752 0.92361 0.0
H3281 H 0.06034 0.36187 0.80844 0.0
H3282 H 0.98388 0.38297 0.81328 0.0
H3283 H 0.00911 0.37124 0.80825 0.0
C3284 C 0.91467 0.85243 0.16787 0.0
C3285 C 0.92574 0.85569 0.13731 0.0
C3286 C 0.9106 0.83731 0.17653 0.0
C3287 C 0.91276 0.79854 0.12838 0.0
H3288 H 0.89647 0.78611 0.2365 0.0
C3289 C 0.89208 0.73692 0.16227 0.0
C3290 C 0.87677 0.7366 0.17503 0.0
C3291 C 0.90015 0.75071 0.16217 0.0
C3292 C 0.9011 0.78943 0.20624 0.0
H3293 H 0.94194 0.84576 0.09382 0.0
H3294 H 0.93549 0.8195 0.11031 0.0
H3295 H 0.90698 0.81169 0.22821 0.0
H3296 H 0.85816 0.75011 0.19994 0.0
H3297 H 0.87236 0.77398 0.20088 0.0
H3298 H 0.90693 0.77616 0.10675 0.0
C3299 C 0.92937 0.82849 0.12635 0.0
C3300 C 0.90699 0.80413 0.20129 0.0
C3301 C 0.93318 0.84357 0.11707 0.0
C3302 C 0.86993 0.75008 0.18961 0.0
C3303 C 0.87807 0.76371 0.19045 0.0
C3304 C 0.90712 0.78377 0.1336 0.0
C3305 C 0.91775 0.82511 0.15543 0.0
C3306 C 0.91264 0.80903 0.16202 0.0
C3307 C 0.89315 0.76425 0.17592 0.0
C3308 C 0.90097 0.77916 0.17231 0.0
H3309 H 0.90871 0.86156 0.18381 0.0
H3310 H 0.90146 0.83527 0.19869 0.0
H3311 H 0.91667 0.80186 0.0974 0.0
H3312 H 0.89757 0.72668 0.15083 0.0
H3313 H 0.91179 0.75086 0.15085 0.0
C3314 C 0.50187 0.61275 0.4058 0.0
C3315 C 0.51565 0.62086 0.40742 0.0
C3316 C 0.48807 0.62032 0.40102 0.0
C3317 C 0.46869 0.65741 0.4105 0.0
H3318 H 0.43965 0.63768 0.33631 0.0
C3319 C 0.40913 0.68233 0.36432 0.0
C3320 C 0.39699 0.67189 0.36705 0.0
C3321 C 0.4242 0.67742 0.36941 0.0
C3322 C 0.44761 0.64329 0.35725 0.0
H3323 H 0.52568 0.64342 0.4066 0.0
H3324 H 0.50132 0.6568 0.39758 0.0
H3325 H 0.46504 0.62703 0.34425 0.0
H3326 H 0.39119 0.64818 0.37814 0.0
H3327 H 0.41739 0.63968 0.38654 0.0
H3328 H 0.45104 0.67374 0.42316 0.0
C3329 C 0.50131 0.64451 0.40034 0.0
C3330 C 0.46215 0.63719 0.3619 0.0
C3331 C 0.51524 0.63686 0.40543 0.0
C3332 C 0.40024 0.65653 0.37569 0.0
C3333 C 0.41526 0.65163 0.38029 0.0
C3334 C 0.45409 0.66362 0.40555 0.0
C3335 C 0.4876 0.63626 0.39727 0.0
C3336 C 0.47275 0.64391 0.38941 0.0
C3337 C 0.4274 0.66197 0.37677 0.0
C3338 C 0.4433 0.65638 0.37963 0.0
H3339 H 0.5017 0.60043 0.40796 0.0
H3340 H 0.47771 0.61363 0.40007 0.0
H3341 H 0.47658 0.66284 0.43197 0.0
H3342 H 0.407 0.69426 0.35794 0.0
H3343 H 0.43336 0.68562 0.36648 0.0
C3344 C 0.40793 0.14948 0.15411 0.0
C3345 C 0.42272 0.14593 0.14035 0.0
C3346 C 0.40358 0.1646 0.1603 0.0
C3347 C 0.41695 0.20384 0.17683 0.0
H3348 H 0.37857 0.21405 0.1235 0.0
C3349 C 0.39089 0.26552 0.16594 0.0
C3350 C 0.37505 0.26616 0.17193 0.0
C3351 C 0.39834 0.25135 0.16411 0.0
C3352 C 0.38925 0.21138 0.13892 0.0
H3353 H 0.44481 0.15551 0.12476 0.0
H3354 H 0.43715 0.182 0.13586 0.0
H3355 H 0.38844 0.18829 0.1179 0.0
H3356 H 0.35481 0.25266 0.18416 0.0
H3357 H 0.3677 0.22832 0.18186 0.0
H3358 H 0.41753 0.22707 0.19833 0.0
C3359 C 0.42895 0.17302 0.14159 0.0
C3360 C 0.39489 0.19661 0.1357 0.0
C3361 C 0.43329 0.15785 0.13506 0.0
C3362 C 0.36699 0.25255 0.17855 0.0
C3363 C 0.37437 0.23856 0.17707 0.0
C3364 C 0.41121 0.21872 0.1803 0.0
C3365 C 0.41393 0.17655 0.15318 0.0
C3366 C 0.40863 0.19258 0.15528 0.0
C3367 C 0.39002 0.23772 0.16844 0.0
C3368 C 0.39712 0.22252 0.16211 0.0
H3369 H 0.39952 0.14061 0.1588 0.0
H3370 H 0.39199 0.16699 0.16992 0.0
H3371 H 0.42761 0.20103 0.19207 0.0
H3372 H 0.39736 0.27586 0.16084 0.0
H3373 H 0.41044 0.25105 0.15759 0.0
C3374 C 0.49132 0.63851 0.91668 0.0
C3375 C 0.4897 0.62341 0.90254 0.0
C3376 C 0.50524 0.64619 0.91186 0.0
C3377 C 0.54019 0.64543 0.84751 0.0
H3378 H 0.55904 0.66758 0.93937 0.0
C3379 C 0.59697 0.67671 0.82445 0.0
C3380 C 0.60804 0.67473 0.85595 0.0
C3381 C 0.58192 0.6722 0.8312 0.0
C3382 C 0.55392 0.6614 0.91347 0.0
H3383 H 0.50147 0.60461 0.87214 0.0
H3384 H 0.52543 0.6179 0.86392 0.0
H3385 H 0.53369 0.65639 0.94889 0.0
H3386 H 0.61182 0.66686 0.91986 0.0
H3387 H 0.58553 0.65872 0.93138 0.0
H3388 H 0.56043 0.64995 0.81241 0.0
C3389 C 0.51601 0.62388 0.87846 0.0
C3390 C 0.53935 0.65516 0.91878 0.0
C3391 C 0.50225 0.61622 0.88349 0.0
C3392 C 0.6036 0.66848 0.89484 0.0
C3393 C 0.5885 0.66392 0.90157 0.0
C3394 C 0.55466 0.65169 0.84216 0.0
C3395 C 0.51768 0.63896 0.89235 0.0
C3396 C 0.53245 0.64689 0.88603 0.0
C3397 C 0.57754 0.66555 0.86959 0.0
C3398 C 0.56179 0.65961 0.87518 0.0
H3399 H 0.48188 0.64437 0.9315 0.0
H3400 H 0.5062 0.65785 0.92274 0.0
H3401 H 0.53511 0.63926 0.82152 0.0
H3402 H 0.59991 0.68168 0.79431 0.0
H3403 H 0.57372 0.67387 0.80617 0.0
C3404 C 0.12939 0.74279 0.60214 0.0
C3405 C 0.12934 0.73498 0.6408 0.0
C3406 C 0.12291 0.75733 0.59888 0.0
C3407 C 0.11338 0.79112 0.66177 0.0
H3408 H 0.08661 0.80118 0.56886 0.0
C3409 C 0.08287 0.84967 0.65073 0.0
C3410 C 0.08137 0.85612 0.61043 0.0
C3411 C 0.08809 0.83467 0.65553 0.0
C3412 C 0.09423 0.79867 0.59475 0.0
H3413 H 0.12243 0.73636 0.70634 0.0
H3414 H 0.11131 0.76172 0.70062 0.0
H3415 H 0.0972 0.7756 0.5742 0.0
H3416 H 0.08442 0.85185 0.54361 0.0
H3417 H 0.09386 0.82612 0.55198 0.0
H3418 H 0.11079 0.81425 0.68183 0.0
C3419 C 0.11634 0.7566 0.67288 0.0
C3420 C 0.10026 0.78397 0.59781 0.0
C3421 C 0.12262 0.74202 0.67602 0.0
C3422 C 0.08526 0.84724 0.57516 0.0
C3423 C 0.09061 0.83237 0.57995 0.0
C3424 C 0.1075 0.80589 0.65846 0.0
C3425 C 0.11644 0.76444 0.63433 0.0
C3426 C 0.10993 0.78004 0.63128 0.0
C3427 C 0.09206 0.82582 0.62015 0.0
C3428 C 0.09789 0.80991 0.62477 0.0
H3429 H 0.13445 0.73769 0.57441 0.0
H3430 H 0.12323 0.76314 0.5688 0.0
H3431 H 0.12092 0.78846 0.68773 0.0
H3432 H 0.07991 0.85617 0.67854 0.0
H3433 H 0.08887 0.82997 0.68698 0.0
C3434 C 0.90087 0.34083 0.38763 0.0
C3435 C 0.8972 0.32588 0.37542 0.0
C3436 C 0.91601 0.34536 0.39136 0.0
C3437 C 0.95505 0.33268 0.40765 0.0
H3438 H 0.9649 0.37053 0.35083 0.0
C3439 C 0.01593 0.35991 0.4047 0.0
C3440 C 0.01619 0.37581 0.4103 0.0
C3441 C 0.00203 0.35225 0.39943 0.0
C3442 C 0.96233 0.36 0.36714 0.0
H3443 H 0.90663 0.30377 0.35943 0.0
H3444 H 0.93327 0.31176 0.36654 0.0
H3445 H 0.9394 0.35998 0.34466 0.0
H3446 H 0.00206 0.39599 0.41666 0.0
H3447 H 0.97813 0.38273 0.4083 0.0
H3448 H 0.97797 0.333 0.43115 0.0
C3449 C 0.9243 0.31992 0.37285 0.0
C3450 C 0.94774 0.35395 0.3635 0.0
C3451 C 0.90908 0.31539 0.36864 0.0
C3452 C 0.00233 0.38378 0.41177 0.0
C3453 C 0.98856 0.37618 0.40674 0.0
C3454 C 0.96971 0.33882 0.41159 0.0
C3455 C 0.92787 0.33504 0.38337 0.0
C3456 C 0.94384 0.34044 0.38447 0.0
C3457 C 0.98822 0.36039 0.39971 0.0
C3458 C 0.97337 0.35277 0.3922 0.0
H3459 H 0.89204 0.3492 0.3933 0.0
H3460 H 0.91846 0.35703 0.40014 0.0
H3461 H 0.95229 0.32222 0.42406 0.0
H3462 H 0.02643 0.35347 0.40343 0.0
H3463 H 0.00211 0.34007 0.39408 0.0
C3464 C 0.38269 0.73955 0.3473 0.0
C3465 C 0.37007 0.73541 0.37196 0.0
C3466 C 0.38942 0.75387 0.3518 0.0
C3467 C 0.39518 0.7877 0.34702 0.0
H3468 H 0.39801 0.8078 0.45533 0.0
C3469 C 0.41169 0.85124 0.36253 0.0
C3470 C 0.42042 0.85559 0.39759 0.0
C3471 C 0.40596 0.83641 0.35936 0.0
C3472 C 0.39749 0.8023 0.42484 0.0
H3473 H 0.35483 0.74294 0.42152 0.0
H3474 H 0.36632 0.76809 0.42868 0.0
H3475 H 0.38791 0.78205 0.45134 0.0
H3476 H 0.43047 0.84765 0.45599 0.0
H3477 H 0.42092 0.82175 0.44984 0.0
H3478 H 0.40524 0.80773 0.32069 0.0
C3479 C 0.37122 0.76018 0.4063 0.0
C3480 C 0.39147 0.78758 0.4225 0.0
C3481 C 0.36458 0.74577 0.4021 0.0
C3482 C 0.42363 0.8447 0.4288 0.0
C3483 C 0.41805 0.82986 0.42541 0.0
C3484 C 0.40132 0.80236 0.34941 0.0
C3485 C 0.38361 0.76449 0.38078 0.0
C3486 C 0.39021 0.78009 0.38354 0.0
C3487 C 0.40897 0.82555 0.39095 0.0
C3488 C 0.40254 0.80987 0.38834 0.0
H3489 H 0.38732 0.73177 0.32413 0.0
H3490 H 0.39917 0.75662 0.33236 0.0
H3491 H 0.39417 0.78241 0.31634 0.0
H3492 H 0.40896 0.85938 0.33806 0.0
H3493 H 0.39886 0.83358 0.33262 0.0
C3494 C 0.99982 0.61563 0.07657 0.0
C3495 C 0.01346 0.62259 0.08944 0.0
C3496 C 0.98606 0.6235 0.07891 0.0
C3497 C 0.96607 0.65072 0.14085 0.0
H3498 H 0.93881 0.6549 0.04553 0.0
C3499 C 0.90693 0.67845 0.16006 0.0
C3500 C 0.89488 0.67268 0.13579 0.0
C3501 C 0.92192 0.67395 0.15212 0.0
C3502 C 0.94615 0.65365 0.07268 0.0
H3503 H 0.02348 0.64322 0.11454 0.0
H3504 H 0.99909 0.65689 0.12024 0.0
H3505 H 0.96414 0.64412 0.03531 0.0
H3506 H 0.88902 0.65763 0.08427 0.0
H3507 H 0.915 0.64909 0.07176 0.0
H3508 H 0.94797 0.65925 0.17893 0.0
C3509 C 0.99922 0.64542 0.10765 0.0
C3510 C 0.96072 0.64762 0.06662 0.0
C3511 C 0.01311 0.63766 0.10428 0.0
C3512 C 0.89811 0.66233 0.10333 0.0
C3513 C 0.91306 0.65754 0.09598 0.0
C3514 C 0.95139 0.65644 0.14713 0.0
C3515 C 0.9856 0.63836 0.09508 0.0
C3516 C 0.97075 0.64602 0.1007 0.0
C3517 C 0.92521 0.66328 0.12028 0.0
C3518 C 0.94114 0.65787 0.11319 0.0
H3519 H 0.9998 0.60404 0.06477 0.0
H3520 H 0.97568 0.61781 0.0693 0.0
H3521 H 0.97357 0.64939 0.16769 0.0
H3522 H 0.90479 0.68663 0.18491 0.0
H3523 H 0.93091 0.67894 0.1709 0.0
C3524 C 0.08693 0.1536 0.92699 0.0
C3525 C 0.08318 0.14479 0.89149 0.0
C3526 C 0.09234 0.16847 0.92255 0.0
C3527 C 0.10912 0.19546 0.84481 0.0
H3528 H 0.09792 0.22536 0.92925 0.0
C3529 C 0.12312 0.2597 0.82849 0.0
C3530 C 0.12965 0.26675 0.86396 0.0
C3531 C 0.117 0.24502 0.83126 0.0
C3532 C 0.10123 0.21711 0.90558 0.0
H3533 H 0.08215 0.1448 0.82334 0.0
H3534 H 0.0912 0.171 0.81549 0.0
H3535 H 0.08791 0.19954 0.93407 0.0
H3536 H 0.13453 0.26398 0.93044 0.0
H3537 H 0.12359 0.2384 0.93542 0.0
H3538 H 0.1222 0.21326 0.81598 0.0
C3539 C 0.09027 0.16626 0.84686 0.0
C3540 C 0.09554 0.20226 0.90836 0.0
C3541 C 0.08501 0.15125 0.85131 0.0
C3542 C 0.1296 0.25888 0.90253 0.0
C3543 C 0.12329 0.24425 0.90542 0.0
C3544 C 0.11466 0.21038 0.84177 0.0
C3545 C 0.09397 0.17511 0.88249 0.0
C3546 C 0.09953 0.19115 0.87828 0.0
C3547 C 0.11708 0.2371 0.86969 0.0
C3548 C 0.11088 0.22134 0.87233 0.0
H3549 H 0.08583 0.14896 0.95845 0.0
H3550 H 0.09539 0.1747 0.95073 0.0
H3551 H 0.11266 0.18723 0.82138 0.0
H3552 H 0.12301 0.26539 0.79821 0.0
H3553 H 0.11217 0.23987 0.8033 0.0
C3554 C 0.49027 0.37541 0.56777 0.0
C3555 C 0.48486 0.38442 0.60123 0.0
C3556 C 0.50461 0.36866 0.56969 0.0
C3557 C 0.53436 0.35598 0.64277 0.0
H3558 H 0.56007 0.35751 0.54345 0.0
C3559 C 0.58983 0.3211 0.62971 0.0
C3560 C 0.6027 0.32901 0.61497 0.0
C3561 C 0.57533 0.32756 0.62663 0.0
C3562 C 0.55305 0.35703 0.57147 0.0
H3563 H 0.49024 0.39315 0.66336 0.0
H3564 H 0.51544 0.38124 0.66671 0.0
H3565 H 0.5352 0.36991 0.54254 0.0
H3566 H 0.61029 0.34965 0.5837 0.0
H3567 H 0.58499 0.36085 0.57813 0.0
H3568 H 0.55229 0.34321 0.67181 0.0
C3569 C 0.50847 0.37945 0.63901 0.0
C3570 C 0.53877 0.36403 0.57086 0.0
C3571 C 0.49409 0.38633 0.637 0.0
C3572 C 0.60064 0.34324 0.59543 0.0
C3573 C 0.58613 0.34966 0.59213 0.0
C3574 C 0.54862 0.34889 0.64329 0.0
C3575 C 0.51392 0.37065 0.60518 0.0
C3576 C 0.52925 0.36355 0.60646 0.0
C3577 C 0.57336 0.34203 0.60846 0.0
C3578 C 0.55811 0.34933 0.60762 0.0
H3579 H 0.48347 0.37365 0.53973 0.0
H3580 H 0.50838 0.36176 0.5434 0.0
H3581 H 0.52724 0.35533 0.67056 0.0
H3582 H 0.59098 0.3101 0.64485 0.0
H3583 H 0.56566 0.3213 0.63886 0.0
loop_
_geom_bond_atom_site_label_1
_geom_bond_atom_site_label_2
_geom_bond_distance
_geom_bond_site_symmetry_2
_ccdc_geom_bond_type
Fe0 O2 1.918 . S
Fe0 O5 1.997 . S
Fe0 O6 2.002 . S
Fe0 O11 1.976 . S
Fe0 O14 1.996 . S
Fe1 O2 1.918 . S
Fe1 O9 1.997 . S
Fe1 O12 1.996 . S
Fe1 O16 1.976 . S
Fe1 O19 2.002 . S
O2 Fe0 1.918 . S
O2 Fe1 1.918 . S
O2 Fe3 1.918 . S
Fe3 O2 1.918 . S
Fe3 O4 2.002 . S
Fe3 O13 1.976 . S
Fe3 O17 1.996 . S
Fe3 O20 1.997 . S
O4 Fe3 2.002 . S
O4 C21 1.295 . S
O5 Fe0 1.997 . S
O5 C21 1.235 . S
O6 Fe0 2.002 . S
O6 C7 1.295 . S
C7 O6 1.295 . S
C7 O9 1.235 . S
C8 O13 1.287 . S
C8 O14 1.255 . S
O9 Fe1 1.997 . S
O9 C7 1.235 . S
C10 O16 1.287 . S
C10 O17 1.255 . S
O11 Fe0 1.976 . S
O11 C18 1.287 . S
O12 Fe1 1.996 . S
O12 C18 1.255 . S
O13 Fe3 1.976 . S
O13 C8 1.287 . S
O14 Fe0 1.996 . S
O14 C8 1.255 . S
C15 O19 1.295 . S
C15 O20 1.235 . S
O16 Fe1 1.976 . S
O16 C10 1.287 . S
O17 Fe3 1.996 . S
O17 C10 1.255 . S
C18 O11 1.287 . S
C18 O12 1.255 . S
O19 Fe1 2.002 . S
O19 C15 1.295 . S
O20 Fe3 1.997 . S
O20 C15 1.235 . S
C21 O4 1.295 . S
C21 O5 1.235 . S
Fe22 O24 1.918 . S
Fe22 O27 1.997 . S
Fe22 O28 2.002 . S
Fe22 O33 1.976 . S
Fe22 O36 1.996 . S
Fe23 O24 1.918 . S
Fe23 O31 1.997 . S
Fe23 O34 1.996 . S
Fe23 O38 1.976 . S
Fe23 O41 2.002 . S
O24 Fe22 1.918 . S
O24 Fe23 1.918 . S
O24 Fe25 1.918 . S
Fe25 O24 1.918 . S
Fe25 O26 2.002 . S
Fe25 O35 1.976 . S
Fe25 O39 1.996 . S
Fe25 O42 1.997 . S
O26 Fe25 2.002 . S
O26 C43 1.295 . S
O27 Fe22 1.997 . S
O27 C43 1.235 . S
O28 Fe22 2.002 . S
O28 C29 1.295 . S
C29 O28 1.295 . S
C29 O31 1.235 . S
C30 O35 1.287 . S
C30 O36 1.255 . S
O31 Fe23 1.997 . S
O31 C29 1.235 . S
C32 O38 1.287 . S
C32 O39 1.255 . S
O33 Fe22 1.976 . S
O33 C40 1.287 . S
O34 Fe23 1.996 . S
O34 C40 1.255 . S
O35 Fe25 1.976 . S
O35 C30 1.287 . S
O36 Fe22 1.996 . S
O36 C30 1.255 . S
C37 O41 1.295 . S
C37 O42 1.235 . S
O38 Fe23 1.976 . S
O38 C32 1.287 . S
O39 Fe25 1.996 . S
O39 C32 1.255 . S
C40 O33 1.287 . S
C40 O34 1.255 . S
O41 Fe23 2.002 . S
O41 C37 1.295 . S
O42 Fe25 1.997 . S
O42 C37 1.235 . S
C43 O26 1.295 . S
C43 O27 1.235 . S
Fe44 O46 1.918 . S
Fe44 O49 1.997 . S
Fe44 O50 2.002 . S
Fe44 O55 1.976 . S
Fe44 O58 1.996 . S
Fe45 O46 1.918 . S
Fe45 O53 1.997 . S
Fe45 O56 1.996 . S
Fe45 O60 1.976 . S
Fe45 O63 2.002 . S
O46 Fe44 1.918 . S
O46 Fe45 1.918 . S
O46 Fe47 1.918 . S
Fe47 O46 1.918 . S
Fe47 O48 2.002 . S
Fe47 O57 1.976 . S
Fe47 O61 1.996 . S
Fe47 O64 1.997 . S
O48 Fe47 2.002 . S
O48 C65 1.295 . S
O49 Fe44 1.997 . S
O49 C65 1.235 . S
O50 Fe44 2.002 . S
O50 C51 1.295 . S
C51 O50 1.295 . S
C51 O53 1.235 . S
C52 O57 1.287 . S
C52 O58 1.255 . S
O53 Fe45 1.997 . S
O53 C51 1.235 . S
C54 O60 1.287 . S
C54 O61 1.255 . S
O55 Fe44 1.976 . S
O55 C62 1.287 . S
O56 Fe45 1.996 . S
O56 C62 1.255 . S
O57 Fe47 1.976 . S
O57 C52 1.287 . S
O58 Fe44 1.996 . S
O58 C52 1.255 . S
C59 O63 1.295 . S
C59 O64 1.235 . S
O60 Fe45 1.976 . S
O60 C54 1.287 . S
O61 Fe47 1.996 . S
O61 C54 1.255 . S
C62 O55 1.287 . S
C62 O56 1.255 . S
O63 Fe45 2.002 . S
O63 C59 1.295 . S
O64 Fe47 1.997 . S
O64 C59 1.235 . S
C65 O48 1.295 . S
C65 O49 1.235 . S
Fe66 O68 1.918 . S
Fe66 O71 1.997 . S
Fe66 O72 2.002 . S
Fe66 O77 1.976 . S
Fe66 O80 1.996 . S
Fe67 O68 1.918 . S
Fe67 O75 1.997 . S
Fe67 O78 1.996 . S
Fe67 O82 1.976 . S
Fe67 O85 2.002 . S
O68 Fe66 1.918 . S
O68 Fe67 1.918 . S
O68 Fe69 1.918 . S
Fe69 O68 1.918 . S
Fe69 O70 2.002 . S
Fe69 O79 1.976 . S
Fe69 O83 1.996 . S
Fe69 O86 1.997 . S
O70 Fe69 2.002 . S
O70 C87 1.295 . S
O71 Fe66 1.997 . S
O71 C87 1.235 . S
O72 Fe66 2.002 . S
O72 C73 1.295 . S
C73 O72 1.295 . S
C73 O75 1.235 . S
C74 O79 1.287 . S
C74 O80 1.255 . S
O75 Fe67 1.997 . S
O75 C73 1.235 . S
C76 O82 1.287 . S
C76 O83 1.255 . S
O77 Fe66 1.976 . S
O77 C84 1.287 . S
O78 Fe67 1.996 . S
O78 C84 1.255 . S
O79 Fe69 1.976 . S
O79 C74 1.287 . S
O80 Fe66 1.996 . S
O80 C74 1.255 . S
C81 O85 1.295 . S
C81 O86 1.235 . S
O82 Fe67 1.976 . S
O82 C76 1.287 . S
O83 Fe69 1.996 . S
O83 C76 1.255 . S
C84 O77 1.287 . S
C84 O78 1.255 . S
O85 Fe67 2.002 . S
O85 C81 1.295 . S
O86 Fe69 1.997 . S
O86 C81 1.235 . S
C87 O70 1.295 . S
C87 O71 1.235 . S
Fe88 O90 1.918 . S
Fe88 O93 1.997 . S
Fe88 O94 2.002 . S
Fe88 O99 1.976 . S
Fe88 O102 1.996 . S
Fe89 O90 1.918 . S
Fe89 O97 1.997 . S
Fe89 O100 1.996 . S
Fe89 O104 1.976 . S
Fe89 O107 2.002 . S
O90 Fe88 1.918 . S
O90 Fe89 1.918 . S
O90 Fe91 1.918 . S
Fe91 O90 1.918 . S
Fe91 O92 2.002 . S
Fe91 O101 1.976 . S
Fe91 O105 1.996 . S
Fe91 O108 1.997 . S
O92 Fe91 2.002 . S
O92 C109 1.295 . S
O93 Fe88 1.997 . S
O93 C109 1.235 . S
O94 Fe88 2.002 . S
O94 C95 1.295 . S
C95 O94 1.295 . S
C95 O97 1.235 . S
C96 O101 1.287 . S
C96 O102 1.255 . S
O97 Fe89 1.997 . S
O97 C95 1.235 . S
C98 O104 1.287 . S
C98 O105 1.255 . S
O99 Fe88 1.976 . S
O99 C106 1.287 . S
O100 Fe89 1.996 . S
O100 C106 1.255 . S
O101 Fe91 1.976 . S
O101 C96 1.287 . S
O102 Fe88 1.996 . S
O102 C96 1.255 . S
C103 O107 1.295 . S
C103 O108 1.235 . S
O104 Fe89 1.976 . S
O104 C98 1.287 . S
O105 Fe91 1.996 . S
O105 C98 1.255 . S
C106 O99 1.287 . S
C106 O100 1.255 . S
O107 Fe89 2.002 . S
O107 C103 1.295 . S
O108 Fe91 1.997 . S
O108 C103 1.235 . S
C109 O92 1.295 . S
C109 O93 1.235 . S
Fe110 O112 1.918 . S
Fe110 O115 1.997 . S
Fe110 O116 2.002 . S
Fe110 O121 1.976 . S
Fe110 O124 1.996 . S
Fe111 O112 1.918 . S
Fe111 O119 1.997 . S
Fe111 O122 1.996 . S
Fe111 O126 1.976 . S
Fe111 O129 2.002 . S
O112 Fe110 1.918 . S
O112 Fe111 1.918 . S
O112 Fe113 1.918 . S
Fe113 O112 1.918 . S
Fe113 O114 2.002 . S
Fe113 O123 1.976 . S
Fe113 O127 1.996 . S
Fe113 O130 1.997 . S
O114 Fe113 2.002 . S
O114 C131 1.295 . S
O115 Fe110 1.997 . S
O115 C131 1.235 . S
O116 Fe110 2.002 . S
O116 C117 1.295 . S
C117 O116 1.295 . S
C117 O119 1.235 . S
C118 O123 1.287 . S
C118 O124 1.255 . S
O119 Fe111 1.997 . S
O119 C117 1.235 . S
C120 O126 1.287 . S
C120 O127 1.255 . S
O121 Fe110 1.976 . S
O121 C128 1.287 . S
O122 Fe111 1.996 . S
O122 C128 1.255 . S
O123 Fe113 1.976 . S
O123 C118 1.287 . S
O124 Fe110 1.996 . S
O124 C118 1.255 . S
C125 O129 1.295 . S
C125 O130 1.235 . S
O126 Fe111 1.976 . S
O126 C120 1.287 . S
O127 Fe113 1.996 . S
O127 C120 1.255 . S
C128 O121 1.287 . S
C128 O122 1.255 . S
O129 Fe111 2.002 . S
O129 C125 1.295 . S
O130 Fe113 1.997 . S
O130 C125 1.235 . S
C131 O114 1.295 . S
C131 O115 1.235 . S
Fe132 O134 1.918 . S
Fe132 O137 1.997 . S
Fe132 O138 2.002 . S
Fe132 O143 1.976 . S
Fe132 O146 1.996 . S
Fe133 O134 1.918 . S
Fe133 O141 1.997 . S
Fe133 O144 1.996 . S
Fe133 O148 1.976 . S
Fe133 O151 2.002 . S
O134 Fe132 1.918 . S
O134 Fe133 1.918 . S
O134 Fe135 1.918 . S
Fe135 O134 1.918 . S
Fe135 O136 2.002 . S
Fe135 O145 1.976 . S
Fe135 O149 1.996 . S
Fe135 O152 1.997 . S
O136 Fe135 2.002 . S
O136 C153 1.295 . S
O137 Fe132 1.997 . S
O137 C153 1.235 . S
O138 Fe132 2.002 . S
O138 C139 1.295 . S
C139 O138 1.295 . S
C139 O141 1.235 . S
C140 O145 1.287 . S
C140 O146 1.255 . S
O141 Fe133 1.997 . S
O141 C139 1.235 . S
C142 O148 1.287 . S
C142 O149 1.255 . S
O143 Fe132 1.976 . S
O143 C150 1.287 . S
O144 Fe133 1.996 . S
O144 C150 1.255 . S
O145 Fe135 1.976 . S
O145 C140 1.287 . S
O146 Fe132 1.996 . S
O146 C140 1.255 . S
C147 O151 1.295 . S
C147 O152 1.235 . S
O148 Fe133 1.976 . S
O148 C142 1.287 . S
O149 Fe135 1.996 . S
O149 C142 1.255 . S
C150 O143 1.287 . S
C150 O144 1.255 . S
O151 Fe133 2.002 . S
O151 C147 1.295 . S
O152 Fe135 1.997 . S
O152 C147 1.235 . S
C153 O136 1.295 . S
C153 O137 1.235 . S
Fe154 O156 1.918 . S
Fe154 O159 1.997 . S
Fe154 O160 2.002 . S
Fe154 O165 1.976 . S
Fe154 O168 1.996 . S
Fe155 O156 1.918 . S
Fe155 O163 1.997 . S
Fe155 O166 1.996 . S
Fe155 O170 1.976 . S
Fe155 O173 2.002 . S
O156 Fe154 1.918 . S
O156 Fe155 1.918 . S
O156 Fe157 1.918 . S
Fe157 O156 1.918 . S
Fe157 O158 2.002 . S
Fe157 O167 1.976 . S
Fe157 O171 1.996 . S
Fe157 O174 1.997 . S
O158 Fe157 2.002 . S
O158 C175 1.295 . S
O159 Fe154 1.997 . S
O159 C175 1.235 . S
O160 Fe154 2.002 . S
O160 C161 1.295 . S
C161 O160 1.295 . S
C161 O163 1.235 . S
C162 O167 1.287 . S
C162 O168 1.255 . S
O163 Fe155 1.997 . S
O163 C161 1.235 . S
C164 O170 1.287 . S
C164 O171 1.255 . S
O165 Fe154 1.976 . S
O165 C172 1.287 . S
O166 Fe155 1.996 . S
O166 C172 1.255 . S
O167 Fe157 1.976 . S
O167 C162 1.287 . S
O168 Fe154 1.996 . S
O168 C162 1.255 . S
C169 O173 1.295 . S
C169 O174 1.235 . S
O170 Fe155 1.976 . S
O170 C164 1.287 . S
O171 Fe157 1.996 . S
O171 C164 1.255 . S
C172 O165 1.287 . S
C172 O166 1.255 . S
O173 Fe155 2.002 . S
O173 C169 1.295 . S
O174 Fe157 1.997 . S
O174 C169 1.235 . S
C175 O158 1.295 . S
C175 O159 1.235 . S
Fe176 O178 1.918 . S
Fe176 O181 1.997 . S
Fe176 O182 2.002 . S
Fe176 O187 1.976 . S
Fe176 O190 1.996 . S
Fe177 O178 1.918 . S
Fe177 O185 1.997 . S
Fe177 O188 1.996 . S
Fe177 O192 1.976 . S
Fe177 O195 2.002 . S
O178 Fe176 1.918 . S
O178 Fe177 1.918 . S
O178 Fe179 1.918 . S
Fe179 O178 1.918 . S
Fe179 O180 2.002 . S
Fe179 O189 1.976 . S
Fe179 O193 1.996 . S
Fe179 O196 1.997 . S
O180 Fe179 2.002 . S
O180 C197 1.295 . S
O181 Fe176 1.997 . S
O181 C197 1.235 . S
O182 Fe176 2.002 . S
O182 C183 1.295 . S
C183 O182 1.295 . S
C183 O185 1.235 . S
C184 O189 1.287 . S
C184 O190 1.255 . S
O185 Fe177 1.997 . S
O185 C183 1.235 . S
C186 O192 1.287 . S
C186 O193 1.255 . S
O187 Fe176 1.976 . S
O187 C194 1.287 . S
O188 Fe177 1.996 . S
O188 C194 1.255 . S
O189 Fe179 1.976 . S
O189 C184 1.287 . S
O190 Fe176 1.996 . S
O190 C184 1.255 . S
C191 O195 1.295 . S
C191 O196 1.235 . S
O192 Fe177 1.976 . S
O192 C186 1.287 . S
O193 Fe179 1.996 . S
O193 C186 1.255 . S
C194 O187 1.287 . S
C194 O188 1.255 . S
O195 Fe177 2.002 . S
O195 C191 1.295 . S
O196 Fe179 1.997 . S
O196 C191 1.235 . S
C197 O180 1.295 . S
C197 O181 1.235 . S
Fe198 O200 1.918 . S
Fe198 O203 1.997 . S
Fe198 O204 2.002 . S
Fe198 O209 1.976 . S
Fe198 O212 1.996 . S
Fe199 O200 1.918 . S
Fe199 O207 1.997 . S
Fe199 O210 1.996 . S
Fe199 O214 1.976 . S
Fe199 O217 2.002 . S
O200 Fe198 1.918 . S
O200 Fe199 1.918 . S
O200 Fe201 1.918 . S
Fe201 O200 1.918 . S
Fe201 O202 2.002 . S
Fe201 O211 1.976 . S
Fe201 O215 1.996 . S
Fe201 O218 1.997 . S
O202 Fe201 2.002 . S
O202 C219 1.295 . S
O203 Fe198 1.997 . S
O203 C219 1.235 . S
O204 Fe198 2.002 . S
O204 C205 1.295 . S
C205 O204 1.295 . S
C205 O207 1.235 . S
C206 O211 1.287 . S
C206 O212 1.255 . S
O207 Fe199 1.997 . S
O207 C205 1.235 . S
C208 O214 1.287 . S
C208 O215 1.255 . S
O209 Fe198 1.976 . S
O209 C216 1.287 . S
O210 Fe199 1.996 . S
O210 C216 1.255 . S
O211 Fe201 1.976 . S
O211 C206 1.287 . S
O212 Fe198 1.996 . S
O212 C206 1.255 . S
C213 O217 1.295 . S
C213 O218 1.235 . S
O214 Fe199 1.976 . S
O214 C208 1.287 . S
O215 Fe201 1.996 . S
O215 C208 1.255 . S
C216 O209 1.287 . S
C216 O210 1.255 . S
O217 Fe199 2.002 . S
O217 C213 1.295 . S
O218 Fe201 1.997 . S
O218 C213 1.235 . S
C219 O202 1.295 . S
C219 O203 1.235 . S
Fe220 O222 1.918 . S
Fe220 O225 1.997 . S
Fe220 O226 2.002 . S
Fe220 O231 1.976 . S
Fe220 O234 1.996 . S
Fe221 O222 1.918 . S
Fe221 O229 1.997 . S
Fe221 O232 1.996 . S
Fe221 O236 1.976 . S
Fe221 O239 2.002 . S
O222 Fe220 1.918 . S
O222 Fe221 1.918 . S
O222 Fe223 1.918 . S
Fe223 O222 1.918 . S
Fe223 O224 2.002 . S
Fe223 O233 1.976 . S
Fe223 O237 1.996 . S
Fe223 O240 1.997 . S
O224 Fe223 2.002 . S
O224 C241 1.295 . S
O225 Fe220 1.997 . S
O225 C241 1.235 . S
O226 Fe220 2.002 . S
O226 C227 1.295 . S
C227 O226 1.295 . S
C227 O229 1.235 . S
C228 O233 1.287 . S
C228 O234 1.255 . S
O229 Fe221 1.997 . S
O229 C227 1.235 . S
C230 O236 1.287 . S
C230 O237 1.255 . S
O231 Fe220 1.976 . S
O231 C238 1.287 . S
O232 Fe221 1.996 . S
O232 C238 1.255 . S
O233 Fe223 1.976 . S
O233 C228 1.287 . S
O234 Fe220 1.996 . S
O234 C228 1.255 . S
C235 O239 1.295 . S
C235 O240 1.235 . S
O236 Fe221 1.976 . S
O236 C230 1.287 . S
O237 Fe223 1.996 . S
O237 C230 1.255 . S
C238 O231 1.287 . S
C238 O232 1.255 . S
O239 Fe221 2.002 . S
O239 C235 1.295 . S
O240 Fe223 1.997 . S
O240 C235 1.235 . S
C241 O224 1.295 . S
C241 O225 1.235 . S
Fe242 O244 1.918 . S
Fe242 O247 1.997 . S
Fe242 O248 2.002 . S
Fe242 O253 1.976 . S
Fe242 O256 1.996 . S
Fe243 O244 1.918 . S
Fe243 O251 1.997 . S
Fe243 O254 1.996 . S
Fe243 O258 1.976 . S
Fe243 O261 2.002 . S
O244 Fe242 1.918 . S
O244 Fe243 1.918 . S
O244 Fe245 1.918 . S
Fe245 O244 1.918 . S
Fe245 O246 2.002 . S
Fe245 O255 1.976 . S
Fe245 O259 1.996 . S
Fe245 O262 1.997 . S
O246 Fe245 2.002 . S
O246 C263 1.295 . S
O247 Fe242 1.997 . S
O247 C263 1.235 . S
O248 Fe242 2.002 . S
O248 C249 1.295 . S
C249 O248 1.295 . S
C249 O251 1.235 . S
C250 O255 1.287 . S
C250 O256 1.255 . S
O251 Fe243 1.997 . S
O251 C249 1.235 . S
C252 O258 1.287 . S
C252 O259 1.255 . S
O253 Fe242 1.976 . S
O253 C260 1.287 . S
O254 Fe243 1.996 . S
O254 C260 1.255 . S
O255 Fe245 1.976 . S
O255 C250 1.287 . S
O256 Fe242 1.996 . S
O256 C250 1.255 . S
C257 O261 1.295 . S
C257 O262 1.235 . S
O258 Fe243 1.976 . S
O258 C252 1.287 . S
O259 Fe245 1.996 . S
O259 C252 1.255 . S
C260 O253 1.287 . S
C260 O254 1.255 . S
O261 Fe243 2.002 . S
O261 C257 1.295 . S
O262 Fe245 1.997 . S
O262 C257 1.235 . S
C263 O246 1.295 . S
C263 O247 1.235 . S
Fe264 O266 1.918 . S
Fe264 O269 1.997 . S
Fe264 O270 2.002 . S
Fe264 O275 1.976 . S
Fe264 O278 1.996 . S
Fe265 O266 1.918 . S
Fe265 O273 1.997 . S
Fe265 O276 1.996 . S
Fe265 O280 1.976 . S
Fe265 O283 2.002 . S
O266 Fe264 1.918 . S
O266 Fe265 1.918 . S
O266 Fe267 1.918 . S
Fe267 O266 1.918 . S
Fe267 O268 2.002 . S
Fe267 O277 1.976 . S
Fe267 O281 1.996 . S
Fe267 O284 1.997 . S
O268 Fe267 2.002 . S
O268 C285 1.295 . S
O269 Fe264 1.997 . S
O269 C285 1.235 . S
O270 Fe264 2.002 . S
O270 C271 1.295 . S
C271 O270 1.295 . S
C271 O273 1.235 . S
C272 O277 1.287 . S
C272 O278 1.255 . S
O273 Fe265 1.997 . S
O273 C271 1.235 . S
C274 O280 1.287 . S
C274 O281 1.255 . S
O275 Fe264 1.976 . S
O275 C282 1.287 . S
O276 Fe265 1.996 . S
O276 C282 1.255 . S
O277 Fe267 1.976 . S
O277 C272 1.287 . S
O278 Fe264 1.996 . S
O278 C272 1.255 . S
C279 O283 1.295 . S
C279 O284 1.235 . S
O280 Fe265 1.976 . S
O280 C274 1.287 . S
O281 Fe267 1.996 . S
O281 C274 1.255 . S
C282 O275 1.287 . S
C282 O276 1.255 . S
O283 Fe265 2.002 . S
O283 C279 1.295 . S
O284 Fe267 1.997 . S
O284 C279 1.235 . S
C285 O268 1.295 . S
C285 O269 1.235 . S
Fe286 O288 1.918 . S
Fe286 O291 1.997 . S
Fe286 O292 2.002 . S
Fe286 O297 1.976 . S
Fe286 O300 1.996 . S
Fe287 O288 1.918 . S
Fe287 O295 1.997 . S
Fe287 O298 1.996 . S
Fe287 O302 1.976 . S
Fe287 O305 2.002 . S
O288 Fe286 1.918 . S
O288 Fe287 1.918 . S
O288 Fe289 1.918 . S
Fe289 O288 1.918 . S
Fe289 O290 2.002 . S
Fe289 O299 1.976 . S
Fe289 O303 1.996 . S
Fe289 O306 1.997 . S
O290 Fe289 2.002 . S
O290 C307 1.295 . S
O291 Fe286 1.997 . S
O291 C307 1.235 . S
O292 Fe286 2.002 . S
O292 C293 1.295 . S
C293 O292 1.295 . S
C293 O295 1.235 . S
C294 O299 1.287 . S
C294 O300 1.255 . S
O295 Fe287 1.997 . S
O295 C293 1.235 . S
C296 O302 1.287 . S
C296 O303 1.255 . S
O297 Fe286 1.976 . S
O297 C304 1.287 . S
O298 Fe287 1.996 . S
O298 C304 1.255 . S
O299 Fe289 1.976 . S
O299 C294 1.287 . S
O300 Fe286 1.996 . S
O300 C294 1.255 . S
C301 O305 1.295 . S
C301 O306 1.235 . S
O302 Fe287 1.976 . S
O302 C296 1.287 . S
O303 Fe289 1.996 . S
O303 C296 1.255 . S
C304 O297 1.287 . S
C304 O298 1.255 . S
O305 Fe287 2.002 . S
O305 C301 1.295 . S
O306 Fe289 1.997 . S
O306 C301 1.235 . S
C307 O290 1.295 . S
C307 O291 1.235 . S
Fe308 O310 1.918 . S
Fe308 O313 1.997 . S
Fe308 O314 2.002 . S
Fe308 O319 1.976 . S
Fe308 O322 1.996 . S
Fe309 O310 1.918 . S
Fe309 O317 1.997 . S
Fe309 O320 1.996 . S
Fe309 O324 1.976 . S
Fe309 O327 2.002 . S
O310 Fe308 1.918 . S
O310 Fe309 1.918 . S
O310 Fe311 1.918 . S
Fe311 O310 1.918 . S
Fe311 O312 2.002 . S
Fe311 O321 1.976 . S
Fe311 O325 1.996 . S
Fe311 O328 1.997 . S
O312 Fe311 2.002 . S
O312 C329 1.295 . S
O313 Fe308 1.997 . S
O313 C329 1.235 . S
O314 Fe308 2.002 . S
O314 C315 1.295 . S
C315 O314 1.295 . S
C315 O317 1.235 . S
C316 O321 1.287 . S
C316 O322 1.255 . S
O317 Fe309 1.997 . S
O317 C315 1.235 . S
C318 O324 1.287 . S
C318 O325 1.255 . S
O319 Fe308 1.976 . S
O319 C326 1.287 . S
O320 Fe309 1.996 . S
O320 C326 1.255 . S
O321 Fe311 1.976 . S
O321 C316 1.287 . S
O322 Fe308 1.996 . S
O322 C316 1.255 . S
C323 O327 1.295 . S
C323 O328 1.235 . S
O324 Fe309 1.976 . S
O324 C318 1.287 . S
O325 Fe311 1.996 . S
O325 C318 1.255 . S
C326 O319 1.287 . S
C326 O320 1.255 . S
O327 Fe309 2.002 . S
O327 C323 1.295 . S
O328 Fe311 1.997 . S
O328 C323 1.235 . S
C329 O312 1.295 . S
C329 O313 1.235 . S
Fe330 O332 1.918 . S
Fe330 O335 1.997 . S
Fe330 O336 2.002 . S
Fe330 O341 1.976 . S
Fe330 O344 1.996 . S
Fe331 O332 1.918 . S
Fe331 O339 1.997 . S
Fe331 O342 1.996 . S
Fe331 O346 1.976 . S
Fe331 O349 2.002 . S
O332 Fe330 1.918 . S
O332 Fe331 1.918 . S
O332 Fe333 1.918 . S
Fe333 O332 1.918 . S
Fe333 O334 2.002 . S
Fe333 O343 1.976 . S
Fe333 O347 1.996 . S
Fe333 O350 1.997 . S
O334 Fe333 2.002 . S
O334 C351 1.295 . S
O335 Fe330 1.997 . S
O335 C351 1.235 . S
O336 Fe330 2.002 . S
O336 C337 1.295 . S
C337 O336 1.295 . S
C337 O339 1.235 . S
C338 O343 1.287 . S
C338 O344 1.255 . S
O339 Fe331 1.997 . S
O339 C337 1.235 . S
C340 O346 1.287 . S
C340 O347 1.255 . S
O341 Fe330 1.976 . S
O341 C348 1.287 . S
O342 Fe331 1.996 . S
O342 C348 1.255 . S
O343 Fe333 1.976 . S
O343 C338 1.287 . S
O344 Fe330 1.996 . S
O344 C338 1.255 . S
C345 O349 1.295 . S
C345 O350 1.235 . S
O346 Fe331 1.976 . S
O346 C340 1.287 . S
O347 Fe333 1.996 . S
O347 C340 1.255 . S
C348 O341 1.287 . S
C348 O342 1.255 . S
O349 Fe331 2.002 . S
O349 C345 1.295 . S
O350 Fe333 1.997 . S
O350 C345 1.235 . S
C351 O334 1.295 . S
C351 O335 1.235 . S
Fe352 O354 1.918 . S
Fe352 O357 1.997 . S
Fe352 O358 2.002 . S
Fe352 O363 1.976 . S
Fe352 O366 1.996 . S
Fe353 O354 1.918 . S
Fe353 O361 1.997 . S
Fe353 O364 1.996 . S
Fe353 O368 1.976 . S
Fe353 O371 2.002 . S
O354 Fe352 1.918 . S
O354 Fe353 1.918 . S
O354 Fe355 1.918 . S
Fe355 O354 1.918 . S
Fe355 O356 2.002 . S
Fe355 O365 1.976 . S
Fe355 O369 1.996 . S
Fe355 O372 1.997 . S
O356 Fe355 2.002 . S
O356 C373 1.295 . S
O357 Fe352 1.997 . S
O357 C373 1.235 . S
O358 Fe352 2.002 . S
O358 C359 1.295 . S
C359 O358 1.295 . S
C359 O361 1.235 . S
C360 O365 1.287 . S
C360 O366 1.255 . S
O361 Fe353 1.997 . S
O361 C359 1.235 . S
C362 O368 1.287 . S
C362 O369 1.255 . S
O363 Fe352 1.976 . S
O363 C370 1.287 . S
O364 Fe353 1.996 . S
O364 C370 1.255 . S
O365 Fe355 1.976 . S
O365 C360 1.287 . S
O366 Fe352 1.996 . S
O366 C360 1.255 . S
C367 O371 1.295 . S
C367 O372 1.235 . S
O368 Fe353 1.976 . S
O368 C362 1.287 . S
O369 Fe355 1.996 . S
O369 C362 1.255 . S
C370 O363 1.287 . S
C370 O364 1.255 . S
O371 Fe353 2.002 . S
O371 C367 1.295 . S
O372 Fe355 1.997 . S
O372 C367 1.235 . S
C373 O356 1.295 . S
C373 O357 1.235 . S
Fe374 O376 1.918 . S
Fe374 O379 1.997 . S
Fe374 O380 2.002 . S
Fe374 O385 1.976 . S
Fe374 O388 1.996 . S
Fe375 O376 1.918 . S
Fe375 O383 1.997 . S
Fe375 O386 1.996 . S
Fe375 O390 1.976 . S
Fe375 O393 2.002 . S
O376 Fe374 1.918 . S
O376 Fe375 1.918 . S
O376 Fe377 1.918 . S
Fe377 O376 1.918 . S
Fe377 O378 2.002 . S
Fe377 O387 1.976 . S
Fe377 O391 1.996 . S
Fe377 O394 1.997 . S
O378 Fe377 2.002 . S
O378 C395 1.295 . S
O379 Fe374 1.997 . S
O379 C395 1.235 . S
O380 Fe374 2.002 . S
O380 C381 1.295 . S
C381 O380 1.295 . S
C381 O383 1.235 . S
C382 O387 1.287 . S
C382 O388 1.255 . S
O383 Fe375 1.997 . S
O383 C381 1.235 . S
C384 O390 1.287 . S
C384 O391 1.255 . S
O385 Fe374 1.976 . S
O385 C392 1.287 . S
O386 Fe375 1.996 . S
O386 C392 1.255 . S
O387 Fe377 1.976 . S
O387 C382 1.287 . S
O388 Fe374 1.996 . S
O388 C382 1.255 . S
C389 O393 1.295 . S
C389 O394 1.235 . S
O390 Fe375 1.976 . S
O390 C384 1.287 . S
O391 Fe377 1.996 . S
O391 C384 1.255 . S
C392 O385 1.287 . S
C392 O386 1.255 . S
O393 Fe375 2.002 . S
O393 C389 1.295 . S
O394 Fe377 1.997 . S
O394 C389 1.235 . S
C395 O378 1.295 . S
C395 O379 1.235 . S
Fe396 O398 1.918 . S
Fe396 O401 1.997 . S
Fe396 O402 2.002 . S
Fe396 O407 1.976 . S
Fe396 O410 1.996 . S
Fe397 O398 1.918 . S
Fe397 O405 1.997 . S
Fe397 O408 1.996 . S
Fe397 O412 1.976 . S
Fe397 O415 2.002 . S
O398 Fe396 1.918 . S
O398 Fe397 1.918 . S
O398 Fe399 1.918 . S
Fe399 O398 1.918 . S
Fe399 O400 2.002 . S
Fe399 O409 1.976 . S
Fe399 O413 1.996 . S
Fe399 O416 1.997 . S
O400 Fe399 2.002 . S
O400 C417 1.295 . S
O401 Fe396 1.997 . S
O401 C417 1.235 . S
O402 Fe396 2.002 . S
O402 C403 1.295 . S
C403 O402 1.295 . S
C403 O405 1.235 . S
C404 O409 1.287 . S
C404 O410 1.255 . S
O405 Fe397 1.997 . S
O405 C403 1.235 . S
C406 O412 1.287 . S
C406 O413 1.255 . S
O407 Fe396 1.976 . S
O407 C414 1.287 . S
O408 Fe397 1.996 . S
O408 C414 1.255 . S
O409 Fe399 1.976 . S
O409 C404 1.287 . S
O410 Fe396 1.996 . S
O410 C404 1.255 . S
C411 O415 1.295 . S
C411 O416 1.235 . S
O412 Fe397 1.976 . S
O412 C406 1.287 . S
O413 Fe399 1.996 . S
O413 C406 1.255 . S
C414 O407 1.287 . S
C414 O408 1.255 . S
O415 Fe397 2.002 . S
O415 C411 1.295 . S
O416 Fe399 1.997 . S
O416 C411 1.235 . S
C417 O400 1.295 . S
C417 O401 1.235 . S
Fe418 O420 1.918 . S
Fe418 O423 1.997 . S
Fe418 O424 2.002 . S
Fe418 O429 1.976 . S
Fe418 O432 1.996 . S
Fe419 O420 1.918 . S
Fe419 O427 1.997 . S
Fe419 O430 1.996 . S
Fe419 O434 1.976 . S
Fe419 O437 2.002 . S
O420 Fe418 1.918 . S
O420 Fe419 1.918 . S
O420 Fe421 1.918 . S
Fe421 O420 1.918 . S
Fe421 O422 2.002 . S
Fe421 O431 1.976 . S
Fe421 O435 1.996 . S
Fe421 O438 1.997 . S
O422 Fe421 2.002 . S
O422 C439 1.295 . S
O423 Fe418 1.997 . S
O423 C439 1.235 . S
O424 Fe418 2.002 . S
O424 C425 1.295 . S
C425 O424 1.295 . S
C425 O427 1.235 . S
C426 O431 1.287 . S
C426 O432 1.255 . S
O427 Fe419 1.997 . S
O427 C425 1.235 . S
C428 O434 1.287 . S
C428 O435 1.255 . S
O429 Fe418 1.976 . S
O429 C436 1.287 . S
O430 Fe419 1.996 . S
O430 C436 1.255 . S
O431 Fe421 1.976 . S
O431 C426 1.287 . S
O432 Fe418 1.996 . S
O432 C426 1.255 . S
C433 O437 1.295 . S
C433 O438 1.235 . S
O434 Fe419 1.976 . S
O434 C428 1.287 . S
O435 Fe421 1.996 . S
O435 C428 1.255 . S
C436 O429 1.287 . S
C436 O430 1.255 . S
O437 Fe419 2.002 . S
O437 C433 1.295 . S
O438 Fe421 1.997 . S
O438 C433 1.235 . S
C439 O422 1.295 . S
C439 O423 1.235 . S
Fe440 O442 1.918 . S
Fe440 O445 1.997 . S
Fe440 O446 2.002 . S
Fe440 O451 1.976 . S
Fe440 O454 1.996 . S
Fe441 O442 1.918 . S
Fe441 O449 1.997 . S
Fe441 O452 1.996 . S
Fe441 O456 1.976 . S
Fe441 O459 2.002 . S
O442 Fe440 1.918 . S
O442 Fe441 1.918 . S
O442 Fe443 1.918 . S
Fe443 O442 1.918 . S
Fe443 O444 2.002 . S
Fe443 O453 1.976 . S
Fe443 O457 1.996 . S
Fe443 O460 1.997 . S
O444 Fe443 2.002 . S
O444 C461 1.295 . S
O445 Fe440 1.997 . S
O445 C461 1.235 . S
O446 Fe440 2.002 . S
O446 C447 1.295 . S
C447 O446 1.295 . S
C447 O449 1.235 . S
C448 O453 1.287 . S
C448 O454 1.255 . S
O449 Fe441 1.997 . S
O449 C447 1.235 . S
C450 O456 1.287 . S
C450 O457 1.255 . S
O451 Fe440 1.976 . S
O451 C458 1.287 . S
O452 Fe441 1.996 . S
O452 C458 1.255 . S
O453 Fe443 1.976 . S
O453 C448 1.287 . S
O454 Fe440 1.996 . S
O454 C448 1.255 . S
C455 O459 1.295 . S
C455 O460 1.235 . S
O456 Fe441 1.976 . S
O456 C450 1.287 . S
O457 Fe443 1.996 . S
O457 C450 1.255 . S
C458 O451 1.287 . S
C458 O452 1.255 . S
O459 Fe441 2.002 . S
O459 C455 1.295 . S
O460 Fe443 1.997 . S
O460 C455 1.235 . S
C461 O444 1.295 . S
C461 O445 1.235 . S
Fe462 O464 1.918 . S
Fe462 O467 1.997 . S
Fe462 O468 2.002 . S
Fe462 O473 1.976 . S
Fe462 O476 1.996 . S
Fe463 O464 1.918 . S
Fe463 O471 1.997 . S
Fe463 O474 1.996 . S
Fe463 O478 1.976 . S
Fe463 O481 2.002 . S
O464 Fe462 1.918 . S
O464 Fe463 1.918 . S
O464 Fe465 1.918 . S
Fe465 O464 1.918 . S
Fe465 O466 2.002 . S
Fe465 O475 1.976 . S
Fe465 O479 1.996 . S
Fe465 O482 1.997 . S
O466 Fe465 2.002 . S
O466 C483 1.295 . S
O467 Fe462 1.997 . S
O467 C483 1.235 . S
O468 Fe462 2.002 . S
O468 C469 1.295 . S
C469 O468 1.295 . S
C469 O471 1.235 . S
C470 O475 1.287 . S
C470 O476 1.255 . S
O471 Fe463 1.997 . S
O471 C469 1.235 . S
C472 O478 1.287 . S
C472 O479 1.255 . S
O473 Fe462 1.976 . S
O473 C480 1.287 . S
O474 Fe463 1.996 . S
O474 C480 1.255 . S
O475 Fe465 1.976 . S
O475 C470 1.287 . S
O476 Fe462 1.996 . S
O476 C470 1.255 . S
C477 O481 1.295 . S
C477 O482 1.235 . S
O478 Fe463 1.976 . S
O478 C472 1.287 . S
O479 Fe465 1.996 . S
O479 C472 1.255 . S
C480 O473 1.287 . S
C480 O474 1.255 . S
O481 Fe463 2.002 . S
O481 C477 1.295 . S
O482 Fe465 1.997 . S
O482 C477 1.235 . S
C483 O466 1.295 . S
C483 O467 1.235 . S
Fe484 O486 1.918 . S
Fe484 O489 1.997 . S
Fe484 O490 2.002 . S
Fe484 O495 1.976 . S
Fe484 O498 1.996 . S
Fe485 O486 1.918 . S
Fe485 O493 1.997 . S
Fe485 O496 1.996 . S
Fe485 O500 1.976 . S
Fe485 O503 2.002 . S
O486 Fe484 1.918 . S
O486 Fe485 1.918 . S
O486 Fe487 1.918 . S
Fe487 O486 1.918 . S
Fe487 O488 2.002 . S
Fe487 O497 1.976 . S
Fe487 O501 1.996 . S
Fe487 O504 1.997 . S
O488 Fe487 2.002 . S
O488 C505 1.295 . S
O489 Fe484 1.997 . S
O489 C505 1.235 . S
O490 Fe484 2.002 . S
O490 C491 1.295 . S
C491 O490 1.295 . S
C491 O493 1.235 . S
C492 O497 1.287 . S
C492 O498 1.255 . S
O493 Fe485 1.997 . S
O493 C491 1.235 . S
C494 O500 1.287 . S
C494 O501 1.255 . S
O495 Fe484 1.976 . S
O495 C502 1.287 . S
O496 Fe485 1.996 . S
O496 C502 1.255 . S
O497 Fe487 1.976 . S
O497 C492 1.287 . S
O498 Fe484 1.996 . S
O498 C492 1.255 . S
C499 O503 1.295 . S
C499 O504 1.235 . S
O500 Fe485 1.976 . S
O500 C494 1.287 . S
O501 Fe487 1.996 . S
O501 C494 1.255 . S
C502 O495 1.287 . S
C502 O496 1.255 . S
O503 Fe485 2.002 . S
O503 C499 1.295 . S
O504 Fe487 1.997 . S
O504 C499 1.235 . S
C505 O488 1.295 . S
C505 O489 1.235 . S
Fe506 O508 1.918 . S
Fe506 O511 1.997 . S
Fe506 O512 2.002 . S
Fe506 O517 1.976 . S
Fe506 O520 1.996 . S
Fe507 O508 1.918 . S
Fe507 O515 1.997 . S
Fe507 O518 1.996 . S
Fe507 O522 1.976 . S
Fe507 O525 2.002 . S
O508 Fe506 1.918 . S
O508 Fe507 1.918 . S
O508 Fe509 1.918 . S
Fe509 O508 1.918 . S
Fe509 O510 2.002 . S
Fe509 O519 1.976 . S
Fe509 O523 1.996 . S
Fe509 O526 1.997 . S
O510 Fe509 2.002 . S
O510 C527 1.295 . S
O511 Fe506 1.997 . S
O511 C527 1.235 . S
O512 Fe506 2.002 . S
O512 C513 1.295 . S
C513 O512 1.295 . S
C513 O515 1.235 . S
C514 O519 1.287 . S
C514 O520 1.255 . S
O515 Fe507 1.997 . S
O515 C513 1.235 . S
C516 O522 1.287 . S
C516 O523 1.255 . S
O517 Fe506 1.976 . S
O517 C524 1.287 . S
O518 Fe507 1.996 . S
O518 C524 1.255 . S
O519 Fe509 1.976 . S
O519 C514 1.287 . S
O520 Fe506 1.996 . S
O520 C514 1.255 . S
C521 O525 1.295 . S
C521 O526 1.235 . S
O522 Fe507 1.976 . S
O522 C516 1.287 . S
O523 Fe509 1.996 . S
O523 C516 1.255 . S
C524 O517 1.287 . S
C524 O518 1.255 . S
O525 Fe507 2.002 . S
O525 C521 1.295 . S
O526 Fe509 1.997 . S
O526 C521 1.235 . S
C527 O510 1.295 . S
C527 O511 1.235 . S
Fe528 O530 1.918 . S
Fe528 O533 1.997 . S
Fe528 O534 2.002 . S
Fe528 O539 1.976 . S
Fe528 O542 1.996 . S
Fe529 O530 1.918 . S
Fe529 O537 1.997 . S
Fe529 O540 1.996 . S
Fe529 O544 1.976 . S
Fe529 O547 2.002 . S
O530 Fe528 1.918 . S
O530 Fe529 1.918 . S
O530 Fe531 1.918 . S
Fe531 O530 1.918 . S
Fe531 O532 2.002 . S
Fe531 O541 1.976 . S
Fe531 O545 1.996 . S
Fe531 O548 1.997 . S
O532 Fe531 2.002 . S
O532 C549 1.295 . S
O533 Fe528 1.997 . S
O533 C549 1.235 . S
O534 Fe528 2.002 . S
O534 C535 1.295 . S
C535 O534 1.295 . S
C535 O537 1.235 . S
C536 O541 1.287 . S
C536 O542 1.255 . S
O537 Fe529 1.997 . S
O537 C535 1.235 . S
C538 O544 1.287 . S
C538 O545 1.255 . S
O539 Fe528 1.976 . S
O539 C546 1.287 . S
O540 Fe529 1.996 . S
O540 C546 1.255 . S
O541 Fe531 1.976 . S
O541 C536 1.287 . S
O542 Fe528 1.996 . S
O542 C536 1.255 . S
C543 O547 1.295 . S
C543 O548 1.235 . S
O544 Fe529 1.976 . S
O544 C538 1.287 . S
O545 Fe531 1.996 . S
O545 C538 1.255 . S
C546 O539 1.287 . S
C546 O540 1.255 . S
O547 Fe529 2.002 . S
O547 C543 1.295 . S
O548 Fe531 1.997 . S
O548 C543 1.235 . S
C549 O532 1.295 . S
C549 O533 1.235 . S
Fe550 O552 1.918 . S
Fe550 O555 1.997 . S
Fe550 O556 2.002 . S
Fe550 O561 1.976 . S
Fe550 O564 1.996 . S
Fe551 O552 1.918 . S
Fe551 O559 1.997 . S
Fe551 O562 1.996 . S
Fe551 O566 1.976 . S
Fe551 O569 2.002 . S
O552 Fe550 1.918 . S
O552 Fe551 1.918 . S
O552 Fe553 1.918 . S
Fe553 O552 1.918 . S
Fe553 O554 2.002 . S
Fe553 O563 1.976 . S
Fe553 O567 1.996 . S
Fe553 O570 1.997 . S
O554 Fe553 2.002 . S
O554 C571 1.295 . S
O555 Fe550 1.997 . S
O555 C571 1.235 . S
O556 Fe550 2.002 . S
O556 C557 1.295 . S
C557 O556 1.295 . S
C557 O559 1.235 . S
C558 O563 1.287 . S
C558 O564 1.255 . S
O559 Fe551 1.997 . S
O559 C557 1.235 . S
C560 O566 1.287 . S
C560 O567 1.255 . S
O561 Fe550 1.976 . S
O561 C568 1.287 . S
O562 Fe551 1.996 . S
O562 C568 1.255 . S
O563 Fe553 1.976 . S
O563 C558 1.287 . S
O564 Fe550 1.996 . S
O564 C558 1.255 . S
C565 O569 1.295 . S
C565 O570 1.235 . S
O566 Fe551 1.976 . S
O566 C560 1.287 . S
O567 Fe553 1.996 . S
O567 C560 1.255 . S
C568 O561 1.287 . S
C568 O562 1.255 . S
O569 Fe551 2.002 . S
O569 C565 1.295 . S
O570 Fe553 1.997 . S
O570 C565 1.235 . S
C571 O554 1.295 . S
C571 O555 1.235 . S
Fe572 O574 1.918 . S
Fe572 O577 1.997 . S
Fe572 O578 2.002 . S
Fe572 O583 1.976 . S
Fe572 O586 1.996 . S
Fe573 O574 1.918 . S
Fe573 O581 1.997 . S
Fe573 O584 1.996 . S
Fe573 O588 1.976 . S
Fe573 O591 2.002 . S
O574 Fe572 1.918 . S
O574 Fe573 1.918 . S
O574 Fe575 1.918 . S
Fe575 O574 1.918 . S
Fe575 O576 2.002 . S
Fe575 O585 1.976 . S
Fe575 O589 1.996 . S
Fe575 O592 1.997 . S
O576 Fe575 2.002 . S
O576 C593 1.295 . S
O577 Fe572 1.997 . S
O577 C593 1.235 . S
O578 Fe572 2.002 . S
O578 C579 1.295 . S
C579 O578 1.295 . S
C579 O581 1.235 . S
C580 O585 1.287 . S
C580 O586 1.255 . S
O581 Fe573 1.997 . S
O581 C579 1.235 . S
C582 O588 1.287 . S
C582 O589 1.255 . S
O583 Fe572 1.976 . S
O583 C590 1.287 . S
O584 Fe573 1.996 . S
O584 C590 1.255 . S
O585 Fe575 1.976 . S
O585 C580 1.287 . S
O586 Fe572 1.996 . S
O586 C580 1.255 . S
C587 O591 1.295 . S
C587 O592 1.235 . S
O588 Fe573 1.976 . S
O588 C582 1.287 . S
O589 Fe575 1.996 . S
O589 C582 1.255 . S
C590 O583 1.287 . S
C590 O584 1.255 . S
O591 Fe573 2.002 . S
O591 C587 1.295 . S
O592 Fe575 1.997 . S
O592 C587 1.235 . S
C593 O576 1.295 . S
C593 O577 1.235 . S
Fe594 O596 1.918 . S
Fe594 O599 1.997 . S
Fe594 O600 2.002 . S
Fe594 O605 1.976 . S
Fe594 O608 1.996 . S
Fe595 O596 1.918 . S
Fe595 O603 1.997 . S
Fe595 O606 1.996 . S
Fe595 O610 1.976 . S
Fe595 O613 2.002 . S
O596 Fe594 1.918 . S
O596 Fe595 1.918 . S
O596 Fe597 1.918 . S
Fe597 O596 1.918 . S
Fe597 O598 2.002 . S
Fe597 O607 1.976 . S
Fe597 O611 1.996 . S
Fe597 O614 1.997 . S
O598 Fe597 2.002 . S
O598 C615 1.295 . S
O599 Fe594 1.997 . S
O599 C615 1.235 . S
O600 Fe594 2.002 . S
O600 C601 1.295 . S
C601 O600 1.295 . S
C601 O603 1.235 . S
C602 O607 1.287 . S
C602 O608 1.255 . S
O603 Fe595 1.997 . S
O603 C601 1.235 . S
C604 O610 1.287 . S
C604 O611 1.255 . S
O605 Fe594 1.976 . S
O605 C612 1.287 . S
O606 Fe595 1.996 . S
O606 C612 1.255 . S
O607 Fe597 1.976 . S
O607 C602 1.287 . S
O608 Fe594 1.996 . S
O608 C602 1.255 . S
C609 O613 1.295 . S
C609 O614 1.235 . S
O610 Fe595 1.976 . S
O610 C604 1.287 . S
O611 Fe597 1.996 . S
O611 C604 1.255 . S
C612 O605 1.287 . S
C612 O606 1.255 . S
O613 Fe595 2.002 . S
O613 C609 1.295 . S
O614 Fe597 1.997 . S
O614 C609 1.235 . S
C615 O598 1.295 . S
C615 O599 1.235 . S
Fe616 O618 1.918 . S
Fe616 O621 1.997 . S
Fe616 O622 2.002 . S
Fe616 O627 1.976 . S
Fe616 O630 1.996 . S
Fe617 O618 1.918 . S
Fe617 O625 1.997 . S
Fe617 O628 1.996 . S
Fe617 O632 1.976 . S
Fe617 O635 2.002 . S
O618 Fe616 1.918 . S
O618 Fe617 1.918 . S
O618 Fe619 1.918 . S
Fe619 O618 1.918 . S
Fe619 O620 2.002 . S
Fe619 O629 1.976 . S
Fe619 O633 1.996 . S
Fe619 O636 1.997 . S
O620 Fe619 2.002 . S
O620 C637 1.295 . S
O621 Fe616 1.997 . S
O621 C637 1.235 . S
O622 Fe616 2.002 . S
O622 C623 1.295 . S
C623 O622 1.295 . S
C623 O625 1.235 . S
C624 O629 1.287 . S
C624 O630 1.255 . S
O625 Fe617 1.997 . S
O625 C623 1.235 . S
C626 O632 1.287 . S
C626 O633 1.255 . S
O627 Fe616 1.976 . S
O627 C634 1.287 . S
O628 Fe617 1.996 . S
O628 C634 1.255 . S
O629 Fe619 1.976 . S
O629 C624 1.287 . S
O630 Fe616 1.996 . S
O630 C624 1.255 . S
C631 O635 1.295 . S
C631 O636 1.235 . S
O632 Fe617 1.976 . S
O632 C626 1.287 . S
O633 Fe619 1.996 . S
O633 C626 1.255 . S
C634 O627 1.287 . S
C634 O628 1.255 . S
O635 Fe617 2.002 . S
O635 C631 1.295 . S
O636 Fe619 1.997 . S
O636 C631 1.235 . S
C637 O620 1.295 . S
C637 O621 1.235 . S
Fe638 O640 1.918 . S
Fe638 O643 1.997 . S
Fe638 O644 2.002 . S
Fe638 O649 1.976 . S
Fe638 O652 1.996 . S
Fe639 O640 1.918 . S
Fe639 O647 1.997 . S
Fe639 O650 1.996 . S
Fe639 O654 1.976 . S
Fe639 O657 2.002 . S
O640 Fe638 1.918 . S
O640 Fe639 1.918 . S
O640 Fe641 1.918 . S
Fe641 O640 1.918 . S
Fe641 O642 2.002 . S
Fe641 O651 1.976 . S
Fe641 O655 1.996 . S
Fe641 O658 1.997 . S
O642 Fe641 2.002 . S
O642 C659 1.295 . S
O643 Fe638 1.997 . S
O643 C659 1.235 . S
O644 Fe638 2.002 . S
O644 C645 1.295 . S
C645 O644 1.295 . S
C645 O647 1.235 . S
C646 O651 1.287 . S
C646 O652 1.255 . S
O647 Fe639 1.997 . S
O647 C645 1.235 . S
C648 O654 1.287 . S
C648 O655 1.255 . S
O649 Fe638 1.976 . S
O649 C656 1.287 . S
O650 Fe639 1.996 . S
O650 C656 1.255 . S
O651 Fe641 1.976 . S
O651 C646 1.287 . S
O652 Fe638 1.996 . S
O652 C646 1.255 . S
C653 O657 1.295 . S
C653 O658 1.235 . S
O654 Fe639 1.976 . S
O654 C648 1.287 . S
O655 Fe641 1.996 . S
O655 C648 1.255 . S
C656 O649 1.287 . S
C656 O650 1.255 . S
O657 Fe639 2.002 . S
O657 C653 1.295 . S
O658 Fe641 1.997 . S
O658 C653 1.235 . S
C659 O642 1.295 . S
C659 O643 1.235 . S
Fe660 O662 1.918 . S
Fe660 O665 1.997 . S
Fe660 O666 2.002 . S
Fe660 O671 1.976 . S
Fe660 O674 1.996 . S
Fe661 O662 1.918 . S
Fe661 O669 1.997 . S
Fe661 O672 1.996 . S
Fe661 O676 1.976 . S
Fe661 O679 2.002 . S
O662 Fe660 1.918 . S
O662 Fe661 1.918 . S
O662 Fe663 1.918 . S
Fe663 O662 1.918 . S
Fe663 O664 2.002 . S
Fe663 O673 1.976 . S
Fe663 O677 1.996 . S
Fe663 O680 1.997 . S
O664 Fe663 2.002 . S
O664 C681 1.295 . S
O665 Fe660 1.997 . S
O665 C681 1.235 . S
O666 Fe660 2.002 . S
O666 C667 1.295 . S
C667 O666 1.295 . S
C667 O669 1.235 . S
C668 O673 1.287 . S
C668 O674 1.255 . S
O669 Fe661 1.997 . S
O669 C667 1.235 . S
C670 O676 1.287 . S
C670 O677 1.255 . S
O671 Fe660 1.976 . S
O671 C678 1.287 . S
O672 Fe661 1.996 . S
O672 C678 1.255 . S
O673 Fe663 1.976 . S
O673 C668 1.287 . S
O674 Fe660 1.996 . S
O674 C668 1.255 . S
C675 O679 1.295 . S
C675 O680 1.235 . S
O676 Fe661 1.976 . S
O676 C670 1.287 . S
O677 Fe663 1.996 . S
O677 C670 1.255 . S
C678 O671 1.287 . S
C678 O672 1.255 . S
O679 Fe661 2.002 . S
O679 C675 1.295 . S
O680 Fe663 1.997 . S
O680 C675 1.235 . S
C681 O664 1.295 . S
C681 O665 1.235 . S
Fe682 O684 1.918 . S
Fe682 O687 1.997 . S
Fe682 O688 2.002 . S
Fe682 O693 1.976 . S
Fe682 O696 1.996 . S
Fe683 O684 1.918 . S
Fe683 O691 1.997 . S
Fe683 O694 1.996 . S
Fe683 O698 1.976 . S
Fe683 O701 2.002 . S
O684 Fe682 1.918 . S
O684 Fe683 1.918 . S
O684 Fe685 1.918 . S
Fe685 O684 1.918 . S
Fe685 O686 2.002 . S
Fe685 O695 1.976 . S
Fe685 O699 1.996 . S
Fe685 O702 1.997 . S
O686 Fe685 2.002 . S
O686 C703 1.295 . S
O687 Fe682 1.997 . S
O687 C703 1.235 . S
O688 Fe682 2.002 . S
O688 C689 1.295 . S
C689 O688 1.295 . S
C689 O691 1.235 . S
C690 O695 1.287 . S
C690 O696 1.255 . S
O691 Fe683 1.997 . S
O691 C689 1.235 . S
C692 O698 1.287 . S
C692 O699 1.255 . S
O693 Fe682 1.976 . S
O693 C700 1.287 . S
O694 Fe683 1.996 . S
O694 C700 1.255 . S
O695 Fe685 1.976 . S
O695 C690 1.287 . S
O696 Fe682 1.996 . S
O696 C690 1.255 . S
C697 O701 1.295 . S
C697 O702 1.235 . S
O698 Fe683 1.976 . S
O698 C692 1.287 . S
O699 Fe685 1.996 . S
O699 C692 1.255 . S
C700 O693 1.287 . S
C700 O694 1.255 . S
O701 Fe683 2.002 . S
O701 C697 1.295 . S
O702 Fe685 1.997 . S
O702 C697 1.235 . S
C703 O686 1.295 . S
C703 O687 1.235 . S
C704 C705 1.349 . S
C704 C706 1.327 . S
C704 H729 0.950 . S
C705 C704 1.349 . S
C705 C721 1.349 1_556 S
C706 C704 1.327 . S
C706 C725 1.429 1_556 S
C706 H730 0.950 . S
C707 C724 1.574 . S
C707 C726 1.368 . S
C707 H731 0.949 . S
H708 C712 0.949 . S
C709 C710 1.349 . S
C709 C711 1.327 . S
C709 H732 0.950 . S
C710 C709 1.349 . S
C710 C722 1.349 . S
C711 C709 1.327 . S
C711 C727 1.429 . S
C711 H733 0.950 . S
C712 H708 0.949 . S
C712 C720 1.574 . S
C712 C728 1.368 . S
H713 C721 0.950 . S
H714 C719 0.950 . S
H715 C720 0.949 . S
H716 C722 0.950 . S
H717 C723 0.950 . S
H718 C724 0.949 . S
C719 H714 0.950 . S
C719 C721 1.327 . S
C719 C725 1.429 . S
C720 C712 1.574 . S
C720 H715 0.949 . S
C720 C726 1.368 . S
C721 C705 1.349 1_554 S
C721 H713 0.950 . S
C721 C719 1.327 . S
C722 C710 1.349 . S
C722 H716 0.950 . S
C722 C723 1.327 . S
C723 H717 0.950 . S
C723 C722 1.327 . S
C723 C727 1.429 . S
C724 C707 1.574 . S
C724 H718 0.949 . S
C724 C728 1.368 . S
C725 C706 1.429 1_554 S
C725 C719 1.429 . S
C725 C726 1.523 . S
C726 C707 1.368 . S
C726 C720 1.368 . S
C726 C725 1.523 . S
C727 C711 1.429 . S
C727 C723 1.429 . S
C727 C728 1.523 . S
C728 C712 1.368 . S
C728 C724 1.368 . S
C728 C727 1.523 . S
H729 C704 0.950 . S
H730 C706 0.950 . S
H731 C707 0.949 . S
H732 C709 0.950 . S
H733 C711 0.950 . S
C734 C735 1.349 . S
C734 C736 1.327 . S
C734 H759 0.950 . S
C735 C734 1.349 . S
C735 C751 1.349 . S
C736 C734 1.327 . S
C736 C755 1.429 . S
C736 H760 0.950 . S
C737 C754 1.574 . S
C737 C756 1.368 1_655 S
C737 H761 0.949 . S
H738 C742 0.949 . S
C739 C740 1.349 . S
C739 C741 1.327 . S
C739 H762 0.950 . S
C740 C739 1.349 . S
C740 C752 1.349 . S
C741 C739 1.327 . S
C741 C757 1.429 . S
C741 H763 0.950 . S
C742 H738 0.949 . S
C742 C750 1.574 1_655 S
C742 C758 1.368 . S
H743 C751 0.950 . S
H744 C749 0.950 . S
H745 C750 0.949 . S
H746 C752 0.950 . S
H747 C753 0.950 . S
H748 C754 0.949 . S
C749 H744 0.950 . S
C749 C751 1.327 . S
C749 C755 1.429 . S
C750 C742 1.574 1_455 S
C750 H745 0.949 . S
C750 C756 1.368 . S
C751 C735 1.349 . S
C751 H743 0.950 . S
C751 C749 1.327 . S
C752 C740 1.349 . S
C752 H746 0.950 . S
C752 C753 1.327 . S
C753 H747 0.950 . S
C753 C752 1.327 . S
C753 C757 1.429 . S
C754 C737 1.574 . S
C754 H748 0.949 . S
C754 C758 1.368 . S
C755 C736 1.429 . S
C755 C749 1.429 . S
C755 C756 1.523 . S
C756 C737 1.368 1_455 S
C756 C750 1.368 . S
C756 C755 1.523 . S
C757 C741 1.429 . S
C757 C753 1.429 . S
C757 C758 1.523 . S
C758 C742 1.368 . S
C758 C754 1.368 . S
C758 C757 1.523 . S
H759 C734 0.950 . S
H760 C736 0.950 . S
H761 C737 0.949 . S
H762 C739 0.950 . S
H763 C741 0.950 . S
C764 C765 1.349 . S
C764 C766 1.327 . S
C764 H789 0.950 . S
C765 C764 1.349 . S
C765 C781 1.349 . S
C766 C764 1.327 . S
C766 C785 1.429 . S
C766 H790 0.950 . S
C767 C784 1.574 . S
C767 C786 1.368 . S
C767 H791 0.949 . S
H768 C772 0.949 . S
C769 C770 1.349 . S
C769 C771 1.327 . S
C769 H792 0.950 . S
C770 C769 1.349 . S
C770 C782 1.349 . S
C771 C769 1.327 . S
C771 C787 1.429 . S
C771 H793 0.950 . S
C772 H768 0.949 . S
C772 C780 1.574 . S
C772 C788 1.368 . S
H773 C781 0.950 . S
H774 C779 0.950 . S
H775 C780 0.949 . S
H776 C782 0.950 . S
H777 C783 0.950 . S
H778 C784 0.949 . S
C779 H774 0.950 . S
C779 C781 1.327 . S
C779 C785 1.429 . S
C780 C772 1.574 . S
C780 H775 0.949 . S
C780 C786 1.368 . S
C781 C765 1.349 . S
C781 H773 0.950 . S
C781 C779 1.327 . S
C782 C770 1.349 . S
C782 H776 0.950 . S
C782 C783 1.327 . S
C783 H777 0.950 . S
C783 C782 1.327 . S
C783 C787 1.429 . S
C784 C767 1.574 . S
C784 H778 0.949 . S
C784 C788 1.368 . S
C785 C766 1.429 . S
C785 C779 1.429 . S
C785 C786 1.523 . S
C786 C767 1.368 . S
C786 C780 1.368 . S
C786 C785 1.523 . S
C787 C771 1.429 . S
C787 C783 1.429 . S
C787 C788 1.523 . S
C788 C772 1.368 . S
C788 C784 1.368 . S
C788 C787 1.523 . S
H789 C764 0.950 . S
H790 C766 0.950 . S
H791 C767 0.949 . S
H792 C769 0.950 . S
H793 C771 0.950 . S
C794 C795 1.349 . S
C794 C796 1.327 . S
C794 H819 0.950 . S
C795 C794 1.349 . S
C795 C811 1.349 . S
C796 C794 1.327 . S
C796 C815 1.429 . S
C796 H820 0.950 . S
C797 C814 1.574 . S
C797 C816 1.368 . S
C797 H821 0.949 . S
H798 C802 0.949 . S
C799 C800 1.349 . S
C799 C801 1.327 . S
C799 H822 0.950 1_556 S
C800 C799 1.349 . S
C800 C812 1.349 . S
C801 C799 1.327 . S
C801 C817 1.429 . S
C801 H823 0.950 . S
C802 H798 0.949 . S
C802 C810 1.574 . S
C802 C818 1.368 . S
H803 C811 0.950 . S
H804 C809 0.950 . S
H805 C810 0.949 . S
H806 C812 0.950 . S
H807 C813 0.950 . S
H808 C814 0.949 . S
C809 H804 0.950 . S
C809 C811 1.327 . S
C809 C815 1.429 . S
C810 C802 1.574 . S
C810 H805 0.949 . S
C810 C816 1.368 . S
C811 C795 1.349 . S
C811 H803 0.950 . S
C811 C809 1.327 . S
C812 C800 1.349 . S
C812 H806 0.950 . S
C812 C813 1.327 . S
C813 H807 0.950 . S
C813 C812 1.327 . S
C813 C817 1.429 . S
C814 C797 1.574 . S
C814 H808 0.949 . S
C814 C818 1.368 . S
C815 C796 1.429 . S
C815 C809 1.429 . S
C815 C816 1.523 . S
C816 C797 1.368 . S
C816 C810 1.368 . S
C816 C815 1.523 . S
C817 C801 1.429 . S
C817 C813 1.429 . S
C817 C818 1.523 . S
C818 C802 1.368 . S
C818 C814 1.368 . S
C818 C817 1.523 . S
H819 C794 0.950 . S
H820 C796 0.950 . S
H821 C797 0.949 . S
H822 C799 0.950 1_554 S
H823 C801 0.950 . S
C824 C825 1.349 . S
C824 C826 1.327 . S
C824 H849 0.950 . S
C825 C824 1.349 . S
C825 C841 1.349 . S
C826 C824 1.327 . S
C826 C845 1.429 . S
C826 H850 0.950 . S
C827 C844 1.574 . S
C827 C846 1.368 . S
C827 H851 0.949 . S
H828 C832 0.949 . S
C829 C830 1.349 . S
C829 C831 1.327 . S
C829 H852 0.950 . S
C830 C829 1.349 . S
C830 C842 1.349 . S
C831 C829 1.327 . S
C831 C847 1.429 . S
C831 H853 0.950 . S
C832 H828 0.949 . S
C832 C840 1.574 . S
C832 C848 1.368 . S
H833 C841 0.950 . S
H834 C839 0.950 . S
H835 C840 0.949 . S
H836 C842 0.950 . S
H837 C843 0.950 . S
H838 C844 0.949 . S
C839 H834 0.950 . S
C839 C841 1.327 . S
C839 C845 1.429 . S
C840 C832 1.574 . S
C840 H835 0.949 . S
C840 C846 1.368 . S
C841 C825 1.349 . S
C841 H833 0.950 . S
C841 C839 1.327 . S
C842 C830 1.349 . S
C842 H836 0.950 . S
C842 C843 1.327 . S
C843 H837 0.950 . S
C843 C842 1.327 . S
C843 C847 1.429 . S
C844 C827 1.574 . S
C844 H838 0.949 . S
C844 C848 1.368 . S
C845 C826 1.429 . S
C845 C839 1.429 . S
C845 C846 1.523 . S
C846 C827 1.368 . S
C846 C840 1.368 . S
C846 C845 1.523 . S
C847 C831 1.429 . S
C847 C843 1.429 . S
C847 C848 1.523 . S
C848 C832 1.368 . S
C848 C844 1.368 . S
C848 C847 1.523 . S
H849 C824 0.950 . S
H850 C826 0.950 . S
H851 C827 0.949 . S
H852 C829 0.950 . S
H853 C831 0.950 . S
C854 C855 1.349 . S
C854 C856 1.327 . S
C854 H879 0.950 . S
C855 C854 1.349 . S
C855 C871 1.349 . S
C856 C854 1.327 . S
C856 C875 1.429 . S
C856 H880 0.950 . S
C857 C874 1.574 . S
C857 C876 1.368 . S
C857 H881 0.949 . S
H858 C862 0.949 . S
C859 C860 1.349 . S
C859 C861 1.327 . S
C859 H882 0.950 . S
C860 C859 1.349 . S
C860 C872 1.349 . S
C861 C859 1.327 . S
C861 C877 1.429 . S
C861 H883 0.950 . S
C862 H858 0.949 . S
C862 C870 1.574 . S
C862 C878 1.368 . S
H863 C871 0.950 . S
H864 C869 0.950 . S
H865 C870 0.949 . S
H866 C872 0.950 . S
H867 C873 0.950 . S
H868 C874 0.949 . S
C869 H864 0.950 . S
C869 C871 1.327 . S
C869 C875 1.429 . S
C870 C862 1.574 . S
C870 H865 0.949 . S
C870 C876 1.368 . S
C871 C855 1.349 . S
C871 H863 0.950 . S
C871 C869 1.327 . S
C872 C860 1.349 . S
C872 H866 0.950 . S
C872 C873 1.327 . S
C873 H867 0.950 . S
C873 C872 1.327 . S
C873 C877 1.429 . S
C874 C857 1.574 . S
C874 H868 0.949 . S
C874 C878 1.368 . S
C875 C856 1.429 . S
C875 C869 1.429 . S
C875 C876 1.523 . S
C876 C857 1.368 . S
C876 C870 1.368 . S
C876 C875 1.523 . S
C877 C861 1.429 . S
C877 C873 1.429 . S
C877 C878 1.523 . S
C878 C862 1.368 . S
C878 C874 1.368 . S
C878 C877 1.523 . S
H879 C854 0.950 . S
H880 C856 0.950 . S
H881 C857 0.949 . S
H882 C859 0.950 . S
H883 C861 0.950 . S
C884 C885 1.349 . S
C884 C886 1.327 . S
C884 H909 0.950 . S
C885 C884 1.349 . S
C885 C901 1.349 1_554 S
C886 C884 1.327 . S
C886 C905 1.429 1_554 S
C886 H910 0.950 . S
C887 C904 1.574 . S
C887 C906 1.368 . S
C887 H911 0.949 . S
H888 C892 0.949 . S
C889 C890 1.349 . S
C889 C891 1.327 . S
C889 H912 0.950 . S
C890 C889 1.349 . S
C890 C902 1.349 . S
C891 C889 1.327 . S
C891 C907 1.429 . S
C891 H913 0.950 . S
C892 H888 0.949 . S
C892 C900 1.574 . S
C892 C908 1.368 . S
H893 C901 0.950 . S
H894 C899 0.950 . S
H895 C900 0.949 . S
H896 C902 0.950 . S
H897 C903 0.950 . S
H898 C904 0.949 . S
C899 H894 0.950 . S
C899 C901 1.327 . S
C899 C905 1.429 . S
C900 C892 1.574 . S
C900 H895 0.949 . S
C900 C906 1.368 . S
C901 C885 1.349 1_556 S
C901 H893 0.950 . S
C901 C899 1.327 . S
C902 C890 1.349 . S
C902 H896 0.950 . S
C902 C903 1.327 . S
C903 H897 0.950 . S
C903 C902 1.327 . S
C903 C907 1.429 . S
C904 C887 1.574 . S
C904 H898 0.949 . S
C904 C908 1.368 . S
C905 C886 1.429 1_556 S
C905 C899 1.429 . S
C905 C906 1.523 . S
C906 C887 1.368 . S
C906 C900 1.368 . S
C906 C905 1.523 . S
C907 C891 1.429 . S
C907 C903 1.429 . S
C907 C908 1.523 . S
C908 C892 1.368 . S
C908 C904 1.368 . S
C908 C907 1.523 . S
H909 C884 0.950 . S
H910 C886 0.950 . S
H911 C887 0.949 . S
H912 C889 0.950 . S
H913 C891 0.950 . S
C914 C915 1.349 . S
C914 C916 1.327 . S
C914 H939 0.950 . S
C915 C914 1.349 . S
C915 C931 1.349 . S
C916 C914 1.327 . S
C916 C935 1.429 . S
C916 H940 0.950 . S
C917 C934 1.574 1_655 S
C917 C936 1.368 . S
C917 H941 0.949 . S
H918 C922 0.949 . S
C919 C920 1.349 . S
C919 C921 1.327 . S
C919 H942 0.950 . S
C920 C919 1.349 . S
C920 C932 1.349 . S
C921 C919 1.327 . S
C921 C937 1.429 . S
C921 H943 0.950 . S
C922 H918 0.949 . S
C922 C930 1.574 . S
C922 C938 1.368 1_655 S
H923 C931 0.950 . S
H924 C929 0.950 . S
H925 C930 0.949 . S
H926 C932 0.950 1_556 S
H927 C933 0.950 . S
H928 C934 0.949 . S
C929 H924 0.950 . S
C929 C931 1.327 . S
C929 C935 1.429 . S
C930 C922 1.574 . S
C930 H925 0.949 . S
C930 C936 1.368 . S
C931 C915 1.349 . S
C931 H923 0.950 . S
C931 C929 1.327 . S
C932 C920 1.349 . S
C932 H926 0.950 1_554 S
C932 C933 1.327 . S
C933 H927 0.950 . S
C933 C932 1.327 . S
C933 C937 1.429 . S
C934 C917 1.574 1_455 S
C934 H928 0.949 . S
C934 C938 1.368 . S
C935 C916 1.429 . S
C935 C929 1.429 . S
C935 C936 1.523 . S
C936 C917 1.368 . S
C936 C930 1.368 . S
C936 C935 1.523 . S
C937 C921 1.429 . S
C937 C933 1.429 . S
C937 C938 1.523 . S
C938 C922 1.368 1_455 S
C938 C934 1.368 . S
C938 C937 1.523 . S
H939 C914 0.950 . S
H940 C916 0.950 . S
H941 C917 0.949 . S
H942 C919 0.950 . S
H943 C921 0.950 . S
C944 C945 1.349 . S
C944 C946 1.327 . S
C944 H969 0.950 . S
C945 C944 1.349 . S
C945 C961 1.349 . S
C946 C944 1.327 . S
C946 C965 1.429 . S
C946 H970 0.950 . S
C947 C964 1.574 . S
C947 C966 1.368 . S
C947 H971 0.949 . S
H948 C952 0.949 . S
C949 C950 1.349 1_556 S
C949 C951 1.327 . S
C949 H972 0.950 . S
C950 C949 1.349 1_554 S
C950 C962 1.349 . S
C951 C949 1.327 . S
C951 C967 1.429 . S
C951 H973 0.950 . S
C952 H948 0.949 . S
C952 C960 1.574 . S
C952 C968 1.368 . S
H953 C961 0.950 . S
H954 C959 0.950 . S
H955 C960 0.949 . S
H956 C962 0.950 . S
H957 C963 0.950 . S
H958 C964 0.949 . S
C959 H954 0.950 . S
C959 C961 1.327 . S
C959 C965 1.429 . S
C960 C952 1.574 . S
C960 H955 0.949 . S
C960 C966 1.368 . S
C961 C945 1.349 . S
C961 H953 0.950 . S
C961 C959 1.327 . S
C962 C950 1.349 . S
C962 H956 0.950 . S
C962 C963 1.327 . S
C963 H957 0.950 . S
C963 C962 1.327 . S
C963 C967 1.429 1_554 S
C964 C947 1.574 . S
C964 H958 0.949 . S
C964 C968 1.368 . S
C965 C946 1.429 . S
C965 C959 1.429 . S
C965 C966 1.523 . S
C966 C947 1.368 . S
C966 C960 1.368 . S
C966 C965 1.523 . S
C967 C951 1.429 . S
C967 C963 1.429 1_556 S
C967 C968 1.523 . S
C968 C952 1.368 . S
C968 C964 1.368 . S
C968 C967 1.523 . S
H969 C944 0.950 . S
H970 C946 0.950 . S
H971 C947 0.949 . S
H972 C949 0.950 . S
H973 C951 0.950 . S
C974 C975 1.349 . S
C974 C976 1.327 . S
C974 H999 0.950 . S
C975 C974 1.349 . S
C975 C991 1.349 . S
C976 C974 1.327 . S
C976 C995 1.429 . S
C976 H1000 0.950 . S
C977 C994 1.574 1_655 S
C977 C996 1.368 . S
C977 H1001 0.949 . S
H978 C982 0.949 . S
C979 C980 1.349 . S
C979 C981 1.327 . S
C979 H1002 0.950 . S
C980 C979 1.349 . S
C980 C992 1.349 . S
C981 C979 1.327 . S
C981 C997 1.429 . S
C981 H1003 0.950 . S
C982 H978 0.949 . S
C982 C990 1.574 . S
C982 C998 1.368 . S
H983 C991 0.950 . S
H984 C989 0.950 . S
H985 C990 0.949 . S
H986 C992 0.950 . S
H987 C993 0.950 . S
H988 C994 0.949 . S
C989 H984 0.950 . S
C989 C991 1.327 . S
C989 C995 1.429 . S
C990 C982 1.574 . S
C990 H985 0.949 . S
C990 C996 1.368 1_455 S
C991 C975 1.349 . S
C991 H983 0.950 . S
C991 C989 1.327 . S
C992 C980 1.349 . S
C992 H986 0.950 . S
C992 C993 1.327 . S
C993 H987 0.950 . S
C993 C992 1.327 . S
C993 C997 1.429 . S
C994 C977 1.574 1_455 S
C994 H988 0.949 . S
C994 C998 1.368 . S
C995 C976 1.429 . S
C995 C989 1.429 . S
C995 C996 1.523 . S
C996 C977 1.368 . S
C996 C990 1.368 1_655 S
C996 C995 1.523 . S
C997 C981 1.429 . S
C997 C993 1.429 . S
C997 C998 1.523 . S
C998 C982 1.368 . S
C998 C994 1.368 . S
C998 C997 1.523 . S
H999 C974 0.950 . S
H1000 C976 0.950 . S
H1001 C977 0.949 . S
H1002 C979 0.950 . S
H1003 C981 0.950 . S
C1004 C1005 1.349 . S
C1004 C1006 1.327 . S
C1004 H1029 0.950 . S
C1005 C1004 1.349 . S
C1005 C1021 1.349 . S
C1006 C1004 1.327 . S
C1006 C1025 1.429 . S
C1006 H1030 0.950 . S
C1007 C1024 1.574 . S
C1007 C1026 1.368 . S
C1007 H1031 0.949 . S
H1008 C1012 0.949 . S
C1009 C1010 1.349 . S
C1009 C1011 1.327 . S
C1009 H1032 0.950 . S
C1010 C1009 1.349 . S
C1010 C1022 1.349 . S
C1011 C1009 1.327 . S
C1011 C1027 1.429 . S
C1011 H1033 0.950 . S
C1012 H1008 0.949 . S
C1012 C1020 1.574 . S
C1012 C1028 1.368 . S
H1013 C1021 0.950 . S
H1014 C1019 0.950 . S
H1015 C1020 0.949 . S
H1016 C1022 0.950 . S
H1017 C1023 0.950 . S
H1018 C1024 0.949 . S
C1019 H1014 0.950 . S
C1019 C1021 1.327 . S
C1019 C1025 1.429 . S
C1020 C1012 1.574 . S
C1020 H1015 0.949 . S
C1020 C1026 1.368 . S
C1021 C1005 1.349 . S
C1021 H1013 0.950 . S
C1021 C1019 1.327 . S
C1022 C1010 1.349 . S
C1022 H1016 0.950 . S
C1022 C1023 1.327 . S
C1023 H1017 0.950 . S
C1023 C1022 1.327 . S
C1023 C1027 1.429 . S
C1024 C1007 1.574 . S
C1024 H1018 0.949 . S
C1024 C1028 1.368 . S
C1025 C1006 1.429 . S
C1025 C1019 1.429 . S
C1025 C1026 1.523 . S
C1026 C1007 1.368 . S
C1026 C1020 1.368 . S
C1026 C1025 1.523 . S
C1027 C1011 1.429 . S
C1027 C1023 1.429 . S
C1027 C1028 1.523 . S
C1028 C1012 1.368 . S
C1028 C1024 1.368 . S
C1028 C1027 1.523 . S
H1029 C1004 0.950 . S
H1030 C1006 0.950 . S
H1031 C1007 0.949 . S
H1032 C1009 0.950 . S
H1033 C1011 0.950 . S
C1034 C1035 1.349 . S
C1034 C1036 1.327 . S
C1034 H1059 0.950 1_554 S
C1035 C1034 1.349 . S
C1035 C1051 1.349 . S
C1036 C1034 1.327 . S
C1036 C1055 1.429 . S
C1036 H1060 0.950 . S
C1037 C1054 1.574 . S
C1037 C1056 1.368 . S
C1037 H1061 0.949 . S
H1038 C1042 0.949 . S
C1039 C1040 1.349 . S
C1039 C1041 1.327 . S
C1039 H1062 0.950 . S
C1040 C1039 1.349 . S
C1040 C1052 1.349 . S
C1041 C1039 1.327 . S
C1041 C1057 1.429 . S
C1041 H1063 0.950 . S
C1042 H1038 0.949 . S
C1042 C1050 1.574 . S
C1042 C1058 1.368 . S
H1043 C1051 0.950 . S
H1044 C1049 0.950 . S
H1045 C1050 0.949 . S
H1046 C1052 0.950 . S
H1047 C1053 0.950 . S
H1048 C1054 0.949 . S
C1049 H1044 0.950 . S
C1049 C1051 1.327 . S
C1049 C1055 1.429 . S
C1050 C1042 1.574 . S
C1050 H1045 0.949 . S
C1050 C1056 1.368 . S
C1051 C1035 1.349 . S
C1051 H1043 0.950 . S
C1051 C1049 1.327 . S
C1052 C1040 1.349 . S
C1052 H1046 0.950 . S
C1052 C1053 1.327 . S
C1053 H1047 0.950 . S
C1053 C1052 1.327 . S
C1053 C1057 1.429 . S
C1054 C1037 1.574 . S
C1054 H1048 0.949 . S
C1054 C1058 1.368 . S
C1055 C1036 1.429 . S
C1055 C1049 1.429 . S
C1055 C1056 1.523 . S
C1056 C1037 1.368 . S
C1056 C1050 1.368 . S
C1056 C1055 1.523 . S
C1057 C1041 1.429 . S
C1057 C1053 1.429 . S
C1057 C1058 1.523 . S
C1058 C1042 1.368 . S
C1058 C1054 1.368 . S
C1058 C1057 1.523 . S
H1059 C1034 0.950 1_556 S
H1060 C1036 0.950 . S
H1061 C1037 0.949 . S
H1062 C1039 0.950 . S
H1063 C1041 0.950 . S
C1064 C1065 1.349 . S
C1064 C1066 1.327 . S
C1064 H1089 0.950 . S
C1065 C1064 1.349 . S
C1065 C1081 1.349 . S
C1066 C1064 1.327 . S
C1066 C1085 1.429 . S
C1066 H1090 0.950 . S
C1067 C1084 1.574 . S
C1067 C1086 1.368 . S
C1067 H1091 0.949 . S
H1068 C1072 0.949 . S
C1069 C1070 1.349 . S
C1069 C1071 1.327 . S
C1069 H1092 0.950 . S
C1070 C1069 1.349 . S
C1070 C1082 1.349 . S
C1071 C1069 1.327 . S
C1071 C1087 1.429 . S
C1071 H1093 0.950 . S
C1072 H1068 0.949 . S
C1072 C1080 1.574 . S
C1072 C1088 1.368 . S
H1073 C1081 0.950 . S
H1074 C1079 0.950 . S
H1075 C1080 0.949 . S
H1076 C1082 0.950 . S
H1077 C1083 0.950 . S
H1078 C1084 0.949 . S
C1079 H1074 0.950 . S
C1079 C1081 1.327 . S
C1079 C1085 1.429 . S
C1080 C1072 1.574 . S
C1080 H1075 0.949 . S
C1080 C1086 1.368 . S
C1081 C1065 1.349 . S
C1081 H1073 0.950 . S
C1081 C1079 1.327 . S
C1082 C1070 1.349 . S
C1082 H1076 0.950 . S
C1082 C1083 1.327 . S
C1083 H1077 0.950 . S
C1083 C1082 1.327 . S
C1083 C1087 1.429 . S
C1084 C1067 1.574 . S
C1084 H1078 0.949 . S
C1084 C1088 1.368 . S
C1085 C1066 1.429 . S
C1085 C1079 1.429 . S
C1085 C1086 1.523 . S
C1086 C1067 1.368 . S
C1086 C1080 1.368 . S
C1086 C1085 1.523 . S
C1087 C1071 1.429 . S
C1087 C1083 1.429 . S
C1087 C1088 1.523 . S
C1088 C1072 1.368 . S
C1088 C1084 1.368 . S
C1088 C1087 1.523 . S
H1089 C1064 0.950 . S
H1090 C1066 0.950 . S
H1091 C1067 0.949 . S
H1092 C1069 0.950 . S
H1093 C1071 0.950 . S
C1094 C1095 1.349 . S
C1094 C1096 1.327 . S
C1094 H1119 0.950 . S
C1095 C1094 1.349 . S
C1095 C1111 1.349 . S
C1096 C1094 1.327 . S
C1096 C1115 1.429 . S
C1096 H1120 0.950 . S
C1097 C1114 1.574 . S
C1097 C1116 1.368 . S
C1097 H1121 0.949 . S
H1098 C1102 0.949 . S
C1099 C1100 1.349 . S
C1099 C1101 1.327 . S
C1099 H1122 0.950 . S
C1100 C1099 1.349 . S
C1100 C1112 1.349 . S
C1101 C1099 1.327 . S
C1101 C1117 1.429 . S
C1101 H1123 0.950 . S
C1102 H1098 0.949 . S
C1102 C1110 1.574 . S
C1102 C1118 1.368 . S
H1103 C1111 0.950 . S
H1104 C1109 0.950 . S
H1105 C1110 0.949 . S
H1106 C1112 0.950 . S
H1107 C1113 0.950 . S
H1108 C1114 0.949 . S
C1109 H1104 0.950 . S
C1109 C1111 1.327 . S
C1109 C1115 1.429 . S
C1110 C1102 1.574 . S
C1110 H1105 0.949 . S
C1110 C1116 1.368 . S
C1111 C1095 1.349 . S
C1111 H1103 0.950 . S
C1111 C1109 1.327 . S
C1112 C1100 1.349 . S
C1112 H1106 0.950 . S
C1112 C1113 1.327 . S
C1113 H1107 0.950 . S
C1113 C1112 1.327 . S
C1113 C1117 1.429 . S
C1114 C1097 1.574 . S
C1114 H1108 0.949 . S
C1114 C1118 1.368 . S
C1115 C1096 1.429 . S
C1115 C1109 1.429 . S
C1115 C1116 1.523 . S
C1116 C1097 1.368 . S
C1116 C1110 1.368 . S
C1116 C1115 1.523 . S
C1117 C1101 1.429 . S
C1117 C1113 1.429 . S
C1117 C1118 1.523 . S
C1118 C1102 1.368 . S
C1118 C1114 1.368 . S
C1118 C1117 1.523 . S
H1119 C1094 0.950 . S
H1120 C1096 0.950 . S
H1121 C1097 0.949 . S
H1122 C1099 0.950 . S
H1123 C1101 0.950 . S
C1124 C1125 1.349 . S
C1124 C1126 1.327 1_556 S
C1124 H1149 0.950 . S
C1125 C1124 1.349 . S
C1125 C1141 1.349 . S
C1126 C1124 1.327 1_554 S
C1126 C1145 1.429 . S
C1126 H1150 0.950 . S
C1127 C1144 1.574 . S
C1127 C1146 1.368 . S
C1127 H1151 0.949 . S
H1128 C1132 0.949 . S
C1129 C1130 1.349 . S
C1129 C1131 1.327 . S
C1129 H1152 0.950 . S
C1130 C1129 1.349 . S
C1130 C1142 1.349 . S
C1131 C1129 1.327 . S
C1131 C1147 1.429 . S
C1131 H1153 0.950 . S
C1132 H1128 0.949 . S
C1132 C1140 1.574 . S
C1132 C1148 1.368 . S
H1133 C1141 0.950 . S
H1134 C1139 0.950 . S
H1135 C1140 0.949 . S
H1136 C1142 0.950 . S
H1137 C1143 0.950 . S
H1138 C1144 0.949 . S
C1139 H1134 0.950 . S
C1139 C1141 1.327 1_554 S
C1139 C1145 1.429 . S
C1140 C1132 1.574 . S
C1140 H1135 0.949 . S
C1140 C1146 1.368 . S
C1141 C1125 1.349 . S
C1141 H1133 0.950 . S
C1141 C1139 1.327 1_556 S
C1142 C1130 1.349 . S
C1142 H1136 0.950 . S
C1142 C1143 1.327 . S
C1143 H1137 0.950 . S
C1143 C1142 1.327 . S
C1143 C1147 1.429 . S
C1144 C1127 1.574 . S
C1144 H1138 0.949 . S
C1144 C1148 1.368 . S
C1145 C1126 1.429 . S
C1145 C1139 1.429 . S
C1145 C1146 1.523 . S
C1146 C1127 1.368 . S
C1146 C1140 1.368 . S
C1146 C1145 1.523 . S
C1147 C1131 1.429 . S
C1147 C1143 1.429 . S
C1147 C1148 1.523 . S
C1148 C1132 1.368 . S
C1148 C1144 1.368 . S
C1148 C1147 1.523 . S
H1149 C1124 0.950 . S
H1150 C1126 0.950 . S
H1151 C1127 0.949 . S
H1152 C1129 0.950 . S
H1153 C1131 0.950 . S
C1154 C1155 1.349 . S
C1154 C1156 1.327 . S
C1154 H1179 0.950 . S
C1155 C1154 1.349 . S
C1155 C1171 1.349 . S
C1156 C1154 1.327 . S
C1156 C1175 1.429 . S
C1156 H1180 0.950 . S
C1157 C1174 1.574 1_455 S
C1157 C1176 1.368 . S
C1157 H1181 0.949 . S
H1158 C1162 0.949 . S
C1159 C1160 1.349 . S
C1159 C1161 1.327 . S
C1159 H1182 0.950 . S
C1160 C1159 1.349 . S
C1160 C1172 1.349 . S
C1161 C1159 1.327 . S
C1161 C1177 1.429 . S
C1161 H1183 0.950 . S
C1162 H1158 0.949 . S
C1162 C1170 1.574 . S
C1162 C1178 1.368 1_455 S
H1163 C1171 0.950 . S
H1164 C1169 0.950 . S
H1165 C1170 0.949 . S
H1166 C1172 0.950 1_554 S
H1167 C1173 0.950 . S
H1168 C1174 0.949 . S
C1169 H1164 0.950 . S
C1169 C1171 1.327 . S
C1169 C1175 1.429 . S
C1170 C1162 1.574 . S
C1170 H1165 0.949 . S
C1170 C1176 1.368 . S
C1171 C1155 1.349 . S
C1171 H1163 0.950 . S
C1171 C1169 1.327 . S
C1172 C1160 1.349 . S
C1172 H1166 0.950 1_556 S
C1172 C1173 1.327 . S
C1173 H1167 0.950 . S
C1173 C1172 1.327 . S
C1173 C1177 1.429 . S
C1174 C1157 1.574 1_655 S
C1174 H1168 0.949 . S
C1174 C1178 1.368 . S
C1175 C1156 1.429 . S
C1175 C1169 1.429 . S
C1175 C1176 1.523 . S
C1176 C1157 1.368 . S
C1176 C1170 1.368 . S
C1176 C1175 1.523 . S
C1177 C1161 1.429 . S
C1177 C1173 1.429 . S
C1177 C1178 1.523 . S
C1178 C1162 1.368 1_655 S
C1178 C1174 1.368 . S
C1178 C1177 1.523 . S
H1179 C1154 0.950 . S
H1180 C1156 0.950 . S
H1181 C1157 0.949 . S
H1182 C1159 0.950 . S
H1183 C1161 0.950 . S
C1184 C1185 1.349 . S
C1184 C1186 1.327 . S
C1184 H1209 0.950 . S
C1185 C1184 1.349 . S
C1185 C1201 1.349 . S
C1186 C1184 1.327 . S
C1186 C1205 1.429 . S
C1186 H1210 0.950 . S
C1187 C1204 1.574 . S
C1187 C1206 1.368 . S
C1187 H1211 0.949 . S
H1188 C1192 0.949 . S
C1189 C1190 1.349 . S
C1189 C1191 1.327 . S
C1189 H1212 0.950 . S
C1190 C1189 1.349 . S
C1190 C1202 1.349 . S
C1191 C1189 1.327 . S
C1191 C1207 1.429 . S
C1191 H1213 0.950 . S
C1192 H1188 0.949 . S
C1192 C1200 1.574 . S
C1192 C1208 1.368 . S
H1193 C1201 0.950 . S
H1194 C1199 0.950 . S
H1195 C1200 0.949 . S
H1196 C1202 0.950 . S
H1197 C1203 0.950 . S
H1198 C1204 0.949 . S
C1199 H1194 0.950 . S
C1199 C1201 1.327 . S
C1199 C1205 1.429 . S
C1200 C1192 1.574 . S
C1200 H1195 0.949 . S
C1200 C1206 1.368 . S
C1201 C1185 1.349 . S
C1201 H1193 0.950 . S
C1201 C1199 1.327 . S
C1202 C1190 1.349 . S
C1202 H1196 0.950 . S
C1202 C1203 1.327 . S
C1203 H1197 0.950 . S
C1203 C1202 1.327 . S
C1203 C1207 1.429 . S
C1204 C1187 1.574 . S
C1204 H1198 0.949 . S
C1204 C1208 1.368 . S
C1205 C1186 1.429 . S
C1205 C1199 1.429 . S
C1205 C1206 1.523 . S
C1206 C1187 1.368 . S
C1206 C1200 1.368 . S
C1206 C1205 1.523 . S
C1207 C1191 1.429 . S
C1207 C1203 1.429 . S
C1207 C1208 1.523 . S
C1208 C1192 1.368 . S
C1208 C1204 1.368 . S
C1208 C1207 1.523 . S
H1209 C1184 0.950 . S
H1210 C1186 0.950 . S
H1211 C1187 0.949 . S
H1212 C1189 0.950 . S
H1213 C1191 0.950 . S
C1214 C1215 1.349 . S
C1214 C1216 1.327 . S
C1214 H1239 0.950 . S
C1215 C1214 1.349 . S
C1215 C1231 1.349 . S
C1216 C1214 1.327 . S
C1216 C1235 1.429 . S
C1216 H1240 0.950 . S
C1217 C1234 1.574 . S
C1217 C1236 1.368 . S
C1217 H1241 0.949 . S
H1218 C1222 0.949 . S
C1219 C1220 1.349 . S
C1219 C1221 1.327 . S
C1219 H1242 0.950 . S
C1220 C1219 1.349 . S
C1220 C1232 1.346 1_556 S
C1221 C1219 1.327 . S
C1221 C1237 1.429 . S
C1221 H1243 0.950 . S
C1222 H1218 0.949 . S
C1222 C1230 1.574 . S
C1222 C1238 1.368 . S
H1223 C1231 0.950 . S
H1224 C1229 0.950 . S
H1225 C1230 0.949 . S
H1226 C1232 0.975 . S
H1227 C1233 0.950 . S
H1228 C1234 0.949 . S
C1229 H1224 0.950 . S
C1229 C1231 1.327 . S
C1229 C1235 1.429 . S
C1230 C1222 1.574 . S
C1230 H1225 0.949 . S
C1230 C1236 1.368 . S
C1231 C1215 1.349 . S
C1231 H1223 0.950 . S
C1231 C1229 1.327 . S
C1232 C1220 1.346 1_554 S
C1232 H1226 0.975 . S
C1232 C1233 1.305 1_554 S
C1233 H1227 0.950 . S
C1233 C1232 1.305 1_556 S
C1233 C1237 1.429 . S
C1234 C1217 1.574 . S
C1234 H1228 0.949 . S
C1234 C1238 1.368 . S
C1235 C1216 1.429 . S
C1235 C1229 1.429 . S
C1235 C1236 1.523 . S
C1236 C1217 1.368 . S
C1236 C1230 1.368 . S
C1236 C1235 1.523 . S
C1237 C1221 1.429 . S
C1237 C1233 1.429 . S
C1237 C1238 1.523 . S
C1238 C1222 1.368 . S
C1238 C1234 1.368 . S
C1238 C1237 1.523 . S
H1239 C1214 0.950 . S
H1240 C1216 0.950 . S
H1241 C1217 0.949 . S
H1242 C1219 0.950 . S
H1243 C1221 0.950 . S
C1244 C1245 1.349 1_554 S
C1244 C1246 1.327 . S
C1244 H1269 0.950 . S
C1245 C1244 1.349 1_556 S
C1245 C1261 1.349 . S
C1246 C1244 1.327 . S
C1246 C1265 1.429 . S
C1246 H1270 0.950 . S
C1247 C1264 1.574 . S
C1247 C1266 1.368 . S
C1247 H1271 0.949 . S
H1248 C1252 0.949 . S
C1249 C1250 1.349 . S
C1249 C1251 1.327 . S
C1249 H1272 0.950 . S
C1250 C1249 1.349 . S
C1250 C1262 1.349 . S
C1251 C1249 1.327 . S
C1251 C1267 1.429 . S
C1251 H1273 0.950 . S
C1252 H1248 0.949 . S
C1252 C1260 1.574 . S
C1252 C1268 1.368 . S
H1253 C1261 0.950 . S
H1254 C1259 0.950 . S
H1255 C1260 0.949 . S
H1256 C1262 0.950 . S
H1257 C1263 0.950 . S
H1258 C1264 0.949 . S
C1259 H1254 0.950 . S
C1259 C1261 1.327 . S
C1259 C1265 1.429 1_556 S
C1260 C1252 1.574 . S
C1260 H1255 0.949 . S
C1260 C1266 1.368 . S
C1261 C1245 1.349 . S
C1261 H1253 0.950 . S
C1261 C1259 1.327 . S
C1262 C1250 1.349 . S
C1262 H1256 0.950 . S
C1262 C1263 1.327 . S
C1263 H1257 0.950 . S
C1263 C1262 1.327 . S
C1263 C1267 1.429 . S
C1264 C1247 1.574 . S
C1264 H1258 0.949 . S
C1264 C1268 1.368 . S
C1265 C1246 1.429 . S
C1265 C1259 1.429 1_554 S
C1265 C1266 1.523 . S
C1266 C1247 1.368 . S
C1266 C1260 1.368 . S
C1266 C1265 1.523 . S
C1267 C1251 1.429 . S
C1267 C1263 1.429 . S
C1267 C1268 1.523 . S
C1268 C1252 1.368 . S
C1268 C1264 1.368 . S
C1268 C1267 1.523 . S
H1269 C1244 0.950 . S
H1270 C1246 0.950 . S
H1271 C1247 0.949 . S
H1272 C1249 0.950 . S
H1273 C1251 0.950 . S
C1274 C1275 1.349 . S
C1274 C1276 1.327 . S
C1274 H1299 0.950 . S
C1275 C1274 1.349 . S
C1275 C1291 1.349 . S
C1276 C1274 1.327 . S
C1276 C1295 1.429 . S
C1276 H1300 0.950 . S
C1277 C1294 1.574 1_655 S
C1277 C1296 1.368 . S
C1277 H1301 0.949 . S
H1278 C1282 0.949 . S
C1279 C1280 1.349 . S
C1279 C1281 1.327 . S
C1279 H1302 0.950 . S
C1280 C1279 1.349 . S
C1280 C1292 1.349 . S
C1281 C1279 1.327 . S
C1281 C1297 1.429 . S
C1281 H1303 0.950 . S
C1282 H1278 0.949 . S
C1282 C1290 1.574 . S
C1282 C1298 1.368 . S
H1283 C1291 0.950 . S
H1284 C1289 0.950 . S
H1285 C1290 0.949 . S
H1286 C1292 0.950 . S
H1287 C1293 0.950 . S
H1288 C1294 0.949 . S
C1289 H1284 0.950 . S
C1289 C1291 1.327 . S
C1289 C1295 1.429 . S
C1290 C1282 1.574 . S
C1290 H1285 0.949 . S
C1290 C1296 1.368 1_455 S
C1291 C1275 1.349 . S
C1291 H1283 0.950 . S
C1291 C1289 1.327 . S
C1292 C1280 1.349 . S
C1292 H1286 0.950 . S
C1292 C1293 1.327 . S
C1293 H1287 0.950 . S
C1293 C1292 1.327 . S
C1293 C1297 1.429 . S
C1294 C1277 1.574 1_455 S
C1294 H1288 0.949 . S
C1294 C1298 1.368 . S
C1295 C1276 1.429 . S
C1295 C1289 1.429 . S
C1295 C1296 1.523 . S
C1296 C1277 1.368 . S
C1296 C1290 1.368 1_655 S
C1296 C1295 1.523 . S
C1297 C1281 1.429 . S
C1297 C1293 1.429 . S
C1297 C1298 1.523 . S
C1298 C1282 1.368 . S
C1298 C1294 1.368 . S
C1298 C1297 1.523 . S
H1299 C1274 0.950 . S
H1300 C1276 0.950 . S
H1301 C1277 0.949 . S
H1302 C1279 0.950 . S
H1303 C1281 0.950 . S
C1304 C1305 1.349 . S
C1304 C1306 1.327 . S
C1304 H1329 0.950 . S
C1305 C1304 1.349 . S
C1305 C1321 1.349 . S
C1306 C1304 1.327 . S
C1306 C1325 1.429 . S
C1306 H1330 0.950 . S
C1307 C1324 1.574 . S
C1307 C1326 1.368 . S
C1307 H1331 0.949 . S
H1308 C1312 0.949 . S
C1309 C1310 1.355 . S
C1309 C1311 1.321 1_554 S
C1309 H1332 0.950 . S
C1310 C1309 1.355 . S
C1310 C1322 1.349 . S
C1311 C1309 1.321 1_556 S
C1311 C1327 1.429 . S
C1311 H1333 0.950 . S
C1312 H1308 0.949 . S
C1312 C1320 1.574 . S
C1312 C1328 1.368 . S
H1313 C1321 0.950 . S
H1314 C1319 0.950 . S
H1315 C1320 0.949 . S
H1316 C1322 0.950 . S
H1317 C1323 0.950 . S
H1318 C1324 0.949 . S
C1319 H1314 0.950 . S
C1319 C1321 1.327 . S
C1319 C1325 1.429 . S
C1320 C1312 1.574 . S
C1320 H1315 0.949 . S
C1320 C1326 1.368 . S
C1321 C1305 1.349 . S
C1321 H1313 0.950 . S
C1321 C1319 1.327 . S
C1322 C1310 1.349 . S
C1322 H1316 0.950 . S
C1322 C1323 1.327 . S
C1323 H1317 0.950 . S
C1323 C1322 1.327 . S
C1323 C1327 1.429 1_554 S
C1324 C1307 1.574 . S
C1324 H1318 0.949 . S
C1324 C1328 1.368 . S
C1325 C1306 1.429 . S
C1325 C1319 1.429 . S
C1325 C1326 1.523 . S
C1326 C1307 1.368 . S
C1326 C1320 1.368 . S
C1326 C1325 1.523 . S
C1327 C1311 1.429 . S
C1327 C1323 1.429 1_556 S
C1327 C1328 1.523 . S
C1328 C1312 1.368 . S
C1328 C1324 1.368 . S
C1328 C1327 1.523 . S
H1329 C1304 0.950 . S
H1330 C1306 0.950 . S
H1331 C1307 0.949 . S
H1332 C1309 0.950 . S
H1333 C1311 0.950 . S
C1334 C1335 1.349 . S
C1334 C1336 1.327 . S
C1334 H1359 0.950 1_554 S
C1335 C1334 1.349 . S
C1335 C1351 1.349 . S
C1336 C1334 1.327 . S
C1336 C1355 1.429 . S
C1336 H1360 0.950 . S
C1337 C1354 1.574 1_655 S
C1337 C1356 1.368 . S
C1337 H1361 0.949 . S
H1338 C1342 0.949 . S
C1339 C1340 1.349 . S
C1339 C1341 1.327 . S
C1339 H1362 0.950 . S
C1340 C1339 1.349 . S
C1340 C1352 1.349 . S
C1341 C1339 1.327 . S
C1341 C1357 1.429 . S
C1341 H1363 0.950 . S
C1342 H1338 0.949 . S
C1342 C1350 1.574 . S
C1342 C1358 1.368 . S
H1343 C1351 0.950 . S
H1344 C1349 0.950 . S
H1345 C1350 0.949 . S
H1346 C1352 0.950 . S
H1347 C1353 0.950 . S
H1348 C1354 0.949 . S
C1349 H1344 0.950 . S
C1349 C1351 1.327 . S
C1349 C1355 1.429 . S
C1350 C1342 1.574 . S
C1350 H1345 0.949 . S
C1350 C1356 1.368 1_455 S
C1351 C1335 1.349 . S
C1351 H1343 0.950 . S
C1351 C1349 1.327 . S
C1352 C1340 1.349 . S
C1352 H1346 0.950 . S
C1352 C1353 1.327 . S
C1353 H1347 0.950 . S
C1353 C1352 1.327 . S
C1353 C1357 1.429 . S
C1354 C1337 1.574 1_455 S
C1354 H1348 0.949 . S
C1354 C1358 1.368 . S
C1355 C1336 1.429 . S
C1355 C1349 1.429 . S
C1355 C1356 1.523 . S
C1356 C1337 1.368 . S
C1356 C1350 1.368 1_655 S
C1356 C1355 1.523 . S
C1357 C1341 1.429 . S
C1357 C1353 1.429 . S
C1357 C1358 1.523 . S
C1358 C1342 1.368 . S
C1358 C1354 1.368 . S
C1358 C1357 1.523 . S
H1359 C1334 0.950 1_556 S
H1360 C1336 0.950 . S
H1361 C1337 0.949 . S
H1362 C1339 0.950 . S
H1363 C1341 0.950 . S
C1364 C1365 1.349 . S
C1364 C1366 1.327 . S
C1364 H1389 0.950 . S
C1365 C1364 1.349 . S
C1365 C1381 1.349 . S
C1366 C1364 1.327 . S
C1366 C1385 1.429 . S
C1366 H1390 0.950 . S
C1367 C1384 1.574 . S
C1367 C1386 1.368 . S
C1367 H1391 0.949 . S
H1368 C1372 0.949 . S
C1369 C1370 1.349 . S
C1369 C1371 1.327 . S
C1369 H1392 0.950 . S
C1370 C1369 1.349 . S
C1370 C1382 1.349 . S
C1371 C1369 1.327 . S
C1371 C1387 1.429 . S
C1371 H1393 0.950 . S
C1372 H1368 0.949 . S
C1372 C1380 1.574 . S
C1372 C1388 1.368 . S
H1373 C1381 0.950 . S
H1374 C1379 0.950 . S
H1375 C1380 0.949 . S
H1376 C1382 0.950 . S
H1377 C1383 0.950 . S
H1378 C1384 0.949 . S
C1379 H1374 0.950 . S
C1379 C1381 1.327 . S
C1379 C1385 1.429 . S
C1380 C1372 1.574 . S
C1380 H1375 0.949 . S
C1380 C1386 1.368 . S
C1381 C1365 1.349 . S
C1381 H1373 0.950 . S
C1381 C1379 1.327 . S
C1382 C1370 1.349 . S
C1382 H1376 0.950 . S
C1382 C1383 1.327 . S
C1383 H1377 0.950 . S
C1383 C1382 1.327 . S
C1383 C1387 1.429 . S
C1384 C1367 1.574 . S
C1384 H1378 0.949 . S
C1384 C1388 1.368 . S
C1385 C1366 1.429 . S
C1385 C1379 1.429 . S
C1385 C1386 1.523 . S
C1386 C1367 1.368 . S
C1386 C1380 1.368 . S
C1386 C1385 1.523 . S
C1387 C1371 1.429 . S
C1387 C1383 1.429 . S
C1387 C1388 1.523 . S
C1388 C1372 1.368 . S
C1388 C1384 1.368 . S
C1388 C1387 1.523 . S
H1389 C1364 0.950 . S
H1390 C1366 0.950 . S
H1391 C1367 0.949 . S
H1392 C1369 0.950 . S
H1393 C1371 0.950 . S
C1394 C1395 1.349 . S
C1394 C1396 1.327 . S
C1394 H1419 0.950 . S
C1395 C1394 1.349 . S
C1395 C1411 1.349 . S
C1396 C1394 1.327 . S
C1396 C1415 1.429 . S
C1396 H1420 0.950 . S
C1397 C1414 1.574 . S
C1397 C1416 1.368 . S
C1397 H1421 0.949 . S
H1398 C1402 0.949 . S
C1399 C1400 1.349 . S
C1399 C1401 1.327 . S
C1399 H1422 0.950 . S
C1400 C1399 1.349 . S
C1400 C1412 1.349 . S
C1401 C1399 1.327 . S
C1401 C1417 1.429 . S
C1401 H1423 0.950 . S
C1402 H1398 0.949 . S
C1402 C1410 1.574 . S
C1402 C1418 1.368 . S
H1403 C1411 0.950 . S
H1404 C1409 0.950 . S
H1405 C1410 0.949 . S
H1406 C1412 0.950 . S
H1407 C1413 0.950 . S
H1408 C1414 0.949 . S
C1409 H1404 0.950 . S
C1409 C1411 1.327 . S
C1409 C1415 1.429 . S
C1410 C1402 1.574 . S
C1410 H1405 0.949 . S
C1410 C1416 1.368 . S
C1411 C1395 1.349 . S
C1411 H1403 0.950 . S
C1411 C1409 1.327 . S
C1412 C1400 1.349 . S
C1412 H1406 0.950 . S
C1412 C1413 1.327 . S
C1413 H1407 0.950 . S
C1413 C1412 1.327 . S
C1413 C1417 1.429 . S
C1414 C1397 1.574 . S
C1414 H1408 0.949 . S
C1414 C1418 1.368 . S
C1415 C1396 1.429 . S
C1415 C1409 1.429 . S
C1415 C1416 1.523 . S
C1416 C1397 1.368 . S
C1416 C1410 1.368 . S
C1416 C1415 1.523 . S
C1417 C1401 1.429 . S
C1417 C1413 1.429 . S
C1417 C1418 1.523 . S
C1418 C1402 1.368 . S
C1418 C1414 1.368 . S
C1418 C1417 1.523 . S
H1419 C1394 0.950 . S
H1420 C1396 0.950 . S
H1421 C1397 0.949 . S
H1422 C1399 0.950 . S
H1423 C1401 0.950 . S
C1424 C1425 1.349 . S
C1424 C1426 1.327 . S
C1424 H1449 0.950 . S
C1425 C1424 1.349 . S
C1425 C1441 1.349 . S
C1426 C1424 1.327 . S
C1426 C1445 1.429 . S
C1426 H1450 0.950 . S
C1427 C1444 1.574 . S
C1427 C1446 1.368 . S
C1427 H1451 0.949 . S
H1428 C1432 0.949 . S
C1429 C1430 1.349 . S
C1429 C1431 1.327 . S
C1429 H1452 0.950 . S
C1430 C1429 1.349 . S
C1430 C1442 1.349 . S
C1431 C1429 1.327 . S
C1431 C1447 1.429 . S
C1431 H1453 0.950 . S
C1432 H1428 0.949 . S
C1432 C1440 1.574 . S
C1432 C1448 1.368 . S
H1433 C1441 0.950 . S
H1434 C1439 0.950 . S
H1435 C1440 0.949 . S
H1436 C1442 0.950 . S
H1437 C1443 0.950 . S
H1438 C1444 0.949 . S
C1439 H1434 0.950 . S
C1439 C1441 1.327 . S
C1439 C1445 1.429 . S
C1440 C1432 1.574 . S
C1440 H1435 0.949 . S
C1440 C1446 1.368 . S
C1441 C1425 1.349 . S
C1441 H1433 0.950 . S
C1441 C1439 1.327 . S
C1442 C1430 1.349 . S
C1442 H1436 0.950 . S
C1442 C1443 1.327 . S
C1443 H1437 0.950 . S
C1443 C1442 1.327 . S
C1443 C1447 1.429 . S
C1444 C1427 1.574 . S
C1444 H1438 0.949 . S
C1444 C1448 1.368 . S
C1445 C1426 1.429 . S
C1445 C1439 1.429 . S
C1445 C1446 1.523 . S
C1446 C1427 1.368 . S
C1446 C1440 1.368 . S
C1446 C1445 1.523 . S
C1447 C1431 1.429 . S
C1447 C1443 1.429 . S
C1447 C1448 1.523 . S
C1448 C1432 1.368 . S
C1448 C1444 1.368 . S
C1448 C1447 1.523 . S
H1449 C1424 0.950 . S
H1450 C1426 0.950 . S
H1451 C1427 0.949 . S
H1452 C1429 0.950 . S
H1453 C1431 0.950 . S
C1454 C1455 1.349 . S
C1454 C1456 1.327 . S
C1454 H1479 0.950 . S
C1455 C1454 1.349 . S
C1455 C1471 1.349 . S
C1456 C1454 1.327 . S
C1456 C1475 1.429 . S
C1456 H1480 0.950 . S
C1457 C1474 1.574 . S
C1457 C1476 1.368 . S
C1457 H1481 0.949 . S
H1458 C1462 0.949 . S
C1459 C1460 1.350 . S
C1459 C1461 1.341 . S
C1459 H1482 0.935 1_554 S
C1460 C1459 1.350 . S
C1460 C1472 1.349 . S
C1461 C1459 1.341 . S
C1461 C1477 1.429 . S
C1461 H1483 0.950 . S
C1462 H1458 0.949 . S
C1462 C1470 1.574 . S
C1462 C1478 1.368 . S
H1463 C1471 0.950 . S
H1464 C1469 0.950 . S
H1465 C1470 0.949 . S
H1466 C1472 0.950 . S
H1467 C1473 0.950 . S
H1468 C1474 0.949 . S
C1469 H1464 0.950 . S
C1469 C1471 1.327 . S
C1469 C1475 1.429 . S
C1470 C1462 1.574 . S
C1470 H1465 0.949 . S
C1470 C1476 1.368 . S
C1471 C1455 1.349 . S
C1471 H1463 0.950 . S
C1471 C1469 1.327 . S
C1472 C1460 1.349 . S
C1472 H1466 0.950 . S
C1472 C1473 1.327 . S
C1473 H1467 0.950 . S
C1473 C1472 1.327 . S
C1473 C1477 1.429 . S
C1474 C1457 1.574 . S
C1474 H1468 0.949 . S
C1474 C1478 1.368 . S
C1475 C1456 1.429 . S
C1475 C1469 1.429 . S
C1475 C1476 1.523 . S
C1476 C1457 1.368 . S
C1476 C1470 1.368 . S
C1476 C1475 1.523 . S
C1477 C1461 1.429 . S
C1477 C1473 1.429 . S
C1477 C1478 1.523 . S
C1478 C1462 1.368 . S
C1478 C1474 1.368 . S
C1478 C1477 1.523 . S
H1479 C1454 0.950 . S
H1480 C1456 0.950 . S
H1481 C1457 0.949 . S
H1482 C1459 0.935 1_556 S
H1483 C1461 0.950 . S
C1484 C1485 1.349 . S
C1484 C1486 1.327 . S
C1484 H1509 0.950 . S
C1485 C1484 1.349 . S
C1485 C1501 1.349 . S
C1486 C1484 1.327 . S
C1486 C1505 1.429 . S
C1486 H1510 0.950 . S
C1487 C1504 1.574 . S
C1487 C1506 1.368 . S
C1487 H1511 0.949 . S
H1488 C1492 0.949 . S
C1489 C1490 1.349 . S
C1489 C1491 1.327 . S
C1489 H1512 0.950 . S
C1490 C1489 1.349 . S
C1490 C1502 1.349 1_554 S
C1491 C1489 1.327 . S
C1491 C1507 1.429 1_554 S
C1491 H1513 0.950 . S
C1492 H1488 0.949 . S
C1492 C1500 1.574 . S
C1492 C1508 1.368 . S
H1493 C1501 0.950 . S
H1494 C1499 0.950 . S
H1495 C1500 0.949 . S
H1496 C1502 0.950 . S
H1497 C1503 0.950 . S
H1498 C1504 0.949 . S
C1499 H1494 0.950 . S
C1499 C1501 1.327 . S
C1499 C1505 1.429 . S
C1500 C1492 1.574 . S
C1500 H1495 0.949 . S
C1500 C1506 1.368 . S
C1501 C1485 1.349 . S
C1501 H1493 0.950 . S
C1501 C1499 1.327 . S
C1502 C1490 1.349 1_556 S
C1502 H1496 0.950 . S
C1502 C1503 1.327 . S
C1503 H1497 0.950 . S
C1503 C1502 1.327 . S
C1503 C1507 1.429 . S
C1504 C1487 1.574 . S
C1504 H1498 0.949 . S
C1504 C1508 1.368 . S
C1505 C1486 1.429 . S
C1505 C1499 1.429 . S
C1505 C1506 1.523 . S
C1506 C1487 1.368 . S
C1506 C1500 1.368 . S
C1506 C1505 1.523 . S
C1507 C1491 1.429 1_556 S
C1507 C1503 1.429 . S
C1507 C1508 1.523 . S
C1508 C1492 1.368 . S
C1508 C1504 1.368 . S
C1508 C1507 1.523 . S
H1509 C1484 0.950 . S
H1510 C1486 0.950 . S
H1511 C1487 0.949 . S
H1512 C1489 0.950 . S
H1513 C1491 0.950 . S
C1514 C1515 1.349 . S
C1514 C1516 1.327 . S
C1514 H1539 0.950 . S
C1515 C1514 1.349 . S
C1515 C1531 1.349 . S
C1516 C1514 1.327 . S
C1516 C1535 1.429 . S
C1516 H1540 0.950 . S
C1517 C1534 1.574 1_455 S
C1517 C1536 1.368 . S
C1517 H1541 0.949 . S
H1518 C1522 0.949 . S
C1519 C1520 1.349 . S
C1519 C1521 1.327 . S
C1519 H1542 0.950 . S
C1520 C1519 1.349 . S
C1520 C1532 1.349 . S
C1521 C1519 1.327 . S
C1521 C1537 1.429 . S
C1521 H1543 0.950 . S
C1522 H1518 0.949 . S
C1522 C1530 1.574 . S
C1522 C1538 1.368 . S
H1523 C1531 0.950 . S
H1524 C1529 0.950 . S
H1525 C1530 0.949 . S
H1526 C1532 0.950 . S
H1527 C1533 0.950 . S
H1528 C1534 0.949 . S
C1529 H1524 0.950 . S
C1529 C1531 1.327 . S
C1529 C1535 1.429 . S
C1530 C1522 1.574 . S
C1530 H1525 0.949 . S
C1530 C1536 1.368 1_655 S
C1531 C1515 1.349 . S
C1531 H1523 0.950 . S
C1531 C1529 1.327 . S
C1532 C1520 1.349 . S
C1532 H1526 0.950 . S
C1532 C1533 1.327 . S
C1533 H1527 0.950 . S
C1533 C1532 1.327 . S
C1533 C1537 1.429 . S
C1534 C1517 1.574 1_655 S
C1534 H1528 0.949 . S
C1534 C1538 1.368 . S
C1535 C1516 1.429 . S
C1535 C1529 1.429 . S
C1535 C1536 1.523 . S
C1536 C1517 1.368 . S
C1536 C1530 1.368 1_455 S
C1536 C1535 1.523 . S
C1537 C1521 1.429 . S
C1537 C1533 1.429 . S
C1537 C1538 1.523 . S
C1538 C1522 1.368 . S
C1538 C1534 1.368 . S
C1538 C1537 1.523 . S
H1539 C1514 0.950 . S
H1540 C1516 0.950 . S
H1541 C1517 0.949 . S
H1542 C1519 0.950 . S
H1543 C1521 0.950 . S
C1544 C1545 1.349 . S
C1544 C1546 1.327 . S
C1544 H1569 0.950 . S
C1545 C1544 1.349 . S
C1545 C1561 1.349 . S
C1546 C1544 1.327 . S
C1546 C1565 1.429 . S
C1546 H1570 0.950 . S
C1547 C1564 1.574 . S
C1547 C1566 1.368 . S
C1547 H1571 0.949 . S
H1548 C1552 0.949 . S
C1549 C1550 1.351 1_554 S
C1549 C1551 1.325 . S
C1549 H1572 0.950 1_554 S
C1550 C1549 1.351 1_556 S
C1550 C1562 1.349 . S
C1551 C1549 1.325 . S
C1551 C1567 1.429 . S
C1551 H1573 0.950 . S
C1552 H1548 0.949 . S
C1552 C1560 1.574 . S
C1552 C1568 1.368 . S
H1553 C1561 0.950 . S
H1554 C1559 0.950 . S
H1555 C1560 0.949 . S
H1556 C1562 0.950 . S
H1557 C1563 0.950 . S
H1558 C1564 0.949 . S
C1559 H1554 0.950 . S
C1559 C1561 1.327 . S
C1559 C1565 1.429 . S
C1560 C1552 1.574 . S
C1560 H1555 0.949 . S
C1560 C1566 1.368 . S
C1561 C1545 1.349 . S
C1561 H1553 0.950 . S
C1561 C1559 1.327 . S
C1562 C1550 1.349 . S
C1562 H1556 0.950 . S
C1562 C1563 1.327 . S
C1563 H1557 0.950 . S
C1563 C1562 1.327 . S
C1563 C1567 1.429 1_556 S
C1564 C1547 1.574 . S
C1564 H1558 0.949 . S
C1564 C1568 1.368 . S
C1565 C1546 1.429 . S
C1565 C1559 1.429 . S
C1565 C1566 1.523 . S
C1566 C1547 1.368 . S
C1566 C1560 1.368 . S
C1566 C1565 1.523 . S
C1567 C1551 1.429 . S
C1567 C1563 1.429 1_554 S
C1567 C1568 1.523 . S
C1568 C1552 1.368 . S
C1568 C1564 1.368 . S
C1568 C1567 1.523 . S
H1569 C1544 0.950 . S
H1570 C1546 0.950 . S
H1571 C1547 0.949 . S
H1572 C1549 0.950 1_556 S
H1573 C1551 0.950 . S
C1574 C1575 1.349 . S
C1574 C1576 1.327 . S
C1574 H1599 0.950 . S
C1575 C1574 1.349 . S
C1575 C1591 1.349 . S
C1576 C1574 1.327 . S
C1576 C1595 1.429 . S
C1576 H1600 0.950 . S
C1577 C1594 1.574 1_655 S
C1577 C1596 1.368 . S
C1577 H1601 0.949 . S
H1578 C1582 0.949 . S
C1579 C1580 1.349 . S
C1579 C1581 1.327 . S
C1579 H1602 0.950 . S
C1580 C1579 1.349 . S
C1580 C1592 1.349 . S
C1581 C1579 1.327 . S
C1581 C1597 1.429 . S
C1581 H1603 0.950 . S
C1582 H1578 0.949 . S
C1582 C1590 1.574 . S
C1582 C1598 1.368 1_655 S
H1583 C1591 0.950 . S
H1584 C1589 0.950 . S
H1585 C1590 0.949 . S
H1586 C1592 0.950 1_554 S
H1587 C1593 0.950 . S
H1588 C1594 0.949 . S
C1589 H1584 0.950 . S
C1589 C1591 1.327 . S
C1589 C1595 1.429 . S
C1590 C1582 1.574 . S
C1590 H1585 0.949 . S
C1590 C1596 1.368 . S
C1591 C1575 1.349 . S
C1591 H1583 0.950 . S
C1591 C1589 1.327 . S
C1592 C1580 1.349 . S
C1592 H1586 0.950 1_556 S
C1592 C1593 1.327 . S
C1593 H1587 0.950 . S
C1593 C1592 1.327 . S
C1593 C1597 1.429 . S
C1594 C1577 1.574 1_455 S
C1594 H1588 0.949 . S
C1594 C1598 1.368 . S
C1595 C1576 1.429 . S
C1595 C1589 1.429 . S
C1595 C1596 1.523 . S
C1596 C1577 1.368 . S
C1596 C1590 1.368 . S
C1596 C1595 1.523 . S
C1597 C1581 1.429 . S
C1597 C1593 1.429 . S
C1597 C1598 1.523 . S
C1598 C1582 1.368 1_455 S
C1598 C1594 1.368 . S
C1598 C1597 1.523 . S
H1599 C1574 0.950 . S
H1600 C1576 0.950 . S
H1601 C1577 0.949 . S
H1602 C1579 0.950 . S
H1603 C1581 0.950 . S
C1604 C1605 1.349 . S
C1604 C1606 1.327 . S
C1604 H1629 0.950 . S
C1605 C1604 1.349 . S
C1605 C1621 1.349 . S
C1606 C1604 1.327 . S
C1606 C1625 1.429 . S
C1606 H1630 0.950 . S
C1607 C1624 1.574 . S
C1607 C1626 1.368 . S
C1607 H1631 0.949 . S
H1608 C1612 0.949 . S
C1609 C1610 1.349 . S
C1609 C1611 1.327 . S
C1609 H1632 0.950 . S
C1610 C1609 1.349 . S
C1610 C1622 1.349 . S
C1611 C1609 1.327 . S
C1611 C1627 1.429 . S
C1611 H1633 0.950 . S
C1612 H1608 0.949 . S
C1612 C1620 1.574 . S
C1612 C1628 1.368 . S
H1613 C1621 0.950 . S
H1614 C1619 0.950 . S
H1615 C1620 0.949 . S
H1616 C1622 0.950 . S
H1617 C1623 0.950 . S
H1618 C1624 0.949 . S
C1619 H1614 0.950 . S
C1619 C1621 1.327 . S
C1619 C1625 1.429 . S
C1620 C1612 1.574 . S
C1620 H1615 0.949 . S
C1620 C1626 1.368 . S
C1621 C1605 1.349 . S
C1621 H1613 0.950 . S
C1621 C1619 1.327 . S
C1622 C1610 1.349 . S
C1622 H1616 0.950 . S
C1622 C1623 1.327 . S
C1623 H1617 0.950 . S
C1623 C1622 1.327 . S
C1623 C1627 1.429 . S
C1624 C1607 1.574 . S
C1624 H1618 0.949 . S
C1624 C1628 1.368 . S
C1625 C1606 1.429 . S
C1625 C1619 1.429 . S
C1625 C1626 1.523 . S
C1626 C1607 1.368 . S
C1626 C1620 1.368 . S
C1626 C1625 1.523 . S
C1627 C1611 1.429 . S
C1627 C1623 1.429 . S
C1627 C1628 1.523 . S
C1628 C1612 1.368 . S
C1628 C1624 1.368 . S
C1628 C1627 1.523 . S
H1629 C1604 0.950 . S
H1630 C1606 0.950 . S
H1631 C1607 0.949 . S
H1632 C1609 0.950 . S
H1633 C1611 0.950 . S
C1634 C1635 1.349 . S
C1634 C1636 1.327 . S
C1634 H1659 0.950 . S
C1635 C1634 1.349 . S
C1635 C1651 1.349 . S
C1636 C1634 1.327 . S
C1636 C1655 1.429 . S
C1636 H1660 0.950 . S
C1637 C1654 1.574 . S
C1637 C1656 1.368 . S
C1637 H1661 0.949 . S
H1638 C1642 0.949 . S
C1639 C1640 1.349 . S
C1639 C1641 1.327 . S
C1639 H1662 0.950 . S
C1640 C1639 1.349 . S
C1640 C1652 1.349 . S
C1641 C1639 1.327 . S
C1641 C1657 1.429 . S
C1641 H1663 0.950 . S
C1642 H1638 0.949 . S
C1642 C1650 1.574 . S
C1642 C1658 1.368 . S
H1643 C1651 0.950 . S
H1644 C1649 0.950 . S
H1645 C1650 0.949 . S
H1646 C1652 0.950 . S
H1647 C1653 0.950 . S
H1648 C1654 0.949 . S
C1649 H1644 0.950 . S
C1649 C1651 1.327 . S
C1649 C1655 1.429 . S
C1650 C1642 1.574 . S
C1650 H1645 0.949 . S
C1650 C1656 1.368 . S
C1651 C1635 1.349 . S
C1651 H1643 0.950 . S
C1651 C1649 1.327 . S
C1652 C1640 1.349 . S
C1652 H1646 0.950 . S
C1652 C1653 1.327 . S
C1653 H1647 0.950 . S
C1653 C1652 1.327 . S
C1653 C1657 1.429 . S
C1654 C1637 1.574 . S
C1654 H1648 0.949 . S
C1654 C1658 1.368 . S
C1655 C1636 1.429 . S
C1655 C1649 1.429 . S
C1655 C1656 1.523 . S
C1656 C1637 1.368 . S
C1656 C1650 1.368 . S
C1656 C1655 1.523 . S
C1657 C1641 1.429 . S
C1657 C1653 1.429 . S
C1657 C1658 1.523 . S
C1658 C1642 1.368 . S
C1658 C1654 1.368 . S
C1658 C1657 1.523 . S
H1659 C1634 0.950 . S
H1660 C1636 0.950 . S
H1661 C1637 0.949 . S
H1662 C1639 0.950 . S
H1663 C1641 0.950 . S
C1664 C1665 1.349 . S
C1664 C1666 1.327 1_556 S
C1664 H1689 0.950 . S
C1665 C1664 1.349 . S
C1665 C1681 1.349 1_556 S
C1666 C1664 1.327 1_554 S
C1666 C1685 1.429 . S
C1666 H1690 0.950 . S
C1667 C1684 1.574 . S
C1667 C1686 1.368 . S
C1667 H1691 0.949 . S
H1668 C1672 0.949 . S
C1669 C1670 1.349 . S
C1669 C1671 1.327 . S
C1669 H1692 0.950 . S
C1670 C1669 1.349 . S
C1670 C1682 1.349 . S
C1671 C1669 1.327 . S
C1671 C1687 1.429 . S
C1671 H1693 0.950 . S
C1672 H1668 0.949 . S
C1672 C1680 1.574 . S
C1672 C1688 1.368 . S
H1673 C1681 0.950 . S
H1674 C1679 0.950 . S
H1675 C1680 0.949 . S
H1676 C1682 0.950 . S
H1677 C1683 0.950 . S
H1678 C1684 0.949 . S
C1679 H1674 0.950 . S
C1679 C1681 1.327 . S
C1679 C1685 1.429 . S
C1680 C1672 1.574 . S
C1680 H1675 0.949 . S
C1680 C1686 1.368 . S
C1681 C1665 1.349 1_554 S
C1681 H1673 0.950 . S
C1681 C1679 1.327 . S
C1682 C1670 1.349 . S
C1682 H1676 0.950 . S
C1682 C1683 1.327 . S
C1683 H1677 0.950 . S
C1683 C1682 1.327 . S
C1683 C1687 1.429 . S
C1684 C1667 1.574 . S
C1684 H1678 0.949 . S
C1684 C1688 1.368 . S
C1685 C1666 1.429 . S
C1685 C1679 1.429 . S
C1685 C1686 1.523 . S
C1686 C1667 1.368 . S
C1686 C1680 1.368 . S
C1686 C1685 1.523 . S
C1687 C1671 1.429 . S
C1687 C1683 1.429 . S
C1687 C1688 1.523 . S
C1688 C1672 1.368 . S
C1688 C1684 1.368 . S
C1688 C1687 1.523 . S
H1689 C1664 0.950 . S
H1690 C1666 0.950 . S
H1691 C1667 0.949 . S
H1692 C1669 0.950 . S
H1693 C1671 0.950 . S
C1694 C1695 1.349 . S
C1694 C1696 1.327 . S
C1694 H1719 0.950 . S
C1695 C1694 1.349 . S
C1695 C1711 1.349 . S
C1696 C1694 1.327 . S
C1696 C1715 1.429 . S
C1696 H1720 0.950 . S
C1697 C1714 1.574 . S
C1697 C1716 1.368 . S
C1697 H1721 0.949 . S
H1698 C1702 0.949 . S
C1699 C1700 1.349 . S
C1699 C1701 1.327 . S
C1699 H1722 0.950 . S
C1700 C1699 1.349 . S
C1700 C1712 1.349 . S
C1701 C1699 1.327 . S
C1701 C1717 1.429 . S
C1701 H1723 0.950 . S
C1702 H1698 0.949 . S
C1702 C1710 1.574 . S
C1702 C1718 1.368 . S
H1703 C1711 0.950 . S
H1704 C1709 0.950 . S
H1705 C1710 0.949 . S
H1706 C1712 0.950 . S
H1707 C1713 0.950 . S
H1708 C1714 0.949 . S
C1709 H1704 0.950 . S
C1709 C1711 1.327 . S
C1709 C1715 1.429 . S
C1710 C1702 1.574 . S
C1710 H1705 0.949 . S
C1710 C1716 1.368 . S
C1711 C1695 1.349 . S
C1711 H1703 0.950 . S
C1711 C1709 1.327 . S
C1712 C1700 1.349 . S
C1712 H1706 0.950 . S
C1712 C1713 1.327 . S
C1713 H1707 0.950 . S
C1713 C1712 1.327 . S
C1713 C1717 1.429 . S
C1714 C1697 1.574 . S
C1714 H1708 0.949 . S
C1714 C1718 1.368 . S
C1715 C1696 1.429 . S
C1715 C1709 1.429 . S
C1715 C1716 1.523 . S
C1716 C1697 1.368 . S
C1716 C1710 1.368 . S
C1716 C1715 1.523 . S
C1717 C1701 1.429 . S
C1717 C1713 1.429 . S
C1717 C1718 1.523 . S
C1718 C1702 1.368 . S
C1718 C1714 1.368 . S
C1718 C1717 1.523 . S
H1719 C1694 0.950 . S
H1720 C1696 0.950 . S
H1721 C1697 0.949 . S
H1722 C1699 0.950 . S
H1723 C1701 0.950 . S
C1724 C1725 1.349 . S
C1724 C1726 1.327 . S
C1724 H1749 0.950 . S
C1725 C1724 1.349 . S
C1725 C1741 1.349 . S
C1726 C1724 1.327 . S
C1726 C1745 1.429 . S
C1726 H1750 0.950 . S
C1727 C1744 1.574 . S
C1727 C1746 1.368 . S
C1727 H1751 0.949 . S
H1728 C1732 0.949 . S
C1729 C1730 1.349 . S
C1729 C1731 1.327 . S
C1729 H1752 0.950 . S
C1730 C1729 1.349 . S
C1730 C1742 1.349 . S
C1731 C1729 1.327 . S
C1731 C1747 1.429 . S
C1731 H1753 0.950 . S
C1732 H1728 0.949 . S
C1732 C1740 1.574 . S
C1732 C1748 1.368 . S
H1733 C1741 0.950 . S
H1734 C1739 0.950 . S
H1735 C1740 0.949 . S
H1736 C1742 0.950 . S
H1737 C1743 0.950 . S
H1738 C1744 0.949 . S
C1739 H1734 0.950 . S
C1739 C1741 1.327 . S
C1739 C1745 1.429 . S
C1740 C1732 1.574 . S
C1740 H1735 0.949 . S
C1740 C1746 1.368 . S
C1741 C1725 1.349 . S
C1741 H1733 0.950 . S
C1741 C1739 1.327 . S
C1742 C1730 1.349 . S
C1742 H1736 0.950 . S
C1742 C1743 1.327 . S
C1743 H1737 0.950 . S
C1743 C1742 1.327 . S
C1743 C1747 1.429 . S
C1744 C1727 1.574 . S
C1744 H1738 0.949 . S
C1744 C1748 1.368 . S
C1745 C1726 1.429 . S
C1745 C1739 1.429 . S
C1745 C1746 1.523 . S
C1746 C1727 1.368 . S
C1746 C1740 1.368 . S
C1746 C1745 1.523 . S
C1747 C1731 1.429 . S
C1747 C1743 1.429 . S
C1747 C1748 1.523 . S
C1748 C1732 1.368 . S
C1748 C1744 1.368 . S
C1748 C1747 1.523 . S
H1749 C1724 0.950 . S
H1750 C1726 0.950 . S
H1751 C1727 0.949 . S
H1752 C1729 0.950 . S
H1753 C1731 0.950 . S
C1754 C1755 1.349 . S
C1754 C1756 1.327 . S
C1754 H1779 0.950 . S
C1755 C1754 1.349 . S
C1755 C1771 1.349 . S
C1756 C1754 1.327 . S
C1756 C1775 1.429 . S
C1756 H1780 0.950 . S
C1757 C1774 1.574 . S
C1757 C1776 1.368 . S
C1757 H1781 0.949 . S
H1758 C1762 0.949 . S
C1759 C1760 1.349 . S
C1759 C1761 1.327 1_554 S
C1759 H1782 0.950 . S
C1760 C1759 1.349 . S
C1760 C1772 1.349 1_554 S
C1761 C1759 1.327 1_556 S
C1761 C1777 1.429 . S
C1761 H1783 0.950 . S
C1762 H1758 0.949 . S
C1762 C1770 1.574 . S
C1762 C1778 1.368 . S
H1763 C1771 0.950 . S
H1764 C1769 0.950 . S
H1765 C1770 0.949 . S
H1766 C1772 0.950 1_554 S
H1767 C1773 0.950 . S
H1768 C1774 0.949 . S
C1769 H1764 0.950 . S
C1769 C1771 1.327 . S
C1769 C1775 1.429 . S
C1770 C1762 1.574 . S
C1770 H1765 0.949 . S
C1770 C1776 1.368 . S
C1771 C1755 1.349 . S
C1771 H1763 0.950 . S
C1771 C1769 1.327 . S
C1772 C1760 1.349 1_556 S
C1772 H1766 0.950 1_556 S
C1772 C1773 1.327 . S
C1773 H1767 0.950 . S
C1773 C1772 1.327 . S
C1773 C1777 1.429 . S
C1774 C1757 1.574 . S
C1774 H1768 0.949 . S
C1774 C1778 1.368 . S
C1775 C1756 1.429 . S
C1775 C1769 1.429 . S
C1775 C1776 1.523 . S
C1776 C1757 1.368 . S
C1776 C1770 1.368 . S
C1776 C1775 1.523 . S
C1777 C1761 1.429 . S
C1777 C1773 1.429 . S
C1777 C1778 1.523 . S
C1778 C1762 1.368 . S
C1778 C1774 1.368 . S
C1778 C1777 1.523 . S
H1779 C1754 0.950 . S
H1780 C1756 0.950 . S
H1781 C1757 0.949 . S
H1782 C1759 0.950 . S
H1783 C1761 0.950 . S
C1784 C1785 1.349 . S
C1784 C1786 1.327 1_554 S
C1784 H1809 0.950 . S
C1785 C1784 1.349 . S
C1785 C1801 1.349 1_554 S
C1786 C1784 1.327 1_556 S
C1786 C1805 1.429 . S
C1786 H1810 0.950 . S
C1787 C1804 1.574 . S
C1787 C1806 1.368 . S
C1787 H1811 0.949 . S
H1788 C1792 0.949 . S
C1789 C1790 1.349 . S
C1789 C1791 1.327 . S
C1789 H1812 0.950 . S
C1790 C1789 1.349 . S
C1790 C1802 1.349 . S
C1791 C1789 1.327 . S
C1791 C1807 1.429 . S
C1791 H1813 0.950 . S
C1792 H1788 0.949 . S
C1792 C1800 1.574 . S
C1792 C1808 1.368 . S
H1793 C1801 0.950 . S
H1794 C1799 0.950 . S
H1795 C1800 0.949 . S
H1796 C1802 0.950 . S
H1797 C1803 0.950 . S
H1798 C1804 0.949 . S
C1799 H1794 0.950 . S
C1799 C1801 1.327 . S
C1799 C1805 1.429 . S
C1800 C1792 1.574 . S
C1800 H1795 0.949 . S
C1800 C1806 1.368 . S
C1801 C1785 1.349 1_556 S
C1801 H1793 0.950 . S
C1801 C1799 1.327 . S
C1802 C1790 1.349 . S
C1802 H1796 0.950 . S
C1802 C1803 1.327 . S
C1803 H1797 0.950 . S
C1803 C1802 1.327 . S
C1803 C1807 1.429 . S
C1804 C1787 1.574 . S
C1804 H1798 0.949 . S
C1804 C1808 1.368 . S
C1805 C1786 1.429 . S
C1805 C1799 1.429 . S
C1805 C1806 1.523 . S
C1806 C1787 1.368 . S
C1806 C1800 1.368 . S
C1806 C1805 1.523 . S
C1807 C1791 1.429 . S
C1807 C1803 1.429 . S
C1807 C1808 1.523 . S
C1808 C1792 1.368 . S
C1808 C1804 1.368 . S
C1808 C1807 1.523 . S
H1809 C1784 0.950 . S
H1810 C1786 0.950 . S
H1811 C1787 0.949 . S
H1812 C1789 0.950 . S
H1813 C1791 0.950 . S
C1814 C1815 1.349 . S
C1814 C1816 1.327 . S
C1814 H1839 0.950 . S
C1815 C1814 1.349 . S
C1815 C1831 1.349 . S
C1816 C1814 1.327 . S
C1816 C1835 1.429 . S
C1816 H1840 0.950 . S
C1817 C1834 1.574 . S
C1817 C1836 1.368 . S
C1817 H1841 0.949 . S
H1818 C1822 0.949 . S
C1819 C1820 1.349 . S
C1819 C1821 1.327 . S
C1819 H1842 0.950 . S
C1820 C1819 1.349 . S
C1820 C1832 1.349 . S
C1821 C1819 1.327 . S
C1821 C1837 1.429 . S
C1821 H1843 0.950 . S
C1822 H1818 0.949 . S
C1822 C1830 1.574 . S
C1822 C1838 1.368 . S
H1823 C1831 0.950 . S
H1824 C1829 0.950 . S
H1825 C1830 0.949 . S
H1826 C1832 0.950 . S
H1827 C1833 0.950 . S
H1828 C1834 0.949 . S
C1829 H1824 0.950 . S
C1829 C1831 1.327 . S
C1829 C1835 1.429 . S
C1830 C1822 1.574 . S
C1830 H1825 0.949 . S
C1830 C1836 1.368 . S
C1831 C1815 1.349 . S
C1831 H1823 0.950 . S
C1831 C1829 1.327 . S
C1832 C1820 1.349 . S
C1832 H1826 0.950 . S
C1832 C1833 1.327 . S
C1833 H1827 0.950 . S
C1833 C1832 1.327 . S
C1833 C1837 1.429 . S
C1834 C1817 1.574 . S
C1834 H1828 0.949 . S
C1834 C1838 1.368 . S
C1835 C1816 1.429 . S
C1835 C1829 1.429 . S
C1835 C1836 1.523 . S
C1836 C1817 1.368 . S
C1836 C1830 1.368 . S
C1836 C1835 1.523 . S
C1837 C1821 1.429 . S
C1837 C1833 1.429 . S
C1837 C1838 1.523 . S
C1838 C1822 1.368 . S
C1838 C1834 1.368 . S
C1838 C1837 1.523 . S
H1839 C1814 0.950 . S
H1840 C1816 0.950 . S
H1841 C1817 0.949 . S
H1842 C1819 0.950 . S
H1843 C1821 0.950 . S
C1844 C1845 1.349 . S
C1844 C1846 1.327 . S
C1844 H1869 0.950 . S
C1845 C1844 1.349 . S
C1845 C1861 1.349 . S
C1846 C1844 1.327 . S
C1846 C1865 1.429 . S
C1846 H1870 0.950 . S
C1847 C1864 1.574 . S
C1847 C1866 1.368 . S
C1847 H1871 0.949 . S
H1848 C1852 0.949 . S
C1849 C1850 1.349 . S
C1849 C1851 1.327 . S
C1849 H1872 0.950 . S
C1850 C1849 1.349 . S
C1850 C1862 1.349 . S
C1851 C1849 1.327 . S
C1851 C1867 1.429 . S
C1851 H1873 0.950 . S
C1852 H1848 0.949 . S
C1852 C1860 1.574 . S
C1852 C1868 1.368 . S
H1853 C1861 0.950 . S
H1854 C1859 0.950 . S
H1855 C1860 0.949 . S
H1856 C1862 0.950 . S
H1857 C1863 0.950 . S
H1858 C1864 0.949 . S
C1859 H1854 0.950 . S
C1859 C1861 1.327 . S
C1859 C1865 1.429 . S
C1860 C1852 1.574 . S
C1860 H1855 0.949 . S
C1860 C1866 1.368 . S
C1861 C1845 1.349 . S
C1861 H1853 0.950 . S
C1861 C1859 1.327 . S
C1862 C1850 1.349 . S
C1862 H1856 0.950 . S
C1862 C1863 1.327 . S
C1863 H1857 0.950 . S
C1863 C1862 1.327 . S
C1863 C1867 1.429 . S
C1864 C1847 1.574 . S
C1864 H1858 0.949 . S
C1864 C1868 1.368 . S
C1865 C1846 1.429 . S
C1865 C1859 1.429 . S
C1865 C1866 1.523 . S
C1866 C1847 1.368 . S
C1866 C1860 1.368 . S
C1866 C1865 1.523 . S
C1867 C1851 1.429 . S
C1867 C1863 1.429 . S
C1867 C1868 1.523 . S
C1868 C1852 1.368 . S
C1868 C1864 1.368 . S
C1868 C1867 1.523 . S
H1869 C1844 0.950 . S
H1870 C1846 0.950 . S
H1871 C1847 0.949 . S
H1872 C1849 0.950 . S
H1873 C1851 0.950 . S
C1874 C1875 1.349 1_554 S
C1874 C1876 1.327 . S
C1874 H1899 0.950 . S
C1875 C1874 1.349 1_556 S
C1875 C1891 1.349 . S
C1876 C1874 1.327 . S
C1876 C1895 1.429 . S
C1876 H1900 0.950 . S
C1877 C1894 1.574 . S
C1877 C1896 1.368 . S
C1877 H1901 0.949 . S
H1878 C1882 0.949 . S
C1879 C1880 1.349 . S
C1879 C1881 1.327 . S
C1879 H1902 0.950 . S
C1880 C1879 1.349 . S
C1880 C1892 1.349 . S
C1881 C1879 1.327 . S
C1881 C1897 1.429 . S
C1881 H1903 0.950 . S
C1882 H1878 0.949 . S
C1882 C1890 1.574 . S
C1882 C1898 1.368 . S
H1883 C1891 0.950 . S
H1884 C1889 0.950 . S
H1885 C1890 0.949 . S
H1886 C1892 0.950 . S
H1887 C1893 0.950 . S
H1888 C1894 0.949 . S
C1889 H1884 0.950 . S
C1889 C1891 1.327 1_554 S
C1889 C1895 1.429 . S
C1890 C1882 1.574 . S
C1890 H1885 0.949 . S
C1890 C1896 1.368 . S
C1891 C1875 1.349 . S
C1891 H1883 0.950 . S
C1891 C1889 1.327 1_556 S
C1892 C1880 1.349 . S
C1892 H1886 0.950 . S
C1892 C1893 1.327 . S
C1893 H1887 0.950 . S
C1893 C1892 1.327 . S
C1893 C1897 1.429 . S
C1894 C1877 1.574 . S
C1894 H1888 0.949 . S
C1894 C1898 1.368 . S
C1895 C1876 1.429 . S
C1895 C1889 1.429 . S
C1895 C1896 1.523 . S
C1896 C1877 1.368 . S
C1896 C1890 1.368 . S
C1896 C1895 1.523 . S
C1897 C1881 1.429 . S
C1897 C1893 1.429 . S
C1897 C1898 1.523 . S
C1898 C1882 1.368 . S
C1898 C1894 1.368 . S
C1898 C1897 1.523 . S
H1899 C1874 0.950 . S
H1900 C1876 0.950 . S
H1901 C1877 0.949 . S
H1902 C1879 0.950 . S
H1903 C1881 0.950 . S
C1904 C1905 1.349 . S
C1904 C1906 1.327 . S
C1904 H1929 0.950 . S
C1905 C1904 1.349 . S
C1905 C1921 1.349 . S
C1906 C1904 1.327 . S
C1906 C1925 1.429 . S
C1906 H1930 0.950 . S
C1907 C1924 1.574 . S
C1907 C1926 1.368 . S
C1907 H1931 0.949 . S
H1908 C1912 0.949 . S
C1909 C1910 1.349 . S
C1909 C1911 1.327 . S
C1909 H1932 0.950 . S
C1910 C1909 1.349 . S
C1910 C1922 1.349 . S
C1911 C1909 1.327 . S
C1911 C1927 1.429 . S
C1911 H1933 0.950 . S
C1912 H1908 0.949 . S
C1912 C1920 1.574 . S
C1912 C1928 1.368 . S
H1913 C1921 0.950 . S
H1914 C1919 0.950 . S
H1915 C1920 0.949 . S
H1916 C1922 0.950 . S
H1917 C1923 0.950 . S
H1918 C1924 0.949 . S
C1919 H1914 0.950 . S
C1919 C1921 1.327 . S
C1919 C1925 1.429 . S
C1920 C1912 1.574 . S
C1920 H1915 0.949 . S
C1920 C1926 1.368 . S
C1921 C1905 1.349 . S
C1921 H1913 0.950 . S
C1921 C1919 1.327 . S
C1922 C1910 1.349 . S
C1922 H1916 0.950 . S
C1922 C1923 1.327 . S
C1923 H1917 0.950 . S
C1923 C1922 1.327 . S
C1923 C1927 1.429 . S
C1924 C1907 1.574 . S
C1924 H1918 0.949 . S
C1924 C1928 1.368 . S
C1925 C1906 1.429 . S
C1925 C1919 1.429 . S
C1925 C1926 1.523 . S
C1926 C1907 1.368 . S
C1926 C1920 1.368 . S
C1926 C1925 1.523 . S
C1927 C1911 1.429 . S
C1927 C1923 1.429 . S
C1927 C1928 1.523 . S
C1928 C1912 1.368 . S
C1928 C1924 1.368 . S
C1928 C1927 1.523 . S
H1929 C1904 0.950 . S
H1930 C1906 0.950 . S
H1931 C1907 0.949 . S
H1932 C1909 0.950 . S
H1933 C1911 0.950 . S
C1934 C1935 1.349 . S
C1934 C1936 1.327 . S
C1934 H1959 0.950 . S
C1935 C1934 1.349 . S
C1935 C1951 1.349 . S
C1936 C1934 1.327 . S
C1936 C1955 1.429 . S
C1936 H1960 0.950 . S
C1937 C1954 1.574 . S
C1937 C1956 1.368 . S
C1937 H1961 0.949 . S
H1938 C1942 0.949 . S
C1939 C1940 1.349 1_556 S
C1939 C1941 1.327 . S
C1939 H1962 0.950 . S
C1940 C1939 1.349 1_554 S
C1940 C1952 1.349 . S
C1941 C1939 1.327 . S
C1941 C1957 1.429 . S
C1941 H1963 0.950 . S
C1942 H1938 0.949 . S
C1942 C1950 1.574 . S
C1942 C1958 1.368 . S
H1943 C1951 0.950 . S
H1944 C1949 0.950 . S
H1945 C1950 0.949 . S
H1946 C1952 0.950 . S
H1947 C1953 0.950 . S
H1948 C1954 0.949 . S
C1949 H1944 0.950 . S
C1949 C1951 1.327 . S
C1949 C1955 1.429 . S
C1950 C1942 1.574 . S
C1950 H1945 0.949 . S
C1950 C1956 1.368 . S
C1951 C1935 1.349 . S
C1951 H1943 0.950 . S
C1951 C1949 1.327 . S
C1952 C1940 1.349 . S
C1952 H1946 0.950 . S
C1952 C1953 1.327 1_554 S
C1953 H1947 0.950 . S
C1953 C1952 1.327 1_556 S
C1953 C1957 1.429 . S
C1954 C1937 1.574 . S
C1954 H1948 0.949 . S
C1954 C1958 1.368 . S
C1955 C1936 1.429 . S
C1955 C1949 1.429 . S
C1955 C1956 1.523 . S
C1956 C1937 1.368 . S
C1956 C1950 1.368 . S
C1956 C1955 1.523 . S
C1957 C1941 1.429 . S
C1957 C1953 1.429 . S
C1957 C1958 1.523 . S
C1958 C1942 1.368 . S
C1958 C1954 1.368 . S
C1958 C1957 1.523 . S
H1959 C1934 0.950 . S
H1960 C1936 0.950 . S
H1961 C1937 0.949 . S
H1962 C1939 0.950 . S
H1963 C1941 0.950 . S
C1964 C1965 1.349 . S
C1964 C1966 1.327 . S
C1964 H1989 0.950 . S
C1965 C1964 1.349 . S
C1965 C1981 1.349 . S
C1966 C1964 1.327 . S
C1966 C1985 1.429 . S
C1966 H1990 0.950 . S
C1967 C1984 1.574 . S
C1967 C1986 1.368 . S
C1967 H1991 0.949 . S
H1968 C1972 0.949 . S
C1969 C1970 1.349 1_554 S
C1969 C1971 1.327 . S
C1969 H1992 0.950 . S
C1970 C1969 1.349 1_556 S
C1970 C1982 1.349 . S
C1971 C1969 1.327 . S
C1971 C1987 1.429 . S
C1971 H1993 0.950 . S
C1972 H1968 0.949 . S
C1972 C1980 1.574 . S
C1972 C1988 1.368 . S
H1973 C1981 0.950 . S
H1974 C1979 0.950 . S
H1975 C1980 0.949 . S
H1976 C1982 0.950 . S
H1977 C1983 0.950 . S
H1978 C1984 0.949 . S
C1979 H1974 0.950 . S
C1979 C1981 1.327 . S
C1979 C1985 1.429 . S
C1980 C1972 1.574 . S
C1980 H1975 0.949 . S
C1980 C1986 1.368 . S
C1981 C1965 1.349 . S
C1981 H1973 0.950 . S
C1981 C1979 1.327 . S
C1982 C1970 1.349 . S
C1982 H1976 0.950 . S
C1982 C1983 1.327 1_556 S
C1983 H1977 0.950 . S
C1983 C1982 1.327 1_554 S
C1983 C1987 1.429 . S
C1984 C1967 1.574 . S
C1984 H1978 0.949 . S
C1984 C1988 1.368 . S
C1985 C1966 1.429 . S
C1985 C1979 1.429 . S
C1985 C1986 1.523 . S
C1986 C1967 1.368 . S
C1986 C1980 1.368 . S
C1986 C1985 1.523 . S
C1987 C1971 1.429 . S
C1987 C1983 1.429 . S
C1987 C1988 1.523 . S
C1988 C1972 1.368 . S
C1988 C1984 1.368 . S
C1988 C1987 1.523 . S
H1989 C1964 0.950 . S
H1990 C1966 0.950 . S
H1991 C1967 0.949 . S
H1992 C1969 0.950 . S
H1993 C1971 0.950 . S
C1994 C1995 1.349 . S
C1994 C1996 1.327 . S
C1994 H2019 0.950 . S
C1995 C1994 1.349 . S
C1995 C2011 1.349 . S
C1996 C1994 1.327 . S
C1996 C2015 1.429 . S
C1996 H2020 0.950 . S
C1997 C2014 1.574 . S
C1997 C2016 1.368 . S
C1997 H2021 0.949 . S
H1998 C2002 0.949 . S
C1999 C2000 1.349 . S
C1999 C2001 1.327 . S
C1999 H2022 0.950 . S
C2000 C1999 1.349 . S
C2000 C2012 1.349 . S
C2001 C1999 1.327 . S
C2001 C2017 1.429 . S
C2001 H2023 0.950 . S
C2002 H1998 0.949 . S
C2002 C2010 1.574 . S
C2002 C2018 1.368 . S
H2003 C2011 0.950 . S
H2004 C2009 0.950 . S
H2005 C2010 0.949 . S
H2006 C2012 0.950 . S
H2007 C2013 0.950 . S
H2008 C2014 0.949 . S
C2009 H2004 0.950 . S
C2009 C2011 1.327 . S
C2009 C2015 1.429 . S
C2010 C2002 1.574 . S
C2010 H2005 0.949 . S
C2010 C2016 1.368 . S
C2011 C1995 1.349 . S
C2011 H2003 0.950 . S
C2011 C2009 1.327 . S
C2012 C2000 1.349 . S
C2012 H2006 0.950 . S
C2012 C2013 1.327 . S
C2013 H2007 0.950 . S
C2013 C2012 1.327 . S
C2013 C2017 1.429 . S
C2014 C1997 1.574 . S
C2014 H2008 0.949 . S
C2014 C2018 1.368 . S
C2015 C1996 1.429 . S
C2015 C2009 1.429 . S
C2015 C2016 1.523 . S
C2016 C1997 1.368 . S
C2016 C2010 1.368 . S
C2016 C2015 1.523 . S
C2017 C2001 1.429 . S
C2017 C2013 1.429 . S
C2017 C2018 1.523 . S
C2018 C2002 1.368 . S
C2018 C2014 1.368 . S
C2018 C2017 1.523 . S
H2019 C1994 0.950 . S
H2020 C1996 0.950 . S
H2021 C1997 0.949 . S
H2022 C1999 0.950 . S
H2023 C2001 0.950 . S
C2024 C2025 1.349 . S
C2024 C2026 1.327 . S
C2024 H2049 0.950 . S
C2025 C2024 1.349 . S
C2025 C2041 1.349 . S
C2026 C2024 1.327 . S
C2026 C2045 1.429 . S
C2026 H2050 0.950 . S
C2027 C2044 1.574 . S
C2027 C2046 1.368 . S
C2027 H2051 0.949 . S
H2028 C2032 0.949 . S
C2029 C2030 1.349 . S
C2029 C2031 1.327 . S
C2029 H2052 0.950 . S
C2030 C2029 1.349 . S
C2030 C2042 1.349 . S
C2031 C2029 1.327 . S
C2031 C2047 1.429 . S
C2031 H2053 0.950 . S
C2032 H2028 0.949 . S
C2032 C2040 1.574 . S
C2032 C2048 1.368 . S
H2033 C2041 0.950 . S
H2034 C2039 0.950 . S
H2035 C2040 0.949 . S
H2036 C2042 0.950 . S
H2037 C2043 0.950 . S
H2038 C2044 0.949 . S
C2039 H2034 0.950 . S
C2039 C2041 1.327 . S
C2039 C2045 1.429 . S
C2040 C2032 1.574 . S
C2040 H2035 0.949 . S
C2040 C2046 1.368 . S
C2041 C2025 1.349 . S
C2041 H2033 0.950 . S
C2041 C2039 1.327 . S
C2042 C2030 1.349 . S
C2042 H2036 0.950 . S
C2042 C2043 1.327 . S
C2043 H2037 0.950 . S
C2043 C2042 1.327 . S
C2043 C2047 1.429 . S
C2044 C2027 1.574 . S
C2044 H2038 0.949 . S
C2044 C2048 1.368 . S
C2045 C2026 1.429 . S
C2045 C2039 1.429 . S
C2045 C2046 1.523 . S
C2046 C2027 1.368 . S
C2046 C2040 1.368 . S
C2046 C2045 1.523 . S
C2047 C2031 1.429 . S
C2047 C2043 1.429 . S
C2047 C2048 1.523 . S
C2048 C2032 1.368 . S
C2048 C2044 1.368 . S
C2048 C2047 1.523 . S
H2049 C2024 0.950 . S
H2050 C2026 0.950 . S
H2051 C2027 0.949 . S
H2052 C2029 0.950 . S
H2053 C2031 0.950 . S
C2054 C2055 1.349 . S
C2054 C2056 1.327 . S
C2054 H2079 0.950 . S
C2055 C2054 1.349 . S
C2055 C2071 1.349 . S
C2056 C2054 1.327 . S
C2056 C2075 1.429 . S
C2056 H2080 0.950 . S
C2057 C2074 1.574 . S
C2057 C2076 1.368 . S
C2057 H2081 0.949 . S
H2058 C2062 0.949 . S
C2059 C2060 1.349 . S
C2059 C2061 1.327 1_556 S
C2059 H2082 0.950 . S
C2060 C2059 1.349 . S
C2060 C2072 1.349 1_556 S
C2061 C2059 1.327 1_554 S
C2061 C2077 1.429 . S
C2061 H2083 0.950 . S
C2062 H2058 0.949 . S
C2062 C2070 1.574 . S
C2062 C2078 1.368 . S
H2063 C2071 0.950 . S
H2064 C2069 0.950 . S
H2065 C2070 0.949 . S
H2066 C2072 0.950 . S
H2067 C2073 0.950 . S
H2068 C2074 0.949 . S
C2069 H2064 0.950 . S
C2069 C2071 1.327 . S
C2069 C2075 1.429 . S
C2070 C2062 1.574 . S
C2070 H2065 0.949 . S
C2070 C2076 1.368 . S
C2071 C2055 1.349 . S
C2071 H2063 0.950 . S
C2071 C2069 1.327 . S
C2072 C2060 1.349 1_554 S
C2072 H2066 0.950 . S
C2072 C2073 1.327 . S
C2073 H2067 0.950 . S
C2073 C2072 1.327 . S
C2073 C2077 1.429 . S
C2074 C2057 1.574 . S
C2074 H2068 0.949 . S
C2074 C2078 1.368 . S
C2075 C2056 1.429 . S
C2075 C2069 1.429 . S
C2075 C2076 1.523 . S
C2076 C2057 1.368 . S
C2076 C2070 1.368 . S
C2076 C2075 1.523 . S
C2077 C2061 1.429 . S
C2077 C2073 1.429 . S
C2077 C2078 1.523 . S
C2078 C2062 1.368 . S
C2078 C2074 1.368 . S
C2078 C2077 1.523 . S
H2079 C2054 0.950 . S
H2080 C2056 0.950 . S
H2081 C2057 0.949 . S
H2082 C2059 0.950 . S
H2083 C2061 0.950 . S
C2084 C2085 1.349 1_556 S
C2084 C2086 1.327 . S
C2084 H2109 0.950 . S
C2085 C2084 1.349 1_554 S
C2085 C2101 1.349 . S
C2086 C2084 1.327 . S
C2086 C2105 1.429 . S
C2086 H2110 0.950 . S
C2087 C2104 1.574 . S
C2087 C2106 1.368 . S
C2087 H2111 0.949 . S
H2088 C2092 0.949 . S
C2089 C2090 1.349 . S
C2089 C2091 1.327 . S
C2089 H2112 0.950 . S
C2090 C2089 1.349 . S
C2090 C2102 1.349 . S
C2091 C2089 1.327 . S
C2091 C2107 1.429 . S
C2091 H2113 0.950 . S
C2092 H2088 0.949 . S
C2092 C2100 1.574 . S
C2092 C2108 1.368 . S
H2093 C2101 0.950 . S
H2094 C2099 0.950 . S
H2095 C2100 0.949 . S
H2096 C2102 0.950 . S
H2097 C2103 0.950 . S
H2098 C2104 0.949 . S
C2099 H2094 0.950 . S
C2099 C2101 1.327 1_556 S
C2099 C2105 1.429 . S
C2100 C2092 1.574 . S
C2100 H2095 0.949 . S
C2100 C2106 1.368 . S
C2101 C2085 1.349 . S
C2101 H2093 0.950 . S
C2101 C2099 1.327 1_554 S
C2102 C2090 1.349 . S
C2102 H2096 0.950 . S
C2102 C2103 1.327 . S
C2103 H2097 0.950 . S
C2103 C2102 1.327 . S
C2103 C2107 1.429 . S
C2104 C2087 1.574 . S
C2104 H2098 0.949 . S
C2104 C2108 1.368 . S
C2105 C2086 1.429 . S
C2105 C2099 1.429 . S
C2105 C2106 1.523 . S
C2106 C2087 1.368 . S
C2106 C2100 1.368 . S
C2106 C2105 1.523 . S
C2107 C2091 1.429 . S
C2107 C2103 1.429 . S
C2107 C2108 1.523 . S
C2108 C2092 1.368 . S
C2108 C2104 1.368 . S
C2108 C2107 1.523 . S
H2109 C2084 0.950 . S
H2110 C2086 0.950 . S
H2111 C2087 0.949 . S
H2112 C2089 0.950 . S
H2113 C2091 0.950 . S
C2114 C2115 1.349 . S
C2114 C2116 1.327 . S
C2114 H2139 0.950 . S
C2115 C2114 1.349 . S
C2115 C2131 1.349 . S
C2116 C2114 1.327 . S
C2116 C2135 1.429 . S
C2116 H2140 0.950 . S
C2117 C2134 1.574 . S
C2117 C2136 1.368 . S
C2117 H2141 0.949 . S
H2118 C2122 0.949 . S
C2119 C2120 1.349 . S
C2119 C2121 1.327 . S
C2119 H2142 0.950 . S
C2120 C2119 1.349 . S
C2120 C2132 1.349 . S
C2121 C2119 1.327 . S
C2121 C2137 1.429 . S
C2121 H2143 0.950 . S
C2122 H2118 0.949 . S
C2122 C2130 1.574 . S
C2122 C2138 1.368 . S
H2123 C2131 0.950 . S
H2124 C2129 0.950 . S
H2125 C2130 0.949 . S
H2126 C2132 0.950 . S
H2127 C2133 0.950 . S
H2128 C2134 0.949 . S
C2129 H2124 0.950 . S
C2129 C2131 1.327 . S
C2129 C2135 1.429 . S
C2130 C2122 1.574 . S
C2130 H2125 0.949 . S
C2130 C2136 1.368 . S
C2131 C2115 1.349 . S
C2131 H2123 0.950 . S
C2131 C2129 1.327 . S
C2132 C2120 1.349 . S
C2132 H2126 0.950 . S
C2132 C2133 1.327 . S
C2133 H2127 0.950 . S
C2133 C2132 1.327 . S
C2133 C2137 1.429 . S
C2134 C2117 1.574 . S
C2134 H2128 0.949 . S
C2134 C2138 1.368 . S
C2135 C2116 1.429 . S
C2135 C2129 1.429 . S
C2135 C2136 1.523 . S
C2136 C2117 1.368 . S
C2136 C2130 1.368 . S
C2136 C2135 1.523 . S
C2137 C2121 1.429 . S
C2137 C2133 1.429 . S
C2137 C2138 1.523 . S
C2138 C2122 1.368 . S
C2138 C2134 1.368 . S
C2138 C2137 1.523 . S
H2139 C2114 0.950 . S
H2140 C2116 0.950 . S
H2141 C2117 0.949 . S
H2142 C2119 0.950 . S
H2143 C2121 0.950 . S
C2144 C2145 1.349 . S
C2144 C2146 1.327 . S
C2144 H2169 0.950 . S
C2145 C2144 1.349 . S
C2145 C2161 1.349 . S
C2146 C2144 1.327 . S
C2146 C2165 1.429 . S
C2146 H2170 0.950 . S
C2147 C2164 1.574 . S
C2147 C2166 1.368 . S
C2147 H2171 0.949 . S
H2148 C2152 0.949 . S
C2149 C2150 1.349 . S
C2149 C2151 1.327 . S
C2149 H2172 0.950 . S
C2150 C2149 1.349 . S
C2150 C2162 1.349 . S
C2151 C2149 1.327 . S
C2151 C2167 1.429 . S
C2151 H2173 0.950 . S
C2152 H2148 0.949 . S
C2152 C2160 1.574 . S
C2152 C2168 1.368 . S
H2153 C2161 0.950 . S
H2154 C2159 0.950 . S
H2155 C2160 0.949 . S
H2156 C2162 0.950 . S
H2157 C2163 0.950 . S
H2158 C2164 0.949 . S
C2159 H2154 0.950 . S
C2159 C2161 1.327 . S
C2159 C2165 1.429 . S
C2160 C2152 1.574 . S
C2160 H2155 0.949 . S
C2160 C2166 1.368 . S
C2161 C2145 1.349 . S
C2161 H2153 0.950 . S
C2161 C2159 1.327 . S
C2162 C2150 1.349 . S
C2162 H2156 0.950 . S
C2162 C2163 1.327 . S
C2163 H2157 0.950 . S
C2163 C2162 1.327 . S
C2163 C2167 1.429 . S
C2164 C2147 1.574 . S
C2164 H2158 0.949 . S
C2164 C2168 1.368 . S
C2165 C2146 1.429 . S
C2165 C2159 1.429 . S
C2165 C2166 1.523 . S
C2166 C2147 1.368 . S
C2166 C2160 1.368 . S
C2166 C2165 1.523 . S
C2167 C2151 1.429 . S
C2167 C2163 1.429 . S
C2167 C2168 1.523 . S
C2168 C2152 1.368 . S
C2168 C2164 1.368 . S
C2168 C2167 1.523 . S
H2169 C2144 0.950 . S
H2170 C2146 0.950 . S
H2171 C2147 0.949 . S
H2172 C2149 0.950 . S
H2173 C2151 0.950 . S
C2174 C2175 1.349 . S
C2174 C2176 1.327 . S
C2174 H2199 0.950 . S
C2175 C2174 1.349 . S
C2175 C2191 1.349 . S
C2176 C2174 1.327 . S
C2176 C2195 1.429 . S
C2176 H2200 0.950 . S
C2177 C2194 1.574 . S
C2177 C2196 1.368 . S
C2177 H2201 0.949 . S
H2178 C2182 0.949 . S
C2179 C2180 1.349 . S
C2179 C2181 1.327 . S
C2179 H2202 0.950 . S
C2180 C2179 1.349 . S
C2180 C2192 1.349 . S
C2181 C2179 1.327 . S
C2181 C2197 1.429 . S
C2181 H2203 0.950 . S
C2182 H2178 0.949 . S
C2182 C2190 1.574 . S
C2182 C2198 1.368 . S
H2183 C2191 0.950 . S
H2184 C2189 0.950 . S
H2185 C2190 0.949 . S
H2186 C2192 0.950 . S
H2187 C2193 0.950 . S
H2188 C2194 0.949 . S
C2189 H2184 0.950 . S
C2189 C2191 1.327 . S
C2189 C2195 1.429 . S
C2190 C2182 1.574 . S
C2190 H2185 0.949 . S
C2190 C2196 1.368 1_565 S
C2191 C2175 1.349 . S
C2191 H2183 0.950 . S
C2191 C2189 1.327 . S
C2192 C2180 1.349 . S
C2192 H2186 0.950 . S
C2192 C2193 1.327 . S
C2193 H2187 0.950 . S
C2193 C2192 1.327 . S
C2193 C2197 1.429 . S
C2194 C2177 1.574 . S
C2194 H2188 0.949 . S
C2194 C2198 1.368 1_545 S
C2195 C2176 1.429 . S
C2195 C2189 1.429 . S
C2195 C2196 1.523 . S
C2196 C2177 1.368 . S
C2196 C2190 1.368 1_545 S
C2196 C2195 1.523 . S
C2197 C2181 1.429 . S
C2197 C2193 1.429 . S
C2197 C2198 1.523 . S
C2198 C2182 1.368 . S
C2198 C2194 1.368 1_565 S
C2198 C2197 1.523 . S
H2199 C2174 0.950 . S
H2200 C2176 0.950 . S
H2201 C2177 0.949 . S
H2202 C2179 0.950 . S
H2203 C2181 0.950 . S
C2204 C2205 1.349 . S
C2204 C2206 1.327 . S
C2204 H2229 0.950 . S
C2205 C2204 1.349 . S
C2205 C2221 1.349 . S
C2206 C2204 1.327 . S
C2206 C2225 1.429 . S
C2206 H2230 0.950 . S
C2207 C2224 1.574 . S
C2207 C2226 1.368 . S
C2207 H2231 0.949 . S
H2208 C2212 0.949 . S
C2209 C2210 1.349 . S
C2209 C2211 1.327 . S
C2209 H2232 0.950 . S
C2210 C2209 1.349 . S
C2210 C2222 1.349 . S
C2211 C2209 1.327 . S
C2211 C2227 1.429 . S
C2211 H2233 0.950 . S
C2212 H2208 0.949 . S
C2212 C2220 1.574 . S
C2212 C2228 1.368 . S
H2213 C2221 0.950 . S
H2214 C2219 0.950 . S
H2215 C2220 0.949 . S
H2216 C2222 0.950 . S
H2217 C2223 0.950 . S
H2218 C2224 0.949 . S
C2219 H2214 0.950 . S
C2219 C2221 1.327 . S
C2219 C2225 1.429 . S
C2220 C2212 1.574 . S
C2220 H2215 0.949 . S
C2220 C2226 1.368 1_556 S
C2221 C2205 1.349 . S
C2221 H2213 0.950 . S
C2221 C2219 1.327 . S
C2222 C2210 1.349 . S
C2222 H2216 0.950 . S
C2222 C2223 1.327 . S
C2223 H2217 0.950 . S
C2223 C2222 1.327 . S
C2223 C2227 1.429 . S
C2224 C2207 1.574 . S
C2224 H2218 0.949 . S
C2224 C2228 1.368 1_554 S
C2225 C2206 1.429 . S
C2225 C2219 1.429 . S
C2225 C2226 1.523 . S
C2226 C2207 1.368 . S
C2226 C2220 1.368 1_554 S
C2226 C2225 1.523 . S
C2227 C2211 1.429 . S
C2227 C2223 1.429 . S
C2227 C2228 1.523 . S
C2228 C2212 1.368 . S
C2228 C2224 1.368 1_556 S
C2228 C2227 1.523 . S
H2229 C2204 0.950 . S
H2230 C2206 0.950 . S
H2231 C2207 0.949 . S
H2232 C2209 0.950 . S
H2233 C2211 0.950 . S
C2234 C2235 1.349 . S
C2234 C2236 1.327 . S
C2234 H2259 0.950 . S
C2235 C2234 1.349 . S
C2235 C2251 1.349 . S
C2236 C2234 1.327 . S
C2236 C2255 1.429 . S
C2236 H2260 0.950 . S
C2237 C2254 1.574 . S
C2237 C2256 1.368 . S
C2237 H2261 0.949 . S
H2238 C2242 0.949 . S
C2239 C2240 1.349 . S
C2239 C2241 1.327 . S
C2239 H2262 0.950 . S
C2240 C2239 1.349 . S
C2240 C2252 1.349 . S
C2241 C2239 1.327 . S
C2241 C2257 1.429 . S
C2241 H2263 0.950 . S
C2242 H2238 0.949 . S
C2242 C2250 1.574 . S
C2242 C2258 1.368 . S
H2243 C2251 0.950 . S
H2244 C2249 0.950 . S
H2245 C2250 0.949 . S
H2246 C2252 0.950 . S
H2247 C2253 0.950 . S
H2248 C2254 0.949 . S
C2249 H2244 0.950 . S
C2249 C2251 1.327 . S
C2249 C2255 1.429 . S
C2250 C2242 1.574 . S
C2250 H2245 0.949 . S
C2250 C2256 1.368 1_565 S
C2251 C2235 1.349 . S
C2251 H2243 0.950 . S
C2251 C2249 1.327 . S
C2252 C2240 1.349 . S
C2252 H2246 0.950 . S
C2252 C2253 1.327 . S
C2253 H2247 0.950 . S
C2253 C2252 1.327 . S
C2253 C2257 1.429 . S
C2254 C2237 1.574 . S
C2254 H2248 0.949 . S
C2254 C2258 1.368 1_545 S
C2255 C2236 1.429 . S
C2255 C2249 1.429 . S
C2255 C2256 1.523 . S
C2256 C2237 1.368 . S
C2256 C2250 1.368 1_545 S
C2256 C2255 1.523 . S
C2257 C2241 1.429 . S
C2257 C2253 1.429 . S
C2257 C2258 1.523 . S
C2258 C2242 1.368 . S
C2258 C2254 1.368 1_565 S
C2258 C2257 1.523 . S
H2259 C2234 0.950 . S
H2260 C2236 0.950 . S
H2261 C2237 0.949 . S
H2262 C2239 0.950 . S
H2263 C2241 0.950 . S
C2264 C2265 1.349 . S
C2264 C2266 1.327 . S
C2264 H2289 0.950 . S
C2265 C2264 1.349 . S
C2265 C2281 1.349 . S
C2266 C2264 1.327 . S
C2266 C2285 1.429 . S
C2266 H2290 0.950 . S
C2267 C2284 1.574 . S
C2267 C2286 1.368 . S
C2267 H2291 0.949 . S
H2268 C2272 0.949 . S
C2269 C2270 1.349 . S
C2269 C2271 1.327 . S
C2269 H2292 0.950 . S
C2270 C2269 1.349 . S
C2270 C2282 1.349 . S
C2271 C2269 1.327 . S
C2271 C2287 1.429 . S
C2271 H2293 0.950 . S
C2272 H2268 0.949 . S
C2272 C2280 1.574 . S
C2272 C2288 1.368 . S
H2273 C2281 0.950 . S
H2274 C2279 0.950 . S
H2275 C2280 0.949 . S
H2276 C2282 0.950 . S
H2277 C2283 0.950 . S
H2278 C2284 0.949 . S
C2279 H2274 0.950 . S
C2279 C2281 1.327 . S
C2279 C2285 1.429 . S
C2280 C2272 1.574 . S
C2280 H2275 0.949 . S
C2280 C2286 1.368 . S
C2281 C2265 1.349 . S
C2281 H2273 0.950 . S
C2281 C2279 1.327 . S
C2282 C2270 1.349 . S
C2282 H2276 0.950 . S
C2282 C2283 1.327 . S
C2283 H2277 0.950 . S
C2283 C2282 1.327 . S
C2283 C2287 1.429 . S
C2284 C2267 1.574 . S
C2284 H2278 0.949 . S
C2284 C2288 1.368 . S
C2285 C2266 1.429 . S
C2285 C2279 1.429 . S
C2285 C2286 1.523 . S
C2286 C2267 1.368 . S
C2286 C2280 1.368 . S
C2286 C2285 1.523 . S
C2287 C2271 1.429 . S
C2287 C2283 1.429 . S
C2287 C2288 1.523 . S
C2288 C2272 1.368 . S
C2288 C2284 1.368 . S
C2288 C2287 1.523 . S
H2289 C2264 0.950 . S
H2290 C2266 0.950 . S
H2291 C2267 0.949 . S
H2292 C2269 0.950 . S
H2293 C2271 0.950 . S
C2294 C2295 1.349 . S
C2294 C2296 1.327 . S
C2294 H2319 0.950 . S
C2295 C2294 1.349 . S
C2295 C2311 1.349 . S
C2296 C2294 1.327 . S
C2296 C2315 1.429 . S
C2296 H2320 0.950 . S
C2297 C2314 1.574 . S
C2297 C2316 1.368 . S
C2297 H2321 0.949 . S
H2298 C2302 0.949 . S
C2299 C2300 1.349 . S
C2299 C2301 1.327 . S
C2299 H2322 0.950 . S
C2300 C2299 1.349 . S
C2300 C2312 1.349 . S
C2301 C2299 1.327 . S
C2301 C2317 1.429 . S
C2301 H2323 0.950 . S
C2302 H2298 0.949 . S
C2302 C2310 1.574 . S
C2302 C2318 1.368 . S
H2303 C2311 0.950 . S
H2304 C2309 0.950 . S
H2305 C2310 0.949 . S
H2306 C2312 0.950 . S
H2307 C2313 0.950 . S
H2308 C2314 0.949 . S
C2309 H2304 0.950 . S
C2309 C2311 1.327 . S
C2309 C2315 1.429 . S
C2310 C2302 1.574 . S
C2310 H2305 0.949 . S
C2310 C2316 1.368 1_545 S
C2311 C2295 1.349 . S
C2311 H2303 0.950 . S
C2311 C2309 1.327 . S
C2312 C2300 1.349 . S
C2312 H2306 0.950 . S
C2312 C2313 1.327 . S
C2313 H2307 0.950 . S
C2313 C2312 1.327 . S
C2313 C2317 1.429 . S
C2314 C2297 1.574 . S
C2314 H2308 0.949 . S
C2314 C2318 1.368 1_565 S
C2315 C2296 1.429 . S
C2315 C2309 1.429 . S
C2315 C2316 1.523 . S
C2316 C2297 1.368 . S
C2316 C2310 1.368 1_565 S
C2316 C2315 1.523 . S
C2317 C2301 1.429 . S
C2317 C2313 1.429 . S
C2317 C2318 1.523 . S
C2318 C2302 1.368 . S
C2318 C2314 1.368 1_545 S
C2318 C2317 1.523 . S
H2319 C2294 0.950 . S
H2320 C2296 0.950 . S
H2321 C2297 0.949 . S
H2322 C2299 0.950 . S
H2323 C2301 0.950 . S
C2324 C2325 1.349 . S
C2324 C2326 1.327 . S
C2324 H2349 0.950 . S
C2325 C2324 1.349 . S
C2325 C2341 1.349 . S
C2326 C2324 1.327 . S
C2326 C2345 1.429 . S
C2326 H2350 0.950 . S
C2327 C2344 1.574 . S
C2327 C2346 1.368 1_554 S
C2327 H2351 0.949 . S
H2328 C2332 0.949 . S
C2329 C2330 1.349 . S
C2329 C2331 1.327 . S
C2329 H2352 0.950 . S
C2330 C2329 1.349 . S
C2330 C2342 1.349 . S
C2331 C2329 1.327 . S
C2331 C2347 1.429 . S
C2331 H2353 0.950 . S
C2332 H2328 0.949 . S
C2332 C2340 1.574 . S
C2332 C2348 1.368 1_556 S
H2333 C2341 0.950 . S
H2334 C2339 0.950 . S
H2335 C2340 0.949 . S
H2336 C2342 0.950 . S
H2337 C2343 0.950 . S
H2338 C2344 0.949 . S
C2339 H2334 0.950 . S
C2339 C2341 1.327 . S
C2339 C2345 1.429 . S
C2340 C2332 1.574 . S
C2340 H2335 0.949 . S
C2340 C2346 1.368 . S
C2341 C2325 1.349 . S
C2341 H2333 0.950 . S
C2341 C2339 1.327 . S
C2342 C2330 1.349 . S
C2342 H2336 0.950 . S
C2342 C2343 1.327 . S
C2343 H2337 0.950 . S
C2343 C2342 1.327 . S
C2343 C2347 1.429 . S
C2344 C2327 1.574 . S
C2344 H2338 0.949 . S
C2344 C2348 1.368 . S
C2345 C2326 1.429 . S
C2345 C2339 1.429 . S
C2345 C2346 1.523 . S
C2346 C2327 1.368 1_556 S
C2346 C2340 1.368 . S
C2346 C2345 1.523 . S
C2347 C2331 1.429 . S
C2347 C2343 1.429 . S
C2347 C2348 1.523 . S
C2348 C2332 1.368 1_554 S
C2348 C2344 1.368 . S
C2348 C2347 1.523 . S
H2349 C2324 0.950 . S
H2350 C2326 0.950 . S
H2351 C2327 0.949 . S
H2352 C2329 0.950 . S
H2353 C2331 0.950 . S
C2354 C2355 1.349 . S
C2354 C2356 1.327 . S
C2354 H2379 0.950 . S
C2355 C2354 1.349 . S
C2355 C2371 1.349 . S
C2356 C2354 1.327 . S
C2356 C2375 1.429 . S
C2356 H2380 0.950 . S
C2357 C2374 1.574 . S
C2357 C2376 1.368 1_565 S
C2357 H2381 0.949 . S
H2358 C2362 0.949 . S
C2359 C2360 1.349 . S
C2359 C2361 1.327 . S
C2359 H2382 0.950 . S
C2360 C2359 1.349 . S
C2360 C2372 1.349 . S
C2361 C2359 1.327 . S
C2361 C2377 1.429 . S
C2361 H2383 0.950 . S
C2362 H2358 0.949 . S
C2362 C2370 1.574 . S
C2362 C2378 1.368 1_545 S
H2363 C2371 0.950 . S
H2364 C2369 0.950 . S
H2365 C2370 0.949 . S
H2366 C2372 0.950 . S
H2367 C2373 0.950 . S
H2368 C2374 0.949 . S
C2369 H2364 0.950 . S
C2369 C2371 1.327 . S
C2369 C2375 1.429 . S
C2370 C2362 1.574 . S
C2370 H2365 0.949 . S
C2370 C2376 1.368 . S
C2371 C2355 1.349 . S
C2371 H2363 0.950 . S
C2371 C2369 1.327 . S
C2372 C2360 1.349 . S
C2372 H2366 0.950 . S
C2372 C2373 1.327 . S
C2373 H2367 0.950 . S
C2373 C2372 1.327 . S
C2373 C2377 1.429 . S
C2374 C2357 1.574 . S
C2374 H2368 0.949 . S
C2374 C2378 1.368 . S
C2375 C2356 1.429 . S
C2375 C2369 1.429 . S
C2375 C2376 1.523 . S
C2376 C2357 1.368 1_545 S
C2376 C2370 1.368 . S
C2376 C2375 1.523 . S
C2377 C2361 1.429 . S
C2377 C2373 1.429 . S
C2377 C2378 1.523 . S
C2378 C2362 1.368 1_565 S
C2378 C2374 1.368 . S
C2378 C2377 1.523 . S
H2379 C2354 0.950 . S
H2380 C2356 0.950 . S
H2381 C2357 0.949 . S
H2382 C2359 0.950 . S
H2383 C2361 0.950 . S
C2384 C2385 1.349 . S
C2384 C2386 1.327 . S
C2384 H2409 0.950 . S
C2385 C2384 1.349 . S
C2385 C2401 1.349 . S
C2386 C2384 1.327 . S
C2386 C2405 1.429 . S
C2386 H2410 0.950 . S
C2387 C2404 1.574 . S
C2387 C2406 1.368 . S
C2387 H2411 0.949 . S
H2388 C2392 0.949 . S
C2389 C2390 1.349 . S
C2389 C2391 1.327 . S
C2389 H2412 0.950 . S
C2390 C2389 1.349 . S
C2390 C2402 1.349 . S
C2391 C2389 1.327 . S
C2391 C2407 1.429 . S
C2391 H2413 0.950 . S
C2392 H2388 0.949 . S
C2392 C2400 1.574 . S
C2392 C2408 1.368 . S
H2393 C2401 0.950 . S
H2394 C2399 0.950 . S
H2395 C2400 0.949 . S
H2396 C2402 0.950 . S
H2397 C2403 0.950 . S
H2398 C2404 0.949 . S
C2399 H2394 0.950 . S
C2399 C2401 1.327 . S
C2399 C2405 1.429 . S
C2400 C2392 1.574 . S
C2400 H2395 0.949 . S
C2400 C2406 1.368 1_556 S
C2401 C2385 1.349 . S
C2401 H2393 0.950 . S
C2401 C2399 1.327 . S
C2402 C2390 1.349 . S
C2402 H2396 0.950 . S
C2402 C2403 1.327 . S
C2403 H2397 0.950 . S
C2403 C2402 1.327 . S
C2403 C2407 1.429 . S
C2404 C2387 1.574 . S
C2404 H2398 0.949 . S
C2404 C2408 1.368 1_554 S
C2405 C2386 1.429 . S
C2405 C2399 1.429 . S
C2405 C2406 1.523 . S
C2406 C2387 1.368 . S
C2406 C2400 1.368 1_554 S
C2406 C2405 1.523 . S
C2407 C2391 1.429 . S
C2407 C2403 1.429 . S
C2407 C2408 1.523 . S
C2408 C2392 1.368 . S
C2408 C2404 1.368 1_556 S
C2408 C2407 1.523 . S
H2409 C2384 0.950 . S
H2410 C2386 0.950 . S
H2411 C2387 0.949 . S
H2412 C2389 0.950 . S
H2413 C2391 0.950 . S
C2414 C2415 1.349 . S
C2414 C2416 1.327 . S
C2414 H2439 0.950 . S
C2415 C2414 1.349 . S
C2415 C2431 1.349 . S
C2416 C2414 1.327 . S
C2416 C2435 1.429 . S
C2416 H2440 0.950 . S
C2417 C2434 1.574 . S
C2417 C2436 1.368 . S
C2417 H2441 0.949 . S
H2418 C2422 0.949 . S
C2419 C2420 1.349 . S
C2419 C2421 1.327 . S
C2419 H2442 0.950 . S
C2420 C2419 1.349 . S
C2420 C2432 1.349 . S
C2421 C2419 1.327 . S
C2421 C2437 1.429 . S
C2421 H2443 0.950 . S
C2422 H2418 0.949 . S
C2422 C2430 1.574 . S
C2422 C2438 1.368 . S
H2423 C2431 0.950 . S
H2424 C2429 0.950 . S
H2425 C2430 0.949 . S
H2426 C2432 0.950 . S
H2427 C2433 0.950 . S
H2428 C2434 0.949 . S
C2429 H2424 0.950 . S
C2429 C2431 1.327 . S
C2429 C2435 1.429 . S
C2430 C2422 1.574 . S
C2430 H2425 0.949 . S
C2430 C2436 1.368 . S
C2431 C2415 1.349 . S
C2431 H2423 0.950 . S
C2431 C2429 1.327 . S
C2432 C2420 1.349 . S
C2432 H2426 0.950 . S
C2432 C2433 1.327 . S
C2433 H2427 0.950 . S
C2433 C2432 1.327 . S
C2433 C2437 1.429 . S
C2434 C2417 1.574 . S
C2434 H2428 0.949 . S
C2434 C2438 1.368 . S
C2435 C2416 1.429 . S
C2435 C2429 1.429 . S
C2435 C2436 1.523 . S
C2436 C2417 1.368 . S
C2436 C2430 1.368 . S
C2436 C2435 1.523 . S
C2437 C2421 1.429 . S
C2437 C2433 1.429 . S
C2437 C2438 1.523 . S
C2438 C2422 1.368 . S
C2438 C2434 1.368 . S
C2438 C2437 1.523 . S
H2439 C2414 0.950 . S
H2440 C2416 0.950 . S
H2441 C2417 0.949 . S
H2442 C2419 0.950 . S
H2443 C2421 0.950 . S
C2444 C2445 1.349 . S
C2444 C2446 1.327 . S
C2444 H2469 0.950 . S
C2445 C2444 1.349 . S
C2445 C2461 1.349 . S
C2446 C2444 1.327 . S
C2446 C2465 1.429 . S
C2446 H2470 0.950 . S
C2447 C2464 1.574 . S
C2447 C2466 1.368 . S
C2447 H2471 0.949 . S
H2448 C2452 0.949 . S
C2449 C2450 1.349 . S
C2449 C2451 1.327 . S
C2449 H2472 0.950 . S
C2450 C2449 1.349 . S
C2450 C2462 1.349 . S
C2451 C2449 1.327 . S
C2451 C2467 1.429 . S
C2451 H2473 0.950 . S
C2452 H2448 0.949 . S
C2452 C2460 1.574 . S
C2452 C2468 1.368 . S
H2453 C2461 0.950 . S
H2454 C2459 0.950 . S
H2455 C2460 0.949 . S
H2456 C2462 0.950 . S
H2457 C2463 0.950 . S
H2458 C2464 0.949 . S
C2459 H2454 0.950 . S
C2459 C2461 1.327 . S
C2459 C2465 1.429 . S
C2460 C2452 1.574 . S
C2460 H2455 0.949 . S
C2460 C2466 1.368 . S
C2461 C2445 1.349 . S
C2461 H2453 0.950 . S
C2461 C2459 1.327 . S
C2462 C2450 1.349 . S
C2462 H2456 0.950 . S
C2462 C2463 1.327 . S
C2463 H2457 0.950 . S
C2463 C2462 1.327 . S
C2463 C2467 1.429 . S
C2464 C2447 1.574 . S
C2464 H2458 0.949 . S
C2464 C2468 1.368 . S
C2465 C2446 1.429 . S
C2465 C2459 1.429 . S
C2465 C2466 1.523 . S
C2466 C2447 1.368 . S
C2466 C2460 1.368 . S
C2466 C2465 1.523 . S
C2467 C2451 1.429 . S
C2467 C2463 1.429 . S
C2467 C2468 1.523 . S
C2468 C2452 1.368 . S
C2468 C2464 1.368 . S
C2468 C2467 1.523 . S
H2469 C2444 0.950 . S
H2470 C2446 0.950 . S
H2471 C2447 0.949 . S
H2472 C2449 0.950 . S
H2473 C2451 0.950 . S
C2474 C2475 1.349 . S
C2474 C2476 1.327 . S
C2474 H2499 0.950 . S
C2475 C2474 1.349 . S
C2475 C2491 1.349 . S
C2476 C2474 1.327 . S
C2476 C2495 1.429 . S
C2476 H2500 0.950 . S
C2477 C2494 1.574 . S
C2477 C2496 1.368 . S
C2477 H2501 0.949 . S
H2478 C2482 0.949 . S
C2479 C2480 1.349 . S
C2479 C2481 1.327 . S
C2479 H2502 0.950 . S
C2480 C2479 1.349 . S
C2480 C2492 1.349 . S
C2481 C2479 1.327 . S
C2481 C2497 1.429 . S
C2481 H2503 0.950 . S
C2482 H2478 0.949 . S
C2482 C2490 1.574 . S
C2482 C2498 1.368 . S
H2483 C2491 0.950 . S
H2484 C2489 0.950 . S
H2485 C2490 0.949 . S
H2486 C2492 0.950 . S
H2487 C2493 0.950 . S
H2488 C2494 0.949 . S
C2489 H2484 0.950 . S
C2489 C2491 1.327 . S
C2489 C2495 1.429 . S
C2490 C2482 1.574 . S
C2490 H2485 0.949 . S
C2490 C2496 1.368 . S
C2491 C2475 1.349 . S
C2491 H2483 0.950 . S
C2491 C2489 1.327 . S
C2492 C2480 1.349 . S
C2492 H2486 0.950 . S
C2492 C2493 1.327 . S
C2493 H2487 0.950 . S
C2493 C2492 1.327 . S
C2493 C2497 1.429 . S
C2494 C2477 1.574 . S
C2494 H2488 0.949 . S
C2494 C2498 1.368 . S
C2495 C2476 1.429 . S
C2495 C2489 1.429 . S
C2495 C2496 1.523 . S
C2496 C2477 1.368 . S
C2496 C2490 1.368 . S
C2496 C2495 1.523 . S
C2497 C2481 1.429 . S
C2497 C2493 1.429 . S
C2497 C2498 1.523 . S
C2498 C2482 1.368 . S
C2498 C2494 1.368 . S
C2498 C2497 1.523 . S
H2499 C2474 0.950 . S
H2500 C2476 0.950 . S
H2501 C2477 0.949 . S
H2502 C2479 0.950 . S
H2503 C2481 0.950 . S
C2504 C2505 1.349 . S
C2504 C2506 1.327 . S
C2504 H2529 0.950 . S
C2505 C2504 1.349 . S
C2505 C2521 1.349 . S
C2506 C2504 1.327 . S
C2506 C2525 1.429 . S
C2506 H2530 0.950 . S
C2507 C2524 1.574 . S
C2507 C2526 1.368 1_554 S
C2507 H2531 0.949 . S
H2508 C2512 0.949 . S
C2509 C2510 1.349 . S
C2509 C2511 1.327 . S
C2509 H2532 0.950 . S
C2510 C2509 1.349 . S
C2510 C2522 1.349 . S
C2511 C2509 1.327 . S
C2511 C2527 1.429 . S
C2511 H2533 0.950 . S
C2512 H2508 0.949 . S
C2512 C2520 1.574 . S
C2512 C2528 1.368 1_556 S
H2513 C2521 0.950 . S
H2514 C2519 0.950 . S
H2515 C2520 0.949 . S
H2516 C2522 0.950 . S
H2517 C2523 0.950 . S
H2518 C2524 0.949 . S
C2519 H2514 0.950 . S
C2519 C2521 1.327 . S
C2519 C2525 1.429 . S
C2520 C2512 1.574 . S
C2520 H2515 0.949 . S
C2520 C2526 1.368 . S
C2521 C2505 1.349 . S
C2521 H2513 0.950 . S
C2521 C2519 1.327 . S
C2522 C2510 1.349 . S
C2522 H2516 0.950 . S
C2522 C2523 1.327 . S
C2523 H2517 0.950 . S
C2523 C2522 1.327 . S
C2523 C2527 1.429 . S
C2524 C2507 1.574 . S
C2524 H2518 0.949 . S
C2524 C2528 1.368 . S
C2525 C2506 1.429 . S
C2525 C2519 1.429 . S
C2525 C2526 1.523 . S
C2526 C2507 1.368 1_556 S
C2526 C2520 1.368 . S
C2526 C2525 1.523 . S
C2527 C2511 1.429 . S
C2527 C2523 1.429 . S
C2527 C2528 1.523 . S
C2528 C2512 1.368 1_554 S
C2528 C2524 1.368 . S
C2528 C2527 1.523 . S
H2529 C2504 0.950 . S
H2530 C2506 0.950 . S
H2531 C2507 0.949 . S
H2532 C2509 0.950 . S
H2533 C2511 0.950 . S
C2534 C2535 1.349 . S
C2534 C2536 1.327 . S
C2534 H2559 0.950 . S
C2535 C2534 1.349 . S
C2535 C2551 1.349 . S
C2536 C2534 1.327 . S
C2536 C2555 1.429 . S
C2536 H2560 0.950 . S
C2537 C2554 1.574 . S
C2537 C2556 1.368 . S
C2537 H2561 0.949 . S
H2538 C2542 0.949 . S
C2539 C2540 1.349 . S
C2539 C2541 1.327 . S
C2539 H2562 0.950 . S
C2540 C2539 1.349 . S
C2540 C2552 1.349 . S
C2541 C2539 1.327 . S
C2541 C2557 1.429 . S
C2541 H2563 0.950 . S
C2542 H2538 0.949 . S
C2542 C2550 1.574 . S
C2542 C2558 1.368 . S
H2543 C2551 0.950 . S
H2544 C2549 0.950 . S
H2545 C2550 0.949 . S
H2546 C2552 0.950 . S
H2547 C2553 0.950 . S
H2548 C2554 0.949 . S
C2549 H2544 0.950 . S
C2549 C2551 1.327 . S
C2549 C2555 1.429 . S
C2550 C2542 1.574 . S
C2550 H2545 0.949 . S
C2550 C2556 1.368 . S
C2551 C2535 1.349 . S
C2551 H2543 0.950 . S
C2551 C2549 1.327 . S
C2552 C2540 1.349 . S
C2552 H2546 0.950 . S
C2552 C2553 1.327 . S
C2553 H2547 0.950 . S
C2553 C2552 1.327 . S
C2553 C2557 1.429 . S
C2554 C2537 1.574 . S
C2554 H2548 0.949 . S
C2554 C2558 1.368 . S
C2555 C2536 1.429 . S
C2555 C2549 1.429 . S
C2555 C2556 1.523 . S
C2556 C2537 1.368 . S
C2556 C2550 1.368 . S
C2556 C2555 1.523 . S
C2557 C2541 1.429 . S
C2557 C2553 1.429 . S
C2557 C2558 1.523 . S
C2558 C2542 1.368 . S
C2558 C2554 1.368 . S
C2558 C2557 1.523 . S
H2559 C2534 0.950 . S
H2560 C2536 0.950 . S
H2561 C2537 0.949 . S
H2562 C2539 0.950 . S
H2563 C2541 0.950 . S
C2564 C2565 1.349 . S
C2564 C2566 1.327 . S
C2564 H2589 0.950 . S
C2565 C2564 1.349 . S
C2565 C2581 1.349 . S
C2566 C2564 1.327 . S
C2566 C2585 1.429 . S
C2566 H2590 0.950 . S
C2567 C2584 1.574 . S
C2567 C2586 1.368 . S
C2567 H2591 0.949 . S
H2568 C2572 0.949 . S
C2569 C2570 1.349 . S
C2569 C2571 1.327 . S
C2569 H2592 0.950 . S
C2570 C2569 1.349 . S
C2570 C2582 1.349 . S
C2571 C2569 1.327 . S
C2571 C2587 1.429 . S
C2571 H2593 0.950 . S
C2572 H2568 0.949 . S
C2572 C2580 1.574 . S
C2572 C2588 1.368 . S
H2573 C2581 0.950 . S
H2574 C2579 0.950 . S
H2575 C2580 0.949 . S
H2576 C2582 0.950 . S
H2577 C2583 0.950 . S
H2578 C2584 0.949 . S
C2579 H2574 0.950 . S
C2579 C2581 1.327 . S
C2579 C2585 1.429 . S
C2580 C2572 1.574 . S
C2580 H2575 0.949 . S
C2580 C2586 1.368 . S
C2581 C2565 1.349 . S
C2581 H2573 0.950 . S
C2581 C2579 1.327 . S
C2582 C2570 1.349 . S
C2582 H2576 0.950 . S
C2582 C2583 1.327 . S
C2583 H2577 0.950 . S
C2583 C2582 1.327 . S
C2583 C2587 1.429 . S
C2584 C2567 1.574 . S
C2584 H2578 0.949 . S
C2584 C2588 1.368 . S
C2585 C2566 1.429 . S
C2585 C2579 1.429 . S
C2585 C2586 1.523 . S
C2586 C2567 1.368 . S
C2586 C2580 1.368 . S
C2586 C2585 1.523 . S
C2587 C2571 1.429 . S
C2587 C2583 1.429 . S
C2587 C2588 1.523 . S
C2588 C2572 1.368 . S
C2588 C2584 1.368 . S
C2588 C2587 1.523 . S
H2589 C2564 0.950 . S
H2590 C2566 0.950 . S
H2591 C2567 0.949 . S
H2592 C2569 0.950 . S
H2593 C2571 0.950 . S
C2594 C2595 1.349 . S
C2594 C2596 1.327 . S
C2594 H2619 0.950 . S
C2595 C2594 1.349 . S
C2595 C2611 1.349 . S
C2596 C2594 1.327 . S
C2596 C2615 1.429 . S
C2596 H2620 0.950 . S
C2597 C2614 1.574 . S
C2597 C2616 1.368 . S
C2597 H2621 0.949 . S
H2598 C2602 0.949 . S
C2599 C2600 1.349 . S
C2599 C2601 1.327 . S
C2599 H2622 0.950 . S
C2600 C2599 1.349 . S
C2600 C2612 1.349 . S
C2601 C2599 1.327 . S
C2601 C2617 1.429 . S
C2601 H2623 0.950 . S
C2602 H2598 0.949 . S
C2602 C2610 1.574 . S
C2602 C2618 1.368 . S
H2603 C2611 0.950 . S
H2604 C2609 0.950 . S
H2605 C2610 0.949 . S
H2606 C2612 0.950 . S
H2607 C2613 0.950 . S
H2608 C2614 0.949 . S
C2609 H2604 0.950 . S
C2609 C2611 1.327 . S
C2609 C2615 1.429 . S
C2610 C2602 1.574 . S
C2610 H2605 0.949 . S
C2610 C2616 1.368 . S
C2611 C2595 1.349 . S
C2611 H2603 0.950 . S
C2611 C2609 1.327 . S
C2612 C2600 1.349 . S
C2612 H2606 0.950 . S
C2612 C2613 1.327 . S
C2613 H2607 0.950 . S
C2613 C2612 1.327 . S
C2613 C2617 1.429 . S
C2614 C2597 1.574 . S
C2614 H2608 0.949 . S
C2614 C2618 1.368 . S
C2615 C2596 1.429 . S
C2615 C2609 1.429 . S
C2615 C2616 1.523 . S
C2616 C2597 1.368 . S
C2616 C2610 1.368 . S
C2616 C2615 1.523 . S
C2617 C2601 1.429 . S
C2617 C2613 1.429 . S
C2617 C2618 1.523 . S
C2618 C2602 1.368 . S
C2618 C2614 1.368 . S
C2618 C2617 1.523 . S
H2619 C2594 0.950 . S
H2620 C2596 0.950 . S
H2621 C2597 0.949 . S
H2622 C2599 0.950 . S
H2623 C2601 0.950 . S
C2624 C2625 1.349 . S
C2624 C2626 1.327 . S
C2624 H2649 0.950 . S
C2625 C2624 1.349 . S
C2625 C2641 1.349 . S
C2626 C2624 1.327 . S
C2626 C2645 1.429 . S
C2626 H2650 0.950 . S
C2627 C2644 1.574 . S
C2627 C2646 1.368 . S
C2627 H2651 0.949 . S
H2628 C2632 0.949 . S
C2629 C2630 1.349 . S
C2629 C2631 1.327 . S
C2629 H2652 0.950 . S
C2630 C2629 1.349 . S
C2630 C2642 1.349 . S
C2631 C2629 1.327 . S
C2631 C2647 1.429 . S
C2631 H2653 0.950 . S
C2632 H2628 0.949 . S
C2632 C2640 1.574 . S
C2632 C2648 1.368 . S
H2633 C2641 0.950 . S
H2634 C2639 0.950 . S
H2635 C2640 0.949 . S
H2636 C2642 0.950 . S
H2637 C2643 0.950 . S
H2638 C2644 0.949 . S
C2639 H2634 0.950 . S
C2639 C2641 1.327 . S
C2639 C2645 1.429 . S
C2640 C2632 1.574 . S
C2640 H2635 0.949 . S
C2640 C2646 1.368 . S
C2641 C2625 1.349 . S
C2641 H2633 0.950 . S
C2641 C2639 1.327 . S
C2642 C2630 1.349 . S
C2642 H2636 0.950 . S
C2642 C2643 1.327 . S
C2643 H2637 0.950 . S
C2643 C2642 1.327 . S
C2643 C2647 1.429 . S
C2644 C2627 1.574 . S
C2644 H2638 0.949 . S
C2644 C2648 1.368 . S
C2645 C2626 1.429 . S
C2645 C2639 1.429 . S
C2645 C2646 1.523 . S
C2646 C2627 1.368 . S
C2646 C2640 1.368 . S
C2646 C2645 1.523 . S
C2647 C2631 1.429 . S
C2647 C2643 1.429 . S
C2647 C2648 1.523 . S
C2648 C2632 1.368 . S
C2648 C2644 1.368 . S
C2648 C2647 1.523 . S
H2649 C2624 0.950 . S
H2650 C2626 0.950 . S
H2651 C2627 0.949 . S
H2652 C2629 0.950 . S
H2653 C2631 0.950 . S
C2654 C2655 1.349 . S
C2654 C2656 1.327 . S
C2654 H2679 0.950 . S
C2655 C2654 1.349 . S
C2655 C2671 1.349 . S
C2656 C2654 1.327 . S
C2656 C2675 1.429 . S
C2656 H2680 0.950 . S
C2657 C2674 1.574 . S
C2657 C2676 1.368 . S
C2657 H2681 0.949 . S
H2658 C2662 0.949 . S
C2659 C2660 1.349 1_655 S
C2659 C2661 1.327 . S
C2659 H2682 0.938 1_655 S
C2660 C2659 1.349 1_455 S
C2660 C2672 1.349 . S
C2661 C2659 1.327 . S
C2661 C2677 1.429 . S
C2661 H2683 0.950 . S
C2662 H2658 0.949 . S
C2662 C2670 1.574 . S
C2662 C2678 1.368 . S
H2663 C2671 0.950 . S
H2664 C2669 0.950 . S
H2665 C2670 0.949 . S
H2666 C2672 0.950 . S
H2667 C2673 0.950 . S
H2668 C2674 0.949 . S
C2669 H2664 0.950 . S
C2669 C2671 1.327 . S
C2669 C2675 1.429 . S
C2670 C2662 1.574 . S
C2670 H2665 0.949 . S
C2670 C2676 1.368 . S
C2671 C2655 1.349 . S
C2671 H2663 0.950 . S
C2671 C2669 1.327 . S
C2672 C2660 1.349 . S
C2672 H2666 0.950 . S
C2672 C2673 1.327 1_455 S
C2673 H2667 0.950 . S
C2673 C2672 1.327 1_655 S
C2673 C2677 1.429 . S
C2674 C2657 1.574 . S
C2674 H2668 0.949 . S
C2674 C2678 1.368 . S
C2675 C2656 1.429 . S
C2675 C2669 1.429 . S
C2675 C2676 1.523 . S
C2676 C2657 1.368 . S
C2676 C2670 1.368 . S
C2676 C2675 1.523 . S
C2677 C2661 1.429 . S
C2677 C2673 1.429 . S
C2677 C2678 1.523 . S
C2678 C2662 1.368 . S
C2678 C2674 1.368 . S
C2678 C2677 1.523 . S
H2679 C2654 0.950 . S
H2680 C2656 0.950 . S
H2681 C2657 0.949 . S
H2682 C2659 0.938 1_455 S
H2683 C2661 0.950 . S
C2684 C2685 1.349 . S
C2684 C2686 1.327 . S
C2684 H2709 0.950 . S
C2685 C2684 1.349 . S
C2685 C2701 1.349 . S
C2686 C2684 1.327 . S
C2686 C2705 1.429 . S
C2686 H2710 0.950 . S
C2687 C2704 1.574 . S
C2687 C2706 1.368 . S
C2687 H2711 0.949 . S
H2688 C2692 0.949 . S
C2689 C2690 1.349 . S
C2689 C2691 1.327 . S
C2689 H2712 0.950 . S
C2690 C2689 1.349 . S
C2690 C2702 1.349 . S
C2691 C2689 1.327 . S
C2691 C2707 1.429 . S
C2691 H2713 0.950 . S
C2692 H2688 0.949 . S
C2692 C2700 1.574 . S
C2692 C2708 1.368 . S
H2693 C2701 0.950 . S
H2694 C2699 0.950 . S
H2695 C2700 0.949 . S
H2696 C2702 0.950 . S
H2697 C2703 0.950 . S
H2698 C2704 0.949 . S
C2699 H2694 0.950 . S
C2699 C2701 1.327 . S
C2699 C2705 1.429 . S
C2700 C2692 1.574 . S
C2700 H2695 0.949 . S
C2700 C2706 1.368 . S
C2701 C2685 1.349 . S
C2701 H2693 0.950 . S
C2701 C2699 1.327 . S
C2702 C2690 1.349 . S
C2702 H2696 0.950 . S
C2702 C2703 1.327 . S
C2703 H2697 0.950 . S
C2703 C2702 1.327 . S
C2703 C2707 1.429 . S
C2704 C2687 1.574 . S
C2704 H2698 0.949 . S
C2704 C2708 1.368 . S
C2705 C2686 1.429 . S
C2705 C2699 1.429 . S
C2705 C2706 1.523 . S
C2706 C2687 1.368 . S
C2706 C2700 1.368 . S
C2706 C2705 1.523 . S
C2707 C2691 1.429 . S
C2707 C2703 1.429 . S
C2707 C2708 1.523 . S
C2708 C2692 1.368 . S
C2708 C2704 1.368 . S
C2708 C2707 1.523 . S
H2709 C2684 0.950 . S
H2710 C2686 0.950 . S
H2711 C2687 0.949 . S
H2712 C2689 0.950 . S
H2713 C2691 0.950 . S
C2714 C2715 1.349 . S
C2714 C2716 1.327 . S
C2714 H2739 0.950 . S
C2715 C2714 1.349 . S
C2715 C2731 1.349 . S
C2716 C2714 1.327 . S
C2716 C2735 1.429 . S
C2716 H2740 0.950 . S
C2717 C2734 1.574 . S
C2717 C2736 1.368 . S
C2717 H2741 0.949 . S
H2718 C2722 0.949 . S
C2719 C2720 1.349 . S
C2719 C2721 1.327 . S
C2719 H2742 0.950 . S
C2720 C2719 1.349 . S
C2720 C2732 1.349 . S
C2721 C2719 1.327 . S
C2721 C2737 1.429 . S
C2721 H2743 0.950 . S
C2722 H2718 0.949 . S
C2722 C2730 1.574 . S
C2722 C2738 1.368 . S
H2723 C2731 0.950 . S
H2724 C2729 0.950 . S
H2725 C2730 0.949 . S
H2726 C2732 0.950 . S
H2727 C2733 0.950 . S
H2728 C2734 0.949 . S
C2729 H2724 0.950 . S
C2729 C2731 1.327 . S
C2729 C2735 1.429 . S
C2730 C2722 1.574 . S
C2730 H2725 0.949 . S
C2730 C2736 1.368 . S
C2731 C2715 1.349 . S
C2731 H2723 0.950 . S
C2731 C2729 1.327 . S
C2732 C2720 1.349 . S
C2732 H2726 0.950 . S
C2732 C2733 1.327 . S
C2733 H2727 0.950 . S
C2733 C2732 1.327 . S
C2733 C2737 1.429 . S
C2734 C2717 1.574 . S
C2734 H2728 0.949 . S
C2734 C2738 1.368 . S
C2735 C2716 1.429 . S
C2735 C2729 1.429 . S
C2735 C2736 1.523 . S
C2736 C2717 1.368 . S
C2736 C2730 1.368 . S
C2736 C2735 1.523 . S
C2737 C2721 1.429 . S
C2737 C2733 1.429 . S
C2737 C2738 1.523 . S
C2738 C2722 1.368 . S
C2738 C2734 1.368 . S
C2738 C2737 1.523 . S
H2739 C2714 0.950 . S
H2740 C2716 0.950 . S
H2741 C2717 0.949 . S
H2742 C2719 0.950 . S
H2743 C2721 0.950 . S
C2744 C2745 1.349 . S
C2744 C2746 1.327 . S
C2744 H2769 0.950 . S
C2745 C2744 1.349 . S
C2745 C2761 1.349 . S
C2746 C2744 1.327 . S
C2746 C2765 1.429 . S
C2746 H2770 0.950 . S
C2747 C2764 1.574 . S
C2747 C2766 1.368 . S
C2747 H2771 0.949 . S
H2748 C2752 0.949 . S
C2749 C2750 1.349 . S
C2749 C2751 1.327 . S
C2749 H2772 0.950 . S
C2750 C2749 1.349 . S
C2750 C2762 1.349 . S
C2751 C2749 1.327 . S
C2751 C2767 1.429 . S
C2751 H2773 0.950 . S
C2752 H2748 0.949 . S
C2752 C2760 1.574 . S
C2752 C2768 1.368 . S
H2753 C2761 0.950 . S
H2754 C2759 0.950 . S
H2755 C2760 0.949 . S
H2756 C2762 0.950 . S
H2757 C2763 0.950 . S
H2758 C2764 0.949 . S
C2759 H2754 0.950 . S
C2759 C2761 1.327 . S
C2759 C2765 1.429 . S
C2760 C2752 1.574 . S
C2760 H2755 0.949 . S
C2760 C2766 1.368 . S
C2761 C2745 1.349 . S
C2761 H2753 0.950 . S
C2761 C2759 1.327 . S
C2762 C2750 1.349 . S
C2762 H2756 0.950 . S
C2762 C2763 1.327 . S
C2763 H2757 0.950 . S
C2763 C2762 1.327 . S
C2763 C2767 1.429 . S
C2764 C2747 1.574 . S
C2764 H2758 0.949 . S
C2764 C2768 1.368 . S
C2765 C2746 1.429 . S
C2765 C2759 1.429 . S
C2765 C2766 1.523 . S
C2766 C2747 1.368 . S
C2766 C2760 1.368 . S
C2766 C2765 1.523 . S
C2767 C2751 1.429 . S
C2767 C2763 1.429 . S
C2767 C2768 1.523 . S
C2768 C2752 1.368 . S
C2768 C2764 1.368 . S
C2768 C2767 1.523 . S
H2769 C2744 0.950 . S
H2770 C2746 0.950 . S
H2771 C2747 0.949 . S
H2772 C2749 0.950 . S
H2773 C2751 0.950 . S
C2774 C2775 1.349 . S
C2774 C2776 1.327 . S
C2774 H2799 0.950 . S
C2775 C2774 1.349 . S
C2775 C2791 1.349 . S
C2776 C2774 1.327 . S
C2776 C2795 1.429 . S
C2776 H2800 0.950 . S
C2777 C2794 1.574 . S
C2777 C2796 1.368 . S
C2777 H2801 0.949 . S
H2778 C2782 0.949 . S
C2779 C2780 1.349 . S
C2779 C2781 1.327 . S
C2779 H2802 0.950 . S
C2780 C2779 1.349 . S
C2780 C2792 1.349 . S
C2781 C2779 1.327 . S
C2781 C2797 1.429 . S
C2781 H2803 0.950 . S
C2782 H2778 0.949 . S
C2782 C2790 1.574 . S
C2782 C2798 1.368 . S
H2783 C2791 0.950 . S
H2784 C2789 0.950 . S
H2785 C2790 0.949 . S
H2786 C2792 0.950 . S
H2787 C2793 0.950 . S
H2788 C2794 0.949 . S
C2789 H2784 0.950 . S
C2789 C2791 1.327 . S
C2789 C2795 1.429 . S
C2790 C2782 1.574 . S
C2790 H2785 0.949 . S
C2790 C2796 1.368 . S
C2791 C2775 1.349 . S
C2791 H2783 0.950 . S
C2791 C2789 1.327 . S
C2792 C2780 1.349 . S
C2792 H2786 0.950 . S
C2792 C2793 1.327 . S
C2793 H2787 0.950 . S
C2793 C2792 1.327 . S
C2793 C2797 1.429 . S
C2794 C2777 1.574 . S
C2794 H2788 0.949 . S
C2794 C2798 1.368 . S
C2795 C2776 1.429 . S
C2795 C2789 1.429 . S
C2795 C2796 1.523 . S
C2796 C2777 1.368 . S
C2796 C2790 1.368 . S
C2796 C2795 1.523 . S
C2797 C2781 1.429 . S
C2797 C2793 1.429 . S
C2797 C2798 1.523 . S
C2798 C2782 1.368 . S
C2798 C2794 1.368 . S
C2798 C2797 1.523 . S
H2799 C2774 0.950 . S
H2800 C2776 0.950 . S
H2801 C2777 0.949 . S
H2802 C2779 0.950 . S
H2803 C2781 0.950 . S
C2804 C2805 1.349 . S
C2804 C2806 1.327 . S
C2804 H2829 0.950 . S
C2805 C2804 1.349 . S
C2805 C2821 1.349 . S
C2806 C2804 1.327 . S
C2806 C2825 1.429 . S
C2806 H2830 0.950 . S
C2807 C2824 1.574 . S
C2807 C2826 1.368 . S
C2807 H2831 0.949 . S
H2808 C2812 0.949 . S
C2809 C2810 1.349 . S
C2809 C2811 1.327 . S
C2809 H2832 0.950 . S
C2810 C2809 1.349 . S
C2810 C2822 1.349 . S
C2811 C2809 1.327 . S
C2811 C2827 1.429 . S
C2811 H2833 0.950 . S
C2812 H2808 0.949 . S
C2812 C2820 1.574 . S
C2812 C2828 1.368 . S
H2813 C2821 0.950 . S
H2814 C2819 0.950 . S
H2815 C2820 0.949 . S
H2816 C2822 0.950 . S
H2817 C2823 0.950 . S
H2818 C2824 0.949 . S
C2819 H2814 0.950 . S
C2819 C2821 1.327 . S
C2819 C2825 1.429 . S
C2820 C2812 1.574 . S
C2820 H2815 0.949 . S
C2820 C2826 1.368 . S
C2821 C2805 1.349 . S
C2821 H2813 0.950 . S
C2821 C2819 1.327 . S
C2822 C2810 1.349 . S
C2822 H2816 0.950 . S
C2822 C2823 1.327 . S
C2823 H2817 0.950 . S
C2823 C2822 1.327 . S
C2823 C2827 1.429 . S
C2824 C2807 1.574 . S
C2824 H2818 0.949 . S
C2824 C2828 1.368 . S
C2825 C2806 1.429 . S
C2825 C2819 1.429 . S
C2825 C2826 1.523 . S
C2826 C2807 1.368 . S
C2826 C2820 1.368 . S
C2826 C2825 1.523 . S
C2827 C2811 1.429 . S
C2827 C2823 1.429 . S
C2827 C2828 1.523 . S
C2828 C2812 1.368 . S
C2828 C2824 1.368 . S
C2828 C2827 1.523 . S
H2829 C2804 0.950 . S
H2830 C2806 0.950 . S
H2831 C2807 0.949 . S
H2832 C2809 0.950 . S
H2833 C2811 0.950 . S
C2834 C2835 1.349 . S
C2834 C2836 1.327 . S
C2834 H2859 0.950 . S
C2835 C2834 1.349 . S
C2835 C2851 1.349 . S
C2836 C2834 1.327 . S
C2836 C2855 1.429 . S
C2836 H2860 0.950 . S
C2837 C2854 1.574 . S
C2837 C2856 1.368 . S
C2837 H2861 0.949 . S
H2838 C2842 0.949 . S
C2839 C2840 1.349 1_655 S
C2839 C2841 1.327 . S
C2839 H2862 0.950 . S
C2840 C2839 1.349 1_455 S
C2840 C2852 1.349 . S
C2841 C2839 1.327 . S
C2841 C2857 1.429 . S
C2841 H2863 0.950 . S
C2842 H2838 0.949 . S
C2842 C2850 1.574 . S
C2842 C2858 1.368 . S
H2843 C2851 0.950 . S
H2844 C2849 0.950 . S
H2845 C2850 0.949 . S
H2846 C2852 0.950 . S
H2847 C2853 0.950 . S
H2848 C2854 0.949 . S
C2849 H2844 0.950 . S
C2849 C2851 1.327 . S
C2849 C2855 1.429 . S
C2850 C2842 1.574 . S
C2850 H2845 0.949 . S
C2850 C2856 1.368 . S
C2851 C2835 1.349 . S
C2851 H2843 0.950 . S
C2851 C2849 1.327 . S
C2852 C2840 1.349 . S
C2852 H2846 0.950 . S
C2852 C2853 1.327 1_455 S
C2853 H2847 0.950 . S
C2853 C2852 1.327 1_655 S
C2853 C2857 1.429 . S
C2854 C2837 1.574 . S
C2854 H2848 0.949 . S
C2854 C2858 1.368 . S
C2855 C2836 1.429 . S
C2855 C2849 1.429 . S
C2855 C2856 1.523 . S
C2856 C2837 1.368 . S
C2856 C2850 1.368 . S
C2856 C2855 1.523 . S
C2857 C2841 1.429 . S
C2857 C2853 1.429 . S
C2857 C2858 1.523 . S
C2858 C2842 1.368 . S
C2858 C2854 1.368 . S
C2858 C2857 1.523 . S
H2859 C2834 0.950 . S
H2860 C2836 0.950 . S
H2861 C2837 0.949 . S
H2862 C2839 0.950 . S
H2863 C2841 0.950 . S
C2864 C2865 1.349 . S
C2864 C2866 1.327 . S
C2864 H2889 0.950 . S
C2865 C2864 1.349 . S
C2865 C2881 1.349 . S
C2866 C2864 1.327 . S
C2866 C2885 1.429 . S
C2866 H2890 0.950 . S
C2867 C2884 1.574 . S
C2867 C2886 1.368 . S
C2867 H2891 0.949 . S
H2868 C2872 0.949 . S
C2869 C2870 1.349 . S
C2869 C2871 1.327 . S
C2869 H2892 0.950 . S
C2870 C2869 1.349 . S
C2870 C2882 1.349 . S
C2871 C2869 1.327 . S
C2871 C2887 1.429 . S
C2871 H2893 0.950 . S
C2872 H2868 0.949 . S
C2872 C2880 1.574 . S
C2872 C2888 1.368 . S
H2873 C2881 0.950 . S
H2874 C2879 0.950 . S
H2875 C2880 0.949 . S
H2876 C2882 0.950 . S
H2877 C2883 0.950 . S
H2878 C2884 0.949 . S
C2879 H2874 0.950 . S
C2879 C2881 1.327 . S
C2879 C2885 1.429 . S
C2880 C2872 1.574 . S
C2880 H2875 0.949 . S
C2880 C2886 1.368 . S
C2881 C2865 1.349 . S
C2881 H2873 0.950 . S
C2881 C2879 1.327 . S
C2882 C2870 1.349 . S
C2882 H2876 0.950 . S
C2882 C2883 1.327 . S
C2883 H2877 0.950 . S
C2883 C2882 1.327 . S
C2883 C2887 1.429 . S
C2884 C2867 1.574 . S
C2884 H2878 0.949 . S
C2884 C2888 1.368 . S
C2885 C2866 1.429 . S
C2885 C2879 1.429 . S
C2885 C2886 1.523 . S
C2886 C2867 1.368 . S
C2886 C2880 1.368 . S
C2886 C2885 1.523 . S
C2887 C2871 1.429 . S
C2887 C2883 1.429 . S
C2887 C2888 1.523 . S
C2888 C2872 1.368 . S
C2888 C2884 1.368 . S
C2888 C2887 1.523 . S
H2889 C2864 0.950 . S
H2890 C2866 0.950 . S
H2891 C2867 0.949 . S
H2892 C2869 0.950 . S
H2893 C2871 0.950 . S
C2894 C2895 1.349 . S
C2894 C2896 1.327 . S
C2894 H2919 0.950 . S
C2895 C2894 1.349 . S
C2895 C2911 1.349 . S
C2896 C2894 1.327 . S
C2896 C2915 1.429 . S
C2896 H2920 0.950 . S
C2897 C2914 1.574 . S
C2897 C2916 1.368 . S
C2897 H2921 0.949 . S
H2898 C2902 0.949 . S
C2899 C2900 1.349 1_455 S
C2899 C2901 1.327 . S
C2899 H2922 0.950 1_455 S
C2900 C2899 1.349 1_655 S
C2900 C2912 1.349 . S
C2901 C2899 1.327 . S
C2901 C2917 1.429 . S
C2901 H2923 0.950 . S
C2902 H2898 0.949 . S
C2902 C2910 1.574 . S
C2902 C2918 1.368 . S
H2903 C2911 0.950 . S
H2904 C2909 0.950 . S
H2905 C2910 0.949 . S
H2906 C2912 0.950 . S
H2907 C2913 0.950 . S
H2908 C2914 0.949 . S
C2909 H2904 0.950 . S
C2909 C2911 1.327 . S
C2909 C2915 1.429 . S
C2910 C2902 1.574 . S
C2910 H2905 0.949 . S
C2910 C2916 1.368 . S
C2911 C2895 1.349 . S
C2911 H2903 0.950 . S
C2911 C2909 1.327 . S
C2912 C2900 1.349 . S
C2912 H2906 0.950 . S
C2912 C2913 1.327 1_655 S
C2913 H2907 0.950 . S
C2913 C2912 1.327 1_455 S
C2913 C2917 1.429 . S
C2914 C2897 1.574 . S
C2914 H2908 0.949 . S
C2914 C2918 1.368 . S
C2915 C2896 1.429 . S
C2915 C2909 1.429 . S
C2915 C2916 1.523 . S
C2916 C2897 1.368 . S
C2916 C2910 1.368 . S
C2916 C2915 1.523 . S
C2917 C2901 1.429 . S
C2917 C2913 1.429 . S
C2917 C2918 1.523 . S
C2918 C2902 1.368 . S
C2918 C2914 1.368 . S
C2918 C2917 1.523 . S
H2919 C2894 0.950 . S
H2920 C2896 0.950 . S
H2921 C2897 0.949 . S
H2922 C2899 0.950 1_655 S
H2923 C2901 0.950 . S
C2924 C2925 1.349 . S
C2924 C2926 1.327 . S
C2924 H2949 0.950 . S
C2925 C2924 1.349 . S
C2925 C2941 1.349 . S
C2926 C2924 1.327 . S
C2926 C2945 1.429 . S
C2926 H2950 0.950 . S
C2927 C2944 1.574 . S
C2927 C2946 1.368 . S
C2927 H2951 0.949 . S
H2928 C2932 0.949 . S
C2929 C2930 1.349 . S
C2929 C2931 1.327 . S
C2929 H2952 0.950 . S
C2930 C2929 1.349 . S
C2930 C2942 1.349 . S
C2931 C2929 1.327 . S
C2931 C2947 1.429 . S
C2931 H2953 0.950 . S
C2932 H2928 0.949 . S
C2932 C2940 1.574 . S
C2932 C2948 1.368 . S
H2933 C2941 0.950 . S
H2934 C2939 0.950 . S
H2935 C2940 0.949 . S
H2936 C2942 0.950 . S
H2937 C2943 0.950 . S
H2938 C2944 0.949 . S
C2939 H2934 0.950 . S
C2939 C2941 1.327 . S
C2939 C2945 1.429 . S
C2940 C2932 1.574 . S
C2940 H2935 0.949 . S
C2940 C2946 1.368 . S
C2941 C2925 1.349 . S
C2941 H2933 0.950 . S
C2941 C2939 1.327 . S
C2942 C2930 1.349 . S
C2942 H2936 0.950 . S
C2942 C2943 1.327 . S
C2943 H2937 0.950 . S
C2943 C2942 1.327 . S
C2943 C2947 1.429 . S
C2944 C2927 1.574 . S
C2944 H2938 0.949 . S
C2944 C2948 1.368 . S
C2945 C2926 1.429 . S
C2945 C2939 1.429 . S
C2945 C2946 1.523 . S
C2946 C2927 1.368 . S
C2946 C2940 1.368 . S
C2946 C2945 1.523 . S
C2947 C2931 1.429 . S
C2947 C2943 1.429 . S
C2947 C2948 1.523 . S
C2948 C2932 1.368 . S
C2948 C2944 1.368 . S
C2948 C2947 1.523 . S
H2949 C2924 0.950 . S
H2950 C2926 0.950 . S
H2951 C2927 0.949 . S
H2952 C2929 0.950 . S
H2953 C2931 0.950 . S
C2954 C2955 1.349 . S
C2954 C2956 1.327 . S
C2954 H2979 0.950 . S
C2955 C2954 1.349 . S
C2955 C2971 1.349 . S
C2956 C2954 1.327 . S
C2956 C2975 1.429 . S
C2956 H2980 0.950 . S
C2957 C2974 1.574 . S
C2957 C2976 1.368 . S
C2957 H2981 0.949 . S
H2958 C2962 0.949 . S
C2959 C2960 1.349 . S
C2959 C2961 1.327 . S
C2959 H2982 0.950 . S
C2960 C2959 1.349 . S
C2960 C2972 1.349 . S
C2961 C2959 1.327 . S
C2961 C2977 1.429 . S
C2961 H2983 0.950 . S
C2962 H2958 0.949 . S
C2962 C2970 1.574 . S
C2962 C2978 1.368 . S
H2963 C2971 0.950 . S
H2964 C2969 0.950 . S
H2965 C2970 0.949 . S
H2966 C2972 0.950 . S
H2967 C2973 0.950 . S
H2968 C2974 0.949 . S
C2969 H2964 0.950 . S
C2969 C2971 1.327 . S
C2969 C2975 1.429 . S
C2970 C2962 1.574 . S
C2970 H2965 0.949 . S
C2970 C2976 1.368 . S
C2971 C2955 1.349 . S
C2971 H2963 0.950 . S
C2971 C2969 1.327 . S
C2972 C2960 1.349 . S
C2972 H2966 0.950 . S
C2972 C2973 1.327 . S
C2973 H2967 0.950 . S
C2973 C2972 1.327 . S
C2973 C2977 1.429 . S
C2974 C2957 1.574 . S
C2974 H2968 0.949 . S
C2974 C2978 1.368 . S
C2975 C2956 1.429 . S
C2975 C2969 1.429 . S
C2975 C2976 1.523 . S
C2976 C2957 1.368 . S
C2976 C2970 1.368 . S
C2976 C2975 1.523 . S
C2977 C2961 1.429 . S
C2977 C2973 1.429 . S
C2977 C2978 1.523 . S
C2978 C2962 1.368 . S
C2978 C2974 1.368 . S
C2978 C2977 1.523 . S
H2979 C2954 0.950 . S
H2980 C2956 0.950 . S
H2981 C2957 0.949 . S
H2982 C2959 0.950 . S
H2983 C2961 0.950 . S
C2984 C2985 1.349 . S
C2984 C2986 1.327 . S
C2984 H3009 0.950 . S
C2985 C2984 1.349 . S
C2985 C3001 1.349 . S
C2986 C2984 1.327 . S
C2986 C3005 1.429 . S
C2986 H3010 0.950 . S
C2987 C3004 1.574 . S
C2987 C3006 1.368 . S
C2987 H3011 0.949 . S
H2988 C2992 0.949 . S
C2989 C2990 1.349 . S
C2989 C2991 1.327 . S
C2989 H3012 0.950 . S
C2990 C2989 1.349 . S
C2990 C3002 1.349 . S
C2991 C2989 1.327 . S
C2991 C3007 1.429 . S
C2991 H3013 0.950 . S
C2992 H2988 0.949 . S
C2992 C3000 1.574 . S
C2992 C3008 1.368 . S
H2993 C3001 0.950 . S
H2994 C2999 0.950 . S
H2995 C3000 0.949 . S
H2996 C3002 0.950 . S
H2997 C3003 0.950 . S
H2998 C3004 0.949 . S
C2999 H2994 0.950 . S
C2999 C3001 1.327 . S
C2999 C3005 1.429 . S
C3000 C2992 1.574 . S
C3000 H2995 0.949 . S
C3000 C3006 1.368 . S
C3001 C2985 1.349 . S
C3001 H2993 0.950 . S
C3001 C2999 1.327 . S
C3002 C2990 1.349 . S
C3002 H2996 0.950 . S
C3002 C3003 1.327 . S
C3003 H2997 0.950 . S
C3003 C3002 1.327 . S
C3003 C3007 1.429 . S
C3004 C2987 1.574 . S
C3004 H2998 0.949 . S
C3004 C3008 1.368 . S
C3005 C2986 1.429 . S
C3005 C2999 1.429 . S
C3005 C3006 1.523 . S
C3006 C2987 1.368 . S
C3006 C3000 1.368 . S
C3006 C3005 1.523 . S
C3007 C2991 1.429 . S
C3007 C3003 1.429 . S
C3007 C3008 1.523 . S
C3008 C2992 1.368 . S
C3008 C3004 1.368 . S
C3008 C3007 1.523 . S
H3009 C2984 0.950 . S
H3010 C2986 0.950 . S
H3011 C2987 0.949 . S
H3012 C2989 0.950 . S
H3013 C2991 0.950 . S
C3014 C3015 1.349 . S
C3014 C3016 1.327 . S
C3014 H3039 0.950 . S
C3015 C3014 1.349 . S
C3015 C3031 1.349 . S
C3016 C3014 1.327 . S
C3016 C3035 1.429 . S
C3016 H3040 0.950 . S
C3017 C3034 1.574 . S
C3017 C3036 1.368 . S
C3017 H3041 0.949 . S
H3018 C3022 0.949 . S
C3019 C3020 1.349 . S
C3019 C3021 1.327 . S
C3019 H3042 0.950 . S
C3020 C3019 1.349 . S
C3020 C3032 1.349 . S
C3021 C3019 1.327 . S
C3021 C3037 1.429 . S
C3021 H3043 0.950 . S
C3022 H3018 0.949 . S
C3022 C3030 1.574 . S
C3022 C3038 1.368 . S
H3023 C3031 0.950 . S
H3024 C3029 0.950 . S
H3025 C3030 0.949 . S
H3026 C3032 0.950 . S
H3027 C3033 0.950 . S
H3028 C3034 0.949 . S
C3029 H3024 0.950 . S
C3029 C3031 1.327 . S
C3029 C3035 1.429 . S
C3030 C3022 1.574 . S
C3030 H3025 0.949 . S
C3030 C3036 1.368 . S
C3031 C3015 1.349 . S
C3031 H3023 0.950 . S
C3031 C3029 1.327 . S
C3032 C3020 1.349 . S
C3032 H3026 0.950 . S
C3032 C3033 1.327 . S
C3033 H3027 0.950 . S
C3033 C3032 1.327 . S
C3033 C3037 1.429 . S
C3034 C3017 1.574 . S
C3034 H3028 0.949 . S
C3034 C3038 1.368 . S
C3035 C3016 1.429 . S
C3035 C3029 1.429 . S
C3035 C3036 1.523 . S
C3036 C3017 1.368 . S
C3036 C3030 1.368 . S
C3036 C3035 1.523 . S
C3037 C3021 1.429 . S
C3037 C3033 1.429 . S
C3037 C3038 1.523 . S
C3038 C3022 1.368 . S
C3038 C3034 1.368 . S
C3038 C3037 1.523 . S
H3039 C3014 0.950 . S
H3040 C3016 0.950 . S
H3041 C3017 0.949 . S
H3042 C3019 0.950 . S
H3043 C3021 0.950 . S
C3044 C3045 1.349 . S
C3044 C3046 1.327 . S
C3044 H3069 0.950 . S
C3045 C3044 1.349 . S
C3045 C3061 1.349 . S
C3046 C3044 1.327 . S
C3046 C3065 1.429 . S
C3046 H3070 0.950 . S
C3047 C3064 1.574 . S
C3047 C3066 1.368 . S
C3047 H3071 0.949 . S
H3048 C3052 0.949 . S
C3049 C3050 1.349 . S
C3049 C3051 1.327 . S
C3049 H3072 0.950 . S
C3050 C3049 1.349 . S
C3050 C3062 1.349 . S
C3051 C3049 1.327 . S
C3051 C3067 1.429 . S
C3051 H3073 0.950 . S
C3052 H3048 0.949 . S
C3052 C3060 1.574 . S
C3052 C3068 1.368 . S
H3053 C3061 0.950 . S
H3054 C3059 0.950 . S
H3055 C3060 0.949 . S
H3056 C3062 0.950 . S
H3057 C3063 0.950 . S
H3058 C3064 0.949 . S
C3059 H3054 0.950 . S
C3059 C3061 1.327 . S
C3059 C3065 1.429 . S
C3060 C3052 1.574 . S
C3060 H3055 0.949 . S
C3060 C3066 1.368 . S
C3061 C3045 1.349 . S
C3061 H3053 0.950 . S
C3061 C3059 1.327 . S
C3062 C3050 1.349 . S
C3062 H3056 0.950 . S
C3062 C3063 1.327 . S
C3063 H3057 0.950 . S
C3063 C3062 1.327 . S
C3063 C3067 1.429 . S
C3064 C3047 1.574 . S
C3064 H3058 0.949 . S
C3064 C3068 1.368 . S
C3065 C3046 1.429 . S
C3065 C3059 1.429 . S
C3065 C3066 1.523 . S
C3066 C3047 1.368 . S
C3066 C3060 1.368 . S
C3066 C3065 1.523 . S
C3067 C3051 1.429 . S
C3067 C3063 1.429 . S
C3067 C3068 1.523 . S
C3068 C3052 1.368 . S
C3068 C3064 1.368 . S
C3068 C3067 1.523 . S
H3069 C3044 0.950 . S
H3070 C3046 0.950 . S
H3071 C3047 0.949 . S
H3072 C3049 0.950 . S
H3073 C3051 0.950 . S
C3074 C3075 1.349 . S
C3074 C3076 1.327 . S
C3074 H3099 0.950 . S
C3075 C3074 1.349 . S
C3075 C3091 1.349 . S
C3076 C3074 1.327 . S
C3076 C3095 1.429 . S
C3076 H3100 0.950 . S
C3077 C3094 1.574 . S
C3077 C3096 1.368 . S
C3077 H3101 0.949 . S
H3078 C3082 0.949 . S
C3079 C3080 1.349 1_455 S
C3079 C3081 1.327 . S
C3079 H3102 0.939 1_455 S
C3080 C3079 1.349 1_655 S
C3080 C3092 1.349 . S
C3081 C3079 1.327 . S
C3081 C3097 1.429 . S
C3081 H3103 0.950 . S
C3082 H3078 0.949 . S
C3082 C3090 1.574 . S
C3082 C3098 1.368 . S
H3083 C3091 0.950 . S
H3084 C3089 0.950 . S
H3085 C3090 0.949 . S
H3086 C3092 0.950 . S
H3087 C3093 0.950 . S
H3088 C3094 0.949 . S
C3089 H3084 0.950 . S
C3089 C3091 1.327 . S
C3089 C3095 1.429 . S
C3090 C3082 1.574 . S
C3090 H3085 0.949 . S
C3090 C3096 1.368 . S
C3091 C3075 1.349 . S
C3091 H3083 0.950 . S
C3091 C3089 1.327 . S
C3092 C3080 1.349 . S
C3092 H3086 0.950 . S
C3092 C3093 1.327 1_655 S
C3093 H3087 0.950 . S
C3093 C3092 1.327 1_455 S
C3093 C3097 1.429 . S
C3094 C3077 1.574 . S
C3094 H3088 0.949 . S
C3094 C3098 1.368 . S
C3095 C3076 1.429 . S
C3095 C3089 1.429 . S
C3095 C3096 1.523 . S
C3096 C3077 1.368 . S
C3096 C3090 1.368 . S
C3096 C3095 1.523 . S
C3097 C3081 1.429 . S
C3097 C3093 1.429 . S
C3097 C3098 1.523 . S
C3098 C3082 1.368 . S
C3098 C3094 1.368 . S
C3098 C3097 1.523 . S
H3099 C3074 0.950 . S
H3100 C3076 0.950 . S
H3101 C3077 0.949 . S
H3102 C3079 0.939 1_655 S
H3103 C3081 0.950 . S
C3104 C3105 1.349 . S
C3104 C3106 1.327 . S
C3104 H3129 0.950 . S
C3105 C3104 1.349 . S
C3105 C3121 1.349 . S
C3106 C3104 1.327 . S
C3106 C3125 1.429 . S
C3106 H3130 0.950 . S
C3107 C3124 1.574 . S
C3107 C3126 1.368 . S
C3107 H3131 0.949 . S
H3108 C3112 0.949 . S
C3109 C3110 1.349 . S
C3109 C3111 1.327 . S
C3109 H3132 0.950 . S
C3110 C3109 1.349 . S
C3110 C3122 1.349 . S
C3111 C3109 1.327 . S
C3111 C3127 1.429 . S
C3111 H3133 0.950 . S
C3112 H3108 0.949 . S
C3112 C3120 1.574 . S
C3112 C3128 1.368 . S
H3113 C3121 0.950 . S
H3114 C3119 0.950 . S
H3115 C3120 0.949 . S
H3116 C3122 0.950 . S
H3117 C3123 0.950 . S
H3118 C3124 0.949 . S
C3119 H3114 0.950 . S
C3119 C3121 1.327 . S
C3119 C3125 1.429 . S
C3120 C3112 1.574 . S
C3120 H3115 0.949 . S
C3120 C3126 1.368 . S
C3121 C3105 1.349 . S
C3121 H3113 0.950 . S
C3121 C3119 1.327 . S
C3122 C3110 1.349 . S
C3122 H3116 0.950 . S
C3122 C3123 1.327 . S
C3123 H3117 0.950 . S
C3123 C3122 1.327 . S
C3123 C3127 1.429 . S
C3124 C3107 1.574 . S
C3124 H3118 0.949 . S
C3124 C3128 1.368 . S
C3125 C3106 1.429 . S
C3125 C3119 1.429 . S
C3125 C3126 1.523 . S
C3126 C3107 1.368 . S
C3126 C3120 1.368 . S
C3126 C3125 1.523 . S
C3127 C3111 1.429 . S
C3127 C3123 1.429 . S
C3127 C3128 1.523 . S
C3128 C3112 1.368 . S
C3128 C3124 1.368 . S
C3128 C3127 1.523 . S
H3129 C3104 0.950 . S
H3130 C3106 0.950 . S
H3131 C3107 0.949 . S
H3132 C3109 0.950 . S
H3133 C3111 0.950 . S
C3134 C3135 1.349 . S
C3134 C3136 1.327 . S
C3134 H3159 0.950 . S
C3135 C3134 1.349 . S
C3135 C3151 1.349 . S
C3136 C3134 1.327 . S
C3136 C3155 1.429 . S
C3136 H3160 0.950 . S
C3137 C3154 1.574 . S
C3137 C3156 1.368 . S
C3137 H3161 0.949 . S
H3138 C3142 0.949 . S
C3139 C3140 1.349 . S
C3139 C3141 1.327 . S
C3139 H3162 0.950 . S
C3140 C3139 1.349 . S
C3140 C3152 1.349 . S
C3141 C3139 1.327 . S
C3141 C3157 1.429 . S
C3141 H3163 0.950 . S
C3142 H3138 0.949 . S
C3142 C3150 1.574 . S
C3142 C3158 1.368 . S
H3143 C3151 0.950 . S
H3144 C3149 0.950 . S
H3145 C3150 0.949 . S
H3146 C3152 0.950 . S
H3147 C3153 0.950 . S
H3148 C3154 0.949 . S
C3149 H3144 0.950 . S
C3149 C3151 1.327 . S
C3149 C3155 1.429 . S
C3150 C3142 1.574 . S
C3150 H3145 0.949 . S
C3150 C3156 1.368 . S
C3151 C3135 1.349 . S
C3151 H3143 0.950 . S
C3151 C3149 1.327 . S
C3152 C3140 1.349 . S
C3152 H3146 0.950 . S
C3152 C3153 1.327 . S
C3153 H3147 0.950 . S
C3153 C3152 1.327 . S
C3153 C3157 1.429 . S
C3154 C3137 1.574 . S
C3154 H3148 0.949 . S
C3154 C3158 1.368 . S
C3155 C3136 1.429 . S
C3155 C3149 1.429 . S
C3155 C3156 1.523 . S
C3156 C3137 1.368 . S
C3156 C3150 1.368 . S
C3156 C3155 1.523 . S
C3157 C3141 1.429 . S
C3157 C3153 1.429 . S
C3157 C3158 1.523 . S
C3158 C3142 1.368 . S
C3158 C3154 1.368 . S
C3158 C3157 1.523 . S
H3159 C3134 0.950 . S
H3160 C3136 0.950 . S
H3161 C3137 0.949 . S
H3162 C3139 0.950 . S
H3163 C3141 0.950 . S
C3164 C3165 1.349 . S
C3164 C3166 1.327 . S
C3164 H3189 0.950 . S
C3165 C3164 1.349 . S
C3165 C3181 1.349 . S
C3166 C3164 1.327 . S
C3166 C3185 1.429 . S
C3166 H3190 0.950 . S
C3167 C3184 1.574 . S
C3167 C3186 1.368 . S
C3167 H3191 0.949 . S
H3168 C3172 0.949 . S
C3169 C3170 1.349 . S
C3169 C3171 1.327 . S
C3169 H3192 0.950 . S
C3170 C3169 1.349 . S
C3170 C3182 1.349 . S
C3171 C3169 1.327 . S
C3171 C3187 1.429 . S
C3171 H3193 0.950 . S
C3172 H3168 0.949 . S
C3172 C3180 1.574 . S
C3172 C3188 1.368 . S
H3173 C3181 0.950 . S
H3174 C3179 0.950 . S
H3175 C3180 0.949 . S
H3176 C3182 0.950 . S
H3177 C3183 0.950 . S
H3178 C3184 0.949 . S
C3179 H3174 0.950 . S
C3179 C3181 1.327 . S
C3179 C3185 1.429 . S
C3180 C3172 1.574 . S
C3180 H3175 0.949 . S
C3180 C3186 1.368 . S
C3181 C3165 1.349 . S
C3181 H3173 0.950 . S
C3181 C3179 1.327 . S
C3182 C3170 1.349 . S
C3182 H3176 0.950 . S
C3182 C3183 1.327 . S
C3183 H3177 0.950 . S
C3183 C3182 1.327 . S
C3183 C3187 1.429 . S
C3184 C3167 1.574 . S
C3184 H3178 0.949 . S
C3184 C3188 1.368 . S
C3185 C3166 1.429 . S
C3185 C3179 1.429 . S
C3185 C3186 1.523 . S
C3186 C3167 1.368 . S
C3186 C3180 1.368 . S
C3186 C3185 1.523 . S
C3187 C3171 1.429 . S
C3187 C3183 1.429 . S
C3187 C3188 1.523 . S
C3188 C3172 1.368 . S
C3188 C3184 1.368 . S
C3188 C3187 1.523 . S
H3189 C3164 0.950 . S
H3190 C3166 0.950 . S
H3191 C3167 0.949 . S
H3192 C3169 0.950 . S
H3193 C3171 0.950 . S
C3194 C3195 1.349 . S
C3194 C3196 1.327 . S
C3194 H3219 0.950 . S
C3195 C3194 1.349 . S
C3195 C3211 1.349 . S
C3196 C3194 1.327 . S
C3196 C3215 1.429 . S
C3196 H3220 0.950 . S
C3197 C3214 1.574 . S
C3197 C3216 1.368 . S
C3197 H3221 0.949 . S
H3198 C3202 0.949 . S
C3199 C3200 1.349 1_455 S
C3199 C3201 1.327 . S
C3199 H3222 0.962 . S
C3200 C3199 1.349 1_655 S
C3200 C3212 1.349 . S
C3201 C3199 1.327 . S
C3201 C3217 1.429 . S
C3201 H3223 0.950 . S
C3202 H3198 0.949 . S
C3202 C3210 1.574 . S
C3202 C3218 1.368 . S
H3203 C3211 0.950 . S
H3204 C3209 0.950 . S
H3205 C3210 0.949 . S
H3206 C3212 0.950 . S
H3207 C3213 0.950 . S
H3208 C3214 0.949 . S
C3209 H3204 0.950 . S
C3209 C3211 1.327 . S
C3209 C3215 1.429 . S
C3210 C3202 1.574 . S
C3210 H3205 0.949 . S
C3210 C3216 1.368 . S
C3211 C3195 1.349 . S
C3211 H3203 0.950 . S
C3211 C3209 1.327 . S
C3212 C3200 1.349 . S
C3212 H3206 0.950 . S
C3212 C3213 1.327 1_655 S
C3213 H3207 0.950 . S
C3213 C3212 1.327 1_455 S
C3213 C3217 1.429 . S
C3214 C3197 1.574 . S
C3214 H3208 0.949 . S
C3214 C3218 1.368 . S
C3215 C3196 1.429 . S
C3215 C3209 1.429 . S
C3215 C3216 1.523 . S
C3216 C3197 1.368 . S
C3216 C3210 1.368 . S
C3216 C3215 1.523 . S
C3217 C3201 1.429 . S
C3217 C3213 1.429 . S
C3217 C3218 1.523 . S
C3218 C3202 1.368 . S
C3218 C3214 1.368 . S
C3218 C3217 1.523 . S
H3219 C3194 0.950 . S
H3220 C3196 0.950 . S
H3221 C3197 0.949 . S
H3222 C3199 0.962 . S
H3223 C3201 0.950 . S
C3224 C3225 1.349 . S
C3224 C3226 1.327 . S
C3224 H3249 0.950 . S
C3225 C3224 1.349 . S
C3225 C3241 1.349 . S
C3226 C3224 1.327 . S
C3226 C3245 1.429 . S
C3226 H3250 0.950 . S
C3227 C3244 1.574 . S
C3227 C3246 1.368 . S
C3227 H3251 0.949 . S
H3228 C3232 0.949 . S
C3229 C3230 1.349 . S
C3229 C3231 1.327 . S
C3229 H3252 0.950 . S
C3230 C3229 1.349 . S
C3230 C3242 1.349 . S
C3231 C3229 1.327 . S
C3231 C3247 1.429 . S
C3231 H3253 0.950 . S
C3232 H3228 0.949 . S
C3232 C3240 1.574 . S
C3232 C3248 1.368 . S
H3233 C3241 0.950 . S
H3234 C3239 0.950 . S
H3235 C3240 0.949 . S
H3236 C3242 0.950 . S
H3237 C3243 0.950 . S
H3238 C3244 0.949 . S
C3239 H3234 0.950 . S
C3239 C3241 1.327 . S
C3239 C3245 1.429 . S
C3240 C3232 1.574 . S
C3240 H3235 0.949 . S
C3240 C3246 1.368 . S
C3241 C3225 1.349 . S
C3241 H3233 0.950 . S
C3241 C3239 1.327 . S
C3242 C3230 1.349 . S
C3242 H3236 0.950 . S
C3242 C3243 1.327 . S
C3243 H3237 0.950 . S
C3243 C3242 1.327 . S
C3243 C3247 1.429 . S
C3244 C3227 1.574 . S
C3244 H3238 0.949 . S
C3244 C3248 1.368 . S
C3245 C3226 1.429 . S
C3245 C3239 1.429 . S
C3245 C3246 1.523 . S
C3246 C3227 1.368 . S
C3246 C3240 1.368 . S
C3246 C3245 1.523 . S
C3247 C3231 1.429 . S
C3247 C3243 1.429 . S
C3247 C3248 1.523 . S
C3248 C3232 1.368 . S
C3248 C3244 1.368 . S
C3248 C3247 1.523 . S
H3249 C3224 0.950 . S
H3250 C3226 0.950 . S
H3251 C3227 0.949 . S
H3252 C3229 0.950 . S
H3253 C3231 0.950 . S
C3254 C3255 1.349 . S
C3254 C3256 1.327 . S
C3254 H3279 0.950 . S
C3255 C3254 1.349 . S
C3255 C3271 1.349 . S
C3256 C3254 1.327 . S
C3256 C3275 1.429 . S
C3256 H3280 0.950 . S
C3257 C3274 1.574 . S
C3257 C3276 1.368 . S
C3257 H3281 0.949 . S
H3258 C3262 0.949 . S
C3259 C3260 1.349 . S
C3259 C3261 1.327 1_655 S
C3259 H3282 0.950 . S
C3260 C3259 1.349 . S
C3260 C3272 1.349 1_655 S
C3261 C3259 1.327 1_455 S
C3261 C3277 1.429 . S
C3261 H3283 0.950 . S
C3262 H3258 0.949 . S
C3262 C3270 1.574 . S
C3262 C3278 1.368 . S
H3263 C3271 0.950 . S
H3264 C3269 0.950 . S
H3265 C3270 0.949 . S
H3266 C3272 0.939 1_655 S
H3267 C3273 0.950 . S
H3268 C3274 0.949 . S
C3269 H3264 0.950 . S
C3269 C3271 1.327 . S
C3269 C3275 1.429 . S
C3270 C3262 1.574 . S
C3270 H3265 0.949 . S
C3270 C3276 1.368 . S
C3271 C3255 1.349 . S
C3271 H3263 0.950 . S
C3271 C3269 1.327 . S
C3272 C3260 1.349 1_455 S
C3272 H3266 0.939 1_455 S
C3272 C3273 1.327 . S
C3273 H3267 0.950 . S
C3273 C3272 1.327 . S
C3273 C3277 1.429 . S
C3274 C3257 1.574 . S
C3274 H3268 0.949 . S
C3274 C3278 1.368 . S
C3275 C3256 1.429 . S
C3275 C3269 1.429 . S
C3275 C3276 1.523 . S
C3276 C3257 1.368 . S
C3276 C3270 1.368 . S
C3276 C3275 1.523 . S
C3277 C3261 1.429 . S
C3277 C3273 1.429 . S
C3277 C3278 1.523 . S
C3278 C3262 1.368 . S
C3278 C3274 1.368 . S
C3278 C3277 1.523 . S
H3279 C3254 0.950 . S
H3280 C3256 0.950 . S
H3281 C3257 0.949 . S
H3282 C3259 0.950 . S
H3283 C3261 0.950 . S
C3284 C3285 1.349 . S
C3284 C3286 1.327 . S
C3284 H3309 0.950 . S
C3285 C3284 1.349 . S
C3285 C3301 1.349 . S
C3286 C3284 1.327 . S
C3286 C3305 1.429 . S
C3286 H3310 0.950 . S
C3287 C3304 1.574 . S
C3287 C3306 1.368 . S
C3287 H3311 0.949 . S
H3288 C3292 0.949 . S
C3289 C3290 1.349 . S
C3289 C3291 1.327 . S
C3289 H3312 0.950 . S
C3290 C3289 1.349 . S
C3290 C3302 1.349 . S
C3291 C3289 1.327 . S
C3291 C3307 1.429 . S
C3291 H3313 0.950 . S
C3292 H3288 0.949 . S
C3292 C3300 1.574 . S
C3292 C3308 1.368 . S
H3293 C3301 0.950 . S
H3294 C3299 0.950 . S
H3295 C3300 0.949 . S
H3296 C3302 0.950 . S
H3297 C3303 0.950 . S
H3298 C3304 0.949 . S
C3299 H3294 0.950 . S
C3299 C3301 1.327 . S
C3299 C3305 1.429 . S
C3300 C3292 1.574 . S
C3300 H3295 0.949 . S
C3300 C3306 1.368 . S
C3301 C3285 1.349 . S
C3301 H3293 0.950 . S
C3301 C3299 1.327 . S
C3302 C3290 1.349 . S
C3302 H3296 0.950 . S
C3302 C3303 1.327 . S
C3303 H3297 0.950 . S
C3303 C3302 1.327 . S
C3303 C3307 1.429 . S
C3304 C3287 1.574 . S
C3304 H3298 0.949 . S
C3304 C3308 1.368 . S
C3305 C3286 1.429 . S
C3305 C3299 1.429 . S
C3305 C3306 1.523 . S
C3306 C3287 1.368 . S
C3306 C3300 1.368 . S
C3306 C3305 1.523 . S
C3307 C3291 1.429 . S
C3307 C3303 1.429 . S
C3307 C3308 1.523 . S
C3308 C3292 1.368 . S
C3308 C3304 1.368 . S
C3308 C3307 1.523 . S
H3309 C3284 0.950 . S
H3310 C3286 0.950 . S
H3311 C3287 0.949 . S
H3312 C3289 0.950 . S
H3313 C3291 0.950 . S
C3314 C3315 1.349 . S
C3314 C3316 1.327 . S
C3314 H3339 0.950 . S
C3315 C3314 1.349 . S
C3315 C3331 1.349 . S
C3316 C3314 1.327 . S
C3316 C3335 1.429 . S
C3316 H3340 0.950 . S
C3317 C3334 1.574 . S
C3317 C3336 1.368 . S
C3317 H3341 0.949 . S
H3318 C3322 0.949 . S
C3319 C3320 1.349 . S
C3319 C3321 1.327 . S
C3319 H3342 0.950 . S
C3320 C3319 1.349 . S
C3320 C3332 1.349 . S
C3321 C3319 1.327 . S
C3321 C3337 1.429 . S
C3321 H3343 0.950 . S
C3322 H3318 0.949 . S
C3322 C3330 1.574 . S
C3322 C3338 1.368 . S
H3323 C3331 0.950 . S
H3324 C3329 0.950 . S
H3325 C3330 0.949 . S
H3326 C3332 0.950 . S
H3327 C3333 0.950 . S
H3328 C3334 0.949 . S
C3329 H3324 0.950 . S
C3329 C3331 1.327 . S
C3329 C3335 1.429 . S
C3330 C3322 1.574 . S
C3330 H3325 0.949 . S
C3330 C3336 1.368 . S
C3331 C3315 1.349 . S
C3331 H3323 0.950 . S
C3331 C3329 1.327 . S
C3332 C3320 1.349 . S
C3332 H3326 0.950 . S
C3332 C3333 1.327 . S
C3333 H3327 0.950 . S
C3333 C3332 1.327 . S
C3333 C3337 1.429 . S
C3334 C3317 1.574 . S
C3334 H3328 0.949 . S
C3334 C3338 1.368 . S
C3335 C3316 1.429 . S
C3335 C3329 1.429 . S
C3335 C3336 1.523 . S
C3336 C3317 1.368 . S
C3336 C3330 1.368 . S
C3336 C3335 1.523 . S
C3337 C3321 1.429 . S
C3337 C3333 1.429 . S
C3337 C3338 1.523 . S
C3338 C3322 1.368 . S
C3338 C3334 1.368 . S
C3338 C3337 1.523 . S
H3339 C3314 0.950 . S
H3340 C3316 0.950 . S
H3341 C3317 0.949 . S
H3342 C3319 0.950 . S
H3343 C3321 0.950 . S
C3344 C3345 1.349 . S
C3344 C3346 1.327 . S
C3344 H3369 0.950 . S
C3345 C3344 1.349 . S
C3345 C3361 1.349 . S
C3346 C3344 1.327 . S
C3346 C3365 1.429 . S
C3346 H3370 0.950 . S
C3347 C3364 1.574 . S
C3347 C3366 1.368 . S
C3347 H3371 0.949 . S
H3348 C3352 0.949 . S
C3349 C3350 1.349 . S
C3349 C3351 1.327 . S
C3349 H3372 0.950 . S
C3350 C3349 1.349 . S
C3350 C3362 1.349 . S
C3351 C3349 1.327 . S
C3351 C3367 1.429 . S
C3351 H3373 0.950 . S
C3352 H3348 0.949 . S
C3352 C3360 1.574 . S
C3352 C3368 1.368 . S
H3353 C3361 0.950 . S
H3354 C3359 0.950 . S
H3355 C3360 0.949 . S
H3356 C3362 0.950 . S
H3357 C3363 0.950 . S
H3358 C3364 0.949 . S
C3359 H3354 0.950 . S
C3359 C3361 1.327 . S
C3359 C3365 1.429 . S
C3360 C3352 1.574 . S
C3360 H3355 0.949 . S
C3360 C3366 1.368 . S
C3361 C3345 1.349 . S
C3361 H3353 0.950 . S
C3361 C3359 1.327 . S
C3362 C3350 1.349 . S
C3362 H3356 0.950 . S
C3362 C3363 1.327 . S
C3363 H3357 0.950 . S
C3363 C3362 1.327 . S
C3363 C3367 1.429 . S
C3364 C3347 1.574 . S
C3364 H3358 0.949 . S
C3364 C3368 1.368 . S
C3365 C3346 1.429 . S
C3365 C3359 1.429 . S
C3365 C3366 1.523 . S
C3366 C3347 1.368 . S
C3366 C3360 1.368 . S
C3366 C3365 1.523 . S
C3367 C3351 1.429 . S
C3367 C3363 1.429 . S
C3367 C3368 1.523 . S
C3368 C3352 1.368 . S
C3368 C3364 1.368 . S
C3368 C3367 1.523 . S
H3369 C3344 0.950 . S
H3370 C3346 0.950 . S
H3371 C3347 0.949 . S
H3372 C3349 0.950 . S
H3373 C3351 0.950 . S
C3374 C3375 1.349 . S
C3374 C3376 1.327 . S
C3374 H3399 0.950 . S
C3375 C3374 1.349 . S
C3375 C3391 1.349 . S
C3376 C3374 1.327 . S
C3376 C3395 1.429 . S
C3376 H3400 0.950 . S
C3377 C3394 1.574 . S
C3377 C3396 1.368 . S
C3377 H3401 0.949 . S
H3378 C3382 0.949 . S
C3379 C3380 1.349 . S
C3379 C3381 1.327 . S
C3379 H3402 0.950 . S
C3380 C3379 1.349 . S
C3380 C3392 1.349 . S
C3381 C3379 1.327 . S
C3381 C3397 1.429 . S
C3381 H3403 0.950 . S
C3382 H3378 0.949 . S
C3382 C3390 1.574 . S
C3382 C3398 1.368 . S
H3383 C3391 0.950 . S
H3384 C3389 0.950 . S
H3385 C3390 0.949 . S
H3386 C3392 0.950 . S
H3387 C3393 0.950 . S
H3388 C3394 0.949 . S
C3389 H3384 0.950 . S
C3389 C3391 1.327 . S
C3389 C3395 1.429 . S
C3390 C3382 1.574 . S
C3390 H3385 0.949 . S
C3390 C3396 1.368 . S
C3391 C3375 1.349 . S
C3391 H3383 0.950 . S
C3391 C3389 1.327 . S
C3392 C3380 1.349 . S
C3392 H3386 0.950 . S
C3392 C3393 1.327 . S
C3393 H3387 0.950 . S
C3393 C3392 1.327 . S
C3393 C3397 1.429 . S
C3394 C3377 1.574 . S
C3394 H3388 0.949 . S
C3394 C3398 1.368 . S
C3395 C3376 1.429 . S
C3395 C3389 1.429 . S
C3395 C3396 1.523 . S
C3396 C3377 1.368 . S
C3396 C3390 1.368 . S
C3396 C3395 1.523 . S
C3397 C3381 1.429 . S
C3397 C3393 1.429 . S
C3397 C3398 1.523 . S
C3398 C3382 1.368 . S
C3398 C3394 1.368 . S
C3398 C3397 1.523 . S
H3399 C3374 0.950 . S
H3400 C3376 0.950 . S
H3401 C3377 0.949 . S
H3402 C3379 0.950 . S
H3403 C3381 0.950 . S
C3404 C3405 1.349 . S
C3404 C3406 1.327 . S
C3404 H3429 0.950 . S
C3405 C3404 1.349 . S
C3405 C3421 1.349 . S
C3406 C3404 1.327 . S
C3406 C3425 1.429 . S
C3406 H3430 0.950 . S
C3407 C3424 1.574 . S
C3407 C3426 1.368 . S
C3407 H3431 0.949 . S
H3408 C3412 0.949 . S
C3409 C3410 1.349 . S
C3409 C3411 1.327 . S
C3409 H3432 0.950 . S
C3410 C3409 1.349 . S
C3410 C3422 1.349 . S
C3411 C3409 1.327 . S
C3411 C3427 1.429 . S
C3411 H3433 0.950 . S
C3412 H3408 0.949 . S
C3412 C3420 1.574 . S
C3412 C3428 1.368 . S
H3413 C3421 0.950 . S
H3414 C3419 0.950 . S
H3415 C3420 0.949 . S
H3416 C3422 0.950 . S
H3417 C3423 0.950 . S
H3418 C3424 0.949 . S
C3419 H3414 0.950 . S
C3419 C3421 1.327 . S
C3419 C3425 1.429 . S
C3420 C3412 1.574 . S
C3420 H3415 0.949 . S
C3420 C3426 1.368 . S
C3421 C3405 1.349 . S
C3421 H3413 0.950 . S
C3421 C3419 1.327 . S
C3422 C3410 1.349 . S
C3422 H3416 0.950 . S
C3422 C3423 1.327 . S
C3423 H3417 0.950 . S
C3423 C3422 1.327 . S
C3423 C3427 1.429 . S
C3424 C3407 1.574 . S
C3424 H3418 0.949 . S
C3424 C3428 1.368 . S
C3425 C3406 1.429 . S
C3425 C3419 1.429 . S
C3425 C3426 1.523 . S
C3426 C3407 1.368 . S
C3426 C3420 1.368 . S
C3426 C3425 1.523 . S
C3427 C3411 1.429 . S
C3427 C3423 1.429 . S
C3427 C3428 1.523 . S
C3428 C3412 1.368 . S
C3428 C3424 1.368 . S
C3428 C3427 1.523 . S
H3429 C3404 0.950 . S
H3430 C3406 0.950 . S
H3431 C3407 0.949 . S
H3432 C3409 0.950 . S
H3433 C3411 0.950 . S
C3434 C3435 1.349 . S
C3434 C3436 1.327 . S
C3434 H3459 0.950 . S
C3435 C3434 1.349 . S
C3435 C3451 1.349 . S
C3436 C3434 1.327 . S
C3436 C3455 1.429 . S
C3436 H3460 0.950 . S
C3437 C3454 1.574 . S
C3437 C3456 1.368 . S
C3437 H3461 0.949 . S
H3438 C3442 0.949 . S
C3439 C3440 1.349 . S
C3439 C3441 1.327 1_455 S
C3439 H3462 0.950 . S
C3440 C3439 1.349 . S
C3440 C3452 1.325 1_455 S
C3441 C3439 1.327 1_655 S
C3441 C3457 1.429 . S
C3441 H3463 0.950 . S
C3442 H3438 0.949 . S
C3442 C3450 1.574 . S
C3442 C3458 1.368 . S
H3443 C3451 0.950 . S
H3444 C3449 0.950 . S
H3445 C3450 0.949 . S
H3446 C3452 0.937 1_455 S
H3447 C3453 0.950 . S
H3448 C3454 0.949 . S
C3449 H3444 0.950 . S
C3449 C3451 1.327 . S
C3449 C3455 1.429 . S
C3450 C3442 1.574 . S
C3450 H3445 0.949 . S
C3450 C3456 1.368 . S
C3451 C3435 1.349 . S
C3451 H3443 0.950 . S
C3451 C3449 1.327 . S
C3452 C3440 1.325 1_655 S
C3452 H3446 0.937 1_655 S
C3452 C3453 1.365 . S
C3453 H3447 0.950 . S
C3453 C3452 1.365 . S
C3453 C3457 1.429 . S
C3454 C3437 1.574 . S
C3454 H3448 0.949 . S
C3454 C3458 1.368 . S
C3455 C3436 1.429 . S
C3455 C3449 1.429 . S
C3455 C3456 1.523 . S
C3456 C3437 1.368 . S
C3456 C3450 1.368 . S
C3456 C3455 1.523 . S
C3457 C3441 1.429 . S
C3457 C3453 1.429 . S
C3457 C3458 1.523 . S
C3458 C3442 1.368 . S
C3458 C3454 1.368 . S
C3458 C3457 1.523 . S
H3459 C3434 0.950 . S
H3460 C3436 0.950 . S
H3461 C3437 0.949 . S
H3462 C3439 0.950 . S
H3463 C3441 0.950 . S
C3464 C3465 1.349 . S
C3464 C3466 1.327 . S
C3464 H3489 0.950 . S
C3465 C3464 1.349 . S
C3465 C3481 1.349 . S
C3466 C3464 1.327 . S
C3466 C3485 1.429 . S
C3466 H3490 0.950 . S
C3467 C3484 1.574 . S
C3467 C3486 1.368 . S
C3467 H3491 0.949 . S
H3468 C3472 0.949 . S
C3469 C3470 1.349 . S
C3469 C3471 1.327 . S
C3469 H3492 0.950 . S
C3470 C3469 1.349 . S
C3470 C3482 1.349 . S
C3471 C3469 1.327 . S
C3471 C3487 1.429 . S
C3471 H3493 0.950 . S
C3472 H3468 0.949 . S
C3472 C3480 1.574 . S
C3472 C3488 1.368 . S
H3473 C3481 0.950 . S
H3474 C3479 0.950 . S
H3475 C3480 0.949 . S
H3476 C3482 0.950 . S
H3477 C3483 0.950 . S
H3478 C3484 0.949 . S
C3479 H3474 0.950 . S
C3479 C3481 1.327 . S
C3479 C3485 1.429 . S
C3480 C3472 1.574 . S
C3480 H3475 0.949 . S
C3480 C3486 1.368 . S
C3481 C3465 1.349 . S
C3481 H3473 0.950 . S
C3481 C3479 1.327 . S
C3482 C3470 1.349 . S
C3482 H3476 0.950 . S
C3482 C3483 1.327 . S
C3483 H3477 0.950 . S
C3483 C3482 1.327 . S
C3483 C3487 1.429 . S
C3484 C3467 1.574 . S
C3484 H3478 0.949 . S
C3484 C3488 1.368 . S
C3485 C3466 1.429 . S
C3485 C3479 1.429 . S
C3485 C3486 1.523 . S
C3486 C3467 1.368 . S
C3486 C3480 1.368 . S
C3486 C3485 1.523 . S
C3487 C3471 1.429 . S
C3487 C3483 1.429 . S
C3487 C3488 1.523 . S
C3488 C3472 1.368 . S
C3488 C3484 1.368 . S
C3488 C3487 1.523 . S
H3489 C3464 0.950 . S
H3490 C3466 0.950 . S
H3491 C3467 0.949 . S
H3492 C3469 0.950 . S
H3493 C3471 0.950 . S
C3494 C3495 1.349 1_655 S
C3494 C3496 1.327 . S
C3494 H3519 0.945 1_655 S
C3495 C3494 1.349 1_455 S
C3495 C3511 1.349 . S
C3496 C3494 1.327 . S
C3496 C3515 1.429 . S
C3496 H3520 0.950 . S
C3497 C3514 1.574 . S
C3497 C3516 1.368 . S
C3497 H3521 0.949 . S
H3498 C3502 0.949 . S
C3499 C3500 1.349 . S
C3499 C3501 1.327 . S
C3499 H3522 0.950 . S
C3500 C3499 1.349 . S
C3500 C3512 1.349 . S
C3501 C3499 1.327 . S
C3501 C3517 1.429 . S
C3501 H3523 0.950 . S
C3502 H3498 0.949 . S
C3502 C3510 1.574 . S
C3502 C3518 1.368 . S
H3503 C3511 0.950 . S
H3504 C3509 0.950 . S
H3505 C3510 0.949 . S
H3506 C3512 0.950 . S
H3507 C3513 0.950 . S
H3508 C3514 0.949 . S
C3509 H3504 0.950 . S
C3509 C3511 1.327 1_655 S
C3509 C3515 1.429 . S
C3510 C3502 1.574 . S
C3510 H3505 0.949 . S
C3510 C3516 1.368 . S
C3511 C3495 1.349 . S
C3511 H3503 0.950 . S
C3511 C3509 1.327 1_455 S
C3512 C3500 1.349 . S
C3512 H3506 0.950 . S
C3512 C3513 1.327 . S
C3513 H3507 0.950 . S
C3513 C3512 1.327 . S
C3513 C3517 1.429 . S
C3514 C3497 1.574 . S
C3514 H3508 0.949 . S
C3514 C3518 1.368 . S
C3515 C3496 1.429 . S
C3515 C3509 1.429 . S
C3515 C3516 1.523 . S
C3516 C3497 1.368 . S
C3516 C3510 1.368 . S
C3516 C3515 1.523 . S
C3517 C3501 1.429 . S
C3517 C3513 1.429 . S
C3517 C3518 1.523 . S
C3518 C3502 1.368 . S
C3518 C3514 1.368 . S
C3518 C3517 1.523 . S
H3519 C3494 0.945 1_455 S
H3520 C3496 0.950 . S
H3521 C3497 0.949 . S
H3522 C3499 0.950 . S
H3523 C3501 0.950 . S
C3524 C3525 1.349 . S
C3524 C3526 1.327 . S
C3524 H3549 0.950 . S
C3525 C3524 1.349 . S
C3525 C3541 1.349 . S
C3526 C3524 1.327 . S
C3526 C3545 1.429 . S
C3526 H3550 0.950 . S
C3527 C3544 1.574 . S
C3527 C3546 1.368 . S
C3527 H3551 0.949 . S
H3528 C3532 0.949 . S
C3529 C3530 1.349 . S
C3529 C3531 1.327 . S
C3529 H3552 0.950 . S
C3530 C3529 1.349 . S
C3530 C3542 1.349 . S
C3531 C3529 1.327 . S
C3531 C3547 1.429 . S
C3531 H3553 0.950 . S
C3532 H3528 0.949 . S
C3532 C3540 1.574 . S
C3532 C3548 1.368 . S
H3533 C3541 0.950 . S
H3534 C3539 0.950 . S
H3535 C3540 0.949 . S
H3536 C3542 0.950 . S
H3537 C3543 0.950 . S
H3538 C3544 0.949 . S
C3539 H3534 0.950 . S
C3539 C3541 1.327 . S
C3539 C3545 1.429 . S
C3540 C3532 1.574 . S
C3540 H3535 0.949 . S
C3540 C3546 1.368 . S
C3541 C3525 1.349 . S
C3541 H3533 0.950 . S
C3541 C3539 1.327 . S
C3542 C3530 1.349 . S
C3542 H3536 0.950 . S
C3542 C3543 1.327 . S
C3543 H3537 0.950 . S
C3543 C3542 1.327 . S
C3543 C3547 1.429 . S
C3544 C3527 1.574 . S
C3544 H3538 0.949 . S
C3544 C3548 1.368 . S
C3545 C3526 1.429 . S
C3545 C3539 1.429 . S
C3545 C3546 1.523 . S
C3546 C3527 1.368 . S
C3546 C3540 1.368 . S
C3546 C3545 1.523 . S
C3547 C3531 1.429 . S
C3547 C3543 1.429 . S
C3547 C3548 1.523 . S
C3548 C3532 1.368 . S
C3548 C3544 1.368 . S
C3548 C3547 1.523 . S
H3549 C3524 0.950 . S
H3550 C3526 0.950 . S
H3551 C3527 0.949 . S
H3552 C3529 0.950 . S
H3553 C3531 0.950 . S
C3554 C3555 1.349 . S
C3554 C3556 1.327 . S
C3554 H3579 0.950 . S
C3555 C3554 1.349 . S
C3555 C3571 1.349 . S
C3556 C3554 1.327 . S
C3556 C3575 1.429 . S
C3556 H3580 0.950 . S
C3557 C3574 1.574 . S
C3557 C3576 1.368 . S
C3557 H3581 0.949 . S
H3558 C3562 0.949 . S
C3559 C3560 1.349 . S
C3559 C3561 1.327 . S
C3559 H3582 0.950 . S
C3560 C3559 1.349 . S
C3560 C3572 1.349 . S
C3561 C3559 1.327 . S
C3561 C3577 1.429 . S
C3561 H3583 0.950 . S
C3562 H3558 0.949 . S
C3562 C3570 1.574 . S
C3562 C3578 1.368 . S
H3563 C3571 0.950 . S
H3564 C3569 0.950 . S
H3565 C3570 0.949 . S
H3566 C3572 0.950 . S
H3567 C3573 0.950 . S
H3568 C3574 0.949 . S
C3569 H3564 0.950 . S
C3569 C3571 1.327 . S
C3569 C3575 1.429 . S
C3570 C3562 1.574 . S
C3570 H3565 0.949 . S
C3570 C3576 1.368 . S
C3571 C3555 1.349 . S
C3571 H3563 0.950 . S
C3571 C3569 1.327 . S
C3572 C3560 1.349 . S
C3572 H3566 0.950 . S
C3572 C3573 1.327 . S
C3573 H3567 0.950 . S
C3573 C3572 1.327 . S
C3573 C3577 1.429 . S
C3574 C3557 1.574 . S
C3574 H3568 0.949 . S
C3574 C3578 1.368 . S
C3575 C3556 1.429 . S
C3575 C3569 1.429 . S
C3575 C3576 1.523 . S
C3576 C3557 1.368 . S
C3576 C3570 1.368 . S
C3576 C3575 1.523 . S
C3577 C3561 1.429 . S
C3577 C3573 1.429 . S
C3577 C3578 1.523 . S
C3578 C3562 1.368 . S
C3578 C3574 1.368 . S
C3578 C3577 1.523 . S
H3579 C3554 0.950 . S
H3580 C3556 0.950 . S
H3581 C3557 0.949 . S
H3582 C3559 0.950 . S
H3583 C3561 0.950 . S
C705 C675 0.660 . S
C710 C18 0.661 . S
C735 C40 0.661 . S
C740 C337 0.660 . S
C765 C623 0.660 . S
C770 C52 0.661 . S
C795 C301 0.660 . S
C800 C76 0.661 1_556 S
C825 C587 0.660 . S
C830 C98 0.661 . S
C855 C257 0.660 . S
C860 C118 0.661 . S
C885 C543 0.660 . S
C890 C140 0.661 . S
C915 C205 0.660 . S
C920 C164 0.661 1_554 S
C945 C184 0.669 . S
C950 C499 0.667 . S
C975 C206 0.669 . S
C980 C161 0.667 . S
C1005 C447 0.667 . S
C1010 C228 0.669 . S
C1035 C260 0.669 1_554 S
C1040 C125 0.667 . S
C1065 C272 0.669 . S
C1070 C403 0.667 . S
C1095 C304 0.669 . S
C1100 C73 0.667 . S
C1125 C373 0.667 . S
C1130 C326 0.669 . S
C1155 C43 0.667 . S
C1160 C338 0.669 1_556 S
C1185 C370 0.661 . S
C1190 C323 0.660 . S
C1215 C689 0.660 . S
C1220 C384 0.661 1_556 S
C1245 C271 0.660 . S
C1250 C406 0.661 . S
C1275 C436 0.661 . S
C1280 C653 0.660 . S
C1305 C450 0.661 . S
C1310 C227 0.660 . S
C1335 C470 0.661 1_554 S
C1340 C609 0.660 . S
C1365 C492 0.661 . S
C1370 C183 0.660 . S
C1395 C514 0.661 . S
C1400 C557 0.660 . S
C1425 C546 0.669 . S
C1430 C147 0.667 . S
C1455 C521 0.667 . S
C1460 C558 0.669 1_554 S
C1485 C590 0.669 . S
C1490 C95 0.667 . S
C1515 C612 0.669 . S
C1520 C477 0.667 . S
C1545 C624 0.669 . S
C1550 C59 0.667 . S
C1575 C439 0.667 . S
C1580 C656 0.669 1_556 S
C1605 C678 0.669 . S
C1610 C21 0.667 . S
C1635 C690 0.669 . S
C1640 C381 0.667 . S
C1665 C162 1.107 . S
C1670 C10 1.107 . S
C1695 C32 1.107 . S
C1700 C96 1.107 . S
C1725 C128 1.107 . S
C1730 C62 1.107 . S
C1755 C150 1.107 . S
C1760 C74 1.107 . S
C1785 C340 1.080 . S
C1790 C186 1.080 . S
C1815 C208 1.080 . S
C1820 C274 1.080 . S
C1845 C230 1.080 . S
C1850 C294 1.080 . S
C1875 C250 1.080 . S
C1880 C316 1.080 . S
C1905 C524 1.107 . S
C1910 C362 1.107 . S
C1935 C448 1.107 . S
C1940 C382 1.107 . S
C1965 C404 1.107 . S
C1970 C480 1.107 . S
C1995 C502 1.107 . S
C2000 C428 1.107 . S
C2025 C536 1.080 . S
C2030 C692 1.080 . S
C2055 C626 1.080 . S
C2060 C560 1.080 . S
C2085 C646 1.080 . S
C2090 C580 1.080 . S
C2115 C668 1.080 . S
C2120 C602 1.080 . S
C2145 C142 1.410 . S
C2150 C8 1.410 . S
C2175 C172 1.410 . S
C2180 C30 1.410 . S
C2205 C106 1.410 . S
C2210 C54 1.410 . S
C2235 C84 1.410 . S
C2240 C120 1.410 . S
C2265 C194 1.420 . S
C2270 C318 1.420 . S
C2295 C348 1.420 . S
C2300 C216 1.420 . S
C2325 C282 1.420 . S
C2330 C238 1.420 . S
C2355 C296 1.420 . S
C2360 C252 1.420 . S
C2385 C494 1.410 . S
C2390 C360 1.410 . S
C2415 C392 1.410 . S
C2420 C516 1.410 . S
C2445 C458 1.410 . S
C2450 C414 1.410 . S
C2475 C426 1.410 . S
C2480 C472 1.410 . S
C2505 C670 1.420 . S
C2510 C538 1.420 . S
C2535 C700 1.420 . S
C2540 C568 1.420 . S
C2565 C634 1.420 . S
C2570 C582 1.420 . S
C2595 C604 1.420 . S
C2600 C648 1.420 . S
C2625 C615 1.255 . S
C2630 C7 1.266 . S
C2655 C191 1.255 . S
C2660 C29 1.266 . S
C2685 C65 1.266 . S
C2690 C565 1.255 . S
C2715 C235 1.255 . S
C2720 C81 1.266 . S
C2745 C659 1.255 . S
C2750 C103 1.266 . S
C2775 C131 1.266 . S
C2780 C329 1.255 . S
C2805 C153 1.266 . S
C2810 C697 1.255 . S
C2835 C279 1.255 . S
C2840 C169 1.266 . S
C2865 C197 1.274 . S
C2870 C433 1.258 . S
C2895 C15 1.258 . S
C2900 C219 1.274 . S
C2925 C395 1.258 . S
C2930 C241 1.274 . S
C2955 C51 1.258 . S
C2960 C249 1.274 . S
C2985 C285 1.274 . S
C2990 C469 1.258 . S
C3015 C293 1.274 . S
C3020 C139 1.258 . S
C3045 C315 1.274 . S
C3050 C513 1.258 . S
C3075 C109 1.258 . S
C3080 C351 1.274 . S
C3105 C263 1.255 . S
C3110 C359 1.266 . S
C3135 C549 1.255 . S
C3140 C389 1.266 . S
C3165 C411 1.266 . S
C3170 C213 1.255 . S
C3195 C593 1.255 . S
C3200 C425 1.266 . S
C3225 C307 1.255 . S
C3230 C455 1.266 . S
C3255 C681 1.255 . S
C3260 C483 1.266 . S
C3285 C345 1.255 . S
C3290 C505 1.266 . S
C3315 C527 1.266 . S
C3320 C631 1.255 . S
C3345 C87 1.258 . S
C3350 C535 1.274 . S
C3375 C571 1.274 . S
C3380 C367 1.258 . S
C3405 C579 1.274 . S
C3410 C37 1.258 . S
C3435 C417 1.258 . S
C3440 C601 1.274 . S
C3465 C637 1.274 . S
C3470 C117 1.258 . S
C3495 C645 1.274 . S
C3500 C491 1.258 . S
C3525 C175 1.258 . S
C3530 C667 1.274 . S
C3555 C703 1.274 . S
C3560 C461 1.258 . S
