# Generated by pormake.
# Topology npo, (4)-cn, num edge types: 1
# Building blocks:
#     Node 0, Type 0, BuildingBlock: QUQFOY_clean_sbu_3, # of connection points: 4
#     Node 1, Type 0, BuildingBlock: QUQFOY_clean_sbu_3, # of connection points: 4
#     Node 2, Type 0, BuildingBlock: QUQFOY_clean_sbu_3, # of connection points: 4
#     Node 3, Type 0, BuildingBlock: QUQFOY_clean_sbu_3, # of connection points: 4
#     Node 4, Type 0, BuildingBlock: QUQFOY_clean_sbu_3, # of connection points: 4
#     Node 5, Type 0, BuildingBlock: QUQFOY_clean_sbu_3, # of connection points: 4
#     Edge 6, Type (0, 0), BuildingBlock: ZUJKAS_clean_linker_0, # of connection points: 2
#     Edge 7, Type (0, 0), BuildingBlock: ZUJKAS_clean_linker_0, # of connection points: 2
#     Edge 8, Type (0, 0), BuildingBlock: ZUJKAS_clean_linker_0, # of connection points: 2
#     Edge 9, Type (0, 0), BuildingBlock: ZUJKAS_clean_linker_0, # of connection points: 2
#     Edge 10, Type (0, 0), BuildingBlock: ZUJKAS_clean_linker_0, # of connection points: 2
#     Edge 11, Type (0, 0), BuildingBlock: ZUJKAS_clean_linker_0, # of connection points: 2
#     Edge 12, Type (0, 0), BuildingBlock: ZUJKAS_clean_linker_0, # of connection points: 2
#     Edge 13, Type (0, 0), BuildingBlock: ZUJKAS_clean_linker_0, # of connection points: 2
#     Edge 14, Type (0, 0), BuildingBlock: ZUJKAS_clean_linker_0, # of connection points: 2
#     Edge 15, Type (0, 0), BuildingBlock: ZUJKAS_clean_linker_0, # of connection points: 2
#     Edge 16, Type (0, 0), BuildingBlock: ZUJKAS_clean_linker_0, # of connection points: 2
#     Edge 17, Type (0, 0), BuildingBlock: ZUJKAS_clean_linker_0, # of connection points: 2
# Relax obj value: 0.290
# Max RMSD: 0.250
# Mean RMSD: 0.240
data_MOF--net-npo--node1-QUQFOY_clean_sbu_3--edge1-ZUJKAS_clean_linker_0
_symmetry_space_group_name_H-M    P1
_symmetry_Int_Tables_number       1
_symmetry_cell_setting            triclinic
loop_
_symmetry_equiv_pos_as_xyz
'x, y, z'
_cell_length_a     58.059003
_cell_length_b     57.35396
_cell_length_c     31.9901561
_cell_angle_alpha  91.664905
_cell_angle_beta   89.791681
_cell_angle_gamma 120.40349
loop_
_atom_site_label
_atom_site_type_symbol
_atom_site_fract_x
_atom_site_fract_y
_atom_site_fract_z
_atom_type_partial_charge
C0 C 0.51998 0.15294 0.20851 0.0
O1 O 0.52192 0.14811 0.1701 0.0
Cd2 Cd 0.54554 0.12654 0.14651 0.0
O3 O 0.52761 0.14317 0.2371 0.0
Cd4 Cd 0.54335 0.10987 0.24257 0.0
C5 C 0.60247 0.15974 0.20976 0.0
O6 O 0.52366 0.08412 0.17884 0.0
O7 O 0.55401 0.078 0.20572 0.0
O8 O 0.50793 0.08321 0.29139 0.0
C9 C 0.53657 0.07179 0.17723 0.0
O10 O 0.59107 0.15608 0.17423 0.0
C11 C 0.52332 0.0829 0.31919 0.0
O12 O 0.58972 0.1458 0.24088 0.0
O13 O 0.54819 0.0959 0.31186 0.0
C14 C 0.36246 0.5015 0.73388 0.0
O15 O 0.37141 0.50096 0.69781 0.0
Cd16 Cd 0.418 0.52038 0.68407 0.0
O17 O 0.37821 0.51127 0.76548 0.0
Cd18 Cd 0.42618 0.531 0.78388 0.0
C19 C 0.44032 0.58459 0.72455 0.0
O20 O 0.43487 0.50305 0.73584 0.0
O21 O 0.46957 0.5364 0.76585 0.0
O22 O 0.41193 0.50536 0.84762 0.0
C23 C 0.45996 0.5157 0.74154 0.0
O24 O 0.43468 0.5691 0.6922 0.0
C25 C 0.42684 0.52536 0.87182 0.0
O26 O 0.43836 0.57572 0.76114 0.0
O27 O 0.44121 0.54801 0.85503 0.0
C28 C 0.86005 0.48096 0.23841 0.0
O29 O 0.87229 0.48437 0.27287 0.0
Cd30 Cd 0.89809 0.46308 0.28325 0.0
O31 O 0.86419 0.46947 0.20694 0.0
Cd32 Cd 0.89363 0.45194 0.18383 0.0
C33 C 0.8546 0.3987 0.2429 0.0
O34 O 0.93131 0.47925 0.22988 0.0
O35 O 0.93127 0.4453 0.19927 0.0
O36 O 0.90365 0.47929 0.12224 0.0
C37 C 0.94304 0.46592 0.22367 0.0
O38 O 0.86474 0.41448 0.27489 0.0
C39 C 0.89839 0.46004 0.09618 0.0
O40 O 0.86145 0.40717 0.20607 0.0
O41 O 0.89086 0.43699 0.11101 0.0
C42 C 0.35574 0.83373 0.773 0.0
O43 O 0.36285 0.83557 0.81102 0.0
Cd44 Cd 0.40774 0.85673 0.8355 0.0
O45 O 0.37309 0.84548 0.74467 0.0
Cd46 Cd 0.4226 0.87654 0.74004 0.0
C47 C 0.43074 0.82482 0.7682 0.0
O48 O 0.42892 0.90017 0.80617 0.0
O49 O 0.46523 0.90693 0.77738 0.0
O50 O 0.4164 0.906 0.69361 0.0
C51 C 0.45415 0.91225 0.80738 0.0
O52 O 0.42356 0.82791 0.80464 0.0
C53 C 0.43159 0.90568 0.66521 0.0
O54 O 0.43168 0.83943 0.73827 0.0
O55 O 0.44198 0.89115 0.67115 0.0
C56 C 0.61758 0.48492 0.23393 0.0
O57 O 0.60911 0.48672 0.19834 0.0
Cd58 Cd 0.56266 0.46853 0.1838 0.0
O59 O 0.6019 0.47586 0.26492 0.0
Cd60 Cd 0.55498 0.46164 0.28307 0.0
C61 C 0.53585 0.40484 0.22428 0.0
O62 O 0.54891 0.4901 0.23525 0.0
O63 O 0.51308 0.45959 0.2641 0.0
O64 O 0.5715 0.48886 0.34785 0.0
C65 C 0.52397 0.4795 0.24019 0.0
O66 O 0.54265 0.41933 0.19205 0.0
C67 C 0.55551 0.46995 0.37111 0.0
O68 O 0.53862 0.41531 0.2608 0.0
O69 O 0.53958 0.44732 0.35328 0.0
C70 C 0.12141 0.50585 0.74539 0.0
O71 O 0.11272 0.51027 0.77942 0.0
Cd72 Cd 0.08215 0.52658 0.78343 0.0
O73 O 0.11358 0.50955 0.7103 0.0
Cd74 Cd 0.08254 0.52389 0.68412 0.0
C75 C 0.11866 0.58575 0.73246 0.0
O76 O 0.04764 0.49875 0.73326 0.0
O77 O 0.04183 0.52656 0.69761 0.0
O78 O 0.0719 0.49327 0.62288 0.0
C79 C 0.03272 0.50802 0.72404 0.0
O80 O 0.10892 0.57474 0.76712 0.0
C81 C 0.07635 0.5113 0.5967 0.0
O82 O 0.11313 0.57148 0.69884 0.0
O83 O 0.08371 0.53485 0.61143 0.0
H84 H 0.54405 0.19552 0.26348 0.0
H85 H 0.53671 0.23376 0.26933 0.0
H86 H 0.46933 0.19266 0.1841 0.0
H87 H 0.47822 0.15538 0.17564 0.0
H88 H 0.49724 0.23893 0.15908 0.0
H89 H 0.48954 0.25303 0.32799 0.0
H90 H 0.52011 0.25333 0.31903 0.0
H91 H 0.48858 0.22315 0.30645 0.0
C92 C 0.52723 0.19439 0.24698 0.0
C93 C 0.5116 0.1726 0.21929 0.0
C94 C 0.52288 0.21619 0.25053 0.0
C95 C 0.50214 0.21607 0.22773 0.0
C96 C 0.48547 0.19335 0.20202 0.0
H97 H 0.49624 0.36471 0.26829 0.0
H98 H 0.48233 0.31666 0.26566 0.0
C99 C 0.49042 0.17199 0.19737 0.0
C100 C 0.50011 0.24089 0.22653 0.0
H101 H 0.50685 0.29387 0.28727 0.0
C102 C 0.4987 0.25058 0.18729 0.0
C103 C 0.50134 0.25602 0.26308 0.0
C104 C 0.49964 0.24559 0.30642 0.0
C105 C 0.49998 0.2755 0.18352 0.0
C106 C 0.50432 0.292 0.21981 0.0
C107 C 0.50416 0.28164 0.25919 0.0
C108 C 0.51042 0.32045 0.21775 0.0
C109 C 0.49655 0.28365 0.14058 0.0
C110 C 0.53054 0.33865 0.19128 0.0
C111 C 0.53778 0.36589 0.19172 0.0
C112 C 0.52583 0.37564 0.21987 0.0
C113 C 0.50571 0.35757 0.24627 0.0
C114 C 0.49784 0.33017 0.24486 0.0
H115 H 0.48299 0.2656 0.12076 0.0
H116 H 0.48832 0.29741 0.1421 0.0
H117 H 0.51619 0.294 0.12493 0.0
H118 H 0.54136 0.33206 0.17125 0.0
H119 H 0.5537 0.37958 0.17163 0.0
H120 H 0.33574 0.4977 0.80636 0.0
H121 H 0.29023 0.48926 0.81319 0.0
H122 H 0.27942 0.47835 0.67927 0.0
H123 H 0.32459 0.48617 0.67215 0.0
H124 H 0.27475 0.52197 0.78014 0.0
H125 H 0.20873 0.41739 0.71864 0.0
H126 H 0.24314 0.43005 0.73347 0.0
H127 H 0.23496 0.43751 0.68325 0.0
C128 C 0.32349 0.49293 0.77841 0.0
C129 C 0.33388 0.49279 0.73868 0.0
C130 C 0.29748 0.48807 0.7824 0.0
C131 C 0.28134 0.4829 0.74679 0.0
C132 C 0.29127 0.48166 0.70726 0.0
H133 H 0.14684 0.49744 0.67942 0.0
H134 H 0.18395 0.48878 0.68252 0.0
C135 C 0.31722 0.48637 0.70324 0.0
C136 C 0.25562 0.4823 0.7504 0.0
H137 H 0.18968 0.44618 0.72197 0.0
C138 C 0.25605 0.5052 0.76808 0.0
C139 C 0.23133 0.46048 0.73433 0.0
C140 C 0.22941 0.43486 0.71673 0.0
C141 C 0.23307 0.50732 0.76878 0.0
C142 C 0.20893 0.48579 0.75184 0.0
C143 C 0.20828 0.46263 0.73489 0.0
C144 C 0.18453 0.48771 0.75001 0.0
C145 C 0.23502 0.53303 0.78619 0.0
C146 C 0.1722 0.48919 0.78692 0.0
C147 C 0.1511 0.49424 0.78533 0.0
C148 C 0.14191 0.49779 0.74672 0.0
C149 C 0.15352 0.49497 0.70966 0.0
C150 C 0.17465 0.48994 0.71133 0.0
H151 H 0.25608 0.54962 0.79041 0.0
H152 H 0.22457 0.53993 0.76528 0.0
H153 H 0.22527 0.52913 0.81714 0.0
H154 H 0.1794 0.48718 0.81703 0.0
H155 H 0.14247 0.49604 0.81445 0.0
H156 H 0.6284 0.2073 0.16999 0.0
H157 H 0.67456 0.24357 0.18034 0.0
H158 H 0.68677 0.1962 0.27062 0.0
H159 H 0.63985 0.16052 0.2623 0.0
H160 H 0.70958 0.24467 0.29844 0.0
H161 H 0.74022 0.24993 0.13451 0.0
H162 H 0.71226 0.25499 0.13689 0.0
H163 H 0.70847 0.22313 0.152 0.0
C164 C 0.641 0.20457 0.19182 0.0
C165 C 0.63068 0.18107 0.21511 0.0
C166 C 0.66748 0.2252 0.19745 0.0
C167 C 0.6845 0.22234 0.22528 0.0
C168 C 0.67415 0.19882 0.24869 0.0
H169 H 0.84973 0.3535 0.2048 0.0
H170 H 0.81133 0.30748 0.2068 0.0
C171 C 0.64738 0.17845 0.24391 0.0
C172 C 0.71263 0.24452 0.23122 0.0
H173 H 0.76649 0.29064 0.17734 0.0
C174 C 0.72223 0.25441 0.27197 0.0
C175 C 0.72963 0.25679 0.19697 0.0
C176 C 0.72217 0.24538 0.15276 0.0
C177 C 0.74769 0.27714 0.27919 0.0
C178 C 0.76343 0.2912 0.24462 0.0
C179 C 0.7544 0.28034 0.20403 0.0
C180 C 0.78846 0.31792 0.24918 0.0
C181 C 0.75731 0.28556 0.32382 0.0
C182 C 0.78888 0.33908 0.27319 0.0
C183 C 0.81125 0.36509 0.27331 0.0
C184 C 0.83313 0.37063 0.24808 0.0
C185 C 0.83302 0.34956 0.22456 0.0
C186 C 0.81105 0.32334 0.22561 0.0
H187 H 0.74908 0.26768 0.34395 0.0
H188 H 0.77943 0.29646 0.32634 0.0
H189 H 0.75007 0.29894 0.33629 0.0
H190 H 0.77147 0.33589 0.29035 0.0
H191 H 0.81078 0.38121 0.29109 0.0
H192 H 0.40917 0.77665 0.80595 0.0
H193 H 0.41885 0.74043 0.7929 0.0
H194 H 0.4774 0.78858 0.70141 0.0
H195 H 0.46638 0.82432 0.71255 0.0
H196 H 0.45155 0.74001 0.67308 0.0
H197 H 0.47901 0.73443 0.83519 0.0
H198 H 0.44599 0.72942 0.83476 0.0
H199 H 0.47382 0.76127 0.81892 0.0
C200 C 0.42422 0.77956 0.78323 0.0
C201 C 0.43722 0.80334 0.76053 0.0
C202 C 0.42994 0.75895 0.77605 0.0
C203 C 0.44953 0.76207 0.7472 0.0
C204 C 0.46241 0.78578 0.72416 0.0
H205 H 0.4815 0.62925 0.76215 0.0
H206 H 0.49019 0.67569 0.7609 0.0
C207 C 0.45613 0.80617 0.73053 0.0
C208 C 0.45553 0.73999 0.74009 0.0
H209 H 0.46351 0.69353 0.7921 0.0
C210 C 0.45471 0.73016 0.69906 0.0
C211 C 0.46064 0.72762 0.77366 0.0
C212 C 0.46525 0.73901 0.81797 0.0
C213 C 0.4571 0.70728 0.691 0.0
C214 C 0.45901 0.69304 0.72503 0.0
C215 C 0.46152 0.70393 0.76581 0.0
C216 C 0.45668 0.66605 0.71981 0.0
C217 C 0.45767 0.69886 0.64606 0.0
C218 C 0.43546 0.64518 0.69627 0.0
C219 C 0.43121 0.61893 0.69568 0.0
C220 C 0.4474 0.61285 0.72003 0.0
C221 C 0.46881 0.63361 0.7431 0.0
C222 C 0.47368 0.66007 0.74246 0.0
H223 H 0.4674 0.71679 0.62603 0.0
H224 H 0.4685 0.68759 0.64261 0.0
H225 H 0.43689 0.68584 0.63421 0.0
H226 H 0.42135 0.6488 0.67987 0.0
H227 H 0.41429 0.60306 0.67824 0.0
H228 H 0.66154 0.52515 0.19672 0.0
H229 H 0.70729 0.53356 0.20011 0.0
H230 H 0.68142 0.46648 0.28213 0.0
H231 H 0.63629 0.45946 0.28128 0.0
H232 H 0.72779 0.50367 0.30567 0.0
H233 H 0.73105 0.49106 0.13356 0.0
H234 H 0.72724 0.51922 0.14873 0.0
H235 H 0.70123 0.48532 0.15978 0.0
C236 C 0.66582 0.51248 0.21583 0.0
C237 C 0.64548 0.49156 0.23851 0.0
C238 C 0.69187 0.5171 0.21743 0.0
C239 C 0.69769 0.5001 0.24026 0.0
C240 C 0.67748 0.47981 0.2641 0.0
H241 H 0.81462 0.45558 0.19158 0.0
H242 H 0.7774 0.4639 0.19285 0.0
C243 C 0.65168 0.47577 0.2636 0.0
C244 C 0.72443 0.5026 0.23854 0.0
H245 H 0.77001 0.50194 0.17158 0.0
C246 C 0.73703 0.50328 0.27633 0.0
C247 C 0.73642 0.5019 0.20022 0.0
C248 C 0.72318 0.49906 0.15832 0.0
C249 C 0.7606 0.50213 0.27698 0.0
C250 C 0.77277 0.50181 0.23866 0.0
C251 C 0.76078 0.50232 0.20093 0.0
C252 C 0.79637 0.49821 0.23659 0.0
C253 C 0.77118 0.49968 0.31869 0.0
C254 C 0.81976 0.51506 0.26 0.0
C255 C 0.84078 0.50976 0.26027 0.0
C256 C 0.83914 0.48822 0.23582 0.0
C257 C 0.81644 0.4724 0.21056 0.0
C258 C 0.79516 0.47717 0.21129 0.0
H259 H 0.75562 0.49265 0.34314 0.0
H260 H 0.77868 0.48532 0.31643 0.0
H261 H 0.78785 0.51979 0.32919 0.0
H262 H 0.82163 0.53202 0.27856 0.0
H263 H 0.85826 0.52244 0.27963 0.0
H264 H 0.33344 0.81606 0.69461 0.0
H265 H 0.28781 0.77983 0.67773 0.0
H266 H 0.26856 0.7733 0.8088 0.0
H267 H 0.31364 0.80957 0.82583 0.0
H268 H 0.26936 0.72942 0.70553 0.0
H269 H 0.20114 0.76479 0.75794 0.0
H270 H 0.23628 0.78774 0.74962 0.0
H271 H 0.22504 0.77023 0.79796 0.0
C272 C 0.31926 0.80744 0.7197 0.0
C273 C 0.32726 0.81552 0.7616 0.0
C274 C 0.2932 0.78675 0.71 0.0
C275 C 0.2747 0.77405 0.74196 0.0
C276 C 0.28225 0.78318 0.78352 0.0
H277 H 0.14143 0.62191 0.79861 0.0
H278 H 0.17721 0.66922 0.79601 0.0
C279 C 0.3082 0.80378 0.79323 0.0
C280 C 0.2491 0.7487 0.73311 0.0
H281 H 0.1825 0.71615 0.75471 0.0
C282 C 0.25026 0.72666 0.71536 0.0
C283 C 0.22426 0.74512 0.74629 0.0
C284 C 0.22156 0.76834 0.76363 0.0
C285 C 0.22753 0.70078 0.7126 0.0
C286 C 0.2029 0.69696 0.72736 0.0
C287 C 0.20147 0.71918 0.7436 0.0
C288 C 0.17894 0.66967 0.72845 0.0
C289 C 0.23039 0.67746 0.69598 0.0
C290 C 0.16756 0.65462 0.69129 0.0
C291 C 0.14729 0.62758 0.69264 0.0
C292 C 0.13789 0.61517 0.73124 0.0
C293 C 0.1483 0.6308 0.7684 0.0
C294 C 0.16868 0.65785 0.76698 0.0
H295 H 0.25164 0.68293 0.69368 0.0
H296 H 0.21989 0.65978 0.71632 0.0
H297 H 0.22125 0.67126 0.66424 0.0
H298 H 0.17496 0.66355 0.66125 0.0
H299 H 0.1395 0.61623 0.6634 0.0
H300 H 0.50846 0.941 0.81952 0.0
H301 H 0.5329 0.96688 0.88289 0.0
H302 H 0.45824 0.94521 0.94256 0.0
H303 H 0.43383 0.91949 0.87995 0.0
H304 H 0.5304 0.01077 0.92113 0.0
H305 H 0.49831 0.9269 0.03261 0.0
H306 H 0.49613 0.92175 0.97363 0.0
H307 H 0.47063 0.92466 0.00418 0.0
C308 C 0.49732 0.94169 0.84627 0.0
C309 C 0.46925 0.92821 0.84485 0.0
C310 C 0.51127 0.95637 0.88238 0.0
C311 C 0.4973 0.95739 0.91758 0.0
C312 C 0.46934 0.94407 0.91605 0.0
H313 H 0.50657 0.06254 0.10712 0.0
H314 H 0.5038 0.03578 0.04481 0.0
C315 C 0.45544 0.9296 0.88008 0.0
C316 C 0.51152 0.97391 0.95521 0.0
H317 H 0.51087 0.97084 0.0643 0.0
C318 C 0.52678 0.00205 0.95178 0.0
C319 C 0.50716 0.96243 -0.00218 0.0
C320 C 0.49239 0.93224 0.00299 0.0
C321 C 0.53567 0.01914 -0.00968 0.0
C322 C 0.52881 0.00769 0.0302 0.0
C323 C 0.51577 0.97954 0.0336 0.0
C324 C 0.53154 0.02432 0.06795 0.0
C325 C 0.55116 0.04934 0.98239 0.0
C326 C 0.5475 0.02605 0.10206 0.0
C327 C 0.54911 0.04136 0.13798 0.0
C328 C 0.53446 0.05478 0.1403 0.0
C329 C 0.51815 0.05251 0.10628 0.0
C330 C 0.51671 0.03743 0.07049 0.0
H331 H 0.56191 0.05464 0.95221 0.0
H332 H 0.53709 0.05708 0.98253 0.0
H333 H 0.56583 0.05971 0.01114 0.0
H334 H 0.55879 0.01572 0.10075 0.0
H335 H 0.56178 0.04272 0.1638 0.0
H336 H 0.51692 0.4369 0.42453 0.0
H337 H 0.51178 0.44665 0.49753 0.0
H338 H 0.58653 0.52221 0.49396 0.0
H339 H 0.59132 0.51305 0.42012 0.0
H340 H 0.54038 0.45708 0.56984 0.0
H341 H 0.53503 0.54733 0.52466 0.0
H342 H 0.53473 0.52349 0.48642 0.0
H343 H 0.56551 0.54812 0.51173 0.0
C344 C 0.53241 0.45549 0.43934 0.0
C345 C 0.55429 0.47444 0.41647 0.0
C346 C 0.5295 0.46098 0.48113 0.0
C347 C 0.54851 0.48539 0.50089 0.0
C348 C 0.57131 0.50357 0.47895 0.0
H349 H 0.51402 0.54666 0.73242 0.0
H350 H 0.54135 0.53962 0.68078 0.0
C351 C 0.57405 0.49826 0.43687 0.0
C352 C 0.54301 0.49242 0.54317 0.0
H353 H 0.52693 0.53513 0.59448 0.0
C354 C 0.53783 0.47438 0.57547 0.0
C355 C 0.53969 0.51502 0.55039 0.0
C356 C 0.5438 0.53451 0.51647 0.0
C357 C 0.52827 0.47768 0.61421 0.0
C358 C 0.52382 0.49953 0.62061 0.0
C359 C 0.53053 0.51847 0.58934 0.0
C360 C 0.50896 0.50134 0.65686 0.0
C361 C 0.5222 0.45735 0.64753 0.0
C362 C 0.48183 0.48194 0.66071 0.0
C363 C 0.46612 0.48601 0.68972 0.0
C364 C 0.47732 0.50959 0.71535 0.0
C365 C 0.50484 0.52829 0.71303 0.0
C366 C 0.5205 0.52431 0.68369 0.0
H367 H 0.53367 0.44679 0.64286 0.0
H368 H 0.52683 0.46723 0.67919 0.0
H369 H 0.50061 0.44191 0.64607 0.0
H370 H 0.47246 0.46434 0.63968 0.0
H371 H 0.445 0.47124 0.6909 0.0
H372 H 0.00624 0.53619 0.73102 0.0
H373 H 0.97227 0.52954 0.7828 0.0
H374 H 0.97245 0.45919 0.82637 0.0
H375 H 0.0063 0.46569 0.77513 0.0
H376 H 0.91883 0.45697 0.82069 0.0
H377 H 0.00066 0.54546 0.90898 0.0
H378 H -0.00514 0.54894 0.85486 0.0
H379 H 0.00777 0.52757 0.8684 0.0
C380 C -0.00143 0.51898 0.751 0.0
C381 C 0.00915 0.50167 0.74952 0.0
C382 C 0.97922 0.51522 0.78049 0.0
C383 C 0.97012 0.49401 0.80844 0.0
C384 C 0.97926 0.47565 0.80495 0.0
H385 H 0.89846 0.42574 0.03552 0.0
H386 H 0.91032 0.43543 0.9596 0.0
C387 C -0.00131 0.47949 0.77583 0.0
C388 C 0.9539 0.49264 0.84488 0.0
H389 H 0.96108 0.5185 0.9443 0.0
C390 C 0.92775 0.47073 0.8475 0.0
C391 C 0.96563 0.51075 0.87956 0.0
C392 C -0.0062 0.53451 0.87823 0.0
C393 C 0.91342 0.4657 0.88482 0.0
C394 C 0.92598 0.48258 0.92057 0.0
C395 C 0.95147 0.5055 0.91696 0.0
C396 C 0.91474 0.4753 0.96306 0.0
C397 C 0.88524 0.44204 0.88573 0.0
C398 C 0.91357 0.49457 -0.00756 0.0
C399 C 0.9074 0.4893 0.03463 0.0
C400 C 0.9022 0.4646 0.05089 0.0
C401 C 0.90224 0.4449 0.02385 0.0
C402 C 0.90873 0.45031 0.97906 0.0
H403 H 0.8753 0.43837 0.85465 0.0
H404 H 0.88573 0.42353 0.89329 0.0
H405 H 0.87308 0.44531 0.90949 0.0
H406 H 0.91834 0.51406 0.9781 0.0
H407 H 0.90738 0.50482 0.05472 0.0
H408 H 0.55142 0.07739 0.38268 0.0
H409 H 0.53346 0.04744 0.44189 0.0
H410 H 0.4533 0.02205 0.40064 0.0
H411 H 0.47103 0.05174 0.3411 0.0
H412 H 0.49866 0.0448 0.50684 0.0
H413 H 0.45465 0.95083 0.40692 0.0
H414 H 0.47889 0.98349 0.38773 0.0
H415 H 0.44466 0.97468 0.39356 0.0
C416 C 0.52997 0.06559 0.38635 0.0
C417 C 0.51264 0.06678 0.35705 0.0
C418 C 0.51976 0.0485 0.42019 0.0
C419 C 0.49208 0.03225 0.42516 0.0
C420 C 0.47473 0.03409 0.39686 0.0
H421 H 0.41405 0.94034 0.64639 0.0
H422 H 0.42747 0.97079 0.58765 0.0
C423 C 0.48491 0.05118 0.36302 0.0
C424 C 0.48144 0.01294 0.45951 0.0
H425 H 0.44611 0.94555 0.47937 0.0
C426 C 0.4871 0.0231 0.50092 0.0
C427 C 0.46666 0.98466 0.45152 0.0
C428 C 0.46099 0.97265 0.40756 0.0
C429 C 0.47825 0.00568 0.5347 0.0
C430 C 0.46309 0.97741 0.52671 0.0
C431 C 0.45753 0.96725 0.4853 0.0
C432 C 0.45376 0.95801 0.56096 0.0
C433 C 0.48575 0.0176 0.57861 0.0
C434 C 0.46341 0.94014 0.56453 0.0
C435 C 0.4557 0.92263 0.59789 0.0
C436 C 0.43807 0.92262 0.62814 0.0
C437 C 0.42775 0.93995 0.6237 0.0
C438 C 0.43551 0.95747 0.59033 0.0
H439 H 0.50223 0.03903 0.57897 0.0
H440 H 0.46815 0.0169 0.59359 0.0
H441 H 0.49194 0.0058 0.59772 0.0
H442 H 0.47741 0.94018 0.54199 0.0
H443 H 0.46394 0.90949 0.60037 0.0
H444 H 0.39416 0.4816 0.91801 0.0
H445 H 0.40064 0.47423 -0.00631 0.0
H446 H 0.47109 0.55363 0.00231 0.0
H447 H 0.46417 0.56146 0.92741 0.0
H448 H 0.44167 0.47141 0.01974 0.0
H449 H 0.43931 0.55238 0.11357 0.0
H450 H 0.42706 0.54419 0.06024 0.0
H451 H 0.46216 0.56641 0.07126 0.0
C452 C 0.41067 0.4977 0.9358 0.0
C453 C 0.42874 0.52206 0.91701 0.0
C454 C 0.41431 0.4935 0.97746 0.0
C455 C 0.43614 0.51351 0.00372 0.0
C456 C 0.45365 0.53819 0.98257 0.0
H457 H 0.54217 0.52156 0.1875 0.0
H458 H 0.51616 0.52939 0.13568 0.0
C459 C 0.44983 0.54254 0.94112 0.0
C460 C 0.44286 0.50727 0.04499 0.0
H461 H 0.46484 0.53367 0.1436 0.0
C462 C 0.44605 0.48465 0.04714 0.0
C463 C 0.44861 0.52455 0.08076 0.0
C464 C 0.44381 0.54806 0.08144 0.0
C465 C 0.45639 0.47977 0.08316 0.0
C466 C 0.46363 0.49796 0.11792 0.0
C467 C 0.45933 0.51987 0.11667 0.0
C468 C 0.47815 0.49578 0.15388 0.0
C469 C 0.46092 0.45606 0.08307 0.0
C470 C 0.46514 0.47476 0.18192 0.0
C471 C 0.47993 0.47023 0.21161 0.0
C472 C 0.50793 0.48657 0.21336 0.0
C473 C 0.52066 0.50852 0.18669 0.0
C474 C 0.50585 0.51311 0.15724 0.0
H475 H 0.45645 0.44529 0.0521 0.0
H476 H 0.48195 0.463 0.09187 0.0
H477 H 0.44789 0.44148 0.10663 0.0
H478 H 0.44373 0.46124 0.17967 0.0
H479 H 0.46956 0.45323 0.23187 0.0
H480 H 0.0624 0.46342 0.5551 0.0
H481 H 0.05041 0.45226 0.48087 0.0
H482 H 0.06704 0.53358 0.46263 0.0
H483 H 0.07974 0.54503 0.53593 0.0
H484 H 0.00953 0.45195 0.44591 0.0
H485 H 0.09873 0.52237 0.35868 0.0
H486 H 0.10036 0.51644 0.41345 0.0
H487 H 0.09158 0.5409 0.39746 0.0
C488 C 0.06405 0.47905 0.53498 0.0
C489 C 0.07187 0.50505 0.55135 0.0
C490 C 0.05729 0.47268 0.49259 0.0
C491 C 0.05827 0.49221 0.46597 0.0
C492 C 0.06692 0.5184 0.48212 0.0
H493 H 0.97242 0.50872 0.27723 0.0
H494 H 0.00482 0.51279 0.32976 0.0
C495 C 0.07387 0.52483 0.52427 0.0
C496 C 0.04659 0.4845 0.42321 0.0
H497 H 0.0556 0.50804 0.32416 0.0
C498 C 0.01988 0.46364 0.41894 0.0
C499 C 0.06011 0.4997 0.38798 0.0
C500 C 0.08938 0.52089 0.3896 0.0
C501 C 0.00566 0.45911 0.38143 0.0
C502 C 0.01858 0.47582 0.34737 0.0
C503 C 0.04576 0.49543 0.35057 0.0
C504 C 0.00309 0.47544 0.3107 0.0
C505 C 0.9764 0.43779 0.37933 0.0
C506 C -0.0078 0.45353 0.28185 0.0
C507 C 0.97369 0.45115 0.25172 0.0
C508 C 0.96575 0.47059 0.25037 0.0
C509 C 0.978 0.49334 0.27772 0.0
C510 C -0.00341 0.49577 0.30759 0.0
H511 H 0.96892 0.42784 0.40967 0.0
H512 H 0.96437 0.44694 0.36997 0.0
H513 H 0.97314 0.42204 0.35528 0.0
H514 H -0.0029 0.43771 0.28387 0.0
H515 H 0.96465 0.43345 0.23093 0.0
loop_
_geom_bond_atom_site_label_1
_geom_bond_atom_site_label_2
_geom_bond_distance
_geom_bond_site_symmetry_2
_ccdc_geom_bond_type
C0 O1 1.306 . S
C0 O3 1.160 . S
O1 C0 1.306 . S
O1 Cd2 2.228 . S
Cd2 O1 2.228 . S
Cd2 O6 2.273 . S
Cd2 O10 2.277 . S
O3 C0 1.160 . S
O3 Cd4 2.203 . S
Cd4 O3 2.203 . S
Cd4 O6 2.411 . S
Cd4 O7 2.333 . S
Cd4 O8 2.352 . S
Cd4 O12 2.277 . S
Cd4 O13 2.356 . S
C5 O10 1.209 . S
C5 O12 1.226 . S
O6 Cd2 2.273 . S
O6 Cd4 2.411 . S
O6 C9 1.320 . S
O7 Cd4 2.333 . S
O7 C9 1.214 . S
O8 Cd4 2.352 . S
O8 C11 1.258 . S
C9 O6 1.320 . S
C9 O7 1.214 . S
O10 Cd2 2.277 . S
O10 C5 1.209 . S
C11 O8 1.258 . S
C11 O13 1.282 . S
O12 Cd4 2.277 . S
O12 C5 1.226 . S
O13 Cd4 2.356 . S
O13 C11 1.282 . S
C14 O15 1.306 . S
C14 O17 1.160 . S
O15 C14 1.306 . S
O15 Cd16 2.228 . S
Cd16 O15 2.228 . S
Cd16 O20 2.273 . S
Cd16 O24 2.277 . S
O17 C14 1.160 . S
O17 Cd18 2.203 . S
Cd18 O17 2.203 . S
Cd18 O20 2.411 . S
Cd18 O21 2.333 . S
Cd18 O22 2.352 . S
Cd18 O26 2.277 . S
Cd18 O27 2.356 . S
C19 O24 1.209 . S
C19 O26 1.226 . S
O20 Cd16 2.273 . S
O20 Cd18 2.411 . S
O20 C23 1.320 . S
O21 Cd18 2.333 . S
O21 C23 1.214 . S
O22 Cd18 2.352 . S
O22 C25 1.258 . S
C23 O20 1.320 . S
C23 O21 1.214 . S
O24 Cd16 2.277 . S
O24 C19 1.209 . S
C25 O22 1.258 . S
C25 O27 1.282 . S
O26 Cd18 2.277 . S
O26 C19 1.226 . S
O27 Cd18 2.356 . S
O27 C25 1.282 . S
C28 O29 1.306 . S
C28 O31 1.160 . S
O29 C28 1.306 . S
O29 Cd30 2.228 . S
Cd30 O29 2.228 . S
Cd30 O34 2.273 . S
Cd30 O38 2.277 . S
O31 C28 1.160 . S
O31 Cd32 2.203 . S
Cd32 O31 2.203 . S
Cd32 O34 2.411 . S
Cd32 O35 2.333 . S
Cd32 O36 2.352 . S
Cd32 O40 2.277 . S
Cd32 O41 2.356 . S
C33 O38 1.209 . S
C33 O40 1.226 . S
O34 Cd30 2.273 . S
O34 Cd32 2.411 . S
O34 C37 1.320 . S
O35 Cd32 2.333 . S
O35 C37 1.214 . S
O36 Cd32 2.352 . S
O36 C39 1.258 . S
C37 O34 1.320 . S
C37 O35 1.214 . S
O38 Cd30 2.277 . S
O38 C33 1.209 . S
C39 O36 1.258 . S
C39 O41 1.282 . S
O40 Cd32 2.277 . S
O40 C33 1.226 . S
O41 Cd32 2.356 . S
O41 C39 1.282 . S
C42 O43 1.306 . S
C42 O45 1.160 . S
O43 C42 1.306 . S
O43 Cd44 2.228 . S
Cd44 O43 2.228 . S
Cd44 O48 2.273 . S
Cd44 O52 2.277 . S
O45 C42 1.160 . S
O45 Cd46 2.203 . S
Cd46 O45 2.203 . S
Cd46 O48 2.411 . S
Cd46 O49 2.333 . S
Cd46 O50 2.352 . S
Cd46 O54 2.277 . S
Cd46 O55 2.356 . S
C47 O52 1.209 . S
C47 O54 1.226 . S
O48 Cd44 2.273 . S
O48 Cd46 2.411 . S
O48 C51 1.320 . S
O49 Cd46 2.333 . S
O49 C51 1.214 . S
O50 Cd46 2.352 . S
O50 C53 1.258 . S
C51 O48 1.320 . S
C51 O49 1.214 . S
O52 Cd44 2.277 . S
O52 C47 1.209 . S
C53 O50 1.258 . S
C53 O55 1.282 . S
O54 Cd46 2.277 . S
O54 C47 1.226 . S
O55 Cd46 2.356 . S
O55 C53 1.282 . S
C56 O57 1.306 . S
C56 O59 1.160 . S
O57 C56 1.306 . S
O57 Cd58 2.228 . S
Cd58 O57 2.228 . S
Cd58 O62 2.273 . S
Cd58 O66 2.277 . S
O59 C56 1.160 . S
O59 Cd60 2.203 . S
Cd60 O59 2.203 . S
Cd60 O62 2.411 . S
Cd60 O63 2.333 . S
Cd60 O64 2.352 . S
Cd60 O68 2.277 . S
Cd60 O69 2.356 . S
C61 O66 1.209 . S
C61 O68 1.226 . S
O62 Cd58 2.273 . S
O62 Cd60 2.411 . S
O62 C65 1.320 . S
O63 Cd60 2.333 . S
O63 C65 1.214 . S
O64 Cd60 2.352 . S
O64 C67 1.258 . S
C65 O62 1.320 . S
C65 O63 1.214 . S
O66 Cd58 2.277 . S
O66 C61 1.209 . S
C67 O64 1.258 . S
C67 O69 1.282 . S
O68 Cd60 2.277 . S
O68 C61 1.226 . S
O69 Cd60 2.356 . S
O69 C67 1.282 . S
C70 O71 1.306 . S
C70 O73 1.160 . S
O71 C70 1.306 . S
O71 Cd72 2.228 . S
Cd72 O71 2.228 . S
Cd72 O76 2.273 . S
Cd72 O80 2.277 . S
O73 C70 1.160 . S
O73 Cd74 2.203 . S
Cd74 O73 2.203 . S
Cd74 O76 2.411 . S
Cd74 O77 2.333 . S
Cd74 O78 2.352 . S
Cd74 O82 2.277 . S
Cd74 O83 2.356 . S
C75 O80 1.209 . S
C75 O82 1.226 . S
O76 Cd72 2.273 . S
O76 Cd74 2.411 . S
O76 C79 1.320 . S
O77 Cd74 2.333 . S
O77 C79 1.214 . S
O78 Cd74 2.352 . S
O78 C81 1.258 . S
C79 O76 1.320 . S
C79 O77 1.214 . S
O80 Cd72 2.277 . S
O80 C75 1.209 . S
C81 O78 1.258 . S
C81 O83 1.282 . S
O82 Cd74 2.277 . S
O82 C75 1.226 . S
O83 Cd74 2.356 . S
O83 C81 1.282 . S
H84 C92 0.929 . S
H85 C94 0.930 . S
H86 C96 0.930 . S
H87 C99 0.929 . S
H88 C102 0.930 . S
H89 C104 0.960 . S
H90 C104 0.960 . S
H91 C104 0.960 . S
C92 H84 0.929 . S
C92 C93 1.377 . S
C92 C94 1.384 . S
C93 C92 1.377 . S
C93 C99 1.390 . S
C94 H85 0.930 . S
C94 C92 1.384 . S
C94 C95 1.372 . S
C95 C94 1.372 . S
C95 C96 1.400 . S
C95 C100 1.490 . S
C96 H86 0.930 . S
C96 C95 1.400 . S
C96 C99 1.386 . S
H97 C113 0.930 . S
H98 C114 0.931 . S
C99 H87 0.929 . S
C99 C93 1.390 . S
C99 C96 1.386 . S
C100 C95 1.490 . S
C100 C102 1.395 . S
C100 C103 1.403 . S
H101 C107 0.930 . S
C102 H88 0.930 . S
C102 C100 1.395 . S
C102 C105 1.403 . S
C103 C100 1.403 . S
C103 C104 1.524 . S
C103 C107 1.400 . S
C104 H89 0.960 . S
C104 H90 0.960 . S
C104 H91 0.960 . S
C104 C103 1.524 . S
C105 C102 1.403 . S
C105 C106 1.392 . S
C105 C109 1.495 . S
C106 C105 1.392 . S
C106 C107 1.385 . S
C106 C108 1.478 . S
C107 H101 0.930 . S
C107 C103 1.400 . S
C107 C106 1.385 . S
C108 C106 1.478 . S
C108 C110 1.381 . S
C108 C114 1.383 . S
C109 C105 1.495 . S
C109 H115 0.959 . S
C109 H116 0.961 . S
C109 H117 0.960 . S
C110 C108 1.381 . S
C110 C111 1.394 . S
C110 H118 0.930 . S
C111 C110 1.394 . S
C111 C112 1.383 . S
C111 H119 0.929 . S
C112 C111 1.383 . S
C112 C113 1.377 . S
C113 H97 0.930 . S
C113 C112 1.377 . S
C113 C114 1.379 . S
C114 H98 0.931 . S
C114 C108 1.383 . S
C114 C113 1.379 . S
H115 C109 0.959 . S
H116 C109 0.961 . S
H117 C109 0.960 . S
H118 C110 0.930 . S
H119 C111 0.929 . S
H120 C128 0.929 . S
H121 C130 0.930 . S
H122 C132 0.930 . S
H123 C135 0.929 . S
H124 C138 0.930 . S
H125 C140 0.960 . S
H126 C140 0.960 . S
H127 C140 0.960 . S
C128 H120 0.929 . S
C128 C129 1.377 . S
C128 C130 1.384 . S
C129 C128 1.377 . S
C129 C135 1.390 . S
C130 H121 0.930 . S
C130 C128 1.384 . S
C130 C131 1.372 . S
C131 C130 1.372 . S
C131 C132 1.400 . S
C131 C136 1.490 . S
C132 H122 0.930 . S
C132 C131 1.400 . S
C132 C135 1.386 . S
H133 C149 0.930 . S
H134 C150 0.931 . S
C135 H123 0.929 . S
C135 C129 1.390 . S
C135 C132 1.386 . S
C136 C131 1.490 . S
C136 C138 1.395 . S
C136 C139 1.403 . S
H137 C143 0.930 . S
C138 H124 0.930 . S
C138 C136 1.395 . S
C138 C141 1.403 . S
C139 C136 1.403 . S
C139 C140 1.524 . S
C139 C143 1.400 . S
C140 H125 0.960 . S
C140 H126 0.960 . S
C140 H127 0.960 . S
C140 C139 1.524 . S
C141 C138 1.403 . S
C141 C142 1.392 . S
C141 C145 1.495 . S
C142 C141 1.392 . S
C142 C143 1.385 . S
C142 C144 1.478 . S
C143 H137 0.930 . S
C143 C139 1.400 . S
C143 C142 1.385 . S
C144 C142 1.478 . S
C144 C146 1.381 . S
C144 C150 1.383 . S
C145 C141 1.495 . S
C145 H151 0.959 . S
C145 H152 0.961 . S
C145 H153 0.960 . S
C146 C144 1.381 . S
C146 C147 1.394 . S
C146 H154 0.930 . S
C147 C146 1.394 . S
C147 C148 1.383 . S
C147 H155 0.929 . S
C148 C147 1.383 . S
C148 C149 1.377 . S
C149 H133 0.930 . S
C149 C148 1.377 . S
C149 C150 1.379 . S
C150 H134 0.931 . S
C150 C144 1.383 . S
C150 C149 1.379 . S
H151 C145 0.959 . S
H152 C145 0.961 . S
H153 C145 0.960 . S
H154 C146 0.930 . S
H155 C147 0.929 . S
H156 C164 0.929 . S
H157 C166 0.930 . S
H158 C168 0.930 . S
H159 C171 0.929 . S
H160 C174 0.930 . S
H161 C176 0.960 . S
H162 C176 0.960 . S
H163 C176 0.960 . S
C164 H156 0.929 . S
C164 C165 1.377 . S
C164 C166 1.384 . S
C165 C164 1.377 . S
C165 C171 1.390 . S
C166 H157 0.930 . S
C166 C164 1.384 . S
C166 C167 1.372 . S
C167 C166 1.372 . S
C167 C168 1.400 . S
C167 C172 1.490 . S
C168 H158 0.930 . S
C168 C167 1.400 . S
C168 C171 1.386 . S
H169 C185 0.930 . S
H170 C186 0.931 . S
C171 H159 0.929 . S
C171 C165 1.390 . S
C171 C168 1.386 . S
C172 C167 1.490 . S
C172 C174 1.395 . S
C172 C175 1.403 . S
H173 C179 0.930 . S
C174 H160 0.930 . S
C174 C172 1.395 . S
C174 C177 1.403 . S
C175 C172 1.403 . S
C175 C176 1.524 . S
C175 C179 1.400 . S
C176 H161 0.960 . S
C176 H162 0.960 . S
C176 H163 0.960 . S
C176 C175 1.524 . S
C177 C174 1.403 . S
C177 C178 1.392 . S
C177 C181 1.495 . S
C178 C177 1.392 . S
C178 C179 1.385 . S
C178 C180 1.478 . S
C179 H173 0.930 . S
C179 C175 1.400 . S
C179 C178 1.385 . S
C180 C178 1.478 . S
C180 C182 1.381 . S
C180 C186 1.383 . S
C181 C177 1.495 . S
C181 H187 0.959 . S
C181 H188 0.961 . S
C181 H189 0.960 . S
C182 C180 1.381 . S
C182 C183 1.394 . S
C182 H190 0.930 . S
C183 C182 1.394 . S
C183 C184 1.383 . S
C183 H191 0.929 . S
C184 C183 1.383 . S
C184 C185 1.377 . S
C185 H169 0.930 . S
C185 C184 1.377 . S
C185 C186 1.379 . S
C186 H170 0.931 . S
C186 C180 1.383 . S
C186 C185 1.379 . S
H187 C181 0.959 . S
H188 C181 0.961 . S
H189 C181 0.960 . S
H190 C182 0.930 . S
H191 C183 0.929 . S
H192 C200 0.929 . S
H193 C202 0.930 . S
H194 C204 0.930 . S
H195 C207 0.929 . S
H196 C210 0.930 . S
H197 C212 0.960 . S
H198 C212 0.960 . S
H199 C212 0.960 . S
C200 H192 0.929 . S
C200 C201 1.377 . S
C200 C202 1.384 . S
C201 C200 1.377 . S
C201 C207 1.390 . S
C202 H193 0.930 . S
C202 C200 1.384 . S
C202 C203 1.372 . S
C203 C202 1.372 . S
C203 C204 1.400 . S
C203 C208 1.490 . S
C204 H194 0.930 . S
C204 C203 1.400 . S
C204 C207 1.386 . S
H205 C221 0.930 . S
H206 C222 0.931 . S
C207 H195 0.929 . S
C207 C201 1.390 . S
C207 C204 1.386 . S
C208 C203 1.490 . S
C208 C210 1.395 . S
C208 C211 1.403 . S
H209 C215 0.930 . S
C210 H196 0.930 . S
C210 C208 1.395 . S
C210 C213 1.403 . S
C211 C208 1.403 . S
C211 C212 1.524 . S
C211 C215 1.400 . S
C212 H197 0.960 . S
C212 H198 0.960 . S
C212 H199 0.960 . S
C212 C211 1.524 . S
C213 C210 1.403 . S
C213 C214 1.392 . S
C213 C217 1.495 . S
C214 C213 1.392 . S
C214 C215 1.385 . S
C214 C216 1.478 . S
C215 H209 0.930 . S
C215 C211 1.400 . S
C215 C214 1.385 . S
C216 C214 1.478 . S
C216 C218 1.381 . S
C216 C222 1.383 . S
C217 C213 1.495 . S
C217 H223 0.959 . S
C217 H224 0.961 . S
C217 H225 0.960 . S
C218 C216 1.381 . S
C218 C219 1.394 . S
C218 H226 0.930 . S
C219 C218 1.394 . S
C219 C220 1.383 . S
C219 H227 0.929 . S
C220 C219 1.383 . S
C220 C221 1.377 . S
C221 H205 0.930 . S
C221 C220 1.377 . S
C221 C222 1.379 . S
C222 H206 0.931 . S
C222 C216 1.383 . S
C222 C221 1.379 . S
H223 C217 0.959 . S
H224 C217 0.961 . S
H225 C217 0.960 . S
H226 C218 0.930 . S
H227 C219 0.929 . S
H228 C236 0.929 . S
H229 C238 0.930 . S
H230 C240 0.930 . S
H231 C243 0.929 . S
H232 C246 0.930 . S
H233 C248 0.960 . S
H234 C248 0.960 . S
H235 C248 0.960 . S
C236 H228 0.929 . S
C236 C237 1.377 . S
C236 C238 1.384 . S
C237 C236 1.377 . S
C237 C243 1.390 . S
C238 H229 0.930 . S
C238 C236 1.384 . S
C238 C239 1.372 . S
C239 C238 1.372 . S
C239 C240 1.400 . S
C239 C244 1.490 . S
C240 H230 0.930 . S
C240 C239 1.400 . S
C240 C243 1.386 . S
H241 C257 0.930 . S
H242 C258 0.931 . S
C243 H231 0.929 . S
C243 C237 1.390 . S
C243 C240 1.386 . S
C244 C239 1.490 . S
C244 C246 1.395 . S
C244 C247 1.403 . S
H245 C251 0.930 . S
C246 H232 0.930 . S
C246 C244 1.395 . S
C246 C249 1.403 . S
C247 C244 1.403 . S
C247 C248 1.524 . S
C247 C251 1.400 . S
C248 H233 0.960 . S
C248 H234 0.960 . S
C248 H235 0.960 . S
C248 C247 1.524 . S
C249 C246 1.403 . S
C249 C250 1.392 . S
C249 C253 1.495 . S
C250 C249 1.392 . S
C250 C251 1.385 . S
C250 C252 1.478 . S
C251 H245 0.930 . S
C251 C247 1.400 . S
C251 C250 1.385 . S
C252 C250 1.478 . S
C252 C254 1.381 . S
C252 C258 1.383 . S
C253 C249 1.495 . S
C253 H259 0.959 . S
C253 H260 0.961 . S
C253 H261 0.960 . S
C254 C252 1.381 . S
C254 C255 1.394 . S
C254 H262 0.930 . S
C255 C254 1.394 . S
C255 C256 1.383 . S
C255 H263 0.929 . S
C256 C255 1.383 . S
C256 C257 1.377 . S
C257 H241 0.930 . S
C257 C256 1.377 . S
C257 C258 1.379 . S
C258 H242 0.931 . S
C258 C252 1.383 . S
C258 C257 1.379 . S
H259 C253 0.959 . S
H260 C253 0.961 . S
H261 C253 0.960 . S
H262 C254 0.930 . S
H263 C255 0.929 . S
H264 C272 0.929 . S
H265 C274 0.930 . S
H266 C276 0.930 . S
H267 C279 0.929 . S
H268 C282 0.930 . S
H269 C284 0.960 . S
H270 C284 0.960 . S
H271 C284 0.960 . S
C272 H264 0.929 . S
C272 C273 1.377 . S
C272 C274 1.384 . S
C273 C272 1.377 . S
C273 C279 1.390 . S
C274 H265 0.930 . S
C274 C272 1.384 . S
C274 C275 1.372 . S
C275 C274 1.372 . S
C275 C276 1.400 . S
C275 C280 1.490 . S
C276 H266 0.930 . S
C276 C275 1.400 . S
C276 C279 1.386 . S
H277 C293 0.930 . S
H278 C294 0.931 . S
C279 H267 0.929 . S
C279 C273 1.390 . S
C279 C276 1.386 . S
C280 C275 1.490 . S
C280 C282 1.395 . S
C280 C283 1.403 . S
H281 C287 0.930 . S
C282 H268 0.930 . S
C282 C280 1.395 . S
C282 C285 1.403 . S
C283 C280 1.403 . S
C283 C284 1.524 . S
C283 C287 1.400 . S
C284 H269 0.960 . S
C284 H270 0.960 . S
C284 H271 0.960 . S
C284 C283 1.524 . S
C285 C282 1.403 . S
C285 C286 1.392 . S
C285 C289 1.495 . S
C286 C285 1.392 . S
C286 C287 1.385 . S
C286 C288 1.478 . S
C287 H281 0.930 . S
C287 C283 1.400 . S
C287 C286 1.385 . S
C288 C286 1.478 . S
C288 C290 1.381 . S
C288 C294 1.383 . S
C289 C285 1.495 . S
C289 H295 0.959 . S
C289 H296 0.961 . S
C289 H297 0.960 . S
C290 C288 1.381 . S
C290 C291 1.394 . S
C290 H298 0.930 . S
C291 C290 1.394 . S
C291 C292 1.383 . S
C291 H299 0.929 . S
C292 C291 1.383 . S
C292 C293 1.377 . S
C293 H277 0.930 . S
C293 C292 1.377 . S
C293 C294 1.379 . S
C294 H278 0.931 . S
C294 C288 1.383 . S
C294 C293 1.379 . S
H295 C289 0.959 . S
H296 C289 0.961 . S
H297 C289 0.960 . S
H298 C290 0.930 . S
H299 C291 0.929 . S
H300 C308 0.929 . S
H301 C310 0.930 . S
H302 C312 0.930 . S
H303 C315 0.929 . S
H304 C318 0.930 . S
H305 C320 0.960 . S
H306 C320 0.960 . S
H307 C320 0.960 1_556 S
C308 H300 0.929 . S
C308 C309 1.377 . S
C308 C310 1.384 . S
C309 C308 1.377 . S
C309 C315 1.390 . S
C310 H301 0.930 . S
C310 C308 1.384 . S
C310 C311 1.372 . S
C311 C310 1.372 . S
C311 C312 1.400 . S
C311 C316 1.490 . S
C312 H302 0.930 . S
C312 C311 1.400 . S
C312 C315 1.386 . S
H313 C329 0.930 . S
H314 C330 0.931 . S
C315 H303 0.929 . S
C315 C309 1.390 . S
C315 C312 1.386 . S
C316 C311 1.490 . S
C316 C318 1.395 1_565 S
C316 C319 1.403 1_556 S
H317 C323 0.930 . S
C318 H304 0.930 . S
C318 C316 1.395 1_545 S
C318 C321 1.403 . S
C319 C316 1.403 1_554 S
C319 C320 1.524 . S
C319 C323 1.400 . S
C320 H305 0.960 . S
C320 H306 0.960 . S
C320 H307 0.960 1_554 S
C320 C319 1.524 . S
C321 C318 1.403 . S
C321 C322 1.392 1_556 S
C321 C325 1.495 . S
C322 C321 1.392 1_554 S
C322 C323 1.385 1_545 S
C322 C324 1.478 . S
C323 H317 0.930 . S
C323 C319 1.400 . S
C323 C322 1.385 1_565 S
C324 C322 1.478 . S
C324 C326 1.381 . S
C324 C330 1.383 . S
C325 C321 1.495 . S
C325 H331 0.959 . S
C325 H332 0.961 . S
C325 H333 0.960 1_556 S
C326 C324 1.381 . S
C326 C327 1.394 . S
C326 H334 0.930 . S
C327 C326 1.394 . S
C327 C328 1.383 . S
C327 H335 0.929 . S
C328 C327 1.383 . S
C328 C329 1.377 . S
C329 H313 0.930 . S
C329 C328 1.377 . S
C329 C330 1.379 . S
C330 H314 0.931 . S
C330 C324 1.383 . S
C330 C329 1.379 . S
H331 C325 0.959 . S
H332 C325 0.961 . S
H333 C325 0.960 1_554 S
H334 C326 0.930 . S
H335 C327 0.929 . S
H336 C344 0.929 . S
H337 C346 0.930 . S
H338 C348 0.930 . S
H339 C351 0.929 . S
H340 C354 0.930 . S
H341 C356 0.960 . S
H342 C356 0.960 . S
H343 C356 0.960 . S
C344 H336 0.929 . S
C344 C345 1.377 . S
C344 C346 1.384 . S
C345 C344 1.377 . S
C345 C351 1.390 . S
C346 H337 0.930 . S
C346 C344 1.384 . S
C346 C347 1.372 . S
C347 C346 1.372 . S
C347 C348 1.400 . S
C347 C352 1.490 . S
C348 H338 0.930 . S
C348 C347 1.400 . S
C348 C351 1.386 . S
H349 C365 0.930 . S
H350 C366 0.931 . S
C351 H339 0.929 . S
C351 C345 1.390 . S
C351 C348 1.386 . S
C352 C347 1.490 . S
C352 C354 1.395 . S
C352 C355 1.403 . S
H353 C359 0.930 . S
C354 H340 0.930 . S
C354 C352 1.395 . S
C354 C357 1.403 . S
C355 C352 1.403 . S
C355 C356 1.524 . S
C355 C359 1.400 . S
C356 H341 0.960 . S
C356 H342 0.960 . S
C356 H343 0.960 . S
C356 C355 1.524 . S
C357 C354 1.403 . S
C357 C358 1.392 . S
C357 C361 1.495 . S
C358 C357 1.392 . S
C358 C359 1.385 . S
C358 C360 1.478 . S
C359 H353 0.930 . S
C359 C355 1.400 . S
C359 C358 1.385 . S
C360 C358 1.478 . S
C360 C362 1.381 . S
C360 C366 1.383 . S
C361 C357 1.495 . S
C361 H367 0.959 . S
C361 H368 0.961 . S
C361 H369 0.960 . S
C362 C360 1.381 . S
C362 C363 1.394 . S
C362 H370 0.930 . S
C363 C362 1.394 . S
C363 C364 1.383 . S
C363 H371 0.929 . S
C364 C363 1.383 . S
C364 C365 1.377 . S
C365 H349 0.930 . S
C365 C364 1.377 . S
C365 C366 1.379 . S
C366 H350 0.931 . S
C366 C360 1.383 . S
C366 C365 1.379 . S
H367 C361 0.959 . S
H368 C361 0.961 . S
H369 C361 0.960 . S
H370 C362 0.930 . S
H371 C363 0.929 . S
H372 C380 0.929 . S
H373 C382 0.930 . S
H374 C384 0.930 . S
H375 C387 0.929 . S
H376 C390 0.930 . S
H377 C392 0.960 1_554 S
H378 C392 0.960 . S
H379 C392 0.960 . S
C380 H372 0.929 . S
C380 C381 1.377 . S
C380 C382 1.384 . S
C381 C380 1.377 . S
C381 C387 1.390 . S
C382 H373 0.930 . S
C382 C380 1.384 . S
C382 C383 1.372 . S
C383 C382 1.372 . S
C383 C384 1.400 . S
C383 C388 1.490 . S
C384 H374 0.930 . S
C384 C383 1.400 . S
C384 C387 1.386 . S
H385 C401 0.930 . S
H386 C402 0.931 . S
C387 H375 0.929 . S
C387 C381 1.390 . S
C387 C384 1.386 . S
C388 C383 1.490 . S
C388 C390 1.395 . S
C388 C391 1.403 . S
H389 C395 0.930 . S
C390 H376 0.930 . S
C390 C388 1.395 . S
C390 C393 1.403 1_455 S
C391 C388 1.403 . S
C391 C392 1.524 . S
C391 C395 1.400 1_556 S
C392 H377 0.960 1_556 S
C392 H378 0.960 . S
C392 H379 0.960 . S
C392 C391 1.524 . S
C393 C390 1.403 1_655 S
C393 C394 1.392 1_556 S
C393 C397 1.495 . S
C394 C393 1.392 1_554 S
C394 C395 1.385 1_655 S
C394 C396 1.478 . S
C395 H389 0.930 . S
C395 C391 1.400 1_554 S
C395 C394 1.385 1_455 S
C396 C394 1.478 . S
C396 C398 1.381 . S
C396 C402 1.383 . S
C397 C393 1.495 . S
C397 H403 0.959 . S
C397 H404 0.961 . S
C397 H405 0.960 1_556 S
C398 C396 1.381 . S
C398 C399 1.394 . S
C398 H406 0.930 . S
C399 C398 1.394 . S
C399 C400 1.383 . S
C399 H407 0.929 . S
C400 C399 1.383 . S
C400 C401 1.377 . S
C401 H385 0.930 . S
C401 C400 1.377 . S
C401 C402 1.379 . S
C402 H386 0.931 . S
C402 C396 1.383 . S
C402 C401 1.379 . S
H403 C397 0.959 . S
H404 C397 0.961 . S
H405 C397 0.960 1_554 S
H406 C398 0.930 . S
H407 C399 0.929 . S
H408 C416 0.929 . S
H409 C418 0.930 . S
H410 C420 0.930 . S
H411 C423 0.929 . S
H412 C426 0.930 . S
H413 C428 0.960 . S
H414 C428 0.960 . S
H415 C428 0.946 1_545 S
C416 H408 0.929 . S
C416 C417 1.377 . S
C416 C418 1.384 . S
C417 C416 1.377 . S
C417 C423 1.390 . S
C418 H409 0.930 . S
C418 C416 1.384 . S
C418 C419 1.372 . S
C419 C418 1.372 . S
C419 C420 1.400 . S
C419 C424 1.490 . S
C420 H410 0.930 . S
C420 C419 1.400 . S
C420 C423 1.386 . S
H421 C437 0.930 . S
H422 C438 0.931 . S
C423 H411 0.929 . S
C423 C417 1.390 . S
C423 C420 1.386 . S
C424 C419 1.490 . S
C424 C426 1.395 . S
C424 C427 1.403 1_545 S
H425 C431 0.930 . S
C426 H412 0.930 . S
C426 C424 1.395 . S
C426 C429 1.403 . S
C427 C424 1.403 1_565 S
C427 C428 1.524 . S
C427 C431 1.400 . S
C428 H413 0.960 . S
C428 H414 0.960 . S
C428 H415 0.946 1_565 S
C428 C427 1.524 . S
C429 C426 1.403 . S
C429 C430 1.392 1_545 S
C429 C433 1.495 . S
C430 C429 1.392 1_565 S
C430 C431 1.385 . S
C430 C432 1.478 . S
C431 H425 0.930 . S
C431 C427 1.400 . S
C431 C430 1.385 . S
C432 C430 1.478 . S
C432 C434 1.381 . S
C432 C438 1.383 . S
C433 C429 1.495 . S
C433 H439 0.959 . S
C433 H440 0.961 . S
C433 H441 0.943 1_545 S
C434 C432 1.381 . S
C434 C435 1.394 . S
C434 H442 0.930 . S
C435 C434 1.394 . S
C435 C436 1.383 . S
C435 H443 0.929 . S
C436 C435 1.383 . S
C436 C437 1.377 . S
C437 H421 0.930 . S
C437 C436 1.377 . S
C437 C438 1.379 . S
C438 H422 0.931 . S
C438 C432 1.383 . S
C438 C437 1.379 . S
H439 C433 0.959 . S
H440 C433 0.961 . S
H441 C433 0.943 1_565 S
H442 C434 0.930 . S
H443 C435 0.929 . S
H444 C452 0.929 . S
H445 C454 0.930 . S
H446 C456 0.930 . S
H447 C459 0.929 . S
H448 C462 0.930 . S
H449 C464 0.960 . S
H450 C464 0.960 1_556 S
H451 C464 0.960 . S
C452 H444 0.929 . S
C452 C453 1.377 . S
C452 C454 1.384 . S
C453 C452 1.377 . S
C453 C459 1.390 . S
C454 H445 0.930 . S
C454 C452 1.384 . S
C454 C455 1.372 . S
C455 C454 1.372 . S
C455 C456 1.400 . S
C455 C460 1.490 . S
C456 H446 0.930 . S
C456 C455 1.400 . S
C456 C459 1.386 . S
H457 C473 0.930 . S
H458 C474 0.931 . S
C459 H447 0.929 . S
C459 C453 1.390 . S
C459 C456 1.386 . S
C460 C455 1.490 . S
C460 C462 1.395 . S
C460 C463 1.403 1_556 S
H461 C467 0.930 . S
C462 H448 0.930 . S
C462 C460 1.395 . S
C462 C465 1.403 1_556 S
C463 C460 1.403 1_554 S
C463 C464 1.524 . S
C463 C467 1.400 . S
C464 H449 0.960 . S
C464 H450 0.960 1_554 S
C464 H451 0.960 . S
C464 C463 1.524 . S
C465 C462 1.403 1_554 S
C465 C466 1.392 . S
C465 C469 1.495 . S
C466 C465 1.392 . S
C466 C467 1.385 . S
C466 C468 1.478 . S
C467 H461 0.930 . S
C467 C463 1.400 . S
C467 C466 1.385 . S
C468 C466 1.478 . S
C468 C470 1.381 . S
C468 C474 1.383 . S
C469 C465 1.495 . S
C469 H475 0.959 . S
C469 H476 0.961 . S
C469 H477 0.960 . S
C470 C468 1.381 . S
C470 C471 1.394 . S
C470 H478 0.930 . S
C471 C470 1.394 . S
C471 C472 1.383 . S
C471 H479 0.929 . S
C472 C471 1.383 . S
C472 C473 1.377 . S
C473 H457 0.930 . S
C473 C472 1.377 . S
C473 C474 1.379 . S
C474 H458 0.931 . S
C474 C468 1.383 . S
C474 C473 1.379 . S
H475 C469 0.959 . S
H476 C469 0.961 . S
H477 C469 0.960 . S
H478 C470 0.930 . S
H479 C471 0.929 . S
H480 C488 0.929 . S
H481 C490 0.930 . S
H482 C492 0.930 . S
H483 C495 0.929 . S
H484 C498 0.930 . S
H485 C500 0.960 . S
H486 C500 0.960 . S
H487 C500 0.960 . S
C488 H480 0.929 . S
C488 C489 1.377 . S
C488 C490 1.384 . S
C489 C488 1.377 . S
C489 C495 1.390 . S
C490 H481 0.930 . S
C490 C488 1.384 . S
C490 C491 1.372 . S
C491 C490 1.372 . S
C491 C492 1.400 . S
C491 C496 1.490 . S
C492 H482 0.930 . S
C492 C491 1.400 . S
C492 C495 1.386 . S
H493 C509 0.930 . S
H494 C510 0.931 . S
C495 H483 0.929 . S
C495 C489 1.390 . S
C495 C492 1.386 . S
C496 C491 1.490 . S
C496 C498 1.395 1_455 S
C496 C499 1.403 . S
H497 C503 0.930 . S
C498 H484 0.930 . S
C498 C496 1.395 1_655 S
C498 C501 1.403 . S
C499 C496 1.403 . S
C499 C500 1.524 . S
C499 C503 1.400 . S
C500 H485 0.960 . S
C500 H486 0.960 . S
C500 H487 0.960 . S
C500 C499 1.524 . S
C501 C498 1.403 . S
C501 C502 1.392 . S
C501 C505 1.495 . S
C502 C501 1.392 . S
C502 C503 1.385 1_655 S
C502 C504 1.478 . S
C503 H497 0.930 . S
C503 C499 1.400 . S
C503 C502 1.385 1_455 S
C504 C502 1.478 . S
C504 C506 1.381 . S
C504 C510 1.383 . S
C505 C501 1.495 . S
C505 H511 0.959 . S
C505 H512 0.961 . S
C505 H513 0.960 . S
C506 C504 1.381 . S
C506 C507 1.394 . S
C506 H514 0.930 . S
C507 C506 1.394 . S
C507 C508 1.383 . S
C507 H515 0.929 . S
C508 C507 1.383 . S
C508 C509 1.377 . S
C509 H493 0.930 . S
C509 C508 1.377 . S
C509 C510 1.379 . S
C510 H494 0.931 . S
C510 C504 1.383 . S
C510 C509 1.379 . S
H511 C505 0.959 . S
H512 C505 0.961 . S
H513 C505 0.960 . S
H514 C506 0.930 . S
H515 C507 0.929 . S
C93 C0 0.865 . S
C112 C61 0.889 . S
C129 C14 0.883 . S
C148 C70 0.824 . S
C165 C5 0.866 . S
C184 C33 0.870 . S
C201 C47 0.866 . S
C220 C19 0.872 . S
C237 C56 0.881 . S
C256 C28 0.824 . S
C273 C42 0.873 . S
C292 C75 0.857 . S
C309 C51 1.340 . S
C328 C9 1.342 . S
C345 C67 1.363 . S
C364 C23 1.373 . S
C381 C79 1.363 . S
C400 C39 1.358 . S
C417 C11 1.355 . S
C436 C53 1.346 . S
C453 C25 1.355 . S
C472 C65 1.358 . S
C489 C81 1.367 . S
C508 C37 1.380 . S
