# Generated by pormake.
# Topology wjk, (5)-cn, num edge types: 1
# Building blocks:
#     Node 0, Type 0, BuildingBlock: BEQFEK_clean_sbu_0, # of connection points: 5
#     Node 1, Type 0, BuildingBlock: BEQFEK_clean_sbu_0, # of connection points: 5
#     Node 2, Type 0, BuildingBlock: BEQFEK_clean_sbu_0, # of connection points: 5
#     Node 3, Type 0, BuildingBlock: BEQFEK_clean_sbu_0, # of connection points: 5
#     Node 4, Type 0, BuildingBlock: BEQFEK_clean_sbu_0, # of connection points: 5
#     Node 5, Type 0, BuildingBlock: BEQFEK_clean_sbu_0, # of connection points: 5
#     Node 6, Type 0, BuildingBlock: BEQFEK_clean_sbu_0, # of connection points: 5
#     Node 7, Type 0, BuildingBlock: BEQFEK_clean_sbu_0, # of connection points: 5
#     Node 8, Type 0, BuildingBlock: BEQFEK_clean_sbu_0, # of connection points: 5
#     Node 9, Type 0, BuildingBlock: BEQFEK_clean_sbu_0, # of connection points: 5
#     Node 10, Type 0, BuildingBlock: BEQFEK_clean_sbu_0, # of connection points: 5
#     Node 11, Type 0, BuildingBlock: BEQFEK_clean_sbu_0, # of connection points: 5
#     Edge 12, Type (0, 0), BuildingBlock: XUDNAN_clean_linker_2, # of connection points: 2
#     Edge 13, Type (0, 0), BuildingBlock: XUDNAN_clean_linker_2, # of connection points: 2
#     Edge 14, Type (0, 0), BuildingBlock: XUDNAN_clean_linker_2, # of connection points: 2
#     Edge 15, Type (0, 0), BuildingBlock: XUDNAN_clean_linker_2, # of connection points: 2
#     Edge 16, Type (0, 0), BuildingBlock: XUDNAN_clean_linker_2, # of connection points: 2
#     Edge 17, Type (0, 0), BuildingBlock: XUDNAN_clean_linker_2, # of connection points: 2
#     Edge 18, Type (0, 0), BuildingBlock: XUDNAN_clean_linker_2, # of connection points: 2
#     Edge 19, Type (0, 0), BuildingBlock: XUDNAN_clean_linker_2, # of connection points: 2
#     Edge 20, Type (0, 0), BuildingBlock: XUDNAN_clean_linker_2, # of connection points: 2
#     Edge 21, Type (0, 0), BuildingBlock: XUDNAN_clean_linker_2, # of connection points: 2
#     Edge 22, Type (0, 0), BuildingBlock: XUDNAN_clean_linker_2, # of connection points: 2
#     Edge 23, Type (0, 0), BuildingBlock: XUDNAN_clean_linker_2, # of connection points: 2
#     Edge 24, Type (0, 0), BuildingBlock: XUDNAN_clean_linker_2, # of connection points: 2
#     Edge 25, Type (0, 0), BuildingBlock: XUDNAN_clean_linker_2, # of connection points: 2
#     Edge 26, Type (0, 0), BuildingBlock: XUDNAN_clean_linker_2, # of connection points: 2
#     Edge 27, Type (0, 0), BuildingBlock: XUDNAN_clean_linker_2, # of connection points: 2
#     Edge 28, Type (0, 0), BuildingBlock: XUDNAN_clean_linker_2, # of connection points: 2
#     Edge 29, Type (0, 0), BuildingBlock: XUDNAN_clean_linker_2, # of connection points: 2
#     Edge 30, Type (0, 0), BuildingBlock: XUDNAN_clean_linker_2, # of connection points: 2
#     Edge 31, Type (0, 0), BuildingBlock: XUDNAN_clean_linker_2, # of connection points: 2
#     Edge 32, Type (0, 0), BuildingBlock: XUDNAN_clean_linker_2, # of connection points: 2
#     Edge 33, Type (0, 0), BuildingBlock: XUDNAN_clean_linker_2, # of connection points: 2
#     Edge 34, Type (0, 0), BuildingBlock: XUDNAN_clean_linker_2, # of connection points: 2
#     Edge 35, Type (0, 0), BuildingBlock: XUDNAN_clean_linker_2, # of connection points: 2
#     Edge 36, Type (0, 0), BuildingBlock: XUDNAN_clean_linker_2, # of connection points: 2
#     Edge 37, Type (0, 0), BuildingBlock: XUDNAN_clean_linker_2, # of connection points: 2
#     Edge 38, Type (0, 0), BuildingBlock: XUDNAN_clean_linker_2, # of connection points: 2
#     Edge 39, Type (0, 0), BuildingBlock: XUDNAN_clean_linker_2, # of connection points: 2
#     Edge 40, Type (0, 0), BuildingBlock: XUDNAN_clean_linker_2, # of connection points: 2
#     Edge 41, Type (0, 0), BuildingBlock: XUDNAN_clean_linker_2, # of connection points: 2
# Relax obj value: 0.400
# Max RMSD: 0.213
# Mean RMSD: 0.213
data_MOF--net-wjk--node1-BEQFEK_clean_sbu_0--edge1-XUDNAN_clean_linker_2
_symmetry_space_group_name_H-M    P1
_symmetry_Int_Tables_number       1
_symmetry_cell_setting            triclinic
loop_
_symmetry_equiv_pos_as_xyz
'x, y, z'
_cell_length_a     35.123076
_cell_length_b     35.154797
_cell_length_c     74.100862
_cell_angle_alpha  90.096009
_cell_angle_beta   89.952088
_cell_angle_gamma 120.18761
loop_
_atom_site_label
_atom_site_type_symbol
_atom_site_fract_x
_atom_site_fract_y
_atom_site_fract_z
_atom_type_partial_charge
Co0 Co 0.14306 0.21924 0.26363 0.0
Co1 Co 0.21958 0.30287 0.24625 0.0
C2 C 0.20446 0.21491 0.23605 0.0
O3 O 0.17044 0.19695 0.24609 0.0
O4 O 0.22879 0.25656 0.23522 0.0
C5 C 0.10948 0.13958 0.28257 0.0
O6 O 0.14718 0.14309 0.27784 0.0
C7 C 0.30974 0.37007 0.23562 0.0
C8 C 0.30493 0.43034 0.23485 0.0
C9 C 0.33427 0.41522 0.2327 0.0
N10 N 0.26805 0.35929 0.23959 0.0
N11 N 0.26541 0.39546 0.23901 0.0
C12 C 0.32427 0.33692 0.23337 0.0
H13 H 0.31717 0.31718 0.24588 0.0
H14 H 0.35962 0.35224 0.22989 0.0
H15 H 0.30498 0.31403 0.2223 0.0
C16 C 0.19129 0.26152 0.2974 0.0
N17 N 0.18497 0.26236 0.27945 0.0
N18 N 0.21856 0.29741 0.27235 0.0
C19 C 0.24817 0.31939 0.28565 0.0
C20 C 0.23196 0.29736 0.30203 0.0
C21 C 0.16147 0.22386 0.3094 0.0
H22 H 0.12663 0.21222 0.30597 0.0
H23 H 0.16849 0.19672 0.30747 0.0
H24 H 0.16611 0.23262 0.32386 0.0
O25 O 0.10931 0.24004 0.24996 0.0
O26 O 0.16284 0.29569 0.23482 0.0
H27 H 0.28828 0.38387 0.27465 0.0
H28 H 0.30858 0.37471 0.29563 0.0
C29 C 0.29223 0.35947 0.28266 0.0
H30 H 0.31343 0.35027 0.27492 0.0
H31 H 0.23672 0.3964 0.24168 0.0
O32 O 0.1006 0.16878 0.27765 0.0
C33 C 0.12184 0.26972 0.23798 0.0
Co34 Co 0.91774 0.13986 0.59897 0.0
Co35 Co 0.9168 0.21948 0.58089 0.0
C36 C 0.98952 0.20086 0.57366 0.0
O37 O 0.97149 0.16648 0.58346 0.0
O38 O 0.9724 0.22503 0.57179 0.0
C39 C 0.95573 0.10147 0.62011 0.0
O40 O 0.99177 0.13927 0.61709 0.0
C41 C 0.95161 0.31194 0.57076 0.0
C42 C 0.89409 0.32063 0.57429 0.0
C43 C 0.93911 0.34368 0.57117 0.0
N44 N 0.91613 0.2723 0.57419 0.0
N45 N 0.88159 0.27763 0.57581 0.0
C46 C 0.99668 0.31909 0.5671 0.0
H47 H 0.00982 0.3122 0.57952 0.0
H48 H 0.01971 0.35301 0.56239 0.0
H49 H 0.99453 0.29607 0.55638 0.0
C50 C 0.92286 0.18851 0.63238 0.0
N51 N 0.91651 0.18227 0.61439 0.0
N52 N 0.91794 0.21705 0.60708 0.0
C53 C 0.9268 0.24714 0.62034 0.0
C54 C 0.93033 0.22994 0.63677 0.0
C55 C 0.92391 0.15647 0.64535 0.0
H56 H 0.89976 0.12229 0.64132 0.0
H57 H 0.95749 0.16097 0.64558 0.0
H58 H 0.91604 0.16232 0.65923 0.0
O59 O 0.86595 0.10957 0.58321 0.0
O60 O 0.86651 0.16462 0.56828 0.0
H61 H 0.90855 0.29299 0.61075 0.0
H62 H 0.94491 0.31222 0.63001 0.0
C63 C 0.93717 0.29336 0.61719 0.0
H64 H 0.96581 0.31002 0.60799 0.0
H65 H 0.85 0.25237 0.57911 0.0
O66 O 0.91949 0.09455 0.61351 0.0
C67 C 0.85054 0.12331 0.57098 0.0
Co68 Co 0.78453 0.93504 0.92942 0.0
Co69 Co 0.69663 0.91805 0.9124 0.0
C70 C 0.78303 0.99511 0.90103 0.0
O71 O 0.80401 0.98461 0.91206 0.0
O72 O 0.7412 0.97241 0.89986 0.0
C73 C 0.864 0.98403 0.94894 0.0
O74 O 0.86063 0.01814 0.94408 0.0
C75 C 0.62747 0.93787 0.90222 0.0
C76 C 0.56773 0.87199 0.9023 0.0
C77 C 0.58204 0.91628 0.89992 0.0
N78 N 0.63922 0.90775 0.90608 0.0
N79 N 0.60336 0.86843 0.90601 0.0
C80 C 0.65992 0.98578 0.89958 0.0
H81 H 0.681 0.99917 0.91174 0.0
H82 H 0.64391 0.00526 0.89649 0.0
H83 H 0.68166 0.98938 0.88808 0.0
C84 C 0.74212 0.94032 0.96304 0.0
N85 N 0.74071 0.9316 0.94524 0.0
N86 N 0.70382 0.92623 0.93837 0.0
C87 C 0.68103 0.9325 0.95174 0.0
C88 C 0.70502 0.94223 0.96778 0.0
C89 C 0.77836 0.9469 0.97559 0.0
H90 H 0.79057 0.92431 0.97199 0.0
H91 H 0.80569 0.98144 0.97466 0.0
H92 H 0.7667 0.94053 0.98978 0.0
O93 O 0.76617 0.88023 0.9158 0.0
O94 O 0.70475 0.8682 0.90222 0.0
H95 H 0.61485 0.90266 0.94197 0.0
H96 H 0.62524 0.93624 0.96194 0.0
C97 C 0.63925 0.93323 0.94895 0.0
H98 H 0.64593 0.96155 0.94026 0.0
H99 H 0.60313 0.83922 0.90878 0.0
O100 O 0.83545 0.94579 0.9437 0.0
C101 C 0.73451 0.85803 0.90498 0.0
Co102 Co 0.85321 0.77874 0.26282 0.0
Co103 Co 0.77628 0.69527 0.24544 0.0
C104 C 0.7923 0.78345 0.23512 0.0
O105 O 0.82586 0.80128 0.24539 0.0
O106 O 0.76839 0.74187 0.23403 0.0
C107 C 0.87979 0.8538 0.28354 0.0
O108 O 0.8382 0.84215 0.28131 0.0
C109 C 0.68525 0.63294 0.23505 0.0
C110 C 0.68337 0.56925 0.23411 0.0
C111 C 0.65743 0.58834 0.23196 0.0
N112 N 0.72587 0.64007 0.23868 0.0
N113 N 0.72457 0.60184 0.23801 0.0
C114 C 0.67248 0.6676 0.23629 0.0
H115 H 0.69244 0.69227 0.24673 0.0
H116 H 0.63707 0.65303 0.23968 0.0
H117 H 0.67876 0.68461 0.2231 0.0
C118 C 0.80642 0.73514 0.29678 0.0
N119 N 0.81173 0.73523 0.27871 0.0
N120 N 0.77709 0.70123 0.27155 0.0
C121 C 0.74748 0.6798 0.2849 0.0
C122 C 0.76493 0.70074 0.30138 0.0
C123 C 0.83916 0.76935 0.30937 0.0
H124 H 0.87286 0.78402 0.30379 0.0
H125 H 0.83035 0.79516 0.31166 0.0
H126 H 0.83926 0.75511 0.32264 0.0
O127 O 0.88687 0.75791 0.24912 0.0
O128 O 0.83316 0.70112 0.23437 0.0
H129 H 0.70455 0.61634 0.27344 0.0
H130 H 0.68659 0.62558 0.29502 0.0
C131 C 0.70244 0.64106 0.28201 0.0
H132 H 0.68168 0.6519 0.27499 0.0
H133 H 0.75155 0.59785 0.24061 0.0
O134 O 0.89424 0.83048 0.27659 0.0
C135 C 0.87425 0.72742 0.23744 0.0
Co136 Co 0.06301 0.84887 0.59623 0.0
Co137 Co 0.08113 0.77778 0.58039 0.0
C138 C 0.00157 0.78088 0.56957 0.0
O139 O 0.01326 0.81434 0.57957 0.0
O140 O 0.02422 0.76192 0.56846 0.0
C141 C 0.00817 0.86978 0.61594 0.0
O142 O 0.9801 0.8277 0.61345 0.0
C143 C 0.06596 0.6889 0.57345 0.0
C144 C 0.13374 0.70101 0.57061 0.0
C145 C 0.08998 0.66766 0.57105 0.0
N146 N 0.09427 0.73256 0.57447 0.0
N147 N 0.13468 0.73959 0.57247 0.0
C148 C 0.01744 0.66804 0.57667 0.0
H149 H 0.0002 0.66047 0.56348 0.0
H150 H 0.00989 0.6907 0.58423 0.0
H151 H 0.00486 0.63687 0.58432 0.0
C152 C 0.06438 0.8076 0.63083 0.0
N153 N 0.0706 0.81223 0.6128 0.0
N154 N 0.07605 0.78029 0.60648 0.0
C155 C 0.0725 0.75379 0.62051 0.0
C156 C 0.06412 0.76991 0.63632 0.0
C157 C 0.05916 0.83875 0.64298 0.0
H158 H 0.07782 0.87276 0.63767 0.0
H159 H 0.02377 0.82832 0.64414 0.0
H160 H 0.0713 0.83819 0.65675 0.0
O161 O 0.11547 0.88627 0.5814 0.0
O162 O 0.12745 0.83599 0.56876 0.0
H163 H 0.10028 0.71677 0.6094 0.0
H164 H 0.07937 0.70122 0.63209 0.0
C165 C 0.07375 0.71205 0.61881 0.0
H166 H 0.04176 0.6858 0.61348 0.0
H167 H 0.16301 0.77059 0.57308 0.0
O168 O 0.04679 0.88655 0.60947 0.0
C169 C 0.13661 0.87606 0.57033 0.0
Co170 Co 0.21838 0.0688 0.93178 0.0
Co171 Co 0.3039 0.07945 0.91447 0.0
C172 C 0.21478 0.00315 0.90517 0.0
O173 O 0.19584 0.0167 0.91589 0.0
O174 O 0.25645 0.02381 0.90335 0.0
C175 C 0.14268 0.02468 0.95321 0.0
O176 O 0.15069 0.99214 0.95145 0.0
C177 C 0.36523 0.04968 0.90448 0.0
C178 C 0.42915 0.11135 0.90236 0.0
C179 C 0.40953 0.06601 0.90092 0.0
N180 N 0.35872 0.08367 0.9077 0.0
N181 N 0.39708 0.12052 0.90633 0.0
C182 C 0.33033 0.00235 0.90651 0.0
H183 H 0.30639 0.99878 0.91707 0.0
H184 H 0.34488 0.98174 0.91014 0.0
H185 H 0.31248 0.99032 0.89352 0.0
C186 C 0.26318 0.06838 0.96559 0.0
N187 N 0.26315 0.07384 0.94756 0.0
N188 N 0.29858 0.07594 0.94055 0.0
C189 C 0.32152 0.07044 0.95405 0.0
C190 C 0.29941 0.06499 0.97031 0.0
C191 C 0.22917 0.06602 0.97845 0.0
H192 H 0.21574 0.08675 0.97366 0.0
H193 H 0.20231 0.03136 0.97977 0.0
H194 H 0.24367 0.07751 0.99206 0.0
O195 O 0.23634 0.11932 0.91578 0.0
O196 O 0.29793 0.12962 0.90288 0.0
H197 H 0.38592 0.09455 0.94297 0.0
H198 H 0.37711 0.06688 0.96445 0.0
C199 C 0.36174 0.06677 0.95135 0.0
H200 H 0.35259 0.03567 0.94416 0.0
H201 H 0.40153 0.15185 0.90845 0.0
O202 O 0.16816 0.06135 0.94576 0.0
C203 C 0.26778 0.13973 0.90469 0.0
Co204 Co 0.78813 0.85249 0.46249 0.0
Co205 Co 0.69935 0.77901 0.47821 0.0
C206 C 0.78802 0.78985 0.48892 0.0
O207 O 0.80943 0.82183 0.47814 0.0
O208 O 0.74624 0.7714 0.49025 0.0
C209 C 0.83666 0.92997 0.44197 0.0
O210 O 0.80091 0.93279 0.44365 0.0
C211 C 0.63866 0.68627 0.48589 0.0
C212 C 0.5747 0.68261 0.4901 0.0
C213 C 0.59468 0.65717 0.48977 0.0
N214 N 0.64459 0.72701 0.4842 0.0
N215 N 0.60619 0.72464 0.48677 0.0
C216 C 0.67376 0.67502 0.48217 0.0
H217 H 0.6983 0.69885 0.47252 0.0
H218 H 0.65931 0.64125 0.47657 0.0
H219 H 0.69089 0.67663 0.49495 0.0
C220 C 0.74948 0.80548 0.42847 0.0
N221 N 0.74579 0.81244 0.44612 0.0
N222 N 0.70746 0.78153 0.45224 0.0
C223 C 0.68503 0.7542 0.43832 0.0
C224 C 0.71123 0.76825 0.42284 0.0
C225 C 0.78979 0.83333 0.41738 0.0
H226 H 0.79404 0.86661 0.41595 0.0
H227 H 0.81922 0.83655 0.42435 0.0
H228 H 0.78753 0.8198 0.40366 0.0
O229 O 0.7677 0.88435 0.47815 0.0
O230 O 0.70345 0.83434 0.4895 0.0
H231 H 0.61951 0.71926 0.44907 0.0
H232 H 0.6251 0.70172 0.42672 0.0
C233 C 0.64114 0.71322 0.44007 0.0
H234 H 0.64566 0.68687 0.44605 0.0
H235 H 0.60136 0.75155 0.48604 0.0
O236 O 0.838 0.89774 0.449 0.0
C237 C 0.73482 0.87437 0.48832 0.0
Co238 Co 0.92965 0.78193 0.79619 0.0
Co239 Co 0.91962 0.69683 0.81286 0.0
C240 C 0.99527 0.78362 0.82303 0.0
O241 O 0.98024 0.80246 0.81302 0.0
O242 O 0.97623 0.74184 0.82402 0.0
C243 C 0.97668 0.86181 0.77717 0.0
O244 O 0.01117 0.85883 0.78184 0.0
C245 C 0.93934 0.62617 0.82037 0.0
C246 C 0.87243 0.56835 0.82243 0.0
C247 C 0.91666 0.5807 0.82227 0.0
N248 N 0.90979 0.63984 0.81926 0.0
N249 N 0.86992 0.60517 0.8209 0.0
C250 C 0.98783 0.65551 0.81754 0.0
H251 H 0.99469 0.68568 0.81013 0.0
H252 H 0.00179 0.63807 0.80997 0.0
H253 H 0.00434 0.66528 0.83088 0.0
C254 C 0.9329 0.73984 0.76195 0.0
N255 N 0.92587 0.73836 0.77995 0.0
N256 N 0.92341 0.70263 0.78668 0.0
C257 C 0.92993 0.68072 0.77302 0.0
C258 C 0.93663 0.70377 0.7569 0.0
C259 C 0.94157 0.77806 0.75022 0.0
H260 H 0.9191 0.79031 0.75394 0.0
H261 H 0.97623 0.80458 0.75202 0.0
H262 H 0.93669 0.76946 0.73574 0.0
O263 O 0.8766 0.76345 0.81087 0.0
O264 O 0.87119 0.70516 0.82471 0.0
H265 H 0.90529 0.61662 0.78451 0.0
H266 H 0.92723 0.6226 0.76198 0.0
C267 C 0.93155 0.63929 0.77518 0.0
H268 H 0.96399 0.64732 0.78076 0.0
H269 H 0.8409 0.60639 0.82002 0.0
O270 O 0.93861 0.83273 0.78236 0.0
C271 C 0.85835 0.73314 0.82258 0.0
Co272 Co 0.14289 0.92454 0.12869 0.0
Co273 Co 0.22001 0.91883 0.14643 0.0
C274 C 0.2036 0.99171 0.15584 0.0
O275 O 0.17038 0.97587 0.14541 0.0
O276 O 0.22697 0.97363 0.15736 0.0
C277 C 0.11539 0.97101 0.1074 0.0
O278 O 0.15679 0.00168 0.10962 0.0
C279 C 0.31168 0.94956 0.15625 0.0
C280 C 0.31741 0.89036 0.15266 0.0
C281 C 0.34208 0.93532 0.1557 0.0
N282 N 0.27125 0.91512 0.153 0.0
N283 N 0.27477 0.87954 0.15135 0.0
C284 C 0.32082 0.99535 0.15987 0.0
H285 H 0.31249 0.00824 0.14776 0.0
H286 H 0.35558 0.01789 0.16376 0.0
H287 H 0.29978 0.9945 0.1712 0.0
C288 C 0.19039 0.92769 0.09491 0.0
N289 N 0.18439 0.92193 0.11295 0.0
N290 N 0.21915 0.92338 0.12029 0.0
C291 C 0.24947 0.93276 0.10711 0.0
C292 C 0.23248 0.93623 0.09055 0.0
C293 C 0.15772 0.92847 0.08215 0.0
H294 H 0.12395 0.90926 0.08764 0.0
H295 H 0.16644 0.96301 0.07962 0.0
H296 H 0.1578 0.91367 0.069 0.0
O297 O 0.1098 0.8717 0.14352 0.0
O298 O 0.16343 0.86769 0.15762 0.0
H299 H 0.29297 0.91227 0.11753 0.0
H300 H 0.31297 0.94526 0.09747 0.0
C301 C 0.29493 0.94073 0.11032 0.0
H302 H 0.31342 0.97049 0.11881 0.0
H303 H 0.24854 0.84841 0.14813 0.0
O304 O 0.10135 0.93358 0.11464 0.0
C305 C 0.12227 0.85377 0.15519 0.0
Co306 Co 0.21044 0.14939 0.4625 0.0
Co307 Co 0.29825 0.22248 0.47917 0.0
C308 C 0.21453 0.21097 0.49234 0.0
O309 O 0.19482 0.17769 0.48204 0.0
O310 O 0.25625 0.235 0.49214 0.0
C311 C 0.13669 0.13707 0.44454 0.0
O312 O 0.1562 0.17935 0.4482 0.0
C313 C 0.37082 0.31062 0.48932 0.0
C314 C 0.42911 0.30282 0.48645 0.0
C315 C 0.4166 0.33364 0.4902 0.0
N316 N 0.35714 0.26846 0.48489 0.0
N317 N 0.39219 0.26401 0.48334 0.0
C318 C 0.34014 0.32733 0.49365 0.0
H319 H 0.31798 0.30739 0.50478 0.0
H320 H 0.31932 0.32324 0.48173 0.0
H321 H 0.35779 0.36217 0.49805 0.0
C322 C 0.25201 0.19683 0.42866 0.0
N323 N 0.25339 0.1905 0.44655 0.0
N324 N 0.28994 0.22294 0.45333 0.0
C325 C 0.31242 0.25172 0.43984 0.0
C326 C 0.28872 0.23619 0.4238 0.0
C327 C 0.2168 0.16544 0.41608 0.0
H328 H 0.20168 0.13129 0.4212 0.0
H329 H 0.19118 0.17485 0.41467 0.0
H330 H 0.23071 0.16706 0.40245 0.0
O331 O 0.22879 0.11115 0.4743 0.0
O332 O 0.28691 0.16281 0.48929 0.0
H333 H 0.37959 0.28899 0.44828 0.0
H334 H 0.36601 0.31297 0.42956 0.0
C335 C 0.35389 0.29481 0.44246 0.0
H336 H 0.34774 0.31521 0.45213 0.0
H337 H 0.39096 0.23471 0.47973 0.0
O338 O 0.15498 0.11536 0.44936 0.0
C339 C 0.25918 0.12219 0.48596 0.0
Co340 Co 0.06644 0.21524 0.79359 0.0
Co341 Co 0.08255 0.30177 0.81181 0.0
C342 C 0.00254 0.21361 0.81993 0.0
O343 O 0.01205 0.19425 0.8078 0.0
O344 O 0.02769 0.25422 0.82341 0.0
C345 C 0.02083 0.14028 0.77192 0.0
O346 O 0.98934 0.14991 0.77347 0.0
C347 C 0.05166 0.36261 0.82071 0.0
C348 C 0.11197 0.42781 0.8197 0.0
C349 C 0.0665 0.40745 0.82107 0.0
N350 N 0.0864 0.35668 0.8186 0.0
N351 N 0.12253 0.39586 0.81845 0.0
C352 C 0.005 0.32563 0.82234 0.0
H353 H 0.00244 0.305 0.83408 0.0
H354 H 0.99564 0.30476 0.81005 0.0
H355 H 0.98149 0.33745 0.82462 0.0
C356 C 0.07067 0.26257 0.76002 0.0
N357 N 0.07585 0.26183 0.77807 0.0
N358 N 0.07787 0.29681 0.78546 0.0
C359 C 0.07159 0.31975 0.7722 0.0
C360 C 0.06631 0.29859 0.75562 0.0
C361 C 0.06554 0.22696 0.74739 0.0
H362 H 0.08322 0.21069 0.75263 0.0
H363 H 0.03006 0.20274 0.74555 0.0
H364 H 0.07949 0.24013 0.73395 0.0
O365 O 0.11489 0.2304 0.81067 0.0
O366 O 0.13305 0.2953 0.82266 0.0
H367 H 0.09641 0.38398 0.78345 0.0
H368 H 0.0677 0.37555 0.76235 0.0
C369 C 0.06808 0.35989 0.77529 0.0
H370 H 0.0373 0.35059 0.78276 0.0
H371 H 0.15413 0.4009 0.81636 0.0
O372 O 0.05758 0.16449 0.77963 0.0
C373 C 0.13853 0.26197 0.82135 0.0
Co374 Co 0.85361 0.07029 0.12774 0.0
Co375 Co 0.77874 0.08 0.14494 0.0
C376 C 0.79076 0.005 0.155 0.0
O377 O 0.82438 0.02011 0.14477 0.0
O378 O 0.76773 0.02365 0.15611 0.0
C379 C 0.88577 0.02322 0.10851 0.0
O380 O 0.84791 0.98907 0.11322 0.0
C381 C 0.68839 0.06054 0.15289 0.0
C382 C 0.69865 0.12749 0.15624 0.0
C383 C 0.66614 0.08347 0.15557 0.0
N384 N 0.73185 0.0898 0.15182 0.0
N385 N 0.73776 0.12965 0.15421 0.0
C386 C 0.66861 0.01227 0.14944 0.0
H387 H 0.6921 0.00558 0.14205 0.0
H388 H 0.63761 0.99932 0.1416 0.0
H389 H 0.66075 0.99473 0.16256 0.0
C390 C 0.80693 0.06659 0.09379 0.0
N391 N 0.81293 0.07338 0.11178 0.0
N392 N 0.78003 0.07626 0.11875 0.0
C393 C 0.75156 0.0706 0.10523 0.0
C394 C 0.76738 0.06384 0.08896 0.0
C395 C 0.83579 0.05732 0.08185 0.0
H396 H 0.87085 0.0799 0.08523 0.0
H397 H 0.82762 0.02281 0.08388 0.0
H398 H 0.83128 0.06134 0.06737 0.0
O399 O 0.88863 0.12373 0.14226 0.0
O400 O 0.83579 0.12897 0.1563 0.0
H401 H 0.71362 0.09629 0.11731 0.0
H402 H 0.69737 0.07601 0.09457 0.0
C403 C 0.70917 0.07035 0.10763 0.0
H404 H 0.68381 0.03788 0.11288 0.0
H405 H 0.76835 0.1585 0.15359 0.0
O406 O 0.89529 0.06142 0.11365 0.0
C407 C 0.8767 0.14211 0.15396 0.0
H408 H 0.59267 0.51274 0.24752 0.0
H409 H 0.6146 0.6121 0.20778 0.0
H410 H 0.5343 0.57655 0.20269 0.0
H411 H 0.49903 0.42013 0.22498 0.0
H412 H 0.47039 0.39639 0.24582 0.0
H413 H 0.52971 0.42794 0.2455 0.0
H414 H 0.52867 0.47902 0.2705 0.0
H415 H 0.46941 0.44764 0.27091 0.0
H416 H 0.49728 0.50617 0.26707 0.0
H417 H 0.45166 0.53262 0.20309 0.0
H418 H 0.37218 0.4827 0.20874 0.0
H419 H 0.40374 0.41295 0.24876 0.0
C420 C 0.58047 0.52653 0.23757 0.0
C421 C 0.60962 0.56528 0.22811 0.0
C422 C 0.59264 0.58277 0.21533 0.0
C423 C 0.54716 0.56268 0.21228 0.0
C424 C 0.51913 0.52503 0.2221 0.0
C425 C 0.53507 0.50705 0.23448 0.0
C426 C 0.49771 0.4676 0.24385 0.0
C427 C 0.49932 0.42552 0.23979 0.0
C428 C 0.49832 0.47561 0.26429 0.0
C429 C 0.45834 0.4664 0.2349 0.0
C430 C 0.47144 0.49967 0.22232 0.0
C431 C 0.44101 0.50612 0.21274 0.0
C432 C 0.39601 0.47773 0.21606 0.0
C433 C 0.38185 0.44321 0.22877 0.0
C434 C 0.41354 0.43785 0.23841 0.0
H435 H 0.01444 0.59809 0.55631 0.0
H436 H 0.13085 0.62938 0.58775 0.0
H437 H 0.10504 0.55025 0.59086 0.0
H438 H 0.93847 0.50253 0.58167 0.0
H439 H 0.90728 0.47181 0.56222 0.0
H440 H 0.93517 0.53106 0.56207 0.0
H441 H 0.97652 0.53246 0.53289 0.0
H442 H 0.94876 0.47322 0.53295 0.0
H443 H 0.00808 0.50488 0.53253 0.0
H444 H 0.06509 0.46864 0.5923 0.0
H445 H 0.01595 0.38857 0.59005 0.0
H446 H 0.92596 0.40829 0.55662 0.0
C447 C 0.03427 0.58825 0.56397 0.0
C448 C 0.07441 0.61992 0.57202 0.0
C449 C 0.10003 0.60572 0.58148 0.0
C450 C 0.08556 0.56085 0.58339 0.0
C451 C 0.04556 0.53049 0.57558 0.0
C452 C 0.02039 0.54343 0.56592 0.0
C453 C 0.97878 0.50377 0.55881 0.0
C454 C 0.93748 0.50221 0.56666 0.0
C455 C 0.97801 0.50358 0.53806 0.0
C456 C 0.98445 0.46659 0.5661 0.0
C457 C 0.02319 0.48294 0.57579 0.0
C458 C 0.0352 0.45541 0.58439 0.0
C459 C 0.00726 0.40988 0.58284 0.0
C460 C 0.96814 0.39212 0.57245 0.0
C461 C 0.95622 0.42097 0.56427 0.0
H462 H 0.48605 0.07754 0.91568 0.0
H463 H 0.38309 0.9974 0.87744 0.0
H464 H 0.41759 0.95197 0.87221 0.0
H465 H 0.57625 0.07479 0.89222 0.0
H466 H 0.60162 0.07118 0.91278 0.0
H467 H 0.57031 0.099 0.91273 0.0
H468 H 0.52111 0.04833 0.9385 0.0
H469 H 0.55227 0.02041 0.93864 0.0
H470 H 0.49339 0.98945 0.9356 0.0
H471 H 0.46142 0.91333 0.87214 0.0
H472 H 0.51203 0.88457 0.87709 0.0
H473 H 0.58504 0.98825 0.91611 0.0
C474 C 0.47121 0.05076 0.90604 0.0
C475 C 0.4318 0.04067 0.89704 0.0
C476 C 0.41296 0.00519 0.88465 0.0
C477 C 0.43244 0.9794 0.88153 0.0
C478 C 0.4708 0.98957 0.89089 0.0
C479 C 0.49004 0.02441 0.9029 0.0
C480 C 0.53017 0.02709 0.9118 0.0
C481 C 0.57207 0.0706 0.9071 0.0
C482 C 0.52383 0.02094 0.93235 0.0
C483 C 0.53037 0.98826 0.90298 0.0
C484 C 0.49599 0.96721 0.89089 0.0
C485 C 0.48873 0.92983 0.88143 0.0
C486 C 0.51753 0.91368 0.88435 0.0
C487 C 0.55321 0.93499 0.89653 0.0
C488 C 0.55924 0.97242 0.90611 0.0
H489 H 0.51491 0.59273 0.47677 0.0
H490 H 0.62534 0.61313 0.50991 0.0
H491 H 0.59094 0.53285 0.51418 0.0
H492 H 0.42982 0.5004 0.50205 0.0
H493 H 0.39902 0.47165 0.48222 0.0
H494 H 0.43157 0.53087 0.48221 0.0
H495 H 0.47345 0.52833 0.45385 0.0
H496 H 0.44094 0.46916 0.45374 0.0
H497 H 0.5002 0.496 0.45428 0.0
H498 H 0.54555 0.45021 0.51419 0.0
H499 H 0.49207 0.37095 0.50998 0.0
H500 H 0.41196 0.40388 0.47624 0.0
C501 C 0.53159 0.5802 0.48503 0.0
C502 C 0.57306 0.60904 0.49282 0.0
C503 C 0.59403 0.59155 0.50349 0.0
C504 C 0.57458 0.54601 0.50611 0.0
C505 C 0.53404 0.51835 0.49799 0.0
C506 C 0.51275 0.53471 0.48766 0.0
C507 C 0.47006 0.49769 0.47999 0.0
C508 C 0.43027 0.50032 0.48704 0.0
C509 C 0.47126 0.49781 0.45924 0.0
C510 C 0.47071 0.45803 0.48763 0.0
C511 C 0.50783 0.47069 0.49803 0.0
C512 C 0.51617 0.43992 0.5062 0.0
C513 C 0.48569 0.39502 0.50372 0.0
C514 C 0.44723 0.38128 0.49326 0.0
C515 C 0.44007 0.41334 0.48495 0.0
H516 H 0.9897 0.58475 0.83837 0.0
H517 H 0.88185 0.50742 0.80153 0.0
H518 H 0.90989 0.45646 0.79681 0.0
H519 H 0.07308 0.57244 0.81461 0.0
H520 H 0.09871 0.56742 0.83482 0.0
H521 H 0.07094 0.59876 0.83517 0.0
H522 H 0.0218 0.55103 0.86156 0.0
H523 H 0.04947 0.51959 0.86131 0.0
H524 H 0.9904 0.49203 0.85904 0.0
H525 H 0.95036 0.41592 0.79494 0.0
H526 H 0.99726 0.38297 0.79823 0.0
H527 H 0.07752 0.48268 0.83769 0.0
C528 C 0.97227 0.55721 0.82925 0.0
C529 C 0.9338 0.55014 0.82019 0.0
C530 C 0.91129 0.51332 0.80863 0.0
C531 C 0.92709 0.48435 0.80578 0.0
C532 C 0.96521 0.49233 0.81476 0.0
C533 C 0.98734 0.52748 0.82642 0.0
C534 C 0.02675 0.5273 0.83479 0.0
C535 C 0.06993 0.56896 0.82953 0.0
C536 C 0.02179 0.52217 0.8554 0.0
C537 C 0.02317 0.48658 0.82598 0.0
C538 C 0.9876 0.46734 0.81435 0.0
C539 C 0.97777 0.43011 0.80427 0.0
C540 C 0.00439 0.41135 0.80639 0.0
C541 C 0.03985 0.42908 0.81881 0.0
C542 C 0.05 0.46788 0.82841 0.0
H543 H 0.40616 0.92107 0.17022 0.0
H544 H 0.38741 0.00995 0.13573 0.0
H545 H 0.46758 0.05739 0.1328 0.0
H546 H 0.5034 0.00312 0.19337 0.0
H547 H 0.53036 0.97098 0.19355 0.0
H548 H 0.4711 0.94385 0.19344 0.0
H549 H 0.46869 0.90053 0.16474 0.0
H550 H 0.52796 0.92752 0.16477 0.0
H551 H 0.49938 0.93016 0.14504 0.0
H552 H 0.54883 0.09659 0.13418 0.0
H553 H 0.62793 0.12277 0.13779 0.0
H554 H 0.59646 0.00779 0.17014 0.0
C555 C 0.41911 0.95065 0.16215 0.0
C556 C 0.39057 0.96288 0.15387 0.0
C557 C 0.40859 0.00109 0.14296 0.0
C558 C 0.45414 0.02804 0.14103 0.0
C559 C 0.48142 0.01591 0.14976 0.0
C560 C 0.46482 0.97792 0.15993 0.0
C561 C 0.50192 0.97226 0.16743 0.0
C562 C 0.50167 0.97258 0.18818 0.0
C563 C 0.49932 0.93011 0.16005 0.0
C564 C 0.54174 0.01314 0.15997 0.0
C565 C 0.52893 0.03784 0.14991 0.0
C566 C 0.55935 0.07745 0.14192 0.0
C567 C 0.6042 0.09215 0.14414 0.0
C568 C 0.61832 0.06713 0.15408 0.0
C569 C 0.5866 0.02717 0.16218 0.0
H570 H 0.23529 0.26079 0.40731 0.0
H571 H 0.35642 0.25869 0.39984 0.0
H572 H 0.36071 0.28387 0.36819 0.0
H573 H 0.18942 0.21828 0.36567 0.0
H574 H 0.16436 0.25167 0.36252 0.0
H575 H 0.17428 0.23918 0.38495 0.0
H576 H 0.21945 0.32246 0.39241 0.0
H577 H 0.20952 0.33523 0.36996 0.0
H578 H 0.26515 0.35853 0.37818 0.0
H579 H 0.34475 0.2983 0.33594 0.0
H580 H 0.31202 0.30313 0.30704 0.0
H581 H 0.20484 0.30233 0.33629 0.0
C582 C 0.26334 0.26684 0.39912 0.0
C583 C 0.29582 0.25828 0.40599 0.0
C584 C 0.33165 0.26577 0.39487 0.0
C585 C 0.33419 0.27991 0.37688 0.0
C586 C 0.30097 0.28709 0.37034 0.0
C587 C 0.26659 0.28145 0.38128 0.0
C588 C 0.23363 0.2887 0.37086 0.0
C589 C 0.18773 0.24698 0.37101 0.0
C590 C 0.23185 0.32861 0.37829 0.0
C591 C 0.25389 0.29789 0.35216 0.0
C592 C 0.29277 0.29691 0.35209 0.0
C593 C 0.31491 0.30013 0.33598 0.0
C594 C 0.29624 0.30317 0.3196 0.0
C595 C 0.2559 0.30315 0.3194 0.0
C596 C 0.23563 0.30226 0.336 0.0
H597 H 0.01099 0.25542 0.65121 0.0
H598 H 0.88881 0.25317 0.66203 0.0
H599 H 0.91434 0.27995 0.69321 0.0
H600 H 0.02094 0.21578 0.69255 0.0
H601 H 0.07992 0.24979 0.69434 0.0
H602 H 0.05424 0.23582 0.67247 0.0
H603 H 0.09097 0.31857 0.66438 0.0
H604 H 0.11702 0.33282 0.68624 0.0
H605 H 0.08326 0.35518 0.67901 0.0
H606 H 0.94927 0.29613 0.72456 0.0
H607 H 0.99103 0.30301 0.75242 0.0
H608 H 0.09421 0.30278 0.72043 0.0
C609 C 0.99028 0.2619 0.66003 0.0
C610 C 0.9482 0.25289 0.65425 0.0
C611 C 0.92141 0.26064 0.66618 0.0
C612 C 0.93566 0.2757 0.6839 0.0
C613 C 0.97709 0.28349 0.68935 0.0
C614 C 0.00431 0.27751 0.67762 0.0
C615 C 0.04619 0.28577 0.68701 0.0
C616 C 0.05055 0.24433 0.68656 0.0
C617 C 0.08676 0.32545 0.67866 0.0
C618 C 0.0378 0.2959 0.70602 0.0
C619 C 0.99779 0.29445 0.70714 0.0
C620 C 0.9811 0.29838 0.72371 0.0
C621 C 0.00524 0.30263 0.7395 0.0
C622 C 0.04589 0.3033 0.73868 0.0
C623 C 0.06295 0.30164 0.72158 0.0
H624 H 0.79498 0.09464 0.05454 0.0
H625 H 0.68582 0.99126 0.08422 0.0
H626 H 0.65147 0.95351 0.05549 0.0
H627 H 0.73405 0.09217 1.013 0.0
H628 H 0.77884 0.10028 0.99855 0.0
H629 H 0.79003 0.12323 1.021 0.0
H630 H 0.83292 0.08285 1.02813 0.0
H631 H 0.82178 0.05972 1.00578 0.0
H632 H 0.80603 0.02404 1.02515 0.0
H633 H 0.63417 0.92181 1.02346 0.0
H634 H 0.63712 0.89917 0.99193 0.0
H635 H 0.75957 0.02121 0.98363 0.0
C636 C 0.76342 0.06446 0.05494 0.0
C637 C 0.74307 0.04589 0.07163 0.0
C638 C 0.70173 0.00644 0.0716 0.0
C639 C 0.6821 0.98464 0.05532 0.0
C640 C 0.70414 0.00272 0.03911 0.0
C641 C 0.74391 0.04192 0.03884 0.0
C642 C 0.76354 0.05203 1.02002 0.0
C643 C 0.76679 0.09445 1.01271 0.0
C644 C 0.80872 0.0548 1.01976 0.0
C645 C 0.72927 0.01197 1.0098 0.0
C646 C 0.6948 0.98415 1.02091 0.0
C647 C 0.66068 0.94376 1.0146 0.0
C648 C 0.66242 0.93118 0.99667 0.0
C649 C 0.69823 0.95865 0.98534 0.0
C650 C 0.73146 0.99987 0.99195 0.0
H651 H 0.75867 0.73495 0.40707 0.0
H652 H 0.6482 0.75476 0.39789 0.0
H653 H 0.64327 0.72952 0.36622 0.0
H654 H 0.81047 0.77671 0.36622 0.0
H655 H 0.82994 0.73852 0.36304 0.0
H656 H 0.82029 0.7515 0.38546 0.0
H657 H 0.7672 0.66871 0.39182 0.0
H658 H 0.77687 0.6554 0.36941 0.0
H659 H 0.72145 0.6372 0.37684 0.0
H660 H 0.65767 0.71212 0.33438 0.0
H661 H 0.68926 0.70369 0.30579 0.0
H662 H 0.78815 0.69153 0.33597 0.0
C663 C 0.73268 0.73273 0.39849 0.0
C664 C 0.7035 0.74639 0.4049 0.0
C665 C 0.67041 0.74385 0.39327 0.0
C666 C 0.66753 0.72968 0.37526 0.0
C667 C 0.69772 0.7177 0.36916 0.0
C668 C 0.72938 0.71862 0.38053 0.0
C669 C 0.76012 0.7075 0.37039 0.0
C670 C 0.80802 0.74584 0.37134 0.0
C671 C 0.75616 0.66465 0.37754 0.0
C672 C 0.74179 0.70149 0.35141 0.0
C673 C 0.70558 0.70716 0.35097 0.0
C674 C 0.68543 0.70677 0.33467 0.0
C675 C 0.70341 0.70166 0.31848 0.0
C676 C 0.74121 0.69704 0.31862 0.0
C677 C 0.75952 0.69545 0.33539 0.0
H678 H 0.98469 0.74402 0.65194 0.0
H679 H 0.10886 0.74923 0.66126 0.0
H680 H 0.08561 0.72316 0.69268 0.0
H681 H 0.97813 0.78592 0.69346 0.0
H682 H 0.9193 0.75185 0.69589 0.0
H683 H 0.94353 0.76511 0.67375 0.0
H684 H 0.90636 0.68206 0.66603 0.0
H685 H 0.8819 0.66852 0.68819 0.0
H686 H 0.91528 0.64608 0.6805 0.0
H687 H 0.05194 0.70605 0.7244 0.0
H688 H 0.01153 0.69902 0.75276 0.0
H689 H 0.90742 0.70077 0.72218 0.0
C690 C 0.00651 0.73861 0.6605 0.0
C691 C 0.04838 0.74811 0.65417 0.0
C692 C 0.07637 0.74137 0.66578 0.0
C693 C 0.06342 0.72673 0.68365 0.0
C694 C 0.02216 0.71854 0.68961 0.0
C695 C 0.99395 0.72381 0.67825 0.0
C696 C 0.95271 0.71577 0.68813 0.0
C697 C 0.94818 0.75712 0.68779 0.0
C698 C 0.91163 0.67572 0.68024 0.0
C699 C 0.96248 0.70638 0.707 0.0
C700 C 0.00258 0.70788 0.70762 0.0
C701 C 0.02015 0.70396 0.72395 0.0
C702 C 0.99682 0.69966 0.74001 0.0
C703 C 0.95631 0.69931 0.73969 0.0
C704 C 0.93837 0.70108 0.72286 0.0
H705 H 0.2478 0.98424 0.98515 0.0
H706 H 0.36263 0.11129 0.9958 0.0
H707 H 0.36339 0.08899 1.02754 0.0
H708 H 0.194 0.97438 1.02527 0.0
H709 H 0.17174 0.91605 1.02807 0.0
H710 H 0.184 0.93969 1.00583 0.0
H711 H 0.2346 0.90708 0.9999 0.0
H712 H 0.22211 0.88283 1.02208 0.0
H713 H 0.27858 0.91865 1.01545 0.0
H714 H 0.34395 0.05617 0.05923 0.0
H715 H 0.30901 0.01511 0.08724 0.0
H716 H 0.21078 0.90659 0.05539 0.0
C717 C 0.27398 0.00671 0.99405 0.0
C718 C 0.30569 0.04919 0.98804 0.0
C719 C 0.3387 0.07832 1.00011 0.0
C720 C 0.33916 0.06592 1.01815 0.0
C721 C 0.30667 0.02406 1.02382 0.0
C722 C 0.27513 0.99462 1.01199 0.0
C723 C 0.24221 0.95271 1.0216 0.0
C724 C 0.19523 0.9453 1.0201 0.0
C725 C 0.24453 0.91296 1.01433 0.0
C726 C 0.25918 0.96354 0.04082 0.0
C727 C 0.2964 0.00481 0.04186 0.0
C728 C 0.31546 0.02343 0.05847 0.0
C729 C 0.29553 0.99972 0.07434 0.0
C730 C 0.25707 0.95759 0.07358 0.0
C731 C 0.23968 0.93895 0.0565 0.0
H732 H 0.10702 0.06179 0.28709 0.0
H733 H 0.03693 0.13051 0.29995 0.0
H734 H 0.97383 0.06135 0.31069 0.0
H735 H 0.02837 0.98071 0.26645 0.0
H736 H 0.03676 0.93665 0.27389 0.0
H737 H 0.08188 0.99199 0.27401 0.0
H738 H 0.09457 0.98596 0.30807 0.0
H739 H 0.04936 0.92994 0.30803 0.0
H740 H 0.04971 0.96927 0.32377 0.0
H741 H 0.91286 0.98595 0.31073 0.0
H742 H 0.85989 0.911 0.30036 0.0
H743 H 0.96799 0.8892 0.28768 0.0
C744 C 0.07918 0.06248 0.293 0.0
C745 C 0.07652 0.10109 0.29263 0.0
C746 C 0.03937 0.101 0.30005 0.0
C747 C 0.00357 0.06195 0.30638 0.0
C748 C 0.00571 0.0235 0.30536 0.0
C749 C 0.04298 0.02356 0.29915 0.0
C750 C 0.03399 0.9773 0.29588 0.0
C751 C 0.04589 0.97137 0.27641 0.0
C752 C 0.05835 0.96489 0.30977 0.0
C753 C 0.98486 0.9518 0.29913 0.0
C754 C 0.96946 0.97872 0.30536 0.0
C755 C 0.92454 0.96415 0.30646 0.0
C756 C 0.89468 0.92166 0.30038 0.0
C757 C 0.91004 0.89462 0.29313 0.0
C758 C 0.95544 0.90915 0.29335 0.0
H759 H 0.02876 0.09639 0.62731 0.0
H760 H 0.88672 0.02521 0.63302 0.0
H761 H 0.88856 0.95861 0.6416 0.0
H762 H 0.03593 0.02386 0.60407 0.0
H763 H 0.08567 0.02882 0.61335 0.0
H764 H 0.07633 0.07426 0.61481 0.0
H765 H 0.08499 0.07631 0.64957 0.0
H766 H 0.09504 0.03086 0.64822 0.0
H767 H 0.05191 0.02721 0.6626 0.0
H768 H 0.90208 0.89707 0.64009 0.0
H769 H 0.92642 0.84657 0.62908 0.0
H770 H 0.05988 0.95635 0.62415 0.0
C771 C 0.99838 0.06735 0.63126 0.0
C772 C 0.95769 0.06567 0.62944 0.0
C773 C 0.91831 0.02699 0.63428 0.0
C774 C 0.91909 0.98911 0.63935 0.0
C775 C 0.95952 0.99069 0.63968 0.0
C776 C 0.99869 0.02915 0.63609 0.0
C777 C 0.03635 0.02039 0.63368 0.0
C778 C 0.05984 0.03781 0.6154 0.0
C779 C 0.06899 0.03984 0.64947 0.0
C780 C 0.01134 0.97071 0.63437 0.0
C781 C 0.96746 0.95423 0.63864 0.0
C782 C 0.93661 0.90944 0.63733 0.0
C783 C 0.95064 0.88103 0.63092 0.0
C784 C 0.99494 0.89777 0.62565 0.0
C785 C 0.02585 0.94272 0.62819 0.0
H786 H 0.1128 0.08223 0.95511 0.0
H787 H 0.08266 0.95194 0.97194 0.0
H788 H 0.00924 0.93604 0.98192 0.0
H789 H 0.03539 0.09515 0.98962 0.0
H790 H 0.02156 0.12251 0.97247 0.0
H791 H 0.07634 0.13022 0.97341 0.0
H792 H 0.06917 0.1055 0.94003 0.0
H793 H 0.01473 0.09738 0.93903 0.0
H794 H 0.02377 0.05258 0.93348 0.0
H795 H 0.93569 0.92581 0.98102 0.0
H796 H 0.86853 0.92163 0.96896 0.0
H797 H 0.944 0.05805 0.95235 0.0
C798 C 0.09141 0.05107 0.96164 0.0
C799 C 0.10308 0.01819 0.96267 0.0
C800 C 0.0742 0.97755 0.97099 0.0
C801 C 0.03259 0.96844 0.97688 0.0
C802 C 0.02073 0.00049 0.9745 0.0
C803 C 0.04964 0.0414 0.9673 0.0
C804 C 0.02646 0.0665 0.96254 0.0
C805 C 0.04079 0.10592 0.97528 0.0
C806 C 0.03395 0.08125 0.9426 0.0
C807 C 0.9793 0.03136 0.96611 0.0
C808 C 0.9769 0.99432 0.97382 0.0
C809 C 0.93707 0.95501 0.97556 0.0
C810 C 0.89916 0.9528 0.9685 0.0
C811 C 0.90151 0.98959 0.95969 0.0
C812 C 0.94148 0.02986 0.95934 0.0
H813 H 0.90968 0.92752 0.43223 0.0
H814 H 0.85432 0.01332 0.43381 0.0
H815 H 0.92726 0.07676 0.42651 0.0
H816 H 0.99636 0.98911 0.45617 0.0
H817 H 0.03549 0.97898 0.44452 0.0
H818 H 0.978 0.93903 0.44347 0.0
H819 H 0.98029 0.9423 0.40853 0.0
H820 H 0.03836 0.98216 0.40943 0.0
H821 H 0.00146 0.99453 0.39728 0.0
H822 H 0.00671 0.13145 0.42738 0.0
H823 H 0.08497 0.17228 0.43614 0.0
H824 H 0.08917 0.05111 0.43445 0.0
C825 C 0.9126 0.95941 0.43032 0.0
C826 C 0.87667 0.96573 0.43365 0.0
C827 C 0.88152 0.00782 0.43121 0.0
C828 C 0.92281 0.04399 0.42697 0.0
C829 C 0.95842 0.03716 0.42493 0.0
C830 C 0.9535 0.99565 0.42621 0.0
C831 C 0.9975 0.99768 0.42675 0.0
C832 C 0.00206 0.97491 0.44374 0.0
C833 C 0.00483 0.97801 0.40946 0.0
C834 C 0.02789 0.0469 0.42739 0.0
C835 C 0.00495 0.06918 0.42562 0.0
C836 C 0.02523 0.11452 0.42823 0.0
C837 C 0.06964 0.13739 0.43333 0.0
C838 C 0.0929 0.11467 0.43605 0.0
C839 C 0.07219 0.06928 0.43233 0.0
H840 H 0.05106 0.94065 0.77222 0.0
H841 H 0.91268 0.86618 0.75817 0.0
H842 H 0.91698 0.9328 0.74558 0.0
H843 H 0.0496 0.02119 0.79074 0.0
H844 H 0.10178 0.06619 0.78329 0.0
H845 H 0.09368 0.01182 0.78415 0.0
H846 H 0.11424 0.01632 0.75033 0.0
H847 H 0.12281 0.07136 0.74938 0.0
H848 H 0.08541 0.02998 0.73381 0.0
H849 H 0.92834 0.00652 0.74422 0.0
H850 H 0.9461 0.08048 0.75414 0.0
H851 H 0.07766 0.10973 0.7687 0.0
C852 C 0.02236 0.93818 0.76567 0.0
C853 C 0.98161 0.89875 0.76624 0.0
C854 C 0.94423 0.89641 0.75796 0.0
C855 C 0.94651 0.93399 0.75056 0.0
C856 C 0.98647 0.97345 0.7514 0.0
C857 C 0.0241 0.9757 0.75846 0.0
C858 C 0.06006 0.02286 0.76142 0.0
C859 C 0.07717 0.03093 0.78106 0.0
C860 C 0.09786 0.03589 0.74792 0.0
C861 C 0.03487 0.04619 0.7572 0.0
C862 C 0.99321 0.01744 0.75059 0.0
C863 C 0.96133 0.02974 0.74876 0.0
C864 C 0.97154 0.07169 0.75459 0.0
C865 C 0.0131 0.10045 0.76231 0.0
C866 C 0.04574 0.08837 0.76269 0.0
H867 H 0.88789 0.9478 0.1037 0.0
H868 H 0.95713 0.08661 0.09047 0.0
H869 H 0.01972 0.08075 0.07912 0.0
H870 H 0.96646 0.94611 0.1238 0.0
H871 H 0.95847 0.89371 0.11637 0.0
H872 H 0.91306 0.90322 0.11628 0.0
H873 H 0.90033 0.88409 0.08224 0.0
H874 H 0.94587 0.874 0.08224 0.0
H875 H 0.94503 0.9126 0.06649 0.0
H876 H 0.08088 0.06732 0.07904 0.0
H877 H 0.13447 0.04708 0.08993 0.0
H878 H 0.02752 0.91644 0.10299 0.0
C879 C 0.91539 0.97631 0.09756 0.0
C880 C 0.91806 0.01757 0.09804 0.0
C881 C 0.95472 0.05466 0.09031 0.0
C882 C 0.99022 0.05151 0.08362 0.0
C883 C 0.98827 0.011 0.08461 0.0
C884 C 0.95133 0.97369 0.09107 0.0
C885 C 0.96075 0.93677 0.09436 0.0
C886 C 0.94906 0.91903 0.11385 0.0
C887 C 0.93657 0.89968 0.0805 0.0
C888 C 0.00987 0.96096 0.09105 0.0
C889 C 0.02477 0.00303 0.08458 0.0
C890 C 0.06958 0.03401 0.08348 0.0
C891 C 0.09981 0.02239 0.08986 0.0
C892 C 0.08491 0.98033 0.09741 0.0
C893 C 0.03968 0.94869 0.09711 0.0
H894 H 0.96649 0.17608 0.15275 0.0
H895 H 0.86466 0.18015 0.18446 0.0
H896 H 0.91991 0.22344 0.20787 0.0
H897 H 0.01905 0.15834 0.18827 0.0
H898 H 0.07418 0.19155 0.17964 0.0
H899 H 0.02833 0.16687 0.16431 0.0
H900 H 0.05172 0.24349 0.15086 0.0
H901 H 0.0978 0.26849 0.16618 0.0
H902 H 0.05874 0.28745 0.16557 0.0
H903 H 0.98385 0.25572 0.23002 0.0
H904 H 0.05067 0.27607 0.24813 0.0
H905 H 0.112 0.25433 0.20166 0.0
C906 C 0.95586 0.18709 0.16436 0.0
C907 C 0.91092 0.17475 0.16659 0.0
C908 C 0.89872 0.18939 0.18223 0.0
C909 C 0.92999 0.21401 0.19566 0.0
C910 C 0.97365 0.22436 0.19325 0.0
C911 C 0.98666 0.21177 0.17785 0.0
C912 C 0.0347 0.22396 0.17908 0.0
C913 C 0.03931 0.18273 0.17776 0.0
C914 C 0.06238 0.25787 0.16456 0.0
C915 C 0.04648 0.24419 0.19782 0.0
C916 C 0.01085 0.24434 0.20575 0.0
C917 C 0.01227 0.25697 0.22373 0.0
C918 C 0.05046 0.26873 0.23392 0.0
C919 C 0.08718 0.26855 0.22611 0.0
C920 C 0.08531 0.25692 0.20771 0.0
H921 H 0.86249 0.11065 0.53551 0.0
H922 H 0.76824 0.05619 0.57913 0.0
H923 H 0.72235 0.98923 0.56091 0.0
H924 H 0.783 0.05962 0.49673 0.0
H925 H 0.82113 0.04931 0.48437 0.0
H926 H 0.84148 0.09606 0.4993 0.0
H927 H 0.88792 0.06904 0.51625 0.0
H928 H 0.86744 0.02212 0.50152 0.0
H929 H 0.861 0.0143 0.5256 0.0
H930 H 0.69148 0.92369 0.5392 0.0
H931 H 0.68012 0.8665 0.51679 0.0
H932 H 0.79616 0.96286 0.4878 0.0
C933 C 0.83103 0.08557 0.5408 0.0
C934 C 0.81792 0.08949 0.55845 0.0
C935 C 0.77802 0.05461 0.56541 0.0
C936 C 0.75191 0.01629 0.55516 0.0
C937 C 0.76632 0.01281 0.53799 0.0
C938 C 0.80498 0.04671 0.53083 0.0
C939 C 0.81603 0.03279 0.51307 0.0
C940 C 0.81536 0.06114 0.49744 0.0
C941 C 0.86073 0.03467 0.51419 0.0
C942 C 0.77821 0.98563 0.51151 0.0
C943 C 0.7495 0.97478 0.52587 0.0
C944 C 0.7135 0.93216 0.52778 0.0
C945 C 0.70717 0.89976 0.51492 0.0
C946 C 0.73689 0.90982 0.50034 0.0
C947 C 0.77235 0.95378 0.49859 0.0
H948 H 0.82107 0.78569 0.82041 0.0
H949 H 0.82576 0.68805 0.85459 0.0
H950 H 0.785 0.70264 0.87828 0.0
H951 H 0.84186 0.8622 0.85377 0.0
H952 H 0.80577 0.88044 0.84512 0.0
H953 H 0.82931 0.85777 0.83 0.0
H954 H 0.75132 0.79972 0.81903 0.0
H955 H 0.72746 0.82234 0.83412 0.0
H956 H 0.71038 0.76471 0.83526 0.0
H957 H 0.75466 0.73702 0.90013 0.0
H958 H 0.73428 0.78483 0.91722 0.0
H959 H 0.74573 0.85743 0.86848 0.0
C960 C 0.81247 0.76634 0.83266 0.0
C961 C 0.82657 0.73535 0.83548 0.0
C962 C 0.81504 0.71149 0.8519 0.0
C963 C 0.79194 0.71972 0.8655 0.0
C964 C 0.7799 0.75152 0.86247 0.0
C965 C 0.78925 0.77397 0.8463 0.0
C966 C 0.77559 0.80871 0.84681 0.0
C967 C 0.81551 0.855 0.84375 0.0
C968 C 0.73901 0.79823 0.83298 0.0
C969 C 0.7583 0.80338 0.86598 0.0
C970 C 0.76091 0.77007 0.8748 0.0
C971 C 0.75125 0.76219 0.89317 0.0
C972 C 0.73948 0.78937 0.90279 0.0
C973 C 0.73665 0.82364 0.89405 0.0
C974 C 0.74552 0.83012 0.87532 0.0
H975 H 0.03241 0.81769 0.15311 0.0
H976 H 0.13393 0.81725 0.18628 0.0
H977 H 0.07779 0.77399 0.20943 0.0
H978 H 0.97798 0.83618 0.18759 0.0
H979 H 0.9233 0.80215 0.17864 0.0
H980 H 0.96977 0.82654 0.16363 0.0
H981 H 0.94772 0.74954 0.15087 0.0
H982 H 0.901 0.72481 0.16588 0.0
H983 H 0.94052 0.7064 0.16606 0.0
H984 H 0.01257 0.74144 0.23106 0.0
H985 H 0.94492 0.72142 0.24852 0.0
H986 H 0.88514 0.74061 0.20099 0.0
C987 C 0.04287 0.80747 0.16498 0.0
C988 C 0.08794 0.8208 0.16769 0.0
C989 C 0.09981 0.80717 0.18367 0.0
C990 C 0.06802 0.78261 0.19695 0.0
C991 C 0.02422 0.77136 0.19406 0.0
C992 C 0.01161 0.783 0.17833 0.0
C993 C 0.96338 0.77036 0.17906 0.0
C994 C 0.95834 0.81123 0.17712 0.0
C995 C 0.93657 0.73571 0.1646 0.0
C996 C 0.95094 0.75093 0.19788 0.0
C997 C 0.98643 0.75152 0.20629 0.0
C998 C 0.98431 0.73966 0.2244 0.0
C999 C 0.94563 0.72805 0.23421 0.0
C1000 C 0.9091 0.72767 0.22594 0.0
C1001 C 0.91164 0.73842 0.20742 0.0
H1002 H 0.16614 0.96508 0.57103 0.0
H1003 H 0.17589 0.86569 0.53988 0.0
H1004 H 0.21678 0.92091 0.51617 0.0
H1005 H 0.14538 0.015 0.53503 0.0
H1006 H 0.17681 0.07041 0.54358 0.0
H1007 H 0.1534 0.02475 0.55899 0.0
H1008 H 0.23051 0.05109 0.57271 0.0
H1009 H 0.25423 0.097 0.55733 0.0
H1010 H 0.27534 0.05971 0.55816 0.0
H1011 H 0.24654 0.98448 0.49369 0.0
H1012 H 0.26603 0.05119 0.47564 0.0
H1013 H 0.24105 0.11047 0.52198 0.0
C1014 C 0.17783 0.95503 0.55946 0.0
C1015 C 0.16782 0.91074 0.55749 0.0
C1016 C 0.18336 0.89927 0.54192 0.0
C1017 C 0.20658 0.9305 0.5283 0.0
C1018 C 0.21469 0.97346 0.53047 0.0
C1019 C 0.20127 0.98586 0.54582 0.0
C1020 C 0.21166 0.03329 0.54446 0.0
C1021 C 0.1693 0.03599 0.54557 0.0
C1022 C 0.24492 0.06197 0.55903 0.0
C1023 C 0.23204 0.04545 0.52576 0.0
C1024 C 0.23352 0.0105 0.51788 0.0
C1025 C 0.24673 0.0124 0.49995 0.0
C1026 C 0.25796 0.0505 0.48979 0.0
C1027 C 0.25684 0.08668 0.49761 0.0
C1028 C 0.24429 0.08418 0.51592 0.0
H1029 H 0.19932 0.11379 0.88216 0.0
H1030 H 0.32189 0.22921 0.89754 0.0
H1031 H 0.3038 0.27524 0.87766 0.0
H1032 H 0.19974 0.14369 0.83519 0.0
H1033 H 0.14077 0.11999 0.83468 0.0
H1034 H 0.16515 0.09769 0.84955 0.0
H1035 H 0.12553 0.10914 0.87674 0.0
H1036 H 0.10136 0.13189 0.86201 0.0
H1037 H 0.13356 0.16313 0.88116 0.0
H1038 H 0.26598 0.309 0.8573 0.0
H1039 H 0.21855 0.32409 0.83695 0.0
H1040 H 0.12453 0.18426 0.83458 0.0
C1041 C 0.22276 0.14871 0.88112 0.0
C1042 C 0.26213 0.16796 0.89127 0.0
C1043 C 0.29181 0.21375 0.88969 0.0
C1044 C 0.28154 0.24008 0.87852 0.0
C1045 C 0.24173 0.21997 0.86891 0.0
C1046 C 0.21333 0.17501 0.86996 0.0
C1047 C 0.17261 0.16053 0.85855 0.0
C1048 C 0.16941 0.1286 0.8436 0.0
C1049 C 0.13082 0.13997 0.87032 0.0
C1050 C 0.18207 0.20423 0.85082 0.0
C1051 C 0.22167 0.23851 0.85702 0.0
C1052 C 0.23532 0.2821 0.85222 0.0
C1053 C 0.20814 0.2905 0.84071 0.0
C1054 C 0.16815 0.2554 0.83386 0.0
C1055 C 0.15535 0.21191 0.83917 0.0
H1056 H 0.14538 0.13735 0.22016 0.0
H1057 H 0.2854 0.22953 0.22522 0.0
H1058 H 0.30104 0.18235 0.20525 0.0
H1059 H 0.14969 0.03747 0.21874 0.0
H1060 H 0.10693 0.01188 0.20197 0.0
H1061 H 0.10732 0.05198 0.21725 0.0
H1062 H 0.1068 0.09802 0.19006 0.0
H1063 H 0.10654 0.05814 0.1747 0.0
H1064 H 0.14892 0.11516 0.17301 0.0
H1065 H 0.30081 0.12263 0.18565 0.0
H1066 H 0.28471 0.05917 0.16597 0.0
H1067 H 0.14479 0.01041 0.17167 0.0
C1068 C 0.17935 0.14738 0.21719 0.0
C1069 C 0.21427 0.18673 0.22439 0.0
C1070 C 0.25824 0.19937 0.21987 0.0
C1071 C 0.26738 0.17276 0.20859 0.0
C1072 C 0.23212 0.13414 0.20166 0.0
C1073 C 0.18897 0.12185 0.20561 0.0
C1074 C 0.15692 0.08 0.1958 0.0
C1075 C 0.12856 0.04316 0.20924 0.0
C1076 C 0.12811 0.08835 0.18261 0.0
C1077 C 0.18872 0.07029 0.18583 0.0
C1078 C 0.23197 0.10155 0.18954 0.0
C1079 C 0.26707 0.09826 0.1825 0.0
C1080 C 0.25767 0.06211 0.17139 0.0
C1081 C 0.21359 0.03029 0.16717 0.0
C1082 C 0.17883 0.03473 0.17442 0.0
H1083 H 0.00971 0.14373 0.55729 0.0
H1084 H 0.05934 0.28265 0.56651 0.0
H1085 H 0.12481 0.30099 0.54779 0.0
H1086 H 0.1153 0.1472 0.5563 0.0
H1087 H 0.09861 0.1075 0.53828 0.0
H1088 H 0.05816 0.10557 0.55379 0.0
H1089 H 0.01329 0.11011 0.52695 0.0
H1090 H 0.05366 0.11224 0.51137 0.0
H1091 H 0.03972 0.15507 0.5112 0.0
H1092 H 0.1851 0.30368 0.52779 0.0
H1093 H 0.23144 0.29059 0.50621 0.0
H1094 H 0.13827 0.15038 0.50832 0.0
C1095 C 0.0348 0.17795 0.55562 0.0
C1096 C 0.02988 0.21182 0.56347 0.0
C1097 C 0.06266 0.25628 0.5606 0.0
C1098 C 0.09998 0.26696 0.55007 0.0
C1099 C 0.10361 0.23277 0.5423 0.0
C1100 C 0.07165 0.18917 0.54482 0.0
C1101 C 0.08152 0.15874 0.53391 0.0
C1102 C 0.08884 0.12795 0.54631 0.0
C1103 C 0.04487 0.13251 0.52004 0.0
C1104 C 0.12388 0.19197 0.52478 0.0
C1105 C 0.13662 0.23448 0.53 0.0
C1106 C 0.1753 0.27053 0.52353 0.0
C1107 C 0.20141 0.26286 0.51133 0.0
C1108 C 0.18809 0.21961 0.50546 0.0
C1109 C 0.1489 0.18389 0.51236 0.0
H1110 H 0.99976 0.18664 0.85443 0.0
H1111 H 0.91722 0.1792 0.80964 0.0
H1112 H 0.85066 0.12794 0.82711 0.0
H1113 H 0.94034 0.07457 0.86466 0.0
H1114 H 0.94763 0.08119 0.88877 0.0
H1115 H 0.9879 0.12217 0.87394 0.0
H1116 H 0.97819 0.18244 0.88986 0.0
H1117 H 0.93791 0.14156 0.90479 0.0
H1118 H 0.92402 0.17592 0.89161 0.0
H1119 H 0.79401 0.07356 0.84853 0.0
H1120 H 0.75147 0.01675 0.8713 0.0
H1121 H 0.87145 0.05685 0.90173 0.0
C1122 C 0.96749 0.17508 0.8486 0.0
C1123 C 0.96307 0.18735 0.83096 0.0
C1124 C 0.92079 0.17054 0.82331 0.0
C1125 C 0.88299 0.14155 0.83313 0.0
C1126 C 0.8883 0.12944 0.85047 0.0
C1127 C 0.92952 0.14554 0.85811 0.0
C1128 C 0.92651 0.12394 0.87616 0.0
C1129 C 0.9521 0.09899 0.87585 0.0
C1130 C 0.9426 0.158 0.89151 0.0
C1131 C 0.87728 0.09258 0.87733 0.0
C1132 C 0.85578 0.09681 0.86252 0.0
C1133 C 0.81043 0.07025 0.86027 0.0
C1134 C 0.7865 0.03809 0.87333 0.0
C1135 C 0.80796 0.03232 0.88839 0.0
C1136 C 0.85394 0.06048 0.89045 0.0
H1137 H 0.8508 0.85881 0.21779 0.0
H1138 H 0.71107 0.77088 0.2263 0.0
H1139 H 0.69458 0.8182 0.20686 0.0
H1140 H 0.85061 0.96073 0.21654 0.0
H1141 H 0.89077 0.98371 0.19868 0.0
H1142 H 0.89109 0.94395 0.21387 0.0
H1143 H 0.8853 0.89485 0.18667 0.0
H1144 H 0.88487 0.93442 0.17139 0.0
H1145 H 0.8408 0.87795 0.17078 0.0
H1146 H 0.6943 0.87816 0.18745 0.0
H1147 H 0.70986 0.94091 0.16743 0.0
H1148 H 0.84925 0.98439 0.16951 0.0
C1149 C 0.81675 0.84977 0.21567 0.0
C1150 C 0.78215 0.81161 0.22369 0.0
C1151 C 0.73798 0.80014 0.22029 0.0
C1152 C 0.72837 0.82685 0.20932 0.0
C1153 C 0.76332 0.86433 0.20156 0.0
C1154 C 0.8066 0.87533 0.20439 0.0
C1155 C 0.8381 0.9159 0.19379 0.0
C1156 C 0.86948 0.95328 0.20648 0.0
C1157 C 0.86377 0.90512 0.17983 0.0
C1158 C 0.8059 0.92643 0.18472 0.0
C1159 C 0.76293 0.89673 0.18952 0.0
C1160 C 0.72779 0.90125 0.18343 0.0
C1161 C 0.73687 0.93694 0.17211 0.0
C1162 C 0.78062 0.96701 0.16672 0.0
C1163 C 0.81537 0.9614 0.17311 0.0
H1164 H 0.87727 0.82294 0.49035 0.0
H1165 H 0.75428 0.72538 0.51494 0.0
H1166 H 0.7957 0.7062 0.53639 0.0
H1167 H 0.93683 0.76188 0.49609 0.0
H1168 H 0.98804 0.81139 0.50103 0.0
H1169 H 0.94842 0.81346 0.48622 0.0
H1170 H 0.94805 0.87349 0.50645 0.0
H1171 H 0.98755 0.87162 0.52128 0.0
H1172 H 0.93595 0.86281 0.53018 0.0
H1173 H 0.8512 0.70291 0.55718 0.0
H1174 H 0.91625 0.71715 0.57555 0.0
H1175 H 0.00197 0.81696 0.53748 0.0
C1176 C 0.85887 0.79693 0.5 0.0
C1177 C 0.8124 0.77548 0.50083 0.0
C1178 C 0.78981 0.74204 0.51388 0.0
C1179 C 0.81307 0.73087 0.52614 0.0
C1180 C 0.85892 0.75323 0.52513 0.0
C1181 C 0.88153 0.78546 0.51233 0.0
C1182 C 0.93084 0.80691 0.51487 0.0
C1183 C 0.95229 0.79786 0.49858 0.0
C1184 C 0.9518 0.85664 0.51841 0.0
C1185 C 0.9325 0.7828 0.53147 0.0
C1186 C 0.89073 0.75144 0.53706 0.0
C1187 C 0.88405 0.72681 0.55273 0.0
C1188 C 0.92099 0.73494 0.56305 0.0
C1189 C 0.96368 0.76745 0.55761 0.0
C1190 C 0.9695 0.79125 0.54159 0.0
H1191 H 0.14041 0.98674 0.88763 0.0
H1192 H 0.22819 0.93521 0.89574 0.0
H1193 H 0.18157 0.87232 0.87549 0.0
H1194 H 0.03864 0.8846 0.88517 0.0
H1195 H 0.01638 0.90286 0.86749 0.0
H1196 H 0.05571 0.94211 0.88316 0.0
H1197 H 0.10587 0.98729 0.8565 0.0
H1198 H 0.06675 0.94811 0.84074 0.0
H1199 H 0.12323 0.96071 0.84032 0.0
H1200 H 0.12177 0.81274 0.85538 0.0
H1201 H 0.05915 0.76633 0.835 0.0
H1202 H 0.01633 0.86232 0.83807 0.0
C1203 C 0.14954 0.96194 0.88526 0.0
C1204 C 0.18735 0.9652 0.8934 0.0
C1205 C 0.19911 0.93296 0.88965 0.0
C1206 C 0.17281 0.8972 0.87823 0.0
C1207 C 0.1356 0.89496 0.87037 0.0
C1208 C 0.12448 0.92694 0.87354 0.0
C1209 C 0.08434 0.91847 0.86283 0.0
C1210 C 0.04654 0.91159 0.87542 0.0
C1211 C 0.09575 0.95586 0.84929 0.0
C1212 C 0.07403 0.8763 0.85329 0.0
C1213 C 0.10352 0.86281 0.85794 0.0
C1214 C 0.0989 0.82337 0.85147 0.0
C1215 C 0.06329 0.79721 0.83995 0.0
C1216 C 0.03344 0.81115 0.83476 0.0
C1217 C 0.03921 0.8513 0.8415 0.0
loop_
_geom_bond_atom_site_label_1
_geom_bond_atom_site_label_2
_geom_bond_distance
_geom_bond_site_symmetry_2
_ccdc_geom_bond_type
Co0 O3 1.970 . S
Co0 N17 1.989 . S
Co0 O25 1.967 . S
Co0 O32 1.920 . S
Co1 O4 1.966 . S
Co1 N10 2.022 . S
Co1 N18 1.993 . S
Co1 O26 1.941 . S
C2 O3 1.258 . S
C2 O4 1.263 . S
O3 Co0 1.970 . S
O3 C2 1.258 . S
O4 Co1 1.966 . S
O4 C2 1.263 . S
C5 O6 1.235 . S
C5 O32 1.289 . S
O6 C5 1.235 . S
C7 C9 1.400 . S
C7 N10 1.351 . S
C7 C12 1.501 . S
C8 C9 1.387 . S
C8 N11 1.341 . S
C9 C7 1.400 . S
C9 C8 1.387 . S
N10 Co1 2.022 . S
N10 C7 1.351 . S
N10 N11 1.365 . S
N11 C8 1.341 . S
N11 N10 1.365 . S
N11 H31 0.862 . S
C12 C7 1.501 . S
C12 H13 0.961 . S
C12 H14 0.961 . S
C12 H15 0.960 . S
H13 C12 0.961 . S
H14 C12 0.961 . S
H15 C12 0.960 . S
C16 N17 1.342 . S
C16 C20 1.401 . S
C16 C21 1.499 . S
N17 Co0 1.989 . S
N17 C16 1.342 . S
N17 N18 1.388 . S
N18 Co1 1.993 . S
N18 N17 1.388 . S
N18 C19 1.346 . S
C19 N18 1.346 . S
C19 C20 1.396 . S
C19 C29 1.510 . S
C20 C16 1.401 . S
C20 C19 1.396 . S
C21 C16 1.499 . S
C21 H22 0.959 . S
C21 H23 0.960 . S
C21 H24 0.961 . S
H22 C21 0.959 . S
H23 C21 0.960 . S
H24 C21 0.961 . S
O25 Co0 1.967 . S
O25 C33 1.258 . S
O26 Co1 1.941 . S
O26 C33 1.266 . S
H27 C29 0.959 . S
H28 C29 0.961 . S
C29 C19 1.510 . S
C29 H27 0.959 . S
C29 H28 0.961 . S
C29 H30 0.960 . S
H30 C29 0.960 . S
H31 N11 0.862 . S
O32 Co0 1.920 . S
O32 C5 1.289 . S
C33 O25 1.258 . S
C33 O26 1.266 . S
Co34 O37 1.970 . S
Co34 N51 1.989 . S
Co34 O59 1.967 . S
Co34 O66 1.920 . S
Co35 O38 1.966 . S
Co35 N44 2.022 . S
Co35 N52 1.993 . S
Co35 O60 1.941 . S
C36 O37 1.250 . S
C36 O38 1.284 . S
O37 Co34 1.970 . S
O37 C36 1.250 . S
O38 Co35 1.966 . S
O38 C36 1.284 . S
C39 O40 1.235 1_655 S
C39 O66 1.289 . S
O40 C39 1.235 1_455 S
C41 C43 1.400 . S
C41 N44 1.351 . S
C41 C46 1.501 . S
C42 C43 1.387 . S
C42 N45 1.341 . S
C43 C41 1.400 . S
C43 C42 1.387 . S
N44 Co35 2.022 . S
N44 C41 1.351 . S
N44 N45 1.365 . S
N45 C42 1.341 . S
N45 N44 1.365 . S
N45 H65 0.862 . S
C46 C41 1.501 . S
C46 H47 0.961 . S
C46 H48 0.961 1_655 S
C46 H49 0.960 1_655 S
H47 C46 0.961 . S
H48 C46 0.961 1_455 S
H49 C46 0.960 1_455 S
C50 N51 1.342 . S
C50 C54 1.401 . S
C50 C55 1.499 . S
N51 Co34 1.989 . S
N51 C50 1.342 . S
N51 N52 1.388 . S
N52 Co35 1.993 . S
N52 N51 1.388 . S
N52 C53 1.346 . S
C53 N52 1.346 . S
C53 C54 1.396 . S
C53 C63 1.510 . S
C54 C50 1.401 . S
C54 C53 1.396 . S
C55 C50 1.499 . S
C55 H56 0.959 . S
C55 H57 0.960 . S
C55 H58 0.961 . S
H56 C55 0.959 . S
H57 C55 0.960 . S
H58 C55 0.961 . S
O59 Co34 1.967 . S
O59 C67 1.258 . S
O60 Co35 1.941 . S
O60 C67 1.266 . S
H61 C63 0.959 . S
H62 C63 0.961 . S
C63 C53 1.510 . S
C63 H61 0.959 . S
C63 H62 0.961 . S
C63 H64 0.960 . S
H64 C63 0.960 . S
H65 N45 0.862 . S
O66 Co34 1.920 . S
O66 C39 1.289 . S
C67 O59 1.258 . S
C67 O60 1.266 . S
Co68 O71 1.970 . S
Co68 N85 1.989 . S
Co68 O93 1.967 . S
Co68 O100 1.920 . S
Co69 O72 1.966 . S
Co69 N78 2.022 . S
Co69 N86 1.993 . S
Co69 O94 1.941 . S
C70 O71 1.269 . S
C70 O72 1.265 . S
O71 Co68 1.970 . S
O71 C70 1.269 . S
O72 Co69 1.966 . S
O72 C70 1.265 . S
C73 O74 1.235 1_565 S
C73 O100 1.289 . S
O74 C73 1.235 1_545 S
C75 C77 1.400 . S
C75 N78 1.351 . S
C75 C80 1.501 . S
C76 C77 1.387 . S
C76 N79 1.341 . S
C77 C75 1.400 . S
C77 C76 1.387 . S
N78 Co69 2.022 . S
N78 C75 1.351 . S
N78 N79 1.365 . S
N79 C76 1.341 . S
N79 N78 1.365 . S
N79 H99 0.862 . S
C80 C75 1.501 . S
C80 H81 0.961 . S
C80 H82 0.961 1_565 S
C80 H83 0.960 1_565 S
H81 C80 0.961 . S
H82 C80 0.961 1_545 S
H83 C80 0.960 1_545 S
C84 N85 1.342 . S
C84 C88 1.401 . S
C84 C89 1.499 . S
N85 Co68 1.989 . S
N85 C84 1.342 . S
N85 N86 1.388 . S
N86 Co69 1.993 . S
N86 N85 1.388 . S
N86 C87 1.346 . S
C87 N86 1.346 . S
C87 C88 1.396 . S
C87 C97 1.510 . S
C88 C84 1.401 . S
C88 C87 1.396 . S
C89 C84 1.499 . S
C89 H90 0.959 . S
C89 H91 0.960 . S
C89 H92 0.961 . S
H90 C89 0.959 . S
H91 C89 0.960 . S
H92 C89 0.961 . S
O93 Co68 1.967 . S
O93 C101 1.258 . S
O94 Co69 1.941 . S
O94 C101 1.266 . S
H95 C97 0.959 . S
H96 C97 0.961 . S
C97 C87 1.510 . S
C97 H95 0.959 . S
C97 H96 0.961 . S
C97 H98 0.960 . S
H98 C97 0.960 . S
H99 N79 0.862 . S
O100 Co68 1.920 . S
O100 C73 1.289 . S
C101 O93 1.258 . S
C101 O94 1.266 . S
Co102 O105 1.970 . S
Co102 N119 1.989 . S
Co102 O127 1.967 . S
Co102 O134 1.920 . S
Co103 O106 1.966 . S
Co103 N112 2.022 . S
Co103 N120 1.993 . S
Co103 O128 1.941 . S
C104 O105 1.258 . S
C104 O106 1.263 . S
O105 Co102 1.970 . S
O105 C104 1.258 . S
O106 Co103 1.966 . S
O106 C104 1.263 . S
C107 O108 1.235 . S
C107 O134 1.289 . S
O108 C107 1.235 . S
C109 C111 1.400 . S
C109 N112 1.351 . S
C109 C114 1.501 . S
C110 C111 1.387 . S
C110 N113 1.341 . S
C111 C109 1.400 . S
C111 C110 1.387 . S
N112 Co103 2.022 . S
N112 C109 1.351 . S
N112 N113 1.365 . S
N113 C110 1.341 . S
N113 N112 1.365 . S
N113 H133 0.862 . S
C114 C109 1.501 . S
C114 H115 0.961 . S
C114 H116 0.961 . S
C114 H117 0.960 . S
H115 C114 0.961 . S
H116 C114 0.961 . S
H117 C114 0.960 . S
C118 N119 1.342 . S
C118 C122 1.401 . S
C118 C123 1.499 . S
N119 Co102 1.989 . S
N119 C118 1.342 . S
N119 N120 1.388 . S
N120 Co103 1.993 . S
N120 N119 1.388 . S
N120 C121 1.346 . S
C121 N120 1.346 . S
C121 C122 1.396 . S
C121 C131 1.510 . S
C122 C118 1.401 . S
C122 C121 1.396 . S
C123 C118 1.499 . S
C123 H124 0.959 . S
C123 H125 0.960 . S
C123 H126 0.961 . S
H124 C123 0.959 . S
H125 C123 0.960 . S
H126 C123 0.961 . S
O127 Co102 1.967 . S
O127 C135 1.258 . S
O128 Co103 1.941 . S
O128 C135 1.266 . S
H129 C131 0.959 . S
H130 C131 0.961 . S
C131 C121 1.510 . S
C131 H129 0.959 . S
C131 H130 0.961 . S
C131 H132 0.960 . S
H132 C131 0.960 . S
H133 N113 0.862 . S
O134 Co102 1.920 . S
O134 C107 1.289 . S
C135 O127 1.258 . S
C135 O128 1.266 . S
Co136 O139 1.970 . S
Co136 N153 1.989 . S
Co136 O161 1.967 . S
Co136 O168 1.920 . S
Co137 O140 1.966 . S
Co137 N146 2.022 . S
Co137 N154 1.993 . S
Co137 O162 1.941 . S
C138 O139 1.249 . S
C138 O140 1.284 . S
O139 Co136 1.970 . S
O139 C138 1.249 . S
O140 Co137 1.966 . S
O140 C138 1.284 . S
C141 O142 1.235 1_455 S
C141 O168 1.289 . S
O142 C141 1.235 1_655 S
C143 C145 1.400 . S
C143 N146 1.351 . S
C143 C148 1.501 . S
C144 C145 1.387 . S
C144 N147 1.341 . S
C145 C143 1.400 . S
C145 C144 1.387 . S
N146 Co137 2.022 . S
N146 C143 1.351 . S
N146 N147 1.365 . S
N147 C144 1.341 . S
N147 N146 1.365 . S
N147 H167 0.862 . S
C148 C143 1.501 . S
C148 H149 0.961 . S
C148 H150 0.961 1_455 S
C148 H151 0.960 1_455 S
H149 C148 0.961 . S
H150 C148 0.961 1_655 S
H151 C148 0.960 1_655 S
C152 N153 1.342 . S
C152 C156 1.401 . S
C152 C157 1.499 . S
N153 Co136 1.989 . S
N153 C152 1.342 . S
N153 N154 1.388 . S
N154 Co137 1.993 . S
N154 N153 1.388 . S
N154 C155 1.346 . S
C155 N154 1.346 . S
C155 C156 1.396 . S
C155 C165 1.510 . S
C156 C152 1.401 . S
C156 C155 1.396 . S
C157 C152 1.499 . S
C157 H158 0.959 . S
C157 H159 0.960 . S
C157 H160 0.961 . S
H158 C157 0.959 . S
H159 C157 0.960 . S
H160 C157 0.961 . S
O161 Co136 1.967 . S
O161 C169 1.258 . S
O162 Co137 1.941 . S
O162 C169 1.266 . S
H163 C165 0.959 . S
H164 C165 0.961 . S
C165 C155 1.510 . S
C165 H163 0.959 . S
C165 H164 0.961 . S
C165 H166 0.960 . S
H166 C165 0.960 . S
H167 N147 0.862 . S
O168 Co136 1.920 . S
O168 C141 1.289 . S
C169 O161 1.258 . S
C169 O162 1.266 . S
Co170 O173 1.970 . S
Co170 N187 1.989 . S
Co170 O195 1.967 . S
Co170 O202 1.920 . S
Co171 O174 1.966 . S
Co171 N180 2.022 . S
Co171 N188 1.993 . S
Co171 O196 1.941 . S
C172 O173 1.269 . S
C172 O174 1.265 . S
O173 Co170 1.970 . S
O173 C172 1.269 . S
O174 Co171 1.966 . S
O174 C172 1.265 . S
C175 O176 1.235 1_545 S
C175 O202 1.289 . S
O176 C175 1.235 1_565 S
C177 C179 1.400 . S
C177 N180 1.351 . S
C177 C182 1.501 . S
C178 C179 1.387 . S
C178 N181 1.341 . S
C179 C177 1.400 . S
C179 C178 1.387 . S
N180 Co171 2.022 . S
N180 C177 1.351 . S
N180 N181 1.365 . S
N181 C178 1.341 . S
N181 N180 1.365 . S
N181 H201 0.862 . S
C182 C177 1.501 . S
C182 H183 0.961 . S
C182 H184 0.961 1_545 S
C182 H185 0.960 1_545 S
H183 C182 0.961 . S
H184 C182 0.961 1_565 S
H185 C182 0.960 1_565 S
C186 N187 1.342 . S
C186 C190 1.401 . S
C186 C191 1.499 . S
N187 Co170 1.989 . S
N187 C186 1.342 . S
N187 N188 1.388 . S
N188 Co171 1.993 . S
N188 N187 1.388 . S
N188 C189 1.346 . S
C189 N188 1.346 . S
C189 C190 1.396 . S
C189 C199 1.510 . S
C190 C186 1.401 . S
C190 C189 1.396 . S
C191 C186 1.499 . S
C191 H192 0.959 . S
C191 H193 0.960 . S
C191 H194 0.961 . S
H192 C191 0.959 . S
H193 C191 0.960 . S
H194 C191 0.961 . S
O195 Co170 1.967 . S
O195 C203 1.258 . S
O196 Co171 1.941 . S
O196 C203 1.266 . S
H197 C199 0.959 . S
H198 C199 0.961 . S
C199 C189 1.510 . S
C199 H197 0.959 . S
C199 H198 0.961 . S
C199 H200 0.960 . S
H200 C199 0.960 . S
H201 N181 0.862 . S
O202 Co170 1.920 . S
O202 C175 1.289 . S
C203 O195 1.258 . S
C203 O196 1.266 . S
Co204 O207 1.970 . S
Co204 N221 1.989 . S
Co204 O229 1.967 . S
Co204 O236 1.920 . S
Co205 O208 1.966 . S
Co205 N214 2.022 . S
Co205 N222 1.993 . S
Co205 O230 1.941 . S
C206 O207 1.258 . S
C206 O208 1.263 . S
O207 Co204 1.970 . S
O207 C206 1.258 . S
O208 Co205 1.966 . S
O208 C206 1.263 . S
C209 O210 1.235 . S
C209 O236 1.289 . S
O210 C209 1.235 . S
C211 C213 1.400 . S
C211 N214 1.351 . S
C211 C216 1.501 . S
C212 C213 1.387 . S
C212 N215 1.341 . S
C213 C211 1.400 . S
C213 C212 1.387 . S
N214 Co205 2.022 . S
N214 C211 1.351 . S
N214 N215 1.365 . S
N215 C212 1.341 . S
N215 N214 1.365 . S
N215 H235 0.862 . S
C216 C211 1.501 . S
C216 H217 0.961 . S
C216 H218 0.961 . S
C216 H219 0.960 . S
H217 C216 0.961 . S
H218 C216 0.961 . S
H219 C216 0.960 . S
C220 N221 1.342 . S
C220 C224 1.401 . S
C220 C225 1.499 . S
N221 Co204 1.989 . S
N221 C220 1.342 . S
N221 N222 1.388 . S
N222 Co205 1.993 . S
N222 N221 1.388 . S
N222 C223 1.346 . S
C223 N222 1.346 . S
C223 C224 1.396 . S
C223 C233 1.510 . S
C224 C220 1.401 . S
C224 C223 1.396 . S
C225 C220 1.499 . S
C225 H226 0.959 . S
C225 H227 0.960 . S
C225 H228 0.961 . S
H226 C225 0.959 . S
H227 C225 0.960 . S
H228 C225 0.961 . S
O229 Co204 1.967 . S
O229 C237 1.258 . S
O230 Co205 1.941 . S
O230 C237 1.266 . S
H231 C233 0.959 . S
H232 C233 0.961 . S
C233 C223 1.510 . S
C233 H231 0.959 . S
C233 H232 0.961 . S
C233 H234 0.960 . S
H234 C233 0.960 . S
H235 N215 0.862 . S
O236 Co204 1.920 . S
O236 C209 1.289 . S
C237 O229 1.258 . S
C237 O230 1.266 . S
Co238 O241 1.970 . S
Co238 N255 1.989 . S
Co238 O263 1.967 . S
Co238 O270 1.920 . S
Co239 O242 1.966 . S
Co239 N248 2.022 . S
Co239 N256 1.993 . S
Co239 O264 1.941 . S
C240 O241 1.269 . S
C240 O242 1.265 . S
O241 Co238 1.970 . S
O241 C240 1.269 . S
O242 Co239 1.966 . S
O242 C240 1.265 . S
C243 O244 1.235 1_655 S
C243 O270 1.289 . S
O244 C243 1.235 1_455 S
C245 C247 1.400 . S
C245 N248 1.351 . S
C245 C250 1.501 . S
C246 C247 1.387 . S
C246 N249 1.341 . S
C247 C245 1.400 . S
C247 C246 1.387 . S
N248 Co239 2.022 . S
N248 C245 1.351 . S
N248 N249 1.365 . S
N249 C246 1.341 . S
N249 N248 1.365 . S
N249 H269 0.862 . S
C250 C245 1.501 . S
C250 H251 0.961 . S
C250 H252 0.961 1_655 S
C250 H253 0.960 1_655 S
H251 C250 0.961 . S
H252 C250 0.961 1_455 S
H253 C250 0.960 1_455 S
C254 N255 1.342 . S
C254 C258 1.401 . S
C254 C259 1.499 . S
N255 Co238 1.989 . S
N255 C254 1.342 . S
N255 N256 1.388 . S
N256 Co239 1.993 . S
N256 N255 1.388 . S
N256 C257 1.346 . S
C257 N256 1.346 . S
C257 C258 1.396 . S
C257 C267 1.510 . S
C258 C254 1.401 . S
C258 C257 1.396 . S
C259 C254 1.499 . S
C259 H260 0.959 . S
C259 H261 0.960 . S
C259 H262 0.961 . S
H260 C259 0.959 . S
H261 C259 0.960 . S
H262 C259 0.961 . S
O263 Co238 1.967 . S
O263 C271 1.258 . S
O264 Co239 1.941 . S
O264 C271 1.266 . S
H265 C267 0.959 . S
H266 C267 0.961 . S
C267 C257 1.510 . S
C267 H265 0.959 . S
C267 H266 0.961 . S
C267 H268 0.960 . S
H268 C267 0.960 . S
H269 N249 0.862 . S
O270 Co238 1.920 . S
O270 C243 1.289 . S
C271 O263 1.258 . S
C271 O264 1.266 . S
Co272 O275 1.970 . S
Co272 N289 1.989 . S
Co272 O297 1.967 . S
Co272 O304 1.920 . S
Co273 O276 1.966 . S
Co273 N282 2.022 . S
Co273 N290 1.993 . S
Co273 O298 1.941 . S
C274 O275 1.249 . S
C274 O276 1.284 . S
O275 Co272 1.970 . S
O275 C274 1.249 . S
O276 Co273 1.966 . S
O276 C274 1.284 . S
C277 O278 1.235 1_565 S
C277 O304 1.289 . S
O278 C277 1.235 1_545 S
C279 C281 1.400 . S
C279 N282 1.351 . S
C279 C284 1.501 . S
C280 C281 1.387 . S
C280 N283 1.341 . S
C281 C279 1.400 . S
C281 C280 1.387 . S
N282 Co273 2.022 . S
N282 C279 1.351 . S
N282 N283 1.365 . S
N283 C280 1.341 . S
N283 N282 1.365 . S
N283 H303 0.862 . S
C284 C279 1.501 . S
C284 H285 0.961 . S
C284 H286 0.961 1_565 S
C284 H287 0.960 1_565 S
H285 C284 0.961 . S
H286 C284 0.961 1_545 S
H287 C284 0.960 1_545 S
C288 N289 1.342 . S
C288 C292 1.401 . S
C288 C293 1.499 . S
N289 Co272 1.989 . S
N289 C288 1.342 . S
N289 N290 1.388 . S
N290 Co273 1.993 . S
N290 N289 1.388 . S
N290 C291 1.346 . S
C291 N290 1.346 . S
C291 C292 1.396 . S
C291 C301 1.510 . S
C292 C288 1.401 . S
C292 C291 1.396 . S
C293 C288 1.499 . S
C293 H294 0.959 . S
C293 H295 0.960 . S
C293 H296 0.961 . S
H294 C293 0.959 . S
H295 C293 0.960 . S
H296 C293 0.961 . S
O297 Co272 1.967 . S
O297 C305 1.258 . S
O298 Co273 1.941 . S
O298 C305 1.266 . S
H299 C301 0.959 . S
H300 C301 0.961 . S
C301 C291 1.510 . S
C301 H299 0.959 . S
C301 H300 0.961 . S
C301 H302 0.960 . S
H302 C301 0.960 . S
H303 N283 0.862 . S
O304 Co272 1.920 . S
O304 C277 1.289 . S
C305 O297 1.258 . S
C305 O298 1.266 . S
Co306 O309 1.970 . S
Co306 N323 1.989 . S
Co306 O331 1.967 . S
Co306 O338 1.920 . S
Co307 O310 1.966 . S
Co307 N316 2.022 . S
Co307 N324 1.993 . S
Co307 O332 1.941 . S
C308 O309 1.258 . S
C308 O310 1.263 . S
O309 Co306 1.970 . S
O309 C308 1.258 . S
O310 Co307 1.966 . S
O310 C308 1.263 . S
C311 O312 1.235 . S
C311 O338 1.289 . S
O312 C311 1.235 . S
C313 C315 1.400 . S
C313 N316 1.351 . S
C313 C318 1.501 . S
C314 C315 1.387 . S
C314 N317 1.341 . S
C315 C313 1.400 . S
C315 C314 1.387 . S
N316 Co307 2.022 . S
N316 C313 1.351 . S
N316 N317 1.365 . S
N317 C314 1.341 . S
N317 N316 1.365 . S
N317 H337 0.862 . S
C318 C313 1.501 . S
C318 H319 0.961 . S
C318 H320 0.961 . S
C318 H321 0.960 . S
H319 C318 0.961 . S
H320 C318 0.961 . S
H321 C318 0.960 . S
C322 N323 1.342 . S
C322 C326 1.401 . S
C322 C327 1.499 . S
N323 Co306 1.989 . S
N323 C322 1.342 . S
N323 N324 1.388 . S
N324 Co307 1.993 . S
N324 N323 1.388 . S
N324 C325 1.346 . S
C325 N324 1.346 . S
C325 C326 1.396 . S
C325 C335 1.510 . S
C326 C322 1.401 . S
C326 C325 1.396 . S
C327 C322 1.499 . S
C327 H328 0.959 . S
C327 H329 0.960 . S
C327 H330 0.961 . S
H328 C327 0.959 . S
H329 C327 0.960 . S
H330 C327 0.961 . S
O331 Co306 1.967 . S
O331 C339 1.258 . S
O332 Co307 1.941 . S
O332 C339 1.266 . S
H333 C335 0.959 . S
H334 C335 0.961 . S
C335 C325 1.510 . S
C335 H333 0.959 . S
C335 H334 0.961 . S
C335 H336 0.960 . S
H336 C335 0.960 . S
H337 N317 0.862 . S
O338 Co306 1.920 . S
O338 C311 1.289 . S
C339 O331 1.258 . S
C339 O332 1.266 . S
Co340 O343 1.970 . S
Co340 N357 1.989 . S
Co340 O365 1.967 . S
Co340 O372 1.920 . S
Co341 O344 1.966 . S
Co341 N350 2.022 . S
Co341 N358 1.993 . S
Co341 O366 1.941 . S
C342 O343 1.269 . S
C342 O344 1.265 . S
O343 Co340 1.970 . S
O343 C342 1.269 . S
O344 Co341 1.966 . S
O344 C342 1.265 . S
C345 O346 1.235 1_455 S
C345 O372 1.289 . S
O346 C345 1.235 1_655 S
C347 C349 1.400 . S
C347 N350 1.351 . S
C347 C352 1.501 . S
C348 C349 1.387 . S
C348 N351 1.341 . S
C349 C347 1.400 . S
C349 C348 1.387 . S
N350 Co341 2.022 . S
N350 C347 1.351 . S
N350 N351 1.365 . S
N351 C348 1.341 . S
N351 N350 1.365 . S
N351 H371 0.862 . S
C352 C347 1.501 . S
C352 H353 0.961 . S
C352 H354 0.961 1_455 S
C352 H355 0.960 1_455 S
H353 C352 0.961 . S
H354 C352 0.961 1_655 S
H355 C352 0.960 1_655 S
C356 N357 1.342 . S
C356 C360 1.401 . S
C356 C361 1.499 . S
N357 Co340 1.989 . S
N357 C356 1.342 . S
N357 N358 1.388 . S
N358 Co341 1.993 . S
N358 N357 1.388 . S
N358 C359 1.346 . S
C359 N358 1.346 . S
C359 C360 1.396 . S
C359 C369 1.510 . S
C360 C356 1.401 . S
C360 C359 1.396 . S
C361 C356 1.499 . S
C361 H362 0.959 . S
C361 H363 0.960 . S
C361 H364 0.961 . S
H362 C361 0.959 . S
H363 C361 0.960 . S
H364 C361 0.961 . S
O365 Co340 1.967 . S
O365 C373 1.258 . S
O366 Co341 1.941 . S
O366 C373 1.266 . S
H367 C369 0.959 . S
H368 C369 0.961 . S
C369 C359 1.510 . S
C369 H367 0.959 . S
C369 H368 0.961 . S
C369 H370 0.960 . S
H370 C369 0.960 . S
H371 N351 0.862 . S
O372 Co340 1.920 . S
O372 C345 1.289 . S
C373 O365 1.258 . S
C373 O366 1.266 . S
Co374 O377 1.970 . S
Co374 N391 1.989 . S
Co374 O399 1.967 . S
Co374 O406 1.920 . S
Co375 O378 1.966 . S
Co375 N384 2.022 . S
Co375 N392 1.993 . S
Co375 O400 1.941 . S
C376 O377 1.250 . S
C376 O378 1.284 . S
O377 Co374 1.970 . S
O377 C376 1.250 . S
O378 Co375 1.966 . S
O378 C376 1.284 . S
C379 O380 1.235 1_545 S
C379 O406 1.289 . S
O380 C379 1.235 1_565 S
C381 C383 1.400 . S
C381 N384 1.351 . S
C381 C386 1.501 . S
C382 C383 1.387 . S
C382 N385 1.341 . S
C383 C381 1.400 . S
C383 C382 1.387 . S
N384 Co375 2.022 . S
N384 C381 1.351 . S
N384 N385 1.365 . S
N385 C382 1.341 . S
N385 N384 1.365 . S
N385 H405 0.862 . S
C386 C381 1.501 . S
C386 H387 0.961 . S
C386 H388 0.961 1_545 S
C386 H389 0.960 1_545 S
H387 C386 0.961 . S
H388 C386 0.961 1_565 S
H389 C386 0.960 1_565 S
C390 N391 1.342 . S
C390 C394 1.401 . S
C390 C395 1.499 . S
N391 Co374 1.989 . S
N391 C390 1.342 . S
N391 N392 1.388 . S
N392 Co375 1.993 . S
N392 N391 1.388 . S
N392 C393 1.346 . S
C393 N392 1.346 . S
C393 C394 1.396 . S
C393 C403 1.510 . S
C394 C390 1.401 . S
C394 C393 1.396 . S
C395 C390 1.499 . S
C395 H396 0.959 . S
C395 H397 0.960 . S
C395 H398 0.961 . S
H396 C395 0.959 . S
H397 C395 0.960 . S
H398 C395 0.961 . S
O399 Co374 1.967 . S
O399 C407 1.258 . S
O400 Co375 1.941 . S
O400 C407 1.266 . S
H401 C403 0.959 . S
H402 C403 0.961 . S
C403 C393 1.510 . S
C403 H401 0.959 . S
C403 H402 0.961 . S
C403 H404 0.960 . S
H404 C403 0.960 . S
H405 N385 0.862 . S
O406 Co374 1.920 . S
O406 C379 1.289 . S
C407 O399 1.258 . S
C407 O400 1.266 . S
H408 C420 0.930 . S
H409 C422 0.930 . S
H410 C423 0.930 . S
H411 C427 0.959 . S
H412 C427 0.959 . S
H413 C427 0.961 . S
H414 C428 0.960 . S
H415 C428 0.961 . S
H416 C428 0.959 . S
H417 C431 0.929 . S
H418 C432 0.931 . S
H419 C434 0.930 . S
C420 H408 0.930 . S
C420 C421 1.399 . S
C420 C425 1.399 . S
C421 C420 1.399 . S
C421 C422 1.376 . S
C422 H409 0.930 . S
C422 C421 1.376 . S
C422 C423 1.388 . S
C423 H410 0.930 . S
C423 C422 1.388 . S
C423 C424 1.390 . S
C424 C423 1.390 . S
C424 C425 1.394 . S
C424 C430 1.465 . S
C425 C420 1.399 . S
C425 C424 1.394 . S
C425 C426 1.516 . S
C426 C425 1.516 . S
C426 C427 1.502 . S
C426 C428 1.561 . S
C426 C429 1.526 . S
C427 H411 0.959 . S
C427 H412 0.959 . S
C427 H413 0.961 . S
C427 C426 1.502 . S
C428 H414 0.960 . S
C428 H415 0.961 . S
C428 H416 0.959 . S
C428 C426 1.561 . S
C429 C426 1.526 . S
C429 C430 1.396 . S
C429 C434 1.390 . S
C430 C424 1.465 . S
C430 C429 1.396 . S
C430 C431 1.399 . S
C431 H417 0.929 . S
C431 C430 1.399 . S
C431 C432 1.385 . S
C432 H418 0.931 . S
C432 C431 1.385 . S
C432 C433 1.389 . S
C433 C432 1.389 . S
C433 C434 1.387 . S
C434 H419 0.930 . S
C434 C429 1.390 . S
C434 C433 1.387 . S
H435 C447 0.930 . S
H436 C449 0.930 . S
H437 C450 0.930 . S
H438 C454 0.959 . S
H439 C454 0.959 . S
H440 C454 0.961 . S
H441 C455 0.960 . S
H442 C455 0.961 . S
H443 C455 0.959 . S
H444 C458 0.929 . S
H445 C459 0.931 . S
H446 C461 0.930 . S
C447 H435 0.930 . S
C447 C448 1.399 . S
C447 C452 1.399 . S
C448 C447 1.399 . S
C448 C449 1.376 . S
C449 H436 0.930 . S
C449 C448 1.376 . S
C449 C450 1.388 . S
C450 H437 0.930 . S
C450 C449 1.388 . S
C450 C451 1.390 . S
C451 C450 1.390 . S
C451 C452 1.394 . S
C451 C457 1.465 1_455 S
C452 C447 1.399 . S
C452 C451 1.394 . S
C452 C453 1.516 . S
C453 C452 1.516 . S
C453 C454 1.502 1_455 S
C453 C455 1.561 . S
C453 C456 1.526 1_455 S
C454 H438 0.959 . S
C454 H439 0.959 . S
C454 H440 0.961 . S
C454 C453 1.502 1_655 S
C455 H441 0.960 . S
C455 H442 0.961 . S
C455 H443 0.959 . S
C455 C453 1.561 . S
C456 C453 1.526 1_655 S
C456 C457 1.396 . S
C456 C461 1.390 . S
C457 C451 1.465 1_655 S
C457 C456 1.396 . S
C457 C458 1.399 . S
C458 H444 0.929 . S
C458 C457 1.399 . S
C458 C459 1.385 . S
C459 H445 0.931 . S
C459 C458 1.385 . S
C459 C460 1.389 . S
C460 C459 1.389 . S
C460 C461 1.387 . S
C461 H446 0.930 . S
C461 C456 1.390 . S
C461 C460 1.387 . S
H462 C474 0.930 . S
H463 C476 0.930 . S
H464 C477 0.930 1_565 S
H465 C481 0.959 . S
H466 C481 0.959 . S
H467 C481 0.961 . S
H468 C482 0.960 . S
H469 C482 0.961 . S
H470 C482 0.959 . S
H471 C485 0.929 . S
H472 C486 0.931 . S
H473 C488 0.930 . S
C474 H462 0.930 . S
C474 C475 1.399 . S
C474 C479 1.399 . S
C475 C474 1.399 . S
C475 C476 1.376 . S
C476 H463 0.930 . S
C476 C475 1.376 . S
C476 C477 1.388 . S
C477 H464 0.930 1_545 S
C477 C476 1.388 . S
C477 C478 1.390 1_545 S
C478 C477 1.390 1_565 S
C478 C479 1.394 1_565 S
C478 C484 1.465 . S
C479 C474 1.399 . S
C479 C478 1.394 1_545 S
C479 C480 1.516 . S
C480 C479 1.516 . S
C480 C481 1.502 . S
C480 C482 1.561 1_545 S
C480 C483 1.526 1_545 S
C481 H465 0.959 . S
C481 H466 0.959 . S
C481 H467 0.961 . S
C481 C480 1.502 . S
C482 H468 0.960 . S
C482 H469 0.961 . S
C482 H470 0.959 . S
C482 C480 1.561 1_565 S
C483 C480 1.526 1_565 S
C483 C484 1.396 . S
C483 C488 1.390 . S
C484 C478 1.465 . S
C484 C483 1.396 . S
C484 C485 1.399 . S
C485 H471 0.929 . S
C485 C484 1.399 . S
C485 C486 1.385 . S
C486 H472 0.931 . S
C486 C485 1.385 . S
C486 C487 1.389 . S
C487 C486 1.389 . S
C487 C488 1.387 . S
C488 H473 0.930 . S
C488 C483 1.390 . S
C488 C487 1.387 . S
H489 C501 0.930 . S
H490 C503 0.930 . S
H491 C504 0.930 . S
H492 C508 0.959 . S
H493 C508 0.959 . S
H494 C508 0.961 . S
H495 C509 0.960 . S
H496 C509 0.961 . S
H497 C509 0.959 . S
H498 C512 0.929 . S
H499 C513 0.931 . S
H500 C515 0.930 . S
C501 H489 0.930 . S
C501 C502 1.399 . S
C501 C506 1.399 . S
C502 C501 1.399 . S
C502 C503 1.376 . S
C503 H490 0.930 . S
C503 C502 1.376 . S
C503 C504 1.388 . S
C504 H491 0.930 . S
C504 C503 1.388 . S
C504 C505 1.390 . S
C505 C504 1.390 . S
C505 C506 1.394 . S
C505 C511 1.465 . S
C506 C501 1.399 . S
C506 C505 1.394 . S
C506 C507 1.516 . S
C507 C506 1.516 . S
C507 C508 1.502 . S
C507 C509 1.561 . S
C507 C510 1.526 . S
C508 H492 0.959 . S
C508 H493 0.959 . S
C508 H494 0.961 . S
C508 C507 1.502 . S
C509 H495 0.960 . S
C509 H496 0.961 . S
C509 H497 0.959 . S
C509 C507 1.561 . S
C510 C507 1.526 . S
C510 C511 1.396 . S
C510 C515 1.390 . S
C511 C505 1.465 . S
C511 C510 1.396 . S
C511 C512 1.399 . S
C512 H498 0.929 . S
C512 C511 1.399 . S
C512 C513 1.385 . S
C513 H499 0.931 . S
C513 C512 1.385 . S
C513 C514 1.389 . S
C514 C513 1.389 . S
C514 C515 1.387 . S
C515 H500 0.930 . S
C515 C510 1.390 . S
C515 C514 1.387 . S
H516 C528 0.930 . S
H517 C530 0.930 . S
H518 C531 0.930 . S
H519 C535 0.959 . S
H520 C535 0.959 . S
H521 C535 0.961 . S
H522 C536 0.960 . S
H523 C536 0.961 . S
H524 C536 0.959 . S
H525 C539 0.929 . S
H526 C540 0.931 . S
H527 C542 0.930 . S
C528 H516 0.930 . S
C528 C529 1.399 . S
C528 C533 1.399 . S
C529 C528 1.399 . S
C529 C530 1.376 . S
C530 H517 0.930 . S
C530 C529 1.376 . S
C530 C531 1.388 . S
C531 H518 0.930 . S
C531 C530 1.388 . S
C531 C532 1.390 . S
C532 C531 1.390 . S
C532 C533 1.394 . S
C532 C538 1.465 . S
C533 C528 1.399 . S
C533 C532 1.394 . S
C533 C534 1.516 1_655 S
C534 C533 1.516 1_455 S
C534 C535 1.502 . S
C534 C536 1.561 1_455 S
C534 C537 1.526 . S
C535 H519 0.959 . S
C535 H520 0.959 . S
C535 H521 0.961 . S
C535 C534 1.502 . S
C536 H522 0.960 . S
C536 H523 0.961 . S
C536 H524 0.959 . S
C536 C534 1.561 1_655 S
C537 C534 1.526 . S
C537 C538 1.396 1_455 S
C537 C542 1.390 . S
C538 C532 1.465 . S
C538 C537 1.396 1_655 S
C538 C539 1.399 . S
C539 H525 0.929 . S
C539 C538 1.399 . S
C539 C540 1.385 1_655 S
C540 H526 0.931 . S
C540 C539 1.385 1_455 S
C540 C541 1.389 . S
C541 C540 1.389 . S
C541 C542 1.387 . S
C542 H527 0.930 . S
C542 C537 1.390 . S
C542 C541 1.387 . S
H543 C555 0.930 . S
H544 C557 0.930 . S
H545 C558 0.930 . S
H546 C562 0.959 . S
H547 C562 0.959 . S
H548 C562 0.961 1_565 S
H549 C563 0.960 . S
H550 C563 0.961 . S
H551 C563 0.959 . S
H552 C566 0.929 . S
H553 C567 0.931 . S
H554 C569 0.930 . S
C555 H543 0.930 . S
C555 C556 1.399 . S
C555 C560 1.399 . S
C556 C555 1.399 . S
C556 C557 1.376 . S
C557 H544 0.930 . S
C557 C556 1.376 . S
C557 C558 1.388 . S
C558 H545 0.930 . S
C558 C557 1.388 . S
C558 C559 1.390 . S
C559 C558 1.390 . S
C559 C560 1.394 . S
C559 C565 1.465 1_565 S
C560 C555 1.399 . S
C560 C559 1.394 . S
C560 C561 1.516 . S
C561 C560 1.516 . S
C561 C562 1.502 1_565 S
C561 C563 1.561 . S
C561 C564 1.526 1_565 S
C562 H546 0.959 . S
C562 H547 0.959 . S
C562 H548 0.961 1_545 S
C562 C561 1.502 1_545 S
C563 H549 0.960 . S
C563 H550 0.961 . S
C563 H551 0.959 . S
C563 C561 1.561 . S
C564 C561 1.526 1_545 S
C564 C565 1.396 . S
C564 C569 1.390 . S
C565 C559 1.465 1_545 S
C565 C564 1.396 . S
C565 C566 1.399 . S
C566 H552 0.929 . S
C566 C565 1.399 . S
C566 C567 1.385 . S
C567 H553 0.931 . S
C567 C566 1.385 . S
C567 C568 1.389 . S
C568 C567 1.389 . S
C568 C569 1.387 . S
C569 H554 0.930 . S
C569 C564 1.390 . S
C569 C568 1.387 . S
H570 C582 0.930 . S
H571 C584 0.930 . S
H572 C585 0.930 . S
H573 C589 0.959 . S
H574 C589 0.959 . S
H575 C589 0.961 . S
H576 C590 0.960 . S
H577 C590 0.961 . S
H578 C590 0.959 . S
H579 C593 0.929 . S
H580 C594 0.931 . S
H581 C596 0.930 . S
C582 H570 0.930 . S
C582 C583 1.399 . S
C582 C587 1.399 . S
C583 C582 1.399 . S
C583 C584 1.376 . S
C584 H571 0.930 . S
C584 C583 1.376 . S
C584 C585 1.388 . S
C585 H572 0.930 . S
C585 C584 1.388 . S
C585 C586 1.390 . S
C586 C585 1.390 . S
C586 C587 1.394 . S
C586 C592 1.465 . S
C587 C582 1.399 . S
C587 C586 1.394 . S
C587 C588 1.516 . S
C588 C587 1.516 . S
C588 C589 1.502 . S
C588 C590 1.561 . S
C588 C591 1.526 . S
C589 H573 0.959 . S
C589 H574 0.959 . S
C589 H575 0.961 . S
C589 C588 1.502 . S
C590 H576 0.960 . S
C590 H577 0.961 . S
C590 H578 0.959 . S
C590 C588 1.561 . S
C591 C588 1.526 . S
C591 C592 1.396 . S
C591 C596 1.390 . S
C592 C586 1.465 . S
C592 C591 1.396 . S
C592 C593 1.399 . S
C593 H579 0.929 . S
C593 C592 1.399 . S
C593 C594 1.385 . S
C594 H580 0.931 . S
C594 C593 1.385 . S
C594 C595 1.389 . S
C595 C594 1.389 . S
C595 C596 1.387 . S
C596 H581 0.930 . S
C596 C591 1.390 . S
C596 C595 1.387 . S
H597 C609 0.930 . S
H598 C611 0.930 . S
H599 C612 0.930 . S
H600 C616 0.959 . S
H601 C616 0.959 . S
H602 C616 0.961 . S
H603 C617 0.960 . S
H604 C617 0.961 . S
H605 C617 0.959 1_655 S
H606 C620 0.929 . S
H607 C621 0.931 . S
H608 C623 0.930 . S
C609 H597 0.930 . S
C609 C610 1.399 . S
C609 C614 1.399 . S
C610 C609 1.399 . S
C610 C611 1.376 . S
C611 H598 0.930 . S
C611 C610 1.376 . S
C611 C612 1.388 . S
C612 H599 0.930 . S
C612 C611 1.388 . S
C612 C613 1.390 . S
C613 C612 1.390 . S
C613 C614 1.394 . S
C613 C619 1.465 . S
C614 C609 1.399 . S
C614 C613 1.394 . S
C614 C615 1.516 1_655 S
C615 C614 1.516 1_455 S
C615 C616 1.502 . S
C615 C617 1.561 . S
C615 C618 1.526 . S
C616 H600 0.959 . S
C616 H601 0.959 . S
C616 H602 0.961 . S
C616 C615 1.502 . S
C617 H603 0.960 . S
C617 H604 0.961 . S
C617 H605 0.959 1_455 S
C617 C615 1.561 . S
C618 C615 1.526 . S
C618 C619 1.396 1_455 S
C618 C623 1.390 . S
C619 C613 1.465 . S
C619 C618 1.396 1_655 S
C619 C620 1.399 . S
C620 H606 0.929 . S
C620 C619 1.399 . S
C620 C621 1.385 1_655 S
C621 H607 0.931 . S
C621 C620 1.385 1_455 S
C621 C622 1.389 . S
C622 C621 1.389 . S
C622 C623 1.387 . S
C623 H608 0.930 . S
C623 C618 1.390 . S
C623 C622 1.387 . S
H624 C636 0.930 . S
H625 C638 0.921 1_565 S
H626 C639 0.930 . S
H627 C643 0.959 . S
H628 C643 0.959 . S
H629 C643 0.961 . S
H630 C644 0.960 . S
H631 C644 0.961 . S
H632 C644 0.959 . S
H633 C647 0.929 . S
H634 C648 0.931 . S
H635 C650 0.930 1_545 S
C636 H624 0.930 . S
C636 C637 1.399 . S
C636 C641 1.399 . S
C637 C636 1.399 . S
C637 C638 1.399 . S
C638 H625 0.921 1_545 S
C638 C637 1.399 . S
C638 C639 1.375 1_545 S
C639 H626 0.930 . S
C639 C638 1.375 1_565 S
C639 C640 1.390 . S
C640 C639 1.390 . S
C640 C641 1.394 1_565 S
C640 C646 1.465 1_554 S
C641 C636 1.399 . S
C641 C640 1.394 1_545 S
C641 C642 1.516 1_554 S
C642 C641 1.516 1_556 S
C642 C643 1.502 . S
C642 C644 1.561 . S
C642 C645 1.526 . S
C643 H627 0.959 . S
C643 H628 0.959 . S
C643 H629 0.961 . S
C643 C642 1.502 . S
C644 H630 0.960 . S
C644 H631 0.961 . S
C644 H632 0.959 . S
C644 C642 1.561 . S
C645 C642 1.526 . S
C645 C646 1.396 1_545 S
C645 C650 1.390 1_545 S
C646 C640 1.465 1_556 S
C646 C645 1.396 1_565 S
C646 C647 1.399 . S
C647 H633 0.929 . S
C647 C646 1.399 . S
C647 C648 1.385 . S
C648 H634 0.931 . S
C648 C647 1.385 . S
C648 C649 1.389 . S
C649 C648 1.389 . S
C649 C650 1.387 . S
C650 H635 0.930 1_565 S
C650 C645 1.390 1_565 S
C650 C649 1.387 . S
H651 C663 0.930 . S
H652 C665 0.930 . S
H653 C666 0.930 . S
H654 C670 0.959 . S
H655 C670 0.959 . S
H656 C670 0.961 . S
H657 C671 0.960 . S
H658 C671 0.961 . S
H659 C671 0.959 . S
H660 C674 0.929 . S
H661 C675 0.931 . S
H662 C677 0.930 . S
C663 H651 0.930 . S
C663 C664 1.399 . S
C663 C668 1.399 . S
C664 C663 1.399 . S
C664 C665 1.376 . S
C665 H652 0.930 . S
C665 C664 1.376 . S
C665 C666 1.388 . S
C666 H653 0.930 . S
C666 C665 1.388 . S
C666 C667 1.390 . S
C667 C666 1.390 . S
C667 C668 1.394 . S
C667 C673 1.465 . S
C668 C663 1.399 . S
C668 C667 1.394 . S
C668 C669 1.516 . S
C669 C668 1.516 . S
C669 C670 1.502 . S
C669 C671 1.561 . S
C669 C672 1.526 . S
C670 H654 0.959 . S
C670 H655 0.959 . S
C670 H656 0.961 . S
C670 C669 1.502 . S
C671 H657 0.960 . S
C671 H658 0.961 . S
C671 H659 0.959 . S
C671 C669 1.561 . S
C672 C669 1.526 . S
C672 C673 1.396 . S
C672 C677 1.390 . S
C673 C667 1.465 . S
C673 C672 1.396 . S
C673 C674 1.399 . S
C674 H660 0.929 . S
C674 C673 1.399 . S
C674 C675 1.385 . S
C675 H661 0.931 . S
C675 C674 1.385 . S
C675 C676 1.389 . S
C676 C675 1.389 . S
C676 C677 1.387 . S
C677 H662 0.930 . S
C677 C672 1.390 . S
C677 C676 1.387 . S
H678 C690 0.930 . S
H679 C692 0.930 . S
H680 C693 0.930 . S
H681 C697 0.959 . S
H682 C697 0.959 . S
H683 C697 0.961 . S
H684 C698 0.960 1_455 S
H685 C698 0.961 . S
H686 C698 0.959 1_455 S
H687 C701 0.929 . S
H688 C702 0.931 . S
H689 C704 0.930 . S
C690 H678 0.930 . S
C690 C691 1.399 . S
C690 C695 1.399 . S
C691 C690 1.399 . S
C691 C692 1.376 . S
C692 H679 0.930 . S
C692 C691 1.376 . S
C692 C693 1.388 . S
C693 H680 0.930 . S
C693 C692 1.388 . S
C693 C694 1.390 . S
C694 C693 1.390 . S
C694 C695 1.394 . S
C694 C700 1.465 . S
C695 C690 1.399 . S
C695 C694 1.394 . S
C695 C696 1.516 1_455 S
C696 C695 1.516 1_655 S
C696 C697 1.502 . S
C696 C698 1.561 . S
C696 C699 1.526 . S
C697 H681 0.959 . S
C697 H682 0.959 . S
C697 H683 0.961 . S
C697 C696 1.502 . S
C698 H684 0.960 1_655 S
C698 H685 0.961 . S
C698 H686 0.959 1_655 S
C698 C696 1.561 . S
C699 C696 1.526 . S
C699 C700 1.396 1_655 S
C699 C704 1.390 . S
C700 C694 1.465 . S
C700 C699 1.396 1_455 S
C700 C701 1.399 . S
C701 H687 0.929 . S
C701 C700 1.399 . S
C701 C702 1.385 1_455 S
C702 H688 0.931 . S
C702 C701 1.385 1_655 S
C702 C703 1.389 . S
C703 C702 1.389 . S
C703 C704 1.387 . S
C704 H689 0.930 . S
C704 C699 1.390 . S
C704 C703 1.387 . S
H705 C717 0.930 1_565 S
H706 C719 0.930 . S
H707 C720 0.930 . S
H708 C724 0.959 . S
H709 C724 0.959 . S
H710 C724 0.961 . S
H711 C725 0.960 . S
H712 C725 0.961 . S
H713 C725 0.959 . S
H714 C728 0.929 . S
H715 C729 0.931 . S
H716 C731 0.930 . S
C717 H705 0.930 1_545 S
C717 C718 1.399 . S
C717 C722 1.393 1_545 S
C718 C717 1.399 . S
C718 C719 1.376 . S
C719 H706 0.930 . S
C719 C718 1.376 . S
C719 C720 1.388 . S
C720 H707 0.930 . S
C720 C719 1.388 . S
C720 C721 1.390 . S
C721 C720 1.390 . S
C721 C722 1.391 1_545 S
C721 C727 1.465 1_556 S
C722 C717 1.393 1_565 S
C722 C721 1.391 1_565 S
C722 C723 1.526 . S
C723 C722 1.526 . S
C723 C724 1.502 . S
C723 C725 1.561 . S
C723 C726 1.526 1_556 S
C724 H708 0.959 . S
C724 H709 0.959 . S
C724 H710 0.961 . S
C724 C723 1.502 . S
C725 H711 0.960 . S
C725 H712 0.961 . S
C725 H713 0.959 . S
C725 C723 1.561 . S
C726 C723 1.526 1_554 S
C726 C727 1.396 1_565 S
C726 C731 1.390 . S
C727 C721 1.465 1_554 S
C727 C726 1.396 1_545 S
C727 C728 1.399 . S
C728 H714 0.929 . S
C728 C727 1.399 . S
C728 C729 1.385 1_545 S
C729 H715 0.931 . S
C729 C728 1.385 1_565 S
C729 C730 1.389 . S
C730 C729 1.389 . S
C730 C731 1.387 . S
C731 H716 0.930 . S
C731 C726 1.390 . S
C731 C730 1.387 . S
H732 C744 0.930 . S
H733 C746 0.930 . S
H734 C747 0.930 . S
H735 C751 0.959 . S
H736 C751 0.959 1_565 S
H737 C751 0.961 1_455 S
H738 C752 0.960 1_545 S
H739 C752 0.961 . S
H740 C752 0.959 . S
H741 C755 0.929 . S
H742 C756 0.931 . S
H743 C758 0.930 . S
C744 H732 0.930 . S
C744 C745 1.399 . S
C744 C749 1.399 . S
C745 C744 1.399 . S
C745 C746 1.376 . S
C746 H733 0.930 . S
C746 C745 1.376 . S
C746 C747 1.388 . S
C747 H734 0.930 . S
C747 C746 1.388 . S
C747 C748 1.390 . S
C748 C747 1.390 . S
C748 C749 1.394 . S
C748 C754 1.465 1_445 S
C749 C744 1.399 . S
C749 C748 1.394 . S
C749 C750 1.516 1_545 S
C750 C749 1.516 1_565 S
C750 C751 1.502 1_465 S
C750 C752 1.561 . S
C750 C753 1.526 1_455 S
C751 H735 0.959 . S
C751 H736 0.959 1_545 S
C751 H737 0.961 1_655 S
C751 C750 1.502 1_645 S
C752 H738 0.960 1_565 S
C752 H739 0.961 . S
C752 H740 0.959 . S
C752 C750 1.561 . S
C753 C750 1.526 1_655 S
C753 C754 1.396 . S
C753 C758 1.390 . S
C754 C748 1.465 1_665 S
C754 C753 1.396 . S
C754 C755 1.399 . S
C755 H741 0.929 . S
C755 C754 1.399 . S
C755 C756 1.385 . S
C756 H742 0.931 . S
C756 C755 1.385 . S
C756 C757 1.389 . S
C757 C756 1.389 . S
C757 C758 1.387 . S
C758 H743 0.930 . S
C758 C753 1.390 . S
C758 C757 1.387 . S
H759 C771 0.930 . S
H760 C773 0.930 . S
H761 C774 0.930 1_565 S
H762 C778 0.959 . S
H763 C778 0.959 . S
H764 C778 0.961 . S
H765 C779 0.960 . S
H766 C779 0.961 . S
H767 C779 0.959 . S
H768 C782 0.929 . S
H769 C783 0.931 . S
H770 C785 0.930 . S
C771 H759 0.930 . S
C771 C772 1.399 1_455 S
C771 C776 1.399 . S
C772 C771 1.399 1_655 S
C772 C773 1.376 . S
C773 H760 0.930 . S
C773 C772 1.376 . S
C773 C774 1.388 . S
C774 H761 0.930 1_545 S
C774 C773 1.388 . S
C774 C775 1.390 . S
C775 C774 1.390 . S
C775 C776 1.394 1_655 S
C775 C781 1.465 1_545 S
C776 C771 1.399 . S
C776 C775 1.394 1_455 S
C776 C777 1.516 . S
C777 C776 1.516 . S
C777 C778 1.502 . S
C777 C779 1.561 . S
C777 C780 1.526 1_545 S
C778 H762 0.959 . S
C778 H763 0.959 . S
C778 H764 0.961 . S
C778 C777 1.502 . S
C779 H765 0.960 . S
C779 H766 0.961 . S
C779 H767 0.959 . S
C779 C777 1.561 . S
C780 C777 1.526 1_565 S
C780 C781 1.396 1_455 S
C780 C785 1.390 . S
C781 C775 1.465 1_565 S
C781 C780 1.396 1_655 S
C781 C782 1.399 . S
C782 H768 0.929 . S
C782 C781 1.399 . S
C782 C783 1.385 . S
C783 H769 0.931 . S
C783 C782 1.385 . S
C783 C784 1.389 1_655 S
C784 C783 1.389 1_455 S
C784 C785 1.387 . S
C785 H770 0.930 . S
C785 C780 1.390 . S
C785 C784 1.387 . S
H786 C798 0.930 . S
H787 C800 0.918 1_565 S
H788 C801 0.930 . S
H789 C805 0.959 . S
H790 C805 0.959 1_655 S
H791 C805 0.961 . S
H792 C806 0.960 1_455 S
H793 C806 0.961 . S
H794 C806 0.959 . S
H795 C809 0.929 . S
H796 C810 0.931 . S
H797 C812 0.930 . S
C798 H786 0.930 . S
C798 C799 1.399 . S
C798 C803 1.399 . S
C799 C798 1.399 . S
C799 C800 1.376 . S
C800 H787 0.918 1_545 S
C800 C799 1.376 . S
C800 C801 1.388 1_545 S
C801 H788 0.930 . S
C801 C800 1.388 1_565 S
C801 C802 1.390 . S
C802 C801 1.390 . S
C802 C803 1.394 1_565 S
C802 C808 1.465 1_455 S
C803 C798 1.399 . S
C803 C802 1.394 1_545 S
C803 C804 1.516 . S
C804 C803 1.516 . S
C804 C805 1.502 . S
C804 C806 1.561 1_445 S
C804 C807 1.526 1_445 S
C805 H789 0.959 . S
C805 H790 0.959 1_455 S
C805 H791 0.961 . S
C805 C804 1.502 . S
C806 H792 0.960 1_655 S
C806 H793 0.961 . S
C806 H794 0.959 . S
C806 C804 1.561 1_665 S
C807 C804 1.526 1_665 S
C807 C808 1.396 . S
C807 C812 1.390 . S
C808 C802 1.465 1_655 S
C808 C807 1.396 . S
C808 C809 1.399 . S
C809 H795 0.929 . S
C809 C808 1.399 . S
C809 C810 1.385 . S
C810 H796 0.931 . S
C810 C809 1.385 . S
C810 C811 1.389 . S
C811 C810 1.389 . S
C811 C812 1.387 . S
C812 H797 0.930 . S
C812 C807 1.390 . S
C812 C811 1.387 . S
H813 C825 0.930 . S
H814 C827 0.930 . S
H815 C828 0.930 . S
H816 C832 0.959 . S
H817 C832 0.959 . S
H818 C832 0.961 1_655 S
H819 C833 0.960 1_565 S
H820 C833 0.961 1_455 S
H821 C833 0.959 . S
H822 C836 0.929 . S
H823 C837 0.931 . S
H824 C839 0.930 . S
C825 H813 0.930 . S
C825 C826 1.399 . S
C825 C830 1.399 . S
C826 C825 1.399 . S
C826 C827 1.376 . S
C827 H814 0.930 . S
C827 C826 1.376 . S
C827 C828 1.388 . S
C828 H815 0.930 . S
C828 C827 1.388 . S
C828 C829 1.390 . S
C829 C828 1.390 . S
C829 C830 1.394 . S
C829 C835 1.465 1_665 S
C830 C825 1.399 . S
C830 C829 1.394 . S
C830 C831 1.516 1_655 S
C831 C830 1.516 1_455 S
C831 C832 1.502 . S
C831 C833 1.561 1_465 S
C831 C834 1.526 1_565 S
C832 H816 0.959 . S
C832 H817 0.959 . S
C832 H818 0.961 1_455 S
C832 C831 1.502 . S
C833 H819 0.960 1_545 S
C833 H820 0.961 1_655 S
C833 H821 0.959 . S
C833 C831 1.561 1_645 S
C834 C831 1.526 1_545 S
C834 C835 1.396 . S
C834 C839 1.390 . S
C835 C829 1.465 1_445 S
C835 C834 1.396 . S
C835 C836 1.399 . S
C836 H822 0.929 . S
C836 C835 1.399 . S
C836 C837 1.385 . S
C837 H823 0.931 . S
C837 C836 1.385 . S
C837 C838 1.389 . S
C838 C837 1.389 . S
C838 C839 1.387 . S
C839 H824 0.930 . S
C839 C834 1.390 . S
C839 C838 1.387 . S
H840 C852 0.930 . S
H841 C854 0.930 . S
H842 C855 0.931 . S
H843 C859 0.959 . S
H844 C859 0.959 1_545 S
H845 C859 0.961 . S
H846 C860 0.960 1_565 S
H847 C860 0.961 . S
H848 C860 0.959 . S
H849 C863 0.929 . S
H850 C864 0.931 . S
H851 C866 0.930 . S
C852 H840 0.930 . S
C852 C853 1.399 . S
C852 C857 1.399 . S
C853 C852 1.399 . S
C853 C854 1.376 . S
C854 H841 0.930 . S
C854 C853 1.376 . S
C854 C855 1.395 1_655 S
C855 H842 0.931 . S
C855 C854 1.395 1_455 S
C855 C856 1.383 . S
C856 C855 1.383 . S
C856 C857 1.394 1_455 S
C856 C862 1.465 1_565 S
C857 C852 1.399 . S
C857 C856 1.394 1_655 S
C857 C858 1.516 1_565 S
C858 C857 1.516 1_545 S
C858 C859 1.507 1_545 S
C858 C860 1.555 1_655 S
C858 C861 1.526 1_655 S
C859 H843 0.959 . S
C859 H844 0.959 1_565 S
C859 H845 0.961 . S
C859 C858 1.507 1_565 S
C860 H846 0.960 1_545 S
C860 H847 0.961 . S
C860 H848 0.959 . S
C860 C858 1.555 1_455 S
C861 C858 1.526 1_455 S
C861 C862 1.396 . S
C861 C866 1.390 . S
C862 C856 1.465 1_545 S
C862 C861 1.396 . S
C862 C863 1.399 . S
C863 H849 0.929 . S
C863 C862 1.399 . S
C863 C864 1.385 . S
C864 H850 0.931 . S
C864 C863 1.385 . S
C864 C865 1.389 . S
C865 C864 1.389 . S
C865 C866 1.387 . S
C866 H851 0.930 . S
C866 C861 1.390 . S
C866 C865 1.387 . S
H867 C879 0.923 1_565 S
H868 C881 0.930 . S
H869 C882 0.930 1_455 S
H870 C886 0.959 . S
H871 C886 0.959 . S
H872 C886 0.961 . S
H873 C887 0.960 . S
H874 C887 0.961 1_455 S
H875 C887 0.959 1_445 S
H876 C890 0.929 . S
H877 C891 0.931 . S
H878 C893 0.930 . S
C879 H867 0.923 1_545 S
C879 C880 1.422 . S
C879 C884 1.383 1_545 S
C880 C879 1.422 . S
C880 C881 1.376 . S
C881 H868 0.930 . S
C881 C880 1.376 . S
C881 C882 1.388 . S
C882 H869 0.930 1_655 S
C882 C881 1.388 . S
C882 C883 1.390 . S
C883 C882 1.390 . S
C883 C884 1.394 1_545 S
C883 C889 1.465 1_655 S
C884 C879 1.383 1_565 S
C884 C883 1.394 1_565 S
C884 C885 1.516 . S
C885 C884 1.516 . S
C885 C886 1.502 . S
C885 C887 1.561 . S
C885 C888 1.526 1_655 S
C886 H870 0.959 . S
C886 H871 0.959 . S
C886 H872 0.961 . S
C886 C885 1.502 . S
C887 H873 0.960 . S
C887 H874 0.961 1_655 S
C887 H875 0.959 1_665 S
C887 C885 1.561 . S
C888 C885 1.526 1_455 S
C888 C889 1.396 1_565 S
C888 C893 1.390 . S
C889 C883 1.465 1_455 S
C889 C888 1.396 1_545 S
C889 C890 1.399 . S
C890 H876 0.929 . S
C890 C889 1.399 . S
C890 C891 1.385 . S
C891 H877 0.931 . S
C891 C890 1.385 . S
C891 C892 1.389 1_545 S
C892 C891 1.389 1_565 S
C892 C893 1.387 . S
C893 H878 0.930 . S
C893 C888 1.390 . S
C893 C892 1.387 . S
H894 C906 0.930 . S
H895 C908 0.930 . S
H896 C909 0.930 . S
H897 C913 0.959 . S
H898 C913 0.959 . S
H899 C913 0.961 . S
H900 C914 0.960 . S
H901 C914 0.961 . S
H902 C914 0.959 . S
H903 C917 0.929 1_655 S
H904 C918 0.931 . S
H905 C920 0.930 . S
C906 H894 0.930 . S
C906 C907 1.399 . S
C906 C911 1.399 . S
C907 C906 1.399 . S
C907 C908 1.376 . S
C908 H895 0.930 . S
C908 C907 1.376 . S
C908 C909 1.388 . S
C909 H896 0.930 . S
C909 C908 1.388 . S
C909 C910 1.390 . S
C910 C909 1.390 . S
C910 C911 1.394 . S
C910 C916 1.465 1_655 S
C911 C906 1.399 . S
C911 C910 1.394 . S
C911 C912 1.516 1_655 S
C912 C911 1.516 1_455 S
C912 C913 1.502 . S
C912 C914 1.561 . S
C912 C915 1.526 . S
C913 H897 0.959 . S
C913 H898 0.959 . S
C913 H899 0.961 . S
C913 C912 1.502 . S
C914 H900 0.960 . S
C914 H901 0.961 . S
C914 H902 0.959 . S
C914 C912 1.561 . S
C915 C912 1.526 . S
C915 C916 1.396 . S
C915 C920 1.390 . S
C916 C910 1.465 1_455 S
C916 C915 1.396 . S
C916 C917 1.399 . S
C917 H903 0.929 1_455 S
C917 C916 1.399 . S
C917 C918 1.385 . S
C918 H904 0.931 . S
C918 C917 1.385 . S
C918 C919 1.389 . S
C919 C918 1.389 . S
C919 C920 1.387 . S
C920 H905 0.930 . S
C920 C915 1.390 . S
C920 C919 1.387 . S
H921 C933 0.930 . S
H922 C935 0.930 . S
H923 C936 0.930 1_565 S
H924 C940 0.959 . S
H925 C940 0.959 . S
H926 C940 0.961 . S
H927 C941 0.960 . S
H928 C941 0.961 1_565 S
H929 C941 0.959 1_565 S
H930 C944 0.929 . S
H931 C945 0.931 . S
H932 C947 0.930 . S
C933 H921 0.930 . S
C933 C934 1.399 . S
C933 C938 1.399 . S
C934 C933 1.399 . S
C934 C935 1.376 . S
C935 H922 0.930 . S
C935 C934 1.376 . S
C935 C936 1.388 . S
C936 H923 0.930 1_545 S
C936 C935 1.388 . S
C936 C937 1.390 . S
C937 C936 1.390 . S
C937 C938 1.394 . S
C937 C943 1.465 1_545 S
C938 C933 1.399 . S
C938 C937 1.394 . S
C938 C939 1.516 . S
C939 C938 1.516 . S
C939 C940 1.502 . S
C939 C941 1.561 . S
C939 C942 1.526 1_545 S
C940 H924 0.959 . S
C940 H925 0.959 . S
C940 H926 0.961 . S
C940 C939 1.502 . S
C941 H927 0.960 . S
C941 H928 0.961 1_545 S
C941 H929 0.959 1_545 S
C941 C939 1.561 . S
C942 C939 1.526 1_565 S
C942 C943 1.396 . S
C942 C947 1.390 . S
C943 C937 1.465 1_565 S
C943 C942 1.396 . S
C943 C944 1.399 . S
C944 H930 0.929 . S
C944 C943 1.399 . S
C944 C945 1.385 . S
C945 H931 0.931 . S
C945 C944 1.385 . S
C945 C946 1.389 . S
C946 C945 1.389 . S
C946 C947 1.387 . S
C947 H932 0.930 . S
C947 C942 1.390 . S
C947 C946 1.387 . S
H948 C960 0.930 . S
H949 C962 0.930 . S
H950 C963 0.930 . S
H951 C967 0.959 . S
H952 C967 0.959 . S
H953 C967 0.961 . S
H954 C968 0.960 . S
H955 C968 0.961 . S
H956 C968 0.959 . S
H957 C971 0.929 . S
H958 C972 0.931 . S
H959 C974 0.930 . S
C960 H948 0.930 . S
C960 C961 1.399 . S
C960 C965 1.399 . S
C961 C960 1.399 . S
C961 C962 1.376 . S
C962 H949 0.930 . S
C962 C961 1.376 . S
C962 C963 1.388 . S
C963 H950 0.930 . S
C963 C962 1.388 . S
C963 C964 1.390 . S
C964 C963 1.390 . S
C964 C965 1.394 . S
C964 C970 1.465 . S
C965 C960 1.399 . S
C965 C964 1.394 . S
C965 C966 1.516 . S
C966 C965 1.516 . S
C966 C967 1.502 . S
C966 C968 1.561 . S
C966 C969 1.526 . S
C967 H951 0.959 . S
C967 H952 0.959 . S
C967 H953 0.961 . S
C967 C966 1.502 . S
C968 H954 0.960 . S
C968 H955 0.961 . S
C968 H956 0.959 . S
C968 C966 1.561 . S
C969 C966 1.526 . S
C969 C970 1.396 . S
C969 C974 1.390 . S
C970 C964 1.465 . S
C970 C969 1.396 . S
C970 C971 1.399 . S
C971 H957 0.929 . S
C971 C970 1.399 . S
C971 C972 1.385 . S
C972 H958 0.931 . S
C972 C971 1.385 . S
C972 C973 1.389 . S
C973 C972 1.389 . S
C973 C974 1.387 . S
C974 H959 0.930 . S
C974 C969 1.390 . S
C974 C973 1.387 . S
H975 C987 0.930 . S
H976 C989 0.930 . S
H977 C990 0.930 . S
H978 C994 0.959 . S
H979 C994 0.959 1_655 S
H980 C994 0.961 . S
H981 C995 0.960 . S
H982 C995 0.961 . S
H983 C995 0.959 . S
H984 C998 0.929 . S
H985 C999 0.931 . S
H986 C1001 0.930 . S
C987 H975 0.930 . S
C987 C988 1.399 . S
C987 C992 1.399 . S
C988 C987 1.399 . S
C988 C989 1.376 . S
C989 H976 0.930 . S
C989 C988 1.376 . S
C989 C990 1.388 . S
C990 H977 0.930 . S
C990 C989 1.388 . S
C990 C991 1.390 . S
C991 C990 1.390 . S
C991 C992 1.394 . S
C991 C997 1.465 1_455 S
C992 C987 1.399 . S
C992 C991 1.394 . S
C992 C993 1.516 1_455 S
C993 C992 1.516 1_655 S
C993 C994 1.502 1_655 S
C993 C995 1.561 . S
C993 C996 1.526 . S
C994 H978 0.959 . S
C994 H979 0.959 1_455 S
C994 H980 0.961 . S
C994 C993 1.502 1_455 S
C995 H981 0.960 . S
C995 H982 0.961 . S
C995 H983 0.959 . S
C995 C993 1.561 . S
C996 C993 1.526 . S
C996 C997 1.396 . S
C996 C1001 1.390 . S
C997 C991 1.465 1_655 S
C997 C996 1.396 . S
C997 C998 1.399 . S
C998 H984 0.929 . S
C998 C997 1.399 . S
C998 C999 1.385 . S
C999 H985 0.931 . S
C999 C998 1.385 . S
C999 C1000 1.389 . S
C1000 C999 1.389 . S
C1000 C1001 1.387 . S
C1001 H986 0.930 . S
C1001 C996 1.390 . S
C1001 C1000 1.387 . S
H1002 C1014 0.930 . S
H1003 C1016 0.930 . S
H1004 C1017 0.930 . S
H1005 C1021 0.959 . S
H1006 C1021 0.959 . S
H1007 C1021 0.961 . S
H1008 C1022 0.960 . S
H1009 C1022 0.961 . S
H1010 C1022 0.959 . S
H1011 C1025 0.929 1_565 S
H1012 C1026 0.931 . S
H1013 C1028 0.930 . S
C1014 H1002 0.930 . S
C1014 C1015 1.399 . S
C1014 C1019 1.399 . S
C1015 C1014 1.399 . S
C1015 C1016 1.376 . S
C1016 H1003 0.930 . S
C1016 C1015 1.376 . S
C1016 C1017 1.388 . S
C1017 H1004 0.930 . S
C1017 C1016 1.388 . S
C1017 C1018 1.390 . S
C1018 C1017 1.390 . S
C1018 C1019 1.394 . S
C1018 C1024 1.465 1_565 S
C1019 C1014 1.399 . S
C1019 C1018 1.394 . S
C1019 C1020 1.516 1_565 S
C1020 C1019 1.516 1_545 S
C1020 C1021 1.502 . S
C1020 C1022 1.561 . S
C1020 C1023 1.526 . S
C1021 H1005 0.959 . S
C1021 H1006 0.959 . S
C1021 H1007 0.961 . S
C1021 C1020 1.502 . S
C1022 H1008 0.960 . S
C1022 H1009 0.961 . S
C1022 H1010 0.959 . S
C1022 C1020 1.561 . S
C1023 C1020 1.526 . S
C1023 C1024 1.396 . S
C1023 C1028 1.390 . S
C1024 C1018 1.465 1_545 S
C1024 C1023 1.396 . S
C1024 C1025 1.399 . S
C1025 H1011 0.929 1_545 S
C1025 C1024 1.399 . S
C1025 C1026 1.385 . S
C1026 H1012 0.931 . S
C1026 C1025 1.385 . S
C1026 C1027 1.389 . S
C1027 C1026 1.389 . S
C1027 C1028 1.387 . S
C1028 H1013 0.930 . S
C1028 C1023 1.390 . S
C1028 C1027 1.387 . S
H1029 C1041 0.930 . S
H1030 C1043 0.930 . S
H1031 C1044 0.930 . S
H1032 C1048 0.959 . S
H1033 C1048 0.959 . S
H1034 C1048 0.961 . S
H1035 C1049 0.960 . S
H1036 C1049 0.961 . S
H1037 C1049 0.959 . S
H1038 C1052 0.929 . S
H1039 C1053 0.931 . S
H1040 C1055 0.930 . S
C1041 H1029 0.930 . S
C1041 C1042 1.399 . S
C1041 C1046 1.399 . S
C1042 C1041 1.399 . S
C1042 C1043 1.376 . S
C1043 H1030 0.930 . S
C1043 C1042 1.376 . S
C1043 C1044 1.388 . S
C1044 H1031 0.930 . S
C1044 C1043 1.388 . S
C1044 C1045 1.390 . S
C1045 C1044 1.390 . S
C1045 C1046 1.394 . S
C1045 C1051 1.465 . S
C1046 C1041 1.399 . S
C1046 C1045 1.394 . S
C1046 C1047 1.516 . S
C1047 C1046 1.516 . S
C1047 C1048 1.502 . S
C1047 C1049 1.561 . S
C1047 C1050 1.526 . S
C1048 H1032 0.959 . S
C1048 H1033 0.959 . S
C1048 H1034 0.961 . S
C1048 C1047 1.502 . S
C1049 H1035 0.960 . S
C1049 H1036 0.961 . S
C1049 H1037 0.959 . S
C1049 C1047 1.561 . S
C1050 C1047 1.526 . S
C1050 C1051 1.396 . S
C1050 C1055 1.390 . S
C1051 C1045 1.465 . S
C1051 C1050 1.396 . S
C1051 C1052 1.399 . S
C1052 H1038 0.929 . S
C1052 C1051 1.399 . S
C1052 C1053 1.385 . S
C1053 H1039 0.931 . S
C1053 C1052 1.385 . S
C1053 C1054 1.389 . S
C1054 C1053 1.389 . S
C1054 C1055 1.387 . S
C1055 H1040 0.930 . S
C1055 C1050 1.390 . S
C1055 C1054 1.387 . S
H1056 C1068 0.930 . S
H1057 C1070 0.930 . S
H1058 C1071 0.930 . S
H1059 C1075 0.959 . S
H1060 C1075 0.959 . S
H1061 C1075 0.961 . S
H1062 C1076 0.960 . S
H1063 C1076 0.961 . S
H1064 C1076 0.959 . S
H1065 C1079 0.929 . S
H1066 C1080 0.931 . S
H1067 C1082 0.930 . S
C1068 H1056 0.930 . S
C1068 C1069 1.399 . S
C1068 C1073 1.399 . S
C1069 C1068 1.399 . S
C1069 C1070 1.376 . S
C1070 H1057 0.930 . S
C1070 C1069 1.376 . S
C1070 C1071 1.388 . S
C1071 H1058 0.930 . S
C1071 C1070 1.388 . S
C1071 C1072 1.390 . S
C1072 C1071 1.390 . S
C1072 C1073 1.394 . S
C1072 C1078 1.465 . S
C1073 C1068 1.399 . S
C1073 C1072 1.394 . S
C1073 C1074 1.516 . S
C1074 C1073 1.516 . S
C1074 C1075 1.502 . S
C1074 C1076 1.561 . S
C1074 C1077 1.526 . S
C1075 H1059 0.959 . S
C1075 H1060 0.959 . S
C1075 H1061 0.961 . S
C1075 C1074 1.502 . S
C1076 H1062 0.960 . S
C1076 H1063 0.961 . S
C1076 H1064 0.959 . S
C1076 C1074 1.561 . S
C1077 C1074 1.526 . S
C1077 C1078 1.396 . S
C1077 C1082 1.390 . S
C1078 C1072 1.465 . S
C1078 C1077 1.396 . S
C1078 C1079 1.399 . S
C1079 H1065 0.929 . S
C1079 C1078 1.399 . S
C1079 C1080 1.385 . S
C1080 H1066 0.931 . S
C1080 C1079 1.385 . S
C1080 C1081 1.389 . S
C1081 C1080 1.389 . S
C1081 C1082 1.387 . S
C1082 H1067 0.930 . S
C1082 C1077 1.390 . S
C1082 C1081 1.387 . S
H1083 C1095 0.930 . S
H1084 C1097 0.930 . S
H1085 C1098 0.930 . S
H1086 C1102 0.959 . S
H1087 C1102 0.959 . S
H1088 C1102 0.961 . S
H1089 C1103 0.960 . S
H1090 C1103 0.961 . S
H1091 C1103 0.959 . S
H1092 C1106 0.929 . S
H1093 C1107 0.931 . S
H1094 C1109 0.930 . S
C1095 H1083 0.930 . S
C1095 C1096 1.399 . S
C1095 C1100 1.399 . S
C1096 C1095 1.399 . S
C1096 C1097 1.376 . S
C1097 H1084 0.930 . S
C1097 C1096 1.376 . S
C1097 C1098 1.388 . S
C1098 H1085 0.930 . S
C1098 C1097 1.388 . S
C1098 C1099 1.390 . S
C1099 C1098 1.390 . S
C1099 C1100 1.394 . S
C1099 C1105 1.465 . S
C1100 C1095 1.399 . S
C1100 C1099 1.394 . S
C1100 C1101 1.516 . S
C1101 C1100 1.516 . S
C1101 C1102 1.502 . S
C1101 C1103 1.561 . S
C1101 C1104 1.526 . S
C1102 H1086 0.959 . S
C1102 H1087 0.959 . S
C1102 H1088 0.961 . S
C1102 C1101 1.502 . S
C1103 H1089 0.960 . S
C1103 H1090 0.961 . S
C1103 H1091 0.959 . S
C1103 C1101 1.561 . S
C1104 C1101 1.526 . S
C1104 C1105 1.396 . S
C1104 C1109 1.390 . S
C1105 C1099 1.465 . S
C1105 C1104 1.396 . S
C1105 C1106 1.399 . S
C1106 H1092 0.929 . S
C1106 C1105 1.399 . S
C1106 C1107 1.385 . S
C1107 H1093 0.931 . S
C1107 C1106 1.385 . S
C1107 C1108 1.389 . S
C1108 C1107 1.389 . S
C1108 C1109 1.387 . S
C1109 H1094 0.930 . S
C1109 C1104 1.390 . S
C1109 C1108 1.387 . S
H1110 C1122 0.930 . S
H1111 C1124 0.930 . S
H1112 C1125 0.930 . S
H1113 C1129 0.959 . S
H1114 C1129 0.959 . S
H1115 C1129 0.961 . S
H1116 C1130 0.960 . S
H1117 C1130 0.961 . S
H1118 C1130 0.959 . S
H1119 C1133 0.929 . S
H1120 C1134 0.931 1_565 S
H1121 C1136 0.930 . S
C1122 H1110 0.930 . S
C1122 C1123 1.399 . S
C1122 C1127 1.399 . S
C1123 C1122 1.399 . S
C1123 C1124 1.376 . S
C1124 H1111 0.930 . S
C1124 C1123 1.376 . S
C1124 C1125 1.388 . S
C1125 H1112 0.930 . S
C1125 C1124 1.388 . S
C1125 C1126 1.390 . S
C1126 C1125 1.390 . S
C1126 C1127 1.394 . S
C1126 C1132 1.465 . S
C1127 C1122 1.399 . S
C1127 C1126 1.394 . S
C1127 C1128 1.516 . S
C1128 C1127 1.516 . S
C1128 C1129 1.502 . S
C1128 C1130 1.561 . S
C1128 C1131 1.526 . S
C1129 H1113 0.959 . S
C1129 H1114 0.959 . S
C1129 H1115 0.961 . S
C1129 C1128 1.502 . S
C1130 H1116 0.960 . S
C1130 H1117 0.961 . S
C1130 H1118 0.959 . S
C1130 C1128 1.561 . S
C1131 C1128 1.526 . S
C1131 C1132 1.396 . S
C1131 C1136 1.390 . S
C1132 C1126 1.465 . S
C1132 C1131 1.396 . S
C1132 C1133 1.399 . S
C1133 H1119 0.929 . S
C1133 C1132 1.399 . S
C1133 C1134 1.385 . S
C1134 H1120 0.931 1_545 S
C1134 C1133 1.385 . S
C1134 C1135 1.389 . S
C1135 C1134 1.389 . S
C1135 C1136 1.387 . S
C1136 H1121 0.930 . S
C1136 C1131 1.390 . S
C1136 C1135 1.387 . S
H1137 C1149 0.930 . S
H1138 C1151 0.930 . S
H1139 C1152 0.930 . S
H1140 C1156 0.959 . S
H1141 C1156 0.959 . S
H1142 C1156 0.961 . S
H1143 C1157 0.960 . S
H1144 C1157 0.961 . S
H1145 C1157 0.959 . S
H1146 C1160 0.929 . S
H1147 C1161 0.931 1_545 S
H1148 C1163 0.930 . S
C1149 H1137 0.930 . S
C1149 C1150 1.399 . S
C1149 C1154 1.399 . S
C1150 C1149 1.399 . S
C1150 C1151 1.376 . S
C1151 H1138 0.930 . S
C1151 C1150 1.376 . S
C1151 C1152 1.388 . S
C1152 H1139 0.930 . S
C1152 C1151 1.388 . S
C1152 C1153 1.390 . S
C1153 C1152 1.390 . S
C1153 C1154 1.394 . S
C1153 C1159 1.465 . S
C1154 C1149 1.399 . S
C1154 C1153 1.394 . S
C1154 C1155 1.516 . S
C1155 C1154 1.516 . S
C1155 C1156 1.502 . S
C1155 C1157 1.561 . S
C1155 C1158 1.526 . S
C1156 H1140 0.959 . S
C1156 H1141 0.959 . S
C1156 H1142 0.961 . S
C1156 C1155 1.502 . S
C1157 H1143 0.960 . S
C1157 H1144 0.961 . S
C1157 H1145 0.959 . S
C1157 C1155 1.561 . S
C1158 C1155 1.526 . S
C1158 C1159 1.396 . S
C1158 C1163 1.390 . S
C1159 C1153 1.465 . S
C1159 C1158 1.396 . S
C1159 C1160 1.399 . S
C1160 H1146 0.929 . S
C1160 C1159 1.399 . S
C1160 C1161 1.385 . S
C1161 H1147 0.931 1_565 S
C1161 C1160 1.385 . S
C1161 C1162 1.389 . S
C1162 C1161 1.389 . S
C1162 C1163 1.387 . S
C1163 H1148 0.930 . S
C1163 C1158 1.390 . S
C1163 C1162 1.387 . S
H1164 C1176 0.930 . S
H1165 C1178 0.930 . S
H1166 C1179 0.930 . S
H1167 C1183 0.959 . S
H1168 C1183 0.959 . S
H1169 C1183 0.961 . S
H1170 C1184 0.960 . S
H1171 C1184 0.961 . S
H1172 C1184 0.959 . S
H1173 C1187 0.929 . S
H1174 C1188 0.931 1_455 S
H1175 C1190 0.930 . S
C1176 H1164 0.930 . S
C1176 C1177 1.399 . S
C1176 C1181 1.399 . S
C1177 C1176 1.399 . S
C1177 C1178 1.376 . S
C1178 H1165 0.930 . S
C1178 C1177 1.376 . S
C1178 C1179 1.388 . S
C1179 H1166 0.930 . S
C1179 C1178 1.388 . S
C1179 C1180 1.390 . S
C1180 C1179 1.390 . S
C1180 C1181 1.394 . S
C1180 C1186 1.465 . S
C1181 C1176 1.399 . S
C1181 C1180 1.394 . S
C1181 C1182 1.516 . S
C1182 C1181 1.516 . S
C1182 C1183 1.502 . S
C1182 C1184 1.561 . S
C1182 C1185 1.526 . S
C1183 H1167 0.959 . S
C1183 H1168 0.959 . S
C1183 H1169 0.961 . S
C1183 C1182 1.502 . S
C1184 H1170 0.960 . S
C1184 H1171 0.961 . S
C1184 H1172 0.959 . S
C1184 C1182 1.561 . S
C1185 C1182 1.526 . S
C1185 C1186 1.396 . S
C1185 C1190 1.390 . S
C1186 C1180 1.465 . S
C1186 C1185 1.396 . S
C1186 C1187 1.399 . S
C1187 H1173 0.929 . S
C1187 C1186 1.399 . S
C1187 C1188 1.385 . S
C1188 H1174 0.931 1_655 S
C1188 C1187 1.385 . S
C1188 C1189 1.389 . S
C1189 C1188 1.389 . S
C1189 C1190 1.387 . S
C1190 H1175 0.930 . S
C1190 C1185 1.390 . S
C1190 C1189 1.387 . S
H1191 C1203 0.930 1_545 S
H1192 C1205 0.930 . S
H1193 C1206 0.930 . S
H1194 C1210 0.959 . S
H1195 C1210 0.959 . S
H1196 C1210 0.961 . S
H1197 C1211 0.960 . S
H1198 C1211 0.961 . S
H1199 C1211 0.959 . S
H1200 C1214 0.929 . S
H1201 C1215 0.931 . S
H1202 C1217 0.930 . S
C1203 H1191 0.930 1_565 S
C1203 C1204 1.399 . S
C1203 C1208 1.399 . S
C1204 C1203 1.399 . S
C1204 C1205 1.376 . S
C1205 H1192 0.930 . S
C1205 C1204 1.376 . S
C1205 C1206 1.388 . S
C1206 H1193 0.930 . S
C1206 C1205 1.388 . S
C1206 C1207 1.390 . S
C1207 C1206 1.390 . S
C1207 C1208 1.394 . S
C1207 C1213 1.465 . S
C1208 C1203 1.399 . S
C1208 C1207 1.394 . S
C1208 C1209 1.516 . S
C1209 C1208 1.516 . S
C1209 C1210 1.502 . S
C1209 C1211 1.561 . S
C1209 C1212 1.526 . S
C1210 H1194 0.959 . S
C1210 H1195 0.959 . S
C1210 H1196 0.961 . S
C1210 C1209 1.502 . S
C1211 H1197 0.960 . S
C1211 H1198 0.961 . S
C1211 H1199 0.959 . S
C1211 C1209 1.561 . S
C1212 C1209 1.526 . S
C1212 C1213 1.396 . S
C1212 C1217 1.390 . S
C1213 C1207 1.465 . S
C1213 C1212 1.396 . S
C1213 C1214 1.399 . S
C1214 H1200 0.929 . S
C1214 C1213 1.399 . S
C1214 C1215 1.385 . S
C1215 H1201 0.931 . S
C1215 C1214 1.385 . S
C1215 C1216 1.389 . S
C1216 C1215 1.389 . S
C1216 C1217 1.387 . S
C1217 H1202 0.930 . S
C1217 C1212 1.390 . S
C1217 C1216 1.387 . S
C421 C111 1.487 . S
C433 C9 1.466 . S
C448 C145 1.463 . S
C460 C43 1.474 . S
C475 C179 1.485 . S
C487 C77 1.469 . S
C502 C213 1.488 . S
C514 C315 1.465 . S
C529 C247 1.459 . S
C541 C349 1.479 . S
C556 C281 1.468 . S
C568 C383 1.470 . S
C583 C326 1.941 . S
C595 C20 1.879 . S
C610 C54 1.939 . S
C622 C360 1.880 . S
C637 C394 1.878 . S
C649 C88 1.939 . S
C664 C224 1.941 . S
C676 C122 1.879 . S
C691 C156 1.934 . S
C703 C258 1.883 . S
C718 C190 1.935 . S
C730 C292 1.897 . S
C745 C5 0.314 . S
C757 C107 0.337 . S
C772 C39 0.385 . S
C784 C141 0.161 . S
C799 C175 0.266 . S
C811 C73 0.369 . S
C826 C209 0.330 . S
C838 C311 0.191 . S
C853 C243 0.286 . S
C865 C345 0.358 . S
C880 C379 0.353 . S
C892 C277 0.168 . S
C907 C407 1.570 . S
C919 C33 1.564 . S
C934 C67 1.583 . S
C946 C237 1.588 . S
C961 C271 1.574 . S
C973 C101 1.568 . S
C988 C305 1.604 . S
C1000 C135 1.604 . S
C1015 C169 1.592 . S
C1027 C339 1.587 . S
C1042 C203 1.605 . S
C1054 C373 1.604 . S
C1069 C2 1.125 . S
C1081 C274 1.120 1_545 S
C1096 C36 1.126 1_455 S
C1108 C308 1.096 . S
C1123 C342 1.044 1_655 S
C1135 C70 1.105 1_545 S
C1150 C104 1.087 . S
C1162 C376 1.123 1_565 S
C1177 C206 1.044 . S
C1189 C138 1.073 1_655 S
C1204 C172 1.098 1_565 S
C1216 C240 1.125 1_455 S
