# Generated by pormake.
# Topology sod, (4)-cn, num edge types: 1
# Building blocks:
#     Node 0, Type 0, BuildingBlock: AZAVOO_clean_sbu_0, # of connection points: 4
#     Node 1, Type 0, BuildingBlock: AZAVOO_clean_sbu_0, # of connection points: 4
#     Node 2, Type 0, BuildingBlock: AZAVOO_clean_sbu_0, # of connection points: 4
#     Node 3, Type 0, BuildingBlock: AZAVOO_clean_sbu_0, # of connection points: 4
#     Node 4, Type 0, BuildingBlock: AZAVOO_clean_sbu_0, # of connection points: 4
#     Node 5, Type 0, BuildingBlock: AZAVOO_clean_sbu_0, # of connection points: 4
#     Node 6, Type 0, BuildingBlock: AZAVOO_clean_sbu_0, # of connection points: 4
#     Node 7, Type 0, BuildingBlock: AZAVOO_clean_sbu_0, # of connection points: 4
#     Node 8, Type 0, BuildingBlock: AZAVOO_clean_sbu_0, # of connection points: 4
#     Node 9, Type 0, BuildingBlock: AZAVOO_clean_sbu_0, # of connection points: 4
#     Node 10, Type 0, BuildingBlock: AZAVOO_clean_sbu_0, # of connection points: 4
#     Node 11, Type 0, BuildingBlock: AZAVOO_clean_sbu_0, # of connection points: 4
#     Edge 12, Type (0, 0), BuildingBlock: XUDNAN_clean_linker_2, # of connection points: 2
#     Edge 13, Type (0, 0), BuildingBlock: XUDNAN_clean_linker_2, # of connection points: 2
#     Edge 14, Type (0, 0), BuildingBlock: XUDNAN_clean_linker_2, # of connection points: 2
#     Edge 15, Type (0, 0), BuildingBlock: XUDNAN_clean_linker_2, # of connection points: 2
#     Edge 16, Type (0, 0), BuildingBlock: XUDNAN_clean_linker_2, # of connection points: 2
#     Edge 17, Type (0, 0), BuildingBlock: XUDNAN_clean_linker_2, # of connection points: 2
#     Edge 18, Type (0, 0), BuildingBlock: XUDNAN_clean_linker_2, # of connection points: 2
#     Edge 19, Type (0, 0), BuildingBlock: XUDNAN_clean_linker_2, # of connection points: 2
#     Edge 20, Type (0, 0), BuildingBlock: XUDNAN_clean_linker_2, # of connection points: 2
#     Edge 21, Type (0, 0), BuildingBlock: XUDNAN_clean_linker_2, # of connection points: 2
#     Edge 22, Type (0, 0), BuildingBlock: XUDNAN_clean_linker_2, # of connection points: 2
#     Edge 23, Type (0, 0), BuildingBlock: XUDNAN_clean_linker_2, # of connection points: 2
#     Edge 24, Type (0, 0), BuildingBlock: XUDNAN_clean_linker_2, # of connection points: 2
#     Edge 25, Type (0, 0), BuildingBlock: XUDNAN_clean_linker_2, # of connection points: 2
#     Edge 26, Type (0, 0), BuildingBlock: XUDNAN_clean_linker_2, # of connection points: 2
#     Edge 27, Type (0, 0), BuildingBlock: XUDNAN_clean_linker_2, # of connection points: 2
#     Edge 28, Type (0, 0), BuildingBlock: XUDNAN_clean_linker_2, # of connection points: 2
#     Edge 29, Type (0, 0), BuildingBlock: XUDNAN_clean_linker_2, # of connection points: 2
#     Edge 30, Type (0, 0), BuildingBlock: XUDNAN_clean_linker_2, # of connection points: 2
#     Edge 31, Type (0, 0), BuildingBlock: XUDNAN_clean_linker_2, # of connection points: 2
#     Edge 32, Type (0, 0), BuildingBlock: XUDNAN_clean_linker_2, # of connection points: 2
#     Edge 33, Type (0, 0), BuildingBlock: XUDNAN_clean_linker_2, # of connection points: 2
#     Edge 34, Type (0, 0), BuildingBlock: XUDNAN_clean_linker_2, # of connection points: 2
#     Edge 35, Type (0, 0), BuildingBlock: XUDNAN_clean_linker_2, # of connection points: 2
# Relax obj value: 0.127
# Max RMSD: 0.160
# Mean RMSD: 0.155
data_MOF--net-sod--node1-AZAVOO_clean_sbu_0--edge1-XUDNAN_clean_linker_2
_symmetry_space_group_name_H-M    P1
_symmetry_Int_Tables_number       1
_symmetry_cell_setting            triclinic
loop_
_symmetry_equiv_pos_as_xyz
'x, y, z'
_cell_length_a     41.265986
_cell_length_b     41.881292
_cell_length_c     42.458141
_cell_angle_alpha  89.904451
_cell_angle_beta   93.203971
_cell_angle_gamma 96.175273
loop_
_atom_site_label
_atom_site_type_symbol
_atom_site_fract_x
_atom_site_fract_y
_atom_site_fract_z
_atom_type_partial_charge
Mg0 Mg 0.03489 0.26026 0.55645 0.0
O1 O 0.98868 0.22632 0.54385 0.0
O2 O 0.94742 0.25577 0.5333 0.0
Mg3 Mg 0.96634 0.30863 0.54112 0.0
C4 C 0.95886 0.22867 0.53536 0.0
C5 C 0.06805 0.20046 0.57749 0.0
O6 O 0.05033 0.20522 0.60144 0.0
O7 O 0.03861 0.27385 0.50403 0.0
O8 O 0.99811 0.30535 0.4993 0.0
O9 O 0.0237 0.26325 0.60804 0.0
O10 O 0.00756 0.29561 0.57097 0.0
C11 C 0.02187 0.29286 0.48792 0.0
C12 C 0.00855 0.28777 0.60014 0.0
O13 O 0.06638 0.21865 0.55354 0.0
Mg14 Mg 0.75005 0.98478 0.47781 0.0
O15 O 0.78477 0.03046 0.47397 0.0
O16 O 0.75742 0.07284 0.46439 0.0
Mg17 Mg 0.70315 0.05356 0.46106 0.0
C18 C 0.78416 0.06048 0.46956 0.0
C19 C 0.80472 0.94137 0.47402 0.0
O20 O 0.78707 0.93631 0.44748 0.0
O21 O 0.73801 0.00111 0.5274 0.0
O22 O 0.7087 0.04148 0.51349 0.0
O23 O 0.74733 0.97761 0.42524 0.0
O24 O 0.71344 0.00457 0.44991 0.0
C25 C 0.72106 0.02374 0.53448 0.0
C26 C 0.72264 0.99413 0.4238 0.0
O27 O 0.79482 0.9593 0.49488 0.0
Mg28 Mg 0.05432 0.79086 0.53276 0.0
O29 O 0.10445 0.82143 0.52819 0.0
O30 O 0.14128 0.78582 0.53339 0.0
Mg31 Mg 0.11784 0.73609 0.54565 0.0
C32 C 0.13388 0.81426 0.52817 0.0
C33 C 0.0043 0.84109 0.52936 0.0
O34 O 0.00305 0.83173 0.55885 0.0
O35 O 0.05814 0.76763 0.48407 0.0
O36 O 0.09466 0.73283 0.49553 0.0
O37 O 0.05518 0.79711 0.58585 0.0
O38 O 0.07659 0.75889 0.56126 0.0
C39 C 0.07477 0.74512 0.47612 0.0
C40 C 0.07093 0.77202 0.58732 0.0
O41 O 0.02476 0.82994 0.51209 0.0
Mg42 Mg 0.32583 0.06403 0.56122 0.0
O43 O 0.30181 0.01535 0.54256 0.0
O44 O 0.34083 0.98771 0.5258 0.0
Mg45 Mg 0.39002 0.01852 0.53332 0.0
C46 C 0.3109 0.99015 0.5305 0.0
C47 C 0.25453 0.07736 0.55976 0.0
O48 O 0.26003 0.07335 0.52993 0.0
O49 O 0.34495 0.0401 0.60658 0.0
O50 O 0.38545 0.01644 0.58657 0.0
O51 O 0.32432 0.08511 0.51211 0.0
O52 O 0.36574 0.06227 0.53378 0.0
C53 C 0.36956 0.02389 0.60998 0.0
C54 C 0.35312 0.07613 0.50992 0.0
O55 O 0.27718 0.07358 0.5806 0.0
Mg56 Mg 0.47557 0.02591 0.25153 0.0
O57 O 0.52807 0.01757 0.26758 0.0
O58 O 0.55292 0.00132 0.22597 0.0
Mg59 Mg 0.51668 0.00098 0.18321 0.0
C60 C 0.5531 0.0085 0.2552 0.0
C61 C 0.44043 0.0553 0.30402 0.0
O62 O 0.41643 0.04753 0.28285 0.0
O63 O 0.49509 0.07316 0.22958 0.0
O64 O 0.5192 0.05602 0.18788 0.0
O65 O 0.4593 0.97427 0.26014 0.0
O66 O 0.47598 0.99383 0.21463 0.0
C67 C 0.51123 0.0787 0.20501 0.0
C68 C 0.46661 0.96927 0.23143 0.0
O69 O 0.46922 0.05021 0.29789 0.0
Mg70 Mg 0.09095 0.505 0.30848 0.0
O71 O 0.03958 0.49701 0.28329 0.0
O72 O 0.0033 0.48618 0.32018 0.0
Mg73 Mg 0.03078 0.48613 0.36816 0.0
C74 C 0.01017 0.49078 0.29147 0.0
C75 C 0.11802 0.55291 0.2534 0.0
O76 O 0.10841 0.57643 0.26972 0.0
O77 O 0.07917 0.55422 0.32517 0.0
O78 O 0.04286 0.54058 0.36152 0.0
O79 O 0.0976 0.45289 0.30582 0.0
O80 O 0.0745 0.47535 0.3447 0.0
C81 C 0.05975 0.56164 0.34571 0.0
C82 C 0.08266 0.44978 0.33179 0.0
O83 O 0.11339 0.52425 0.26336 0.0
Mg84 Mg 0.59879 0.01326 0.80586 0.0
O85 O 0.5458 0.00629 0.78432 0.0
O86 O 0.51212 0.00013 0.82401 0.0
Mg87 Mg 0.54296 0.00201 0.87031 0.0
C88 C 0.51705 0.00213 0.79462 0.0
C89 C 0.63792 0.01239 0.74604 0.0
O90 O 0.64495 0.98595 0.7603 0.0
O91 O 0.59109 0.06456 0.82023 0.0
O92 O 0.55794 0.05526 0.85993 0.0
O93 O 0.602 0.96032 0.80562 0.0
O94 O 0.58349 0.98668 0.84469 0.0
C95 C 0.57431 0.07454 0.84189 0.0
C96 C 0.58888 0.95969 0.83257 0.0
O97 O 0.61885 0.02988 0.75877 0.0
Mg98 Mg 0.98649 0.5335 0.74204 0.0
O99 O 0.03525 0.52153 0.76616 0.0
O100 O 0.06436 0.50202 0.72916 0.0
Mg101 Mg 0.03638 0.50503 0.68173 0.0
C102 C 0.06081 0.50977 0.75773 0.0
C103 C 0.9724 0.54381 0.81201 0.0
O104 O 0.98374 0.51569 0.81396 0.0
O105 O 0.01293 0.57971 0.72355 0.0
O106 O 0.04379 0.56004 0.68809 0.0
O107 O 0.96521 0.48283 0.74829 0.0
O108 O 0.99079 0.50085 0.70629 0.0
C109 C 0.03456 0.58357 0.70314 0.0
C110 C 0.97693 0.47698 0.72152 0.0
O111 O 0.97259 0.5585 0.78582 0.0
Mg112 Mg 0.23941 0.49786 0.99701 0.0
O113 O 0.27633 0.54083 0.98826 0.0
O114 O 0.25135 0.58325 0.9729 0.0
Mg115 Mg 0.19651 0.56604 0.9702 0.0
C116 C 0.27728 0.57018 0.98014 0.0
C117 C 0.28537 0.44552 0.00917 0.0
O118 O 0.26175 0.4304 0.99107 0.0
O119 O 0.22713 0.52113 0.04315 0.0
O120 O 0.19976 0.56109 0.02415 0.0
O121 O 0.23826 0.48297 0.94663 0.0
O122 O 0.20479 0.51511 0.96539 0.0
C123 C 0.21105 0.54516 0.04722 0.0
C124 C 0.21453 0.50051 0.94159 0.0
O125 O 0.28218 0.47367 0.01884 0.0
Mg126 Mg 0.5356 0.29076 0.02373 0.0
O127 O 0.5819 0.32667 0.02853 0.0
O128 O 0.62463 0.29873 0.03736 0.0
Mg129 Mg 0.60595 0.24554 0.03992 0.0
C130 C 0.61259 0.32532 0.03311 0.0
C131 C 0.47442 0.32228 0.00499 0.0
O132 O 0.46364 0.29191 0.00873 0.0
O133 O 0.54847 0.27559 0.97432 0.0
O134 O 0.58993 0.2467 0.98739 0.0
O135 O 0.52957 0.29099 0.07572 0.0
O136 O 0.55742 0.25728 0.05147 0.0
C137 C 0.57038 0.25795 0.9669 0.0
C138 C 0.54684 0.26695 0.07733 0.0
O139 O 0.50507 0.33034 0.00678 0.0
Mg140 Mg 0.83088 0.56944 0.05563 0.0
O141 O 0.79499 0.52581 0.04271 0.0
O142 O 0.82163 0.48547 0.02747 0.0
Mg143 Mg 0.87573 0.50558 0.02641 0.0
C144 C 0.7952 0.4969 0.03357 0.0
C145 C 0.77835 0.61451 0.06537 0.0
O146 O 0.79429 0.62814 0.0421 0.0
O147 O 0.84839 0.54449 0.1007 0.0
O148 O 0.87966 0.51005 0.08028 0.0
O149 O 0.82768 0.58752 0.00607 0.0
O150 O 0.86371 0.55561 0.02378 0.0
C151 C 0.86877 0.52356 0.10388 0.0
C152 C 0.85167 0.5712 0.00062 0.0
O153 O 0.78895 0.59016 0.07871 0.0
Mg154 Mg 0.53427 0.76709 0.05676 0.0
O155 O 0.48901 0.73196 0.04233 0.0
O156 O 0.44752 0.7616 0.03342 0.0
Mg157 Mg 0.46462 0.81427 0.04407 0.0
C158 C 0.45913 0.73454 0.03404 0.0
C159 C 0.56965 0.70638 0.07145 0.0
O160 O 0.54785 0.70376 0.09297 0.0
O161 O 0.5378 0.78398 0.00542 0.0
O162 O 0.49698 0.81514 0.00219 0.0
O163 O 0.5231 0.76569 0.10839 0.0
O164 O 0.50524 0.7996 0.07362 0.0
C165 C 0.52117 0.80379 0.99038 0.0
C166 C 0.50647 0.78965 0.10218 0.0
O167 O 0.56898 0.72884 0.0513 0.0
H168 H 0.99048 0.33221 0.4487 0.0
H169 H 0.07685 0.28143 0.45699 0.0
H170 H 0.09797 0.31064 0.41035 0.0
H171 H 0.98598 0.34257 0.36064 0.0
H172 H 0.97368 0.3823 0.36473 0.0
H173 H 0.9619 0.35161 0.39296 0.0
H174 H 0.98803 0.38894 0.43824 0.0
H175 H 1.0003 0.41947 0.4103 0.0
H176 H 0.0304 0.40466 0.43734 0.0
H177 H 0.11317 0.3517 0.36797 0.0
H178 H 0.12202 0.40155 0.33658 0.0
H179 H 0.02735 0.42713 0.36011 0.0
C180 C 0.01338 0.32629 0.44023 0.0
C181 C 0.03197 0.3044 0.45654 0.0
C182 C 0.06201 0.29785 0.44475 0.0
C183 C 0.07417 0.31434 0.41824 0.0
C184 C 0.05589 0.3371 0.40381 0.0
C185 C 0.02599 0.34285 0.41441 0.0
C186 C 0.01315 0.37159 0.39838 0.0
C187 C 0.98182 0.3614 0.37796 0.0
C188 C 0.00769 0.39768 0.4225 0.0
C189 C 0.04123 0.38226 0.37821 0.0
C190 C 0.06524 0.36158 0.38078 0.0
C191 C 0.0943 0.36774 0.36549 0.0
C192 C 0.09913 0.39604 0.34776 0.0
C193 C 0.07542 0.4181 0.34631 0.0
C194 C 0.04592 0.41073 0.36113 0.0
H195 H 0.6642 0.019 0.4153 0.0
H196 H 0.73904 0.97945 0.36426 0.0
H197 H 0.70499 0.98178 0.3147 0.0
H198 H 0.59777 0.97507 0.37599 0.0
H199 H 0.57137 0.0067 0.37554 0.0
H200 H 0.60309 0.00565 0.40625 0.0
H201 H 0.62679 0.0634 0.39216 0.0
H202 H 0.59487 0.06479 0.3616 0.0
H203 H 0.63703 0.0725 0.35217 0.0
H204 H 0.66084 0.98428 0.27165 0.0
H205 H 0.61058 0.98781 0.23811 0.0
H206 H 0.56438 0.02488 0.31783 0.0
C207 C 0.67383 0.01157 0.3936 0.0
C208 C 0.7044 0.99928 0.39358 0.0
C209 C 0.71578 0.98914 0.36478 0.0
C210 C 0.69661 0.99037 0.33652 0.0
C211 C 0.66619 0.00183 0.33752 0.0
C212 C 0.65496 0.01245 0.36528 0.0
C213 C 0.62058 0.02176 0.36041 0.0
C214 C 0.59682 0.00105 0.38075 0.0
C215 C 0.61979 0.05775 0.36697 0.0
C216 C 0.61394 0.01406 0.32569 0.0
C217 C 0.64062 0.00287 0.31285 0.0
C218 C 0.63989 0.9933 0.28139 0.0
C219 C 0.61116 0.99531 0.26255 0.0
C220 C 0.58343 0.00663 0.27526 0.0
C221 C 0.58507 0.01617 0.30729 0.0
H222 H 0.1091 0.60709 0.36408 0.0
H223 H 0.00441 0.59123 0.34587 0.0
H224 H 0.99886 0.64532 0.36684 0.0
H225 H 0.10551 0.63748 0.43657 0.0
H226 H 0.14105 0.6665 0.43589 0.0
H227 H 0.13796 0.6315 0.41118 0.0
H228 H 0.14602 0.6676 0.36198 0.0
H229 H 0.14909 0.70289 0.38671 0.0
H230 H 0.11938 0.69836 0.35382 0.0
H231 H 0.00349 0.69634 0.39777 0.0
H232 H 0.01685 0.73585 0.441 0.0
H233 H 0.11808 0.71689 0.44248 0.0
C234 C 0.08528 0.61579 0.36321 0.0
C235 C 0.05725 0.59563 0.35271 0.0
C236 C 0.02616 0.60679 0.35333 0.0
C237 C 0.02285 0.6375 0.36503 0.0
C238 C 0.05086 0.65658 0.37633 0.0
C239 C 0.08153 0.64607 0.37563 0.0
C240 C 0.10682 0.66817 0.39456 0.0
C241 C 0.12379 0.64982 0.42112 0.0
C242 C 0.1318 0.68527 0.37297 0.0
C243 C 0.08533 0.69157 0.40754 0.0
C244 C 0.05336 0.68531 0.39578 0.0
C245 C 0.02855 0.70191 0.40665 0.0
C246 C 0.03635 0.72444 0.43112 0.0
C247 C 0.06849 0.72945 0.44491 0.0
C248 C 0.09339 0.71375 0.43204 0.0
H249 H 0.32874 0.07473 0.44817 0.0
H250 H 0.41853 0.08593 0.50715 0.0
H251 H 0.4506 0.08882 0.45984 0.0
H252 H 0.35602 0.02196 0.39484 0.0
H253 H 0.33543 0.0369 0.36019 0.0
H254 H 0.31919 0.04099 0.39824 0.0
H255 H 0.32077 0.10248 0.39015 0.0
H256 H 0.33702 0.09856 0.35197 0.0
H257 H 0.35856 0.12545 0.38105 0.0
H258 H 0.47304 0.08536 0.4075 0.0
H259 H 0.48466 0.07287 0.35287 0.0
H260 H 0.38069 0.06197 0.32705 0.0
C261 C 0.35512 0.07865 0.45093 0.0
C262 C 0.37127 0.08046 0.48113 0.0
C263 C 0.40579 0.08459 0.4841 0.0
C264 C 0.42421 0.08647 0.4574 0.0
C265 C 0.40771 0.08396 0.4279 0.0
C266 C 0.37397 0.08003 0.4244 0.0
C267 C 0.36258 0.07442 0.39011 0.0
C268 C 0.34211 0.04162 0.3856 0.0
C269 C 0.34361 0.10187 0.37759 0.0
C270 C 0.39516 0.07492 0.37519 0.0
C271 C 0.42083 0.08106 0.39738 0.0
C272 C 0.4532 0.08092 0.38976 0.0
C273 C 0.45955 0.07373 0.35868 0.0
C274 C 0.4336 0.06648 0.33569 0.0
C275 C 0.40106 0.06772 0.34402 0.0
H276 H 0.00532 0.63922 0.69971 0.0
H277 H 0.09755 0.60071 0.68971 0.0
H278 H 0.12175 0.65341 0.67152 0.0
H279 H 0.00518 0.67825 0.63082 0.0
H280 H 0.98661 0.71282 0.64329 0.0
H281 H 0.97936 0.67552 0.66383 0.0
H282 H 1.00034 0.70404 0.71635 0.0
H283 H 0.00796 0.74154 0.69571 0.0
H284 H 0.04038 0.72611 0.71936 0.0
H285 H 0.1325 0.70453 0.64427 0.0
H286 H 0.12745 0.74833 0.60606 0.0
H287 H 0.02876 0.75547 0.63257 0.0
C288 C 0.03095 0.64241 0.69486 0.0
C289 C 0.04974 0.61616 0.69638 0.0
C290 C 0.08284 0.62065 0.68877 0.0
C291 C 0.09687 0.65059 0.67875 0.0
C292 C 0.07748 0.67585 0.6764 0.0
C293 C 0.04517 0.67212 0.68423 0.0
C294 C 0.02811 0.70112 0.67422 0.0
C295 C 0.99808 0.69133 0.65169 0.0
C296 C 0.01865 0.71928 0.70314 0.0
C297 C 0.05514 0.72057 0.65751 0.0
C298 C 0.08377 0.70605 0.66007 0.0
C299 C 0.11063 0.71671 0.64287 0.0
C300 C 0.10761 0.74161 0.62124 0.0
C301 C 0.078 0.75554 0.61704 0.0
C302 C 0.05208 0.74604 0.63648 0.0
H303 H 0.51486 0.9908 0.73094 0.0
H304 H 0.45453 0.01247 0.80697 0.0
H305 H 0.40785 0.01582 0.76855 0.0
H306 H 0.48536 0.0435 0.67571 0.0
H307 H 0.48648 0.01728 0.64226 0.0
H308 H 0.51402 0.01389 0.67613 0.0
H309 H 0.49282 0.95361 0.68106 0.0
H310 H 0.46514 0.95685 0.64713 0.0
H311 H 0.44973 0.94202 0.68389 0.0
H312 H 0.36947 0.02294 0.72056 0.0
H313 H 0.34275 0.03053 0.66769 0.0
H314 H 0.42786 0.00111 0.62457 0.0
C315 C 0.49172 0.99582 0.73959 0.0
C316 C 0.4884 0.00141 0.77193 0.0
C317 C 0.45765 0.00791 0.78228 0.0
C318 C 0.43096 0.00989 0.76064 0.0
C319 C 0.43522 0.00475 0.72881 0.0
C320 C 0.46476 0.99742 0.71842 0.0
C321 C 0.46348 0.99408 0.68296 0.0
C322 C 0.48882 0.01866 0.66843 0.0
C323 C 0.46805 0.95958 0.67319 0.0
C324 C 0.429 0.00171 0.67492 0.0
C325 C 0.41292 0.00772 0.70156 0.0
C326 C 0.38162 0.01769 0.69953 0.0
C327 C 0.36662 0.02198 0.66944 0.0
C328 C 0.38296 0.01615 0.64189 0.0
C329 C 0.41429 0.0053 0.64499 0.0
H330 H 0.99095 0.34738 0.5898 0.0
H331 H 1.0003 0.2766 0.66353 0.0
H332 H 0.98745 0.31635 0.70305 0.0
H333 H 0.03281 0.41009 0.63155 0.0
H334 H 0.00877 0.44043 0.61563 0.0
H335 H 0.01248 0.40498 0.5929 0.0
H336 H 0.94949 0.39246 0.58783 0.0
H337 H 0.94549 0.4282 0.61023 0.0
H338 H 0.92667 0.38984 0.6229 0.0
H339 H 0.97781 0.36617 0.73475 0.0
H340 H 0.97537 0.42113 0.75558 0.0
H341 H 0.97731 0.4586 0.6604 0.0
C342 C 0.98928 0.33973 0.61409 0.0
C343 C 0.99609 0.30872 0.62356 0.0
C344 C 0.99473 0.30014 0.65576 0.0
C345 C 0.98745 0.32255 0.6783 0.0
C346 C 0.98189 0.35334 0.66815 0.0
C347 C 0.98279 0.36182 0.63672 0.0
C348 C 0.97983 0.39715 0.63192 0.0
C349 C 0.01028 0.41414 0.61715 0.0
C350 C 0.9485 0.4022 0.61205 0.0
C351 C 0.97778 0.40759 0.66565 0.0
C352 C 0.97829 0.38201 0.68626 0.0
C353 C 0.97723 0.38627 0.71876 0.0
C354 C 0.97585 0.41749 0.73037 0.0
C355 C 0.97634 0.44395 0.70953 0.0
C356 C 0.9771 0.43878 0.67684 0.0
H357 H 0.6701 0.97508 0.70796 0.0
H358 H 0.63733 0.06978 0.71507 0.0
H359 H 0.66032 0.08434 0.66387 0.0
H360 H 0.74597 -0.00028 0.66921 0.0
H361 H 0.74195 0.96465 0.64416 0.0
H362 H 0.7254 0.96241 0.6826 0.0
H363 H 0.66847 0.94154 0.65731 0.0
H364 H 0.68486 0.94355 0.61888 0.0
H365 H 0.65019 0.96455 0.6265 0.0
H366 H 0.68409 0.08777 0.61131 0.0
H367 H 0.7039 0.07909 0.5588 0.0
H368 H 0.72078 0.98166 0.58477 0.0
C369 C 0.6681 0.99903 0.69895 0.0
C370 C 0.65208 0.0214 0.7156 0.0
C371 C 0.64952 0.0523 0.70276 0.0
C372 C 0.66267 0.06083 0.67379 0.0
C373 C 0.67823 0.03819 0.65798 0.0
C374 C 0.68089 0.00787 0.66997 0.0
C375 C 0.69687 0.98736 0.64721 0.0
C376 C 0.72949 0.97799 0.66166 0.0
C377 C 0.67371 0.9575 0.63686 0.0
C378 C 0.70221 0.01071 0.62022 0.0
C379 C 0.69165 0.04 0.62721 0.0
C380 C 0.69261 0.06503 0.60563 0.0
C381 C 0.70387 0.05978 0.57581 0.0
C382 C 0.71389 0.02965 0.56763 0.0
C383 C 0.71373 0.00505 0.59046 0.0
H384 H 0.40827 0.31285 0.99299 0.0
H385 H 0.48776 0.38706 0.0161 0.0
H386 H 0.44786 0.42646 0.02157 0.0
H387 H 0.35756 0.36408 0.94704 0.0
H388 H 0.32012 0.34399 0.96068 0.0
H389 H 0.3552 0.32226 0.95778 0.0
H390 H 0.35178 0.30635 0.01662 0.0
H391 H 0.31704 0.32849 0.01984 0.0
H392 H 0.35266 0.33733 0.04618 0.0
H393 H 0.39872 0.45688 0.02791 0.0
H394 H 0.34483 0.47759 0.0278 0.0
H395 H 0.29795 0.38365 -0.00111 0.0
C396 C 0.41735 0.33748 -0.00117 0.0
C397 C 0.45114 0.34687 0.00415 0.0
C398 C 0.462 0.37934 0.01171 0.0
C399 C 0.43951 0.40185 0.0151 0.0
C400 C 0.4063 0.39155 0.01052 0.0
C401 C 0.39531 0.36026 0.00199 0.0
C402 C 0.35841 0.35534 -0.00196 0.0
C403 C 0.34717 0.34587 0.96385 0.0
C404 C 0.34415 0.3304 0.02158 0.0
C405 C 0.3503 0.38869 0.00592 0.0
C406 C 0.3782 0.40918 0.01337 0.0
C407 C 0.37673 0.4411 0.02191 0.0
C408 C 0.34598 0.45257 0.02202 0.0
C409 C 0.31716 0.43224 0.01333 0.0
C410 C 0.3195 0.3998 0.00562 0.0
H411 H 0.28886 0.63602 0.98074 0.0
H412 H 0.33801 0.5494 0.98654 0.0
H413 H 0.39058 0.58222 -0.00181 0.0
H414 H 0.35578 0.68799 0.94591 0.0
H415 H 0.34802 0.72241 0.96862 0.0
H416 H 0.31497 0.69228 0.95713 0.0
H417 H 0.30115 0.68523 0.01571 0.0
H418 H 0.33435 0.715 0.02741 0.0
H419 H 0.33236 0.67543 0.04443 0.0
H420 H 0.43706 0.62413 0.01399 0.0
H421 H 0.47408 0.67218 0.03066 0.0
H422 H 0.39422 0.73105 0.01499 0.0
C423 C 0.31077 0.62397 0.98364 0.0
C424 C 0.30926 0.59012 0.98255 0.0
C425 C 0.3385 0.57531 0.98715 0.0
C426 C 0.36852 0.59374 0.99379 0.0
C427 C 0.36898 0.62697 0.99567 0.0
C428 C 0.34092 0.64198 0.99045 0.0
C429 C 0.34769 0.67787 0.99574 0.0
C430 C 0.34124 0.69622 0.96501 0.0
C431 C 0.3277 0.68901 0.02241 0.0
C432 C 0.38375 0.68059 0.00537 0.0
C433 C 0.39567 0.65104 0.00499 0.0
C434 C 0.42808 0.64747 0.01407 0.0
C435 C 0.4489 0.6749 0.02362 0.0
C436 C 0.43717 0.70548 0.02415 0.0
C437 C 0.40411 0.70813 0.0148 0.0
H438 H 0.67946 0.33133 0.03219 0.0
H439 H 0.59684 0.38741 0.03278 0.0
H440 H 0.63453 0.43731 0.03148 0.0
H441 H 0.73453 0.38367 0.08176 0.0
H442 H 0.76982 0.37762 0.06023 0.0
H443 H 0.73629 0.3464 0.06104 0.0
H444 H 0.73143 0.34559 -8e-05 0.0
H445 H 0.76487 0.37692 -0.00109 0.0
H446 H 0.72618 0.38226 0.97885 0.0
H447 H 0.6813 0.48105 0.03148 0.0
H448 H 0.73364 0.51558 0.03232 0.0
H449 H 0.78566 0.43087 0.03027 0.0
C450 C 0.6692 0.35407 0.03213 0.0
C451 C 0.63512 0.35539 0.03269 0.0
C452 C 0.62282 0.38572 0.03235 0.0
C453 C 0.64404 0.41421 0.0316 0.0
C454 C 0.67745 0.41198 0.03097 0.0
C455 C 0.68997 0.3827 0.03114 0.0
C456 C 0.72685 0.3869 0.03035 0.0
C457 C 0.7428 0.37282 0.06012 0.0
C458 C 0.73798 0.37204 0.00021 0.0
C459 C 0.73318 0.42317 0.02996 0.0
C460 C 0.70436 0.43717 0.03036 0.0
C461 C 0.704 0.47036 0.031 0.0
C462 C 0.73391 0.48977 0.0315 0.0
C463 C 0.76382 0.47597 0.03122 0.0
C464 C 0.76327 0.44218 0.03014 0.0
H465 H 0.74711 0.66203 0.03673 0.0
H466 H 0.73679 0.58974 0.10995 0.0
H467 H 0.68138 0.60424 0.11854 0.0
H468 H 0.70429 0.72113 0.07405 0.0
H469 H 0.68576 0.73378 0.03732 0.0
H470 H 0.72476 0.71814 0.03792 0.0
H471 H 0.70153 0.67548 0.99607 0.0
H472 H 0.66233 0.69072 0.99564 0.0
H473 H 0.66555 0.64891 0.00386 0.0
H474 H 0.62652 0.62629 0.11827 0.0
H475 H 0.5779 0.65577 0.11106 0.0
H476 H 0.62442 0.71263 0.03721 0.0
C477 C 0.73341 0.6494 0.05482 0.0
C478 C 0.74637 0.6248 0.07275 0.0
C479 C 0.72744 0.60877 0.09602 0.0
C480 C 0.6959 0.61675 0.10098 0.0
C481 C 0.68368 0.64074 0.08243 0.0
C482 C 0.70196 0.65693 0.05995 0.0
C483 C 0.68322 0.68157 0.04293 0.0
C484 C 0.70054 0.71567 0.0484 0.0
C485 C 0.67784 0.67368 0.00753 0.0
C486 C 0.65149 0.67681 0.05938 0.0
C487 C 0.65216 0.65312 0.08204 0.0
C488 C 0.62574 0.64486 0.10057 0.0
C489 C 0.59819 0.66169 0.09623 0.0
C490 C 0.59726 0.68647 0.07351 0.0
C491 C 0.62419 0.69368 0.05461 0.0
H492 H 0.49517 0.85113 0.95678 0.0
H493 H 0.57214 0.7882 0.9557 0.0
H494 H 0.594 0.81745 0.90935 0.0
H495 H 0.48544 0.86494 0.87036 0.0
H496 H 0.47926 0.90637 0.87654 0.0
H497 H 0.46623 0.87645 0.90508 0.0
H498 H 0.50071 0.90963 0.94902 0.0
H499 H 0.51414 0.93937 0.92069 0.0
H500 H 0.54376 0.92011 0.94465 0.0
H501 H 0.61074 0.85794 0.86677 0.0
H502 H 0.62223 0.90685 0.8345 0.0
H503 H 0.53581 0.94383 0.86695 0.0
C504 C 0.51609 0.84271 0.94639 0.0
C505 C 0.53181 0.81717 0.95984 0.0
C506 C 0.5595 0.80752 0.94568 0.0
C507 C 0.57204 0.82397 0.91932 0.0
C508 C 0.55654 0.84988 0.90747 0.0
C509 C 0.52906 0.85904 0.9206 0.0
C510 C 0.51906 0.88986 0.90641 0.0
C511 C 0.48551 0.88404 0.88853 0.0
C512 C 0.51947 0.91628 0.9317 0.0
C513 C 0.54591 0.89742 0.88401 0.0
C514 C 0.56687 0.87376 0.88425 0.0
C515 C 0.59427 0.8764 0.86622 0.0
C516 C 0.6006 0.90418 0.848 0.0
C517 C 0.58007 0.92913 0.84867 0.0
C518 C 0.55214 0.92534 0.86641 0.0
H519 H 0.15764 0.52647 0.9262 0.0
H520 H 0.23344 0.47786 0.88583 0.0
H521 H 0.20281 0.47613 0.83408 0.0
H522 H 0.09108 0.48157 0.88569 0.0
H523 H 0.06698 0.51476 0.87996 0.0
H524 H 0.09598 0.51469 0.91324 0.0
H525 H 0.12433 0.56972 0.89614 0.0
H526 H 0.09515 0.57012 0.86299 0.0
H527 H 0.13825 0.57441 0.85673 0.0
H528 H 0.16274 0.47706 0.78771 0.0
H529 H 0.11676 0.48194 0.74913 0.0
H530 H 0.0664 0.5292 0.81998 0.0
C531 C 0.16812 0.516 0.90635 0.0
C532 C 0.19805 0.50248 0.90997 0.0
C533 C 0.21064 0.48849 0.88354 0.0
C534 C 0.19341 0.48737 0.85408 0.0
C535 C 0.16363 0.50029 0.8515 0.0
C536 C 0.15115 0.5145 0.87685 0.0
C537 C 0.118 0.52542 0.86807 0.0
C538 C 0.09145 0.50806 0.88792 0.0
C539 C 0.11901 0.5621 0.87116 0.0
C540 C 0.11363 0.5148 0.8339 0.0
C541 C 0.1403 0.50049 0.8248 0.0
C542 C 0.1418 0.48839 0.79449 0.0
C543 C 0.11546 0.49123 0.77276 0.0
C544 C 0.08787 0.50598 0.78144 0.0
C545 C 0.08704 0.51776 0.81254 0.0
H546 H 0.5271 0.10471 0.86809 0.0
H547 H 0.62254 0.12274 0.82988 0.0
H548 H 0.62646 0.17909 0.84836 0.0
H549 H 0.50157 0.18867 0.85317 0.0
H550 H 0.48077 0.18727 0.88944 0.0
H551 H 0.48251 0.15094 0.86714 0.0
H552 H 0.50787 0.12437 0.9165 0.0
H553 H 0.50603 0.16037 0.93881 0.0
H554 H 0.54447 0.14402 0.93622 0.0
H555 H 0.62573 0.2278 0.8822 0.0
H556 H 0.61932 0.26474 0.92628 0.0
H557 H 0.52255 0.21752 0.93885 0.0
C558 C 0.54839 0.12082 0.86274 0.0
C559 C 0.57456 0.10941 0.84764 0.0
C560 C 0.6021 0.13107 0.84119 0.0
C561 C 0.60448 0.16314 0.85155 0.0
C562 C 0.57871 0.17334 0.86751 0.0
C563 C 0.55086 0.15291 0.87246 0.0
C564 C 0.52823 0.16837 0.89322 0.0
C565 C 0.49638 0.17416 0.87462 0.0
C566 C 0.52129 0.14809 0.92293 0.0
C567 C 0.54872 0.19979 0.9012 0.0
C568 C 0.57755 0.20251 0.88569 0.0
C569 C 0.60273 0.22669 0.89342 0.0
C570 C 0.59888 0.24769 0.91836 0.0
C571 C 0.56992 0.24465 0.93488 0.0
C572 C 0.54412 0.22132 0.92532 0.0
H573 H 0.97072 0.52089 0.87241 0.0
H574 H 0.93328 0.59269 0.8105 0.0
H575 H 0.89805 0.60748 0.85202 0.0
H576 H 0.89685 0.49424 0.90625 0.0
H577 H 0.91476 0.48909 0.94538 0.0
H578 H 0.93858 0.48531 0.9116 0.0
H579 H 0.98284 0.52908 0.93438 0.0
H580 H 0.95941 0.53262 0.96851 0.0
H581 H 0.97122 0.56764 0.94538 0.0
H582 H 0.8636 0.61131 0.89873 0.0
H583 H 0.83699 0.60807 0.94954 0.0
H584 H 0.89858 0.53521 0.98117 0.0
C585 C 0.95547 0.54004 0.86773 0.0
C586 C 0.95469 0.55557 0.8382 0.0
C587 C 0.93439 0.58052 0.833 0.0
C588 C 0.91416 0.589 0.85637 0.0
C589 C 0.91483 0.57256 0.88489 0.0
C590 C 0.93536 0.549 0.89086 0.0
C591 C 0.93129 0.53489 0.9234 0.0
C592 C 0.91968 0.49874 0.92152 0.0
C593 C 0.96308 0.54147 0.94414 0.0
C594 C 0.90489 0.55384 0.93459 0.0
C595 C 0.89557 0.57532 0.91201 0.0
C596 C 0.87091 0.59479 0.91673 0.0
C597 C 0.85581 0.59264 0.94557 0.0
C598 C 0.86561 0.57133 0.96932 0.0
C599 C 0.89037 0.55164 0.96354 0.0
H600 H 0.55013 0.09942 0.15743 0.0
H601 H 0.493 0.13405 0.23047 0.0
H602 H 0.50493 0.18945 0.21095 0.0
H603 H 0.61216 0.17143 0.15569 0.0
H604 H 0.61385 0.16853 0.11348 0.0
H605 H 0.60554 0.1327 0.13655 0.0
H606 H 0.55213 0.11731 0.10227 0.0
H607 H 0.56041 0.15282 0.07909 0.0
H608 H 0.52227 0.14567 0.09799 0.0
H609 H 0.516 0.23938 0.17846 0.0
H610 H 0.52341 0.27839 0.13505 0.0
H611 H 0.5743 0.21094 0.08441 0.0
C612 C 0.54065 0.11867 0.16982 0.0
C613 C 0.52059 0.11233 0.19548 0.0
C614 C 0.50852 0.13828 0.21082 0.0
C615 C 0.51532 0.16988 0.2 0.0
C616 C 0.53462 0.17515 0.17417 0.0
C617 C 0.54729 0.15022 0.15945 0.0
C618 C 0.56441 0.16148 0.13022 0.0
C619 C 0.60117 0.15835 0.13424 0.0
C620 C 0.54886 0.14326 0.10067 0.0
C621 C 0.55791 0.19632 0.12979 0.0
C622 C 0.5413 0.204 0.15565 0.0
C623 C 0.52964 0.23386 0.15849 0.0
C624 C 0.534 0.25591 0.13372 0.0
C625 C 0.54962 0.24779 0.10643 0.0
C626 C 0.56282 0.21813 0.10519 0.0
H627 H 0.0126 0.48822 0.22695 0.0
H628 H 0.94606 0.4962 0.30155 0.0
H629 H 0.90158 0.50319 0.26176 0.0
H630 H 0.98324 0.54677 0.17697 0.0
H631 H 0.98757 0.52546 0.14086 0.0
H632 H 0.01371 0.51914 0.17515 0.0
H633 H 0.99555 0.45796 0.17214 0.0
H634 H 0.96945 0.46407 0.13769 0.0
H635 H 0.95268 0.44379 0.17156 0.0
H636 H 0.86573 0.51512 0.21376 0.0
H637 H 0.84037 0.52572 0.16091 0.0
H638 H 0.92945 0.50649 0.11829 0.0
C639 C 0.98858 0.491 0.23493 0.0
C640 C 0.98289 0.49167 0.26739 0.0
C641 C 0.95105 0.4954 0.27681 0.0
C642 C 0.92559 0.49951 0.25439 0.0
C643 C 0.93218 0.49933 0.2226 0.0
C644 C 0.96277 0.49466 0.21287 0.0
C645 C 0.96362 0.49594 0.17733 0.0
C646 C 0.9885 0.52347 0.16699 0.0
C647 C 0.97074 0.46351 0.1639 0.0
C648 C 0.92895 0.50266 0.16866 0.0
C649 C 0.91117 0.50475 0.19504 0.0
C650 C 0.87921 0.51296 0.19286 0.0
C651 C 0.86504 0.51905 0.16286 0.0
C652 C 0.88275 0.51641 0.13557 0.0
C653 C 0.91501 0.50794 0.13868 0.0
H654 H 0.47993 0.84573 0.09489 0.0
H655 H 0.50349 0.77578 0.16566 0.0
H656 H 0.48885 0.81215 0.20741 0.0
H657 H 0.51726 0.91059 0.13464 0.0
H658 H 0.48842 0.938 0.12186 0.0
H659 H 0.49384 0.90408 0.09763 0.0
H660 H 0.43201 0.88479 0.09786 0.0
H661 H 0.42621 0.91904 0.12175 0.0
H662 H 0.41292 0.87907 0.13492 0.0
H663 H 0.47769 0.85967 0.24151 0.0
H664 H 0.47302 0.91343 0.26421 0.0
H665 H 0.46054 0.9517 0.16992 0.0
C666 C 0.48089 0.83734 0.11901 0.0
C667 C 0.4924 0.80769 0.12698 0.0
C668 C 0.49431 0.79825 0.15901 0.0
C669 C 0.48604 0.81876 0.18283 0.0
C670 C 0.47596 0.84847 0.1741 0.0
C671 C 0.47326 0.85756 0.14283 0.0
C672 C 0.46594 0.89199 0.1394 0.0
C673 C 0.49298 0.91234 0.1224 0.0
C674 C 0.43226 0.89381 0.12249 0.0
C675 C 0.46594 0.90138 0.17365 0.0
C676 C 0.47103 0.87591 0.19344 0.0
C677 C 0.47333 0.87961 0.22618 0.0
C678 C 0.47069 0.91017 0.23886 0.0
C679 C 0.46656 0.93658 0.21872 0.0
C680 C 0.46377 0.9319 0.18583 0.0
H681 H 0.20399 0.50617 0.09897 0.0
H682 H 0.19863 0.60414 0.06739 0.0
H683 H 0.17796 0.61793 0.11849 0.0
H684 H 0.13061 0.49879 0.13604 0.0
H685 H 0.14399 0.47483 0.16857 0.0
H686 H 0.16279 0.47356 0.13144 0.0
H687 H 0.21972 0.48948 0.1593 0.0
H688 H 0.20111 0.49047 0.19664 0.0
H689 H 0.22629 0.52522 0.18344 0.0
H690 H 0.15332 0.61997 0.17104 0.0
H691 H 0.12678 0.60997 0.22143 0.0
H692 H 0.14667 0.51033 0.21796 0.0
C693 C 0.19937 0.53073 0.10319 0.0
C694 C 0.20316 0.55415 0.07934 0.0
C695 C 0.19597 0.58583 0.08539 0.0
C696 C 0.18429 0.59393 0.11436 0.0
C697 C 0.17984 0.57006 0.13704 0.0
C698 C 0.18729 0.53913 0.13187 0.0
C699 C 0.17777 0.51737 0.15911 0.0
C700 C 0.15227 0.48951 0.14812 0.0
C701 C 0.20803 0.50491 0.1756 0.0
C702 C 0.16316 0.54071 0.17998 0.0
C703 C 0.16494 0.57107 0.16705 0.0
C704 C 0.15206 0.59636 0.18159 0.0
C705 C 0.13696 0.59044 0.21015 0.0
C706 C 0.1346 0.5594 0.22366 0.0
C707 C 0.14807 0.53436 0.20831 0.0
H708 H 0.84125 0.92881 0.52859 0.0
H709 H 0.84122 0.926 0.42638 0.0
H710 H 0.89461 0.90486 0.42979 0.0
H711 H 0.92969 0.94984 0.54368 0.0
H712 H 0.93201 0.92401 0.57755 0.0
H713 H 0.89494 0.94182 0.56752 0.0
H714 H 0.86227 0.88539 0.56564 0.0
H715 H 0.89916 0.86747 0.5758 0.0
H716 H 0.87479 0.85477 0.54059 0.0
H717 H 0.94682 0.88238 0.44355 0.0
H718 H 0.99263 0.85549 0.46709 0.0
H719 H 0.95868 0.87032 0.56042 0.0
C720 C 0.85274 0.92408 0.50701 0.0
C721 C 0.8371 0.92916 0.47723 0.0
C722 C 0.85264 0.92219 0.44948 0.0
C723 C 0.88312 0.91038 0.45113 0.0
C724 C 0.89782 0.90538 0.48073 0.0
C725 C 0.88313 0.9117 0.50821 0.0
C726 C 0.90328 0.90183 0.53688 0.0
C727 C 0.91572 0.93113 0.55763 0.0
C728 C 0.88371 0.87581 0.55583 0.0
C729 C 0.93113 0.88852 0.52108 0.0
C730 C 0.92774 0.89136 0.48871 0.0
C731 C 0.94988 0.88012 0.46891 0.0
C732 C 0.97588 0.86493 0.48251 0.0
C733 C 0.97931 0.86075 0.51558 0.0
C734 C 0.95685 0.87323 0.53506 0.0
H735 H 0.89348 0.2235 0.5172 0.0
H736 H 0.97564 0.16723 0.531 0.0
H737 H 0.94064 0.11891 0.51193 0.0
H738 H 0.83276 0.16318 0.543 0.0
H739 H 0.80164 0.1735 0.51445 0.0
H740 H 0.83349 0.20371 0.52847 0.0
H741 H 0.84833 0.21579 0.47081 0.0
H742 H 0.81675 0.18531 0.45664 0.0
H743 H 0.85826 0.18365 0.44612 0.0
H744 H 0.89674 0.07664 0.49186 0.0
H745 H 0.84606 0.04253 0.47604 0.0
H746 H 0.79246 0.12634 0.47534 0.0
C747 C 0.90419 0.20104 0.51628 0.0
C748 C 0.9374 0.19926 0.5256 0.0
C749 C 0.95029 0.16929 0.52407 0.0
C750 C 0.93065 0.1417 0.5131 0.0
C751 C 0.89818 0.14445 0.50374 0.0
C752 C 0.88496 0.17328 0.50544 0.0
C753 C 0.84907 0.16952 0.49486 0.0
C754 C 0.828 0.17797 0.52181 0.0
C755 C 0.84275 0.18977 0.46535 0.0
C756 C 0.84409 0.13397 0.48726 0.0
C757 C 0.8728 0.12003 0.49227 0.0
C758 C 0.87413 0.0873 0.48776 0.0
C759 C 0.84517 0.06813 0.47871 0.0
C760 C 0.81519 0.0817 0.47436 0.0
C761 C 0.81495 0.11522 0.4781 0.0
H762 H 0.14159 0.87897 0.54351 0.0
H763 H 0.18755 0.80472 0.49722 0.0
H764 H 0.23559 0.84324 0.48873 0.0
H765 H 0.17538 0.94736 0.49474 0.0
H766 H 0.18161 0.97453 0.52794 0.0
H767 H 0.14882 0.94235 0.5271 0.0
H768 H 0.17105 0.9221 0.58093 0.0
H769 H 0.20391 0.95409 0.58185 0.0
H770 H 0.21278 0.91297 0.58529 0.0
H771 H 0.2803 0.88747 0.48903 0.0
H772 H 0.31976 0.9353 0.49865 0.0
H773 H 0.24632 0.98172 0.54558 0.0
C774 C 0.16149 0.87115 0.53095 0.0
C775 C 0.16082 0.83891 0.52088 0.0
C776 C 0.1876 0.82929 0.50519 0.0
C777 C 0.21495 0.85102 0.5001 0.0
C778 C 0.2153 0.88238 0.51092 0.0
C779 C 0.18936 0.89258 0.52598 0.0
C780 C 0.19736 0.92701 0.53742 0.0
C781 C 0.17442 0.94912 0.5208 0.0
C782 C 0.19621 0.92915 0.57351 0.0
C783 C 0.23201 0.93414 0.52702 0.0
C784 C 0.24164 0.90812 0.51147 0.0
C785 C 0.27298 0.90818 0.50088 0.0
C786 C 0.29528 0.93547 0.50656 0.0
C787 C 0.28625 0.96238 0.52283 0.0
C788 C 0.25397 0.96171 0.53281 0.0
H789 H 0.10403 0.17921 0.53069 0.0
H790 H 0.08659 0.16799 0.6302 0.0
H791 H 0.12995 0.13189 0.63595 0.0
H792 H 0.12211 0.09577 0.51777 0.0
H793 H 0.15305 0.10801 0.49057 0.0
H794 H 0.11885 0.13096 0.49379 0.0
H795 H 0.15867 0.18228 0.50561 0.0
H796 H 0.19291 0.15949 0.50252 0.0
H797 H 0.18898 0.1822 0.53788 0.0
H798 H 0.17932 0.10184 0.63216 0.0
H799 H 0.22869 0.07751 0.61801 0.0
H800 H 0.21185 0.10612 0.5207 0.0
C801 C 0.10899 0.16878 0.55358 0.0
C802 C 0.09193 0.17648 0.57998 0.0
C803 C 0.09923 0.16238 0.60956 0.0
C804 C 0.12385 0.14183 0.61311 0.0
C805 C 0.14062 0.13519 0.58675 0.0
C806 C 0.13322 0.14789 0.55746 0.0
C807 C 0.1556 0.13779 0.53314 0.0
C808 C 0.13624 0.11688 0.50729 0.0
C809 C 0.1752 0.16719 0.51897 0.0
C810 C 0.17736 0.1183 0.55354 0.0
C811 C 0.16833 0.11699 0.58439 0.0
C812 C 0.18629 0.1022 0.60796 0.0
C813 C 0.21431 0.08854 0.59976 0.0
C814 C 0.22389 0.08963 0.56825 0.0
C815 C 0.20483 0.10436 0.54489 0.0
loop_
_geom_bond_atom_site_label_1
_geom_bond_atom_site_label_2
_geom_bond_distance
_geom_bond_site_symmetry_2
_ccdc_geom_bond_type
Mg0 O1 2.028 . S
Mg0 O7 1.986 . S
Mg0 O9 2.114 . S
Mg0 O10 2.251 . S
Mg0 O13 2.010 . S
O1 Mg0 2.028 . S
O1 C4 1.250 1_455 S
O2 Mg3 2.028 . S
O2 C4 1.248 . S
Mg3 O2 2.028 . S
Mg3 O8 2.048 . S
Mg3 O10 2.079 1_655 S
C4 O1 1.250 1_655 S
C4 O2 1.248 . S
C5 O6 1.264 . S
C5 O13 1.249 . S
O6 C5 1.264 . S
O7 Mg0 1.986 . S
O7 C11 1.246 . S
O8 Mg3 2.048 . S
O8 C11 1.233 1_655 S
O9 Mg0 2.114 . S
O9 C12 1.252 . S
O10 Mg0 2.251 . S
O10 Mg3 2.079 1_455 S
O10 C12 1.273 . S
C11 O7 1.246 . S
C11 O8 1.233 1_455 S
C12 O9 1.252 . S
C12 O10 1.273 . S
O13 Mg0 2.010 . S
O13 C5 1.249 . S
Mg14 O15 2.028 . S
Mg14 O21 1.986 . S
Mg14 O23 2.114 . S
Mg14 O24 2.251 . S
Mg14 O27 2.010 1_545 S
O15 Mg14 2.028 . S
O15 C18 1.250 . S
O16 Mg17 2.028 . S
O16 C18 1.248 . S
Mg17 O16 2.028 . S
Mg17 O22 2.032 . S
Mg17 O24 2.079 . S
C18 O15 1.250 . S
C18 O16 1.248 . S
C19 O20 1.264 . S
C19 O27 1.249 . S
O20 C19 1.264 . S
O21 Mg14 1.986 . S
O21 C25 1.246 . S
O22 Mg17 2.032 . S
O22 C25 1.259 . S
O23 Mg14 2.114 . S
O23 C26 1.252 . S
O24 Mg14 2.251 . S
O24 Mg17 2.079 . S
O24 C26 1.273 . S
C25 O21 1.246 . S
C25 O22 1.259 . S
C26 O23 1.252 . S
C26 O24 1.273 . S
O27 Mg14 2.010 1_565 S
O27 C19 1.249 . S
Mg28 O29 2.028 . S
Mg28 O35 1.986 . S
Mg28 O37 2.114 . S
Mg28 O38 2.251 . S
Mg28 O41 2.010 1_455 S
O29 Mg28 2.028 . S
O29 C32 1.250 . S
O30 Mg31 2.028 . S
O30 C32 1.248 . S
Mg31 O30 2.028 . S
Mg31 O36 2.032 . S
Mg31 O38 2.079 . S
C32 O29 1.250 . S
C32 O30 1.248 . S
C33 O34 1.264 . S
C33 O41 1.249 . S
O34 C33 1.264 . S
O35 Mg28 1.986 . S
O35 C39 1.246 . S
O36 Mg31 2.032 . S
O36 C39 1.259 . S
O37 Mg28 2.114 . S
O37 C40 1.252 . S
O38 Mg28 2.251 . S
O38 Mg31 2.079 . S
O38 C40 1.273 . S
C39 O35 1.246 . S
C39 O36 1.259 . S
C40 O37 1.252 . S
C40 O38 1.273 . S
O41 Mg28 2.010 1_655 S
O41 C33 1.249 . S
Mg42 O43 2.027 . S
Mg42 O49 1.986 . S
Mg42 O51 2.114 . S
Mg42 O52 2.251 . S
Mg42 O55 2.010 . S
O43 Mg42 2.027 . S
O43 C46 1.253 1_545 S
O44 Mg45 2.028 . S
O44 C46 1.248 . S
Mg45 O44 2.028 . S
Mg45 O50 2.032 . S
Mg45 O52 2.079 1_565 S
C46 O43 1.253 1_565 S
C46 O44 1.248 . S
C47 O48 1.264 . S
C47 O55 1.249 . S
O48 C47 1.264 . S
O49 Mg42 1.986 . S
O49 C53 1.246 . S
O50 Mg45 2.032 . S
O50 C53 1.259 1_565 S
O51 Mg42 2.114 . S
O51 C54 1.252 . S
O52 Mg42 2.251 . S
O52 Mg45 2.079 1_545 S
O52 C54 1.273 . S
C53 O49 1.246 . S
C53 O50 1.259 1_545 S
C54 O51 1.252 . S
C54 O52 1.273 . S
O55 Mg42 2.010 . S
O55 C47 1.249 . S
Mg56 O57 2.028 . S
Mg56 O63 1.986 . S
Mg56 O65 2.114 1_545 S
Mg56 O66 2.251 1_545 S
Mg56 O69 2.010 . S
O57 Mg56 2.028 . S
O57 C60 1.250 . S
O58 Mg59 2.028 . S
O58 C60 1.248 . S
Mg59 O58 2.028 . S
Mg59 O64 2.032 . S
Mg59 O66 2.079 1_545 S
C60 O57 1.250 . S
C60 O58 1.248 . S
C61 O62 1.264 . S
C61 O69 1.249 . S
O62 C61 1.264 . S
O63 Mg56 1.986 . S
O63 C67 1.246 . S
O64 Mg59 2.032 . S
O64 C67 1.259 . S
O65 Mg56 2.114 1_565 S
O65 C68 1.252 . S
O66 Mg56 2.251 1_565 S
O66 Mg59 2.079 1_565 S
O66 C68 1.273 . S
C67 O63 1.246 . S
C67 O64 1.259 . S
C68 O65 1.252 . S
C68 O66 1.273 . S
O69 Mg56 2.010 . S
O69 C61 1.249 . S
Mg70 O71 2.028 . S
Mg70 O77 1.986 . S
Mg70 O79 2.114 . S
Mg70 O80 2.251 . S
Mg70 O83 2.010 . S
O71 Mg70 2.028 . S
O71 C74 1.250 1_455 S
O72 Mg73 2.028 . S
O72 C74 1.248 . S
Mg73 O72 2.028 . S
Mg73 O78 2.032 1_655 S
Mg73 O80 2.079 1_655 S
C74 O71 1.250 1_655 S
C74 O72 1.248 . S
C75 O76 1.264 . S
C75 O83 1.249 . S
O76 C75 1.264 . S
O77 Mg70 1.986 . S
O77 C81 1.246 . S
O78 Mg73 2.032 1_455 S
O78 C81 1.259 . S
O79 Mg70 2.114 . S
O79 C82 1.252 . S
O80 Mg70 2.251 . S
O80 Mg73 2.079 1_455 S
O80 C82 1.273 . S
C81 O77 1.246 . S
C81 O78 1.259 . S
C82 O79 1.252 . S
C82 O80 1.273 . S
O83 Mg70 2.010 . S
O83 C75 1.249 . S
Mg84 O85 2.028 . S
Mg84 O91 1.986 . S
Mg84 O93 2.114 1_545 S
Mg84 O94 2.238 1_545 S
Mg84 O97 2.010 . S
O85 Mg84 2.028 . S
O85 C88 1.250 . S
O86 Mg87 2.028 . S
O86 C88 1.248 . S
Mg87 O86 2.028 . S
Mg87 O92 2.032 . S
Mg87 O94 2.060 1_545 S
C88 O85 1.250 . S
C88 O86 1.248 . S
C89 O90 1.264 . S
C89 O97 1.249 . S
O90 C89 1.264 . S
O91 Mg84 1.986 . S
O91 C95 1.246 . S
O92 Mg87 2.032 . S
O92 C95 1.259 . S
O93 Mg84 2.114 1_565 S
O93 C96 1.252 . S
O94 Mg84 2.238 1_565 S
O94 Mg87 2.060 1_565 S
O94 C96 1.302 . S
C95 O91 1.246 . S
C95 O92 1.259 . S
C96 O93 1.252 . S
C96 O94 1.302 . S
O97 Mg84 2.010 . S
O97 C89 1.249 . S
Mg98 O99 2.028 . S
Mg98 O105 1.986 . S
Mg98 O107 2.114 . S
Mg98 O108 2.251 . S
Mg98 O111 2.010 1_455 S
O99 Mg98 2.028 . S
O99 C102 1.250 . S
O100 Mg101 2.028 . S
O100 C102 1.248 . S
Mg101 O100 2.028 . S
Mg101 O106 2.032 . S
Mg101 O108 2.079 . S
C102 O99 1.250 . S
C102 O100 1.248 . S
C103 O104 1.264 . S
C103 O111 1.249 . S
O104 C103 1.264 . S
O105 Mg98 1.986 . S
O105 C109 1.246 . S
O106 Mg101 2.032 . S
O106 C109 1.259 . S
O107 Mg98 2.114 . S
O107 C110 1.252 . S
O108 Mg98 2.251 . S
O108 Mg101 2.079 . S
O108 C110 1.273 . S
C109 O105 1.246 . S
C109 O106 1.259 . S
C110 O107 1.252 . S
C110 O108 1.273 . S
O111 Mg98 2.010 1_655 S
O111 C103 1.249 . S
Mg112 O113 2.028 . S
Mg112 O119 1.986 . S
Mg112 O121 2.114 1_554 S
Mg112 O122 2.251 1_554 S
Mg112 O125 2.010 . S
O113 Mg112 2.028 . S
O113 C116 1.250 . S
O114 Mg115 2.028 . S
O114 C116 1.248 . S
Mg115 O114 2.028 . S
Mg115 O120 2.032 . S
Mg115 O122 2.079 1_554 S
C116 O113 1.250 . S
C116 O114 1.248 . S
C117 O118 1.264 . S
C117 O125 1.249 . S
O118 C117 1.264 . S
O119 Mg112 1.986 . S
O119 C123 1.246 . S
O120 Mg115 2.032 . S
O120 C123 1.259 . S
O121 Mg112 2.114 1_556 S
O121 C124 1.252 . S
O122 Mg112 2.251 1_556 S
O122 Mg115 2.079 1_556 S
O122 C124 1.273 . S
C123 O119 1.246 . S
C123 O120 1.259 . S
C124 O121 1.252 . S
C124 O122 1.273 . S
O125 Mg112 2.010 . S
O125 C117 1.249 . S
Mg126 O127 2.028 . S
Mg126 O133 1.986 1_554 S
Mg126 O135 2.114 . S
Mg126 O136 2.251 . S
Mg126 O139 2.010 . S
O127 Mg126 2.028 . S
O127 C130 1.250 . S
O128 Mg129 2.028 . S
O128 C130 1.248 . S
Mg129 O128 2.028 . S
Mg129 O134 2.032 1_554 S
Mg129 O136 2.079 . S
C130 O127 1.250 . S
C130 O128 1.248 . S
C131 O132 1.264 . S
C131 O139 1.249 . S
O132 C131 1.264 . S
O133 Mg126 1.986 1_556 S
O133 C137 1.246 . S
O134 Mg129 2.032 1_556 S
O134 C137 1.259 . S
O135 Mg126 2.114 . S
O135 C138 1.252 . S
O136 Mg126 2.251 . S
O136 Mg129 2.079 . S
O136 C138 1.273 . S
C137 O133 1.246 . S
C137 O134 1.259 . S
C138 O135 1.252 . S
C138 O136 1.273 . S
O139 Mg126 2.010 . S
O139 C131 1.249 . S
Mg140 O141 2.028 . S
Mg140 O147 1.986 . S
Mg140 O149 2.114 1_554 S
Mg140 O150 2.251 . S
Mg140 O153 2.010 . S
O141 Mg140 2.028 . S
O141 C144 1.250 . S
O142 Mg143 2.028 . S
O142 C144 1.248 . S
Mg143 O142 2.028 . S
Mg143 O148 2.032 . S
Mg143 O150 2.079 . S
C144 O141 1.250 . S
C144 O142 1.248 . S
C145 O146 1.264 . S
C145 O153 1.249 . S
O146 C145 1.264 . S
O147 Mg140 1.986 . S
O147 C151 1.246 . S
O148 Mg143 2.032 . S
O148 C151 1.259 . S
O149 Mg140 2.114 1_556 S
O149 C152 1.252 . S
O150 Mg140 2.251 . S
O150 Mg143 2.079 . S
O150 C152 1.273 1_554 S
C151 O147 1.246 . S
C151 O148 1.259 . S
C152 O149 1.252 . S
C152 O150 1.273 1_556 S
O153 Mg140 2.010 . S
O153 C145 1.249 . S
Mg154 O155 2.028 . S
Mg154 O161 1.986 1_554 S
Mg154 O163 2.114 . S
Mg154 O164 2.251 . S
Mg154 O167 2.010 . S
O155 Mg154 2.028 . S
O155 C158 1.250 . S
O156 Mg157 2.028 . S
O156 C158 1.248 . S
Mg157 O156 2.028 . S
Mg157 O162 2.032 1_554 S
Mg157 O164 2.079 . S
C158 O155 1.250 . S
C158 O156 1.248 . S
C159 O160 1.264 . S
C159 O167 1.249 . S
O160 C159 1.264 . S
O161 Mg154 1.986 1_556 S
O161 C165 1.246 . S
O162 Mg157 2.032 1_556 S
O162 C165 1.259 . S
O163 Mg154 2.114 . S
O163 C166 1.252 . S
O164 Mg154 2.251 . S
O164 Mg157 2.079 . S
O164 C166 1.273 . S
C165 O161 1.246 . S
C165 O162 1.259 . S
C166 O163 1.252 . S
C166 O164 1.273 . S
O167 Mg154 2.010 . S
O167 C159 1.249 . S
H168 C180 0.930 . S
H169 C182 0.930 . S
H170 C183 0.930 . S
H171 C187 0.959 . S
H172 C187 0.959 . S
H173 C187 0.961 . S
H174 C188 0.960 . S
H175 C188 0.961 . S
H176 C188 0.959 . S
H177 C191 0.929 . S
H178 C192 0.931 . S
H179 C194 0.930 . S
C180 H168 0.930 . S
C180 C181 1.399 . S
C180 C185 1.399 . S
C181 C180 1.399 . S
C181 C182 1.376 . S
C182 H169 0.930 . S
C182 C181 1.376 . S
C182 C183 1.388 . S
C183 H170 0.930 . S
C183 C182 1.388 . S
C183 C184 1.390 . S
C184 C183 1.390 . S
C184 C185 1.394 . S
C184 C190 1.465 . S
C185 C180 1.399 . S
C185 C184 1.394 . S
C185 C186 1.516 . S
C186 C185 1.516 . S
C186 C187 1.502 . S
C186 C188 1.561 . S
C186 C189 1.526 . S
C187 H171 0.959 . S
C187 H172 0.959 . S
C187 H173 0.961 . S
C187 C186 1.502 . S
C188 H174 0.960 . S
C188 H175 0.961 . S
C188 H176 0.959 . S
C188 C186 1.561 . S
C189 C186 1.526 . S
C189 C190 1.396 . S
C189 C194 1.390 . S
C190 C184 1.465 . S
C190 C189 1.396 . S
C190 C191 1.399 . S
C191 H177 0.929 . S
C191 C190 1.399 . S
C191 C192 1.385 . S
C192 H178 0.931 . S
C192 C191 1.385 . S
C192 C193 1.389 . S
C193 C192 1.389 . S
C193 C194 1.387 . S
C194 H179 0.930 . S
C194 C189 1.390 . S
C194 C193 1.387 . S
H195 C207 0.930 . S
H196 C209 0.930 1_565 S
H197 C210 0.930 . S
H198 C214 0.959 . S
H199 C214 0.959 . S
H200 C214 0.961 . S
H201 C215 0.960 . S
H202 C215 0.961 . S
H203 C215 0.959 . S
H204 C218 0.929 . S
H205 C219 0.931 . S
H206 C221 0.930 . S
C207 H195 0.930 . S
C207 C208 1.399 . S
C207 C212 1.399 . S
C208 C207 1.399 . S
C208 C209 1.376 . S
C209 H196 0.930 1_545 S
C209 C208 1.376 . S
C209 C210 1.388 1_545 S
C210 H197 0.930 . S
C210 C209 1.388 1_565 S
C210 C211 1.390 1_565 S
C211 C210 1.390 1_545 S
C211 C212 1.394 . S
C211 C217 1.465 . S
C212 C207 1.399 . S
C212 C211 1.394 . S
C212 C213 1.516 . S
C213 C212 1.516 . S
C213 C214 1.502 . S
C213 C215 1.561 . S
C213 C216 1.526 . S
C214 H198 0.959 . S
C214 H199 0.959 . S
C214 H200 0.961 . S
C214 C213 1.502 . S
C215 H201 0.960 . S
C215 H202 0.961 . S
C215 H203 0.959 . S
C215 C213 1.561 . S
C216 C213 1.526 . S
C216 C217 1.396 . S
C216 C221 1.390 . S
C217 C211 1.465 . S
C217 C216 1.396 . S
C217 C218 1.399 1_545 S
C218 H204 0.929 . S
C218 C217 1.399 1_565 S
C218 C219 1.385 . S
C219 H205 0.931 . S
C219 C218 1.385 . S
C219 C220 1.389 1_565 S
C220 C219 1.389 1_545 S
C220 C221 1.387 . S
C221 H206 0.930 . S
C221 C216 1.390 . S
C221 C220 1.387 . S
H222 C234 0.930 . S
H223 C236 0.930 . S
H224 C237 0.930 . S
H225 C241 0.959 . S
H226 C241 0.959 . S
H227 C241 0.961 . S
H228 C242 0.960 . S
H229 C242 0.961 . S
H230 C242 0.959 1_655 S
H231 C245 0.929 . S
H232 C246 0.931 . S
H233 C248 0.930 . S
C234 H222 0.930 . S
C234 C235 1.399 . S
C234 C239 1.399 . S
C235 C234 1.399 . S
C235 C236 1.376 . S
C236 H223 0.930 . S
C236 C235 1.376 . S
C236 C237 1.388 . S
C237 H224 0.930 . S
C237 C236 1.388 . S
C237 C238 1.390 . S
C238 C237 1.390 . S
C238 C239 1.394 . S
C238 C244 1.465 . S
C239 C234 1.399 . S
C239 C238 1.394 . S
C239 C240 1.516 . S
C240 C239 1.516 . S
C240 C241 1.502 . S
C240 C242 1.561 . S
C240 C243 1.526 . S
C241 H225 0.959 . S
C241 H226 0.959 . S
C241 H227 0.961 . S
C241 C240 1.502 . S
C242 H228 0.960 . S
C242 H229 0.961 . S
C242 H230 0.959 1_455 S
C242 C240 1.561 . S
C243 C240 1.526 . S
C243 C244 1.396 . S
C243 C248 1.390 . S
C244 C238 1.465 . S
C244 C243 1.396 . S
C244 C245 1.399 . S
C245 H231 0.929 . S
C245 C244 1.399 . S
C245 C246 1.385 . S
C246 H232 0.931 . S
C246 C245 1.385 . S
C246 C247 1.389 . S
C247 C246 1.389 . S
C247 C248 1.387 . S
C248 H233 0.930 . S
C248 C243 1.390 . S
C248 C247 1.387 . S
H249 C261 0.930 . S
H250 C263 0.930 . S
H251 C264 0.930 . S
H252 C268 0.959 . S
H253 C268 0.959 . S
H254 C268 0.961 . S
H255 C269 0.960 . S
H256 C269 0.961 . S
H257 C269 0.959 . S
H258 C272 0.929 . S
H259 C273 0.931 . S
H260 C275 0.930 . S
C261 H249 0.930 . S
C261 C262 1.399 . S
C261 C266 1.399 . S
C262 C261 1.399 . S
C262 C263 1.376 1_545 S
C263 H250 0.930 . S
C263 C262 1.376 1_565 S
C263 C264 1.388 . S
C264 H251 0.930 . S
C264 C263 1.388 . S
C264 C265 1.390 1_565 S
C265 C264 1.390 1_545 S
C265 C266 1.394 . S
C265 C271 1.465 . S
C266 C261 1.399 . S
C266 C265 1.394 . S
C266 C267 1.516 . S
C267 C266 1.516 . S
C267 C268 1.502 . S
C267 C269 1.561 . S
C267 C270 1.526 . S
C268 H252 0.959 . S
C268 H253 0.959 . S
C268 H254 0.961 . S
C268 C267 1.502 . S
C269 H255 0.960 . S
C269 H256 0.961 . S
C269 H257 0.959 . S
C269 C267 1.561 . S
C270 C267 1.526 . S
C270 C271 1.396 . S
C270 C275 1.390 . S
C271 C265 1.465 . S
C271 C270 1.396 . S
C271 C272 1.399 1_545 S
C272 H258 0.929 . S
C272 C271 1.399 1_565 S
C272 C273 1.385 . S
C273 H259 0.931 . S
C273 C272 1.385 . S
C273 C274 1.389 1_565 S
C274 C273 1.389 1_545 S
C274 C275 1.387 . S
C275 H260 0.930 . S
C275 C270 1.390 . S
C275 C274 1.387 . S
H276 C288 0.930 1_655 S
H277 C290 0.930 . S
H278 C291 0.930 . S
H279 C295 0.959 . S
H280 C295 0.959 . S
H281 C295 0.961 . S
H282 C296 0.960 . S
H283 C296 0.961 . S
H284 C296 0.959 1_455 S
H285 C299 0.929 . S
H286 C300 0.931 . S
H287 C302 0.951 . S
C288 H276 0.930 1_455 S
C288 C289 1.399 . S
C288 C293 1.399 . S
C289 C288 1.399 . S
C289 C290 1.376 . S
C290 H277 0.930 . S
C290 C289 1.376 . S
C290 C291 1.388 . S
C291 H278 0.930 . S
C291 C290 1.388 . S
C291 C292 1.390 . S
C292 C291 1.390 . S
C292 C293 1.394 . S
C292 C298 1.465 . S
C293 C288 1.399 . S
C293 C292 1.394 . S
C293 C294 1.516 . S
C294 C293 1.516 . S
C294 C295 1.502 1_455 S
C294 C296 1.561 1_455 S
C294 C297 1.526 . S
C295 H279 0.959 . S
C295 H280 0.959 . S
C295 H281 0.961 . S
C295 C294 1.502 1_655 S
C296 H282 0.960 . S
C296 H283 0.961 . S
C296 H284 0.959 1_655 S
C296 C294 1.561 1_655 S
C297 C294 1.526 . S
C297 C298 1.396 . S
C297 C302 1.390 . S
C298 C292 1.465 . S
C298 C297 1.396 . S
C298 C299 1.399 . S
C299 H285 0.929 . S
C299 C298 1.399 . S
C299 C300 1.385 . S
C300 H286 0.931 . S
C300 C299 1.385 . S
C300 C301 1.389 . S
C301 C300 1.389 . S
C301 C302 1.387 . S
C302 H287 0.951 . S
C302 C297 1.390 . S
C302 C301 1.387 . S
H303 C315 0.930 1_565 S
H304 C317 0.930 . S
H305 C318 0.930 . S
H306 C322 0.959 1_545 S
H307 C322 0.959 . S
H308 C322 0.961 . S
H309 C323 0.960 . S
H310 C323 0.961 . S
H311 C323 0.959 . S
H312 C326 0.929 . S
H313 C327 0.931 . S
H314 C329 0.930 1_565 S
C315 H303 0.930 1_545 S
C315 C316 1.399 . S
C315 C320 1.399 . S
C316 C315 1.399 . S
C316 C317 1.376 . S
C317 H304 0.930 . S
C317 C316 1.376 . S
C317 C318 1.388 . S
C318 H305 0.930 . S
C318 C317 1.388 . S
C318 C319 1.390 . S
C319 C318 1.390 . S
C319 C320 1.394 . S
C319 C325 1.465 . S
C320 C315 1.399 . S
C320 C319 1.394 . S
C320 C321 1.516 1_545 S
C321 C320 1.516 1_565 S
C321 C322 1.502 . S
C321 C323 1.561 . S
C321 C324 1.526 1_565 S
C322 H306 0.959 1_565 S
C322 H307 0.959 . S
C322 H308 0.961 . S
C322 C321 1.502 . S
C323 H309 0.960 . S
C323 H310 0.961 . S
C323 H311 0.959 . S
C323 C321 1.561 . S
C324 C321 1.526 1_545 S
C324 C325 1.396 . S
C324 C329 1.390 . S
C325 C319 1.465 . S
C325 C324 1.396 . S
C325 C326 1.399 . S
C326 H312 0.929 . S
C326 C325 1.399 . S
C326 C327 1.385 . S
C327 H313 0.931 . S
C327 C326 1.385 . S
C327 C328 1.389 . S
C328 C327 1.389 . S
C328 C329 1.387 . S
C329 H314 0.930 1_545 S
C329 C324 1.390 . S
C329 C328 1.387 . S
H330 C342 0.930 . S
H331 C344 0.930 . S
H332 C345 0.930 . S
H333 C349 0.959 . S
H334 C349 0.959 . S
H335 C349 0.961 . S
H336 C350 0.960 . S
H337 C350 0.960 . S
H338 C350 0.959 . S
H339 C353 0.929 . S
H340 C354 0.931 . S
H341 C356 0.930 . S
C342 H330 0.930 . S
C342 C343 1.399 . S
C342 C347 1.399 . S
C343 C342 1.399 . S
C343 C344 1.376 . S
C344 H331 0.930 . S
C344 C343 1.376 . S
C344 C345 1.388 . S
C345 H332 0.930 . S
C345 C344 1.388 . S
C345 C346 1.390 . S
C346 C345 1.390 . S
C346 C347 1.394 . S
C346 C352 1.465 . S
C347 C342 1.399 . S
C347 C346 1.394 . S
C347 C348 1.516 . S
C348 C347 1.516 . S
C348 C349 1.502 . S
C348 C350 1.561 1_455 S
C348 C351 1.526 . S
C349 H333 0.959 . S
C349 H334 0.959 . S
C349 H335 0.961 . S
C349 C348 1.502 . S
C350 H336 0.960 . S
C350 H337 0.960 . S
C350 H338 0.959 . S
C350 C348 1.561 1_655 S
C351 C348 1.526 . S
C351 C352 1.396 . S
C351 C356 1.390 . S
C352 C346 1.465 . S
C352 C351 1.396 . S
C352 C353 1.399 . S
C353 H339 0.929 . S
C353 C352 1.399 . S
C353 C354 1.385 . S
C354 H340 0.931 . S
C354 C353 1.385 . S
C354 C355 1.389 . S
C355 C354 1.389 . S
C355 C356 1.387 . S
C356 H341 0.930 . S
C356 C351 1.390 . S
C356 C355 1.387 . S
H357 C369 0.930 1_565 S
H358 C371 0.930 . S
H359 C372 0.930 . S
H360 C376 0.959 . S
H361 C376 0.959 . S
H362 C376 0.961 . S
H363 C377 0.960 . S
H364 C377 0.961 . S
H365 C377 0.959 . S
H366 C380 0.929 . S
H367 C381 0.931 . S
H368 C383 0.930 1_565 S
C369 H357 0.930 1_545 S
C369 C370 1.399 . S
C369 C374 1.399 . S
C370 C369 1.399 . S
C370 C371 1.376 . S
C371 H358 0.930 . S
C371 C370 1.376 . S
C371 C372 1.388 . S
C372 H359 0.930 . S
C372 C371 1.388 . S
C372 C373 1.390 . S
C373 C372 1.390 . S
C373 C374 1.394 . S
C373 C379 1.465 . S
C374 C369 1.399 . S
C374 C373 1.394 . S
C374 C375 1.516 1_545 S
C375 C374 1.516 1_565 S
C375 C376 1.502 . S
C375 C377 1.561 . S
C375 C378 1.526 1_565 S
C376 H360 0.959 . S
C376 H361 0.959 . S
C376 H362 0.961 . S
C376 C375 1.502 . S
C377 H363 0.960 . S
C377 H364 0.961 . S
C377 H365 0.959 . S
C377 C375 1.561 . S
C378 C375 1.526 1_545 S
C378 C379 1.396 . S
C378 C383 1.390 . S
C379 C373 1.465 . S
C379 C378 1.396 . S
C379 C380 1.399 . S
C380 H366 0.929 . S
C380 C379 1.399 . S
C380 C381 1.385 . S
C381 H367 0.931 . S
C381 C380 1.385 . S
C381 C382 1.389 . S
C382 C381 1.389 . S
C382 C383 1.387 . S
C383 H368 0.930 1_545 S
C383 C378 1.390 . S
C383 C382 1.387 . S
H384 C396 0.930 1_556 S
H385 C398 0.930 . S
H386 C399 0.930 . S
H387 C403 0.959 . S
H388 C403 0.959 . S
H389 C403 0.961 . S
H390 C404 0.960 . S
H391 C404 0.961 . S
H392 C404 0.959 . S
H393 C407 0.929 . S
H394 C408 0.931 . S
H395 C410 0.930 1_556 S
C396 H384 0.930 1_554 S
C396 C397 1.399 . S
C396 C401 1.399 . S
C397 C396 1.399 . S
C397 C398 1.376 . S
C398 H385 0.930 . S
C398 C397 1.376 . S
C398 C399 1.388 . S
C399 H386 0.930 . S
C399 C398 1.388 . S
C399 C400 1.390 . S
C400 C399 1.390 . S
C400 C401 1.394 . S
C400 C406 1.465 . S
C401 C396 1.399 . S
C401 C400 1.394 . S
C401 C402 1.516 1_554 S
C402 C401 1.516 1_556 S
C402 C403 1.502 . S
C402 C404 1.561 1_556 S
C402 C405 1.526 1_556 S
C403 H387 0.959 . S
C403 H388 0.959 . S
C403 H389 0.961 . S
C403 C402 1.502 . S
C404 H390 0.960 . S
C404 H391 0.961 . S
C404 H392 0.959 . S
C404 C402 1.561 1_554 S
C405 C402 1.526 1_554 S
C405 C406 1.396 . S
C405 C410 1.390 . S
C406 C400 1.465 . S
C406 C405 1.396 . S
C406 C407 1.399 . S
C407 H393 0.929 . S
C407 C406 1.399 . S
C407 C408 1.385 . S
C408 H394 0.931 . S
C408 C407 1.385 . S
C408 C409 1.389 . S
C409 C408 1.389 . S
C409 C410 1.387 . S
C410 H395 0.930 1_554 S
C410 C405 1.390 . S
C410 C409 1.387 . S
H411 C423 0.930 . S
H412 C425 0.930 . S
H413 C426 0.930 . S
H414 C430 0.959 . S
H415 C430 0.959 . S
H416 C430 0.961 . S
H417 C431 0.960 . S
H418 C431 0.961 . S
H419 C431 0.959 . S
H420 C434 0.929 . S
H421 C435 0.931 . S
H422 C437 0.930 . S
C423 H411 0.930 . S
C423 C424 1.399 . S
C423 C428 1.399 . S
C424 C423 1.399 . S
C424 C425 1.376 1_554 S
C425 H412 0.930 . S
C425 C424 1.376 1_556 S
C425 C426 1.388 . S
C426 H413 0.930 . S
C426 C425 1.388 . S
C426 C427 1.390 1_556 S
C427 C426 1.390 1_554 S
C427 C428 1.394 . S
C427 C433 1.465 . S
C428 C423 1.399 . S
C428 C427 1.394 . S
C428 C429 1.516 . S
C429 C428 1.516 . S
C429 C430 1.502 . S
C429 C431 1.561 . S
C429 C432 1.526 . S
C430 H414 0.959 . S
C430 H415 0.959 . S
C430 H416 0.961 . S
C430 C429 1.502 . S
C431 H417 0.960 . S
C431 H418 0.961 . S
C431 H419 0.959 . S
C431 C429 1.561 . S
C432 C429 1.526 . S
C432 C433 1.396 . S
C432 C437 1.390 . S
C433 C427 1.465 . S
C433 C432 1.396 . S
C433 C434 1.399 1_554 S
C434 H420 0.929 . S
C434 C433 1.399 1_556 S
C434 C435 1.385 . S
C435 H421 0.931 . S
C435 C434 1.385 . S
C435 C436 1.389 1_556 S
C436 C435 1.389 1_554 S
C436 C437 1.387 . S
C437 H422 0.930 . S
C437 C432 1.390 . S
C437 C436 1.387 . S
H438 C450 0.930 1_556 S
H439 C452 0.930 . S
H440 C453 0.930 . S
H441 C457 0.959 . S
H442 C457 0.959 . S
H443 C457 0.961 . S
H444 C458 0.960 . S
H445 C458 0.961 . S
H446 C458 0.959 1_554 S
H447 C461 0.929 . S
H448 C462 0.931 . S
H449 C464 0.923 1_556 S
C450 H438 0.930 1_554 S
C450 C451 1.399 . S
C450 C455 1.399 . S
C451 C450 1.399 . S
C451 C452 1.376 . S
C452 H439 0.930 . S
C452 C451 1.376 . S
C452 C453 1.388 . S
C453 H440 0.930 . S
C453 C452 1.388 . S
C453 C454 1.390 . S
C454 C453 1.390 . S
C454 C455 1.394 . S
C454 C460 1.465 . S
C455 C450 1.399 . S
C455 C454 1.394 . S
C455 C456 1.516 . S
C456 C455 1.516 . S
C456 C457 1.502 1_554 S
C456 C458 1.561 1_554 S
C456 C459 1.526 . S
C457 H441 0.959 . S
C457 H442 0.959 . S
C457 H443 0.961 . S
C457 C456 1.502 1_556 S
C458 H444 0.960 . S
C458 H445 0.961 . S
C458 H446 0.959 1_556 S
C458 C456 1.561 1_556 S
C459 C456 1.526 . S
C459 C460 1.396 . S
C459 C464 1.390 . S
C460 C454 1.465 . S
C460 C459 1.396 . S
C460 C461 1.399 . S
C461 H447 0.929 . S
C461 C460 1.399 . S
C461 C462 1.385 . S
C462 H448 0.931 . S
C462 C461 1.385 . S
C462 C463 1.389 . S
C463 C462 1.389 . S
C463 C464 1.387 . S
C464 H449 0.923 1_554 S
C464 C459 1.390 . S
C464 C463 1.387 . S
H465 C477 0.932 . S
H466 C479 0.930 . S
H467 C480 0.930 . S
H468 C484 0.959 . S
H469 C484 0.959 . S
H470 C484 0.961 . S
H471 C485 0.960 . S
H472 C485 0.961 . S
H473 C485 0.959 . S
H474 C488 0.929 . S
H475 C489 0.931 . S
H476 C491 0.930 1_556 S
C477 H465 0.932 . S
C477 C478 1.399 . S
C477 C482 1.399 . S
C478 C477 1.399 . S
C478 C479 1.376 . S
C479 H466 0.930 . S
C479 C478 1.376 . S
C479 C480 1.388 . S
C480 H467 0.930 . S
C480 C479 1.388 . S
C480 C481 1.390 . S
C481 C480 1.390 . S
C481 C482 1.394 . S
C481 C487 1.465 . S
C482 C477 1.399 . S
C482 C481 1.394 . S
C482 C483 1.516 . S
C483 C482 1.516 . S
C483 C484 1.502 1_554 S
C483 C485 1.561 1_554 S
C483 C486 1.526 . S
C484 H468 0.959 . S
C484 H469 0.959 . S
C484 H470 0.961 . S
C484 C483 1.502 1_556 S
C485 H471 0.960 . S
C485 H472 0.961 . S
C485 H473 0.959 . S
C485 C483 1.561 1_556 S
C486 C483 1.526 . S
C486 C487 1.396 . S
C486 C491 1.390 . S
C487 C481 1.465 . S
C487 C486 1.396 . S
C487 C488 1.399 . S
C488 H474 0.929 . S
C488 C487 1.399 . S
C488 C489 1.385 . S
C489 H475 0.931 . S
C489 C488 1.385 . S
C489 C490 1.389 . S
C490 C489 1.389 . S
C490 C491 1.387 . S
C491 H476 0.930 1_554 S
C491 C486 1.390 . S
C491 C490 1.387 . S
H492 C504 0.930 . S
H493 C506 0.930 . S
H494 C507 0.930 . S
H495 C511 0.959 . S
H496 C511 0.959 . S
H497 C511 0.961 . S
H498 C512 0.960 . S
H499 C512 0.961 . S
H500 C512 0.959 . S
H501 C515 0.929 . S
H502 C516 0.931 . S
H503 C518 0.930 . S
C504 H492 0.930 . S
C504 C505 1.399 . S
C504 C509 1.399 . S
C505 C504 1.399 . S
C505 C506 1.376 . S
C506 H493 0.930 . S
C506 C505 1.376 . S
C506 C507 1.388 . S
C507 H494 0.930 . S
C507 C506 1.388 . S
C507 C508 1.390 . S
C508 C507 1.390 . S
C508 C509 1.394 . S
C508 C514 1.465 . S
C509 C504 1.399 . S
C509 C508 1.394 . S
C509 C510 1.516 . S
C510 C509 1.516 . S
C510 C511 1.502 . S
C510 C512 1.561 . S
C510 C513 1.526 . S
C511 H495 0.959 . S
C511 H496 0.959 . S
C511 H497 0.961 . S
C511 C510 1.502 . S
C512 H498 0.960 . S
C512 H499 0.961 . S
C512 H500 0.959 . S
C512 C510 1.561 . S
C513 C510 1.526 . S
C513 C514 1.396 . S
C513 C518 1.390 . S
C514 C508 1.465 . S
C514 C513 1.396 . S
C514 C515 1.399 . S
C515 H501 0.929 . S
C515 C514 1.399 . S
C515 C516 1.385 . S
C516 H502 0.931 . S
C516 C515 1.385 . S
C516 C517 1.389 . S
C517 C516 1.389 . S
C517 C518 1.387 . S
C518 H503 0.930 . S
C518 C513 1.390 . S
C518 C517 1.387 . S
H519 C531 0.930 . S
H520 C533 0.930 . S
H521 C534 0.930 . S
H522 C538 0.959 . S
H523 C538 0.959 . S
H524 C538 0.961 . S
H525 C539 0.960 . S
H526 C539 0.961 . S
H527 C539 0.959 . S
H528 C542 0.929 . S
H529 C543 0.931 . S
H530 C545 0.930 . S
C531 H519 0.930 . S
C531 C532 1.399 . S
C531 C536 1.399 . S
C532 C531 1.399 . S
C532 C533 1.376 . S
C533 H520 0.930 . S
C533 C532 1.376 . S
C533 C534 1.388 . S
C534 H521 0.930 . S
C534 C533 1.388 . S
C534 C535 1.390 . S
C535 C534 1.390 . S
C535 C536 1.394 . S
C535 C541 1.465 . S
C536 C531 1.399 . S
C536 C535 1.394 . S
C536 C537 1.516 . S
C537 C536 1.516 . S
C537 C538 1.502 . S
C537 C539 1.561 . S
C537 C540 1.526 . S
C538 H522 0.959 . S
C538 H523 0.959 . S
C538 H524 0.961 . S
C538 C537 1.502 . S
C539 H525 0.960 . S
C539 H526 0.961 . S
C539 H527 0.959 . S
C539 C537 1.561 . S
C540 C537 1.526 . S
C540 C541 1.396 . S
C540 C545 1.390 . S
C541 C535 1.465 . S
C541 C540 1.396 . S
C541 C542 1.399 . S
C542 H528 0.929 . S
C542 C541 1.399 . S
C542 C543 1.385 . S
C543 H529 0.931 . S
C543 C542 1.385 . S
C543 C544 1.389 . S
C544 C543 1.389 . S
C544 C545 1.387 . S
C545 H530 0.930 . S
C545 C540 1.390 . S
C545 C544 1.387 . S
H546 C558 0.930 . S
H547 C560 0.930 . S
H548 C561 0.930 . S
H549 C565 0.959 . S
H550 C565 0.959 . S
H551 C565 0.961 . S
H552 C566 0.960 . S
H553 C566 0.961 . S
H554 C566 0.959 . S
H555 C569 0.929 . S
H556 C570 0.931 . S
H557 C572 0.930 . S
C558 H546 0.930 . S
C558 C559 1.399 . S
C558 C563 1.399 . S
C559 C558 1.399 . S
C559 C560 1.376 . S
C560 H547 0.930 . S
C560 C559 1.376 . S
C560 C561 1.388 . S
C561 H548 0.930 . S
C561 C560 1.388 . S
C561 C562 1.390 . S
C562 C561 1.390 . S
C562 C563 1.394 . S
C562 C568 1.465 . S
C563 C558 1.399 . S
C563 C562 1.394 . S
C563 C564 1.516 . S
C564 C563 1.516 . S
C564 C565 1.502 . S
C564 C566 1.561 . S
C564 C567 1.526 . S
C565 H549 0.959 . S
C565 H550 0.959 . S
C565 H551 0.961 . S
C565 C564 1.502 . S
C566 H552 0.960 . S
C566 H553 0.961 . S
C566 H554 0.959 . S
C566 C564 1.561 . S
C567 C564 1.526 . S
C567 C568 1.396 . S
C567 C572 1.390 . S
C568 C562 1.465 . S
C568 C567 1.396 . S
C568 C569 1.399 . S
C569 H555 0.929 . S
C569 C568 1.399 . S
C569 C570 1.385 . S
C570 H556 0.931 . S
C570 C569 1.385 . S
C570 C571 1.389 . S
C571 C570 1.389 . S
C571 C572 1.387 . S
C572 H557 0.930 . S
C572 C567 1.390 . S
C572 C571 1.387 . S
H573 C585 0.930 . S
H574 C587 0.930 . S
H575 C588 0.930 . S
H576 C592 0.959 . S
H577 C592 0.959 . S
H578 C592 0.961 . S
H579 C593 0.960 . S
H580 C593 0.961 . S
H581 C593 0.959 . S
H582 C596 0.929 . S
H583 C597 0.931 . S
H584 C599 0.930 . S
C585 H573 0.930 . S
C585 C586 1.399 . S
C585 C590 1.399 . S
C586 C585 1.399 . S
C586 C587 1.376 . S
C587 H574 0.930 . S
C587 C586 1.376 . S
C587 C588 1.388 . S
C588 H575 0.930 . S
C588 C587 1.388 . S
C588 C589 1.390 . S
C589 C588 1.390 . S
C589 C590 1.394 . S
C589 C595 1.465 . S
C590 C585 1.399 . S
C590 C589 1.394 . S
C590 C591 1.516 . S
C591 C590 1.516 . S
C591 C592 1.502 . S
C591 C593 1.561 . S
C591 C594 1.526 . S
C592 H576 0.959 . S
C592 H577 0.959 . S
C592 H578 0.961 . S
C592 C591 1.502 . S
C593 H579 0.960 . S
C593 H580 0.961 . S
C593 H581 0.959 . S
C593 C591 1.561 . S
C594 C591 1.526 . S
C594 C595 1.396 . S
C594 C599 1.390 . S
C595 C589 1.465 . S
C595 C594 1.396 . S
C595 C596 1.399 . S
C596 H582 0.929 . S
C596 C595 1.399 . S
C596 C597 1.385 . S
C597 H583 0.931 . S
C597 C596 1.385 . S
C597 C598 1.389 . S
C598 C597 1.389 . S
C598 C599 1.387 . S
C599 H584 0.930 . S
C599 C594 1.390 . S
C599 C598 1.387 . S
H600 C612 0.930 . S
H601 C614 0.930 . S
H602 C615 0.930 . S
H603 C619 0.959 . S
H604 C619 0.959 . S
H605 C619 0.961 . S
H606 C620 0.960 . S
H607 C620 0.961 . S
H608 C620 0.959 . S
H609 C623 0.929 . S
H610 C624 0.931 . S
H611 C626 0.930 . S
C612 H600 0.930 . S
C612 C613 1.399 . S
C612 C617 1.399 . S
C613 C612 1.399 . S
C613 C614 1.376 . S
C614 H601 0.930 . S
C614 C613 1.376 . S
C614 C615 1.388 . S
C615 H602 0.930 . S
C615 C614 1.388 . S
C615 C616 1.390 . S
C616 C615 1.390 . S
C616 C617 1.394 . S
C616 C622 1.465 . S
C617 C612 1.399 . S
C617 C616 1.394 . S
C617 C618 1.516 . S
C618 C617 1.516 . S
C618 C619 1.502 . S
C618 C620 1.561 . S
C618 C621 1.526 . S
C619 H603 0.959 . S
C619 H604 0.959 . S
C619 H605 0.961 . S
C619 C618 1.502 . S
C620 H606 0.960 . S
C620 H607 0.961 . S
C620 H608 0.959 . S
C620 C618 1.561 . S
C621 C618 1.526 . S
C621 C622 1.396 . S
C621 C626 1.390 . S
C622 C616 1.465 . S
C622 C621 1.396 . S
C622 C623 1.399 . S
C623 H609 0.929 . S
C623 C622 1.399 . S
C623 C624 1.385 . S
C624 H610 0.931 . S
C624 C623 1.385 . S
C624 C625 1.389 . S
C625 C624 1.389 . S
C625 C626 1.387 . S
C626 H611 0.930 . S
C626 C621 1.390 . S
C626 C625 1.387 . S
H627 C639 0.930 . S
H628 C641 0.930 . S
H629 C642 0.930 . S
H630 C646 0.959 . S
H631 C646 0.959 . S
H632 C646 0.961 . S
H633 C647 0.960 . S
H634 C647 0.961 . S
H635 C647 0.959 . S
H636 C650 0.929 . S
H637 C651 0.931 . S
H638 C653 0.930 . S
C639 H627 0.930 . S
C639 C640 1.399 . S
C639 C644 1.399 . S
C640 C639 1.399 . S
C640 C641 1.376 . S
C641 H628 0.930 . S
C641 C640 1.376 . S
C641 C642 1.388 . S
C642 H629 0.930 . S
C642 C641 1.388 . S
C642 C643 1.390 . S
C643 C642 1.390 . S
C643 C644 1.394 . S
C643 C649 1.465 . S
C644 C639 1.399 . S
C644 C643 1.394 . S
C644 C645 1.516 . S
C645 C644 1.516 . S
C645 C646 1.502 . S
C645 C647 1.561 . S
C645 C648 1.526 . S
C646 H630 0.959 . S
C646 H631 0.959 . S
C646 H632 0.961 . S
C646 C645 1.502 . S
C647 H633 0.960 . S
C647 H634 0.961 . S
C647 H635 0.959 . S
C647 C645 1.561 . S
C648 C645 1.526 . S
C648 C649 1.396 . S
C648 C653 1.390 . S
C649 C643 1.465 . S
C649 C648 1.396 . S
C649 C650 1.399 . S
C650 H636 0.929 . S
C650 C649 1.399 . S
C650 C651 1.385 . S
C651 H637 0.931 . S
C651 C650 1.385 . S
C651 C652 1.389 . S
C652 C651 1.389 . S
C652 C653 1.387 . S
C653 H638 0.930 . S
C653 C648 1.390 . S
C653 C652 1.387 . S
H654 C666 0.930 . S
H655 C668 0.930 . S
H656 C669 0.930 . S
H657 C673 0.959 . S
H658 C673 0.959 . S
H659 C673 0.961 . S
H660 C674 0.960 . S
H661 C674 0.961 . S
H662 C674 0.959 . S
H663 C677 0.929 . S
H664 C678 0.931 . S
H665 C680 0.930 . S
C666 H654 0.930 . S
C666 C667 1.399 . S
C666 C671 1.399 . S
C667 C666 1.399 . S
C667 C668 1.376 . S
C668 H655 0.930 . S
C668 C667 1.376 . S
C668 C669 1.388 . S
C669 H656 0.930 . S
C669 C668 1.388 . S
C669 C670 1.390 . S
C670 C669 1.390 . S
C670 C671 1.394 . S
C670 C676 1.465 . S
C671 C666 1.399 . S
C671 C670 1.394 . S
C671 C672 1.516 . S
C672 C671 1.516 . S
C672 C673 1.502 . S
C672 C674 1.561 . S
C672 C675 1.526 . S
C673 H657 0.959 . S
C673 H658 0.959 . S
C673 H659 0.961 . S
C673 C672 1.502 . S
C674 H660 0.960 . S
C674 H661 0.961 . S
C674 H662 0.959 . S
C674 C672 1.561 . S
C675 C672 1.526 . S
C675 C676 1.396 . S
C675 C680 1.390 . S
C676 C670 1.465 . S
C676 C675 1.396 . S
C676 C677 1.399 . S
C677 H663 0.929 . S
C677 C676 1.399 . S
C677 C678 1.385 . S
C678 H664 0.931 . S
C678 C677 1.385 . S
C678 C679 1.389 . S
C679 C678 1.389 . S
C679 C680 1.387 . S
C680 H665 0.930 . S
C680 C675 1.390 . S
C680 C679 1.387 . S
H681 C693 0.930 . S
H682 C695 0.930 . S
H683 C696 0.930 . S
H684 C700 0.959 . S
H685 C700 0.959 . S
H686 C700 0.961 . S
H687 C701 0.960 . S
H688 C701 0.961 . S
H689 C701 0.959 . S
H690 C704 0.929 . S
H691 C705 0.931 . S
H692 C707 0.930 . S
C693 H681 0.930 . S
C693 C694 1.399 . S
C693 C698 1.399 . S
C694 C693 1.399 . S
C694 C695 1.376 . S
C695 H682 0.930 . S
C695 C694 1.376 . S
C695 C696 1.388 . S
C696 H683 0.930 . S
C696 C695 1.388 . S
C696 C697 1.390 . S
C697 C696 1.390 . S
C697 C698 1.394 . S
C697 C703 1.465 . S
C698 C693 1.399 . S
C698 C697 1.394 . S
C698 C699 1.516 . S
C699 C698 1.516 . S
C699 C700 1.502 . S
C699 C701 1.561 . S
C699 C702 1.526 . S
C700 H684 0.959 . S
C700 H685 0.959 . S
C700 H686 0.961 . S
C700 C699 1.502 . S
C701 H687 0.960 . S
C701 H688 0.961 . S
C701 H689 0.959 . S
C701 C699 1.561 . S
C702 C699 1.526 . S
C702 C703 1.396 . S
C702 C707 1.390 . S
C703 C697 1.465 . S
C703 C702 1.396 . S
C703 C704 1.399 . S
C704 H690 0.929 . S
C704 C703 1.399 . S
C704 C705 1.385 . S
C705 H691 0.931 . S
C705 C704 1.385 . S
C705 C706 1.389 . S
C706 C705 1.389 . S
C706 C707 1.387 . S
C707 H692 0.930 . S
C707 C702 1.390 . S
C707 C706 1.387 . S
H708 C720 0.930 . S
H709 C722 0.930 . S
H710 C723 0.930 . S
H711 C727 0.959 . S
H712 C727 0.959 . S
H713 C727 0.961 . S
H714 C728 0.960 . S
H715 C728 0.961 . S
H716 C728 0.959 . S
H717 C731 0.929 . S
H718 C732 0.931 . S
H719 C734 0.930 . S
C720 H708 0.930 . S
C720 C721 1.399 . S
C720 C725 1.399 . S
C721 C720 1.399 . S
C721 C722 1.376 . S
C722 H709 0.930 . S
C722 C721 1.376 . S
C722 C723 1.388 . S
C723 H710 0.930 . S
C723 C722 1.388 . S
C723 C724 1.390 . S
C724 C723 1.390 . S
C724 C725 1.394 . S
C724 C730 1.465 . S
C725 C720 1.399 . S
C725 C724 1.394 . S
C725 C726 1.516 . S
C726 C725 1.516 . S
C726 C727 1.502 . S
C726 C728 1.561 . S
C726 C729 1.526 . S
C727 H711 0.959 . S
C727 H712 0.959 . S
C727 H713 0.961 . S
C727 C726 1.502 . S
C728 H714 0.960 . S
C728 H715 0.961 . S
C728 H716 0.959 . S
C728 C726 1.561 . S
C729 C726 1.526 . S
C729 C730 1.396 . S
C729 C734 1.390 . S
C730 C724 1.465 . S
C730 C729 1.396 . S
C730 C731 1.399 . S
C731 H717 0.929 . S
C731 C730 1.399 . S
C731 C732 1.385 . S
C732 H718 0.931 . S
C732 C731 1.385 . S
C732 C733 1.389 . S
C733 C732 1.389 . S
C733 C734 1.387 . S
C734 H719 0.930 . S
C734 C729 1.390 . S
C734 C733 1.387 . S
H735 C747 0.930 . S
H736 C749 0.930 . S
H737 C750 0.930 . S
H738 C754 0.959 . S
H739 C754 0.959 . S
H740 C754 0.961 . S
H741 C755 0.960 . S
H742 C755 0.961 . S
H743 C755 0.959 . S
H744 C758 0.929 . S
H745 C759 0.931 . S
H746 C761 0.930 . S
C747 H735 0.930 . S
C747 C748 1.399 . S
C747 C752 1.399 . S
C748 C747 1.399 . S
C748 C749 1.376 . S
C749 H736 0.930 . S
C749 C748 1.376 . S
C749 C750 1.388 . S
C750 H737 0.930 . S
C750 C749 1.388 . S
C750 C751 1.390 . S
C751 C750 1.390 . S
C751 C752 1.394 . S
C751 C757 1.465 . S
C752 C747 1.399 . S
C752 C751 1.394 . S
C752 C753 1.516 . S
C753 C752 1.516 . S
C753 C754 1.502 . S
C753 C755 1.561 . S
C753 C756 1.526 . S
C754 H738 0.959 . S
C754 H739 0.959 . S
C754 H740 0.961 . S
C754 C753 1.502 . S
C755 H741 0.960 . S
C755 H742 0.961 . S
C755 H743 0.959 . S
C755 C753 1.561 . S
C756 C753 1.526 . S
C756 C757 1.396 . S
C756 C761 1.390 . S
C757 C751 1.465 . S
C757 C756 1.396 . S
C757 C758 1.399 . S
C758 H744 0.929 . S
C758 C757 1.399 . S
C758 C759 1.385 . S
C759 H745 0.931 . S
C759 C758 1.385 . S
C759 C760 1.389 . S
C760 C759 1.389 . S
C760 C761 1.387 . S
C761 H746 0.930 . S
C761 C756 1.390 . S
C761 C760 1.387 . S
H762 C774 0.930 . S
H763 C776 0.930 . S
H764 C777 0.930 . S
H765 C781 0.959 . S
H766 C781 0.959 . S
H767 C781 0.961 . S
H768 C782 0.960 . S
H769 C782 0.961 . S
H770 C782 0.959 . S
H771 C785 0.929 . S
H772 C786 0.931 . S
H773 C788 0.930 . S
C774 H762 0.930 . S
C774 C775 1.399 . S
C774 C779 1.399 . S
C775 C774 1.399 . S
C775 C776 1.376 . S
C776 H763 0.930 . S
C776 C775 1.376 . S
C776 C777 1.388 . S
C777 H764 0.930 . S
C777 C776 1.388 . S
C777 C778 1.390 . S
C778 C777 1.390 . S
C778 C779 1.394 . S
C778 C784 1.465 . S
C779 C774 1.399 . S
C779 C778 1.394 . S
C779 C780 1.516 . S
C780 C779 1.516 . S
C780 C781 1.502 . S
C780 C782 1.561 . S
C780 C783 1.526 . S
C781 H765 0.959 . S
C781 H766 0.959 . S
C781 H767 0.961 . S
C781 C780 1.502 . S
C782 H768 0.960 . S
C782 H769 0.961 . S
C782 H770 0.959 . S
C782 C780 1.561 . S
C783 C780 1.526 . S
C783 C784 1.396 . S
C783 C788 1.390 . S
C784 C778 1.465 . S
C784 C783 1.396 . S
C784 C785 1.399 . S
C785 H771 0.929 . S
C785 C784 1.399 . S
C785 C786 1.385 . S
C786 H772 0.931 . S
C786 C785 1.385 . S
C786 C787 1.389 . S
C787 C786 1.389 . S
C787 C788 1.387 . S
C788 H773 0.930 . S
C788 C783 1.390 . S
C788 C787 1.387 . S
H789 C801 0.930 . S
H790 C803 0.930 . S
H791 C804 0.930 . S
H792 C808 0.959 . S
H793 C808 0.959 . S
H794 C808 0.961 . S
H795 C809 0.960 . S
H796 C809 0.961 . S
H797 C809 0.959 . S
H798 C812 0.929 . S
H799 C813 0.931 . S
H800 C815 0.930 . S
C801 H789 0.930 . S
C801 C802 1.399 . S
C801 C806 1.399 . S
C802 C801 1.399 . S
C802 C803 1.376 . S
C803 H790 0.930 . S
C803 C802 1.376 . S
C803 C804 1.388 . S
C804 H791 0.930 . S
C804 C803 1.388 . S
C804 C805 1.390 . S
C805 C804 1.390 . S
C805 C806 1.394 . S
C805 C811 1.465 . S
C806 C801 1.399 . S
C806 C805 1.394 . S
C806 C807 1.516 . S
C807 C806 1.516 . S
C807 C808 1.502 . S
C807 C809 1.561 . S
C807 C810 1.526 . S
C808 H792 0.959 . S
C808 H793 0.959 . S
C808 H794 0.961 . S
C808 C807 1.502 . S
C809 H795 0.960 . S
C809 H796 0.961 . S
C809 H797 0.959 . S
C809 C807 1.561 . S
C810 C807 1.526 . S
C810 C811 1.396 . S
C810 C815 1.390 . S
C811 C805 1.465 . S
C811 C810 1.396 . S
C811 C812 1.399 . S
C812 H798 0.929 . S
C812 C811 1.399 . S
C812 C813 1.385 . S
C813 H799 0.931 . S
C813 C812 1.385 . S
C813 C814 1.389 . S
C814 C813 1.389 . S
C814 C815 1.387 . S
C815 H800 0.930 . S
C815 C810 1.390 . S
C815 C814 1.387 . S
C181 C11 1.314 . S
C193 C82 1.321 . S
C208 C26 1.316 . S
C220 C60 1.281 . S
C235 C81 1.156 . S
C247 C39 1.177 . S
C262 C54 1.390 . S
C274 C61 1.274 . S
C289 C109 1.293 . S
C301 C40 1.346 . S
C316 C88 1.180 . S
C328 C53 1.234 . S
C343 C12 1.394 . S
C355 C110 1.392 . S
C370 C89 1.201 . S
C382 C25 1.243 . S
C397 C131 1.214 . S
C409 C117 1.238 . S
C424 C116 1.227 . S
C436 C158 1.213 . S
C451 C130 1.177 . S
C463 C144 1.173 . S
C478 C145 1.259 . S
C490 C159 1.228 . S
C505 C165 1.314 . S
C517 C96 1.312 . S
C532 C124 1.309 . S
C544 C102 1.291 . S
C559 C95 1.231 . S
C571 C137 1.191 . S
C586 C103 1.286 . S
C598 C152 1.385 . S
C613 C67 1.343 . S
C625 C138 1.341 . S
C640 C74 1.233 . S
C652 C151 1.155 . S
C667 C166 1.393 . S
C679 C68 1.392 . S
C694 C123 1.288 . S
C706 C75 1.089 . S
C721 C19 1.131 . S
C733 C33 1.148 . S
C748 C4 1.226 . S
C760 C18 1.211 . S
C775 C32 1.139 . S
C787 C46 1.144 . S
C802 C5 1.153 . S
C814 C47 1.181 . S
