# Generated by pormake.
# Topology wiu, (6)-cn, num edge types: 1
# Building blocks:
#     Node 0, Type 0, BuildingBlock: BETFAJ_clean_sbu_0, # of connection points: 6
#     Node 1, Type 0, BuildingBlock: BETFAJ_clean_sbu_0, # of connection points: 6
#     Node 2, Type 0, BuildingBlock: BETFAJ_clean_sbu_0, # of connection points: 6
#     Node 3, Type 0, BuildingBlock: BETFAJ_clean_sbu_0, # of connection points: 6
#     Node 4, Type 0, BuildingBlock: BETFAJ_clean_sbu_0, # of connection points: 6
#     Node 5, Type 0, BuildingBlock: BETFAJ_clean_sbu_0, # of connection points: 6
#     Node 6, Type 0, BuildingBlock: BETFAJ_clean_sbu_0, # of connection points: 6
#     Node 7, Type 0, BuildingBlock: BETFAJ_clean_sbu_0, # of connection points: 6
#     Node 8, Type 0, BuildingBlock: BETFAJ_clean_sbu_0, # of connection points: 6
#     Node 9, Type 0, BuildingBlock: BETFAJ_clean_sbu_0, # of connection points: 6
#     Node 10, Type 0, BuildingBlock: BETFAJ_clean_sbu_0, # of connection points: 6
#     Node 11, Type 0, BuildingBlock: BETFAJ_clean_sbu_0, # of connection points: 6
#     Node 12, Type 0, BuildingBlock: BETFAJ_clean_sbu_0, # of connection points: 6
#     Node 13, Type 0, BuildingBlock: BETFAJ_clean_sbu_0, # of connection points: 6
#     Node 14, Type 0, BuildingBlock: BETFAJ_clean_sbu_0, # of connection points: 6
#     Node 15, Type 0, BuildingBlock: BETFAJ_clean_sbu_0, # of connection points: 6
#     Edge 16, Type (0, 0), BuildingBlock: EZIPEK_clean_linker_0, # of connection points: 2
#     Edge 17, Type (0, 0), BuildingBlock: EZIPEK_clean_linker_0, # of connection points: 2
#     Edge 18, Type (0, 0), BuildingBlock: EZIPEK_clean_linker_0, # of connection points: 2
#     Edge 19, Type (0, 0), BuildingBlock: EZIPEK_clean_linker_0, # of connection points: 2
#     Edge 20, Type (0, 0), BuildingBlock: EZIPEK_clean_linker_0, # of connection points: 2
#     Edge 21, Type (0, 0), BuildingBlock: EZIPEK_clean_linker_0, # of connection points: 2
#     Edge 22, Type (0, 0), BuildingBlock: EZIPEK_clean_linker_0, # of connection points: 2
#     Edge 23, Type (0, 0), BuildingBlock: EZIPEK_clean_linker_0, # of connection points: 2
#     Edge 24, Type (0, 0), BuildingBlock: EZIPEK_clean_linker_0, # of connection points: 2
#     Edge 25, Type (0, 0), BuildingBlock: EZIPEK_clean_linker_0, # of connection points: 2
#     Edge 26, Type (0, 0), BuildingBlock: EZIPEK_clean_linker_0, # of connection points: 2
#     Edge 27, Type (0, 0), BuildingBlock: EZIPEK_clean_linker_0, # of connection points: 2
#     Edge 28, Type (0, 0), BuildingBlock: EZIPEK_clean_linker_0, # of connection points: 2
#     Edge 29, Type (0, 0), BuildingBlock: EZIPEK_clean_linker_0, # of connection points: 2
#     Edge 30, Type (0, 0), BuildingBlock: EZIPEK_clean_linker_0, # of connection points: 2
#     Edge 31, Type (0, 0), BuildingBlock: EZIPEK_clean_linker_0, # of connection points: 2
#     Edge 32, Type (0, 0), BuildingBlock: EZIPEK_clean_linker_0, # of connection points: 2
#     Edge 33, Type (0, 0), BuildingBlock: EZIPEK_clean_linker_0, # of connection points: 2
#     Edge 34, Type (0, 0), BuildingBlock: EZIPEK_clean_linker_0, # of connection points: 2
#     Edge 35, Type (0, 0), BuildingBlock: EZIPEK_clean_linker_0, # of connection points: 2
#     Edge 36, Type (0, 0), BuildingBlock: EZIPEK_clean_linker_0, # of connection points: 2
#     Edge 37, Type (0, 0), BuildingBlock: EZIPEK_clean_linker_0, # of connection points: 2
#     Edge 38, Type (0, 0), BuildingBlock: EZIPEK_clean_linker_0, # of connection points: 2
#     Edge 39, Type (0, 0), BuildingBlock: EZIPEK_clean_linker_0, # of connection points: 2
#     Edge 40, Type (0, 0), BuildingBlock: EZIPEK_clean_linker_0, # of connection points: 2
#     Edge 41, Type (0, 0), BuildingBlock: EZIPEK_clean_linker_0, # of connection points: 2
#     Edge 42, Type (0, 0), BuildingBlock: EZIPEK_clean_linker_0, # of connection points: 2
#     Edge 43, Type (0, 0), BuildingBlock: EZIPEK_clean_linker_0, # of connection points: 2
#     Edge 44, Type (0, 0), BuildingBlock: EZIPEK_clean_linker_0, # of connection points: 2
#     Edge 45, Type (0, 0), BuildingBlock: EZIPEK_clean_linker_0, # of connection points: 2
#     Edge 46, Type (0, 0), BuildingBlock: EZIPEK_clean_linker_0, # of connection points: 2
#     Edge 47, Type (0, 0), BuildingBlock: EZIPEK_clean_linker_0, # of connection points: 2
#     Edge 48, Type (0, 0), BuildingBlock: EZIPEK_clean_linker_0, # of connection points: 2
#     Edge 49, Type (0, 0), BuildingBlock: EZIPEK_clean_linker_0, # of connection points: 2
#     Edge 50, Type (0, 0), BuildingBlock: EZIPEK_clean_linker_0, # of connection points: 2
#     Edge 51, Type (0, 0), BuildingBlock: EZIPEK_clean_linker_0, # of connection points: 2
#     Edge 52, Type (0, 0), BuildingBlock: EZIPEK_clean_linker_0, # of connection points: 2
#     Edge 53, Type (0, 0), BuildingBlock: EZIPEK_clean_linker_0, # of connection points: 2
#     Edge 54, Type (0, 0), BuildingBlock: EZIPEK_clean_linker_0, # of connection points: 2
#     Edge 55, Type (0, 0), BuildingBlock: EZIPEK_clean_linker_0, # of connection points: 2
#     Edge 56, Type (0, 0), BuildingBlock: EZIPEK_clean_linker_0, # of connection points: 2
#     Edge 57, Type (0, 0), BuildingBlock: EZIPEK_clean_linker_0, # of connection points: 2
#     Edge 58, Type (0, 0), BuildingBlock: EZIPEK_clean_linker_0, # of connection points: 2
#     Edge 59, Type (0, 0), BuildingBlock: EZIPEK_clean_linker_0, # of connection points: 2
#     Edge 60, Type (0, 0), BuildingBlock: EZIPEK_clean_linker_0, # of connection points: 2
#     Edge 61, Type (0, 0), BuildingBlock: EZIPEK_clean_linker_0, # of connection points: 2
#     Edge 62, Type (0, 0), BuildingBlock: EZIPEK_clean_linker_0, # of connection points: 2
#     Edge 63, Type (0, 0), BuildingBlock: EZIPEK_clean_linker_0, # of connection points: 2
# Relax obj value: 0.734
# Max RMSD: 0.341
# Mean RMSD: 0.341
data_MOF--net-wiu--node1-BETFAJ_clean_sbu_0--edge1-EZIPEK_clean_linker_0
_symmetry_space_group_name_H-M    P1
_symmetry_Int_Tables_number       1
_symmetry_cell_setting            triclinic
loop_
_symmetry_equiv_pos_as_xyz
'x, y, z'
_cell_length_a     29.090289
_cell_length_b     29.179654
_cell_length_c     39.770909
_cell_angle_alpha  90.581063
_cell_angle_beta   90.696941
_cell_angle_gamma 89.865246
loop_
_atom_site_label
_atom_site_type_symbol
_atom_site_fract_x
_atom_site_fract_y
_atom_site_fract_z
_atom_type_partial_charge
Sm0 Sm 0.38527 0.19907 0.35515 0.0
Sm1 Sm 0.43711 0.13256 0.32474 0.0
C2 C 0.32951 0.26726 0.37357 0.0
C3 C 0.32048 0.31279 0.35964 0.0
C4 C 0.33732 0.3243 0.32785 0.0
C5 C 0.3292 0.36785 0.31473 0.0
C6 C 0.30455 0.40041 0.33343 0.0
C7 C 0.288 0.38902 0.36527 0.0
C8 C 0.29587 0.34535 0.3783 0.0
C9 C 0.47679 0.22985 0.34708 0.0
C10 C 0.42323 0.11906 0.40608 0.0
C11 C 0.50883 0.09255 0.29692 0.0
C12 C 0.55183 0.11217 0.28472 0.0
C13 C 0.57141 0.15083 0.3008 0.0
C14 C 0.6113 0.17078 0.28842 0.0
C15 C 0.63145 0.15269 0.25941 0.0
C16 C 0.61259 0.11323 0.24401 0.0
C17 C 0.573 0.09317 0.25653 0.0
C18 C 0.35332 0.09409 0.34169 0.0
C19 C 0.36152 0.17698 0.27275 0.0
O20 O 0.37031 0.26111 0.38631 0.0
O21 O 0.3165 0.23271 0.35501 0.0
O22 O 0.45196 0.20978 0.32505 0.0
O23 O 0.45466 0.23015 0.37498 0.0
O24 O 0.38964 0.14925 0.40143 0.0
O25 O 0.45228 0.11324 0.38106 0.0
O26 O 0.50327 0.09587 0.32932 0.0
O27 O 0.4715 0.10232 0.2798 0.0
O28 O 0.35987 0.13373 0.33091 0.0
O29 O 0.39216 0.07238 0.34322 0.0
O30 O 0.39564 0.1469 0.27515 0.0
O31 O 0.35308 0.20357 0.29953 0.0
H32 H 0.35685 0.29964 0.31331 0.0
H33 H 0.34232 0.37628 0.29018 0.0
H34 H 0.26902 0.41397 0.37999 0.0
H35 H 0.28294 0.33706 0.40294 0.0
H36 H 0.5555 0.16583 0.32272 0.0
H37 H 0.62578 0.20063 0.30097 0.0
H38 H 0.62818 0.09829 0.22188 0.0
H39 H 0.55859 0.0633 0.24393 0.0
Sm40 Sm 0.65021 0.62206 0.60586 0.0
Sm41 Sm 0.71778 0.66929 0.57503 0.0
C42 C 0.58202 0.5681 0.6259 0.0
C43 C 0.53484 0.56003 0.61347 0.0
C44 C 0.50411 0.53461 0.63266 0.0
C45 C 0.45967 0.5257 0.62046 0.0
C46 C 0.44542 0.54208 0.58889 0.0
C47 C 0.47593 0.56822 0.56993 0.0
C48 C 0.52043 0.57698 0.58209 0.0
C49 C 0.62078 0.71391 0.59592 0.0
C50 C 0.72936 0.66489 0.65529 0.0
C51 C 0.76381 0.73303 0.54291 0.0
C52 C 0.75509 0.78181 0.53595 0.0
C53 C 0.76784 0.81638 0.55925 0.0
C54 C 0.75889 0.86245 0.55227 0.0
C55 C 0.73812 0.8745 0.52161 0.0
C56 C 0.72382 0.83978 0.4992 0.0
C57 C 0.73255 0.79407 0.50607 0.0
C58 C 0.75471 0.58598 0.59559 0.0
C59 C 0.67136 0.59237 0.52547 0.0
O60 O 0.59036 0.60828 0.63892 0.0
O61 O 0.61463 0.55468 0.60607 0.0
O62 O 0.64065 0.68829 0.57441 0.0
O63 O 0.61932 0.69194 0.62387 0.0
O64 O 0.70403 0.62753 0.65077 0.0
O65 O 0.72872 0.69469 0.63054 0.0
O66 O 0.77196 0.72254 0.57416 0.0
O67 O 0.73694 0.70343 0.52767 0.0
O68 O 0.71496 0.59268 0.58417 0.0
O69 O 0.77728 0.62404 0.59555 0.0
O70 O 0.70592 0.62148 0.52839 0.0
O71 O 0.64178 0.58966 0.55073 0.0
H72 H 0.51459 0.52135 0.65693 0.0
H73 H 0.43645 0.50578 0.63554 0.0
H74 H 0.46544 0.58129 0.54561 0.0
H75 H 0.54374 0.59665 0.5669 0.0
H76 H 0.78492 0.80792 0.58274 0.0
H77 H 0.76972 0.88859 0.57013 0.0
H78 H 0.70665 0.84789 0.47584 0.0
H79 H 0.72184 0.76836 0.48777 0.0
Sm80 Sm 0.22008 0.89712 0.85362 0.0
Sm81 Sm 0.16965 0.9567 0.82061 0.0
C82 C 0.27253 0.82759 0.87409 0.0
C83 C 0.28382 0.78252 0.85849 0.0
C84 C 0.32148 0.77784 0.83684 0.0
C85 C 0.33258 0.73512 0.82281 0.0
C86 C 0.30622 0.69633 0.83006 0.0
C87 C 0.26795 0.70095 0.85092 0.0
C88 C 0.25682 0.74364 0.86501 0.0
C89 C 0.12947 0.86267 0.84487 0.0
C90 C 0.17685 0.97575 0.90139 0.0
C91 C 0.09936 0.9952 0.78864 0.0
C92 C 1.0522 0.98022 0.78135 0.0
C93 C 1.03043 0.94759 0.80156 0.0
C94 C 0.98698 0.93062 0.7925 0.0
C95 C 0.96518 0.94612 0.76311 0.0
C96 C 0.98605 0.98069 0.74422 0.0
C97 C 1.02932 0.99735 0.75312 0.0
C98 C 0.25077 1.00192 0.83913 0.0
C99 C 0.2488 0.91449 0.77224 0.0
O100 O 0.23039 0.83365 0.88344 0.0
O101 O 0.28893 0.86407 0.86014 0.0
O102 O 0.15518 0.87898 0.82235 0.0
O103 O 0.14841 0.87351 0.87343 0.0
O104 O 0.21471 0.95095 0.89801 0.0
O105 O 0.14689 0.97345 0.87614 0.0
O106 O 0.10911 1.00281 0.82022 0.0
O107 O 0.13181 0.9728 0.77313 0.0
O108 O 0.24735 0.96089 0.82967 0.0
O109 O 0.21073 1.02096 0.83805 0.0
O110 O 0.21421 0.94395 0.77292 0.0
O111 O 0.25583 0.88935 0.7997 0.0
H112 H 0.34298 0.80697 0.83124 0.0
H113 H 0.36282 0.73195 0.80732 0.0
H114 H 0.24786 0.67114 0.85736 0.0
H115 H 0.22759 0.74596 0.88156 0.0
H116 H 1.04761 0.93426 0.82373 0.0
H117 H 0.97108 0.90479 0.80785 0.0
H118 H 0.9693 0.99402 0.72194 0.0
H119 H 1.04534 1.02286 0.73751 0.0
Sm120 Sm 0.96108 0.46739 1.10686 0.0
Sm121 Sm 0.89052 0.4229 1.07668 0.0
C122 C 1.02916 0.51054 1.13901 0.0
C123 C 0.07794 0.51733 1.1298 0.0
C124 C 0.09688 0.56151 1.1312 0.0
C125 C 0.14114 0.56959 1.11914 0.0
C126 C 0.16749 0.53361 1.10564 0.0
C127 C 0.14899 0.48922 1.10468 0.0
C128 C 0.10453 0.48114 1.11653 0.0
C129 C 0.99389 0.38161 1.08343 0.0
C130 C 0.87922 0.42319 1.15619 0.0
C131 C 0.83703 0.37925 1.03326 0.0
C132 C 0.81402 0.40022 1.00415 0.0
C133 C 0.81316 0.44828 1.00119 0.0
C134 C 0.79688 0.46883 0.97177 0.0
C135 C 0.78213 0.44144 0.94466 0.0
C136 C 0.77958 0.39356 0.94879 0.0
C137 C 0.79584 0.37304 0.97819 0.0
C138 C 0.85834 0.50719 1.09765 0.0
C139 C 0.94285 0.50066 1.02896 0.0
O140 O 1.01626 0.46905 1.14633 0.0
O141 O 0.99913 0.53141 1.12003 0.0
O142 O 0.95582 0.38861 1.09831 0.0
O143 O 1.01134 0.42117 1.07666 0.0
O144 O 0.91053 0.45625 1.15315 0.0
O145 O 0.87074 0.39712 1.12953 0.0
O146 O 0.8819 0.37755 1.03173 0.0
O147 O 0.82262 0.39361 1.06244 0.0
O148 O 0.89698 0.49986 1.08456 0.0
O149 O 0.83654 0.46922 1.10167 0.0
O150 O 0.91471 0.46514 1.0294 0.0
O151 O 0.96567 0.51052 1.05708 0.0
H152 H 0.07698 0.59005 1.14091 0.0
H153 H 0.15459 0.60407 1.11997 0.0
H154 H 0.16873 0.46099 1.09436 0.0
H155 H 0.09071 0.44677 1.11469 0.0
H156 H 0.82673 0.46991 1.02116 0.0
H157 H 0.7977 0.5058 0.9697 0.0
H158 H 0.76673 0.37174 0.92865 0.0
H159 H 0.7957 0.33604 0.98014 0.0
Sm160 Sm 0.67308 0.95833 1.06974 0.0
Sm161 Sm 0.71769 0.88618 1.04377 0.0
C162 C 0.62678 1.0194 1.10519 0.0
C163 C 0.64705 0.05877 1.12307 0.0
C164 C 0.61956 0.09166 1.1387 0.0
C165 C 0.63996 0.12889 1.15541 0.0
C166 C 0.68844 0.13385 1.15695 0.0
C167 C 0.71544 0.1016 1.13968 0.0
C168 C 0.69491 0.06449 1.12303 0.0
C169 C 0.7594 0.9876 1.04964 0.0
C170 C 0.75018 0.91042 1.12182 0.0
C171 C 0.7618 0.81549 1.01655 0.0
C172 C 0.77272 0.77083 1.03158 0.0
C173 C 0.79214 0.73547 1.01231 0.0
C174 C 0.80347 0.69364 1.0273 0.0
C175 C 0.79571 0.6869 1.06173 0.0
C176 C 0.7761 0.7222 1.08095 0.0
C177 C 0.76473 0.76387 1.06597 0.0
C178 C 0.63246 0.85548 1.06942 0.0
C179 C 0.67663 0.96535 0.99007 0.0
O180 O 0.63776 0.9791 1.11693 0.0
O181 O 0.63035 1.02126 1.07267 0.0
O182 O 0.75066 0.95049 1.06392 0.0
O183 O 0.72194 1.01058 1.04545 0.0
O184 O 0.71485 0.93909 1.11933 0.0
O185 O 0.76014 0.88551 1.09484 0.0
O186 O 0.71838 0.8238 1.01078 0.0
O187 O 0.78252 0.85022 1.03071 0.0
O188 O 0.63845 0.89096 1.05134 0.0
O189 O 0.67298 0.84081 1.07753 0.0
O190 O 0.70805 0.93264 0.99487 0.0
O191 O 0.65039 0.97627 1.01561 0.0
H192 H 0.58249 0.08818 1.13851 0.0
H193 H 0.61749 0.15243 1.16855 0.0
H194 H 0.75241 0.10428 1.13939 0.0
H195 H 0.71645 1.03983 1.11026 0.0
H196 H 0.79864 0.74025 0.98581 0.0
H197 H 0.81831 0.66651 1.01209 0.0
H198 H 0.76967 0.71749 1.10746 0.0
H199 H 0.74998 0.79084 1.08132 0.0
Sm200 Sm 0.38703 0.4187 0.8209 0.0
Sm201 Sm 0.46236 0.46081 0.79661 0.0
C202 C 0.32906 0.36248 0.85018 0.0
C203 C 0.31785 0.31395 0.84501 0.0
C204 C 0.33879 0.28834 0.8193 0.0
C205 C 0.33899 0.24038 0.8204 0.0
C206 C 0.3184 0.2177 0.84734 0.0
C207 C 0.2912 0.24383 0.86968 0.0
C208 C 0.29166 0.29154 0.8689 0.0
C209 C 0.3703 0.51174 0.80482 0.0
C210 C 0.44074 0.48291 0.87794 0.0
C211 C 0.53097 0.5055 0.76824 0.0
C212 C 0.57741 0.51544 0.78117 0.0
C213 C 0.60904 0.53897 0.76152 0.0
C214 C 0.6528 0.5492 0.7745 0.0
C215 C 0.6654 0.53593 0.80727 0.0
C216 C 0.63361 0.51229 0.82683 0.0
C217 C 0.58992 0.50224 0.81391 0.0
C218 C 0.49003 0.37404 0.81754 0.0
C219 C 0.37926 0.42088 0.74277 0.0
O220 O 0.31663 0.39039 0.82629 0.0
O221 O 0.37078 0.3702 0.86148 0.0
O222 O 0.40358 0.49487 0.8201 0.0
O223 O 0.34122 0.47898 0.79888 0.0
O224 O 0.41036 0.44968 0.87328 0.0
O225 O 0.46668 0.49373 0.8518 0.0
O226 O 0.52199 0.46251 0.76199 0.0
O227 O 0.49785 0.52578 0.78433 0.0
O228 O 0.45336 0.38277 0.80046 0.0
O229 O 0.50743 0.41222 0.82841 0.0
O230 O 0.41007 0.45422 0.74858 0.0
O231 O 0.37232 0.39258 0.76742 0.0
H232 H 0.35795 0.30538 0.79989 0.0
H233 H 0.35755 0.22162 0.80135 0.0
H234 H 0.27321 0.22783 0.89012 0.0
H235 H 0.27447 0.31079 0.88854 0.0
H236 H 0.59988 0.54954 0.73627 0.0
H237 H 0.67692 0.56734 0.75896 0.0
H238 H 0.64247 0.50214 0.8522 0.0
H239 H 0.56573 0.48443 0.82958 0.0
Sm240 Sm 0.92591 0.12595 0.57405 0.0
Sm241 Sm 0.88147 0.19478 0.54342 0.0
C242 C 0.97046 0.06601 0.61153 0.0
C243 C 0.9486 1.02616 0.62696 0.0
C244 C 0.97459 0.99191 0.64242 0.0
C245 C 0.95251 0.95635 0.65911 0.0
C246 C 0.90388 0.9548 0.6611 0.0
C247 C 0.87831 0.98751 0.64319 0.0
C248 C 0.90047 1.02273 0.62638 0.0
C249 C 0.84283 0.09186 0.54819 0.0
C250 C 0.84727 0.172 0.62202 0.0
C251 C 0.82921 0.26457 0.52243 0.0
C252 C 0.82292 0.31205 0.53447 0.0
C253 C 0.79833 0.34356 0.51485 0.0
C254 C 0.79116 0.38832 0.52672 0.0
C255 C 0.80871 0.40223 0.55831 0.0
C256 C 0.834 0.37081 0.57767 0.0
C257 C 0.84059 0.32591 0.566 0.0
C258 C 0.97426 0.22156 0.55425 0.0
C259 C 0.92643 0.11702 0.49404 0.0
O260 O 0.95699 0.10575 0.62313 0.0
O261 O 0.97156 0.06493 0.57884 0.0
O262 O 0.84903 0.13024 0.56198 0.0
O263 O 0.88136 0.07032 0.54762 0.0
O264 O 0.87644 0.13764 0.61899 0.0
O265 O 0.84631 0.2027 0.59741 0.0
O266 O 0.86889 0.25446 0.50965 0.0
O267 O 0.8152 0.23292 0.54254 0.0
O268 O 0.94871 0.20214 0.57579 0.0
O269 O 0.95167 0.22367 0.52624 0.0
O270 O 0.88866 0.14226 0.49771 0.0
O271 O 0.95542 0.11678 0.51992 0.0
H272 H 1.01179 0.99355 0.64269 0.0
H273 H 0.97395 0.93212 0.67253 0.0
H274 H 0.84119 0.98718 0.6431 0.0
H275 H 0.87983 1.04824 0.61372 0.0
H276 H 0.78438 0.33348 0.49051 0.0
H277 H 0.77191 0.41214 0.51128 0.0
H278 H 0.84798 0.3809 0.602 0.0
H279 H 0.85922 0.30189 0.58169 0.0
Sm280 Sm 0.21202 0.6673 0.32243 0.0
Sm281 Sm 0.14531 0.61896 0.29127 0.0
C282 C 0.2528 0.72992 0.35973 0.0
C283 C 0.25038 0.77942 0.35721 0.0
C284 C 0.21813 0.79987 0.33536 0.0
C285 C 0.20889 0.84673 0.33796 0.0
C286 C 0.23165 0.87309 0.36262 0.0
C287 C 0.26741 0.85279 0.38177 0.0
C288 C 0.27637 0.80624 0.37928 0.0
C289 C 0.24892 0.58379 0.30345 0.0
C290 C 0.16459 0.5882 0.3708 0.0
C291 C 0.0804 0.57103 0.25941 0.0
C292 C 1.03425 0.56047 0.27206 0.0
C293 C 1.00015 0.54103 0.25119 0.0
C294 C 0.95665 0.53119 0.26419 0.0
C295 C 0.94697 0.54089 0.29812 0.0
C296 C 0.98104 0.56052 0.3188 0.0
C297 C 1.02429 0.5701 0.30591 0.0
C298 C 0.10907 0.70472 0.31316 0.0
C299 C 0.22743 0.66664 0.24366 0.0
O300 O 0.27368 0.70878 0.33518 0.0
O301 O 0.21395 0.71089 0.36798 0.0
O302 O 0.20932 0.58992 0.31504 0.0
O303 O 0.27074 0.62216 0.30207 0.0
O304 O 0.1911 0.62504 0.37032 0.0
O305 O 0.14244 0.5773 0.34242 0.0
O306 O 0.08826 0.61409 0.25333 0.0
O307 O 0.11415 0.55224 0.2761 0.0
O308 O 0.14701 0.69767 0.29831 0.0
O309 O 0.09241 0.66483 0.32014 0.0
O310 O 0.19822 0.63156 0.24613 0.0
O311 O 0.23124 0.69405 0.26996 0.0
H312 H 0.1984 0.77915 0.31765 0.0
H313 H 0.18292 0.86164 0.32172 0.0
H314 H 0.28655 0.87221 0.40054 0.0
H315 H 0.30165 0.79086 0.39597 0.0
H316 H 1.00717 0.53339 0.22504 0.0
H317 H 0.93059 0.51604 0.2479 0.0
H318 H 0.97418 0.56817 0.34498 0.0
H319 H 1.05015 0.58486 0.32251 0.0
Sm320 Sm 0.8819 0.70103 0.85673 0.0
Sm321 Sm 0.93066 0.63208 0.82816 0.0
C322 C 0.8349 0.76832 0.88591 0.0
C323 C 0.8241 0.81409 0.87237 0.0
C324 C 0.83404 0.82378 0.83865 0.0
C325 C 0.82362 0.86666 0.82513 0.0
C326 C 0.80291 0.90056 0.84509 0.0
C327 C 0.79327 0.89118 0.8789 0.0
C328 C 0.80379 0.84813 0.89247 0.0
C329 C 0.96808 0.7339 0.83547 0.0
C330 C 0.92797 0.62103 0.90722 0.0
C331 C 0.99515 0.5881 0.79581 0.0
C332 C 1.04414 0.58737 0.80384 0.0
C333 C 0.0642 0.62395 0.82189 0.0
C334 C 0.11187 0.62765 0.82424 0.0
C335 C 0.13989 0.59508 0.80815 0.0
C336 C 0.11897 0.55447 0.79547 0.0
C337 C 0.0714 0.55119 0.79272 0.0
C338 C 0.84635 0.59736 0.84596 0.0
C339 C 0.85227 0.6805 0.77747 0.0
O340 O 0.87817 0.76031 0.89253 0.0
O341 O 0.81549 0.73412 0.86998 0.0
O342 O 0.96076 0.69757 0.85196 0.0
O343 O 0.92864 0.75021 0.82599 0.0
O344 O 0.89245 0.64957 0.90298 0.0
O345 O 0.95647 0.61687 0.88203 0.0
O346 O 0.96904 0.5679 0.81758 0.0
O347 O 0.97928 0.62791 0.78603 0.0
O348 O 0.85326 0.63627 0.83365 0.0
O349 O 0.88452 0.57477 0.84833 0.0
O350 O 0.88827 0.6525 0.77908 0.0
O351 O 0.84156 0.70392 0.805 0.0
H352 H 0.84965 0.79802 0.82266 0.0
H353 H 0.83152 0.87339 0.79908 0.0
H354 H 0.77743 0.91711 0.89467 0.0
H355 H 0.79593 0.84139 0.91851 0.0
H356 H 1.04313 0.65122 0.83219 0.0
H357 H 0.12638 0.65798 0.83597 0.0
H358 H 0.13877 0.52709 0.78417 0.0
H359 H 0.05615 0.52179 0.78003 0.0
Sm360 Sm 0.14651 0.12602 1.10493 0.0
Sm361 Sm 0.21687 0.17111 1.07354 0.0
C362 C 0.07683 0.07439 1.12601 0.0
C363 C 1.03221 0.05976 1.11165 0.0
C364 C 1.02411 0.06026 1.07675 0.0
C365 C 0.98061 1.04948 1.06356 0.0
C366 C 0.94457 1.0383 1.0851 0.0
C367 C 0.95267 1.03749 1.11996 0.0
C368 C 0.99624 1.04814 1.13314 0.0
C369 C 0.12167 0.21932 1.09719 0.0
C370 C 0.22965 0.16488 1.15402 0.0
C371 C 0.27273 0.22304 1.03835 0.0
C372 C 0.30674 0.20966 1.01317 0.0
C373 C 0.30968 0.23491 0.98365 0.0
C374 C 0.32969 0.21526 0.95535 0.0
C375 C 0.34501 0.16955 0.95586 0.0
C376 C 0.34751 0.14645 0.98645 0.0
C377 C 0.32918 0.16697 1.01527 0.0
C378 C 0.24539 0.08301 1.09113 0.0
C379 C 0.1637 0.09933 1.02271 0.0
O380 O 0.08076 0.11786 1.13229 0.0
O381 O 0.11374 0.0577 1.11238 0.0
O382 O 0.14001 0.19367 1.07486 0.0
O383 O 0.12308 0.19739 1.12529 0.0
O384 O 0.20129 0.12961 1.14955 0.0
O385 O 0.2319 0.19452 1.12915 0.0
O386 O 0.23009 0.21522 1.02947 0.0
O387 O 0.2816 0.21078 1.06915 0.0
O388 O 0.20696 0.09466 1.07985 0.0
O389 O 0.27188 0.11856 1.09208 0.0
O390 O 0.19985 0.1265 1.02578 0.0
O391 O 0.13516 0.09662 1.04875 0.0
H392 H 1.05113 0.06964 1.05971 0.0
H393 H 0.97484 1.05043 1.03661 0.0
H394 H 0.92514 1.02904 1.13692 0.0
H395 H 1.00169 1.04802 1.16014 0.0
H396 H 0.29344 0.26826 0.9817 0.0
H397 H 0.32978 0.23445 0.93229 0.0
H398 H 0.36071 0.11177 0.98751 0.0
H399 H 0.32935 0.14808 1.03851 0.0
Sm400 Sm 0.72692 0.38707 0.35333 0.0
Sm401 Sm 0.67949 0.45528 0.32596 0.0
C402 C 0.77592 0.32104 0.38256 0.0
C403 C 0.78339 0.27349 0.37086 0.0
C404 C 0.81012 0.24266 0.38966 0.0
C405 C 0.81995 0.19887 0.37663 0.0
C406 C 0.8029 0.18556 0.34478 0.0
C407 C 0.77546 0.21606 0.32637 0.0
C408 C 0.7662 0.25975 0.33916 0.0
C409 C 0.64045 0.35257 0.3311 0.0
C410 C 0.68315 0.46784 0.40467 0.0
C411 C 0.63319 0.51591 0.29085 0.0
C412 C 0.65328 0.55688 0.27515 0.0
C413 C 0.68157 0.55288 0.24694 0.0
C414 C 0.70424 0.59113 0.23446 0.0
C415 C 0.69872 0.63499 0.24947 0.0
C416 C 0.67262 0.63781 0.27915 0.0
C417 C 0.64971 0.59963 0.29139 0.0
C418 C 0.76723 0.48725 0.3429 0.0
C419 C 0.75212 0.40477 0.27376 0.0
O420 O 0.73435 0.33181 0.39163 0.0
O421 O 0.79353 0.35209 0.36342 0.0
O422 O 0.64713 0.38974 0.34743 0.0
O423 O 0.68014 0.33714 0.32193 0.0
O424 O 0.71858 0.43939 0.40008 0.0
O425 O 0.65397 0.47167 0.37945 0.0
O426 O 0.64425 0.47583 0.27828 0.0
O427 O 0.63435 0.51639 0.32356 0.0
O428 O 0.75757 0.44917 0.33006 0.0
O429 O 0.72993 0.50964 0.34812 0.0
O430 O 0.7133 0.42849 0.27551 0.0
O431 O 0.76698 0.38558 0.30191 0.0
H432 H 0.8241 0.25274 0.414 0.0
H433 H 0.84121 0.17559 0.39112 0.0
H434 H 0.76223 0.20642 0.30171 0.0
H435 H 0.74659 0.28323 0.32381 0.0
H436 H 0.68638 0.52014 0.2344 0.0
H437 H 0.72444 0.58608 0.21207 0.0
H438 H 0.66809 0.66991 0.29248 0.0
H439 H 0.6294 0.60355 0.3139 0.0
Sm440 Sm 0.46183 0.96223 0.6035 0.0
Sm441 Sm 0.39055 0.9162 0.57792 0.0
C442 C 0.53207 1.00765 0.63114 0.0
C443 C 0.57769 1.01645 0.61684 0.0
C444 C 0.58466 1.00911 0.58226 0.0
C445 C 0.62705 1.0188 0.56789 0.0
C446 C 0.66328 1.03575 0.58788 0.0
C447 C 0.65668 1.04266 0.62254 0.0
C448 C 0.61403 1.0331 0.63695 0.0
C449 C 0.49399 0.87605 0.58086 0.0
C450 C 0.38229 0.92202 0.65714 0.0
C451 C 0.3327 0.86741 0.54112 0.0
C452 C 0.2978 0.88643 0.51837 0.0
C453 C 0.27831 0.85951 0.49281 0.0
C454 C 0.25028 0.87991 0.46851 0.0
C455 C 0.24222 0.92757 0.46912 0.0
C456 C 0.25819 0.95365 0.49654 0.0
C457 C 0.28637 0.93327 0.5208 0.0
C458 C 0.35924 1.00242 0.59755 0.0
C459 C 0.4365 0.99251 0.52548 0.0
O460 O 0.52283 0.96518 0.63821 0.0
O461 O 0.49803 1.02743 0.6155 0.0
O462 O 0.45794 0.88307 0.59822 0.0
O463 O 0.50756 0.9153 0.5698 0.0
O464 O 0.41431 0.95395 0.65214 0.0
O465 O 0.37234 0.89452 0.63175 0.0
O466 O 0.37531 0.87399 0.53221 0.0
O467 O 0.326 0.87653 0.5728 0.0
O468 O 0.39679 0.9938 0.58345 0.0
O469 O 0.33663 0.96485 0.60114 0.0
O470 O 0.40776 0.9575 0.52827 0.0
O471 O 0.46234 1.00268 0.55217 0.0
H472 H 0.5571 0.9963 0.56625 0.0
H473 H 0.63153 1.01351 0.54114 0.0
H474 H 0.68444 0.05567 0.63831 0.0
H475 H 0.60932 1.039 0.66362 0.0
H476 H 0.28627 0.8233 0.49082 0.0
H477 H 0.23686 0.85879 0.44816 0.0
H478 H 0.25124 0.99009 0.49813 0.0
H479 H 0.30089 0.95454 0.54062 0.0
Sm480 Sm 0.17541 0.45122 0.56936 0.0
Sm481 Sm 0.22261 0.38021 0.54187 0.0
C482 C 0.1229 0.50179 0.6087 0.0
C483 C 0.13538 0.53105 0.63777 0.0
C484 C 0.11623 0.52208 0.66914 0.0
C485 C 0.13366 0.54365 0.69799 0.0
C486 C 0.17082 0.5741 0.69595 0.0
C487 C 0.18892 0.58456 0.66452 0.0
C488 C 0.17068 0.56384 0.63552 0.0
C489 C 0.26218 0.48189 0.55196 0.0
C490 C 0.25475 0.4035 0.62063 0.0
C491 C 0.26859 0.31205 0.5126 0.0
C492 C 0.27852 0.26578 0.52548 0.0
C493 C 0.30196 0.23308 0.506 0.0
C494 C 0.31273 0.18998 0.51944 0.0
C495 C 0.29989 0.17922 0.55241 0.0
C496 C 0.27589 0.2117 0.57159 0.0
C497 C 0.26559 0.25467 0.55833 0.0
C498 C 0.13711 0.34788 0.56461 0.0
C499 C 0.17975 0.46197 0.48992 0.0
O500 O 0.12875 0.45774 0.61305 0.0
O501 O 0.13694 0.51546 0.57941 0.0
O502 O 0.25277 0.44382 0.56434 0.0
O503 O 0.22508 0.50638 0.54922 0.0
O504 O 0.21948 0.43241 0.61832 0.0
O505 O 0.26411 0.37826 0.59358 0.0
O506 O 0.22556 0.32106 0.50589 0.0
O507 O 0.28838 0.3454 0.52921 0.0
O508 O 0.14353 0.38411 0.54745 0.0
O509 O 0.17696 0.33348 0.57481 0.0
O510 O 0.21239 0.43015 0.49446 0.0
O511 O 0.15299 0.47147 0.51551 0.0
H512 H 0.08906 0.49701 0.6715 0.0
H513 H 0.11916 0.53534 0.7221 0.0
H514 H 0.21757 0.60799 0.66255 0.0
H515 H 0.18551 0.57215 0.61152 0.0
H516 H 0.31241 0.24106 0.48068 0.0
H517 H 0.33138 0.16523 0.50434 0.0
H518 H 0.26594 0.20404 0.59709 0.0
H519 H 0.24805 0.27953 0.57396 0.0
Sm520 Sm 0.88824 0.92175 0.32155 0.0
Sm521 Sm 0.9592 0.96253 0.2931 0.0
C522 C 0.82521 0.88198 0.35812 0.0
C523 C 0.79003 0.90811 0.37645 0.0
C524 C 0.75641 0.88624 0.39511 0.0
C525 C 0.72921 0.91194 0.41713 0.0
C526 C 0.73697 0.95937 0.42205 0.0
C527 C 0.76603 0.98173 0.39971 0.0
C528 C 0.79226 0.95625 0.37708 0.0
C529 C 0.85814 1.00683 0.29928 0.0
C530 C 0.93973 0.99423 0.37241 0.0
C531 C 1.03011 1.01278 0.27242 0.0
C532 C 0.07814 1.01956 0.28329 0.0
C533 C 0.09649 0.99518 0.31063 0.0
C534 C 0.14151 1.0035 0.32181 0.0
C535 C 0.16858 1.03649 0.30609 0.0
C536 C 0.15031 0.06066 0.27863 0.0
C537 C 0.10536 1.05219 0.26729 0.0
C538 C 0.98341 0.86916 0.30197 0.0
C539 C 0.87936 0.92451 0.2413 0.0
O540 O 0.86726 0.88829 0.36899 0.0
O541 O 0.82208 0.88404 0.32552 0.0
O542 O 0.89631 0.99837 0.31294 0.0
O543 O 0.83515 0.96939 0.2961 0.0
O544 O 0.90192 0.97039 0.36743 0.0
O545 O 0.97143 0.99253 0.34857 0.0
O546 O 1.01954 0.97289 0.25983 0.0
O547 O 0.99919 1.02747 0.29316 0.0
O548 O 0.96396 0.89489 0.32381 0.0
O549 O 0.98395 0.89122 0.27402 0.0
O550 O 0.90787 0.95941 0.24652 0.0
O551 O 0.87522 0.89556 0.26648 0.0
H552 H 0.75294 0.84929 0.39414 0.0
H553 H 0.70526 0.89388 0.4326 0.0
H554 H 0.77149 1.0183 0.40161 0.0
H555 H 0.81652 0.9741 0.36169 0.0
H556 H 0.0758 0.97023 0.32356 0.0
H557 H 0.15501 0.98507 0.34314 0.0
H558 H 0.17081 0.08618 0.26614 0.0
H559 H 0.09165 0.07147 0.24628 0.0
Sm560 Sm 0.43099 0.63155 1.0788 0.0
Sm561 Sm 0.38017 0.69476 1.04341 0.0
C562 C 0.49843 0.59674 1.11557 0.0
C563 C 0.53446 0.62062 1.13468 0.0
C564 C 0.53702 0.66863 1.13348 0.0
C565 C 0.57425 0.69172 1.14809 0.0
C566 C 0.60842 0.66714 1.16527 0.0
C567 C 0.60482 0.61912 1.16744 0.0
C568 C 0.56828 0.59595 1.15195 0.0
C569 C 0.34784 0.59106 1.06128 0.0
C570 C 0.35321 0.68115 1.12527 0.0
C571 C 0.32457 0.76072 1.02074 0.0
C572 C 0.31361 0.80674 1.03376 0.0
C573 C 0.28613 0.83651 1.01472 0.0
C574 C 0.27705 0.88087 1.02659 0.0
C575 C 0.29543 0.896 1.0576 0.0
C576 C 0.3229 0.86615 1.07667 0.0
C577 C 0.33177 0.82172 1.06488 0.0
C578 C 0.47175 0.72637 1.05297 0.0
C579 C 0.4212 0.60975 0.99786 0.0
O580 O 0.50088 0.60189 1.08309 0.0
O581 O 0.45672 0.6018 1.12676 0.0
O582 O 0.35416 0.63215 1.06968 0.0
O583 O 0.38692 0.56937 1.06111 0.0
O584 O 0.38574 0.64947 1.12518 0.0
O585 O 0.34714 0.70626 1.09768 0.0
O586 O 0.36646 0.75485 1.01063 0.0
O587 O 0.31066 0.72654 1.0386 0.0
O588 O 0.446 0.70882 1.07508 0.0
O589 O 0.44995 0.72423 1.02455 0.0
O590 O 0.38624 0.63899 1.00015 0.0
O591 O 0.44936 0.60656 1.02415 0.0
H592 H 0.51087 0.68813 1.12034 0.0
H593 H 0.57647 0.72857 1.14577 0.0
H594 H 0.63076 0.59946 1.18076 0.0
H595 H 0.5668 0.55889 1.15304 0.0
H596 H 0.27206 0.82561 0.9906 0.0
H597 H 0.25611 0.90363 1.01143 0.0
H598 H 0.33758 0.87736 1.10052 0.0
H599 H 0.3532 0.79918 1.07986 0.0
Sm600 Sm 0.71224 0.16704 0.81925 0.0
Sm601 Sm 0.64067 0.11883 0.79316 0.0
C602 C 0.7646 0.22832 0.85066 0.0
C603 C 0.7756 0.27645 0.8446 0.0
C604 C 0.80186 0.30049 0.8684 0.0
C605 C 0.80577 0.34787 0.86626 0.0
C606 C 0.7822 0.37223 0.84087 0.0
C607 C 0.76038 0.34743 0.81482 0.0
C608 C 0.75721 0.29961 0.81665 0.0
C609 C 0.74378 0.08019 0.80222 0.0
C610 C 0.66442 0.09245 0.87205 0.0
C611 C 0.57069 0.07329 0.76506 0.0
C612 C 0.52343 0.06655 0.77728 0.0
C613 C 0.51267 0.07796 0.8107 0.0
C614 C 0.46814 0.07179 0.82267 0.0
C615 C 0.4335 0.05388 0.80151 0.0
C616 C 0.44415 1.04252 0.76802 0.0
C617 C 0.48882 1.04893 0.75596 0.0
C618 C 0.60878 0.20496 0.81522 0.0
C619 C 0.71918 0.16062 0.73974 0.0
O620 O 0.78037 0.19891 0.8288 0.0
O621 O 0.72214 0.22004 0.8591 0.0
O622 O 0.70579 0.08943 0.81543 0.0
O623 O 0.76607 0.1175 0.79637 0.0
O624 O 0.69159 0.12887 0.86954 0.0
O625 O 0.64088 0.07979 0.84479 0.0
O626 O 0.58145 0.11504 0.75698 0.0
O627 O 0.6031 0.05376 0.78272 0.0
O628 O 0.64466 0.19761 0.79778 0.0
O629 O 0.59418 0.16596 0.82593 0.0
O630 O 0.68856 0.12741 0.7449 0.0
O631 O 0.72836 0.18846 0.76507 0.0
H632 H 0.81723 0.28299 0.88967 0.0
H633 H 0.82421 0.36574 0.8862 0.0
H634 H 0.74374 0.36496 0.79414 0.0
H635 H 0.73811 0.28106 0.79735 0.0
H636 H 0.53884 0.09145 0.82765 0.0
H637 H 0.46079 0.08036 0.84863 0.0
H638 H 0.41792 1.02853 0.75131 0.0
H639 H 0.49637 1.03996 0.73011 0.0
C640 C 0.56084 0.25169 0.35907 0.0
C641 C 0.51906 0.26029 0.34112 0.0
C642 C 0.55525 0.33163 0.31902 0.0
C643 C 0.59817 0.32106 0.335 0.0
N644 N 0.64232 0.26588 0.36696 0.0
N645 N 0.47788 0.3078 0.30172 0.0
C646 C 0.60096 0.27957 0.35394 0.0
C647 C 0.51688 0.3 0.3203 0.0
N648 N 0.56219 0.21696 0.38192 0.0
N649 N 0.55081 0.37263 0.30297 0.0
H650 H 0.44845 0.28775 0.30351 0.0
H651 H 0.47527 0.33249 0.28311 0.0
H652 H 0.57804 0.39552 0.30061 0.0
H653 H 0.51974 0.38553 0.2939 0.0
H654 H 0.58876 0.21265 0.39938 0.0
H655 H 0.53532 0.19384 0.38497 0.0
H656 H 0.64854 0.23307 0.37605 0.0
H657 H 0.67148 0.28618 0.36692 0.0
C658 C 0.60584 0.79992 0.58709 0.0
C659 C 0.58834 0.75456 0.58832 0.0
C660 C 0.50935 0.78796 0.58111 0.0
C661 C 0.52649 0.83378 0.58381 0.0
N662 N 0.59282 0.88069 0.59811 0.0
N663 N 0.52163 0.70603 0.58964 0.0
C664 C 0.57531 0.83898 0.58881 0.0
C665 C 0.53953 0.74894 0.5863 0.0
N666 N 0.65219 0.806 0.58459 0.0
N667 N 0.46434 0.78138 0.57219 0.0
H668 H 0.54219 0.67682 0.5914 0.0
H669 H 0.48673 0.69965 0.59266 0.0
H670 H 0.44156 0.80837 0.56789 0.0
H671 H 0.45054 0.74941 0.56614 0.0
H672 H 0.66713 0.83762 0.57978 0.0
H673 H 0.67535 0.77865 0.58418 0.0
H674 H 0.62706 0.88581 0.60508 0.0
H675 H 0.57251 0.90908 0.60337 0.0
C676 C 0.07911 0.79667 0.86783 0.0
C677 C 0.09068 0.82617 0.84052 0.0
C678 C 1.02906 0.78502 0.80764 0.0
C679 C 1.01199 0.7635 0.83704 0.0
N680 N 1.01829 0.75819 0.8975 0.0
N681 N 0.0715 0.84804 0.78337 0.0
C682 C 1.0363 0.77206 0.86776 0.0
C683 C 0.0643 0.82002 0.81006 0.0
N684 N 0.11034 0.78863 0.89299 0.0
N685 N 1.0129 0.77073 0.77693 0.0
H686 H 0.09557 0.87427 0.7835 0.0
H687 H 1.05061 0.84798 0.76193 0.0
H688 H 0.98763 0.74561 0.77413 0.0
H689 H 1.02775 0.78045 0.75439 0.0
H690 H 0.10465 0.76496 0.91195 0.0
H691 H 0.14441 0.79916 0.89194 0.0
H692 H 1.03261 0.7676 0.92072 0.0
H693 H 0.98662 0.7419 0.89928 0.0
C694 C 1.04484 0.26166 1.10901 0.0
C695 C 0.08687 0.25888 1.09075 0.0
C696 C 0.06122 0.33055 1.06213 0.0
C697 C 1.02423 0.33772 1.08525 0.0
N698 N 0.99104 0.31134 1.13741 0.0
N699 N 0.1366 0.29674 1.0519 0.0
C700 C 1.0189 0.30365 1.11055 0.0
C701 C 0.09536 0.29507 1.0678 0.0
N702 N 1.02747 0.22333 1.12343 0.0
N703 N 0.06307 0.35634 1.03373 0.0
H704 H 0.16217 0.27212 1.0554 0.0
H705 H 0.14686 0.32468 1.03773 0.0
H706 H 1.0378 0.38018 1.02731 0.0
H707 H 0.08652 0.3501 1.01462 0.0
H708 H 0.99529 0.22267 1.1347 0.0
H709 H 1.04154 0.19101 1.11936 0.0
H710 H 0.98951 0.28885 1.15758 0.0
H711 H 0.9744 0.34221 1.14215 0.0
C712 C 0.59349 0.7752 1.0751 0.0
C713 C 0.58915 0.82367 1.06932 0.0
C714 C 0.50501 0.80874 1.05898 0.0
C715 C 0.51177 0.76017 1.05963 0.0
N716 N 0.5666 0.69853 1.06055 0.0
N717 N 0.53707 0.88589 1.05674 0.0
C718 C 0.5573 0.74402 1.06521 0.0
C719 C 0.54377 0.84007 1.06139 0.0
N720 N 0.6307 0.75839 1.09228 0.0
N721 N 0.46106 0.8252 1.05712 0.0
H722 H 0.56162 0.91045 1.06319 0.0
H723 H 0.50735 0.89961 1.04598 0.0
H724 H 0.43255 0.80375 1.05507 0.0
H725 H 0.45242 0.8596 1.06019 0.0
H726 H 0.63515 0.72376 1.09743 0.0
H727 H 0.65248 0.77888 1.10684 0.0
H728 H 0.59991 0.68527 1.06054 0.0
H729 H 0.54134 0.67481 1.05367 0.0
C730 C 0.52897 0.24559 0.81076 0.0
C731 C 0.57811 0.24834 0.8138 0.0
C732 C 0.56877 0.3329 0.81064 0.0
C733 C 0.51989 0.33031 0.81445 0.0
N734 N 0.45538 0.28101 0.82355 0.0
N735 N 0.64286 0.29838 0.82279 0.0
C736 C 0.50066 0.28567 0.81603 0.0
C737 C 0.5973 0.29311 0.8155 0.0
N738 N 0.50885 0.20562 0.8004 0.0
N739 N 0.58842 0.37243 0.79984 0.0
H740 H 0.6646 0.27072 0.82723 0.0
H741 H 0.65753 0.33027 0.82791 0.0
H742 H 0.56944 0.40092 0.79255 0.0
H743 H 0.62287 0.3742 0.79312 0.0
H744 H 0.474 0.20342 0.79427 0.0
H745 H 0.52756 0.17686 0.79308 0.0
H746 H 0.44048 0.2494 0.82805 0.0
H747 H 0.43413 0.30892 0.82869 0.0
C748 C 1.04869 0.33284 0.56696 0.0
C749 C 0.09439 0.3159 0.56243 0.0
C750 C 0.06092 0.23667 0.56068 0.0
C751 C 1.01523 0.25387 0.56151 0.0
N752 N 0.96595 0.32019 0.56168 0.0
N753 N 0.14007 0.25029 0.54546 0.0
C754 C 1.00938 0.30254 0.56355 0.0
C755 C 0.09941 0.26734 0.55705 0.0
N756 N 1.0426 0.37779 0.57571 0.0
N757 N 0.06783 0.1905 0.56303 0.0
H758 H 0.16718 0.27104 0.53838 0.0
H759 H 0.14474 0.21619 0.53827 0.0
H760 H 1.04076 0.16733 0.56512 0.0
H761 H 0.10024 0.17582 0.56628 0.0
H762 H 1.01116 0.39144 0.58311 0.0
H763 H 0.0698 0.40077 0.57822 0.0
H764 H 0.9589 0.35494 0.55876 0.0
H765 H 0.93682 0.29948 0.56103 0.0
C766 C 1.04071 0.75487 0.33457 0.0
C767 C 0.07941 0.74943 0.31266 0.0
C768 C 0.06157 0.82854 0.29286 0.0
C769 C 1.01789 0.82952 0.30894 0.0
N770 N 0.96503 0.78883 0.34374 0.0
N771 N 0.1186 0.78227 0.2648 0.0
C772 C 1.00735 0.79129 0.32948 0.0
C773 C 0.08766 0.78662 0.29019 0.0
N774 N 1.03662 0.72676 0.3616 0.0
N775 N 0.07995 0.86836 0.28143 0.0
H776 H 0.13643 0.75239 0.25922 0.0
H777 H 0.12221 0.80707 0.24633 0.0
H778 H 0.0646 0.90015 0.28561 0.0
H779 H 0.11337 0.87045 0.27237 0.0
H780 H 1.01168 0.73145 0.37991 0.0
H781 H 0.06154 0.70267 0.36819 0.0
H782 H 0.95331 0.75966 0.35584 0.0
H783 H 0.94034 0.81455 0.34106 0.0
C784 C 0.66202 0.21016 0.21992 0.0
C785 C 0.6711 0.17469 0.24325 0.0
C786 C 0.73372 0.14827 0.20835 0.0
C787 C 0.70984 0.1677 1.18096 0.0
N788 N 0.67473 0.23702 1.16265 0.0
N789 N 0.72453 0.11903 0.26461 0.0
C790 C 0.68354 0.20717 1.188 0.0
C791 C 0.7113 0.14791 0.23965 0.0
N792 N 0.63011 0.24296 0.22714 0.0
N793 N 0.77634 0.13004 0.20407 0.0
H794 H 0.70801 0.1192 0.2878 0.0
H795 H 0.75018 0.09446 0.2615 0.0
H796 H 0.79338 0.13309 1.18127 0.0
H797 H 0.7961 0.1171 0.22387 0.0
H798 H 0.61985 0.26835 0.21047 0.0
H799 H 0.61484 0.24517 0.25069 0.0
H800 H 0.65516 0.2667 1.16529 0.0
H801 H 0.68937 0.2319 1.13903 0.0
C802 C 0.68967 0.93855 0.50029 0.0
C803 C 0.73388 0.92264 0.51046 0.0
C804 C 0.76722 0.98207 0.47633 0.0
C805 C 0.72761 0.98005 0.45579 0.0
N806 N 0.64586 0.97596 0.45543 0.0
N807 N 0.81681 0.93302 0.50871 0.0
C808 C 0.68649 0.96679 0.47131 0.0
C809 C 0.77352 0.94668 0.49982 0.0
N810 N 0.65174 0.92355 0.51664 0.0
N811 N 0.80003 1.0142 0.47085 0.0
H812 H 0.82351 0.90678 0.52559 0.0
H813 H 0.84612 0.94702 0.49803 0.0
H814 H 0.79458 1.04045 0.45363 0.0
H815 H 0.82953 1.01721 0.48589 0.0
H816 H 0.6184 0.93419 0.51091 0.0
H817 H 0.65471 0.90263 0.53771 0.0
H818 H 0.61414 0.96412 0.46342 0.0
H819 H 0.6451 0.99555 0.43356 0.0
C820 C 0.88459 0.95506 0.7438 0.0
C821 C 0.92227 0.9254 0.74955 0.0
C822 C 0.90542 0.88585 0.69659 0.0
C823 C 0.88139 0.92571 0.68702 0.0
N824 N 0.81779 0.96931 0.70837 0.0
N825 N 0.95225 0.84959 0.74011 0.0
C826 C 0.86003 0.95038 0.71316 0.0
C827 C 0.92637 0.88543 0.72915 0.0
N828 N 0.87595 0.99019 0.76558 0.0
N829 N 0.91306 0.85276 0.67294 0.0
H830 H 0.96623 0.8495 0.76435 0.0
H831 H 0.95678 0.81933 0.72648 0.0
H832 H 0.89847 0.85552 0.64888 0.0
H833 H 0.93297 0.82363 0.67699 0.0
H834 H 0.85172 1.01568 0.76055 0.0
H835 H 0.895 0.99415 0.78783 0.0
H836 H 0.79993 0.98542 0.72778 0.0
H837 H 0.79927 0.96372 0.68607 0.0
C838 C 0.81225 0.46739 0.88973 0.0
C839 C 0.77372 0.46039 0.9106 0.0
C840 C 0.73094 0.43237 0.86193 0.0
C841 C 0.77344 0.42195 0.8467 0.0
N842 N 0.8499 0.44864 0.83755 0.0
N843 N 0.69166 0.4534 0.91289 0.0
C844 C 0.81188 0.44792 0.85708 0.0
C845 C 0.73116 0.44999 0.89506 0.0
N846 N 0.85069 0.48891 0.9012 0.0
N847 N 0.69043 0.42204 0.84652 0.0
H848 H 0.69183 0.46609 0.93755 0.0
H849 H 0.65969 0.44437 0.90263 0.0
H850 H 0.68841 0.41046 0.82166 0.0
H851 H 0.68841 0.41046 0.82166 0.0
H852 H 0.85306 0.50447 0.92487 0.0
H853 H 0.85306 0.50447 0.92487 0.0
H854 H 0.8799 0.46583 0.84486 0.0
H855 H 0.84987 0.43269 0.81389 0.0
C856 C 0.29966 0.1441 0.87434 0.0
C857 C 0.33287 0.17056 0.85768 0.0
C858 C 0.38767 0.15863 0.90318 0.0
C859 C 0.35057 0.14558 0.92328 0.0
N860 N 0.28 0.10331 0.92534 0.0
N861 N 0.4139 0.16974 0.84635 0.0
C862 C 0.30987 0.12914 0.90751 0.0
C863 C 0.37912 0.16605 0.86859 0.0
N864 N 0.25674 0.14051 0.86056 0.0
N865 N 0.42936 0.16743 0.91776 0.0
H866 H 0.40732 0.17236 0.82068 0.0
H867 H 0.44836 0.16535 0.85303 0.0
H868 H 0.43537 0.16117 0.94326 0.0
H869 H 0.45665 0.18189 0.90489 0.0
H870 H 0.22912 0.12543 0.87252 0.0
H871 H 0.24933 0.15433 0.83696 0.0
H872 H 0.25056 0.08856 0.91485 0.0
H873 H 0.28744 0.09362 0.95001 0.0
C874 C 0.17982 0.93288 0.42686 0.0
C875 C 0.22291 0.94908 0.43842 0.0
C876 C 0.25083 0.95038 0.38102 0.0
C877 C 0.21533 0.91936 0.37284 0.0
N878 N 0.13449 0.90588 0.37878 0.0
N879 N 0.2906 0.99241 0.42541 0.0
C880 C 0.1752 0.92012 0.39249 0.0
C881 C 0.25466 0.96602 0.41481 0.0
N882 N 0.14596 0.92547 0.44953 0.0
N883 N 0.28571 0.95504 0.35881 0.0
H884 H 0.29483 1.00195 0.4505 0.0
H885 H 0.31401 1.00721 0.40923 0.0
H886 H 0.28318 0.94054 0.33471 0.0
H887 H 0.31692 0.97086 0.36442 0.0
H888 H 0.11486 0.9096 0.44361 0.0
H889 H 0.15019 0.93523 0.47473 0.0
H890 H 0.10353 0.90654 0.39162 0.0
H891 H 0.13145 0.89767 0.35329 0.0
C892 C 0.18054 0.63732 0.73873 0.0
C893 C 0.19148 0.59234 0.72746 0.0
C894 C 0.21385 0.57232 0.78489 0.0
C895 C 0.18595 0.60888 0.79547 0.0
N896 N 0.18215 0.68989 0.78663 0.0
N897 N 0.23004 0.52061 0.7381 0.0
C898 C 0.18365 0.64659 0.7737 0.0
C899 C 0.21348 0.56134 0.74992 0.0
N900 N 0.16415 0.66938 0.71694 0.0
N901 N 0.23346 0.54506 0.80863 0.0
H902 H 0.23079 0.51278 0.71243 0.0
H903 H 0.24331 0.49531 0.75363 0.0
H904 H 0.23017 0.55314 0.83416 0.0
H905 H 0.25431 0.51702 0.80316 0.0
H906 H 0.15135 0.70104 0.72485 0.0
H907 H 0.16191 0.66348 0.69109 0.0
H908 H 0.1827 0.71906 0.77173 0.0
H909 H 0.18487 0.69578 0.81249 0.0
C910 C 0.68097 0.71437 0.23484 0.0
C911 C 0.71238 0.67805 0.23131 0.0
C912 C 0.69341 0.67412 1.1722 0.0
C913 C 0.64876 0.68996 1.18113 0.0
N914 N 0.60368 0.73692 0.21957 0.0
N915 N 0.77172 0.65914 1.19257 0.0
C916 C 0.64386 0.71564 0.21154 0.0
C917 C 0.72744 0.67185 0.1981 0.0
N918 N 0.68514 0.74414 0.26118 0.0
N919 N 0.7012 0.6576 1.14062 0.0
H920 H 0.79471 0.65538 0.21277 0.0
H921 H 0.78544 0.65493 1.16866 0.0
H922 H 0.67608 0.65944 1.12171 0.0
H923 H 0.73179 0.64177 1.13365 0.0
H924 H 0.66376 0.77261 0.26412 0.0
H925 H 0.71235 0.741 0.27842 0.0
H926 H 0.59818 0.75175 0.24315 0.0
H927 H 0.5756 0.73845 0.20318 0.0
C928 C 0.32557 0.48321 0.32983 0.0
C929 C 0.29607 0.44687 0.31999 0.0
C930 C 0.24712 0.50073 0.28925 0.0
C931 C 0.27116 0.53786 0.30459 0.0
N932 N 0.33296 0.56402 0.34186 0.0
N933 N 0.22802 0.42001 0.29091 0.0
C934 C 0.31099 0.52923 0.32493 0.0
C935 C 0.25687 0.45525 0.29951 0.0
N936 N 0.36748 0.47364 0.34406 0.0
N937 N 0.21543 0.5091 0.2644 0.0
H938 H 0.23486 0.38597 0.29707 0.0
H939 H 0.19597 0.42481 0.27953 0.0
H940 H 0.20854 0.54202 0.25568 0.0
H941 H 0.19963 0.48338 0.2501 0.0
H942 H 0.39276 0.49831 0.34833 0.0
H943 H 0.37872 0.44027 0.34865 0.0
H944 H 0.35792 0.55846 0.36037 0.0
H945 H 0.32417 0.59839 0.34008 0.0
C946 C 0.35997 0.5516 0.59154 0.0
C947 C 0.39845 0.53122 0.57585 0.0
C948 C 0.34668 0.48497 0.53992 0.0
C949 C 0.30846 0.50203 0.55817 0.0
N950 N 0.28134 0.54105 0.60807 0.0
N951 N 0.42944 0.47447 0.53785 0.0
C952 C 0.31562 0.53291 0.58561 0.0
C953 C 0.39213 0.49718 0.55043 0.0
N954 N 0.36579 0.5888 0.6123 0.0
N955 N 0.3396 0.45616 0.51305 0.0
H956 H 0.46318 0.48234 0.54488 0.0
H957 H 0.42712 0.44565 0.52231 0.0
H958 H 0.30733 0.44326 0.50641 0.0
H959 H 0.36519 0.44698 0.49619 0.0
H960 H 0.33836 0.6077 0.62185 0.0
H961 H 0.39791 0.6034 0.61725 0.0
H962 H 0.2863 0.55941 0.63043 0.0
H963 H 0.24965 0.52469 0.60661 0.0
C964 C 0.315 0.62983 0.78876 0.0
C965 C 0.3238 0.65006 0.82099 0.0
C966 C 0.37808 0.58924 0.83289 0.0
C967 C 0.35941 0.56214 0.80635 0.0
N968 N 0.32335 0.56251 0.7519 0.0
N969 N 0.36283 0.64636 0.87508 0.0
C970 C 0.33129 0.58411 0.78201 0.0
C971 C 0.35437 0.6285 0.84372 0.0
N972 N 0.2916 0.65443 0.76504 0.0
N973 N 0.42209 0.58261 0.84367 0.0
H974 H 0.34772 0.67648 0.884 0.0
H975 H 0.38263 0.62897 0.89294 0.0
H976 H 0.44501 0.56452 0.8287 0.0
H977 H 0.43784 0.6029 0.86221 0.0
H978 H 0.28481 0.64296 0.74067 0.0
H979 H 0.27969 0.68763 0.76965 0.0
H980 H 0.30507 0.57671 0.73196 0.0
H981 H 0.33706 0.53028 0.74633 0.0
C982 C 0.21946 0.5628 1.06044 0.0
C983 C 0.2145 0.54282 1.09252 0.0
C984 C 0.29851 0.54486 1.10083 0.0
C985 C 0.3031 0.56917 1.07003 0.0
N986 N 0.26616 0.60903 1.02405 0.0
N987 N 0.24804 0.51956 1.14524 0.0
C988 C 0.26307 0.58003 1.05072 0.0
C989 C 0.25376 0.53463 1.11309 0.0
N990 N 0.18239 0.56504 1.03906 0.0
N991 N 0.33661 0.53246 1.11908 0.0
H992 H 0.21608 0.51089 1.1549 0.0
H993 H 0.27425 0.51879 1.16328 0.0
H994 H 0.36979 0.5431 1.11386 0.0
H995 H 0.33573 0.50925 1.13877 0.0
H996 H 0.18478 0.57464 1.01399 0.0
H997 H 0.14983 0.55332 1.0455 0.0
H998 H 0.23761 0.62264 1.01162 0.0
H999 H 0.29711 0.62277 1.01601 0.0
C1000 C 0.79352 0.55921 1.07679 0.0
C1001 C 0.8354 0.55289 1.0954 0.0
C1002 C 0.84765 0.63619 1.09642 0.0
C1003 C 0.80678 0.64201 1.07718 0.0
N1004 N 0.7337 0.61198 1.05888 0.0
N1005 N 0.89443 0.58594 1.13107 0.0
C1006 C 0.77741 0.60439 1.07064 0.0
C1007 C 0.85967 0.59172 1.10805 0.0
N1008 N 0.77029 0.52287 1.0629 0.0
N1009 N 0.87628 0.67264 1.10197 0.0
H1010 H 0.90417 0.55381 1.13999 0.0
H1011 H 0.91064 0.61301 1.14362 0.0
H1012 H 0.86829 0.70579 1.09425 0.0
H1013 H 0.90927 0.66955 1.11216 0.0
H1014 H 0.74434 0.52663 1.04484 0.0
H1015 H 0.77789 0.48874 1.06732 0.0
H1016 H 0.70874 0.58648 1.0573 0.0
H1017 H 0.7209 0.64473 1.05406 0.0
C1018 C 0.71869 0.57639 0.84858 0.0
C1019 C 0.71233 0.54618 0.82065 0.0
C1020 C 0.7952 0.54584 0.81097 0.0
C1021 C 0.80183 0.5741 0.83994 0.0
N1022 N 0.77155 0.60679 0.89083 0.0
N1023 N 0.74559 0.49152 0.78205 0.0
C1024 C 0.76403 0.58605 0.86032 0.0
C1025 C 0.75099 0.52743 0.80405 0.0
N1026 N 0.68183 0.59822 0.86254 0.0
N1027 N 0.83013 0.53867 0.78882 0.0
H1028 H 0.71373 0.47648 0.77692 0.0
H1029 H 0.77324 0.47355 0.77189 0.0
H1030 H 0.86308 0.55193 0.79219 0.0
H1031 H 0.82524 0.52273 0.76549 0.0
H1032 H 0.68506 0.62421 0.88056 0.0
H1033 H 0.64814 0.59349 0.85402 0.0
H1034 H 0.74563 0.61246 0.90825 0.0
H1035 H 0.8045 0.61409 0.90002 0.0
C1036 C 0.77209 0.45794 0.59918 0.0
C1037 C 0.80046 0.44986 0.57089 0.0
C1038 C 0.80297 0.5324 0.56023 0.0
C1039 C 0.77696 0.54075 0.58978 0.0
N1040 N 0.74596 0.51237 0.64134 0.0
N1041 N 0.85281 0.47999 0.53016 0.0
C1042 C 0.76468 0.50371 0.61059 0.0
C1043 C 0.81915 0.48734 0.55329 0.0
N1044 N 0.75 0.42226 0.61399 0.0
N1045 N 0.80982 0.56647 0.5375 0.0
H1046 H 0.86596 0.44748 0.52475 0.0
H1047 H 0.87086 0.5065 0.51899 0.0
H1048 H 0.79847 0.60002 0.54086 0.0
H1049 H 0.8234 0.56044 0.51374 0.0
H1050 H 0.72501 0.42671 0.63227 0.0
H1051 H 0.75347 0.38833 0.60596 0.0
H1052 H 0.74013 0.487 0.65903 0.0
H1053 H 0.74074 0.54557 0.65048 0.0
C1054 C 0.85235 0.48235 0.34743 0.0
C1055 C 0.81319 0.50812 0.33731 0.0
C1056 C 0.8632 0.55968 0.30585 0.0
C1057 C 0.9012 0.53039 0.31237 0.0
N1058 N 0.93164 0.46133 0.33695 0.0
N1059 N 0.78219 0.57434 0.30759 0.0
C1060 C 0.89579 0.49123 0.33279 0.0
C1061 C 0.81884 0.54786 0.31716 0.0
N1062 N 0.84802 0.45006 0.37186 0.0
N1063 N 0.86796 0.59913 0.28818 0.0
H1064 H 0.74841 0.5684 0.31428 0.0
H1065 H 0.7857 0.60291 0.29225 0.0
H1066 H 0.89911 0.6111 0.27897 0.0
H1067 H 0.89911 0.6111 0.27897 0.0
H1068 H 0.87577 0.43295 0.38279 0.0
H1069 H 0.81692 0.44378 0.38378 0.0
H1070 H 0.92843 0.42944 0.34817 0.0
H1071 H 0.96406 0.4667 0.3268 0.0
C1072 C 0.75101 0.95144 0.81061 0.0
C1073 C 0.79138 0.94607 0.83052 0.0
C1074 C 0.80596 1.02884 0.82797 0.0
C1075 C 0.76554 1.03432 0.80755 0.0
N1076 N 0.70654 0.99947 0.77286 0.0
N1077 N 0.86288 0.97681 0.85158 0.0
C1078 C 0.74039 0.99505 0.79677 0.0
C1079 C 0.82065 0.98392 0.83701 0.0
N1080 N 0.72171 0.91525 0.80611 0.0
N1081 N 0.8287 0.06613 0.84093 0.0
H1082 H 0.87446 0.94453 0.85895 0.0
H1083 H 0.88818 1.00193 0.85344 0.0
H1084 H 0.81993 0.0999 0.83599 0.0
H1085 H 0.85423 0.06387 0.85941 0.0
H1086 H 0.68905 0.91825 0.79534 0.0
H1087 H 0.72858 0.88262 0.81541 0.0
H1088 H 0.69012 0.97172 0.76131 0.0
H1089 H 0.69779 1.03085 0.76219 0.0
C1090 C 0.81736 1.05186 1.06262 0.0
C1091 C 0.80709 1.00694 1.05008 0.0
C1092 C 0.88798 0.98455 1.05743 0.0
C1093 C 0.8979 1.02839 1.0712 0.0
N1094 N 0.87594 0.10725 1.07932 0.0
N1095 N 0.8358 0.93844 1.02353 0.0
C1096 C 0.86372 0.06314 1.07143 0.0
C1097 C 0.84356 0.97581 1.04373 0.0
N1098 N 0.78326 0.08346 1.0672 0.0
N1099 N 0.92046 0.95065 1.05853 0.0
H1100 H 0.80411 0.9327 1.01169 0.0
H1101 H 0.86173 0.91643 1.01543 0.0
H1102 H 0.95369 0.95587 1.06794 0.0
H1103 H 0.91341 0.91656 1.05246 0.0
H1104 H 0.78739 0.11316 1.08163 0.0
H1105 H 0.75058 0.08072 1.05666 0.0
H1106 H 0.85419 0.13532 1.07631 0.0
H1107 H 0.90934 0.11652 1.08635 0.0
C1108 C 0.86506 0.09206 0.29518 0.0
C1109 C 0.83718 0.0535 0.30217 0.0
C1110 C 0.786 0.10198 0.33586 0.0
C1111 C 0.81465 0.14017 0.32988 0.0
N1112 N 0.87578 0.17456 0.29854 0.0
N1113 N 0.76088 1.02747 0.3161 0.0
C1114 C 0.85234 0.13616 0.30768 0.0
C1115 C 0.79452 0.05993 0.31865 0.0
N1116 N 0.90425 0.08607 0.277 0.0
N1117 N 0.75064 0.10583 0.35805 0.0
H1118 H 0.76298 0.99928 0.3 0.0
H1119 H 0.72803 1.03195 0.32573 0.0
H1120 H 0.74233 0.13648 0.37029 0.0
H1121 H 0.73163 0.07791 0.36615 0.0
H1122 H 0.92964 0.11086 0.27472 0.0
H1123 H 0.9119 0.05529 0.26469 0.0
H1124 H 0.90041 0.17495 0.2798 0.0
H1125 H 0.86873 0.20707 0.30837 0.0
C1126 C 0.78945 1.02626 0.56384 0.0
C1127 C 0.79651 0.06971 0.54873 0.0
C1128 C 0.71436 0.08767 0.55479 0.0
C1129 C 0.70829 1.04609 0.57236 0.0
N1130 N 0.73939 0.97269 0.58961 0.0
N1131 N 0.76332 0.13343 0.5193 0.0
C1132 C 0.74521 1.01454 0.57541 0.0
C1133 C 0.758 0.09769 0.54084 0.0
N1134 N 0.8245 0.99546 0.56748 0.0
N1135 N 0.67912 0.11867 0.55296 0.0
H1136 H 0.79466 0.14032 0.5079 0.0
H1137 H 0.73618 0.15305 0.50999 0.0
H1138 H 0.64655 0.11239 0.56256 0.0
H1139 H 0.68288 0.15186 0.54407 0.0
H1140 H 0.82055 0.96451 0.58005 0.0
H1141 H 0.85605 0.99836 0.55578 0.0
H1142 H 0.70805 0.96038 0.59825 0.0
H1143 H 0.70805 0.96038 0.59825 0.0
C1144 C 0.35407 0.13111 0.58704 0.0
C1145 C 0.31287 0.13459 0.56769 0.0
C1146 C 0.29314 0.05549 0.582 0.0
C1147 C 0.33811 1.04922 0.59553 0.0
N1148 N 0.40759 0.08238 0.61785 0.0
N1149 N 0.24387 0.09997 0.54504 0.0
C1150 C 0.36728 0.08775 0.60032 0.0
C1151 C 0.28245 0.0968 0.56486 0.0
N1152 N 0.38022 0.16939 0.59278 0.0
N1153 N 0.25994 1.0233 0.58687 0.0
H1154 H 0.23419 0.13003 0.53284 0.0
H1155 H 0.22352 0.07185 0.53853 0.0
H1156 H 0.26446 0.99576 0.60298 0.0
H1157 H 0.22583 1.02749 0.57926 0.0
H1158 H 0.40877 0.17062 0.60872 0.0
H1159 H 0.37227 0.20124 0.58251 0.0
H1160 H 0.43355 0.10674 0.61943 0.0
H1161 H 0.41481 1.05265 0.63131 0.0
C1162 C 0.22336 0.07695 0.34552 0.0
C1163 C 0.21619 1.04604 0.31834 0.0
C1164 C 0.29976 1.03623 0.31291 0.0
C1165 C 0.30709 0.07223 0.33705 0.0
N1166 N 0.2744 0.13082 0.37318 0.0
N1167 N 0.24648 0.99786 0.27445 0.0
C1168 C 0.26845 0.09335 0.35267 0.0
C1169 C 0.25411 1.02599 0.30168 0.0
N1170 N 0.18696 0.09091 0.36453 0.0
N1171 N 0.33587 1.01141 0.30054 0.0
H1172 H 0.21373 0.98738 0.26672 0.0
H1173 H 0.27219 0.98708 0.25818 0.0
H1174 H 0.37017 1.01799 0.30594 0.0
H1175 H 0.3318 0.98135 0.28651 0.0
H1176 H 0.1907 0.10881 0.38718 0.0
H1177 H 0.1531 0.08139 0.3592 0.0
H1178 H 0.24739 0.1513 0.38153 0.0
H1179 H 0.30647 0.14379 0.38002 0.0
C1180 C 0.24614 0.99911 1.10536 0.0
C1181 C 0.26239 1.03548 1.08519 0.0
C1182 C 0.3066 0.98042 1.05158 0.0
C1183 C 0.28679 0.94379 1.06932 0.0
N1184 N 0.233 0.91729 1.11041 0.0
N1185 N 0.29528 0.0574 1.03224 0.0
C1186 C 0.25557 0.95282 1.09577 0.0
C1187 C 0.28956 1.02541 1.05659 0.0
N1188 N 0.22104 1.00875 1.13338 0.0
N1189 N 0.34167 0.97229 1.02974 0.0
H1190 H 0.27944 0.08932 1.03313 0.0
H1191 H 0.31031 1.04994 1.00917 0.0
H1192 H 0.35526 0.93964 1.02548 0.0
H1193 H 0.3601 0.99853 1.01855 0.0
H1194 H 0.21291 0.98445 1.15134 0.0
H1195 H 0.21054 1.04179 1.13981 0.0
H1196 H 0.20592 0.92166 1.12701 0.0
H1197 H 0.23899 0.88305 1.10408 0.0
C1198 C 0.37895 1.01176 0.83901 0.0
C1199 C 0.38629 1.04615 0.81472 0.0
C1200 C 0.30306 0.06167 0.8123 0.0
C1201 C 0.29583 1.02638 0.8363 0.0
N1202 N 0.32805 0.98083 0.88074 0.0
N1203 N 0.35719 0.11091 0.78393 0.0
C1204 C 0.33431 1.00583 0.85234 0.0
C1205 C 0.34889 0.07346 0.8033 0.0
N1206 N 0.41396 0.98289 0.84804 0.0
N1207 N 0.26663 0.08184 0.79619 0.0
H1208 H 0.38996 0.11966 0.77585 0.0
H1209 H 0.33244 0.1356 0.77833 0.0
H1210 H 0.23258 0.07733 0.80284 0.0
H1211 H 0.26994 0.10207 0.77495 0.0
H1212 H 0.40919 0.95399 0.86274 0.0
H1213 H 0.44703 0.98521 0.83838 0.0
H1214 H 0.35504 0.96822 0.89542 0.0
H1215 H 0.2959 0.97759 0.89171 0.0
C1216 C 0.30715 0.21506 0.22783 0.0
C1217 C 0.32767 0.17496 0.24214 0.0
C1218 C 0.28781 0.12976 1.19678 0.0
C1219 C 0.26272 0.16867 1.18498 0.0
N1220 N 0.24415 0.24817 1.19493 0.0
N1221 N 0.32436 0.09209 0.24373 0.0
C1222 C 0.27134 0.21128 0.20213 0.0
C1223 C 0.31421 0.1319 0.22754 0.0
N1224 N 0.32306 0.25714 0.23762 0.0
N1225 N 0.289 0.09066 1.17776 0.0
H1226 H 0.34083 0.09104 0.26697 0.0
H1227 H 0.31124 0.06041 0.23606 0.0
H1228 H 0.27303 0.08797 1.15444 0.0
H1229 H 0.31067 0.06312 1.18314 0.0
H1230 H 0.31303 0.28746 0.22602 0.0
H1231 H 0.34995 0.26135 0.25492 0.0
H1232 H 0.24529 0.27871 0.2087 0.0
H1233 H 0.21713 0.24662 1.17749 0.0
C1234 C 0.66845 0.54745 0.43315 0.0
C1235 C 0.67815 0.49921 0.43621 0.0
C1236 C 0.68148 0.51174 0.49856 0.0
C1237 C 0.66971 0.55912 0.49522 0.0
N1238 N 0.64293 0.61904 0.45916 0.0
N1239 N 0.68464 0.43504 0.47357 0.0
C1240 C 0.66064 0.57585 0.46244 0.0
C1241 C 0.68227 0.48142 0.46948 0.0
N1242 N 0.66898 0.56746 0.40228 0.0
N1243 N 0.69322 0.49564 0.52963 0.0
H1244 H 0.68432 0.41193 0.45341 0.0
H1245 H 0.68254 0.41914 0.49681 0.0
H1246 H 0.6911 0.51562 0.5514 0.0
H1247 H 0.70764 0.46347 0.53366 0.0
H1248 H 0.66911 0.60279 0.39884 0.0
H1249 H 0.67315 0.54954 0.37996 0.0
H1250 H 0.62976 0.63177 0.43664 0.0
H1251 H 0.63713 0.64071 0.47972 0.0
C1252 C 0.29998 0.95871 0.73025 0.0
C1253 C 0.28435 0.91586 0.74325 0.0
C1254 C 0.34061 0.87805 0.70446 0.0
C1255 C 0.35182 0.92061 0.68889 0.0
N1256 N 0.33332 1.00116 0.68465 0.0
N1257 N 0.28699 0.83365 0.73788 0.0
C1258 C 0.32913 0.96069 0.70128 0.0
C1259 C 0.30422 0.87527 0.72907 0.0
N1260 N 0.28924 0.99848 0.74662 0.0
N1261 N 0.36598 0.84008 0.69661 0.0
H1262 H 0.26012 0.83015 0.75476 0.0
H1263 H 0.29614 0.80298 0.72611 0.0
H1264 H 0.3932 0.84092 0.67979 0.0
H1265 H 0.3633 0.80913 0.70923 0.0
H1266 H 0.30427 1.02984 0.7411 0.0
H1267 H 0.26951 0.99962 0.76809 0.0
H1268 H 0.31204 1.02933 0.68901 0.0
H1269 H 0.35523 1.00592 0.66465 0.0
C1270 C 0.94742 0.54315 0.93632 0.0
C1271 C 0.93431 0.59074 0.93885 0.0
C1272 C 0.928 0.57953 1.00085 0.0
C1273 C 0.94298 0.53285 0.99836 0.0
N1274 N 0.97626 0.47413 0.96375 0.0
N1275 N 0.92355 0.65545 0.976 0.0
C1276 C 0.95532 0.51602 0.96606 0.0
C1277 C 0.92766 0.60907 0.97186 0.0
N1278 N 0.94999 0.52232 0.90548 0.0
N1279 N 0.91248 0.59578 1.0309 0.0
H1280 H 0.92515 0.67831 0.95609 0.0
H1281 H 0.92362 0.67178 0.99941 0.0
H1282 H 0.91391 0.57672 1.0528 0.0
H1283 H 0.8953 0.6269 1.03358 0.0
H1284 H 0.9532 0.48703 0.90214 0.0
H1285 H 0.94416 0.53888 0.88293 0.0
H1286 H 0.99172 0.46183 0.94196 0.0
H1287 H 0.98241 0.45347 0.9846 0.0
C1288 C 0.82767 0.9604 1.19423 0.0
C1289 C 0.84786 0.92073 0.20953 0.0
C1290 C 0.80026 0.87351 1.16915 0.0
C1291 C 0.78393 0.91331 1.15212 0.0
N1292 N 0.79603 0.99412 1.14362 0.0
N1293 N 0.8596 0.839 0.20454 0.0
C1294 C 0.80166 0.95647 1.16335 0.0
C1295 C 0.8357 0.87714 1.195 0.0
N1296 N 0.8308 1.00227 0.2097 0.0
N1297 N 0.78108 0.83202 1.1614 0.0
H1298 H 0.88721 0.84023 0.22147 0.0
H1299 H 0.85561 0.80716 1.19281 0.0
H1300 H 0.75531 0.82806 1.14315 0.0
H1301 H 0.78762 0.80247 1.17516 0.0
H1302 H 0.8122 1.03075 0.20158 0.0
H1303 H 0.84741 1.00785 0.23255 0.0
H1304 H 0.81239 1.02526 1.14858 0.0
H1305 H 0.77993 0.9927 1.12018 0.0
C1306 C 0.47089 0.56908 0.95195 0.0
C1307 C 0.42703 0.57754 0.96688 0.0
C1308 C 0.39272 0.52926 0.9211 0.0
C1309 C 0.43683 0.51532 0.90895 0.0
N1310 N 0.51884 0.51887 0.91747 0.0
N1311 N 0.34812 0.55263 0.96927 0.0
C1312 C 0.47615 0.53453 0.92573 0.0
C1313 C 0.38862 0.55393 0.9524 0.0
N1314 N 0.50752 0.59541 0.96167 0.0
N1315 N 0.3541 0.52175 0.90197 0.0
H1316 H 0.3444 0.5667 0.99318 0.0
H1317 H 0.3204 0.53241 0.96146 0.0
H1318 H 0.35465 0.50752 0.8779 0.0
H1319 H 0.32213 0.53542 0.90818 0.0
H1320 H 0.53909 0.59438 0.9496 0.0
H1321 H 0.50498 0.62173 0.97947 0.0
H1322 H 0.54854 0.52774 0.93088 0.0
H1323 H 0.52403 0.49352 0.89923 0.0
C1324 C 0.76179 0.20754 0.69427 0.0
C1325 C 0.74822 0.16403 0.70739 0.0
C1326 C 0.79118 0.12819 0.66016 0.0
C1327 C 0.81129 0.17082 0.65057 0.0
N1328 N 0.81838 0.25142 0.66331 0.0
N1329 N 0.76226 0.08232 0.70546 0.0
C1330 C 0.79708 0.21063 0.66892 0.0
C1331 C 0.76621 0.12428 0.69097 0.0
N1332 N 0.73972 0.24625 0.70501 0.0
N1333 N 0.79374 0.09115 0.63909 0.0
H1334 H 0.74791 0.07736 0.72893 0.0
H1335 H 0.77855 0.05324 0.69596 0.0
H1336 H 0.8081 0.09293 0.6154 0.0
H1337 H 0.77617 0.06065 0.64322 0.0
H1338 H 0.74478 0.27829 0.69436 0.0
H1339 H 0.71248 0.24548 0.72179 0.0
H1340 H 0.81317 0.2805 0.6782 0.0
H1341 H 0.84453 0.25504 0.64586 0.0
C1342 C 0.13263 0.50004 0.44144 0.0
C1343 C 0.17601 0.49158 0.45772 0.0
C1344 C 0.21155 0.54116 0.41434 0.0
C1345 C 0.16779 0.55439 0.40067 0.0
N1346 N 0.08559 0.54909 0.40522 0.0
N1347 N 0.25536 0.5148 0.46252 0.0
C1348 C 0.12807 0.53427 0.4153 0.0
C1349 C 0.21497 0.51496 0.44477 0.0
N1350 N 0.09568 0.47412 0.45011 0.0
N1351 N 0.25067 0.55167 0.39751 0.0
H1352 H 0.25925 0.4981 0.48524 0.0
H1353 H 0.28324 0.53549 0.45666 0.0
H1354 H 0.25054 0.56939 0.375 0.0
H1355 H 0.2828 0.53823 0.40389 0.0
H1356 H 0.06435 0.4748 0.43719 0.0
H1357 H 0.09778 0.4485 0.46816 0.0
H1358 H 0.05532 0.53988 0.41708 0.0
H1359 H 0.08089 0.57396 0.38684 0.0
C1360 C 0.74265 0.66531 0.71979 0.0
C1361 C 0.7603 0.67213 0.6869 0.0
C1362 C 0.83601 0.69206 0.71424 0.0
C1363 C 0.81979 0.67983 0.74651 0.0
N1364 N 0.75707 0.65042 0.77905 0.0
N1365 N 0.82751 0.68807 0.65357 0.0
C1366 C 0.77287 0.66549 0.74894 0.0
C1367 C 0.80789 0.68481 0.68445 0.0
N1368 N 0.69623 0.66096 0.72359 0.0
N1369 N 0.87803 0.71262 0.71205 0.0
H1370 H 0.80925 0.68502 0.63114 0.0
H1371 H 0.86283 0.69048 0.65006 0.0
H1372 H 0.89932 0.71847 0.73296 0.0
H1373 H 0.8899 0.72792 0.69027 0.0
H1374 H 0.68017 0.66107 0.74684 0.0
H1375 H 0.673 0.6621 0.70345 0.0
H1376 H 0.72567 0.63397 0.78183 0.0
H1377 H 0.77661 0.65139 0.80108 0.0
C1378 C 0.17294 0.98879 0.96593 0.0
C1379 C 0.16853 1.00675 0.93276 0.0
C1380 C 0.1511 0.08333 0.95934 0.0
C1381 C 0.16052 0.06632 0.99213 0.0
N1382 N 0.18186 1.00188 1.0263 0.0
N1383 N 0.15345 0.07333 0.89858 0.0
C1384 C 0.17152 1.01869 0.9952 0.0
C1385 C 0.15704 0.05453 0.92979 0.0
N1386 N 0.17592 0.94235 0.96967 0.0
N1387 N 0.13485 0.12715 0.95652 0.0
H1388 H 0.15485 0.05427 0.87648 0.0
H1389 H 0.15141 0.10835 0.8942 0.0
H1390 H 0.13045 0.14878 0.97729 0.0
H1391 H 0.12195 0.14103 0.93434 0.0
H1392 H 0.17384 0.92597 0.99272 0.0
H1393 H 0.17589 0.9195 0.94935 0.0
H1394 H 0.19661 0.96985 1.03031 0.0
H1395 H 0.17768 1.02097 1.04829 0.0
C1396 C 0.83997 0.37517 0.20242 0.0
C1397 C 0.84863 0.41883 1.18766 0.0
C1398 C 0.79683 0.4532 0.23088 0.0
C1399 C 0.7843 0.40914 0.24328 0.0
N1400 N 0.7908 0.32736 0.23698 0.0
N1401 N 0.82643 0.49867 1.18542 0.0
C1402 C 0.80524 0.36997 0.22796 0.0
C1403 C 0.82471 0.45752 0.20138 0.0
N1404 N 0.86644 0.33859 1.19304 0.0
N1405 N 0.78413 0.49177 0.24819 0.0
H1406 H 0.84642 0.50446 1.16452 0.0
H1407 H 0.80473 0.52607 1.1911 0.0
H1408 H 0.76427 0.49126 0.26971 0.0
H1409 H 0.79708 0.5242 0.24312 0.0
H1410 H 0.86564 0.30701 0.20495 0.0
H1411 H 0.89261 0.34114 1.17547 0.0
H1412 H 0.80046 0.29738 0.2245 0.0
H1413 H 0.76575 0.32228 0.25512 0.0
C1414 C 0.39058 1.04668 0.4858 0.0
C1415 C 0.43329 1.02556 0.49518 0.0
C1416 C 0.47026 0.07298 0.45096 0.0
C1417 C 0.42672 0.08854 0.43807 0.0
N1418 N 0.34418 0.08406 0.44271 0.0
N1419 N 0.51353 1.01606 0.48298 0.0
C1420 C 0.38664 0.07392 0.45564 0.0
C1421 C 0.47296 1.03818 0.47668 0.0
N1422 N 0.3534 1.04125 0.50599 0.0
N1423 N 0.50955 0.0936 0.44039 0.0
H1424 H 0.51702 0.99091 0.5013 0.0
H1425 H 0.54244 1.01962 0.46804 0.0
H1426 H 0.50937 0.12145 0.42421 0.0
H1427 H 0.54184 0.08715 0.45095 0.0
H1428 H 0.32285 0.05947 0.50339 0.0
H1429 H 0.35418 1.02138 0.52749 0.0
H1430 H 0.31324 0.07751 0.45446 0.0
H1431 H 0.33911 0.09415 0.41803 0.0
C1432 C 0.36595 0.4188 0.67765 0.0
C1433 C 0.3479 0.41731 0.71083 0.0
C1434 C 0.27086 0.39931 0.68446 0.0
C1435 C 0.28785 0.40559 0.65146 0.0
N1436 N 0.35253 0.42638 0.6174 0.0
N1437 N 0.27918 0.41272 0.74445 0.0
C1438 C 0.33571 0.41657 0.64837 0.0
C1439 C 0.2993 0.40908 0.71371 0.0
N1440 N 0.41254 0.41993 0.6738 0.0
N1441 N 0.2275 0.3822 0.68803 0.0
H1442 H 0.29689 0.42235 0.76614 0.0
H1443 H 0.24383 0.41152 0.74806 0.0
H1444 H 0.20591 0.37464 0.6676 0.0
H1445 H 0.21456 0.37099 0.7108 0.0
H1446 H 0.42864 0.41547 0.65076 0.0
H1447 H 0.43555 0.42111 0.69407 0.0
H1448 H 0.38495 0.44029 0.61363 0.0
H1449 H 0.33302 0.42359 0.59544 0.0
C1450 C 0.94233 1.03745 0.46567 0.0
C1451 C 0.93391 0.08584 0.46266 0.0
C1452 C 0.93652 0.07487 0.40006 0.0
C1453 C 0.94286 1.02645 0.40331 0.0
N1454 N 0.94554 0.96138 0.43968 0.0
N1455 N 0.93124 0.15101 0.42619 0.0
C1456 C 0.94422 1.00797 0.43629 0.0
C1457 C 0.93294 0.10443 0.42951 0.0
N1458 N 0.95002 1.0191 0.49668 0.0
N1459 N 0.93156 0.09249 0.36852 0.0
H1460 H 0.92958 0.17345 0.44671 0.0
H1461 H 0.935 0.16807 0.40357 0.0
H1462 H 0.93596 0.07282 0.34679 0.0
H1463 H 0.92101 0.12581 0.36353 0.0
H1464 H 0.96272 0.98617 0.5005 0.0
H1465 H 0.9474 1.03747 0.51895 0.0
H1466 H 0.93888 0.94459 0.46207 0.0
H1467 H 0.95046 0.93895 0.41944 0.0
C1468 C 0.30745 0.68296 0.21683 0.0
C1469 C 0.25906 0.67347 0.21283 0.0
C1470 C 0.27186 0.67184 1.15065 0.0
C1471 C 0.31948 0.68303 1.15488 0.0
N1472 N 0.3792 0.70911 1.19235 0.0
N1473 N 0.19482 0.67007 1.17418 0.0
C1474 C 0.33605 0.69134 1.1881 0.0
C1475 C 0.24135 0.67093 1.17918 0.0
N1476 N 0.32748 0.68198 0.24803 0.0
N1477 N 0.25566 0.6603 1.11935 0.0
H1478 H 0.17152 0.67044 1.19389 0.0
H1479 H 0.17922 0.67403 1.1507 0.0
H1480 H 0.27569 0.66161 1.09789 0.0
H1481 H 0.22325 0.64641 1.11489 0.0
H1482 H 0.36293 0.68121 0.25199 0.0
H1483 H 0.30948 0.67861 0.27012 0.0
H1484 H 0.39181 0.72167 0.21526 0.0
H1485 H 0.40083 0.71575 1.17224 0.0
C1486 C 0.63084 1.00641 0.94285 0.0
C1487 C 0.67417 0.99493 0.958 0.0
C1488 C 0.7111 1.04447 0.91522 0.0
C1489 C 0.6676 0.06014 0.90261 0.0
N1490 N 0.58543 0.05941 0.90878 0.0
N1491 N 0.75549 1.01175 0.96097 0.0
C1492 C 0.62735 1.04179 0.91763 0.0
C1493 C 0.71417 1.01625 0.94469 0.0
N1494 N 0.5928 0.98212 0.95159 0.0
N1495 N 0.75018 0.05444 0.89815 0.0
H1496 H 0.76048 0.99126 0.98183 0.0
H1497 H 0.78413 1.0316 0.95551 0.0
H1498 H 0.75044 0.07439 0.8767 0.0
H1499 H 0.7818 1.03903 0.9033 0.0
H1500 H 0.56113 0.98508 0.93931 0.0
H1501 H 0.59409 0.95542 0.96882 0.0
H1502 H 0.55513 1.05147 0.92108 0.0
H1503 H 0.5815 0.08546 0.8912 0.0
loop_
_geom_bond_atom_site_label_1
_geom_bond_atom_site_label_2
_geom_bond_distance
_geom_bond_site_symmetry_2
_ccdc_geom_bond_type
Sm0 C2 2.846 . S
Sm0 O20 2.543 . S
Sm0 O21 2.450 . S
Sm0 O22 2.681 . S
Sm0 O23 2.464 . S
Sm0 O24 2.396 . S
Sm0 O28 2.386 . S
Sm0 O31 2.408 . S
Sm1 C11 2.846 . S
Sm1 O22 2.386 . S
Sm1 O25 2.408 . S
Sm1 O26 2.543 . S
Sm1 O27 2.450 . S
Sm1 O28 2.681 . S
Sm1 O29 2.464 . S
Sm1 O30 2.396 . S
C2 Sm0 2.846 . S
C2 C3 1.506 . S
C2 O20 1.261 . S
C2 O21 1.242 . S
C3 C2 1.506 . S
C3 C4 1.358 . S
C3 C8 1.382 . S
C4 C3 1.358 . S
C4 C5 1.385 . S
C4 H32 0.930 . S
C5 C4 1.385 . S
C5 C6 1.395 . S
C5 H33 0.929 . S
C6 C5 1.395 . S
C6 C7 1.335 . S
C7 C6 1.335 . S
C7 C8 1.398 . S
C7 H34 0.930 . S
C8 C3 1.382 . S
C8 C7 1.398 . S
C8 H35 0.929 . S
C9 O22 1.271 . S
C9 O23 1.251 . S
C10 O24 1.252 . S
C10 O25 1.272 . S
C11 Sm1 2.846 . S
C11 C12 1.506 . S
C11 O26 1.261 . S
C11 O27 1.242 . S
C12 C11 1.506 . S
C12 C13 1.358 . S
C12 C17 1.382 1_545 S
C13 C12 1.358 . S
C13 C14 1.385 . S
C13 H36 0.930 . S
C14 C13 1.385 . S
C14 C15 1.395 1_545 S
C14 H37 0.929 1_554 S
C15 C14 1.395 1_565 S
C15 C16 1.335 . S
C16 C15 1.335 . S
C16 C17 1.398 . S
C16 H38 0.930 . S
C17 C12 1.382 1_565 S
C17 C16 1.398 . S
C17 H39 0.929 . S
C18 O28 1.271 . S
C18 O29 1.251 . S
C19 O30 1.252 . S
C19 O31 1.272 . S
O20 Sm0 2.543 . S
O20 C2 1.261 . S
O21 Sm0 2.450 . S
O21 C2 1.242 . S
O22 Sm0 2.681 . S
O22 Sm1 2.386 . S
O22 C9 1.271 . S
O23 Sm0 2.464 . S
O23 C9 1.251 . S
O24 Sm0 2.396 . S
O24 C10 1.252 . S
O25 Sm1 2.408 . S
O25 C10 1.272 . S
O26 Sm1 2.543 . S
O26 C11 1.261 . S
O27 Sm1 2.450 . S
O27 C11 1.242 . S
O28 Sm0 2.386 . S
O28 Sm1 2.681 . S
O28 C18 1.271 . S
O29 Sm1 2.464 . S
O29 C18 1.251 . S
O30 Sm1 2.396 . S
O30 C19 1.252 . S
O31 Sm0 2.408 . S
O31 C19 1.272 . S
H32 C4 0.930 . S
H33 C5 0.929 . S
H34 C7 0.930 . S
H35 C8 0.929 . S
H36 C13 0.930 . S
H37 C14 0.929 1_556 S
H38 C16 0.930 . S
H39 C17 0.929 . S
Sm40 C42 2.846 . S
Sm40 O60 2.543 . S
Sm40 O61 2.450 . S
Sm40 O62 2.681 . S
Sm40 O63 2.464 . S
Sm40 O64 2.396 . S
Sm40 O68 2.386 . S
Sm40 O71 2.408 . S
Sm41 C51 2.846 . S
Sm41 O62 2.386 . S
Sm41 O65 2.408 . S
Sm41 O66 2.543 . S
Sm41 O67 2.450 . S
Sm41 O68 2.681 . S
Sm41 O69 2.464 . S
Sm41 O70 2.396 . S
C42 Sm40 2.846 . S
C42 C43 1.506 . S
C42 O60 1.261 . S
C42 O61 1.242 . S
C43 C42 1.506 . S
C43 C44 1.358 . S
C43 C48 1.382 . S
C44 C43 1.358 . S
C44 C45 1.385 . S
C44 H72 0.930 . S
C45 C44 1.385 . S
C45 C46 1.395 . S
C45 H73 0.929 . S
C46 C45 1.395 . S
C46 C47 1.335 . S
C47 C46 1.335 . S
C47 C48 1.398 . S
C47 H74 0.930 . S
C48 C43 1.382 . S
C48 C47 1.398 . S
C48 H75 0.929 . S
C49 O62 1.271 . S
C49 O63 1.251 . S
C50 O64 1.252 . S
C50 O65 1.272 . S
C51 Sm41 2.846 . S
C51 C52 1.506 . S
C51 O66 1.261 . S
C51 O67 1.242 . S
C52 C51 1.506 . S
C52 C53 1.358 . S
C52 C57 1.382 . S
C53 C52 1.358 . S
C53 C54 1.385 . S
C53 H76 0.930 . S
C54 C53 1.385 . S
C54 C55 1.395 . S
C54 H77 0.929 . S
C55 C54 1.395 . S
C55 C56 1.335 . S
C56 C55 1.335 . S
C56 C57 1.398 . S
C56 H78 0.930 . S
C57 C52 1.382 . S
C57 C56 1.398 . S
C57 H79 0.929 . S
C58 O68 1.271 . S
C58 O69 1.251 . S
C59 O70 1.252 . S
C59 O71 1.272 . S
O60 Sm40 2.543 . S
O60 C42 1.261 . S
O61 Sm40 2.450 . S
O61 C42 1.242 . S
O62 Sm40 2.681 . S
O62 Sm41 2.386 . S
O62 C49 1.271 . S
O63 Sm40 2.464 . S
O63 C49 1.251 . S
O64 Sm40 2.396 . S
O64 C50 1.252 . S
O65 Sm41 2.408 . S
O65 C50 1.272 . S
O66 Sm41 2.543 . S
O66 C51 1.261 . S
O67 Sm41 2.450 . S
O67 C51 1.242 . S
O68 Sm40 2.386 . S
O68 Sm41 2.681 . S
O68 C58 1.271 . S
O69 Sm41 2.464 . S
O69 C58 1.251 . S
O70 Sm41 2.396 . S
O70 C59 1.252 . S
O71 Sm40 2.408 . S
O71 C59 1.272 . S
H72 C44 0.930 . S
H73 C45 0.929 . S
H74 C47 0.930 . S
H75 C48 0.929 . S
H76 C53 0.930 . S
H77 C54 0.929 . S
H78 C56 0.930 . S
H79 C57 0.929 . S
Sm80 C82 2.846 . S
Sm80 O100 2.543 . S
Sm80 O101 2.450 . S
Sm80 O102 2.681 . S
Sm80 O103 2.464 . S
Sm80 O104 2.396 . S
Sm80 O108 2.386 . S
Sm80 O111 2.408 . S
Sm81 C91 2.846 . S
Sm81 O102 2.386 . S
Sm81 O105 2.408 . S
Sm81 O106 2.543 . S
Sm81 O107 2.450 . S
Sm81 O108 2.681 . S
Sm81 O109 2.464 . S
Sm81 O110 2.396 . S
C82 Sm80 2.846 . S
C82 C83 1.506 . S
C82 O100 1.261 . S
C82 O101 1.242 . S
C83 C82 1.506 . S
C83 C84 1.358 . S
C83 C88 1.382 . S
C84 C83 1.358 . S
C84 C85 1.385 . S
C84 H112 0.930 . S
C85 C84 1.385 . S
C85 C86 1.395 . S
C85 H113 0.929 . S
C86 C85 1.395 . S
C86 C87 1.335 . S
C87 C86 1.335 . S
C87 C88 1.398 . S
C87 H114 0.930 . S
C88 C83 1.382 . S
C88 C87 1.398 . S
C88 H115 0.929 . S
C89 O102 1.271 . S
C89 O103 1.251 . S
C90 O104 1.252 . S
C90 O105 1.272 . S
C91 Sm81 2.846 . S
C91 C92 1.506 . S
C91 O106 1.261 . S
C91 O107 1.242 . S
C92 C91 1.506 . S
C92 C93 1.358 . S
C92 C97 1.382 1_565 S
C93 C92 1.358 . S
C93 C94 1.385 . S
C93 H116 0.930 . S
C94 C93 1.385 . S
C94 C95 1.395 1_565 S
C94 H117 0.929 . S
C95 C94 1.395 1_545 S
C95 C96 1.335 . S
C96 C95 1.335 . S
C96 C97 1.398 . S
C96 H118 0.930 . S
C97 C92 1.382 1_545 S
C97 C96 1.398 . S
C97 H119 0.929 . S
C98 O108 1.271 . S
C98 O109 1.251 . S
C99 O110 1.252 . S
C99 O111 1.272 . S
O100 Sm80 2.543 . S
O100 C82 1.261 . S
O101 Sm80 2.450 . S
O101 C82 1.242 . S
O102 Sm80 2.681 . S
O102 Sm81 2.386 . S
O102 C89 1.271 . S
O103 Sm80 2.464 . S
O103 C89 1.251 . S
O104 Sm80 2.396 . S
O104 C90 1.252 . S
O105 Sm81 2.408 . S
O105 C90 1.272 . S
O106 Sm81 2.543 . S
O106 C91 1.261 . S
O107 Sm81 2.450 . S
O107 C91 1.242 . S
O108 Sm80 2.386 . S
O108 Sm81 2.681 . S
O108 C98 1.271 . S
O109 Sm81 2.464 . S
O109 C98 1.251 . S
O110 Sm81 2.396 . S
O110 C99 1.252 . S
O111 Sm80 2.408 . S
O111 C99 1.272 . S
H112 C84 0.930 . S
H113 C85 0.929 . S
H114 C87 0.930 . S
H115 C88 0.929 . S
H116 C93 0.930 . S
H117 C94 0.929 . S
H118 C96 0.930 . S
H119 C97 0.929 . S
Sm120 C122 2.846 1_655 S
Sm120 O140 2.543 . S
Sm120 O141 2.450 1_655 S
Sm120 O142 2.681 . S
Sm120 O143 2.464 . S
Sm120 O144 2.396 . S
Sm120 O148 2.386 . S
Sm120 O151 2.408 . S
Sm121 C131 2.846 . S
Sm121 O142 2.386 . S
Sm121 O145 2.408 . S
Sm121 O146 2.543 . S
Sm121 O147 2.450 . S
Sm121 O148 2.681 . S
Sm121 O149 2.464 . S
Sm121 O150 2.396 . S
C122 Sm120 2.846 1_455 S
C122 C123 1.506 . S
C122 O140 1.261 1_455 S
C122 O141 1.242 . S
C123 C122 1.506 . S
C123 C124 1.358 . S
C123 C128 1.382 . S
C124 C123 1.358 . S
C124 C125 1.385 . S
C124 H152 0.930 1_455 S
C125 C124 1.385 . S
C125 C126 1.395 . S
C125 H153 0.929 . S
C126 C125 1.395 . S
C126 C127 1.335 . S
C127 C126 1.335 . S
C127 C128 1.398 . S
C127 H154 0.930 . S
C128 C123 1.382 . S
C128 C127 1.398 . S
C128 H155 0.929 . S
C129 O142 1.271 . S
C129 O143 1.251 . S
C130 O144 1.252 . S
C130 O145 1.272 . S
C131 Sm121 2.846 . S
C131 C132 1.506 . S
C131 O146 1.261 . S
C131 O147 1.242 . S
C132 C131 1.506 . S
C132 C133 1.358 . S
C132 C137 1.382 . S
C133 C132 1.358 . S
C133 C134 1.385 . S
C133 H156 0.930 . S
C134 C133 1.385 . S
C134 C135 1.395 . S
C134 H157 0.929 . S
C135 C134 1.395 . S
C135 C136 1.335 . S
C136 C135 1.335 . S
C136 C137 1.398 . S
C136 H158 0.930 . S
C137 C132 1.382 . S
C137 C136 1.398 . S
C137 H159 0.929 . S
C138 O148 1.271 . S
C138 O149 1.251 . S
C139 O150 1.252 . S
C139 O151 1.272 . S
O140 Sm120 2.543 . S
O140 C122 1.261 1_655 S
O141 Sm120 2.450 1_455 S
O141 C122 1.242 . S
O142 Sm120 2.681 . S
O142 Sm121 2.386 . S
O142 C129 1.271 . S
O143 Sm120 2.464 . S
O143 C129 1.251 . S
O144 Sm120 2.396 . S
O144 C130 1.252 . S
O145 Sm121 2.408 . S
O145 C130 1.272 . S
O146 Sm121 2.543 . S
O146 C131 1.261 . S
O147 Sm121 2.450 . S
O147 C131 1.242 . S
O148 Sm120 2.386 . S
O148 Sm121 2.681 . S
O148 C138 1.271 . S
O149 Sm121 2.464 . S
O149 C138 1.251 . S
O150 Sm121 2.396 . S
O150 C139 1.252 . S
O151 Sm120 2.408 . S
O151 C139 1.272 . S
H152 C124 0.930 1_655 S
H153 C125 0.929 . S
H154 C127 0.930 . S
H155 C128 0.929 . S
H156 C133 0.930 . S
H157 C134 0.929 . S
H158 C136 0.930 . S
H159 C137 0.929 . S
Sm160 C162 2.846 . S
Sm160 O180 2.543 . S
Sm160 O181 2.450 . S
Sm160 O182 2.681 . S
Sm160 O183 2.464 . S
Sm160 O184 2.396 . S
Sm160 O188 2.386 . S
Sm160 O191 2.408 . S
Sm161 C171 2.846 . S
Sm161 O182 2.386 . S
Sm161 O185 2.408 . S
Sm161 O186 2.543 . S
Sm161 O187 2.450 . S
Sm161 O188 2.681 . S
Sm161 O189 2.464 . S
Sm161 O190 2.396 . S
C162 Sm160 2.846 . S
C162 C163 1.506 . S
C162 O180 1.261 . S
C162 O181 1.242 . S
C163 C162 1.506 . S
C163 C164 1.358 . S
C163 C168 1.382 1_565 S
C164 C163 1.358 . S
C164 C165 1.385 . S
C164 H192 0.930 . S
C165 C164 1.385 . S
C165 C166 1.395 1_565 S
C165 H193 0.929 1_556 S
C166 C165 1.395 1_545 S
C166 C167 1.335 . S
C167 C166 1.335 . S
C167 C168 1.398 . S
C167 H194 0.930 . S
C168 C163 1.382 1_545 S
C168 C167 1.398 . S
C168 H195 0.929 . S
C169 O182 1.271 . S
C169 O183 1.251 . S
C170 O184 1.252 . S
C170 O185 1.272 . S
C171 Sm161 2.846 . S
C171 C172 1.506 . S
C171 O186 1.261 . S
C171 O187 1.242 . S
C172 C171 1.506 . S
C172 C173 1.358 . S
C172 C177 1.382 . S
C173 C172 1.358 . S
C173 C174 1.385 . S
C173 H196 0.930 . S
C174 C173 1.385 . S
C174 C175 1.395 . S
C174 H197 0.929 . S
C175 C174 1.395 . S
C175 C176 1.335 . S
C176 C175 1.335 . S
C176 C177 1.398 . S
C176 H198 0.930 . S
C177 C172 1.382 . S
C177 C176 1.398 . S
C177 H199 0.929 . S
C178 O188 1.271 . S
C178 O189 1.251 . S
C179 O190 1.252 . S
C179 O191 1.272 . S
O180 Sm160 2.543 . S
O180 C162 1.261 . S
O181 Sm160 2.450 . S
O181 C162 1.242 . S
O182 Sm160 2.681 . S
O182 Sm161 2.386 . S
O182 C169 1.271 . S
O183 Sm160 2.464 . S
O183 C169 1.251 . S
O184 Sm160 2.396 . S
O184 C170 1.252 . S
O185 Sm161 2.408 . S
O185 C170 1.272 . S
O186 Sm161 2.543 . S
O186 C171 1.261 . S
O187 Sm161 2.450 . S
O187 C171 1.242 . S
O188 Sm160 2.386 . S
O188 Sm161 2.681 . S
O188 C178 1.271 . S
O189 Sm161 2.464 . S
O189 C178 1.251 . S
O190 Sm161 2.396 . S
O190 C179 1.252 . S
O191 Sm160 2.408 . S
O191 C179 1.272 . S
H192 C164 0.930 . S
H193 C165 0.929 1_554 S
H194 C167 0.930 . S
H195 C168 0.929 . S
H196 C173 0.930 . S
H197 C174 0.929 . S
H198 C176 0.930 . S
H199 C177 0.929 . S
Sm200 C202 2.846 . S
Sm200 O220 2.543 . S
Sm200 O221 2.450 . S
Sm200 O222 2.681 . S
Sm200 O223 2.464 . S
Sm200 O224 2.396 . S
Sm200 O228 2.386 . S
Sm200 O231 2.408 . S
Sm201 C211 2.846 . S
Sm201 O222 2.386 . S
Sm201 O225 2.408 . S
Sm201 O226 2.543 . S
Sm201 O227 2.450 . S
Sm201 O228 2.681 . S
Sm201 O229 2.464 . S
Sm201 O230 2.396 . S
C202 Sm200 2.846 . S
C202 C203 1.506 . S
C202 O220 1.261 . S
C202 O221 1.242 . S
C203 C202 1.506 . S
C203 C204 1.358 . S
C203 C208 1.382 . S
C204 C203 1.358 . S
C204 C205 1.385 . S
C204 H232 0.930 . S
C205 C204 1.385 . S
C205 C206 1.395 . S
C205 H233 0.929 . S
C206 C205 1.395 . S
C206 C207 1.335 . S
C207 C206 1.335 . S
C207 C208 1.398 . S
C207 H234 0.930 . S
C208 C203 1.382 . S
C208 C207 1.398 . S
C208 H235 0.929 . S
C209 O222 1.271 . S
C209 O223 1.251 . S
C210 O224 1.252 . S
C210 O225 1.272 . S
C211 Sm201 2.846 . S
C211 C212 1.506 . S
C211 O226 1.261 . S
C211 O227 1.242 . S
C212 C211 1.506 . S
C212 C213 1.358 . S
C212 C217 1.382 . S
C213 C212 1.358 . S
C213 C214 1.385 . S
C213 H236 0.930 . S
C214 C213 1.385 . S
C214 C215 1.395 . S
C214 H237 0.929 . S
C215 C214 1.395 . S
C215 C216 1.335 . S
C216 C215 1.335 . S
C216 C217 1.398 . S
C216 H238 0.930 . S
C217 C212 1.382 . S
C217 C216 1.398 . S
C217 H239 0.929 . S
C218 O228 1.271 . S
C218 O229 1.251 . S
C219 O230 1.252 . S
C219 O231 1.272 . S
O220 Sm200 2.543 . S
O220 C202 1.261 . S
O221 Sm200 2.450 . S
O221 C202 1.242 . S
O222 Sm200 2.681 . S
O222 Sm201 2.386 . S
O222 C209 1.271 . S
O223 Sm200 2.464 . S
O223 C209 1.251 . S
O224 Sm200 2.396 . S
O224 C210 1.252 . S
O225 Sm201 2.408 . S
O225 C210 1.272 . S
O226 Sm201 2.543 . S
O226 C211 1.261 . S
O227 Sm201 2.450 . S
O227 C211 1.242 . S
O228 Sm200 2.386 . S
O228 Sm201 2.681 . S
O228 C218 1.271 . S
O229 Sm201 2.464 . S
O229 C218 1.251 . S
O230 Sm201 2.396 . S
O230 C219 1.252 . S
O231 Sm200 2.408 . S
O231 C219 1.272 . S
H232 C204 0.930 . S
H233 C205 0.929 . S
H234 C207 0.930 . S
H235 C208 0.929 . S
H236 C213 0.930 . S
H237 C214 0.929 . S
H238 C216 0.930 . S
H239 C217 0.929 . S
Sm240 C242 2.846 . S
Sm240 O260 2.543 . S
Sm240 O261 2.450 . S
Sm240 O262 2.681 . S
Sm240 O263 2.464 . S
Sm240 O264 2.396 . S
Sm240 O268 2.386 . S
Sm240 O271 2.408 . S
Sm241 C251 2.846 . S
Sm241 O262 2.386 . S
Sm241 O265 2.408 . S
Sm241 O266 2.543 . S
Sm241 O267 2.450 . S
Sm241 O268 2.681 . S
Sm241 O269 2.464 . S
Sm241 O270 2.396 . S
C242 Sm240 2.846 . S
C242 C243 1.506 . S
C242 O260 1.261 . S
C242 O261 1.242 . S
C243 C242 1.506 . S
C243 C244 1.358 . S
C243 C248 1.382 1_545 S
C244 C243 1.358 . S
C244 C245 1.385 . S
C244 H272 0.930 . S
C245 C244 1.385 . S
C245 C246 1.395 1_545 S
C245 H273 0.929 . S
C246 C245 1.395 1_565 S
C246 C247 1.335 . S
C247 C246 1.335 . S
C247 C248 1.398 . S
C247 H274 0.930 . S
C248 C243 1.382 1_565 S
C248 C247 1.398 . S
C248 H275 0.929 . S
C249 O262 1.271 . S
C249 O263 1.251 . S
C250 O264 1.252 . S
C250 O265 1.272 . S
C251 Sm241 2.846 . S
C251 C252 1.506 . S
C251 O266 1.261 . S
C251 O267 1.242 . S
C252 C251 1.506 . S
C252 C253 1.358 . S
C252 C257 1.382 . S
C253 C252 1.358 . S
C253 C254 1.385 . S
C253 H276 0.930 . S
C254 C253 1.385 . S
C254 C255 1.395 . S
C254 H277 0.929 . S
C255 C254 1.395 . S
C255 C256 1.335 . S
C256 C255 1.335 . S
C256 C257 1.398 . S
C256 H278 0.930 . S
C257 C252 1.382 . S
C257 C256 1.398 . S
C257 H279 0.929 . S
C258 O268 1.271 . S
C258 O269 1.251 . S
C259 O270 1.252 . S
C259 O271 1.272 . S
O260 Sm240 2.543 . S
O260 C242 1.261 . S
O261 Sm240 2.450 . S
O261 C242 1.242 . S
O262 Sm240 2.681 . S
O262 Sm241 2.386 . S
O262 C249 1.271 . S
O263 Sm240 2.464 . S
O263 C249 1.251 . S
O264 Sm240 2.396 . S
O264 C250 1.252 . S
O265 Sm241 2.408 . S
O265 C250 1.272 . S
O266 Sm241 2.543 . S
O266 C251 1.261 . S
O267 Sm241 2.450 . S
O267 C251 1.242 . S
O268 Sm240 2.386 . S
O268 Sm241 2.681 . S
O268 C258 1.271 . S
O269 Sm241 2.464 . S
O269 C258 1.251 . S
O270 Sm241 2.396 . S
O270 C259 1.252 . S
O271 Sm240 2.408 . S
O271 C259 1.272 . S
H272 C244 0.930 . S
H273 C245 0.929 . S
H274 C247 0.930 . S
H275 C248 0.929 . S
H276 C253 0.930 . S
H277 C254 0.929 . S
H278 C256 0.930 . S
H279 C257 0.929 . S
Sm280 C282 2.846 . S
Sm280 O300 2.543 . S
Sm280 O301 2.450 . S
Sm280 O302 2.681 . S
Sm280 O303 2.464 . S
Sm280 O304 2.396 . S
Sm280 O308 2.386 . S
Sm280 O311 2.408 . S
Sm281 C291 2.846 1_455 S
Sm281 O302 2.386 . S
Sm281 O305 2.408 . S
Sm281 O306 2.543 . S
Sm281 O307 2.450 1_455 S
Sm281 O308 2.681 . S
Sm281 O309 2.464 . S
Sm281 O310 2.396 . S
C282 Sm280 2.846 . S
C282 C283 1.506 . S
C282 O300 1.261 . S
C282 O301 1.242 . S
C283 C282 1.506 . S
C283 C284 1.358 . S
C283 C288 1.382 . S
C284 C283 1.358 . S
C284 C285 1.385 . S
C284 H312 0.930 . S
C285 C284 1.385 . S
C285 C286 1.395 . S
C285 H313 0.929 . S
C286 C285 1.395 . S
C286 C287 1.335 . S
C287 C286 1.335 . S
C287 C288 1.398 . S
C287 H314 0.930 . S
C288 C283 1.382 . S
C288 C287 1.398 . S
C288 H315 0.929 . S
C289 O302 1.271 . S
C289 O303 1.251 . S
C290 O304 1.252 . S
C290 O305 1.272 . S
C291 Sm281 2.846 1_655 S
C291 C292 1.506 . S
C291 O306 1.261 1_655 S
C291 O307 1.242 . S
C292 C291 1.506 . S
C292 C293 1.358 . S
C292 C297 1.382 . S
C293 C292 1.358 . S
C293 C294 1.385 . S
C293 H316 0.930 1_655 S
C294 C293 1.385 . S
C294 C295 1.395 . S
C294 H317 0.929 . S
C295 C294 1.395 . S
C295 C296 1.335 . S
C296 C295 1.335 . S
C296 C297 1.398 . S
C296 H318 0.930 . S
C297 C292 1.382 . S
C297 C296 1.398 . S
C297 H319 0.929 . S
C298 O308 1.271 . S
C298 O309 1.251 . S
C299 O310 1.252 . S
C299 O311 1.272 . S
O300 Sm280 2.543 . S
O300 C282 1.261 . S
O301 Sm280 2.450 . S
O301 C282 1.242 . S
O302 Sm280 2.681 . S
O302 Sm281 2.386 . S
O302 C289 1.271 . S
O303 Sm280 2.464 . S
O303 C289 1.251 . S
O304 Sm280 2.396 . S
O304 C290 1.252 . S
O305 Sm281 2.408 . S
O305 C290 1.272 . S
O306 Sm281 2.543 . S
O306 C291 1.261 1_455 S
O307 Sm281 2.450 1_655 S
O307 C291 1.242 . S
O308 Sm280 2.386 . S
O308 Sm281 2.681 . S
O308 C298 1.271 . S
O309 Sm281 2.464 . S
O309 C298 1.251 . S
O310 Sm281 2.396 . S
O310 C299 1.252 . S
O311 Sm280 2.408 . S
O311 C299 1.272 . S
H312 C284 0.930 . S
H313 C285 0.929 . S
H314 C287 0.930 . S
H315 C288 0.929 . S
H316 C293 0.930 1_455 S
H317 C294 0.929 . S
H318 C296 0.930 . S
H319 C297 0.929 . S
Sm320 C322 2.846 . S
Sm320 O340 2.543 . S
Sm320 O341 2.450 . S
Sm320 O342 2.681 . S
Sm320 O343 2.464 . S
Sm320 O344 2.396 . S
Sm320 O348 2.386 . S
Sm320 O351 2.408 . S
Sm321 C331 2.846 . S
Sm321 O342 2.386 . S
Sm321 O345 2.408 . S
Sm321 O346 2.543 . S
Sm321 O347 2.450 . S
Sm321 O348 2.681 . S
Sm321 O349 2.464 . S
Sm321 O350 2.396 . S
C322 Sm320 2.846 . S
C322 C323 1.506 . S
C322 O340 1.261 . S
C322 O341 1.242 . S
C323 C322 1.506 . S
C323 C324 1.358 . S
C323 C328 1.382 . S
C324 C323 1.358 . S
C324 C325 1.385 . S
C324 H352 0.930 . S
C325 C324 1.385 . S
C325 C326 1.395 . S
C325 H353 0.929 . S
C326 C325 1.395 . S
C326 C327 1.335 . S
C327 C326 1.335 . S
C327 C328 1.398 . S
C327 H354 0.930 . S
C328 C323 1.382 . S
C328 C327 1.398 . S
C328 H355 0.929 . S
C329 O342 1.271 . S
C329 O343 1.251 . S
C330 O344 1.252 . S
C330 O345 1.272 . S
C331 Sm321 2.846 . S
C331 C332 1.506 . S
C331 O346 1.261 . S
C331 O347 1.242 . S
C332 C331 1.506 . S
C332 C333 1.358 . S
C332 C337 1.382 . S
C333 C332 1.358 . S
C333 C334 1.385 . S
C333 H356 0.930 . S
C334 C333 1.385 . S
C334 C335 1.395 . S
C334 H357 0.929 . S
C335 C334 1.395 . S
C335 C336 1.335 . S
C336 C335 1.335 . S
C336 C337 1.398 . S
C336 H358 0.930 . S
C337 C332 1.382 . S
C337 C336 1.398 . S
C337 H359 0.929 . S
C338 O348 1.271 . S
C338 O349 1.251 . S
C339 O350 1.252 . S
C339 O351 1.272 . S
O340 Sm320 2.543 . S
O340 C322 1.261 . S
O341 Sm320 2.450 . S
O341 C322 1.242 . S
O342 Sm320 2.681 . S
O342 Sm321 2.386 . S
O342 C329 1.271 . S
O343 Sm320 2.464 . S
O343 C329 1.251 . S
O344 Sm320 2.396 . S
O344 C330 1.252 . S
O345 Sm321 2.408 . S
O345 C330 1.272 . S
O346 Sm321 2.543 . S
O346 C331 1.261 . S
O347 Sm321 2.450 . S
O347 C331 1.242 . S
O348 Sm320 2.386 . S
O348 Sm321 2.681 . S
O348 C338 1.271 . S
O349 Sm321 2.464 . S
O349 C338 1.251 . S
O350 Sm321 2.396 . S
O350 C339 1.252 . S
O351 Sm320 2.408 . S
O351 C339 1.272 . S
H352 C324 0.930 . S
H353 C325 0.929 . S
H354 C327 0.930 . S
H355 C328 0.929 . S
H356 C333 0.930 . S
H357 C334 0.929 . S
H358 C336 0.930 . S
H359 C337 0.929 . S
Sm360 C362 2.846 1_445 S
Sm360 O380 2.543 1_545 S
Sm360 O381 2.450 1_455 S
Sm360 O382 2.681 . S
Sm360 O383 2.464 . S
Sm360 O384 2.396 . S
Sm360 O388 2.386 . S
Sm360 O391 2.408 . S
Sm361 C371 2.846 . S
Sm361 O382 2.386 . S
Sm361 O385 2.408 . S
Sm361 O386 2.543 . S
Sm361 O387 2.450 . S
Sm361 O388 2.681 . S
Sm361 O389 2.464 . S
Sm361 O390 2.396 . S
C362 Sm360 2.846 1_665 S
C362 C363 1.506 . S
C362 O380 1.261 1_655 S
C362 O381 1.242 1_565 S
C363 C362 1.506 . S
C363 C364 1.358 . S
C363 C368 1.382 . S
C364 C363 1.358 . S
C364 C365 1.385 . S
C364 H392 0.930 1_655 S
C365 C364 1.385 . S
C365 C366 1.395 . S
C365 H393 0.929 . S
C366 C365 1.395 . S
C366 C367 1.335 . S
C367 C366 1.335 . S
C367 C368 1.398 . S
C367 H394 0.930 . S
C368 C363 1.382 . S
C368 C367 1.398 . S
C368 H395 0.929 1_565 S
C369 O382 1.271 . S
C369 O383 1.251 . S
C370 O384 1.252 . S
C370 O385 1.272 . S
C371 Sm361 2.846 . S
C371 C372 1.506 . S
C371 O386 1.261 . S
C371 O387 1.242 . S
C372 C371 1.506 . S
C372 C373 1.358 . S
C372 C377 1.382 . S
C373 C372 1.358 . S
C373 C374 1.385 . S
C373 H396 0.930 . S
C374 C373 1.385 . S
C374 C375 1.395 . S
C374 H397 0.929 . S
C375 C374 1.395 . S
C375 C376 1.335 . S
C376 C375 1.335 . S
C376 C377 1.398 . S
C376 H398 0.930 . S
C377 C372 1.382 . S
C377 C376 1.398 . S
C377 H399 0.929 . S
C378 O388 1.271 1_565 S
C378 O389 1.251 1_565 S
C379 O390 1.252 . S
C379 O391 1.272 . S
O380 Sm360 2.543 1_565 S
O380 C362 1.261 1_455 S
O381 Sm360 2.450 1_655 S
O381 C362 1.242 1_545 S
O382 Sm360 2.681 . S
O382 Sm361 2.386 . S
O382 C369 1.271 . S
O383 Sm360 2.464 . S
O383 C369 1.251 . S
O384 Sm360 2.396 . S
O384 C370 1.252 . S
O385 Sm361 2.408 . S
O385 C370 1.272 . S
O386 Sm361 2.543 . S
O386 C371 1.261 . S
O387 Sm361 2.450 . S
O387 C371 1.242 . S
O388 Sm360 2.386 . S
O388 Sm361 2.681 . S
O388 C378 1.271 1_545 S
O389 Sm361 2.464 . S
O389 C378 1.251 1_545 S
O390 Sm361 2.396 . S
O390 C379 1.252 . S
O391 Sm360 2.408 . S
O391 C379 1.272 . S
H392 C364 0.930 1_455 S
H393 C365 0.929 . S
H394 C367 0.930 . S
H395 C368 0.929 1_545 S
H396 C373 0.930 . S
H397 C374 0.929 . S
H398 C376 0.930 . S
H399 C377 0.929 . S
Sm400 C402 2.846 . S
Sm400 O420 2.543 . S
Sm400 O421 2.450 . S
Sm400 O422 2.681 . S
Sm400 O423 2.464 . S
Sm400 O424 2.396 . S
Sm400 O428 2.386 . S
Sm400 O431 2.408 . S
Sm401 C411 2.846 . S
Sm401 O422 2.386 . S
Sm401 O425 2.408 . S
Sm401 O426 2.543 . S
Sm401 O427 2.450 . S
Sm401 O428 2.681 . S
Sm401 O429 2.464 . S
Sm401 O430 2.396 . S
C402 Sm400 2.846 . S
C402 C403 1.506 . S
C402 O420 1.261 . S
C402 O421 1.242 . S
C403 C402 1.506 . S
C403 C404 1.358 . S
C403 C408 1.382 . S
C404 C403 1.358 . S
C404 C405 1.385 . S
C404 H432 0.930 . S
C405 C404 1.385 . S
C405 C406 1.395 . S
C405 H433 0.929 . S
C406 C405 1.395 . S
C406 C407 1.335 . S
C407 C406 1.335 . S
C407 C408 1.398 . S
C407 H434 0.930 . S
C408 C403 1.382 . S
C408 C407 1.398 . S
C408 H435 0.929 . S
C409 O422 1.271 . S
C409 O423 1.251 . S
C410 O424 1.252 . S
C410 O425 1.272 . S
C411 Sm401 2.846 . S
C411 C412 1.506 . S
C411 O426 1.261 . S
C411 O427 1.242 . S
C412 C411 1.506 . S
C412 C413 1.358 . S
C412 C417 1.382 . S
C413 C412 1.358 . S
C413 C414 1.385 . S
C413 H436 0.930 . S
C414 C413 1.385 . S
C414 C415 1.395 . S
C414 H437 0.929 1_554 S
C415 C414 1.395 . S
C415 C416 1.335 . S
C416 C415 1.335 . S
C416 C417 1.398 . S
C416 H438 0.930 . S
C417 C412 1.382 . S
C417 C416 1.398 . S
C417 H439 0.929 . S
C418 O428 1.271 . S
C418 O429 1.251 . S
C419 O430 1.252 . S
C419 O431 1.272 . S
O420 Sm400 2.543 . S
O420 C402 1.261 . S
O421 Sm400 2.450 . S
O421 C402 1.242 . S
O422 Sm400 2.681 . S
O422 Sm401 2.386 . S
O422 C409 1.271 . S
O423 Sm400 2.464 . S
O423 C409 1.251 . S
O424 Sm400 2.396 . S
O424 C410 1.252 . S
O425 Sm401 2.408 . S
O425 C410 1.272 . S
O426 Sm401 2.543 . S
O426 C411 1.261 . S
O427 Sm401 2.450 . S
O427 C411 1.242 . S
O428 Sm400 2.386 . S
O428 Sm401 2.681 . S
O428 C418 1.271 . S
O429 Sm401 2.464 . S
O429 C418 1.251 . S
O430 Sm401 2.396 . S
O430 C419 1.252 . S
O431 Sm400 2.408 . S
O431 C419 1.272 . S
H432 C404 0.930 . S
H433 C405 0.929 . S
H434 C407 0.930 . S
H435 C408 0.929 . S
H436 C413 0.930 . S
H437 C414 0.929 1_556 S
H438 C416 0.930 . S
H439 C417 0.929 . S
Sm440 C442 2.846 1_565 S
Sm440 O460 2.543 1_565 S
Sm440 O461 2.450 . S
Sm440 O462 2.681 . S
Sm440 O463 2.464 . S
Sm440 O464 2.396 . S
Sm440 O468 2.386 . S
Sm440 O471 2.408 . S
Sm441 C451 2.846 . S
Sm441 O462 2.386 . S
Sm441 O465 2.408 . S
Sm441 O466 2.543 . S
Sm441 O467 2.450 . S
Sm441 O468 2.681 . S
Sm441 O469 2.464 . S
Sm441 O470 2.396 . S
C442 Sm440 2.846 1_545 S
C442 C443 1.506 . S
C442 O460 1.261 . S
C442 O461 1.242 1_545 S
C443 C442 1.506 . S
C443 C444 1.358 . S
C443 C448 1.382 . S
C444 C443 1.358 . S
C444 C445 1.385 . S
C444 H472 0.930 . S
C445 C444 1.385 . S
C445 C446 1.395 . S
C445 H473 0.929 . S
C446 C445 1.395 . S
C446 C447 1.335 . S
C447 C446 1.335 . S
C447 C448 1.398 . S
C447 H474 0.930 . S
C448 C443 1.382 . S
C448 C447 1.398 . S
C448 H475 0.929 1_545 S
C449 O462 1.271 . S
C449 O463 1.251 . S
C450 O464 1.252 . S
C450 O465 1.272 . S
C451 Sm441 2.846 . S
C451 C452 1.506 . S
C451 O466 1.261 . S
C451 O467 1.242 . S
C452 C451 1.506 . S
C452 C453 1.358 . S
C452 C457 1.382 . S
C453 C452 1.358 . S
C453 C454 1.385 . S
C453 H476 0.930 . S
C454 C453 1.385 . S
C454 C455 1.395 . S
C454 H477 0.929 . S
C455 C454 1.395 . S
C455 C456 1.335 . S
C456 C455 1.335 . S
C456 C457 1.398 . S
C456 H478 0.930 . S
C457 C452 1.382 . S
C457 C456 1.398 . S
C457 H479 0.929 . S
C458 O468 1.271 1_545 S
C458 O469 1.251 1_545 S
C459 O470 1.252 . S
C459 O471 1.272 . S
O460 Sm440 2.543 1_545 S
O460 C442 1.261 . S
O461 Sm440 2.450 . S
O461 C442 1.242 1_565 S
O462 Sm440 2.681 . S
O462 Sm441 2.386 . S
O462 C449 1.271 . S
O463 Sm440 2.464 . S
O463 C449 1.251 . S
O464 Sm440 2.396 . S
O464 C450 1.252 . S
O465 Sm441 2.408 . S
O465 C450 1.272 . S
O466 Sm441 2.543 . S
O466 C451 1.261 . S
O467 Sm441 2.450 . S
O467 C451 1.242 . S
O468 Sm440 2.386 . S
O468 Sm441 2.681 . S
O468 C458 1.271 1_565 S
O469 Sm441 2.464 . S
O469 C458 1.251 1_565 S
O470 Sm441 2.396 . S
O470 C459 1.252 . S
O471 Sm440 2.408 . S
O471 C459 1.272 . S
H472 C444 0.930 . S
H473 C445 0.929 . S
H474 C447 0.930 . S
H475 C448 0.929 1_565 S
H476 C453 0.930 . S
H477 C454 0.929 . S
H478 C456 0.930 . S
H479 C457 0.929 . S
Sm480 C482 2.846 . S
Sm480 O500 2.543 . S
Sm480 O501 2.450 . S
Sm480 O502 2.681 . S
Sm480 O503 2.464 . S
Sm480 O504 2.396 . S
Sm480 O508 2.386 . S
Sm480 O511 2.408 . S
Sm481 C491 2.846 . S
Sm481 O502 2.386 . S
Sm481 O505 2.408 . S
Sm481 O506 2.543 . S
Sm481 O507 2.450 . S
Sm481 O508 2.681 . S
Sm481 O509 2.464 . S
Sm481 O510 2.396 . S
C482 Sm480 2.846 . S
C482 C483 1.506 . S
C482 O500 1.261 . S
C482 O501 1.242 . S
C483 C482 1.506 . S
C483 C484 1.358 . S
C483 C488 1.382 . S
C484 C483 1.358 . S
C484 C485 1.385 . S
C484 H512 0.930 . S
C485 C484 1.385 . S
C485 C486 1.395 . S
C485 H513 0.929 . S
C486 C485 1.395 . S
C486 C487 1.335 . S
C487 C486 1.335 . S
C487 C488 1.398 . S
C487 H514 0.930 . S
C488 C483 1.382 . S
C488 C487 1.398 . S
C488 H515 0.929 . S
C489 O502 1.271 . S
C489 O503 1.251 . S
C490 O504 1.252 . S
C490 O505 1.272 . S
C491 Sm481 2.846 . S
C491 C492 1.506 . S
C491 O506 1.261 . S
C491 O507 1.242 . S
C492 C491 1.506 . S
C492 C493 1.358 . S
C492 C497 1.382 . S
C493 C492 1.358 . S
C493 C494 1.385 . S
C493 H516 0.930 . S
C494 C493 1.385 . S
C494 C495 1.395 . S
C494 H517 0.929 . S
C495 C494 1.395 . S
C495 C496 1.335 . S
C496 C495 1.335 . S
C496 C497 1.398 . S
C496 H518 0.930 . S
C497 C492 1.382 . S
C497 C496 1.398 . S
C497 H519 0.929 . S
C498 O508 1.271 . S
C498 O509 1.251 . S
C499 O510 1.252 . S
C499 O511 1.272 . S
O500 Sm480 2.543 . S
O500 C482 1.261 . S
O501 Sm480 2.450 . S
O501 C482 1.242 . S
O502 Sm480 2.681 . S
O502 Sm481 2.386 . S
O502 C489 1.271 . S
O503 Sm480 2.464 . S
O503 C489 1.251 . S
O504 Sm480 2.396 . S
O504 C490 1.252 . S
O505 Sm481 2.408 . S
O505 C490 1.272 . S
O506 Sm481 2.543 . S
O506 C491 1.261 . S
O507 Sm481 2.450 . S
O507 C491 1.242 . S
O508 Sm480 2.386 . S
O508 Sm481 2.681 . S
O508 C498 1.271 . S
O509 Sm481 2.464 . S
O509 C498 1.251 . S
O510 Sm481 2.396 . S
O510 C499 1.252 . S
O511 Sm480 2.408 . S
O511 C499 1.272 . S
H512 C484 0.930 . S
H513 C485 0.929 . S
H514 C487 0.930 . S
H515 C488 0.929 . S
H516 C493 0.930 . S
H517 C494 0.929 . S
H518 C496 0.930 . S
H519 C497 0.929 . S
Sm520 C522 2.846 . S
Sm520 O540 2.543 . S
Sm520 O541 2.450 . S
Sm520 O542 2.681 . S
Sm520 O543 2.464 . S
Sm520 O544 2.396 . S
Sm520 O548 2.386 . S
Sm520 O551 2.408 . S
Sm521 C531 2.846 1_665 S
Sm521 O542 2.386 . S
Sm521 O545 2.408 . S
Sm521 O546 2.543 1_565 S
Sm521 O547 2.450 1_655 S
Sm521 O548 2.681 . S
Sm521 O549 2.464 . S
Sm521 O550 2.396 . S
C522 Sm520 2.846 . S
C522 C523 1.506 . S
C522 O540 1.261 . S
C522 O541 1.242 . S
C523 C522 1.506 . S
C523 C524 1.358 . S
C523 C528 1.382 . S
C524 C523 1.358 . S
C524 C525 1.385 . S
C524 H552 0.930 . S
C525 C524 1.385 . S
C525 C526 1.395 . S
C525 H553 0.929 . S
C526 C525 1.395 . S
C526 C527 1.335 . S
C527 C526 1.335 . S
C527 C528 1.398 . S
C527 H554 0.930 . S
C528 C523 1.382 . S
C528 C527 1.398 . S
C528 H555 0.929 . S
C529 O542 1.271 1_545 S
C529 O543 1.251 1_545 S
C530 O544 1.252 . S
C530 O545 1.272 . S
C531 Sm521 2.846 1_445 S
C531 C532 1.506 . S
C531 O546 1.261 1_455 S
C531 O547 1.242 1_545 S
C532 C531 1.506 . S
C532 C533 1.358 . S
C532 C537 1.382 . S
C533 C532 1.358 . S
C533 C534 1.385 . S
C533 H556 0.930 1_455 S
C534 C533 1.385 . S
C534 C535 1.395 . S
C534 H557 0.929 . S
C535 C534 1.395 . S
C535 C536 1.335 . S
C536 C535 1.335 . S
C536 C537 1.398 . S
C536 H558 0.930 . S
C537 C532 1.382 . S
C537 C536 1.398 . S
C537 H559 0.929 1_545 S
C538 O548 1.271 . S
C538 O549 1.251 . S
C539 O550 1.252 . S
C539 O551 1.272 . S
O540 Sm520 2.543 . S
O540 C522 1.261 . S
O541 Sm520 2.450 . S
O541 C522 1.242 . S
O542 Sm520 2.681 . S
O542 Sm521 2.386 . S
O542 C529 1.271 1_565 S
O543 Sm520 2.464 . S
O543 C529 1.251 1_565 S
O544 Sm520 2.396 . S
O544 C530 1.252 . S
O545 Sm521 2.408 . S
O545 C530 1.272 . S
O546 Sm521 2.543 1_545 S
O546 C531 1.261 1_655 S
O547 Sm521 2.450 1_455 S
O547 C531 1.242 1_565 S
O548 Sm520 2.386 . S
O548 Sm521 2.681 . S
O548 C538 1.271 . S
O549 Sm521 2.464 . S
O549 C538 1.251 . S
O550 Sm521 2.396 . S
O550 C539 1.252 . S
O551 Sm520 2.408 . S
O551 C539 1.272 . S
H552 C524 0.930 . S
H553 C525 0.929 . S
H554 C527 0.930 . S
H555 C528 0.929 . S
H556 C533 0.930 1_655 S
H557 C534 0.929 . S
H558 C536 0.930 . S
H559 C537 0.929 1_565 S
Sm560 C562 2.846 . S
Sm560 O580 2.543 . S
Sm560 O581 2.450 . S
Sm560 O582 2.681 . S
Sm560 O583 2.464 . S
Sm560 O584 2.396 . S
Sm560 O588 2.386 . S
Sm560 O591 2.408 . S
Sm561 C571 2.846 . S
Sm561 O582 2.386 . S
Sm561 O585 2.408 . S
Sm561 O586 2.543 . S
Sm561 O587 2.450 . S
Sm561 O588 2.681 . S
Sm561 O589 2.464 . S
Sm561 O590 2.396 . S
C562 Sm560 2.846 . S
C562 C563 1.506 . S
C562 O580 1.261 . S
C562 O581 1.242 . S
C563 C562 1.506 . S
C563 C564 1.358 . S
C563 C568 1.382 . S
C564 C563 1.358 . S
C564 C565 1.385 . S
C564 H592 0.930 . S
C565 C564 1.385 . S
C565 C566 1.395 . S
C565 H593 0.929 1_556 S
C566 C565 1.395 . S
C566 C567 1.335 . S
C567 C566 1.335 . S
C567 C568 1.398 . S
C567 H594 0.930 . S
C568 C563 1.382 . S
C568 C567 1.398 . S
C568 H595 0.929 . S
C569 O582 1.271 . S
C569 O583 1.251 . S
C570 O584 1.252 . S
C570 O585 1.272 . S
C571 Sm561 2.846 . S
C571 C572 1.506 . S
C571 O586 1.261 . S
C571 O587 1.242 . S
C572 C571 1.506 . S
C572 C573 1.358 . S
C572 C577 1.382 . S
C573 C572 1.358 . S
C573 C574 1.385 . S
C573 H596 0.930 . S
C574 C573 1.385 . S
C574 C575 1.395 . S
C574 H597 0.929 . S
C575 C574 1.395 . S
C575 C576 1.335 . S
C576 C575 1.335 . S
C576 C577 1.398 . S
C576 H598 0.930 . S
C577 C572 1.382 . S
C577 C576 1.398 . S
C577 H599 0.929 . S
C578 O588 1.271 . S
C578 O589 1.251 . S
C579 O590 1.252 . S
C579 O591 1.272 . S
O580 Sm560 2.543 . S
O580 C562 1.261 . S
O581 Sm560 2.450 . S
O581 C562 1.242 . S
O582 Sm560 2.681 . S
O582 Sm561 2.386 . S
O582 C569 1.271 . S
O583 Sm560 2.464 . S
O583 C569 1.251 . S
O584 Sm560 2.396 . S
O584 C570 1.252 . S
O585 Sm561 2.408 . S
O585 C570 1.272 . S
O586 Sm561 2.543 . S
O586 C571 1.261 . S
O587 Sm561 2.450 . S
O587 C571 1.242 . S
O588 Sm560 2.386 . S
O588 Sm561 2.681 . S
O588 C578 1.271 . S
O589 Sm561 2.464 . S
O589 C578 1.251 . S
O590 Sm561 2.396 . S
O590 C579 1.252 . S
O591 Sm560 2.408 . S
O591 C579 1.272 . S
H592 C564 0.930 . S
H593 C565 0.929 1_554 S
H594 C567 0.930 . S
H595 C568 0.929 . S
H596 C573 0.930 . S
H597 C574 0.929 . S
H598 C576 0.930 . S
H599 C577 0.929 . S
Sm600 C602 2.846 . S
Sm600 O620 2.543 . S
Sm600 O621 2.450 . S
Sm600 O622 2.681 . S
Sm600 O623 2.464 . S
Sm600 O624 2.396 . S
Sm600 O628 2.386 . S
Sm600 O631 2.408 . S
Sm601 C611 2.846 1_545 S
Sm601 O622 2.386 . S
Sm601 O625 2.408 . S
Sm601 O626 2.543 1_545 S
Sm601 O627 2.450 . S
Sm601 O628 2.681 . S
Sm601 O629 2.464 . S
Sm601 O630 2.396 . S
C602 Sm600 2.846 . S
C602 C603 1.506 . S
C602 O620 1.261 . S
C602 O621 1.242 . S
C603 C602 1.506 . S
C603 C604 1.358 . S
C603 C608 1.382 . S
C604 C603 1.358 . S
C604 C605 1.385 . S
C604 H632 0.930 . S
C605 C604 1.385 . S
C605 C606 1.395 . S
C605 H633 0.929 . S
C606 C605 1.395 . S
C606 C607 1.335 . S
C607 C606 1.335 . S
C607 C608 1.398 . S
C607 H634 0.930 . S
C608 C603 1.382 . S
C608 C607 1.398 . S
C608 H635 0.929 . S
C609 O622 1.271 1_565 S
C609 O623 1.251 1_565 S
C610 O624 1.252 . S
C610 O625 1.272 . S
C611 Sm601 2.846 1_565 S
C611 C612 1.506 . S
C611 O626 1.261 . S
C611 O627 1.242 1_565 S
C612 C611 1.506 . S
C612 C613 1.358 . S
C612 C617 1.382 . S
C613 C612 1.358 . S
C613 C614 1.385 . S
C613 H636 0.930 . S
C614 C613 1.385 . S
C614 C615 1.395 . S
C614 H637 0.929 . S
C615 C614 1.395 . S
C615 C616 1.335 . S
C616 C615 1.335 . S
C616 C617 1.398 . S
C616 H638 0.930 . S
C617 C612 1.382 . S
C617 C616 1.398 . S
C617 H639 0.929 1_565 S
C618 O628 1.271 . S
C618 O629 1.251 . S
C619 O630 1.252 . S
C619 O631 1.272 . S
O620 Sm600 2.543 . S
O620 C602 1.261 . S
O621 Sm600 2.450 . S
O621 C602 1.242 . S
O622 Sm600 2.681 . S
O622 Sm601 2.386 . S
O622 C609 1.271 1_545 S
O623 Sm600 2.464 . S
O623 C609 1.251 1_545 S
O624 Sm600 2.396 . S
O624 C610 1.252 . S
O625 Sm601 2.408 . S
O625 C610 1.272 . S
O626 Sm601 2.543 1_565 S
O626 C611 1.261 . S
O627 Sm601 2.450 . S
O627 C611 1.242 1_545 S
O628 Sm600 2.386 . S
O628 Sm601 2.681 . S
O628 C618 1.271 . S
O629 Sm601 2.464 . S
O629 C618 1.251 . S
O630 Sm601 2.396 . S
O630 C619 1.252 . S
O631 Sm600 2.408 . S
O631 C619 1.272 . S
H632 C604 0.930 . S
H633 C605 0.929 . S
H634 C607 0.930 . S
H635 C608 0.929 . S
H636 C613 0.930 . S
H637 C614 0.929 . S
H638 C616 0.930 . S
H639 C617 0.929 1_545 S
C640 C641 1.363 . S
C640 C646 1.379 . S
C640 N648 1.356 . S
C641 C640 1.363 . S
C641 C647 1.363 . S
C642 C643 1.363 . S
C642 C647 1.379 . S
C642 N649 1.356 . S
C643 C642 1.363 . S
C643 C646 1.363 . S
N644 C646 1.356 . S
N644 H656 0.984 . S
N644 H657 0.985 . S
N645 C647 1.356 . S
N645 H650 0.984 . S
N645 H651 0.985 . S
C646 C640 1.379 . S
C646 C643 1.363 . S
C646 N644 1.356 . S
C647 C641 1.363 . S
C647 C642 1.379 . S
C647 N645 1.356 . S
N648 C640 1.356 . S
N648 H654 0.984 . S
N648 H655 0.984 . S
N649 C642 1.356 . S
N649 H652 0.984 . S
N649 H653 0.985 . S
H650 N645 0.984 . S
H651 N645 0.985 . S
H652 N649 0.984 . S
H653 N649 0.985 . S
H654 N648 0.984 . S
H655 N648 0.984 . S
H656 N644 0.984 . S
H657 N644 0.985 . S
C658 C659 1.363 . S
C658 C664 1.379 . S
C658 N666 1.356 . S
C659 C658 1.363 . S
C659 C665 1.363 . S
C660 C661 1.363 . S
C660 C665 1.379 . S
C660 N667 1.356 . S
C661 C660 1.363 . S
C661 C664 1.363 . S
N662 C664 1.356 . S
N662 H674 0.984 . S
N662 H675 0.985 . S
N663 C665 1.356 . S
N663 H668 0.984 . S
N663 H669 0.985 . S
C664 C658 1.379 . S
C664 C661 1.363 . S
C664 N662 1.356 . S
C665 C659 1.363 . S
C665 C660 1.379 . S
C665 N663 1.356 . S
N666 C658 1.356 . S
N666 H672 0.984 . S
N666 H673 0.984 . S
N667 C660 1.356 . S
N667 H670 0.984 . S
N667 H671 0.985 . S
H668 N663 0.984 . S
H669 N663 0.985 . S
H670 N667 0.984 . S
H671 N667 0.985 . S
H672 N666 0.984 . S
H673 N666 0.984 . S
H674 N662 0.984 . S
H675 N662 0.985 . S
C676 C677 1.363 . S
C676 C682 1.379 1_455 S
C676 N684 1.356 . S
C677 C676 1.363 . S
C677 C683 1.363 . S
C678 C679 1.363 . S
C678 C683 1.379 1_655 S
C678 N685 1.356 . S
C679 C678 1.363 . S
C679 C682 1.363 . S
N680 C682 1.356 . S
N680 H692 0.984 . S
N680 H693 0.985 . S
N681 C683 1.356 . S
N681 H686 0.984 . S
N681 H687 0.985 . S
C682 C676 1.379 1_655 S
C682 C679 1.363 . S
C682 N680 1.356 . S
C683 C677 1.363 . S
C683 C678 1.379 1_455 S
C683 N681 1.356 . S
N684 C676 1.356 . S
N684 H690 0.984 . S
N684 H691 0.984 . S
N685 C678 1.356 . S
N685 H688 0.984 . S
N685 H689 0.985 . S
H686 N681 0.984 . S
H687 N681 0.985 . S
H688 N685 0.984 . S
H689 N685 0.985 . S
H690 N684 0.984 . S
H691 N684 0.984 . S
H692 N680 0.984 . S
H693 N680 0.985 . S
C694 C695 1.363 1_655 S
C694 C700 1.379 . S
C694 N702 1.356 . S
C695 C694 1.363 1_455 S
C695 C701 1.363 . S
C696 C697 1.363 1_455 S
C696 C701 1.379 . S
C696 N703 1.356 . S
C697 C696 1.363 1_655 S
C697 C700 1.363 . S
N698 C700 1.356 . S
N698 H710 0.984 . S
N698 H711 0.985 . S
N699 C701 1.356 . S
N699 H704 0.984 . S
N699 H705 0.985 . S
C700 C694 1.379 . S
C700 C697 1.363 . S
C700 N698 1.356 . S
C701 C695 1.363 . S
C701 C696 1.379 . S
C701 N699 1.356 . S
N702 C694 1.356 . S
N702 H708 0.984 . S
N702 H709 0.984 1_655 S
N703 C696 1.356 . S
N703 H706 0.984 1_455 S
N703 H707 0.985 . S
H704 N699 0.984 . S
H705 N699 0.985 . S
H706 N703 0.984 1_655 S
H707 N703 0.985 . S
H708 N702 0.984 . S
H709 N702 0.984 1_455 S
H710 N698 0.984 . S
H711 N698 0.985 . S
C712 C713 1.363 . S
C712 C718 1.379 . S
C712 N720 1.356 . S
C713 C712 1.363 . S
C713 C719 1.363 . S
C714 C715 1.363 . S
C714 C719 1.379 . S
C714 N721 1.356 . S
C715 C714 1.363 . S
C715 C718 1.363 . S
N716 C718 1.356 . S
N716 H728 0.984 . S
N716 H729 0.985 . S
N717 C719 1.356 . S
N717 H722 0.984 . S
N717 H723 0.985 . S
C718 C712 1.379 . S
C718 C715 1.363 . S
C718 N716 1.356 . S
C719 C713 1.363 . S
C719 C714 1.379 . S
C719 N717 1.356 . S
N720 C712 1.356 . S
N720 H726 0.984 . S
N720 H727 0.984 . S
N721 C714 1.356 . S
N721 H724 0.984 . S
N721 H725 0.985 . S
H722 N717 0.984 . S
H723 N717 0.985 . S
H724 N721 0.984 . S
H725 N721 0.985 . S
H726 N720 0.984 . S
H727 N720 0.984 . S
H728 N716 0.984 . S
H729 N716 0.985 . S
C730 C731 1.363 . S
C730 C736 1.379 . S
C730 N738 1.356 . S
C731 C730 1.363 . S
C731 C737 1.363 . S
C732 C733 1.363 . S
C732 C737 1.379 . S
C732 N739 1.356 . S
C733 C732 1.363 . S
C733 C736 1.363 . S
N734 C736 1.356 . S
N734 H746 0.984 . S
N734 H747 0.985 . S
N735 C737 1.356 . S
N735 H740 0.984 . S
N735 H741 0.985 . S
C736 C730 1.379 . S
C736 C733 1.363 . S
C736 N734 1.356 . S
C737 C731 1.363 . S
C737 C732 1.379 . S
C737 N735 1.356 . S
N738 C730 1.356 . S
N738 H744 0.984 . S
N738 H745 0.984 . S
N739 C732 1.356 . S
N739 H742 0.984 . S
N739 H743 0.985 . S
H740 N735 0.984 . S
H741 N735 0.985 . S
H742 N739 0.984 . S
H743 N739 0.985 . S
H744 N738 0.984 . S
H745 N738 0.984 . S
H746 N734 0.984 . S
H747 N734 0.985 . S
C748 C749 1.363 . S
C748 C754 1.379 1_455 S
C748 N756 1.356 . S
C749 C748 1.363 . S
C749 C755 1.363 . S
C750 C751 1.363 . S
C750 C755 1.379 1_655 S
C750 N757 1.356 . S
C751 C750 1.363 . S
C751 C754 1.363 . S
N752 C754 1.356 . S
N752 H764 0.984 . S
N752 H765 0.985 . S
N753 C755 1.356 . S
N753 H758 0.984 . S
N753 H759 0.985 . S
C754 C748 1.379 1_655 S
C754 C751 1.363 . S
C754 N752 1.356 . S
C755 C749 1.363 . S
C755 C750 1.379 1_455 S
C755 N753 1.356 . S
N756 C748 1.356 . S
N756 H762 0.984 . S
N756 H763 0.984 . S
N757 C750 1.356 . S
N757 H760 0.984 . S
N757 H761 0.985 . S
H758 N753 0.984 . S
H759 N753 0.985 . S
H760 N757 0.984 . S
H761 N757 0.985 . S
H762 N756 0.984 . S
H763 N756 0.984 . S
H764 N752 0.984 . S
H765 N752 0.985 . S
C766 C767 1.363 1_655 S
C766 C772 1.379 . S
C766 N774 1.356 . S
C767 C766 1.363 1_455 S
C767 C773 1.363 . S
C768 C769 1.363 1_455 S
C768 C773 1.379 . S
C768 N775 1.356 . S
C769 C768 1.363 1_655 S
C769 C772 1.363 . S
N770 C772 1.356 . S
N770 H782 0.984 . S
N770 H783 0.985 . S
N771 C773 1.356 . S
N771 H776 0.984 . S
N771 H777 0.985 . S
C772 C766 1.379 . S
C772 C769 1.363 . S
C772 N770 1.356 . S
C773 C767 1.363 . S
C773 C768 1.379 . S
C773 N771 1.356 . S
N774 C766 1.356 . S
N774 H780 0.984 . S
N774 H781 0.984 1_655 S
N775 C768 1.356 . S
N775 H778 0.984 1_455 S
N775 H779 0.985 . S
H776 N771 0.984 . S
H777 N771 0.985 . S
H778 N775 0.984 1_655 S
H779 N775 0.985 . S
H780 N774 0.984 . S
H781 N774 0.984 1_455 S
H782 N770 0.984 . S
H783 N770 0.985 . S
C784 C785 1.363 . S
C784 C790 1.379 . S
C784 N792 1.356 . S
C785 C784 1.363 . S
C785 C791 1.363 1_566 S
C786 C787 1.363 . S
C786 C791 1.379 . S
C786 N793 1.356 . S
C787 C786 1.363 . S
C787 C790 1.363 1_544 S
N788 C790 1.358 . S
N788 H800 0.996 . S
N788 H801 0.971 1_565 S
N789 C791 1.358 . S
N789 H794 0.971 1_545 S
N789 H795 0.996 . S
C790 C784 1.379 . S
C790 C787 1.363 1_566 S
C790 N788 1.358 . S
C791 C785 1.363 1_544 S
C791 C786 1.379 . S
C791 N789 1.358 . S
N792 C784 1.356 . S
N792 H798 0.984 . S
N792 H799 0.984 . S
N793 C786 1.356 . S
N793 H796 0.984 . S
N793 H797 0.985 . S
H794 N789 0.971 1_565 S
H795 N789 0.996 . S
H796 N793 0.984 . S
H797 N793 0.985 . S
H798 N792 0.984 . S
H799 N792 0.984 . S
H800 N788 0.996 . S
H801 N788 0.971 1_545 S
C802 C803 1.363 . S
C802 C808 1.379 . S
C802 N810 1.356 . S
C803 C802 1.363 . S
C803 C809 1.363 . S
C804 C805 1.363 . S
C804 C809 1.379 . S
C804 N811 1.356 . S
C805 C804 1.363 . S
C805 C808 1.363 . S
N806 C808 1.356 . S
N806 H818 0.984 . S
N806 H819 0.985 . S
N807 C809 1.356 . S
N807 H812 0.984 . S
N807 H813 0.985 . S
C808 C802 1.379 . S
C808 C805 1.363 . S
C808 N806 1.356 . S
C809 C803 1.363 . S
C809 C804 1.379 . S
C809 N807 1.356 . S
N810 C802 1.356 . S
N810 H816 0.984 . S
N810 H817 0.984 . S
N811 C804 1.356 . S
N811 H814 0.984 . S
N811 H815 0.985 . S
H812 N807 0.984 . S
H813 N807 0.985 . S
H814 N811 0.984 . S
H815 N811 0.985 . S
H816 N810 0.984 . S
H817 N810 0.984 . S
H818 N806 0.984 . S
H819 N806 0.985 . S
C820 C821 1.363 1_565 S
C820 C826 1.379 1_455 S
C820 N828 1.356 1_565 S
C821 C820 1.363 1_545 S
C821 C827 1.363 . S
C822 C823 1.363 1_545 S
C822 C827 1.379 1_655 S
C822 N829 1.356 1_545 S
C823 C822 1.363 1_565 S
C823 C826 1.363 . S
N824 C826 1.356 . S
N824 H836 0.984 . S
N824 H837 0.985 . S
N825 C827 1.356 . S
N825 H830 0.984 . S
N825 H831 0.985 . S
C826 C820 1.379 1_655 S
C826 C823 1.363 . S
C826 N824 1.356 . S
C827 C821 1.363 . S
C827 C822 1.379 1_455 S
C827 N825 1.356 . S
N828 C820 1.356 1_545 S
N828 H834 0.984 1_545 S
N828 H835 0.984 . S
N829 C822 1.356 1_565 S
N829 H832 0.984 . S
N829 H833 0.985 1_565 S
H830 N825 0.984 . S
H831 N825 0.985 . S
H832 N829 0.984 . S
H833 N829 0.985 1_545 S
H834 N828 0.984 1_565 S
H835 N828 0.984 . S
H836 N824 0.984 . S
H837 N824 0.985 . S
C838 C839 1.363 . S
C838 C844 1.379 . S
C838 N846 1.356 . S
C839 C838 1.363 . S
C839 C845 1.363 . S
C840 C841 1.363 . S
C840 C845 1.379 . S
C840 N847 1.356 . S
C841 C840 1.363 . S
C841 C844 1.363 . S
N842 C844 1.356 . S
N842 H854 0.984 . S
N842 H855 0.985 . S
N843 C845 1.356 . S
N843 H848 0.984 . S
N843 H849 0.985 . S
C844 C838 1.379 . S
C844 C841 1.363 . S
C844 N842 1.356 . S
C845 C839 1.363 . S
C845 C840 1.379 . S
C845 N843 1.356 . S
N846 C838 1.356 . S
N846 H852 0.984 . S
N846 H853 0.984 . S
N847 C840 1.356 . S
N847 H850 0.984 . S
N847 H851 0.985 . S
H848 N843 0.984 . S
H849 N843 0.985 . S
H850 N847 0.984 . S
H851 N847 0.985 . S
H852 N846 0.984 . S
H853 N846 0.984 . S
H854 N842 0.984 . S
H855 N842 0.985 . S
C856 C857 1.363 . S
C856 C862 1.379 . S
C856 N864 1.356 . S
C857 C856 1.363 . S
C857 C863 1.363 . S
C858 C859 1.363 . S
C858 C863 1.379 . S
C858 N865 1.356 . S
C859 C858 1.363 . S
C859 C862 1.363 . S
N860 C862 1.356 . S
N860 H872 0.984 . S
N860 H873 0.985 . S
N861 C863 1.356 . S
N861 H866 0.984 . S
N861 H867 0.985 . S
C862 C856 1.379 . S
C862 C859 1.363 . S
C862 N860 1.356 . S
C863 C857 1.363 . S
C863 C858 1.379 . S
C863 N861 1.356 . S
N864 C856 1.356 . S
N864 H870 0.984 . S
N864 H871 0.984 . S
N865 C858 1.356 . S
N865 H868 0.984 . S
N865 H869 0.985 . S
H866 N861 0.984 . S
H867 N861 0.985 . S
H868 N865 0.984 . S
H869 N865 0.985 . S
H870 N864 0.984 . S
H871 N864 0.984 . S
H872 N860 0.984 . S
H873 N860 0.985 . S
C874 C875 1.363 . S
C874 C880 1.379 . S
C874 N882 1.356 . S
C875 C874 1.363 . S
C875 C881 1.363 . S
C876 C877 1.363 . S
C876 C881 1.379 . S
C876 N883 1.356 . S
C877 C876 1.363 . S
C877 C880 1.363 . S
N878 C880 1.356 . S
N878 H890 0.984 . S
N878 H891 0.985 . S
N879 C881 1.356 . S
N879 H884 0.984 . S
N879 H885 0.985 . S
C880 C874 1.379 . S
C880 C877 1.363 . S
C880 N878 1.356 . S
C881 C875 1.363 . S
C881 C876 1.379 . S
C881 N879 1.356 . S
N882 C874 1.356 . S
N882 H888 0.984 . S
N882 H889 0.984 . S
N883 C876 1.356 . S
N883 H886 0.984 . S
N883 H887 0.985 . S
H884 N879 0.984 . S
H885 N879 0.985 . S
H886 N883 0.984 . S
H887 N883 0.985 . S
H888 N882 0.984 . S
H889 N882 0.984 . S
H890 N878 0.984 . S
H891 N878 0.985 . S
C892 C893 1.363 . S
C892 C898 1.379 1_455 S
C892 N900 1.356 . S
C893 C892 1.363 . S
C893 C899 1.363 . S
C894 C895 1.363 . S
C894 C899 1.379 1_655 S
C894 N901 1.356 . S
C895 C894 1.363 . S
C895 C898 1.363 . S
N896 C898 1.356 . S
N896 H908 0.984 . S
N896 H909 0.985 . S
N897 C899 1.356 . S
N897 H902 0.984 . S
N897 H903 0.985 . S
C898 C892 1.379 1_655 S
C898 C895 1.363 . S
C898 N896 1.356 . S
C899 C893 1.363 . S
C899 C894 1.379 1_455 S
C899 N897 1.356 . S
N900 C892 1.356 . S
N900 H906 0.984 . S
N900 H907 0.984 . S
N901 C894 1.356 . S
N901 H904 0.984 . S
N901 H905 0.985 . S
H902 N897 0.984 . S
H903 N897 0.985 . S
H904 N901 0.984 . S
H905 N901 0.985 . S
H906 N900 0.984 . S
H907 N900 0.984 . S
H908 N896 0.984 . S
H909 N896 0.985 . S
C910 C911 1.363 1_554 S
C910 C916 1.379 . S
C910 N918 1.356 . S
C911 C910 1.363 1_556 S
C911 C917 1.363 . S
C912 C913 1.363 1_556 S
C912 C917 1.379 . S
C912 N919 1.356 . S
C913 C912 1.363 1_554 S
C913 C916 1.363 . S
N914 C916 1.356 . S
N914 H926 0.984 . S
N914 H927 0.985 . S
N915 C917 1.356 . S
N915 H920 0.984 . S
N915 H921 0.985 . S
C916 C910 1.379 . S
C916 C913 1.363 . S
C916 N914 1.356 . S
C917 C911 1.363 . S
C917 C912 1.379 . S
C917 N915 1.356 . S
N918 C910 1.356 . S
N918 H924 0.984 . S
N918 H925 0.984 . S
N919 C912 1.356 . S
N919 H922 0.984 . S
N919 H923 0.985 . S
H920 N915 0.984 . S
H921 N915 0.985 . S
H922 N919 0.984 . S
H923 N919 0.985 . S
H924 N918 0.984 . S
H925 N918 0.984 . S
H926 N914 0.984 . S
H927 N914 0.985 . S
C928 C929 1.363 . S
C928 C934 1.379 . S
C928 N936 1.356 . S
C929 C928 1.363 . S
C929 C935 1.363 . S
C930 C931 1.363 . S
C930 C935 1.379 . S
C930 N937 1.356 . S
C931 C930 1.363 . S
C931 C934 1.363 . S
N932 C934 1.356 . S
N932 H944 0.984 . S
N932 H945 0.985 . S
N933 C935 1.356 . S
N933 H938 0.984 . S
N933 H939 0.985 . S
C934 C928 1.379 . S
C934 C931 1.363 . S
C934 N932 1.356 . S
C935 C929 1.363 . S
C935 C930 1.379 . S
C935 N933 1.356 . S
N936 C928 1.356 . S
N936 H942 0.984 . S
N936 H943 0.984 . S
N937 C930 1.356 . S
N937 H940 0.984 . S
N937 H941 0.985 . S
H938 N933 0.984 . S
H939 N933 0.985 . S
H940 N937 0.984 . S
H941 N937 0.985 . S
H942 N936 0.984 . S
H943 N936 0.984 . S
H944 N932 0.984 . S
H945 N932 0.985 . S
C946 C947 1.363 . S
C946 C952 1.379 . S
C946 N954 1.356 . S
C947 C946 1.363 . S
C947 C953 1.363 . S
C948 C949 1.363 . S
C948 C953 1.379 . S
C948 N955 1.356 . S
C949 C948 1.363 . S
C949 C952 1.363 . S
N950 C952 1.356 . S
N950 H962 0.984 . S
N950 H963 0.985 . S
N951 C953 1.356 . S
N951 H956 0.984 . S
N951 H957 0.985 . S
C952 C946 1.379 . S
C952 C949 1.363 . S
C952 N950 1.356 . S
C953 C947 1.363 . S
C953 C948 1.379 . S
C953 N951 1.356 . S
N954 C946 1.356 . S
N954 H960 0.984 . S
N954 H961 0.984 . S
N955 C948 1.356 . S
N955 H958 0.984 . S
N955 H959 0.985 . S
H956 N951 0.984 . S
H957 N951 0.985 . S
H958 N955 0.984 . S
H959 N955 0.985 . S
H960 N954 0.984 . S
H961 N954 0.984 . S
H962 N950 0.984 . S
H963 N950 0.985 . S
C964 C965 1.363 . S
C964 C970 1.379 . S
C964 N972 1.356 . S
C965 C964 1.363 . S
C965 C971 1.363 . S
C966 C967 1.363 . S
C966 C971 1.379 . S
C966 N973 1.356 . S
C967 C966 1.363 . S
C967 C970 1.363 . S
N968 C970 1.356 . S
N968 H980 0.984 . S
N968 H981 0.985 . S
N969 C971 1.356 . S
N969 H974 0.984 . S
N969 H975 0.985 . S
C970 C964 1.379 . S
C970 C967 1.363 . S
C970 N968 1.356 . S
C971 C965 1.363 . S
C971 C966 1.379 . S
C971 N969 1.356 . S
N972 C964 1.356 . S
N972 H978 0.984 . S
N972 H979 0.984 . S
N973 C966 1.356 . S
N973 H976 0.984 . S
N973 H977 0.985 . S
H974 N969 0.984 . S
H975 N969 0.985 . S
H976 N973 0.984 . S
H977 N973 0.985 . S
H978 N972 0.984 . S
H979 N972 0.984 . S
H980 N968 0.984 . S
H981 N968 0.985 . S
C982 C983 1.363 . S
C982 C988 1.379 . S
C982 N990 1.356 . S
C983 C982 1.363 . S
C983 C989 1.363 . S
C984 C985 1.363 . S
C984 C989 1.379 . S
C984 N991 1.356 . S
C985 C984 1.363 . S
C985 C988 1.363 . S
N986 C988 1.356 . S
N986 H998 0.984 . S
N986 H999 0.985 . S
N987 C989 1.356 . S
N987 H992 0.984 . S
N987 H993 0.985 . S
C988 C982 1.379 . S
C988 C985 1.363 . S
C988 N986 1.356 . S
C989 C983 1.363 . S
C989 C984 1.379 . S
C989 N987 1.356 . S
N990 C982 1.356 . S
N990 H996 0.984 . S
N990 H997 0.984 . S
N991 C984 1.356 . S
N991 H994 0.984 . S
N991 H995 0.985 . S
H992 N987 0.984 . S
H993 N987 0.985 . S
H994 N991 0.984 . S
H995 N991 0.985 . S
H996 N990 0.984 . S
H997 N990 0.984 . S
H998 N986 0.984 . S
H999 N986 0.985 . S
C1000 C1001 1.363 . S
C1000 C1006 1.379 . S
C1000 N1008 1.356 . S
C1001 C1000 1.363 . S
C1001 C1007 1.363 . S
C1002 C1003 1.363 . S
C1002 C1007 1.379 . S
C1002 N1009 1.356 . S
C1003 C1002 1.363 . S
C1003 C1006 1.363 . S
N1004 C1006 1.356 . S
N1004 H1016 0.984 . S
N1004 H1017 0.985 . S
N1005 C1007 1.356 . S
N1005 H1010 0.984 . S
N1005 H1011 0.985 . S
C1006 C1000 1.379 . S
C1006 C1003 1.363 . S
C1006 N1004 1.356 . S
C1007 C1001 1.363 . S
C1007 C1002 1.379 . S
C1007 N1005 1.356 . S
N1008 C1000 1.356 . S
N1008 H1014 0.984 . S
N1008 H1015 0.984 . S
N1009 C1002 1.356 . S
N1009 H1012 0.984 . S
N1009 H1013 0.985 . S
H1010 N1005 0.984 . S
H1011 N1005 0.985 . S
H1012 N1009 0.984 . S
H1013 N1009 0.985 . S
H1014 N1008 0.984 . S
H1015 N1008 0.984 . S
H1016 N1004 0.984 . S
H1017 N1004 0.985 . S
C1018 C1019 1.363 . S
C1018 C1024 1.379 . S
C1018 N1026 1.356 . S
C1019 C1018 1.363 . S
C1019 C1025 1.363 . S
C1020 C1021 1.363 . S
C1020 C1025 1.379 . S
C1020 N1027 1.356 . S
C1021 C1020 1.363 . S
C1021 C1024 1.363 . S
N1022 C1024 1.356 . S
N1022 H1034 0.984 . S
N1022 H1035 0.985 . S
N1023 C1025 1.356 . S
N1023 H1028 0.984 . S
N1023 H1029 0.985 . S
C1024 C1018 1.379 . S
C1024 C1021 1.363 . S
C1024 N1022 1.356 . S
C1025 C1019 1.363 . S
C1025 C1020 1.379 . S
C1025 N1023 1.356 . S
N1026 C1018 1.356 . S
N1026 H1032 0.984 . S
N1026 H1033 0.984 . S
N1027 C1020 1.356 . S
N1027 H1030 0.984 . S
N1027 H1031 0.985 . S
H1028 N1023 0.984 . S
H1029 N1023 0.985 . S
H1030 N1027 0.984 . S
H1031 N1027 0.985 . S
H1032 N1026 0.984 . S
H1033 N1026 0.984 . S
H1034 N1022 0.984 . S
H1035 N1022 0.985 . S
C1036 C1037 1.363 . S
C1036 C1042 1.379 . S
C1036 N1044 1.356 . S
C1037 C1036 1.363 . S
C1037 C1043 1.363 . S
C1038 C1039 1.363 . S
C1038 C1043 1.379 . S
C1038 N1045 1.356 . S
C1039 C1038 1.363 . S
C1039 C1042 1.363 . S
N1040 C1042 1.356 . S
N1040 H1052 0.984 . S
N1040 H1053 0.985 . S
N1041 C1043 1.356 . S
N1041 H1046 0.984 . S
N1041 H1047 0.985 . S
C1042 C1036 1.379 . S
C1042 C1039 1.363 . S
C1042 N1040 1.356 . S
C1043 C1037 1.363 . S
C1043 C1038 1.379 . S
C1043 N1041 1.356 . S
N1044 C1036 1.356 . S
N1044 H1050 0.984 . S
N1044 H1051 0.984 . S
N1045 C1038 1.356 . S
N1045 H1048 0.984 . S
N1045 H1049 0.985 . S
H1046 N1041 0.984 . S
H1047 N1041 0.985 . S
H1048 N1045 0.984 . S
H1049 N1045 0.985 . S
H1050 N1044 0.984 . S
H1051 N1044 0.984 . S
H1052 N1040 0.984 . S
H1053 N1040 0.985 . S
C1054 C1055 1.363 . S
C1054 C1060 1.379 . S
C1054 N1062 1.356 . S
C1055 C1054 1.363 . S
C1055 C1061 1.363 . S
C1056 C1057 1.363 . S
C1056 C1061 1.379 . S
C1056 N1063 1.356 . S
C1057 C1056 1.363 . S
C1057 C1060 1.363 . S
N1058 C1060 1.356 . S
N1058 H1070 0.984 . S
N1058 H1071 0.985 . S
N1059 C1061 1.356 . S
N1059 H1064 0.984 . S
N1059 H1065 0.985 . S
C1060 C1054 1.379 . S
C1060 C1057 1.363 . S
C1060 N1058 1.356 . S
C1061 C1055 1.363 . S
C1061 C1056 1.379 . S
C1061 N1059 1.356 . S
N1062 C1054 1.356 . S
N1062 H1068 0.984 . S
N1062 H1069 0.984 . S
N1063 C1056 1.356 . S
N1063 H1066 0.984 . S
N1063 H1067 0.985 . S
H1064 N1059 0.984 . S
H1065 N1059 0.985 . S
H1066 N1063 0.984 . S
H1067 N1063 0.985 . S
H1068 N1062 0.984 . S
H1069 N1062 0.984 . S
H1070 N1058 0.984 . S
H1071 N1058 0.985 . S
C1072 C1073 1.363 . S
C1072 C1078 1.379 . S
C1072 N1080 1.356 . S
C1073 C1072 1.363 . S
C1073 C1079 1.363 . S
C1074 C1075 1.363 . S
C1074 C1079 1.379 . S
C1074 N1081 1.356 . S
C1075 C1074 1.363 . S
C1075 C1078 1.363 . S
N1076 C1078 1.356 . S
N1076 H1088 0.984 . S
N1076 H1089 0.985 . S
N1077 C1079 1.356 . S
N1077 H1082 0.984 . S
N1077 H1083 0.985 . S
C1078 C1072 1.379 . S
C1078 C1075 1.363 . S
C1078 N1076 1.356 . S
C1079 C1073 1.363 . S
C1079 C1074 1.379 . S
C1079 N1077 1.356 . S
N1080 C1072 1.356 . S
N1080 H1086 0.984 . S
N1080 H1087 0.984 . S
N1081 C1074 1.356 . S
N1081 H1084 0.984 . S
N1081 H1085 0.985 . S
H1082 N1077 0.984 . S
H1083 N1077 0.985 . S
H1084 N1081 0.984 . S
H1085 N1081 0.985 . S
H1086 N1080 0.984 . S
H1087 N1080 0.984 . S
H1088 N1076 0.984 . S
H1089 N1076 0.985 . S
C1090 C1091 1.363 . S
C1090 C1096 1.379 . S
C1090 N1098 1.356 . S
C1091 C1090 1.363 . S
C1091 C1097 1.363 . S
C1092 C1093 1.363 . S
C1092 C1097 1.379 . S
C1092 N1099 1.356 . S
C1093 C1092 1.363 . S
C1093 C1096 1.363 . S
N1094 C1096 1.356 . S
N1094 H1106 0.984 . S
N1094 H1107 0.985 . S
N1095 C1097 1.356 . S
N1095 H1100 0.984 . S
N1095 H1101 0.985 . S
C1096 C1090 1.379 . S
C1096 C1093 1.363 . S
C1096 N1094 1.356 . S
C1097 C1091 1.363 . S
C1097 C1092 1.379 . S
C1097 N1095 1.356 . S
N1098 C1090 1.356 . S
N1098 H1104 0.984 . S
N1098 H1105 0.984 . S
N1099 C1092 1.356 . S
N1099 H1102 0.984 . S
N1099 H1103 0.985 . S
H1100 N1095 0.984 . S
H1101 N1095 0.985 . S
H1102 N1099 0.984 . S
H1103 N1099 0.985 . S
H1104 N1098 0.984 . S
H1105 N1098 0.984 . S
H1106 N1094 0.984 . S
H1107 N1094 0.985 . S
C1108 C1109 1.363 . S
C1108 C1114 1.379 . S
C1108 N1116 1.356 . S
C1109 C1108 1.363 . S
C1109 C1115 1.363 . S
C1110 C1111 1.363 . S
C1110 C1115 1.379 . S
C1110 N1117 1.356 . S
C1111 C1110 1.363 . S
C1111 C1114 1.363 . S
N1112 C1114 1.356 . S
N1112 H1124 0.984 . S
N1112 H1125 0.985 . S
N1113 C1115 1.356 . S
N1113 H1118 0.984 1_545 S
N1113 H1119 0.985 1_545 S
C1114 C1108 1.379 . S
C1114 C1111 1.363 . S
C1114 N1112 1.356 . S
C1115 C1109 1.363 . S
C1115 C1110 1.379 . S
C1115 N1113 1.356 . S
N1116 C1108 1.356 . S
N1116 H1122 0.984 . S
N1116 H1123 0.984 . S
N1117 C1110 1.356 . S
N1117 H1120 0.984 . S
N1117 H1121 0.985 . S
H1118 N1113 0.984 1_565 S
H1119 N1113 0.985 1_565 S
H1120 N1117 0.984 . S
H1121 N1117 0.985 . S
H1122 N1116 0.984 . S
H1123 N1116 0.984 . S
H1124 N1112 0.984 . S
H1125 N1112 0.985 . S
C1126 C1127 1.363 . S
C1126 C1132 1.379 . S
C1126 N1134 1.356 . S
C1127 C1126 1.363 . S
C1127 C1133 1.363 . S
C1128 C1129 1.363 . S
C1128 C1133 1.379 . S
C1128 N1135 1.356 . S
C1129 C1128 1.363 . S
C1129 C1132 1.363 . S
N1130 C1132 1.356 . S
N1130 H1142 0.984 1_545 S
N1130 H1143 0.985 . S
N1131 C1133 1.356 . S
N1131 H1136 0.984 . S
N1131 H1137 0.985 . S
C1132 C1126 1.379 . S
C1132 C1129 1.363 . S
C1132 N1130 1.356 . S
C1133 C1127 1.363 . S
C1133 C1128 1.379 . S
C1133 N1131 1.356 . S
N1134 C1126 1.356 . S
N1134 H1140 0.984 . S
N1134 H1141 0.984 . S
N1135 C1128 1.356 . S
N1135 H1138 0.984 . S
N1135 H1139 0.985 . S
H1136 N1131 0.984 . S
H1137 N1131 0.985 . S
H1138 N1135 0.984 . S
H1139 N1135 0.985 . S
H1140 N1134 0.984 . S
H1141 N1134 0.984 . S
H1142 N1130 0.984 1_565 S
H1143 N1130 0.985 . S
C1144 C1145 1.363 . S
C1144 C1150 1.379 . S
C1144 N1152 1.356 . S
C1145 C1144 1.363 . S
C1145 C1151 1.363 . S
C1146 C1147 1.363 . S
C1146 C1151 1.379 . S
C1146 N1153 1.356 . S
C1147 C1146 1.363 . S
C1147 C1150 1.363 . S
N1148 C1150 1.356 . S
N1148 H1160 0.984 . S
N1148 H1161 0.985 . S
N1149 C1151 1.356 . S
N1149 H1154 0.984 . S
N1149 H1155 0.985 . S
C1150 C1144 1.379 . S
C1150 C1147 1.363 . S
C1150 N1148 1.356 . S
C1151 C1145 1.363 . S
C1151 C1146 1.379 . S
C1151 N1149 1.356 . S
N1152 C1144 1.356 . S
N1152 H1158 0.984 . S
N1152 H1159 0.984 . S
N1153 C1146 1.356 . S
N1153 H1156 0.984 . S
N1153 H1157 0.985 . S
H1154 N1149 0.984 . S
H1155 N1149 0.985 . S
H1156 N1153 0.984 . S
H1157 N1153 0.985 . S
H1158 N1152 0.984 . S
H1159 N1152 0.984 . S
H1160 N1148 0.984 . S
H1161 N1148 0.985 . S
C1162 C1163 1.363 . S
C1162 C1168 1.379 . S
C1162 N1170 1.356 . S
C1163 C1162 1.363 . S
C1163 C1169 1.363 . S
C1164 C1165 1.363 . S
C1164 C1169 1.379 . S
C1164 N1171 1.356 . S
C1165 C1164 1.363 . S
C1165 C1168 1.363 . S
N1166 C1168 1.356 . S
N1166 H1178 0.984 . S
N1166 H1179 0.985 . S
N1167 C1169 1.356 . S
N1167 H1172 0.984 . S
N1167 H1173 0.985 . S
C1168 C1162 1.379 . S
C1168 C1165 1.363 . S
C1168 N1166 1.356 . S
C1169 C1163 1.363 . S
C1169 C1164 1.379 . S
C1169 N1167 1.356 . S
N1170 C1162 1.356 . S
N1170 H1176 0.984 . S
N1170 H1177 0.984 . S
N1171 C1164 1.356 . S
N1171 H1174 0.984 . S
N1171 H1175 0.985 . S
H1172 N1167 0.984 . S
H1173 N1167 0.985 . S
H1174 N1171 0.984 . S
H1175 N1171 0.985 . S
H1176 N1170 0.984 . S
H1177 N1170 0.984 . S
H1178 N1166 0.984 . S
H1179 N1166 0.985 . S
C1180 C1181 1.363 . S
C1180 C1186 1.379 . S
C1180 N1188 1.356 . S
C1181 C1180 1.363 . S
C1181 C1187 1.363 . S
C1182 C1183 1.363 . S
C1182 C1187 1.379 . S
C1182 N1189 1.356 . S
C1183 C1182 1.363 . S
C1183 C1186 1.363 . S
N1184 C1186 1.356 . S
N1184 H1196 0.984 . S
N1184 H1197 0.985 . S
N1185 C1187 1.356 . S
N1185 H1190 0.984 1_565 S
N1185 H1191 0.985 1_565 S
C1186 C1180 1.379 . S
C1186 C1183 1.363 . S
C1186 N1184 1.356 . S
C1187 C1181 1.363 . S
C1187 C1182 1.379 . S
C1187 N1185 1.356 . S
N1188 C1180 1.356 . S
N1188 H1194 0.984 . S
N1188 H1195 0.984 . S
N1189 C1182 1.356 . S
N1189 H1192 0.984 . S
N1189 H1193 0.985 . S
H1190 N1185 0.984 1_545 S
H1191 N1185 0.985 1_545 S
H1192 N1189 0.984 . S
H1193 N1189 0.985 . S
H1194 N1188 0.984 . S
H1195 N1188 0.984 . S
H1196 N1184 0.984 . S
H1197 N1184 0.985 . S
C1198 C1199 1.363 . S
C1198 C1204 1.379 . S
C1198 N1206 1.356 . S
C1199 C1198 1.363 . S
C1199 C1205 1.363 . S
C1200 C1201 1.363 . S
C1200 C1205 1.379 . S
C1200 N1207 1.356 . S
C1201 C1200 1.363 . S
C1201 C1204 1.363 . S
N1202 C1204 1.356 . S
N1202 H1214 0.984 . S
N1202 H1215 0.985 . S
N1203 C1205 1.356 . S
N1203 H1208 0.984 . S
N1203 H1209 0.985 . S
C1204 C1198 1.379 . S
C1204 C1201 1.363 . S
C1204 N1202 1.356 . S
C1205 C1199 1.363 . S
C1205 C1200 1.379 . S
C1205 N1203 1.356 . S
N1206 C1198 1.356 . S
N1206 H1212 0.984 . S
N1206 H1213 0.984 . S
N1207 C1200 1.356 . S
N1207 H1210 0.984 . S
N1207 H1211 0.985 . S
H1208 N1203 0.984 . S
H1209 N1203 0.985 . S
H1210 N1207 0.984 . S
H1211 N1207 0.985 . S
H1212 N1206 0.984 . S
H1213 N1206 0.984 . S
H1214 N1202 0.984 . S
H1215 N1202 0.985 . S
C1216 C1217 1.363 . S
C1216 C1222 1.379 . S
C1216 N1224 1.356 . S
C1217 C1216 1.363 . S
C1217 C1223 1.363 . S
C1218 C1219 1.363 . S
C1218 C1223 1.379 . S
C1218 N1225 1.356 . S
C1219 C1218 1.363 . S
C1219 C1222 1.363 . S
N1220 C1222 1.356 . S
N1220 H1232 0.984 . S
N1220 H1233 0.985 . S
N1221 C1223 1.356 1_554 S
N1221 H1226 0.984 . S
N1221 H1227 0.985 . S
C1222 C1216 1.379 . S
C1222 C1219 1.363 . S
C1222 N1220 1.356 . S
C1223 C1217 1.363 . S
C1223 C1218 1.379 . S
C1223 N1221 1.356 1_556 S
N1224 C1216 1.356 . S
N1224 H1230 0.984 . S
N1224 H1231 0.984 1_556 S
N1225 C1218 1.356 . S
N1225 H1228 0.984 . S
N1225 H1229 0.985 . S
H1226 N1221 0.984 . S
H1227 N1221 0.985 . S
H1228 N1225 0.984 . S
H1229 N1225 0.985 . S
H1230 N1224 0.984 . S
H1231 N1224 0.984 1_554 S
H1232 N1220 0.984 . S
H1233 N1220 0.985 . S
C1234 C1235 1.363 . S
C1234 C1240 1.379 . S
C1234 N1242 1.356 . S
C1235 C1234 1.363 . S
C1235 C1241 1.363 . S
C1236 C1237 1.363 . S
C1236 C1241 1.379 . S
C1236 N1243 1.356 . S
C1237 C1236 1.363 . S
C1237 C1240 1.363 . S
N1238 C1240 1.356 . S
N1238 H1250 0.984 . S
N1238 H1251 0.985 . S
N1239 C1241 1.356 . S
N1239 H1244 0.984 . S
N1239 H1245 0.985 . S
C1240 C1234 1.379 . S
C1240 C1237 1.363 . S
C1240 N1238 1.356 . S
C1241 C1235 1.363 . S
C1241 C1236 1.379 . S
C1241 N1239 1.356 . S
N1242 C1234 1.356 . S
N1242 H1248 0.984 . S
N1242 H1249 0.984 . S
N1243 C1236 1.356 . S
N1243 H1246 0.984 . S
N1243 H1247 0.985 . S
H1244 N1239 0.984 . S
H1245 N1239 0.985 . S
H1246 N1243 0.984 . S
H1247 N1243 0.985 . S
H1248 N1242 0.984 . S
H1249 N1242 0.984 . S
H1250 N1238 0.984 . S
H1251 N1238 0.985 . S
C1252 C1253 1.363 . S
C1252 C1258 1.379 . S
C1252 N1260 1.356 . S
C1253 C1252 1.363 . S
C1253 C1259 1.363 . S
C1254 C1255 1.363 . S
C1254 C1259 1.379 . S
C1254 N1261 1.356 . S
C1255 C1254 1.363 . S
C1255 C1258 1.363 . S
N1256 C1258 1.356 . S
N1256 H1268 0.984 . S
N1256 H1269 0.985 . S
N1257 C1259 1.356 . S
N1257 H1262 0.984 . S
N1257 H1263 0.985 . S
C1258 C1252 1.379 . S
C1258 C1255 1.363 . S
C1258 N1256 1.356 . S
C1259 C1253 1.363 . S
C1259 C1254 1.379 . S
C1259 N1257 1.356 . S
N1260 C1252 1.356 . S
N1260 H1266 0.984 . S
N1260 H1267 0.984 . S
N1261 C1254 1.356 . S
N1261 H1264 0.984 . S
N1261 H1265 0.985 . S
H1262 N1257 0.984 . S
H1263 N1257 0.985 . S
H1264 N1261 0.984 . S
H1265 N1261 0.985 . S
H1266 N1260 0.984 . S
H1267 N1260 0.984 . S
H1268 N1256 0.984 . S
H1269 N1256 0.985 . S
C1270 C1271 1.363 . S
C1270 C1276 1.379 . S
C1270 N1278 1.356 . S
C1271 C1270 1.363 . S
C1271 C1277 1.363 . S
C1272 C1273 1.363 . S
C1272 C1277 1.379 . S
C1272 N1279 1.356 . S
C1273 C1272 1.363 . S
C1273 C1276 1.363 . S
N1274 C1276 1.356 . S
N1274 H1286 0.984 . S
N1274 H1287 0.985 . S
N1275 C1277 1.356 . S
N1275 H1280 0.984 . S
N1275 H1281 0.985 . S
C1276 C1270 1.379 . S
C1276 C1273 1.363 . S
C1276 N1274 1.356 . S
C1277 C1271 1.363 . S
C1277 C1272 1.379 . S
C1277 N1275 1.356 . S
N1278 C1270 1.356 . S
N1278 H1284 0.984 . S
N1278 H1285 0.984 . S
N1279 C1272 1.356 . S
N1279 H1282 0.984 . S
N1279 H1283 0.985 . S
H1280 N1275 0.984 . S
H1281 N1275 0.985 . S
H1282 N1279 0.984 . S
H1283 N1279 0.985 . S
H1284 N1278 0.984 . S
H1285 N1278 0.984 . S
H1286 N1274 0.984 . S
H1287 N1274 0.985 . S
C1288 C1289 1.363 . S
C1288 C1294 1.379 . S
C1288 N1296 1.356 . S
C1289 C1288 1.363 . S
C1289 C1295 1.363 . S
C1290 C1291 1.363 . S
C1290 C1295 1.379 . S
C1290 N1297 1.356 1_554 S
C1291 C1290 1.363 . S
C1291 C1294 1.363 . S
N1292 C1294 1.356 . S
N1292 H1304 0.984 . S
N1292 H1305 0.985 . S
N1293 C1295 1.356 . S
N1293 H1298 0.984 . S
N1293 H1299 0.985 . S
C1294 C1288 1.379 . S
C1294 C1291 1.363 . S
C1294 N1292 1.356 . S
C1295 C1289 1.363 . S
C1295 C1290 1.379 . S
C1295 N1293 1.356 . S
N1296 C1288 1.356 . S
N1296 H1302 0.984 . S
N1296 H1303 0.984 . S
N1297 C1290 1.356 1_556 S
N1297 H1300 0.984 . S
N1297 H1301 0.985 . S
H1298 N1293 0.984 . S
H1299 N1293 0.985 . S
H1300 N1297 0.984 . S
H1301 N1297 0.985 . S
H1302 N1296 0.984 . S
H1303 N1296 0.984 . S
H1304 N1292 0.984 . S
H1305 N1292 0.985 . S
C1306 C1307 1.363 . S
C1306 C1312 1.379 . S
C1306 N1314 1.356 . S
C1307 C1306 1.363 . S
C1307 C1313 1.363 . S
C1308 C1309 1.363 . S
C1308 C1313 1.379 . S
C1308 N1315 1.356 . S
C1309 C1308 1.363 . S
C1309 C1312 1.363 . S
N1310 C1312 1.356 . S
N1310 H1322 0.984 . S
N1310 H1323 0.985 . S
N1311 C1313 1.356 . S
N1311 H1316 0.984 . S
N1311 H1317 0.985 . S
C1312 C1306 1.379 . S
C1312 C1309 1.363 . S
C1312 N1310 1.356 . S
C1313 C1307 1.363 . S
C1313 C1308 1.379 . S
C1313 N1311 1.356 . S
N1314 C1306 1.356 . S
N1314 H1320 0.984 . S
N1314 H1321 0.984 . S
N1315 C1308 1.356 . S
N1315 H1318 0.984 . S
N1315 H1319 0.985 . S
H1316 N1311 0.984 . S
H1317 N1311 0.985 . S
H1318 N1315 0.984 . S
H1319 N1315 0.985 . S
H1320 N1314 0.984 . S
H1321 N1314 0.984 . S
H1322 N1310 0.984 . S
H1323 N1310 0.985 . S
C1324 C1325 1.363 . S
C1324 C1330 1.379 . S
C1324 N1332 1.356 . S
C1325 C1324 1.363 . S
C1325 C1331 1.363 . S
C1326 C1327 1.363 . S
C1326 C1331 1.379 . S
C1326 N1333 1.356 . S
C1327 C1326 1.363 . S
C1327 C1330 1.363 . S
N1328 C1330 1.356 . S
N1328 H1340 0.984 . S
N1328 H1341 0.985 . S
N1329 C1331 1.356 . S
N1329 H1334 0.984 . S
N1329 H1335 0.985 . S
C1330 C1324 1.379 . S
C1330 C1327 1.363 . S
C1330 N1328 1.356 . S
C1331 C1325 1.363 . S
C1331 C1326 1.379 . S
C1331 N1329 1.356 . S
N1332 C1324 1.356 . S
N1332 H1338 0.984 . S
N1332 H1339 0.984 . S
N1333 C1326 1.356 . S
N1333 H1336 0.984 . S
N1333 H1337 0.985 . S
H1334 N1329 0.984 . S
H1335 N1329 0.985 . S
H1336 N1333 0.984 . S
H1337 N1333 0.985 . S
H1338 N1332 0.984 . S
H1339 N1332 0.984 . S
H1340 N1328 0.984 . S
H1341 N1328 0.985 . S
C1342 C1343 1.363 . S
C1342 C1348 1.379 . S
C1342 N1350 1.356 . S
C1343 C1342 1.363 . S
C1343 C1349 1.363 . S
C1344 C1345 1.363 . S
C1344 C1349 1.379 . S
C1344 N1351 1.356 . S
C1345 C1344 1.363 . S
C1345 C1348 1.363 . S
N1346 C1348 1.356 . S
N1346 H1358 0.984 . S
N1346 H1359 0.985 . S
N1347 C1349 1.356 . S
N1347 H1352 0.984 . S
N1347 H1353 0.985 . S
C1348 C1342 1.379 . S
C1348 C1345 1.363 . S
C1348 N1346 1.356 . S
C1349 C1343 1.363 . S
C1349 C1344 1.379 . S
C1349 N1347 1.356 . S
N1350 C1342 1.356 . S
N1350 H1356 0.984 . S
N1350 H1357 0.984 . S
N1351 C1344 1.356 . S
N1351 H1354 0.984 . S
N1351 H1355 0.985 . S
H1352 N1347 0.984 . S
H1353 N1347 0.985 . S
H1354 N1351 0.984 . S
H1355 N1351 0.985 . S
H1356 N1350 0.984 . S
H1357 N1350 0.984 . S
H1358 N1346 0.984 . S
H1359 N1346 0.985 . S
C1360 C1361 1.363 . S
C1360 C1366 1.379 . S
C1360 N1368 1.356 . S
C1361 C1360 1.363 . S
C1361 C1367 1.363 . S
C1362 C1363 1.363 . S
C1362 C1367 1.379 . S
C1362 N1369 1.356 . S
C1363 C1362 1.363 . S
C1363 C1366 1.363 . S
N1364 C1366 1.356 . S
N1364 H1376 0.984 . S
N1364 H1377 0.985 . S
N1365 C1367 1.356 . S
N1365 H1370 0.984 . S
N1365 H1371 0.985 . S
C1366 C1360 1.379 . S
C1366 C1363 1.363 . S
C1366 N1364 1.356 . S
C1367 C1361 1.363 . S
C1367 C1362 1.379 . S
C1367 N1365 1.356 . S
N1368 C1360 1.356 . S
N1368 H1374 0.984 . S
N1368 H1375 0.984 . S
N1369 C1362 1.356 . S
N1369 H1372 0.984 . S
N1369 H1373 0.985 . S
H1370 N1365 0.984 . S
H1371 N1365 0.985 . S
H1372 N1369 0.984 . S
H1373 N1369 0.985 . S
H1374 N1368 0.984 . S
H1375 N1368 0.984 . S
H1376 N1364 0.984 . S
H1377 N1364 0.985 . S
C1378 C1379 1.363 . S
C1378 C1384 1.379 . S
C1378 N1386 1.356 . S
C1379 C1378 1.363 . S
C1379 C1385 1.363 . S
C1380 C1381 1.363 . S
C1380 C1385 1.379 . S
C1380 N1387 1.356 1_565 S
C1381 C1380 1.363 . S
C1381 C1384 1.363 . S
N1382 C1384 1.356 . S
N1382 H1394 0.984 . S
N1382 H1395 0.985 . S
N1383 C1385 1.356 . S
N1383 H1388 0.984 . S
N1383 H1389 0.985 . S
C1384 C1378 1.379 . S
C1384 C1381 1.363 . S
C1384 N1382 1.356 . S
C1385 C1379 1.363 . S
C1385 C1380 1.379 . S
C1385 N1383 1.356 . S
N1386 C1378 1.356 . S
N1386 H1392 0.984 . S
N1386 H1393 0.984 . S
N1387 C1380 1.356 1_545 S
N1387 H1390 0.984 . S
N1387 H1391 0.985 . S
H1388 N1383 0.984 . S
H1389 N1383 0.985 . S
H1390 N1387 0.984 . S
H1391 N1387 0.985 . S
H1392 N1386 0.984 . S
H1393 N1386 0.984 . S
H1394 N1382 0.984 . S
H1395 N1382 0.985 . S
C1396 C1397 1.363 . S
C1396 C1402 1.379 . S
C1396 N1404 1.356 . S
C1397 C1396 1.363 . S
C1397 C1403 1.363 . S
C1398 C1399 1.363 . S
C1398 C1403 1.379 . S
C1398 N1405 1.356 1_556 S
C1399 C1398 1.363 . S
C1399 C1402 1.363 . S
N1400 C1402 1.356 . S
N1400 H1412 0.984 . S
N1400 H1413 0.985 . S
N1401 C1403 1.356 . S
N1401 H1406 0.984 . S
N1401 H1407 0.985 . S
C1402 C1396 1.379 . S
C1402 C1399 1.363 . S
C1402 N1400 1.356 . S
C1403 C1397 1.363 . S
C1403 C1398 1.379 . S
C1403 N1401 1.356 . S
N1404 C1396 1.356 . S
N1404 H1410 0.984 . S
N1404 H1411 0.984 . S
N1405 C1398 1.356 1_554 S
N1405 H1408 0.984 . S
N1405 H1409 0.985 . S
H1406 N1401 0.984 . S
H1407 N1401 0.985 . S
H1408 N1405 0.984 . S
H1409 N1405 0.985 . S
H1410 N1404 0.984 . S
H1411 N1404 0.984 . S
H1412 N1400 0.984 . S
H1413 N1400 0.985 . S
C1414 C1415 1.363 . S
C1414 C1420 1.379 . S
C1414 N1422 1.356 . S
C1415 C1414 1.363 . S
C1415 C1421 1.363 . S
C1416 C1417 1.363 . S
C1416 C1421 1.379 . S
C1416 N1423 1.356 . S
C1417 C1416 1.363 . S
C1417 C1420 1.363 . S
N1418 C1420 1.356 . S
N1418 H1430 0.984 . S
N1418 H1431 0.985 . S
N1419 C1421 1.356 1_565 S
N1419 H1424 0.984 . S
N1419 H1425 0.985 . S
C1420 C1414 1.379 . S
C1420 C1417 1.363 . S
C1420 N1418 1.356 . S
C1421 C1415 1.363 . S
C1421 C1416 1.379 . S
C1421 N1419 1.356 1_545 S
N1422 C1414 1.356 . S
N1422 H1428 0.984 . S
N1422 H1429 0.984 . S
N1423 C1416 1.356 . S
N1423 H1426 0.984 . S
N1423 H1427 0.985 . S
H1424 N1419 0.984 . S
H1425 N1419 0.985 . S
H1426 N1423 0.984 . S
H1427 N1423 0.985 . S
H1428 N1422 0.984 . S
H1429 N1422 0.984 . S
H1430 N1418 0.984 . S
H1431 N1418 0.985 . S
C1432 C1433 1.363 . S
C1432 C1438 1.379 . S
C1432 N1440 1.356 . S
C1433 C1432 1.363 . S
C1433 C1439 1.363 . S
C1434 C1435 1.363 . S
C1434 C1439 1.379 . S
C1434 N1441 1.356 . S
C1435 C1434 1.363 . S
C1435 C1438 1.363 . S
N1436 C1438 1.356 . S
N1436 H1448 0.984 . S
N1436 H1449 0.985 . S
N1437 C1439 1.356 . S
N1437 H1442 0.984 . S
N1437 H1443 0.985 . S
C1438 C1432 1.379 . S
C1438 C1435 1.363 . S
C1438 N1436 1.356 . S
C1439 C1433 1.363 . S
C1439 C1434 1.379 . S
C1439 N1437 1.356 . S
N1440 C1432 1.356 . S
N1440 H1446 0.984 . S
N1440 H1447 0.984 . S
N1441 C1434 1.356 . S
N1441 H1444 0.984 . S
N1441 H1445 0.985 . S
H1442 N1437 0.984 . S
H1443 N1437 0.985 . S
H1444 N1441 0.984 . S
H1445 N1441 0.985 . S
H1446 N1440 0.984 . S
H1447 N1440 0.984 . S
H1448 N1436 0.984 . S
H1449 N1436 0.985 . S
C1450 C1451 1.363 . S
C1450 C1456 1.379 . S
C1450 N1458 1.356 . S
C1451 C1450 1.363 . S
C1451 C1457 1.363 . S
C1452 C1453 1.363 . S
C1452 C1457 1.379 . S
C1452 N1459 1.356 . S
C1453 C1452 1.363 . S
C1453 C1456 1.363 . S
N1454 C1456 1.356 1_565 S
N1454 H1466 0.984 . S
N1454 H1467 0.985 . S
N1455 C1457 1.356 . S
N1455 H1460 0.984 . S
N1455 H1461 0.985 . S
C1456 C1450 1.379 . S
C1456 C1453 1.363 . S
C1456 N1454 1.356 1_545 S
C1457 C1451 1.363 . S
C1457 C1452 1.379 . S
C1457 N1455 1.356 . S
N1458 C1450 1.356 . S
N1458 H1464 0.984 . S
N1458 H1465 0.984 . S
N1459 C1452 1.356 . S
N1459 H1462 0.984 . S
N1459 H1463 0.985 . S
H1460 N1455 0.984 . S
H1461 N1455 0.985 . S
H1462 N1459 0.984 . S
H1463 N1459 0.985 . S
H1464 N1458 0.984 . S
H1465 N1458 0.984 . S
H1466 N1454 0.984 . S
H1467 N1454 0.985 . S
C1468 C1469 1.363 . S
C1468 C1474 1.379 . S
C1468 N1476 1.356 . S
C1469 C1468 1.363 . S
C1469 C1475 1.363 . S
C1470 C1471 1.363 . S
C1470 C1475 1.379 . S
C1470 N1477 1.356 1_554 S
C1471 C1470 1.363 . S
C1471 C1474 1.363 . S
N1472 C1474 1.356 . S
N1472 H1484 0.984 . S
N1472 H1485 0.985 . S
N1473 C1475 1.356 . S
N1473 H1478 0.984 . S
N1473 H1479 0.985 . S
C1474 C1468 1.379 . S
C1474 C1471 1.363 . S
C1474 N1472 1.356 . S
C1475 C1469 1.363 . S
C1475 C1470 1.379 . S
C1475 N1473 1.356 . S
N1476 C1468 1.356 . S
N1476 H1482 0.984 . S
N1476 H1483 0.984 . S
N1477 C1470 1.356 1_556 S
N1477 H1480 0.984 . S
N1477 H1481 0.985 . S
H1478 N1473 0.984 . S
H1479 N1473 0.985 . S
H1480 N1477 0.984 . S
H1481 N1477 0.985 . S
H1482 N1476 0.984 . S
H1483 N1476 0.984 . S
H1484 N1472 0.984 . S
H1485 N1472 0.985 . S
C1486 C1487 1.363 . S
C1486 C1492 1.379 . S
C1486 N1494 1.356 . S
C1487 C1486 1.363 . S
C1487 C1493 1.363 . S
C1488 C1489 1.363 . S
C1488 C1493 1.379 . S
C1488 N1495 1.356 . S
C1489 C1488 1.363 . S
C1489 C1492 1.363 . S
N1490 C1492 1.356 1_545 S
N1490 H1502 0.984 . S
N1490 H1503 0.985 . S
N1491 C1493 1.356 . S
N1491 H1496 0.984 . S
N1491 H1497 0.985 . S
C1492 C1486 1.379 . S
C1492 C1489 1.363 . S
C1492 N1490 1.356 1_565 S
C1493 C1487 1.363 . S
C1493 C1488 1.379 . S
C1493 N1491 1.356 . S
N1494 C1486 1.356 . S
N1494 H1500 0.984 . S
N1494 H1501 0.984 . S
N1495 C1488 1.356 . S
N1495 H1498 0.984 . S
N1495 H1499 0.985 . S
H1496 N1491 0.984 . S
H1497 N1491 0.985 . S
H1498 N1495 0.984 . S
H1499 N1495 0.985 . S
H1500 N1494 0.984 . S
H1501 N1494 0.984 . S
H1502 N1490 0.984 . S
H1503 N1490 0.985 . S
C641 C9 3.005 . S
C643 C409 3.005 . S
C659 C49 3.005 . S
C661 C449 3.005 . S
C677 C89 3.005 . S
C679 C329 3.005 . S
C695 C369 3.005 . S
C697 C129 3.005 . S
C713 C178 3.005 . S
C715 C578 3.005 . S
C731 C618 3.005 . S
C733 C218 3.005 . S
C749 C498 3.005 . S
C751 C258 3.005 . S
C767 C298 3.005 . S
C769 C538 3.005 . S
C785 C15 1.466 1_556 S
C787 C166 1.466 1_554 S
C803 C55 1.466 . S
C805 C526 1.466 . S
C821 C95 1.466 . S
C823 C246 1.466 . S
C839 C135 1.466 . S
C841 C606 1.466 . S
C857 C206 1.466 . S
C859 C375 1.466 . S
C875 C455 1.466 . S
C877 C286 1.466 . S
C893 C486 1.466 . S
C895 C335 1.466 . S
C911 C415 1.466 1_556 S
C913 C566 1.466 1_554 S
C929 C6 1.608 . S
C931 C289 1.901 . S
C947 C46 1.608 . S
C949 C489 1.901 . S
C965 C86 1.608 . S
C967 C209 1.901 . S
C983 C126 1.608 . S
C985 C569 1.901 . S
C1001 C138 1.901 . S
C1003 C175 1.608 . S
C1019 C215 1.608 . S
C1021 C338 1.901 . S
C1037 C255 1.608 . S
C1039 C58 1.901 . S
C1055 C418 1.901 . S
C1057 C295 1.608 . S
C1073 C326 1.608 . S
C1075 C609 1.901 . S
C1091 C169 1.901 . S
C1093 C366 1.608 . S
C1109 C529 1.901 . S
C1111 C406 1.608 . S
C1127 C249 1.901 . S
C1129 C446 1.608 . S
C1145 C495 1.608 . S
C1147 C458 1.901 . S
C1163 C535 1.608 . S
C1165 C18 1.901 . S
C1181 C378 1.901 . S
C1183 C575 1.608 . S
C1199 C615 1.608 . S
C1201 C98 1.901 . S
C1217 C19 4.042 1_556 S
C1219 C370 4.089 . S
C1235 C410 4.089 . S
C1237 C59 4.041 . S
C1253 C99 4.042 . S
C1255 C450 4.089 . S
C1271 C330 4.089 . S
C1273 C139 4.042 . S
C1289 C539 4.089 . S
C1291 C170 4.042 1_554 S
C1307 C579 4.089 . S
C1309 C210 4.041 . S
C1325 C619 4.089 . S
C1327 C250 4.042 . S
C1343 C499 4.089 . S
C1345 C290 4.042 . S
C1361 C50 4.089 . S
C1363 C339 4.041 . S
C1379 C90 4.089 . S
C1381 C379 4.042 1_565 S
C1397 C130 4.089 . S
C1399 C419 4.042 1_556 S
C1415 C459 4.042 1_545 S
C1417 C10 4.089 . S
C1433 C219 4.089 . S
C1435 C490 4.041 . S
C1451 C259 4.089 . S
C1453 C530 4.042 1_545 S
C1469 C299 4.089 . S
C1471 C570 4.042 1_554 S
C1487 C179 4.089 . S
C1489 C610 4.041 1_565 S
