# Generated by pormake.
# Topology unv, (4)-cn, num edge types: 1
# Building blocks:
#     Node 0, Type 0, BuildingBlock: QUQFOY_clean_sbu_1, # of connection points: 4
#     Node 1, Type 0, BuildingBlock: QUQFOY_clean_sbu_1, # of connection points: 4
#     Node 2, Type 0, BuildingBlock: QUQFOY_clean_sbu_1, # of connection points: 4
#     Node 3, Type 0, BuildingBlock: QUQFOY_clean_sbu_1, # of connection points: 4
#     Node 4, Type 0, BuildingBlock: QUQFOY_clean_sbu_1, # of connection points: 4
#     Node 5, Type 0, BuildingBlock: QUQFOY_clean_sbu_1, # of connection points: 4
#     Node 6, Type 0, BuildingBlock: QUQFOY_clean_sbu_1, # of connection points: 4
#     Node 7, Type 0, BuildingBlock: QUQFOY_clean_sbu_1, # of connection points: 4
#     Node 8, Type 0, BuildingBlock: QUQFOY_clean_sbu_1, # of connection points: 4
#     Node 9, Type 0, BuildingBlock: QUQFOY_clean_sbu_1, # of connection points: 4
#     Node 10, Type 0, BuildingBlock: QUQFOY_clean_sbu_1, # of connection points: 4
#     Node 11, Type 0, BuildingBlock: QUQFOY_clean_sbu_1, # of connection points: 4
#     Node 12, Type 0, BuildingBlock: QUQFOY_clean_sbu_1, # of connection points: 4
#     Node 13, Type 0, BuildingBlock: QUQFOY_clean_sbu_1, # of connection points: 4
#     Node 14, Type 0, BuildingBlock: QUQFOY_clean_sbu_1, # of connection points: 4
#     Node 15, Type 0, BuildingBlock: QUQFOY_clean_sbu_1, # of connection points: 4
#     Node 16, Type 0, BuildingBlock: QUQFOY_clean_sbu_1, # of connection points: 4
#     Node 17, Type 0, BuildingBlock: QUQFOY_clean_sbu_1, # of connection points: 4
#     Node 18, Type 0, BuildingBlock: QUQFOY_clean_sbu_1, # of connection points: 4
#     Node 19, Type 0, BuildingBlock: QUQFOY_clean_sbu_1, # of connection points: 4
#     Node 20, Type 0, BuildingBlock: QUQFOY_clean_sbu_1, # of connection points: 4
#     Node 21, Type 0, BuildingBlock: QUQFOY_clean_sbu_1, # of connection points: 4
#     Node 22, Type 0, BuildingBlock: QUQFOY_clean_sbu_1, # of connection points: 4
#     Node 23, Type 0, BuildingBlock: QUQFOY_clean_sbu_1, # of connection points: 4
#     Edge 24, Type (0, 0), BuildingBlock: OJICUG_clean_linker_0, # of connection points: 2
#     Edge 25, Type (0, 0), BuildingBlock: OJICUG_clean_linker_0, # of connection points: 2
#     Edge 26, Type (0, 0), BuildingBlock: OJICUG_clean_linker_0, # of connection points: 2
#     Edge 27, Type (0, 0), BuildingBlock: OJICUG_clean_linker_0, # of connection points: 2
#     Edge 28, Type (0, 0), BuildingBlock: OJICUG_clean_linker_0, # of connection points: 2
#     Edge 29, Type (0, 0), BuildingBlock: OJICUG_clean_linker_0, # of connection points: 2
#     Edge 30, Type (0, 0), BuildingBlock: OJICUG_clean_linker_0, # of connection points: 2
#     Edge 31, Type (0, 0), BuildingBlock: OJICUG_clean_linker_0, # of connection points: 2
#     Edge 32, Type (0, 0), BuildingBlock: OJICUG_clean_linker_0, # of connection points: 2
#     Edge 33, Type (0, 0), BuildingBlock: OJICUG_clean_linker_0, # of connection points: 2
#     Edge 34, Type (0, 0), BuildingBlock: OJICUG_clean_linker_0, # of connection points: 2
#     Edge 35, Type (0, 0), BuildingBlock: OJICUG_clean_linker_0, # of connection points: 2
#     Edge 36, Type (0, 0), BuildingBlock: OJICUG_clean_linker_0, # of connection points: 2
#     Edge 37, Type (0, 0), BuildingBlock: OJICUG_clean_linker_0, # of connection points: 2
#     Edge 38, Type (0, 0), BuildingBlock: OJICUG_clean_linker_0, # of connection points: 2
#     Edge 39, Type (0, 0), BuildingBlock: OJICUG_clean_linker_0, # of connection points: 2
#     Edge 40, Type (0, 0), BuildingBlock: OJICUG_clean_linker_0, # of connection points: 2
#     Edge 41, Type (0, 0), BuildingBlock: OJICUG_clean_linker_0, # of connection points: 2
#     Edge 42, Type (0, 0), BuildingBlock: OJICUG_clean_linker_0, # of connection points: 2
#     Edge 43, Type (0, 0), BuildingBlock: OJICUG_clean_linker_0, # of connection points: 2
#     Edge 44, Type (0, 0), BuildingBlock: OJICUG_clean_linker_0, # of connection points: 2
#     Edge 45, Type (0, 0), BuildingBlock: OJICUG_clean_linker_0, # of connection points: 2
#     Edge 46, Type (0, 0), BuildingBlock: OJICUG_clean_linker_0, # of connection points: 2
#     Edge 47, Type (0, 0), BuildingBlock: OJICUG_clean_linker_0, # of connection points: 2
#     Edge 48, Type (0, 0), BuildingBlock: OJICUG_clean_linker_0, # of connection points: 2
#     Edge 49, Type (0, 0), BuildingBlock: OJICUG_clean_linker_0, # of connection points: 2
#     Edge 50, Type (0, 0), BuildingBlock: OJICUG_clean_linker_0, # of connection points: 2
#     Edge 51, Type (0, 0), BuildingBlock: OJICUG_clean_linker_0, # of connection points: 2
#     Edge 52, Type (0, 0), BuildingBlock: OJICUG_clean_linker_0, # of connection points: 2
#     Edge 53, Type (0, 0), BuildingBlock: OJICUG_clean_linker_0, # of connection points: 2
#     Edge 54, Type (0, 0), BuildingBlock: OJICUG_clean_linker_0, # of connection points: 2
#     Edge 55, Type (0, 0), BuildingBlock: OJICUG_clean_linker_0, # of connection points: 2
#     Edge 56, Type (0, 0), BuildingBlock: OJICUG_clean_linker_0, # of connection points: 2
#     Edge 57, Type (0, 0), BuildingBlock: OJICUG_clean_linker_0, # of connection points: 2
#     Edge 58, Type (0, 0), BuildingBlock: OJICUG_clean_linker_0, # of connection points: 2
#     Edge 59, Type (0, 0), BuildingBlock: OJICUG_clean_linker_0, # of connection points: 2
#     Edge 60, Type (0, 0), BuildingBlock: OJICUG_clean_linker_0, # of connection points: 2
#     Edge 61, Type (0, 0), BuildingBlock: OJICUG_clean_linker_0, # of connection points: 2
#     Edge 62, Type (0, 0), BuildingBlock: OJICUG_clean_linker_0, # of connection points: 2
#     Edge 63, Type (0, 0), BuildingBlock: OJICUG_clean_linker_0, # of connection points: 2
#     Edge 64, Type (0, 0), BuildingBlock: OJICUG_clean_linker_0, # of connection points: 2
#     Edge 65, Type (0, 0), BuildingBlock: OJICUG_clean_linker_0, # of connection points: 2
#     Edge 66, Type (0, 0), BuildingBlock: OJICUG_clean_linker_0, # of connection points: 2
#     Edge 67, Type (0, 0), BuildingBlock: OJICUG_clean_linker_0, # of connection points: 2
#     Edge 68, Type (0, 0), BuildingBlock: OJICUG_clean_linker_0, # of connection points: 2
#     Edge 69, Type (0, 0), BuildingBlock: OJICUG_clean_linker_0, # of connection points: 2
#     Edge 70, Type (0, 0), BuildingBlock: OJICUG_clean_linker_0, # of connection points: 2
#     Edge 71, Type (0, 0), BuildingBlock: OJICUG_clean_linker_0, # of connection points: 2
# Relax obj value: 0.118
# Max RMSD: 0.153
# Mean RMSD: 0.128
data_MOF--net-unv--node1-QUQFOY_clean_sbu_1--edge1-OJICUG_clean_linker_0
_symmetry_space_group_name_H-M    P1
_symmetry_Int_Tables_number       1
_symmetry_cell_setting            triclinic
loop_
_symmetry_equiv_pos_as_xyz
'x, y, z'
_cell_length_a     38.780861
_cell_length_b     38.773379
_cell_length_c     38.727119
_cell_angle_alpha  89.917903
_cell_angle_beta   89.93522
_cell_angle_gamma 89.879729
loop_
_atom_site_label
_atom_site_type_symbol
_atom_site_fract_x
_atom_site_fract_y
_atom_site_fract_z
_atom_type_partial_charge
O0 O 0.08136 0.10559 0.43853 0.0
Cd1 Cd 0.04266 0.1176 0.40384 0.0
Cd2 Cd 0.08163 0.06229 0.36579 0.0
O3 O 0.11291 0.06867 0.40845 0.0
O4 O 0.02064 0.15803 0.42663 0.0
O5 O 0.04226 0.16058 0.37393 0.0
C6 C 0.02685 0.17581 0.39926 0.0
C7 C 0.10392 0.03455 0.31657 0.0
C8 C 0.10736 0.08569 0.436 0.0
C9 C 0.00552 0.05246 0.38794 0.0
O10 O 0.03353 0.04219 0.37446 0.0
O11 O 0.00311 0.08242 0.40089 0.0
O12 O 0.10179 0.01918 0.34586 0.0
O13 O 0.09617 0.06693 0.31566 0.0
O14 O 0.92795 0.38682 0.43575 0.0
Cd15 Cd 0.96598 0.37636 0.39983 0.0
Cd16 Cd 0.92307 0.43155 0.36378 0.0
O17 O 0.89362 0.42264 0.40735 0.0
O18 O 0.99057 0.33768 0.42314 0.0
O19 O 0.96747 0.33242 0.3714 0.0
C20 C 0.98419 0.31868 0.39674 0.0
C21 C 0.89784 0.46033 0.31651 0.0
C22 C 0.90096 0.40547 0.43442 0.0
C23 C -0.00028 0.44341 0.38324 0.0
O24 O 0.9708 0.45296 0.37126 0.0
O25 O 0.00385 0.41322 0.39527 0.0
O26 O 0.90075 0.4747 0.34619 0.0
O27 O 0.9066 0.42829 0.31415 0.0
O28 O 0.04872 0.88841 0.07443 0.0
Cd29 Cd 0.01628 0.87993 0.11594 0.0
Cd30 Cd 0.06103 0.93094 0.14632 0.0
O31 O 0.08794 0.9194 0.10173 0.0
O32 O 0.99094 0.83624 0.10671 0.0
O33 O 0.02852 0.84196 0.14939 0.0
C34 C 0.0073 0.82278 0.13237 0.0
C35 C 0.09095 0.95578 0.19284 0.0
C36 C 0.07747 0.90415 0.0746 0.0
C37 C 0.98453 0.94743 0.13239 0.0
O38 O 0.01482 0.95641 0.1408 0.0
O39 O 0.97835 0.91663 0.12322 0.0
O40 O 0.08792 0.9713 0.1637 0.0
O41 O 0.07915 0.92475 0.19503 0.0
O42 O 0.95241 0.61041 0.07811 0.0
Cd43 Cd 0.98351 0.61875 0.12054 0.0
Cd44 Cd 0.93595 0.56887 0.14959 0.0
O45 O 0.91056 0.58202 0.10452 0.0
O46 O 0.01012 0.66166 0.11101 0.0
O47 O 0.97078 0.65786 0.15238 0.0
C48 C 0.99292 0.67619 0.1355 0.0
C49 C 0.9051 0.5433 0.19519 0.0
C50 C 0.92282 0.59632 0.07755 0.0
C51 C 0.01263 0.55055 0.13835 0.0
O52 O 0.98166 0.5424 0.14498 0.0
O53 O 0.02025 0.58128 0.12995 0.0
O54 O 0.90793 0.52866 0.1656 0.0
O55 O 0.91719 0.57414 0.19818 0.0
O56 O 0.43535 0.05207 0.10087 0.0
Cd57 Cd 0.40001 0.01383 0.11195 0.0
Cd58 Cd 0.36114 0.05869 0.06243 0.0
O59 O 0.40405 0.0891 0.07065 0.0
O60 O 0.42258 0.98958 0.15135 0.0
O61 O 0.37135 0.01417 0.15579 0.0
C62 C 0.3964 0.99757 0.17021 0.0
C63 C 0.31125 0.08305 0.03781 0.0
C64 C 0.43245 0.08054 0.08478 0.0
C65 C 0.38145 0.98319 0.04454 0.0
O66 O 0.36917 0.01273 0.03761 0.0
O67 O 0.39437 0.97687 0.07403 0.0
O68 O 0.34019 0.0826 0.02171 0.0
O69 O 0.31113 0.07257 0.06946 0.0
O70 O 0.55242 0.4702 0.09366 0.0
Cd71 Cd 0.58937 0.50599 0.10613 0.0
Cd72 Cd 0.62682 0.46362 0.05692 0.0
O73 O 0.58423 0.43282 0.06476 0.0
O74 O 0.56899 0.52736 0.14799 0.0
O75 O 0.61868 0.49919 0.14859 0.0
C76 C 0.59462 0.51515 0.16529 0.0
C77 C 0.67669 0.4377 0.03438 0.0
C78 C 0.55557 0.44154 0.07817 0.0
C79 C 0.60845 0.53982 0.04079 0.0
O80 O 0.61964 0.51021 0.03236 0.0
O81 O 0.59634 0.54515 0.07081 0.0
O82 O 0.64858 0.43941 0.017 0.0
O83 O 0.67603 0.4486 0.06584 0.0
O84 O 0.4441 0.92688 0.39126 0.0
Cd85 Cd 0.40634 0.96179 0.37679 0.0
Cd86 Cd 0.37379 0.92677 0.44007 0.0
O87 O 0.4211 0.90229 0.43758 0.0
O88 O 0.42721 0.98095 0.33377 0.0
O89 O 0.37637 0.95554 0.33422 0.0
C90 C 0.40049 0.97077 0.31704 0.0
C91 C 0.32928 0.90127 0.47271 0.0
C92 C 0.44607 0.90603 0.41656 0.0
C93 C 0.38595 0.00558 0.4374 0.0
O94 O 0.37434 0.97832 0.45127 0.0
O95 O 0.40051 0.0047 0.40799 0.0
O96 O 0.35772 0.9109 0.48656 0.0
O97 O 0.32691 0.90353 0.43954 0.0
O98 O 0.55078 0.54153 0.39963 0.0
Cd99 Cd 0.58353 0.50718 0.3732 0.0
Cd100 Cd 0.62266 0.54696 0.44959 0.0
O101 O 0.57392 0.56792 0.44589 0.0
O102 O 0.56268 0.49636 0.32789 0.0
O103 O 0.61299 0.52313 0.33381 0.0
C104 C 0.58918 0.51096 0.31391 0.0
C105 C 0.664 0.56391 0.48912 0.0
C106 C 0.54876 0.56224 0.42533 0.0
C107 C 0.61477 0.47484 0.42519 0.0
O108 O 0.62811 0.50432 0.42006 0.0
O109 O 0.59749 0.46297 0.40029 0.0
O110 O 0.64033 0.54204 0.49755 0.0
O111 O 0.66359 0.57671 0.4582 0.0
O112 O 0.09866 0.43516 0.06305 0.0
Cd113 Cd 0.11054 0.40061 0.02435 0.0
Cd114 Cd 0.05883 0.36196 0.06426 0.0
O115 O 0.06559 0.40339 0.09691 0.0
O116 O 0.15103 0.42338 0.00272 0.0
O117 O 0.15376 0.37122 0.02562 0.0
C118 C 0.16913 0.39663 0.01054 0.0
C119 C 0.03485 0.31088 0.08614 0.0
C120 C 0.08091 0.43165 0.09043 0.0
C121 C 0.04486 0.38477 0.98898 0.0
O122 O 0.03578 0.37168 0.0176 0.0
O123 O 0.0749 0.39714 0.98505 0.0
O124 O 0.01799 0.33941 0.08602 0.0
O125 O 0.0667 0.31176 0.07647 0.0
O126 O 0.08445 0.5544 0.4651 0.0
Cd127 Cd 0.09743 0.58967 0.5024 0.0
Cd128 Cd 0.04965 0.62918 0.46086 0.0
O129 O 0.05656 0.58776 0.42829 0.0
O130 O 0.13722 0.56608 0.52438 0.0
O131 O 0.14178 0.61638 0.49781 0.0
C132 C 0.15645 0.59084 0.51347 0.0
C133 C 0.03072 0.68156 0.43734 0.0
C134 C 0.06934 0.55862 0.43635 0.0
C135 C 0.03183 0.60868 0.53589 0.0
O136 O 0.02375 0.6206 0.50644 0.0
O137 O 0.06177 0.59649 0.54128 0.0
O138 O 0.01176 0.65446 0.4369 0.0
O139 O 0.06175 0.67846 0.44897 0.0
O140 O 0.91617 0.9424 0.46799 0.0
Cd141 Cd 0.90219 0.90479 0.5025 0.0
Cd142 Cd 0.94968 0.86726 0.46286 0.0
O143 O 0.94411 0.90951 0.43092 0.0
O144 O 0.85709 0.92141 0.51979 0.0
O145 O 0.86336 0.87274 0.4904 0.0
C146 C 0.84327 0.89513 0.50487 0.0
C147 C 0.96938 0.81552 0.4386 0.0
C148 C 0.93182 0.93871 0.43945 0.0
C149 C 0.9653 0.88613 0.53885 0.0
O150 O 0.9741 0.8746 0.50945 0.0
O151 O 0.93528 0.89841 0.5436 0.0
O152 O 0.98837 0.84258 0.43954 0.0
O153 O 0.93798 0.81832 0.44933 0.0
O154 O 0.3909 0.54128 0.54527 0.0
Cd155 Cd 0.36267 0.56545 0.50595 0.0
Cd156 Cd 0.43019 0.61983 0.53636 0.0
O157 O 0.43329 0.57522 0.56545 0.0
O158 O 0.31624 0.54512 0.50098 0.0
O159 O 0.32558 0.59914 0.51799 0.0
C160 C 0.30414 0.57458 0.51099 0.0
C161 C 0.46218 0.66878 0.54686 0.0
C162 C 0.41659 0.5468 0.56525 0.0
C163 C 0.41018 0.59597 0.46662 0.0
O164 O 0.4025 0.61454 0.49251 0.0
O165 O 0.38886 0.57243 0.45964 0.0
O166 O 0.47531 0.64302 0.53029 0.0
O167 O 0.43083 0.66639 0.55815 0.0
O168 O 0.53255 0.61957 0.9221 0.0
Cd169 Cd 0.49937 0.63043 0.88207 0.0
Cd170 Cd 0.54384 0.58702 0.84929 0.0
O171 O 0.57461 0.59658 0.89163 0.0
O172 O 0.47719 0.67368 0.89772 0.0
O173 O 0.50936 0.67059 0.85047 0.0
C174 C 0.49198 0.68904 0.87215 0.0
C175 C 0.56785 0.57096 0.79637 0.0
C176 C 0.56289 0.60736 0.92033 0.0
C177 C 0.47014 0.56349 0.86506 0.0
O178 O 0.5012 0.55659 0.8573 0.0
O179 O 0.46159 0.59395 0.87366 0.0
O180 O 0.57239 0.55286 0.82381 0.0
O181 O 0.55231 0.60027 0.79952 0.0
O182 O 0.45488 0.90745 0.92004 0.0
Cd183 Cd 0.48812 0.89662 0.88007 0.0
Cd184 Cd 0.44507 0.94749 0.84907 0.0
O185 O 0.4156 0.93812 0.89251 0.0
O186 O 0.5092 0.85317 0.8969 0.0
O187 O 0.47871 0.85608 0.8487 0.0
C188 C 0.49514 0.83767 0.87113 0.0
C189 C 0.41955 0.97024 0.7992 0.0
C190 C 0.42615 0.92319 0.91981 0.0
C191 C 0.52177 0.96242 0.86463 0.0
O192 O 0.49156 0.97179 0.85618 0.0
O193 O 0.52776 0.93144 0.87355 0.0
O194 O 0.42052 0.98735 0.82756 0.0
O195 O 0.43045 0.93876 0.7998 0.0
O196 O 0.55135 0.39981 0.55897 0.0
Cd197 Cd 0.51597 0.37203 0.58948 0.0
Cd198 Cd 0.54624 0.4512 0.63154 0.0
O199 O 0.56931 0.44909 0.58383 0.0
O200 O 0.50673 0.32801 0.56516 0.0
O201 O 0.52911 0.33057 0.61782 0.0
C202 C 0.51854 0.31225 0.59206 0.0
C203 C 0.5621 0.49011 0.67389 0.0
C204 C 0.56881 0.42785 0.55863 0.0
C205 C 0.47684 0.42214 0.61866 0.0
O206 O 0.50501 0.41959 0.63521 0.0
O207 O 0.46961 0.39692 0.59942 0.0
O208 O 0.54001 0.49852 0.65035 0.0
O209 O 0.57529 0.45939 0.67312 0.0
O210 O 0.45985 0.09702 0.5458 0.0
Cd211 Cd 0.49584 0.10592 0.58377 0.0
Cd212 Cd 0.44951 0.05991 0.61868 0.0
O213 O 0.41927 0.07152 0.57649 0.0
O214 O 0.52097 0.14653 0.56513 0.0
O215 O 0.49222 0.1478 0.61447 0.0
C216 C 0.51005 0.16387 0.59131 0.0
C217 C 0.42311 0.03958 0.66931 0.0
C218 C 0.42987 0.08408 0.54805 0.0
C219 C 0.5234 0.03698 0.59942 0.0
O220 O 0.49292 0.03074 0.60957 0.0
O221 O 0.53185 0.06719 0.58988 0.0
O222 O 0.42196 0.02251 0.64096 0.0
O223 O 0.43705 0.06977 0.66848 0.0
O224 O 0.91403 0.53011 0.61387 0.0
Cd225 Cd 0.87463 0.49668 0.62556 0.0
Cd226 Cd 0.84056 0.54164 0.58306 0.0
O227 O 0.88282 0.57249 0.59249 0.0
O228 O 0.89239 0.47407 0.66784 0.0
O229 O 0.84526 0.50646 0.66749 0.0
C230 C 0.86797 0.48912 0.68473 0.0
C231 C 0.78754 0.56623 0.56808 0.0
C232 C 0.91178 0.5607 0.60239 0.0
C233 C 0.85649 0.46817 0.5584 0.0
O234 O 0.84844 0.49929 0.55201 0.0
O235 O 0.86544 0.45928 0.58872 0.0
O236 O 0.81467 0.57066 0.54954 0.0
O237 O 0.79102 0.55018 0.5971 0.0
O238 O 0.08895 0.95957 0.61508 0.0
Cd239 Cd 0.1319 0.98921 0.62493 0.0
Cd240 Cd 0.16087 0.94095 0.57705 0.0
O241 O 0.11543 0.91602 0.58948 0.0
O242 O 0.12214 0.01482 0.66851 0.0
O243 O 0.16181 0.97379 0.66456 0.0
C244 C 0.14499 0.99567 0.68331 0.0
C245 C 0.20749 0.9094 0.55433 0.0
C246 C 0.08821 0.92947 0.6021 0.0
C247 C 0.15137 0.01735 0.55692 0.0
O248 O 0.15695 0.98602 0.54924 0.0
O249 O 0.14342 0.02574 0.58763 0.0
O250 O 0.17847 0.91147 0.53851 0.0
O251 O 0.20931 0.9228 0.58477 0.0
O252 O 0.92969 0.46327 0.90359 0.0
Cd253 Cd 0.89122 0.49765 0.89134 0.0
Cd254 Cd 0.85662 0.45811 0.94132 0.0
O255 O 0.89884 0.42647 0.93405 0.0
O256 O 0.9056 0.51448 0.84525 0.0
O257 O 0.85684 0.48601 0.85408 0.0
C258 C 0.87835 0.50011 0.83283 0.0
C259 C 0.80611 0.43417 0.96433 0.0
C260 C 0.92722 0.43503 0.92001 0.0
C261 C 0.87604 0.53428 0.9553 0.0
O262 O 0.86495 0.50496 0.96475 0.0
O263 O 0.88692 0.53891 0.92469 0.0
O264 O 0.83427 0.43524 0.98169 0.0
O265 O 0.8071 0.44441 0.93261 0.0
O266 O 0.06666 0.03259 0.89466 0.0
Cd267 Cd 0.10863 0.00086 0.88621 0.0
Cd268 Cd 0.13878 0.04441 0.93676 0.0
O269 O 0.09404 0.07149 0.926 0.0
O270 O 0.10397 0.97879 0.84001 0.0
O271 O 0.14469 0.01693 0.85242 0.0
C272 C 0.13004 0.99695 0.83015 0.0
C273 C 0.1858 0.07361 0.96145 0.0
C274 C 0.06684 0.06113 0.91082 0.0
C275 C 0.12442 0.96781 0.95283 0.0
O276 O 0.13343 0.99794 0.96179 0.0
O277 O 0.11474 0.96187 0.9221 0.0
O278 O 0.15687 0.07065 0.97731 0.0
O279 O 0.18744 0.06232 0.93015 0.0
O280 O 0.61101 0.91943 0.524 0.0
Cd281 Cd 0.63657 0.89443 0.48331 0.0
Cd282 Cd 0.56926 0.84346 0.52481 0.0
O283 O 0.57219 0.88809 0.55349 0.0
O284 O 0.68049 0.91848 0.4741 0.0
O285 O 0.67736 0.86496 0.49472 0.0
C286 C 0.69587 0.89125 0.48583 0.0
C287 C 0.53882 0.79485 0.54037 0.0
C288 C 0.589 0.91604 0.54843 0.0
C289 C 0.58432 0.86421 0.45161 0.0
O290 O 0.59309 0.84798 0.47872 0.0
O291 O 0.60697 0.88432 0.43959 0.0
O292 O 0.52367 0.82038 0.52514 0.0
O293 O 0.57137 0.79732 0.54739 0.0
O294 O 0.60526 0.07728 0.94373 0.0
Cd295 Cd 0.6171 0.1129 0.98132 0.0
Cd296 Cd 0.56415 0.15066 0.93907 0.0
O297 O 0.57325 0.10834 0.90813 0.0
O298 O 0.65739 0.08996 0.00346 0.0
O299 O 0.66117 0.14091 0.97823 0.0
C300 C 0.6762 0.11552 0.99376 0.0
C301 C 0.53707 0.19861 0.91329 0.0
C302 C 0.58846 0.08024 0.91574 0.0
C303 C 0.55061 0.13012 0.0156 0.0
O304 O 0.54163 0.14218 0.98646 0.0
O305 O 0.58083 0.11817 0.02019 0.0
O306 O 0.52192 0.16935 0.91606 0.0
O307 O 0.56878 0.20035 0.92318 0.0
O308 O 0.38617 0.44252 0.93572 0.0
Cd309 Cd 0.37448 0.40577 0.97241 0.0
Cd310 Cd 0.42882 0.37029 0.93184 0.0
O311 O 0.42127 0.4134 0.90142 0.0
O312 O 0.33283 0.42641 0.99409 0.0
O313 O 0.33227 0.37527 0.969 0.0
C314 C 0.31579 0.39952 0.98484 0.0
C315 C 0.45653 0.32202 0.9077 0.0
C316 C 0.40485 0.44087 0.90879 0.0
C317 C 0.43973 0.38982 0.00866 0.0
O318 O 0.44983 0.37809 0.9798 0.0
O319 O 0.40934 0.40152 0.01229 0.0
O320 O 0.47166 0.3513 0.9103 0.0
O321 O 0.42438 0.32061 0.91621 0.0
O322 O 0.89522 0.06018 0.05444 0.0
Cd323 Cd 0.88322 0.09534 0.01628 0.0
Cd324 Cd 0.93622 0.13372 0.05363 0.0
O325 O 0.93029 0.09192 0.08604 0.0
O326 O 0.83918 0.07696 0.99764 0.0
O327 O 0.84325 0.12868 0.02125 0.0
C328 C 0.82435 0.10509 0.00735 0.0
C329 C 0.96166 0.18319 0.07771 0.0
C330 C 0.91425 0.06383 0.08086 0.0
C331 C 0.94761 0.11027 0.97791 0.0
O332 O 0.95732 0.12462 0.0057 0.0
O333 O 0.91773 0.09707 0.97558 0.0
O334 O 0.97829 0.15472 0.07461 0.0
O335 O 0.92962 0.18336 0.06879 0.0
C336 C 0.16368 0.03436 0.49607 0.0
C337 C 0.14885 0.04249 0.52821 0.0
H338 H 0.16288 0.04243 0.44151 0.0
C339 C 0.12635 0.07083 0.53038 0.0
H340 H 0.18159 0.01301 0.49366 0.0
C341 C 0.11548 0.08776 0.5003 0.0
C342 C 0.12701 0.0766 0.46764 0.0
H343 H 0.11464 0.07785 0.5548 0.0
H344 H 0.09578 0.10748 0.50252 0.0
C345 C 0.15296 0.0513 0.46611 0.0
C346 C 0.89501 0.40164 0.4989 0.0
C347 C 0.88196 0.41296 0.46686 0.0
H348 H 0.89679 0.41012 0.55359 0.0
C349 C 0.85475 0.43694 0.46668 0.0
H350 H 0.91573 0.3829 0.50006 0.0
C351 C 0.84399 0.45249 0.49734 0.0
C352 C 0.86007 0.44428 0.52884 0.0
H353 H 0.84366 0.44586 0.4426 0.0
H354 H 0.82487 0.47286 0.49597 0.0
C355 C 0.88411 0.41718 0.52968 0.0
C356 C 0.12649 0.92991 0.04168 0.0
C357 C 0.09588 0.91058 0.04163 0.0
H358 H 0.16008 0.96281 0.01288 0.0
C359 C 0.07997 0.90331 0.00979 0.0
H360 H 0.13982 0.93549 0.06559 0.0
C361 C 0.09188 0.91885 0.97935 0.0
C362 C 0.11972 0.94192 0.98045 0.0
H363 H 0.05655 0.88818 0.00875 0.0
H364 H 0.07718 0.91552 0.95582 0.0
C365 C 0.13821 0.94553 0.01141 0.0
C366 C 0.8733 0.57366 0.04328 0.0
C367 C 0.90522 0.5907 0.04405 0.0
H368 H 0.83846 0.54294 0.01375 0.0
C369 C 0.92275 0.59642 0.01268 0.0
H370 H 0.85875 0.56937 0.06679 0.0
C371 C 0.91089 0.58137 0.98205 0.0
C372 C 0.88142 0.56039 0.98249 0.0
H373 H 0.94724 0.6098 0.01227 0.0
H374 H 0.92667 0.58325 0.95903 0.0
C375 C 0.86158 0.55858 0.01282 0.0
C376 C 0.462 0.1295 0.05487 0.0
C377 C 0.46409 0.10032 0.0763 0.0
H378 H 0.48826 0.16244 0.01931 0.0
C379 C 0.49688 0.08649 0.08383 0.0
H380 H 0.43732 0.14122 0.04895 0.0
C381 C 0.52625 0.09871 0.06672 0.0
C382 C 0.52328 0.12494 0.04185 0.0
H383 H 0.49954 0.06427 0.10059 0.0
H384 H 0.55057 0.08549 0.07066 0.0
C385 C 0.49129 0.14167 0.03781 0.0
C386 C 0.49134 0.43521 0.07659 0.0
C387 C 0.52429 0.42137 0.06995 0.0
H388 H 0.43796 0.43552 0.0625 0.0
C389 C 0.52698 0.39141 0.04979 0.0
H390 H 0.48827 0.45798 0.09248 0.0
C391 C 0.49811 0.3785 0.03277 0.0
C392 C 0.46606 0.39531 0.03561 0.0
H393 H 0.55183 0.37964 0.04473 0.0
H394 H 0.50157 0.35717 0.01504 0.0
C395 C 0.46239 0.42225 0.05952 0.0
C396 C 0.52308 0.87673 0.46817 0.0
C397 C 0.54786 0.87071 0.44246 0.0
H398 H 0.4712 0.89112 0.48009 0.0
C399 C 0.53828 0.87454 0.40768 0.0
H400 H 0.53013 0.87702 0.49504 0.0
C401 C 0.50463 0.88446 0.3989 0.0
C402 C 0.47985 0.89028 0.42479 0.0
H403 H 0.5571 0.87078 0.38732 0.0
H404 H 0.49822 0.8884 0.37196 0.0
C405 C 0.48929 0.88559 0.45948 0.0
C406 C 0.47182 0.58367 0.48039 0.0
C407 C 0.44629 0.59075 0.4558 0.0
H408 H 0.52444 0.57068 0.49005 0.0
C409 C 0.45493 0.58951 0.4206 0.0
H410 H 0.46554 0.5815 0.50738 0.0
C411 C 0.48871 0.58158 0.41031 0.0
C412 C 0.51436 0.57525 0.43517 0.0
H413 H 0.4354 0.59397 0.4011 0.0
H414 H 0.49463 0.5798 0.38303 0.0
C415 C 0.50562 0.57686 0.4703 0.0
C416 C 0.08264 0.49563 0.09973 0.0
C417 C 0.07215 0.4627 0.11099 0.0
H418 H 0.07212 0.5499 0.10011 0.0
C419 C 0.04777 0.46039 0.13775 0.0
H420 H 0.10173 0.4984 0.07949 0.0
C421 C 0.03084 0.48992 0.14951 0.0
C422 C 0.03809 0.52233 0.13489 0.0
H423 H 0.0395 0.43555 0.14751 0.0
H424 H 0.01007 0.48696 0.16801 0.0
C425 C 0.06574 0.52525 0.11163 0.0
C426 C 0.0513 0.46594 0.4145 0.0
C427 C 0.02624 0.47015 0.3887 0.0
H428 H 0.08537 0.49106 0.44971 0.0
C429 C 0.02224 0.5027 0.37312 0.0
H430 H 0.05529 0.44112 0.42675 0.0
C431 C 0.03936 0.53138 0.38632 0.0
C432 C 0.06077 0.52797 0.41535 0.0
H433 H 0.00363 0.50661 0.35262 0.0
H434 H 0.03344 0.55654 0.37565 0.0
C435 C 0.06847 0.49468 0.42774 0.0
C436 C 0.93575 0.00279 0.43307 0.0
C437 C 0.94151 0.96966 0.41935 0.0
H438 H 0.95146 0.05567 0.43341 0.0
C439 C 0.96205 0.96628 0.38967 0.0
H440 H 0.91959 0.00639 0.45561 0.0
C441 C 0.98018 0.99458 0.3769 0.0
C442 C 0.9781 0.0267 0.39361 0.0
H443 H 0.96645 0.94128 0.37802 0.0
H444 H 0.99802 0.99053 0.35573 0.0
C445 C 0.95396 0.03114 0.42028 0.0
C446 C 0.41036 0.48974 0.5954 0.0
C447 C 0.43126 0.51714 0.5842 0.0
H448 H 0.40879 0.4383 0.61608 0.0
C449 C 0.46722 0.5138 0.5865 0.0
H450 H 0.38255 0.49141 0.59332 0.0
C451 C 0.48203 0.4832 0.59828 0.0
C452 C 0.46137 0.45583 0.60971 0.0
H453 H 0.48404 0.53388 0.57676 0.0
H454 H 0.50952 0.48038 0.59595 0.0
C455 C 0.42533 0.45941 0.60828 0.0
C456 C 0.62221 0.56146 0.98176 0.0
C457 C 0.60435 0.56578 0.0131 0.0
H458 H 0.62356 0.57201 0.92763 0.0
C459 C 0.57792 0.59051 0.01492 0.0
H460 H 0.64314 0.54301 0.97971 0.0
C461 C 0.56656 0.60711 0.98491 0.0
C462 C 0.58157 0.59931 0.95271 0.0
H463 H 0.56384 0.59461 0.03874 0.0
H464 H 0.54417 0.62377 0.98658 0.0
C465 C 0.611 0.57816 0.95185 0.0
C466 C 0.41277 0.93476 0.01551 0.0
C467 C 0.38568 0.9588 0.01555 0.0
H468 H 0.44674 0.90398 0.98477 0.0
C469 C 0.36714 0.96443 0.98483 0.0
H470 H 0.42739 0.9297 0.0388 0.0
C471 C 0.37829 0.94992 0.95382 0.0
C472 C 0.40817 0.92945 0.95298 0.0
H473 H 0.34568 0.98236 0.98418 0.0
H474 H 0.36511 0.95705 0.93021 0.0
C475 C 0.42394 0.92015 0.98442 0.0
C476 C 0.59835 0.41616 0.50184 0.0
C477 C 0.58386 0.4394 0.52564 0.0
H478 H 0.62053 0.40967 0.45127 0.0
C479 C 0.58015 0.47414 0.51626 0.0
H480 H 0.60078 0.38906 0.50823 0.0
C481 C 0.59012 0.4854 0.48367 0.0
C482 C 0.60576 0.46279 0.46022 0.0
H483 H 0.5677 0.49237 0.53346 0.0
H484 H 0.58394 0.51147 0.47652 0.0
C485 C 0.60951 0.42789 0.46939 0.0
C486 C 0.42749 0.07889 0.48374 0.0
C487 C 0.41083 0.07599 0.51596 0.0
H488 H 0.43209 0.05873 0.4325 0.0
C489 C 0.37959 0.05783 0.51784 0.0
H490 H 0.45127 0.09327 0.48118 0.0
C491 C 0.36853 0.0382 0.48983 0.0
C492 C 0.38855 0.03643 0.45957 0.0
H493 H 0.36563 0.05576 0.542 0.0
H494 H 0.34637 0.02156 0.49324 0.0
C495 C 0.41641 0.05915 0.45567 0.0
C496 C 0.97234 0.62114 0.55693 0.0
C497 C 0.00393 0.60382 0.56145 0.0
H498 H 0.91818 0.62149 0.56706 0.0
C499 C 0.00603 0.57727 0.58605 0.0
H500 H 0.97006 0.64213 0.53857 0.0
C501 C 0.97616 0.56532 0.60235 0.0
C502 C 0.94381 0.57983 0.59439 0.0
H503 H 0.03004 0.56361 0.59033 0.0
H504 H 0.97811 0.5429 0.61897 0.0
C505 C 0.94255 0.60932 0.57333 0.0
C506 C 0.02273 0.87028 0.56248 0.0
C507 C 0.99274 0.89053 0.56488 0.0
H508 H 0.07659 0.86633 0.57318 0.0
C509 C 0.99274 0.91944 0.58666 0.0
H510 H 0.02331 0.84754 0.54625 0.0
C511 C 0.02349 0.93045 0.60198 0.0
C512 C 0.05455 0.91259 0.59579 0.0
H513 H 0.96997 0.93549 0.58907 0.0
H514 H 0.02341 0.95455 0.6161 0.0
C515 C 0.05333 0.88113 0.57788 0.0
C516 C 0.98607 0.3733 0.96599 0.0
C517 C 0.01785 0.39042 0.96268 0.0
H518 H 0.93224 0.37367 0.9544 0.0
C519 C 0.02086 0.4173 0.93856 0.0
H520 H 0.9831 0.35198 0.98388 0.0
C521 C 0.99156 0.42974 0.92154 0.0
C522 C 0.95891 0.41547 0.92848 0.0
H523 H 0.04506 0.43079 0.93519 0.0
H524 H 0.99413 0.45242 0.90538 0.0
C525 C 0.95685 0.38572 0.94906 0.0
C526 C 0.00218 0.06231 0.91349 0.0
C527 C 0.03392 0.07933 0.91784 0.0
H528 H 0.94917 0.05919 0.92897 0.0
C529 C 0.03431 0.11116 0.93511 0.0
H530 H 0.00091 0.03787 0.90004 0.0
C531 C 0.00469 0.12335 0.95156 0.0
C532 C 0.97407 0.104 0.95107 0.0
H533 H 0.05815 0.12529 0.93839 0.0
H534 H 0.00659 0.14651 0.96708 0.0
C535 C 0.97243 0.07457 0.93001 0.0
C536 C 0.57469 0.00988 0.57073 0.0
C537 C 0.54682 0.00734 0.59374 0.0
H538 H 0.61038 0.98278 0.53849 0.0
C539 C 0.53779 0.97469 0.60678 0.0
H540 H 0.58244 0.03466 0.56038 0.0
C541 C 0.55364 0.94493 0.59415 0.0
C542 C 0.57891 0.94717 0.56826 0.0
H543 H 0.51679 0.97188 0.62503 0.0
H544 H 0.54439 0.92011 0.60308 0.0
C545 C 0.59063 0.98004 0.55809 0.0
C546 C 0.58938 0.01601 0.9082 0.0
C547 C 0.58082 0.04892 0.89526 0.0
H548 H 0.57749 0.96205 0.90806 0.0
C549 C 0.55929 0.05124 0.86621 0.0
H550 H 0.60629 0.01323 0.93027 0.0
C551 C 0.54291 0.0219 0.85351 0.0
C552 C 0.54784 0.9897 0.86952 0.0
H553 H 0.55267 0.07606 0.85513 0.0
H554 H 0.52412 0.02497 0.83304 0.0
C555 C 0.57298 0.98657 0.89538 0.0
C556 C 0.4536 0.50282 0.85241 0.0
C557 C 0.44579 0.53439 0.86847 0.0
H558 H 0.44597 0.4483 0.85191 0.0
C559 C 0.41849 0.53574 0.89225 0.0
H560 H 0.47411 0.5011 0.83346 0.0
C561 C 0.40229 0.50529 0.90294 0.0
C562 C 0.41317 0.47312 0.88994 0.0
H563 H 0.41174 0.55974 0.90487 0.0
H564 H 0.38337 0.50678 0.92348 0.0
C565 C 0.43739 0.4725 0.86295 0.0
C566 C 0.94678 0.0365 0.12937 0.0
C567 C 0.92339 0.03319 0.1019 0.0
H568 H 0.98415 0.01141 0.16123 0.0
C569 C 0.91431 -0.00011 0.09072 0.0
H570 H 0.9539 0.06167 0.1391 0.0
C571 C 0.9317 0.97091 0.10353 0.0
C572 C 0.95841 0.97488 0.12766 0.0
H573 H 0.89605 0.99636 0.06988 0.0
H574 H 0.92646 0.94597 0.09213 0.0
C575 C 0.96416 0.00762 0.14208 0.0
C576 C 0.01204 0.23092 0.42856 0.0
C577 C 0.01667 0.21253 0.3977 0.0
H578 H 0.9986 0.27877 0.45228 0.0
C579 C 0.01063 0.22932 0.36607 0.0
H580 H 0.01659 0.21872 0.45334 0.0
C581 C -0.00044 0.26381 0.36547 0.0
C582 C 0.99521 0.28216 0.39647 0.0
H583 H 0.01385 0.21565 0.3419 0.0
H584 H 0.99477 0.27619 0.34085 0.0
C585 C 0.0018 0.26538 0.42795 0.0
C586 C 0.96723 0.73471 0.14198 0.0
C587 C 0.99658 0.71349 0.1415 0.0
H588 H 0.94775 0.7865 0.1387 0.0
C589 C 0.02942 0.72867 0.14199 0.0
H590 H 0.94166 0.72352 0.14115 0.0
C591 C 0.03288 0.76459 0.14187 0.0
C592 C 0.00355 0.78575 0.13985 0.0
H593 H 0.05239 0.71272 0.14138 0.0
H594 H 0.05846 0.77575 0.14101 0.0
C595 C 0.9707 0.7706 0.14047 0.0
C596 C 0.36571 0.98726 0.22673 0.0
C597 C 0.39646 0.98941 0.20756 0.0
H598 H 0.34272 0.97874 0.27662 0.0
C599 C 0.42806 0.98443 0.22455 0.0
H600 H 0.34099 0.99093 0.21425 0.0
C601 C 0.42906 0.97829 0.26002 0.0
C602 C 0.39846 0.97613 0.27929 0.0
H603 H 0.45221 0.98607 0.21056 0.0
H604 H 0.45392 0.97513 0.27238 0.0
C605 C 0.36669 0.98017 0.2623 0.0
C606 C 0.56261 0.51922 0.22074 0.0
C607 C 0.59433 0.51667 0.20337 0.0
H608 H 0.53625 0.51874 0.26927 0.0
C609 C 0.62481 0.51352 0.22273 0.0
H610 H 0.53865 0.52142 0.20653 0.0
C611 C 0.62344 0.51277 0.25891 0.0
C612 C 0.5915 0.51405 0.27605 0.0
H613 H 0.64957 0.51147 0.20993 0.0
H614 H 0.64717 0.51009 0.2734 0.0
C615 C 0.56118 0.51745 0.25665 0.0
C616 C 0.26083 0.36613 0.99363 0.0
C617 C 0.27828 0.39779 0.99119 0.0
H618 H 0.21231 0.34078 0.00248 0.0
C619 C 0.25956 0.42858 0.99491 0.0
H620 H 0.27473 0.34202 0.99091 0.0
C621 C 0.22412 0.42788 0.0007 0.0
C622 C 0.2066 0.39637 0.00369 0.0
H623 H 0.27225 0.45337 0.99295 0.0
H624 H 0.2105 0.45217 0.00335 0.0
C625 C 0.22525 0.36542 0.00033 0.0
C626 C 0.20943 0.55544 0.52141 0.0
C627 C 0.19435 0.58799 0.51601 0.0
H628 H 0.2559 0.52574 0.52354 0.0
C629 C 0.21581 0.61666 0.51066 0.0
H630 H 0.19362 0.53278 0.52544 0.0
C631 C 0.25174 0.61265 0.51017 0.0
C632 C 0.26659 0.57978 0.51415 0.0
H633 H 0.20486 0.64203 0.5064 0.0
H634 H 0.2678 0.635 0.50552 0.0
C635 C 0.24512 0.55132 0.5201 0.0
C636 C 0.75037 0.92267 0.4973 0.0
C637 C 0.73355 0.89133 0.49091 0.0
H638 H 0.79798 0.94812 0.50766 0.0
C639 C 0.75289 0.86063 0.49031 0.0
H640 H 0.73604 0.94667 0.49829 0.0
C641 C 0.78873 0.86152 0.49508 0.0
C642 C 0.80543 0.89298 0.50161 0.0
H643 H 0.74044 0.83613 0.48552 0.0
H644 H 0.80331 0.8377 0.49375 0.0
C645 C 0.78581 0.92343 0.50301 0.0
C646 C 0.4944 0.78128 0.83877 0.0
C647 C 0.49481 0.79966 0.87003 0.0
H648 H 0.49403 0.73119 0.81477 0.0
C649 C 0.4937 0.78145 0.90133 0.0
H650 H 0.49514 0.79485 0.81432 0.0
C651 C 0.49182 0.74563 0.90157 0.0
C652 C 0.49203 0.72704 0.87052 0.0
H653 H 0.49361 0.79496 0.92581 0.0
H654 H 0.49094 0.73241 0.92623 0.0
C655 C 0.49371 0.74505 0.83903 0.0
C656 C 0.52325 0.25576 0.56212 0.0
C657 C 0.51938 0.27422 0.593 0.0
H658 H 0.52422 0.20645 0.53765 0.0
C659 C 0.51455 0.25604 0.62405 0.0
H660 H 0.52719 0.26915 0.53786 0.0
C661 C 0.51205 0.21995 0.62387 0.0
C662 C 0.51535 0.20158 0.59277 0.0
H663 H 0.51138 0.26975 0.6482 0.0
H664 H 0.50716 0.2065 0.64791 0.0
C665 C 0.52171 0.21984 0.56206 0.0
C666 C 0.84184 0.49772 0.77906 0.0
C667 C 0.87432 0.49689 0.79512 0.0
H668 H 0.81418 0.49662 0.73086 0.0
C669 C 0.90392 0.49212 0.77484 0.0
H670 H 0.81864 0.50125 0.79426 0.0
C671 C 0.90131 0.48823 0.73923 0.0
C672 C 0.8691 0.49003 0.72282 0.0
H673 H 0.92924 0.49098 0.78661 0.0
H674 H 0.92478 0.48484 0.7244 0.0
C675 C 0.8393 0.49498 0.74297 0.0
C676 C 0.14694 0.02755 0.7393 0.0
C677 C 0.14838 0.99619 0.72123 0.0
H678 H 0.14143 0.05223 0.78861 0.0
C679 C 0.14783 0.96507 0.73981 0.0
H680 H 0.14705 0.05184 0.72544 0.0
C681 C 0.14329 0.9653 0.77567 0.0
C682 C 0.14065 0.99664 0.7936 0.0
H683 H 0.14842 0.94058 0.72638 0.0
H684 H 0.14075 0.94099 0.78927 0.0
C685 C 0.14379 0.02776 0.77533 0.0
C686 C 0.76594 0.0791 0.00379 0.0
C687 C 0.78652 0.10883 0.00418 0.0
H688 H 0.71519 0.05812 0.00097 0.0
C689 C 0.77054 0.14134 0.00179 0.0
H690 H 0.77746 0.0537 0.00585 0.0
C691 C 0.73456 0.14389 0.99828 0.0
C692 C 0.71408 0.11399 0.99817 0.0
H693 H 0.78585 0.16467 0.00203 0.0
H694 H 0.72278 0.16913 0.99591 0.0
C695 C 0.73019 0.08166 0.00124 0.0
C696 C 0.10675 0.01103 0.22204 0.0
C697 C 0.10273 0.97496 0.22368 0.0
H698 H 0.11048 0.05837 0.25027 0.0
C699 C 0.10522 0.95852 0.25588 0.0
H700 H 0.10515 0.02453 0.19759 0.0
C701 C 0.10875 0.97797 0.28605 0.0
C702 C 0.10938 0.01427 0.28464 0.0
H703 H 0.10247 0.9308 0.25799 0.0
H704 H 0.10854 0.96457 0.31061 0.0
C705 C 0.10982 0.03051 0.25225 0.0
C706 C 0.88882 0.46643 0.25271 0.0
C707 C 0.89038 0.48156 0.28556 0.0
H708 H 0.89128 0.47434 0.19814 0.0
C709 C 0.8903 0.5178 0.2881 0.0
H710 H 0.88862 0.43864 0.24988 0.0
C711 C 0.89229 0.53834 0.25844 0.0
C712 C 0.89392 0.52304 0.22566 0.0
H713 H 0.89128 0.53035 0.31305 0.0
H714 H 0.89475 0.56601 0.26134 0.0
C715 C 0.89033 0.48699 0.22304 0.0
C716 C 0.24874 0.08805 0.96338 0.0
C717 C 0.21702 0.0846 0.98047 0.0
H718 H 0.30352 0.09132 0.96826 0.0
C719 C 0.21627 0.0868 0.01677 0.0
H720 H 0.25017 0.08669 0.93548 0.0
C721 C 0.2469 0.08898 0.03567 0.0
C722 C 0.27884 0.08954 0.01862 0.0
H723 H 0.1922 0.08439 0.03078 0.0
H724 H 0.24563 0.08818 0.0636 0.0
C725 C 0.27933 0.09077 0.98227 0.0
C726 C 0.74029 0.42655 0.03563 0.0
C727 C 0.70937 0.42842 0.01697 0.0
H728 H 0.79533 0.42597 0.03345 0.0
C729 C 0.71056 0.42623 0.98069 0.0
H730 H 0.74019 0.42793 0.06357 0.0
C731 C 0.74217 0.42559 0.96334 0.0
C732 C 0.77314 0.42659 0.98196 0.0
H733 H 0.68714 0.42742 0.96551 0.0
H734 H 0.74229 0.42626 0.93537 0.0
C735 C 0.77189 0.42539 0.01829 0.0
C736 C 0.26647 0.88787 0.47988 0.0
C737 C 0.29895 0.89363 0.49473 0.0
H738 H 0.21187 0.88748 0.48744 0.0
C739 C 0.30119 0.89776 0.53079 0.0
H740 H 0.26387 0.88434 0.45227 0.0
C741 C 0.27134 0.89986 0.55099 0.0
C742 C 0.23869 0.89761 0.53556 0.0
H743 H 0.32586 0.90194 0.54315 0.0
H744 H 0.27384 0.90566 0.57823 0.0
C745 C 0.23663 0.8897 0.50014 0.0
C746 C 0.75095 0.59223 0.52197 0.0
C747 C 0.75329 0.57367 0.55312 0.0
H748 H 0.72067 0.60395 0.47734 0.0
C749 C 0.72384 0.55685 0.56578 0.0
H750 H 0.77315 0.60571 0.51167 0.0
C751 C 0.69376 0.55563 0.54591 0.0
C752 C 0.69262 0.57138 0.51317 0.0
H753 H 0.72481 0.54235 0.58969 0.0
H754 H 0.6722 0.54057 0.55531 0.0
C755 C 0.72089 0.59113 0.50221 0.0
C756 C 0.98026 0.2775 0.0934 0.0
C757 C 0.01655 0.27792 0.09188 0.0
H758 H 0.93429 0.24713 0.09005 0.0
C759 C 0.03443 0.24645 0.09079 0.0
H760 H 0.96565 0.30132 0.09436 0.0
C761 C 0.01637 0.21537 0.08869 0.0
C762 C 0.98008 0.21518 0.08719 0.0
H763 H 0.06234 0.2459 0.08973 0.0
H764 H 0.03096 0.19166 0.08613 0.0
C765 C 0.9622 0.24645 0.09085 0.0
C766 C 0.97943 0.71935 0.42759 0.0
C767 C 0.0155 0.71568 0.4296 0.0
H768 H 0.93635 0.75402 0.42887 0.0
C769 C 0.03614 0.74533 0.42899 0.0
H770 H 0.96277 0.69696 0.42788 0.0
C771 C 0.02093 0.77803 0.42904 0.0
C772 C 0.98481 0.78165 0.43026 0.0
H773 H 0.06397 0.74332 0.4303 0.0
H774 H 0.03757 0.80038 0.43045 0.0
C775 C 0.96421 0.75205 0.4282 0.0
C776 C 0.5369 0.73096 0.54768 0.0
C777 C 0.51965 0.76281 0.54726 0.0
H778 H 0.53196 0.67595 0.54753 0.0
C779 C 0.48355 0.76352 0.55029 0.0
H780 H 0.5647 0.72971 0.54526 0.0
C781 C 0.46488 0.73281 0.55234 0.0
C782 C 0.48198 0.70094 0.55049 0.0
H783 H 0.46967 0.7878 0.55017 0.0
H784 H 0.43699 0.73404 0.5535 0.0
C785 C 0.51817 0.70024 0.54884 0.0
C786 C 0.55705 0.56758 0.73289 0.0
C787 C 0.57429 0.55518 0.76227 0.0
H788 H 0.53958 0.55654 0.6817 0.0
C789 C 0.5921 0.52361 0.76022 0.0
H790 H 0.54307 0.59178 0.73365 0.0
C791 C 0.58999 0.50333 0.73053 0.0
C792 C 0.56994 0.5142 0.70237 0.0
H793 H 0.60582 0.51347 0.78238 0.0
H794 H 0.60237 0.47826 0.73051 0.0
C795 C 0.5548 0.5472 0.70321 0.0
C796 C 0.4093 0.96944 0.7354 0.0
C797 C 0.41174 0.98805 0.76632 0.0
H798 H 0.41001 0.97139 0.68025 0.0
C799 C 0.41204 0.02435 0.76494 0.0
H800 H 0.40884 0.9415 0.73563 0.0
C801 C 0.41333 0.04152 0.7332 0.0
C802 C 0.41369 0.02275 0.70228 0.0
H803 H 0.41383 0.0395 0.78835 0.0
H804 H 0.41596 0.06933 0.73296 0.0
C805 C 0.40994 0.98665 0.70366 0.0
C806 C 0.51323 0.29218 0.9 0.0
C807 C 0.47695 0.2905 0.90062 0.0
H808 H 0.56088 0.26433 0.90347 0.0
C809 C 0.46103 0.25806 0.89971 0.0
H810 H 0.52636 0.31681 0.90052 0.0
C811 C 0.48092 0.22797 0.90103 0.0
C812 C 0.51709 0.22975 0.9037 0.0
H813 H 0.43319 0.25588 0.89999 0.0
H814 H 0.46774 0.20339 0.90223 0.0
C815 C 0.5331 0.2621 0.90174 0.0
loop_
_geom_bond_atom_site_label_1
_geom_bond_atom_site_label_2
_geom_bond_distance
_geom_bond_site_symmetry_2
_ccdc_geom_bond_type
O0 Cd1 2.223 1_455 S
O0 C8 1.315 . S
Cd1 O0 2.223 1_655 S
Cd1 O4 2.297 . S
Cd1 O5 2.439 . S
Cd1 O11 2.240 . S
Cd2 O3 2.240 . S
Cd2 O10 2.223 1_455 S
Cd2 O12 2.297 . S
Cd2 O13 2.439 1_455 S
O3 Cd2 2.240 . S
O3 C8 1.279 . S
O4 Cd1 2.297 . S
O4 C6 1.247 . S
O5 Cd1 2.439 . S
O5 C6 1.208 . S
C6 O4 1.247 . S
C6 O5 1.208 . S
C7 O12 1.236 1_655 S
C7 O13 1.210 . S
C8 O0 1.315 . S
C8 O3 1.279 . S
C9 O10 1.315 . S
C9 O11 1.279 . S
O10 Cd2 2.223 1_655 S
O10 C9 1.315 . S
O11 Cd1 2.240 . S
O11 C9 1.279 . S
O12 Cd2 2.297 . S
O12 C7 1.236 1_455 S
O13 Cd2 2.439 1_655 S
O13 C7 1.210 . S
O14 Cd15 2.223 1_655 S
O14 C22 1.315 . S
Cd15 O14 2.223 1_455 S
Cd15 O18 2.297 . S
Cd15 O19 2.439 . S
Cd15 O25 2.240 . S
Cd16 O17 2.240 . S
Cd16 O24 2.234 . S
Cd16 O26 2.297 . S
Cd16 O27 2.426 1_655 S
O17 Cd16 2.240 . S
O17 C22 1.279 . S
O18 Cd15 2.297 . S
O18 C20 1.247 . S
O19 Cd15 2.439 . S
O19 C20 1.208 . S
C20 O18 1.247 . S
C20 O19 1.208 . S
C21 O26 1.247 . S
C21 O27 1.207 1_655 S
C22 O14 1.315 . S
C22 O17 1.279 . S
C23 O24 1.297 1_455 S
C23 O25 1.279 . S
O24 Cd16 2.234 . S
O24 C23 1.297 1_655 S
O25 Cd15 2.240 . S
O25 C23 1.279 . S
O26 Cd16 2.297 . S
O26 C21 1.247 . S
O27 Cd16 2.426 1_455 S
O27 C21 1.207 1_455 S
O28 Cd29 2.223 1_455 S
O28 C36 1.315 . S
Cd29 O28 2.223 1_655 S
Cd29 O32 2.297 . S
Cd29 O33 2.439 . S
Cd29 O39 2.240 . S
Cd30 O31 2.240 . S
Cd30 O38 2.205 1_455 S
Cd30 O40 2.297 . S
Cd30 O41 2.445 . S
O31 Cd30 2.240 . S
O31 C36 1.279 . S
O32 Cd29 2.297 . S
O32 C34 1.247 . S
O33 Cd29 2.439 . S
O33 C34 1.208 . S
C34 O32 1.247 . S
C34 O33 1.208 . S
C35 O40 1.247 . S
C35 O41 1.209 . S
C36 O28 1.315 . S
C36 O31 1.279 . S
C37 O38 1.343 . S
C37 O39 1.279 . S
O38 Cd30 2.205 1_655 S
O38 C37 1.343 . S
O39 Cd29 2.240 . S
O39 C37 1.279 . S
O40 Cd30 2.297 . S
O40 C35 1.247 . S
O41 Cd30 2.445 . S
O41 C35 1.209 . S
O42 Cd43 2.223 1_655 S
O42 C50 1.315 . S
Cd43 O42 2.223 1_455 S
Cd43 O46 2.297 . S
Cd43 O47 2.439 . S
Cd43 O53 2.240 . S
Cd44 O45 2.240 . S
Cd44 O52 2.239 . S
Cd44 O54 2.297 . S
Cd44 O55 2.439 . S
O45 Cd44 2.240 . S
O45 C50 1.279 . S
O46 Cd43 2.297 . S
O46 C48 1.247 . S
O47 Cd43 2.439 . S
O47 C48 1.208 . S
C48 O46 1.247 . S
C48 O47 1.208 . S
C49 O54 1.247 . S
C49 O55 1.208 . S
C50 O42 1.315 . S
C50 O45 1.279 . S
C51 O52 1.290 1_455 S
C51 O53 1.279 . S
O52 Cd44 2.239 . S
O52 C51 1.290 1_655 S
O53 Cd43 2.240 . S
O53 C51 1.279 . S
O54 Cd44 2.297 . S
O54 C49 1.247 . S
O55 Cd44 2.439 . S
O55 C49 1.208 . S
O56 Cd57 2.223 1_545 S
O56 C64 1.315 . S
Cd57 O56 2.223 1_565 S
Cd57 O60 2.297 . S
Cd57 O61 2.439 . S
Cd57 O67 2.240 . S
Cd58 O59 2.240 . S
Cd58 O66 2.223 1_545 S
Cd58 O68 2.297 . S
Cd58 O69 2.439 1_545 S
O59 Cd58 2.240 . S
O59 C64 1.279 . S
O60 Cd57 2.297 . S
O60 C62 1.247 . S
O61 Cd57 2.439 . S
O61 C62 1.208 . S
C62 O60 1.247 . S
C62 O61 1.208 . S
C63 O68 1.236 1_565 S
C63 O69 1.210 . S
C64 O56 1.315 . S
C64 O59 1.279 . S
C65 O66 1.315 . S
C65 O67 1.279 . S
O66 Cd58 2.223 1_565 S
O66 C65 1.315 . S
O67 Cd57 2.240 . S
O67 C65 1.279 . S
O68 Cd58 2.297 . S
O68 C63 1.236 1_545 S
O69 Cd58 2.439 1_565 S
O69 C63 1.210 . S
O70 Cd71 2.223 . S
O70 C78 1.315 . S
Cd71 O70 2.223 . S
Cd71 O74 2.297 . S
Cd71 O75 2.439 . S
Cd71 O81 2.240 . S
Cd72 O73 2.240 . S
Cd72 O80 2.223 . S
Cd72 O82 2.297 . S
Cd72 O83 2.439 . S
O73 Cd72 2.240 . S
O73 C78 1.279 . S
O74 Cd71 2.297 . S
O74 C76 1.247 . S
O75 Cd71 2.439 . S
O75 C76 1.208 . S
C76 O74 1.247 . S
C76 O75 1.208 . S
C77 O82 1.247 . S
C77 O83 1.208 . S
C78 O70 1.315 . S
C78 O73 1.279 . S
C79 O80 1.315 . S
C79 O81 1.279 . S
O80 Cd72 2.223 . S
O80 C79 1.315 . S
O81 Cd71 2.240 . S
O81 C79 1.279 . S
O82 Cd72 2.297 . S
O82 C77 1.247 . S
O83 Cd72 2.439 . S
O83 C77 1.208 . S
O84 Cd85 2.223 1_565 S
O84 C92 1.315 . S
Cd85 O84 2.223 1_545 S
Cd85 O88 2.297 . S
Cd85 O89 2.439 . S
Cd85 O95 2.240 . S
Cd86 O87 2.240 . S
Cd86 O94 2.234 . S
Cd86 O96 2.297 . S
Cd86 O97 2.426 1_565 S
O87 Cd86 2.240 . S
O87 C92 1.279 . S
O88 Cd85 2.297 . S
O88 C90 1.247 . S
O89 Cd85 2.439 . S
O89 C90 1.208 . S
C90 O88 1.247 . S
C90 O89 1.208 . S
C91 O96 1.247 . S
C91 O97 1.207 1_565 S
C92 O84 1.315 . S
C92 O87 1.279 . S
C93 O94 1.297 1_545 S
C93 O95 1.279 . S
O94 Cd86 2.234 . S
O94 C93 1.297 1_565 S
O95 Cd85 2.240 . S
O95 C93 1.279 . S
O96 Cd86 2.297 . S
O96 C91 1.247 . S
O97 Cd86 2.426 1_545 S
O97 C91 1.207 1_545 S
O98 Cd99 2.223 . S
O98 C106 1.315 . S
Cd99 O98 2.223 . S
Cd99 O102 2.297 . S
Cd99 O103 2.439 . S
Cd99 O109 2.240 . S
Cd100 O101 2.240 . S
Cd100 O108 2.223 . S
Cd100 O110 2.297 . S
Cd100 O111 2.439 . S
O101 Cd100 2.240 . S
O101 C106 1.279 . S
O102 Cd99 2.297 . S
O102 C104 1.247 . S
O103 Cd99 2.439 . S
O103 C104 1.208 . S
C104 O102 1.247 . S
C104 O103 1.208 . S
C105 O110 1.247 . S
C105 O111 1.208 . S
C106 O98 1.315 . S
C106 O101 1.279 . S
C107 O108 1.315 . S
C107 O109 1.279 . S
O108 Cd100 2.223 . S
O108 C107 1.315 . S
O109 Cd99 2.240 . S
O109 C107 1.279 . S
O110 Cd100 2.297 . S
O110 C105 1.247 . S
O111 Cd100 2.439 . S
O111 C105 1.208 . S
O112 Cd113 2.223 1_554 S
O112 C120 1.315 . S
Cd113 O112 2.223 1_556 S
Cd113 O116 2.297 . S
Cd113 O117 2.439 . S
Cd113 O123 2.240 . S
Cd114 O115 2.240 . S
Cd114 O122 2.223 1_554 S
Cd114 O124 2.297 . S
Cd114 O125 2.439 1_554 S
O115 Cd114 2.240 . S
O115 C120 1.279 . S
O116 Cd113 2.297 . S
O116 C118 1.247 . S
O117 Cd113 2.439 . S
O117 C118 1.208 . S
C118 O116 1.247 . S
C118 O117 1.208 . S
C119 O124 1.236 1_556 S
C119 O125 1.210 . S
C120 O112 1.315 . S
C120 O115 1.279 . S
C121 O122 1.315 . S
C121 O123 1.279 . S
O122 Cd114 2.223 1_556 S
O122 C121 1.315 . S
O123 Cd113 2.240 . S
O123 C121 1.279 . S
O124 Cd114 2.297 . S
O124 C119 1.236 1_554 S
O125 Cd114 2.439 1_556 S
O125 C119 1.210 . S
O126 Cd127 2.223 . S
O126 C134 1.315 . S
Cd127 O126 2.223 . S
Cd127 O130 2.297 . S
Cd127 O131 2.439 . S
Cd127 O137 2.240 . S
Cd128 O129 2.240 . S
Cd128 O136 2.223 . S
Cd128 O138 2.297 . S
Cd128 O139 2.439 . S
O129 Cd128 2.240 . S
O129 C134 1.279 . S
O130 Cd127 2.297 . S
O130 C132 1.247 . S
O131 Cd127 2.439 . S
O131 C132 1.208 . S
C132 O130 1.247 . S
C132 O131 1.208 . S
C133 O138 1.247 . S
C133 O139 1.208 . S
C134 O126 1.315 . S
C134 O129 1.279 . S
C135 O136 1.315 . S
C135 O137 1.279 . S
O136 Cd128 2.223 . S
O136 C135 1.315 . S
O137 Cd127 2.240 . S
O137 C135 1.279 . S
O138 Cd128 2.297 . S
O138 C133 1.247 . S
O139 Cd128 2.439 . S
O139 C133 1.208 . S
O140 Cd141 2.223 . S
O140 C148 1.315 . S
Cd141 O140 2.223 . S
Cd141 O144 2.297 . S
Cd141 O145 2.439 . S
Cd141 O151 2.240 . S
Cd142 O143 2.240 . S
Cd142 O150 2.223 . S
Cd142 O152 2.297 . S
Cd142 O153 2.439 . S
O143 Cd142 2.240 . S
O143 C148 1.279 . S
O144 Cd141 2.297 . S
O144 C146 1.247 . S
O145 Cd141 2.439 . S
O145 C146 1.208 . S
C146 O144 1.247 . S
C146 O145 1.208 . S
C147 O152 1.247 . S
C147 O153 1.208 . S
C148 O140 1.315 . S
C148 O143 1.279 . S
C149 O150 1.315 . S
C149 O151 1.279 . S
O150 Cd142 2.223 . S
O150 C149 1.315 . S
O151 Cd141 2.240 . S
O151 C149 1.279 . S
O152 Cd142 2.297 . S
O152 C147 1.247 . S
O153 Cd142 2.439 . S
O153 C147 1.208 . S
O154 Cd155 2.223 . S
O154 C162 1.315 . S
Cd155 O154 2.223 . S
Cd155 O158 2.297 . S
Cd155 O159 2.439 . S
Cd155 O165 2.240 . S
Cd156 O157 2.240 . S
Cd156 O164 2.223 . S
Cd156 O166 2.297 . S
Cd156 O167 2.439 . S
O157 Cd156 2.240 . S
O157 C162 1.279 . S
O158 Cd155 2.297 . S
O158 C160 1.247 . S
O159 Cd155 2.439 . S
O159 C160 1.208 . S
C160 O158 1.247 . S
C160 O159 1.208 . S
C161 O166 1.247 . S
C161 O167 1.208 . S
C162 O154 1.315 . S
C162 O157 1.279 . S
C163 O164 1.315 . S
C163 O165 1.279 . S
O164 Cd156 2.223 . S
O164 C163 1.315 . S
O165 Cd155 2.240 . S
O165 C163 1.279 . S
O166 Cd156 2.297 . S
O166 C161 1.247 . S
O167 Cd156 2.439 . S
O167 C161 1.208 . S
O168 Cd169 2.223 . S
O168 C176 1.315 . S
Cd169 O168 2.223 . S
Cd169 O172 2.297 . S
Cd169 O173 2.439 . S
Cd169 O179 2.240 . S
Cd170 O171 2.240 . S
Cd170 O178 2.223 . S
Cd170 O180 2.297 . S
Cd170 O181 2.439 . S
O171 Cd170 2.240 . S
O171 C176 1.279 . S
O172 Cd169 2.297 . S
O172 C174 1.247 . S
O173 Cd169 2.439 . S
O173 C174 1.208 . S
C174 O172 1.247 . S
C174 O173 1.208 . S
C175 O180 1.247 . S
C175 O181 1.208 . S
C176 O168 1.315 . S
C176 O171 1.279 . S
C177 O178 1.315 . S
C177 O179 1.279 . S
O178 Cd170 2.223 . S
O178 C177 1.315 . S
O179 Cd169 2.240 . S
O179 C177 1.279 . S
O180 Cd170 2.297 . S
O180 C175 1.247 . S
O181 Cd170 2.439 . S
O181 C175 1.208 . S
O182 Cd183 2.223 . S
O182 C190 1.315 . S
Cd183 O182 2.223 . S
Cd183 O186 2.297 . S
Cd183 O187 2.439 . S
Cd183 O193 2.240 . S
Cd184 O185 2.240 . S
Cd184 O192 2.223 . S
Cd184 O194 2.297 . S
Cd184 O195 2.439 . S
O185 Cd184 2.240 . S
O185 C190 1.279 . S
O186 Cd183 2.297 . S
O186 C188 1.247 . S
O187 Cd183 2.439 . S
O187 C188 1.208 . S
C188 O186 1.247 . S
C188 O187 1.208 . S
C189 O194 1.247 . S
C189 O195 1.208 . S
C190 O182 1.315 . S
C190 O185 1.279 . S
C191 O192 1.315 . S
C191 O193 1.279 . S
O192 Cd184 2.223 . S
O192 C191 1.315 . S
O193 Cd183 2.240 . S
O193 C191 1.279 . S
O194 Cd184 2.297 . S
O194 C189 1.247 . S
O195 Cd184 2.439 . S
O195 C189 1.208 . S
O196 Cd197 2.223 . S
O196 C204 1.315 . S
Cd197 O196 2.223 . S
Cd197 O200 2.297 . S
Cd197 O201 2.439 . S
Cd197 O207 2.240 . S
Cd198 O199 2.240 . S
Cd198 O206 2.223 . S
Cd198 O208 2.297 . S
Cd198 O209 2.439 . S
O199 Cd198 2.240 . S
O199 C204 1.279 . S
O200 Cd197 2.297 . S
O200 C202 1.247 . S
O201 Cd197 2.439 . S
O201 C202 1.208 . S
C202 O200 1.247 . S
C202 O201 1.208 . S
C203 O208 1.247 . S
C203 O209 1.208 . S
C204 O196 1.315 . S
C204 O199 1.279 . S
C205 O206 1.315 . S
C205 O207 1.279 . S
O206 Cd198 2.223 . S
O206 C205 1.315 . S
O207 Cd197 2.240 . S
O207 C205 1.279 . S
O208 Cd198 2.297 . S
O208 C203 1.247 . S
O209 Cd198 2.439 . S
O209 C203 1.208 . S
O210 Cd211 2.223 . S
O210 C218 1.315 . S
Cd211 O210 2.223 . S
Cd211 O214 2.297 . S
Cd211 O215 2.439 . S
Cd211 O221 2.240 . S
Cd212 O213 2.240 . S
Cd212 O220 2.223 . S
Cd212 O222 2.297 . S
Cd212 O223 2.439 . S
O213 Cd212 2.240 . S
O213 C218 1.279 . S
O214 Cd211 2.297 . S
O214 C216 1.247 . S
O215 Cd211 2.439 . S
O215 C216 1.208 . S
C216 O214 1.247 . S
C216 O215 1.208 . S
C217 O222 1.247 . S
C217 O223 1.208 . S
C218 O210 1.315 . S
C218 O213 1.279 . S
C219 O220 1.315 . S
C219 O221 1.279 . S
O220 Cd212 2.223 . S
O220 C219 1.315 . S
O221 Cd211 2.240 . S
O221 C219 1.279 . S
O222 Cd212 2.297 . S
O222 C217 1.247 . S
O223 Cd212 2.439 . S
O223 C217 1.208 . S
O224 Cd225 2.223 . S
O224 C232 1.315 . S
Cd225 O224 2.223 . S
Cd225 O228 2.297 . S
Cd225 O229 2.439 . S
Cd225 O235 2.240 . S
Cd226 O227 2.240 . S
Cd226 O234 2.223 . S
Cd226 O236 2.297 . S
Cd226 O237 2.439 . S
O227 Cd226 2.240 . S
O227 C232 1.279 . S
O228 Cd225 2.297 . S
O228 C230 1.247 . S
O229 Cd225 2.439 . S
O229 C230 1.208 . S
C230 O228 1.247 . S
C230 O229 1.208 . S
C231 O236 1.247 . S
C231 O237 1.208 . S
C232 O224 1.315 . S
C232 O227 1.279 . S
C233 O234 1.315 . S
C233 O235 1.279 . S
O234 Cd226 2.223 . S
O234 C233 1.315 . S
O235 Cd225 2.240 . S
O235 C233 1.279 . S
O236 Cd226 2.297 . S
O236 C231 1.247 . S
O237 Cd226 2.439 . S
O237 C231 1.208 . S
O238 Cd239 2.223 1_565 S
O238 C246 1.315 . S
Cd239 O238 2.223 1_545 S
Cd239 O242 2.297 . S
Cd239 O243 2.439 . S
Cd239 O249 2.240 . S
Cd240 O241 2.240 . S
Cd240 O248 2.239 . S
Cd240 O250 2.297 . S
Cd240 O251 2.439 . S
O241 Cd240 2.240 . S
O241 C246 1.279 . S
O242 Cd239 2.297 . S
O242 C244 1.247 . S
O243 Cd239 2.439 . S
O243 C244 1.208 . S
C244 O242 1.247 . S
C244 O243 1.208 . S
C245 O250 1.247 . S
C245 O251 1.208 . S
C246 O238 1.315 . S
C246 O241 1.279 . S
C247 O248 1.290 1_545 S
C247 O249 1.279 . S
O248 Cd240 2.239 . S
O248 C247 1.290 1_565 S
O249 Cd239 2.240 . S
O249 C247 1.279 . S
O250 Cd240 2.297 . S
O250 C245 1.247 . S
O251 Cd240 2.439 . S
O251 C245 1.208 . S
O252 Cd253 2.223 . S
O252 C260 1.315 . S
Cd253 O252 2.223 . S
Cd253 O256 2.297 . S
Cd253 O257 2.439 . S
Cd253 O263 2.240 . S
Cd254 O255 2.240 . S
Cd254 O262 2.223 . S
Cd254 O264 2.297 . S
Cd254 O265 2.439 . S
O255 Cd254 2.240 . S
O255 C260 1.279 . S
O256 Cd253 2.297 . S
O256 C258 1.247 . S
O257 Cd253 2.439 . S
O257 C258 1.208 . S
C258 O256 1.247 . S
C258 O257 1.208 . S
C259 O264 1.247 . S
C259 O265 1.208 . S
C260 O252 1.315 . S
C260 O255 1.279 . S
C261 O262 1.315 . S
C261 O263 1.279 . S
O262 Cd254 2.223 . S
O262 C261 1.315 . S
O263 Cd253 2.240 . S
O263 C261 1.279 . S
O264 Cd254 2.297 . S
O264 C259 1.247 . S
O265 Cd254 2.439 . S
O265 C259 1.208 . S
O266 Cd267 2.223 1_545 S
O266 C274 1.315 . S
Cd267 O266 2.223 1_565 S
Cd267 O270 2.297 . S
Cd267 O271 2.439 . S
Cd267 O277 2.240 . S
Cd268 O269 2.240 . S
Cd268 O276 2.205 1_545 S
Cd268 O278 2.297 . S
Cd268 O279 2.445 . S
O269 Cd268 2.240 . S
O269 C274 1.279 . S
O270 Cd267 2.297 . S
O270 C272 1.247 . S
O271 Cd267 2.439 . S
O271 C272 1.208 . S
C272 O270 1.247 . S
C272 O271 1.208 . S
C273 O278 1.247 . S
C273 O279 1.209 . S
C274 O266 1.315 . S
C274 O269 1.279 . S
C275 O276 1.343 . S
C275 O277 1.279 . S
O276 Cd268 2.205 1_565 S
O276 C275 1.343 . S
O277 Cd267 2.240 . S
O277 C275 1.279 . S
O278 Cd268 2.297 . S
O278 C273 1.247 . S
O279 Cd268 2.445 . S
O279 C273 1.209 . S
O280 Cd281 2.223 . S
O280 C288 1.315 . S
Cd281 O280 2.223 . S
Cd281 O284 2.297 . S
Cd281 O285 2.439 . S
Cd281 O291 2.240 . S
Cd282 O283 2.240 . S
Cd282 O290 2.223 . S
Cd282 O292 2.297 . S
Cd282 O293 2.439 . S
O283 Cd282 2.240 . S
O283 C288 1.279 . S
O284 Cd281 2.297 . S
O284 C286 1.247 . S
O285 Cd281 2.439 . S
O285 C286 1.208 . S
C286 O284 1.247 . S
C286 O285 1.208 . S
C287 O292 1.247 . S
C287 O293 1.208 . S
C288 O280 1.315 . S
C288 O283 1.279 . S
C289 O290 1.315 . S
C289 O291 1.279 . S
O290 Cd282 2.223 . S
O290 C289 1.315 . S
O291 Cd281 2.240 . S
O291 C289 1.279 . S
O292 Cd282 2.297 . S
O292 C287 1.247 . S
O293 Cd282 2.439 . S
O293 C287 1.208 . S
O294 Cd295 2.223 1_556 S
O294 C302 1.315 . S
Cd295 O294 2.223 1_554 S
Cd295 O298 2.297 . S
Cd295 O299 2.439 . S
Cd295 O305 2.240 . S
Cd296 O297 2.240 . S
Cd296 O304 2.239 . S
Cd296 O306 2.297 . S
Cd296 O307 2.439 . S
O297 Cd296 2.240 . S
O297 C302 1.279 . S
O298 Cd295 2.297 . S
O298 C300 1.247 . S
O299 Cd295 2.439 . S
O299 C300 1.208 . S
C300 O298 1.247 . S
C300 O299 1.208 . S
C301 O306 1.247 . S
C301 O307 1.208 . S
C302 O294 1.315 . S
C302 O297 1.279 . S
C303 O304 1.290 1_554 S
C303 O305 1.279 . S
O304 Cd296 2.239 . S
O304 C303 1.290 1_556 S
O305 Cd295 2.240 . S
O305 C303 1.279 . S
O306 Cd296 2.297 . S
O306 C301 1.247 . S
O307 Cd296 2.439 . S
O307 C301 1.208 . S
O308 Cd309 2.223 1_556 S
O308 C316 1.315 . S
Cd309 O308 2.223 1_554 S
Cd309 O312 2.297 . S
Cd309 O313 2.439 . S
Cd309 O319 2.240 . S
Cd310 O311 2.240 . S
Cd310 O318 2.234 . S
Cd310 O320 2.297 . S
Cd310 O321 2.426 1_556 S
O311 Cd310 2.240 . S
O311 C316 1.279 . S
O312 Cd309 2.297 . S
O312 C314 1.247 . S
O313 Cd309 2.439 . S
O313 C314 1.208 . S
C314 O312 1.247 . S
C314 O313 1.208 . S
C315 O320 1.247 . S
C315 O321 1.207 1_556 S
C316 O308 1.315 . S
C316 O311 1.279 . S
C317 O318 1.297 1_554 S
C317 O319 1.279 . S
O318 Cd310 2.234 . S
O318 C317 1.297 1_556 S
O319 Cd309 2.240 . S
O319 C317 1.279 . S
O320 Cd310 2.297 . S
O320 C315 1.247 . S
O321 Cd310 2.426 1_554 S
O321 C315 1.207 1_554 S
O322 Cd323 2.223 1_554 S
O322 C330 1.315 . S
Cd323 O322 2.223 1_556 S
Cd323 O326 2.297 . S
Cd323 O327 2.439 . S
Cd323 O333 2.240 . S
Cd324 O325 2.240 . S
Cd324 O332 2.205 1_554 S
Cd324 O334 2.297 . S
Cd324 O335 2.445 . S
O325 Cd324 2.240 . S
O325 C330 1.279 . S
O326 Cd323 2.297 . S
O326 C328 1.247 . S
O327 Cd323 2.439 . S
O327 C328 1.208 . S
C328 O326 1.247 . S
C328 O327 1.208 . S
C329 O334 1.247 . S
C329 O335 1.209 . S
C330 O322 1.315 . S
C330 O325 1.279 . S
C331 O332 1.343 . S
C331 O333 1.279 . S
O332 Cd324 2.205 1_556 S
O332 C331 1.343 . S
O333 Cd323 2.240 . S
O333 C331 1.279 . S
O334 Cd324 2.297 . S
O334 C329 1.247 . S
O335 Cd324 2.445 . S
O335 C329 1.209 . S
C336 C337 1.387 . S
C336 H340 0.950 1_545 S
C336 C345 1.390 . S
C337 C336 1.387 . S
C337 C339 1.387 . S
H338 C345 0.950 . S
C339 C337 1.387 . S
C339 C341 1.390 . S
C339 H343 0.950 . S
H340 C336 0.950 1_565 S
C341 C339 1.390 . S
C341 C342 1.387 . S
C341 H344 0.950 . S
C342 C341 1.387 . S
C342 C345 1.387 . S
H343 C339 0.950 . S
H344 C341 0.950 . S
C345 C336 1.390 . S
C345 H338 0.950 . S
C345 C342 1.387 . S
C346 C347 1.387 . S
C346 H350 0.950 . S
C346 C355 1.390 . S
C347 C346 1.387 . S
C347 C349 1.387 . S
H348 C355 0.950 . S
C349 C347 1.387 . S
C349 C351 1.390 . S
C349 H353 0.950 . S
H350 C346 0.950 . S
C351 C349 1.390 . S
C351 C352 1.387 . S
C351 H354 0.950 . S
C352 C351 1.387 . S
C352 C355 1.387 . S
H353 C349 0.950 . S
H354 C351 0.950 . S
C355 C346 1.390 . S
C355 H348 0.950 . S
C355 C352 1.387 . S
C356 C357 1.387 . S
C356 H360 0.950 . S
C356 C365 1.390 . S
C357 C356 1.387 . S
C357 C359 1.387 . S
H358 C365 0.950 . S
C359 C357 1.387 . S
C359 C361 1.390 1_554 S
C359 H363 0.950 . S
H360 C356 0.950 . S
C361 C359 1.390 1_556 S
C361 C362 1.387 . S
C361 H364 0.950 . S
C362 C361 1.387 . S
C362 C365 1.387 1_556 S
H363 C359 0.950 . S
H364 C361 0.950 . S
C365 C356 1.390 . S
C365 H358 0.950 . S
C365 C362 1.387 1_554 S
C366 C367 1.387 . S
C366 H370 0.950 . S
C366 C375 1.390 . S
C367 C366 1.387 . S
C367 C369 1.387 . S
H368 C375 0.950 1_556 S
C369 C367 1.387 . S
C369 C371 1.360 1_554 S
C369 H373 0.950 . S
H370 C366 0.950 . S
C371 C369 1.360 1_556 S
C371 C372 1.402 . S
C371 H374 0.966 . S
C372 C371 1.402 . S
C372 C375 1.387 1_556 S
H373 C369 0.950 . S
H374 C371 0.966 . S
C375 C366 1.390 . S
C375 H368 0.950 1_554 S
C375 C372 1.387 1_554 S
C376 C377 1.387 . S
C376 H380 0.950 . S
C376 C385 1.390 . S
C377 C376 1.387 . S
C377 C379 1.387 . S
H378 C385 0.950 . S
C379 C377 1.387 . S
C379 C381 1.390 . S
C379 H383 0.950 . S
H380 C376 0.950 . S
C381 C379 1.390 . S
C381 C382 1.387 . S
C381 H384 0.950 . S
C382 C381 1.387 . S
C382 C385 1.387 . S
H383 C379 0.950 . S
H384 C381 0.950 . S
C385 C376 1.390 . S
C385 H378 0.950 . S
C385 C382 1.387 . S
C386 C387 1.387 . S
C386 H390 0.950 . S
C386 C395 1.390 . S
C387 C386 1.387 . S
C387 C389 1.387 . S
H388 C395 0.950 . S
C389 C387 1.387 . S
C389 C391 1.390 . S
C389 H393 0.950 . S
H390 C386 0.950 . S
C391 C389 1.390 . S
C391 C392 1.387 . S
C391 H394 0.950 . S
C392 C391 1.387 . S
C392 C395 1.387 . S
H393 C389 0.950 . S
H394 C391 0.950 . S
C395 C386 1.390 . S
C395 H388 0.950 . S
C395 C392 1.387 . S
C396 C397 1.387 . S
C396 H400 0.950 . S
C396 C405 1.390 . S
C397 C396 1.387 . S
C397 C399 1.387 . S
H398 C405 0.950 . S
C399 C397 1.387 . S
C399 C401 1.390 . S
C399 H403 0.950 . S
H400 C396 0.950 . S
C401 C399 1.390 . S
C401 C402 1.387 . S
C401 H404 0.950 . S
C402 C401 1.387 . S
C402 C405 1.387 . S
H403 C399 0.950 . S
H404 C401 0.950 . S
C405 C396 1.390 . S
C405 H398 0.950 . S
C405 C402 1.387 . S
C406 C407 1.387 . S
C406 H410 0.950 . S
C406 C415 1.390 . S
C407 C406 1.387 . S
C407 C409 1.387 . S
H408 C415 0.950 . S
C409 C407 1.387 . S
C409 C411 1.390 . S
C409 H413 0.950 . S
H410 C406 0.950 . S
C411 C409 1.390 . S
C411 C412 1.387 . S
C411 H414 0.950 . S
C412 C411 1.387 . S
C412 C415 1.387 . S
H413 C409 0.950 . S
H414 C411 0.950 . S
C415 C406 1.390 . S
C415 H408 0.950 . S
C415 C412 1.387 . S
C416 C417 1.387 . S
C416 H420 0.950 . S
C416 C425 1.390 . S
C417 C416 1.387 . S
C417 C419 1.387 . S
H418 C425 0.950 . S
C419 C417 1.387 . S
C419 C421 1.390 . S
C419 H423 0.950 . S
H420 C416 0.950 . S
C421 C419 1.390 . S
C421 C422 1.387 . S
C421 H424 0.950 . S
C422 C421 1.387 . S
C422 C425 1.387 . S
H423 C419 0.950 . S
H424 C421 0.950 . S
C425 C416 1.390 . S
C425 H418 0.950 . S
C425 C422 1.387 . S
C426 C427 1.387 . S
C426 H430 0.950 . S
C426 C435 1.390 . S
C427 C426 1.387 . S
C427 C429 1.387 . S
H428 C435 0.950 . S
C429 C427 1.387 . S
C429 C431 1.390 . S
C429 H433 0.950 . S
H430 C426 0.950 . S
C431 C429 1.390 . S
C431 C432 1.387 . S
C431 H434 0.950 . S
C432 C431 1.387 . S
C432 C435 1.387 . S
H433 C429 0.950 . S
H434 C431 0.950 . S
C435 C426 1.390 . S
C435 H428 0.950 . S
C435 C432 1.387 . S
C436 C437 1.387 . S
C436 H440 0.950 . S
C436 C445 1.390 1_565 S
C437 C436 1.387 . S
C437 C439 1.387 . S
H438 C445 0.950 . S
C439 C437 1.387 . S
C439 C441 1.390 . S
C439 H443 0.950 . S
H440 C436 0.950 . S
C441 C439 1.390 . S
C441 C442 1.387 1_565 S
C441 H444 0.950 . S
C442 C441 1.387 1_545 S
C442 C445 1.387 . S
H443 C439 0.950 . S
H444 C441 0.950 . S
C445 C436 1.390 1_545 S
C445 H438 0.950 . S
C445 C442 1.387 . S
C446 C447 1.387 . S
C446 H450 0.950 . S
C446 C455 1.390 . S
C447 C446 1.387 . S
C447 C449 1.387 . S
H448 C455 0.950 . S
C449 C447 1.387 . S
C449 C451 1.390 . S
C449 H453 0.950 . S
H450 C446 0.950 . S
C451 C449 1.390 . S
C451 C452 1.387 . S
C451 H454 0.950 . S
C452 C451 1.387 . S
C452 C455 1.387 . S
H453 C449 0.950 . S
H454 C451 0.950 . S
C455 C446 1.390 . S
C455 H448 0.950 . S
C455 C452 1.387 . S
C456 C457 1.387 1_556 S
C456 H460 0.950 1_556 S
C456 C465 1.390 . S
C457 C456 1.387 1_554 S
C457 C459 1.387 1_554 S
H458 C465 0.950 . S
C459 C457 1.387 1_556 S
C459 C461 1.390 . S
C459 H463 0.950 1_556 S
H460 C456 0.950 1_554 S
C461 C459 1.390 . S
C461 C462 1.387 . S
C461 H464 0.950 . S
C462 C461 1.387 . S
C462 C465 1.387 . S
H463 C459 0.950 1_554 S
H464 C461 0.950 . S
C465 C456 1.390 . S
C465 H458 0.950 . S
C465 C462 1.387 . S
C466 C467 1.387 . S
C466 H470 0.950 . S
C466 C475 1.390 1_554 S
C467 C466 1.387 . S
C467 C469 1.387 1_554 S
H468 C475 0.950 . S
C469 C467 1.387 1_556 S
C469 C471 1.390 . S
C469 H473 0.950 . S
H470 C466 0.950 . S
C471 C469 1.390 . S
C471 C472 1.387 . S
C471 H474 0.950 . S
C472 C471 1.387 . S
C472 C475 1.387 . S
H473 C469 0.950 . S
H474 C471 0.950 . S
C475 C466 1.390 1_556 S
C475 H468 0.950 . S
C475 C472 1.387 . S
C476 C477 1.387 . S
C476 H480 0.950 . S
C476 C485 1.390 . S
C477 C476 1.387 . S
C477 C479 1.387 . S
H478 C485 0.950 . S
C479 C477 1.387 . S
C479 C481 1.390 . S
C479 H483 0.950 . S
H480 C476 0.950 . S
C481 C479 1.390 . S
C481 C482 1.387 . S
C481 H484 0.950 . S
C482 C481 1.387 . S
C482 C485 1.387 . S
H483 C479 0.950 . S
H484 C481 0.950 . S
C485 C476 1.390 . S
C485 H478 0.950 . S
C485 C482 1.387 . S
C486 C487 1.387 . S
C486 H490 0.950 . S
C486 C495 1.390 . S
C487 C486 1.387 . S
C487 C489 1.387 . S
H488 C495 0.950 . S
C489 C487 1.387 . S
C489 C491 1.390 . S
C489 H493 0.950 . S
H490 C486 0.950 . S
C491 C489 1.390 . S
C491 C492 1.387 . S
C491 H494 0.950 . S
C492 C491 1.387 . S
C492 C495 1.387 . S
H493 C489 0.950 . S
H494 C491 0.950 . S
C495 C486 1.390 . S
C495 H488 0.950 . S
C495 C492 1.387 . S
C496 C497 1.387 1_655 S
C496 H500 0.950 1_655 S
C496 C505 1.390 . S
C497 C496 1.387 1_455 S
C497 C499 1.387 1_455 S
H498 C505 0.950 . S
C499 C497 1.387 1_655 S
C499 C501 1.390 . S
C499 H503 0.950 1_655 S
H500 C496 0.950 1_455 S
C501 C499 1.390 . S
C501 C502 1.387 . S
C501 H504 0.950 . S
C502 C501 1.387 . S
C502 C505 1.387 . S
H503 C499 0.950 1_455 S
H504 C501 0.950 . S
C505 C496 1.390 . S
C505 H498 0.950 . S
C505 C502 1.387 . S
C506 C507 1.392 . S
C506 H510 0.955 . S
C506 C515 1.380 1_655 S
C507 C506 1.392 . S
C507 C509 1.378 1_655 S
H508 C515 0.950 . S
C509 C507 1.378 1_455 S
C509 C511 1.409 . S
C509 H513 0.941 1_455 S
H510 C506 0.955 . S
C511 C509 1.409 . S
C511 C512 1.387 . S
C511 H514 0.950 . S
C512 C511 1.387 . S
C512 C515 1.387 . S
H513 C509 0.941 1_655 S
H514 C511 0.950 . S
C515 C506 1.380 1_455 S
C515 H508 0.950 . S
C515 C512 1.387 . S
C516 C517 1.387 1_655 S
C516 H520 0.950 . S
C516 C525 1.390 . S
C517 C516 1.387 1_455 S
C517 C519 1.387 1_455 S
H518 C525 0.950 . S
C519 C517 1.387 1_655 S
C519 C521 1.390 . S
C519 H523 0.950 1_655 S
H520 C516 0.950 . S
C521 C519 1.390 . S
C521 C522 1.387 . S
C521 H524 0.950 . S
C522 C521 1.387 . S
C522 C525 1.387 . S
H523 C519 0.950 1_455 S
H524 C521 0.950 . S
C525 C516 1.390 . S
C525 H518 0.950 . S
C525 C522 1.387 . S
C526 C527 1.387 . S
C526 H530 0.950 . S
C526 C535 1.390 . S
C527 C526 1.387 . S
C527 C529 1.387 . S
H528 C535 0.950 1_655 S
C529 C527 1.387 . S
C529 C531 1.390 . S
C529 H533 0.950 . S
H530 C526 0.950 . S
C531 C529 1.390 . S
C531 C532 1.387 1_455 S
C531 H534 0.950 1_455 S
C532 C531 1.387 1_655 S
C532 C535 1.387 1_655 S
H533 C529 0.950 . S
H534 C531 0.950 1_655 S
C535 C526 1.390 . S
C535 H528 0.950 1_455 S
C535 C532 1.387 1_455 S
C536 C537 1.387 1_565 S
C536 H540 0.950 1_565 S
C536 C545 1.390 . S
C537 C536 1.387 1_545 S
C537 C539 1.394 . S
H538 C545 0.950 . S
C539 C537 1.394 . S
C539 C541 1.373 1_545 S
C539 H543 0.961 . S
H540 C536 0.950 1_545 S
C541 C539 1.373 1_565 S
C541 C542 1.387 . S
C541 H544 0.950 . S
C542 C541 1.387 . S
C542 C545 1.387 . S
H543 C539 0.961 . S
H544 C541 0.950 . S
C545 C536 1.390 . S
C545 H538 0.950 . S
C545 C542 1.387 . S
C546 C547 1.387 . S
C546 H550 0.950 . S
C546 C555 1.380 1_545 S
C547 C546 1.387 . S
C547 C549 1.387 . S
H548 C555 0.955 . S
C549 C547 1.387 . S
C549 C551 1.402 . S
C549 H553 0.950 . S
H550 C546 0.950 . S
C551 C549 1.402 . S
C551 C552 1.382 1_545 S
C551 H554 0.944 1_545 S
C552 C551 1.382 1_565 S
C552 C555 1.392 . S
H553 C549 0.950 . S
H554 C551 0.944 1_565 S
C555 C546 1.380 1_565 S
C555 H548 0.955 . S
C555 C552 1.392 . S
C556 C557 1.387 . S
C556 H560 0.950 . S
C556 C565 1.390 . S
C557 C556 1.387 . S
C557 C559 1.387 . S
H558 C565 0.950 . S
C559 C557 1.387 . S
C559 C561 1.390 . S
C559 H563 0.950 . S
H560 C556 0.950 . S
C561 C559 1.390 . S
C561 C562 1.387 . S
C561 H564 0.950 . S
C562 C561 1.387 . S
C562 C565 1.387 . S
H563 C559 0.950 . S
H564 C561 0.950 . S
C565 C556 1.390 . S
C565 H558 0.950 . S
C565 C562 1.387 . S
C566 C567 1.387 . S
C566 H570 0.950 . S
C566 C575 1.390 . S
C567 C566 1.387 . S
C567 C569 1.387 . S
H568 C575 0.950 . S
C569 C567 1.387 . S
C569 C571 1.390 1_545 S
C569 H573 0.950 . S
H570 C566 0.950 . S
C571 C569 1.390 1_565 S
C571 C572 1.387 . S
C571 H574 0.950 . S
C572 C571 1.387 . S
C572 C575 1.387 1_565 S
H573 C569 0.950 . S
H574 C571 0.950 . S
C575 C566 1.390 . S
C575 H568 0.950 . S
C575 C572 1.387 1_545 S
C576 C577 1.395 . S
C576 H580 0.950 . S
C576 C585 1.390 . S
C577 C576 1.395 . S
C577 C579 1.379 1_655 S
H578 C585 0.950 . S
C579 C577 1.379 1_455 S
C579 C581 1.390 . S
C579 H583 0.950 . S
H580 C576 0.950 . S
C581 C579 1.390 . S
C581 C582 1.387 . S
C581 H584 0.950 . S
C582 C581 1.387 . S
C582 C585 1.387 1_455 S
H583 C579 0.950 . S
H584 C581 0.950 . S
C585 C576 1.390 . S
C585 H578 0.950 . S
C585 C582 1.387 1_655 S
C586 C587 1.387 1_655 S
C586 H590 0.950 . S
C586 C595 1.390 . S
C587 C586 1.387 1_455 S
C587 C589 1.387 . S
H588 C595 0.950 . S
C589 C587 1.387 . S
C589 C591 1.390 . S
C589 H593 0.950 . S
H590 C586 0.950 . S
C591 C589 1.390 . S
C591 C592 1.387 1_455 S
C591 H594 0.950 . S
C592 C591 1.387 1_655 S
C592 C595 1.387 . S
H593 C589 0.950 . S
H594 C591 0.950 . S
C595 C586 1.390 . S
C595 H588 0.950 . S
C595 C592 1.387 . S
C596 C597 1.385 1_545 S
C596 H600 0.950 . S
C596 C605 1.390 . S
C597 C596 1.385 1_565 S
C597 C599 1.389 . S
H598 C605 0.950 . S
C599 C597 1.389 . S
C599 C601 1.390 . S
C599 H603 0.950 . S
H600 C596 0.950 . S
C601 C599 1.390 . S
C601 C602 1.387 1_565 S
C601 H604 0.950 . S
C602 C601 1.387 1_545 S
C602 C605 1.387 . S
H603 C599 0.950 . S
H604 C601 0.950 . S
C605 C596 1.390 . S
C605 H598 0.950 . S
C605 C602 1.387 . S
C606 C607 1.387 . S
C606 H610 0.950 . S
C606 C615 1.390 . S
C607 C606 1.387 . S
C607 C609 1.387 . S
H608 C615 0.950 . S
C609 C607 1.387 . S
C609 C611 1.390 . S
C609 H613 0.950 . S
H610 C606 0.950 . S
C611 C609 1.390 . S
C611 C612 1.387 . S
C611 H614 0.950 . S
C612 C611 1.387 . S
C612 C615 1.387 . S
H613 C609 0.950 . S
H614 C611 0.950 . S
C615 C606 1.390 . S
C615 H608 0.950 . S
C615 C612 1.387 . S
C616 C617 1.387 1_556 S
C616 H620 0.950 . S
C616 C625 1.390 . S
C617 C616 1.387 1_554 S
C617 C619 1.387 . S
H618 C625 0.950 . S
C619 C617 1.387 . S
C619 C621 1.390 . S
C619 H623 0.950 . S
H620 C616 0.950 . S
C621 C619 1.390 . S
C621 C622 1.378 1_554 S
C621 H624 0.950 . S
C622 C621 1.378 1_556 S
C622 C625 1.396 . S
H623 C619 0.950 . S
H624 C621 0.950 . S
C625 C616 1.390 . S
C625 H618 0.950 . S
C625 C622 1.396 . S
C626 C627 1.387 . S
C626 H630 0.950 . S
C626 C635 1.390 . S
C627 C626 1.387 . S
C627 C629 1.387 . S
H628 C635 0.950 . S
C629 C627 1.387 . S
C629 C631 1.390 . S
C629 H633 0.950 . S
H630 C626 0.950 . S
C631 C629 1.390 . S
C631 C632 1.387 . S
C631 H634 0.950 . S
C632 C631 1.387 . S
C632 C635 1.387 . S
H633 C629 0.950 . S
H634 C631 0.950 . S
C635 C626 1.390 . S
C635 H628 0.950 . S
C635 C632 1.387 . S
C636 C637 1.387 . S
C636 H640 0.950 . S
C636 C645 1.390 . S
C637 C636 1.387 . S
C637 C639 1.387 . S
H638 C645 0.950 . S
C639 C637 1.387 . S
C639 C641 1.390 . S
C639 H643 0.950 . S
H640 C636 0.950 . S
C641 C639 1.390 . S
C641 C642 1.387 . S
C641 H644 0.950 . S
C642 C641 1.387 . S
C642 C645 1.387 . S
H643 C639 0.950 . S
H644 C641 0.950 . S
C645 C636 1.390 . S
C645 H638 0.950 . S
C645 C642 1.387 . S
C646 C647 1.387 . S
C646 H650 0.950 . S
C646 C655 1.390 . S
C647 C646 1.387 . S
C647 C649 1.387 . S
H648 C655 0.950 . S
C649 C647 1.387 . S
C649 C651 1.390 . S
C649 H653 0.950 . S
H650 C646 0.950 . S
C651 C649 1.390 . S
C651 C652 1.387 . S
C651 H654 0.950 . S
C652 C651 1.387 . S
C652 C655 1.387 . S
H653 C649 0.950 . S
H654 C651 0.950 . S
C655 C646 1.390 . S
C655 H648 0.950 . S
C655 C652 1.387 . S
C656 C657 1.387 . S
C656 H660 0.950 . S
C656 C665 1.390 . S
C657 C656 1.387 . S
C657 C659 1.387 . S
H658 C665 0.950 . S
C659 C657 1.387 . S
C659 C661 1.390 . S
C659 H663 0.950 . S
H660 C656 0.950 . S
C661 C659 1.390 . S
C661 C662 1.387 . S
C661 H664 0.950 . S
C662 C661 1.387 . S
C662 C665 1.387 . S
H663 C659 0.950 . S
H664 C661 0.950 . S
C665 C656 1.390 . S
C665 H658 0.950 . S
C665 C662 1.387 . S
C666 C667 1.387 . S
C666 H670 0.950 . S
C666 C675 1.390 . S
C667 C666 1.387 . S
C667 C669 1.387 . S
H668 C675 0.950 . S
C669 C667 1.387 . S
C669 C671 1.390 . S
C669 H673 0.950 . S
H670 C666 0.950 . S
C671 C669 1.390 . S
C671 C672 1.387 . S
C671 H674 0.950 . S
C672 C671 1.387 . S
C672 C675 1.387 . S
H673 C669 0.950 . S
H674 C671 0.950 . S
C675 C666 1.390 . S
C675 H668 0.950 . S
C675 C672 1.387 . S
C676 C677 1.387 . S
C676 H680 0.950 . S
C676 C685 1.390 . S
C677 C676 1.387 . S
C677 C679 1.387 1_545 S
H678 C685 0.950 . S
C679 C677 1.387 1_565 S
C679 C681 1.390 . S
C679 H683 0.950 . S
H680 C676 0.950 . S
C681 C679 1.390 . S
C681 C682 1.387 . S
C681 H684 0.950 . S
C682 C681 1.387 . S
C682 C685 1.387 1_565 S
H683 C679 0.950 . S
H684 C681 0.950 . S
C685 C676 1.390 . S
C685 H678 0.950 . S
C685 C682 1.387 1_545 S
C686 C687 1.387 1_554 S
C686 H690 0.950 . S
C686 C695 1.390 . S
C687 C686 1.387 1_556 S
C687 C689 1.387 . S
H688 C695 0.950 . S
C689 C687 1.387 . S
C689 C691 1.390 . S
C689 H693 0.950 . S
H690 C686 0.950 . S
C691 C689 1.390 . S
C691 C692 1.387 1_556 S
C691 H694 0.950 . S
C692 C691 1.387 1_554 S
C692 C695 1.387 . S
H693 C689 0.950 . S
H694 C691 0.950 . S
C695 C686 1.390 . S
C695 H688 0.950 . S
C695 C692 1.387 . S
C696 C697 1.387 1_455 S
C696 H700 0.950 . S
C696 C705 1.390 1_565 S
C697 C696 1.387 1_655 S
C697 C699 1.387 . S
H698 C705 0.950 . S
C699 C697 1.387 . S
C699 C701 1.390 1_565 S
C699 H703 0.950 . S
H700 C696 0.950 . S
C701 C699 1.390 1_545 S
C701 C702 1.387 . S
C701 H704 0.950 . S
C702 C701 1.387 . S
C702 C705 1.387 1_655 S
H703 C699 0.950 . S
H704 C701 0.950 . S
C705 C696 1.390 1_545 S
C705 H698 0.950 . S
C705 C702 1.387 1_455 S
C706 C707 1.387 . S
C706 H710 0.950 . S
C706 C715 1.390 . S
C707 C706 1.387 . S
C707 C709 1.387 1_455 S
H708 C715 0.950 . S
C709 C707 1.387 1_655 S
C709 C711 1.390 . S
C709 H713 0.950 . S
H710 C706 0.950 . S
C711 C709 1.390 . S
C711 C712 1.361 1_655 S
C711 H714 0.950 . S
C712 C711 1.361 1_455 S
C712 C715 1.415 . S
H713 C709 0.950 . S
H714 C711 0.950 . S
C715 C706 1.390 . S
C715 H708 0.950 . S
C715 C712 1.415 . S
C716 C717 1.387 . S
C716 H720 0.950 . S
C716 C725 1.390 1_556 S
C717 C716 1.387 . S
C717 C719 1.387 1_565 S
H718 C725 0.950 . S
C719 C717 1.387 1_545 S
C719 C721 1.390 1_556 S
C719 H723 0.950 . S
H720 C716 0.950 . S
C721 C719 1.390 1_554 S
C721 C722 1.387 1_545 S
C721 H724 0.950 . S
C722 C721 1.387 1_565 S
C722 C725 1.387 . S
H723 C719 0.950 . S
H724 C721 0.950 . S
C725 C716 1.390 1_554 S
C725 H718 0.950 . S
C725 C722 1.387 . S
C726 C727 1.387 . S
C726 H730 0.950 . S
C726 C735 1.390 1_554 S
C727 C726 1.387 . S
C727 C729 1.387 . S
H728 C735 0.950 . S
C729 C727 1.387 . S
C729 C731 1.390 1_554 S
C729 H733 0.950 . S
H730 C726 0.950 . S
C731 C729 1.390 1_556 S
C731 C732 1.387 . S
C731 H734 0.950 . S
C732 C731 1.387 . S
C732 C735 1.387 . S
H733 C729 0.950 . S
H734 C731 0.950 . S
C735 C726 1.390 1_556 S
C735 H728 0.950 . S
C735 C732 1.387 . S
C736 C737 1.387 1_565 S
C736 H740 0.950 . S
C736 C745 1.390 . S
C737 C736 1.387 1_545 S
C737 C739 1.387 . S
H738 C745 0.950 . S
C739 C737 1.387 . S
C739 C741 1.390 . S
C739 H743 0.950 . S
H740 C736 0.950 . S
C741 C739 1.390 . S
C741 C742 1.416 . S
C741 H744 0.950 . S
C742 C741 1.416 . S
C742 C745 1.361 1_545 S
H743 C739 0.950 . S
H744 C741 0.950 . S
C745 C736 1.390 . S
C745 H738 0.950 . S
C745 C742 1.361 1_565 S
C746 C747 1.387 . S
C746 H750 0.950 . S
C746 C755 1.390 . S
C747 C746 1.387 . S
C747 C749 1.387 . S
H748 C755 0.950 . S
C749 C747 1.387 . S
C749 C751 1.390 . S
C749 H753 0.950 . S
H750 C746 0.950 . S
C751 C749 1.390 . S
C751 C752 1.387 . S
C751 H754 0.950 . S
C752 C751 1.387 . S
C752 C755 1.387 . S
H753 C749 0.950 . S
H754 C751 0.950 . S
C755 C746 1.390 . S
C755 H748 0.950 . S
C755 C752 1.387 . S
C756 C757 1.387 1_554 S
C756 H760 0.950 . S
C756 C765 1.390 1_455 S
C757 C756 1.387 1_556 S
C757 C759 1.387 . S
H758 C765 0.950 . S
C759 C757 1.387 . S
C759 C761 1.390 1_455 S
C759 H763 0.950 . S
H760 C756 0.950 . S
C761 C759 1.390 1_655 S
C761 C762 1.387 . S
C761 H764 0.950 . S
C762 C761 1.387 . S
C762 C765 1.387 1_556 S
H763 C759 0.950 . S
H764 C761 0.950 . S
C765 C756 1.390 1_655 S
C765 H758 0.950 . S
C765 C762 1.387 1_554 S
C766 C767 1.387 . S
C766 H770 0.950 . S
C766 C775 1.390 1_455 S
C767 C766 1.387 . S
C767 C769 1.387 . S
H768 C775 0.950 . S
C769 C767 1.387 . S
C769 C771 1.390 1_455 S
C769 H773 0.950 . S
H770 C766 0.950 . S
C771 C769 1.390 1_655 S
C771 C772 1.387 . S
C771 H774 0.950 . S
C772 C771 1.387 . S
C772 C775 1.387 . S
H773 C769 0.950 . S
H774 C771 0.950 . S
C775 C766 1.390 1_655 S
C775 H768 0.950 . S
C775 C772 1.387 . S
C776 C777 1.387 . S
C776 H780 0.950 . S
C776 C785 1.390 . S
C777 C776 1.387 . S
C777 C779 1.387 . S
H778 C785 0.950 . S
C779 C777 1.387 . S
C779 C781 1.390 . S
C779 H783 0.950 . S
H780 C776 0.950 . S
C781 C779 1.390 . S
C781 C782 1.387 . S
C781 H784 0.950 . S
C782 C781 1.387 . S
C782 C785 1.387 . S
H783 C779 0.950 . S
H784 C781 0.950 . S
C785 C776 1.390 . S
C785 H778 0.950 . S
C785 C782 1.387 . S
C786 C787 1.387 . S
C786 H790 0.950 . S
C786 C795 1.390 . S
C787 C786 1.387 . S
C787 C789 1.387 . S
H788 C795 0.950 . S
C789 C787 1.387 . S
C789 C791 1.390 . S
C789 H793 0.950 . S
H790 C786 0.950 . S
C791 C789 1.390 . S
C791 C792 1.387 . S
C791 H794 0.950 . S
C792 C791 1.387 . S
C792 C795 1.387 . S
H793 C789 0.950 . S
H794 C791 0.950 . S
C795 C786 1.390 . S
C795 H788 0.950 . S
C795 C792 1.387 . S
C796 C797 1.387 . S
C796 H800 0.950 . S
C796 C805 1.390 1_565 S
C797 C796 1.387 . S
C797 C799 1.387 . S
H798 C805 0.950 . S
C799 C797 1.387 . S
C799 C801 1.390 1_565 S
C799 H803 0.950 . S
H800 C796 0.950 . S
C801 C799 1.390 1_545 S
C801 C802 1.387 . S
C801 H804 0.950 . S
C802 C801 1.387 . S
C802 C805 1.387 . S
H803 C799 0.950 . S
H804 C801 0.950 . S
C805 C796 1.390 1_545 S
C805 H798 0.950 . S
C805 C802 1.387 . S
C806 C807 1.387 . S
C806 H810 0.950 . S
C806 C815 1.390 . S
C807 C806 1.387 . S
C807 C809 1.387 1_554 S
H808 C815 0.950 . S
C809 C807 1.387 1_556 S
C809 C811 1.390 . S
C809 H813 0.950 . S
H810 C806 0.950 . S
C811 C809 1.390 . S
C811 C812 1.361 1_556 S
C811 H814 0.950 . S
C812 C811 1.361 1_554 S
C812 C815 1.416 . S
H813 C809 0.950 . S
H814 C811 0.950 . S
C815 C806 1.390 . S
C815 H808 0.950 . S
C815 C812 1.416 . S
C337 C247 0.983 . S
C342 C8 0.989 . S
C347 C22 1.063 . S
C352 C233 0.981 . S
C357 C36 1.171 . S
C362 C275 1.157 . S
C367 C50 1.236 . S
C372 C261 1.133 . S
C377 C64 0.994 . S
C382 C303 0.986 . S
C387 C78 1.217 . S
C392 C317 1.197 . S
C397 C289 0.984 . S
C402 C92 1.061 . S
C407 C163 1.159 . S
C412 C106 1.251 . S
C417 C120 0.993 . S
C422 C51 0.983 . S
C427 C23 1.194 . S
C432 C134 1.219 . S
C437 C148 1.393 . S
C442 C9 1.365 . S
C447 C162 1.253 . S
C452 C205 1.161 . S
C457 C79 1.318 . S
C462 C176 1.425 . S
C467 C65 1.363 . S
C472 C190 1.395 . S
C477 C204 1.252 . S
C482 C107 1.161 . S
C487 C218 1.219 . S
C492 C93 1.198 . S
C497 C135 1.318 . S
C502 C232 1.425 . S
C507 C149 1.134 . S
C512 C246 1.233 . S
C517 C121 1.365 . S
C522 C260 1.396 . S
C527 C274 1.170 . S
C532 C331 1.154 . S
C537 C219 1.321 . S
C542 C288 1.427 . S
C547 C302 1.238 . S
C552 C191 1.134 . S
C557 C177 0.989 . S
C562 C316 1.065 . S
C567 C330 1.171 . S
C572 C37 1.157 . S
C577 C6 1.584 . S
C582 C20 1.551 . S
C587 C48 1.474 . S
C592 C34 1.501 . S
C597 C62 1.583 . S
C602 C90 1.553 . S
C607 C76 1.940 . S
C612 C104 1.901 . S
C617 C314 1.552 . S
C622 C118 1.584 . S
C627 C132 1.940 . S
C632 C160 1.903 . S
C637 C286 1.877 . S
C642 C146 1.911 . S
C647 C188 1.909 . S
C652 C174 1.875 . S
C657 C202 1.903 . S
C662 C216 1.940 . S
C667 C258 1.910 . S
C672 C230 1.875 . S
C677 C244 1.477 . S
C682 C272 1.500 . S
C687 C328 1.501 . S
C692 C300 1.475 . S
C697 C35 1.295 1_655 S
C702 C7 1.294 . S
C707 C21 1.499 1_455 S
C712 C49 1.501 1_455 S
C717 C273 1.291 1_565 S
C722 C63 1.290 . S
C727 C77 1.448 . S
C732 C259 1.457 . S
C737 C91 1.503 1_545 S
C742 C245 1.504 1_545 S
C747 C231 1.667 . S
C752 C105 1.661 . S
C757 C119 1.293 . S
C762 C329 1.296 1_556 S
C767 C133 1.448 . S
C772 C147 1.457 . S
C777 C287 1.667 . S
C782 C161 1.660 . S
C787 C175 1.664 . S
C792 C203 1.657 . S
C797 C189 1.453 . S
C802 C217 1.444 . S
C807 C315 1.499 1_554 S
C812 C301 1.500 1_554 S
