# Generated by pormake.
# Topology ukg, (4)-cn, num edge types: 1
# Building blocks:
#     Node 0, Type 0, BuildingBlock: GALJAG_clean_sbu_0, # of connection points: 4
#     Node 1, Type 0, BuildingBlock: GALJAG_clean_sbu_0, # of connection points: 4
#     Node 2, Type 0, BuildingBlock: GALJAG_clean_sbu_0, # of connection points: 4
#     Node 3, Type 0, BuildingBlock: GALJAG_clean_sbu_0, # of connection points: 4
#     Node 4, Type 0, BuildingBlock: GALJAG_clean_sbu_0, # of connection points: 4
#     Node 5, Type 0, BuildingBlock: GALJAG_clean_sbu_0, # of connection points: 4
#     Node 6, Type 0, BuildingBlock: GALJAG_clean_sbu_0, # of connection points: 4
#     Node 7, Type 0, BuildingBlock: GALJAG_clean_sbu_0, # of connection points: 4
#     Edge 8, Type (0, 0), BuildingBlock: AJUNOK_clean_linker_0, # of connection points: 2
#     Edge 9, Type (0, 0), BuildingBlock: AJUNOK_clean_linker_0, # of connection points: 2
#     Edge 10, Type (0, 0), BuildingBlock: AJUNOK_clean_linker_0, # of connection points: 2
#     Edge 11, Type (0, 0), BuildingBlock: AJUNOK_clean_linker_0, # of connection points: 2
#     Edge 12, Type (0, 0), BuildingBlock: AJUNOK_clean_linker_0, # of connection points: 2
#     Edge 13, Type (0, 0), BuildingBlock: AJUNOK_clean_linker_0, # of connection points: 2
#     Edge 14, Type (0, 0), BuildingBlock: AJUNOK_clean_linker_0, # of connection points: 2
#     Edge 15, Type (0, 0), BuildingBlock: AJUNOK_clean_linker_0, # of connection points: 2
#     Edge 16, Type (0, 0), BuildingBlock: AJUNOK_clean_linker_0, # of connection points: 2
#     Edge 17, Type (0, 0), BuildingBlock: AJUNOK_clean_linker_0, # of connection points: 2
#     Edge 18, Type (0, 0), BuildingBlock: AJUNOK_clean_linker_0, # of connection points: 2
#     Edge 19, Type (0, 0), BuildingBlock: AJUNOK_clean_linker_0, # of connection points: 2
#     Edge 20, Type (0, 0), BuildingBlock: AJUNOK_clean_linker_0, # of connection points: 2
#     Edge 21, Type (0, 0), BuildingBlock: AJUNOK_clean_linker_0, # of connection points: 2
#     Edge 22, Type (0, 0), BuildingBlock: AJUNOK_clean_linker_0, # of connection points: 2
#     Edge 23, Type (0, 0), BuildingBlock: AJUNOK_clean_linker_0, # of connection points: 2
# Relax obj value: 0.111
# Max RMSD: 0.188
# Mean RMSD: 0.187
data_MOF--net-ukg--node1-GALJAG_clean_sbu_0--edge1-AJUNOK_clean_linker_0
_symmetry_space_group_name_H-M    P1
_symmetry_Int_Tables_number       1
_symmetry_cell_setting            triclinic
loop_
_symmetry_equiv_pos_as_xyz
'x, y, z'
_cell_length_a     22.220736
_cell_length_b     22.384456
_cell_length_c     28.568729
_cell_angle_alpha  90.326334
_cell_angle_beta   90.041895
_cell_angle_gamma 89.98655
loop_
_atom_site_label
_atom_site_type_symbol
_atom_site_fract_x
_atom_site_fract_y
_atom_site_fract_z
_atom_type_partial_charge
In0 In 0.00648 0.66806 0.13516 0.0
O1 O 0.98359 0.6416 0.05961 0.0
O2 O 0.02142 0.5755 0.10416 0.0
C3 C 0.97747 0.78278 0.15132 0.0
C4 C 0.12388 0.69261 0.13744 0.0
C5 C 0.92757 0.62415 0.19744 0.0
O6 O 0.95447 0.75449 0.11707 0.0
O7 O 0.01408 0.75332 0.17564 0.0
O8 O 0.98377 0.6172 0.20259 0.0
O9 O 0.91246 0.65087 0.1605 0.0
C10 C 0.00148 0.58812 0.06398 0.0
O11 O 0.09774 0.66584 0.17071 0.0
O12 O 0.09149 0.70302 0.10201 0.0
In13 In 0.3328 0.50308 0.66007 0.0
O14 O 0.31735 0.59166 0.69742 0.0
O15 O 0.30623 0.58881 0.62343 0.0
C16 C 0.36978 0.45379 0.74126 0.0
C17 C 0.41708 0.48502 0.59242 0.0
C18 C 0.22247 0.45294 0.65823 0.0
O19 O 0.39181 0.50229 0.72673 0.0
O20 O 0.33171 0.43027 0.7144 0.0
O21 O 0.26954 0.42411 0.64753 0.0
O22 O 0.23098 0.50779 0.66583 0.0
C23 C 0.30311 0.61934 0.66065 0.0
O24 O 0.3624 0.47127 0.58694 0.0
O25 O 0.42908 0.50676 0.63208 0.0
In26 In 0.47295 0.83323 0.16108 0.0
O27 O 0.50343 0.86033 0.08761 0.0
O28 O 0.45926 0.92495 0.13119 0.0
C29 C 0.49008 0.72537 0.19695 0.0
C30 C 0.35803 0.80487 0.14976 0.0
C31 C 0.55529 0.87247 0.22164 0.0
O32 O 0.51218 0.73852 0.15705 0.0
O33 O 0.45936 0.76609 0.21631 0.0
O34 O 0.50028 0.88756 0.22545 0.0
O35 O 0.56836 0.84206 0.18553 0.0
C36 C 0.48316 0.9133 0.09196 0.0
O37 O 0.37531 0.83887 0.18297 0.0
O38 O 0.39841 0.78882 0.12102 0.0
In39 In 0.16614 0.97232 0.65424 0.0
O40 O 0.17029 0.88102 0.689 0.0
O41 O 0.21126 0.89123 0.62224 0.0
C42 C 0.11098 0.01353 0.73242 0.0
C43 C 0.09475 0.98245 0.57762 0.0
C44 C 0.26629 0.03985 0.66189 0.0
O45 O 0.16412 -0.00588 0.73252 0.0
O46 O 0.08431 0.0083 0.69363 0.0
O47 O 0.21431 0.0623 0.65868 0.0
O48 O 0.2678 0.98413 0.65553 0.0
C49 C 0.20061 0.85742 0.65639 0.0
O50 O 0.14284 0.01212 0.58251 0.0
O51 O 0.08316 0.94808 0.61126 0.0
In52 In 0.9782 0.31859 0.85149 0.0
O53 O 0.88234 0.31364 0.82378 0.0
O54 O 0.89952 0.28481 0.89366 0.0
C55 C 0.04202 0.35819 0.77815 0.0
C56 C 0.99164 0.40546 0.91704 0.0
C57 C 0.01416 0.20479 0.8406 0.0
O58 O 0.98621 0.36866 0.78172 0.0
O59 O 0.06488 0.33013 0.81191 0.0
O60 O 0.04004 0.23939 0.86966 0.0
O61 O 0.9701 0.22745 0.81932 0.0
C62 C 0.86169 0.29101 0.86101 0.0
O63 O 0.00995 0.35252 0.92357 0.0
O64 O 0.9678 0.414 0.87756 0.0
In65 In 0.65555 0.46805 0.35982 0.0
O66 O 0.66012 0.37259 0.3329 0.0
O67 O 0.71761 0.39861 0.38963 0.0
C68 C 0.58043 0.53193 0.30756 0.0
C69 C 0.58779 0.46769 0.43778 0.0
C70 C 0.75015 0.52242 0.32121 0.0
O71 O 0.5927 0.4782 0.29698 0.0
O72 O 0.60431 0.55161 0.34472 0.0
O73 O 0.7394 0.52889 0.36461 0.0
O74 O 0.71492 0.48821 0.29932 0.0
C75 C 0.70122 0.35809 0.36143 0.0
O76 O 0.63712 0.49619 0.43555 0.0
O77 O 0.574 0.43891 0.40107 0.0
In78 In 0.5032 0.1667 0.86921 0.0
O79 O 0.47665 0.14093 0.94383 0.0
O80 O 0.51006 0.07237 0.89941 0.0
C81 C 0.46504 0.2806 0.86332 0.0
C82 C 0.62136 0.19082 0.87012 0.0
C83 C 0.43756 0.12979 0.79496 0.0
O84 O 0.43697 0.24215 0.88721 0.0
O85 O 0.51332 0.26206 0.84537 0.0
O86 O 0.49257 0.11613 0.79906 0.0
O87 O 0.41596 0.1583 0.82913 0.0
C88 C 0.4909 0.08651 0.93953 0.0
O89 O 0.59539 0.16887 0.83451 0.0
O90 O 0.58799 0.19818 0.90545 0.0
In91 In 0.85095 0.01268 0.34723 0.0
O92 O 0.83973 0.10547 0.31572 0.0
O93 O 0.81503 0.09236 0.38697 0.0
C94 C 0.89993 0.97536 0.26548 0.0
C95 C 0.93006 6e-05 0.41865 0.0
C96 C 0.74838 0.94837 0.34289 0.0
O97 O 0.84833 -0.00161 0.2678 0.0
O98 O 0.92829 0.97524 0.30373 0.0
O99 O 0.79975 0.92429 0.34171 0.0
O100 O 0.74932 0.00336 0.35227 0.0
C101 C 0.81813 0.12765 0.35286 0.0
O102 O 0.88177 0.97007 0.41633 0.0
O103 O 0.93805 0.03523 0.38488 0.0
C104 C 0.01787 0.44048 0.99819 0.0
C105 C -0.00446 0.45337 0.9533 0.0
C106 C 0.01979 0.48437 0.0335 0.0
C107 C -0.00051 0.54311 0.02543 0.0
H108 H 0.03355 0.39589 0.00639 0.0
H109 H 0.03708 0.47191 0.06751 0.0
S110 S 0.93829 0.60067 0.9135 0.0
N111 N 0.95371 0.52985 0.90244 0.0
N112 N 0.95736 0.612 0.96869 0.0
C113 C 0.97767 0.55683 0.98055 0.0
C114 C 0.97568 0.51214 0.94455 0.0
C115 C 0.447 0.45099 0.51208 0.0
C116 C 0.46276 0.47849 0.55472 0.0
C117 C 0.48821 0.44667 0.47505 0.0
C118 C 0.54687 0.47008 0.47891 0.0
H119 H 0.40215 0.43307 0.50697 0.0
H120 H 0.4734 0.42573 0.44278 0.0
S121 S 0.6117 0.54449 0.5838 0.0
N122 N 0.54212 0.52786 0.59923 0.0
N123 N 0.61925 0.52017 0.52946 0.0
C124 C 0.56367 0.49683 0.52161 0.0
C125 C 0.52177 0.5009 0.55953 0.0
C126 C 0.50754 0.9426 0.0092 0.0
C127 C 0.48535 0.95826 0.05373 0.0
C128 C 0.50863 0.98411 0.97245 0.0
C129 C 0.48769 0.04308 0.97873 0.0
H130 H 0.52404 0.89779 1.00251 0.0
H131 H 0.52629 0.96984 0.9389 0.0
S132 S 0.42514 0.107 0.08857 0.0
N133 N 0.44189 0.03732 0.10191 0.0
N134 N 0.44408 0.11487 0.03312 0.0
C135 C 0.46542 0.05933 0.02307 0.0
C136 C 0.46422 0.01713 0.06046 0.0
C137 C 0.96206 0.95645 0.49553 0.0
C138 C 0.97345 -0.00446 0.45821 0.0
C139 C 0.00167 0.95244 0.53372 0.0
C140 C 0.05437 0.98736 0.53624 0.0
H141 H 0.92203 0.92883 0.49546 0.0
H142 H 0.99061 0.92178 0.56161 0.0
S143 S 0.10552 0.09645 0.44739 0.0
N144 N 0.04188 0.06969 0.42605 0.0
N145 N 0.11599 0.06207 0.4977 0.0
C146 C 0.06654 0.02639 0.49903 0.0
C147 C 0.02623 0.0305 0.4601 0.0
C148 C 0.21871 0.72957 0.10145 0.0
C149 C 0.18467 0.71831 0.14188 0.0
C150 C 0.27438 0.75866 0.10426 0.0
C151 C 0.2971 0.77904 0.14743 0.0
H152 H 0.20228 0.71564 0.06738 0.0
H153 H 0.29972 0.76547 0.07234 0.0
S154 S 0.22464 0.76179 0.26349 0.0
N155 N 0.17731 0.73 0.22638 0.0
N156 N 0.28145 0.78593 0.23152 0.0
C157 C 0.2632 0.76869 0.18808 0.0
C158 C 0.20713 0.73787 0.18535 0.0
C159 C 0.27474 0.71267 0.61916 0.0
C160 C 0.27887 0.6807 0.66122 0.0
C161 C 0.24885 0.76959 0.61799 0.0
C162 C 0.22531 0.79631 0.65871 0.0
H163 H 0.29166 0.69362 0.5868 0.0
H164 H 0.24707 0.79269 0.58479 0.0
S165 S 0.22445 0.73096 0.77778 0.0
N166 N 0.25721 0.67973 0.74471 0.0
N167 N 0.20783 0.78663 0.74238 0.0
C168 C 0.22887 0.76477 0.70103 0.0
C169 C 0.25596 0.70702 0.70234 0.0
C170 C 0.7105 0.22709 0.82556 0.0
C171 C 0.68366 0.21362 0.8688 0.0
C172 C 0.76743 0.25382 0.82342 0.0
C173 C 0.7999 0.26722 0.86442 0.0
H174 H 0.68691 0.21803 0.79309 0.0
H175 H 0.78646 0.26317 0.78934 0.0
S176 S 0.74992 0.23999 0.98636 0.0
N177 N 0.69384 0.21545 0.95356 0.0
N178 N 0.80128 0.26475 0.94953 0.0
C179 C 0.7738 0.2535 0.90787 0.0
C180 C 0.71557 0.22693 0.91006 0.0
C181 C 0.73538 0.2678 0.31762 0.0
C182 C 0.73095 0.29939 0.36013 0.0
C183 C 0.7661 0.21323 0.31509 0.0
C184 C 0.79212 0.18799 0.35523 0.0
H185 H 0.71566 0.28571 0.28596 0.0
H186 H 0.768 0.1899 0.28179 0.0
S187 S 0.79293 0.25303 0.47489 0.0
N188 N 0.75577 0.30211 0.44303 0.0
N189 N 0.81198 0.1986 0.43856 0.0
C190 C 0.78797 0.21912 0.39792 0.0
C191 C 0.75776 0.27514 0.4003 0.0
C192 C 0.85698 0.55123 0.30456 0.0
C193 C 0.79524 0.55665 0.29508 0.0
C194 C 0.89996 0.57412 0.27321 0.0
C195 C 0.88224 0.60317 0.23171 0.0
H196 H 0.87207 0.52673 0.33498 0.0
H197 H 0.94723 0.56767 0.28094 0.0
S198 S 0.72481 0.63279 0.1941 0.0
N199 N 0.71813 0.59591 0.24365 0.0
N200 N 0.79787 0.63945 0.18516 0.0
C201 C 0.82025 0.61109 0.22339 0.0
C202 C 0.777 0.58763 0.25501 0.0
C203 C 0.45185 0.42272 0.79525 0.0
C204 C 0.39057 0.42246 0.78346 0.0
C205 C 0.47517 0.3801 0.82612 0.0
C206 C 0.43773 0.33667 0.8466 0.0
H207 H 0.48278 0.45222 0.77736 0.0
H208 H 0.5235 0.37807 0.83096 0.0
S209 S 0.27178 0.32685 0.83496 0.0
N210 N 0.29132 0.38227 0.80022 0.0
N211 N 0.33492 0.30291 0.85896 0.0
C212 C 0.37533 0.34097 0.8395 0.0
C213 C 0.35178 0.38367 0.80752 0.0
C214 C 0.59465 0.93672 0.28689 0.0
C215 C 0.60112 0.88652 0.25763 0.0
C216 C 0.64075 0.95365 0.31785 0.0
C217 C 0.6946 0.92054 0.32107 0.0
H218 H 0.55508 0.96477 0.28422 0.0
H219 H 0.63543 -0.00515 0.33749 0.0
S220 S 0.72831 0.77882 0.25829 0.0
N221 N 0.66173 0.79923 0.23829 0.0
N222 N 0.7479 0.83066 0.29667 0.0
C223 C 0.6992 0.86736 0.29487 0.0
C224 C 0.65266 0.85056 0.26297 0.0
C225 C 0.00034 0.10811 0.79923 0.0
C226 C 0.03807 0.14615 0.82548 0.0
C227 C 0.02395 0.0614 0.77221 0.0
C228 C 0.08613 0.05059 0.77077 0.0
H229 H 0.95251 0.11709 0.79683 0.0
H230 H 0.99365 0.03607 0.74997 0.0
S231 S 0.20349 0.13193 0.83831 0.0
N232 N 0.13997 0.16586 0.85243 0.0
N233 N 0.18456 0.07736 0.80203 0.0
C234 C 0.12384 0.08448 0.80043 0.0
C235 C 0.09971 0.13248 0.82781 0.0
C236 C 0.13046 0.34371 0.72639 0.0
C237 C 0.07949 0.37768 0.73851 0.0
C238 C 0.17353 0.36567 0.69523 0.0
C239 C 0.16788 0.42308 0.67602 0.0
H240 H 0.13865 0.30098 0.74289 0.0
H241 H 0.214 0.3396 0.6896 0.0
S242 S 0.03856 0.52612 0.69157 0.0
N243 N 0.02185 0.46803 0.72452 0.0
N244 N 0.10398 0.51048 0.66692 0.0
C245 C 0.11469 0.4554 0.68485 0.0
C246 C 0.07016 0.43241 0.71595 0.0
C247 C 0.56095 0.57654 0.2292 0.0
C248 C 0.54652 0.57223 0.27697 0.0
C249 C 0.54028 0.6249 0.2024 0.0
C250 C 0.50388 0.66963 0.22256 0.0
H251 H 0.59174 0.54482 0.21334 0.0
H252 H 0.55507 0.62861 0.16643 0.0
S253 S 0.44775 0.6732 0.34531 0.0
N254 N 0.4903 0.61291 0.34238 0.0
N255 N 0.44951 0.70241 0.29244 0.0
C256 C 0.48573 0.66286 0.2696 0.0
C257 C 0.50761 0.61447 0.29674 0.0
C258 C 0.41162 0.06098 0.72854 0.0
C259 C 0.40008 0.11351 0.75407 0.0
C260 C 0.37049 0.04009 0.6949 0.0
C261 C 0.3168 0.0714 0.68532 0.0
H262 H 0.45061 0.03388 0.73667 0.0
H263 H 0.37899 -0.00288 0.67857 0.0
S264 S 0.27286 0.2183 0.73564 0.0
N265 N 0.3363 0.20123 0.76254 0.0
N266 N 0.25952 0.16252 0.69905 0.0
C267 C 0.30806 0.12711 0.7073 0.0
C268 C 0.34949 0.14793 0.7419 0.0
C269 C 0.00062 0.87672 0.19341 0.0
C270 C 0.95919 0.84299 0.16701 0.0
C271 C 0.98167 0.92406 0.2219 0.0
C272 C 0.92057 0.93954 0.22494 0.0
H273 H 0.04753 0.86352 0.19486 0.0
H274 H 0.01453 0.94577 0.2443 0.0
S275 S 0.79528 0.87057 0.15766 0.0
N276 N 0.85548 0.83241 0.14144 0.0
N277 N 0.81946 0.922 0.19487 0.0
C278 C 0.87946 0.91018 0.19505 0.0
C279 C 0.89891 0.86165 0.166 0.0
loop_
_geom_bond_atom_site_label_1
_geom_bond_atom_site_label_2
_geom_bond_distance
_geom_bond_site_symmetry_2
_ccdc_geom_bond_type
In0 O1 2.293 1_455 S
In0 O2 2.327 . S
In0 O6 2.264 1_455 S
In0 O7 2.325 1_455 S
In0 O8 2.266 1_455 S
In0 O9 2.323 1_455 S
In0 O11 2.297 . S
In0 O12 2.329 . S
O1 In0 2.293 1_655 S
O1 C10 1.240 1_655 S
O2 In0 2.327 . S
O2 C10 1.252 . S
C3 O6 1.252 . S
C3 O7 1.260 . S
C4 O11 1.240 . S
C4 O12 1.252 . S
C5 O8 1.252 . S
C5 O9 1.260 . S
O6 In0 2.264 1_655 S
O6 C3 1.252 . S
O7 In0 2.325 1_655 S
O7 C3 1.260 . S
O8 In0 2.266 1_655 S
O8 C5 1.252 . S
O9 In0 2.323 1_655 S
O9 C5 1.260 . S
C10 O1 1.240 1_455 S
C10 O2 1.252 . S
O11 In0 2.297 . S
O11 C4 1.240 . S
O12 In0 2.329 . S
O12 C4 1.252 . S
In13 O14 2.294 . S
In13 O15 2.326 . S
In13 O19 2.266 . S
In13 O20 2.326 . S
In13 O21 2.266 . S
In13 O22 2.326 . S
In13 O24 2.294 . S
In13 O25 2.326 . S
O14 In13 2.294 . S
O14 C23 1.240 . S
O15 In13 2.326 . S
O15 C23 1.252 . S
C16 O19 1.252 . S
C16 O20 1.260 . S
C17 O24 1.240 . S
C17 O25 1.252 . S
C18 O21 1.252 . S
C18 O22 1.260 . S
O19 In13 2.266 . S
O19 C16 1.252 . S
O20 In13 2.326 . S
O20 C16 1.260 . S
O21 In13 2.266 . S
O21 C18 1.252 . S
O22 In13 2.326 . S
O22 C18 1.260 . S
C23 O14 1.240 . S
C23 O15 1.252 . S
O24 In13 2.294 . S
O24 C17 1.240 . S
O25 In13 2.326 . S
O25 C17 1.252 . S
In26 O27 2.294 . S
In26 O28 2.326 . S
In26 O32 2.266 . S
In26 O33 2.326 . S
In26 O34 2.266 . S
In26 O35 2.326 . S
In26 O37 2.294 . S
In26 O38 2.326 . S
O27 In26 2.294 . S
O27 C36 1.240 . S
O28 In26 2.326 . S
O28 C36 1.252 . S
C29 O32 1.252 . S
C29 O33 1.260 . S
C30 O37 1.240 . S
C30 O38 1.252 . S
C31 O34 1.252 . S
C31 O35 1.260 . S
O32 In26 2.266 . S
O32 C29 1.252 . S
O33 In26 2.326 . S
O33 C29 1.260 . S
O34 In26 2.266 . S
O34 C31 1.252 . S
O35 In26 2.326 . S
O35 C31 1.260 . S
C36 O27 1.240 . S
C36 O28 1.252 . S
O37 In26 2.294 . S
O37 C30 1.240 . S
O38 In26 2.326 . S
O38 C30 1.252 . S
In39 O40 2.297 . S
In39 O41 2.329 . S
In39 O45 2.266 1_565 S
In39 O46 2.323 1_565 S
In39 O47 2.264 1_565 S
In39 O48 2.325 1_565 S
In39 O50 2.293 1_565 S
In39 O51 2.327 . S
O40 In39 2.297 . S
O40 C49 1.240 . S
O41 In39 2.329 . S
O41 C49 1.252 . S
C42 O45 1.252 . S
C42 O46 1.260 . S
C43 O50 1.240 1_565 S
C43 O51 1.252 . S
C44 O47 1.252 . S
C44 O48 1.260 . S
O45 In39 2.266 1_545 S
O45 C42 1.252 . S
O46 In39 2.323 1_545 S
O46 C42 1.260 . S
O47 In39 2.264 1_545 S
O47 C44 1.252 . S
O48 In39 2.325 1_545 S
O48 C44 1.260 . S
C49 O40 1.240 . S
C49 O41 1.252 . S
O50 In39 2.293 1_545 S
O50 C43 1.240 1_545 S
O51 In39 2.327 . S
O51 C43 1.252 . S
In52 O53 2.297 . S
In52 O54 2.329 . S
In52 O58 2.266 1_655 S
In52 O59 2.323 1_655 S
In52 O60 2.264 1_655 S
In52 O61 2.325 1_655 S
In52 O63 2.293 1_655 S
In52 O64 2.327 . S
O53 In52 2.297 . S
O53 C62 1.240 . S
O54 In52 2.329 . S
O54 C62 1.252 . S
C55 O58 1.252 . S
C55 O59 1.260 . S
C56 O63 1.240 1_655 S
C56 O64 1.252 . S
C57 O60 1.252 . S
C57 O61 1.260 . S
O58 In52 2.266 1_455 S
O58 C55 1.252 . S
O59 In52 2.323 1_455 S
O59 C55 1.260 . S
O60 In52 2.264 1_455 S
O60 C57 1.252 . S
O61 In52 2.325 1_455 S
O61 C57 1.260 . S
C62 O53 1.240 . S
C62 O54 1.252 . S
O63 In52 2.293 1_455 S
O63 C56 1.240 1_455 S
O64 In52 2.327 . S
O64 C56 1.252 . S
In65 O66 2.294 . S
In65 O67 2.326 . S
In65 O71 2.266 . S
In65 O72 2.326 . S
In65 O73 2.266 . S
In65 O74 2.326 . S
In65 O76 2.294 . S
In65 O77 2.326 . S
O66 In65 2.294 . S
O66 C75 1.240 . S
O67 In65 2.326 . S
O67 C75 1.252 . S
C68 O71 1.252 . S
C68 O72 1.260 . S
C69 O76 1.240 . S
C69 O77 1.252 . S
C70 O73 1.252 . S
C70 O74 1.260 . S
O71 In65 2.266 . S
O71 C68 1.252 . S
O72 In65 2.326 . S
O72 C68 1.260 . S
O73 In65 2.266 . S
O73 C70 1.252 . S
O74 In65 2.326 . S
O74 C70 1.260 . S
C75 O66 1.240 . S
C75 O67 1.252 . S
O76 In65 2.294 . S
O76 C69 1.240 . S
O77 In65 2.326 . S
O77 C69 1.252 . S
In78 O79 2.294 . S
In78 O80 2.326 . S
In78 O84 2.266 . S
In78 O85 2.326 . S
In78 O86 2.266 . S
In78 O87 2.326 . S
In78 O89 2.294 . S
In78 O90 2.326 . S
O79 In78 2.294 . S
O79 C88 1.240 . S
O80 In78 2.326 . S
O80 C88 1.252 . S
C81 O84 1.252 . S
C81 O85 1.260 . S
C82 O89 1.240 . S
C82 O90 1.252 . S
C83 O86 1.252 . S
C83 O87 1.260 . S
O84 In78 2.266 . S
O84 C81 1.252 . S
O85 In78 2.326 . S
O85 C81 1.260 . S
O86 In78 2.266 . S
O86 C83 1.252 . S
O87 In78 2.326 . S
O87 C83 1.260 . S
C88 O79 1.240 . S
C88 O80 1.252 . S
O89 In78 2.294 . S
O89 C82 1.240 . S
O90 In78 2.326 . S
O90 C82 1.252 . S
In91 O92 2.297 . S
In91 O93 2.329 . S
In91 O97 2.266 1_545 S
In91 O98 2.323 1_545 S
In91 O99 2.264 1_545 S
In91 O100 2.325 1_545 S
In91 O102 2.293 1_545 S
In91 O103 2.327 . S
O92 In91 2.297 . S
O92 C101 1.240 . S
O93 In91 2.329 . S
O93 C101 1.252 . S
C94 O97 1.252 . S
C94 O98 1.260 . S
C95 O102 1.240 1_545 S
C95 O103 1.252 . S
C96 O99 1.252 . S
C96 O100 1.260 . S
O97 In91 2.266 1_565 S
O97 C94 1.252 . S
O98 In91 2.323 1_565 S
O98 C94 1.260 . S
O99 In91 2.264 1_565 S
O99 C96 1.252 . S
O100 In91 2.325 1_565 S
O100 C96 1.260 . S
C101 O92 1.240 . S
C101 O93 1.252 . S
O102 In91 2.293 1_565 S
O102 C95 1.240 1_565 S
O103 In91 2.327 . S
O103 C95 1.252 . S
C104 C105 1.369 1_454 S
C104 C106 1.419 . S
C104 H108 0.930 . S
C105 C104 1.369 1_656 S
C105 C114 1.429 . S
C106 C104 1.419 . S
C106 C107 1.363 . S
C106 H109 0.929 . S
C107 C106 1.363 . S
C107 C113 1.428 1_454 S
H108 C104 0.930 . S
H109 C106 0.929 . S
S110 N111 1.613 . S
S110 N112 1.610 . S
N111 S110 1.613 . S
N111 C114 1.350 . S
N112 S110 1.610 . S
N112 C113 1.351 . S
C113 C107 1.428 1_656 S
C113 N112 1.351 . S
C113 C114 1.434 . S
C114 C105 1.429 . S
C114 N111 1.350 . S
C114 C113 1.434 . S
C115 C116 1.369 . S
C115 C117 1.419 . S
C115 H119 0.930 . S
C116 C115 1.369 . S
C116 C125 1.429 . S
C117 C115 1.419 . S
C117 C118 1.363 . S
C117 H120 0.929 . S
C118 C117 1.363 . S
C118 C124 1.428 . S
H119 C115 0.930 . S
H120 C117 0.929 . S
S121 N122 1.613 . S
S121 N123 1.610 . S
N122 S121 1.613 . S
N122 C125 1.350 . S
N123 S121 1.610 . S
N123 C124 1.351 . S
C124 C118 1.428 . S
C124 N123 1.351 . S
C124 C125 1.434 . S
C125 C116 1.429 . S
C125 N122 1.350 . S
C125 C124 1.434 . S
C126 C127 1.369 1_556 S
C126 C128 1.419 1_565 S
C126 H130 0.930 . S
C127 C126 1.369 1_554 S
C127 C136 1.429 . S
C128 C126 1.419 1_545 S
C128 C129 1.363 . S
C128 H131 0.929 . S
C129 C128 1.363 . S
C129 C135 1.428 1_556 S
H130 C126 0.930 . S
H131 C128 0.929 . S
S132 N133 1.613 1_545 S
S132 N134 1.610 . S
N133 S132 1.613 1_565 S
N133 C136 1.350 . S
N134 S132 1.610 . S
N134 C135 1.351 . S
C135 C129 1.428 1_554 S
C135 N134 1.351 . S
C135 C136 1.434 1_545 S
C136 C127 1.429 . S
C136 N133 1.350 . S
C136 C135 1.434 1_565 S
C137 C138 1.369 1_565 S
C137 C139 1.419 1_655 S
C137 H141 0.930 . S
C138 C137 1.369 1_545 S
C138 C147 1.429 . S
C139 C137 1.419 1_455 S
C139 C140 1.363 . S
C139 H142 0.929 . S
C140 C139 1.363 . S
C140 C146 1.428 1_565 S
H141 C137 0.930 . S
H142 C139 0.929 . S
S143 N144 1.613 1_455 S
S143 N145 1.610 . S
N144 S143 1.613 1_655 S
N144 C147 1.350 . S
N145 S143 1.610 . S
N145 C146 1.351 . S
C146 C140 1.428 1_545 S
C146 N145 1.351 . S
C146 C147 1.434 1_455 S
C147 C138 1.429 . S
C147 N144 1.350 . S
C147 C146 1.434 1_655 S
C148 C149 1.369 . S
C148 C150 1.419 . S
C148 H152 0.930 . S
C149 C148 1.369 . S
C149 C158 1.429 . S
C150 C148 1.419 . S
C150 C151 1.363 . S
C150 H153 0.929 . S
C151 C150 1.363 . S
C151 C157 1.428 . S
H152 C148 0.930 . S
H153 C150 0.929 . S
S154 N155 1.613 . S
S154 N156 1.610 . S
N155 S154 1.613 . S
N155 C158 1.350 . S
N156 S154 1.610 . S
N156 C157 1.351 . S
C157 C151 1.428 . S
C157 N156 1.351 . S
C157 C158 1.434 . S
C158 C149 1.429 . S
C158 N155 1.350 . S
C158 C157 1.434 . S
C159 C160 1.369 . S
C159 C161 1.419 . S
C159 H163 0.930 . S
C160 C159 1.369 . S
C160 C169 1.429 . S
C161 C159 1.419 . S
C161 C162 1.363 . S
C161 H164 0.929 . S
C162 C161 1.363 . S
C162 C168 1.428 . S
H163 C159 0.930 . S
H164 C161 0.929 . S
S165 N166 1.613 . S
S165 N167 1.610 . S
N166 S165 1.613 . S
N166 C169 1.350 . S
N167 S165 1.610 . S
N167 C168 1.351 . S
C168 C162 1.428 . S
C168 N167 1.351 . S
C168 C169 1.434 . S
C169 C160 1.429 . S
C169 N166 1.350 . S
C169 C168 1.434 . S
C170 C171 1.369 . S
C170 C172 1.419 . S
C170 H174 0.930 . S
C171 C170 1.369 . S
C171 C180 1.429 . S
C172 C170 1.419 . S
C172 C173 1.363 . S
C172 H175 0.929 . S
C173 C172 1.363 . S
C173 C179 1.428 . S
H174 C170 0.930 . S
H175 C172 0.929 . S
S176 N177 1.613 . S
S176 N178 1.610 . S
N177 S176 1.613 . S
N177 C180 1.350 . S
N178 S176 1.610 . S
N178 C179 1.351 . S
C179 C173 1.428 . S
C179 N178 1.351 . S
C179 C180 1.434 . S
C180 C171 1.429 . S
C180 N177 1.350 . S
C180 C179 1.434 . S
C181 C182 1.369 . S
C181 C183 1.419 . S
C181 H185 0.930 . S
C182 C181 1.369 . S
C182 C191 1.429 . S
C183 C181 1.419 . S
C183 C184 1.363 . S
C183 H186 0.929 . S
C184 C183 1.363 . S
C184 C190 1.428 . S
H185 C181 0.930 . S
H186 C183 0.929 . S
S187 N188 1.613 . S
S187 N189 1.610 . S
N188 S187 1.613 . S
N188 C191 1.350 . S
N189 S187 1.610 . S
N189 C190 1.351 . S
C190 C184 1.428 . S
C190 N189 1.351 . S
C190 C191 1.434 . S
C191 C182 1.429 . S
C191 N188 1.350 . S
C191 C190 1.434 . S
C192 C193 1.369 . S
C192 C194 1.419 . S
C192 H196 0.930 . S
C193 C192 1.369 . S
C193 C202 1.429 . S
C194 C192 1.419 . S
C194 C195 1.363 . S
C194 H197 0.929 . S
C195 C194 1.363 . S
C195 C201 1.428 . S
H196 C192 0.930 . S
H197 C194 0.929 . S
S198 N199 1.613 . S
S198 N200 1.610 . S
N199 S198 1.613 . S
N199 C202 1.350 . S
N200 S198 1.610 . S
N200 C201 1.351 . S
C201 C195 1.428 . S
C201 N200 1.351 . S
C201 C202 1.434 . S
C202 C193 1.429 . S
C202 N199 1.350 . S
C202 C201 1.434 . S
C203 C204 1.369 . S
C203 C205 1.419 . S
C203 H207 0.930 . S
C204 C203 1.369 . S
C204 C213 1.429 . S
C205 C203 1.419 . S
C205 C206 1.363 . S
C205 H208 0.929 . S
C206 C205 1.363 . S
C206 C212 1.428 . S
H207 C203 0.930 . S
H208 C205 0.929 . S
S209 N210 1.613 . S
S209 N211 1.610 . S
N210 S209 1.613 . S
N210 C213 1.350 . S
N211 S209 1.610 . S
N211 C212 1.351 . S
C212 C206 1.428 . S
C212 N211 1.351 . S
C212 C213 1.434 . S
C213 C204 1.429 . S
C213 N210 1.350 . S
C213 C212 1.434 . S
C214 C215 1.369 . S
C214 C216 1.419 . S
C214 H218 0.930 . S
C215 C214 1.369 . S
C215 C224 1.429 . S
C216 C214 1.419 . S
C216 C217 1.363 . S
C216 H219 0.929 . S
C217 C216 1.363 . S
C217 C223 1.428 . S
H218 C214 0.930 . S
H219 C216 0.929 . S
S220 N221 1.613 . S
S220 N222 1.610 . S
N221 S220 1.613 . S
N221 C224 1.350 . S
N222 S220 1.610 . S
N222 C223 1.351 . S
C223 C217 1.428 . S
C223 N222 1.351 . S
C223 C224 1.434 . S
C224 C215 1.429 . S
C224 N221 1.350 . S
C224 C223 1.434 . S
C225 C226 1.369 . S
C225 C227 1.419 . S
C225 H229 0.930 . S
C226 C225 1.369 . S
C226 C235 1.429 . S
C227 C225 1.419 . S
C227 C228 1.363 . S
C227 H230 0.929 . S
C228 C227 1.363 . S
C228 C234 1.428 . S
H229 C225 0.930 . S
H230 C227 0.929 . S
S231 N232 1.613 . S
S231 N233 1.610 . S
N232 S231 1.613 . S
N232 C235 1.350 . S
N233 S231 1.610 . S
N233 C234 1.351 . S
C234 C228 1.428 . S
C234 N233 1.351 . S
C234 C235 1.434 . S
C235 C226 1.429 . S
C235 N232 1.350 . S
C235 C234 1.434 . S
C236 C237 1.369 . S
C236 C238 1.419 . S
C236 H240 0.930 . S
C237 C236 1.369 . S
C237 C246 1.429 . S
C238 C236 1.419 . S
C238 C239 1.363 . S
C238 H241 0.929 . S
C239 C238 1.363 . S
C239 C245 1.428 . S
H240 C236 0.930 . S
H241 C238 0.929 . S
S242 N243 1.613 . S
S242 N244 1.610 . S
N243 S242 1.613 . S
N243 C246 1.350 . S
N244 S242 1.610 . S
N244 C245 1.351 . S
C245 C239 1.428 . S
C245 N244 1.351 . S
C245 C246 1.434 . S
C246 C237 1.429 . S
C246 N243 1.350 . S
C246 C245 1.434 . S
C247 C248 1.369 . S
C247 C249 1.419 . S
C247 H251 0.930 . S
C248 C247 1.369 . S
C248 C257 1.429 . S
C249 C247 1.419 . S
C249 C250 1.363 . S
C249 H252 0.929 . S
C250 C249 1.363 . S
C250 C256 1.428 . S
H251 C247 0.930 . S
H252 C249 0.929 . S
S253 N254 1.613 . S
S253 N255 1.610 . S
N254 S253 1.613 . S
N254 C257 1.350 . S
N255 S253 1.610 . S
N255 C256 1.351 . S
C256 C250 1.428 . S
C256 N255 1.351 . S
C256 C257 1.434 . S
C257 C248 1.429 . S
C257 N254 1.350 . S
C257 C256 1.434 . S
C258 C259 1.369 . S
C258 C260 1.419 . S
C258 H262 0.930 . S
C259 C258 1.369 . S
C259 C268 1.429 . S
C260 C258 1.419 . S
C260 C261 1.363 . S
C260 H263 0.929 1_545 S
C261 C260 1.363 . S
C261 C267 1.428 . S
H262 C258 0.930 . S
H263 C260 0.929 1_565 S
S264 N265 1.613 . S
S264 N266 1.610 . S
N265 S264 1.613 . S
N265 C268 1.350 . S
N266 S264 1.610 . S
N266 C267 1.351 . S
C267 C261 1.428 . S
C267 N266 1.351 . S
C267 C268 1.434 . S
C268 C259 1.429 . S
C268 N265 1.350 . S
C268 C267 1.434 . S
C269 C270 1.369 . S
C269 C271 1.419 . S
C269 H273 0.930 1_655 S
C270 C269 1.369 . S
C270 C279 1.429 . S
C271 C269 1.419 . S
C271 C272 1.363 . S
C271 H274 0.929 . S
C272 C271 1.363 . S
C272 C278 1.428 . S
H273 C269 0.930 1_455 S
H274 C271 0.929 . S
S275 N276 1.613 . S
S275 N277 1.610 . S
N276 S275 1.613 . S
N276 C279 1.350 . S
N277 S275 1.610 . S
N277 C278 1.351 . S
C278 C272 1.428 . S
C278 N277 1.351 . S
C278 C279 1.434 . S
C279 C270 1.429 . S
C279 N276 1.350 . S
C279 C278 1.434 . S
C105 C56 1.750 . S
C107 C10 1.756 . S
C116 C17 1.757 . S
C118 C69 1.764 . S
C127 C36 1.752 . S
C129 C88 1.755 . S
C138 C95 1.743 . S
C140 C43 1.748 . S
C149 C4 1.644 . S
C151 C30 1.645 . S
C160 C23 1.644 . S
C162 C49 1.645 . S
C171 C82 1.645 . S
C173 C62 1.645 . S
C182 C75 1.645 . S
C184 C101 1.645 . S
C193 C70 1.213 . S
C195 C5 1.281 . S
C204 C16 1.281 . S
C206 C81 1.230 . S
C215 C31 1.267 . S
C217 C96 1.216 . S
C226 C57 1.215 . S
C228 C42 1.264 . S
C237 C55 1.281 . S
C239 C18 1.220 . S
C248 C68 1.285 . S
C250 C29 1.220 . S
C259 C83 1.269 . S
C261 C44 1.214 . S
C270 C3 1.216 . S
C272 C94 1.264 . S
