# Generated by pormake.
# Topology tzs, (4)-cn, num edge types: 1
# Building blocks:
#     Node 0, Type 0, BuildingBlock: QUQFOY_clean_sbu_3, # of connection points: 4
#     Node 1, Type 0, BuildingBlock: QUQFOY_clean_sbu_3, # of connection points: 4
#     Node 2, Type 0, BuildingBlock: QUQFOY_clean_sbu_3, # of connection points: 4
#     Node 3, Type 0, BuildingBlock: QUQFOY_clean_sbu_3, # of connection points: 4
#     Node 4, Type 0, BuildingBlock: QUQFOY_clean_sbu_3, # of connection points: 4
#     Node 5, Type 0, BuildingBlock: QUQFOY_clean_sbu_3, # of connection points: 4
#     Node 6, Type 0, BuildingBlock: QUQFOY_clean_sbu_3, # of connection points: 4
#     Node 7, Type 0, BuildingBlock: QUQFOY_clean_sbu_3, # of connection points: 4
#     Node 8, Type 0, BuildingBlock: QUQFOY_clean_sbu_3, # of connection points: 4
#     Node 9, Type 0, BuildingBlock: QUQFOY_clean_sbu_3, # of connection points: 4
#     Node 10, Type 0, BuildingBlock: QUQFOY_clean_sbu_3, # of connection points: 4
#     Node 11, Type 0, BuildingBlock: QUQFOY_clean_sbu_3, # of connection points: 4
#     Node 12, Type 0, BuildingBlock: QUQFOY_clean_sbu_3, # of connection points: 4
#     Node 13, Type 0, BuildingBlock: QUQFOY_clean_sbu_3, # of connection points: 4
#     Node 14, Type 0, BuildingBlock: QUQFOY_clean_sbu_3, # of connection points: 4
#     Node 15, Type 0, BuildingBlock: QUQFOY_clean_sbu_3, # of connection points: 4
#     Edge 16, Type (0, 0), BuildingBlock: OJICUG_clean_linker_0, # of connection points: 2
#     Edge 17, Type (0, 0), BuildingBlock: OJICUG_clean_linker_0, # of connection points: 2
#     Edge 18, Type (0, 0), BuildingBlock: OJICUG_clean_linker_0, # of connection points: 2
#     Edge 19, Type (0, 0), BuildingBlock: OJICUG_clean_linker_0, # of connection points: 2
#     Edge 20, Type (0, 0), BuildingBlock: OJICUG_clean_linker_0, # of connection points: 2
#     Edge 21, Type (0, 0), BuildingBlock: OJICUG_clean_linker_0, # of connection points: 2
#     Edge 22, Type (0, 0), BuildingBlock: OJICUG_clean_linker_0, # of connection points: 2
#     Edge 23, Type (0, 0), BuildingBlock: OJICUG_clean_linker_0, # of connection points: 2
#     Edge 24, Type (0, 0), BuildingBlock: OJICUG_clean_linker_0, # of connection points: 2
#     Edge 25, Type (0, 0), BuildingBlock: OJICUG_clean_linker_0, # of connection points: 2
#     Edge 26, Type (0, 0), BuildingBlock: OJICUG_clean_linker_0, # of connection points: 2
#     Edge 27, Type (0, 0), BuildingBlock: OJICUG_clean_linker_0, # of connection points: 2
#     Edge 28, Type (0, 0), BuildingBlock: OJICUG_clean_linker_0, # of connection points: 2
#     Edge 29, Type (0, 0), BuildingBlock: OJICUG_clean_linker_0, # of connection points: 2
#     Edge 30, Type (0, 0), BuildingBlock: OJICUG_clean_linker_0, # of connection points: 2
#     Edge 31, Type (0, 0), BuildingBlock: OJICUG_clean_linker_0, # of connection points: 2
#     Edge 32, Type (0, 0), BuildingBlock: OJICUG_clean_linker_0, # of connection points: 2
#     Edge 33, Type (0, 0), BuildingBlock: OJICUG_clean_linker_0, # of connection points: 2
#     Edge 34, Type (0, 0), BuildingBlock: OJICUG_clean_linker_0, # of connection points: 2
#     Edge 35, Type (0, 0), BuildingBlock: OJICUG_clean_linker_0, # of connection points: 2
#     Edge 36, Type (0, 0), BuildingBlock: OJICUG_clean_linker_0, # of connection points: 2
#     Edge 37, Type (0, 0), BuildingBlock: OJICUG_clean_linker_0, # of connection points: 2
#     Edge 38, Type (0, 0), BuildingBlock: OJICUG_clean_linker_0, # of connection points: 2
#     Edge 39, Type (0, 0), BuildingBlock: OJICUG_clean_linker_0, # of connection points: 2
#     Edge 40, Type (0, 0), BuildingBlock: OJICUG_clean_linker_0, # of connection points: 2
#     Edge 41, Type (0, 0), BuildingBlock: OJICUG_clean_linker_0, # of connection points: 2
#     Edge 42, Type (0, 0), BuildingBlock: OJICUG_clean_linker_0, # of connection points: 2
#     Edge 43, Type (0, 0), BuildingBlock: OJICUG_clean_linker_0, # of connection points: 2
#     Edge 44, Type (0, 0), BuildingBlock: OJICUG_clean_linker_0, # of connection points: 2
#     Edge 45, Type (0, 0), BuildingBlock: OJICUG_clean_linker_0, # of connection points: 2
#     Edge 46, Type (0, 0), BuildingBlock: OJICUG_clean_linker_0, # of connection points: 2
#     Edge 47, Type (0, 0), BuildingBlock: OJICUG_clean_linker_0, # of connection points: 2
# Relax obj value: 0.117
# Max RMSD: 0.119
# Mean RMSD: 0.119
data_MOF--net-tzs--node1-QUQFOY_clean_sbu_3--edge1-OJICUG_clean_linker_0
_symmetry_space_group_name_H-M    P1
_symmetry_Int_Tables_number       1
_symmetry_cell_setting            triclinic
loop_
_symmetry_equiv_pos_as_xyz
'x, y, z'
_cell_length_a     37.404849
_cell_length_b     37.22351
_cell_length_c     30.996214
_cell_angle_alpha  90.066085
_cell_angle_beta   90.018215
_cell_angle_gamma 89.989879
loop_
_atom_site_label
_atom_site_type_symbol
_atom_site_fract_x
_atom_site_fract_y
_atom_site_fract_z
_atom_type_partial_charge
C0 C 0.02172 0.33666 0.1471 0.0
O1 O 0.01546 0.35716 0.11529 0.0
Cd2 Cd 0.06238 0.39035 0.08338 0.0
O3 O 0.05338 0.33318 0.16188 0.0
Cd4 Cd 0.11545 0.35216 0.1457 0.0
C5 C 0.09563 0.43814 0.1698 0.0
O6 O 0.10382 0.34181 0.0709 0.0
O7 O 0.15567 0.36445 0.08471 0.0
O8 O 0.12954 0.29237 0.17249 0.0
C9 C 0.13493 0.34928 0.05799 0.0
O10 O 0.07567 0.43779 0.13655 0.0
C11 C 0.15939 0.3013 0.18869 0.0
O12 O 0.11349 0.41056 0.18048 0.0
O13 O 0.16803 0.33419 0.18632 0.0
C14 C 0.61296 0.03995 0.14907 0.0
O15 O 0.59416 0.0331 0.11596 0.0
Cd16 Cd 0.56481 0.07996 0.07904 0.0
O17 O 0.61696 0.07219 0.16233 0.0
Cd18 Cd 0.60197 0.13465 0.14105 0.0
C19 C 0.51506 0.11776 0.16104 0.0
O20 O 0.61655 0.11756 0.06919 0.0
O21 O 0.59728 0.17195 0.07539 0.0
O22 O 0.66037 0.14596 0.17249 0.0
C23 C 0.61287 0.1483 0.05272 0.0
O24 O 0.5165 0.09606 0.12935 0.0
C25 C 0.65303 0.17743 0.18546 0.0
O26 O 0.54218 0.13619 0.17179 0.0
O27 O 0.62133 0.18844 0.17935 0.0
C28 C 0.91316 0.63298 0.16267 0.0
O29 O 0.92189 0.61446 0.12992 0.0
Cd30 Cd 0.87905 0.58176 0.09104 0.0
O31 O 0.88056 0.63539 0.17462 0.0
Cd32 Cd 0.82002 0.61748 0.14865 0.0
C33 C 0.84015 0.53158 0.17234 0.0
O34 O 0.84 0.6316 0.07845 0.0
O35 O 0.78759 0.60783 0.07918 0.0
O36 O 0.80572 0.67678 0.17568 0.0
C37 C 0.81155 0.62465 0.05847 0.0
O38 O 0.86279 0.53385 0.14184 0.0
C39 C 0.77383 0.66938 0.18626 0.0
O40 O 0.81991 0.55791 0.18153 0.0
O41 O 0.76375 0.63709 0.18114 0.0
C42 C 0.31798 0.93381 0.16239 0.0
O43 O 0.33775 0.94132 0.13038 0.0
Cd44 Cd 0.37174 0.89689 0.09528 0.0
O45 O 0.31487 0.9015 0.17568 0.0
Cd46 Cd 0.33328 0.83974 0.15407 0.0
C47 C 0.41835 0.85922 0.18064 0.0
O48 O 0.32406 0.85582 0.08081 0.0
O49 O 0.34818 0.80376 0.08928 0.0
O50 O 0.27292 0.82533 0.17689 0.0
C51 C 0.33331 0.82625 0.0644 0.0
O52 O 0.41773 0.88071 0.14873 0.0
C53 C 0.28059 0.79423 0.19074 0.0
O54 O 0.39119 0.84031 0.19006 0.0
O55 O 0.31319 0.78485 0.18907 0.0
C56 C 0.02826 0.66082 0.27492 0.0
O57 O 0.02056 0.64999 0.31258 0.0
Cd58 Cd 0.06349 0.62076 0.35491 0.0
O59 O 0.06062 0.66122 0.26174 0.0
Cd60 Cd 0.12189 0.65107 0.29123 0.0
C61 C 0.10004 0.56486 0.27632 0.0
O62 O 0.10603 0.66786 0.36291 0.0
O63 O 0.15486 0.63767 0.35805 0.0
O64 O 0.14105 0.70874 0.26259 0.0
C65 C 0.13391 0.65637 0.3811 0.0
O66 O 0.07816 0.5694 0.30735 0.0
C67 C 0.17122 0.69725 0.2498 0.0
O68 O 0.12047 0.59011 0.26406 0.0
O69 O 0.17747 0.66397 0.25446 0.0
C70 C 0.29307 0.05115 0.27178 0.0
O71 O 0.30493 0.04246 0.30866 0.0
Cd72 Cd 0.33744 0.08344 0.35023 0.0
O73 O 0.29322 0.08388 0.25932 0.0
Cd74 Cd 0.30532 0.14473 0.29054 0.0
C75 C 0.38981 0.12181 0.26912 0.0
O76 O 0.29236 0.12711 0.36224 0.0
O77 O 0.32375 0.17512 0.35834 0.0
O78 O 0.24664 0.16429 0.26632 0.0
C79 C 0.30646 0.15321 0.38168 0.0
O80 O 0.38616 0.09912 0.29958 0.0
C81 C 0.25725 0.19494 0.25377 0.0
O82 O 0.3646 0.14312 0.25912 0.0
O83 O 0.29042 0.2016 0.25712 0.0
C84 C 0.90733 0.30517 0.25757 0.0
O85 O 0.91853 0.31372 0.29483 0.0
Cd86 Cd 0.88164 0.34276 0.34444 0.0
O87 O 0.87406 0.30657 0.24823 0.0
Cd88 Cd 0.81625 0.31584 0.28784 0.0
C89 C 0.83858 0.40198 0.27409 0.0
O90 O 0.83954 0.29605 0.35466 0.0
O91 O 0.79235 0.32801 0.36147 0.0
O92 O 0.79428 0.25918 0.25951 0.0
C93 C 0.81575 0.30829 0.37926 0.0
O94 O 0.8632 0.39561 0.30148 0.0
C95 C 0.76313 0.27084 0.25122 0.0
O96 O 0.81623 0.37779 0.26361 0.0
O97 O 0.75716 0.30384 0.2587 0.0
C98 C 0.64216 0.92458 0.26213 0.0
O99 O 0.63464 0.93431 0.3003 0.0
Cd100 Cd 0.6096 0.89406 0.34944 0.0
O101 O 0.6415 0.89146 0.25122 0.0
Cd102 Cd 0.6345 0.83181 0.28747 0.0
C103 C 0.54799 0.85345 0.28066 0.0
O104 O 0.65803 0.85289 0.35396 0.0
O105 O 0.62828 0.80391 0.35978 0.0
O106 O 0.68947 0.8116 0.25377 0.0
C107 C 0.64897 0.82673 0.37718 0.0
O108 O 0.55525 0.87713 0.30903 0.0
C109 C 0.67807 0.78023 0.24542 0.0
O110 O 0.5718 0.83171 0.26749 0.0
O111 O 0.64569 0.77354 0.25467 0.0
C112 C 0.82537 0.54992 0.76215 0.0
O113 O 0.83184 0.54039 0.80065 0.0
Cd114 Cd 0.85572 0.58106 0.85032 0.0
O115 O 0.82604 0.58301 0.75122 0.0
Cd116 Cd 0.83148 0.6429 0.78742 0.0
C117 C 0.91818 0.6217 0.78275 0.0
O118 O 0.80721 0.6222 0.85368 0.0
O119 O 0.83678 0.67129 0.85953 0.0
O120 O 0.77685 0.66285 0.75265 0.0
C121 C 0.81603 0.64853 0.87685 0.0
O122 O 0.91059 0.59812 0.81105 0.0
C123 C 0.78839 0.69416 0.74425 0.0
O124 O 0.89447 0.64327 0.76894 0.0
O125 O 0.8207 0.70084 0.75392 0.0
C126 C 0.43862 0.81359 0.77564 0.0
O127 O 0.44615 0.82344 0.81377 0.0
Cd128 Cd 0.40302 0.85278 0.85577 0.0
O129 O 0.40635 0.81389 0.76208 0.0
Cd130 Cd 0.34483 0.82401 0.79082 0.0
C131 C 0.3682 0.90986 0.77729 0.0
O132 O 0.35965 0.80639 0.86246 0.0
O133 O 0.31141 0.83745 0.85725 0.0
O134 O 0.32563 0.7667 0.76115 0.0
C135 C 0.33177 0.81819 0.88038 0.0
O136 O 0.38974 0.90462 0.80851 0.0
C137 C 0.29558 0.77839 0.74822 0.0
O138 O 0.34733 0.88515 0.76446 0.0
O139 O 0.28947 0.81168 0.75316 0.0
C140 C 0.18103 0.42538 0.77186 0.0
O141 O 0.17032 0.43386 0.80933 0.0
Cd142 Cd 0.13872 0.39248 0.8513 0.0
O143 O 0.18078 0.39268 0.75922 0.0
Cd144 Cd 0.17023 0.33161 0.79041 0.0
C145 C 0.08538 0.35415 0.77087 0.0
O146 O 0.18386 0.34872 0.86224 0.0
O147 O 0.1525 0.30071 0.8579 0.0
O148 O 0.22872 0.31215 0.76526 0.0
C149 C 0.16986 0.32247 0.88143 0.0
O150 O 0.08937 0.37676 0.80142 0.0
C151 C 0.2179 0.28161 0.75244 0.0
O152 O 0.11052 0.33297 0.76022 0.0
O153 O 0.18472 0.27507 0.75597 0.0
C154 C 0.56747 0.17094 0.75886 0.0
O155 O 0.55649 0.16371 0.79658 0.0
Cd156 Cd 0.59354 0.13469 0.84601 0.0
O157 O 0.60063 0.16873 0.74922 0.0
Cd158 Cd 0.65887 0.15978 0.78802 0.0
C159 C 0.63486 0.07405 0.77552 0.0
O160 O 0.63674 0.18052 0.85501 0.0
O161 O 0.68343 0.14774 0.86131 0.0
O162 O 0.68078 0.21602 0.75876 0.0
C163 C 0.66053 0.16793 0.87935 0.0
O164 O 0.61064 0.08125 0.80314 0.0
C165 C 0.71179 0.20416 0.7501 0.0
O166 O 0.65768 0.09761 0.7645 0.0
O167 O 0.71771 0.17119 0.75776 0.0
C168 C 0.86074 0.43529 0.65011 0.0
O169 O 0.88012 0.44262 0.61768 0.0
Cd170 Cd 0.91065 0.39639 0.58087 0.0
O171 O 0.85696 0.40293 0.66292 0.0
Cd172 Cd 0.8733 0.3408 0.6415 0.0
C173 C 0.95984 0.3585 0.66321 0.0
O174 O 0.85944 0.35831 0.56963 0.0
O175 O 0.87888 0.30397 0.57546 0.0
O176 O 0.81473 0.32903 0.67204 0.0
C177 C 0.86346 0.32771 0.55282 0.0
O178 O 0.95852 0.3804 0.63177 0.0
C179 C 0.822 0.29745 0.6846 0.0
O180 O 0.93279 0.33972 0.67328 0.0
O181 O 0.85376 0.28652 0.67865 0.0
C182 C 0.5539 0.84356 0.66444 0.0
O183 O 0.54514 0.86275 0.6323 0.0
Cd184 Cd 0.58793 0.89516 0.59312 0.0
O185 O 0.58656 0.84045 0.67589 0.0
Cd186 Cd 0.64696 0.85802 0.64921 0.0
C187 C 0.62874 0.94425 0.67405 0.0
O188 O 0.62591 0.84472 0.57911 0.0
O189 O 0.67879 0.86742 0.57936 0.0
O190 O 0.66109 0.79837 0.67526 0.0
C191 C 0.65429 0.85122 0.55881 0.0
O192 O 0.60571 0.94261 0.6439 0.0
C193 C 0.69312 0.80549 0.68551 0.0
O194 O 0.64849 0.91743 0.68268 0.0
O195 O 0.70337 0.83774 0.68065 0.0
C196 C 0.14939 0.54171 0.66357 0.0
O197 O 0.12895 0.53363 0.63234 0.0
Cd198 Cd 0.09376 0.57729 0.59761 0.0
O199 O 0.15234 0.57417 0.67645 0.0
Cd200 Cd 0.13252 0.63539 0.65495 0.0
C201 C 0.04801 0.61543 0.68334 0.0
O202 O 0.14088 0.61879 0.58168 0.0
O203 O 0.11675 0.67084 0.58992 0.0
O204 O 0.1931 0.65027 0.67655 0.0
C205 C 0.1313 0.6481 0.56505 0.0
O206 O 0.04843 0.59361 0.65169 0.0
C207 C 0.18561 0.68154 0.69002 0.0
O208 O 0.0751 0.6347 0.69205 0.0
O209 O 0.15299 0.69089 0.68873 0.0
C210 C 0.45285 0.13705 0.64914 0.0
O211 O 0.45914 0.11598 0.61783 0.0
Cd212 Cd 0.41214 0.08315 0.58541 0.0
O213 O 0.42109 0.1412 0.66334 0.0
Cd214 Cd 0.35905 0.12265 0.64625 0.0
C215 C 0.37701 0.03645 0.67134 0.0
O216 O 0.37166 0.13223 0.5715 0.0
O217 O 0.31931 0.11058 0.58473 0.0
O218 O 0.34528 0.18284 0.67226 0.0
C219 C 0.34054 0.12521 0.55821 0.0
O220 O 0.39735 0.03619 0.63844 0.0
C221 C 0.31518 0.17432 0.68804 0.0
O222 O 0.3596 0.06446 0.68153 0.0
O223 O 0.30626 0.1415 0.68583 0.0
C224 C 0.24333 0.2577 0.23129 0.0
C225 C 0.23205 0.22208 0.23734 0.0
H226 H 0.22895 0.31084 0.21181 0.0
C227 C 0.19638 0.21289 0.22851 0.0
H228 H 0.27062 0.26561 0.23813 0.0
C229 C 0.17253 0.23878 0.21328 0.0
C230 C 0.18387 0.27437 0.20707 0.0
H231 H 0.18694 0.18564 0.23302 0.0
H232 H 0.14528 0.23088 0.20618 0.0
C233 C 0.21941 0.28365 0.21651 0.0
C234 C 0.6999 0.25975 0.22892 0.0
C235 C 0.73487 0.24687 0.23479 0.0
H236 H 0.64643 0.24771 0.20917 0.0
C237 C 0.74241 0.21068 0.22574 0.0
H238 H 0.69325 0.28748 0.23588 0.0
C239 C 0.71559 0.1879 0.21055 0.0
C240 C 0.68071 0.20086 0.20427 0.0
H241 H 0.76908 0.19995 0.23016 0.0
H242 H 0.72231 0.16023 0.20334 0.0
C243 C 0.67305 0.23693 0.21386 0.0
C244 C 0.76141 0.73302 0.20659 0.0
C245 C 0.74927 0.69753 0.20177 0.0
H246 H 0.7483 0.78707 0.22372 0.0
C247 C 0.71324 0.68961 0.21019 0.0
H248 H 0.78901 0.73999 0.2001 0.0
C249 C 0.68983 0.71668 0.22344 0.0
C250 C 0.70207 0.75212 0.22856 0.0
H251 H 0.70308 0.66253 0.20647 0.0
H252 H 0.66227 0.70974 0.23012 0.0
C253 C 0.73805 0.76004 0.21988 0.0
C254 C 0.21737 0.78171 0.21174 0.0
C255 C 0.25263 0.76956 0.20616 0.0
H256 H 0.16382 0.76824 0.22981 0.0
C257 C 0.26067 0.7333 0.21388 0.0
H258 H 0.2104 0.80952 0.20585 0.0
C259 C 0.23394 0.7096 0.22701 0.0
C260 C 0.19876 0.72181 0.23304 0.0
H261 H 0.28757 0.72312 0.20952 0.0
H262 H 0.241 0.68183 0.23304 0.0
C263 C 0.19069 0.75807 0.22527 0.0
C264 C 0.70532 0.74166 0.70513 0.0
C265 C 0.71761 0.77711 0.70054 0.0
H266 H 0.7182 0.68753 0.72207 0.0
C267 C 0.75369 0.78485 0.70895 0.0
H268 H 0.67769 0.73483 0.69863 0.0
C269 C 0.77698 0.75766 0.72208 0.0
C270 C 0.76458 0.72228 0.72711 0.0
H271 H 0.76397 0.81189 0.70539 0.0
H272 H 0.80457 0.76448 0.72884 0.0
C273 C 0.72857 0.71451 0.71831 0.0
C274 C 0.24902 0.69407 0.7102 0.0
C275 C 0.21377 0.70631 0.70483 0.0
H276 H 0.30269 0.70741 0.72796 0.0
C277 C 0.20591 0.74265 0.71238 0.0
H278 H 0.25588 0.6662 0.70442 0.0
C279 C 0.23279 0.76631 0.72528 0.0
C280 C 0.26795 0.75398 0.73125 0.0
H281 H 0.17902 0.75288 0.70817 0.0
H282 H 0.22586 0.79412 0.73129 0.0
C283 C 0.27585 0.71767 0.72348 0.0
C284 C 0.23134 0.21882 0.72962 0.0
C285 C 0.24289 0.25435 0.73579 0.0
H286 H 0.24538 0.16552 0.71033 0.0
C287 C 0.27866 0.26325 0.72713 0.0
H288 H 0.20397 0.21113 0.73631 0.0
C289 C 0.30237 0.23712 0.71209 0.0
C290 C 0.29078 0.20159 0.70591 0.0
H291 H 0.2883 0.29043 0.73174 0.0
H292 H 0.32972 0.24476 0.70522 0.0
C293 C 0.25511 0.19265 0.71503 0.0
C294 C 0.73253 0.26417 0.72437 0.0
C295 C 0.74002 0.22797 0.73332 0.0
H296 H 0.75271 0.31462 0.70224 0.0
C297 C 0.77493 0.215 0.72725 0.0
H298 H 0.7059 0.27497 0.72893 0.0
C299 C 0.80182 0.23779 0.71226 0.0
C300 C 0.79424 0.27391 0.70294 0.0
H301 H 0.78154 0.18726 0.73412 0.0
H302 H 0.82842 0.22698 0.70751 0.0
C303 C 0.75937 0.28691 0.70926 0.0
C304 C 0.18594 0.34738 0.95322 0.0
C305 C 0.16433 0.32451 0.92822 0.0
H306 H 0.19357 0.37322 0.0143 0.0
C307 C 0.13477 0.30768 0.94721 0.0
H308 H 0.20899 0.36058 0.93923 0.0
C309 C 0.12564 0.31543 -0.01024 0.0
C310 C 0.14623 0.33969 0.01413 0.0
H311 H 0.11764 0.29003 0.92862 0.0
H312 H 0.10201 0.30295 0.00329 0.0
C313 C 0.17707 0.35475 -0.004 0.0
C314 C 0.6663 0.13773 0.95054 0.0
C315 C 0.65371 0.16662 0.92595 0.0
H316 H 0.66257 0.10906 0.00993 0.0
C317 C 0.62992 0.19142 0.94467 0.0
H318 H 0.68452 0.11818 0.93686 0.0
C319 C 0.61732 0.18628 -0.01343 0.0
C320 C 0.62803 0.15599 0.01002 0.0
H321 H 0.61991 0.21402 0.92625 0.0
H322 H 0.59818 0.20512 -0.00014 0.0
C323 C 0.65334 0.13231 -0.00786 0.0
C324 C 0.83202 0.66711 0.95146 0.0
C325 C 0.81041 0.64691 0.92367 0.0
H326 H 0.84923 0.67555 0.01629 0.0
C327 C 0.78598 0.62206 0.94102 0.0
H328 H 0.85093 0.68653 0.93897 0.0
C329 C 0.78481 0.61587 -0.01461 0.0
C330 C 0.80839 0.63418 0.01275 0.0
H331 H 0.76876 0.60637 0.92014 0.0
H332 H 0.76685 0.59559 -0.00206 0.0
C333 C 0.83117 0.66061 -0.00436 0.0
C334 C 0.30655 0.84269 -0.00604 0.0
C335 C 0.3297 0.82056 0.01779 0.0
H336 H 0.28851 0.85885 0.93146 0.0
C337 C 0.35057 0.79488 -0.00363 0.0
H338 H 0.28979 0.8624 0.00988 0.0
C339 C 0.34999 0.79305 0.95142 0.0
C340 C 0.32822 0.81656 0.92748 0.0
H341 H 0.36841 0.77742 0.01407 0.0
H342 H 0.36744 0.77404 0.93538 0.0
C343 C 0.30564 0.84056 0.94914 0.0
C344 C 0.11408 0.67922 0.49696 0.0
C345 C 0.13493 0.65362 0.51845 0.0
H346 H 0.09754 0.70011 0.43592 0.0
C347 C 0.1583 0.63159 0.49475 0.0
H348 H 0.09605 0.69662 0.5146 0.0
C349 C 0.15952 0.63382 0.44998 0.0
C350 C 0.137 0.6578 0.42823 0.0
H351 H 0.17507 0.61192 0.51076 0.0
H352 H 0.17685 0.61567 0.43239 0.0
C353 C 0.11494 0.68114 0.45206 0.0
C354 C 0.29853 0.12068 0.49596 0.0
C355 C 0.32966 0.13503 0.51428 0.0
H356 H 0.26655 0.11574 0.43908 0.0
C357 C 0.35083 0.15886 0.49011 0.0
H358 H 0.28159 0.10256 0.51409 0.0
C359 C 0.34192 0.16694 0.44758 0.0
C360 C 0.31199 0.15087 0.42844 0.0
H361 H 0.37472 0.17078 0.50378 0.0
H362 H 0.35945 0.18426 0.42914 0.0
C363 C 0.28988 0.12838 0.45321 0.0
C364 C 0.81003 0.33832 0.45063 0.0
C365 C 0.82282 0.30963 0.42581 0.0
H366 H 0.81352 0.36678 0.51027 0.0
C367 C 0.84692 0.28501 0.44426 0.0
H368 H 0.79158 0.35774 0.43714 0.0
C369 C 0.8595 0.2901 0.48621 0.0
C370 C 0.8485 0.32016 0.50995 0.0
H371 H 0.8571 0.26258 0.42565 0.0
H372 H 0.87881 0.27138 0.49934 0.0
C373 C 0.82298 0.3437 0.49227 0.0
C374 C 0.63346 0.8157 0.49602 0.0
C375 C 0.65694 0.84161 0.51303 0.0
H376 H 0.61304 0.79001 0.43945 0.0
C377 C 0.68088 0.85925 0.48558 0.0
H378 H 0.61509 0.80128 0.51675 0.0
C379 C 0.67951 0.8529 0.44124 0.0
C380 C 0.65451 0.82853 0.424 0.0
H381 H 0.69937 0.87912 0.49805 0.0
H382 H 0.6971 0.86806 0.42029 0.0
C383 C 0.63242 0.80902 0.45187 0.0
C384 C 0.13093 0.51415 0.23877 0.0
C385 C 0.09912 0.53128 0.25121 0.0
H386 H 0.1546 0.47029 0.20389 0.0
C387 C 0.06625 0.51761 0.23677 0.0
H388 H 0.15657 0.52444 0.24935 0.0
C389 C 0.06521 0.48773 0.20945 0.0
C390 C 0.09696 0.47033 0.19739 0.0
H391 H 0.04142 0.53073 0.24554 0.0
H392 H 0.03958 0.47789 0.19822 0.0
C393 C 0.12981 0.48339 0.21278 0.0
C394 C 0.46954 0.15223 0.20343 0.0
C395 C 0.4826 0.11927 0.18792 0.0
H396 H 0.42903 0.17892 0.24075 0.0
C397 C 0.4654 0.08732 0.19998 0.0
H398 H 0.48252 0.17718 0.19463 0.0
C399 C 0.43591 0.08822 0.22763 0.0
C400 C 0.4224 0.12116 0.24248 0.0
H401 H 0.47524 0.06157 0.18878 0.0
H402 H 0.42314 0.06319 0.23661 0.0
C403 C 0.43916 0.15322 0.2298 0.0
C404 C 0.87137 0.48211 0.21107 0.0
C405 C 0.83923 0.49888 0.19916 0.0
H406 H 0.89622 0.43895 0.24551 0.0
C407 C 0.80668 0.48447 0.21364 0.0
H408 H 0.89683 0.49293 0.20062 0.0
C409 C 0.80629 0.453 0.23843 0.0
C410 C 0.83851 0.43639 0.25051 0.0
H411 H 0.78157 0.49702 0.2049 0.0
H412 H 0.78087 0.44171 0.24825 0.0
C413 C 0.87104 0.4515 0.23708 0.0
C414 C 0.49587 0.82263 0.24577 0.0
C415 C 0.51314 0.85445 0.25846 0.0
H416 H 0.45138 0.79929 0.21196 0.0
C417 C 0.49852 0.88768 0.24629 0.0
H418 H 0.50683 0.79671 0.25456 0.0
C419 C 0.46783 0.8891 0.22064 0.0
C420 C 0.45054 0.85735 0.20796 0.0
H421 H 0.51162 0.91258 0.25517 0.0
H422 H 0.45751 0.91504 0.21085 0.0
C423 C 0.46434 0.8241 0.22143 0.0
C424 C 0.83732 0.52878 0.68746 0.0
C425 C 0.82437 0.52167 0.72906 0.0
H426 H 0.85941 0.50671 0.62968 0.0
C427 C 0.81772 0.486 0.74138 0.0
H428 H 0.84265 0.55605 0.67712 0.0
C429 C 0.82745 0.45774 0.71437 0.0
C430 C 0.84415 0.46476 0.67472 0.0
H431 H 0.80733 0.47983 0.77315 0.0
H432 H 0.82396 0.43049 0.72584 0.0
C433 C 0.84732 0.50049 0.66052 0.0
C434 C 0.49051 0.82475 0.67375 0.0
C435 C 0.52547 0.82677 0.69021 0.0
H436 H 0.43517 0.81756 0.68802 0.0
C437 C 0.53207 0.81599 0.73282 0.0
H438 H 0.48479 0.83204 0.64062 0.0
C439 C 0.5036 0.80761 0.76 0.0
C440 C 0.46824 0.80973 0.74478 0.0
H441 H 0.55884 0.81667 0.74612 0.0
H442 H 0.50911 0.80227 0.7937 0.0
C443 C 0.4621 0.81605 0.70079 0.0
C444 C 0.1765 0.4486 0.69708 0.0
C445 C 0.18546 0.45458 0.74045 0.0
H446 H 0.15771 0.47197 0.63841 0.0
C447 C 0.18997 0.49 0.75526 0.0
H448 H 0.17305 0.42159 0.68469 0.0
C449 C 0.18106 0.51888 0.72881 0.0
C450 C 0.16737 0.51264 0.68732 0.0
H451 H 0.19736 0.49531 0.78846 0.0
H452 H 0.18212 0.54577 0.74215 0.0
C453 C 0.16729 0.47747 0.67074 0.0
C454 C 0.47676 0.1741 0.70963 0.0
C455 C 0.4829 0.15456 0.67158 0.0
H456 H 0.49965 0.19586 0.76712 0.0
C457 C 0.51827 0.14883 0.65779 0.0
H458 H 0.44984 0.1797 0.72065 0.0
C459 C 0.54686 0.15859 0.68422 0.0
C460 C 0.54033 0.17387 0.72485 0.0
H461 H 0.52385 0.13453 0.62809 0.0
H462 H 0.57366 0.15085 0.67473 0.0
C463 C 0.50529 0.18362 0.73611 0.0
C464 C 0.66541 0.02202 0.73957 0.0
C465 C 0.63378 0.03949 0.75217 0.0
H466 H 0.68857 0.9773 0.70566 0.0
C467 C 0.60071 0.02516 0.73938 0.0
H468 H 0.69122 0.03271 0.74888 0.0
C469 C 0.59927 -0.00552 0.71345 0.0
C470 C 0.63081 0.97688 0.70098 0.0
H471 H 0.57596 0.03838 0.74821 0.0
H472 H 0.57341 0.98431 0.70346 0.0
C473 C 0.66391 -0.00951 0.71486 0.0
C474 C 0.97042 0.65238 0.74807 0.0
C475 C 0.95329 0.62063 0.76115 0.0
H476 H 0.0148 0.67555 0.71397 0.0
C477 C 0.96819 0.58733 0.74968 0.0
H478 H 0.95925 0.67835 0.7563 0.0
C479 C -0.00105 0.58577 0.72419 0.0
C480 C 0.01602 0.61745 0.71097 0.0
H481 H 0.9552 0.56247 0.75886 0.0
H482 H 0.00942 0.55976 0.71482 0.0
C483 C 0.00202 0.65078 0.72387 0.0
C484 C 0.34122 -0.00782 0.71373 0.0
C485 C 0.37456 0.0044 0.69896 0.0
H486 H 0.31299 0.95179 0.74964 0.0
C487 C 0.40572 0.9862 0.71152 0.0
H488 H 0.31687 0.0059 0.70443 0.0
C489 C 0.4036 0.95633 0.73869 0.0
C490 C 0.37023 0.94349 0.75248 0.0
H491 H 0.43172 -0.00464 0.70075 0.0
H492 H 0.42799 0.94257 0.74781 0.0
C493 C 0.33901 0.96145 0.73958 0.0
C494 C 0.03875 0.38789 0.73048 0.0
C495 C 0.05251 0.35488 0.7447 0.0
H496 H -0.0008 0.41468 0.69213 0.0
C497 C 0.03585 0.32286 0.73162 0.0
H498 H 0.05144 0.4129 0.73976 0.0
C499 C 0.00539 0.32393 0.70536 0.0
C500 C -0.00786 0.35695 0.69038 0.0
H501 H 0.04618 0.29711 0.74207 0.0
H502 H -0.00745 0.29898 0.69615 0.0
C503 C 0.00918 0.38889 0.70295 0.0
C504 C 0.29452 0.02771 0.19685 0.0
C505 C 0.28686 0.02206 0.24061 0.0
H506 H 0.31064 0.00369 0.13736 0.0
C507 C 0.28174 0.98684 0.25565 0.0
H508 H 0.29839 0.05459 0.18431 0.0
C509 C 0.28884 0.95765 0.22882 0.0
C510 C 0.30135 0.9634 0.18672 0.0
H511 H 0.27528 0.98181 0.28918 0.0
H512 H 0.28742 0.93083 0.24224 0.0
C513 C 0.30194 -0.00147 0.17011 0.0
C514 C 0.92769 0.31587 0.18253 0.0
C515 C 0.93426 0.3013 0.22349 0.0
H516 H 0.95071 0.33887 0.12584 0.0
C517 C 0.96926 0.29149 0.23485 0.0
H518 H 0.90091 0.32363 0.173 0.0
C519 C -0.00223 0.30037 0.20808 0.0
C520 C -0.00835 0.31934 0.16967 0.0
H521 H 0.97489 0.27979 0.26612 0.0
H522 H 0.02468 0.29483 0.21918 0.0
C523 C 0.95628 0.32499 0.1558 0.0
C524 C 0.65213 -0.01179 0.24181 0.0
C525 C 0.64482 0.95273 0.22915 0.0
H526 H 0.64793 0.04384 0.22612 0.0
C527 C 0.63292 0.94591 0.18701 0.0
H528 H 0.66176 -0.00589 0.27402 0.0
C529 C 0.62454 0.97444 0.1597 0.0
C530 C 0.62828 0.01008 0.1741 0.0
H531 H 0.62713 0.91878 0.17641 0.0
H532 H 0.61315 0.96853 0.12835 0.0
C533 C 0.64403 0.01668 0.21444 0.0
C534 C 0.96341 0.66748 0.2591 0.0
C535 C -0.00121 0.66533 0.244 0.0
H536 H 0.90815 0.659 0.24481 0.0
C537 C 0.00501 0.65966 0.19989 0.0
H538 H 0.95785 0.67237 0.29291 0.0
C539 C 0.97659 0.65157 0.17251 0.0
C540 C 0.94159 0.6495 0.18878 0.0
H541 H 0.03196 0.65815 0.18724 0.0
H542 H 0.98236 0.64469 0.13925 0.0
C543 C 0.93495 0.65972 0.23161 0.0
loop_
_geom_bond_atom_site_label_1
_geom_bond_atom_site_label_2
_geom_bond_distance
_geom_bond_site_symmetry_2
_ccdc_geom_bond_type
C0 O1 1.306 . S
C0 O3 1.160 . S
O1 C0 1.306 . S
O1 Cd2 2.228 . S
Cd2 O1 2.228 . S
Cd2 O6 2.273 . S
Cd2 O10 2.277 . S
O3 C0 1.160 . S
O3 Cd4 2.203 . S
Cd4 O3 2.203 . S
Cd4 O6 2.411 . S
Cd4 O7 2.333 . S
Cd4 O8 2.352 . S
Cd4 O12 2.277 . S
Cd4 O13 2.356 . S
C5 O10 1.209 . S
C5 O12 1.226 . S
O6 Cd2 2.273 . S
O6 Cd4 2.411 . S
O6 C9 1.320 . S
O7 Cd4 2.333 . S
O7 C9 1.214 . S
O8 Cd4 2.352 . S
O8 C11 1.258 . S
C9 O6 1.320 . S
C9 O7 1.214 . S
O10 Cd2 2.277 . S
O10 C5 1.209 . S
C11 O8 1.258 . S
C11 O13 1.282 . S
O12 Cd4 2.277 . S
O12 C5 1.226 . S
O13 Cd4 2.356 . S
O13 C11 1.282 . S
C14 O15 1.306 . S
C14 O17 1.160 . S
O15 C14 1.306 . S
O15 Cd16 2.228 . S
Cd16 O15 2.228 . S
Cd16 O20 2.273 . S
Cd16 O24 2.277 . S
O17 C14 1.160 . S
O17 Cd18 2.203 . S
Cd18 O17 2.203 . S
Cd18 O20 2.411 . S
Cd18 O21 2.333 . S
Cd18 O22 2.352 . S
Cd18 O26 2.277 . S
Cd18 O27 2.356 . S
C19 O24 1.209 . S
C19 O26 1.226 . S
O20 Cd16 2.273 . S
O20 Cd18 2.411 . S
O20 C23 1.320 . S
O21 Cd18 2.333 . S
O21 C23 1.214 . S
O22 Cd18 2.352 . S
O22 C25 1.258 . S
C23 O20 1.320 . S
C23 O21 1.214 . S
O24 Cd16 2.277 . S
O24 C19 1.209 . S
C25 O22 1.258 . S
C25 O27 1.282 . S
O26 Cd18 2.277 . S
O26 C19 1.226 . S
O27 Cd18 2.356 . S
O27 C25 1.282 . S
C28 O29 1.306 . S
C28 O31 1.160 . S
O29 C28 1.306 . S
O29 Cd30 2.228 . S
Cd30 O29 2.228 . S
Cd30 O34 2.273 . S
Cd30 O38 2.277 . S
O31 C28 1.160 . S
O31 Cd32 2.203 . S
Cd32 O31 2.203 . S
Cd32 O34 2.411 . S
Cd32 O35 2.333 . S
Cd32 O36 2.352 . S
Cd32 O40 2.277 . S
Cd32 O41 2.356 . S
C33 O38 1.209 . S
C33 O40 1.226 . S
O34 Cd30 2.273 . S
O34 Cd32 2.411 . S
O34 C37 1.320 . S
O35 Cd32 2.333 . S
O35 C37 1.214 . S
O36 Cd32 2.352 . S
O36 C39 1.258 . S
C37 O34 1.320 . S
C37 O35 1.214 . S
O38 Cd30 2.277 . S
O38 C33 1.209 . S
C39 O36 1.258 . S
C39 O41 1.282 . S
O40 Cd32 2.277 . S
O40 C33 1.226 . S
O41 Cd32 2.356 . S
O41 C39 1.282 . S
C42 O43 1.306 . S
C42 O45 1.160 . S
O43 C42 1.306 . S
O43 Cd44 2.228 . S
Cd44 O43 2.228 . S
Cd44 O48 2.273 . S
Cd44 O52 2.277 . S
O45 C42 1.160 . S
O45 Cd46 2.203 . S
Cd46 O45 2.203 . S
Cd46 O48 2.411 . S
Cd46 O49 2.333 . S
Cd46 O50 2.352 . S
Cd46 O54 2.277 . S
Cd46 O55 2.356 . S
C47 O52 1.209 . S
C47 O54 1.226 . S
O48 Cd44 2.273 . S
O48 Cd46 2.411 . S
O48 C51 1.320 . S
O49 Cd46 2.333 . S
O49 C51 1.214 . S
O50 Cd46 2.352 . S
O50 C53 1.258 . S
C51 O48 1.320 . S
C51 O49 1.214 . S
O52 Cd44 2.277 . S
O52 C47 1.209 . S
C53 O50 1.258 . S
C53 O55 1.282 . S
O54 Cd46 2.277 . S
O54 C47 1.226 . S
O55 Cd46 2.356 . S
O55 C53 1.282 . S
C56 O57 1.306 . S
C56 O59 1.160 . S
O57 C56 1.306 . S
O57 Cd58 2.228 . S
Cd58 O57 2.228 . S
Cd58 O62 2.273 . S
Cd58 O66 2.277 . S
O59 C56 1.160 . S
O59 Cd60 2.203 . S
Cd60 O59 2.203 . S
Cd60 O62 2.411 . S
Cd60 O63 2.333 . S
Cd60 O64 2.352 . S
Cd60 O68 2.277 . S
Cd60 O69 2.356 . S
C61 O66 1.209 . S
C61 O68 1.226 . S
O62 Cd58 2.273 . S
O62 Cd60 2.411 . S
O62 C65 1.320 . S
O63 Cd60 2.333 . S
O63 C65 1.214 . S
O64 Cd60 2.352 . S
O64 C67 1.258 . S
C65 O62 1.320 . S
C65 O63 1.214 . S
O66 Cd58 2.277 . S
O66 C61 1.209 . S
C67 O64 1.258 . S
C67 O69 1.282 . S
O68 Cd60 2.277 . S
O68 C61 1.226 . S
O69 Cd60 2.356 . S
O69 C67 1.282 . S
C70 O71 1.306 . S
C70 O73 1.160 . S
O71 C70 1.306 . S
O71 Cd72 2.228 . S
Cd72 O71 2.228 . S
Cd72 O76 2.273 . S
Cd72 O80 2.277 . S
O73 C70 1.160 . S
O73 Cd74 2.203 . S
Cd74 O73 2.203 . S
Cd74 O76 2.411 . S
Cd74 O77 2.333 . S
Cd74 O78 2.352 . S
Cd74 O82 2.277 . S
Cd74 O83 2.356 . S
C75 O80 1.209 . S
C75 O82 1.226 . S
O76 Cd72 2.273 . S
O76 Cd74 2.411 . S
O76 C79 1.320 . S
O77 Cd74 2.333 . S
O77 C79 1.214 . S
O78 Cd74 2.352 . S
O78 C81 1.258 . S
C79 O76 1.320 . S
C79 O77 1.214 . S
O80 Cd72 2.277 . S
O80 C75 1.209 . S
C81 O78 1.258 . S
C81 O83 1.282 . S
O82 Cd74 2.277 . S
O82 C75 1.226 . S
O83 Cd74 2.356 . S
O83 C81 1.282 . S
C84 O85 1.306 . S
C84 O87 1.160 . S
O85 C84 1.306 . S
O85 Cd86 2.228 . S
Cd86 O85 2.228 . S
Cd86 O90 2.273 . S
Cd86 O94 2.277 . S
O87 C84 1.160 . S
O87 Cd88 2.203 . S
Cd88 O87 2.203 . S
Cd88 O90 2.411 . S
Cd88 O91 2.333 . S
Cd88 O92 2.352 . S
Cd88 O96 2.277 . S
Cd88 O97 2.356 . S
C89 O94 1.209 . S
C89 O96 1.226 . S
O90 Cd86 2.273 . S
O90 Cd88 2.411 . S
O90 C93 1.320 . S
O91 Cd88 2.333 . S
O91 C93 1.214 . S
O92 Cd88 2.352 . S
O92 C95 1.258 . S
C93 O90 1.320 . S
C93 O91 1.214 . S
O94 Cd86 2.277 . S
O94 C89 1.209 . S
C95 O92 1.258 . S
C95 O97 1.282 . S
O96 Cd88 2.277 . S
O96 C89 1.226 . S
O97 Cd88 2.356 . S
O97 C95 1.282 . S
C98 O99 1.306 . S
C98 O101 1.160 . S
O99 C98 1.306 . S
O99 Cd100 2.228 . S
Cd100 O99 2.228 . S
Cd100 O104 2.273 . S
Cd100 O108 2.277 . S
O101 C98 1.160 . S
O101 Cd102 2.203 . S
Cd102 O101 2.203 . S
Cd102 O104 2.411 . S
Cd102 O105 2.333 . S
Cd102 O106 2.352 . S
Cd102 O110 2.277 . S
Cd102 O111 2.356 . S
C103 O108 1.209 . S
C103 O110 1.226 . S
O104 Cd100 2.273 . S
O104 Cd102 2.411 . S
O104 C107 1.320 . S
O105 Cd102 2.333 . S
O105 C107 1.214 . S
O106 Cd102 2.352 . S
O106 C109 1.258 . S
C107 O104 1.320 . S
C107 O105 1.214 . S
O108 Cd100 2.277 . S
O108 C103 1.209 . S
C109 O106 1.258 . S
C109 O111 1.282 . S
O110 Cd102 2.277 . S
O110 C103 1.226 . S
O111 Cd102 2.356 . S
O111 C109 1.282 . S
C112 O113 1.306 . S
C112 O115 1.160 . S
O113 C112 1.306 . S
O113 Cd114 2.228 . S
Cd114 O113 2.228 . S
Cd114 O118 2.273 . S
Cd114 O122 2.277 . S
O115 C112 1.160 . S
O115 Cd116 2.203 . S
Cd116 O115 2.203 . S
Cd116 O118 2.411 . S
Cd116 O119 2.333 . S
Cd116 O120 2.352 . S
Cd116 O124 2.277 . S
Cd116 O125 2.356 . S
C117 O122 1.209 . S
C117 O124 1.226 . S
O118 Cd114 2.273 . S
O118 Cd116 2.411 . S
O118 C121 1.320 . S
O119 Cd116 2.333 . S
O119 C121 1.214 . S
O120 Cd116 2.352 . S
O120 C123 1.258 . S
C121 O118 1.320 . S
C121 O119 1.214 . S
O122 Cd114 2.277 . S
O122 C117 1.209 . S
C123 O120 1.258 . S
C123 O125 1.282 . S
O124 Cd116 2.277 . S
O124 C117 1.226 . S
O125 Cd116 2.356 . S
O125 C123 1.282 . S
C126 O127 1.306 . S
C126 O129 1.160 . S
O127 C126 1.306 . S
O127 Cd128 2.228 . S
Cd128 O127 2.228 . S
Cd128 O132 2.273 . S
Cd128 O136 2.277 . S
O129 C126 1.160 . S
O129 Cd130 2.203 . S
Cd130 O129 2.203 . S
Cd130 O132 2.411 . S
Cd130 O133 2.333 . S
Cd130 O134 2.352 . S
Cd130 O138 2.277 . S
Cd130 O139 2.356 . S
C131 O136 1.209 . S
C131 O138 1.226 . S
O132 Cd128 2.273 . S
O132 Cd130 2.411 . S
O132 C135 1.320 . S
O133 Cd130 2.333 . S
O133 C135 1.214 . S
O134 Cd130 2.352 . S
O134 C137 1.258 . S
C135 O132 1.320 . S
C135 O133 1.214 . S
O136 Cd128 2.277 . S
O136 C131 1.209 . S
C137 O134 1.258 . S
C137 O139 1.282 . S
O138 Cd130 2.277 . S
O138 C131 1.226 . S
O139 Cd130 2.356 . S
O139 C137 1.282 . S
C140 O141 1.306 . S
C140 O143 1.160 . S
O141 C140 1.306 . S
O141 Cd142 2.228 . S
Cd142 O141 2.228 . S
Cd142 O146 2.273 . S
Cd142 O150 2.277 . S
O143 C140 1.160 . S
O143 Cd144 2.203 . S
Cd144 O143 2.203 . S
Cd144 O146 2.411 . S
Cd144 O147 2.333 . S
Cd144 O148 2.352 . S
Cd144 O152 2.277 . S
Cd144 O153 2.356 . S
C145 O150 1.209 . S
C145 O152 1.226 . S
O146 Cd142 2.273 . S
O146 Cd144 2.411 . S
O146 C149 1.320 . S
O147 Cd144 2.333 . S
O147 C149 1.214 . S
O148 Cd144 2.352 . S
O148 C151 1.258 . S
C149 O146 1.320 . S
C149 O147 1.214 . S
O150 Cd142 2.277 . S
O150 C145 1.209 . S
C151 O148 1.258 . S
C151 O153 1.282 . S
O152 Cd144 2.277 . S
O152 C145 1.226 . S
O153 Cd144 2.356 . S
O153 C151 1.282 . S
C154 O155 1.306 . S
C154 O157 1.160 . S
O155 C154 1.306 . S
O155 Cd156 2.228 . S
Cd156 O155 2.228 . S
Cd156 O160 2.273 . S
Cd156 O164 2.277 . S
O157 C154 1.160 . S
O157 Cd158 2.203 . S
Cd158 O157 2.203 . S
Cd158 O160 2.411 . S
Cd158 O161 2.333 . S
Cd158 O162 2.352 . S
Cd158 O166 2.277 . S
Cd158 O167 2.356 . S
C159 O164 1.209 . S
C159 O166 1.226 . S
O160 Cd156 2.273 . S
O160 Cd158 2.411 . S
O160 C163 1.320 . S
O161 Cd158 2.333 . S
O161 C163 1.214 . S
O162 Cd158 2.352 . S
O162 C165 1.258 . S
C163 O160 1.320 . S
C163 O161 1.214 . S
O164 Cd156 2.277 . S
O164 C159 1.209 . S
C165 O162 1.258 . S
C165 O167 1.282 . S
O166 Cd158 2.277 . S
O166 C159 1.226 . S
O167 Cd158 2.356 . S
O167 C165 1.282 . S
C168 O169 1.306 . S
C168 O171 1.160 . S
O169 C168 1.306 . S
O169 Cd170 2.228 . S
Cd170 O169 2.228 . S
Cd170 O174 2.273 . S
Cd170 O178 2.277 . S
O171 C168 1.160 . S
O171 Cd172 2.203 . S
Cd172 O171 2.203 . S
Cd172 O174 2.411 . S
Cd172 O175 2.333 . S
Cd172 O176 2.352 . S
Cd172 O180 2.277 . S
Cd172 O181 2.356 . S
C173 O178 1.209 . S
C173 O180 1.226 . S
O174 Cd170 2.273 . S
O174 Cd172 2.411 . S
O174 C177 1.320 . S
O175 Cd172 2.333 . S
O175 C177 1.214 . S
O176 Cd172 2.352 . S
O176 C179 1.258 . S
C177 O174 1.320 . S
C177 O175 1.214 . S
O178 Cd170 2.277 . S
O178 C173 1.209 . S
C179 O176 1.258 . S
C179 O181 1.282 . S
O180 Cd172 2.277 . S
O180 C173 1.226 . S
O181 Cd172 2.356 . S
O181 C179 1.282 . S
C182 O183 1.306 . S
C182 O185 1.160 . S
O183 C182 1.306 . S
O183 Cd184 2.228 . S
Cd184 O183 2.228 . S
Cd184 O188 2.273 . S
Cd184 O192 2.277 . S
O185 C182 1.160 . S
O185 Cd186 2.203 . S
Cd186 O185 2.203 . S
Cd186 O188 2.411 . S
Cd186 O189 2.333 . S
Cd186 O190 2.352 . S
Cd186 O194 2.277 . S
Cd186 O195 2.356 . S
C187 O192 1.209 . S
C187 O194 1.226 . S
O188 Cd184 2.273 . S
O188 Cd186 2.411 . S
O188 C191 1.320 . S
O189 Cd186 2.333 . S
O189 C191 1.214 . S
O190 Cd186 2.352 . S
O190 C193 1.258 . S
C191 O188 1.320 . S
C191 O189 1.214 . S
O192 Cd184 2.277 . S
O192 C187 1.209 . S
C193 O190 1.258 . S
C193 O195 1.282 . S
O194 Cd186 2.277 . S
O194 C187 1.226 . S
O195 Cd186 2.356 . S
O195 C193 1.282 . S
C196 O197 1.306 . S
C196 O199 1.160 . S
O197 C196 1.306 . S
O197 Cd198 2.228 . S
Cd198 O197 2.228 . S
Cd198 O202 2.273 . S
Cd198 O206 2.277 . S
O199 C196 1.160 . S
O199 Cd200 2.203 . S
Cd200 O199 2.203 . S
Cd200 O202 2.411 . S
Cd200 O203 2.333 . S
Cd200 O204 2.352 . S
Cd200 O208 2.277 . S
Cd200 O209 2.356 . S
C201 O206 1.209 . S
C201 O208 1.226 . S
O202 Cd198 2.273 . S
O202 Cd200 2.411 . S
O202 C205 1.320 . S
O203 Cd200 2.333 . S
O203 C205 1.214 . S
O204 Cd200 2.352 . S
O204 C207 1.258 . S
C205 O202 1.320 . S
C205 O203 1.214 . S
O206 Cd198 2.277 . S
O206 C201 1.209 . S
C207 O204 1.258 . S
C207 O209 1.282 . S
O208 Cd200 2.277 . S
O208 C201 1.226 . S
O209 Cd200 2.356 . S
O209 C207 1.282 . S
C210 O211 1.306 . S
C210 O213 1.160 . S
O211 C210 1.306 . S
O211 Cd212 2.228 . S
Cd212 O211 2.228 . S
Cd212 O216 2.273 . S
Cd212 O220 2.277 . S
O213 C210 1.160 . S
O213 Cd214 2.203 . S
Cd214 O213 2.203 . S
Cd214 O216 2.411 . S
Cd214 O217 2.333 . S
Cd214 O218 2.352 . S
Cd214 O222 2.277 . S
Cd214 O223 2.356 . S
C215 O220 1.209 . S
C215 O222 1.226 . S
O216 Cd212 2.273 . S
O216 Cd214 2.411 . S
O216 C219 1.320 . S
O217 Cd214 2.333 . S
O217 C219 1.214 . S
O218 Cd214 2.352 . S
O218 C221 1.258 . S
C219 O216 1.320 . S
C219 O217 1.214 . S
O220 Cd212 2.277 . S
O220 C215 1.209 . S
C221 O218 1.258 . S
C221 O223 1.282 . S
O222 Cd214 2.277 . S
O222 C215 1.226 . S
O223 Cd214 2.356 . S
O223 C221 1.282 . S
C224 C225 1.387 . S
C224 H228 0.950 . S
C224 C233 1.390 . S
C225 C224 1.387 . S
C225 C227 1.387 . S
H226 C233 0.950 . S
C227 C225 1.387 . S
C227 C229 1.390 . S
C227 H231 0.950 . S
H228 C224 0.950 . S
C229 C227 1.390 . S
C229 C230 1.387 . S
C229 H232 0.950 . S
C230 C229 1.387 . S
C230 C233 1.387 . S
H231 C227 0.950 . S
H232 C229 0.950 . S
C233 C224 1.390 . S
C233 H226 0.950 . S
C233 C230 1.387 . S
C234 C235 1.387 . S
C234 H238 0.950 . S
C234 C243 1.390 . S
C235 C234 1.387 . S
C235 C237 1.387 . S
H236 C243 0.950 . S
C237 C235 1.387 . S
C237 C239 1.390 . S
C237 H241 0.950 . S
H238 C234 0.950 . S
C239 C237 1.390 . S
C239 C240 1.387 . S
C239 H242 0.950 . S
C240 C239 1.387 . S
C240 C243 1.387 . S
H241 C237 0.950 . S
H242 C239 0.950 . S
C243 C234 1.390 . S
C243 H236 0.950 . S
C243 C240 1.387 . S
C244 C245 1.387 . S
C244 H248 0.950 . S
C244 C253 1.390 . S
C245 C244 1.387 . S
C245 C247 1.387 . S
H246 C253 0.950 . S
C247 C245 1.387 . S
C247 C249 1.390 . S
C247 H251 0.950 . S
H248 C244 0.950 . S
C249 C247 1.390 . S
C249 C250 1.387 . S
C249 H252 0.950 . S
C250 C249 1.387 . S
C250 C253 1.387 . S
H251 C247 0.950 . S
H252 C249 0.950 . S
C253 C244 1.390 . S
C253 H246 0.950 . S
C253 C250 1.387 . S
C254 C255 1.387 . S
C254 H258 0.950 . S
C254 C263 1.390 . S
C255 C254 1.387 . S
C255 C257 1.387 . S
H256 C263 0.950 . S
C257 C255 1.387 . S
C257 C259 1.390 . S
C257 H261 0.950 . S
H258 C254 0.950 . S
C259 C257 1.390 . S
C259 C260 1.387 . S
C259 H262 0.950 . S
C260 C259 1.387 . S
C260 C263 1.387 . S
H261 C257 0.950 . S
H262 C259 0.950 . S
C263 C254 1.390 . S
C263 H256 0.950 . S
C263 C260 1.387 . S
C264 C265 1.387 . S
C264 H268 0.950 . S
C264 C273 1.390 . S
C265 C264 1.387 . S
C265 C267 1.387 . S
H266 C273 0.950 . S
C267 C265 1.387 . S
C267 C269 1.390 . S
C267 H271 0.950 . S
H268 C264 0.950 . S
C269 C267 1.390 . S
C269 C270 1.387 . S
C269 H272 0.950 . S
C270 C269 1.387 . S
C270 C273 1.387 . S
H271 C267 0.950 . S
H272 C269 0.950 . S
C273 C264 1.390 . S
C273 H266 0.950 . S
C273 C270 1.387 . S
C274 C275 1.387 . S
C274 H278 0.950 . S
C274 C283 1.390 . S
C275 C274 1.387 . S
C275 C277 1.387 . S
H276 C283 0.950 . S
C277 C275 1.387 . S
C277 C279 1.390 . S
C277 H281 0.950 . S
H278 C274 0.950 . S
C279 C277 1.390 . S
C279 C280 1.387 . S
C279 H282 0.950 . S
C280 C279 1.387 . S
C280 C283 1.387 . S
H281 C277 0.950 . S
H282 C279 0.950 . S
C283 C274 1.390 . S
C283 H276 0.950 . S
C283 C280 1.387 . S
C284 C285 1.387 . S
C284 H288 0.950 . S
C284 C293 1.390 . S
C285 C284 1.387 . S
C285 C287 1.387 . S
H286 C293 0.950 . S
C287 C285 1.387 . S
C287 C289 1.390 . S
C287 H291 0.950 . S
H288 C284 0.950 . S
C289 C287 1.390 . S
C289 C290 1.387 . S
C289 H292 0.950 . S
C290 C289 1.387 . S
C290 C293 1.387 . S
H291 C287 0.950 . S
H292 C289 0.950 . S
C293 C284 1.390 . S
C293 H286 0.950 . S
C293 C290 1.387 . S
C294 C295 1.387 . S
C294 H298 0.950 . S
C294 C303 1.390 . S
C295 C294 1.387 . S
C295 C297 1.387 . S
H296 C303 0.950 . S
C297 C295 1.387 . S
C297 C299 1.390 . S
C297 H301 0.950 . S
H298 C294 0.950 . S
C299 C297 1.390 . S
C299 C300 1.387 . S
C299 H302 0.950 . S
C300 C299 1.387 . S
C300 C303 1.387 . S
H301 C297 0.950 . S
H302 C299 0.950 . S
C303 C294 1.390 . S
C303 H296 0.950 . S
C303 C300 1.387 . S
C304 C305 1.387 . S
C304 H308 0.950 . S
C304 C313 1.390 1_556 S
C305 C304 1.387 . S
C305 C307 1.387 . S
H306 C313 0.950 . S
C307 C305 1.387 . S
C307 C309 1.390 1_556 S
C307 H311 0.950 . S
H308 C304 0.950 . S
C309 C307 1.390 1_554 S
C309 C310 1.387 . S
C309 H312 0.950 . S
C310 C309 1.387 . S
C310 C313 1.387 . S
H311 C307 0.950 . S
H312 C309 0.950 . S
C313 C304 1.390 1_554 S
C313 H306 0.950 . S
C313 C310 1.387 . S
C314 C315 1.387 . S
C314 H318 0.950 . S
C314 C323 1.390 1_556 S
C315 C314 1.387 . S
C315 C317 1.387 . S
H316 C323 0.950 . S
C317 C315 1.387 . S
C317 C319 1.390 1_556 S
C317 H321 0.950 . S
H318 C314 0.950 . S
C319 C317 1.390 1_554 S
C319 C320 1.387 . S
C319 H322 0.950 . S
C320 C319 1.387 . S
C320 C323 1.387 . S
H321 C317 0.950 . S
H322 C319 0.950 . S
C323 C314 1.390 1_554 S
C323 H316 0.950 . S
C323 C320 1.387 . S
C324 C325 1.387 . S
C324 H328 0.950 . S
C324 C333 1.390 1_556 S
C325 C324 1.387 . S
C325 C327 1.387 . S
H326 C333 0.950 . S
C327 C325 1.387 . S
C327 C329 1.390 1_556 S
C327 H331 0.950 . S
H328 C324 0.950 . S
C329 C327 1.390 1_554 S
C329 C330 1.387 . S
C329 H332 0.950 . S
C330 C329 1.387 . S
C330 C333 1.387 . S
H331 C327 0.950 . S
H332 C329 0.950 . S
C333 C324 1.390 1_554 S
C333 H326 0.950 . S
C333 C330 1.387 . S
C334 C335 1.387 . S
C334 H338 0.950 . S
C334 C343 1.390 1_554 S
C335 C334 1.387 . S
C335 C337 1.387 . S
H336 C343 0.950 . S
C337 C335 1.387 . S
C337 C339 1.390 1_554 S
C337 H341 0.950 . S
H338 C334 0.950 . S
C339 C337 1.390 1_556 S
C339 C340 1.387 . S
C339 H342 0.950 . S
C340 C339 1.387 . S
C340 C343 1.387 . S
H341 C337 0.950 . S
H342 C339 0.950 . S
C343 C334 1.390 1_556 S
C343 H336 0.950 . S
C343 C340 1.387 . S
C344 C345 1.387 . S
C344 H348 0.950 . S
C344 C353 1.390 . S
C345 C344 1.387 . S
C345 C347 1.387 . S
H346 C353 0.950 . S
C347 C345 1.387 . S
C347 C349 1.390 . S
C347 H351 0.950 . S
H348 C344 0.950 . S
C349 C347 1.390 . S
C349 C350 1.387 . S
C349 H352 0.950 . S
C350 C349 1.387 . S
C350 C353 1.387 . S
H351 C347 0.950 . S
H352 C349 0.950 . S
C353 C344 1.390 . S
C353 H346 0.950 . S
C353 C350 1.387 . S
C354 C355 1.387 . S
C354 H358 0.950 . S
C354 C363 1.390 . S
C355 C354 1.387 . S
C355 C357 1.387 . S
H356 C363 0.950 . S
C357 C355 1.387 . S
C357 C359 1.390 . S
C357 H361 0.950 . S
H358 C354 0.950 . S
C359 C357 1.390 . S
C359 C360 1.387 . S
C359 H362 0.950 . S
C360 C359 1.387 . S
C360 C363 1.387 . S
H361 C357 0.950 . S
H362 C359 0.950 . S
C363 C354 1.390 . S
C363 H356 0.950 . S
C363 C360 1.387 . S
C364 C365 1.387 . S
C364 H368 0.950 . S
C364 C373 1.390 . S
C365 C364 1.387 . S
C365 C367 1.387 . S
H366 C373 0.950 . S
C367 C365 1.387 . S
C367 C369 1.390 . S
C367 H371 0.950 . S
H368 C364 0.950 . S
C369 C367 1.390 . S
C369 C370 1.387 . S
C369 H372 0.950 . S
C370 C369 1.387 . S
C370 C373 1.387 . S
H371 C367 0.950 . S
H372 C369 0.950 . S
C373 C364 1.390 . S
C373 H366 0.950 . S
C373 C370 1.387 . S
C374 C375 1.387 . S
C374 H378 0.950 . S
C374 C383 1.390 . S
C375 C374 1.387 . S
C375 C377 1.387 . S
H376 C383 0.950 . S
C377 C375 1.387 . S
C377 C379 1.390 . S
C377 H381 0.950 . S
H378 C374 0.950 . S
C379 C377 1.390 . S
C379 C380 1.387 . S
C379 H382 0.950 . S
C380 C379 1.387 . S
C380 C383 1.387 . S
H381 C377 0.950 . S
H382 C379 0.950 . S
C383 C374 1.390 . S
C383 H376 0.950 . S
C383 C380 1.387 . S
C384 C385 1.387 . S
C384 H388 0.950 . S
C384 C393 1.390 . S
C385 C384 1.387 . S
C385 C387 1.387 . S
H386 C393 0.950 . S
C387 C385 1.387 . S
C387 C389 1.390 . S
C387 H391 0.950 . S
H388 C384 0.950 . S
C389 C387 1.390 . S
C389 C390 1.387 . S
C389 H392 0.950 . S
C390 C389 1.387 . S
C390 C393 1.387 . S
H391 C387 0.950 . S
H392 C389 0.950 . S
C393 C384 1.390 . S
C393 H386 0.950 . S
C393 C390 1.387 . S
C394 C395 1.387 . S
C394 H398 0.950 . S
C394 C403 1.390 . S
C395 C394 1.387 . S
C395 C397 1.387 . S
H396 C403 0.950 . S
C397 C395 1.387 . S
C397 C399 1.390 . S
C397 H401 0.950 . S
H398 C394 0.950 . S
C399 C397 1.390 . S
C399 C400 1.387 . S
C399 H402 0.950 . S
C400 C399 1.387 . S
C400 C403 1.387 . S
H401 C397 0.950 . S
H402 C399 0.950 . S
C403 C394 1.390 . S
C403 H396 0.950 . S
C403 C400 1.387 . S
C404 C405 1.387 . S
C404 H408 0.950 . S
C404 C413 1.390 . S
C405 C404 1.387 . S
C405 C407 1.387 . S
H406 C413 0.950 . S
C407 C405 1.387 . S
C407 C409 1.390 . S
C407 H411 0.950 . S
H408 C404 0.950 . S
C409 C407 1.390 . S
C409 C410 1.387 . S
C409 H412 0.950 . S
C410 C409 1.387 . S
C410 C413 1.387 . S
H411 C407 0.950 . S
H412 C409 0.950 . S
C413 C404 1.390 . S
C413 H406 0.950 . S
C413 C410 1.387 . S
C414 C415 1.387 . S
C414 H418 0.950 . S
C414 C423 1.390 . S
C415 C414 1.387 . S
C415 C417 1.387 . S
H416 C423 0.950 . S
C417 C415 1.387 . S
C417 C419 1.390 . S
C417 H421 0.950 . S
H418 C414 0.950 . S
C419 C417 1.390 . S
C419 C420 1.387 . S
C419 H422 0.950 . S
C420 C419 1.387 . S
C420 C423 1.387 . S
H421 C417 0.950 . S
H422 C419 0.950 . S
C423 C414 1.390 . S
C423 H416 0.950 . S
C423 C420 1.387 . S
C424 C425 1.387 . S
C424 H428 0.950 . S
C424 C433 1.390 . S
C425 C424 1.387 . S
C425 C427 1.387 . S
H426 C433 0.950 . S
C427 C425 1.387 . S
C427 C429 1.390 . S
C427 H431 0.950 . S
H428 C424 0.950 . S
C429 C427 1.390 . S
C429 C430 1.387 . S
C429 H432 0.950 . S
C430 C429 1.387 . S
C430 C433 1.387 . S
H431 C427 0.950 . S
H432 C429 0.950 . S
C433 C424 1.390 . S
C433 H426 0.950 . S
C433 C430 1.387 . S
C434 C435 1.387 . S
C434 H438 0.950 . S
C434 C443 1.390 . S
C435 C434 1.387 . S
C435 C437 1.387 . S
H436 C443 0.950 . S
C437 C435 1.387 . S
C437 C439 1.390 . S
C437 H441 0.950 . S
H438 C434 0.950 . S
C439 C437 1.390 . S
C439 C440 1.387 . S
C439 H442 0.950 . S
C440 C439 1.387 . S
C440 C443 1.387 . S
H441 C437 0.950 . S
H442 C439 0.950 . S
C443 C434 1.390 . S
C443 H436 0.950 . S
C443 C440 1.387 . S
C444 C445 1.387 . S
C444 H448 0.950 . S
C444 C453 1.390 . S
C445 C444 1.387 . S
C445 C447 1.387 . S
H446 C453 0.950 . S
C447 C445 1.387 . S
C447 C449 1.390 . S
C447 H451 0.950 . S
H448 C444 0.950 . S
C449 C447 1.390 . S
C449 C450 1.387 . S
C449 H452 0.950 . S
C450 C449 1.387 . S
C450 C453 1.387 . S
H451 C447 0.950 . S
H452 C449 0.950 . S
C453 C444 1.390 . S
C453 H446 0.950 . S
C453 C450 1.387 . S
C454 C455 1.387 . S
C454 H458 0.950 . S
C454 C463 1.390 . S
C455 C454 1.387 . S
C455 C457 1.387 . S
H456 C463 0.950 . S
C457 C455 1.387 . S
C457 C459 1.390 . S
C457 H461 0.950 . S
H458 C454 0.950 . S
C459 C457 1.390 . S
C459 C460 1.387 . S
C459 H462 0.950 . S
C460 C459 1.387 . S
C460 C463 1.387 . S
H461 C457 0.950 . S
H462 C459 0.950 . S
C463 C454 1.390 . S
C463 H456 0.950 . S
C463 C460 1.387 . S
C464 C465 1.387 . S
C464 H468 0.950 . S
C464 C473 1.390 1_545 S
C465 C464 1.387 . S
C465 C467 1.387 . S
H466 C473 0.950 . S
C467 C465 1.387 . S
C467 C469 1.390 1_545 S
C467 H471 0.950 . S
H468 C464 0.950 . S
C469 C467 1.390 1_565 S
C469 C470 1.387 . S
C469 H472 0.950 . S
C470 C469 1.387 . S
C470 C473 1.387 . S
H471 C467 0.950 . S
H472 C469 0.950 . S
C473 C464 1.390 1_565 S
C473 H466 0.950 . S
C473 C470 1.387 . S
C474 C475 1.387 . S
C474 H478 0.950 . S
C474 C483 1.390 1_655 S
C475 C474 1.387 . S
C475 C477 1.387 . S
H476 C483 0.950 . S
C477 C475 1.387 . S
C477 C479 1.390 1_655 S
C477 H481 0.950 . S
H478 C474 0.950 . S
C479 C477 1.390 1_455 S
C479 C480 1.387 . S
C479 H482 0.950 . S
C480 C479 1.387 . S
C480 C483 1.387 . S
H481 C477 0.950 . S
H482 C479 0.950 . S
C483 C474 1.390 1_455 S
C483 H476 0.950 . S
C483 C480 1.387 . S
C484 C485 1.387 . S
C484 H488 0.950 . S
C484 C493 1.390 1_545 S
C485 C484 1.387 . S
C485 C487 1.387 . S
H486 C493 0.950 . S
C487 C485 1.387 . S
C487 C489 1.390 1_545 S
C487 H491 0.950 . S
H488 C484 0.950 . S
C489 C487 1.390 1_565 S
C489 C490 1.387 . S
C489 H492 0.950 . S
C490 C489 1.387 . S
C490 C493 1.387 . S
H491 C487 0.950 . S
H492 C489 0.950 . S
C493 C484 1.390 1_565 S
C493 H486 0.950 . S
C493 C490 1.387 . S
C494 C495 1.387 . S
C494 H498 0.950 . S
C494 C503 1.390 1_455 S
C495 C494 1.387 . S
C495 C497 1.387 . S
H496 C503 0.950 . S
C497 C495 1.387 . S
C497 C499 1.390 1_455 S
C497 H501 0.950 . S
H498 C494 0.950 . S
C499 C497 1.390 1_655 S
C499 C500 1.387 . S
C499 H502 0.950 . S
C500 C499 1.387 . S
C500 C503 1.387 . S
H501 C497 0.950 . S
H502 C499 0.950 . S
C503 C494 1.390 1_655 S
C503 H496 0.950 . S
C503 C500 1.387 . S
C504 C505 1.387 . S
C504 H508 0.950 . S
C504 C513 1.390 1_545 S
C505 C504 1.387 . S
C505 C507 1.387 . S
H506 C513 0.950 . S
C507 C505 1.387 . S
C507 C509 1.390 1_545 S
C507 H511 0.950 . S
H508 C504 0.950 . S
C509 C507 1.390 1_565 S
C509 C510 1.387 . S
C509 H512 0.950 . S
C510 C509 1.387 . S
C510 C513 1.387 . S
H511 C507 0.950 . S
H512 C509 0.950 . S
C513 C504 1.390 1_565 S
C513 H506 0.950 . S
C513 C510 1.387 . S
C514 C515 1.387 . S
C514 H518 0.950 . S
C514 C523 1.390 1_655 S
C515 C514 1.387 . S
C515 C517 1.387 . S
H516 C523 0.950 . S
C517 C515 1.387 . S
C517 C519 1.390 1_655 S
C517 H521 0.950 . S
H518 C514 0.950 . S
C519 C517 1.390 1_455 S
C519 C520 1.387 . S
C519 H522 0.950 . S
C520 C519 1.387 . S
C520 C523 1.387 . S
H521 C517 0.950 . S
H522 C519 0.950 . S
C523 C514 1.390 1_455 S
C523 H516 0.950 . S
C523 C520 1.387 . S
C524 C525 1.387 . S
C524 H528 0.950 . S
C524 C533 1.390 1_565 S
C525 C524 1.387 . S
C525 C527 1.387 . S
H526 C533 0.950 . S
C527 C525 1.387 . S
C527 C529 1.390 1_565 S
C527 H531 0.950 . S
H528 C524 0.950 . S
C529 C527 1.390 1_545 S
C529 C530 1.387 . S
C529 H532 0.950 . S
C530 C529 1.387 . S
C530 C533 1.387 . S
H531 C527 0.950 . S
H532 C529 0.950 . S
C533 C524 1.390 1_545 S
C533 H526 0.950 . S
C533 C530 1.387 . S
C534 C535 1.387 . S
C534 H538 0.950 . S
C534 C543 1.390 1_455 S
C535 C534 1.387 . S
C535 C537 1.387 . S
H536 C543 0.950 . S
C537 C535 1.387 . S
C537 C539 1.390 1_455 S
C537 H541 0.950 . S
H538 C534 0.950 . S
C539 C537 1.390 1_655 S
C539 C540 1.387 . S
C539 H542 0.950 . S
C540 C539 1.387 . S
C540 C543 1.387 . S
H541 C537 0.950 . S
H542 C539 0.950 . S
C543 C534 1.390 1_655 S
C543 H536 0.950 . S
C543 C540 1.387 . S
C225 C81 1.443 . S
C230 C11 1.442 . S
C235 C95 1.442 . S
C240 C25 1.443 . S
C245 C39 1.442 . S
C250 C109 1.442 . S
C255 C53 1.442 . S
C260 C67 1.443 . S
C265 C193 1.442 . S
C270 C123 1.442 . S
C275 C207 1.442 . S
C280 C137 1.443 . S
C285 C151 1.443 . S
C290 C221 1.442 . S
C295 C165 1.443 . S
C300 C179 1.442 . S
C305 C149 1.540 . S
C310 C9 1.540 . S
C315 C163 1.540 . S
C320 C23 1.540 . S
C325 C121 1.541 . S
C330 C37 1.541 . S
C335 C51 1.540 . S
C340 C135 1.540 . S
C345 C205 1.540 . S
C350 C65 1.540 . S
C355 C219 1.541 . S
C360 C79 1.541 . S
C365 C93 1.540 . S
C370 C177 1.540 . S
C375 C191 1.540 . S
C380 C107 1.541 . S
C385 C61 1.822 . S
C390 C5 1.822 . S
C395 C19 1.822 . S
C400 C75 1.822 . S
C405 C33 1.823 . S
C410 C89 1.823 . S
C415 C103 1.822 . S
C420 C47 1.822 . S
C425 C112 1.092 . S
C430 C168 1.092 . S
C435 C182 1.096 . S
C440 C126 1.096 . S
C445 C140 1.096 . S
C450 C196 1.096 . S
C455 C210 1.096 . S
C460 C154 1.096 . S
C465 C159 1.822 . S
C470 C187 1.822 . S
C475 C117 1.822 . S
C480 C201 1.822 . S
C485 C215 1.822 . S
C490 C131 1.822 . S
C495 C145 1.823 . S
C500 C173 1.823 . S
C505 C70 1.092 . S
C510 C42 1.092 . S
C515 C84 1.096 . S
C520 C0 1.096 . S
C525 C98 1.092 . S
C530 C14 1.092 . S
C535 C56 1.092 . S
C540 C28 1.092 . S
