# Generated by pormake.
# Topology wiv, (6)-cn, num edge types: 1
# Building blocks:
#     Node 0, Type 0, BuildingBlock: PAMTOO_clean_sbu_0, # of connection points: 6
#     Node 1, Type 0, BuildingBlock: PAMTOO_clean_sbu_0, # of connection points: 6
#     Node 2, Type 0, BuildingBlock: PAMTOO_clean_sbu_0, # of connection points: 6
#     Node 3, Type 0, BuildingBlock: PAMTOO_clean_sbu_0, # of connection points: 6
#     Node 4, Type 0, BuildingBlock: PAMTOO_clean_sbu_0, # of connection points: 6
#     Node 5, Type 0, BuildingBlock: PAMTOO_clean_sbu_0, # of connection points: 6
#     Node 6, Type 0, BuildingBlock: PAMTOO_clean_sbu_0, # of connection points: 6
#     Node 7, Type 0, BuildingBlock: PAMTOO_clean_sbu_0, # of connection points: 6
#     Node 8, Type 0, BuildingBlock: PAMTOO_clean_sbu_0, # of connection points: 6
#     Node 9, Type 0, BuildingBlock: PAMTOO_clean_sbu_0, # of connection points: 6
#     Node 10, Type 0, BuildingBlock: PAMTOO_clean_sbu_0, # of connection points: 6
#     Node 11, Type 0, BuildingBlock: PAMTOO_clean_sbu_0, # of connection points: 6
#     Node 12, Type 0, BuildingBlock: PAMTOO_clean_sbu_0, # of connection points: 6
#     Node 13, Type 0, BuildingBlock: PAMTOO_clean_sbu_0, # of connection points: 6
#     Node 14, Type 0, BuildingBlock: PAMTOO_clean_sbu_0, # of connection points: 6
#     Node 15, Type 0, BuildingBlock: PAMTOO_clean_sbu_0, # of connection points: 6
#     Edge 16, Type (0, 0), BuildingBlock: XIVTED_clean_linker_0, # of connection points: 2
#     Edge 17, Type (0, 0), BuildingBlock: XIVTED_clean_linker_0, # of connection points: 2
#     Edge 18, Type (0, 0), BuildingBlock: XIVTED_clean_linker_0, # of connection points: 2
#     Edge 19, Type (0, 0), BuildingBlock: XIVTED_clean_linker_0, # of connection points: 2
#     Edge 20, Type (0, 0), BuildingBlock: XIVTED_clean_linker_0, # of connection points: 2
#     Edge 21, Type (0, 0), BuildingBlock: XIVTED_clean_linker_0, # of connection points: 2
#     Edge 22, Type (0, 0), BuildingBlock: XIVTED_clean_linker_0, # of connection points: 2
#     Edge 23, Type (0, 0), BuildingBlock: XIVTED_clean_linker_0, # of connection points: 2
#     Edge 24, Type (0, 0), BuildingBlock: XIVTED_clean_linker_0, # of connection points: 2
#     Edge 25, Type (0, 0), BuildingBlock: XIVTED_clean_linker_0, # of connection points: 2
#     Edge 26, Type (0, 0), BuildingBlock: XIVTED_clean_linker_0, # of connection points: 2
#     Edge 27, Type (0, 0), BuildingBlock: XIVTED_clean_linker_0, # of connection points: 2
#     Edge 28, Type (0, 0), BuildingBlock: XIVTED_clean_linker_0, # of connection points: 2
#     Edge 29, Type (0, 0), BuildingBlock: XIVTED_clean_linker_0, # of connection points: 2
#     Edge 30, Type (0, 0), BuildingBlock: XIVTED_clean_linker_0, # of connection points: 2
#     Edge 31, Type (0, 0), BuildingBlock: XIVTED_clean_linker_0, # of connection points: 2
#     Edge 32, Type (0, 0), BuildingBlock: XIVTED_clean_linker_0, # of connection points: 2
#     Edge 33, Type (0, 0), BuildingBlock: XIVTED_clean_linker_0, # of connection points: 2
#     Edge 34, Type (0, 0), BuildingBlock: XIVTED_clean_linker_0, # of connection points: 2
#     Edge 35, Type (0, 0), BuildingBlock: XIVTED_clean_linker_0, # of connection points: 2
#     Edge 36, Type (0, 0), BuildingBlock: XIVTED_clean_linker_0, # of connection points: 2
#     Edge 37, Type (0, 0), BuildingBlock: XIVTED_clean_linker_0, # of connection points: 2
#     Edge 38, Type (0, 0), BuildingBlock: XIVTED_clean_linker_0, # of connection points: 2
#     Edge 39, Type (0, 0), BuildingBlock: XIVTED_clean_linker_0, # of connection points: 2
#     Edge 40, Type (0, 0), BuildingBlock: XIVTED_clean_linker_0, # of connection points: 2
#     Edge 41, Type (0, 0), BuildingBlock: XIVTED_clean_linker_0, # of connection points: 2
#     Edge 42, Type (0, 0), BuildingBlock: XIVTED_clean_linker_0, # of connection points: 2
#     Edge 43, Type (0, 0), BuildingBlock: XIVTED_clean_linker_0, # of connection points: 2
#     Edge 44, Type (0, 0), BuildingBlock: XIVTED_clean_linker_0, # of connection points: 2
#     Edge 45, Type (0, 0), BuildingBlock: XIVTED_clean_linker_0, # of connection points: 2
#     Edge 46, Type (0, 0), BuildingBlock: XIVTED_clean_linker_0, # of connection points: 2
#     Edge 47, Type (0, 0), BuildingBlock: XIVTED_clean_linker_0, # of connection points: 2
#     Edge 48, Type (0, 0), BuildingBlock: XIVTED_clean_linker_0, # of connection points: 2
#     Edge 49, Type (0, 0), BuildingBlock: XIVTED_clean_linker_0, # of connection points: 2
#     Edge 50, Type (0, 0), BuildingBlock: XIVTED_clean_linker_0, # of connection points: 2
#     Edge 51, Type (0, 0), BuildingBlock: XIVTED_clean_linker_0, # of connection points: 2
#     Edge 52, Type (0, 0), BuildingBlock: XIVTED_clean_linker_0, # of connection points: 2
#     Edge 53, Type (0, 0), BuildingBlock: XIVTED_clean_linker_0, # of connection points: 2
#     Edge 54, Type (0, 0), BuildingBlock: XIVTED_clean_linker_0, # of connection points: 2
#     Edge 55, Type (0, 0), BuildingBlock: XIVTED_clean_linker_0, # of connection points: 2
#     Edge 56, Type (0, 0), BuildingBlock: XIVTED_clean_linker_0, # of connection points: 2
#     Edge 57, Type (0, 0), BuildingBlock: XIVTED_clean_linker_0, # of connection points: 2
#     Edge 58, Type (0, 0), BuildingBlock: XIVTED_clean_linker_0, # of connection points: 2
#     Edge 59, Type (0, 0), BuildingBlock: XIVTED_clean_linker_0, # of connection points: 2
#     Edge 60, Type (0, 0), BuildingBlock: XIVTED_clean_linker_0, # of connection points: 2
#     Edge 61, Type (0, 0), BuildingBlock: XIVTED_clean_linker_0, # of connection points: 2
#     Edge 62, Type (0, 0), BuildingBlock: XIVTED_clean_linker_0, # of connection points: 2
#     Edge 63, Type (0, 0), BuildingBlock: XIVTED_clean_linker_0, # of connection points: 2
# Relax obj value: 0.133
# Max RMSD: 0.187
# Mean RMSD: 0.187
data_MOF--net-wiv--node1-PAMTOO_clean_sbu_0--edge1-XIVTED_clean_linker_0
_symmetry_space_group_name_H-M    P1
_symmetry_Int_Tables_number       1
_symmetry_cell_setting            triclinic
loop_
_symmetry_equiv_pos_as_xyz
'x, y, z'
_cell_length_a     51.627189
_cell_length_b     51.569083
_cell_length_c     24.86703
_cell_angle_alpha  90.021209
_cell_angle_beta   90.177111
_cell_angle_gamma 89.882936
loop_
_atom_site_label
_atom_site_type_symbol
_atom_site_fract_x
_atom_site_fract_y
_atom_site_fract_z
_atom_type_partial_charge
Dy0 Dy 0.37016 0.10668 0.07757 0.0
Dy1 Dy 0.32953 0.11166 0.18015 0.0
C2 C 0.3501 0.16147 0.1217 0.0
O3 O 0.39654 0.10454 0.14816 0.0
O4 O 0.3691 0.12254 0.21161 0.0
O5 O 0.39785 0.12161 1.01996 0.0
O6 O 0.38237 0.08298 1.01078 0.0
O7 O 0.35249 0.07624 0.19466 0.0
O8 O 0.36189 0.06617 0.10735 0.0
O9 O 0.30652 0.09708 0.10876 0.0
O10 O 0.33148 0.11757 0.04679 0.0
O11 O 0.30207 0.0943 0.23495 0.0
O12 O 0.3113 0.1351 0.24131 0.0
C13 C 0.39228 0.11474 0.19586 0.0
O14 O 0.37023 0.14841 0.10366 0.0
O15 O 0.32916 0.14962 0.13829 0.0
C16 C 0.38912 0.10647 0.93166 0.0
C17 C 0.37353 0.11063 0.82284 0.0
C18 C 0.35831 0.1214 0.86411 0.0
C19 C 0.36608 0.11939 0.91794 0.0
C20 C 0.40461 0.09613 0.89073 0.0
C21 C 0.39697 0.09828 0.83681 0.0
C22 C 0.39567 0.10148 0.98847 0.0
C23 C 0.36039 0.05973 0.15839 0.0
C24 C 0.30985 0.10624 0.05986 0.0
C25 C 0.30617 0.11224 0.32198 0.0
C26 C 0.31948 0.11077 0.43241 0.0
C27 C 0.33725 0.10264 0.39292 0.0
C28 C 0.33069 0.10346 0.33836 0.0
C29 C 0.28808 0.11971 0.361 0.0
C30 C 0.29464 0.11894 0.41577 0.0
C31 C 0.30031 0.11525 0.26427 0.0
H32 H 0.34033 0.13133 0.85484 0.0
H33 H 0.35387 0.12748 0.949 0.0
H34 H 0.4223 0.08581 0.90055 0.0
H35 H 0.40902 0.0895 0.8062 0.0
H36 H 0.35634 0.09575 0.40409 0.0
H37 H 0.34496 0.09764 0.30881 0.0
H38 H 0.2691 0.12667 0.34908 0.0
H39 H 0.28052 0.12552 0.44487 0.0
Dy40 Dy 0.09222 0.65555 0.88741 0.0
Dy41 Dy 0.09761 0.61437 0.99109 0.0
C42 C 0.04536 0.62565 0.93162 0.0
O43 O 0.10073 0.68085 0.95873 0.0
O44 O 0.08537 0.65282 1.02278 0.0
O45 O 0.06686 0.67013 0.82529 0.0
O46 O 0.106 0.68482 0.83173 0.0
O47 O 0.13708 0.63121 0.97727 0.0
O48 O 0.13295 0.64231 0.88803 0.0
O49 O 0.10544 0.58858 0.92107 0.0
O50 O 0.09323 0.6158 0.85101 0.0
O51 O 0.11918 0.59072 0.04759 0.0
O52 O 0.0779 0.59616 0.05755 0.0
C53 C 0.09341 0.67588 1.00836 0.0
O54 O 0.05453 0.64919 0.92832 0.0
O55 O 0.06072 0.60676 0.94663 0.0
C56 C 0.08921 0.67753 0.74429 0.0
C57 C 0.09635 0.66594 0.63388 0.0
C58 C 0.09166 0.64609 0.67143 0.0
C59 C 0.08822 0.6518 0.72587 0.0
C60 C 0.09395 0.69746 0.70726 0.0
C61 C 0.09748 0.69175 0.65255 0.0
C62 C 0.08519 0.68334 0.80191 0.0
C63 C 0.14721 0.63731 0.93044 0.0
C64 C 0.10074 0.59309 0.86979 0.0
C65 C 0.10311 0.59531 0.13615 0.0
C66 C 0.10589 0.61131 0.24487 0.0
C67 C 0.11341 0.62815 0.20323 0.0
C68 C 0.11213 0.62018 0.14944 0.0
C69 C 0.09593 0.57833 0.17744 0.0
C70 C 0.09741 0.58618 0.2313 0.0
C71 C 0.09933 0.58782 0.07943 0.0
H72 H 0.09016 0.62606 0.65873 0.0
H73 H 0.08451 0.63605 0.75353 0.0
H74 H 0.09489 0.71744 0.72062 0.0
H75 H 0.10133 0.70754 0.62503 0.0
H76 H 0.12031 0.6475 0.2122 0.0
H77 H 0.11781 0.63357 0.11808 0.0
H78 H 0.0887 0.55915 0.16797 0.0
H79 H 0.09119 0.57282 0.26224 0.0
Dy80 Dy 0.62529 0.89537 0.06762 0.0
Dy81 Dy 0.66539 0.90363 0.17095 0.0
C82 C 0.65079 0.8476 0.12932 0.0
O83 O 0.60205 0.88244 0.13769 0.0
O84 O 0.62511 0.90309 0.20505 0.0
O85 O 0.60736 0.87146 1.00615 0.0
O86 O 0.60059 0.91281 1.00736 0.0
O87 O 0.65767 0.94136 0.13049 0.0
O88 O 0.61584 0.93244 0.11024 0.0
O89 O 0.69107 0.89729 0.09901 0.0
O90 O 0.66189 0.91132 0.0356 0.0
O91 O 0.67815 0.929 0.23473 0.0
O92 O 0.69572 0.89112 0.22551 0.0
C93 C 0.60448 0.89057 0.18762 0.0
O94 O 0.64631 0.85781 0.08167 0.0
O95 O 0.65369 0.86222 0.17198 0.0
C96 C 0.60559 0.89292 0.92227 0.0
C97 C 0.62101 0.89398 0.81293 0.0
C98 C 0.63319 0.90994 0.85136 0.0
C99 C 0.62545 0.90953 0.9052 0.0
C100 C 0.59327 0.87704 0.88427 0.0
C101 C 0.60081 0.87762 0.83014 0.0
C102 C 0.59843 0.89142 0.97975 0.0
C103 C 0.63374 0.94917 0.12413 0.0
C104 C 0.68542 0.90455 0.04951 0.0
C105 C 0.6885 0.90651 0.31389 0.0
C106 C 0.67713 0.90107 0.42455 0.0
C107 C 0.66046 0.8907 0.38516 0.0
C108 C 0.66606 0.89344 0.33041 0.0
C109 C 0.70551 0.91635 0.35286 0.0
C110 C 0.69991 0.91366 0.40769 0.0
C111 C 0.69315 0.91147 0.25634 0.0
H112 H 0.64909 0.92247 0.84018 0.0
H113 H 0.63527 0.92202 0.9337 0.0
H114 H 0.57787 0.8641 0.8965 0.0
H115 H 0.59066 0.86535 0.80176 0.0
H116 H 0.64262 0.88118 0.39655 0.0
H117 H 0.65256 0.88589 0.3009 0.0
H118 H 0.7229 0.92654 0.34089 0.0
H119 H 0.71334 0.92157 0.43689 0.0
Dy120 Dy 0.90069 0.33347 0.86651 0.0
Dy121 Dy 0.89836 0.37424 0.96961 0.0
C122 C 0.94998 0.35956 0.91073 0.0
O123 O 0.89189 0.30848 0.93881 0.0
O124 O 0.90974 0.33583 1.00143 0.0
O125 O 0.92463 0.31613 0.80537 0.0
O126 O 0.88395 0.30634 0.80942 0.0
O127 O 0.85872 0.35676 0.95923 0.0
O128 O 0.86091 0.34944 0.86864 0.0
O129 O 0.88735 0.39876 0.90002 0.0
O130 O 0.90354 0.3736 0.83094 0.0
O131 O 0.87768 0.39837 0.02637 0.0
O132 O 0.9191 0.39325 0.03415 0.0
C133 C 0.90008 0.31327 0.98816 0.0
O134 O 0.93899 0.33686 0.90642 0.0
O135 O 0.93598 0.37954 0.92577 0.0
C136 C 0.9025 0.31158 0.7231 0.0
C137 C 0.89943 0.32379 0.61234 0.0
C138 C 0.90504 0.3431 0.65054 0.0
C139 C 0.90647 0.33709 0.70523 0.0
C140 C 0.89649 0.29225 0.68535 0.0
C141 C 0.89486 0.29831 0.6304 0.0
C142 C 0.90509 0.30527 0.78083 0.0
C143 C 0.84734 0.35324 0.91231 0.0
C144 C 0.8936 0.39547 0.84925 0.0
C145 C 0.89519 0.39493 0.11426 0.0
C146 C 0.89453 0.3795 0.22354 0.0
C147 C 0.88242 0.36428 0.18372 0.0
C148 C 0.88267 0.37198 0.12972 0.0
C149 C 0.90677 0.41046 0.15376 0.0
C150 C 0.90634 0.40293 0.20785 0.0
C151 C 0.89801 0.40169 0.05692 0.0
H152 H 0.90823 0.36298 0.63817 0.0
H153 H 0.91096 0.35239 0.73354 0.0
H154 H 0.89332 0.27246 0.69828 0.0
H155 H 0.89061 0.28298 0.60196 0.0
H156 H 0.87341 0.346 0.1939 0.0
H157 H 0.87364 0.35966 0.0998 0.0
H158 H 0.91654 0.42824 0.14267 0.0
H159 H 0.91542 0.41544 0.23732 0.0
Dy160 Dy 0.38155 0.40245 0.23608 0.0
Dy161 Dy 0.34115 0.40839 0.13303 0.0
C162 C 0.35899 0.35371 0.1754 0.0
O163 O 0.4058 0.39164 0.16541 0.0
O164 O 0.38122 0.41099 0.0987 0.0
O165 O 0.40362 0.37952 0.29302 0.0
O166 O 0.40217 0.42125 0.30094 0.0
O167 O 0.34705 0.44659 0.17279 0.0
O168 O 0.38927 0.43995 0.19366 0.0
O169 O 0.31589 0.40027 0.20479 0.0
O170 O 0.34394 0.41631 0.26809 0.0
O171 O 0.32502 0.43312 0.07149 0.0
O172 O 0.31322 0.39297 0.07607 0.0
C173 C 0.40271 0.39977 0.11558 0.0
O174 O 0.3617 0.36423 0.22324 0.0
O175 O 0.35646 0.36814 0.13242 0.0
C176 C 0.40142 0.3971 0.38083 0.0
C177 C 0.38608 0.39755 0.49005 0.0
C178 C 0.36863 0.38993 0.44938 0.0
C179 C 0.37625 0.38966 0.39537 0.0
C180 C 0.41906 0.40417 0.42112 0.0
C181 C 0.41153 0.40429 0.47518 0.0
C182 C 0.40866 0.39942 0.32372 0.0
C183 C 0.37055 0.45562 0.1787 0.0
C184 C 0.32086 0.40818 0.25418 0.0
C185 C 0.31931 0.41101 0.98957 0.0
C186 C 0.3315 0.40693 0.87901 0.0
C187 C 0.3512 0.40967 0.91778 0.0
C188 C 0.34518 0.41161 0.97237 0.0
C189 C 0.29955 0.40786 0.95129 0.0
C190 C 0.30558 0.40575 0.89644 0.0
C191 C 0.31316 0.4141 0.0472 0.0
H192 H 0.34882 0.38491 0.45896 0.0
H193 H 0.36232 0.3842 0.36477 0.0
H194 H 0.43855 0.41002 0.41069 0.0
H195 H 0.42567 0.4098 0.50531 0.0
H196 H 0.37137 0.41019 0.90597 0.0
H197 H 0.36079 0.41384 1.00113 0.0
H198 H 0.27946 0.4073 0.96372 0.0
H199 H 0.28993 0.40378 0.86762 0.0
Dy200 Dy 0.38493 0.67386 0.92736 0.0
Dy201 Dy 0.39321 0.63197 0.82619 0.0
C202 C 0.44051 0.65073 0.90073 0.0
O203 O 0.39649 0.69798 0.85579 0.0
O204 O 0.38062 0.66977 0.79285 0.0
O205 O 0.39866 0.70322 0.98287 0.0
O206 O 0.35942 0.68895 0.98861 0.0
O207 O 0.3525 0.62864 0.85688 0.0
O208 O 0.34815 0.67112 0.88121 0.0
O209 O 0.39889 0.60703 0.89838 0.0
O210 O 0.37851 0.63379 0.95988 0.0
O211 O 0.37772 0.605 0.76743 0.0
O212 O 0.41741 0.6176 0.76183 0.0
C213 C 0.3888 0.69283 0.80638 0.0
O214 O 0.4241 0.65755 0.93812 0.0
O215 O 0.43306 0.64466 0.8517 0.0
C216 C 0.38152 0.69626 0.06987 0.0
C217 C 0.38502 0.68272 0.18021 0.0
C218 C 0.39375 0.66559 0.13995 0.0
C219 C 0.39196 0.67226 0.08551 0.0
C220 C 0.37339 0.71375 0.10963 0.0
C221 C 0.37515 0.70708 0.16429 0.0
C222 C 0.37774 0.70215 1.0122 0.0
C223 C 0.33787 0.64874 0.86851 0.0
C224 C 0.38868 0.61128 0.94606 0.0
C225 C 0.39471 0.61286 0.68036 0.0
C226 C 0.39123 0.62857 0.57124 0.0
C227 C 0.37987 0.64354 0.6123 0.0
C228 C 0.38155 0.63573 0.66617 0.0
C229 C 0.40584 0.59772 0.63966 0.0
C230 C 0.40405 0.60542 0.58566 0.0
C231 C 0.39842 0.6058 0.73755 0.0
H232 H 0.40194 0.64691 0.15041 0.0
H233 H 0.3984 0.65847 0.05548 0.0
H234 H 0.36519 0.73234 0.0984 0.0
H235 H 0.36806 0.72074 0.1939 0.0
H236 H 0.36955 0.66128 0.60284 0.0
H237 H 0.37279 0.6477 0.69687 0.0
H238 H 0.41632 0.58014 0.64972 0.0
H239 H 0.4133 0.59354 0.55534 0.0
Dy240 Dy 0.62175 0.60418 0.22577 0.0
Dy241 Dy 0.66144 0.59934 0.12214 0.0
C242 C 0.64588 0.6538 0.16896 0.0
O243 O 0.59744 0.61666 0.15672 0.0
O244 O 0.62118 0.59897 0.08717 0.0
O245 O 0.59932 0.62654 0.28276 0.0
O246 O 0.60197 0.58489 0.29084 0.0
O247 O 0.65612 0.56132 0.16207 0.0
O248 O 0.61384 0.5669 0.18195 0.0
O249 O 0.68717 0.60605 0.19414 0.0
O250 O 0.65928 0.58975 0.2571 0.0
O251 O 0.67588 0.575 0.05841 0.0
O252 O 0.69056 0.61407 0.06749 0.0
C253 C 0.60008 0.61018 0.10587 0.0
O254 O 0.64206 0.64252 0.21579 0.0
O255 O 0.64808 0.64007 0.12495 0.0
C256 C 0.603 0.60935 0.3703 0.0
C257 C 0.61899 0.61171 0.47896 0.0
C258 C 0.63696 0.61524 0.43718 0.0
C259 C 0.62902 0.61414 0.38341 0.0
C260 C 0.58494 0.60606 0.41163 0.0
C261 C 0.59283 0.60731 0.46553 0.0
C262 C 0.59508 0.60657 0.31366 0.0
C263 C 0.63287 0.55167 0.16682 0.0
C264 C 0.68243 0.59741 0.24302 0.0
C265 C 0.68383 0.59841 0.97921 0.0
C266 C 0.67276 0.6053 0.86863 0.0
C267 C 0.65267 0.60446 0.90675 0.0
C268 C 0.65816 0.60116 0.96135 0.0
C269 C 0.70401 0.59955 0.94171 0.0
C270 C 0.69855 0.603 0.88689 0.0
C271 C 0.6893 0.59363 0.0366 0.0
H272 H 0.65717 0.61898 0.44603 0.0
H273 H 0.64325 0.61679 0.35197 0.0
H274 H 0.56481 0.60217 0.40225 0.0
H275 H 0.57854 0.60421 0.49665 0.0
H276 H 0.63258 0.60572 0.89438 0.0
H277 H 0.64227 0.60032 0.98957 0.0
H278 H 0.72396 0.59757 0.95475 0.0
H279 H 0.71454 0.60392 0.85889 0.0
Dy280 Dy 0.59981 0.335 0.91648 0.0
Dy281 Dy 0.60352 0.3759 0.81352 0.0
C282 C 0.55132 0.3626 0.87205 0.0
O283 O 0.60876 0.31011 0.84421 0.0
O284 O 0.59137 0.33774 0.78153 0.0
O285 O 0.57563 0.31767 0.97715 0.0
O286 O 0.61632 0.30777 0.97371 0.0
O287 O 0.64271 0.3577 0.82582 0.0
O288 O 0.63955 0.35115 0.91643 0.0
O289 O 0.61349 0.40036 0.88428 0.0
O290 O 0.5957 0.37502 0.95133 0.0
O291 O 0.62523 0.39911 0.75695 0.0
O292 O 0.58368 0.39564 0.74868 0.0
C293 C 0.6007 0.31501 0.79484 0.0
O294 O 0.56166 0.33951 0.87617 0.0
O295 O 0.56574 0.38203 0.85603 0.0
C296 C 0.59753 0.31298 0.05975 0.0
C297 C 0.60084 0.32519 0.17054 0.0
C298 C 0.59573 0.34463 0.13226 0.0
C299 C 0.59417 0.33861 0.07757 0.0
C300 C 0.60299 0.29352 0.09757 0.0
C301 C 0.60472 0.29957 0.15252 0.0
C302 C 0.59508 0.30673 1.00196 0.0
C303 C 0.65361 0.35443 0.87328 0.0
C304 C 0.60575 0.39698 0.93417 0.0
C305 C 0.60784 0.39621 0.66888 0.0
C306 C 0.60803 0.3807 0.5596 0.0
C307 C 0.61851 0.36449 0.59978 0.0
C308 C 0.61847 0.37221 0.6538 0.0
C309 C 0.59793 0.41268 0.62903 0.0
C310 C 0.59812 0.40509 0.57495 0.0
C311 C 0.60513 0.4032 0.72614 0.0
H312 H 0.59309 0.36461 0.14455 0.0
H313 H 0.59013 0.35402 0.04919 0.0
H314 H 0.6057 0.27363 0.08467 0.0
H315 H 0.60856 0.28412 0.18096 0.0
H316 H 0.62603 0.34547 0.58985 0.0
H317 H 0.62618 0.35916 0.68402 0.0
H318 H 0.5896 0.43127 0.63983 0.0
H319 H 0.59035 0.41834 0.5452 0.0
Dy320 Dy 0.87619 0.60251 0.56003 0.0
Dy321 Dy 0.83394 0.60981 0.66109 0.0
C322 C 0.85567 0.65739 0.59986 0.0
O323 O 0.90089 0.59792 0.63304 0.0
O324 O 0.87361 0.61892 0.69229 0.0
O325 O 0.90328 0.61907 0.50314 0.0
O326 O 0.89173 0.57907 0.49551 0.0
O327 O 0.85126 0.57105 0.67237 0.0
O328 O 0.86646 0.56207 0.58741 0.0
O329 O 0.80976 0.59676 0.59069 0.0
O330 O 0.83754 0.61078 0.52498 0.0
O331 O 0.80546 0.59583 0.71788 0.0
O332 O 0.81872 0.63554 0.72195 0.0
C333 C 0.89626 0.6088 0.67993 0.0
O334 O 0.87663 0.64393 0.58859 0.0
O335 O 0.83403 0.64556 0.61167 0.0
C336 C 0.89718 0.60226 0.41493 0.0
C337 C 0.88254 0.60523 0.30487 0.0
C338 C 0.86861 0.61885 0.34461 0.0
C339 C 0.8759 0.61743 0.39891 0.0
C340 C 0.91141 0.58902 0.37558 0.0
C341 C 0.90428 0.59056 0.3212 0.0
C342 C 0.90336 0.5985 0.47261 0.0
C343 C 0.85963 0.55472 0.63603 0.0
C344 C 0.81473 0.60251 0.54011 0.0
C345 C 0.81238 0.61404 0.80424 0.0
C346 C 0.82587 0.61116 0.91477 0.0
C347 C 0.84283 0.60178 0.87493 0.0
C348 C 0.83618 0.60327 0.82033 0.0
C349 C 0.79525 0.62315 0.84366 0.0
C350 C 0.80192 0.62175 0.89836 0.0
C351 C 0.80619 0.61708 0.74645 0.0
H352 H 0.8516 0.63009 0.33408 0.0
H353 H 0.86461 0.6278 0.4286 0.0
H354 H 0.92787 0.57714 0.387 0.0
H355 H 0.91583 0.58018 0.29197 0.0
H356 H 0.86156 0.59385 0.88581 0.0
H357 H 0.84983 0.59636 0.79054 0.0
H358 H 0.77683 0.63162 0.83212 0.0
H359 H 0.78824 0.62888 0.92783 0.0
Dy360 Dy 0.60254 0.16805 0.36806 0.0
Dy361 Dy 0.60524 0.127 0.47118 0.0
C362 C 0.55315 0.14006 0.41068 0.0
O363 O 0.61113 0.19236 0.44136 0.0
O364 O 0.59167 0.16507 0.50121 0.0
O365 O 0.5793 0.18551 0.30556 0.0
O366 O 0.61966 0.19597 0.31345 0.0
O367 O 0.64472 0.1444 0.45915 0.0
O368 O 0.64194 0.15093 0.36855 0.0
O369 O 0.612 0.10081 0.40153 0.0
O370 O 0.60052 0.1283 0.33147 0.0
O371 O 0.62679 0.10373 0.52842 0.0
O372 O 0.58541 0.10864 0.53729 0.0
C373 C 0.60176 0.1876 0.48959 0.0
O374 O 0.56316 0.16309 0.40318 0.0
O375 O 0.56772 0.12087 0.42778 0.0
C376 C 0.60258 0.19128 0.2255 0.0
C377 C 0.6062 0.17957 0.1146 0.0
C378 C 0.60504 0.15964 0.15312 0.0
C379 C 0.60331 0.16544 0.20785 0.0
C380 C 0.60432 0.21131 0.18748 0.0
C381 C 0.60622 0.20551 0.13243 0.0
C382 C 0.59897 0.19704 0.28319 0.0
C383 C 0.65583 0.14736 0.41201 0.0
C384 C 0.60697 0.10529 0.35042 0.0
C385 C 0.6101 0.10802 0.61658 0.0
C386 C 0.61108 0.12409 0.72548 0.0
C387 C 0.61911 0.14096 0.68424 0.0
C388 C 0.61871 0.13295 0.6304 0.0
C389 C 0.60271 0.0909 0.65742 0.0
C390 C 0.60333 0.09878 0.71131 0.0
C391 C 0.60679 0.10056 0.55972 0.0
H392 H 0.60543 0.13948 0.14093 0.0
H393 H 0.6021 0.14968 0.23638 0.0
H394 H 0.60377 0.23139 0.20025 0.0
H395 H 0.60697 0.2213 0.10379 0.0
H396 H 0.62494 0.16065 0.69323 0.0
H397 H 0.62452 0.14645 0.59934 0.0
H398 H 0.596 0.07158 0.64758 0.0
H399 H 0.59754 0.08501 0.74184 0.0
Dy400 Dy 0.13015 0.38957 0.57067 0.0
Dy401 Dy 0.16999 0.39859 0.67382 0.0
C402 C 0.15716 0.34253 0.63042 0.0
O403 O 0.10667 0.37725 0.64131 0.0
O404 O 0.12982 0.3981 0.70819 0.0
O405 O 0.10994 0.36504 0.51373 0.0
O406 O 0.10817 0.40676 0.50574 0.0
O407 O 0.16056 0.43636 0.63487 0.0
O408 O 0.11913 0.4261 0.61363 0.0
O409 O 0.19585 0.3932 0.60185 0.0
O410 O 0.16633 0.40677 0.53884 0.0
O411 O 0.18408 0.42447 0.73544 0.0
O412 O 0.19908 0.38537 0.73076 0.0
C413 C 0.10906 0.38576 0.69103 0.0
O414 O 0.15296 0.35297 0.58294 0.0
O415 O 0.15876 0.35701 0.67359 0.0
C416 C 0.11084 0.38268 0.42593 0.0
C417 C 0.12611 0.38426 0.31672 0.0
C418 C 0.14427 0.37872 0.35755 0.0
C419 C 0.13668 0.37787 0.41154 0.0
C420 C 0.09255 0.38766 0.38551 0.0
C421 C 0.10005 0.38832 0.33145 0.0
C422 C 0.10338 0.3845 0.483 0.0
C423 C 0.13631 0.44327 0.6291 0.0
C424 C 0.1901 0.40081 0.55262 0.0
C425 C 0.19166 0.40288 0.81727 0.0
C426 C 0.17985 0.39798 0.92785 0.0
C427 C 0.16003 0.39814 0.8889 0.0
C428 C 0.16587 0.40049 0.83431 0.0
C429 C 0.21159 0.40233 0.85573 0.0
C430 C 0.20576 0.39982 0.91059 0.0
C431 C 0.19748 0.40644 0.75964 0.0
H432 H 0.16452 0.3758 0.34809 0.0
H433 H 0.1511 0.37403 0.44226 0.0
H434 H 0.07252 0.39145 0.39582 0.0
H435 H 0.08541 0.39215 0.30122 0.0
H436 H 0.13992 0.39632 0.90059 0.0
H437 H 0.15017 0.40069 0.8054 0.0
H438 H 0.23162 0.40412 0.84343 0.0
H439 H 0.22148 0.3999 0.93954 0.0
Dy440 Dy 0.39736 0.83148 0.36719 0.0
Dy441 Dy 0.39648 0.87117 0.47136 0.0
C442 C 0.44769 0.85821 0.40878 0.0
O443 O 0.38947 0.80707 0.44078 0.0
O444 O 0.4115 0.83325 0.49873 0.0
O445 O 0.41906 0.81436 0.3022 0.0
O446 O 0.37932 0.80283 0.31565 0.0
O447 O 0.3569 0.85355 0.46045 0.0
O448 O 0.35856 0.84949 0.36938 0.0
O449 O 0.38866 0.89769 0.403 0.0
O450 O 0.39976 0.87146 0.33089 0.0
O451 O 0.37513 0.89385 0.52971 0.0
O452 O 0.4166 0.8893 0.53758 0.0
C453 C 0.40084 0.81096 0.48757 0.0
O454 O 0.43706 0.83548 0.40099 0.0
O455 O 0.43379 0.8775 0.42762 0.0
C456 C 0.39347 0.80723 0.22591 0.0
C457 C 0.38856 0.8199 0.11591 0.0
C458 C 0.39659 0.79492 0.13175 0.0
C459 C 0.39914 0.78868 0.1864 0.0
C460 C 0.3844 0.83176 0.21032 0.0
C461 C 0.38198 0.83805 0.15592 0.0
C462 C 0.39905 0.80201 0.28296 0.0
C463 C 0.34515 0.85188 0.41354 0.0
C464 C 0.39351 0.89422 0.35153 0.0
C465 C 0.39224 0.88873 0.61707 0.0
C466 C 0.38879 0.87287 0.72565 0.0
C467 C 0.38786 0.89937 0.71175 0.0
C468 C 0.38966 0.90721 0.65797 0.0
C469 C 0.39257 0.8623 0.63043 0.0
C470 C 0.39099 0.85443 0.68413 0.0
C471 C 0.3953 0.89694 0.56074 0.0
H472 H 0.4019 0.78053 0.10198 0.0
H473 H 0.40624 0.76966 0.19774 0.0
H474 H 0.37983 0.8463 0.24029 0.0
H475 H 0.37529 0.85729 0.14517 0.0
H476 H 0.38568 0.91413 0.7424 0.0
H477 H 0.38922 0.9277 0.64838 0.0
H478 H 0.39442 0.84775 0.59931 0.0
H479 H 0.39209 0.8339 0.69305 0.0
Dy480 Dy 0.87598 0.90112 0.73064 0.0
Dy481 Dy 0.83382 0.89428 0.62869 0.0
C482 C 0.85439 0.8466 0.69115 0.0
O483 O 0.90101 0.90454 0.65836 0.0
O484 O 0.87347 0.88418 0.59834 0.0
O485 O 0.90194 0.88357 0.78893 0.0
O486 O 0.89264 0.92425 0.79458 0.0
O487 O 0.85201 0.93249 0.61713 0.0
O488 O 0.86715 0.94165 0.70225 0.0
O489 O 0.80963 0.9083 0.69804 0.0
O490 O 0.83712 0.89492 0.76543 0.0
O491 O 0.80518 0.90879 0.57237 0.0
O492 O 0.81847 0.86907 0.56698 0.0
C493 C 0.89637 0.8935 0.6116 0.0
O494 O 0.87558 0.85964 0.70244 0.0
O495 O 0.83296 0.85888 0.67908 0.0
C496 C 0.89574 0.90125 0.87599 0.0
C497 C 0.87991 0.89901 0.98514 0.0
C498 C 0.86457 0.88804 0.94407 0.0
C499 C 0.87246 0.88905 0.89025 0.0
C500 C 0.91127 0.91197 0.91661 0.0
C501 C 0.90353 0.91077 0.9706 0.0
C502 C 0.90291 0.90434 0.81878 0.0
C503 C 0.86046 0.94885 0.65335 0.0
C504 C 0.81463 0.90371 0.74917 0.0
C505 C 0.81179 0.89131 0.48553 0.0
C506 C 0.82453 0.89571 0.37509 0.0
C507 C 0.84255 0.90255 0.41527 0.0
C508 C 0.83626 0.90035 0.46982 0.0
C509 C 0.79359 0.88477 0.44583 0.0
C510 C 0.79988 0.88692 0.39113 0.0
C511 C 0.80581 0.88775 0.54315 0.0
H512 H 0.84611 0.87917 0.95319 0.0
H513 H 0.86011 0.88068 0.8596 0.0
H514 H 0.92928 0.92152 0.90654 0.0
H515 H 0.91613 0.91905 1.00093 0.0
H516 H 0.86181 0.90903 0.40464 0.0
H517 H 0.85067 0.90536 0.49983 0.0
H518 H 0.7746 0.87776 0.4571 0.0
H519 H 0.7854 0.88179 0.36141 0.0
Dy520 Dy 0.90269 0.1679 0.41821 0.0
Dy521 Dy 0.90047 0.12729 0.31488 0.0
C522 C 0.95189 0.13966 0.37768 0.0
O523 O 0.89443 0.19261 0.34512 0.0
O524 O 0.91391 0.16534 0.28507 0.0
O525 O 0.926 0.18476 0.48124 0.0
O526 O 0.88575 0.19584 0.47317 0.0
O527 O 0.86111 0.14564 0.32429 0.0
O528 O 0.86291 0.15201 0.41513 0.0
O529 O 0.88955 0.10248 0.38412 0.0
O530 O 0.90461 0.12788 0.45417 0.0
O531 O 0.87946 0.10361 0.25775 0.0
O532 O 0.92076 0.10894 0.2491 0.0
C533 C 0.90365 0.18784 0.2967 0.0
O534 O 0.9417 0.16281 0.38221 0.0
O535 O 0.93753 0.12041 0.36019 0.0
C536 C 0.90252 0.19068 0.56122 0.0
C537 C 0.89667 0.17914 0.67192 0.0
C538 C 0.90029 0.15921 0.63393 0.0
C539 C 0.90306 0.16491 0.57933 0.0
C540 C 0.89879 0.21069 0.59862 0.0
C541 C 0.89588 0.205 0.65347 0.0
C542 C 0.90638 0.19648 0.50363 0.0
C543 C 0.84948 0.14875 0.37093 0.0
C544 C 0.89525 0.10591 0.43525 0.0
C545 C 0.89596 0.1084 0.16978 0.0
C546 C 0.89266 0.1245 0.06123 0.0
C547 C 0.88504 0.14123 0.10307 0.0
C548 C 0.88656 0.13319 0.15677 0.0
C549 C 0.90336 0.09156 0.12832 0.0
C550 C 0.90162 0.09948 0.07452 0.0
C551 C 0.8995 0.10072 0.22647 0.0
H552 H 0.90152 0.13913 0.64637 0.0
H553 H 0.906 0.14913 0.55129 0.0
H554 H 0.89825 0.23071 0.58548 0.0
H555 H 0.89282 0.22085 0.68132 0.0
H556 H 0.8778 0.1605 0.0943 0.0
H557 H 0.88068 0.14645 0.18827 0.0
H558 H 0.91084 0.07243 0.13757 0.0
H559 H 0.9079 0.08621 0.0434 0.0
Dy560 Dy 0.12917 0.10099 0.72739 0.0
Dy561 Dy 0.16863 0.09307 0.62453 0.0
C562 C 0.15552 0.14864 0.6688 0.0
O563 O 0.10521 0.11381 0.65757 0.0
O564 O 0.12849 0.0944 0.58914 0.0
O565 O 0.10962 0.12525 0.78567 0.0
O566 O 0.10733 0.08352 0.79178 0.0
O567 O 0.1597 0.05484 0.66172 0.0
O568 O 0.1182 0.06477 0.68324 0.0
O569 O 0.19404 0.09893 0.69736 0.0
O570 O 0.16521 0.08258 0.75786 0.0
O571 O 0.18261 0.06812 0.56124 0.0
O572 O 0.19864 0.10657 0.57065 0.0
C573 C 0.10763 0.10634 0.60716 0.0
O574 O 0.15168 0.13785 0.71603 0.0
O575 O 0.15686 0.13445 0.62525 0.0
C576 C 0.11106 0.10683 0.87247 0.0
C577 C 0.12651 0.10611 0.98173 0.0
C578 C 0.14508 0.10532 0.94037 0.0
C579 C 0.13741 0.10576 0.88635 0.0
C580 C 0.09248 0.10802 0.91329 0.0
C581 C 0.10011 0.10775 0.96739 0.0
C582 C 0.10301 0.10561 0.81563 0.0
C583 C 0.13557 0.04773 0.66792 0.0
C584 C 0.18871 0.08979 0.74551 0.0
C585 C 0.19176 0.09115 0.48232 0.0
C586 C 0.18015 0.09678 0.37178 0.0
C587 C 0.16133 0.10214 0.41107 0.0
C588 C 0.16709 0.0994 0.4657 0.0
C589 C 0.21089 0.0865 0.44355 0.0
C590 C 0.20518 0.08939 0.38867 0.0
C591 C 0.19687 0.08618 0.53975 0.0
H592 H 0.16553 0.10372 0.94959 0.0
H593 H 0.15205 0.10487 0.85533 0.0
H594 H 0.07205 0.10892 0.90334 0.0
H595 H 0.08527 0.10887 0.99798 0.0
H596 H 0.14204 0.10834 0.39959 0.0
H597 H 0.15211 0.10329 0.49498 0.0
H598 H 0.23006 0.08014 0.45563 0.0
H599 H 0.22009 0.08504 0.35947 0.0
Dy600 Dy 0.09716 0.83068 0.42226 0.0
Dy601 Dy 0.10163 0.87099 0.31801 0.0
C602 C 0.04942 0.86098 0.37878 0.0
O603 O 0.1048 0.80539 0.35035 0.0
O604 O 0.08749 0.83305 0.28781 0.0
O605 O 0.07307 0.8153 0.48527 0.0
O606 O 0.11253 0.80167 0.47694 0.0
O607 O 0.14048 0.85242 0.3314 0.0
O608 O 0.13728 0.84588 0.42203 0.0
O609 O 0.10916 0.89727 0.38745 0.0
O610 O 0.09719 0.87054 0.45825 0.0
O611 O 0.12375 0.89415 0.26202 0.0
O612 O 0.08252 0.88902 0.25031 0.0
C613 C 0.09607 0.81007 0.3015 0.0
O614 O 0.05833 0.83741 0.38531 0.0
O615 O 0.06477 0.87935 0.36144 0.0
C616 C 0.09648 0.80785 0.56503 0.0
C617 C 0.10373 0.81889 0.67559 0.0
C618 C 0.10065 0.83904 0.63791 0.0
C619 C 0.09716 0.83357 0.58336 0.0
C620 C 0.09967 0.78761 0.60213 0.0
C621 C 0.10327 0.79306 0.65695 0.0
C622 C 0.09201 0.80234 0.50748 0.0
C623 C 0.15133 0.84915 0.37886 0.0
C624 C 0.1043 0.8932 0.43875 0.0
C625 C 0.10831 0.88938 0.17295 0.0
C626 C 0.11183 0.87313 0.06463 0.0
C627 C 0.11794 0.85596 0.10681 0.0
C628 C 0.1163 0.86406 0.16043 0.0
C629 C 0.10256 0.90669 0.13116 0.0
C630 C 0.10441 0.8987 0.07747 0.0
C631 C 0.10414 0.89713 0.2293 0.0
H632 H 0.10039 0.85913 0.65059 0.0
H633 H 0.09462 0.84951 0.55555 0.0
H634 H 0.09928 0.76761 0.58878 0.0
H635 H 0.10586 0.77704 0.6846 0.0
H636 H 0.124 0.83626 0.09838 0.0
H637 H 0.12087 0.85043 0.19224 0.0
H638 H 0.09615 0.92624 0.14006 0.0
H639 H 0.09929 0.91233 0.04605 0.0
H640 H 0.38546 0.89697 0.24153 0.0
H641 H 0.38733 0.05211 0.24939 0.0
H642 H 0.39912 0.94432 0.38193 0.0
H643 H 0.35634 0.01069 0.11298 0.0
H644 H 0.39934 0.01128 0.2907 0.0
H645 H 0.38114 0.93683 0.1873 0.0
C646 C 0.38776 0.91566 0.26081 0.0
C647 C 0.39237 0.91736 0.31646 0.0
C648 C 0.38999 0.0109 0.25166 0.0
C649 C 0.38777 0.96264 0.25496 0.0
C650 C 0.38313 0.03427 0.228 0.0
C651 C 0.37039 0.03469 0.1782 0.0
C652 C 0.38383 0.98749 0.22588 0.0
C653 C 0.366 0.01106 0.15168 0.0
C654 C 0.38523 0.93833 0.22992 0.0
C655 C 0.3952 0.94201 0.3394 0.0
N656 N 0.37238 0.98823 0.17629 0.0
N657 N 0.39283 0.96354 0.30866 0.0
H658 H 0.89818 0.63966 0.76902 0.0
H659 H 0.03085 0.58088 0.88109 0.0
H660 H 0.94137 0.58058 0.68464 0.0
H661 H 0.00405 0.65803 0.91918 0.0
H662 H 0.99296 0.57504 0.82265 0.0
H663 H 0.9323 0.64139 0.83704 0.0
C664 C 0.91483 0.62703 0.76475 0.0
C665 C 0.91707 0.61013 0.72072 0.0
C666 C 0.99526 0.59308 0.84442 0.0
C667 C 0.95595 0.6118 0.79899 0.0
C668 C 0.01666 0.59634 0.87819 0.0
C669 C 0.02051 0.62 0.90489 0.0
C670 C 0.97748 0.6135 0.83811 0.0
C671 C 0.00178 0.63953 0.89913 0.0
C672 C 0.93427 0.62805 0.80364 0.0
C673 C 0.93904 0.59413 0.71755 0.0
N674 N 0.98108 0.63587 0.86624 0.0
N675 N 0.95765 0.59532 0.75629 0.0
H676 H 0.66171 0.99396 0.12158 0.0
H677 H 0.59217 0.05539 0.36811 0.0
H678 H 0.58991 0.96171 0.17899 0.0
H679 H 0.62462 0.1055 0.24705 0.0
H680 H 0.5954 0.01882 0.30525 0.0
H681 H 0.65248 0.03396 0.17179 0.0
C682 C 0.6438 0.99554 0.14394 0.0
C683 C 0.62645 0.97468 0.146 0.0
C684 C 0.60159 0.0379 0.29242 0.0
C685 C 0.61632 0.01969 0.20458 0.0
C686 C 0.59996 0.05864 0.32827 0.0
C687 C 0.60819 0.08337 0.31257 0.0
C688 C 0.61223 0.04182 0.24122 0.0
C689 C 0.61796 0.0867 0.26043 0.0
C690 C 0.63858 0.01827 0.17248 0.0
C691 C 0.60362 0.9775 0.17591 0.0
N692 N 0.62012 0.06602 0.22675 0.0
N693 N 0.59944 0.99943 0.20499 0.0
H694 H 0.98042 0.32245 0.8651 0.0
H695 H 0.0967 0.41465 0.77999 0.0
H696 H 0.97944 0.40408 0.90411 0.0
H697 H 0.072 0.34825 0.68753 0.0
H698 H 0.05963 0.40824 0.8404 0.0
H699 H 0.02064 0.32869 0.81622 0.0
C700 C 0.9888 0.34168 0.86408 0.0
C701 C 0.97631 0.36286 0.88835 0.0
C702 C 0.06247 0.39511 0.80692 0.0
C703 C 0.02256 0.37001 0.83218 0.0
C704 C 0.08358 0.39865 0.77261 0.0
C705 C 0.0873 0.38198 0.72858 0.0
C706 C 0.04541 0.37443 0.7977 0.0
C707 C 0.06972 0.36166 0.72071 0.0
C708 C 0.01173 0.34519 0.83584 0.0
C709 C 0.98832 0.38725 0.88574 0.0
N710 N 0.04963 0.35837 0.75509 0.0
N711 N 0.01081 0.39021 0.85784 0.0
H712 H 0.4157 0.4715 0.13214 0.0
H713 H 0.35856 0.60789 0.03598 0.0
H714 H 0.33846 0.49747 0.17067 0.0
H715 H 0.41701 0.56617 0.94695 0.0
H716 H 0.3566 0.57209 0.10017 0.0
H717 H 0.4222 0.51118 0.07954 0.0
C718 C 0.40036 0.48585 0.13064 0.0
C719 C 0.37649 0.48126 0.15571 0.0
C720 C 0.3699 0.57085 0.06666 0.0
C721 C 0.38375 0.5264 0.0956 0.0
C722 C 0.37107 0.59126 0.03 0.0
C723 C 0.38779 0.58989 0.98563 0.0
C724 C 0.38584 0.54908 0.05948 0.0
C725 C 0.40361 0.56788 0.98016 0.0
C726 C 0.40399 0.5083 0.10019 0.0
C727 C 0.35712 0.50028 0.15179 0.0
N728 N 0.40227 0.54831 1.01672 0.0
N729 N 0.36115 0.52202 0.12217 0.0
H730 H 0.59074 0.59163 1.0033 0.0
H731 H 0.46553 0.68185 0.97055 0.0
H732 H 0.5612 0.6447 0.12278 0.0
H733 H 0.47724 0.61478 0.86983 0.0
H734 H 0.50711 0.67382 1.01351 0.0
H735 H 0.55469 0.60405 0.94333 0.0
C736 C 0.57677 0.60587 1.01687 0.0
C737 C 0.57881 0.61694 0.06839 0.0
C738 C 0.50082 0.66093 0.98166 0.0
C739 C 0.53815 0.63147 0.99998 0.0
C740 C 0.47714 0.66561 0.9569 0.0
C741 C 0.46788 0.64877 0.9171 0.0
C742 C 0.51535 0.63901 0.96715 0.0
C743 C 0.4838 0.62819 0.90047 0.0
C744 C 0.55629 0.61293 0.98266 0.0
C745 C 0.56028 0.63537 0.08383 0.0
N746 N 0.50672 0.62358 0.92627 0.0
N747 N 0.54084 0.64202 0.04983 0.0
H748 H 0.58636 0.52572 0.15567 0.0
H749 H 0.64201 0.43493 0.93077 0.0
H750 H 0.66835 0.51838 0.12483 0.0
H751 H 0.57736 0.40785 0.02486 0.0
H752 H 0.64822 0.4703 0.99467 0.0
H753 H 0.57906 0.48577 0.10339 0.0
C754 C 0.60281 0.51555 0.13878 0.0
C755 C 0.62796 0.52561 0.1441 0.0
C756 C 0.63271 0.45657 1.00141 0.0
C757 C 0.61966 0.48063 0.08381 0.0
C758 C 0.62903 0.43653 0.96477 0.0
C759 C 0.60913 0.41852 0.97256 0.0
C760 C 0.61606 0.45901 0.0456 0.0
C761 C 0.593 0.42136 1.01763 0.0
C762 C 0.59861 0.49285 0.109 0.0
C763 C 0.64858 0.51162 0.12137 0.0
N764 N 0.59662 0.44148 0.05237 0.0
N765 N 0.64392 0.49015 0.09152 0.0
H766 H 0.41259 0.42646 1.02248 0.0
H767 H 0.52166 0.32784 0.92682 0.0
H768 H 0.44019 0.36258 0.11921 0.0
H769 H 0.52373 0.40828 0.87864 0.0
H770 H 0.48429 0.33721 0.98308 0.0
H771 H 0.44693 0.41731 0.95677 0.0
C772 C 0.42587 0.41055 0.02989 0.0
C773 C 0.4237 0.39533 0.07649 0.0
C774 C 0.4928 0.35275 0.95979 0.0
C775 C 0.46234 0.38453 1.00129 0.0
C776 C 0.51404 0.34743 0.92729 0.0
C777 C 0.52607 0.36739 0.89829 0.0
C778 C 0.48319 0.37813 0.96289 0.0
C779 C 0.51515 0.39235 0.90056 0.0
C780 C 0.44539 0.40541 0.99249 0.0
C781 C 0.44135 0.37496 0.08414 0.0
N782 N 0.49431 0.39708 0.93259 0.0
N783 N 0.4598 0.37004 0.04673 0.0
H784 H 0.85985 0.43499 0.8648 0.0
H785 H 0.89693 0.51844 0.6088 0.0
H786 H 0.91366 0.40474 0.7478 0.0
H787 H 0.8281 0.52941 0.70405 0.0
H788 H 0.90443 0.47668 0.65506 0.0
H789 H 0.84975 0.47049 0.80477 0.0
C790 C 0.86968 0.43586 0.82641 0.0
C791 C 0.88783 0.41694 0.81159 0.0
C792 C 0.88745 0.48808 0.6649 0.0
C793 C 0.87614 0.4579 0.7418 0.0
C794 C 0.8831 0.51175 0.63835 0.0
C795 C 0.86206 0.52745 0.65324 0.0
C796 C 0.87064 0.48042 0.70637 0.0
C797 C 0.8448 0.51809 0.69197 0.0
C798 C 0.86371 0.45611 0.79178 0.0
C799 C 0.8996 0.41899 0.76082 0.0
N800 N 0.84963 0.49542 0.71748 0.0
N801 N 0.89374 0.43933 0.72778 0.0
H802 H 0.51367 0.1749 0.39737 0.0
H803 H 0.43575 0.08475 0.19936 0.0
H804 H 0.53272 0.09399 0.37695 0.0
H805 H 0.39876 0.14937 0.27852 0.0
H806 H 0.47279 0.08921 0.26014 0.0
H807 H 0.47231 0.1674 0.35134 0.0
C808 C 0.50896 0.15549 0.38392 0.0
C809 C 0.52663 0.13504 0.39088 0.0
C810 C 0.45649 0.1023 0.26446 0.0
C811 C 0.47976 0.12651 0.33727 0.0
C812 C 0.43546 0.09992 0.22952 0.0
C813 C 0.4143 0.1169 0.23361 0.0
C814 C 0.45663 0.12215 0.30308 0.0
C815 C 0.41475 0.13594 0.27396 0.0
C816 C 0.48538 0.15123 0.35773 0.0
C817 C 0.5196 0.11027 0.37266 0.0
N818 N 0.43577 0.1383 0.30673 0.0
N819 N 0.49687 0.10678 0.34587 0.0
H820 H 0.09098 0.54164 0.88577 0.0
H821 H 0.16132 0.48983 0.62988 0.0
H822 H 0.11733 0.59593 0.76596 0.0
H823 H 0.09287 0.45141 0.68847 0.0
H824 H 0.15031 0.52787 0.68496 0.0
H825 H 0.09665 0.50628 0.8206 0.0
C826 C 0.09799 0.54606 0.8458 0.0
C827 C 0.10375 0.57164 0.8311 0.0
C828 C 0.13753 0.51124 0.68493 0.0
C829 C 0.11056 0.5315 0.75713 0.0
C830 C 0.14375 0.48964 0.65358 0.0
C831 C 0.12782 0.46767 0.65435 0.0
C832 C 0.11577 0.51037 0.71856 0.0
C833 C 0.10543 0.46816 0.68621 0.0
C834 C 0.10102 0.52599 0.80865 0.0
C835 C 0.11259 0.57644 0.7787 0.0
N836 N 0.10031 0.48901 0.71792 0.0
N837 N 0.11611 0.55647 0.74373 0.0
H838 H 0.56952 0.85136 0.18247 0.0
H839 H 0.47596 0.90351 0.40798 0.0
H840 H 0.59128 0.9175 0.27884 0.0
H841 H 0.47947 0.82294 0.36085 0.0
H842 H 0.51666 0.91108 0.35952 0.0
H843 H 0.53393 0.84279 0.2441 0.0
C844 C 0.56675 0.86412 0.21661 0.0
C845 C 0.58324 0.88524 0.22548 0.0
C846 C 0.50861 0.89171 0.36065 0.0
C847 C 0.54249 0.87559 0.29611 0.0
C848 C 0.48545 0.88736 0.38828 0.0
C849 C 0.47412 0.86262 0.38798 0.0
C850 C 0.52015 0.87127 0.33203 0.0
C851 C 0.48728 0.8424 0.36181 0.0
C852 C 0.54657 0.8591 0.25201 0.0
C853 C 0.57895 0.90098 0.27071 0.0
N854 N 0.50935 0.84727 0.33427 0.0
N855 N 0.55873 0.89603 0.30416 0.0
H856 H 0.8985 0.98455 0.67892 0.0
H857 H 0.86263 0.06552 0.41879 0.0
H858 H 0.82869 0.97433 0.58564 0.0
H859 H 0.91461 0.09766 0.53764 0.0
H860 H 0.85244 0.03049 0.48002 0.0
H861 H 0.90637 0.02571 0.63089 0.0
C862 C 0.88454 0.99131 0.64947 0.0
C863 C 0.86311 0.97597 0.63558 0.0
C864 C 0.86601 0.04521 0.49307 0.0
C865 C 0.87213 0.02224 0.5804 0.0
C866 C 0.87204 0.06516 0.4578 0.0
C867 C 0.88963 0.08449 0.47293 0.0
C868 C 0.87786 0.0442 0.54392 0.0
C869 C 0.90093 0.08309 0.52441 0.0
C870 C 0.8891 0.01462 0.62191 0.0
C871 C 0.84568 0.98539 0.59692 0.0
N872 N 0.89503 0.06308 0.55807 0.0
N873 N 0.85074 0.00767 0.57033 0.0
H874 H 0.07075 0.14392 0.61517 0.0
H875 H 0.98036 0.0943 0.3797 0.0
H876 H 0.09537 0.08067 0.51362 0.0
H877 H 0.98202 0.17408 0.4325 0.0
H878 H 0.02019 0.08621 0.4317 0.0
H879 H 0.03487 0.15239 0.55347 0.0
C880 C 0.06856 0.13177 0.57992 0.0
C881 C 0.08602 0.11154 0.56954 0.0
C882 C 0.0119 0.10552 0.43115 0.0
C883 C 0.04487 0.12105 0.49885 0.0
C884 C 0.98923 0.11016 0.40152 0.0
C885 C 0.9777 0.13486 0.40194 0.0
C886 C 0.02271 0.1256 0.46206 0.0
C887 C 0.99005 0.15469 0.43103 0.0
C888 C 0.04818 0.13672 0.54452 0.0
C889 C 0.08235 0.09653 0.52295 0.0
N890 N 0.01162 0.14953 0.46043 0.0
N891 N 0.06198 0.10141 0.48948 0.0
H892 H 0.09226 0.9439 0.41987 0.0
H893 H 0.16164 0.00175 0.67134 0.0
H894 H 0.12115 0.89233 0.54285 0.0
H895 H 0.09201 0.0375 0.60986 0.0
H896 H 0.1514 0.9624 0.61978 0.0
H897 H 0.09657 0.98033 0.48285 0.0
C898 C 0.09953 0.9403 0.4601 0.0
C899 C 0.10644 0.91519 0.47632 0.0
C900 C 0.13817 0.97873 0.61844 0.0
C901 C 0.11167 0.95656 0.54783 0.0
C902 C 0.14397 0.00108 0.64776 0.0
C903 C 0.1275 0.02269 0.64504 0.0
C904 C 0.11629 0.97845 0.58486 0.0
C905 C 0.10499 0.02106 0.61352 0.0
C906 C 0.10177 0.96098 0.49601 0.0
C907 C 0.11555 0.91144 0.52899 0.0
N908 N 0.10028 0.99947 0.58372 0.0
N909 N 0.1183 0.93201 0.56275 0.0
H910 H 0.00789 0.82911 0.39329 0.0
H911 H 0.94202 0.92043 0.6078 0.0
H912 H 0.03379 0.90764 0.41922 0.0
H913 H 0.89926 0.86006 0.52654 0.0
H914 H 0.9774 0.91456 0.54346 0.0
H915 H 0.9688 0.83868 0.44524 0.0
C916 C 0.00512 0.84847 0.4092 0.0
C917 C 0.02402 0.86763 0.40196 0.0
C918 C 0.96016 0.90276 0.53959 0.0
C919 C 0.97984 0.87846 0.46241 0.0
C920 C 0.94008 0.90594 0.5765 0.0
C921 C 0.91776 0.89058 0.57275 0.0
C922 C 0.95807 0.88376 0.49935 0.0
C923 C 0.91615 0.87229 0.531 0.0
C924 C 0.98286 0.85391 0.43881 0.0
C925 C 0.01957 0.89239 0.42353 0.0
N926 N 0.93617 0.86918 0.49628 0.0
N927 N 0.99811 0.89699 0.45359 0.0
H928 H 0.32157 0.19145 0.18949 0.0
H929 H 0.37369 0.32662 0.08674 0.0
H930 H 0.38233 0.1961 0.07101 0.0
H931 H 0.3453 0.31623 0.24831 0.0
H932 H 0.37265 0.27961 0.07371 0.0
H933 H 0.3252 0.23807 0.20447 0.0
C934 C 0.33554 0.20231 0.16622 0.0
C935 C 0.35159 0.18989 0.12863 0.0
C936 C 0.36679 0.28763 0.11206 0.0
C937 C 0.35577 0.24328 0.14579 0.0
C938 C 0.36723 0.31441 0.1195 0.0
C939 C 0.35942 0.32529 0.16864 0.0
C940 C 0.35795 0.27163 0.15365 0.0
C941 C 0.35149 0.3086 0.20987 0.0
C942 C 0.33774 0.22887 0.17524 0.0
C943 C 0.36957 0.20493 0.10027 0.0
N944 N 0.35066 0.28255 0.20123 0.0
N945 N 0.37104 0.23094 0.10909 0.0
H946 H 0.30151 0.68565 0.84938 0.0
H947 H 0.18505 0.61003 0.98428 0.0
H948 H 0.31029 0.60604 0.89952 0.0
H949 H 0.17356 0.6679 0.86112 0.0
H950 H 0.232 0.61154 0.9669 0.0
H951 H 0.25494 0.68257 0.86559 0.0
C952 C 0.29354 0.66746 0.86339 0.0
C953 C 0.30961 0.64601 0.8728 0.0
C954 C 0.21907 0.62385 0.94385 0.0
C955 C 0.25662 0.64256 0.8927 0.0
C956 C 0.19243 0.62317 0.95404 0.0
C957 C 0.17551 0.63884 0.92402 0.0
C958 C 0.22867 0.64073 0.90434 0.0
C959 C 0.18595 0.65539 0.88496 0.0
C960 C 0.26703 0.66572 0.87266 0.0
C961 C 0.2984 0.62289 0.89118 0.0
N962 N 0.21186 0.65603 0.87649 0.0
N963 N 0.27252 0.62183 0.90118 0.0
H964 H 0.65446 0.82002 0.22315 0.0
H965 H 0.64992 0.68212 0.07694 0.0
H966 H 0.64828 0.81003 0.05116 0.0
H967 H 0.64522 0.6908 0.24942 0.0
H968 H 0.65198 0.72891 0.06772 0.0
H969 H 0.6538 0.77298 0.23408 0.0
C970 C 0.65309 0.80796 0.18758 0.0
C971 C 0.65144 0.81906 0.13603 0.0
C972 C 0.6505 0.72067 0.10764 0.0
C973 C 0.65062 0.76509 0.14852 0.0
C974 C 0.64937 0.69385 0.11308 0.0
C975 C 0.64739 0.6824 0.16418 0.0
C976 C 0.64974 0.73641 0.15358 0.0
C977 C 0.64671 0.69876 0.20927 0.0
C978 C 0.65263 0.78108 0.19398 0.0
C979 C 0.6496 0.8024 0.09162 0.0
N980 N 0.64791 0.72498 0.20292 0.0
N981 N 0.64925 0.77628 0.09891 0.0
H982 H 0.81892 0.35183 0.81977 0.0
H983 H 0.68163 0.35259 0.96659 0.0
H984 H 0.8105 0.3562 0.9923 0.0
H985 H 0.69074 0.35696 0.79424 0.0
H986 H 0.72855 0.35283 0.97688 0.0
H987 H 0.77209 0.35262 0.81017 0.0
C988 C 0.80724 0.35292 0.85581 0.0
C989 C 0.81876 0.35386 0.90707 0.0
C990 C 0.72032 0.35377 0.93681 0.0
C991 C 0.76478 0.35479 0.89605 0.0
C992 C 0.69347 0.35357 0.93078 0.0
C993 C 0.68215 0.35468 0.87933 0.0
C994 C 0.73611 0.35497 0.89111 0.0
C995 C 0.69858 0.35605 0.83462 0.0
C996 C 0.78041 0.35343 0.85016 0.0
C997 C 0.80249 0.35541 0.95205 0.0
N998 N 0.72473 0.35609 0.84156 0.0
N999 N 0.77629 0.35575 0.94548 0.0
H1000 H 0.89872 0.68864 0.6086 0.0
H1001 H 0.81344 0.8139 0.67998 0.0
H1002 H 0.81513 0.69077 0.61021 0.0
H1003 H 0.89705 0.81474 0.68196 0.0
H1004 H 0.81443 0.76837 0.65508 0.0
H1005 H 0.8993 0.73479 0.63313 0.0
C1006 C 0.88052 0.69886 0.61337 0.0
C1007 C 0.85684 0.6858 0.60751 0.0
C1008 C 0.83263 0.77838 0.66116 0.0
C1009 C 0.85737 0.7383 0.63626 0.0
C1010 C 0.83206 0.80443 0.67566 0.0
C1011 C 0.8552 0.8182 0.68301 0.0
C1012 C 0.85651 0.76583 0.65365 0.0
C1013 C 0.87874 0.80482 0.67694 0.0
C1014 C 0.88087 0.72512 0.62779 0.0
C1015 C 0.83386 0.69995 0.61458 0.0
N1016 N 0.87881 0.77936 0.66227 0.0
N1017 N 0.83472 0.72531 0.62875 0.0
H1018 H 0.81319 0.14594 0.28947 0.0
H1019 H 0.69248 0.1446 0.49239 0.0
H1020 H 0.82043 0.15023 0.46232 0.0
H1021 H 0.68443 0.1492 0.31974 0.0
H1022 H 0.7396 0.14449 0.48186 0.0
H1023 H 0.76594 0.14506 0.29929 0.0
C1024 C 0.8049 0.1467 0.32939 0.0
C1025 C 0.82085 0.14825 0.37505 0.0
C1026 C 0.7275 0.14553 0.44629 0.0
C1027 C 0.76688 0.14714 0.38665 0.0
C1028 C 0.70058 0.14556 0.45231 0.0
C1029 C 0.68443 0.147 0.40696 0.0
C1030 C 0.73836 0.14683 0.39453 0.0
C1031 C 0.69608 0.14818 0.35595 0.0
C1032 C 0.77793 0.14621 0.33501 0.0
C1033 C 0.80898 0.14915 0.42585 0.0
N1034 N 0.72228 0.14805 0.35114 0.0
N1035 N 0.7828 0.14856 0.43023 0.0
H1036 H 0.1618 0.31461 0.7235 0.0
H1037 H 0.16034 0.17674 0.57631 0.0
H1038 H 0.15618 0.30525 0.55128 0.0
H1039 H 0.15511 0.18574 0.74861 0.0
H1040 H 0.16215 0.22367 0.56682 0.0
H1041 H 0.1627 0.26758 0.7335 0.0
C1042 C 0.16088 0.3027 0.68767 0.0
C1043 C 0.15887 0.31398 0.63637 0.0
C1044 C 0.16065 0.21543 0.60674 0.0
C1045 C 0.15986 0.25994 0.64777 0.0
C1046 C 0.15967 0.18856 0.6123 0.0
C1047 C 0.15752 0.17719 0.66344 0.0
C1048 C 0.15957 0.23122 0.65261 0.0
C1049 C 0.15672 0.19362 0.70842 0.0
C1050 C 0.16133 0.2758 0.69352 0.0
C1051 C 0.15771 0.29746 0.59158 0.0
N1052 N 0.15773 0.21981 0.70194 0.0
N1053 N 0.15821 0.27129 0.59834 0.0
H1054 H 0.3162 0.85267 0.32179 0.0
H1055 H 0.17975 0.84572 0.47162 0.0
H1056 H 0.30883 0.85152 0.49474 0.0
H1057 H 0.18805 0.85344 0.2996 0.0
H1058 H 0.22676 0.84683 0.48109 0.0
H1059 H 0.26933 0.85213 0.31349 0.0
C1060 C 0.30473 0.85231 0.35819 0.0
C1061 C 0.31655 0.85207 0.40917 0.0
C1062 C 0.21831 0.84829 0.44128 0.0
C1063 C 0.26252 0.85143 0.39968 0.0
C1064 C 0.19143 0.8476 0.43573 0.0
C1065 C 0.17987 0.84944 0.38461 0.0
C1066 C 0.23385 0.85077 0.39542 0.0
C1067 C 0.19607 0.85193 0.33975 0.0
C1068 C 0.27788 0.85203 0.35331 0.0
C1069 C 0.30057 0.85172 0.45468 0.0
N1070 N 0.22222 0.85249 0.34622 0.0
N1071 N 0.27433 0.85133 0.44886 0.0
H1072 H 0.23632 0.11365 0.74839 0.0
H1073 H 0.26695 0.07398 0.05478 0.0
H1074 H 0.1856 0.06529 0.84269 0.0
H1075 H 0.30774 0.13307 0.96614 0.0
H1076 H 0.23807 0.06801 0.97667 0.0
H1077 H 0.26537 0.1171 0.82606 0.0
C1078 C 0.23145 0.1035 0.78511 0.0
C1079 C 0.2084 0.08933 0.78902 0.0
C1080 C 0.25339 0.08228 0.97459 0.0
C1081 C 0.24131 0.09349 0.87845 0.0
C1082 C 0.26971 0.0858 1.01927 0.0
C1083 C 0.28999 0.10382 1.0169 0.0
C1084 C 0.25755 0.09681 0.92741 0.0
C1085 C 0.29273 0.11857 0.96968 0.0
C1086 C 0.24791 0.10565 0.82966 0.0
C1087 C 0.20306 0.07663 0.83788 0.0
N1088 N 0.27688 0.11463 0.92694 0.0
N1089 N 0.21929 0.07911 0.88069 0.0
H1090 H 0.10195 0.72845 0.99669 0.0
H1091 H 0.10494 0.75749 0.31267 0.0
H1092 H 0.08634 0.66988 0.11633 0.0
H1093 H 0.08703 0.81608 0.19412 0.0
H1094 H 0.10497 0.72481 0.24067 0.0
H1095 H 0.10331 0.7611 0.06865 0.0
C1096 C 0.09888 0.72243 0.0379 0.0
C1097 C 0.09405 0.69635 0.05032 0.0
C1098 C 0.10109 0.74489 0.23067 0.0
C1099 C 0.09599 0.73341 0.13267 0.0
C1100 C 0.10109 0.76351 0.27169 0.0
C1101 C 0.09599 0.78959 0.25957 0.0
C1102 C 0.09641 0.75252 0.17718 0.0
C1103 C 0.09113 0.79626 0.20557 0.0
C1104 C 0.09964 0.74104 0.0789 0.0
C1105 C 0.09022 0.68968 0.10462 0.0
N1106 N 0.09161 0.77792 0.16645 0.0
N1107 N 0.09142 0.70802 0.1437 0.0
H1108 H 0.73876 0.90755 0.05899 0.0
H1109 H 0.76129 0.90255 0.73906 0.0
H1110 H 0.67718 0.90164 0.94207 0.0
H1111 H 0.8227 0.91229 0.85538 0.0
H1112 H 0.72979 0.90341 0.81295 0.0
H1113 H 0.77011 0.90929 0.98485 0.0
C1114 C 0.73184 0.90664 1.01787 0.0
C1115 C 0.70529 0.90489 1.0067 0.0
C1116 C 0.7502 0.90543 0.82218 0.0
C1117 C 0.74081 0.90683 0.92187 0.0
C1118 C 0.7681 0.9051 0.77996 0.0
C1119 C 0.79464 0.90695 0.79114 0.0
C1120 C 0.75898 0.90772 0.87573 0.0
C1121 C 0.80245 0.91019 0.84498 0.0
C1122 C 0.74967 0.90774 0.97554 0.0
C1123 C 0.69738 0.90368 0.9526 0.0
N1124 N 0.78477 0.91033 0.88517 0.0
N1125 N 0.71499 0.90467 0.91234 0.0
H1126 H 0.89366 0.25991 0.9811 0.0
H1127 H 0.88777 0.23914 0.3004 0.0
H1128 H 0.9027 0.32227 0.09544 0.0
H1129 H 0.9154 0.18018 0.19113 0.0
H1130 H 0.88444 0.26928 0.22395 0.0
H1131 H 0.89265 0.22906 0.05689 0.0
C1132 C 0.8952 0.26714 1.02187 0.0
C1133 C 0.89835 0.29372 0.03178 0.0
C1134 C 0.89111 0.24964 0.21701 0.0
C1135 C 0.89675 0.25887 0.11817 0.0
C1136 C 0.89307 0.23251 0.26059 0.0
C1137 C 0.9019 0.20708 0.25242 0.0
C1138 C 0.89756 0.2411 0.16493 0.0
C1139 C 0.9084 0.19953 0.19966 0.0
C1140 C 0.89467 0.2496 0.06501 0.0
C1141 C 0.90026 0.30201 0.08562 0.0
N1142 N 0.90598 0.21636 0.15803 0.0
N1143 N 0.89933 0.28474 0.12661 0.0
H1144 H 0.26858 0.39734 0.24479 0.0
H1145 H 0.24322 0.39494 0.56179 0.0
H1146 H 0.32744 0.41734 0.36139 0.0
H1147 H 0.18264 0.41004 0.44569 0.0
H1148 H 0.27502 0.39647 0.48843 0.0
H1149 H 0.23682 0.39527 0.31817 0.0
C1150 C 0.27485 0.40127 0.28559 0.0
C1151 C 0.30076 0.40747 0.29675 0.0
C1152 C 0.2547 0.39941 0.4793 0.0
C1153 C 0.26477 0.40467 0.38072 0.0
C1154 C 0.23658 0.39854 0.52111 0.0
C1155 C 0.21017 0.4023 0.51008 0.0
C1156 C 0.24626 0.40361 0.42612 0.0
C1157 C 0.20272 0.40687 0.45637 0.0
C1158 C 0.25676 0.40008 0.3274 0.0
C1159 C 0.30776 0.41234 0.35061 0.0
N1160 N 0.22059 0.40722 0.41649 0.0
N1161 N 0.28996 0.41067 0.39049 0.0
H1162 H 0.41834 0.73727 0.79866 0.0
H1163 H 0.37047 0.76719 0.49669 0.0
H1164 H 0.35983 0.69304 0.71513 0.0
H1165 H 0.42988 0.8108 0.57904 0.0
H1166 H 0.36666 0.73924 0.57616 0.0
H1167 H 0.42191 0.76557 0.7195 0.0
C1168 C 0.40606 0.73372 0.76405 0.0
C1169 C 0.38902 0.71261 0.76328 0.0
C1170 C 0.38059 0.75491 0.57666 0.0
C1171 C 0.39325 0.74442 0.67248 0.0
C1172 C 0.38291 0.77068 0.53108 0.0
C1173 C 0.40038 0.79144 0.53123 0.0
C1174 C 0.39582 0.76002 0.62258 0.0
C1175 C 0.41594 0.79517 0.57716 0.0
C1176 C 0.40825 0.74967 0.71868 0.0
C1177 C 0.37361 0.7088 0.7172 0.0
N1178 N 0.41318 0.77976 0.62096 0.0
N1179 N 0.3762 0.7244 0.67368 0.0
H1180 H 0.73327 0.61341 0.23623 0.0
H1181 H 0.76347 0.58715 0.54888 0.0
H1182 H 0.67808 0.5798 0.34615 0.0
H1183 H 0.81985 0.61418 0.43394 0.0
H1184 H 0.73136 0.58489 0.47582 0.0
H1185 H 0.76533 0.61404 0.30905 0.0
C1186 C 0.72793 0.60606 0.27543 0.0
C1187 C 0.70292 0.59664 0.28491 0.0
C1188 C 0.75084 0.59127 0.46682 0.0
C1189 C 0.73934 0.5975 0.36865 0.0
C1190 C 0.76912 0.5926 0.50854 0.0
C1191 C 0.79444 0.6009 0.49781 0.0
C1192 C 0.75799 0.59833 0.41417 0.0
C1193 C 0.80066 0.60769 0.44456 0.0
C1194 C 0.74619 0.60647 0.3171 0.0
C1195 C 0.69707 0.58738 0.33677 0.0
N1196 N 0.78263 0.60628 0.40499 0.0
N1197 N 0.71507 0.58815 0.37661 0.0
H1198 H 0.61535 0.23944 0.48441 0.0
H1199 H 0.60994 0.26217 0.80257 0.0
H1200 H 0.59056 0.18011 0.5954 0.0
H1201 H 0.59515 0.32314 0.68742 0.0
H1202 H 0.61197 0.23099 0.72755 0.0
H1203 H 0.61703 0.2703 0.55989 0.0
C1204 C 0.61039 0.23286 0.52442 0.0
C1205 C 0.60283 0.20712 0.53339 0.0
C1206 C 0.60843 0.2513 0.71907 0.0
C1207 C 0.60526 0.24198 0.61968 0.0
C1208 C 0.60728 0.26903 0.76177 0.0
C1209 C 0.60233 0.29532 0.75145 0.0
C1210 C 0.60516 0.26009 0.66587 0.0
C1211 C 0.59906 0.30313 0.69758 0.0
C1212 C 0.61137 0.25042 0.5674 0.0
C1213 C 0.59664 0.19968 0.58632 0.0
N1214 N 0.60066 0.28568 0.65694 0.0
N1215 N 0.59813 0.21693 0.62738 0.0
H1216 H 0.3665 0.12456 0.47557 0.0
H1217 H 0.3244 0.10338 0.78243 0.0
H1218 H 0.29022 0.09887 0.52188 0.0
H1219 H 0.4026 0.12014 0.73264 0.0
H1220 H 0.31072 0.10412 0.6881 0.0
H1221 H 0.37929 0.12501 0.56996 0.0
C1222 C 0.35245 0.1188 0.50548 0.0
C1223 C 0.32725 0.11143 0.49034 0.0
C1224 C 0.33087 0.10766 0.69781 0.0
C1225 C 0.34178 0.11238 0.59934 0.0
C1226 C 0.33868 0.10742 0.75174 0.0
C1227 C 0.36475 0.11168 0.76566 0.0
C1228 C 0.34919 0.11234 0.65731 0.0
C1229 C 0.38239 0.11643 0.72393 0.0
C1230 C 0.35975 0.11924 0.55957 0.0
C1231 C 0.30978 0.10487 0.53142 0.0
N1232 N 0.3743 0.11665 0.67182 0.0
N1233 N 0.31738 0.10545 0.58393 0.0
H1234 H 0.07923 0.69334 0.54524 0.0
H1235 H 0.12188 0.5841 0.33395 0.0
H1236 H 0.12103 0.62384 0.58905 0.0
H1237 H 0.09079 0.6584 0.28644 0.0
H1238 H 0.12095 0.59818 0.42779 0.0
H1239 H 0.08309 0.68112 0.45052 0.0
C1240 C 0.08943 0.67564 0.5351 0.0
C1241 C 0.09965 0.65955 0.57562 0.0
C1242 C 0.11442 0.61147 0.39687 0.0
C1243 C 0.10376 0.64521 0.46685 0.0
C1244 C 0.11481 0.60337 0.34323 0.0
C1245 C 0.10633 0.62003 0.30209 0.0
C1246 C 0.1053 0.63639 0.40984 0.0
C1247 C 0.09774 0.64495 0.31666 0.0
C1248 C 0.09149 0.6686 0.48089 0.0
C1249 C 0.11235 0.63666 0.5596 0.0
N1250 N 0.0973 0.65231 0.36926 0.0
N1251 N 0.11391 0.63015 0.5067 0.0
H1252 H 0.68234 0.93887 0.5016 0.0
H1253 H 0.62386 0.85326 0.7411 0.0
H1254 H 0.65591 0.86019 0.48029 0.0
H1255 H 0.63768 0.93564 0.75292 0.0
H1256 H 0.63796 0.85453 0.64741 0.0
H1257 H 0.66941 0.93686 0.59594 0.0
C1258 C 0.67404 0.92106 0.51682 0.0
C1259 C 0.67023 0.89966 0.48273 0.0
C1260 C 0.63791 0.87232 0.67056 0.0
C1261 C 0.65504 0.89734 0.59102 0.0
C1262 C 0.62967 0.87167 0.7241 0.0
C1263 C 0.62948 0.89439 0.75543 0.0
C1264 C 0.6462 0.89582 0.64793 0.0
C1265 C 0.63781 0.91751 0.731 0.0
C1266 C 0.66645 0.92001 0.57068 0.0
C1267 C 0.65896 0.87727 0.50479 0.0
N1268 N 0.64583 0.91761 0.67893 0.0
N1269 N 0.65181 0.87669 0.55744 0.0
H1270 H 0.93436 0.38495 0.29635 0.0
H1271 H 0.86405 0.30859 0.5355 0.0
H1272 H 0.8572 0.35348 0.28175 0.0
H1273 H 0.93344 0.35402 0.55617 0.0
H1274 H 0.86286 0.32124 0.44036 0.0
H1275 H 0.9357 0.3707 0.38973 0.0
C1276 C 0.91756 0.37525 0.31275 0.0
C1277 C 0.89553 0.37068 0.28081 0.0
C1278 C 0.87834 0.32842 0.46577 0.0
C1279 C 0.89722 0.3537 0.38816 0.0
C1280 C 0.87912 0.32107 0.51997 0.0
C1281 C 0.89878 0.33038 0.554 0.0
C1282 C 0.89752 0.34498 0.44526 0.0
C1283 C 0.9177 0.34668 0.53171 0.0
C1284 C 0.91844 0.36693 0.36615 0.0
C1285 C 0.87472 0.35729 0.30438 0.0
N1286 N 0.9166 0.35341 0.47891 0.0
N1287 N 0.87607 0.3493 0.35653 0.0
H1288 H 0.39966 0.43387 0.56594 0.0
H1289 H 0.31131 0.37496 0.80064 0.0
H1290 H 0.35289 0.36524 0.54539 0.0
H1291 H 0.36693 0.43626 0.82441 0.0
H1292 H 0.32381 0.37278 0.70564 0.0
H1293 H 0.38588 0.43632 0.65945 0.0
C1294 C 0.38667 0.41915 0.58107 0.0
C1295 C 0.37764 0.39918 0.54742 0.0
C1296 C 0.33326 0.3867 0.73169 0.0
C1297 C 0.36129 0.40222 0.65497 0.0
C1298 C 0.32602 0.38806 0.78586 0.0
C1299 C 0.33818 0.40572 0.82075 0.0
C1300 C 0.35266 0.40326 0.71207 0.0
C1301 C 0.3573 0.42206 0.79933 0.0
C1302 C 0.37864 0.42069 0.63456 0.0
C1303 C 0.36023 0.38112 0.56942 0.0
N1304 N 0.36391 0.42044 0.74656 0.0
N1305 N 0.35266 0.38306 0.6217 0.0
H1306 H 0.37542 0.6346 0.22345 0.0
H1307 H 0.39612 0.67802 0.53044 0.0
H1308 H 0.39563 0.71266 0.26996 0.0
H1309 H 0.38346 0.59887 0.48061 0.0
H1310 H 0.3942 0.69155 0.43616 0.0
H1311 H 0.37694 0.62169 0.31769 0.0
C1312 C 0.38039 0.64905 0.25332 0.0
C1313 C 0.3856 0.6748 0.23819 0.0
C1314 C 0.39185 0.67122 0.44584 0.0
C1315 C 0.38692 0.66006 0.34722 0.0
C1316 C 0.39278 0.66347 0.4998 0.0
C1317 C 0.38996 0.63719 0.51381 0.0
C1318 C 0.38794 0.65263 0.40528 0.0
C1319 C 0.38607 0.61926 0.47196 0.0
C1320 C 0.38108 0.64165 0.30738 0.0
C1321 C 0.39125 0.69267 0.27939 0.0
N1322 N 0.38514 0.6273 0.41983 0.0
N1323 N 0.39179 0.68497 0.33184 0.0
H1324 H 0.6968 0.58178 0.78266 0.0
H1325 H 0.59463 0.63423 0.56528 0.0
H1326 H 0.6345 0.63462 0.82074 0.0
H1327 H 0.66288 0.59028 0.52337 0.0
H1328 H 0.60857 0.6339 0.65932 0.0
H1329 H 0.68483 0.58459 0.6877 0.0
C1330 C 0.68078 0.59419 0.77116 0.0
C1331 C 0.6666 0.60788 0.81015 0.0
C1332 C 0.62056 0.6244 0.62955 0.0
C1333 C 0.65246 0.61079 0.70116 0.0
C1334 C 0.61252 0.62444 0.57584 0.0
C1335 C 0.62755 0.61221 0.53624 0.0
C1336 C 0.64376 0.61189 0.64407 0.0
C1337 C 0.65077 0.60018 0.55235 0.0
C1338 C 0.67384 0.59564 0.71684 0.0
C1339 C 0.64574 0.62331 0.7925 0.0
N1340 N 0.65808 0.60022 0.60496 0.0
N1341 N 0.63926 0.62423 0.7395 0.0
H1342 H 0.56923 0.38942 0.48576 0.0
H1343 H 0.63551 0.30838 0.24754 0.0
H1344 H 0.64354 0.35161 0.50234 0.0
H1345 H 0.56822 0.35713 0.22673 0.0
H1346 H 0.63721 0.32099 0.34264 0.0
H1347 H 0.56732 0.37528 0.39234 0.0
C1348 C 0.5853 0.37834 0.46978 0.0
C1349 C 0.6067 0.37195 0.50229 0.0
C1350 C 0.62208 0.32891 0.31722 0.0
C1351 C 0.60433 0.35514 0.39483 0.0
C1352 C 0.621 0.32159 0.263 0.0
C1353 C 0.60178 0.33182 0.22891 0.0
C1354 C 0.60367 0.34642 0.33769 0.0
C1355 C 0.58362 0.34905 0.25118 0.0
C1356 C 0.58408 0.37009 0.41634 0.0
C1357 C 0.62653 0.35687 0.47923 0.0
N1358 N 0.58501 0.35576 0.30399 0.0
N1359 N 0.62487 0.34901 0.42702 0.0
H1360 H 0.81803 0.64831 0.99271 0.0
H1361 H 0.88436 0.56585 0.22981 0.0
H1362 H 0.8511 0.5722 0.96989 0.0
H1363 H 0.86125 0.64592 0.24721 0.0
H1364 H 0.87059 0.5672 0.13587 0.0
H1365 H 0.83134 0.64689 0.08722 0.0
C1366 C 0.82792 0.6312 1.00756 0.0
C1367 C 0.83342 0.61034 0.97295 0.0
C1368 C 0.86855 0.5845 0.1602 0.0
C1369 C 0.84898 0.60869 0.08155 0.0
C1370 C 0.87661 0.58382 0.21398 0.0
C1371 C 0.87416 0.60585 0.24703 0.0
C1372 C 0.85777 0.60733 0.13883 0.0
C1373 C 0.8633 0.62832 0.22392 0.0
C1374 C 0.83569 0.63049 0.06155 0.0
C1375 C 0.84668 0.58888 0.99465 0.0
N1376 N 0.85553 0.62846 0.17147 0.0
N1377 N 0.85393 0.58861 0.04738 0.0
H1378 H 0.575 0.11182 0.80243 0.0
H1379 H 0.63609 0.20097 0.03438 0.0
H1380 H 0.64436 0.15712 0.77953 0.0
H1381 H 0.57717 0.14328 0.06157 0.0
H1382 H 0.63712 0.18847 0.93907 0.0
H1383 H 0.57358 0.12604 0.89576 0.0
C1384 C 0.59011 0.12457 0.81697 0.0
C1385 C 0.61 0.133 0.78272 0.0
C1386 C 0.62399 0.17857 0.96597 0.0
C1387 C 0.6081 0.14992 0.89013 0.0
C1388 C 0.62328 0.18579 1.02029 0.0
C1389 C 0.60666 0.17303 0.05619 0.0
C1390 C 0.60774 0.15862 0.94727 0.0
C1391 C 0.5906 0.15339 0.03566 0.0
C1392 C 0.58916 0.13286 0.87039 0.0
C1393 C 0.62853 0.15021 0.80402 0.0
N1394 N 0.59153 0.14684 0.98276 0.0
N1395 N 0.62714 0.15807 0.85626 0.0
H1396 H 0.10852 0.41849 0.24007 0.0
H1397 H 0.2037 0.3691 1.00708 0.0
H1398 H 0.16288 0.35561 0.26207 0.0
H1399 H 0.14095 0.42314 0.98156 0.0
H1400 H 0.19137 0.36595 0.10205 0.0
H1401 H 0.12205 0.42205 0.14658 0.0
C1402 C 0.12314 0.40524 0.22527 0.0
C1403 C 0.13437 0.38657 0.25933 0.0
C1404 C 0.18031 0.37849 0.07562 0.0
C1405 C 0.15042 0.39095 0.1518 0.0
C1406 C 0.18744 0.38042 1.02147 0.0
C1407 C 0.17326 0.3963 0.98609 0.0
C1408 C 0.15897 0.3927 0.09474 0.0
C1409 C 0.15221 0.41034 1.00702 0.0
C1410 C 0.13102 0.40743 0.17179 0.0
C1411 C 0.15378 0.37047 0.23774 0.0
N1412 N 0.14575 0.40822 0.05979 0.0
N1413 N 0.16117 0.37302 0.18546 0.0
H1414 H 0.40547 0.86539 0.07197 0.0
H1415 H 0.3653 0.8298 0.76966 0.0
H1416 H 0.3714 0.79197 0.0282 0.0
H1417 H 0.41087 0.89677 0.8133 0.0
H1418 H 0.3653 0.81635 0.86397 0.0
H1419 H 0.40506 0.87813 0.9776 0.0
C1420 C 0.39769 0.85199 0.04253 0.0
C1421 C 0.38828 0.82762 0.05821 0.0
C1422 C 0.37527 0.83399 0.85282 0.0
C1423 C 0.38803 0.84205 0.94947 0.0
C1424 C 0.3754 0.84166 0.79887 0.0
C1425 C 0.38807 0.86456 0.78315 0.0
C1426 C 0.38778 0.84936 0.8916 0.0
C1427 C 0.40043 0.87926 0.82329 0.0
C1428 C 0.39765 0.85922 0.9885 0.0
C1429 C 0.37897 0.81089 1.01795 0.0
N1430 N 0.39993 0.87143 0.87546 0.0
N1431 N 0.37898 0.81845 0.96546 0.0
H1432 H 0.85291 0.93332 0.32342 0.0
H1433 H 0.85322 0.86046 0.03836 0.0
H1434 H 0.81271 0.86142 0.29369 0.0
H1435 H 0.88642 0.93629 0.06375 0.0
H1436 H 0.83866 0.86027 0.13168 0.0
H1437 H 0.86601 0.93436 0.22903 0.0
C1438 C 0.84686 0.9177 0.29715 0.0
C1439 C 0.83171 0.89719 0.31691 0.0
C1440 C 0.84913 0.87696 0.11684 0.0
C1441 C 0.84662 0.89835 0.20815 0.0
C1442 C 0.85737 0.87717 0.06327 0.0
C1443 C 0.87117 0.89843 0.04259 0.0
C1444 C 0.85476 0.8981 0.15054 0.0
C1445 C 0.87627 0.91924 0.0777 0.0
C1446 C 0.85426 0.91838 0.24307 0.0
C1447 C 0.82415 0.87776 0.28041 0.0
N1448 N 0.86812 0.91853 0.12973 0.0
N1449 N 0.83177 0.87876 0.22805 0.0
H1450 H 0.87622 0.0971 0.97289 0.0
H1451 H 0.91566 0.20617 0.75938 0.0
H1452 H 0.90676 0.17171 1.01907 0.0
H1453 H 0.87214 0.13748 0.71842 0.0
H1454 H 0.91323 0.19395 0.85428 0.0
H1455 H 0.87586 0.11121 0.87907 0.0
C1456 C 0.88292 0.11644 0.96331 0.0
C1457 C 0.89162 0.13319 1.00405 0.0
C1458 C 0.90415 0.18161 0.82449 0.0
C1459 C 0.89116 0.14958 0.89635 0.0
C1460 C 0.90537 0.18866 0.77019 0.0
C1461 C 0.89425 0.17278 0.73037 0.0
C1462 C 0.89182 0.15843 0.83932 0.0
C1463 C 0.88151 0.15011 0.74723 0.0
C1464 C 0.88255 0.12456 0.9097 0.0
C1465 C 0.8997 0.1582 0.98914 0.0
N1466 N 0.88079 0.14358 0.80019 0.0
N1467 N 0.89942 0.16556 0.93655 0.0
H1468 H 0.1023 0.08069 0.06463 0.0
H1469 H 0.20875 0.11664 0.28789 0.0
H1470 H 0.16936 0.1278 0.03084 0.0
H1471 H 0.13583 0.07963 0.32285 0.0
H1472 H 0.19628 0.11874 0.19269 0.0
H1473 H 0.11561 0.07842 0.15859 0.0
C1474 C 0.11972 0.09078 0.0769 0.0
C1475 C 0.13458 0.10462 0.03942 0.0
C1476 C 0.18301 0.11021 0.22126 0.0
C1477 C 0.15029 0.10164 0.14752 0.0
C1478 C 0.19018 0.10887 0.27557 0.0
C1479 C 0.17325 0.09809 0.31359 0.0
C1480 C 0.15883 0.1005 0.20473 0.0
C1481 C 0.14934 0.08851 0.29525 0.0
C1482 C 0.12742 0.0893 0.13069 0.0
C1483 C 0.15737 0.11668 0.05793 0.0
N1484 N 0.14289 0.08991 0.24231 0.0
N1485 N 0.1645 0.11491 0.11058 0.0
H1486 H 0.08392 0.79278 0.76303 0.0
H1487 H 0.13051 0.89921 0.97673 0.0
H1488 H 0.13072 0.85913 0.72187 0.0
H1489 H 0.09473 0.82697 1.02229 0.0
H1490 H 0.13001 0.88507 0.88291 0.0
H1491 H 0.08749 0.80476 0.85793 0.0
C1492 C 0.09516 0.80971 0.77382 0.0
C1493 C 0.10688 0.82503 0.73399 0.0
C1494 C 0.12237 0.87224 0.91341 0.0
C1495 C 0.11066 0.83912 0.8429 0.0
C1496 C 0.12251 0.88038 0.96701 0.0
C1497 C 0.11258 0.86431 1.00756 0.0
C1498 C 0.11202 0.84789 0.89992 0.0
C1499 C 0.10281 0.83992 0.99251 0.0
C1500 C 0.09706 0.81663 0.82811 0.0
C1501 C 0.12089 0.84698 0.75077 0.0
N1502 N 0.10263 0.83253 0.93995 0.0
N1503 N 0.12225 0.8534 0.80373 0.0
loop_
_geom_bond_atom_site_label_1
_geom_bond_atom_site_label_2
_geom_bond_distance
_geom_bond_site_symmetry_2
_ccdc_geom_bond_type
Dy0 O3 2.307 . S
Dy0 O5 2.395 1_554 S
Dy0 O6 2.379 1_554 S
Dy0 O8 2.339 . S
Dy0 O10 2.298 . S
Dy0 O14 2.275 . S
Dy0 C22 2.738 1_554 S
Dy1 O4 2.298 . S
Dy1 O7 2.275 . S
Dy1 O9 2.307 . S
Dy1 O11 2.395 . S
Dy1 O12 2.379 . S
Dy1 O15 2.339 . S
Dy1 C31 2.738 . S
C2 O14 1.254 . S
C2 O15 1.257 . S
O3 Dy0 2.307 . S
O3 C13 1.266 . S
O4 Dy1 2.298 . S
O4 C13 1.236 . S
O5 Dy0 2.395 1_556 S
O5 C22 1.255 . S
O6 Dy0 2.379 1_556 S
O6 C22 1.249 . S
O7 Dy1 2.275 . S
O7 C23 1.254 . S
O8 Dy0 2.339 . S
O8 C23 1.257 . S
O9 Dy1 2.307 . S
O9 C24 1.266 . S
O10 Dy0 2.298 . S
O10 C24 1.236 . S
O11 Dy1 2.395 . S
O11 C31 1.255 . S
O12 Dy1 2.379 . S
O12 C31 1.249 . S
C13 O3 1.266 . S
C13 O4 1.236 . S
O14 Dy0 2.275 . S
O14 C2 1.254 . S
O15 Dy1 2.339 . S
O15 C2 1.257 . S
C16 C19 1.344 . S
C16 C20 1.328 . S
C16 C22 1.516 . S
C17 C18 1.304 . S
C17 C21 1.323 . S
C18 C17 1.304 . S
C18 C19 1.371 . S
C18 H32 0.930 . S
C19 C16 1.344 . S
C19 C18 1.371 . S
C19 H33 0.931 . S
C20 C16 1.328 . S
C20 C21 1.433 . S
C20 H34 0.931 . S
C21 C17 1.323 . S
C21 C20 1.433 . S
C21 H35 0.933 . S
C22 Dy0 2.738 1_556 S
C22 O5 1.255 . S
C22 O6 1.249 . S
C22 C16 1.516 . S
C23 O7 1.254 . S
C23 O8 1.257 . S
C24 O9 1.266 . S
C24 O10 1.236 . S
C25 C28 1.344 . S
C25 C29 1.328 . S
C25 C31 1.516 . S
C26 C27 1.304 . S
C26 C30 1.323 . S
C27 C26 1.304 . S
C27 C28 1.371 . S
C27 H36 0.930 . S
C28 C25 1.344 . S
C28 C27 1.371 . S
C28 H37 0.931 . S
C29 C25 1.328 . S
C29 C30 1.433 . S
C29 H38 0.931 . S
C30 C26 1.323 . S
C30 C29 1.433 . S
C30 H39 0.933 . S
C31 Dy1 2.738 . S
C31 O11 1.255 . S
C31 O12 1.249 . S
C31 C25 1.516 . S
H32 C18 0.930 . S
H33 C19 0.931 . S
H34 C20 0.931 . S
H35 C21 0.933 . S
H36 C27 0.930 . S
H37 C28 0.931 . S
H38 C29 0.931 . S
H39 C30 0.933 . S
Dy40 O43 2.307 . S
Dy40 O45 2.395 . S
Dy40 O46 2.379 . S
Dy40 O48 2.339 . S
Dy40 O50 2.298 . S
Dy40 O54 2.275 . S
Dy40 C62 2.738 . S
Dy41 O44 2.298 . S
Dy41 O47 2.275 . S
Dy41 O49 2.307 . S
Dy41 O51 2.395 1_556 S
Dy41 O52 2.379 1_556 S
Dy41 O55 2.339 . S
Dy41 C71 2.738 1_556 S
C42 O54 1.254 . S
C42 O55 1.257 . S
O43 Dy40 2.307 . S
O43 C53 1.266 . S
O44 Dy41 2.298 . S
O44 C53 1.236 . S
O45 Dy40 2.395 . S
O45 C62 1.255 . S
O46 Dy40 2.379 . S
O46 C62 1.249 . S
O47 Dy41 2.275 . S
O47 C63 1.254 . S
O48 Dy40 2.339 . S
O48 C63 1.257 . S
O49 Dy41 2.307 . S
O49 C64 1.266 . S
O50 Dy40 2.298 . S
O50 C64 1.236 . S
O51 Dy41 2.395 1_554 S
O51 C71 1.255 . S
O52 Dy41 2.379 1_554 S
O52 C71 1.249 . S
C53 O43 1.266 . S
C53 O44 1.236 . S
O54 Dy40 2.275 . S
O54 C42 1.254 . S
O55 Dy41 2.339 . S
O55 C42 1.257 . S
C56 C59 1.344 . S
C56 C60 1.328 . S
C56 C62 1.516 . S
C57 C58 1.304 . S
C57 C61 1.323 . S
C58 C57 1.304 . S
C58 C59 1.371 . S
C58 H72 0.930 . S
C59 C56 1.344 . S
C59 C58 1.371 . S
C59 H73 0.931 . S
C60 C56 1.328 . S
C60 C61 1.433 . S
C60 H74 0.931 . S
C61 C57 1.323 . S
C61 C60 1.433 . S
C61 H75 0.933 . S
C62 Dy40 2.738 . S
C62 O45 1.255 . S
C62 O46 1.249 . S
C62 C56 1.516 . S
C63 O47 1.254 . S
C63 O48 1.257 . S
C64 O49 1.266 . S
C64 O50 1.236 . S
C65 C68 1.344 . S
C65 C69 1.328 . S
C65 C71 1.516 . S
C66 C67 1.304 . S
C66 C70 1.323 . S
C67 C66 1.304 . S
C67 C68 1.371 . S
C67 H76 0.930 . S
C68 C65 1.344 . S
C68 C67 1.371 . S
C68 H77 0.931 . S
C69 C65 1.328 . S
C69 C70 1.433 . S
C69 H78 0.931 . S
C70 C66 1.323 . S
C70 C69 1.433 . S
C70 H79 0.933 . S
C71 Dy41 2.738 1_554 S
C71 O51 1.255 . S
C71 O52 1.249 . S
C71 C65 1.516 . S
H72 C58 0.930 . S
H73 C59 0.931 . S
H74 C60 0.931 . S
H75 C61 0.933 . S
H76 C67 0.930 . S
H77 C68 0.931 . S
H78 C69 0.931 . S
H79 C70 0.933 . S
Dy80 O83 2.307 . S
Dy80 O85 2.395 1_554 S
Dy80 O86 2.379 1_554 S
Dy80 O88 2.339 . S
Dy80 O90 2.298 . S
Dy80 O94 2.275 . S
Dy80 C102 2.738 1_554 S
Dy81 O84 2.298 . S
Dy81 O87 2.275 . S
Dy81 O89 2.307 . S
Dy81 O91 2.395 . S
Dy81 O92 2.379 . S
Dy81 O95 2.339 . S
Dy81 C111 2.738 . S
C82 O94 1.254 . S
C82 O95 1.257 . S
O83 Dy80 2.307 . S
O83 C93 1.266 . S
O84 Dy81 2.298 . S
O84 C93 1.236 . S
O85 Dy80 2.395 1_556 S
O85 C102 1.255 . S
O86 Dy80 2.379 1_556 S
O86 C102 1.249 . S
O87 Dy81 2.275 . S
O87 C103 1.254 . S
O88 Dy80 2.339 . S
O88 C103 1.257 . S
O89 Dy81 2.307 . S
O89 C104 1.266 . S
O90 Dy80 2.298 . S
O90 C104 1.236 . S
O91 Dy81 2.395 . S
O91 C111 1.255 . S
O92 Dy81 2.379 . S
O92 C111 1.249 . S
C93 O83 1.266 . S
C93 O84 1.236 . S
O94 Dy80 2.275 . S
O94 C82 1.254 . S
O95 Dy81 2.339 . S
O95 C82 1.257 . S
C96 C99 1.344 . S
C96 C100 1.328 . S
C96 C102 1.516 . S
C97 C98 1.304 . S
C97 C101 1.323 . S
C98 C97 1.304 . S
C98 C99 1.371 . S
C98 H112 0.930 . S
C99 C96 1.344 . S
C99 C98 1.371 . S
C99 H113 0.931 . S
C100 C96 1.328 . S
C100 C101 1.433 . S
C100 H114 0.931 . S
C101 C97 1.323 . S
C101 C100 1.433 . S
C101 H115 0.933 . S
C102 Dy80 2.738 1_556 S
C102 O85 1.255 . S
C102 O86 1.249 . S
C102 C96 1.516 . S
C103 O87 1.254 . S
C103 O88 1.257 . S
C104 O89 1.266 . S
C104 O90 1.236 . S
C105 C108 1.344 . S
C105 C109 1.328 . S
C105 C111 1.516 . S
C106 C107 1.304 . S
C106 C110 1.323 . S
C107 C106 1.304 . S
C107 C108 1.371 . S
C107 H116 0.930 . S
C108 C105 1.344 . S
C108 C107 1.371 . S
C108 H117 0.931 . S
C109 C105 1.328 . S
C109 C110 1.433 . S
C109 H118 0.931 . S
C110 C106 1.323 . S
C110 C109 1.433 . S
C110 H119 0.933 . S
C111 Dy81 2.738 . S
C111 O91 1.255 . S
C111 O92 1.249 . S
C111 C105 1.516 . S
H112 C98 0.930 . S
H113 C99 0.931 . S
H114 C100 0.931 . S
H115 C101 0.933 . S
H116 C107 0.930 . S
H117 C108 0.931 . S
H118 C109 0.931 . S
H119 C110 0.933 . S
Dy120 O123 2.307 . S
Dy120 O125 2.395 . S
Dy120 O126 2.379 . S
Dy120 O128 2.339 . S
Dy120 O130 2.298 . S
Dy120 O134 2.275 . S
Dy120 C142 2.738 . S
Dy121 O124 2.298 . S
Dy121 O127 2.275 . S
Dy121 O129 2.307 . S
Dy121 O131 2.395 1_556 S
Dy121 O132 2.379 1_556 S
Dy121 O135 2.339 . S
Dy121 C151 2.738 1_556 S
C122 O134 1.254 . S
C122 O135 1.257 . S
O123 Dy120 2.307 . S
O123 C133 1.266 . S
O124 Dy121 2.298 . S
O124 C133 1.236 . S
O125 Dy120 2.395 . S
O125 C142 1.255 . S
O126 Dy120 2.379 . S
O126 C142 1.249 . S
O127 Dy121 2.275 . S
O127 C143 1.254 . S
O128 Dy120 2.339 . S
O128 C143 1.257 . S
O129 Dy121 2.307 . S
O129 C144 1.266 . S
O130 Dy120 2.298 . S
O130 C144 1.236 . S
O131 Dy121 2.395 1_554 S
O131 C151 1.255 . S
O132 Dy121 2.379 1_554 S
O132 C151 1.249 . S
C133 O123 1.266 . S
C133 O124 1.236 . S
O134 Dy120 2.275 . S
O134 C122 1.254 . S
O135 Dy121 2.339 . S
O135 C122 1.257 . S
C136 C139 1.344 . S
C136 C140 1.328 . S
C136 C142 1.516 . S
C137 C138 1.304 . S
C137 C141 1.323 . S
C138 C137 1.304 . S
C138 C139 1.371 . S
C138 H152 0.930 . S
C139 C136 1.344 . S
C139 C138 1.371 . S
C139 H153 0.931 . S
C140 C136 1.328 . S
C140 C141 1.433 . S
C140 H154 0.931 . S
C141 C137 1.323 . S
C141 C140 1.433 . S
C141 H155 0.933 . S
C142 Dy120 2.738 . S
C142 O125 1.255 . S
C142 O126 1.249 . S
C142 C136 1.516 . S
C143 O127 1.254 . S
C143 O128 1.257 . S
C144 O129 1.266 . S
C144 O130 1.236 . S
C145 C148 1.344 . S
C145 C149 1.328 . S
C145 C151 1.516 . S
C146 C147 1.304 . S
C146 C150 1.323 . S
C147 C146 1.304 . S
C147 C148 1.371 . S
C147 H156 0.930 . S
C148 C145 1.344 . S
C148 C147 1.371 . S
C148 H157 0.931 . S
C149 C145 1.328 . S
C149 C150 1.433 . S
C149 H158 0.931 . S
C150 C146 1.323 . S
C150 C149 1.433 . S
C150 H159 0.933 . S
C151 Dy121 2.738 1_554 S
C151 O131 1.255 . S
C151 O132 1.249 . S
C151 C145 1.516 . S
H152 C138 0.930 . S
H153 C139 0.931 . S
H154 C140 0.931 . S
H155 C141 0.933 . S
H156 C147 0.930 . S
H157 C148 0.931 . S
H158 C149 0.931 . S
H159 C150 0.933 . S
Dy160 O163 2.307 . S
Dy160 O165 2.395 . S
Dy160 O166 2.379 . S
Dy160 O168 2.339 . S
Dy160 O170 2.298 . S
Dy160 O174 2.275 . S
Dy160 C182 2.738 . S
Dy161 O164 2.298 . S
Dy161 O167 2.275 . S
Dy161 O169 2.307 . S
Dy161 O171 2.395 1_554 S
Dy161 O172 2.379 1_554 S
Dy161 O175 2.339 . S
Dy161 C191 2.738 1_554 S
C162 O174 1.254 . S
C162 O175 1.257 . S
O163 Dy160 2.307 . S
O163 C173 1.266 . S
O164 Dy161 2.298 . S
O164 C173 1.236 . S
O165 Dy160 2.395 . S
O165 C182 1.255 . S
O166 Dy160 2.379 . S
O166 C182 1.249 . S
O167 Dy161 2.275 . S
O167 C183 1.254 . S
O168 Dy160 2.339 . S
O168 C183 1.257 . S
O169 Dy161 2.307 . S
O169 C184 1.266 . S
O170 Dy160 2.298 . S
O170 C184 1.236 . S
O171 Dy161 2.395 1_556 S
O171 C191 1.255 . S
O172 Dy161 2.379 1_556 S
O172 C191 1.249 . S
C173 O163 1.266 . S
C173 O164 1.236 . S
O174 Dy160 2.275 . S
O174 C162 1.254 . S
O175 Dy161 2.339 . S
O175 C162 1.257 . S
C176 C179 1.344 . S
C176 C180 1.328 . S
C176 C182 1.516 . S
C177 C178 1.304 . S
C177 C181 1.323 . S
C178 C177 1.304 . S
C178 C179 1.371 . S
C178 H192 0.930 . S
C179 C176 1.344 . S
C179 C178 1.371 . S
C179 H193 0.931 . S
C180 C176 1.328 . S
C180 C181 1.433 . S
C180 H194 0.931 . S
C181 C177 1.323 . S
C181 C180 1.433 . S
C181 H195 0.933 . S
C182 Dy160 2.738 . S
C182 O165 1.255 . S
C182 O166 1.249 . S
C182 C176 1.516 . S
C183 O167 1.254 . S
C183 O168 1.257 . S
C184 O169 1.266 . S
C184 O170 1.236 . S
C185 C188 1.344 . S
C185 C189 1.328 . S
C185 C191 1.516 . S
C186 C187 1.304 . S
C186 C190 1.323 . S
C187 C186 1.304 . S
C187 C188 1.371 . S
C187 H196 0.930 . S
C188 C185 1.344 . S
C188 C187 1.371 . S
C188 H197 0.931 . S
C189 C185 1.328 . S
C189 C190 1.433 . S
C189 H198 0.931 . S
C190 C186 1.323 . S
C190 C189 1.433 . S
C190 H199 0.933 . S
C191 Dy161 2.738 1_556 S
C191 O171 1.255 . S
C191 O172 1.249 . S
C191 C185 1.516 . S
H192 C178 0.930 . S
H193 C179 0.931 . S
H194 C180 0.931 . S
H195 C181 0.933 . S
H196 C187 0.930 . S
H197 C188 0.931 . S
H198 C189 0.931 . S
H199 C190 0.933 . S
Dy200 O203 2.307 . S
Dy200 O205 2.395 1_556 S
Dy200 O206 2.379 1_556 S
Dy200 O208 2.339 . S
Dy200 O210 2.298 . S
Dy200 O214 2.275 . S
Dy200 C222 2.738 1_556 S
Dy201 O204 2.298 . S
Dy201 O207 2.275 . S
Dy201 O209 2.307 . S
Dy201 O211 2.395 . S
Dy201 O212 2.379 . S
Dy201 O215 2.339 . S
Dy201 C231 2.738 . S
C202 O214 1.254 . S
C202 O215 1.257 . S
O203 Dy200 2.307 . S
O203 C213 1.266 . S
O204 Dy201 2.298 . S
O204 C213 1.236 . S
O205 Dy200 2.395 1_554 S
O205 C222 1.255 . S
O206 Dy200 2.379 1_554 S
O206 C222 1.249 . S
O207 Dy201 2.275 . S
O207 C223 1.254 . S
O208 Dy200 2.339 . S
O208 C223 1.257 . S
O209 Dy201 2.307 . S
O209 C224 1.266 . S
O210 Dy200 2.298 . S
O210 C224 1.236 . S
O211 Dy201 2.395 . S
O211 C231 1.255 . S
O212 Dy201 2.379 . S
O212 C231 1.249 . S
C213 O203 1.266 . S
C213 O204 1.236 . S
O214 Dy200 2.275 . S
O214 C202 1.254 . S
O215 Dy201 2.339 . S
O215 C202 1.257 . S
C216 C219 1.344 . S
C216 C220 1.328 . S
C216 C222 1.516 . S
C217 C218 1.304 . S
C217 C221 1.323 . S
C218 C217 1.304 . S
C218 C219 1.371 . S
C218 H232 0.930 . S
C219 C216 1.344 . S
C219 C218 1.371 . S
C219 H233 0.931 . S
C220 C216 1.328 . S
C220 C221 1.433 . S
C220 H234 0.931 . S
C221 C217 1.323 . S
C221 C220 1.433 . S
C221 H235 0.933 . S
C222 Dy200 2.738 1_554 S
C222 O205 1.255 . S
C222 O206 1.249 . S
C222 C216 1.516 . S
C223 O207 1.254 . S
C223 O208 1.257 . S
C224 O209 1.266 . S
C224 O210 1.236 . S
C225 C228 1.344 . S
C225 C229 1.328 . S
C225 C231 1.516 . S
C226 C227 1.304 . S
C226 C230 1.323 . S
C227 C226 1.304 . S
C227 C228 1.371 . S
C227 H236 0.930 . S
C228 C225 1.344 . S
C228 C227 1.371 . S
C228 H237 0.931 . S
C229 C225 1.328 . S
C229 C230 1.433 . S
C229 H238 0.931 . S
C230 C226 1.323 . S
C230 C229 1.433 . S
C230 H239 0.933 . S
C231 Dy201 2.738 . S
C231 O211 1.255 . S
C231 O212 1.249 . S
C231 C225 1.516 . S
H232 C218 0.930 . S
H233 C219 0.931 . S
H234 C220 0.931 . S
H235 C221 0.933 . S
H236 C227 0.930 . S
H237 C228 0.931 . S
H238 C229 0.931 . S
H239 C230 0.933 . S
Dy240 O243 2.307 . S
Dy240 O245 2.395 . S
Dy240 O246 2.379 . S
Dy240 O248 2.339 . S
Dy240 O250 2.298 . S
Dy240 O254 2.275 . S
Dy240 C262 2.738 . S
Dy241 O244 2.298 . S
Dy241 O247 2.275 . S
Dy241 O249 2.307 . S
Dy241 O251 2.395 1_554 S
Dy241 O252 2.379 1_554 S
Dy241 O255 2.339 . S
Dy241 C271 2.738 1_554 S
C242 O254 1.254 . S
C242 O255 1.257 . S
O243 Dy240 2.307 . S
O243 C253 1.266 . S
O244 Dy241 2.298 . S
O244 C253 1.236 . S
O245 Dy240 2.395 . S
O245 C262 1.255 . S
O246 Dy240 2.379 . S
O246 C262 1.249 . S
O247 Dy241 2.275 . S
O247 C263 1.254 . S
O248 Dy240 2.339 . S
O248 C263 1.257 . S
O249 Dy241 2.307 . S
O249 C264 1.266 . S
O250 Dy240 2.298 . S
O250 C264 1.236 . S
O251 Dy241 2.395 1_556 S
O251 C271 1.255 . S
O252 Dy241 2.379 1_556 S
O252 C271 1.249 . S
C253 O243 1.266 . S
C253 O244 1.236 . S
O254 Dy240 2.275 . S
O254 C242 1.254 . S
O255 Dy241 2.339 . S
O255 C242 1.257 . S
C256 C259 1.344 . S
C256 C260 1.328 . S
C256 C262 1.516 . S
C257 C258 1.304 . S
C257 C261 1.323 . S
C258 C257 1.304 . S
C258 C259 1.371 . S
C258 H272 0.930 . S
C259 C256 1.344 . S
C259 C258 1.371 . S
C259 H273 0.931 . S
C260 C256 1.328 . S
C260 C261 1.433 . S
C260 H274 0.931 . S
C261 C257 1.323 . S
C261 C260 1.433 . S
C261 H275 0.933 . S
C262 Dy240 2.738 . S
C262 O245 1.255 . S
C262 O246 1.249 . S
C262 C256 1.516 . S
C263 O247 1.254 . S
C263 O248 1.257 . S
C264 O249 1.266 . S
C264 O250 1.236 . S
C265 C268 1.344 . S
C265 C269 1.328 . S
C265 C271 1.516 . S
C266 C267 1.304 . S
C266 C270 1.323 . S
C267 C266 1.304 . S
C267 C268 1.371 . S
C267 H276 0.930 . S
C268 C265 1.344 . S
C268 C267 1.371 . S
C268 H277 0.931 . S
C269 C265 1.328 . S
C269 C270 1.433 . S
C269 H278 0.931 . S
C270 C266 1.323 . S
C270 C269 1.433 . S
C270 H279 0.933 . S
C271 Dy241 2.738 1_556 S
C271 O251 1.255 . S
C271 O252 1.249 . S
C271 C265 1.516 . S
H272 C258 0.930 . S
H273 C259 0.931 . S
H274 C260 0.931 . S
H275 C261 0.933 . S
H276 C267 0.930 . S
H277 C268 0.931 . S
H278 C269 0.931 . S
H279 C270 0.933 . S
Dy280 O283 2.307 . S
Dy280 O285 2.395 1_556 S
Dy280 O286 2.379 1_556 S
Dy280 O288 2.339 . S
Dy280 O290 2.298 . S
Dy280 O294 2.275 . S
Dy280 C302 2.738 1_556 S
Dy281 O284 2.298 . S
Dy281 O287 2.275 . S
Dy281 O289 2.307 . S
Dy281 O291 2.395 . S
Dy281 O292 2.379 . S
Dy281 O295 2.339 . S
Dy281 C311 2.738 . S
C282 O294 1.254 . S
C282 O295 1.257 . S
O283 Dy280 2.307 . S
O283 C293 1.266 . S
O284 Dy281 2.298 . S
O284 C293 1.236 . S
O285 Dy280 2.395 1_554 S
O285 C302 1.255 . S
O286 Dy280 2.379 1_554 S
O286 C302 1.249 . S
O287 Dy281 2.275 . S
O287 C303 1.254 . S
O288 Dy280 2.339 . S
O288 C303 1.257 . S
O289 Dy281 2.307 . S
O289 C304 1.266 . S
O290 Dy280 2.298 . S
O290 C304 1.236 . S
O291 Dy281 2.395 . S
O291 C311 1.255 . S
O292 Dy281 2.379 . S
O292 C311 1.249 . S
C293 O283 1.266 . S
C293 O284 1.236 . S
O294 Dy280 2.275 . S
O294 C282 1.254 . S
O295 Dy281 2.339 . S
O295 C282 1.257 . S
C296 C299 1.344 . S
C296 C300 1.328 . S
C296 C302 1.516 . S
C297 C298 1.304 . S
C297 C301 1.323 . S
C298 C297 1.304 . S
C298 C299 1.371 . S
C298 H312 0.930 . S
C299 C296 1.344 . S
C299 C298 1.371 . S
C299 H313 0.931 . S
C300 C296 1.328 . S
C300 C301 1.433 . S
C300 H314 0.931 . S
C301 C297 1.323 . S
C301 C300 1.433 . S
C301 H315 0.933 . S
C302 Dy280 2.738 1_554 S
C302 O285 1.255 . S
C302 O286 1.249 . S
C302 C296 1.516 . S
C303 O287 1.254 . S
C303 O288 1.257 . S
C304 O289 1.266 . S
C304 O290 1.236 . S
C305 C308 1.344 . S
C305 C309 1.328 . S
C305 C311 1.516 . S
C306 C307 1.304 . S
C306 C310 1.323 . S
C307 C306 1.304 . S
C307 C308 1.371 . S
C307 H316 0.930 . S
C308 C305 1.344 . S
C308 C307 1.371 . S
C308 H317 0.931 . S
C309 C305 1.328 . S
C309 C310 1.433 . S
C309 H318 0.931 . S
C310 C306 1.323 . S
C310 C309 1.433 . S
C310 H319 0.933 . S
C311 Dy281 2.738 . S
C311 O291 1.255 . S
C311 O292 1.249 . S
C311 C305 1.516 . S
H312 C298 0.930 . S
H313 C299 0.931 . S
H314 C300 0.931 . S
H315 C301 0.933 . S
H316 C307 0.930 . S
H317 C308 0.931 . S
H318 C309 0.931 . S
H319 C310 0.933 . S
Dy320 O323 2.307 . S
Dy320 O325 2.395 . S
Dy320 O326 2.379 . S
Dy320 O328 2.339 . S
Dy320 O330 2.298 . S
Dy320 O334 2.275 . S
Dy320 C342 2.738 . S
Dy321 O324 2.298 . S
Dy321 O327 2.275 . S
Dy321 O329 2.307 . S
Dy321 O331 2.395 . S
Dy321 O332 2.379 . S
Dy321 O335 2.339 . S
Dy321 C351 2.738 . S
C322 O334 1.254 . S
C322 O335 1.257 . S
O323 Dy320 2.307 . S
O323 C333 1.266 . S
O324 Dy321 2.298 . S
O324 C333 1.236 . S
O325 Dy320 2.395 . S
O325 C342 1.255 . S
O326 Dy320 2.379 . S
O326 C342 1.249 . S
O327 Dy321 2.275 . S
O327 C343 1.254 . S
O328 Dy320 2.339 . S
O328 C343 1.257 . S
O329 Dy321 2.307 . S
O329 C344 1.266 . S
O330 Dy320 2.298 . S
O330 C344 1.236 . S
O331 Dy321 2.395 . S
O331 C351 1.255 . S
O332 Dy321 2.379 . S
O332 C351 1.249 . S
C333 O323 1.266 . S
C333 O324 1.236 . S
O334 Dy320 2.275 . S
O334 C322 1.254 . S
O335 Dy321 2.339 . S
O335 C322 1.257 . S
C336 C339 1.344 . S
C336 C340 1.328 . S
C336 C342 1.516 . S
C337 C338 1.304 . S
C337 C341 1.323 . S
C338 C337 1.304 . S
C338 C339 1.371 . S
C338 H352 0.930 . S
C339 C336 1.344 . S
C339 C338 1.371 . S
C339 H353 0.931 . S
C340 C336 1.328 . S
C340 C341 1.433 . S
C340 H354 0.931 . S
C341 C337 1.323 . S
C341 C340 1.433 . S
C341 H355 0.933 . S
C342 Dy320 2.738 . S
C342 O325 1.255 . S
C342 O326 1.249 . S
C342 C336 1.516 . S
C343 O327 1.254 . S
C343 O328 1.257 . S
C344 O329 1.266 . S
C344 O330 1.236 . S
C345 C348 1.344 . S
C345 C349 1.328 . S
C345 C351 1.516 . S
C346 C347 1.304 . S
C346 C350 1.323 . S
C347 C346 1.304 . S
C347 C348 1.371 . S
C347 H356 0.930 . S
C348 C345 1.344 . S
C348 C347 1.371 . S
C348 H357 0.931 . S
C349 C345 1.328 . S
C349 C350 1.433 . S
C349 H358 0.931 . S
C350 C346 1.323 . S
C350 C349 1.433 . S
C350 H359 0.933 . S
C351 Dy321 2.738 . S
C351 O331 1.255 . S
C351 O332 1.249 . S
C351 C345 1.516 . S
H352 C338 0.930 . S
H353 C339 0.931 . S
H354 C340 0.931 . S
H355 C341 0.933 . S
H356 C347 0.930 . S
H357 C348 0.931 . S
H358 C349 0.931 . S
H359 C350 0.933 . S
Dy360 O363 2.307 . S
Dy360 O365 2.395 . S
Dy360 O366 2.379 . S
Dy360 O368 2.339 . S
Dy360 O370 2.298 . S
Dy360 O374 2.275 . S
Dy360 C382 2.738 . S
Dy361 O364 2.298 . S
Dy361 O367 2.275 . S
Dy361 O369 2.307 . S
Dy361 O371 2.395 . S
Dy361 O372 2.379 . S
Dy361 O375 2.339 . S
Dy361 C391 2.738 . S
C362 O374 1.254 . S
C362 O375 1.257 . S
O363 Dy360 2.307 . S
O363 C373 1.266 . S
O364 Dy361 2.298 . S
O364 C373 1.236 . S
O365 Dy360 2.395 . S
O365 C382 1.255 . S
O366 Dy360 2.379 . S
O366 C382 1.249 . S
O367 Dy361 2.275 . S
O367 C383 1.254 . S
O368 Dy360 2.339 . S
O368 C383 1.257 . S
O369 Dy361 2.307 . S
O369 C384 1.266 . S
O370 Dy360 2.298 . S
O370 C384 1.236 . S
O371 Dy361 2.395 . S
O371 C391 1.255 . S
O372 Dy361 2.379 . S
O372 C391 1.249 . S
C373 O363 1.266 . S
C373 O364 1.236 . S
O374 Dy360 2.275 . S
O374 C362 1.254 . S
O375 Dy361 2.339 . S
O375 C362 1.257 . S
C376 C379 1.344 . S
C376 C380 1.328 . S
C376 C382 1.516 . S
C377 C378 1.304 . S
C377 C381 1.323 . S
C378 C377 1.304 . S
C378 C379 1.371 . S
C378 H392 0.930 . S
C379 C376 1.344 . S
C379 C378 1.371 . S
C379 H393 0.931 . S
C380 C376 1.328 . S
C380 C381 1.433 . S
C380 H394 0.931 . S
C381 C377 1.323 . S
C381 C380 1.433 . S
C381 H395 0.933 . S
C382 Dy360 2.738 . S
C382 O365 1.255 . S
C382 O366 1.249 . S
C382 C376 1.516 . S
C383 O367 1.254 . S
C383 O368 1.257 . S
C384 O369 1.266 . S
C384 O370 1.236 . S
C385 C388 1.344 . S
C385 C389 1.328 . S
C385 C391 1.516 . S
C386 C387 1.304 . S
C386 C390 1.323 . S
C387 C386 1.304 . S
C387 C388 1.371 . S
C387 H396 0.930 . S
C388 C385 1.344 . S
C388 C387 1.371 . S
C388 H397 0.931 . S
C389 C385 1.328 . S
C389 C390 1.433 . S
C389 H398 0.931 . S
C390 C386 1.323 . S
C390 C389 1.433 . S
C390 H399 0.933 . S
C391 Dy361 2.738 . S
C391 O371 1.255 . S
C391 O372 1.249 . S
C391 C385 1.516 . S
H392 C378 0.930 . S
H393 C379 0.931 . S
H394 C380 0.931 . S
H395 C381 0.933 . S
H396 C387 0.930 . S
H397 C388 0.931 . S
H398 C389 0.931 . S
H399 C390 0.933 . S
Dy400 O403 2.307 . S
Dy400 O405 2.395 . S
Dy400 O406 2.379 . S
Dy400 O408 2.339 . S
Dy400 O410 2.298 . S
Dy400 O414 2.275 . S
Dy400 C422 2.738 . S
Dy401 O404 2.298 . S
Dy401 O407 2.275 . S
Dy401 O409 2.307 . S
Dy401 O411 2.395 . S
Dy401 O412 2.379 . S
Dy401 O415 2.339 . S
Dy401 C431 2.738 . S
C402 O414 1.254 . S
C402 O415 1.257 . S
O403 Dy400 2.307 . S
O403 C413 1.266 . S
O404 Dy401 2.298 . S
O404 C413 1.236 . S
O405 Dy400 2.395 . S
O405 C422 1.255 . S
O406 Dy400 2.379 . S
O406 C422 1.249 . S
O407 Dy401 2.275 . S
O407 C423 1.254 . S
O408 Dy400 2.339 . S
O408 C423 1.257 . S
O409 Dy401 2.307 . S
O409 C424 1.266 . S
O410 Dy400 2.298 . S
O410 C424 1.236 . S
O411 Dy401 2.395 . S
O411 C431 1.255 . S
O412 Dy401 2.379 . S
O412 C431 1.249 . S
C413 O403 1.266 . S
C413 O404 1.236 . S
O414 Dy400 2.275 . S
O414 C402 1.254 . S
O415 Dy401 2.339 . S
O415 C402 1.257 . S
C416 C419 1.344 . S
C416 C420 1.328 . S
C416 C422 1.516 . S
C417 C418 1.304 . S
C417 C421 1.323 . S
C418 C417 1.304 . S
C418 C419 1.371 . S
C418 H432 0.930 . S
C419 C416 1.344 . S
C419 C418 1.371 . S
C419 H433 0.931 . S
C420 C416 1.328 . S
C420 C421 1.433 . S
C420 H434 0.931 . S
C421 C417 1.323 . S
C421 C420 1.433 . S
C421 H435 0.933 . S
C422 Dy400 2.738 . S
C422 O405 1.255 . S
C422 O406 1.249 . S
C422 C416 1.516 . S
C423 O407 1.254 . S
C423 O408 1.257 . S
C424 O409 1.266 . S
C424 O410 1.236 . S
C425 C428 1.344 . S
C425 C429 1.328 . S
C425 C431 1.516 . S
C426 C427 1.304 . S
C426 C430 1.323 . S
C427 C426 1.304 . S
C427 C428 1.371 . S
C427 H436 0.930 . S
C428 C425 1.344 . S
C428 C427 1.371 . S
C428 H437 0.931 . S
C429 C425 1.328 . S
C429 C430 1.433 . S
C429 H438 0.931 . S
C430 C426 1.323 . S
C430 C429 1.433 . S
C430 H439 0.933 . S
C431 Dy401 2.738 . S
C431 O411 1.255 . S
C431 O412 1.249 . S
C431 C425 1.516 . S
H432 C418 0.930 . S
H433 C419 0.931 . S
H434 C420 0.931 . S
H435 C421 0.933 . S
H436 C427 0.930 . S
H437 C428 0.931 . S
H438 C429 0.931 . S
H439 C430 0.933 . S
Dy440 O443 2.307 . S
Dy440 O445 2.395 . S
Dy440 O446 2.379 . S
Dy440 O448 2.339 . S
Dy440 O450 2.298 . S
Dy440 O454 2.275 . S
Dy440 C462 2.738 . S
Dy441 O444 2.298 . S
Dy441 O447 2.275 . S
Dy441 O449 2.307 . S
Dy441 O451 2.395 . S
Dy441 O452 2.379 . S
Dy441 O455 2.339 . S
Dy441 C471 2.738 . S
C442 O454 1.254 . S
C442 O455 1.257 . S
O443 Dy440 2.307 . S
O443 C453 1.266 . S
O444 Dy441 2.298 . S
O444 C453 1.236 . S
O445 Dy440 2.395 . S
O445 C462 1.255 . S
O446 Dy440 2.379 . S
O446 C462 1.249 . S
O447 Dy441 2.275 . S
O447 C463 1.254 . S
O448 Dy440 2.339 . S
O448 C463 1.257 . S
O449 Dy441 2.307 . S
O449 C464 1.266 . S
O450 Dy440 2.298 . S
O450 C464 1.236 . S
O451 Dy441 2.395 . S
O451 C471 1.255 . S
O452 Dy441 2.379 . S
O452 C471 1.249 . S
C453 O443 1.266 . S
C453 O444 1.236 . S
O454 Dy440 2.275 . S
O454 C442 1.254 . S
O455 Dy441 2.339 . S
O455 C442 1.257 . S
C456 C459 1.344 . S
C456 C460 1.328 . S
C456 C462 1.516 . S
C457 C458 1.304 . S
C457 C461 1.323 . S
C458 C457 1.304 . S
C458 C459 1.371 . S
C458 H472 0.930 . S
C459 C456 1.344 . S
C459 C458 1.371 . S
C459 H473 0.931 . S
C460 C456 1.328 . S
C460 C461 1.433 . S
C460 H474 0.931 . S
C461 C457 1.323 . S
C461 C460 1.433 . S
C461 H475 0.933 . S
C462 Dy440 2.738 . S
C462 O445 1.255 . S
C462 O446 1.249 . S
C462 C456 1.516 . S
C463 O447 1.254 . S
C463 O448 1.257 . S
C464 O449 1.266 . S
C464 O450 1.236 . S
C465 C468 1.344 . S
C465 C469 1.328 . S
C465 C471 1.516 . S
C466 C467 1.304 . S
C466 C470 1.323 . S
C467 C466 1.304 . S
C467 C468 1.371 . S
C467 H476 0.930 . S
C468 C465 1.344 . S
C468 C467 1.371 . S
C468 H477 0.931 . S
C469 C465 1.328 . S
C469 C470 1.433 . S
C469 H478 0.931 . S
C470 C466 1.323 . S
C470 C469 1.433 . S
C470 H479 0.933 . S
C471 Dy441 2.738 . S
C471 O451 1.255 . S
C471 O452 1.249 . S
C471 C465 1.516 . S
H472 C458 0.930 . S
H473 C459 0.931 . S
H474 C460 0.931 . S
H475 C461 0.933 . S
H476 C467 0.930 . S
H477 C468 0.931 . S
H478 C469 0.931 . S
H479 C470 0.933 . S
Dy480 O483 2.307 . S
Dy480 O485 2.395 . S
Dy480 O486 2.379 . S
Dy480 O488 2.339 . S
Dy480 O490 2.298 . S
Dy480 O494 2.275 . S
Dy480 C502 2.738 . S
Dy481 O484 2.298 . S
Dy481 O487 2.275 . S
Dy481 O489 2.307 . S
Dy481 O491 2.395 . S
Dy481 O492 2.379 . S
Dy481 O495 2.339 . S
Dy481 C511 2.738 . S
C482 O494 1.254 . S
C482 O495 1.257 . S
O483 Dy480 2.307 . S
O483 C493 1.266 . S
O484 Dy481 2.298 . S
O484 C493 1.236 . S
O485 Dy480 2.395 . S
O485 C502 1.255 . S
O486 Dy480 2.379 . S
O486 C502 1.249 . S
O487 Dy481 2.275 . S
O487 C503 1.254 . S
O488 Dy480 2.339 . S
O488 C503 1.257 . S
O489 Dy481 2.307 . S
O489 C504 1.266 . S
O490 Dy480 2.298 . S
O490 C504 1.236 . S
O491 Dy481 2.395 . S
O491 C511 1.255 . S
O492 Dy481 2.379 . S
O492 C511 1.249 . S
C493 O483 1.266 . S
C493 O484 1.236 . S
O494 Dy480 2.275 . S
O494 C482 1.254 . S
O495 Dy481 2.339 . S
O495 C482 1.257 . S
C496 C499 1.344 . S
C496 C500 1.328 . S
C496 C502 1.516 . S
C497 C498 1.304 . S
C497 C501 1.323 . S
C498 C497 1.304 . S
C498 C499 1.371 . S
C498 H512 0.930 . S
C499 C496 1.344 . S
C499 C498 1.371 . S
C499 H513 0.931 . S
C500 C496 1.328 . S
C500 C501 1.433 . S
C500 H514 0.931 . S
C501 C497 1.323 . S
C501 C500 1.433 . S
C501 H515 0.933 . S
C502 Dy480 2.738 . S
C502 O485 1.255 . S
C502 O486 1.249 . S
C502 C496 1.516 . S
C503 O487 1.254 . S
C503 O488 1.257 . S
C504 O489 1.266 . S
C504 O490 1.236 . S
C505 C508 1.344 . S
C505 C509 1.328 . S
C505 C511 1.516 . S
C506 C507 1.304 . S
C506 C510 1.323 . S
C507 C506 1.304 . S
C507 C508 1.371 . S
C507 H516 0.930 . S
C508 C505 1.344 . S
C508 C507 1.371 . S
C508 H517 0.931 . S
C509 C505 1.328 . S
C509 C510 1.433 . S
C509 H518 0.931 . S
C510 C506 1.323 . S
C510 C509 1.433 . S
C510 H519 0.933 . S
C511 Dy481 2.738 . S
C511 O491 1.255 . S
C511 O492 1.249 . S
C511 C505 1.516 . S
H512 C498 0.930 . S
H513 C499 0.931 . S
H514 C500 0.931 . S
H515 C501 0.933 . S
H516 C507 0.930 . S
H517 C508 0.931 . S
H518 C509 0.931 . S
H519 C510 0.933 . S
Dy520 O523 2.307 . S
Dy520 O525 2.395 . S
Dy520 O526 2.379 . S
Dy520 O528 2.339 . S
Dy520 O530 2.298 . S
Dy520 O534 2.275 . S
Dy520 C542 2.738 . S
Dy521 O524 2.298 . S
Dy521 O527 2.275 . S
Dy521 O529 2.307 . S
Dy521 O531 2.395 . S
Dy521 O532 2.379 . S
Dy521 O535 2.339 . S
Dy521 C551 2.738 . S
C522 O534 1.254 . S
C522 O535 1.257 . S
O523 Dy520 2.307 . S
O523 C533 1.266 . S
O524 Dy521 2.298 . S
O524 C533 1.236 . S
O525 Dy520 2.395 . S
O525 C542 1.255 . S
O526 Dy520 2.379 . S
O526 C542 1.249 . S
O527 Dy521 2.275 . S
O527 C543 1.254 . S
O528 Dy520 2.339 . S
O528 C543 1.257 . S
O529 Dy521 2.307 . S
O529 C544 1.266 . S
O530 Dy520 2.298 . S
O530 C544 1.236 . S
O531 Dy521 2.395 . S
O531 C551 1.255 . S
O532 Dy521 2.379 . S
O532 C551 1.249 . S
C533 O523 1.266 . S
C533 O524 1.236 . S
O534 Dy520 2.275 . S
O534 C522 1.254 . S
O535 Dy521 2.339 . S
O535 C522 1.257 . S
C536 C539 1.344 . S
C536 C540 1.328 . S
C536 C542 1.516 . S
C537 C538 1.304 . S
C537 C541 1.323 . S
C538 C537 1.304 . S
C538 C539 1.371 . S
C538 H552 0.930 . S
C539 C536 1.344 . S
C539 C538 1.371 . S
C539 H553 0.931 . S
C540 C536 1.328 . S
C540 C541 1.433 . S
C540 H554 0.931 . S
C541 C537 1.323 . S
C541 C540 1.433 . S
C541 H555 0.933 . S
C542 Dy520 2.738 . S
C542 O525 1.255 . S
C542 O526 1.249 . S
C542 C536 1.516 . S
C543 O527 1.254 . S
C543 O528 1.257 . S
C544 O529 1.266 . S
C544 O530 1.236 . S
C545 C548 1.344 . S
C545 C549 1.328 . S
C545 C551 1.516 . S
C546 C547 1.304 . S
C546 C550 1.323 . S
C547 C546 1.304 . S
C547 C548 1.371 . S
C547 H556 0.930 . S
C548 C545 1.344 . S
C548 C547 1.371 . S
C548 H557 0.931 . S
C549 C545 1.328 . S
C549 C550 1.433 . S
C549 H558 0.931 . S
C550 C546 1.323 . S
C550 C549 1.433 . S
C550 H559 0.933 . S
C551 Dy521 2.738 . S
C551 O531 1.255 . S
C551 O532 1.249 . S
C551 C545 1.516 . S
H552 C538 0.930 . S
H553 C539 0.931 . S
H554 C540 0.931 . S
H555 C541 0.933 . S
H556 C547 0.930 . S
H557 C548 0.931 . S
H558 C549 0.931 . S
H559 C550 0.933 . S
Dy560 O563 2.307 . S
Dy560 O565 2.395 . S
Dy560 O566 2.379 . S
Dy560 O568 2.339 . S
Dy560 O570 2.298 . S
Dy560 O574 2.275 . S
Dy560 C582 2.738 . S
Dy561 O564 2.298 . S
Dy561 O567 2.275 . S
Dy561 O569 2.307 . S
Dy561 O571 2.395 . S
Dy561 O572 2.379 . S
Dy561 O575 2.339 . S
Dy561 C591 2.738 . S
C562 O574 1.254 . S
C562 O575 1.257 . S
O563 Dy560 2.307 . S
O563 C573 1.266 . S
O564 Dy561 2.298 . S
O564 C573 1.236 . S
O565 Dy560 2.395 . S
O565 C582 1.255 . S
O566 Dy560 2.379 . S
O566 C582 1.249 . S
O567 Dy561 2.275 . S
O567 C583 1.254 . S
O568 Dy560 2.339 . S
O568 C583 1.257 . S
O569 Dy561 2.307 . S
O569 C584 1.266 . S
O570 Dy560 2.298 . S
O570 C584 1.236 . S
O571 Dy561 2.395 . S
O571 C591 1.255 . S
O572 Dy561 2.379 . S
O572 C591 1.249 . S
C573 O563 1.266 . S
C573 O564 1.236 . S
O574 Dy560 2.275 . S
O574 C562 1.254 . S
O575 Dy561 2.339 . S
O575 C562 1.257 . S
C576 C579 1.344 . S
C576 C580 1.328 . S
C576 C582 1.516 . S
C577 C578 1.304 . S
C577 C581 1.323 . S
C578 C577 1.304 . S
C578 C579 1.371 . S
C578 H592 0.930 . S
C579 C576 1.344 . S
C579 C578 1.371 . S
C579 H593 0.931 . S
C580 C576 1.328 . S
C580 C581 1.433 . S
C580 H594 0.931 . S
C581 C577 1.323 . S
C581 C580 1.433 . S
C581 H595 0.933 . S
C582 Dy560 2.738 . S
C582 O565 1.255 . S
C582 O566 1.249 . S
C582 C576 1.516 . S
C583 O567 1.254 . S
C583 O568 1.257 . S
C584 O569 1.266 . S
C584 O570 1.236 . S
C585 C588 1.344 . S
C585 C589 1.328 . S
C585 C591 1.516 . S
C586 C587 1.304 . S
C586 C590 1.323 . S
C587 C586 1.304 . S
C587 C588 1.371 . S
C587 H596 0.930 . S
C588 C585 1.344 . S
C588 C587 1.371 . S
C588 H597 0.931 . S
C589 C585 1.328 . S
C589 C590 1.433 . S
C589 H598 0.931 . S
C590 C586 1.323 . S
C590 C589 1.433 . S
C590 H599 0.933 . S
C591 Dy561 2.738 . S
C591 O571 1.255 . S
C591 O572 1.249 . S
C591 C585 1.516 . S
H592 C578 0.930 . S
H593 C579 0.931 . S
H594 C580 0.931 . S
H595 C581 0.933 . S
H596 C587 0.930 . S
H597 C588 0.931 . S
H598 C589 0.931 . S
H599 C590 0.933 . S
Dy600 O603 2.307 . S
Dy600 O605 2.395 . S
Dy600 O606 2.379 . S
Dy600 O608 2.339 . S
Dy600 O610 2.298 . S
Dy600 O614 2.275 . S
Dy600 C622 2.738 . S
Dy601 O604 2.298 . S
Dy601 O607 2.275 . S
Dy601 O609 2.307 . S
Dy601 O611 2.395 . S
Dy601 O612 2.379 . S
Dy601 O615 2.339 . S
Dy601 C631 2.738 . S
C602 O614 1.254 . S
C602 O615 1.257 . S
O603 Dy600 2.307 . S
O603 C613 1.266 . S
O604 Dy601 2.298 . S
O604 C613 1.236 . S
O605 Dy600 2.395 . S
O605 C622 1.255 . S
O606 Dy600 2.379 . S
O606 C622 1.249 . S
O607 Dy601 2.275 . S
O607 C623 1.254 . S
O608 Dy600 2.339 . S
O608 C623 1.257 . S
O609 Dy601 2.307 . S
O609 C624 1.266 . S
O610 Dy600 2.298 . S
O610 C624 1.236 . S
O611 Dy601 2.395 . S
O611 C631 1.255 . S
O612 Dy601 2.379 . S
O612 C631 1.249 . S
C613 O603 1.266 . S
C613 O604 1.236 . S
O614 Dy600 2.275 . S
O614 C602 1.254 . S
O615 Dy601 2.339 . S
O615 C602 1.257 . S
C616 C619 1.344 . S
C616 C620 1.328 . S
C616 C622 1.516 . S
C617 C618 1.304 . S
C617 C621 1.323 . S
C618 C617 1.304 . S
C618 C619 1.371 . S
C618 H632 0.930 . S
C619 C616 1.344 . S
C619 C618 1.371 . S
C619 H633 0.931 . S
C620 C616 1.328 . S
C620 C621 1.433 . S
C620 H634 0.931 . S
C621 C617 1.323 . S
C621 C620 1.433 . S
C621 H635 0.933 . S
C622 Dy600 2.738 . S
C622 O605 1.255 . S
C622 O606 1.249 . S
C622 C616 1.516 . S
C623 O607 1.254 . S
C623 O608 1.257 . S
C624 O609 1.266 . S
C624 O610 1.236 . S
C625 C628 1.344 . S
C625 C629 1.328 . S
C625 C631 1.516 . S
C626 C627 1.304 . S
C626 C630 1.323 . S
C627 C626 1.304 . S
C627 C628 1.371 . S
C627 H636 0.930 . S
C628 C625 1.344 . S
C628 C627 1.371 . S
C628 H637 0.931 . S
C629 C625 1.328 . S
C629 C630 1.433 . S
C629 H638 0.931 . S
C630 C626 1.323 . S
C630 C629 1.433 . S
C630 H639 0.933 . S
C631 Dy601 2.738 . S
C631 O611 1.255 . S
C631 O612 1.249 . S
C631 C625 1.516 . S
H632 C618 0.930 . S
H633 C619 0.931 . S
H634 C620 0.931 . S
H635 C621 0.933 . S
H636 C627 0.930 . S
H637 C628 0.931 . S
H638 C629 0.931 . S
H639 C630 0.933 . S
H640 C646 0.930 . S
H641 C650 0.930 . S
H642 C655 0.929 . S
H643 C653 0.929 . S
H644 C648 0.929 . S
H645 C654 0.929 . S
C646 H640 0.930 . S
C646 C647 1.367 . S
C646 C654 1.378 . S
C647 C646 1.367 . S
C647 C655 1.433 . S
C648 H644 0.929 . S
C648 C650 1.378 . S
C648 C652 1.350 1_545 S
C649 C652 1.463 . S
C649 C654 1.350 . S
C649 N657 1.427 . S
C650 H641 0.930 . S
C650 C648 1.378 . S
C650 C651 1.367 . S
C651 C650 1.367 . S
C651 C653 1.433 . S
C652 C648 1.350 1_565 S
C652 C649 1.463 . S
C652 N656 1.427 . S
C653 H643 0.929 . S
C653 C651 1.433 . S
C653 N656 1.384 1_545 S
C654 H645 0.929 . S
C654 C646 1.378 . S
C654 C649 1.350 . S
C655 H642 0.929 . S
C655 C647 1.433 . S
C655 N657 1.384 . S
N656 C652 1.427 . S
N656 C653 1.384 1_565 S
N657 C649 1.427 . S
N657 C655 1.384 . S
H658 C664 0.930 . S
H659 C668 0.930 . S
H660 C673 0.929 . S
H661 C671 0.929 . S
H662 C666 0.929 1_655 S
H663 C672 0.929 . S
C664 H658 0.930 . S
C664 C665 1.367 . S
C664 C672 1.378 . S
C665 C664 1.367 . S
C665 C673 1.433 . S
C666 H662 0.929 1_455 S
C666 C668 1.378 . S
C666 C670 1.350 1_455 S
C667 C670 1.463 . S
C667 C672 1.350 . S
C667 N675 1.427 . S
C668 H659 0.930 . S
C668 C666 1.378 . S
C668 C669 1.367 . S
C669 C668 1.367 . S
C669 C671 1.433 . S
C670 C666 1.350 1_655 S
C670 C667 1.463 . S
C670 N674 1.427 . S
C671 H661 0.929 . S
C671 C669 1.433 . S
C671 N674 1.384 1_455 S
C672 H663 0.929 . S
C672 C664 1.378 . S
C672 C667 1.350 . S
C673 H660 0.929 . S
C673 C665 1.433 . S
C673 N675 1.384 . S
N674 C670 1.427 . S
N674 C671 1.384 1_655 S
N675 C667 1.427 . S
N675 C673 1.384 . S
H676 C682 0.930 . S
H677 C686 0.930 . S
H678 C691 0.929 . S
H679 C689 0.929 . S
H680 C684 0.929 . S
H681 C690 0.929 . S
C682 H676 0.930 . S
C682 C683 1.367 . S
C682 C690 1.378 1_565 S
C683 C682 1.367 . S
C683 C691 1.433 . S
C684 H680 0.929 . S
C684 C686 1.378 . S
C684 C688 1.350 . S
C685 C688 1.463 . S
C685 C690 1.350 . S
C685 N693 1.427 1_545 S
C686 H677 0.930 . S
C686 C684 1.378 . S
C686 C687 1.367 . S
C687 C686 1.367 . S
C687 C689 1.433 . S
C688 C684 1.350 . S
C688 C685 1.463 . S
C688 N692 1.427 . S
C689 H679 0.929 . S
C689 C687 1.433 . S
C689 N692 1.384 . S
C690 H681 0.929 . S
C690 C682 1.378 1_545 S
C690 C685 1.350 . S
C691 H678 0.929 . S
C691 C683 1.433 . S
C691 N693 1.384 . S
N692 C688 1.427 . S
N692 C689 1.384 . S
N693 C685 1.427 1_565 S
N693 C691 1.384 . S
H694 C700 0.930 . S
H695 C704 0.930 . S
H696 C709 0.929 . S
H697 C707 0.929 . S
H698 C702 0.929 . S
H699 C708 0.929 . S
C700 H694 0.930 . S
C700 C701 1.367 . S
C700 C708 1.378 . S
C701 C700 1.367 . S
C701 C709 1.433 . S
C702 H698 0.929 . S
C702 C704 1.378 . S
C702 C706 1.350 . S
C703 C706 1.463 . S
C703 C708 1.350 1_455 S
C703 N711 1.427 . S
C704 H695 0.930 . S
C704 C702 1.378 . S
C704 C705 1.367 . S
C705 C704 1.367 . S
C705 C707 1.433 . S
C706 C702 1.350 . S
C706 C703 1.463 . S
C706 N710 1.427 . S
C707 H697 0.929 . S
C707 C705 1.433 . S
C707 N710 1.384 . S
C708 H699 0.929 . S
C708 C700 1.378 . S
C708 C703 1.350 1_655 S
C709 H696 0.929 . S
C709 C701 1.433 . S
C709 N711 1.384 1_655 S
N710 C706 1.427 . S
N710 C707 1.384 . S
N711 C703 1.427 . S
N711 C709 1.384 1_455 S
H712 C718 0.930 . S
H713 C722 0.930 . S
H714 C727 0.929 . S
H715 C725 0.929 . S
H716 C720 0.929 . S
H717 C726 0.929 1_556 S
C718 H712 0.930 . S
C718 C719 1.367 . S
C718 C726 1.378 . S
C719 C718 1.367 . S
C719 C727 1.433 . S
C720 H716 0.929 . S
C720 C722 1.378 . S
C720 C724 1.350 . S
C721 C724 1.463 . S
C721 C726 1.350 . S
C721 N729 1.427 . S
C722 H713 0.930 . S
C722 C720 1.378 . S
C722 C723 1.367 1_554 S
C723 C722 1.367 1_556 S
C723 C725 1.433 . S
C724 C720 1.350 . S
C724 C721 1.463 . S
C724 N728 1.427 1_554 S
C725 H715 0.929 . S
C725 C723 1.433 . S
C725 N728 1.384 . S
C726 H717 0.929 1_554 S
C726 C718 1.378 . S
C726 C721 1.350 . S
C727 H714 0.929 . S
C727 C719 1.433 . S
C727 N729 1.384 . S
N728 C724 1.427 1_556 S
N728 C725 1.384 . S
N729 C721 1.427 . S
N729 C727 1.384 . S
H730 C736 0.930 . S
H731 C740 0.930 . S
H732 C745 0.929 . S
H733 C743 0.929 . S
H734 C738 0.929 1_554 S
H735 C744 0.929 . S
C736 H730 0.930 . S
C736 C737 1.367 1_556 S
C736 C744 1.378 . S
C737 C736 1.367 1_554 S
C737 C745 1.433 . S
C738 H734 0.929 1_556 S
C738 C740 1.378 . S
C738 C742 1.350 . S
C739 C742 1.463 . S
C739 C744 1.350 . S
C739 N747 1.427 1_556 S
C740 H731 0.930 . S
C740 C738 1.378 . S
C740 C741 1.367 . S
C741 C740 1.367 . S
C741 C743 1.433 . S
C742 C738 1.350 . S
C742 C739 1.463 . S
C742 N746 1.427 . S
C743 H733 0.929 . S
C743 C741 1.433 . S
C743 N746 1.384 . S
C744 H735 0.929 . S
C744 C736 1.378 . S
C744 C739 1.350 . S
C745 H732 0.929 . S
C745 C737 1.433 . S
C745 N747 1.384 . S
N746 C742 1.427 . S
N746 C743 1.384 . S
N747 C739 1.427 1_554 S
N747 C745 1.384 . S
H748 C754 0.930 . S
H749 C758 0.930 . S
H750 C763 0.929 . S
H751 C761 0.929 . S
H752 C756 0.929 . S
H753 C762 0.929 . S
C754 H748 0.930 . S
C754 C755 1.367 . S
C754 C762 1.378 . S
C755 C754 1.367 . S
C755 C763 1.433 . S
C756 H752 0.929 . S
C756 C758 1.378 . S
C756 C760 1.350 1_556 S
C757 C760 1.463 . S
C757 C762 1.350 . S
C757 N765 1.427 . S
C758 H749 0.930 . S
C758 C756 1.378 . S
C758 C759 1.367 . S
C759 C758 1.367 . S
C759 C761 1.433 1_556 S
C760 C756 1.350 1_554 S
C760 C757 1.463 . S
C760 N764 1.427 . S
C761 H751 0.929 . S
C761 C759 1.433 1_554 S
C761 N764 1.384 . S
C762 H753 0.929 . S
C762 C754 1.378 . S
C762 C757 1.350 . S
C763 H750 0.929 . S
C763 C755 1.433 . S
C763 N765 1.384 . S
N764 C760 1.427 . S
N764 C761 1.384 . S
N765 C757 1.427 . S
N765 C763 1.384 . S
H766 C772 0.930 . S
H767 C776 0.930 . S
H768 C781 0.929 . S
H769 C779 0.929 . S
H770 C774 0.929 1_554 S
H771 C780 0.929 . S
C772 H766 0.930 . S
C772 C773 1.367 1_556 S
C772 C780 1.378 . S
C773 C772 1.367 1_554 S
C773 C781 1.433 . S
C774 H770 0.929 1_556 S
C774 C776 1.378 . S
C774 C778 1.350 . S
C775 C778 1.463 . S
C775 C780 1.350 . S
C775 N783 1.427 1_556 S
C776 H767 0.930 . S
C776 C774 1.378 . S
C776 C777 1.367 . S
C777 C776 1.367 . S
C777 C779 1.433 . S
C778 C774 1.350 . S
C778 C775 1.463 . S
C778 N782 1.427 . S
C779 H769 0.929 . S
C779 C777 1.433 . S
C779 N782 1.384 . S
C780 H771 0.929 . S
C780 C772 1.378 . S
C780 C775 1.350 . S
C781 H768 0.929 . S
C781 C773 1.433 . S
C781 N783 1.384 . S
N782 C778 1.427 . S
N782 C779 1.384 . S
N783 C775 1.427 1_554 S
N783 C781 1.384 . S
H784 C790 0.930 . S
H785 C794 0.930 . S
H786 C799 0.929 . S
H787 C797 0.929 . S
H788 C792 0.929 . S
H789 C798 0.929 . S
C790 H784 0.930 . S
C790 C791 1.367 . S
C790 C798 1.378 . S
C791 C790 1.367 . S
C791 C799 1.433 . S
C792 H788 0.929 . S
C792 C794 1.378 . S
C792 C796 1.350 . S
C793 C796 1.463 . S
C793 C798 1.350 . S
C793 N801 1.427 . S
C794 H785 0.930 . S
C794 C792 1.378 . S
C794 C795 1.367 . S
C795 C794 1.367 . S
C795 C797 1.433 . S
C796 C792 1.350 . S
C796 C793 1.463 . S
C796 N800 1.427 . S
C797 H787 0.929 . S
C797 C795 1.433 . S
C797 N800 1.384 . S
C798 H789 0.929 . S
C798 C790 1.378 . S
C798 C793 1.350 . S
C799 H786 0.929 . S
C799 C791 1.433 . S
C799 N801 1.384 . S
N800 C796 1.427 . S
N800 C797 1.384 . S
N801 C793 1.427 . S
N801 C799 1.384 . S
H802 C808 0.930 . S
H803 C812 0.930 . S
H804 C817 0.929 . S
H805 C815 0.929 . S
H806 C810 0.929 . S
H807 C816 0.929 . S
C808 H802 0.930 . S
C808 C809 1.367 . S
C808 C816 1.378 . S
C809 C808 1.367 . S
C809 C817 1.433 . S
C810 H806 0.929 . S
C810 C812 1.378 . S
C810 C814 1.350 . S
C811 C814 1.463 . S
C811 C816 1.350 . S
C811 N819 1.427 . S
C812 H803 0.930 . S
C812 C810 1.378 . S
C812 C813 1.367 . S
C813 C812 1.367 . S
C813 C815 1.433 . S
C814 C810 1.350 . S
C814 C811 1.463 . S
C814 N818 1.427 . S
C815 H805 0.929 . S
C815 C813 1.433 . S
C815 N818 1.384 . S
C816 H807 0.929 . S
C816 C808 1.378 . S
C816 C811 1.350 . S
C817 H804 0.929 . S
C817 C809 1.433 . S
C817 N819 1.384 . S
N818 C814 1.427 . S
N818 C815 1.384 . S
N819 C811 1.427 . S
N819 C817 1.384 . S
H820 C826 0.930 . S
H821 C830 0.930 . S
H822 C835 0.929 . S
H823 C833 0.929 . S
H824 C828 0.929 . S
H825 C834 0.929 . S
C826 H820 0.930 . S
C826 C827 1.367 . S
C826 C834 1.378 . S
C827 C826 1.367 . S
C827 C835 1.433 . S
C828 H824 0.929 . S
C828 C830 1.378 . S
C828 C832 1.350 . S
C829 C832 1.463 . S
C829 C834 1.350 . S
C829 N837 1.427 . S
C830 H821 0.930 . S
C830 C828 1.378 . S
C830 C831 1.367 . S
C831 C830 1.367 . S
C831 C833 1.433 . S
C832 C828 1.350 . S
C832 C829 1.463 . S
C832 N836 1.427 . S
C833 H823 0.929 . S
C833 C831 1.433 . S
C833 N836 1.384 . S
C834 H825 0.929 . S
C834 C826 1.378 . S
C834 C829 1.350 . S
C835 H822 0.929 . S
C835 C827 1.433 . S
C835 N837 1.384 . S
N836 C832 1.427 . S
N836 C833 1.384 . S
N837 C829 1.427 . S
N837 C835 1.384 . S
H838 C844 0.930 . S
H839 C848 0.930 . S
H840 C853 0.929 . S
H841 C851 0.929 . S
H842 C846 0.929 . S
H843 C852 0.929 . S
C844 H838 0.930 . S
C844 C845 1.367 . S
C844 C852 1.378 . S
C845 C844 1.367 . S
C845 C853 1.433 . S
C846 H842 0.929 . S
C846 C848 1.378 . S
C846 C850 1.350 . S
C847 C850 1.463 . S
C847 C852 1.350 . S
C847 N855 1.427 . S
C848 H839 0.930 . S
C848 C846 1.378 . S
C848 C849 1.367 . S
C849 C848 1.367 . S
C849 C851 1.433 . S
C850 C846 1.350 . S
C850 C847 1.463 . S
C850 N854 1.427 . S
C851 H841 0.929 . S
C851 C849 1.433 . S
C851 N854 1.384 . S
C852 H843 0.929 . S
C852 C844 1.378 . S
C852 C847 1.350 . S
C853 H840 0.929 . S
C853 C845 1.433 . S
C853 N855 1.384 . S
N854 C850 1.427 . S
N854 C851 1.384 . S
N855 C847 1.427 . S
N855 C853 1.384 . S
H856 C862 0.930 . S
H857 C866 0.930 . S
H858 C871 0.929 . S
H859 C869 0.929 . S
H860 C864 0.929 . S
H861 C870 0.929 . S
C862 H856 0.930 . S
C862 C863 1.367 . S
C862 C870 1.378 1_565 S
C863 C862 1.367 . S
C863 C871 1.433 . S
C864 H860 0.929 . S
C864 C866 1.378 . S
C864 C868 1.350 . S
C865 C868 1.463 . S
C865 C870 1.350 . S
C865 N873 1.427 1_545 S
C866 H857 0.930 . S
C866 C864 1.378 . S
C866 C867 1.367 . S
C867 C866 1.367 . S
C867 C869 1.433 . S
C868 C864 1.350 . S
C868 C865 1.463 . S
C868 N872 1.427 . S
C869 H859 0.929 . S
C869 C867 1.433 . S
C869 N872 1.384 . S
C870 H861 0.929 . S
C870 C862 1.378 1_545 S
C870 C865 1.350 . S
C871 H858 0.929 . S
C871 C863 1.433 . S
C871 N873 1.384 . S
N872 C868 1.427 . S
N872 C869 1.384 . S
N873 C865 1.427 1_565 S
N873 C871 1.384 . S
H874 C880 0.930 . S
H875 C884 0.930 . S
H876 C889 0.929 . S
H877 C887 0.929 . S
H878 C882 0.929 . S
H879 C888 0.929 . S
C880 H874 0.930 . S
C880 C881 1.367 . S
C880 C888 1.378 . S
C881 C880 1.367 . S
C881 C889 1.433 . S
C882 H878 0.929 . S
C882 C884 1.378 1_455 S
C882 C886 1.350 . S
C883 C886 1.463 . S
C883 C888 1.350 . S
C883 N891 1.427 . S
C884 H875 0.930 . S
C884 C882 1.378 1_655 S
C884 C885 1.367 . S
C885 C884 1.367 . S
C885 C887 1.433 . S
C886 C882 1.350 . S
C886 C883 1.463 . S
C886 N890 1.427 1_455 S
C887 H877 0.929 . S
C887 C885 1.433 . S
C887 N890 1.384 . S
C888 H879 0.929 . S
C888 C880 1.378 . S
C888 C883 1.350 . S
C889 H876 0.929 . S
C889 C881 1.433 . S
C889 N891 1.384 . S
N890 C886 1.427 1_655 S
N890 C887 1.384 . S
N891 C883 1.427 . S
N891 C889 1.384 . S
H892 C898 0.930 . S
H893 C902 0.930 . S
H894 C907 0.929 . S
H895 C905 0.929 . S
H896 C900 0.929 . S
H897 C906 0.929 . S
C898 H892 0.930 . S
C898 C899 1.367 . S
C898 C906 1.378 . S
C899 C898 1.367 . S
C899 C907 1.433 . S
C900 H896 0.929 . S
C900 C902 1.378 1_565 S
C900 C904 1.350 . S
C901 C904 1.463 . S
C901 C906 1.350 . S
C901 N909 1.427 . S
C902 H893 0.930 . S
C902 C900 1.378 1_545 S
C902 C903 1.367 . S
C903 C902 1.367 . S
C903 C905 1.433 . S
C904 C900 1.350 . S
C904 C901 1.463 . S
C904 N908 1.427 1_565 S
C905 H895 0.929 . S
C905 C903 1.433 . S
C905 N908 1.384 . S
C906 H897 0.929 . S
C906 C898 1.378 . S
C906 C901 1.350 . S
C907 H894 0.929 . S
C907 C899 1.433 . S
C907 N909 1.384 . S
N908 C904 1.427 1_545 S
N908 C905 1.384 . S
N909 C901 1.427 . S
N909 C907 1.384 . S
H910 C916 0.930 . S
H911 C920 0.930 . S
H912 C925 0.929 . S
H913 C923 0.929 . S
H914 C918 0.929 . S
H915 C924 0.929 . S
C916 H910 0.930 . S
C916 C917 1.367 . S
C916 C924 1.378 1_455 S
C917 C916 1.367 . S
C917 C925 1.433 . S
C918 H914 0.929 . S
C918 C920 1.378 . S
C918 C922 1.350 . S
C919 C922 1.463 . S
C919 C924 1.350 . S
C919 N927 1.427 1_655 S
C920 H911 0.930 . S
C920 C918 1.378 . S
C920 C921 1.367 . S
C921 C920 1.367 . S
C921 C923 1.433 . S
C922 C918 1.350 . S
C922 C919 1.463 . S
C922 N926 1.427 . S
C923 H913 0.929 . S
C923 C921 1.433 . S
C923 N926 1.384 . S
C924 H915 0.929 . S
C924 C916 1.378 1_655 S
C924 C919 1.350 . S
C925 H912 0.929 . S
C925 C917 1.433 . S
C925 N927 1.384 . S
N926 C922 1.427 . S
N926 C923 1.384 . S
N927 C919 1.427 1_455 S
N927 C925 1.384 . S
H928 C934 0.930 . S
H929 C938 0.930 . S
H930 C943 0.929 . S
H931 C941 0.929 . S
H932 C936 0.929 . S
H933 C942 0.929 . S
C934 H928 0.930 . S
C934 C935 1.367 . S
C934 C942 1.378 . S
C935 C934 1.367 . S
C935 C943 1.433 . S
C936 H932 0.929 . S
C936 C938 1.378 . S
C936 C940 1.350 . S
C937 C940 1.463 . S
C937 C942 1.350 . S
C937 N945 1.427 . S
C938 H929 0.930 . S
C938 C936 1.378 . S
C938 C939 1.367 . S
C939 C938 1.367 . S
C939 C941 1.433 . S
C940 C936 1.350 . S
C940 C937 1.463 . S
C940 N944 1.427 . S
C941 H931 0.929 . S
C941 C939 1.433 . S
C941 N944 1.384 . S
C942 H933 0.929 . S
C942 C934 1.378 . S
C942 C937 1.350 . S
C943 H930 0.929 . S
C943 C935 1.433 . S
C943 N945 1.384 . S
N944 C940 1.427 . S
N944 C941 1.384 . S
N945 C937 1.427 . S
N945 C943 1.384 . S
H946 C952 0.930 . S
H947 C956 0.930 . S
H948 C961 0.929 . S
H949 C959 0.929 . S
H950 C954 0.929 . S
H951 C960 0.929 . S
C952 H946 0.930 . S
C952 C953 1.367 . S
C952 C960 1.378 . S
C953 C952 1.367 . S
C953 C961 1.433 . S
C954 H950 0.929 . S
C954 C956 1.378 . S
C954 C958 1.350 . S
C955 C958 1.463 . S
C955 C960 1.350 . S
C955 N963 1.427 . S
C956 H947 0.930 . S
C956 C954 1.378 . S
C956 C957 1.367 . S
C957 C956 1.367 . S
C957 C959 1.433 . S
C958 C954 1.350 . S
C958 C955 1.463 . S
C958 N962 1.427 . S
C959 H949 0.929 . S
C959 C957 1.433 . S
C959 N962 1.384 . S
C960 H951 0.929 . S
C960 C952 1.378 . S
C960 C955 1.350 . S
C961 H948 0.929 . S
C961 C953 1.433 . S
C961 N963 1.384 . S
N962 C958 1.427 . S
N962 C959 1.384 . S
N963 C955 1.427 . S
N963 C961 1.384 . S
H964 C970 0.930 . S
H965 C974 0.930 . S
H966 C979 0.929 . S
H967 C977 0.929 . S
H968 C972 0.929 . S
H969 C978 0.929 . S
C970 H964 0.930 . S
C970 C971 1.367 . S
C970 C978 1.378 . S
C971 C970 1.367 . S
C971 C979 1.433 . S
C972 H968 0.929 . S
C972 C974 1.378 . S
C972 C976 1.350 . S
C973 C976 1.463 . S
C973 C978 1.350 . S
C973 N981 1.427 . S
C974 H965 0.930 . S
C974 C972 1.378 . S
C974 C975 1.367 . S
C975 C974 1.367 . S
C975 C977 1.433 . S
C976 C972 1.350 . S
C976 C973 1.463 . S
C976 N980 1.427 . S
C977 H967 0.929 . S
C977 C975 1.433 . S
C977 N980 1.384 . S
C978 H969 0.929 . S
C978 C970 1.378 . S
C978 C973 1.350 . S
C979 H966 0.929 . S
C979 C971 1.433 . S
C979 N981 1.384 . S
N980 C976 1.427 . S
N980 C977 1.384 . S
N981 C973 1.427 . S
N981 C979 1.384 . S
H982 C988 0.930 . S
H983 C992 0.930 . S
H984 C997 0.929 . S
H985 C995 0.929 . S
H986 C990 0.929 . S
H987 C996 0.929 . S
C988 H982 0.930 . S
C988 C989 1.367 . S
C988 C996 1.378 . S
C989 C988 1.367 . S
C989 C997 1.433 . S
C990 H986 0.929 . S
C990 C992 1.378 . S
C990 C994 1.350 . S
C991 C994 1.463 . S
C991 C996 1.350 . S
C991 N999 1.427 . S
C992 H983 0.930 . S
C992 C990 1.378 . S
C992 C993 1.367 . S
C993 C992 1.367 . S
C993 C995 1.433 . S
C994 C990 1.350 . S
C994 C991 1.463 . S
C994 N998 1.427 . S
C995 H985 0.929 . S
C995 C993 1.433 . S
C995 N998 1.384 . S
C996 H987 0.929 . S
C996 C988 1.378 . S
C996 C991 1.350 . S
C997 H984 0.929 . S
C997 C989 1.433 . S
C997 N999 1.384 . S
N998 C994 1.427 . S
N998 C995 1.384 . S
N999 C991 1.427 . S
N999 C997 1.384 . S
H1000 C1006 0.930 . S
H1001 C1010 0.930 . S
H1002 C1015 0.929 . S
H1003 C1013 0.929 . S
H1004 C1008 0.929 . S
H1005 C1014 0.929 . S
C1006 H1000 0.930 . S
C1006 C1007 1.367 . S
C1006 C1014 1.378 . S
C1007 C1006 1.367 . S
C1007 C1015 1.433 . S
C1008 H1004 0.929 . S
C1008 C1010 1.378 . S
C1008 C1012 1.350 . S
C1009 C1012 1.463 . S
C1009 C1014 1.350 . S
C1009 N1017 1.427 . S
C1010 H1001 0.930 . S
C1010 C1008 1.378 . S
C1010 C1011 1.367 . S
C1011 C1010 1.367 . S
C1011 C1013 1.433 . S
C1012 C1008 1.350 . S
C1012 C1009 1.463 . S
C1012 N1016 1.427 . S
C1013 H1003 0.929 . S
C1013 C1011 1.433 . S
C1013 N1016 1.384 . S
C1014 H1005 0.929 . S
C1014 C1006 1.378 . S
C1014 C1009 1.350 . S
C1015 H1002 0.929 . S
C1015 C1007 1.433 . S
C1015 N1017 1.384 . S
N1016 C1012 1.427 . S
N1016 C1013 1.384 . S
N1017 C1009 1.427 . S
N1017 C1015 1.384 . S
H1018 C1024 0.930 . S
H1019 C1028 0.930 . S
H1020 C1033 0.929 . S
H1021 C1031 0.929 . S
H1022 C1026 0.929 . S
H1023 C1032 0.929 . S
C1024 H1018 0.930 . S
C1024 C1025 1.367 . S
C1024 C1032 1.378 . S
C1025 C1024 1.367 . S
C1025 C1033 1.433 . S
C1026 H1022 0.929 . S
C1026 C1028 1.378 . S
C1026 C1030 1.350 . S
C1027 C1030 1.463 . S
C1027 C1032 1.350 . S
C1027 N1035 1.427 . S
C1028 H1019 0.930 . S
C1028 C1026 1.378 . S
C1028 C1029 1.367 . S
C1029 C1028 1.367 . S
C1029 C1031 1.433 . S
C1030 C1026 1.350 . S
C1030 C1027 1.463 . S
C1030 N1034 1.427 . S
C1031 H1021 0.929 . S
C1031 C1029 1.433 . S
C1031 N1034 1.384 . S
C1032 H1023 0.929 . S
C1032 C1024 1.378 . S
C1032 C1027 1.350 . S
C1033 H1020 0.929 . S
C1033 C1025 1.433 . S
C1033 N1035 1.384 . S
N1034 C1030 1.427 . S
N1034 C1031 1.384 . S
N1035 C1027 1.427 . S
N1035 C1033 1.384 . S
H1036 C1042 0.930 . S
H1037 C1046 0.930 . S
H1038 C1051 0.929 . S
H1039 C1049 0.929 . S
H1040 C1044 0.929 . S
H1041 C1050 0.929 . S
C1042 H1036 0.930 . S
C1042 C1043 1.367 . S
C1042 C1050 1.378 . S
C1043 C1042 1.367 . S
C1043 C1051 1.433 . S
C1044 H1040 0.929 . S
C1044 C1046 1.378 . S
C1044 C1048 1.350 . S
C1045 C1048 1.463 . S
C1045 C1050 1.350 . S
C1045 N1053 1.427 . S
C1046 H1037 0.930 . S
C1046 C1044 1.378 . S
C1046 C1047 1.367 . S
C1047 C1046 1.367 . S
C1047 C1049 1.433 . S
C1048 C1044 1.350 . S
C1048 C1045 1.463 . S
C1048 N1052 1.427 . S
C1049 H1039 0.929 . S
C1049 C1047 1.433 . S
C1049 N1052 1.384 . S
C1050 H1041 0.929 . S
C1050 C1042 1.378 . S
C1050 C1045 1.350 . S
C1051 H1038 0.929 . S
C1051 C1043 1.433 . S
C1051 N1053 1.384 . S
N1052 C1048 1.427 . S
N1052 C1049 1.384 . S
N1053 C1045 1.427 . S
N1053 C1051 1.384 . S
H1054 C1060 0.930 . S
H1055 C1064 0.930 . S
H1056 C1069 0.929 . S
H1057 C1067 0.929 . S
H1058 C1062 0.929 . S
H1059 C1068 0.929 . S
C1060 H1054 0.930 . S
C1060 C1061 1.367 . S
C1060 C1068 1.378 . S
C1061 C1060 1.367 . S
C1061 C1069 1.433 . S
C1062 H1058 0.929 . S
C1062 C1064 1.378 . S
C1062 C1066 1.350 . S
C1063 C1066 1.463 . S
C1063 C1068 1.350 . S
C1063 N1071 1.427 . S
C1064 H1055 0.930 . S
C1064 C1062 1.378 . S
C1064 C1065 1.367 . S
C1065 C1064 1.367 . S
C1065 C1067 1.433 . S
C1066 C1062 1.350 . S
C1066 C1063 1.463 . S
C1066 N1070 1.427 . S
C1067 H1057 0.929 . S
C1067 C1065 1.433 . S
C1067 N1070 1.384 . S
C1068 H1059 0.929 . S
C1068 C1060 1.378 . S
C1068 C1063 1.350 . S
C1069 H1056 0.929 . S
C1069 C1061 1.433 . S
C1069 N1071 1.384 . S
N1070 C1066 1.427 . S
N1070 C1067 1.384 . S
N1071 C1063 1.427 . S
N1071 C1069 1.384 . S
H1072 C1078 0.930 . S
H1073 C1082 0.930 . S
H1074 C1087 0.929 . S
H1075 C1085 0.929 . S
H1076 C1080 0.929 . S
H1077 C1086 0.929 . S
C1078 H1072 0.930 . S
C1078 C1079 1.367 . S
C1078 C1086 1.378 . S
C1079 C1078 1.367 . S
C1079 C1087 1.433 . S
C1080 H1076 0.929 . S
C1080 C1082 1.378 . S
C1080 C1084 1.350 . S
C1081 C1084 1.463 . S
C1081 C1086 1.350 . S
C1081 N1089 1.427 . S
C1082 H1073 0.930 . S
C1082 C1080 1.378 . S
C1082 C1083 1.367 . S
C1083 C1082 1.367 . S
C1083 C1085 1.433 . S
C1084 C1080 1.350 . S
C1084 C1081 1.463 . S
C1084 N1088 1.427 . S
C1085 H1075 0.929 . S
C1085 C1083 1.433 . S
C1085 N1088 1.384 . S
C1086 H1077 0.929 . S
C1086 C1078 1.378 . S
C1086 C1081 1.350 . S
C1087 H1074 0.929 . S
C1087 C1079 1.433 . S
C1087 N1089 1.384 . S
N1088 C1084 1.427 . S
N1088 C1085 1.384 . S
N1089 C1081 1.427 . S
N1089 C1087 1.384 . S
H1090 C1096 0.939 . S
H1091 C1100 0.930 . S
H1092 C1105 0.929 . S
H1093 C1103 0.929 . S
H1094 C1098 0.929 . S
H1095 C1104 0.929 . S
C1096 H1090 0.939 . S
C1096 C1097 1.367 . S
C1096 C1104 1.378 . S
C1097 C1096 1.367 . S
C1097 C1105 1.433 . S
C1098 H1094 0.929 . S
C1098 C1100 1.378 . S
C1098 C1102 1.350 . S
C1099 C1102 1.463 . S
C1099 C1104 1.350 . S
C1099 N1107 1.427 . S
C1100 H1091 0.930 . S
C1100 C1098 1.378 . S
C1100 C1101 1.367 . S
C1101 C1100 1.367 . S
C1101 C1103 1.433 . S
C1102 C1098 1.350 . S
C1102 C1099 1.463 . S
C1102 N1106 1.427 . S
C1103 H1093 0.929 . S
C1103 C1101 1.433 . S
C1103 N1106 1.384 . S
C1104 H1095 0.929 . S
C1104 C1096 1.378 . S
C1104 C1099 1.350 . S
C1105 H1092 0.929 . S
C1105 C1097 1.433 . S
C1105 N1107 1.384 . S
N1106 C1102 1.427 . S
N1106 C1103 1.384 . S
N1107 C1099 1.427 . S
N1107 C1105 1.384 . S
H1108 C1114 0.930 . S
H1109 C1118 0.930 . S
H1110 C1123 0.929 . S
H1111 C1121 0.929 . S
H1112 C1116 0.929 . S
H1113 C1122 0.929 . S
C1114 H1108 0.930 . S
C1114 C1115 1.367 . S
C1114 C1122 1.378 . S
C1115 C1114 1.367 . S
C1115 C1123 1.433 . S
C1116 H1112 0.929 . S
C1116 C1118 1.378 . S
C1116 C1120 1.350 . S
C1117 C1120 1.463 . S
C1117 C1122 1.350 . S
C1117 N1125 1.427 . S
C1118 H1109 0.930 . S
C1118 C1116 1.378 . S
C1118 C1119 1.367 . S
C1119 C1118 1.367 . S
C1119 C1121 1.433 . S
C1120 C1116 1.350 . S
C1120 C1117 1.463 . S
C1120 N1124 1.427 . S
C1121 H1111 0.929 . S
C1121 C1119 1.433 . S
C1121 N1124 1.384 . S
C1122 H1113 0.929 . S
C1122 C1114 1.378 . S
C1122 C1117 1.350 . S
C1123 H1110 0.929 . S
C1123 C1115 1.433 . S
C1123 N1125 1.384 . S
N1124 C1120 1.427 . S
N1124 C1121 1.384 . S
N1125 C1117 1.427 . S
N1125 C1123 1.384 . S
H1126 C1132 0.930 1_556 S
H1127 C1136 0.930 . S
H1128 C1141 0.929 . S
H1129 C1139 0.929 . S
H1130 C1134 0.929 . S
H1131 C1140 0.929 . S
C1132 H1126 0.930 1_554 S
C1132 C1133 1.367 . S
C1132 C1140 1.378 . S
C1133 C1132 1.367 . S
C1133 C1141 1.433 . S
C1134 H1130 0.929 . S
C1134 C1136 1.378 . S
C1134 C1138 1.350 . S
C1135 C1138 1.463 . S
C1135 C1140 1.350 . S
C1135 N1143 1.427 . S
C1136 H1127 0.930 . S
C1136 C1134 1.378 . S
C1136 C1137 1.367 . S
C1137 C1136 1.367 . S
C1137 C1139 1.433 . S
C1138 C1134 1.350 . S
C1138 C1135 1.463 . S
C1138 N1142 1.427 . S
C1139 H1129 0.929 . S
C1139 C1137 1.433 . S
C1139 N1142 1.384 . S
C1140 H1131 0.929 . S
C1140 C1132 1.378 . S
C1140 C1135 1.350 . S
C1141 H1128 0.929 . S
C1141 C1133 1.433 . S
C1141 N1143 1.384 . S
N1142 C1138 1.427 . S
N1142 C1139 1.384 . S
N1143 C1135 1.427 . S
N1143 C1141 1.384 . S
H1144 C1150 0.930 . S
H1145 C1154 0.930 . S
H1146 C1159 0.929 . S
H1147 C1157 0.929 . S
H1148 C1152 0.929 . S
H1149 C1158 0.929 . S
C1150 H1144 0.930 . S
C1150 C1151 1.367 . S
C1150 C1158 1.378 . S
C1151 C1150 1.367 . S
C1151 C1159 1.433 . S
C1152 H1148 0.929 . S
C1152 C1154 1.378 . S
C1152 C1156 1.350 . S
C1153 C1156 1.463 . S
C1153 C1158 1.350 . S
C1153 N1161 1.427 . S
C1154 H1145 0.930 . S
C1154 C1152 1.378 . S
C1154 C1155 1.367 . S
C1155 C1154 1.367 . S
C1155 C1157 1.433 . S
C1156 C1152 1.350 . S
C1156 C1153 1.463 . S
C1156 N1160 1.427 . S
C1157 H1147 0.929 . S
C1157 C1155 1.433 . S
C1157 N1160 1.384 . S
C1158 H1149 0.929 . S
C1158 C1150 1.378 . S
C1158 C1153 1.350 . S
C1159 H1146 0.929 . S
C1159 C1151 1.433 . S
C1159 N1161 1.384 . S
N1160 C1156 1.427 . S
N1160 C1157 1.384 . S
N1161 C1153 1.427 . S
N1161 C1159 1.384 . S
H1162 C1168 0.930 . S
H1163 C1172 0.930 . S
H1164 C1177 0.929 . S
H1165 C1175 0.929 . S
H1166 C1170 0.929 . S
H1167 C1176 0.929 . S
C1168 H1162 0.930 . S
C1168 C1169 1.367 . S
C1168 C1176 1.378 . S
C1169 C1168 1.367 . S
C1169 C1177 1.433 . S
C1170 H1166 0.929 . S
C1170 C1172 1.378 . S
C1170 C1174 1.350 . S
C1171 C1174 1.463 . S
C1171 C1176 1.350 . S
C1171 N1179 1.427 . S
C1172 H1163 0.930 . S
C1172 C1170 1.378 . S
C1172 C1173 1.367 . S
C1173 C1172 1.367 . S
C1173 C1175 1.433 . S
C1174 C1170 1.350 . S
C1174 C1171 1.463 . S
C1174 N1178 1.427 . S
C1175 H1165 0.929 . S
C1175 C1173 1.433 . S
C1175 N1178 1.384 . S
C1176 H1167 0.929 . S
C1176 C1168 1.378 . S
C1176 C1171 1.350 . S
C1177 H1164 0.929 . S
C1177 C1169 1.433 . S
C1177 N1179 1.384 . S
N1178 C1174 1.427 . S
N1178 C1175 1.384 . S
N1179 C1171 1.427 . S
N1179 C1177 1.384 . S
H1180 C1186 0.930 . S
H1181 C1190 0.930 . S
H1182 C1195 0.929 . S
H1183 C1193 0.929 . S
H1184 C1188 0.929 . S
H1185 C1194 0.929 . S
C1186 H1180 0.930 . S
C1186 C1187 1.367 . S
C1186 C1194 1.378 . S
C1187 C1186 1.367 . S
C1187 C1195 1.433 . S
C1188 H1184 0.929 . S
C1188 C1190 1.378 . S
C1188 C1192 1.350 . S
C1189 C1192 1.463 . S
C1189 C1194 1.350 . S
C1189 N1197 1.427 . S
C1190 H1181 0.930 . S
C1190 C1188 1.378 . S
C1190 C1191 1.367 . S
C1191 C1190 1.367 . S
C1191 C1193 1.433 . S
C1192 C1188 1.350 . S
C1192 C1189 1.463 . S
C1192 N1196 1.427 . S
C1193 H1183 0.929 . S
C1193 C1191 1.433 . S
C1193 N1196 1.384 . S
C1194 H1185 0.929 . S
C1194 C1186 1.378 . S
C1194 C1189 1.350 . S
C1195 H1182 0.929 . S
C1195 C1187 1.433 . S
C1195 N1197 1.384 . S
N1196 C1192 1.427 . S
N1196 C1193 1.384 . S
N1197 C1189 1.427 . S
N1197 C1195 1.384 . S
H1198 C1204 0.930 . S
H1199 C1208 0.930 . S
H1200 C1213 0.929 . S
H1201 C1211 0.929 . S
H1202 C1206 0.929 . S
H1203 C1212 0.929 . S
C1204 H1198 0.930 . S
C1204 C1205 1.367 . S
C1204 C1212 1.378 . S
C1205 C1204 1.367 . S
C1205 C1213 1.433 . S
C1206 H1202 0.929 . S
C1206 C1208 1.378 . S
C1206 C1210 1.350 . S
C1207 C1210 1.463 . S
C1207 C1212 1.350 . S
C1207 N1215 1.427 . S
C1208 H1199 0.930 . S
C1208 C1206 1.378 . S
C1208 C1209 1.367 . S
C1209 C1208 1.367 . S
C1209 C1211 1.433 . S
C1210 C1206 1.350 . S
C1210 C1207 1.463 . S
C1210 N1214 1.427 . S
C1211 H1201 0.929 . S
C1211 C1209 1.433 . S
C1211 N1214 1.384 . S
C1212 H1203 0.929 . S
C1212 C1204 1.378 . S
C1212 C1207 1.350 . S
C1213 H1200 0.929 . S
C1213 C1205 1.433 . S
C1213 N1215 1.384 . S
N1214 C1210 1.427 . S
N1214 C1211 1.384 . S
N1215 C1207 1.427 . S
N1215 C1213 1.384 . S
H1216 C1222 0.930 . S
H1217 C1226 0.930 . S
H1218 C1231 0.929 . S
H1219 C1229 0.929 . S
H1220 C1224 0.929 . S
H1221 C1230 0.929 . S
C1222 H1216 0.930 . S
C1222 C1223 1.367 . S
C1222 C1230 1.378 . S
C1223 C1222 1.367 . S
C1223 C1231 1.433 . S
C1224 H1220 0.929 . S
C1224 C1226 1.378 . S
C1224 C1228 1.350 . S
C1225 C1228 1.463 . S
C1225 C1230 1.350 . S
C1225 N1233 1.427 . S
C1226 H1217 0.930 . S
C1226 C1224 1.378 . S
C1226 C1227 1.367 . S
C1227 C1226 1.367 . S
C1227 C1229 1.433 . S
C1228 C1224 1.350 . S
C1228 C1225 1.463 . S
C1228 N1232 1.427 . S
C1229 H1219 0.929 . S
C1229 C1227 1.433 . S
C1229 N1232 1.384 . S
C1230 H1221 0.929 . S
C1230 C1222 1.378 . S
C1230 C1225 1.350 . S
C1231 H1218 0.929 . S
C1231 C1223 1.433 . S
C1231 N1233 1.384 . S
N1232 C1228 1.427 . S
N1232 C1229 1.384 . S
N1233 C1225 1.427 . S
N1233 C1231 1.384 . S
H1234 C1240 0.930 . S
H1235 C1244 0.930 . S
H1236 C1249 0.929 . S
H1237 C1247 0.929 . S
H1238 C1242 0.929 . S
H1239 C1248 0.929 . S
C1240 H1234 0.930 . S
C1240 C1241 1.367 . S
C1240 C1248 1.378 . S
C1241 C1240 1.367 . S
C1241 C1249 1.433 . S
C1242 H1238 0.929 . S
C1242 C1244 1.378 . S
C1242 C1246 1.350 . S
C1243 C1246 1.463 . S
C1243 C1248 1.350 . S
C1243 N1251 1.427 . S
C1244 H1235 0.930 . S
C1244 C1242 1.378 . S
C1244 C1245 1.367 . S
C1245 C1244 1.367 . S
C1245 C1247 1.433 . S
C1246 C1242 1.350 . S
C1246 C1243 1.463 . S
C1246 N1250 1.427 . S
C1247 H1237 0.929 . S
C1247 C1245 1.433 . S
C1247 N1250 1.384 . S
C1248 H1239 0.929 . S
C1248 C1240 1.378 . S
C1248 C1243 1.350 . S
C1249 H1236 0.929 . S
C1249 C1241 1.433 . S
C1249 N1251 1.384 . S
N1250 C1246 1.427 . S
N1250 C1247 1.384 . S
N1251 C1243 1.427 . S
N1251 C1249 1.384 . S
H1252 C1258 0.930 . S
H1253 C1262 0.930 . S
H1254 C1267 0.929 . S
H1255 C1265 0.929 . S
H1256 C1260 0.929 . S
H1257 C1266 0.929 . S
C1258 H1252 0.930 . S
C1258 C1259 1.367 . S
C1258 C1266 1.378 . S
C1259 C1258 1.367 . S
C1259 C1267 1.433 . S
C1260 H1256 0.929 . S
C1260 C1262 1.378 . S
C1260 C1264 1.350 . S
C1261 C1264 1.463 . S
C1261 C1266 1.350 . S
C1261 N1269 1.427 . S
C1262 H1253 0.930 . S
C1262 C1260 1.378 . S
C1262 C1263 1.367 . S
C1263 C1262 1.367 . S
C1263 C1265 1.433 . S
C1264 C1260 1.350 . S
C1264 C1261 1.463 . S
C1264 N1268 1.427 . S
C1265 H1255 0.929 . S
C1265 C1263 1.433 . S
C1265 N1268 1.384 . S
C1266 H1257 0.929 . S
C1266 C1258 1.378 . S
C1266 C1261 1.350 . S
C1267 H1254 0.929 . S
C1267 C1259 1.433 . S
C1267 N1269 1.384 . S
N1268 C1264 1.427 . S
N1268 C1265 1.384 . S
N1269 C1261 1.427 . S
N1269 C1267 1.384 . S
H1270 C1276 0.930 . S
H1271 C1280 0.930 . S
H1272 C1285 0.929 . S
H1273 C1283 0.929 . S
H1274 C1278 0.929 . S
H1275 C1284 0.929 . S
C1276 H1270 0.930 . S
C1276 C1277 1.367 . S
C1276 C1284 1.378 . S
C1277 C1276 1.367 . S
C1277 C1285 1.433 . S
C1278 H1274 0.929 . S
C1278 C1280 1.378 . S
C1278 C1282 1.350 . S
C1279 C1282 1.463 . S
C1279 C1284 1.350 . S
C1279 N1287 1.427 . S
C1280 H1271 0.930 . S
C1280 C1278 1.378 . S
C1280 C1281 1.367 . S
C1281 C1280 1.367 . S
C1281 C1283 1.433 . S
C1282 C1278 1.350 . S
C1282 C1279 1.463 . S
C1282 N1286 1.427 . S
C1283 H1273 0.929 . S
C1283 C1281 1.433 . S
C1283 N1286 1.384 . S
C1284 H1275 0.929 . S
C1284 C1276 1.378 . S
C1284 C1279 1.350 . S
C1285 H1272 0.929 . S
C1285 C1277 1.433 . S
C1285 N1287 1.384 . S
N1286 C1282 1.427 . S
N1286 C1283 1.384 . S
N1287 C1279 1.427 . S
N1287 C1285 1.384 . S
H1288 C1294 0.930 . S
H1289 C1298 0.930 . S
H1290 C1303 0.929 . S
H1291 C1301 0.929 . S
H1292 C1296 0.929 . S
H1293 C1302 0.929 . S
C1294 H1288 0.930 . S
C1294 C1295 1.367 . S
C1294 C1302 1.378 . S
C1295 C1294 1.367 . S
C1295 C1303 1.433 . S
C1296 H1292 0.929 . S
C1296 C1298 1.378 . S
C1296 C1300 1.350 . S
C1297 C1300 1.463 . S
C1297 C1302 1.350 . S
C1297 N1305 1.427 . S
C1298 H1289 0.930 . S
C1298 C1296 1.378 . S
C1298 C1299 1.367 . S
C1299 C1298 1.367 . S
C1299 C1301 1.433 . S
C1300 C1296 1.350 . S
C1300 C1297 1.463 . S
C1300 N1304 1.427 . S
C1301 H1291 0.929 . S
C1301 C1299 1.433 . S
C1301 N1304 1.384 . S
C1302 H1293 0.929 . S
C1302 C1294 1.378 . S
C1302 C1297 1.350 . S
C1303 H1290 0.929 . S
C1303 C1295 1.433 . S
C1303 N1305 1.384 . S
N1304 C1300 1.427 . S
N1304 C1301 1.384 . S
N1305 C1297 1.427 . S
N1305 C1303 1.384 . S
H1306 C1312 0.930 . S
H1307 C1316 0.930 . S
H1308 C1321 0.929 . S
H1309 C1319 0.929 . S
H1310 C1314 0.929 . S
H1311 C1320 0.929 . S
C1312 H1306 0.930 . S
C1312 C1313 1.367 . S
C1312 C1320 1.378 . S
C1313 C1312 1.367 . S
C1313 C1321 1.433 . S
C1314 H1310 0.929 . S
C1314 C1316 1.378 . S
C1314 C1318 1.350 . S
C1315 C1318 1.463 . S
C1315 C1320 1.350 . S
C1315 N1323 1.427 . S
C1316 H1307 0.930 . S
C1316 C1314 1.378 . S
C1316 C1317 1.367 . S
C1317 C1316 1.367 . S
C1317 C1319 1.433 . S
C1318 C1314 1.350 . S
C1318 C1315 1.463 . S
C1318 N1322 1.427 . S
C1319 H1309 0.929 . S
C1319 C1317 1.433 . S
C1319 N1322 1.384 . S
C1320 H1311 0.929 . S
C1320 C1312 1.378 . S
C1320 C1315 1.350 . S
C1321 H1308 0.929 . S
C1321 C1313 1.433 . S
C1321 N1323 1.384 . S
N1322 C1318 1.427 . S
N1322 C1319 1.384 . S
N1323 C1315 1.427 . S
N1323 C1321 1.384 . S
H1324 C1330 0.930 . S
H1325 C1334 0.930 . S
H1326 C1339 0.929 . S
H1327 C1337 0.929 . S
H1328 C1332 0.929 . S
H1329 C1338 0.929 . S
C1330 H1324 0.930 . S
C1330 C1331 1.367 . S
C1330 C1338 1.378 . S
C1331 C1330 1.367 . S
C1331 C1339 1.433 . S
C1332 H1328 0.929 . S
C1332 C1334 1.378 . S
C1332 C1336 1.350 . S
C1333 C1336 1.463 . S
C1333 C1338 1.350 . S
C1333 N1341 1.427 . S
C1334 H1325 0.930 . S
C1334 C1332 1.378 . S
C1334 C1335 1.367 . S
C1335 C1334 1.367 . S
C1335 C1337 1.433 . S
C1336 C1332 1.350 . S
C1336 C1333 1.463 . S
C1336 N1340 1.427 . S
C1337 H1327 0.929 . S
C1337 C1335 1.433 . S
C1337 N1340 1.384 . S
C1338 H1329 0.929 . S
C1338 C1330 1.378 . S
C1338 C1333 1.350 . S
C1339 H1326 0.929 . S
C1339 C1331 1.433 . S
C1339 N1341 1.384 . S
N1340 C1336 1.427 . S
N1340 C1337 1.384 . S
N1341 C1333 1.427 . S
N1341 C1339 1.384 . S
H1342 C1348 0.930 . S
H1343 C1352 0.930 . S
H1344 C1357 0.929 . S
H1345 C1355 0.929 . S
H1346 C1350 0.929 . S
H1347 C1356 0.929 . S
C1348 H1342 0.930 . S
C1348 C1349 1.367 . S
C1348 C1356 1.378 . S
C1349 C1348 1.367 . S
C1349 C1357 1.433 . S
C1350 H1346 0.929 . S
C1350 C1352 1.378 . S
C1350 C1354 1.350 . S
C1351 C1354 1.463 . S
C1351 C1356 1.350 . S
C1351 N1359 1.427 . S
C1352 H1343 0.930 . S
C1352 C1350 1.378 . S
C1352 C1353 1.367 . S
C1353 C1352 1.367 . S
C1353 C1355 1.433 . S
C1354 C1350 1.350 . S
C1354 C1351 1.463 . S
C1354 N1358 1.427 . S
C1355 H1345 0.929 . S
C1355 C1353 1.433 . S
C1355 N1358 1.384 . S
C1356 H1347 0.929 . S
C1356 C1348 1.378 . S
C1356 C1351 1.350 . S
C1357 H1344 0.929 . S
C1357 C1349 1.433 . S
C1357 N1359 1.384 . S
N1358 C1354 1.427 . S
N1358 C1355 1.384 . S
N1359 C1351 1.427 . S
N1359 C1357 1.384 . S
H1360 C1366 0.930 . S
H1361 C1370 0.930 . S
H1362 C1375 0.929 . S
H1363 C1373 0.929 . S
H1364 C1368 0.929 . S
H1365 C1374 0.929 . S
C1366 H1360 0.930 . S
C1366 C1367 1.367 1_554 S
C1366 C1374 1.378 . S
C1367 C1366 1.367 1_556 S
C1367 C1375 1.433 1_556 S
C1368 H1364 0.929 . S
C1368 C1370 1.378 . S
C1368 C1372 1.350 . S
C1369 C1372 1.463 . S
C1369 C1374 1.350 . S
C1369 N1377 1.427 . S
C1370 H1361 0.930 . S
C1370 C1368 1.378 . S
C1370 C1371 1.367 . S
C1371 C1370 1.367 . S
C1371 C1373 1.433 . S
C1372 C1368 1.350 . S
C1372 C1369 1.463 . S
C1372 N1376 1.427 . S
C1373 H1363 0.929 . S
C1373 C1371 1.433 . S
C1373 N1376 1.384 . S
C1374 H1365 0.929 . S
C1374 C1366 1.378 . S
C1374 C1369 1.350 . S
C1375 H1362 0.929 . S
C1375 C1367 1.433 1_554 S
C1375 N1377 1.384 . S
N1376 C1372 1.427 . S
N1376 C1373 1.384 . S
N1377 C1369 1.427 . S
N1377 C1375 1.384 . S
H1378 C1384 0.930 . S
H1379 C1388 0.942 . S
H1380 C1393 0.929 . S
H1381 C1391 0.929 . S
H1382 C1386 0.929 . S
H1383 C1392 0.929 . S
C1384 H1378 0.930 . S
C1384 C1385 1.367 . S
C1384 C1392 1.378 . S
C1385 C1384 1.367 . S
C1385 C1393 1.433 . S
C1386 H1382 0.929 . S
C1386 C1388 1.378 . S
C1386 C1390 1.350 . S
C1387 C1390 1.463 . S
C1387 C1392 1.350 . S
C1387 N1395 1.427 . S
C1388 H1379 0.942 . S
C1388 C1386 1.378 . S
C1388 C1389 1.367 1_556 S
C1389 C1388 1.367 1_554 S
C1389 C1391 1.433 1_554 S
C1390 C1386 1.350 . S
C1390 C1387 1.463 . S
C1390 N1394 1.427 . S
C1391 H1381 0.929 . S
C1391 C1389 1.433 1_556 S
C1391 N1394 1.384 . S
C1392 H1383 0.929 . S
C1392 C1384 1.378 . S
C1392 C1387 1.350 . S
C1393 H1380 0.929 . S
C1393 C1385 1.433 . S
C1393 N1395 1.384 . S
N1394 C1390 1.427 . S
N1394 C1391 1.384 . S
N1395 C1387 1.427 . S
N1395 C1393 1.384 . S
H1396 C1402 0.930 . S
H1397 C1406 0.930 . S
H1398 C1411 0.929 . S
H1399 C1409 0.929 . S
H1400 C1404 0.929 . S
H1401 C1410 0.929 . S
C1402 H1396 0.930 . S
C1402 C1403 1.367 . S
C1402 C1410 1.378 . S
C1403 C1402 1.367 . S
C1403 C1411 1.433 . S
C1404 H1400 0.929 . S
C1404 C1406 1.378 . S
C1404 C1408 1.350 . S
C1405 C1408 1.463 . S
C1405 C1410 1.350 . S
C1405 N1413 1.427 . S
C1406 H1397 0.930 . S
C1406 C1404 1.378 . S
C1406 C1407 1.367 1_554 S
C1407 C1406 1.367 1_556 S
C1407 C1409 1.433 1_556 S
C1408 C1404 1.350 . S
C1408 C1405 1.463 . S
C1408 N1412 1.427 . S
C1409 H1399 0.929 . S
C1409 C1407 1.433 1_554 S
C1409 N1412 1.384 . S
C1410 H1401 0.929 . S
C1410 C1402 1.378 . S
C1410 C1405 1.350 . S
C1411 H1398 0.929 . S
C1411 C1403 1.433 . S
C1411 N1413 1.384 . S
N1412 C1408 1.427 . S
N1412 C1409 1.384 . S
N1413 C1405 1.427 . S
N1413 C1411 1.384 . S
H1414 C1420 0.930 1_554 S
H1415 C1424 0.930 . S
H1416 C1429 0.929 . S
H1417 C1427 0.929 . S
H1418 C1422 0.929 . S
H1419 C1428 0.929 . S
C1420 H1414 0.930 1_556 S
C1420 C1421 1.367 1_556 S
C1420 C1428 1.378 . S
C1421 C1420 1.367 1_554 S
C1421 C1429 1.433 1_554 S
C1422 H1418 0.929 . S
C1422 C1424 1.378 . S
C1422 C1426 1.350 . S
C1423 C1426 1.463 . S
C1423 C1428 1.350 . S
C1423 N1431 1.427 . S
C1424 H1415 0.930 . S
C1424 C1422 1.378 . S
C1424 C1425 1.367 . S
C1425 C1424 1.367 . S
C1425 C1427 1.433 . S
C1426 C1422 1.350 . S
C1426 C1423 1.463 . S
C1426 N1430 1.427 . S
C1427 H1417 0.929 . S
C1427 C1425 1.433 . S
C1427 N1430 1.384 . S
C1428 H1419 0.929 . S
C1428 C1420 1.378 . S
C1428 C1423 1.350 . S
C1429 H1416 0.929 . S
C1429 C1421 1.433 1_556 S
C1429 N1431 1.384 . S
N1430 C1426 1.427 . S
N1430 C1427 1.384 . S
N1431 C1423 1.427 . S
N1431 C1429 1.384 . S
H1432 C1438 0.930 . S
H1433 C1442 0.930 1_556 S
H1434 C1447 0.929 . S
H1435 C1445 0.929 . S
H1436 C1440 0.929 . S
H1437 C1446 0.929 . S
C1438 H1432 0.930 . S
C1438 C1439 1.367 . S
C1438 C1446 1.378 . S
C1439 C1438 1.367 . S
C1439 C1447 1.433 . S
C1440 H1436 0.929 . S
C1440 C1442 1.378 . S
C1440 C1444 1.350 . S
C1441 C1444 1.463 . S
C1441 C1446 1.350 . S
C1441 N1449 1.427 . S
C1442 H1433 0.930 1_554 S
C1442 C1440 1.378 . S
C1442 C1443 1.367 1_554 S
C1443 C1442 1.367 1_556 S
C1443 C1445 1.433 1_556 S
C1444 C1440 1.350 . S
C1444 C1441 1.463 . S
C1444 N1448 1.427 . S
C1445 H1435 0.929 . S
C1445 C1443 1.433 1_554 S
C1445 N1448 1.384 . S
C1446 H1437 0.929 . S
C1446 C1438 1.378 . S
C1446 C1441 1.350 . S
C1447 H1434 0.929 . S
C1447 C1439 1.433 . S
C1447 N1449 1.384 . S
N1448 C1444 1.427 . S
N1448 C1445 1.384 . S
N1449 C1441 1.427 . S
N1449 C1447 1.384 . S
H1450 C1456 0.930 . S
H1451 C1460 0.930 . S
H1452 C1465 0.929 1_554 S
H1453 C1463 0.929 . S
H1454 C1458 0.929 . S
H1455 C1464 0.929 . S
C1456 H1450 0.930 . S
C1456 C1457 1.367 1_556 S
C1456 C1464 1.378 . S
C1457 C1456 1.367 1_554 S
C1457 C1465 1.433 1_554 S
C1458 H1454 0.929 . S
C1458 C1460 1.378 . S
C1458 C1462 1.350 . S
C1459 C1462 1.463 . S
C1459 C1464 1.350 . S
C1459 N1467 1.427 . S
C1460 H1451 0.930 . S
C1460 C1458 1.378 . S
C1460 C1461 1.367 . S
C1461 C1460 1.367 . S
C1461 C1463 1.433 . S
C1462 C1458 1.350 . S
C1462 C1459 1.463 . S
C1462 N1466 1.427 . S
C1463 H1453 0.929 . S
C1463 C1461 1.433 . S
C1463 N1466 1.384 . S
C1464 H1455 0.929 . S
C1464 C1456 1.378 . S
C1464 C1459 1.350 . S
C1465 H1452 0.929 1_556 S
C1465 C1457 1.433 1_556 S
C1465 N1467 1.384 . S
N1466 C1462 1.427 . S
N1466 C1463 1.384 . S
N1467 C1459 1.427 . S
N1467 C1465 1.384 . S
H1468 C1474 0.930 . S
H1469 C1478 0.930 . S
H1470 C1483 0.929 1_556 S
H1471 C1481 0.929 . S
H1472 C1476 0.929 . S
H1473 C1482 0.929 . S
C1474 H1468 0.930 . S
C1474 C1475 1.367 1_554 S
C1474 C1482 1.378 . S
C1475 C1474 1.367 1_556 S
C1475 C1483 1.433 1_556 S
C1476 H1472 0.929 . S
C1476 C1478 1.378 . S
C1476 C1480 1.350 . S
C1477 C1480 1.463 . S
C1477 C1482 1.350 . S
C1477 N1485 1.427 . S
C1478 H1469 0.930 . S
C1478 C1476 1.378 . S
C1478 C1479 1.367 . S
C1479 C1478 1.367 . S
C1479 C1481 1.433 . S
C1480 C1476 1.350 . S
C1480 C1477 1.463 . S
C1480 N1484 1.427 . S
C1481 H1471 0.929 . S
C1481 C1479 1.433 . S
C1481 N1484 1.384 . S
C1482 H1473 0.929 . S
C1482 C1474 1.378 . S
C1482 C1477 1.350 . S
C1483 H1470 0.929 1_554 S
C1483 C1475 1.433 1_554 S
C1483 N1485 1.384 . S
N1484 C1480 1.427 . S
N1484 C1481 1.384 . S
N1485 C1477 1.427 . S
N1485 C1483 1.384 . S
H1486 C1492 0.930 . S
H1487 C1496 0.930 . S
H1488 C1501 0.929 . S
H1489 C1499 0.929 1_554 S
H1490 C1494 0.929 . S
H1491 C1500 0.929 . S
C1492 H1486 0.930 . S
C1492 C1493 1.367 . S
C1492 C1500 1.378 . S
C1493 C1492 1.367 . S
C1493 C1501 1.433 . S
C1494 H1490 0.929 . S
C1494 C1496 1.378 . S
C1494 C1498 1.350 . S
C1495 C1498 1.463 . S
C1495 C1500 1.350 . S
C1495 N1503 1.427 . S
C1496 H1487 0.930 . S
C1496 C1494 1.378 . S
C1496 C1497 1.367 1_556 S
C1497 C1496 1.367 1_554 S
C1497 C1499 1.433 1_554 S
C1498 C1494 1.350 . S
C1498 C1495 1.463 . S
C1498 N1502 1.427 . S
C1499 H1489 0.929 1_556 S
C1499 C1497 1.433 1_556 S
C1499 N1502 1.384 . S
C1500 H1491 0.929 . S
C1500 C1492 1.378 . S
C1500 C1495 1.350 . S
C1501 H1488 0.929 . S
C1501 C1493 1.433 . S
C1501 N1503 1.384 . S
N1502 C1498 1.427 . S
N1502 C1499 1.384 . S
N1503 C1495 1.427 . S
N1503 C1501 1.384 . S
C647 C464 1.704 . S
C651 C23 1.706 . S
C665 C333 1.701 . S
C669 C42 1.704 . S
C683 C103 1.709 . S
C687 C384 1.706 . S
C701 C122 1.709 . S
C705 C413 1.706 . S
C719 C183 1.707 . S
C723 C224 1.704 . S
C737 C253 1.708 . S
C741 C202 1.710 . S
C755 C263 1.704 . S
C759 C304 1.701 . S
C773 C173 1.708 . S
C777 C282 1.710 . S
C791 C144 1.701 . S
C795 C343 1.704 . S
C809 C362 1.707 . S
C813 C13 1.704 . S
C827 C64 1.706 . S
C831 C423 1.709 . S
C845 C93 1.701 . S
C849 C442 1.704 . S
C863 C503 1.704 . S
C867 C544 1.701 . S
C881 C573 1.702 . S
C885 C522 1.705 . S
C899 C624 1.704 . S
C903 C583 1.707 . S
C917 C602 1.710 . S
C921 C493 1.707 . S
C935 C2 1.175 . S
C939 C162 1.175 . S
C953 C223 1.185 . S
C957 C63 1.187 . S
C971 C82 1.179 . S
C975 C242 1.180 . S
C989 C143 1.175 . S
C993 C303 1.175 . S
C1007 C322 1.176 . S
C1011 C482 1.175 . S
C1025 C543 1.186 . S
C1029 C383 1.187 . S
C1043 C402 1.175 . S
C1047 C562 1.175 . S
C1061 C463 1.179 . S
C1065 C623 1.178 . S
C1079 C584 2.369 . S
C1083 C24 2.368 1_556 S
C1097 C53 2.369 1_554 S
C1101 C613 2.370 . S
C1115 C104 2.367 1_556 S
C1119 C504 2.368 . S
C1133 C133 2.371 1_554 S
C1137 C533 2.372 . S
C1151 C184 2.368 . S
C1155 C424 2.369 . S
C1169 C213 2.370 . S
C1173 C453 2.371 . S
C1187 C264 2.369 . S
C1191 C344 2.370 . S
C1205 C373 2.372 . S
C1209 C293 2.372 . S
C1223 C26 1.000 . S
C1227 C17 1.000 . S
C1241 C57 1.016 . S
C1245 C66 1.016 . S
C1259 C106 1.015 . S
C1263 C97 1.015 . S
C1277 C146 1.005 . S
C1281 C137 1.005 . S
C1295 C177 1.004 . S
C1299 C186 1.004 . S
C1313 C217 1.001 . S
C1317 C226 1.001 . S
C1331 C266 1.015 . S
C1335 C257 1.015 . S
C1349 C306 1.005 . S
C1353 C297 1.005 . S
C1367 C346 1.010 . S
C1371 C337 1.010 . S
C1385 C386 1.007 . S
C1389 C377 1.007 . S
C1403 C417 1.008 . S
C1407 C426 1.008 . S
C1421 C457 1.003 . S
C1425 C466 1.003 . S
C1439 C506 1.002 . S
C1443 C497 1.002 . S
C1457 C546 1.013 . S
C1461 C537 1.013 . S
C1475 C577 1.013 . S
C1479 C586 1.013 . S
C1493 C617 1.016 . S
C1497 C626 1.016 . S
