# Generated by pormake.
# Topology xfz, (5)-cn, num edge types: 1
# Building blocks:
#     Node 0, Type 0, BuildingBlock: BEQFEK_clean_sbu_0, # of connection points: 5
#     Node 1, Type 0, BuildingBlock: BEQFEK_clean_sbu_0, # of connection points: 5
#     Node 2, Type 0, BuildingBlock: BEQFEK_clean_sbu_0, # of connection points: 5
#     Node 3, Type 0, BuildingBlock: BEQFEK_clean_sbu_0, # of connection points: 5
#     Node 4, Type 0, BuildingBlock: BEQFEK_clean_sbu_0, # of connection points: 5
#     Node 5, Type 0, BuildingBlock: BEQFEK_clean_sbu_0, # of connection points: 5
#     Node 6, Type 0, BuildingBlock: BEQFEK_clean_sbu_0, # of connection points: 5
#     Node 7, Type 0, BuildingBlock: BEQFEK_clean_sbu_0, # of connection points: 5
#     Node 8, Type 0, BuildingBlock: BEQFEK_clean_sbu_0, # of connection points: 5
#     Node 9, Type 0, BuildingBlock: BEQFEK_clean_sbu_0, # of connection points: 5
#     Node 10, Type 0, BuildingBlock: BEQFEK_clean_sbu_0, # of connection points: 5
#     Node 11, Type 0, BuildingBlock: BEQFEK_clean_sbu_0, # of connection points: 5
#     Node 12, Type 0, BuildingBlock: BEQFEK_clean_sbu_0, # of connection points: 5
#     Node 13, Type 0, BuildingBlock: BEQFEK_clean_sbu_0, # of connection points: 5
#     Node 14, Type 0, BuildingBlock: BEQFEK_clean_sbu_0, # of connection points: 5
#     Node 15, Type 0, BuildingBlock: BEQFEK_clean_sbu_0, # of connection points: 5
#     Edge 16, Type (0, 0), BuildingBlock: TEMPAE_clean_linker_10, # of connection points: 2
#     Edge 17, Type (0, 0), BuildingBlock: TEMPAE_clean_linker_10, # of connection points: 2
#     Edge 18, Type (0, 0), BuildingBlock: TEMPAE_clean_linker_10, # of connection points: 2
#     Edge 19, Type (0, 0), BuildingBlock: TEMPAE_clean_linker_10, # of connection points: 2
#     Edge 20, Type (0, 0), BuildingBlock: TEMPAE_clean_linker_10, # of connection points: 2
#     Edge 21, Type (0, 0), BuildingBlock: TEMPAE_clean_linker_10, # of connection points: 2
#     Edge 22, Type (0, 0), BuildingBlock: TEMPAE_clean_linker_10, # of connection points: 2
#     Edge 23, Type (0, 0), BuildingBlock: TEMPAE_clean_linker_10, # of connection points: 2
#     Edge 24, Type (0, 0), BuildingBlock: TEMPAE_clean_linker_10, # of connection points: 2
#     Edge 25, Type (0, 0), BuildingBlock: TEMPAE_clean_linker_10, # of connection points: 2
#     Edge 26, Type (0, 0), BuildingBlock: TEMPAE_clean_linker_10, # of connection points: 2
#     Edge 27, Type (0, 0), BuildingBlock: TEMPAE_clean_linker_10, # of connection points: 2
#     Edge 28, Type (0, 0), BuildingBlock: TEMPAE_clean_linker_10, # of connection points: 2
#     Edge 29, Type (0, 0), BuildingBlock: TEMPAE_clean_linker_10, # of connection points: 2
#     Edge 30, Type (0, 0), BuildingBlock: TEMPAE_clean_linker_10, # of connection points: 2
#     Edge 31, Type (0, 0), BuildingBlock: TEMPAE_clean_linker_10, # of connection points: 2
#     Edge 32, Type (0, 0), BuildingBlock: TEMPAE_clean_linker_10, # of connection points: 2
#     Edge 33, Type (0, 0), BuildingBlock: TEMPAE_clean_linker_10, # of connection points: 2
#     Edge 34, Type (0, 0), BuildingBlock: TEMPAE_clean_linker_10, # of connection points: 2
#     Edge 35, Type (0, 0), BuildingBlock: TEMPAE_clean_linker_10, # of connection points: 2
#     Edge 36, Type (0, 0), BuildingBlock: TEMPAE_clean_linker_10, # of connection points: 2
#     Edge 37, Type (0, 0), BuildingBlock: TEMPAE_clean_linker_10, # of connection points: 2
#     Edge 38, Type (0, 0), BuildingBlock: TEMPAE_clean_linker_10, # of connection points: 2
#     Edge 39, Type (0, 0), BuildingBlock: TEMPAE_clean_linker_10, # of connection points: 2
#     Edge 40, Type (0, 0), BuildingBlock: TEMPAE_clean_linker_10, # of connection points: 2
#     Edge 41, Type (0, 0), BuildingBlock: TEMPAE_clean_linker_10, # of connection points: 2
#     Edge 42, Type (0, 0), BuildingBlock: TEMPAE_clean_linker_10, # of connection points: 2
#     Edge 43, Type (0, 0), BuildingBlock: TEMPAE_clean_linker_10, # of connection points: 2
#     Edge 44, Type (0, 0), BuildingBlock: TEMPAE_clean_linker_10, # of connection points: 2
#     Edge 45, Type (0, 0), BuildingBlock: TEMPAE_clean_linker_10, # of connection points: 2
#     Edge 46, Type (0, 0), BuildingBlock: TEMPAE_clean_linker_10, # of connection points: 2
#     Edge 47, Type (0, 0), BuildingBlock: TEMPAE_clean_linker_10, # of connection points: 2
#     Edge 48, Type (0, 0), BuildingBlock: TEMPAE_clean_linker_10, # of connection points: 2
#     Edge 49, Type (0, 0), BuildingBlock: TEMPAE_clean_linker_10, # of connection points: 2
#     Edge 50, Type (0, 0), BuildingBlock: TEMPAE_clean_linker_10, # of connection points: 2
#     Edge 51, Type (0, 0), BuildingBlock: TEMPAE_clean_linker_10, # of connection points: 2
#     Edge 52, Type (0, 0), BuildingBlock: TEMPAE_clean_linker_10, # of connection points: 2
#     Edge 53, Type (0, 0), BuildingBlock: TEMPAE_clean_linker_10, # of connection points: 2
#     Edge 54, Type (0, 0), BuildingBlock: TEMPAE_clean_linker_10, # of connection points: 2
#     Edge 55, Type (0, 0), BuildingBlock: TEMPAE_clean_linker_10, # of connection points: 2
# Relax obj value: 0.381
# Max RMSD: 0.181
# Mean RMSD: 0.181
data_MOF--net-xfz--node1-BEQFEK_clean_sbu_0--edge1-TEMPAE_clean_linker_10
_symmetry_space_group_name_H-M    P1
_symmetry_Int_Tables_number       1
_symmetry_cell_setting            triclinic
loop_
_symmetry_equiv_pos_as_xyz
'x, y, z'
_cell_length_a     47.790051
_cell_length_b     47.815307
_cell_length_c     50.420754
_cell_angle_alpha  89.961688
_cell_angle_beta   90.030201
_cell_angle_gamma 89.959051
loop_
_atom_site_label
_atom_site_type_symbol
_atom_site_fract_x
_atom_site_fract_y
_atom_site_fract_z
_atom_type_partial_charge
Co0 Co 0.14355 0.47753 0.37479 0.0
Co1 Co 0.19831 0.46003 0.34584 0.0
C2 C 0.14463 0.42576 0.34216 0.0
O3 O 0.13226 0.44198 0.35832 0.0
O4 O 0.17003 0.43022 0.33556 0.0
C5 C 0.10022 0.47438 0.41405 0.0
O6 O 0.10895 0.4486 0.4177 0.0
C7 C 0.24653 0.42218 0.33893 0.0
C8 C 0.27519 0.44749 0.3144 0.0
C9 C 0.2727 0.42175 0.32685 0.0
N10 N 0.23437 0.44711 0.33408 0.0
N11 N 0.25164 0.46211 0.31937 0.0
C12 C 0.23253 0.39867 0.3534 0.0
H13 H 0.20974 0.40237 0.35513 0.0
H14 H 0.24119 0.39694 0.37371 0.0
H15 H 0.23648 0.37858 0.34304 0.0
C16 C 0.18117 0.48115 0.42085 0.0
N17 N 0.17636 0.47496 0.39521 0.0
N18 N 0.19991 0.46732 0.38379 0.0
C19 C 0.22055 0.46817 0.40233 0.0
C20 C 0.20909 0.47644 0.42655 0.0
C21 C 0.16026 0.49452 0.43903 0.0
H22 H 0.14715 0.50962 0.42792 0.0
H23 H 0.14677 0.47811 0.44782 0.0
H24 H 0.17069 0.50593 0.45544 0.0
O25 O 0.14781 0.50553 0.34656 0.0
O26 O 0.1872 0.49529 0.32538 0.0
H27 H 0.25709 0.47131 0.37785 0.0
H28 H 0.26435 0.46962 0.4131 0.0
C29 C 0.25066 0.46181 0.39697 0.0
H30 H 0.25344 0.43888 0.39553 0.0
H31 H 0.24735 0.48233 0.3127 0.0
O32 O 0.11216 0.48968 0.39685 0.0
C33 C 0.16542 0.51063 0.32826 0.0
Co34 Co 0.46989 0.86339 0.66815 0.0
Co35 Co 0.45989 0.80615 0.69586 0.0
C36 C 0.42158 0.85667 0.70438 0.0
O37 O 0.43563 0.87092 0.68787 0.0
O38 O 0.42837 0.83137 0.70948 0.0
C39 C 0.45907 0.91368 0.63985 0.0
O40 O 0.43322 0.90969 0.64777 0.0
C41 C 0.42468 0.75713 0.70279 0.0
C42 C 0.45308 0.72572 0.72029 0.0
C43 C 0.42572 0.72967 0.71179 0.0
N44 N 0.45002 0.76883 0.70603 0.0
N45 N 0.46693 0.74999 0.71659 0.0
C46 C 0.4008 0.77159 0.68932 0.0
H47 H 0.40871 0.78824 0.67594 0.0
H48 H 0.38802 0.75646 0.67785 0.0
H49 H 0.38731 0.78152 0.70455 0.0
C50 C 0.47253 0.82884 0.62058 0.0
N51 N 0.46725 0.8317 0.6466 0.0
N52 N 0.46506 0.80696 0.65771 0.0
C53 C 0.46984 0.7873 0.63883 0.0
C54 C 0.47506 0.80062 0.61462 0.0
C55 C 0.47552 0.85295 0.60179 0.0
H56 H 0.45851 0.86823 0.60538 0.0
H57 H 0.47435 0.84613 0.58079 0.0
H58 H 0.49587 0.86348 0.60532 0.0
O59 O 0.50087 0.85954 0.69412 0.0
O60 O 0.49542 0.81861 0.71434 0.0
H61 H 0.48152 0.74521 0.62751 0.0
H62 H 0.45123 0.74815 0.64879 0.0
C63 C 0.47233 0.75671 0.64452 0.0
H64 H 0.48547 0.75349 0.6624 0.0
H65 H 0.48798 0.75356 0.72093 0.0
O66 O 0.47803 0.89635 0.64624 0.0
C67 C 0.50884 0.84154 0.71121 0.0
Co68 Co 0.86322 0.52662 0.37294 0.0
Co69 Co 0.80706 0.54389 0.34661 0.0
C70 C 0.85983 0.57853 0.34004 0.0
O71 O 0.87296 0.56201 0.3554 0.0
O72 O 0.83401 0.57442 0.3348 0.0
C73 C 0.90868 0.52941 0.41049 0.0
O74 O 0.89827 0.55364 0.41781 0.0
C75 C 0.75901 0.58131 0.33925 0.0
C76 C 0.72657 0.55295 0.32356 0.0
C77 C 0.73117 0.58047 0.33111 0.0
N78 N 0.77014 0.5556 0.33659 0.0
N79 N 0.75068 0.53879 0.32702 0.0
C80 C 0.77428 0.60528 0.35166 0.0
H81 H 0.79153 0.59748 0.36444 0.0
H82 H 0.75981 0.61836 0.3636 0.0
H83 H 0.78352 0.61844 0.33579 0.0
C84 C 0.82814 0.52283 0.42084 0.0
N85 N 0.83169 0.52908 0.39503 0.0
N86 N 0.80771 0.53716 0.38472 0.0
C87 C 0.78812 0.53688 0.40424 0.0
C88 C 0.80066 0.52815 0.42787 0.0
C89 C 0.84961 0.50863 0.43785 0.0
H90 H 0.86291 0.49467 0.42569 0.0
H91 H 0.86284 0.52463 0.44761 0.0
H92 H 0.83955 0.49591 0.45361 0.0
O93 O 0.8576 0.49829 0.34558 0.0
O94 O 0.81731 0.50841 0.32598 0.0
H95 H 0.74909 0.53221 0.38397 0.0
H96 H 0.7457 0.54137 0.4187 0.0
C97 C 0.75811 0.54473 0.40039 0.0
H98 H 0.75679 0.5671 0.39478 0.0
H99 H 0.7537 0.51752 0.32337 0.0
O100 O 0.89651 0.51519 0.39264 0.0
C101 C 0.83914 0.49301 0.32814 0.0
Co102 Co 0.52876 0.14297 0.66805 0.0
Co103 Co 0.5435 0.19917 0.69575 0.0
C104 C 0.57981 0.14768 0.70213 0.0
O105 O 0.56375 0.13428 0.68665 0.0
O106 O 0.57489 0.17328 0.70758 0.0
C107 C 0.54028 0.09639 0.63529 0.0
O108 O 0.56645 0.10347 0.63951 0.0
C109 C 0.58009 0.24717 0.70439 0.0
C110 C 0.55146 0.2796 0.71966 0.0
C111 C 0.57917 0.27486 0.71275 0.0
N112 N 0.55429 0.23614 0.7064 0.0
N113 N 0.53727 0.25559 0.7157 0.0
C114 C 0.60432 0.23204 0.69223 0.0
H115 H 0.59676 0.21556 0.67849 0.0
H116 H 0.61812 0.24675 0.68134 0.0
H117 H 0.61668 0.22184 0.70818 0.0
C118 C 0.52579 0.17835 0.62083 0.0
N119 N 0.53111 0.17493 0.64682 0.0
N120 N 0.53756 0.1991 0.65758 0.0
C121 C 0.53683 0.21888 0.63825 0.0
C122 C 0.52966 0.2062 0.61421 0.0
C123 C 0.51438 0.15579 0.60325 0.0
H124 H 0.49825 0.14367 0.61406 0.0
H125 H 0.53159 0.14143 0.59753 0.0
H126 H 0.50467 0.16441 0.58501 0.0
O127 O 0.49908 0.14679 0.69477 0.0
O128 O 0.50814 0.18675 0.71554 0.0
H129 H 0.52929 0.2573 0.65871 0.0
H130 H 0.53968 0.26166 0.62437 0.0
C131 C 0.54292 0.24919 0.64267 0.0
H132 H 0.56496 0.25155 0.64916 0.0
H133 H 0.51589 0.25265 0.71883 0.0
O134 O 0.52065 0.1104 0.64583 0.0
C135 C 0.49324 0.16465 0.71267 0.0
Co136 Co 0.1446 0.52712 0.66522 0.0
Co137 Co 0.19989 0.54372 0.69373 0.0
C138 C 0.14592 0.57738 0.69986 0.0
O139 O 0.13337 0.56186 0.68321 0.0
O140 O 0.17152 0.57285 0.70576 0.0
C141 C 0.1 0.53069 0.62699 0.0
O142 O 0.10826 0.55663 0.62342 0.0
C143 C 0.2481 0.58139 0.70061 0.0
C144 C 0.27724 0.55565 0.7243 0.0
C145 C 0.27446 0.58161 0.7123 0.0
N146 N 0.23608 0.55637 0.70521 0.0
N147 N 0.25363 0.54111 0.71942 0.0
C148 C 0.23379 0.60515 0.68676 0.0
H149 H 0.21101 0.6013 0.6851 0.0
H150 H 0.2423 0.6075 0.66645 0.0
H151 H 0.23765 0.625 0.69757 0.0
C152 C 0.18132 0.52505 0.61842 0.0
N153 N 0.17693 0.53067 0.64425 0.0
N154 N 0.20069 0.53778 0.65555 0.0
C155 C 0.22109 0.53709 0.63679 0.0
C156 C 0.20924 0.52953 0.61253 0.0
C157 C 0.16006 0.51215 0.60031 0.0
H158 H 0.14727 0.4967 0.61129 0.0
H159 H 0.14627 0.52876 0.59225 0.0
H160 H 0.17011 0.50121 0.5834 0.0
O161 O 0.14982 0.49817 0.69241 0.0
O162 O 0.1897 0.50766 0.71307 0.0
H163 H 0.25789 0.5323 0.66071 0.0
H164 H 0.26475 0.53548 0.62549 0.0
C165 C 0.25136 0.54274 0.64206 0.0
H166 H 0.25449 0.56554 0.64441 0.0
H167 H 0.2495 0.52077 0.72581 0.0
O168 O 0.11273 0.51529 0.6436 0.0
C169 C 0.16791 0.4924 0.71011 0.0
Co170 Co 0.53514 0.86353 0.37394 0.0
Co171 Co 0.54583 0.80643 0.34626 0.0
C172 C 0.58319 0.85769 0.33743 0.0
O173 O 0.56906 0.8717 0.35404 0.0
O174 O 0.57679 0.83228 0.33243 0.0
C175 C 0.54532 0.91388 0.4022 0.0
O176 O 0.57122 0.9101 0.39429 0.0
C177 C 0.58022 0.75609 0.34302 0.0
C178 C 0.55682 0.72913 0.3153 0.0
C179 C 0.58115 0.73028 0.33033 0.0
N180 N 0.55651 0.76934 0.33595 0.0
N181 N 0.54253 0.75306 0.31945 0.0
C182 C 0.6023 0.76908 0.36011 0.0
H183 H 0.59954 0.79208 0.36107 0.0
H184 H 0.6005 0.76072 0.38056 0.0
H185 H 0.62346 0.76395 0.35244 0.0
C186 C 0.53326 0.82905 0.42155 0.0
N187 N 0.53851 0.83187 0.39552 0.0
N188 N 0.54055 0.80711 0.38443 0.0
C189 C 0.53545 0.7875 0.40331 0.0
C190 C 0.53042 0.80088 0.42752 0.0
C191 C 0.53051 0.85318 0.44033 0.0
H192 H 0.54742 0.86848 0.43646 0.0
H193 H 0.53205 0.84636 0.46131 0.0
H194 H 0.51007 0.86367 0.4371 0.0
O195 O 0.50408 0.85916 0.34809 0.0
O196 O 0.51005 0.81832 0.32786 0.0
H197 H 0.5231 0.75389 0.37763 0.0
H198 H 0.51853 0.74684 0.41275 0.0
C199 C 0.5321 0.75699 0.3977 0.0
H200 H 0.55295 0.74682 0.39829 0.0
H201 H 0.52351 0.75848 0.31067 0.0
O202 O 0.52654 0.89637 0.39583 0.0
C203 C 0.49631 0.84107 0.33103 0.0
Co204 Co 0.86242 0.47652 0.66916 0.0
Co205 Co 0.80642 0.45997 0.69631 0.0
C206 C 0.8602 0.42641 0.70401 0.0
O207 O 0.87302 0.44196 0.68761 0.0
O208 O 0.83444 0.43084 0.70936 0.0
C209 C 0.90827 0.47383 0.63199 0.0
O210 O 0.89877 0.44903 0.62536 0.0
C211 C 0.75801 0.42223 0.70228 0.0
C212 C 0.72837 0.44808 0.72521 0.0
C213 C 0.73143 0.42202 0.71352 0.0
N214 N 0.76988 0.44732 0.70688 0.0
N215 N 0.75201 0.46265 0.72062 0.0
C216 C 0.77266 0.39843 0.68887 0.0
H217 H 0.7955 0.40218 0.6879 0.0
H218 H 0.76481 0.39622 0.6683 0.0
H219 H 0.76836 0.37857 0.69952 0.0
C220 C 0.82705 0.47856 0.62133 0.0
N221 N 0.83083 0.47285 0.64724 0.0
N222 N 0.80678 0.46576 0.65802 0.0
C223 C 0.78683 0.46658 0.63882 0.0
C224 C 0.79928 0.47419 0.61484 0.0
C225 C 0.84863 0.49171 0.60372 0.0
H226 H 0.8618 0.50638 0.61523 0.0
H227 H 0.86197 0.47513 0.595 0.0
H228 H 0.83877 0.50351 0.58721 0.0
O229 O 0.85614 0.5056 0.6958 0.0
O230 O 0.81582 0.49628 0.71567 0.0
H231 H 0.74952 0.47192 0.66184 0.0
H232 H 0.7435 0.46852 0.62648 0.0
C233 C 0.75639 0.46125 0.64343 0.0
H234 H 0.753 0.4385 0.64594 0.0
H235 H 0.75599 0.48304 0.72694 0.0
O236 O 0.89547 0.48827 0.64927 0.0
C237 C 0.83759 0.51162 0.71296 0.0
Co238 Co 0.47577 0.14289 0.37421 0.0
Co239 Co 0.4607 0.19892 0.34625 0.0
C240 C 0.42475 0.14731 0.33998 0.0
O241 O 0.44094 0.13404 0.35548 0.0
O242 O 0.42941 0.17295 0.33452 0.0
C243 C 0.46411 0.0966 0.40725 0.0
O244 O 0.438 0.10393 0.40307 0.0
C245 C 0.42416 0.24695 0.33727 0.0
C246 C 0.45276 0.27903 0.32132 0.0
C247 C 0.42507 0.2745 0.32844 0.0
N248 N 0.44993 0.23581 0.33531 0.0
N249 N 0.46693 0.25505 0.32562 0.0
C250 C 0.39997 0.23204 0.34972 0.0
H251 H 0.40757 0.2156 0.36351 0.0
H252 H 0.38633 0.24691 0.3606 0.0
H253 H 0.38743 0.2218 0.33394 0.0
C254 C 0.47848 0.17844 0.42127 0.0
N255 N 0.47321 0.17492 0.39529 0.0
N256 N 0.46661 0.19903 0.38442 0.0
C257 C 0.46722 0.21887 0.40368 0.0
C258 C 0.47444 0.20629 0.42778 0.0
C259 C 0.49 0.15599 0.43896 0.0
H260 H 0.50614 0.14383 0.42819 0.0
H261 H 0.47285 0.14165 0.44481 0.0
H262 H 0.49973 0.16473 0.45712 0.0
O263 O 0.50553 0.14669 0.34758 0.0
O264 O 0.49606 0.18645 0.32655 0.0
H265 H 0.47444 0.2572 0.3829 0.0
H266 H 0.46439 0.26172 0.41732 0.0
C267 C 0.461 0.24914 0.39913 0.0
H268 H 0.43889 0.25144 0.39282 0.0
H269 H 0.48828 0.25197 0.32239 0.0
O270 O 0.48383 0.11039 0.3966 0.0
C271 C 0.51117 0.1645 0.32955 0.0
Co272 Co 0.64474 0.97861 0.87102 0.0
Co273 Co 0.70052 0.962 0.8435 0.0
C274 C 0.64666 0.92851 0.83634 0.0
O275 O 0.63399 0.9439 0.85297 0.0
O276 O 0.6723 0.93309 0.83066 0.0
C277 C 0.59963 0.97575 0.90876 0.0
O278 O 0.60948 0.95095 0.91504 0.0
C279 C 0.74851 0.92379 0.83744 0.0
C280 C 0.77827 0.94914 0.81416 0.0
C281 C 0.77501 0.92318 0.82604 0.0
N282 N 0.73689 0.949 0.83275 0.0
N283 N 0.75482 0.96403 0.8188 0.0
C284 C 0.7337 0.90021 0.85104 0.0
H285 H 0.71096 0.90443 0.85248 0.0
H286 H 0.74195 0.89767 0.87144 0.0
H287 H 0.73738 0.88034 0.84021 0.0
C288 C 0.68052 0.98106 0.91848 0.0
N289 N 0.67655 0.97516 0.89265 0.0
N290 N 0.70049 0.96783 0.88179 0.0
C291 C 0.72054 0.96852 0.9009 0.0
C292 C 0.70828 0.9764 0.9249 0.0
C293 C 0.65918 0.99469 0.93603 0.0
H294 H 0.64598 0.00923 0.92437 0.0
H295 H 0.64585 0.97838 0.94519 0.0
H296 H 0.66928 0.00675 0.95222 0.0
O297 O 0.65066 0.00744 0.84407 0.0
O298 O 0.69098 0.9983 0.82409 0.0
H299 H 0.75785 0.97322 0.87777 0.0
H300 H 0.76396 0.96959 0.9131 0.0
C301 C 0.75087 0.96264 0.89619 0.0
H302 H 0.75386 0.93984 0.89363 0.0
H303 H 0.75102 0.98443 0.81237 0.0
O304 O 0.61195 0.99036 0.89129 0.0
C305 C 0.66907 0.01348 0.82679 0.0
Co306 Co 0.97753 0.36203 0.1699 0.0
Co307 Co 0.96032 0.30588 0.196 0.0
C308 C 0.92503 0.35837 0.20167 0.0
O309 O 0.94155 0.37154 0.1864 0.0
O310 O 0.92955 0.33272 0.20734 0.0
C311 C 0.97467 0.40696 0.13216 0.0
O312 O 0.95062 0.39614 0.12484 0.0
C313 C 0.92247 0.25835 0.20351 0.0
C314 C 0.95065 0.22526 0.21835 0.0
C315 C 0.92303 0.23047 0.2114 0.0
N316 N 0.94842 0.269 0.2058 0.0
N317 N 0.96514 0.24915 0.21485 0.0
C318 C 0.89846 0.27408 0.19162 0.0
H319 H 0.90625 0.29089 0.17835 0.0
H320 H 0.88457 0.25982 0.1803 0.0
H321 H 0.88612 0.28393 0.20775 0.0
C322 C 0.98277 0.32704 0.12222 0.0
N323 N 0.97598 0.3305 0.1479 0.0
N324 N 0.96763 0.30654 0.15797 0.0
C325 C 0.96809 0.28708 0.13835 0.0
C326 C 0.97736 0.29967 0.11493 0.0
C327 C 0.99753 0.34847 0.10564 0.0
H328 H 0.01115 0.36171 0.1182 0.0
H329 H 0.98186 0.36177 0.09542 0.0
H330 H 0.01073 0.33838 0.09025 0.0
O331 O 0.00521 0.35682 0.19791 0.0
O332 O 0.99537 0.31637 0.21727 0.0
H333 H 0.97254 0.24761 0.15782 0.0
H334 H 0.96223 0.24508 0.1233 0.0
C335 C 0.9597 0.2572 0.1419 0.0
H336 H 0.93749 0.25628 0.14815 0.0
H337 H 0.98654 0.25175 0.21813 0.0
O338 O 0.98898 0.39521 0.15023 0.0
C339 C 0.01046 0.33843 0.21544 0.0
Co340 Co 0.36278 0.02593 0.87703 0.0
Co341 Co 0.30713 0.0427 0.84935 0.0
C342 C 0.36072 0.07633 0.84212 0.0
O343 O 0.37353 0.06055 0.85842 0.0
O344 O 0.33492 0.07211 0.83675 0.0
C345 C 0.40752 0.02963 0.91513 0.0
O346 O 0.39875 0.0553 0.91928 0.0
C347 C 0.25993 0.08075 0.84018 0.0
C348 C 0.22713 0.05249 0.82501 0.0
C349 C 0.23219 0.08016 0.83177 0.0
N350 N 0.2706 0.05476 0.83841 0.0
N351 N 0.25093 0.03801 0.82913 0.0
C352 C 0.27548 0.10483 0.85208 0.0
H353 H 0.29241 0.09714 0.86529 0.0
H354 H 0.26108 0.11855 0.86345 0.0
H355 H 0.28515 0.11731 0.83596 0.0
C356 C 0.3268 0.0242 0.92442 0.0
N357 N 0.33084 0.02964 0.8985 0.0
N358 N 0.30707 0.0374 0.88759 0.0
C359 C 0.2871 0.03767 0.90676 0.0
C360 C 0.29918 0.02968 0.93082 0.0
C361 C 0.34797 0.01054 0.94216 0.0
H362 H 0.36071 0.99538 0.93078 0.0
H363 H 0.3618 0.02678 0.95075 0.0
H364 H 0.33777 0.99916 0.95873 0.0
O365 O 0.35726 0.99673 0.8503 0.0
O366 O 0.31705 0.00634 0.83024 0.0
H367 H 0.24849 0.03193 0.88603 0.0
H368 H 0.24439 0.04249 0.92033 0.0
C369 C 0.25712 0.04517 0.90212 0.0
H370 H 0.25579 0.06728 0.89564 0.0
H371 H 0.25357 0.01657 0.82618 0.0
O372 O 0.39503 0.01439 0.89826 0.0
C373 C 0.33883 0.99097 0.83295 0.0
Co374 Co 0.02391 0.64254 0.16677 0.0
Co375 Co 0.04329 0.69794 0.19379 0.0
C376 C 0.07566 0.64359 0.20026 0.0
O377 O 0.05874 0.63115 0.18478 0.0
O378 O 0.07254 0.66955 0.20547 0.0
C379 C 0.02698 0.5988 0.12817 0.0
O380 O 0.05249 0.608 0.12394 0.0
C381 C 0.08133 0.74471 0.20851 0.0
C382 C 0.0525 0.78073 0.20676 0.0
C383 C 0.08048 0.77384 0.2101 0.0
N384 N 0.05528 0.73515 0.20362 0.0
N385 N 0.03813 0.75683 0.20309 0.0
C386 C 0.10593 0.72598 0.21323 0.0
H387 H 0.0995 0.70832 0.22605 0.0
H388 H 0.11332 0.71739 0.19403 0.0
H389 H 0.12325 0.73707 0.22337 0.0
C390 C 0.02192 0.67808 0.11932 0.0
N391 N 0.02776 0.67422 0.14519 0.0
N392 N 0.03732 0.69761 0.15548 0.0
C393 C 0.03887 0.71693 0.13572 0.0
C394 C 0.02935 0.70496 0.11216 0.0
C395 C 0.00626 0.65769 0.10231 0.0
H396 H 0.99132 0.64546 0.11444 0.0
H397 H 0.02132 0.64336 0.09257 0.0
H398 H 0.99432 0.66864 0.08652 0.0
O399 O 0.99541 0.64875 0.19374 0.0
O400 O 0.00714 0.68823 0.21398 0.0
H401 H 0.03325 0.75898 0.1487 0.0
H402 H 0.05475 0.75559 0.11954 0.0
C403 C 0.04959 0.74607 0.13902 0.0
H404 H 0.06848 0.74598 0.15178 0.0
H405 H 0.01674 0.75539 0.19919 0.0
O406 O 0.01181 0.61059 0.14555 0.0
C407 C 0.99081 0.66713 0.21142 0.0
Co408 Co 0.64232 0.02663 0.16414 0.0
Co409 Co 0.6976 0.04352 0.19248 0.0
C410 C 0.64317 0.07637 0.19943 0.0
O411 O 0.63066 0.06094 0.18268 0.0
O412 O 0.66888 0.07206 0.20506 0.0
C413 C 0.59752 0.02994 0.12614 0.0
O414 O 0.60549 0.05598 0.12269 0.0
C415 C 0.74512 0.08203 0.19948 0.0
C416 C 0.7749 0.05659 0.22273 0.0
C417 C 0.77154 0.08266 0.21106 0.0
N418 N 0.73364 0.05671 0.20385 0.0
N419 N 0.75158 0.04164 0.2178 0.0
C420 C 0.73026 0.10563 0.1859 0.0
H421 H 0.70748 0.10161 0.18481 0.0
H422 H 0.73818 0.10789 0.16537 0.0
H423 H 0.73425 0.12557 0.19652 0.0
C424 C 0.6788 0.02557 0.11709 0.0
N425 N 0.67445 0.03093 0.14298 0.0
N426 N 0.69821 0.03812 0.15426 0.0
C427 C 0.71855 0.03771 0.13545 0.0
C428 C 0.70667 0.03027 0.11116 0.0
C429 C 0.65761 0.01255 0.09896 0.0
H430 H 0.64507 0.99686 0.10988 0.0
H431 H 0.64359 0.02907 0.0911 0.0
H432 H 0.66771 1.00188 0.08193 0.0
O433 O 0.64819 0.99738 0.19093 0.0
O434 O 0.6882 0.00695 0.21134 0.0
H435 H 0.75544 0.03257 0.15916 0.0
H436 H 0.76218 0.03651 0.12397 0.0
C437 C 0.74882 0.04337 0.14072 0.0
H438 H 0.75187 0.06612 0.14352 0.0
H439 H 0.74789 0.02113 0.22398 0.0
O440 O 0.61048 0.01456 0.14261 0.0
C441 C 0.66655 0.9915 0.20835 0.0
Co442 Co 0.03216 0.36288 0.87506 0.0
Co443 Co 0.04665 0.30671 0.84698 0.0
C444 C 0.08131 0.35943 0.83889 0.0
O445 O 0.06606 0.37261 0.85526 0.0
O446 O 0.07646 0.33376 0.83374 0.0
C447 C 0.04275 0.41056 0.90669 0.0
O448 O 0.06901 0.4045 0.90159 0.0
C449 C 0.08347 0.25794 0.84133 0.0
C450 C 0.05826 0.22897 0.81706 0.0
C451 C 0.08394 0.2316 0.82965 0.0
N452 N 0.05862 0.27008 0.83612 0.0
N453 N 0.04364 0.25262 0.8216 0.0
C454 C 0.1069 0.2722 0.8557 0.0
H455 H 0.10312 0.29499 0.85711 0.0
H456 H 0.10852 0.26385 0.87614 0.0
H457 H 0.12707 0.26814 0.84548 0.0
C458 C 0.0314 0.32755 0.92243 0.0
N459 N 0.03622 0.33104 0.89636 0.0
N460 N 0.04161 0.30676 0.88526 0.0
C461 C 0.04009 0.28675 0.90435 0.0
C462 C 0.03405 0.29944 0.92865 0.0
C463 C 0.02101 0.35031 0.94036 0.0
H464 H 0.0037 0.36176 0.93052 0.0
H465 H 0.03827 0.36524 0.9443 0.0
H466 H 0.01312 0.34209 0.95951 0.0
O467 O 1.00165 0.35786 0.84918 0.0
O468 O 0.01033 0.31781 0.82839 0.0
H469 H 0.03246 0.25032 0.88064 0.0
H470 H 0.03487 0.24347 0.91595 0.0
C471 C 0.04328 0.25609 0.89932 0.0
H472 H 0.06577 0.25105 0.89712 0.0
H473 H 0.02352 0.25691 0.81465 0.0
O474 O 0.02337 0.3954 0.89724 0.0
C475 C 0.99526 0.33972 0.83169 0.0
Co476 Co 0.36038 0.97757 0.17122 0.0
Co477 Co 0.30465 0.96116 0.19878 0.0
C478 C 0.35809 0.92715 0.20573 0.0
O479 O 0.37087 0.94282 0.1894 0.0
O480 O 0.33239 0.93161 0.21125 0.0
C481 C 0.40566 0.97419 0.1336 0.0
O482 O 0.39556 0.9496 0.12706 0.0
C483 C 0.25669 0.92352 0.20475 0.0
C484 C 0.22756 0.9479 0.22963 0.0
C485 C 0.23076 0.92246 0.2169 0.0
N486 N 0.26844 0.94848 0.20996 0.0
N487 N 0.25091 0.96296 0.2249 0.0
C488 C 0.27042 0.9008 0.18911 0.0
H489 H 0.28902 0.90891 0.17842 0.0
H490 H 0.25529 0.89167 0.17483 0.0
H491 H 0.27707 0.88388 0.20282 0.0
C492 C 0.32457 0.98019 0.12375 0.0
N493 N 0.32852 0.97433 0.1496 0.0
N494 N 0.30456 0.9671 0.16048 0.0
C495 C 0.28452 0.96781 0.14136 0.0
C496 C 0.2968 0.97566 0.11735 0.0
C497 C 0.34602 0.9935 0.10611 0.0
H498 H 0.35942 0.0079 0.11767 0.0
H499 H 0.35915 0.97698 0.09699 0.0
H500 H 0.33601 0.00561 0.08988 0.0
O501 O 0.35472 0.00656 0.19804 0.0
O502 O 0.3146 0.99725 0.21826 0.0
H503 H 0.24723 0.97175 0.16467 0.0
H504 H 0.24111 0.96915 0.12926 0.0
C505 C 0.25423 0.96172 0.14599 0.0
H506 H 0.25136 0.93882 0.14797 0.0
H507 H 0.2549 0.98309 0.23193 0.0
O508 O 0.39336 0.98889 0.15101 0.0
C509 C 0.33641 0.0125 0.21544 0.0
Co510 Co 0.97566 0.64218 0.8727 0.0
Co511 Co 0.96095 0.69826 0.8445 0.0
C512 C 0.92505 0.64651 0.83798 0.0
O513 O 0.94105 0.63326 0.85367 0.0
O514 O 0.92978 0.67216 0.83255 0.0
C515 C 0.96439 0.59508 0.90491 0.0
O516 O 0.93822 0.60161 0.89998 0.0
C517 C 0.92451 0.74646 0.83575 0.0
C518 C 0.95317 0.77844 0.81973 0.0
C519 C 0.92552 0.77404 0.82705 0.0
N520 N 0.9502 0.73517 0.83355 0.0
N521 N 0.96723 0.75435 0.82381 0.0
C522 C 0.90033 0.73165 0.84833 0.0
H523 H 0.90795 0.71507 0.86196 0.0
H524 H 0.88691 0.74657 0.8594 0.0
H525 H 0.88756 0.72161 0.83261 0.0
C526 C 0.9778 0.67785 0.91974 0.0
N527 N 0.97273 0.67423 0.89374 0.0
N528 N 0.96672 0.69839 0.88265 0.0
C529 C 0.96779 0.7184 0.90172 0.0
C530 C 0.97453 0.70588 0.92594 0.0
C531 C 0.98843 0.65525 0.93775 0.0
H532 H 0.00522 0.64333 0.92764 0.0
H533 H 0.97107 0.64069 0.94245 0.0
H534 H 0.99702 0.66374 0.95652 0.0
O535 O 0.00561 0.64618 0.84619 0.0
O536 O 0.99646 0.68599 0.82511 0.0
H537 H 0.97631 0.75609 0.88035 0.0
H538 H 0.96698 0.76149 0.91483 0.0
C539 C 0.96278 0.74883 0.89684 0.0
H540 H 0.94069 0.75197 0.8908 0.0
H541 H 0.98854 0.75118 0.82044 0.0
O542 O 0.984 0.60965 0.89507 0.0
C543 C 0.01148 0.664 0.82824 0.0
C544 C 0.95158 0.50119 0.4053 0.0
C545 C 0.93575 0.5196 0.42078 0.0
C546 C 0.97871 0.4938 0.41263 0.0
C547 C 0.99009 0.50452 0.4365 0.0
C548 C 0.97346 0.52142 0.45332 0.0
C549 C 0.94644 0.52915 0.44503 0.0
C550 C 0.99576 0.47599 0.39379 0.0
C551 C 0.98434 0.53159 0.47972 0.0
C552 C 0.05825 0.46719 0.44297 0.0
C553 C 0.07496 0.48494 0.42752 0.0
C554 C 0.03105 0.47525 0.45017 0.0
C555 C 0.02049 0.50116 0.44102 0.0
C556 C 0.03871 0.52062 0.42887 0.0
C557 C 0.06588 0.51229 0.42242 0.0
C558 C 0.01267 0.45476 0.46477 0.0
C559 C 0.02848 0.54872 0.41912 0.0
H560 H 0.94331 0.49364 0.3866 0.0
H561 H 0.93384 0.54284 0.45732 0.0
H562 H 0.01424 0.48791 0.38674 0.0
H563 H 0.00354 0.45703 0.40409 0.0
H564 H 0.98353 0.46922 0.37619 0.0
H565 H 0.96964 0.54637 0.48945 0.0
H566 H 0.98758 0.51342 0.49307 0.0
H567 H 0.00492 0.54201 0.47736 0.0
H568 H 0.06555 0.44633 0.44783 0.0
H569 H 0.07912 0.52653 0.41136 0.0
H570 H 1.00014 0.44264 0.45025 0.0
H571 H 0.99792 0.46581 0.47814 0.0
H572 H 0.02534 0.43977 0.47659 0.0
H573 H 0.01541 0.54567 0.40115 0.0
H574 H 0.04607 0.56288 0.41392 0.0
H575 H 0.01532 0.55912 0.43429 0.0
C576 C 0.54547 0.04527 0.63497 0.0
C577 C 0.53355 0.0692 0.62382 0.0
C578 C 0.53359 0.01899 0.63039 0.0
C579 C 0.51002 0.01684 0.61343 0.0
C580 C 0.50046 0.04058 0.59934 0.0
C581 C 0.51185 0.06681 0.60534 0.0
C582 C 0.54426 0.99425 0.64608 0.0
C583 C 0.47673 0.03868 0.57968 0.0
C584 C 0.48743 0.94156 0.60821 0.0
C585 C 0.46734 0.94049 0.62837 0.0
C586 C 0.49951 0.9671 0.60081 0.0
C587 C 0.49233 0.99154 0.61507 0.0
C588 C 0.4707 0.99068 0.63431 0.0
C589 C 0.45801 0.96513 0.6403 0.0
C590 C 0.52113 0.96745 0.57903 0.0
C591 C 0.46275 0.01614 0.65041 0.0
H592 H 0.56225 0.0474 0.64933 0.0
H593 H 0.50297 0.08553 0.59654 0.0
H594 H 0.52801 0.98747 0.66044 0.0
H595 H 0.54858 0.97636 0.63274 0.0
H596 H 0.56367 0.9992 0.65725 0.0
H597 H 0.47712 0.05648 0.5655 0.0
H598 H 0.47771 0.01878 0.56838 0.0
H599 H 0.45647 0.03925 0.59038 0.0
H600 H 0.49432 0.92234 0.59883 0.0
H601 H 0.4425 0.96406 0.65597 0.0
H602 H 0.54218 0.964 0.5877 0.0
H603 H 0.52133 0.98779 0.56841 0.0
H604 H 0.51724 0.95046 0.56447 0.0
H605 H 0.48104 0.02324 0.66221 0.0
H606 H 0.44516 0.01193 0.66424 0.0
H607 H 0.45661 0.03359 0.63715 0.0
C608 C 0.95051 0.50302 0.63703 0.0
C609 C 0.93515 0.48409 0.6217 0.0
C610 C 0.97754 0.51081 0.62976 0.0
C611 C 0.98924 0.49999 0.60607 0.0
C612 C 0.97301 0.48263 0.58934 0.0
C613 C 0.94614 0.47445 0.5976 0.0
C614 C 0.99419 0.52909 0.6485 0.0
C615 C 0.98426 0.47231 0.56314 0.0
C616 C 0.0573 0.53761 0.59888 0.0
C617 C 0.07434 0.52006 0.61426 0.0
C618 C 0.02999 0.52945 0.59217 0.0
C619 C 0.01963 0.50363 0.60173 0.0
C620 C 0.03804 0.48443 0.61407 0.0
C621 C 0.06531 0.49283 0.61997 0.0
C622 C 0.0114 0.54973 0.57751 0.0
C623 C 0.02798 0.45654 0.62448 0.0
H624 H 0.942 0.51063 0.6556 0.0
H625 H 0.93389 0.46033 0.58544 0.0
H626 H 0.01273 0.51746 0.65588 0.0
H627 H 1.00186 0.54795 0.63801 0.0
H628 H 0.9817 0.536 0.66589 0.0
H629 H 0.96909 0.45866 0.55261 0.0
H630 H 0.98927 0.49043 0.55024 0.0
H631 H 0.004 0.46052 0.56614 0.0
H632 H 0.06451 0.55837 0.59361 0.0
H633 H 0.07874 0.47876 0.63106 0.0
H634 H 0.9994 0.5624 0.59201 0.0
H635 H 0.99617 0.53854 0.56474 0.0
H636 H 0.02389 0.56426 0.56505 0.0
H637 H 0.01495 0.46 0.64241 0.0
H638 H 0.04564 0.44256 0.62996 0.0
H639 H 0.01482 0.44571 0.60959 0.0
C640 C 0.5166 0.94148 0.43379 0.0
C641 C 0.53681 0.9406 0.41372 0.0
C642 C 0.50445 0.96696 0.4413 0.0
C643 C 0.51168 0.99152 0.42725 0.0
C644 C 0.53341 0.99083 0.4081 0.0
C645 C 0.54617 0.96533 0.40201 0.0
C646 C 0.48271 0.96711 0.46298 0.0
C647 C 0.54141 0.01644 0.39222 0.0
C648 C 0.45872 0.04553 0.40742 0.0
C649 C 0.47064 0.06935 0.41871 0.0
C650 C 0.4705 0.01918 0.41194 0.0
C651 C 0.49398 0.01683 0.429 0.0
C652 C 0.5035 0.04044 0.44326 0.0
C653 C 0.49222 0.06675 0.43731 0.0
C654 C 0.45987 0.99458 0.39608 0.0
C655 C 0.5271 0.03832 0.46304 0.0
H656 H 0.50971 0.92218 0.44302 0.0
H657 H 0.56177 0.96442 0.38642 0.0
H658 H 0.48236 0.98738 0.47369 0.0
H659 H 0.46173 0.96361 0.45421 0.0
H660 H 0.48663 0.95005 0.47749 0.0
H661 H 0.52316 0.02372 0.38045 0.0
H662 H 0.54755 0.03373 0.40563 0.0
H663 H 0.55904 0.01232 0.3784 0.0
H664 H 0.44203 0.04782 0.39297 0.0
H665 H 0.50112 0.08538 0.44621 0.0
H666 H 0.45545 0.97662 0.40931 0.0
H667 H 0.47617 0.98785 0.38175 0.0
H668 H 0.44051 0.99967 0.38485 0.0
H669 H 0.52603 0.01833 0.47421 0.0
H670 H 0.52666 0.056 0.47732 0.0
H671 H 0.54743 0.03892 0.45246 0.0
C672 C 0.562 0.97482 0.94336 0.0
C673 C 0.573 0.98584 0.9198 0.0
C674 C 0.53518 0.98258 0.95207 0.0
C675 C 0.51887 1.0008 0.9362 0.0
C676 C 0.53068 0.0132 0.91325 0.0
C677 C 0.55773 0.00587 0.90562 0.0
C678 C 0.52407 0.97011 0.97746 0.0
C679 C 0.51402 0.03254 0.89545 0.0
C680 C 0.44324 0.99244 0.92085 0.0
C681 C 0.43339 0.01913 0.9276 0.0
C682 C 0.47064 0.98445 0.92678 0.0
C683 C 0.48832 0.00349 0.94017 0.0
C684 C 0.4771 0.02847 0.95077 0.0
C685 C 0.44971 0.03631 0.94398 0.0
C686 C 0.48156 0.95719 0.91572 0.0
C687 C 0.49485 0.04812 0.967 0.0
H688 H 0.57407 0.95979 0.95471 0.0
H689 H 0.56627 0.01464 0.88751 0.0
H690 H 0.50704 0.98291 0.9862 0.0
H691 H 0.51584 0.94885 0.97341 0.0
H692 H 0.54113 0.96791 0.9923 0.0
H693 H 0.5266 0.04067 0.8786 0.0
H694 H 0.49566 0.02126 0.88725 0.0
H695 H 0.50606 0.05063 0.90693 0.0
H696 H 0.43034 0.97857 0.90905 0.0
H697 H 0.44182 0.05655 0.95014 0.0
H698 H 0.49312 0.94545 0.9312 0.0
H699 H 0.49636 0.96155 0.89926 0.0
H700 H 0.4645 0.94367 0.90801 0.0
H701 H 0.50952 0.03629 0.97991 0.0
H702 H 0.48171 0.062 0.97954 0.0
H703 H 0.50747 0.06148 0.95358 0.0
C704 C 0.97377 0.44466 0.0976 0.0
C705 C 0.9842 0.43396 0.12154 0.0
C706 C 0.98102 0.47173 0.08918 0.0
C707 C 0.99834 0.48839 0.10556 0.0
C708 C 0.01008 0.47696 0.129 0.0
C709 C 1.00313 0.44978 0.13645 0.0
C710 C 0.96976 0.48272 0.06321 0.0
C711 C 0.02842 0.49402 0.14735 0.0
C712 C 0.03408 0.55725 0.09873 0.0
C713 C 0.01654 0.57343 0.11489 0.0
C714 C 0.02632 0.53002 0.09148 0.0
C715 C 1.00094 0.51886 0.10128 0.0
C716 C 0.98155 0.53654 0.11426 0.0
C717 C 0.98956 0.56377 0.12073 0.0
C718 C 0.04669 0.51224 0.07607 0.0
C719 C 0.95405 0.52566 0.12484 0.0
H720 H 0.95968 0.43208 0.08571 0.0
H721 H 0.01142 0.44149 0.15487 0.0
H722 H 0.95821 0.50257 0.06629 0.0
H723 H 0.98746 0.4874 0.04968 0.0
H724 H 0.95565 0.4675 0.05331 0.0
H725 H 0.03605 0.48171 0.1646 0.0
H726 H 0.04686 0.50213 0.13648 0.0
H727 H 0.01654 0.51227 0.15498 0.0
H728 H 0.05461 0.56501 0.09331 0.0
H729 H 0.97545 0.57659 0.13237 0.0
H730 H 0.03555 0.49696 0.06333 0.0
H731 H 0.06007 0.50035 0.0901 0.0
H732 H 0.06054 0.52535 0.06348 0.0
H733 H 0.94331 0.5125 0.1099 0.0
H734 H 0.93974 0.54289 0.13072 0.0
H735 H 0.95808 0.51244 0.14255 0.0
C736 C 0.4486 1.0024 0.13828 0.0
C737 C 0.43264 0.98387 0.12306 0.0
C738 C 0.47563 0.00976 0.13067 0.0
C739 C 0.48675 0.99893 0.10674 0.0
C740 C 0.47001 0.98182 0.09021 0.0
C741 C 0.44312 0.97409 0.09881 0.0
C742 C 0.49285 0.02773 0.14922 0.0
C743 C 0.48066 0.97143 0.06382 0.0
C744 C 0.55449 0.03672 0.09848 0.0
C745 C 0.57184 0.01917 0.11355 0.0
C746 C 0.52712 0.02847 0.09212 0.0
C747 C 0.51702 1.00256 0.10173 0.0
C748 C 0.53573 0.98334 0.11362 0.0
C749 C 0.56306 0.99184 0.11918 0.0
C750 C 0.50817 0.04875 0.07788 0.0
C751 C 0.52597 0.95533 0.12398 0.0
H752 H 0.4405 0.01007 0.157 0.0
H753 H 0.43044 0.96026 0.08676 0.0
H754 H 0.51151 0.01592 0.15608 0.0
H755 H 0.50037 0.04667 0.13875 0.0
H756 H 0.48085 0.03451 0.16695 0.0
H757 H 0.46556 0.95715 0.05397 0.0
H758 H 0.48454 0.98953 0.05053 0.0
H759 H 0.50089 0.96035 0.06626 0.0
H760 H 0.5615 0.05755 0.09324 0.0
H761 H 0.57673 0.97777 0.13 0.0
H762 H 0.49619 0.06109 0.09265 0.0
H763 H 0.49293 0.03755 0.06514 0.0
H764 H 0.52037 0.06358 0.06547 0.0
H765 H 0.51347 0.95859 0.14228 0.0
H766 H 0.5438 0.94131 0.12887 0.0
H767 H 0.51238 0.94467 0.10934 0.0
C768 C 0.99122 0.56559 0.93643 0.0
C769 C 0.97134 0.56782 0.91616 0.0
C770 C 1.00238 0.53946 0.94333 0.0
C771 C 0.99459 0.51566 0.9284 0.0
C772 C 0.97311 0.51773 0.90907 0.0
C773 C 0.96129 0.54385 0.90361 0.0
C774 C 0.02381 0.53779 0.96525 0.0
C775 C 0.96458 0.49302 0.89223 0.0
C776 C 0.04735 0.4618 0.90746 0.0
C777 C 0.03533 0.43766 0.91807 0.0
C778 C 0.03548 0.48801 0.9124 0.0
C779 C 0.0118 0.48994 0.92924 0.0
C780 C 1.00195 0.46592 0.94267 0.0
C781 C 0.01335 0.43976 0.93629 0.0
C782 C 0.04644 0.51306 0.89735 0.0
C783 C 0.97808 0.4675 0.96219 0.0
H784 H 0.99871 0.58435 0.94621 0.0
H785 H 0.946 0.5459 0.88781 0.0
H786 H 0.02297 0.51729 0.97558 0.0
H787 H 0.04506 0.54034 0.95678 0.0
H788 H 0.02059 0.55472 0.98003 0.0
H789 H 0.94699 0.49809 0.87863 0.0
H790 H 0.98267 0.48598 0.88013 0.0
H791 H 0.9582 0.47524 0.90495 0.0
H792 H 0.06435 0.45993 0.89331 0.0
H793 H 0.0044 0.42091 0.94472 0.0
H794 H 0.05116 0.53042 0.91118 0.0
H795 H 0.03021 0.5206 0.88329 0.0
H796 H 0.06569 0.50814 0.88593 0.0
H797 H 0.97908 0.4871 0.97395 0.0
H798 H 0.97825 0.44936 0.97597 0.0
H799 H 0.9579 0.46735 0.95133 0.0
C800 C 0.29974 0.3836 0.34971 0.0
C801 C 0.29411 0.3992 0.32676 0.0
C802 C 0.32063 0.36288 0.34993 0.0
C803 C 0.33643 0.35773 0.32667 0.0
C804 C 0.33085 0.37346 0.30344 0.0
C805 C 0.3099 0.39412 0.30383 0.0
C806 C 0.32612 0.34682 0.3752 0.0
C807 C 0.34714 0.3686 0.27821 0.0
C808 C 0.40811 0.32365 0.33386 0.0
C809 C 0.40227 0.29564 0.3278 0.0
C810 C 0.3869 0.34404 0.33363 0.0
C811 C 0.35919 0.33631 0.32683 0.0
C812 C 0.35327 0.30813 0.32026 0.0
C813 C 0.37489 0.28816 0.32075 0.0
C814 C 0.39411 0.37382 0.34083 0.0
C815 C 0.3241 0.29908 0.31262 0.0
H816 H 0.28846 0.38811 0.3678 0.0
H817 H 0.30574 0.40624 0.28608 0.0
H818 H 0.32404 0.32404 0.37153 0.0
H819 H 0.34788 0.35062 0.38197 0.0
H820 H 0.31154 0.35281 0.39138 0.0
H821 H 0.33978 0.38209 0.26167 0.0
H822 H 0.36967 0.37281 0.28168 0.0
H823 H 0.34528 0.3464 0.27206 0.0
H824 H 0.42926 0.32958 0.33922 0.0
H825 H 0.37038 0.26677 0.31518 0.0
H826 H 0.38156 0.38054 0.3582 0.0
H827 H 0.38877 0.38801 0.32416 0.0
H828 H 0.41665 0.37642 0.34565 0.0
H829 H 0.30932 0.30376 0.329 0.0
H830 H 0.32293 0.27639 0.30804 0.0
H831 H 0.31695 0.31103 0.295 0.0
C832 C 0.31154 0.60931 0.73535 0.0
C833 C 0.2958 0.60415 0.7124 0.0
C834 C 0.33239 0.63002 0.73575 0.0
C835 C 0.33798 0.64568 0.71248 0.0
C836 C 0.32228 0.64039 0.68918 0.0
C837 C 0.30141 0.61968 0.68942 0.0
C838 C 0.34851 0.6351 0.76105 0.0
C839 C 0.32782 0.65632 0.66386 0.0
C840 C 0.37559 0.7156 0.71851 0.0
C841 C 0.40316 0.70833 0.71195 0.0
C842 C 0.35419 0.69545 0.71879 0.0
C843 C 0.3605 0.6673 0.7124 0.0
C844 C 0.38838 0.6598 0.70598 0.0
C845 C 0.40939 0.68037 0.70604 0.0
C846 C 0.32484 0.70425 0.72609 0.0
C847 C 0.39598 0.63008 0.69891 0.0
H848 H 0.30737 0.59723 0.75312 0.0
H849 H 0.29011 0.61511 0.67133 0.0
H850 H 0.3711 0.63106 0.75772 0.0
H851 H 0.3464 0.6573 0.76712 0.0
H852 H 0.3412 0.6216 0.77759 0.0
H853 H 0.31349 0.65004 0.64756 0.0
H854 H 0.32539 0.6791 0.66735 0.0
H855 H 0.3497 0.65274 0.65734 0.0
H856 H 0.37078 0.73697 0.72394 0.0
H857 H 0.4307 0.67463 0.70107 0.0
H858 H 0.31766 0.69233 0.7437 0.0
H859 H 0.31027 0.69934 0.7096 0.0
H860 H 0.32336 0.72695 0.73055 0.0
H861 H 0.39077 0.6159 0.71561 0.0
H862 H 0.41856 0.62771 0.69418 0.0
H863 H 0.38356 0.62314 0.68152 0.0
C864 C 0.60979 0.69351 0.3078 0.0
C865 C 0.60358 0.70871 0.33085 0.0
C866 C 0.63086 0.67298 0.30768 0.0
C867 C 0.64596 0.66727 0.33125 0.0
C868 C 0.6396 0.68236 0.35466 0.0
C869 C 0.61841 0.70278 0.3542 0.0
C870 C 0.63693 0.65736 0.28231 0.0
C871 C 0.65501 0.67675 0.38026 0.0
C872 C 0.68176 0.59638 0.33723 0.0
C873 C 0.7097 0.60299 0.3315 0.0
C874 C 0.66089 0.61709 0.33744 0.0
C875 C 0.66804 0.64515 0.33152 0.0
C876 C 0.69619 0.65195 0.32553 0.0
C877 C 0.71665 0.63078 0.32548 0.0
C878 C 0.63115 0.60893 0.34394 0.0
C879 C 0.70464 0.68155 0.31892 0.0
H880 H 0.59834 0.69789 0.28971 0.0
H881 H 0.6131 0.71362 0.37233 0.0
H882 H 0.65919 0.66017 0.27667 0.0
H883 H 0.63349 0.63463 0.28532 0.0
H884 H 0.62355 0.6645 0.26559 0.0
H885 H 0.64802 0.69071 0.39657 0.0
H886 H 0.65172 0.65472 0.38645 0.0
H887 H 0.67783 0.67965 0.3773 0.0
H888 H 0.67621 0.57493 0.34181 0.0
H889 H 0.73795 0.63596 0.32015 0.0
H890 H 0.61721 0.6141 0.32703 0.0
H891 H 0.62363 0.62102 0.36131 0.0
H892 H 0.62909 0.58627 0.34841 0.0
H893 H 0.69324 0.68877 0.301 0.0
H894 H 0.72748 0.68352 0.31523 0.0
H895 H 0.69882 0.69577 0.3354 0.0
C896 C 0.69375 0.39488 0.73631 0.0
C897 C 0.71017 0.39936 0.71367 0.0
C898 C 0.67286 0.3742 0.73672 0.0
C899 C 0.66796 0.35782 0.71378 0.0
C900 C 0.68442 0.36234 0.69081 0.0
C901 C 0.70528 0.38306 0.69102 0.0
C902 C 0.65591 0.36998 0.76167 0.0
C903 C 0.67965 0.34561 0.66583 0.0
C904 C 0.62926 0.28853 0.72074 0.0
C905 C 0.60202 0.29592 0.7131 0.0
C906 C 0.65092 0.30843 0.72106 0.0
C907 C 0.6452 0.33643 0.71361 0.0
C908 C 0.61765 0.34404 0.70611 0.0
C909 C 0.59638 0.32375 0.70613 0.0
C910 C 0.6799 0.29952 0.72951 0.0
C911 C 0.61066 0.37361 0.69791 0.0
H912 H 0.69735 0.40752 0.75383 0.0
H913 H 0.71712 0.38705 0.67314 0.0
H914 H 0.63348 0.37419 0.75757 0.0
H915 H 0.65756 0.34794 0.76837 0.0
H916 H 0.66285 0.38386 0.77806 0.0
H917 H 0.69467 0.35116 0.64987 0.0
H918 H 0.68163 0.32293 0.67012 0.0
H919 H 0.65808 0.34923 0.65843 0.0
H920 H 0.6336 0.26728 0.72694 0.0
H921 H 0.57533 0.32959 0.70029 0.0
H922 H 0.68663 0.31189 0.74699 0.0
H923 H 0.69507 0.30376 0.71336 0.0
H924 H 0.68094 0.27695 0.73465 0.0
H925 H 0.61548 0.38826 0.71434 0.0
H926 H 0.58828 0.37609 0.6924 0.0
H927 H 0.62375 0.37985 0.68073 0.0
C928 C 0.87543 0.78818 0.81959 0.0
C929 C 0.90287 0.79535 0.82673 0.0
C930 C 0.854 0.80835 0.81922 0.0
C931 C 0.86014 0.8364 0.82611 0.0
C932 C 0.88788 0.84378 0.83313 0.0
C933 C 0.90892 0.82322 0.83316 0.0
C934 C 0.8248 0.79968 0.8113 0.0
C935 C 0.89532 0.87339 0.84075 0.0
C936 C 0.812 0.89517 0.80315 0.0
C937 C 0.79598 0.90024 0.82594 0.0
C938 C 0.83259 0.87416 0.80277 0.0
C939 C 0.83763 0.85808 0.8259 0.0
C940 C 0.82159 0.8632 0.84902 0.0
C941 C 0.801 0.88423 0.84876 0.0
C942 C 0.8491 0.8693 0.77767 0.0
C943 C 0.82653 0.84681 0.87419 0.0
H944 H 0.87076 0.76688 0.81379 0.0
H945 H 0.93011 0.82889 0.83863 0.0
H946 H 0.80991 0.8044 0.82757 0.0
H947 H 0.81795 0.81182 0.79369 0.0
H948 H 0.82342 0.77703 0.80656 0.0
H949 H 0.9178 0.87567 0.84593 0.0
H950 H 0.89044 0.88782 0.82414 0.0
H951 H 0.88255 0.88009 0.85798 0.0
H952 H 0.80829 0.90759 0.78549 0.0
H953 H 0.7895 0.88869 0.86674 0.0
H954 H 0.84709 0.84717 0.77136 0.0
H955 H 0.87163 0.87328 0.78137 0.0
H956 H 0.84205 0.88299 0.76114 0.0
H957 H 0.82422 0.8241 0.87029 0.0
H958 H 0.81181 0.85282 0.89026 0.0
H959 H 0.84824 0.85027 0.88126 0.0
C960 C 0.80864 0.11032 0.23412 0.0
C961 C 0.79244 0.10562 0.21136 0.0
C962 C 0.82927 0.13126 0.23463 0.0
C963 C 0.83413 0.14766 0.21169 0.0
C964 C 0.81786 0.14296 0.18862 0.0
C965 C 0.79727 0.12197 0.18873 0.0
C966 C 0.84606 0.13564 0.25966 0.0
C967 C 0.8226 0.15972 0.16364 0.0
C968 C 0.87275 0.21699 0.21875 0.0
C969 C 0.90004 0.20957 0.21131 0.0
C970 C 0.85108 0.1971 0.21891 0.0
C971 C 0.85684 0.1691 0.21154 0.0
C972 C 0.88441 0.16148 0.20416 0.0
C973 C 0.90568 0.18175 0.20432 0.0
C974 C 0.82206 0.206 0.22719 0.0
C975 C 0.89144 0.13191 0.19605 0.0
H976 H 0.80508 0.09764 0.25163 0.0
H977 H 0.78563 0.11781 0.17076 0.0
H978 H 0.86851 0.13145 0.25574 0.0
H979 H 0.84433 0.15772 0.26622 0.0
H980 H 0.83904 0.12184 0.27609 0.0
H981 H 0.80757 0.15417 0.14768 0.0
H982 H 0.82062 0.1824 0.16791 0.0
H983 H 0.84416 0.1561 0.15624 0.0
H984 H 0.8684 0.23821 0.22497 0.0
H985 H 0.92675 0.17589 0.19862 0.0
H986 H 0.81531 0.19375 0.24475 0.0
H987 H 0.80693 0.20159 0.21103 0.0
H988 H 0.82095 0.22861 0.23214 0.0
H989 H 0.88666 0.11729 0.21252 0.0
H990 H 0.91382 0.12946 0.19056 0.0
H991 H 0.87836 0.12562 0.17888 0.0
C992 C 0.112 0.19447 0.80698 0.0
C993 C 0.10666 0.21036 0.82979 0.0
C994 C 0.13297 0.17382 0.80677 0.0
C995 C 0.14877 0.16867 0.83005 0.0
C996 C 0.14337 0.18458 0.85318 0.0
C997 C 0.12234 0.20515 0.85279 0.0
C998 C 0.13808 0.15739 0.78167 0.0
C999 C 0.15948 0.17953 0.8785 0.0
C1000 C 0.18315 0.09725 0.83767 0.0
C1001 C 0.21115 0.10308 0.83143 0.0
C1002 C 0.16272 0.11839 0.83743 0.0
C1003 C 0.17035 0.14606 0.83046 0.0
C1004 C 0.19854 0.15202 0.82384 0.0
C1005 C 0.21858 0.13046 0.82436 0.0
C1006 C 0.13296 0.11113 0.84472 0.0
C1007 C 0.20748 0.18116 0.81604 0.0
H1008 H 0.09984 0.19832 0.78919 0.0
H1009 H 0.11766 0.21653 0.87078 0.0
H1010 H 0.1603 0.15938 0.77559 0.0
H1011 H 0.13402 0.13487 0.78529 0.0
H1012 H 0.12459 0.16451 0.76503 0.0
H1013 H 0.15337 0.19426 0.89452 0.0
H1014 H 0.15583 0.15784 0.88552 0.0
H1015 H 0.18226 0.18172 0.87482 0.0
H1016 H 0.17726 0.07612 0.84309 0.0
H1017 H 0.23994 0.13498 0.81868 0.0
H1018 H 0.11875 0.11612 0.82796 0.0
H1019 H 0.12612 0.1239 0.8619 0.0
H1020 H 0.13047 0.08867 0.84985 0.0
H1021 H 0.19564 0.18806 0.79827 0.0
H1022 H 0.23022 0.18242 0.81163 0.0
H1023 H 0.20256 0.19606 0.83225 0.0
C1024 C 0.20679 0.88161 0.23755 0.0
C1025 C 0.21004 0.89966 0.21593 0.0
C1026 C 0.1866 0.86023 0.23709 0.0
C1027 C 0.16891 0.85731 0.21468 0.0
C1028 C 0.17225 0.87562 0.19277 0.0
C1029 C 0.19299 0.89645 0.19358 0.0
C1030 C 0.18414 0.84081 0.26059 0.0
C1031 C 0.15358 0.87358 0.16869 0.0
C1032 C 0.13026 0.78903 0.20145 0.0
C1033 C 0.10377 0.79444 0.21236 0.0
C1034 C 0.15189 0.80891 0.20284 0.0
C1035 C 0.14661 0.83543 0.21428 0.0
C1036 C 0.11974 0.84131 0.22474 0.0
C1037 C 0.09877 0.82072 0.22383 0.0
C1038 C 0.18031 0.80164 0.19172 0.0
C1039 C 0.11297 0.86956 0.23647 0.0
H1040 H 0.22013 0.88422 0.25478 0.0
H1041 H 0.19559 0.91059 0.17694 0.0
H1042 H 0.16312 0.84292 0.2697 0.0
H1043 H 0.18635 0.81878 0.25399 0.0
H1044 H 0.20019 0.84514 0.27598 0.0
H1045 H 0.15881 0.88949 0.15341 0.0
H1046 H 0.1554 0.85252 0.15965 0.0
H1047 H 0.1314 0.8764 0.17464 0.0
H1048 H 0.13404 0.76957 0.19112 0.0
H1049 H 0.07827 0.82531 0.23192 0.0
H1050 H 0.19678 0.80567 0.20676 0.0
H1051 H 0.18492 0.81509 0.17435 0.0
H1052 H 0.18167 0.77941 0.18544 0.0
H1053 H 0.12715 0.87401 0.25337 0.0
H1054 H 0.091 0.87092 0.24355 0.0
H1055 H 0.11643 0.88614 0.22142 0.0
C1056 C 0.13316 0.54829 0.31217 0.0
C1057 C 0.15848 0.53359 0.30916 0.0
C1058 C 0.12399 0.56778 0.29327 0.0
C1059 C 0.14066 0.5734 0.2707 0.0
C1060 C 0.16694 0.5598 0.26807 0.0
C1061 C 0.17545 0.53988 0.2872 0.0
C1062 C 0.0957 0.58141 0.29693 0.0
C1063 C 0.18565 0.56563 0.24463 0.0
C1064 C 0.09652 0.59704 0.21214 0.0
C1065 C 0.0967 0.62631 0.21496 0.0
C1066 C 0.1122 0.57967 0.22904 0.0
C1067 C 0.12905 0.59169 0.24914 0.0
C1068 C 0.13116 0.62124 0.25073 0.0
C1069 C 0.1148 0.63819 0.23381 0.0
C1070 C 0.10894 0.54835 0.22666 0.0
C1071 C 0.1494 0.63499 0.27135 0.0
H1072 H 0.11979 0.54391 0.32902 0.0
H1073 H 0.19508 0.52883 0.28464 0.0
H1074 H 0.09774 0.6045 0.29626 0.0
H1075 H 0.08156 0.57518 0.28049 0.0
H1076 H 0.08569 0.57551 0.31601 0.0
H1077 H 0.20693 0.55672 0.24738 0.0
H1078 H 0.17634 0.55638 0.2265 0.0
H1079 H 0.18748 0.58849 0.24125 0.0
H1080 H 0.08286 0.58744 0.1976 0.0
H1081 H 0.11542 0.66069 0.2361 0.0
H1082 H 0.09731 0.5403 0.24412 0.0
H1083 H 0.12969 0.53797 0.2265 0.0
H1084 H 0.09739 0.54223 0.20843 0.0
H1085 H 0.13927 0.63324 0.29108 0.0
H1086 H 0.15284 0.6575 0.267 0.0
H1087 H 0.17 0.62434 0.27264 0.0
C1088 C 0.54448 0.87596 0.72744 0.0
C1089 C 0.53287 0.84898 0.72886 0.0
C1090 C 0.56513 0.88488 0.74534 0.0
C1091 C 0.57501 0.86634 0.76515 0.0
C1092 C 0.56442 0.83863 0.76602 0.0
C1093 C 0.54332 0.83034 0.74802 0.0
C1094 C 0.57547 0.9147 0.74371 0.0
C1095 C 0.57475 0.81802 0.78646 0.0
C1096 C 0.6411 0.89349 0.79907 0.0
C1097 C 0.62981 0.90778 0.82093 0.0
C1098 C 0.62382 0.87804 0.78172 0.0
C1099 C 0.5945 0.87713 0.7861 0.0
C1100 C 0.58333 0.88996 0.80908 0.0
C1101 C 0.60106 0.90486 0.82622 0.0
C1102 C 0.63674 0.86413 0.75784 0.0
C1103 C 0.55226 0.88978 0.81459 0.0
H1104 H 0.53677 0.89065 0.71278 0.0
H1105 H 0.53469 0.80943 0.74929 0.0
H1106 H 0.56971 0.92608 0.7621 0.0
H1107 H 0.59861 0.91509 0.74214 0.0
H1108 H 0.56655 0.92615 0.72649 0.0
H1109 H 0.56736 0.79643 0.78236 0.0
H1110 H 0.59796 0.818 0.78716 0.0
H1111 H 0.56718 0.8243 0.80638 0.0
H1112 H 0.66325 0.89537 0.7948 0.0
H1113 H 0.59198 0.91552 0.84312 0.0
H1114 H 0.63177 0.87647 0.7398 0.0
H1115 H 0.62794 0.84287 0.755 0.0
H1116 H 0.65985 0.86252 0.75962 0.0
H1117 H 0.54132 0.90259 0.79942 0.0
H1118 H 0.54719 0.89835 0.83449 0.0
H1119 H 0.54384 0.86823 0.81324 0.0
C1120 C 0.87144 0.45655 0.31013 0.0
C1121 C 0.84511 0.4697 0.30919 0.0
C1122 C 0.87937 0.4364 0.29142 0.0
C1123 C 0.8604 0.42844 0.27124 0.0
C1124 C 0.83325 0.44053 0.27078 0.0
C1125 C 0.826 0.46126 0.28959 0.0
C1126 C 0.90869 0.42453 0.29265 0.0
C1127 C 0.81213 0.43216 0.25003 0.0
C1128 C 0.90012 0.40351 0.2107 0.0
C1129 C 0.90294 0.37472 0.21581 0.0
C1130 C 0.88433 0.42093 0.2274 0.0
C1131 C 0.87046 0.40938 0.24965 0.0
C1132 C 0.87087 0.37996 0.2534 0.0
C1133 C 0.88727 0.36299 0.23658 0.0
C1134 C 0.88477 0.45211 0.22256 0.0
C1135 C 0.85566 0.36661 0.27635 0.0
H1136 H 0.88652 0.46265 0.3251 0.0
H1137 H 0.80558 0.47108 0.28869 0.0
H1138 H 0.90793 0.40138 0.2938 0.0
H1139 H 0.92026 0.43011 0.27431 0.0
H1140 H 0.9207 0.43243 0.30996 0.0
H1141 H 0.79069 0.4393 0.25519 0.0
H1142 H 0.81797 0.44156 0.23069 0.0
H1143 H 0.81192 0.40911 0.24742 0.0
H1144 H 0.91173 0.41291 0.19453 0.0
H1145 H 0.88893 0.34078 0.2406 0.0
H1146 H 0.89778 0.46236 0.23799 0.0
H1147 H 0.86339 0.46098 0.22403 0.0
H1148 H 0.89353 0.45748 0.2028 0.0
H1149 H 0.86773 0.37004 0.29487 0.0
H1150 H 0.85309 0.34372 0.27348 0.0
H1151 H 0.83473 0.37625 0.27907 0.0
C1152 C 0.3653 0.11364 0.80667 0.0
C1153 C 0.37747 0.09718 0.82669 0.0
C1154 C 0.38199 0.12963 0.78921 0.0
C1155 C 0.41159 0.12881 0.79148 0.0
C1156 C 0.4238 0.11365 0.81267 0.0
C1157 C 0.40668 0.09832 0.83005 0.0
C1158 C 0.36799 0.14607 0.76738 0.0
C1159 C 0.45518 0.11181 0.81586 0.0
C1160 C 0.45655 0.13161 0.72934 0.0
C1161 C 0.47005 0.15765 0.73152 0.0
C1162 C 0.43693 0.12257 0.74818 0.0
C1163 C 0.42994 0.14009 0.76981 0.0
C1164 C 0.44234 0.16701 0.77153 0.0
C1165 C 0.46243 0.17539 0.75252 0.0
C1166 C 0.42465 0.09358 0.74553 0.0
C1167 C 0.43504 0.18661 0.79391 0.0
H1168 H 0.34281 0.1132 0.80393 0.0
H1169 H 0.41648 0.08593 0.84549 0.0
H1170 H 0.37777 0.167 0.76529 0.0
H1171 H 0.3707 0.13496 0.74825 0.0
H1172 H 0.34523 0.14877 0.77105 0.0
H1173 H 0.46134 0.10145 0.83471 0.0
H1174 H 0.46414 0.09968 0.79912 0.0
H1175 H 0.46468 0.13295 0.81529 0.0
H1176 H 0.462 0.1176 0.71326 0.0
H1177 H 0.47254 0.19557 0.75444 0.0
H1178 H 0.40147 0.09463 0.74561 0.0
H1179 H 0.43109 0.08057 0.76273 0.0
H1180 H 0.43147 0.0829 0.72706 0.0
H1181 H 0.41201 0.18768 0.7966 0.0
H1182 H 0.44315 0.20807 0.79041 0.0
H1183 H 0.44412 0.17863 0.81269 0.0
C1184 C 0.13527 0.45559 0.72697 0.0
C1185 C 0.16148 0.46885 0.72865 0.0
C1186 C 0.12676 0.4356 0.74564 0.0
C1187 C 0.14504 0.42795 0.76651 0.0
C1188 C 0.17216 0.44 0.76762 0.0
C1189 C 0.17997 0.46055 0.74885 0.0
C1190 C 0.0975 0.42375 0.74373 0.0
C1191 C 0.19256 0.4319 0.78912 0.0
C1192 C 0.10465 0.40473 0.82736 0.0
C1193 C 0.1024 0.3757 0.8234 0.0
C1194 C 0.12008 0.42173 0.81 0.0
C1195 C 0.13426 0.4095 0.78826 0.0
C1196 C 0.13414 0.37997 0.78543 0.0
C1197 C 0.11801 0.36343 0.80287 0.0
C1198 C 0.11922 0.45306 0.81376 0.0
C1199 C 0.14964 0.36597 0.76302 0.0
H1200 H 0.12069 0.46158 0.7115 0.0
H1201 H 0.20031 0.47044 0.75032 0.0
H1202 H 0.09825 0.40058 0.74332 0.0
H1203 H 0.08524 0.42996 0.76147 0.0
H1204 H 0.08621 0.43112 0.72577 0.0
H1205 H 0.21408 0.43937 0.78475 0.0
H1206 H 0.18579 0.44111 0.80825 0.0
H1207 H 0.19303 0.40885 0.79167 0.0
H1208 H 0.09299 0.41459 0.84325 0.0
H1209 H 0.11674 0.34104 0.79972 0.0
H1210 H 0.1068 0.46268 0.79753 0.0
H1211 H 0.14059 0.46199 0.81277 0.0
H1212 H 0.10964 0.45911 0.833 0.0
H1213 H 0.13789 0.36901 0.74426 0.0
H1214 H 0.1521 0.34314 0.76645 0.0
H1215 H 0.17064 0.37544 0.76038 0.0
C1216 C 0.46189 0.82947 0.2943 0.0
C1217 C 0.47213 0.84823 0.31343 0.0
C1218 C 0.44069 0.83754 0.27629 0.0
C1219 C 0.42979 0.86515 0.2771 0.0
C1220 C 0.43944 0.88379 0.2969 0.0
C1221 C 0.46018 0.87507 0.31482 0.0
C1222 C 0.4306 0.81682 0.25588 0.0
C1223 C 0.42878 0.91351 0.29846 0.0
C1224 C 0.40371 0.9035 0.21588 0.0
C1225 C 0.37494 0.90632 0.22109 0.0
C1226 C 0.42147 0.88866 0.23309 0.0
C1227 C 0.41029 0.87578 0.25605 0.0
C1228 C 0.38095 0.87654 0.26031 0.0
C1229 C 0.36364 0.89194 0.24291 0.0
C1230 C 0.45256 0.88867 0.22769 0.0
C1231 C 0.36803 0.86253 0.28415 0.0
H1232 H 0.47077 0.80865 0.29305 0.0
H1233 H 0.46772 0.88985 0.32946 0.0
H1234 H 0.4074 0.81671 0.25503 0.0
H1235 H 0.4383 0.82304 0.23598 0.0
H1236 H 0.43808 0.79527 0.26014 0.0
H1237 H 0.43752 0.92504 0.3157 0.0
H1238 H 0.43447 0.92494 0.28008 0.0
H1239 H 0.40563 0.91368 0.29998 0.0
H1240 H 0.4128 0.91421 0.199 0.0
H1241 H 0.34147 0.89374 0.24712 0.0
H1242 H 0.46113 0.86717 0.22909 0.0
H1243 H 0.46335 0.90153 0.24289 0.0
H1244 H 0.45766 0.89728 0.2078 0.0
H1245 H 0.37704 0.84136 0.2871 0.0
H1246 H 0.34495 0.86069 0.28221 0.0
H1247 H 0.37271 0.87495 0.30218 0.0
C1248 C 0.86918 0.54977 0.72875 0.0
C1249 C 0.84345 0.53569 0.73102 0.0
C1250 C 0.87741 0.57021 0.74705 0.0
C1251 C 0.85929 0.57754 0.76811 0.0
C1252 C 0.83253 0.56477 0.76972 0.0
C1253 C 0.82502 0.54374 0.75133 0.0
C1254 C 0.9063 0.58283 0.74458 0.0
C1255 C 0.81223 0.57254 0.79139 0.0
C1256 C 0.901 0.60128 0.82784 0.0
C1257 C 0.90317 0.63026 0.8235 0.0
C1258 C 0.88501 0.58414 0.81111 0.0
C1259 C 0.87014 0.59617 0.78967 0.0
C1260 C 0.87 0.62569 0.78668 0.0
C1261 C 0.88675 0.64239 0.80344 0.0
C1262 C 0.88617 0.55282 0.81504 0.0
C1263 C 0.85361 0.63951 0.76471 0.0
H1264 H 0.88367 0.54406 0.71314 0.0
H1265 H 0.80502 0.53325 0.75323 0.0
H1266 H 0.90493 0.60597 0.74395 0.0
H1267 H 0.91904 0.57713 0.76219 0.0
H1268 H 0.91748 0.57559 0.72653 0.0
H1269 H 0.79063 0.56548 0.78676 0.0
H1270 H 0.81882 0.56256 0.81025 0.0
H1271 H 0.81204 0.5955 0.7946 0.0
H1272 H 0.91322 0.59154 0.84344 0.0
H1273 H 0.8879 0.66475 0.80006 0.0
H1274 H 0.89816 0.54318 0.79856 0.0
H1275 H 0.86483 0.54377 0.81466 0.0
H1276 H 0.89635 0.54694 0.83406 0.0
H1277 H 0.86495 0.63691 0.74568 0.0
H1278 H 0.85074 0.66224 0.76836 0.0
H1279 H 0.83275 0.62959 0.76246 0.0
C1280 C 0.54834 0.13181 0.31317 0.0
C1281 C 0.53429 0.15755 0.31063 0.0
C1282 C 0.5678 0.12269 0.29421 0.0
C1283 C 0.57404 0.13983 0.2721 0.0
C1284 C 0.56112 0.16649 0.27 0.0
C1285 C 0.54122 0.17495 0.28915 0.0
C1286 C 0.58068 0.09399 0.29728 0.0
C1287 C 0.56762 0.1857 0.24709 0.0
C1288 C 0.63844 0.1139 0.23456 0.0
C1289 C 0.62622 0.09692 0.215 0.0
C1290 C 0.62178 0.12983 0.25207 0.0
C1291 C 0.59218 0.1284 0.25035 0.0
C1292 C 0.57985 0.1126 0.22967 0.0
C1293 C 0.59694 0.09736 0.21219 0.0
C1294 C 0.63586 0.14696 0.27334 0.0
C1295 C 0.54845 0.11007 0.22712 0.0
H1296 H 0.54344 0.11808 0.32963 0.0
H1297 H 0.53068 0.19489 0.28695 0.0
H1298 H 0.57414 0.08047 0.28049 0.0
H1299 H 0.60383 0.09543 0.29674 0.0
H1300 H 0.57444 0.08364 0.3161 0.0
H1301 H 0.55917 0.20708 0.25025 0.0
H1302 H 0.59057 0.1871 0.24398 0.0
H1303 H 0.55835 0.17712 0.22864 0.0
H1304 H 0.66099 0.11399 0.23686 0.0
H1305 H 0.5871 0.08451 0.19714 0.0
H1306 H 0.63367 0.13623 0.29274 0.0
H1307 H 0.62576 0.16777 0.27515 0.0
H1308 H 0.65851 0.14994 0.26927 0.0
H1309 H 0.5401 0.09819 0.2443 0.0
H1310 H 0.54213 0.09915 0.20863 0.0
H1311 H 0.53853 0.13104 0.22739 0.0
C1312 C 0.61807 0.14381 0.7367 0.0
C1313 C 0.60207 0.13168 0.71637 0.0
C1314 C 0.63508 0.12719 0.75333 0.0
C1315 C 0.63569 0.09774 0.74988 0.0
C1316 C 0.62135 0.08578 0.72809 0.0
C1317 C 0.60503 0.10286 0.71154 0.0
C1318 C 0.65084 0.14095 0.77571 0.0
C1319 C 0.62106 0.05454 0.72363 0.0
C1320 C 0.6814 0.04595 0.78856 0.0
C1321 C 0.66284 0.03735 0.80856 0.0
C1322 C 0.67367 0.0669 0.77013 0.0
C1323 C 0.64655 0.07899 0.77136 0.0
C1324 C 0.62823 0.07102 0.79205 0.0
C1325 C 0.63667 0.0507 0.8104 0.0
C1326 C 0.69416 0.07535 0.74886 0.0
C1327 C 0.59896 0.08289 0.79409 0.0
H1328 H 0.61631 0.16606 0.74045 0.0
H1329 H 0.59318 0.09315 0.69569 0.0
H1330 H 0.63933 0.1377 0.79456 0.0
H1331 H 0.67191 0.13148 0.77804 0.0
H1332 H 0.65317 0.16381 0.77247 0.0
H1333 H 0.61147 0.04882 0.7043 0.0
H1334 H 0.64259 0.04595 0.72434 0.0
H1335 H 0.6089 0.04431 0.73968 0.0
H1336 H 0.70172 0.036 0.78698 0.0
H1337 H 0.62204 0.04453 0.82574 0.0
H1338 H 0.69387 0.09834 0.74586 0.0
H1339 H 0.68813 0.06546 0.72981 0.0
H1340 H 0.71583 0.0687 0.75377 0.0
H1341 H 0.59972 0.10604 0.79505 0.0
H1342 H 0.58758 0.0751 0.81182 0.0
H1343 H 0.58676 0.07717 0.77616 0.0
C1344 C 0.0987 0.40233 0.33283 0.0
C1345 C 0.12767 0.40401 0.3282 0.0
C1346 C 0.08112 0.38647 0.31634 0.0
C1347 C 0.09267 0.37139 0.29479 0.0
C1348 C 0.12215 0.37084 0.29153 0.0
C1349 C 0.13929 0.38731 0.3081 0.0
C1350 C 0.04987 0.38798 0.32059 0.0
C1351 C 0.13547 0.35445 0.26931 0.0
C1352 C 0.04095 0.32632 0.25526 0.0
C1353 C 0.03336 0.34474 0.23476 0.0
C1354 C 0.06122 0.33401 0.27438 0.0
C1355 C 0.07374 0.36092 0.27327 0.0
C1356 C 0.06664 0.37918 0.25223 0.0
C1357 C 0.04692 0.37082 0.23327 0.0
C1358 C 0.06866 0.31366 0.29613 0.0
C1359 C 0.07905 0.4082 0.25024 0.0
H1360 H 0.08937 0.41483 0.34843 0.0
H1361 H 0.16162 0.38811 0.30446 0.0
H1362 H 0.04028 0.40076 0.3046 0.0
H1363 H 0.04041 0.36685 0.31959 0.0
H1364 H 0.04441 0.39756 0.33998 0.0
H1365 H 0.15828 0.35151 0.27254 0.0
H1366 H 0.12545 0.33364 0.26724 0.0
H1367 H 0.13248 0.36581 0.25033 0.0
H1368 H 0.03079 0.30611 0.25661 0.0
H1369 H 0.04151 0.38537 0.21759 0.0
H1370 H 0.05951 0.3209 0.31514 0.0
H1371 H 0.09168 0.31264 0.29882 0.0
H1372 H 0.06067 0.2923 0.29195 0.0
H1373 H 0.0733 0.42057 0.26804 0.0
H1374 H 0.07173 0.41967 0.23236 0.0
H1375 H 0.10221 0.40697 0.24958 0.0
C1376 C 0.39367 0.89974 0.71416 0.0
C1377 C 0.39982 0.87167 0.7202 0.0
C1378 C 0.37855 0.91674 0.73173 0.0
C1379 C 0.36864 0.90541 0.7559 0.0
C1380 C 0.37226 0.87641 0.76092 0.0
C1381 C 0.38801 0.8599 0.74313 0.0
C1382 C 0.37558 0.94751 0.72548 0.0
C1383 C 0.36123 0.86323 0.786 0.0
C1384 C 0.37217 0.95643 0.81341 0.0
C1385 C 0.34483 0.96726 0.81452 0.0
C1386 C 0.37974 0.93576 0.79507 0.0
C1387 C 0.3594 0.92487 0.77749 0.0
C1388 C 0.33139 0.93467 0.7792 0.0
C1389 C 0.3245 0.95605 0.79744 0.0
C1390 C 0.40998 0.92653 0.79377 0.0
C1391 C 0.30889 0.92309 0.76134 0.0
H1392 H 0.40221 0.90911 0.69634 0.0
H1393 H 0.3923 0.83822 0.74794 0.0
H1394 H 0.35375 0.95456 0.72872 0.0
H1395 H 0.38919 0.95976 0.73901 0.0
H1396 H 0.38161 0.95244 0.70472 0.0
H1397 H 0.3604 0.84007 0.78446 0.0
H1398 H 0.37513 0.86876 0.80283 0.0
H1399 H 0.33999 0.87123 0.79067 0.0
H1400 H 0.3882 0.96484 0.82635 0.0
H1401 H 0.3033 0.96407 0.7982 0.0
H1402 H 0.41885 0.93184 0.77406 0.0
H1403 H 0.41148 0.90353 0.79617 0.0
H1404 H 0.4231 0.93656 0.80927 0.0
H1405 H 0.31173 0.93135 0.74097 0.0
H1406 H 0.28761 0.92894 0.76827 0.0
H1407 H 0.31036 0.89996 0.76024 0.0
C1408 C 0.95133 0.63711 0.22716 0.0
C1409 C 0.96731 0.6616 0.23033 0.0
C1410 C 0.93175 0.62858 0.2462 0.0
C1411 C 0.92722 0.64517 0.26902 0.0
C1412 C 0.94178 0.67092 0.27161 0.0
C1413 C 0.96191 0.6787 0.25239 0.0
C1414 C 0.91715 0.60079 0.24256 0.0
C1415 C 0.93696 0.68971 0.29517 0.0
C1416 C 0.8637 0.61865 0.30734 0.0
C1417 C 0.87633 0.6002 0.32545 0.0
C1418 C 0.88003 0.6356 0.2904 0.0
C1419 C 0.90966 0.63356 0.29109 0.0
C1420 C 0.92242 0.61638 0.31053 0.0
C1421 C 0.90568 0.60028 0.32758 0.0
C1422 C 0.86554 0.65442 0.2707 0.0
C1423 C 0.95383 0.61308 0.31191 0.0
H1424 H 0.95489 0.62371 0.21017 0.0
H1425 H 0.97389 0.69773 0.25505 0.0
H1426 H 0.92341 0.58626 0.25869 0.0
H1427 H 0.89416 0.60353 0.24377 0.0
H1428 H 0.92224 0.59084 0.22325 0.0
H1429 H 0.945 0.71118 0.2916 0.0
H1430 H 0.91434 0.69093 0.30003 0.0
H1431 H 0.9479 0.68099 0.31273 0.0
H1432 H 0.84109 0.61911 0.30566 0.0
H1433 H 0.91585 0.58637 0.34157 0.0
H1434 H 0.86586 0.64451 0.25082 0.0
H1435 H 0.87654 0.67479 0.26909 0.0
H1436 H 0.84338 0.65829 0.27626 0.0
H1437 H 0.96132 0.60206 0.29388 0.0
H1438 H 0.96059 0.60094 0.32959 0.0
H1439 H 0.96417 0.63381 0.31242 0.0
C1440 C 0.68036 0.95747 0.24484 0.0
C1441 C 0.66059 0.96757 0.22657 0.0
C1442 C 0.67328 0.93622 0.26318 0.0
C1443 C 0.64562 0.9254 0.26372 0.0
C1444 C 0.62595 0.93499 0.24479 0.0
C1445 C 0.63373 0.95556 0.22641 0.0
C1446 C 0.69515 0.92602 0.28248 0.0
C1447 C 0.59607 0.9246 0.24477 0.0
C1448 C 0.61773 0.86082 0.29939 0.0
C1449 C 0.60459 0.87302 0.32145 0.0
C1450 C 0.63357 0.87719 0.28155 0.0
C1451 C 0.63583 0.90649 0.28554 0.0
C1452 C 0.62437 0.91843 0.3088 0.0
C1453 C 0.60927 0.90158 0.32651 0.0
C1454 C 0.64632 0.86341 0.25752 0.0
C1455 C 0.6258 0.94954 0.31388 0.0
H1456 H 0.7012 0.96637 0.24507 0.0
H1457 H 0.61814 0.96302 0.21248 0.0
H1458 H 0.691 0.93501 0.30236 0.0
H1459 H 0.69431 0.90291 0.2844 0.0
H1460 H 0.71658 0.93224 0.27632 0.0
H1461 H 0.58357 0.93349 0.2282 0.0
H1462 H 0.59561 0.90148 0.2432 0.0
H1463 H 0.58578 0.93034 0.26374 0.0
H1464 H 0.61459 0.83878 0.29535 0.0
H1465 H 0.59964 0.91135 0.34361 0.0
H1466 H 0.66746 0.87201 0.25348 0.0
H1467 H 0.6331 0.86771 0.23989 0.0
H1468 H 0.64794 0.84038 0.26003 0.0
H1469 H 0.64754 0.95723 0.31165 0.0
H1470 H 0.61821 0.95518 0.33401 0.0
H1471 H 0.61272 0.96069 0.29905 0.0
C1472 C 0.96315 0.32821 0.79302 0.0
C1473 C 0.97125 0.34623 0.81364 0.0
C1474 C 0.94242 0.33623 0.77448 0.0
C1475 C 0.92988 0.36309 0.77628 0.0
C1476 C 0.93723 0.38083 0.79763 0.0
C1477 C 0.95748 0.37213 0.81604 0.0
C1478 C 0.9347 0.31637 0.75244 0.0
C1479 C 0.92481 0.40977 0.80032 0.0
C1480 C 0.90611 0.40427 0.7159 0.0
C1481 C 0.87695 0.40562 0.71951 0.0
C1482 C 0.92335 0.38907 0.73328 0.0
C1483 C 0.9113 0.37421 0.75471 0.0
C1484 C 0.88173 0.37354 0.75724 0.0
C1485 C 0.86491 0.38945 0.7398 0.0
C1486 C 0.95471 0.39077 0.72983 0.0
C1487 C 0.86791 0.35733 0.77931 0.0
H1488 H 0.97344 0.30812 0.79097 0.0
H1489 H 0.96327 0.38632 0.83186 0.0
H1490 H 0.91165 0.31552 0.74992 0.0
H1491 H 0.94372 0.32394 0.73349 0.0
H1492 H 0.94264 0.29488 0.75619 0.0
H1493 H 0.93181 0.42054 0.81867 0.0
H1494 H 0.93096 0.42273 0.78301 0.0
H1495 H 0.90164 0.40862 0.8005 0.0
H1496 H 0.91581 0.41641 0.70025 0.0
H1497 H 0.84245 0.39006 0.74273 0.0
H1498 H 0.96414 0.36958 0.73031 0.0
H1499 H 0.96389 0.40285 0.74649 0.0
H1500 H 0.96072 0.40108 0.71092 0.0
H1501 H 0.87778 0.33645 0.7816 0.0
H1502 H 0.84514 0.35454 0.77574 0.0
H1503 H 0.87066 0.36869 0.7983 0.0
C1504 C 0.32407 0.04479 0.25374 0.0
C1505 C 0.34258 0.03638 0.23364 0.0
C1506 C 0.33172 0.06577 0.27213 0.0
C1507 C 0.3587 0.0781 0.27073 0.0
C1508 C 0.37697 0.07032 0.24993 0.0
C1509 C 0.36861 0.04994 0.23163 0.0
C1510 C 0.3113 0.074 0.29354 0.0
C1511 C 0.40609 0.08246 0.24771 0.0
C1512 C 0.38652 0.14312 0.30543 0.0
C1513 C 0.4027 0.13109 0.32572 0.0
C1514 C 0.36971 0.12636 0.28878 0.0
C1515 C 0.3695 0.0969 0.29216 0.0
C1516 C 0.38406 0.08501 0.31388 0.0
C1517 C 0.40015 0.10222 0.33047 0.0
C1518 C 0.35372 0.14002 0.26647 0.0
C1519 C 0.3848 0.05375 0.31825 0.0
H1520 H 0.30386 0.03468 0.25544 0.0
H1521 H 0.38319 0.0439 0.2162 0.0
H1522 H 0.31773 0.06437 0.31261 0.0
H1523 H 0.3112 0.09702 0.29636 0.0
H1524 H 0.2897 0.06696 0.2889 0.0
H1525 H 0.41741 0.07483 0.22988 0.0
H1526 H 0.40508 0.1056 0.2468 0.0
H1527 H 0.41848 0.07678 0.26554 0.0
H1528 H 0.38797 0.1654 0.30173 0.0
H1529 H 0.41216 0.09259 0.34627 0.0
H1530 H 0.33275 0.13034 0.26418 0.0
H1531 H 0.3652 0.13696 0.24757 0.0
H1532 H 0.35111 0.16285 0.26975 0.0
H1533 H 0.36338 0.04491 0.31762 0.0
H1534 H 0.39457 0.04806 0.33752 0.0
H1535 H 0.39701 0.04375 0.30211 0.0
C1536 C 0.04773 0.63071 0.81119 0.0
C1537 C 0.03481 0.6571 0.80956 0.0
C1538 C 0.06761 0.62196 0.79248 0.0
C1539 C 0.07544 0.64013 0.77159 0.0
C1540 C 0.06356 0.66732 0.77042 0.0
C1541 C 0.04319 0.67541 0.78926 0.0
C1542 C 0.07931 0.59265 0.79447 0.0
C1543 C 0.07177 0.68758 0.74885 0.0
C1544 C 0.14078 0.61389 0.73586 0.0
C1545 C 0.12901 0.59821 0.71511 0.0
C1546 C 0.12378 0.62961 0.75324 0.0
C1547 C 0.09427 0.62936 0.75009 0.0
C1548 C 0.08252 0.61511 0.72814 0.0
C1549 C 0.09996 0.59999 0.71088 0.0
C1550 C 0.1373 0.64508 0.77594 0.0
C1551 C 0.05124 0.61394 0.72399 0.0
H1552 H 0.04163 0.61625 0.8267 0.0
H1553 H 0.03352 0.69586 0.78779 0.0
H1554 H 0.07319 0.58044 0.77667 0.0
H1555 H 0.10249 0.59327 0.79506 0.0
H1556 H 0.07175 0.5814 0.81237 0.0
H1557 H 0.06378 0.70901 0.75274 0.0
H1558 H 0.09488 0.68843 0.74685 0.0
H1559 H 0.06322 0.68035 0.72959 0.0
H1560 H 0.16315 0.61295 0.73928 0.0
H1561 H 0.09049 0.58823 0.69485 0.0
H1562 H 0.13383 0.63335 0.79464 0.0
H1563 H 0.12775 0.66608 0.77838 0.0
H1564 H 0.16021 0.64753 0.773 0.0
H1565 H 0.04157 0.60127 0.74 0.0
H1566 H 0.04555 0.60448 0.7046 0.0
H1567 H 0.04202 0.63519 0.72505 0.0
C1568 C 0.24235 0.50606 0.58059 0.0
C1569 C 0.22181 0.52629 0.58572 0.0
C1570 C 0.24853 0.49789 0.55433 0.0
C1571 C 0.23313 0.50957 0.53294 0.0
C1572 C 0.21394 0.53152 0.53808 0.0
C1573 C 0.20889 0.53984 0.56432 0.0
C1574 C 0.27002 0.47531 0.54973 0.0
C1575 C 0.19662 0.54439 0.51616 0.0
C1576 C 0.24245 0.49956 0.45846 0.0
C1577 C 0.22183 0.47945 0.45331 0.0
C1578 C 0.24862 0.50772 0.48474 0.0
C1579 C 0.23313 0.49613 0.5061 0.0
C1580 C 0.21389 0.47426 0.50093 0.0
C1581 C 0.20884 0.46597 0.47469 0.0
C1582 C 0.27018 0.53019 0.48938 0.0
C1583 C 0.19648 0.46148 0.52281 0.0
H1584 H 0.25222 0.49531 0.59706 0.0
H1585 H 0.19301 0.55551 0.56829 0.0
H1586 H 0.25933 0.45487 0.54749 0.0
H1587 H 0.28203 0.47934 0.53128 0.0
H1588 H 0.28485 0.47368 0.56665 0.0
H1589 H 0.18408 0.56251 0.52319 0.0
H1590 H 0.21023 0.55147 0.49969 0.0
H1591 H 0.18208 0.52846 0.50803 0.0
H1592 H 0.25238 0.51024 0.44201 0.0
H1593 H 0.19289 0.45039 0.47069 0.0
H1594 H 0.28216 0.5261 0.50785 0.0
H1595 H 0.25955 0.55068 0.49161 0.0
H1596 H 0.28502 0.53175 0.4725 0.0
H1597 H 0.21004 0.45433 0.53931 0.0
H1598 H 0.18388 0.44344 0.51576 0.0
H1599 H 0.18199 0.4775 0.53091 0.0
C1600 C 0.49582 0.80233 0.46444 0.0
C1601 C 0.51922 0.78948 0.45292 0.0
C1602 C 0.48857 0.79746 0.49099 0.0
C1603 C 0.50433 0.77817 0.50625 0.0
C1604 C 0.52594 0.76262 0.49374 0.0
C1605 C 0.53344 0.76875 0.46726 0.0
C1606 C 0.46561 0.81491 0.50328 0.0
C1607 C 0.5423 0.74076 0.50873 0.0
C1608 C 0.50982 0.8015 0.57784 0.0
C1609 C 0.48607 0.78914 0.5892 0.0
C1610 C 0.51702 0.79671 0.55127 0.0
C1611 C 0.50082 0.77803 0.5358 0.0
C1612 C 0.47877 0.76294 0.54812 0.0
C1613 C 0.47133 0.769 0.57462 0.0
C1614 C 0.54044 0.81368 0.53918 0.0
C1615 C 0.46189 0.7417 0.5329 0.0
H1616 H 0.48424 0.81777 0.45312 0.0
H1617 H 0.55131 0.75844 0.45832 0.0
H1618 H 0.44995 0.80128 0.51303 0.0
H1619 H 0.47464 0.82871 0.51877 0.0
H1620 H 0.45469 0.82821 0.48845 0.0
H1621 H 0.55238 0.72562 0.49502 0.0
H1622 H 0.559 0.75103 0.52048 0.0
H1623 H 0.52861 0.72916 0.52271 0.0
H1624 H 0.52171 0.81655 0.58931 0.0
H1625 H 0.45314 0.75912 0.5834 0.0
H1626 H 0.53178 0.82798 0.52388 0.0
H1627 H 0.55572 0.79976 0.52923 0.0
H1628 H 0.55174 0.82642 0.55417 0.0
H1629 H 0.44544 0.75256 0.52127 0.0
H1630 H 0.45144 0.72666 0.54645 0.0
H1631 H 0.47529 0.72993 0.5188 0.0
C1632 C 0.76748 0.50584 0.46047 0.0
C1633 C 0.78907 0.52483 0.45506 0.0
C1634 C 0.76155 0.49761 0.48678 0.0
C1635 C 0.77803 0.50818 0.50795 0.0
C1636 C 0.79844 0.52891 0.50256 0.0
C1637 C 0.80346 0.53712 0.47628 0.0
C1638 C 0.73903 0.47616 0.49166 0.0
C1639 C 0.8168 0.54066 0.52426 0.0
C1640 C 0.76768 0.49892 0.58242 0.0
C1641 C 0.78728 0.47786 0.58785 0.0
C1642 C 0.76228 0.5074 0.55608 0.0
C1643 C 0.77736 0.49496 0.53489 0.0
C1644 C 0.79554 0.47224 0.54033 0.0
C1645 C 0.80005 0.46387 0.56666 0.0
C1646 C 0.74209 0.53108 0.55117 0.0
C1647 C 0.81236 0.45843 0.5186 0.0
H1648 H 0.75645 0.49611 0.44411 0.0
H1649 H 0.82012 0.55188 0.4721 0.0
H1650 H 0.7488 0.45532 0.49453 0.0
H1651 H 0.72708 0.48119 0.50991 0.0
H1652 H 0.72428 0.47477 0.47468 0.0
H1653 H 0.83016 0.55812 0.51712 0.0
H1654 H 0.80384 0.54835 0.54097 0.0
H1655 H 0.8306 0.52391 0.53211 0.0
H1656 H 0.75801 0.51004 0.59876 0.0
H1657 H 0.8153 0.44764 0.57088 0.0
H1658 H 0.72956 0.52725 0.533 0.0
H1659 H 0.75395 0.55076 0.54816 0.0
H1660 H 0.72767 0.53411 0.56821 0.0
H1661 H 0.79857 0.45229 0.50191 0.0
H1662 H 0.82366 0.43956 0.52574 0.0
H1663 H 0.82796 0.47349 0.51073 0.0
C1664 C 0.4982 0.23883 0.45998 0.0
C1665 C 0.478 0.2183 0.45479 0.0
C1666 C 0.50667 0.24466 0.48624 0.0
C1667 C 0.4952 0.22904 0.50757 0.0
C1668 C 0.47323 0.20991 0.50239 0.0
C1669 C 0.46467 0.20513 0.47615 0.0
C1670 C 0.52929 0.26607 0.49089 0.0
C1671 C 0.46051 0.19243 0.52425 0.0
C1672 C 0.53925 0.20497 0.56579 0.0
C1673 C 0.52597 0.21816 0.58717 0.0
C1674 C 0.53066 0.20979 0.53956 0.0
C1675 C 0.50871 0.22899 0.5344 0.0
C1676 C 0.49728 0.24461 0.55574 0.0
C1677 C 0.50578 0.23873 0.58199 0.0
C1678 C 0.54334 0.19231 0.51769 0.0
C1679 C 0.47468 0.26608 0.5511 0.0
H1680 H 0.50866 0.249 0.44353 0.0
H1681 H 0.44895 0.18934 0.47213 0.0
H1682 H 0.5252 0.27813 0.50929 0.0
H1683 H 0.5497 0.2553 0.4933 0.0
H1684 H 0.53106 0.28084 0.47396 0.0
H1685 H 0.44236 0.17995 0.51722 0.0
H1686 H 0.47653 0.17785 0.53222 0.0
H1687 H 0.45352 0.20593 0.54084 0.0
H1688 H 0.55498 0.18915 0.56979 0.0
H1689 H 0.49535 0.24892 0.59845 0.0
H1690 H 0.55036 0.20581 0.50111 0.0
H1691 H 0.52729 0.1778 0.50971 0.0
H1692 H 0.56146 0.17974 0.52471 0.0
H1693 H 0.47878 0.27816 0.53271 0.0
H1694 H 0.47294 0.28083 0.56804 0.0
H1695 H 0.45426 0.25537 0.5487 0.0
C1696 C 0.70682 0.96663 0.97317 0.0
C1697 C 0.72034 0.97981 0.95191 0.0
C1698 C 0.71149 0.97508 0.99943 0.0
C1699 C 0.73082 0.99682 1.00477 0.0
C1700 C 0.74669 0.00821 0.98357 0.0
C1701 C 0.74094 0.99988 0.95726 0.0
C1702 C 0.69369 0.9625 0.02114 0.0
C1703 C 0.76826 0.03063 0.98841 0.0
C1704 C 0.70645 0.04056 0.06294 0.0
C1705 C 0.71929 0.02699 0.08437 0.0
C1706 C 0.7116 0.03225 0.03671 0.0
C1707 C 0.73071 0.01021 0.03163 0.0
C1708 C 0.74596 0.99844 0.05308 0.0
C1709 C 0.73975 0.00667 0.07931 0.0
C1710 C 0.69446 0.04524 1.01473 0.0
C1711 C 0.7673 0.97571 0.04853 0.0
H1712 H 0.69087 0.95111 0.96902 0.0
H1713 H 0.75123 0.01038 0.9409 0.0
H1714 H 0.70697 0.95533 0.03783 0.0
H1715 H 0.67921 0.97865 0.02901 0.0
H1716 H 0.68105 0.94452 1.01399 0.0
H1717 H 0.78324 0.03222 0.97163 0.0
H1718 H 0.75766 0.05113 0.99063 0.0
H1719 H 0.78009 0.02646 1.00695 0.0
H1720 H 0.6906 0.05627 0.06687 0.0
H1721 H 0.74953 0.99588 0.09581 0.0
H1722 H 0.6798 0.02942 1.00658 0.0
H1723 H 0.70819 0.05215 0.99828 0.0
H1724 H 0.68207 0.06348 0.02169 0.0
H1725 H 0.75644 0.95542 0.04583 0.0
H1726 H 0.78182 0.97368 0.06564 0.0
H1727 H 0.77966 0.97989 0.03032 0.0
C1728 C 0.04423 0.29835 0.97697 0.0
C1729 C 0.0295 0.28716 0.95542 0.0
C1730 C 0.03542 0.29369 1.00316 0.0
C1731 C 0.01164 0.27676 1.00806 0.0
C1732 C 0.99848 0.26301 0.98646 0.0
C1733 C 0.0073 0.26871 0.9603 0.0
C1734 C 0.04996 0.30918 0.02533 0.0
C1735 C 0.97378 0.24395 0.99078 0.0
C1736 C 0.99905 0.26613 0.08219 0.0
C1737 C 0.98082 0.28838 0.08762 0.0
C1738 C 0.00753 0.26032 0.05593 0.0
C1739 C 0.99812 0.27767 0.03486 0.0
C1740 C 0.97816 0.29885 0.04022 0.0
C1741 C 0.96951 0.30361 0.06641 0.0
C1742 C 0.02794 0.23684 0.05103 0.0
C1743 C 0.96772 0.31821 1.01867 0.0
H1744 H 0.06139 0.31264 0.97318 0.0
H1745 H 0.99565 0.26022 0.94371 0.0
H1746 H 0.03567 0.32533 0.03349 0.0
H1747 H 0.05531 0.29467 0.04172 0.0
H1748 H 0.06943 0.31965 1.01854 0.0
H1749 H 0.97025 0.23004 0.97345 0.0
H1750 H 0.97681 0.23089 1.00876 0.0
H1751 H 0.95465 0.25671 0.99378 0.0
H1752 H 0.008 0.25439 0.09853 0.0
H1753 H 0.95525 0.3207 0.07057 0.0
H1754 H 0.04936 0.24552 0.04912 0.0
H1755 H 0.02293 0.22574 0.03229 0.0
H1756 H 0.02797 0.22153 0.06761 0.0
H1757 H 0.98538 0.33096 1.01104 0.0
H1758 H 0.95112 0.3326 0.02585 0.0
H1759 H 0.9593 0.306 1.00178 0.0
C1760 C 0.29775 0.96557 0.06913 0.0
C1761 C 0.28472 0.97924 0.09037 0.0
C1762 C 0.29326 0.97409 0.04284 0.0
C1763 C 0.27477 0.99658 0.03747 0.0
C1764 C 0.2594 0.00863 0.05868 0.0
C1765 C 0.26482 1.00005 0.085 0.0
C1766 C 0.31041 0.96071 0.02111 0.0
C1767 C 0.23883 0.03199 0.05384 0.0
C1768 C 0.30074 0.03931 0.97917 0.0
C1769 C 0.28694 0.02664 0.95781 0.0
C1770 C 0.29548 0.03107 1.00542 0.0
C1771 C 0.27538 0.00998 1.01059 0.0
C1772 C 0.25934 0.99914 0.98924 0.0
C1773 C 0.26554 0.00736 0.96299 0.0
C1774 C 0.31338 0.04313 0.02731 0.0
C1775 C 0.23708 0.97737 0.99389 0.0
H1776 H 0.3132 0.94953 0.0733 0.0
H1777 H 0.25494 0.01092 0.10136 0.0
H1778 H 0.2968 0.95436 1.00436 0.0
H1779 H 0.32573 0.97612 1.01333 0.0
H1780 H 0.32208 0.94205 0.02821 0.0
H1781 H 0.22414 0.03448 0.07075 0.0
H1782 H 0.25035 0.05194 0.05126 0.0
H1783 H 0.2266 0.02821 0.03547 0.0
H1784 H 0.31726 0.05427 0.97517 0.0
H1785 H 0.25496 0.99735 0.94652 0.0
H1786 H 0.32744 0.02662 0.03523 0.0
H1787 H 0.30013 0.05051 0.04393 0.0
H1788 H 0.32647 0.06086 1.02032 0.0
H1789 H 0.24709 0.95664 0.99667 0.0
H1790 H 0.22244 0.9759 0.97682 0.0
H1791 H 0.22495 0.98212 1.0121 0.0
C1792 C 0.96436 0.70691 0.97423 0.0
C1793 C 0.9789 0.71826 0.95265 0.0
C1794 C 0.97317 0.71169 1.00039 0.0
C1795 C 0.99693 0.72868 1.00521 0.0
C1796 C 0.00995 0.74251 0.98358 0.0
C1797 C 1.00094 0.73691 0.95745 0.0
C1798 C 0.95864 0.69631 0.02264 0.0
C1799 C 0.03477 0.76144 0.9878 0.0
C1800 C 0.0095 0.73937 0.07929 0.0
C1801 C 0.02701 0.71659 0.08489 0.0
C1802 C 1.00131 0.74532 0.05296 0.0
C1803 C 0.01051 0.72777 0.032 0.0
C1804 C 0.03005 0.70623 0.03753 0.0
C1805 C 0.0382 0.70113 0.06382 0.0
C1806 C 0.98119 0.76903 0.0479 0.0
C1807 C 0.04043 0.68682 1.01604 0.0
H1808 H 0.94732 0.69246 0.97049 0.0
H1809 H 0.01235 0.74559 0.94079 0.0
H1810 H 0.97281 0.67995 0.03066 0.0
H1811 H 0.95362 0.71082 0.0391 0.0
H1812 H 0.93899 0.6861 1.01596 0.0
H1813 H 0.03832 0.77531 0.97044 0.0
H1814 H 0.03189 0.77452 1.00576 0.0
H1815 H 0.05383 0.74856 0.99079 0.0
H1816 H 1.00073 0.75131 0.09556 0.0
H1817 H 0.05187 0.68358 0.06815 0.0
H1818 H 0.95972 0.76055 0.04566 0.0
H1819 H 0.98656 0.78018 0.02928 0.0
H1820 H 0.98109 0.78425 0.06454 0.0
H1821 H 0.0228 0.67384 1.0087 0.0
H1822 H 0.05723 0.67263 0.02321 0.0
H1823 H 0.04856 0.69896 0.99897 0.0
loop_
_geom_bond_atom_site_label_1
_geom_bond_atom_site_label_2
_geom_bond_distance
_geom_bond_site_symmetry_2
_ccdc_geom_bond_type
Co0 O3 1.970 . S
Co0 N17 1.989 . S
Co0 O25 1.967 . S
Co0 O32 1.920 . S
Co1 O4 1.966 . S
Co1 N10 2.022 . S
Co1 N18 1.993 . S
Co1 O26 1.941 . S
C2 O3 1.258 . S
C2 O4 1.263 . S
O3 Co0 1.970 . S
O3 C2 1.258 . S
O4 Co1 1.966 . S
O4 C2 1.263 . S
C5 O6 1.235 . S
C5 O32 1.289 . S
O6 C5 1.235 . S
C7 C9 1.400 . S
C7 N10 1.351 . S
C7 C12 1.501 . S
C8 C9 1.387 . S
C8 N11 1.341 . S
C9 C7 1.400 . S
C9 C8 1.387 . S
N10 Co1 2.022 . S
N10 C7 1.351 . S
N10 N11 1.365 . S
N11 C8 1.341 . S
N11 N10 1.365 . S
N11 H31 0.862 . S
C12 C7 1.501 . S
C12 H13 0.961 . S
C12 H14 0.961 . S
C12 H15 0.960 . S
H13 C12 0.961 . S
H14 C12 0.961 . S
H15 C12 0.960 . S
C16 N17 1.342 . S
C16 C20 1.401 . S
C16 C21 1.499 . S
N17 Co0 1.989 . S
N17 C16 1.342 . S
N17 N18 1.388 . S
N18 Co1 1.993 . S
N18 N17 1.388 . S
N18 C19 1.346 . S
C19 N18 1.346 . S
C19 C20 1.396 . S
C19 C29 1.510 . S
C20 C16 1.401 . S
C20 C19 1.396 . S
C21 C16 1.499 . S
C21 H22 0.959 . S
C21 H23 0.960 . S
C21 H24 0.961 . S
H22 C21 0.959 . S
H23 C21 0.960 . S
H24 C21 0.961 . S
O25 Co0 1.967 . S
O25 C33 1.258 . S
O26 Co1 1.941 . S
O26 C33 1.266 . S
H27 C29 0.959 . S
H28 C29 0.961 . S
C29 C19 1.510 . S
C29 H27 0.959 . S
C29 H28 0.961 . S
C29 H30 0.960 . S
H30 C29 0.960 . S
H31 N11 0.862 . S
O32 Co0 1.920 . S
O32 C5 1.289 . S
C33 O25 1.258 . S
C33 O26 1.266 . S
Co34 O37 1.970 . S
Co34 N51 1.989 . S
Co34 O59 1.967 . S
Co34 O66 1.920 . S
Co35 O38 1.966 . S
Co35 N44 2.022 . S
Co35 N52 1.993 . S
Co35 O60 1.941 . S
C36 O37 1.258 . S
C36 O38 1.263 . S
O37 Co34 1.970 . S
O37 C36 1.258 . S
O38 Co35 1.966 . S
O38 C36 1.263 . S
C39 O40 1.235 . S
C39 O66 1.289 . S
O40 C39 1.235 . S
C41 C43 1.400 . S
C41 N44 1.351 . S
C41 C46 1.501 . S
C42 C43 1.387 . S
C42 N45 1.341 . S
C43 C41 1.400 . S
C43 C42 1.387 . S
N44 Co35 2.022 . S
N44 C41 1.351 . S
N44 N45 1.365 . S
N45 C42 1.341 . S
N45 N44 1.365 . S
N45 H65 0.862 . S
C46 C41 1.501 . S
C46 H47 0.961 . S
C46 H48 0.961 . S
C46 H49 0.960 . S
H47 C46 0.961 . S
H48 C46 0.961 . S
H49 C46 0.960 . S
C50 N51 1.342 . S
C50 C54 1.401 . S
C50 C55 1.499 . S
N51 Co34 1.989 . S
N51 C50 1.342 . S
N51 N52 1.388 . S
N52 Co35 1.993 . S
N52 N51 1.388 . S
N52 C53 1.346 . S
C53 N52 1.346 . S
C53 C54 1.396 . S
C53 C63 1.510 . S
C54 C50 1.401 . S
C54 C53 1.396 . S
C55 C50 1.499 . S
C55 H56 0.959 . S
C55 H57 0.960 . S
C55 H58 0.961 . S
H56 C55 0.959 . S
H57 C55 0.960 . S
H58 C55 0.961 . S
O59 Co34 1.967 . S
O59 C67 1.258 . S
O60 Co35 1.941 . S
O60 C67 1.266 . S
H61 C63 0.959 . S
H62 C63 0.961 . S
C63 C53 1.510 . S
C63 H61 0.959 . S
C63 H62 0.961 . S
C63 H64 0.960 . S
H64 C63 0.960 . S
H65 N45 0.862 . S
O66 Co34 1.920 . S
O66 C39 1.289 . S
C67 O59 1.258 . S
C67 O60 1.266 . S
Co68 O71 1.970 . S
Co68 N85 1.989 . S
Co68 O93 1.967 . S
Co68 O100 1.920 . S
Co69 O72 1.966 . S
Co69 N78 2.022 . S
Co69 N86 1.993 . S
Co69 O94 1.941 . S
C70 O71 1.258 . S
C70 O72 1.263 . S
O71 Co68 1.970 . S
O71 C70 1.258 . S
O72 Co69 1.966 . S
O72 C70 1.263 . S
C73 O74 1.235 . S
C73 O100 1.289 . S
O74 C73 1.235 . S
C75 C77 1.400 . S
C75 N78 1.351 . S
C75 C80 1.501 . S
C76 C77 1.387 . S
C76 N79 1.341 . S
C77 C75 1.400 . S
C77 C76 1.387 . S
N78 Co69 2.022 . S
N78 C75 1.351 . S
N78 N79 1.365 . S
N79 C76 1.341 . S
N79 N78 1.365 . S
N79 H99 0.862 . S
C80 C75 1.501 . S
C80 H81 0.961 . S
C80 H82 0.961 . S
C80 H83 0.960 . S
H81 C80 0.961 . S
H82 C80 0.961 . S
H83 C80 0.960 . S
C84 N85 1.342 . S
C84 C88 1.401 . S
C84 C89 1.499 . S
N85 Co68 1.989 . S
N85 C84 1.342 . S
N85 N86 1.388 . S
N86 Co69 1.993 . S
N86 N85 1.388 . S
N86 C87 1.346 . S
C87 N86 1.346 . S
C87 C88 1.396 . S
C87 C97 1.510 . S
C88 C84 1.401 . S
C88 C87 1.396 . S
C89 C84 1.499 . S
C89 H90 0.959 . S
C89 H91 0.960 . S
C89 H92 0.961 . S
H90 C89 0.959 . S
H91 C89 0.960 . S
H92 C89 0.961 . S
O93 Co68 1.967 . S
O93 C101 1.258 . S
O94 Co69 1.941 . S
O94 C101 1.266 . S
H95 C97 0.959 . S
H96 C97 0.961 . S
C97 C87 1.510 . S
C97 H95 0.959 . S
C97 H96 0.961 . S
C97 H98 0.960 . S
H98 C97 0.960 . S
H99 N79 0.862 . S
O100 Co68 1.920 . S
O100 C73 1.289 . S
C101 O93 1.258 . S
C101 O94 1.266 . S
Co102 O105 1.970 . S
Co102 N119 1.989 . S
Co102 O127 1.967 . S
Co102 O134 1.920 . S
Co103 O106 1.966 . S
Co103 N112 2.022 . S
Co103 N120 1.993 . S
Co103 O128 1.941 . S
C104 O105 1.258 . S
C104 O106 1.263 . S
O105 Co102 1.970 . S
O105 C104 1.258 . S
O106 Co103 1.966 . S
O106 C104 1.263 . S
C107 O108 1.235 . S
C107 O134 1.289 . S
O108 C107 1.235 . S
C109 C111 1.400 . S
C109 N112 1.351 . S
C109 C114 1.501 . S
C110 C111 1.387 . S
C110 N113 1.341 . S
C111 C109 1.400 . S
C111 C110 1.387 . S
N112 Co103 2.022 . S
N112 C109 1.351 . S
N112 N113 1.365 . S
N113 C110 1.341 . S
N113 N112 1.365 . S
N113 H133 0.862 . S
C114 C109 1.501 . S
C114 H115 0.961 . S
C114 H116 0.961 . S
C114 H117 0.960 . S
H115 C114 0.961 . S
H116 C114 0.961 . S
H117 C114 0.960 . S
C118 N119 1.342 . S
C118 C122 1.401 . S
C118 C123 1.499 . S
N119 Co102 1.989 . S
N119 C118 1.342 . S
N119 N120 1.388 . S
N120 Co103 1.993 . S
N120 N119 1.388 . S
N120 C121 1.346 . S
C121 N120 1.346 . S
C121 C122 1.396 . S
C121 C131 1.510 . S
C122 C118 1.401 . S
C122 C121 1.396 . S
C123 C118 1.499 . S
C123 H124 0.959 . S
C123 H125 0.960 . S
C123 H126 0.961 . S
H124 C123 0.959 . S
H125 C123 0.960 . S
H126 C123 0.961 . S
O127 Co102 1.967 . S
O127 C135 1.258 . S
O128 Co103 1.941 . S
O128 C135 1.266 . S
H129 C131 0.959 . S
H130 C131 0.961 . S
C131 C121 1.510 . S
C131 H129 0.959 . S
C131 H130 0.961 . S
C131 H132 0.960 . S
H132 C131 0.960 . S
H133 N113 0.862 . S
O134 Co102 1.920 . S
O134 C107 1.289 . S
C135 O127 1.258 . S
C135 O128 1.266 . S
Co136 O139 1.970 . S
Co136 N153 1.989 . S
Co136 O161 1.967 . S
Co136 O168 1.920 . S
Co137 O140 1.966 . S
Co137 N146 2.022 . S
Co137 N154 1.993 . S
Co137 O162 1.941 . S
C138 O139 1.258 . S
C138 O140 1.263 . S
O139 Co136 1.970 . S
O139 C138 1.258 . S
O140 Co137 1.966 . S
O140 C138 1.263 . S
C141 O142 1.235 . S
C141 O168 1.289 . S
O142 C141 1.235 . S
C143 C145 1.400 . S
C143 N146 1.351 . S
C143 C148 1.501 . S
C144 C145 1.387 . S
C144 N147 1.341 . S
C145 C143 1.400 . S
C145 C144 1.387 . S
N146 Co137 2.022 . S
N146 C143 1.351 . S
N146 N147 1.365 . S
N147 C144 1.341 . S
N147 N146 1.365 . S
N147 H167 0.862 . S
C148 C143 1.501 . S
C148 H149 0.961 . S
C148 H150 0.961 . S
C148 H151 0.960 . S
H149 C148 0.961 . S
H150 C148 0.961 . S
H151 C148 0.960 . S
C152 N153 1.342 . S
C152 C156 1.401 . S
C152 C157 1.499 . S
N153 Co136 1.989 . S
N153 C152 1.342 . S
N153 N154 1.388 . S
N154 Co137 1.993 . S
N154 N153 1.388 . S
N154 C155 1.346 . S
C155 N154 1.346 . S
C155 C156 1.396 . S
C155 C165 1.510 . S
C156 C152 1.401 . S
C156 C155 1.396 . S
C157 C152 1.499 . S
C157 H158 0.959 . S
C157 H159 0.960 . S
C157 H160 0.961 . S
H158 C157 0.959 . S
H159 C157 0.960 . S
H160 C157 0.961 . S
O161 Co136 1.967 . S
O161 C169 1.258 . S
O162 Co137 1.941 . S
O162 C169 1.266 . S
H163 C165 0.959 . S
H164 C165 0.961 . S
C165 C155 1.510 . S
C165 H163 0.959 . S
C165 H164 0.961 . S
C165 H166 0.960 . S
H166 C165 0.960 . S
H167 N147 0.862 . S
O168 Co136 1.920 . S
O168 C141 1.289 . S
C169 O161 1.258 . S
C169 O162 1.266 . S
Co170 O173 1.970 . S
Co170 N187 1.989 . S
Co170 O195 1.967 . S
Co170 O202 1.920 . S
Co171 O174 1.966 . S
Co171 N180 2.022 . S
Co171 N188 1.993 . S
Co171 O196 1.941 . S
C172 O173 1.258 . S
C172 O174 1.263 . S
O173 Co170 1.970 . S
O173 C172 1.258 . S
O174 Co171 1.966 . S
O174 C172 1.263 . S
C175 O176 1.235 . S
C175 O202 1.289 . S
O176 C175 1.235 . S
C177 C179 1.400 . S
C177 N180 1.351 . S
C177 C182 1.501 . S
C178 C179 1.387 . S
C178 N181 1.341 . S
C179 C177 1.400 . S
C179 C178 1.387 . S
N180 Co171 2.022 . S
N180 C177 1.351 . S
N180 N181 1.365 . S
N181 C178 1.341 . S
N181 N180 1.365 . S
N181 H201 0.862 . S
C182 C177 1.501 . S
C182 H183 0.961 . S
C182 H184 0.961 . S
C182 H185 0.960 . S
H183 C182 0.961 . S
H184 C182 0.961 . S
H185 C182 0.960 . S
C186 N187 1.342 . S
C186 C190 1.401 . S
C186 C191 1.499 . S
N187 Co170 1.989 . S
N187 C186 1.342 . S
N187 N188 1.388 . S
N188 Co171 1.993 . S
N188 N187 1.388 . S
N188 C189 1.346 . S
C189 N188 1.346 . S
C189 C190 1.396 . S
C189 C199 1.510 . S
C190 C186 1.401 . S
C190 C189 1.396 . S
C191 C186 1.499 . S
C191 H192 0.959 . S
C191 H193 0.960 . S
C191 H194 0.961 . S
H192 C191 0.959 . S
H193 C191 0.960 . S
H194 C191 0.961 . S
O195 Co170 1.967 . S
O195 C203 1.258 . S
O196 Co171 1.941 . S
O196 C203 1.266 . S
H197 C199 0.959 . S
H198 C199 0.961 . S
C199 C189 1.510 . S
C199 H197 0.959 . S
C199 H198 0.961 . S
C199 H200 0.960 . S
H200 C199 0.960 . S
H201 N181 0.862 . S
O202 Co170 1.920 . S
O202 C175 1.289 . S
C203 O195 1.258 . S
C203 O196 1.266 . S
Co204 O207 1.970 . S
Co204 N221 1.989 . S
Co204 O229 1.967 . S
Co204 O236 1.920 . S
Co205 O208 1.966 . S
Co205 N214 2.022 . S
Co205 N222 1.993 . S
Co205 O230 1.941 . S
C206 O207 1.258 . S
C206 O208 1.263 . S
O207 Co204 1.970 . S
O207 C206 1.258 . S
O208 Co205 1.966 . S
O208 C206 1.263 . S
C209 O210 1.235 . S
C209 O236 1.289 . S
O210 C209 1.235 . S
C211 C213 1.400 . S
C211 N214 1.351 . S
C211 C216 1.501 . S
C212 C213 1.387 . S
C212 N215 1.341 . S
C213 C211 1.400 . S
C213 C212 1.387 . S
N214 Co205 2.022 . S
N214 C211 1.351 . S
N214 N215 1.365 . S
N215 C212 1.341 . S
N215 N214 1.365 . S
N215 H235 0.862 . S
C216 C211 1.501 . S
C216 H217 0.961 . S
C216 H218 0.961 . S
C216 H219 0.960 . S
H217 C216 0.961 . S
H218 C216 0.961 . S
H219 C216 0.960 . S
C220 N221 1.342 . S
C220 C224 1.401 . S
C220 C225 1.499 . S
N221 Co204 1.989 . S
N221 C220 1.342 . S
N221 N222 1.388 . S
N222 Co205 1.993 . S
N222 N221 1.388 . S
N222 C223 1.346 . S
C223 N222 1.346 . S
C223 C224 1.396 . S
C223 C233 1.510 . S
C224 C220 1.401 . S
C224 C223 1.396 . S
C225 C220 1.499 . S
C225 H226 0.959 . S
C225 H227 0.960 . S
C225 H228 0.961 . S
H226 C225 0.959 . S
H227 C225 0.960 . S
H228 C225 0.961 . S
O229 Co204 1.967 . S
O229 C237 1.258 . S
O230 Co205 1.941 . S
O230 C237 1.266 . S
H231 C233 0.959 . S
H232 C233 0.961 . S
C233 C223 1.510 . S
C233 H231 0.959 . S
C233 H232 0.961 . S
C233 H234 0.960 . S
H234 C233 0.960 . S
H235 N215 0.862 . S
O236 Co204 1.920 . S
O236 C209 1.289 . S
C237 O229 1.258 . S
C237 O230 1.266 . S
Co238 O241 1.970 . S
Co238 N255 1.989 . S
Co238 O263 1.967 . S
Co238 O270 1.920 . S
Co239 O242 1.966 . S
Co239 N248 2.022 . S
Co239 N256 1.993 . S
Co239 O264 1.941 . S
C240 O241 1.258 . S
C240 O242 1.263 . S
O241 Co238 1.970 . S
O241 C240 1.258 . S
O242 Co239 1.966 . S
O242 C240 1.263 . S
C243 O244 1.235 . S
C243 O270 1.289 . S
O244 C243 1.235 . S
C245 C247 1.400 . S
C245 N248 1.351 . S
C245 C250 1.501 . S
C246 C247 1.387 . S
C246 N249 1.341 . S
C247 C245 1.400 . S
C247 C246 1.387 . S
N248 Co239 2.022 . S
N248 C245 1.351 . S
N248 N249 1.365 . S
N249 C246 1.341 . S
N249 N248 1.365 . S
N249 H269 0.862 . S
C250 C245 1.501 . S
C250 H251 0.961 . S
C250 H252 0.961 . S
C250 H253 0.960 . S
H251 C250 0.961 . S
H252 C250 0.961 . S
H253 C250 0.960 . S
C254 N255 1.342 . S
C254 C258 1.401 . S
C254 C259 1.499 . S
N255 Co238 1.989 . S
N255 C254 1.342 . S
N255 N256 1.388 . S
N256 Co239 1.993 . S
N256 N255 1.388 . S
N256 C257 1.346 . S
C257 N256 1.346 . S
C257 C258 1.396 . S
C257 C267 1.510 . S
C258 C254 1.401 . S
C258 C257 1.396 . S
C259 C254 1.499 . S
C259 H260 0.959 . S
C259 H261 0.960 . S
C259 H262 0.961 . S
H260 C259 0.959 . S
H261 C259 0.960 . S
H262 C259 0.961 . S
O263 Co238 1.967 . S
O263 C271 1.258 . S
O264 Co239 1.941 . S
O264 C271 1.266 . S
H265 C267 0.959 . S
H266 C267 0.961 . S
C267 C257 1.510 . S
C267 H265 0.959 . S
C267 H266 0.961 . S
C267 H268 0.960 . S
H268 C267 0.960 . S
H269 N249 0.862 . S
O270 Co238 1.920 . S
O270 C243 1.289 . S
C271 O263 1.258 . S
C271 O264 1.266 . S
Co272 O275 1.970 . S
Co272 N289 1.989 . S
Co272 O297 1.967 1_565 S
Co272 O304 1.930 . S
Co273 O276 1.966 . S
Co273 N282 2.022 . S
Co273 N290 1.993 . S
Co273 O298 1.941 . S
C274 O275 1.258 . S
C274 O276 1.263 . S
O275 Co272 1.970 . S
O275 C274 1.258 . S
O276 Co273 1.966 . S
O276 C274 1.263 . S
C277 O278 1.235 . S
C277 O304 1.298 . S
O278 C277 1.235 . S
C279 C281 1.400 . S
C279 N282 1.351 . S
C279 C284 1.501 . S
C280 C281 1.387 . S
C280 N283 1.341 . S
C281 C279 1.400 . S
C281 C280 1.387 . S
N282 Co273 2.022 . S
N282 C279 1.351 . S
N282 N283 1.365 . S
N283 C280 1.341 . S
N283 N282 1.365 . S
N283 H303 0.862 . S
C284 C279 1.501 . S
C284 H285 0.961 . S
C284 H286 0.961 . S
C284 H287 0.960 . S
H285 C284 0.961 . S
H286 C284 0.961 . S
H287 C284 0.960 . S
C288 N289 1.342 . S
C288 C292 1.401 . S
C288 C293 1.499 . S
N289 Co272 1.989 . S
N289 C288 1.342 . S
N289 N290 1.388 . S
N290 Co273 1.993 . S
N290 N289 1.388 . S
N290 C291 1.346 . S
C291 N290 1.346 . S
C291 C292 1.396 . S
C291 C301 1.510 . S
C292 C288 1.401 . S
C292 C291 1.396 . S
C293 C288 1.499 . S
C293 H294 0.957 1_565 S
C293 H295 0.960 . S
C293 H296 0.961 1_565 S
H294 C293 0.957 1_545 S
H295 C293 0.960 . S
H296 C293 0.961 1_545 S
O297 Co272 1.967 1_545 S
O297 C305 1.258 . S
O298 Co273 1.941 . S
O298 C305 1.266 1_565 S
H299 C301 0.959 . S
H300 C301 0.961 . S
C301 C291 1.510 . S
C301 H299 0.959 . S
C301 H300 0.961 . S
C301 H302 0.960 . S
H302 C301 0.960 . S
H303 N283 0.862 . S
O304 Co272 1.930 . S
O304 C277 1.298 . S
C305 O297 1.258 . S
C305 O298 1.266 1_545 S
Co306 O309 1.970 . S
Co306 N323 1.989 . S
Co306 O331 1.967 1_655 S
Co306 O338 1.930 . S
Co307 O310 1.966 . S
Co307 N316 2.022 . S
Co307 N324 1.993 . S
Co307 O332 1.941 . S
C308 O309 1.258 . S
C308 O310 1.263 . S
O309 Co306 1.970 . S
O309 C308 1.258 . S
O310 Co307 1.966 . S
O310 C308 1.263 . S
C311 O312 1.235 . S
C311 O338 1.298 . S
O312 C311 1.235 . S
C313 C315 1.400 . S
C313 N316 1.351 . S
C313 C318 1.501 . S
C314 C315 1.387 . S
C314 N317 1.341 . S
C315 C313 1.400 . S
C315 C314 1.387 . S
N316 Co307 2.022 . S
N316 C313 1.351 . S
N316 N317 1.365 . S
N317 C314 1.341 . S
N317 N316 1.365 . S
N317 H337 0.862 . S
C318 C313 1.501 . S
C318 H319 0.961 . S
C318 H320 0.961 . S
C318 H321 0.960 . S
H319 C318 0.961 . S
H320 C318 0.961 . S
H321 C318 0.960 . S
C322 N323 1.342 . S
C322 C326 1.401 . S
C322 C327 1.499 . S
N323 Co306 1.989 . S
N323 C322 1.342 . S
N323 N324 1.388 . S
N324 Co307 1.993 . S
N324 N323 1.388 . S
N324 C325 1.346 . S
C325 N324 1.346 . S
C325 C326 1.396 . S
C325 C335 1.510 . S
C326 C322 1.401 . S
C326 C325 1.396 . S
C327 C322 1.499 . S
C327 H328 0.957 1_655 S
C327 H329 0.960 . S
C327 H330 0.961 1_655 S
H328 C327 0.957 1_455 S
H329 C327 0.960 . S
H330 C327 0.961 1_455 S
O331 Co306 1.967 1_455 S
O331 C339 1.258 . S
O332 Co307 1.941 . S
O332 C339 1.266 1_655 S
H333 C335 0.959 . S
H334 C335 0.961 . S
C335 C325 1.510 . S
C335 H333 0.959 . S
C335 H334 0.961 . S
C335 H336 0.960 . S
H336 C335 0.960 . S
H337 N317 0.862 . S
O338 Co306 1.930 . S
O338 C311 1.298 . S
C339 O331 1.258 . S
C339 O332 1.266 1_455 S
Co340 O343 1.970 . S
Co340 N357 1.989 . S
Co340 O365 1.967 1_545 S
Co340 O372 1.930 . S
Co341 O344 1.966 . S
Co341 N350 2.022 . S
Co341 N358 1.993 . S
Co341 O366 1.941 . S
C342 O343 1.258 . S
C342 O344 1.263 . S
O343 Co340 1.970 . S
O343 C342 1.258 . S
O344 Co341 1.966 . S
O344 C342 1.263 . S
C345 O346 1.235 . S
C345 O372 1.298 . S
O346 C345 1.235 . S
C347 C349 1.400 . S
C347 N350 1.351 . S
C347 C352 1.501 . S
C348 C349 1.387 . S
C348 N351 1.341 . S
C349 C347 1.400 . S
C349 C348 1.387 . S
N350 Co341 2.022 . S
N350 C347 1.351 . S
N350 N351 1.365 . S
N351 C348 1.341 . S
N351 N350 1.365 . S
N351 H371 0.862 . S
C352 C347 1.501 . S
C352 H353 0.961 . S
C352 H354 0.961 . S
C352 H355 0.960 . S
H353 C352 0.961 . S
H354 C352 0.961 . S
H355 C352 0.960 . S
C356 N357 1.342 . S
C356 C360 1.401 . S
C356 C361 1.499 . S
N357 Co340 1.989 . S
N357 C356 1.342 . S
N357 N358 1.388 . S
N358 Co341 1.993 . S
N358 N357 1.388 . S
N358 C359 1.346 . S
C359 N358 1.346 . S
C359 C360 1.396 . S
C359 C369 1.510 . S
C360 C356 1.401 . S
C360 C359 1.396 . S
C361 C356 1.499 . S
C361 H362 0.957 1_545 S
C361 H363 0.960 . S
C361 H364 0.961 1_545 S
H362 C361 0.957 1_565 S
H363 C361 0.960 . S
H364 C361 0.961 1_565 S
O365 Co340 1.967 1_565 S
O365 C373 1.258 . S
O366 Co341 1.941 . S
O366 C373 1.266 1_545 S
H367 C369 0.959 . S
H368 C369 0.961 . S
C369 C359 1.510 . S
C369 H367 0.959 . S
C369 H368 0.961 . S
C369 H370 0.960 . S
H370 C369 0.960 . S
H371 N351 0.862 . S
O372 Co340 1.930 . S
O372 C345 1.298 . S
C373 O365 1.258 . S
C373 O366 1.266 1_565 S
Co374 O377 1.970 . S
Co374 N391 1.989 . S
Co374 O399 1.967 1_455 S
Co374 O406 1.930 . S
Co375 O378 1.966 . S
Co375 N384 2.022 . S
Co375 N392 1.993 . S
Co375 O400 1.941 . S
C376 O377 1.258 . S
C376 O378 1.263 . S
O377 Co374 1.970 . S
O377 C376 1.258 . S
O378 Co375 1.966 . S
O378 C376 1.263 . S
C379 O380 1.235 . S
C379 O406 1.298 . S
O380 C379 1.235 . S
C381 C383 1.400 . S
C381 N384 1.351 . S
C381 C386 1.501 . S
C382 C383 1.387 . S
C382 N385 1.341 . S
C383 C381 1.400 . S
C383 C382 1.387 . S
N384 Co375 2.022 . S
N384 C381 1.351 . S
N384 N385 1.365 . S
N385 C382 1.341 . S
N385 N384 1.365 . S
N385 H405 0.862 . S
C386 C381 1.501 . S
C386 H387 0.961 . S
C386 H388 0.961 . S
C386 H389 0.960 . S
H387 C386 0.961 . S
H388 C386 0.961 . S
H389 C386 0.960 . S
C390 N391 1.342 . S
C390 C394 1.401 . S
C390 C395 1.499 . S
N391 Co374 1.989 . S
N391 C390 1.342 . S
N391 N392 1.388 . S
N392 Co375 1.993 . S
N392 N391 1.388 . S
N392 C393 1.346 . S
C393 N392 1.346 . S
C393 C394 1.396 . S
C393 C403 1.510 . S
C394 C390 1.401 . S
C394 C393 1.396 . S
C395 C390 1.499 . S
C395 H396 0.957 1_455 S
C395 H397 0.960 . S
C395 H398 0.961 1_455 S
H396 C395 0.957 1_655 S
H397 C395 0.960 . S
H398 C395 0.961 1_655 S
O399 Co374 1.967 1_655 S
O399 C407 1.258 . S
O400 Co375 1.941 . S
O400 C407 1.266 1_455 S
H401 C403 0.959 . S
H402 C403 0.961 . S
C403 C393 1.510 . S
C403 H401 0.959 . S
C403 H402 0.961 . S
C403 H404 0.960 . S
H404 C403 0.960 . S
H405 N385 0.862 . S
O406 Co374 1.930 . S
O406 C379 1.298 . S
C407 O399 1.258 . S
C407 O400 1.266 1_655 S
Co408 O411 1.970 . S
Co408 N425 1.989 . S
Co408 O433 1.967 1_545 S
Co408 O440 1.930 . S
Co409 O412 1.966 . S
Co409 N418 2.022 . S
Co409 N426 1.993 . S
Co409 O434 1.941 . S
C410 O411 1.258 . S
C410 O412 1.263 . S
O411 Co408 1.970 . S
O411 C410 1.258 . S
O412 Co409 1.966 . S
O412 C410 1.263 . S
C413 O414 1.235 . S
C413 O440 1.298 . S
O414 C413 1.235 . S
C415 C417 1.400 . S
C415 N418 1.351 . S
C415 C420 1.501 . S
C416 C417 1.387 . S
C416 N419 1.341 . S
C417 C415 1.400 . S
C417 C416 1.387 . S
N418 Co409 2.022 . S
N418 C415 1.351 . S
N418 N419 1.365 . S
N419 C416 1.341 . S
N419 N418 1.365 . S
N419 H439 0.862 . S
C420 C415 1.501 . S
C420 H421 0.961 . S
C420 H422 0.961 . S
C420 H423 0.960 . S
H421 C420 0.961 . S
H422 C420 0.961 . S
H423 C420 0.960 . S
C424 N425 1.342 . S
C424 C428 1.401 . S
C424 C429 1.499 . S
N425 Co408 1.989 . S
N425 C424 1.342 . S
N425 N426 1.388 . S
N426 Co409 1.993 . S
N426 N425 1.388 . S
N426 C427 1.346 . S
C427 N426 1.346 . S
C427 C428 1.396 . S
C427 C437 1.510 . S
C428 C424 1.401 . S
C428 C427 1.396 . S
C429 C424 1.499 . S
C429 H430 0.957 1_545 S
C429 H431 0.960 . S
C429 H432 0.961 1_545 S
H430 C429 0.957 1_565 S
H431 C429 0.960 . S
H432 C429 0.961 1_565 S
O433 Co408 1.967 1_565 S
O433 C441 1.258 . S
O434 Co409 1.941 . S
O434 C441 1.266 1_545 S
H435 C437 0.959 . S
H436 C437 0.961 . S
C437 C427 1.510 . S
C437 H435 0.959 . S
C437 H436 0.961 . S
C437 H438 0.960 . S
H438 C437 0.960 . S
H439 N419 0.862 . S
O440 Co408 1.930 . S
O440 C413 1.298 . S
C441 O433 1.258 . S
C441 O434 1.266 1_565 S
Co442 O445 1.970 . S
Co442 N459 1.989 . S
Co442 O467 1.967 1_455 S
Co442 O474 1.930 . S
Co443 O446 1.966 . S
Co443 N452 2.022 . S
Co443 N460 1.993 . S
Co443 O468 1.941 . S
C444 O445 1.258 . S
C444 O446 1.263 . S
O445 Co442 1.970 . S
O445 C444 1.258 . S
O446 Co443 1.966 . S
O446 C444 1.263 . S
C447 O448 1.235 . S
C447 O474 1.298 . S
O448 C447 1.235 . S
C449 C451 1.400 . S
C449 N452 1.351 . S
C449 C454 1.501 . S
C450 C451 1.387 . S
C450 N453 1.341 . S
C451 C449 1.400 . S
C451 C450 1.387 . S
N452 Co443 2.022 . S
N452 C449 1.351 . S
N452 N453 1.365 . S
N453 C450 1.341 . S
N453 N452 1.365 . S
N453 H473 0.862 . S
C454 C449 1.501 . S
C454 H455 0.961 . S
C454 H456 0.961 . S
C454 H457 0.960 . S
H455 C454 0.961 . S
H456 C454 0.961 . S
H457 C454 0.960 . S
C458 N459 1.342 . S
C458 C462 1.401 . S
C458 C463 1.499 . S
N459 Co442 1.989 . S
N459 C458 1.342 . S
N459 N460 1.388 . S
N460 Co443 1.993 . S
N460 N459 1.388 . S
N460 C461 1.346 . S
C461 N460 1.346 . S
C461 C462 1.396 . S
C461 C471 1.510 . S
C462 C458 1.401 . S
C462 C461 1.396 . S
C463 C458 1.499 . S
C463 H464 0.957 1_455 S
C463 H465 0.960 . S
C463 H466 0.961 1_455 S
H464 C463 0.957 1_655 S
H465 C463 0.960 . S
H466 C463 0.961 1_655 S
O467 Co442 1.967 1_655 S
O467 C475 1.258 . S
O468 Co443 1.941 . S
O468 C475 1.266 1_455 S
H469 C471 0.959 . S
H470 C471 0.961 . S
C471 C461 1.510 . S
C471 H469 0.959 . S
C471 H470 0.961 . S
C471 H472 0.960 . S
H472 C471 0.960 . S
H473 N453 0.862 . S
O474 Co442 1.930 . S
O474 C447 1.298 . S
C475 O467 1.258 . S
C475 O468 1.266 1_655 S
Co476 O479 1.970 . S
Co476 N493 1.989 . S
Co476 O501 1.967 1_565 S
Co476 O508 1.930 . S
Co477 O480 1.966 . S
Co477 N486 2.022 . S
Co477 N494 1.993 . S
Co477 O502 1.941 . S
C478 O479 1.258 . S
C478 O480 1.263 . S
O479 Co476 1.970 . S
O479 C478 1.258 . S
O480 Co477 1.966 . S
O480 C478 1.263 . S
C481 O482 1.235 . S
C481 O508 1.298 . S
O482 C481 1.235 . S
C483 C485 1.400 . S
C483 N486 1.351 . S
C483 C488 1.501 . S
C484 C485 1.387 . S
C484 N487 1.341 . S
C485 C483 1.400 . S
C485 C484 1.387 . S
N486 Co477 2.022 . S
N486 C483 1.351 . S
N486 N487 1.365 . S
N487 C484 1.341 . S
N487 N486 1.365 . S
N487 H507 0.862 . S
C488 C483 1.501 . S
C488 H489 0.961 . S
C488 H490 0.961 . S
C488 H491 0.960 . S
H489 C488 0.961 . S
H490 C488 0.961 . S
H491 C488 0.960 . S
C492 N493 1.342 . S
C492 C496 1.401 . S
C492 C497 1.499 . S
N493 Co476 1.989 . S
N493 C492 1.342 . S
N493 N494 1.388 . S
N494 Co477 1.993 . S
N494 N493 1.388 . S
N494 C495 1.346 . S
C495 N494 1.346 . S
C495 C496 1.396 . S
C495 C505 1.510 . S
C496 C492 1.401 . S
C496 C495 1.396 . S
C497 C492 1.499 . S
C497 H498 0.957 1_565 S
C497 H499 0.960 . S
C497 H500 0.961 1_565 S
H498 C497 0.957 1_545 S
H499 C497 0.960 . S
H500 C497 0.961 1_545 S
O501 Co476 1.967 1_545 S
O501 C509 1.258 . S
O502 Co477 1.941 . S
O502 C509 1.266 1_565 S
H503 C505 0.959 . S
H504 C505 0.961 . S
C505 C495 1.510 . S
C505 H503 0.959 . S
C505 H504 0.961 . S
C505 H506 0.960 . S
H506 C505 0.960 . S
H507 N487 0.862 . S
O508 Co476 1.930 . S
O508 C481 1.298 . S
C509 O501 1.258 . S
C509 O502 1.266 1_545 S
Co510 O513 1.970 . S
Co510 N527 1.989 . S
Co510 O535 1.967 1_655 S
Co510 O542 1.930 . S
Co511 O514 1.966 . S
Co511 N520 2.022 . S
Co511 N528 1.993 . S
Co511 O536 1.941 . S
C512 O513 1.258 . S
C512 O514 1.263 . S
O513 Co510 1.970 . S
O513 C512 1.258 . S
O514 Co511 1.966 . S
O514 C512 1.263 . S
C515 O516 1.235 . S
C515 O542 1.298 . S
O516 C515 1.235 . S
C517 C519 1.400 . S
C517 N520 1.351 . S
C517 C522 1.501 . S
C518 C519 1.387 . S
C518 N521 1.341 . S
C519 C517 1.400 . S
C519 C518 1.387 . S
N520 Co511 2.022 . S
N520 C517 1.351 . S
N520 N521 1.365 . S
N521 C518 1.341 . S
N521 N520 1.365 . S
N521 H541 0.862 . S
C522 C517 1.501 . S
C522 H523 0.961 . S
C522 H524 0.961 . S
C522 H525 0.960 . S
H523 C522 0.961 . S
H524 C522 0.961 . S
H525 C522 0.960 . S
C526 N527 1.342 . S
C526 C530 1.401 . S
C526 C531 1.499 . S
N527 Co510 1.989 . S
N527 C526 1.342 . S
N527 N528 1.388 . S
N528 Co511 1.993 . S
N528 N527 1.388 . S
N528 C529 1.346 . S
C529 N528 1.346 . S
C529 C530 1.396 . S
C529 C539 1.510 . S
C530 C526 1.401 . S
C530 C529 1.396 . S
C531 C526 1.499 . S
C531 H532 0.957 1_655 S
C531 H533 0.960 . S
C531 H534 0.961 1_655 S
H532 C531 0.957 1_455 S
H533 C531 0.960 . S
H534 C531 0.961 1_455 S
O535 Co510 1.967 1_455 S
O535 C543 1.258 . S
O536 Co511 1.941 . S
O536 C543 1.266 1_655 S
H537 C539 0.959 . S
H538 C539 0.961 . S
C539 C529 1.510 . S
C539 H537 0.959 . S
C539 H538 0.961 . S
C539 H540 0.960 . S
H540 C539 0.960 . S
H541 N521 0.862 . S
O542 Co510 1.930 . S
O542 C515 1.298 . S
C543 O535 1.258 . S
C543 O536 1.266 1_455 S
C544 C545 1.391 . S
C544 C546 1.394 . S
C544 H560 0.931 . S
C545 C544 1.391 . S
C545 C549 1.376 . S
C546 C544 1.394 . S
C546 C547 1.369 . S
C546 C550 1.531 . S
C547 C546 1.369 . S
C547 C548 1.410 . S
C547 C555 1.503 1_655 S
C548 C547 1.410 . S
C548 C549 1.392 . S
C548 C551 1.511 . S
C549 C545 1.376 . S
C549 C548 1.392 . S
C549 H561 0.929 . S
C550 C546 1.531 . S
C550 H562 0.960 1_655 S
C550 H563 0.962 . S
C550 H564 0.960 . S
C551 C548 1.511 . S
C551 H565 0.961 . S
C551 H566 0.961 1_655 S
C551 H567 0.961 . S
C552 C553 1.370 . S
C552 C554 1.363 . S
C552 H568 0.931 . S
C553 C552 1.370 . S
C553 C557 1.408 . S
C554 C552 1.363 . S
C554 C555 1.370 . S
C554 C558 1.524 . S
C555 C547 1.503 1_455 S
C555 C554 1.370 . S
C555 C556 1.403 . S
C556 C555 1.403 . S
C556 C557 1.404 . S
C556 C559 1.539 . S
C557 C553 1.408 . S
C557 C556 1.404 . S
C557 H569 0.930 . S
C558 C554 1.524 . S
C558 H570 0.956 1_455 S
C558 H571 0.961 1_455 S
C558 H572 0.961 . S
C559 C556 1.539 . S
C559 H573 0.958 . S
C559 H574 0.961 . S
C559 H575 0.960 . S
H560 C544 0.931 . S
H561 C549 0.929 . S
H562 C550 0.960 1_455 S
H563 C550 0.962 . S
H564 C550 0.960 . S
H565 C551 0.961 . S
H566 C551 0.961 1_455 S
H567 C551 0.961 . S
H568 C552 0.931 . S
H569 C557 0.930 . S
H570 C558 0.956 1_655 S
H571 C558 0.961 1_655 S
H572 C558 0.961 . S
H573 C559 0.958 . S
H574 C559 0.961 . S
H575 C559 0.960 . S
C576 C577 1.391 . S
C576 C578 1.394 . S
C576 H592 0.931 . S
C577 C576 1.391 . S
C577 C581 1.376 . S
C578 C576 1.394 . S
C578 C579 1.369 . S
C578 C582 1.531 . S
C579 C578 1.369 . S
C579 C580 1.410 . S
C579 C587 1.503 1_545 S
C580 C579 1.410 . S
C580 C581 1.392 . S
C580 C583 1.511 . S
C581 C577 1.376 . S
C581 C580 1.392 . S
C581 H593 0.929 . S
C582 C578 1.531 . S
C582 H594 0.960 1_545 S
C582 H595 0.962 . S
C582 H596 0.960 . S
C583 C580 1.511 . S
C583 H597 0.961 . S
C583 H598 0.961 1_545 S
C583 H599 0.961 . S
C584 C585 1.370 . S
C584 C586 1.363 . S
C584 H600 0.931 . S
C585 C584 1.370 . S
C585 C589 1.408 . S
C586 C584 1.363 . S
C586 C587 1.370 . S
C586 C590 1.524 . S
C587 C579 1.503 1_565 S
C587 C586 1.370 . S
C587 C588 1.403 . S
C588 C587 1.403 . S
C588 C589 1.404 . S
C588 C591 1.539 . S
C589 C585 1.408 . S
C589 C588 1.404 . S
C589 H601 0.930 . S
C590 C586 1.524 . S
C590 H602 0.956 . S
C590 H603 0.978 . S
C590 H604 0.961 . S
C591 C588 1.539 . S
C591 H605 0.958 . S
C591 H606 0.961 . S
C591 H607 0.960 1_565 S
H592 C576 0.931 . S
H593 C581 0.929 . S
H594 C582 0.960 1_565 S
H595 C582 0.962 . S
H596 C582 0.960 . S
H597 C583 0.961 . S
H598 C583 0.961 1_565 S
H599 C583 0.961 . S
H600 C584 0.931 . S
H601 C589 0.930 . S
H602 C590 0.956 . S
H603 C590 0.978 . S
H604 C590 0.961 . S
H605 C591 0.958 . S
H606 C591 0.961 . S
H607 C591 0.960 1_545 S
C608 C609 1.391 . S
C608 C610 1.394 . S
C608 H624 0.931 . S
C609 C608 1.391 . S
C609 C613 1.376 . S
C610 C608 1.394 . S
C610 C611 1.369 . S
C610 C614 1.531 . S
C611 C610 1.369 . S
C611 C612 1.410 . S
C611 C619 1.503 1_655 S
C612 C611 1.410 . S
C612 C613 1.392 . S
C612 C615 1.511 . S
C613 C609 1.376 . S
C613 C612 1.392 . S
C613 H625 0.929 . S
C614 C610 1.531 . S
C614 H626 0.960 1_655 S
C614 H627 0.962 . S
C614 H628 0.960 . S
C615 C612 1.511 . S
C615 H629 0.961 . S
C615 H630 0.961 1_655 S
C615 H631 0.961 . S
C616 C617 1.370 . S
C616 C618 1.363 . S
C616 H632 0.931 . S
C617 C616 1.370 . S
C617 C621 1.408 . S
C618 C616 1.363 . S
C618 C619 1.370 . S
C618 C622 1.524 . S
C619 C611 1.503 1_455 S
C619 C618 1.370 . S
C619 C620 1.403 . S
C620 C619 1.403 . S
C620 C621 1.404 . S
C620 C623 1.539 . S
C621 C617 1.408 . S
C621 C620 1.404 . S
C621 H633 0.930 . S
C622 C618 1.524 . S
C622 H634 0.956 1_455 S
C622 H635 0.961 1_455 S
C622 H636 0.961 . S
C623 C620 1.539 . S
C623 H637 0.958 . S
C623 H638 0.961 . S
C623 H639 0.960 . S
H624 C608 0.931 . S
H625 C613 0.929 . S
H626 C614 0.960 1_455 S
H627 C614 0.962 . S
H628 C614 0.960 . S
H629 C615 0.961 . S
H630 C615 0.961 1_455 S
H631 C615 0.961 . S
H632 C616 0.931 . S
H633 C621 0.930 . S
H634 C622 0.956 1_655 S
H635 C622 0.961 1_655 S
H636 C622 0.961 . S
H637 C623 0.958 . S
H638 C623 0.961 . S
H639 C623 0.960 . S
C640 C641 1.391 . S
C640 C642 1.394 . S
C640 H656 0.931 . S
C641 C640 1.391 . S
C641 C645 1.376 . S
C642 C640 1.394 . S
C642 C643 1.369 . S
C642 C646 1.531 . S
C643 C642 1.369 . S
C643 C644 1.410 . S
C643 C651 1.503 1_565 S
C644 C643 1.410 . S
C644 C645 1.392 . S
C644 C647 1.511 . S
C645 C641 1.376 . S
C645 C644 1.392 . S
C645 H657 0.929 . S
C646 C642 1.531 . S
C646 H658 0.942 1_565 S
C646 H659 0.962 . S
C646 H660 0.960 . S
C647 C644 1.511 . S
C647 H661 0.961 . S
C647 H662 0.961 1_565 S
C647 H663 0.961 . S
C648 C649 1.370 . S
C648 C650 1.363 . S
C648 H664 0.931 . S
C649 C648 1.370 . S
C649 C653 1.408 . S
C650 C648 1.363 . S
C650 C651 1.370 . S
C650 C654 1.524 . S
C651 C643 1.503 1_545 S
C651 C650 1.370 . S
C651 C652 1.403 . S
C652 C651 1.403 . S
C652 C653 1.404 . S
C652 C655 1.539 . S
C653 C649 1.408 . S
C653 C652 1.404 . S
C653 H665 0.930 . S
C654 C650 1.524 . S
C654 H666 0.956 1_545 S
C654 H667 0.961 1_545 S
C654 H668 0.961 . S
C655 C652 1.539 . S
C655 H669 0.958 . S
C655 H670 0.961 . S
C655 H671 0.960 . S
H656 C640 0.931 . S
H657 C645 0.929 . S
H658 C646 0.942 1_545 S
H659 C646 0.962 . S
H660 C646 0.960 . S
H661 C647 0.961 . S
H662 C647 0.961 1_545 S
H663 C647 0.961 . S
H664 C648 0.931 . S
H665 C653 0.930 . S
H666 C654 0.956 1_565 S
H667 C654 0.961 1_565 S
H668 C654 0.961 . S
H669 C655 0.958 . S
H670 C655 0.961 . S
H671 C655 0.960 . S
C672 C673 1.391 1_545 S
C672 C674 1.394 . S
C672 H688 0.931 . S
C673 C672 1.391 1_565 S
C673 C677 1.376 . S
C674 C672 1.394 . S
C674 C675 1.369 . S
C674 C678 1.531 . S
C675 C674 1.369 . S
C675 C676 1.410 . S
C675 C683 1.503 . S
C676 C675 1.410 . S
C676 C677 1.392 1_545 S
C676 C679 1.511 . S
C677 C673 1.376 . S
C677 C676 1.392 1_565 S
C677 H689 0.929 . S
C678 C674 1.531 . S
C678 H690 0.960 . S
C678 H691 0.962 1_545 S
C678 H692 0.960 . S
C679 C676 1.511 . S
C679 H693 0.961 1_545 S
C679 H694 0.961 1_545 S
C679 H695 0.961 . S
C680 C681 1.370 1_565 S
C680 C682 1.363 . S
C680 H696 0.931 . S
C681 C680 1.370 1_545 S
C681 C685 1.408 . S
C682 C680 1.363 . S
C682 C683 1.370 1_565 S
C682 C686 1.524 . S
C683 C675 1.503 . S
C683 C682 1.370 1_545 S
C683 C684 1.403 . S
C684 C683 1.403 . S
C684 C685 1.404 . S
C684 C687 1.539 . S
C685 C681 1.408 . S
C685 C684 1.404 . S
C685 H697 0.930 . S
C686 C682 1.524 . S
C686 H698 0.956 . S
C686 H699 0.961 . S
C686 H700 0.961 . S
C687 C684 1.539 . S
C687 H701 0.958 . S
C687 H702 0.961 . S
C687 H703 0.960 . S
H688 C672 0.931 . S
H689 C677 0.929 . S
H690 C678 0.960 . S
H691 C678 0.962 1_565 S
H692 C678 0.960 . S
H693 C679 0.961 1_565 S
H694 C679 0.961 1_565 S
H695 C679 0.961 . S
H696 C680 0.931 . S
H697 C685 0.930 . S
H698 C686 0.956 . S
H699 C686 0.961 . S
H700 C686 0.961 . S
H701 C687 0.958 . S
H702 C687 0.961 . S
H703 C687 0.960 . S
C704 C705 1.391 . S
C704 C706 1.394 . S
C704 H720 0.931 . S
C705 C704 1.391 . S
C705 C709 1.376 . S
C706 C704 1.394 . S
C706 C707 1.369 . S
C706 C710 1.531 . S
C707 C706 1.369 . S
C707 C708 1.410 . S
C707 C715 1.503 . S
C708 C707 1.410 . S
C708 C709 1.392 . S
C708 C711 1.511 1_655 S
C709 C705 1.376 . S
C709 C708 1.392 . S
C709 H721 0.929 . S
C710 C706 1.531 . S
C710 H722 0.960 . S
C710 H723 0.975 . S
C710 H724 0.960 . S
C711 C708 1.511 1_455 S
C711 H725 0.961 . S
C711 H726 0.961 . S
C711 H727 0.961 1_455 S
C712 C713 1.370 . S
C712 C714 1.363 . S
C712 H728 0.931 . S
C713 C712 1.370 . S
C713 C717 1.408 1_455 S
C714 C712 1.363 . S
C714 C715 1.370 1_455 S
C714 C718 1.524 . S
C715 C707 1.503 . S
C715 C714 1.370 1_655 S
C715 C716 1.403 . S
C716 C715 1.403 . S
C716 C717 1.404 . S
C716 C719 1.539 . S
C717 C713 1.408 1_655 S
C717 C716 1.404 . S
C717 H729 0.930 . S
C718 C714 1.524 . S
C718 H730 0.956 . S
C718 H731 0.961 . S
C718 H732 0.961 . S
C719 C716 1.539 . S
C719 H733 0.958 . S
C719 H734 0.961 . S
C719 H735 0.960 . S
H720 C704 0.931 . S
H721 C709 0.929 . S
H722 C710 0.960 . S
H723 C710 0.975 . S
H724 C710 0.960 . S
H725 C711 0.961 . S
H726 C711 0.961 . S
H727 C711 0.961 1_655 S
H728 C712 0.931 . S
H729 C717 0.930 . S
H730 C718 0.956 . S
H731 C718 0.961 . S
H732 C718 0.961 . S
H733 C719 0.958 . S
H734 C719 0.961 . S
H735 C719 0.960 . S
C736 C737 1.391 1_545 S
C736 C738 1.394 . S
C736 H752 0.931 . S
C737 C736 1.391 1_565 S
C737 C741 1.376 . S
C738 C736 1.394 . S
C738 C739 1.369 1_545 S
C738 C742 1.531 . S
C739 C738 1.369 1_565 S
C739 C740 1.410 . S
C739 C747 1.503 . S
C740 C739 1.410 . S
C740 C741 1.392 . S
C740 C743 1.511 . S
C741 C737 1.376 . S
C741 C740 1.392 . S
C741 H753 0.929 . S
C742 C738 1.531 . S
C742 H754 0.960 . S
C742 H755 0.962 . S
C742 H756 0.960 . S
C743 C740 1.511 . S
C743 H757 0.961 . S
C743 H758 0.961 . S
C743 H759 0.961 . S
C744 C745 1.370 . S
C744 C746 1.363 . S
C744 H760 0.931 . S
C745 C744 1.370 . S
C745 C749 1.408 1_545 S
C746 C744 1.363 . S
C746 C747 1.370 1_545 S
C746 C750 1.524 . S
C747 C739 1.503 . S
C747 C746 1.370 1_565 S
C747 C748 1.403 . S
C748 C747 1.403 . S
C748 C749 1.404 . S
C748 C751 1.539 . S
C749 C745 1.408 1_565 S
C749 C748 1.404 . S
C749 H761 0.930 . S
C750 C746 1.524 . S
C750 H762 0.956 . S
C750 H763 0.961 . S
C750 H764 0.961 . S
C751 C748 1.539 . S
C751 H765 0.958 . S
C751 H766 0.961 . S
C751 H767 0.960 . S
H752 C736 0.931 . S
H753 C741 0.929 . S
H754 C742 0.960 . S
H755 C742 0.962 . S
H756 C742 0.960 . S
H757 C743 0.961 . S
H758 C743 0.961 . S
H759 C743 0.961 . S
H760 C744 0.931 . S
H761 C749 0.930 . S
H762 C750 0.956 . S
H763 C750 0.961 . S
H764 C750 0.961 . S
H765 C751 0.958 . S
H766 C751 0.961 . S
H767 C751 0.960 . S
C768 C769 1.391 1_455 S
C768 C770 1.394 . S
C768 H784 0.931 . S
C769 C768 1.391 1_655 S
C769 C773 1.376 . S
C770 C768 1.394 . S
C770 C771 1.369 1_455 S
C770 C774 1.531 . S
C771 C770 1.369 1_655 S
C771 C772 1.410 . S
C771 C779 1.503 . S
C772 C771 1.410 . S
C772 C773 1.392 . S
C772 C775 1.511 . S
C773 C769 1.376 . S
C773 C772 1.392 . S
C773 H785 0.929 . S
C774 C770 1.531 . S
C774 H786 0.960 . S
C774 H787 0.962 . S
C774 H788 0.960 . S
C775 C772 1.511 . S
C775 H789 0.961 . S
C775 H790 0.961 . S
C775 H791 0.961 . S
C776 C777 1.370 . S
C776 C778 1.363 . S
C776 H792 0.931 . S
C777 C776 1.370 . S
C777 C781 1.408 1_455 S
C778 C776 1.363 . S
C778 C779 1.370 1_455 S
C778 C782 1.524 . S
C779 C771 1.503 . S
C779 C778 1.370 1_655 S
C779 C780 1.403 . S
C780 C779 1.403 . S
C780 C781 1.404 . S
C780 C783 1.539 . S
C781 C777 1.408 1_655 S
C781 C780 1.404 . S
C781 H793 0.930 . S
C782 C778 1.524 . S
C782 H794 0.956 . S
C782 H795 0.961 . S
C782 H796 0.961 . S
C783 C780 1.539 . S
C783 H797 0.958 . S
C783 H798 0.961 . S
C783 H799 0.960 . S
H784 C768 0.931 . S
H785 C773 0.929 . S
H786 C774 0.960 . S
H787 C774 0.962 . S
H788 C774 0.960 . S
H789 C775 0.961 . S
H790 C775 0.961 . S
H791 C775 0.961 . S
H792 C776 0.931 . S
H793 C781 0.930 . S
H794 C782 0.956 . S
H795 C782 0.961 . S
H796 C782 0.961 . S
H797 C783 0.958 . S
H798 C783 0.961 . S
H799 C783 0.960 . S
C800 C801 1.391 . S
C800 C802 1.394 . S
C800 H816 0.931 . S
C801 C800 1.391 . S
C801 C805 1.376 . S
C802 C800 1.394 . S
C802 C803 1.369 . S
C802 C806 1.531 . S
C803 C802 1.369 . S
C803 C804 1.410 . S
C803 C811 1.503 . S
C804 C803 1.410 . S
C804 C805 1.392 . S
C804 C807 1.511 . S
C805 C801 1.376 . S
C805 C804 1.392 . S
C805 H817 0.929 . S
C806 C802 1.531 . S
C806 H818 0.960 . S
C806 H819 0.962 . S
C806 H820 0.960 . S
C807 C804 1.511 . S
C807 H821 0.961 . S
C807 H822 0.961 . S
C807 H823 0.961 . S
C808 C809 1.370 . S
C808 C810 1.363 . S
C808 H824 0.931 . S
C809 C808 1.370 . S
C809 C813 1.408 . S
C810 C808 1.363 . S
C810 C811 1.370 . S
C810 C814 1.524 . S
C811 C803 1.503 . S
C811 C810 1.370 . S
C811 C812 1.403 . S
C812 C811 1.403 . S
C812 C813 1.404 . S
C812 C815 1.539 . S
C813 C809 1.408 . S
C813 C812 1.404 . S
C813 H825 0.930 . S
C814 C810 1.524 . S
C814 H826 0.956 . S
C814 H827 0.961 . S
C814 H828 0.961 . S
C815 C812 1.539 . S
C815 H829 0.958 . S
C815 H830 0.961 . S
C815 H831 0.960 . S
H816 C800 0.931 . S
H817 C805 0.929 . S
H818 C806 0.960 . S
H819 C806 0.962 . S
H820 C806 0.960 . S
H821 C807 0.961 . S
H822 C807 0.961 . S
H823 C807 0.961 . S
H824 C808 0.931 . S
H825 C813 0.930 . S
H826 C814 0.956 . S
H827 C814 0.961 . S
H828 C814 0.961 . S
H829 C815 0.958 . S
H830 C815 0.961 . S
H831 C815 0.960 . S
C832 C833 1.391 . S
C832 C834 1.394 . S
C832 H848 0.931 . S
C833 C832 1.391 . S
C833 C837 1.376 . S
C834 C832 1.394 . S
C834 C835 1.369 . S
C834 C838 1.531 . S
C835 C834 1.369 . S
C835 C836 1.410 . S
C835 C843 1.503 . S
C836 C835 1.410 . S
C836 C837 1.392 . S
C836 C839 1.511 . S
C837 C833 1.376 . S
C837 C836 1.392 . S
C837 H849 0.929 . S
C838 C834 1.531 . S
C838 H850 0.960 . S
C838 H851 0.962 . S
C838 H852 0.960 . S
C839 C836 1.511 . S
C839 H853 0.961 . S
C839 H854 0.961 . S
C839 H855 0.961 . S
C840 C841 1.370 . S
C840 C842 1.363 . S
C840 H856 0.931 . S
C841 C840 1.370 . S
C841 C845 1.408 . S
C842 C840 1.363 . S
C842 C843 1.370 . S
C842 C846 1.524 . S
C843 C835 1.503 . S
C843 C842 1.370 . S
C843 C844 1.403 . S
C844 C843 1.403 . S
C844 C845 1.404 . S
C844 C847 1.539 . S
C845 C841 1.408 . S
C845 C844 1.404 . S
C845 H857 0.930 . S
C846 C842 1.524 . S
C846 H858 0.956 . S
C846 H859 0.961 . S
C846 H860 0.961 . S
C847 C844 1.539 . S
C847 H861 0.958 . S
C847 H862 0.961 . S
C847 H863 0.960 . S
H848 C832 0.931 . S
H849 C837 0.929 . S
H850 C838 0.960 . S
H851 C838 0.962 . S
H852 C838 0.960 . S
H853 C839 0.961 . S
H854 C839 0.961 . S
H855 C839 0.961 . S
H856 C840 0.931 . S
H857 C845 0.930 . S
H858 C846 0.956 . S
H859 C846 0.961 . S
H860 C846 0.961 . S
H861 C847 0.958 . S
H862 C847 0.961 . S
H863 C847 0.960 . S
C864 C865 1.391 . S
C864 C866 1.394 . S
C864 H880 0.931 . S
C865 C864 1.391 . S
C865 C869 1.376 . S
C866 C864 1.394 . S
C866 C867 1.369 . S
C866 C870 1.531 . S
C867 C866 1.369 . S
C867 C868 1.410 . S
C867 C875 1.503 . S
C868 C867 1.410 . S
C868 C869 1.392 . S
C868 C871 1.511 . S
C869 C865 1.376 . S
C869 C868 1.392 . S
C869 H881 0.929 . S
C870 C866 1.531 . S
C870 H882 0.960 . S
C870 H883 0.962 . S
C870 H884 0.960 . S
C871 C868 1.511 . S
C871 H885 0.961 . S
C871 H886 0.961 . S
C871 H887 0.961 . S
C872 C873 1.370 . S
C872 C874 1.363 . S
C872 H888 0.931 . S
C873 C872 1.370 . S
C873 C877 1.408 . S
C874 C872 1.363 . S
C874 C875 1.370 . S
C874 C878 1.524 . S
C875 C867 1.503 . S
C875 C874 1.370 . S
C875 C876 1.403 . S
C876 C875 1.403 . S
C876 C877 1.404 . S
C876 C879 1.539 . S
C877 C873 1.408 . S
C877 C876 1.404 . S
C877 H889 0.930 . S
C878 C874 1.524 . S
C878 H890 0.956 . S
C878 H891 0.961 . S
C878 H892 0.961 . S
C879 C876 1.539 . S
C879 H893 0.958 . S
C879 H894 0.961 . S
C879 H895 0.960 . S
H880 C864 0.931 . S
H881 C869 0.929 . S
H882 C870 0.960 . S
H883 C870 0.962 . S
H884 C870 0.960 . S
H885 C871 0.961 . S
H886 C871 0.961 . S
H887 C871 0.961 . S
H888 C872 0.931 . S
H889 C877 0.930 . S
H890 C878 0.956 . S
H891 C878 0.961 . S
H892 C878 0.961 . S
H893 C879 0.958 . S
H894 C879 0.961 . S
H895 C879 0.960 . S
C896 C897 1.391 . S
C896 C898 1.394 . S
C896 H912 0.931 . S
C897 C896 1.391 . S
C897 C901 1.376 . S
C898 C896 1.394 . S
C898 C899 1.369 . S
C898 C902 1.531 . S
C899 C898 1.369 . S
C899 C900 1.410 . S
C899 C907 1.503 . S
C900 C899 1.410 . S
C900 C901 1.392 . S
C900 C903 1.511 . S
C901 C897 1.376 . S
C901 C900 1.392 . S
C901 H913 0.929 . S
C902 C898 1.531 . S
C902 H914 0.960 . S
C902 H915 0.962 . S
C902 H916 0.960 . S
C903 C900 1.511 . S
C903 H917 0.961 . S
C903 H918 0.961 . S
C903 H919 0.961 . S
C904 C905 1.370 . S
C904 C906 1.363 . S
C904 H920 0.931 . S
C905 C904 1.370 . S
C905 C909 1.408 . S
C906 C904 1.363 . S
C906 C907 1.370 . S
C906 C910 1.524 . S
C907 C899 1.503 . S
C907 C906 1.370 . S
C907 C908 1.403 . S
C908 C907 1.403 . S
C908 C909 1.404 . S
C908 C911 1.539 . S
C909 C905 1.408 . S
C909 C908 1.404 . S
C909 H921 0.930 . S
C910 C906 1.524 . S
C910 H922 0.956 . S
C910 H923 0.961 . S
C910 H924 0.961 . S
C911 C908 1.539 . S
C911 H925 0.958 . S
C911 H926 0.961 . S
C911 H927 0.960 . S
H912 C896 0.931 . S
H913 C901 0.929 . S
H914 C902 0.960 . S
H915 C902 0.962 . S
H916 C902 0.960 . S
H917 C903 0.961 . S
H918 C903 0.961 . S
H919 C903 0.961 . S
H920 C904 0.931 . S
H921 C909 0.930 . S
H922 C910 0.956 . S
H923 C910 0.961 . S
H924 C910 0.961 . S
H925 C911 0.958 . S
H926 C911 0.961 . S
H927 C911 0.960 . S
C928 C929 1.391 . S
C928 C930 1.394 . S
C928 H944 0.931 . S
C929 C928 1.391 . S
C929 C933 1.376 . S
C930 C928 1.394 . S
C930 C931 1.369 . S
C930 C934 1.531 . S
C931 C930 1.369 . S
C931 C932 1.410 . S
C931 C939 1.503 . S
C932 C931 1.410 . S
C932 C933 1.392 . S
C932 C935 1.511 . S
C933 C929 1.376 . S
C933 C932 1.392 . S
C933 H945 0.929 . S
C934 C930 1.531 . S
C934 H946 0.960 . S
C934 H947 0.962 . S
C934 H948 0.960 . S
C935 C932 1.511 . S
C935 H949 0.961 . S
C935 H950 0.961 . S
C935 H951 0.961 . S
C936 C937 1.370 . S
C936 C938 1.363 . S
C936 H952 0.931 . S
C937 C936 1.370 . S
C937 C941 1.408 . S
C938 C936 1.363 . S
C938 C939 1.370 . S
C938 C942 1.524 . S
C939 C931 1.503 . S
C939 C938 1.370 . S
C939 C940 1.403 . S
C940 C939 1.403 . S
C940 C941 1.404 . S
C940 C943 1.539 . S
C941 C937 1.408 . S
C941 C940 1.404 . S
C941 H953 0.930 . S
C942 C938 1.524 . S
C942 H954 0.956 . S
C942 H955 0.961 . S
C942 H956 0.961 . S
C943 C940 1.539 . S
C943 H957 0.958 . S
C943 H958 0.961 . S
C943 H959 0.960 . S
H944 C928 0.931 . S
H945 C933 0.929 . S
H946 C934 0.960 . S
H947 C934 0.962 . S
H948 C934 0.960 . S
H949 C935 0.961 . S
H950 C935 0.961 . S
H951 C935 0.961 . S
H952 C936 0.931 . S
H953 C941 0.930 . S
H954 C942 0.956 . S
H955 C942 0.961 . S
H956 C942 0.961 . S
H957 C943 0.958 . S
H958 C943 0.961 . S
H959 C943 0.960 . S
C960 C961 1.391 . S
C960 C962 1.394 . S
C960 H976 0.931 . S
C961 C960 1.391 . S
C961 C965 1.376 . S
C962 C960 1.394 . S
C962 C963 1.369 . S
C962 C966 1.531 . S
C963 C962 1.369 . S
C963 C964 1.410 . S
C963 C971 1.503 . S
C964 C963 1.410 . S
C964 C965 1.392 . S
C964 C967 1.511 . S
C965 C961 1.376 . S
C965 C964 1.392 . S
C965 H977 0.929 . S
C966 C962 1.531 . S
C966 H978 0.960 . S
C966 H979 0.962 . S
C966 H980 0.960 . S
C967 C964 1.511 . S
C967 H981 0.961 . S
C967 H982 0.961 . S
C967 H983 0.961 . S
C968 C969 1.370 . S
C968 C970 1.363 . S
C968 H984 0.931 . S
C969 C968 1.370 . S
C969 C973 1.408 . S
C970 C968 1.363 . S
C970 C971 1.370 . S
C970 C974 1.524 . S
C971 C963 1.503 . S
C971 C970 1.370 . S
C971 C972 1.403 . S
C972 C971 1.403 . S
C972 C973 1.404 . S
C972 C975 1.539 . S
C973 C969 1.408 . S
C973 C972 1.404 . S
C973 H985 0.930 . S
C974 C970 1.524 . S
C974 H986 0.956 . S
C974 H987 0.961 . S
C974 H988 0.961 . S
C975 C972 1.539 . S
C975 H989 0.958 . S
C975 H990 0.961 . S
C975 H991 0.960 . S
H976 C960 0.931 . S
H977 C965 0.929 . S
H978 C966 0.960 . S
H979 C966 0.962 . S
H980 C966 0.960 . S
H981 C967 0.961 . S
H982 C967 0.961 . S
H983 C967 0.961 . S
H984 C968 0.931 . S
H985 C973 0.930 . S
H986 C974 0.956 . S
H987 C974 0.961 . S
H988 C974 0.961 . S
H989 C975 0.958 . S
H990 C975 0.961 . S
H991 C975 0.960 . S
C992 C993 1.391 . S
C992 C994 1.394 . S
C992 H1008 0.931 . S
C993 C992 1.391 . S
C993 C997 1.376 . S
C994 C992 1.394 . S
C994 C995 1.369 . S
C994 C998 1.531 . S
C995 C994 1.369 . S
C995 C996 1.410 . S
C995 C1003 1.503 . S
C996 C995 1.410 . S
C996 C997 1.392 . S
C996 C999 1.511 . S
C997 C993 1.376 . S
C997 C996 1.392 . S
C997 H1009 0.929 . S
C998 C994 1.531 . S
C998 H1010 0.960 . S
C998 H1011 0.962 . S
C998 H1012 0.960 . S
C999 C996 1.511 . S
C999 H1013 0.961 . S
C999 H1014 0.961 . S
C999 H1015 0.961 . S
C1000 C1001 1.370 . S
C1000 C1002 1.363 . S
C1000 H1016 0.931 . S
C1001 C1000 1.370 . S
C1001 C1005 1.408 . S
C1002 C1000 1.363 . S
C1002 C1003 1.370 . S
C1002 C1006 1.524 . S
C1003 C995 1.503 . S
C1003 C1002 1.370 . S
C1003 C1004 1.403 . S
C1004 C1003 1.403 . S
C1004 C1005 1.404 . S
C1004 C1007 1.539 . S
C1005 C1001 1.408 . S
C1005 C1004 1.404 . S
C1005 H1017 0.930 . S
C1006 C1002 1.524 . S
C1006 H1018 0.956 . S
C1006 H1019 0.961 . S
C1006 H1020 0.961 . S
C1007 C1004 1.539 . S
C1007 H1021 0.958 . S
C1007 H1022 0.961 . S
C1007 H1023 0.960 . S
H1008 C992 0.931 . S
H1009 C997 0.929 . S
H1010 C998 0.960 . S
H1011 C998 0.962 . S
H1012 C998 0.960 . S
H1013 C999 0.961 . S
H1014 C999 0.961 . S
H1015 C999 0.961 . S
H1016 C1000 0.931 . S
H1017 C1005 0.930 . S
H1018 C1006 0.956 . S
H1019 C1006 0.961 . S
H1020 C1006 0.961 . S
H1021 C1007 0.958 . S
H1022 C1007 0.961 . S
H1023 C1007 0.960 . S
C1024 C1025 1.391 . S
C1024 C1026 1.394 . S
C1024 H1040 0.931 . S
C1025 C1024 1.391 . S
C1025 C1029 1.376 . S
C1026 C1024 1.394 . S
C1026 C1027 1.369 . S
C1026 C1030 1.531 . S
C1027 C1026 1.369 . S
C1027 C1028 1.410 . S
C1027 C1035 1.503 . S
C1028 C1027 1.410 . S
C1028 C1029 1.392 . S
C1028 C1031 1.511 . S
C1029 C1025 1.376 . S
C1029 C1028 1.392 . S
C1029 H1041 0.929 . S
C1030 C1026 1.531 . S
C1030 H1042 0.960 . S
C1030 H1043 0.962 . S
C1030 H1044 0.960 . S
C1031 C1028 1.511 . S
C1031 H1045 0.961 . S
C1031 H1046 0.961 . S
C1031 H1047 0.961 . S
C1032 C1033 1.370 . S
C1032 C1034 1.363 . S
C1032 H1048 0.931 . S
C1033 C1032 1.370 . S
C1033 C1037 1.408 . S
C1034 C1032 1.363 . S
C1034 C1035 1.370 . S
C1034 C1038 1.524 . S
C1035 C1027 1.503 . S
C1035 C1034 1.370 . S
C1035 C1036 1.403 . S
C1036 C1035 1.403 . S
C1036 C1037 1.404 . S
C1036 C1039 1.539 . S
C1037 C1033 1.408 . S
C1037 C1036 1.404 . S
C1037 H1049 0.930 . S
C1038 C1034 1.524 . S
C1038 H1050 0.956 . S
C1038 H1051 0.961 . S
C1038 H1052 0.961 . S
C1039 C1036 1.539 . S
C1039 H1053 0.958 . S
C1039 H1054 0.961 . S
C1039 H1055 0.960 . S
H1040 C1024 0.931 . S
H1041 C1029 0.929 . S
H1042 C1030 0.960 . S
H1043 C1030 0.962 . S
H1044 C1030 0.960 . S
H1045 C1031 0.961 . S
H1046 C1031 0.961 . S
H1047 C1031 0.961 . S
H1048 C1032 0.931 . S
H1049 C1037 0.930 . S
H1050 C1038 0.956 . S
H1051 C1038 0.961 . S
H1052 C1038 0.961 . S
H1053 C1039 0.958 . S
H1054 C1039 0.961 . S
H1055 C1039 0.960 . S
C1056 C1057 1.391 . S
C1056 C1058 1.394 . S
C1056 H1072 0.931 . S
C1057 C1056 1.391 . S
C1057 C1061 1.376 . S
C1058 C1056 1.394 . S
C1058 C1059 1.369 . S
C1058 C1062 1.531 . S
C1059 C1058 1.369 . S
C1059 C1060 1.410 . S
C1059 C1067 1.503 . S
C1060 C1059 1.410 . S
C1060 C1061 1.392 . S
C1060 C1063 1.511 . S
C1061 C1057 1.376 . S
C1061 C1060 1.392 . S
C1061 H1073 0.929 . S
C1062 C1058 1.531 . S
C1062 H1074 0.960 . S
C1062 H1075 0.962 . S
C1062 H1076 0.960 . S
C1063 C1060 1.511 . S
C1063 H1077 0.961 . S
C1063 H1078 0.961 . S
C1063 H1079 0.961 . S
C1064 C1065 1.370 . S
C1064 C1066 1.363 . S
C1064 H1080 0.931 . S
C1065 C1064 1.370 . S
C1065 C1069 1.408 . S
C1066 C1064 1.363 . S
C1066 C1067 1.370 . S
C1066 C1070 1.524 . S
C1067 C1059 1.503 . S
C1067 C1066 1.370 . S
C1067 C1068 1.403 . S
C1068 C1067 1.403 . S
C1068 C1069 1.404 . S
C1068 C1071 1.539 . S
C1069 C1065 1.408 . S
C1069 C1068 1.404 . S
C1069 H1081 0.930 . S
C1070 C1066 1.524 . S
C1070 H1082 0.956 . S
C1070 H1083 0.961 . S
C1070 H1084 0.961 . S
C1071 C1068 1.539 . S
C1071 H1085 0.958 . S
C1071 H1086 0.961 . S
C1071 H1087 0.960 . S
H1072 C1056 0.931 . S
H1073 C1061 0.929 . S
H1074 C1062 0.960 . S
H1075 C1062 0.962 . S
H1076 C1062 0.960 . S
H1077 C1063 0.961 . S
H1078 C1063 0.961 . S
H1079 C1063 0.961 . S
H1080 C1064 0.931 . S
H1081 C1069 0.930 . S
H1082 C1070 0.956 . S
H1083 C1070 0.961 . S
H1084 C1070 0.961 . S
H1085 C1071 0.958 . S
H1086 C1071 0.961 . S
H1087 C1071 0.960 . S
C1088 C1089 1.391 . S
C1088 C1090 1.394 . S
C1088 H1104 0.931 . S
C1089 C1088 1.391 . S
C1089 C1093 1.376 . S
C1090 C1088 1.394 . S
C1090 C1091 1.369 . S
C1090 C1094 1.531 . S
C1091 C1090 1.369 . S
C1091 C1092 1.410 . S
C1091 C1099 1.503 . S
C1092 C1091 1.410 . S
C1092 C1093 1.392 . S
C1092 C1095 1.511 . S
C1093 C1089 1.376 . S
C1093 C1092 1.392 . S
C1093 H1105 0.929 . S
C1094 C1090 1.531 . S
C1094 H1106 0.960 . S
C1094 H1107 0.962 . S
C1094 H1108 0.960 . S
C1095 C1092 1.511 . S
C1095 H1109 0.961 . S
C1095 H1110 0.961 . S
C1095 H1111 0.961 . S
C1096 C1097 1.370 . S
C1096 C1098 1.363 . S
C1096 H1112 0.931 . S
C1097 C1096 1.370 . S
C1097 C1101 1.408 . S
C1098 C1096 1.363 . S
C1098 C1099 1.370 . S
C1098 C1102 1.524 . S
C1099 C1091 1.503 . S
C1099 C1098 1.370 . S
C1099 C1100 1.403 . S
C1100 C1099 1.403 . S
C1100 C1101 1.404 . S
C1100 C1103 1.539 . S
C1101 C1097 1.408 . S
C1101 C1100 1.404 . S
C1101 H1113 0.930 . S
C1102 C1098 1.524 . S
C1102 H1114 0.956 . S
C1102 H1115 0.961 . S
C1102 H1116 0.961 . S
C1103 C1100 1.539 . S
C1103 H1117 0.958 . S
C1103 H1118 0.961 . S
C1103 H1119 0.960 . S
H1104 C1088 0.931 . S
H1105 C1093 0.929 . S
H1106 C1094 0.960 . S
H1107 C1094 0.962 . S
H1108 C1094 0.960 . S
H1109 C1095 0.961 . S
H1110 C1095 0.961 . S
H1111 C1095 0.961 . S
H1112 C1096 0.931 . S
H1113 C1101 0.930 . S
H1114 C1102 0.956 . S
H1115 C1102 0.961 . S
H1116 C1102 0.961 . S
H1117 C1103 0.958 . S
H1118 C1103 0.961 . S
H1119 C1103 0.960 . S
C1120 C1121 1.391 . S
C1120 C1122 1.394 . S
C1120 H1136 0.931 . S
C1121 C1120 1.391 . S
C1121 C1125 1.376 . S
C1122 C1120 1.394 . S
C1122 C1123 1.369 . S
C1122 C1126 1.531 . S
C1123 C1122 1.369 . S
C1123 C1124 1.410 . S
C1123 C1131 1.503 . S
C1124 C1123 1.410 . S
C1124 C1125 1.392 . S
C1124 C1127 1.511 . S
C1125 C1121 1.376 . S
C1125 C1124 1.392 . S
C1125 H1137 0.929 . S
C1126 C1122 1.531 . S
C1126 H1138 0.960 . S
C1126 H1139 0.962 . S
C1126 H1140 0.960 . S
C1127 C1124 1.511 . S
C1127 H1141 0.961 . S
C1127 H1142 0.961 . S
C1127 H1143 0.961 . S
C1128 C1129 1.370 . S
C1128 C1130 1.363 . S
C1128 H1144 0.931 . S
C1129 C1128 1.370 . S
C1129 C1133 1.408 . S
C1130 C1128 1.363 . S
C1130 C1131 1.370 . S
C1130 C1134 1.524 . S
C1131 C1123 1.503 . S
C1131 C1130 1.370 . S
C1131 C1132 1.403 . S
C1132 C1131 1.403 . S
C1132 C1133 1.404 . S
C1132 C1135 1.539 . S
C1133 C1129 1.408 . S
C1133 C1132 1.404 . S
C1133 H1145 0.930 . S
C1134 C1130 1.524 . S
C1134 H1146 0.956 . S
C1134 H1147 0.961 . S
C1134 H1148 0.961 . S
C1135 C1132 1.539 . S
C1135 H1149 0.958 . S
C1135 H1150 0.961 . S
C1135 H1151 0.960 . S
H1136 C1120 0.931 . S
H1137 C1125 0.929 . S
H1138 C1126 0.960 . S
H1139 C1126 0.962 . S
H1140 C1126 0.960 . S
H1141 C1127 0.961 . S
H1142 C1127 0.961 . S
H1143 C1127 0.961 . S
H1144 C1128 0.931 . S
H1145 C1133 0.930 . S
H1146 C1134 0.956 . S
H1147 C1134 0.961 . S
H1148 C1134 0.961 . S
H1149 C1135 0.958 . S
H1150 C1135 0.961 . S
H1151 C1135 0.960 . S
C1152 C1153 1.391 . S
C1152 C1154 1.394 . S
C1152 H1168 0.931 . S
C1153 C1152 1.391 . S
C1153 C1157 1.376 . S
C1154 C1152 1.394 . S
C1154 C1155 1.369 . S
C1154 C1158 1.531 . S
C1155 C1154 1.369 . S
C1155 C1156 1.410 . S
C1155 C1163 1.503 . S
C1156 C1155 1.410 . S
C1156 C1157 1.392 . S
C1156 C1159 1.511 . S
C1157 C1153 1.376 . S
C1157 C1156 1.392 . S
C1157 H1169 0.929 . S
C1158 C1154 1.531 . S
C1158 H1170 0.960 . S
C1158 H1171 0.962 . S
C1158 H1172 0.960 . S
C1159 C1156 1.511 . S
C1159 H1173 0.961 . S
C1159 H1174 0.961 . S
C1159 H1175 0.961 . S
C1160 C1161 1.370 . S
C1160 C1162 1.363 . S
C1160 H1176 0.931 . S
C1161 C1160 1.370 . S
C1161 C1165 1.408 . S
C1162 C1160 1.363 . S
C1162 C1163 1.370 . S
C1162 C1166 1.524 . S
C1163 C1155 1.503 . S
C1163 C1162 1.370 . S
C1163 C1164 1.403 . S
C1164 C1163 1.403 . S
C1164 C1165 1.404 . S
C1164 C1167 1.539 . S
C1165 C1161 1.408 . S
C1165 C1164 1.404 . S
C1165 H1177 0.930 . S
C1166 C1162 1.524 . S
C1166 H1178 0.956 . S
C1166 H1179 0.961 . S
C1166 H1180 0.961 . S
C1167 C1164 1.539 . S
C1167 H1181 0.958 . S
C1167 H1182 0.961 . S
C1167 H1183 0.960 . S
H1168 C1152 0.931 . S
H1169 C1157 0.929 . S
H1170 C1158 0.960 . S
H1171 C1158 0.962 . S
H1172 C1158 0.960 . S
H1173 C1159 0.961 . S
H1174 C1159 0.961 . S
H1175 C1159 0.961 . S
H1176 C1160 0.931 . S
H1177 C1165 0.930 . S
H1178 C1166 0.956 . S
H1179 C1166 0.961 . S
H1180 C1166 0.961 . S
H1181 C1167 0.958 . S
H1182 C1167 0.961 . S
H1183 C1167 0.960 . S
C1184 C1185 1.391 . S
C1184 C1186 1.394 . S
C1184 H1200 0.931 . S
C1185 C1184 1.391 . S
C1185 C1189 1.376 . S
C1186 C1184 1.394 . S
C1186 C1187 1.369 . S
C1186 C1190 1.531 . S
C1187 C1186 1.369 . S
C1187 C1188 1.410 . S
C1187 C1195 1.503 . S
C1188 C1187 1.410 . S
C1188 C1189 1.392 . S
C1188 C1191 1.511 . S
C1189 C1185 1.376 . S
C1189 C1188 1.392 . S
C1189 H1201 0.929 . S
C1190 C1186 1.531 . S
C1190 H1202 0.960 . S
C1190 H1203 0.962 . S
C1190 H1204 0.960 . S
C1191 C1188 1.511 . S
C1191 H1205 0.961 . S
C1191 H1206 0.961 . S
C1191 H1207 0.961 . S
C1192 C1193 1.370 . S
C1192 C1194 1.363 . S
C1192 H1208 0.931 . S
C1193 C1192 1.370 . S
C1193 C1197 1.408 . S
C1194 C1192 1.363 . S
C1194 C1195 1.370 . S
C1194 C1198 1.524 . S
C1195 C1187 1.503 . S
C1195 C1194 1.370 . S
C1195 C1196 1.403 . S
C1196 C1195 1.403 . S
C1196 C1197 1.404 . S
C1196 C1199 1.539 . S
C1197 C1193 1.408 . S
C1197 C1196 1.404 . S
C1197 H1209 0.930 . S
C1198 C1194 1.524 . S
C1198 H1210 0.956 . S
C1198 H1211 0.961 . S
C1198 H1212 0.961 . S
C1199 C1196 1.539 . S
C1199 H1213 0.958 . S
C1199 H1214 0.961 . S
C1199 H1215 0.960 . S
H1200 C1184 0.931 . S
H1201 C1189 0.929 . S
H1202 C1190 0.960 . S
H1203 C1190 0.962 . S
H1204 C1190 0.960 . S
H1205 C1191 0.961 . S
H1206 C1191 0.961 . S
H1207 C1191 0.961 . S
H1208 C1192 0.931 . S
H1209 C1197 0.930 . S
H1210 C1198 0.956 . S
H1211 C1198 0.961 . S
H1212 C1198 0.961 . S
H1213 C1199 0.958 . S
H1214 C1199 0.961 . S
H1215 C1199 0.960 . S
C1216 C1217 1.391 . S
C1216 C1218 1.394 . S
C1216 H1232 0.931 . S
C1217 C1216 1.391 . S
C1217 C1221 1.376 . S
C1218 C1216 1.394 . S
C1218 C1219 1.369 . S
C1218 C1222 1.531 . S
C1219 C1218 1.369 . S
C1219 C1220 1.410 . S
C1219 C1227 1.503 . S
C1220 C1219 1.410 . S
C1220 C1221 1.392 . S
C1220 C1223 1.511 . S
C1221 C1217 1.376 . S
C1221 C1220 1.392 . S
C1221 H1233 0.929 . S
C1222 C1218 1.531 . S
C1222 H1234 0.960 . S
C1222 H1235 0.962 . S
C1222 H1236 0.960 . S
C1223 C1220 1.511 . S
C1223 H1237 0.961 . S
C1223 H1238 0.961 . S
C1223 H1239 0.961 . S
C1224 C1225 1.370 . S
C1224 C1226 1.363 . S
C1224 H1240 0.931 . S
C1225 C1224 1.370 . S
C1225 C1229 1.408 . S
C1226 C1224 1.363 . S
C1226 C1227 1.370 . S
C1226 C1230 1.524 . S
C1227 C1219 1.503 . S
C1227 C1226 1.370 . S
C1227 C1228 1.403 . S
C1228 C1227 1.403 . S
C1228 C1229 1.404 . S
C1228 C1231 1.539 . S
C1229 C1225 1.408 . S
C1229 C1228 1.404 . S
C1229 H1241 0.930 . S
C1230 C1226 1.524 . S
C1230 H1242 0.956 . S
C1230 H1243 0.961 . S
C1230 H1244 0.961 . S
C1231 C1228 1.539 . S
C1231 H1245 0.958 . S
C1231 H1246 0.961 . S
C1231 H1247 0.960 . S
H1232 C1216 0.931 . S
H1233 C1221 0.929 . S
H1234 C1222 0.960 . S
H1235 C1222 0.962 . S
H1236 C1222 0.960 . S
H1237 C1223 0.961 . S
H1238 C1223 0.961 . S
H1239 C1223 0.961 . S
H1240 C1224 0.931 . S
H1241 C1229 0.930 . S
H1242 C1230 0.956 . S
H1243 C1230 0.961 . S
H1244 C1230 0.961 . S
H1245 C1231 0.958 . S
H1246 C1231 0.961 . S
H1247 C1231 0.960 . S
C1248 C1249 1.391 . S
C1248 C1250 1.394 . S
C1248 H1264 0.931 . S
C1249 C1248 1.391 . S
C1249 C1253 1.376 . S
C1250 C1248 1.394 . S
C1250 C1251 1.369 . S
C1250 C1254 1.531 . S
C1251 C1250 1.369 . S
C1251 C1252 1.410 . S
C1251 C1259 1.503 . S
C1252 C1251 1.410 . S
C1252 C1253 1.392 . S
C1252 C1255 1.511 . S
C1253 C1249 1.376 . S
C1253 C1252 1.392 . S
C1253 H1265 0.929 . S
C1254 C1250 1.531 . S
C1254 H1266 0.960 . S
C1254 H1267 0.962 . S
C1254 H1268 0.960 . S
C1255 C1252 1.511 . S
C1255 H1269 0.961 . S
C1255 H1270 0.961 . S
C1255 H1271 0.961 . S
C1256 C1257 1.370 . S
C1256 C1258 1.363 . S
C1256 H1272 0.931 . S
C1257 C1256 1.370 . S
C1257 C1261 1.408 . S
C1258 C1256 1.363 . S
C1258 C1259 1.370 . S
C1258 C1262 1.524 . S
C1259 C1251 1.503 . S
C1259 C1258 1.370 . S
C1259 C1260 1.403 . S
C1260 C1259 1.403 . S
C1260 C1261 1.404 . S
C1260 C1263 1.539 . S
C1261 C1257 1.408 . S
C1261 C1260 1.404 . S
C1261 H1273 0.930 . S
C1262 C1258 1.524 . S
C1262 H1274 0.956 . S
C1262 H1275 0.961 . S
C1262 H1276 0.961 . S
C1263 C1260 1.539 . S
C1263 H1277 0.958 . S
C1263 H1278 0.961 . S
C1263 H1279 0.960 . S
H1264 C1248 0.931 . S
H1265 C1253 0.929 . S
H1266 C1254 0.960 . S
H1267 C1254 0.962 . S
H1268 C1254 0.960 . S
H1269 C1255 0.961 . S
H1270 C1255 0.961 . S
H1271 C1255 0.961 . S
H1272 C1256 0.931 . S
H1273 C1261 0.930 . S
H1274 C1262 0.956 . S
H1275 C1262 0.961 . S
H1276 C1262 0.961 . S
H1277 C1263 0.958 . S
H1278 C1263 0.961 . S
H1279 C1263 0.960 . S
C1280 C1281 1.391 . S
C1280 C1282 1.394 . S
C1280 H1296 0.931 . S
C1281 C1280 1.391 . S
C1281 C1285 1.376 . S
C1282 C1280 1.394 . S
C1282 C1283 1.369 . S
C1282 C1286 1.531 . S
C1283 C1282 1.369 . S
C1283 C1284 1.410 . S
C1283 C1291 1.503 . S
C1284 C1283 1.410 . S
C1284 C1285 1.392 . S
C1284 C1287 1.511 . S
C1285 C1281 1.376 . S
C1285 C1284 1.392 . S
C1285 H1297 0.929 . S
C1286 C1282 1.531 . S
C1286 H1298 0.960 . S
C1286 H1299 0.962 . S
C1286 H1300 0.960 . S
C1287 C1284 1.511 . S
C1287 H1301 0.961 . S
C1287 H1302 0.961 . S
C1287 H1303 0.961 . S
C1288 C1289 1.370 . S
C1288 C1290 1.363 . S
C1288 H1304 0.931 . S
C1289 C1288 1.370 . S
C1289 C1293 1.408 . S
C1290 C1288 1.363 . S
C1290 C1291 1.370 . S
C1290 C1294 1.524 . S
C1291 C1283 1.503 . S
C1291 C1290 1.370 . S
C1291 C1292 1.403 . S
C1292 C1291 1.403 . S
C1292 C1293 1.404 . S
C1292 C1295 1.539 . S
C1293 C1289 1.408 . S
C1293 C1292 1.404 . S
C1293 H1305 0.930 . S
C1294 C1290 1.524 . S
C1294 H1306 0.956 . S
C1294 H1307 0.961 . S
C1294 H1308 0.961 . S
C1295 C1292 1.539 . S
C1295 H1309 0.958 . S
C1295 H1310 0.961 . S
C1295 H1311 0.960 . S
H1296 C1280 0.931 . S
H1297 C1285 0.929 . S
H1298 C1286 0.960 . S
H1299 C1286 0.962 . S
H1300 C1286 0.960 . S
H1301 C1287 0.961 . S
H1302 C1287 0.961 . S
H1303 C1287 0.961 . S
H1304 C1288 0.931 . S
H1305 C1293 0.930 . S
H1306 C1294 0.956 . S
H1307 C1294 0.961 . S
H1308 C1294 0.961 . S
H1309 C1295 0.958 . S
H1310 C1295 0.961 . S
H1311 C1295 0.960 . S
C1312 C1313 1.391 . S
C1312 C1314 1.394 . S
C1312 H1328 0.931 . S
C1313 C1312 1.391 . S
C1313 C1317 1.376 . S
C1314 C1312 1.394 . S
C1314 C1315 1.369 . S
C1314 C1318 1.531 . S
C1315 C1314 1.369 . S
C1315 C1316 1.410 . S
C1315 C1323 1.503 . S
C1316 C1315 1.410 . S
C1316 C1317 1.392 . S
C1316 C1319 1.511 . S
C1317 C1313 1.376 . S
C1317 C1316 1.392 . S
C1317 H1329 0.929 . S
C1318 C1314 1.531 . S
C1318 H1330 0.960 . S
C1318 H1331 0.962 . S
C1318 H1332 0.960 . S
C1319 C1316 1.511 . S
C1319 H1333 0.961 . S
C1319 H1334 0.961 . S
C1319 H1335 0.961 . S
C1320 C1321 1.370 . S
C1320 C1322 1.363 . S
C1320 H1336 0.931 . S
C1321 C1320 1.370 . S
C1321 C1325 1.408 . S
C1322 C1320 1.363 . S
C1322 C1323 1.370 . S
C1322 C1326 1.524 . S
C1323 C1315 1.503 . S
C1323 C1322 1.370 . S
C1323 C1324 1.403 . S
C1324 C1323 1.403 . S
C1324 C1325 1.404 . S
C1324 C1327 1.539 . S
C1325 C1321 1.408 . S
C1325 C1324 1.404 . S
C1325 H1337 0.930 . S
C1326 C1322 1.524 . S
C1326 H1338 0.956 . S
C1326 H1339 0.961 . S
C1326 H1340 0.961 . S
C1327 C1324 1.539 . S
C1327 H1341 0.958 . S
C1327 H1342 0.961 . S
C1327 H1343 0.960 . S
H1328 C1312 0.931 . S
H1329 C1317 0.929 . S
H1330 C1318 0.960 . S
H1331 C1318 0.962 . S
H1332 C1318 0.960 . S
H1333 C1319 0.961 . S
H1334 C1319 0.961 . S
H1335 C1319 0.961 . S
H1336 C1320 0.931 . S
H1337 C1325 0.930 . S
H1338 C1326 0.956 . S
H1339 C1326 0.961 . S
H1340 C1326 0.961 . S
H1341 C1327 0.958 . S
H1342 C1327 0.961 . S
H1343 C1327 0.960 . S
C1344 C1345 1.391 . S
C1344 C1346 1.394 . S
C1344 H1360 0.931 . S
C1345 C1344 1.391 . S
C1345 C1349 1.376 . S
C1346 C1344 1.394 . S
C1346 C1347 1.369 . S
C1346 C1350 1.531 . S
C1347 C1346 1.369 . S
C1347 C1348 1.410 . S
C1347 C1355 1.503 . S
C1348 C1347 1.410 . S
C1348 C1349 1.392 . S
C1348 C1351 1.511 . S
C1349 C1345 1.376 . S
C1349 C1348 1.392 . S
C1349 H1361 0.929 . S
C1350 C1346 1.531 . S
C1350 H1362 0.960 . S
C1350 H1363 0.962 . S
C1350 H1364 0.960 . S
C1351 C1348 1.511 . S
C1351 H1365 0.961 . S
C1351 H1366 0.961 . S
C1351 H1367 0.961 . S
C1352 C1353 1.370 . S
C1352 C1354 1.363 . S
C1352 H1368 0.931 . S
C1353 C1352 1.370 . S
C1353 C1357 1.408 . S
C1354 C1352 1.363 . S
C1354 C1355 1.370 . S
C1354 C1358 1.524 . S
C1355 C1347 1.503 . S
C1355 C1354 1.370 . S
C1355 C1356 1.403 . S
C1356 C1355 1.403 . S
C1356 C1357 1.404 . S
C1356 C1359 1.539 . S
C1357 C1353 1.408 . S
C1357 C1356 1.404 . S
C1357 H1369 0.930 1_455 S
C1358 C1354 1.524 . S
C1358 H1370 0.956 . S
C1358 H1371 0.961 . S
C1358 H1372 0.961 . S
C1359 C1356 1.539 . S
C1359 H1373 0.958 . S
C1359 H1374 0.961 . S
C1359 H1375 0.960 . S
H1360 C1344 0.931 . S
H1361 C1349 0.929 . S
H1362 C1350 0.960 . S
H1363 C1350 0.962 . S
H1364 C1350 0.960 . S
H1365 C1351 0.961 . S
H1366 C1351 0.961 . S
H1367 C1351 0.961 . S
H1368 C1352 0.931 . S
H1369 C1357 0.930 1_655 S
H1370 C1358 0.956 . S
H1371 C1358 0.961 . S
H1372 C1358 0.961 . S
H1373 C1359 0.958 . S
H1374 C1359 0.961 . S
H1375 C1359 0.960 . S
C1376 C1377 1.391 . S
C1376 C1378 1.394 . S
C1376 H1392 0.931 . S
C1377 C1376 1.391 . S
C1377 C1381 1.376 . S
C1378 C1376 1.394 . S
C1378 C1379 1.369 . S
C1378 C1382 1.531 . S
C1379 C1378 1.369 . S
C1379 C1380 1.410 . S
C1379 C1387 1.503 . S
C1380 C1379 1.410 . S
C1380 C1381 1.392 . S
C1380 C1383 1.511 . S
C1381 C1377 1.376 . S
C1381 C1380 1.392 . S
C1381 H1393 0.929 . S
C1382 C1378 1.531 . S
C1382 H1394 0.960 . S
C1382 H1395 0.962 . S
C1382 H1396 0.960 . S
C1383 C1380 1.511 . S
C1383 H1397 0.961 . S
C1383 H1398 0.961 . S
C1383 H1399 0.961 . S
C1384 C1385 1.370 . S
C1384 C1386 1.363 . S
C1384 H1400 0.931 . S
C1385 C1384 1.370 . S
C1385 C1389 1.408 . S
C1386 C1384 1.363 . S
C1386 C1387 1.370 . S
C1386 C1390 1.524 . S
C1387 C1379 1.503 . S
C1387 C1386 1.370 . S
C1387 C1388 1.403 . S
C1388 C1387 1.403 . S
C1388 C1389 1.404 . S
C1388 C1391 1.539 . S
C1389 C1385 1.408 . S
C1389 C1388 1.404 . S
C1389 H1401 0.930 . S
C1390 C1386 1.524 . S
C1390 H1402 0.956 . S
C1390 H1403 0.961 . S
C1390 H1404 0.961 . S
C1391 C1388 1.539 . S
C1391 H1405 0.958 . S
C1391 H1406 0.961 . S
C1391 H1407 0.960 . S
H1392 C1376 0.931 . S
H1393 C1381 0.929 . S
H1394 C1382 0.960 . S
H1395 C1382 0.962 . S
H1396 C1382 0.960 . S
H1397 C1383 0.961 . S
H1398 C1383 0.961 . S
H1399 C1383 0.961 . S
H1400 C1384 0.931 . S
H1401 C1389 0.930 . S
H1402 C1390 0.956 . S
H1403 C1390 0.961 . S
H1404 C1390 0.961 . S
H1405 C1391 0.958 . S
H1406 C1391 0.961 . S
H1407 C1391 0.960 . S
C1408 C1409 1.391 . S
C1408 C1410 1.394 . S
C1408 H1424 0.931 . S
C1409 C1408 1.391 . S
C1409 C1413 1.376 . S
C1410 C1408 1.394 . S
C1410 C1411 1.369 . S
C1410 C1414 1.531 . S
C1411 C1410 1.369 . S
C1411 C1412 1.410 . S
C1411 C1419 1.503 . S
C1412 C1411 1.410 . S
C1412 C1413 1.392 . S
C1412 C1415 1.511 . S
C1413 C1409 1.376 . S
C1413 C1412 1.392 . S
C1413 H1425 0.967 . S
C1414 C1410 1.531 . S
C1414 H1426 0.960 . S
C1414 H1427 0.962 . S
C1414 H1428 0.960 . S
C1415 C1412 1.511 . S
C1415 H1429 0.961 . S
C1415 H1430 0.961 . S
C1415 H1431 0.961 . S
C1416 C1417 1.370 . S
C1416 C1418 1.363 . S
C1416 H1432 0.931 . S
C1417 C1416 1.370 . S
C1417 C1421 1.408 . S
C1418 C1416 1.363 . S
C1418 C1419 1.370 . S
C1418 C1422 1.524 . S
C1419 C1411 1.503 . S
C1419 C1418 1.370 . S
C1419 C1420 1.403 . S
C1420 C1419 1.403 . S
C1420 C1421 1.404 . S
C1420 C1423 1.539 . S
C1421 C1417 1.408 . S
C1421 C1420 1.404 . S
C1421 H1433 0.930 . S
C1422 C1418 1.524 . S
C1422 H1434 0.956 . S
C1422 H1435 0.961 . S
C1422 H1436 0.961 . S
C1423 C1420 1.539 . S
C1423 H1437 0.958 . S
C1423 H1438 0.961 . S
C1423 H1439 0.960 . S
H1424 C1408 0.931 . S
H1425 C1413 0.967 . S
H1426 C1414 0.960 . S
H1427 C1414 0.962 . S
H1428 C1414 0.960 . S
H1429 C1415 0.961 . S
H1430 C1415 0.961 . S
H1431 C1415 0.961 . S
H1432 C1416 0.931 . S
H1433 C1421 0.930 . S
H1434 C1422 0.956 . S
H1435 C1422 0.961 . S
H1436 C1422 0.961 . S
H1437 C1423 0.958 . S
H1438 C1423 0.961 . S
H1439 C1423 0.960 . S
C1440 C1441 1.391 . S
C1440 C1442 1.394 . S
C1440 H1456 0.931 . S
C1441 C1440 1.391 . S
C1441 C1445 1.376 . S
C1442 C1440 1.394 . S
C1442 C1443 1.369 . S
C1442 C1446 1.531 . S
C1443 C1442 1.369 . S
C1443 C1444 1.410 . S
C1443 C1451 1.503 . S
C1444 C1443 1.410 . S
C1444 C1445 1.392 . S
C1444 C1447 1.511 . S
C1445 C1441 1.376 . S
C1445 C1444 1.392 . S
C1445 H1457 0.929 . S
C1446 C1442 1.531 . S
C1446 H1458 0.960 . S
C1446 H1459 0.962 . S
C1446 H1460 0.960 . S
C1447 C1444 1.511 . S
C1447 H1461 0.961 . S
C1447 H1462 0.961 . S
C1447 H1463 0.961 . S
C1448 C1449 1.370 . S
C1448 C1450 1.363 . S
C1448 H1464 0.931 . S
C1449 C1448 1.370 . S
C1449 C1453 1.408 . S
C1450 C1448 1.363 . S
C1450 C1451 1.370 . S
C1450 C1454 1.524 . S
C1451 C1443 1.503 . S
C1451 C1450 1.370 . S
C1451 C1452 1.403 . S
C1452 C1451 1.403 . S
C1452 C1453 1.404 . S
C1452 C1455 1.539 . S
C1453 C1449 1.408 . S
C1453 C1452 1.404 . S
C1453 H1465 0.930 . S
C1454 C1450 1.524 . S
C1454 H1466 0.956 . S
C1454 H1467 0.961 . S
C1454 H1468 0.961 . S
C1455 C1452 1.539 . S
C1455 H1469 0.958 . S
C1455 H1470 0.961 . S
C1455 H1471 0.960 . S
H1456 C1440 0.931 . S
H1457 C1445 0.929 . S
H1458 C1446 0.960 . S
H1459 C1446 0.962 . S
H1460 C1446 0.960 . S
H1461 C1447 0.961 . S
H1462 C1447 0.961 . S
H1463 C1447 0.961 . S
H1464 C1448 0.931 . S
H1465 C1453 0.930 . S
H1466 C1454 0.956 . S
H1467 C1454 0.961 . S
H1468 C1454 0.961 . S
H1469 C1455 0.958 . S
H1470 C1455 0.961 . S
H1471 C1455 0.960 . S
C1472 C1473 1.391 . S
C1472 C1474 1.394 . S
C1472 H1488 0.931 . S
C1473 C1472 1.391 . S
C1473 C1477 1.376 . S
C1474 C1472 1.394 . S
C1474 C1475 1.369 . S
C1474 C1478 1.531 . S
C1475 C1474 1.369 . S
C1475 C1476 1.410 . S
C1475 C1483 1.503 . S
C1476 C1475 1.410 . S
C1476 C1477 1.392 . S
C1476 C1479 1.511 . S
C1477 C1473 1.376 . S
C1477 C1476 1.392 . S
C1477 H1489 0.929 . S
C1478 C1474 1.531 . S
C1478 H1490 0.960 . S
C1478 H1491 0.962 . S
C1478 H1492 0.960 . S
C1479 C1476 1.511 . S
C1479 H1493 0.961 . S
C1479 H1494 0.961 . S
C1479 H1495 0.961 . S
C1480 C1481 1.370 . S
C1480 C1482 1.363 . S
C1480 H1496 0.931 . S
C1481 C1480 1.370 . S
C1481 C1485 1.408 . S
C1482 C1480 1.363 . S
C1482 C1483 1.370 . S
C1482 C1486 1.524 . S
C1483 C1475 1.503 . S
C1483 C1482 1.370 . S
C1483 C1484 1.403 . S
C1484 C1483 1.403 . S
C1484 C1485 1.404 . S
C1484 C1487 1.539 . S
C1485 C1481 1.408 . S
C1485 C1484 1.404 . S
C1485 H1497 0.930 . S
C1486 C1482 1.524 . S
C1486 H1498 0.956 . S
C1486 H1499 0.961 . S
C1486 H1500 0.961 . S
C1487 C1484 1.539 . S
C1487 H1501 0.958 . S
C1487 H1502 0.961 . S
C1487 H1503 0.960 . S
H1488 C1472 0.931 . S
H1489 C1477 0.929 . S
H1490 C1478 0.960 . S
H1491 C1478 0.962 . S
H1492 C1478 0.960 . S
H1493 C1479 0.961 . S
H1494 C1479 0.961 . S
H1495 C1479 0.961 . S
H1496 C1480 0.931 . S
H1497 C1485 0.930 . S
H1498 C1486 0.956 . S
H1499 C1486 0.961 . S
H1500 C1486 0.961 . S
H1501 C1487 0.958 . S
H1502 C1487 0.961 . S
H1503 C1487 0.960 . S
C1504 C1505 1.391 . S
C1504 C1506 1.394 . S
C1504 H1520 0.931 . S
C1505 C1504 1.391 . S
C1505 C1509 1.376 . S
C1506 C1504 1.394 . S
C1506 C1507 1.369 . S
C1506 C1510 1.531 . S
C1507 C1506 1.369 . S
C1507 C1508 1.410 . S
C1507 C1515 1.503 . S
C1508 C1507 1.410 . S
C1508 C1509 1.392 . S
C1508 C1511 1.511 . S
C1509 C1505 1.376 . S
C1509 C1508 1.392 . S
C1509 H1521 0.929 . S
C1510 C1506 1.531 . S
C1510 H1522 0.960 . S
C1510 H1523 0.962 . S
C1510 H1524 0.960 . S
C1511 C1508 1.511 . S
C1511 H1525 0.961 . S
C1511 H1526 0.961 . S
C1511 H1527 0.961 . S
C1512 C1513 1.370 . S
C1512 C1514 1.363 . S
C1512 H1528 0.931 . S
C1513 C1512 1.370 . S
C1513 C1517 1.408 . S
C1514 C1512 1.363 . S
C1514 C1515 1.370 . S
C1514 C1518 1.524 . S
C1515 C1507 1.503 . S
C1515 C1514 1.370 . S
C1515 C1516 1.403 . S
C1516 C1515 1.403 . S
C1516 C1517 1.404 . S
C1516 C1519 1.539 . S
C1517 C1513 1.408 . S
C1517 C1516 1.404 . S
C1517 H1529 0.930 . S
C1518 C1514 1.524 . S
C1518 H1530 0.956 . S
C1518 H1531 0.961 . S
C1518 H1532 0.961 . S
C1519 C1516 1.539 . S
C1519 H1533 0.958 . S
C1519 H1534 0.961 . S
C1519 H1535 0.960 . S
H1520 C1504 0.931 . S
H1521 C1509 0.929 . S
H1522 C1510 0.960 . S
H1523 C1510 0.962 . S
H1524 C1510 0.960 . S
H1525 C1511 0.961 . S
H1526 C1511 0.961 . S
H1527 C1511 0.961 . S
H1528 C1512 0.931 . S
H1529 C1517 0.930 . S
H1530 C1518 0.956 . S
H1531 C1518 0.961 . S
H1532 C1518 0.961 . S
H1533 C1519 0.958 . S
H1534 C1519 0.961 . S
H1535 C1519 0.960 . S
C1536 C1537 1.391 . S
C1536 C1538 1.394 . S
C1536 H1552 0.931 1_455 S
C1537 C1536 1.391 . S
C1537 C1541 1.376 . S
C1538 C1536 1.394 . S
C1538 C1539 1.369 . S
C1538 C1542 1.531 . S
C1539 C1538 1.369 . S
C1539 C1540 1.410 . S
C1539 C1547 1.503 . S
C1540 C1539 1.410 . S
C1540 C1541 1.392 . S
C1540 C1543 1.511 . S
C1541 C1537 1.376 . S
C1541 C1540 1.392 . S
C1541 H1553 0.929 . S
C1542 C1538 1.531 . S
C1542 H1554 0.960 . S
C1542 H1555 0.962 . S
C1542 H1556 0.960 . S
C1543 C1540 1.511 . S
C1543 H1557 0.961 . S
C1543 H1558 0.961 . S
C1543 H1559 0.961 . S
C1544 C1545 1.370 . S
C1544 C1546 1.363 . S
C1544 H1560 0.931 . S
C1545 C1544 1.370 . S
C1545 C1549 1.408 . S
C1546 C1544 1.363 . S
C1546 C1547 1.370 . S
C1546 C1550 1.524 . S
C1547 C1539 1.503 . S
C1547 C1546 1.370 . S
C1547 C1548 1.403 . S
C1548 C1547 1.403 . S
C1548 C1549 1.404 . S
C1548 C1551 1.539 . S
C1549 C1545 1.408 . S
C1549 C1548 1.404 . S
C1549 H1561 0.930 . S
C1550 C1546 1.524 . S
C1550 H1562 0.956 . S
C1550 H1563 0.961 . S
C1550 H1564 0.961 . S
C1551 C1548 1.539 . S
C1551 H1565 0.958 . S
C1551 H1566 0.961 . S
C1551 H1567 0.960 . S
H1552 C1536 0.931 1_655 S
H1553 C1541 0.929 . S
H1554 C1542 0.960 . S
H1555 C1542 0.962 . S
H1556 C1542 0.960 . S
H1557 C1543 0.961 . S
H1558 C1543 0.961 . S
H1559 C1543 0.961 . S
H1560 C1544 0.931 . S
H1561 C1549 0.930 . S
H1562 C1550 0.956 . S
H1563 C1550 0.961 . S
H1564 C1550 0.961 . S
H1565 C1551 0.958 . S
H1566 C1551 0.961 . S
H1567 C1551 0.960 . S
C1568 C1569 1.391 . S
C1568 C1570 1.394 . S
C1568 H1584 0.931 . S
C1569 C1568 1.391 . S
C1569 C1573 1.376 . S
C1570 C1568 1.394 . S
C1570 C1571 1.369 . S
C1570 C1574 1.531 . S
C1571 C1570 1.369 . S
C1571 C1572 1.410 . S
C1571 C1579 1.503 . S
C1572 C1571 1.410 . S
C1572 C1573 1.392 . S
C1572 C1575 1.511 . S
C1573 C1569 1.376 . S
C1573 C1572 1.392 . S
C1573 H1585 0.929 . S
C1574 C1570 1.531 . S
C1574 H1586 0.960 . S
C1574 H1587 0.962 . S
C1574 H1588 0.960 . S
C1575 C1572 1.511 . S
C1575 H1589 0.961 . S
C1575 H1590 0.961 . S
C1575 H1591 0.961 . S
C1576 C1577 1.370 . S
C1576 C1578 1.363 . S
C1576 H1592 0.931 . S
C1577 C1576 1.370 . S
C1577 C1581 1.408 . S
C1578 C1576 1.363 . S
C1578 C1579 1.370 . S
C1578 C1582 1.524 . S
C1579 C1571 1.503 . S
C1579 C1578 1.370 . S
C1579 C1580 1.403 . S
C1580 C1579 1.403 . S
C1580 C1581 1.404 . S
C1580 C1583 1.539 . S
C1581 C1577 1.408 . S
C1581 C1580 1.404 . S
C1581 H1593 0.930 . S
C1582 C1578 1.524 . S
C1582 H1594 0.956 . S
C1582 H1595 0.961 . S
C1582 H1596 0.961 . S
C1583 C1580 1.539 . S
C1583 H1597 0.958 . S
C1583 H1598 0.961 . S
C1583 H1599 0.960 . S
H1584 C1568 0.931 . S
H1585 C1573 0.929 . S
H1586 C1574 0.960 . S
H1587 C1574 0.962 . S
H1588 C1574 0.960 . S
H1589 C1575 0.961 . S
H1590 C1575 0.961 . S
H1591 C1575 0.961 . S
H1592 C1576 0.931 . S
H1593 C1581 0.930 . S
H1594 C1582 0.956 . S
H1595 C1582 0.961 . S
H1596 C1582 0.961 . S
H1597 C1583 0.958 . S
H1598 C1583 0.961 . S
H1599 C1583 0.960 . S
C1600 C1601 1.391 . S
C1600 C1602 1.394 . S
C1600 H1616 0.931 . S
C1601 C1600 1.391 . S
C1601 C1605 1.376 . S
C1602 C1600 1.394 . S
C1602 C1603 1.369 . S
C1602 C1606 1.531 . S
C1603 C1602 1.369 . S
C1603 C1604 1.410 . S
C1603 C1611 1.503 . S
C1604 C1603 1.410 . S
C1604 C1605 1.392 . S
C1604 C1607 1.511 . S
C1605 C1601 1.376 . S
C1605 C1604 1.392 . S
C1605 H1617 0.929 . S
C1606 C1602 1.531 . S
C1606 H1618 0.960 . S
C1606 H1619 0.962 . S
C1606 H1620 0.960 . S
C1607 C1604 1.511 . S
C1607 H1621 0.961 . S
C1607 H1622 0.961 . S
C1607 H1623 0.961 . S
C1608 C1609 1.370 . S
C1608 C1610 1.363 . S
C1608 H1624 0.931 . S
C1609 C1608 1.370 . S
C1609 C1613 1.408 . S
C1610 C1608 1.363 . S
C1610 C1611 1.370 . S
C1610 C1614 1.524 . S
C1611 C1603 1.503 . S
C1611 C1610 1.370 . S
C1611 C1612 1.403 . S
C1612 C1611 1.403 . S
C1612 C1613 1.404 . S
C1612 C1615 1.539 . S
C1613 C1609 1.408 . S
C1613 C1612 1.404 . S
C1613 H1625 0.930 . S
C1614 C1610 1.524 . S
C1614 H1626 0.956 . S
C1614 H1627 0.961 . S
C1614 H1628 0.961 . S
C1615 C1612 1.539 . S
C1615 H1629 0.958 . S
C1615 H1630 0.961 . S
C1615 H1631 0.960 . S
H1616 C1600 0.931 . S
H1617 C1605 0.929 . S
H1618 C1606 0.960 . S
H1619 C1606 0.962 . S
H1620 C1606 0.960 . S
H1621 C1607 0.961 . S
H1622 C1607 0.961 . S
H1623 C1607 0.961 . S
H1624 C1608 0.931 . S
H1625 C1613 0.930 . S
H1626 C1614 0.956 . S
H1627 C1614 0.961 . S
H1628 C1614 0.961 . S
H1629 C1615 0.958 . S
H1630 C1615 0.961 . S
H1631 C1615 0.960 . S
C1632 C1633 1.391 . S
C1632 C1634 1.394 . S
C1632 H1648 0.931 . S
C1633 C1632 1.391 . S
C1633 C1637 1.376 . S
C1634 C1632 1.394 . S
C1634 C1635 1.369 . S
C1634 C1638 1.531 . S
C1635 C1634 1.369 . S
C1635 C1636 1.410 . S
C1635 C1643 1.503 . S
C1636 C1635 1.410 . S
C1636 C1637 1.392 . S
C1636 C1639 1.511 . S
C1637 C1633 1.376 . S
C1637 C1636 1.392 . S
C1637 H1649 0.929 . S
C1638 C1634 1.531 . S
C1638 H1650 0.960 . S
C1638 H1651 0.962 . S
C1638 H1652 0.960 . S
C1639 C1636 1.511 . S
C1639 H1653 0.961 . S
C1639 H1654 0.961 . S
C1639 H1655 0.961 . S
C1640 C1641 1.370 . S
C1640 C1642 1.363 . S
C1640 H1656 0.931 . S
C1641 C1640 1.370 . S
C1641 C1645 1.408 . S
C1642 C1640 1.363 . S
C1642 C1643 1.370 . S
C1642 C1646 1.524 . S
C1643 C1635 1.503 . S
C1643 C1642 1.370 . S
C1643 C1644 1.403 . S
C1644 C1643 1.403 . S
C1644 C1645 1.404 . S
C1644 C1647 1.539 . S
C1645 C1641 1.408 . S
C1645 C1644 1.404 . S
C1645 H1657 0.930 . S
C1646 C1642 1.524 . S
C1646 H1658 0.956 . S
C1646 H1659 0.961 . S
C1646 H1660 0.961 . S
C1647 C1644 1.539 . S
C1647 H1661 0.958 . S
C1647 H1662 0.961 . S
C1647 H1663 0.960 . S
H1648 C1632 0.931 . S
H1649 C1637 0.929 . S
H1650 C1638 0.960 . S
H1651 C1638 0.962 . S
H1652 C1638 0.960 . S
H1653 C1639 0.961 . S
H1654 C1639 0.961 . S
H1655 C1639 0.961 . S
H1656 C1640 0.931 . S
H1657 C1645 0.930 . S
H1658 C1646 0.956 . S
H1659 C1646 0.961 . S
H1660 C1646 0.961 . S
H1661 C1647 0.958 . S
H1662 C1647 0.961 . S
H1663 C1647 0.960 . S
C1664 C1665 1.391 . S
C1664 C1666 1.394 . S
C1664 H1680 0.931 . S
C1665 C1664 1.391 . S
C1665 C1669 1.376 . S
C1666 C1664 1.394 . S
C1666 C1667 1.369 . S
C1666 C1670 1.531 . S
C1667 C1666 1.369 . S
C1667 C1668 1.410 . S
C1667 C1675 1.503 . S
C1668 C1667 1.410 . S
C1668 C1669 1.392 . S
C1668 C1671 1.511 . S
C1669 C1665 1.376 . S
C1669 C1668 1.392 . S
C1669 H1681 0.929 . S
C1670 C1666 1.531 . S
C1670 H1682 0.960 . S
C1670 H1683 0.962 . S
C1670 H1684 0.960 . S
C1671 C1668 1.511 . S
C1671 H1685 0.961 . S
C1671 H1686 0.961 . S
C1671 H1687 0.961 . S
C1672 C1673 1.370 . S
C1672 C1674 1.363 . S
C1672 H1688 0.931 . S
C1673 C1672 1.370 . S
C1673 C1677 1.408 . S
C1674 C1672 1.363 . S
C1674 C1675 1.370 . S
C1674 C1678 1.524 . S
C1675 C1667 1.503 . S
C1675 C1674 1.370 . S
C1675 C1676 1.403 . S
C1676 C1675 1.403 . S
C1676 C1677 1.404 . S
C1676 C1679 1.539 . S
C1677 C1673 1.408 . S
C1677 C1676 1.404 . S
C1677 H1689 0.930 . S
C1678 C1674 1.524 . S
C1678 H1690 0.956 . S
C1678 H1691 0.961 . S
C1678 H1692 0.961 . S
C1679 C1676 1.539 . S
C1679 H1693 0.958 . S
C1679 H1694 0.961 . S
C1679 H1695 0.960 . S
H1680 C1664 0.931 . S
H1681 C1669 0.929 . S
H1682 C1670 0.960 . S
H1683 C1670 0.962 . S
H1684 C1670 0.960 . S
H1685 C1671 0.961 . S
H1686 C1671 0.961 . S
H1687 C1671 0.961 . S
H1688 C1672 0.931 . S
H1689 C1677 0.930 . S
H1690 C1678 0.956 . S
H1691 C1678 0.961 . S
H1692 C1678 0.961 . S
H1693 C1679 0.958 . S
H1694 C1679 0.961 . S
H1695 C1679 0.960 . S
C1696 C1697 1.391 . S
C1696 C1698 1.394 . S
C1696 H1712 0.931 . S
C1697 C1696 1.391 . S
C1697 C1701 1.376 . S
C1698 C1696 1.394 . S
C1698 C1699 1.369 . S
C1698 C1702 1.531 . S
C1699 C1698 1.369 . S
C1699 C1700 1.410 1_565 S
C1699 C1707 1.502 1_566 S
C1700 C1699 1.410 1_545 S
C1700 C1701 1.392 1_545 S
C1700 C1703 1.511 . S
C1701 C1697 1.376 . S
C1701 C1700 1.392 1_565 S
C1701 H1713 0.929 1_565 S
C1702 C1698 1.531 . S
C1702 H1714 0.960 1_556 S
C1702 H1715 0.962 . S
C1702 H1716 0.960 . S
C1703 C1700 1.511 . S
C1703 H1717 0.961 . S
C1703 H1718 0.961 . S
C1703 H1719 0.961 . S
C1704 C1705 1.370 . S
C1704 C1706 1.363 . S
C1704 H1720 0.931 . S
C1705 C1704 1.370 . S
C1705 C1709 1.408 1_545 S
C1706 C1704 1.363 . S
C1706 C1707 1.375 . S
C1706 C1710 1.524 . S
C1707 C1699 1.502 1_544 S
C1707 C1706 1.375 . S
C1707 C1708 1.400 1_545 S
C1708 C1707 1.400 1_565 S
C1708 C1709 1.404 . S
C1708 C1711 1.539 . S
C1709 C1705 1.408 1_565 S
C1709 C1708 1.404 . S
C1709 H1721 0.930 . S
C1710 C1706 1.524 . S
C1710 H1722 0.956 1_554 S
C1710 H1723 0.961 1_554 S
C1710 H1724 0.961 . S
C1711 C1708 1.539 . S
C1711 H1725 0.958 . S
C1711 H1726 0.961 . S
C1711 H1727 0.960 . S
H1712 C1696 0.931 . S
H1713 C1701 0.929 1_545 S
H1714 C1702 0.960 1_554 S
H1715 C1702 0.962 . S
H1716 C1702 0.960 . S
H1717 C1703 0.961 . S
H1718 C1703 0.961 . S
H1719 C1703 0.961 . S
H1720 C1704 0.931 . S
H1721 C1709 0.930 . S
H1722 C1710 0.956 1_556 S
H1723 C1710 0.961 1_556 S
H1724 C1710 0.961 . S
H1725 C1711 0.958 . S
H1726 C1711 0.961 . S
H1727 C1711 0.960 . S
C1728 C1729 1.391 . S
C1728 C1730 1.394 . S
C1728 H1744 0.931 . S
C1729 C1728 1.391 . S
C1729 C1733 1.376 1_455 S
C1730 C1728 1.394 . S
C1730 C1731 1.369 . S
C1730 C1734 1.531 . S
C1731 C1730 1.369 . S
C1731 C1732 1.410 1_455 S
C1731 C1739 1.503 1_456 S
C1732 C1731 1.410 1_655 S
C1732 C1733 1.392 . S
C1732 C1735 1.511 . S
C1733 C1729 1.376 1_655 S
C1733 C1732 1.392 . S
C1733 H1745 0.929 . S
C1734 C1730 1.531 . S
C1734 H1746 0.960 1_556 S
C1734 H1747 0.962 1_556 S
C1734 H1748 0.960 . S
C1735 C1732 1.511 . S
C1735 H1749 0.961 . S
C1735 H1750 0.961 . S
C1735 H1751 0.961 . S
C1736 C1737 1.370 . S
C1736 C1738 1.370 . S
C1736 H1752 0.931 . S
C1737 C1736 1.370 . S
C1737 C1741 1.408 . S
C1738 C1736 1.370 . S
C1738 C1739 1.375 . S
C1738 C1742 1.513 1_655 S
C1739 C1731 1.503 1_654 S
C1739 C1738 1.375 . S
C1739 C1740 1.403 . S
C1740 C1739 1.403 . S
C1740 C1741 1.404 . S
C1740 C1743 1.539 . S
C1741 C1737 1.408 . S
C1741 C1740 1.404 . S
C1741 H1753 0.930 . S
C1742 C1738 1.513 1_455 S
C1742 H1754 0.956 . S
C1742 H1755 0.957 1_454 S
C1742 H1756 0.961 . S
C1743 C1740 1.539 . S
C1743 H1757 0.958 . S
C1743 H1758 0.961 . S
C1743 H1759 0.960 1_554 S
H1744 C1728 0.931 . S
H1745 C1733 0.929 . S
H1746 C1734 0.960 1_554 S
H1747 C1734 0.962 1_554 S
H1748 C1734 0.960 . S
H1749 C1735 0.961 . S
H1750 C1735 0.961 . S
H1751 C1735 0.961 . S
H1752 C1736 0.931 . S
H1753 C1741 0.930 . S
H1754 C1742 0.956 . S
H1755 C1742 0.957 1_656 S
H1756 C1742 0.961 . S
H1757 C1743 0.958 . S
H1758 C1743 0.961 . S
H1759 C1743 0.960 1_556 S
C1760 C1761 1.391 . S
C1760 C1762 1.394 . S
C1760 H1776 0.931 . S
C1761 C1760 1.391 . S
C1761 C1765 1.376 . S
C1762 C1760 1.394 . S
C1762 C1763 1.369 . S
C1762 C1766 1.531 . S
C1763 C1762 1.369 . S
C1763 C1764 1.410 . S
C1763 C1771 1.513 1_554 S
C1764 C1763 1.410 . S
C1764 C1765 1.392 . S
C1764 C1767 1.511 . S
C1765 C1761 1.376 . S
C1765 C1764 1.392 . S
C1765 H1777 0.929 . S
C1766 C1762 1.531 . S
C1766 H1778 0.960 1_554 S
C1766 H1779 0.950 1_565 S
C1766 H1780 0.960 . S
C1767 C1764 1.511 . S
C1767 H1781 0.961 1_565 S
C1767 H1782 0.937 1_564 S
C1767 H1783 0.961 . S
C1768 C1769 1.370 . S
C1768 C1770 1.363 . S
C1768 H1784 0.931 . S
C1769 C1768 1.370 . S
C1769 C1773 1.408 1_545 S
C1770 C1768 1.363 . S
C1770 C1771 1.339 1_545 S
C1770 C1774 1.510 1_556 S
C1771 C1763 1.513 1_556 S
C1771 C1770 1.339 1_565 S
C1771 C1772 1.425 . S
C1772 C1771 1.425 . S
C1772 C1773 1.404 . S
C1772 C1775 1.539 . S
C1773 C1769 1.408 1_565 S
C1773 C1772 1.404 . S
C1773 H1785 0.930 . S
C1774 C1770 1.510 1_554 S
C1774 H1786 0.966 . S
C1774 H1787 0.974 . S
C1774 H1788 0.953 1_554 S
C1775 C1772 1.539 . S
C1775 H1789 0.958 . S
C1775 H1790 0.961 . S
C1775 H1791 0.960 . S
H1776 C1760 0.931 . S
H1777 C1765 0.929 . S
H1778 C1766 0.960 1_556 S
H1779 C1766 0.950 1_545 S
H1780 C1766 0.960 . S
H1781 C1767 0.961 1_545 S
H1782 C1767 0.937 1_546 S
H1783 C1767 0.961 . S
H1784 C1768 0.931 . S
H1785 C1773 0.930 . S
H1786 C1774 0.966 . S
H1787 C1774 0.974 . S
H1788 C1774 0.953 1_556 S
H1789 C1775 0.958 . S
H1790 C1775 0.961 . S
H1791 C1775 0.960 . S
C1792 C1793 1.391 . S
C1792 C1794 1.394 . S
C1792 H1808 0.931 . S
C1793 C1792 1.391 . S
C1793 C1797 1.376 1_655 S
C1794 C1792 1.394 . S
C1794 C1795 1.369 . S
C1794 C1798 1.531 . S
C1795 C1794 1.369 . S
C1795 C1796 1.409 1_655 S
C1795 C1803 1.503 1_656 S
C1796 C1795 1.409 1_455 S
C1796 C1797 1.392 . S
C1796 C1799 1.511 . S
C1797 C1793 1.376 1_455 S
C1797 C1796 1.392 . S
C1797 H1809 0.929 . S
C1798 C1794 1.531 . S
C1798 H1810 0.960 1_556 S
C1798 H1811 0.962 1_556 S
C1798 H1812 0.960 . S
C1799 C1796 1.511 . S
C1799 H1813 0.961 . S
C1799 H1814 0.961 . S
C1799 H1815 0.961 . S
C1800 C1801 1.366 1_655 S
C1800 C1802 1.364 . S
C1800 H1816 0.934 . S
C1801 C1800 1.366 1_455 S
C1801 C1805 1.408 . S
C1802 C1800 1.364 . S
C1802 C1803 1.370 1_655 S
C1802 C1806 1.524 . S
C1803 C1795 1.503 1_454 S
C1803 C1802 1.370 1_455 S
C1803 C1804 1.403 . S
C1804 C1803 1.403 . S
C1804 C1805 1.404 . S
C1804 C1807 1.539 . S
C1805 C1801 1.408 . S
C1805 C1804 1.404 . S
C1805 H1817 0.930 . S
C1806 C1802 1.524 . S
C1806 H1818 0.956 . S
C1806 H1819 0.961 . S
C1806 H1820 0.961 . S
C1807 C1804 1.539 . S
C1807 H1821 0.958 . S
C1807 H1822 0.961 . S
C1807 H1823 0.960 1_554 S
H1808 C1792 0.931 . S
H1809 C1797 0.929 . S
H1810 C1798 0.960 1_554 S
H1811 C1798 0.962 1_554 S
H1812 C1798 0.960 . S
H1813 C1799 0.961 . S
H1814 C1799 0.961 . S
H1815 C1799 0.961 . S
H1816 C1800 0.934 . S
H1817 C1805 0.930 . S
H1818 C1806 0.956 . S
H1819 C1806 0.961 . S
H1820 C1806 0.961 . S
H1821 C1807 0.958 . S
H1822 C1807 0.961 . S
H1823 C1807 0.960 1_556 S
C545 C73 0.271 . S
C553 C5 0.435 . S
C577 C107 0.483 . S
C585 C39 0.340 . S
C609 C209 0.283 . S
C617 C141 0.429 . S
C641 C175 0.349 . S
C649 C243 0.430 . S
C673 C277 0.500 . S
C681 C345 0.340 . S
C705 C311 0.271 . S
C713 C379 0.430 . S
C737 C481 0.274 . S
C745 C413 0.433 . S
C769 C515 0.327 . S
C777 C447 0.434 . S
C801 C9 1.512 . S
C809 C247 1.510 . S
C833 C145 1.500 . S
C841 C43 1.508 . S
C865 C179 1.504 . S
C873 C77 1.510 . S
C897 C213 1.508 . S
C905 C111 1.511 . S
C929 C519 1.523 . S
C937 C281 1.516 . S
C961 C417 1.497 . S
C969 C315 1.506 . S
C993 C451 1.515 . S
C1001 C349 1.514 . S
C1025 C485 1.488 . S
C1033 C383 1.502 . S
C1057 C33 1.398 . S
C1065 C376 1.420 . S
C1089 C67 1.321 . S
C1097 C274 1.405 . S
C1121 C101 1.353 . S
C1129 C308 1.421 . S
C1153 C342 1.400 . S
C1161 C135 1.365 . S
C1185 C169 1.369 . S
C1193 C444 1.423 . S
C1217 C203 1.381 . S
C1225 C478 1.423 . S
C1249 C237 1.394 . S
C1257 C512 1.422 . S
C1281 C271 1.322 . S
C1289 C410 1.409 . S
C1313 C104 1.392 . S
C1321 C305 1.347 . S
C1345 C2 1.388 . S
C1353 C339 1.348 . S
C1377 C36 1.433 . S
C1385 C373 1.371 . S
C1409 C407 1.319 . S
C1417 C70 1.408 . S
C1441 C441 1.343 . S
C1449 C172 1.405 . S
C1473 C475 1.398 . S
C1481 C206 1.420 . S
C1505 C509 1.344 . S
C1513 C240 1.405 . S
C1537 C543 1.392 . S
C1545 C138 1.417 . S
C1569 C156 1.753 . S
C1577 C20 1.763 . S
C1601 C190 1.773 . S
C1609 C54 1.773 . S
C1633 C88 1.753 . S
C1641 C224 1.764 . S
C1665 C258 1.776 . S
C1673 C122 1.771 . S
C1697 C292 1.774 . S
C1705 C428 1.771 . S
C1729 C462 1.748 . S
C1737 C326 1.762 . S
C1761 C496 1.767 . S
C1769 C360 1.768 . S
C1793 C530 1.750 . S
C1801 C394 1.764 . S
