# Generated by pormake.
# Topology zfk, (5)-cn, num edge types: 1
# Building blocks:
#     Node 0, Type 0, BuildingBlock: BEQFEK_clean_sbu_0, # of connection points: 5
#     Node 1, Type 0, BuildingBlock: BEQFEK_clean_sbu_0, # of connection points: 5
#     Node 2, Type 0, BuildingBlock: BEQFEK_clean_sbu_0, # of connection points: 5
#     Node 3, Type 0, BuildingBlock: BEQFEK_clean_sbu_0, # of connection points: 5
#     Node 4, Type 0, BuildingBlock: BEQFEK_clean_sbu_0, # of connection points: 5
#     Node 5, Type 0, BuildingBlock: BEQFEK_clean_sbu_0, # of connection points: 5
#     Node 6, Type 0, BuildingBlock: BEQFEK_clean_sbu_0, # of connection points: 5
#     Node 7, Type 0, BuildingBlock: BEQFEK_clean_sbu_0, # of connection points: 5
#     Node 8, Type 0, BuildingBlock: BEQFEK_clean_sbu_0, # of connection points: 5
#     Node 9, Type 0, BuildingBlock: BEQFEK_clean_sbu_0, # of connection points: 5
#     Node 10, Type 0, BuildingBlock: BEQFEK_clean_sbu_0, # of connection points: 5
#     Node 11, Type 0, BuildingBlock: BEQFEK_clean_sbu_0, # of connection points: 5
#     Node 12, Type 0, BuildingBlock: BEQFEK_clean_sbu_0, # of connection points: 5
#     Node 13, Type 0, BuildingBlock: BEQFEK_clean_sbu_0, # of connection points: 5
#     Node 14, Type 0, BuildingBlock: BEQFEK_clean_sbu_0, # of connection points: 5
#     Node 15, Type 0, BuildingBlock: BEQFEK_clean_sbu_0, # of connection points: 5
#     Edge 16, Type (0, 0), BuildingBlock: UVAHIK_clean_linker_0, # of connection points: 2
#     Edge 17, Type (0, 0), BuildingBlock: UVAHIK_clean_linker_0, # of connection points: 2
#     Edge 18, Type (0, 0), BuildingBlock: UVAHIK_clean_linker_0, # of connection points: 2
#     Edge 19, Type (0, 0), BuildingBlock: UVAHIK_clean_linker_0, # of connection points: 2
#     Edge 20, Type (0, 0), BuildingBlock: UVAHIK_clean_linker_0, # of connection points: 2
#     Edge 21, Type (0, 0), BuildingBlock: UVAHIK_clean_linker_0, # of connection points: 2
#     Edge 22, Type (0, 0), BuildingBlock: UVAHIK_clean_linker_0, # of connection points: 2
#     Edge 23, Type (0, 0), BuildingBlock: UVAHIK_clean_linker_0, # of connection points: 2
#     Edge 24, Type (0, 0), BuildingBlock: UVAHIK_clean_linker_0, # of connection points: 2
#     Edge 25, Type (0, 0), BuildingBlock: UVAHIK_clean_linker_0, # of connection points: 2
#     Edge 26, Type (0, 0), BuildingBlock: UVAHIK_clean_linker_0, # of connection points: 2
#     Edge 27, Type (0, 0), BuildingBlock: UVAHIK_clean_linker_0, # of connection points: 2
#     Edge 28, Type (0, 0), BuildingBlock: UVAHIK_clean_linker_0, # of connection points: 2
#     Edge 29, Type (0, 0), BuildingBlock: UVAHIK_clean_linker_0, # of connection points: 2
#     Edge 30, Type (0, 0), BuildingBlock: UVAHIK_clean_linker_0, # of connection points: 2
#     Edge 31, Type (0, 0), BuildingBlock: UVAHIK_clean_linker_0, # of connection points: 2
#     Edge 32, Type (0, 0), BuildingBlock: UVAHIK_clean_linker_0, # of connection points: 2
#     Edge 33, Type (0, 0), BuildingBlock: UVAHIK_clean_linker_0, # of connection points: 2
#     Edge 34, Type (0, 0), BuildingBlock: UVAHIK_clean_linker_0, # of connection points: 2
#     Edge 35, Type (0, 0), BuildingBlock: UVAHIK_clean_linker_0, # of connection points: 2
#     Edge 36, Type (0, 0), BuildingBlock: UVAHIK_clean_linker_0, # of connection points: 2
#     Edge 37, Type (0, 0), BuildingBlock: UVAHIK_clean_linker_0, # of connection points: 2
#     Edge 38, Type (0, 0), BuildingBlock: UVAHIK_clean_linker_0, # of connection points: 2
#     Edge 39, Type (0, 0), BuildingBlock: UVAHIK_clean_linker_0, # of connection points: 2
#     Edge 40, Type (0, 0), BuildingBlock: UVAHIK_clean_linker_0, # of connection points: 2
#     Edge 41, Type (0, 0), BuildingBlock: UVAHIK_clean_linker_0, # of connection points: 2
#     Edge 42, Type (0, 0), BuildingBlock: UVAHIK_clean_linker_0, # of connection points: 2
#     Edge 43, Type (0, 0), BuildingBlock: UVAHIK_clean_linker_0, # of connection points: 2
#     Edge 44, Type (0, 0), BuildingBlock: UVAHIK_clean_linker_0, # of connection points: 2
#     Edge 45, Type (0, 0), BuildingBlock: UVAHIK_clean_linker_0, # of connection points: 2
#     Edge 46, Type (0, 0), BuildingBlock: UVAHIK_clean_linker_0, # of connection points: 2
#     Edge 47, Type (0, 0), BuildingBlock: UVAHIK_clean_linker_0, # of connection points: 2
#     Edge 48, Type (0, 0), BuildingBlock: UVAHIK_clean_linker_0, # of connection points: 2
#     Edge 49, Type (0, 0), BuildingBlock: UVAHIK_clean_linker_0, # of connection points: 2
#     Edge 50, Type (0, 0), BuildingBlock: UVAHIK_clean_linker_0, # of connection points: 2
#     Edge 51, Type (0, 0), BuildingBlock: UVAHIK_clean_linker_0, # of connection points: 2
#     Edge 52, Type (0, 0), BuildingBlock: UVAHIK_clean_linker_0, # of connection points: 2
#     Edge 53, Type (0, 0), BuildingBlock: UVAHIK_clean_linker_0, # of connection points: 2
#     Edge 54, Type (0, 0), BuildingBlock: UVAHIK_clean_linker_0, # of connection points: 2
#     Edge 55, Type (0, 0), BuildingBlock: UVAHIK_clean_linker_0, # of connection points: 2
# Relax obj value: 0.179
# Max RMSD: 0.142
# Mean RMSD: 0.142
data_MOF--net-zfk--node1-BEQFEK_clean_sbu_0--edge1-UVAHIK_clean_linker_0
_symmetry_space_group_name_H-M    P1
_symmetry_Int_Tables_number       1
_symmetry_cell_setting            triclinic
loop_
_symmetry_equiv_pos_as_xyz
'x, y, z'
_cell_length_a     39.253995
_cell_length_b     39.340486
_cell_length_c     91.108664
_cell_angle_alpha  89.947029
_cell_angle_beta   89.949811
_cell_angle_gamma 90.042839
loop_
_atom_site_label
_atom_site_type_symbol
_atom_site_fract_x
_atom_site_fract_y
_atom_site_fract_z
_atom_type_partial_charge
Co0 Co 0.0227 0.3371 0.10389 0.0
Co1 Co 0.04548 0.34656 0.13698 0.0
C2 C 0.0002 0.29006 0.12867 0.0
O3 O 0.00118 0.29996 0.11534 0.0
O4 O 0.0157 0.30619 0.13882 0.0
C5 C 0.97756 0.32257 0.07932 0.0
O6 O 0.95445 0.31602 0.08937 0.0
C7 C 0.05183 0.359 0.16932 0.0
C8 C 0.09954 0.38891 0.16948 0.0
C9 C 0.07418 0.37631 0.17853 0.0
N10 N 0.06346 0.36163 0.15545 0.0
N11 N 0.0922 0.37915 0.15571 0.0
C12 C 0.01893 0.34236 0.17342 0.0
H13 H 0.00101 0.34294 0.164 0.0
H14 H 0.00732 0.3551 0.18307 0.0
H15 H 0.0239 0.31541 0.17631 0.0
C16 C 0.00452 0.40976 0.10781 0.0
N17 N 0.01527 0.37957 0.11301 0.0
N18 N 0.02324 0.38286 0.12698 0.0
C19 C 0.01693 0.41503 0.1312 0.0
C20 C 0.00508 0.43322 0.11919 0.0
C21 C -0.00446 0.41612 0.0921 0.0
H22 H 0.9758 0.39763 0.08861 0.0
H23 H 0.98597 0.44237 0.09041 0.0
H24 H 0.01839 0.41184 0.08517 0.0
O25 O 0.0717 0.32695 0.1027 0.0
O26 O 0.08618 0.33145 0.1261 0.0
H27 H 0.05388 0.43132 0.14687 0.0
H28 H 0.01459 0.45427 0.14801 0.0
C29 C 0.02583 0.42891 0.14602 0.0
H30 H 0.01671 0.41126 0.15465 0.0
H31 H 0.10647 0.38511 0.14638 0.0
O32 O 0.00644 0.33411 0.08324 0.0
C33 C 0.09376 0.32473 0.11284 0.0
Co34 Co 0.16186 0.01304 0.60806 0.0
Co35 Co 0.15436 0.04334 0.6402 0.0
C36 C 0.20316 0.98792 0.63418 0.0
O37 O 0.19384 0.98754 0.62079 0.0
O38 O 0.1893 0.00779 0.6435 0.0
C39 C 0.19424 0.98801 0.58348 0.0
O40 O 0.21937 -0.00573 0.5926 0.0
C41 C 0.13766 0.0537 0.67188 0.0
C42 C 0.12234 0.10775 0.67144 0.0
C43 C 0.1251 0.07985 0.68062 0.0
N44 N 0.14172 0.06565 0.65813 0.0
N45 N 0.13302 0.09811 0.65805 0.0
C46 C 0.14303 0.01742 0.67618 0.0
H47 H 0.14166 0.00071 0.66639 0.0
H48 H 0.12379 0.00943 0.68444 0.0
H49 H 0.16867 0.01478 0.68116 0.0
C50 C 0.08665 0.00699 0.61154 0.0
N51 N 0.11791 0.01475 0.61666 0.0
N52 N 0.11511 0.02653 0.63016 0.0
C53 C 0.08199 0.02637 0.63406 0.0
C54 C 0.06288 0.0139 0.62244 0.0
C55 C 0.07993 0.99369 0.59646 0.0
H56 H 0.09831 0.97313 0.59387 0.0
H57 H 0.0535 0.98396 0.59541 0.0
H58 H 0.08399 0.01446 0.58839 0.0
O59 O 0.18114 0.05902 0.60582 0.0
O60 O 0.17752 0.07874 0.62855 0.0
H61 H 0.07637 0.06806 0.64885 0.0
H62 H 0.04055 0.03993 0.64887 0.0
C63 C 0.06868 0.04104 0.6481 0.0
H64 H 0.07982 0.02707 0.6575 0.0
H65 H 0.13337 0.11347 0.64871 0.0
O66 O 0.16381 0.9931 0.58785 0.0
C67 C 0.1868 0.08213 0.61525 0.0
Co68 Co 0.4816 0.15519 0.10497 0.0
Co69 Co 0.45729 0.14174 0.13772 0.0
C70 C 0.49502 0.20417 0.13007 0.0
O71 O 0.49707 0.19447 0.11674 0.0
O72 O 0.48034 0.18617 0.13988 0.0
C73 C 0.52394 0.17757 0.08033 0.0
O74 O 0.54381 0.19125 0.0903 0.0
C75 C 0.44944 0.12838 0.17004 0.0
C76 C 0.40684 0.09163 0.1693 0.0
C77 C 0.42881 0.10795 0.17884 0.0
N78 N 0.44009 0.12394 0.15593 0.0
N79 N 0.41436 0.10226 0.15566 0.0
C80 C 0.47885 0.14988 0.17475 0.0
H81 H 0.49763 0.15228 0.16569 0.0
H82 H 0.49127 0.13891 0.18462 0.0
H83 H 0.4694 0.17566 0.17754 0.0
C84 C 0.50918 0.08587 0.10909 0.0
N85 N 0.49427 0.11423 0.11425 0.0
N86 N 0.48586 0.10955 0.12811 0.0
C87 C 0.49609 0.07838 0.13231 0.0
C88 C 0.51089 0.06217 0.12037 0.0
C89 C 0.519 0.08085 0.09338 0.0
H90 H 0.53609 0.10183 0.08989 0.0
H91 H 0.53204 0.05612 0.09171 0.0
H92 H 0.49581 0.08201 0.08644 0.0
O93 O 0.43179 0.1583 0.10313 0.0
O94 O 0.41567 0.1499 0.12613 0.0
H95 H 0.46039 0.05556 0.14702 0.0
H96 H 0.50298 0.03984 0.14915 0.0
C97 C 0.48767 0.06284 0.14688 0.0
H98 H 0.49241 0.08156 0.15572 0.0
H99 H 0.4023 0.09421 0.14607 0.0
O100 O 0.49847 0.15988 0.08439 0.0
C101 C 0.40855 0.15606 0.11279 0.0
Co102 Co 0.34132 0.45146 0.60204 0.0
Co103 Co 0.35106 0.43369 0.63565 0.0
C104 C 0.28319 0.44837 0.62443 0.0
O105 O 0.29626 0.45133 0.61169 0.0
O106 O 0.30145 0.44329 0.63579 0.0
C107 C 0.31697 0.49499 0.57859 0.0
O108 O 0.30573 0.51444 0.58925 0.0
C109 C 0.35637 0.42578 0.66835 0.0
C110 C 0.40725 0.40193 0.66976 0.0
C111 C 0.38046 0.41358 0.67822 0.0
N112 N 0.36866 0.42172 0.65464 0.0
N113 N 0.39884 0.40699 0.65563 0.0
C114 C 0.3231 0.44237 0.67184 0.0
H115 H 0.30227 0.42374 0.67007 0.0
H116 H 0.31879 0.46413 0.66431 0.0
H117 H 0.32234 0.45112 0.68342 0.0
C118 C 0.39944 0.49636 0.60868 0.0
N119 N 0.37364 0.47623 0.61303 0.0
N120 N 0.37636 0.47046 0.62722 0.0
C121 C 0.40323 0.48804 0.63241 0.0
C122 C 0.41952 0.50424 0.62078 0.0
C123 C 0.40706 0.50408 0.59293 0.0
H124 H 0.41098 0.47993 0.58687 0.0
H125 H 0.38487 0.51713 0.58795 0.0
H126 H 0.42991 0.52052 0.59178 0.0
O127 O 0.35526 0.40395 0.60027 0.0
O128 O 0.35761 0.3915 0.62396 0.0
H129 H 0.43443 0.46393 0.64859 0.0
H130 H 0.4297 0.50887 0.65113 0.0
C131 C 0.4162 0.48538 0.64782 0.0
H132 H 0.39479 0.48133 0.65554 0.0
H133 H 0.41402 0.40093 0.6466 0.0
O134 O 0.33432 0.46866 0.58171 0.0
C135 C 0.35946 0.38255 0.61055 0.0
Co136 Co 0.00778 0.15627 0.90999 0.0
Co137 Co 0.02628 0.14491 0.87648 0.0
C138 C 0.98674 0.20476 0.88548 0.0
O139 O 0.98809 0.19459 0.89877 0.0
O140 O 0.00025 0.18788 0.87503 0.0
C141 C 0.96631 0.17491 0.93525 0.0
O142 O 0.94369 0.18482 0.92553 0.0
C143 C 0.03304 0.13415 0.84393 0.0
C144 C 0.07287 0.09442 0.84404 0.0
C145 C 0.05215 0.11313 0.83481 0.0
N146 N 0.04195 0.12774 0.85795 0.0
N147 N 0.06608 0.10432 0.85784 0.0
C148 C 0.00575 0.15855 0.83952 0.0
H149 H 0.98556 0.15939 0.84805 0.0
H150 H 0.99457 0.15137 0.82877 0.0
H151 H 0.01698 0.18435 0.83855 0.0
C152 C 0.98568 0.08475 0.90684 0.0
N153 N -0.00365 0.11447 0.90114 0.0
N154 N 0.00157 0.11073 0.88695 0.0
C155 C 0.99292 0.07883 0.8831 0.0
C156 C 0.98327 0.06102 0.8956 0.0
C157 C 0.98079 0.07865 0.92291 0.0
H158 H 0.96285 0.09782 0.92737 0.0
H159 H 0.97071 0.05276 0.92509 0.0
H160 H 0.00551 0.08202 0.92863 0.0
O161 O 0.05742 0.16254 0.91034 0.0
O162 O 0.06913 0.15605 0.88674 0.0
H163 H 0.02403 0.0543 0.86702 0.0
H164 H 0.97984 0.04328 0.86587 0.0
C165 C -0.00223 0.0644 0.86803 0.0
H166 H 0.99347 0.08427 0.85963 0.0
H167 H 0.07757 0.09464 0.86729 0.0
O168 O 0.99341 0.16034 0.93088 0.0
C169 C 0.0786 0.16232 0.8998 0.0
Co170 Co 0.3288 0.00291 0.40725 0.0
Co171 Co 0.34335 0.02915 0.37485 0.0
C172 C 0.28305 0.98729 0.38105 0.0
O173 O 0.292 0.98559 0.39448 0.0
O174 O 0.3008 0.00327 0.37155 0.0
C175 C 0.2917 0.9874 0.43207 0.0
O176 O 0.26916 0.00161 0.42336 0.0
C177 C 0.35904 0.039 0.34291 0.0
C178 C 0.39251 0.08408 0.34433 0.0
C179 C 0.37857 0.06125 0.33448 0.0
N180 N 0.36165 0.0483 0.3571 0.0
N181 N 0.38138 0.07548 0.35779 0.0
C182 C 0.34017 0.0082 0.3378 0.0
H183 H 0.33879 0.98902 0.34672 0.0
H184 H 0.35264 -0.00296 0.32798 0.0
H185 H 0.3138 0.01564 0.33481 0.0
C186 C 0.40045 0.9805 0.40419 0.0
N187 N 0.37152 0.99363 0.39867 0.0
N188 N 0.37675 0.00276 0.38493 0.0
C189 C 0.40893 -0.00521 0.38117 0.0
C190 C 0.42513 0.98069 0.39327 0.0
C191 C 0.40481 0.97032 0.41989 0.0
H192 H 0.38384 0.95293 0.42312 0.0
H193 H 0.4297 0.95764 0.42172 0.0
H194 H 0.40304 0.99327 0.42692 0.0
O195 O 0.32196 0.05216 0.40944 0.0
O196 O 0.3303 0.06928 0.38656 0.0
H197 H 0.44938 0.99115 0.36492 0.0
H198 H 0.40741 -0.0015 0.35772 0.0
C199 C 0.42501 0.00453 0.36685 0.0
H200 H 0.43016 0.03223 0.36685 0.0
H201 H 0.38776 0.08785 0.36754 0.0
O202 O 0.32201 0.98351 0.42734 0.0
C203 C 0.32261 0.07558 0.39984 0.0
Co204 Co 0.46975 0.33039 0.90881 0.0
Co205 Co 0.45085 0.34464 0.87549 0.0
C206 C 0.48663 0.28196 0.8837 0.0
O207 O 0.48639 0.29142 0.8971 0.0
O208 O 0.47395 0.30027 0.87352 0.0
C209 C 0.51374 0.31353 0.9338 0.0
O210 O 0.53831 0.30972 0.92414 0.0
C211 C 0.44125 0.35395 0.84306 0.0
C212 C 0.40985 0.40058 0.84315 0.0
C213 C 0.42497 0.37715 0.83392 0.0
N214 N 0.43617 0.36356 0.85709 0.0
N215 N 0.41696 0.39115 0.857 0.0
C216 C 0.46211 0.3239 0.83861 0.0
H217 H 0.44766 0.30034 0.84111 0.0
H218 H 0.48598 0.32326 0.84512 0.0
H219 H 0.46824 0.32457 0.82672 0.0
C220 C 0.49907 0.3994 0.90576 0.0
N221 N 0.48412 0.37152 0.90015 0.0
N222 N 0.47867 0.3762 0.88602 0.0
C223 C 0.49151 0.40665 0.8821 0.0
C224 C 0.5043 0.42266 0.89451 0.0
C225 C 0.50658 0.40408 0.92172 0.0
H226 H 0.48312 0.39932 0.92822 0.0
H227 H 0.52582 0.38504 0.92516 0.0
H228 H 0.51652 0.42991 0.92408 0.0
O229 O 0.41982 0.3274 0.90941 0.0
O230 O 0.40771 0.3355 0.88594 0.0
H231 H 0.46501 0.43637 0.86612 0.0
H232 H 0.51042 0.43891 0.86467 0.0
C233 C 0.48892 0.42151 0.867 0.0
H234 H 0.48914 0.40112 0.85864 0.0
H235 H 0.40893 0.40377 0.86646 0.0
O236 O 0.48466 0.32383 0.92954 0.0
C237 C 0.39834 0.32916 0.89902 0.0
Co238 Co 0.15059 0.46295 0.40994 0.0
Co239 Co 0.14011 0.44109 0.37678 0.0
C240 C 0.19989 0.48161 0.38552 0.0
O241 O 0.18931 0.48167 0.39875 0.0
O242 O 0.18345 0.46677 0.37528 0.0
C243 C 0.16802 0.50613 0.43484 0.0
O244 O 0.17659 0.52903 0.425 0.0
C245 C 0.12847 0.43573 0.34431 0.0
C246 C 0.09354 0.39162 0.34403 0.0
C247 C 0.10924 0.41523 0.33502 0.0
N248 N 0.12394 0.42478 0.3582 0.0
N249 N 0.1034 0.39815 0.35786 0.0
C250 C 0.14883 0.46646 0.34026 0.0
H251 H 0.14974 0.48452 0.3496 0.0
H252 H 0.13788 0.47912 0.33045 0.0
H253 H 0.17527 0.45852 0.33765 0.0
C254 C 0.08005 0.48741 0.4057 0.0
N255 N 0.10936 0.47429 0.40058 0.0
N256 N 0.10576 0.46687 0.38657 0.0
C257 C 0.07425 0.47591 0.38225 0.0
C258 C 0.05679 0.48893 0.39426 0.0
C259 C 0.07398 0.49611 0.42146 0.0
H260 H 0.07602 0.47269 0.4282 0.0
H261 H 0.09403 0.51395 0.42524 0.0
H262 H 0.04856 0.50784 0.42311 0.0
O263 O 0.15616 0.41338 0.41107 0.0
O264 O 0.14995 0.39897 0.38775 0.0
H265 H 0.05409 0.44064 0.36672 0.0
H266 H 0.03604 0.48233 0.36521 0.0
C267 C 0.05983 0.46818 0.36741 0.0
H268 H 0.07869 0.47483 0.35883 0.0
H269 H 0.09551 0.38482 0.36717 0.0
O270 O 0.15439 0.47844 0.43066 0.0
C271 C 0.15568 0.391 0.40105 0.0
Co272 Co 0.97796 0.65909 0.91156 0.0
Co273 Co 0.95291 0.64962 0.87864 0.0
C274 C -0.00033 0.70548 0.88648 0.0
O275 O -0.0004 0.69571 0.89984 0.0
O276 O 0.98312 0.68957 0.87657 0.0
C277 C 0.0203 0.67785 0.93662 0.0
O278 O 0.04135 0.69047 0.9268 0.0
C279 C 0.94446 0.63716 0.8463 0.0
C280 C 0.89632 0.60799 0.84673 0.0
C281 C 0.92123 0.62021 0.83736 0.0
N282 N 0.93374 0.63469 0.86033 0.0
N283 N 0.90473 0.61761 0.86041 0.0
C284 C 0.97729 0.65337 0.84179 0.0
H285 H 0.97243 0.68029 0.83883 0.0
H286 H -0.00426 0.65281 0.85102 0.0
H287 H 0.9882 0.64028 0.83208 0.0
C288 C 0.99509 0.58628 0.90748 0.0
N289 N 0.98415 0.61649 0.90238 0.0
N290 N 0.97516 0.61314 0.88852 0.0
C291 C 0.98094 0.58089 0.88428 0.0
C292 C 0.99355 0.56273 0.89616 0.0
C293 C 0.00519 0.57998 0.92306 0.0
H294 H 0.02414 0.59934 0.92649 0.0
H295 H 0.01608 0.55417 0.92451 0.0
H296 H 0.98248 0.58287 0.93022 0.0
O297 O 0.92927 0.67026 0.91303 0.0
O298 O 0.91303 0.66559 0.88985 0.0
H299 H 0.94277 0.56501 0.86908 0.0
H300 H 0.98161 0.5414 0.86755 0.0
C301 C 0.9709 0.56696 0.86961 0.0
H302 H 0.97975 0.58437 0.86083 0.0
H303 H 0.89098 0.61186 0.8699 0.0
O304 O 0.99414 0.66151 0.93233 0.0
C305 C 0.90657 0.67274 0.90317 0.0
Co306 Co 0.83524 0.98191 0.41174 0.0
Co307 Co 0.84742 0.96017 0.37857 0.0
C308 C 0.78475 -0.00398 0.38709 0.0
O309 O 0.79519 -0.00283 0.40034 0.0
O310 O 0.80248 0.98252 0.37691 0.0
C311 C 0.81385 0.02437 0.43637 0.0
O312 O 0.80271 0.04558 0.42632 0.0
C313 C 0.85878 0.95246 0.34606 0.0
C314 C 0.89837 0.91254 0.34647 0.0
C315 C 0.87983 0.93299 0.33706 0.0
N316 N 0.86499 0.94394 0.36015 0.0
N317 N 0.88839 0.9198 0.36023 0.0
C318 C 0.83481 0.98 0.3415 0.0
H319 H 0.83245 -0.00076 0.35035 0.0
H320 H 0.84362 0.9923 0.3312 0.0
H321 H 0.80928 0.96876 0.33955 0.0
C322 C 0.90495 0.00912 0.4075 0.0
N323 N 0.8759 -0.00447 0.40231 0.0
N324 N 0.8797 0.98871 0.38825 0.0
C325 C 0.91081 -0.00088 0.38394 0.0
C326 C 0.92816 0.01183 0.39603 0.0
C327 C 0.91131 0.01608 0.42339 0.0
H328 H 0.89085 0.03273 0.42772 0.0
H329 H 0.93643 0.02841 0.42511 0.0
H330 H 0.91028 0.9918 0.42959 0.0
O331 O 0.83302 0.93215 0.41318 0.0
O332 O 0.84019 0.9179 0.38989 0.0
H333 H 0.94661 0.01024 0.36645 0.0
H334 H 0.90541 -0.0039 0.36055 0.0
C335 C 0.92537 0.99269 0.369 0.0
H336 H 0.93527 0.96633 0.36851 0.0
H337 H 0.89798 0.9086 0.36975 0.0
O338 O 0.83017 -0.00202 0.43242 0.0
C339 C 0.83494 0.90973 0.4032 0.0
Co340 Co 0.51926 0.83378 0.91157 0.0
Co341 Co 0.54474 0.84658 0.87884 0.0
C342 C 0.51039 0.78243 0.88699 0.0
O343 O 0.50691 0.7929 0.90015 0.0
O344 O 0.52459 0.80061 0.87712 0.0
C345 C 0.47353 0.81397 0.93561 0.0
O346 O 0.45178 0.80499 0.92537 0.0
C347 C 0.55502 0.85906 0.84633 0.0
C348 C 0.59725 0.89606 0.84773 0.0
C349 C 0.57672 0.87919 0.83775 0.0
N350 N 0.56243 0.86439 0.86062 0.0
N351 N 0.58781 0.8864 0.86127 0.0
C352 C 0.52881 0.83421 0.84116 0.0
H353 H 0.52331 0.81513 0.84979 0.0
H354 H 0.50487 0.84802 0.83867 0.0
H355 H 0.53762 0.82113 0.83106 0.0
C356 C 0.48828 0.90138 0.90625 0.0
N357 N 0.50475 0.87339 0.90161 0.0
N358 N 0.51371 0.87757 0.88778 0.0
C359 C 0.5023 0.90792 0.88309 0.0
C360 C 0.48611 0.92425 0.89466 0.0
C361 C 0.47751 0.90705 0.9218 0.0
H362 H 0.50035 0.90693 0.92898 0.0
H363 H 0.46084 0.88581 0.92537 0.0
H364 H 0.46368 0.93147 0.92309 0.0
O365 O 0.56902 0.83393 0.91401 0.0
O366 O 0.5859 0.84178 0.89107 0.0
H367 H 0.53802 0.93115 0.86849 0.0
H368 H 0.49501 0.94508 0.86568 0.0
C369 C 0.51103 0.92285 0.86842 0.0
H370 H 0.50759 0.90338 0.85978 0.0
H371 H 0.59869 0.89496 0.87104 0.0
O372 O 0.5013 0.82838 0.93195 0.0
C373 C 0.59262 0.83704 0.90456 0.0
Co374 Co 0.6543 0.52365 0.4117 0.0
Co375 Co 0.64277 0.54715 0.3786 0.0
C376 C 0.69928 0.50109 0.38631 0.0
O377 O 0.69024 0.50176 0.39977 0.0
O378 O 0.68299 0.5173 0.37641 0.0
C379 C 0.67302 0.48111 0.43679 0.0
O380 O 0.68406 0.45935 0.42696 0.0
C381 C 0.62793 0.55361 0.34633 0.0
C382 C 0.59855 0.60151 0.3466 0.0
C383 C 0.61021 0.5762 0.33734 0.0
N384 N 0.62641 0.56511 0.36026 0.0
N385 N 0.60916 0.59395 0.36023 0.0
C386 C 0.64395 0.52066 0.342 0.0
H387 H 0.64446 0.50294 0.35149 0.0
H388 H 0.62994 0.50896 0.33271 0.0
H389 H 0.67058 0.52548 0.33847 0.0
C390 C 0.58206 0.50337 0.40818 0.0
N391 N 0.61143 0.5162 0.40292 0.0
N392 N 0.60723 0.52469 0.38904 0.0
C393 C 0.57522 0.51691 0.38497 0.0
C394 C 0.55822 0.5032 0.39695 0.0
C395 C 0.57707 0.49213 0.42371 0.0
H396 H 0.59686 0.47314 0.42658 0.0
H397 H 0.55143 0.48087 0.42542 0.0
H398 H 0.58046 0.51424 0.43112 0.0
O399 O 0.66497 0.5725 0.41259 0.0
O400 O 0.65866 0.58762 0.38933 0.0
H401 H 0.55859 0.55337 0.36916 0.0
H402 H 0.53466 0.51459 0.36869 0.0
C403 C 0.56044 0.52538 0.37026 0.0
H404 H 0.57744 0.51565 0.36151 0.0
H405 H 0.60401 0.60818 0.36964 0.0
O406 O 0.65783 0.50796 0.43254 0.0
C407 C 0.66648 0.59478 0.40251 0.0
Co408 Co 0.96568 0.83457 0.10682 0.0
Co409 Co 0.94133 0.84097 0.14006 0.0
C410 C 0.99171 0.78885 0.1312 0.0
O411 O 0.99037 0.79919 0.11794 0.0
O412 O 0.97449 0.80306 0.14138 0.0
C413 C 0.00996 0.82201 0.08167 0.0
O414 O 0.03335 0.81456 0.09145 0.0
C415 C 0.93442 0.85463 0.17255 0.0
C416 C 0.88069 0.87121 0.17293 0.0
C417 C 0.90865 0.86618 0.18194 0.0
N418 N 0.92198 0.85343 0.15875 0.0
N419 N 0.88982 0.86323 0.15917 0.0
C420 C 0.96968 0.84364 0.17655 0.0
H421 H 0.98058 0.82721 0.16786 0.0
H422 H 0.98618 0.86641 0.17764 0.0
H423 H 0.96951 0.82979 0.18716 0.0
C424 C 0.97956 0.90797 0.11158 0.0
N425 N 0.9695 0.87715 0.11634 0.0
N426 N 0.95992 0.87949 0.13018 0.0
C427 C 0.96369 0.91188 0.13465 0.0
C428 C 0.97636 0.93098 0.12305 0.0
C429 C 0.99166 0.915 0.09631 0.0
H430 H 0.96979 0.91299 0.08865 0.0
H431 H 0.01065 0.89553 0.09306 0.0
H432 H 0.00318 0.94068 0.09538 0.0
O433 O 0.91768 0.82001 0.10571 0.0
O434 O 0.90232 0.82258 0.12907 0.0
H435 H 0.92458 0.91919 0.15065 0.0
H436 H 0.9557 0.95249 0.15054 0.0
C437 C 0.95206 0.92474 0.14929 0.0
H438 H 0.96623 0.91136 0.15808 0.0
H439 H 0.87407 0.86472 0.14997 0.0
O440 O 0.98135 0.83356 0.08595 0.0
C441 C 0.89571 0.8155 0.11577 0.0
Co442 Co 0.65569 0.98058 0.60694 0.0
Co443 Co 0.65144 0.95766 0.64035 0.0
C444 C 0.70352 0.00703 0.63073 0.0
O445 O 0.69228 0.00503 0.61762 0.0
O446 O 0.68943 0.99086 0.64128 0.0
C447 C 0.66789 0.02372 0.58141 0.0
O448 O 0.67698 0.04698 0.59098 0.0
C449 C 0.63935 0.95067 0.67287 0.0
C450 C 0.6191 0.89823 0.67325 0.0
C451 C 0.62594 0.92586 0.68216 0.0
N452 N 0.63989 0.93819 0.65908 0.0
N453 N 0.62823 0.90667 0.65952 0.0
C454 C 0.64891 0.98631 0.67675 0.0
H455 H 0.64796 0.00284 0.66688 0.0
H456 H 0.63168 -0.00366 0.68539 0.0
H457 H 0.6753 0.9865 0.68111 0.0
C458 C 0.58169 0.9914 0.61213 0.0
N459 N 0.61336 0.98408 0.61685 0.0
N460 N 0.61203 0.97573 0.63086 0.0
C461 C 0.57955 0.9781 0.63553 0.0
C462 C 0.5592 0.98798 0.62382 0.0
C463 C 0.57316 -0.00028 0.59655 0.0
H464 H 0.59094 0.01946 0.5924 0.0
H465 H 0.54651 0.00882 0.59548 0.0
H466 H 0.57667 0.97666 0.58971 0.0
O467 O 0.67017 0.93285 0.60575 0.0
O468 O 0.66962 0.91868 0.62927 0.0
H469 H 0.54052 0.97257 0.65239 0.0
H470 H 0.58314 0.98005 0.65893 0.0
C471 C 0.56777 0.96704 0.65043 0.0
H472 H 0.57149 0.93925 0.65153 0.0
H473 H 0.62556 0.89117 0.6503 0.0
O474 O 0.65551 -0.00425 0.58601 0.0
C475 C 0.67573 0.9115 0.61593 0.0
Co476 Co 0.50774 0.65341 0.10646 0.0
Co477 Co 0.53041 0.64075 0.13951 0.0
C478 C 0.49585 0.7043 0.13099 0.0
O479 O 0.49381 0.69382 0.11778 0.0
O480 O 0.50945 0.68639 0.14109 0.0
C481 C 0.46538 0.67488 0.08166 0.0
O482 O 0.44435 0.68705 0.09158 0.0
C483 C 0.53777 0.6296 0.17206 0.0
C484 C 0.57764 0.58996 0.17179 0.0
C485 C 0.55713 0.60862 0.18114 0.0
N486 N 0.54642 0.62324 0.158 0.0
N487 N 0.57054 0.59981 0.15801 0.0
C488 C 0.51019 0.65364 0.17652 0.0
H489 H 0.49119 0.65625 0.16758 0.0
H490 H 0.49751 0.64478 0.18673 0.0
H491 H 0.52157 0.679 0.17862 0.0
C492 C 0.47823 0.58512 0.11093 0.0
N493 N 0.49305 0.61353 0.11607 0.0
N494 N 0.50062 0.60925 0.13004 0.0
C495 C 0.48977 0.57832 0.13431 0.0
C496 C 0.47576 0.5617 0.12229 0.0
C497 C 0.46998 0.57945 0.0951 0.0
H498 H 0.45351 0.60041 0.09111 0.0
H499 H 0.45682 0.55478 0.0934 0.0
H500 H 0.49387 0.58005 0.08858 0.0
O501 O 0.55763 0.65396 0.10482 0.0
O502 O 0.57271 0.64618 0.12798 0.0
H503 H 0.52383 0.55361 0.14915 0.0
H504 H 0.4801 0.54154 0.15158 0.0
C505 C 0.49724 0.56309 0.14903 0.0
H506 H 0.4941 0.58257 0.15769 0.0
H507 H 0.58183 0.59012 0.14852 0.0
O508 O 0.49149 0.6583 0.0858 0.0
C509 C 0.58047 0.65109 0.11459 0.0
Co510 Co 0.83348 0.52664 0.60736 0.0
Co511 Co 0.84516 0.54885 0.64047 0.0
C512 C 0.78017 0.51841 0.63164 0.0
O513 O 0.79144 0.51557 0.61855 0.0
O514 O 0.79831 0.53089 0.64193 0.0
C515 C 0.81436 0.48211 0.58264 0.0
O516 O 0.80733 0.45865 0.59246 0.0
C517 C 0.85627 0.55674 0.67298 0.0
C518 C 0.90072 0.59126 0.67245 0.0
C519 C 0.87948 0.57373 0.68192 0.0
N520 N 0.86381 0.56384 0.65886 0.0
N521 N 0.89014 0.58481 0.65871 0.0
C522 C 0.82896 0.53254 0.67766 0.0
H523 H 0.80507 0.54695 0.67955 0.0
H524 H 0.82421 0.51349 0.66892 0.0
H525 H 0.83609 0.51954 0.68803 0.0
C526 C 0.90065 0.49359 0.61292 0.0
N527 N 0.87241 0.51017 0.61734 0.0
N528 N 0.87501 0.51695 0.63145 0.0
C529 C 0.90406 0.50341 0.6366 0.0
C530 C 0.9219 0.48903 0.625 0.0
C531 C 0.90861 0.48591 0.59721 0.0
H532 H 0.89349 0.50243 0.58982 0.0
H533 H 0.90202 0.459 0.59492 0.0
H534 H 0.93616 0.48954 0.59495 0.0
O535 O 0.83608 0.57617 0.60547 0.0
O536 O 0.84286 0.59111 0.62871 0.0
H537 H 0.92684 0.52763 0.6552 0.0
H538 H 0.93195 0.48217 0.65484 0.0
C539 C 0.91409 0.50333 0.65245 0.0
H540 H 0.89115 0.50053 0.65945 0.0
H541 H 0.90137 0.59419 0.64914 0.0
O542 O 0.82728 0.51018 0.58678 0.0
C543 C 0.83948 0.59891 0.61524 0.0
C544 C 0.93235 0.19878 0.95627 0.0
C545 C 0.96303 0.18534 0.95083 0.0
C546 C 0.93053 0.21186 0.97056 0.0
C547 C 0.9791 0.21589 1.00601 0.0
H548 H 0.92465 0.29674 0.01253 0.0
C549 C 0.00083 0.30588 0.05479 0.0
C550 C 0.9725 0.31095 0.06399 0.0
C551 C -0.00302 0.29057 0.04106 0.0
C552 C 0.93976 0.27404 0.01085 0.0
H553 H 0.01574 0.17467 0.95626 0.0
H554 H 0.01303 0.19836 0.98075 0.0
H555 H 0.92287 0.26842 0.98867 0.0
H556 H 0.91766 0.30541 0.06565 0.0
H557 H 0.91086 0.2796 0.0413 0.0
H558 H -0.00284 0.22273 0.028 0.0
C559 C 0.98993 0.19804 0.97427 0.0
C560 C 0.93862 0.25758 0.99722 0.0
C561 C 0.99158 0.18453 0.96011 0.0
C562 C 0.93997 0.30183 0.05883 0.0
C563 C 0.93605 0.2871 0.04492 0.0
C564 C 0.98071 0.23272 0.01949 0.0
C565 C 0.95949 0.21224 0.97969 0.0
C566 C 0.95861 0.22846 0.99453 0.0
C567 C 0.96466 0.28059 0.03609 0.0
C568 C 0.96134 0.26211 0.02199 0.0
H569 H 0.90983 0.19966 0.94941 0.0
H570 H 0.90643 0.2219 0.97437 0.0
H571 H 0.99415 0.19309 1.00459 0.0
H572 H 0.02627 0.31246 0.05841 0.0
H573 H 0.01938 0.28607 0.03438 0.0
C574 C 0.30646 0.96948 0.45788 0.0
C575 C 0.28198 0.97888 0.44739 0.0
C576 C 0.29707 0.9646 0.47259 0.0
C577 C 0.22198 0.95202 0.49721 0.0
H578 H 0.28029 0.99362 0.52642 0.0
C579 C 0.17793 0.98162 0.55685 0.0
C580 C 0.20225 0.97866 0.56809 0.0
C581 C 0.18738 0.97686 0.54213 0.0
C582 C 0.2639 0.98136 0.51846 0.0
H583 H 0.22822 0.98925 0.44406 0.0
H584 H 0.21208 0.98109 0.46955 0.0
H585 H 0.29799 0.99315 0.50084 0.0
H586 H 0.25502 0.96629 0.57276 0.0
H587 H 0.27117 0.95743 0.54731 0.0
H588 H 0.1876 0.94081 0.51487 0.0
C589 C 0.23845 0.97717 0.46648 0.0
C590 C 0.27413 0.98106 0.50376 0.0
C591 C 0.24781 0.98211 0.45184 0.0
C592 C 0.2357 0.96921 0.56436 0.0
C593 C 0.24506 0.96432 0.54974 0.0
C594 C 0.21173 0.95233 0.51194 0.0
C595 C 0.26299 0.96888 0.47711 0.0
C596 C 0.25319 0.96668 0.49291 0.0
C597 C 0.2213 0.96892 0.53838 0.0
C598 C 0.23247 0.96722 0.52275 0.0
H599 H 0.33298 0.96671 0.45481 0.0
H600 H 0.31657 0.95781 0.48047 0.0
H601 H 0.2054 0.94034 0.48917 0.0
H602 H 0.15198 0.98894 0.55936 0.0
H603 H 0.16843 0.98077 0.53367 0.0
C604 C 0.50077 0.18189 0.0548 0.0
C605 C 0.52786 0.18693 0.06462 0.0
C606 C 0.50259 0.19412 0.04041 0.0
C607 C 0.5498 0.25681 0.01722 0.0
H608 H 0.49901 0.21275 0.9861 0.0
C609 C 0.55093 0.29621 0.95503 0.0
C610 C 0.51827 0.30163 0.94913 0.0
C611 C 0.5548 0.28241 0.96913 0.0
C612 C 0.5133 0.2253 0.9947 0.0
H613 H 0.57881 0.20753 0.06682 0.0
H614 H 0.58273 0.22753 0.0415 0.0
H615 H 0.50236 0.18597 0.01016 0.0
H616 H 0.46409 0.29711 0.95351 0.0
H617 H 0.47096 0.27228 0.97788 0.0
H618 H 0.56135 0.29569 1.00139 0.0
C619 C 0.55949 0.21515 0.04503 0.0
C620 C 0.51507 0.21012 0.00856 0.0
C621 C 0.55741 0.20336 0.05954 0.0
C622 C 0.48962 0.29342 0.95772 0.0
C623 C 0.4935 0.279 0.97164 0.0
C624 C 0.54857 0.27165 1.00324 0.0
C625 C 0.53184 0.21124 0.03531 0.0
C626 C 0.53271 0.22597 0.02015 0.0
C627 C 0.52608 0.27308 0.97743 0.0
C628 C 0.52974 0.25635 0.99195 0.0
H629 H 0.47746 0.16964 0.05836 0.0
H630 H 0.48043 0.19109 0.03347 0.0
H631 H 0.56326 0.27017 0.02583 0.0
H632 H 0.57349 0.30229 0.94869 0.0
H633 H 0.5802 0.27806 0.97338 0.0
C634 C 0.183 0.48046 0.45912 0.0
C635 C 0.17974 0.50956 0.45024 0.0
C636 C 0.19836 0.48252 0.47291 0.0
C637 C 0.21624 0.53408 0.50424 0.0
H638 H 0.29843 0.48039 0.5086 0.0
C639 C 0.29121 0.53207 0.55904 0.0
C640 C 0.30575 0.50093 0.56326 0.0
C641 C 0.27795 0.53641 0.54488 0.0
C642 C 0.27528 0.49518 0.50772 0.0
H643 H 0.18858 0.56393 0.44922 0.0
H644 H 0.21441 0.56762 0.47373 0.0
H645 H 0.26876 0.48129 0.48514 0.0
H646 H 0.31795 0.44999 0.55587 0.0
H647 H 0.29381 0.45691 0.5316 0.0
H648 H 0.2214 0.54658 0.52697 0.0
C649 C 0.20547 0.54323 0.46978 0.0
C650 C 0.25849 0.49586 0.49421 0.0
C651 C 0.19073 0.54108 0.4558 0.0
C652 C 0.30727 0.47446 0.55295 0.0
C653 C 0.29352 0.47856 0.53892 0.0
C654 C 0.23263 0.53285 0.51789 0.0
C655 C 0.21012 0.5138 0.47827 0.0
C656 C 0.22868 0.51503 0.49239 0.0
C657 C 0.2784 0.50951 0.53468 0.0
C658 C 0.26221 0.51301 0.51988 0.0
H659 H 0.17498 0.45575 0.45518 0.0
H660 H 0.20153 0.45953 0.47932 0.0
H661 H 0.19318 0.54894 0.50307 0.0
H662 H 0.2898 0.55302 0.56672 0.0
H663 H 0.2672 0.56085 0.542 0.0
C664 C 0.04669 0.80275 0.0606 0.0
C665 C 0.01432 0.81108 0.06618 0.0
C666 C 0.05012 0.78853 0.04656 0.0
C667 C 0.00525 0.73405 0.02119 0.0
H668 H 0.06173 0.77154 0.99025 0.0
C669 C 0.99524 0.68552 0.9617 0.0
C670 C 0.02353 0.68775 0.95228 0.0
C671 C -0.00341 0.69893 0.97589 0.0
C672 C 0.04637 0.76019 0.99882 0.0
H673 H 0.96024 0.81161 0.06122 0.0
H674 H 0.96627 0.78607 0.03695 0.0
H675 H 0.05993 0.79932 0.0142 0.0
H676 H 0.07602 0.7044 0.95069 0.0
H677 H 0.07903 0.72629 0.9757 0.0
H678 H 0.99236 0.69436 1.00623 0.0
C679 C 0.98895 0.79084 0.0434 0.0
C680 C 0.0452 0.77636 0.01252 0.0
C681 C 0.98558 0.80569 0.05726 0.0
C682 C 0.05372 0.70241 0.95764 0.0
C683 C 0.05528 0.71533 0.97196 0.0
C684 C 0.00693 0.71748 1.00763 0.0
C685 C 0.02117 0.7817 0.038 0.0
C686 C 0.02414 0.76376 0.02373 0.0
C687 C 0.02649 0.71442 0.98122 0.0
C688 C 0.027 0.73062 0.99611 0.0
H689 H 0.06931 0.80656 0.0672 0.0
H690 H 0.07524 0.78168 0.04263 0.0
H691 H 0.98921 0.72353 0.02975 0.0
H692 H 0.97144 0.67472 0.9579 0.0
H693 H 0.97361 0.69818 0.98245 0.0
C694 C 0.80336 -9e-05 0.46136 0.0
C695 C 0.80278 0.02809 0.45188 0.0
C696 C 0.78934 0.00198 0.47544 0.0
C697 C 0.72967 0.05461 0.49803 0.0
H698 H 0.76362 -0.00313 0.52926 0.0
C699 C 0.68796 0.05882 0.55997 0.0
C700 C 0.67819 0.02713 0.56579 0.0
C701 C 0.7019 0.06112 0.54582 0.0
C702 C 0.75384 0.01307 0.52062 0.0
H703 H 0.78821 0.08101 0.45 0.0
H704 H 0.76528 0.08523 0.47484 0.0
H705 H 0.79309 -0.00191 0.50576 0.0
H706 H 0.67466 0.97314 0.56112 0.0
H707 H 0.69972 0.97719 0.53666 0.0
H708 H 0.69106 0.07032 0.51335 0.0
C709 C 0.77543 0.06106 0.47124 0.0
C710 C 0.77057 0.01366 0.50707 0.0
C711 C 0.78894 0.05879 0.45702 0.0
C712 C 0.68173 -0.00202 0.55698 0.0
C713 C 0.6963 0.00021 0.54301 0.0
C714 C 0.71336 0.05454 0.51173 0.0
C715 C 0.77487 0.03249 0.4806 0.0
C716 C 0.75842 0.03395 0.49544 0.0
C717 C 0.707 0.0317 0.53738 0.0
C718 C 0.72498 0.03332 0.52306 0.0
H719 H 0.81345 0.97573 0.45771 0.0
H720 H 0.7889 0.97913 0.48206 0.0
H721 H 0.71907 0.07022 0.48938 0.0
H722 H 0.68558 0.08173 0.56648 0.0
H723 H 0.70998 0.08569 0.54172 0.0
C724 C 0.43638 0.79212 0.95611 0.0
C725 C 0.46859 0.80248 0.95099 0.0
C726 C 0.43269 0.77817 0.9702 0.0
C727 C 0.47761 0.72701 0.99651 0.0
H728 H 0.42121 0.76574 0.02715 0.0
C729 C 0.4898 0.68252 0.05647 0.0
C730 C 0.46173 0.68474 0.066 0.0
C731 C 0.48789 0.6952 0.04216 0.0
C732 C 0.43654 0.75403 0.01867 0.0
H733 H 0.52207 0.80667 0.95677 0.0
H734 H 0.51565 0.78146 0.9811 0.0
H735 H 0.42222 0.79194 1.00282 0.0
H736 H 0.40911 0.70081 0.06774 0.0
H737 H 0.40512 0.72144 0.04252 0.0
H738 H 0.49131 0.68853 0.01193 0.0
C739 C 0.49328 0.78454 0.97427 0.0
C740 C 0.43724 0.76929 1.00476 0.0
C741 C 0.49686 0.79916 0.96037 0.0
C742 C 0.43125 0.69885 0.06069 0.0
C743 C 0.42912 0.71101 0.04624 0.0
C744 C 0.47638 0.71133 0.01028 0.0
C745 C 0.46127 0.7736 0.97926 0.0
C746 C 0.4583 0.75627 0.99366 0.0
C747 C 0.45761 0.7099 0.03682 0.0
C748 C 0.45641 0.72498 0.02171 0.0
H749 H 0.41413 0.79433 0.94915 0.0
H750 H 0.40774 0.76987 0.97384 0.0
H751 H 0.49372 0.71625 0.98805 0.0
H752 H 0.51382 0.67216 0.06023 0.0
H753 H 0.51069 0.69441 0.03549 0.0
C754 C 0.69615 0.44635 0.45773 0.0
C755 C 0.68276 0.47715 0.45246 0.0
C756 C 0.70848 0.4438 0.47214 0.0
C757 C 0.71034 0.49033 0.50817 0.0
H758 H 0.79016 0.43459 0.5152 0.0
C759 C 0.79741 0.50747 0.55851 0.0
C760 C 0.80229 0.47841 0.56728 0.0
C761 C 0.78246 0.50485 0.54464 0.0
C762 C 0.76772 0.45005 0.5134 0.0
H763 H 0.67151 0.52937 0.4583 0.0
H764 H 0.69393 0.52545 0.48302 0.0
H765 H 0.76365 0.4347 0.49095 0.0
H766 H 0.79651 0.42363 0.56804 0.0
H767 H 0.77139 0.419 0.54343 0.0
H768 H 0.71569 0.50685 0.53048 0.0
C769 C 0.69411 0.50277 0.47631 0.0
C770 C 0.75229 0.45001 0.49952 0.0
C771 C 0.68132 0.50512 0.46202 0.0
C772 C 0.79308 0.44648 0.56157 0.0
C773 C 0.77875 0.4438 0.5475 0.0
C774 C 0.72617 0.49086 0.52192 0.0
C775 C 0.70821 0.47217 0.48158 0.0
C776 C 0.72352 0.47043 0.49664 0.0
C777 C 0.77266 0.47307 0.53905 0.0
C778 C 0.75516 0.47096 0.52463 0.0
H779 H 0.69752 0.42426 0.45067 0.0
H780 H 0.7184 0.41958 0.4758 0.0
H781 H 0.68777 0.5057 0.50663 0.0
H782 H 0.80403 0.53249 0.56256 0.0
H783 H 0.7783 0.52777 0.53829 0.0
C784 C -0.00233 0.23723 0.14388 0.0
C785 C 0.98614 0.25592 0.1317 0.0
C786 C 0.99242 0.20214 0.14455 0.0
C787 C 0.94682 0.12933 0.12802 0.0
H788 H 0.03308 0.0828 0.1332 0.0
C789 C 0.96266 0.98821 0.11286 0.0
C790 C 0.98106 0.96814 0.12278 0.0
C791 C 0.96295 0.02361 0.11415 0.0
C792 C 0.00868 0.09526 0.13192 0.0
H793 H 0.95675 0.25322 0.11157 0.0
H794 H 0.9473 0.19214 0.11287 0.0
H795 H 0.02985 0.1439 0.13705 0.0
H796 H 0.01555 0.96871 0.14127 0.0
H797 H 0.0157 0.03042 0.14379 0.0
H798 H 0.9256 0.08068 0.1229 0.0
C799 C 0.9607 0.20446 0.12179 0.0
C800 C 0.0068 0.13028 0.13418 0.0
C801 C 0.9662 0.23947 0.12104 0.0
C802 C 0.00111 0.98387 0.13354 0.0
C803 C 0.00125 0.01917 0.13492 0.0
C804 C 0.94862 0.09421 0.12587 0.0
C805 C 0.97519 0.18526 0.13317 0.0
C806 C 0.97593 0.1477 0.13216 0.0
C807 C 0.98158 0.03945 0.12544 0.0
C808 C 0.97965 0.0768 0.12768 0.0
H809 H 0.01302 0.24916 0.15231 0.0
H810 H 0.00335 0.18793 0.15359 0.0
H811 H 0.92269 0.14215 0.12642 0.0
H812 H 0.94697 0.97649 0.10449 0.0
H813 H 0.94811 0.03851 0.10648 0.0
C814 C 0.25011 0.94771 0.62799 0.0
C815 C 0.23605 0.97157 0.63775 0.0
C816 C 0.28512 0.94143 0.62795 0.0
C817 C 0.36726 0.96235 0.64674 0.0
H818 H 0.40061 0.96864 0.60671 0.0
C819 C 0.50307 0.00734 0.63345 0.0
C820 C 0.52163 0.98738 0.62352 0.0
C821 C 0.46811 0.00225 0.63522 0.0
C822 C 0.39174 0.96649 0.61794 0.0
H823 H 0.24704 0.00422 0.65632 0.0
H824 H 0.30792 0.99374 0.65612 0.0
H825 H 0.34005 0.96049 0.61119 0.0
H826 H 0.51838 0.94785 0.60709 0.0
H827 H 0.45686 0.93939 0.60991 0.0
H828 H 0.41906 0.9697 0.65341 0.0
C829 C 0.29212 0.97975 0.64849 0.0
C830 C 0.35702 0.96153 0.62054 0.0
C831 C 0.25703 0.98574 0.64864 0.0
C832 C 0.50443 0.9637 0.61473 0.0
C833 C 0.46935 0.95876 0.61641 0.0
C834 C 0.40197 0.96759 0.64413 0.0
C835 C 0.30679 0.95909 0.63758 0.0
C836 C 0.34424 0.95985 0.63498 0.0
C837 C 0.45104 0.97733 0.62698 0.0
C838 C 0.41447 0.97023 0.6297 0.0
H839 H 0.23451 0.936 0.61959 0.0
H840 H 0.29544 0.92445 0.61972 0.0
H841 H 0.35842 0.96074 0.65798 0.0
H842 H 0.51593 0.02587 0.64028 0.0
H843 H 0.45451 0.01743 0.64322 0.0
C844 C 0.45089 0.50618 0.13003 0.0
C845 C 0.47305 0.52453 0.12091 0.0
C846 C 0.45418 0.47096 0.13129 0.0
C847 C 0.49131 0.39509 0.11407 0.0
H848 H 0.49736 0.36118 0.154 0.0
C849 C 0.52645 0.25717 0.12387 0.0
C850 C 0.50426 0.23966 0.13332 0.0
C851 C 0.52748 0.29258 0.12394 0.0
C852 C 0.49557 0.37023 0.1428 0.0
H853 H 0.51449 0.52087 0.1053 0.0
H854 H 0.51969 0.45922 0.10716 0.0
H855 H 0.48472 0.42115 0.14965 0.0
H856 H 0.4685 0.24514 0.15131 0.0
H857 H 0.46974 0.30697 0.15125 0.0
H858 H 0.50142 0.34434 0.10714 0.0
C859 C 0.49993 0.47189 0.11339 0.0
C860 C 0.48816 0.40447 0.14031 0.0
C861 C 0.49684 0.50709 0.11225 0.0
C862 C 0.48585 0.25799 0.14389 0.0
C863 C 0.48654 0.29349 0.14384 0.0
C864 C 0.49849 0.36088 0.11655 0.0
C865 C 0.47942 0.45367 0.1233 0.0
C866 C 0.48592 0.41717 0.12592 0.0
C867 C 0.50601 0.31111 0.13333 0.0
C868 C 0.50074 0.34803 0.13094 0.0
H869 H 0.43231 0.5193 0.13675 0.0
H870 H 0.43768 0.45737 0.13881 0.0
H871 H 0.48947 0.40419 0.10287 0.0
H872 H 0.54132 0.24361 0.11574 0.0
H873 H 0.54361 0.30545 0.11604 0.0
C874 C 0.22851 0.46032 0.63779 0.0
C875 C 0.24578 0.44764 0.62549 0.0
C876 C 0.19283 0.46036 0.63812 0.0
C877 C 0.11832 0.45325 0.61285 0.0
H878 H 0.0677 0.44743 0.64931 0.0
C879 C 0.96995 0.45053 0.61739 0.0
C880 C 0.95826 0.47911 0.62511 0.0
C881 C 0.0046 0.44201 0.6176 0.0
C882 C 0.08166 0.4487 0.63905 0.0
H883 H 0.23974 0.42312 0.60434 0.0
H884 H 0.17814 0.42141 0.60524 0.0
H885 H 0.12961 0.44097 0.64964 0.0
H886 H 0.97384 0.52202 0.6385 0.0
H887 H 0.03356 0.50605 0.63952 0.0
H888 H 0.07002 0.46051 0.60234 0.0
C889 C 0.19158 0.43299 0.61432 0.0
C890 C 0.11709 0.44545 0.63923 0.0
C891 C 0.22699 0.43378 0.61384 0.0
C892 C 0.98174 0.49905 0.63294 0.0
C893 C 0.01599 0.49013 0.63345 0.0
C894 C 0.08288 0.45574 0.61266 0.0
C895 C 0.1739 0.4469 0.62631 0.0
C896 C 0.13598 0.44828 0.62615 0.0
C897 C 0.02769 0.46164 0.62577 0.0
C898 C 0.0644 0.45406 0.62578 0.0
H899 H 0.24252 0.47107 0.64691 0.0
H900 H 0.18019 0.4717 0.64747 0.0
H901 H 0.13184 0.45637 0.60257 0.0
H902 H 0.95237 0.43477 0.61126 0.0
H903 H 0.01335 0.42006 0.6115 0.0
C904 C 0.9733 0.50747 0.90615 0.0
C905 C -0.00403 0.52546 0.89712 0.0
C906 C 0.97034 0.47223 0.90482 0.0
C907 C 0.98067 0.40571 0.87726 0.0
H908 H 0.97397 0.34375 0.91021 0.0
C909 C 0.9908 0.25993 0.87213 0.0
C910 C 0.97498 0.23983 0.88291 0.0
C911 C 0.98805 0.29532 0.87265 0.0
C912 C 0.97501 0.36076 0.90087 0.0
H913 H 0.03499 0.5212 0.88046 0.0
H914 H 0.02993 0.45938 0.8781 0.0
H915 H 0.98318 0.40404 0.91467 0.0
H916 H 0.94042 0.24042 0.90148 0.0
H917 H 0.93439 0.30201 0.90199 0.0
H918 H 0.97237 0.36253 0.86344 0.0
C919 C 0.01409 0.47248 0.88602 0.0
C920 C 0.9806 0.39526 0.90346 0.0
C921 C 0.01722 0.50766 0.88745 0.0
C922 C 0.95326 0.25539 0.89315 0.0
C923 C 0.95013 0.29068 0.89354 0.0
C924 C 0.97479 0.37121 0.87467 0.0
C925 C 0.9899 0.45459 0.89438 0.0
C926 C 0.98384 0.418 0.89168 0.0
C927 C 0.96905 0.31112 0.88384 0.0
C928 C 0.97216 0.34826 0.88644 0.0
H929 H 0.95649 0.52087 0.91359 0.0
H930 H 0.95147 0.45906 0.91139 0.0
H931 H 0.98244 0.42286 0.86798 0.0
H932 H 0.00781 0.24862 0.86414 0.0
H933 H 0.00297 0.31024 0.86499 0.0
C934 C 0.98377 0.03635 0.38818 0.0
C935 C 0.96552 0.01373 0.39711 0.0
C936 C 0.01875 0.03201 0.38612 0.0
C937 C 0.09527 0.98958 0.40049 0.0
H938 H 0.12366 0.98828 0.35967 0.0
C939 C 0.23115 0.95353 0.38663 0.0
C940 C 0.24787 0.9771 0.37756 0.0
C941 C 0.19567 0.95255 0.38716 0.0
C942 C 0.11617 0.98868 0.37112 0.0
H943 H 0.9693 0.97049 0.41173 0.0
H944 H 0.03064 0.96339 0.40848 0.0
H945 H 0.06477 0.00225 0.36589 0.0
H946 H 0.24082 0.01523 0.36064 0.0
H947 H 0.17893 0.014 0.36172 0.0
H948 H 0.14658 0.97682 0.40583 0.0
C949 C 0.01804 0.98431 0.40298 0.0
C950 C 0.08253 -0.00314 0.37468 0.0
C951 C 0.98304 0.98849 0.40492 0.0
C952 C 0.2286 -0.00324 0.36773 0.0
C953 C 0.19304 -0.00389 0.3684 0.0
C954 C 0.12889 0.98162 0.39695 0.0
C955 C 0.03595 0.00521 0.39312 0.0
C956 C 0.07183 -0.00248 0.38941 0.0
C957 C 0.17631 0.97545 0.37876 0.0
C958 C 0.13979 0.9811 0.38222 0.0
H959 H 0.9706 0.05603 0.3821 0.0
H960 H 0.03212 0.04887 0.37867 0.0
H961 H 0.08775 0.99013 0.41193 0.0
H962 H 0.24545 0.93778 0.3942 0.0
H963 H 0.18347 0.93551 0.3949 0.0
C964 C 0.48028 0.22846 0.8693 0.0
C965 C 0.49642 0.24653 0.88063 0.0
C966 C 0.48166 0.19298 0.86901 0.0
C967 C 0.52366 0.11733 0.88476 0.0
H968 H 0.43255 0.07898 0.88492 0.0
C969 C 0.50129 0.98119 0.9043 0.0
C970 C 0.48009 0.96111 0.89548 0.0
C971 C 0.50198 0.01638 0.90247 0.0
C972 C 0.45818 0.08917 0.88473 0.0
H973 H 0.52965 0.24215 0.89954 0.0
H974 H 0.53257 0.18037 0.89886 0.0
H975 H 0.44054 0.13907 0.8793 0.0
H976 H 0.44115 0.96159 0.87872 0.0
H977 H 0.44256 0.02318 0.87528 0.0
H978 H 0.5414 0.06757 0.89017 0.0
C979 C 0.51853 0.19345 0.89033 0.0
C980 C 0.46277 0.12354 0.88143 0.0
C981 C 0.51681 0.22882 0.89073 0.0
C982 C 0.45768 0.9768 0.88562 0.0
C983 C 0.45854 0.012 0.88368 0.0
C984 C 0.51911 0.08293 0.88794 0.0
C985 C 0.49965 0.17517 0.8799 0.0
C986 C 0.49551 0.13801 0.88159 0.0
C987 C 0.48166 0.03202 0.8917 0.0
C988 C 0.48627 0.06856 0.88818 0.0
H989 H 0.46434 0.24145 0.86138 0.0
H990 H 0.46728 0.1794 0.86074 0.0
H991 H 0.54917 0.12785 0.88487 0.0
H992 H 0.51889 0.96951 0.91195 0.0
H993 H 0.51939 0.0312 0.9091 0.0
C994 C 0.50614 0.47343 0.3883 0.0
C995 C 0.52142 0.49671 0.39789 0.0
C996 C 0.47079 0.47262 0.3868 0.0
C997 C 0.39006 0.49915 0.40375 0.0
H998 H 0.3575 0.50205 0.36355 0.0
C999 C 0.24905 0.51784 0.39257 0.0
C1000 C 0.23467 0.49419 0.38284 0.0
C1001 C 0.2842 0.52267 0.39297 0.0
C1002 C 0.36618 0.50108 0.37482 0.0
H1003 H 0.51245 0.53573 0.41415 0.0
H1004 H 0.4504 0.53402 0.41176 0.0
H1005 H 0.41849 0.4973 0.36838 0.0
H1006 H 0.24525 0.45951 0.36494 0.0
H1007 H 0.30679 0.46747 0.36579 0.0
H1008 H 0.33794 0.50231 0.41026 0.0
C1009 C 0.4656 0.51651 0.40534 0.0
C1010 C 0.40105 0.49821 0.37759 0.0
C1011 C 0.50099 0.51742 0.40677 0.0
C1012 C 0.25568 0.47796 0.37253 0.0
C1013 C 0.29098 0.4825 0.37305 0.0
C1014 C 0.35524 0.50186 0.40099 0.0
C1015 C 0.45027 0.49492 0.39498 0.0
C1016 C 0.41328 0.49713 0.39208 0.0
C1017 C 0.30566 0.50363 0.38377 0.0
C1018 C 0.34288 0.50287 0.3865 0.0
H1019 H 0.52165 0.45718 0.38141 0.0
H1020 H 0.45956 0.45527 0.37895 0.0
H1021 H 0.39877 0.49807 0.41502 0.0
H1022 H 0.23333 0.53103 0.40052 0.0
H1023 H 0.29469 0.53995 0.40104 0.0
C1024 C 0.03567 0.75529 0.89316 0.0
C1025 C 0.0129 0.73982 0.88334 0.0
C1026 C 0.03961 0.79055 0.89325 0.0
C1027 C 0.01259 0.8709 0.8745 0.0
H1028 H 0.00725 0.90402 0.91455 0.0
C1029 C 0.96165 0.00378 0.88848 0.0
C1030 C 0.9837 0.02371 0.89698 0.0
C1031 C 0.96733 0.96891 0.88705 0.0
C1032 C 0.00896 0.89513 0.90332 0.0
H1033 H 0.97941 0.74864 0.86481 0.0
H1034 H 0.98546 0.80995 0.86519 0.0
H1035 H 0.01849 0.84411 0.91006 0.0
H1036 H 0.02746 0.02298 0.91143 0.0
H1037 H 0.03663 0.96165 0.90941 0.0
H1038 H 0.00149 0.92198 0.86789 0.0
C1039 C 0.00063 0.79514 0.87277 0.0
C1040 C 0.01578 0.86087 0.9007 0.0
C1041 C -0.00286 0.75982 0.87253 0.0
C1042 C 0.00991 0.00797 0.90494 0.0
C1043 C 0.0153 0.97303 0.90369 0.0
C1044 C 0.0053 0.90509 0.87715 0.0
C1045 C 0.02043 0.81101 0.88366 0.0
C1046 C 0.01734 0.8482 0.88625 0.0
C1047 C 0.9948 0.95345 0.89432 0.0
C1048 C 0.00304 0.91738 0.89158 0.0
H1049 H 0.04856 0.74041 0.90149 0.0
H1050 H 0.05604 0.80187 0.90144 0.0
H1051 H 0.0141 0.8622 0.86325 0.0
H1052 H 0.94107 0.01546 0.88238 0.0
H1053 H 0.95079 0.95417 0.87998 0.0
C1054 C 0.73026 0.98786 0.3735 0.0
C1055 C 0.74891 0.00512 0.38433 0.0
C1056 C 0.69468 0.98866 0.37368 0.0
C1057 C 0.62671 -0.00087 0.40102 0.0
H1058 H 0.56695 0.99002 0.36742 0.0
C1059 C 0.47963 -0.00018 0.40431 0.0
C1060 C 0.46222 0.97738 0.39502 0.0
C1061 C 0.51505 0.0024 0.40356 0.0
C1062 C 0.58346 0.99217 0.37689 0.0
H1063 H 0.74539 0.04006 0.40265 0.0
H1064 H 0.68342 0.04256 0.4026 0.0
H1065 H 0.62741 0.0016 0.36358 0.0
H1066 H 0.46759 0.93829 0.37851 0.0
H1067 H 0.52979 0.94267 0.37717 0.0
H1068 H 0.58265 0.98994 0.41432 0.0
C1069 C 0.6961 0.02725 0.39437 0.0
C1070 C 0.61801 -0.00106 0.3747 0.0
C1071 C 0.73159 0.02611 0.39431 0.0
C1072 C 0.48071 0.95585 0.38571 0.0
C1073 C 0.5161 0.9586 0.38486 0.0
C1074 C 0.59215 0.99261 0.40321 0.0
C1075 C 0.67725 0.00708 0.38458 0.0
C1076 C 0.64007 0.00237 0.38674 0.0
C1077 C 0.53346 0.98268 0.39344 0.0
C1078 C 0.57025 0.98885 0.39117 0.0
H1079 H 0.74294 0.9714 0.36569 0.0
H1080 H 0.68096 0.97284 0.36596 0.0
H1081 H 0.64309 0.00078 0.41055 0.0
H1082 H 0.46571 0.01687 0.41146 0.0
H1083 H 0.52779 0.02122 0.41028 0.0
C1084 C 0.53513 0.47547 0.88722 0.0
C1085 C 0.51025 0.45947 0.89583 0.0
C1086 C 0.53529 0.5108 0.88574 0.0
C1087 C 0.4756 0.58293 0.8887 0.0
H1088 H 0.55714 0.63761 0.88422 0.0
C1089 C 0.48027 0.72868 0.89335 0.0
C1090 C 0.50231 0.74653 0.88394 0.0
C1091 C 0.47853 0.69332 0.8928 0.0
C1092 C 0.53416 0.62251 0.88521 0.0
H1093 H 0.46771 0.46738 0.91056 0.0
H1094 H 0.46891 0.52922 0.90861 0.0
H1095 H 0.56233 0.57687 0.8891 0.0
H1096 H 0.5379 0.74166 0.86584 0.0
H1097 H 0.53501 0.67959 0.86496 0.0
H1098 H 0.44752 0.62892 0.88525 0.0
C1099 C 0.48757 0.5146 0.90255 0.0
C1100 C 0.53712 0.58776 0.88806 0.0
C1101 C 0.48723 0.47929 0.90389 0.0
C1102 C 0.52065 0.72856 0.87321 0.0
C1103 C 0.51926 0.69308 0.8728 0.0
C1104 C 0.47267 0.61771 0.88598 0.0
C1105 C 0.51072 0.53066 0.893 0.0
C1106 C 0.50786 0.56763 0.88998 0.0
C1107 C 0.49906 0.67516 0.88292 0.0
C1108 C 0.50191 0.63784 0.88431 0.0
H1109 H 0.55327 0.46052 0.88101 0.0
H1110 H 0.55349 0.5223 0.8783 0.0
H1111 H 0.45252 0.56802 0.88973 0.0
H1112 H 0.46572 0.74192 0.90169 0.0
H1113 H 0.4628 0.68012 0.90075 0.0
C1114 C 0.75347 0.50197 0.37213 0.0
C1115 C 0.733 0.48671 0.38293 0.0
C1116 C 0.78864 0.49666 0.37211 0.0
C1117 C 0.85419 0.47774 0.39952 0.0
H1118 H 0.91566 0.48525 0.36636 0.0
C1119 C 0.00088 0.46975 0.40394 0.0
C1120 C 0.01959 0.49261 0.39529 0.0
C1121 C 0.9655 0.4682 0.40268 0.0
C1122 C 0.89869 0.48342 0.37571 0.0
H1123 H 0.73227 0.45038 0.40082 0.0
H1124 H 0.7934 0.43993 0.40038 0.0
H1125 H 0.85468 0.47799 0.36206 0.0
H1126 H 0.01656 0.53325 0.37935 0.0
H1127 H 0.95439 0.53062 0.37708 0.0
H1128 H 0.89825 0.48312 0.41315 0.0
C1129 C 0.78263 0.45717 0.39236 0.0
C1130 C 0.86384 0.47913 0.37326 0.0
C1131 C 0.74759 0.46286 0.39251 0.0
C1132 C 0.00243 0.51533 0.38604 0.0
C1133 C 0.96707 0.5136 0.38467 0.0
C1134 C 0.88901 0.48175 0.40196 0.0
C1135 C 0.80376 0.47562 0.38276 0.0
C1136 C 0.84114 0.47654 0.38514 0.0
C1137 C 0.94842 0.48936 0.39267 0.0
C1138 C 0.91152 0.485 0.39009 0.0
H1139 H 0.7429 0.52053 0.36461 0.0
H1140 H 0.80411 0.51126 0.36454 0.0
H1141 H 0.83741 0.47671 0.40895 0.0
H1142 H 0.01376 0.45176 0.41103 0.0
H1143 H 0.95171 0.44925 0.40895 0.0
C1144 C 0.0312 0.74244 0.12372 0.0
C1145 C 0.00772 0.7555 0.13389 0.0
C1146 C 0.03801 0.70765 0.12325 0.0
C1147 C 0.0196 0.62454 0.1416 0.0
H1148 H 0.014 0.59256 0.10138 0.0
C1149 C 0.9803 0.48794 0.1277 0.0
C1150 C 0.00244 0.47049 0.11828 0.0
C1151 C 0.98307 0.52309 0.12933 0.0
C1152 C 0.01587 0.60112 0.11265 0.0
H1153 H 0.97586 0.74303 0.15259 0.0
H1154 H 0.98704 0.68242 0.15161 0.0
H1155 H 0.02005 0.65309 0.10621 0.0
H1156 H 0.04316 0.47574 0.10241 0.0
H1157 H 0.04742 0.53762 0.1049 0.0
H1158 H 0.01402 0.57241 0.14796 0.0
C1159 C 0.00053 0.69884 0.14403 0.0
C1160 C 0.01967 0.63579 0.11546 0.0
C1161 C 0.9941 0.73373 0.14462 0.0
C1162 C 0.02567 0.48886 0.10966 0.0
C1163 C 0.02822 0.52411 0.11116 0.0
C1164 C 0.01542 0.5899 0.13878 0.0
C1165 C 0.0211 0.68521 0.13283 0.0
C1166 C 0.02121 0.648 0.12998 0.0
C1167 C 0.00774 0.54135 0.12139 0.0
C1168 C 0.01308 0.57795 0.12429 0.0
H1169 H 0.04245 0.75874 0.11543 0.0
H1170 H 0.05491 0.69812 0.11481 0.0
H1171 H 0.02117 0.63296 0.15289 0.0
H1172 H 0.9621 0.47412 0.13438 0.0
H1173 H 0.96652 0.5359 0.13707 0.0
C1174 C 0.75861 0.01098 0.64435 0.0
C1175 C 0.73761 0.02232 0.63286 0.0
C1176 C 0.79376 0.01658 0.64384 0.0
C1177 C 0.85981 0.02804 0.6156 0.0
H1178 H 0.92015 0.03307 0.64917 0.0
C1179 C 0.00762 0.03188 0.61129 0.0
C1180 C 0.02536 0.0124 0.62167 0.0
C1181 C 0.9722 0.03523 0.61228 0.0
C1182 C 0.90356 0.03143 0.6397 0.0
H1183 H 0.73638 0.05212 0.61282 0.0
H1184 H 0.79745 0.0629 0.61222 0.0
H1185 H 0.85895 0.0403 0.65266 0.0
H1186 H 0.02042 0.97947 0.64058 0.0
H1187 H 0.95851 0.98505 0.64229 0.0
H1188 H 0.9045 0.01899 0.60267 0.0
C1189 C 0.78702 0.0485 0.62131 0.0
C1190 C 0.86852 0.03566 0.6417 0.0
C1191 C 0.75194 0.04263 0.62174 0.0
C1192 C 0.00714 -0.0052 0.63252 0.0
C1193 C 0.97185 -0.00172 0.63358 0.0
C1194 C 0.89487 0.02405 0.6136 0.0
C1195 C 0.80855 0.03398 0.63192 0.0
C1196 C 0.84613 0.03351 0.6297 0.0
C1197 C 0.95411 0.01924 0.6237 0.0
C1198 C 0.91705 0.02511 0.62566 0.0
H1199 H 0.74842 -0.0048 0.65306 0.0
H1200 H 0.8095 0.005 0.65221 0.0
H1201 H 0.84334 0.02553 0.60613 0.0
H1202 H 0.0213 0.04584 0.60289 0.0
H1203 H 0.95918 0.05153 0.60451 0.0
C1204 C 0.5065 0.75895 0.14403 0.0
C1205 C 0.4876 0.74024 0.13374 0.0
C1206 C 0.50642 0.79445 0.14354 0.0
C1207 C 0.49492 0.86064 0.11565 0.0
H1208 H 0.50703 0.92268 0.14825 0.0
C1209 C 0.49274 0.00662 0.11021 0.0
C1210 C 0.51533 0.0252 0.11901 0.0
C1211 C 0.49101 0.97134 0.11149 0.0
C1212 C 0.50411 0.90551 0.13905 0.0
H1213 H 0.45054 0.74363 0.11618 0.0
H1214 H 0.44939 0.80549 0.1157 0.0
H1215 H 0.49541 0.8627 0.1531 0.0
H1216 H 0.55551 0.02201 0.13518 0.0
H1217 H 0.55267 0.95997 0.13742 0.0
H1218 H 0.5034 0.90346 0.10162 0.0
C1219 C 0.46535 0.79289 0.12372 0.0
C1220 C 0.49728 0.87126 0.14182 0.0
C1221 C 0.46574 0.75749 0.12409 0.0
C1222 C 0.53787 0.00797 0.12833 0.0
C1223 C 0.53599 0.97268 0.12971 0.0
C1224 C 0.50157 0.89486 0.11289 0.0
C1225 C 0.48713 0.81169 0.13287 0.0
C1226 C 0.49255 0.84846 0.13015 0.0
C1227 C 0.51175 0.95419 0.12165 0.0
C1228 C 0.50628 0.91761 0.12455 0.0
H1229 H 0.52365 0.74629 0.15157 0.0
H1230 H 0.52344 0.80819 0.15077 0.0
H1231 H 0.49231 0.8436 0.10639 0.0
H1232 H 0.47488 0.01955 0.10308 0.0
H1233 H 0.472 0.95774 0.10519 0.0
C1234 C 0.47021 0.53637 0.63002 0.0
C1235 C 0.45632 0.51194 0.62055 0.0
C1236 C 0.50543 0.53784 0.63228 0.0
C1237 C 0.58051 0.48165 0.62958 0.0
H1238 H 0.63242 0.56449 0.6351 0.0
C1239 C 0.72596 0.49004 0.62447 0.0
C1240 C 0.7438 0.51112 0.63424 0.0
C1241 C 0.69052 0.48819 0.62501 0.0
C1242 C 0.61809 0.54114 0.63383 0.0
H1243 H 0.4681 0.47135 0.60532 0.0
H1244 H 0.52944 0.47502 0.60863 0.0
H1245 H 0.57127 0.56787 0.63031 0.0
H1246 H 0.73874 0.54535 0.65277 0.0
H1247 H 0.67647 0.54232 0.65359 0.0
H1248 H 0.62752 0.45502 0.63263 0.0
C1249 C 0.5133 0.49234 0.61471 0.0
C1250 C 0.58312 0.54307 0.63104 0.0
C1251 C 0.47821 0.49066 0.61259 0.0
C1252 C 0.72565 0.52879 0.64513 0.0
C1253 C 0.69007 0.52732 0.64553 0.0
C1254 C 0.61543 0.47975 0.63225 0.0
C1255 C 0.52723 0.515 0.62501 0.0
C1256 C 0.56407 0.51334 0.62862 0.0
C1257 C 0.67219 0.50768 0.63522 0.0
C1258 C 0.63463 0.50948 0.63418 0.0
H1259 H 0.45372 0.55314 0.63621 0.0
H1260 H 0.51534 0.55566 0.64026 0.0
H1261 H 0.56642 0.45819 0.62819 0.0
H1262 H 0.73929 0.47607 0.61598 0.0
H1263 H 0.67738 0.47296 0.61688 0.0
C1264 C 0.07192 0.41204 0.313 0.0
C1265 C 0.10451 0.4171 0.31894 0.0
C1266 C 0.06723 0.41012 0.29784 0.0
C1267 C 0.11048 0.42545 0.26184 0.0
H1268 H 0.04121 0.36303 0.24793 0.0
C1269 C 0.08068 0.41423 0.2002 0.0
C1270 C 0.07242 0.3821 0.19454 0.0
C1271 C 0.08248 0.41956 0.21533 0.0
C1272 C 0.06095 0.3803 0.25156 0.0
H1273 H 0.15783 0.42403 0.31372 0.0
H1274 H 0.15004 0.41961 0.2872 0.0
H1275 H 0.04988 0.37014 0.27409 0.0
H1276 H 0.05973 0.33021 0.20023 0.0
H1277 H 0.06393 0.33899 0.2267 0.0
H1278 H 0.1229 0.43411 0.23933 0.0
C1279 C 0.12777 0.41821 0.29419 0.0
C1280 C 0.06556 0.38488 0.26666 0.0
C1281 C 0.13235 0.42076 0.30941 0.0
C1282 C 0.06552 0.3554 0.20432 0.0
C1283 C 0.06794 0.36054 0.2195 0.0
C1284 C 0.10623 0.42048 0.24675 0.0
C1285 C 0.09516 0.41238 0.28819 0.0
C1286 C 0.0903 0.40764 0.27204 0.0
C1287 C 0.07688 0.39264 0.22523 0.0
C1288 C 0.08129 0.39793 0.24137 0.0
H1289 H 0.04998 0.4093 0.32013 0.0
H1290 H 0.04161 0.40659 0.29371 0.0
H1291 H 0.12953 0.44347 0.26548 0.0
H1292 H 0.08595 0.43531 0.19287 0.0
H1293 H 0.08849 0.44485 0.21922 0.0
C1294 C 0.1352 0.06522 0.70708 0.0
C1295 C 0.11429 0.07917 0.69617 0.0
C1296 C 0.12605 0.06786 0.72191 0.0
C1297 C 0.06816 0.11704 0.74681 0.0
H1298 H 0.09643 0.04899 0.77498 0.0
C1299 C 0.05585 0.13834 0.80958 0.0
C1300 C 0.05191 0.10983 0.81867 0.0
C1301 C 0.0609 0.13427 0.79445 0.0
C1302 C 0.08771 0.06806 0.76729 0.0
H1303 H 0.06694 0.10563 0.69202 0.0
H1304 H 0.04996 0.10861 0.71766 0.0
H1305 H 0.10907 0.04084 0.74922 0.0
H1306 H 0.04841 0.05497 0.81914 0.0
H1307 H 0.05501 0.04779 0.79278 0.0
H1308 H 0.04528 0.14341 0.76479 0.0
C1309 C 0.07411 0.09685 0.71501 0.0
C1310 C 0.09562 0.06366 0.75244 0.0
C1311 C 0.08363 0.09485 0.70026 0.0
C1312 C 0.05154 0.07735 0.81234 0.0
C1313 C 0.05579 0.07329 0.79722 0.0
C1314 C 0.05967 0.12113 0.76163 0.0
C1315 C 0.09546 0.08401 0.72612 0.0
C1316 C 0.0862 0.08819 0.74196 0.0
C1317 C 0.06154 0.10159 0.78807 0.0
C1318 C 0.0695 0.09681 0.77213 0.0
H1319 H 0.15926 0.05352 0.70422 0.0
H1320 H 0.14356 0.05814 0.73006 0.0
H1321 H 0.0609 0.13692 0.73921 0.0
H1322 H 0.05679 0.16363 0.81426 0.0
H1323 H 0.06567 0.15674 0.78789 0.0
C1324 C 0.41758 0.06988 0.3132 0.0
C1325 C 0.38494 0.06172 0.31845 0.0
C1326 C 0.42364 0.07344 0.29817 0.0
C1327 C 0.38603 0.05606 0.26131 0.0
H1328 H 0.45104 0.12468 0.249 0.0
C1329 C 0.42365 0.06986 0.20057 0.0
C1330 C 0.42912 0.10264 0.19494 0.0
C1331 C 0.42024 0.06453 0.21565 0.0
C1332 C 0.43254 0.10564 0.25219 0.0
H1333 H 0.33286 0.05133 0.31209 0.0
H1334 H 0.34305 0.0583 0.28582 0.0
H1335 H 0.43985 0.11623 0.27497 0.0
H1336 H 0.4352 0.15567 0.20067 0.0
H1337 H 0.42842 0.14667 0.22706 0.0
H1338 H 0.37744 0.04663 0.23853 0.0
C1339 C 0.36437 0.06094 0.29326 0.0
C1340 C 0.42648 0.10036 0.26716 0.0
C1341 C 0.35845 0.05687 0.30834 0.0
C1342 C 0.43169 0.13003 0.20473 0.0
C1343 C 0.42774 0.12479 0.21987 0.0
C1344 C 0.39178 0.06161 0.24634 0.0
C1345 C 0.39702 0.06962 0.28797 0.0
C1346 C 0.40326 0.07536 0.27196 0.0
C1347 C 0.42147 0.09198 0.22552 0.0
C1348 C 0.41527 0.08635 0.24154 0.0
H1349 H 0.43853 0.07364 0.32077 0.0
H1350 H 0.44929 0.07928 0.29458 0.0
H1351 H 0.36825 0.03634 0.26449 0.0
H1352 H 0.42174 0.04823 0.19325 0.0
H1353 H 0.41639 0.03879 0.21953 0.0
C1354 C 0.40905 0.35127 0.80975 0.0
C1355 C 0.42303 0.37833 0.81774 0.0
C1356 C 0.40272 0.35475 0.79467 0.0
C1357 C 0.39434 0.42242 0.76574 0.0
H1358 H 0.39711 0.34564 0.73913 0.0
C1359 C 0.40691 0.4281 0.70219 0.0
C1360 C 0.37989 0.41323 0.69441 0.0
C1361 C 0.40904 0.42466 0.71743 0.0
C1362 C 0.39596 0.36718 0.74651 0.0
H1363 H 0.44269 0.42957 0.81634 0.0
H1364 H 0.43403 0.43502 0.79002 0.0
H1365 H 0.40968 0.33705 0.76513 0.0
H1366 H 0.33401 0.38302 0.69629 0.0
H1367 H 0.33841 0.37591 0.72311 0.0
H1368 H 0.38257 0.45267 0.74679 0.0
C1369 C 0.42632 0.41159 0.79529 0.0
C1370 C 0.40303 0.36234 0.76144 0.0
C1371 C 0.43181 0.40837 0.81037 0.0
C1372 C 0.35479 0.39508 0.70212 0.0
C1373 C 0.35743 0.39084 0.71737 0.0
C1374 C 0.38808 0.42731 0.75078 0.0
C1375 C 0.41081 0.38521 0.78724 0.0
C1376 C 0.40257 0.38995 0.7713 0.0
C1377 C 0.38472 0.40544 0.7251 0.0
C1378 C 0.38891 0.39978 0.74105 0.0
H1379 H 0.40157 0.32805 0.81529 0.0
H1380 H 0.39038 0.33395 0.78901 0.0
H1381 H 0.39263 0.44425 0.77292 0.0
H1382 H 0.42668 0.44198 0.69643 0.0
H1383 H 0.43035 0.43602 0.72318 0.0
C1384 C 0.91238 0.58233 0.81581 0.0
C1385 C 0.92177 0.61434 0.82132 0.0
C1386 C 0.90952 0.57693 0.80071 0.0
C1387 C 0.88932 0.62048 0.76666 0.0
H1388 H 0.92996 0.54219 0.74762 0.0
C1389 C 0.85484 0.57807 0.70736 0.0
C1390 C 0.8831 0.57362 0.6981 0.0
C1391 C 0.85941 0.58188 0.72254 0.0
C1392 C 0.91841 0.56411 0.7528 0.0
H1393 H 0.93528 0.66592 0.81537 0.0
H1394 H 0.9297 0.65662 0.78882 0.0
H1395 H 0.94021 0.55224 0.77377 0.0
H1396 H 0.93805 0.56881 0.6974 0.0
H1397 H 0.94591 0.57443 0.72388 0.0
H1398 H 0.86715 0.63208 0.74572 0.0
C1399 C 0.92502 0.63563 0.79626 0.0
C1400 C 0.92423 0.56983 0.76775 0.0
C1401 C 0.92856 0.64086 0.81141 0.0
C1402 C 0.91581 0.57208 0.70431 0.0
C1403 C 0.92031 0.57521 0.71945 0.0
C1404 C 0.883 0.61442 0.75176 0.0
C1405 C 0.91525 0.60363 0.79078 0.0
C1406 C 0.90988 0.59815 0.77482 0.0
C1407 C 0.89225 0.5807 0.72871 0.0
C1408 C 0.89761 0.58625 0.74467 0.0
H1409 H 0.90688 0.56148 0.82322 0.0
H1410 H 0.90173 0.5521 0.79682 0.0
H1411 H 0.87767 0.64232 0.77187 0.0
H1412 H 0.82942 0.57993 0.70283 0.0
H1413 H 0.83733 0.58597 0.72945 0.0
C1414 C 0.87706 0.87223 0.20561 0.0
C1415 C 0.90839 0.87269 0.19807 0.0
C1416 C 0.87518 0.88076 0.22046 0.0
C1417 C 0.92443 0.88539 0.2544 0.0
H1418 H 0.85394 0.94806 0.26694 0.0
C1419 C 0.91591 0.92889 0.31462 0.0
C1420 C 0.88342 0.93267 0.32087 0.0
C1421 C 0.91981 0.9246 0.29949 0.0
C1422 C 0.8735 0.93019 0.2637 0.0
H1423 H 0.96234 0.88361 0.20049 0.0
H1424 H 0.95918 0.89704 0.22659 0.0
H1425 H 0.85942 0.93359 0.24102 0.0
H1426 H 0.82944 0.93487 0.31617 0.0
H1427 H 0.83597 0.92655 0.28976 0.0
H1428 H 0.93788 0.88086 0.27703 0.0
C1429 C 0.93611 0.88978 0.22088 0.0
C1430 C 0.87673 0.92202 0.24881 0.0
C1431 C 0.93795 0.88165 0.2059 0.0
C1432 C 0.85484 0.93273 0.31163 0.0
C1433 C 0.85867 0.92791 0.29646 0.0
C1434 C 0.92095 0.89318 0.26931 0.0
C1435 C 0.90461 0.88981 0.22826 0.0
C1436 C 0.90213 0.89943 0.24401 0.0
C1437 C 0.89123 0.92323 0.2902 0.0
C1438 C 0.89538 0.91566 0.27421 0.0
H1439 H 0.8537 0.86545 0.20001 0.0
H1440 H 0.85061 0.88013 0.22588 0.0
H1441 H 0.94399 0.8676 0.25105 0.0
H1442 H 0.93843 0.92889 0.32149 0.0
H1443 H 0.94533 0.922 0.29513 0.0
C1444 C 0.61084 0.89418 0.81549 0.0
C1445 C 0.57963 0.88329 0.82152 0.0
C1446 C 0.6141 0.90053 0.80047 0.0
C1447 C 0.57817 0.87967 0.7646 0.0
H1448 H 0.6232 0.96235 0.75177 0.0
C1449 C 0.58776 0.91233 0.7032 0.0
C1450 C 0.61803 0.92719 0.69805 0.0
C1451 C 0.58129 0.90966 0.71823 0.0
C1452 C 0.61096 0.93893 0.75512 0.0
H1453 H 0.52695 0.8718 0.81622 0.0
H1454 H 0.53313 0.88145 0.78989 0.0
H1455 H 0.6155 0.95146 0.77793 0.0
H1456 H 0.66526 0.95115 0.70459 0.0
H1457 H 0.65457 0.94575 0.73092 0.0
H1458 H 0.5746 0.86635 0.74194 0.0
C1459 C 0.55514 0.88475 0.79691 0.0
C1460 C 0.60641 0.93278 0.77013 0.0
C1461 C 0.55173 0.8788 0.81203 0.0
C1462 C 0.64145 0.94011 0.70825 0.0
C1463 C 0.63524 0.93695 0.72336 0.0
C1464 C 0.58309 0.88558 0.7496 0.0
C1465 C 0.5863 0.89599 0.791 0.0
C1466 C 0.59005 0.90304 0.77504 0.0
C1467 C 0.60529 0.92112 0.72856 0.0
C1468 C 0.59958 0.9153 0.74461 0.0
H1469 H 0.63295 0.89797 0.8224 0.0
H1470 H 0.63855 0.90876 0.79623 0.0
H1471 H 0.56588 0.85633 0.76804 0.0
H1472 H 0.56913 0.90237 0.69556 0.0
H1473 H 0.55754 0.89822 0.72171 0.0
C1474 C 0.56066 0.57261 0.20359 0.0
C1475 C 0.55715 0.60505 0.19734 0.0
C1476 C 0.56441 0.56866 0.21874 0.0
C1477 C 0.55661 0.61446 0.25451 0.0
H1478 H 0.616 0.54203 0.26783 0.0
C1479 C 0.57118 0.58485 0.31612 0.0
C1480 C 0.60326 0.57484 0.32137 0.0
C1481 C 0.56484 0.58698 0.30106 0.0
C1482 C 0.59962 0.56264 0.26435 0.0
H1483 H 0.55496 0.65891 0.20205 0.0
H1484 H 0.56234 0.65229 0.22852 0.0
H1485 H 0.60658 0.55012 0.24174 0.0
H1486 H 0.65405 0.55945 0.31495 0.0
H1487 H 0.64345 0.56394 0.28861 0.0
H1488 H 0.55103 0.62806 0.27708 0.0
C1489 C 0.5612 0.62966 0.22179 0.0
C1490 C 0.5937 0.56696 0.24932 0.0
C1491 C 0.55691 0.63355 0.20659 0.0
C1492 C 0.62886 0.56655 0.31122 0.0
C1493 C 0.6227 0.56919 0.2961 0.0
C1494 C 0.56286 0.61039 0.26953 0.0
C1495 C 0.56549 0.59714 0.22807 0.0
C1496 C 0.57193 0.59281 0.24416 0.0
C1497 C 0.59067 0.57985 0.29079 0.0
C1498 C 0.58431 0.58429 0.2747 0.0
H1499 H 0.56079 0.55016 0.19671 0.0
H1500 H 0.56668 0.54316 0.22311 0.0
H1501 H 0.53945 0.63445 0.25105 0.0
H1502 H 0.5509 0.59124 0.3237 0.0
H1503 H 0.53961 0.59438 0.2975 0.0
C1504 C 0.34748 0.16343 0.11965 0.0
C1505 C 0.373 0.16439 0.10885 0.0
C1506 C 0.31518 0.17638 0.11676 0.0
C1507 C 0.27397 0.24019 0.09353 0.0
H1508 H 0.19342 0.20731 0.11373 0.0
C1509 C 0.13757 0.303 0.09507 0.0
C1510 C 0.12747 0.30984 0.1096 0.0
C1511 C 0.16717 0.28427 0.09228 0.0
C1512 C 0.21569 0.21655 0.10792 0.0
H1513 H 0.38389 0.17756 0.08618 0.0
H1514 H 0.32705 0.19974 0.08106 0.0
H1515 H 0.24436 0.1719 0.11289 0.0
H1516 H 0.14144 0.30382 0.13254 0.0
H1517 H 0.1925 0.27077 0.1276 0.0
H1518 H 0.24491 0.28511 0.08876 0.0
C1519 C 0.33237 0.18956 0.09186 0.0
C1520 C 0.24485 0.19643 0.10748 0.0
C1521 C 0.36484 0.17664 0.09478 0.0
C1522 C 0.14835 0.29897 0.12122 0.0
C1523 C 0.17747 0.27988 0.11843 0.0
C1524 C 0.24452 0.26014 0.09379 0.0
C1525 C 0.30748 0.19041 0.10296 0.0
C1526 C 0.27476 0.20858 0.1008 0.0
C1527 C 0.18663 0.27176 0.10399 0.0
C1528 C 0.21567 0.24889 0.10145 0.0
H1529 H 0.35283 0.15407 0.1306 0.0
H1530 H 0.29684 0.177 0.12564 0.0
H1531 H 0.29665 0.25045 0.08839 0.0
H1532 H 0.12208 0.31114 0.08588 0.0
H1533 H 0.17405 0.27834 0.08105 0.0
C1534 C 0.35531 0.3347 0.59252 0.0
C1535 C 0.36059 0.34591 0.607 0.0
C1536 C 0.34717 0.30073 0.58973 0.0
C1537 C 0.33566 0.21597 0.60782 0.0
H1538 H 0.25181 0.21454 0.58529 0.0
C1539 C 0.22327 0.13129 0.62233 0.0
C1540 C 0.20857 0.11134 0.61122 0.0
C1541 C 0.24751 0.15589 0.61889 0.0
C1542 C 0.27553 0.21433 0.59136 0.0
H1543 H 0.36575 0.32948 0.62964 0.0
H1544 H 0.35096 0.27086 0.62487 0.0
H1545 H 0.28897 0.26406 0.584 0.0
H1546 H 0.20679 0.10255 0.58771 0.0
H1547 H 0.24858 0.14683 0.58169 0.0
H1548 H 0.32053 0.16724 0.61606 0.0
C1549 C 0.3531 0.28797 0.6156 0.0
C1550 C 0.29701 0.24259 0.59057 0.0
C1551 C 0.36135 0.32181 0.61838 0.0
C1552 C 0.21766 0.11753 0.59651 0.0
C1553 C 0.24161 0.14267 0.59305 0.0
C1554 C 0.31397 0.18796 0.60875 0.0
C1555 C 0.34416 0.27742 0.60137 0.0
C1556 C 0.32658 0.24434 0.59929 0.0
C1557 C 0.25723 0.16145 0.60427 0.0
C1558 C 0.28311 0.18757 0.60098 0.0
H1559 H 0.35504 0.35253 0.58346 0.0
H1560 H 0.34121 0.2932 0.5786 0.0
H1561 H 0.3586 0.2162 0.61442 0.0
H1562 H 0.21696 0.1272 0.63378 0.0
H1563 H 0.25874 0.17061 0.6277 0.0
C1564 C 0.13679 0.17602 0.89051 0.0
C1565 C 0.11419 0.17303 0.9024 0.0
C1566 C 0.16877 0.19066 0.8924 0.0
C1567 C 0.21375 0.25072 0.91646 0.0
H1568 H 0.29055 0.22427 0.89224 0.0
C1569 C 0.35171 0.30944 0.91588 0.0
C1570 C 0.36278 0.31839 0.90168 0.0
C1571 C 0.32058 0.29274 0.91787 0.0
C1572 C 0.26926 0.23184 0.89907 0.0
H1573 H 0.10827 0.18124 0.92582 0.0
H1574 H 0.1647 0.20618 0.92919 0.0
H1575 H 0.23988 0.18852 0.89288 0.0
H1576 H 0.34859 0.31922 0.87863 0.0
H1577 H 0.29474 0.2897 0.88218 0.0
H1578 H 0.2438 0.29406 0.92267 0.0
C1579 C 0.15723 0.19789 0.91833 0.0
C1580 C 0.24025 0.21149 0.89942 0.0
C1581 C 0.12503 0.18335 0.91641 0.0
C1582 C 0.34104 0.3125 0.8897 0.0
C1583 C 0.31027 0.29547 0.89168 0.0
C1584 C 0.24312 0.27087 0.91627 0.0
C1585 C 0.17915 0.20238 0.90627 0.0
C1586 C 0.21173 0.22121 0.90775 0.0
C1587 C 0.30039 0.2845 0.9057 0.0
C1588 C 0.27061 0.26201 0.90723 0.0
H1589 H 0.12931 0.16835 0.87955 0.0
H1590 H 0.18472 0.19414 0.88282 0.0
H1591 H 0.19213 0.25912 0.92289 0.0
H1592 H 0.3678 0.31379 0.92534 0.0
H1593 H 0.31323 0.28455 0.92878 0.0
C1594 C 0.17618 0.3466 0.41874 0.0
C1595 C 0.1651 0.35557 0.40458 0.0
C1596 C 0.1895 0.31425 0.42145 0.0
C1597 C 0.19855 0.22813 0.40503 0.0
H1598 H 0.28536 0.22708 0.42541 0.0
C1599 C 0.30338 0.13342 0.39239 0.0
C1600 C 0.30958 0.1097 0.40362 0.0
C1601 C 0.28518 0.16301 0.39529 0.0
C1602 C 0.2609 0.22703 0.41991 0.0
H1603 H 0.15753 0.33699 0.38238 0.0
H1604 H 0.18114 0.2812 0.38702 0.0
H1605 H 0.25063 0.27879 0.42557 0.0
H1606 H 0.30381 0.09975 0.42695 0.0
H1607 H 0.27249 0.1524 0.43203 0.0
H1608 H 0.21009 0.1771 0.39857 0.0
C1609 C 0.17926 0.29882 0.39611 0.0
C1610 C 0.24092 0.25644 0.42004 0.0
C1611 C 0.16592 0.331 0.39341 0.0
C1612 C 0.29932 0.11746 0.41805 0.0
C1613 C 0.28143 0.14744 0.42098 0.0
C1614 C 0.2187 0.19902 0.40474 0.0
C1615 C 0.1919 0.29029 0.41007 0.0
C1616 C 0.21002 0.2576 0.4122 0.0
C1617 C 0.27334 0.16972 0.4095 0.0
C1618 C 0.25035 0.19864 0.41184 0.0
H1619 H 0.17572 0.3649 0.42761 0.0
H1620 H 0.19863 0.30827 0.43237 0.0
H1621 H 0.17457 0.22796 0.39916 0.0
H1622 H 0.311 0.1284 0.38117 0.0
H1623 H 0.27934 0.18018 0.38634 0.0
C1624 C 0.86408 0.69443 0.92152 0.0
C1625 C 0.87355 0.68858 0.90683 0.0
C1626 C 0.83517 0.7138 0.92478 0.0
C1627 C 0.7869 0.78365 0.91046 0.0
H1628 H 0.70618 0.74794 0.92956 0.0
C1629 C 0.65444 0.83383 0.89842 0.0
C1630 C 0.62837 0.83115 0.90893 0.0
C1631 C 0.68718 0.82245 0.9016 0.0
C1632 C 0.7288 0.75874 0.92459 0.0
H1633 H 0.85938 0.69732 0.88408 0.0
H1634 H 0.80947 0.73144 0.88985 0.0
H1635 H 0.75806 0.71366 0.92874 0.0
H1636 H 0.61693 0.81707 0.93145 0.0
H1637 H 0.6745 0.79761 0.93707 0.0
H1638 H 0.75791 0.82841 0.90603 0.0
C1639 C 0.82445 0.72105 0.89877 0.0
C1640 C 0.75835 0.73899 0.92406 0.0
C1641 C 0.85286 0.7013 0.89551 0.0
C1642 C 0.6364 0.81921 0.92306 0.0
C1643 C 0.66931 0.80786 0.92627 0.0
C1644 C 0.75763 0.80358 0.91117 0.0
C1645 C 0.81582 0.72799 0.91339 0.0
C1646 C 0.78706 0.75084 0.91648 0.0
C1647 C 0.69475 0.80832 0.9154 0.0
C1648 C 0.72776 0.79075 0.91766 0.0
H1649 H 0.8795 0.68488 0.93047 0.0
H1650 H 0.82867 0.71876 0.93613 0.0
H1651 H 0.80907 0.79334 0.90472 0.0
H1652 H 0.64922 0.8431 0.88745 0.0
H1653 H 0.70597 0.82287 0.8929 0.0
C1654 C 0.6922 0.64927 0.39402 0.0
C1655 C 0.68182 0.62826 0.40569 0.0
C1656 C 0.71166 0.67819 0.3967 0.0
C1657 C 0.73325 0.74408 0.42177 0.0
H1658 H 0.81959 0.74584 0.40099 0.0
C1659 C 0.81642 0.86451 0.42093 0.0
C1660 C 0.82723 0.87389 0.40677 0.0
C1661 C 0.80392 0.8318 0.42361 0.0
C1662 C 0.79559 0.74578 0.40686 0.0
H1663 H 0.68184 0.62238 0.42939 0.0
H1664 H 0.71528 0.67398 0.43404 0.0
H1665 H 0.78414 0.69493 0.40012 0.0
H1666 H 0.83553 0.8556 0.38458 0.0
H1667 H 0.81329 0.79921 0.38914 0.0
H1668 H 0.74344 0.79566 0.42771 0.0
C1669 C 0.70868 0.66738 0.42286 0.0
C1670 C 0.77544 0.71665 0.4064 0.0
C1671 C 0.68958 0.63799 0.42017 0.0
C1672 C 0.82728 0.84931 0.3956 0.0
C1673 C 0.81473 0.81677 0.39826 0.0
C1674 C 0.75321 0.77351 0.42206 0.0
C1675 C 0.72067 0.68701 0.41108 0.0
C1676 C 0.74373 0.71596 0.41349 0.0
C1677 C 0.80205 0.80789 0.41219 0.0
C1678 C 0.7841 0.77501 0.4142 0.0
H1679 H 0.68665 0.64264 0.38274 0.0
H1680 H 0.72032 0.69336 0.38748 0.0
H1681 H 0.70879 0.74396 0.42729 0.0
H1682 H 0.81627 0.8828 0.42981 0.0
H1683 H 0.79483 0.82555 0.43451 0.0
C1684 C 0.84365 0.7844 0.12379 0.0
C1685 C 0.86339 0.79802 0.11232 0.0
C1686 C 0.81553 0.76407 0.12073 0.0
C1687 C 0.74893 0.74632 0.09529 0.0
H1688 H 0.74568 0.65883 0.11497 0.0
C1689 C 0.62562 0.66775 0.09646 0.0
C1690 C 0.61652 0.65711 0.11068 0.0
C1691 C 0.65881 0.67867 0.09348 0.0
C1692 C 0.7462 0.68313 0.10937 0.0
H1693 H 0.86812 0.80228 0.08865 0.0
H1694 H 0.81779 0.76732 0.08335 0.0
H1695 H 0.79761 0.69287 0.11597 0.0
H1696 H 0.6357 0.64726 0.13261 0.0
H1697 H 0.69299 0.66677 0.12753 0.0
H1698 H 0.69683 0.73786 0.08956 0.0
C1699 C 0.8248 0.77209 0.09466 0.0
C1700 C 0.77591 0.70248 0.1099 0.0
C1701 C 0.85344 0.79208 0.09771 0.0
C1702 C 0.64177 0.65549 0.12156 0.0
C1703 C 0.67481 0.66643 0.1186 0.0
C1704 C 0.71897 0.72713 0.09491 0.0
C1705 C 0.80621 0.75732 0.10617 0.0
C1706 C 0.77708 0.73468 0.1033 0.0
C1707 C 0.68348 0.67908 0.10464 0.0
C1708 C 0.71693 0.69588 0.10241 0.0
H1709 H 0.85054 0.78842 0.13516 0.0
H1710 H 0.80113 0.75335 0.12978 0.0
H1711 H 0.74936 0.77116 0.09016 0.0
H1712 H 0.60681 0.66906 0.08779 0.0
H1713 H 0.66485 0.68781 0.08256 0.0
C1714 C 0.69939 0.86946 0.59788 0.0
C1715 C 0.6936 0.87947 0.6125 0.0
C1716 C 0.72007 0.8414 0.5948 0.0
C1717 C 0.79104 0.79407 0.61005 0.0
H1718 H 0.7571 0.71505 0.58931 0.0
C1719 C 0.83711 0.66029 0.622 0.0
C1720 C 0.83544 0.63502 0.61115 0.0
C1721 C 0.82711 0.69347 0.61886 0.0
C1722 C 0.76746 0.73721 0.59476 0.0
H1723 H 0.70406 0.86723 0.63532 0.0
H1724 H 0.74022 0.81875 0.62988 0.0
H1725 H 0.72305 0.76693 0.58995 0.0
H1726 H 0.82492 0.62543 0.58813 0.0
H1727 H 0.80781 0.68365 0.58261 0.0
H1728 H 0.835 0.7644 0.61522 0.0
C1729 C 0.72895 0.83272 0.62085 0.0
C1730 C 0.74783 0.76679 0.59517 0.0
C1731 C 0.70797 0.86028 0.62394 0.0
C1732 C 0.82615 0.64424 0.59678 0.0
C1733 C 0.81618 0.67754 0.59363 0.0
C1734 C 0.81083 0.76472 0.6095 0.0
C1735 C 0.73564 0.82344 0.60628 0.0
C1736 C 0.75889 0.79487 0.60334 0.0
C1737 C 0.8154 0.70219 0.60477 0.0
C1738 C 0.79857 0.73546 0.60241 0.0
H1739 H 0.68862 0.88372 0.58883 0.0
H1740 H 0.72474 0.83439 0.58348 0.0
H1741 H 0.80023 0.81574 0.61622 0.0
H1742 H 0.84438 0.65413 0.63316 0.0
H1743 H 0.82652 0.71168 0.62776 0.0
loop_
_geom_bond_atom_site_label_1
_geom_bond_atom_site_label_2
_geom_bond_distance
_geom_bond_site_symmetry_2
_ccdc_geom_bond_type
Co0 O3 1.970 . S
Co0 N17 1.989 . S
Co0 O25 1.967 . S
Co0 O32 1.920 . S
Co1 O4 1.966 . S
Co1 N10 2.022 . S
Co1 N18 1.993 . S
Co1 O26 1.941 . S
C2 O3 1.258 . S
C2 O4 1.263 . S
O3 Co0 1.970 . S
O3 C2 1.258 . S
O4 Co1 1.966 . S
O4 C2 1.263 . S
C5 O6 1.235 . S
C5 O32 1.289 . S
O6 C5 1.235 . S
C7 C9 1.400 . S
C7 N10 1.351 . S
C7 C12 1.501 . S
C8 C9 1.387 . S
C8 N11 1.341 . S
C9 C7 1.400 . S
C9 C8 1.387 . S
N10 Co1 2.022 . S
N10 C7 1.351 . S
N10 N11 1.365 . S
N11 C8 1.341 . S
N11 N10 1.365 . S
N11 H31 0.862 . S
C12 C7 1.501 . S
C12 H13 0.961 . S
C12 H14 0.961 . S
C12 H15 0.960 . S
H13 C12 0.961 . S
H14 C12 0.961 . S
H15 C12 0.960 . S
C16 N17 1.342 . S
C16 C20 1.401 . S
C16 C21 1.499 . S
N17 Co0 1.989 . S
N17 C16 1.342 . S
N17 N18 1.388 . S
N18 Co1 1.993 . S
N18 N17 1.388 . S
N18 C19 1.346 . S
C19 N18 1.346 . S
C19 C20 1.396 . S
C19 C29 1.510 . S
C20 C16 1.401 . S
C20 C19 1.396 . S
C21 C16 1.499 . S
C21 H22 0.959 . S
C21 H23 0.960 . S
C21 H24 0.961 . S
H22 C21 0.959 . S
H23 C21 0.960 . S
H24 C21 0.961 . S
O25 Co0 1.967 . S
O25 C33 1.258 . S
O26 Co1 1.941 . S
O26 C33 1.266 . S
H27 C29 0.959 . S
H28 C29 0.961 . S
C29 C19 1.510 . S
C29 H27 0.959 . S
C29 H28 0.961 . S
C29 H30 0.960 . S
H30 C29 0.960 . S
H31 N11 0.862 . S
O32 Co0 1.920 . S
O32 C5 1.289 . S
C33 O25 1.258 . S
C33 O26 1.266 . S
Co34 O37 1.970 . S
Co34 N51 1.989 . S
Co34 O59 1.967 . S
Co34 O66 1.920 . S
Co35 O38 1.966 . S
Co35 N44 2.022 . S
Co35 N52 1.993 . S
Co35 O60 1.941 . S
C36 O37 1.258 . S
C36 O38 1.263 . S
O37 Co34 1.970 . S
O37 C36 1.258 . S
O38 Co35 1.966 . S
O38 C36 1.263 . S
C39 O40 1.235 . S
C39 O66 1.289 . S
O40 C39 1.235 . S
C41 C43 1.400 . S
C41 N44 1.351 . S
C41 C46 1.501 . S
C42 C43 1.387 . S
C42 N45 1.341 . S
C43 C41 1.400 . S
C43 C42 1.387 . S
N44 Co35 2.022 . S
N44 C41 1.351 . S
N44 N45 1.365 . S
N45 C42 1.341 . S
N45 N44 1.365 . S
N45 H65 0.862 . S
C46 C41 1.501 . S
C46 H47 0.961 . S
C46 H48 0.961 . S
C46 H49 0.960 . S
H47 C46 0.961 . S
H48 C46 0.961 . S
H49 C46 0.960 . S
C50 N51 1.342 . S
C50 C54 1.401 . S
C50 C55 1.499 . S
N51 Co34 1.989 . S
N51 C50 1.342 . S
N51 N52 1.388 . S
N52 Co35 1.993 . S
N52 N51 1.388 . S
N52 C53 1.346 . S
C53 N52 1.346 . S
C53 C54 1.396 . S
C53 C63 1.510 . S
C54 C50 1.401 . S
C54 C53 1.396 . S
C55 C50 1.499 . S
C55 H56 0.959 . S
C55 H57 0.960 . S
C55 H58 0.961 . S
H56 C55 0.959 . S
H57 C55 0.960 . S
H58 C55 0.961 . S
O59 Co34 1.967 . S
O59 C67 1.258 . S
O60 Co35 1.941 . S
O60 C67 1.266 . S
H61 C63 0.959 . S
H62 C63 0.961 . S
C63 C53 1.510 . S
C63 H61 0.959 . S
C63 H62 0.961 . S
C63 H64 0.960 . S
H64 C63 0.960 . S
H65 N45 0.862 . S
O66 Co34 1.920 . S
O66 C39 1.289 . S
C67 O59 1.258 . S
C67 O60 1.266 . S
Co68 O71 1.970 . S
Co68 N85 1.989 . S
Co68 O93 1.967 . S
Co68 O100 1.920 . S
Co69 O72 1.966 . S
Co69 N78 2.022 . S
Co69 N86 1.993 . S
Co69 O94 1.941 . S
C70 O71 1.258 . S
C70 O72 1.263 . S
O71 Co68 1.970 . S
O71 C70 1.258 . S
O72 Co69 1.966 . S
O72 C70 1.263 . S
C73 O74 1.235 . S
C73 O100 1.289 . S
O74 C73 1.235 . S
C75 C77 1.400 . S
C75 N78 1.351 . S
C75 C80 1.501 . S
C76 C77 1.387 . S
C76 N79 1.341 . S
C77 C75 1.400 . S
C77 C76 1.387 . S
N78 Co69 2.022 . S
N78 C75 1.351 . S
N78 N79 1.365 . S
N79 C76 1.341 . S
N79 N78 1.365 . S
N79 H99 0.862 . S
C80 C75 1.501 . S
C80 H81 0.961 . S
C80 H82 0.961 . S
C80 H83 0.960 . S
H81 C80 0.961 . S
H82 C80 0.961 . S
H83 C80 0.960 . S
C84 N85 1.342 . S
C84 C88 1.401 . S
C84 C89 1.499 . S
N85 Co68 1.989 . S
N85 C84 1.342 . S
N85 N86 1.388 . S
N86 Co69 1.993 . S
N86 N85 1.388 . S
N86 C87 1.346 . S
C87 N86 1.346 . S
C87 C88 1.396 . S
C87 C97 1.510 . S
C88 C84 1.401 . S
C88 C87 1.396 . S
C89 C84 1.499 . S
C89 H90 0.959 . S
C89 H91 0.960 . S
C89 H92 0.961 . S
H90 C89 0.959 . S
H91 C89 0.960 . S
H92 C89 0.961 . S
O93 Co68 1.967 . S
O93 C101 1.258 . S
O94 Co69 1.941 . S
O94 C101 1.266 . S
H95 C97 0.959 . S
H96 C97 0.961 . S
C97 C87 1.510 . S
C97 H95 0.959 . S
C97 H96 0.961 . S
C97 H98 0.960 . S
H98 C97 0.960 . S
H99 N79 0.862 . S
O100 Co68 1.920 . S
O100 C73 1.289 . S
C101 O93 1.258 . S
C101 O94 1.266 . S
Co102 O105 1.970 . S
Co102 N119 1.989 . S
Co102 O127 1.967 . S
Co102 O134 1.920 . S
Co103 O106 1.966 . S
Co103 N112 2.022 . S
Co103 N120 1.993 . S
Co103 O128 1.941 . S
C104 O105 1.258 . S
C104 O106 1.263 . S
O105 Co102 1.970 . S
O105 C104 1.258 . S
O106 Co103 1.966 . S
O106 C104 1.263 . S
C107 O108 1.235 . S
C107 O134 1.289 . S
O108 C107 1.235 . S
C109 C111 1.400 . S
C109 N112 1.351 . S
C109 C114 1.501 . S
C110 C111 1.387 . S
C110 N113 1.341 . S
C111 C109 1.400 . S
C111 C110 1.387 . S
N112 Co103 2.022 . S
N112 C109 1.351 . S
N112 N113 1.365 . S
N113 C110 1.341 . S
N113 N112 1.365 . S
N113 H133 0.862 . S
C114 C109 1.501 . S
C114 H115 0.961 . S
C114 H116 0.961 . S
C114 H117 0.960 . S
H115 C114 0.961 . S
H116 C114 0.961 . S
H117 C114 0.960 . S
C118 N119 1.342 . S
C118 C122 1.401 . S
C118 C123 1.499 . S
N119 Co102 1.989 . S
N119 C118 1.342 . S
N119 N120 1.388 . S
N120 Co103 1.993 . S
N120 N119 1.388 . S
N120 C121 1.346 . S
C121 N120 1.346 . S
C121 C122 1.396 . S
C121 C131 1.510 . S
C122 C118 1.401 . S
C122 C121 1.396 . S
C123 C118 1.499 . S
C123 H124 0.959 . S
C123 H125 0.960 . S
C123 H126 0.961 . S
H124 C123 0.959 . S
H125 C123 0.960 . S
H126 C123 0.961 . S
O127 Co102 1.967 . S
O127 C135 1.258 . S
O128 Co103 1.941 . S
O128 C135 1.266 . S
H129 C131 0.959 . S
H130 C131 0.961 . S
C131 C121 1.510 . S
C131 H129 0.959 . S
C131 H130 0.961 . S
C131 H132 0.960 . S
H132 C131 0.960 . S
H133 N113 0.862 . S
O134 Co102 1.920 . S
O134 C107 1.289 . S
C135 O127 1.258 . S
C135 O128 1.266 . S
Co136 O139 1.970 . S
Co136 N153 1.989 . S
Co136 O161 1.967 . S
Co136 O168 1.920 . S
Co137 O140 1.966 . S
Co137 N146 2.022 . S
Co137 N154 1.993 . S
Co137 O162 1.941 . S
C138 O139 1.258 . S
C138 O140 1.263 . S
O139 Co136 1.970 . S
O139 C138 1.258 . S
O140 Co137 1.966 . S
O140 C138 1.263 . S
C141 O142 1.235 . S
C141 O168 1.289 . S
O142 C141 1.235 . S
C143 C145 1.400 . S
C143 N146 1.351 . S
C143 C148 1.501 . S
C144 C145 1.387 . S
C144 N147 1.341 . S
C145 C143 1.400 . S
C145 C144 1.387 . S
N146 Co137 2.022 . S
N146 C143 1.351 . S
N146 N147 1.365 . S
N147 C144 1.341 . S
N147 N146 1.365 . S
N147 H167 0.862 . S
C148 C143 1.501 . S
C148 H149 0.961 . S
C148 H150 0.961 . S
C148 H151 0.960 . S
H149 C148 0.961 . S
H150 C148 0.961 . S
H151 C148 0.960 . S
C152 N153 1.342 . S
C152 C156 1.401 . S
C152 C157 1.499 . S
N153 Co136 1.989 . S
N153 C152 1.342 . S
N153 N154 1.388 . S
N154 Co137 1.993 . S
N154 N153 1.388 . S
N154 C155 1.346 . S
C155 N154 1.346 . S
C155 C156 1.396 . S
C155 C165 1.510 . S
C156 C152 1.401 . S
C156 C155 1.396 . S
C157 C152 1.499 . S
C157 H158 0.959 . S
C157 H159 0.960 . S
C157 H160 0.961 . S
H158 C157 0.959 . S
H159 C157 0.960 . S
H160 C157 0.961 . S
O161 Co136 1.967 . S
O161 C169 1.258 . S
O162 Co137 1.941 . S
O162 C169 1.266 . S
H163 C165 0.959 . S
H164 C165 0.961 . S
C165 C155 1.510 . S
C165 H163 0.959 . S
C165 H164 0.961 . S
C165 H166 0.960 . S
H166 C165 0.960 . S
H167 N147 0.862 . S
O168 Co136 1.920 . S
O168 C141 1.289 . S
C169 O161 1.258 . S
C169 O162 1.266 . S
Co170 O173 1.970 . S
Co170 N187 1.989 . S
Co170 O195 1.967 . S
Co170 O202 1.920 . S
Co171 O174 1.966 . S
Co171 N180 2.022 . S
Co171 N188 1.993 . S
Co171 O196 1.941 . S
C172 O173 1.258 . S
C172 O174 1.263 . S
O173 Co170 1.970 . S
O173 C172 1.258 . S
O174 Co171 1.966 . S
O174 C172 1.263 . S
C175 O176 1.235 . S
C175 O202 1.289 . S
O176 C175 1.235 . S
C177 C179 1.400 . S
C177 N180 1.351 . S
C177 C182 1.501 . S
C178 C179 1.387 . S
C178 N181 1.341 . S
C179 C177 1.400 . S
C179 C178 1.387 . S
N180 Co171 2.022 . S
N180 C177 1.351 . S
N180 N181 1.365 . S
N181 C178 1.341 . S
N181 N180 1.365 . S
N181 H201 0.862 . S
C182 C177 1.501 . S
C182 H183 0.961 . S
C182 H184 0.961 . S
C182 H185 0.960 . S
H183 C182 0.961 . S
H184 C182 0.961 . S
H185 C182 0.960 . S
C186 N187 1.342 . S
C186 C190 1.401 . S
C186 C191 1.499 . S
N187 Co170 1.989 . S
N187 C186 1.342 . S
N187 N188 1.388 . S
N188 Co171 1.993 . S
N188 N187 1.388 . S
N188 C189 1.346 . S
C189 N188 1.346 . S
C189 C190 1.396 . S
C189 C199 1.510 . S
C190 C186 1.401 . S
C190 C189 1.396 . S
C191 C186 1.499 . S
C191 H192 0.959 . S
C191 H193 0.960 . S
C191 H194 0.961 . S
H192 C191 0.959 . S
H193 C191 0.960 . S
H194 C191 0.961 . S
O195 Co170 1.967 . S
O195 C203 1.258 . S
O196 Co171 1.941 . S
O196 C203 1.266 . S
H197 C199 0.959 . S
H198 C199 0.961 . S
C199 C189 1.510 . S
C199 H197 0.959 . S
C199 H198 0.961 . S
C199 H200 0.960 . S
H200 C199 0.960 . S
H201 N181 0.862 . S
O202 Co170 1.920 . S
O202 C175 1.289 . S
C203 O195 1.258 . S
C203 O196 1.266 . S
Co204 O207 1.970 . S
Co204 N221 1.989 . S
Co204 O229 1.967 . S
Co204 O236 1.920 . S
Co205 O208 1.966 . S
Co205 N214 2.022 . S
Co205 N222 1.993 . S
Co205 O230 1.941 . S
C206 O207 1.258 . S
C206 O208 1.263 . S
O207 Co204 1.970 . S
O207 C206 1.258 . S
O208 Co205 1.966 . S
O208 C206 1.263 . S
C209 O210 1.235 . S
C209 O236 1.289 . S
O210 C209 1.235 . S
C211 C213 1.400 . S
C211 N214 1.351 . S
C211 C216 1.501 . S
C212 C213 1.387 . S
C212 N215 1.341 . S
C213 C211 1.400 . S
C213 C212 1.387 . S
N214 Co205 2.022 . S
N214 C211 1.351 . S
N214 N215 1.365 . S
N215 C212 1.341 . S
N215 N214 1.365 . S
N215 H235 0.862 . S
C216 C211 1.501 . S
C216 H217 0.961 . S
C216 H218 0.961 . S
C216 H219 0.960 . S
H217 C216 0.961 . S
H218 C216 0.961 . S
H219 C216 0.960 . S
C220 N221 1.342 . S
C220 C224 1.401 . S
C220 C225 1.499 . S
N221 Co204 1.989 . S
N221 C220 1.342 . S
N221 N222 1.388 . S
N222 Co205 1.993 . S
N222 N221 1.388 . S
N222 C223 1.346 . S
C223 N222 1.346 . S
C223 C224 1.396 . S
C223 C233 1.510 . S
C224 C220 1.401 . S
C224 C223 1.396 . S
C225 C220 1.499 . S
C225 H226 0.959 . S
C225 H227 0.960 . S
C225 H228 0.961 . S
H226 C225 0.959 . S
H227 C225 0.960 . S
H228 C225 0.961 . S
O229 Co204 1.967 . S
O229 C237 1.258 . S
O230 Co205 1.941 . S
O230 C237 1.266 . S
H231 C233 0.959 . S
H232 C233 0.961 . S
C233 C223 1.510 . S
C233 H231 0.959 . S
C233 H232 0.961 . S
C233 H234 0.960 . S
H234 C233 0.960 . S
H235 N215 0.862 . S
O236 Co204 1.920 . S
O236 C209 1.289 . S
C237 O229 1.258 . S
C237 O230 1.266 . S
Co238 O241 1.970 . S
Co238 N255 1.989 . S
Co238 O263 1.967 . S
Co238 O270 1.920 . S
Co239 O242 1.966 . S
Co239 N248 2.022 . S
Co239 N256 1.993 . S
Co239 O264 1.941 . S
C240 O241 1.258 . S
C240 O242 1.263 . S
O241 Co238 1.970 . S
O241 C240 1.258 . S
O242 Co239 1.966 . S
O242 C240 1.263 . S
C243 O244 1.235 . S
C243 O270 1.289 . S
O244 C243 1.235 . S
C245 C247 1.400 . S
C245 N248 1.351 . S
C245 C250 1.501 . S
C246 C247 1.387 . S
C246 N249 1.341 . S
C247 C245 1.400 . S
C247 C246 1.387 . S
N248 Co239 2.022 . S
N248 C245 1.351 . S
N248 N249 1.365 . S
N249 C246 1.341 . S
N249 N248 1.365 . S
N249 H269 0.862 . S
C250 C245 1.501 . S
C250 H251 0.961 . S
C250 H252 0.961 . S
C250 H253 0.960 . S
H251 C250 0.961 . S
H252 C250 0.961 . S
H253 C250 0.960 . S
C254 N255 1.342 . S
C254 C258 1.401 . S
C254 C259 1.499 . S
N255 Co238 1.989 . S
N255 C254 1.342 . S
N255 N256 1.388 . S
N256 Co239 1.993 . S
N256 N255 1.388 . S
N256 C257 1.346 . S
C257 N256 1.346 . S
C257 C258 1.396 . S
C257 C267 1.510 . S
C258 C254 1.401 . S
C258 C257 1.396 . S
C259 C254 1.499 . S
C259 H260 0.959 . S
C259 H261 0.960 . S
C259 H262 0.961 . S
H260 C259 0.959 . S
H261 C259 0.960 . S
H262 C259 0.961 . S
O263 Co238 1.967 . S
O263 C271 1.258 . S
O264 Co239 1.941 . S
O264 C271 1.266 . S
H265 C267 0.959 . S
H266 C267 0.961 . S
C267 C257 1.510 . S
C267 H265 0.959 . S
C267 H266 0.961 . S
C267 H268 0.960 . S
H268 C267 0.960 . S
H269 N249 0.862 . S
O270 Co238 1.920 . S
O270 C243 1.289 . S
C271 O263 1.258 . S
C271 O264 1.266 . S
Co272 O275 1.970 . S
Co272 N289 1.989 . S
Co272 O297 1.967 . S
Co272 O304 1.920 . S
Co273 O276 1.966 . S
Co273 N282 2.022 . S
Co273 N290 1.993 . S
Co273 O298 1.941 . S
C274 O275 1.258 . S
C274 O276 1.263 . S
O275 Co272 1.970 . S
O275 C274 1.258 . S
O276 Co273 1.966 . S
O276 C274 1.263 . S
C277 O278 1.235 . S
C277 O304 1.289 . S
O278 C277 1.235 . S
C279 C281 1.400 . S
C279 N282 1.351 . S
C279 C284 1.501 . S
C280 C281 1.387 . S
C280 N283 1.341 . S
C281 C279 1.400 . S
C281 C280 1.387 . S
N282 Co273 2.022 . S
N282 C279 1.351 . S
N282 N283 1.365 . S
N283 C280 1.341 . S
N283 N282 1.365 . S
N283 H303 0.862 . S
C284 C279 1.501 . S
C284 H285 0.961 . S
C284 H286 0.961 . S
C284 H287 0.960 . S
H285 C284 0.961 . S
H286 C284 0.961 . S
H287 C284 0.960 . S
C288 N289 1.342 . S
C288 C292 1.401 . S
C288 C293 1.499 . S
N289 Co272 1.989 . S
N289 C288 1.342 . S
N289 N290 1.388 . S
N290 Co273 1.993 . S
N290 N289 1.388 . S
N290 C291 1.346 . S
C291 N290 1.346 . S
C291 C292 1.396 . S
C291 C301 1.510 . S
C292 C288 1.401 . S
C292 C291 1.396 . S
C293 C288 1.499 . S
C293 H294 0.959 . S
C293 H295 0.960 . S
C293 H296 0.961 . S
H294 C293 0.959 . S
H295 C293 0.960 . S
H296 C293 0.961 . S
O297 Co272 1.967 . S
O297 C305 1.258 . S
O298 Co273 1.941 . S
O298 C305 1.266 . S
H299 C301 0.959 . S
H300 C301 0.961 . S
C301 C291 1.510 . S
C301 H299 0.959 . S
C301 H300 0.961 . S
C301 H302 0.960 . S
H302 C301 0.960 . S
H303 N283 0.862 . S
O304 Co272 1.920 . S
O304 C277 1.289 . S
C305 O297 1.258 . S
C305 O298 1.266 . S
Co306 O309 1.970 . S
Co306 N323 1.989 . S
Co306 O331 1.967 . S
Co306 O338 1.920 . S
Co307 O310 1.966 . S
Co307 N316 2.022 . S
Co307 N324 1.993 . S
Co307 O332 1.941 . S
C308 O309 1.258 . S
C308 O310 1.263 . S
O309 Co306 1.970 . S
O309 C308 1.258 . S
O310 Co307 1.966 . S
O310 C308 1.263 . S
C311 O312 1.235 . S
C311 O338 1.289 . S
O312 C311 1.235 . S
C313 C315 1.400 . S
C313 N316 1.351 . S
C313 C318 1.501 . S
C314 C315 1.387 . S
C314 N317 1.341 . S
C315 C313 1.400 . S
C315 C314 1.387 . S
N316 Co307 2.022 . S
N316 C313 1.351 . S
N316 N317 1.365 . S
N317 C314 1.341 . S
N317 N316 1.365 . S
N317 H337 0.862 . S
C318 C313 1.501 . S
C318 H319 0.961 . S
C318 H320 0.961 . S
C318 H321 0.960 . S
H319 C318 0.961 . S
H320 C318 0.961 . S
H321 C318 0.960 . S
C322 N323 1.342 . S
C322 C326 1.401 . S
C322 C327 1.499 . S
N323 Co306 1.989 . S
N323 C322 1.342 . S
N323 N324 1.388 . S
N324 Co307 1.993 . S
N324 N323 1.388 . S
N324 C325 1.346 . S
C325 N324 1.346 . S
C325 C326 1.396 . S
C325 C335 1.510 . S
C326 C322 1.401 . S
C326 C325 1.396 . S
C327 C322 1.499 . S
C327 H328 0.959 . S
C327 H329 0.960 . S
C327 H330 0.961 . S
H328 C327 0.959 . S
H329 C327 0.960 . S
H330 C327 0.961 . S
O331 Co306 1.967 . S
O331 C339 1.258 . S
O332 Co307 1.941 . S
O332 C339 1.266 . S
H333 C335 0.959 . S
H334 C335 0.961 . S
C335 C325 1.510 . S
C335 H333 0.959 . S
C335 H334 0.961 . S
C335 H336 0.960 . S
H336 C335 0.960 . S
H337 N317 0.862 . S
O338 Co306 1.920 . S
O338 C311 1.289 . S
C339 O331 1.258 . S
C339 O332 1.266 . S
Co340 O343 1.970 . S
Co340 N357 1.989 . S
Co340 O365 1.967 . S
Co340 O372 1.920 . S
Co341 O344 1.966 . S
Co341 N350 2.022 . S
Co341 N358 1.993 . S
Co341 O366 1.941 . S
C342 O343 1.258 . S
C342 O344 1.263 . S
O343 Co340 1.970 . S
O343 C342 1.258 . S
O344 Co341 1.966 . S
O344 C342 1.263 . S
C345 O346 1.235 . S
C345 O372 1.289 . S
O346 C345 1.235 . S
C347 C349 1.400 . S
C347 N350 1.351 . S
C347 C352 1.501 . S
C348 C349 1.387 . S
C348 N351 1.341 . S
C349 C347 1.400 . S
C349 C348 1.387 . S
N350 Co341 2.022 . S
N350 C347 1.351 . S
N350 N351 1.365 . S
N351 C348 1.341 . S
N351 N350 1.365 . S
N351 H371 0.862 . S
C352 C347 1.501 . S
C352 H353 0.961 . S
C352 H354 0.961 . S
C352 H355 0.960 . S
H353 C352 0.961 . S
H354 C352 0.961 . S
H355 C352 0.960 . S
C356 N357 1.342 . S
C356 C360 1.401 . S
C356 C361 1.499 . S
N357 Co340 1.989 . S
N357 C356 1.342 . S
N357 N358 1.388 . S
N358 Co341 1.993 . S
N358 N357 1.388 . S
N358 C359 1.346 . S
C359 N358 1.346 . S
C359 C360 1.396 . S
C359 C369 1.510 . S
C360 C356 1.401 . S
C360 C359 1.396 . S
C361 C356 1.499 . S
C361 H362 0.959 . S
C361 H363 0.960 . S
C361 H364 0.961 . S
H362 C361 0.959 . S
H363 C361 0.960 . S
H364 C361 0.961 . S
O365 Co340 1.967 . S
O365 C373 1.258 . S
O366 Co341 1.941 . S
O366 C373 1.266 . S
H367 C369 0.959 . S
H368 C369 0.961 . S
C369 C359 1.510 . S
C369 H367 0.959 . S
C369 H368 0.961 . S
C369 H370 0.960 . S
H370 C369 0.960 . S
H371 N351 0.862 . S
O372 Co340 1.920 . S
O372 C345 1.289 . S
C373 O365 1.258 . S
C373 O366 1.266 . S
Co374 O377 1.970 . S
Co374 N391 1.989 . S
Co374 O399 1.967 . S
Co374 O406 1.920 . S
Co375 O378 1.966 . S
Co375 N384 2.022 . S
Co375 N392 1.993 . S
Co375 O400 1.941 . S
C376 O377 1.258 . S
C376 O378 1.263 . S
O377 Co374 1.970 . S
O377 C376 1.258 . S
O378 Co375 1.966 . S
O378 C376 1.263 . S
C379 O380 1.235 . S
C379 O406 1.289 . S
O380 C379 1.235 . S
C381 C383 1.400 . S
C381 N384 1.351 . S
C381 C386 1.501 . S
C382 C383 1.387 . S
C382 N385 1.341 . S
C383 C381 1.400 . S
C383 C382 1.387 . S
N384 Co375 2.022 . S
N384 C381 1.351 . S
N384 N385 1.365 . S
N385 C382 1.341 . S
N385 N384 1.365 . S
N385 H405 0.862 . S
C386 C381 1.501 . S
C386 H387 0.961 . S
C386 H388 0.961 . S
C386 H389 0.960 . S
H387 C386 0.961 . S
H388 C386 0.961 . S
H389 C386 0.960 . S
C390 N391 1.342 . S
C390 C394 1.401 . S
C390 C395 1.499 . S
N391 Co374 1.989 . S
N391 C390 1.342 . S
N391 N392 1.388 . S
N392 Co375 1.993 . S
N392 N391 1.388 . S
N392 C393 1.346 . S
C393 N392 1.346 . S
C393 C394 1.396 . S
C393 C403 1.510 . S
C394 C390 1.401 . S
C394 C393 1.396 . S
C395 C390 1.499 . S
C395 H396 0.959 . S
C395 H397 0.960 . S
C395 H398 0.961 . S
H396 C395 0.959 . S
H397 C395 0.960 . S
H398 C395 0.961 . S
O399 Co374 1.967 . S
O399 C407 1.258 . S
O400 Co375 1.941 . S
O400 C407 1.266 . S
H401 C403 0.959 . S
H402 C403 0.961 . S
C403 C393 1.510 . S
C403 H401 0.959 . S
C403 H402 0.961 . S
C403 H404 0.960 . S
H404 C403 0.960 . S
H405 N385 0.862 . S
O406 Co374 1.920 . S
O406 C379 1.289 . S
C407 O399 1.258 . S
C407 O400 1.266 . S
Co408 O411 1.970 . S
Co408 N425 1.989 . S
Co408 O433 1.967 . S
Co408 O440 1.920 . S
Co409 O412 1.966 . S
Co409 N418 2.022 . S
Co409 N426 1.993 . S
Co409 O434 1.941 . S
C410 O411 1.258 . S
C410 O412 1.263 . S
O411 Co408 1.970 . S
O411 C410 1.258 . S
O412 Co409 1.966 . S
O412 C410 1.263 . S
C413 O414 1.235 . S
C413 O440 1.289 . S
O414 C413 1.235 . S
C415 C417 1.400 . S
C415 N418 1.351 . S
C415 C420 1.501 . S
C416 C417 1.387 . S
C416 N419 1.341 . S
C417 C415 1.400 . S
C417 C416 1.387 . S
N418 Co409 2.022 . S
N418 C415 1.351 . S
N418 N419 1.365 . S
N419 C416 1.341 . S
N419 N418 1.365 . S
N419 H439 0.862 . S
C420 C415 1.501 . S
C420 H421 0.961 . S
C420 H422 0.961 . S
C420 H423 0.960 . S
H421 C420 0.961 . S
H422 C420 0.961 . S
H423 C420 0.960 . S
C424 N425 1.342 . S
C424 C428 1.401 . S
C424 C429 1.499 . S
N425 Co408 1.989 . S
N425 C424 1.342 . S
N425 N426 1.388 . S
N426 Co409 1.993 . S
N426 N425 1.388 . S
N426 C427 1.346 . S
C427 N426 1.346 . S
C427 C428 1.396 . S
C427 C437 1.510 . S
C428 C424 1.401 . S
C428 C427 1.396 . S
C429 C424 1.499 . S
C429 H430 0.959 . S
C429 H431 0.960 . S
C429 H432 0.961 . S
H430 C429 0.959 . S
H431 C429 0.960 . S
H432 C429 0.961 . S
O433 Co408 1.967 . S
O433 C441 1.258 . S
O434 Co409 1.941 . S
O434 C441 1.266 . S
H435 C437 0.959 . S
H436 C437 0.961 . S
C437 C427 1.510 . S
C437 H435 0.959 . S
C437 H436 0.961 . S
C437 H438 0.960 . S
H438 C437 0.960 . S
H439 N419 0.862 . S
O440 Co408 1.920 . S
O440 C413 1.289 . S
C441 O433 1.258 . S
C441 O434 1.266 . S
Co442 O445 1.970 . S
Co442 N459 1.989 . S
Co442 O467 1.967 . S
Co442 O474 1.920 . S
Co443 O446 1.966 . S
Co443 N452 2.022 . S
Co443 N460 1.993 . S
Co443 O468 1.941 . S
C444 O445 1.258 . S
C444 O446 1.263 . S
O445 Co442 1.970 . S
O445 C444 1.258 . S
O446 Co443 1.966 . S
O446 C444 1.263 . S
C447 O448 1.235 . S
C447 O474 1.289 . S
O448 C447 1.235 . S
C449 C451 1.400 . S
C449 N452 1.351 . S
C449 C454 1.501 . S
C450 C451 1.387 . S
C450 N453 1.341 . S
C451 C449 1.400 . S
C451 C450 1.387 . S
N452 Co443 2.022 . S
N452 C449 1.351 . S
N452 N453 1.365 . S
N453 C450 1.341 . S
N453 N452 1.365 . S
N453 H473 0.862 . S
C454 C449 1.501 . S
C454 H455 0.961 . S
C454 H456 0.961 . S
C454 H457 0.960 . S
H455 C454 0.961 . S
H456 C454 0.961 . S
H457 C454 0.960 . S
C458 N459 1.342 . S
C458 C462 1.401 . S
C458 C463 1.499 . S
N459 Co442 1.989 . S
N459 C458 1.342 . S
N459 N460 1.388 . S
N460 Co443 1.993 . S
N460 N459 1.388 . S
N460 C461 1.346 . S
C461 N460 1.346 . S
C461 C462 1.396 . S
C461 C471 1.510 . S
C462 C458 1.401 . S
C462 C461 1.396 . S
C463 C458 1.499 . S
C463 H464 0.959 . S
C463 H465 0.960 . S
C463 H466 0.961 . S
H464 C463 0.959 . S
H465 C463 0.960 . S
H466 C463 0.961 . S
O467 Co442 1.967 . S
O467 C475 1.258 . S
O468 Co443 1.941 . S
O468 C475 1.266 . S
H469 C471 0.959 . S
H470 C471 0.961 . S
C471 C461 1.510 . S
C471 H469 0.959 . S
C471 H470 0.961 . S
C471 H472 0.960 . S
H472 C471 0.960 . S
H473 N453 0.862 . S
O474 Co442 1.920 . S
O474 C447 1.289 . S
C475 O467 1.258 . S
C475 O468 1.266 . S
Co476 O479 1.970 . S
Co476 N493 1.989 . S
Co476 O501 1.967 . S
Co476 O508 1.920 . S
Co477 O480 1.966 . S
Co477 N486 2.022 . S
Co477 N494 1.993 . S
Co477 O502 1.941 . S
C478 O479 1.258 . S
C478 O480 1.263 . S
O479 Co476 1.970 . S
O479 C478 1.258 . S
O480 Co477 1.966 . S
O480 C478 1.263 . S
C481 O482 1.235 . S
C481 O508 1.289 . S
O482 C481 1.235 . S
C483 C485 1.400 . S
C483 N486 1.351 . S
C483 C488 1.501 . S
C484 C485 1.387 . S
C484 N487 1.341 . S
C485 C483 1.400 . S
C485 C484 1.387 . S
N486 Co477 2.022 . S
N486 C483 1.351 . S
N486 N487 1.365 . S
N487 C484 1.341 . S
N487 N486 1.365 . S
N487 H507 0.862 . S
C488 C483 1.501 . S
C488 H489 0.961 . S
C488 H490 0.961 . S
C488 H491 0.960 . S
H489 C488 0.961 . S
H490 C488 0.961 . S
H491 C488 0.960 . S
C492 N493 1.342 . S
C492 C496 1.401 . S
C492 C497 1.499 . S
N493 Co476 1.989 . S
N493 C492 1.342 . S
N493 N494 1.388 . S
N494 Co477 1.993 . S
N494 N493 1.388 . S
N494 C495 1.346 . S
C495 N494 1.346 . S
C495 C496 1.396 . S
C495 C505 1.510 . S
C496 C492 1.401 . S
C496 C495 1.396 . S
C497 C492 1.499 . S
C497 H498 0.959 . S
C497 H499 0.960 . S
C497 H500 0.961 . S
H498 C497 0.959 . S
H499 C497 0.960 . S
H500 C497 0.961 . S
O501 Co476 1.967 . S
O501 C509 1.258 . S
O502 Co477 1.941 . S
O502 C509 1.266 . S
H503 C505 0.959 . S
H504 C505 0.961 . S
C505 C495 1.510 . S
C505 H503 0.959 . S
C505 H504 0.961 . S
C505 H506 0.960 . S
H506 C505 0.960 . S
H507 N487 0.862 . S
O508 Co476 1.920 . S
O508 C481 1.289 . S
C509 O501 1.258 . S
C509 O502 1.266 . S
Co510 O513 1.970 . S
Co510 N527 1.989 . S
Co510 O535 1.967 . S
Co510 O542 1.920 . S
Co511 O514 1.966 . S
Co511 N520 2.022 . S
Co511 N528 1.993 . S
Co511 O536 1.941 . S
C512 O513 1.258 . S
C512 O514 1.263 . S
O513 Co510 1.970 . S
O513 C512 1.258 . S
O514 Co511 1.966 . S
O514 C512 1.263 . S
C515 O516 1.235 . S
C515 O542 1.289 . S
O516 C515 1.235 . S
C517 C519 1.400 . S
C517 N520 1.351 . S
C517 C522 1.501 . S
C518 C519 1.387 . S
C518 N521 1.341 . S
C519 C517 1.400 . S
C519 C518 1.387 . S
N520 Co511 2.022 . S
N520 C517 1.351 . S
N520 N521 1.365 . S
N521 C518 1.341 . S
N521 N520 1.365 . S
N521 H541 0.862 . S
C522 C517 1.501 . S
C522 H523 0.961 . S
C522 H524 0.961 . S
C522 H525 0.960 . S
H523 C522 0.961 . S
H524 C522 0.961 . S
H525 C522 0.960 . S
C526 N527 1.342 . S
C526 C530 1.401 . S
C526 C531 1.499 . S
N527 Co510 1.989 . S
N527 C526 1.342 . S
N527 N528 1.388 . S
N528 Co511 1.993 . S
N528 N527 1.388 . S
N528 C529 1.346 . S
C529 N528 1.346 . S
C529 C530 1.396 . S
C529 C539 1.510 . S
C530 C526 1.401 . S
C530 C529 1.396 . S
C531 C526 1.499 . S
C531 H532 0.959 . S
C531 H533 0.960 . S
C531 H534 0.961 . S
H532 C531 0.959 . S
H533 C531 0.960 . S
H534 C531 0.961 . S
O535 Co510 1.967 . S
O535 C543 1.258 . S
O536 Co511 1.941 . S
O536 C543 1.266 . S
H537 C539 0.959 . S
H538 C539 0.961 . S
C539 C529 1.510 . S
C539 H537 0.959 . S
C539 H538 0.961 . S
C539 H540 0.960 . S
H540 C539 0.960 . S
H541 N521 0.862 . S
O542 Co510 1.920 . S
O542 C515 1.289 . S
C543 O535 1.258 . S
C543 O536 1.266 . S
C544 C545 1.349 . S
C544 C546 1.327 . S
C544 H569 0.950 . S
C545 C544 1.349 . S
C545 C561 1.349 . S
C546 C544 1.327 . S
C546 C565 1.429 . S
C546 H570 0.950 . S
C547 C564 1.574 1_556 S
C547 C566 1.368 . S
C547 H571 0.949 . S
H548 C552 0.949 . S
C549 C550 1.349 . S
C549 C551 1.327 . S
C549 H572 0.950 . S
C550 C549 1.349 . S
C550 C562 1.349 . S
C551 C549 1.327 . S
C551 C567 1.429 . S
C551 H573 0.950 . S
C552 H548 0.949 . S
C552 C560 1.574 1_554 S
C552 C568 1.368 . S
H553 C561 0.950 . S
H554 C559 0.950 . S
H555 C560 0.949 . S
H556 C562 0.950 . S
H557 C563 0.950 . S
H558 C564 0.949 . S
C559 H554 0.950 . S
C559 C561 1.327 . S
C559 C565 1.429 . S
C560 C552 1.574 1_556 S
C560 H555 0.949 . S
C560 C566 1.368 . S
C561 C545 1.349 . S
C561 H553 0.950 . S
C561 C559 1.327 . S
C562 C550 1.349 . S
C562 H556 0.950 . S
C562 C563 1.327 . S
C563 H557 0.950 . S
C563 C562 1.327 . S
C563 C567 1.429 . S
C564 C547 1.574 1_554 S
C564 H558 0.949 . S
C564 C568 1.368 . S
C565 C546 1.429 . S
C565 C559 1.429 . S
C565 C566 1.523 . S
C566 C547 1.368 . S
C566 C560 1.368 . S
C566 C565 1.523 . S
C567 C551 1.429 . S
C567 C563 1.429 . S
C567 C568 1.523 . S
C568 C552 1.368 . S
C568 C564 1.368 . S
C568 C567 1.523 . S
H569 C544 0.950 . S
H570 C546 0.950 . S
H571 C547 0.949 . S
H572 C549 0.950 . S
H573 C551 0.950 . S
C574 C575 1.349 . S
C574 C576 1.327 . S
C574 H599 0.950 1_545 S
C575 C574 1.349 . S
C575 C591 1.349 . S
C576 C574 1.327 . S
C576 C595 1.429 . S
C576 H600 0.950 1_545 S
C577 C594 1.574 . S
C577 C596 1.368 . S
C577 H601 0.949 . S
H578 C582 0.949 1_565 S
C579 C580 1.349 . S
C579 C581 1.327 . S
C579 H602 0.950 . S
C580 C579 1.349 . S
C580 C592 1.349 . S
C581 C579 1.327 . S
C581 C597 1.429 . S
C581 H603 0.950 . S
C582 H578 0.949 1_545 S
C582 C590 1.574 . S
C582 C598 1.368 . S
H583 C591 0.950 . S
H584 C589 0.950 . S
H585 C590 0.949 1_565 S
H586 C592 0.950 1_565 S
H587 C593 0.950 1_565 S
H588 C594 0.949 . S
C589 H584 0.950 . S
C589 C591 1.327 . S
C589 C595 1.429 . S
C590 C582 1.574 . S
C590 H585 0.949 1_545 S
C590 C596 1.368 . S
C591 C575 1.349 . S
C591 H583 0.950 . S
C591 C589 1.327 . S
C592 C580 1.349 . S
C592 H586 0.950 1_545 S
C592 C593 1.327 . S
C593 H587 0.950 1_545 S
C593 C592 1.327 . S
C593 C597 1.429 . S
C594 C577 1.574 . S
C594 H588 0.949 . S
C594 C598 1.368 . S
C595 C576 1.429 . S
C595 C589 1.429 . S
C595 C596 1.523 . S
C596 C577 1.368 . S
C596 C590 1.368 . S
C596 C595 1.523 . S
C597 C581 1.429 . S
C597 C593 1.429 . S
C597 C598 1.523 . S
C598 C582 1.368 . S
C598 C594 1.368 . S
C598 C597 1.523 . S
H599 C574 0.950 1_565 S
H600 C576 0.950 1_565 S
H601 C577 0.949 . S
H602 C579 0.950 . S
H603 C581 0.950 . S
C604 C605 1.349 . S
C604 C606 1.327 . S
C604 H629 0.950 . S
C605 C604 1.349 . S
C605 C621 1.349 . S
C606 C604 1.327 . S
C606 C625 1.429 . S
C606 H630 0.950 . S
C607 C624 1.574 1_554 S
C607 C626 1.368 . S
C607 H631 0.949 . S
H608 C612 0.949 . S
C609 C610 1.349 . S
C609 C611 1.327 . S
C609 H632 0.950 . S
C610 C609 1.349 . S
C610 C622 1.349 . S
C611 C609 1.327 . S
C611 C627 1.429 . S
C611 H633 0.950 . S
C612 H608 0.949 . S
C612 C620 1.574 1_556 S
C612 C628 1.368 . S
H613 C621 0.950 . S
H614 C619 0.950 . S
H615 C620 0.949 . S
H616 C622 0.950 . S
H617 C623 0.950 . S
H618 C624 0.949 . S
C619 H614 0.950 . S
C619 C621 1.327 . S
C619 C625 1.429 . S
C620 C612 1.574 1_554 S
C620 H615 0.949 . S
C620 C626 1.368 . S
C621 C605 1.349 . S
C621 H613 0.950 . S
C621 C619 1.327 . S
C622 C610 1.349 . S
C622 H616 0.950 . S
C622 C623 1.327 . S
C623 H617 0.950 . S
C623 C622 1.327 . S
C623 C627 1.429 . S
C624 C607 1.574 1_556 S
C624 H618 0.949 . S
C624 C628 1.368 . S
C625 C606 1.429 . S
C625 C619 1.429 . S
C625 C626 1.523 . S
C626 C607 1.368 . S
C626 C620 1.368 . S
C626 C625 1.523 . S
C627 C611 1.429 . S
C627 C623 1.429 . S
C627 C628 1.523 . S
C628 C612 1.368 . S
C628 C624 1.368 . S
C628 C627 1.523 . S
H629 C604 0.950 . S
H630 C606 0.950 . S
H631 C607 0.949 . S
H632 C609 0.950 . S
H633 C611 0.950 . S
C634 C635 1.349 . S
C634 C636 1.327 . S
C634 H659 0.950 . S
C635 C634 1.349 . S
C635 C651 1.349 . S
C636 C634 1.327 . S
C636 C655 1.429 . S
C636 H660 0.950 . S
C637 C654 1.574 . S
C637 C656 1.368 . S
C637 H661 0.949 . S
H638 C642 0.949 . S
C639 C640 1.349 . S
C639 C641 1.327 . S
C639 H662 0.950 . S
C640 C639 1.349 . S
C640 C652 1.349 . S
C641 C639 1.327 . S
C641 C657 1.429 . S
C641 H663 0.950 . S
C642 H638 0.949 . S
C642 C650 1.574 . S
C642 C658 1.368 . S
H643 C651 0.950 . S
H644 C649 0.950 . S
H645 C650 0.949 . S
H646 C652 0.950 . S
H647 C653 0.950 . S
H648 C654 0.949 . S
C649 H644 0.950 . S
C649 C651 1.327 . S
C649 C655 1.429 . S
C650 C642 1.574 . S
C650 H645 0.949 . S
C650 C656 1.368 . S
C651 C635 1.349 . S
C651 H643 0.950 . S
C651 C649 1.327 . S
C652 C640 1.349 . S
C652 H646 0.950 . S
C652 C653 1.327 . S
C653 H647 0.950 . S
C653 C652 1.327 . S
C653 C657 1.429 . S
C654 C637 1.574 . S
C654 H648 0.949 . S
C654 C658 1.368 . S
C655 C636 1.429 . S
C655 C649 1.429 . S
C655 C656 1.523 . S
C656 C637 1.368 . S
C656 C650 1.368 . S
C656 C655 1.523 . S
C657 C641 1.429 . S
C657 C653 1.429 . S
C657 C658 1.523 . S
C658 C642 1.368 . S
C658 C654 1.368 . S
C658 C657 1.523 . S
H659 C634 0.950 . S
H660 C636 0.950 . S
H661 C637 0.949 . S
H662 C639 0.950 . S
H663 C641 0.950 . S
C664 C665 1.349 . S
C664 C666 1.327 . S
C664 H689 0.950 . S
C665 C664 1.349 . S
C665 C681 1.349 . S
C666 C664 1.327 . S
C666 C685 1.429 . S
C666 H690 0.950 . S
C667 C684 1.574 1_554 S
C667 C686 1.368 . S
C667 H691 0.949 . S
H668 C672 0.949 . S
C669 C670 1.349 . S
C669 C671 1.327 . S
C669 H692 0.950 . S
C670 C669 1.349 . S
C670 C682 1.349 . S
C671 C669 1.327 . S
C671 C687 1.429 . S
C671 H693 0.950 . S
C672 H668 0.949 . S
C672 C680 1.574 1_556 S
C672 C688 1.368 . S
H673 C681 0.950 . S
H674 C679 0.950 . S
H675 C680 0.949 . S
H676 C682 0.950 . S
H677 C683 0.950 . S
H678 C684 0.949 . S
C679 H674 0.950 . S
C679 C681 1.327 . S
C679 C685 1.429 . S
C680 C672 1.574 1_554 S
C680 H675 0.949 . S
C680 C686 1.368 . S
C681 C665 1.349 . S
C681 H673 0.950 . S
C681 C679 1.327 . S
C682 C670 1.349 . S
C682 H676 0.950 . S
C682 C683 1.327 . S
C683 H677 0.950 . S
C683 C682 1.327 . S
C683 C687 1.429 . S
C684 C667 1.574 1_556 S
C684 H678 0.949 . S
C684 C688 1.368 . S
C685 C666 1.429 . S
C685 C679 1.429 . S
C685 C686 1.523 . S
C686 C667 1.368 . S
C686 C680 1.368 . S
C686 C685 1.523 . S
C687 C671 1.429 . S
C687 C683 1.429 . S
C687 C688 1.523 . S
C688 C672 1.368 . S
C688 C684 1.368 . S
C688 C687 1.523 . S
H689 C664 0.950 . S
H690 C666 0.950 . S
H691 C667 0.949 . S
H692 C669 0.950 . S
H693 C671 0.950 . S
C694 C695 1.349 . S
C694 C696 1.327 . S
C694 H719 0.950 . S
C695 C694 1.349 . S
C695 C711 1.349 . S
C696 C694 1.327 . S
C696 C715 1.429 . S
C696 H720 0.950 . S
C697 C714 1.574 . S
C697 C716 1.368 . S
C697 H721 0.949 1_565 S
H698 C702 0.949 . S
C699 C700 1.349 . S
C699 C701 1.327 . S
C699 H722 0.950 1_565 S
C700 C699 1.349 . S
C700 C712 1.349 . S
C701 C699 1.327 . S
C701 C717 1.429 . S
C701 H723 0.950 1_565 S
C702 H698 0.949 . S
C702 C710 1.574 . S
C702 C718 1.368 . S
H703 C711 0.950 1_545 S
H704 C709 0.950 1_545 S
H705 C710 0.949 . S
H706 C712 0.950 . S
H707 C713 0.950 . S
H708 C714 0.949 1_545 S
C709 H704 0.950 1_565 S
C709 C711 1.327 . S
C709 C715 1.429 . S
C710 C702 1.574 . S
C710 H705 0.949 . S
C710 C716 1.368 . S
C711 C695 1.349 . S
C711 H703 0.950 1_565 S
C711 C709 1.327 . S
C712 C700 1.349 . S
C712 H706 0.950 . S
C712 C713 1.327 . S
C713 H707 0.950 . S
C713 C712 1.327 . S
C713 C717 1.429 . S
C714 C697 1.574 . S
C714 H708 0.949 1_565 S
C714 C718 1.368 . S
C715 C696 1.429 . S
C715 C709 1.429 . S
C715 C716 1.523 . S
C716 C697 1.368 . S
C716 C710 1.368 . S
C716 C715 1.523 . S
C717 C701 1.429 . S
C717 C713 1.429 . S
C717 C718 1.523 . S
C718 C702 1.368 . S
C718 C714 1.368 . S
C718 C717 1.523 . S
H719 C694 0.950 . S
H720 C696 0.950 . S
H721 C697 0.949 1_545 S
H722 C699 0.950 1_545 S
H723 C701 0.950 1_545 S
C724 C725 1.349 . S
C724 C726 1.327 . S
C724 H749 0.950 . S
C725 C724 1.349 . S
C725 C741 1.349 . S
C726 C724 1.327 . S
C726 C745 1.429 . S
C726 H750 0.950 . S
C727 C744 1.574 1_556 S
C727 C746 1.368 . S
C727 H751 0.949 . S
H728 C732 0.949 . S
C729 C730 1.349 . S
C729 C731 1.327 . S
C729 H752 0.950 . S
C730 C729 1.349 . S
C730 C742 1.349 . S
C731 C729 1.327 . S
C731 C747 1.429 . S
C731 H753 0.950 . S
C732 H728 0.949 . S
C732 C740 1.574 1_554 S
C732 C748 1.368 . S
H733 C741 0.950 . S
H734 C739 0.950 . S
H735 C740 0.949 . S
H736 C742 0.950 . S
H737 C743 0.950 . S
H738 C744 0.949 . S
C739 H734 0.950 . S
C739 C741 1.327 . S
C739 C745 1.429 . S
C740 C732 1.574 1_556 S
C740 H735 0.949 . S
C740 C746 1.368 . S
C741 C725 1.349 . S
C741 H733 0.950 . S
C741 C739 1.327 . S
C742 C730 1.349 . S
C742 H736 0.950 . S
C742 C743 1.327 . S
C743 H737 0.950 . S
C743 C742 1.327 . S
C743 C747 1.429 . S
C744 C727 1.574 1_554 S
C744 H738 0.949 . S
C744 C748 1.368 . S
C745 C726 1.429 . S
C745 C739 1.429 . S
C745 C746 1.523 . S
C746 C727 1.368 . S
C746 C740 1.368 . S
C746 C745 1.523 . S
C747 C731 1.429 . S
C747 C743 1.429 . S
C747 C748 1.523 . S
C748 C732 1.368 . S
C748 C744 1.368 . S
C748 C747 1.523 . S
H749 C724 0.950 . S
H750 C726 0.950 . S
H751 C727 0.949 . S
H752 C729 0.950 . S
H753 C731 0.950 . S
C754 C755 1.349 . S
C754 C756 1.327 . S
C754 H779 0.950 . S
C755 C754 1.349 . S
C755 C771 1.349 . S
C756 C754 1.327 . S
C756 C775 1.429 . S
C756 H780 0.950 . S
C757 C774 1.574 . S
C757 C776 1.368 . S
C757 H781 0.949 . S
H758 C762 0.949 . S
C759 C760 1.349 . S
C759 C761 1.327 . S
C759 H782 0.950 . S
C760 C759 1.349 . S
C760 C772 1.349 . S
C761 C759 1.327 . S
C761 C777 1.429 . S
C761 H783 0.950 . S
C762 H758 0.949 . S
C762 C770 1.574 . S
C762 C778 1.368 . S
H763 C771 0.950 . S
H764 C769 0.950 . S
H765 C770 0.949 . S
H766 C772 0.950 . S
H767 C773 0.950 . S
H768 C774 0.949 . S
C769 H764 0.950 . S
C769 C771 1.327 . S
C769 C775 1.429 . S
C770 C762 1.574 . S
C770 H765 0.949 . S
C770 C776 1.368 . S
C771 C755 1.349 . S
C771 H763 0.950 . S
C771 C769 1.327 . S
C772 C760 1.349 . S
C772 H766 0.950 . S
C772 C773 1.327 . S
C773 H767 0.950 . S
C773 C772 1.327 . S
C773 C777 1.429 . S
C774 C757 1.574 . S
C774 H768 0.949 . S
C774 C778 1.368 . S
C775 C756 1.429 . S
C775 C769 1.429 . S
C775 C776 1.523 . S
C776 C757 1.368 . S
C776 C770 1.368 . S
C776 C775 1.523 . S
C777 C761 1.429 . S
C777 C773 1.429 . S
C777 C778 1.523 . S
C778 C762 1.368 . S
C778 C774 1.368 . S
C778 C777 1.523 . S
H779 C754 0.950 . S
H780 C756 0.950 . S
H781 C757 0.949 . S
H782 C759 0.950 . S
H783 C761 0.950 . S
C784 C785 1.349 . S
C784 C786 1.327 . S
C784 H809 0.950 . S
C785 C784 1.349 . S
C785 C801 1.349 . S
C786 C784 1.327 . S
C786 C805 1.429 . S
C786 H810 0.950 . S
C787 C804 1.574 . S
C787 C806 1.368 1_655 S
C787 H811 0.949 . S
H788 C792 0.949 . S
C789 C790 1.349 . S
C789 C791 1.327 . S
C789 H812 0.950 . S
C790 C789 1.349 . S
C790 C802 1.349 . S
C791 C789 1.327 . S
C791 C807 1.429 1_565 S
C791 H813 0.950 1_565 S
C792 H788 0.949 . S
C792 C800 1.574 . S
C792 C808 1.368 1_455 S
H793 C801 0.950 1_655 S
H794 C799 0.950 . S
H795 C800 0.949 . S
H796 C802 0.950 1_455 S
H797 C803 0.943 1_445 S
H798 C804 0.949 . S
C799 H794 0.950 . S
C799 C801 1.327 1_655 S
C799 C805 1.429 1_655 S
C800 C792 1.574 . S
C800 H795 0.949 . S
C800 C806 1.368 . S
C801 C785 1.349 . S
C801 H793 0.950 1_455 S
C801 C799 1.327 1_455 S
C802 C790 1.349 . S
C802 H796 0.950 1_655 S
C802 C803 1.330 . S
C803 H797 0.943 1_665 S
C803 C802 1.330 . S
C803 C807 1.433 1_565 S
C804 C787 1.574 . S
C804 H798 0.949 . S
C804 C808 1.368 . S
C805 C786 1.429 . S
C805 C799 1.429 1_455 S
C805 C806 1.523 . S
C806 C787 1.368 1_455 S
C806 C800 1.368 . S
C806 C805 1.523 . S
C807 C791 1.429 1_545 S
C807 C803 1.433 1_545 S
C807 C808 1.523 . S
C808 C792 1.368 1_655 S
C808 C804 1.368 . S
C808 C807 1.523 . S
H809 C784 0.950 . S
H810 C786 0.950 . S
H811 C787 0.949 . S
H812 C789 0.950 . S
H813 C791 0.950 1_545 S
C814 C815 1.349 . S
C814 C816 1.327 . S
C814 H839 0.950 . S
C815 C814 1.349 . S
C815 C831 1.349 . S
C816 C814 1.327 . S
C816 C835 1.429 . S
C816 H840 0.950 . S
C817 C834 1.574 1_545 S
C817 C836 1.368 . S
C817 H841 0.949 . S
H818 C822 0.949 . S
C819 C820 1.349 . S
C819 C821 1.327 . S
C819 H842 0.950 . S
C820 C819 1.349 . S
C820 C832 1.349 . S
C821 C819 1.327 . S
C821 C837 1.429 . S
C821 H843 0.950 . S
C822 H818 0.949 . S
C822 C830 1.573 1_565 S
C822 C838 1.368 . S
H823 C831 0.950 . S
H824 C829 0.950 . S
H825 C830 0.949 . S
H826 C832 0.950 . S
H827 C833 0.950 . S
H828 C834 0.949 . S
C829 H824 0.950 . S
C829 C831 1.327 . S
C829 C835 1.429 . S
C830 C822 1.573 1_545 S
C830 H825 0.949 . S
C830 C836 1.369 . S
C831 C815 1.349 . S
C831 H823 0.950 . S
C831 C829 1.327 . S
C832 C820 1.349 . S
C832 H826 0.950 . S
C832 C833 1.327 . S
C833 H827 0.950 . S
C833 C832 1.327 . S
C833 C837 1.429 . S
C834 C817 1.574 1_565 S
C834 H828 0.949 . S
C834 C838 1.368 . S
C835 C816 1.429 . S
C835 C829 1.429 . S
C835 C836 1.523 . S
C836 C817 1.368 . S
C836 C830 1.369 . S
C836 C835 1.523 . S
C837 C821 1.429 . S
C837 C833 1.429 . S
C837 C838 1.523 . S
C838 C822 1.368 . S
C838 C834 1.368 . S
C838 C837 1.523 . S
H839 C814 0.950 . S
H840 C816 0.950 . S
H841 C817 0.949 . S
H842 C819 0.950 . S
H843 C821 0.950 . S
C844 C845 1.349 . S
C844 C846 1.327 . S
C844 H869 0.950 . S
C845 C844 1.349 . S
C845 C861 1.349 . S
C846 C844 1.327 . S
C846 C865 1.429 . S
C846 H870 0.950 . S
C847 C864 1.574 . S
C847 C866 1.368 . S
C847 H871 0.949 . S
H848 C852 0.949 . S
C849 C850 1.349 . S
C849 C851 1.327 . S
C849 H872 0.950 . S
C850 C849 1.349 . S
C850 C862 1.349 . S
C851 C849 1.327 . S
C851 C867 1.429 . S
C851 H873 0.950 . S
C852 H848 0.949 . S
C852 C860 1.574 . S
C852 C868 1.368 . S
H853 C861 0.950 . S
H854 C859 0.950 . S
H855 C860 0.949 . S
H856 C862 0.950 . S
H857 C863 0.950 . S
H858 C864 0.949 . S
C859 H854 0.950 . S
C859 C861 1.327 . S
C859 C865 1.429 . S
C860 C852 1.574 . S
C860 H855 0.949 . S
C860 C866 1.368 . S
C861 C845 1.349 . S
C861 H853 0.950 . S
C861 C859 1.327 . S
C862 C850 1.349 . S
C862 H856 0.950 . S
C862 C863 1.327 . S
C863 H857 0.950 . S
C863 C862 1.327 . S
C863 C867 1.429 . S
C864 C847 1.574 . S
C864 H858 0.949 . S
C864 C868 1.368 . S
C865 C846 1.429 . S
C865 C859 1.429 . S
C865 C866 1.523 . S
C866 C847 1.368 . S
C866 C860 1.368 . S
C866 C865 1.523 . S
C867 C851 1.429 . S
C867 C863 1.429 . S
C867 C868 1.523 . S
C868 C852 1.368 . S
C868 C864 1.368 . S
C868 C867 1.523 . S
H869 C844 0.950 . S
H870 C846 0.950 . S
H871 C847 0.949 . S
H872 C849 0.950 . S
H873 C851 0.950 . S
C874 C875 1.349 . S
C874 C876 1.327 . S
C874 H899 0.950 . S
C875 C874 1.349 . S
C875 C891 1.349 . S
C876 C874 1.327 . S
C876 C895 1.429 . S
C876 H900 0.950 . S
C877 C894 1.574 . S
C877 C896 1.368 . S
C877 H901 0.949 . S
H878 C882 0.949 . S
C879 C880 1.349 . S
C879 C881 1.327 . S
C879 H902 0.950 . S
C880 C879 1.349 . S
C880 C892 1.349 . S
C881 C879 1.327 . S
C881 C897 1.429 1_655 S
C881 H903 0.950 1_655 S
C882 H878 0.949 . S
C882 C890 1.574 . S
C882 C898 1.368 . S
H883 C891 0.950 . S
H884 C889 0.950 . S
H885 C890 0.949 . S
H886 C892 0.950 . S
H887 C893 0.950 1_455 S
H888 C894 0.949 . S
C889 H884 0.950 . S
C889 C891 1.327 . S
C889 C895 1.429 . S
C890 C882 1.574 . S
C890 H885 0.949 . S
C890 C896 1.368 . S
C891 C875 1.349 . S
C891 H883 0.950 . S
C891 C889 1.327 . S
C892 C880 1.349 . S
C892 H886 0.950 . S
C892 C893 1.327 . S
C893 H887 0.950 1_655 S
C893 C892 1.327 . S
C893 C897 1.429 1_655 S
C894 C877 1.574 . S
C894 H888 0.949 . S
C894 C898 1.368 . S
C895 C876 1.429 . S
C895 C889 1.429 . S
C895 C896 1.523 . S
C896 C877 1.368 . S
C896 C890 1.368 . S
C896 C895 1.523 . S
C897 C881 1.429 1_455 S
C897 C893 1.429 1_455 S
C897 C898 1.523 . S
C898 C882 1.368 . S
C898 C894 1.368 . S
C898 C897 1.523 . S
H899 C874 0.950 . S
H900 C876 0.950 . S
H901 C877 0.949 . S
H902 C879 0.950 . S
H903 C881 0.950 1_455 S
C904 C905 1.349 . S
C904 C906 1.327 . S
C904 H929 0.950 . S
C905 C904 1.349 . S
C905 C921 1.349 . S
C906 C904 1.327 . S
C906 C925 1.429 . S
C906 H930 0.950 . S
C907 C924 1.574 . S
C907 C926 1.368 1_455 S
C907 H931 0.949 . S
H908 C912 0.949 . S
C909 C910 1.349 . S
C909 C911 1.327 . S
C909 H932 0.950 . S
C910 C909 1.349 . S
C910 C922 1.349 . S
C911 C909 1.327 . S
C911 C927 1.429 . S
C911 H933 0.950 . S
C912 H908 0.949 . S
C912 C920 1.574 . S
C912 C928 1.368 1_655 S
H913 C921 0.950 1_455 S
H914 C919 0.950 1_455 S
H915 C920 0.949 . S
H916 C922 0.950 1_655 S
H917 C923 0.961 . S
H918 C924 0.949 . S
C919 H914 0.950 1_655 S
C919 C921 1.327 . S
C919 C925 1.429 . S
C920 C912 1.574 . S
C920 H915 0.949 . S
C920 C926 1.368 . S
C921 C905 1.349 . S
C921 H913 0.950 1_655 S
C921 C919 1.327 . S
C922 C910 1.349 . S
C922 H916 0.950 1_455 S
C922 C923 1.323 1_455 S
C923 H917 0.961 . S
C923 C922 1.323 1_655 S
C923 C927 1.422 1_655 S
C924 C907 1.574 . S
C924 H918 0.949 . S
C924 C928 1.368 . S
C925 C906 1.429 . S
C925 C919 1.429 . S
C925 C926 1.523 . S
C926 C907 1.368 1_655 S
C926 C920 1.368 . S
C926 C925 1.523 . S
C927 C911 1.429 . S
C927 C923 1.422 1_455 S
C927 C928 1.523 . S
C928 C912 1.368 1_455 S
C928 C924 1.368 . S
C928 C927 1.523 . S
H929 C904 0.950 . S
H930 C906 0.950 . S
H931 C907 0.949 . S
H932 C909 0.950 . S
H933 C911 0.950 . S
C934 C935 1.349 . S
C934 C936 1.327 . S
C934 H959 0.950 . S
C935 C934 1.349 . S
C935 C951 1.349 . S
C936 C934 1.327 . S
C936 C955 1.429 1_655 S
C936 H960 0.948 1_655 S
C937 C954 1.574 . S
C937 C956 1.368 . S
C937 H961 0.949 . S
H938 C942 0.949 . S
C939 C940 1.349 . S
C939 C941 1.327 . S
C939 H962 0.950 . S
C940 C939 1.349 . S
C940 C952 1.349 . S
C941 C939 1.327 . S
C941 C957 1.429 . S
C941 H963 0.950 . S
C942 H938 0.949 . S
C942 C950 1.574 . S
C942 C958 1.368 . S
H943 C951 0.950 . S
H944 C949 0.950 1_455 S
H945 C950 0.949 . S
H946 C952 0.950 . S
H947 C953 0.950 . S
H948 C954 0.949 . S
C949 H944 0.950 1_655 S
C949 C951 1.327 . S
C949 C955 1.429 1_655 S
C950 C942 1.574 . S
C950 H945 0.949 . S
C950 C956 1.368 1_545 S
C951 C935 1.349 . S
C951 H943 0.950 . S
C951 C949 1.327 . S
C952 C940 1.349 . S
C952 H946 0.950 . S
C952 C953 1.327 . S
C953 H947 0.950 . S
C953 C952 1.327 . S
C953 C957 1.429 . S
C954 C937 1.574 . S
C954 H948 0.949 . S
C954 C958 1.368 1_565 S
C955 C936 1.429 1_455 S
C955 C949 1.429 1_455 S
C955 C956 1.523 . S
C956 C937 1.368 . S
C956 C950 1.368 1_565 S
C956 C955 1.523 . S
C957 C941 1.429 . S
C957 C953 1.429 . S
C957 C958 1.523 . S
C958 C942 1.368 . S
C958 C954 1.368 1_545 S
C958 C957 1.523 . S
H959 C934 0.950 . S
H960 C936 0.948 1_455 S
H961 C937 0.949 . S
H962 C939 0.950 . S
H963 C941 0.950 . S
C964 C965 1.349 . S
C964 C966 1.327 . S
C964 H989 0.950 . S
C965 C964 1.349 . S
C965 C981 1.349 . S
C966 C964 1.327 . S
C966 C985 1.429 . S
C966 H990 0.950 . S
C967 C984 1.574 . S
C967 C986 1.368 . S
C967 H991 0.949 . S
H968 C972 0.949 . S
C969 C970 1.349 . S
C969 C971 1.327 . S
C969 H992 0.950 . S
C970 C969 1.349 . S
C970 C982 1.349 . S
C971 C969 1.327 . S
C971 C987 1.429 1_565 S
C971 H993 0.950 1_565 S
C972 H968 0.949 . S
C972 C980 1.574 . S
C972 C988 1.368 . S
H973 C981 0.950 . S
H974 C979 0.950 . S
H975 C980 0.949 . S
H976 C982 0.950 . S
H977 C983 0.950 1_545 S
H978 C984 0.949 . S
C979 H974 0.950 . S
C979 C981 1.327 . S
C979 C985 1.429 . S
C980 C972 1.574 . S
C980 H975 0.949 . S
C980 C986 1.368 . S
C981 C965 1.349 . S
C981 H973 0.950 . S
C981 C979 1.327 . S
C982 C970 1.349 . S
C982 H976 0.950 . S
C982 C983 1.327 . S
C983 H977 0.950 1_565 S
C983 C982 1.327 . S
C983 C987 1.429 1_565 S
C984 C967 1.574 . S
C984 H978 0.949 . S
C984 C988 1.368 . S
C985 C966 1.429 . S
C985 C979 1.429 . S
C985 C986 1.523 . S
C986 C967 1.368 . S
C986 C980 1.368 . S
C986 C985 1.523 . S
C987 C971 1.429 1_545 S
C987 C983 1.429 1_545 S
C987 C988 1.523 . S
C988 C972 1.368 . S
C988 C984 1.368 . S
C988 C987 1.523 . S
H989 C964 0.950 . S
H990 C966 0.950 . S
H991 C967 0.949 . S
H992 C969 0.950 . S
H993 C971 0.950 1_545 S
C994 C995 1.349 . S
C994 C996 1.327 . S
C994 H1019 0.950 . S
C995 C994 1.349 . S
C995 C1011 1.349 . S
C996 C994 1.327 . S
C996 C1015 1.429 . S
C996 H1020 0.950 . S
C997 C1014 1.574 . S
C997 C1016 1.368 . S
C997 H1021 0.949 . S
H998 C1002 0.949 . S
C999 C1000 1.349 . S
C999 C1001 1.327 . S
C999 H1022 0.950 . S
C1000 C999 1.349 . S
C1000 C1012 1.349 . S
C1001 C999 1.327 . S
C1001 C1017 1.429 . S
C1001 H1023 0.950 . S
C1002 H998 0.949 . S
C1002 C1010 1.574 . S
C1002 C1018 1.368 . S
H1003 C1011 0.950 . S
H1004 C1009 0.950 . S
H1005 C1010 0.949 . S
H1006 C1012 0.950 . S
H1007 C1013 0.950 . S
H1008 C1014 0.949 . S
C1009 H1004 0.950 . S
C1009 C1011 1.327 . S
C1009 C1015 1.429 . S
C1010 C1002 1.574 . S
C1010 H1005 0.949 . S
C1010 C1016 1.368 . S
C1011 C995 1.349 . S
C1011 H1003 0.950 . S
C1011 C1009 1.327 . S
C1012 C1000 1.349 . S
C1012 H1006 0.950 . S
C1012 C1013 1.327 . S
C1013 H1007 0.950 . S
C1013 C1012 1.327 . S
C1013 C1017 1.429 . S
C1014 C997 1.574 . S
C1014 H1008 0.949 . S
C1014 C1018 1.368 . S
C1015 C996 1.429 . S
C1015 C1009 1.429 . S
C1015 C1016 1.523 . S
C1016 C997 1.368 . S
C1016 C1010 1.368 . S
C1016 C1015 1.523 . S
C1017 C1001 1.429 . S
C1017 C1013 1.429 . S
C1017 C1018 1.523 . S
C1018 C1002 1.368 . S
C1018 C1014 1.368 . S
C1018 C1017 1.523 . S
H1019 C994 0.950 . S
H1020 C996 0.950 . S
H1021 C997 0.949 . S
H1022 C999 0.950 . S
H1023 C1001 0.950 . S
C1024 C1025 1.349 . S
C1024 C1026 1.327 1_655 S
C1024 H1049 0.950 1_655 S
C1025 C1024 1.349 . S
C1025 C1041 1.349 . S
C1026 C1024 1.327 1_455 S
C1026 C1045 1.429 1_455 S
C1026 H1050 0.950 . S
C1027 C1044 1.574 . S
C1027 C1046 1.368 . S
C1027 H1051 0.949 . S
H1028 C1032 0.949 . S
C1029 C1030 1.349 . S
C1029 C1031 1.327 1_455 S
C1029 H1052 0.950 1_455 S
C1030 C1029 1.349 . S
C1030 C1042 1.349 . S
C1031 C1029 1.327 1_655 S
C1031 C1047 1.429 1_645 S
C1031 H1053 0.950 . S
C1032 H1028 0.949 . S
C1032 C1040 1.574 . S
C1032 C1048 1.368 . S
H1033 C1041 0.950 . S
H1034 C1039 0.950 . S
H1035 C1040 0.949 . S
H1036 C1042 0.950 . S
H1037 C1043 0.952 1_565 S
H1038 C1044 0.949 . S
C1039 H1034 0.950 . S
C1039 C1041 1.327 . S
C1039 C1045 1.429 . S
C1040 C1032 1.574 . S
C1040 H1035 0.949 . S
C1040 C1046 1.368 1_455 S
C1041 C1025 1.349 . S
C1041 H1033 0.950 . S
C1041 C1039 1.327 . S
C1042 C1030 1.349 . S
C1042 H1036 0.950 . S
C1042 C1043 1.324 . S
C1043 H1037 0.952 1_545 S
C1043 C1042 1.324 . S
C1043 C1047 1.430 1_545 S
C1044 C1027 1.574 . S
C1044 H1038 0.949 . S
C1044 C1048 1.368 1_655 S
C1045 C1026 1.429 1_655 S
C1045 C1039 1.429 . S
C1045 C1046 1.523 . S
C1046 C1027 1.368 . S
C1046 C1040 1.368 1_655 S
C1046 C1045 1.523 . S
C1047 C1031 1.429 1_465 S
C1047 C1043 1.430 1_565 S
C1047 C1048 1.523 . S
C1048 C1032 1.368 . S
C1048 C1044 1.368 1_455 S
C1048 C1047 1.523 . S
H1049 C1024 0.950 1_455 S
H1050 C1026 0.950 . S
H1051 C1027 0.949 . S
H1052 C1029 0.950 1_655 S
H1053 C1031 0.950 . S
C1054 C1055 1.349 . S
C1054 C1056 1.327 . S
C1054 H1079 0.950 . S
C1055 C1054 1.349 . S
C1055 C1071 1.349 . S
C1056 C1054 1.327 . S
C1056 C1075 1.429 . S
C1056 H1080 0.950 . S
C1057 C1074 1.574 . S
C1057 C1076 1.368 1_545 S
C1057 H1081 0.949 . S
H1058 C1062 0.949 . S
C1059 C1060 1.349 . S
C1059 C1061 1.327 . S
C1059 H1082 0.950 . S
C1060 C1059 1.349 . S
C1060 C1072 1.349 . S
C1061 C1059 1.327 . S
C1061 C1077 1.429 . S
C1061 H1083 0.950 . S
C1062 H1058 0.949 . S
C1062 C1070 1.574 . S
C1062 C1078 1.368 1_565 S
H1063 C1071 0.950 . S
H1064 C1069 0.950 . S
H1065 C1070 0.949 . S
H1066 C1072 0.950 . S
H1067 C1073 0.950 . S
H1068 C1074 0.949 . S
C1069 H1064 0.950 . S
C1069 C1071 1.327 . S
C1069 C1075 1.429 . S
C1070 C1062 1.574 . S
C1070 H1065 0.949 . S
C1070 C1076 1.368 . S
C1071 C1055 1.349 . S
C1071 H1063 0.950 . S
C1071 C1069 1.327 . S
C1072 C1060 1.349 . S
C1072 H1066 0.950 . S
C1072 C1073 1.327 . S
C1073 H1067 0.950 . S
C1073 C1072 1.327 . S
C1073 C1077 1.429 . S
C1074 C1057 1.574 . S
C1074 H1068 0.949 . S
C1074 C1078 1.368 . S
C1075 C1056 1.429 . S
C1075 C1069 1.429 . S
C1075 C1076 1.523 . S
C1076 C1057 1.368 1_565 S
C1076 C1070 1.368 . S
C1076 C1075 1.523 . S
C1077 C1061 1.429 . S
C1077 C1073 1.429 . S
C1077 C1078 1.523 . S
C1078 C1062 1.368 1_545 S
C1078 C1074 1.368 . S
C1078 C1077 1.523 . S
H1079 C1054 0.950 . S
H1080 C1056 0.950 . S
H1081 C1057 0.949 . S
H1082 C1059 0.950 . S
H1083 C1061 0.950 . S
C1084 C1085 1.349 . S
C1084 C1086 1.327 . S
C1084 H1109 0.950 . S
C1085 C1084 1.349 . S
C1085 C1101 1.349 . S
C1086 C1084 1.327 . S
C1086 C1105 1.429 . S
C1086 H1110 0.950 . S
C1087 C1104 1.574 . S
C1087 C1106 1.368 . S
C1087 H1111 0.949 . S
H1088 C1092 0.949 . S
C1089 C1090 1.349 . S
C1089 C1091 1.327 . S
C1089 H1112 0.950 . S
C1090 C1089 1.349 . S
C1090 C1102 1.349 . S
C1091 C1089 1.327 . S
C1091 C1107 1.429 . S
C1091 H1113 0.950 . S
C1092 H1088 0.949 . S
C1092 C1100 1.574 . S
C1092 C1108 1.368 . S
H1093 C1101 0.950 . S
H1094 C1099 0.950 . S
H1095 C1100 0.949 . S
H1096 C1102 0.950 . S
H1097 C1103 0.950 . S
H1098 C1104 0.949 . S
C1099 H1094 0.950 . S
C1099 C1101 1.327 . S
C1099 C1105 1.429 . S
C1100 C1092 1.574 . S
C1100 H1095 0.949 . S
C1100 C1106 1.368 . S
C1101 C1085 1.349 . S
C1101 H1093 0.950 . S
C1101 C1099 1.327 . S
C1102 C1090 1.349 . S
C1102 H1096 0.950 . S
C1102 C1103 1.327 . S
C1103 H1097 0.950 . S
C1103 C1102 1.327 . S
C1103 C1107 1.429 . S
C1104 C1087 1.574 . S
C1104 H1098 0.949 . S
C1104 C1108 1.368 . S
C1105 C1086 1.429 . S
C1105 C1099 1.429 . S
C1105 C1106 1.523 . S
C1106 C1087 1.368 . S
C1106 C1100 1.368 . S
C1106 C1105 1.523 . S
C1107 C1091 1.429 . S
C1107 C1103 1.429 . S
C1107 C1108 1.523 . S
C1108 C1092 1.368 . S
C1108 C1104 1.368 . S
C1108 C1107 1.523 . S
H1109 C1084 0.950 . S
H1110 C1086 0.950 . S
H1111 C1087 0.949 . S
H1112 C1089 0.950 . S
H1113 C1091 0.950 . S
C1114 C1115 1.349 . S
C1114 C1116 1.327 . S
C1114 H1139 0.950 . S
C1115 C1114 1.349 . S
C1115 C1131 1.349 . S
C1116 C1114 1.327 . S
C1116 C1135 1.429 . S
C1116 H1140 0.950 . S
C1117 C1134 1.574 . S
C1117 C1136 1.368 . S
C1117 H1141 0.949 . S
H1118 C1122 0.949 . S
C1119 C1120 1.349 . S
C1119 C1121 1.340 . S
C1119 H1142 0.950 . S
C1120 C1119 1.349 . S
C1120 C1132 1.349 . S
C1121 C1119 1.340 . S
C1121 C1137 1.423 1_455 S
C1121 H1143 0.942 1_455 S
C1122 H1118 0.949 . S
C1122 C1130 1.574 . S
C1122 C1138 1.368 . S
H1123 C1131 0.950 . S
H1124 C1129 0.950 . S
H1125 C1130 0.949 . S
H1126 C1132 0.950 . S
H1127 C1133 0.950 . S
H1128 C1134 0.949 . S
C1129 H1124 0.950 . S
C1129 C1131 1.327 . S
C1129 C1135 1.429 . S
C1130 C1122 1.574 . S
C1130 H1125 0.949 . S
C1130 C1136 1.368 . S
C1131 C1115 1.349 . S
C1131 H1123 0.950 . S
C1131 C1129 1.327 . S
C1132 C1120 1.349 . S
C1132 H1126 0.950 . S
C1132 C1133 1.327 . S
C1133 H1127 0.950 . S
C1133 C1132 1.327 . S
C1133 C1137 1.429 1_455 S
C1134 C1117 1.574 . S
C1134 H1128 0.949 . S
C1134 C1138 1.368 . S
C1135 C1116 1.429 . S
C1135 C1129 1.429 . S
C1135 C1136 1.523 . S
C1136 C1117 1.368 . S
C1136 C1130 1.368 . S
C1136 C1135 1.523 . S
C1137 C1121 1.423 1_655 S
C1137 C1133 1.429 1_655 S
C1137 C1138 1.523 . S
C1138 C1122 1.368 . S
C1138 C1134 1.368 . S
C1138 C1137 1.523 . S
H1139 C1114 0.950 . S
H1140 C1116 0.950 . S
H1141 C1117 0.949 . S
H1142 C1119 0.950 . S
H1143 C1121 0.942 1_655 S
C1144 C1145 1.349 . S
C1144 C1146 1.327 1_655 S
C1144 H1169 0.950 1_655 S
C1145 C1144 1.349 . S
C1145 C1161 1.349 . S
C1146 C1144 1.327 1_455 S
C1146 C1165 1.429 1_455 S
C1146 H1170 0.950 . S
C1147 C1164 1.574 . S
C1147 C1166 1.368 . S
C1147 H1171 0.949 . S
H1148 C1152 0.949 . S
C1149 C1150 1.349 . S
C1149 C1151 1.321 1_455 S
C1149 H1172 0.950 1_455 S
C1150 C1149 1.349 . S
C1150 C1162 1.349 . S
C1151 C1149 1.321 1_655 S
C1151 C1167 1.415 1_655 S
C1151 H1173 0.970 . S
C1152 H1148 0.949 . S
C1152 C1160 1.574 . S
C1152 C1168 1.368 . S
H1153 C1161 0.950 . S
H1154 C1159 0.950 . S
H1155 C1160 0.949 . S
H1156 C1162 0.950 . S
H1157 C1163 0.950 . S
H1158 C1164 0.949 . S
C1159 H1154 0.950 . S
C1159 C1161 1.327 . S
C1159 C1165 1.429 . S
C1160 C1152 1.574 . S
C1160 H1155 0.949 . S
C1160 C1166 1.368 1_455 S
C1161 C1145 1.349 . S
C1161 H1153 0.950 . S
C1161 C1159 1.327 . S
C1162 C1150 1.349 . S
C1162 H1156 0.950 . S
C1162 C1163 1.327 . S
C1163 H1157 0.950 . S
C1163 C1162 1.327 . S
C1163 C1167 1.429 . S
C1164 C1147 1.574 . S
C1164 H1158 0.949 . S
C1164 C1168 1.368 1_655 S
C1165 C1146 1.429 1_655 S
C1165 C1159 1.429 . S
C1165 C1166 1.523 . S
C1166 C1147 1.368 . S
C1166 C1160 1.368 1_655 S
C1166 C1165 1.523 . S
C1167 C1151 1.415 1_455 S
C1167 C1163 1.429 . S
C1167 C1168 1.523 . S
C1168 C1152 1.368 . S
C1168 C1164 1.368 1_455 S
C1168 C1167 1.523 . S
H1169 C1144 0.950 1_455 S
H1170 C1146 0.950 . S
H1171 C1147 0.949 . S
H1172 C1149 0.950 1_655 S
H1173 C1151 0.970 . S
C1174 C1175 1.349 . S
C1174 C1176 1.327 . S
C1174 H1199 0.950 . S
C1175 C1174 1.349 . S
C1175 C1191 1.349 . S
C1176 C1174 1.327 . S
C1176 C1195 1.429 . S
C1176 H1200 0.950 . S
C1177 C1194 1.572 1_565 S
C1177 C1196 1.369 . S
C1177 H1201 0.949 . S
H1178 C1182 0.949 . S
C1179 C1180 1.349 . S
C1179 C1181 1.327 . S
C1179 H1202 0.950 . S
C1180 C1179 1.349 . S
C1180 C1192 1.349 . S
C1181 C1179 1.327 . S
C1181 C1197 1.429 1_455 S
C1181 H1203 0.950 1_455 S
C1182 H1178 0.949 . S
C1182 C1190 1.574 1_545 S
C1182 C1198 1.368 . S
H1183 C1191 0.950 . S
H1184 C1189 0.950 . S
H1185 C1190 0.949 . S
H1186 C1192 0.950 . S
H1187 C1193 0.950 1_655 S
H1188 C1194 0.949 . S
C1189 H1184 0.950 . S
C1189 C1191 1.327 . S
C1189 C1195 1.429 . S
C1190 C1182 1.574 1_565 S
C1190 H1185 0.949 . S
C1190 C1196 1.368 . S
C1191 C1175 1.349 . S
C1191 H1183 0.950 . S
C1191 C1189 1.327 . S
C1192 C1180 1.349 . S
C1192 H1186 0.950 . S
C1192 C1193 1.327 . S
C1193 H1187 0.950 1_455 S
C1193 C1192 1.327 . S
C1193 C1197 1.429 1_455 S
C1194 C1177 1.572 1_545 S
C1194 H1188 0.949 . S
C1194 C1198 1.368 . S
C1195 C1176 1.429 . S
C1195 C1189 1.429 . S
C1195 C1196 1.523 . S
C1196 C1177 1.369 . S
C1196 C1190 1.368 . S
C1196 C1195 1.523 . S
C1197 C1181 1.429 1_655 S
C1197 C1193 1.429 1_655 S
C1197 C1198 1.523 . S
C1198 C1182 1.368 . S
C1198 C1194 1.368 . S
C1198 C1197 1.523 . S
H1199 C1174 0.950 . S
H1200 C1176 0.950 . S
H1201 C1177 0.949 . S
H1202 C1179 0.950 . S
H1203 C1181 0.950 1_655 S
C1204 C1205 1.349 . S
C1204 C1206 1.327 . S
C1204 H1229 0.950 . S
C1205 C1204 1.349 . S
C1205 C1221 1.349 . S
C1206 C1204 1.327 . S
C1206 C1225 1.429 . S
C1206 H1230 0.950 . S
C1207 C1224 1.574 . S
C1207 C1226 1.368 . S
C1207 H1231 0.949 . S
H1208 C1212 0.949 . S
C1209 C1210 1.349 . S
C1209 C1211 1.337 . S
C1209 H1232 0.950 . S
C1210 C1209 1.349 . S
C1210 C1222 1.349 . S
C1211 C1209 1.337 . S
C1211 C1227 1.425 1_545 S
C1211 H1233 0.944 1_545 S
C1212 H1208 0.949 . S
C1212 C1220 1.574 . S
C1212 C1228 1.368 . S
H1213 C1221 0.950 . S
H1214 C1219 0.950 . S
H1215 C1220 0.949 . S
H1216 C1222 0.950 . S
H1217 C1223 0.950 . S
H1218 C1224 0.949 . S
C1219 H1214 0.950 . S
C1219 C1221 1.327 . S
C1219 C1225 1.429 . S
C1220 C1212 1.574 . S
C1220 H1215 0.949 . S
C1220 C1226 1.368 . S
C1221 C1205 1.349 . S
C1221 H1213 0.950 . S
C1221 C1219 1.327 . S
C1222 C1210 1.349 . S
C1222 H1216 0.950 . S
C1222 C1223 1.327 . S
C1223 H1217 0.950 . S
C1223 C1222 1.327 . S
C1223 C1227 1.429 1_545 S
C1224 C1207 1.574 . S
C1224 H1218 0.949 . S
C1224 C1228 1.368 . S
C1225 C1206 1.429 . S
C1225 C1219 1.429 . S
C1225 C1226 1.523 . S
C1226 C1207 1.368 . S
C1226 C1220 1.368 . S
C1226 C1225 1.523 . S
C1227 C1211 1.425 1_565 S
C1227 C1223 1.429 1_565 S
C1227 C1228 1.523 . S
C1228 C1212 1.368 . S
C1228 C1224 1.368 . S
C1228 C1227 1.523 . S
H1229 C1204 0.950 . S
H1230 C1206 0.950 . S
H1231 C1207 0.949 . S
H1232 C1209 0.950 . S
H1233 C1211 0.944 1_565 S
C1234 C1235 1.349 . S
C1234 C1236 1.327 . S
C1234 H1259 0.950 . S
C1235 C1234 1.349 . S
C1235 C1251 1.349 . S
C1236 C1234 1.327 . S
C1236 C1255 1.429 . S
C1236 H1260 0.950 . S
C1237 C1254 1.574 . S
C1237 C1256 1.368 . S
C1237 H1261 0.949 . S
H1238 C1242 0.949 . S
C1239 C1240 1.349 . S
C1239 C1241 1.327 . S
C1239 H1262 0.950 . S
C1240 C1239 1.349 . S
C1240 C1252 1.349 . S
C1241 C1239 1.327 . S
C1241 C1257 1.429 . S
C1241 H1263 0.950 . S
C1242 H1238 0.949 . S
C1242 C1250 1.574 . S
C1242 C1258 1.368 . S
H1243 C1251 0.950 . S
H1244 C1249 0.950 . S
H1245 C1250 0.949 . S
H1246 C1252 0.950 . S
H1247 C1253 0.950 . S
H1248 C1254 0.949 . S
C1249 H1244 0.950 . S
C1249 C1251 1.327 . S
C1249 C1255 1.429 . S
C1250 C1242 1.574 . S
C1250 H1245 0.949 . S
C1250 C1256 1.368 . S
C1251 C1235 1.349 . S
C1251 H1243 0.950 . S
C1251 C1249 1.327 . S
C1252 C1240 1.349 . S
C1252 H1246 0.950 . S
C1252 C1253 1.327 . S
C1253 H1247 0.950 . S
C1253 C1252 1.327 . S
C1253 C1257 1.429 . S
C1254 C1237 1.574 . S
C1254 H1248 0.949 . S
C1254 C1258 1.368 . S
C1255 C1236 1.429 . S
C1255 C1249 1.429 . S
C1255 C1256 1.523 . S
C1256 C1237 1.368 . S
C1256 C1250 1.368 . S
C1256 C1255 1.523 . S
C1257 C1241 1.429 . S
C1257 C1253 1.429 . S
C1257 C1258 1.523 . S
C1258 C1242 1.368 . S
C1258 C1254 1.368 . S
C1258 C1257 1.523 . S
H1259 C1234 0.950 . S
H1260 C1236 0.950 . S
H1261 C1237 0.949 . S
H1262 C1239 0.950 . S
H1263 C1241 0.950 . S
C1264 C1265 1.349 . S
C1264 C1266 1.327 . S
C1264 H1289 0.950 . S
C1265 C1264 1.349 . S
C1265 C1281 1.349 . S
C1266 C1264 1.327 . S
C1266 C1285 1.429 . S
C1266 H1290 0.950 . S
C1267 C1284 1.574 . S
C1267 C1286 1.368 . S
C1267 H1291 0.949 . S
H1268 C1272 0.949 . S
C1269 C1270 1.349 . S
C1269 C1271 1.327 . S
C1269 H1292 0.950 . S
C1270 C1269 1.349 . S
C1270 C1282 1.349 . S
C1271 C1269 1.327 . S
C1271 C1287 1.429 . S
C1271 H1293 0.950 . S
C1272 H1268 0.949 . S
C1272 C1280 1.574 . S
C1272 C1288 1.368 . S
H1273 C1281 0.950 . S
H1274 C1279 0.950 . S
H1275 C1280 0.949 . S
H1276 C1282 0.950 . S
H1277 C1283 0.950 . S
H1278 C1284 0.949 . S
C1279 H1274 0.950 . S
C1279 C1281 1.327 . S
C1279 C1285 1.429 . S
C1280 C1272 1.574 . S
C1280 H1275 0.949 . S
C1280 C1286 1.368 . S
C1281 C1265 1.349 . S
C1281 H1273 0.950 . S
C1281 C1279 1.327 . S
C1282 C1270 1.349 . S
C1282 H1276 0.950 . S
C1282 C1283 1.327 . S
C1283 H1277 0.950 . S
C1283 C1282 1.327 . S
C1283 C1287 1.429 . S
C1284 C1267 1.574 . S
C1284 H1278 0.949 . S
C1284 C1288 1.368 . S
C1285 C1266 1.429 . S
C1285 C1279 1.429 . S
C1285 C1286 1.523 . S
C1286 C1267 1.368 . S
C1286 C1280 1.368 . S
C1286 C1285 1.523 . S
C1287 C1271 1.429 . S
C1287 C1283 1.429 . S
C1287 C1288 1.523 . S
C1288 C1272 1.368 . S
C1288 C1284 1.368 . S
C1288 C1287 1.523 . S
H1289 C1264 0.950 . S
H1290 C1266 0.950 . S
H1291 C1267 0.949 . S
H1292 C1269 0.950 . S
H1293 C1271 0.950 . S
C1294 C1295 1.349 . S
C1294 C1296 1.327 . S
C1294 H1319 0.950 . S
C1295 C1294 1.349 . S
C1295 C1311 1.349 . S
C1296 C1294 1.327 . S
C1296 C1315 1.429 . S
C1296 H1320 0.950 . S
C1297 C1314 1.574 . S
C1297 C1316 1.368 . S
C1297 H1321 0.949 . S
H1298 C1302 0.949 . S
C1299 C1300 1.349 . S
C1299 C1301 1.327 . S
C1299 H1322 0.950 . S
C1300 C1299 1.349 . S
C1300 C1312 1.349 . S
C1301 C1299 1.327 . S
C1301 C1317 1.429 . S
C1301 H1323 0.950 . S
C1302 H1298 0.949 . S
C1302 C1310 1.574 . S
C1302 C1318 1.368 . S
H1303 C1311 0.950 . S
H1304 C1309 0.950 . S
H1305 C1310 0.949 . S
H1306 C1312 0.950 . S
H1307 C1313 0.950 . S
H1308 C1314 0.949 . S
C1309 H1304 0.950 . S
C1309 C1311 1.327 . S
C1309 C1315 1.429 . S
C1310 C1302 1.574 . S
C1310 H1305 0.949 . S
C1310 C1316 1.368 . S
C1311 C1295 1.349 . S
C1311 H1303 0.950 . S
C1311 C1309 1.327 . S
C1312 C1300 1.349 . S
C1312 H1306 0.950 . S
C1312 C1313 1.327 . S
C1313 H1307 0.950 . S
C1313 C1312 1.327 . S
C1313 C1317 1.429 . S
C1314 C1297 1.574 . S
C1314 H1308 0.949 . S
C1314 C1318 1.368 . S
C1315 C1296 1.429 . S
C1315 C1309 1.429 . S
C1315 C1316 1.523 . S
C1316 C1297 1.368 . S
C1316 C1310 1.368 . S
C1316 C1315 1.523 . S
C1317 C1301 1.429 . S
C1317 C1313 1.429 . S
C1317 C1318 1.523 . S
C1318 C1302 1.368 . S
C1318 C1314 1.368 . S
C1318 C1317 1.523 . S
H1319 C1294 0.950 . S
H1320 C1296 0.950 . S
H1321 C1297 0.949 . S
H1322 C1299 0.950 . S
H1323 C1301 0.950 . S
C1324 C1325 1.349 . S
C1324 C1326 1.327 . S
C1324 H1349 0.950 . S
C1325 C1324 1.349 . S
C1325 C1341 1.349 . S
C1326 C1324 1.327 . S
C1326 C1345 1.429 . S
C1326 H1350 0.950 . S
C1327 C1344 1.574 . S
C1327 C1346 1.368 . S
C1327 H1351 0.949 . S
H1328 C1332 0.949 . S
C1329 C1330 1.349 . S
C1329 C1331 1.327 . S
C1329 H1352 0.950 . S
C1330 C1329 1.349 . S
C1330 C1342 1.349 . S
C1331 C1329 1.327 . S
C1331 C1347 1.429 . S
C1331 H1353 0.950 . S
C1332 H1328 0.949 . S
C1332 C1340 1.574 . S
C1332 C1348 1.368 . S
H1333 C1341 0.950 . S
H1334 C1339 0.950 . S
H1335 C1340 0.949 . S
H1336 C1342 0.950 . S
H1337 C1343 0.950 . S
H1338 C1344 0.949 . S
C1339 H1334 0.950 . S
C1339 C1341 1.327 . S
C1339 C1345 1.429 . S
C1340 C1332 1.574 . S
C1340 H1335 0.949 . S
C1340 C1346 1.368 . S
C1341 C1325 1.349 . S
C1341 H1333 0.950 . S
C1341 C1339 1.327 . S
C1342 C1330 1.349 . S
C1342 H1336 0.950 . S
C1342 C1343 1.327 . S
C1343 H1337 0.950 . S
C1343 C1342 1.327 . S
C1343 C1347 1.429 . S
C1344 C1327 1.574 . S
C1344 H1338 0.949 . S
C1344 C1348 1.368 . S
C1345 C1326 1.429 . S
C1345 C1339 1.429 . S
C1345 C1346 1.523 . S
C1346 C1327 1.368 . S
C1346 C1340 1.368 . S
C1346 C1345 1.523 . S
C1347 C1331 1.429 . S
C1347 C1343 1.429 . S
C1347 C1348 1.523 . S
C1348 C1332 1.368 . S
C1348 C1344 1.368 . S
C1348 C1347 1.523 . S
H1349 C1324 0.950 . S
H1350 C1326 0.950 . S
H1351 C1327 0.949 . S
H1352 C1329 0.950 . S
H1353 C1331 0.950 . S
C1354 C1355 1.349 . S
C1354 C1356 1.327 . S
C1354 H1379 0.950 . S
C1355 C1354 1.349 . S
C1355 C1371 1.349 . S
C1356 C1354 1.327 . S
C1356 C1375 1.429 . S
C1356 H1380 0.950 . S
C1357 C1374 1.574 . S
C1357 C1376 1.368 . S
C1357 H1381 0.949 . S
H1358 C1362 0.949 . S
C1359 C1360 1.349 . S
C1359 C1361 1.327 . S
C1359 H1382 0.950 . S
C1360 C1359 1.349 . S
C1360 C1372 1.349 . S
C1361 C1359 1.327 . S
C1361 C1377 1.429 . S
C1361 H1383 0.950 . S
C1362 H1358 0.949 . S
C1362 C1370 1.574 . S
C1362 C1378 1.368 . S
H1363 C1371 0.950 . S
H1364 C1369 0.950 . S
H1365 C1370 0.949 . S
H1366 C1372 0.950 . S
H1367 C1373 0.950 . S
H1368 C1374 0.949 . S
C1369 H1364 0.950 . S
C1369 C1371 1.327 . S
C1369 C1375 1.429 . S
C1370 C1362 1.574 . S
C1370 H1365 0.949 . S
C1370 C1376 1.368 . S
C1371 C1355 1.349 . S
C1371 H1363 0.950 . S
C1371 C1369 1.327 . S
C1372 C1360 1.349 . S
C1372 H1366 0.950 . S
C1372 C1373 1.327 . S
C1373 H1367 0.950 . S
C1373 C1372 1.327 . S
C1373 C1377 1.429 . S
C1374 C1357 1.574 . S
C1374 H1368 0.949 . S
C1374 C1378 1.368 . S
C1375 C1356 1.429 . S
C1375 C1369 1.429 . S
C1375 C1376 1.523 . S
C1376 C1357 1.368 . S
C1376 C1370 1.368 . S
C1376 C1375 1.523 . S
C1377 C1361 1.429 . S
C1377 C1373 1.429 . S
C1377 C1378 1.523 . S
C1378 C1362 1.368 . S
C1378 C1374 1.368 . S
C1378 C1377 1.523 . S
H1379 C1354 0.950 . S
H1380 C1356 0.950 . S
H1381 C1357 0.949 . S
H1382 C1359 0.950 . S
H1383 C1361 0.950 . S
C1384 C1385 1.349 . S
C1384 C1386 1.327 . S
C1384 H1409 0.950 . S
C1385 C1384 1.349 . S
C1385 C1401 1.349 . S
C1386 C1384 1.327 . S
C1386 C1405 1.429 . S
C1386 H1410 0.950 . S
C1387 C1404 1.574 . S
C1387 C1406 1.368 . S
C1387 H1411 0.949 . S
H1388 C1392 0.949 . S
C1389 C1390 1.349 . S
C1389 C1391 1.327 . S
C1389 H1412 0.950 . S
C1390 C1389 1.349 . S
C1390 C1402 1.349 . S
C1391 C1389 1.327 . S
C1391 C1407 1.429 . S
C1391 H1413 0.950 . S
C1392 H1388 0.949 . S
C1392 C1400 1.574 . S
C1392 C1408 1.368 . S
H1393 C1401 0.950 . S
H1394 C1399 0.950 . S
H1395 C1400 0.949 . S
H1396 C1402 0.950 . S
H1397 C1403 0.950 . S
H1398 C1404 0.949 . S
C1399 H1394 0.950 . S
C1399 C1401 1.327 . S
C1399 C1405 1.429 . S
C1400 C1392 1.574 . S
C1400 H1395 0.949 . S
C1400 C1406 1.368 . S
C1401 C1385 1.349 . S
C1401 H1393 0.950 . S
C1401 C1399 1.327 . S
C1402 C1390 1.349 . S
C1402 H1396 0.950 . S
C1402 C1403 1.327 . S
C1403 H1397 0.950 . S
C1403 C1402 1.327 . S
C1403 C1407 1.429 . S
C1404 C1387 1.574 . S
C1404 H1398 0.949 . S
C1404 C1408 1.368 . S
C1405 C1386 1.429 . S
C1405 C1399 1.429 . S
C1405 C1406 1.523 . S
C1406 C1387 1.368 . S
C1406 C1400 1.368 . S
C1406 C1405 1.523 . S
C1407 C1391 1.429 . S
C1407 C1403 1.429 . S
C1407 C1408 1.523 . S
C1408 C1392 1.368 . S
C1408 C1404 1.368 . S
C1408 C1407 1.523 . S
H1409 C1384 0.950 . S
H1410 C1386 0.950 . S
H1411 C1387 0.949 . S
H1412 C1389 0.950 . S
H1413 C1391 0.950 . S
C1414 C1415 1.349 . S
C1414 C1416 1.327 . S
C1414 H1439 0.950 . S
C1415 C1414 1.349 . S
C1415 C1431 1.349 . S
C1416 C1414 1.327 . S
C1416 C1435 1.429 . S
C1416 H1440 0.950 . S
C1417 C1434 1.574 . S
C1417 C1436 1.368 . S
C1417 H1441 0.949 . S
H1418 C1422 0.949 . S
C1419 C1420 1.349 . S
C1419 C1421 1.327 . S
C1419 H1442 0.950 . S
C1420 C1419 1.349 . S
C1420 C1432 1.349 . S
C1421 C1419 1.327 . S
C1421 C1437 1.429 . S
C1421 H1443 0.950 . S
C1422 H1418 0.949 . S
C1422 C1430 1.574 . S
C1422 C1438 1.368 . S
H1423 C1431 0.950 . S
H1424 C1429 0.950 . S
H1425 C1430 0.949 . S
H1426 C1432 0.950 . S
H1427 C1433 0.950 . S
H1428 C1434 0.949 . S
C1429 H1424 0.950 . S
C1429 C1431 1.327 . S
C1429 C1435 1.429 . S
C1430 C1422 1.574 . S
C1430 H1425 0.949 . S
C1430 C1436 1.368 . S
C1431 C1415 1.349 . S
C1431 H1423 0.950 . S
C1431 C1429 1.327 . S
C1432 C1420 1.349 . S
C1432 H1426 0.950 . S
C1432 C1433 1.327 . S
C1433 H1427 0.950 . S
C1433 C1432 1.327 . S
C1433 C1437 1.429 . S
C1434 C1417 1.574 . S
C1434 H1428 0.949 . S
C1434 C1438 1.368 . S
C1435 C1416 1.429 . S
C1435 C1429 1.429 . S
C1435 C1436 1.523 . S
C1436 C1417 1.368 . S
C1436 C1430 1.368 . S
C1436 C1435 1.523 . S
C1437 C1421 1.429 . S
C1437 C1433 1.429 . S
C1437 C1438 1.523 . S
C1438 C1422 1.368 . S
C1438 C1434 1.368 . S
C1438 C1437 1.523 . S
H1439 C1414 0.950 . S
H1440 C1416 0.950 . S
H1441 C1417 0.949 . S
H1442 C1419 0.950 . S
H1443 C1421 0.950 . S
C1444 C1445 1.349 . S
C1444 C1446 1.327 . S
C1444 H1469 0.950 . S
C1445 C1444 1.349 . S
C1445 C1461 1.349 . S
C1446 C1444 1.327 . S
C1446 C1465 1.429 . S
C1446 H1470 0.950 . S
C1447 C1464 1.574 . S
C1447 C1466 1.368 . S
C1447 H1471 0.949 . S
H1448 C1452 0.949 . S
C1449 C1450 1.349 . S
C1449 C1451 1.327 . S
C1449 H1472 0.950 . S
C1450 C1449 1.349 . S
C1450 C1462 1.349 . S
C1451 C1449 1.327 . S
C1451 C1467 1.429 . S
C1451 H1473 0.950 . S
C1452 H1448 0.949 . S
C1452 C1460 1.574 . S
C1452 C1468 1.368 . S
H1453 C1461 0.950 . S
H1454 C1459 0.950 . S
H1455 C1460 0.949 . S
H1456 C1462 0.950 . S
H1457 C1463 0.950 . S
H1458 C1464 0.949 . S
C1459 H1454 0.950 . S
C1459 C1461 1.327 . S
C1459 C1465 1.429 . S
C1460 C1452 1.574 . S
C1460 H1455 0.949 . S
C1460 C1466 1.368 . S
C1461 C1445 1.349 . S
C1461 H1453 0.950 . S
C1461 C1459 1.327 . S
C1462 C1450 1.349 . S
C1462 H1456 0.950 . S
C1462 C1463 1.327 . S
C1463 H1457 0.950 . S
C1463 C1462 1.327 . S
C1463 C1467 1.429 . S
C1464 C1447 1.574 . S
C1464 H1458 0.949 . S
C1464 C1468 1.368 . S
C1465 C1446 1.429 . S
C1465 C1459 1.429 . S
C1465 C1466 1.523 . S
C1466 C1447 1.368 . S
C1466 C1460 1.368 . S
C1466 C1465 1.523 . S
C1467 C1451 1.429 . S
C1467 C1463 1.429 . S
C1467 C1468 1.523 . S
C1468 C1452 1.368 . S
C1468 C1464 1.368 . S
C1468 C1467 1.523 . S
H1469 C1444 0.950 . S
H1470 C1446 0.950 . S
H1471 C1447 0.949 . S
H1472 C1449 0.950 . S
H1473 C1451 0.950 . S
C1474 C1475 1.349 . S
C1474 C1476 1.327 . S
C1474 H1499 0.950 . S
C1475 C1474 1.349 . S
C1475 C1491 1.349 . S
C1476 C1474 1.327 . S
C1476 C1495 1.429 . S
C1476 H1500 0.950 . S
C1477 C1494 1.574 . S
C1477 C1496 1.368 . S
C1477 H1501 0.949 . S
H1478 C1482 0.949 . S
C1479 C1480 1.349 . S
C1479 C1481 1.327 . S
C1479 H1502 0.950 . S
C1480 C1479 1.349 . S
C1480 C1492 1.349 . S
C1481 C1479 1.327 . S
C1481 C1497 1.429 . S
C1481 H1503 0.950 . S
C1482 H1478 0.949 . S
C1482 C1490 1.574 . S
C1482 C1498 1.368 . S
H1483 C1491 0.950 . S
H1484 C1489 0.950 . S
H1485 C1490 0.949 . S
H1486 C1492 0.950 . S
H1487 C1493 0.950 . S
H1488 C1494 0.949 . S
C1489 H1484 0.950 . S
C1489 C1491 1.327 . S
C1489 C1495 1.429 . S
C1490 C1482 1.574 . S
C1490 H1485 0.949 . S
C1490 C1496 1.368 . S
C1491 C1475 1.349 . S
C1491 H1483 0.950 . S
C1491 C1489 1.327 . S
C1492 C1480 1.349 . S
C1492 H1486 0.950 . S
C1492 C1493 1.327 . S
C1493 H1487 0.950 . S
C1493 C1492 1.327 . S
C1493 C1497 1.429 . S
C1494 C1477 1.574 . S
C1494 H1488 0.949 . S
C1494 C1498 1.368 . S
C1495 C1476 1.429 . S
C1495 C1489 1.429 . S
C1495 C1496 1.523 . S
C1496 C1477 1.368 . S
C1496 C1490 1.368 . S
C1496 C1495 1.523 . S
C1497 C1481 1.429 . S
C1497 C1493 1.429 . S
C1497 C1498 1.523 . S
C1498 C1482 1.368 . S
C1498 C1494 1.368 . S
C1498 C1497 1.523 . S
H1499 C1474 0.950 . S
H1500 C1476 0.950 . S
H1501 C1477 0.949 . S
H1502 C1479 0.950 . S
H1503 C1481 0.950 . S
C1504 C1505 1.349 . S
C1504 C1506 1.327 . S
C1504 H1529 0.950 . S
C1505 C1504 1.349 . S
C1505 C1521 1.349 . S
C1506 C1504 1.327 . S
C1506 C1525 1.429 . S
C1506 H1530 0.950 . S
C1507 C1524 1.574 . S
C1507 C1526 1.368 . S
C1507 H1531 0.949 . S
H1508 C1512 0.949 . S
C1509 C1510 1.349 . S
C1509 C1511 1.327 . S
C1509 H1532 0.950 . S
C1510 C1509 1.349 . S
C1510 C1522 1.349 . S
C1511 C1509 1.327 . S
C1511 C1527 1.429 . S
C1511 H1533 0.950 . S
C1512 H1508 0.949 . S
C1512 C1520 1.574 . S
C1512 C1528 1.368 . S
H1513 C1521 0.950 . S
H1514 C1519 0.950 . S
H1515 C1520 0.949 . S
H1516 C1522 0.950 . S
H1517 C1523 0.950 . S
H1518 C1524 0.949 . S
C1519 H1514 0.950 . S
C1519 C1521 1.327 . S
C1519 C1525 1.429 . S
C1520 C1512 1.574 . S
C1520 H1515 0.949 . S
C1520 C1526 1.368 . S
C1521 C1505 1.349 . S
C1521 H1513 0.950 . S
C1521 C1519 1.327 . S
C1522 C1510 1.349 . S
C1522 H1516 0.950 . S
C1522 C1523 1.327 . S
C1523 H1517 0.950 . S
C1523 C1522 1.327 . S
C1523 C1527 1.429 . S
C1524 C1507 1.574 . S
C1524 H1518 0.949 . S
C1524 C1528 1.368 . S
C1525 C1506 1.429 . S
C1525 C1519 1.429 . S
C1525 C1526 1.523 . S
C1526 C1507 1.368 . S
C1526 C1520 1.368 . S
C1526 C1525 1.523 . S
C1527 C1511 1.429 . S
C1527 C1523 1.429 . S
C1527 C1528 1.523 . S
C1528 C1512 1.368 . S
C1528 C1524 1.368 . S
C1528 C1527 1.523 . S
H1529 C1504 0.950 . S
H1530 C1506 0.950 . S
H1531 C1507 0.949 . S
H1532 C1509 0.950 . S
H1533 C1511 0.950 . S
C1534 C1535 1.349 . S
C1534 C1536 1.327 . S
C1534 H1559 0.950 . S
C1535 C1534 1.349 . S
C1535 C1551 1.349 . S
C1536 C1534 1.327 . S
C1536 C1555 1.429 . S
C1536 H1560 0.950 . S
C1537 C1554 1.574 . S
C1537 C1556 1.368 . S
C1537 H1561 0.949 . S
H1538 C1542 0.949 . S
C1539 C1540 1.349 . S
C1539 C1541 1.327 . S
C1539 H1562 0.950 . S
C1540 C1539 1.349 . S
C1540 C1552 1.349 . S
C1541 C1539 1.327 . S
C1541 C1557 1.429 . S
C1541 H1563 0.950 . S
C1542 H1538 0.949 . S
C1542 C1550 1.574 . S
C1542 C1558 1.368 . S
H1543 C1551 0.950 . S
H1544 C1549 0.950 . S
H1545 C1550 0.949 . S
H1546 C1552 0.950 . S
H1547 C1553 0.950 . S
H1548 C1554 0.949 . S
C1549 H1544 0.950 . S
C1549 C1551 1.327 . S
C1549 C1555 1.429 . S
C1550 C1542 1.574 . S
C1550 H1545 0.949 . S
C1550 C1556 1.368 . S
C1551 C1535 1.349 . S
C1551 H1543 0.950 . S
C1551 C1549 1.327 . S
C1552 C1540 1.349 . S
C1552 H1546 0.950 . S
C1552 C1553 1.327 . S
C1553 H1547 0.950 . S
C1553 C1552 1.327 . S
C1553 C1557 1.429 . S
C1554 C1537 1.574 . S
C1554 H1548 0.949 . S
C1554 C1558 1.368 . S
C1555 C1536 1.429 . S
C1555 C1549 1.429 . S
C1555 C1556 1.523 . S
C1556 C1537 1.368 . S
C1556 C1550 1.368 . S
C1556 C1555 1.523 . S
C1557 C1541 1.429 . S
C1557 C1553 1.429 . S
C1557 C1558 1.523 . S
C1558 C1542 1.368 . S
C1558 C1554 1.368 . S
C1558 C1557 1.523 . S
H1559 C1534 0.950 . S
H1560 C1536 0.950 . S
H1561 C1537 0.949 . S
H1562 C1539 0.950 . S
H1563 C1541 0.950 . S
C1564 C1565 1.349 . S
C1564 C1566 1.327 . S
C1564 H1589 0.950 . S
C1565 C1564 1.349 . S
C1565 C1581 1.349 . S
C1566 C1564 1.327 . S
C1566 C1585 1.429 . S
C1566 H1590 0.950 . S
C1567 C1584 1.574 . S
C1567 C1586 1.368 . S
C1567 H1591 0.949 . S
H1568 C1572 0.949 . S
C1569 C1570 1.349 . S
C1569 C1571 1.327 . S
C1569 H1592 0.950 . S
C1570 C1569 1.349 . S
C1570 C1582 1.349 . S
C1571 C1569 1.327 . S
C1571 C1587 1.429 . S
C1571 H1593 0.950 . S
C1572 H1568 0.949 . S
C1572 C1580 1.574 . S
C1572 C1588 1.368 . S
H1573 C1581 0.950 . S
H1574 C1579 0.950 . S
H1575 C1580 0.949 . S
H1576 C1582 0.950 . S
H1577 C1583 0.950 . S
H1578 C1584 0.949 . S
C1579 H1574 0.950 . S
C1579 C1581 1.327 . S
C1579 C1585 1.429 . S
C1580 C1572 1.574 . S
C1580 H1575 0.949 . S
C1580 C1586 1.368 . S
C1581 C1565 1.349 . S
C1581 H1573 0.950 . S
C1581 C1579 1.327 . S
C1582 C1570 1.349 . S
C1582 H1576 0.950 . S
C1582 C1583 1.327 . S
C1583 H1577 0.950 . S
C1583 C1582 1.327 . S
C1583 C1587 1.429 . S
C1584 C1567 1.574 . S
C1584 H1578 0.949 . S
C1584 C1588 1.368 . S
C1585 C1566 1.429 . S
C1585 C1579 1.429 . S
C1585 C1586 1.523 . S
C1586 C1567 1.368 . S
C1586 C1580 1.368 . S
C1586 C1585 1.523 . S
C1587 C1571 1.429 . S
C1587 C1583 1.429 . S
C1587 C1588 1.523 . S
C1588 C1572 1.368 . S
C1588 C1584 1.368 . S
C1588 C1587 1.523 . S
H1589 C1564 0.950 . S
H1590 C1566 0.950 . S
H1591 C1567 0.949 . S
H1592 C1569 0.950 . S
H1593 C1571 0.950 . S
C1594 C1595 1.349 . S
C1594 C1596 1.327 . S
C1594 H1619 0.950 . S
C1595 C1594 1.349 . S
C1595 C1611 1.349 . S
C1596 C1594 1.327 . S
C1596 C1615 1.429 . S
C1596 H1620 0.950 . S
C1597 C1614 1.574 . S
C1597 C1616 1.368 . S
C1597 H1621 0.949 . S
H1598 C1602 0.949 . S
C1599 C1600 1.349 . S
C1599 C1601 1.327 . S
C1599 H1622 0.950 . S
C1600 C1599 1.349 . S
C1600 C1612 1.349 . S
C1601 C1599 1.327 . S
C1601 C1617 1.429 . S
C1601 H1623 0.950 . S
C1602 H1598 0.949 . S
C1602 C1610 1.574 . S
C1602 C1618 1.368 . S
H1603 C1611 0.950 . S
H1604 C1609 0.950 . S
H1605 C1610 0.949 . S
H1606 C1612 0.950 . S
H1607 C1613 0.950 . S
H1608 C1614 0.949 . S
C1609 H1604 0.950 . S
C1609 C1611 1.327 . S
C1609 C1615 1.429 . S
C1610 C1602 1.574 . S
C1610 H1605 0.949 . S
C1610 C1616 1.368 . S
C1611 C1595 1.349 . S
C1611 H1603 0.950 . S
C1611 C1609 1.327 . S
C1612 C1600 1.349 . S
C1612 H1606 0.950 . S
C1612 C1613 1.327 . S
C1613 H1607 0.950 . S
C1613 C1612 1.327 . S
C1613 C1617 1.429 . S
C1614 C1597 1.574 . S
C1614 H1608 0.949 . S
C1614 C1618 1.368 . S
C1615 C1596 1.429 . S
C1615 C1609 1.429 . S
C1615 C1616 1.523 . S
C1616 C1597 1.368 . S
C1616 C1610 1.368 . S
C1616 C1615 1.523 . S
C1617 C1601 1.429 . S
C1617 C1613 1.429 . S
C1617 C1618 1.523 . S
C1618 C1602 1.368 . S
C1618 C1614 1.368 . S
C1618 C1617 1.523 . S
H1619 C1594 0.950 . S
H1620 C1596 0.950 . S
H1621 C1597 0.949 . S
H1622 C1599 0.950 . S
H1623 C1601 0.950 . S
C1624 C1625 1.349 . S
C1624 C1626 1.327 . S
C1624 H1649 0.950 . S
C1625 C1624 1.349 . S
C1625 C1641 1.349 . S
C1626 C1624 1.327 . S
C1626 C1645 1.429 . S
C1626 H1650 0.950 . S
C1627 C1644 1.574 . S
C1627 C1646 1.368 . S
C1627 H1651 0.949 . S
H1628 C1632 0.949 . S
C1629 C1630 1.349 . S
C1629 C1631 1.327 . S
C1629 H1652 0.950 . S
C1630 C1629 1.349 . S
C1630 C1642 1.349 . S
C1631 C1629 1.327 . S
C1631 C1647 1.429 . S
C1631 H1653 0.950 . S
C1632 H1628 0.949 . S
C1632 C1640 1.574 . S
C1632 C1648 1.368 . S
H1633 C1641 0.950 . S
H1634 C1639 0.950 . S
H1635 C1640 0.949 . S
H1636 C1642 0.950 . S
H1637 C1643 0.950 . S
H1638 C1644 0.949 . S
C1639 H1634 0.950 . S
C1639 C1641 1.327 . S
C1639 C1645 1.429 . S
C1640 C1632 1.574 . S
C1640 H1635 0.949 . S
C1640 C1646 1.368 . S
C1641 C1625 1.349 . S
C1641 H1633 0.950 . S
C1641 C1639 1.327 . S
C1642 C1630 1.349 . S
C1642 H1636 0.950 . S
C1642 C1643 1.327 . S
C1643 H1637 0.950 . S
C1643 C1642 1.327 . S
C1643 C1647 1.429 . S
C1644 C1627 1.574 . S
C1644 H1638 0.949 . S
C1644 C1648 1.368 . S
C1645 C1626 1.429 . S
C1645 C1639 1.429 . S
C1645 C1646 1.523 . S
C1646 C1627 1.368 . S
C1646 C1640 1.368 . S
C1646 C1645 1.523 . S
C1647 C1631 1.429 . S
C1647 C1643 1.429 . S
C1647 C1648 1.523 . S
C1648 C1632 1.368 . S
C1648 C1644 1.368 . S
C1648 C1647 1.523 . S
H1649 C1624 0.950 . S
H1650 C1626 0.950 . S
H1651 C1627 0.949 . S
H1652 C1629 0.950 . S
H1653 C1631 0.950 . S
C1654 C1655 1.349 . S
C1654 C1656 1.327 . S
C1654 H1679 0.950 . S
C1655 C1654 1.349 . S
C1655 C1671 1.349 . S
C1656 C1654 1.327 . S
C1656 C1675 1.429 . S
C1656 H1680 0.950 . S
C1657 C1674 1.574 . S
C1657 C1676 1.368 . S
C1657 H1681 0.949 . S
H1658 C1662 0.949 . S
C1659 C1660 1.349 . S
C1659 C1661 1.327 . S
C1659 H1682 0.950 . S
C1660 C1659 1.349 . S
C1660 C1672 1.349 . S
C1661 C1659 1.327 . S
C1661 C1677 1.429 . S
C1661 H1683 0.950 . S
C1662 H1658 0.949 . S
C1662 C1670 1.574 . S
C1662 C1678 1.368 . S
H1663 C1671 0.950 . S
H1664 C1669 0.950 . S
H1665 C1670 0.949 . S
H1666 C1672 0.950 . S
H1667 C1673 0.950 . S
H1668 C1674 0.949 . S
C1669 H1664 0.950 . S
C1669 C1671 1.327 . S
C1669 C1675 1.429 . S
C1670 C1662 1.574 . S
C1670 H1665 0.949 . S
C1670 C1676 1.368 . S
C1671 C1655 1.349 . S
C1671 H1663 0.950 . S
C1671 C1669 1.327 . S
C1672 C1660 1.349 . S
C1672 H1666 0.950 . S
C1672 C1673 1.327 . S
C1673 H1667 0.950 . S
C1673 C1672 1.327 . S
C1673 C1677 1.429 . S
C1674 C1657 1.574 . S
C1674 H1668 0.949 . S
C1674 C1678 1.368 . S
C1675 C1656 1.429 . S
C1675 C1669 1.429 . S
C1675 C1676 1.523 . S
C1676 C1657 1.368 . S
C1676 C1670 1.368 . S
C1676 C1675 1.523 . S
C1677 C1661 1.429 . S
C1677 C1673 1.429 . S
C1677 C1678 1.523 . S
C1678 C1662 1.368 . S
C1678 C1674 1.368 . S
C1678 C1677 1.523 . S
H1679 C1654 0.950 . S
H1680 C1656 0.950 . S
H1681 C1657 0.949 . S
H1682 C1659 0.950 . S
H1683 C1661 0.950 . S
C1684 C1685 1.349 . S
C1684 C1686 1.327 . S
C1684 H1709 0.950 . S
C1685 C1684 1.349 . S
C1685 C1701 1.349 . S
C1686 C1684 1.327 . S
C1686 C1705 1.429 . S
C1686 H1710 0.950 . S
C1687 C1704 1.574 . S
C1687 C1706 1.368 . S
C1687 H1711 0.949 . S
H1688 C1692 0.949 . S
C1689 C1690 1.349 . S
C1689 C1691 1.327 . S
C1689 H1712 0.950 . S
C1690 C1689 1.349 . S
C1690 C1702 1.349 . S
C1691 C1689 1.327 . S
C1691 C1707 1.429 . S
C1691 H1713 0.950 . S
C1692 H1688 0.949 . S
C1692 C1700 1.574 . S
C1692 C1708 1.368 . S
H1693 C1701 0.950 . S
H1694 C1699 0.950 . S
H1695 C1700 0.949 . S
H1696 C1702 0.950 . S
H1697 C1703 0.950 . S
H1698 C1704 0.949 . S
C1699 H1694 0.950 . S
C1699 C1701 1.327 . S
C1699 C1705 1.429 . S
C1700 C1692 1.574 . S
C1700 H1695 0.949 . S
C1700 C1706 1.368 . S
C1701 C1685 1.349 . S
C1701 H1693 0.950 . S
C1701 C1699 1.327 . S
C1702 C1690 1.349 . S
C1702 H1696 0.950 . S
C1702 C1703 1.327 . S
C1703 H1697 0.950 . S
C1703 C1702 1.327 . S
C1703 C1707 1.429 . S
C1704 C1687 1.574 . S
C1704 H1698 0.949 . S
C1704 C1708 1.368 . S
C1705 C1686 1.429 . S
C1705 C1699 1.429 . S
C1705 C1706 1.523 . S
C1706 C1687 1.368 . S
C1706 C1700 1.368 . S
C1706 C1705 1.523 . S
C1707 C1691 1.429 . S
C1707 C1703 1.429 . S
C1707 C1708 1.523 . S
C1708 C1692 1.368 . S
C1708 C1704 1.368 . S
C1708 C1707 1.523 . S
H1709 C1684 0.950 . S
H1710 C1686 0.950 . S
H1711 C1687 0.949 . S
H1712 C1689 0.950 . S
H1713 C1691 0.950 . S
C1714 C1715 1.349 . S
C1714 C1716 1.327 . S
C1714 H1739 0.950 . S
C1715 C1714 1.349 . S
C1715 C1731 1.349 . S
C1716 C1714 1.327 . S
C1716 C1735 1.429 . S
C1716 H1740 0.950 . S
C1717 C1734 1.574 . S
C1717 C1736 1.368 . S
C1717 H1741 0.949 . S
H1718 C1722 0.949 . S
C1719 C1720 1.349 . S
C1719 C1721 1.327 . S
C1719 H1742 0.950 . S
C1720 C1719 1.349 . S
C1720 C1732 1.349 . S
C1721 C1719 1.327 . S
C1721 C1737 1.429 . S
C1721 H1743 0.950 . S
C1722 H1718 0.949 . S
C1722 C1730 1.574 . S
C1722 C1738 1.368 . S
H1723 C1731 0.950 . S
H1724 C1729 0.950 . S
H1725 C1730 0.949 . S
H1726 C1732 0.950 . S
H1727 C1733 0.950 . S
H1728 C1734 0.949 . S
C1729 H1724 0.950 . S
C1729 C1731 1.327 . S
C1729 C1735 1.429 . S
C1730 C1722 1.574 . S
C1730 H1725 0.949 . S
C1730 C1736 1.368 . S
C1731 C1715 1.349 . S
C1731 H1723 0.950 . S
C1731 C1729 1.327 . S
C1732 C1720 1.349 . S
C1732 H1726 0.950 . S
C1732 C1733 1.327 . S
C1733 H1727 0.950 . S
C1733 C1732 1.327 . S
C1733 C1737 1.429 . S
C1734 C1717 1.574 . S
C1734 H1728 0.949 . S
C1734 C1738 1.368 . S
C1735 C1716 1.429 . S
C1735 C1729 1.429 . S
C1735 C1736 1.523 . S
C1736 C1717 1.368 . S
C1736 C1730 1.368 . S
C1736 C1735 1.523 . S
C1737 C1721 1.429 . S
C1737 C1733 1.429 . S
C1737 C1738 1.523 . S
C1738 C1722 1.368 . S
C1738 C1734 1.368 . S
C1738 C1737 1.523 . S
H1739 C1714 0.950 . S
H1740 C1716 0.950 . S
H1741 C1717 0.949 . S
H1742 C1719 0.950 . S
H1743 C1721 0.950 . S
C545 C141 1.594 . S
C550 C5 1.594 . S
C575 C175 1.594 . S
C580 C39 1.594 . S
C605 C73 1.594 . S
C610 C209 1.594 . S
C635 C243 1.594 . S
C640 C107 1.594 . S
C665 C413 1.594 . S
C670 C277 1.594 . S
C695 C311 1.594 . S
C700 C447 1.594 . S
C725 C345 1.594 . S
C730 C481 1.594 . S
C755 C379 1.594 . S
C760 C515 1.594 . S
C785 C2 1.349 . S
C790 C428 1.365 . S
C815 C36 1.349 . S
C820 C462 1.365 . S
C845 C496 1.365 . S
C850 C70 1.349 . S
C875 C104 1.349 . S
C880 C530 1.365 . S
C905 C292 1.365 . S
C910 C138 1.349 . S
C935 C326 1.365 . S
C940 C172 1.349 . S
C965 C206 1.349 . S
C970 C360 1.365 . S
C995 C394 1.365 . S
C1000 C240 1.349 . S
C1025 C274 1.349 . S
C1030 C156 1.365 . S
C1055 C308 1.349 . S
C1060 C190 1.365 . S
C1085 C224 1.365 . S
C1090 C342 1.349 . S
C1115 C376 1.349 . S
C1120 C258 1.365 . S
C1145 C410 1.349 . S
C1150 C20 1.365 . S
C1175 C444 1.349 . S
C1180 C54 1.365 . S
C1205 C478 1.349 . S
C1210 C88 1.365 . S
C1235 C122 1.365 . S
C1240 C512 1.349 . S
C1265 C247 1.636 . S
C1270 C9 1.636 . S
C1295 C43 1.636 . S
C1300 C145 1.636 . S
C1325 C179 1.636 . S
C1330 C77 1.636 . S
C1355 C213 1.636 . S
C1360 C111 1.636 . S
C1385 C281 1.636 . S
C1390 C519 1.636 . S
C1415 C417 1.637 . S
C1420 C315 1.637 . S
C1445 C349 1.636 . S
C1450 C451 1.636 . S
C1475 C485 1.636 . S
C1480 C383 1.636 . S
C1505 C101 0.492 . S
C1510 C33 0.492 . S
C1535 C135 0.492 . S
C1540 C67 0.492 . S
C1565 C169 0.492 . S
C1570 C237 0.492 . S
C1595 C271 0.492 . S
C1600 C203 0.492 . S
C1625 C305 0.492 . S
C1630 C373 0.492 . S
C1655 C407 0.492 . S
C1660 C339 0.492 . S
C1685 C441 0.492 . S
C1690 C509 0.492 . S
C1715 C475 0.492 . S
C1720 C543 0.492 . S
