# Generated by pormake.
# Topology umm, (4)-cn, num edge types: 1
# Building blocks:
#     Node 0, Type 0, BuildingBlock: GALJAG_clean_sbu_0, # of connection points: 4
#     Node 1, Type 0, BuildingBlock: GALJAG_clean_sbu_0, # of connection points: 4
#     Node 2, Type 0, BuildingBlock: GALJAG_clean_sbu_0, # of connection points: 4
#     Node 3, Type 0, BuildingBlock: GALJAG_clean_sbu_0, # of connection points: 4
#     Node 4, Type 0, BuildingBlock: GALJAG_clean_sbu_0, # of connection points: 4
#     Node 5, Type 0, BuildingBlock: GALJAG_clean_sbu_0, # of connection points: 4
#     Node 6, Type 0, BuildingBlock: GALJAG_clean_sbu_0, # of connection points: 4
#     Node 7, Type 0, BuildingBlock: GALJAG_clean_sbu_0, # of connection points: 4
#     Node 8, Type 0, BuildingBlock: GALJAG_clean_sbu_0, # of connection points: 4
#     Node 9, Type 0, BuildingBlock: GALJAG_clean_sbu_0, # of connection points: 4
#     Node 10, Type 0, BuildingBlock: GALJAG_clean_sbu_0, # of connection points: 4
#     Node 11, Type 0, BuildingBlock: GALJAG_clean_sbu_0, # of connection points: 4
#     Edge 12, Type (0, 0), BuildingBlock: KIFKEQ_clean_linker_1, # of connection points: 2
#     Edge 13, Type (0, 0), BuildingBlock: KIFKEQ_clean_linker_1, # of connection points: 2
#     Edge 14, Type (0, 0), BuildingBlock: KIFKEQ_clean_linker_1, # of connection points: 2
#     Edge 15, Type (0, 0), BuildingBlock: KIFKEQ_clean_linker_1, # of connection points: 2
#     Edge 16, Type (0, 0), BuildingBlock: KIFKEQ_clean_linker_1, # of connection points: 2
#     Edge 17, Type (0, 0), BuildingBlock: KIFKEQ_clean_linker_1, # of connection points: 2
#     Edge 18, Type (0, 0), BuildingBlock: KIFKEQ_clean_linker_1, # of connection points: 2
#     Edge 19, Type (0, 0), BuildingBlock: KIFKEQ_clean_linker_1, # of connection points: 2
#     Edge 20, Type (0, 0), BuildingBlock: KIFKEQ_clean_linker_1, # of connection points: 2
#     Edge 21, Type (0, 0), BuildingBlock: KIFKEQ_clean_linker_1, # of connection points: 2
#     Edge 22, Type (0, 0), BuildingBlock: KIFKEQ_clean_linker_1, # of connection points: 2
#     Edge 23, Type (0, 0), BuildingBlock: KIFKEQ_clean_linker_1, # of connection points: 2
#     Edge 24, Type (0, 0), BuildingBlock: KIFKEQ_clean_linker_1, # of connection points: 2
#     Edge 25, Type (0, 0), BuildingBlock: KIFKEQ_clean_linker_1, # of connection points: 2
#     Edge 26, Type (0, 0), BuildingBlock: KIFKEQ_clean_linker_1, # of connection points: 2
#     Edge 27, Type (0, 0), BuildingBlock: KIFKEQ_clean_linker_1, # of connection points: 2
#     Edge 28, Type (0, 0), BuildingBlock: KIFKEQ_clean_linker_1, # of connection points: 2
#     Edge 29, Type (0, 0), BuildingBlock: KIFKEQ_clean_linker_1, # of connection points: 2
#     Edge 30, Type (0, 0), BuildingBlock: KIFKEQ_clean_linker_1, # of connection points: 2
#     Edge 31, Type (0, 0), BuildingBlock: KIFKEQ_clean_linker_1, # of connection points: 2
#     Edge 32, Type (0, 0), BuildingBlock: KIFKEQ_clean_linker_1, # of connection points: 2
#     Edge 33, Type (0, 0), BuildingBlock: KIFKEQ_clean_linker_1, # of connection points: 2
#     Edge 34, Type (0, 0), BuildingBlock: KIFKEQ_clean_linker_1, # of connection points: 2
#     Edge 35, Type (0, 0), BuildingBlock: KIFKEQ_clean_linker_1, # of connection points: 2
# Relax obj value: 0.093
# Max RMSD: 0.221
# Mean RMSD: 0.220
data_MOF--net-umm--node1-GALJAG_clean_sbu_0--edge1-KIFKEQ_clean_linker_1
_symmetry_space_group_name_H-M    P1
_symmetry_Int_Tables_number       1
_symmetry_cell_setting            triclinic
loop_
_symmetry_equiv_pos_as_xyz
'x, y, z'
_cell_length_a     56.777552
_cell_length_b     56.709453
_cell_length_c     28.815164
_cell_angle_alpha  90.009386
_cell_angle_beta   89.97663
_cell_angle_gamma 119.96216
loop_
_atom_site_label
_atom_site_type_symbol
_atom_site_fract_x
_atom_site_fract_y
_atom_site_fract_z
_atom_type_partial_charge
In0 In 0.3837 0.53304 0.08851 0.0
O1 O 0.39641 0.5677 0.14101 0.0
O2 O 0.38046 0.52732 0.16668 0.0
C3 C 0.39086 0.55838 0.00628 0.0
C4 C 0.42251 0.51869 0.08543 0.0
C5 C 0.32935 0.50371 0.07891 0.0
O6 O 0.40164 0.57162 0.04308 0.0
O7 O 0.37693 0.53298 0.0113 0.0
O8 O 0.34465 0.49425 0.06812 0.0
O9 O 0.3414 0.52718 0.09684 0.0
C10 C 0.39024 0.55224 0.17605 0.0
O11 O 0.39801 0.50162 0.0949 0.0
O12 O 0.42699 0.54239 0.07728 0.0
In13 In 0.85325 0.38462 0.41794 0.0
O14 O 0.83191 0.39901 0.46848 0.0
O15 O 0.85377 0.38063 0.4961 0.0
C16 C 0.83838 0.39183 0.33283 0.0
C17 C 0.90592 0.42425 0.41963 0.0
C18 C 0.82763 0.33014 0.40869 0.0
O19 O 0.83001 0.39803 0.36909 0.0
O20 O 0.85413 0.38257 0.34004 0.0
O21 O 0.85273 0.34499 0.40004 0.0
O22 O 0.81614 0.34267 0.42428 0.0
C23 C 0.83973 0.39181 0.50422 0.0
O24 O 0.89882 0.3996 0.42744 0.0
O25 O 0.88659 0.4285 0.41093 0.0
In26 In 0.46789 0.85156 0.74867 0.0
O27 O 0.43217 0.83073 0.79936 0.0
O28 O 0.47238 0.85253 0.82686 0.0
C29 C 0.44588 0.83686 0.66347 0.0
C30 C 0.48175 0.90451 0.74957 0.0
C31 C 0.49605 0.8252 0.74034 0.0
O32 O 0.43124 0.8289 0.69966 0.0
O33 O 0.47095 0.85205 0.67078 0.0
O34 O 0.50669 0.85036 0.73169 0.0
O35 O 0.47195 0.81397 0.75536 0.0
C36 C 0.44718 0.83869 0.83507 0.0
O37 O 0.49901 0.89707 0.75755 0.0
O38 O 0.45806 0.88538 0.74113 0.0
In39 In 0.61679 0.46549 0.08265 0.0
O40 O 0.60292 0.43022 0.13408 0.0
O41 O 0.6211 0.47066 0.16073 0.0
C42 C 0.60962 0.4428 0.99798 0.0
C43 C 0.57695 0.47829 0.08387 0.0
C44 C 0.67114 0.49497 0.07283 0.0
O45 O 0.60368 0.42851 0.03454 0.0
O46 O 0.61859 0.46781 0.00469 0.0
O47 O 0.65594 0.50484 0.06423 0.0
O48 O 0.65903 0.47099 0.0886 0.0
C49 C 0.61016 0.44552 0.16946 0.0
O50 O 0.60157 0.49597 0.09116 0.0
O51 O 0.57279 0.45465 0.07596 0.0
In52 In 0.15258 0.61987 0.42011 0.0
O53 O 0.17418 0.60588 0.47083 0.0
O54 O 0.15206 0.62402 0.49827 0.0
C55 C 0.16763 0.61274 0.33506 0.0
C56 C 0.10003 0.57991 0.42166 0.0
C57 C 0.17753 0.67428 0.4102 0.0
O58 O 0.17602 0.60661 0.37134 0.0
O59 O 0.15177 0.62188 0.34223 0.0
O60 O 0.15241 0.65912 0.40214 0.0
O61 O 0.1894 0.6621 0.42564 0.0
C62 C 0.16626 0.61302 0.50651 0.0
O63 O 0.10693 0.60451 0.42945 0.0
O64 O 0.11949 0.57585 0.41311 0.0
In65 In 0.53444 0.152 0.7535 0.0
O66 O 0.56955 0.17437 0.80483 0.0
O67 O 0.52934 0.15084 0.83165 0.0
C68 C 0.55775 0.16849 0.66946 0.0
C69 C 0.52194 0.09938 0.75379 0.0
C70 C 0.50393 0.17577 0.74328 0.0
O71 O 0.53258 0.15327 0.6756 0.0
O72 O 0.57187 0.17553 0.70624 0.0
O73 O 0.49479 0.15086 0.73425 0.0
O74 O 0.52771 0.18803 0.75979 0.0
C75 C 0.55436 0.16582 0.84028 0.0
O76 O 0.5043 0.10626 0.762 0.0
O77 O 0.54543 0.11891 0.74546 0.0
In78 In 0.46674 0.61567 0.59317 0.0
O79 O 0.4318 0.60261 0.54122 0.0
O80 O 0.47206 0.6189 0.51498 0.0
C81 C 0.44198 0.60887 0.67589 0.0
C82 C 0.48104 0.5768 0.59525 0.0
C83 C 0.49611 0.67012 0.60193 0.0
O84 O 0.42849 0.59821 0.63926 0.0
O85 O 0.46736 0.62247 0.67047 0.0
O86 O 0.50555 0.65486 0.61304 0.0
O87 O 0.47261 0.65798 0.58426 0.0
C88 C 0.4471 0.60888 0.50597 0.0
O89 O 0.49804 0.60133 0.5857 0.0
O90 O 0.45745 0.57233 0.60417 0.0
In91 In 0.8525 0.46964 0.91958 0.0
O92 O 0.83098 0.43483 0.86774 0.0
O93 O 0.85315 0.47545 0.84164 0.0
C94 C 0.83882 0.44697 0.00461 0.0
C95 C 0.90517 0.48294 0.9156 0.0
C96 C 0.82599 0.49757 0.92945 0.0
O97 O 0.82997 0.43264 0.96823 0.0
O98 O 0.85454 0.47199 0.99754 0.0
O99 O 0.8513 0.5085 0.93666 0.0
O100 O 0.81468 0.47331 0.91511 0.0
C101 C 0.83893 0.45033 0.83259 0.0
O102 O 0.89817 0.50094 0.91608 0.0
O103 O 0.88575 0.45875 0.91718 0.0
In104 In 0.38311 0.8537 0.25033 0.0
O105 O 0.39614 0.83189 0.19858 0.0
O106 O 0.37759 0.85395 0.17238 0.0
C107 C 0.39239 0.84018 0.3353 0.0
C108 C 0.4226 0.90635 0.24562 0.0
C109 C 0.3288 0.82759 0.26141 0.0
O110 O 0.39727 0.83085 0.29887 0.0
O111 O 0.38359 0.85632 0.32829 0.0
O112 O 0.34339 0.85295 0.2682 0.0
O113 O 0.34144 0.81603 0.24674 0.0
C114 C 0.38846 0.83969 0.16339 0.0
O115 O 0.39767 0.89946 0.24631 0.0
O116 O 0.42726 0.88684 0.24732 0.0
In117 In 0.53244 0.38122 0.58571 0.0
O118 O 0.56753 0.39482 0.53404 0.0
O119 O 0.52715 0.3774 0.5076 0.0
C120 C 0.55497 0.38778 0.67035 0.0
C121 C 0.52018 0.42146 0.58612 0.0
C122 C 0.50274 0.32681 0.59478 0.0
O123 O 0.56931 0.39408 0.63383 0.0
O124 O 0.52998 0.37873 0.66362 0.0
O125 O 0.49293 0.34208 0.60331 0.0
O126 O 0.52678 0.33891 0.57938 0.0
C127 C 0.55221 0.38797 0.49873 0.0
O128 O 0.5023 0.39691 0.57858 0.0
O129 O 0.54376 0.42536 0.59325 0.0
In130 In 0.15203 0.53473 0.92177 0.0
O131 O 0.10631 0.50377 0.91761 0.0
O132 O 0.11903 0.54601 0.91945 0.0
C133 C 0.17762 0.50593 0.93227 0.0
C134 C 0.1661 0.55418 0.8349 0.0
C135 C 0.16593 0.55739 0.00678 0.0
O136 O 0.15234 0.49546 0.93922 0.0
O137 O 0.18938 0.53018 0.91778 0.0
O138 O 0.17507 0.57166 0.97038 0.0
O139 O 0.14978 0.53247 0.99974 0.0
C140 C 0.09949 0.52189 0.91739 0.0
O141 O 0.17394 0.56961 0.87013 0.0
O142 O 0.15178 0.52905 0.84381 0.0
In143 In 0.61866 0.15283 0.25533 0.0
O144 O 0.6036 0.10703 0.25001 0.0
O145 O 0.57434 0.12007 0.25244 0.0
C146 C 0.67301 0.17816 0.26522 0.0
C147 C 0.61307 0.16726 0.1689 0.0
C148 C 0.61029 0.16626 0.34102 0.0
O149 O 0.65814 0.15283 0.27196 0.0
O150 O 0.66058 0.1901 0.25134 0.0
O151 O 0.60609 0.1765 0.30509 0.0
O152 O 0.61791 0.14925 0.33314 0.0
C153 C 0.57873 0.1004 0.24976 0.0
O154 O 0.6051 0.17456 0.20434 0.0
O155 O 0.62434 0.15332 0.17741 0.0
H156 H 0.42007 0.60499 0.20594 0.0
H157 H 0.37225 0.52237 0.25543 0.0
H158 H 0.43183 0.621 0.28608 0.0
H159 H 0.38394 0.53833 0.33524 0.0
H160 H 0.39437 0.57837 0.47658 0.0
H161 H 0.37819 0.56653 0.39652 0.0
H162 H 0.46048 0.61558 0.34668 0.0
H163 H 0.4766 0.62734 0.42636 0.0
C164 C 0.4118 0.59031 0.23393 0.0
C165 C 0.39536 0.56242 0.2244 0.0
C166 C 0.41863 0.59945 0.27976 0.0
C167 C 0.40886 0.58091 0.31697 0.0
C168 C 0.39157 0.55315 0.30741 0.0
C169 C 0.38501 0.544 0.26165 0.0
C170 C 0.40891 0.58687 0.44845 0.0
C171 C 0.43675 0.60367 0.45773 0.0
C172 C 0.39968 0.58 0.40268 0.0
C173 C 0.41807 0.59008 0.3653 0.0
C174 C 0.44577 0.6077 0.37464 0.0
C175 C 0.45501 0.61431 0.42033 0.0
H176 H 0.81817 0.42328 0.53201 0.0
H177 H 0.84964 0.37316 0.5847 0.0
H178 H 0.8135 0.43561 0.61155 0.0
H179 H 0.8451 0.38553 0.66383 0.0
H180 H 0.816 0.39748 0.80341 0.0
H181 H 0.8117 0.38109 0.72361 0.0
H182 H 0.84629 0.46353 0.6732 0.0
H183 H 0.85044 0.47986 0.75274 0.0
C184 C 0.82377 0.41466 0.56056 0.0
C185 C 0.83438 0.39736 0.55212 0.0
C186 C 0.82123 0.42182 0.60606 0.0
C187 C 0.82899 0.4116 0.64399 0.0
C188 C 0.83866 0.39352 0.63546 0.0
C189 C 0.84142 0.38657 0.59007 0.0
C190 C 0.82234 0.41204 0.77523 0.0
C191 C 0.8337 0.43997 0.78435 0.0
C192 C 0.82001 0.40267 0.72957 0.0
C193 C 0.82877 0.42102 0.69209 0.0
C194 C 0.83911 0.44883 0.70122 0.0
C195 C 0.84164 0.4582 0.74683 0.0
H196 H 0.47575 0.84897 0.91555 0.0
H197 H 0.39427 0.81763 0.86294 0.0
H198 H 0.45899 0.84497 0.99464 0.0
H199 H 0.37739 0.81349 0.94247 0.0
H200 H 0.37041 0.85102 0.08339 0.0
H201 H 0.38243 0.84654 0.00389 0.0
H202 H 0.43008 0.81185 0.05469 0.0
H203 H 0.41815 0.81648 0.13441 0.0
C204 C 0.45418 0.8409 0.92093 0.0
C205 C 0.43634 0.83372 0.883 0.0
C206 C 0.44454 0.83845 0.96631 0.0
C207 C 0.41686 0.82895 0.97487 0.0
C208 C 0.39887 0.8211 0.93696 0.0
C209 C 0.4085 0.82333 0.89147 0.0
C210 C 0.38318 0.84212 0.07758 0.0
C211 C 0.39347 0.83425 0.11518 0.0
C212 C 0.38993 0.83941 0.03198 0.0
C213 C 0.4073 0.82895 0.02296 0.0
C214 C 0.41688 0.82025 0.06054 0.0
C215 C 0.40994 0.82278 0.10617 0.0
H216 H 0.57915 0.3927 0.19849 0.0
H217 H 0.62896 0.47475 0.24931 0.0
H218 H 0.56711 0.37633 0.27838 0.0
H219 H 0.6169 0.45847 0.32884 0.0
H220 H 0.60505 0.41807 0.46959 0.0
H221 H 0.62146 0.4299 0.38968 0.0
H222 H 0.53916 0.38177 0.33937 0.0
H223 H 0.52284 0.36991 0.41892 0.0
C224 C 0.58778 0.40717 0.22671 0.0
C225 C 0.60488 0.43502 0.21763 0.0
C226 C 0.58079 0.39783 0.27241 0.0
C227 C 0.59099 0.41612 0.30994 0.0
C228 C 0.60892 0.44381 0.3008 0.0
C229 C 0.61569 0.45316 0.25518 0.0
C230 C 0.59055 0.40976 0.4414 0.0
C231 C 0.56265 0.39318 0.45053 0.0
C232 C 0.59991 0.41664 0.39568 0.0
C233 C 0.5816 0.40683 0.35819 0.0
C234 C 0.55383 0.38943 0.36738 0.0
C235 C 0.54446 0.38278 0.41301 0.0
H236 H 0.15614 0.63161 0.5869 0.0
H237 H 0.18797 0.58173 0.53449 0.0
H238 H 0.16052 0.61921 0.66608 0.0
H239 H 0.19247 0.56935 0.61408 0.0
H240 H 0.18914 0.60708 0.80595 0.0
H241 H 0.19374 0.62362 0.72619 0.0
H242 H 0.15946 0.54128 0.67543 0.0
H243 H 0.155 0.52481 0.75493 0.0
C244 C 0.16441 0.61826 0.59234 0.0
C245 C 0.17159 0.60753 0.55445 0.0
C246 C 0.16708 0.61129 0.63777 0.0
C247 C 0.17679 0.59325 0.64639 0.0
C248 C 0.1847 0.58311 0.60852 0.0
C249 C 0.18226 0.5903 0.563 0.0
C250 C 0.18294 0.59258 0.7777 0.0
C251 C 0.17157 0.56464 0.78671 0.0
C252 C 0.18544 0.60203 0.73206 0.0
C253 C 0.17685 0.58375 0.69449 0.0
C254 C 0.16652 0.55593 0.70352 0.0
C255 C 0.16381 0.54647 0.74911 0.0
H256 H 0.63311 0.1585 0.08886 0.0
H257 H 0.58112 0.18802 0.14033 0.0
H258 H 0.62091 0.1627 0.00941 0.0
H259 H 0.56894 0.19234 0.06058 0.0
H260 H 0.52507 0.15366 0.92033 0.0
H261 H 0.54171 0.15865 0.9997 0.0
H262 H 0.62413 0.19538 0.94873 0.0
H263 H 0.6074 0.19025 0.86896 0.0
C264 C 0.61936 0.16625 0.08316 0.0
C265 C 0.60795 0.17278 0.12085 0.0
C266 C 0.61249 0.16882 0.03759 0.0
C267 C 0.59387 0.17775 0.02868 0.0
C268 C 0.58315 0.18515 0.06637 0.0
C269 C 0.59022 0.18281 0.11199 0.0
C270 C 0.54678 0.1631 0.92604 0.0
C271 C 0.56492 0.17142 0.88838 0.0
C272 C 0.55633 0.16612 0.97158 0.0
C273 C 0.58423 0.17736 0.98053 0.0
C274 C 0.60248 0.18643 0.94291 0.0
C275 C 0.59293 0.1836 0.89728 0.0
H276 H 0.30637 0.47098 0.00379 0.0
H277 H 0.28897 0.51018 0.11638 0.0
H278 H 0.26406 0.46163 0.96541 0.0
H279 H 0.24638 0.50012 0.07872 0.0
H280 H 0.16662 0.47148 0.00531 0.0
H281 H 0.19888 0.46096 0.0436 0.0
H282 H 0.25683 0.50209 0.93372 0.0
H283 H 0.22505 0.51333 0.89636 0.0
C284 C 0.29295 0.47655 0.02127 0.0
C285 C 0.30093 0.49139 0.06296 0.0
C286 C 0.26885 0.47132 0.99919 0.0
C287 C 0.25205 0.4802 0.0191 0.0
C288 C 0.25884 0.49281 0.06285 0.0
C289 C 0.28322 0.49863 0.08435 0.0
C290 C 0.18588 0.4774 0.98857 0.0
C291 C 0.19344 0.49324 0.94796 0.0
C292 C 0.20433 0.47151 0.01059 0.0
C293 C 0.23029 0.48074 0.99158 0.0
C294 C 0.23685 0.49449 0.94884 0.0
C295 C 0.21872 0.50098 0.92752 0.0
H296 H 0.83729 0.3065 0.33442 0.0
H297 H 0.7808 0.29021 0.44659 0.0
H298 H 0.80416 0.26393 0.29667 0.0
H299 H 0.74814 0.24736 0.4097 0.0
H300 H 0.71305 0.2253 0.22847 0.0
H301 H 0.75633 0.25701 0.26504 0.0
H302 H 0.73969 0.19935 0.37542 0.0
H303 H 0.69665 0.16713 0.33788 0.0
C304 C 0.8183 0.29325 0.35198 0.0
C305 C 0.81151 0.30159 0.39333 0.0
C306 C 0.79934 0.26901 0.33027 0.0
C307 C 0.77365 0.25245 0.3503 0.0
C308 C 0.76791 0.25962 0.39377 0.0
C309 C 0.78655 0.28414 0.41483 0.0
C310 C 0.71916 0.21899 0.25954 0.0
C311 C 0.7016 0.19383 0.28036 0.0
C312 C 0.74393 0.23709 0.28041 0.0
C313 C 0.75126 0.2306 0.32307 0.0
C314 C 0.7345 0.20473 0.34243 0.0
C315 C 0.71 0.1863 0.32085 0.0
H316 H 0.48791 0.77798 0.77874 0.0
H317 H 0.53043 0.83466 0.6678 0.0
H318 H 0.49855 0.7452 0.74359 0.0
H319 H 0.54037 0.8014 0.63176 0.0
H320 H 0.52865 0.6937 0.67699 0.0
H321 H 0.5385 0.73672 0.71349 0.0
H322 H 0.50079 0.75367 0.59815 0.0
H323 H 0.49022 0.71039 0.5624 0.0
C324 C 0.50027 0.78372 0.74763 0.0
C325 C 0.50835 0.80879 0.72596 0.0
C326 C 0.50642 0.76501 0.72757 0.0
C327 C 0.52021 0.77079 0.68492 0.0
C328 C 0.52979 0.79655 0.66473 0.0
C329 C 0.52422 0.81557 0.68546 0.0
C330 C 0.52335 0.70709 0.65869 0.0
C331 C 0.5086 0.69875 0.61697 0.0
C332 C 0.52887 0.73159 0.67969 0.0
C333 C 0.52036 0.74842 0.65863 0.0
C334 C 0.50781 0.74119 0.61488 0.0
C335 C 0.5017 0.71642 0.59448 0.0
H336 H 0.71154 0.48863 0.11024 0.0
H337 H 0.69442 0.52885 0.99908 0.0
H338 H 0.75478 0.50005 0.07356 0.0
H339 H 0.7374 0.53953 0.96153 0.0
H340 H 0.83567 0.53143 0.00292 0.0
H341 H 0.80242 0.54079 0.04053 0.0
H342 H 0.74592 0.49974 0.92883 0.0
H343 H 0.77868 0.48962 0.89214 0.0
C344 C 0.71747 0.50068 0.07874 0.0
C345 C 0.69971 0.50786 0.05747 0.0
C346 C 0.74222 0.50728 0.05781 0.0
C347 C 0.74933 0.5206 0.01469 0.0
C348 C 0.73238 0.52934 0.99487 0.0
C349 C 0.7079 0.52333 0.01646 0.0
C350 C 0.81652 0.5253 0.98563 0.0
C351 C 0.80964 0.50977 0.94471 0.0
C352 C 0.7975 0.53054 0.00725 0.0
C353 C 0.77167 0.52097 0.98754 0.0
C354 C 0.7658 0.50759 0.94449 0.0
C355 C 0.78449 0.50175 0.92355 0.0
H356 H 0.16645 0.69727 0.3366 0.0
H357 H 0.22473 0.71477 0.44615 0.0
H358 H 0.1986 0.73989 0.29782 0.0
H359 H 0.25641 0.75766 0.40824 0.0
H360 H 0.30561 0.83807 0.33544 0.0
H361 H 0.26339 0.80528 0.37453 0.0
H362 H 0.24637 0.74771 0.26382 0.0
H363 H 0.28888 0.78002 0.22565 0.0
C364 C 0.18564 0.71078 0.35338 0.0
C365 C 0.1932 0.70277 0.39428 0.0
C366 C 0.20403 0.73504 0.33108 0.0
C367 C 0.22993 0.75198 0.35007 0.0
C368 C 0.23647 0.7451 0.39312 0.0
C369 C 0.21839 0.72056 0.41475 0.0
C370 C 0.29233 0.81878 0.31869 0.0
C371 C 0.30044 0.81148 0.2776 0.0
C372 C 0.2683 0.80003 0.34116 0.0
C373 C 0.2517 0.77403 0.32215 0.0
C374 C 0.25866 0.76772 0.27896 0.0
C375 C 0.28298 0.78616 0.25717 0.0
H376 H 0.50906 0.22231 0.77965 0.0
H377 H 0.47048 0.16435 0.66875 0.0
H378 H 0.49752 0.25363 0.74134 0.0
H379 H 0.45963 0.19612 0.62962 0.0
H380 H 0.50962 0.28646 0.55848 0.0
H381 H 0.4987 0.24364 0.59628 0.0
H382 H 0.45799 0.26089 0.70641 0.0
H383 H 0.46826 0.3035 0.66777 0.0
C384 C 0.49731 0.21593 0.74787 0.0
C385 C 0.49069 0.19099 0.72711 0.0
C386 C 0.49063 0.2338 0.726 0.0
C387 C 0.47778 0.22729 0.68246 0.0
C388 C 0.46948 0.20154 0.66323 0.0
C389 C 0.47557 0.18335 0.68573 0.0
C390 C 0.49739 0.28056 0.58976 0.0
C391 C 0.48982 0.29824 0.61027 0.0
C392 C 0.49107 0.25604 0.61134 0.0
C393 C 0.47761 0.24908 0.65435 0.0
C394 C 0.46834 0.26582 0.67322 0.0
C395 C 0.47409 0.29008 0.651 0.0
H396 H 0.47482 0.55159 0.05815 0.0
H397 H 0.42036 0.47114 0.11153 0.0
H398 H 0.51191 0.54181 0.05805 0.0
H399 H 0.45781 0.46151 0.1128 0.0
H400 H 0.52391 0.44398 0.06202 0.0
H401 H 0.48655 0.45341 0.06237 0.0
H402 H 0.54142 0.53543 0.10912 0.0
H403 H 0.57905 0.52614 0.10736 0.0
C404 C 0.4708 0.5318 0.07007 0.0
C405 C 0.44465 0.5121 0.0848 0.0
C406 C 0.49216 0.52627 0.07037 0.0
C407 C 0.48798 0.50093 0.08567 0.0
C408 C 0.46172 0.48115 0.10027 0.0
C409 C 0.44027 0.48666 0.09973 0.0
C410 C 0.52802 0.46405 0.07235 0.0
C411 C 0.55445 0.48436 0.08455 0.0
C412 C 0.50652 0.46939 0.07289 0.0
C413 C 0.51088 0.49516 0.08585 0.0
C414 C 0.53736 0.51546 0.0983 0.0
C415 C 0.55893 0.51013 0.09753 0.0
H416 H 0.95136 0.42232 0.4458 0.0
H417 H 0.92488 0.47713 0.39607 0.0
H418 H 0.99821 0.46009 0.44859 0.0
H419 H 0.97154 0.51457 0.39742 0.0
H420 H 0.05431 0.58158 0.4468 0.0
H421 H 0.0075 0.54373 0.44854 0.0
H422 H 0.0348 0.48951 0.39861 0.0
H423 H 0.08144 0.52704 0.39831 0.0
C424 C 0.95558 0.44239 0.43522 0.0
C425 C 0.93446 0.44675 0.42074 0.0
C426 C 0.98243 0.46404 0.4366 0.0
C427 C 0.98872 0.49047 0.42328 0.0
C428 C 0.96747 0.49467 0.40872 0.0
C429 C 0.9407 0.47311 0.40759 0.0
C430 C 0.05024 0.56155 0.43629 0.0
C431 C 0.07153 0.5573 0.42242 0.0
C432 C 0.02342 0.53986 0.43706 0.0
C433 C 0.01731 0.51348 0.42371 0.0
C434 C 0.03872 0.50937 0.40987 0.0
C435 C 0.06548 0.53097 0.40935 0.0
H436 H 0.55599 0.08067 0.72942 0.0
H437 H 0.47455 0.05365 0.77848 0.0
H438 H 0.5466 0.03384 0.7287 0.0
H439 H 0.46531 0.00671 0.77918 0.0
H440 H 0.44847 0.92412 0.72567 0.0
H441 H 0.45825 0.97101 0.7271 0.0
H442 H 0.53912 0.99679 0.77819 0.0
H443 H 0.52948 0.94969 0.77536 0.0
C444 C 0.5361 0.0647 0.74035 0.0
C445 C 0.51596 0.07082 0.75389 0.0
C446 C 0.53078 0.03784 0.74027 0.0
C447 C 0.50521 0.01643 0.75395 0.0
C448 C 0.48511 0.02263 0.76778 0.0
C449 C 0.4904 0.04953 0.76761 0.0
C450 C 0.46837 0.93979 0.73717 0.0
C451 C 0.48823 0.93322 0.75038 0.0
C452 C 0.47391 0.9667 0.73833 0.0
C453 C 0.49942 0.98774 0.753 0.0
C454 C 0.51935 0.98115 0.76618 0.0
C455 C 0.51382 0.95417 0.76477 0.0
H456 H 0.44839 0.52435 0.62234 0.0
H457 H 0.52813 0.57891 0.5667 0.0
H458 H 0.45789 0.48704 0.61988 0.0
H459 H 0.53746 0.54127 0.56288 0.0
H460 H 0.55502 0.47432 0.60862 0.0
H461 H 0.54593 0.51192 0.61112 0.0
H462 H 0.46336 0.45782 0.56646 0.0
H463 H 0.47233 0.41993 0.56534 0.0
C464 C 0.46797 0.52835 0.60943 0.0
C465 C 0.48755 0.55459 0.59476 0.0
C466 C 0.47333 0.50687 0.60764 0.0
C467 C 0.49837 0.51103 0.5909 0.0
C468 C 0.51806 0.53738 0.57647 0.0
C469 C 0.51272 0.55895 0.57849 0.0
C470 C 0.53491 0.47044 0.59932 0.0
C471 C 0.51435 0.44414 0.58688 0.0
C472 C 0.52975 0.49207 0.60045 0.0
C473 C 0.50393 0.48799 0.58894 0.0
C474 C 0.48338 0.46165 0.5762 0.0
C475 C 0.48853 0.43994 0.5753 0.0
H476 H 0.05328 0.47362 0.93594 0.0
H477 H 0.08145 0.55657 0.89417 0.0
H478 H 0.00653 0.46462 0.93582 0.0
H479 H 0.03483 0.5474 0.89143 0.0
H480 H 0.95112 0.53112 0.93595 0.0
H481 H 0.99792 0.54023 0.93674 0.0
H482 H 0.97028 0.45808 0.88945 0.0
H483 H 0.92361 0.44876 0.89128 0.0
C484 C 0.0494 0.48981 0.92614 0.0
C485 C 0.07098 0.51579 0.91523 0.0
C486 C 0.02257 0.48467 0.92576 0.0
C487 C 0.01669 0.50528 0.91364 0.0
C488 C 0.03843 0.53114 0.90195 0.0
C489 C 0.06522 0.53637 0.90312 0.0
C490 C 0.95517 0.5151 0.92569 0.0
C491 C 0.93375 0.48923 0.91374 0.0
C492 C 0.98202 0.52031 0.92586 0.0
C493 C 0.98809 0.49988 0.91326 0.0
C494 C 0.96652 0.47417 0.90041 0.0
C495 C 0.93971 0.46886 0.90105 0.0
H496 H 0.42072 0.95251 0.26626 0.0
H497 H 0.47501 0.92456 0.22064 0.0
H498 H 0.45857 0.99926 0.26724 0.0
H499 H 0.51253 0.97119 0.21901 0.0
H500 H 0.58031 0.05376 0.26699 0.0
H501 H 0.54236 0.0071 0.26588 0.0
H502 H 0.48856 0.03638 0.22256 0.0
H503 H 0.52621 0.08292 0.22629 0.0
C504 C 0.4407 0.95646 0.2558 0.0
C505 C 0.44495 0.93493 0.24359 0.0
C506 C 0.46244 0.98328 0.25608 0.0
C507 C 0.48884 0.98921 0.24335 0.0
C508 C 0.49277 0.96754 0.23011 0.0
C509 C 0.47117 0.94075 0.23064 0.0
C510 C 0.56035 0.05012 0.2572 0.0
C511 C 0.5562 0.07194 0.24691 0.0
C512 C 0.53855 0.02334 0.25625 0.0
C513 C 0.51218 0.01776 0.24415 0.0
C514 C 0.50831 0.03975 0.23303 0.0
C515 C 0.52998 0.06648 0.23478 0.0
H516 H 0.39822 0.5632 0.7101 0.0
H517 H 0.45905 0.64508 0.74659 0.0
H518 H 0.3838 0.55391 0.7908 0.0
H519 H 0.44345 0.63687 0.82673 0.0
H520 H 0.43718 0.60142 0.97229 0.0
H521 H 0.44683 0.61585 0.89163 0.0
H522 H 0.36332 0.55823 0.85565 0.0
H523 H 0.35468 0.54255 0.93575 0.0
C524 C 0.40786 0.57946 0.73531 0.0
C525 C 0.42982 0.60473 0.72242 0.0
C526 C 0.39956 0.57428 0.78173 0.0
C527 C 0.4126 0.59453 0.81605 0.0
C528 C 0.4334 0.62043 0.80201 0.0
C529 C 0.44218 0.6253 0.75592 0.0
C530 C 0.42088 0.59226 0.94708 0.0
C531 C 0.39531 0.57081 0.95993 0.0
C532 C 0.42629 0.60056 0.90068 0.0
C533 C 0.40597 0.58804 0.86636 0.0
C534 C 0.3798 0.56783 0.88038 0.0
C535 C 0.37468 0.55903 0.92645 0.0
H536 H 0.84669 0.37125 0.25362 0.0
H537 H 0.8146 0.42126 0.30427 0.0
H538 H 0.84057 0.38146 0.17411 0.0
H539 H 0.80822 0.43141 0.22405 0.0
H540 H 0.84798 0.47567 0.0842 0.0
H541 H 0.84152 0.45902 0.16349 0.0
H542 H 0.80795 0.37673 0.11275 0.0
H543 H 0.81465 0.39359 0.03266 0.0
C544 C 0.83795 0.38415 0.2477 0.0
C545 C 0.83144 0.39576 0.28514 0.0
C546 C 0.83419 0.38978 0.20207 0.0
C547 C 0.824 0.40731 0.19275 0.0
C548 C 0.81634 0.418 0.23022 0.0
C549 C 0.8199 0.41215 0.27606 0.0
C550 C 0.83894 0.45397 0.08987 0.0
C551 C 0.83212 0.43594 0.05224 0.0
C552 C 0.83497 0.4444 0.13539 0.0
C553 C 0.82426 0.41657 0.14444 0.0
C554 C 0.81645 0.39834 0.10679 0.0
C555 C 0.8202 0.40794 0.06103 0.0
H556 H 0.47455 0.84405 0.58437 0.0
H557 H 0.39295 0.81498 0.63468 0.0
H558 H 0.4585 0.83882 0.50478 0.0
H559 H 0.3767 0.80951 0.55441 0.0
H560 H 0.37425 0.85077 0.41516 0.0
H561 H 0.38403 0.84366 0.49432 0.0
H562 H 0.42981 0.80699 0.443 0.0
H563 H 0.42005 0.81433 0.36302 0.0
C564 C 0.45306 0.83613 0.57836 0.0
C565 C 0.43503 0.83024 0.61572 0.0
C566 C 0.44383 0.8329 0.53268 0.0
C567 C 0.41636 0.82386 0.52326 0.0
C568 C 0.39805 0.81675 0.56065 0.0
C569 C 0.40729 0.81979 0.60653 0.0
C570 C 0.38619 0.84093 0.42066 0.0
C571 C 0.39667 0.83338 0.3829 0.0
C572 C 0.39155 0.8366 0.46611 0.0
C573 C 0.40769 0.82476 0.47497 0.0
C574 C 0.41744 0.81633 0.43719 0.0
C575 C 0.41184 0.82046 0.39149 0.0
H576 H 0.60828 0.41691 0.69831 0.0
H577 H 0.52646 0.36699 0.74978 0.0
H578 H 0.6251 0.42686 0.77836 0.0
H579 H 0.54307 0.37704 0.82909 0.0
H580 H 0.58075 0.38935 0.97023 0.0
H581 H 0.57084 0.37236 0.89024 0.0
H582 H 0.61991 0.4545 0.83916 0.0
H583 H 0.62989 0.47128 0.91839 0.0
C584 C 0.59399 0.40776 0.72665 0.0
C585 C 0.56606 0.39147 0.71786 0.0
C586 C 0.60357 0.4135 0.77241 0.0
C587 C 0.58538 0.40283 0.81008 0.0
C588 C 0.55766 0.38535 0.801 0.0
C589 C 0.54811 0.37982 0.75546 0.0
C590 C 0.58971 0.40363 0.94182 0.0
C591 C 0.6058 0.43164 0.95049 0.0
C592 C 0.58401 0.39395 0.89609 0.0
C593 C 0.59453 0.41211 0.85835 0.0
C594 C 0.61174 0.43993 0.86731 0.0
C595 C 0.61723 0.44957 0.9128 0.0
H596 H 0.19111 0.61083 0.03482 0.0
H597 H 0.15631 0.52859 0.08635 0.0
H598 H 0.19828 0.62774 0.11491 0.0
H599 H 0.16326 0.54529 0.16564 0.0
H600 H 0.19084 0.58279 0.30635 0.0
H601 H 0.197 0.57254 0.22605 0.0
H602 H 0.16589 0.62361 0.17645 0.0
H603 H 0.15997 0.6339 0.25603 0.0
C604 C 0.18533 0.59646 0.06318 0.0
C605 C 0.17286 0.56841 0.0544 0.0
C606 C 0.18937 0.60608 0.10895 0.0
C607 C 0.1813 0.58782 0.1466 0.0
C608 C 0.17002 0.55992 0.13754 0.0
C609 C 0.16577 0.55034 0.09202 0.0
C610 C 0.18578 0.59213 0.2782 0.0
C611 C 0.17462 0.60884 0.28738 0.0
C612 C 0.18922 0.58623 0.23231 0.0
C613 C 0.18182 0.59719 0.19492 0.0
C614 C 0.17206 0.61507 0.20436 0.0
C615 C 0.16842 0.62074 0.25003 0.0
H616 H 0.61045 0.18758 0.64159 0.0
H617 H 0.53068 0.16614 0.5907 0.0
H618 H 0.6271 0.19364 0.56147 0.0
H619 H 0.54711 0.17199 0.51124 0.0
H620 H 0.5866 0.19573 0.37035 0.0
H621 H 0.57784 0.20338 0.45079 0.0
H622 H 0.61706 0.15954 0.49973 0.0
H623 H 0.62589 0.15214 0.42016 0.0
C624 C 0.59665 0.18467 0.61337 0.0
C625 C 0.56923 0.17605 0.62225 0.0
C626 C 0.60611 0.18802 0.56757 0.0
C627 C 0.58835 0.18312 0.53003 0.0
C628 C 0.56137 0.17616 0.53928 0.0
C629 C 0.55189 0.17255 0.58485 0.0
C630 C 0.59359 0.18806 0.39841 0.0
C631 C 0.60662 0.17307 0.389 0.0
C632 C 0.58858 0.1924 0.44437 0.0
C633 C 0.59678 0.18206 0.48161 0.0
C634 C 0.61082 0.16811 0.47197 0.0
C635 C 0.61561 0.1636 0.42626 0.0
loop_
_geom_bond_atom_site_label_1
_geom_bond_atom_site_label_2
_geom_bond_distance
_geom_bond_site_symmetry_2
_ccdc_geom_bond_type
In0 O1 2.294 . S
In0 O2 2.326 . S
In0 O6 2.266 . S
In0 O7 2.326 1_554 S
In0 O8 2.266 . S
In0 O9 2.326 . S
In0 O11 2.294 . S
In0 O12 2.326 . S
O1 In0 2.294 . S
O1 C10 1.240 . S
O2 In0 2.326 . S
O2 C10 1.252 . S
C3 O6 1.252 1_556 S
C3 O7 1.260 . S
C4 O11 1.240 . S
C4 O12 1.252 . S
C5 O8 1.252 . S
C5 O9 1.260 . S
O6 In0 2.266 . S
O6 C3 1.252 1_554 S
O7 In0 2.326 1_556 S
O7 C3 1.260 . S
O8 In0 2.266 . S
O8 C5 1.252 . S
O9 In0 2.326 . S
O9 C5 1.260 . S
C10 O1 1.240 . S
C10 O2 1.252 . S
O11 In0 2.294 . S
O11 C4 1.240 . S
O12 In0 2.326 . S
O12 C4 1.252 . S
In13 O14 2.294 . S
In13 O15 2.326 . S
In13 O19 2.266 . S
In13 O20 2.326 . S
In13 O21 2.266 . S
In13 O22 2.326 . S
In13 O24 2.294 . S
In13 O25 2.326 . S
O14 In13 2.294 . S
O14 C23 1.240 . S
O15 In13 2.326 . S
O15 C23 1.252 . S
C16 O19 1.252 . S
C16 O20 1.260 . S
C17 O24 1.240 . S
C17 O25 1.252 . S
C18 O21 1.252 . S
C18 O22 1.260 . S
O19 In13 2.266 . S
O19 C16 1.252 . S
O20 In13 2.326 . S
O20 C16 1.260 . S
O21 In13 2.266 . S
O21 C18 1.252 . S
O22 In13 2.326 . S
O22 C18 1.260 . S
C23 O14 1.240 . S
C23 O15 1.252 . S
O24 In13 2.294 . S
O24 C17 1.240 . S
O25 In13 2.326 . S
O25 C17 1.252 . S
In26 O27 2.294 . S
In26 O28 2.326 . S
In26 O32 2.266 . S
In26 O33 2.326 . S
In26 O34 2.266 . S
In26 O35 2.326 . S
In26 O37 2.294 . S
In26 O38 2.326 . S
O27 In26 2.294 . S
O27 C36 1.240 . S
O28 In26 2.326 . S
O28 C36 1.252 . S
C29 O32 1.252 . S
C29 O33 1.260 . S
C30 O37 1.240 . S
C30 O38 1.252 . S
C31 O34 1.252 . S
C31 O35 1.260 . S
O32 In26 2.266 . S
O32 C29 1.252 . S
O33 In26 2.326 . S
O33 C29 1.260 . S
O34 In26 2.266 . S
O34 C31 1.252 . S
O35 In26 2.326 . S
O35 C31 1.260 . S
C36 O27 1.240 . S
C36 O28 1.252 . S
O37 In26 2.294 . S
O37 C30 1.240 . S
O38 In26 2.326 . S
O38 C30 1.252 . S
In39 O40 2.294 . S
In39 O41 2.326 . S
In39 O45 2.266 . S
In39 O46 2.326 1_554 S
In39 O47 2.266 . S
In39 O48 2.326 . S
In39 O50 2.294 . S
In39 O51 2.326 . S
O40 In39 2.294 . S
O40 C49 1.240 . S
O41 In39 2.326 . S
O41 C49 1.252 . S
C42 O45 1.252 1_556 S
C42 O46 1.260 . S
C43 O50 1.240 . S
C43 O51 1.252 . S
C44 O47 1.252 . S
C44 O48 1.260 . S
O45 In39 2.266 . S
O45 C42 1.252 1_554 S
O46 In39 2.326 1_556 S
O46 C42 1.260 . S
O47 In39 2.266 . S
O47 C44 1.252 . S
O48 In39 2.326 . S
O48 C44 1.260 . S
C49 O40 1.240 . S
C49 O41 1.252 . S
O50 In39 2.294 . S
O50 C43 1.240 . S
O51 In39 2.326 . S
O51 C43 1.252 . S
In52 O53 2.294 . S
In52 O54 2.326 . S
In52 O58 2.266 . S
In52 O59 2.326 . S
In52 O60 2.266 . S
In52 O61 2.326 . S
In52 O63 2.294 . S
In52 O64 2.326 . S
O53 In52 2.294 . S
O53 C62 1.240 . S
O54 In52 2.326 . S
O54 C62 1.252 . S
C55 O58 1.252 . S
C55 O59 1.260 . S
C56 O63 1.240 . S
C56 O64 1.252 . S
C57 O60 1.252 . S
C57 O61 1.260 . S
O58 In52 2.266 . S
O58 C55 1.252 . S
O59 In52 2.326 . S
O59 C55 1.260 . S
O60 In52 2.266 . S
O60 C57 1.252 . S
O61 In52 2.326 . S
O61 C57 1.260 . S
C62 O53 1.240 . S
C62 O54 1.252 . S
O63 In52 2.294 . S
O63 C56 1.240 . S
O64 In52 2.326 . S
O64 C56 1.252 . S
In65 O66 2.294 . S
In65 O67 2.326 . S
In65 O71 2.266 . S
In65 O72 2.326 . S
In65 O73 2.266 . S
In65 O74 2.326 . S
In65 O76 2.294 . S
In65 O77 2.326 . S
O66 In65 2.294 . S
O66 C75 1.240 . S
O67 In65 2.326 . S
O67 C75 1.252 . S
C68 O71 1.252 . S
C68 O72 1.260 . S
C69 O76 1.240 . S
C69 O77 1.252 . S
C70 O73 1.252 . S
C70 O74 1.260 . S
O71 In65 2.266 . S
O71 C68 1.252 . S
O72 In65 2.326 . S
O72 C68 1.260 . S
O73 In65 2.266 . S
O73 C70 1.252 . S
O74 In65 2.326 . S
O74 C70 1.260 . S
C75 O66 1.240 . S
C75 O67 1.252 . S
O76 In65 2.294 . S
O76 C69 1.240 . S
O77 In65 2.326 . S
O77 C69 1.252 . S
In78 O79 2.294 . S
In78 O80 2.326 . S
In78 O84 2.266 . S
In78 O85 2.326 . S
In78 O86 2.266 . S
In78 O87 2.326 . S
In78 O89 2.294 . S
In78 O90 2.326 . S
O79 In78 2.294 . S
O79 C88 1.240 . S
O80 In78 2.326 . S
O80 C88 1.252 . S
C81 O84 1.252 . S
C81 O85 1.260 . S
C82 O89 1.240 . S
C82 O90 1.252 . S
C83 O86 1.252 . S
C83 O87 1.260 . S
O84 In78 2.266 . S
O84 C81 1.252 . S
O85 In78 2.326 . S
O85 C81 1.260 . S
O86 In78 2.266 . S
O86 C83 1.252 . S
O87 In78 2.326 . S
O87 C83 1.260 . S
C88 O79 1.240 . S
C88 O80 1.252 . S
O89 In78 2.294 . S
O89 C82 1.240 . S
O90 In78 2.326 . S
O90 C82 1.252 . S
In91 O92 2.294 . S
In91 O93 2.326 . S
In91 O97 2.266 . S
In91 O98 2.326 1_556 S
In91 O99 2.266 . S
In91 O100 2.326 . S
In91 O102 2.294 . S
In91 O103 2.326 . S
O92 In91 2.294 . S
O92 C101 1.240 . S
O93 In91 2.326 . S
O93 C101 1.252 . S
C94 O97 1.252 1_554 S
C94 O98 1.260 . S
C95 O102 1.240 . S
C95 O103 1.252 . S
C96 O99 1.252 . S
C96 O100 1.260 . S
O97 In91 2.266 . S
O97 C94 1.252 1_556 S
O98 In91 2.326 1_554 S
O98 C94 1.260 . S
O99 In91 2.266 . S
O99 C96 1.252 . S
O100 In91 2.326 . S
O100 C96 1.260 . S
C101 O92 1.240 . S
C101 O93 1.252 . S
O102 In91 2.294 . S
O102 C95 1.240 . S
O103 In91 2.326 . S
O103 C95 1.252 . S
In104 O105 2.294 . S
In104 O106 2.326 . S
In104 O110 2.266 . S
In104 O111 2.326 . S
In104 O112 2.266 . S
In104 O113 2.326 . S
In104 O115 2.294 . S
In104 O116 2.326 . S
O105 In104 2.294 . S
O105 C114 1.240 . S
O106 In104 2.326 . S
O106 C114 1.252 . S
C107 O110 1.252 . S
C107 O111 1.260 . S
C108 O115 1.240 . S
C108 O116 1.252 . S
C109 O112 1.252 . S
C109 O113 1.260 . S
O110 In104 2.266 . S
O110 C107 1.252 . S
O111 In104 2.326 . S
O111 C107 1.260 . S
O112 In104 2.266 . S
O112 C109 1.252 . S
O113 In104 2.326 . S
O113 C109 1.260 . S
C114 O105 1.240 . S
C114 O106 1.252 . S
O115 In104 2.294 . S
O115 C108 1.240 . S
O116 In104 2.326 . S
O116 C108 1.252 . S
In117 O118 2.294 . S
In117 O119 2.326 . S
In117 O123 2.266 . S
In117 O124 2.326 . S
In117 O125 2.266 . S
In117 O126 2.326 . S
In117 O128 2.294 . S
In117 O129 2.326 . S
O118 In117 2.294 . S
O118 C127 1.240 . S
O119 In117 2.326 . S
O119 C127 1.252 . S
C120 O123 1.252 . S
C120 O124 1.260 . S
C121 O128 1.240 . S
C121 O129 1.252 . S
C122 O125 1.252 . S
C122 O126 1.260 . S
O123 In117 2.266 . S
O123 C120 1.252 . S
O124 In117 2.326 . S
O124 C120 1.260 . S
O125 In117 2.266 . S
O125 C122 1.252 . S
O126 In117 2.326 . S
O126 C122 1.260 . S
C127 O118 1.240 . S
C127 O119 1.252 . S
O128 In117 2.294 . S
O128 C121 1.240 . S
O129 In117 2.326 . S
O129 C121 1.252 . S
In130 O131 2.294 . S
In130 O132 2.326 . S
In130 O136 2.266 . S
In130 O137 2.326 . S
In130 O138 2.266 . S
In130 O139 2.326 1_556 S
In130 O141 2.294 . S
In130 O142 2.326 . S
O131 In130 2.294 . S
O131 C140 1.240 . S
O132 In130 2.326 . S
O132 C140 1.252 . S
C133 O136 1.252 . S
C133 O137 1.260 . S
C134 O141 1.240 . S
C134 O142 1.252 . S
C135 O138 1.252 1_554 S
C135 O139 1.260 . S
O136 In130 2.266 . S
O136 C133 1.252 . S
O137 In130 2.326 . S
O137 C133 1.260 . S
O138 In130 2.266 . S
O138 C135 1.252 1_556 S
O139 In130 2.326 1_554 S
O139 C135 1.260 . S
C140 O131 1.240 . S
C140 O132 1.252 . S
O141 In130 2.294 . S
O141 C134 1.240 . S
O142 In130 2.326 . S
O142 C134 1.252 . S
In143 O144 2.294 . S
In143 O145 2.326 . S
In143 O149 2.266 . S
In143 O150 2.326 . S
In143 O151 2.266 . S
In143 O152 2.326 . S
In143 O154 2.294 . S
In143 O155 2.326 . S
O144 In143 2.294 . S
O144 C153 1.240 . S
O145 In143 2.326 . S
O145 C153 1.252 . S
C146 O149 1.252 . S
C146 O150 1.260 . S
C147 O154 1.240 . S
C147 O155 1.252 . S
C148 O151 1.252 . S
C148 O152 1.260 . S
O149 In143 2.266 . S
O149 C146 1.252 . S
O150 In143 2.326 . S
O150 C146 1.260 . S
O151 In143 2.266 . S
O151 C148 1.252 . S
O152 In143 2.326 . S
O152 C148 1.260 . S
C153 O144 1.240 . S
C153 O145 1.252 . S
O154 In143 2.294 . S
O154 C147 1.240 . S
O155 In143 2.326 . S
O155 C147 1.252 . S
H156 C164 0.950 . S
H157 C169 0.950 . S
H158 C166 0.950 . S
H159 C168 0.950 . S
H160 C170 0.950 . S
H161 C172 0.950 . S
H162 C174 0.950 . S
H163 C175 0.950 . S
C164 H156 0.950 . S
C164 C165 1.386 . S
C164 C166 1.391 . S
C165 C164 1.386 . S
C165 C169 1.393 . S
C166 H158 0.950 . S
C166 C164 1.391 . S
C166 C167 1.400 . S
C167 C166 1.400 . S
C167 C168 1.398 . S
C167 C173 1.491 . S
C168 H159 0.950 . S
C168 C167 1.398 . S
C168 C169 1.391 . S
C169 H157 0.950 . S
C169 C165 1.393 . S
C169 C168 1.391 . S
C170 H160 0.950 . S
C170 C171 1.386 . S
C170 C172 1.391 . S
C171 C170 1.386 . S
C171 C175 1.393 . S
C172 H161 0.950 . S
C172 C170 1.391 . S
C172 C173 1.400 . S
C173 C167 1.491 . S
C173 C172 1.400 . S
C173 C174 1.398 . S
C174 H162 0.950 . S
C174 C173 1.398 . S
C174 C175 1.391 . S
C175 H163 0.950 . S
C175 C171 1.393 . S
C175 C174 1.391 . S
H176 C184 0.950 . S
H177 C189 0.950 . S
H178 C186 0.950 . S
H179 C188 0.950 . S
H180 C190 0.950 . S
H181 C192 0.950 . S
H182 C194 0.950 . S
H183 C195 0.950 . S
C184 H176 0.950 . S
C184 C185 1.386 . S
C184 C186 1.391 . S
C185 C184 1.386 . S
C185 C189 1.393 . S
C186 H178 0.950 . S
C186 C184 1.391 . S
C186 C187 1.400 . S
C187 C186 1.400 . S
C187 C188 1.398 . S
C187 C193 1.491 . S
C188 H179 0.950 . S
C188 C187 1.398 . S
C188 C189 1.391 . S
C189 H177 0.950 . S
C189 C185 1.393 . S
C189 C188 1.391 . S
C190 H180 0.950 . S
C190 C191 1.386 . S
C190 C192 1.391 . S
C191 C190 1.386 . S
C191 C195 1.393 . S
C192 H181 0.950 . S
C192 C190 1.391 . S
C192 C193 1.400 . S
C193 C187 1.491 . S
C193 C192 1.400 . S
C193 C194 1.398 . S
C194 H182 0.950 . S
C194 C193 1.398 . S
C194 C195 1.391 . S
C195 H183 0.950 . S
C195 C191 1.393 . S
C195 C194 1.391 . S
H196 C204 0.950 . S
H197 C209 0.950 . S
H198 C206 0.950 . S
H199 C208 0.950 . S
H200 C210 0.950 . S
H201 C212 0.950 . S
H202 C214 0.950 . S
H203 C215 0.950 . S
C204 H196 0.950 . S
C204 C205 1.386 . S
C204 C206 1.391 . S
C205 C204 1.386 . S
C205 C209 1.393 . S
C206 H198 0.950 . S
C206 C204 1.391 . S
C206 C207 1.400 . S
C207 C206 1.400 . S
C207 C208 1.398 . S
C207 C213 1.491 1_556 S
C208 H199 0.950 . S
C208 C207 1.398 . S
C208 C209 1.391 . S
C209 H197 0.950 . S
C209 C205 1.393 . S
C209 C208 1.391 . S
C210 H200 0.950 . S
C210 C211 1.386 . S
C210 C212 1.391 . S
C211 C210 1.386 . S
C211 C215 1.393 . S
C212 H201 0.950 . S
C212 C210 1.391 . S
C212 C213 1.400 . S
C213 C207 1.491 1_554 S
C213 C212 1.400 . S
C213 C214 1.398 . S
C214 H202 0.950 . S
C214 C213 1.398 . S
C214 C215 1.391 . S
C215 H203 0.950 . S
C215 C211 1.393 . S
C215 C214 1.391 . S
H216 C224 0.950 . S
H217 C229 0.950 . S
H218 C226 0.950 . S
H219 C228 0.950 . S
H220 C230 0.950 . S
H221 C232 0.950 . S
H222 C234 0.950 . S
H223 C235 0.950 . S
C224 H216 0.950 . S
C224 C225 1.386 . S
C224 C226 1.391 . S
C225 C224 1.386 . S
C225 C229 1.393 . S
C226 H218 0.950 . S
C226 C224 1.391 . S
C226 C227 1.400 . S
C227 C226 1.400 . S
C227 C228 1.398 . S
C227 C233 1.491 . S
C228 H219 0.950 . S
C228 C227 1.398 . S
C228 C229 1.391 . S
C229 H217 0.950 . S
C229 C225 1.393 . S
C229 C228 1.391 . S
C230 H220 0.950 . S
C230 C231 1.386 . S
C230 C232 1.391 . S
C231 C230 1.386 . S
C231 C235 1.393 . S
C232 H221 0.950 . S
C232 C230 1.391 . S
C232 C233 1.400 . S
C233 C227 1.491 . S
C233 C232 1.400 . S
C233 C234 1.398 . S
C234 H222 0.950 . S
C234 C233 1.398 . S
C234 C235 1.391 . S
C235 H223 0.950 . S
C235 C231 1.393 . S
C235 C234 1.391 . S
H236 C244 0.950 . S
H237 C249 0.950 . S
H238 C246 0.950 . S
H239 C248 0.950 . S
H240 C250 0.950 . S
H241 C252 0.950 . S
H242 C254 0.950 . S
H243 C255 0.950 . S
C244 H236 0.950 . S
C244 C245 1.386 . S
C244 C246 1.391 . S
C245 C244 1.386 . S
C245 C249 1.393 . S
C246 H238 0.950 . S
C246 C244 1.391 . S
C246 C247 1.400 . S
C247 C246 1.400 . S
C247 C248 1.398 . S
C247 C253 1.491 . S
C248 H239 0.950 . S
C248 C247 1.398 . S
C248 C249 1.391 . S
C249 H237 0.950 . S
C249 C245 1.393 . S
C249 C248 1.391 . S
C250 H240 0.950 . S
C250 C251 1.386 . S
C250 C252 1.391 . S
C251 C250 1.386 . S
C251 C255 1.393 . S
C252 H241 0.950 . S
C252 C250 1.391 . S
C252 C253 1.400 . S
C253 C247 1.491 . S
C253 C252 1.400 . S
C253 C254 1.398 . S
C254 H242 0.950 . S
C254 C253 1.398 . S
C254 C255 1.391 . S
C255 H243 0.950 . S
C255 C251 1.393 . S
C255 C254 1.391 . S
H256 C264 0.950 . S
H257 C269 0.950 . S
H258 C266 0.950 . S
H259 C268 0.950 . S
H260 C270 0.950 . S
H261 C272 0.950 . S
H262 C274 0.950 . S
H263 C275 0.950 . S
C264 H256 0.950 . S
C264 C265 1.386 . S
C264 C266 1.391 . S
C265 C264 1.386 . S
C265 C269 1.393 . S
C266 H258 0.950 . S
C266 C264 1.391 . S
C266 C267 1.400 . S
C267 C266 1.400 . S
C267 C268 1.398 . S
C267 C273 1.491 1_554 S
C268 H259 0.950 . S
C268 C267 1.398 . S
C268 C269 1.391 . S
C269 H257 0.950 . S
C269 C265 1.393 . S
C269 C268 1.391 . S
C270 H260 0.950 . S
C270 C271 1.386 . S
C270 C272 1.391 . S
C271 C270 1.386 . S
C271 C275 1.393 . S
C272 H261 0.950 . S
C272 C270 1.391 . S
C272 C273 1.400 . S
C273 C267 1.491 1_556 S
C273 C272 1.400 . S
C273 C274 1.398 . S
C274 H262 0.950 . S
C274 C273 1.398 . S
C274 C275 1.391 . S
C275 H263 0.950 . S
C275 C271 1.393 . S
C275 C274 1.391 . S
H276 C284 0.950 1_556 S
H277 C289 0.950 . S
H278 C286 0.950 . S
H279 C288 0.950 . S
H280 C290 0.950 1_554 S
H281 C292 0.950 . S
H282 C294 0.950 . S
H283 C295 0.950 . S
C284 H276 0.950 1_554 S
C284 C285 1.386 . S
C284 C286 1.391 1_554 S
C285 C284 1.386 . S
C285 C289 1.393 . S
C286 H278 0.950 . S
C286 C284 1.391 1_556 S
C286 C287 1.400 1_556 S
C287 C286 1.400 1_554 S
C287 C288 1.398 . S
C287 C293 1.491 1_554 S
C288 H279 0.950 . S
C288 C287 1.398 . S
C288 C289 1.391 . S
C289 H277 0.950 . S
C289 C285 1.393 . S
C289 C288 1.391 . S
C290 H280 0.950 1_556 S
C290 C291 1.386 . S
C290 C292 1.391 1_556 S
C291 C290 1.386 . S
C291 C295 1.393 . S
C292 H281 0.950 . S
C292 C290 1.391 1_554 S
C292 C293 1.400 1_554 S
C293 C287 1.491 1_556 S
C293 C292 1.400 1_556 S
C293 C294 1.398 . S
C294 H282 0.950 . S
C294 C293 1.398 . S
C294 C295 1.391 . S
C295 H283 0.950 . S
C295 C291 1.393 . S
C295 C294 1.391 . S
H296 C304 0.950 . S
H297 C309 0.950 . S
H298 C306 0.950 . S
H299 C308 0.950 . S
H300 C310 0.950 . S
H301 C312 0.950 . S
H302 C314 0.950 . S
H303 C315 0.950 . S
C304 H296 0.950 . S
C304 C305 1.386 . S
C304 C306 1.391 . S
C305 C304 1.386 . S
C305 C309 1.393 . S
C306 H298 0.950 . S
C306 C304 1.391 . S
C306 C307 1.400 . S
C307 C306 1.400 . S
C307 C308 1.398 . S
C307 C313 1.491 . S
C308 H299 0.950 . S
C308 C307 1.398 . S
C308 C309 1.391 . S
C309 H297 0.950 . S
C309 C305 1.393 . S
C309 C308 1.391 . S
C310 H300 0.950 . S
C310 C311 1.386 . S
C310 C312 1.391 . S
C311 C310 1.386 . S
C311 C315 1.393 . S
C312 H301 0.950 . S
C312 C310 1.391 . S
C312 C313 1.400 . S
C313 C307 1.491 . S
C313 C312 1.400 . S
C313 C314 1.398 . S
C314 H302 0.950 . S
C314 C313 1.398 . S
C314 C315 1.391 . S
C315 H303 0.950 . S
C315 C311 1.393 . S
C315 C314 1.391 . S
H316 C324 0.950 . S
H317 C329 0.950 . S
H318 C326 0.950 . S
H319 C328 0.950 . S
H320 C330 0.950 . S
H321 C332 0.950 . S
H322 C334 0.950 . S
H323 C335 0.950 . S
C324 H316 0.950 . S
C324 C325 1.386 . S
C324 C326 1.391 . S
C325 C324 1.386 . S
C325 C329 1.393 . S
C326 H318 0.950 . S
C326 C324 1.391 . S
C326 C327 1.400 . S
C327 C326 1.400 . S
C327 C328 1.398 . S
C327 C333 1.491 . S
C328 H319 0.950 . S
C328 C327 1.398 . S
C328 C329 1.391 . S
C329 H317 0.950 . S
C329 C325 1.393 . S
C329 C328 1.391 . S
C330 H320 0.950 . S
C330 C331 1.386 . S
C330 C332 1.391 . S
C331 C330 1.386 . S
C331 C335 1.393 . S
C332 H321 0.950 . S
C332 C330 1.391 . S
C332 C333 1.400 . S
C333 C327 1.491 . S
C333 C332 1.400 . S
C333 C334 1.398 . S
C334 H322 0.950 . S
C334 C333 1.398 . S
C334 C335 1.391 . S
C335 H323 0.950 . S
C335 C331 1.393 . S
C335 C334 1.391 . S
H336 C344 0.950 . S
H337 C349 0.950 . S
H338 C346 0.950 1_556 S
H339 C348 0.950 . S
H340 C350 0.950 . S
H341 C352 0.950 1_554 S
H342 C354 0.950 . S
H343 C355 0.950 . S
C344 H336 0.950 . S
C344 C345 1.386 . S
C344 C346 1.391 . S
C345 C344 1.386 . S
C345 C349 1.393 . S
C346 H338 0.950 1_554 S
C346 C344 1.391 . S
C346 C347 1.400 . S
C347 C346 1.400 . S
C347 C348 1.398 . S
C347 C353 1.491 1_554 S
C348 H339 0.950 . S
C348 C347 1.398 . S
C348 C349 1.391 . S
C349 H337 0.950 . S
C349 C345 1.393 . S
C349 C348 1.391 . S
C350 H340 0.950 . S
C350 C351 1.386 . S
C350 C352 1.391 . S
C351 C350 1.386 . S
C351 C355 1.393 . S
C352 H341 0.950 1_556 S
C352 C350 1.391 . S
C352 C353 1.400 . S
C353 C347 1.491 1_556 S
C353 C352 1.400 . S
C353 C354 1.398 . S
C354 H342 0.950 . S
C354 C353 1.398 . S
C354 C355 1.391 . S
C355 H343 0.950 . S
C355 C351 1.393 . S
C355 C354 1.391 . S
H356 C364 0.950 . S
H357 C369 0.950 . S
H358 C366 0.950 . S
H359 C368 0.950 . S
H360 C370 0.950 . S
H361 C372 0.950 . S
H362 C374 0.950 . S
H363 C375 0.950 . S
C364 H356 0.950 . S
C364 C365 1.386 . S
C364 C366 1.391 . S
C365 C364 1.386 . S
C365 C369 1.393 . S
C366 H358 0.950 . S
C366 C364 1.391 . S
C366 C367 1.400 . S
C367 C366 1.400 . S
C367 C368 1.398 . S
C367 C373 1.491 . S
C368 H359 0.950 . S
C368 C367 1.398 . S
C368 C369 1.391 . S
C369 H357 0.950 . S
C369 C365 1.393 . S
C369 C368 1.391 . S
C370 H360 0.950 . S
C370 C371 1.386 . S
C370 C372 1.391 . S
C371 C370 1.386 . S
C371 C375 1.393 . S
C372 H361 0.950 . S
C372 C370 1.391 . S
C372 C373 1.400 . S
C373 C367 1.491 . S
C373 C372 1.400 . S
C373 C374 1.398 . S
C374 H362 0.950 . S
C374 C373 1.398 . S
C374 C375 1.391 . S
C375 H363 0.950 . S
C375 C371 1.393 . S
C375 C374 1.391 . S
H376 C384 0.950 . S
H377 C389 0.950 . S
H378 C386 0.950 . S
H379 C388 0.950 . S
H380 C390 0.950 . S
H381 C392 0.950 . S
H382 C394 0.950 . S
H383 C395 0.950 . S
C384 H376 0.950 . S
C384 C385 1.386 . S
C384 C386 1.391 . S
C385 C384 1.386 . S
C385 C389 1.393 . S
C386 H378 0.950 . S
C386 C384 1.391 . S
C386 C387 1.400 . S
C387 C386 1.400 . S
C387 C388 1.398 . S
C387 C393 1.491 . S
C388 H379 0.950 . S
C388 C387 1.398 . S
C388 C389 1.391 . S
C389 H377 0.950 . S
C389 C385 1.393 . S
C389 C388 1.391 . S
C390 H380 0.950 . S
C390 C391 1.386 . S
C390 C392 1.391 . S
C391 C390 1.386 . S
C391 C395 1.393 . S
C392 H381 0.950 . S
C392 C390 1.391 . S
C392 C393 1.400 . S
C393 C387 1.491 . S
C393 C392 1.400 . S
C393 C394 1.398 . S
C394 H382 0.950 . S
C394 C393 1.398 . S
C394 C395 1.391 . S
C395 H383 0.950 . S
C395 C391 1.393 . S
C395 C394 1.391 . S
H396 C404 0.950 . S
H397 C409 0.950 . S
H398 C406 0.950 . S
H399 C408 0.950 . S
H400 C410 0.950 . S
H401 C412 0.950 . S
H402 C414 0.950 . S
H403 C415 0.950 . S
C404 H396 0.950 . S
C404 C405 1.386 . S
C404 C406 1.391 . S
C405 C404 1.386 . S
C405 C409 1.393 . S
C406 H398 0.950 . S
C406 C404 1.391 . S
C406 C407 1.400 . S
C407 C406 1.400 . S
C407 C408 1.398 . S
C407 C413 1.491 . S
C408 H399 0.950 . S
C408 C407 1.398 . S
C408 C409 1.391 . S
C409 H397 0.950 . S
C409 C405 1.393 . S
C409 C408 1.391 . S
C410 H400 0.950 . S
C410 C411 1.386 . S
C410 C412 1.391 . S
C411 C410 1.386 . S
C411 C415 1.393 . S
C412 H401 0.950 . S
C412 C410 1.391 . S
C412 C413 1.400 . S
C413 C407 1.491 . S
C413 C412 1.400 . S
C413 C414 1.398 . S
C414 H402 0.950 . S
C414 C413 1.398 . S
C414 C415 1.391 . S
C415 H403 0.950 . S
C415 C411 1.393 . S
C415 C414 1.391 . S
H416 C424 0.950 . S
H417 C429 0.950 . S
H418 C426 0.950 . S
H419 C428 0.950 . S
H420 C430 0.950 . S
H421 C432 0.950 . S
H422 C434 0.950 . S
H423 C435 0.950 . S
C424 H416 0.950 . S
C424 C425 1.386 . S
C424 C426 1.391 . S
C425 C424 1.386 . S
C425 C429 1.393 . S
C426 H418 0.950 . S
C426 C424 1.391 . S
C426 C427 1.400 . S
C427 C426 1.400 . S
C427 C428 1.398 . S
C427 C433 1.491 1_655 S
C428 H419 0.950 . S
C428 C427 1.398 . S
C428 C429 1.391 . S
C429 H417 0.950 . S
C429 C425 1.393 . S
C429 C428 1.391 . S
C430 H420 0.950 . S
C430 C431 1.386 . S
C430 C432 1.391 . S
C431 C430 1.386 . S
C431 C435 1.393 . S
C432 H421 0.950 . S
C432 C430 1.391 . S
C432 C433 1.400 . S
C433 C427 1.491 1_455 S
C433 C432 1.400 . S
C433 C434 1.398 . S
C434 H422 0.950 . S
C434 C433 1.398 . S
C434 C435 1.391 . S
C435 H423 0.950 . S
C435 C431 1.393 . S
C435 C434 1.391 . S
H436 C444 0.950 . S
H437 C449 0.950 . S
H438 C446 0.950 . S
H439 C448 0.950 . S
H440 C450 0.950 . S
H441 C452 0.950 . S
H442 C454 0.950 . S
H443 C455 0.950 . S
C444 H436 0.950 . S
C444 C445 1.386 . S
C444 C446 1.391 . S
C445 C444 1.386 . S
C445 C449 1.393 . S
C446 H438 0.950 . S
C446 C444 1.391 . S
C446 C447 1.400 . S
C447 C446 1.400 . S
C447 C448 1.398 . S
C447 C453 1.491 1_545 S
C448 H439 0.950 . S
C448 C447 1.398 . S
C448 C449 1.391 . S
C449 H437 0.950 . S
C449 C445 1.393 . S
C449 C448 1.391 . S
C450 H440 0.950 . S
C450 C451 1.386 . S
C450 C452 1.391 . S
C451 C450 1.386 . S
C451 C455 1.393 . S
C452 H441 0.950 . S
C452 C450 1.391 . S
C452 C453 1.400 . S
C453 C447 1.491 1_565 S
C453 C452 1.400 . S
C453 C454 1.398 . S
C454 H442 0.950 . S
C454 C453 1.398 . S
C454 C455 1.391 . S
C455 H443 0.950 . S
C455 C451 1.393 . S
C455 C454 1.391 . S
H456 C464 0.950 . S
H457 C469 0.950 . S
H458 C466 0.950 . S
H459 C468 0.950 . S
H460 C470 0.950 . S
H461 C472 0.950 . S
H462 C474 0.950 . S
H463 C475 0.950 . S
C464 H456 0.950 . S
C464 C465 1.386 . S
C464 C466 1.391 . S
C465 C464 1.386 . S
C465 C469 1.393 . S
C466 H458 0.950 . S
C466 C464 1.391 . S
C466 C467 1.400 . S
C467 C466 1.400 . S
C467 C468 1.398 . S
C467 C473 1.491 . S
C468 H459 0.950 . S
C468 C467 1.398 . S
C468 C469 1.391 . S
C469 H457 0.950 . S
C469 C465 1.393 . S
C469 C468 1.391 . S
C470 H460 0.950 . S
C470 C471 1.386 . S
C470 C472 1.391 . S
C471 C470 1.386 . S
C471 C475 1.393 . S
C472 H461 0.950 . S
C472 C470 1.391 . S
C472 C473 1.400 . S
C473 C467 1.491 . S
C473 C472 1.400 . S
C473 C474 1.398 . S
C474 H462 0.950 . S
C474 C473 1.398 . S
C474 C475 1.391 . S
C475 H463 0.950 . S
C475 C471 1.393 . S
C475 C474 1.391 . S
H476 C484 0.950 . S
H477 C489 0.950 . S
H478 C486 0.950 . S
H479 C488 0.950 . S
H480 C490 0.950 . S
H481 C492 0.950 . S
H482 C494 0.950 . S
H483 C495 0.950 . S
C484 H476 0.950 . S
C484 C485 1.386 . S
C484 C486 1.391 . S
C485 C484 1.386 . S
C485 C489 1.393 . S
C486 H478 0.950 . S
C486 C484 1.391 . S
C486 C487 1.400 . S
C487 C486 1.400 . S
C487 C488 1.398 . S
C487 C493 1.491 1_455 S
C488 H479 0.950 . S
C488 C487 1.398 . S
C488 C489 1.391 . S
C489 H477 0.950 . S
C489 C485 1.393 . S
C489 C488 1.391 . S
C490 H480 0.950 . S
C490 C491 1.386 . S
C490 C492 1.391 . S
C491 C490 1.386 . S
C491 C495 1.393 . S
C492 H481 0.950 . S
C492 C490 1.391 . S
C492 C493 1.400 . S
C493 C487 1.491 1_655 S
C493 C492 1.400 . S
C493 C494 1.398 . S
C494 H482 0.950 . S
C494 C493 1.398 . S
C494 C495 1.391 . S
C495 H483 0.950 . S
C495 C491 1.393 . S
C495 C494 1.391 . S
H496 C504 0.950 . S
H497 C509 0.950 . S
H498 C506 0.950 . S
H499 C508 0.950 . S
H500 C510 0.950 . S
H501 C512 0.950 . S
H502 C514 0.950 . S
H503 C515 0.950 . S
C504 H496 0.950 . S
C504 C505 1.386 . S
C504 C506 1.391 . S
C505 C504 1.386 . S
C505 C509 1.393 . S
C506 H498 0.950 . S
C506 C504 1.391 . S
C506 C507 1.400 . S
C507 C506 1.400 . S
C507 C508 1.398 . S
C507 C513 1.491 1_565 S
C508 H499 0.950 . S
C508 C507 1.398 . S
C508 C509 1.391 . S
C509 H497 0.950 . S
C509 C505 1.393 . S
C509 C508 1.391 . S
C510 H500 0.950 . S
C510 C511 1.386 . S
C510 C512 1.391 . S
C511 C510 1.386 . S
C511 C515 1.393 . S
C512 H501 0.950 . S
C512 C510 1.391 . S
C512 C513 1.400 . S
C513 C507 1.491 1_545 S
C513 C512 1.400 . S
C513 C514 1.398 . S
C514 H502 0.950 . S
C514 C513 1.398 . S
C514 C515 1.391 . S
C515 H503 0.950 . S
C515 C511 1.393 . S
C515 C514 1.391 . S
H516 C524 0.950 . S
H517 C529 0.950 . S
H518 C526 0.950 . S
H519 C528 0.950 . S
H520 C530 0.950 . S
H521 C532 0.950 . S
H522 C534 0.950 . S
H523 C535 0.950 . S
C524 H516 0.950 . S
C524 C525 1.386 . S
C524 C526 1.391 . S
C525 C524 1.386 . S
C525 C529 1.393 . S
C526 H518 0.950 . S
C526 C524 1.391 . S
C526 C527 1.400 . S
C527 C526 1.400 . S
C527 C528 1.398 . S
C527 C533 1.491 . S
C528 H519 0.950 . S
C528 C527 1.398 . S
C528 C529 1.391 . S
C529 H517 0.950 . S
C529 C525 1.393 . S
C529 C528 1.391 . S
C530 H520 0.950 . S
C530 C531 1.386 . S
C530 C532 1.391 . S
C531 C530 1.386 . S
C531 C535 1.393 . S
C532 H521 0.950 . S
C532 C530 1.391 . S
C532 C533 1.400 . S
C533 C527 1.491 . S
C533 C532 1.400 . S
C533 C534 1.398 . S
C534 H522 0.950 . S
C534 C533 1.398 . S
C534 C535 1.391 . S
C535 H523 0.950 . S
C535 C531 1.393 . S
C535 C534 1.391 . S
H536 C544 0.950 . S
H537 C549 0.950 . S
H538 C546 0.950 . S
H539 C548 0.950 . S
H540 C550 0.950 . S
H541 C552 0.950 . S
H542 C554 0.950 . S
H543 C555 0.950 . S
C544 H536 0.950 . S
C544 C545 1.386 . S
C544 C546 1.391 . S
C545 C544 1.386 . S
C545 C549 1.393 . S
C546 H538 0.950 . S
C546 C544 1.391 . S
C546 C547 1.400 . S
C547 C546 1.400 . S
C547 C548 1.398 . S
C547 C553 1.491 . S
C548 H539 0.950 . S
C548 C547 1.398 . S
C548 C549 1.391 . S
C549 H537 0.950 . S
C549 C545 1.393 . S
C549 C548 1.391 . S
C550 H540 0.950 . S
C550 C551 1.386 . S
C550 C552 1.391 . S
C551 C550 1.386 . S
C551 C555 1.393 . S
C552 H541 0.950 . S
C552 C550 1.391 . S
C552 C553 1.400 . S
C553 C547 1.491 . S
C553 C552 1.400 . S
C553 C554 1.398 . S
C554 H542 0.950 . S
C554 C553 1.398 . S
C554 C555 1.391 . S
C555 H543 0.950 . S
C555 C551 1.393 . S
C555 C554 1.391 . S
H556 C564 0.950 . S
H557 C569 0.950 . S
H558 C566 0.950 . S
H559 C568 0.950 . S
H560 C570 0.950 . S
H561 C572 0.950 . S
H562 C574 0.950 . S
H563 C575 0.950 . S
C564 H556 0.950 . S
C564 C565 1.386 . S
C564 C566 1.391 . S
C565 C564 1.386 . S
C565 C569 1.393 . S
C566 H558 0.950 . S
C566 C564 1.391 . S
C566 C567 1.400 . S
C567 C566 1.400 . S
C567 C568 1.398 . S
C567 C573 1.491 . S
C568 H559 0.950 . S
C568 C567 1.398 . S
C568 C569 1.391 . S
C569 H557 0.950 . S
C569 C565 1.393 . S
C569 C568 1.391 . S
C570 H560 0.950 . S
C570 C571 1.386 . S
C570 C572 1.391 . S
C571 C570 1.386 . S
C571 C575 1.393 . S
C572 H561 0.950 . S
C572 C570 1.391 . S
C572 C573 1.400 . S
C573 C567 1.491 . S
C573 C572 1.400 . S
C573 C574 1.398 . S
C574 H562 0.950 . S
C574 C573 1.398 . S
C574 C575 1.391 . S
C575 H563 0.950 . S
C575 C571 1.393 . S
C575 C574 1.391 . S
H576 C584 0.950 . S
H577 C589 0.950 . S
H578 C586 0.950 . S
H579 C588 0.950 . S
H580 C590 0.950 . S
H581 C592 0.950 . S
H582 C594 0.950 . S
H583 C595 0.950 . S
C584 H576 0.950 . S
C584 C585 1.386 . S
C584 C586 1.391 . S
C585 C584 1.386 . S
C585 C589 1.393 . S
C586 H578 0.950 . S
C586 C584 1.391 . S
C586 C587 1.400 . S
C587 C586 1.400 . S
C587 C588 1.398 . S
C587 C593 1.491 . S
C588 H579 0.950 . S
C588 C587 1.398 . S
C588 C589 1.391 . S
C589 H577 0.950 . S
C589 C585 1.393 . S
C589 C588 1.391 . S
C590 H580 0.950 . S
C590 C591 1.386 . S
C590 C592 1.391 . S
C591 C590 1.386 . S
C591 C595 1.393 . S
C592 H581 0.950 . S
C592 C590 1.391 . S
C592 C593 1.400 . S
C593 C587 1.491 . S
C593 C592 1.400 . S
C593 C594 1.398 . S
C594 H582 0.950 . S
C594 C593 1.398 . S
C594 C595 1.391 . S
C595 H583 0.950 . S
C595 C591 1.393 . S
C595 C594 1.391 . S
H596 C604 0.950 . S
H597 C609 0.950 . S
H598 C606 0.950 . S
H599 C608 0.950 . S
H600 C610 0.950 . S
H601 C612 0.950 . S
H602 C614 0.950 . S
H603 C615 0.950 . S
C604 H596 0.950 . S
C604 C605 1.386 . S
C604 C606 1.391 . S
C605 C604 1.386 . S
C605 C609 1.393 . S
C606 H598 0.950 . S
C606 C604 1.391 . S
C606 C607 1.400 . S
C607 C606 1.400 . S
C607 C608 1.398 . S
C607 C613 1.491 . S
C608 H599 0.950 . S
C608 C607 1.398 . S
C608 C609 1.391 . S
C609 H597 0.950 . S
C609 C605 1.393 . S
C609 C608 1.391 . S
C610 H600 0.950 . S
C610 C611 1.386 . S
C610 C612 1.391 . S
C611 C610 1.386 . S
C611 C615 1.393 . S
C612 H601 0.950 . S
C612 C610 1.391 . S
C612 C613 1.400 . S
C613 C607 1.491 . S
C613 C612 1.400 . S
C613 C614 1.398 . S
C614 H602 0.950 . S
C614 C613 1.398 . S
C614 C615 1.391 . S
C615 H603 0.950 . S
C615 C611 1.393 . S
C615 C614 1.391 . S
H616 C624 0.950 . S
H617 C629 0.950 . S
H618 C626 0.950 . S
H619 C628 0.950 . S
H620 C630 0.950 . S
H621 C632 0.950 . S
H622 C634 0.950 . S
H623 C635 0.950 . S
C624 H616 0.950 . S
C624 C625 1.386 . S
C624 C626 1.391 . S
C625 C624 1.386 . S
C625 C629 1.393 . S
C626 H618 0.950 . S
C626 C624 1.391 . S
C626 C627 1.400 . S
C627 C626 1.400 . S
C627 C628 1.398 . S
C627 C633 1.491 . S
C628 H619 0.950 . S
C628 C627 1.398 . S
C628 C629 1.391 . S
C629 H617 0.950 . S
C629 C625 1.393 . S
C629 C628 1.391 . S
C630 H620 0.950 . S
C630 C631 1.386 . S
C630 C632 1.391 . S
C631 C630 1.386 . S
C631 C635 1.393 . S
C632 H621 0.950 . S
C632 C630 1.391 . S
C632 C633 1.400 . S
C633 C627 1.491 . S
C633 C632 1.400 . S
C633 C634 1.398 . S
C634 H622 0.950 . S
C634 C633 1.398 . S
C634 C635 1.391 . S
C635 H623 0.950 . S
C635 C631 1.393 . S
C635 C634 1.391 . S
C165 C10 1.406 . S
C171 C88 1.400 . S
C185 C23 1.405 . S
C191 C101 1.397 . S
C205 C36 1.404 . S
C211 C114 1.407 . S
C225 C49 1.407 . S
C231 C127 1.402 . S
C245 C62 1.406 . S
C251 C134 1.405 . S
C265 C147 1.401 . S
C271 C75 1.406 . S
C285 C5 1.366 . S
C291 C133 1.355 . S
C305 C18 1.366 . S
C311 C146 1.358 . S
C325 C31 1.356 . S
C331 C83 1.350 . S
C345 C44 1.356 . S
C351 C96 1.350 . S
C365 C57 1.366 . S
C371 C109 1.355 . S
C385 C70 1.351 . S
C391 C122 1.364 . S
C405 C4 1.454 . S
C411 C43 1.452 . S
C425 C17 1.436 . S
C431 C56 1.436 . S
C445 C69 1.454 . S
C451 C30 1.451 . S
C465 C82 1.456 . S
C471 C121 1.453 . S
C485 C140 1.439 . S
C491 C95 1.444 . S
C505 C108 1.445 . S
C511 C153 1.449 . S
C525 C81 1.097 . S
C531 C3 1.107 . S
C545 C16 1.100 . S
C551 C94 1.091 . S
C565 C29 1.118 . S
C571 C107 1.113 . S
C585 C120 1.111 . S
C591 C42 1.117 . S
C605 C135 1.110 . S
C611 C55 1.117 . S
C625 C68 1.089 . S
C631 C148 1.088 . S
