# Generated by pormake.
# Topology qtz-x, (6)-cn, num edge types: 1
# Building blocks:
#     Node 0, Type 0, BuildingBlock: BETDIP_clean_sbu_0, # of connection points: 6
#     Node 1, Type 0, BuildingBlock: BETDIP_clean_sbu_0, # of connection points: 6
#     Node 2, Type 0, BuildingBlock: BETDIP_clean_sbu_0, # of connection points: 6
#     Edge 3, Type (0, 0), BuildingBlock: ZUJKAS_clean_linker_0, # of connection points: 2
#     Edge 4, Type (0, 0), BuildingBlock: ZUJKAS_clean_linker_0, # of connection points: 2
#     Edge 5, Type (0, 0), BuildingBlock: ZUJKAS_clean_linker_0, # of connection points: 2
#     Edge 6, Type (0, 0), BuildingBlock: ZUJKAS_clean_linker_0, # of connection points: 2
#     Edge 7, Type (0, 0), BuildingBlock: ZUJKAS_clean_linker_0, # of connection points: 2
#     Edge 8, Type (0, 0), BuildingBlock: ZUJKAS_clean_linker_0, # of connection points: 2
#     Edge 9, Type (0, 0), BuildingBlock: ZUJKAS_clean_linker_0, # of connection points: 2
#     Edge 10, Type (0, 0), BuildingBlock: ZUJKAS_clean_linker_0, # of connection points: 2
#     Edge 11, Type (0, 0), BuildingBlock: ZUJKAS_clean_linker_0, # of connection points: 2
# Relax obj value: 0.180
# Max RMSD: 0.233
# Mean RMSD: 0.219
data_MOF--net-qtz-x--node1-BETDIP_clean_sbu_0--edge1-ZUJKAS_clean_linker_0
_symmetry_space_group_name_H-M    P1
_symmetry_Int_Tables_number       1
_symmetry_cell_setting            triclinic
loop_
_symmetry_equiv_pos_as_xyz
'x, y, z'
_cell_length_a     18.85903
_cell_length_b     18.906575
_cell_length_c     65.424977
_cell_angle_alpha  72.659779
_cell_angle_beta   109.40146
_cell_angle_gamma 120.72212
loop_
_atom_site_label
_atom_site_type_symbol
_atom_site_fract_x
_atom_site_fract_y
_atom_site_fract_z
_atom_type_partial_charge
Tb0 Tb 1.0134 0.59113 0.19358 0.0
Tb1 Tb 0.18361 0.7072 0.18417 0.0
C2 C 0.89447 0.4718 0.21061 0.0
C3 C 0.87689 0.44389 0.23277 0.0
C4 C 0.81806 0.36157 0.23864 0.0
C5 C 0.80099 0.33406 0.25966 0.0
C6 C 0.84261 0.38846 0.27526 0.0
C7 C 0.90187 0.47106 0.26927 0.0
C8 C 0.91877 0.49848 0.24824 0.0
C9 C 0.04666 0.74947 0.18352 0.0
C10 C 0.17518 0.66761 0.23264 0.0
C11 C 0.3014 0.82201 0.16632 0.0
C12 C 0.3178 0.8367 0.14445 0.0
C13 C 0.25553 0.836 0.12517 0.0
C14 C 0.26829 0.84041 0.10487 0.0
C15 C 0.34369 0.846 0.10336 0.0
C16 C 0.40702 0.84948 0.12256 0.0
C17 C 0.39411 0.84482 0.14288 0.0
C18 C 0.14887 0.54824 0.19406 0.0
C19 C 1.02374 0.63496 0.14469 0.0
O20 O 0.95806 0.46612 0.2086 0.0
O21 O 0.89412 0.54246 0.20025 0.0
O22 O 0.09732 0.72072 0.19512 0.0
O23 O 0.97267 0.68793 0.1783 0.0
O24 O 0.09842 0.60683 0.22657 0.0
O25 O 0.21792 0.72424 0.21793 0.0
O26 O 0.23594 0.82837 0.16678 0.0
O27 O 0.30663 0.75699 0.1797 0.0
O28 O 0.0992 0.578 0.1824 0.0
O29 O 0.22291 0.60921 0.19958 0.0
O30 O 0.10213 0.69116 0.15132 0.0
O31 O 0.97634 0.5806 0.1588 0.0
H32 H 0.78505 0.31853 0.22693 0.0
H33 H 0.75426 0.27043 0.26357 0.0
H34 H 0.93603 0.51435 0.28092 0.0
H35 H 0.96461 0.56233 0.24407 0.0
H36 H 0.19599 0.83008 0.12575 0.0
H37 H 0.21873 0.83878 0.09038 0.0
H38 H 0.4655 0.85295 0.12203 0.0
H39 H 0.44289 0.84513 0.1575 0.0
Tb40 Tb 0.74442 0.13379 0.54242 0.0
Tb41 Tb 0.68376 0.95952 0.53812 0.0
C42 C 0.77095 0.26366 0.55327 0.0
C43 C 0.78196 0.28751 0.57401 0.0
C44 C 0.73288 0.2316 0.58939 0.0
C45 C 0.74909 0.25322 0.60972 0.0
C46 C 0.81453 0.3313 0.615 0.0
C47 C 0.86233 0.38764 0.59933 0.0
C48 C 0.84624 0.36583 0.57906 0.0
C49 C 0.86144 0.10158 0.53984 0.0
C50 C 0.72847 -0.00767 0.585 0.0
C51 C 0.65576 0.83301 0.52535 0.0
C52 C 0.62009 0.80831 0.50319 0.0
C53 C 0.6717 0.83863 0.48811 0.0
C54 C 0.6363 0.82218 0.46653 0.0
C55 C 0.54848 0.77476 0.45951 0.0
C56 C 0.49735 0.74216 0.47482 0.0
C57 C 0.53273 0.75841 0.49639 0.0
C58 C 0.56598 -0.00812 0.54017 0.0
C59 C 0.70053 0.10159 0.49524 0.0
O60 O 0.69569 0.20786 0.5451 0.0
O61 O 0.83097 0.24999 0.55235 0.0
O62 O 0.80412 0.05465 0.5505 0.0
O63 O 0.85694 0.17066 0.53114 0.0
O64 O 0.72559 0.06346 0.57534 0.0
O65 O 0.72739 0.94447 0.5736 0.0
O66 O 0.73027 0.89786 0.52826 0.0
O67 O 0.60378 0.83434 0.53422 0.0
O68 O 0.62424 0.0387 0.52981 0.0
O69 O 0.56938 0.92222 0.54862 0.0
O70 O 0.69362 0.02645 0.50452 0.0
O71 O 0.71067 0.15376 0.50685 0.0
H72 H 0.68283 0.17081 0.58582 0.0
H73 H 0.71159 0.20806 0.62147 0.0
H74 H 0.9122 0.44877 0.60272 0.0
H75 H 0.88483 0.40981 0.56741 0.0
H76 H 0.73934 0.87669 0.4928 0.0
H77 H 0.67783 0.847 0.45532 0.0
H78 H 0.42944 0.70606 0.47 0.0
H79 H 0.49114 0.73367 0.50759 0.0
Tb80 Tb 0.73152 0.77779 0.86225 0.0
Tb81 Tb 0.85491 0.71749 0.86511 0.0
C82 C 0.60548 0.79704 0.85868 0.0
C83 C 0.56847 0.79926 0.87512 0.0
C84 C 0.52057 0.7257 0.88797 0.0
C85 C 0.49243 0.72937 0.90473 0.0
C86 C 0.51178 0.80658 0.90905 0.0
C87 C 0.55712 0.87982 0.89571 0.0
C88 C 0.58473 0.87616 0.87887 0.0
C89 C 0.89104 0.89008 0.86866 0.0
C90 C 0.82431 0.72829 0.90881 0.0
C91 C 0.97259 0.68562 0.86885 0.0
C92 C 0.98434 0.64953 0.8537 0.0
C93 C 0.03421 0.70179 0.83818 0.0
C94 C 0.0327 0.66974 0.82124 0.0
C95 C 0.9814 0.58479 0.81952 0.0
C96 C 0.93636 0.53164 0.83592 0.0
C97 C 0.938 0.56352 0.85285 0.0
C98 C 0.69466 0.60607 0.85883 0.0
C99 C 0.76688 0.77194 0.81813 0.0
O100 O 0.60028 0.72537 0.85851 0.0
O101 O 0.67991 0.85906 0.8566 0.0
O102 O 0.85595 0.83551 0.85647 0.0
O103 O 0.83512 0.88641 0.87682 0.0
O104 O 0.75382 0.73232 0.89722 0.0
O105 O 0.87902 0.73365 0.89916 0.0
O106 O 0.97792 0.7604 0.86164 0.0
O107 O 0.90895 0.63599 0.87849 0.0
O108 O 0.73117 0.66038 0.87108 0.0
O109 O 0.74971 0.60935 0.85047 0.0
O110 O 0.83064 0.75624 0.82997 0.0
O111 O 0.71699 0.77735 0.82732 0.0
H112 H 0.50641 0.66529 0.88548 0.0
H113 H 0.45795 0.67187 0.91479 0.0
H114 H 0.57182 0.94015 0.89841 0.0
H115 H 0.62059 0.93384 0.8691 0.0
H116 H 0.07114 0.76819 0.83848 0.0
H117 H 0.06807 0.71231 0.80884 0.0
H118 H 0.89762 0.46559 0.83526 0.0
H119 H 0.89973 0.52108 0.86468 0.0
H120 H 0.18985 0.87795 0.20167 0.0
H121 H 0.20749 0.01404 0.2034 0.0
H122 H 0.95143 0.94784 0.16648 0.0
H123 H 0.93384 0.81226 0.16446 0.0
H124 H 0.066 0.10991 0.15249 0.0
H125 H 0.10396 0.05047 0.24291 0.0
H126 H 0.17678 0.03814 0.23397 0.0
H127 H 0.06557 0.96876 0.22732 0.0
C128 C 0.13755 0.8927 0.19381 0.0
C129 C 0.06024 0.83426 0.18307 0.0
C130 C 0.14747 0.97019 0.19495 0.0
C131 C 0.08018 -0.00948 0.18547 0.0
C132 C 1.00398 0.93332 0.17407 0.0
H133 H 1.00523 0.42103 0.17556 0.0
H134 H 0.98608 0.28441 0.17374 0.0
C135 C 0.99403 0.85588 0.17292 0.0
C136 C 0.08879 0.0711 0.18748 0.0
H137 H 0.1261 0.18663 0.22479 0.0
C138 C 0.07883 0.12659 0.16829 0.0
C139 C 0.10533 0.09276 0.20811 0.0
C140 C 0.11281 0.03421 0.22926 0.0
C141 C 0.08673 0.20381 0.16917 0.0
C142 C 0.10346 0.22555 0.18981 0.0
C143 C 0.11324 0.16996 0.20899 0.0
C144 C 0.11286 0.30645 0.19184 0.0
C145 C 0.07925 0.26233 0.14801 0.0
C146 C 0.18922 0.36301 0.20337 0.0
C147 C 0.19999 0.44071 0.20459 0.0
C148 C 0.13446 0.46326 0.19438 0.0
C149 C 0.057 0.40553 0.18349 0.0
C150 C 0.04624 0.32773 0.18229 0.0
H151 H 0.08793 0.24595 0.13436 0.0
H152 H 1.01532 0.25849 0.14333 0.0
H153 H 0.12657 0.32777 0.14994 0.0
H154 H 0.24127 0.34778 0.21102 0.0
H155 H 0.26027 0.48378 0.21317 0.0
H156 H 0.4401 0.89258 0.56223 0.0
H157 H 0.32121 0.91245 0.56171 0.0
H158 H 0.41535 0.14564 0.5181 0.0
H159 H 0.5341 0.12502 0.51822 0.0
H160 H 0.31786 0.03667 0.57425 0.0
H161 H 0.17089 0.02501 0.48562 0.0
H162 H 0.25295 -0.00628 0.4997 0.0
H163 H 0.27938 0.10235 0.49131 0.0
C164 C 0.43546 0.94808 0.55247 0.0
C165 C 0.49621 0.00706 0.54016 0.0
C166 C 0.36747 0.95942 0.55223 0.0
C167 C 0.35831 0.02984 0.5396 0.0
C168 C 0.41993 0.08988 0.52761 0.0
H169 H 0.98772 0.20214 0.5179 0.0
H170 H 0.10685 0.18283 0.51829 0.0
C171 C 0.48817 0.07846 0.52782 0.0
C172 C 0.28448 0.04001 0.53927 0.0
H173 H 0.11016 0.05838 0.50546 0.0
C174 C 0.27232 0.0412 0.55921 0.0
C175 C 0.22478 0.04565 0.51967 0.0
C176 C 0.23192 0.04089 0.49787 0.0
C177 C 0.20322 0.04934 0.56004 0.0
C178 C 0.14353 0.05497 0.54043 0.0
C179 C 0.15571 0.05386 0.5205 0.0
C180 C 0.06954 0.0648 0.54013 0.0
C181 C 0.19594 0.05391 0.58184 0.0
C182 C 1.00771 0.00418 0.552 0.0
C183 C 0.93929 0.01521 0.55183 0.0
C184 C 0.93135 0.08688 0.5397 0.0
C185 C 0.99229 0.14644 0.5275 0.0
C186 C 0.06043 0.13543 0.52768 0.0
H187 H 0.25687 0.06955 0.59412 0.0
H188 H 0.17503 0.10116 0.58002 0.0
H189 H 0.14829 -0.00755 0.58834 0.0
H190 H 1.01226 0.94826 0.56137 0.0
H191 H 0.89305 0.96807 0.56129 0.0
H192 H 1.00228 0.9238 0.84493 0.0
H193 H 0.14074 0.04557 0.84394 0.0
H194 H 0.10944 0.13708 0.89172 0.0
H195 H 0.97146 0.01494 0.893 0.0
H196 H 0.16959 0.21391 0.83228 0.0
H197 H 0.34746 0.15199 0.91651 0.0
H198 H 0.24956 0.07206 0.90381 0.0
H199 H 0.24826 0.14687 0.91517 0.0
C200 C 1.0256 0.96926 0.85547 0.0
C201 C 0.97659 0.96004 0.86912 0.0
C202 C 0.10437 0.03882 0.85481 0.0
C203 C 0.13548 0.09973 0.86791 0.0
C204 C 0.08708 0.09001 0.88177 0.0
H205 H 0.58581 0.5731 0.88322 0.0
H206 H 0.44665 0.45262 0.88434 0.0
C207 C 1.00825 0.02054 0.8824 0.0
C208 C 0.21662 0.17555 0.86624 0.0
H209 H 0.41476 0.28473 0.89567 0.0
C210 C 0.22342 0.22933 0.84609 0.0
C211 C 0.28629 0.19542 0.88435 0.0
C212 C 0.28316 0.13832 0.90615 0.0
C213 C 0.29799 0.30333 0.84361 0.0
C214 C 0.36778 0.32307 0.8617 0.0
C215 C 0.3609 0.26938 0.88187 0.0
C216 C 0.4493 0.39832 0.85995 0.0
C217 C 0.30093 0.36052 0.82182 0.0
C218 C 0.49653 0.40757 0.84583 0.0
C219 C 0.5757 0.4764 0.84509 0.0
C220 C 0.60892 0.53669 0.85856 0.0
C221 C 0.56122 0.52785 0.87252 0.0
C222 C 0.48205 0.459 0.87325 0.0
H223 H 0.23651 0.3477 0.81167 0.0
H224 H 0.33575 0.42684 0.82416 0.0
H225 H 0.33438 0.35095 0.81258 0.0
H226 H 0.47299 0.36061 0.83574 0.0
H227 H 0.61152 0.48167 0.83428 0.0
H228 H 0.60935 0.91267 0.9391 0.0
H229 H 0.57204 0.91796 0.97081 0.0
H230 H 0.32301 0.71666 0.95343 0.0
H231 H 0.36032 0.71047 0.92173 0.0
H232 H 0.4472 0.9477 0.97312 0.0
H233 H 0.40069 0.63153 1.01716 0.0
H234 H 0.45032 0.68143 0.99397 0.0
H235 H 0.33717 0.63339 0.98979 0.0
C236 C 0.54642 0.86988 0.94193 0.0
C237 C 0.48781 0.811 0.92793 0.0
C238 C 0.5253 0.87277 0.96011 0.0
C239 C 0.44521 0.81688 0.9647 0.0
C240 C 0.38589 0.75905 0.95052 0.0
H241 H 0.22746 0.74944 0.07201 0.0
H242 H 0.24766 0.74501 0.03743 0.0
C243 C 0.40718 0.75572 0.93239 0.0
C244 C 0.42414 0.82 0.98426 0.0
H245 H 0.36778 0.70611 0.03279 0.0
C246 C 0.42983 0.89488 0.98617 0.0
C247 C 0.40137 0.75096 1.00126 0.0
C248 C 0.39768 0.66997 1.00062 0.0
C249 C 0.41327 0.90258 1.00459 0.0
C250 C 0.39146 0.83389 1.02167 0.0
C251 C 0.38442 0.75862 1.01963 0.0
C252 C 0.3782 0.83955 0.04212 0.0
C253 C 0.41856 -0.01606 1.00554 0.0
C254 C 0.44498 0.89402 0.05625 0.0
C255 C 0.43356 0.89701 0.07597 0.0
C256 C 0.35512 0.84531 0.08199 0.0
C257 C 0.28823 0.79103 0.06772 0.0
C258 C 0.29981 0.78796 0.04803 0.0
H259 H 0.4141 0.02217 0.98902 0.0
H260 H 0.36756 0.97302 1.01278 0.0
H261 H 0.48022 0.02033 1.01605 0.0
H262 H 0.50641 0.9334 0.05217 0.0
H263 H 0.48617 0.93986 0.0865 0.0
H264 H 0.71633 0.25153 0.46975 0.0
H265 H 0.73038 0.29866 0.43149 0.0
H266 H 0.70594 0.06143 0.42916 0.0
H267 H 0.68986 0.01327 0.46703 0.0
H268 H 0.85366 0.31703 0.41501 0.0
H269 H 0.54498 0.09077 0.37295 0.0
H270 H 0.56484 0.10293 0.40095 0.0
H271 H 0.6005 0.04131 0.39472 0.0
C272 C 0.71251 0.20887 0.46099 0.0
C273 C 0.70166 0.12847 0.47151 0.0
C274 C 0.72079 0.23601 0.43912 0.0
C275 C 0.7181 0.18331 0.42729 0.0
C276 C 0.70618 0.10267 0.43769 0.0
H277 H 0.81703 0.23777 0.3016 0.0
H278 H 0.78637 0.19003 0.33822 0.0
C279 C 0.69752 0.07538 0.45948 0.0
C280 C 0.73336 0.21442 0.40462 0.0
H281 H 0.65196 0.17204 0.35208 0.0
C282 C 0.80911 0.28579 0.40121 0.0
C283 C 0.67559 0.17328 0.38662 0.0
C284 C 0.59159 0.0983 0.38892 0.0
C285 C 0.82955 0.31607 0.38048 0.0
C286 C 0.772 0.27477 0.36251 0.0
C287 C 0.69607 0.20362 0.36587 0.0
C288 C 0.7898 0.30402 0.34014 0.0
C289 C 0.91377 0.39062 0.37814 0.0
C290 C 0.80088 0.38364 0.32889 0.0
C291 C 0.81818 0.41108 0.30791 0.0
C292 C 0.82418 0.35923 0.29763 0.0
C293 C 0.81202 0.27908 0.30888 0.0
C294 C 0.79481 0.25175 0.32987 0.0
H295 H 0.95899 0.40152 0.39426 0.0
H296 H 0.94247 0.38271 0.36719 0.0
H297 H 0.90435 0.44703 0.37082 0.0
H298 H 0.79544 0.4244 0.33627 0.0
H299 H 0.82556 0.47251 0.2996 0.0
H300 H 0.67332 0.84514 0.78718 0.0
H301 H 0.6617 0.87766 0.74729 0.0
H302 H 0.8206 0.76634 0.75434 0.0
H303 H 0.83308 0.73414 0.79401 0.0
H304 H 0.81179 0.97769 0.72609 0.0
H305 H 0.60571 0.65835 0.70483 0.0
H306 H 0.60949 0.6856 0.72955 0.0
H307 H 0.69405 0.67101 0.72783 0.0
C308 C 0.70503 0.8268 0.78022 0.0
C309 C 0.75418 0.78712 0.79384 0.0
C310 C 0.69852 0.84562 0.75743 0.0
C311 C 0.73978 0.82382 0.74785 0.0
C312 C 0.78752 0.78292 0.76135 0.0
H313 H 0.77819 0.87805 0.6139 0.0
H314 H 0.78339 0.83871 0.65351 0.0
C315 C 0.79482 0.76492 0.78407 0.0
C316 C 0.73658 0.84716 0.72388 0.0
H317 H 0.66414 0.76593 0.67659 0.0
C318 C 0.77908 0.93157 0.71521 0.0
C319 C 0.69509 0.78671 0.70983 0.0
C320 C 0.64791 0.69526 0.71834 0.0
C321 C 0.78224 0.9572 0.69288 0.0
C322 C 0.7393 0.89687 0.67864 0.0
C323 C 0.69697 0.81228 0.68741 0.0
C324 C 0.73621 0.92041 0.65457 0.0
C325 C 0.83386 0.04852 0.685 0.0
C326 C 0.70651 0.97811 0.64183 0.0
C327 C 0.70462 0.00136 0.61936 0.0
C328 C 0.73074 0.96629 0.6089 0.0
C329 C 0.75802 0.90653 0.62147 0.0
C330 C 0.76096 0.884 0.64411 0.0
H331 H 0.88388 0.08074 0.69864 0.0
H332 H 0.86432 0.05758 0.6719 0.0
H333 H 0.79195 0.07892 0.67832 0.0
H334 H 0.68411 0.00497 0.64924 0.0
H335 H 0.6813 0.04601 0.61012 0.0
H336 H 0.96553 0.72533 0.93865 0.0
H337 H 0.9915 0.70301 0.97876 0.0
H338 H 0.74801 0.68119 0.97425 0.0
H339 H 0.72118 0.70306 0.93422 0.0
H340 H 0.99227 0.79997 1.00523 0.0
H341 H 0.7477 0.47001 1.01724 0.0
H342 H 0.78488 0.52019 0.99206 0.0
H343 H 0.71136 0.54111 0.99787 0.0
C344 C 0.91732 0.71553 0.94616 0.0
C345 C 0.84113 0.71573 0.93315 0.0
C346 C 0.93229 0.70277 0.9691 0.0
C347 C 0.87115 0.68914 0.9795 0.0
C348 C 0.79538 0.68995 0.96659 0.0
H349 H 0.86409 0.59874 0.11885 0.0
H350 H 0.82353 0.6113 0.0785 0.0
C351 C 0.78046 0.70305 0.94367 0.0
C352 C 0.88791 0.67687 1.00384 0.0
H353 H 0.82108 0.53592 0.04877 0.0
C354 C 0.95496 0.74221 1.01476 0.0
C355 C 0.83857 0.60177 1.01622 0.0
C356 C 0.76693 0.52885 1.00534 0.0
C357 C 0.9739 0.73484 0.03772 0.0
C358 C 0.92585 0.65896 0.05022 0.0
C359 C 0.85794 0.59394 0.03925 0.0
C360 C 0.94743 0.64526 0.07467 0.0
C361 C 0.0445 0.80926 0.04824 0.0
C362 C 0.02918 0.65669 0.08597 0.0
C363 C 0.05238 0.65069 0.10875 0.0
C364 C 0.99386 0.63103 0.12091 0.0
C365 C 0.91037 0.61412 0.10984 0.0
C366 C 0.88738 0.62156 0.08684 0.0
H367 H 0.05441 0.86845 0.03669 0.0
H368 H 0.03159 0.8126 0.06321 0.0
H369 H 0.10426 0.80445 0.05289 0.0
H370 H 0.07572 0.67174 0.07711 0.0
H371 H 0.11675 0.66224 0.11689 0.0
H372 H 0.11239 0.55905 0.26826 0.0
H373 H 0.17247 0.57515 0.30704 0.0
H374 H 0.37982 0.80993 0.28909 0.0
H375 H 0.32054 0.79483 0.25042 0.0
H376 H 0.34239 0.59942 0.33188 0.0
H377 H 0.28238 0.86217 0.32823 0.0
H378 H 0.22739 0.79513 0.30753 0.0
H379 H 0.33399 0.87553 0.30769 0.0
C380 C 0.17064 0.61424 0.27254 0.0
C381 C 0.21146 0.67578 0.25619 0.0
C382 C 0.20489 0.62323 0.29471 0.0
C383 C 0.27997 0.69422 0.30088 0.0
C384 C 0.32113 0.7553 0.28464 0.0
H385 H 0.59194 0.8856 0.42224 0.0
H386 H 0.52769 0.86303 0.38411 0.0
C387 C 0.28729 0.74624 0.26253 0.0
C388 C 0.3167 0.70401 0.32431 0.0
H389 H 0.36842 0.82752 0.3611 0.0
C390 C 0.34763 0.64885 0.33836 0.0
C391 C 0.32389 0.76896 0.33261 0.0
C392 C 0.28962 0.82858 0.31832 0.0
C393 C 0.38759 0.65813 0.36042 0.0
C394 C 0.39473 0.72309 0.36878 0.0
C395 C 0.36309 0.77785 0.35471 0.0
C396 C 0.43492 0.7356 0.39204 0.0
C397 C 0.42408 0.59984 0.37434 0.0
C398 C 0.40384 0.67179 0.40923 0.0
C399 C 0.44131 0.68403 0.43108 0.0
C400 C 0.51003 0.76087 0.43624 0.0
C401 C 0.54035 0.82506 0.41894 0.0
C402 C 0.50314 0.81253 0.39709 0.0
H403 H 0.43568 0.57089 0.36409 0.0
H404 H 0.48446 0.63284 0.38578 0.0
H405 H 0.37855 0.54894 0.38417 0.0
H406 H 0.35 0.61258 0.40576 0.0
H407 H 0.41654 0.63303 0.44393 0.0
H408 H 0.83273 0.48185 0.79566 0.0
H409 H 0.80971 0.43525 0.76192 0.0
H410 H 0.07748 0.57162 0.76427 0.0
H411 H 0.10137 0.61779 0.79836 0.0
H412 H 0.85813 0.546 0.72228 0.0
H413 H 1.00646 0.3333 0.75441 0.0
H414 H 0.9733 0.36372 0.77189 0.0
H415 H 0.06857 0.43535 0.76223 0.0
C416 C 0.887 0.50064 0.78926 0.0
C417 C 0.96901 0.55297 0.79977 0.0
C418 C 0.87362 0.47441 0.76991 0.0
C419 C 0.94193 0.49934 0.76076 0.0
C420 C 1.02407 0.55082 0.77127 0.0
H421 H 0.96981 0.41264 0.6411 0.0
H422 H 1.00094 0.45435 0.6763 0.0
C423 C 0.03753 0.57759 0.79062 0.0
C424 C 0.92613 0.47475 0.73959 0.0
H425 H 0.9576 0.35749 0.71596 0.0
C426 C 0.87972 0.5047 0.72087 0.0
C427 C 0.95482 0.42124 0.73787 0.0
C428 C 1.00309 0.38583 0.75765 0.0
C429 C 0.86167 0.48303 0.70035 0.0
C430 C 0.88919 0.42844 0.69865 0.0
C431 C 0.93633 0.39907 0.71735 0.0
C432 C 0.86982 0.40139 0.67754 0.0
C433 C 0.81469 0.52008 0.68061 0.0
C434 C 0.78576 0.35658 0.66675 0.0
C435 C 0.76769 0.33329 0.64653 0.0
C436 C 0.83345 0.35398 0.63678 0.0
C437 C 0.91766 0.39716 0.64793 0.0
C438 C 0.93562 0.42046 0.66814 0.0
H439 H 0.81811 0.57683 0.68352 0.0
H440 H 0.84035 0.53648 0.66591 0.0
H441 H 0.74707 0.47372 0.67702 0.0
H442 H 0.73405 0.33989 0.67393 0.0
H443 H 0.7022 0.30039 0.63836 0.0
loop_
_geom_bond_atom_site_label_1
_geom_bond_atom_site_label_2
_geom_bond_distance
_geom_bond_site_symmetry_2
_ccdc_geom_bond_type
Tb0 C2 2.809 . S
Tb0 O20 2.484 . S
Tb0 O21 2.440 . S
Tb0 O22 2.658 1_655 S
Tb0 O23 2.409 . S
Tb0 O24 2.378 1_655 S
Tb0 O28 2.325 . S
Tb0 O31 2.341 . S
Tb1 C11 2.809 . S
Tb1 O22 2.325 . S
Tb1 O25 2.341 . S
Tb1 O26 2.484 . S
Tb1 O27 2.440 . S
Tb1 O28 2.658 1_455 S
Tb1 O29 2.409 . S
Tb1 O30 2.378 1_455 S
C2 Tb0 2.809 . S
C2 C3 1.514 . S
C2 O20 1.248 . S
C2 O21 1.266 . S
C3 C2 1.514 . S
C3 C4 1.359 . S
C3 C8 1.348 . S
C4 C3 1.359 . S
C4 C5 1.380 . S
C4 H32 0.929 . S
C5 C4 1.380 . S
C5 C6 1.347 . S
C5 H33 0.931 . S
C6 C5 1.347 . S
C6 C7 1.369 . S
C7 C6 1.369 . S
C7 C8 1.408 . S
C7 H34 0.930 . S
C8 C3 1.348 . S
C8 C7 1.408 . S
C8 H35 0.930 . S
C9 O22 1.281 1_655 S
C9 O23 1.254 . S
C10 O24 1.236 . S
C10 O25 1.266 . S
C11 Tb1 2.809 . S
C11 C12 1.514 . S
C11 O26 1.248 . S
C11 O27 1.266 . S
C12 C11 1.514 . S
C12 C13 1.359 . S
C12 C17 1.348 . S
C13 C12 1.359 . S
C13 C14 1.380 . S
C13 H36 0.929 . S
C14 C13 1.380 . S
C14 C15 1.347 . S
C14 H37 0.931 . S
C15 C14 1.347 . S
C15 C16 1.369 . S
C16 C15 1.369 . S
C16 C17 1.408 . S
C16 H38 0.930 . S
C17 C12 1.348 . S
C17 C16 1.408 . S
C17 H39 0.930 . S
C18 O28 1.281 1_455 S
C18 O29 1.254 . S
C19 O30 1.236 . S
C19 O31 1.266 . S
O20 Tb0 2.484 . S
O20 C2 1.248 . S
O21 Tb0 2.440 . S
O21 C2 1.266 . S
O22 Tb0 2.658 1_455 S
O22 Tb1 2.325 . S
O22 C9 1.281 1_455 S
O23 Tb0 2.409 . S
O23 C9 1.254 . S
O24 Tb0 2.378 1_455 S
O24 C10 1.236 . S
O25 Tb1 2.341 . S
O25 C10 1.266 . S
O26 Tb1 2.484 . S
O26 C11 1.248 . S
O27 Tb1 2.440 . S
O27 C11 1.266 . S
O28 Tb0 2.325 . S
O28 Tb1 2.658 1_655 S
O28 C18 1.281 1_655 S
O29 Tb1 2.409 . S
O29 C18 1.254 . S
O30 Tb1 2.378 1_655 S
O30 C19 1.236 . S
O31 Tb0 2.341 . S
O31 C19 1.266 . S
H32 C4 0.929 . S
H33 C5 0.931 . S
H34 C7 0.930 . S
H35 C8 0.930 . S
H36 C13 0.929 . S
H37 C14 0.931 . S
H38 C16 0.930 . S
H39 C17 0.930 . S
Tb40 C42 2.809 . S
Tb40 O60 2.484 . S
Tb40 O61 2.440 . S
Tb40 O62 2.658 1_545 S
Tb40 O63 2.409 . S
Tb40 O64 2.378 . S
Tb40 O68 2.325 . S
Tb40 O71 2.341 . S
Tb41 C51 2.809 . S
Tb41 O62 2.325 . S
Tb41 O65 2.341 . S
Tb41 O66 2.484 . S
Tb41 O67 2.440 . S
Tb41 O68 2.658 1_565 S
Tb41 O69 2.409 . S
Tb41 O70 2.378 1_565 S
C42 Tb40 2.809 . S
C42 C43 1.514 . S
C42 O60 1.248 . S
C42 O61 1.266 . S
C43 C42 1.514 . S
C43 C44 1.359 . S
C43 C48 1.348 . S
C44 C43 1.359 . S
C44 C45 1.380 . S
C44 H72 0.929 . S
C45 C44 1.380 . S
C45 C46 1.347 . S
C45 H73 0.931 . S
C46 C45 1.347 . S
C46 C47 1.369 . S
C47 C46 1.369 . S
C47 C48 1.408 . S
C47 H74 0.930 . S
C48 C43 1.348 . S
C48 C47 1.408 . S
C48 H75 0.930 . S
C49 O62 1.281 1_545 S
C49 O63 1.254 . S
C50 O64 1.236 1_565 S
C50 O65 1.266 . S
C51 Tb41 2.809 . S
C51 C52 1.514 . S
C51 O66 1.248 . S
C51 O67 1.266 . S
C52 C51 1.514 . S
C52 C53 1.359 . S
C52 C57 1.348 . S
C53 C52 1.359 . S
C53 C54 1.380 . S
C53 H76 0.929 . S
C54 C53 1.380 . S
C54 C55 1.347 . S
C54 H77 0.931 . S
C55 C54 1.347 . S
C55 C56 1.369 . S
C56 C55 1.369 . S
C56 C57 1.408 . S
C56 H78 0.930 . S
C57 C52 1.348 . S
C57 C56 1.408 . S
C57 H79 0.930 . S
C58 O68 1.281 1_565 S
C58 O69 1.254 . S
C59 O70 1.236 . S
C59 O71 1.266 . S
O60 Tb40 2.484 . S
O60 C42 1.248 . S
O61 Tb40 2.440 . S
O61 C42 1.266 . S
O62 Tb40 2.658 1_565 S
O62 Tb41 2.325 . S
O62 C49 1.281 1_565 S
O63 Tb40 2.409 . S
O63 C49 1.254 . S
O64 Tb40 2.378 . S
O64 C50 1.236 1_545 S
O65 Tb41 2.341 . S
O65 C50 1.266 . S
O66 Tb41 2.484 . S
O66 C51 1.248 . S
O67 Tb41 2.440 . S
O67 C51 1.266 . S
O68 Tb40 2.325 . S
O68 Tb41 2.658 1_545 S
O68 C58 1.281 1_545 S
O69 Tb41 2.409 . S
O69 C58 1.254 . S
O70 Tb41 2.378 1_545 S
O70 C59 1.236 . S
O71 Tb40 2.341 . S
O71 C59 1.266 . S
H72 C44 0.929 . S
H73 C45 0.931 . S
H74 C47 0.930 . S
H75 C48 0.930 . S
H76 C53 0.929 . S
H77 C54 0.931 . S
H78 C56 0.930 . S
H79 C57 0.930 . S
Tb80 C82 2.809 . S
Tb80 O100 2.484 . S
Tb80 O101 2.440 . S
Tb80 O102 2.658 . S
Tb80 O103 2.409 1_565 S
Tb80 O104 2.378 . S
Tb80 O108 2.325 . S
Tb80 O111 2.341 . S
Tb81 C91 2.809 . S
Tb81 O102 2.325 . S
Tb81 O105 2.341 . S
Tb81 O106 2.484 . S
Tb81 O107 2.440 . S
Tb81 O108 2.658 . S
Tb81 O109 2.409 . S
Tb81 O110 2.378 . S
C82 Tb80 2.809 . S
C82 C83 1.514 . S
C82 O100 1.248 . S
C82 O101 1.266 . S
C83 C82 1.514 . S
C83 C84 1.359 . S
C83 C88 1.348 . S
C84 C83 1.359 . S
C84 C85 1.380 . S
C84 H112 0.929 . S
C85 C84 1.380 . S
C85 C86 1.347 . S
C85 H113 0.931 . S
C86 C85 1.347 . S
C86 C87 1.369 1_565 S
C87 C86 1.369 1_545 S
C87 C88 1.408 1_545 S
C87 H114 0.930 . S
C88 C83 1.348 . S
C88 C87 1.408 1_565 S
C88 H115 0.930 1_565 S
C89 O102 1.281 . S
C89 O103 1.254 1_565 S
C90 O104 1.236 . S
C90 O105 1.266 . S
C91 Tb81 2.809 . S
C91 C92 1.514 . S
C91 O106 1.248 . S
C91 O107 1.266 . S
C92 C91 1.514 . S
C92 C93 1.359 . S
C92 C97 1.348 . S
C93 C92 1.359 . S
C93 C94 1.380 . S
C93 H116 0.931 1_655 S
C94 C93 1.380 . S
C94 C95 1.347 . S
C94 H117 0.931 1_655 S
C95 C94 1.347 . S
C95 C96 1.369 . S
C96 C95 1.369 . S
C96 C97 1.408 . S
C96 H118 0.930 . S
C97 C92 1.348 . S
C97 C96 1.408 . S
C97 H119 0.930 . S
C98 O108 1.281 . S
C98 O109 1.254 . S
C99 O110 1.236 . S
C99 O111 1.266 . S
O100 Tb80 2.484 . S
O100 C82 1.248 . S
O101 Tb80 2.440 . S
O101 C82 1.266 . S
O102 Tb80 2.658 . S
O102 Tb81 2.325 . S
O102 C89 1.281 . S
O103 Tb80 2.409 1_545 S
O103 C89 1.254 1_545 S
O104 Tb80 2.378 . S
O104 C90 1.236 . S
O105 Tb81 2.341 . S
O105 C90 1.266 . S
O106 Tb81 2.484 . S
O106 C91 1.248 . S
O107 Tb81 2.440 . S
O107 C91 1.266 . S
O108 Tb80 2.325 . S
O108 Tb81 2.658 . S
O108 C98 1.281 . S
O109 Tb81 2.409 . S
O109 C98 1.254 . S
O110 Tb81 2.378 . S
O110 C99 1.236 . S
O111 Tb80 2.341 . S
O111 C99 1.266 . S
H112 C84 0.929 . S
H113 C85 0.931 . S
H114 C87 0.930 . S
H115 C88 0.930 1_545 S
H116 C93 0.931 1_455 S
H117 C94 0.931 1_455 S
H118 C96 0.930 . S
H119 C97 0.930 . S
H120 C128 0.929 . S
H121 C130 0.930 1_545 S
H122 C132 0.930 . S
H123 C135 0.929 . S
H124 C138 0.930 . S
H125 C140 0.960 . S
H126 C140 0.960 . S
H127 C140 0.960 . S
C128 H120 0.929 . S
C128 C129 1.377 . S
C128 C130 1.384 . S
C129 C128 1.377 . S
C129 C135 1.390 1_455 S
C130 H121 0.930 1_565 S
C130 C128 1.384 . S
C130 C131 1.372 . S
C131 C130 1.372 . S
C131 C132 1.400 1_455 S
C131 C136 1.490 1_565 S
C132 H122 0.930 . S
C132 C131 1.400 1_655 S
C132 C135 1.386 . S
H133 C149 0.930 . S
H134 C150 0.931 . S
C135 H123 0.929 . S
C135 C129 1.390 1_655 S
C135 C132 1.386 . S
C136 C131 1.490 1_545 S
C136 C138 1.395 1_455 S
C136 C139 1.403 . S
H137 C143 0.930 . S
C138 H124 0.930 . S
C138 C136 1.395 1_655 S
C138 C141 1.403 . S
C139 C136 1.403 . S
C139 C140 1.524 . S
C139 C143 1.400 . S
C140 H125 0.960 . S
C140 H126 0.960 . S
C140 H127 0.960 . S
C140 C139 1.524 . S
C141 C138 1.403 . S
C141 C142 1.392 . S
C141 C145 1.495 . S
C142 C141 1.392 . S
C142 C143 1.385 1_655 S
C142 C144 1.478 . S
C143 H137 0.930 . S
C143 C139 1.400 . S
C143 C142 1.385 1_455 S
C144 C142 1.478 . S
C144 C146 1.381 1_655 S
C144 C150 1.383 . S
C145 C141 1.495 . S
C145 H151 0.959 . S
C145 H152 0.961 . S
C145 H153 0.960 . S
C146 C144 1.381 1_455 S
C146 C147 1.394 . S
C146 H154 0.930 . S
C147 C146 1.394 . S
C147 C148 1.383 1_455 S
C147 H155 0.929 . S
C148 C147 1.383 1_655 S
C148 C149 1.377 . S
C149 H133 0.930 . S
C149 C148 1.377 . S
C149 C150 1.379 . S
C150 H134 0.931 . S
C150 C144 1.383 . S
C150 C149 1.379 . S
H151 C145 0.959 . S
H152 C145 0.961 . S
H153 C145 0.960 . S
H154 C146 0.930 . S
H155 C147 0.929 . S
H156 C164 0.929 . S
H157 C166 0.930 . S
H158 C168 0.930 . S
H159 C171 0.929 . S
H160 C174 0.930 . S
H161 C176 0.960 . S
H162 C176 0.960 . S
H163 C176 0.960 . S
C164 H156 0.929 . S
C164 C165 1.377 1_565 S
C164 C166 1.384 . S
C165 C164 1.377 1_545 S
C165 C171 1.390 . S
C166 H157 0.930 . S
C166 C164 1.384 . S
C166 C167 1.372 1_565 S
C167 C166 1.372 1_545 S
C167 C168 1.400 . S
C167 C172 1.496 1_545 S
C168 H158 0.930 . S
C168 C167 1.400 . S
C168 C171 1.386 . S
H169 C185 0.930 . S
H170 C186 0.931 . S
C171 H159 0.929 . S
C171 C165 1.390 . S
C171 C168 1.386 . S
C172 C167 1.496 1_565 S
C172 C174 1.401 . S
C172 C175 1.390 1_565 S
H173 C179 0.930 . S
C174 H160 0.930 . S
C174 C172 1.401 . S
C174 C177 1.403 . S
C175 C172 1.390 1_545 S
C175 C176 1.524 . S
C175 C179 1.400 . S
C176 H161 0.960 . S
C176 H162 0.960 . S
C176 H163 0.960 . S
C176 C175 1.524 . S
C177 C174 1.403 . S
C177 C178 1.392 . S
C177 C181 1.495 . S
C178 C177 1.392 . S
C178 C179 1.385 1_565 S
C178 C180 1.478 . S
C179 H173 0.930 . S
C179 C175 1.400 . S
C179 C178 1.385 1_545 S
C180 C178 1.478 . S
C180 C182 1.381 1_455 S
C180 C186 1.383 1_565 S
C181 C177 1.495 . S
C181 H187 0.959 . S
C181 H188 0.961 . S
C181 H189 0.960 1_455 S
C182 C180 1.381 1_655 S
C182 C183 1.394 . S
C182 H190 0.930 . S
C183 C182 1.394 . S
C183 C184 1.383 . S
C183 H191 0.929 . S
C184 C183 1.383 . S
C184 C185 1.377 1_565 S
C185 H169 0.930 . S
C185 C184 1.377 1_545 S
C185 C186 1.379 1_655 S
C186 H170 0.931 . S
C186 C180 1.383 1_545 S
C186 C185 1.379 1_455 S
H187 C181 0.959 . S
H188 C181 0.961 . S
H189 C181 0.960 1_655 S
H190 C182 0.930 . S
H191 C183 0.929 . S
H192 C200 0.929 1_565 S
H193 C202 0.930 . S
H194 C204 0.930 . S
H195 C207 0.929 . S
H196 C210 0.930 . S
H197 C212 0.960 . S
H198 C212 0.960 . S
H199 C212 0.960 . S
C200 H192 0.929 1_545 S
C200 C201 1.377 1_455 S
C200 C202 1.384 . S
C201 C200 1.377 1_655 S
C201 C207 1.390 . S
C202 H193 0.930 . S
C202 C200 1.384 . S
C202 C203 1.372 . S
C203 C202 1.372 . S
C203 C204 1.400 . S
C203 C208 1.490 . S
C204 H194 0.930 . S
C204 C203 1.400 . S
C204 C207 1.386 1_455 S
H205 C221 0.930 . S
H206 C222 0.931 . S
C207 H195 0.929 . S
C207 C201 1.390 . S
C207 C204 1.386 1_655 S
C208 C203 1.490 . S
C208 C210 1.395 . S
C208 C211 1.403 . S
H209 C215 0.930 . S
C210 H196 0.930 . S
C210 C208 1.395 . S
C210 C213 1.403 . S
C211 C208 1.403 . S
C211 C212 1.524 . S
C211 C215 1.400 . S
C212 H197 0.960 . S
C212 H198 0.960 . S
C212 H199 0.960 . S
C212 C211 1.524 . S
C213 C210 1.403 . S
C213 C214 1.392 . S
C213 C217 1.495 . S
C214 C213 1.392 . S
C214 C215 1.385 . S
C214 C216 1.478 . S
C215 H209 0.930 . S
C215 C211 1.400 . S
C215 C214 1.385 . S
C216 C214 1.478 . S
C216 C218 1.381 . S
C216 C222 1.383 . S
C217 C213 1.495 . S
C217 H223 0.959 . S
C217 H224 0.961 . S
C217 H225 0.960 . S
C218 C216 1.381 . S
C218 C219 1.394 . S
C218 H226 0.930 . S
C219 C218 1.394 . S
C219 C220 1.383 . S
C219 H227 0.929 . S
C220 C219 1.383 . S
C220 C221 1.377 . S
C221 H205 0.930 . S
C221 C220 1.377 . S
C221 C222 1.379 . S
C222 H206 0.931 . S
C222 C216 1.383 . S
C222 C221 1.379 . S
H223 C217 0.959 . S
H224 C217 0.961 . S
H225 C217 0.960 . S
H226 C218 0.930 . S
H227 C219 0.929 . S
H228 C236 0.929 . S
H229 C238 0.930 . S
H230 C240 0.930 . S
H231 C243 0.929 . S
H232 C246 0.929 1_545 S
H233 C248 0.960 . S
H234 C248 0.960 . S
H235 C248 0.960 . S
C236 H228 0.929 . S
C236 C237 1.377 . S
C236 C238 1.384 . S
C237 C236 1.377 . S
C237 C243 1.390 . S
C238 H229 0.930 . S
C238 C236 1.384 . S
C238 C239 1.372 . S
C239 C238 1.372 . S
C239 C240 1.400 . S
C239 C244 1.490 . S
C240 H230 0.930 . S
C240 C239 1.400 . S
C240 C243 1.386 . S
H241 C257 0.930 . S
H242 C258 0.931 1_556 S
C243 H231 0.929 . S
C243 C237 1.390 . S
C243 C240 1.386 . S
C244 C239 1.490 . S
C244 C246 1.397 . S
C244 C247 1.403 . S
H245 C251 0.930 . S
C246 H232 0.929 1_565 S
C246 C244 1.397 . S
C246 C249 1.402 . S
C247 C244 1.403 . S
C247 C248 1.524 . S
C247 C251 1.400 . S
C248 H233 0.960 . S
C248 H234 0.960 . S
C248 H235 0.960 . S
C248 C247 1.524 . S
C249 C246 1.402 . S
C249 C250 1.395 . S
C249 C253 1.495 1_565 S
C250 C249 1.395 . S
C250 C251 1.389 . S
C250 C252 1.471 1_556 S
C251 H245 0.930 . S
C251 C247 1.400 . S
C251 C250 1.389 . S
C252 C250 1.471 1_554 S
C252 C254 1.381 . S
C252 C258 1.383 . S
C253 C249 1.495 1_545 S
C253 H259 0.959 . S
C253 H260 0.961 . S
C253 H261 0.960 1_556 S
C254 C252 1.381 . S
C254 C255 1.394 . S
C254 H262 0.930 . S
C255 C254 1.394 . S
C255 C256 1.383 . S
C255 H263 0.929 . S
C256 C255 1.383 . S
C256 C257 1.377 . S
C257 H241 0.930 . S
C257 C256 1.377 . S
C257 C258 1.379 . S
C258 H242 0.931 1_554 S
C258 C252 1.383 . S
C258 C257 1.379 . S
H259 C253 0.959 . S
H260 C253 0.961 . S
H261 C253 0.960 1_554 S
H262 C254 0.930 . S
H263 C255 0.929 . S
H264 C272 0.929 . S
H265 C274 0.930 . S
H266 C276 0.930 . S
H267 C279 0.929 . S
H268 C282 0.930 . S
H269 C284 0.960 . S
H270 C284 0.960 . S
H271 C284 0.960 . S
C272 H264 0.929 . S
C272 C273 1.377 . S
C272 C274 1.384 . S
C273 C272 1.377 . S
C273 C279 1.390 . S
C274 H265 0.930 . S
C274 C272 1.384 . S
C274 C275 1.372 . S
C275 C274 1.372 . S
C275 C276 1.400 . S
C275 C280 1.490 . S
C276 H266 0.930 . S
C276 C275 1.400 . S
C276 C279 1.386 . S
H277 C293 0.930 . S
H278 C294 0.931 . S
C279 H267 0.929 . S
C279 C273 1.390 . S
C279 C276 1.386 . S
C280 C275 1.490 . S
C280 C282 1.395 . S
C280 C283 1.403 . S
H281 C287 0.930 . S
C282 H268 0.930 . S
C282 C280 1.395 . S
C282 C285 1.403 . S
C283 C280 1.403 . S
C283 C284 1.524 . S
C283 C287 1.400 . S
C284 H269 0.960 . S
C284 H270 0.960 . S
C284 H271 0.960 . S
C284 C283 1.524 . S
C285 C282 1.403 . S
C285 C286 1.392 . S
C285 C289 1.495 . S
C286 C285 1.392 . S
C286 C287 1.385 . S
C286 C288 1.478 . S
C287 H281 0.930 . S
C287 C283 1.400 . S
C287 C286 1.385 . S
C288 C286 1.478 . S
C288 C290 1.381 . S
C288 C294 1.383 . S
C289 C285 1.495 . S
C289 H295 0.959 . S
C289 H296 0.961 . S
C289 H297 0.960 . S
C290 C288 1.381 . S
C290 C291 1.394 . S
C290 H298 0.930 . S
C291 C290 1.394 . S
C291 C292 1.383 . S
C291 H299 0.929 . S
C292 C291 1.383 . S
C292 C293 1.377 . S
C293 H277 0.930 . S
C293 C292 1.377 . S
C293 C294 1.379 . S
C294 H278 0.931 . S
C294 C288 1.383 . S
C294 C293 1.379 . S
H295 C289 0.959 . S
H296 C289 0.961 . S
H297 C289 0.960 . S
H298 C290 0.930 . S
H299 C291 0.929 . S
H300 C308 0.929 . S
H301 C310 0.930 . S
H302 C312 0.930 . S
H303 C315 0.929 . S
H304 C318 0.919 1_545 S
H305 C320 0.960 . S
H306 C320 0.960 . S
H307 C320 0.960 . S
C308 H300 0.929 . S
C308 C309 1.377 . S
C308 C310 1.384 . S
C309 C308 1.377 . S
C309 C315 1.390 . S
C310 H301 0.930 . S
C310 C308 1.384 . S
C310 C311 1.372 . S
C311 C310 1.372 . S
C311 C312 1.400 . S
C311 C316 1.490 . S
C312 H302 0.930 . S
C312 C311 1.400 . S
C312 C315 1.386 . S
H313 C329 0.930 . S
H314 C330 0.931 . S
C315 H303 0.929 . S
C315 C309 1.390 . S
C315 C312 1.386 . S
C316 C311 1.490 . S
C316 C318 1.395 . S
C316 C319 1.403 . S
H317 C323 0.930 . S
C318 H304 0.919 1_565 S
C318 C316 1.395 . S
C318 C321 1.403 . S
C319 C316 1.403 . S
C319 C320 1.524 . S
C319 C323 1.400 . S
C320 H305 0.960 . S
C320 H306 0.960 . S
C320 H307 0.960 . S
C320 C319 1.524 . S
C321 C318 1.403 . S
C321 C322 1.392 . S
C321 C325 1.495 1_565 S
C322 C321 1.392 . S
C322 C323 1.385 . S
C322 C324 1.478 . S
C323 H317 0.930 . S
C323 C319 1.400 . S
C323 C322 1.385 . S
C324 C322 1.478 . S
C324 C326 1.381 . S
C324 C330 1.383 . S
C325 C321 1.495 1_545 S
C325 H331 0.959 . S
C325 H332 0.961 . S
C325 H333 0.960 . S
C326 C324 1.381 . S
C326 C327 1.394 . S
C326 H334 0.930 . S
C327 C326 1.394 . S
C327 C328 1.383 . S
C327 H335 0.929 . S
C328 C327 1.383 . S
C328 C329 1.377 . S
C329 H313 0.930 . S
C329 C328 1.377 . S
C329 C330 1.379 . S
C330 H314 0.931 . S
C330 C324 1.383 . S
C330 C329 1.379 . S
H331 C325 0.959 . S
H332 C325 0.961 . S
H333 C325 0.960 . S
H334 C326 0.930 . S
H335 C327 0.929 . S
H336 C344 0.929 . S
H337 C346 0.930 . S
H338 C348 0.930 . S
H339 C351 0.929 . S
H340 C354 0.930 . S
H341 C356 0.960 . S
H342 C356 0.960 . S
H343 C356 0.960 . S
C344 H336 0.929 . S
C344 C345 1.377 . S
C344 C346 1.384 . S
C345 C344 1.377 . S
C345 C351 1.390 . S
C346 H337 0.930 . S
C346 C344 1.384 . S
C346 C347 1.372 . S
C347 C346 1.372 . S
C347 C348 1.400 . S
C347 C352 1.490 . S
C348 H338 0.930 . S
C348 C347 1.400 . S
C348 C351 1.386 . S
H349 C365 0.930 . S
H350 C366 0.931 . S
C351 H339 0.929 . S
C351 C345 1.390 . S
C351 C348 1.386 . S
C352 C347 1.490 . S
C352 C354 1.395 . S
C352 C355 1.403 . S
H353 C359 0.930 . S
C354 H340 0.930 . S
C354 C352 1.395 . S
C354 C357 1.403 1_556 S
C355 C352 1.403 . S
C355 C356 1.524 . S
C355 C359 1.400 1_556 S
C356 H341 0.960 . S
C356 H342 0.960 . S
C356 H343 0.960 . S
C356 C355 1.524 . S
C357 C354 1.403 1_554 S
C357 C358 1.392 . S
C357 C361 1.495 . S
C358 C357 1.392 . S
C358 C359 1.385 . S
C358 C360 1.478 . S
C359 H353 0.930 . S
C359 C355 1.400 1_554 S
C359 C358 1.385 . S
C360 C358 1.478 . S
C360 C362 1.381 . S
C360 C366 1.383 . S
C361 C357 1.495 . S
C361 H367 0.959 1_655 S
C361 H368 0.961 . S
C361 H369 0.960 1_655 S
C362 C360 1.381 . S
C362 C363 1.394 . S
C362 H370 0.930 1_655 S
C363 C362 1.394 . S
C363 C364 1.383 . S
C363 H371 0.929 1_655 S
C364 C363 1.383 . S
C364 C365 1.377 . S
C365 H349 0.930 . S
C365 C364 1.377 . S
C365 C366 1.379 . S
C366 H350 0.931 . S
C366 C360 1.383 . S
C366 C365 1.379 . S
H367 C361 0.959 1_455 S
H368 C361 0.961 . S
H369 C361 0.960 1_455 S
H370 C362 0.930 1_455 S
H371 C363 0.929 1_455 S
H372 C380 0.929 . S
H373 C382 0.930 . S
H374 C384 0.930 . S
H375 C387 0.929 . S
H376 C390 0.930 . S
H377 C392 0.960 . S
H378 C392 0.960 . S
H379 C392 0.960 . S
C380 H372 0.929 . S
C380 C381 1.377 . S
C380 C382 1.384 . S
C381 C380 1.377 . S
C381 C387 1.390 . S
C382 H373 0.930 . S
C382 C380 1.384 . S
C382 C383 1.372 . S
C383 C382 1.372 . S
C383 C384 1.400 . S
C383 C388 1.490 . S
C384 H374 0.930 . S
C384 C383 1.400 . S
C384 C387 1.386 . S
H385 C401 0.930 . S
H386 C402 0.931 . S
C387 H375 0.929 . S
C387 C381 1.390 . S
C387 C384 1.386 . S
C388 C383 1.490 . S
C388 C390 1.395 . S
C388 C391 1.403 . S
H389 C395 0.930 . S
C390 H376 0.930 . S
C390 C388 1.395 . S
C390 C393 1.403 . S
C391 C388 1.403 . S
C391 C392 1.524 . S
C391 C395 1.400 . S
C392 H377 0.960 . S
C392 H378 0.960 . S
C392 H379 0.960 . S
C392 C391 1.524 . S
C393 C390 1.403 . S
C393 C394 1.392 . S
C393 C397 1.495 . S
C394 C393 1.392 . S
C394 C395 1.385 . S
C394 C396 1.478 . S
C395 H389 0.930 . S
C395 C391 1.400 . S
C395 C394 1.385 . S
C396 C394 1.478 . S
C396 C398 1.381 . S
C396 C402 1.383 . S
C397 C393 1.495 . S
C397 H403 0.959 . S
C397 H404 0.961 . S
C397 H405 0.960 . S
C398 C396 1.381 . S
C398 C399 1.394 . S
C398 H406 0.930 . S
C399 C398 1.394 . S
C399 C400 1.383 . S
C399 H407 0.929 . S
C400 C399 1.383 . S
C400 C401 1.377 . S
C401 H385 0.930 . S
C401 C400 1.377 . S
C401 C402 1.379 . S
C402 H386 0.931 . S
C402 C396 1.383 . S
C402 C401 1.379 . S
H403 C397 0.959 . S
H404 C397 0.961 . S
H405 C397 0.960 . S
H406 C398 0.930 . S
H407 C399 0.929 . S
H408 C416 0.929 . S
H409 C418 0.930 . S
H410 C420 0.930 . S
H411 C423 0.929 . S
H412 C426 0.930 . S
H413 C428 0.960 . S
H414 C428 0.960 . S
H415 C428 0.960 . S
C416 H408 0.929 . S
C416 C417 1.377 . S
C416 C418 1.384 . S
C417 C416 1.377 . S
C417 C423 1.390 1_655 S
C418 H409 0.930 . S
C418 C416 1.384 . S
C418 C419 1.372 . S
C419 C418 1.372 . S
C419 C420 1.400 1_655 S
C419 C424 1.490 . S
C420 H410 0.930 . S
C420 C419 1.400 1_455 S
C420 C423 1.386 . S
H421 C437 0.930 . S
H422 C438 0.931 1_455 S
C423 H411 0.929 . S
C423 C417 1.390 1_455 S
C423 C420 1.386 . S
C424 C419 1.490 . S
C424 C426 1.395 . S
C424 C427 1.403 . S
H425 C431 0.930 . S
C426 H412 0.930 . S
C426 C424 1.395 . S
C426 C429 1.403 . S
C427 C424 1.403 . S
C427 C428 1.524 . S
C427 C431 1.400 . S
C428 H413 0.960 . S
C428 H414 0.960 . S
C428 H415 0.960 . S
C428 C427 1.524 . S
C429 C426 1.403 . S
C429 C430 1.392 . S
C429 C433 1.495 . S
C430 C429 1.392 . S
C430 C431 1.385 . S
C430 C432 1.478 . S
C431 H425 0.930 . S
C431 C427 1.400 . S
C431 C430 1.385 . S
C432 C430 1.478 . S
C432 C434 1.381 . S
C432 C438 1.383 . S
C433 C429 1.495 . S
C433 H439 0.959 . S
C433 H440 0.961 . S
C433 H441 0.960 . S
C434 C432 1.381 . S
C434 C435 1.394 . S
C434 H442 0.930 . S
C435 C434 1.394 . S
C435 C436 1.383 . S
C435 H443 0.929 . S
C436 C435 1.383 . S
C436 C437 1.377 . S
C437 H421 0.930 . S
C437 C436 1.377 . S
C437 C438 1.379 . S
C438 H422 0.931 1_655 S
C438 C432 1.383 . S
C438 C437 1.379 . S
H439 C433 0.959 . S
H440 C433 0.961 . S
H441 C433 0.960 . S
H442 C434 0.930 . S
H443 C435 0.929 . S
C129 C9 1.317 1_455 S
C148 C18 1.315 1_655 S
C165 C58 1.371 1_545 S
C184 C49 1.392 1_565 S
C201 C89 1.164 1_545 S
C220 C98 1.140 . S
C237 C86 0.906 . S
C256 C15 0.926 . S
C273 C59 1.730 . S
C292 C6 1.699 . S
C309 C99 2.264 . S
C328 C50 2.247 . S
C345 C90 2.223 . S
C364 C19 2.193 . S
C381 C10 1.597 . S
C400 C55 1.565 . S
C417 C95 0.916 . S
C436 C46 0.916 . S
