# Generated by pormake.
# Topology vby, (6)-cn, num edge types: 1
# Building blocks:
#     Node 0, Type 0, BuildingBlock: MIDCAF_clean_sbu_0, # of connection points: 6
#     Node 1, Type 0, BuildingBlock: MIDCAF_clean_sbu_0, # of connection points: 6
#     Node 2, Type 0, BuildingBlock: MIDCAF_clean_sbu_0, # of connection points: 6
#     Node 3, Type 0, BuildingBlock: MIDCAF_clean_sbu_0, # of connection points: 6
#     Node 4, Type 0, BuildingBlock: MIDCAF_clean_sbu_0, # of connection points: 6
#     Node 5, Type 0, BuildingBlock: MIDCAF_clean_sbu_0, # of connection points: 6
#     Node 6, Type 0, BuildingBlock: MIDCAF_clean_sbu_0, # of connection points: 6
#     Node 7, Type 0, BuildingBlock: MIDCAF_clean_sbu_0, # of connection points: 6
#     Edge 8, Type (0, 0), BuildingBlock: UVAHIK_clean_linker_0, # of connection points: 2
#     Edge 9, Type (0, 0), BuildingBlock: UVAHIK_clean_linker_0, # of connection points: 2
#     Edge 10, Type (0, 0), BuildingBlock: UVAHIK_clean_linker_0, # of connection points: 2
#     Edge 11, Type (0, 0), BuildingBlock: UVAHIK_clean_linker_0, # of connection points: 2
#     Edge 12, Type (0, 0), BuildingBlock: UVAHIK_clean_linker_0, # of connection points: 2
#     Edge 13, Type (0, 0), BuildingBlock: UVAHIK_clean_linker_0, # of connection points: 2
#     Edge 14, Type (0, 0), BuildingBlock: UVAHIK_clean_linker_0, # of connection points: 2
#     Edge 15, Type (0, 0), BuildingBlock: UVAHIK_clean_linker_0, # of connection points: 2
#     Edge 16, Type (0, 0), BuildingBlock: UVAHIK_clean_linker_0, # of connection points: 2
#     Edge 17, Type (0, 0), BuildingBlock: UVAHIK_clean_linker_0, # of connection points: 2
#     Edge 18, Type (0, 0), BuildingBlock: UVAHIK_clean_linker_0, # of connection points: 2
#     Edge 19, Type (0, 0), BuildingBlock: UVAHIK_clean_linker_0, # of connection points: 2
#     Edge 20, Type (0, 0), BuildingBlock: UVAHIK_clean_linker_0, # of connection points: 2
#     Edge 21, Type (0, 0), BuildingBlock: UVAHIK_clean_linker_0, # of connection points: 2
#     Edge 22, Type (0, 0), BuildingBlock: UVAHIK_clean_linker_0, # of connection points: 2
#     Edge 23, Type (0, 0), BuildingBlock: UVAHIK_clean_linker_0, # of connection points: 2
#     Edge 24, Type (0, 0), BuildingBlock: UVAHIK_clean_linker_0, # of connection points: 2
#     Edge 25, Type (0, 0), BuildingBlock: UVAHIK_clean_linker_0, # of connection points: 2
#     Edge 26, Type (0, 0), BuildingBlock: UVAHIK_clean_linker_0, # of connection points: 2
#     Edge 27, Type (0, 0), BuildingBlock: UVAHIK_clean_linker_0, # of connection points: 2
#     Edge 28, Type (0, 0), BuildingBlock: UVAHIK_clean_linker_0, # of connection points: 2
#     Edge 29, Type (0, 0), BuildingBlock: UVAHIK_clean_linker_0, # of connection points: 2
#     Edge 30, Type (0, 0), BuildingBlock: UVAHIK_clean_linker_0, # of connection points: 2
#     Edge 31, Type (0, 0), BuildingBlock: UVAHIK_clean_linker_0, # of connection points: 2
# Relax obj value: 0.139
# Max RMSD: 0.180
# Mean RMSD: 0.180
data_MOF--net-vby--node1-MIDCAF_clean_sbu_0--edge1-UVAHIK_clean_linker_0
_symmetry_space_group_name_H-M    P1
_symmetry_Int_Tables_number       1
_symmetry_cell_setting            triclinic
loop_
_symmetry_equiv_pos_as_xyz
'x, y, z'
_cell_length_a     19.20646
_cell_length_b     75.110439
_cell_length_c     38.794819
_cell_angle_alpha  90.173093
_cell_angle_beta   89.977678
_cell_angle_gamma 90.104804
loop_
_atom_site_label
_atom_site_type_symbol
_atom_site_fract_x
_atom_site_fract_y
_atom_site_fract_z
_atom_type_partial_charge
Zn0 Zn 0.09485 0.35636 0.06224 0.0
Zn1 Zn 0.20698 0.40944 1.0007 0.0
Zn2 Zn 0.1432 0.38462 0.03302 0.0
C3 C 0.07237 0.42173 0.01332 0.0
C4 C 0.20711 0.38234 0.95387 0.0
O5 O 0.16022 0.3602 1.00014 0.0
O6 O 0.12288 0.33722 0.03062 0.0
C7 C 0.17696 0.37253 0.11204 0.0
O8 O 0.06527 0.40632 0.02743 0.0
O9 O 0.12919 0.42615 0.99951 0.0
O10 O 0.23083 0.39794 0.95669 0.0
O11 O 0.17523 0.37515 0.97976 0.0
O12 O 0.1396 0.35882 0.10818 0.0
O13 O 0.18813 0.38292 0.08614 0.0
O14 O 0.0327 0.39105 0.04261 0.0
O15 O 0.99719 0.36454 0.05994 0.0
C16 C 0.98362 0.38053 0.05257 0.0
O17 O 0.23344 0.39309 0.06486 0.0
O18 O 0.28143 0.41455 0.03398 0.0
C19 C 0.15092 0.34325 1.0037 0.0
C20 C 0.28122 0.40496 0.06062 0.0
Zn21 Zn 0.82456 0.62063 0.95265 0.0
Zn22 Zn 0.98605 0.66498 0.00902 0.0
Zn23 Zn 0.90273 0.64109 0.98829 0.0
C24 C 0.06787 0.63589 0.99921 0.0
C25 C 0.89334 0.65513 0.06363 0.0
O26 O 0.81083 0.63626 0.02172 0.0
O27 O 0.74858 0.61931 0.98652 0.0
C28 C 0.84735 0.64725 0.90834 0.0
O29 O 0.00683 0.62891 0.99628 0.0
O30 O 0.07506 0.65256 1.00092 0.0
O31 O 0.94772 0.66389 0.05659 0.0
O32 O 0.86233 0.64601 0.04008 0.0
O33 O 0.81089 0.63329 0.90905 0.0
O34 O 0.88131 0.65214 0.93557 0.0
O35 O 0.96043 0.61565 0.98296 0.0
O36 O 0.88725 0.59997 0.9511 0.0
C37 C 0.94369 0.60104 0.96758 0.0
O38 O 0.89534 0.66679 0.95791 0.0
O39 O 0.96427 0.68644 0.98297 0.0
C40 C 0.75575 0.62705 0.01521 0.0
C41 C 0.91852 0.68293 0.96069 0.0
Zn42 Zn 0.13438 0.61595 0.5185 0.0
Zn43 Zn 0.96119 0.65653 0.4749 0.0
Zn44 Zn 0.04821 0.6328 0.48834 0.0
C45 C 0.88573 0.62575 0.48443 0.0
C46 C 0.04501 0.64869 0.41541 0.0
O47 O 0.14041 0.6311 0.45422 0.0
O48 O 0.21575 0.62771 0.49656 0.0
C49 C 0.08215 0.6347 0.57037 0.0
O50 O 0.94726 0.6192 0.4812 0.0
O51 O 0.87769 0.64233 0.48817 0.0
O52 O 0.98946 0.65612 0.42535 0.0
O53 O 0.08235 0.63986 0.43679 0.0
O54 O 0.11439 0.62014 0.56807 0.0
O55 O 0.06177 0.64248 0.54252 0.0
O56 O 0.00046 0.60603 0.4892 0.0
O57 O 0.10224 0.59322 0.49701 0.0
C58 C 0.03878 0.592 0.48875 0.0
O59 O 0.05831 0.65756 0.52168 0.0
O60 O 0.98844 0.67814 0.50063 0.0
C61 C 0.20368 0.63062 0.46509 0.0
C62 C 0.03696 0.67392 0.52086 0.0
Zn63 Zn 0.00699 0.3428 0.49168 0.0
Zn64 Zn 0.91783 0.3915 0.58068 0.0
Zn65 Zn 0.96478 0.36889 0.53435 0.0
C66 C 0.93467 0.40998 0.51757 0.0
C67 C 0.0353 0.37825 0.61003 0.0
O68 O 0.88606 0.34692 0.52948 0.0
O69 O 0.92491 0.32691 0.4922 0.0
C70 C 0.01286 0.37565 0.45551 0.0
O71 O 0.96073 0.39507 0.50721 0.0
O72 O 0.91127 0.41147 0.54787 0.0
O73 O 0.99376 0.39098 0.6151 0.0
O74 O 0.03107 0.36892 0.58208 0.0
O75 O 0.02154 0.35907 0.45209 0.0
O76 O 0.99182 0.38225 0.48447 0.0
O77 O 0.06068 0.35822 0.55562 0.0
O78 O 0.0895 0.33623 0.52028 0.0
C79 C 0.10202 0.34554 0.54676 0.0
O80 O 0.85866 0.36124 0.54897 0.0
O81 O 0.82999 0.37896 0.59242 0.0
C82 C 0.87874 0.33204 0.51309 0.0
C83 C 0.81516 0.36628 0.57232 0.0
Zn84 Zn 0.47304 0.85947 0.0189 0.0
Zn85 Zn 0.64899 0.89544 0.96168 0.0
Zn86 Zn 0.56136 0.88079 0.99919 0.0
C87 C 0.54919 0.92127 0.98052 0.0
C88 C 0.59716 0.87225 0.91692 0.0
O89 O 0.56518 0.85429 0.97097 0.0
O90 O 0.49717 0.83598 0.99979 0.0
C91 C 0.55826 0.86957 0.07563 0.0
O92 O 0.5166 0.90763 0.99244 0.0
O93 O 0.60903 0.91949 0.96751 0.0
O94 O 0.63849 0.88526 0.91522 0.0
O95 O 0.57046 0.86798 0.94643 0.0
O96 O 0.49974 0.86297 0.06793 0.0
O97 O 0.59778 0.87602 0.05199 0.0
O98 O 0.46224 0.89554 1.00511 0.0
O99 O 0.39016 0.87265 1.00221 0.0
C100 C 0.39991 0.88927 1.00321 0.0
O101 O 0.65449 0.88389 0.03226 0.0
O102 O 0.73027 0.88941 0.99068 0.0
C103 C 0.54278 0.83832 0.97691 0.0
C104 C 0.71752 0.88636 0.02204 0.0
Zn105 Zn 0.39146 0.12048 0.95049 0.0
Zn106 Zn 0.49478 0.16864 0.0259 0.0
Zn107 Zn 0.44385 0.14271 0.99268 0.0
C108 C 0.59618 0.14209 0.02553 0.0
C109 C 0.39076 0.15478 0.06763 0.0
O110 O 0.34702 0.13338 0.01771 0.0
O111 O 0.30785 0.11495 0.97775 0.0
C112 C 0.40229 0.14975 0.91101 0.0
O113 O 0.54952 0.13388 0.00769 0.0
O114 O 0.58553 0.15782 0.0357 0.0
O115 O 0.43054 0.16812 0.0655 0.0
O116 O 0.38592 0.14384 0.04208 0.0
O117 O 0.37971 0.13407 0.90806 0.0
O118 O 0.42631 0.15519 0.94038 0.0
O119 O 0.51718 0.11972 0.98947 0.0
O120 O 0.46525 0.10249 0.95098 0.0
C121 C 0.51444 0.10513 0.97189 0.0
O122 O 0.43763 0.1691 0.96425 0.0
O123 O 0.49107 0.18944 0.99592 0.0
C124 C 0.30061 0.12232 0.00681 0.0
C125 C 0.45701 0.18544 0.96926 0.0
Zn126 Zn 0.58429 0.11895 0.5362 0.0
Zn127 Zn 0.41072 0.15669 0.47345 0.0
Zn128 Zn 0.50096 0.13531 0.49679 0.0
C129 C 0.33738 0.12646 0.48782 0.0
C130 C 0.50595 0.14661 0.41969 0.0
O131 O 0.59312 0.13023 0.46361 0.0
O132 O 0.66135 0.11793 0.50284 0.0
C133 C 0.55541 0.14719 0.5753 0.0
O134 O 0.40004 0.12072 0.49191 0.0
O135 O 0.32614 0.14279 0.48305 0.0
O136 O 0.44978 0.1547 0.42614 0.0
O137 O 0.53931 0.13869 0.44394 0.0
O138 O 0.59377 0.13366 0.57766 0.0
O139 O 0.52089 0.1499 0.54715 0.0
O140 O 0.45088 0.10909 0.50707 0.0
O141 O 0.52966 0.09695 0.54115 0.0
C142 C 0.473 0.09579 0.52488 0.0
O143 O 0.50142 0.16264 0.52186 0.0
O144 O 0.42375 0.17972 0.49618 0.0
C145 C 0.65155 0.1232 0.47238 0.0
C146 C 0.47258 0.17806 0.51758 0.0
Zn147 Zn 0.49888 0.84602 0.48609 0.0
Zn148 Zn 0.33173 0.8891 0.54135 0.0
Zn149 Zn 0.41346 0.87009 0.50492 0.0
C150 C 0.44874 0.91011 0.52729 0.0
C151 C 0.35855 0.86261 0.5851 0.0
O152 O 0.40306 0.84396 0.53345 0.0
O153 O 0.47423 0.82406 0.51069 0.0
C154 C 0.41243 0.85696 0.42903 0.0
O155 O 0.46927 0.89574 0.51228 0.0
O156 O 0.39049 0.91059 0.54227 0.0
O157 O 0.32187 0.87651 0.58539 0.0
O158 O 0.39132 0.85818 0.55722 0.0
O159 O 0.46573 0.84812 0.43744 0.0
O160 O 0.37815 0.86568 0.45203 0.0
O161 O 0.51754 0.88258 0.49908 0.0
O162 O 0.58574 0.85889 0.49796 0.0
C163 C 0.57872 0.87559 0.49854 0.0
O164 O 0.3236 0.87475 0.47034 0.0
O165 O 0.25556 0.88892 0.50742 0.0
C166 C 0.42572 0.82776 0.53136 0.0
C167 C 0.26567 0.88244 0.47778 0.0
C168 C 0.37709 0.42234 0.08709 0.0
C169 C 0.34238 0.40599 0.08334 0.0
C170 C 0.44693 0.42283 0.09687 0.0
C171 C 0.59695 0.4177 0.07789 0.0
H172 H 0.69756 0.38162 0.12859 0.0
C173 C 0.85814 0.37401 0.06179 0.0
C174 C 0.91138 0.38674 0.05809 0.0
C175 C 0.79146 0.37906 0.07174 0.0
C176 C 0.67011 0.39186 0.11446 0.0
H177 H 0.35016 0.37754 0.09086 0.0
H178 H 0.47257 0.37822 0.10709 0.0
H179 H 0.57357 0.38597 0.1396 0.0
H180 H 0.93552 0.41485 0.06121 0.0
H181 H 0.81718 0.42388 0.07756 0.0
H182 H 0.69319 0.42315 0.05199 0.0
C183 C 0.44622 0.39076 0.10291 0.0
C184 C 0.59916 0.39433 0.12074 0.0
C185 C 0.37583 0.39032 0.09366 0.0
C186 C 0.89548 0.4048 0.06328 0.0
C187 C 0.82803 0.40992 0.07301 0.0
C188 C 0.66801 0.4153 0.07182 0.0
C189 C 0.48361 0.40693 0.10244 0.0
C190 C 0.5611 0.40683 0.1016 0.0
C191 C 0.77591 0.397 0.07808 0.0
C192 C 0.70458 0.40189 0.08907 0.0
H193 H 0.35192 0.43465 0.07962 0.0
H194 H 0.47353 0.43556 0.0974 0.0
H195 H 0.5694 0.42729 0.06223 0.0
H196 H 0.86827 0.35998 0.0577 0.0
H197 H 0.75188 0.36887 0.0745 0.0
C198 C 0.18477 0.6255 0.98172 0.0
C199 C 0.12978 0.62501 0.00542 0.0
C200 C 0.25174 0.62049 0.99179 0.0
C201 C 0.36137 0.62524 0.06504 0.0
H202 H 0.49284 0.59698 0.01257 0.0
C203 C 0.67329 0.60828 0.0471 0.0
C204 C 0.6976 0.62546 0.03955 0.0
C205 C 0.60358 0.60549 0.05562 0.0
C206 C 0.4567 0.60467 0.02801 0.0
H207 H 0.1 0.61841 0.05764 0.0
H208 H 0.218 0.61 0.07563 0.0
H209 H 0.36886 0.59502 0.99939 0.0
H210 H 0.67102 0.6534 0.03873 0.0
H211 H 0.54873 0.64863 0.05405 0.0
H212 H 0.44996 0.63586 0.092 0.0
C213 C 0.20898 0.61387 0.04913 0.0
C214 C 0.38584 0.60359 0.02028 0.0
C215 C 0.1416 0.61846 0.03875 0.0
C216 C 0.65361 0.64007 0.04501 0.0
C217 C 0.5835 0.63729 0.05354 0.0
C218 C 0.43259 0.62658 0.07238 0.0
C219 C 0.26493 0.61543 0.02603 0.0
C220 C 0.33773 0.61413 0.03821 0.0
C221 C 0.55701 0.61987 0.05656 0.0
C222 C 0.48107 0.61655 0.05345 0.0
H223 H 0.17691 0.63093 0.95617 0.0
H224 H 0.29415 0.62196 0.97359 0.0
H225 H 0.32522 0.63367 0.07895 0.0
H226 H 0.70635 0.59681 0.04274 0.0
H227 H 0.58478 0.59196 0.05834 0.0
C228 C 0.76678 0.61602 0.50023 0.0
C229 C 0.82311 0.61513 0.47729 0.0
C230 C 0.69957 0.61186 0.489 0.0
C231 C 0.59765 0.62095 0.41648 0.0
H232 H 0.45298 0.59344 0.4614 0.0
C233 C 0.27854 0.61312 0.42636 0.0
C234 C 0.26343 0.62963 0.44165 0.0
C235 C 0.34728 0.60869 0.41804 0.0
C236 C 0.49292 0.60093 0.44803 0.0
H237 H 0.85474 0.60832 0.42537 0.0
H238 H 0.73631 0.60161 0.40529 0.0
H239 H 0.57538 0.58764 0.47497 0.0
H240 H 0.30615 0.65504 0.45727 0.0
H241 H 0.42568 0.64774 0.44087 0.0
H242 H 0.51491 0.63542 0.3921 0.0
C243 C 0.74453 0.60507 0.43212 0.0
C244 C 0.56276 0.59763 0.4559 0.0
C245 C 0.81216 0.60872 0.44368 0.0
C246 C 0.3164 0.64241 0.4447 0.0
C247 C 0.38482 0.63815 0.43558 0.0
C248 C 0.5277 0.62454 0.40923 0.0
C249 C 0.68751 0.60728 0.45439 0.0
C250 C 0.61558 0.60791 0.44083 0.0
C251 C 0.4014 0.62089 0.42419 0.0
C252 C 0.4747 0.61484 0.4256 0.0
H253 H 0.77397 0.62128 0.52603 0.0
H254 H 0.65633 0.61382 0.50655 0.0
H255 H 0.63754 0.62922 0.40491 0.0
H256 H 0.23873 0.60291 0.42462 0.0
H257 H 0.35887 0.5953 0.40936 0.0
C258 C 0.71104 0.35278 0.54462 0.0
C259 C 0.7463 0.35789 0.57472 0.0
C260 C 0.64223 0.34697 0.5464 0.0
C261 C 0.49065 0.35562 0.55965 0.0
H262 H 0.40238 0.32072 0.61905 0.0
C263 C 0.20171 0.35806 0.5797 0.0
C264 C 0.16895 0.34325 0.56462 0.0
C265 C 0.27153 0.3572 0.58911 0.0
C266 C 0.42679 0.33053 0.60256 0.0
H267 H 0.73959 0.36006 0.63033 0.0
H268 H 0.61841 0.34993 0.6334 0.0
H269 H 0.53061 0.32258 0.61643 0.0
H270 H 0.18117 0.31547 0.55051 0.0
H271 H 0.30419 0.31406 0.56683 0.0
H272 H 0.38803 0.36389 0.54618 0.0
C273 C 0.64434 0.35027 0.6086 0.0
C274 C 0.49954 0.33155 0.60098 0.0
C275 C 0.71309 0.35623 0.60679 0.0
C276 C 0.20543 0.32709 0.56198 0.0
C277 C 0.27545 0.32622 0.57153 0.0
C278 C 0.41858 0.35483 0.56173 0.0
C279 C 0.60781 0.3462 0.57829 0.0
C280 C 0.53171 0.34407 0.57931 0.0
C281 C 0.30963 0.34154 0.5835 0.0
C282 C 0.38609 0.34236 0.58324 0.0
H283 H 0.73551 0.35409 0.51959 0.0
H284 H 0.61479 0.34387 0.52272 0.0
H285 H 0.51441 0.36554 0.54314 0.0
H286 H 0.17553 0.37077 0.58144 0.0
H287 H 0.29722 0.36916 0.59829 0.0
C288 C 0.79272 0.90565 0.05718 0.0
C289 C 0.77603 0.88837 0.04601 0.0
C290 C 0.86166 0.91016 0.06494 0.0
C291 C 0.00801 0.91588 0.03532 0.0
H292 H 0.15034 0.88892 0.08287 0.0
C293 C 0.28265 0.89943 0.98588 0.0
C294 C 0.33841 0.90044 0.00912 0.0
C295 C 0.21538 0.90393 0.99647 0.0
C296 C 0.11112 0.89682 0.06998 0.0
H297 H 0.81619 0.86189 0.03715 0.0
H298 H 0.93617 0.8695 0.05236 0.0
H299 H 0.02722 0.88362 0.0962 0.0
H300 H 0.36896 0.90776 0.06095 0.0
H301 H 0.25053 0.91517 0.07988 0.0
H302 H 0.09159 0.92793 0.00694 0.0
C303 C 0.8963 0.8796 0.05501 0.0
C304 C 0.04085 0.89373 0.07751 0.0
C305 C 0.82755 0.87517 0.04661 0.0
C306 C 0.32689 0.9073 0.04235 0.0
C307 C 0.25921 0.91133 0.05329 0.0
C308 C 0.07814 0.91868 0.02726 0.0
C309 C 0.91461 0.89737 0.06211 0.0
C310 C 0.98859 0.90293 0.05966 0.0
C311 C 0.20262 0.90899 0.0308 0.0
C312 C 0.1302 0.90888 0.04394 0.0
H313 H 0.7541 0.91613 0.05605 0.0
H314 H 0.87443 0.92394 0.07041 0.0
H315 H 0.96877 0.92299 0.0208 0.0
H316 H 0.29017 0.89378 0.96042 0.0
H317 H 0.17253 0.90187 0.97874 0.0
C318 C 0.19144 0.10503 0.01483 0.0
C319 C 0.23541 0.11888 0.02598 0.0
C320 C 0.12339 0.10375 0.02686 0.0
C321 C 0.98932 0.13412 0.05953 0.0
H322 H 0.87404 0.09179 0.05193 0.0
C323 C 0.69571 0.13971 0.0657 0.0
C324 C 0.66227 0.13362 0.03565 0.0
C325 C 0.76315 0.13437 0.07338 0.0
C326 C 0.90579 0.10366 0.05426 0.0
H327 H 0.24472 0.14108 0.06146 0.0
H328 H 0.12647 0.1384 0.08384 0.0
H329 H 0.00085 0.08887 0.05409 0.0
H330 H 0.67093 0.11603 0.99154 0.0
H331 H 0.79043 0.10663 1.00501 0.0
H332 H 0.89445 0.14887 0.05961 0.0
C333 C 0.14391 0.12891 0.06465 0.0
C334 C 0.97835 0.10206 0.05544 0.0
C335 C 0.21211 0.13035 0.05215 0.0
C336 C 0.69557 0.12092 0.01482 0.0
C337 C 0.76371 0.11554 0.02257 0.0
C338 C 0.91711 0.13567 0.05901 0.0
C339 C 0.0976 0.11616 0.0508 0.0
C340 C 0.02116 0.11733 0.05693 0.0
C341 C 0.79882 0.12282 0.0512 0.0
C342 C 0.87475 0.12053 0.05547 0.0
H343 H 0.20808 0.09574 0.99506 0.0
H344 H 0.08985 0.0938 0.0153 0.0
H345 H 0.01991 0.14624 0.05994 0.0
H346 H 0.67069 0.14923 0.08269 0.0
H347 H 0.78869 0.13994 0.09587 0.0
C348 C 0.2242 0.11462 0.50764 0.0
C349 C 0.27793 0.11442 0.48318 0.0
C350 C 0.15654 0.10971 0.49819 0.0
C351 C 0.04629 0.11554 0.42489 0.0
H352 H 0.90934 0.08974 0.47857 0.0
C353 C 0.73039 0.10293 0.44182 0.0
C354 C 0.7094 0.12053 0.44821 0.0
C355 C 0.79999 0.09908 0.43456 0.0
C356 C 0.947 0.09676 0.46284 0.0
H357 H 0.30471 0.10812 0.43038 0.0
H358 H 0.18602 0.09973 0.41365 0.0
H359 H 0.03297 0.08635 0.4917 0.0
H360 H 0.74249 0.14804 0.44869 0.0
H361 H 0.86416 0.14142 0.43503 0.0
H362 H 0.9599 0.12689 0.39758 0.0
C363 C 0.19635 0.10338 0.4402 0.0
C364 C 0.01769 0.09486 0.47054 0.0
C365 C 0.2643 0.10792 0.44989 0.0
C366 C 0.75714 0.13441 0.44304 0.0
C367 C 0.82694 0.13057 0.43557 0.0
C368 C 0.9754 0.11768 0.41758 0.0
C369 C 0.14139 0.10499 0.46389 0.0
C370 C 0.06793 0.1045 0.4521 0.0
C371 C 0.84972 0.11279 0.43353 0.0
C372 C 0.92496 0.10857 0.43693 0.0
H373 H 0.23324 0.12006 0.53315 0.0
H374 H 0.11507 0.11121 0.51691 0.0
H375 H 0.08396 0.12331 0.41055 0.0
H376 H 0.69465 0.09199 0.44628 0.0
H377 H 0.81593 0.08528 0.43269 0.0
C378 C 0.69774 0.88457 0.51576 0.0
C379 C 0.64154 0.88634 0.49299 0.0
C380 C 0.76479 0.88945 0.50546 0.0
C381 C 0.87074 0.88593 0.43134 0.0
H382 H 0.0069 0.91297 0.4835 0.0
C383 C 0.1849 0.90139 0.44563 0.0
C384 C 0.20815 0.88413 0.45315 0.0
C385 C 0.11493 0.90448 0.43806 0.0
C386 C 0.9694 0.90562 0.46817 0.0
H387 H 0.61001 0.89512 0.44229 0.0
H388 H 0.72822 0.90323 0.4238 0.0
H389 H 0.8836 0.91527 0.49827 0.0
H390 H 0.17903 0.85635 0.45493 0.0
H391 H 0.05657 0.86162 0.44085 0.0
H392 H 0.95729 0.87521 0.40299 0.0
C393 C 0.72 0.89849 0.44983 0.0
C394 C 0.89897 0.90691 0.47678 0.0
C395 C 0.65251 0.89407 0.46053 0.0
C396 C 0.16256 0.86972 0.4485 0.0
C397 C 0.09232 0.87279 0.44076 0.0
C398 C 0.94152 0.88435 0.42317 0.0
C399 C 0.77688 0.89566 0.47185 0.0
C400 C 0.84921 0.89682 0.4589 0.0
C401 C 0.06714 0.89032 0.43786 0.0
C402 C 0.99164 0.89394 0.44195 0.0
H403 H 0.69054 0.87825 0.54058 0.0
H404 H 0.80794 0.88703 0.5228 0.0
H405 H 0.83325 0.87784 0.41748 0.0
H406 H 0.21904 0.91273 0.44957 0.0
H407 H 0.09704 0.91809 0.43554 0.0
C408 C -0.00122 0.57915 0.00725 0.0
C409 C 0.98139 0.58425 0.97353 0.0
C410 C 0.00709 0.56107 0.01529 0.0
C411 C 0.93886 0.51842 0.9833 0.0
H412 H 0.0698 0.49637 0.04582 0.0
C413 C 0.99551 0.44362 0.98595 0.0
C414 C 0.02026 0.43588 0.0164 0.0
C415 C 0.9764 0.46155 0.98539 0.0
C416 C 0.03177 0.50239 0.0289 0.0
H417 H 0.96773 0.57492 0.92112 0.0
H418 H 0.98489 0.54362 0.93476 0.0
H419 H 0.0781 0.52829 0.0344 0.0
H420 H 0.03872 0.4402 0.07076 0.0
H421 H 0.00345 0.47148 0.07015 0.0
H422 H 0.89296 0.49261 0.97737 0.0
C423 C 0.98954 0.55337 0.95528 0.0
C424 C 0.03702 0.52066 0.02216 0.0
C425 C 0.98086 0.57131 0.94735 0.0
C426 C 0.0183 0.44578 0.04712 0.0
C427 C -0.00044 0.46379 0.04657 0.0
C428 C 0.93345 0.50023 0.99011 0.0
C429 C -0.00155 0.54795 0.98962 0.0
C430 C 0.99169 0.52878 0.9986 0.0
C431 C 0.98238 0.47211 0.01527 0.0
C432 C 0.98074 0.49188 0.0124 0.0
H433 H -0.00125 0.58886 0.02797 0.0
H434 H 0.01457 0.55731 0.04196 0.0
H435 H 0.90174 0.52438 0.96579 0.0
H436 H -0.00169 0.43636 0.9618 0.0
H437 H 0.96372 0.46748 0.96077 0.0
C438 C 0.98996 0.43122 0.47548 0.0
C439 C 0.93298 0.42614 0.49586 0.0
C440 C 0.99484 0.44875 0.46306 0.0
C441 C 0.89747 0.49219 0.45644 0.0
H442 H 0.07857 0.51238 0.47669 0.0
C443 C 0.94841 0.56746 0.48718 0.0
C444 C 0.01322 0.57438 0.47712 0.0
C445 C 0.93272 0.54938 0.48122 0.0
C446 C 0.02782 0.50701 0.47028 0.0
H447 H 0.83344 0.4347 0.51629 0.0
H448 H 0.84178 0.46489 0.49501 0.0
H449 H 0.06312 0.48038 0.47803 0.0
H450 H 0.10918 0.56849 0.44998 0.0
H451 H 0.08122 0.53751 0.43875 0.0
H452 H 0.86193 0.5191 0.45005 0.0
C453 C 0.8829 0.45565 0.48837 0.0
C454 C 0.01905 0.48855 0.47088 0.0
C455 C 0.87826 0.4383 0.5008 0.0
C456 C 0.0593 0.56341 0.45863 0.0
C457 C 0.04347 0.5456 0.45236 0.0
C458 C 0.90623 0.51075 0.45596 0.0
C459 C 0.94261 0.4614 0.47067 0.0
C460 C 0.95355 0.48085 0.46454 0.0
C461 C 0.98141 0.53811 0.46482 0.0
C462 C 0.97142 0.5184 0.46327 0.0
H463 H 0.03295 0.42215 0.47137 0.0
H464 H 0.04105 0.45262 0.44892 0.0
H465 H 0.84635 0.48675 0.45106 0.0
H466 H 0.91198 0.57565 0.50144 0.0
H467 H 0.8843 0.54404 0.49111 0.0
C468 C 0.51231 0.94736 0.01606 0.0
C469 C 0.52258 0.93958 0.98347 0.0
C470 C 0.51493 0.96596 0.01995 0.0
C471 C 0.60219 1.00344 0.97752 0.0
H472 H 0.48281 0.03437 0.03134 0.0
C473 C 0.57772 0.07811 0.95372 0.0
C474 C 0.55713 0.0895 0.98055 0.0
C475 C 0.58875 0.06003 0.95989 0.0
C476 C 0.51773 0.02586 0.01685 0.0
H477 H 0.53712 0.94497 0.9292 0.0
H478 H 0.53921 0.97722 0.93569 0.0
H479 H 0.46009 1.00228 0.03008 0.0
H480 H 0.53904 0.0914 0.03549 0.0
H481 H 0.55922 0.05971 0.04653 0.0
H482 H 0.65927 0.02685 0.96379 0.0
C483 C 0.53096 0.96911 0.95838 0.0
C484 C 0.50425 0.00749 0.01595 0.0
C485 C 0.52854 0.95066 0.95455 0.0
C486 C 0.55574 0.08293 0.01441 0.0
C487 C 0.56594 0.06472 0.02059 0.0
C488 C 0.61588 0.0217 0.97857 0.0
C489 C 0.52804 0.97694 0.99128 0.0
C490 C 0.54504 0.99618 0.99535 0.0
C491 C 0.57885 0.05292 0.99305 0.0
C492 C 0.57263 0.03325 0.99739 0.0
H493 H 0.50903 0.93907 0.03882 0.0
H494 H 0.51209 0.97164 0.04561 0.0
H495 H 0.63587 0.99499 0.96219 0.0
H496 H 0.57828 0.08281 0.92733 0.0
H497 H 0.59845 0.05141 0.93799 0.0
C498 C 0.44016 0.06739 0.55234 0.0
C499 C 0.44165 0.07791 0.52252 0.0
C500 C 0.44042 0.04885 0.5499 0.0
C501 C 0.42664 0.00975 0.4915 0.0
H502 H 0.5646 0.99046 0.55413 0.0
C503 C 0.4928 0.93482 0.49089 0.0
C504 C 0.4856 0.9272 0.5237 0.0
C505 C 0.49889 0.95336 0.48741 0.0
C506 C 0.52593 0.9956 0.53646 0.0
H507 H 0.43792 0.07738 0.46679 0.0
H508 H 0.438 0.04482 0.46237 0.0
H509 H 0.53921 0.02218 0.55513 0.0
H510 H 0.48531 0.93256 0.57848 0.0
H511 H 0.49856 0.96461 0.57268 0.0
H512 H 0.4128 0.98299 0.47326 0.0
C513 C 0.43651 0.0509 0.4877 0.0
C514 C 0.51087 0.01378 0.5372 0.0
C515 C 0.43562 0.06956 0.4902 0.0
C516 C 0.49202 0.93811 0.55293 0.0
C517 C 0.49907 0.95652 0.54952 0.0
C518 C 0.44169 0.99148 0.49079 0.0
C519 C 0.44305 0.0404 0.51753 0.0
C520 C 0.45992 0.02105 0.51531 0.0
C521 C 0.4989 0.96446 0.51673 0.0
C522 C 0.49059 0.98413 0.51376 0.0
H523 H 0.44517 0.07351 0.57756 0.0
H524 H 0.44318 0.04115 0.57342 0.0
H525 H 0.38734 0.01492 0.47421 0.0
H526 H 0.48661 0.92671 0.46795 0.0
H527 H 0.49966 0.95906 0.4618 0.0
C528 C 0.2465 0.32952 0.96905 0.0
C529 C 0.17575 0.33035 0.97781 0.0
C530 C 0.27324 0.31438 0.95246 0.0
C531 C 0.22809 0.26648 0.94597 0.0
H532 H 0.40352 0.26382 0.89689 0.0
C533 C 0.3638 0.19952 0.93344 0.0
C534 C 0.43106 0.2002 0.94758 0.0
C535 C 0.33079 0.2152 0.92277 0.0
C536 C 0.35411 0.26434 0.91032 0.0
H537 H 0.07605 0.31717 0.97302 0.0
H538 H 0.12123 0.29141 0.94205 0.0
H539 H 0.34634 0.29264 0.90442 0.0
H540 H 0.51942 0.21737 0.95787 0.0
H541 H 0.46236 0.24457 0.93924 0.0
H542 H 0.23664 0.23838 0.95284 0.0
C543 C 0.15723 0.30186 0.94938 0.0
C544 C 0.32147 0.28089 0.91484 0.0
C545 C 0.131 0.31672 0.96674 0.0
C546 C 0.46736 0.21647 0.94726 0.0
C547 C 0.43465 0.23208 0.93641 0.0
C548 C 0.26023 0.25 0.94115 0.0
C549 C 0.22931 0.29995 0.94383 0.0
C550 C 0.25897 0.28226 0.93368 0.0
C551 C 0.36466 0.23178 0.92588 0.0
C552 C 0.32468 0.24876 0.92422 0.0
H553 H 0.282 0.33986 0.97757 0.0
H554 H 0.32899 0.31351 0.9488 0.0
H555 H 0.18099 0.26683 0.96128 0.0
H556 H 0.33442 0.1872 0.93343 0.0
H557 H 0.27716 0.21449 0.91424 0.0
C558 C 0.55055 0.80538 0.96817 0.0
C559 C 0.57265 0.82256 0.95891 0.0
C560 C 0.58431 0.7903 0.95539 0.0
C561 C 0.65123 0.75858 0.92228 0.0
H562 H 0.84955 0.76324 0.90726 0.0
C563 C 0.82265 0.69602 0.92421 0.0
C564 C 0.88635 0.69795 0.94164 0.0
C565 C 0.78551 0.71104 0.91324 0.0
C566 C 0.79434 0.76156 0.91179 0.0
H567 H 0.64668 0.83716 0.92765 0.0
H568 H 0.70161 0.81098 0.90299 0.0
H569 H 0.78001 0.78962 0.91497 0.0
H570 H 0.96329 0.71723 0.95877 0.0
H571 H 0.89803 0.74302 0.94195 0.0
H572 H 0.66675 0.73052 0.92297 0.0
C573 C 0.65991 0.80906 0.92137 0.0
C574 C 0.75369 0.77689 0.91549 0.0
C575 C 0.62733 0.8242 0.93504 0.0
C576 C 0.91417 0.71516 0.94562 0.0
C577 C 0.87655 0.73011 0.93549 0.0
C578 C 0.69225 0.74326 0.91979 0.0
C579 C 0.6404 0.79183 0.93216 0.0
C580 C 0.68172 0.77566 0.92211 0.0
C581 C 0.81033 0.72839 0.92024 0.0
C582 C 0.76499 0.74448 0.91583 0.0
H583 H 0.50896 0.8035 0.98668 0.0
H584 H 0.56803 0.7775 0.96527 0.0
H585 H 0.59572 0.7569 0.92577 0.0
H586 H 0.79927 0.68302 0.92082 0.0
H587 H 0.73589 0.70899 0.90063 0.0
C588 C 0.04403 0.70525 0.54293 0.0
C589 C 0.07286 0.68808 0.54094 0.0
C590 C 0.08353 0.71961 0.55511 0.0
C591 C 0.26476 0.73359 0.55543 0.0
H592 H 0.19496 0.77505 0.60405 0.0
C593 C 0.42736 0.79727 0.55686 0.0
C594 C 0.39095 0.81307 0.55007 0.0
C595 C 0.39186 0.78189 0.56703 0.0
C596 C 0.21527 0.76363 0.59028 0.0
H597 H 0.16404 0.67228 0.55289 0.0
H598 H 0.23318 0.69739 0.57407 0.0
H599 H 0.12496 0.74784 0.60187 0.0
H600 H 0.28946 0.82554 0.55111 0.0
H601 H 0.22688 0.79861 0.56752 0.0
H602 H 0.3528 0.74939 0.54192 0.0
C603 C 0.1801 0.69975 0.56585 0.0
C604 C 0.17521 0.748 0.5892 0.0
C605 C 0.14031 0.68534 0.55394 0.0
C606 C 0.31893 0.81356 0.55624 0.0
C607 C 0.28307 0.79805 0.56574 0.0
C608 C 0.30437 0.7492 0.55619 0.0
C609 C 0.15301 0.71716 0.56538 0.0
C610 C 0.19897 0.7329 0.57119 0.0
C611 C 0.31876 0.7818 0.56985 0.0
C612 C 0.27977 0.76459 0.57306 0.0
H613 H 0.99205 0.70781 0.53335 0.0
H614 H 0.06106 0.73281 0.55424 0.0
H615 H 0.28416 0.72234 0.54077 0.0
H616 H 0.48311 0.79657 0.5528 0.0
H617 H 0.42163 0.76986 0.57115 0.0
C618 C 0.78923 0.31022 0.49351 0.0
C619 C 0.81989 0.31996 0.52043 0.0
C620 C 0.74031 0.29694 0.50052 0.0
C621 C 0.69374 0.2648 0.56709 0.0
H622 H 0.53587 0.25606 0.50717 0.0
C623 C 0.46084 0.20991 0.53526 0.0
C624 C 0.50116 0.19432 0.5341 0.0
C625 C 0.49161 0.22635 0.5426 0.0
C626 C 0.57891 0.25838 0.52465 0.0
H627 H 0.82378 0.3235 0.57581 0.0
H628 H 0.73756 0.30024 0.5882 0.0
H629 H 0.60122 0.28366 0.50179 0.0
H630 H 0.60426 0.18355 0.54265 0.0
H631 H 0.65834 0.21228 0.55508 0.0
H632 H 0.67223 0.23927 0.58942 0.0
C633 C 0.75112 0.30298 0.56164 0.0
C634 C 0.61684 0.27417 0.52126 0.0
C635 C 0.79979 0.3164 0.55455 0.0
C636 C 0.57174 0.19531 0.54342 0.0
C637 C 0.60274 0.21182 0.55056 0.0
C638 C 0.65585 0.24892 0.57041 0.0
C639 C 0.7217 0.2929 0.53469 0.0
C640 C 0.6757 0.27738 0.54183 0.0
C641 C 0.5636 0.22764 0.54868 0.0
C642 C 0.5988 0.24536 0.54872 0.0
H643 H 0.8045 0.31258 0.46702 0.0
H644 H 0.71941 0.28928 0.47919 0.0
H645 H 0.73911 0.26682 0.58321 0.0
H646 H 0.40606 0.20955 0.52864 0.0
H647 H 0.45952 0.23819 0.54186 0.0
C648 C 0.18807 0.39603 0.15773 0.0
C649 C 0.19424 0.37807 0.14781 0.0
C650 C 0.18143 0.40068 0.19269 0.0
C651 C 0.10399 0.40201 0.26239 0.0
H652 H 0.20384 0.37909 0.3368 0.0
C653 C 0.9871 0.3868 0.39677 0.0
C654 C 0.03126 0.38677 0.42558 0.0
C655 C 0.013 0.39104 0.36399 0.0
C656 C 0.17597 0.38587 0.31645 0.0
H657 H 0.20449 0.35114 0.16688 0.0
H658 H 0.19568 0.35926 0.2276 0.0
H659 H 0.24573 0.37601 0.27767 0.0
H660 H 0.13623 0.39187 0.44311 0.0
H661 H 0.18163 0.3995 0.386 0.0
H662 H 0.03247 0.41123 0.30107 0.0
C663 C 0.19495 0.36977 0.20854 0.0
C664 C 0.19976 0.38397 0.28249 0.0
C665 C 0.20023 0.3651 0.17368 0.0
C666 C 0.10069 0.39224 0.42145 0.0
C667 C 0.12687 0.39631 0.38863 0.0
C668 C 0.07967 0.40374 0.29636 0.0
C669 C 0.1824 0.38751 0.21843 0.0
C670 C 0.16334 0.39171 0.25492 0.0
C671 C 0.08406 0.395 0.35927 0.0
C672 C 0.11462 0.3954 0.32379 0.0
H673 H 0.18245 0.40633 0.13843 0.0
H674 H 0.17257 0.41449 0.19948 0.0
H675 H 0.07425 0.40802 0.24177 0.0
H676 H 0.93392 0.38211 0.39912 0.0
H677 H 0.9786 0.38974 0.34202 0.0
C678 C 0.88013 0.63616 0.11537 0.0
C679 C 0.87648 0.65313 0.10037 0.0
C680 C 0.8965 0.63441 0.15042 0.0
C681 C 0.99617 0.66011 0.21432 0.0
H682 H 0.9377 0.62404 0.27943 0.0
C683 C 0.04778 0.66422 0.35946 0.0
C684 C 0.05879 0.64853 0.37815 0.0
C685 C 0.03596 0.66356 0.32403 0.0
C686 C 0.95547 0.63398 0.26125 0.0
H687 H 0.87822 0.68144 0.11057 0.0
H688 H 0.90266 0.67845 0.17189 0.0
H689 H 0.88261 0.62544 0.22261 0.0
H690 H 0.07051 0.61994 0.37446 0.0
H691 H 0.04978 0.61871 0.31203 0.0
H692 H 0.06817 0.66883 0.25294 0.0
C693 C 0.8959 0.66649 0.15659 0.0
C694 C 0.92351 0.63486 0.22882 0.0
C695 C 0.88051 0.66822 0.12163 0.0
C696 C 0.06335 0.63225 0.36043 0.0
C697 C 0.05033 0.63153 0.32489 0.0
C698 C 0.02791 0.65925 0.24661 0.0
C699 C 0.90873 0.64962 0.17084 0.0
C700 C 0.94254 0.64819 0.20525 0.0
C701 C 0.03383 0.64713 0.30662 0.0
C702 C 0.00718 0.64638 0.27069 0.0
H703 H 0.87838 0.62433 0.09934 0.0
H704 H 0.90559 0.62121 0.16063 0.0
H705 H 0.01385 0.67018 0.19639 0.0
H706 H 0.04306 0.67689 0.37271 0.0
H707 H 0.02307 0.67581 0.31083 0.0
C708 C 0.92134 0.66497 0.86761 0.0
C709 C 0.85843 0.65609 0.87472 0.0
C710 C 0.94125 0.66824 0.83342 0.0
C711 C 0.923 0.64438 0.75399 0.0
H712 H 0.01597 0.6838 0.7087 0.0
C713 C 0.01922 0.65654 0.60884 0.0
C714 C 0.06531 0.64211 0.60491 0.0
C715 C 0.99702 0.66189 0.64168 0.0
C716 C 0.98994 0.67275 0.72117 0.0
H717 H 0.76303 0.64591 0.85213 0.0
H718 H 0.7977 0.65163 0.7928 0.0
H719 H 0.96461 0.68808 0.76648 0.0
H720 H 0.1265 0.62257 0.63272 0.0
H721 H 0.08602 0.63159 0.68966 0.0
H722 H 0.94996 0.62887 0.70966 0.0
C723 C 0.83216 0.65575 0.81346 0.0
C724 C 0.96076 0.67518 0.75406 0.0
C725 C 0.81232 0.65251 0.84744 0.0
C726 C 0.09078 0.63367 0.63465 0.0
C727 C 0.0678 0.63883 0.6673 0.0
C728 C 0.95315 0.64189 0.7217 0.0
C729 C 0.89841 0.66268 0.80605 0.0
C730 C 0.92679 0.66099 0.77065 0.0
C731 C 0.01959 0.65271 0.67105 0.0
C732 C 0.9871 0.65598 0.70504 0.0
H733 H 0.95798 0.6679 0.88807 0.0
H734 H 0.99259 0.67362 0.82837 0.0
H735 H 0.89815 0.63313 0.76638 0.0
H736 H 0.99757 0.66317 0.58663 0.0
H737 H 0.95923 0.67252 0.64398 0.0
C738 C 0.08256 0.35513 0.64988 0.0
C739 C 0.08116 0.37293 0.63879 0.0
C740 C 0.11032 0.35081 0.68224 0.0
C741 C 0.22554 0.3626 0.75161 0.0
H742 H 0.0749 0.35579 0.81682 0.0
C743 C 0.25597 0.38054 0.89436 0.0
C744 C 0.21064 0.37361 0.91944 0.0
C745 C 0.25032 0.37545 0.85984 0.0
C746 C 0.11824 0.35712 0.79919 0.0
H747 H 0.11207 0.3999 0.65141 0.0
H748 H 0.16384 0.39219 0.70709 0.0
H749 H 0.05046 0.35583 0.75525 0.0
H750 H 0.12628 0.35496 0.9279 0.0
H751 H 0.11918 0.34513 0.86799 0.0
H752 H 0.2938 0.3638 0.79504 0.0
C753 C 0.14243 0.38167 0.69108 0.0
C754 C 0.1039 0.35724 0.7638 0.0
C755 C 0.11298 0.38607 0.65927 0.0
C756 C 0.16276 0.3604 0.90946 0.0
C757 C 0.1578 0.35504 0.87481 0.0
C758 C 0.2403 0.36204 0.78696 0.0
C759 C 0.13896 0.36415 0.7034 0.0
C760 C 0.15703 0.36054 0.73982 0.0
C761 C 0.19972 0.36302 0.8492 0.0
C762 C 0.18645 0.36003 0.81146 0.0
H763 H 0.05751 0.3448 0.63476 0.0
H764 H 0.10688 0.33722 0.69135 0.0
H765 H 0.26735 0.36513 0.73352 0.0
H766 H 0.29364 0.39074 0.90104 0.0
H767 H 0.28315 0.3822 0.84134 0.0
C768 C 0.56337 0.88673 0.13017 0.0
C769 C 0.57491 0.87065 0.11254 0.0
C770 C 0.54723 0.88666 0.16546 0.0
C771 C 0.46109 0.85622 0.22594 0.0
H772 H 0.51074 0.89053 0.29658 0.0
C773 C 0.41206 0.84453 0.36988 0.0
C774 C 0.39908 0.85905 0.39181 0.0
C775 C 0.42367 0.84713 0.33475 0.0
C776 C 0.49531 0.88104 0.27693 0.0
H777 H 0.58454 0.84214 0.11815 0.0
H778 H 0.55985 0.84201 0.17982 0.0
H779 H 0.56275 0.89284 0.23912 0.0
H780 H 0.38347 0.88756 0.39393 0.0
H781 H 0.40315 0.89218 0.33205 0.0
H782 H 0.39401 0.84436 0.26346 0.0
C783 C 0.56143 0.85466 0.16649 0.0
C784 C 0.52559 0.8823 0.2441 0.0
C785 C 0.57705 0.85474 0.13132 0.0
C786 C 0.39232 0.8761 0.37746 0.0
C787 C 0.40483 0.87877 0.34218 0.0
C788 C 0.43079 0.855 0.25858 0.0
C789 C 0.54228 0.87047 0.18351 0.0
C790 C 0.50988 0.86966 0.21842 0.0
C791 C 0.42326 0.86437 0.3207 0.0
C792 C 0.44837 0.86719 0.28473 0.0
H793 H 0.55954 0.89911 0.11602 0.0
H794 H 0.53286 0.89908 0.17778 0.0
H795 H 0.44601 0.84659 0.20648 0.0
H796 H 0.41834 0.83127 0.38037 0.0
H797 H 0.43808 0.83574 0.31916 0.0
C798 C 0.38023 0.13246 0.1146 0.0
C799 C 0.36778 0.14984 0.10267 0.0
C800 C 0.39255 0.12942 0.14977 0.0
C801 C 0.47645 0.15431 0.21765 0.0
H802 H 0.41667 0.11798 0.28191 0.0
C803 C 0.52082 0.16035 0.36258 0.0
C804 C 0.52568 0.14509 0.38314 0.0
C805 C 0.51228 0.15888 0.327 0.0
C806 C 0.43513 0.12797 0.264 0.0
H807 H 0.34751 0.17701 0.11846 0.0
H808 H 0.36724 0.17165 0.17958 0.0
H809 H 0.36639 0.11885 0.2238 0.0
H810 H 0.53032 0.11632 0.3826 0.0
H811 H 0.5168 0.11364 0.31985 0.0
H812 H 0.54552 0.16342 0.2571 0.0
C813 C 0.36964 0.16049 0.16185 0.0
C814 C 0.4057 0.12855 0.23089 0.0
C815 C 0.35737 0.16351 0.12691 0.0
C816 C 0.528 0.1283 0.36717 0.0
C817 C 0.51884 0.12679 0.33136 0.0
C818 C 0.50638 0.15361 0.25037 0.0
C819 C 0.39205 0.14372 0.17325 0.0
C820 C 0.42468 0.14207 0.2078 0.0
C821 C 0.50791 0.14206 0.31106 0.0
C822 C 0.48478 0.14077 0.2744 0.0
H823 H 0.389 0.12169 0.09649 0.0
H824 H 0.40911 0.11632 0.15795 0.0
H825 H 0.49362 0.16457 0.19999 0.0
H826 H 0.51769 0.17342 0.37439 0.0
H827 H 0.50346 0.17096 0.31249 0.0
C828 C 0.45783 0.17369 0.87472 0.0
C829 C 0.40551 0.16084 0.8795 0.0
C830 C 0.46936 0.18111 0.84202 0.0
C831 C 0.52135 0.18169 0.7682 0.0
H832 H 0.38208 0.17789 0.69639 0.0
C833 C 0.59169 0.15653 0.63438 0.0
C834 C 0.54637 0.15864 0.60627 0.0
C835 C 0.57645 0.16413 0.66635 0.0
C836 C 0.42205 0.1795 0.7158 0.0
H837 H 0.32109 0.14669 0.85441 0.0
H838 H 0.34257 0.15872 0.79795 0.0
H839 H 0.34594 0.17961 0.7559 0.0
H840 H 0.45156 0.17152 0.58936 0.0
H841 H 0.42735 0.18587 0.64439 0.0
H842 H 0.59733 0.18236 0.72806 0.0
C843 C 0.37413 0.16365 0.81902 0.0
C844 C 0.40112 0.18012 0.75032 0.0
C845 C 0.3621 0.15651 0.85159 0.0
C846 C 0.48817 0.16977 0.61024 0.0
C847 C 0.47357 0.17773 0.64219 0.0
C848 C 0.54219 0.18163 0.73363 0.0
C849 C 0.42957 0.17557 0.81331 0.0
C850 C 0.45058 0.18004 0.77713 0.0
C851 C 0.51586 0.17438 0.67119 0.0
C852 C 0.49316 0.17936 0.70695 0.0
H853 H 0.49274 0.17717 0.89558 0.0
H854 H 0.51156 0.19054 0.83902 0.0
H855 H 0.56149 0.18181 0.78776 0.0
H856 H 0.63723 0.14811 0.63232 0.0
H857 H 0.61028 0.16087 0.6877 0.0
C858 C 0.42673 0.84138 0.62219 0.0
C859 C 0.37032 0.85308 0.61809 0.0
C860 C 0.44699 0.83576 0.65511 0.0
C861 C 0.51518 0.83971 0.72485 0.0
H862 H 0.39319 0.84262 0.8042 0.0
C863 C 0.61128 0.86701 0.85366 0.0
C864 C 0.5778 0.86267 0.88474 0.0
C865 C 0.58794 0.86003 0.82237 0.0
C866 C 0.42838 0.84137 0.78254 0.0
H867 H 0.28765 0.86687 0.6453 0.0
H868 H 0.32433 0.85793 0.70211 0.0
H869 H 0.34358 0.83899 0.74717 0.0
H870 H 0.49502 0.84685 0.90725 0.0
H871 H 0.45611 0.83398 0.85274 0.0
H872 H 0.59999 0.84157 0.76026 0.0
C873 C 0.35253 0.85261 0.68025 0.0
C874 C 0.39969 0.83959 0.74954 0.0
C875 C 0.33164 0.85793 0.64741 0.0
C876 C 0.52237 0.85042 0.88387 0.0
C877 C 0.49948 0.8432 0.85247 0.0
C878 C 0.54386 0.84108 0.75786 0.0
C879 C 0.41222 0.84202 0.68478 0.0
C880 C 0.44251 0.83964 0.72004 0.0
C881 C 0.53083 0.84827 0.82113 0.0
C882 C 0.50087 0.84286 0.78706 0.0
H883 H 0.4582 0.83746 0.60034 0.0
H884 H 0.49206 0.82721 0.65731 0.0
H885 H 0.55043 0.83981 0.70308 0.0
H886 H 0.65411 0.87641 0.85323 0.0
H887 H 0.61292 0.86462 0.79901 0.0
loop_
_geom_bond_atom_site_label_1
_geom_bond_atom_site_label_2
_geom_bond_distance
_geom_bond_site_symmetry_2
_ccdc_geom_bond_type
Zn0 O6 1.920 1_655 S
Zn0 O12 1.898 . S
Zn0 O15 1.905 . S
Zn1 O9 1.905 . S
Zn1 O10 1.898 . S
Zn1 O18 1.920 . S
Zn2 O5 2.080 1_554 S
Zn2 O8 2.114 1_554 S
Zn2 O11 2.120 1_554 S
Zn2 O13 2.120 . S
Zn2 O14 2.114 1_455 S
Zn2 O17 2.080 . S
C3 O8 1.166 . S
C3 O9 1.192 . S
C4 O10 1.167 . S
C4 O11 1.299 . S
O5 Zn2 2.080 1_556 S
O5 C19 1.305 1_556 S
O6 Zn0 1.920 1_455 S
O6 C19 1.234 . S
C7 O12 1.167 1_455 S
C7 O13 1.299 . S
O8 Zn2 2.114 1_556 S
O8 C3 1.166 . S
O9 Zn1 1.905 . S
O9 C3 1.192 . S
O10 Zn1 1.898 . S
O10 C4 1.167 . S
O11 Zn2 2.120 1_556 S
O11 C4 1.299 . S
O12 Zn0 1.898 . S
O12 C7 1.167 1_655 S
O13 Zn2 2.120 . S
O13 C7 1.299 . S
O14 Zn2 2.114 1_655 S
O14 C16 1.166 . S
O15 Zn0 1.905 . S
O15 C16 1.182 . S
C16 O14 1.166 . S
C16 O15 1.182 . S
O17 Zn2 2.080 . S
O17 C20 1.305 1_554 S
O18 Zn1 1.920 . S
O18 C20 1.234 . S
C19 O5 1.305 1_554 S
C19 O6 1.234 . S
C20 O17 1.305 1_556 S
C20 O18 1.234 . S
Zn21 O27 1.920 . S
Zn21 O33 1.898 . S
Zn21 O36 1.905 . S
Zn22 O30 1.905 . S
Zn22 O31 1.898 . S
Zn22 O39 1.920 1_455 S
Zn23 O26 2.080 . S
Zn23 O29 2.114 1_655 S
Zn23 O32 2.120 . S
Zn23 O34 2.120 1_554 S
Zn23 O35 2.114 1_554 S
Zn23 O38 2.080 1_554 S
C24 O29 1.166 . S
C24 O30 1.182 . S
C25 O31 1.167 1_655 S
C25 O32 1.299 . S
O26 Zn23 2.080 . S
O26 C40 1.305 1_554 S
O27 Zn21 1.920 . S
O27 C40 1.234 . S
C28 O33 1.167 . S
C28 O34 1.299 . S
O29 Zn23 2.114 1_455 S
O29 C24 1.166 . S
O30 Zn22 1.905 . S
O30 C24 1.182 . S
O31 Zn22 1.898 . S
O31 C25 1.167 1_455 S
O32 Zn23 2.120 . S
O32 C25 1.299 . S
O33 Zn21 1.898 . S
O33 C28 1.167 . S
O34 Zn23 2.120 1_556 S
O34 C28 1.299 . S
O35 Zn23 2.114 1_556 S
O35 C37 1.166 . S
O36 Zn21 1.905 . S
O36 C37 1.192 . S
C37 O35 1.166 . S
C37 O36 1.192 . S
O38 Zn23 2.080 1_556 S
O38 C41 1.305 1_556 S
O39 Zn22 1.920 1_655 S
O39 C41 1.234 . S
C40 O26 1.305 1_556 S
C40 O27 1.234 . S
C41 O38 1.305 1_554 S
C41 O39 1.234 . S
Zn42 O48 1.920 . S
Zn42 O54 1.898 . S
Zn42 O57 1.905 . S
Zn43 O51 1.905 . S
Zn43 O52 1.898 . S
Zn43 O60 1.920 1_655 S
Zn44 O47 2.080 . S
Zn44 O50 2.114 1_455 S
Zn44 O53 2.120 . S
Zn44 O55 2.120 . S
Zn44 O56 2.114 . S
Zn44 O59 2.080 . S
C45 O50 1.166 . S
C45 O51 1.182 . S
C46 O52 1.167 1_455 S
C46 O53 1.299 . S
O47 Zn44 2.080 . S
O47 C61 1.305 . S
O48 Zn42 1.920 . S
O48 C61 1.234 . S
C49 O54 1.167 . S
C49 O55 1.299 . S
O50 Zn44 2.114 1_655 S
O50 C45 1.166 . S
O51 Zn43 1.905 . S
O51 C45 1.182 . S
O52 Zn43 1.898 . S
O52 C46 1.167 1_655 S
O53 Zn44 2.120 . S
O53 C46 1.299 . S
O54 Zn42 1.898 . S
O54 C49 1.167 . S
O55 Zn44 2.120 . S
O55 C49 1.299 . S
O56 Zn44 2.114 . S
O56 C58 1.166 . S
O57 Zn42 1.905 . S
O57 C58 1.182 . S
C58 O56 1.166 . S
C58 O57 1.182 . S
O59 Zn44 2.080 . S
O59 C62 1.305 . S
O60 Zn43 1.920 1_455 S
O60 C62 1.234 . S
C61 O47 1.305 . S
C61 O48 1.234 . S
C62 O59 1.305 . S
C62 O60 1.234 . S
Zn63 O69 1.920 1_455 S
Zn63 O75 1.898 . S
Zn63 O78 1.905 . S
Zn64 O72 1.905 . S
Zn64 O73 1.898 . S
Zn64 O81 1.920 . S
Zn65 O68 2.080 . S
Zn65 O71 2.114 . S
Zn65 O74 2.120 . S
Zn65 O76 2.120 . S
Zn65 O77 2.114 1_655 S
Zn65 O80 2.080 . S
C66 O71 1.166 . S
C66 O72 1.182 . S
C67 O73 1.167 . S
C67 O74 1.299 . S
O68 Zn65 2.080 . S
O68 C82 1.305 . S
O69 Zn63 1.920 1_655 S
O69 C82 1.234 . S
C70 O75 1.167 1_655 S
C70 O76 1.299 . S
O71 Zn65 2.114 . S
O71 C66 1.166 . S
O72 Zn64 1.905 . S
O72 C66 1.182 . S
O73 Zn64 1.898 . S
O73 C67 1.167 . S
O74 Zn65 2.120 . S
O74 C67 1.299 . S
O75 Zn63 1.898 . S
O75 C70 1.167 1_455 S
O76 Zn65 2.120 . S
O76 C70 1.299 . S
O77 Zn65 2.114 1_455 S
O77 C79 1.166 . S
O78 Zn63 1.905 . S
O78 C79 1.182 . S
C79 O77 1.166 . S
C79 O78 1.182 . S
O80 Zn65 2.080 . S
O80 C83 1.305 . S
O81 Zn64 1.920 . S
O81 C83 1.234 . S
C82 O68 1.305 . S
C82 O69 1.234 . S
C83 O80 1.305 . S
C83 O81 1.234 . S
Zn84 O90 1.920 . S
Zn84 O96 1.898 . S
Zn84 O99 1.905 . S
Zn85 O93 1.905 . S
Zn85 O94 1.898 . S
Zn85 O102 1.920 . S
Zn86 O89 2.080 1_554 S
Zn86 O92 2.114 1_554 S
Zn86 O95 2.120 1_554 S
Zn86 O97 2.120 . S
Zn86 O98 2.114 . S
Zn86 O101 2.080 . S
C87 O92 1.166 . S
C87 O93 1.192 . S
C88 O94 1.167 . S
C88 O95 1.299 . S
O89 Zn86 2.080 1_556 S
O89 C103 1.305 1_556 S
O90 Zn84 1.920 . S
O90 C103 1.234 . S
C91 O96 1.167 . S
C91 O97 1.299 . S
O92 Zn86 2.114 1_556 S
O92 C87 1.166 . S
O93 Zn85 1.905 . S
O93 C87 1.192 . S
O94 Zn85 1.898 . S
O94 C88 1.167 . S
O95 Zn86 2.120 1_556 S
O95 C88 1.299 . S
O96 Zn84 1.898 . S
O96 C91 1.167 . S
O97 Zn86 2.120 . S
O97 C91 1.299 . S
O98 Zn86 2.114 . S
O98 C100 1.166 . S
O99 Zn84 1.905 . S
O99 C100 1.182 . S
C100 O98 1.166 . S
C100 O99 1.182 . S
O101 Zn86 2.080 . S
O101 C104 1.305 1_554 S
O102 Zn85 1.920 . S
O102 C104 1.234 . S
C103 O89 1.305 1_554 S
C103 O90 1.234 . S
C104 O101 1.305 1_556 S
C104 O102 1.234 . S
Zn105 O111 1.920 . S
Zn105 O117 1.898 . S
Zn105 O120 1.905 . S
Zn106 O114 1.905 . S
Zn106 O115 1.898 . S
Zn106 O123 1.920 . S
Zn107 O110 2.080 . S
Zn107 O113 2.114 . S
Zn107 O116 2.120 . S
Zn107 O118 2.120 1_554 S
Zn107 O119 2.114 1_554 S
Zn107 O122 2.080 1_554 S
C108 O113 1.166 . S
C108 O114 1.182 . S
C109 O115 1.167 . S
C109 O116 1.299 . S
O110 Zn107 2.080 . S
O110 C124 1.305 1_554 S
O111 Zn105 1.920 . S
O111 C124 1.234 . S
C112 O117 1.167 . S
C112 O118 1.299 . S
O113 Zn107 2.114 . S
O113 C108 1.166 . S
O114 Zn106 1.905 . S
O114 C108 1.182 . S
O115 Zn106 1.898 . S
O115 C109 1.167 . S
O116 Zn107 2.120 . S
O116 C109 1.299 . S
O117 Zn105 1.898 . S
O117 C112 1.167 . S
O118 Zn107 2.120 1_556 S
O118 C112 1.299 . S
O119 Zn107 2.114 1_556 S
O119 C121 1.166 . S
O120 Zn105 1.905 . S
O120 C121 1.192 . S
C121 O119 1.166 . S
C121 O120 1.192 . S
O122 Zn107 2.080 1_556 S
O122 C125 1.305 1_556 S
O123 Zn106 1.920 . S
O123 C125 1.234 . S
C124 O110 1.305 1_556 S
C124 O111 1.234 . S
C125 O122 1.305 1_554 S
C125 O123 1.234 . S
Zn126 O132 1.920 . S
Zn126 O138 1.898 . S
Zn126 O141 1.905 . S
Zn127 O135 1.905 . S
Zn127 O136 1.898 . S
Zn127 O144 1.920 . S
Zn128 O131 2.080 . S
Zn128 O134 2.114 . S
Zn128 O137 2.120 . S
Zn128 O139 2.120 . S
Zn128 O140 2.114 . S
Zn128 O143 2.080 . S
C129 O134 1.166 . S
C129 O135 1.182 . S
C130 O136 1.167 . S
C130 O137 1.299 . S
O131 Zn128 2.080 . S
O131 C145 1.305 . S
O132 Zn126 1.920 . S
O132 C145 1.234 . S
C133 O138 1.167 . S
C133 O139 1.299 . S
O134 Zn128 2.114 . S
O134 C129 1.166 . S
O135 Zn127 1.905 . S
O135 C129 1.182 . S
O136 Zn127 1.898 . S
O136 C130 1.167 . S
O137 Zn128 2.120 . S
O137 C130 1.299 . S
O138 Zn126 1.898 . S
O138 C133 1.167 . S
O139 Zn128 2.120 . S
O139 C133 1.299 . S
O140 Zn128 2.114 . S
O140 C142 1.166 . S
O141 Zn126 1.905 . S
O141 C142 1.182 . S
C142 O140 1.166 . S
C142 O141 1.182 . S
O143 Zn128 2.080 . S
O143 C146 1.305 . S
O144 Zn127 1.920 . S
O144 C146 1.234 . S
C145 O131 1.305 . S
C145 O132 1.234 . S
C146 O143 1.305 . S
C146 O144 1.234 . S
Zn147 O153 1.920 . S
Zn147 O159 1.898 . S
Zn147 O162 1.905 . S
Zn148 O156 1.905 . S
Zn148 O157 1.898 . S
Zn148 O165 1.920 . S
Zn149 O152 2.080 . S
Zn149 O155 2.114 . S
Zn149 O158 2.120 . S
Zn149 O160 2.120 . S
Zn149 O161 2.114 . S
Zn149 O164 2.080 . S
C150 O155 1.166 . S
C150 O156 1.182 . S
C151 O157 1.167 . S
C151 O158 1.299 . S
O152 Zn149 2.080 . S
O152 C166 1.305 . S
O153 Zn147 1.920 . S
O153 C166 1.234 . S
C154 O159 1.167 . S
C154 O160 1.299 . S
O155 Zn149 2.114 . S
O155 C150 1.166 . S
O156 Zn148 1.905 . S
O156 C150 1.182 . S
O157 Zn148 1.898 . S
O157 C151 1.167 . S
O158 Zn149 2.120 . S
O158 C151 1.299 . S
O159 Zn147 1.898 . S
O159 C154 1.167 . S
O160 Zn149 2.120 . S
O160 C154 1.299 . S
O161 Zn149 2.114 . S
O161 C163 1.166 . S
O162 Zn147 1.905 . S
O162 C163 1.182 . S
C163 O161 1.166 . S
C163 O162 1.182 . S
O164 Zn149 2.080 . S
O164 C167 1.305 . S
O165 Zn148 1.920 . S
O165 C167 1.234 . S
C166 O152 1.305 . S
C166 O153 1.234 . S
C167 O164 1.305 . S
C167 O165 1.234 . S
C168 C169 1.349 1_554 S
C168 C170 1.327 . S
C168 H193 0.950 . S
C169 C168 1.349 1_556 S
C169 C185 1.349 . S
C170 C168 1.327 . S
C170 C189 1.429 1_554 S
C170 H194 0.950 . S
C171 C188 1.574 . S
C171 C190 1.368 . S
C171 H195 0.949 . S
H172 C176 0.949 . S
C173 C174 1.349 . S
C173 C175 1.327 . S
C173 H196 0.950 . S
C174 C173 1.349 . S
C174 C186 1.349 1_556 S
C175 C173 1.327 . S
C175 C191 1.429 . S
C175 H197 0.950 . S
C176 H172 0.949 . S
C176 C184 1.574 . S
C176 C192 1.368 1_554 S
H177 C185 0.950 . S
H178 C183 0.950 . S
H179 C184 0.949 . S
H180 C186 0.950 . S
H181 C187 0.950 . S
H182 C188 0.949 . S
C183 H178 0.950 . S
C183 C185 1.327 . S
C183 C189 1.429 . S
C184 C176 1.574 . S
C184 H179 0.949 . S
C184 C190 1.368 1_554 S
C185 C169 1.349 . S
C185 H177 0.950 . S
C185 C183 1.327 . S
C186 C174 1.349 1_554 S
C186 H180 0.950 . S
C186 C187 1.327 . S
C187 H181 0.950 . S
C187 C186 1.327 . S
C187 C191 1.429 1_554 S
C188 C171 1.574 . S
C188 H182 0.949 . S
C188 C192 1.368 . S
C189 C170 1.429 1_556 S
C189 C183 1.429 . S
C189 C190 1.523 . S
C190 C171 1.368 . S
C190 C184 1.368 1_556 S
C190 C189 1.523 . S
C191 C175 1.429 . S
C191 C187 1.429 1_556 S
C191 C192 1.523 . S
C192 C176 1.368 1_556 S
C192 C188 1.368 . S
C192 C191 1.523 . S
H193 C168 0.950 . S
H194 C170 0.950 . S
H195 C171 0.949 . S
H196 C173 0.950 . S
H197 C175 0.950 . S
C198 C199 1.349 . S
C198 C200 1.327 . S
C198 H223 0.950 . S
C199 C198 1.349 . S
C199 C215 1.349 1_556 S
C200 C198 1.327 . S
C200 C219 1.429 . S
C200 H224 0.950 . S
C201 C218 1.574 . S
C201 C220 1.368 1_554 S
C201 H225 0.949 . S
H202 C206 0.949 . S
C203 C204 1.349 1_554 S
C203 C205 1.327 . S
C203 H226 0.950 . S
C204 C203 1.349 1_556 S
C204 C216 1.349 . S
C205 C203 1.327 . S
C205 C221 1.429 1_554 S
C205 H227 0.950 . S
C206 H202 0.949 . S
C206 C214 1.574 . S
C206 C222 1.368 . S
H207 C215 0.950 . S
H208 C213 0.950 . S
H209 C214 0.949 . S
H210 C216 0.950 . S
H211 C217 0.950 . S
H212 C218 0.949 . S
C213 H208 0.950 . S
C213 C215 1.327 . S
C213 C219 1.429 1_554 S
C214 C206 1.574 . S
C214 H209 0.949 . S
C214 C220 1.368 . S
C215 C199 1.349 1_554 S
C215 H207 0.950 . S
C215 C213 1.327 . S
C216 C204 1.349 . S
C216 H210 0.950 . S
C216 C217 1.327 . S
C217 H211 0.950 . S
C217 C216 1.327 . S
C217 C221 1.429 . S
C218 C201 1.574 . S
C218 H212 0.949 . S
C218 C222 1.368 1_554 S
C219 C200 1.429 . S
C219 C213 1.429 1_556 S
C219 C220 1.523 . S
C220 C201 1.368 1_556 S
C220 C214 1.368 . S
C220 C219 1.523 . S
C221 C205 1.429 1_556 S
C221 C217 1.429 . S
C221 C222 1.523 . S
C222 C206 1.368 . S
C222 C218 1.368 1_556 S
C222 C221 1.523 . S
H223 C198 0.950 . S
H224 C200 0.950 . S
H225 C201 0.949 . S
H226 C203 0.950 . S
H227 C205 0.950 . S
C228 C229 1.349 . S
C228 C230 1.327 . S
C228 H253 0.950 . S
C229 C228 1.349 . S
C229 C245 1.349 . S
C230 C228 1.327 . S
C230 C249 1.429 . S
C230 H254 0.950 . S
C231 C248 1.574 . S
C231 C250 1.368 . S
C231 H255 0.949 . S
H232 C236 0.949 . S
C233 C234 1.349 . S
C233 C235 1.327 . S
C233 H256 0.950 . S
C234 C233 1.349 . S
C234 C246 1.349 . S
C235 C233 1.327 . S
C235 C251 1.429 . S
C235 H257 0.950 . S
C236 H232 0.949 . S
C236 C244 1.574 . S
C236 C252 1.368 . S
H237 C245 0.950 . S
H238 C243 0.950 . S
H239 C244 0.949 . S
H240 C246 0.950 . S
H241 C247 0.950 . S
H242 C248 0.949 . S
C243 H238 0.950 . S
C243 C245 1.327 . S
C243 C249 1.429 . S
C244 C236 1.574 . S
C244 H239 0.949 . S
C244 C250 1.368 . S
C245 C229 1.349 . S
C245 H237 0.950 . S
C245 C243 1.327 . S
C246 C234 1.349 . S
C246 H240 0.950 . S
C246 C247 1.327 . S
C247 H241 0.950 . S
C247 C246 1.327 . S
C247 C251 1.429 . S
C248 C231 1.574 . S
C248 H242 0.949 . S
C248 C252 1.368 . S
C249 C230 1.429 . S
C249 C243 1.429 . S
C249 C250 1.523 . S
C250 C231 1.368 . S
C250 C244 1.368 . S
C250 C249 1.523 . S
C251 C235 1.429 . S
C251 C247 1.429 . S
C251 C252 1.523 . S
C252 C236 1.368 . S
C252 C248 1.368 . S
C252 C251 1.523 . S
H253 C228 0.950 . S
H254 C230 0.950 . S
H255 C231 0.949 . S
H256 C233 0.950 . S
H257 C235 0.950 . S
C258 C259 1.349 . S
C258 C260 1.327 . S
C258 H283 0.950 . S
C259 C258 1.349 . S
C259 C275 1.349 . S
C260 C258 1.327 . S
C260 C279 1.429 . S
C260 H284 0.950 . S
C261 C278 1.574 . S
C261 C280 1.368 . S
C261 H285 0.949 . S
H262 C266 0.949 . S
C263 C264 1.349 . S
C263 C265 1.327 . S
C263 H286 0.950 . S
C264 C263 1.349 . S
C264 C276 1.349 . S
C265 C263 1.327 . S
C265 C281 1.429 . S
C265 H287 0.950 . S
C266 H262 0.949 . S
C266 C274 1.574 . S
C266 C282 1.368 . S
H267 C275 0.950 . S
H268 C273 0.950 . S
H269 C274 0.949 . S
H270 C276 0.950 . S
H271 C277 0.950 . S
H272 C278 0.949 . S
C273 H268 0.950 . S
C273 C275 1.327 . S
C273 C279 1.429 . S
C274 C266 1.574 . S
C274 H269 0.949 . S
C274 C280 1.368 . S
C275 C259 1.349 . S
C275 H267 0.950 . S
C275 C273 1.327 . S
C276 C264 1.349 . S
C276 H270 0.950 . S
C276 C277 1.327 . S
C277 H271 0.950 . S
C277 C276 1.327 . S
C277 C281 1.429 . S
C278 C261 1.574 . S
C278 H272 0.949 . S
C278 C282 1.368 . S
C279 C260 1.429 . S
C279 C273 1.429 . S
C279 C280 1.523 . S
C280 C261 1.368 . S
C280 C274 1.368 . S
C280 C279 1.523 . S
C281 C265 1.429 . S
C281 C277 1.429 . S
C281 C282 1.523 . S
C282 C266 1.368 . S
C282 C278 1.368 . S
C282 C281 1.523 . S
H283 C258 0.950 . S
H284 C260 0.950 . S
H285 C261 0.949 . S
H286 C263 0.950 . S
H287 C265 0.950 . S
C288 C289 1.349 1_554 S
C288 C290 1.327 . S
C288 H313 0.950 . S
C289 C288 1.349 1_556 S
C289 C305 1.349 . S
C290 C288 1.327 . S
C290 C309 1.429 1_554 S
C290 H314 0.950 . S
C291 C308 1.574 . S
C291 C310 1.368 . S
C291 H315 0.949 . S
H292 C296 0.949 . S
C293 C294 1.349 . S
C293 C295 1.327 . S
C293 H316 0.950 . S
C294 C293 1.349 . S
C294 C306 1.349 1_556 S
C295 C293 1.327 . S
C295 C311 1.429 . S
C295 H317 0.950 . S
C296 H292 0.949 . S
C296 C304 1.574 . S
C296 C312 1.368 1_554 S
H297 C305 0.950 . S
H298 C303 0.950 . S
H299 C304 0.949 . S
H300 C306 0.950 . S
H301 C307 0.950 . S
H302 C308 0.949 . S
C303 H298 0.950 . S
C303 C305 1.327 . S
C303 C309 1.429 . S
C304 C296 1.574 . S
C304 H299 0.949 . S
C304 C310 1.368 1_554 S
C305 C289 1.349 . S
C305 H297 0.950 . S
C305 C303 1.327 . S
C306 C294 1.349 1_554 S
C306 H300 0.950 . S
C306 C307 1.327 . S
C307 H301 0.950 . S
C307 C306 1.327 . S
C307 C311 1.429 1_554 S
C308 C291 1.574 . S
C308 H302 0.949 . S
C308 C312 1.368 . S
C309 C290 1.429 1_556 S
C309 C303 1.429 . S
C309 C310 1.523 1_655 S
C310 C291 1.368 . S
C310 C304 1.368 1_556 S
C310 C309 1.523 1_455 S
C311 C295 1.429 . S
C311 C307 1.429 1_556 S
C311 C312 1.523 . S
C312 C296 1.368 1_556 S
C312 C308 1.368 . S
C312 C311 1.523 . S
H313 C288 0.950 . S
H314 C290 0.950 . S
H315 C291 0.949 . S
H316 C293 0.950 . S
H317 C295 0.950 . S
C318 C319 1.349 . S
C318 C320 1.327 . S
C318 H343 0.950 . S
C319 C318 1.349 . S
C319 C335 1.349 1_556 S
C320 C318 1.327 . S
C320 C339 1.429 . S
C320 H344 0.950 . S
C321 C338 1.574 . S
C321 C340 1.368 1_554 S
C321 H345 0.949 . S
H322 C326 0.949 . S
C323 C324 1.349 1_554 S
C323 C325 1.327 . S
C323 H346 0.950 . S
C324 C323 1.349 1_556 S
C324 C336 1.349 . S
C325 C323 1.327 . S
C325 C341 1.429 1_554 S
C325 H347 0.950 . S
C326 H322 0.949 . S
C326 C334 1.574 . S
C326 C342 1.368 . S
H327 C335 0.950 . S
H328 C333 0.950 . S
H329 C334 0.949 . S
H330 C336 0.950 . S
H331 C337 0.950 . S
H332 C338 0.949 . S
C333 H328 0.950 . S
C333 C335 1.327 . S
C333 C339 1.429 1_554 S
C334 C326 1.574 . S
C334 H329 0.949 . S
C334 C340 1.368 . S
C335 C319 1.349 1_554 S
C335 H327 0.950 . S
C335 C333 1.327 . S
C336 C324 1.349 . S
C336 H330 0.950 . S
C336 C337 1.327 . S
C337 H331 0.950 . S
C337 C336 1.327 . S
C337 C341 1.429 . S
C338 C321 1.574 . S
C338 H332 0.949 . S
C338 C342 1.368 1_554 S
C339 C320 1.429 . S
C339 C333 1.429 1_556 S
C339 C340 1.523 1_455 S
C340 C321 1.368 1_556 S
C340 C334 1.368 . S
C340 C339 1.523 1_655 S
C341 C325 1.429 1_556 S
C341 C337 1.429 . S
C341 C342 1.523 . S
C342 C326 1.368 . S
C342 C338 1.368 1_556 S
C342 C341 1.523 . S
H343 C318 0.950 . S
H344 C320 0.950 . S
H345 C321 0.949 . S
H346 C323 0.950 . S
H347 C325 0.950 . S
C348 C349 1.349 . S
C348 C350 1.327 . S
C348 H373 0.950 . S
C349 C348 1.349 . S
C349 C365 1.349 . S
C350 C348 1.327 . S
C350 C369 1.429 . S
C350 H374 0.950 . S
C351 C368 1.574 . S
C351 C370 1.368 . S
C351 H375 0.949 . S
H352 C356 0.949 . S
C353 C354 1.349 . S
C353 C355 1.327 . S
C353 H376 0.950 . S
C354 C353 1.349 . S
C354 C366 1.349 . S
C355 C353 1.327 . S
C355 C371 1.429 . S
C355 H377 0.950 . S
C356 H352 0.949 . S
C356 C364 1.574 . S
C356 C372 1.368 . S
H357 C365 0.950 . S
H358 C363 0.950 . S
H359 C364 0.949 . S
H360 C366 0.950 . S
H361 C367 0.950 . S
H362 C368 0.949 . S
C363 H358 0.950 . S
C363 C365 1.327 . S
C363 C369 1.429 . S
C364 C356 1.574 . S
C364 H359 0.949 . S
C364 C370 1.368 . S
C365 C349 1.349 . S
C365 H357 0.950 . S
C365 C363 1.327 . S
C366 C354 1.349 . S
C366 H360 0.950 . S
C366 C367 1.327 . S
C367 H361 0.950 . S
C367 C366 1.327 . S
C367 C371 1.429 . S
C368 C351 1.574 . S
C368 H362 0.949 . S
C368 C372 1.368 . S
C369 C350 1.429 . S
C369 C363 1.429 . S
C369 C370 1.523 . S
C370 C351 1.368 . S
C370 C364 1.368 . S
C370 C369 1.523 . S
C371 C355 1.429 . S
C371 C367 1.429 . S
C371 C372 1.523 1_655 S
C372 C356 1.368 . S
C372 C368 1.368 . S
C372 C371 1.523 1_455 S
H373 C348 0.950 . S
H374 C350 0.950 . S
H375 C351 0.949 . S
H376 C353 0.950 . S
H377 C355 0.950 . S
C378 C379 1.349 . S
C378 C380 1.327 . S
C378 H403 0.950 . S
C379 C378 1.349 . S
C379 C395 1.349 . S
C380 C378 1.327 . S
C380 C399 1.429 . S
C380 H404 0.950 . S
C381 C398 1.574 . S
C381 C400 1.368 . S
C381 H405 0.949 . S
H382 C386 0.949 . S
C383 C384 1.349 . S
C383 C385 1.327 . S
C383 H406 0.950 . S
C384 C383 1.349 . S
C384 C396 1.349 . S
C385 C383 1.327 . S
C385 C401 1.429 . S
C385 H407 0.950 . S
C386 H382 0.949 . S
C386 C394 1.574 . S
C386 C402 1.368 . S
H387 C395 0.950 . S
H388 C393 0.950 . S
H389 C394 0.949 . S
H390 C396 0.950 . S
H391 C397 0.950 . S
H392 C398 0.949 . S
C393 H388 0.950 . S
C393 C395 1.327 . S
C393 C399 1.429 . S
C394 C386 1.574 . S
C394 H389 0.949 . S
C394 C400 1.368 . S
C395 C379 1.349 . S
C395 H387 0.950 . S
C395 C393 1.327 . S
C396 C384 1.349 . S
C396 H390 0.950 . S
C396 C397 1.327 . S
C397 H391 0.950 . S
C397 C396 1.327 . S
C397 C401 1.429 . S
C398 C381 1.574 . S
C398 H392 0.949 . S
C398 C402 1.368 . S
C399 C380 1.429 . S
C399 C393 1.429 . S
C399 C400 1.523 . S
C400 C381 1.368 . S
C400 C394 1.368 . S
C400 C399 1.523 . S
C401 C385 1.429 . S
C401 C397 1.429 . S
C401 C402 1.523 1_455 S
C402 C386 1.368 . S
C402 C398 1.368 . S
C402 C401 1.523 1_655 S
H403 C378 0.950 . S
H404 C380 0.950 . S
H405 C381 0.949 . S
H406 C383 0.950 . S
H407 C385 0.950 . S
C408 C409 1.349 . S
C408 C410 1.327 . S
C408 H433 0.950 . S
C409 C408 1.349 . S
C409 C425 1.349 1_554 S
C410 C408 1.327 . S
C410 C429 1.429 . S
C410 H434 0.950 . S
C411 C428 1.574 . S
C411 C430 1.368 1_456 S
C411 H435 0.949 . S
H412 C416 0.949 . S
C413 C414 1.349 1_556 S
C413 C415 1.327 . S
C413 H436 0.950 . S
C414 C413 1.349 1_554 S
C414 C426 1.349 . S
C415 C413 1.327 . S
C415 C431 1.429 1_556 S
C415 H437 0.950 . S
C416 H412 0.949 . S
C416 C424 1.574 . S
C416 C432 1.368 1_655 S
H417 C425 0.950 . S
H418 C423 0.950 1_455 S
H419 C424 0.949 . S
H420 C426 0.950 . S
H421 C427 0.950 1_655 S
H422 C428 0.949 . S
C423 H418 0.950 1_655 S
C423 C425 1.327 . S
C423 C429 1.429 1_556 S
C424 C416 1.574 . S
C424 H419 0.949 . S
C424 C430 1.368 . S
C425 C409 1.349 1_556 S
C425 H417 0.950 . S
C425 C423 1.327 . S
C426 C414 1.349 . S
C426 H420 0.950 . S
C426 C427 1.327 . S
C427 H421 0.950 1_455 S
C427 C426 1.327 . S
C427 C431 1.429 . S
C428 C411 1.574 . S
C428 H422 0.949 . S
C428 C432 1.368 1_556 S
C429 C410 1.429 . S
C429 C423 1.429 1_554 S
C429 C430 1.523 . S
C430 C411 1.368 1_654 S
C430 C424 1.368 . S
C430 C429 1.523 . S
C431 C415 1.429 1_554 S
C431 C427 1.429 . S
C431 C432 1.523 . S
C432 C416 1.368 1_455 S
C432 C428 1.368 1_554 S
C432 C431 1.523 . S
H433 C408 0.950 . S
H434 C410 0.950 . S
H435 C411 0.949 . S
H436 C413 0.950 . S
H437 C415 0.950 . S
C438 C439 1.349 . S
C438 C440 1.327 . S
C438 H463 0.950 . S
C439 C438 1.349 . S
C439 C455 1.349 . S
C440 C438 1.327 . S
C440 C459 1.429 . S
C440 H464 0.950 1_655 S
C441 C458 1.574 . S
C441 C460 1.368 . S
C441 H465 0.949 . S
H442 C446 0.949 . S
C443 C444 1.349 . S
C443 C445 1.327 . S
C443 H466 0.950 . S
C444 C443 1.349 . S
C444 C456 1.349 . S
C445 C443 1.327 . S
C445 C461 1.429 . S
C445 H467 0.950 1_455 S
C446 H442 0.949 . S
C446 C454 1.574 . S
C446 C462 1.368 . S
H447 C455 0.950 . S
H448 C453 0.950 . S
H449 C454 0.949 . S
H450 C456 0.950 . S
H451 C457 0.950 . S
H452 C458 0.949 . S
C453 H448 0.950 . S
C453 C455 1.327 . S
C453 C459 1.429 . S
C454 C446 1.574 . S
C454 H449 0.949 . S
C454 C460 1.368 1_455 S
C455 C439 1.349 . S
C455 H447 0.950 . S
C455 C453 1.327 . S
C456 C444 1.349 . S
C456 H450 0.950 . S
C456 C457 1.327 . S
C457 H451 0.950 . S
C457 C456 1.327 . S
C457 C461 1.429 . S
C458 C441 1.574 . S
C458 H452 0.949 . S
C458 C462 1.368 1_655 S
C459 C440 1.429 . S
C459 C453 1.429 . S
C459 C460 1.523 . S
C460 C441 1.368 . S
C460 C454 1.368 1_655 S
C460 C459 1.523 . S
C461 C445 1.429 . S
C461 C457 1.429 . S
C461 C462 1.523 . S
C462 C446 1.368 . S
C462 C458 1.368 1_455 S
C462 C461 1.523 . S
H463 C438 0.950 . S
H464 C440 0.950 1_455 S
H465 C441 0.949 . S
H466 C443 0.950 . S
H467 C445 0.950 1_655 S
C468 C469 1.349 . S
C468 C470 1.327 . S
C468 H493 0.950 . S
C469 C468 1.349 . S
C469 C485 1.349 1_554 S
C470 C468 1.327 . S
C470 C489 1.429 . S
C470 H494 0.950 . S
C471 C488 1.574 1_565 S
C471 C490 1.368 1_556 S
C471 H495 0.949 . S
H472 C476 0.949 . S
C473 C474 1.349 1_556 S
C473 C475 1.327 . S
C473 H496 0.950 . S
C474 C473 1.349 1_554 S
C474 C486 1.349 . S
C475 C473 1.327 . S
C475 C491 1.429 1_556 S
C475 H497 0.950 . S
C476 H472 0.949 . S
C476 C484 1.574 1_545 S
C476 C492 1.368 . S
H477 C485 0.950 . S
H478 C483 0.950 . S
H479 C484 0.949 . S
H480 C486 0.950 . S
H481 C487 0.950 . S
H482 C488 0.949 . S
C483 H478 0.950 . S
C483 C485 1.327 . S
C483 C489 1.429 1_556 S
C484 C476 1.574 1_565 S
C484 H479 0.949 . S
C484 C490 1.368 . S
C485 C469 1.349 1_556 S
C485 H477 0.950 . S
C485 C483 1.327 . S
C486 C474 1.349 . S
C486 H480 0.950 . S
C486 C487 1.327 . S
C487 H481 0.950 . S
C487 C486 1.327 . S
C487 C491 1.429 . S
C488 C471 1.574 1_545 S
C488 H482 0.949 . S
C488 C492 1.368 1_556 S
C489 C470 1.429 . S
C489 C483 1.429 1_554 S
C489 C490 1.523 . S
C490 C471 1.368 1_554 S
C490 C484 1.368 . S
C490 C489 1.523 . S
C491 C475 1.429 1_554 S
C491 C487 1.429 . S
C491 C492 1.523 . S
C492 C476 1.368 . S
C492 C488 1.368 1_554 S
C492 C491 1.523 . S
H493 C468 0.950 . S
H494 C470 0.950 . S
H495 C471 0.949 . S
H496 C473 0.950 . S
H497 C475 0.950 . S
C498 C499 1.349 . S
C498 C500 1.327 . S
C498 H523 0.950 . S
C499 C498 1.349 . S
C499 C515 1.349 . S
C500 C498 1.327 . S
C500 C519 1.429 . S
C500 H524 0.950 . S
C501 C518 1.574 1_545 S
C501 C520 1.368 . S
C501 H525 0.949 . S
H502 C506 0.949 . S
C503 C504 1.349 . S
C503 C505 1.327 . S
C503 H526 0.950 . S
C504 C503 1.349 . S
C504 C516 1.349 . S
C505 C503 1.327 . S
C505 C521 1.429 . S
C505 H527 0.950 . S
C506 H502 0.949 . S
C506 C514 1.574 1_565 S
C506 C522 1.368 . S
H507 C515 0.950 . S
H508 C513 0.950 . S
H509 C514 0.949 . S
H510 C516 0.950 . S
H511 C517 0.950 . S
H512 C518 0.949 . S
C513 H508 0.950 . S
C513 C515 1.327 . S
C513 C519 1.429 . S
C514 C506 1.574 1_545 S
C514 H509 0.949 . S
C514 C520 1.368 . S
C515 C499 1.349 . S
C515 H507 0.950 . S
C515 C513 1.327 . S
C516 C504 1.349 . S
C516 H510 0.950 . S
C516 C517 1.327 . S
C517 H511 0.950 . S
C517 C516 1.327 . S
C517 C521 1.429 . S
C518 C501 1.574 1_565 S
C518 H512 0.949 . S
C518 C522 1.368 . S
C519 C500 1.429 . S
C519 C513 1.429 . S
C519 C520 1.523 . S
C520 C501 1.368 . S
C520 C514 1.368 . S
C520 C519 1.523 . S
C521 C505 1.429 . S
C521 C517 1.429 . S
C521 C522 1.523 . S
C522 C506 1.368 . S
C522 C518 1.368 . S
C522 C521 1.523 . S
H523 C498 0.950 . S
H524 C500 0.950 . S
H525 C501 0.949 . S
H526 C503 0.950 . S
H527 C505 0.950 . S
C528 C529 1.349 1_556 S
C528 C530 1.327 . S
C528 H553 0.950 . S
C529 C528 1.349 1_554 S
C529 C545 1.349 . S
C530 C528 1.327 . S
C530 C549 1.429 1_556 S
C530 H554 0.950 . S
C531 C548 1.574 . S
C531 C550 1.368 . S
C531 H555 0.949 . S
H532 C536 0.949 . S
C533 C534 1.349 . S
C533 C535 1.327 . S
C533 H556 0.950 . S
C534 C533 1.349 . S
C534 C546 1.349 1_554 S
C535 C533 1.327 . S
C535 C551 1.429 . S
C535 H557 0.950 . S
C536 H532 0.949 . S
C536 C544 1.574 . S
C536 C552 1.368 1_556 S
H537 C545 0.950 . S
H538 C543 0.950 . S
H539 C544 0.949 . S
H540 C546 0.950 . S
H541 C547 0.950 . S
H542 C548 0.949 . S
C543 H538 0.950 . S
C543 C545 1.327 . S
C543 C549 1.429 . S
C544 C536 1.574 . S
C544 H539 0.949 . S
C544 C550 1.368 1_556 S
C545 C529 1.349 . S
C545 H537 0.950 . S
C545 C543 1.327 . S
C546 C534 1.349 1_556 S
C546 H540 0.950 . S
C546 C547 1.327 . S
C547 H541 0.950 . S
C547 C546 1.327 . S
C547 C551 1.429 1_556 S
C548 C531 1.574 . S
C548 H542 0.949 . S
C548 C552 1.368 . S
C549 C530 1.429 1_554 S
C549 C543 1.429 . S
C549 C550 1.523 . S
C550 C531 1.368 . S
C550 C544 1.368 1_554 S
C550 C549 1.523 . S
C551 C535 1.429 . S
C551 C547 1.429 1_554 S
C551 C552 1.523 . S
C552 C536 1.368 1_554 S
C552 C548 1.368 . S
C552 C551 1.523 . S
H553 C528 0.950 . S
H554 C530 0.950 . S
H555 C531 0.949 . S
H556 C533 0.950 . S
H557 C535 0.950 . S
C558 C559 1.349 . S
C558 C560 1.327 . S
C558 H583 0.950 . S
C559 C558 1.349 . S
C559 C575 1.349 1_554 S
C560 C558 1.327 . S
C560 C579 1.429 . S
C560 H584 0.950 . S
C561 C578 1.574 . S
C561 C580 1.368 1_556 S
C561 H585 0.949 . S
H562 C566 0.949 . S
C563 C564 1.349 1_556 S
C563 C565 1.327 . S
C563 H586 0.950 . S
C564 C563 1.349 1_554 S
C564 C576 1.349 . S
C565 C563 1.327 . S
C565 C581 1.429 1_556 S
C565 H587 0.950 . S
C566 H562 0.949 . S
C566 C574 1.574 . S
C566 C582 1.368 . S
H567 C575 0.950 . S
H568 C573 0.950 . S
H569 C574 0.949 . S
H570 C576 0.950 . S
H571 C577 0.950 . S
H572 C578 0.949 . S
C573 H568 0.950 . S
C573 C575 1.327 . S
C573 C579 1.429 1_556 S
C574 C566 1.574 . S
C574 H569 0.949 . S
C574 C580 1.368 . S
C575 C559 1.349 1_556 S
C575 H567 0.950 . S
C575 C573 1.327 . S
C576 C564 1.349 . S
C576 H570 0.950 . S
C576 C577 1.327 . S
C577 H571 0.950 . S
C577 C576 1.327 . S
C577 C581 1.429 . S
C578 C561 1.574 . S
C578 H572 0.949 . S
C578 C582 1.368 1_556 S
C579 C560 1.429 . S
C579 C573 1.429 1_554 S
C579 C580 1.523 . S
C580 C561 1.368 1_554 S
C580 C574 1.368 . S
C580 C579 1.523 . S
C581 C565 1.429 1_554 S
C581 C577 1.429 . S
C581 C582 1.523 . S
C582 C566 1.368 . S
C582 C578 1.368 1_554 S
C582 C581 1.523 . S
H583 C558 0.950 . S
H584 C560 0.950 . S
H585 C561 0.949 . S
H586 C563 0.950 . S
H587 C565 0.950 . S
C588 C589 1.349 . S
C588 C590 1.327 . S
C588 H613 0.950 . S
C589 C588 1.349 . S
C589 C605 1.349 . S
C590 C588 1.327 . S
C590 C609 1.429 . S
C590 H614 0.950 . S
C591 C608 1.574 . S
C591 C610 1.368 . S
C591 H615 0.949 . S
H592 C596 0.949 . S
C593 C594 1.349 . S
C593 C595 1.327 . S
C593 H616 0.950 . S
C594 C593 1.349 . S
C594 C606 1.349 . S
C595 C593 1.327 . S
C595 C611 1.429 . S
C595 H617 0.950 . S
C596 H592 0.949 . S
C596 C604 1.574 . S
C596 C612 1.368 . S
H597 C605 0.950 . S
H598 C603 0.950 . S
H599 C604 0.949 . S
H600 C606 0.950 . S
H601 C607 0.950 . S
H602 C608 0.949 . S
C603 H598 0.950 . S
C603 C605 1.327 . S
C603 C609 1.429 . S
C604 C596 1.574 . S
C604 H599 0.949 . S
C604 C610 1.368 . S
C605 C589 1.349 . S
C605 H597 0.950 . S
C605 C603 1.327 . S
C606 C594 1.349 . S
C606 H600 0.950 . S
C606 C607 1.327 . S
C607 H601 0.950 . S
C607 C606 1.327 . S
C607 C611 1.429 . S
C608 C591 1.574 . S
C608 H602 0.949 . S
C608 C612 1.368 . S
C609 C590 1.429 . S
C609 C603 1.429 . S
C609 C610 1.523 . S
C610 C591 1.368 . S
C610 C604 1.368 . S
C610 C609 1.523 . S
C611 C595 1.429 . S
C611 C607 1.429 . S
C611 C612 1.523 . S
C612 C596 1.368 . S
C612 C608 1.368 . S
C612 C611 1.523 . S
H613 C588 0.950 . S
H614 C590 0.950 . S
H615 C591 0.949 . S
H616 C593 0.950 . S
H617 C595 0.950 . S
C618 C619 1.349 . S
C618 C620 1.327 . S
C618 H643 0.950 . S
C619 C618 1.349 . S
C619 C635 1.349 . S
C620 C618 1.327 . S
C620 C639 1.429 . S
C620 H644 0.950 . S
C621 C638 1.574 . S
C621 C640 1.368 . S
C621 H645 0.949 . S
H622 C626 0.949 . S
C623 C624 1.349 . S
C623 C625 1.327 . S
C623 H646 0.950 . S
C624 C623 1.349 . S
C624 C636 1.349 . S
C625 C623 1.327 . S
C625 C641 1.429 . S
C625 H647 0.950 . S
C626 H622 0.949 . S
C626 C634 1.574 . S
C626 C642 1.368 . S
H627 C635 0.950 . S
H628 C633 0.950 . S
H629 C634 0.949 . S
H630 C636 0.950 . S
H631 C637 0.950 . S
H632 C638 0.949 . S
C633 H628 0.950 . S
C633 C635 1.327 . S
C633 C639 1.429 . S
C634 C626 1.574 . S
C634 H629 0.949 . S
C634 C640 1.368 . S
C635 C619 1.349 . S
C635 H627 0.950 . S
C635 C633 1.327 . S
C636 C624 1.349 . S
C636 H630 0.950 . S
C636 C637 1.327 . S
C637 H631 0.950 . S
C637 C636 1.327 . S
C637 C641 1.429 . S
C638 C621 1.574 . S
C638 H632 0.949 . S
C638 C642 1.368 . S
C639 C620 1.429 . S
C639 C633 1.429 . S
C639 C640 1.523 . S
C640 C621 1.368 . S
C640 C634 1.368 . S
C640 C639 1.523 . S
C641 C625 1.429 . S
C641 C637 1.429 . S
C641 C642 1.523 . S
C642 C626 1.368 . S
C642 C638 1.368 . S
C642 C641 1.523 . S
H643 C618 0.950 . S
H644 C620 0.950 . S
H645 C621 0.949 . S
H646 C623 0.950 . S
H647 C625 0.950 . S
C648 C649 1.349 . S
C648 C650 1.327 . S
C648 H673 0.950 . S
C649 C648 1.349 . S
C649 C665 1.350 . S
C650 C648 1.327 . S
C650 C669 1.429 . S
C650 H674 0.950 . S
C651 C668 1.574 . S
C651 C670 1.368 1_655 S
C651 H675 0.949 . S
H652 C656 0.949 . S
C653 C654 1.349 . S
C653 C655 1.327 . S
C653 H676 0.950 . S
C654 C653 1.349 . S
C654 C666 1.350 . S
C655 C653 1.327 . S
C655 C671 1.429 . S
C655 H677 0.950 . S
C656 H652 0.949 . S
C656 C664 1.574 . S
C656 C672 1.368 1_455 S
H657 C665 0.949 1_655 S
H658 C663 0.950 . S
H659 C664 0.949 . S
H660 C666 0.949 1_455 S
H661 C667 0.950 . S
H662 C668 0.949 . S
C663 H658 0.950 . S
C663 C665 1.327 1_655 S
C663 C669 1.429 1_655 S
C664 C656 1.574 . S
C664 H659 0.949 . S
C664 C670 1.368 . S
C665 C649 1.350 . S
C665 H657 0.949 1_455 S
C665 C663 1.327 1_455 S
C666 C654 1.350 . S
C666 H660 0.949 1_655 S
C666 C667 1.327 1_655 S
C667 H661 0.950 . S
C667 C666 1.327 1_455 S
C667 C671 1.429 1_455 S
C668 C651 1.574 . S
C668 H662 0.949 . S
C668 C672 1.368 . S
C669 C650 1.429 . S
C669 C663 1.429 1_455 S
C669 C670 1.523 . S
C670 C651 1.368 1_455 S
C670 C664 1.368 . S
C670 C669 1.523 . S
C671 C655 1.429 . S
C671 C667 1.429 1_655 S
C671 C672 1.523 . S
C672 C656 1.368 1_655 S
C672 C668 1.368 . S
C672 C671 1.523 . S
H673 C648 0.950 . S
H674 C650 0.950 . S
H675 C651 0.949 . S
H676 C653 0.950 . S
H677 C655 0.950 . S
C678 C679 1.350 . S
C678 C680 1.327 1_655 S
C678 H703 0.949 1_655 S
C679 C678 1.350 . S
C679 C695 1.349 . S
C680 C678 1.327 1_455 S
C680 C699 1.429 1_455 S
C680 H704 0.950 . S
C681 C698 1.574 . S
C681 C700 1.368 . S
C681 H705 0.949 . S
H682 C686 0.949 . S
C683 C684 1.350 . S
C683 C685 1.327 1_455 S
C683 H706 0.949 1_455 S
C684 C683 1.350 . S
C684 C696 1.349 . S
C685 C683 1.327 1_655 S
C685 C701 1.429 1_655 S
C685 H707 0.950 . S
C686 H682 0.949 . S
C686 C694 1.574 . S
C686 C702 1.368 . S
H687 C695 0.950 . S
H688 C693 0.950 . S
H689 C694 0.949 . S
H690 C696 0.950 . S
H691 C697 0.950 . S
H692 C698 0.949 . S
C693 H688 0.950 . S
C693 C695 1.327 . S
C693 C699 1.429 . S
C694 C686 1.574 . S
C694 H689 0.949 . S
C694 C700 1.368 1_455 S
C695 C679 1.349 . S
C695 H687 0.950 . S
C695 C693 1.327 . S
C696 C684 1.349 . S
C696 H690 0.950 . S
C696 C697 1.327 . S
C697 H691 0.950 . S
C697 C696 1.327 . S
C697 C701 1.429 . S
C698 C681 1.574 . S
C698 H692 0.949 . S
C698 C702 1.368 1_655 S
C699 C680 1.429 1_655 S
C699 C693 1.429 . S
C699 C700 1.523 . S
C700 C681 1.368 . S
C700 C694 1.368 1_655 S
C700 C699 1.523 . S
C701 C685 1.429 1_455 S
C701 C697 1.429 . S
C701 C702 1.523 . S
C702 C686 1.368 . S
C702 C698 1.368 1_455 S
C702 C701 1.523 . S
H703 C678 0.949 1_455 S
H704 C680 0.950 . S
H705 C681 0.949 . S
H706 C683 0.949 1_655 S
H707 C685 0.950 . S
C708 C709 1.349 1_455 S
C708 C710 1.327 . S
C708 H733 0.950 . S
C709 C708 1.349 1_655 S
C709 C725 1.349 . S
C710 C708 1.327 . S
C710 C729 1.429 1_455 S
C710 H734 0.950 . S
C711 C728 1.574 . S
C711 C730 1.368 . S
C711 H735 0.949 . S
H712 C716 0.949 . S
C713 C714 1.349 1_655 S
C713 C715 1.327 . S
C713 H736 0.950 . S
C714 C713 1.349 1_455 S
C714 C726 1.349 . S
C715 C713 1.327 . S
C715 C731 1.429 1_655 S
C715 H737 0.950 . S
C716 H712 0.949 . S
C716 C724 1.574 . S
C716 C732 1.368 . S
H717 C725 0.950 . S
H718 C723 0.950 . S
H719 C724 0.949 . S
H720 C726 0.950 . S
H721 C727 0.950 . S
H722 C728 0.949 . S
C723 H718 0.950 . S
C723 C725 1.327 . S
C723 C729 1.429 . S
C724 C716 1.574 . S
C724 H719 0.949 . S
C724 C730 1.368 1_455 S
C725 C709 1.349 . S
C725 H717 0.950 . S
C725 C723 1.327 . S
C726 C714 1.349 . S
C726 H720 0.950 . S
C726 C727 1.327 . S
C727 H721 0.950 . S
C727 C726 1.327 . S
C727 C731 1.429 . S
C728 C711 1.574 . S
C728 H722 0.949 . S
C728 C732 1.368 1_655 S
C729 C710 1.429 1_655 S
C729 C723 1.429 . S
C729 C730 1.523 . S
C730 C711 1.368 . S
C730 C724 1.368 1_655 S
C730 C729 1.523 . S
C731 C715 1.429 1_455 S
C731 C727 1.429 . S
C731 C732 1.523 . S
C732 C716 1.368 . S
C732 C728 1.368 1_455 S
C732 C731 1.523 . S
H733 C708 0.950 . S
H734 C710 0.950 . S
H735 C711 0.949 . S
H736 C713 0.950 . S
H737 C715 0.950 . S
C738 C739 1.349 1_455 S
C738 C740 1.327 . S
C738 H763 0.950 . S
C739 C738 1.349 1_655 S
C739 C755 1.349 . S
C740 C738 1.327 . S
C740 C759 1.429 1_455 S
C740 H764 0.950 . S
C741 C758 1.574 . S
C741 C760 1.368 . S
C741 H765 0.949 . S
H742 C746 0.949 . S
C743 C744 1.349 1_655 S
C743 C745 1.327 . S
C743 H766 0.950 . S
C744 C743 1.349 1_455 S
C744 C756 1.349 . S
C745 C743 1.327 . S
C745 C761 1.429 1_655 S
C745 H767 0.950 . S
C746 H742 0.949 . S
C746 C754 1.574 . S
C746 C762 1.368 . S
H747 C755 0.950 . S
H748 C753 0.950 . S
H749 C754 0.949 . S
H750 C756 0.950 . S
H751 C757 0.950 . S
H752 C758 0.949 . S
C753 H748 0.950 . S
C753 C755 1.327 . S
C753 C759 1.429 . S
C754 C746 1.574 . S
C754 H749 0.949 . S
C754 C760 1.368 1_455 S
C755 C739 1.349 . S
C755 H747 0.950 . S
C755 C753 1.327 . S
C756 C744 1.349 . S
C756 H750 0.950 . S
C756 C757 1.327 . S
C757 H751 0.950 . S
C757 C756 1.327 . S
C757 C761 1.429 . S
C758 C741 1.574 . S
C758 H752 0.949 . S
C758 C762 1.368 1_655 S
C759 C740 1.429 1_655 S
C759 C753 1.429 . S
C759 C760 1.523 . S
C760 C741 1.368 . S
C760 C754 1.368 1_655 S
C760 C759 1.523 . S
C761 C745 1.429 1_455 S
C761 C757 1.429 . S
C761 C762 1.523 . S
C762 C746 1.368 . S
C762 C758 1.368 1_455 S
C762 C761 1.523 . S
H763 C738 0.950 . S
H764 C740 0.950 . S
H765 C741 0.949 . S
H766 C743 0.950 . S
H767 C745 0.950 . S
C768 C769 1.349 . S
C768 C770 1.327 . S
C768 H793 0.950 . S
C769 C768 1.349 . S
C769 C785 1.349 . S
C770 C768 1.327 . S
C770 C789 1.429 . S
C770 H794 0.950 . S
C771 C788 1.574 . S
C771 C790 1.368 . S
C771 H795 0.949 . S
H772 C776 0.949 . S
C773 C774 1.349 . S
C773 C775 1.327 . S
C773 H796 0.950 . S
C774 C773 1.349 . S
C774 C786 1.349 . S
C775 C773 1.327 . S
C775 C791 1.429 . S
C775 H797 0.950 . S
C776 H772 0.949 . S
C776 C784 1.574 . S
C776 C792 1.368 . S
H777 C785 0.950 . S
H778 C783 0.950 . S
H779 C784 0.949 . S
H780 C786 0.950 . S
H781 C787 0.950 . S
H782 C788 0.949 . S
C783 H778 0.950 . S
C783 C785 1.327 . S
C783 C789 1.429 . S
C784 C776 1.574 . S
C784 H779 0.949 . S
C784 C790 1.368 . S
C785 C769 1.349 . S
C785 H777 0.950 . S
C785 C783 1.327 . S
C786 C774 1.349 . S
C786 H780 0.950 . S
C786 C787 1.327 . S
C787 H781 0.950 . S
C787 C786 1.327 . S
C787 C791 1.429 . S
C788 C771 1.574 . S
C788 H782 0.949 . S
C788 C792 1.368 . S
C789 C770 1.429 . S
C789 C783 1.429 . S
C789 C790 1.523 . S
C790 C771 1.368 . S
C790 C784 1.368 . S
C790 C789 1.523 . S
C791 C775 1.429 . S
C791 C787 1.429 . S
C791 C792 1.523 . S
C792 C776 1.368 . S
C792 C788 1.368 . S
C792 C791 1.523 . S
H793 C768 0.950 . S
H794 C770 0.950 . S
H795 C771 0.949 . S
H796 C773 0.950 . S
H797 C775 0.950 . S
C798 C799 1.349 . S
C798 C800 1.327 . S
C798 H823 0.950 . S
C799 C798 1.349 . S
C799 C815 1.349 . S
C800 C798 1.327 . S
C800 C819 1.429 . S
C800 H824 0.950 . S
C801 C818 1.574 . S
C801 C820 1.368 . S
C801 H825 0.949 . S
H802 C806 0.949 . S
C803 C804 1.349 . S
C803 C805 1.327 . S
C803 H826 0.950 . S
C804 C803 1.349 . S
C804 C816 1.349 . S
C805 C803 1.327 . S
C805 C821 1.429 . S
C805 H827 0.950 . S
C806 H802 0.949 . S
C806 C814 1.574 . S
C806 C822 1.368 . S
H807 C815 0.950 . S
H808 C813 0.950 . S
H809 C814 0.949 . S
H810 C816 0.950 . S
H811 C817 0.950 . S
H812 C818 0.949 . S
C813 H808 0.950 . S
C813 C815 1.327 . S
C813 C819 1.429 . S
C814 C806 1.574 . S
C814 H809 0.949 . S
C814 C820 1.368 . S
C815 C799 1.349 . S
C815 H807 0.950 . S
C815 C813 1.327 . S
C816 C804 1.349 . S
C816 H810 0.950 . S
C816 C817 1.327 . S
C817 H811 0.950 . S
C817 C816 1.327 . S
C817 C821 1.429 . S
C818 C801 1.574 . S
C818 H812 0.949 . S
C818 C822 1.368 . S
C819 C800 1.429 . S
C819 C813 1.429 . S
C819 C820 1.523 . S
C820 C801 1.368 . S
C820 C814 1.368 . S
C820 C819 1.523 . S
C821 C805 1.429 . S
C821 C817 1.429 . S
C821 C822 1.523 . S
C822 C806 1.368 . S
C822 C818 1.368 . S
C822 C821 1.523 . S
H823 C798 0.950 . S
H824 C800 0.950 . S
H825 C801 0.949 . S
H826 C803 0.950 . S
H827 C805 0.950 . S
C828 C829 1.349 . S
C828 C830 1.327 . S
C828 H853 0.950 . S
C829 C828 1.349 . S
C829 C845 1.349 . S
C830 C828 1.327 . S
C830 C849 1.429 . S
C830 H854 0.950 . S
C831 C848 1.574 . S
C831 C850 1.368 . S
C831 H855 0.949 . S
H832 C836 0.949 . S
C833 C834 1.349 . S
C833 C835 1.327 . S
C833 H856 0.950 . S
C834 C833 1.349 . S
C834 C846 1.349 . S
C835 C833 1.327 . S
C835 C851 1.429 . S
C835 H857 0.950 . S
C836 H832 0.949 . S
C836 C844 1.574 . S
C836 C852 1.368 . S
H837 C845 0.950 . S
H838 C843 0.950 . S
H839 C844 0.949 . S
H840 C846 0.950 . S
H841 C847 0.950 . S
H842 C848 0.949 . S
C843 H838 0.950 . S
C843 C845 1.327 . S
C843 C849 1.429 . S
C844 C836 1.574 . S
C844 H839 0.949 . S
C844 C850 1.368 . S
C845 C829 1.349 . S
C845 H837 0.950 . S
C845 C843 1.327 . S
C846 C834 1.349 . S
C846 H840 0.950 . S
C846 C847 1.327 . S
C847 H841 0.950 . S
C847 C846 1.327 . S
C847 C851 1.429 . S
C848 C831 1.574 . S
C848 H842 0.949 . S
C848 C852 1.368 . S
C849 C830 1.429 . S
C849 C843 1.429 . S
C849 C850 1.523 . S
C850 C831 1.368 . S
C850 C844 1.368 . S
C850 C849 1.523 . S
C851 C835 1.429 . S
C851 C847 1.429 . S
C851 C852 1.523 . S
C852 C836 1.368 . S
C852 C848 1.368 . S
C852 C851 1.523 . S
H853 C828 0.950 . S
H854 C830 0.950 . S
H855 C831 0.949 . S
H856 C833 0.950 . S
H857 C835 0.950 . S
C858 C859 1.349 . S
C858 C860 1.327 . S
C858 H883 0.950 . S
C859 C858 1.349 . S
C859 C875 1.349 . S
C860 C858 1.327 . S
C860 C879 1.429 . S
C860 H884 0.950 . S
C861 C878 1.574 . S
C861 C880 1.368 . S
C861 H885 0.949 . S
H862 C866 0.949 . S
C863 C864 1.349 . S
C863 C865 1.327 . S
C863 H886 0.950 . S
C864 C863 1.349 . S
C864 C876 1.349 . S
C865 C863 1.327 . S
C865 C881 1.429 . S
C865 H887 0.950 . S
C866 H862 0.949 . S
C866 C874 1.574 . S
C866 C882 1.368 . S
H867 C875 0.950 . S
H868 C873 0.950 . S
H869 C874 0.949 . S
H870 C876 0.950 . S
H871 C877 0.950 . S
H872 C878 0.949 . S
C873 H868 0.950 . S
C873 C875 1.327 . S
C873 C879 1.429 . S
C874 C866 1.574 . S
C874 H869 0.949 . S
C874 C880 1.368 . S
C875 C859 1.349 . S
C875 H867 0.950 . S
C875 C873 1.327 . S
C876 C864 1.349 . S
C876 H870 0.950 . S
C876 C877 1.327 . S
C877 H871 0.950 . S
C877 C876 1.327 . S
C877 C881 1.429 . S
C878 C861 1.574 . S
C878 H872 0.949 . S
C878 C882 1.368 . S
C879 C860 1.429 . S
C879 C873 1.429 . S
C879 C880 1.523 . S
C880 C861 1.368 . S
C880 C874 1.368 . S
C880 C879 1.523 . S
C881 C865 1.429 . S
C881 C877 1.429 . S
C881 C882 1.523 . S
C882 C866 1.368 . S
C882 C878 1.368 . S
C882 C881 1.523 . S
H883 C858 0.950 . S
H884 C860 0.950 . S
H885 C861 0.949 . S
H886 C863 0.950 . S
H887 C865 0.950 . S
C169 C20 1.142 . S
C174 C16 1.121 1_556 S
C199 C24 1.121 1_556 S
C204 C40 1.142 . S
C229 C45 1.121 . S
C234 C61 1.142 . S
C259 C83 1.142 . S
C264 C79 1.121 . S
C289 C104 1.142 . S
C294 C100 1.121 1_556 S
C319 C124 1.142 . S
C324 C108 1.121 1_556 S
C349 C129 1.121 . S
C354 C145 1.142 . S
C379 C163 1.121 . S
C384 C167 1.142 . S
C409 C37 1.357 1_554 S
C414 C3 1.357 1_554 S
C439 C66 1.364 . S
C444 C58 1.364 . S
C469 C87 1.357 1_554 S
C474 C121 1.357 1_554 S
C499 C142 1.364 . S
C504 C150 1.364 . S
C529 C19 1.359 . S
C534 C125 1.359 . S
C559 C103 1.359 . S
C564 C41 1.359 . S
C589 C62 1.359 . S
C594 C166 1.359 . S
C619 C82 1.359 . S
C624 C146 1.359 . S
C649 C7 1.285 . S
C654 C70 1.282 . S
C679 C25 1.285 . S
C684 C46 1.282 . S
C709 C28 1.322 . S
C714 C49 1.325 . S
C739 C67 1.322 . S
C744 C4 1.325 . S
C769 C91 1.285 . S
C774 C154 1.282 . S
C799 C109 1.285 . S
C804 C130 1.282 . S
C829 C112 1.322 . S
C834 C133 1.325 . S
C859 C151 1.322 . S
C864 C88 1.325 . S
