# Generated by pormake.
# Topology ukv, (4)-cn, num edge types: 1
# Building blocks:
#     Node 0, Type 0, BuildingBlock: GALJAG_clean_sbu_0, # of connection points: 4
#     Node 1, Type 0, BuildingBlock: GALJAG_clean_sbu_0, # of connection points: 4
#     Node 2, Type 0, BuildingBlock: GALJAG_clean_sbu_0, # of connection points: 4
#     Node 3, Type 0, BuildingBlock: GALJAG_clean_sbu_0, # of connection points: 4
#     Node 4, Type 0, BuildingBlock: GALJAG_clean_sbu_0, # of connection points: 4
#     Node 5, Type 0, BuildingBlock: GALJAG_clean_sbu_0, # of connection points: 4
#     Node 6, Type 0, BuildingBlock: GALJAG_clean_sbu_0, # of connection points: 4
#     Node 7, Type 0, BuildingBlock: GALJAG_clean_sbu_0, # of connection points: 4
#     Node 8, Type 0, BuildingBlock: GALJAG_clean_sbu_0, # of connection points: 4
#     Node 9, Type 0, BuildingBlock: GALJAG_clean_sbu_0, # of connection points: 4
#     Node 10, Type 0, BuildingBlock: GALJAG_clean_sbu_0, # of connection points: 4
#     Node 11, Type 0, BuildingBlock: GALJAG_clean_sbu_0, # of connection points: 4
#     Node 12, Type 0, BuildingBlock: GALJAG_clean_sbu_0, # of connection points: 4
#     Node 13, Type 0, BuildingBlock: GALJAG_clean_sbu_0, # of connection points: 4
#     Node 14, Type 0, BuildingBlock: GALJAG_clean_sbu_0, # of connection points: 4
#     Node 15, Type 0, BuildingBlock: GALJAG_clean_sbu_0, # of connection points: 4
#     Node 16, Type 0, BuildingBlock: GALJAG_clean_sbu_0, # of connection points: 4
#     Node 17, Type 0, BuildingBlock: GALJAG_clean_sbu_0, # of connection points: 4
#     Node 18, Type 0, BuildingBlock: GALJAG_clean_sbu_0, # of connection points: 4
#     Node 19, Type 0, BuildingBlock: GALJAG_clean_sbu_0, # of connection points: 4
#     Node 20, Type 0, BuildingBlock: GALJAG_clean_sbu_0, # of connection points: 4
#     Node 21, Type 0, BuildingBlock: GALJAG_clean_sbu_0, # of connection points: 4
#     Node 22, Type 0, BuildingBlock: GALJAG_clean_sbu_0, # of connection points: 4
#     Node 23, Type 0, BuildingBlock: GALJAG_clean_sbu_0, # of connection points: 4
#     Node 24, Type 0, BuildingBlock: GALJAG_clean_sbu_0, # of connection points: 4
#     Node 25, Type 0, BuildingBlock: GALJAG_clean_sbu_0, # of connection points: 4
#     Node 26, Type 0, BuildingBlock: GALJAG_clean_sbu_0, # of connection points: 4
#     Node 27, Type 0, BuildingBlock: GALJAG_clean_sbu_0, # of connection points: 4
#     Node 28, Type 0, BuildingBlock: GALJAG_clean_sbu_0, # of connection points: 4
#     Node 29, Type 0, BuildingBlock: GALJAG_clean_sbu_0, # of connection points: 4
#     Node 30, Type 0, BuildingBlock: GALJAG_clean_sbu_0, # of connection points: 4
#     Node 31, Type 0, BuildingBlock: GALJAG_clean_sbu_0, # of connection points: 4
#     Node 32, Type 0, BuildingBlock: GALJAG_clean_sbu_0, # of connection points: 4
#     Node 33, Type 0, BuildingBlock: GALJAG_clean_sbu_0, # of connection points: 4
#     Node 34, Type 0, BuildingBlock: GALJAG_clean_sbu_0, # of connection points: 4
#     Node 35, Type 0, BuildingBlock: GALJAG_clean_sbu_0, # of connection points: 4
#     Edge 36, Type (0, 0), BuildingBlock: ZUJKAS_clean_linker_0, # of connection points: 2
#     Edge 37, Type (0, 0), BuildingBlock: ZUJKAS_clean_linker_0, # of connection points: 2
#     Edge 38, Type (0, 0), BuildingBlock: ZUJKAS_clean_linker_0, # of connection points: 2
#     Edge 39, Type (0, 0), BuildingBlock: ZUJKAS_clean_linker_0, # of connection points: 2
#     Edge 40, Type (0, 0), BuildingBlock: ZUJKAS_clean_linker_0, # of connection points: 2
#     Edge 41, Type (0, 0), BuildingBlock: ZUJKAS_clean_linker_0, # of connection points: 2
#     Edge 42, Type (0, 0), BuildingBlock: ZUJKAS_clean_linker_0, # of connection points: 2
#     Edge 43, Type (0, 0), BuildingBlock: ZUJKAS_clean_linker_0, # of connection points: 2
#     Edge 44, Type (0, 0), BuildingBlock: ZUJKAS_clean_linker_0, # of connection points: 2
#     Edge 45, Type (0, 0), BuildingBlock: ZUJKAS_clean_linker_0, # of connection points: 2
#     Edge 46, Type (0, 0), BuildingBlock: ZUJKAS_clean_linker_0, # of connection points: 2
#     Edge 47, Type (0, 0), BuildingBlock: ZUJKAS_clean_linker_0, # of connection points: 2
#     Edge 48, Type (0, 0), BuildingBlock: ZUJKAS_clean_linker_0, # of connection points: 2
#     Edge 49, Type (0, 0), BuildingBlock: ZUJKAS_clean_linker_0, # of connection points: 2
#     Edge 50, Type (0, 0), BuildingBlock: ZUJKAS_clean_linker_0, # of connection points: 2
#     Edge 51, Type (0, 0), BuildingBlock: ZUJKAS_clean_linker_0, # of connection points: 2
#     Edge 52, Type (0, 0), BuildingBlock: ZUJKAS_clean_linker_0, # of connection points: 2
#     Edge 53, Type (0, 0), BuildingBlock: ZUJKAS_clean_linker_0, # of connection points: 2
#     Edge 54, Type (0, 0), BuildingBlock: ZUJKAS_clean_linker_0, # of connection points: 2
#     Edge 55, Type (0, 0), BuildingBlock: ZUJKAS_clean_linker_0, # of connection points: 2
#     Edge 56, Type (0, 0), BuildingBlock: ZUJKAS_clean_linker_0, # of connection points: 2
#     Edge 57, Type (0, 0), BuildingBlock: ZUJKAS_clean_linker_0, # of connection points: 2
#     Edge 58, Type (0, 0), BuildingBlock: ZUJKAS_clean_linker_0, # of connection points: 2
#     Edge 59, Type (0, 0), BuildingBlock: ZUJKAS_clean_linker_0, # of connection points: 2
#     Edge 60, Type (0, 0), BuildingBlock: ZUJKAS_clean_linker_0, # of connection points: 2
#     Edge 61, Type (0, 0), BuildingBlock: ZUJKAS_clean_linker_0, # of connection points: 2
#     Edge 62, Type (0, 0), BuildingBlock: ZUJKAS_clean_linker_0, # of connection points: 2
#     Edge 63, Type (0, 0), BuildingBlock: ZUJKAS_clean_linker_0, # of connection points: 2
#     Edge 64, Type (0, 0), BuildingBlock: ZUJKAS_clean_linker_0, # of connection points: 2
#     Edge 65, Type (0, 0), BuildingBlock: ZUJKAS_clean_linker_0, # of connection points: 2
#     Edge 66, Type (0, 0), BuildingBlock: ZUJKAS_clean_linker_0, # of connection points: 2
#     Edge 67, Type (0, 0), BuildingBlock: ZUJKAS_clean_linker_0, # of connection points: 2
#     Edge 68, Type (0, 0), BuildingBlock: ZUJKAS_clean_linker_0, # of connection points: 2
#     Edge 69, Type (0, 0), BuildingBlock: ZUJKAS_clean_linker_0, # of connection points: 2
#     Edge 70, Type (0, 0), BuildingBlock: ZUJKAS_clean_linker_0, # of connection points: 2
#     Edge 71, Type (0, 0), BuildingBlock: ZUJKAS_clean_linker_0, # of connection points: 2
#     Edge 72, Type (0, 0), BuildingBlock: ZUJKAS_clean_linker_0, # of connection points: 2
#     Edge 73, Type (0, 0), BuildingBlock: ZUJKAS_clean_linker_0, # of connection points: 2
#     Edge 74, Type (0, 0), BuildingBlock: ZUJKAS_clean_linker_0, # of connection points: 2
#     Edge 75, Type (0, 0), BuildingBlock: ZUJKAS_clean_linker_0, # of connection points: 2
#     Edge 76, Type (0, 0), BuildingBlock: ZUJKAS_clean_linker_0, # of connection points: 2
#     Edge 77, Type (0, 0), BuildingBlock: ZUJKAS_clean_linker_0, # of connection points: 2
#     Edge 78, Type (0, 0), BuildingBlock: ZUJKAS_clean_linker_0, # of connection points: 2
#     Edge 79, Type (0, 0), BuildingBlock: ZUJKAS_clean_linker_0, # of connection points: 2
#     Edge 80, Type (0, 0), BuildingBlock: ZUJKAS_clean_linker_0, # of connection points: 2
#     Edge 81, Type (0, 0), BuildingBlock: ZUJKAS_clean_linker_0, # of connection points: 2
#     Edge 82, Type (0, 0), BuildingBlock: ZUJKAS_clean_linker_0, # of connection points: 2
#     Edge 83, Type (0, 0), BuildingBlock: ZUJKAS_clean_linker_0, # of connection points: 2
#     Edge 84, Type (0, 0), BuildingBlock: ZUJKAS_clean_linker_0, # of connection points: 2
#     Edge 85, Type (0, 0), BuildingBlock: ZUJKAS_clean_linker_0, # of connection points: 2
#     Edge 86, Type (0, 0), BuildingBlock: ZUJKAS_clean_linker_0, # of connection points: 2
#     Edge 87, Type (0, 0), BuildingBlock: ZUJKAS_clean_linker_0, # of connection points: 2
#     Edge 88, Type (0, 0), BuildingBlock: ZUJKAS_clean_linker_0, # of connection points: 2
#     Edge 89, Type (0, 0), BuildingBlock: ZUJKAS_clean_linker_0, # of connection points: 2
#     Edge 90, Type (0, 0), BuildingBlock: ZUJKAS_clean_linker_0, # of connection points: 2
#     Edge 91, Type (0, 0), BuildingBlock: ZUJKAS_clean_linker_0, # of connection points: 2
#     Edge 92, Type (0, 0), BuildingBlock: ZUJKAS_clean_linker_0, # of connection points: 2
#     Edge 93, Type (0, 0), BuildingBlock: ZUJKAS_clean_linker_0, # of connection points: 2
#     Edge 94, Type (0, 0), BuildingBlock: ZUJKAS_clean_linker_0, # of connection points: 2
#     Edge 95, Type (0, 0), BuildingBlock: ZUJKAS_clean_linker_0, # of connection points: 2
#     Edge 96, Type (0, 0), BuildingBlock: ZUJKAS_clean_linker_0, # of connection points: 2
#     Edge 97, Type (0, 0), BuildingBlock: ZUJKAS_clean_linker_0, # of connection points: 2
#     Edge 98, Type (0, 0), BuildingBlock: ZUJKAS_clean_linker_0, # of connection points: 2
#     Edge 99, Type (0, 0), BuildingBlock: ZUJKAS_clean_linker_0, # of connection points: 2
#     Edge 100, Type (0, 0), BuildingBlock: ZUJKAS_clean_linker_0, # of connection points: 2
#     Edge 101, Type (0, 0), BuildingBlock: ZUJKAS_clean_linker_0, # of connection points: 2
#     Edge 102, Type (0, 0), BuildingBlock: ZUJKAS_clean_linker_0, # of connection points: 2
#     Edge 103, Type (0, 0), BuildingBlock: ZUJKAS_clean_linker_0, # of connection points: 2
#     Edge 104, Type (0, 0), BuildingBlock: ZUJKAS_clean_linker_0, # of connection points: 2
#     Edge 105, Type (0, 0), BuildingBlock: ZUJKAS_clean_linker_0, # of connection points: 2
#     Edge 106, Type (0, 0), BuildingBlock: ZUJKAS_clean_linker_0, # of connection points: 2
#     Edge 107, Type (0, 0), BuildingBlock: ZUJKAS_clean_linker_0, # of connection points: 2
# Relax obj value: 0.157
# Max RMSD: 0.129
# Mean RMSD: 0.129
data_MOF--net-ukv--node1-GALJAG_clean_sbu_0--edge1-ZUJKAS_clean_linker_0
_symmetry_space_group_name_H-M    P1
_symmetry_Int_Tables_number       1
_symmetry_cell_setting            triclinic
loop_
_symmetry_equiv_pos_as_xyz
'x, y, z'
_cell_length_a     115.56179
_cell_length_b     115.54112
_cell_length_c     30.977283
_cell_angle_alpha  90.007851
_cell_angle_beta   89.99583
_cell_angle_gamma 120.03285
loop_
_atom_site_label
_atom_site_type_symbol
_atom_site_fract_x
_atom_site_fract_y
_atom_site_fract_z
_atom_type_partial_charge
In0 In 0.24399 0.07498 0.0401 0.0
O1 O 0.24983 0.09192 0.08821 0.0
O2 O 0.22919 0.07958 0.07311 0.0
C3 C 0.26876 0.08185 0.01276 0.0
C4 C 0.23563 0.05327 0.09077 0.0
C5 C 0.23423 0.07782 0.9645 0.0
O6 O 0.26639 0.08945 0.03576 0.0
O7 O 0.25865 0.07069 0.00406 0.0
O8 O 0.23215 0.06653 0.97713 0.0
O9 O 0.24105 0.08735 0.98995 0.0
C10 C 0.23797 0.0894 0.09424 0.0
O11 O 0.22862 0.05358 0.05996 0.0
O12 O 0.24686 0.06369 0.09497 0.0
In13 In 0.92696 0.16948 0.03888 0.0
O14 O 0.90973 0.15847 0.08607 0.0
O15 O 0.92237 0.15035 0.07392 0.0
C16 C 0.91954 0.18676 0.0097 0.0
C17 C 0.94927 0.18344 0.08672 0.0
C18 C 0.92335 0.15614 0.96446 0.0
O19 O 0.91359 0.17872 0.04029 0.0
O20 O 0.92945 0.18632 0.99451 0.0
O21 O 0.93475 0.16555 0.9755 0.0
O22 O 0.91411 0.15354 0.99104 0.0
C23 C 0.91233 0.14927 0.09366 0.0
O24 O 0.9483 0.17515 0.05836 0.0
O25 O 0.93925 0.18496 0.08966 0.0
In26 In 0.83196 0.75593 0.03771 0.0
O27 O 0.82625 0.77157 0.05723 0.0
O28 O 0.81678 0.75286 0.0895 0.0
C29 C 0.84492 0.7657 0.96266 0.0
C30 C 0.85233 0.76171 0.09192 0.0
C31 C 0.81456 0.731 0.01026 0.0
O32 O 0.83536 0.7674 0.97405 0.0
O33 O 0.84784 0.75928 0.98914 0.0
O34 O 0.82293 0.73335 0.03997 0.0
O35 O 0.81478 0.74123 0.99493 0.0
C36 C 0.81818 0.76435 0.08623 0.0
O37 O 0.8433 0.74986 0.08387 0.0
O38 O 0.85104 0.77063 0.07278 0.0
In39 In 0.07404 0.24506 0.45684 0.0
O40 O 0.05273 0.22886 0.43958 0.0
O41 O 0.0607 0.24781 0.40916 0.0
C42 C 0.07887 0.23464 0.5277 0.0
C43 C 0.08846 0.24101 0.39679 0.0
C44 C 0.08036 0.2694 0.48708 0.0
O45 O 0.06736 0.23282 0.51964 0.0
O46 O 0.08764 0.24148 0.50002 0.0
O47 O 0.08602 0.2678 0.45463 0.0
O48 O 0.07132 0.25872 0.50381 0.0
C49 C 0.05103 0.23603 0.41247 0.0
O50 O 0.09217 0.25239 0.41285 0.0
O51 O 0.07748 0.23172 0.41097 0.0
In52 In 0.75139 0.82562 0.44321 0.0
O53 O 0.76842 0.82133 0.43028 0.0
O54 O 0.74994 0.80954 0.39788 0.0
C55 C 0.75968 0.84103 0.51437 0.0
C56 C 0.75608 0.84373 0.38109 0.0
C57 C 0.72699 0.80731 0.472 0.0
O58 O 0.7627 0.83207 0.50765 0.0
O59 O 0.75271 0.84218 0.48523 0.0
O60 O 0.72868 0.81481 0.44015 0.0
O61 O 0.73763 0.80885 0.48878 0.0
C62 C 0.76182 0.81218 0.40322 0.0
O63 O 0.74444 0.83446 0.39034 0.0
O64 O 0.7653 0.84382 0.40312 0.0
In65 In 0.16998 0.92621 0.45118 0.0
O66 O 0.17516 0.94774 0.43681 0.0
O67 O 0.18662 0.9403 0.40646 0.0
C68 C 0.15439 0.92 0.52176 0.0
C69 C 0.15176 0.91262 0.38944 0.0
C70 C 0.18798 0.91971 0.48 0.0
O71 O 0.16363 0.93183 0.51455 0.0
O72 O 0.15306 0.91162 0.49335 0.0
O73 O 0.18113 0.91469 0.44628 0.0
O74 O 0.18592 0.92821 0.4988 0.0
C75 C 0.18443 0.94988 0.41072 0.0
O76 O 0.15954 0.90884 0.40406 0.0
O77 O 0.15324 0.92328 0.40582 0.0
In78 In 0.75396 0.92686 0.94212 0.0
O79 O 0.74642 0.91105 0.88917 0.0
O80 O 0.76731 0.92177 0.9023 0.0
C81 C 0.73025 0.92221 0.9732 0.0
C82 C 0.76482 0.95065 0.9015 0.0
C83 C 0.76157 0.91882 0.01265 0.0
O84 O 0.73122 0.91589 0.9414 0.0
O85 O 0.74127 0.93112 0.98855 0.0
O86 O 0.7658 0.93108 0.00539 0.0
O87 O 0.75382 0.91094 0.98427 0.0
C88 C 0.75788 0.91286 0.88021 0.0
O89 O 0.77127 0.94807 0.92909 0.0
O90 O 0.75292 0.94146 0.89587 0.0
In91 In 0.06957 0.82964 0.95129 0.0
O92 O 0.08583 0.83887 0.9001 0.0
O93 O 0.07337 0.84738 0.90959 0.0
C94 C 0.07843 0.81361 0.98173 0.0
C95 C 0.04612 0.81475 0.90967 0.0
C96 C 0.07432 0.84477 0.02246 0.0
O97 O 0.08388 0.82144 0.95029 0.0
O98 O 0.0684 0.81372 0.99734 0.0
O99 O 0.06378 0.83357 0.01848 0.0
O100 O 0.0821 0.84829 0.99057 0.0
C101 C 0.08301 0.84772 0.88926 0.0
O102 O 0.04805 0.82414 0.9348 0.0
O103 O 0.05576 0.81261 0.90704 0.0
In104 In 0.1695 0.24185 0.95172 0.0
O105 O 0.1747 0.22556 0.93627 0.0
O106 O 0.18578 0.24436 0.90519 0.0
C107 C 0.15519 0.2324 0.02486 0.0
C108 C 0.15055 0.23653 0.89222 0.0
C109 C 0.18622 0.26698 0.9792 0.0
O110 O 0.1661 0.23255 0.01945 0.0
O111 O 0.15155 0.23671 0.99342 0.0
O112 O 0.17818 0.26443 0.94826 0.0
O113 O 0.18599 0.25688 0.99568 0.0
C114 C 0.18369 0.23263 0.90935 0.0
O115 O 0.15949 0.24833 0.90157 0.0
O116 O 0.15127 0.22746 0.91267 0.0
In117 In 0.92158 0.75279 0.53768 0.0
O118 O 0.90454 0.74721 0.58521 0.0
O119 O 0.91737 0.76783 0.57112 0.0
C120 C 0.91373 0.72779 0.51033 0.0
C121 C 0.94378 0.76117 0.58617 0.0
C122 C 0.91863 0.76265 0.46252 0.0
O123 O 0.90757 0.73027 0.53919 0.0
O124 O 0.92404 0.73791 0.49585 0.0
O125 O 0.92987 0.76443 0.47448 0.0
O126 O 0.90916 0.75603 0.48841 0.0
C127 C 0.90736 0.75914 0.59172 0.0
O128 O 0.94304 0.76825 0.55649 0.0
O129 O 0.93356 0.74978 0.59014 0.0
In130 In 0.24213 0.16556 0.54055 0.0
O131 O 0.24829 0.15426 0.58668 0.0
O132 O 0.22751 0.1464 0.57538 0.0
C133 C 0.26679 0.18345 0.51234 0.0
C134 C 0.23371 0.17925 0.58944 0.0
C135 C 0.23244 0.15249 0.46563 0.0
O136 O 0.26479 0.17504 0.54158 0.0
O137 O 0.25636 0.18299 0.49785 0.0
O138 O 0.23026 0.1617 0.47755 0.0
O139 O 0.2393 0.14997 0.49152 0.0
C140 C 0.23646 0.14515 0.59455 0.0
O141 O 0.22651 0.1713 0.56014 0.0
O142 O 0.24514 0.18052 0.59297 0.0
In143 In 0.83352 0.07743 0.53715 0.0
O144 O 0.84382 0.09366 0.58796 0.0
O145 O 0.85321 0.08258 0.5695 0.0
C146 C 0.81618 0.08511 0.51062 0.0
C147 C 0.82022 0.05505 0.58518 0.0
C148 C 0.84623 0.08068 0.46153 0.0
O149 O 0.82571 0.09199 0.53612 0.0
O150 O 0.81524 0.0742 0.49898 0.0
O151 O 0.8367 0.06941 0.473 0.0
O152 O 0.84921 0.09001 0.48814 0.0
C153 C 0.85359 0.09174 0.59271 0.0
O154 O 0.8284 0.05621 0.55616 0.0
O155 O 0.81846 0.06492 0.58868 0.0
In156 In 0.9045 0.40281 0.37972 0.0
O157 O 0.9118 0.41901 0.43107 0.0
O158 O 0.89091 0.4081 0.41757 0.0
C159 C 0.92946 0.41075 0.35162 0.0
C160 C 0.8946 0.37956 0.42355 0.0
C161 C 0.89535 0.40752 0.30562 0.0
O162 O 0.92703 0.41698 0.38042 0.0
O163 O 0.91932 0.40035 0.33772 0.0
O164 O 0.89527 0.39668 0.31198 0.0
O165 O 0.89962 0.41558 0.33681 0.0
C166 C 0.9003 0.41721 0.43932 0.0
O167 O 0.88761 0.38176 0.39712 0.0
O168 O 0.90657 0.38882 0.4264 0.0
In169 In 0.59496 0.50378 0.36802 0.0
O170 O 0.61637 0.50949 0.38636 0.0
O171 O 0.60828 0.52078 0.41335 0.0
C172 C 0.59372 0.48953 0.29707 0.0
C173 C 0.57933 0.48508 0.42597 0.0
C174 C 0.58562 0.51974 0.34037 0.0
O175 O 0.60143 0.502 0.29935 0.0
O176 O 0.58712 0.4843 0.33085 0.0
O177 O 0.58134 0.51276 0.37417 0.0
O178 O 0.5947 0.51879 0.32096 0.0
C179 C 0.61803 0.51879 0.41148 0.0
O180 O 0.5747 0.48988 0.39881 0.0
O181 O 0.5918 0.48976 0.42389 0.0
In182 In 0.49369 0.0872 0.37025 0.0
O183 O 0.48872 0.1037 0.38467 0.0
O184 O 0.47714 0.08486 0.41509 0.0
C185 C 0.509 0.09641 0.29909 0.0
C186 C 0.51176 0.09199 0.43252 0.0
C187 C 0.47666 0.06241 0.341 0.0
O188 O 0.49931 0.09838 0.30543 0.0
O189 O 0.51092 0.09008 0.32867 0.0
O190 O 0.48439 0.06462 0.37261 0.0
O191 O 0.47728 0.07272 0.32467 0.0
C192 C 0.4795 0.09669 0.41102 0.0
O193 O 0.50253 0.08035 0.42315 0.0
O194 O 0.51184 0.10122 0.41054 0.0
In195 In 0.74086 0.57594 0.78831 0.0
O196 O 0.7195 0.56084 0.76745 0.0
O197 O 0.72908 0.57997 0.73775 0.0
C198 C 0.74267 0.5646 0.86221 0.0
C199 C 0.75559 0.57069 0.73301 0.0
C200 C 0.74927 0.60098 0.81667 0.0
O201 O 0.73253 0.56561 0.8536 0.0
O202 O 0.75149 0.56892 0.83327 0.0
O203 O 0.75473 0.59855 0.78538 0.0
O204 O 0.73944 0.59082 0.83304 0.0
C205 C 0.71886 0.56851 0.73974 0.0
O206 O 0.75993 0.58203 0.75032 0.0
O207 O 0.74382 0.56204 0.74356 0.0
In208 In 0.42083 0.16236 0.78246 0.0
O209 O 0.43723 0.15763 0.76383 0.0
O210 O 0.41834 0.1469 0.7328 0.0
C211 C 0.43009 0.1763 0.85621 0.0
C212 C 0.42559 0.1814 0.72383 0.0
C213 C 0.39629 0.14447 0.81148 0.0
O214 O 0.43249 0.16707 0.84637 0.0
O215 O 0.42329 0.17839 0.82886 0.0
O216 O 0.39834 0.15378 0.78575 0.0
O217 O 0.40662 0.14402 0.82204 0.0
C218 C 0.43012 0.14903 0.73585 0.0
O219 O 0.41403 0.17161 0.73064 0.0
O220 O 0.43473 0.18153 0.74649 0.0
In221 In 0.83157 0.2519 0.78468 0.0
O222 O 0.82049 0.23547 0.73489 0.0
O223 O 0.81212 0.24754 0.75257 0.0
C224 C 0.85038 0.24587 0.80796 0.0
C225 C 0.84432 0.27479 0.73909 0.0
C226 C 0.81921 0.24646 0.86171 0.0
O227 O 0.84154 0.2392 0.78003 0.0
O228 O 0.84991 0.25577 0.82315 0.0
O229 O 0.82765 0.25829 0.85075 0.0
O230 O 0.81691 0.23769 0.83354 0.0
C231 C 0.81116 0.23804 0.72981 0.0
O232 O 0.83647 0.27331 0.76971 0.0
O233 O 0.84601 0.26496 0.73281 0.0
In234 In 0.41962 0.25794 0.27997 0.0
O235 O 0.41352 0.24184 0.22854 0.0
O236 O 0.43412 0.25326 0.24522 0.0
C237 C 0.39492 0.25092 0.30835 0.0
C238 C 0.42905 0.28103 0.23561 0.0
C239 C 0.4283 0.25257 0.35359 0.0
O240 O 0.39696 0.24489 0.27792 0.0
O241 O 0.40534 0.26075 0.32368 0.0
O242 O 0.43109 0.26435 0.34418 0.0
O243 O 0.42139 0.24383 0.32585 0.0
C244 C 0.42526 0.24401 0.2225 0.0
O245 O 0.43588 0.27943 0.26431 0.0
O246 O 0.41742 0.27123 0.23071 0.0
In247 In 0.73606 0.16168 0.299 0.0
O248 O 0.71815 0.16175 0.26765 0.0
O249 O 0.72001 0.14457 0.2592 0.0
C250 C 0.73269 0.17175 0.37362 0.0
C251 C 0.75434 0.17872 0.24223 0.0
C252 C 0.74695 0.14733 0.32887 0.0
O253 O 0.72951 0.15966 0.36957 0.0
O254 O 0.73686 0.17852 0.33947 0.0
O255 O 0.7539 0.15936 0.31704 0.0
O256 O 0.73448 0.1425 0.3254 0.0
C257 C 0.71361 0.15044 0.2503 0.0
O258 O 0.74736 0.16632 0.23529 0.0
O259 O 0.75231 0.18249 0.27822 0.0
In260 In 0.83284 0.57236 0.28947 0.0
O261 O 0.8195 0.57887 0.25594 0.0
O262 O 0.81671 0.55966 0.24072 0.0
C263 C 0.84928 0.59748 0.31793 0.0
C264 C 0.84746 0.56479 0.24161 0.0
C265 C 0.81965 0.56035 0.36282 0.0
O266 O 0.84192 0.59502 0.28515 0.0
O267 O 0.84852 0.58731 0.33575 0.0
O268 O 0.8314 0.56274 0.35569 0.0
O269 O 0.81455 0.56355 0.33252 0.0
C270 C 0.8131 0.56819 0.23449 0.0
O271 O 0.83871 0.55701 0.26809 0.0
O272 O 0.84907 0.5764 0.24041 0.0
In273 In 0.59309 0.08762 0.87273 0.0
O274 O 0.57797 0.08095 0.92768 0.0
O275 O 0.58794 0.10147 0.90964 0.0
C276 C 0.5868 0.0629 0.8471 0.0
C277 C 0.61733 0.09901 0.9108 0.0
C278 C 0.58548 0.09478 0.80029 0.0
O279 O 0.58151 0.06501 0.87958 0.0
O280 O 0.59553 0.0733 0.82808 0.0
O281 O 0.5976 0.09837 0.80733 0.0
O282 O 0.57749 0.0878 0.82969 0.0
C283 C 0.57951 0.09244 0.93401 0.0
O284 O 0.61403 0.1054 0.8854 0.0
O285 O 0.60867 0.08686 0.91533 0.0
In286 In 0.9138 0.50441 0.87871 0.0
O287 O 0.92039 0.49254 0.92063 0.0
O288 O 0.90005 0.48764 0.92411 0.0
C289 C 0.93851 0.52248 0.85121 0.0
C290 C 0.90456 0.51837 0.92216 0.0
C291 C 0.90371 0.4896 0.80681 0.0
O292 O 0.93648 0.51561 0.88498 0.0
O293 O 0.92805 0.52045 0.83179 0.0
O294 O 0.90178 0.4992 0.81547 0.0
O295 O 0.9105 0.48757 0.83438 0.0
C296 C 0.90898 0.48521 0.93692 0.0
O297 O 0.89765 0.50975 0.89399 0.0
O298 O 0.9162 0.52024 0.92708 0.0
In299 In 0.49727 0.40832 0.87454 0.0
O300 O 0.49197 0.3868 0.89032 0.0
O301 O 0.48129 0.39487 0.92214 0.0
C302 C 0.51119 0.41379 0.80033 0.0
C303 C 0.51642 0.42178 0.93369 0.0
C304 C 0.47937 0.41532 0.84871 0.0
O305 O 0.50151 0.40224 0.8083 0.0
O306 O 0.5139 0.42221 0.83002 0.0
O307 O 0.48746 0.42116 0.87931 0.0
O308 O 0.48017 0.40582 0.8317 0.0
C309 C 0.48319 0.38511 0.91786 0.0
O310 O 0.50803 0.42522 0.92292 0.0
O311 O 0.51515 0.41156 0.91452 0.0
In312 In 0.57632 0.73992 0.71464 0.0
O313 O 0.58411 0.75641 0.76526 0.0
O314 O 0.5631 0.74522 0.75452 0.0
C315 C 0.60044 0.74575 0.68392 0.0
C316 C 0.56629 0.71671 0.75856 0.0
C317 C 0.56729 0.74578 0.64255 0.0
O318 O 0.59903 0.7522 0.71442 0.0
O319 O 0.58967 0.73617 0.66951 0.0
O320 O 0.56469 0.73399 0.65065 0.0
O321 O 0.57414 0.7543 0.6709 0.0
C322 C 0.57268 0.7545 0.77512 0.0
O323 O 0.55929 0.71899 0.7324 0.0
O324 O 0.57832 0.72587 0.76108 0.0
In325 In 0.25923 0.83748 0.70769 0.0
O326 O 0.24253 0.82746 0.75713 0.0
O327 O 0.25438 0.81848 0.74414 0.0
C328 C 0.25198 0.8549 0.67862 0.0
C329 C 0.28178 0.85115 0.75464 0.0
C330 C 0.2553 0.82377 0.63381 0.0
O331 O 0.24547 0.84626 0.70717 0.0
O332 O 0.26232 0.85494 0.66529 0.0
O333 O 0.26667 0.83341 0.64383 0.0
O334 O 0.24622 0.82112 0.66108 0.0
C335 C 0.2448 0.81805 0.76508 0.0
O336 O 0.28042 0.84257 0.72682 0.0
O337 O 0.27203 0.85312 0.75739 0.0
In338 In 0.16016 0.42279 0.7157 0.0
O339 O 0.16997 0.41648 0.76701 0.0
O340 O 0.17872 0.43726 0.75359 0.0
C341 C 0.14268 0.39802 0.68757 0.0
C342 C 0.14579 0.43166 0.75866 0.0
C343 C 0.17464 0.4316 0.64279 0.0
O344 O 0.15063 0.40018 0.71849 0.0
O345 O 0.14337 0.40837 0.6713 0.0
O346 O 0.16545 0.43418 0.65121 0.0
O347 O 0.17647 0.42488 0.6712 0.0
C348 C 0.17917 0.42824 0.77522 0.0
O349 O 0.15478 0.43893 0.73196 0.0
O350 O 0.14384 0.41996 0.76225 0.0
In351 In 0.40346 0.90524 0.13435 0.0
O352 O 0.38213 0.88978 0.11404 0.0
O353 O 0.39097 0.90915 0.08632 0.0
C354 C 0.40382 0.89243 0.20703 0.0
C355 C 0.41943 0.9017 0.07928 0.0
C356 C 0.41279 0.93072 0.16 0.0
O357 O 0.39638 0.89745 0.20313 0.0
O358 O 0.41058 0.89345 0.17398 0.0
O359 O 0.4175 0.92777 0.12783 0.0
O360 O 0.40335 0.92085 0.17896 0.0
C361 C 0.38101 0.89751 0.08778 0.0
O362 O 0.42393 0.91125 0.10598 0.0
O363 O 0.40693 0.894 0.08044 0.0
In364 In 0.08287 0.49486 0.12317 0.0
O365 O 0.09854 0.4888 0.1083 0.0
O366 O 0.08023 0.47933 0.07351 0.0
C367 C 0.09231 0.50972 0.19515 0.0
C368 C 0.08857 0.51411 0.06432 0.0
C369 C 0.05832 0.4768 0.15164 0.0
O370 O 0.09516 0.50077 0.18584 0.0
O371 O 0.08492 0.51108 0.16819 0.0
O372 O 0.06016 0.48428 0.11959 0.0
O373 O 0.06887 0.47824 0.16882 0.0
C374 C 0.09162 0.48063 0.07904 0.0
O375 O 0.07676 0.50611 0.07647 0.0
O376 O 0.09744 0.51237 0.08182 0.0
In377 In 0.50091 0.59077 0.12437 0.0
O378 O 0.5064 0.61232 0.10843 0.0
O379 O 0.51671 0.60402 0.0758 0.0
C380 C 0.48652 0.5859 0.19717 0.0
C381 C 0.48187 0.57706 0.06504 0.0
C382 C 0.51815 0.5832 0.15308 0.0
O383 O 0.49608 0.59745 0.18843 0.0
O384 O 0.48431 0.57711 0.16923 0.0
O385 O 0.50984 0.57715 0.12323 0.0
O386 O 0.51795 0.59327 0.16799 0.0
C387 C 0.51494 0.61386 0.08023 0.0
O388 O 0.4912 0.57466 0.07289 0.0
O389 O 0.48218 0.58639 0.08709 0.0
In390 In 0.09314 0.59687 0.62564 0.0
O391 O 0.10929 0.61813 0.60698 0.0
O392 O 0.09002 0.61029 0.57928 0.0
C393 C 0.10386 0.59327 0.69818 0.0
C394 C 0.09698 0.58257 0.56474 0.0
C395 C 0.06824 0.58794 0.65624 0.0
O396 O 0.10218 0.60319 0.69356 0.0
O397 O 0.10052 0.58558 0.6661 0.0
O398 O 0.07087 0.58163 0.6283 0.0
O399 O 0.07813 0.59886 0.66819 0.0
C400 C 0.10185 0.61988 0.58122 0.0
O401 O 0.08547 0.58027 0.5756 0.0
O402 O 0.10654 0.59213 0.58455 0.0
In403 In 0.40509 0.49461 0.6215 0.0
O404 O 0.42141 0.50481 0.57084 0.0
O405 O 0.40911 0.51323 0.58444 0.0
C406 C 0.41229 0.47719 0.65089 0.0
C407 C 0.38205 0.48027 0.57756 0.0
C408 C 0.41049 0.5091 0.69424 0.0
O409 O 0.41822 0.4851 0.61999 0.0
O410 O 0.40251 0.47783 0.66628 0.0
O411 O 0.39872 0.50001 0.6852 0.0
O412 O 0.4192 0.51081 0.66657 0.0
C413 C 0.41873 0.51395 0.56303 0.0
O414 O 0.38346 0.4888 0.60567 0.0
O415 O 0.39202 0.47872 0.57299 0.0
In416 In 0.5 0.90828 0.62966 0.0
O417 O 0.48904 0.9146 0.58273 0.0
O418 O 0.48169 0.89376 0.59111 0.0
C419 C 0.51798 0.93308 0.65633 0.0
C420 C 0.5136 0.89932 0.58292 0.0
C421 C 0.48669 0.8993 0.70473 0.0
O422 O 0.50929 0.93092 0.62789 0.0
O423 O 0.51773 0.92274 0.67067 0.0
O424 O 0.49645 0.89771 0.69526 0.0
O425 O 0.48361 0.90502 0.67609 0.0
C426 C 0.48042 0.90278 0.57241 0.0
O427 O 0.50519 0.89218 0.61131 0.0
O428 O 0.5154 0.91097 0.57947 0.0
In429 In 0.25536 0.41979 0.21445 0.0
O430 O 0.27697 0.4356 0.23066 0.0
O431 O 0.26839 0.41689 0.26293 0.0
C432 C 0.25011 0.42927 0.14239 0.0
C433 C 0.24171 0.42521 0.2737 0.0
C434 C 0.24836 0.39538 0.18319 0.0
O435 O 0.2619 0.43213 0.15192 0.0
O436 O 0.2413 0.42187 0.16923 0.0
O437 O 0.24213 0.39713 0.21368 0.0
O438 O 0.25832 0.40593 0.16918 0.0
C439 C 0.27836 0.42844 0.25864 0.0
O440 O 0.23932 0.41346 0.26628 0.0
O441 O 0.25101 0.43418 0.2514 0.0
In442 In 0.58118 0.84029 0.21967 0.0
O443 O 0.56431 0.84475 0.23329 0.0
O444 O 0.58216 0.8549 0.27021 0.0
C445 C 0.57381 0.82616 0.1459 0.0
C446 C 0.57575 0.82069 0.2769 0.0
C447 C 0.60542 0.85956 0.19302 0.0
O448 O 0.56964 0.83408 0.15558 0.0
O449 O 0.58148 0.82544 0.17338 0.0
O450 O 0.6039 0.8515 0.223 0.0
O451 O 0.59469 0.85809 0.17724 0.0
C452 C 0.57053 0.85285 0.26352 0.0
O453 O 0.58747 0.83029 0.27074 0.0
O454 O 0.56684 0.82105 0.25436 0.0
In455 In 0.16325 0.74513 0.21188 0.0
O456 O 0.15758 0.7236 0.22835 0.0
O457 O 0.14841 0.73259 0.26384 0.0
C458 C 0.17673 0.74977 0.13731 0.0
C459 C 0.18349 0.75927 0.26707 0.0
C460 C 0.14532 0.75188 0.18416 0.0
O461 O 0.16802 0.73806 0.14852 0.0
O462 O 0.17853 0.75883 0.1637 0.0
O463 O 0.15369 0.75823 0.21358 0.0
O464 O 0.14576 0.74191 0.16953 0.0
C465 C 0.14975 0.72251 0.25852 0.0
O466 O 0.17415 0.76178 0.26121 0.0
O467 O 0.18255 0.74961 0.24532 0.0
H468 H 0.2059 0.95722 0.35847 0.0
H469 H 0.21542 0.97556 0.30644 0.0
H470 H 0.18747 0.98776 0.34772 0.0
H471 H 0.17805 0.96955 0.40061 0.0
H472 H 0.20183 0.97833 0.23914 0.0
H473 H 0.22251 0.02311 0.34471 0.0
H474 H 0.21776 0.00668 0.36502 0.0
H475 H 0.20524 0.01123 0.35478 0.0
C476 C 0.20194 0.96396 0.35705 0.0
C477 C 0.19124 0.96198 0.38361 0.0
C478 C 0.20737 0.97441 0.32722 0.0
C479 C 0.20221 0.98306 0.32337 0.0
C480 C 0.19177 0.98134 0.35071 0.0
H481 H 0.21058 0.03136 0.09663 0.0
H482 H 0.20228 0.01397 0.15233 0.0
C483 C 0.18638 0.97092 0.38082 0.0
C484 C 0.20717 0.99325 0.28868 0.0
H485 H 0.22162 0.02674 0.26954 0.0
C486 C 0.2062 0.98893 0.24577 0.0
C487 C 0.21295 0.00706 0.29747 0.0
C488 C 0.21481 0.01234 0.343 0.0
C489 C 0.21081 0.99803 0.21134 0.0
C490 C 0.21628 0.0118 0.22004 0.0
C491 C 0.21732 0.01615 0.26296 0.0
C492 C 0.2213 0.02195 0.18522 0.0
C493 C 0.21004 0.99284 0.1661 0.0
C494 C 0.23468 0.03225 0.18551 0.0
C495 C 0.2394 0.04222 0.15402 0.0
C496 C 0.23081 0.04208 0.12166 0.0
C497 C 0.21745 0.03164 0.12096 0.0
C498 C 0.21271 0.02169 0.15267 0.0
H499 H 0.20891 0.98271 0.16611 0.0
H500 H 0.20122 0.99217 0.14946 0.0
H501 H 0.2191 -0.00033 0.14724 0.0
H502 H 0.24146 0.03263 0.21036 0.0
H503 H 0.24974 0.05015 0.15544 0.0
H504 H 0.97018 0.17885 0.09598 0.0
H505 H 0.98737 0.18773 0.15242 0.0
H506 H 0.97107 0.21145 0.20227 0.0
H507 H 0.95377 0.20247 0.1466 0.0
H508 H 0.00681 0.21356 0.17378 0.0
H509 H 0.97057 0.18998 0.3077 0.0
H510 H 0.96611 0.1855 0.25187 0.0
H511 H 0.96698 0.20035 0.27358 0.0
C512 C 0.97035 0.18605 0.11875 0.0
C513 C 0.96059 0.1899 0.11714 0.0
C514 C 0.98014 0.19108 0.151 0.0
C515 C 0.98028 0.2 0.18208 0.0
C516 C 0.97091 0.20431 0.17926 0.0
H517 H 0.04495 0.25005 0.35515 0.0
H518 H 0.02738 0.24106 0.30031 0.0
C519 C 0.96111 0.19925 0.14723 0.0
C520 C 0.99015 0.20474 0.21767 0.0
H521 H 0.99291 0.20588 0.32756 0.0
C522 C 0.00379 0.21184 0.2074 0.0
C523 C 0.98616 0.20227 0.26149 0.0
C524 C 0.97166 0.19399 0.27443 0.0
C525 C 0.01358 0.21685 0.23983 0.0
C526 C 0.00957 0.21491 0.28366 0.0
C527 C 0.99593 0.20751 0.29394 0.0
C528 C 0.01942 0.22041 0.31925 0.0
C529 C 0.02812 0.22401 0.22685 0.0
C530 C 0.0203 0.21183 0.34946 0.0
C531 C 0.03023 0.21696 0.38123 0.0
C532 C 0.03941 0.23075 0.38322 0.0
C533 C 0.03808 0.23937 0.3542 0.0
C534 C 0.02813 0.23424 0.32264 0.0
H535 H 0.02947 0.22148 0.19333 0.0
H536 H 0.03213 0.23496 0.22838 0.0
H537 H 0.0341 0.2215 0.24898 0.0
H538 H 0.01359 0.20113 0.34758 0.0
H539 H 0.03102 0.21009 0.40318 0.0
H540 H 0.78823 0.81948 0.39671 0.0
H541 H 0.79832 0.81148 0.3434 0.0
H542 H 0.75913 0.78329 0.29499 0.0
H543 H 0.74901 0.79135 0.34751 0.0
H544 H 0.7951 0.78633 0.32532 0.0
H545 H 0.77853 0.80526 0.18795 0.0
H546 H 0.77802 0.80997 0.24318 0.0
H547 H 0.76511 0.79415 0.22277 0.0
C548 C 0.78177 0.81145 0.37507 0.0
C549 C 0.76785 0.80612 0.37595 0.0
C550 C 0.78754 0.80693 0.34459 0.0
C551 C 0.77947 0.79704 0.31463 0.0
C552 C 0.76554 0.79118 0.31713 0.0
H553 H 0.79981 0.75005 0.14812 0.0
H554 H 0.79075 0.75846 0.20316 0.0
C555 C 0.75978 0.79572 0.34737 0.0
C556 C 0.78559 0.79304 0.27999 0.0
H557 H 0.78731 0.79109 0.1704 0.0
C558 C 0.79346 0.78743 0.29145 0.0
C559 C 0.78365 0.79473 0.23583 0.0
C560 C 0.77598 0.80148 0.22159 0.0
C561 C 0.79911 0.78306 0.25984 0.0
C562 C 0.7966 0.78413 0.21571 0.0
C563 C 0.78907 0.79013 0.20426 0.0
C564 C 0.80159 0.77896 0.18097 0.0
C565 C 0.80783 0.77746 0.27399 0.0
C566 C 0.81022 0.7876 0.14905 0.0
C567 C 0.8153 0.78279 0.11717 0.0
C568 C 0.81179 0.76925 0.11673 0.0
C569 C 0.80277 0.76055 0.14781 0.0
C570 C 0.79767 0.76536 0.17951 0.0
H571 H 0.81181 0.7808 0.30709 0.0
H572 H 0.8018 0.76638 0.27422 0.0
H573 H 0.81636 0.78048 0.25152 0.0
H574 H 0.81326 0.79812 0.14942 0.0
H575 H 0.82224 0.78972 0.09362 0.0
H576 H 0.79126 0.96987 0.89589 0.0
H577 H 0.80144 0.98822 0.84347 0.0
H578 H 0.76238 0.97695 0.79328 0.0
H579 H 0.75219 0.95856 0.84492 0.0
H580 H 0.78056 0.97941 0.73009 0.0
H581 H 0.80185 0.02395 0.83738 0.0
H582 H 0.8065 0.01166 0.8504 0.0
H583 H 0.78937 0.00752 0.85555 0.0
C584 C 0.78484 0.97148 0.87419 0.0
C585 C 0.77094 0.96279 0.87443 0.0
C586 C 0.79067 0.98196 0.84434 0.0
C587 C 0.78264 0.98396 0.81465 0.0
C588 C 0.76874 0.97556 0.81589 0.0
H589 H 0.80143 0.05018 0.6463 0.0
H590 H 0.79254 0.03248 0.70061 0.0
C591 C 0.76293 0.96508 0.8455 0.0
C592 C 0.78868 0.99423 0.78044 0.0
H593 H 0.80695 0.02786 0.76297 0.0
C594 C 0.78635 0.99001 0.73721 0.0
C595 C 0.79616 0.00803 0.78995 0.0
C596 C 0.79856 0.01313 0.8358 0.0
C597 C 0.79121 0.99923 0.70313 0.0
C598 C 0.79877 0.01303 0.71261 0.0
C599 C 0.80119 0.01726 0.75585 0.0
C600 C 0.80381 0.02331 0.67824 0.0
C601 C 0.78786 0.99415 0.65736 0.0
C602 C 0.81302 0.02395 0.6474 0.0
C603 C 0.81804 0.034 0.61601 0.0
C604 C 0.81402 0.04365 0.61534 0.0
C605 C 0.80469 0.04287 0.64594 0.0
C606 C 0.79964 0.03281 0.67711 0.0
H607 H 0.77941 0.98369 0.65603 0.0
H608 H 0.78525 0.00055 0.63772 0.0
H609 H 0.7967 0.99437 0.64244 0.0
H610 H 0.81654 0.01685 0.64817 0.0
H611 H 0.82533 0.03444 0.59308 0.0
H612 H 0.03947 0.79332 0.85775 0.0
H613 H 0.02166 0.78373 0.80383 0.0
H614 H 0.00851 0.81113 0.84272 0.0
H615 H 0.02621 0.82066 0.89743 0.0
H616 H 0.98751 0.78535 0.82691 0.0
H617 H 0.02395 0.80355 0.69191 0.0
H618 H 0.02648 0.7933 0.72994 0.0
H619 H 0.02866 0.80917 0.74681 0.0
C620 C 0.03268 0.7972 0.85521 0.0
C621 C 0.03428 0.80781 0.88154 0.0
C622 C 0.02258 0.79177 0.82418 0.0
C623 C 0.014 0.79696 0.8186 0.0
C624 C 0.01513 0.80709 0.84631 0.0
H625 H 0.96513 0.78652 0.5924 0.0
H626 H 0.98228 0.79531 0.64889 0.0
C627 C 0.0252 0.81249 0.87758 0.0
C628 C 0.0041 0.79204 0.7831 0.0
H629 H 0.00122 0.78875 0.67347 0.0
C630 C 0.99049 0.78612 0.79335 0.0
C631 C 0.00806 0.79328 0.73931 0.0
C632 C 0.02259 0.80029 0.72618 0.0
C633 C 0.98068 0.78112 0.76097 0.0
C634 C 0.98461 0.78185 0.71731 0.0
C635 C 0.99824 0.78805 0.70701 0.0
C636 C 0.97472 0.77636 0.68182 0.0
C637 C 0.96622 0.7753 0.77377 0.0
C638 C 0.96509 0.76272 0.68087 0.0
C639 C 0.95529 0.7577 0.64879 0.0
C640 C 0.95505 0.7662 0.61681 0.0
C641 C 0.96507 0.77974 0.61665 0.0
C642 C 0.97484 0.78478 0.64892 0.0
H643 H 0.96522 0.77877 0.80628 0.0
H644 H 0.96075 0.77801 0.75009 0.0
H645 H 0.96137 0.76424 0.77477 0.0
H646 H 0.96503 0.756 0.70533 0.0
H647 H 0.94775 0.7472 0.64957 0.0
H648 H 0.20839 0.17531 0.59706 0.0
H649 H 0.2002 0.18467 0.65221 0.0
H650 H 0.23995 0.20718 0.70525 0.0
H651 H 0.24814 0.19771 0.65089 0.0
H652 H 0.22092 0.19331 0.7671 0.0
H653 H 0.20551 0.22221 0.66222 0.0
H654 H 0.19825 0.20491 0.64761 0.0
H655 H 0.21601 0.21583 0.64316 0.0
C656 C 0.21541 0.1824 0.62014 0.0
C657 C 0.22891 0.1858 0.61966 0.0
C658 C 0.21072 0.18776 0.65153 0.0
C659 C 0.2195 0.1967 0.68257 0.0
C660 C 0.23302 0.20029 0.68158 0.0
H661 H 0.2043 0.2466 0.85379 0.0
H662 H 0.2135 0.23762 0.80114 0.0
C663 C 0.23769 0.19491 0.65041 0.0
C664 C 0.21455 0.20192 0.71731 0.0
H665 H 0.19933 0.22023 0.73605 0.0
C666 C 0.21622 0.19923 0.76037 0.0
C667 C 0.20855 0.20973 0.70838 0.0
C668 C 0.20706 0.21347 0.66288 0.0
C669 C 0.21198 0.20409 0.79481 0.0
C670 C 0.2057 0.21164 0.78585 0.0
C671 C 0.20409 0.21438 0.7428 0.0
C672 C 0.20089 0.21701 0.82053 0.0
C673 C 0.21452 0.20134 0.84043 0.0
C674 C 0.19089 0.2084 0.84936 0.0
C675 C 0.18569 0.21353 0.87979 0.0
C676 C 0.1903 0.22731 0.88145 0.0
C677 C 0.20055 0.23593 0.85328 0.0
C678 C 0.20579 0.23082 0.8231 0.0
H679 H 0.22245 0.19858 0.84176 0.0
H680 H 0.21751 0.21019 0.86144 0.0
H681 H 0.20521 0.19288 0.85373 0.0
H682 H 0.1868 0.1977 0.8474 0.0
H683 H 0.17771 0.20665 0.90084 0.0
H684 H 0.83907 0.29541 0.73665 0.0
H685 H 0.84685 0.31324 0.68239 0.0
H686 H 0.87038 0.29828 0.62185 0.0
H687 H 0.86252 0.28038 0.6753 0.0
H688 H 0.87233 0.3333 0.65899 0.0
H689 H 0.84722 0.29856 0.52261 0.0
H690 H 0.84351 0.29344 0.57833 0.0
H691 H 0.85806 0.29463 0.55282 0.0
C692 C 0.846 0.29601 0.71198 0.0
C693 C 0.85012 0.28646 0.70996 0.0
C694 C 0.85039 0.30616 0.68099 0.0
C695 C 0.85893 0.30686 0.64756 0.0
C696 C 0.86352 0.29769 0.64672 0.0
H697 H 0.90823 0.37253 0.47922 0.0
H698 H 0.89893 0.35466 0.53292 0.0
C699 C 0.8591 0.28754 0.67749 0.0
C700 C 0.86306 0.31713 0.61337 0.0
H701 H 0.8632 0.32109 0.50409 0.0
C702 C 0.87026 0.33065 0.62515 0.0
C703 C 0.86012 0.31363 0.56931 0.0
C704 C 0.85168 0.29928 0.55496 0.0
C705 C 0.87503 0.34079 0.59386 0.0
C706 C 0.87273 0.33725 0.54964 0.0
C707 C 0.86511 0.32375 0.53797 0.0
C708 C 0.87833 0.34746 0.51508 0.0
C709 C 0.88243 0.35518 0.60845 0.0
C710 C 0.86985 0.34889 0.48586 0.0
C711 C 0.87515 0.35902 0.45472 0.0
C712 C 0.88901 0.36782 0.45236 0.0
C713 C 0.8975 0.36596 0.48047 0.0
C714 C 0.8922 0.35583 0.5114 0.0
H715 H 0.88003 0.35621 0.64248 0.0
H716 H 0.89334 0.35905 0.60635 0.0
H717 H 0.87998 0.3615 0.58768 0.0
H718 H 0.85911 0.34243 0.48795 0.0
H719 H 0.86838 0.36022 0.43347 0.0
H720 H 0.63826 0.51337 0.42355 0.0
H721 H 0.65565 0.52272 0.47919 0.0
H722 H 0.64147 0.5491 0.52035 0.0
H723 H 0.62393 0.53965 0.46542 0.0
H724 H 0.67617 0.54846 0.4973 0.0
H725 H 0.63909 0.52852 0.63049 0.0
H726 H 0.63469 0.52337 0.57508 0.0
H727 H 0.63663 0.53902 0.59334 0.0
C728 C 0.63896 0.52128 0.44411 0.0
C729 C 0.62967 0.5257 0.44046 0.0
C730 C 0.64887 0.52659 0.4759 0.0
C731 C 0.64963 0.53637 0.50448 0.0
C732 C 0.64083 0.54132 0.4993 0.0
H733 H 0.71517 0.5837 0.68015 0.0
H734 H 0.69809 0.57602 0.62382 0.0
C735 C 0.63089 0.53598 0.4677 0.0
C736 C 0.65936 0.54112 0.54046 0.0
H737 H 0.66171 0.54292 0.65043 0.0
C738 C 0.67303 0.54725 0.53078 0.0
C739 C 0.65519 0.5393 0.58412 0.0
C740 C 0.6406 0.53208 0.59654 0.0
C741 C 0.68268 0.55183 0.56364 0.0
C742 C 0.67853 0.55044 0.60726 0.0
C743 C 0.66485 0.54411 0.61695 0.0
C744 C 0.68824 0.55525 0.6433 0.0
C745 C 0.69721 0.55786 0.55137 0.0
C746 C 0.68797 0.54622 0.67416 0.0
C747 C 0.69763 0.55061 0.70673 0.0
C748 C 0.70769 0.5641 0.70893 0.0
C749 C 0.70759 0.57322 0.67908 0.0
C750 C 0.69791 0.56883 0.64668 0.0
H751 H 0.6984 0.55501 0.5181 0.0
H752 H 0.70208 0.56892 0.55263 0.0
H753 H 0.70253 0.55469 0.57412 0.0
H754 H 0.68051 0.5357 0.67228 0.0
H755 H 0.69746 0.54336 0.72931 0.0
H756 H 0.41596 0.12901 0.67865 0.0
H757 H 0.42469 0.12034 0.6234 0.0
H758 H 0.46484 0.14677 0.66834 0.0
H759 H 0.45613 0.15536 0.7244 0.0
H760 H 0.44218 0.13517 0.55781 0.0
H761 H 0.46332 0.11069 0.66002 0.0
H762 H 0.45181 0.1156 0.68081 0.0
H763 H 0.46909 0.1279 0.67284 0.0
C764 C 0.42664 0.13284 0.67722 0.0
C765 C 0.43537 0.14284 0.70589 0.0
C766 C 0.43161 0.12791 0.64554 0.0
C767 C 0.44539 0.13286 0.64191 0.0
C768 C 0.45415 0.14266 0.67104 0.0
H769 H 0.48534 0.12269 0.41748 0.0
H770 H 0.47686 0.13205 0.47176 0.0
C771 C 0.44916 0.14756 0.70299 0.0
C772 C 0.45053 0.12812 0.60636 0.0
H773 H 0.46741 0.11157 0.58492 0.0
C774 C 0.44772 0.13002 0.56367 0.0
C775 C 0.45768 0.12136 0.61422 0.0
C776 C 0.46058 0.11864 0.65942 0.0
C777 C 0.4518 0.12525 0.52855 0.0
C778 C 0.45902 0.11857 0.53643 0.0
C779 C 0.46191 0.11675 0.57908 0.0
C780 C 0.4633 0.11296 0.50107 0.0
C781 C 0.44808 0.12709 0.48342 0.0
C782 C 0.4584 0.09915 0.49942 0.0
C783 C 0.46321 0.0938 0.46862 0.0
C784 C 0.47309 0.10219 0.43902 0.0
C785 C 0.47766 0.11598 0.4397 0.0
C786 C 0.47283 0.12134 0.47063 0.0
H787 H 0.44016 0.12986 0.48346 0.0
H788 H 0.45703 0.13519 0.46713 0.0
H789 H 0.44455 0.1178 0.46419 0.0
H790 H 0.45104 0.09253 0.52264 0.0
H791 H 0.45951 0.08314 0.46894 0.0
H792 H 0.45491 0.30151 0.22985 0.0
H793 H 0.46424 0.31938 0.17571 0.0
H794 H 0.4249 0.30474 0.12193 0.0
H795 H 0.41557 0.28677 0.17531 0.0
H796 H 0.44384 0.30864 0.06049 0.0
H797 H 0.46163 0.35327 0.16587 0.0
H798 H 0.46768 0.34221 0.18059 0.0
H799 H 0.45013 0.33656 0.18449 0.0
C800 C 0.44824 0.30225 0.20692 0.0
C801 C 0.43452 0.29277 0.20681 0.0
C802 C 0.45357 0.31247 0.17608 0.0
C803 C 0.44523 0.31342 0.145 0.0
C804 C 0.43149 0.30417 0.14562 0.0
H805 H 0.4629 0.37898 0.97416 0.0
H806 H 0.45352 0.36091 0.02712 0.0
C807 C 0.42618 0.29394 0.17624 0.0
C808 C 0.45085 0.32362 0.11042 0.0
H809 H 0.46771 0.35725 0.09202 0.0
C810 C 0.44905 0.31928 0.06732 0.0
C811 C 0.45755 0.33747 0.1195 0.0
C812 C 0.45929 0.3427 0.16507 0.0
C813 C 0.45378 0.32842 0.03297 0.0
C814 C 0.46067 0.34227 0.04208 0.0
C815 C 0.46248 0.34661 0.08518 0.0
C816 C 0.46571 0.35248 0.00747 0.0
C817 C 0.45108 0.32319 0.98728 0.0
C818 C 0.47555 0.3536 0.9784 0.0
C819 C 0.48087 0.36388 0.94777 0.0
C820 C 0.47652 0.37326 0.94614 0.0
C821 C 0.46645 0.3719 0.97462 0.0
C822 C 0.46111 0.36162 0.005 0.0
H823 H 0.44296 0.31257 0.98582 0.0
H824 H 0.44828 0.32924 0.96655 0.0
H825 H 0.46027 0.32383 0.97373 0.0
H826 H 0.4794 0.34678 0.98024 0.0
H827 H 0.48871 0.36477 0.92647 0.0
H828 H 0.70128 0.12577 0.21309 0.0
H829 H 0.68566 0.11819 0.15242 0.0
H830 H 0.6865 0.15594 0.15183 0.0
H831 H 0.70189 0.16347 0.21333 0.0
H832 H 0.66137 0.13483 0.13961 0.0
H833 H 0.69693 0.13073 0.02943 0.0
H834 H 0.69373 0.12096 0.07757 0.0
H835 H 0.7019 0.13889 0.08128 0.0
C836 C 0.69801 0.13239 0.20037 0.0
C837 C 0.70286 0.14523 0.21772 0.0
C838 C 0.6892 0.1281 0.16543 0.0
C839 C 0.68524 0.13665 0.14685 0.0
C840 C 0.68956 0.14925 0.16542 0.0
H841 H 0.63419 0.12575 0.92344 0.0
H842 H 0.65189 0.13611 0.97807 0.0
C843 C 0.6983 0.15351 0.20062 0.0
C844 C 0.67664 0.13245 0.10793 0.0
H845 H 0.67433 0.12094 0.00485 0.0
C846 C 0.66426 0.13194 0.10999 0.0
C847 C 0.68051 0.12881 0.06916 0.0
C848 C 0.69405 0.13 0.06397 0.0
C849 C 0.65542 0.12737 0.07485 0.0
C850 C 0.65911 0.12329 0.03677 0.0
C851 C 0.67158 0.12407 0.03426 0.0
C852 C 0.64971 0.11738 0.00034 0.0
C853 C 0.642 0.12651 0.07899 0.0
C854 C 0.64305 0.10352 0.99406 0.0
C855 C 0.63295 0.09759 0.96315 0.0
C856 C 0.62946 0.10547 0.93781 0.0
C857 C 0.63671 0.11945 0.94244 0.0
C858 C 0.64675 0.12537 0.97369 0.0
H859 H 0.64011 0.12874 0.11228 0.0
H860 H 0.64156 0.13377 0.05657 0.0
H861 H 0.63388 0.11637 0.0698 0.0
H862 H 0.64526 0.09723 0.01434 0.0
H863 H 0.62755 0.0868 0.96022 0.0
H864 H 0.86731 0.58019 0.18503 0.0
H865 H 0.8773 0.5727 0.13014 0.0
H866 H 0.85301 0.53202 0.17392 0.0
H867 H 0.84313 0.53949 0.22957 0.0
H868 H 0.87908 0.53873 0.15734 0.0
H869 H 0.85809 0.55313 0.02013 0.0
H870 H 0.86783 0.56664 0.05663 0.0
H871 H 0.85257 0.55242 0.07507 0.0
C872 C 0.86417 0.56966 0.1832 0.0
C873 C 0.85438 0.5604 0.2114 0.0
C874 C 0.86981 0.56539 0.1516 0.0
C875 C 0.86566 0.55177 0.14733 0.0
C876 C 0.85626 0.54256 0.17648 0.0
H877 H 0.87868 0.51289 0.92755 0.0
H878 H 0.86922 0.52126 0.98173 0.0
C879 C 0.85065 0.54684 0.20827 0.0
C880 C 0.87111 0.54714 0.11235 0.0
H881 H 0.8741 0.54666 0.00275 0.0
C882 C 0.87797 0.54043 0.12354 0.0
C883 C 0.86944 0.54918 0.06825 0.0
C884 C 0.86147 0.55562 0.05417 0.0
C885 C 0.88345 0.53592 0.09182 0.0
C886 C 0.88225 0.53844 0.0478 0.0
C887 C 0.87515 0.54491 0.03655 0.0
C888 C 0.88814 0.53423 0.01299 0.0
C889 C 0.89027 0.52829 0.10573 0.0
C890 C 0.90196 0.53913 0.01171 0.0
C891 C 0.90737 0.53435 0.98097 0.0
C892 C 0.89906 0.52469 0.95065 0.0
C893 C 0.88532 0.52032 0.95053 0.0
C894 C 0.8799 0.52507 0.98148 0.0
H895 H 0.88721 0.52413 0.13879 0.0
H896 H 0.88798 0.51995 0.08313 0.0
H897 H 0.90124 0.53514 0.10589 0.0
H898 H 0.90853 0.54645 0.03508 0.0
H899 H 0.91801 0.53797 0.98165 0.0
H900 H 0.58001 0.7092 0.81196 0.0
H901 H 0.57086 0.69143 0.86598 0.0
H902 H 0.53086 0.68036 0.8262 0.0
H903 H 0.53998 0.69804 0.77138 0.0
H904 H 0.55453 0.68961 0.93408 0.0
H905 H 0.52974 0.64443 0.82994 0.0
H906 H 0.54183 0.66067 0.80924 0.0
H907 H 0.52494 0.65675 0.81953 0.0
C908 C 0.56927 0.70284 0.81421 0.0
C909 C 0.5607 0.70497 0.7874 0.0
C910 C 0.56406 0.69273 0.84519 0.0
C911 C 0.5502 0.68455 0.84995 0.0
C912 C 0.5416 0.68643 0.82257 0.0
H913 H 0.51054 0.63502 0.07593 0.0
H914 H 0.51922 0.65282 0.02149 0.0
C915 C 0.54681 0.69653 0.79133 0.0
C916 C 0.54486 0.67452 0.88509 0.0
H917 H 0.52621 0.64107 0.90527 0.0
C918 C 0.54833 0.67899 0.92784 0.0
C919 C 0.53683 0.66069 0.87674 0.0
C920 C 0.53319 0.65529 0.83139 0.0
C921 C 0.54403 0.66998 0.96252 0.0
C922 C 0.53592 0.65616 0.95418 0.0
C923 C 0.53239 0.65169 0.91148 0.0
C924 C 0.53137 0.64608 0.98906 0.0
C925 C 0.54848 0.67526 0.00765 0.0
C926 C 0.53539 0.63647 0.98889 0.0
C927 C 0.53046 0.62632 0.01977 0.0
C928 C 0.52136 0.62556 0.05129 0.0
C929 C 0.51762 0.63542 0.0522 0.0
C930 C 0.52257 0.64559 0.02119 0.0
H931 H 0.55696 0.68571 0.00755 0.0
H932 H 0.54003 0.67507 0.02526 0.0
H933 H 0.55153 0.6689 0.02564 0.0
H934 H 0.54219 0.63669 0.96436 0.0
H935 H 0.53351 0.61886 0.01819 0.0
H936 H 0.36037 0.87206 0.07492 0.0
H937 H 0.34347 0.86441 0.01768 0.0
H938 H 0.35931 0.90512 0.97508 0.0
H939 H 0.37632 0.91281 0.03161 0.0
H940 H 0.32376 0.87071 0.99741 0.0
H941 H 0.36136 0.88608 0.86634 0.0
H942 H 0.36532 0.88519 0.92217 0.0
H943 H 0.36434 0.89935 0.90289 0.0
C944 C 0.36014 0.87938 0.05364 0.0
C945 C 0.36972 0.89301 0.05745 0.0
C946 C 0.35052 0.875 0.02094 0.0
C947 C 0.35036 0.88418 0.99159 0.0
C948 C 0.35949 0.89785 0.99675 0.0
H949 H 0.287 0.87053 0.81397 0.0
H950 H 0.30403 0.87875 0.8705 0.0
C951 C 0.36912 0.90223 0.02926 0.0
C952 C 0.34082 0.87945 0.95509 0.0
H953 H 0.33907 0.87923 0.84502 0.0
C954 C 0.32709 0.87253 0.96408 0.0
C955 C 0.34523 0.88165 0.91166 0.0
C956 C 0.35986 0.88836 0.90004 0.0
C957 C 0.31761 0.86799 0.93074 0.0
C958 C 0.32202 0.87069 0.88735 0.0
C959 C 0.33575 0.87734 0.87833 0.0
C960 C 0.31248 0.86656 0.85091 0.0
C961 C 0.30296 0.86019 0.94225 0.0
C962 C 0.31205 0.8575 0.81989 0.0
C963 C 0.30242 0.85289 0.78719 0.0
C964 C 0.2931 0.85731 0.78508 0.0
C965 C 0.29398 0.86687 0.81499 0.0
C966 C 0.30364 0.8715 0.84749 0.0
H967 H 0.30137 0.85595 0.97535 0.0
H968 H 0.29873 0.86694 0.94104 0.0
H969 H 0.29734 0.85189 0.91907 0.0
H970 H 0.31889 0.85367 0.82181 0.0
H971 H 0.30197 0.84552 0.76457 0.0
H972 H 0.12491 0.41706 0.81252 0.0
H973 H 0.11528 0.42537 0.86585 0.0
H974 H 0.14196 0.4658 0.82384 0.0
H975 H 0.15153 0.45751 0.76967 0.0
H976 H 0.12908 0.44232 0.93288 0.0
H977 H 0.10588 0.46422 0.82846 0.0
H978 H 0.11109 0.45291 0.80802 0.0
H979 H 0.12322 0.47018 0.81743 0.0
C980 C 0.12858 0.42771 0.8141 0.0
C981 C 0.13896 0.43665 0.78691 0.0
C982 C 0.1231 0.43244 0.84469 0.0
C983 C 0.12786 0.44618 0.84867 0.0
C984 C 0.13799 0.45513 0.82081 0.0
H985 H 0.11718 0.48507 0.07436 0.0
H986 H 0.12626 0.47643 0.01976 0.0
C987 C 0.14346 0.45039 0.78996 0.0
C988 C 0.1227 0.4511 0.8837 0.0
H989 H 0.10646 0.46837 0.90363 0.0
C990 C 0.12411 0.448 0.92653 0.0
C991 C 0.11615 0.45842 0.87523 0.0
C992 C 0.11386 0.46154 0.8298 0.0
C993 C 0.11915 0.45204 0.96121 0.0
C994 C 0.11282 0.45957 0.95279 0.0
C995 C 0.11139 0.46265 0.90996 0.0
C996 C 0.10729 0.46411 0.98778 0.0
C997 C 0.12046 0.44796 0.00641 0.0
C998 C 0.09365 0.46004 0.98788 0.0
C999 C 0.08847 0.46501 0.01878 0.0
C1000 C 0.09686 0.47416 0.05013 0.0
C1001 C 0.11046 0.47793 0.05081 0.0
C1002 C 0.11565 0.47299 0.01971 0.0
H1003 H 0.12246 0.4395 0.00635 0.0
H1004 H 0.12894 0.45655 0.02287 0.0
H1005 H 0.11126 0.44502 0.02545 0.0
H1006 H 0.08703 0.45319 0.96353 0.0
H1007 H 0.07795 0.46193 0.0174 0.0
H1008 H 0.08716 0.62609 0.52733 0.0
H1009 H 0.09545 0.6437 0.47271 0.0
H1010 H 0.13595 0.65725 0.51327 0.0
H1011 H 0.1277 0.63975 0.56869 0.0
H1012 H 0.13106 0.67802 0.49701 0.0
H1013 H 0.11341 0.64182 0.36142 0.0
H1014 H 0.10044 0.63908 0.39893 0.0
H1015 H 0.11415 0.63703 0.41636 0.0
C1016 C 0.09783 0.6329 0.52494 0.0
C1017 C 0.1068 0.6315 0.55204 0.0
C1018 C 0.10255 0.64288 0.49349 0.0
C1019 C 0.11632 0.65154 0.48827 0.0
C1020 C 0.12528 0.65057 0.51656 0.0
H1021 H 0.15435 0.70151 0.26293 0.0
H1022 H 0.14634 0.68409 0.31855 0.0
C1023 C 0.12056 0.64061 0.54824 0.0
C1024 C 0.12134 0.66148 0.45289 0.0
H1025 H 0.12094 0.66453 0.34332 0.0
C1026 C 0.1289 0.67509 0.46339 0.0
C1027 C 0.11871 0.65759 0.40902 0.0
C1028 C 0.11135 0.64308 0.39562 0.0
C1029 C 0.13362 0.68496 0.43121 0.0
C1030 C 0.13044 0.68108 0.38749 0.0
C1031 C 0.12319 0.66747 0.3769 0.0
C1032 C 0.13458 0.69106 0.35233 0.0
C1033 C 0.14209 0.69942 0.4443 0.0
C1034 C 0.13023 0.70042 0.35211 0.0
C1035 C 0.1348 0.71036 0.32054 0.0
C1036 C 0.14368 0.71102 0.28835 0.0
C1037 C 0.14751 0.70124 0.28736 0.0
C1038 C 0.14298 0.69132 0.31914 0.0
H1039 H 0.14665 0.70042 0.47666 0.0
H1040 H 0.1502 0.70505 0.42053 0.0
H1041 H 0.13572 0.70409 0.44581 0.0
H1042 H 0.12347 0.70017 0.37679 0.0
H1043 H 0.1316 0.7177 0.32194 0.0
H1044 H 0.36126 0.48513 0.5701 0.0
H1045 H 0.34337 0.47583 0.51606 0.0
H1046 H 0.35852 0.4511 0.46632 0.0
H1047 H 0.37652 0.46051 0.51957 0.0
H1048 H 0.35447 0.46529 0.40289 0.0
H1049 H 0.30972 0.43918 0.50797 0.0
H1050 H 0.32058 0.45646 0.5214 0.0
H1051 H 0.32643 0.44476 0.52739 0.0
C1052 C 0.36063 0.47754 0.54811 0.0
C1053 C 0.37027 0.47354 0.54903 0.0
C1054 C 0.35039 0.47222 0.51734 0.0
C1055 C 0.34958 0.46271 0.48739 0.0
C1056 C 0.35898 0.45843 0.48913 0.0
H1057 H 0.28381 0.41416 0.31664 0.0
H1058 H 0.30176 0.42273 0.37005 0.0
C1059 C 0.36923 0.46378 0.51967 0.0
C1060 C 0.33942 0.45774 0.45262 0.0
H1061 H 0.30583 0.44094 0.43366 0.0
C1062 C 0.34383 0.45993 0.40957 0.0
C1063 C 0.32556 0.45067 0.46149 0.0
C1064 C 0.32025 0.4475 0.50704 0.0
C1065 C 0.33474 0.45529 0.37507 0.0
C1066 C 0.32089 0.44848 0.38393 0.0
C1067 C 0.31648 0.44624 0.42698 0.0
C1068 C 0.31073 0.44331 0.34915 0.0
C1069 C 0.34006 0.45746 0.32952 0.0
C1070 C 0.30994 0.45203 0.31926 0.0
C1071 C 0.29974 0.44713 0.2884 0.0
C1072 C 0.29009 0.43347 0.28732 0.0
C1073 C 0.29111 0.42474 0.31665 0.0
C1074 C 0.30132 0.42962 0.34728 0.0
H1075 H 0.35058 0.45967 0.32857 0.0
H1076 H 0.33388 0.44855 0.3091 0.0
H1077 H 0.33975 0.46611 0.31524 0.0
H1078 H 0.31697 0.46267 0.32064 0.0
H1079 H 0.29912 0.4541 0.26644 0.0
H1080 H 0.53312 0.91355 0.5242 0.0
H1081 H 0.542 0.90492 0.46933 0.0
H1082 H 0.51702 0.86491 0.51785 0.0
H1083 H 0.50822 0.87354 0.57358 0.0
H1084 H 0.54267 0.87054 0.49886 0.0
H1085 H 0.52132 0.88463 0.36213 0.0
H1086 H 0.53157 0.89846 0.3969 0.0
H1087 H 0.51637 0.8846 0.41742 0.0
C1088 C 0.52958 0.90292 0.52344 0.0
C1089 C 0.51992 0.89419 0.55299 0.0
C1090 C 0.53458 0.898 0.49183 0.0
C1091 C 0.5299 0.88424 0.48885 0.0
C1092 C 0.52065 0.87555 0.51937 0.0
H1093 H 0.54427 0.84633 0.26677 0.0
H1094 H 0.53375 0.85353 0.32115 0.0
C1095 C 0.51567 0.88049 0.55123 0.0
C1096 C 0.53475 0.87901 0.45388 0.0
H1097 H 0.53763 0.87845 0.34427 0.0
C1098 C 0.54148 0.87217 0.46506 0.0
C1099 C 0.53296 0.88094 0.40978 0.0
C1100 C 0.52504 0.88743 0.39575 0.0
C1101 C 0.54692 0.86763 0.4333 0.0
C1102 C 0.54581 0.87025 0.38931 0.0
C1103 C 0.53864 0.87664 0.37805 0.0
C1104 C 0.55221 0.8666 0.35466 0.0
C1105 C 0.55374 0.86001 0.44717 0.0
C1106 C 0.56611 0.87196 0.35462 0.0
C1107 C 0.57211 0.86786 0.3238 0.0
C1108 C 0.56433 0.85844 0.29214 0.0
C1109 C 0.5505 0.8536 0.29081 0.0
C1110 C 0.54448 0.85767 0.32188 0.0
H1111 H 0.5504 0.85554 0.47975 0.0
H1112 H 0.55178 0.8519 0.42393 0.0
H1113 H 0.5647 0.86695 0.44857 0.0
H1114 H 0.57229 0.87914 0.37895 0.0
H1115 H 0.58281 0.87184 0.32542 0.0
H1116 H 0.25372 0.14197 0.64623 0.0
H1117 H 0.24831 0.12433 0.69908 0.0
H1118 H 0.20673 0.10535 0.66265 0.0
H1119 H 0.21205 0.12325 0.61041 0.0
H1120 H 0.20922 0.10778 0.74678 0.0
H1121 H 0.23967 0.08626 0.69113 0.0
H1122 H 0.24999 0.10403 0.6956 0.0
H1123 H 0.23641 0.09704 0.65731 0.0
C1124 C 0.24346 0.13395 0.64908 0.0
C1125 C 0.23331 0.13399 0.62433 0.0
C1126 C 0.24039 0.12378 0.67896 0.0
C1127 C 0.22716 0.11334 0.68418 0.0
C1128 C 0.21703 0.11323 0.65886 0.0
H1129 H 0.22326 0.06044 0.89622 0.0
H1130 H 0.21768 0.06554 0.82462 0.0
C1131 C 0.22008 0.12348 0.62915 0.0
C1132 C 0.22384 0.10349 0.71942 0.0
H1133 H 0.23537 0.08489 0.76909 0.0
C1134 C 0.21468 0.10248 0.75106 0.0
C1135 C 0.23063 0.09624 0.72464 0.0
C1136 C 0.2396 0.09583 0.69001 0.0
C1137 C 0.21316 0.09553 0.78963 0.0
C1138 C 0.22123 0.08973 0.79707 0.0
C1139 C 0.22937 0.08957 0.76371 0.0
C1140 C 0.22305 0.08584 0.84097 0.0
C1141 C 0.20337 0.09499 0.82288 0.0
C1142 C 0.22792 0.09556 0.87358 0.0
C1143 C 0.23113 0.09271 0.91399 0.0
C1144 C 0.22961 0.0801 0.92266 0.0
C1145 C 0.22445 0.07023 0.89039 0.0
C1146 C 0.22128 0.07312 0.8496 0.0
H1147 H 0.19475 0.09504 0.80718 0.0
H1148 H 0.19957 0.08596 0.84353 0.0
H1149 H 0.2084 0.10398 0.8438 0.0
H1150 H 0.22972 0.10555 0.86733 0.0
H1151 H 0.2351 0.10055 0.93815 0.0
H1152 H 0.87692 0.0914 0.60208 0.0
H1153 H 0.89446 0.10342 0.65599 0.0
H1154 H 0.87216 0.12109 0.70745 0.0
H1155 H 0.85483 0.10944 0.65305 0.0
H1156 H 0.89916 0.1391 0.70155 0.0
H1157 H 0.88976 0.09202 0.78181 0.0
H1158 H 0.89429 0.09377 0.72573 0.0
H1159 H 0.87863 0.09226 0.74149 0.0
C1160 C 0.87582 0.09792 0.62479 0.0
C1161 C 0.86447 0.09941 0.62371 0.0
C1162 C 0.88582 0.10473 0.6556 0.0
C1163 C 0.8845 0.11298 0.6861 0.0
C1164 C 0.87336 0.11477 0.68418 0.0
H1165 H 0.90017 0.13449 0.93981 0.0
H1166 H 0.89421 0.12436 0.86858 0.0
C1167 C 0.86344 0.10807 0.65321 0.0
C1168 C 0.89428 0.11933 0.72152 0.0
H1169 H 0.90453 0.11214 0.81598 0.0
C1170 C 0.90057 0.13326 0.72625 0.0
C1171 C 0.89607 0.11163 0.75355 0.0
C1172 C 0.88929 0.09659 0.75078 0.0
C1173 C 0.90785 0.13963 0.76358 0.0
C1174 C 0.90908 0.13185 0.79656 0.0
C1175 C 0.9036 0.11805 0.79043 0.0
C1176 C 0.91365 0.13731 0.84038 0.0
C1177 C 0.91329 0.15446 0.76886 0.0
C1178 C 0.92671 0.14776 0.84848 0.0
C1179 C 0.93015 0.15367 0.88947 0.0
C1180 C 0.92057 0.14914 0.92266 0.0
C1181 C 0.90774 0.13827 0.91482 0.0
C1182 C 0.90433 0.13242 0.87414 0.0
H1183 H 0.91003 0.15869 0.74247 0.0
H1184 H 0.91002 0.15656 0.80015 0.0
H1185 H 0.92438 0.15972 0.76884 0.0
H1186 H 0.93409 0.15154 0.82293 0.0
H1187 H 0.94013 0.16201 0.89477 0.0
H1188 H 0.88743 0.74255 0.64625 0.0
H1189 H 0.8758 0.74864 0.69929 0.0
H1190 H 0.89815 0.78975 0.65757 0.0
H1191 H 0.91013 0.78375 0.6051 0.0
H1192 H 0.89886 0.78824 0.74206 0.0
H1193 H 0.84639 0.75732 0.6914 0.0
H1194 H 0.85384 0.74702 0.69665 0.0
H1195 H 0.86014 0.76016 0.65676 0.0
C1196 C 0.88975 0.75285 0.64799 0.0
C1197 C 0.8997 0.76268 0.62166 0.0
C1198 C 0.88299 0.75631 0.678 0.0
C1199 C 0.88588 0.76961 0.68176 0.0
C1200 C 0.89566 0.77941 0.65491 0.0
H1201 H 0.83821 0.77587 0.89302 0.0
H1202 H 0.84864 0.78075 0.8211 0.0
C1203 C 0.90251 0.77597 0.62507 0.0
C1204 C 0.87969 0.77337 0.71689 0.0
H1205 H 0.84998 0.76261 0.76858 0.0
C1206 C 0.88814 0.78288 0.74726 0.0
C1207 C 0.8657 0.76671 0.72325 0.0
C1208 C 0.85601 0.75736 0.68992 0.0
C1209 C 0.88304 0.78493 0.78576 0.0
C1210 C 0.86921 0.77702 0.79445 0.0
C1211 C 0.86063 0.7685 0.76227 0.0
C1212 C 0.86382 0.77585 0.83857 0.0
C1213 C 0.8926 0.79513 0.81753 0.0
C1214 C 0.86891 0.77151 0.87201 0.0
C1215 C 0.86302 0.76873 0.91267 0.0
C1216 C 0.85181 0.7701 0.92074 0.0
C1217 C 0.84688 0.77479 0.88767 0.0
C1218 C 0.85281 0.77757 0.84668 0.0
H1219 H 0.90113 0.80355 0.80053 0.0
H1220 H 0.88756 0.79919 0.83795 0.0
H1221 H 0.89675 0.79037 0.8388 0.0
H1222 H 0.87715 0.76975 0.86623 0.0
H1223 H 0.86702 0.7651 0.93746 0.0
H1224 H 0.14819 0.25415 0.83967 0.0
H1225 H 0.13105 0.24915 0.7852 0.0
H1226 H 0.11175 0.2073 0.81837 0.0
H1227 H 0.1291 0.2122 0.87233 0.0
H1228 H 0.11451 0.21076 0.73329 0.0
H1229 H 0.0928 0.24036 0.79647 0.0
H1230 H 0.11059 0.25058 0.79174 0.0
H1231 H 0.10357 0.23663 0.82861 0.0
C1232 C 0.14024 0.2439 0.83561 0.0
C1233 C 0.13997 0.23356 0.8602 0.0
C1234 C 0.13037 0.24107 0.80477 0.0
C1235 C 0.11994 0.22789 0.79841 0.0
C1236 C 0.11963 0.21755 0.82308 0.0
H1237 H 0.06327 0.22328 0.59945 0.0
H1238 H 0.07029 0.21797 0.66804 0.0
C1239 C 0.12956 0.22037 0.85378 0.0
C1240 C 0.11006 0.22489 0.76355 0.0
H1241 H 0.09037 0.23598 0.71917 0.0
C1242 C 0.10899 0.21605 0.73067 0.0
C1243 C 0.10256 0.23148 0.76059 0.0
C1244 C 0.10232 0.24017 0.79655 0.0
C1245 C 0.10153 0.21452 0.69325 0.0
C1246 C 0.09526 0.22226 0.68827 0.0
C1247 C 0.09536 0.2302 0.7227 0.0
C1248 C 0.09023 0.22374 0.64587 0.0
C1249 C 0.10083 0.20495 0.65881 0.0
C1250 C 0.09909 0.22869 0.61085 0.0
C1251 C 0.09514 0.23172 0.57203 0.0
C1252 C 0.08227 0.22997 0.56746 0.0
C1253 C 0.07323 0.22466 0.60208 0.0
C1254 C 0.07723 0.22164 0.64119 0.0
H1255 H 0.10146 0.19648 0.67322 0.0
H1256 H 0.09145 0.2009 0.6398 0.0
H1257 H 0.10944 0.21027 0.63653 0.0
H1258 H 0.10928 0.23073 0.61405 0.0
H1259 H 0.10234 0.23582 0.54598 0.0
H1260 H 0.75626 0.86221 0.52974 0.0
H1261 H 0.76016 0.87459 0.59684 0.0
H1262 H 0.77498 0.85077 0.65614 0.0
H1263 H 0.77097 0.83814 0.58857 0.0
H1264 H 0.75538 0.85219 0.70446 0.0
H1265 H 0.79449 0.90279 0.65462 0.0
H1266 H 0.7807 0.8958 0.61764 0.0
H1267 H 0.79071 0.88798 0.62408 0.0
C1268 C 0.76053 0.8597 0.55682 0.0
C1269 C 0.76331 0.84921 0.55396 0.0
C1270 C 0.76284 0.86687 0.59506 0.0
C1271 C 0.76805 0.86374 0.63121 0.0
C1272 C 0.77107 0.8534 0.62839 0.0
H1273 H 0.78147 0.91443 0.85805 0.0
H1274 H 0.78521 0.90172 0.80198 0.0
C1275 C 0.7688 0.84623 0.58986 0.0
C1276 C 0.76916 0.8706 0.67261 0.0
H1277 H 0.78091 0.90166 0.71568 0.0
C1278 C 0.76117 0.86299 0.70732 0.0
C1279 C 0.77687 0.88466 0.67649 0.0
C1280 C 0.78628 0.89327 0.64134 0.0
C1281 C 0.76 0.86916 0.74476 0.0
C1282 C 0.76682 0.88328 0.74706 0.0
C1283 C 0.77551 0.89084 0.71357 0.0
C1284 C 0.76447 0.89044 0.78255 0.0
C1285 C 0.75128 0.8605 0.78112 0.0
C1286 C 0.75158 0.88839 0.78985 0.0
C1287 C 0.74941 0.89561 0.82183 0.0
C1288 C 0.76012 0.9051 0.84676 0.0
C1289 C 0.77302 0.90717 0.83933 0.0
C1290 C 0.77518 0.89991 0.80739 0.0
H1291 H 0.75042 0.85048 0.78067 0.0
H1292 H 0.75526 0.86522 0.813 0.0
H1293 H 0.74108 0.85903 0.77734 0.0
H1294 H 0.74323 0.88138 0.77027 0.0
H1295 H 0.73938 0.89387 0.82669 0.0
H1296 H 0.15656 0.93515 0.59303 0.0
H1297 H 0.14401 0.92715 0.66101 0.0
H1298 H 0.12156 0.88743 0.60752 0.0
H1299 H 0.13375 0.89533 0.53992 0.0
H1300 H 0.10583 0.8948 0.65393 0.0
H1301 H 0.15115 0.90423 0.74604 0.0
H1302 H 0.15174 0.91832 0.71931 0.0
H1303 H 0.151 0.90491 0.68789 0.0
C1304 C 0.14883 0.92476 0.59575 0.0
C1305 C 0.1462 0.91583 0.56138 0.0
C1306 C 0.14174 0.9202 0.63458 0.0
C1307 C 0.132 0.90666 0.63943 0.0
C1308 C 0.12904 0.89791 0.60448 0.0
H1309 H 0.10224 0.84884 0.83574 0.0
H1310 H 0.11412 0.8651 0.77852 0.0
C1311 C 0.13606 0.90244 0.56589 0.0
C1312 C 0.12523 0.90114 0.68115 0.0
H1313 H 0.13054 0.89247 0.78142 0.0
C1314 C 0.11121 0.89447 0.68216 0.0
C1315 C 0.13232 0.90066 0.71766 0.0
C1316 C 0.14738 0.90732 0.7179 0.0
C1317 C 0.10404 0.88673 0.71785 0.0
C1318 C 0.11113 0.88591 0.75385 0.0
C1319 C 0.12516 0.89314 0.75373 0.0
C1320 C 0.10424 0.87655 0.78993 0.0
C1321 C 0.08897 0.87884 0.71556 0.0
C1322 C 0.09487 0.87769 0.81561 0.0
C1323 C 0.08795 0.86832 0.84802 0.0
C1324 C 0.09044 0.85776 0.85557 0.0
C1325 C 0.10008 0.85684 0.83056 0.0
C1326 C 0.10691 0.86615 0.79799 0.0
H1327 H 0.08524 0.87845 0.68223 0.0
H1328 H 0.08511 0.86845 0.72711 0.0
H1329 H 0.08479 0.88362 0.73659 0.0
H1330 H 0.09286 0.88579 0.81048 0.0
H1331 H 0.08066 0.86933 0.86714 0.0
H1332 H 0.7547 0.89319 0.02976 0.0
H1333 H 0.75761 0.88405 0.09698 0.0
H1334 H 0.77825 0.9236 0.15246 0.0
H1335 H 0.7752 0.9329 0.08481 0.0
H1336 H 0.78064 0.88953 0.14339 0.0
H1337 H 0.7469 0.90181 0.23639 0.0
H1338 H 0.74772 0.90249 0.1782 0.0
H1339 H 0.76092 0.91541 0.20957 0.0
C1340 C 0.75995 0.9 0.05609 0.0
C1341 C 0.76463 0.91376 0.05219 0.0
C1342 C 0.76164 0.89475 0.09446 0.0
C1343 C 0.768 0.90312 0.12979 0.0
C1344 C 0.77314 0.91696 0.12567 0.0
H1345 H 0.78014 0.86506 0.35822 0.0
H1346 H 0.78459 0.88123 0.30044 0.0
C1347 C 0.77146 0.92226 0.08703 0.0
C1348 C 0.7686 0.89703 0.17109 0.0
H1349 H 0.75462 0.88897 0.27152 0.0
C1350 C 0.77515 0.88957 0.17173 0.0
C1351 C 0.76127 0.897 0.20768 0.0
C1352 C 0.75371 0.90452 0.20816 0.0
C1353 C 0.77414 0.88164 0.20741 0.0
C1354 C 0.76657 0.88139 0.24364 0.0
C1355 C 0.76044 0.88925 0.24366 0.0
C1356 C 0.76394 0.87217 0.28021 0.0
C1357 C 0.78057 0.87305 0.20508 0.0
C1358 C 0.75082 0.86196 0.28867 0.0
C1359 C 0.74823 0.85278 0.32175 0.0
C1360 C 0.75874 0.85367 0.34697 0.0
C1361 C 0.77185 0.86407 0.33905 0.0
C1362 C 0.77442 0.87328 0.30601 0.0
H1363 H 0.78374 0.87241 0.17173 0.0
H1364 H 0.78955 0.87742 0.22607 0.0
H1365 H 0.77358 0.86278 0.21675 0.0
H1366 H 0.74259 0.86096 0.2691 0.0
H1367 H 0.73803 0.84489 0.32722 0.0
H1368 H 0.0661 0.83578 0.10462 0.0
H1369 H 0.07668 0.84782 0.17145 0.0
H1370 H 0.10208 0.8833 0.09755 0.0
H1371 H 0.09187 0.87123 0.03089 0.0
H1372 H 0.11617 0.87571 0.14654 0.0
H1373 H 0.07685 0.87677 0.24631 0.0
H1374 H 0.07249 0.86039 0.22739 0.0
H1375 H 0.0748 0.8731 0.18922 0.0
C1376 C 0.07365 0.84627 0.10287 0.0
C1377 C 0.07826 0.85258 0.06274 0.0
C1378 C 0.07966 0.85315 0.14105 0.0
C1379 C 0.09015 0.86647 0.13947 0.0
C1380 C 0.09403 0.87302 0.09949 0.0
H1381 H 0.13572 0.9201 0.34799 0.0
H1382 H 0.12009 0.9084 0.28888 0.0
C1383 C 0.08818 0.86612 0.06146 0.0
C1384 C 0.09838 0.87303 0.17816 0.0
H1385 H 0.09746 0.8827 0.28167 0.0
C1386 C 0.11207 0.8773 0.17599 0.0
C1387 C 0.09303 0.87512 0.21647 0.0
C1388 C 0.07851 0.87122 0.22001 0.0
C1389 C 0.12058 0.8836 0.21101 0.0
C1390 C 0.11519 0.88534 0.24978 0.0
C1391 C 0.10152 0.88119 0.252 0.0
C1392 C 0.12375 0.89179 0.28784 0.0
C1393 C 0.13533 0.88855 0.20583 0.0
C1394 C 0.13076 0.88616 0.30733 0.0
C1395 C 0.13978 0.89287 0.34072 0.0
C1396 C 0.14181 0.90524 0.35549 0.0
C1397 C 0.1344 0.91061 0.33707 0.0
C1398 C 0.12544 0.90392 0.30347 0.0
H1399 H 0.13829 0.88956 0.17129 0.0
H1400 H 0.14145 0.89838 0.22188 0.0
H1401 H 0.13772 0.88129 0.22094 0.0
H1402 H 0.1294 0.87667 0.2962 0.0
H1403 H 0.14525 0.88843 0.35466 0.0
H1404 H 0.16476 0.23262 0.10582 0.0
H1405 H 0.15359 0.23156 0.17429 0.0
H1406 H 0.11797 0.22346 0.10466 0.0
H1407 H 0.12917 0.22489 0.03647 0.0
H1408 H 0.12724 0.24526 0.15586 0.0
H1409 H 0.12411 0.20267 0.24873 0.0
H1410 H 0.1405 0.21427 0.22863 0.0
H1411 H 0.12722 0.20456 0.1913 0.0
C1412 C 0.15442 0.23023 0.10534 0.0
C1413 C 0.14783 0.22893 0.066 0.0
C1414 C 0.14804 0.22959 0.14443 0.0
C1415 C 0.13494 0.2274 0.14453 0.0
C1416 C 0.12809 0.22519 0.10528 0.0
H1417 H 0.08106 0.21812 0.35154 0.0
H1418 H 0.09325 0.21485 0.29261 0.0
C1419 C 0.13449 0.226 0.06638 0.0
C1420 C 0.12891 0.22915 0.18438 0.0
H1421 H 0.11859 0.21722 0.28636 0.0
C1422 C 0.12533 0.2391 0.18437 0.0
C1423 C 0.12641 0.22109 0.22142 0.0
C1424 C 0.12964 0.20996 0.2226 0.0
C1425 C 0.11919 0.24116 0.22017 0.0
C1426 C 0.11691 0.23328 0.25755 0.0
C1427 C 0.1205 0.22333 0.25775 0.0
C1428 C 0.11024 0.23492 0.2959 0.0
C1429 C 0.11488 0.2515 0.21712 0.0
C1430 C 0.11591 0.24718 0.31784 0.0
C1431 C 0.10891 0.24912 0.35113 0.0
C1432 C 0.0962 0.23876 0.36335 0.0
C1433 C 0.09081 0.2263 0.34262 0.0
C1434 C 0.09777 0.2244 0.30912 0.0
H1435 H 0.11433 0.25423 0.18309 0.0
H1436 H 0.10495 0.24784 0.2324 0.0
H1437 H 0.12225 0.2607 0.23423 0.0
H1438 H 0.12563 0.25534 0.3086 0.0
H1439 H 0.11337 0.25878 0.3669 0.0
H1440 H 0.87397 0.7862 0.10909 0.0
H1441 H 0.89175 0.7915 0.1618 0.0
H1442 H 0.87316 0.74976 0.19602 0.0
H1443 H 0.85565 0.74439 0.14278 0.0
H1444 H 0.88901 0.78848 0.24595 0.0
H1445 H 0.91144 0.75902 0.18867 0.0
H1446 H 0.90067 0.76231 0.15491 0.0
H1447 H 0.89368 0.74845 0.19218 0.0
C1448 C 0.87381 0.77815 0.12745 0.0
C1449 C 0.86344 0.76488 0.12192 0.0
C1450 C 0.88399 0.78118 0.15742 0.0
C1451 C 0.88395 0.771 0.18223 0.0
C1452 C 0.87366 0.75774 0.17629 0.0
H1453 H 0.89586 0.76167 0.43599 0.0
H1454 H 0.89102 0.76742 0.36546 0.0
C1455 C 0.86356 0.75469 0.14618 0.0
C1456 C 0.8937 0.77425 0.21772 0.0
H1457 H 0.91234 0.7627 0.26696 0.0
C1458 C 0.89441 0.78312 0.24998 0.0
C1459 C 0.90107 0.76757 0.22261 0.0
C1460 C 0.90179 0.75894 0.1874 0.0
C1461 C 0.90119 0.78443 0.28879 0.0
C1462 C 0.9071 0.77644 0.2958 0.0
C1463 C 0.90757 0.76863 0.2619 0.0
C1464 C 0.91084 0.77439 0.33961 0.0
C1465 C 0.90142 0.79392 0.32268 0.0
C1466 C 0.92356 0.77618 0.34838 0.0
C1467 C 0.92635 0.77278 0.38894 0.0
C1468 C 0.91638 0.76738 0.42088 0.0
C1469 C 0.90376 0.76583 0.41209 0.0
C1470 C 0.90102 0.76925 0.37187 0.0
H1471 H 0.90136 0.80261 0.30753 0.0
H1472 H 0.89232 0.78866 0.34299 0.0
H1473 H 0.91034 0.79765 0.34382 0.0
H1474 H 0.93122 0.77998 0.32367 0.0
H1475 H 0.93614 0.77401 0.39487 0.0
H1476 H 0.21349 0.08691 0.10806 0.0
H1477 H 0.20774 0.099 0.16088 0.0
H1478 H 0.24892 0.12102 0.20196 0.0
H1479 H 0.25477 0.10926 0.14866 0.0
H1480 H 0.20955 0.09821 0.24576 0.0
H1481 H 0.2404 0.15065 0.19431 0.0
H1482 H 0.23732 0.13683 0.15959 0.0
H1483 H 0.2506 0.14306 0.19895 0.0
C1484 C 0.22135 0.09448 0.12797 0.0
C1485 C 0.23459 0.09715 0.12433 0.0
C1486 C 0.21804 0.10139 0.15801 0.0
C1487 C 0.22793 0.1111 0.18478 0.0
C1488 C 0.24119 0.11388 0.18076 0.0
H1489 H 0.2335 0.13064 0.44025 0.0
H1490 H 0.22873 0.12039 0.36916 0.0
C1491 C 0.2445 0.10704 0.15059 0.0
C1492 C 0.22431 0.11734 0.22011 0.0
H1493 H 0.23521 0.14714 0.27147 0.0
C1494 C 0.21491 0.10894 0.25081 0.0
C1495 C 0.231 0.13135 0.22628 0.0
C1496 C 0.24027 0.14098 0.19268 0.0
C1497 C 0.213 0.1141 0.28939 0.0
C1498 C 0.2209 0.12794 0.29778 0.0
C1499 C 0.22932 0.13648 0.26534 0.0
C1500 C 0.22218 0.1334 0.34183 0.0
C1501 C 0.20295 0.10458 0.32161 0.0
C1502 C 0.22023 0.14426 0.35006 0.0
C1503 C 0.22304 0.15024 0.39097 0.0
C1504 C 0.22802 0.14553 0.42382 0.0
C1505 C 0.22965 0.13448 0.41562 0.0
C1506 C 0.22681 0.12852 0.37506 0.0
H1507 H 0.19454 0.09593 0.30503 0.0
H1508 H 0.20787 0.10061 0.34297 0.0
H1509 H 0.19886 0.10962 0.34192 0.0
H1510 H 0.21682 0.14827 0.32463 0.0
H1511 H 0.22176 0.15879 0.39643 0.0
H1512 H 0.83962 0.06376 0.39194 0.0
H1513 H 0.85043 0.06918 0.32056 0.0
H1514 H 0.87888 0.10872 0.36587 0.0
H1515 H 0.86836 0.1034 0.43652 0.0
H1516 H 0.85256 0.08897 0.26656 0.0
H1517 H 0.90299 0.09804 0.30443 0.0
H1518 H 0.88898 0.08894 0.34041 0.0
H1519 H 0.89845 0.10696 0.3417 0.0
C1520 C 0.84833 0.07351 0.38672 0.0
C1521 C 0.85316 0.08317 0.4197 0.0
C1522 C 0.85448 0.07658 0.34605 0.0
C1523 C 0.86561 0.08926 0.33822 0.0
C1524 C 0.87054 0.09876 0.3715 0.0
H1525 H 0.89216 0.14637 0.14617 0.0
H1526 H 0.87973 0.12864 0.19858 0.0
C1527 C 0.86442 0.09573 0.41181 0.0
C1528 C 0.87141 0.09334 0.29452 0.0
H1529 H 0.90162 0.11125 0.24487 0.0
C1530 C 0.86324 0.09351 0.2613 0.0
C1531 C 0.88527 0.09897 0.28723 0.0
C1532 C 0.89438 0.09807 0.32028 0.0
C1533 C 0.86879 0.10035 0.22256 0.0
C1534 C 0.88285 0.10742 0.21757 0.0
C1535 C 0.89085 0.10609 0.24901 0.0
C1536 C 0.88956 0.11739 0.18279 0.0
C1537 C 0.85955 0.10029 0.18806 0.0
C1538 C 0.89947 0.11717 0.1572 0.0
C1539 C 0.90678 0.12746 0.12776 0.0
C1540 C 0.9043 0.13814 0.12349 0.0
C1541 C 0.89423 0.13823 0.1486 0.0
C1542 C 0.88701 0.12801 0.17822 0.0
H1543 H 0.8498 0.09081 0.18879 0.0
H1544 H 0.85755 0.10859 0.19413 0.0
H1545 H 0.86397 0.10157 0.15536 0.0
H1546 H 0.90169 0.10915 0.16051 0.0
H1547 H 0.91447 0.12713 0.10871 0.0
H1548 H 0.89482 0.3969 0.22611 0.0
H1549 H 0.89516 0.40703 0.15599 0.0
H1550 H 0.89001 0.43723 0.22048 0.0
H1551 H 0.88987 0.42735 0.29029 0.0
H1552 H 0.87775 0.41553 0.11177 0.0
H1553 H 0.92749 0.4572 0.16044 0.0
H1554 H 0.91943 0.44126 0.18776 0.0
H1555 H 0.9145 0.45345 0.19916 0.0
C1556 C 0.8934 0.40548 0.22514 0.0
C1557 C 0.8925 0.41147 0.26352 0.0
C1558 C 0.89362 0.41125 0.18517 0.0
C1559 C 0.89287 0.423 0.18336 0.0
C1560 C 0.89081 0.42828 0.22141 0.0
H1561 H 0.88631 0.47068 0.98422 0.0
H1562 H 0.88228 0.45404 0.03968 0.0
C1563 C 0.89071 0.42261 0.2612 0.0
C1564 C 0.89565 0.43063 0.14275 0.0
H1565 H 0.91749 0.4609 0.09891 0.0
C1566 C 0.88649 0.42539 0.1086 0.0
C1567 C 0.90722 0.44335 0.13851 0.0
C1568 C 0.91781 0.44912 0.17322 0.0
C1569 C 0.88832 0.43288 0.07086 0.0
C1570 C 0.89947 0.44597 0.06784 0.0
C1571 C 0.90889 0.45091 0.10134 0.0
C1572 C 0.90137 0.45505 0.03135 0.0
C1573 C 0.87832 0.42668 0.03469 0.0
C1574 C 0.91355 0.46136 0.00883 0.0
C1575 C 0.91598 0.47108 0.97775 0.0
C1576 C 0.90625 0.47461 0.9686 0.0
C1577 C 0.89396 0.4681 0.9905 0.0
C1578 C 0.89159 0.45848 0.02187 0.0
H1579 H 0.87326 0.41559 0.03564 0.0
H1580 H 0.87053 0.42955 0.03825 0.0
H1581 H 0.88316 0.43018 0.00268 0.0
H1582 H 0.92128 0.45894 0.01588 0.0
H1583 H 0.92552 0.4759 0.96122 0.0
H1584 H 0.581 0.46255 0.28776 0.0
H1585 H 0.57147 0.44995 0.22131 0.0
H1586 H 0.58947 0.48675 0.14868 0.0
H1587 H 0.59937 0.49938 0.21495 0.0
H1588 H 0.55327 0.4534 0.17942 0.0
H1589 H 0.59383 0.46213 0.06568 0.0
H1590 H 0.59669 0.46551 0.12281 0.0
H1591 H 0.59569 0.47736 0.08753 0.0
C1592 C 0.5833 0.46791 0.2574 0.0
C1593 C 0.59083 0.48194 0.25645 0.0
C1594 C 0.57785 0.46071 0.21948 0.0
C1595 C 0.57975 0.46739 0.18001 0.0
C1596 C 0.58807 0.48134 0.17857 0.0
H1597 H 0.52128 0.44413 0.97812 0.0
H1598 H 0.53745 0.4552 0.0363 0.0
C1599 C 0.59368 0.48856 0.21652 0.0
C1600 C 0.57132 0.46009 0.14241 0.0
H1601 H 0.572 0.45405 0.03476 0.0
C1602 C 0.5574 0.45342 0.14794 0.0
C1603 C 0.57669 0.46008 0.10138 0.0
C1604 C 0.59155 0.46654 0.09402 0.0
C1605 C 0.54869 0.44701 0.11343 0.0
C1606 C 0.55404 0.44754 0.072 0.0
C1607 C 0.56795 0.45385 0.06653 0.0
C1608 C 0.54522 0.44161 0.03416 0.0
C1609 C 0.53382 0.43972 0.12165 0.0
C1610 C 0.54457 0.4306 0.01287 0.0
C1611 C 0.53536 0.42428 0.97954 0.0
C1612 C 0.52671 0.42893 0.96698 0.0
C1613 C 0.52774 0.44026 0.98736 0.0
C1614 C 0.53695 0.44658 0.02059 0.0
H1615 H 0.53146 0.43736 0.15643 0.0
H1616 H 0.52969 0.44614 0.11138 0.0
H1617 H 0.52869 0.43027 0.10293 0.0
H1618 H 0.55091 0.42666 0.02289 0.0
H1619 H 0.53484 0.4156 0.96424 0.0
H1620 H 0.57964 0.1158 0.94854 0.0
H1621 H 0.56735 0.12027 0.00427 0.0
H1622 H 0.55039 0.07975 0.05026 0.0
H1623 H 0.5624 0.07512 0.99411 0.0
H1624 H 0.53179 0.08821 0.04348 0.0
H1625 H 0.57728 0.1253 0.13212 0.0
H1626 H 0.57646 0.12885 0.0761 0.0
H1627 H 0.57781 0.11454 0.09089 0.0
C1628 C 0.57328 0.10785 0.97055 0.0
C1629 C 0.57203 0.09513 0.96724 0.0
C1630 C 0.56631 0.11044 0.00241 0.0
C1631 C 0.55811 0.1004 0.03169 0.0
C1632 C 0.55669 0.08764 0.02796 0.0
H1633 H 0.53094 0.09435 0.28335 0.0
H1634 H 0.54274 0.0979 0.21526 0.0
C1635 C 0.56358 0.08502 0.99599 0.0
C1636 C 0.55113 0.10309 0.06689 0.0
H1637 H 0.55652 0.12003 0.16182 0.0
C1638 C 0.53715 0.09529 0.06913 0.0
C1639 C 0.55821 0.11234 0.10019 0.0
C1640 C 0.57327 0.12069 0.10011 0.0
C1641 C 0.53008 0.09602 0.10485 0.0
C1642 C 0.53721 0.10499 0.13877 0.0
C1643 C 0.55112 0.11326 0.13551 0.0
C1644 C 0.53075 0.10441 0.18056 0.0
C1645 C 0.51518 0.08661 0.10723 0.0
C1646 C 0.52029 0.10724 0.18393 0.0
C1647 C 0.51344 0.10515 0.22305 0.0
C1648 C 0.51701 0.10024 0.25914 0.0
C1649 C 0.52789 0.09806 0.25603 0.0
C1650 C 0.53469 0.10013 0.21717 0.0
H1651 H 0.51156 0.07892 0.08136 0.0
H1652 H 0.51238 0.08146 0.13898 0.0
H1653 H 0.50994 0.0924 0.10377 0.0
H1654 H 0.51725 0.11075 0.15614 0.0
H1655 H 0.50511 0.10696 0.22465 0.0
H1656 H 0.72991 0.56271 0.93869 0.0
H1657 H 0.73761 0.5608 0.01097 0.0
H1658 H 0.76872 0.55567 0.9535 0.0
H1659 H 0.76122 0.55764 0.88163 0.0
H1660 H 0.74562 0.5402 0.05146 0.0
H1661 H 0.7857 0.5929 0.02587 0.0
H1662 H 0.77004 0.58541 0.99687 0.0
H1663 H 0.78279 0.58165 0.98169 0.0
C1664 C 0.73814 0.56077 0.94155 0.0
C1665 C 0.74509 0.56047 0.9047 0.0
C1666 C 0.74251 0.5597 0.98275 0.0
C1667 C 0.75378 0.55823 0.98727 0.0
C1668 C 0.76003 0.55686 0.95046 0.0
H1669 H 0.80024 0.54753 0.17794 0.0
H1670 H 0.78373 0.5447 0.12351 0.0
C1671 C 0.75574 0.558 0.90949 0.0
C1672 C 0.76022 0.55987 0.02966 0.0
H1673 H 0.78865 0.58128 0.08391 0.0
C1674 C 0.75492 0.54923 0.05906 0.0
C1675 C 0.77222 0.57175 0.03954 0.0
C1676 C 0.77802 0.58365 0.00957 0.0
C1677 C 0.76174 0.54995 0.09746 0.0
C1678 C 0.77423 0.56151 0.10591 0.0
C1679 C 0.77912 0.57239 0.07738 0.0
C1680 C 0.78294 0.56234 0.1423 0.0
C1681 C 0.75555 0.5383 0.12834 0.0
C1682 C 0.78816 0.57332 0.17055 0.0
C1683 C 0.79779 0.5751 0.20113 0.0
C1684 C 0.80236 0.56592 0.204 0.0
C1685 C 0.79686 0.55474 0.17655 0.0
C1686 C 0.78731 0.55302 0.14574 0.0
H1687 H 0.74449 0.53266 0.12528 0.0
H1688 H 0.75924 0.53134 0.12062 0.0
H1689 H 0.75822 0.54166 0.16231 0.0
H1690 H 0.785 0.58069 0.16821 0.0
H1691 H 0.80183 0.58378 0.222 0.0
H1692 H 0.44152 0.1717 0.9273 0.0
H1693 H 0.44586 0.183 -0.00225 0.0
H1694 H 0.43173 0.20856 0.94779 0.0
H1695 H 0.42763 0.19761 0.87796 0.0
H1696 H 0.45459 0.22209 -0.00144 0.0
H1697 H 0.41485 0.17613 0.07904 0.0
H1698 H 0.42824 0.17515 0.05289 0.0
H1699 H 0.41656 0.17745 0.0211 0.0
C1700 C 0.43953 0.17986 0.93136 0.0
C1701 C 0.43412 0.1837 0.89735 0.0
C1702 C 0.44194 0.18623 0.97157 0.0
C1703 C 0.43895 0.19649 0.97804 0.0
C1704 C 0.43411 0.20067 0.94348 0.0
H1705 H 0.40845 0.22577 0.16389 0.0
H1706 H 0.4139 0.21386 0.10974 0.0
C1707 C 0.43172 0.19435 0.90361 0.0
C1708 C 0.43994 0.20253 0.02096 0.0
H1709 H 0.42344 0.19625 0.11707 0.0
C1710 C 0.44802 0.21644 0.02498 0.0
C1711 C 0.43126 0.19508 0.05508 0.0
C1712 C 0.42215 0.18014 0.05205 0.0
C1713 C 0.44698 0.22325 0.06093 0.0
C1714 C 0.43784 0.21585 0.09415 0.0
C1715 C 0.43042 0.20186 0.09146 0.0
C1716 C 0.43461 0.22252 0.12907 0.0
C1717 C 0.45497 0.23833 0.0615 0.0
C1718 C 0.4444 0.23119 0.15826 0.0
C1719 C 0.44134 0.23814 0.1889 0.0
C1720 C 0.4284 0.23638 0.19113 0.0
C1721 C 0.41852 0.22736 0.1628 0.0
C1722 C 0.4216 0.22051 0.132 0.0
H1723 H 0.45964 0.24254 0.02971 0.0
H1724 H 0.44854 0.24256 0.0706 0.0
H1725 H 0.46307 0.24167 0.0858 0.0
H1726 H 0.45442 0.23269 0.15707 0.0
H1727 H 0.44912 0.24494 0.2107 0.0
H1728 H 0.79994 0.22196 0.88815 0.0
H1729 H 0.79166 0.21487 0.96133 0.0
H1730 H 0.81664 0.25517 0.00721 0.0
H1731 H 0.8251 0.26246 0.93341 0.0
H1732 H 0.81257 0.22169 0.03771 0.0
H1733 H 0.77498 0.23826 0.05383 0.0
H1734 H 0.77856 0.23387 0.00152 0.0
H1735 H 0.79091 0.24875 0.028 0.0
C1736 C 0.80358 0.22938 0.91361 0.0
C1737 C 0.81321 0.24276 0.90513 0.0
C1738 C 0.79884 0.2253 0.95537 0.0
C1739 C 0.80358 0.2345 0.9894 0.0
C1740 C 0.81287 0.24797 0.9811 0.0
H1741 H 0.76872 0.206 0.2469 0.0
H1742 H 0.78297 0.22157 0.19063 0.0
C1743 C 0.81765 0.2521 0.93907 0.0
C1744 C 0.79922 0.22957 0.03366 0.0
H1745 H 0.77469 0.22339 0.10656 0.0
C1746 C 0.80448 0.22228 0.05334 0.0
C1747 C 0.78875 0.23047 0.0538 0.0
C1748 C 0.7829 0.23826 0.03348 0.0
C1749 C 0.79904 0.21523 0.09176 0.0
C1750 C 0.78789 0.2153 0.1103 0.0
C1751 C 0.7832 0.22331 0.09209 0.0
C1752 C 0.78012 0.20605 0.14562 0.0
C1753 C 0.805 0.20745 0.11146 0.0
C1754 C 0.7738 0.1922 0.13876 0.0
C1755 C 0.76567 0.18331 0.17062 0.0
C1756 C 0.76367 0.18813 0.20988 0.0
C1757 C 0.77014 0.20201 0.21697 0.0
C1758 C 0.77825 0.21091 0.18494 0.0
H1759 H 0.81566 0.21175 0.10217 0.0
H1760 H 0.80427 0.20726 0.14723 0.0
H1761 H 0.79948 0.197 0.09951 0.0
H1762 H 0.77488 0.18825 0.10825 0.0
H1763 H 0.76076 0.17269 0.16416 0.0
H1764 H 0.42487 0.22835 0.375 0.0
H1765 H 0.42887 0.22121 0.4445 0.0
H1766 H 0.44436 0.2611 0.4948 0.0
H1767 H 0.44017 0.26836 0.42474 0.0
H1768 H 0.45217 0.23025 0.49396 0.0
H1769 H 0.41335 0.23726 0.57732 0.0
H1770 H 0.41469 0.23746 0.51927 0.0
H1771 H 0.42664 0.2515 0.55032 0.0
C1772 C 0.42922 0.23567 0.40067 0.0
C1773 C 0.43209 0.24889 0.39461 0.0
C1774 C 0.43155 0.23157 0.44034 0.0
C1775 C 0.43677 0.24058 0.47486 0.0
C1776 C 0.44016 0.25396 0.46862 0.0
H1777 H 0.44917 0.20438 0.7085 0.0
H1778 H 0.45371 0.22122 0.65293 0.0
C1779 C 0.43782 0.2581 0.42865 0.0
C1780 C 0.43787 0.23548 0.51752 0.0
H1781 H 0.42225 0.22597 0.61523 0.0
C1782 C 0.44585 0.22953 0.52093 0.0
C1783 C 0.4295 0.2345 0.55231 0.0
C1784 C 0.42048 0.24043 0.54986 0.0
C1785 C 0.44512 0.22195 0.55722 0.0
C1786 C 0.43636 0.22053 0.59132 0.0
C1787 C 0.42895 0.22711 0.58897 0.0
C1788 C 0.4336 0.21105 0.62722 0.0
C1789 C 0.45304 0.21479 0.55744 0.0
C1790 C 0.42069 0.20001 0.632 0.0
C1791 C 0.41804 0.19046 0.66386 0.0
C1792 C 0.42827 0.1918 0.69145 0.0
C1793 C 0.44112 0.20304 0.68736 0.0
C1794 C 0.44375 0.21264 0.65561 0.0
H1795 H 0.45734 0.21493 0.52522 0.0
H1796 H 0.46141 0.21976 0.58074 0.0
H1797 H 0.44667 0.20422 0.56768 0.0
H1798 H 0.41272 0.19861 0.61038 0.0
H1799 H 0.40804 0.18193 0.66636 0.0
H1800 H 0.80773 0.21821 0.67452 0.0
H1801 H 0.79043 0.20737 0.61928 0.0
H1802 H 0.7726 0.23071 0.65903 0.0
H1803 H 0.78988 0.24162 0.71456 0.0
H1804 H 0.75391 0.20174 0.64123 0.0
H1805 H 0.79038 0.2292 0.51051 0.0
H1806 H 0.79557 0.22083 0.54807 0.0
H1807 H 0.79348 0.23444 0.56627 0.0
C1808 C 0.80007 0.22096 0.67175 0.0
C1809 C 0.80021 0.23083 0.69856 0.0
C1810 C 0.79022 0.21478 0.64021 0.0
C1811 C 0.78036 0.21836 0.63497 0.0
C1812 C 0.78016 0.22785 0.66266 0.0
H1813 H 0.73866 0.19733 0.39003 0.0
H1814 H 0.74716 0.20939 0.45802 0.0
C1815 C 0.79005 0.23408 0.69419 0.0
C1816 C 0.77075 0.21269 0.59895 0.0
H1817 H 0.76939 0.21103 0.48921 0.0
C1818 C 0.7572 0.20385 0.60792 0.0
C1819 C 0.77507 0.21571 0.55569 0.0
C1820 C 0.7894 0.22566 0.54437 0.0
C1821 C 0.74796 0.19741 0.57441 0.0
C1822 C 0.75247 0.19982 0.53114 0.0
C1823 C 0.76591 0.20916 0.52238 0.0
C1824 C 0.74394 0.19202 0.49431 0.0
C1825 C 0.73351 0.18802 0.58567 0.0
C1826 C 0.7387 0.17813 0.49271 0.0
C1827 C 0.73372 0.1712 0.45397 0.0
C1828 C 0.73413 0.1781 0.41612 0.0
C1829 C 0.73829 0.19177 0.41867 0.0
C1830 C 0.74315 0.19868 0.45748 0.0
H1831 H 0.73085 0.19076 0.61702 0.0
H1832 H 0.72672 0.18801 0.56029 0.0
H1833 H 0.73183 0.17772 0.58877 0.0
H1834 H 0.73943 0.17282 0.5204 0.0
H1835 H 0.73062 0.16066 0.45294 0.0
H1836 H 0.74739 0.54808 0.6853 0.0
H1837 H 0.7601 0.54401 0.63031 0.0
H1838 H 0.79453 0.58259 0.65669 0.0
H1839 H 0.78175 0.58686 0.71103 0.0
H1840 H 0.78855 0.57924 0.57293 0.0
H1841 H 0.7894 0.5346 0.63349 0.0
H1842 H 0.77279 0.53212 0.63148 0.0
H1843 H 0.78494 0.54451 0.66731 0.0
C1844 C 0.75772 0.55562 0.67978 0.0
C1845 C 0.76357 0.56782 0.70224 0.0
C1846 C 0.76502 0.55322 0.64866 0.0
C1847 C 0.77834 0.56289 0.63991 0.0
C1848 C 0.7843 0.57494 0.66318 0.0
H1849 H 0.83116 0.56112 0.44078 0.0
H1850 H 0.82137 0.56008 0.51206 0.0
C1851 C 0.77698 0.57739 0.69408 0.0
C1852 C 0.7855 0.56112 0.60315 0.0
H1853 H 0.79422 0.53959 0.55773 0.0
C1854 C 0.78996 0.57066 0.57 0.0
C1855 C 0.7874 0.54996 0.5994 0.0
C1856 C 0.7835 0.53979 0.63505 0.0
C1857 C 0.79581 0.56911 0.53253 0.0
C1858 C 0.79703 0.55761 0.52775 0.0
C1859 C 0.79308 0.54829 0.56143 0.0
C1860 C 0.80197 0.55511 0.48692 0.0
C1861 C 0.80042 0.57969 0.49783 0.0
C1862 C 0.79405 0.55202 0.44975 0.0
C1863 C 0.79959 0.55267 0.40924 0.0
C1864 C 0.81312 0.55635 0.40536 0.0
C1865 C 0.8207 0.55823 0.44291 0.0
C1866 C 0.81514 0.55766 0.48357 0.0
H1867 H 0.80131 0.58914 0.51007 0.0
H1868 H 0.81025 0.58188 0.48461 0.0
H1869 H 0.79309 0.57598 0.47096 0.0
H1870 H 0.78384 0.54997 0.45189 0.0
H1871 H 0.7935 0.55108 0.38084 0.0
H1872 H 0.56008 0.08851 0.782 0.0
H1873 H 0.55147 0.09203 0.71462 0.0
H1874 H 0.5912 0.11173 0.66057 0.0
H1875 H 0.59997 0.10803 0.72833 0.0
H1876 H 0.55795 0.11556 0.66966 0.0
H1877 H 0.56895 0.08122 0.57469 0.0
H1878 H 0.56947 0.08168 0.63291 0.0
H1879 H 0.58273 0.09482 0.60235 0.0
C1880 C 0.56704 0.09365 0.75592 0.0
C1881 C 0.58069 0.09791 0.76027 0.0
C1882 C 0.56209 0.0957 0.71748 0.0
C1883 C 0.57067 0.10202 0.68254 0.0
C1884 C 0.5844 0.10667 0.68705 0.0
H1885 H 0.53328 0.11597 0.45525 0.0
H1886 H 0.54955 0.1202 0.51257 0.0
C1887 C 0.58939 0.10461 0.72573 0.0
C1888 C 0.56488 0.10313 0.64128 0.0
H1889 H 0.55665 0.08965 0.54024 0.0
C1890 C 0.55783 0.1101 0.64102 0.0
C1891 C 0.56469 0.09587 0.60427 0.0
C1892 C 0.57177 0.08788 0.60333 0.0
C1893 C 0.55007 0.10951 0.60541 0.0
C1894 C 0.54958 0.10194 0.56886 0.0
C1895 C 0.55711 0.09547 0.56835 0.0
C1896 C 0.54028 0.09952 0.53269 0.0
C1897 C 0.54185 0.11633 0.6082 0.0
C1898 C 0.52992 0.08646 0.52441 0.0
C1899 C 0.52069 0.08401 0.49162 0.0
C1900 C 0.52169 0.09459 0.46653 0.0
C1901 C 0.53222 0.10764 0.47435 0.0
C1902 C 0.54149 0.11008 0.5071 0.0
H1903 H 0.54141 0.11957 0.64164 0.0
H1904 H 0.54638 0.12532 0.58723 0.0
H1905 H 0.53149 0.10958 0.59677 0.0
H1906 H 0.52883 0.07817 0.54385 0.0
H1907 H 0.51271 0.07384 0.48624 0.0
H1908 H 0.91853 0.43566 0.49445 0.0
H1909 H 0.91462 0.44818 0.55049 0.0
H1910 H 0.87313 0.42953 0.51332 0.0
H1911 H 0.87691 0.4167 0.45768 0.0
H1912 H 0.90526 0.46607 0.54555 0.0
H1913 H 0.871 0.42104 0.64187 0.0
H1914 H 0.88103 0.42041 0.59833 0.0
H1915 H 0.86627 0.4213 0.58678 0.0
C1916 C 0.90858 0.43423 0.49817 0.0
C1917 C 0.898 0.42512 0.47202 0.0
C1918 C 0.90636 0.44142 0.53007 0.0
C1919 C 0.89355 0.43966 0.53635 0.0
C1920 C 0.88303 0.43085 0.50949 0.0
H1921 H 0.89123 0.49329 0.73693 0.0
H1922 H 0.88569 0.48104 0.66809 0.0
C1923 C 0.88522 0.42357 0.47769 0.0
C1924 C 0.89133 0.44682 0.5721 0.0
H1925 H 0.87695 0.44194 0.67159 0.0
C1926 C 0.89891 0.46084 0.57287 0.0
C1927 C 0.88301 0.43991 0.60757 0.0
C1928 C 0.87492 0.42484 0.609 0.0
C1929 C 0.89901 0.46811 0.60927 0.0
C1930 C 0.89111 0.46116 0.64545 0.0
C1931 C 0.88291 0.44721 0.64362 0.0
C1932 C 0.89295 0.46782 0.68771 0.0
C1933 C 0.90824 0.48306 0.60987 0.0
C1934 C 0.8984 0.46412 0.72179 0.0
C1935 C 0.90147 0.47098 0.76083 0.0
C1936 C 0.89914 0.4817 0.76667 0.0
C1937 C 0.89318 0.4851 0.73317 0.0
C1938 C 0.89008 0.47817 0.69386 0.0
H1939 H 0.91503 0.48663 0.5815 0.0
H1940 H 0.90222 0.48811 0.60962 0.0
H1941 H 0.9144 0.48615 0.63969 0.0
H1942 H 0.90069 0.45617 0.7177 0.0
H1943 H 0.90598 0.46808 0.7861 0.0
H1944 H 0.58748 0.475 0.49106 0.0
H1945 H 0.57368 0.45898 0.54642 0.0
H1946 H 0.53829 0.4558 0.48818 0.0
H1947 H 0.55212 0.47212 0.43313 0.0
H1948 H 0.53916 0.46043 0.57251 0.0
H1949 H 0.5493 0.41902 0.54654 0.0
H1950 H 0.56451 0.4347 0.55195 0.0
H1951 H 0.55355 0.43204 0.50705 0.0
C1952 C 0.57675 0.47077 0.48974 0.0
C1953 C 0.57087 0.47483 0.45788 0.0
C1954 C 0.56885 0.4615 0.52114 0.0
C1955 C 0.55492 0.45597 0.52093 0.0
C1956 C 0.54901 0.45984 0.48868 0.0
H1957 H 0.50377 0.39991 0.72387 0.0
H1958 H 0.51345 0.40855 0.65222 0.0
C1959 C 0.55691 0.46919 0.45737 0.0
C1960 C 0.54678 0.44729 0.55702 0.0
H1961 H 0.5412 0.42027 0.61767 0.0
C1962 C 0.53941 0.45151 0.58185 0.0
C1963 C 0.54695 0.43554 0.56895 0.0
C1964 C 0.55389 0.42998 0.5419 0.0
C1965 C 0.53288 0.44476 0.61964 0.0
C1966 C 0.53394 0.43366 0.63336 0.0
C1967 C 0.5406 0.42892 0.60732 0.0
C1968 C 0.52902 0.42762 0.67628 0.0
C1969 C 0.52516 0.44978 0.64525 0.0
C1970 C 0.53494 0.4353 0.7133 0.0
C1971 C 0.52948 0.43044 0.75388 0.0
C1972 C 0.51804 0.41777 0.75822 0.0
C1973 C 0.51259 0.40971 0.72138 0.0
C1974 C 0.51807 0.41463 0.68054 0.0
H1975 H 0.52224 0.45583 0.62495 0.0
H1976 H 0.516 0.44134 0.65953 0.0
H1977 H 0.53152 0.45621 0.67198 0.0
H1978 H 0.54353 0.44526 0.71062 0.0
H1979 H 0.53396 0.43683 0.78172 0.0
H1980 H 0.59281 0.81864 0.33303 0.0
H1981 H 0.58733 0.80128 0.38725 0.0
H1982 H 0.54618 0.78098 0.34555 0.0
H1983 H 0.55155 0.79848 0.29179 0.0
H1984 H 0.54818 0.78385 0.43157 0.0
H1985 H 0.57968 0.76323 0.37677 0.0
H1986 H 0.58933 0.78104 0.38238 0.0
H1987 H 0.57612 0.77379 0.34292 0.0
C1988 C 0.58263 0.81041 0.33514 0.0
C1989 C 0.57261 0.80991 0.30825 0.0
C1990 C 0.57953 0.80043 0.36585 0.0
C1991 C 0.5664 0.78969 0.36985 0.0
C1992 C 0.5564 0.78911 0.34273 0.0
H1993 H 0.55711 0.73101 0.56857 0.0
H1994 H 0.55359 0.73901 0.49893 0.0
C1995 C 0.55948 0.79912 0.31212 0.0
C1996 C 0.56298 0.77975 0.40478 0.0
H1997 H 0.57337 0.7599 0.45239 0.0
C1998 C 0.55349 0.77839 0.43565 0.0
C1999 C 0.56965 0.77237 0.40962 0.0
C2000 C 0.57915 0.77256 0.37585 0.0
C2001 C 0.55126 0.77067 0.47292 0.0
C2002 C 0.55891 0.76438 0.47978 0.0
C2003 C 0.56762 0.76487 0.44734 0.0
C2004 C 0.55937 0.75883 0.52236 0.0
C2005 C 0.54103 0.76967 0.50523 0.0
C2006 C 0.56372 0.7673 0.55841 0.0
C2007 C 0.56575 0.7628 0.59782 0.0
C2008 C 0.56355 0.74975 0.60198 0.0
C2009 C 0.55881 0.7411 0.56626 0.0
C2010 C 0.55682 0.74565 0.52656 0.0
H2011 H 0.53297 0.77066 0.48917 0.0
H2012 H 0.53646 0.76003 0.52296 0.0
H2013 H 0.54596 0.77794 0.52895 0.0
H2014 H 0.56606 0.7776 0.55567 0.0
H2015 H 0.56943 0.76972 0.62473 0.0
H2016 H 0.23245 0.80129 0.61186 0.0
H2017 H 0.22615 0.79067 0.54143 0.0
H2018 H 0.26499 0.81916 0.49111 0.0
H2019 H 0.27136 0.83007 0.56219 0.0
H2020 H 0.24469 0.81738 0.44164 0.0
H2021 H 0.2354 0.76655 0.47387 0.0
H2022 H 0.22701 0.77105 0.51338 0.0
H2023 H 0.24501 0.78035 0.51018 0.0
C2024 C 0.23976 0.80518 0.58609 0.0
C2025 C 0.25239 0.81653 0.59245 0.0
C2026 C 0.23619 0.79901 0.54588 0.0
C2027 C 0.24518 0.80396 0.51121 0.0
C2028 C 0.25796 0.81509 0.51764 0.0
H2029 H 0.20568 0.75706 0.27947 0.0
H2030 H 0.2237 0.76922 0.33167 0.0
C2031 C 0.26159 0.82129 0.55816 0.0
C2032 C 0.24043 0.79834 0.46763 0.0
H2033 H 0.22177 0.76842 0.41682 0.0
C2034 C 0.23999 0.80672 0.43569 0.0
C2035 C 0.23455 0.78448 0.45943 0.0
C2036 C 0.23566 0.77514 0.49095 0.0
C2037 C 0.23275 0.80143 0.39741 0.0
C2038 C 0.22555 0.7874 0.39157 0.0
C2039 C 0.22704 0.77916 0.42168 0.0
C2040 C 0.21542 0.78098 0.35706 0.0
C2041 C 0.23256 0.8109 0.36429 0.0
C2042 C 0.20476 0.78351 0.35416 0.0
C2043 C 0.1945 0.77664 0.32431 0.0
C2044 C 0.19462 0.76695 0.29728 0.0
C2045 C 0.20533 0.76447 0.29998 0.0
C2046 C 0.21564 0.77142 0.32967 0.0
H2047 H 0.242 0.82069 0.36521 0.0
H2048 H 0.23114 0.80674 0.33114 0.0
H2049 H 0.22424 0.81276 0.37167 0.0
H2050 H 0.20414 0.79054 0.37587 0.0
H2051 H 0.18634 0.7787 0.32312 0.0
H2052 H 0.17074 0.44297 0.57028 0.0
H2053 H 0.18219 0.44662 0.50039 0.0
H2054 H 0.20672 0.43173 0.55375 0.0
H2055 H 0.19563 0.42833 0.62311 0.0
H2056 H 0.22093 0.45408 0.50198 0.0
H2057 H 0.17462 0.41504 0.42127 0.0
H2058 H 0.17397 0.42879 0.44598 0.0
H2059 H 0.17582 0.41707 0.47913 0.0
C2060 C 0.1787 0.44067 0.56709 0.0
C2061 C 0.18222 0.43525 0.60195 0.0
C2062 C 0.18517 0.44268 0.52719 0.0
C2063 C 0.19516 0.43926 0.52182 0.0
C2064 C 0.19903 0.43442 0.55719 0.0
H2065 H 0.22341 0.40812 0.33171 0.0
H2066 H 0.21187 0.41344 0.38761 0.0
C2067 C 0.19263 0.43244 0.5968 0.0
C2068 C 0.20125 0.43987 0.47925 0.0
H2069 H 0.19467 0.42349 0.38279 0.0
C2070 C 0.2152 0.4476 0.47548 0.0
C2071 C 0.19369 0.43129 0.44504 0.0
C2072 C 0.17871 0.42249 0.44785 0.0
C2073 C 0.2219 0.44642 0.43949 0.0
C2074 C 0.21438 0.43748 0.40596 0.0
C2075 C 0.20038 0.43032 0.40862 0.0
C2076 C 0.22088 0.43435 0.37027 0.0
C2077 C 0.23699 0.45408 0.43907 0.0
C2078 C 0.22962 0.4443 0.34161 0.0
C2079 C 0.23635 0.44131 0.30997 0.0
C2080 C 0.2343 0.42828 0.30616 0.0
C2081 C 0.22522 0.41825 0.334 0.0
C2082 C 0.21859 0.42127 0.36581 0.0
H2083 H 0.24124 0.45841 0.47118 0.0
H2084 H 0.24098 0.44753 0.42899 0.0
H2085 H 0.24053 0.46242 0.41559 0.0
H2086 H 0.23133 0.45438 0.34395 0.0
H2087 H 0.2432 0.4492 0.28861 0.0
H2088 H 0.46153 0.87821 0.54296 0.0
H2089 H 0.44531 0.87331 0.48494 0.0
H2090 H 0.45932 0.91542 0.47094 0.0
H2091 H 0.47566 0.92043 0.52855 0.0
H2092 H 0.42446 0.88016 0.47288 0.0
H2093 H 0.46515 0.90298 0.3512 0.0
H2094 H 0.46774 0.89863 0.40488 0.0
H2095 H 0.46707 0.91366 0.39605 0.0
C2096 C 0.46108 0.88642 0.52773 0.0
C2097 C 0.46995 0.89972 0.53989 0.0
C2098 C 0.45178 0.88359 0.49477 0.0
C2099 C 0.45126 0.89401 0.47346 0.0
C2100 C 0.45972 0.90726 0.48673 0.0
H2101 H 0.39806 0.89752 0.28786 0.0
H2102 H 0.40758 0.89514 0.35551 0.0
C2103 C 0.46902 0.9101 0.51961 0.0
C2104 C 0.44247 0.89116 0.43556 0.0
H2105 H 0.44342 0.89716 0.32761 0.0
C2106 C 0.42855 0.88378 0.44099 0.0
C2107 C 0.44789 0.89571 0.39401 0.0
C2108 C 0.46278 0.90308 0.38592 0.0
C2109 C 0.41987 0.88118 0.4059 0.0
C2110 C 0.42532 0.88621 0.36467 0.0
C2111 C 0.43925 0.8933 0.35925 0.0
C2112 C 0.41698 0.88484 0.32658 0.0
C2113 C 0.40499 0.87303 0.41319 0.0
C2114 C 0.41879 0.87954 0.28808 0.0
C2115 C 0.41354 0.88107 0.24939 0.0
C2116 C 0.40632 0.88788 0.2486 0.0
C2117 C 0.40351 0.89216 0.28765 0.0
C2118 C 0.40891 0.89075 0.32638 0.0
H2119 H 0.40257 0.86664 0.4424 0.0
H2120 H 0.40098 0.87988 0.41803 0.0
H2121 H 0.39985 0.86655 0.38493 0.0
H2122 H 0.42498 0.87494 0.28754 0.0
H2123 H 0.4158 0.87763 0.21975 0.0
H2124 H 0.12055 0.5843 0.54081 0.0
H2125 H 0.12402 0.5716 0.48393 0.0
H2126 H 0.08175 0.55065 0.45629 0.0
H2127 H 0.07817 0.56306 0.5136 0.0
H2128 H 0.09267 0.53398 0.45804 0.0
H2129 H 0.1228 0.57886 0.35556 0.0
H2130 H 0.12891 0.57945 0.40932 0.0
H2131 H 0.11337 0.57917 0.40151 0.0
C2132 C 0.112 0.57695 0.52264 0.0
C2133 C 0.0991 0.57473 0.53133 0.0
C2134 C 0.11401 0.56974 0.49013 0.0
C2135 C 0.10317 0.56033 0.46557 0.0
C2136 C 0.09025 0.55789 0.4749 0.0
H2137 H 0.08792 0.52985 0.21734 0.0
H2138 H 0.09326 0.54204 0.28522 0.0
C2139 C 0.08823 0.56502 0.50752 0.0
C2140 C 0.10515 0.55325 0.42903 0.0
H2141 H 0.11767 0.55808 0.32673 0.0
C2142 C 0.0983 0.53922 0.42952 0.0
C2143 C 0.11251 0.56017 0.39197 0.0
C2144 C 0.11975 0.57523 0.38916 0.0
C2145 C 0.09803 0.53189 0.39303 0.0
C2146 C 0.10498 0.53881 0.35542 0.0
C2147 C 0.11243 0.55283 0.35579 0.0
C2148 C 0.10287 0.53188 0.31356 0.0
C2149 C 0.0896 0.51684 0.39404 0.0
C2150 C 0.10672 0.52227 0.30669 0.0
C2151 C 0.10361 0.51518 0.26768 0.0
C2152 C 0.09665 0.51769 0.23519 0.0
C2153 C 0.09324 0.52764 0.24181 0.0
C2154 C 0.09632 0.53466 0.28055 0.0
H2155 H 0.08339 0.51316 0.4237 0.0
H2156 H 0.0829 0.51315 0.36549 0.0
H2157 H 0.09622 0.51245 0.3929 0.0
H2158 H 0.11194 0.52012 0.33163 0.0
H2159 H 0.1064 0.5076 0.2633 0.0
H2160 H 0.43844 0.51643 0.50898 0.0
H2161 H 0.45045 0.53379 0.45501 0.0
H2162 H 0.42834 0.5532 0.4922 0.0
H2163 H 0.41603 0.53564 0.5457 0.0
H2164 H 0.42848 0.55061 0.40676 0.0
H2165 H 0.48016 0.57198 0.4664 0.0
H2166 H 0.47246 0.55419 0.46122 0.0
H2167 H 0.46583 0.56121 0.4992 0.0
C2168 C 0.43622 0.52446 0.50592 0.0
C2169 C 0.42631 0.52469 0.53149 0.0
C2170 C 0.44318 0.53445 0.47538 0.0
C2171 C 0.4405 0.54497 0.47026 0.0
C2172 C 0.43065 0.54526 0.49595 0.0
H2173 H 0.49139 0.60158 0.26912 0.0
H2174 H 0.47958 0.59466 0.33865 0.0
C2175 C 0.42362 0.53521 0.52638 0.0
C2176 C 0.44722 0.55493 0.43551 0.0
H2177 H 0.47777 0.57451 0.38937 0.0
C2178 C 0.43928 0.55609 0.40345 0.0
C2179 C 0.46131 0.56237 0.43167 0.0
C2180 C 0.47041 0.56249 0.46678 0.0
C2181 C 0.44501 0.56355 0.36589 0.0
C2182 C 0.45899 0.56974 0.35995 0.0
C2183 C 0.46702 0.56957 0.39365 0.0
C2184 C 0.46522 0.57469 0.31718 0.0
C2185 C 0.43598 0.56432 0.33227 0.0
C2186 C 0.46105 0.56577 0.28229 0.0
C2187 C 0.46774 0.56966 0.24296 0.0
C2188 C 0.47882 0.58253 0.23772 0.0
C2189 C 0.48283 0.59162 0.27227 0.0
C2190 C 0.47612 0.58769 0.3119 0.0
H2191 H 0.42698 0.56372 0.34743 0.0
H2192 H 0.44124 0.57371 0.31326 0.0
H2193 H 0.43252 0.55572 0.30985 0.0
H2194 H 0.45292 0.55559 0.28593 0.0
H2195 H 0.46443 0.56241 0.21697 0.0
H2196 H 0.10122 0.6009 0.77933 0.0
H2197 H 0.10195 0.59032 0.84702 0.0
H2198 H 0.11529 0.56676 0.77749 0.0
H2199 H 0.11416 0.57698 0.70983 0.0
H2200 H 0.09252 0.55156 0.82098 0.0
H2201 H 0.1295 0.59077 0.9298 0.0
H2202 H 0.11761 0.59475 0.90714 0.0
H2203 H 0.12921 0.59322 0.87229 0.0
C2204 C 0.10473 0.5938 0.77879 0.0
C2205 C 0.10753 0.58966 0.73946 0.0
C2206 C 0.10519 0.58779 0.81749 0.0
C2207 C 0.1087 0.57777 0.81729 0.0
C2208 C 0.11254 0.57445 0.77834 0.0
H2209 H 0.11295 0.53106 0.02922 0.0
H2210 H 0.11801 0.54727 0.97111 0.0
C2211 C 0.1119 0.5803 0.73974 0.0
C2212 C 0.1064 0.5693 0.85581 0.0
H2213 H 0.1144 0.56971 0.96213 0.0
C2214 C 0.09738 0.55554 0.85176 0.0
C2215 C 0.11276 0.57449 0.89587 0.0
C2216 C 0.12291 0.5891 0.90158 0.0
C2217 C 0.0945 0.54682 0.88663 0.0
C2218 C 0.10053 0.55204 0.92704 0.0
C2219 C 0.10967 0.56578 0.93116 0.0
C2220 C 0.09767 0.54323 0.9649 0.0
C2221 C 0.08518 0.53204 0.87962 0.0
C2222 C 0.08462 0.53584 0.98121 0.0
C2223 C 0.08168 0.5265 0.01409 0.0
C2224 C 0.09178 0.52452 0.03143 0.0
C2225 C 0.10495 0.53234 0.01627 0.0
C2226 C 0.10787 0.54163 0.98325 0.0
H2227 H 0.08413 0.52935 0.84483 0.0
H2228 H 0.08879 0.52603 0.89698 0.0
H2229 H 0.07513 0.52923 0.89223 0.0
H2230 H 0.07666 0.53711 0.96789 0.0
H2231 H 0.07147 0.52071 0.02546 0.0
H2232 H 0.48076 0.55854 0.00831 0.0
H2233 H 0.46415 0.54694 0.9518 0.0
H2234 H 0.44276 0.56682 0.99195 0.0
H2235 H 0.45957 0.57875 0.048 0.0
H2236 H 0.43683 0.52991 0.95578 0.0
H2237 H 0.44939 0.57623 0.86428 0.0
H2238 H 0.45977 0.57604 0.90742 0.0
H2239 H 0.44443 0.57575 0.9195 0.0
C2240 C 0.47251 0.56043 0.00515 0.0
C2241 C 0.47151 0.56963 0.03224 0.0
C2242 C 0.46301 0.55377 0.97297 0.0
C2243 C 0.45233 0.55615 0.96737 0.0
C2244 C 0.45107 0.56503 0.99522 0.0
H2245 H 0.39475 0.50559 0.7652 0.0
H2246 H 0.40212 0.51726 0.8349 0.0
C2247 C 0.46065 0.57179 0.02727 0.0
C2248 C 0.44285 0.54956 0.93133 0.0
H2249 H 0.43363 0.55583 0.83338 0.0
C2250 C 0.43594 0.53554 0.92926 0.0
C2251 C 0.44176 0.55699 0.89687 0.0
C2252 C 0.44928 0.57208 0.89673 0.0
C2253 C 0.42853 0.52875 0.89256 0.0
C2254 C 0.42784 0.53621 0.85745 0.0
C2255 C 0.43412 0.55018 0.86057 0.0
C2256 C 0.42266 0.52997 0.81484 0.0
C2257 C 0.42228 0.51374 0.89047 0.0
C2258 C 0.43164 0.5336 0.78029 0.0
C2259 C 0.42748 0.52707 0.74079 0.0
C2260 C 0.41422 0.51676 0.73493 0.0
C2261 C 0.40504 0.51347 0.76895 0.0
C2262 C 0.40924 0.52006 0.80874 0.0
H2263 H 0.42536 0.50972 0.91796 0.0
H2264 H 0.41123 0.50907 0.89122 0.0
H2265 H 0.42505 0.51073 0.8599 0.0
H2266 H 0.44203 0.54122 0.78432 0.0
H2267 H 0.43478 0.5299 0.71513 0.0
H2268 H 0.46367 0.89866 0.72609 0.0
H2269 H 0.45461 0.89719 0.79827 0.0
H2270 H 0.48591 0.89171 0.85243 0.0
H2271 H 0.49508 0.8931 0.77966 0.0
H2272 H 0.45788 0.87495 0.88903 0.0
H2273 H 0.47692 0.92954 0.88326 0.0
H2274 H 0.46754 0.92065 0.83632 0.0
H2275 H 0.4831 0.92134 0.84818 0.0
C2276 C 0.46852 0.89692 0.75322 0.0
C2277 C 0.48016 0.89613 0.74738 0.0
C2278 C 0.46334 0.89611 0.7944 0.0
C2279 C 0.46974 0.89458 0.83052 0.0
C2280 C 0.4809 0.89296 0.82478 0.0
H2281 H 0.4467 0.91579 0.07399 0.0
H2282 H 0.46077 0.91322 0.02012 0.0
C2283 C 0.48609 0.89373 0.78332 0.0
C2284 C 0.46517 0.89565 0.87403 0.0
H2285 H 0.46019 0.91711 0.93613 0.0
C2286 C 0.45856 0.88419 0.89986 0.0
C2287 C 0.46634 0.90781 0.88833 0.0
C2288 C 0.47397 0.92058 0.86281 0.0
C2289 C 0.45232 0.8844 0.93855 0.0
C2290 C 0.45253 0.8963 0.95098 0.0
C2291 C 0.45991 0.90795 0.92645 0.0
C2292 C 0.44428 0.89672 0.9869 0.0
C2293 C 0.44539 0.87182 0.9653 0.0
C2294 C 0.43035 0.8883 0.98614 0.0
C2295 C 0.42232 0.88972 0.01686 0.0
C2296 C 0.42805 0.89973 0.04858 0.0
C2297 C 0.44201 0.90801 0.04982 0.0
C2298 C 0.45006 0.90653 0.0192 0.0
H2299 H 0.45007 0.86554 0.96059 0.0
H2300 H 0.44564 0.87413 0.00019 0.0
H2301 H 0.4348 0.86586 0.95496 0.0
H2302 H 0.42563 0.88094 0.9608 0.0
H2303 H 0.41159 0.88323 0.015 0.0
H2304 H 0.18081 0.41074 0.83013 0.0
H2305 H 0.19763 0.41573 0.88582 0.0
H2306 H 0.21818 0.45729 0.84858 0.0
H2307 H 0.20116 0.45241 0.7933 0.0
H2308 H 0.22517 0.42677 0.8805 0.0
H2309 H 0.21154 0.45886 0.97723 0.0
H2310 H 0.2012 0.44842 0.93378 0.0
H2311 H 0.21632 0.46376 0.92211 0.0
C2312 C 0.18891 0.42094 0.83376 0.0
C2313 C 0.18961 0.43121 0.80772 0.0
C2314 C 0.19854 0.42377 0.86545 0.0
C2315 C 0.20906 0.4369 0.87161 0.0
C2316 C 0.21001 0.44713 0.84483 0.0
H2317 H 0.26629 0.44277 0.07346 0.0
H2318 H 0.25927 0.44788 0.00444 0.0
C2319 C 0.20031 0.44432 0.81325 0.0
C2320 C 0.21864 0.43974 0.90725 0.0
H2321 H 0.22731 0.45409 0.00702 0.0
C2322 C 0.22585 0.43293 0.90791 0.0
C2323 C 0.21948 0.4478 0.94283 0.0
C2324 C 0.21168 0.45507 0.94436 0.0
C2325 C 0.23324 0.4333 0.94435 0.0
C2326 C 0.23358 0.44087 0.98068 0.0
C2327 C 0.22707 0.44836 0.97892 0.0
C2328 C 0.23851 0.43926 0.02303 0.0
C2329 C 0.23982 0.42483 0.94486 0.0
C2330 C 0.22926 0.43316 0.05656 0.0
C2331 C 0.23322 0.43033 0.09567 0.0
C2332 C 0.24653 0.43355 0.10215 0.0
C2333 C 0.25595 0.44014 0.0692 0.0
C2334 C 0.25195 0.443 0.0298 0.0
H2335 H 0.23713 0.41823 0.91612 0.0
H2336 H 0.25083 0.43143 0.94534 0.0
H2337 H 0.2369 0.41852 0.97433 0.0
H2338 H 0.21884 0.4302 0.05198 0.0
H2339 H 0.22574 0.42531 0.1205 0.0
H2340 H 0.59153 0.7739 0.82659 0.0
H2341 H 0.58797 0.78627 0.88416 0.0
H2342 H 0.54575 0.7656 0.85594 0.0
H2343 H 0.54919 0.75299 0.79871 0.0
H2344 H 0.57678 0.80304 0.88256 0.0
H2345 H 0.54725 0.75788 0.98448 0.0
H2346 H 0.55687 0.75786 0.93863 0.0
H2347 H 0.54116 0.7572 0.93063 0.0
C2348 C 0.58149 0.77201 0.83257 0.0
C2349 C 0.57062 0.7624 0.80849 0.0
C2350 C 0.57948 0.77911 0.86532 0.0
C2351 C 0.56658 0.77673 0.87456 0.0
C2352 C 0.55575 0.76742 0.84973 0.0
H2353 H 0.5597 0.82744 0.07637 0.0
H2354 H 0.55551 0.81529 0.00761 0.0
C2355 C 0.55774 0.76027 0.81704 0.0
C2356 C 0.56456 0.78368 0.91135 0.0
H2357 H 0.55182 0.7785 0.01342 0.0
C2358 C 0.57116 0.7977 0.91099 0.0
C2359 C 0.55724 0.77663 0.94832 0.0
C2360 C 0.55029 0.76157 0.95094 0.0
C2361 C 0.57113 0.80491 0.94741 0.0
C2362 C 0.56416 0.79785 0.98481 0.0
C2363 C 0.55705 0.78383 0.98447 0.0
C2364 C 0.56578 0.80474 0.02647 0.0
C2365 C 0.57917 0.81998 0.94656 0.0
C2366 C 0.57264 0.80256 0.05986 0.0
C2367 C 0.575 0.80939 0.09879 0.0
C2368 C 0.57049 0.81852 0.10523 0.0
C2369 C 0.5633 0.82048 0.07218 0.0
C2370 C 0.56096 0.81361 0.03294 0.0
H2371 H 0.58535 0.82383 0.91689 0.0
H2372 H 0.5723 0.82407 0.94794 0.0
H2373 H 0.58586 0.82378 0.97512 0.0
H2374 H 0.57644 0.79576 0.05545 0.0
H2375 H 0.58052 0.80762 0.12367 0.0
H2376 H 0.22554 0.81652 0.81924 0.0
H2377 H 0.21359 0.7998 0.87512 0.0
H2378 H 0.23419 0.77884 0.83817 0.0
H2379 H 0.24646 0.79576 0.78272 0.0
H2380 H 0.19691 0.77221 0.87178 0.0
H2381 H 0.24317 0.78633 0.96609 0.0
H2382 H 0.24288 0.7964 0.9221 0.0
H2383 H 0.24292 0.78115 0.91124 0.0
C2384 C 0.22749 0.80833 0.82289 0.0
C2385 C 0.23703 0.80751 0.79701 0.0
C2386 C 0.22062 0.79875 0.85469 0.0
C2387 C 0.22313 0.78818 0.8611 0.0
C2388 C 0.23229 0.78706 0.83424 0.0
H2389 H 0.1733 0.73289 0.06971 0.0
H2390 H 0.18469 0.73918 -0.0007 0.0
C2391 C 0.23925 0.7967 0.80256 0.0
C2392 C 0.21655 0.77885 0.89744 0.0
H2393 H 0.22279 0.77097 0.99763 0.0
C2394 C 0.20253 0.77171 0.89904 0.0
C2395 C 0.22398 0.77825 0.93283 0.0
C2396 C 0.23907 0.78599 0.93338 0.0
C2397 C 0.19572 0.76466 0.93623 0.0
C2398 C 0.20317 0.7646 0.97236 0.0
C2399 C 0.21715 0.771 0.96968 0.0
C2400 C 0.19691 0.76016 0.01531 0.0
C2401 C 0.18069 0.75815 0.93773 0.0
C2402 C 0.20031 0.76978 0.04774 0.0
C2403 C 0.19393 0.76624 0.0876 0.0
C2404 C 0.18401 0.75298 0.09596 0.0
C2405 C 0.18088 0.7432 0.064 0.0
C2406 C 0.18732 0.74678 0.02382 0.0
H2407 H 0.17658 0.76047 0.90868 0.0
H2408 H 0.17622 0.74714 0.93977 0.0
H2409 H 0.17753 0.76148 0.96681 0.0
H2410 H 0.20768 0.78016 0.04178 0.0
H2411 H 0.19662 0.774 0.11161 0.0
H2412 H 0.38923 0.12333 0.86588 0.0
H2413 H 0.36736 0.1091 0.89937 0.0
H2414 H 0.35164 0.13108 0.8329 0.0
H2415 H 0.3733 0.14508 0.79867 0.0
H2416 H 0.35421 0.11668 0.95349 0.0
H2417 H 0.3228 0.0931 0.80978 0.0
H2418 H 0.34083 0.1018 0.80763 0.0
H2419 H 0.33201 0.11096 0.80478 0.0
C2420 C 0.38104 0.12498 0.85795 0.0
C2421 C 0.38295 0.13528 0.82956 0.0
C2422 C 0.36857 0.11686 0.87711 0.0
C2423 C 0.35781 0.11888 0.86809 0.0
C2424 C 0.35969 0.1291 0.83945 0.0
H2425 H 0.29126 0.10623 0.02036 0.0
H2426 H 0.31306 0.11362 0.98756 0.0
C2427 C 0.37211 0.13716 0.82014 0.0
C2428 C 0.34488 0.11104 0.89089 0.0
H2429 H 0.31118 0.09333 0.87423 0.0
C2430 C 0.34481 0.11139 0.93619 0.0
C2431 C 0.33262 0.10391 0.8684 0.0
C2432 C 0.33206 0.10229 0.81998 0.0
C2433 C 0.33278 0.10543 0.95948 0.0
C2434 C 0.32051 0.09925 0.93678 0.0
C2435 C 0.32059 0.09825 0.89162 0.0
C2436 C 0.30751 0.09443 0.9589 0.0
C2437 C 0.33336 0.10592 0.00815 0.0
C2438 C 0.29704 0.08126 0.95299 0.0
C2439 C 0.28449 0.07706 0.97126 0.0
C2440 C 0.2822 0.08598 0.99567 0.0
C2441 C 0.29275 0.0991 0.00201 0.0
C2442 C 0.30525 0.10331 0.98354 0.0
H2443 H 0.34278 0.10668 0.0202 0.0
H2444 H 0.3331 0.1149 0.01947 0.0
H2445 H 0.32477 0.09693 0.02259 0.0
H2446 H 0.29854 0.07428 0.93383 0.0
H2447 H 0.27653 0.06689 0.96577 0.0
H2448 H 0.92746 0.201 0.93463 0.0
H2449 H 0.91752 0.21296 0.8998 0.0
H2450 H 0.89067 0.20371 0.0077 0.0
H2451 H 0.9003 0.1914 0.04206 0.0
H2452 H 0.87755 0.19738 0.93287 0.0
H2453 H 0.92078 0.24886 0.92183 0.0
H2454 H 0.92401 0.23658 0.89818 0.0
H2455 H 0.92096 0.23616 0.95528 0.0
C2456 C 0.91958 0.20171 0.95122 0.0
C2457 C 0.91463 0.19526 0.99103 0.0
C2458 C 0.91396 0.20862 0.9314 0.0
C2459 C 0.90346 0.20938 0.95138 0.0
C2460 C 0.89879 0.20328 0.99175 0.0
H2461 H 0.86746 0.25641 0.87609 0.0
H2462 H 0.88095 0.24785 0.90887 0.0
C2463 C 0.90431 0.19626 0.01137 0.0
C2464 C 0.89658 0.21556 0.92878 0.0
H2465 H 0.90146 0.24426 0.88072 0.0
C2466 C 0.88278 0.20766 0.92165 0.0
C2467 C 0.90339 0.22899 0.91445 0.0
C2468 C 0.91808 0.23819 0.92317 0.0
C2469 C 0.87559 0.21277 0.90043 0.0
C2470 C 0.88247 0.22605 0.88475 0.0
C2471 C 0.89625 0.23402 0.8922 0.0
C2472 C 0.87535 0.23198 0.8622 0.0
C2473 C 0.86063 0.20398 0.896 0.0
C2474 C 0.86809 0.22616 0.82428 0.0
C2475 C 0.86027 0.23095 0.80572 0.0
C2476 C 0.85976 0.24176 0.82444 0.0
C2477 C 0.86763 0.24804 0.86101 0.0
C2478 C 0.87535 0.24317 0.87976 0.0
H2479 H 0.85655 0.19558 0.91945 0.0
H2480 H 0.85548 0.20981 0.90096 0.0
H2481 H 0.85824 0.19964 0.86305 0.0
H2482 H 0.86821 0.21771 0.80963 0.0
H2483 H 0.8544 0.226 0.77731 0.0
H2484 H 0.76922 0.62453 0.78414 0.0
H2485 H 0.77885 0.64676 0.81671 0.0
H2486 H 0.75091 0.63024 0.92235 0.0
H2487 H 0.74103 0.60805 0.88946 0.0
H2488 H 0.75419 0.65431 0.89436 0.0
H2489 H 0.80328 0.65775 0.92147 0.0
H2490 H 0.79802 0.65495 0.86609 0.0
H2491 H 0.78856 0.64239 0.90592 0.0
C2492 C 0.76507 0.62566 0.81414 0.0
C2493 C 0.75445 0.61455 0.83446 0.0
C2494 C 0.77062 0.63834 0.83282 0.0
C2495 C 0.76577 0.64009 0.87239 0.0
C2496 C 0.75485 0.62909 0.89192 0.0
H2497 H 0.81059 0.70743 0.04329 0.0
H2498 H 0.79755 0.68515 0.01162 0.0
C2499 C 0.74923 0.61642 0.87312 0.0
C2500 C 0.77229 0.65329 0.89407 0.0
H2501 H 0.8021 0.67731 0.93541 0.0
C2502 C 0.76466 0.65935 0.90346 0.0
C2503 C 0.78588 0.65971 0.90661 0.0
C2504 C 0.7944 0.65332 0.89993 0.0
C2505 C 0.77032 0.67178 0.92447 0.0
C2506 C 0.78404 0.67841 0.93555 0.0
C2507 C 0.79161 0.67225 0.92664 0.0
C2508 C 0.79084 0.69174 0.95651 0.0
C2509 C 0.76149 0.67754 0.93533 0.0
C2510 C 0.79131 0.70284 0.93626 0.0
C2511 C 0.79865 0.71557 0.95454 0.0
C2512 C 0.80582 0.71743 0.99303 0.0
C2513 C 0.80517 0.70629 0.01359 0.0
C2514 C 0.79774 0.69356 0.99551 0.0
H2515 H 0.75078 0.66965 0.93647 0.0
H2516 H 0.76428 0.6828 0.96689 0.0
H2517 H 0.76263 0.68484 0.91004 0.0
H2518 H 0.78634 0.70173 0.90564 0.0
H2519 H 0.79906 0.72399 0.9378 0.0
H2520 H 0.1273 0.39121 0.6148 0.0
H2521 H 0.11456 0.36901 0.58218 0.0
H2522 H 0.12543 0.35213 0.68817 0.0
H2523 H 0.13842 0.37433 0.72045 0.0
H2524 H 0.13059 0.34499 0.61059 0.0
H2525 H 0.0789 0.33642 0.61223 0.0
H2526 H 0.09076 0.35189 0.58722 0.0
H2527 H 0.09222 0.34938 0.64381 0.0
C2528 C 0.1268 0.38273 0.63146 0.0
C2529 C 0.13387 0.38449 0.67011 0.0
C2530 C 0.11945 0.37004 0.61292 0.0
C2531 C 0.11891 0.35889 0.63301 0.0
C2532 C 0.12567 0.3606 0.67222 0.0
H2533 H 0.07162 0.27515 0.56158 0.0
H2534 H 0.08049 0.29704 0.59615 0.0
C2535 C 0.13308 0.37328 0.69062 0.0
C2536 C 0.1123 0.34567 0.61147 0.0
H2537 H 0.08266 0.3214 0.56955 0.0
C2538 C 0.12009 0.3398 0.60183 0.0
C2539 C 0.09859 0.33888 0.60037 0.0
C2540 C 0.08958 0.34439 0.61179 0.0
C2541 C 0.1146 0.32741 0.58093 0.0
C2542 C 0.101 0.32083 0.56845 0.0
C2543 C 0.09313 0.32657 0.57867 0.0
C2544 C 0.09479 0.30785 0.54556 0.0
C2545 C 0.12336 0.32137 0.57305 0.0
C2546 C 0.09963 0.30677 0.50511 0.0
C2547 C 0.09465 0.29429 0.48545 0.0
C2548 C 0.08465 0.2827 0.50574 0.0
C2549 C 0.07936 0.2839 0.54527 0.0
C2550 C 0.08439 0.29639 0.56501 0.0
H2551 H 0.13234 0.32591 0.59415 0.0
H2552 H 0.11776 0.3104 0.5787 0.0
H2553 H 0.12681 0.32315 0.53901 0.0
H2554 H 0.10748 0.31554 0.48919 0.0
H2555 H 0.09884 0.29369 0.4548 0.0
H2556 H 0.72111 0.79299 0.54687 0.0
H2557 H 0.69919 0.78003 0.58102 0.0
H2558 H 0.68085 0.78805 0.47252 0.0
H2559 H 0.70278 0.80128 0.43867 0.0
H2560 H 0.6739 0.79428 0.54825 0.0
H2561 H 0.66714 0.74337 0.55852 0.0
H2562 H 0.68264 0.75601 0.58135 0.0
H2563 H 0.67964 0.75624 0.52446 0.0
C2564 C 0.71237 0.7918 0.52997 0.0
C2565 C 0.71365 0.79818 0.49018 0.0
C2566 C 0.69984 0.78431 0.54939 0.0
C2567 C 0.68836 0.78294 0.52909 0.0
C2568 C 0.68958 0.78894 0.48867 0.0
H2569 H 0.60562 0.73539 0.6121 0.0
H2570 H 0.62714 0.74384 0.57532 0.0
C2571 C 0.7021 0.79649 0.46937 0.0
C2572 C 0.67531 0.77641 0.55174 0.0
H2573 H 0.65223 0.74747 0.60075 0.0
C2574 C 0.66913 0.78401 0.55946 0.0
C2575 C 0.66905 0.76298 0.56608 0.0
C2576 C 0.67488 0.75412 0.55684 0.0
C2577 C 0.65696 0.77866 0.58166 0.0
C2578 C 0.65096 0.76542 0.59749 0.0
C2579 C 0.65697 0.75769 0.58909 0.0
C2580 C 0.63828 0.75943 0.62211 0.0
C2581 C 0.65056 0.78718 0.58744 0.0
C2582 C 0.63754 0.76513 0.66126 0.0
C2583 C 0.62528 0.76039 0.68216 0.0
C2584 C 0.61358 0.74977 0.66445 0.0
C2585 C 0.61447 0.74361 0.62642 0.0
C2586 C 0.62674 0.74842 0.60541 0.0
H2587 H 0.65456 0.79562 0.56412 0.0
H2588 H 0.63955 0.78116 0.58335 0.0
H2589 H 0.65267 0.79146 0.62049 0.0
H2590 H 0.6464 0.77348 0.67509 0.0
H2591 H 0.62492 0.76525 0.71162 0.0
H2592 H 0.2009 0.9263 0.5576 0.0
H2593 H 0.214 0.91717 0.58956 0.0
H2594 H 0.20865 0.89416 0.47403 0.0
H2595 H 0.19527 0.903 0.4423 0.0
H2596 H 0.20209 0.87898 0.54547 0.0
H2597 H 0.25161 0.92432 0.56874 0.0
H2598 H 0.23819 0.92574 0.59232 0.0
H2599 H 0.23885 0.92416 0.53472 0.0
C2600 C 0.20269 0.91946 0.53877 0.0
C2601 C 0.19704 0.91533 0.49751 0.0
C2602 C 0.21026 0.91432 0.55696 0.0
C2603 C 0.21245 0.90512 0.53396 0.0
C2604 C 0.20712 0.90129 0.49226 0.0
H2605 H 0.26263 0.87218 0.61073 0.0
H2606 H 0.25347 0.88492 0.57593 0.0
C2607 C 0.19949 0.90635 0.47418 0.0
C2608 C 0.21923 0.89857 0.55473 0.0
H2609 H 0.24791 0.90459 0.60586 0.0
C2610 C 0.21215 0.88458 0.55839 0.0
C2611 C 0.2324 0.90588 0.57123 0.0
C2612 C 0.24076 0.92084 0.56622 0.0
C2613 C 0.21775 0.87771 0.57877 0.0
C2614 C 0.23068 0.88505 0.5969 0.0
C2615 C 0.23792 0.89901 0.59245 0.0
C2616 C 0.23685 0.87831 0.62015 0.0
C2617 C 0.20981 0.86263 0.5802 0.0
C2618 C 0.23075 0.87071 0.65725 0.0
C2619 C 0.2359 0.86339 0.677 0.0
C2620 C 0.24732 0.86365 0.66024 0.0
C2621 C 0.25378 0.87176 0.62428 0.0
C2622 C 0.24858 0.87904 0.6044 0.0
H2623 H 0.20183 0.85849 0.55526 0.0
H2624 H 0.21639 0.85829 0.57534 0.0
H2625 H 0.20496 0.85938 0.61227 0.0
H2626 H 0.22184 0.87024 0.67042 0.0
H2627 H 0.23077 0.85731 0.70489 0.0
H2628 H 0.72594 0.93219 0.04752 0.0
H2629 H 0.70473 0.9239 0.08606 0.0
H2630 H 0.68417 0.89583 0.98322 0.0
H2631 H 0.70534 0.9039 0.94484 0.0
H2632 H 0.6795 0.92108 0.06472 0.0
H2633 H 0.67677 0.87222 0.09076 0.0
H2634 H 0.69173 0.88683 0.07204 0.0
H2635 H 0.67829 0.87715 0.03513 0.0
C2636 C 0.71687 0.92437 0.03286 0.0
C2637 C 0.7173 0.91857 0.99344 0.0
C2638 C 0.70477 0.91967 0.05488 0.0
C2639 C 0.69296 0.9091 0.03782 0.0
C2640 C 0.69324 0.90383 0.99726 0.0
H2641 H 0.61093 0.87518 0.12133 0.0
H2642 H 0.63266 0.88868 0.0866 0.0
C2643 C 0.70533 0.90848 0.97533 0.0
C2644 C 0.68051 0.90297 0.06365 0.0
H2645 H 0.6578 0.87367 0.11121 0.0
C2646 C 0.67475 0.91073 0.07506 0.0
C2647 C 0.67452 0.88956 0.07778 0.0
C2648 C 0.68069 0.88097 0.06871 0.0
C2649 C 0.6629 0.90529 0.09941 0.0
C2650 C 0.65663 0.89171 0.11205 0.0
C2651 C 0.66258 0.88407 0.10134 0.0
C2652 C 0.64376 0.885 0.13571 0.0
C2653 C 0.65732 0.91415 0.11182 0.0
C2654 C 0.64276 0.87842 0.17482 0.0
C2655 C 0.63034 0.87056 0.19443 0.0
C2656 C 0.61868 0.86914 0.17524 0.0
C2657 C 0.61975 0.87615 0.13698 0.0
C2658 C 0.63218 0.88395 0.11724 0.0
H2659 H 0.66515 0.92489 0.11104 0.0
H2660 H 0.6494 0.91266 0.08848 0.0
H2661 H 0.65283 0.91168 0.14459 0.0
H2662 H 0.65157 0.87906 0.18954 0.0
H2663 H 0.62982 0.86528 0.22393 0.0
H2664 H 0.12941 0.74225 0.11286 0.0
H2665 H 0.11677 0.75147 0.07802 0.0
H2666 H 0.12842 0.7808 0.17948 0.0
H2667 H 0.14135 0.77185 0.21391 0.0
H2668 H 0.09605 0.75509 0.10391 0.0
H2669 H 0.1416 0.80385 0.07171 0.0
H2670 H 0.14231 0.78938 0.08971 0.0
H2671 H 0.13932 0.79935 0.12779 0.0
C2672 C 0.12919 0.75059 0.12792 0.0
C2673 C 0.13648 0.75643 0.16584 0.0
C2674 C 0.12196 0.75584 0.10799 0.0
C2675 C 0.1219 0.76699 0.12568 0.0
C2676 C 0.12862 0.7724 0.16473 0.0
H2677 H 0.07073 0.79903 0.05611 0.0
H2678 H 0.08071 0.7869 0.08939 0.0
C2679 C 0.13593 0.76723 0.18449 0.0
C2680 C 0.11516 0.77322 0.10258 0.0
H2681 H 0.12079 0.80257 0.05778 0.0
C2682 C 0.10145 0.76546 0.09366 0.0
C2683 C 0.12229 0.78667 0.08848 0.0
C2684 C 0.13721 0.79527 0.09448 0.0
C2685 C 0.0946 0.77088 0.0718 0.0
C2686 C 0.10162 0.78449 0.05938 0.0
C2687 C 0.11539 0.79216 0.06762 0.0
C2688 C 0.09497 0.79109 0.03798 0.0
C2689 C 0.07997 0.7619 0.0616 0.0
C2690 C 0.09982 0.79769 -0.00162 0.0
C2691 C 0.09427 0.8048 0.97963 0.0
C2692 C 0.08375 0.80542 0.00013 0.0
C2693 C 0.07875 0.79863 0.0394 0.0
C2694 C 0.08438 0.79161 0.05832 0.0
H2695 H 0.0772 0.7512 0.06124 0.0
H2696 H 0.07388 0.76317 0.08683 0.0
H2697 H 0.07737 0.76445 0.02985 0.0
H2698 H 0.10802 0.79747 0.98222 0.0
H2699 H 0.09832 0.80994 0.94936 0.0
H2700 H 0.25795 0.38972 0.11049 0.0
H2701 H 0.24879 0.36811 0.07382 0.0
H2702 H 0.21942 0.34959 0.17473 0.0
H2703 H 0.22831 0.3712 0.21103 0.0
H2704 H 0.24531 0.34363 0.09809 0.0
H2705 H 0.19647 0.34023 0.06666 0.0
H2706 H 0.21089 0.35538 0.08529 0.0
H2707 H 0.20089 0.34223 0.1228 0.0
C2708 C 0.2496 0.38102 0.125 0.0
C2709 C 0.24375 0.38216 0.16339 0.0
C2710 C 0.24438 0.36869 0.10403 0.0
C2711 C 0.23326 0.35732 0.1211 0.0
C2712 C 0.2278 0.35832 0.16047 0.0
H2713 H 0.20137 0.27427 0.05235 0.0
H2714 H 0.21376 0.29657 0.08427 0.0
C2715 C 0.23294 0.37065 0.1813 0.0
C2716 C 0.22713 0.34449 0.0972 0.0
H2717 H 0.1978 0.32071 0.05239 0.0
C2718 C 0.23495 0.33863 0.08788 0.0
C2719 C 0.21368 0.33814 0.08313 0.0
C2720 C 0.20502 0.34437 0.08955 0.0
C2721 C 0.22956 0.32638 0.06584 0.0
C2722 C 0.21592 0.31972 0.05363 0.0
C2723 C 0.20822 0.32577 0.06207 0.0
C2724 C 0.2093 0.30639 0.03269 0.0
C2725 C 0.23857 0.3208 0.05537 0.0
C2726 C 0.2025 0.30443 0.9934 0.0
C2727 C 0.19525 0.29166 0.97542 0.0
C2728 C 0.19468 0.28061 0.99641 0.0
C2729 C 0.20172 0.28262 0.03527 0.0
C2730 C 0.20888 0.29538 0.0534 0.0
H2731 H 0.24924 0.3288 0.05454 0.0
H2732 H 0.23746 0.31354 0.08073 0.0
H2733 H 0.23593 0.31556 0.02378 0.0
H2734 H 0.20264 0.31278 0.97698 0.0
H2735 H 0.18991 0.29041 0.94545 0.0
H2736 H 0.86353 0.60461 0.39293 0.0
H2737 H 0.87569 0.62689 0.42526 0.0
H2738 H 0.86611 0.64336 0.31508 0.0
H2739 H 0.85365 0.62104 0.28299 0.0
H2740 H 0.89711 0.65061 0.39819 0.0
H2741 H 0.8518 0.65525 0.41525 0.0
H2742 H 0.85097 0.63966 0.40175 0.0
H2743 H 0.85492 0.65216 0.36089 0.0
C2744 C 0.86407 0.61299 0.37549 0.0
C2745 C 0.85754 0.61108 0.33563 0.0
C2746 C 0.87103 0.62571 0.39397 0.0
C2747 C 0.87159 0.63673 0.37294 0.0
C2748 C 0.86554 0.63494 0.3323 0.0
H2749 H 0.9228 0.72056 0.43972 0.0
H2750 H 0.91319 0.69831 0.40739 0.0
C2751 C 0.85849 0.6222 0.31391 0.0
C2752 C 0.87822 0.65001 0.39412 0.0
H2753 H 0.87254 0.67453 0.43138 0.0
C2754 C 0.89176 0.65585 0.40554 0.0
C2755 C 0.87113 0.6567 0.40434 0.0
C2756 C 0.85637 0.65059 0.39534 0.0
C2757 C 0.89846 0.6683 0.42644 0.0
C2758 C 0.89148 0.67519 0.43533 0.0
C2759 C 0.87791 0.66927 0.42429 0.0
C2760 C 0.89794 0.68851 0.45633 0.0
C2761 C 0.91284 0.67381 0.4396 0.0
C2762 C 0.89247 0.69044 0.49426 0.0
C2763 C 0.89782 0.70316 0.51243 0.0
C2764 C 0.90877 0.7142 0.49302 0.0
C2765 C 0.91443 0.71222 0.45558 0.0
C2766 C 0.909 0.6995 0.4372 0.0
H2767 H 0.91546 0.66579 0.44196 0.0
H2768 H 0.91945 0.68108 0.41491 0.0
H2769 H 0.91494 0.67905 0.47114 0.0
H2770 H 0.88391 0.68211 0.50949 0.0
H2771 H 0.89325 0.70439 0.5413 0.0
H2772 H 0.29077 0.18795 0.54339 0.0
H2773 H 0.31284 0.20173 0.51099 0.0
H2774 H 0.29511 0.2128 0.4081 0.0
H2775 H 0.27307 0.19934 0.44102 0.0
H2776 H 0.32056 0.19792 0.43385 0.0
H2777 H 0.32675 0.24864 0.43873 0.0
H2778 H 0.31398 0.23482 0.46918 0.0
H2779 H 0.31154 0.23665 0.41276 0.0
C2780 C 0.29161 0.19349 0.51424 0.0
C2781 C 0.28022 0.19259 0.49474 0.0
C2782 C 0.30422 0.20136 0.49575 0.0
C2783 C 0.30566 0.20844 0.4574 0.0
C2784 C 0.2943 0.20771 0.43825 0.0
H2785 H 0.371 0.23128 0.2773 0.0
H2786 H 0.34916 0.22168 0.31244 0.0
C2787 C 0.2817 0.19994 0.45694 0.0
C2788 C 0.31885 0.21564 0.43567 0.0
H2789 H 0.34197 0.24583 0.39358 0.0
C2790 C 0.32527 0.20842 0.42531 0.0
C2791 C 0.32506 0.22937 0.4249 0.0
C2792 C 0.31904 0.23786 0.43735 0.0
C2793 C 0.33762 0.21447 0.40396 0.0
C2794 C 0.34355 0.22804 0.39152 0.0
C2795 C 0.33728 0.23536 0.40256 0.0
C2796 C 0.35642 0.23482 0.36792 0.0
C2797 C 0.34429 0.2063 0.39564 0.0
C2798 C 0.3676 0.24583 0.38639 0.0
C2799 C 0.38006 0.25145 0.36609 0.0
C2800 C 0.38153 0.24612 0.32702 0.0
C2801 C 0.37019 0.23551 0.30759 0.0
C2802 C 0.35773 0.22997 0.32774 0.0
H2803 H 0.34036 0.19746 0.41727 0.0
H2804 H 0.34232 0.20262 0.36184 0.0
H2805 H 0.35528 0.2124 0.40022 0.0
H2806 H 0.36678 0.24977 0.41726 0.0
H2807 H 0.38862 0.25964 0.38177 0.0
H2808 H 0.79594 0.07281 0.45188 0.0
H2809 H 0.78226 0.08149 0.42092 0.0
H2810 H 0.80277 0.11675 0.50036 0.0
H2811 H 0.81638 0.10811 0.5317 0.0
H2812 H 0.77446 0.10543 0.49699 0.0
H2813 H 0.79747 0.11298 0.33412 0.0
H2814 H 0.79053 0.09644 0.35624 0.0
H2815 H 0.80477 0.11014 0.38159 0.0
C2816 C 0.79746 0.08236 0.46295 0.0
C2817 C 0.80728 0.08983 0.494 0.0
C2818 C 0.78969 0.08733 0.44511 0.0
C2819 C 0.79166 0.09983 0.45796 0.0
C2820 C 0.80115 0.10709 0.48994 0.0
H2821 H 0.77343 0.15566 0.3381 0.0
H2822 H 0.78341 0.14322 0.36922 0.0
C2823 C 0.80892 0.10215 0.50774 0.0
C2824 C 0.78412 0.10561 0.4374 0.0
H2825 H 0.78042 0.11835 0.34234 0.0
C2826 C 0.77567 0.10818 0.46312 0.0
C2827 C 0.78587 0.10929 0.39333 0.0
C2828 C 0.79522 0.10719 0.36464 0.0
C2829 C 0.76897 0.11446 0.44596 0.0
C2830 C 0.7707 0.11812 0.40186 0.0
C2831 C 0.77906 0.11544 0.37607 0.0
C2832 C 0.76449 0.1254 0.3824 0.0
C2833 C 0.76045 0.11753 0.47541 0.0
C2834 C 0.75055 0.1194 0.37902 0.0
C2835 C 0.74482 0.12649 0.36124 0.0
C2836 C 0.75295 0.13966 0.34646 0.0
C2837 C 0.76691 0.14554 0.3493 0.0
C2838 C 0.77263 0.13845 0.367 0.0
H2839 H 0.76232 0.11652 0.51001 0.0
H2840 H 0.76234 0.12782 0.46972 0.0
H2841 H 0.74974 0.11046 0.46855 0.0
H2842 H 0.74412 0.10925 0.39012 0.0
H2843 H 0.73403 0.12168 0.35931 0.0
H2844 H 0.95288 0.43198 0.37941 0.0
H2845 H 0.97487 0.44149 0.34524 0.0
H2846 H 0.95843 0.41064 0.24801 0.0
H2847 H 0.93647 0.4009 0.28256 0.0
H2848 H 0.98341 0.41606 0.27634 0.0
H2849 H 0.98353 0.46272 0.23322 0.0
H2850 H 0.98138 0.45904 0.28992 0.0
H2851 H 0.96877 0.44799 0.25248 0.0
C2852 C 0.95398 0.42716 0.35098 0.0
C2853 C 0.94295 0.41577 0.33342 0.0
C2854 C 0.96652 0.43264 0.33137 0.0
C2855 C 0.9682 0.42693 0.29359 0.0
C2856 C 0.95732 0.41524 0.27701 0.0
H2857 H 0.03424 0.47041 0.11623 0.0
H2858 H 0.01211 0.45692 0.14853 0.0
C2859 C 0.94479 0.4097 0.29676 0.0
C2860 C 0.98117 0.43341 0.27054 0.0
H2861 H 0.00374 0.46256 0.22176 0.0
C2862 C 0.98786 0.42621 0.26424 0.0
C2863 C 0.98681 0.44656 0.25406 0.0
C2864 C 0.9797 0.4545 0.25732 0.0
C2865 C 0.0002 0.43192 0.24266 0.0
C2866 C 0.00609 0.44527 0.22779 0.0
C2867 C -0.00074 0.45236 0.23343 0.0
C2868 C 0.01937 0.45222 0.20655 0.0
C2869 C 0.00668 0.42354 0.23542 0.0
C2870 C 0.03079 0.45395 0.22824 0.0
C2871 C 0.04344 0.46155 0.20965 0.0
C2872 C 0.04489 0.46772 0.16935 0.0
C2873 C 0.03343 0.46578 0.14734 0.0
C2874 C 0.02078 0.45809 0.16576 0.0
H2875 H -0.00076 0.41269 0.2367 0.0
H2876 H 0.01188 0.42583 0.20378 0.0
H2877 H 0.01416 0.42572 0.26122 0.0
H2878 H 0.02999 0.4498 0.26017 0.0
H2879 H 0.05211 0.46296 0.22751 0.0
H2880 H 0.53426 0.59237 0.2242 0.0
H2881 H 0.54711 0.58301 0.25671 0.0
H2882 H 0.53451 0.55383 0.15444 0.0
H2883 H 0.52142 0.56293 0.12235 0.0
H2884 H 0.53069 0.54254 0.23368 0.0
H2885 H 0.58222 0.58577 0.221 0.0
H2886 H 0.57073 0.58956 0.2477 0.0
H2887 H 0.56833 0.58492 0.19162 0.0
C2888 C 0.53438 0.58407 0.20837 0.0
C2889 C 0.52684 0.57837 0.17074 0.0
C2890 C 0.54178 0.57878 0.22685 0.0
C2891 C 0.54189 0.56782 0.20771 0.0
C2892 C 0.53458 0.56231 0.16967 0.0
H2893 H 0.59177 0.53363 0.26471 0.0
H2894 H 0.58132 0.54572 0.23433 0.0
C2895 C 0.52713 0.56753 0.15134 0.0
C2896 C 0.54889 0.56151 0.22866 0.0
H2897 H 0.57941 0.56737 0.26343 0.0
C2898 C 0.54135 0.54797 0.2401 0.0
C2899 C 0.56281 0.56858 0.23669 0.0
C2900 C 0.57154 0.58298 0.22327 0.0
C2901 C 0.54732 0.54128 0.25944 0.0
C2902 C 0.56118 0.54843 0.26852 0.0
C2903 C 0.56876 0.56196 0.25689 0.0
C2904 C 0.56805 0.54185 0.2885 0.0
C2905 C 0.53879 0.52654 0.26895 0.0
C2906 C 0.56426 0.53593 0.32948 0.0
C2907 C 0.57014 0.52893 0.34679 0.0
C2908 C 0.58002 0.52787 0.32358 0.0
C2909 C 0.58415 0.53424 0.28329 0.0
C2910 C 0.57822 0.54117 0.26592 0.0
H2911 H 0.52932 0.5219 0.25023 0.0
H2912 H 0.54424 0.52114 0.26143 0.0
H2913 H 0.53618 0.52515 0.30377 0.0
H2914 H 0.55663 0.53658 0.34783 0.0
H2915 H 0.56683 0.52421 0.37807 0.0
H2916 H 0.40572 0.93908 0.23249 0.0
H2917 H 0.41537 0.96193 0.25959 0.0
H2918 H 0.44141 0.97657 0.14875 0.0
H2919 H 0.432 0.95366 0.12191 0.0
H2920 H 0.45482 0.98653 0.22323 0.0
H2921 H 0.41014 0.99246 0.2208 0.0
H2922 H 0.40744 0.97794 0.25021 0.0
H2923 H 0.4107 0.979 0.19311 0.0
C2924 C 0.41341 0.94718 0.21367 0.0
C2925 C 0.41811 0.9446 0.17508 0.0
C2926 C 0.41884 0.96025 0.22903 0.0
C2927 C 0.42894 0.97098 0.20582 0.0
C2928 C 0.43355 0.96844 0.16702 0.0
H2929 H 0.46169 0.05548 0.2672 0.0
H2930 H 0.44977 0.03334 0.23342 0.0
C2931 C 0.42818 0.95536 0.15175 0.0
C2932 C 0.43535 0.98474 0.22353 0.0
H2933 H 0.42889 0.00868 0.26161 0.0
C2934 C 0.44916 0.99141 0.23128 0.0
C2935 C 0.42798 0.99116 0.23353 0.0
C2936 C 0.41327 0.98483 0.22359 0.0
C2937 C 0.45577 0.00419 0.24982 0.0
C2938 C 0.44829 0.01033 0.26184 0.0
C2939 C 0.43455 0.00385 0.25295 0.0
C2940 C 0.45464 0.02349 0.28373 0.0
C2941 C 0.47072 0.01104 0.25603 0.0
C2942 C 0.46096 0.02517 0.32378 0.0
C2943 C 0.46781 0.03778 0.34299 0.0
C2944 C 0.46833 0.0489 0.3227 0.0
C2945 C 0.46148 0.04709 0.28353 0.0
C2946 C 0.45467 0.03447 0.26421 0.0
H2947 H 0.47533 0.00675 0.23462 0.0
H2948 H 0.47549 0.02193 0.24952 0.0
H2949 H 0.47291 0.00968 0.28992 0.0
H2950 H 0.46079 0.01676 0.33984 0.0
H2951 H 0.4729 0.03885 0.37336 0.0
H2952 H 0.56993 0.03922 0.88627 0.0
H2953 H 0.56052 0.01678 0.85569 0.0
H2954 H 0.58355 0.03349 0.73953 0.0
H2955 H 0.59326 0.05593 0.77041 0.0
H2956 H 0.54516 0.00839 0.78501 0.0
H2957 H 0.58923 0.00214 0.76058 0.0
H2958 H 0.58975 0.01517 0.79418 0.0
H2959 H 0.59116 0.01713 0.73646 0.0
C2960 C 0.57318 0.03808 0.85455 0.0
C2961 C 0.58231 0.04931 0.83069 0.0
C2962 C 0.5678 0.02527 0.83711 0.0
C2963 C 0.57143 0.02344 0.79549 0.0
C2964 C 0.58084 0.03462 0.77207 0.0
H2965 H 0.52093 0.95683 0.62869 0.0
H2966 H 0.53466 0.97888 0.6614 0.0
C2967 C 0.58631 0.04744 0.78965 0.0
C2968 C 0.56439 0.01003 0.77514 0.0
H2969 H 0.56911 0.98647 0.72435 0.0
C2970 C 0.5504 0.00356 0.77203 0.0
C2971 C 0.57122 0.0037 0.75852 0.0
C2972 C 0.58616 0.00983 0.76294 0.0
C2973 C 0.54307 0.99104 0.75219 0.0
C2974 C 0.54994 0.98495 0.73398 0.0
C2975 C 0.5639 0.99127 0.73779 0.0
C2976 C 0.54269 0.9719 0.71163 0.0
C2977 C 0.52801 0.98435 0.75152 0.0
C2978 C 0.54313 0.9608 0.72792 0.0
C2979 C 0.53539 0.94822 0.70906 0.0
C2980 C 0.52712 0.94655 0.67357 0.0
C2981 C 0.52713 0.95779 0.65623 0.0
C2982 C 0.53491 0.97038 0.67498 0.0
H2983 H 0.52424 0.98856 0.77642 0.0
H2984 H 0.52473 0.98593 0.71949 0.0
H2985 H 0.52334 0.97341 0.75698 0.0
H2986 H 0.54913 0.96179 0.75606 0.0
H2987 H 0.53562 0.93974 0.72303 0.0
H2988 H 0.0609 0.59832 0.72298 0.0
H2989 H 0.03895 0.58855 0.75767 0.0
H2990 H 0.02324 0.556 0.66639 0.0
H2991 H 0.04522 0.56554 0.63213 0.0
H2992 H 0.01399 0.58219 0.72716 0.0
H2993 H 0.01446 0.53675 0.7821 0.0
H2994 H 0.02916 0.55124 0.76134 0.0
H2995 H 0.01674 0.53942 0.72492 0.0
C2996 C 0.05275 0.58911 0.7102 0.0
C2997 C 0.05478 0.58262 0.67511 0.0
C2998 C 0.04022 0.58356 0.73003 0.0
C2999 C 0.02955 0.57143 0.7151 0.0
C3000 C 0.03144 0.5652 0.67903 0.0
H3001 H 0.94523 0.5352 0.7733 0.0
H3002 H 0.9676 0.54817 0.74222 0.0
C3003 C 0.04397 0.57071 0.65935 0.0
C3004 C 0.01651 0.56515 0.73773 0.0
H3005 H 0.99394 0.53662 0.78951 0.0
C3006 C 0.00961 0.57225 0.741 0.0
C3007 C 0.01095 0.5523 0.75647 0.0
C3008 C 0.01826 0.54452 0.75649 0.0
C3009 C 0.99713 0.56669 0.76162 0.0
C3010 C 0.99131 0.55358 0.77863 0.0
C3011 C 0.99836 0.54663 0.77617 0.0
C3012 C 0.97786 0.54674 0.7987 0.0
C3013 C 0.9904 0.57496 0.76547 0.0
C3014 C 0.97615 0.5415 0.8406 0.0
C3015 C 0.96337 0.53393 0.85819 0.0
C3016 C 0.95205 0.53148 0.83418 0.0
C3017 C 0.95378 0.53702 0.79268 0.0
C3018 C 0.96657 0.54451 0.77497 0.0
H3019 H 0.99774 0.58582 0.76304 0.0
H3020 H 0.98311 0.57232 0.73876 0.0
H3021 H 0.98495 0.57303 0.79655 0.0
H3022 H 0.98472 0.54306 0.85941 0.0
H3023 H 0.96234 0.52978 0.89025 0.0
H3024 H 0.40344 0.46206 0.7241 0.0
H3025 H 0.4132 0.45 0.75962 0.0
H3026 H 0.44164 0.46082 0.65573 0.0
H3027 H 0.43212 0.47313 0.62051 0.0
H3028 H 0.41718 0.42911 0.73444 0.0
H3029 H 0.46539 0.47575 0.76227 0.0
H3030 H 0.4505 0.47582 0.74514 0.0
H3031 H 0.46046 0.47297 0.70658 0.0
C3032 C 0.41169 0.46176 0.70865 0.0
C3033 C 0.41712 0.46865 0.66978 0.0
C3034 C 0.41725 0.45487 0.72896 0.0
C3035 C 0.42831 0.45476 0.71072 0.0
C3036 C 0.4333 0.46106 0.67081 0.0
H3037 H 0.46373 0.40661 0.77669 0.0
H3038 H 0.45026 0.41547 0.74595 0.0
C3039 C 0.42781 0.46801 0.65063 0.0
C3040 C 0.43495 0.44852 0.73415 0.0
H3041 H 0.46491 0.45535 0.77704 0.0
C3042 C 0.4276 0.43484 0.74397 0.0
C3043 C 0.44846 0.45608 0.74731 0.0
C3044 C 0.45664 0.471 0.74021 0.0
C3045 C 0.43351 0.42842 0.76563 0.0
C3046 C 0.4472 0.43588 0.77698 0.0
C3047 C 0.45444 0.44963 0.76804 0.0
C3048 C 0.45437 0.42968 0.79748 0.0
C3049 C 0.42502 0.41379 0.77659 0.0
C3050 C 0.4613 0.43483 0.83639 0.0
C3051 C 0.46917 0.42992 0.8537 0.0
C3052 C 0.47023 0.41976 0.83238 0.0
C3053 C 0.46303 0.41438 0.79399 0.0
C3054 C 0.45524 0.41937 0.77653 0.0
H3055 H 0.41424 0.41068 0.77792 0.0
H3056 H 0.42631 0.40775 0.75123 0.0
H3057 H 0.42798 0.41146 0.80808 0.0
H3058 H 0.46082 0.44284 0.85297 0.0
H3059 H 0.47461 0.43425 0.88334 0.0
loop_
_geom_bond_atom_site_label_1
_geom_bond_atom_site_label_2
_geom_bond_distance
_geom_bond_site_symmetry_2
_ccdc_geom_bond_type
In0 O1 2.294 . S
In0 O2 2.326 . S
In0 O6 2.266 . S
In0 O7 2.326 . S
In0 O8 2.266 . S
In0 O9 2.326 . S
In0 O11 2.294 . S
In0 O12 2.326 . S
O1 In0 2.294 . S
O1 C10 1.240 . S
O2 In0 2.326 . S
O2 C10 1.252 . S
C3 O6 1.252 . S
C3 O7 1.260 . S
C4 O11 1.240 . S
C4 O12 1.252 . S
C5 O8 1.252 . S
C5 O9 1.260 . S
O6 In0 2.266 . S
O6 C3 1.252 . S
O7 In0 2.326 . S
O7 C3 1.260 . S
O8 In0 2.266 . S
O8 C5 1.252 . S
O9 In0 2.326 . S
O9 C5 1.260 . S
C10 O1 1.240 . S
C10 O2 1.252 . S
O11 In0 2.294 . S
O11 C4 1.240 . S
O12 In0 2.326 . S
O12 C4 1.252 . S
In13 O14 2.294 . S
In13 O15 2.326 . S
In13 O19 2.266 . S
In13 O20 2.326 . S
In13 O21 2.266 . S
In13 O22 2.326 . S
In13 O24 2.294 . S
In13 O25 2.326 . S
O14 In13 2.294 . S
O14 C23 1.240 . S
O15 In13 2.326 . S
O15 C23 1.252 . S
C16 O19 1.252 . S
C16 O20 1.260 . S
C17 O24 1.240 . S
C17 O25 1.252 . S
C18 O21 1.252 . S
C18 O22 1.260 . S
O19 In13 2.266 . S
O19 C16 1.252 . S
O20 In13 2.326 . S
O20 C16 1.260 . S
O21 In13 2.266 . S
O21 C18 1.252 . S
O22 In13 2.326 . S
O22 C18 1.260 . S
C23 O14 1.240 . S
C23 O15 1.252 . S
O24 In13 2.294 . S
O24 C17 1.240 . S
O25 In13 2.326 . S
O25 C17 1.252 . S
In26 O27 2.294 . S
In26 O28 2.326 . S
In26 O32 2.266 . S
In26 O33 2.326 . S
In26 O34 2.266 . S
In26 O35 2.326 . S
In26 O37 2.294 . S
In26 O38 2.326 . S
O27 In26 2.294 . S
O27 C36 1.240 . S
O28 In26 2.326 . S
O28 C36 1.252 . S
C29 O32 1.252 . S
C29 O33 1.260 . S
C30 O37 1.240 . S
C30 O38 1.252 . S
C31 O34 1.252 . S
C31 O35 1.260 . S
O32 In26 2.266 . S
O32 C29 1.252 . S
O33 In26 2.326 . S
O33 C29 1.260 . S
O34 In26 2.266 . S
O34 C31 1.252 . S
O35 In26 2.326 . S
O35 C31 1.260 . S
C36 O27 1.240 . S
C36 O28 1.252 . S
O37 In26 2.294 . S
O37 C30 1.240 . S
O38 In26 2.326 . S
O38 C30 1.252 . S
In39 O40 2.294 . S
In39 O41 2.326 . S
In39 O45 2.266 . S
In39 O46 2.326 . S
In39 O47 2.266 . S
In39 O48 2.326 . S
In39 O50 2.294 . S
In39 O51 2.326 . S
O40 In39 2.294 . S
O40 C49 1.240 . S
O41 In39 2.326 . S
O41 C49 1.252 . S
C42 O45 1.252 . S
C42 O46 1.260 . S
C43 O50 1.240 . S
C43 O51 1.252 . S
C44 O47 1.252 . S
C44 O48 1.260 . S
O45 In39 2.266 . S
O45 C42 1.252 . S
O46 In39 2.326 . S
O46 C42 1.260 . S
O47 In39 2.266 . S
O47 C44 1.252 . S
O48 In39 2.326 . S
O48 C44 1.260 . S
C49 O40 1.240 . S
C49 O41 1.252 . S
O50 In39 2.294 . S
O50 C43 1.240 . S
O51 In39 2.326 . S
O51 C43 1.252 . S
In52 O53 2.294 . S
In52 O54 2.326 . S
In52 O58 2.266 . S
In52 O59 2.326 . S
In52 O60 2.266 . S
In52 O61 2.326 . S
In52 O63 2.294 . S
In52 O64 2.326 . S
O53 In52 2.294 . S
O53 C62 1.240 . S
O54 In52 2.326 . S
O54 C62 1.252 . S
C55 O58 1.252 . S
C55 O59 1.260 . S
C56 O63 1.240 . S
C56 O64 1.252 . S
C57 O60 1.252 . S
C57 O61 1.260 . S
O58 In52 2.266 . S
O58 C55 1.252 . S
O59 In52 2.326 . S
O59 C55 1.260 . S
O60 In52 2.266 . S
O60 C57 1.252 . S
O61 In52 2.326 . S
O61 C57 1.260 . S
C62 O53 1.240 . S
C62 O54 1.252 . S
O63 In52 2.294 . S
O63 C56 1.240 . S
O64 In52 2.326 . S
O64 C56 1.252 . S
In65 O66 2.294 . S
In65 O67 2.326 . S
In65 O71 2.266 . S
In65 O72 2.326 . S
In65 O73 2.266 . S
In65 O74 2.326 . S
In65 O76 2.294 . S
In65 O77 2.326 . S
O66 In65 2.294 . S
O66 C75 1.240 . S
O67 In65 2.326 . S
O67 C75 1.252 . S
C68 O71 1.252 . S
C68 O72 1.260 . S
C69 O76 1.240 . S
C69 O77 1.252 . S
C70 O73 1.252 . S
C70 O74 1.260 . S
O71 In65 2.266 . S
O71 C68 1.252 . S
O72 In65 2.326 . S
O72 C68 1.260 . S
O73 In65 2.266 . S
O73 C70 1.252 . S
O74 In65 2.326 . S
O74 C70 1.260 . S
C75 O66 1.240 . S
C75 O67 1.252 . S
O76 In65 2.294 . S
O76 C69 1.240 . S
O77 In65 2.326 . S
O77 C69 1.252 . S
In78 O79 2.294 . S
In78 O80 2.326 . S
In78 O84 2.266 . S
In78 O85 2.326 . S
In78 O86 2.266 . S
In78 O87 2.326 . S
In78 O89 2.294 . S
In78 O90 2.326 . S
O79 In78 2.294 . S
O79 C88 1.240 . S
O80 In78 2.326 . S
O80 C88 1.252 . S
C81 O84 1.252 . S
C81 O85 1.260 . S
C82 O89 1.240 . S
C82 O90 1.252 . S
C83 O86 1.252 . S
C83 O87 1.260 . S
O84 In78 2.266 . S
O84 C81 1.252 . S
O85 In78 2.326 . S
O85 C81 1.260 . S
O86 In78 2.266 . S
O86 C83 1.252 . S
O87 In78 2.326 . S
O87 C83 1.260 . S
C88 O79 1.240 . S
C88 O80 1.252 . S
O89 In78 2.294 . S
O89 C82 1.240 . S
O90 In78 2.326 . S
O90 C82 1.252 . S
In91 O92 2.294 . S
In91 O93 2.326 . S
In91 O97 2.266 . S
In91 O98 2.326 . S
In91 O99 2.266 . S
In91 O100 2.326 . S
In91 O102 2.294 . S
In91 O103 2.326 . S
O92 In91 2.294 . S
O92 C101 1.240 . S
O93 In91 2.326 . S
O93 C101 1.252 . S
C94 O97 1.252 . S
C94 O98 1.260 . S
C95 O102 1.240 . S
C95 O103 1.252 . S
C96 O99 1.252 . S
C96 O100 1.260 . S
O97 In91 2.266 . S
O97 C94 1.252 . S
O98 In91 2.326 . S
O98 C94 1.260 . S
O99 In91 2.266 . S
O99 C96 1.252 . S
O100 In91 2.326 . S
O100 C96 1.260 . S
C101 O92 1.240 . S
C101 O93 1.252 . S
O102 In91 2.294 . S
O102 C95 1.240 . S
O103 In91 2.326 . S
O103 C95 1.252 . S
In104 O105 2.294 . S
In104 O106 2.326 . S
In104 O110 2.266 . S
In104 O111 2.326 . S
In104 O112 2.266 . S
In104 O113 2.326 . S
In104 O115 2.294 . S
In104 O116 2.326 . S
O105 In104 2.294 . S
O105 C114 1.240 . S
O106 In104 2.326 . S
O106 C114 1.252 . S
C107 O110 1.252 . S
C107 O111 1.260 . S
C108 O115 1.240 . S
C108 O116 1.252 . S
C109 O112 1.252 . S
C109 O113 1.260 . S
O110 In104 2.266 . S
O110 C107 1.252 . S
O111 In104 2.326 . S
O111 C107 1.260 . S
O112 In104 2.266 . S
O112 C109 1.252 . S
O113 In104 2.326 . S
O113 C109 1.260 . S
C114 O105 1.240 . S
C114 O106 1.252 . S
O115 In104 2.294 . S
O115 C108 1.240 . S
O116 In104 2.326 . S
O116 C108 1.252 . S
In117 O118 2.294 . S
In117 O119 2.326 . S
In117 O123 2.266 . S
In117 O124 2.326 . S
In117 O125 2.266 . S
In117 O126 2.326 . S
In117 O128 2.294 . S
In117 O129 2.326 . S
O118 In117 2.294 . S
O118 C127 1.240 . S
O119 In117 2.326 . S
O119 C127 1.252 . S
C120 O123 1.252 . S
C120 O124 1.260 . S
C121 O128 1.240 . S
C121 O129 1.252 . S
C122 O125 1.252 . S
C122 O126 1.260 . S
O123 In117 2.266 . S
O123 C120 1.252 . S
O124 In117 2.326 . S
O124 C120 1.260 . S
O125 In117 2.266 . S
O125 C122 1.252 . S
O126 In117 2.326 . S
O126 C122 1.260 . S
C127 O118 1.240 . S
C127 O119 1.252 . S
O128 In117 2.294 . S
O128 C121 1.240 . S
O129 In117 2.326 . S
O129 C121 1.252 . S
In130 O131 2.294 . S
In130 O132 2.326 . S
In130 O136 2.266 . S
In130 O137 2.326 . S
In130 O138 2.266 . S
In130 O139 2.326 . S
In130 O141 2.294 . S
In130 O142 2.326 . S
O131 In130 2.294 . S
O131 C140 1.240 . S
O132 In130 2.326 . S
O132 C140 1.252 . S
C133 O136 1.252 . S
C133 O137 1.260 . S
C134 O141 1.240 . S
C134 O142 1.252 . S
C135 O138 1.252 . S
C135 O139 1.260 . S
O136 In130 2.266 . S
O136 C133 1.252 . S
O137 In130 2.326 . S
O137 C133 1.260 . S
O138 In130 2.266 . S
O138 C135 1.252 . S
O139 In130 2.326 . S
O139 C135 1.260 . S
C140 O131 1.240 . S
C140 O132 1.252 . S
O141 In130 2.294 . S
O141 C134 1.240 . S
O142 In130 2.326 . S
O142 C134 1.252 . S
In143 O144 2.294 . S
In143 O145 2.326 . S
In143 O149 2.266 . S
In143 O150 2.326 . S
In143 O151 2.266 . S
In143 O152 2.326 . S
In143 O154 2.294 . S
In143 O155 2.326 . S
O144 In143 2.294 . S
O144 C153 1.240 . S
O145 In143 2.326 . S
O145 C153 1.252 . S
C146 O149 1.252 . S
C146 O150 1.260 . S
C147 O154 1.240 . S
C147 O155 1.252 . S
C148 O151 1.252 . S
C148 O152 1.260 . S
O149 In143 2.266 . S
O149 C146 1.252 . S
O150 In143 2.326 . S
O150 C146 1.260 . S
O151 In143 2.266 . S
O151 C148 1.252 . S
O152 In143 2.326 . S
O152 C148 1.260 . S
C153 O144 1.240 . S
C153 O145 1.252 . S
O154 In143 2.294 . S
O154 C147 1.240 . S
O155 In143 2.326 . S
O155 C147 1.252 . S
In156 O157 2.294 . S
In156 O158 2.326 . S
In156 O162 2.266 . S
In156 O163 2.326 . S
In156 O164 2.266 . S
In156 O165 2.326 . S
In156 O167 2.294 . S
In156 O168 2.326 . S
O157 In156 2.294 . S
O157 C166 1.240 . S
O158 In156 2.326 . S
O158 C166 1.252 . S
C159 O162 1.252 . S
C159 O163 1.260 . S
C160 O167 1.240 . S
C160 O168 1.252 . S
C161 O164 1.252 . S
C161 O165 1.260 . S
O162 In156 2.266 . S
O162 C159 1.252 . S
O163 In156 2.326 . S
O163 C159 1.260 . S
O164 In156 2.266 . S
O164 C161 1.252 . S
O165 In156 2.326 . S
O165 C161 1.260 . S
C166 O157 1.240 . S
C166 O158 1.252 . S
O167 In156 2.294 . S
O167 C160 1.240 . S
O168 In156 2.326 . S
O168 C160 1.252 . S
In169 O170 2.294 . S
In169 O171 2.326 . S
In169 O175 2.266 . S
In169 O176 2.326 . S
In169 O177 2.266 . S
In169 O178 2.326 . S
In169 O180 2.294 . S
In169 O181 2.326 . S
O170 In169 2.294 . S
O170 C179 1.240 . S
O171 In169 2.326 . S
O171 C179 1.252 . S
C172 O175 1.252 . S
C172 O176 1.260 . S
C173 O180 1.240 . S
C173 O181 1.252 . S
C174 O177 1.252 . S
C174 O178 1.260 . S
O175 In169 2.266 . S
O175 C172 1.252 . S
O176 In169 2.326 . S
O176 C172 1.260 . S
O177 In169 2.266 . S
O177 C174 1.252 . S
O178 In169 2.326 . S
O178 C174 1.260 . S
C179 O170 1.240 . S
C179 O171 1.252 . S
O180 In169 2.294 . S
O180 C173 1.240 . S
O181 In169 2.326 . S
O181 C173 1.252 . S
In182 O183 2.294 . S
In182 O184 2.326 . S
In182 O188 2.266 . S
In182 O189 2.326 . S
In182 O190 2.266 . S
In182 O191 2.326 . S
In182 O193 2.294 . S
In182 O194 2.326 . S
O183 In182 2.294 . S
O183 C192 1.240 . S
O184 In182 2.326 . S
O184 C192 1.252 . S
C185 O188 1.252 . S
C185 O189 1.260 . S
C186 O193 1.240 . S
C186 O194 1.252 . S
C187 O190 1.252 . S
C187 O191 1.260 . S
O188 In182 2.266 . S
O188 C185 1.252 . S
O189 In182 2.326 . S
O189 C185 1.260 . S
O190 In182 2.266 . S
O190 C187 1.252 . S
O191 In182 2.326 . S
O191 C187 1.260 . S
C192 O183 1.240 . S
C192 O184 1.252 . S
O193 In182 2.294 . S
O193 C186 1.240 . S
O194 In182 2.326 . S
O194 C186 1.252 . S
In195 O196 2.294 . S
In195 O197 2.326 . S
In195 O201 2.266 . S
In195 O202 2.326 . S
In195 O203 2.266 . S
In195 O204 2.326 . S
In195 O206 2.294 . S
In195 O207 2.326 . S
O196 In195 2.294 . S
O196 C205 1.240 . S
O197 In195 2.326 . S
O197 C205 1.252 . S
C198 O201 1.252 . S
C198 O202 1.260 . S
C199 O206 1.240 . S
C199 O207 1.252 . S
C200 O203 1.252 . S
C200 O204 1.260 . S
O201 In195 2.266 . S
O201 C198 1.252 . S
O202 In195 2.326 . S
O202 C198 1.260 . S
O203 In195 2.266 . S
O203 C200 1.252 . S
O204 In195 2.326 . S
O204 C200 1.260 . S
C205 O196 1.240 . S
C205 O197 1.252 . S
O206 In195 2.294 . S
O206 C199 1.240 . S
O207 In195 2.326 . S
O207 C199 1.252 . S
In208 O209 2.294 . S
In208 O210 2.326 . S
In208 O214 2.266 . S
In208 O215 2.326 . S
In208 O216 2.266 . S
In208 O217 2.326 . S
In208 O219 2.294 . S
In208 O220 2.326 . S
O209 In208 2.294 . S
O209 C218 1.240 . S
O210 In208 2.326 . S
O210 C218 1.252 . S
C211 O214 1.252 . S
C211 O215 1.260 . S
C212 O219 1.240 . S
C212 O220 1.252 . S
C213 O216 1.252 . S
C213 O217 1.260 . S
O214 In208 2.266 . S
O214 C211 1.252 . S
O215 In208 2.326 . S
O215 C211 1.260 . S
O216 In208 2.266 . S
O216 C213 1.252 . S
O217 In208 2.326 . S
O217 C213 1.260 . S
C218 O209 1.240 . S
C218 O210 1.252 . S
O219 In208 2.294 . S
O219 C212 1.240 . S
O220 In208 2.326 . S
O220 C212 1.252 . S
In221 O222 2.294 . S
In221 O223 2.326 . S
In221 O227 2.266 . S
In221 O228 2.326 . S
In221 O229 2.266 . S
In221 O230 2.326 . S
In221 O232 2.294 . S
In221 O233 2.326 . S
O222 In221 2.294 . S
O222 C231 1.240 . S
O223 In221 2.326 . S
O223 C231 1.252 . S
C224 O227 1.252 . S
C224 O228 1.260 . S
C225 O232 1.240 . S
C225 O233 1.252 . S
C226 O229 1.252 . S
C226 O230 1.260 . S
O227 In221 2.266 . S
O227 C224 1.252 . S
O228 In221 2.326 . S
O228 C224 1.260 . S
O229 In221 2.266 . S
O229 C226 1.252 . S
O230 In221 2.326 . S
O230 C226 1.260 . S
C231 O222 1.240 . S
C231 O223 1.252 . S
O232 In221 2.294 . S
O232 C225 1.240 . S
O233 In221 2.326 . S
O233 C225 1.252 . S
In234 O235 2.294 . S
In234 O236 2.326 . S
In234 O240 2.266 . S
In234 O241 2.326 . S
In234 O242 2.266 . S
In234 O243 2.326 . S
In234 O245 2.294 . S
In234 O246 2.326 . S
O235 In234 2.294 . S
O235 C244 1.240 . S
O236 In234 2.326 . S
O236 C244 1.252 . S
C237 O240 1.252 . S
C237 O241 1.260 . S
C238 O245 1.240 . S
C238 O246 1.252 . S
C239 O242 1.252 . S
C239 O243 1.260 . S
O240 In234 2.266 . S
O240 C237 1.252 . S
O241 In234 2.326 . S
O241 C237 1.260 . S
O242 In234 2.266 . S
O242 C239 1.252 . S
O243 In234 2.326 . S
O243 C239 1.260 . S
C244 O235 1.240 . S
C244 O236 1.252 . S
O245 In234 2.294 . S
O245 C238 1.240 . S
O246 In234 2.326 . S
O246 C238 1.252 . S
In247 O248 2.294 . S
In247 O249 2.326 . S
In247 O253 2.266 . S
In247 O254 2.326 . S
In247 O255 2.266 . S
In247 O256 2.326 . S
In247 O258 2.294 . S
In247 O259 2.326 . S
O248 In247 2.294 . S
O248 C257 1.240 . S
O249 In247 2.326 . S
O249 C257 1.252 . S
C250 O253 1.252 . S
C250 O254 1.260 . S
C251 O258 1.240 . S
C251 O259 1.252 . S
C252 O255 1.252 . S
C252 O256 1.260 . S
O253 In247 2.266 . S
O253 C250 1.252 . S
O254 In247 2.326 . S
O254 C250 1.260 . S
O255 In247 2.266 . S
O255 C252 1.252 . S
O256 In247 2.326 . S
O256 C252 1.260 . S
C257 O248 1.240 . S
C257 O249 1.252 . S
O258 In247 2.294 . S
O258 C251 1.240 . S
O259 In247 2.326 . S
O259 C251 1.252 . S
In260 O261 2.294 . S
In260 O262 2.326 . S
In260 O266 2.266 . S
In260 O267 2.326 . S
In260 O268 2.266 . S
In260 O269 2.326 . S
In260 O271 2.294 . S
In260 O272 2.326 . S
O261 In260 2.294 . S
O261 C270 1.240 . S
O262 In260 2.326 . S
O262 C270 1.252 . S
C263 O266 1.252 . S
C263 O267 1.260 . S
C264 O271 1.240 . S
C264 O272 1.252 . S
C265 O268 1.252 . S
C265 O269 1.260 . S
O266 In260 2.266 . S
O266 C263 1.252 . S
O267 In260 2.326 . S
O267 C263 1.260 . S
O268 In260 2.266 . S
O268 C265 1.252 . S
O269 In260 2.326 . S
O269 C265 1.260 . S
C270 O261 1.240 . S
C270 O262 1.252 . S
O271 In260 2.294 . S
O271 C264 1.240 . S
O272 In260 2.326 . S
O272 C264 1.252 . S
In273 O274 2.294 . S
In273 O275 2.326 . S
In273 O279 2.266 . S
In273 O280 2.326 . S
In273 O281 2.266 . S
In273 O282 2.326 . S
In273 O284 2.294 . S
In273 O285 2.326 . S
O274 In273 2.294 . S
O274 C283 1.240 . S
O275 In273 2.326 . S
O275 C283 1.252 . S
C276 O279 1.252 . S
C276 O280 1.260 . S
C277 O284 1.240 . S
C277 O285 1.252 . S
C278 O281 1.252 . S
C278 O282 1.260 . S
O279 In273 2.266 . S
O279 C276 1.252 . S
O280 In273 2.326 . S
O280 C276 1.260 . S
O281 In273 2.266 . S
O281 C278 1.252 . S
O282 In273 2.326 . S
O282 C278 1.260 . S
C283 O274 1.240 . S
C283 O275 1.252 . S
O284 In273 2.294 . S
O284 C277 1.240 . S
O285 In273 2.326 . S
O285 C277 1.252 . S
In286 O287 2.294 . S
In286 O288 2.326 . S
In286 O292 2.266 . S
In286 O293 2.326 . S
In286 O294 2.266 . S
In286 O295 2.326 . S
In286 O297 2.294 . S
In286 O298 2.326 . S
O287 In286 2.294 . S
O287 C296 1.240 . S
O288 In286 2.326 . S
O288 C296 1.252 . S
C289 O292 1.252 . S
C289 O293 1.260 . S
C290 O297 1.240 . S
C290 O298 1.252 . S
C291 O294 1.252 . S
C291 O295 1.260 . S
O292 In286 2.266 . S
O292 C289 1.252 . S
O293 In286 2.326 . S
O293 C289 1.260 . S
O294 In286 2.266 . S
O294 C291 1.252 . S
O295 In286 2.326 . S
O295 C291 1.260 . S
C296 O287 1.240 . S
C296 O288 1.252 . S
O297 In286 2.294 . S
O297 C290 1.240 . S
O298 In286 2.326 . S
O298 C290 1.252 . S
In299 O300 2.294 . S
In299 O301 2.326 . S
In299 O305 2.266 . S
In299 O306 2.326 . S
In299 O307 2.266 . S
In299 O308 2.326 . S
In299 O310 2.294 . S
In299 O311 2.326 . S
O300 In299 2.294 . S
O300 C309 1.240 . S
O301 In299 2.326 . S
O301 C309 1.252 . S
C302 O305 1.252 . S
C302 O306 1.260 . S
C303 O310 1.240 . S
C303 O311 1.252 . S
C304 O307 1.252 . S
C304 O308 1.260 . S
O305 In299 2.266 . S
O305 C302 1.252 . S
O306 In299 2.326 . S
O306 C302 1.260 . S
O307 In299 2.266 . S
O307 C304 1.252 . S
O308 In299 2.326 . S
O308 C304 1.260 . S
C309 O300 1.240 . S
C309 O301 1.252 . S
O310 In299 2.294 . S
O310 C303 1.240 . S
O311 In299 2.326 . S
O311 C303 1.252 . S
In312 O313 2.294 . S
In312 O314 2.326 . S
In312 O318 2.266 . S
In312 O319 2.326 . S
In312 O320 2.266 . S
In312 O321 2.326 . S
In312 O323 2.294 . S
In312 O324 2.326 . S
O313 In312 2.294 . S
O313 C322 1.240 . S
O314 In312 2.326 . S
O314 C322 1.252 . S
C315 O318 1.252 . S
C315 O319 1.260 . S
C316 O323 1.240 . S
C316 O324 1.252 . S
C317 O320 1.252 . S
C317 O321 1.260 . S
O318 In312 2.266 . S
O318 C315 1.252 . S
O319 In312 2.326 . S
O319 C315 1.260 . S
O320 In312 2.266 . S
O320 C317 1.252 . S
O321 In312 2.326 . S
O321 C317 1.260 . S
C322 O313 1.240 . S
C322 O314 1.252 . S
O323 In312 2.294 . S
O323 C316 1.240 . S
O324 In312 2.326 . S
O324 C316 1.252 . S
In325 O326 2.294 . S
In325 O327 2.326 . S
In325 O331 2.266 . S
In325 O332 2.326 . S
In325 O333 2.266 . S
In325 O334 2.326 . S
In325 O336 2.294 . S
In325 O337 2.326 . S
O326 In325 2.294 . S
O326 C335 1.240 . S
O327 In325 2.326 . S
O327 C335 1.252 . S
C328 O331 1.252 . S
C328 O332 1.260 . S
C329 O336 1.240 . S
C329 O337 1.252 . S
C330 O333 1.252 . S
C330 O334 1.260 . S
O331 In325 2.266 . S
O331 C328 1.252 . S
O332 In325 2.326 . S
O332 C328 1.260 . S
O333 In325 2.266 . S
O333 C330 1.252 . S
O334 In325 2.326 . S
O334 C330 1.260 . S
C335 O326 1.240 . S
C335 O327 1.252 . S
O336 In325 2.294 . S
O336 C329 1.240 . S
O337 In325 2.326 . S
O337 C329 1.252 . S
In338 O339 2.294 . S
In338 O340 2.326 . S
In338 O344 2.266 . S
In338 O345 2.326 . S
In338 O346 2.266 . S
In338 O347 2.326 . S
In338 O349 2.294 . S
In338 O350 2.326 . S
O339 In338 2.294 . S
O339 C348 1.240 . S
O340 In338 2.326 . S
O340 C348 1.252 . S
C341 O344 1.252 . S
C341 O345 1.260 . S
C342 O349 1.240 . S
C342 O350 1.252 . S
C343 O346 1.252 . S
C343 O347 1.260 . S
O344 In338 2.266 . S
O344 C341 1.252 . S
O345 In338 2.326 . S
O345 C341 1.260 . S
O346 In338 2.266 . S
O346 C343 1.252 . S
O347 In338 2.326 . S
O347 C343 1.260 . S
C348 O339 1.240 . S
C348 O340 1.252 . S
O349 In338 2.294 . S
O349 C342 1.240 . S
O350 In338 2.326 . S
O350 C342 1.252 . S
In351 O352 2.294 . S
In351 O353 2.326 . S
In351 O357 2.266 . S
In351 O358 2.326 . S
In351 O359 2.266 . S
In351 O360 2.326 . S
In351 O362 2.294 . S
In351 O363 2.326 . S
O352 In351 2.294 . S
O352 C361 1.240 . S
O353 In351 2.326 . S
O353 C361 1.252 . S
C354 O357 1.252 . S
C354 O358 1.260 . S
C355 O362 1.240 . S
C355 O363 1.252 . S
C356 O359 1.252 . S
C356 O360 1.260 . S
O357 In351 2.266 . S
O357 C354 1.252 . S
O358 In351 2.326 . S
O358 C354 1.260 . S
O359 In351 2.266 . S
O359 C356 1.252 . S
O360 In351 2.326 . S
O360 C356 1.260 . S
C361 O352 1.240 . S
C361 O353 1.252 . S
O362 In351 2.294 . S
O362 C355 1.240 . S
O363 In351 2.326 . S
O363 C355 1.252 . S
In364 O365 2.294 . S
In364 O366 2.326 . S
In364 O370 2.266 . S
In364 O371 2.326 . S
In364 O372 2.266 . S
In364 O373 2.326 . S
In364 O375 2.294 . S
In364 O376 2.326 . S
O365 In364 2.294 . S
O365 C374 1.240 . S
O366 In364 2.326 . S
O366 C374 1.252 . S
C367 O370 1.252 . S
C367 O371 1.260 . S
C368 O375 1.240 . S
C368 O376 1.252 . S
C369 O372 1.252 . S
C369 O373 1.260 . S
O370 In364 2.266 . S
O370 C367 1.252 . S
O371 In364 2.326 . S
O371 C367 1.260 . S
O372 In364 2.266 . S
O372 C369 1.252 . S
O373 In364 2.326 . S
O373 C369 1.260 . S
C374 O365 1.240 . S
C374 O366 1.252 . S
O375 In364 2.294 . S
O375 C368 1.240 . S
O376 In364 2.326 . S
O376 C368 1.252 . S
In377 O378 2.294 . S
In377 O379 2.326 . S
In377 O383 2.266 . S
In377 O384 2.326 . S
In377 O385 2.266 . S
In377 O386 2.326 . S
In377 O388 2.294 . S
In377 O389 2.326 . S
O378 In377 2.294 . S
O378 C387 1.240 . S
O379 In377 2.326 . S
O379 C387 1.252 . S
C380 O383 1.252 . S
C380 O384 1.260 . S
C381 O388 1.240 . S
C381 O389 1.252 . S
C382 O385 1.252 . S
C382 O386 1.260 . S
O383 In377 2.266 . S
O383 C380 1.252 . S
O384 In377 2.326 . S
O384 C380 1.260 . S
O385 In377 2.266 . S
O385 C382 1.252 . S
O386 In377 2.326 . S
O386 C382 1.260 . S
C387 O378 1.240 . S
C387 O379 1.252 . S
O388 In377 2.294 . S
O388 C381 1.240 . S
O389 In377 2.326 . S
O389 C381 1.252 . S
In390 O391 2.294 . S
In390 O392 2.326 . S
In390 O396 2.266 . S
In390 O397 2.326 . S
In390 O398 2.266 . S
In390 O399 2.326 . S
In390 O401 2.294 . S
In390 O402 2.326 . S
O391 In390 2.294 . S
O391 C400 1.240 . S
O392 In390 2.326 . S
O392 C400 1.252 . S
C393 O396 1.252 . S
C393 O397 1.260 . S
C394 O401 1.240 . S
C394 O402 1.252 . S
C395 O398 1.252 . S
C395 O399 1.260 . S
O396 In390 2.266 . S
O396 C393 1.252 . S
O397 In390 2.326 . S
O397 C393 1.260 . S
O398 In390 2.266 . S
O398 C395 1.252 . S
O399 In390 2.326 . S
O399 C395 1.260 . S
C400 O391 1.240 . S
C400 O392 1.252 . S
O401 In390 2.294 . S
O401 C394 1.240 . S
O402 In390 2.326 . S
O402 C394 1.252 . S
In403 O404 2.294 . S
In403 O405 2.326 . S
In403 O409 2.266 . S
In403 O410 2.326 . S
In403 O411 2.266 . S
In403 O412 2.326 . S
In403 O414 2.294 . S
In403 O415 2.326 . S
O404 In403 2.294 . S
O404 C413 1.240 . S
O405 In403 2.326 . S
O405 C413 1.252 . S
C406 O409 1.252 . S
C406 O410 1.260 . S
C407 O414 1.240 . S
C407 O415 1.252 . S
C408 O411 1.252 . S
C408 O412 1.260 . S
O409 In403 2.266 . S
O409 C406 1.252 . S
O410 In403 2.326 . S
O410 C406 1.260 . S
O411 In403 2.266 . S
O411 C408 1.252 . S
O412 In403 2.326 . S
O412 C408 1.260 . S
C413 O404 1.240 . S
C413 O405 1.252 . S
O414 In403 2.294 . S
O414 C407 1.240 . S
O415 In403 2.326 . S
O415 C407 1.252 . S
In416 O417 2.294 . S
In416 O418 2.326 . S
In416 O422 2.266 . S
In416 O423 2.326 . S
In416 O424 2.266 . S
In416 O425 2.326 . S
In416 O427 2.294 . S
In416 O428 2.326 . S
O417 In416 2.294 . S
O417 C426 1.240 . S
O418 In416 2.326 . S
O418 C426 1.252 . S
C419 O422 1.252 . S
C419 O423 1.260 . S
C420 O427 1.240 . S
C420 O428 1.252 . S
C421 O424 1.252 . S
C421 O425 1.260 . S
O422 In416 2.266 . S
O422 C419 1.252 . S
O423 In416 2.326 . S
O423 C419 1.260 . S
O424 In416 2.266 . S
O424 C421 1.252 . S
O425 In416 2.326 . S
O425 C421 1.260 . S
C426 O417 1.240 . S
C426 O418 1.252 . S
O427 In416 2.294 . S
O427 C420 1.240 . S
O428 In416 2.326 . S
O428 C420 1.252 . S
In429 O430 2.294 . S
In429 O431 2.326 . S
In429 O435 2.266 . S
In429 O436 2.326 . S
In429 O437 2.266 . S
In429 O438 2.326 . S
In429 O440 2.294 . S
In429 O441 2.326 . S
O430 In429 2.294 . S
O430 C439 1.240 . S
O431 In429 2.326 . S
O431 C439 1.252 . S
C432 O435 1.252 . S
C432 O436 1.260 . S
C433 O440 1.240 . S
C433 O441 1.252 . S
C434 O437 1.252 . S
C434 O438 1.260 . S
O435 In429 2.266 . S
O435 C432 1.252 . S
O436 In429 2.326 . S
O436 C432 1.260 . S
O437 In429 2.266 . S
O437 C434 1.252 . S
O438 In429 2.326 . S
O438 C434 1.260 . S
C439 O430 1.240 . S
C439 O431 1.252 . S
O440 In429 2.294 . S
O440 C433 1.240 . S
O441 In429 2.326 . S
O441 C433 1.252 . S
In442 O443 2.294 . S
In442 O444 2.326 . S
In442 O448 2.266 . S
In442 O449 2.326 . S
In442 O450 2.266 . S
In442 O451 2.326 . S
In442 O453 2.294 . S
In442 O454 2.326 . S
O443 In442 2.294 . S
O443 C452 1.240 . S
O444 In442 2.326 . S
O444 C452 1.252 . S
C445 O448 1.252 . S
C445 O449 1.260 . S
C446 O453 1.240 . S
C446 O454 1.252 . S
C447 O450 1.252 . S
C447 O451 1.260 . S
O448 In442 2.266 . S
O448 C445 1.252 . S
O449 In442 2.326 . S
O449 C445 1.260 . S
O450 In442 2.266 . S
O450 C447 1.252 . S
O451 In442 2.326 . S
O451 C447 1.260 . S
C452 O443 1.240 . S
C452 O444 1.252 . S
O453 In442 2.294 . S
O453 C446 1.240 . S
O454 In442 2.326 . S
O454 C446 1.252 . S
In455 O456 2.294 . S
In455 O457 2.326 . S
In455 O461 2.266 . S
In455 O462 2.326 . S
In455 O463 2.266 . S
In455 O464 2.326 . S
In455 O466 2.294 . S
In455 O467 2.326 . S
O456 In455 2.294 . S
O456 C465 1.240 . S
O457 In455 2.326 . S
O457 C465 1.252 . S
C458 O461 1.252 . S
C458 O462 1.260 . S
C459 O466 1.240 . S
C459 O467 1.252 . S
C460 O463 1.252 . S
C460 O464 1.260 . S
O461 In455 2.266 . S
O461 C458 1.252 . S
O462 In455 2.326 . S
O462 C458 1.260 . S
O463 In455 2.266 . S
O463 C460 1.252 . S
O464 In455 2.326 . S
O464 C460 1.260 . S
C465 O456 1.240 . S
C465 O457 1.252 . S
O466 In455 2.294 . S
O466 C459 1.240 . S
O467 In455 2.326 . S
O467 C459 1.252 . S
H468 C476 0.929 . S
H469 C478 0.930 . S
H470 C480 0.930 . S
H471 C483 0.929 . S
H472 C486 0.930 . S
H473 C488 0.960 . S
H474 C488 0.960 . S
H475 C488 0.960 1_565 S
C476 H468 0.929 . S
C476 C477 1.377 . S
C476 C478 1.384 . S
C477 C476 1.377 . S
C477 C483 1.390 . S
C478 H469 0.930 . S
C478 C476 1.384 . S
C478 C479 1.372 . S
C479 C478 1.372 . S
C479 C480 1.400 . S
C479 C484 1.490 . S
C480 H470 0.930 . S
C480 C479 1.400 . S
C480 C483 1.386 . S
H481 C497 0.930 . S
H482 C498 0.931 . S
C483 H471 0.929 . S
C483 C477 1.390 . S
C483 C480 1.386 . S
C484 C479 1.490 . S
C484 C486 1.395 . S
C484 C487 1.403 1_565 S
H485 C491 0.930 . S
C486 H472 0.930 . S
C486 C484 1.395 . S
C486 C489 1.403 . S
C487 C484 1.403 1_545 S
C487 C488 1.524 . S
C487 C491 1.400 . S
C488 H473 0.960 . S
C488 H474 0.960 . S
C488 H475 0.960 1_545 S
C488 C487 1.524 . S
C489 C486 1.403 . S
C489 C490 1.392 1_565 S
C489 C493 1.495 . S
C490 C489 1.392 1_545 S
C490 C491 1.385 . S
C490 C492 1.478 . S
C491 H485 0.930 . S
C491 C487 1.400 . S
C491 C490 1.385 . S
C492 C490 1.478 . S
C492 C494 1.381 . S
C492 C498 1.383 . S
C493 C489 1.495 . S
C493 H499 0.959 . S
C493 H500 0.961 . S
C493 H501 0.971 . S
C494 C492 1.381 . S
C494 C495 1.394 . S
C494 H502 0.930 . S
C495 C494 1.394 . S
C495 C496 1.383 . S
C495 H503 0.929 . S
C496 C495 1.383 . S
C496 C497 1.377 . S
C497 H481 0.930 . S
C497 C496 1.377 . S
C497 C498 1.379 . S
C498 H482 0.931 . S
C498 C492 1.383 . S
C498 C497 1.379 . S
H499 C493 0.959 . S
H500 C493 0.961 . S
H501 C493 0.971 . S
H502 C494 0.930 . S
H503 C495 0.929 . S
H504 C512 0.929 . S
H505 C514 0.930 . S
H506 C516 0.930 . S
H507 C519 0.929 . S
H508 C522 0.924 . S
H509 C524 0.960 . S
H510 C524 0.960 . S
H511 C524 0.960 . S
C512 H504 0.929 . S
C512 C513 1.377 . S
C512 C514 1.384 . S
C513 C512 1.377 . S
C513 C519 1.390 . S
C514 H505 0.930 . S
C514 C512 1.384 . S
C514 C515 1.372 . S
C515 C514 1.372 . S
C515 C516 1.400 . S
C515 C520 1.490 . S
C516 H506 0.930 . S
C516 C515 1.400 . S
C516 C519 1.386 . S
H517 C533 0.930 . S
H518 C534 0.931 . S
C519 H507 0.929 . S
C519 C513 1.390 . S
C519 C516 1.386 . S
C520 C515 1.490 . S
C520 C522 1.357 1_655 S
C520 C523 1.403 . S
H521 C527 0.930 . S
C522 H508 0.924 . S
C522 C520 1.357 1_455 S
C522 C525 1.473 . S
C523 C520 1.403 . S
C523 C524 1.524 . S
C523 C527 1.400 1_655 S
C524 H509 0.960 . S
C524 H510 0.960 . S
C524 H511 0.960 . S
C524 C523 1.524 . S
C525 C522 1.473 . S
C525 C526 1.392 . S
C525 C529 1.495 . S
C526 C525 1.392 . S
C526 C527 1.385 . S
C526 C528 1.478 . S
C527 H521 0.930 . S
C527 C523 1.400 1_455 S
C527 C526 1.385 . S
C528 C526 1.478 . S
C528 C530 1.381 . S
C528 C534 1.383 . S
C529 C525 1.495 . S
C529 H535 0.959 . S
C529 H536 0.961 . S
C529 H537 0.960 . S
C530 C528 1.381 . S
C530 C531 1.394 . S
C530 H538 0.930 . S
C531 C530 1.394 . S
C531 C532 1.383 . S
C531 H539 0.929 . S
C532 C531 1.383 . S
C532 C533 1.377 . S
C533 H517 0.930 . S
C533 C532 1.377 . S
C533 C534 1.379 . S
C534 H518 0.931 . S
C534 C528 1.383 . S
C534 C533 1.379 . S
H535 C529 0.959 . S
H536 C529 0.961 . S
H537 C529 0.960 . S
H538 C530 0.930 . S
H539 C531 0.929 . S
H540 C548 0.929 . S
H541 C550 0.930 . S
H542 C552 0.930 . S
H543 C555 0.929 . S
H544 C558 0.930 . S
H545 C560 0.960 . S
H546 C560 0.960 . S
H547 C560 0.960 . S
C548 H540 0.929 . S
C548 C549 1.377 . S
C548 C550 1.384 . S
C549 C548 1.377 . S
C549 C555 1.390 . S
C550 H541 0.930 . S
C550 C548 1.384 . S
C550 C551 1.372 . S
C551 C550 1.372 . S
C551 C552 1.400 . S
C551 C556 1.490 . S
C552 H542 0.930 . S
C552 C551 1.400 . S
C552 C555 1.386 . S
H553 C569 0.930 . S
H554 C570 0.931 . S
C555 H543 0.929 . S
C555 C549 1.390 . S
C555 C552 1.386 . S
C556 C551 1.490 . S
C556 C558 1.395 . S
C556 C559 1.403 . S
H557 C563 0.930 . S
C558 H544 0.930 . S
C558 C556 1.395 . S
C558 C561 1.403 . S
C559 C556 1.403 . S
C559 C560 1.524 . S
C559 C563 1.400 . S
C560 H545 0.960 . S
C560 H546 0.960 . S
C560 H547 0.960 . S
C560 C559 1.524 . S
C561 C558 1.403 . S
C561 C562 1.392 . S
C561 C565 1.495 . S
C562 C561 1.392 . S
C562 C563 1.385 . S
C562 C564 1.478 . S
C563 H557 0.930 . S
C563 C559 1.400 . S
C563 C562 1.385 . S
C564 C562 1.478 . S
C564 C566 1.381 . S
C564 C570 1.383 . S
C565 C561 1.495 . S
C565 H571 0.959 . S
C565 H572 0.961 . S
C565 H573 0.960 . S
C566 C564 1.381 . S
C566 C567 1.394 . S
C566 H574 0.930 . S
C567 C566 1.394 . S
C567 C568 1.383 . S
C567 H575 0.929 . S
C568 C567 1.383 . S
C568 C569 1.377 . S
C569 H553 0.930 . S
C569 C568 1.377 . S
C569 C570 1.379 . S
C570 H554 0.931 . S
C570 C564 1.383 . S
C570 C569 1.379 . S
H571 C565 0.959 . S
H572 C565 0.961 . S
H573 C565 0.960 . S
H574 C566 0.930 . S
H575 C567 0.929 . S
H576 C584 0.929 . S
H577 C586 0.930 . S
H578 C588 0.930 . S
H579 C591 0.929 . S
H580 C594 0.930 . S
H581 C596 0.960 . S
H582 C596 0.960 . S
H583 C596 0.960 . S
C584 H576 0.929 . S
C584 C585 1.377 . S
C584 C586 1.384 . S
C585 C584 1.377 . S
C585 C591 1.390 . S
C586 H577 0.930 . S
C586 C584 1.384 . S
C586 C587 1.372 . S
C587 C586 1.372 . S
C587 C588 1.400 . S
C587 C592 1.490 . S
C588 H578 0.930 . S
C588 C587 1.400 . S
C588 C591 1.386 . S
H589 C605 0.930 . S
H590 C606 0.931 . S
C591 H579 0.929 . S
C591 C585 1.390 . S
C591 C588 1.386 . S
C592 C587 1.490 . S
C592 C594 1.395 . S
C592 C595 1.403 1_565 S
H593 C599 0.930 . S
C594 H580 0.930 . S
C594 C592 1.395 . S
C594 C597 1.403 . S
C595 C592 1.403 1_545 S
C595 C596 1.524 . S
C595 C599 1.400 . S
C596 H581 0.960 . S
C596 H582 0.960 . S
C596 H583 0.960 . S
C596 C595 1.524 . S
C597 C594 1.403 . S
C597 C598 1.392 1_565 S
C597 C601 1.495 . S
C598 C597 1.392 1_545 S
C598 C599 1.385 . S
C598 C600 1.478 . S
C599 H593 0.930 . S
C599 C595 1.400 . S
C599 C598 1.385 . S
C600 C598 1.478 . S
C600 C602 1.381 . S
C600 C606 1.383 . S
C601 C597 1.495 . S
C601 H607 0.959 . S
C601 H608 0.961 . S
C601 H609 0.960 . S
C602 C600 1.381 . S
C602 C603 1.394 . S
C602 H610 0.930 . S
C603 C602 1.394 . S
C603 C604 1.383 . S
C603 H611 0.929 . S
C604 C603 1.383 . S
C604 C605 1.377 . S
C605 H589 0.930 . S
C605 C604 1.377 . S
C605 C606 1.379 . S
C606 H590 0.931 . S
C606 C600 1.383 . S
C606 C605 1.379 . S
H607 C601 0.959 . S
H608 C601 0.961 . S
H609 C601 0.960 . S
H610 C602 0.930 . S
H611 C603 0.929 . S
H612 C620 0.929 . S
H613 C622 0.930 . S
H614 C624 0.930 . S
H615 C627 0.929 . S
H616 C630 0.930 . S
H617 C632 0.960 . S
H618 C632 0.960 . S
H619 C632 0.960 . S
C620 H612 0.929 . S
C620 C621 1.377 . S
C620 C622 1.384 . S
C621 C620 1.377 . S
C621 C627 1.390 . S
C622 H613 0.930 . S
C622 C620 1.384 . S
C622 C623 1.372 . S
C623 C622 1.372 . S
C623 C624 1.400 . S
C623 C628 1.490 . S
C624 H614 0.930 . S
C624 C623 1.400 . S
C624 C627 1.386 . S
H625 C641 0.930 . S
H626 C642 0.931 . S
C627 H615 0.929 . S
C627 C621 1.390 . S
C627 C624 1.386 . S
C628 C623 1.490 . S
C628 C630 1.395 1_455 S
C628 C631 1.403 . S
H629 C635 0.932 . S
C630 H616 0.930 . S
C630 C628 1.395 1_655 S
C630 C633 1.403 . S
C631 C628 1.403 . S
C631 C632 1.524 . S
C631 C635 1.397 . S
C632 H617 0.960 . S
C632 H618 0.960 . S
C632 H619 0.960 . S
C632 C631 1.524 . S
C633 C630 1.403 . S
C633 C634 1.392 . S
C633 C637 1.495 . S
C634 C633 1.392 . S
C634 C635 1.388 1_655 S
C634 C636 1.478 . S
C635 H629 0.932 . S
C635 C631 1.397 . S
C635 C634 1.388 1_455 S
C636 C634 1.478 . S
C636 C638 1.381 . S
C636 C642 1.383 . S
C637 C633 1.495 . S
C637 H643 0.959 . S
C637 H644 0.961 . S
C637 H645 0.960 . S
C638 C636 1.381 . S
C638 C639 1.394 . S
C638 H646 0.930 . S
C639 C638 1.394 . S
C639 C640 1.383 . S
C639 H647 0.929 . S
C640 C639 1.383 . S
C640 C641 1.377 . S
C641 H625 0.930 . S
C641 C640 1.377 . S
C641 C642 1.379 . S
C642 H626 0.931 . S
C642 C636 1.383 . S
C642 C641 1.379 . S
H643 C637 0.959 . S
H644 C637 0.961 . S
H645 C637 0.960 . S
H646 C638 0.930 . S
H647 C639 0.929 . S
H648 C656 0.929 . S
H649 C658 0.930 . S
H650 C660 0.930 . S
H651 C663 0.929 . S
H652 C666 0.930 . S
H653 C668 0.960 . S
H654 C668 0.960 . S
H655 C668 0.960 . S
C656 H648 0.929 . S
C656 C657 1.377 . S
C656 C658 1.384 . S
C657 C656 1.377 . S
C657 C663 1.390 . S
C658 H649 0.930 . S
C658 C656 1.384 . S
C658 C659 1.372 . S
C659 C658 1.372 . S
C659 C660 1.400 . S
C659 C664 1.490 . S
C660 H650 0.930 . S
C660 C659 1.400 . S
C660 C663 1.386 . S
H661 C677 0.930 . S
H662 C678 0.931 . S
C663 H651 0.929 . S
C663 C657 1.390 . S
C663 C660 1.386 . S
C664 C659 1.490 . S
C664 C666 1.395 . S
C664 C667 1.403 . S
H665 C671 0.930 . S
C666 H652 0.930 . S
C666 C664 1.395 . S
C666 C669 1.403 . S
C667 C664 1.403 . S
C667 C668 1.524 . S
C667 C671 1.400 . S
C668 H653 0.960 . S
C668 H654 0.960 . S
C668 H655 0.960 . S
C668 C667 1.524 . S
C669 C666 1.403 . S
C669 C670 1.392 . S
C669 C673 1.495 . S
C670 C669 1.392 . S
C670 C671 1.385 . S
C670 C672 1.478 . S
C671 H665 0.930 . S
C671 C667 1.400 . S
C671 C670 1.385 . S
C672 C670 1.478 . S
C672 C674 1.381 . S
C672 C678 1.383 . S
C673 C669 1.495 . S
C673 H679 0.959 . S
C673 H680 0.961 . S
C673 H681 0.960 . S
C674 C672 1.381 . S
C674 C675 1.394 . S
C674 H682 0.930 . S
C675 C674 1.394 . S
C675 C676 1.383 . S
C675 H683 0.929 . S
C676 C675 1.383 . S
C676 C677 1.377 . S
C677 H661 0.930 . S
C677 C676 1.377 . S
C677 C678 1.379 . S
C678 H662 0.931 . S
C678 C672 1.383 . S
C678 C677 1.379 . S
H679 C673 0.959 . S
H680 C673 0.961 . S
H681 C673 0.960 . S
H682 C674 0.930 . S
H683 C675 0.929 . S
H684 C692 0.929 . S
H685 C694 0.930 . S
H686 C696 0.930 . S
H687 C699 0.929 . S
H688 C702 0.930 . S
H689 C704 0.960 . S
H690 C704 0.960 . S
H691 C704 0.960 . S
C692 H684 0.929 . S
C692 C693 1.377 . S
C692 C694 1.384 . S
C693 C692 1.377 . S
C693 C699 1.390 . S
C694 H685 0.930 . S
C694 C692 1.384 . S
C694 C695 1.372 . S
C695 C694 1.372 . S
C695 C696 1.400 . S
C695 C700 1.490 . S
C696 H686 0.930 . S
C696 C695 1.400 . S
C696 C699 1.386 . S
H697 C713 0.930 . S
H698 C714 0.931 . S
C699 H687 0.929 . S
C699 C693 1.390 . S
C699 C696 1.386 . S
C700 C695 1.490 . S
C700 C702 1.395 . S
C700 C703 1.403 . S
H701 C707 0.930 . S
C702 H688 0.930 . S
C702 C700 1.395 . S
C702 C705 1.403 . S
C703 C700 1.403 . S
C703 C704 1.524 . S
C703 C707 1.400 . S
C704 H689 0.960 . S
C704 H690 0.960 . S
C704 H691 0.960 . S
C704 C703 1.524 . S
C705 C702 1.403 . S
C705 C706 1.392 . S
C705 C709 1.495 . S
C706 C705 1.392 . S
C706 C707 1.385 . S
C706 C708 1.478 . S
C707 H701 0.930 . S
C707 C703 1.400 . S
C707 C706 1.385 . S
C708 C706 1.478 . S
C708 C710 1.381 . S
C708 C714 1.383 . S
C709 C705 1.495 . S
C709 H715 0.959 . S
C709 H716 0.961 . S
C709 H717 0.960 . S
C710 C708 1.381 . S
C710 C711 1.394 . S
C710 H718 0.930 . S
C711 C710 1.394 . S
C711 C712 1.383 . S
C711 H719 0.929 . S
C712 C711 1.383 . S
C712 C713 1.377 . S
C713 H697 0.930 . S
C713 C712 1.377 . S
C713 C714 1.379 . S
C714 H698 0.931 . S
C714 C708 1.383 . S
C714 C713 1.379 . S
H715 C709 0.959 . S
H716 C709 0.961 . S
H717 C709 0.960 . S
H718 C710 0.930 . S
H719 C711 0.929 . S
H720 C728 0.929 . S
H721 C730 0.930 . S
H722 C732 0.930 . S
H723 C735 0.929 . S
H724 C738 0.930 . S
H725 C740 0.960 . S
H726 C740 0.960 . S
H727 C740 0.960 . S
C728 H720 0.929 . S
C728 C729 1.377 . S
C728 C730 1.384 . S
C729 C728 1.377 . S
C729 C735 1.390 . S
C730 H721 0.930 . S
C730 C728 1.384 . S
C730 C731 1.372 . S
C731 C730 1.372 . S
C731 C732 1.400 . S
C731 C736 1.490 . S
C732 H722 0.930 . S
C732 C731 1.400 . S
C732 C735 1.386 . S
H733 C749 0.930 . S
H734 C750 0.931 . S
C735 H723 0.929 . S
C735 C729 1.390 . S
C735 C732 1.386 . S
C736 C731 1.490 . S
C736 C738 1.395 . S
C736 C739 1.403 . S
H737 C743 0.930 . S
C738 H724 0.930 . S
C738 C736 1.395 . S
C738 C741 1.403 . S
C739 C736 1.403 . S
C739 C740 1.524 . S
C739 C743 1.400 . S
C740 H725 0.960 . S
C740 H726 0.960 . S
C740 H727 0.960 . S
C740 C739 1.524 . S
C741 C738 1.403 . S
C741 C742 1.392 . S
C741 C745 1.495 . S
C742 C741 1.392 . S
C742 C743 1.385 . S
C742 C744 1.478 . S
C743 H737 0.930 . S
C743 C739 1.400 . S
C743 C742 1.385 . S
C744 C742 1.478 . S
C744 C746 1.381 . S
C744 C750 1.383 . S
C745 C741 1.495 . S
C745 H751 0.959 . S
C745 H752 0.961 . S
C745 H753 0.960 . S
C746 C744 1.381 . S
C746 C747 1.394 . S
C746 H754 0.930 . S
C747 C746 1.394 . S
C747 C748 1.383 . S
C747 H755 0.929 . S
C748 C747 1.383 . S
C748 C749 1.377 . S
C749 H733 0.930 . S
C749 C748 1.377 . S
C749 C750 1.379 . S
C750 H734 0.931 . S
C750 C744 1.383 . S
C750 C749 1.379 . S
H751 C745 0.959 . S
H752 C745 0.961 . S
H753 C745 0.960 . S
H754 C746 0.930 . S
H755 C747 0.929 . S
H756 C764 0.929 . S
H757 C766 0.930 . S
H758 C768 0.930 . S
H759 C771 0.929 . S
H760 C774 0.930 . S
H761 C776 0.960 . S
H762 C776 0.960 . S
H763 C776 0.960 . S
C764 H756 0.929 . S
C764 C765 1.377 . S
C764 C766 1.384 . S
C765 C764 1.377 . S
C765 C771 1.390 . S
C766 H757 0.930 . S
C766 C764 1.384 . S
C766 C767 1.372 . S
C767 C766 1.372 . S
C767 C768 1.400 . S
C767 C772 1.490 . S
C768 H758 0.930 . S
C768 C767 1.400 . S
C768 C771 1.386 . S
H769 C785 0.930 . S
H770 C786 0.931 . S
C771 H759 0.929 . S
C771 C765 1.390 . S
C771 C768 1.386 . S
C772 C767 1.490 . S
C772 C774 1.395 . S
C772 C775 1.403 . S
H773 C779 0.930 . S
C774 H760 0.930 . S
C774 C772 1.395 . S
C774 C777 1.403 . S
C775 C772 1.403 . S
C775 C776 1.524 . S
C775 C779 1.400 . S
C776 H761 0.960 . S
C776 H762 0.960 . S
C776 H763 0.960 . S
C776 C775 1.524 . S
C777 C774 1.403 . S
C777 C778 1.392 . S
C777 C781 1.495 . S
C778 C777 1.392 . S
C778 C779 1.385 . S
C778 C780 1.478 . S
C779 H773 0.930 . S
C779 C775 1.400 . S
C779 C778 1.385 . S
C780 C778 1.478 . S
C780 C782 1.381 . S
C780 C786 1.383 . S
C781 C777 1.495 . S
C781 H787 0.959 . S
C781 H788 0.961 . S
C781 H789 0.960 . S
C782 C780 1.381 . S
C782 C783 1.394 . S
C782 H790 0.930 . S
C783 C782 1.394 . S
C783 C784 1.383 . S
C783 H791 0.929 . S
C784 C783 1.383 . S
C784 C785 1.377 . S
C785 H769 0.930 . S
C785 C784 1.377 . S
C785 C786 1.379 . S
C786 H770 0.931 . S
C786 C780 1.383 . S
C786 C785 1.379 . S
H787 C781 0.959 . S
H788 C781 0.961 . S
H789 C781 0.960 . S
H790 C782 0.930 . S
H791 C783 0.929 . S
H792 C800 0.929 . S
H793 C802 0.930 . S
H794 C804 0.930 . S
H795 C807 0.929 . S
H796 C810 0.930 . S
H797 C812 0.960 . S
H798 C812 0.960 . S
H799 C812 0.960 . S
C800 H792 0.929 . S
C800 C801 1.377 . S
C800 C802 1.384 . S
C801 C800 1.377 . S
C801 C807 1.390 . S
C802 H793 0.930 . S
C802 C800 1.384 . S
C802 C803 1.372 . S
C803 C802 1.372 . S
C803 C804 1.400 . S
C803 C808 1.490 . S
C804 H794 0.930 . S
C804 C803 1.400 . S
C804 C807 1.386 . S
H805 C821 0.930 1_554 S
H806 C822 0.931 . S
C807 H795 0.929 . S
C807 C801 1.390 . S
C807 C804 1.386 . S
C808 C803 1.490 . S
C808 C810 1.395 . S
C808 C811 1.403 . S
H809 C815 0.930 . S
C810 H796 0.930 . S
C810 C808 1.395 . S
C810 C813 1.403 . S
C811 C808 1.403 . S
C811 C812 1.524 . S
C811 C815 1.400 . S
C812 H797 0.960 . S
C812 H798 0.960 . S
C812 H799 0.960 . S
C812 C811 1.524 . S
C813 C810 1.403 . S
C813 C814 1.392 . S
C813 C817 1.495 1_554 S
C814 C813 1.392 . S
C814 C815 1.385 . S
C814 C816 1.478 . S
C815 H809 0.930 . S
C815 C811 1.400 . S
C815 C814 1.385 . S
C816 C814 1.478 . S
C816 C818 1.381 1_554 S
C816 C822 1.383 . S
C817 C813 1.495 1_556 S
C817 H823 0.959 . S
C817 H824 0.961 . S
C817 H825 0.960 . S
C818 C816 1.381 1_556 S
C818 C819 1.394 . S
C818 H826 0.930 . S
C819 C818 1.394 . S
C819 C820 1.383 . S
C819 H827 0.929 . S
C820 C819 1.383 . S
C820 C821 1.377 . S
C821 H805 0.930 1_556 S
C821 C820 1.377 . S
C821 C822 1.379 1_556 S
C822 H806 0.931 . S
C822 C816 1.383 . S
C822 C821 1.379 1_554 S
H823 C817 0.959 . S
H824 C817 0.961 . S
H825 C817 0.960 . S
H826 C818 0.930 . S
H827 C819 0.929 . S
H828 C836 0.929 . S
H829 C838 0.930 . S
H830 C840 0.930 . S
H831 C843 0.929 . S
H832 C846 0.930 . S
H833 C848 0.960 . S
H834 C848 0.960 . S
H835 C848 0.960 . S
C836 H828 0.929 . S
C836 C837 1.377 . S
C836 C838 1.384 . S
C837 C836 1.377 . S
C837 C843 1.390 . S
C838 H829 0.930 . S
C838 C836 1.384 . S
C838 C839 1.372 . S
C839 C838 1.372 . S
C839 C840 1.400 . S
C839 C844 1.490 . S
C840 H830 0.930 . S
C840 C839 1.400 . S
C840 C843 1.386 . S
H841 C857 0.930 . S
H842 C858 0.931 . S
C843 H831 0.929 . S
C843 C837 1.390 . S
C843 C840 1.386 . S
C844 C839 1.490 . S
C844 C846 1.395 . S
C844 C847 1.403 . S
H845 C851 0.930 . S
C846 H832 0.930 . S
C846 C844 1.395 . S
C846 C849 1.403 . S
C847 C844 1.403 . S
C847 C848 1.524 . S
C847 C851 1.400 . S
C848 H833 0.960 . S
C848 H834 0.960 . S
C848 H835 0.960 . S
C848 C847 1.524 . S
C849 C846 1.403 . S
C849 C850 1.392 . S
C849 C853 1.495 . S
C850 C849 1.392 . S
C850 C851 1.385 . S
C850 C852 1.478 . S
C851 H845 0.930 . S
C851 C847 1.400 . S
C851 C850 1.385 . S
C852 C850 1.478 . S
C852 C854 1.381 . S
C852 C858 1.383 1_554 S
C853 C849 1.495 . S
C853 H859 0.959 . S
C853 H860 0.961 . S
C853 H861 0.960 . S
C854 C852 1.381 . S
C854 C855 1.394 . S
C854 H862 0.930 . S
C855 C854 1.394 . S
C855 C856 1.383 1_554 S
C855 H863 0.929 . S
C856 C855 1.383 1_556 S
C856 C857 1.377 . S
C857 H841 0.930 . S
C857 C856 1.377 . S
C857 C858 1.379 . S
C858 H842 0.931 . S
C858 C852 1.383 1_556 S
C858 C857 1.379 . S
H859 C853 0.959 . S
H860 C853 0.961 . S
H861 C853 0.960 . S
H862 C854 0.930 . S
H863 C855 0.929 . S
H864 C872 0.929 . S
H865 C874 0.930 . S
H866 C876 0.930 . S
H867 C879 0.929 . S
H868 C882 0.930 . S
H869 C884 0.960 . S
H870 C884 0.960 . S
H871 C884 0.960 . S
C872 H864 0.929 . S
C872 C873 1.377 . S
C872 C874 1.384 . S
C873 C872 1.377 . S
C873 C879 1.390 . S
C874 H865 0.930 . S
C874 C872 1.384 . S
C874 C875 1.372 . S
C875 C874 1.372 . S
C875 C876 1.400 . S
C875 C880 1.490 . S
C876 H866 0.930 . S
C876 C875 1.400 . S
C876 C879 1.386 . S
H877 C893 0.930 . S
H878 C894 0.931 . S
C879 H867 0.929 . S
C879 C873 1.390 . S
C879 C876 1.386 . S
C880 C875 1.490 . S
C880 C882 1.395 . S
C880 C883 1.403 . S
H881 C887 0.930 . S
C882 H868 0.930 . S
C882 C880 1.395 . S
C882 C885 1.403 . S
C883 C880 1.403 . S
C883 C884 1.524 . S
C883 C887 1.400 . S
C884 H869 0.960 . S
C884 H870 0.960 . S
C884 H871 0.960 . S
C884 C883 1.524 . S
C885 C882 1.403 . S
C885 C886 1.392 . S
C885 C889 1.495 . S
C886 C885 1.392 . S
C886 C887 1.385 . S
C886 C888 1.478 . S
C887 H881 0.930 . S
C887 C883 1.400 . S
C887 C886 1.385 . S
C888 C886 1.478 . S
C888 C890 1.381 . S
C888 C894 1.383 . S
C889 C885 1.495 . S
C889 H895 0.959 . S
C889 H896 0.961 . S
C889 H897 0.960 . S
C890 C888 1.381 . S
C890 C891 1.394 1_554 S
C890 H898 0.930 . S
C891 C890 1.394 1_556 S
C891 C892 1.383 . S
C891 H899 0.929 . S
C892 C891 1.383 . S
C892 C893 1.377 . S
C893 H877 0.930 . S
C893 C892 1.377 . S
C893 C894 1.379 1_556 S
C894 H878 0.931 . S
C894 C888 1.383 . S
C894 C893 1.379 1_554 S
H895 C889 0.959 . S
H896 C889 0.961 . S
H897 C889 0.960 . S
H898 C890 0.930 . S
H899 C891 0.929 . S
H900 C908 0.929 . S
H901 C910 0.930 . S
H902 C912 0.930 . S
H903 C915 0.929 . S
H904 C918 0.930 . S
H905 C920 0.960 . S
H906 C920 0.960 . S
H907 C920 0.960 . S
C908 H900 0.929 . S
C908 C909 1.377 . S
C908 C910 1.384 . S
C909 C908 1.377 . S
C909 C915 1.390 . S
C910 H901 0.930 . S
C910 C908 1.384 . S
C910 C911 1.372 . S
C911 C910 1.372 . S
C911 C912 1.400 . S
C911 C916 1.490 . S
C912 H902 0.930 . S
C912 C911 1.400 . S
C912 C915 1.386 . S
H913 C929 0.930 . S
H914 C930 0.932 . S
C915 H903 0.929 . S
C915 C909 1.390 . S
C915 C912 1.386 . S
C916 C911 1.490 . S
C916 C918 1.395 . S
C916 C919 1.403 . S
H917 C923 0.930 . S
C918 H904 0.930 . S
C918 C916 1.395 . S
C918 C921 1.403 . S
C919 C916 1.403 . S
C919 C920 1.524 . S
C919 C923 1.400 . S
C920 H905 0.960 . S
C920 H906 0.960 . S
C920 H907 0.960 . S
C920 C919 1.524 . S
C921 C918 1.403 . S
C921 C922 1.392 . S
C921 C925 1.495 1_556 S
C922 C921 1.392 . S
C922 C923 1.385 . S
C922 C924 1.478 . S
C923 H917 0.930 . S
C923 C919 1.400 . S
C923 C922 1.385 . S
C924 C922 1.478 . S
C924 C926 1.381 . S
C924 C930 1.384 . S
C925 C921 1.495 1_554 S
C925 H931 0.959 . S
C925 H932 0.961 . S
C925 H933 0.960 . S
C926 C924 1.381 . S
C926 C927 1.394 1_556 S
C926 H934 0.930 . S
C927 C926 1.394 1_554 S
C927 C928 1.383 . S
C927 H935 0.929 . S
C928 C927 1.383 . S
C928 C929 1.377 . S
C929 H913 0.930 . S
C929 C928 1.377 . S
C929 C930 1.377 1_554 S
C930 H914 0.932 . S
C930 C924 1.384 . S
C930 C929 1.377 1_556 S
H931 C925 0.959 . S
H932 C925 0.961 . S
H933 C925 0.960 . S
H934 C926 0.930 . S
H935 C927 0.929 . S
H936 C944 0.929 . S
H937 C946 0.930 . S
H938 C948 0.930 . S
H939 C951 0.929 . S
H940 C954 0.930 . S
H941 C956 0.960 . S
H942 C956 0.960 . S
H943 C956 0.960 . S
C944 H936 0.929 . S
C944 C945 1.377 . S
C944 C946 1.384 . S
C945 C944 1.377 . S
C945 C951 1.390 1_554 S
C946 H937 0.930 . S
C946 C944 1.384 . S
C946 C947 1.372 1_554 S
C947 C946 1.372 1_556 S
C947 C948 1.400 . S
C947 C952 1.490 . S
C948 H938 0.930 . S
C948 C947 1.400 . S
C948 C951 1.386 . S
H949 C965 0.930 . S
H950 C966 0.931 . S
C951 H939 0.929 . S
C951 C945 1.390 1_556 S
C951 C948 1.386 . S
C952 C947 1.490 . S
C952 C954 1.395 . S
C952 C955 1.403 . S
H953 C959 0.930 . S
C954 H940 0.930 . S
C954 C952 1.395 . S
C954 C957 1.403 . S
C955 C952 1.403 . S
C955 C956 1.524 . S
C955 C959 1.400 . S
C956 H941 0.960 . S
C956 H942 0.960 . S
C956 H943 0.960 . S
C956 C955 1.524 . S
C957 C954 1.403 . S
C957 C958 1.392 . S
C957 C961 1.495 . S
C958 C957 1.392 . S
C958 C959 1.385 . S
C958 C960 1.478 . S
C959 H953 0.930 . S
C959 C955 1.400 . S
C959 C958 1.385 . S
C960 C958 1.478 . S
C960 C962 1.381 . S
C960 C966 1.383 . S
C961 C957 1.495 . S
C961 H967 0.959 . S
C961 H968 0.961 . S
C961 H969 0.960 . S
C962 C960 1.381 . S
C962 C963 1.394 . S
C962 H970 0.930 . S
C963 C962 1.394 . S
C963 C964 1.383 . S
C963 H971 0.929 . S
C964 C963 1.383 . S
C964 C965 1.377 . S
C965 H949 0.930 . S
C965 C964 1.377 . S
C965 C966 1.379 . S
C966 H950 0.931 . S
C966 C960 1.383 . S
C966 C965 1.379 . S
H967 C961 0.959 . S
H968 C961 0.961 . S
H969 C961 0.960 . S
H970 C962 0.930 . S
H971 C963 0.929 . S
H972 C980 0.929 . S
H973 C982 0.930 . S
H974 C984 0.930 . S
H975 C987 0.929 . S
H976 C990 0.930 . S
H977 C992 0.960 . S
H978 C992 0.960 . S
H979 C992 0.960 . S
C980 H972 0.929 . S
C980 C981 1.377 . S
C980 C982 1.384 . S
C981 C980 1.377 . S
C981 C987 1.390 . S
C982 H973 0.930 . S
C982 C980 1.384 . S
C982 C983 1.372 . S
C983 C982 1.372 . S
C983 C984 1.400 . S
C983 C988 1.490 . S
C984 H974 0.930 . S
C984 C983 1.400 . S
C984 C987 1.386 . S
H985 C1001 0.930 . S
H986 C1002 0.931 . S
C987 H975 0.929 . S
C987 C981 1.390 . S
C987 C984 1.386 . S
C988 C983 1.490 . S
C988 C990 1.395 . S
C988 C991 1.403 . S
H989 C995 0.930 . S
C990 H976 0.930 . S
C990 C988 1.395 . S
C990 C993 1.403 . S
C991 C988 1.403 . S
C991 C992 1.524 . S
C991 C995 1.400 . S
C992 H977 0.960 . S
C992 H978 0.960 . S
C992 H979 0.960 . S
C992 C991 1.524 . S
C993 C990 1.403 . S
C993 C994 1.392 . S
C993 C997 1.495 . S
C994 C993 1.392 . S
C994 C995 1.385 . S
C994 C996 1.478 . S
C995 H989 0.930 . S
C995 C991 1.400 . S
C995 C994 1.385 . S
C996 C994 1.478 . S
C996 C998 1.381 . S
C996 C1002 1.383 1_556 S
C997 C993 1.495 . S
C997 H1003 0.959 . S
C997 H1004 0.961 1_556 S
C997 H1005 0.960 . S
C998 C996 1.381 . S
C998 C999 1.394 1_556 S
C998 H1006 0.930 . S
C999 C998 1.394 1_554 S
C999 C1000 1.383 . S
C999 H1007 0.929 . S
C1000 C999 1.383 . S
C1000 C1001 1.377 . S
C1001 H985 0.930 . S
C1001 C1000 1.377 . S
C1001 C1002 1.379 . S
C1002 H986 0.931 . S
C1002 C996 1.383 1_554 S
C1002 C1001 1.379 . S
H1003 C997 0.959 . S
H1004 C997 0.961 1_554 S
H1005 C997 0.960 . S
H1006 C998 0.930 . S
H1007 C999 0.929 . S
H1008 C1016 0.929 . S
H1009 C1018 0.930 . S
H1010 C1020 0.930 . S
H1011 C1023 0.929 . S
H1012 C1026 0.930 . S
H1013 C1028 0.960 . S
H1014 C1028 0.960 . S
H1015 C1028 0.960 . S
C1016 H1008 0.929 . S
C1016 C1017 1.377 . S
C1016 C1018 1.384 . S
C1017 C1016 1.377 . S
C1017 C1023 1.390 . S
C1018 H1009 0.930 . S
C1018 C1016 1.384 . S
C1018 C1019 1.372 . S
C1019 C1018 1.372 . S
C1019 C1020 1.400 . S
C1019 C1024 1.490 . S
C1020 H1010 0.930 . S
C1020 C1019 1.400 . S
C1020 C1023 1.386 . S
H1021 C1037 0.930 . S
H1022 C1038 0.931 . S
C1023 H1011 0.929 . S
C1023 C1017 1.390 . S
C1023 C1020 1.386 . S
C1024 C1019 1.490 . S
C1024 C1026 1.395 . S
C1024 C1027 1.403 . S
H1025 C1031 0.930 . S
C1026 H1012 0.930 . S
C1026 C1024 1.395 . S
C1026 C1029 1.403 . S
C1027 C1024 1.403 . S
C1027 C1028 1.524 . S
C1027 C1031 1.400 . S
C1028 H1013 0.960 . S
C1028 H1014 0.960 . S
C1028 H1015 0.960 . S
C1028 C1027 1.524 . S
C1029 C1026 1.403 . S
C1029 C1030 1.392 . S
C1029 C1033 1.495 . S
C1030 C1029 1.392 . S
C1030 C1031 1.385 . S
C1030 C1032 1.478 . S
C1031 H1025 0.930 . S
C1031 C1027 1.400 . S
C1031 C1030 1.385 . S
C1032 C1030 1.478 . S
C1032 C1034 1.381 . S
C1032 C1038 1.383 . S
C1033 C1029 1.495 . S
C1033 H1039 0.959 . S
C1033 H1040 0.961 . S
C1033 H1041 0.960 . S
C1034 C1032 1.381 . S
C1034 C1035 1.394 . S
C1034 H1042 0.930 . S
C1035 C1034 1.394 . S
C1035 C1036 1.383 . S
C1035 H1043 0.929 . S
C1036 C1035 1.383 . S
C1036 C1037 1.377 . S
C1037 H1021 0.930 . S
C1037 C1036 1.377 . S
C1037 C1038 1.379 . S
C1038 H1022 0.931 . S
C1038 C1032 1.383 . S
C1038 C1037 1.379 . S
H1039 C1033 0.959 . S
H1040 C1033 0.961 . S
H1041 C1033 0.960 . S
H1042 C1034 0.930 . S
H1043 C1035 0.929 . S
H1044 C1052 0.929 . S
H1045 C1054 0.930 . S
H1046 C1056 0.930 . S
H1047 C1059 0.929 . S
H1048 C1062 0.930 . S
H1049 C1064 0.960 . S
H1050 C1064 0.960 . S
H1051 C1064 0.960 . S
C1052 H1044 0.929 . S
C1052 C1053 1.377 . S
C1052 C1054 1.384 . S
C1053 C1052 1.377 . S
C1053 C1059 1.390 . S
C1054 H1045 0.930 . S
C1054 C1052 1.384 . S
C1054 C1055 1.372 . S
C1055 C1054 1.372 . S
C1055 C1056 1.400 . S
C1055 C1060 1.490 . S
C1056 H1046 0.930 . S
C1056 C1055 1.400 . S
C1056 C1059 1.386 . S
H1057 C1073 0.930 . S
H1058 C1074 0.931 . S
C1059 H1047 0.929 . S
C1059 C1053 1.390 . S
C1059 C1056 1.386 . S
C1060 C1055 1.490 . S
C1060 C1062 1.395 . S
C1060 C1063 1.403 . S
H1061 C1067 0.930 . S
C1062 H1048 0.930 . S
C1062 C1060 1.395 . S
C1062 C1065 1.403 . S
C1063 C1060 1.403 . S
C1063 C1064 1.524 . S
C1063 C1067 1.400 . S
C1064 H1049 0.960 . S
C1064 H1050 0.960 . S
C1064 H1051 0.960 . S
C1064 C1063 1.524 . S
C1065 C1062 1.403 . S
C1065 C1066 1.392 . S
C1065 C1069 1.495 . S
C1066 C1065 1.392 . S
C1066 C1067 1.385 . S
C1066 C1068 1.478 . S
C1067 H1061 0.930 . S
C1067 C1063 1.400 . S
C1067 C1066 1.385 . S
C1068 C1066 1.478 . S
C1068 C1070 1.381 . S
C1068 C1074 1.383 . S
C1069 C1065 1.495 . S
C1069 H1075 0.959 . S
C1069 H1076 0.961 . S
C1069 H1077 0.960 . S
C1070 C1068 1.381 . S
C1070 C1071 1.394 . S
C1070 H1078 0.930 . S
C1071 C1070 1.394 . S
C1071 C1072 1.383 . S
C1071 H1079 0.929 . S
C1072 C1071 1.383 . S
C1072 C1073 1.377 . S
C1073 H1057 0.930 . S
C1073 C1072 1.377 . S
C1073 C1074 1.379 . S
C1074 H1058 0.931 . S
C1074 C1068 1.383 . S
C1074 C1073 1.379 . S
H1075 C1069 0.959 . S
H1076 C1069 0.961 . S
H1077 C1069 0.960 . S
H1078 C1070 0.930 . S
H1079 C1071 0.929 . S
H1080 C1088 0.929 . S
H1081 C1090 0.930 . S
H1082 C1092 0.930 . S
H1083 C1095 0.929 . S
H1084 C1098 0.930 . S
H1085 C1100 0.960 . S
H1086 C1100 0.960 . S
H1087 C1100 0.960 . S
C1088 H1080 0.929 . S
C1088 C1089 1.377 . S
C1088 C1090 1.384 . S
C1089 C1088 1.377 . S
C1089 C1095 1.390 . S
C1090 H1081 0.930 . S
C1090 C1088 1.384 . S
C1090 C1091 1.372 . S
C1091 C1090 1.372 . S
C1091 C1092 1.400 . S
C1091 C1096 1.490 . S
C1092 H1082 0.930 . S
C1092 C1091 1.400 . S
C1092 C1095 1.386 . S
H1093 C1109 0.930 . S
H1094 C1110 0.931 . S
C1095 H1083 0.929 . S
C1095 C1089 1.390 . S
C1095 C1092 1.386 . S
C1096 C1091 1.490 . S
C1096 C1098 1.395 . S
C1096 C1099 1.403 . S
H1097 C1103 0.930 . S
C1098 H1084 0.930 . S
C1098 C1096 1.395 . S
C1098 C1101 1.403 . S
C1099 C1096 1.403 . S
C1099 C1100 1.524 . S
C1099 C1103 1.400 . S
C1100 H1085 0.960 . S
C1100 H1086 0.960 . S
C1100 H1087 0.960 . S
C1100 C1099 1.524 . S
C1101 C1098 1.403 . S
C1101 C1102 1.392 . S
C1101 C1105 1.495 . S
C1102 C1101 1.392 . S
C1102 C1103 1.385 . S
C1102 C1104 1.478 . S
C1103 H1097 0.930 . S
C1103 C1099 1.400 . S
C1103 C1102 1.385 . S
C1104 C1102 1.478 . S
C1104 C1106 1.381 . S
C1104 C1110 1.383 . S
C1105 C1101 1.495 . S
C1105 H1111 0.959 . S
C1105 H1112 0.961 . S
C1105 H1113 0.960 . S
C1106 C1104 1.381 . S
C1106 C1107 1.394 . S
C1106 H1114 0.930 . S
C1107 C1106 1.394 . S
C1107 C1108 1.383 . S
C1107 H1115 0.929 . S
C1108 C1107 1.383 . S
C1108 C1109 1.377 . S
C1109 H1093 0.930 . S
C1109 C1108 1.377 . S
C1109 C1110 1.379 . S
C1110 H1094 0.931 . S
C1110 C1104 1.383 . S
C1110 C1109 1.379 . S
H1111 C1105 0.959 . S
H1112 C1105 0.961 . S
H1113 C1105 0.960 . S
H1114 C1106 0.930 . S
H1115 C1107 0.929 . S
H1116 C1124 0.929 . S
H1117 C1126 0.930 . S
H1118 C1128 0.930 . S
H1119 C1131 0.929 . S
H1120 C1134 0.930 . S
H1121 C1136 0.960 . S
H1122 C1136 0.960 . S
H1123 C1136 0.960 . S
C1124 H1116 0.929 . S
C1124 C1125 1.377 . S
C1124 C1126 1.384 . S
C1125 C1124 1.377 . S
C1125 C1131 1.390 . S
C1126 H1117 0.930 . S
C1126 C1124 1.384 . S
C1126 C1127 1.372 . S
C1127 C1126 1.372 . S
C1127 C1128 1.400 . S
C1127 C1132 1.490 . S
C1128 H1118 0.930 . S
C1128 C1127 1.400 . S
C1128 C1131 1.386 . S
H1129 C1145 0.930 . S
H1130 C1146 0.931 . S
C1131 H1119 0.929 . S
C1131 C1125 1.390 . S
C1131 C1128 1.386 . S
C1132 C1127 1.490 . S
C1132 C1134 1.395 . S
C1132 C1135 1.403 . S
H1133 C1139 0.930 . S
C1134 H1120 0.930 . S
C1134 C1132 1.395 . S
C1134 C1137 1.403 . S
C1135 C1132 1.403 . S
C1135 C1136 1.524 . S
C1135 C1139 1.400 . S
C1136 H1121 0.960 . S
C1136 H1122 0.960 . S
C1136 H1123 0.960 . S
C1136 C1135 1.524 . S
C1137 C1134 1.403 . S
C1137 C1138 1.392 . S
C1137 C1141 1.495 . S
C1138 C1137 1.392 . S
C1138 C1139 1.385 . S
C1138 C1140 1.478 . S
C1139 H1133 0.930 . S
C1139 C1135 1.400 . S
C1139 C1138 1.385 . S
C1140 C1138 1.478 . S
C1140 C1142 1.381 . S
C1140 C1146 1.383 . S
C1141 C1137 1.495 . S
C1141 H1147 0.959 . S
C1141 H1148 0.961 . S
C1141 H1149 0.960 . S
C1142 C1140 1.381 . S
C1142 C1143 1.394 . S
C1142 H1150 0.930 . S
C1143 C1142 1.394 . S
C1143 C1144 1.383 . S
C1143 H1151 0.929 1_556 S
C1144 C1143 1.383 . S
C1144 C1145 1.377 . S
C1145 H1129 0.930 . S
C1145 C1144 1.377 . S
C1145 C1146 1.379 . S
C1146 H1130 0.931 . S
C1146 C1140 1.383 . S
C1146 C1145 1.379 . S
H1147 C1141 0.959 . S
H1148 C1141 0.961 . S
H1149 C1141 0.960 . S
H1150 C1142 0.930 . S
H1151 C1143 0.929 1_554 S
H1152 C1160 0.929 . S
H1153 C1162 0.930 . S
H1154 C1164 0.930 . S
H1155 C1167 0.929 . S
H1156 C1170 0.930 . S
H1157 C1172 0.960 . S
H1158 C1172 0.960 . S
H1159 C1172 0.960 . S
C1160 H1152 0.929 . S
C1160 C1161 1.377 . S
C1160 C1162 1.384 . S
C1161 C1160 1.377 . S
C1161 C1167 1.390 . S
C1162 H1153 0.930 . S
C1162 C1160 1.384 . S
C1162 C1163 1.372 . S
C1163 C1162 1.372 . S
C1163 C1164 1.400 . S
C1163 C1168 1.490 . S
C1164 H1154 0.930 . S
C1164 C1163 1.400 . S
C1164 C1167 1.386 . S
H1165 C1181 0.930 1_554 S
H1166 C1182 0.931 . S
C1167 H1155 0.929 . S
C1167 C1161 1.390 . S
C1167 C1164 1.386 . S
C1168 C1163 1.490 . S
C1168 C1170 1.395 . S
C1168 C1171 1.403 . S
H1169 C1175 0.930 . S
C1170 H1156 0.930 . S
C1170 C1168 1.395 . S
C1170 C1173 1.403 . S
C1171 C1168 1.403 . S
C1171 C1172 1.524 . S
C1171 C1175 1.400 . S
C1172 H1157 0.960 . S
C1172 H1158 0.960 . S
C1172 H1159 0.960 . S
C1172 C1171 1.524 . S
C1173 C1170 1.403 . S
C1173 C1174 1.392 . S
C1173 C1177 1.495 . S
C1174 C1173 1.392 . S
C1174 C1175 1.385 . S
C1174 C1176 1.478 . S
C1175 H1169 0.930 . S
C1175 C1171 1.400 . S
C1175 C1174 1.385 . S
C1176 C1174 1.478 . S
C1176 C1178 1.381 . S
C1176 C1182 1.383 . S
C1177 C1173 1.495 . S
C1177 H1183 0.959 . S
C1177 H1184 0.961 . S
C1177 H1185 0.960 . S
C1178 C1176 1.381 . S
C1178 C1179 1.394 . S
C1178 H1186 0.930 . S
C1179 C1178 1.394 . S
C1179 C1180 1.383 . S
C1179 H1187 0.929 . S
C1180 C1179 1.383 . S
C1180 C1181 1.377 . S
C1181 H1165 0.930 1_556 S
C1181 C1180 1.377 . S
C1181 C1182 1.379 . S
C1182 H1166 0.931 . S
C1182 C1176 1.383 . S
C1182 C1181 1.379 . S
H1183 C1177 0.959 . S
H1184 C1177 0.961 . S
H1185 C1177 0.960 . S
H1186 C1178 0.930 . S
H1187 C1179 0.929 . S
H1188 C1196 0.929 . S
H1189 C1198 0.930 . S
H1190 C1200 0.930 . S
H1191 C1203 0.929 . S
H1192 C1206 0.930 . S
H1193 C1208 0.960 . S
H1194 C1208 0.960 . S
H1195 C1208 0.960 . S
C1196 H1188 0.929 . S
C1196 C1197 1.377 . S
C1196 C1198 1.384 . S
C1197 C1196 1.377 . S
C1197 C1203 1.390 . S
C1198 H1189 0.930 . S
C1198 C1196 1.384 . S
C1198 C1199 1.372 . S
C1199 C1198 1.372 . S
C1199 C1200 1.400 . S
C1199 C1204 1.490 . S
C1200 H1190 0.930 . S
C1200 C1199 1.400 . S
C1200 C1203 1.386 . S
H1201 C1217 0.930 . S
H1202 C1218 0.931 . S
C1203 H1191 0.929 . S
C1203 C1197 1.390 . S
C1203 C1200 1.386 . S
C1204 C1199 1.490 . S
C1204 C1206 1.395 . S
C1204 C1207 1.403 . S
H1205 C1211 0.930 . S
C1206 H1192 0.930 . S
C1206 C1204 1.395 . S
C1206 C1209 1.403 . S
C1207 C1204 1.403 . S
C1207 C1208 1.524 . S
C1207 C1211 1.400 . S
C1208 H1193 0.960 . S
C1208 H1194 0.960 . S
C1208 H1195 0.960 . S
C1208 C1207 1.524 . S
C1209 C1206 1.403 . S
C1209 C1210 1.392 . S
C1209 C1213 1.495 . S
C1210 C1209 1.392 . S
C1210 C1211 1.385 . S
C1210 C1212 1.478 . S
C1211 H1205 0.930 . S
C1211 C1207 1.400 . S
C1211 C1210 1.385 . S
C1212 C1210 1.478 . S
C1212 C1214 1.381 . S
C1212 C1218 1.383 . S
C1213 C1209 1.495 . S
C1213 H1219 0.959 . S
C1213 H1220 0.961 . S
C1213 H1221 0.960 . S
C1214 C1212 1.381 . S
C1214 C1215 1.394 . S
C1214 H1222 0.930 . S
C1215 C1214 1.394 . S
C1215 C1216 1.383 . S
C1215 H1223 0.929 . S
C1216 C1215 1.383 . S
C1216 C1217 1.377 . S
C1217 H1201 0.930 . S
C1217 C1216 1.377 . S
C1217 C1218 1.379 . S
C1218 H1202 0.931 . S
C1218 C1212 1.383 . S
C1218 C1217 1.379 . S
H1219 C1213 0.959 . S
H1220 C1213 0.961 . S
H1221 C1213 0.960 . S
H1222 C1214 0.930 . S
H1223 C1215 0.929 . S
H1224 C1232 0.929 . S
H1225 C1234 0.930 . S
H1226 C1236 0.930 . S
H1227 C1239 0.929 . S
H1228 C1242 0.930 . S
H1229 C1244 0.960 . S
H1230 C1244 0.960 . S
H1231 C1244 0.960 . S
C1232 H1224 0.929 . S
C1232 C1233 1.377 . S
C1232 C1234 1.384 . S
C1233 C1232 1.377 . S
C1233 C1239 1.390 . S
C1234 H1225 0.930 . S
C1234 C1232 1.384 . S
C1234 C1235 1.372 . S
C1235 C1234 1.372 . S
C1235 C1236 1.400 . S
C1235 C1240 1.490 . S
C1236 H1226 0.930 . S
C1236 C1235 1.400 . S
C1236 C1239 1.386 . S
H1237 C1253 0.930 . S
H1238 C1254 0.931 . S
C1239 H1227 0.929 . S
C1239 C1233 1.390 . S
C1239 C1236 1.386 . S
C1240 C1235 1.490 . S
C1240 C1242 1.395 . S
C1240 C1243 1.403 . S
H1241 C1247 0.930 . S
C1242 H1228 0.930 . S
C1242 C1240 1.395 . S
C1242 C1245 1.403 . S
C1243 C1240 1.403 . S
C1243 C1244 1.524 . S
C1243 C1247 1.400 . S
C1244 H1229 0.960 . S
C1244 H1230 0.960 . S
C1244 H1231 0.960 . S
C1244 C1243 1.524 . S
C1245 C1242 1.403 . S
C1245 C1246 1.392 . S
C1245 C1249 1.495 . S
C1246 C1245 1.392 . S
C1246 C1247 1.385 . S
C1246 C1248 1.478 . S
C1247 H1241 0.930 . S
C1247 C1243 1.400 . S
C1247 C1246 1.385 . S
C1248 C1246 1.478 . S
C1248 C1250 1.381 . S
C1248 C1254 1.383 . S
C1249 C1245 1.495 . S
C1249 H1255 0.959 . S
C1249 H1256 0.961 . S
C1249 H1257 0.960 . S
C1250 C1248 1.381 . S
C1250 C1251 1.394 . S
C1250 H1258 0.930 . S
C1251 C1250 1.394 . S
C1251 C1252 1.383 . S
C1251 H1259 0.929 . S
C1252 C1251 1.383 . S
C1252 C1253 1.377 . S
C1253 H1237 0.930 . S
C1253 C1252 1.377 . S
C1253 C1254 1.379 . S
C1254 H1238 0.931 . S
C1254 C1248 1.383 . S
C1254 C1253 1.379 . S
H1255 C1249 0.959 . S
H1256 C1249 0.961 . S
H1257 C1249 0.960 . S
H1258 C1250 0.930 . S
H1259 C1251 0.929 . S
H1260 C1268 0.929 . S
H1261 C1270 0.930 . S
H1262 C1272 0.930 . S
H1263 C1275 0.929 . S
H1264 C1278 0.930 . S
H1265 C1280 0.960 . S
H1266 C1280 0.960 . S
H1267 C1280 0.960 . S
C1268 H1260 0.929 . S
C1268 C1269 1.377 . S
C1268 C1270 1.384 . S
C1269 C1268 1.377 . S
C1269 C1275 1.390 . S
C1270 H1261 0.930 . S
C1270 C1268 1.384 . S
C1270 C1271 1.372 . S
C1271 C1270 1.372 . S
C1271 C1272 1.400 . S
C1271 C1276 1.490 . S
C1272 H1262 0.930 . S
C1272 C1271 1.400 . S
C1272 C1275 1.386 . S
H1273 C1289 0.930 . S
H1274 C1290 0.931 . S
C1275 H1263 0.929 . S
C1275 C1269 1.390 . S
C1275 C1272 1.386 . S
C1276 C1271 1.490 . S
C1276 C1278 1.395 . S
C1276 C1279 1.403 . S
H1277 C1283 0.930 . S
C1278 H1264 0.930 . S
C1278 C1276 1.395 . S
C1278 C1281 1.403 . S
C1279 C1276 1.403 . S
C1279 C1280 1.524 . S
C1279 C1283 1.400 . S
C1280 H1265 0.960 . S
C1280 H1266 0.960 . S
C1280 H1267 0.960 . S
C1280 C1279 1.524 . S
C1281 C1278 1.403 . S
C1281 C1282 1.392 . S
C1281 C1285 1.495 . S
C1282 C1281 1.392 . S
C1282 C1283 1.385 . S
C1282 C1284 1.478 . S
C1283 H1277 0.930 . S
C1283 C1279 1.400 . S
C1283 C1282 1.385 . S
C1284 C1282 1.478 . S
C1284 C1286 1.381 . S
C1284 C1290 1.383 . S
C1285 C1281 1.495 . S
C1285 H1291 0.959 . S
C1285 H1292 0.961 . S
C1285 H1293 0.960 . S
C1286 C1284 1.381 . S
C1286 C1287 1.394 . S
C1286 H1294 0.930 . S
C1287 C1286 1.394 . S
C1287 C1288 1.383 . S
C1287 H1295 0.929 . S
C1288 C1287 1.383 . S
C1288 C1289 1.377 . S
C1289 H1273 0.930 . S
C1289 C1288 1.377 . S
C1289 C1290 1.379 . S
C1290 H1274 0.931 . S
C1290 C1284 1.383 . S
C1290 C1289 1.379 . S
H1291 C1285 0.959 . S
H1292 C1285 0.961 . S
H1293 C1285 0.960 . S
H1294 C1286 0.930 . S
H1295 C1287 0.929 . S
H1296 C1304 0.929 . S
H1297 C1306 0.930 . S
H1298 C1308 0.930 . S
H1299 C1311 0.929 . S
H1300 C1314 0.930 . S
H1301 C1316 0.960 . S
H1302 C1316 0.960 . S
H1303 C1316 0.960 . S
C1304 H1296 0.929 . S
C1304 C1305 1.377 . S
C1304 C1306 1.384 . S
C1305 C1304 1.377 . S
C1305 C1311 1.390 . S
C1306 H1297 0.930 . S
C1306 C1304 1.384 . S
C1306 C1307 1.372 . S
C1307 C1306 1.372 . S
C1307 C1308 1.400 . S
C1307 C1312 1.490 . S
C1308 H1298 0.930 . S
C1308 C1307 1.400 . S
C1308 C1311 1.386 . S
H1309 C1325 0.930 . S
H1310 C1326 0.931 . S
C1311 H1299 0.929 . S
C1311 C1305 1.390 . S
C1311 C1308 1.386 . S
C1312 C1307 1.490 . S
C1312 C1314 1.395 . S
C1312 C1315 1.403 . S
H1313 C1319 0.930 . S
C1314 H1300 0.930 . S
C1314 C1312 1.395 . S
C1314 C1317 1.403 . S
C1315 C1312 1.403 . S
C1315 C1316 1.524 . S
C1315 C1319 1.400 . S
C1316 H1301 0.960 . S
C1316 H1302 0.960 . S
C1316 H1303 0.960 . S
C1316 C1315 1.524 . S
C1317 C1314 1.403 . S
C1317 C1318 1.392 . S
C1317 C1321 1.495 . S
C1318 C1317 1.392 . S
C1318 C1319 1.385 . S
C1318 C1320 1.478 . S
C1319 H1313 0.930 . S
C1319 C1315 1.400 . S
C1319 C1318 1.385 . S
C1320 C1318 1.478 . S
C1320 C1322 1.381 . S
C1320 C1326 1.383 . S
C1321 C1317 1.495 . S
C1321 H1327 0.959 . S
C1321 H1328 0.961 . S
C1321 H1329 0.960 . S
C1322 C1320 1.381 . S
C1322 C1323 1.394 . S
C1322 H1330 0.930 . S
C1323 C1322 1.394 . S
C1323 C1324 1.383 . S
C1323 H1331 0.929 . S
C1324 C1323 1.383 . S
C1324 C1325 1.377 . S
C1325 H1309 0.930 . S
C1325 C1324 1.377 . S
C1325 C1326 1.379 . S
C1326 H1310 0.931 . S
C1326 C1320 1.383 . S
C1326 C1325 1.379 . S
H1327 C1321 0.959 . S
H1328 C1321 0.961 . S
H1329 C1321 0.960 . S
H1330 C1322 0.930 . S
H1331 C1323 0.929 . S
H1332 C1340 0.929 . S
H1333 C1342 0.930 . S
H1334 C1344 0.930 . S
H1335 C1347 0.929 . S
H1336 C1350 0.930 . S
H1337 C1352 0.960 . S
H1338 C1352 0.960 . S
H1339 C1352 0.960 . S
C1340 H1332 0.929 . S
C1340 C1341 1.377 . S
C1340 C1342 1.384 . S
C1341 C1340 1.377 . S
C1341 C1347 1.390 . S
C1342 H1333 0.930 . S
C1342 C1340 1.384 . S
C1342 C1343 1.372 . S
C1343 C1342 1.372 . S
C1343 C1344 1.400 . S
C1343 C1348 1.490 . S
C1344 H1334 0.930 . S
C1344 C1343 1.400 . S
C1344 C1347 1.386 . S
H1345 C1361 0.930 . S
H1346 C1362 0.931 . S
C1347 H1335 0.929 . S
C1347 C1341 1.390 . S
C1347 C1344 1.386 . S
C1348 C1343 1.490 . S
C1348 C1350 1.395 . S
C1348 C1351 1.403 . S
H1349 C1355 0.930 . S
C1350 H1336 0.930 . S
C1350 C1348 1.395 . S
C1350 C1353 1.403 . S
C1351 C1348 1.403 . S
C1351 C1352 1.524 . S
C1351 C1355 1.400 . S
C1352 H1337 0.960 . S
C1352 H1338 0.960 . S
C1352 H1339 0.960 . S
C1352 C1351 1.524 . S
C1353 C1350 1.403 . S
C1353 C1354 1.392 . S
C1353 C1357 1.495 . S
C1354 C1353 1.392 . S
C1354 C1355 1.385 . S
C1354 C1356 1.478 . S
C1355 H1349 0.930 . S
C1355 C1351 1.400 . S
C1355 C1354 1.385 . S
C1356 C1354 1.478 . S
C1356 C1358 1.381 . S
C1356 C1362 1.383 . S
C1357 C1353 1.495 . S
C1357 H1363 0.959 . S
C1357 H1364 0.961 . S
C1357 H1365 0.960 . S
C1358 C1356 1.381 . S
C1358 C1359 1.394 . S
C1358 H1366 0.930 . S
C1359 C1358 1.394 . S
C1359 C1360 1.383 . S
C1359 H1367 0.929 . S
C1360 C1359 1.383 . S
C1360 C1361 1.377 . S
C1361 H1345 0.930 . S
C1361 C1360 1.377 . S
C1361 C1362 1.379 . S
C1362 H1346 0.931 . S
C1362 C1356 1.383 . S
C1362 C1361 1.379 . S
H1363 C1357 0.959 . S
H1364 C1357 0.961 . S
H1365 C1357 0.960 . S
H1366 C1358 0.930 . S
H1367 C1359 0.929 . S
H1368 C1376 0.929 . S
H1369 C1378 0.930 . S
H1370 C1380 0.930 . S
H1371 C1383 0.929 1_556 S
H1372 C1386 0.930 . S
H1373 C1388 0.960 . S
H1374 C1388 0.960 . S
H1375 C1388 0.960 . S
C1376 H1368 0.929 . S
C1376 C1377 1.377 . S
C1376 C1378 1.384 . S
C1377 C1376 1.377 . S
C1377 C1383 1.390 . S
C1378 H1369 0.930 . S
C1378 C1376 1.384 . S
C1378 C1379 1.372 . S
C1379 C1378 1.372 . S
C1379 C1380 1.400 . S
C1379 C1384 1.490 . S
C1380 H1370 0.930 . S
C1380 C1379 1.400 . S
C1380 C1383 1.386 . S
H1381 C1397 0.930 . S
H1382 C1398 0.931 . S
C1383 H1371 0.929 1_554 S
C1383 C1377 1.390 . S
C1383 C1380 1.386 . S
C1384 C1379 1.490 . S
C1384 C1386 1.395 . S
C1384 C1387 1.403 . S
H1385 C1391 0.930 . S
C1386 H1372 0.930 . S
C1386 C1384 1.395 . S
C1386 C1389 1.403 . S
C1387 C1384 1.403 . S
C1387 C1388 1.524 . S
C1387 C1391 1.400 . S
C1388 H1373 0.960 . S
C1388 H1374 0.960 . S
C1388 H1375 0.960 . S
C1388 C1387 1.524 . S
C1389 C1386 1.403 . S
C1389 C1390 1.392 . S
C1389 C1393 1.495 . S
C1390 C1389 1.392 . S
C1390 C1391 1.385 . S
C1390 C1392 1.478 . S
C1391 H1385 0.930 . S
C1391 C1387 1.400 . S
C1391 C1390 1.385 . S
C1392 C1390 1.478 . S
C1392 C1394 1.381 . S
C1392 C1398 1.383 . S
C1393 C1389 1.495 . S
C1393 H1399 0.959 . S
C1393 H1400 0.961 . S
C1393 H1401 0.960 . S
C1394 C1392 1.381 . S
C1394 C1395 1.394 . S
C1394 H1402 0.930 . S
C1395 C1394 1.394 . S
C1395 C1396 1.383 . S
C1395 H1403 0.929 . S
C1396 C1395 1.383 . S
C1396 C1397 1.377 . S
C1397 H1381 0.930 . S
C1397 C1396 1.377 . S
C1397 C1398 1.379 . S
C1398 H1382 0.931 . S
C1398 C1392 1.383 . S
C1398 C1397 1.379 . S
H1399 C1393 0.959 . S
H1400 C1393 0.961 . S
H1401 C1393 0.960 . S
H1402 C1394 0.930 . S
H1403 C1395 0.929 . S
H1404 C1412 0.929 . S
H1405 C1414 0.930 . S
H1406 C1416 0.930 . S
H1407 C1419 0.929 1_556 S
H1408 C1422 0.930 . S
H1409 C1424 0.960 . S
H1410 C1424 0.960 . S
H1411 C1424 0.960 . S
C1412 H1404 0.929 . S
C1412 C1413 1.377 . S
C1412 C1414 1.384 . S
C1413 C1412 1.377 . S
C1413 C1419 1.390 . S
C1414 H1405 0.930 . S
C1414 C1412 1.384 . S
C1414 C1415 1.372 . S
C1415 C1414 1.372 . S
C1415 C1416 1.400 . S
C1415 C1420 1.490 . S
C1416 H1406 0.930 . S
C1416 C1415 1.400 . S
C1416 C1419 1.386 . S
H1417 C1433 0.930 . S
H1418 C1434 0.931 . S
C1419 H1407 0.929 1_554 S
C1419 C1413 1.390 . S
C1419 C1416 1.386 . S
C1420 C1415 1.490 . S
C1420 C1422 1.395 . S
C1420 C1423 1.403 . S
H1421 C1427 0.930 . S
C1422 H1408 0.930 . S
C1422 C1420 1.395 . S
C1422 C1425 1.403 . S
C1423 C1420 1.403 . S
C1423 C1424 1.524 . S
C1423 C1427 1.400 . S
C1424 H1409 0.960 . S
C1424 H1410 0.960 . S
C1424 H1411 0.960 . S
C1424 C1423 1.524 . S
C1425 C1422 1.403 . S
C1425 C1426 1.392 . S
C1425 C1429 1.495 . S
C1426 C1425 1.392 . S
C1426 C1427 1.385 . S
C1426 C1428 1.478 . S
C1427 H1421 0.930 . S
C1427 C1423 1.400 . S
C1427 C1426 1.385 . S
C1428 C1426 1.478 . S
C1428 C1430 1.381 . S
C1428 C1434 1.383 . S
C1429 C1425 1.495 . S
C1429 H1435 0.959 . S
C1429 H1436 0.961 . S
C1429 H1437 0.960 . S
C1430 C1428 1.381 . S
C1430 C1431 1.394 . S
C1430 H1438 0.930 . S
C1431 C1430 1.394 . S
C1431 C1432 1.383 . S
C1431 H1439 0.929 . S
C1432 C1431 1.383 . S
C1432 C1433 1.377 . S
C1433 H1417 0.930 . S
C1433 C1432 1.377 . S
C1433 C1434 1.379 . S
C1434 H1418 0.931 . S
C1434 C1428 1.383 . S
C1434 C1433 1.379 . S
H1435 C1429 0.959 . S
H1436 C1429 0.961 . S
H1437 C1429 0.960 . S
H1438 C1430 0.930 . S
H1439 C1431 0.929 . S
H1440 C1448 0.929 . S
H1441 C1450 0.930 . S
H1442 C1452 0.930 . S
H1443 C1455 0.929 . S
H1444 C1458 0.930 . S
H1445 C1460 0.960 . S
H1446 C1460 0.960 . S
H1447 C1460 0.960 . S
C1448 H1440 0.929 . S
C1448 C1449 1.377 . S
C1448 C1450 1.384 . S
C1449 C1448 1.377 . S
C1449 C1455 1.390 . S
C1450 H1441 0.930 . S
C1450 C1448 1.384 . S
C1450 C1451 1.372 . S
C1451 C1450 1.372 . S
C1451 C1452 1.400 . S
C1451 C1456 1.490 . S
C1452 H1442 0.930 . S
C1452 C1451 1.400 . S
C1452 C1455 1.386 . S
H1453 C1469 0.930 . S
H1454 C1470 0.931 . S
C1455 H1443 0.929 . S
C1455 C1449 1.390 . S
C1455 C1452 1.386 . S
C1456 C1451 1.490 . S
C1456 C1458 1.395 . S
C1456 C1459 1.403 . S
H1457 C1463 0.930 . S
C1458 H1444 0.930 . S
C1458 C1456 1.395 . S
C1458 C1461 1.403 . S
C1459 C1456 1.403 . S
C1459 C1460 1.524 . S
C1459 C1463 1.400 . S
C1460 H1445 0.960 . S
C1460 H1446 0.960 . S
C1460 H1447 0.960 . S
C1460 C1459 1.524 . S
C1461 C1458 1.403 . S
C1461 C1462 1.392 . S
C1461 C1465 1.495 . S
C1462 C1461 1.392 . S
C1462 C1463 1.385 . S
C1462 C1464 1.478 . S
C1463 H1457 0.930 . S
C1463 C1459 1.400 . S
C1463 C1462 1.385 . S
C1464 C1462 1.478 . S
C1464 C1466 1.381 . S
C1464 C1470 1.383 . S
C1465 C1461 1.495 . S
C1465 H1471 0.959 . S
C1465 H1472 0.961 . S
C1465 H1473 0.960 . S
C1466 C1464 1.381 . S
C1466 C1467 1.394 . S
C1466 H1474 0.930 . S
C1467 C1466 1.394 . S
C1467 C1468 1.383 . S
C1467 H1475 0.929 . S
C1468 C1467 1.383 . S
C1468 C1469 1.377 . S
C1469 H1453 0.930 . S
C1469 C1468 1.377 . S
C1469 C1470 1.379 . S
C1470 H1454 0.931 . S
C1470 C1464 1.383 . S
C1470 C1469 1.379 . S
H1471 C1465 0.959 . S
H1472 C1465 0.961 . S
H1473 C1465 0.960 . S
H1474 C1466 0.930 . S
H1475 C1467 0.929 . S
H1476 C1484 0.929 . S
H1477 C1486 0.930 . S
H1478 C1488 0.930 . S
H1479 C1491 0.929 . S
H1480 C1494 0.930 . S
H1481 C1496 0.960 . S
H1482 C1496 0.960 . S
H1483 C1496 0.960 . S
C1484 H1476 0.929 . S
C1484 C1485 1.377 . S
C1484 C1486 1.384 . S
C1485 C1484 1.377 . S
C1485 C1491 1.390 . S
C1486 H1477 0.930 . S
C1486 C1484 1.384 . S
C1486 C1487 1.372 . S
C1487 C1486 1.372 . S
C1487 C1488 1.400 . S
C1487 C1492 1.490 . S
C1488 H1478 0.930 . S
C1488 C1487 1.400 . S
C1488 C1491 1.386 . S
H1489 C1505 0.930 . S
H1490 C1506 0.931 . S
C1491 H1479 0.929 . S
C1491 C1485 1.390 . S
C1491 C1488 1.386 . S
C1492 C1487 1.490 . S
C1492 C1494 1.395 . S
C1492 C1495 1.403 . S
H1493 C1499 0.930 . S
C1494 H1480 0.930 . S
C1494 C1492 1.395 . S
C1494 C1497 1.403 . S
C1495 C1492 1.403 . S
C1495 C1496 1.524 . S
C1495 C1499 1.400 . S
C1496 H1481 0.960 . S
C1496 H1482 0.960 . S
C1496 H1483 0.960 . S
C1496 C1495 1.524 . S
C1497 C1494 1.403 . S
C1497 C1498 1.392 . S
C1497 C1501 1.495 . S
C1498 C1497 1.392 . S
C1498 C1499 1.385 . S
C1498 C1500 1.478 . S
C1499 H1493 0.930 . S
C1499 C1495 1.400 . S
C1499 C1498 1.385 . S
C1500 C1498 1.478 . S
C1500 C1502 1.381 . S
C1500 C1506 1.383 . S
C1501 C1497 1.495 . S
C1501 H1507 0.959 . S
C1501 H1508 0.961 . S
C1501 H1509 0.960 . S
C1502 C1500 1.381 . S
C1502 C1503 1.394 . S
C1502 H1510 0.930 . S
C1503 C1502 1.394 . S
C1503 C1504 1.383 . S
C1503 H1511 0.929 . S
C1504 C1503 1.383 . S
C1504 C1505 1.377 . S
C1505 H1489 0.930 . S
C1505 C1504 1.377 . S
C1505 C1506 1.379 . S
C1506 H1490 0.931 . S
C1506 C1500 1.383 . S
C1506 C1505 1.379 . S
H1507 C1501 0.959 . S
H1508 C1501 0.961 . S
H1509 C1501 0.960 . S
H1510 C1502 0.930 . S
H1511 C1503 0.929 . S
H1512 C1520 0.929 . S
H1513 C1522 0.930 . S
H1514 C1524 0.930 . S
H1515 C1527 0.929 . S
H1516 C1530 0.930 . S
H1517 C1532 0.960 . S
H1518 C1532 0.960 . S
H1519 C1532 0.960 . S
C1520 H1512 0.929 . S
C1520 C1521 1.377 . S
C1520 C1522 1.384 . S
C1521 C1520 1.377 . S
C1521 C1527 1.390 . S
C1522 H1513 0.930 . S
C1522 C1520 1.384 . S
C1522 C1523 1.372 . S
C1523 C1522 1.372 . S
C1523 C1524 1.400 . S
C1523 C1528 1.490 . S
C1524 H1514 0.930 . S
C1524 C1523 1.400 . S
C1524 C1527 1.386 . S
H1525 C1541 0.930 . S
H1526 C1542 0.931 . S
C1527 H1515 0.929 . S
C1527 C1521 1.390 . S
C1527 C1524 1.386 . S
C1528 C1523 1.490 . S
C1528 C1530 1.395 . S
C1528 C1531 1.403 . S
H1529 C1535 0.930 . S
C1530 H1516 0.930 . S
C1530 C1528 1.395 . S
C1530 C1533 1.403 . S
C1531 C1528 1.403 . S
C1531 C1532 1.524 . S
C1531 C1535 1.400 . S
C1532 H1517 0.960 . S
C1532 H1518 0.960 . S
C1532 H1519 0.960 . S
C1532 C1531 1.524 . S
C1533 C1530 1.403 . S
C1533 C1534 1.392 . S
C1533 C1537 1.495 . S
C1534 C1533 1.392 . S
C1534 C1535 1.385 . S
C1534 C1536 1.478 . S
C1535 H1529 0.930 . S
C1535 C1531 1.400 . S
C1535 C1534 1.385 . S
C1536 C1534 1.478 . S
C1536 C1538 1.381 . S
C1536 C1542 1.383 . S
C1537 C1533 1.495 . S
C1537 H1543 0.959 . S
C1537 H1544 0.961 . S
C1537 H1545 0.960 . S
C1538 C1536 1.381 . S
C1538 C1539 1.394 . S
C1538 H1546 0.930 . S
C1539 C1538 1.394 . S
C1539 C1540 1.383 . S
C1539 H1547 0.929 . S
C1540 C1539 1.383 . S
C1540 C1541 1.377 . S
C1541 H1525 0.930 . S
C1541 C1540 1.377 . S
C1541 C1542 1.379 . S
C1542 H1526 0.931 . S
C1542 C1536 1.383 . S
C1542 C1541 1.379 . S
H1543 C1537 0.959 . S
H1544 C1537 0.961 . S
H1545 C1537 0.960 . S
H1546 C1538 0.930 . S
H1547 C1539 0.929 . S
H1548 C1556 0.929 . S
H1549 C1558 0.930 . S
H1550 C1560 0.930 . S
H1551 C1563 0.929 . S
H1552 C1566 0.930 . S
H1553 C1568 0.960 . S
H1554 C1568 0.960 . S
H1555 C1568 0.960 . S
C1556 H1548 0.929 . S
C1556 C1557 1.377 . S
C1556 C1558 1.384 . S
C1557 C1556 1.377 . S
C1557 C1563 1.390 . S
C1558 H1549 0.930 . S
C1558 C1556 1.384 . S
C1558 C1559 1.372 . S
C1559 C1558 1.372 . S
C1559 C1560 1.400 . S
C1559 C1564 1.490 . S
C1560 H1550 0.930 . S
C1560 C1559 1.400 . S
C1560 C1563 1.386 . S
H1561 C1577 0.930 . S
H1562 C1578 0.931 . S
C1563 H1551 0.929 . S
C1563 C1557 1.390 . S
C1563 C1560 1.386 . S
C1564 C1559 1.490 . S
C1564 C1566 1.395 . S
C1564 C1567 1.403 . S
H1565 C1571 0.930 . S
C1566 H1552 0.930 . S
C1566 C1564 1.395 . S
C1566 C1569 1.403 . S
C1567 C1564 1.403 . S
C1567 C1568 1.524 . S
C1567 C1571 1.400 . S
C1568 H1553 0.960 . S
C1568 H1554 0.960 . S
C1568 H1555 0.960 . S
C1568 C1567 1.524 . S
C1569 C1566 1.403 . S
C1569 C1570 1.392 . S
C1569 C1573 1.495 . S
C1570 C1569 1.392 . S
C1570 C1571 1.385 . S
C1570 C1572 1.478 . S
C1571 H1565 0.930 . S
C1571 C1567 1.400 . S
C1571 C1570 1.385 . S
C1572 C1570 1.478 . S
C1572 C1574 1.381 . S
C1572 C1578 1.383 . S
C1573 C1569 1.495 . S
C1573 H1579 0.959 . S
C1573 H1580 0.961 . S
C1573 H1581 0.960 . S
C1574 C1572 1.381 . S
C1574 C1575 1.394 . S
C1574 H1582 0.930 . S
C1575 C1574 1.394 . S
C1575 C1576 1.383 . S
C1575 H1583 0.929 1_554 S
C1576 C1575 1.383 . S
C1576 C1577 1.377 . S
C1577 H1561 0.930 . S
C1577 C1576 1.377 . S
C1577 C1578 1.379 . S
C1578 H1562 0.931 . S
C1578 C1572 1.383 . S
C1578 C1577 1.379 . S
H1579 C1573 0.959 . S
H1580 C1573 0.961 . S
H1581 C1573 0.960 . S
H1582 C1574 0.930 . S
H1583 C1575 0.929 1_556 S
H1584 C1592 0.929 . S
H1585 C1594 0.930 . S
H1586 C1596 0.930 . S
H1587 C1599 0.929 . S
H1588 C1602 0.930 . S
H1589 C1604 0.960 . S
H1590 C1604 0.960 . S
H1591 C1604 0.960 . S
C1592 H1584 0.929 . S
C1592 C1593 1.377 . S
C1592 C1594 1.384 . S
C1593 C1592 1.377 . S
C1593 C1599 1.390 . S
C1594 H1585 0.930 . S
C1594 C1592 1.384 . S
C1594 C1595 1.372 . S
C1595 C1594 1.372 . S
C1595 C1596 1.400 . S
C1595 C1600 1.490 . S
C1596 H1586 0.930 . S
C1596 C1595 1.400 . S
C1596 C1599 1.386 . S
H1597 C1613 0.930 1_556 S
H1598 C1614 0.931 . S
C1599 H1587 0.929 . S
C1599 C1593 1.390 . S
C1599 C1596 1.386 . S
C1600 C1595 1.490 . S
C1600 C1602 1.395 . S
C1600 C1603 1.403 . S
H1601 C1607 0.930 . S
C1602 H1588 0.930 . S
C1602 C1600 1.395 . S
C1602 C1605 1.403 . S
C1603 C1600 1.403 . S
C1603 C1604 1.524 . S
C1603 C1607 1.400 . S
C1604 H1589 0.960 . S
C1604 H1590 0.960 . S
C1604 H1591 0.960 . S
C1604 C1603 1.524 . S
C1605 C1602 1.403 . S
C1605 C1606 1.392 . S
C1605 C1609 1.495 . S
C1606 C1605 1.392 . S
C1606 C1607 1.385 . S
C1606 C1608 1.478 . S
C1607 H1601 0.930 . S
C1607 C1603 1.400 . S
C1607 C1606 1.385 . S
C1608 C1606 1.478 . S
C1608 C1610 1.381 . S
C1608 C1614 1.383 . S
C1609 C1605 1.495 . S
C1609 H1615 0.959 . S
C1609 H1616 0.961 . S
C1609 H1617 0.960 . S
C1610 C1608 1.381 . S
C1610 C1611 1.394 . S
C1610 H1618 0.930 . S
C1611 C1610 1.394 . S
C1611 C1612 1.383 . S
C1611 H1619 0.929 . S
C1612 C1611 1.383 . S
C1612 C1613 1.377 . S
C1613 H1597 0.930 1_554 S
C1613 C1612 1.377 . S
C1613 C1614 1.379 . S
C1614 H1598 0.931 . S
C1614 C1608 1.383 . S
C1614 C1613 1.379 . S
H1615 C1609 0.959 . S
H1616 C1609 0.961 . S
H1617 C1609 0.960 . S
H1618 C1610 0.930 . S
H1619 C1611 0.929 . S
H1620 C1628 0.929 1_556 S
H1621 C1630 0.930 . S
H1622 C1632 0.930 . S
H1623 C1635 0.929 . S
H1624 C1638 0.930 . S
H1625 C1640 0.960 . S
H1626 C1640 0.960 . S
H1627 C1640 0.960 . S
C1628 H1620 0.929 1_554 S
C1628 C1629 1.377 . S
C1628 C1630 1.384 . S
C1629 C1628 1.377 . S
C1629 C1635 1.390 . S
C1630 H1621 0.930 . S
C1630 C1628 1.384 . S
C1630 C1631 1.372 . S
C1631 C1630 1.372 . S
C1631 C1632 1.400 . S
C1631 C1636 1.490 . S
C1632 H1622 0.930 . S
C1632 C1631 1.400 . S
C1632 C1635 1.386 . S
H1633 C1649 0.930 . S
H1634 C1650 0.931 . S
C1635 H1623 0.929 . S
C1635 C1629 1.390 . S
C1635 C1632 1.386 . S
C1636 C1631 1.490 . S
C1636 C1638 1.395 . S
C1636 C1639 1.403 . S
H1637 C1643 0.930 . S
C1638 H1624 0.930 . S
C1638 C1636 1.395 . S
C1638 C1641 1.403 . S
C1639 C1636 1.403 . S
C1639 C1640 1.524 . S
C1639 C1643 1.400 . S
C1640 H1625 0.960 . S
C1640 H1626 0.960 . S
C1640 H1627 0.960 . S
C1640 C1639 1.524 . S
C1641 C1638 1.403 . S
C1641 C1642 1.392 . S
C1641 C1645 1.495 . S
C1642 C1641 1.392 . S
C1642 C1643 1.385 . S
C1642 C1644 1.478 . S
C1643 H1637 0.930 . S
C1643 C1639 1.400 . S
C1643 C1642 1.385 . S
C1644 C1642 1.478 . S
C1644 C1646 1.381 . S
C1644 C1650 1.383 . S
C1645 C1641 1.495 . S
C1645 H1651 0.959 . S
C1645 H1652 0.961 . S
C1645 H1653 0.960 . S
C1646 C1644 1.381 . S
C1646 C1647 1.394 . S
C1646 H1654 0.930 . S
C1647 C1646 1.394 . S
C1647 C1648 1.383 . S
C1647 H1655 0.929 . S
C1648 C1647 1.383 . S
C1648 C1649 1.377 . S
C1649 H1633 0.930 . S
C1649 C1648 1.377 . S
C1649 C1650 1.379 . S
C1650 H1634 0.931 . S
C1650 C1644 1.383 . S
C1650 C1649 1.379 . S
H1651 C1645 0.959 . S
H1652 C1645 0.961 . S
H1653 C1645 0.960 . S
H1654 C1646 0.930 . S
H1655 C1647 0.929 . S
H1656 C1664 0.929 . S
H1657 C1666 0.930 . S
H1658 C1668 0.930 . S
H1659 C1671 0.929 . S
H1660 C1674 0.930 . S
H1661 C1676 0.960 . S
H1662 C1676 0.960 . S
H1663 C1676 0.960 . S
C1664 H1656 0.929 . S
C1664 C1665 1.377 . S
C1664 C1666 1.384 . S
C1665 C1664 1.377 . S
C1665 C1671 1.390 . S
C1666 H1657 0.930 . S
C1666 C1664 1.384 . S
C1666 C1667 1.372 . S
C1667 C1666 1.372 . S
C1667 C1668 1.400 . S
C1667 C1672 1.490 . S
C1668 H1658 0.930 . S
C1668 C1667 1.400 . S
C1668 C1671 1.386 . S
H1669 C1685 0.930 . S
H1670 C1686 0.931 . S
C1671 H1659 0.929 . S
C1671 C1665 1.390 . S
C1671 C1668 1.386 . S
C1672 C1667 1.490 . S
C1672 C1674 1.395 1_556 S
C1672 C1675 1.403 . S
H1673 C1679 0.930 . S
C1674 H1660 0.930 . S
C1674 C1672 1.395 1_554 S
C1674 C1677 1.403 . S
C1675 C1672 1.403 . S
C1675 C1676 1.524 . S
C1675 C1679 1.400 1_556 S
C1676 H1661 0.960 . S
C1676 H1662 0.960 . S
C1676 H1663 0.960 . S
C1676 C1675 1.524 . S
C1677 C1674 1.403 . S
C1677 C1678 1.392 . S
C1677 C1681 1.495 . S
C1678 C1677 1.392 . S
C1678 C1679 1.385 . S
C1678 C1680 1.478 . S
C1679 H1673 0.930 . S
C1679 C1675 1.400 1_554 S
C1679 C1678 1.385 . S
C1680 C1678 1.478 . S
C1680 C1682 1.381 . S
C1680 C1686 1.383 . S
C1681 C1677 1.495 . S
C1681 H1687 0.959 . S
C1681 H1688 0.961 . S
C1681 H1689 0.960 . S
C1682 C1680 1.381 . S
C1682 C1683 1.394 . S
C1682 H1690 0.930 . S
C1683 C1682 1.394 . S
C1683 C1684 1.383 . S
C1683 H1691 0.929 . S
C1684 C1683 1.383 . S
C1684 C1685 1.377 . S
C1685 H1669 0.930 . S
C1685 C1684 1.377 . S
C1685 C1686 1.379 . S
C1686 H1670 0.931 . S
C1686 C1680 1.383 . S
C1686 C1685 1.379 . S
H1687 C1681 0.959 . S
H1688 C1681 0.961 . S
H1689 C1681 0.960 . S
H1690 C1682 0.930 . S
H1691 C1683 0.929 . S
H1692 C1700 0.929 . S
H1693 C1702 0.930 . S
H1694 C1704 0.930 . S
H1695 C1707 0.929 . S
H1696 C1710 0.934 . S
H1697 C1712 0.960 . S
H1698 C1712 0.960 . S
H1699 C1712 0.960 . S
C1700 H1692 0.929 . S
C1700 C1701 1.377 . S
C1700 C1702 1.384 . S
C1701 C1700 1.377 . S
C1701 C1707 1.390 . S
C1702 H1693 0.930 . S
C1702 C1700 1.384 . S
C1702 C1703 1.372 . S
C1703 C1702 1.372 . S
C1703 C1704 1.400 . S
C1703 C1708 1.490 . S
C1704 H1694 0.930 . S
C1704 C1703 1.400 . S
C1704 C1707 1.386 . S
H1705 C1721 0.930 . S
H1706 C1722 0.931 . S
C1707 H1695 0.929 . S
C1707 C1701 1.390 . S
C1707 C1704 1.386 . S
C1708 C1703 1.490 . S
C1708 C1710 1.408 . S
C1708 C1711 1.403 . S
H1709 C1715 0.930 . S
C1710 H1696 0.934 . S
C1710 C1708 1.408 . S
C1710 C1713 1.386 1_556 S
C1711 C1708 1.403 . S
C1711 C1712 1.524 . S
C1711 C1715 1.400 1_556 S
C1712 H1697 0.960 . S
C1712 H1698 0.960 . S
C1712 H1699 0.960 . S
C1712 C1711 1.524 . S
C1713 C1710 1.386 1_554 S
C1713 C1714 1.392 . S
C1713 C1717 1.495 . S
C1714 C1713 1.392 . S
C1714 C1715 1.385 . S
C1714 C1716 1.478 . S
C1715 H1709 0.930 . S
C1715 C1711 1.400 1_554 S
C1715 C1714 1.385 . S
C1716 C1714 1.478 . S
C1716 C1718 1.381 . S
C1716 C1722 1.383 . S
C1717 C1713 1.495 . S
C1717 H1723 0.959 . S
C1717 H1724 0.961 . S
C1717 H1725 0.960 . S
C1718 C1716 1.381 . S
C1718 C1719 1.394 . S
C1718 H1726 0.930 . S
C1719 C1718 1.394 . S
C1719 C1720 1.383 . S
C1719 H1727 0.929 . S
C1720 C1719 1.383 . S
C1720 C1721 1.377 . S
C1721 H1705 0.930 . S
C1721 C1720 1.377 . S
C1721 C1722 1.379 . S
C1722 H1706 0.931 . S
C1722 C1716 1.383 . S
C1722 C1721 1.379 . S
H1723 C1717 0.959 . S
H1724 C1717 0.961 . S
H1725 C1717 0.960 . S
H1726 C1718 0.930 . S
H1727 C1719 0.929 . S
H1728 C1736 0.929 . S
H1729 C1738 0.930 . S
H1730 C1740 0.930 . S
H1731 C1743 0.929 . S
H1732 C1746 0.930 . S
H1733 C1748 0.960 1_554 S
H1734 C1748 0.960 . S
H1735 C1748 0.960 . S
C1736 H1728 0.929 . S
C1736 C1737 1.377 . S
C1736 C1738 1.384 . S
C1737 C1736 1.377 . S
C1737 C1743 1.390 . S
C1738 H1729 0.930 . S
C1738 C1736 1.384 . S
C1738 C1739 1.372 . S
C1739 C1738 1.372 . S
C1739 C1740 1.400 . S
C1739 C1744 1.490 . S
C1740 H1730 0.930 . S
C1740 C1739 1.400 . S
C1740 C1743 1.386 . S
H1741 C1757 0.930 . S
H1742 C1758 0.931 . S
C1743 H1731 0.929 . S
C1743 C1737 1.390 . S
C1743 C1740 1.386 . S
C1744 C1739 1.490 . S
C1744 C1746 1.395 . S
C1744 C1747 1.403 . S
H1745 C1751 0.930 . S
C1746 H1732 0.930 . S
C1746 C1744 1.395 . S
C1746 C1749 1.403 1_556 S
C1747 C1744 1.403 . S
C1747 C1748 1.524 . S
C1747 C1751 1.400 1_556 S
C1748 H1733 0.960 1_556 S
C1748 H1734 0.960 . S
C1748 H1735 0.960 . S
C1748 C1747 1.524 . S
C1749 C1746 1.403 1_554 S
C1749 C1750 1.392 . S
C1749 C1753 1.495 . S
C1750 C1749 1.392 . S
C1750 C1751 1.385 . S
C1750 C1752 1.478 . S
C1751 H1745 0.930 . S
C1751 C1747 1.400 1_554 S
C1751 C1750 1.385 . S
C1752 C1750 1.478 . S
C1752 C1754 1.381 . S
C1752 C1758 1.383 . S
C1753 C1749 1.495 . S
C1753 H1759 0.959 1_554 S
C1753 H1760 0.961 . S
C1753 H1761 0.960 . S
C1754 C1752 1.381 . S
C1754 C1755 1.394 . S
C1754 H1762 0.930 . S
C1755 C1754 1.394 . S
C1755 C1756 1.383 . S
C1755 H1763 0.929 . S
C1756 C1755 1.383 . S
C1756 C1757 1.377 . S
C1757 H1741 0.930 . S
C1757 C1756 1.377 . S
C1757 C1758 1.379 . S
C1758 H1742 0.931 . S
C1758 C1752 1.383 . S
C1758 C1757 1.379 . S
H1759 C1753 0.959 1_556 S
H1760 C1753 0.961 . S
H1761 C1753 0.960 . S
H1762 C1754 0.930 . S
H1763 C1755 0.929 . S
H1764 C1772 0.929 . S
H1765 C1774 0.930 . S
H1766 C1776 0.930 . S
H1767 C1779 0.929 . S
H1768 C1782 0.930 . S
H1769 C1784 0.960 . S
H1770 C1784 0.960 . S
H1771 C1784 0.960 . S
C1772 H1764 0.929 . S
C1772 C1773 1.377 . S
C1772 C1774 1.384 . S
C1773 C1772 1.377 . S
C1773 C1779 1.390 . S
C1774 H1765 0.930 . S
C1774 C1772 1.384 . S
C1774 C1775 1.372 . S
C1775 C1774 1.372 . S
C1775 C1776 1.400 . S
C1775 C1780 1.490 . S
C1776 H1766 0.930 . S
C1776 C1775 1.400 . S
C1776 C1779 1.386 . S
H1777 C1793 0.930 . S
H1778 C1794 0.931 . S
C1779 H1767 0.929 . S
C1779 C1773 1.390 . S
C1779 C1776 1.386 . S
C1780 C1775 1.490 . S
C1780 C1782 1.395 . S
C1780 C1783 1.403 . S
H1781 C1787 0.930 . S
C1782 H1768 0.930 . S
C1782 C1780 1.395 . S
C1782 C1785 1.403 . S
C1783 C1780 1.403 . S
C1783 C1784 1.524 . S
C1783 C1787 1.400 . S
C1784 H1769 0.960 . S
C1784 H1770 0.960 . S
C1784 H1771 0.960 . S
C1784 C1783 1.524 . S
C1785 C1782 1.403 . S
C1785 C1786 1.392 . S
C1785 C1789 1.495 . S
C1786 C1785 1.392 . S
C1786 C1787 1.385 . S
C1786 C1788 1.478 . S
C1787 H1781 0.930 . S
C1787 C1783 1.400 . S
C1787 C1786 1.385 . S
C1788 C1786 1.478 . S
C1788 C1790 1.381 . S
C1788 C1794 1.383 . S
C1789 C1785 1.495 . S
C1789 H1795 0.959 . S
C1789 H1796 0.961 . S
C1789 H1797 0.960 . S
C1790 C1788 1.381 . S
C1790 C1791 1.394 . S
C1790 H1798 0.930 . S
C1791 C1790 1.394 . S
C1791 C1792 1.383 . S
C1791 H1799 0.929 . S
C1792 C1791 1.383 . S
C1792 C1793 1.377 . S
C1793 H1777 0.930 . S
C1793 C1792 1.377 . S
C1793 C1794 1.379 . S
C1794 H1778 0.931 . S
C1794 C1788 1.383 . S
C1794 C1793 1.379 . S
H1795 C1789 0.959 . S
H1796 C1789 0.961 . S
H1797 C1789 0.960 . S
H1798 C1790 0.930 . S
H1799 C1791 0.929 . S
H1800 C1808 0.929 . S
H1801 C1810 0.930 . S
H1802 C1812 0.930 . S
H1803 C1815 0.929 . S
H1804 C1818 0.930 . S
H1805 C1820 0.960 . S
H1806 C1820 0.960 . S
H1807 C1820 0.960 . S
C1808 H1800 0.929 . S
C1808 C1809 1.377 . S
C1808 C1810 1.384 . S
C1809 C1808 1.377 . S
C1809 C1815 1.390 . S
C1810 H1801 0.930 . S
C1810 C1808 1.384 . S
C1810 C1811 1.372 . S
C1811 C1810 1.372 . S
C1811 C1812 1.400 . S
C1811 C1816 1.490 . S
C1812 H1802 0.930 . S
C1812 C1811 1.400 . S
C1812 C1815 1.386 . S
H1813 C1829 0.930 . S
H1814 C1830 0.931 . S
C1815 H1803 0.929 . S
C1815 C1809 1.390 . S
C1815 C1812 1.386 . S
C1816 C1811 1.490 . S
C1816 C1818 1.395 . S
C1816 C1819 1.403 . S
H1817 C1823 0.930 . S
C1818 H1804 0.930 . S
C1818 C1816 1.395 . S
C1818 C1821 1.403 . S
C1819 C1816 1.403 . S
C1819 C1820 1.524 . S
C1819 C1823 1.400 . S
C1820 H1805 0.960 . S
C1820 H1806 0.960 . S
C1820 H1807 0.960 . S
C1820 C1819 1.524 . S
C1821 C1818 1.403 . S
C1821 C1822 1.392 . S
C1821 C1825 1.495 . S
C1822 C1821 1.392 . S
C1822 C1823 1.385 . S
C1822 C1824 1.478 . S
C1823 H1817 0.930 . S
C1823 C1819 1.400 . S
C1823 C1822 1.385 . S
C1824 C1822 1.478 . S
C1824 C1826 1.381 . S
C1824 C1830 1.383 . S
C1825 C1821 1.495 . S
C1825 H1831 0.959 . S
C1825 H1832 0.961 . S
C1825 H1833 0.960 . S
C1826 C1824 1.381 . S
C1826 C1827 1.394 . S
C1826 H1834 0.930 . S
C1827 C1826 1.394 . S
C1827 C1828 1.383 . S
C1827 H1835 0.929 . S
C1828 C1827 1.383 . S
C1828 C1829 1.377 . S
C1829 H1813 0.930 . S
C1829 C1828 1.377 . S
C1829 C1830 1.379 . S
C1830 H1814 0.931 . S
C1830 C1824 1.383 . S
C1830 C1829 1.379 . S
H1831 C1825 0.959 . S
H1832 C1825 0.961 . S
H1833 C1825 0.960 . S
H1834 C1826 0.930 . S
H1835 C1827 0.929 . S
H1836 C1844 0.929 . S
H1837 C1846 0.930 . S
H1838 C1848 0.930 . S
H1839 C1851 0.929 . S
H1840 C1854 0.930 . S
H1841 C1856 0.960 . S
H1842 C1856 0.960 . S
H1843 C1856 0.960 . S
C1844 H1836 0.929 . S
C1844 C1845 1.377 . S
C1844 C1846 1.384 . S
C1845 C1844 1.377 . S
C1845 C1851 1.390 . S
C1846 H1837 0.930 . S
C1846 C1844 1.384 . S
C1846 C1847 1.372 . S
C1847 C1846 1.372 . S
C1847 C1848 1.400 . S
C1847 C1852 1.490 . S
C1848 H1838 0.930 . S
C1848 C1847 1.400 . S
C1848 C1851 1.386 . S
H1849 C1865 0.930 . S
H1850 C1866 0.931 . S
C1851 H1839 0.929 . S
C1851 C1845 1.390 . S
C1851 C1848 1.386 . S
C1852 C1847 1.490 . S
C1852 C1854 1.395 . S
C1852 C1855 1.403 . S
H1853 C1859 0.930 . S
C1854 H1840 0.930 . S
C1854 C1852 1.395 . S
C1854 C1857 1.403 . S
C1855 C1852 1.403 . S
C1855 C1856 1.524 . S
C1855 C1859 1.400 . S
C1856 H1841 0.960 . S
C1856 H1842 0.960 . S
C1856 H1843 0.960 . S
C1856 C1855 1.524 . S
C1857 C1854 1.403 . S
C1857 C1858 1.392 . S
C1857 C1861 1.495 . S
C1858 C1857 1.392 . S
C1858 C1859 1.385 . S
C1858 C1860 1.478 . S
C1859 H1853 0.930 . S
C1859 C1855 1.400 . S
C1859 C1858 1.385 . S
C1860 C1858 1.478 . S
C1860 C1862 1.381 . S
C1860 C1866 1.383 . S
C1861 C1857 1.495 . S
C1861 H1867 0.959 . S
C1861 H1868 0.961 . S
C1861 H1869 0.960 . S
C1862 C1860 1.381 . S
C1862 C1863 1.394 . S
C1862 H1870 0.930 . S
C1863 C1862 1.394 . S
C1863 C1864 1.383 . S
C1863 H1871 0.929 . S
C1864 C1863 1.383 . S
C1864 C1865 1.377 . S
C1865 H1849 0.930 . S
C1865 C1864 1.377 . S
C1865 C1866 1.379 . S
C1866 H1850 0.931 . S
C1866 C1860 1.383 . S
C1866 C1865 1.379 . S
H1867 C1861 0.959 . S
H1868 C1861 0.961 . S
H1869 C1861 0.960 . S
H1870 C1862 0.930 . S
H1871 C1863 0.929 . S
H1872 C1880 0.929 . S
H1873 C1882 0.930 . S
H1874 C1884 0.930 . S
H1875 C1887 0.929 . S
H1876 C1890 0.930 . S
H1877 C1892 0.960 . S
H1878 C1892 0.960 . S
H1879 C1892 0.960 . S
C1880 H1872 0.929 . S
C1880 C1881 1.377 . S
C1880 C1882 1.384 . S
C1881 C1880 1.377 . S
C1881 C1887 1.390 . S
C1882 H1873 0.930 . S
C1882 C1880 1.384 . S
C1882 C1883 1.372 . S
C1883 C1882 1.372 . S
C1883 C1884 1.400 . S
C1883 C1888 1.490 . S
C1884 H1874 0.930 . S
C1884 C1883 1.400 . S
C1884 C1887 1.386 . S
H1885 C1901 0.930 . S
H1886 C1902 0.931 . S
C1887 H1875 0.929 . S
C1887 C1881 1.390 . S
C1887 C1884 1.386 . S
C1888 C1883 1.490 . S
C1888 C1890 1.395 . S
C1888 C1891 1.403 . S
H1889 C1895 0.930 . S
C1890 H1876 0.930 . S
C1890 C1888 1.395 . S
C1890 C1893 1.403 . S
C1891 C1888 1.403 . S
C1891 C1892 1.524 . S
C1891 C1895 1.400 . S
C1892 H1877 0.960 . S
C1892 H1878 0.960 . S
C1892 H1879 0.960 . S
C1892 C1891 1.524 . S
C1893 C1890 1.403 . S
C1893 C1894 1.392 . S
C1893 C1897 1.495 . S
C1894 C1893 1.392 . S
C1894 C1895 1.385 . S
C1894 C1896 1.478 . S
C1895 H1889 0.930 . S
C1895 C1891 1.400 . S
C1895 C1894 1.385 . S
C1896 C1894 1.478 . S
C1896 C1898 1.381 . S
C1896 C1902 1.383 . S
C1897 C1893 1.495 . S
C1897 H1903 0.959 . S
C1897 H1904 0.961 . S
C1897 H1905 0.960 . S
C1898 C1896 1.381 . S
C1898 C1899 1.394 . S
C1898 H1906 0.930 . S
C1899 C1898 1.394 . S
C1899 C1900 1.383 . S
C1899 H1907 0.929 . S
C1900 C1899 1.383 . S
C1900 C1901 1.377 . S
C1901 H1885 0.930 . S
C1901 C1900 1.377 . S
C1901 C1902 1.379 . S
C1902 H1886 0.931 . S
C1902 C1896 1.383 . S
C1902 C1901 1.379 . S
H1903 C1897 0.959 . S
H1904 C1897 0.961 . S
H1905 C1897 0.960 . S
H1906 C1898 0.930 . S
H1907 C1899 0.929 . S
H1908 C1916 0.929 . S
H1909 C1918 0.930 . S
H1910 C1920 0.930 . S
H1911 C1923 0.929 . S
H1912 C1926 0.930 . S
H1913 C1928 0.960 . S
H1914 C1928 0.960 . S
H1915 C1928 0.960 . S
C1916 H1908 0.929 . S
C1916 C1917 1.377 . S
C1916 C1918 1.384 . S
C1917 C1916 1.377 . S
C1917 C1923 1.390 . S
C1918 H1909 0.930 . S
C1918 C1916 1.384 . S
C1918 C1919 1.372 . S
C1919 C1918 1.372 . S
C1919 C1920 1.400 . S
C1919 C1924 1.490 . S
C1920 H1910 0.930 . S
C1920 C1919 1.400 . S
C1920 C1923 1.386 . S
H1921 C1937 0.930 . S
H1922 C1938 0.931 . S
C1923 H1911 0.929 . S
C1923 C1917 1.390 . S
C1923 C1920 1.386 . S
C1924 C1919 1.490 . S
C1924 C1926 1.395 . S
C1924 C1927 1.403 . S
H1925 C1931 0.930 . S
C1926 H1912 0.930 . S
C1926 C1924 1.395 . S
C1926 C1929 1.403 . S
C1927 C1924 1.403 . S
C1927 C1928 1.524 . S
C1927 C1931 1.400 . S
C1928 H1913 0.960 . S
C1928 H1914 0.960 . S
C1928 H1915 0.960 . S
C1928 C1927 1.524 . S
C1929 C1926 1.403 . S
C1929 C1930 1.392 . S
C1929 C1933 1.495 . S
C1930 C1929 1.392 . S
C1930 C1931 1.385 . S
C1930 C1932 1.478 . S
C1931 H1925 0.930 . S
C1931 C1927 1.400 . S
C1931 C1930 1.385 . S
C1932 C1930 1.478 . S
C1932 C1934 1.381 . S
C1932 C1938 1.383 . S
C1933 C1929 1.495 . S
C1933 H1939 0.959 . S
C1933 H1940 0.961 . S
C1933 H1941 0.960 . S
C1934 C1932 1.381 . S
C1934 C1935 1.394 . S
C1934 H1942 0.930 . S
C1935 C1934 1.394 . S
C1935 C1936 1.383 . S
C1935 H1943 0.929 . S
C1936 C1935 1.383 . S
C1936 C1937 1.377 . S
C1937 H1921 0.930 . S
C1937 C1936 1.377 . S
C1937 C1938 1.379 . S
C1938 H1922 0.931 . S
C1938 C1932 1.383 . S
C1938 C1937 1.379 . S
H1939 C1933 0.959 . S
H1940 C1933 0.961 . S
H1941 C1933 0.960 . S
H1942 C1934 0.930 . S
H1943 C1935 0.929 . S
H1944 C1952 0.929 . S
H1945 C1954 0.930 . S
H1946 C1956 0.930 . S
H1947 C1959 0.929 . S
H1948 C1962 0.930 . S
H1949 C1964 0.960 . S
H1950 C1964 0.960 . S
H1951 C1964 0.960 . S
C1952 H1944 0.929 . S
C1952 C1953 1.377 . S
C1952 C1954 1.384 . S
C1953 C1952 1.377 . S
C1953 C1959 1.390 . S
C1954 H1945 0.930 . S
C1954 C1952 1.384 . S
C1954 C1955 1.372 . S
C1955 C1954 1.372 . S
C1955 C1956 1.400 . S
C1955 C1960 1.490 . S
C1956 H1946 0.930 . S
C1956 C1955 1.400 . S
C1956 C1959 1.386 . S
H1957 C1973 0.930 . S
H1958 C1974 0.931 . S
C1959 H1947 0.929 . S
C1959 C1953 1.390 . S
C1959 C1956 1.386 . S
C1960 C1955 1.490 . S
C1960 C1962 1.395 . S
C1960 C1963 1.403 . S
H1961 C1967 0.930 . S
C1962 H1948 0.930 . S
C1962 C1960 1.395 . S
C1962 C1965 1.403 . S
C1963 C1960 1.403 . S
C1963 C1964 1.524 . S
C1963 C1967 1.400 . S
C1964 H1949 0.960 . S
C1964 H1950 0.960 . S
C1964 H1951 0.960 . S
C1964 C1963 1.524 . S
C1965 C1962 1.403 . S
C1965 C1966 1.392 . S
C1965 C1969 1.495 . S
C1966 C1965 1.392 . S
C1966 C1967 1.385 . S
C1966 C1968 1.478 . S
C1967 H1961 0.930 . S
C1967 C1963 1.400 . S
C1967 C1966 1.385 . S
C1968 C1966 1.478 . S
C1968 C1970 1.381 . S
C1968 C1974 1.383 . S
C1969 C1965 1.495 . S
C1969 H1975 0.959 . S
C1969 H1976 0.961 . S
C1969 H1977 0.960 . S
C1970 C1968 1.381 . S
C1970 C1971 1.394 . S
C1970 H1978 0.930 . S
C1971 C1970 1.394 . S
C1971 C1972 1.383 . S
C1971 H1979 0.929 . S
C1972 C1971 1.383 . S
C1972 C1973 1.377 . S
C1973 H1957 0.930 . S
C1973 C1972 1.377 . S
C1973 C1974 1.379 . S
C1974 H1958 0.931 . S
C1974 C1968 1.383 . S
C1974 C1973 1.379 . S
H1975 C1969 0.959 . S
H1976 C1969 0.961 . S
H1977 C1969 0.960 . S
H1978 C1970 0.930 . S
H1979 C1971 0.929 . S
H1980 C1988 0.929 . S
H1981 C1990 0.930 . S
H1982 C1992 0.930 . S
H1983 C1995 0.929 . S
H1984 C1998 0.930 . S
H1985 C2000 0.960 . S
H1986 C2000 0.960 . S
H1987 C2000 0.960 . S
C1988 H1980 0.929 . S
C1988 C1989 1.377 . S
C1988 C1990 1.384 . S
C1989 C1988 1.377 . S
C1989 C1995 1.390 . S
C1990 H1981 0.930 . S
C1990 C1988 1.384 . S
C1990 C1991 1.372 . S
C1991 C1990 1.372 . S
C1991 C1992 1.400 . S
C1991 C1996 1.490 . S
C1992 H1982 0.930 . S
C1992 C1991 1.400 . S
C1992 C1995 1.386 . S
H1993 C2009 0.930 . S
H1994 C2010 0.931 . S
C1995 H1983 0.929 . S
C1995 C1989 1.390 . S
C1995 C1992 1.386 . S
C1996 C1991 1.490 . S
C1996 C1998 1.395 . S
C1996 C1999 1.403 . S
H1997 C2003 0.930 . S
C1998 H1984 0.930 . S
C1998 C1996 1.395 . S
C1998 C2001 1.403 . S
C1999 C1996 1.403 . S
C1999 C2000 1.524 . S
C1999 C2003 1.400 . S
C2000 H1985 0.960 . S
C2000 H1986 0.960 . S
C2000 H1987 0.960 . S
C2000 C1999 1.524 . S
C2001 C1998 1.403 . S
C2001 C2002 1.392 . S
C2001 C2005 1.495 . S
C2002 C2001 1.392 . S
C2002 C2003 1.385 . S
C2002 C2004 1.478 . S
C2003 H1997 0.930 . S
C2003 C1999 1.400 . S
C2003 C2002 1.385 . S
C2004 C2002 1.478 . S
C2004 C2006 1.381 . S
C2004 C2010 1.383 . S
C2005 C2001 1.495 . S
C2005 H2011 0.959 . S
C2005 H2012 0.961 . S
C2005 H2013 0.960 . S
C2006 C2004 1.381 . S
C2006 C2007 1.394 . S
C2006 H2014 0.930 . S
C2007 C2006 1.394 . S
C2007 C2008 1.383 . S
C2007 H2015 0.929 . S
C2008 C2007 1.383 . S
C2008 C2009 1.377 . S
C2009 H1993 0.930 . S
C2009 C2008 1.377 . S
C2009 C2010 1.379 . S
C2010 H1994 0.931 . S
C2010 C2004 1.383 . S
C2010 C2009 1.379 . S
H2011 C2005 0.959 . S
H2012 C2005 0.961 . S
H2013 C2005 0.960 . S
H2014 C2006 0.930 . S
H2015 C2007 0.929 . S
H2016 C2024 0.929 . S
H2017 C2026 0.930 . S
H2018 C2028 0.930 . S
H2019 C2031 0.929 . S
H2020 C2034 0.930 . S
H2021 C2036 0.960 . S
H2022 C2036 0.960 . S
H2023 C2036 0.960 . S
C2024 H2016 0.929 . S
C2024 C2025 1.377 . S
C2024 C2026 1.384 . S
C2025 C2024 1.377 . S
C2025 C2031 1.390 . S
C2026 H2017 0.930 . S
C2026 C2024 1.384 . S
C2026 C2027 1.372 . S
C2027 C2026 1.372 . S
C2027 C2028 1.400 . S
C2027 C2032 1.490 . S
C2028 H2018 0.930 . S
C2028 C2027 1.400 . S
C2028 C2031 1.386 . S
H2029 C2045 0.930 . S
H2030 C2046 0.931 . S
C2031 H2019 0.929 . S
C2031 C2025 1.390 . S
C2031 C2028 1.386 . S
C2032 C2027 1.490 . S
C2032 C2034 1.395 . S
C2032 C2035 1.403 . S
H2033 C2039 0.930 . S
C2034 H2020 0.930 . S
C2034 C2032 1.395 . S
C2034 C2037 1.403 . S
C2035 C2032 1.403 . S
C2035 C2036 1.524 . S
C2035 C2039 1.400 . S
C2036 H2021 0.960 . S
C2036 H2022 0.960 . S
C2036 H2023 0.960 . S
C2036 C2035 1.524 . S
C2037 C2034 1.403 . S
C2037 C2038 1.392 . S
C2037 C2041 1.495 . S
C2038 C2037 1.392 . S
C2038 C2039 1.385 . S
C2038 C2040 1.478 . S
C2039 H2033 0.930 . S
C2039 C2035 1.400 . S
C2039 C2038 1.385 . S
C2040 C2038 1.478 . S
C2040 C2042 1.381 . S
C2040 C2046 1.383 . S
C2041 C2037 1.495 . S
C2041 H2047 0.959 . S
C2041 H2048 0.961 . S
C2041 H2049 0.960 . S
C2042 C2040 1.381 . S
C2042 C2043 1.394 . S
C2042 H2050 0.930 . S
C2043 C2042 1.394 . S
C2043 C2044 1.383 . S
C2043 H2051 0.929 . S
C2044 C2043 1.383 . S
C2044 C2045 1.377 . S
C2045 H2029 0.930 . S
C2045 C2044 1.377 . S
C2045 C2046 1.379 . S
C2046 H2030 0.931 . S
C2046 C2040 1.383 . S
C2046 C2045 1.379 . S
H2047 C2041 0.959 . S
H2048 C2041 0.961 . S
H2049 C2041 0.960 . S
H2050 C2042 0.930 . S
H2051 C2043 0.929 . S
H2052 C2060 0.929 . S
H2053 C2062 0.930 . S
H2054 C2064 0.930 . S
H2055 C2067 0.929 . S
H2056 C2070 0.930 . S
H2057 C2072 0.960 . S
H2058 C2072 0.960 . S
H2059 C2072 0.960 . S
C2060 H2052 0.929 . S
C2060 C2061 1.377 . S
C2060 C2062 1.384 . S
C2061 C2060 1.377 . S
C2061 C2067 1.390 . S
C2062 H2053 0.930 . S
C2062 C2060 1.384 . S
C2062 C2063 1.372 . S
C2063 C2062 1.372 . S
C2063 C2064 1.400 . S
C2063 C2068 1.490 . S
C2064 H2054 0.930 . S
C2064 C2063 1.400 . S
C2064 C2067 1.386 . S
H2065 C2081 0.930 . S
H2066 C2082 0.931 . S
C2067 H2055 0.929 . S
C2067 C2061 1.390 . S
C2067 C2064 1.386 . S
C2068 C2063 1.490 . S
C2068 C2070 1.395 . S
C2068 C2071 1.403 . S
H2069 C2075 0.930 . S
C2070 H2056 0.930 . S
C2070 C2068 1.395 . S
C2070 C2073 1.403 . S
C2071 C2068 1.403 . S
C2071 C2072 1.524 . S
C2071 C2075 1.400 . S
C2072 H2057 0.960 . S
C2072 H2058 0.960 . S
C2072 H2059 0.960 . S
C2072 C2071 1.524 . S
C2073 C2070 1.403 . S
C2073 C2074 1.392 . S
C2073 C2077 1.495 . S
C2074 C2073 1.392 . S
C2074 C2075 1.385 . S
C2074 C2076 1.478 . S
C2075 H2069 0.930 . S
C2075 C2071 1.400 . S
C2075 C2074 1.385 . S
C2076 C2074 1.478 . S
C2076 C2078 1.381 . S
C2076 C2082 1.383 . S
C2077 C2073 1.495 . S
C2077 H2083 0.959 . S
C2077 H2084 0.961 . S
C2077 H2085 0.960 . S
C2078 C2076 1.381 . S
C2078 C2079 1.394 . S
C2078 H2086 0.930 . S
C2079 C2078 1.394 . S
C2079 C2080 1.383 . S
C2079 H2087 0.929 . S
C2080 C2079 1.383 . S
C2080 C2081 1.377 . S
C2081 H2065 0.930 . S
C2081 C2080 1.377 . S
C2081 C2082 1.379 . S
C2082 H2066 0.931 . S
C2082 C2076 1.383 . S
C2082 C2081 1.379 . S
H2083 C2077 0.959 . S
H2084 C2077 0.961 . S
H2085 C2077 0.960 . S
H2086 C2078 0.930 . S
H2087 C2079 0.929 . S
H2088 C2096 0.929 . S
H2089 C2098 0.930 . S
H2090 C2100 0.930 . S
H2091 C2103 0.929 . S
H2092 C2106 0.930 . S
H2093 C2108 0.960 . S
H2094 C2108 0.960 . S
H2095 C2108 0.960 . S
C2096 H2088 0.929 . S
C2096 C2097 1.377 . S
C2096 C2098 1.384 . S
C2097 C2096 1.377 . S
C2097 C2103 1.390 . S
C2098 H2089 0.930 . S
C2098 C2096 1.384 . S
C2098 C2099 1.372 . S
C2099 C2098 1.372 . S
C2099 C2100 1.400 . S
C2099 C2104 1.490 . S
C2100 H2090 0.930 . S
C2100 C2099 1.400 . S
C2100 C2103 1.386 . S
H2101 C2117 0.930 . S
H2102 C2118 0.931 . S
C2103 H2091 0.929 . S
C2103 C2097 1.390 . S
C2103 C2100 1.386 . S
C2104 C2099 1.490 . S
C2104 C2106 1.395 . S
C2104 C2107 1.403 . S
H2105 C2111 0.930 . S
C2106 H2092 0.930 . S
C2106 C2104 1.395 . S
C2106 C2109 1.403 . S
C2107 C2104 1.403 . S
C2107 C2108 1.524 . S
C2107 C2111 1.400 . S
C2108 H2093 0.960 . S
C2108 H2094 0.960 . S
C2108 H2095 0.960 . S
C2108 C2107 1.524 . S
C2109 C2106 1.403 . S
C2109 C2110 1.392 . S
C2109 C2113 1.495 . S
C2110 C2109 1.392 . S
C2110 C2111 1.385 . S
C2110 C2112 1.478 . S
C2111 H2105 0.930 . S
C2111 C2107 1.400 . S
C2111 C2110 1.385 . S
C2112 C2110 1.478 . S
C2112 C2114 1.381 . S
C2112 C2118 1.383 . S
C2113 C2109 1.495 . S
C2113 H2119 0.959 . S
C2113 H2120 0.961 . S
C2113 H2121 0.960 . S
C2114 C2112 1.381 . S
C2114 C2115 1.394 . S
C2114 H2122 0.930 . S
C2115 C2114 1.394 . S
C2115 C2116 1.383 . S
C2115 H2123 0.929 . S
C2116 C2115 1.383 . S
C2116 C2117 1.377 . S
C2117 H2101 0.930 . S
C2117 C2116 1.377 . S
C2117 C2118 1.379 . S
C2118 H2102 0.931 . S
C2118 C2112 1.383 . S
C2118 C2117 1.379 . S
H2119 C2113 0.959 . S
H2120 C2113 0.961 . S
H2121 C2113 0.960 . S
H2122 C2114 0.930 . S
H2123 C2115 0.929 . S
H2124 C2132 0.929 . S
H2125 C2134 0.930 . S
H2126 C2136 0.930 . S
H2127 C2139 0.929 . S
H2128 C2142 0.930 . S
H2129 C2144 0.960 . S
H2130 C2144 0.960 . S
H2131 C2144 0.960 . S
C2132 H2124 0.929 . S
C2132 C2133 1.377 . S
C2132 C2134 1.384 . S
C2133 C2132 1.377 . S
C2133 C2139 1.390 . S
C2134 H2125 0.930 . S
C2134 C2132 1.384 . S
C2134 C2135 1.372 . S
C2135 C2134 1.372 . S
C2135 C2136 1.400 . S
C2135 C2140 1.490 . S
C2136 H2126 0.930 . S
C2136 C2135 1.400 . S
C2136 C2139 1.386 . S
H2137 C2153 0.930 . S
H2138 C2154 0.931 . S
C2139 H2127 0.929 . S
C2139 C2133 1.390 . S
C2139 C2136 1.386 . S
C2140 C2135 1.490 . S
C2140 C2142 1.395 . S
C2140 C2143 1.403 . S
H2141 C2147 0.930 . S
C2142 H2128 0.930 . S
C2142 C2140 1.395 . S
C2142 C2145 1.403 . S
C2143 C2140 1.403 . S
C2143 C2144 1.524 . S
C2143 C2147 1.400 . S
C2144 H2129 0.960 . S
C2144 H2130 0.960 . S
C2144 H2131 0.960 . S
C2144 C2143 1.524 . S
C2145 C2142 1.403 . S
C2145 C2146 1.392 . S
C2145 C2149 1.495 . S
C2146 C2145 1.392 . S
C2146 C2147 1.385 . S
C2146 C2148 1.478 . S
C2147 H2141 0.930 . S
C2147 C2143 1.400 . S
C2147 C2146 1.385 . S
C2148 C2146 1.478 . S
C2148 C2150 1.381 . S
C2148 C2154 1.383 . S
C2149 C2145 1.495 . S
C2149 H2155 0.959 . S
C2149 H2156 0.961 . S
C2149 H2157 0.960 . S
C2150 C2148 1.381 . S
C2150 C2151 1.394 . S
C2150 H2158 0.930 . S
C2151 C2150 1.394 . S
C2151 C2152 1.383 . S
C2151 H2159 0.929 . S
C2152 C2151 1.383 . S
C2152 C2153 1.377 . S
C2153 H2137 0.930 . S
C2153 C2152 1.377 . S
C2153 C2154 1.379 . S
C2154 H2138 0.931 . S
C2154 C2148 1.383 . S
C2154 C2153 1.379 . S
H2155 C2149 0.959 . S
H2156 C2149 0.961 . S
H2157 C2149 0.960 . S
H2158 C2150 0.930 . S
H2159 C2151 0.929 . S
H2160 C2168 0.929 . S
H2161 C2170 0.930 . S
H2162 C2172 0.930 . S
H2163 C2175 0.929 . S
H2164 C2178 0.930 . S
H2165 C2180 0.960 . S
H2166 C2180 0.960 . S
H2167 C2180 0.960 . S
C2168 H2160 0.929 . S
C2168 C2169 1.377 . S
C2168 C2170 1.384 . S
C2169 C2168 1.377 . S
C2169 C2175 1.390 . S
C2170 H2161 0.930 . S
C2170 C2168 1.384 . S
C2170 C2171 1.372 . S
C2171 C2170 1.372 . S
C2171 C2172 1.400 . S
C2171 C2176 1.490 . S
C2172 H2162 0.930 . S
C2172 C2171 1.400 . S
C2172 C2175 1.386 . S
H2173 C2189 0.930 . S
H2174 C2190 0.931 . S
C2175 H2163 0.929 . S
C2175 C2169 1.390 . S
C2175 C2172 1.386 . S
C2176 C2171 1.490 . S
C2176 C2178 1.395 . S
C2176 C2179 1.403 . S
H2177 C2183 0.930 . S
C2178 H2164 0.930 . S
C2178 C2176 1.395 . S
C2178 C2181 1.403 . S
C2179 C2176 1.403 . S
C2179 C2180 1.524 . S
C2179 C2183 1.400 . S
C2180 H2165 0.960 . S
C2180 H2166 0.960 . S
C2180 H2167 0.960 . S
C2180 C2179 1.524 . S
C2181 C2178 1.403 . S
C2181 C2182 1.392 . S
C2181 C2185 1.495 . S
C2182 C2181 1.392 . S
C2182 C2183 1.385 . S
C2182 C2184 1.478 . S
C2183 H2177 0.930 . S
C2183 C2179 1.400 . S
C2183 C2182 1.385 . S
C2184 C2182 1.478 . S
C2184 C2186 1.381 . S
C2184 C2190 1.383 . S
C2185 C2181 1.495 . S
C2185 H2191 0.959 . S
C2185 H2192 0.961 . S
C2185 H2193 0.960 . S
C2186 C2184 1.381 . S
C2186 C2187 1.394 . S
C2186 H2194 0.930 . S
C2187 C2186 1.394 . S
C2187 C2188 1.383 . S
C2187 H2195 0.929 . S
C2188 C2187 1.383 . S
C2188 C2189 1.377 . S
C2189 H2173 0.930 . S
C2189 C2188 1.377 . S
C2189 C2190 1.379 . S
C2190 H2174 0.931 . S
C2190 C2184 1.383 . S
C2190 C2189 1.379 . S
H2191 C2185 0.959 . S
H2192 C2185 0.961 . S
H2193 C2185 0.960 . S
H2194 C2186 0.930 . S
H2195 C2187 0.929 . S
H2196 C2204 0.929 . S
H2197 C2206 0.930 . S
H2198 C2208 0.930 . S
H2199 C2211 0.929 . S
H2200 C2214 0.930 . S
H2201 C2216 0.960 . S
H2202 C2216 0.960 . S
H2203 C2216 0.960 . S
C2204 H2196 0.929 . S
C2204 C2205 1.377 . S
C2204 C2206 1.384 . S
C2205 C2204 1.377 . S
C2205 C2211 1.390 . S
C2206 H2197 0.930 . S
C2206 C2204 1.384 . S
C2206 C2207 1.372 . S
C2207 C2206 1.372 . S
C2207 C2208 1.400 . S
C2207 C2212 1.490 . S
C2208 H2198 0.930 . S
C2208 C2207 1.400 . S
C2208 C2211 1.386 . S
H2209 C2225 0.930 . S
H2210 C2226 0.931 . S
C2211 H2199 0.929 . S
C2211 C2205 1.390 . S
C2211 C2208 1.386 . S
C2212 C2207 1.490 . S
C2212 C2214 1.395 . S
C2212 C2215 1.403 . S
H2213 C2219 0.930 . S
C2214 H2200 0.930 . S
C2214 C2212 1.395 . S
C2214 C2217 1.403 . S
C2215 C2212 1.403 . S
C2215 C2216 1.524 . S
C2215 C2219 1.400 . S
C2216 H2201 0.960 . S
C2216 H2202 0.960 . S
C2216 H2203 0.960 . S
C2216 C2215 1.524 . S
C2217 C2214 1.403 . S
C2217 C2218 1.392 . S
C2217 C2221 1.495 . S
C2218 C2217 1.392 . S
C2218 C2219 1.385 . S
C2218 C2220 1.478 . S
C2219 H2213 0.930 . S
C2219 C2215 1.400 . S
C2219 C2218 1.385 . S
C2220 C2218 1.478 . S
C2220 C2222 1.381 . S
C2220 C2226 1.383 . S
C2221 C2217 1.495 . S
C2221 H2227 0.959 . S
C2221 H2228 0.961 . S
C2221 H2229 0.960 . S
C2222 C2220 1.381 . S
C2222 C2223 1.394 . S
C2222 H2230 0.930 . S
C2223 C2222 1.394 . S
C2223 C2224 1.383 . S
C2223 H2231 0.929 1_556 S
C2224 C2223 1.383 . S
C2224 C2225 1.377 . S
C2225 H2209 0.930 . S
C2225 C2224 1.377 . S
C2225 C2226 1.379 . S
C2226 H2210 0.931 . S
C2226 C2220 1.383 . S
C2226 C2225 1.379 . S
H2227 C2221 0.959 . S
H2228 C2221 0.961 . S
H2229 C2221 0.960 . S
H2230 C2222 0.930 . S
H2231 C2223 0.929 1_554 S
H2232 C2240 0.929 . S
H2233 C2242 0.930 . S
H2234 C2244 0.930 . S
H2235 C2247 0.929 . S
H2236 C2250 0.930 . S
H2237 C2252 0.960 . S
H2238 C2252 0.960 . S
H2239 C2252 0.960 . S
C2240 H2232 0.929 . S
C2240 C2241 1.377 . S
C2240 C2242 1.384 . S
C2241 C2240 1.377 . S
C2241 C2247 1.390 . S
C2242 H2233 0.930 . S
C2242 C2240 1.384 . S
C2242 C2243 1.372 . S
C2243 C2242 1.372 . S
C2243 C2244 1.400 . S
C2243 C2248 1.490 . S
C2244 H2234 0.930 . S
C2244 C2243 1.400 . S
C2244 C2247 1.386 . S
H2245 C2261 0.930 . S
H2246 C2262 0.931 . S
C2247 H2235 0.929 . S
C2247 C2241 1.390 . S
C2247 C2244 1.386 . S
C2248 C2243 1.490 . S
C2248 C2250 1.395 . S
C2248 C2251 1.403 . S
H2249 C2255 0.930 . S
C2250 H2236 0.930 . S
C2250 C2248 1.395 . S
C2250 C2253 1.403 . S
C2251 C2248 1.403 . S
C2251 C2252 1.524 . S
C2251 C2255 1.400 . S
C2252 H2237 0.960 . S
C2252 H2238 0.960 . S
C2252 H2239 0.960 . S
C2252 C2251 1.524 . S
C2253 C2250 1.403 . S
C2253 C2254 1.392 . S
C2253 C2257 1.495 . S
C2254 C2253 1.392 . S
C2254 C2255 1.385 . S
C2254 C2256 1.478 . S
C2255 H2249 0.930 . S
C2255 C2251 1.400 . S
C2255 C2254 1.385 . S
C2256 C2254 1.478 . S
C2256 C2258 1.381 . S
C2256 C2262 1.383 . S
C2257 C2253 1.495 . S
C2257 H2263 0.959 . S
C2257 H2264 0.961 . S
C2257 H2265 0.960 . S
C2258 C2256 1.381 . S
C2258 C2259 1.394 . S
C2258 H2266 0.930 . S
C2259 C2258 1.394 . S
C2259 C2260 1.383 . S
C2259 H2267 0.929 . S
C2260 C2259 1.383 . S
C2260 C2261 1.377 . S
C2261 H2245 0.930 . S
C2261 C2260 1.377 . S
C2261 C2262 1.379 . S
C2262 H2246 0.931 . S
C2262 C2256 1.383 . S
C2262 C2261 1.379 . S
H2263 C2257 0.959 . S
H2264 C2257 0.961 . S
H2265 C2257 0.960 . S
H2266 C2258 0.930 . S
H2267 C2259 0.929 . S
H2268 C2276 0.929 . S
H2269 C2278 0.930 . S
H2270 C2280 0.930 . S
H2271 C2283 0.929 . S
H2272 C2286 0.930 . S
H2273 C2288 0.960 . S
H2274 C2288 0.960 . S
H2275 C2288 0.960 . S
C2276 H2268 0.929 . S
C2276 C2277 1.377 . S
C2276 C2278 1.384 . S
C2277 C2276 1.377 . S
C2277 C2283 1.390 . S
C2278 H2269 0.930 . S
C2278 C2276 1.384 . S
C2278 C2279 1.372 . S
C2279 C2278 1.372 . S
C2279 C2280 1.400 . S
C2279 C2284 1.490 . S
C2280 H2270 0.930 . S
C2280 C2279 1.400 . S
C2280 C2283 1.386 . S
H2281 C2297 0.930 1_554 S
H2282 C2298 0.931 . S
C2283 H2271 0.929 . S
C2283 C2277 1.390 . S
C2283 C2280 1.386 . S
C2284 C2279 1.490 . S
C2284 C2286 1.395 . S
C2284 C2287 1.403 . S
H2285 C2291 0.930 . S
C2286 H2272 0.930 . S
C2286 C2284 1.395 . S
C2286 C2289 1.403 . S
C2287 C2284 1.403 . S
C2287 C2288 1.524 . S
C2287 C2291 1.400 . S
C2288 H2273 0.960 . S
C2288 H2274 0.960 . S
C2288 H2275 0.960 . S
C2288 C2287 1.524 . S
C2289 C2286 1.403 . S
C2289 C2290 1.392 . S
C2289 C2293 1.495 . S
C2290 C2289 1.392 . S
C2290 C2291 1.385 . S
C2290 C2292 1.478 . S
C2291 H2285 0.930 . S
C2291 C2287 1.400 . S
C2291 C2290 1.385 . S
C2292 C2290 1.478 . S
C2292 C2294 1.381 . S
C2292 C2298 1.383 . S
C2293 C2289 1.495 . S
C2293 H2299 0.959 . S
C2293 H2300 0.961 . S
C2293 H2301 0.960 . S
C2294 C2292 1.381 . S
C2294 C2295 1.394 . S
C2294 H2302 0.930 . S
C2295 C2294 1.394 . S
C2295 C2296 1.383 . S
C2295 H2303 0.929 . S
C2296 C2295 1.383 . S
C2296 C2297 1.377 . S
C2297 H2281 0.930 1_556 S
C2297 C2296 1.377 . S
C2297 C2298 1.379 . S
C2298 H2282 0.931 . S
C2298 C2292 1.383 . S
C2298 C2297 1.379 . S
H2299 C2293 0.959 . S
H2300 C2293 0.961 . S
H2301 C2293 0.960 . S
H2302 C2294 0.930 . S
H2303 C2295 0.929 . S
H2304 C2312 0.929 . S
H2305 C2314 0.930 . S
H2306 C2316 0.930 . S
H2307 C2319 0.929 . S
H2308 C2322 0.930 . S
H2309 C2324 0.960 . S
H2310 C2324 0.960 . S
H2311 C2324 0.960 1_556 S
C2312 H2304 0.929 . S
C2312 C2313 1.377 . S
C2312 C2314 1.384 . S
C2313 C2312 1.377 . S
C2313 C2319 1.390 . S
C2314 H2305 0.930 . S
C2314 C2312 1.384 . S
C2314 C2315 1.372 . S
C2315 C2314 1.372 . S
C2315 C2316 1.400 . S
C2315 C2320 1.490 . S
C2316 H2306 0.930 . S
C2316 C2315 1.400 . S
C2316 C2319 1.386 . S
H2317 C2333 0.930 . S
H2318 C2334 0.931 . S
C2319 H2307 0.929 . S
C2319 C2313 1.390 . S
C2319 C2316 1.386 . S
C2320 C2315 1.490 . S
C2320 C2322 1.395 . S
C2320 C2323 1.403 1_556 S
H2321 C2327 0.930 . S
C2322 H2308 0.930 . S
C2322 C2320 1.395 . S
C2322 C2325 1.403 . S
C2323 C2320 1.403 1_554 S
C2323 C2324 1.524 . S
C2323 C2327 1.400 . S
C2324 H2309 0.960 . S
C2324 H2310 0.960 . S
C2324 H2311 0.960 1_554 S
C2324 C2323 1.524 . S
C2325 C2322 1.403 . S
C2325 C2326 1.392 1_556 S
C2325 C2329 1.495 . S
C2326 C2325 1.392 1_554 S
C2326 C2327 1.385 . S
C2326 C2328 1.478 . S
C2327 H2321 0.930 . S
C2327 C2323 1.400 . S
C2327 C2326 1.385 . S
C2328 C2326 1.478 . S
C2328 C2330 1.381 . S
C2328 C2334 1.383 . S
C2329 C2325 1.495 . S
C2329 H2335 0.959 . S
C2329 H2336 0.961 . S
C2329 H2337 0.960 . S
C2330 C2328 1.381 . S
C2330 C2331 1.394 . S
C2330 H2338 0.930 . S
C2331 C2330 1.394 . S
C2331 C2332 1.383 . S
C2331 H2339 0.929 . S
C2332 C2331 1.383 . S
C2332 C2333 1.377 . S
C2333 H2317 0.930 . S
C2333 C2332 1.377 . S
C2333 C2334 1.379 . S
C2334 H2318 0.931 . S
C2334 C2328 1.383 . S
C2334 C2333 1.379 . S
H2335 C2329 0.959 . S
H2336 C2329 0.961 . S
H2337 C2329 0.960 . S
H2338 C2330 0.930 . S
H2339 C2331 0.929 . S
H2340 C2348 0.929 . S
H2341 C2350 0.930 . S
H2342 C2352 0.930 . S
H2343 C2355 0.929 . S
H2344 C2358 0.930 . S
H2345 C2360 0.960 1_554 S
H2346 C2360 0.960 . S
H2347 C2360 0.960 . S
C2348 H2340 0.929 . S
C2348 C2349 1.377 . S
C2348 C2350 1.384 . S
C2349 C2348 1.377 . S
C2349 C2355 1.390 . S
C2350 H2341 0.930 . S
C2350 C2348 1.384 . S
C2350 C2351 1.372 . S
C2351 C2350 1.372 . S
C2351 C2352 1.400 . S
C2351 C2356 1.490 . S
C2352 H2342 0.930 . S
C2352 C2351 1.400 . S
C2352 C2355 1.386 . S
H2353 C2369 0.930 . S
H2354 C2370 0.931 . S
C2355 H2343 0.929 . S
C2355 C2349 1.390 . S
C2355 C2352 1.386 . S
C2356 C2351 1.490 . S
C2356 C2358 1.395 . S
C2356 C2359 1.403 . S
H2357 C2363 0.930 . S
C2358 H2344 0.930 . S
C2358 C2356 1.395 . S
C2358 C2361 1.403 1_556 S
C2359 C2356 1.403 . S
C2359 C2360 1.524 . S
C2359 C2363 1.400 1_556 S
C2360 H2345 0.960 1_556 S
C2360 H2346 0.960 . S
C2360 H2347 0.960 . S
C2360 C2359 1.524 . S
C2361 C2358 1.403 1_554 S
C2361 C2362 1.392 . S
C2361 C2365 1.495 . S
C2362 C2361 1.392 . S
C2362 C2363 1.385 . S
C2362 C2364 1.478 . S
C2363 H2357 0.930 . S
C2363 C2359 1.400 1_554 S
C2363 C2362 1.385 . S
C2364 C2362 1.478 . S
C2364 C2366 1.381 . S
C2364 C2370 1.383 . S
C2365 C2361 1.495 . S
C2365 H2371 0.959 1_554 S
C2365 H2372 0.961 . S
C2365 H2373 0.960 . S
C2366 C2364 1.381 . S
C2366 C2367 1.394 . S
C2366 H2374 0.930 . S
C2367 C2366 1.394 . S
C2367 C2368 1.383 . S
C2367 H2375 0.929 . S
C2368 C2367 1.383 . S
C2368 C2369 1.377 . S
C2369 H2353 0.930 . S
C2369 C2368 1.377 . S
C2369 C2370 1.379 . S
C2370 H2354 0.931 . S
C2370 C2364 1.383 . S
C2370 C2369 1.379 . S
H2371 C2365 0.959 1_556 S
H2372 C2365 0.961 . S
H2373 C2365 0.960 . S
H2374 C2366 0.930 . S
H2375 C2367 0.929 . S
H2376 C2384 0.929 . S
H2377 C2386 0.930 . S
H2378 C2388 0.930 . S
H2379 C2391 0.929 . S
H2380 C2394 0.930 . S
H2381 C2396 0.960 . S
H2382 C2396 0.960 . S
H2383 C2396 0.960 . S
C2384 H2376 0.929 . S
C2384 C2385 1.377 . S
C2384 C2386 1.384 . S
C2385 C2384 1.377 . S
C2385 C2391 1.390 . S
C2386 H2377 0.930 . S
C2386 C2384 1.384 . S
C2386 C2387 1.372 . S
C2387 C2386 1.372 . S
C2387 C2388 1.400 . S
C2387 C2392 1.490 . S
C2388 H2378 0.930 . S
C2388 C2387 1.400 . S
C2388 C2391 1.386 . S
H2389 C2405 0.930 . S
H2390 C2406 0.931 . S
C2391 H2379 0.929 . S
C2391 C2385 1.390 . S
C2391 C2388 1.386 . S
C2392 C2387 1.490 . S
C2392 C2394 1.395 . S
C2392 C2395 1.403 . S
H2393 C2399 0.930 . S
C2394 H2380 0.930 . S
C2394 C2392 1.395 . S
C2394 C2397 1.403 1_556 S
C2395 C2392 1.403 . S
C2395 C2396 1.524 . S
C2395 C2399 1.400 1_556 S
C2396 H2381 0.960 . S
C2396 H2382 0.960 . S
C2396 H2383 0.960 . S
C2396 C2395 1.524 . S
C2397 C2394 1.403 1_554 S
C2397 C2398 1.392 . S
C2397 C2401 1.495 . S
C2398 C2397 1.392 . S
C2398 C2399 1.385 . S
C2398 C2400 1.478 . S
C2399 H2393 0.930 . S
C2399 C2395 1.400 1_554 S
C2399 C2398 1.385 . S
C2400 C2398 1.478 . S
C2400 C2402 1.381 . S
C2400 C2406 1.383 . S
C2401 C2397 1.495 . S
C2401 H2407 0.959 . S
C2401 H2408 0.961 . S
C2401 H2409 0.960 . S
C2402 C2400 1.381 . S
C2402 C2403 1.394 . S
C2402 H2410 0.930 . S
C2403 C2402 1.394 . S
C2403 C2404 1.383 . S
C2403 H2411 0.929 . S
C2404 C2403 1.383 . S
C2404 C2405 1.377 . S
C2405 H2389 0.930 . S
C2405 C2404 1.377 . S
C2405 C2406 1.379 . S
C2406 H2390 0.931 . S
C2406 C2400 1.383 . S
C2406 C2405 1.379 . S
H2407 C2401 0.959 . S
H2408 C2401 0.961 . S
H2409 C2401 0.960 . S
H2410 C2402 0.930 . S
H2411 C2403 0.929 . S
H2412 C2420 0.929 . S
H2413 C2422 0.930 . S
H2414 C2424 0.930 . S
H2415 C2427 0.929 . S
H2416 C2430 0.930 . S
H2417 C2432 0.960 . S
H2418 C2432 0.960 . S
H2419 C2432 0.960 . S
C2420 H2412 0.929 . S
C2420 C2421 1.377 . S
C2420 C2422 1.384 . S
C2421 C2420 1.377 . S
C2421 C2427 1.390 . S
C2422 H2413 0.930 . S
C2422 C2420 1.384 . S
C2422 C2423 1.372 . S
C2423 C2422 1.372 . S
C2423 C2424 1.400 . S
C2423 C2428 1.490 . S
C2424 H2414 0.930 . S
C2424 C2423 1.400 . S
C2424 C2427 1.386 . S
H2425 C2441 0.930 . S
H2426 C2442 0.931 1_554 S
C2427 H2415 0.929 . S
C2427 C2421 1.390 . S
C2427 C2424 1.386 . S
C2428 C2423 1.490 . S
C2428 C2430 1.395 . S
C2428 C2431 1.403 . S
H2429 C2435 0.930 . S
C2430 H2416 0.930 . S
C2430 C2428 1.395 . S
C2430 C2433 1.403 . S
C2431 C2428 1.403 . S
C2431 C2432 1.524 . S
C2431 C2435 1.400 . S
C2432 H2417 0.960 . S
C2432 H2418 0.960 . S
C2432 H2419 0.960 . S
C2432 C2431 1.524 . S
C2433 C2430 1.403 . S
C2433 C2434 1.392 . S
C2433 C2437 1.495 . S
C2434 C2433 1.392 . S
C2434 C2435 1.385 . S
C2434 C2436 1.478 . S
C2435 H2429 0.930 . S
C2435 C2431 1.400 . S
C2435 C2434 1.385 . S
C2436 C2434 1.478 . S
C2436 C2438 1.381 . S
C2436 C2442 1.382 . S
C2437 C2433 1.495 . S
C2437 H2443 0.959 . S
C2437 H2444 0.961 1_556 S
C2437 H2445 0.960 . S
C2438 C2436 1.381 . S
C2438 C2439 1.394 . S
C2438 H2446 0.930 . S
C2439 C2438 1.394 . S
C2439 C2440 1.383 1_556 S
C2439 H2447 0.929 . S
C2440 C2439 1.383 1_554 S
C2440 C2441 1.377 . S
C2441 H2425 0.930 . S
C2441 C2440 1.377 . S
C2441 C2442 1.380 1_554 S
C2442 H2426 0.931 1_556 S
C2442 C2436 1.382 . S
C2442 C2441 1.380 1_556 S
H2443 C2437 0.959 . S
H2444 C2437 0.961 1_554 S
H2445 C2437 0.960 . S
H2446 C2438 0.930 . S
H2447 C2439 0.929 . S
H2448 C2456 0.929 . S
H2449 C2458 0.930 . S
H2450 C2460 0.930 . S
H2451 C2463 0.929 . S
H2452 C2466 0.930 . S
H2453 C2468 0.960 . S
H2454 C2468 0.960 . S
H2455 C2468 0.960 . S
C2456 H2448 0.929 . S
C2456 C2457 1.377 1_556 S
C2456 C2458 1.384 . S
C2457 C2456 1.377 1_554 S
C2457 C2463 1.390 . S
C2458 H2449 0.930 . S
C2458 C2456 1.384 . S
C2458 C2459 1.372 . S
C2459 C2458 1.372 . S
C2459 C2460 1.400 1_556 S
C2459 C2464 1.490 . S
C2460 H2450 0.930 . S
C2460 C2459 1.400 1_554 S
C2460 C2463 1.386 . S
H2461 C2477 0.930 . S
H2462 C2478 0.931 . S
C2463 H2451 0.929 . S
C2463 C2457 1.390 . S
C2463 C2460 1.386 . S
C2464 C2459 1.490 . S
C2464 C2466 1.395 . S
C2464 C2467 1.403 . S
H2465 C2471 0.930 . S
C2466 H2452 0.930 . S
C2466 C2464 1.395 . S
C2466 C2469 1.403 . S
C2467 C2464 1.403 . S
C2467 C2468 1.524 . S
C2467 C2471 1.400 . S
C2468 H2453 0.960 . S
C2468 H2454 0.960 . S
C2468 H2455 0.960 . S
C2468 C2467 1.524 . S
C2469 C2466 1.403 . S
C2469 C2470 1.392 . S
C2469 C2473 1.495 . S
C2470 C2469 1.392 . S
C2470 C2471 1.385 . S
C2470 C2472 1.478 . S
C2471 H2465 0.930 . S
C2471 C2467 1.400 . S
C2471 C2470 1.385 . S
C2472 C2470 1.478 . S
C2472 C2474 1.381 . S
C2472 C2478 1.383 . S
C2473 C2469 1.495 . S
C2473 H2479 0.959 . S
C2473 H2480 0.961 . S
C2473 H2481 0.960 . S
C2474 C2472 1.381 . S
C2474 C2475 1.394 . S
C2474 H2482 0.930 . S
C2475 C2474 1.394 . S
C2475 C2476 1.383 . S
C2475 H2483 0.929 . S
C2476 C2475 1.383 . S
C2476 C2477 1.377 . S
C2477 H2461 0.930 . S
C2477 C2476 1.377 . S
C2477 C2478 1.379 . S
C2478 H2462 0.931 . S
C2478 C2472 1.383 . S
C2478 C2477 1.379 . S
H2479 C2473 0.959 . S
H2480 C2473 0.961 . S
H2481 C2473 0.960 . S
H2482 C2474 0.930 . S
H2483 C2475 0.929 . S
H2484 C2492 0.929 . S
H2485 C2494 0.930 . S
H2486 C2496 0.930 . S
H2487 C2499 0.929 . S
H2488 C2502 0.930 . S
H2489 C2504 0.960 . S
H2490 C2504 0.960 . S
H2491 C2504 0.960 . S
C2492 H2484 0.929 . S
C2492 C2493 1.377 . S
C2492 C2494 1.384 . S
C2493 C2492 1.377 . S
C2493 C2499 1.390 . S
C2494 H2485 0.930 . S
C2494 C2492 1.384 . S
C2494 C2495 1.372 . S
C2495 C2494 1.372 . S
C2495 C2496 1.400 . S
C2495 C2500 1.490 . S
C2496 H2486 0.930 . S
C2496 C2495 1.400 . S
C2496 C2499 1.386 . S
H2497 C2513 0.930 . S
H2498 C2514 0.931 1_554 S
C2499 H2487 0.929 . S
C2499 C2493 1.390 . S
C2499 C2496 1.386 . S
C2500 C2495 1.490 . S
C2500 C2502 1.395 . S
C2500 C2503 1.403 . S
H2501 C2507 0.930 . S
C2502 H2488 0.930 . S
C2502 C2500 1.395 . S
C2502 C2505 1.403 . S
C2503 C2500 1.403 . S
C2503 C2504 1.524 . S
C2503 C2507 1.400 . S
C2504 H2489 0.960 . S
C2504 H2490 0.960 . S
C2504 H2491 0.960 . S
C2504 C2503 1.524 . S
C2505 C2502 1.403 . S
C2505 C2506 1.392 . S
C2505 C2509 1.495 . S
C2506 C2505 1.392 . S
C2506 C2507 1.385 . S
C2506 C2508 1.478 . S
C2507 H2501 0.930 . S
C2507 C2503 1.400 . S
C2507 C2506 1.385 . S
C2508 C2506 1.478 . S
C2508 C2510 1.381 . S
C2508 C2514 1.383 . S
C2509 C2505 1.495 . S
C2509 H2515 0.959 . S
C2509 H2516 0.961 . S
C2509 H2517 0.960 . S
C2510 C2508 1.381 . S
C2510 C2511 1.394 . S
C2510 H2518 0.930 . S
C2511 C2510 1.394 . S
C2511 C2512 1.383 1_556 S
C2511 H2519 0.929 . S
C2512 C2511 1.383 1_554 S
C2512 C2513 1.377 . S
C2513 H2497 0.930 . S
C2513 C2512 1.377 . S
C2513 C2514 1.379 1_554 S
C2514 H2498 0.931 1_556 S
C2514 C2508 1.383 . S
C2514 C2513 1.379 1_556 S
H2515 C2509 0.959 . S
H2516 C2509 0.961 . S
H2517 C2509 0.960 . S
H2518 C2510 0.930 . S
H2519 C2511 0.929 . S
H2520 C2528 0.929 . S
H2521 C2530 0.930 . S
H2522 C2532 0.930 . S
H2523 C2535 0.929 . S
H2524 C2538 0.930 . S
H2525 C2540 0.960 . S
H2526 C2540 0.960 . S
H2527 C2540 0.960 . S
C2528 H2520 0.929 . S
C2528 C2529 1.377 . S
C2528 C2530 1.384 . S
C2529 C2528 1.377 . S
C2529 C2535 1.390 . S
C2530 H2521 0.930 . S
C2530 C2528 1.384 . S
C2530 C2531 1.372 . S
C2531 C2530 1.372 . S
C2531 C2532 1.400 . S
C2531 C2536 1.490 . S
C2532 H2522 0.930 . S
C2532 C2531 1.400 . S
C2532 C2535 1.386 . S
H2533 C2549 0.930 . S
H2534 C2550 0.931 . S
C2535 H2523 0.929 . S
C2535 C2529 1.390 . S
C2535 C2532 1.386 . S
C2536 C2531 1.490 . S
C2536 C2538 1.395 . S
C2536 C2539 1.403 . S
H2537 C2543 0.930 . S
C2538 H2524 0.930 . S
C2538 C2536 1.395 . S
C2538 C2541 1.403 . S
C2539 C2536 1.403 . S
C2539 C2540 1.524 . S
C2539 C2543 1.400 . S
C2540 H2525 0.960 . S
C2540 H2526 0.960 . S
C2540 H2527 0.960 . S
C2540 C2539 1.524 . S
C2541 C2538 1.403 . S
C2541 C2542 1.392 . S
C2541 C2545 1.495 . S
C2542 C2541 1.392 . S
C2542 C2543 1.385 . S
C2542 C2544 1.478 . S
C2543 H2537 0.930 . S
C2543 C2539 1.400 . S
C2543 C2542 1.385 . S
C2544 C2542 1.478 . S
C2544 C2546 1.381 . S
C2544 C2550 1.383 . S
C2545 C2541 1.495 . S
C2545 H2551 0.959 . S
C2545 H2552 0.961 . S
C2545 H2553 0.960 . S
C2546 C2544 1.381 . S
C2546 C2547 1.394 . S
C2546 H2554 0.930 . S
C2547 C2546 1.394 . S
C2547 C2548 1.383 . S
C2547 H2555 0.929 . S
C2548 C2547 1.383 . S
C2548 C2549 1.377 . S
C2549 H2533 0.930 . S
C2549 C2548 1.377 . S
C2549 C2550 1.379 . S
C2550 H2534 0.931 . S
C2550 C2544 1.383 . S
C2550 C2549 1.379 . S
H2551 C2545 0.959 . S
H2552 C2545 0.961 . S
H2553 C2545 0.960 . S
H2554 C2546 0.930 . S
H2555 C2547 0.929 . S
H2556 C2564 0.929 . S
H2557 C2566 0.930 . S
H2558 C2568 0.930 . S
H2559 C2571 0.929 . S
H2560 C2574 0.930 . S
H2561 C2576 0.960 . S
H2562 C2576 0.960 . S
H2563 C2576 0.960 . S
C2564 H2556 0.929 . S
C2564 C2565 1.377 . S
C2564 C2566 1.384 . S
C2565 C2564 1.377 . S
C2565 C2571 1.390 . S
C2566 H2557 0.930 . S
C2566 C2564 1.384 . S
C2566 C2567 1.372 . S
C2567 C2566 1.372 . S
C2567 C2568 1.400 . S
C2567 C2572 1.490 . S
C2568 H2558 0.930 . S
C2568 C2567 1.400 . S
C2568 C2571 1.386 . S
H2569 C2585 0.930 . S
H2570 C2586 0.931 . S
C2571 H2559 0.929 . S
C2571 C2565 1.390 . S
C2571 C2568 1.386 . S
C2572 C2567 1.490 . S
C2572 C2574 1.395 . S
C2572 C2575 1.403 . S
H2573 C2579 0.930 . S
C2574 H2560 0.930 . S
C2574 C2572 1.395 . S
C2574 C2577 1.403 . S
C2575 C2572 1.403 . S
C2575 C2576 1.524 . S
C2575 C2579 1.400 . S
C2576 H2561 0.960 . S
C2576 H2562 0.960 . S
C2576 H2563 0.960 . S
C2576 C2575 1.524 . S
C2577 C2574 1.403 . S
C2577 C2578 1.392 . S
C2577 C2581 1.495 . S
C2578 C2577 1.392 . S
C2578 C2579 1.385 . S
C2578 C2580 1.478 . S
C2579 H2573 0.930 . S
C2579 C2575 1.400 . S
C2579 C2578 1.385 . S
C2580 C2578 1.478 . S
C2580 C2582 1.381 . S
C2580 C2586 1.383 . S
C2581 C2577 1.495 . S
C2581 H2587 0.959 . S
C2581 H2588 0.961 . S
C2581 H2589 0.960 . S
C2582 C2580 1.381 . S
C2582 C2583 1.394 . S
C2582 H2590 0.930 . S
C2583 C2582 1.394 . S
C2583 C2584 1.383 . S
C2583 H2591 0.929 . S
C2584 C2583 1.383 . S
C2584 C2585 1.377 . S
C2585 H2569 0.930 . S
C2585 C2584 1.377 . S
C2585 C2586 1.379 . S
C2586 H2570 0.931 . S
C2586 C2580 1.383 . S
C2586 C2585 1.379 . S
H2587 C2581 0.959 . S
H2588 C2581 0.961 . S
H2589 C2581 0.960 . S
H2590 C2582 0.930 . S
H2591 C2583 0.929 . S
H2592 C2600 0.929 . S
H2593 C2602 0.930 . S
H2594 C2604 0.930 . S
H2595 C2607 0.929 . S
H2596 C2610 0.930 . S
H2597 C2612 0.960 . S
H2598 C2612 0.960 . S
H2599 C2612 0.960 . S
C2600 H2592 0.929 . S
C2600 C2601 1.377 . S
C2600 C2602 1.384 . S
C2601 C2600 1.377 . S
C2601 C2607 1.390 . S
C2602 H2593 0.930 . S
C2602 C2600 1.384 . S
C2602 C2603 1.372 . S
C2603 C2602 1.372 . S
C2603 C2604 1.400 . S
C2603 C2608 1.490 . S
C2604 H2594 0.930 . S
C2604 C2603 1.400 . S
C2604 C2607 1.386 . S
H2605 C2621 0.930 . S
H2606 C2622 0.931 . S
C2607 H2595 0.929 . S
C2607 C2601 1.390 . S
C2607 C2604 1.386 . S
C2608 C2603 1.490 . S
C2608 C2610 1.395 . S
C2608 C2611 1.403 . S
H2609 C2615 0.930 . S
C2610 H2596 0.930 . S
C2610 C2608 1.395 . S
C2610 C2613 1.403 . S
C2611 C2608 1.403 . S
C2611 C2612 1.524 . S
C2611 C2615 1.400 . S
C2612 H2597 0.960 . S
C2612 H2598 0.960 . S
C2612 H2599 0.960 . S
C2612 C2611 1.524 . S
C2613 C2610 1.403 . S
C2613 C2614 1.392 . S
C2613 C2617 1.495 . S
C2614 C2613 1.392 . S
C2614 C2615 1.385 . S
C2614 C2616 1.478 . S
C2615 H2609 0.930 . S
C2615 C2611 1.400 . S
C2615 C2614 1.385 . S
C2616 C2614 1.478 . S
C2616 C2618 1.381 . S
C2616 C2622 1.383 . S
C2617 C2613 1.495 . S
C2617 H2623 0.959 . S
C2617 H2624 0.961 . S
C2617 H2625 0.960 . S
C2618 C2616 1.381 . S
C2618 C2619 1.394 . S
C2618 H2626 0.930 . S
C2619 C2618 1.394 . S
C2619 C2620 1.383 . S
C2619 H2627 0.929 . S
C2620 C2619 1.383 . S
C2620 C2621 1.377 . S
C2621 H2605 0.930 . S
C2621 C2620 1.377 . S
C2621 C2622 1.379 . S
C2622 H2606 0.931 . S
C2622 C2616 1.383 . S
C2622 C2621 1.379 . S
H2623 C2617 0.959 . S
H2624 C2617 0.961 . S
H2625 C2617 0.960 . S
H2626 C2618 0.930 . S
H2627 C2619 0.929 . S
H2628 C2636 0.929 . S
H2629 C2638 0.930 . S
H2630 C2640 0.930 . S
H2631 C2643 0.929 . S
H2632 C2646 0.930 . S
H2633 C2648 0.960 . S
H2634 C2648 0.960 . S
H2635 C2648 0.960 1_556 S
C2636 H2628 0.929 . S
C2636 C2637 1.377 1_554 S
C2636 C2638 1.384 . S
C2637 C2636 1.377 1_556 S
C2637 C2643 1.390 . S
C2638 H2629 0.930 . S
C2638 C2636 1.384 . S
C2638 C2639 1.372 . S
C2639 C2638 1.372 . S
C2639 C2640 1.400 1_554 S
C2639 C2644 1.490 . S
C2640 H2630 0.930 . S
C2640 C2639 1.400 1_556 S
C2640 C2643 1.386 . S
H2641 C2657 0.930 . S
H2642 C2658 0.931 . S
C2643 H2631 0.929 . S
C2643 C2637 1.390 . S
C2643 C2640 1.386 . S
C2644 C2639 1.490 . S
C2644 C2646 1.395 . S
C2644 C2647 1.403 . S
H2645 C2651 0.930 . S
C2646 H2632 0.930 . S
C2646 C2644 1.395 . S
C2646 C2649 1.403 . S
C2647 C2644 1.403 . S
C2647 C2648 1.524 . S
C2647 C2651 1.400 . S
C2648 H2633 0.960 . S
C2648 H2634 0.960 . S
C2648 H2635 0.960 1_554 S
C2648 C2647 1.524 . S
C2649 C2646 1.403 . S
C2649 C2650 1.392 . S
C2649 C2653 1.495 . S
C2650 C2649 1.392 . S
C2650 C2651 1.385 . S
C2650 C2652 1.478 . S
C2651 H2645 0.930 . S
C2651 C2647 1.400 . S
C2651 C2650 1.385 . S
C2652 C2650 1.478 . S
C2652 C2654 1.381 . S
C2652 C2658 1.383 . S
C2653 C2649 1.495 . S
C2653 H2659 0.959 . S
C2653 H2660 0.961 . S
C2653 H2661 0.960 . S
C2654 C2652 1.381 . S
C2654 C2655 1.394 . S
C2654 H2662 0.930 . S
C2655 C2654 1.394 . S
C2655 C2656 1.383 . S
C2655 H2663 0.929 . S
C2656 C2655 1.383 . S
C2656 C2657 1.377 . S
C2657 H2641 0.930 . S
C2657 C2656 1.377 . S
C2657 C2658 1.379 . S
C2658 H2642 0.931 . S
C2658 C2652 1.383 . S
C2658 C2657 1.379 . S
H2659 C2653 0.959 . S
H2660 C2653 0.961 . S
H2661 C2653 0.960 . S
H2662 C2654 0.930 . S
H2663 C2655 0.929 . S
H2664 C2672 0.929 . S
H2665 C2674 0.930 . S
H2666 C2676 0.930 . S
H2667 C2679 0.929 . S
H2668 C2682 0.930 . S
H2669 C2684 0.960 . S
H2670 C2684 0.960 . S
H2671 C2684 0.960 . S
C2672 H2664 0.929 . S
C2672 C2673 1.377 . S
C2672 C2674 1.384 . S
C2673 C2672 1.377 . S
C2673 C2679 1.390 . S
C2674 H2665 0.930 . S
C2674 C2672 1.384 . S
C2674 C2675 1.372 . S
C2675 C2674 1.372 . S
C2675 C2676 1.400 . S
C2675 C2680 1.490 . S
C2676 H2666 0.930 . S
C2676 C2675 1.400 . S
C2676 C2679 1.386 . S
H2677 C2693 0.930 . S
H2678 C2694 0.931 . S
C2679 H2667 0.929 . S
C2679 C2673 1.390 . S
C2679 C2676 1.386 . S
C2680 C2675 1.490 . S
C2680 C2682 1.395 . S
C2680 C2683 1.403 . S
H2681 C2687 0.930 . S
C2682 H2668 0.930 . S
C2682 C2680 1.395 . S
C2682 C2685 1.403 . S
C2683 C2680 1.403 . S
C2683 C2684 1.524 . S
C2683 C2687 1.400 . S
C2684 H2669 0.960 . S
C2684 H2670 0.960 . S
C2684 H2671 0.960 . S
C2684 C2683 1.524 . S
C2685 C2682 1.403 . S
C2685 C2686 1.392 . S
C2685 C2689 1.495 . S
C2686 C2685 1.392 . S
C2686 C2687 1.385 . S
C2686 C2688 1.478 . S
C2687 H2681 0.930 . S
C2687 C2683 1.400 . S
C2687 C2686 1.385 . S
C2688 C2686 1.478 . S
C2688 C2690 1.381 1_554 S
C2688 C2694 1.383 . S
C2689 C2685 1.495 . S
C2689 H2695 0.959 . S
C2689 H2696 0.961 . S
C2689 H2697 0.960 . S
C2690 C2688 1.381 1_556 S
C2690 C2691 1.394 . S
C2690 H2698 0.930 . S
C2691 C2690 1.394 . S
C2691 C2692 1.383 . S
C2691 H2699 0.929 . S
C2692 C2691 1.383 . S
C2692 C2693 1.377 1_556 S
C2693 H2677 0.930 . S
C2693 C2692 1.377 1_554 S
C2693 C2694 1.379 . S
C2694 H2678 0.931 . S
C2694 C2688 1.383 . S
C2694 C2693 1.379 . S
H2695 C2689 0.959 . S
H2696 C2689 0.961 . S
H2697 C2689 0.960 . S
H2698 C2690 0.930 . S
H2699 C2691 0.929 . S
H2700 C2708 0.929 . S
H2701 C2710 0.930 . S
H2702 C2712 0.930 . S
H2703 C2715 0.929 . S
H2704 C2718 0.930 . S
H2705 C2720 0.960 . S
H2706 C2720 0.960 . S
H2707 C2720 0.960 . S
C2708 H2700 0.929 . S
C2708 C2709 1.377 . S
C2708 C2710 1.384 . S
C2709 C2708 1.377 . S
C2709 C2715 1.390 . S
C2710 H2701 0.930 . S
C2710 C2708 1.384 . S
C2710 C2711 1.372 . S
C2711 C2710 1.372 . S
C2711 C2712 1.400 . S
C2711 C2716 1.490 . S
C2712 H2702 0.930 . S
C2712 C2711 1.400 . S
C2712 C2715 1.386 . S
H2713 C2729 0.930 . S
H2714 C2730 0.931 . S
C2715 H2703 0.929 . S
C2715 C2709 1.390 . S
C2715 C2712 1.386 . S
C2716 C2711 1.490 . S
C2716 C2718 1.395 . S
C2716 C2719 1.403 . S
H2717 C2723 0.930 . S
C2718 H2704 0.930 . S
C2718 C2716 1.395 . S
C2718 C2721 1.403 . S
C2719 C2716 1.403 . S
C2719 C2720 1.524 . S
C2719 C2723 1.400 . S
C2720 H2705 0.960 . S
C2720 H2706 0.960 . S
C2720 H2707 0.960 . S
C2720 C2719 1.524 . S
C2721 C2718 1.403 . S
C2721 C2722 1.392 . S
C2721 C2725 1.495 1_554 S
C2722 C2721 1.392 . S
C2722 C2723 1.385 . S
C2722 C2724 1.478 . S
C2723 H2717 0.930 . S
C2723 C2719 1.400 . S
C2723 C2722 1.385 . S
C2724 C2722 1.478 . S
C2724 C2726 1.381 1_554 S
C2724 C2730 1.383 . S
C2725 C2721 1.495 1_556 S
C2725 H2731 0.959 . S
C2725 H2732 0.961 . S
C2725 H2733 0.960 . S
C2726 C2724 1.381 1_556 S
C2726 C2727 1.394 . S
C2726 H2734 0.930 . S
C2727 C2726 1.394 . S
C2727 C2728 1.383 . S
C2727 H2735 0.929 . S
C2728 C2727 1.383 . S
C2728 C2729 1.377 1_556 S
C2729 H2713 0.930 . S
C2729 C2728 1.377 1_554 S
C2729 C2730 1.379 . S
C2730 H2714 0.931 . S
C2730 C2724 1.383 . S
C2730 C2729 1.379 . S
H2731 C2725 0.959 . S
H2732 C2725 0.961 . S
H2733 C2725 0.960 . S
H2734 C2726 0.930 . S
H2735 C2727 0.929 . S
H2736 C2744 0.929 . S
H2737 C2746 0.930 . S
H2738 C2748 0.930 . S
H2739 C2751 0.929 . S
H2740 C2754 0.930 . S
H2741 C2756 0.960 . S
H2742 C2756 0.960 . S
H2743 C2756 0.960 . S
C2744 H2736 0.929 . S
C2744 C2745 1.377 . S
C2744 C2746 1.384 . S
C2745 C2744 1.377 . S
C2745 C2751 1.390 . S
C2746 H2737 0.930 . S
C2746 C2744 1.384 . S
C2746 C2747 1.372 . S
C2747 C2746 1.372 . S
C2747 C2748 1.400 . S
C2747 C2752 1.490 . S
C2748 H2738 0.930 . S
C2748 C2747 1.400 . S
C2748 C2751 1.386 . S
H2749 C2765 0.930 . S
H2750 C2766 0.931 . S
C2751 H2739 0.929 . S
C2751 C2745 1.390 . S
C2751 C2748 1.386 . S
C2752 C2747 1.490 . S
C2752 C2754 1.395 . S
C2752 C2755 1.403 . S
H2753 C2759 0.930 . S
C2754 H2740 0.930 . S
C2754 C2752 1.395 . S
C2754 C2757 1.403 . S
C2755 C2752 1.403 . S
C2755 C2756 1.524 . S
C2755 C2759 1.400 . S
C2756 H2741 0.960 . S
C2756 H2742 0.960 . S
C2756 H2743 0.960 . S
C2756 C2755 1.524 . S
C2757 C2754 1.403 . S
C2757 C2758 1.392 . S
C2757 C2761 1.495 . S
C2758 C2757 1.392 . S
C2758 C2759 1.385 . S
C2758 C2760 1.478 . S
C2759 H2753 0.930 . S
C2759 C2755 1.400 . S
C2759 C2758 1.385 . S
C2760 C2758 1.478 . S
C2760 C2762 1.381 . S
C2760 C2766 1.383 . S
C2761 C2757 1.495 . S
C2761 H2767 0.959 . S
C2761 H2768 0.961 . S
C2761 H2769 0.960 . S
C2762 C2760 1.381 . S
C2762 C2763 1.394 . S
C2762 H2770 0.930 . S
C2763 C2762 1.394 . S
C2763 C2764 1.383 . S
C2763 H2771 0.929 . S
C2764 C2763 1.383 . S
C2764 C2765 1.377 . S
C2765 H2749 0.930 . S
C2765 C2764 1.377 . S
C2765 C2766 1.379 . S
C2766 H2750 0.931 . S
C2766 C2760 1.383 . S
C2766 C2765 1.379 . S
H2767 C2761 0.959 . S
H2768 C2761 0.961 . S
H2769 C2761 0.960 . S
H2770 C2762 0.930 . S
H2771 C2763 0.929 . S
H2772 C2780 0.929 . S
H2773 C2782 0.930 . S
H2774 C2784 0.930 . S
H2775 C2787 0.929 . S
H2776 C2790 0.930 . S
H2777 C2792 0.960 . S
H2778 C2792 0.960 . S
H2779 C2792 0.960 . S
C2780 H2772 0.929 . S
C2780 C2781 1.377 . S
C2780 C2782 1.384 . S
C2781 C2780 1.377 . S
C2781 C2787 1.390 . S
C2782 H2773 0.930 . S
C2782 C2780 1.384 . S
C2782 C2783 1.372 . S
C2783 C2782 1.372 . S
C2783 C2784 1.400 . S
C2783 C2788 1.490 . S
C2784 H2774 0.930 . S
C2784 C2783 1.400 . S
C2784 C2787 1.386 . S
H2785 C2801 0.930 . S
H2786 C2802 0.931 . S
C2787 H2775 0.929 . S
C2787 C2781 1.390 . S
C2787 C2784 1.386 . S
C2788 C2783 1.490 . S
C2788 C2790 1.395 . S
C2788 C2791 1.403 . S
H2789 C2795 0.930 . S
C2790 H2776 0.930 . S
C2790 C2788 1.395 . S
C2790 C2793 1.403 . S
C2791 C2788 1.403 . S
C2791 C2792 1.524 . S
C2791 C2795 1.400 . S
C2792 H2777 0.960 . S
C2792 H2778 0.960 . S
C2792 H2779 0.960 . S
C2792 C2791 1.524 . S
C2793 C2790 1.403 . S
C2793 C2794 1.392 . S
C2793 C2797 1.495 . S
C2794 C2793 1.392 . S
C2794 C2795 1.385 . S
C2794 C2796 1.478 . S
C2795 H2789 0.930 . S
C2795 C2791 1.400 . S
C2795 C2794 1.385 . S
C2796 C2794 1.478 . S
C2796 C2798 1.381 . S
C2796 C2802 1.383 . S
C2797 C2793 1.495 . S
C2797 H2803 0.959 . S
C2797 H2804 0.961 . S
C2797 H2805 0.960 . S
C2798 C2796 1.381 . S
C2798 C2799 1.394 . S
C2798 H2806 0.930 . S
C2799 C2798 1.394 . S
C2799 C2800 1.383 . S
C2799 H2807 0.929 . S
C2800 C2799 1.383 . S
C2800 C2801 1.377 . S
C2801 H2785 0.930 . S
C2801 C2800 1.377 . S
C2801 C2802 1.379 . S
C2802 H2786 0.931 . S
C2802 C2796 1.383 . S
C2802 C2801 1.379 . S
H2803 C2797 0.959 . S
H2804 C2797 0.961 . S
H2805 C2797 0.960 . S
H2806 C2798 0.930 . S
H2807 C2799 0.929 . S
H2808 C2816 0.929 . S
H2809 C2818 0.930 . S
H2810 C2820 0.930 . S
H2811 C2823 0.929 . S
H2812 C2826 0.930 . S
H2813 C2828 0.960 . S
H2814 C2828 0.960 . S
H2815 C2828 0.960 . S
C2816 H2808 0.929 . S
C2816 C2817 1.377 . S
C2816 C2818 1.384 . S
C2817 C2816 1.377 . S
C2817 C2823 1.390 . S
C2818 H2809 0.930 . S
C2818 C2816 1.384 . S
C2818 C2819 1.372 . S
C2819 C2818 1.372 . S
C2819 C2820 1.400 . S
C2819 C2824 1.490 . S
C2820 H2810 0.930 . S
C2820 C2819 1.400 . S
C2820 C2823 1.386 . S
H2821 C2837 0.930 . S
H2822 C2838 0.931 . S
C2823 H2811 0.929 . S
C2823 C2817 1.390 . S
C2823 C2820 1.386 . S
C2824 C2819 1.490 . S
C2824 C2826 1.395 . S
C2824 C2827 1.403 . S
H2825 C2831 0.930 . S
C2826 H2812 0.930 . S
C2826 C2824 1.395 . S
C2826 C2829 1.403 . S
C2827 C2824 1.403 . S
C2827 C2828 1.524 . S
C2827 C2831 1.400 . S
C2828 H2813 0.960 . S
C2828 H2814 0.960 . S
C2828 H2815 0.960 . S
C2828 C2827 1.524 . S
C2829 C2826 1.403 . S
C2829 C2830 1.392 . S
C2829 C2833 1.495 . S
C2830 C2829 1.392 . S
C2830 C2831 1.385 . S
C2830 C2832 1.478 . S
C2831 H2825 0.930 . S
C2831 C2827 1.400 . S
C2831 C2830 1.385 . S
C2832 C2830 1.478 . S
C2832 C2834 1.381 . S
C2832 C2838 1.383 . S
C2833 C2829 1.495 . S
C2833 H2839 0.959 . S
C2833 H2840 0.961 . S
C2833 H2841 0.960 . S
C2834 C2832 1.381 . S
C2834 C2835 1.394 . S
C2834 H2842 0.930 . S
C2835 C2834 1.394 . S
C2835 C2836 1.383 . S
C2835 H2843 0.929 . S
C2836 C2835 1.383 . S
C2836 C2837 1.377 . S
C2837 H2821 0.930 . S
C2837 C2836 1.377 . S
C2837 C2838 1.379 . S
C2838 H2822 0.931 . S
C2838 C2832 1.383 . S
C2838 C2837 1.379 . S
H2839 C2833 0.959 . S
H2840 C2833 0.961 . S
H2841 C2833 0.960 . S
H2842 C2834 0.930 . S
H2843 C2835 0.929 . S
H2844 C2852 0.929 . S
H2845 C2854 0.930 . S
H2846 C2856 0.930 . S
H2847 C2859 0.929 . S
H2848 C2862 0.930 . S
H2849 C2864 0.966 . S
H2850 C2864 0.960 . S
H2851 C2864 0.960 . S
C2852 H2844 0.929 . S
C2852 C2853 1.377 . S
C2852 C2854 1.384 . S
C2853 C2852 1.377 . S
C2853 C2859 1.390 . S
C2854 H2845 0.930 . S
C2854 C2852 1.384 . S
C2854 C2855 1.372 . S
C2855 C2854 1.372 . S
C2855 C2856 1.400 . S
C2855 C2860 1.490 . S
C2856 H2846 0.930 . S
C2856 C2855 1.400 . S
C2856 C2859 1.386 . S
H2857 C2873 0.930 . S
H2858 C2874 0.931 . S
C2859 H2847 0.929 . S
C2859 C2853 1.390 . S
C2859 C2856 1.386 . S
C2860 C2855 1.490 . S
C2860 C2862 1.395 . S
C2860 C2863 1.403 . S
H2861 C2867 0.930 . S
C2862 H2848 0.930 . S
C2862 C2860 1.395 . S
C2862 C2865 1.403 1_655 S
C2863 C2860 1.403 . S
C2863 C2864 1.524 . S
C2863 C2867 1.400 1_655 S
C2864 H2849 0.966 . S
C2864 H2850 0.960 . S
C2864 H2851 0.960 . S
C2864 C2863 1.524 . S
C2865 C2862 1.403 1_455 S
C2865 C2866 1.392 . S
C2865 C2869 1.495 . S
C2866 C2865 1.392 . S
C2866 C2867 1.385 . S
C2866 C2868 1.478 . S
C2867 H2861 0.930 . S
C2867 C2863 1.400 1_455 S
C2867 C2866 1.385 . S
C2868 C2866 1.478 . S
C2868 C2870 1.381 . S
C2868 C2874 1.383 . S
C2869 C2865 1.495 . S
C2869 H2875 0.959 . S
C2869 H2876 0.961 . S
C2869 H2877 0.960 . S
C2870 C2868 1.381 . S
C2870 C2871 1.394 . S
C2870 H2878 0.930 . S
C2871 C2870 1.394 . S
C2871 C2872 1.383 . S
C2871 H2879 0.929 . S
C2872 C2871 1.383 . S
C2872 C2873 1.377 . S
C2873 H2857 0.930 . S
C2873 C2872 1.377 . S
C2873 C2874 1.379 . S
C2874 H2858 0.931 . S
C2874 C2868 1.383 . S
C2874 C2873 1.379 . S
H2875 C2869 0.959 . S
H2876 C2869 0.961 . S
H2877 C2869 0.960 . S
H2878 C2870 0.930 . S
H2879 C2871 0.929 . S
H2880 C2888 0.929 . S
H2881 C2890 0.930 . S
H2882 C2892 0.930 . S
H2883 C2895 0.929 . S
H2884 C2898 0.930 . S
H2885 C2900 0.960 . S
H2886 C2900 0.960 . S
H2887 C2900 0.960 . S
C2888 H2880 0.929 . S
C2888 C2889 1.377 . S
C2888 C2890 1.384 . S
C2889 C2888 1.377 . S
C2889 C2895 1.390 . S
C2890 H2881 0.930 . S
C2890 C2888 1.384 . S
C2890 C2891 1.372 . S
C2891 C2890 1.372 . S
C2891 C2892 1.400 . S
C2891 C2896 1.490 . S
C2892 H2882 0.930 . S
C2892 C2891 1.400 . S
C2892 C2895 1.386 . S
H2893 C2909 0.930 . S
H2894 C2910 0.931 . S
C2895 H2883 0.929 . S
C2895 C2889 1.390 . S
C2895 C2892 1.386 . S
C2896 C2891 1.490 . S
C2896 C2898 1.395 . S
C2896 C2899 1.403 . S
H2897 C2903 0.930 . S
C2898 H2884 0.930 . S
C2898 C2896 1.395 . S
C2898 C2901 1.403 . S
C2899 C2896 1.403 . S
C2899 C2900 1.524 . S
C2899 C2903 1.400 . S
C2900 H2885 0.960 . S
C2900 H2886 0.960 . S
C2900 H2887 0.960 . S
C2900 C2899 1.524 . S
C2901 C2898 1.403 . S
C2901 C2902 1.392 . S
C2901 C2905 1.495 . S
C2902 C2901 1.392 . S
C2902 C2903 1.385 . S
C2902 C2904 1.478 . S
C2903 H2897 0.930 . S
C2903 C2899 1.400 . S
C2903 C2902 1.385 . S
C2904 C2902 1.478 . S
C2904 C2906 1.381 . S
C2904 C2910 1.383 . S
C2905 C2901 1.495 . S
C2905 H2911 0.959 . S
C2905 H2912 0.961 . S
C2905 H2913 0.960 . S
C2906 C2904 1.381 . S
C2906 C2907 1.394 . S
C2906 H2914 0.930 . S
C2907 C2906 1.394 . S
C2907 C2908 1.383 . S
C2907 H2915 0.929 . S
C2908 C2907 1.383 . S
C2908 C2909 1.377 . S
C2909 H2893 0.930 . S
C2909 C2908 1.377 . S
C2909 C2910 1.379 . S
C2910 H2894 0.931 . S
C2910 C2904 1.383 . S
C2910 C2909 1.379 . S
H2911 C2905 0.959 . S
H2912 C2905 0.961 . S
H2913 C2905 0.960 . S
H2914 C2906 0.930 . S
H2915 C2907 0.929 . S
H2916 C2924 0.929 . S
H2917 C2926 0.930 . S
H2918 C2928 0.930 . S
H2919 C2931 0.929 . S
H2920 C2934 0.930 . S
H2921 C2936 0.960 . S
H2922 C2936 0.960 . S
H2923 C2936 0.960 . S
C2924 H2916 0.929 . S
C2924 C2925 1.377 . S
C2924 C2926 1.384 . S
C2925 C2924 1.377 . S
C2925 C2931 1.390 . S
C2926 H2917 0.930 . S
C2926 C2924 1.384 . S
C2926 C2927 1.372 . S
C2927 C2926 1.372 . S
C2927 C2928 1.400 . S
C2927 C2932 1.490 . S
C2928 H2918 0.930 . S
C2928 C2927 1.400 . S
C2928 C2931 1.386 . S
H2929 C2945 0.930 . S
H2930 C2946 0.931 . S
C2931 H2919 0.929 . S
C2931 C2925 1.390 . S
C2931 C2928 1.386 . S
C2932 C2927 1.490 . S
C2932 C2934 1.395 . S
C2932 C2935 1.403 . S
H2933 C2939 0.930 . S
C2934 H2920 0.930 . S
C2934 C2932 1.395 . S
C2934 C2937 1.403 1_565 S
C2935 C2932 1.403 . S
C2935 C2936 1.524 . S
C2935 C2939 1.400 1_565 S
C2936 H2921 0.960 . S
C2936 H2922 0.960 . S
C2936 H2923 0.960 . S
C2936 C2935 1.524 . S
C2937 C2934 1.403 1_545 S
C2937 C2938 1.392 . S
C2937 C2941 1.495 . S
C2938 C2937 1.392 . S
C2938 C2939 1.385 . S
C2938 C2940 1.478 . S
C2939 H2933 0.930 . S
C2939 C2935 1.400 1_545 S
C2939 C2938 1.385 . S
C2940 C2938 1.478 . S
C2940 C2942 1.381 . S
C2940 C2946 1.383 . S
C2941 C2937 1.495 . S
C2941 H2947 0.959 . S
C2941 H2948 0.961 . S
C2941 H2949 0.960 . S
C2942 C2940 1.381 . S
C2942 C2943 1.394 . S
C2942 H2950 0.930 . S
C2943 C2942 1.394 . S
C2943 C2944 1.383 . S
C2943 H2951 0.929 . S
C2944 C2943 1.383 . S
C2944 C2945 1.377 . S
C2945 H2929 0.930 . S
C2945 C2944 1.377 . S
C2945 C2946 1.379 . S
C2946 H2930 0.931 . S
C2946 C2940 1.383 . S
C2946 C2945 1.379 . S
H2947 C2941 0.959 . S
H2948 C2941 0.961 . S
H2949 C2941 0.960 . S
H2950 C2942 0.930 . S
H2951 C2943 0.929 . S
H2952 C2960 0.929 . S
H2953 C2962 0.930 . S
H2954 C2964 0.930 . S
H2955 C2967 0.929 . S
H2956 C2970 0.930 . S
H2957 C2972 0.960 . S
H2958 C2972 0.960 . S
H2959 C2972 0.960 . S
C2960 H2952 0.929 . S
C2960 C2961 1.377 . S
C2960 C2962 1.384 . S
C2961 C2960 1.377 . S
C2961 C2967 1.390 . S
C2962 H2953 0.930 . S
C2962 C2960 1.384 . S
C2962 C2963 1.372 . S
C2963 C2962 1.372 . S
C2963 C2964 1.400 . S
C2963 C2968 1.490 . S
C2964 H2954 0.930 . S
C2964 C2963 1.400 . S
C2964 C2967 1.386 . S
H2965 C2981 0.930 . S
H2966 C2982 0.931 . S
C2967 H2955 0.929 . S
C2967 C2961 1.390 . S
C2967 C2964 1.386 . S
C2968 C2963 1.490 . S
C2968 C2970 1.395 . S
C2968 C2971 1.403 . S
H2969 C2975 0.930 . S
C2970 H2956 0.930 . S
C2970 C2968 1.395 . S
C2970 C2973 1.403 1_545 S
C2971 C2968 1.403 . S
C2971 C2972 1.524 . S
C2971 C2975 1.400 1_545 S
C2972 H2957 0.960 . S
C2972 H2958 0.960 . S
C2972 H2959 0.960 . S
C2972 C2971 1.524 . S
C2973 C2970 1.403 1_565 S
C2973 C2974 1.392 . S
C2973 C2977 1.495 . S
C2974 C2973 1.392 . S
C2974 C2975 1.385 . S
C2974 C2976 1.478 . S
C2975 H2969 0.930 . S
C2975 C2971 1.400 1_565 S
C2975 C2974 1.385 . S
C2976 C2974 1.478 . S
C2976 C2978 1.381 . S
C2976 C2982 1.383 . S
C2977 C2973 1.495 . S
C2977 H2983 0.959 . S
C2977 H2984 0.961 . S
C2977 H2985 0.960 . S
C2978 C2976 1.381 . S
C2978 C2979 1.394 . S
C2978 H2986 0.930 . S
C2979 C2978 1.394 . S
C2979 C2980 1.383 . S
C2979 H2987 0.929 . S
C2980 C2979 1.383 . S
C2980 C2981 1.377 . S
C2981 H2965 0.930 . S
C2981 C2980 1.377 . S
C2981 C2982 1.379 . S
C2982 H2966 0.931 . S
C2982 C2976 1.383 . S
C2982 C2981 1.379 . S
H2983 C2977 0.959 . S
H2984 C2977 0.961 . S
H2985 C2977 0.960 . S
H2986 C2978 0.930 . S
H2987 C2979 0.929 . S
H2988 C2996 0.929 . S
H2989 C2998 0.930 . S
H2990 C3000 0.930 . S
H2991 C3003 0.929 . S
H2992 C3006 0.930 . S
H2993 C3008 0.960 . S
H2994 C3008 0.960 . S
H2995 C3008 0.960 . S
C2996 H2988 0.929 . S
C2996 C2997 1.377 . S
C2996 C2998 1.384 . S
C2997 C2996 1.377 . S
C2997 C3003 1.390 . S
C2998 H2989 0.930 . S
C2998 C2996 1.384 . S
C2998 C2999 1.372 . S
C2999 C2998 1.372 . S
C2999 C3000 1.400 . S
C2999 C3004 1.490 . S
C3000 H2990 0.930 . S
C3000 C2999 1.400 . S
C3000 C3003 1.386 . S
H3001 C3017 0.930 . S
H3002 C3018 0.931 . S
C3003 H2991 0.929 . S
C3003 C2997 1.390 . S
C3003 C3000 1.386 . S
C3004 C2999 1.490 . S
C3004 C3006 1.395 . S
C3004 C3007 1.403 . S
H3005 C3011 0.930 . S
C3006 H2992 0.930 . S
C3006 C3004 1.395 . S
C3006 C3009 1.403 1_455 S
C3007 C3004 1.403 . S
C3007 C3008 1.524 . S
C3007 C3011 1.400 1_455 S
C3008 H2993 0.960 . S
C3008 H2994 0.960 . S
C3008 H2995 0.960 . S
C3008 C3007 1.524 . S
C3009 C3006 1.403 1_655 S
C3009 C3010 1.392 . S
C3009 C3013 1.495 . S
C3010 C3009 1.392 . S
C3010 C3011 1.385 . S
C3010 C3012 1.478 . S
C3011 H3005 0.930 . S
C3011 C3007 1.400 1_655 S
C3011 C3010 1.385 . S
C3012 C3010 1.478 . S
C3012 C3014 1.381 . S
C3012 C3018 1.383 . S
C3013 C3009 1.495 . S
C3013 H3019 0.959 . S
C3013 H3020 0.961 . S
C3013 H3021 0.960 . S
C3014 C3012 1.381 . S
C3014 C3015 1.394 . S
C3014 H3022 0.930 . S
C3015 C3014 1.394 . S
C3015 C3016 1.383 . S
C3015 H3023 0.929 . S
C3016 C3015 1.383 . S
C3016 C3017 1.377 . S
C3017 H3001 0.930 . S
C3017 C3016 1.377 . S
C3017 C3018 1.379 . S
C3018 H3002 0.931 . S
C3018 C3012 1.383 . S
C3018 C3017 1.379 . S
H3019 C3013 0.959 . S
H3020 C3013 0.961 . S
H3021 C3013 0.960 . S
H3022 C3014 0.930 . S
H3023 C3015 0.929 . S
H3024 C3032 0.929 . S
H3025 C3034 0.930 . S
H3026 C3036 0.930 . S
H3027 C3039 0.929 . S
H3028 C3042 0.930 . S
H3029 C3044 0.960 . S
H3030 C3044 0.960 . S
H3031 C3044 0.960 . S
C3032 H3024 0.929 . S
C3032 C3033 1.377 . S
C3032 C3034 1.384 . S
C3033 C3032 1.377 . S
C3033 C3039 1.390 . S
C3034 H3025 0.930 . S
C3034 C3032 1.384 . S
C3034 C3035 1.372 . S
C3035 C3034 1.372 . S
C3035 C3036 1.400 . S
C3035 C3040 1.490 . S
C3036 H3026 0.930 . S
C3036 C3035 1.400 . S
C3036 C3039 1.386 . S
H3037 C3053 0.930 . S
H3038 C3054 0.931 . S
C3039 H3027 0.929 . S
C3039 C3033 1.390 . S
C3039 C3036 1.386 . S
C3040 C3035 1.490 . S
C3040 C3042 1.395 . S
C3040 C3043 1.403 . S
H3041 C3047 0.930 . S
C3042 H3028 0.930 . S
C3042 C3040 1.395 . S
C3042 C3045 1.403 . S
C3043 C3040 1.403 . S
C3043 C3044 1.524 . S
C3043 C3047 1.400 . S
C3044 H3029 0.960 . S
C3044 H3030 0.960 . S
C3044 H3031 0.960 . S
C3044 C3043 1.524 . S
C3045 C3042 1.403 . S
C3045 C3046 1.392 . S
C3045 C3049 1.495 . S
C3046 C3045 1.392 . S
C3046 C3047 1.385 . S
C3046 C3048 1.478 . S
C3047 H3041 0.930 . S
C3047 C3043 1.400 . S
C3047 C3046 1.385 . S
C3048 C3046 1.478 . S
C3048 C3050 1.381 . S
C3048 C3054 1.383 . S
C3049 C3045 1.495 . S
C3049 H3055 0.959 . S
C3049 H3056 0.961 . S
C3049 H3057 0.960 . S
C3050 C3048 1.381 . S
C3050 C3051 1.394 . S
C3050 H3058 0.930 . S
C3051 C3050 1.394 . S
C3051 C3052 1.383 . S
C3051 H3059 0.929 . S
C3052 C3051 1.383 . S
C3052 C3053 1.377 . S
C3053 H3037 0.930 . S
C3053 C3052 1.377 . S
C3053 C3054 1.379 . S
C3054 H3038 0.931 . S
C3054 C3048 1.383 . S
C3054 C3053 1.379 . S
H3055 C3049 0.959 . S
H3056 C3049 0.961 . S
H3057 C3049 0.960 . S
H3058 C3050 0.930 . S
H3059 C3051 0.929 . S
C477 C75 1.024 . S
C496 C4 1.038 . S
C513 C17 1.021 . S
C532 C49 1.010 . S
C549 C62 1.019 . S
C568 C36 1.013 . S
C585 C82 1.022 . S
C604 C147 1.037 . S
C621 C95 1.020 . S
C640 C121 1.000 . S
C657 C134 1.023 . S
C676 C114 1.039 . S
C693 C225 1.019 . S
C712 C160 1.003 . S
C729 C179 1.017 . S
C748 C205 0.999 . S
C765 C218 1.025 . S
C784 C192 1.026 . S
C801 C238 1.020 . S
C820 C309 1.039 . S
C837 C257 1.023 . S
C856 C277 1.002 . S
C873 C264 1.019 . S
C892 C290 1.007 . S
C909 C316 1.024 . S
C928 C387 1.038 . S
C945 C361 1.019 . S
C964 C329 1.004 . S
C981 C342 1.027 . S
C1000 C374 1.038 . S
C1017 C400 1.019 . S
C1036 C465 1.002 . S
C1053 C407 1.021 . S
C1072 C439 1.038 . S
C1089 C420 1.019 . S
C1108 C452 1.010 . S
C1125 C140 1.342 . S
C1144 C5 1.341 1_556 S
C1161 C153 1.343 . S
C1180 C18 1.317 1_556 S
C1197 C127 1.340 . S
C1216 C29 1.324 1_556 S
C1233 C108 1.341 . S
C1252 C42 1.327 . S
C1269 C55 1.331 . S
C1288 C88 1.330 . S
C1305 C68 1.334 . S
C1324 C101 1.343 . S
C1341 C83 1.333 1_554 S
C1360 C56 1.334 . S
C1377 C96 1.334 1_554 S
C1396 C69 1.331 . S
C1413 C107 1.334 1_554 S
C1432 C43 1.330 . S
C1449 C30 1.344 . S
C1468 C122 1.325 . S
C1485 C10 1.343 . S
C1504 C135 1.325 . S
C1521 C148 1.333 . S
C1540 C23 1.341 . S
C1557 C161 1.330 . S
C1576 C296 1.346 1_554 S
C1593 C172 1.334 . S
C1612 C303 1.334 1_554 S
C1629 C283 1.343 1_554 S
C1648 C185 1.319 . S
C1665 C198 1.329 . S
C1684 C270 1.343 . S
C1701 C211 1.329 . S
C1720 C244 1.345 . S
C1737 C226 1.333 . S
C1756 C251 1.331 . S
C1773 C239 1.329 . S
C1792 C212 1.343 . S
C1809 C231 1.340 . S
C1828 C250 1.344 . S
C1845 C199 1.343 . S
C1864 C265 1.315 . S
C1881 C278 1.330 . S
C1900 C186 1.340 . S
C1917 C166 1.341 . S
C1936 C291 1.332 . S
C1953 C173 1.343 . S
C1972 C302 1.314 . S
C1989 C446 1.342 . S
C2008 C317 1.317 . S
C2025 C330 1.333 . S
C2044 C459 1.331 . S
C2061 C343 1.331 . S
C2080 C433 1.347 . S
C2097 C426 1.342 . S
C2116 C354 1.345 . S
C2133 C394 1.343 . S
C2152 C367 1.328 . S
C2169 C413 1.340 . S
C2188 C380 1.324 . S
C2205 C393 1.333 . S
C2224 C368 1.332 1_556 S
C2241 C381 1.341 1_556 S
C2260 C408 1.320 . S
C2277 C421 1.331 . S
C2296 C355 1.344 1_556 S
C2313 C348 1.341 . S
C2332 C432 1.331 . S
C2349 C322 1.342 . S
C2368 C445 1.316 . S
C2385 C335 1.343 . S
C2404 C458 1.313 . S
C2421 C213 1.323 . S
C2440 C3 1.334 . S
C2457 C16 1.322 . S
C2476 C224 1.301 . S
C2493 C200 1.319 . S
C2512 C31 1.327 . S
C2529 C341 1.325 . S
C2548 C44 1.305 . S
C2565 C57 1.325 . S
C2584 C315 1.306 . S
C2601 C70 1.321 . S
C2620 C328 1.302 . S
C2637 C81 1.319 . S
C2656 C447 1.334 . S
C2673 C460 1.320 . S
C2692 C94 1.335 . S
C2709 C434 1.318 . S
C2728 C109 1.329 . S
C2745 C263 1.322 . S
C2764 C120 1.333 . S
C2781 C133 1.324 . S
C2800 C237 1.303 . S
C2817 C146 1.323 . S
C2836 C252 1.328 . S
C2853 C159 1.321 . S
C2872 C369 1.336 . S
C2889 C382 1.325 . S
C2908 C174 1.316 . S
C2925 C356 1.323 . S
C2944 C187 1.302 . S
C2961 C276 1.324 . S
C2980 C419 1.302 . S
C2997 C395 1.321 . S
C3016 C289 1.336 . S
C3033 C406 1.318 . S
C3052 C304 1.322 . S
