# Generated by pormake.
# Topology qtz-e, (6)-cn, num edge types: 1
# Building blocks:
#     Node 0, Type 0, BuildingBlock: CUWYAW_clean_sbu_0, # of connection points: 6
#     Node 1, Type 0, BuildingBlock: CUWYAW_clean_sbu_0, # of connection points: 6
#     Node 2, Type 0, BuildingBlock: CUWYAW_clean_sbu_0, # of connection points: 6
#     Node 3, Type 0, BuildingBlock: CUWYAW_clean_sbu_0, # of connection points: 6
#     Node 4, Type 0, BuildingBlock: CUWYAW_clean_sbu_0, # of connection points: 6
#     Node 5, Type 0, BuildingBlock: CUWYAW_clean_sbu_0, # of connection points: 6
#     Edge 6, Type (0, 0), BuildingBlock: ZUJKAS_clean_linker_0, # of connection points: 2
#     Edge 7, Type (0, 0), BuildingBlock: ZUJKAS_clean_linker_0, # of connection points: 2
#     Edge 8, Type (0, 0), BuildingBlock: ZUJKAS_clean_linker_0, # of connection points: 2
#     Edge 9, Type (0, 0), BuildingBlock: ZUJKAS_clean_linker_0, # of connection points: 2
#     Edge 10, Type (0, 0), BuildingBlock: ZUJKAS_clean_linker_0, # of connection points: 2
#     Edge 11, Type (0, 0), BuildingBlock: ZUJKAS_clean_linker_0, # of connection points: 2
#     Edge 12, Type (0, 0), BuildingBlock: ZUJKAS_clean_linker_0, # of connection points: 2
#     Edge 13, Type (0, 0), BuildingBlock: ZUJKAS_clean_linker_0, # of connection points: 2
#     Edge 14, Type (0, 0), BuildingBlock: ZUJKAS_clean_linker_0, # of connection points: 2
#     Edge 15, Type (0, 0), BuildingBlock: ZUJKAS_clean_linker_0, # of connection points: 2
#     Edge 16, Type (0, 0), BuildingBlock: ZUJKAS_clean_linker_0, # of connection points: 2
#     Edge 17, Type (0, 0), BuildingBlock: ZUJKAS_clean_linker_0, # of connection points: 2
#     Edge 18, Type (0, 0), BuildingBlock: ZUJKAS_clean_linker_0, # of connection points: 2
#     Edge 19, Type (0, 0), BuildingBlock: ZUJKAS_clean_linker_0, # of connection points: 2
#     Edge 20, Type (0, 0), BuildingBlock: ZUJKAS_clean_linker_0, # of connection points: 2
#     Edge 21, Type (0, 0), BuildingBlock: ZUJKAS_clean_linker_0, # of connection points: 2
#     Edge 22, Type (0, 0), BuildingBlock: ZUJKAS_clean_linker_0, # of connection points: 2
#     Edge 23, Type (0, 0), BuildingBlock: ZUJKAS_clean_linker_0, # of connection points: 2
# Relax obj value: 0.147
# Max RMSD: 0.203
# Mean RMSD: 0.203
data_MOF--net-qtz-e--node1-CUWYAW_clean_sbu_0--edge1-ZUJKAS_clean_linker_0
_symmetry_space_group_name_H-M    P1
_symmetry_Int_Tables_number       1
_symmetry_cell_setting            triclinic
loop_
_symmetry_equiv_pos_as_xyz
'x, y, z'
_cell_length_a     32.393973
_cell_length_b     32.427851
_cell_length_c     63.048564
_cell_angle_alpha  90.186896
_cell_angle_beta   89.741487
_cell_angle_gamma 120.14446
loop_
_atom_site_label
_atom_site_type_symbol
_atom_site_fract_x
_atom_site_fract_y
_atom_site_fract_z
_atom_type_partial_charge
C0 C 0.20499 0.29033 0.01293 0.0
Eu1 Eu 0.19022 0.35762 0.02652 0.0
C2 C 0.21564 0.27867 0.99162 0.0
C3 C 0.18386 0.23473 0.9822 0.0
C4 C 0.19108 0.22483 0.96134 0.0
C5 C 0.23048 0.25861 0.94946 0.0
C6 C 0.26287 0.30219 0.95913 0.0
C7 C 0.25548 0.31216 0.97993 0.0
C8 C 0.11163 0.36245 0.01639 0.0
C9 C 0.23271 0.44242 0.99012 0.0
C10 C 0.17968 0.5159 0.05047 0.0
Eu11 Eu 0.1962 0.4511 0.03505 0.0
C12 C 0.17601 0.52679 0.07287 0.0
C13 C 0.18811 0.50486 0.08892 0.0
C14 C 0.18354 0.51354 0.11027 0.0
C15 C 0.16731 0.5449 0.1161 0.0
C16 C 0.15507 0.56676 0.09991 0.0
C17 C 0.15921 0.5576 0.07848 0.0
C18 C 0.27553 0.44877 0.04581 0.0
C19 C 0.15215 0.36662 0.07105 0.0
O20 O 0.23821 0.32956 0.02184 0.0
O21 O 0.16231 0.28459 0.01541 0.0
O22 O 0.10943 0.32643 0.02632 0.0
O23 O 0.15416 0.39315 0.01275 0.0
O24 O 0.23409 0.40576 0.99868 0.0
O25 O 0.2118 0.46289 1.00018 0.0
O26 O 0.14591 0.47418 0.04396 0.0
O27 O 0.22202 0.52503 0.04422 0.0
O28 O 0.27594 0.48488 0.03689 0.0
O29 O 0.23343 0.41584 0.04912 0.0
O30 O 0.15114 0.4028 0.06204 0.0
O31 O 0.17285 0.34547 0.06143 0.0
H32 H 0.15272 0.20844 0.99082 0.0
H33 H 0.16504 0.19115 0.95437 0.0
H34 H 0.29406 0.32875 0.95065 0.0
H35 H 0.28069 0.34644 0.98669 0.0
H36 H 0.20108 0.48084 0.08493 0.0
H37 H 0.19242 0.49532 0.1222 0.0
H38 H 0.14297 0.59153 0.10378 0.0
H39 H 0.14947 0.57466 0.06632 0.0
C40 C 0.9108 0.25355 0.34779 0.0
Eu41 Eu 0.82359 0.22438 0.36032 0.0
C42 C 0.9327 0.26307 0.32653 0.0
C43 C 0.90435 0.25428 0.30844 0.0
C44 C 0.92483 0.26348 0.2882 0.0
C45 C 0.97408 0.28121 0.28562 0.0
C46 C 0.00233 0.2896 0.30381 0.0
C47 C 0.98179 0.28075 0.3241 0.0
C48 C 0.74877 0.14075 0.34713 0.0
C49 C 0.77415 0.2597 0.32465 0.0
C50 C 0.64059 0.18344 0.38146 0.0
Eu51 Eu 0.72734 0.21301 0.36833 0.0
C52 C 0.62262 0.18035 0.40325 0.0
C53 C 0.65478 0.19613 0.42028 0.0
C54 C 0.63882 0.19543 0.44096 0.0
C55 C 0.59032 0.17912 0.44511 0.0
C56 C 0.55802 0.16259 0.428 0.0
C57 C 0.5741 0.16328 0.40723 0.0
C58 C 0.80039 0.29758 0.3815 0.0
C59 C 0.77653 0.17729 0.40386 0.0
O60 O 0.89602 0.28246 0.35411 0.0
O61 O 0.87972 0.20891 0.3518 0.0
O62 O 0.78551 0.14341 0.35651 0.0
O63 O 0.75362 0.18126 0.34509 0.0
O64 O 0.81402 0.26656 0.33363 0.0
O65 O 0.73232 0.23216 0.33378 0.0
O66 O 0.65662 0.15454 0.37697 0.0
O67 O 0.66915 0.22676 0.37464 0.0
O68 O 0.76221 0.2923 0.37254 0.0
O69 O 0.79806 0.25793 0.38377 0.0
O70 O 0.73691 0.17086 0.39486 0.0
O71 O 0.81847 0.20431 0.39476 0.0
H72 H 0.86625 0.24005 0.30996 0.0
H73 H 0.90192 0.25596 0.27455 0.0
H74 H 0.04041 0.3036 0.30237 0.0
H75 H 0.00421 0.2877 0.33789 0.0
H76 H 0.69245 0.20954 0.41753 0.0
H77 H 0.66457 0.20764 0.45374 0.0
H78 H 0.52051 0.15018 0.43059 0.0
H79 H 0.5488 0.15111 0.39428 0.0
C80 C 0.70953 0.90412 0.67149 0.0
Eu81 Eu 0.63912 0.82771 0.68837 0.0
C82 C 0.7166 0.93293 0.65236 0.0
C83 C 0.76109 0.95466 0.64214 0.0
C84 C 0.76728 0.97743 0.62262 0.0
C85 C 0.72898 0.97879 0.61289 0.0
C86 C 0.68471 0.95815 0.62352 0.0
C87 C 0.67856 0.93534 0.64307 0.0
C88 C 0.6248 0.73851 0.68358 0.0
C89 C 0.54564 0.78701 0.65747 0.0
C90 C 0.46745 0.66787 0.71616 0.0
Eu91 Eu 0.54352 0.74553 0.70431 0.0
C92 C 0.44884 0.64637 0.73727 0.0
C93 C 0.40051 0.62797 0.74229 0.0
C94 C 0.38303 0.60934 0.76252 0.0
C95 C 0.41348 0.6083 0.77818 0.0
C96 C 0.46186 0.6263 0.77289 0.0
C97 C 0.47938 0.64551 0.75281 0.0
C98 C 0.56912 0.83213 0.72118 0.0
C99 C 0.63597 0.785 0.73391 0.0
O100 O 0.68207 0.90538 0.68653 0.0
O101 O 0.70161 0.86105 0.66785 0.0
O102 O 0.66479 0.77371 0.69044 0.0
O103 O 0.59544 0.75206 0.68028 0.0
O104 O 0.59106 0.81917 0.66066 0.0
O105 O 0.5198 0.75408 0.67175 0.0
O106 O 0.50673 0.66912 0.70981 0.0
O107 O 0.46739 0.70748 0.71205 0.0
O108 O 0.54826 0.79253 0.73166 0.0
O109 O 0.57416 0.82404 0.70207 0.0
O110 O 0.59768 0.74611 0.72697 0.0
O111 O 0.6552 0.82535 0.72304 0.0
H112 H 0.79081 0.95299 0.64901 0.0
H113 H 0.802 -0.00643 0.61504 0.0
H114 H 0.65436 0.95815 0.61638 0.0
H115 H 0.6438 0.9185 0.65063 0.0
H116 H 0.37636 0.62864 0.73065 0.0
H117 H 0.34581 0.59671 0.76597 0.0
H118 H 0.48641 0.62546 0.78424 0.0
H119 H 0.51695 0.65971 0.74947 0.0
C120 C 0.78148 0.70083 1.01 0.0
Eu121 Eu 0.78951 0.62907 0.0229 0.0
C122 C 0.76967 0.71366 0.98935 0.0
C123 C 0.80066 0.75834 0.98035 0.0
C124 C 0.79238 0.76937 0.95994 0.0
C125 C 0.75286 0.73587 0.94813 0.0
C126 C 0.72125 0.69154 0.95741 0.0
C127 C 0.72954 0.68056 0.97779 0.0
C128 C 0.86211 0.61421 0.01254 0.0
C129 C 0.7377 0.54226 0.98777 0.0
C130 C 0.78322 0.46017 0.04579 0.0
Eu131 Eu 0.7742 0.53123 0.03264 0.0
C132 C 0.78697 0.4431 0.06708 0.0
C133 C 0.75128 0.39811 0.07415 0.0
C134 C 0.75223 0.38298 0.09481 0.0
C135 C 0.789 0.41253 0.10888 0.0
C136 C 0.82545 0.45707 0.10157 0.0
C137 C 0.8245 0.47211 0.0809 0.0
C138 C 0.7009 0.54378 0.04469 0.0
C139 C 0.82719 0.6183 0.06753 0.0
O140 O 0.74714 0.66379 0.0198 0.0
O141 O 0.82228 0.70174 1.01076 0.0
O142 O 0.86882 0.65339 0.02128 0.0
O143 O 0.81851 0.58629 1.00963 0.0
O144 O 0.74255 0.58256 0.99552 0.0
O145 O 0.75404 0.51819 0.99821 0.0
O146 O 0.81923 0.50082 0.0394 0.0
O147 O 0.74199 0.45611 0.04122 0.0
O148 O 0.69605 0.50467 0.0368 0.0
O149 O 0.74448 0.5741 0.04655 0.0
O150 O 0.82086 0.57737 0.05993 0.0
O151 O 0.81189 0.64333 0.05711 0.0
H152 H 0.83183 0.78441 0.98896 0.0
H153 H 0.81707 0.80405 0.95336 0.0
H154 H 0.69083 0.66468 0.94867 0.0
H155 H 0.70508 0.6457 0.98425 0.0
H156 H 0.72213 0.3749 0.06378 0.0
H157 H 0.72405 0.34811 0.09977 0.0
H158 H 0.85411 0.48095 0.11198 0.0
H159 H 0.85287 0.50681 0.07588 0.0
C160 C 0.08995 0.78707 0.33911 0.0
Eu161 Eu 0.16208 0.78502 0.35612 0.0
C162 C 0.06694 0.77193 0.31819 0.0
C163 C 0.09285 0.77011 0.30065 0.0
C164 C 0.07147 0.7565 0.28072 0.0
C165 C 0.02359 0.74429 0.27787 0.0
C166 C -0.00242 0.7457 0.29556 0.0
C167 C 0.01911 0.75938 0.31555 0.0
C168 C 0.25429 0.84114 0.34426 0.0
C169 C 0.17772 0.70734 0.32922 0.0
C170 C 0.30406 0.74576 0.38417 0.0
Eu171 Eu 0.23362 0.75714 0.37287 0.0
C172 C 0.32757 0.75135 0.40491 0.0
C173 C 0.33474 0.71494 0.41269 0.0
C174 C 0.35375 0.71841 0.43297 0.0
C175 C 0.36619 0.75853 0.44583 0.0
C176 C 0.35958 0.79525 0.43786 0.0
C177 C 0.34033 0.79163 0.41768 0.0
C178 C 0.15142 0.7212 0.39551 0.0
C179 C 0.21885 0.8353 0.39786 0.0
O180 O 0.08496 0.75308 0.35185 0.0
O181 O 0.13358 0.82321 0.33892 0.0
O182 O 0.22731 0.85837 0.34978 0.0
O183 O 0.23156 0.79668 0.34532 0.0
O184 O 0.15639 0.73292 0.33079 0.0
O185 O 0.20895 0.71011 0.34349 0.0
O186 O 0.31003 0.78504 0.37535 0.0
O187 O 0.26002 0.71011 0.38274 0.0
O188 O 0.19279 0.7346 0.40368 0.0
O189 O 0.15486 0.72468 0.37559 0.0
O190 O 0.25115 0.82497 0.39069 0.0
O191 O 0.17648 0.81739 0.3888 0.0
H192 H 0.12989 0.77967 0.3023 0.0
H193 H 0.09284 0.75649 0.26747 0.0
H194 H 0.96047 0.73588 0.29402 0.0
H195 H -0.00155 0.7603 0.32892 0.0
H196 H 0.32497 0.68346 0.40319 0.0
H197 H 0.3588 0.68972 0.43858 0.0
H198 H 0.36814 0.82631 0.44744 0.0
H199 H 0.33471 0.82007 0.41225 0.0
C200 C 0.26812 0.07932 0.67118 0.0
Eu201 Eu 0.33585 0.15504 0.68943 0.0
C202 C 0.26515 0.06048 0.64953 0.0
C203 C 0.28442 0.09184 0.63223 0.0
C204 C 0.28305 0.07444 0.61182 0.0
C205 C 0.26255 0.02522 0.60816 0.0
C206 C 0.24324 -0.00619 0.62552 0.0
C207 C 0.24459 0.01134 0.64602 0.0
C208 C 0.34909 0.24366 0.68369 0.0
C209 C 0.42734 0.19494 0.65693 0.0
C210 C 0.50677 0.31749 0.71457 0.0
Eu211 Eu 0.43169 0.23811 0.70358 0.0
C212 C 0.52767 0.33788 0.73548 0.0
C213 C 0.52468 0.30817 0.75229 0.0
C214 C 0.54167 0.32718 0.77244 0.0
C215 C 0.56179 0.37634 0.77632 0.0
C216 C 0.56501 0.40606 0.75938 0.0
C217 C 0.548 0.38697 0.73919 0.0
C218 C 0.40885 0.15306 0.72122 0.0
C219 C 0.34071 0.1968 0.73498 0.0
O220 O 0.29936 0.07796 0.68383 0.0
O221 O 0.26853 0.11977 0.6724 0.0
O222 O 0.31018 0.20904 0.69175 0.0
O223 O 0.37849 0.23021 0.6801 0.0
O224 O 0.38193 0.16396 0.66079 0.0
O225 O 0.45448 0.22831 0.67079 0.0
O226 O 0.46534 0.31393 0.71071 0.0
O227 O 0.50854 0.27958 0.70856 0.0
O228 O 0.43074 0.19345 0.73105 0.0
O229 O 0.40182 0.15968 0.70223 0.0
O230 O 0.37798 0.23586 0.72739 0.0
O231 O 0.32144 0.1561 0.72437 0.0
H232 H 0.30084 0.13002 0.63447 0.0
H233 H 0.29767 0.09967 0.59886 0.0
H234 H 0.22771 0.95574 0.62333 0.0
H235 H 0.22991 0.98656 0.65914 0.0
H236 H 0.50878 0.2701 0.74994 0.0
H237 H 0.53917 0.30326 0.78497 0.0
H238 H 0.57969 0.44396 0.76182 0.0
H239 H 0.55005 0.41049 0.72656 0.0
H240 H 0.10799 0.68354 0.29965 0.0
H241 H 0.10122 0.64744 0.26493 0.0
H242 H 0.22352 0.63279 0.27869 0.0
H243 H 0.23031 0.66857 0.31371 0.0
H244 H 0.16891 0.68572 0.23412 0.0
H245 H 0.1321 0.50332 0.25295 0.0
H246 H 0.12578 0.54092 0.27234 0.0
H247 H 0.18385 0.54976 0.266 0.0
C248 C 0.13308 0.67199 0.2955 0.0
C249 C 0.16987 0.67918 0.3095 0.0
C250 C 0.12909 0.65128 0.27559 0.0
C251 C 0.16161 0.63703 0.2692 0.0
C252 C 0.1974 0.64259 0.2834 0.0
H253 H 0.22874 0.55573 0.14835 0.0
H254 H 0.22483 0.5752 0.1855 0.0
C255 C 0.20135 0.66323 0.30342 0.0
C256 C 0.16044 0.62051 0.24704 0.0
H257 H 0.15195 0.52853 0.21702 0.0
C258 C 0.16482 0.65118 0.2304 0.0
C259 C 0.15535 0.57553 0.24217 0.0
C260 C 0.14856 0.54025 0.25928 0.0
C261 C 0.16506 0.63856 0.2091 0.0
C262 C 0.16006 0.59367 0.20422 0.0
C263 C 0.15569 0.5629 0.22081 0.0
C264 C 0.16028 0.57865 0.18194 0.0
C265 C 0.17189 0.67393 0.192 0.0
C266 C 0.12467 0.57307 0.16767 0.0
C267 C 0.12658 0.56163 0.1464 0.0
C268 C 0.16412 0.55539 0.13894 0.0
C269 C 0.19904 0.5598 0.15348 0.0
C270 C 0.197 0.57112 0.17475 0.0
H271 H 0.18629 0.71054 0.19846 0.0
H272 H 0.1965 0.67482 0.17946 0.0
H273 H 0.13693 0.6631 0.18453 0.0
H274 H 0.09548 0.57781 0.17298 0.0
H275 H 0.09851 0.55749 0.13582 0.0
H276 H 0.51158 0.26169 0.63816 0.0
H277 H 0.54003 0.25892 0.60231 0.0
H278 H 0.41627 0.12019 0.59248 0.0
H279 H 0.38751 0.12273 0.62795 0.0
H280 H 0.56129 0.19373 0.58326 0.0
H281 H 0.41116 0.19445 0.54165 0.0
H282 H 0.42269 0.20825 0.5695 0.0
H283 H 0.39242 0.14725 0.56064 0.0
C284 C 0.49051 0.23055 0.62838 0.0
C285 C 0.4469 0.19276 0.63586 0.0
C286 C 0.50677 0.22905 0.60789 0.0
C287 C 0.4797 0.18983 0.59452 0.0
C288 C 0.43707 0.15141 0.60225 0.0
H289 H 0.50872 0.1118 0.46525 0.0
H290 H 0.48279 0.11417 0.50159 0.0
C291 C 0.42077 0.15292 0.62262 0.0
C292 C 0.49596 0.18872 0.57253 0.0
H293 H 0.46287 0.17905 0.52052 0.0
C294 C 0.53995 0.19084 0.56953 0.0
C295 C 0.46791 0.18462 0.55461 0.0
C296 C 0.42112 0.18394 0.55669 0.0
C297 C 0.55625 0.18807 0.54915 0.0
C298 C 0.52825 0.1841 0.53123 0.0
C299 C 0.48427 0.182 0.53424 0.0
C300 C 0.54417 0.18266 0.5092 0.0
C301 C 0.60274 0.1882 0.54706 0.0
C302 C 0.58685 0.22071 0.50125 0.0
C303 C 0.60168 0.2195 0.4805 0.0
C304 C 0.57396 0.18035 0.46714 0.0
C305 C 0.53077 0.14262 0.47503 0.0
C306 C 0.51602 0.14382 0.49584 0.0
H307 H 0.61268 0.17778 0.56213 0.0
H308 H 0.60074 0.16353 0.53432 0.0
H309 H 0.63164 0.22469 0.54295 0.0
H310 H 0.60852 0.25167 0.51103 0.0
H311 H 0.63459 0.24966 0.47482 0.0
H312 H 0.21397 0.4967 0.96312 0.0
H313 H 0.24348 0.52114 0.927 0.0
H314 H 0.32612 0.45078 0.93203 0.0
H315 H 0.29496 0.42441 0.96788 0.0
H316 H 0.32747 0.57663 0.91208 0.0
H317 H 0.265 0.39868 0.87652 0.0
H318 H 0.24699 0.40595 0.90272 0.0
H319 H 0.30389 0.40978 0.89859 0.0
C320 C 0.23831 0.48625 0.95653 0.0
C321 C 0.25195 0.45843 0.96839 0.0
C322 C 0.25517 0.50024 0.93581 0.0
C323 C 0.28646 0.48718 0.92648 0.0
C324 C 0.3009 0.46015 0.93849 0.0
H325 H 0.46053 0.63942 0.81632 0.0
H326 H 0.43098 0.60873 0.85171 0.0
C327 C 0.28338 0.44544 0.95911 0.0
C328 C 0.30509 0.50352 0.90454 0.0
H329 H 0.31897 0.46574 0.85568 0.0
C330 C 0.32532 0.55222 0.89975 0.0
C331 C 0.3019 0.4718 0.88824 0.0
C332 C 0.27782 0.41861 0.89169 0.0
C333 C 0.3425 0.57009 0.87934 0.0
C334 C 0.34115 0.53874 0.86329 0.0
C335 C 0.3206 0.48996 0.86799 0.0
C336 C 0.3601 0.55575 0.84147 0.0
C337 C 0.36065 0.62224 0.87512 0.0
C338 C 0.33101 0.53485 0.82364 0.0
C339 C 0.34833 0.55143 0.80317 0.0
C340 C 0.39521 0.58952 0.79999 0.0
C341 C 0.42445 0.60978 0.81793 0.0
C342 C 0.40729 0.59275 0.83834 0.0
H343 H 0.34548 0.63727 0.88657 0.0
H344 H 0.40003 0.64249 0.87692 0.0
H345 H 0.35171 0.62795 0.85882 0.0
H346 H 0.2946 0.50594 0.82557 0.0
H347 H 0.32493 0.53408 0.78984 0.0
H348 H 0.85367 0.313 0.30027 0.0
H349 H 0.85735 0.34172 0.26416 0.0
H350 H 0.7044 0.27982 0.26407 0.0
H351 H 0.70026 0.25094 0.30027 0.0
H352 H 0.81277 0.28623 0.22816 0.0
H353 H 0.75272 0.41662 0.24339 0.0
H354 H 0.77281 0.39298 0.26428 0.0
H355 H 0.71355 0.35803 0.25376 0.0
C356 C 0.82076 0.30576 0.29269 0.0
C357 C 0.77661 0.27965 0.30322 0.0
C358 C 0.82299 0.32222 0.27201 0.0
C359 C 0.78124 0.31342 0.2615 0.0
C360 C 0.73716 0.28779 0.27202 0.0
H361 H 0.71234 0.36661 0.1357 0.0
H362 H 0.71181 0.34225 0.1724 0.0
C363 C 0.73485 0.27112 0.29269 0.0
C364 C 0.78364 0.32924 0.23923 0.0
H365 H 0.7583 0.39854 0.20732 0.0
C366 C 0.80114 0.31101 0.22359 0.0
C367 C 0.76841 0.36153 0.23333 0.0
C368 C 0.7512 0.38384 0.24957 0.0
C369 C 0.80274 0.32326 0.20213 0.0
C370 C 0.78723 0.35535 0.1962 0.0
C371 C 0.77006 0.37386 0.21187 0.0
C372 C 0.78795 0.36973 0.17379 0.0
C373 C 0.81977 0.3007 0.18593 0.0
C374 C 0.83101 0.39363 0.16239 0.0
C375 C 0.83139 0.40722 0.14131 0.0
C376 C 0.78872 0.39746 0.13122 0.0
C377 C 0.74573 0.37391 0.1428 0.0
C378 C 0.7454 0.36031 0.16386 0.0
H379 H 0.81842 0.26806 0.1922 0.0
H380 H 0.79795 0.29122 0.17128 0.0
H381 H 0.85736 0.32645 0.18162 0.0
H382 H 0.86441 0.40209 0.16984 0.0
H383 H 0.86509 0.42506 0.13286 0.0
H384 H 0.58305 0.85428 0.62607 0.0
H385 H 0.55035 0.85085 0.59089 0.0
H386 H 0.42835 0.71383 0.60579 0.0
H387 H 0.46016 0.71757 0.64126 0.0
H388 H 0.53329 0.7879 0.55989 0.0
H389 H 0.36361 0.78071 0.58107 0.0
H390 H 0.41059 0.796 0.6001 0.0
H391 H 0.36995 0.73455 0.59352 0.0
C392 C 0.54893 0.82366 0.62202 0.0
C393 C 0.52417 0.7863 0.6366 0.0
C394 C 0.53031 0.82173 0.60184 0.0
C395 C 0.48653 0.7824 0.59572 0.0
C396 C 0.46156 0.74514 0.61027 0.0
H397 H 0.33414 0.68857 0.47607 0.0
H398 H 0.36414 0.6946 0.51224 0.0
C399 C 0.47998 0.74723 0.63056 0.0
C400 C 0.46851 0.77929 0.57375 0.0
H401 H 0.3722 0.76334 0.54506 0.0
C402 C 0.49819 0.78287 0.55668 0.0
C403 C 0.42267 0.7727 0.5695 0.0
C404 C 0.39004 0.77124 0.58701 0.0
C405 C 0.48305 0.77927 0.53556 0.0
C406 C 0.43709 0.77213 0.53137 0.0
C407 C 0.40735 0.76857 0.54836 0.0
C408 C 0.41938 0.76855 0.50939 0.0
C409 C 0.51598 0.78228 0.51788 0.0
C410 C 0.44037 0.80823 0.49585 0.0
C411 C 0.42334 0.80492 0.4752 0.0
C412 C 0.38502 0.76178 0.46765 0.0
C413 C 0.36412 0.72209 0.48128 0.0
C414 C 0.38097 0.72555 0.50199 0.0
H415 H 0.54591 0.77805 0.52378 0.0
H416 H 0.49607 0.75452 0.50569 0.0
H417 H 0.53134 0.81763 0.51009 0.0
H418 H 0.46975 0.84189 0.50133 0.0
H419 H 0.44039 0.83606 0.46508 0.0
H420 H 0.71875 0.45988 0.96739 0.0
H421 H 0.68833 0.43472 0.93145 0.0
H422 H 0.68006 0.56232 0.92325 0.0
H423 H 0.70989 0.58749 0.9593 0.0
H424 H 0.60004 0.48169 0.90813 0.0
H425 H 0.76475 0.4907 0.87712 0.0
H426 H 0.74088 0.45358 0.90015 0.0
H427 H 0.76283 0.51657 0.90223 0.0
C428 C 0.71041 0.48264 0.95799 0.0
C429 C 0.71704 0.52591 0.96628 0.0
C430 C 0.69328 0.4683 0.93737 0.0
C431 C 0.68277 0.49704 0.92447 0.0
C432 C 0.6882 0.53967 0.93284 0.0
H433 H 0.64224 0.46033 0.78723 0.0
H434 H 0.67037 0.49205 0.82285 0.0
C435 C 0.70524 0.55401 0.95351 0.0
C436 C 0.66597 0.48249 0.9023 0.0
H437 H 0.69623 0.45305 0.85494 0.0
C438 C 0.62115 0.47565 0.89647 0.0
C439 C 0.69385 0.47538 0.88695 0.0
C440 C 0.74345 0.48488 0.89181 0.0
C441 C 0.60294 0.46064 0.87591 0.0
C442 C 0.62994 0.45147 0.86085 0.0
C443 C 0.67529 0.45957 0.86652 0.0
C444 C 0.61169 0.433 0.83919 0.0
C445 C 0.55519 0.45529 0.87044 0.0
C446 C 0.56947 0.38911 0.83648 0.0
C447 C 0.55312 0.37104 0.81613 0.0
C448 C 0.57883 0.39624 0.79799 0.0
C449 C 0.62117 0.44023 0.80078 0.0
C450 C 0.63749 0.45829 0.82116 0.0
H451 H 0.54591 0.47654 0.88127 0.0
H452 H 0.55482 0.46656 0.85387 0.0
H453 H 0.52709 0.41728 0.87205 0.0
H454 H 0.54939 0.36845 0.85012 0.0
H455 H 0.52013 0.33733 0.81464 0.0
H456 H 0.36744 0.51565 0.03932 0.0
H457 H 0.43697 0.52693 0.05893 0.0
H458 H 0.34663 0.40595 0.09848 0.0
H459 H 0.2765 0.39365 0.07836 0.0
H460 H 0.45943 0.54217 0.10315 0.0
H461 H 0.44223 0.37196 0.07308 0.0
H462 H 0.40746 0.39533 0.06145 0.0
H463 H 0.394 0.37099 0.08776 0.0
C464 C 0.36241 0.49139 0.05215 0.0
C465 C 0.31696 0.45358 0.05723 0.0
C466 C 0.40198 0.49815 0.0635 0.0
C467 C 0.39678 0.46741 0.0802 0.0
C468 C 0.35127 0.42985 0.08557 0.0
H469 H 0.66798 0.4869 0.07897 0.0
H470 H 0.59909 0.47136 0.10091 0.0
C471 C 0.31147 0.42274 0.07401 0.0
C472 C 0.44044 0.4733 0.09016 0.0
H473 H 0.51812 0.43362 0.08149 0.0
C474 C 0.47207 0.51779 0.09922 0.0
C475 C 0.45635 0.44089 0.08559 0.0
C476 C 0.42347 0.39207 0.07643 0.0
C477 C 0.52087 0.53348 0.10074 0.0
C478 C 0.53785 0.50396 0.09284 0.0
C479 C 0.5051 0.45665 0.08716 0.0
C480 C 0.58737 0.52379 0.08516 0.0
C481 C 0.55412 0.58289 0.10908 0.0
C482 C 0.60477 0.55981 0.06961 0.0
C483 C 0.64415 0.5688 0.05717 0.0
C484 C 0.66583 0.54131 0.05996 0.0
C485 C 0.65098 0.508 0.07651 0.0
C486 C 0.6121 0.49946 0.08914 0.0
H487 H 0.53716 0.5914 0.12245 0.0
H488 H 0.58844 0.58675 0.11455 0.0
H489 H 0.56157 0.60932 0.09635 0.0
H490 H 0.58555 0.57814 0.06581 0.0
H491 H 0.65541 0.59465 0.04444 0.0
H492 H 0.1414 0.69901 0.43745 0.0
H493 H 0.07289 0.63042 0.45398 0.0
H494 H -0.00658 0.60378 0.39593 0.0
H495 H 0.06166 0.67195 0.37929 0.0
H496 H 0.93772 0.5774 0.43836 0.0
H497 H 0.06164 0.50691 0.42496 0.0
H498 H 0.08005 0.55973 0.44069 0.0
H499 H 0.07341 0.5618 0.41254 0.0
C500 C 0.10871 0.6794 0.42846 0.0
C501 C 0.107 0.68964 0.40693 0.0
C502 C 0.06965 0.64053 0.43798 0.0
C503 C 0.02865 0.61193 0.42603 0.0
C504 C 0.02494 0.62566 0.40536 0.0
H505 H 0.81404 0.38573 0.37568 0.0
H506 H 0.8646 0.4572 0.39614 0.0
C507 C 0.06398 0.66436 0.39582 0.0
C508 C -0.00533 0.56276 0.43255 0.0
H509 H 0.98004 0.45259 0.42408 0.0
C510 C 0.94696 0.54984 0.43607 0.0
C511 C 0.00713 0.52699 0.43009 0.0
C512 C 0.05827 0.53917 0.42687 0.0
C513 C 0.91067 0.50203 0.43468 0.0
C514 C 0.92268 0.4672 0.42875 0.0
C515 C 0.97077 0.47944 0.42822 0.0
C516 C 0.88775 0.42207 0.4184 0.0
C517 C 0.8597 0.48985 0.43817 0.0
C518 C 0.88559 0.37883 0.42341 0.0
C519 C 0.85782 0.33812 0.41117 0.0
C520 C 0.83173 0.34023 0.3939 0.0
C521 C 0.83368 0.38326 0.38902 0.0
C522 C 0.86182 0.4239 0.401 0.0
H523 H 0.85758 0.51146 0.45138 0.0
H524 H 0.84644 0.49882 0.4237 0.0
H525 H 0.83604 0.45146 0.44184 0.0
H526 H 0.90605 0.37684 0.43651 0.0
H527 H 0.8565 0.30506 0.41529 0.0
H528 H 0.43468 0.13929 0.76024 0.0
H529 H 0.46036 0.08233 0.76938 0.0
H530 H 0.41855 0.01862 0.7073 0.0
H531 H 0.39251 0.07524 0.69807 0.0
H532 H 0.40158 0.95317 0.74273 0.0
H533 H 0.58628 0.10945 0.73812 0.0
H534 H 0.54511 0.11352 0.75606 0.0
H535 H 0.5353 0.11144 0.72799 0.0
C536 C 0.42982 0.1123 0.74875 0.0
C537 C 0.41266 0.1121 0.7283 0.0
C538 C 0.44456 0.07998 0.75399 0.0
C539 C 0.4422 0.04725 0.73883 0.0
C540 C 0.42082 0.044 0.71912 0.0
H541 H 0.58481 0.90881 0.69752 0.0
H542 H 0.55972 0.9663 0.70676 0.0
C543 C 0.40601 0.07628 0.71387 0.0
C544 C 0.46715 0.02049 0.74226 0.0
H545 H 0.57862 0.03397 0.74167 0.0
C546 C 0.44024 0.97066 0.74294 0.0
C547 C 0.51762 0.04388 0.74226 0.0
C548 C 0.54802 0.0975 0.74095 0.0
C549 C 0.4626 0.94327 0.74283 0.0
C550 C 0.51305 0.96665 0.74222 0.0
C551 C 0.53998 0.0165 0.74234 0.0
C552 C 0.53781 0.93966 0.73869 0.0
C553 C 0.43215 0.88959 0.74212 0.0
C554 C 0.53619 0.90782 0.75405 0.0
C555 C 0.55039 0.87499 0.74881 0.0
C556 C 0.56624 0.87378 0.72816 0.0
C557 C 0.57228 0.90882 0.71348 0.0
C558 C 0.55803 0.9416 0.71873 0.0
H559 H 0.39375 0.87749 0.73976 0.0
H560 H 0.4442 0.87489 0.72912 0.0
H561 H 0.43583 0.87447 0.75729 0.0
H562 H 0.5213 0.90648 0.76963 0.0
H563 H 0.54604 0.84864 0.76049 0.0
H564 H 0.55847 0.66883 0.65981 0.0
H565 H 0.51685 0.58365 0.66732 0.0
H566 H 0.61086 0.60816 0.72006 0.0
H567 H 0.65319 0.6946 0.71253 0.0
H568 H 0.58141 0.52257 0.68561 0.0
H569 H 0.43724 0.53416 0.72792 0.0
H570 H 0.45771 0.56904 0.70403 0.0
H571 H 0.49788 0.58337 0.72603 0.0
C572 C 0.57108 0.65595 0.67267 0.0
C573 C 0.60892 0.68782 0.68557 0.0
C574 C 0.5471 0.60752 0.67703 0.0
C575 C 0.56046 0.5902 0.69441 0.0
C576 C 0.60013 0.62138 0.70666 0.0
H577 H 0.3432 0.29191 0.7181 0.0
H578 H 0.39817 0.37701 0.72463 0.0
C579 C 0.62448 0.67034 0.70222 0.0
C580 C 0.531 0.53938 0.69955 0.0
H581 H 0.41549 0.45868 0.71173 0.0
C582 C 0.54555 0.50823 0.69191 0.0
C583 C 0.48461 0.52119 0.70796 0.0
C584 C 0.46839 0.55365 0.71715 0.0
C585 C 0.51337 0.45915 0.6908 0.0
C586 C 0.46516 0.4413 0.6971 0.0
C587 C 0.45204 0.47227 0.70654 0.0
C588 C 0.4274 0.3916 0.69274 0.0
C589 C 0.53145 0.42772 0.68207 0.0
C590 C 0.42282 0.37259 0.67229 0.0
C591 C 0.39276 0.32408 0.6688 0.0
C592 C 0.36512 0.29439 0.68543 0.0
C593 C 0.36456 0.31434 0.70511 0.0
C594 C 0.39617 0.36278 0.70886 0.0
H595 H 0.5692 0.44147 0.68671 0.0
H596 H 0.50988 0.39049 0.68763 0.0
H597 H 0.53031 0.42802 0.66449 0.0
H598 H 0.4446 0.39469 0.65931 0.0
H599 H 0.39345 0.3092 0.65347 0.0
H600 H 0.09442 0.40809 0.98554 0.0
H601 H 0.05129 0.45151 0.98921 0.0
H602 H 0.00794 0.39556 0.05253 0.0
H603 H 0.04959 0.35015 0.04845 0.0
H604 H 0.93857 0.40174 0.03217 0.0
H605 H 0.10784 0.5722 0.02377 0.0
H606 H 0.09721 0.53609 1.00058 0.0
H607 H 0.10595 0.51593 0.02581 0.0
C608 C 0.07421 0.4038 0.99993 0.0
C609 C 0.07485 0.37584 0.01667 0.0
C610 C 0.05044 0.42925 1.00218 0.0
C611 C 0.0282 0.4282 0.02145 0.0
C612 C 0.02561 0.39732 0.03765 0.0
H613 H 0.93549 0.63936 0.04046 0.0
H614 H 0.97809 0.59537 0.04637 0.0
C615 C 0.04876 0.37098 0.03523 0.0
C616 C 0.00852 0.46014 0.02454 0.0
H617 H 0.03565 0.57553 0.0179 0.0
C618 C 0.95993 0.43982 0.02938 0.0
C619 C 0.03678 0.51011 0.02148 0.0
C620 C 0.08996 0.53487 0.01785 0.0
C621 C 0.93811 0.46769 0.02968 0.0
C622 C 0.96553 0.51674 0.02468 0.0
C623 C 0.0147 0.53772 0.02139 0.0
C624 C 0.94291 0.54554 0.02066 0.0
C625 C 0.88584 0.44452 0.03513 0.0
C626 C 0.91125 0.53337 1.00364 0.0
C627 C 0.88749 0.55841 1.00017 0.0
C628 C 0.89544 0.59632 0.01354 0.0
C629 C 0.9294 0.61059 0.0298 0.0
C630 C 0.95314 0.58521 0.03334 0.0
H631 H 0.87273 0.40996 0.04343 0.0
H632 H 0.87952 0.46856 0.04541 0.0
H633 H 0.86477 0.43779 0.02039 0.0
H634 H 0.90401 0.50366 0.99335 0.0
H635 H 0.86133 0.54685 0.98757 0.0
H636 H 0.30895 0.80729 0.32868 0.0
H637 H 0.39585 0.84712 0.32806 0.0
H638 H 0.40387 0.97528 0.3527 0.0
H639 H 0.31623 0.93484 0.3539 0.0
H640 H 0.46203 0.92586 0.30751 0.0
H641 H 0.48472 0.95023 0.39455 0.0
H642 H 0.42758 0.91181 0.38236 0.0
H643 H 0.45099 0.97518 0.38361 0.0
C644 C 0.32927 0.84408 0.33387 0.0
C645 C 0.30622 0.86805 0.34155 0.0
C646 C 0.37881 0.86668 0.33352 0.0
C647 C 0.40607 0.91364 0.34078 0.0
C648 C 0.3832 0.93852 0.34754 0.0
H649 H 0.6816 0.13263 0.32001 0.0
H650 H 0.6002 0.06672 0.3171 0.0
C651 C 0.33337 0.91574 0.34798 0.0
C652 C 0.4585 0.93649 0.34109 0.0
H653 H 0.5551 -0.00502 0.37335 0.0
C654 C 0.48242 0.94045 0.32194 0.0
C655 C 0.48479 0.95397 0.36006 0.0
C656 C 0.4607 0.94715 0.38135 0.0
C657 C 0.53232 0.96434 0.32103 0.0
C658 C 0.55867 0.98553 0.33966 0.0
C659 C 0.53473 0.97885 0.35906 0.0
C660 C 0.61004 0.02088 0.33887 0.0
C661 C 0.55632 0.96774 0.30003 0.0
C662 C 0.64272 0.01685 0.35205 0.0
C663 C 0.6896 0.05486 0.3538 0.0
C664 C 0.70361 0.09725 0.34264 0.0
C665 C 0.6715 0.10018 0.32875 0.0
C666 C 0.6251 0.06239 0.32692 0.0
H667 H 0.53376 0.93626 0.2899 0.0
H668 H 0.56165 -0.0001 0.29145 0.0
H669 H 0.59164 0.97052 0.30219 0.0
H670 H 0.6314 0.98517 0.36157 0.0
H671 H 0.71382 0.05218 0.36474 0.0
H672 H 0.27922 0.12275 0.76058 0.0
H673 H 0.25295 0.12809 0.79657 0.0
H674 H 0.33312 0.28152 0.79291 0.0
H675 H 0.35985 0.27673 0.75721 0.0
H676 H 0.32271 0.18344 0.83183 0.0
H677 H 0.19344 0.24365 0.81371 0.0
H678 H 0.20887 0.21156 0.79476 0.0
H679 H 0.24965 0.27353 0.79983 0.0
C680 C 0.29076 0.15761 0.76734 0.0
C681 C 0.32158 0.1993 0.75601 0.0
C682 C 0.27582 0.16057 0.78789 0.0
C683 C 0.29081 0.20519 0.79726 0.0
C684 C 0.32074 0.24677 0.78584 0.0
H685 H 0.26295 0.32108 0.91597 0.0
H686 H 0.27654 0.30557 0.87944 0.0
C687 C 0.33609 0.2439 0.76545 0.0
C688 C 0.27775 0.20877 0.81943 0.0
H689 H 0.21584 0.24702 0.84968 0.0
C690 C 0.29893 0.19681 0.83581 0.0
C691 C 0.24719 0.22675 0.82444 0.0
C692 C 0.2231 0.23938 0.80731 0.0
C693 C 0.29154 0.20377 0.85718 0.0
C694 C 0.26099 0.22189 0.86227 0.0
C695 C 0.2392 0.2331 0.8458 0.0
C696 C 0.25225 0.2308 0.88452 0.0
C697 C 0.31815 0.1935 0.87401 0.0
C698 C 0.23349 0.19384 0.89952 0.0
C699 C 0.22653 0.20281 0.92057 0.0
C700 C 0.2375 0.24882 0.927 0.0
C701 C 0.25514 0.28548 0.91176 0.0
C702 C 0.26247 0.27656 0.89078 0.0
H703 H 0.34971 0.193 0.86734 0.0
H704 H 0.33038 0.22042 0.88692 0.0
H705 H 0.29407 0.15789 0.88099 0.0
H706 H 0.22424 0.15799 0.89497 0.0
H707 H 0.21314 0.17374 0.93183 0.0
H708 H 0.9565 0.32376 0.25216 0.0
H709 H -0.01015 0.33667 0.21626 0.0
H710 H 0.07414 0.27357 0.23423 0.0
H711 H 0.0404 0.25981 0.27012 0.0
H712 H 0.08986 0.38935 0.20366 0.0
H713 H -0.00047 0.19792 0.1805 0.0
H714 H 0.9799 0.219 0.20275 0.0
H715 H 0.03213 0.21348 0.20502 0.0
C716 C 0.9819 0.31233 0.24845 0.0
C717 C -0.0044 0.29051 0.26399 0.0
C718 C 0.00112 0.31999 0.22796 0.0
C719 C 0.03404 0.3056 0.22253 0.0
C720 C 0.04833 0.28442 0.23803 0.0
H721 H 0.1663 0.31141 0.09991 0.0
H722 H 0.14026 0.29717 0.13715 0.0
C723 C 0.02934 0.27698 0.25858 0.0
C724 C 0.05339 0.31295 0.20061 0.0
H725 H 0.0523 0.25363 0.15554 0.0
C726 C 0.08176 0.35973 0.19313 0.0
C727 C 0.04301 0.27421 0.18697 0.0
C728 C 0.01171 0.22325 0.19406 0.0
C729 C 0.10008 0.36888 0.17235 0.0
C730 C 0.08868 0.33009 0.1585 0.0
C731 C 0.061 0.2833 0.16613 0.0
C732 C 0.10345 0.33735 0.13582 0.0
C733 C 0.13196 0.42007 0.16558 0.0
C734 C 0.09014 0.36328 0.12253 0.0
C735 C 0.10497 0.3715 0.10139 0.0
C736 C 0.13295 0.35338 0.0929 0.0
C737 C 0.1447 0.32573 0.10595 0.0
C738 C 0.13002 0.31777 0.12725 0.0
H739 H 0.14936 0.44375 0.17942 0.0
H740 H 0.16013 0.42359 0.1544 0.0
H741 H 0.11015 0.43293 0.15751 0.0
H742 H 0.06839 0.37746 0.12854 0.0
H743 H 0.09483 0.39256 0.09175 0.0
H744 H 0.69527 0.03613 0.5984 0.0
H745 H 0.70387 0.06942 0.56271 0.0
H746 H 0.78505 0.00351 0.54327 0.0
H747 H 0.77581 0.96933 0.57867 0.0
H748 H 0.78983 0.13078 0.53979 0.0
H749 H 0.67783 0.95818 0.49852 0.0
H750 H 0.67643 0.9646 0.52693 0.0
H751 H 0.72448 0.96055 0.51472 0.0
C752 C 0.71464 0.02843 0.58648 0.0
C753 C 0.73481 2e-05 0.5914 0.0
C754 C 0.71975 0.0477 0.56614 0.0
C755 C 0.74466 0.0385 0.55029 0.0
C756 C 0.76518 0.01055 0.55519 0.0
H757 H 0.84945 0.18572 0.42905 0.0
H758 H 0.84289 0.15248 0.46461 0.0
C759 C 0.76026 0.99145 0.57551 0.0
C760 C 0.74948 0.05835 0.52866 0.0
H761 H 0.72056 0.02646 0.4768 0.0
C762 C 0.77468 0.10804 0.526 0.0
C763 C 0.72927 0.02856 0.51075 0.0
C764 C 0.7001 0.97501 0.51279 0.0
C765 C 0.78071 0.12875 0.50584 0.0
C766 C 0.76146 0.09892 0.48786 0.0
C767 C 0.73576 0.04924 0.49057 0.0
C768 C 0.76589 0.11855 0.4662 0.0
C769 C 0.80679 0.18238 0.50398 0.0
C770 C 0.72476 0.10955 0.45511 0.0
C771 C 0.72834 0.12821 0.43481 0.0
C772 C 0.77321 0.15612 0.42507 0.0
C773 C 0.81439 0.16448 0.43608 0.0
C774 C 0.81073 0.14578 0.45646 0.0
H775 H 0.80998 0.19985 0.51955 0.0
H776 H 0.84332 0.19501 0.49778 0.0
H777 H 0.78826 0.19394 0.49275 0.0
H778 H 0.6898 0.08852 0.46229 0.0
H779 H 0.69581 0.12099 0.42684 0.0
H780 H 0.60929 0.70686 0.75884 0.0
H781 H 0.63619 0.70456 0.79464 0.0
H782 H 0.73421 0.85616 0.79236 0.0
H783 H 0.70694 0.85907 0.75649 0.0
H784 H 0.72738 0.73181 0.81048 0.0
H785 H 0.65323 0.83838 0.84588 0.0
H786 H 0.63719 0.81262 0.81969 0.0
H787 H 0.69365 0.86577 0.82399 0.0
C788 C 0.6367 0.7398 0.76585 0.0
C789 C 0.65566 0.78328 0.75484 0.0
C790 C 0.65211 0.73834 0.78633 0.0
C791 C 0.68663 0.78027 0.79627 0.0
C792 C 0.7069 0.82352 0.7851 0.0
H793 H 0.81995 0.77987 0.91687 0.0
H794 H 0.80686 0.79397 0.88003 0.0
C795 C 0.6915 0.82504 0.76455 0.0
C796 C 0.70033 0.77843 0.8185 0.0
H797 H 0.69438 0.81424 0.86888 0.0
C798 C 0.72051 0.75007 0.82325 0.0
C799 C 0.69066 0.8018 0.83513 0.0
C800 C 0.66713 0.83107 0.83105 0.0
C801 C 0.73106 0.74422 0.84422 0.0
C802 C 0.72174 0.7679 0.86083 0.0
C803 C 0.70181 0.79647 0.85607 0.0
C804 C 0.73028 0.76159 0.88335 0.0
C805 C 0.75063 0.71152 0.84851 0.0
C806 C 0.69175 0.74002 0.89757 0.0
C807 C 0.69913 0.73231 0.91866 0.0
C808 C 0.7453 0.74631 0.92599 0.0
C809 C 0.784 0.76899 0.9118 0.0
C810 C 0.77655 0.77662 0.89068 0.0
H811 H 0.74596 0.68817 0.83471 0.0
H812 H 0.78938 0.73328 0.85191 0.0
H813 H 0.73289 0.6887 0.86254 0.0
H814 H 0.65579 0.72843 0.89225 0.0
H815 H 0.66866 0.71538 0.92924 0.0
H816 H 0.96205 0.76866 0.25954 0.0
H817 H 0.92746 0.74839 0.22391 0.0
H818 H 0.00118 0.67108 0.21175 0.0
H819 H 0.03496 0.6899 0.2475 0.0
H820 H 0.00374 0.75733 0.18006 0.0
H821 H 0.83294 0.59363 0.20148 0.0
H822 H 0.85874 0.64459 0.21903 0.0
H823 H 0.88741 0.61002 0.21566 0.0
C824 C 0.97043 0.74678 0.24943 0.0
C825 C 0.00137 0.73097 0.25644 0.0
C826 C 0.95092 0.73558 0.22904 0.0
C827 C 0.96198 0.70843 0.21529 0.0
C828 C -0.00753 0.69228 0.22217 0.0
H829 H 0.85431 0.57126 0.09493 0.0
H830 H 0.88771 0.59559 0.13036 0.0
C831 C 0.01189 0.7033 0.24257 0.0
C832 C 0.94195 0.69707 0.19363 0.0
H833 H 0.84546 0.61547 0.16544 0.0
C834 C 0.96905 0.72652 0.17679 0.0
C835 C 0.89691 0.6567 0.18957 0.0
C836 C 0.86699 0.62412 0.20729 0.0
C837 C 0.95226 0.71634 0.15582 0.0
C838 C 0.90705 0.67592 0.15172 0.0
C839 C 0.87999 0.64656 0.16864 0.0
C840 C 0.88788 0.66236 0.1299 0.0
C841 C 0.98351 0.74808 0.13815 0.0
C842 C 0.87675 0.69179 0.11783 0.0
C843 C 0.85755 0.67792 0.09744 0.0
C844 C 0.8491 0.6343 0.08879 0.0
C845 C 0.86053 0.60513 0.10096 0.0
C846 C 0.87952 0.61892 0.1213 0.0
H847 H 0.02098 0.77149 0.14338 0.0
H848 H 0.98333 0.72646 0.12442 0.0
H849 H 0.96943 0.77115 0.13271 0.0
H850 H 0.88227 0.72517 0.1243 0.0
H851 H 0.84899 0.70117 0.08857 0.0
H852 H 0.33184 0.06376 0.57736 0.0
H853 H 0.32784 0.0359 0.54093 0.0
H854 H 0.1868 0.91727 0.55297 0.0
H855 H 0.18997 0.94539 0.58931 0.0
H856 H 0.25149 0.89357 0.532 0.0
H857 H 0.24361 0.04299 0.49294 0.0
H858 H 0.29148 0.05985 0.5115 0.0
H859 H 0.23083 0.02957 0.52079 0.0
C860 C 0.29973 0.03201 0.57223 0.0
C861 C 0.26106 0.00703 0.58628 0.0
C862 C 0.29757 0.01611 0.5514 0.0
C863 C 0.25678 0.9749 0.54419 0.0
C864 C 0.21857 0.94926 0.55823 0.0
H865 H 0.16055 0.86098 0.41852 0.0
H866 H 0.17256 0.89757 0.45363 0.0
C867 C 0.22058 0.96523 0.57905 0.0
C868 C 0.25397 0.95819 0.52204 0.0
H869 H 0.24887 0.98722 0.47044 0.0
C870 C 0.25103 0.91405 0.51852 0.0
C871 C 0.253 0.98488 0.50454 0.0
C872 C 0.25452 0.03181 0.50751 0.0
C873 C 0.24737 0.89594 0.49792 0.0
C874 C 0.24697 0.92289 0.4804 0.0
C875 C 0.24961 0.9669 0.48391 0.0
C876 C 0.24202 0.9049 0.45837 0.0
C877 C 0.24293 0.84765 0.49507 0.0
C878 C 0.27778 0.89832 0.44915 0.0
C879 C 0.27116 0.8776 0.42905 0.0
C880 C 0.22856 0.86302 0.4178 0.0
C881 C 0.19372 0.87164 0.42673 0.0
C882 C 0.20048 0.89253 0.44681 0.0
H883 H 0.23416 0.82746 0.5102 0.0
H884 H 0.21493 0.82609 0.48324 0.0
H885 H 0.27733 0.85238 0.48911 0.0
H886 H 0.31043 0.90831 0.4577 0.0
H887 H 0.29888 0.87177 0.42265 0.0
loop_
_geom_bond_atom_site_label_1
_geom_bond_atom_site_label_2
_geom_bond_distance
_geom_bond_site_symmetry_2
_ccdc_geom_bond_type
C0 Eu1 2.835 1_556 S
C0 C2 1.500 . S
C0 O20 1.257 . S
C0 O21 1.260 . S
Eu1 C0 2.835 1_554 S
Eu1 O20 2.473 1_554 S
Eu1 O21 2.480 1_554 S
Eu1 O22 2.430 . S
Eu1 O23 2.670 . S
Eu1 O24 2.394 1_554 S
Eu1 O29 2.355 . S
Eu1 O31 2.374 . S
C2 C0 1.500 . S
C2 C3 1.377 . S
C2 C7 1.377 . S
C3 C2 1.377 . S
C3 C4 1.395 . S
C3 H32 0.931 . S
C4 C3 1.395 . S
C4 C5 1.383 . S
C4 H33 0.931 . S
C5 C4 1.383 . S
C5 C6 1.394 . S
C6 C5 1.394 . S
C6 C7 1.378 . S
C6 H34 0.931 . S
C7 C2 1.377 . S
C7 C6 1.378 . S
C7 H35 0.931 . S
C8 O22 1.259 . S
C8 O23 1.270 . S
C9 O24 1.251 . S
C9 O25 1.251 1_556 S
C10 Eu11 2.835 . S
C10 C12 1.500 . S
C10 O26 1.257 . S
C10 O27 1.260 . S
Eu11 C10 2.835 . S
Eu11 O23 2.355 . S
Eu11 O25 2.374 . S
Eu11 O26 2.473 . S
Eu11 O27 2.480 . S
Eu11 O28 2.430 . S
Eu11 O29 2.670 . S
Eu11 O30 2.394 . S
C12 C10 1.500 . S
C12 C13 1.377 . S
C12 C17 1.377 . S
C13 C12 1.377 . S
C13 C14 1.395 . S
C13 H36 0.931 . S
C14 C13 1.395 . S
C14 C15 1.383 . S
C14 H37 0.931 . S
C15 C14 1.383 . S
C15 C16 1.394 . S
C16 C15 1.394 . S
C16 C17 1.378 . S
C16 H38 0.931 . S
C17 C12 1.377 . S
C17 C16 1.378 . S
C17 H39 0.931 . S
C18 O28 1.259 . S
C18 O29 1.270 . S
C19 O30 1.251 . S
C19 O31 1.251 . S
O20 C0 1.257 . S
O20 Eu1 2.473 1_556 S
O21 C0 1.260 . S
O21 Eu1 2.480 1_556 S
O22 Eu1 2.430 . S
O22 C8 1.259 . S
O23 Eu1 2.670 . S
O23 C8 1.270 . S
O23 Eu11 2.355 . S
O24 Eu1 2.394 1_556 S
O24 C9 1.251 . S
O25 C9 1.251 1_554 S
O25 Eu11 2.374 . S
O26 C10 1.257 . S
O26 Eu11 2.473 . S
O27 C10 1.260 . S
O27 Eu11 2.480 . S
O28 Eu11 2.430 . S
O28 C18 1.259 . S
O29 Eu1 2.355 . S
O29 Eu11 2.670 . S
O29 C18 1.270 . S
O30 Eu11 2.394 . S
O30 C19 1.251 . S
O31 Eu1 2.374 . S
O31 C19 1.251 . S
H32 C3 0.931 . S
H33 C4 0.931 . S
H34 C6 0.931 . S
H35 C7 0.931 . S
H36 C13 0.931 . S
H37 C14 0.931 . S
H38 C16 0.931 . S
H39 C17 0.931 . S
C40 Eu41 2.835 . S
C40 C42 1.500 . S
C40 O60 1.257 . S
C40 O61 1.260 . S
Eu41 C40 2.835 . S
Eu41 O60 2.473 . S
Eu41 O61 2.480 . S
Eu41 O62 2.430 . S
Eu41 O63 2.670 . S
Eu41 O64 2.394 . S
Eu41 O69 2.355 . S
Eu41 O71 2.374 . S
C42 C40 1.500 . S
C42 C43 1.377 . S
C42 C47 1.377 . S
C43 C42 1.377 . S
C43 C44 1.395 . S
C43 H72 0.931 . S
C44 C43 1.395 . S
C44 C45 1.383 . S
C44 H73 0.931 . S
C45 C44 1.383 . S
C45 C46 1.394 . S
C46 C45 1.394 . S
C46 C47 1.378 . S
C46 H74 0.931 . S
C47 C42 1.377 . S
C47 C46 1.378 . S
C47 H75 0.931 . S
C48 O62 1.259 . S
C48 O63 1.270 . S
C49 O64 1.251 . S
C49 O65 1.251 . S
C50 Eu51 2.835 . S
C50 C52 1.500 . S
C50 O66 1.257 . S
C50 O67 1.260 . S
Eu51 C50 2.835 . S
Eu51 O63 2.355 . S
Eu51 O65 2.374 . S
Eu51 O66 2.473 . S
Eu51 O67 2.480 . S
Eu51 O68 2.430 . S
Eu51 O69 2.670 . S
Eu51 O70 2.394 . S
C52 C50 1.500 . S
C52 C53 1.377 . S
C52 C57 1.377 . S
C53 C52 1.377 . S
C53 C54 1.395 . S
C53 H76 0.931 . S
C54 C53 1.395 . S
C54 C55 1.383 . S
C54 H77 0.931 . S
C55 C54 1.383 . S
C55 C56 1.394 . S
C56 C55 1.394 . S
C56 C57 1.378 . S
C56 H78 0.931 . S
C57 C52 1.377 . S
C57 C56 1.378 . S
C57 H79 0.931 . S
C58 O68 1.259 . S
C58 O69 1.270 . S
C59 O70 1.251 . S
C59 O71 1.251 . S
O60 C40 1.257 . S
O60 Eu41 2.473 . S
O61 C40 1.260 . S
O61 Eu41 2.480 . S
O62 Eu41 2.430 . S
O62 C48 1.259 . S
O63 Eu41 2.670 . S
O63 C48 1.270 . S
O63 Eu51 2.355 . S
O64 Eu41 2.394 . S
O64 C49 1.251 . S
O65 C49 1.251 . S
O65 Eu51 2.374 . S
O66 C50 1.257 . S
O66 Eu51 2.473 . S
O67 C50 1.260 . S
O67 Eu51 2.480 . S
O68 Eu51 2.430 . S
O68 C58 1.259 . S
O69 Eu41 2.355 . S
O69 Eu51 2.670 . S
O69 C58 1.270 . S
O70 Eu51 2.394 . S
O70 C59 1.251 . S
O71 Eu41 2.374 . S
O71 C59 1.251 . S
H72 C43 0.931 . S
H73 C44 0.931 . S
H74 C46 0.931 . S
H75 C47 0.931 . S
H76 C53 0.931 . S
H77 C54 0.931 . S
H78 C56 0.931 . S
H79 C57 0.931 . S
C80 Eu81 2.835 . S
C80 C82 1.500 . S
C80 O100 1.257 . S
C80 O101 1.260 . S
Eu81 C80 2.835 . S
Eu81 O100 2.473 . S
Eu81 O101 2.480 . S
Eu81 O102 2.430 . S
Eu81 O103 2.670 . S
Eu81 O104 2.394 . S
Eu81 O109 2.355 . S
Eu81 O111 2.374 . S
C82 C80 1.500 . S
C82 C83 1.377 . S
C82 C87 1.377 . S
C83 C82 1.377 . S
C83 C84 1.395 . S
C83 H112 0.931 . S
C84 C83 1.395 . S
C84 C85 1.383 . S
C84 H113 0.931 . S
C85 C84 1.383 . S
C85 C86 1.394 . S
C86 C85 1.394 . S
C86 C87 1.378 . S
C86 H114 0.931 . S
C87 C82 1.377 . S
C87 C86 1.378 . S
C87 H115 0.931 . S
C88 O102 1.259 . S
C88 O103 1.270 . S
C89 O104 1.251 . S
C89 O105 1.251 . S
C90 Eu91 2.835 . S
C90 C92 1.500 . S
C90 O106 1.257 . S
C90 O107 1.260 . S
Eu91 C90 2.835 . S
Eu91 O103 2.355 . S
Eu91 O105 2.374 . S
Eu91 O106 2.473 . S
Eu91 O107 2.480 . S
Eu91 O108 2.430 . S
Eu91 O109 2.670 . S
Eu91 O110 2.394 . S
C92 C90 1.500 . S
C92 C93 1.377 . S
C92 C97 1.377 . S
C93 C92 1.377 . S
C93 C94 1.395 . S
C93 H116 0.931 . S
C94 C93 1.395 . S
C94 C95 1.383 . S
C94 H117 0.931 . S
C95 C94 1.383 . S
C95 C96 1.394 . S
C96 C95 1.394 . S
C96 C97 1.378 . S
C96 H118 0.931 . S
C97 C92 1.377 . S
C97 C96 1.378 . S
C97 H119 0.931 . S
C98 O108 1.259 . S
C98 O109 1.270 . S
C99 O110 1.251 . S
C99 O111 1.251 . S
O100 C80 1.257 . S
O100 Eu81 2.473 . S
O101 C80 1.260 . S
O101 Eu81 2.480 . S
O102 Eu81 2.430 . S
O102 C88 1.259 . S
O103 Eu81 2.670 . S
O103 C88 1.270 . S
O103 Eu91 2.355 . S
O104 Eu81 2.394 . S
O104 C89 1.251 . S
O105 C89 1.251 . S
O105 Eu91 2.374 . S
O106 C90 1.257 . S
O106 Eu91 2.473 . S
O107 C90 1.260 . S
O107 Eu91 2.480 . S
O108 Eu91 2.430 . S
O108 C98 1.259 . S
O109 Eu81 2.355 . S
O109 Eu91 2.670 . S
O109 C98 1.270 . S
O110 Eu91 2.394 . S
O110 C99 1.251 . S
O111 Eu81 2.374 . S
O111 C99 1.251 . S
H112 C83 0.931 . S
H113 C84 0.931 . S
H114 C86 0.931 . S
H115 C87 0.931 . S
H116 C93 0.931 . S
H117 C94 0.931 . S
H118 C96 0.931 . S
H119 C97 0.931 . S
C120 Eu121 2.835 1_556 S
C120 C122 1.500 . S
C120 O140 1.257 . S
C120 O141 1.260 . S
Eu121 C120 2.835 1_554 S
Eu121 O140 2.473 1_554 S
Eu121 O141 2.480 1_554 S
Eu121 O142 2.430 . S
Eu121 O143 2.670 . S
Eu121 O144 2.394 1_554 S
Eu121 O149 2.355 . S
Eu121 O151 2.374 . S
C122 C120 1.500 . S
C122 C123 1.377 . S
C122 C127 1.377 . S
C123 C122 1.377 . S
C123 C124 1.395 . S
C123 H152 0.931 . S
C124 C123 1.395 . S
C124 C125 1.383 . S
C124 H153 0.931 . S
C125 C124 1.383 . S
C125 C126 1.394 . S
C126 C125 1.394 . S
C126 C127 1.378 . S
C126 H154 0.931 . S
C127 C122 1.377 . S
C127 C126 1.378 . S
C127 H155 0.931 . S
C128 O142 1.259 . S
C128 O143 1.270 . S
C129 O144 1.251 . S
C129 O145 1.251 1_556 S
C130 Eu131 2.835 . S
C130 C132 1.500 . S
C130 O146 1.257 . S
C130 O147 1.260 . S
Eu131 C130 2.835 . S
Eu131 O143 2.355 . S
Eu131 O145 2.374 . S
Eu131 O146 2.473 . S
Eu131 O147 2.480 . S
Eu131 O148 2.430 . S
Eu131 O149 2.670 . S
Eu131 O150 2.394 . S
C132 C130 1.500 . S
C132 C133 1.377 . S
C132 C137 1.377 . S
C133 C132 1.377 . S
C133 C134 1.395 . S
C133 H156 0.931 . S
C134 C133 1.395 . S
C134 C135 1.383 . S
C134 H157 0.931 . S
C135 C134 1.383 . S
C135 C136 1.394 . S
C136 C135 1.394 . S
C136 C137 1.378 . S
C136 H158 0.931 . S
C137 C132 1.377 . S
C137 C136 1.378 . S
C137 H159 0.931 . S
C138 O148 1.259 . S
C138 O149 1.270 . S
C139 O150 1.251 . S
C139 O151 1.251 . S
O140 C120 1.257 . S
O140 Eu121 2.473 1_556 S
O141 C120 1.260 . S
O141 Eu121 2.480 1_556 S
O142 Eu121 2.430 . S
O142 C128 1.259 . S
O143 Eu121 2.670 . S
O143 C128 1.270 . S
O143 Eu131 2.355 . S
O144 Eu121 2.394 1_556 S
O144 C129 1.251 . S
O145 C129 1.251 1_554 S
O145 Eu131 2.374 . S
O146 C130 1.257 . S
O146 Eu131 2.473 . S
O147 C130 1.260 . S
O147 Eu131 2.480 . S
O148 Eu131 2.430 . S
O148 C138 1.259 . S
O149 Eu121 2.355 . S
O149 Eu131 2.670 . S
O149 C138 1.270 . S
O150 Eu131 2.394 . S
O150 C139 1.251 . S
O151 Eu121 2.374 . S
O151 C139 1.251 . S
H152 C123 0.931 . S
H153 C124 0.931 . S
H154 C126 0.931 . S
H155 C127 0.931 . S
H156 C133 0.931 . S
H157 C134 0.931 . S
H158 C136 0.931 . S
H159 C137 0.931 . S
C160 Eu161 2.835 . S
C160 C162 1.500 . S
C160 O180 1.257 . S
C160 O181 1.260 . S
Eu161 C160 2.835 . S
Eu161 O180 2.473 . S
Eu161 O181 2.480 . S
Eu161 O182 2.430 . S
Eu161 O183 2.670 . S
Eu161 O184 2.394 . S
Eu161 O189 2.355 . S
Eu161 O191 2.374 . S
C162 C160 1.500 . S
C162 C163 1.377 . S
C162 C167 1.377 . S
C163 C162 1.377 . S
C163 C164 1.395 . S
C163 H192 0.931 . S
C164 C163 1.395 . S
C164 C165 1.383 . S
C164 H193 0.931 . S
C165 C164 1.383 . S
C165 C166 1.394 . S
C166 C165 1.394 . S
C166 C167 1.378 . S
C166 H194 0.931 . S
C167 C162 1.377 . S
C167 C166 1.378 . S
C167 H195 0.931 . S
C168 O182 1.259 . S
C168 O183 1.270 . S
C169 O184 1.251 . S
C169 O185 1.251 . S
C170 Eu171 2.835 . S
C170 C172 1.500 . S
C170 O186 1.257 . S
C170 O187 1.260 . S
Eu171 C170 2.835 . S
Eu171 O183 2.355 . S
Eu171 O185 2.374 . S
Eu171 O186 2.473 . S
Eu171 O187 2.480 . S
Eu171 O188 2.430 . S
Eu171 O189 2.670 . S
Eu171 O190 2.394 . S
C172 C170 1.500 . S
C172 C173 1.377 . S
C172 C177 1.377 . S
C173 C172 1.377 . S
C173 C174 1.395 . S
C173 H196 0.931 . S
C174 C173 1.395 . S
C174 C175 1.383 . S
C174 H197 0.931 . S
C175 C174 1.383 . S
C175 C176 1.394 . S
C176 C175 1.394 . S
C176 C177 1.378 . S
C176 H198 0.931 . S
C177 C172 1.377 . S
C177 C176 1.378 . S
C177 H199 0.931 . S
C178 O188 1.259 . S
C178 O189 1.270 . S
C179 O190 1.251 . S
C179 O191 1.251 . S
O180 C160 1.257 . S
O180 Eu161 2.473 . S
O181 C160 1.260 . S
O181 Eu161 2.480 . S
O182 Eu161 2.430 . S
O182 C168 1.259 . S
O183 Eu161 2.670 . S
O183 C168 1.270 . S
O183 Eu171 2.355 . S
O184 Eu161 2.394 . S
O184 C169 1.251 . S
O185 C169 1.251 . S
O185 Eu171 2.374 . S
O186 C170 1.257 . S
O186 Eu171 2.473 . S
O187 C170 1.260 . S
O187 Eu171 2.480 . S
O188 Eu171 2.430 . S
O188 C178 1.259 . S
O189 Eu161 2.355 . S
O189 Eu171 2.670 . S
O189 C178 1.270 . S
O190 Eu171 2.394 . S
O190 C179 1.251 . S
O191 Eu161 2.374 . S
O191 C179 1.251 . S
H192 C163 0.931 . S
H193 C164 0.931 . S
H194 C166 0.931 . S
H195 C167 0.931 . S
H196 C173 0.931 . S
H197 C174 0.931 . S
H198 C176 0.931 . S
H199 C177 0.931 . S
C200 Eu201 2.835 . S
C200 C202 1.500 . S
C200 O220 1.257 . S
C200 O221 1.260 . S
Eu201 C200 2.835 . S
Eu201 O220 2.473 . S
Eu201 O221 2.480 . S
Eu201 O222 2.430 . S
Eu201 O223 2.670 . S
Eu201 O224 2.394 . S
Eu201 O229 2.355 . S
Eu201 O231 2.374 . S
C202 C200 1.500 . S
C202 C203 1.377 . S
C202 C207 1.377 . S
C203 C202 1.377 . S
C203 C204 1.395 . S
C203 H232 0.931 . S
C204 C203 1.395 . S
C204 C205 1.383 . S
C204 H233 0.931 . S
C205 C204 1.383 . S
C205 C206 1.394 . S
C206 C205 1.394 . S
C206 C207 1.378 . S
C206 H234 0.931 . S
C207 C202 1.377 . S
C207 C206 1.378 . S
C207 H235 0.931 . S
C208 O222 1.259 . S
C208 O223 1.270 . S
C209 O224 1.251 . S
C209 O225 1.251 . S
C210 Eu211 2.835 . S
C210 C212 1.500 . S
C210 O226 1.257 . S
C210 O227 1.260 . S
Eu211 C210 2.835 . S
Eu211 O223 2.355 . S
Eu211 O225 2.374 . S
Eu211 O226 2.473 . S
Eu211 O227 2.480 . S
Eu211 O228 2.430 . S
Eu211 O229 2.670 . S
Eu211 O230 2.394 . S
C212 C210 1.500 . S
C212 C213 1.377 . S
C212 C217 1.377 . S
C213 C212 1.377 . S
C213 C214 1.395 . S
C213 H236 0.931 . S
C214 C213 1.395 . S
C214 C215 1.383 . S
C214 H237 0.931 . S
C215 C214 1.383 . S
C215 C216 1.394 . S
C216 C215 1.394 . S
C216 C217 1.378 . S
C216 H238 0.931 . S
C217 C212 1.377 . S
C217 C216 1.378 . S
C217 H239 0.931 . S
C218 O228 1.259 . S
C218 O229 1.270 . S
C219 O230 1.251 . S
C219 O231 1.251 . S
O220 C200 1.257 . S
O220 Eu201 2.473 . S
O221 C200 1.260 . S
O221 Eu201 2.480 . S
O222 Eu201 2.430 . S
O222 C208 1.259 . S
O223 Eu201 2.670 . S
O223 C208 1.270 . S
O223 Eu211 2.355 . S
O224 Eu201 2.394 . S
O224 C209 1.251 . S
O225 C209 1.251 . S
O225 Eu211 2.374 . S
O226 C210 1.257 . S
O226 Eu211 2.473 . S
O227 C210 1.260 . S
O227 Eu211 2.480 . S
O228 Eu211 2.430 . S
O228 C218 1.259 . S
O229 Eu201 2.355 . S
O229 Eu211 2.670 . S
O229 C218 1.270 . S
O230 Eu211 2.394 . S
O230 C219 1.251 . S
O231 Eu201 2.374 . S
O231 C219 1.251 . S
H232 C203 0.931 . S
H233 C204 0.931 . S
H234 C206 0.931 . S
H235 C207 0.931 . S
H236 C213 0.931 . S
H237 C214 0.931 . S
H238 C216 0.931 . S
H239 C217 0.931 . S
H240 C248 0.929 . S
H241 C250 0.930 . S
H242 C252 0.930 . S
H243 C255 0.929 . S
H244 C258 0.930 . S
H245 C260 0.960 . S
H246 C260 0.960 . S
H247 C260 0.960 . S
C248 H240 0.929 . S
C248 C249 1.377 . S
C248 C250 1.384 . S
C249 C248 1.377 . S
C249 C255 1.390 . S
C250 H241 0.930 . S
C250 C248 1.384 . S
C250 C251 1.372 . S
C251 C250 1.372 . S
C251 C252 1.400 . S
C251 C256 1.490 . S
C252 H242 0.930 . S
C252 C251 1.400 . S
C252 C255 1.386 . S
H253 C269 0.930 . S
H254 C270 0.931 . S
C255 H243 0.929 . S
C255 C249 1.390 . S
C255 C252 1.386 . S
C256 C251 1.490 . S
C256 C258 1.395 . S
C256 C259 1.403 . S
H257 C263 0.930 . S
C258 H244 0.930 . S
C258 C256 1.395 . S
C258 C261 1.403 . S
C259 C256 1.403 . S
C259 C260 1.524 . S
C259 C263 1.400 . S
C260 H245 0.960 . S
C260 H246 0.960 . S
C260 H247 0.960 . S
C260 C259 1.524 . S
C261 C258 1.403 . S
C261 C262 1.392 . S
C261 C265 1.495 . S
C262 C261 1.392 . S
C262 C263 1.385 . S
C262 C264 1.478 . S
C263 H257 0.930 . S
C263 C259 1.400 . S
C263 C262 1.385 . S
C264 C262 1.478 . S
C264 C266 1.381 . S
C264 C270 1.383 . S
C265 C261 1.495 . S
C265 H271 0.959 . S
C265 H272 0.961 . S
C265 H273 0.960 . S
C266 C264 1.381 . S
C266 C267 1.394 . S
C266 H274 0.930 . S
C267 C266 1.394 . S
C267 C268 1.383 . S
C267 H275 0.929 . S
C268 C267 1.383 . S
C268 C269 1.377 . S
C269 H253 0.930 . S
C269 C268 1.377 . S
C269 C270 1.379 . S
C270 H254 0.931 . S
C270 C264 1.383 . S
C270 C269 1.379 . S
H271 C265 0.959 . S
H272 C265 0.961 . S
H273 C265 0.960 . S
H274 C266 0.930 . S
H275 C267 0.929 . S
H276 C284 0.929 . S
H277 C286 0.930 . S
H278 C288 0.930 . S
H279 C291 0.929 . S
H280 C294 0.930 . S
H281 C296 0.960 . S
H282 C296 0.960 . S
H283 C296 0.960 . S
C284 H276 0.929 . S
C284 C285 1.377 . S
C284 C286 1.384 . S
C285 C284 1.377 . S
C285 C291 1.390 . S
C286 H277 0.930 . S
C286 C284 1.384 . S
C286 C287 1.372 . S
C287 C286 1.372 . S
C287 C288 1.400 . S
C287 C292 1.490 . S
C288 H278 0.930 . S
C288 C287 1.400 . S
C288 C291 1.386 . S
H289 C305 0.930 . S
H290 C306 0.931 . S
C291 H279 0.929 . S
C291 C285 1.390 . S
C291 C288 1.386 . S
C292 C287 1.490 . S
C292 C294 1.395 . S
C292 C295 1.403 . S
H293 C299 0.930 . S
C294 H280 0.930 . S
C294 C292 1.395 . S
C294 C297 1.403 . S
C295 C292 1.403 . S
C295 C296 1.524 . S
C295 C299 1.400 . S
C296 H281 0.960 . S
C296 H282 0.960 . S
C296 H283 0.960 . S
C296 C295 1.524 . S
C297 C294 1.403 . S
C297 C298 1.392 . S
C297 C301 1.495 . S
C298 C297 1.392 . S
C298 C299 1.385 . S
C298 C300 1.478 . S
C299 H293 0.930 . S
C299 C295 1.400 . S
C299 C298 1.385 . S
C300 C298 1.478 . S
C300 C302 1.381 . S
C300 C306 1.383 . S
C301 C297 1.495 . S
C301 H307 0.959 . S
C301 H308 0.961 . S
C301 H309 0.960 . S
C302 C300 1.381 . S
C302 C303 1.394 . S
C302 H310 0.930 . S
C303 C302 1.394 . S
C303 C304 1.383 . S
C303 H311 0.929 . S
C304 C303 1.383 . S
C304 C305 1.377 . S
C305 H289 0.930 . S
C305 C304 1.377 . S
C305 C306 1.379 . S
C306 H290 0.931 . S
C306 C300 1.383 . S
C306 C305 1.379 . S
H307 C301 0.959 . S
H308 C301 0.961 . S
H309 C301 0.960 . S
H310 C302 0.930 . S
H311 C303 0.929 . S
H312 C320 0.929 . S
H313 C322 0.930 . S
H314 C324 0.930 . S
H315 C327 0.929 . S
H316 C330 0.930 . S
H317 C332 0.960 . S
H318 C332 0.960 . S
H319 C332 0.960 . S
C320 H312 0.929 . S
C320 C321 1.377 . S
C320 C322 1.384 . S
C321 C320 1.377 . S
C321 C327 1.390 . S
C322 H313 0.930 . S
C322 C320 1.384 . S
C322 C323 1.372 . S
C323 C322 1.372 . S
C323 C324 1.400 . S
C323 C328 1.490 . S
C324 H314 0.930 . S
C324 C323 1.400 . S
C324 C327 1.386 . S
H325 C341 0.930 . S
H326 C342 0.931 . S
C327 H315 0.929 . S
C327 C321 1.390 . S
C327 C324 1.386 . S
C328 C323 1.490 . S
C328 C330 1.395 . S
C328 C331 1.403 . S
H329 C335 0.930 . S
C330 H316 0.930 . S
C330 C328 1.395 . S
C330 C333 1.403 . S
C331 C328 1.403 . S
C331 C332 1.524 . S
C331 C335 1.400 . S
C332 H317 0.960 . S
C332 H318 0.960 . S
C332 H319 0.960 . S
C332 C331 1.524 . S
C333 C330 1.403 . S
C333 C334 1.392 . S
C333 C337 1.495 . S
C334 C333 1.392 . S
C334 C335 1.385 . S
C334 C336 1.478 . S
C335 H329 0.930 . S
C335 C331 1.400 . S
C335 C334 1.385 . S
C336 C334 1.478 . S
C336 C338 1.381 . S
C336 C342 1.383 . S
C337 C333 1.495 . S
C337 H343 0.959 . S
C337 H344 0.961 . S
C337 H345 0.960 . S
C338 C336 1.381 . S
C338 C339 1.394 . S
C338 H346 0.930 . S
C339 C338 1.394 . S
C339 C340 1.383 . S
C339 H347 0.929 . S
C340 C339 1.383 . S
C340 C341 1.377 . S
C341 H325 0.930 . S
C341 C340 1.377 . S
C341 C342 1.379 . S
C342 H326 0.931 . S
C342 C336 1.383 . S
C342 C341 1.379 . S
H343 C337 0.959 . S
H344 C337 0.961 . S
H345 C337 0.960 . S
H346 C338 0.930 . S
H347 C339 0.929 . S
H348 C356 0.929 . S
H349 C358 0.930 . S
H350 C360 0.930 . S
H351 C363 0.929 . S
H352 C366 0.930 . S
H353 C368 0.960 . S
H354 C368 0.960 . S
H355 C368 0.960 . S
C356 H348 0.929 . S
C356 C357 1.377 . S
C356 C358 1.384 . S
C357 C356 1.377 . S
C357 C363 1.390 . S
C358 H349 0.930 . S
C358 C356 1.384 . S
C358 C359 1.372 . S
C359 C358 1.372 . S
C359 C360 1.400 . S
C359 C364 1.490 . S
C360 H350 0.930 . S
C360 C359 1.400 . S
C360 C363 1.386 . S
H361 C377 0.930 . S
H362 C378 0.931 . S
C363 H351 0.929 . S
C363 C357 1.390 . S
C363 C360 1.386 . S
C364 C359 1.490 . S
C364 C366 1.395 . S
C364 C367 1.403 . S
H365 C371 0.930 . S
C366 H352 0.930 . S
C366 C364 1.395 . S
C366 C369 1.403 . S
C367 C364 1.403 . S
C367 C368 1.524 . S
C367 C371 1.400 . S
C368 H353 0.960 . S
C368 H354 0.960 . S
C368 H355 0.960 . S
C368 C367 1.524 . S
C369 C366 1.403 . S
C369 C370 1.392 . S
C369 C373 1.495 . S
C370 C369 1.392 . S
C370 C371 1.385 . S
C370 C372 1.478 . S
C371 H365 0.930 . S
C371 C367 1.400 . S
C371 C370 1.385 . S
C372 C370 1.478 . S
C372 C374 1.381 . S
C372 C378 1.383 . S
C373 C369 1.495 . S
C373 H379 0.959 . S
C373 H380 0.961 . S
C373 H381 0.960 . S
C374 C372 1.381 . S
C374 C375 1.394 . S
C374 H382 0.930 . S
C375 C374 1.394 . S
C375 C376 1.383 . S
C375 H383 0.929 . S
C376 C375 1.383 . S
C376 C377 1.377 . S
C377 H361 0.930 . S
C377 C376 1.377 . S
C377 C378 1.379 . S
C378 H362 0.931 . S
C378 C372 1.383 . S
C378 C377 1.379 . S
H379 C373 0.959 . S
H380 C373 0.961 . S
H381 C373 0.960 . S
H382 C374 0.930 . S
H383 C375 0.929 . S
H384 C392 0.929 . S
H385 C394 0.930 . S
H386 C396 0.930 . S
H387 C399 0.929 . S
H388 C402 0.930 . S
H389 C404 0.960 . S
H390 C404 0.960 . S
H391 C404 0.960 . S
C392 H384 0.929 . S
C392 C393 1.377 . S
C392 C394 1.384 . S
C393 C392 1.377 . S
C393 C399 1.390 . S
C394 H385 0.930 . S
C394 C392 1.384 . S
C394 C395 1.372 . S
C395 C394 1.372 . S
C395 C396 1.400 . S
C395 C400 1.490 . S
C396 H386 0.930 . S
C396 C395 1.400 . S
C396 C399 1.386 . S
H397 C413 0.930 . S
H398 C414 0.931 . S
C399 H387 0.929 . S
C399 C393 1.390 . S
C399 C396 1.386 . S
C400 C395 1.490 . S
C400 C402 1.395 . S
C400 C403 1.403 . S
H401 C407 0.930 . S
C402 H388 0.930 . S
C402 C400 1.395 . S
C402 C405 1.403 . S
C403 C400 1.403 . S
C403 C404 1.524 . S
C403 C407 1.400 . S
C404 H389 0.960 . S
C404 H390 0.960 . S
C404 H391 0.960 . S
C404 C403 1.524 . S
C405 C402 1.403 . S
C405 C406 1.392 . S
C405 C409 1.495 . S
C406 C405 1.392 . S
C406 C407 1.385 . S
C406 C408 1.478 . S
C407 H401 0.930 . S
C407 C403 1.400 . S
C407 C406 1.385 . S
C408 C406 1.478 . S
C408 C410 1.381 . S
C408 C414 1.383 . S
C409 C405 1.495 . S
C409 H415 0.959 . S
C409 H416 0.961 . S
C409 H417 0.960 . S
C410 C408 1.381 . S
C410 C411 1.394 . S
C410 H418 0.930 . S
C411 C410 1.394 . S
C411 C412 1.383 . S
C411 H419 0.929 . S
C412 C411 1.383 . S
C412 C413 1.377 . S
C413 H397 0.930 . S
C413 C412 1.377 . S
C413 C414 1.379 . S
C414 H398 0.931 . S
C414 C408 1.383 . S
C414 C413 1.379 . S
H415 C409 0.959 . S
H416 C409 0.961 . S
H417 C409 0.960 . S
H418 C410 0.930 . S
H419 C411 0.929 . S
H420 C428 0.929 . S
H421 C430 0.930 . S
H422 C432 0.930 . S
H423 C435 0.929 . S
H424 C438 0.930 . S
H425 C440 0.960 . S
H426 C440 0.960 . S
H427 C440 0.960 . S
C428 H420 0.929 . S
C428 C429 1.377 . S
C428 C430 1.384 . S
C429 C428 1.377 . S
C429 C435 1.390 . S
C430 H421 0.930 . S
C430 C428 1.384 . S
C430 C431 1.372 . S
C431 C430 1.372 . S
C431 C432 1.400 . S
C431 C436 1.490 . S
C432 H422 0.930 . S
C432 C431 1.400 . S
C432 C435 1.386 . S
H433 C449 0.930 . S
H434 C450 0.931 . S
C435 H423 0.929 . S
C435 C429 1.390 . S
C435 C432 1.386 . S
C436 C431 1.490 . S
C436 C438 1.395 . S
C436 C439 1.403 . S
H437 C443 0.930 . S
C438 H424 0.930 . S
C438 C436 1.395 . S
C438 C441 1.403 . S
C439 C436 1.403 . S
C439 C440 1.524 . S
C439 C443 1.400 . S
C440 H425 0.960 . S
C440 H426 0.960 . S
C440 H427 0.960 . S
C440 C439 1.524 . S
C441 C438 1.403 . S
C441 C442 1.392 . S
C441 C445 1.495 . S
C442 C441 1.392 . S
C442 C443 1.385 . S
C442 C444 1.478 . S
C443 H437 0.930 . S
C443 C439 1.400 . S
C443 C442 1.385 . S
C444 C442 1.478 . S
C444 C446 1.381 . S
C444 C450 1.383 . S
C445 C441 1.495 . S
C445 H451 0.959 . S
C445 H452 0.961 . S
C445 H453 0.960 . S
C446 C444 1.381 . S
C446 C447 1.394 . S
C446 H454 0.930 . S
C447 C446 1.394 . S
C447 C448 1.383 . S
C447 H455 0.929 . S
C448 C447 1.383 . S
C448 C449 1.377 . S
C449 H433 0.930 . S
C449 C448 1.377 . S
C449 C450 1.379 . S
C450 H434 0.931 . S
C450 C444 1.383 . S
C450 C449 1.379 . S
H451 C445 0.959 . S
H452 C445 0.961 . S
H453 C445 0.960 . S
H454 C446 0.930 . S
H455 C447 0.929 . S
H456 C464 0.929 . S
H457 C466 0.930 . S
H458 C468 0.930 . S
H459 C471 0.929 . S
H460 C474 0.930 . S
H461 C476 0.960 . S
H462 C476 0.960 . S
H463 C476 0.960 . S
C464 H456 0.929 . S
C464 C465 1.377 . S
C464 C466 1.384 . S
C465 C464 1.377 . S
C465 C471 1.390 . S
C466 H457 0.930 . S
C466 C464 1.384 . S
C466 C467 1.372 . S
C467 C466 1.372 . S
C467 C468 1.400 . S
C467 C472 1.490 . S
C468 H458 0.930 . S
C468 C467 1.400 . S
C468 C471 1.386 . S
H469 C485 0.930 . S
H470 C486 0.931 . S
C471 H459 0.929 . S
C471 C465 1.390 . S
C471 C468 1.386 . S
C472 C467 1.490 . S
C472 C474 1.395 . S
C472 C475 1.403 . S
H473 C479 0.930 . S
C474 H460 0.930 . S
C474 C472 1.395 . S
C474 C477 1.403 . S
C475 C472 1.403 . S
C475 C476 1.524 . S
C475 C479 1.400 . S
C476 H461 0.960 . S
C476 H462 0.960 . S
C476 H463 0.960 . S
C476 C475 1.524 . S
C477 C474 1.403 . S
C477 C478 1.392 . S
C477 C481 1.495 . S
C478 C477 1.392 . S
C478 C479 1.385 . S
C478 C480 1.478 . S
C479 H473 0.930 . S
C479 C475 1.400 . S
C479 C478 1.385 . S
C480 C478 1.478 . S
C480 C482 1.381 . S
C480 C486 1.383 . S
C481 C477 1.495 . S
C481 H487 0.959 . S
C481 H488 0.961 . S
C481 H489 0.960 . S
C482 C480 1.381 . S
C482 C483 1.394 . S
C482 H490 0.930 . S
C483 C482 1.394 . S
C483 C484 1.383 . S
C483 H491 0.929 . S
C484 C483 1.383 . S
C484 C485 1.377 . S
C485 H469 0.930 . S
C485 C484 1.377 . S
C485 C486 1.379 . S
C486 H470 0.931 . S
C486 C480 1.383 . S
C486 C485 1.379 . S
H487 C481 0.959 . S
H488 C481 0.961 . S
H489 C481 0.960 . S
H490 C482 0.930 . S
H491 C483 0.929 . S
H492 C500 0.929 . S
H493 C502 0.930 . S
H494 C504 0.930 . S
H495 C507 0.929 . S
H496 C510 0.930 . S
H497 C512 0.960 . S
H498 C512 0.960 . S
H499 C512 0.960 . S
C500 H492 0.929 . S
C500 C501 1.377 . S
C500 C502 1.384 . S
C501 C500 1.377 . S
C501 C507 1.390 . S
C502 H493 0.930 . S
C502 C500 1.384 . S
C502 C503 1.372 . S
C503 C502 1.372 . S
C503 C504 1.400 . S
C503 C508 1.490 . S
C504 H494 0.930 . S
C504 C503 1.400 . S
C504 C507 1.386 . S
H505 C521 0.930 . S
H506 C522 0.931 . S
C507 H495 0.929 . S
C507 C501 1.390 . S
C507 C504 1.386 . S
C508 C503 1.490 . S
C508 C510 1.395 1_455 S
C508 C511 1.403 . S
H509 C515 0.930 . S
C510 H496 0.930 . S
C510 C508 1.395 1_655 S
C510 C513 1.403 . S
C511 C508 1.403 . S
C511 C512 1.524 . S
C511 C515 1.400 . S
C512 H497 0.960 . S
C512 H498 0.960 . S
C512 H499 0.960 . S
C512 C511 1.524 . S
C513 C510 1.403 . S
C513 C514 1.392 . S
C513 C517 1.495 . S
C514 C513 1.392 . S
C514 C515 1.385 1_655 S
C514 C516 1.478 . S
C515 H509 0.930 . S
C515 C511 1.400 . S
C515 C514 1.385 1_455 S
C516 C514 1.478 . S
C516 C518 1.381 . S
C516 C522 1.383 . S
C517 C513 1.495 . S
C517 H523 0.959 . S
C517 H524 0.961 . S
C517 H525 0.960 . S
C518 C516 1.381 . S
C518 C519 1.394 . S
C518 H526 0.930 . S
C519 C518 1.394 . S
C519 C520 1.383 . S
C519 H527 0.929 . S
C520 C519 1.383 . S
C520 C521 1.377 . S
C521 H505 0.930 . S
C521 C520 1.377 . S
C521 C522 1.379 . S
C522 H506 0.931 . S
C522 C516 1.383 . S
C522 C521 1.379 . S
H523 C517 0.959 . S
H524 C517 0.961 . S
H525 C517 0.960 . S
H526 C518 0.930 . S
H527 C519 0.929 . S
H528 C536 0.929 . S
H529 C538 0.930 1_565 S
H530 C540 0.930 . S
H531 C543 0.929 . S
H532 C546 0.930 . S
H533 C548 0.960 . S
H534 C548 0.960 . S
H535 C548 0.960 . S
C536 H528 0.929 . S
C536 C537 1.377 . S
C536 C538 1.384 . S
C537 C536 1.377 . S
C537 C543 1.390 . S
C538 H529 0.930 1_545 S
C538 C536 1.384 . S
C538 C539 1.372 . S
C539 C538 1.372 . S
C539 C540 1.400 . S
C539 C544 1.490 . S
C540 H530 0.930 . S
C540 C539 1.400 . S
C540 C543 1.386 . S
H541 C557 0.930 . S
H542 C558 0.929 1_545 S
C543 H531 0.929 . S
C543 C537 1.390 . S
C543 C540 1.386 . S
C544 C539 1.490 . S
C544 C546 1.395 1_545 S
C544 C547 1.403 . S
H545 C551 0.930 . S
C546 H532 0.930 . S
C546 C544 1.395 1_565 S
C546 C549 1.403 . S
C547 C544 1.403 . S
C547 C548 1.524 . S
C547 C551 1.400 . S
C548 H533 0.960 . S
C548 H534 0.960 . S
C548 H535 0.960 . S
C548 C547 1.524 . S
C549 C546 1.403 . S
C549 C550 1.392 . S
C549 C553 1.495 . S
C550 C549 1.392 . S
C550 C551 1.385 1_565 S
C550 C552 1.478 . S
C551 H545 0.930 . S
C551 C547 1.400 . S
C551 C550 1.385 1_545 S
C552 C550 1.478 . S
C552 C554 1.381 . S
C552 C558 1.383 . S
C553 C549 1.495 . S
C553 H559 0.959 . S
C553 H560 0.961 . S
C553 H561 0.960 . S
C554 C552 1.381 . S
C554 C555 1.394 . S
C554 H562 0.930 . S
C555 C554 1.394 . S
C555 C556 1.383 . S
C555 H563 0.929 . S
C556 C555 1.383 . S
C556 C557 1.377 . S
C557 H541 0.930 . S
C557 C556 1.377 . S
C557 C558 1.379 . S
C558 H542 0.929 1_565 S
C558 C552 1.383 . S
C558 C557 1.379 . S
H559 C553 0.959 . S
H560 C553 0.961 . S
H561 C553 0.960 . S
H562 C554 0.930 . S
H563 C555 0.929 . S
H564 C572 0.929 . S
H565 C574 0.930 . S
H566 C576 0.930 . S
H567 C579 0.929 . S
H568 C582 0.930 . S
H569 C584 0.960 . S
H570 C584 0.960 . S
H571 C584 0.960 . S
C572 H564 0.929 . S
C572 C573 1.377 . S
C572 C574 1.384 . S
C573 C572 1.377 . S
C573 C579 1.390 . S
C574 H565 0.930 . S
C574 C572 1.384 . S
C574 C575 1.372 . S
C575 C574 1.372 . S
C575 C576 1.400 . S
C575 C580 1.490 . S
C576 H566 0.930 . S
C576 C575 1.400 . S
C576 C579 1.386 . S
H577 C593 0.930 . S
H578 C594 0.931 . S
C579 H567 0.929 . S
C579 C573 1.390 . S
C579 C576 1.386 . S
C580 C575 1.490 . S
C580 C582 1.395 . S
C580 C583 1.403 . S
H581 C587 0.930 . S
C582 H568 0.930 . S
C582 C580 1.395 . S
C582 C585 1.403 . S
C583 C580 1.403 . S
C583 C584 1.524 . S
C583 C587 1.400 . S
C584 H569 0.960 . S
C584 H570 0.960 . S
C584 H571 0.960 . S
C584 C583 1.524 . S
C585 C582 1.403 . S
C585 C586 1.392 . S
C585 C589 1.495 . S
C586 C585 1.392 . S
C586 C587 1.385 . S
C586 C588 1.478 . S
C587 H581 0.930 . S
C587 C583 1.400 . S
C587 C586 1.385 . S
C588 C586 1.478 . S
C588 C590 1.381 . S
C588 C594 1.383 . S
C589 C585 1.495 . S
C589 H595 0.959 . S
C589 H596 0.961 . S
C589 H597 0.960 . S
C590 C588 1.381 . S
C590 C591 1.394 . S
C590 H598 0.930 . S
C591 C590 1.394 . S
C591 C592 1.383 . S
C591 H599 0.929 . S
C592 C591 1.383 . S
C592 C593 1.377 . S
C593 H577 0.930 . S
C593 C592 1.377 . S
C593 C594 1.379 . S
C594 H578 0.931 . S
C594 C588 1.383 . S
C594 C593 1.379 . S
H595 C589 0.959 . S
H596 C589 0.961 . S
H597 C589 0.960 . S
H598 C590 0.930 . S
H599 C591 0.929 . S
H600 C608 0.929 . S
H601 C610 0.930 . S
H602 C612 0.930 . S
H603 C615 0.929 . S
H604 C618 0.930 . S
H605 C620 0.960 . S
H606 C620 0.960 . S
H607 C620 0.960 . S
C608 H600 0.929 . S
C608 C609 1.377 1_556 S
C608 C610 1.384 . S
C609 C608 1.377 1_554 S
C609 C615 1.390 . S
C610 H601 0.930 . S
C610 C608 1.384 . S
C610 C611 1.372 1_556 S
C611 C610 1.372 1_554 S
C611 C612 1.400 . S
C611 C616 1.490 . S
C612 H602 0.930 . S
C612 C611 1.400 . S
C612 C615 1.386 . S
H613 C629 0.930 . S
H614 C630 0.931 . S
C615 H603 0.929 . S
C615 C609 1.390 . S
C615 C612 1.386 . S
C616 C611 1.490 . S
C616 C618 1.395 1_455 S
C616 C619 1.403 . S
H617 C623 0.930 . S
C618 H604 0.930 . S
C618 C616 1.395 1_655 S
C618 C621 1.403 . S
C619 C616 1.403 . S
C619 C620 1.524 . S
C619 C623 1.400 . S
C620 H605 0.960 . S
C620 H606 0.960 . S
C620 H607 0.960 . S
C620 C619 1.524 . S
C621 C618 1.403 . S
C621 C622 1.392 . S
C621 C625 1.495 . S
C622 C621 1.392 . S
C622 C623 1.385 1_655 S
C622 C624 1.478 . S
C623 H617 0.930 . S
C623 C619 1.400 . S
C623 C622 1.385 1_455 S
C624 C622 1.478 . S
C624 C626 1.381 1_554 S
C624 C630 1.383 . S
C625 C621 1.495 . S
C625 H631 0.959 . S
C625 H632 0.961 . S
C625 H633 0.960 1_554 S
C626 C624 1.381 1_556 S
C626 C627 1.394 . S
C626 H634 0.930 . S
C627 C626 1.394 . S
C627 C628 1.383 1_556 S
C627 H635 0.929 . S
C628 C627 1.383 1_554 S
C628 C629 1.377 . S
C629 H613 0.930 . S
C629 C628 1.377 . S
C629 C630 1.379 . S
C630 H614 0.931 . S
C630 C624 1.383 . S
C630 C629 1.379 . S
H631 C625 0.959 . S
H632 C625 0.961 . S
H633 C625 0.960 1_556 S
H634 C626 0.930 . S
H635 C627 0.929 . S
H636 C644 0.929 . S
H637 C646 0.930 . S
H638 C648 0.930 . S
H639 C651 0.929 . S
H640 C654 0.930 . S
H641 C656 0.960 . S
H642 C656 0.960 . S
H643 C656 0.960 . S
C644 H636 0.929 . S
C644 C645 1.377 . S
C644 C646 1.384 . S
C645 C644 1.377 . S
C645 C651 1.390 . S
C646 H637 0.930 . S
C646 C644 1.384 . S
C646 C647 1.372 . S
C647 C646 1.372 . S
C647 C648 1.400 . S
C647 C652 1.490 . S
C648 H638 0.930 . S
C648 C647 1.400 . S
C648 C651 1.386 . S
H649 C665 0.930 . S
H650 C666 0.931 . S
C651 H639 0.929 . S
C651 C645 1.390 . S
C651 C648 1.386 . S
C652 C647 1.490 . S
C652 C654 1.395 . S
C652 C655 1.403 1_565 S
H653 C659 0.930 . S
C654 H640 0.930 . S
C654 C652 1.395 . S
C654 C657 1.403 . S
C655 C652 1.403 1_545 S
C655 C656 1.524 . S
C655 C659 1.400 . S
C656 H641 0.960 . S
C656 H642 0.960 . S
C656 H643 0.960 . S
C656 C655 1.524 . S
C657 C654 1.403 . S
C657 C658 1.392 1_565 S
C657 C661 1.495 . S
C658 C657 1.392 1_545 S
C658 C659 1.385 . S
C658 C660 1.478 . S
C659 H653 0.930 . S
C659 C655 1.400 . S
C659 C658 1.385 . S
C660 C658 1.478 . S
C660 C662 1.381 . S
C660 C666 1.383 . S
C661 C657 1.495 . S
C661 H667 0.959 . S
C661 H668 0.961 . S
C661 H669 0.960 . S
C662 C660 1.381 . S
C662 C663 1.394 . S
C662 H670 0.930 . S
C663 C662 1.394 . S
C663 C664 1.383 . S
C663 H671 0.929 . S
C664 C663 1.383 . S
C664 C665 1.377 . S
C665 H649 0.930 . S
C665 C664 1.377 . S
C665 C666 1.379 . S
C666 H650 0.931 . S
C666 C660 1.383 . S
C666 C665 1.379 . S
H667 C661 0.959 . S
H668 C661 0.961 . S
H669 C661 0.960 . S
H670 C662 0.930 . S
H671 C663 0.929 . S
H672 C680 0.929 . S
H673 C682 0.930 . S
H674 C684 0.930 . S
H675 C687 0.929 . S
H676 C690 0.930 . S
H677 C692 0.960 . S
H678 C692 0.960 . S
H679 C692 0.960 . S
C680 H672 0.929 . S
C680 C681 1.377 . S
C680 C682 1.384 . S
C681 C680 1.377 . S
C681 C687 1.390 . S
C682 H673 0.930 . S
C682 C680 1.384 . S
C682 C683 1.372 . S
C683 C682 1.372 . S
C683 C684 1.400 . S
C683 C688 1.490 . S
C684 H674 0.930 . S
C684 C683 1.400 . S
C684 C687 1.386 . S
H685 C701 0.930 . S
H686 C702 0.931 . S
C687 H675 0.929 . S
C687 C681 1.390 . S
C687 C684 1.386 . S
C688 C683 1.490 . S
C688 C690 1.395 . S
C688 C691 1.403 . S
H689 C695 0.930 . S
C690 H676 0.930 . S
C690 C688 1.395 . S
C690 C693 1.403 . S
C691 C688 1.403 . S
C691 C692 1.524 . S
C691 C695 1.400 . S
C692 H677 0.960 . S
C692 H678 0.960 . S
C692 H679 0.960 . S
C692 C691 1.524 . S
C693 C690 1.403 . S
C693 C694 1.392 . S
C693 C697 1.495 . S
C694 C693 1.392 . S
C694 C695 1.385 . S
C694 C696 1.478 . S
C695 H689 0.930 . S
C695 C691 1.400 . S
C695 C694 1.385 . S
C696 C694 1.478 . S
C696 C698 1.381 . S
C696 C702 1.383 . S
C697 C693 1.495 . S
C697 H703 0.959 . S
C697 H704 0.961 . S
C697 H705 0.960 . S
C698 C696 1.381 . S
C698 C699 1.394 . S
C698 H706 0.930 . S
C699 C698 1.394 . S
C699 C700 1.383 . S
C699 H707 0.929 . S
C700 C699 1.383 . S
C700 C701 1.377 . S
C701 H685 0.930 . S
C701 C700 1.377 . S
C701 C702 1.379 . S
C702 H686 0.931 . S
C702 C696 1.383 . S
C702 C701 1.379 . S
H703 C697 0.959 . S
H704 C697 0.961 . S
H705 C697 0.960 . S
H706 C698 0.930 . S
H707 C699 0.929 . S
H708 C716 0.929 . S
H709 C718 0.930 . S
H710 C720 0.930 . S
H711 C723 0.929 . S
H712 C726 0.930 . S
H713 C728 0.960 . S
H714 C728 0.960 . S
H715 C728 0.960 . S
C716 H708 0.929 . S
C716 C717 1.377 . S
C716 C718 1.384 . S
C717 C716 1.377 . S
C717 C723 1.390 1_655 S
C718 H709 0.930 . S
C718 C716 1.384 . S
C718 C719 1.372 1_655 S
C719 C718 1.372 1_455 S
C719 C720 1.400 . S
C719 C724 1.490 . S
C720 H710 0.930 . S
C720 C719 1.400 . S
C720 C723 1.386 . S
H721 C737 0.930 . S
H722 C738 0.931 . S
C723 H711 0.929 . S
C723 C717 1.390 1_455 S
C723 C720 1.386 . S
C724 C719 1.490 . S
C724 C726 1.395 . S
C724 C727 1.403 . S
H725 C731 0.930 . S
C726 H712 0.930 . S
C726 C724 1.395 . S
C726 C729 1.403 . S
C727 C724 1.403 . S
C727 C728 1.524 . S
C727 C731 1.400 . S
C728 H713 0.960 . S
C728 H714 0.960 . S
C728 H715 0.960 . S
C728 C727 1.524 . S
C729 C726 1.403 . S
C729 C730 1.392 . S
C729 C733 1.495 . S
C730 C729 1.392 . S
C730 C731 1.385 . S
C730 C732 1.478 . S
C731 H725 0.930 . S
C731 C727 1.400 . S
C731 C730 1.385 . S
C732 C730 1.478 . S
C732 C734 1.381 . S
C732 C738 1.383 . S
C733 C729 1.495 . S
C733 H739 0.959 . S
C733 H740 0.961 . S
C733 H741 0.960 . S
C734 C732 1.381 . S
C734 C735 1.394 . S
C734 H742 0.930 . S
C735 C734 1.394 . S
C735 C736 1.383 . S
C735 H743 0.929 . S
C736 C735 1.383 . S
C736 C737 1.377 . S
C737 H721 0.930 . S
C737 C736 1.377 . S
C737 C738 1.379 . S
C738 H722 0.931 . S
C738 C732 1.383 . S
C738 C737 1.379 . S
H739 C733 0.959 . S
H740 C733 0.961 . S
H741 C733 0.960 . S
H742 C734 0.930 . S
H743 C735 0.929 . S
H744 C752 0.929 . S
H745 C754 0.930 . S
H746 C756 0.930 . S
H747 C759 0.929 . S
H748 C762 0.930 . S
H749 C764 0.960 . S
H750 C764 0.960 . S
H751 C764 0.960 1_565 S
C752 H744 0.929 . S
C752 C753 1.377 1_545 S
C752 C754 1.384 . S
C753 C752 1.377 1_565 S
C753 C759 1.390 . S
C754 H745 0.930 . S
C754 C752 1.384 . S
C754 C755 1.372 . S
C755 C754 1.372 . S
C755 C756 1.400 1_545 S
C755 C760 1.490 . S
C756 H746 0.930 . S
C756 C755 1.400 1_565 S
C756 C759 1.386 . S
H757 C773 0.930 . S
H758 C774 0.931 . S
C759 H747 0.929 . S
C759 C753 1.390 . S
C759 C756 1.386 . S
C760 C755 1.490 . S
C760 C762 1.395 . S
C760 C763 1.403 . S
H761 C767 0.930 . S
C762 H748 0.930 . S
C762 C760 1.395 . S
C762 C765 1.403 . S
C763 C760 1.403 . S
C763 C764 1.524 . S
C763 C767 1.400 . S
C764 H749 0.960 . S
C764 H750 0.960 . S
C764 H751 0.960 1_545 S
C764 C763 1.524 . S
C765 C762 1.403 . S
C765 C766 1.392 . S
C765 C769 1.495 . S
C766 C765 1.392 . S
C766 C767 1.385 . S
C766 C768 1.478 . S
C767 H761 0.930 . S
C767 C763 1.400 . S
C767 C766 1.385 . S
C768 C766 1.478 . S
C768 C770 1.381 . S
C768 C774 1.383 . S
C769 C765 1.495 . S
C769 H775 0.959 . S
C769 H776 0.961 . S
C769 H777 0.960 . S
C770 C768 1.381 . S
C770 C771 1.394 . S
C770 H778 0.930 . S
C771 C770 1.394 . S
C771 C772 1.383 . S
C771 H779 0.929 . S
C772 C771 1.383 . S
C772 C773 1.377 . S
C773 H757 0.930 . S
C773 C772 1.377 . S
C773 C774 1.379 . S
C774 H758 0.931 . S
C774 C768 1.383 . S
C774 C773 1.379 . S
H775 C769 0.959 . S
H776 C769 0.961 . S
H777 C769 0.960 . S
H778 C770 0.930 . S
H779 C771 0.929 . S
H780 C788 0.929 . S
H781 C790 0.930 . S
H782 C792 0.930 . S
H783 C795 0.929 . S
H784 C798 0.930 . S
H785 C800 0.960 . S
H786 C800 0.960 . S
H787 C800 0.960 . S
C788 H780 0.929 . S
C788 C789 1.377 . S
C788 C790 1.384 . S
C789 C788 1.377 . S
C789 C795 1.390 . S
C790 H781 0.930 . S
C790 C788 1.384 . S
C790 C791 1.372 . S
C791 C790 1.372 . S
C791 C792 1.400 . S
C791 C796 1.490 . S
C792 H782 0.930 . S
C792 C791 1.400 . S
C792 C795 1.386 . S
H793 C809 0.930 . S
H794 C810 0.931 . S
C795 H783 0.929 . S
C795 C789 1.390 . S
C795 C792 1.386 . S
C796 C791 1.490 . S
C796 C798 1.395 . S
C796 C799 1.403 . S
H797 C803 0.930 . S
C798 H784 0.930 . S
C798 C796 1.395 . S
C798 C801 1.403 . S
C799 C796 1.403 . S
C799 C800 1.524 . S
C799 C803 1.400 . S
C800 H785 0.960 . S
C800 H786 0.960 . S
C800 H787 0.960 . S
C800 C799 1.524 . S
C801 C798 1.403 . S
C801 C802 1.392 . S
C801 C805 1.495 . S
C802 C801 1.392 . S
C802 C803 1.385 . S
C802 C804 1.478 . S
C803 H797 0.930 . S
C803 C799 1.400 . S
C803 C802 1.385 . S
C804 C802 1.478 . S
C804 C806 1.381 . S
C804 C810 1.383 . S
C805 C801 1.495 . S
C805 H811 0.959 . S
C805 H812 0.961 . S
C805 H813 0.960 . S
C806 C804 1.381 . S
C806 C807 1.394 . S
C806 H814 0.930 . S
C807 C806 1.394 . S
C807 C808 1.383 . S
C807 H815 0.929 . S
C808 C807 1.383 . S
C808 C809 1.377 . S
C809 H793 0.930 . S
C809 C808 1.377 . S
C809 C810 1.379 . S
C810 H794 0.931 . S
C810 C804 1.383 . S
C810 C809 1.379 . S
H811 C805 0.959 . S
H812 C805 0.961 . S
H813 C805 0.960 . S
H814 C806 0.930 . S
H815 C807 0.929 . S
H816 C824 0.929 . S
H817 C826 0.930 . S
H818 C828 0.930 . S
H819 C831 0.929 . S
H820 C834 0.930 . S
H821 C836 0.960 . S
H822 C836 0.960 . S
H823 C836 0.960 . S
C824 H816 0.929 . S
C824 C825 1.377 1_655 S
C824 C826 1.384 . S
C825 C824 1.377 1_455 S
C825 C831 1.390 . S
C826 H817 0.930 . S
C826 C824 1.384 . S
C826 C827 1.372 . S
C827 C826 1.372 . S
C827 C828 1.400 1_655 S
C827 C832 1.490 . S
C828 H818 0.930 . S
C828 C827 1.400 1_455 S
C828 C831 1.386 . S
H829 C845 0.930 . S
H830 C846 0.931 . S
C831 H819 0.929 . S
C831 C825 1.390 . S
C831 C828 1.386 . S
C832 C827 1.490 . S
C832 C834 1.395 . S
C832 C835 1.403 . S
H833 C839 0.930 . S
C834 H820 0.930 . S
C834 C832 1.395 . S
C834 C837 1.403 . S
C835 C832 1.403 . S
C835 C836 1.524 . S
C835 C839 1.400 . S
C836 H821 0.960 . S
C836 H822 0.960 . S
C836 H823 0.960 . S
C836 C835 1.524 . S
C837 C834 1.403 . S
C837 C838 1.392 . S
C837 C841 1.495 . S
C838 C837 1.392 . S
C838 C839 1.385 . S
C838 C840 1.478 . S
C839 H833 0.930 . S
C839 C835 1.400 . S
C839 C838 1.385 . S
C840 C838 1.478 . S
C840 C842 1.381 . S
C840 C846 1.383 . S
C841 C837 1.495 . S
C841 H847 0.959 . S
C841 H848 0.961 . S
C841 H849 0.960 . S
C842 C840 1.381 . S
C842 C843 1.394 . S
C842 H850 0.930 . S
C843 C842 1.394 . S
C843 C844 1.383 . S
C843 H851 0.929 . S
C844 C843 1.383 . S
C844 C845 1.377 . S
C845 H829 0.930 . S
C845 C844 1.377 . S
C845 C846 1.379 . S
C846 H830 0.931 . S
C846 C840 1.383 . S
C846 C845 1.379 . S
H847 C841 0.959 . S
H848 C841 0.961 . S
H849 C841 0.960 . S
H850 C842 0.930 . S
H851 C843 0.929 . S
H852 C860 0.929 . S
H853 C862 0.930 . S
H854 C864 0.930 . S
H855 C867 0.929 . S
H856 C870 0.930 . S
H857 C872 0.960 . S
H858 C872 0.960 . S
H859 C872 0.960 . S
C860 H852 0.929 . S
C860 C861 1.377 . S
C860 C862 1.384 . S
C861 C860 1.377 . S
C861 C867 1.390 1_545 S
C862 H853 0.930 . S
C862 C860 1.384 . S
C862 C863 1.372 1_545 S
C863 C862 1.372 1_565 S
C863 C864 1.400 . S
C863 C868 1.490 . S
C864 H854 0.930 . S
C864 C863 1.400 . S
C864 C867 1.386 . S
H865 C881 0.930 . S
H866 C882 0.931 . S
C867 H855 0.929 . S
C867 C861 1.390 1_565 S
C867 C864 1.386 . S
C868 C863 1.490 . S
C868 C870 1.395 . S
C868 C871 1.403 . S
H869 C875 0.930 . S
C870 H856 0.930 . S
C870 C868 1.395 . S
C870 C873 1.403 . S
C871 C868 1.403 . S
C871 C872 1.524 . S
C871 C875 1.400 . S
C872 H857 0.960 . S
C872 H858 0.960 . S
C872 H859 0.960 . S
C872 C871 1.524 . S
C873 C870 1.403 . S
C873 C874 1.392 . S
C873 C877 1.495 . S
C874 C873 1.392 . S
C874 C875 1.385 . S
C874 C876 1.478 . S
C875 H869 0.930 . S
C875 C871 1.400 . S
C875 C874 1.385 . S
C876 C874 1.478 . S
C876 C878 1.381 . S
C876 C882 1.383 . S
C877 C873 1.495 . S
C877 H883 0.959 . S
C877 H884 0.961 . S
C877 H885 0.960 . S
C878 C876 1.381 . S
C878 C879 1.394 . S
C878 H886 0.930 . S
C879 C878 1.394 . S
C879 C880 1.383 . S
C879 H887 0.929 . S
C880 C879 1.383 . S
C880 C881 1.377 . S
C881 H865 0.930 . S
C881 C880 1.377 . S
C881 C882 1.379 . S
C882 H866 0.931 . S
C882 C876 1.383 . S
C882 C881 1.379 . S
H883 C877 0.959 . S
H884 C877 0.961 . S
H885 C877 0.960 . S
H886 C878 0.930 . S
H887 C879 0.929 . S
C249 C169 1.099 . S
C268 C15 1.105 . S
C285 C209 1.096 . S
C304 C55 1.090 . S
C321 C9 1.097 . S
C340 C95 1.090 . S
C357 C49 1.100 . S
C376 C135 1.098 . S
C393 C89 1.100 . S
C412 C175 1.102 . S
C429 C129 1.097 . S
C448 C215 1.098 . S
C465 C18 0.657 . S
C484 C138 0.746 . S
C501 C178 0.658 . S
C520 C58 0.577 . S
C537 C218 0.666 . S
C556 C98 0.610 . S
C573 C88 0.631 . S
C592 C208 0.637 . S
C609 C8 0.632 . S
C628 C128 0.640 . S
C645 C168 0.630 . S
C664 C48 0.625 . S
C681 C219 1.102 . S
C700 C5 1.092 . S
C717 C45 1.090 . S
C736 C19 1.096 . S
C753 C85 1.085 . S
C772 C59 1.099 . S
C789 C99 1.100 . S
C808 C125 1.063 . S
C825 C165 1.087 . S
C844 C139 1.101 . S
C861 C205 1.089 . S
C880 C179 1.096 . S
