# Generated by pormake.
# Topology wli, (5)-cn, num edge types: 1
# Building blocks:
#     Node 0, Type 0, BuildingBlock: XOMCOT_clean_sbu_0, # of connection points: 5
#     Node 1, Type 0, BuildingBlock: XOMCOT_clean_sbu_0, # of connection points: 5
#     Node 2, Type 0, BuildingBlock: XOMCOT_clean_sbu_0, # of connection points: 5
#     Node 3, Type 0, BuildingBlock: XOMCOT_clean_sbu_0, # of connection points: 5
#     Node 4, Type 0, BuildingBlock: XOMCOT_clean_sbu_0, # of connection points: 5
#     Node 5, Type 0, BuildingBlock: XOMCOT_clean_sbu_0, # of connection points: 5
#     Edge 6, Type (0, 0), BuildingBlock: FUNLAD_clean_linker_0, # of connection points: 2
#     Edge 7, Type (0, 0), BuildingBlock: FUNLAD_clean_linker_0, # of connection points: 2
#     Edge 8, Type (0, 0), BuildingBlock: FUNLAD_clean_linker_0, # of connection points: 2
#     Edge 9, Type (0, 0), BuildingBlock: FUNLAD_clean_linker_0, # of connection points: 2
#     Edge 10, Type (0, 0), BuildingBlock: FUNLAD_clean_linker_0, # of connection points: 2
#     Edge 11, Type (0, 0), BuildingBlock: FUNLAD_clean_linker_0, # of connection points: 2
#     Edge 12, Type (0, 0), BuildingBlock: FUNLAD_clean_linker_0, # of connection points: 2
#     Edge 13, Type (0, 0), BuildingBlock: FUNLAD_clean_linker_0, # of connection points: 2
#     Edge 14, Type (0, 0), BuildingBlock: FUNLAD_clean_linker_0, # of connection points: 2
#     Edge 15, Type (0, 0), BuildingBlock: FUNLAD_clean_linker_0, # of connection points: 2
#     Edge 16, Type (0, 0), BuildingBlock: FUNLAD_clean_linker_0, # of connection points: 2
#     Edge 17, Type (0, 0), BuildingBlock: FUNLAD_clean_linker_0, # of connection points: 2
#     Edge 18, Type (0, 0), BuildingBlock: FUNLAD_clean_linker_0, # of connection points: 2
#     Edge 19, Type (0, 0), BuildingBlock: FUNLAD_clean_linker_0, # of connection points: 2
#     Edge 20, Type (0, 0), BuildingBlock: FUNLAD_clean_linker_0, # of connection points: 2
# Relax obj value: 0.130
# Max RMSD: 0.157
# Mean RMSD: 0.157
data_MOF--net-wli--node1-XOMCOT_clean_sbu_0--edge1-FUNLAD_clean_linker_0
_symmetry_space_group_name_H-M    P1
_symmetry_Int_Tables_number       1
_symmetry_cell_setting            triclinic
loop_
_symmetry_equiv_pos_as_xyz
'x, y, z'
_cell_length_a     42.239336
_cell_length_b     42.2757
_cell_length_c     30.221352
_cell_angle_alpha  90.006612
_cell_angle_beta   90.155356
_cell_angle_gamma 120.00562
loop_
_atom_site_label
_atom_site_type_symbol
_atom_site_fract_x
_atom_site_fract_y
_atom_site_fract_z
_atom_type_partial_charge
Co0 Co 0.20389 0.43217 0.11097 0.0
C1 C 0.14722 0.38558 0.17687 0.0
C2 C 0.19523 0.38108 0.18287 0.0
C3 C 0.17152 0.36112 0.21624 0.0
N4 N 0.17955 0.39548 0.15702 0.0
N5 N 0.14123 0.36401 0.21258 0.0
H6 H 0.12983 0.39645 0.16791 0.0
H7 H 0.22282 0.38612 0.17928 0.0
C8 C 0.22821 0.37862 0.09076 0.0
O9 O 0.19361 0.35326 0.09402 0.0
N10 N 0.22847 0.4696 0.06682 0.0
C11 C 0.21229 0.48142 0.038 0.0
C12 C 0.23883 0.5084 0.01224 0.0
C13 C 0.26467 0.48995 0.05895 0.0
N14 N 0.27169 0.51377 0.02548 0.0
C15 C 0.13301 0.38976 0.06903 0.0
C16 C 0.15883 0.37587 0.99177 0.0
C17 C 0.12127 0.363 0.99558 0.0
C18 C 0.10847 0.37022 0.03493 0.0
C19 C 0.18237 0.39551 0.02642 0.0
N20 N 0.16936 0.4012 0.06526 0.0
H21 H 0.12284 0.3972 0.09733 0.0
H22 H 0.21138 0.407 0.02142 0.0
H23 H 0.18317 0.4711 0.03592 0.0
H24 H 0.28531 0.48718 0.07704 0.0
O25 O 0.17887 0.45723 0.131 0.0
O26 O 0.23232 0.46714 0.15666 0.0
O27 O 0.23774 0.41218 0.09749 0.0
C28 C 0.20626 0.47513 0.15792 0.0
H29 H 0.17693 0.34663 0.24193 0.0
H30 H 0.23439 0.52341 0.98628 0.0
H31 H 0.1702 0.37133 0.96199 0.0
H32 H 0.07994 0.36222 0.03874 0.0
Co33 Co 0.58701 0.77587 0.77189 0.0
C34 C 0.63772 0.77046 0.83682 0.0
C35 C 0.63547 0.81955 0.84496 0.0
C36 C 0.65714 0.81799 0.87798 0.0
N37 N 0.62416 0.79033 0.81807 0.0
N38 N 0.65849 0.78702 0.87291 0.0
H39 H 0.63101 0.74353 0.82613 0.0
H40 H 0.62714 0.83984 0.84214 0.0
C41 C 0.63859 0.85391 0.75177 0.0
O42 O 0.66444 0.84543 0.7561 0.0
N43 N 0.54908 0.76057 0.72751 0.0
C44 C 0.53638 0.72991 0.70321 0.0
C45 C 0.50847 0.72661 0.67679 0.0
C46 C 0.52857 0.77556 0.7158 0.0
N47 N 0.50347 0.75531 0.68444 0.0
C48 C 0.62949 0.74803 0.72932 0.0
C49 C 0.64082 0.78661 0.65154 0.0
C50 C 0.65313 0.76149 0.65453 0.0
C51 C 0.64754 0.74226 0.69422 0.0
C52 C 0.62294 0.79149 0.68729 0.0
N53 N 0.61833 0.77319 0.72626 0.0
H54 H 0.62236 0.73034 0.75751 0.0
H55 H 0.61127 0.80888 0.68266 0.0
H56 H 0.54645 0.71092 0.70512 0.0
H57 H 0.53194 0.80057 0.72998 0.0
O58 O 0.56389 0.72617 0.79271 0.0
O59 O 0.55166 0.76829 0.81744 0.0
O60 O 0.60509 0.82926 0.75754 0.0
C61 C 0.54481 0.73461 0.81882 0.0
H62 H 0.66927 0.83721 0.90502 0.0
H63 H 0.49245 0.70409 0.65454 0.0
H64 H 0.64406 0.80173 0.62135 0.0
H65 H 0.65521 0.72144 0.69733 0.0
Co66 Co 0.24393 0.81843 0.44231 0.0
C67 C 0.25027 0.87597 0.50526 0.0
C68 C 0.19952 0.82602 0.51209 0.0
C69 C 0.20144 0.84996 0.54432 0.0
N70 N 0.22967 0.84264 0.48654 0.0
N71 N 0.23345 0.88145 0.53999 0.0
H72 H 0.2782 0.89479 0.49648 0.0
H73 H 0.17808 0.79786 0.50857 0.0
C74 C 0.16926 0.79964 0.41537 0.0
O75 O 0.18112 0.83449 0.42248 0.0
N76 N 0.25922 0.79437 0.40007 0.0
C77 C 0.29184 0.81096 0.37962 0.0
C78 C 0.29403 0.7863 0.35227 0.0
C79 C 0.24188 0.75955 0.38507 0.0
N80 N 0.26264 0.75396 0.35537 0.0
C81 C 0.2788 0.88985 0.40017 0.0
C82 C 0.24369 0.86456 0.31976 0.0
C83 C 0.27041 0.90136 0.32371 0.0
C84 C 0.28784 0.91415 0.36467 0.0
C85 C 0.23545 0.84141 0.35587 0.0
N86 N 0.25202 0.85412 0.39609 0.0
H87 H 0.29522 0.8994 0.42961 0.0
H88 H 0.21687 0.81265 0.35056 0.0
H89 H 0.31271 0.83919 0.38441 0.0
H90 H 0.21474 0.73903 0.39533 0.0
O91 O 0.29224 0.84166 0.46793 0.0
O92 O 0.24612 0.78815 0.48905 0.0
O93 O 0.1907 0.78689 0.42288 0.0
C94 C 0.28025 0.81348 0.49386 0.0
H95 H 0.18112 0.84422 0.56951 0.0
H96 H 0.31743 0.79176 0.33227 0.0
H97 H 0.23001 0.85339 0.28849 0.0
H98 H 0.30973 0.94214 0.3685 0.0
Co99 Co 0.4342 0.20149 0.89935 0.0
C100 C 0.38216 0.14643 0.83787 0.0
C101 C 0.38218 0.19694 0.83046 0.0
C102 C 0.35908 0.17247 0.79901 0.0
N103 N 0.39652 0.18043 0.85466 0.0
N104 N 0.35918 0.14072 0.80373 0.0
H105 H 0.38975 0.12686 0.84926 0.0
H106 H 0.38884 0.22503 0.83451 0.0
C107 C 0.41121 0.242 0.96098 0.0
O108 O 0.42227 0.22974 0.99408 0.0
N109 N 0.47322 0.22245 0.94347 0.0
C110 C 0.48998 0.20571 0.96214 0.0
C111 C 0.51866 0.2303 0.98752 0.0
C112 C 0.49338 0.2578 0.95648 0.0
N113 N 0.52076 0.26309 0.98445 0.0
C114 C 0.41095 0.1349 0.94795 0.0
C115 C 0.35012 0.13163 0.98622 0.0
C116 C 0.36156 0.10748 1.00077 0.0
C117 C 0.39147 0.10826 0.97972 0.0
C118 C 0.37036 0.15765 0.95404 0.0
N119 N 0.40244 0.16135 0.93858 0.0
H120 H 0.43303 0.13423 0.9311 0.0
H121 H 0.36021 0.17495 0.94204 0.0
H122 H 0.48382 0.17817 0.95598 0.0
H123 H 0.48815 0.27911 0.94551 0.0
O124 O 0.45958 0.17986 0.87039 0.0
O125 O 0.46803 0.23498 0.8562 0.0
O126 O 0.41357 0.23296 0.92117 0.0
C127 C 0.47679 0.21008 0.84803 0.0
H128 H 0.3438 0.17786 0.77431 0.0
H129 H 0.53754 0.22462 1.00525 0.0
H130 H 0.32587 0.13055 0.99971 0.0
H131 H 0.40053 0.08924 0.9886 0.0
Co132 Co 0.81991 0.23963 0.56822 0.0
C133 C 0.8766 0.24592 0.5067 0.0
C134 C 0.83012 0.19168 0.50596 0.0
C135 C 0.8554 0.1933 0.47591 0.0
N136 N 0.84359 0.22466 0.5253 0.0
N137 N 0.88448 0.22748 0.4763 0.0
H138 H 0.89442 0.27437 0.51513 0.0
H139 H 0.8035 0.16832 0.5124 0.0
C140 C 0.77688 0.17472 0.62691 0.0
O141 O 0.78668 0.1974 0.66057 0.0
N142 N 0.79563 0.25508 0.61046 0.0
C143 C 0.81024 0.28457 0.63731 0.0
C144 C 0.78257 0.28595 0.65936 0.0
C145 C 0.75908 0.23962 0.61575 0.0
N146 N 0.75037 0.25763 0.6459 0.0
C147 C 0.88497 0.28368 0.61872 0.0
C148 C 0.89039 0.22759 0.65793 0.0
C149 C 0.91546 0.26371 0.6699 0.0
C150 C 0.91299 0.29194 0.64898 0.0
C151 C 0.86286 0.22058 0.62704 0.0
N152 N 0.85876 0.24839 0.61024 0.0
H153 H 0.88439 0.30604 0.60238 0.0
H154 H 0.84539 0.19277 0.61638 0.0
H155 H 0.83876 0.3045 0.64061 0.0
H156 H 0.73934 0.21576 0.59757 0.0
O157 O 0.84203 0.28731 0.54141 0.0
O158 O 0.78832 0.24073 0.52199 0.0
O159 O 0.78832 0.18693 0.58791 0.0
C160 C 0.81328 0.27481 0.51629 0.0
H161 H 0.85212 0.17139 0.45438 0.0
H162 H 0.78606 0.30615 0.68382 0.0
H163 H 0.89237 0.20501 0.67178 0.0
H164 H 0.93216 0.32031 0.65646 0.0
Co165 Co 0.78176 0.58326 0.232 0.0
C166 C 0.77122 0.62998 0.16654 0.0
C167 C 0.82285 0.63284 0.15848 0.0
C168 C 0.81838 0.65207 0.1246 0.0
N169 N 0.79378 0.61987 0.18582 0.0
N170 N 0.78574 0.65008 0.12959 0.0
H171 H 0.74369 0.62079 0.17725 0.0
H172 H 0.8449 0.62695 0.16134 0.0
C173 C 0.85921 0.63795 0.25154 0.0
O174 O 0.84909 0.66247 0.246 0.0
N175 N 0.76888 0.54585 0.27624 0.0
C176 C 0.74007 0.53358 0.30377 0.0
C177 C 0.7404 0.50812 0.3317 0.0
C178 C 0.786 0.52717 0.28701 0.0
N179 N 0.76914 0.50408 0.32106 0.0
C180 C 0.75117 0.62337 0.27464 0.0
C181 C 0.79115 0.63744 0.35198 0.0
C182 C 0.76486 0.64826 0.34898 0.0
C183 C 0.74489 0.64126 0.30954 0.0
C184 C 0.79654 0.61971 0.31643 0.0
N185 N 0.77748 0.6137 0.27767 0.0
H186 H 0.73316 0.61531 0.24658 0.0
H187 H 0.81501 0.6093 0.32105 0.0
H188 H 0.72051 0.54299 0.30393 0.0
H189 H 0.81061 0.53099 0.27113 0.0
O190 O 0.73186 0.55775 0.21111 0.0
O191 O 0.77613 0.5487 0.18641 0.0
O192 O 0.83569 0.60402 0.24639 0.0
C193 C 0.74199 0.54037 0.18436 0.0
H194 H 0.83666 0.66446 0.09689 0.0
H195 H 0.72102 0.4936 0.35784 0.0
H196 H 0.8069 0.64182 0.38199 0.0
H197 H 0.72325 0.64781 0.30646 0.0
C198 C 0.22966 0.68615 0.34882 0.0
C199 C 0.25446 0.7209 0.33188 0.0
C200 C 0.22449 0.65439 0.32739 0.0
C201 C 0.24408 0.65691 0.28863 0.0
C202 C 0.26803 0.69154 0.27131 0.0
C203 C 0.27288 0.72302 0.2923 0.0
C204 C 0.24203 0.62459 0.26628 0.0
C205 C 0.2125 0.59083 0.26692 0.0
C206 C 0.21108 0.56017 0.24107 0.0
C207 C 0.17798 0.53425 0.22151 0.0
C208 C 0.17638 0.50646 0.19478 0.0
C209 C 0.20773 0.50356 0.18782 0.0
H210 H 0.26801 0.57562 0.25068 0.0
C211 C 0.24054 0.52858 0.20884 0.0
C212 C 0.24226 0.55669 0.23508 0.0
H213 H 0.26509 0.52689 0.20434 0.0
H214 H 0.21523 0.68348 0.37937 0.0
H215 H 0.2062 0.62813 0.34209 0.0
H216 H 0.28329 0.69432 0.24137 0.0
H217 H 0.29146 0.74912 0.27749 0.0
H218 H 0.26522 0.62951 0.24588 0.0
H219 H 0.18777 0.58623 0.28349 0.0
H220 H 0.1535 0.5361 0.22592 0.0
H221 H 0.15058 0.48734 0.17937 0.0
C222 C 0.49741 0.71579 0.87851 0.0
C223 C 0.51509 0.70639 0.84613 0.0
C224 C 0.46761 0.68852 0.90189 0.0
C225 C 0.45478 0.65137 0.89285 0.0
C226 C 0.47281 0.64213 0.8609 0.0
C227 C 0.50284 0.66928 0.83814 0.0
C228 C 0.42092 0.62167 0.91311 0.0
C229 C 0.4093 0.62344 0.954 0.0
C230 C 0.37412 0.59389 0.97193 0.0
C231 C 0.37076 0.58592 0.01738 0.0
C232 C 0.33744 0.55884 0.03491 0.0
C233 C 0.30665 0.53995 0.00742 0.0
H234 H 0.34469 0.58064 0.90943 0.0
C235 C 0.31002 0.54807 0.96203 0.0
C236 C 0.34336 0.57461 0.94442 0.0
H237 H 0.28675 0.53385 0.94009 0.0
H238 H 0.50618 0.74417 0.88526 0.0
H239 H 0.45384 0.69659 0.92567 0.0
H240 H 0.46332 0.61375 0.85308 0.0
H241 H 0.51574 0.66109 0.81324 0.0
H242 H 0.40543 0.59685 0.89376 0.0
H243 H 0.42638 0.64647 0.97537 0.0
H244 H 0.39397 0.60063 0.03932 0.0
H245 H 0.33544 0.55339 0.07009 0.0
C246 C 0.29621 0.77631 0.54424 0.0
C247 C 0.305 0.81025 0.5259 0.0
C248 C 0.32135 0.77305 0.5714 0.0
C249 C 0.35563 0.80379 0.58099 0.0
C250 C 0.36355 0.83795 0.56442 0.0
C251 C 0.33869 0.84111 0.53678 0.0
C252 C 0.38403 0.80098 0.60707 0.0
C253 C 0.38871 0.77182 0.60392 0.0
C254 C 0.41946 0.76972 0.625 0.0
C255 C 0.43154 0.74781 0.60488 0.0
C256 C 0.45965 0.74405 0.62371 0.0
C257 C 0.47608 0.76152 0.66387 0.0
H258 H 0.42712 0.80455 0.68158 0.0
C259 C 0.46423 0.78385 0.68395 0.0
C260 C 0.43622 0.78795 0.66469 0.0
H261 H 0.47587 0.79741 0.71505 0.0
H262 H 0.27036 0.7521 0.53662 0.0
H263 H 0.31398 0.74645 0.58463 0.0
H264 H 0.38958 0.8621 0.57162 0.0
H265 H 0.3461 0.86772 0.52347 0.0
H266 H 0.40373 0.82491 0.62545 0.0
H267 H 0.37102 0.74959 0.58184 0.0
H268 H 0.41929 0.73361 0.5742 0.0
H269 H 0.4684 0.72732 0.60654 0.0
C270 C 0.51808 0.19098 0.81265 0.0
C271 C 0.5061 0.21644 0.81654 0.0
C272 C 0.54746 0.198 0.78516 0.0
C273 C 0.56532 0.23059 0.76048 0.0
C274 C 0.55273 0.25563 0.76387 0.0
C275 C 0.52349 0.24868 0.79155 0.0
C276 C 0.59858 0.24087 0.73346 0.0
C277 C 0.61043 0.21767 0.72209 0.0
C278 C 0.64588 0.22927 0.69939 0.0
C279 C 0.6518 0.20252 0.67977 0.0
C280 C 0.68567 0.21185 0.66115 0.0
C281 C 0.71456 0.24821 0.66196 0.0
H282 H 0.672 0.28727 0.71523 0.0
C283 C 0.70843 0.27507 0.68082 0.0
C284 C 0.67469 0.26577 0.69954 0.0
H285 H 0.72988 0.30339 0.68166 0.0
H286 H 0.50537 0.16597 0.83175 0.0
H287 H 0.55653 0.17822 0.78472 0.0
H288 H 0.56599 0.28105 0.74556 0.0
H289 H 0.5149 0.26885 0.79385 0.0
H290 H 0.61386 0.26908 0.72267 0.0
H291 H 0.59374 0.18882 0.72948 0.0
H292 H 0.63032 0.17414 0.67951 0.0
H293 H 0.68954 0.19038 0.64744 0.0
C294 C 0.78936 0.45839 0.31947 0.0
C295 C 0.77981 0.48085 0.34339 0.0
C296 C 0.79693 0.43378 0.3417 0.0
C297 C 0.79578 0.43194 0.38823 0.0
C298 C 0.78748 0.45538 0.41195 0.0
C299 C 0.77907 0.47919 0.38977 0.0
C300 C 0.80405 0.40679 0.41335 0.0
C301 C 0.79419 0.37272 0.39973 0.0
C302 C 0.80028 0.34733 0.42776 0.0
C303 C 0.77451 0.30979 0.42765 0.0
C304 C 0.77871 0.28587 0.456 0.0
C305 C 0.80913 0.29906 0.48439 0.0
H306 H 0.85223 0.38877 0.4551 0.0
C307 C 0.83561 0.33637 0.48308 0.0
C308 C 0.83126 0.36021 0.45515 0.0
H309 H 0.85959 0.3474 0.50417 0.0
H310 H 0.79 0.45925 0.28366 0.0
H311 H 0.80402 0.41656 0.32258 0.0
H312 H 0.78678 0.45475 0.44779 0.0
H313 H 0.77205 0.4965 0.40883 0.0
H314 H 0.81593 0.41565 0.44611 0.0
H315 H 0.77877 0.36228 0.36917 0.0
H316 H 0.75057 0.29914 0.40653 0.0
H317 H 0.75798 0.25722 0.45606 0.0
C318 C 0.55624 0.33096 0.99015 0.0
C319 C 0.54748 0.29629 0.0063 0.0
C320 C 0.58349 0.36282 0.01074 0.0
C321 C 0.60249 0.3605 0.04784 0.0
C322 C 0.59341 0.32598 0.0641 0.0
C323 C 0.56609 0.29438 0.044 0.0
C324 C 0.63275 0.39305 0.06987 0.0
C325 C 0.63524 0.42604 0.07136 0.0
C326 C 0.6639 0.45662 0.09794 0.0
C327 C 0.6554 0.48094 0.11914 0.0
C328 C 0.68091 0.50835 0.14694 0.0
C329 C 0.71571 0.51238 0.15346 0.0
H330 H 0.70701 0.4438 0.08642 0.0
C331 C 0.72482 0.48906 0.13077 0.0
C332 C 0.69916 0.4614 0.10333 0.0
H333 H 0.75154 0.49174 0.13478 0.0
H334 H 0.54276 0.33356 0.96103 0.0
H335 H 0.59027 0.38904 0.99683 0.0
H336 H 0.60743 0.32337 0.09275 0.0
H337 H 0.55964 0.26839 0.05826 0.0
H338 H 0.6522 0.38872 0.08872 0.0
H339 H 0.61391 0.42976 0.05641 0.0
H340 H 0.62858 0.47808 0.11522 0.0
H341 H 0.67323 0.52621 0.16358 0.0
C342 C 0.93479 0.25301 0.74443 0.0
C343 C 0.94381 0.27231 0.7043 0.0
C344 C 0.96041 0.26389 0.77885 0.0
C345 C 0.9958 0.29424 0.77361 0.0
C346 C 1.00505 0.31252 0.73277 0.0
C347 C 0.97946 0.30171 0.69855 0.0
C348 C 0.02326 0.30949 0.81011 0.0
C349 C 0.0206 0.29277 0.84909 0.0
C350 C 0.04746 0.31032 0.88584 0.0
C351 C 0.03642 0.29834 0.92939 0.0
C352 C 0.06035 0.3151 0.96498 0.0
C353 C 0.09604 0.34415 0.95779 0.0
H354 H 0.0938 0.34798 0.84557 0.0
C355 C 0.10736 0.35551 0.91408 0.0
C356 C 0.08355 0.33866 0.87856 0.0
H357 H 0.13452 0.37795 0.90718 0.0
H358 H 0.90739 0.23046 0.74997 0.0
H359 H 0.95166 0.24916 0.80971 0.0
H360 H 0.03206 0.33584 0.72754 0.0
H361 H 0.98743 0.31682 0.66777 0.0
H362 H 0.04631 0.33665 0.80463 0.0
H363 H 0.99735 0.26597 0.85553 0.0
H364 H 1.00897 0.27628 0.93602 0.0
H365 H 0.0509 0.3052 0.99812 0.0
C366 C 0.75001 0.69357 0.38297 0.0
C367 C 0.75654 0.66427 0.38791 0.0
C368 C 0.74145 0.708 0.4197 0.0
C369 C 0.73881 0.69306 0.46215 0.0
C370 C 0.74598 0.66423 0.46703 0.0
C371 C 0.7546 0.6499 0.43041 0.0
C372 C 0.72873 0.70655 0.50216 0.0
C373 C 0.71008 0.7247 0.50068 0.0
C374 C 0.69707 0.73519 0.54077 0.0
C375 C 0.66752 0.74136 0.53637 0.0
C376 C 0.65353 0.75016 0.57316 0.0
C377 C 0.66898 0.75332 0.61534 0.0
H378 H 0.73674 0.7359 0.58753 0.0
C379 C 0.69906 0.7479 0.61974 0.0
C380 C 0.71313 0.73915 0.58284 0.0
H381 H 0.71192 0.75076 0.65169 0.0
H382 H 0.75192 0.7056 0.35075 0.0
H383 H 0.73738 0.73103 0.41458 0.0
H384 H 0.7443 0.65225 0.49926 0.0
H385 H 0.75902 0.62702 0.43531 0.0
H386 H 0.73463 0.69871 0.53398 0.0
H387 H 0.70141 0.72976 0.46892 0.0
H388 H 0.65469 0.73868 0.50442 0.0
H389 H 0.63003 0.75368 0.56866 0.0
C390 C 0.3373 0.04674 0.0382 0.0
C391 C 0.34352 0.08263 0.03867 0.0
C392 C 0.32391 0.0247 0.07572 0.0
C393 C 0.31684 0.03827 0.11478 0.0
C394 C 0.3213 0.07346 0.11446 0.0
C395 C 0.33462 0.09549 0.07688 0.0
C396 C 0.30506 0.01665 0.15635 0.0
C397 C 0.31345 0.99057 0.16592 0.0
C398 C 0.30225 0.9687 0.2072 0.0
C399 C 0.29878 0.93395 0.20635 0.0
C400 C 0.28854 0.9123 0.24422 0.0
C401 C 0.28197 0.9251 0.28408 0.0
H402 H 0.29975 0.009 0.24956 0.0
C403 C 0.28632 0.96026 0.28546 0.0
C404 C 0.29625 0.98189 0.24729 0.0
H405 H 0.28159 0.97081 0.31587 0.0
H406 H 0.34304 0.03575 0.00888 0.0
H407 H 0.31921 0.99713 0.07382 0.0
H408 H 0.3156 0.08442 0.14386 0.0
H409 H 0.33927 0.1231 0.07835 0.0
H410 H 0.29004 0.0233 0.18014 0.0
H411 H 0.32873 0.9842 0.14225 0.0
H412 H 0.30371 0.92333 0.17611 0.0
H413 H 0.28606 0.88555 0.24239 0.0
C414 C 0.39424 0.27735 0.01293 0.0
C415 C 0.39218 0.26272 0.97051 0.0
C416 C 0.37412 0.29449 0.0232 0.0
C417 C 0.3513 0.29722 0.99127 0.0
C418 C 0.34973 0.28311 0.9487 0.0
C419 C 0.37018 0.26636 0.93826 0.0
C420 C 0.32644 0.31155 1.00232 0.0
C421 C 0.33293 0.33588 0.03496 0.0
C422 C 0.30594 0.34707 0.04795 0.0
C423 C 0.31814 0.38208 0.06561 0.0
C424 C 0.29308 0.39268 0.07925 0.0
C425 C 0.25526 0.36811 0.07642 0.0
H426 H 0.25763 0.29499 0.03301 0.0
C427 C 0.24315 0.33293 0.0593 0.0
C428 C 0.26811 0.32256 0.04516 0.0
H429 H 0.21424 0.31325 0.05666 0.0
H430 H 0.4109 0.27498 0.03856 0.0
H431 H 0.37544 0.30419 0.05666 0.0
H432 H 0.33216 0.28456 0.92356 0.0
H433 H 0.36781 0.25523 0.90535 0.0
H434 H 0.30187 0.30176 0.98232 0.0
H435 H 0.35901 0.3486 0.05224 0.0
H436 H 0.34714 0.40135 0.0686 0.0
H437 H 0.3033 0.41993 0.0924 0.0
C438 C 0.7388 0.12134 0.67634 0.0
C439 C 0.75589 0.13479 0.63527 0.0
C440 C 0.7213 0.08393 0.68575 0.0
C441 C 0.72062 0.05906 0.65427 0.0
C442 C 0.73713 0.07246 0.61296 0.0
C443 C 0.75428 0.10983 0.60338 0.0
C444 C 0.70607 0.01974 0.66478 0.0
C445 C 0.68046 1.00115 0.69582 0.0
C446 C 0.66941 0.96297 0.70871 0.0
C447 C 0.6339 0.93946 0.72449 0.0
C448 C 0.62348 0.90382 0.73814 0.0
C449 C 0.6487 0.89133 0.73718 0.0
H450 H 0.72246 0.96798 0.6972 0.0
C451 C 0.68432 0.91509 0.72189 0.0
C452 C 0.69454 0.95037 0.70779 0.0
H453 H 0.70453 0.90649 0.72074 0.0
H454 H 0.73952 0.13982 0.70167 0.0
H455 H 0.70969 0.07489 0.71832 0.0
H456 H 0.73729 0.054 0.5882 0.0
H457 H 0.76728 0.11922 0.57149 0.0
H458 H 0.71697 1.00552 0.64579 0.0
H459 H 0.66673 0.01391 0.71195 0.0
H460 H 0.61412 0.94861 0.72605 0.0
H461 H 0.59587 0.88625 0.74986 0.0
C462 C 0.11578 0.7395 0.38873 0.0
C463 C 0.13363 0.77784 0.39229 0.0
C464 C 0.08237 0.72027 0.36561 0.0
C465 C 0.06684 0.73929 0.34506 0.0
C466 C 0.085 0.77744 0.34849 0.0
C467 C 0.11759 0.79637 0.37203 0.0
C468 C 0.03238 0.72147 0.31878 0.0
C469 C 1.00366 0.68787 0.32639 0.0
C470 C 0.96732 0.67496 0.30471 0.0
C471 C 0.94255 0.63736 0.29968 0.0
C472 C 0.90765 0.62498 0.28133 0.0
C473 C 0.89674 0.65003 0.26809 0.0
H474 H 0.97342 0.72891 0.29634 0.0
C475 C 0.92156 0.68753 0.27316 0.0
C476 C 0.95613 0.69981 0.29142 0.0
H477 H 0.91409 0.70769 0.26387 0.0
H478 H 0.12758 0.72448 0.40375 0.0
H479 H 0.0693 0.69084 0.36304 0.0
H480 H 0.07378 0.79284 0.33301 0.0
H481 H 0.13053 0.82585 0.37358 0.0
H482 H 0.02975 0.73849 0.29382 0.0
H483 H 1.00613 0.67006 0.35032 0.0
H484 H 0.95013 0.61754 0.31019 0.0
H485 H 0.88905 0.59586 0.27831 0.0
C486 C 0.93366 0.27827 0.43393 0.0
C487 C 0.91624 0.24177 0.44825 0.0
C488 C 0.96386 0.29185 0.4057 0.0
C489 C 0.97743 0.26921 0.39141 0.0
C490 C 0.96051 0.233 0.40653 0.0
C491 C 0.93001 0.21929 0.43426 0.0
C492 C 1.00975 0.28284 0.36187 0.0
C493 C 0.01783 0.30871 0.33089 0.0
C494 C 0.04973 0.32196 0.3007 0.0
C495 C 0.04783 0.33502 0.25868 0.0
C496 C 0.07751 0.3483 0.22969 0.0
C497 C 0.11026 0.34958 0.24234 0.0
H498 H 0.08516 0.31423 0.34614 0.0
C499 C 0.11216 0.33675 0.28474 0.0
C500 C 0.08229 0.32307 0.31351 0.0
H501 H 0.13688 0.33775 0.2963 0.0
H502 H 0.92358 0.2962 0.44399 0.0
H503 H 0.97678 0.32018 0.39566 0.0
H504 H 0.97066 0.2151 0.39643 0.0
H505 H 0.91741 0.19119 0.44518 0.0
H506 H 0.02607 0.26958 0.36408 0.0
H507 H 0.99935 0.31926 0.32572 0.0
H508 H 0.02311 0.33461 0.24801 0.0
H509 H 0.07451 0.35732 0.19728 0.0
C510 C 0.66368 0.73589 0.90569 0.0
C511 C 0.67643 0.77355 0.90188 0.0
C512 C 0.68095 0.72302 0.93417 0.0
C513 C 0.71137 0.74754 0.95976 0.0
C514 C 0.7244 0.78514 0.95537 0.0
C515 C 0.7071 0.79798 0.927 0.0
C516 C 0.7309 0.73527 0.99039 0.0
C517 C 0.71556 0.70145 0.00802 0.0
C518 C 0.73469 0.68934 0.0395 0.0
C519 C 0.71358 0.65874 0.06626 0.0
C520 C 0.73018 0.64602 0.09588 0.0
C521 C 0.76849 0.66342 0.09933 0.0
H522 H 0.79053 0.72962 0.02181 0.0
C523 C 0.78971 0.69383 0.07221 0.0
C524 C 0.77308 0.70662 0.04259 0.0
H525 H 0.81925 0.70792 0.07402 0.0
H526 H 0.64007 0.71621 0.8871 0.0
H527 H 0.67058 0.69391 0.93545 0.0
H528 H 0.748 0.80475 0.97417 0.0
H529 H 0.71807 0.82716 0.92439 0.0
H530 H 0.75834 0.75568 1.0004 0.0
H531 H 0.68706 0.68205 1.00098 0.0
H532 H 0.684 0.64456 0.06432 0.0
H533 H 0.71287 0.62209 0.11543 0.0
C534 C 0.33157 0.11037 0.73219 0.0
C535 C 0.34091 0.10831 0.77641 0.0
C536 C 0.31531 0.07915 0.70529 0.0
C537 C 0.30807 0.04505 0.72197 0.0
C538 C 0.31656 0.04291 0.76644 0.0
C539 C 0.33287 0.07408 0.79325 0.0
C540 C 0.29113 0.01099 0.69467 0.0
C541 C 0.29207 0.01063 0.65 0.0
C542 C 0.27637 0.97658 0.62271 0.0
C543 C 0.28841 0.97893 0.57891 0.0
C544 C 0.27445 0.94787 0.55196 0.0
C545 C 0.24781 0.91351 0.56798 0.0
H546 H 0.2384 0.9392 0.67168 0.0
C547 C 0.23535 0.91119 0.61166 0.0
C548 C 0.24933 0.94228 0.63866 0.0
H549 H 0.21498 0.88527 0.6253 0.0
H550 H 0.33738 0.13622 0.71803 0.0
H551 H 0.30824 0.08196 0.67167 0.0
H552 H 0.3109 0.01702 0.78049 0.0
H553 H 0.33901 0.07127 0.82732 0.0
H554 H 0.27931 0.98533 0.71252 0.0
H555 H 0.30663 0.03634 0.63235 0.0
H556 H 0.30887 1.00495 0.56542 0.0
H557 H 0.28425 0.95092 0.51831 0.0
loop_
_geom_bond_atom_site_label_1
_geom_bond_atom_site_label_2
_geom_bond_distance
_geom_bond_site_symmetry_2
_ccdc_geom_bond_type
Co0 N4 2.148 . S
Co0 N10 2.128 . S
Co0 N20 2.194 . S
Co0 O25 2.351 . S
Co0 O26 2.155 . S
Co0 O27 2.096 . S
C1 N4 1.301 . S
C1 N5 1.328 . S
C1 H6 0.930 . S
C2 C3 1.333 . S
C2 N4 1.317 . S
C2 H7 0.930 . S
C3 C2 1.333 . S
C3 N5 1.350 . S
C3 H29 0.931 . S
N4 Co0 2.148 . S
N4 C1 1.301 . S
N4 C2 1.317 . S
N5 C1 1.328 . S
N5 C3 1.350 . S
H6 C1 0.930 . S
H7 C2 0.930 . S
C8 O9 1.224 . S
C8 O27 1.247 . S
O9 C8 1.224 . S
N10 Co0 2.128 . S
N10 C11 1.355 1_554 S
N10 C13 1.311 . S
C11 N10 1.355 1_556 S
C11 C12 1.363 . S
C11 H23 0.929 . S
C12 C11 1.363 . S
C12 N14 1.375 . S
C12 H30 0.931 . S
C13 N10 1.311 . S
C13 N14 1.347 1_554 S
C13 H24 0.929 . S
N14 C12 1.375 . S
N14 C13 1.347 1_556 S
C15 C18 1.365 1_554 S
C15 N20 1.328 . S
C15 H21 0.929 . S
C16 C17 1.362 . S
C16 C19 1.378 . S
C16 H31 0.929 . S
C17 C16 1.362 . S
C17 C18 1.366 . S
C18 C15 1.365 1_556 S
C18 C17 1.366 . S
C18 H32 0.930 . S
C19 C16 1.378 . S
C19 N20 1.315 1_556 S
C19 H22 0.930 . S
N20 Co0 2.194 . S
N20 C15 1.328 . S
N20 C19 1.315 1_554 S
H21 C15 0.929 . S
H22 C19 0.930 . S
H23 C11 0.929 . S
H24 C13 0.929 . S
O25 Co0 2.351 . S
O25 C28 1.244 . S
O26 Co0 2.155 . S
O26 C28 1.240 . S
O27 Co0 2.096 . S
O27 C8 1.247 . S
C28 O25 1.244 . S
C28 O26 1.240 . S
H29 C3 0.931 . S
H30 C12 0.931 . S
H31 C16 0.929 . S
H32 C18 0.930 . S
Co33 N37 2.148 . S
Co33 N43 2.128 . S
Co33 N53 2.194 . S
Co33 O58 2.351 . S
Co33 O59 2.155 . S
Co33 O60 2.096 . S
C34 N37 1.301 . S
C34 N38 1.328 . S
C34 H39 0.930 . S
C35 C36 1.333 . S
C35 N37 1.317 . S
C35 H40 0.930 . S
C36 C35 1.333 . S
C36 N38 1.350 . S
C36 H62 0.931 . S
N37 Co33 2.148 . S
N37 C34 1.301 . S
N37 C35 1.317 . S
N38 C34 1.328 . S
N38 C36 1.350 . S
H39 C34 0.930 . S
H40 C35 0.930 . S
C41 O42 1.224 . S
C41 O60 1.247 . S
O42 C41 1.224 . S
N43 Co33 2.128 . S
N43 C44 1.355 . S
N43 C46 1.311 . S
C44 N43 1.355 . S
C44 C45 1.363 . S
C44 H56 0.929 . S
C45 C44 1.363 . S
C45 N47 1.375 . S
C45 H63 0.931 . S
C46 N43 1.311 . S
C46 N47 1.347 . S
C46 H57 0.929 . S
N47 C45 1.375 . S
N47 C46 1.347 . S
C48 C51 1.365 . S
C48 N53 1.328 . S
C48 H54 0.929 . S
C49 C50 1.362 . S
C49 C52 1.378 . S
C49 H64 0.929 . S
C50 C49 1.362 . S
C50 C51 1.366 . S
C51 C48 1.365 . S
C51 C50 1.366 . S
C51 H65 0.930 . S
C52 C49 1.378 . S
C52 N53 1.315 . S
C52 H55 0.930 . S
N53 Co33 2.194 . S
N53 C48 1.328 . S
N53 C52 1.315 . S
H54 C48 0.929 . S
H55 C52 0.930 . S
H56 C44 0.929 . S
H57 C46 0.929 . S
O58 Co33 2.351 . S
O58 C61 1.244 . S
O59 Co33 2.155 . S
O59 C61 1.240 . S
O60 Co33 2.096 . S
O60 C41 1.247 . S
C61 O58 1.244 . S
C61 O59 1.240 . S
H62 C36 0.931 . S
H63 C45 0.931 . S
H64 C49 0.929 . S
H65 C51 0.930 . S
Co66 N70 2.148 . S
Co66 N76 2.128 . S
Co66 N86 2.194 . S
Co66 O91 2.351 . S
Co66 O92 2.155 . S
Co66 O93 2.096 . S
C67 N70 1.301 . S
C67 N71 1.328 . S
C67 H72 0.930 . S
C68 C69 1.333 . S
C68 N70 1.317 . S
C68 H73 0.930 . S
C69 C68 1.333 . S
C69 N71 1.350 . S
C69 H95 0.931 . S
N70 Co66 2.148 . S
N70 C67 1.301 . S
N70 C68 1.317 . S
N71 C67 1.328 . S
N71 C69 1.350 . S
H72 C67 0.930 . S
H73 C68 0.930 . S
C74 O75 1.224 . S
C74 O93 1.247 . S
O75 C74 1.224 . S
N76 Co66 2.128 . S
N76 C77 1.355 . S
N76 C79 1.311 . S
C77 N76 1.355 . S
C77 C78 1.363 . S
C77 H89 0.929 . S
C78 C77 1.363 . S
C78 N80 1.375 . S
C78 H96 0.931 . S
C79 N76 1.311 . S
C79 N80 1.347 . S
C79 H90 0.929 . S
N80 C78 1.375 . S
N80 C79 1.347 . S
C81 C84 1.365 . S
C81 N86 1.328 . S
C81 H87 0.929 . S
C82 C83 1.362 . S
C82 C85 1.378 . S
C82 H97 0.929 . S
C83 C82 1.362 . S
C83 C84 1.366 . S
C84 C81 1.365 . S
C84 C83 1.366 . S
C84 H98 0.930 . S
C85 C82 1.378 . S
C85 N86 1.315 . S
C85 H88 0.930 . S
N86 Co66 2.194 . S
N86 C81 1.328 . S
N86 C85 1.315 . S
H87 C81 0.929 . S
H88 C85 0.930 . S
H89 C77 0.929 . S
H90 C79 0.929 . S
O91 Co66 2.351 . S
O91 C94 1.244 . S
O92 Co66 2.155 . S
O92 C94 1.240 . S
O93 Co66 2.096 . S
O93 C74 1.247 . S
C94 O91 1.244 . S
C94 O92 1.240 . S
H95 C69 0.931 . S
H96 C78 0.931 . S
H97 C82 0.929 . S
H98 C84 0.930 . S
Co99 N103 2.148 . S
Co99 N109 2.128 . S
Co99 N119 2.194 . S
Co99 O124 2.351 . S
Co99 O125 2.155 . S
Co99 O126 2.096 . S
C100 N103 1.301 . S
C100 N104 1.328 . S
C100 H105 0.930 . S
C101 C102 1.333 . S
C101 N103 1.317 . S
C101 H106 0.930 . S
C102 C101 1.333 . S
C102 N104 1.350 . S
C102 H128 0.931 . S
N103 Co99 2.148 . S
N103 C100 1.301 . S
N103 C101 1.317 . S
N104 C100 1.328 . S
N104 C102 1.350 . S
H105 C100 0.930 . S
H106 C101 0.930 . S
C107 O108 1.224 . S
C107 O126 1.247 . S
O108 C107 1.224 . S
N109 Co99 2.128 . S
N109 C110 1.355 1_556 S
N109 C112 1.311 . S
C110 N109 1.355 1_554 S
C110 C111 1.363 . S
C110 H122 0.929 . S
C111 C110 1.363 . S
C111 N113 1.375 . S
C111 H129 0.931 . S
C112 N109 1.311 . S
C112 N113 1.347 1_556 S
C112 H123 0.929 . S
N113 C111 1.375 . S
N113 C112 1.347 1_554 S
C114 C117 1.365 1_556 S
C114 N119 1.328 . S
C114 H120 0.929 . S
C115 C116 1.362 . S
C115 C118 1.378 . S
C115 H130 0.929 . S
C116 C115 1.362 . S
C116 C117 1.366 . S
C117 C114 1.365 1_554 S
C117 C116 1.366 . S
C117 H131 0.930 . S
C118 C115 1.378 . S
C118 N119 1.315 1_554 S
C118 H121 0.930 . S
N119 Co99 2.194 . S
N119 C114 1.328 . S
N119 C118 1.315 1_556 S
H120 C114 0.929 . S
H121 C118 0.930 . S
H122 C110 0.929 . S
H123 C112 0.929 . S
O124 Co99 2.351 . S
O124 C127 1.244 . S
O125 Co99 2.155 . S
O125 C127 1.240 . S
O126 Co99 2.096 . S
O126 C107 1.247 . S
C127 O124 1.244 . S
C127 O125 1.240 . S
H128 C102 0.931 . S
H129 C111 0.931 . S
H130 C115 0.929 . S
H131 C117 0.930 . S
Co132 N136 2.148 . S
Co132 N142 2.128 . S
Co132 N152 2.194 . S
Co132 O157 2.351 . S
Co132 O158 2.155 . S
Co132 O159 2.096 . S
C133 N136 1.301 . S
C133 N137 1.328 . S
C133 H138 0.930 . S
C134 C135 1.333 . S
C134 N136 1.317 . S
C134 H139 0.930 . S
C135 C134 1.333 . S
C135 N137 1.350 . S
C135 H161 0.931 . S
N136 Co132 2.148 . S
N136 C133 1.301 . S
N136 C134 1.317 . S
N137 C133 1.328 . S
N137 C135 1.350 . S
H138 C133 0.930 . S
H139 C134 0.930 . S
C140 O141 1.224 . S
C140 O159 1.247 . S
O141 C140 1.224 . S
N142 Co132 2.128 . S
N142 C143 1.355 . S
N142 C145 1.311 . S
C143 N142 1.355 . S
C143 C144 1.363 . S
C143 H155 0.929 . S
C144 C143 1.363 . S
C144 N146 1.375 . S
C144 H162 0.931 . S
C145 N142 1.311 . S
C145 N146 1.347 . S
C145 H156 0.929 . S
N146 C144 1.375 . S
N146 C145 1.347 . S
C147 C150 1.365 . S
C147 N152 1.328 . S
C147 H153 0.929 . S
C148 C149 1.362 . S
C148 C151 1.378 . S
C148 H163 0.929 . S
C149 C148 1.362 . S
C149 C150 1.366 . S
C150 C147 1.365 . S
C150 C149 1.366 . S
C150 H164 0.930 . S
C151 C148 1.378 . S
C151 N152 1.315 . S
C151 H154 0.930 . S
N152 Co132 2.194 . S
N152 C147 1.328 . S
N152 C151 1.315 . S
H153 C147 0.929 . S
H154 C151 0.930 . S
H155 C143 0.929 . S
H156 C145 0.929 . S
O157 Co132 2.351 . S
O157 C160 1.244 . S
O158 Co132 2.155 . S
O158 C160 1.240 . S
O159 Co132 2.096 . S
O159 C140 1.247 . S
C160 O157 1.244 . S
C160 O158 1.240 . S
H161 C135 0.931 . S
H162 C144 0.931 . S
H163 C148 0.929 . S
H164 C150 0.930 . S
Co165 N169 2.148 . S
Co165 N175 2.128 . S
Co165 N185 2.194 . S
Co165 O190 2.351 . S
Co165 O191 2.155 . S
Co165 O192 2.096 . S
C166 N169 1.301 . S
C166 N170 1.328 . S
C166 H171 0.930 . S
C167 C168 1.333 . S
C167 N169 1.317 . S
C167 H172 0.930 . S
C168 C167 1.333 . S
C168 N170 1.350 . S
C168 H194 0.931 . S
N169 Co165 2.148 . S
N169 C166 1.301 . S
N169 C167 1.317 . S
N170 C166 1.328 . S
N170 C168 1.350 . S
H171 C166 0.930 . S
H172 C167 0.930 . S
C173 O174 1.224 . S
C173 O192 1.247 . S
O174 C173 1.224 . S
N175 Co165 2.128 . S
N175 C176 1.355 . S
N175 C178 1.311 . S
C176 N175 1.355 . S
C176 C177 1.363 . S
C176 H188 0.929 . S
C177 C176 1.363 . S
C177 N179 1.375 . S
C177 H195 0.931 . S
C178 N175 1.311 . S
C178 N179 1.347 . S
C178 H189 0.929 . S
N179 C177 1.375 . S
N179 C178 1.347 . S
C180 C183 1.365 . S
C180 N185 1.328 . S
C180 H186 0.929 . S
C181 C182 1.362 . S
C181 C184 1.378 . S
C181 H196 0.929 . S
C182 C181 1.362 . S
C182 C183 1.366 . S
C183 C180 1.365 . S
C183 C182 1.366 . S
C183 H197 0.930 . S
C184 C181 1.378 . S
C184 N185 1.315 . S
C184 H187 0.930 . S
N185 Co165 2.194 . S
N185 C180 1.328 . S
N185 C184 1.315 . S
H186 C180 0.929 . S
H187 C184 0.930 . S
H188 C176 0.929 . S
H189 C178 0.929 . S
O190 Co165 2.351 . S
O190 C193 1.244 . S
O191 Co165 2.155 . S
O191 C193 1.240 . S
O192 Co165 2.096 . S
O192 C173 1.247 . S
C193 O190 1.244 . S
C193 O191 1.240 . S
H194 C168 0.931 . S
H195 C177 0.931 . S
H196 C181 0.929 . S
H197 C183 0.930 . S
C198 C199 1.386 . S
C198 C200 1.383 . S
C198 H214 0.951 . S
C199 C198 1.386 . S
C199 C203 1.383 . S
C200 C198 1.383 . S
C200 C201 1.402 . S
C200 H215 0.951 . S
C201 C200 1.402 . S
C201 C202 1.375 . S
C201 C204 1.481 . S
C202 C201 1.375 . S
C202 C203 1.367 . S
C202 H216 0.951 . S
C203 C199 1.383 . S
C203 C202 1.367 . S
C203 H217 0.950 . S
C204 C201 1.481 . S
C204 C205 1.297 . S
C204 H218 0.950 . S
C205 C204 1.297 . S
C205 C206 1.479 . S
C205 H219 0.950 . S
C206 C205 1.479 . S
C206 C207 1.375 . S
C206 C212 1.404 . S
C207 C206 1.375 . S
C207 C208 1.369 . S
C207 H220 0.950 . S
C208 C207 1.369 . S
C208 C209 1.392 . S
C208 H221 0.951 . S
C209 C208 1.392 . S
C209 C211 1.384 . S
H210 C212 0.949 . S
C211 C209 1.384 . S
C211 C212 1.385 . S
C211 H213 0.950 . S
C212 C206 1.404 . S
C212 H210 0.949 . S
C212 C211 1.385 . S
H213 C211 0.950 . S
H214 C198 0.951 . S
H215 C200 0.951 . S
H216 C202 0.951 . S
H217 C203 0.950 . S
H218 C204 0.950 . S
H219 C205 0.950 . S
H220 C207 0.950 . S
H221 C208 0.951 . S
C222 C223 1.386 . S
C222 C224 1.383 . S
C222 H238 0.951 . S
C223 C222 1.386 . S
C223 C227 1.383 . S
C224 C222 1.383 . S
C224 C225 1.402 . S
C224 H239 0.951 . S
C225 C224 1.402 . S
C225 C226 1.375 . S
C225 C228 1.481 . S
C226 C225 1.375 . S
C226 C227 1.367 . S
C226 H240 0.951 . S
C227 C223 1.383 . S
C227 C226 1.367 . S
C227 H241 0.950 . S
C228 C225 1.481 . S
C228 C229 1.297 . S
C228 H242 0.950 . S
C229 C228 1.297 . S
C229 C230 1.479 . S
C229 H243 0.950 . S
C230 C229 1.479 . S
C230 C231 1.375 . S
C230 C236 1.404 . S
C231 C230 1.375 . S
C231 C232 1.369 . S
C231 H244 0.950 . S
C232 C231 1.369 . S
C232 C233 1.392 . S
C232 H245 0.951 . S
C233 C232 1.392 . S
C233 C235 1.384 . S
H234 C236 0.949 . S
C235 C233 1.384 . S
C235 C236 1.385 . S
C235 H237 0.950 . S
C236 C230 1.404 . S
C236 H234 0.949 . S
C236 C235 1.385 . S
H237 C235 0.950 . S
H238 C222 0.951 . S
H239 C224 0.951 . S
H240 C226 0.951 . S
H241 C227 0.950 . S
H242 C228 0.950 . S
H243 C229 0.950 . S
H244 C231 0.950 . S
H245 C232 0.951 . S
C246 C247 1.386 . S
C246 C248 1.383 . S
C246 H262 0.951 . S
C247 C246 1.386 . S
C247 C251 1.383 . S
C248 C246 1.383 . S
C248 C249 1.402 . S
C248 H263 0.951 . S
C249 C248 1.402 . S
C249 C250 1.375 . S
C249 C252 1.481 . S
C250 C249 1.375 . S
C250 C251 1.367 . S
C250 H264 0.951 . S
C251 C247 1.383 . S
C251 C250 1.367 . S
C251 H265 0.950 . S
C252 C249 1.481 . S
C252 C253 1.297 . S
C252 H266 0.950 . S
C253 C252 1.297 . S
C253 C254 1.479 . S
C253 H267 0.950 . S
C254 C253 1.479 . S
C254 C255 1.375 . S
C254 C260 1.404 . S
C255 C254 1.375 . S
C255 C256 1.369 . S
C255 H268 0.950 . S
C256 C255 1.369 . S
C256 C257 1.392 . S
C256 H269 0.951 . S
C257 C256 1.392 . S
C257 C259 1.384 . S
H258 C260 0.949 . S
C259 C257 1.384 . S
C259 C260 1.385 . S
C259 H261 0.950 . S
C260 C254 1.404 . S
C260 H258 0.949 . S
C260 C259 1.385 . S
H261 C259 0.950 . S
H262 C246 0.951 . S
H263 C248 0.951 . S
H264 C250 0.951 . S
H265 C251 0.950 . S
H266 C252 0.950 . S
H267 C253 0.950 . S
H268 C255 0.950 . S
H269 C256 0.951 . S
C270 C271 1.386 . S
C270 C272 1.383 . S
C270 H286 0.951 . S
C271 C270 1.386 . S
C271 C275 1.383 . S
C272 C270 1.383 . S
C272 C273 1.402 . S
C272 H287 0.951 . S
C273 C272 1.402 . S
C273 C274 1.375 . S
C273 C276 1.481 . S
C274 C273 1.375 . S
C274 C275 1.367 . S
C274 H288 0.951 . S
C275 C271 1.383 . S
C275 C274 1.367 . S
C275 H289 0.950 . S
C276 C273 1.481 . S
C276 C277 1.297 . S
C276 H290 0.950 . S
C277 C276 1.297 . S
C277 C278 1.479 . S
C277 H291 0.950 . S
C278 C277 1.479 . S
C278 C279 1.375 . S
C278 C284 1.404 . S
C279 C278 1.375 . S
C279 C280 1.369 . S
C279 H292 0.950 . S
C280 C279 1.369 . S
C280 C281 1.392 . S
C280 H293 0.951 . S
C281 C280 1.392 . S
C281 C283 1.384 . S
H282 C284 0.949 . S
C283 C281 1.384 . S
C283 C284 1.385 . S
C283 H285 0.950 . S
C284 C278 1.404 . S
C284 H282 0.949 . S
C284 C283 1.385 . S
H285 C283 0.950 . S
H286 C270 0.951 . S
H287 C272 0.951 . S
H288 C274 0.951 . S
H289 C275 0.950 . S
H290 C276 0.950 . S
H291 C277 0.950 . S
H292 C279 0.950 . S
H293 C280 0.951 . S
C294 C295 1.386 . S
C294 C296 1.383 . S
C294 H310 0.951 . S
C295 C294 1.386 . S
C295 C299 1.383 . S
C296 C294 1.383 . S
C296 C297 1.402 . S
C296 H311 0.951 . S
C297 C296 1.402 . S
C297 C298 1.375 . S
C297 C300 1.481 . S
C298 C297 1.375 . S
C298 C299 1.367 . S
C298 H312 0.951 . S
C299 C295 1.383 . S
C299 C298 1.367 . S
C299 H313 0.950 . S
C300 C297 1.481 . S
C300 C301 1.297 . S
C300 H314 0.950 . S
C301 C300 1.297 . S
C301 C302 1.479 . S
C301 H315 0.950 . S
C302 C301 1.479 . S
C302 C303 1.375 . S
C302 C308 1.404 . S
C303 C302 1.375 . S
C303 C304 1.369 . S
C303 H316 0.950 . S
C304 C303 1.369 . S
C304 C305 1.392 . S
C304 H317 0.951 . S
C305 C304 1.392 . S
C305 C307 1.384 . S
H306 C308 0.949 . S
C307 C305 1.384 . S
C307 C308 1.385 . S
C307 H309 0.950 . S
C308 C302 1.404 . S
C308 H306 0.949 . S
C308 C307 1.385 . S
H309 C307 0.950 . S
H310 C294 0.951 . S
H311 C296 0.951 . S
H312 C298 0.951 . S
H313 C299 0.950 . S
H314 C300 0.950 . S
H315 C301 0.950 . S
H316 C303 0.950 . S
H317 C304 0.951 . S
C318 C319 1.386 . S
C318 C320 1.383 . S
C318 H334 0.951 . S
C319 C318 1.386 . S
C319 C323 1.383 . S
C320 C318 1.383 . S
C320 C321 1.402 . S
C320 H335 0.951 . S
C321 C320 1.402 . S
C321 C322 1.375 . S
C321 C324 1.481 . S
C322 C321 1.375 . S
C322 C323 1.367 . S
C322 H336 0.951 . S
C323 C319 1.383 . S
C323 C322 1.367 . S
C323 H337 0.950 . S
C324 C321 1.481 . S
C324 C325 1.297 . S
C324 H338 0.950 . S
C325 C324 1.297 . S
C325 C326 1.479 . S
C325 H339 0.950 . S
C326 C325 1.479 . S
C326 C327 1.375 . S
C326 C332 1.404 . S
C327 C326 1.375 . S
C327 C328 1.369 . S
C327 H340 0.950 . S
C328 C327 1.369 . S
C328 C329 1.392 . S
C328 H341 0.951 . S
C329 C328 1.392 . S
C329 C331 1.384 . S
H330 C332 0.949 . S
C331 C329 1.384 . S
C331 C332 1.385 . S
C331 H333 0.950 . S
C332 C326 1.404 . S
C332 H330 0.949 . S
C332 C331 1.385 . S
H333 C331 0.950 . S
H334 C318 0.951 . S
H335 C320 0.951 . S
H336 C322 0.951 . S
H337 C323 0.950 . S
H338 C324 0.950 . S
H339 C325 0.950 . S
H340 C327 0.950 . S
H341 C328 0.951 . S
C342 C343 1.386 . S
C342 C344 1.383 . S
C342 H358 0.951 . S
C343 C342 1.386 . S
C343 C347 1.383 . S
C344 C342 1.383 . S
C344 C345 1.402 . S
C344 H359 0.951 . S
C345 C344 1.402 . S
C345 C346 1.375 . S
C345 C348 1.481 1_655 S
C346 C345 1.375 . S
C346 C347 1.367 . S
C346 H360 0.951 . S
C347 C343 1.383 . S
C347 C346 1.367 . S
C347 H361 0.950 . S
C348 C345 1.481 1_455 S
C348 C349 1.297 . S
C348 H362 0.950 . S
C349 C348 1.297 . S
C349 C350 1.479 . S
C349 H363 0.952 . S
C350 C349 1.479 . S
C350 C351 1.375 . S
C350 C356 1.404 . S
C351 C350 1.375 . S
C351 C352 1.369 . S
C351 H364 0.950 . S
C352 C351 1.369 . S
C352 C353 1.392 . S
C352 H365 0.951 . S
C353 C352 1.392 . S
C353 C355 1.384 . S
H354 C356 0.949 . S
C355 C353 1.384 . S
C355 C356 1.385 . S
C355 H357 0.950 . S
C356 C350 1.404 . S
C356 H354 0.949 . S
C356 C355 1.385 . S
H357 C355 0.950 . S
H358 C342 0.951 . S
H359 C344 0.951 . S
H360 C346 0.951 . S
H361 C347 0.950 . S
H362 C348 0.950 . S
H363 C349 0.952 . S
H364 C351 0.950 . S
H365 C352 0.951 . S
C366 C367 1.386 . S
C366 C368 1.383 . S
C366 H382 0.951 . S
C367 C366 1.386 . S
C367 C371 1.383 . S
C368 C366 1.383 . S
C368 C369 1.402 . S
C368 H383 0.951 . S
C369 C368 1.402 . S
C369 C370 1.375 . S
C369 C372 1.481 . S
C370 C369 1.375 . S
C370 C371 1.367 . S
C370 H384 0.951 . S
C371 C367 1.383 . S
C371 C370 1.367 . S
C371 H385 0.950 . S
C372 C369 1.481 . S
C372 C373 1.297 . S
C372 H386 0.950 . S
C373 C372 1.297 . S
C373 C374 1.479 . S
C373 H387 0.950 . S
C374 C373 1.479 . S
C374 C375 1.375 . S
C374 C380 1.404 . S
C375 C374 1.375 . S
C375 C376 1.369 . S
C375 H388 0.950 . S
C376 C375 1.369 . S
C376 C377 1.392 . S
C376 H389 0.951 . S
C377 C376 1.392 . S
C377 C379 1.384 . S
H378 C380 0.949 . S
C379 C377 1.384 . S
C379 C380 1.385 . S
C379 H381 0.950 . S
C380 C374 1.404 . S
C380 H378 0.949 . S
C380 C379 1.385 . S
H381 C379 0.950 . S
H382 C366 0.951 . S
H383 C368 0.951 . S
H384 C370 0.951 . S
H385 C371 0.950 . S
H386 C372 0.950 . S
H387 C373 0.950 . S
H388 C375 0.950 . S
H389 C376 0.951 . S
C390 C391 1.386 . S
C390 C392 1.383 . S
C390 H406 0.951 . S
C391 C390 1.386 . S
C391 C395 1.383 . S
C392 C390 1.383 . S
C392 C393 1.402 . S
C392 H407 0.951 . S
C393 C392 1.402 . S
C393 C394 1.375 . S
C393 C396 1.481 . S
C394 C393 1.375 . S
C394 C395 1.367 . S
C394 H408 0.951 . S
C395 C391 1.383 . S
C395 C394 1.367 . S
C395 H409 0.950 . S
C396 C393 1.481 . S
C396 C397 1.297 1_545 S
C396 H410 0.950 . S
C397 C396 1.297 1_565 S
C397 C398 1.479 . S
C397 H411 0.950 . S
C398 C397 1.479 . S
C398 C399 1.375 . S
C398 C404 1.404 . S
C399 C398 1.375 . S
C399 C400 1.369 . S
C399 H412 0.950 . S
C400 C399 1.369 . S
C400 C401 1.392 . S
C400 H413 0.951 . S
C401 C400 1.392 . S
C401 C403 1.384 . S
H402 C404 0.949 . S
C403 C401 1.384 . S
C403 C404 1.385 . S
C403 H405 0.950 . S
C404 C398 1.404 . S
C404 H402 0.949 . S
C404 C403 1.385 . S
H405 C403 0.950 . S
H406 C390 0.951 . S
H407 C392 0.951 . S
H408 C394 0.951 . S
H409 C395 0.950 . S
H410 C396 0.950 . S
H411 C397 0.950 . S
H412 C399 0.950 . S
H413 C400 0.951 . S
C414 C415 1.386 . S
C414 C416 1.383 . S
C414 H430 0.951 . S
C415 C414 1.386 . S
C415 C419 1.383 . S
C416 C414 1.383 . S
C416 C417 1.402 . S
C416 H431 0.951 . S
C417 C416 1.402 . S
C417 C418 1.375 . S
C417 C420 1.481 . S
C418 C417 1.375 . S
C418 C419 1.367 . S
C418 H432 0.951 . S
C419 C415 1.383 . S
C419 C418 1.367 . S
C419 H433 0.950 . S
C420 C417 1.481 . S
C420 C421 1.297 . S
C420 H434 0.950 . S
C421 C420 1.297 . S
C421 C422 1.479 1_556 S
C421 H435 0.950 . S
C422 C421 1.479 1_554 S
C422 C423 1.375 . S
C422 C428 1.404 . S
C423 C422 1.375 . S
C423 C424 1.369 . S
C423 H436 0.950 1_554 S
C424 C423 1.369 . S
C424 C425 1.392 . S
C424 H437 0.951 . S
C425 C424 1.392 . S
C425 C427 1.384 . S
H426 C428 0.949 . S
C427 C425 1.384 . S
C427 C428 1.385 . S
C427 H429 0.950 . S
C428 C422 1.404 . S
C428 H426 0.949 . S
C428 C427 1.385 . S
H429 C427 0.950 . S
H430 C414 0.951 . S
H431 C416 0.951 . S
H432 C418 0.951 . S
H433 C419 0.950 . S
H434 C420 0.950 . S
H435 C421 0.950 . S
H436 C423 0.950 1_556 S
H437 C424 0.951 . S
C438 C439 1.386 . S
C438 C440 1.383 . S
C438 H454 0.951 . S
C439 C438 1.386 . S
C439 C443 1.383 . S
C440 C438 1.383 . S
C440 C441 1.402 . S
C440 H455 0.951 . S
C441 C440 1.402 . S
C441 C442 1.375 . S
C441 C444 1.481 . S
C442 C441 1.375 . S
C442 C443 1.367 . S
C442 H456 0.951 . S
C443 C439 1.383 . S
C443 C442 1.367 . S
C443 H457 0.950 . S
C444 C441 1.481 . S
C444 C445 1.297 1_545 S
C444 H458 0.950 1_545 S
C445 C444 1.297 1_565 S
C445 C446 1.479 . S
C445 H459 0.950 1_565 S
C446 C445 1.479 . S
C446 C447 1.375 . S
C446 C452 1.404 . S
C447 C446 1.375 . S
C447 C448 1.369 . S
C447 H460 0.950 . S
C448 C447 1.369 . S
C448 C449 1.392 . S
C448 H461 0.951 . S
C449 C448 1.392 . S
C449 C451 1.384 . S
H450 C452 0.949 . S
C451 C449 1.384 . S
C451 C452 1.385 . S
C451 H453 0.950 . S
C452 C446 1.404 . S
C452 H450 0.949 . S
C452 C451 1.385 . S
H453 C451 0.950 . S
H454 C438 0.951 . S
H455 C440 0.951 . S
H456 C442 0.951 . S
H457 C443 0.950 . S
H458 C444 0.950 1_565 S
H459 C445 0.950 1_545 S
H460 C447 0.950 . S
H461 C448 0.951 . S
C462 C463 1.386 . S
C462 C464 1.383 . S
C462 H478 0.951 . S
C463 C462 1.386 . S
C463 C467 1.383 . S
C464 C462 1.383 . S
C464 C465 1.402 . S
C464 H479 0.951 . S
C465 C464 1.402 . S
C465 C466 1.375 . S
C465 C468 1.481 . S
C466 C465 1.375 . S
C466 C467 1.367 . S
C466 H480 0.951 . S
C467 C463 1.383 . S
C467 C466 1.367 . S
C467 H481 0.950 . S
C468 C465 1.481 . S
C468 C469 1.297 1_455 S
C468 H482 0.950 . S
C469 C468 1.297 1_655 S
C469 C470 1.479 . S
C469 H483 0.950 . S
C470 C469 1.479 . S
C470 C471 1.375 . S
C470 C476 1.404 . S
C471 C470 1.375 . S
C471 C472 1.369 . S
C471 H484 0.950 . S
C472 C471 1.369 . S
C472 C473 1.392 . S
C472 H485 0.951 . S
C473 C472 1.392 . S
C473 C475 1.384 . S
H474 C476 0.949 . S
C475 C473 1.384 . S
C475 C476 1.385 . S
C475 H477 0.950 . S
C476 C470 1.404 . S
C476 H474 0.949 . S
C476 C475 1.385 . S
H477 C475 0.950 . S
H478 C462 0.951 . S
H479 C464 0.951 . S
H480 C466 0.951 . S
H481 C467 0.950 . S
H482 C468 0.950 . S
H483 C469 0.950 . S
H484 C471 0.950 . S
H485 C472 0.951 . S
C486 C487 1.386 . S
C486 C488 1.383 . S
C486 H502 0.951 . S
C487 C486 1.386 . S
C487 C491 1.383 . S
C488 C486 1.383 . S
C488 C489 1.402 . S
C488 H503 0.951 . S
C489 C488 1.402 . S
C489 C490 1.375 . S
C489 C492 1.481 1_655 S
C490 C489 1.375 . S
C490 C491 1.367 . S
C490 H504 0.951 1_655 S
C491 C487 1.383 . S
C491 C490 1.367 . S
C491 H505 0.950 . S
C492 C489 1.481 1_455 S
C492 C493 1.297 . S
C492 H506 0.950 . S
C493 C492 1.297 . S
C493 C494 1.479 . S
C493 H507 0.950 1_455 S
C494 C493 1.479 . S
C494 C495 1.375 . S
C494 C500 1.404 . S
C495 C494 1.375 . S
C495 C496 1.369 . S
C495 H508 0.950 . S
C496 C495 1.369 . S
C496 C497 1.392 . S
C496 H509 0.951 . S
C497 C496 1.392 . S
C497 C499 1.384 . S
H498 C500 0.949 . S
C499 C497 1.384 . S
C499 C500 1.385 . S
C499 H501 0.950 . S
C500 C494 1.404 . S
C500 H498 0.949 . S
C500 C499 1.385 . S
H501 C499 0.950 . S
H502 C486 0.951 . S
H503 C488 0.951 . S
H504 C490 0.951 1_455 S
H505 C491 0.950 . S
H506 C492 0.950 . S
H507 C493 0.950 1_655 S
H508 C495 0.950 . S
H509 C496 0.951 . S
C510 C511 1.386 . S
C510 C512 1.383 . S
C510 H526 0.951 . S
C511 C510 1.386 . S
C511 C515 1.383 . S
C512 C510 1.383 . S
C512 C513 1.402 . S
C512 H527 0.951 . S
C513 C512 1.402 . S
C513 C514 1.375 . S
C513 C516 1.481 . S
C514 C513 1.375 . S
C514 C515 1.367 . S
C514 H528 0.951 . S
C515 C511 1.383 . S
C515 C514 1.367 . S
C515 H529 0.950 . S
C516 C513 1.481 . S
C516 C517 1.297 . S
C516 H530 0.950 1_556 S
C517 C516 1.297 . S
C517 C518 1.479 1_556 S
C517 H531 0.950 . S
C518 C517 1.479 1_554 S
C518 C519 1.375 . S
C518 C524 1.404 . S
C519 C518 1.375 . S
C519 C520 1.369 . S
C519 H532 0.950 . S
C520 C519 1.369 . S
C520 C521 1.392 . S
C520 H533 0.951 . S
C521 C520 1.392 . S
C521 C523 1.384 . S
H522 C524 0.949 . S
C523 C521 1.384 . S
C523 C524 1.385 . S
C523 H525 0.950 . S
C524 C518 1.404 . S
C524 H522 0.949 . S
C524 C523 1.385 . S
H525 C523 0.950 . S
H526 C510 0.951 . S
H527 C512 0.951 . S
H528 C514 0.951 . S
H529 C515 0.950 . S
H530 C516 0.950 1_554 S
H531 C517 0.950 . S
H532 C519 0.950 . S
H533 C520 0.951 . S
C534 C535 1.386 . S
C534 C536 1.383 . S
C534 H550 0.951 . S
C535 C534 1.386 . S
C535 C539 1.383 . S
C536 C534 1.383 . S
C536 C537 1.402 . S
C536 H551 0.951 . S
C537 C536 1.402 . S
C537 C538 1.375 . S
C537 C540 1.481 1_545 S
C538 C537 1.375 . S
C538 C539 1.367 . S
C538 H552 0.951 1_545 S
C539 C535 1.383 . S
C539 C538 1.367 . S
C539 H553 0.950 . S
C540 C537 1.481 1_565 S
C540 C541 1.297 1_565 S
C540 H554 0.950 . S
C541 C540 1.297 1_545 S
C541 C542 1.479 1_545 S
C541 H555 0.950 . S
C542 C541 1.479 1_565 S
C542 C543 1.375 . S
C542 C548 1.404 . S
C543 C542 1.375 . S
C543 C544 1.369 . S
C543 H556 0.950 1_565 S
C544 C543 1.369 . S
C544 C545 1.392 . S
C544 H557 0.951 . S
C545 C544 1.392 . S
C545 C547 1.384 . S
H546 C548 0.949 . S
C547 C545 1.384 . S
C547 C548 1.385 . S
C547 H549 0.950 . S
C548 C542 1.404 . S
C548 H546 0.949 . S
C548 C547 1.385 . S
H549 C547 0.950 . S
H550 C534 0.951 . S
H551 C536 0.951 . S
H552 C538 0.951 1_565 S
H553 C539 0.950 . S
H554 C540 0.950 . S
H555 C541 0.950 . S
H556 C543 0.950 1_545 S
H557 C544 0.951 . S
C199 N80 1.090 . S
C209 C28 1.099 . S
C223 C61 1.111 . S
C233 N14 1.045 . S
C247 C94 1.117 . S
C257 N47 1.124 . S
C271 C127 1.136 . S
C281 N146 1.055 . S
C295 N179 1.117 . S
C305 C160 1.113 . S
C319 N113 1.088 . S
C329 C193 1.098 . S
C343 C149 0.587 . S
C353 C17 0.591 . S
C367 C182 0.600 . S
C377 C50 0.611 . S
C391 C116 0.593 . S
C401 C83 0.598 . S
C415 C107 1.796 . S
C425 C8 1.748 . S
C439 C140 1.809 . S
C449 C41 1.771 . S
C463 C74 1.777 . S
C473 C173 1.759 . S
C487 N137 2.097 . S
C497 N5 2.079 . S
C511 N38 2.083 . S
C521 N170 2.058 . S
C535 N104 2.098 . S
C545 N71 2.094 . S
