# Generated by pormake.
# Topology fee, (5)-cn, num edge types: 1
# Building blocks:
#     Node 0, Type 0, BuildingBlock: BEQFEK_clean_sbu_0, # of connection points: 5
#     Node 1, Type 0, BuildingBlock: BEQFEK_clean_sbu_0, # of connection points: 5
#     Node 2, Type 0, BuildingBlock: BEQFEK_clean_sbu_0, # of connection points: 5
#     Node 3, Type 0, BuildingBlock: BEQFEK_clean_sbu_0, # of connection points: 5
#     Edge 4, Type (0, 0), BuildingBlock: UVAHIK_clean_linker_0, # of connection points: 2
#     Edge 5, Type (0, 0), BuildingBlock: UVAHIK_clean_linker_0, # of connection points: 2
#     Edge 6, Type (0, 0), BuildingBlock: UVAHIK_clean_linker_0, # of connection points: 2
#     Edge 7, Type (0, 0), BuildingBlock: UVAHIK_clean_linker_0, # of connection points: 2
#     Edge 8, Type (0, 0), BuildingBlock: UVAHIK_clean_linker_0, # of connection points: 2
#     Edge 9, Type (0, 0), BuildingBlock: UVAHIK_clean_linker_0, # of connection points: 2
#     Edge 10, Type (0, 0), BuildingBlock: UVAHIK_clean_linker_0, # of connection points: 2
#     Edge 11, Type (0, 0), BuildingBlock: UVAHIK_clean_linker_0, # of connection points: 2
#     Edge 12, Type (0, 0), BuildingBlock: UVAHIK_clean_linker_0, # of connection points: 2
#     Edge 13, Type (0, 0), BuildingBlock: UVAHIK_clean_linker_0, # of connection points: 2
# Relax obj value: 0.039
# Max RMSD: 0.132
# Mean RMSD: 0.102
data_MOF--net-fee--node1-BEQFEK_clean_sbu_0--edge1-UVAHIK_clean_linker_0
_symmetry_space_group_name_H-M    P1
_symmetry_Int_Tables_number       1
_symmetry_cell_setting            triclinic
loop_
_symmetry_equiv_pos_as_xyz
'x, y, z'
_cell_length_a     48.993582
_cell_length_b     48.803569
_cell_length_c     23.971888
_cell_angle_alpha  89.887434
_cell_angle_beta   87.991043
_cell_angle_gamma 96.176054
loop_
_atom_site_label
_atom_site_type_symbol
_atom_site_fract_x
_atom_site_fract_y
_atom_site_fract_z
_atom_type_partial_charge
Co0 Co 0.21875 0.49751 0.14692 0.0
Co1 Co 0.21821 0.49082 0.01704 0.0
C2 C 0.25377 0.53645 0.06892 0.0
O3 O 0.2453 0.52807 0.11751 0.0
O4 O 0.24492 0.52413 0.02519 0.0
C5 C 0.22837 0.51795 0.25821 0.0
O6 O 0.25038 0.53179 0.23516 0.0
C7 C 0.21225 0.50117 0.897 0.0
C8 C 0.20102 0.45874 0.86721 0.0
C9 C 0.20544 0.48595 0.84964 0.0
N10 N 0.21176 0.48367 0.94047 0.0
N11 N 0.20523 0.45835 0.92229 0.0
C12 C 0.21737 0.53182 0.90201 0.0
H13 H 0.21095 0.53835 0.94438 0.0
H14 H 0.20615 0.54219 0.87007 0.0
H15 H 0.23969 0.53821 0.89566 0.0
C16 C 0.15939 0.49972 0.13131 0.0
N17 N 0.18502 0.49749 0.11105 0.0
N18 N 0.1846 0.4948 0.0565 0.0
C19 C 0.15857 0.49509 0.04022 0.0
C20 C 0.14173 0.49824 0.08713 0.0
C21 C 0.15236 0.50432 0.19161 0.0
H22 H 0.16625 0.52183 0.20737 0.0
H23 H 0.13079 0.50888 0.19819 0.0
H24 H 0.15569 0.48569 0.216 0.0
O25 O 0.23409 0.46178 0.13645 0.0
O26 O 0.23433 0.45814 0.04433 0.0
H27 H 0.12726 0.48938 0.97799 0.0
H28 H 0.15972 0.50769 0.95464 0.0
C29 C 0.14985 0.49061 0.98141 0.0
H30 H 0.15679 0.47108 0.96575 0.0
H31 H 0.2033 0.44082 0.9477 0.0
O32 O 0.21252 0.50237 0.22814 0.0
C33 C 0.23933 0.44879 0.09202 0.0
Co34 Co 0.45761 0.20961 0.15368 0.0
Co35 Co 0.46046 0.21303 0.02271 0.0
C36 C 0.41473 0.23451 0.08819 0.0
O37 O 0.42509 0.22796 0.13372 0.0
O38 O 0.42596 0.22955 0.04103 0.0
C39 C 0.43284 0.19593 0.26285 0.0
O40 O 0.40946 0.19353 0.23717 0.0
C41 C 0.45019 0.20549 0.901 0.0
C42 C 0.49314 0.21053 0.86808 0.0
C43 C 0.46623 0.20549 0.85171 0.0
N44 N 0.46708 0.21012 0.94399 0.0
N45 N 0.49265 0.21316 0.92378 0.0
C46 C 0.41953 0.20225 0.90736 0.0
H47 H 0.41195 0.18 0.90656 0.0
H48 H 0.4104 0.21279 0.87264 0.0
H49 H 0.41272 0.2107 0.94766 0.0
C50 C 0.46226 0.15088 0.12924 0.0
N51 N 0.45964 0.17681 0.11272 0.0
N52 N 0.46083 0.17804 0.05783 0.0
C53 C 0.46425 0.15281 0.0376 0.0
C54 C 0.46534 0.13478 0.08224 0.0
C55 C 0.46176 0.14191 0.18905 0.0
H56 H 0.44214 0.1464 0.20963 0.0
H57 H 0.46352 0.11956 0.19338 0.0
H58 H 0.47875 0.15387 0.21073 0.0
O59 O 0.49148 0.23505 0.13975 0.0
O60 O 0.49154 0.23886 0.04755 0.0
H61 H 0.47242 0.12507 0.9696 0.0
H62 H 0.45125 0.15196 0.95337 0.0
C63 C 0.46911 0.14688 0.97703 0.0
H64 H 0.48754 0.1601 0.96103 0.0
H65 H 0.50985 0.21697 0.94817 0.0
O66 O 0.45519 0.202 0.23482 0.0
C67 C 0.502 0.24537 0.09413 0.0
Co68 Co 0.77221 0.49374 0.02249 0.0
Co69 Co 0.7695 0.49564 0.1531 0.0
C70 C 0.75143 0.5412 0.08842 0.0
O71 O 0.75652 0.52822 0.04379 0.0
O72 O 0.75586 0.53152 0.13635 0.0
C73 C 0.78761 0.51718 0.91471 0.0
O74 O 0.79234 0.54025 0.9426 0.0
C75 C 0.77268 0.50467 0.27644 0.0
C76 C 0.78073 0.46275 0.3016 0.0
C77 C 0.7774 0.48864 0.32255 0.0
N78 N 0.77358 0.48887 0.23054 0.0
N79 N 0.77827 0.46387 0.24612 0.0
C80 C 0.76596 0.53385 0.27598 0.0
H81 H 0.7519 0.537 0.24192 0.0
H82 H 0.78517 0.54779 0.26846 0.0
H83 H 0.75619 0.53924 0.31636 0.0
C84 C 0.83096 0.48982 0.04242 0.0
N85 N 0.80482 0.49124 0.06049 0.0
N86 N 0.80394 0.49317 0.11522 0.0
C87 C 0.82966 0.49364 0.13371 0.0
C88 C 0.84761 0.49137 0.08822 0.0
C89 C 0.83964 0.48662 0.98253 0.0
H90 H 0.82389 0.47285 0.96105 0.0
H91 H 0.84162 0.50709 0.9617 0.0
H92 H 0.85967 0.478 0.9787 0.0
O93 O 0.74525 0.46155 0.0391 0.0
O94 O 0.74146 0.4655 0.13106 0.0
H95 H 0.83366 0.47935 0.21699 0.0
H96 H 0.85913 0.50717 0.19581 0.0
C97 C 0.83722 0.49894 0.193 0.0
H98 H 0.82424 0.51393 0.21203 0.0
H99 H 0.7799 0.44755 0.21859 0.0
O100 O 0.7794 0.495 0.94098 0.0
C101 C 0.73426 0.45355 0.08596 0.0
Co102 Co 0.52889 0.77501 0.12219 0.0
Co103 Co 0.53062 0.77739 0.99097 0.0
C104 C 0.57335 0.75191 0.0506 0.0
O105 O 0.56143 0.75695 0.09696 0.0
O106 O 0.56401 0.75893 0.0043 0.0
C107 C 0.55281 0.78885 0.22695 0.0
O108 O 0.5742 0.79797 0.19496 0.0
C109 C 0.54425 0.78457 0.86938 0.0
C110 C 0.50421 0.79461 0.83992 0.0
C111 C 0.53074 0.79107 0.82182 0.0
N112 N 0.52641 0.78437 0.91345 0.0
N113 N 0.50253 0.79022 0.89536 0.0
C114 C 0.57386 0.78025 0.87372 0.0
H115 H 0.5817 0.78852 0.91387 0.0
H116 H 0.58641 0.79038 0.83851 0.0
H117 H 0.57582 0.75781 0.87285 0.0
C118 C 0.52607 0.83502 0.10675 0.0
N119 N 0.52885 0.80966 0.08667 0.0
N120 N 0.53084 0.81084 0.03178 0.0
C121 C 0.53002 0.83715 0.01531 0.0
C122 C 0.52673 0.85329 0.06216 0.0
C123 C 0.52022 0.84103 0.16693 0.0
H124 H 0.50768 0.8232 0.18706 0.0
H125 H 0.53993 0.84465 0.18852 0.0
H126 H 0.5092 0.85964 0.17164 0.0
O127 O 0.49508 0.75099 0.10568 0.0
O128 O 0.49755 0.75202 0.01314 0.0
H129 H 0.51269 0.84271 0.93608 0.0
H130 H 0.53941 0.86931 0.95333 0.0
C131 C 0.53282 0.84685 0.95591 0.0
H132 H 0.54808 0.83565 0.93268 0.0
H133 H 0.48508 0.79142 0.92108 0.0
O134 O 0.53088 0.77874 0.20441 0.0
C135 C 0.48548 0.74349 0.05879 0.0
C136 C 0.22311 0.51524 0.7673 0.0
C137 C 0.20342 0.4953 0.79151 0.0
C138 C 0.22296 0.52116 0.71018 0.0
C139 C 0.19979 0.48779 0.58008 0.0
H140 H 0.22036 0.55998 0.51404 0.0
C141 C 0.19915 0.50436 0.34348 0.0
C142 C 0.22265 0.51936 0.31905 0.0
C143 C 0.19457 0.50416 0.40126 0.0
C144 C 0.2147 0.53969 0.53199 0.0
H145 H 0.16745 0.46687 0.77607 0.0
H146 H 0.1667 0.47763 0.67692 0.0
H147 H 0.21587 0.55508 0.61568 0.0
H148 H 0.25924 0.54682 0.33597 0.0
H149 H 0.25133 0.54624 0.43709 0.0
H150 H 0.19889 0.4723 0.49685 0.0
C151 C 0.18265 0.48828 0.70147 0.0
C152 C 0.21215 0.53688 0.59011 0.0
C153 C 0.18297 0.48222 0.75827 0.0
C154 C 0.24098 0.53496 0.35352 0.0
C155 C 0.23637 0.53478 0.41142 0.0
C156 C 0.20223 0.49062 0.52222 0.0
C157 C 0.20308 0.50725 0.6764 0.0
C158 C 0.20474 0.51085 0.61479 0.0
C159 C 0.21337 0.51898 0.43593 0.0
C160 C 0.2098 0.51655 0.49749 0.0
H161 H 0.23947 0.5252 0.79172 0.0
H162 H 0.23918 0.53563 0.69209 0.0
H163 H 0.19471 0.46733 0.59761 0.0
H164 H 0.18445 0.49235 0.31809 0.0
H165 H 0.17643 0.49214 0.41889 0.0
C166 C 0.47651 0.21327 0.75017 0.0
C167 C 0.45829 0.20178 0.79274 0.0
C168 C 0.47087 0.20875 0.69421 0.0
C169 C 0.41776 0.19503 0.59564 0.0
H170 H 0.47534 0.16795 0.50263 0.0
C171 C 0.40936 0.18326 0.35566 0.0
C172 C 0.43342 0.19207 0.324 0.0
C173 C 0.41012 0.18041 0.41371 0.0
C174 C 0.45912 0.17571 0.52785 0.0
H175 H 0.41996 0.17574 0.80883 0.0
H176 H 0.40948 0.16912 0.71056 0.0
H177 H 0.48048 0.17131 0.60318 0.0
H178 H 0.47712 0.20475 0.32844 0.0
H179 H 0.47833 0.20053 0.42898 0.0
H180 H 0.397 0.20087 0.52007 0.0
C181 C 0.42812 0.18171 0.7213 0.0
C182 C 0.46202 0.17745 0.58541 0.0
C183 C 0.43401 0.18585 0.77766 0.0
C184 C 0.45822 0.19776 0.35146 0.0
C185 C 0.45895 0.19511 0.40926 0.0
C186 C 0.41499 0.19366 0.53774 0.0
C187 C 0.44674 0.19283 0.67926 0.0
C188 C 0.44169 0.1877 0.6196 0.0
C189 C 0.43495 0.18642 0.44121 0.0
C190 C 0.43601 0.18465 0.50304 0.0
H191 H 0.49539 0.22569 0.76001 0.0
H192 H 0.48541 0.21777 0.66245 0.0
H193 H 0.40187 0.20309 0.62132 0.0
H194 H 0.38993 0.17861 0.33567 0.0
H195 H 0.39131 0.17343 0.43697 0.0
C196 C 0.78532 0.49217 0.82399 0.0
C197 C 0.79086 0.51695 0.85319 0.0
C198 C 0.78716 0.49187 0.76586 0.0
C199 C 0.78454 0.53624 0.64243 0.0
H200 H 0.81079 0.47346 0.56676 0.0
C201 C 0.79037 0.52194 0.40007 0.0
C202 C 0.77896 0.49586 0.38236 0.0
C203 C 0.7938 0.52721 0.45697 0.0
C204 C 0.80339 0.49111 0.58736 0.0
H205 H 0.8032 0.56083 0.84424 0.0
H206 H 0.8067 0.56022 0.74225 0.0
H207 H 0.81473 0.47779 0.66741 0.0
H208 H 0.76202 0.45504 0.41028 0.0
H209 H 0.76824 0.46417 0.50895 0.0
H210 H 0.77306 0.54933 0.56179 0.0
C211 C 0.8006 0.54109 0.76454 0.0
C212 C 0.80558 0.49357 0.64498 0.0
C213 C 0.79873 0.5414 0.82292 0.0
C214 C 0.7709 0.47533 0.42255 0.0
C215 C 0.77456 0.4805 0.47904 0.0
C216 C 0.78254 0.53386 0.5845 0.0
C217 C 0.79471 0.51631 0.73538 0.0
C218 C 0.79548 0.51573 0.67343 0.0
C219 C 0.78636 0.50634 0.49678 0.0
C220 C 0.79127 0.51086 0.55677 0.0
H221 H 0.77914 0.47296 0.84595 0.0
H222 H 0.782 0.47249 0.74475 0.0
H223 H 0.77642 0.55348 0.66315 0.0
H224 H 0.79764 0.53791 0.37013 0.0
H225 H 0.80315 0.54725 0.46968 0.0
C226 C 0.55681 0.77375 0.73943 0.0
C227 C 0.54082 0.79329 0.76297 0.0
C228 C 0.56306 0.77406 0.68197 0.0
C229 C 0.56486 0.81696 0.55406 0.0
H230 H 0.54744 0.74732 0.47881 0.0
C231 C 0.57696 0.80429 0.31389 0.0
C232 C 0.55435 0.7898 0.28851 0.0
C233 C 0.57849 0.80482 0.37207 0.0
C234 C 0.55243 0.7669 0.49927 0.0
H235 H 0.51954 0.82885 0.74554 0.0
H236 H 0.53065 0.82957 0.64555 0.0
H237 H 0.54586 0.74877 0.5807 0.0
H238 H 0.51567 0.76446 0.30433 0.0
H239 H 0.51846 0.76529 0.40566 0.0
H240 H 0.57075 0.83518 0.47251 0.0
C241 C 0.53851 0.81414 0.67128 0.0
C242 C 0.55182 0.76769 0.55757 0.0
C243 C 0.53201 0.81363 0.72845 0.0
C244 C 0.53336 0.77582 0.32252 0.0
C245 C 0.53505 0.77612 0.38057 0.0
C246 C 0.56573 0.81613 0.49571 0.0
C247 C 0.55362 0.79403 0.6472 0.0
C248 C 0.55752 0.79281 0.58559 0.0
C249 C 0.55762 0.79061 0.40598 0.0
C250 C 0.55899 0.79117 0.46774 0.0
H251 H 0.56339 0.75749 0.76486 0.0
H252 H 0.5748 0.75834 0.66452 0.0
H253 H 0.5695 0.83659 0.57456 0.0
H254 H 0.59346 0.81528 0.28886 0.0
H255 H 0.59619 0.81606 0.39053 0.0
C256 C 0.8902 0.47509 0.12478 0.0
C257 C 0.87781 0.49217 0.08839 0.0
C258 C 0.91879 0.47606 0.12542 0.0
C259 C 0.98175 0.49781 0.0402 0.0
H260 H 0.01769 0.49404 0.1812 0.0
C261 C 0.09935 0.51713 0.0561 0.0
C262 C 0.11165 0.49869 0.08962 0.0
C263 C 0.07081 0.51688 0.05697 0.0
C264 C 0.00792 0.49488 0.14148 0.0
H265 H 0.88526 0.52396 0.02492 0.0
H266 H 0.93525 0.52584 0.02604 0.0
H267 H 0.96775 0.49236 0.18044 0.0
H268 H 0.10417 0.46576 0.15064 0.0
H269 H 0.05417 0.46531 0.1525 0.0
H270 H 0.02193 0.5004 0.00129 0.0
C271 C 0.92297 0.51131 0.05339 0.0
C272 C 0.97932 0.49387 0.14102 0.0
C273 C 0.89439 0.51028 0.05272 0.0
C274 C 0.09507 0.48031 0.12476 0.0
C275 C 0.06652 0.48011 0.12584 0.0
C276 C 0.01034 0.49889 0.04069 0.0
C277 C 0.93551 0.49421 0.08974 0.0
C278 C 0.96591 0.4953 0.09035 0.0
C279 C 0.05408 0.49825 0.09162 0.0
C280 C 0.02373 0.49742 0.09132 0.0
H281 H 0.87774 0.46081 0.15236 0.0
H282 H 0.92777 0.46234 0.15335 0.0
H283 H 0.97204 0.4985 0.0004 0.0
H284 H 0.11185 0.53169 0.02916 0.0
H285 H 0.06184 0.53138 0.03075 0.0
C286 C 0.50116 0.89164 0.03054 0.0
C287 C 0.52144 0.88249 0.06365 0.0
C288 C 0.49568 0.9191 0.03237 0.0
C289 C 0.50422 0.9814 0.12036 0.0
H290 H 0.48731 0.01826 0.9843 0.0
C291 C 0.49419 0.09808 0.10907 0.0
C292 C 0.4718 0.10594 0.0803 0.0
C293 C 0.50052 0.07088 0.10714 0.0
C294 C 0.49176 0.00814 0.02269 0.0
H295 H 0.55205 0.89455 0.12435 0.0
H296 H 0.54287 0.94286 0.12709 0.0
H297 H 0.49859 0.97083 0.98039 0.0
H298 H 0.43842 0.09188 0.02711 0.0
H299 H 0.44961 0.04415 0.02312 0.0
H300 H 0.49765 0.01892 0.16245 0.0
C301 C 0.53085 0.92877 0.10032 0.0
C302 C 0.49819 0.98096 0.02051 0.0
C303 C 0.53621 0.90121 0.09866 0.0
C304 C 0.45589 0.08624 0.04931 0.0
C305 C 0.46233 0.05904 0.04698 0.0
C306 C 0.49797 0.00865 0.12245 0.0
C307 C 0.51046 0.93803 0.06723 0.0
C308 C 0.50436 0.9672 0.06937 0.0
C309 C 0.4847 0.05109 0.07597 0.0
C310 C 0.49155 0.02225 0.07367 0.0
H311 H 0.48917 0.87742 0.00394 0.0
H312 H 0.47948 0.92536 0.00718 0.0
H313 H 0.50843 0.97131 0.15891 0.0
H314 H 0.50695 0.11308 0.13264 0.0
H315 H 0.51808 0.06543 0.1293 0.0
C316 C 0.38017 0.26052 0.04171 0.0
C317 C 0.39041 0.25014 0.09065 0.0
C318 C 0.35941 0.27806 0.04482 0.0
C319 C 0.33272 0.3281 0.14008 0.0
H320 H 0.27464 0.32821 0.03435 0.0
C321 C 0.25753 0.41124 0.14702 0.0
C322 C 0.25212 0.42269 0.09524 0.0
C323 C 0.27081 0.38731 0.14949 0.0
C324 C 0.29085 0.32854 0.06401 0.0
H325 H 0.38561 0.24875 0.18108 0.0
H326 H 0.34939 0.27918 0.18626 0.0
H327 H 0.30413 0.2909 0.03256 0.0
H328 H 0.25585 0.41752 0.00541 0.0
H329 H 0.27939 0.37631 0.00978 0.0
H330 H 0.32016 0.36609 0.17045 0.0
C331 C 0.35775 0.27413 0.1456 0.0
C332 C 0.30768 0.30715 0.063 0.0
C333 C 0.37845 0.25658 0.14253 0.0
C334 C 0.25969 0.40931 0.04607 0.0
C335 C 0.27302 0.38548 0.04854 0.0
C336 C 0.31599 0.34952 0.14094 0.0
C337 C 0.34847 0.2856 0.09689 0.0
C338 C 0.32903 0.3069 0.10058 0.0
C339 C 0.27902 0.37434 0.10024 0.0
C340 C 0.2951 0.35023 0.10241 0.0
H341 H 0.38885 0.25592 0.00106 0.0
H342 H 0.35281 0.2867 0.00653 0.0
H343 H 0.34926 0.32875 0.16902 0.0
H344 H 0.2518 0.4209 0.18571 0.0
H345 H 0.27478 0.37904 0.19001 0.0
C346 C 0.71057 0.4102 0.04661 0.0
C347 C 0.71218 0.43042 0.08825 0.0
C348 C 0.68938 0.38857 0.04865 0.0
C349 C 0.63316 0.35444 0.14328 0.0
H350 H 0.60481 0.32617 0.00346 0.0
C351 C 0.54537 0.26536 0.13784 0.0
C352 C 0.52672 0.26552 0.09474 0.0
C353 C 0.56906 0.28414 0.13729 0.0
C354 C 0.61214 0.33403 0.04302 0.0
H355 H 0.6928 0.44411 0.16435 0.0
H356 H 0.65509 0.40746 0.16641 0.0
H357 H 0.64319 0.36177 0.0023 0.0
H358 H 0.51777 0.28585 0.01809 0.0
H359 H 0.55803 0.31948 0.01859 0.0
H360 H 0.60087 0.32809 0.18392 0.0
C361 C 0.67067 0.40742 0.13328 0.0
C362 C 0.63466 0.35418 0.04237 0.0
C363 C 0.69221 0.42864 0.13192 0.0
C364 C 0.53196 0.28505 0.05159 0.0
C365 C 0.55525 0.30421 0.05168 0.0
C366 C 0.61025 0.33472 0.14392 0.0
C367 C 0.66891 0.38704 0.09167 0.0
C368 C 0.64546 0.36479 0.09248 0.0
C369 C 0.5743 0.30392 0.09425 0.0
C370 C 0.5993 0.32432 0.09378 0.0
H371 H 0.72588 0.41092 0.01276 0.0
H372 H 0.6892 0.37301 0.01651 0.0
H373 H 0.64113 0.36158 0.18285 0.0
H374 H 0.54194 0.25035 0.1714 0.0
H375 H 0.58339 0.28284 0.17029 0.0
C376 C 0.6101 0.72789 0.00129 0.0
C377 C 0.59755 0.73615 0.05121 0.0
C378 C 0.6312 0.71075 0.00258 0.0
C379 C 0.68021 0.68206 0.09666 0.0
H380 H 0.67283 0.6202 0.99513 0.0
C381 C 0.72915 0.58069 0.13101 0.0
C382 C 0.73916 0.56752 0.08361 0.0
C383 C 0.71553 0.60428 0.12526 0.0
C384 C 0.6755 0.63757 0.02322 0.0
H385 H 0.59829 0.73388 0.14167 0.0
H386 H 0.63453 0.70379 0.14374 0.0
H387 H 0.64299 0.65658 0.98703 0.0
H388 H 0.74396 0.56971 0.99319 0.0
H389 H 0.72051 0.61075 0.98347 0.0
H390 H 0.71229 0.66245 0.1338 0.0
C391 C 0.62838 0.71072 0.10359 0.0
C392 C 0.65841 0.65849 0.01847 0.0
C393 C 0.60737 0.72784 0.10234 0.0
C394 C 0.73622 0.57908 0.03063 0.0
C395 C 0.72269 0.60259 0.02494 0.0
C396 C 0.69728 0.66104 0.10152 0.0
C397 C 0.64019 0.70152 0.05377 0.0
C398 C 0.6603 0.68082 0.05556 0.0
C399 C 0.71169 0.61514 0.07204 0.0
C400 C 0.69489 0.63841 0.06522 0.0
H401 H 0.60318 0.73407 0.9612 0.0
H402 H 0.64018 0.70436 0.96344 0.0
H403 H 0.68245 0.69917 0.12542 0.0
H404 H 0.7311 0.57236 0.17241 0.0
H405 H 0.70712 0.61338 0.16236 0.0
C406 C 0.44562 0.71504 0.10648 0.0
C407 C 0.45992 0.72433 0.05697 0.0
C408 C 0.42175 0.69665 0.10458 0.0
C409 C 0.38614 0.64421 0.01504 0.0
H410 H 0.3237 0.65256 0.11511 0.0
C411 C 0.28614 0.5696 0.01126 0.0
C412 C 0.27495 0.56049 0.06375 0.0
C413 C 0.30713 0.59143 0.00719 0.0
C414 C 0.34104 0.64985 0.08713 0.0
H415 H 0.46007 0.72174 0.96651 0.0
H416 H 0.41843 0.68973 0.96337 0.0
H417 H 0.36359 0.68709 0.11462 0.0
H418 H 0.27673 0.56769 0.15299 0.0
H419 H 0.31335 0.60528 0.14586 0.0
H420 H 0.36383 0.6067 0.98829 0.0
C421 C 0.42585 0.6965 0.00365 0.0
C422 C 0.36388 0.66962 0.08689 0.0
C423 C 0.44966 0.71495 0.00551 0.0
C424 C 0.28483 0.57409 0.11186 0.0
C425 C 0.30574 0.59584 0.10778 0.0
C426 C 0.36331 0.62439 0.01537 0.0
C427 C 0.41168 0.68707 0.05315 0.0
C428 C 0.38682 0.66685 0.05132 0.0
C429 C 0.31732 0.60464 0.05548 0.0
C430 C 0.34064 0.62679 0.05194 0.0
H431 H 0.45293 0.72182 0.14683 0.0
H432 H 0.41148 0.68951 0.14349 0.0
H433 H 0.40362 0.64133 0.98759 0.0
H434 H 0.27894 0.55968 0.97333 0.0
H435 H 0.31542 0.59793 0.96622 0.0
loop_
_geom_bond_atom_site_label_1
_geom_bond_atom_site_label_2
_geom_bond_distance
_geom_bond_site_symmetry_2
_ccdc_geom_bond_type
Co0 O3 1.970 . S
Co0 N17 1.989 . S
Co0 O25 1.967 . S
Co0 O32 1.920 . S
Co1 O4 1.966 . S
Co1 N10 2.022 1_554 S
Co1 N18 1.993 . S
Co1 O26 1.941 . S
C2 O3 1.258 . S
C2 O4 1.263 . S
O3 Co0 1.970 . S
O3 C2 1.258 . S
O4 Co1 1.966 . S
O4 C2 1.263 . S
C5 O6 1.235 . S
C5 O32 1.289 . S
O6 C5 1.235 . S
C7 C9 1.400 . S
C7 N10 1.351 . S
C7 C12 1.501 . S
C8 C9 1.387 . S
C8 N11 1.341 . S
C9 C7 1.400 . S
C9 C8 1.387 . S
N10 Co1 2.022 1_556 S
N10 C7 1.351 . S
N10 N11 1.365 . S
N11 C8 1.341 . S
N11 N10 1.365 . S
N11 H31 0.862 . S
C12 C7 1.501 . S
C12 H13 0.961 . S
C12 H14 0.961 . S
C12 H15 0.960 . S
H13 C12 0.961 . S
H14 C12 0.961 . S
H15 C12 0.960 . S
C16 N17 1.342 . S
C16 C20 1.401 . S
C16 C21 1.499 . S
N17 Co0 1.989 . S
N17 C16 1.342 . S
N17 N18 1.388 . S
N18 Co1 1.993 . S
N18 N17 1.388 . S
N18 C19 1.346 . S
C19 N18 1.346 . S
C19 C20 1.396 . S
C19 C29 1.510 1_554 S
C20 C16 1.401 . S
C20 C19 1.396 . S
C21 C16 1.499 . S
C21 H22 0.959 . S
C21 H23 0.960 . S
C21 H24 0.961 . S
H22 C21 0.959 . S
H23 C21 0.960 . S
H24 C21 0.961 . S
O25 Co0 1.967 . S
O25 C33 1.258 . S
O26 Co1 1.941 . S
O26 C33 1.266 . S
H27 C29 0.959 . S
H28 C29 0.961 . S
C29 C19 1.510 1_556 S
C29 H27 0.959 . S
C29 H28 0.961 . S
C29 H30 0.960 . S
H30 C29 0.960 . S
H31 N11 0.862 . S
O32 Co0 1.920 . S
O32 C5 1.289 . S
C33 O25 1.258 . S
C33 O26 1.266 . S
Co34 O37 1.970 . S
Co34 N51 1.989 . S
Co34 O59 1.967 . S
Co34 O66 1.920 . S
Co35 O38 1.971 . S
Co35 N44 2.001 1_554 S
Co35 N52 2.002 . S
Co35 O60 1.947 . S
C36 O37 1.258 . S
C36 O38 1.263 . S
O37 Co34 1.970 . S
O37 C36 1.258 . S
O38 Co35 1.971 . S
O38 C36 1.263 . S
C39 O40 1.235 . S
C39 O66 1.289 . S
O40 C39 1.235 . S
C41 C43 1.400 . S
C41 N44 1.351 . S
C41 C46 1.501 . S
C42 C43 1.387 . S
C42 N45 1.341 . S
C43 C41 1.400 . S
C43 C42 1.387 . S
N44 Co35 2.001 1_556 S
N44 C41 1.351 . S
N44 N45 1.365 . S
N45 C42 1.341 . S
N45 N44 1.365 . S
N45 H65 0.862 . S
C46 C41 1.501 . S
C46 H47 0.961 . S
C46 H48 0.961 . S
C46 H49 0.960 . S
H47 C46 0.961 . S
H48 C46 0.961 . S
H49 C46 0.960 . S
C50 N51 1.342 . S
C50 C54 1.401 . S
C50 C55 1.499 . S
N51 Co34 1.989 . S
N51 C50 1.342 . S
N51 N52 1.388 . S
N52 Co35 2.002 . S
N52 N51 1.388 . S
N52 C53 1.346 . S
C53 N52 1.346 . S
C53 C54 1.396 . S
C53 C63 1.510 1_554 S
C54 C50 1.401 . S
C54 C53 1.396 . S
C55 C50 1.499 . S
C55 H56 0.959 . S
C55 H57 0.960 . S
C55 H58 0.961 . S
H56 C55 0.959 . S
H57 C55 0.960 . S
H58 C55 0.961 . S
O59 Co34 1.967 . S
O59 C67 1.258 . S
O60 Co35 1.947 . S
O60 C67 1.266 . S
H61 C63 0.959 . S
H62 C63 0.961 . S
C63 C53 1.510 1_556 S
C63 H61 0.959 . S
C63 H62 0.961 . S
C63 H64 0.960 . S
H64 C63 0.960 . S
H65 N45 0.862 . S
O66 Co34 1.920 . S
O66 C39 1.289 . S
C67 O59 1.258 . S
C67 O60 1.266 . S
Co68 O71 1.970 . S
Co68 N85 1.989 . S
Co68 O93 1.967 . S
Co68 O100 1.920 1_554 S
Co69 O72 1.966 . S
Co69 N78 2.022 . S
Co69 N86 1.993 . S
Co69 O94 1.941 . S
C70 O71 1.258 . S
C70 O72 1.263 . S
O71 Co68 1.970 . S
O71 C70 1.258 . S
O72 Co69 1.966 . S
O72 C70 1.263 . S
C73 O74 1.235 . S
C73 O100 1.289 . S
O74 C73 1.235 . S
C75 C77 1.400 . S
C75 N78 1.351 . S
C75 C80 1.501 . S
C76 C77 1.387 . S
C76 N79 1.341 . S
C77 C75 1.400 . S
C77 C76 1.387 . S
N78 Co69 2.022 . S
N78 C75 1.351 . S
N78 N79 1.365 . S
N79 C76 1.341 . S
N79 N78 1.365 . S
N79 H99 0.862 . S
C80 C75 1.501 . S
C80 H81 0.961 . S
C80 H82 0.961 . S
C80 H83 0.960 . S
H81 C80 0.961 . S
H82 C80 0.961 . S
H83 C80 0.960 . S
C84 N85 1.342 . S
C84 C88 1.401 . S
C84 C89 1.512 . S
N85 Co68 1.989 . S
N85 C84 1.342 . S
N85 N86 1.388 . S
N86 Co69 1.993 . S
N86 N85 1.388 . S
N86 C87 1.346 . S
C87 N86 1.346 . S
C87 C88 1.396 . S
C87 C97 1.510 . S
C88 C84 1.401 . S
C88 C87 1.396 . S
C89 C84 1.512 . S
C89 H90 0.951 1_554 S
C89 H91 0.956 1_554 S
C89 H92 0.959 1_554 S
H90 C89 0.951 1_556 S
H91 C89 0.956 1_556 S
H92 C89 0.959 1_556 S
O93 Co68 1.967 . S
O93 C101 1.258 . S
O94 Co69 1.941 . S
O94 C101 1.266 . S
H95 C97 0.959 . S
H96 C97 0.961 . S
C97 C87 1.510 . S
C97 H95 0.959 . S
C97 H96 0.961 . S
C97 H98 0.960 . S
H98 C97 0.960 . S
H99 N79 0.862 . S
O100 Co68 1.920 1_556 S
O100 C73 1.289 . S
C101 O93 1.258 . S
C101 O94 1.266 . S
Co102 O105 1.970 . S
Co102 N119 1.989 . S
Co102 O127 1.967 . S
Co102 O134 1.920 . S
Co103 O106 1.966 1_556 S
Co103 N112 2.022 . S
Co103 N120 1.993 1_556 S
Co103 O128 1.941 1_556 S
C104 O105 1.258 . S
C104 O106 1.263 . S
O105 Co102 1.970 . S
O105 C104 1.258 . S
O106 Co103 1.966 1_554 S
O106 C104 1.263 . S
C107 O108 1.235 . S
C107 O134 1.289 . S
O108 C107 1.235 . S
C109 C111 1.400 . S
C109 N112 1.351 . S
C109 C114 1.501 . S
C110 C111 1.387 . S
C110 N113 1.341 . S
C111 C109 1.400 . S
C111 C110 1.387 . S
N112 Co103 2.022 . S
N112 C109 1.351 . S
N112 N113 1.365 . S
N113 C110 1.341 . S
N113 N112 1.365 . S
N113 H133 0.862 . S
C114 C109 1.501 . S
C114 H115 0.961 . S
C114 H116 0.961 . S
C114 H117 0.960 . S
H115 C114 0.961 . S
H116 C114 0.961 . S
H117 C114 0.960 . S
C118 N119 1.342 . S
C118 C122 1.401 . S
C118 C123 1.499 . S
N119 Co102 1.989 . S
N119 C118 1.342 . S
N119 N120 1.388 . S
N120 Co103 1.993 1_554 S
N120 N119 1.388 . S
N120 C121 1.346 . S
C121 N120 1.346 . S
C121 C122 1.396 . S
C121 C131 1.510 1_554 S
C122 C118 1.401 . S
C122 C121 1.396 . S
C123 C118 1.499 . S
C123 H124 0.959 . S
C123 H125 0.960 . S
C123 H126 0.961 . S
H124 C123 0.959 . S
H125 C123 0.960 . S
H126 C123 0.961 . S
O127 Co102 1.967 . S
O127 C135 1.258 . S
O128 Co103 1.941 1_554 S
O128 C135 1.266 . S
H129 C131 0.959 . S
H130 C131 0.961 . S
C131 C121 1.510 1_556 S
C131 H129 0.959 . S
C131 H130 0.961 . S
C131 H132 0.960 . S
H132 C131 0.960 . S
H133 N113 0.862 . S
O134 Co102 1.920 . S
O134 C107 1.289 . S
C135 O127 1.258 . S
C135 O128 1.266 . S
C136 C137 1.349 . S
C136 C138 1.327 . S
C136 H161 0.950 . S
C137 C136 1.349 . S
C137 C153 1.349 . S
C138 C136 1.327 . S
C138 C157 1.429 . S
C138 H162 0.950 . S
C139 C156 1.574 . S
C139 C158 1.368 . S
C139 H163 0.949 . S
H140 C144 0.949 . S
C141 C142 1.349 . S
C141 C143 1.327 . S
C141 H164 0.950 . S
C142 C141 1.349 . S
C142 C154 1.349 . S
C143 C141 1.327 . S
C143 C159 1.429 . S
C143 H165 0.950 . S
C144 H140 0.949 . S
C144 C152 1.574 . S
C144 C160 1.368 . S
H145 C153 0.950 . S
H146 C151 0.950 . S
H147 C152 0.949 . S
H148 C154 0.950 . S
H149 C155 0.950 . S
H150 C156 0.949 . S
C151 H146 0.950 . S
C151 C153 1.327 . S
C151 C157 1.429 . S
C152 C144 1.574 . S
C152 H147 0.949 . S
C152 C158 1.368 . S
C153 C137 1.349 . S
C153 H145 0.950 . S
C153 C151 1.327 . S
C154 C142 1.349 . S
C154 H148 0.950 . S
C154 C155 1.327 . S
C155 H149 0.950 . S
C155 C154 1.327 . S
C155 C159 1.429 . S
C156 C139 1.574 . S
C156 H150 0.949 . S
C156 C160 1.368 . S
C157 C138 1.429 . S
C157 C151 1.429 . S
C157 C158 1.523 . S
C158 C139 1.368 . S
C158 C152 1.368 . S
C158 C157 1.523 . S
C159 C143 1.429 . S
C159 C155 1.429 . S
C159 C160 1.523 . S
C160 C144 1.368 . S
C160 C156 1.368 . S
C160 C159 1.523 . S
H161 C136 0.950 . S
H162 C138 0.950 . S
H163 C139 0.949 . S
H164 C141 0.950 . S
H165 C143 0.950 . S
C166 C167 1.349 . S
C166 C168 1.327 . S
C166 H191 0.950 . S
C167 C166 1.349 . S
C167 C183 1.349 . S
C168 C166 1.327 . S
C168 C187 1.429 . S
C168 H192 0.950 . S
C169 C186 1.574 . S
C169 C188 1.368 . S
C169 H193 0.949 . S
H170 C174 0.949 . S
C171 C172 1.349 . S
C171 C173 1.327 . S
C171 H194 0.950 . S
C172 C171 1.349 . S
C172 C184 1.349 . S
C173 C171 1.327 . S
C173 C189 1.429 . S
C173 H195 0.950 . S
C174 H170 0.949 . S
C174 C182 1.574 . S
C174 C190 1.368 . S
H175 C183 0.950 . S
H176 C181 0.950 . S
H177 C182 0.949 . S
H178 C184 0.950 . S
H179 C185 0.950 . S
H180 C186 0.949 . S
C181 H176 0.950 . S
C181 C183 1.327 . S
C181 C187 1.429 . S
C182 C174 1.574 . S
C182 H177 0.949 . S
C182 C188 1.368 . S
C183 C167 1.349 . S
C183 H175 0.950 . S
C183 C181 1.327 . S
C184 C172 1.349 . S
C184 H178 0.950 . S
C184 C185 1.327 . S
C185 H179 0.950 . S
C185 C184 1.327 . S
C185 C189 1.429 . S
C186 C169 1.574 . S
C186 H180 0.949 . S
C186 C190 1.368 . S
C187 C168 1.429 . S
C187 C181 1.429 . S
C187 C188 1.523 . S
C188 C169 1.368 . S
C188 C182 1.368 . S
C188 C187 1.523 . S
C189 C173 1.429 . S
C189 C185 1.429 . S
C189 C190 1.523 . S
C190 C174 1.368 . S
C190 C186 1.368 . S
C190 C189 1.523 . S
H191 C166 0.950 . S
H192 C168 0.950 . S
H193 C169 0.949 . S
H194 C171 0.950 . S
H195 C173 0.950 . S
C196 C197 1.349 . S
C196 C198 1.327 . S
C196 H221 0.950 . S
C197 C196 1.349 . S
C197 C213 1.349 . S
C198 C196 1.327 . S
C198 C217 1.429 . S
C198 H222 0.950 . S
C199 C216 1.574 . S
C199 C218 1.368 . S
C199 H223 0.949 . S
H200 C204 0.949 . S
C201 C202 1.349 . S
C201 C203 1.327 . S
C201 H224 0.950 . S
C202 C201 1.349 . S
C202 C214 1.349 . S
C203 C201 1.327 . S
C203 C219 1.429 . S
C203 H225 0.950 . S
C204 H200 0.949 . S
C204 C212 1.574 . S
C204 C220 1.368 . S
H205 C213 0.950 . S
H206 C211 0.950 . S
H207 C212 0.949 . S
H208 C214 0.950 . S
H209 C215 0.950 . S
H210 C216 0.949 . S
C211 H206 0.950 . S
C211 C213 1.327 . S
C211 C217 1.429 . S
C212 C204 1.574 . S
C212 H207 0.949 . S
C212 C218 1.368 . S
C213 C197 1.349 . S
C213 H205 0.950 . S
C213 C211 1.327 . S
C214 C202 1.349 . S
C214 H208 0.950 . S
C214 C215 1.327 . S
C215 H209 0.950 . S
C215 C214 1.327 . S
C215 C219 1.429 . S
C216 C199 1.574 . S
C216 H210 0.949 . S
C216 C220 1.368 . S
C217 C198 1.429 . S
C217 C211 1.429 . S
C217 C218 1.523 . S
C218 C199 1.368 . S
C218 C212 1.368 . S
C218 C217 1.523 . S
C219 C203 1.429 . S
C219 C215 1.429 . S
C219 C220 1.523 . S
C220 C204 1.368 . S
C220 C216 1.368 . S
C220 C219 1.523 . S
H221 C196 0.950 . S
H222 C198 0.950 . S
H223 C199 0.949 . S
H224 C201 0.950 . S
H225 C203 0.950 . S
C226 C227 1.349 . S
C226 C228 1.327 . S
C226 H251 0.950 . S
C227 C226 1.349 . S
C227 C243 1.349 . S
C228 C226 1.327 . S
C228 C247 1.429 . S
C228 H252 0.950 . S
C229 C246 1.574 . S
C229 C248 1.368 . S
C229 H253 0.949 . S
H230 C234 0.949 . S
C231 C232 1.349 . S
C231 C233 1.327 . S
C231 H254 0.950 . S
C232 C231 1.349 . S
C232 C244 1.349 . S
C233 C231 1.327 . S
C233 C249 1.429 . S
C233 H255 0.950 . S
C234 H230 0.949 . S
C234 C242 1.574 . S
C234 C250 1.368 . S
H235 C243 0.950 . S
H236 C241 0.950 . S
H237 C242 0.949 . S
H238 C244 0.950 . S
H239 C245 0.950 . S
H240 C246 0.949 . S
C241 H236 0.950 . S
C241 C243 1.327 . S
C241 C247 1.429 . S
C242 C234 1.574 . S
C242 H237 0.949 . S
C242 C248 1.368 . S
C243 C227 1.349 . S
C243 H235 0.950 . S
C243 C241 1.327 . S
C244 C232 1.349 . S
C244 H238 0.950 . S
C244 C245 1.327 . S
C245 H239 0.950 . S
C245 C244 1.327 . S
C245 C249 1.429 . S
C246 C229 1.574 . S
C246 H240 0.949 . S
C246 C250 1.368 . S
C247 C228 1.429 . S
C247 C241 1.429 . S
C247 C248 1.523 . S
C248 C229 1.368 . S
C248 C242 1.368 . S
C248 C247 1.523 . S
C249 C233 1.429 . S
C249 C245 1.429 . S
C249 C250 1.523 . S
C250 C234 1.368 . S
C250 C246 1.368 . S
C250 C249 1.523 . S
H251 C226 0.950 . S
H252 C228 0.950 . S
H253 C229 0.949 . S
H254 C231 0.950 . S
H255 C233 0.950 . S
C256 C257 1.349 . S
C256 C258 1.327 . S
C256 H281 0.950 . S
C257 C256 1.349 . S
C257 C273 1.349 . S
C258 C256 1.327 . S
C258 C277 1.429 . S
C258 H282 0.950 . S
C259 C276 1.574 1_655 S
C259 C278 1.368 . S
C259 H283 0.949 . S
H260 C264 0.949 . S
C261 C262 1.349 . S
C261 C263 1.327 . S
C261 H284 0.950 . S
C262 C261 1.349 . S
C262 C274 1.349 . S
C263 C261 1.327 . S
C263 C279 1.429 . S
C263 H285 0.950 . S
C264 H260 0.949 . S
C264 C272 1.574 1_455 S
C264 C280 1.368 . S
H265 C273 0.950 . S
H266 C271 0.950 . S
H267 C272 0.949 . S
H268 C274 0.950 . S
H269 C275 0.950 . S
H270 C276 0.949 . S
C271 H266 0.950 . S
C271 C273 1.327 . S
C271 C277 1.429 . S
C272 C264 1.574 1_655 S
C272 H267 0.949 . S
C272 C278 1.368 . S
C273 C257 1.349 . S
C273 H265 0.950 . S
C273 C271 1.327 . S
C274 C262 1.349 . S
C274 H268 0.950 . S
C274 C275 1.327 . S
C275 H269 0.950 . S
C275 C274 1.327 . S
C275 C279 1.429 . S
C276 C259 1.574 1_455 S
C276 H270 0.949 . S
C276 C280 1.368 . S
C277 C258 1.429 . S
C277 C271 1.429 . S
C277 C278 1.523 . S
C278 C259 1.368 . S
C278 C272 1.368 . S
C278 C277 1.523 . S
C279 C263 1.429 . S
C279 C275 1.429 . S
C279 C280 1.523 . S
C280 C264 1.368 . S
C280 C276 1.368 . S
C280 C279 1.523 . S
H281 C256 0.950 . S
H282 C258 0.950 . S
H283 C259 0.949 . S
H284 C261 0.950 . S
H285 C263 0.950 . S
C286 C287 1.349 . S
C286 C288 1.327 . S
C286 H311 0.950 1_554 S
C287 C286 1.349 . S
C287 C303 1.349 . S
C288 C286 1.327 . S
C288 C307 1.429 . S
C288 H312 0.950 1_554 S
C289 C306 1.574 1_565 S
C289 C308 1.368 . S
C289 H313 0.949 . S
H290 C294 0.949 1_556 S
C291 C292 1.349 . S
C291 C293 1.327 . S
C291 H314 0.950 . S
C292 C291 1.349 . S
C292 C304 1.349 . S
C293 C291 1.327 . S
C293 C309 1.429 . S
C293 H315 0.950 . S
C294 H290 0.949 1_554 S
C294 C302 1.574 1_545 S
C294 C310 1.368 . S
H295 C303 0.950 . S
H296 C301 0.950 . S
H297 C302 0.949 1_556 S
H298 C304 0.950 1_556 S
H299 C305 0.950 1_556 S
H300 C306 0.949 . S
C301 H296 0.950 . S
C301 C303 1.327 . S
C301 C307 1.429 . S
C302 C294 1.574 1_565 S
C302 H297 0.949 1_554 S
C302 C308 1.368 . S
C303 C287 1.349 . S
C303 H295 0.950 . S
C303 C301 1.327 . S
C304 C292 1.349 . S
C304 H298 0.950 1_554 S
C304 C305 1.327 . S
C305 H299 0.950 1_554 S
C305 C304 1.327 . S
C305 C309 1.429 . S
C306 C289 1.574 1_545 S
C306 H300 0.949 . S
C306 C310 1.368 . S
C307 C288 1.429 . S
C307 C301 1.429 . S
C307 C308 1.523 . S
C308 C289 1.368 . S
C308 C302 1.368 . S
C308 C307 1.523 . S
C309 C293 1.429 . S
C309 C305 1.429 . S
C309 C310 1.523 . S
C310 C294 1.368 . S
C310 C306 1.368 . S
C310 C309 1.523 . S
H311 C286 0.950 1_556 S
H312 C288 0.950 1_556 S
H313 C289 0.949 . S
H314 C291 0.950 . S
H315 C293 0.950 . S
C316 C317 1.349 . S
C316 C318 1.327 . S
C316 H341 0.950 1_554 S
C317 C316 1.349 . S
C317 C333 1.349 . S
C318 C316 1.327 . S
C318 C337 1.429 . S
C318 H342 0.950 1_554 S
C319 C336 1.574 . S
C319 C338 1.368 . S
C319 H343 0.949 . S
H320 C324 0.949 . S
C321 C322 1.349 . S
C321 C323 1.327 . S
C321 H344 0.950 . S
C322 C321 1.349 . S
C322 C334 1.349 . S
C323 C321 1.327 . S
C323 C339 1.429 . S
C323 H345 0.950 . S
C324 H320 0.949 . S
C324 C332 1.574 . S
C324 C340 1.368 . S
H325 C333 0.950 . S
H326 C331 0.950 . S
H327 C332 0.949 1_556 S
H328 C334 0.950 . S
H329 C335 0.950 . S
H330 C336 0.949 . S
C331 H326 0.950 . S
C331 C333 1.327 . S
C331 C337 1.429 . S
C332 C324 1.574 . S
C332 H327 0.949 1_554 S
C332 C338 1.368 . S
C333 C317 1.349 . S
C333 H325 0.950 . S
C333 C331 1.327 . S
C334 C322 1.349 . S
C334 H328 0.950 . S
C334 C335 1.327 . S
C335 H329 0.950 . S
C335 C334 1.327 . S
C335 C339 1.429 . S
C336 C319 1.574 . S
C336 H330 0.949 . S
C336 C340 1.368 . S
C337 C318 1.429 . S
C337 C331 1.429 . S
C337 C338 1.523 . S
C338 C319 1.368 . S
C338 C332 1.368 . S
C338 C337 1.523 . S
C339 C323 1.429 . S
C339 C335 1.429 . S
C339 C340 1.523 . S
C340 C324 1.368 . S
C340 C336 1.368 . S
C340 C339 1.523 . S
H341 C316 0.950 1_556 S
H342 C318 0.950 1_556 S
H343 C319 0.949 . S
H344 C321 0.950 . S
H345 C323 0.950 . S
C346 C347 1.349 . S
C346 C348 1.327 . S
C346 H371 0.950 . S
C347 C346 1.349 . S
C347 C363 1.349 . S
C348 C346 1.327 . S
C348 C367 1.429 . S
C348 H372 0.950 . S
C349 C366 1.574 . S
C349 C368 1.368 . S
C349 H373 0.949 . S
H350 C354 0.934 1_556 S
C351 C352 1.349 . S
C351 C353 1.327 . S
C351 H374 0.950 . S
C352 C351 1.349 . S
C352 C364 1.349 . S
C353 C351 1.327 . S
C353 C369 1.429 . S
C353 H375 0.950 . S
C354 H350 0.934 1_554 S
C354 C362 1.574 . S
C354 C370 1.368 . S
H355 C363 0.950 . S
H356 C361 0.950 . S
H357 C362 0.949 . S
H358 C364 0.950 1_556 S
H359 C365 0.950 1_556 S
H360 C366 0.949 . S
C361 H356 0.950 . S
C361 C363 1.327 . S
C361 C367 1.429 . S
C362 C354 1.574 . S
C362 H357 0.949 . S
C362 C368 1.368 . S
C363 C347 1.349 . S
C363 H355 0.950 . S
C363 C361 1.327 . S
C364 C352 1.349 . S
C364 H358 0.950 1_554 S
C364 C365 1.327 . S
C365 H359 0.950 1_554 S
C365 C364 1.327 . S
C365 C369 1.429 . S
C366 C349 1.574 . S
C366 H360 0.949 . S
C366 C370 1.368 . S
C367 C348 1.429 . S
C367 C361 1.429 . S
C367 C368 1.523 . S
C368 C349 1.368 . S
C368 C362 1.368 . S
C368 C367 1.523 . S
C369 C353 1.429 . S
C369 C365 1.429 . S
C369 C370 1.523 . S
C370 C354 1.368 . S
C370 C366 1.368 . S
C370 C369 1.523 . S
H371 C346 0.950 . S
H372 C348 0.950 . S
H373 C349 0.949 . S
H374 C351 0.950 . S
H375 C353 0.950 . S
C376 C377 1.349 . S
C376 C378 1.327 . S
C376 H401 0.950 1_554 S
C377 C376 1.349 . S
C377 C393 1.349 . S
C378 C376 1.327 . S
C378 C397 1.429 . S
C378 H402 0.950 1_554 S
C379 C396 1.574 . S
C379 C398 1.368 . S
C379 H403 0.949 . S
H380 C384 0.949 . S
C381 C382 1.349 . S
C381 C383 1.327 . S
C381 H404 0.950 . S
C382 C381 1.349 . S
C382 C394 1.349 . S
C383 C381 1.327 . S
C383 C399 1.429 . S
C383 H405 0.950 . S
C384 H380 0.949 . S
C384 C392 1.574 . S
C384 C400 1.368 . S
H385 C393 0.950 . S
H386 C391 0.950 . S
H387 C392 0.951 1_556 S
H388 C394 0.950 . S
H389 C395 0.950 . S
H390 C396 0.949 . S
C391 H386 0.950 . S
C391 C393 1.327 . S
C391 C397 1.429 . S
C392 C384 1.574 . S
C392 H387 0.951 1_554 S
C392 C398 1.368 . S
C393 C377 1.349 . S
C393 H385 0.950 . S
C393 C391 1.327 . S
C394 C382 1.349 . S
C394 H388 0.950 . S
C394 C395 1.327 . S
C395 H389 0.950 . S
C395 C394 1.327 . S
C395 C399 1.429 . S
C396 C379 1.574 . S
C396 H390 0.949 . S
C396 C400 1.368 . S
C397 C378 1.429 . S
C397 C391 1.429 . S
C397 C398 1.523 . S
C398 C379 1.368 . S
C398 C392 1.368 . S
C398 C397 1.523 . S
C399 C383 1.429 . S
C399 C395 1.429 . S
C399 C400 1.523 . S
C400 C384 1.368 . S
C400 C396 1.368 . S
C400 C399 1.523 . S
H401 C376 0.950 1_556 S
H402 C378 0.950 1_556 S
H403 C379 0.949 . S
H404 C381 0.950 . S
H405 C383 0.950 . S
C406 C407 1.349 . S
C406 C408 1.327 . S
C406 H431 0.950 . S
C407 C406 1.349 . S
C407 C423 1.349 . S
C408 C406 1.327 . S
C408 C427 1.429 . S
C408 H432 0.950 . S
C409 C426 1.574 . S
C409 C428 1.368 . S
C409 H433 0.949 . S
H410 C414 0.949 . S
C411 C412 1.349 . S
C411 C413 1.327 . S
C411 H434 0.950 . S
C412 C411 1.349 . S
C412 C424 1.349 . S
C413 C411 1.327 . S
C413 C429 1.429 . S
C413 H435 0.950 . S
C414 H410 0.949 . S
C414 C422 1.574 . S
C414 C430 1.368 . S
H415 C423 0.950 . S
H416 C421 0.950 . S
H417 C422 0.949 . S
H418 C424 0.950 . S
H419 C425 0.950 . S
H420 C426 0.949 . S
C421 H416 0.950 . S
C421 C423 1.327 . S
C421 C427 1.429 . S
C422 C414 1.574 . S
C422 H417 0.949 . S
C422 C428 1.368 . S
C423 C407 1.349 . S
C423 H415 0.950 . S
C423 C421 1.327 . S
C424 C412 1.349 . S
C424 H418 0.950 . S
C424 C425 1.327 . S
C425 H419 0.950 . S
C425 C424 1.327 . S
C425 C429 1.429 . S
C426 C409 1.574 . S
C426 H420 0.949 . S
C426 C430 1.368 . S
C427 C408 1.429 . S
C427 C421 1.429 . S
C427 C428 1.523 . S
C428 C409 1.368 . S
C428 C422 1.368 . S
C428 C427 1.523 . S
C429 C413 1.429 . S
C429 C425 1.429 . S
C429 C430 1.523 . S
C430 C414 1.368 . S
C430 C426 1.368 . S
C430 C429 1.523 . S
H431 C406 0.950 . S
H432 C408 0.950 . S
H433 C409 0.949 . S
H434 C411 0.950 . S
H435 C413 0.950 . S
C137 C9 1.393 . S
C142 C5 1.485 . S
C167 C43 1.397 . S
C172 C39 1.478 . S
C197 C73 1.478 . S
C202 C77 1.390 . S
C227 C111 1.387 . S
C232 C107 1.488 . S
C257 C88 1.454 . S
C262 C20 1.454 . S
C287 C122 1.455 . S
C292 C54 1.455 . S
C317 C36 1.440 . S
C322 C33 1.432 . S
C347 C101 1.451 . S
C352 C67 1.455 . S
C377 C104 1.478 . S
C382 C70 1.480 . S
C407 C135 1.494 . S
C412 C2 1.498 . S
