# Generated by pormake.
# Topology dia-j, (6)-cn, num edge types: 1
# Building blocks:
#     Node 0, Type 0, BuildingBlock: OJICUG_clean_sbu_0, # of connection points: 6
#     Node 1, Type 0, BuildingBlock: OJICUG_clean_sbu_0, # of connection points: 6
#     Node 2, Type 0, BuildingBlock: OJICUG_clean_sbu_0, # of connection points: 6
#     Node 3, Type 0, BuildingBlock: OJICUG_clean_sbu_0, # of connection points: 6
#     Node 4, Type 0, BuildingBlock: OJICUG_clean_sbu_0, # of connection points: 6
#     Node 5, Type 0, BuildingBlock: OJICUG_clean_sbu_0, # of connection points: 6
#     Node 6, Type 0, BuildingBlock: OJICUG_clean_sbu_0, # of connection points: 6
#     Node 7, Type 0, BuildingBlock: OJICUG_clean_sbu_0, # of connection points: 6
#     Node 8, Type 0, BuildingBlock: OJICUG_clean_sbu_0, # of connection points: 6
#     Node 9, Type 0, BuildingBlock: OJICUG_clean_sbu_0, # of connection points: 6
#     Node 10, Type 0, BuildingBlock: OJICUG_clean_sbu_0, # of connection points: 6
#     Node 11, Type 0, BuildingBlock: OJICUG_clean_sbu_0, # of connection points: 6
#     Node 12, Type 0, BuildingBlock: OJICUG_clean_sbu_0, # of connection points: 6
#     Node 13, Type 0, BuildingBlock: OJICUG_clean_sbu_0, # of connection points: 6
#     Node 14, Type 0, BuildingBlock: OJICUG_clean_sbu_0, # of connection points: 6
#     Node 15, Type 0, BuildingBlock: OJICUG_clean_sbu_0, # of connection points: 6
#     Node 16, Type 0, BuildingBlock: OJICUG_clean_sbu_0, # of connection points: 6
#     Node 17, Type 0, BuildingBlock: OJICUG_clean_sbu_0, # of connection points: 6
#     Node 18, Type 0, BuildingBlock: OJICUG_clean_sbu_0, # of connection points: 6
#     Node 19, Type 0, BuildingBlock: OJICUG_clean_sbu_0, # of connection points: 6
#     Node 20, Type 0, BuildingBlock: OJICUG_clean_sbu_0, # of connection points: 6
#     Node 21, Type 0, BuildingBlock: OJICUG_clean_sbu_0, # of connection points: 6
#     Node 22, Type 0, BuildingBlock: OJICUG_clean_sbu_0, # of connection points: 6
#     Node 23, Type 0, BuildingBlock: OJICUG_clean_sbu_0, # of connection points: 6
#     Node 24, Type 0, BuildingBlock: OJICUG_clean_sbu_0, # of connection points: 6
#     Node 25, Type 0, BuildingBlock: OJICUG_clean_sbu_0, # of connection points: 6
#     Node 26, Type 0, BuildingBlock: OJICUG_clean_sbu_0, # of connection points: 6
#     Node 27, Type 0, BuildingBlock: OJICUG_clean_sbu_0, # of connection points: 6
#     Node 28, Type 0, BuildingBlock: OJICUG_clean_sbu_0, # of connection points: 6
#     Node 29, Type 0, BuildingBlock: OJICUG_clean_sbu_0, # of connection points: 6
#     Node 30, Type 0, BuildingBlock: OJICUG_clean_sbu_0, # of connection points: 6
#     Node 31, Type 0, BuildingBlock: OJICUG_clean_sbu_0, # of connection points: 6
#     Node 32, Type 0, BuildingBlock: OJICUG_clean_sbu_0, # of connection points: 6
#     Node 33, Type 0, BuildingBlock: OJICUG_clean_sbu_0, # of connection points: 6
#     Node 34, Type 0, BuildingBlock: OJICUG_clean_sbu_0, # of connection points: 6
#     Node 35, Type 0, BuildingBlock: OJICUG_clean_sbu_0, # of connection points: 6
#     Node 36, Type 0, BuildingBlock: OJICUG_clean_sbu_0, # of connection points: 6
#     Node 37, Type 0, BuildingBlock: OJICUG_clean_sbu_0, # of connection points: 6
#     Node 38, Type 0, BuildingBlock: OJICUG_clean_sbu_0, # of connection points: 6
#     Node 39, Type 0, BuildingBlock: OJICUG_clean_sbu_0, # of connection points: 6
#     Node 40, Type 0, BuildingBlock: OJICUG_clean_sbu_0, # of connection points: 6
#     Node 41, Type 0, BuildingBlock: OJICUG_clean_sbu_0, # of connection points: 6
#     Node 42, Type 0, BuildingBlock: OJICUG_clean_sbu_0, # of connection points: 6
#     Node 43, Type 0, BuildingBlock: OJICUG_clean_sbu_0, # of connection points: 6
#     Node 44, Type 0, BuildingBlock: OJICUG_clean_sbu_0, # of connection points: 6
#     Node 45, Type 0, BuildingBlock: OJICUG_clean_sbu_0, # of connection points: 6
#     Node 46, Type 0, BuildingBlock: OJICUG_clean_sbu_0, # of connection points: 6
#     Node 47, Type 0, BuildingBlock: OJICUG_clean_sbu_0, # of connection points: 6
#     Node 48, Type 0, BuildingBlock: OJICUG_clean_sbu_0, # of connection points: 6
#     Node 49, Type 0, BuildingBlock: OJICUG_clean_sbu_0, # of connection points: 6
#     Node 50, Type 0, BuildingBlock: OJICUG_clean_sbu_0, # of connection points: 6
#     Node 51, Type 0, BuildingBlock: OJICUG_clean_sbu_0, # of connection points: 6
#     Node 52, Type 0, BuildingBlock: OJICUG_clean_sbu_0, # of connection points: 6
#     Node 53, Type 0, BuildingBlock: OJICUG_clean_sbu_0, # of connection points: 6
#     Node 54, Type 0, BuildingBlock: OJICUG_clean_sbu_0, # of connection points: 6
#     Node 55, Type 0, BuildingBlock: OJICUG_clean_sbu_0, # of connection points: 6
#     Node 56, Type 0, BuildingBlock: OJICUG_clean_sbu_0, # of connection points: 6
#     Node 57, Type 0, BuildingBlock: OJICUG_clean_sbu_0, # of connection points: 6
#     Node 58, Type 0, BuildingBlock: OJICUG_clean_sbu_0, # of connection points: 6
#     Node 59, Type 0, BuildingBlock: OJICUG_clean_sbu_0, # of connection points: 6
#     Node 60, Type 0, BuildingBlock: OJICUG_clean_sbu_0, # of connection points: 6
#     Node 61, Type 0, BuildingBlock: OJICUG_clean_sbu_0, # of connection points: 6
#     Node 62, Type 0, BuildingBlock: OJICUG_clean_sbu_0, # of connection points: 6
#     Node 63, Type 0, BuildingBlock: OJICUG_clean_sbu_0, # of connection points: 6
#     Node 64, Type 0, BuildingBlock: OJICUG_clean_sbu_0, # of connection points: 6
#     Node 65, Type 0, BuildingBlock: OJICUG_clean_sbu_0, # of connection points: 6
#     Node 66, Type 0, BuildingBlock: OJICUG_clean_sbu_0, # of connection points: 6
#     Node 67, Type 0, BuildingBlock: OJICUG_clean_sbu_0, # of connection points: 6
#     Node 68, Type 0, BuildingBlock: OJICUG_clean_sbu_0, # of connection points: 6
#     Node 69, Type 0, BuildingBlock: OJICUG_clean_sbu_0, # of connection points: 6
#     Node 70, Type 0, BuildingBlock: OJICUG_clean_sbu_0, # of connection points: 6
#     Node 71, Type 0, BuildingBlock: OJICUG_clean_sbu_0, # of connection points: 6
#     Node 72, Type 0, BuildingBlock: OJICUG_clean_sbu_0, # of connection points: 6
#     Node 73, Type 0, BuildingBlock: OJICUG_clean_sbu_0, # of connection points: 6
#     Node 74, Type 0, BuildingBlock: OJICUG_clean_sbu_0, # of connection points: 6
#     Node 75, Type 0, BuildingBlock: OJICUG_clean_sbu_0, # of connection points: 6
#     Node 76, Type 0, BuildingBlock: OJICUG_clean_sbu_0, # of connection points: 6
#     Node 77, Type 0, BuildingBlock: OJICUG_clean_sbu_0, # of connection points: 6
#     Node 78, Type 0, BuildingBlock: OJICUG_clean_sbu_0, # of connection points: 6
#     Node 79, Type 0, BuildingBlock: OJICUG_clean_sbu_0, # of connection points: 6
#     Node 80, Type 0, BuildingBlock: OJICUG_clean_sbu_0, # of connection points: 6
#     Node 81, Type 0, BuildingBlock: OJICUG_clean_sbu_0, # of connection points: 6
#     Node 82, Type 0, BuildingBlock: OJICUG_clean_sbu_0, # of connection points: 6
#     Node 83, Type 0, BuildingBlock: OJICUG_clean_sbu_0, # of connection points: 6
#     Node 84, Type 0, BuildingBlock: OJICUG_clean_sbu_0, # of connection points: 6
#     Node 85, Type 0, BuildingBlock: OJICUG_clean_sbu_0, # of connection points: 6
#     Node 86, Type 0, BuildingBlock: OJICUG_clean_sbu_0, # of connection points: 6
#     Node 87, Type 0, BuildingBlock: OJICUG_clean_sbu_0, # of connection points: 6
#     Node 88, Type 0, BuildingBlock: OJICUG_clean_sbu_0, # of connection points: 6
#     Node 89, Type 0, BuildingBlock: OJICUG_clean_sbu_0, # of connection points: 6
#     Node 90, Type 0, BuildingBlock: OJICUG_clean_sbu_0, # of connection points: 6
#     Node 91, Type 0, BuildingBlock: OJICUG_clean_sbu_0, # of connection points: 6
#     Node 92, Type 0, BuildingBlock: OJICUG_clean_sbu_0, # of connection points: 6
#     Node 93, Type 0, BuildingBlock: OJICUG_clean_sbu_0, # of connection points: 6
#     Node 94, Type 0, BuildingBlock: OJICUG_clean_sbu_0, # of connection points: 6
#     Node 95, Type 0, BuildingBlock: OJICUG_clean_sbu_0, # of connection points: 6
#     Edge 96, Type (0, 0), BuildingBlock: XIVTED_clean_linker_0, # of connection points: 2
#     Edge 97, Type (0, 0), BuildingBlock: XIVTED_clean_linker_0, # of connection points: 2
#     Edge 98, Type (0, 0), BuildingBlock: XIVTED_clean_linker_0, # of connection points: 2
#     Edge 99, Type (0, 0), BuildingBlock: XIVTED_clean_linker_0, # of connection points: 2
#     Edge 100, Type (0, 0), BuildingBlock: XIVTED_clean_linker_0, # of connection points: 2
#     Edge 101, Type (0, 0), BuildingBlock: XIVTED_clean_linker_0, # of connection points: 2
#     Edge 102, Type (0, 0), BuildingBlock: XIVTED_clean_linker_0, # of connection points: 2
#     Edge 103, Type (0, 0), BuildingBlock: XIVTED_clean_linker_0, # of connection points: 2
#     Edge 104, Type (0, 0), BuildingBlock: XIVTED_clean_linker_0, # of connection points: 2
#     Edge 105, Type (0, 0), BuildingBlock: XIVTED_clean_linker_0, # of connection points: 2
#     Edge 106, Type (0, 0), BuildingBlock: XIVTED_clean_linker_0, # of connection points: 2
#     Edge 107, Type (0, 0), BuildingBlock: XIVTED_clean_linker_0, # of connection points: 2
#     Edge 108, Type (0, 0), BuildingBlock: XIVTED_clean_linker_0, # of connection points: 2
#     Edge 109, Type (0, 0), BuildingBlock: XIVTED_clean_linker_0, # of connection points: 2
#     Edge 110, Type (0, 0), BuildingBlock: XIVTED_clean_linker_0, # of connection points: 2
#     Edge 111, Type (0, 0), BuildingBlock: XIVTED_clean_linker_0, # of connection points: 2
#     Edge 112, Type (0, 0), BuildingBlock: XIVTED_clean_linker_0, # of connection points: 2
#     Edge 113, Type (0, 0), BuildingBlock: XIVTED_clean_linker_0, # of connection points: 2
#     Edge 114, Type (0, 0), BuildingBlock: XIVTED_clean_linker_0, # of connection points: 2
#     Edge 115, Type (0, 0), BuildingBlock: XIVTED_clean_linker_0, # of connection points: 2
#     Edge 116, Type (0, 0), BuildingBlock: XIVTED_clean_linker_0, # of connection points: 2
#     Edge 117, Type (0, 0), BuildingBlock: XIVTED_clean_linker_0, # of connection points: 2
#     Edge 118, Type (0, 0), BuildingBlock: XIVTED_clean_linker_0, # of connection points: 2
#     Edge 119, Type (0, 0), BuildingBlock: XIVTED_clean_linker_0, # of connection points: 2
#     Edge 120, Type (0, 0), BuildingBlock: XIVTED_clean_linker_0, # of connection points: 2
#     Edge 121, Type (0, 0), BuildingBlock: XIVTED_clean_linker_0, # of connection points: 2
#     Edge 122, Type (0, 0), BuildingBlock: XIVTED_clean_linker_0, # of connection points: 2
#     Edge 123, Type (0, 0), BuildingBlock: XIVTED_clean_linker_0, # of connection points: 2
#     Edge 124, Type (0, 0), BuildingBlock: XIVTED_clean_linker_0, # of connection points: 2
#     Edge 125, Type (0, 0), BuildingBlock: XIVTED_clean_linker_0, # of connection points: 2
#     Edge 126, Type (0, 0), BuildingBlock: XIVTED_clean_linker_0, # of connection points: 2
#     Edge 127, Type (0, 0), BuildingBlock: XIVTED_clean_linker_0, # of connection points: 2
#     Edge 128, Type (0, 0), BuildingBlock: XIVTED_clean_linker_0, # of connection points: 2
#     Edge 129, Type (0, 0), BuildingBlock: XIVTED_clean_linker_0, # of connection points: 2
#     Edge 130, Type (0, 0), BuildingBlock: XIVTED_clean_linker_0, # of connection points: 2
#     Edge 131, Type (0, 0), BuildingBlock: XIVTED_clean_linker_0, # of connection points: 2
#     Edge 132, Type (0, 0), BuildingBlock: XIVTED_clean_linker_0, # of connection points: 2
#     Edge 133, Type (0, 0), BuildingBlock: XIVTED_clean_linker_0, # of connection points: 2
#     Edge 134, Type (0, 0), BuildingBlock: XIVTED_clean_linker_0, # of connection points: 2
#     Edge 135, Type (0, 0), BuildingBlock: XIVTED_clean_linker_0, # of connection points: 2
#     Edge 136, Type (0, 0), BuildingBlock: XIVTED_clean_linker_0, # of connection points: 2
#     Edge 137, Type (0, 0), BuildingBlock: XIVTED_clean_linker_0, # of connection points: 2
#     Edge 138, Type (0, 0), BuildingBlock: XIVTED_clean_linker_0, # of connection points: 2
#     Edge 139, Type (0, 0), BuildingBlock: XIVTED_clean_linker_0, # of connection points: 2
#     Edge 140, Type (0, 0), BuildingBlock: XIVTED_clean_linker_0, # of connection points: 2
#     Edge 141, Type (0, 0), BuildingBlock: XIVTED_clean_linker_0, # of connection points: 2
#     Edge 142, Type (0, 0), BuildingBlock: XIVTED_clean_linker_0, # of connection points: 2
#     Edge 143, Type (0, 0), BuildingBlock: XIVTED_clean_linker_0, # of connection points: 2
#     Edge 144, Type (0, 0), BuildingBlock: XIVTED_clean_linker_0, # of connection points: 2
#     Edge 145, Type (0, 0), BuildingBlock: XIVTED_clean_linker_0, # of connection points: 2
#     Edge 146, Type (0, 0), BuildingBlock: XIVTED_clean_linker_0, # of connection points: 2
#     Edge 147, Type (0, 0), BuildingBlock: XIVTED_clean_linker_0, # of connection points: 2
#     Edge 148, Type (0, 0), BuildingBlock: XIVTED_clean_linker_0, # of connection points: 2
#     Edge 149, Type (0, 0), BuildingBlock: XIVTED_clean_linker_0, # of connection points: 2
#     Edge 150, Type (0, 0), BuildingBlock: XIVTED_clean_linker_0, # of connection points: 2
#     Edge 151, Type (0, 0), BuildingBlock: XIVTED_clean_linker_0, # of connection points: 2
#     Edge 152, Type (0, 0), BuildingBlock: XIVTED_clean_linker_0, # of connection points: 2
#     Edge 153, Type (0, 0), BuildingBlock: XIVTED_clean_linker_0, # of connection points: 2
#     Edge 154, Type (0, 0), BuildingBlock: XIVTED_clean_linker_0, # of connection points: 2
#     Edge 155, Type (0, 0), BuildingBlock: XIVTED_clean_linker_0, # of connection points: 2
#     Edge 156, Type (0, 0), BuildingBlock: XIVTED_clean_linker_0, # of connection points: 2
#     Edge 157, Type (0, 0), BuildingBlock: XIVTED_clean_linker_0, # of connection points: 2
#     Edge 158, Type (0, 0), BuildingBlock: XIVTED_clean_linker_0, # of connection points: 2
#     Edge 159, Type (0, 0), BuildingBlock: XIVTED_clean_linker_0, # of connection points: 2
#     Edge 160, Type (0, 0), BuildingBlock: XIVTED_clean_linker_0, # of connection points: 2
#     Edge 161, Type (0, 0), BuildingBlock: XIVTED_clean_linker_0, # of connection points: 2
#     Edge 162, Type (0, 0), BuildingBlock: XIVTED_clean_linker_0, # of connection points: 2
#     Edge 163, Type (0, 0), BuildingBlock: XIVTED_clean_linker_0, # of connection points: 2
#     Edge 164, Type (0, 0), BuildingBlock: XIVTED_clean_linker_0, # of connection points: 2
#     Edge 165, Type (0, 0), BuildingBlock: XIVTED_clean_linker_0, # of connection points: 2
#     Edge 166, Type (0, 0), BuildingBlock: XIVTED_clean_linker_0, # of connection points: 2
#     Edge 167, Type (0, 0), BuildingBlock: XIVTED_clean_linker_0, # of connection points: 2
#     Edge 168, Type (0, 0), BuildingBlock: XIVTED_clean_linker_0, # of connection points: 2
#     Edge 169, Type (0, 0), BuildingBlock: XIVTED_clean_linker_0, # of connection points: 2
#     Edge 170, Type (0, 0), BuildingBlock: XIVTED_clean_linker_0, # of connection points: 2
#     Edge 171, Type (0, 0), BuildingBlock: XIVTED_clean_linker_0, # of connection points: 2
#     Edge 172, Type (0, 0), BuildingBlock: XIVTED_clean_linker_0, # of connection points: 2
#     Edge 173, Type (0, 0), BuildingBlock: XIVTED_clean_linker_0, # of connection points: 2
#     Edge 174, Type (0, 0), BuildingBlock: XIVTED_clean_linker_0, # of connection points: 2
#     Edge 175, Type (0, 0), BuildingBlock: XIVTED_clean_linker_0, # of connection points: 2
#     Edge 176, Type (0, 0), BuildingBlock: XIVTED_clean_linker_0, # of connection points: 2
#     Edge 177, Type (0, 0), BuildingBlock: XIVTED_clean_linker_0, # of connection points: 2
#     Edge 178, Type (0, 0), BuildingBlock: XIVTED_clean_linker_0, # of connection points: 2
#     Edge 179, Type (0, 0), BuildingBlock: XIVTED_clean_linker_0, # of connection points: 2
#     Edge 180, Type (0, 0), BuildingBlock: XIVTED_clean_linker_0, # of connection points: 2
#     Edge 181, Type (0, 0), BuildingBlock: XIVTED_clean_linker_0, # of connection points: 2
#     Edge 182, Type (0, 0), BuildingBlock: XIVTED_clean_linker_0, # of connection points: 2
#     Edge 183, Type (0, 0), BuildingBlock: XIVTED_clean_linker_0, # of connection points: 2
#     Edge 184, Type (0, 0), BuildingBlock: XIVTED_clean_linker_0, # of connection points: 2
#     Edge 185, Type (0, 0), BuildingBlock: XIVTED_clean_linker_0, # of connection points: 2
#     Edge 186, Type (0, 0), BuildingBlock: XIVTED_clean_linker_0, # of connection points: 2
#     Edge 187, Type (0, 0), BuildingBlock: XIVTED_clean_linker_0, # of connection points: 2
#     Edge 188, Type (0, 0), BuildingBlock: XIVTED_clean_linker_0, # of connection points: 2
#     Edge 189, Type (0, 0), BuildingBlock: XIVTED_clean_linker_0, # of connection points: 2
#     Edge 190, Type (0, 0), BuildingBlock: XIVTED_clean_linker_0, # of connection points: 2
#     Edge 191, Type (0, 0), BuildingBlock: XIVTED_clean_linker_0, # of connection points: 2
#     Edge 192, Type (0, 0), BuildingBlock: XIVTED_clean_linker_0, # of connection points: 2
#     Edge 193, Type (0, 0), BuildingBlock: XIVTED_clean_linker_0, # of connection points: 2
#     Edge 194, Type (0, 0), BuildingBlock: XIVTED_clean_linker_0, # of connection points: 2
#     Edge 195, Type (0, 0), BuildingBlock: XIVTED_clean_linker_0, # of connection points: 2
#     Edge 196, Type (0, 0), BuildingBlock: XIVTED_clean_linker_0, # of connection points: 2
#     Edge 197, Type (0, 0), BuildingBlock: XIVTED_clean_linker_0, # of connection points: 2
#     Edge 198, Type (0, 0), BuildingBlock: XIVTED_clean_linker_0, # of connection points: 2
#     Edge 199, Type (0, 0), BuildingBlock: XIVTED_clean_linker_0, # of connection points: 2
#     Edge 200, Type (0, 0), BuildingBlock: XIVTED_clean_linker_0, # of connection points: 2
#     Edge 201, Type (0, 0), BuildingBlock: XIVTED_clean_linker_0, # of connection points: 2
#     Edge 202, Type (0, 0), BuildingBlock: XIVTED_clean_linker_0, # of connection points: 2
#     Edge 203, Type (0, 0), BuildingBlock: XIVTED_clean_linker_0, # of connection points: 2
#     Edge 204, Type (0, 0), BuildingBlock: XIVTED_clean_linker_0, # of connection points: 2
#     Edge 205, Type (0, 0), BuildingBlock: XIVTED_clean_linker_0, # of connection points: 2
#     Edge 206, Type (0, 0), BuildingBlock: XIVTED_clean_linker_0, # of connection points: 2
#     Edge 207, Type (0, 0), BuildingBlock: XIVTED_clean_linker_0, # of connection points: 2
#     Edge 208, Type (0, 0), BuildingBlock: XIVTED_clean_linker_0, # of connection points: 2
#     Edge 209, Type (0, 0), BuildingBlock: XIVTED_clean_linker_0, # of connection points: 2
#     Edge 210, Type (0, 0), BuildingBlock: XIVTED_clean_linker_0, # of connection points: 2
#     Edge 211, Type (0, 0), BuildingBlock: XIVTED_clean_linker_0, # of connection points: 2
#     Edge 212, Type (0, 0), BuildingBlock: XIVTED_clean_linker_0, # of connection points: 2
#     Edge 213, Type (0, 0), BuildingBlock: XIVTED_clean_linker_0, # of connection points: 2
#     Edge 214, Type (0, 0), BuildingBlock: XIVTED_clean_linker_0, # of connection points: 2
#     Edge 215, Type (0, 0), BuildingBlock: XIVTED_clean_linker_0, # of connection points: 2
#     Edge 216, Type (0, 0), BuildingBlock: XIVTED_clean_linker_0, # of connection points: 2
#     Edge 217, Type (0, 0), BuildingBlock: XIVTED_clean_linker_0, # of connection points: 2
#     Edge 218, Type (0, 0), BuildingBlock: XIVTED_clean_linker_0, # of connection points: 2
#     Edge 219, Type (0, 0), BuildingBlock: XIVTED_clean_linker_0, # of connection points: 2
#     Edge 220, Type (0, 0), BuildingBlock: XIVTED_clean_linker_0, # of connection points: 2
#     Edge 221, Type (0, 0), BuildingBlock: XIVTED_clean_linker_0, # of connection points: 2
#     Edge 222, Type (0, 0), BuildingBlock: XIVTED_clean_linker_0, # of connection points: 2
#     Edge 223, Type (0, 0), BuildingBlock: XIVTED_clean_linker_0, # of connection points: 2
#     Edge 224, Type (0, 0), BuildingBlock: XIVTED_clean_linker_0, # of connection points: 2
#     Edge 225, Type (0, 0), BuildingBlock: XIVTED_clean_linker_0, # of connection points: 2
#     Edge 226, Type (0, 0), BuildingBlock: XIVTED_clean_linker_0, # of connection points: 2
#     Edge 227, Type (0, 0), BuildingBlock: XIVTED_clean_linker_0, # of connection points: 2
#     Edge 228, Type (0, 0), BuildingBlock: XIVTED_clean_linker_0, # of connection points: 2
#     Edge 229, Type (0, 0), BuildingBlock: XIVTED_clean_linker_0, # of connection points: 2
#     Edge 230, Type (0, 0), BuildingBlock: XIVTED_clean_linker_0, # of connection points: 2
#     Edge 231, Type (0, 0), BuildingBlock: XIVTED_clean_linker_0, # of connection points: 2
#     Edge 232, Type (0, 0), BuildingBlock: XIVTED_clean_linker_0, # of connection points: 2
#     Edge 233, Type (0, 0), BuildingBlock: XIVTED_clean_linker_0, # of connection points: 2
#     Edge 234, Type (0, 0), BuildingBlock: XIVTED_clean_linker_0, # of connection points: 2
#     Edge 235, Type (0, 0), BuildingBlock: XIVTED_clean_linker_0, # of connection points: 2
#     Edge 236, Type (0, 0), BuildingBlock: XIVTED_clean_linker_0, # of connection points: 2
#     Edge 237, Type (0, 0), BuildingBlock: XIVTED_clean_linker_0, # of connection points: 2
#     Edge 238, Type (0, 0), BuildingBlock: XIVTED_clean_linker_0, # of connection points: 2
#     Edge 239, Type (0, 0), BuildingBlock: XIVTED_clean_linker_0, # of connection points: 2
#     Edge 240, Type (0, 0), BuildingBlock: XIVTED_clean_linker_0, # of connection points: 2
#     Edge 241, Type (0, 0), BuildingBlock: XIVTED_clean_linker_0, # of connection points: 2
#     Edge 242, Type (0, 0), BuildingBlock: XIVTED_clean_linker_0, # of connection points: 2
#     Edge 243, Type (0, 0), BuildingBlock: XIVTED_clean_linker_0, # of connection points: 2
#     Edge 244, Type (0, 0), BuildingBlock: XIVTED_clean_linker_0, # of connection points: 2
#     Edge 245, Type (0, 0), BuildingBlock: XIVTED_clean_linker_0, # of connection points: 2
#     Edge 246, Type (0, 0), BuildingBlock: XIVTED_clean_linker_0, # of connection points: 2
#     Edge 247, Type (0, 0), BuildingBlock: XIVTED_clean_linker_0, # of connection points: 2
#     Edge 248, Type (0, 0), BuildingBlock: XIVTED_clean_linker_0, # of connection points: 2
#     Edge 249, Type (0, 0), BuildingBlock: XIVTED_clean_linker_0, # of connection points: 2
#     Edge 250, Type (0, 0), BuildingBlock: XIVTED_clean_linker_0, # of connection points: 2
#     Edge 251, Type (0, 0), BuildingBlock: XIVTED_clean_linker_0, # of connection points: 2
#     Edge 252, Type (0, 0), BuildingBlock: XIVTED_clean_linker_0, # of connection points: 2
#     Edge 253, Type (0, 0), BuildingBlock: XIVTED_clean_linker_0, # of connection points: 2
#     Edge 254, Type (0, 0), BuildingBlock: XIVTED_clean_linker_0, # of connection points: 2
#     Edge 255, Type (0, 0), BuildingBlock: XIVTED_clean_linker_0, # of connection points: 2
#     Edge 256, Type (0, 0), BuildingBlock: XIVTED_clean_linker_0, # of connection points: 2
#     Edge 257, Type (0, 0), BuildingBlock: XIVTED_clean_linker_0, # of connection points: 2
#     Edge 258, Type (0, 0), BuildingBlock: XIVTED_clean_linker_0, # of connection points: 2
#     Edge 259, Type (0, 0), BuildingBlock: XIVTED_clean_linker_0, # of connection points: 2
#     Edge 260, Type (0, 0), BuildingBlock: XIVTED_clean_linker_0, # of connection points: 2
#     Edge 261, Type (0, 0), BuildingBlock: XIVTED_clean_linker_0, # of connection points: 2
#     Edge 262, Type (0, 0), BuildingBlock: XIVTED_clean_linker_0, # of connection points: 2
#     Edge 263, Type (0, 0), BuildingBlock: XIVTED_clean_linker_0, # of connection points: 2
#     Edge 264, Type (0, 0), BuildingBlock: XIVTED_clean_linker_0, # of connection points: 2
#     Edge 265, Type (0, 0), BuildingBlock: XIVTED_clean_linker_0, # of connection points: 2
#     Edge 266, Type (0, 0), BuildingBlock: XIVTED_clean_linker_0, # of connection points: 2
#     Edge 267, Type (0, 0), BuildingBlock: XIVTED_clean_linker_0, # of connection points: 2
#     Edge 268, Type (0, 0), BuildingBlock: XIVTED_clean_linker_0, # of connection points: 2
#     Edge 269, Type (0, 0), BuildingBlock: XIVTED_clean_linker_0, # of connection points: 2
#     Edge 270, Type (0, 0), BuildingBlock: XIVTED_clean_linker_0, # of connection points: 2
#     Edge 271, Type (0, 0), BuildingBlock: XIVTED_clean_linker_0, # of connection points: 2
#     Edge 272, Type (0, 0), BuildingBlock: XIVTED_clean_linker_0, # of connection points: 2
#     Edge 273, Type (0, 0), BuildingBlock: XIVTED_clean_linker_0, # of connection points: 2
#     Edge 274, Type (0, 0), BuildingBlock: XIVTED_clean_linker_0, # of connection points: 2
#     Edge 275, Type (0, 0), BuildingBlock: XIVTED_clean_linker_0, # of connection points: 2
#     Edge 276, Type (0, 0), BuildingBlock: XIVTED_clean_linker_0, # of connection points: 2
#     Edge 277, Type (0, 0), BuildingBlock: XIVTED_clean_linker_0, # of connection points: 2
#     Edge 278, Type (0, 0), BuildingBlock: XIVTED_clean_linker_0, # of connection points: 2
#     Edge 279, Type (0, 0), BuildingBlock: XIVTED_clean_linker_0, # of connection points: 2
#     Edge 280, Type (0, 0), BuildingBlock: XIVTED_clean_linker_0, # of connection points: 2
#     Edge 281, Type (0, 0), BuildingBlock: XIVTED_clean_linker_0, # of connection points: 2
#     Edge 282, Type (0, 0), BuildingBlock: XIVTED_clean_linker_0, # of connection points: 2
#     Edge 283, Type (0, 0), BuildingBlock: XIVTED_clean_linker_0, # of connection points: 2
#     Edge 284, Type (0, 0), BuildingBlock: XIVTED_clean_linker_0, # of connection points: 2
#     Edge 285, Type (0, 0), BuildingBlock: XIVTED_clean_linker_0, # of connection points: 2
#     Edge 286, Type (0, 0), BuildingBlock: XIVTED_clean_linker_0, # of connection points: 2
#     Edge 287, Type (0, 0), BuildingBlock: XIVTED_clean_linker_0, # of connection points: 2
#     Edge 288, Type (0, 0), BuildingBlock: XIVTED_clean_linker_0, # of connection points: 2
#     Edge 289, Type (0, 0), BuildingBlock: XIVTED_clean_linker_0, # of connection points: 2
#     Edge 290, Type (0, 0), BuildingBlock: XIVTED_clean_linker_0, # of connection points: 2
#     Edge 291, Type (0, 0), BuildingBlock: XIVTED_clean_linker_0, # of connection points: 2
#     Edge 292, Type (0, 0), BuildingBlock: XIVTED_clean_linker_0, # of connection points: 2
#     Edge 293, Type (0, 0), BuildingBlock: XIVTED_clean_linker_0, # of connection points: 2
#     Edge 294, Type (0, 0), BuildingBlock: XIVTED_clean_linker_0, # of connection points: 2
#     Edge 295, Type (0, 0), BuildingBlock: XIVTED_clean_linker_0, # of connection points: 2
#     Edge 296, Type (0, 0), BuildingBlock: XIVTED_clean_linker_0, # of connection points: 2
#     Edge 297, Type (0, 0), BuildingBlock: XIVTED_clean_linker_0, # of connection points: 2
#     Edge 298, Type (0, 0), BuildingBlock: XIVTED_clean_linker_0, # of connection points: 2
#     Edge 299, Type (0, 0), BuildingBlock: XIVTED_clean_linker_0, # of connection points: 2
#     Edge 300, Type (0, 0), BuildingBlock: XIVTED_clean_linker_0, # of connection points: 2
#     Edge 301, Type (0, 0), BuildingBlock: XIVTED_clean_linker_0, # of connection points: 2
#     Edge 302, Type (0, 0), BuildingBlock: XIVTED_clean_linker_0, # of connection points: 2
#     Edge 303, Type (0, 0), BuildingBlock: XIVTED_clean_linker_0, # of connection points: 2
#     Edge 304, Type (0, 0), BuildingBlock: XIVTED_clean_linker_0, # of connection points: 2
#     Edge 305, Type (0, 0), BuildingBlock: XIVTED_clean_linker_0, # of connection points: 2
#     Edge 306, Type (0, 0), BuildingBlock: XIVTED_clean_linker_0, # of connection points: 2
#     Edge 307, Type (0, 0), BuildingBlock: XIVTED_clean_linker_0, # of connection points: 2
#     Edge 308, Type (0, 0), BuildingBlock: XIVTED_clean_linker_0, # of connection points: 2
#     Edge 309, Type (0, 0), BuildingBlock: XIVTED_clean_linker_0, # of connection points: 2
#     Edge 310, Type (0, 0), BuildingBlock: XIVTED_clean_linker_0, # of connection points: 2
#     Edge 311, Type (0, 0), BuildingBlock: XIVTED_clean_linker_0, # of connection points: 2
#     Edge 312, Type (0, 0), BuildingBlock: XIVTED_clean_linker_0, # of connection points: 2
#     Edge 313, Type (0, 0), BuildingBlock: XIVTED_clean_linker_0, # of connection points: 2
#     Edge 314, Type (0, 0), BuildingBlock: XIVTED_clean_linker_0, # of connection points: 2
#     Edge 315, Type (0, 0), BuildingBlock: XIVTED_clean_linker_0, # of connection points: 2
#     Edge 316, Type (0, 0), BuildingBlock: XIVTED_clean_linker_0, # of connection points: 2
#     Edge 317, Type (0, 0), BuildingBlock: XIVTED_clean_linker_0, # of connection points: 2
#     Edge 318, Type (0, 0), BuildingBlock: XIVTED_clean_linker_0, # of connection points: 2
#     Edge 319, Type (0, 0), BuildingBlock: XIVTED_clean_linker_0, # of connection points: 2
#     Edge 320, Type (0, 0), BuildingBlock: XIVTED_clean_linker_0, # of connection points: 2
#     Edge 321, Type (0, 0), BuildingBlock: XIVTED_clean_linker_0, # of connection points: 2
#     Edge 322, Type (0, 0), BuildingBlock: XIVTED_clean_linker_0, # of connection points: 2
#     Edge 323, Type (0, 0), BuildingBlock: XIVTED_clean_linker_0, # of connection points: 2
#     Edge 324, Type (0, 0), BuildingBlock: XIVTED_clean_linker_0, # of connection points: 2
#     Edge 325, Type (0, 0), BuildingBlock: XIVTED_clean_linker_0, # of connection points: 2
#     Edge 326, Type (0, 0), BuildingBlock: XIVTED_clean_linker_0, # of connection points: 2
#     Edge 327, Type (0, 0), BuildingBlock: XIVTED_clean_linker_0, # of connection points: 2
#     Edge 328, Type (0, 0), BuildingBlock: XIVTED_clean_linker_0, # of connection points: 2
#     Edge 329, Type (0, 0), BuildingBlock: XIVTED_clean_linker_0, # of connection points: 2
#     Edge 330, Type (0, 0), BuildingBlock: XIVTED_clean_linker_0, # of connection points: 2
#     Edge 331, Type (0, 0), BuildingBlock: XIVTED_clean_linker_0, # of connection points: 2
#     Edge 332, Type (0, 0), BuildingBlock: XIVTED_clean_linker_0, # of connection points: 2
#     Edge 333, Type (0, 0), BuildingBlock: XIVTED_clean_linker_0, # of connection points: 2
#     Edge 334, Type (0, 0), BuildingBlock: XIVTED_clean_linker_0, # of connection points: 2
#     Edge 335, Type (0, 0), BuildingBlock: XIVTED_clean_linker_0, # of connection points: 2
#     Edge 336, Type (0, 0), BuildingBlock: XIVTED_clean_linker_0, # of connection points: 2
#     Edge 337, Type (0, 0), BuildingBlock: XIVTED_clean_linker_0, # of connection points: 2
#     Edge 338, Type (0, 0), BuildingBlock: XIVTED_clean_linker_0, # of connection points: 2
#     Edge 339, Type (0, 0), BuildingBlock: XIVTED_clean_linker_0, # of connection points: 2
#     Edge 340, Type (0, 0), BuildingBlock: XIVTED_clean_linker_0, # of connection points: 2
#     Edge 341, Type (0, 0), BuildingBlock: XIVTED_clean_linker_0, # of connection points: 2
#     Edge 342, Type (0, 0), BuildingBlock: XIVTED_clean_linker_0, # of connection points: 2
#     Edge 343, Type (0, 0), BuildingBlock: XIVTED_clean_linker_0, # of connection points: 2
#     Edge 344, Type (0, 0), BuildingBlock: XIVTED_clean_linker_0, # of connection points: 2
#     Edge 345, Type (0, 0), BuildingBlock: XIVTED_clean_linker_0, # of connection points: 2
#     Edge 346, Type (0, 0), BuildingBlock: XIVTED_clean_linker_0, # of connection points: 2
#     Edge 347, Type (0, 0), BuildingBlock: XIVTED_clean_linker_0, # of connection points: 2
#     Edge 348, Type (0, 0), BuildingBlock: XIVTED_clean_linker_0, # of connection points: 2
#     Edge 349, Type (0, 0), BuildingBlock: XIVTED_clean_linker_0, # of connection points: 2
#     Edge 350, Type (0, 0), BuildingBlock: XIVTED_clean_linker_0, # of connection points: 2
#     Edge 351, Type (0, 0), BuildingBlock: XIVTED_clean_linker_0, # of connection points: 2
#     Edge 352, Type (0, 0), BuildingBlock: XIVTED_clean_linker_0, # of connection points: 2
#     Edge 353, Type (0, 0), BuildingBlock: XIVTED_clean_linker_0, # of connection points: 2
#     Edge 354, Type (0, 0), BuildingBlock: XIVTED_clean_linker_0, # of connection points: 2
#     Edge 355, Type (0, 0), BuildingBlock: XIVTED_clean_linker_0, # of connection points: 2
#     Edge 356, Type (0, 0), BuildingBlock: XIVTED_clean_linker_0, # of connection points: 2
#     Edge 357, Type (0, 0), BuildingBlock: XIVTED_clean_linker_0, # of connection points: 2
#     Edge 358, Type (0, 0), BuildingBlock: XIVTED_clean_linker_0, # of connection points: 2
#     Edge 359, Type (0, 0), BuildingBlock: XIVTED_clean_linker_0, # of connection points: 2
#     Edge 360, Type (0, 0), BuildingBlock: XIVTED_clean_linker_0, # of connection points: 2
#     Edge 361, Type (0, 0), BuildingBlock: XIVTED_clean_linker_0, # of connection points: 2
#     Edge 362, Type (0, 0), BuildingBlock: XIVTED_clean_linker_0, # of connection points: 2
#     Edge 363, Type (0, 0), BuildingBlock: XIVTED_clean_linker_0, # of connection points: 2
#     Edge 364, Type (0, 0), BuildingBlock: XIVTED_clean_linker_0, # of connection points: 2
#     Edge 365, Type (0, 0), BuildingBlock: XIVTED_clean_linker_0, # of connection points: 2
#     Edge 366, Type (0, 0), BuildingBlock: XIVTED_clean_linker_0, # of connection points: 2
#     Edge 367, Type (0, 0), BuildingBlock: XIVTED_clean_linker_0, # of connection points: 2
#     Edge 368, Type (0, 0), BuildingBlock: XIVTED_clean_linker_0, # of connection points: 2
#     Edge 369, Type (0, 0), BuildingBlock: XIVTED_clean_linker_0, # of connection points: 2
#     Edge 370, Type (0, 0), BuildingBlock: XIVTED_clean_linker_0, # of connection points: 2
#     Edge 371, Type (0, 0), BuildingBlock: XIVTED_clean_linker_0, # of connection points: 2
#     Edge 372, Type (0, 0), BuildingBlock: XIVTED_clean_linker_0, # of connection points: 2
#     Edge 373, Type (0, 0), BuildingBlock: XIVTED_clean_linker_0, # of connection points: 2
#     Edge 374, Type (0, 0), BuildingBlock: XIVTED_clean_linker_0, # of connection points: 2
#     Edge 375, Type (0, 0), BuildingBlock: XIVTED_clean_linker_0, # of connection points: 2
#     Edge 376, Type (0, 0), BuildingBlock: XIVTED_clean_linker_0, # of connection points: 2
#     Edge 377, Type (0, 0), BuildingBlock: XIVTED_clean_linker_0, # of connection points: 2
#     Edge 378, Type (0, 0), BuildingBlock: XIVTED_clean_linker_0, # of connection points: 2
#     Edge 379, Type (0, 0), BuildingBlock: XIVTED_clean_linker_0, # of connection points: 2
#     Edge 380, Type (0, 0), BuildingBlock: XIVTED_clean_linker_0, # of connection points: 2
#     Edge 381, Type (0, 0), BuildingBlock: XIVTED_clean_linker_0, # of connection points: 2
#     Edge 382, Type (0, 0), BuildingBlock: XIVTED_clean_linker_0, # of connection points: 2
#     Edge 383, Type (0, 0), BuildingBlock: XIVTED_clean_linker_0, # of connection points: 2
# Relax obj value: 0.563
# Max RMSD: 0.245
# Mean RMSD: 0.245
data_MOF--net-dia-j--node1-OJICUG_clean_sbu_0--edge1-XIVTED_clean_linker_0
_symmetry_space_group_name_H-M    P1
_symmetry_Int_Tables_number       1
_symmetry_cell_setting            triclinic
loop_
_symmetry_equiv_pos_as_xyz
'x, y, z'
_cell_length_a     81.138549
_cell_length_b     81.141451
_cell_length_c     81.137422
_cell_angle_alpha  90.000276
_cell_angle_beta   90.00199
_cell_angle_gamma 89.995836
loop_
_atom_site_label
_atom_site_type_symbol
_atom_site_fract_x
_atom_site_fract_y
_atom_site_fract_z
_atom_type_partial_charge
Sc0 Sc 0.04057 0.04184 0.41523 0.0
Sc1 Sc 0.06663 0.06652 0.39087 0.0
Sc2 Sc 0.06874 0.0687 0.43446 0.0
O3 O 0.05865 0.05902 0.41353 0.0
C4 C 0.03067 0.06649 0.44434 0.0
C5 C 0.02794 0.06341 0.38479 0.0
C6 C 0.06577 0.10019 0.41103 0.0
C7 C 0.06188 0.02785 0.38527 0.0
C8 C 0.06456 0.031 0.44473 0.0
C9 C 0.10015 0.06433 0.4111 0.0
O10 O 0.02727 0.05577 0.43342 0.0
O11 O 0.04205 0.06927 0.38138 0.0
O12 O 0.06701 0.09335 0.42506 0.0
O13 O 0.05189 0.02601 0.3972 0.0
O14 O 0.07146 0.04499 0.44633 0.0
O15 O 0.09218 0.06409 0.39764 0.0
O16 O 0.05341 0.02821 0.43406 0.0
O17 O 0.06815 0.04172 0.38152 0.0
O18 O 0.09336 0.06608 0.4251 0.0
O19 O 0.02555 0.0534 0.39661 0.0
O20 O 0.04511 0.07229 0.44637 0.0
O21 O 0.06542 0.09222 0.39756 0.0
Sc22 Sc 0.00766 0.31904 0.68423 0.0
Sc23 Sc 0.0101 0.31665 0.64066 0.0
Sc24 Sc 0.03513 0.29124 0.66536 0.0
O25 O 0.01763 0.30899 0.66342 0.0
C26 C 0.04551 0.31571 0.69453 0.0
C27 C 0.01153 0.35037 0.66067 0.0
C28 C 0.04878 0.31244 0.6351 0.0
C29 C 0.97635 0.3153 0.66063 0.0
C30 C 0.01061 0.28121 0.69462 0.0
C31 C 0.0138 0.27789 0.6351 0.0
O32 O 0.03131 0.32217 0.69622 0.0
O33 O 0.01193 0.34232 0.64725 0.0
O34 O 0.05071 0.30244 0.64701 0.0
O35 O 0.98307 0.31687 0.6747 0.0
O36 O 0.02159 0.27797 0.68391 0.0
O37 O 0.00792 0.29191 0.63133 0.0
O38 O 0.00433 0.29548 0.69628 0.0
O39 O 0.98442 0.31494 0.64723 0.0
O40 O 0.02366 0.27577 0.6471 0.0
O41 O 0.00994 0.34361 0.67471 0.0
O42 O 0.0486 0.30467 0.68383 0.0
O43 O 0.03488 0.31865 0.63141 0.0
Sc44 Sc 0.75793 0.25809 0.93471 0.0
Sc45 Sc 0.75998 0.26012 0.89107 0.0
Sc46 Sc 0.78497 0.28595 0.91536 0.0
O47 O 0.76762 0.26804 0.91372 0.0
C48 C 0.76055 0.2961 0.9446 0.0
C49 C 0.7264 0.26131 0.91132 0.0
C50 C 0.7634 0.29882 0.88505 0.0
C51 C 0.76177 0.2266 0.91136 0.0
C52 C 0.79579 0.26186 0.94471 0.0
C53 C 0.79864 0.26451 0.88532 0.0
O54 O 0.75454 0.28175 0.94659 0.0
O55 O 0.73433 0.26164 0.89784 0.0
O56 O 0.77335 0.30109 0.89693 0.0
O57 O 0.76027 0.23345 0.92536 0.0
O58 O 0.79862 0.27289 0.93396 0.0
O59 O 0.78475 0.25826 0.88165 0.0
O60 O 0.7817 0.2552 0.94654 0.0
O61 O 0.76205 0.23453 0.89788 0.0
O62 O 0.80056 0.27457 0.89717 0.0
O63 O 0.73326 0.25998 0.92534 0.0
O64 O 0.77133 0.29935 0.93371 0.0
O65 O 0.75751 0.28474 0.8815 0.0
Sc66 Sc 0.79204 0.03597 0.16507 0.0
Sc67 Sc 0.81691 0.01013 0.14065 0.0
Sc68 Sc 0.81902 0.00792 0.18425 0.0
O69 O 0.80933 0.018 0.16333 0.0
C70 C 0.81645 0.04583 0.19448 0.0
C71 C 0.81372 0.04893 0.13491 0.0
C72 C 0.85053 0.01109 0.16082 0.0
C73 C 0.77831 0.01475 0.13486 0.0
C74 C 0.78113 0.0117 0.19421 0.0
C75 C 0.81488 0.97654 0.16081 0.0
O76 O 0.80557 0.04914 0.1837 0.0
O77 O 0.81941 0.03481 0.1312 0.0
O78 O 0.84369 0.00968 0.17485 0.0
O79 O 0.77646 0.02489 0.14666 0.0
O80 O 0.79526 0.00515 0.19611 0.0
O81 O 0.81476 0.98452 0.14735 0.0
O82 O 0.77826 0.02272 0.18344 0.0
O83 O 0.79215 0.00833 0.13129 0.0
O84 O 0.81643 0.98335 0.17483 0.0
O85 O 0.80386 0.05123 0.14687 0.0
O86 O 0.82259 0.03151 0.19622 0.0
O87 O 0.84256 0.01156 0.14736 0.0
Sc88 Sc 0.04132 0.28567 0.91138 0.0
Sc89 Sc 0.06651 0.26013 0.93576 0.0
Sc90 Sc 0.06849 0.25786 0.89214 0.0
O91 O 0.05878 0.26787 0.91309 0.0
C92 C 0.03057 0.26135 0.88222 0.0
C93 C 0.02789 0.26443 0.94167 0.0
C94 C 0.06471 0.22649 0.91565 0.0
C95 C 0.06297 0.29889 0.94146 0.0
C96 C 0.06566 0.29576 0.882 0.0
C97 C 0.10006 0.26127 0.91547 0.0
O98 O 0.02764 0.27234 0.893 0.0
O99 O 0.04181 0.2582 0.94525 0.0
O100 O 0.06616 0.23327 0.90161 0.0
O101 O 0.05301 0.30103 0.92956 0.0
O102 O 0.07186 0.28147 0.88016 0.0
O103 O 0.09213 0.2617 0.92895 0.0
O104 O 0.05478 0.29897 0.89281 0.0
O105 O 0.06887 0.28485 0.94517 0.0
O106 O 0.09318 0.25981 0.90147 0.0
O107 O 0.02587 0.27445 0.9298 0.0
O108 O 0.04473 0.25487 0.88032 0.0
O109 O 0.0645 0.23449 0.9291 0.0
Sc110 Sc 0.81988 0.31864 0.14237 0.0
Sc111 Sc 0.8172 0.31639 0.18595 0.0
Sc112 Sc 0.79231 0.29093 0.16118 0.0
O113 O 0.80981 0.30866 0.16316 0.0
C114 C 0.78212 0.31526 0.13183 0.0
C115 C 0.81578 0.35004 0.16579 0.0
C116 C 0.77845 0.31226 0.1912 0.0
C117 C 0.85107 0.31513 0.16617 0.0
C118 C 0.81707 0.28073 0.13222 0.0
C119 C 0.81343 0.27767 0.19164 0.0
O120 O 0.79632 0.32172 0.13022 0.0
O121 O 0.81533 0.34204 0.17924 0.0
O122 O 0.77659 0.30228 0.17927 0.0
O123 O 0.8444 0.31658 0.15207 0.0
O124 O 0.80605 0.27754 0.14289 0.0
O125 O 0.81936 0.29168 0.1954 0.0
O126 O 0.8233 0.29501 0.13044 0.0
O127 O 0.84294 0.31475 0.17954 0.0
O128 O 0.80361 0.27557 0.17962 0.0
O129 O 0.81749 0.34325 0.15178 0.0
O130 O 0.77898 0.30424 0.14252 0.0
O131 O 0.79235 0.31838 0.19505 0.0
Sc132 Sc 0.75802 0.06826 0.39227 0.0
Sc133 Sc 0.76007 0.06573 0.43586 0.0
Sc134 Sc 0.78562 0.04071 0.4113 0.0
O135 O 0.7679 0.05824 0.41314 0.0
C136 C 0.76144 0.03051 0.3818 0.0
C137 C 0.72653 0.06414 0.4156 0.0
C138 C 0.76425 0.02699 0.44135 0.0
C139 C 0.76135 0.09953 0.41595 0.0
C140 C 0.796 0.06538 0.38232 0.0
C141 C 0.79875 0.06205 0.4417 0.0
O142 O 0.75498 0.0447 0.38017 0.0
O143 O 0.73449 0.0637 0.42907 0.0
O144 O 0.77416 0.02503 0.42938 0.0
O145 O 0.76004 0.09281 0.40187 0.0
O146 O 0.7991 0.05439 0.39305 0.0
O147 O 0.78475 0.06808 0.4453 0.0
O148 O 0.78173 0.07163 0.38043 0.0
O149 O 0.76161 0.09146 0.42935 0.0
O150 O 0.80089 0.05205 0.42983 0.0
O151 O 0.73336 0.0659 0.4016 0.0
O152 O 0.77241 0.02737 0.39256 0.0
O153 O 0.75819 0.04093 0.44515 0.0
Sc154 Sc 0.03491 0.03555 0.66172 0.0
Sc155 Sc 0.00993 0.00994 0.68624 0.0
Sc156 Sc 0.00817 0.00719 0.64264 0.0
O157 O 0.01766 0.01756 0.66352 0.0
C158 C 0.01046 0.04509 0.63227 0.0
C159 C 0.01307 0.04873 0.69172 0.0
C160 C 0.97645 0.0104 0.66579 0.0
C161 C 0.04853 0.01463 0.69212 0.0
C162 C 0.04602 0.0112 0.63267 0.0
C163 C 0.01244 0.97614 0.66648 0.0
O164 O 0.02125 0.04856 0.6431 0.0
O165 O 0.00719 0.03469 0.6954 0.0
O166 O 0.98342 0.00885 0.65185 0.0
O167 O 0.05051 0.02452 0.68013 0.0
O168 O 0.03198 0.00445 0.63087 0.0
O169 O 0.01237 0.98429 0.67983 0.0
O170 O 0.04875 0.02235 0.64335 0.0
O171 O 0.03463 0.00842 0.6958 0.0
O172 O 0.01092 0.98272 0.65234 0.0
O173 O 0.02313 0.05087 0.6799 0.0
O174 O 0.00451 0.03068 0.6305 0.0
O175 O 0.98431 0.01111 0.67931 0.0
Sc176 Sc 0.43422 0.06837 0.06885 0.0
Sc177 Sc 0.39067 0.0661 0.06602 0.0
Sc178 Sc 0.41553 0.04058 0.04128 0.0
O179 O 0.41348 0.05835 0.05873 0.0
C180 C 0.44486 0.06492 0.03111 0.0
C181 C 0.41083 0.09975 0.06446 0.0
C182 C 0.38543 0.06176 0.02731 0.0
C183 C 0.4103 0.06495 0.09996 0.0
C184 C 0.4445 0.0305 0.06612 0.0
C185 C 0.38508 0.02733 0.06239 0.0
O186 O 0.44649 0.07133 0.04534 0.0
O187 O 0.39738 0.09175 0.06409 0.0
O188 O 0.39735 0.05175 0.0255 0.0
O189 O 0.42443 0.06642 0.09336 0.0
O190 O 0.43393 0.02732 0.05499 0.0
O191 O 0.38125 0.04137 0.06821 0.0
O192 O 0.44612 0.04476 0.07245 0.0
O193 O 0.39698 0.06452 0.09177 0.0
O194 O 0.39717 0.02519 0.05265 0.0
O195 O 0.42483 0.09295 0.06626 0.0
O196 O 0.43412 0.05396 0.02793 0.0
O197 O 0.38162 0.068 0.04116 0.0
Sc198 Sc 0.03502 0.66536 0.29164 0.0
Sc199 Sc 0.00983 0.64093 0.31713 0.0
Sc200 Sc 0.00758 0.68456 0.31922 0.0
O201 O 0.01747 0.66362 0.30934 0.0
C202 C 0.04546 0.69471 0.31584 0.0
C203 C 0.04852 0.63525 0.31311 0.0
C204 C 0.0114 0.66121 0.3507 0.0
C205 C 0.01366 0.63509 0.27842 0.0
C206 C 0.0105 0.69451 0.28128 0.0
C207 C 0.97617 0.66101 0.31579 0.0
O208 O 0.04853 0.68386 0.30496 0.0
O209 O 0.03458 0.63162 0.31927 0.0
O210 O 0.00995 0.67522 0.34386 0.0
O211 O 0.02353 0.64706 0.27629 0.0
O212 O 0.00418 0.69636 0.29552 0.0
O213 O 0.98418 0.64757 0.31536 0.0
O214 O 0.02152 0.6838 0.27821 0.0
O215 O 0.0077 0.63139 0.29243 0.0
O216 O 0.98296 0.67504 0.31728 0.0
O217 O 0.05052 0.64708 0.30304 0.0
O218 O 0.03124 0.69659 0.32219 0.0
O219 O 0.01164 0.64773 0.34276 0.0
Sc220 Sc 0.39254 0.25882 0.56866 0.0
Sc221 Sc 0.43614 0.26079 0.56633 0.0
Sc222 Sc 0.41174 0.28626 0.54106 0.0
O223 O 0.41347 0.26862 0.55869 0.0
C224 C 0.38229 0.26206 0.5308 0.0
C225 C 0.41582 0.22727 0.56493 0.0
C226 C 0.44184 0.26474 0.52761 0.0
C227 C 0.4161 0.2623 0.60003 0.0
C228 C 0.38258 0.29677 0.5655 0.0
C229 C 0.44208 0.29946 0.5624 0.0
O230 O 0.38055 0.2557 0.54504 0.0
O231 O 0.42931 0.23519 0.56454 0.0
O232 O 0.42996 0.27475 0.52556 0.0
O233 O 0.40204 0.26093 0.59326 0.0
O234 O 0.39334 0.29981 0.55452 0.0
O235 O 0.44565 0.28546 0.56847 0.0
O236 O 0.38072 0.28255 0.57186 0.0
O237 O 0.42953 0.26257 0.59201 0.0
O238 O 0.43018 0.30159 0.55242 0.0
O239 O 0.40183 0.23414 0.56648 0.0
O240 O 0.3931 0.27296 0.52765 0.0
O241 O 0.44548 0.25866 0.54159 0.0
Sc242 Sc 0.8197 0.64186 0.81959 0.0
Sc243 Sc 0.81733 0.68543 0.81688 0.0
Sc244 Sc 0.79223 0.66056 0.7917 0.0
O245 O 0.80975 0.66261 0.8094 0.0
C246 C 0.81679 0.63132 0.78179 0.0
C247 C 0.85105 0.66537 0.81573 0.0
C248 C 0.8135 0.69075 0.7781 0.0
C249 C 0.81591 0.66565 0.85074 0.0
C250 C 0.78188 0.63152 0.81634 0.0
C251 C 0.77859 0.6909 0.81275 0.0
O252 O 0.82302 0.62967 0.79609 0.0
O253 O 0.84303 0.6788 0.81521 0.0
O254 O 0.80361 0.67877 0.77613 0.0
O255 O 0.81745 0.65156 0.84409 0.0
O256 O 0.7788 0.64211 0.80521 0.0
O257 O 0.79252 0.69473 0.81882 0.0
O258 O 0.79607 0.6299 0.82283 0.0
O259 O 0.81551 0.67901 0.84261 0.0
O260 O 0.77664 0.67887 0.80289 0.0
O261 O 0.84428 0.65134 0.81738 0.0
O262 O 0.80583 0.64203 0.77849 0.0
O263 O 0.81948 0.6946 0.79206 0.0
Sc264 Sc 0.43463 0.25827 0.2579 0.0
Sc265 Sc 0.39104 0.2606 0.26052 0.0
Sc266 Sc 0.4158 0.28584 0.28562 0.0
O267 O 0.41383 0.26822 0.26801 0.0
C268 C 0.44499 0.26127 0.29573 0.0
C269 C 0.4111 0.22689 0.2616 0.0
C270 C 0.38569 0.26447 0.29927 0.0
C271 C 0.4109 0.26226 0.22671 0.0
C272 C 0.44489 0.29612 0.26104 0.0
C273 C 0.38541 0.29931 0.26457 0.0
O274 O 0.44669 0.25492 0.28148 0.0
O275 O 0.39768 0.23492 0.26212 0.0
O276 O 0.3976 0.27446 0.30121 0.0
O277 O 0.42499 0.26066 0.23336 0.0
O278 O 0.43419 0.29927 0.27204 0.0
O279 O 0.38164 0.28534 0.25858 0.0
O280 O 0.44665 0.28187 0.25473 0.0
O281 O 0.39752 0.26252 0.23483 0.0
O282 O 0.39745 0.30136 0.27438 0.0
O283 O 0.42513 0.23367 0.26 0.0
O284 O 0.43433 0.27232 0.29888 0.0
O285 O 0.38189 0.25839 0.28533 0.0
Sc286 Sc 0.81995 0.68437 0.50709 0.0
Sc287 Sc 0.81761 0.64075 0.50934 0.0
Sc288 Sc 0.79261 0.66532 0.53486 0.0
O289 O 0.81007 0.66349 0.51709 0.0
C290 C 0.81709 0.69454 0.545 0.0
C291 C 0.85132 0.66079 0.51062 0.0
C292 C 0.81404 0.63509 0.54808 0.0
C293 C 0.81598 0.66088 0.47571 0.0
C294 C 0.78208 0.6945 0.51047 0.0
C295 C 0.77892 0.63522 0.51352 0.0
O296 O 0.82333 0.69633 0.53072 0.0
O297 O 0.84328 0.64737 0.51097 0.0
O298 O 0.80414 0.64704 0.55023 0.0
O299 O 0.81758 0.67491 0.48248 0.0
O300 O 0.77908 0.68378 0.52149 0.0
O301 O 0.79283 0.63146 0.50735 0.0
O302 O 0.79627 0.69634 0.50403 0.0
O303 O 0.81567 0.64744 0.48373 0.0
O304 O 0.77703 0.6471 0.52355 0.0
O305 O 0.84457 0.67485 0.50914 0.0
O306 O 0.80614 0.68379 0.54818 0.0
O307 O 0.8199 0.63135 0.53405 0.0
Sc308 Sc 0.41072 0.03991 0.78594 0.0
Sc309 Sc 0.43541 0.06545 0.7611 0.0
Sc310 Sc 0.39182 0.06791 0.75869 0.0
O311 O 0.41264 0.05776 0.76857 0.0
C312 C 0.38159 0.03 0.76127 0.0
C313 C 0.44099 0.02669 0.76455 0.0
C314 C 0.41545 0.06454 0.72734 0.0
C315 C 0.4409 0.06101 0.79977 0.0
C316 C 0.3815 0.06425 0.79648 0.0
C317 C 0.41542 0.09916 0.76295 0.0
O318 O 0.3923 0.02672 0.77222 0.0
O319 O 0.44474 0.04072 0.75869 0.0
O320 O 0.40138 0.06603 0.73407 0.0
O321 O 0.42895 0.05106 0.80165 0.0
O322 O 0.37977 0.07081 0.78234 0.0
O323 O 0.42882 0.09108 0.7632 0.0
O324 O 0.39221 0.05321 0.79947 0.0
O325 O 0.44467 0.06721 0.78589 0.0
O326 O 0.40135 0.09247 0.76128 0.0
O327 O 0.42903 0.02455 0.77444 0.0
O328 O 0.37981 0.04433 0.75512 0.0
O329 O 0.42885 0.06403 0.73541 0.0
Sc330 Sc 0.03447 0.66099 0.0355 0.0
Sc331 Sc 0.00935 0.68561 0.0101 0.0
Sc332 Sc 0.00695 0.64202 0.00784 0.0
O333 O 0.01692 0.66287 0.01781 0.0
C334 C 0.04477 0.63172 0.0111 0.0
C335 C 0.04808 0.69115 0.0142 0.0
C336 C 0.0109 0.6655 0.97645 0.0
C337 C 0.01313 0.69128 0.04882 0.0
C338 C 0.00998 0.63182 0.04575 0.0
C339 C 0.97562 0.6656 0.0114 0.0
O340 O 0.04787 0.64242 0.02213 0.0
O341 O 0.03413 0.69494 0.00815 0.0
O342 O 0.00923 0.65147 0.98323 0.0
O343 O 0.0231 0.67937 0.0509 0.0
O344 O 0.00368 0.63005 0.03149 0.0
O345 O 0.98366 0.67902 0.01172 0.0
O346 O 0.02093 0.64257 0.04891 0.0
O347 O 0.0071 0.69495 0.03483 0.0
O348 O 0.98237 0.65154 0.00998 0.0
O349 O 0.05005 0.67918 0.02411 0.0
O350 O 0.03057 0.63002 0.00467 0.0
O351 O 0.0113 0.67893 0.98447 0.0
Sc352 Sc 0.06953 0.43431 0.06899 0.0
Sc353 Sc 0.0673 0.39068 0.06684 0.0
Sc354 Sc 0.04229 0.41513 0.04121 0.0
O355 O 0.05971 0.41338 0.05903 0.0
C356 C 0.03169 0.4444 0.06552 0.0
C357 C 0.06576 0.41087 0.10043 0.0
C358 C 0.02859 0.38514 0.06268 0.0
C359 C 0.10095 0.41082 0.06539 0.0
C360 C 0.06675 0.4443 0.03102 0.0
C361 C 0.06366 0.38477 0.02814 0.0
O362 O 0.04581 0.44617 0.07213 0.0
O363 O 0.06537 0.39742 0.09246 0.0
O364 O 0.02668 0.39701 0.05264 0.0
O365 O 0.09416 0.42487 0.06683 0.0
O366 O 0.05594 0.43343 0.02778 0.0
O367 O 0.06959 0.38115 0.04218 0.0
O368 O 0.07279 0.44629 0.04536 0.0
O369 O 0.09295 0.39737 0.06515 0.0
O370 O 0.05374 0.39669 0.02595 0.0
O371 O 0.06733 0.42489 0.09362 0.0
O372 O 0.02879 0.43374 0.05441 0.0
O373 O 0.0425 0.38137 0.06883 0.0
Sc374 Sc 0.56917 0.39274 0.25741 0.0
Sc375 Sc 0.56659 0.43633 0.26011 0.0
Sc376 Sc 0.5411 0.41136 0.28474 0.0
O377 O 0.55896 0.41347 0.26741 0.0
C378 C 0.53133 0.3822 0.26009 0.0
C379 C 0.56542 0.4165 0.22623 0.0
C380 C 0.52779 0.44173 0.26357 0.0
C381 C 0.60036 0.41644 0.26162 0.0
C382 C 0.56575 0.38232 0.29516 0.0
C383 C 0.56213 0.44152 0.29881 0.0
O384 O 0.54568 0.38052 0.25397 0.0
O385 O 0.56506 0.42987 0.23437 0.0
O386 O 0.52565 0.42966 0.27332 0.0
O387 O 0.5937 0.40238 0.25981 0.0
O388 O 0.55455 0.39287 0.29815 0.0
O389 O 0.56839 0.44547 0.285 0.0
O390 O 0.57234 0.3807 0.28102 0.0
O391 O 0.59225 0.42981 0.2621 0.0
O392 O 0.55219 0.42954 0.30049 0.0
O393 O 0.56697 0.4024 0.23287 0.0
O394 O 0.52796 0.39293 0.271 0.0
O395 O 0.54184 0.44559 0.2578 0.0
Sc396 Sc 0.68472 0.81804 0.50786 0.0
Sc397 Sc 0.64116 0.81559 0.51029 0.0
Sc398 Sc 0.66588 0.78987 0.53497 0.0
O399 O 0.66393 0.80783 0.5177 0.0
C400 C 0.69509 0.78013 0.5103 0.0
C401 C 0.6611 0.81478 0.47651 0.0
C402 C 0.63552 0.77682 0.51354 0.0
C403 C 0.66114 0.84928 0.51224 0.0
C404 C 0.69513 0.81418 0.5456 0.0
C405 C 0.63572 0.81093 0.54896 0.0
O406 O 0.69678 0.79451 0.50425 0.0
O407 O 0.6477 0.8143 0.48457 0.0
O408 O 0.64748 0.77458 0.52342 0.0
O409 O 0.67519 0.84259 0.51049 0.0
O410 O 0.68449 0.80305 0.54854 0.0
O411 O 0.63193 0.8172 0.53511 0.0
O412 O 0.69672 0.82089 0.53151 0.0
O413 O 0.64774 0.84121 0.51253 0.0
O414 O 0.64767 0.80097 0.55077 0.0
O415 O 0.67517 0.8162 0.48325 0.0
O416 O 0.68433 0.77673 0.52118 0.0
O417 O 0.63184 0.7909 0.50774 0.0
Sc418 Sc 0.284 0.91531 0.78567 0.0
Sc419 Sc 0.25886 0.89089 0.76008 0.0
Sc420 Sc 0.25655 0.93449 0.7581 0.0
O421 O 0.26646 0.91357 0.76795 0.0
C422 C 0.25951 0.94449 0.79603 0.0
C423 C 0.26254 0.88504 0.7988 0.0
C424 C 0.22516 0.91098 0.76147 0.0
C425 C 0.29754 0.88514 0.76427 0.0
C426 C 0.29443 0.94464 0.76145 0.0
C427 C 0.2606 0.91126 0.72656 0.0
O428 O 0.27055 0.9338 0.7991 0.0
O429 O 0.25662 0.88139 0.78476 0.0
O430 O 0.23195 0.92501 0.76005 0.0
O431 O 0.2995 0.897 0.77432 0.0
O432 O 0.28019 0.94648 0.75514 0.0
O433 O 0.26082 0.89774 0.73446 0.0
O434 O 0.29755 0.93381 0.77234 0.0
O435 O 0.28362 0.88152 0.75805 0.0
O436 O 0.25898 0.92522 0.73346 0.0
O437 O 0.27246 0.89698 0.80098 0.0
O438 O 0.25315 0.94626 0.7818 0.0
O439 O 0.23317 0.89753 0.7618 0.0
Sc440 Sc 0.6615 0.53685 0.53391 0.0
Sc441 Sc 0.68624 0.51112 0.50927 0.0
Sc442 Sc 0.64263 0.50855 0.50703 0.0
O443 O 0.66345 0.51883 0.51673 0.0
C444 C 0.6322 0.51263 0.54468 0.0
C445 C 0.69161 0.51589 0.54798 0.0
C446 C 0.66636 0.4774 0.51153 0.0
C447 C 0.6919 0.54981 0.5124 0.0
C448 C 0.63244 0.54656 0.50919 0.0
C449 C 0.66607 0.51168 0.47557 0.0
O450 O 0.64267 0.52395 0.54742 0.0
O451 O 0.69572 0.50991 0.53408 0.0
O452 O 0.65229 0.48402 0.5096 0.0
O453 O 0.68014 0.55195 0.52253 0.0
O454 O 0.63046 0.53207 0.5035 0.0
O455 O 0.67953 0.51206 0.48356 0.0
O456 O 0.64338 0.55008 0.51985 0.0
O457 O 0.69542 0.5358 0.50635 0.0
O458 O 0.65203 0.51043 0.48239 0.0
O459 O 0.67939 0.52551 0.54983 0.0
O460 O 0.63075 0.50561 0.53073 0.0
O461 O 0.67973 0.48552 0.51189 0.0
Sc462 Sc 0.28486 0.91101 0.04185 0.0
Sc463 Sc 0.25955 0.93552 0.06714 0.0
Sc464 Sc 0.25769 0.89191 0.06977 0.0
O465 O 0.26736 0.91281 0.05959 0.0
C466 C 0.26056 0.8815 0.03194 0.0
C467 C 0.26314 0.94092 0.02836 0.0
C468 C 0.22606 0.91514 0.06618 0.0
C469 C 0.29816 0.94151 0.06291 0.0
C470 C 0.29565 0.88203 0.06632 0.0
C471 C 0.26148 0.91568 0.10093 0.0
O472 O 0.2715 0.89225 0.0287 0.0
O473 O 0.25722 0.94472 0.04236 0.0
O474 O 0.23297 0.90118 0.06784 0.0
O475 O 0.30023 0.92958 0.05296 0.0
O476 O 0.28146 0.88009 0.07273 0.0
O477 O 0.26153 0.92906 0.09282 0.0
O478 O 0.29859 0.89281 0.05534 0.0
O479 O 0.28421 0.94509 0.06907 0.0
O480 O 0.26013 0.90156 0.09428 0.0
O481 O 0.27313 0.92902 0.02632 0.0
O482 O 0.25427 0.87982 0.04622 0.0
O483 O 0.23396 0.92864 0.06556 0.0
Sc484 Sc 0.66537 0.03591 0.2907 0.0
Sc485 Sc 0.64051 0.0105 0.31557 0.0
Sc486 Sc 0.68407 0.00803 0.3182 0.0
O487 O 0.66332 0.01813 0.30816 0.0
C488 C 0.69455 0.01137 0.28043 0.0
C489 C 0.6352 0.01477 0.27683 0.0
C490 C 0.66044 0.97676 0.31423 0.0
C491 C 0.63502 0.04926 0.31192 0.0
C492 C 0.69453 0.04586 0.31532 0.0
C493 C 0.66035 0.01177 0.34941 0.0
O494 O 0.68396 0.02251 0.27736 0.0
O495 O 0.63136 0.00861 0.29072 0.0
O496 O 0.67448 0.98348 0.31594 0.0
O497 O 0.64701 0.05137 0.30206 0.0
O498 O 0.69621 0.03156 0.32153 0.0
O499 O 0.64698 0.0121 0.34129 0.0
O500 O 0.6838 0.04917 0.30439 0.0
O501 O 0.63125 0.03524 0.31781 0.0
O502 O 0.67445 0.01027 0.34274 0.0
O503 O 0.64717 0.0247 0.27498 0.0
O504 O 0.69611 0.00481 0.2946 0.0
O505 O 0.64705 0.98483 0.31368 0.0
Sc506 Sc 0.16126 0.29058 0.79108 0.0
Sc507 Sc 0.18592 0.31587 0.81626 0.0
Sc508 Sc 0.14235 0.31843 0.81846 0.0
O509 O 0.16317 0.3083 0.80861 0.0
C510 C 0.13225 0.31515 0.78055 0.0
C511 C 0.19165 0.31171 0.77761 0.0
C512 C 0.16603 0.34966 0.81471 0.0
C513 C 0.19136 0.27708 0.81252 0.0
C514 C 0.13184 0.28065 0.81548 0.0
C515 C 0.1658 0.31469 0.8499 0.0
O516 O 0.14298 0.30414 0.77749 0.0
O517 O 0.19526 0.31793 0.79153 0.0
O518 O 0.15194 0.34296 0.81613 0.0
O519 O 0.17935 0.275 0.80267 0.0
O520 O 0.13025 0.2949 0.82182 0.0
O521 O 0.17924 0.31415 0.8419 0.0
O522 O 0.14254 0.2774 0.80449 0.0
O523 O 0.19519 0.29109 0.81839 0.0
O524 O 0.15179 0.31635 0.8431 0.0
O525 O 0.17977 0.30169 0.77562 0.0
O526 O 0.13042 0.32152 0.79477 0.0
O527 O 0.17942 0.34157 0.81447 0.0
Sc528 Sc 0.04145 0.78588 0.41136 0.0
Sc529 Sc 0.06669 0.76057 0.43597 0.0
Sc530 Sc 0.06901 0.75824 0.3924 0.0
O531 O 0.05905 0.76822 0.41324 0.0
C532 C 0.03118 0.76144 0.38209 0.0
C533 C 0.02796 0.7645 0.44152 0.0
C534 C 0.06537 0.72687 0.41592 0.0
C535 C 0.06265 0.79926 0.44172 0.0
C536 C 0.0659 0.79612 0.38215 0.0
C537 C 0.10037 0.76207 0.41592 0.0
O538 O 0.02809 0.77249 0.39277 0.0
O539 O 0.04193 0.75845 0.44524 0.0
O540 O 0.06688 0.73364 0.40188 0.0
O541 O 0.05273 0.80133 0.42977 0.0
O542 O 0.07217 0.78185 0.38039 0.0
O543 O 0.09236 0.76237 0.42936 0.0
O544 O 0.05497 0.79932 0.39293 0.0
O545 O 0.06875 0.7853 0.44536 0.0
O546 O 0.09359 0.76053 0.40188 0.0
O547 O 0.02593 0.77446 0.4296 0.0
O548 O 0.04537 0.75497 0.38044 0.0
O549 O 0.06496 0.7349 0.42935 0.0
Sc550 Sc 0.31857 0.81856 0.14242 0.0
Sc551 Sc 0.31633 0.81614 0.18601 0.0
Sc552 Sc 0.29128 0.79068 0.16141 0.0
O553 O 0.30873 0.80847 0.16328 0.0
C554 C 0.2808 0.81499 0.13209 0.0
C555 C 0.31465 0.84985 0.16604 0.0
C556 C 0.27759 0.812 0.1915 0.0
C557 C 0.35 0.815 0.16589 0.0
C558 C 0.31587 0.7806 0.13229 0.0
C559 C 0.31259 0.77746 0.19179 0.0
O560 O 0.2949 0.82165 0.13048 0.0
O561 O 0.31437 0.84177 0.17943 0.0
O562 O 0.27562 0.8021 0.17951 0.0
O563 O 0.34319 0.81651 0.15187 0.0
O564 O 0.30503 0.77732 0.14312 0.0
O565 O 0.31866 0.79145 0.19537 0.0
O566 O 0.32191 0.79495 0.13039 0.0
O567 O 0.34201 0.81455 0.17934 0.0
O568 O 0.3026 0.77535 0.17991 0.0
O569 O 0.31621 0.84315 0.15196 0.0
O570 O 0.27784 0.80386 0.14272 0.0
O571 O 0.29154 0.81803 0.19533 0.0
Sc572 Sc 0.25686 0.06806 0.89291 0.0
Sc573 Sc 0.2595 0.06614 0.9365 0.0
Sc574 Sc 0.28428 0.04036 0.91197 0.0
O575 O 0.26687 0.0582 0.91378 0.0
C576 C 0.25956 0.03007 0.88299 0.0
C577 C 0.22565 0.06487 0.91672 0.0
C578 C 0.26298 0.02743 0.94242 0.0
C579 C 0.26109 0.09962 0.91611 0.0
C580 C 0.29463 0.06445 0.88247 0.0
C581 C 0.2982 0.06179 0.9419 0.0
O582 O 0.25335 0.04436 0.88113 0.0
O583 O 0.23378 0.06461 0.93008 0.0
O584 O 0.27283 0.02517 0.93046 0.0
O585 O 0.25934 0.09274 0.90215 0.0
O586 O 0.29771 0.0535 0.89326 0.0
O587 O 0.28433 0.06805 0.94563 0.0
O588 O 0.28045 0.07096 0.88078 0.0
O589 O 0.26152 0.09171 0.92961 0.0
O590 O 0.30004 0.05169 0.93006 0.0
O591 O 0.23231 0.06616 0.9026 0.0
O592 O 0.27056 0.02693 0.8937 0.0
O593 O 0.25715 0.0415 0.94607 0.0
Sc594 Sc 0.00717 0.81854 0.18448 0.0
Sc595 Sc 0.00973 0.81588 0.14092 0.0
Sc596 Sc 0.03469 0.79065 0.16586 0.0
O597 O 0.01719 0.80836 0.16376 0.0
C598 C 0.04495 0.81522 0.19498 0.0
C599 C 0.01133 0.8497 0.16075 0.0
C600 C 0.04846 0.81169 0.13559 0.0
C601 C 0.97592 0.81487 0.16078 0.0
C602 C 0.00999 0.78072 0.19498 0.0
C603 C 0.01347 0.77711 0.13559 0.0
O604 O 0.03074 0.82167 0.19659 0.0
O605 O 0.01166 0.84157 0.14739 0.0
O606 O 0.05037 0.80181 0.14761 0.0
O607 O 0.98261 0.81648 0.17485 0.0
O608 O 0.02103 0.77746 0.18435 0.0
O609 O 0.00753 0.79108 0.13174 0.0
O610 O 0.0037 0.79501 0.19658 0.0
O611 O 0.98402 0.81433 0.1474 0.0
O612 O 0.02334 0.7751 0.1476 0.0
O613 O 0.00965 0.84306 0.17484 0.0
O614 O 0.04808 0.80414 0.18434 0.0
O615 O 0.03454 0.81776 0.13173 0.0
Sc616 Sc 0.25727 0.75799 0.93463 0.0
Sc617 Sc 0.25948 0.76036 0.89102 0.0
Sc618 Sc 0.28468 0.7857 0.91559 0.0
O619 O 0.26714 0.76801 0.91375 0.0
C620 C 0.26028 0.79585 0.9449 0.0
C621 C 0.22584 0.76162 0.91115 0.0
C622 C 0.26325 0.7991 0.88543 0.0
C623 C 0.26101 0.72666 0.91105 0.0
C624 C 0.29516 0.76127 0.94476 0.0
C625 C 0.29816 0.76443 0.88534 0.0
O626 O 0.25401 0.78159 0.94668 0.0
O627 O 0.23383 0.76203 0.89771 0.0
O628 O 0.27319 0.80116 0.89736 0.0
O629 O 0.25951 0.73341 0.9251 0.0
O630 O 0.2982 0.7723 0.93405 0.0
O631 O 0.28422 0.75832 0.88166 0.0
O632 O 0.28096 0.75484 0.94652 0.0
O633 O 0.26133 0.7347 0.89762 0.0
O634 O 0.30018 0.77441 0.89725 0.0
O635 O 0.23264 0.76011 0.92519 0.0
O636 O 0.2712 0.79904 0.93412 0.0
O637 O 0.25728 0.7851 0.88168 0.0
Sc638 Sc 0.29133 0.03637 0.66624 0.0
Sc639 Sc 0.31617 0.011 0.64134 0.0
Sc640 Sc 0.3193 0.00893 0.68489 0.0
O641 O 0.30894 0.01876 0.66416 0.0
C642 C 0.31626 0.04683 0.69499 0.0
C643 C 0.31211 0.0497 0.63559 0.0
C644 C 0.35021 0.01264 0.66078 0.0
C645 C 0.27737 0.01491 0.63635 0.0
C646 C 0.2816 0.01201 0.69571 0.0
C647 C 0.3152 0.97741 0.66162 0.0
O648 O 0.30508 0.04988 0.68444 0.0
O649 O 0.31806 0.0357 0.63183 0.0
O650 O 0.34371 0.01116 0.67495 0.0
O651 O 0.27554 0.02494 0.64824 0.0
O652 O 0.29588 0.00571 0.69726 0.0
O653 O 0.31456 0.98536 0.64816 0.0
O654 O 0.27825 0.02295 0.68499 0.0
O655 O 0.29127 0.00881 0.63246 0.0
O656 O 0.317 0.98426 0.67559 0.0
O657 O 0.3024 0.0518 0.6477 0.0
O658 O 0.32266 0.03262 0.69671 0.0
O659 O 0.34194 0.01289 0.64749 0.0
Sc660 Sc 0.66088 0.03633 0.0358 0.0
Sc661 Sc 0.68579 0.01119 0.01073 0.0
Sc662 Sc 0.64223 0.00889 0.00783 0.0
O663 O 0.66296 0.0188 0.01812 0.0
C664 C 0.63171 0.01168 0.04564 0.0
C665 C 0.69104 0.01501 0.04948 0.0
C666 C 0.6657 0.97749 0.0116 0.0
C667 C 0.69129 0.04993 0.0149 0.0
C668 C 0.63182 0.04667 0.01117 0.0
C669 C 0.66615 0.01296 0.9768 0.0
O670 O 0.64242 0.02262 0.04897 0.0
O671 O 0.69482 0.00889 0.03556 0.0
O672 O 0.65168 0.98428 0.00994 0.0
O673 O 0.67916 0.05196 0.02462 0.0
O674 O 0.63026 0.03251 0.00463 0.0
O675 O 0.67947 0.01323 0.98501 0.0
O676 O 0.64239 0.04974 0.02234 0.0
O677 O 0.69515 0.03596 0.00896 0.0
O678 O 0.65202 0.01132 0.98336 0.0
O679 O 0.67915 0.02502 0.05139 0.0
O680 O 0.63 0.0055 0.03132 0.0
O681 O 0.67913 0.9855 0.0122 0.0
Sc682 Sc 0.06924 0.3919 0.75738 0.0
Sc683 Sc 0.06707 0.43549 0.75988 0.0
Sc684 Sc 0.04171 0.41087 0.78503 0.0
O685 O 0.05935 0.41274 0.76742 0.0
C686 C 0.03133 0.38172 0.76057 0.0
C687 C 0.06557 0.41553 0.72611 0.0
C688 C 0.02837 0.4412 0.76376 0.0
C689 C 0.10069 0.41533 0.76113 0.0
C690 C 0.06612 0.38156 0.79521 0.0
C691 C 0.06311 0.44095 0.79864 0.0
O692 O 0.04557 0.37993 0.75424 0.0
O693 O 0.06535 0.42894 0.73418 0.0
O694 O 0.02629 0.42928 0.77371 0.0
O695 O 0.09387 0.40133 0.75948 0.0
O696 O 0.0551 0.39225 0.79835 0.0
O697 O 0.06914 0.44476 0.78469 0.0
O698 O 0.07252 0.37989 0.78098 0.0
O699 O 0.09271 0.42878 0.76167 0.0
O700 O 0.05316 0.42901 0.8006 0.0
O701 O 0.06696 0.40145 0.73283 0.0
O702 O 0.02821 0.39249 0.77152 0.0
O703 O 0.04235 0.44487 0.75773 0.0
Sc704 Sc 0.28494 0.41526 0.28517 0.0
Sc705 Sc 0.25972 0.39077 0.25978 0.0
Sc706 Sc 0.25742 0.43439 0.25761 0.0
O707 O 0.26736 0.41348 0.26751 0.0
C708 C 0.26055 0.44452 0.29549 0.0
C709 C 0.26354 0.38508 0.29851 0.0
C710 C 0.22605 0.41088 0.26135 0.0
C711 C 0.29839 0.38504 0.26382 0.0
C712 C 0.29534 0.44444 0.26073 0.0
C713 C 0.26113 0.41098 0.22616 0.0
O714 O 0.27152 0.43377 0.29859 0.0
O715 O 0.2576 0.38132 0.2845 0.0
O716 O 0.23281 0.42493 0.25984 0.0
O717 O 0.30039 0.3969 0.27385 0.0
O718 O 0.2811 0.44631 0.25441 0.0
O719 O 0.26152 0.39751 0.23412 0.0
O720 O 0.29842 0.43367 0.2717 0.0
O721 O 0.28446 0.38141 0.25764 0.0
O722 O 0.25958 0.42498 0.23299 0.0
O723 O 0.27343 0.39704 0.3006 0.0
O724 O 0.25422 0.44634 0.28126 0.0
O725 O 0.23407 0.39744 0.26161 0.0
Sc726 Sc 0.6617 0.79013 0.79144 0.0
Sc727 Sc 0.68635 0.81579 0.81624 0.0
Sc728 Sc 0.64277 0.81839 0.81838 0.0
O729 O 0.6636 0.80811 0.80869 0.0
C730 C 0.63261 0.81454 0.78058 0.0
C731 C 0.69192 0.81119 0.77759 0.0
C732 C 0.66647 0.84956 0.81418 0.0
C733 C 0.69198 0.77702 0.81293 0.0
C734 C 0.63238 0.78049 0.81598 0.0
C735 C 0.66617 0.815 0.84989 0.0
O736 O 0.64321 0.80335 0.77777 0.0
O737 O 0.69568 0.81745 0.79145 0.0
O738 O 0.65238 0.84291 0.81579 0.0
O739 O 0.68003 0.77481 0.80304 0.0
O740 O 0.63064 0.7949 0.82194 0.0
O741 O 0.67963 0.81445 0.84191 0.0
O742 O 0.6432 0.77702 0.80518 0.0
O743 O 0.69565 0.79108 0.81877 0.0
O744 O 0.65216 0.81653 0.84305 0.0
O745 O 0.67997 0.80123 0.77573 0.0
O746 O 0.63091 0.82129 0.79464 0.0
O747 O 0.67985 0.84144 0.81401 0.0
Sc748 Sc 0.28447 0.41133 0.5414 0.0
Sc749 Sc 0.25915 0.43565 0.56691 0.0
Sc750 Sc 0.25719 0.39203 0.56906 0.0
O751 O 0.26693 0.413 0.55914 0.0
C752 C 0.26027 0.38191 0.53114 0.0
C753 C 0.26279 0.44143 0.52819 0.0
C754 C 0.22562 0.41531 0.56557 0.0
C755 C 0.2978 0.4416 0.56276 0.0
C756 C 0.29513 0.38212 0.56572 0.0
C757 C 0.2608 0.41547 0.60051 0.0
O758 O 0.27111 0.39278 0.52798 0.0
O759 O 0.25681 0.44505 0.54221 0.0
O760 O 0.23251 0.40131 0.56695 0.0
O761 O 0.29987 0.42971 0.55277 0.0
O762 O 0.28096 0.38027 0.57219 0.0
O763 O 0.26112 0.42894 0.59255 0.0
O764 O 0.29809 0.39288 0.55471 0.0
O765 O 0.28384 0.44519 0.5689 0.0
O766 O 0.25932 0.40145 0.59369 0.0
O767 O 0.27284 0.42959 0.52606 0.0
O768 O 0.25402 0.38007 0.54541 0.0
O769 O 0.23353 0.42881 0.56528 0.0
Sc770 Sc 0.53541 0.66551 0.79174 0.0
Sc771 Sc 0.50986 0.64104 0.81683 0.0
Sc772 Sc 0.5078 0.68467 0.81914 0.0
O773 O 0.51768 0.66374 0.80925 0.0
C774 C 0.54574 0.69466 0.81623 0.0
C775 C 0.5486 0.63529 0.81322 0.0
C776 C 0.51115 0.66111 0.85053 0.0
C777 C 0.51405 0.63538 0.77814 0.0
C778 C 0.51113 0.69478 0.78126 0.0
C779 C 0.47631 0.66134 0.81516 0.0
O780 O 0.54883 0.68392 0.80525 0.0
O781 O 0.53457 0.63157 0.81913 0.0
O782 O 0.50979 0.67517 0.84375 0.0
O783 O 0.52406 0.64727 0.7762 0.0
O784 O 0.50477 0.69665 0.79548 0.0
O785 O 0.48424 0.64784 0.81485 0.0
O786 O 0.52208 0.68398 0.77822 0.0
O787 O 0.50789 0.63167 0.79206 0.0
O788 O 0.48318 0.67532 0.81678 0.0
O789 O 0.55073 0.64721 0.80328 0.0
O790 O 0.53148 0.69653 0.82251 0.0
O791 O 0.51148 0.64768 0.84251 0.0
Sc792 Sc 0.81902 0.14198 0.31886 0.0
Sc793 Sc 0.81673 0.18562 0.31698 0.0
Sc794 Sc 0.79177 0.16129 0.29117 0.0
O795 O 0.80918 0.16296 0.30901 0.0
C796 C 0.81622 0.13211 0.28085 0.0
C797 C 0.85042 0.16553 0.31562 0.0
C798 C 0.81325 0.19165 0.27828 0.0
C799 C 0.81508 0.16521 0.35044 0.0
C800 C 0.78117 0.13192 0.31533 0.0
C801 C 0.77807 0.1913 0.31263 0.0
O802 O 0.82235 0.13014 0.29515 0.0
O803 O 0.8424 0.17897 0.31543 0.0
O804 O 0.80333 0.17974 0.276 0.0
O805 O 0.81673 0.15125 0.34354 0.0
O806 O 0.77822 0.14269 0.30433 0.0
O807 O 0.79196 0.19497 0.31888 0.0
O808 O 0.79532 0.13007 0.32184 0.0
O809 O 0.81467 0.17872 0.34255 0.0
O810 O 0.77616 0.17945 0.30256 0.0
O811 O 0.84364 0.15146 0.31686 0.0
O812 O 0.80536 0.14295 0.2777 0.0
O813 O 0.81914 0.19521 0.29235 0.0
Sc814 Sc 0.43437 0.56801 0.56853 0.0
Sc815 Sc 0.39076 0.56593 0.56625 0.0
Sc816 Sc 0.41519 0.54058 0.54092 0.0
O817 O 0.41345 0.55818 0.55857 0.0
C818 C 0.44443 0.56497 0.5306 0.0
C819 C 0.41102 0.59953 0.56504 0.0
C820 C 0.38499 0.56206 0.52758 0.0
C821 C 0.41085 0.56414 0.5999 0.0
C822 C 0.44449 0.53015 0.56525 0.0
C823 C 0.38494 0.52722 0.56221 0.0
O824 O 0.44631 0.57123 0.54486 0.0
O825 O 0.39754 0.59158 0.56466 0.0
O826 O 0.39679 0.55196 0.52554 0.0
O827 O 0.4249 0.56573 0.59315 0.0
O828 O 0.43374 0.5271 0.55425 0.0
O829 O 0.38122 0.54122 0.56817 0.0
O830 O 0.44627 0.54434 0.57167 0.0
O831 O 0.39742 0.56388 0.59187 0.0
O832 O 0.39695 0.5251 0.55238 0.0
O833 O 0.42503 0.59266 0.56646 0.0
O834 O 0.43361 0.55407 0.52746 0.0
O835 O 0.38144 0.56825 0.54152 0.0
Sc836 Sc 0.81939 0.18457 0.00768 0.0
Sc837 Sc 0.81732 0.14097 0.01024 0.0
Sc838 Sc 0.79232 0.16558 0.03575 0.0
O839 O 0.80968 0.16371 0.01788 0.0
C840 C 0.81677 0.19496 0.04554 0.0
C841 C 0.85092 0.16119 0.01113 0.0
C842 C 0.8139 0.13549 0.04905 0.0
C843 C 0.81548 0.16088 0.97648 0.0
C844 C 0.7815 0.1946 0.0113 0.0
C845 C 0.77869 0.13525 0.01468 0.0
O846 O 0.8229 0.19667 0.0312 0.0
O847 O 0.84296 0.14772 0.01173 0.0
O848 O 0.80402 0.14747 0.05118 0.0
O849 O 0.81692 0.17496 0.98317 0.0
O850 O 0.77862 0.1839 0.02238 0.0
O851 O 0.79257 0.1316 0.0084 0.0
O852 O 0.79564 0.19644 0.00474 0.0
O853 O 0.8153 0.14748 0.98456 0.0
O854 O 0.77677 0.14714 0.02469 0.0
O855 O 0.84406 0.17519 0.00957 0.0
O856 O 0.80586 0.18421 0.04888 0.0
O857 O 0.81969 0.13168 0.035 0.0
Sc858 Sc 0.93439 0.75781 0.2581 0.0
Sc859 Sc 0.89077 0.76003 0.26022 0.0
Sc860 Sc 0.9152 0.78553 0.2854 0.0
O861 O 0.91346 0.76778 0.2679 0.0
C862 C 0.94445 0.76125 0.29599 0.0
C863 C 0.91092 0.72641 0.26188 0.0
C864 C 0.88503 0.76418 0.29889 0.0
C865 C 0.91095 0.76127 0.22661 0.0
C866 C 0.94446 0.79574 0.261 0.0
C867 C 0.88502 0.79876 0.26388 0.0
O868 O 0.9463 0.75479 0.28181 0.0
O869 O 0.89747 0.7344 0.26214 0.0
O870 O 0.89689 0.77422 0.30089 0.0
O871 O 0.92498 0.75981 0.23344 0.0
O872 O 0.93367 0.7989 0.27191 0.0
O873 O 0.88133 0.78474 0.25795 0.0
O874 O 0.94633 0.78146 0.25477 0.0
O875 O 0.89749 0.76167 0.23459 0.0
O876 O 0.89694 0.80089 0.27383 0.0
O877 O 0.92496 0.7332 0.26041 0.0
O878 O 0.93367 0.77222 0.29898 0.0
O879 O 0.88138 0.75802 0.28495 0.0
Sc880 Sc 0.04178 0.53999 0.91549 0.0
Sc881 Sc 0.06637 0.56577 0.89076 0.0
Sc882 Sc 0.06877 0.56828 0.93433 0.0
O883 O 0.05898 0.55802 0.91353 0.0
C884 C 0.031 0.56435 0.94463 0.0
C885 C 0.02774 0.56096 0.88528 0.0
C886 C 0.06431 0.59948 0.91072 0.0
C887 C 0.06326 0.52697 0.88518 0.0
C888 C 0.06649 0.53039 0.94471 0.0
C889 C 0.10013 0.565 0.91073 0.0
O890 O 0.02813 0.55322 0.93398 0.0
O891 O 0.04155 0.56734 0.88153 0.0
O892 O 0.06606 0.59281 0.92478 0.0
O893 O 0.05344 0.5247 0.89717 0.0
O894 O 0.07248 0.54478 0.94641 0.0
O895 O 0.09207 0.56449 0.89733 0.0
O896 O 0.0556 0.52695 0.93398 0.0
O897 O 0.06895 0.54107 0.88144 0.0
O898 O 0.09339 0.56648 0.92479 0.0
O899 O 0.02598 0.55096 0.89722 0.0
O900 O 0.04508 0.57106 0.94632 0.0
O901 O 0.06407 0.5914 0.89732 0.0
Sc902 Sc 0.75794 0.75823 0.43433 0.0
Sc903 Sc 0.76021 0.76063 0.39075 0.0
Sc904 Sc 0.78505 0.78629 0.41535 0.0
O905 O 0.76773 0.76838 0.41349 0.0
C906 C 0.7604 0.79622 0.44445 0.0
C907 C 0.72651 0.76154 0.41082 0.0
C908 C 0.76367 0.79932 0.38495 0.0
C909 C 0.76215 0.72696 0.41075 0.0
C910 C 0.79567 0.76208 0.44471 0.0
C911 C 0.79893 0.76503 0.38533 0.0
O912 O 0.75446 0.78182 0.44637 0.0
O913 O 0.73452 0.76199 0.39738 0.0
O914 O 0.77366 0.80151 0.39682 0.0
O915 O 0.76047 0.73365 0.42482 0.0
O916 O 0.79855 0.77324 0.4341 0.0
O917 O 0.78502 0.75894 0.38147 0.0
O918 O 0.78162 0.75529 0.44628 0.0
O919 O 0.76241 0.73503 0.39736 0.0
O920 O 0.80083 0.77495 0.39731 0.0
O921 O 0.73331 0.76013 0.42486 0.0
O922 O 0.77119 0.79959 0.4336 0.0
O923 O 0.75769 0.7853 0.38138 0.0
Sc924 Sc 0.7916 0.53695 0.66542 0.0
Sc925 Sc 0.81584 0.51098 0.64055 0.0
Sc926 Sc 0.81817 0.50825 0.68415 0.0
O927 O 0.80854 0.51871 0.66338 0.0
C928 C 0.81636 0.54614 0.69467 0.0
C929 C 0.81323 0.54984 0.63517 0.0
C930 C 0.8496 0.51126 0.66061 0.0
C931 C 0.77727 0.51631 0.63512 0.0
C932 C 0.78047 0.51257 0.69442 0.0
C933 C 0.81345 0.47721 0.66036 0.0
O934 O 0.80561 0.54977 0.68387 0.0
O935 O 0.81875 0.53569 0.63133 0.0
O936 O 0.84281 0.50986 0.67466 0.0
O937 O 0.77569 0.52623 0.64714 0.0
O938 O 0.79443 0.5056 0.69605 0.0
O939 O 0.81323 0.48535 0.647 0.0
O940 O 0.77779 0.52386 0.68388 0.0
O941 O 0.79098 0.50978 0.63125 0.0
O942 O 0.81529 0.4838 0.67444 0.0
O943 O 0.80344 0.55214 0.64718 0.0
O944 O 0.82208 0.53164 0.69643 0.0
O945 O 0.84157 0.51188 0.64719 0.0
Sc946 Sc 0.81931 0.81786 0.64224 0.0
Sc947 Sc 0.81718 0.81581 0.68586 0.0
Sc948 Sc 0.79215 0.79006 0.66153 0.0
O949 O 0.80955 0.80792 0.6632 0.0
C950 C 0.78143 0.81426 0.63223 0.0
C951 C 0.81551 0.84935 0.66558 0.0
C952 C 0.77854 0.81153 0.69159 0.0
C953 C 0.85079 0.81448 0.6657 0.0
C954 C 0.81654 0.7799 0.63224 0.0
C955 C 0.81364 0.77709 0.69182 0.0
O956 O 0.79556 0.82082 0.63038 0.0
O957 O 0.81523 0.84142 0.67906 0.0
O958 O 0.7766 0.8014 0.6798 0.0
O959 O 0.84397 0.81588 0.65166 0.0
O960 O 0.8057 0.77666 0.64308 0.0
O961 O 0.8195 0.79116 0.69543 0.0
O962 O 0.82265 0.79421 0.63034 0.0
O963 O 0.84281 0.81416 0.67916 0.0
O964 O 0.80375 0.77483 0.67989 0.0
O965 O 0.81701 0.8425 0.65157 0.0
O966 O 0.77853 0.80325 0.643 0.0
O967 O 0.79243 0.81781 0.69519 0.0
Sc968 Sc 0.75808 0.56861 0.89242 0.0
Sc969 Sc 0.76059 0.56636 0.93598 0.0
Sc970 Sc 0.78537 0.54068 0.91129 0.0
O971 O 0.76801 0.55856 0.91322 0.0
C972 C 0.76073 0.53072 0.88214 0.0
C973 C 0.72679 0.56512 0.91608 0.0
C974 C 0.76409 0.52761 0.94171 0.0
C975 C 0.76221 0.60001 0.91586 0.0
C976 C 0.79584 0.565 0.88202 0.0
C977 C 0.79929 0.56193 0.94137 0.0
O978 O 0.7546 0.54505 0.88042 0.0
O979 O 0.73487 0.56481 0.92948 0.0
O980 O 0.7739 0.52538 0.9297 0.0
O981 O 0.76052 0.5932 0.90185 0.0
O982 O 0.79886 0.55391 0.89268 0.0
O983 O 0.78544 0.56821 0.94514 0.0
O984 O 0.7817 0.5716 0.8804 0.0
O985 O 0.76257 0.592 0.9293 0.0
O986 O 0.8011 0.55189 0.92947 0.0
O987 O 0.73351 0.56658 0.90201 0.0
O988 O 0.77166 0.5274 0.89288 0.0
O989 O 0.75828 0.54168 0.94541 0.0
Sc990 Sc 0.03499 0.53567 0.16185 0.0
Sc991 Sc 0.01 0.50987 0.18617 0.0
Sc992 Sc 0.00764 0.50806 0.14255 0.0
O993 O 0.01754 0.51786 0.16352 0.0
C994 C 0.01053 0.54604 0.13267 0.0
C995 C 0.01362 0.54856 0.19227 0.0
C996 C 0.97629 0.51142 0.16618 0.0
C997 C 0.04866 0.51405 0.1918 0.0
C998 C 0.04551 0.51153 0.13244 0.0
C999 C 0.01158 0.47643 0.1657 0.0
O1000 O 0.02146 0.54916 0.14346 0.0
O1001 O 0.0078 0.53447 0.19587 0.0
O1002 O 0.98303 0.51006 0.1521 0.0
O1003 O 0.05056 0.52426 0.18007 0.0
O1004 O 0.03132 0.50511 0.13057 0.0
O1005 O 0.01186 0.4843 0.17922 0.0
O1006 O 0.04852 0.52245 0.14327 0.0
O1007 O 0.03478 0.50775 0.19539 0.0
O1008 O 0.00999 0.48338 0.15175 0.0
O1009 O 0.02344 0.55087 0.18028 0.0
O1010 O 0.00429 0.53178 0.13078 0.0
O1011 O 0.98435 0.51164 0.1796 0.0
Sc1012 Sc 0.0347 0.16555 0.79107 0.0
Sc1013 Sc 0.00949 0.14093 0.81635 0.0
Sc1014 Sc 0.00728 0.18459 0.81872 0.0
O1015 O 0.01715 0.1637 0.80873 0.0
C1016 C 0.04511 0.19475 0.81554 0.0
C1017 C 0.04824 0.13543 0.81239 0.0
C1018 C 0.01097 0.16096 0.85005 0.0
C1019 C 0.01332 0.13529 0.77767 0.0
C1020 C 0.01032 0.19474 0.78078 0.0
C1021 C 0.97586 0.16116 0.81498 0.0
O1022 O 0.04805 0.18418 0.80436 0.0
O1023 O 0.03424 0.13141 0.81818 0.0
O1024 O 0.00928 0.17499 0.8433 0.0
O1025 O 0.02343 0.1471 0.7757 0.0
O1026 O 0.00423 0.19671 0.7951 0.0
O1027 O 0.98383 0.14769 0.81483 0.0
O1028 O 0.02108 0.18382 0.77756 0.0
O1029 O 0.00712 0.13167 0.79159 0.0
O1030 O 0.98269 0.1752 0.81633 0.0
O1031 O 0.05027 0.14755 0.80268 0.0
O1032 O 0.03097 0.19644 0.82212 0.0
O1033 O 0.01152 0.14754 0.84201 0.0
Sc1034 Sc 0.39234 0.75782 0.06824 0.0
Sc1035 Sc 0.43593 0.76028 0.06636 0.0
Sc1036 Sc 0.41151 0.7856 0.04096 0.0
O1037 O 0.41326 0.76789 0.05852 0.0
C1038 C 0.38238 0.76119 0.03032 0.0
C1039 C 0.41598 0.72654 0.06454 0.0
C1040 C 0.44189 0.76435 0.02771 0.0
C1041 C 0.41555 0.76154 0.09986 0.0
C1042 C 0.38205 0.79568 0.06524 0.0
C1043 C 0.44159 0.799 0.06255 0.0
O1044 O 0.38054 0.75475 0.0445 0.0
O1045 O 0.42939 0.73462 0.06444 0.0
O1046 O 0.42997 0.7743 0.02559 0.0
O1047 O 0.4016 0.7599 0.09293 0.0
O1048 O 0.39285 0.79891 0.05434 0.0
O1049 O 0.44523 0.78501 0.0686 0.0
O1050 O 0.38032 0.7814 0.07151 0.0
O1051 O 0.42906 0.76199 0.09197 0.0
O1052 O 0.42972 0.80107 0.05253 0.0
O1053 O 0.4019 0.73325 0.06593 0.0
O1054 O 0.39314 0.77219 0.02732 0.0
O1055 O 0.44547 0.75825 0.04169 0.0
Sc1056 Sc 0.4341 0.75852 0.75843 0.0
Sc1057 Sc 0.39051 0.76093 0.76088 0.0
Sc1058 Sc 0.41524 0.78618 0.78603 0.0
O1059 O 0.41329 0.76854 0.76844 0.0
C1060 C 0.44434 0.76156 0.79629 0.0
C1061 C 0.41052 0.72719 0.76202 0.0
C1062 C 0.38503 0.76486 0.7996 0.0
C1063 C 0.41049 0.76253 0.72714 0.0
C1064 C 0.44453 0.79632 0.76161 0.0
C1065 C 0.38491 0.79968 0.7649 0.0
O1066 O 0.44608 0.75519 0.78206 0.0
O1067 O 0.39711 0.73523 0.76248 0.0
O1068 O 0.39692 0.77488 0.80154 0.0
O1069 O 0.42455 0.76088 0.73385 0.0
O1070 O 0.4338 0.79952 0.77258 0.0
O1071 O 0.38113 0.78569 0.75896 0.0
O1072 O 0.44619 0.78208 0.75526 0.0
O1073 O 0.39708 0.76288 0.73521 0.0
O1074 O 0.39698 0.80175 0.77468 0.0
O1075 O 0.42457 0.73394 0.76051 0.0
O1076 O 0.43368 0.77262 0.7994 0.0
O1077 O 0.38131 0.75872 0.78567 0.0
Sc1078 Sc 0.41061 0.54082 0.2855 0.0
Sc1079 Sc 0.43549 0.56627 0.26072 0.0
Sc1080 Sc 0.39193 0.56862 0.25791 0.0
O1081 O 0.41267 0.55858 0.26804 0.0
C1082 C 0.38156 0.53077 0.26079 0.0
C1083 C 0.44102 0.5275 0.26439 0.0
C1084 C 0.41579 0.56495 0.2268 0.0
C1085 C 0.44072 0.56201 0.29944 0.0
C1086 C 0.38138 0.5653 0.29567 0.0
C1087 C 0.41542 0.59997 0.26198 0.0
O1088 O 0.3922 0.52753 0.27182 0.0
O1089 O 0.44485 0.54153 0.25857 0.0
O1090 O 0.40166 0.56644 0.2334 0.0
O1091 O 0.4288 0.55201 0.30125 0.0
O1092 O 0.37978 0.57178 0.28147 0.0
O1093 O 0.42885 0.59194 0.26255 0.0
O1094 O 0.39203 0.55424 0.29881 0.0
O1095 O 0.44454 0.56823 0.28558 0.0
O1096 O 0.40141 0.5932 0.26023 0.0
O1097 O 0.42895 0.52538 0.27415 0.0
O1098 O 0.37991 0.54505 0.25452 0.0
O1099 O 0.42913 0.56462 0.23498 0.0
Sc1100 Sc 0.03531 0.16055 0.5361 0.0
Sc1101 Sc 0.01039 0.18532 0.51069 0.0
Sc1102 Sc 0.00776 0.14173 0.50835 0.0
O1103 O 0.01781 0.16252 0.51837 0.0
C1104 C 0.04557 0.13138 0.51156 0.0
C1105 C 0.04912 0.19059 0.51476 0.0
C1106 C 0.01171 0.16524 0.477 0.0
C1107 C 0.0142 0.19094 0.54944 0.0
C1108 C 0.01067 0.13148 0.54624 0.0
C1109 C 0.97657 0.16548 0.51217 0.0
O1110 O 0.04864 0.14202 0.52265 0.0
O1111 O 0.03522 0.19442 0.50862 0.0
O1112 O 0.01002 0.15122 0.48376 0.0
O1113 O 0.02399 0.17889 0.55154 0.0
O1114 O 0.00446 0.12969 0.53195 0.0
O1115 O 0.98469 0.17885 0.51247 0.0
O1116 O 0.02165 0.14219 0.54945 0.0
O1117 O 0.0083 0.19473 0.53543 0.0
O1118 O 0.98322 0.15138 0.51061 0.0
O1119 O 0.05098 0.1787 0.52479 0.0
O1120 O 0.03136 0.12967 0.50512 0.0
O1121 O 0.01217 0.17866 0.48504 0.0
Sc1122 Sc 0.06922 0.93457 0.5692 0.0
Sc1123 Sc 0.06685 0.89092 0.56717 0.0
Sc1124 Sc 0.04071 0.91536 0.54273 0.0
O1125 O 0.05895 0.91362 0.5597 0.0
C1126 C 0.03119 0.94458 0.56735 0.0
C1127 C 0.06625 0.91121 0.60077 0.0
C1128 C 0.02811 0.88504 0.56445 0.0
C1129 C 0.10047 0.91094 0.56482 0.0
C1130 C 0.06481 0.94461 0.53148 0.0
C1131 C 0.06176 0.88531 0.52855 0.0
O1132 O 0.04574 0.94679 0.57278 0.0
O1133 O 0.06593 0.89773 0.59282 0.0
O1134 O 0.02578 0.89685 0.55443 0.0
O1135 O 0.09377 0.92498 0.56662 0.0
O1136 O 0.05347 0.93409 0.52897 0.0
O1137 O 0.0681 0.8815 0.54237 0.0
O1138 O 0.07197 0.94625 0.54535 0.0
O1139 O 0.09241 0.89754 0.56452 0.0
O1140 O 0.05183 0.8973 0.52677 0.0
O1141 O 0.06744 0.92525 0.59391 0.0
O1142 O 0.02758 0.9335 0.55688 0.0
O1143 O 0.04223 0.88149 0.57021 0.0
Sc1144 Sc 0.5692 0.89223 0.75788 0.0
Sc1145 Sc 0.56713 0.93587 0.75992 0.0
Sc1146 Sc 0.54203 0.9116 0.78562 0.0
O1147 O 0.55946 0.91322 0.7678 0.0
C1148 C 0.53131 0.8823 0.76144 0.0
C1149 C 0.56531 0.91557 0.72639 0.0
C1150 C 0.52848 0.94166 0.76413 0.0
C1151 C 0.60072 0.91562 0.76125 0.0
C1152 C 0.5664 0.8823 0.79586 0.0
C1153 C 0.56359 0.94184 0.79863 0.0
O1154 O 0.54545 0.88039 0.75493 0.0
O1155 O 0.56511 0.92905 0.73433 0.0
O1156 O 0.52651 0.92985 0.77424 0.0
O1157 O 0.59388 0.9016 0.75984 0.0
O1158 O 0.55555 0.89316 0.79903 0.0
O1159 O 0.56949 0.94543 0.78457 0.0
O1160 O 0.57255 0.88036 0.78156 0.0
O1161 O 0.59276 0.9291 0.76157 0.0
O1162 O 0.55364 0.92995 0.80086 0.0
O1163 O 0.56684 0.90156 0.73323 0.0
O1164 O 0.5284 0.89309 0.77242 0.0
O1165 O 0.5424 0.94528 0.75792 0.0
Sc1166 Sc 0.68471 0.31876 0.00834 0.0
Sc1167 Sc 0.64111 0.31632 0.01083 0.0
Sc1168 Sc 0.66591 0.29128 0.03611 0.0
O1169 O 0.66391 0.30879 0.01841 0.0
C1170 C 0.69509 0.28097 0.0116 0.0
C1171 C 0.66103 0.31484 0.97708 0.0
C1172 C 0.63561 0.2776 0.01504 0.0
C1173 C 0.66113 0.35008 0.01198 0.0
C1174 C 0.69508 0.31579 0.0462 0.0
C1175 C 0.63568 0.31261 0.04957 0.0
O1176 O 0.69669 0.29515 0.00509 0.0
O1177 O 0.64764 0.31436 0.98516 0.0
O1178 O 0.64769 0.27568 0.02483 0.0
O1179 O 0.67519 0.34334 0.01054 0.0
O1180 O 0.68431 0.30488 0.04943 0.0
O1181 O 0.6319 0.31862 0.03561 0.0
O1182 O 0.69686 0.32201 0.03191 0.0
O1183 O 0.64771 0.34203 0.01235 0.0
O1184 O 0.6476 0.30264 0.05158 0.0
O1185 O 0.67509 0.31654 0.98378 0.0
O1186 O 0.68447 0.27789 0.02271 0.0
O1187 O 0.63173 0.29152 0.00898 0.0
Sc1188 Sc 0.66521 0.53628 0.79231 0.0
Sc1189 Sc 0.64087 0.51049 0.81728 0.0
Sc1190 Sc 0.68448 0.50824 0.81924 0.0
O1191 O 0.66353 0.51833 0.80961 0.0
C1192 C 0.69449 0.51211 0.7814 0.0
C1193 C 0.63507 0.51501 0.77864 0.0
C1194 C 0.66098 0.47688 0.81519 0.0
C1195 C 0.63499 0.5492 0.81398 0.0
C1196 C 0.69456 0.54623 0.81669 0.0
C1197 C 0.66119 0.51145 0.85084 0.0
O1198 O 0.6838 0.52323 0.77861 0.0
O1199 O 0.63141 0.50878 0.79254 0.0
O1200 O 0.67503 0.48363 0.81677 0.0
O1201 O 0.64683 0.55145 0.80397 0.0
O1202 O 0.6965 0.53185 0.82265 0.0
O1203 O 0.6477 0.51186 0.84292 0.0
O1204 O 0.68363 0.54957 0.80596 0.0
O1205 O 0.63143 0.53514 0.81988 0.0
O1206 O 0.67519 0.51009 0.84394 0.0
O1207 O 0.64697 0.52501 0.77669 0.0
O1208 O 0.69623 0.50536 0.79546 0.0
O1209 O 0.64755 0.48491 0.81502 0.0
Sc1210 Sc 0.16102 0.7915 0.29125 0.0
Sc1211 Sc 0.18554 0.81685 0.31651 0.0
Sc1212 Sc 0.14194 0.81918 0.31867 0.0
O1213 O 0.16283 0.80918 0.30882 0.0
C1214 C 0.13189 0.81592 0.28074 0.0
C1215 C 0.19134 0.81276 0.27786 0.0
C1216 C 0.16547 0.85054 0.31495 0.0
C1217 C 0.19113 0.77808 0.31274 0.0
C1218 C 0.13163 0.78135 0.31558 0.0
C1219 C 0.16539 0.81561 0.35013 0.0
O1220 O 0.14269 0.80499 0.27767 0.0
O1221 O 0.19493 0.81894 0.2918 0.0
O1222 O 0.15142 0.84377 0.31638 0.0
O1223 O 0.17916 0.776 0.30284 0.0
O1224 O 0.12996 0.79558 0.32197 0.0
O1225 O 0.17884 0.81513 0.34215 0.0
O1226 O 0.14235 0.77819 0.30459 0.0
O1227 O 0.1949 0.79209 0.31866 0.0
O1228 O 0.15136 0.81715 0.34332 0.0
O1229 O 0.17948 0.80273 0.27584 0.0
O1230 O 0.13 0.82225 0.29498 0.0
O1231 O 0.17891 0.84252 0.3147 0.0
Sc1232 Sc 0.31902 0.31802 0.64208 0.0
Sc1233 Sc 0.31657 0.31589 0.68569 0.0
Sc1234 Sc 0.29182 0.29012 0.66112 0.0
O1235 O 0.30915 0.30801 0.66296 0.0
C1236 C 0.28122 0.31433 0.63181 0.0
C1237 C 0.31474 0.34945 0.66543 0.0
C1238 C 0.2779 0.31139 0.69117 0.0
C1239 C 0.35035 0.31489 0.66576 0.0
C1240 C 0.31648 0.28008 0.63199 0.0
C1241 C 0.31318 0.27714 0.69151 0.0
O1242 O 0.29538 0.32084 0.63001 0.0
O1243 O 0.31451 0.3415 0.67891 0.0
O1244 O 0.27611 0.3013 0.67932 0.0
O1245 O 0.34361 0.31626 0.65168 0.0
O1246 O 0.30552 0.27685 0.64271 0.0
O1247 O 0.31894 0.29123 0.69522 0.0
O1248 O 0.32264 0.29439 0.63018 0.0
O1249 O 0.34229 0.31442 0.67917 0.0
O1250 O 0.30339 0.27487 0.67949 0.0
O1251 O 0.3164 0.34262 0.65144 0.0
O1252 O 0.27824 0.30334 0.64258 0.0
O1253 O 0.29174 0.31772 0.6949 0.0
Sc1254 Sc 0.25737 0.56852 0.39239 0.0
Sc1255 Sc 0.25967 0.56585 0.43597 0.0
Sc1256 Sc 0.2845 0.54037 0.41119 0.0
O1257 O 0.26717 0.55825 0.41318 0.0
C1258 C 0.25993 0.53069 0.38188 0.0
C1259 C 0.22595 0.56512 0.4159 0.0
C1260 C 0.263 0.52704 0.44133 0.0
C1261 C 0.26165 0.59966 0.41613 0.0
C1262 C 0.29519 0.56487 0.38218 0.0
C1263 C 0.29832 0.56129 0.44153 0.0
O1264 O 0.25377 0.54502 0.38024 0.0
O1265 O 0.23397 0.5645 0.42933 0.0
O1266 O 0.27286 0.52492 0.42935 0.0
O1267 O 0.26 0.59303 0.40203 0.0
O1268 O 0.29814 0.55377 0.39284 0.0
O1269 O 0.28446 0.56754 0.4453 0.0
O1270 O 0.28105 0.57143 0.38042 0.0
O1271 O 0.26184 0.59153 0.4295 0.0
O1272 O 0.30016 0.55136 0.42955 0.0
O1273 O 0.23274 0.56667 0.40187 0.0
O1274 O 0.27086 0.52732 0.39259 0.0
O1275 O 0.25721 0.54108 0.44518 0.0
Sc1276 Sc 0.258 0.2581 0.43434 0.0
Sc1277 Sc 0.26014 0.25999 0.39071 0.0
Sc1278 Sc 0.28521 0.28578 0.41494 0.0
O1279 O 0.26778 0.26795 0.41334 0.0
C1280 C 0.26086 0.29609 0.44423 0.0
C1281 C 0.22653 0.26145 0.41088 0.0
C1282 C 0.26366 0.29868 0.38466 0.0
C1283 C 0.26181 0.22652 0.4111 0.0
C1284 C 0.2959 0.26167 0.44431 0.0
C1285 C 0.29878 0.26421 0.38492 0.0
O1286 O 0.25467 0.2818 0.44616 0.0
O1287 O 0.23451 0.26169 0.39742 0.0
O1288 O 0.27357 0.30098 0.39657 0.0
O1289 O 0.2603 0.23341 0.42509 0.0
O1290 O 0.29884 0.27261 0.43348 0.0
O1291 O 0.28488 0.25793 0.38136 0.0
O1292 O 0.28175 0.25518 0.44621 0.0
O1293 O 0.26208 0.23442 0.3976 0.0
O1294 O 0.30073 0.27439 0.39668 0.0
O1295 O 0.23333 0.26008 0.42493 0.0
O1296 O 0.27172 0.29923 0.43338 0.0
O1297 O 0.25783 0.2846 0.38108 0.0
Sc1298 Sc 0.2914 0.53642 0.16591 0.0
Sc1299 Sc 0.31629 0.51101 0.14109 0.0
Sc1300 Sc 0.31893 0.50863 0.18467 0.0
O1301 O 0.30888 0.51868 0.16389 0.0
C1302 C 0.31593 0.54644 0.19512 0.0
C1303 C 0.31255 0.54979 0.13557 0.0
C1304 C 0.35013 0.51241 0.16092 0.0
C1305 C 0.27758 0.51521 0.13575 0.0
C1306 C 0.2811 0.51182 0.19499 0.0
C1307 C 0.31501 0.4773 0.16112 0.0
O1308 O 0.30494 0.54968 0.18443 0.0
O1309 O 0.31836 0.53576 0.13172 0.0
O1310 O 0.34348 0.51086 0.17502 0.0
O1311 O 0.27576 0.52525 0.14763 0.0
O1312 O 0.29532 0.50541 0.19672 0.0
O1313 O 0.31452 0.48534 0.14771 0.0
O1314 O 0.27801 0.52289 0.18434 0.0
O1315 O 0.29145 0.50897 0.13197 0.0
O1316 O 0.31668 0.48405 0.17515 0.0
O1317 O 0.30282 0.55192 0.14766 0.0
O1318 O 0.32224 0.53218 0.19675 0.0
O1319 O 0.34199 0.51275 0.14755 0.0
Sc1320 Sc 0.06876 0.89233 0.25784 0.0
Sc1321 Sc 0.06622 0.93592 0.25998 0.0
Sc1322 Sc 0.04104 0.91131 0.2853 0.0
O1323 O 0.05868 0.91318 0.2677 0.0
C1324 C 0.03099 0.88183 0.26106 0.0
C1325 C 0.06474 0.9157 0.22638 0.0
C1326 C 0.02744 0.94133 0.26385 0.0
C1327 C 0.10002 0.91602 0.26134 0.0
C1328 C 0.06573 0.88239 0.29581 0.0
C1329 C 0.0622 0.94173 0.29863 0.0
O1330 O 0.04523 0.88019 0.2547 0.0
O1331 O 0.06434 0.92915 0.23436 0.0
O1332 O 0.02541 0.92934 0.27373 0.0
O1333 O 0.0933 0.90194 0.25994 0.0
O1334 O 0.05468 0.89308 0.29885 0.0
O1335 O 0.06838 0.94533 0.28469 0.0
O1336 O 0.07206 0.88051 0.28157 0.0
O1337 O 0.09193 0.92942 0.26166 0.0
O1338 O 0.0522 0.92984 0.30066 0.0
O1339 O 0.06644 0.90169 0.23319 0.0
O1340 O 0.02778 0.89258 0.27201 0.0
O1341 O 0.04143 0.94518 0.25794 0.0
Sc1342 Sc 0.66197 0.29133 0.29081 0.0
Sc1343 Sc 0.68635 0.31674 0.31612 0.0
Sc1344 Sc 0.64274 0.31891 0.31826 0.0
O1345 O 0.66368 0.309 0.3084 0.0
C1346 C 0.63269 0.31565 0.28035 0.0
C1347 C 0.69215 0.31276 0.27744 0.0
C1348 C 0.66618 0.35034 0.31454 0.0
C1349 C 0.69217 0.27804 0.3123 0.0
C1350 C 0.63268 0.28099 0.31514 0.0
C1351 C 0.66615 0.31525 0.34972 0.0
O1352 O 0.64347 0.30469 0.27731 0.0
O1353 O 0.69578 0.31883 0.29141 0.0
O1354 O 0.65215 0.34355 0.31606 0.0
O1355 O 0.6803 0.27594 0.30229 0.0
O1356 O 0.63081 0.29524 0.32143 0.0
O1357 O 0.67961 0.31498 0.34174 0.0
O1358 O 0.6435 0.27787 0.30424 0.0
O1359 O 0.69578 0.29204 0.31834 0.0
O1360 O 0.65212 0.31673 0.34291 0.0
O1361 O 0.68027 0.30275 0.27537 0.0
O1362 O 0.63086 0.32205 0.29456 0.0
O1363 O 0.67963 0.34235 0.31424 0.0
Sc1364 Sc 0.53534 0.16585 0.29085 0.0
Sc1365 Sc 0.51036 0.14134 0.31649 0.0
Sc1366 Sc 0.50784 0.18494 0.31845 0.0
O1367 O 0.51784 0.16405 0.30861 0.0
C1368 C 0.54563 0.19531 0.31503 0.0
C1369 C 0.5491 0.13591 0.31235 0.0
C1370 C 0.51179 0.16169 0.35 0.0
C1371 C 0.5141 0.13538 0.27782 0.0
C1372 C 0.51072 0.19485 0.28046 0.0
C1373 C 0.47657 0.16126 0.31507 0.0
O1374 O 0.54871 0.18458 0.30403 0.0
O1375 O 0.53519 0.13212 0.31848 0.0
O1376 O 0.51012 0.17566 0.34312 0.0
O1377 O 0.52401 0.14731 0.27562 0.0
O1378 O 0.50452 0.19677 0.29474 0.0
O1379 O 0.48464 0.14786 0.31483 0.0
O1380 O 0.52166 0.18408 0.27734 0.0
O1381 O 0.50812 0.13179 0.29184 0.0
O1382 O 0.48329 0.17535 0.31639 0.0
O1383 O 0.55101 0.1478 0.30234 0.0
O1384 O 0.53145 0.19699 0.32152 0.0
O1385 O 0.51227 0.1482 0.34208 0.0
Sc1386 Sc 0.9341 0.25813 0.75784 0.0
Sc1387 Sc 0.89051 0.2603 0.76008 0.0
Sc1388 Sc 0.91496 0.28563 0.78542 0.0
O1389 O 0.9132 0.26801 0.76778 0.0
C1390 C 0.94426 0.26123 0.79572 0.0
C1391 C 0.91064 0.22668 0.76134 0.0
C1392 C 0.88479 0.26417 0.79879 0.0
C1393 C 0.91065 0.262 0.72644 0.0
C1394 C 0.94423 0.29604 0.76111 0.0
C1395 C 0.88471 0.29897 0.76405 0.0
O1396 O 0.94596 0.2548 0.78151 0.0
O1397 O 0.8972 0.23467 0.76181 0.0
O1398 O 0.8967 0.27414 0.80088 0.0
O1399 O 0.9247 0.26053 0.73322 0.0
O1400 O 0.93338 0.29917 0.77199 0.0
O1401 O 0.8811 0.285 0.75796 0.0
O1402 O 0.9461 0.28179 0.75483 0.0
O1403 O 0.8972 0.26217 0.73444 0.0
O1404 O 0.89658 0.30106 0.77406 0.0
O1405 O 0.92466 0.23349 0.75981 0.0
O1406 O 0.93355 0.27226 0.79881 0.0
O1407 O 0.88113 0.25814 0.7848 0.0
Sc1408 Sc 0.54191 0.04089 0.91557 0.0
Sc1409 Sc 0.56666 0.06649 0.89083 0.0
Sc1410 Sc 0.56896 0.06911 0.93441 0.0
O1411 O 0.55918 0.05884 0.91361 0.0
C1412 C 0.53115 0.06534 0.94462 0.0
C1413 C 0.52803 0.06188 0.8853 0.0
C1414 C 0.56471 0.10027 0.91072 0.0
C1415 C 0.56336 0.02767 0.88537 0.0
C1416 C 0.56651 0.03126 0.94486 0.0
C1417 C 0.60037 0.06566 0.91087 0.0
O1418 O 0.52825 0.05424 0.93395 0.0
O1419 O 0.54186 0.06823 0.88158 0.0
O1420 O 0.56632 0.09362 0.9248 0.0
O1421 O 0.55357 0.0255 0.8974 0.0
O1422 O 0.5726 0.04562 0.94653 0.0
O1423 O 0.59233 0.06507 0.89745 0.0
O1424 O 0.55559 0.02786 0.93415 0.0
O1425 O 0.56908 0.04174 0.88152 0.0
O1426 O 0.5936 0.06726 0.92491 0.0
O1427 O 0.52622 0.05186 0.8972 0.0
O1428 O 0.54527 0.07197 0.94638 0.0
O1429 O 0.56453 0.09216 0.89734 0.0
Sc1430 Sc 0.50781 0.31936 0.18432 0.0
Sc1431 Sc 0.51011 0.31699 0.14074 0.0
Sc1432 Sc 0.53527 0.29164 0.16534 0.0
O1433 O 0.51772 0.30934 0.16348 0.0
C1434 C 0.54567 0.316 0.19457 0.0
C1435 C 0.51175 0.35069 0.16081 0.0
C1436 C 0.5488 0.31299 0.13515 0.0
C1437 C 0.47642 0.31567 0.16079 0.0
C1438 C 0.51074 0.28149 0.19455 0.0
C1439 C 0.51393 0.27826 0.13511 0.0
O1440 O 0.53146 0.3224 0.19633 0.0
O1441 O 0.51194 0.34265 0.14738 0.0
O1442 O 0.55079 0.30296 0.14703 0.0
O1443 O 0.48318 0.31731 0.17482 0.0
O1444 O 0.52177 0.27831 0.18386 0.0
O1445 O 0.50798 0.29226 0.13135 0.0
O1446 O 0.50442 0.29574 0.19625 0.0
O1447 O 0.48446 0.31521 0.14737 0.0
O1448 O 0.52381 0.27619 0.14709 0.0
O1449 O 0.51022 0.34396 0.17486 0.0
O1450 O 0.54876 0.30503 0.18381 0.0
O1451 O 0.53486 0.3191 0.13146 0.0
Sc1452 Sc 0.54166 0.28598 0.41066 0.0
Sc1453 Sc 0.56672 0.26092 0.43567 0.0
Sc1454 Sc 0.56946 0.2583 0.39212 0.0
O1455 O 0.55928 0.26839 0.41281 0.0
C1456 C 0.53164 0.26123 0.38162 0.0
C1457 C 0.52798 0.26495 0.44101 0.0
C1458 C 0.56559 0.22709 0.41585 0.0
C1459 C 0.5628 0.2997 0.44088 0.0
C1460 C 0.56626 0.29604 0.38149 0.0
C1461 C 0.60059 0.26233 0.41589 0.0
O1462 O 0.52839 0.27229 0.39224 0.0
O1463 O 0.5419 0.25887 0.44485 0.0
O1464 O 0.56728 0.23377 0.40178 0.0
O1465 O 0.55296 0.30166 0.42884 0.0
O1466 O 0.5727 0.28182 0.37994 0.0
O1467 O 0.59243 0.2627 0.42924 0.0
O1468 O 0.55518 0.29921 0.3921 0.0
O1469 O 0.56874 0.28575 0.4448 0.0
O1470 O 0.59397 0.26069 0.40179 0.0
O1471 O 0.52605 0.27481 0.42899 0.0
O1472 O 0.54591 0.25492 0.38 0.0
O1473 O 0.56502 0.2352 0.42922 0.0
Sc1474 Sc 0.53508 0.03588 0.16067 0.0
Sc1475 Sc 0.50988 0.01065 0.18536 0.0
Sc1476 Sc 0.50706 0.00866 0.14177 0.0
O1477 O 0.51734 0.01839 0.16259 0.0
C1478 C 0.51049 0.04653 0.13169 0.0
C1479 C 0.51413 0.04933 0.19113 0.0
C1480 C 0.47599 0.01253 0.16567 0.0
C1481 C 0.54865 0.01433 0.19071 0.0
C1482 C 0.54488 0.01146 0.13127 0.0
C1483 C 0.51079 0.97709 0.16502 0.0
O1484 O 0.52162 0.04948 0.14232 0.0
O1485 O 0.50809 0.03536 0.19488 0.0
O1486 O 0.48258 0.01105 0.15153 0.0
O1487 O 0.55064 0.02437 0.17884 0.0
O1488 O 0.53055 0.0053 0.12957 0.0
O1489 O 0.51139 0.98501 0.17851 0.0
O1490 O 0.54822 0.02233 0.14205 0.0
O1491 O 0.5347 0.00828 0.19444 0.0
O1492 O 0.50912 0.98398 0.15106 0.0
O1493 O 0.52392 0.05137 0.17907 0.0
O1494 O 0.50395 0.03238 0.12994 0.0
O1495 O 0.48417 0.01269 0.17901 0.0
Sc1496 Sc 0.9346 0.06815 0.56892 0.0
Sc1497 Sc 0.89102 0.06582 0.56623 0.0
Sc1498 Sc 0.91582 0.04103 0.54074 0.0
O1499 O 0.91382 0.05834 0.55864 0.0
C1500 C 0.94508 0.06562 0.53106 0.0
C1501 C 0.91106 0.09954 0.56525 0.0
C1502 C 0.88559 0.06238 0.52743 0.0
C1503 C 0.91084 0.06408 0.60005 0.0
C1504 C 0.9448 0.03033 0.56533 0.0
C1505 C 0.88556 0.02716 0.56176 0.0
O1506 O 0.9468 0.07164 0.54544 0.0
O1507 O 0.89765 0.09149 0.56477 0.0
O1508 O 0.8976 0.05256 0.52532 0.0
O1509 O 0.92493 0.06572 0.59341 0.0
O1510 O 0.93423 0.0275 0.55411 0.0
O1511 O 0.88177 0.04103 0.568 0.0
O1512 O 0.94651 0.04443 0.57201 0.0
O1513 O 0.89748 0.06376 0.59192 0.0
O1514 O 0.89751 0.02531 0.5518 0.0
O1515 O 0.92511 0.09279 0.56684 0.0
O1516 O 0.93433 0.05476 0.52764 0.0
O1517 O 0.88175 0.06819 0.54146 0.0
Sc1518 Sc 0.8925 0.25839 0.06912 0.0
Sc1519 Sc 0.93609 0.26068 0.06673 0.0
Sc1520 Sc 0.91146 0.28636 0.04191 0.0
O1521 O 0.91334 0.26847 0.05926 0.0
C1522 C 0.88211 0.26213 0.03138 0.0
C1523 C 0.91602 0.22705 0.06496 0.0
C1524 C 0.94152 0.26513 0.02801 0.0
C1525 C 0.9161 0.26167 0.10049 0.0
C1526 C 0.88237 0.29635 0.06656 0.0
C1527 C 0.94185 0.29939 0.0633 0.0
O1528 O 0.88053 0.25541 0.04547 0.0
O1529 O 0.92944 0.23507 0.06456 0.0
O1530 O 0.92954 0.27506 0.02614 0.0
O1531 O 0.90203 0.26035 0.09373 0.0
O1532 O 0.89319 0.29968 0.05572 0.0
O1533 O 0.94546 0.28535 0.06923 0.0
O1534 O 0.88049 0.28198 0.07256 0.0
O1535 O 0.92951 0.26203 0.09244 0.0
O1536 O 0.92996 0.30158 0.05333 0.0
O1537 O 0.90199 0.2338 0.06669 0.0
O1538 O 0.89274 0.27326 0.02843 0.0
O1539 O 0.94535 0.25899 0.04191 0.0
Sc1540 Sc 0.31853 0.64249 0.31968 0.0
Sc1541 Sc 0.31635 0.68609 0.31728 0.0
Sc1542 Sc 0.2907 0.66151 0.29238 0.0
O1543 O 0.30853 0.66336 0.30979 0.0
C1544 C 0.3151 0.63235 0.28183 0.0
C1545 C 0.34996 0.66588 0.31568 0.0
C1546 C 0.31203 0.69161 0.2786 0.0
C1547 C 0.31498 0.66608 0.35102 0.0
C1548 C 0.28064 0.63226 0.31687 0.0
C1549 C 0.27759 0.69187 0.3137 0.0
O1550 O 0.32157 0.63054 0.29601 0.0
O1551 O 0.34199 0.67935 0.31537 0.0
O1552 O 0.30193 0.67977 0.27678 0.0
O1553 O 0.31647 0.65202 0.34428 0.0
O1554 O 0.2774 0.64301 0.30594 0.0
O1555 O 0.29166 0.69559 0.3195 0.0
O1556 O 0.29494 0.63052 0.32308 0.0
O1557 O 0.31465 0.6795 0.34297 0.0
O1558 O 0.27536 0.67983 0.30392 0.0
O1559 O 0.34312 0.65189 0.31731 0.0
O1560 O 0.30406 0.64306 0.27884 0.0
O1561 O 0.31834 0.69532 0.29246 0.0
Sc1562 Sc 0.31907 0.68468 0.00756 0.0
Sc1563 Sc 0.31661 0.6411 0.0098 0.0
Sc1564 Sc 0.29156 0.66572 0.03526 0.0
O1565 O 0.30909 0.66384 0.01753 0.0
C1566 C 0.31609 0.69491 0.04544 0.0
C1567 C 0.35037 0.66104 0.01125 0.0
C1568 C 0.31284 0.6354 0.04854 0.0
C1569 C 0.31524 0.66122 0.97616 0.0
C1570 C 0.28122 0.69496 0.01087 0.0
C1571 C 0.27792 0.63559 0.0139 0.0
O1572 O 0.32238 0.69664 0.03118 0.0
O1573 O 0.34228 0.64764 0.01157 0.0
O1574 O 0.30299 0.6474 0.05068 0.0
O1575 O 0.31681 0.67524 0.98295 0.0
O1576 O 0.27813 0.68424 0.02187 0.0
O1577 O 0.29183 0.63189 0.00771 0.0
O1578 O 0.29543 0.69669 0.00443 0.0
O1579 O 0.31484 0.64778 0.98416 0.0
O1580 O 0.27599 0.64745 0.02395 0.0
O1581 O 0.34366 0.67511 0.00973 0.0
O1582 O 0.3051 0.68419 0.04862 0.0
O1583 O 0.31874 0.63167 0.03452 0.0
Sc1584 Sc 0.91142 0.04128 0.28534 0.0
Sc1585 Sc 0.93571 0.06674 0.25996 0.0
Sc1586 Sc 0.89213 0.06869 0.25774 0.0
O1587 O 0.91308 0.05891 0.26768 0.0
C1588 C 0.88217 0.03077 0.26097 0.0
C1589 C 0.94163 0.02804 0.26393 0.0
C1590 C 0.91564 0.06506 0.22633 0.0
C1591 C 0.9415 0.06293 0.29865 0.0
C1592 C 0.88205 0.06554 0.29567 0.0
C1593 C 0.91539 0.10026 0.26129 0.0
O1594 O 0.89289 0.02778 0.27201 0.0
O1595 O 0.9453 0.04207 0.25801 0.0
O1596 O 0.90161 0.06659 0.23311 0.0
O1597 O 0.92984 0.05267 0.30073 0.0
O1598 O 0.88018 0.07177 0.2814 0.0
O1599 O 0.92888 0.09235 0.26153 0.0
O1600 O 0.89293 0.0547 0.29884 0.0
O1601 O 0.94494 0.06916 0.2847 0.0
O1602 O 0.90138 0.09338 0.25993 0.0
O1603 O 0.92967 0.02587 0.27382 0.0
O1604 O 0.88036 0.04496 0.25452 0.0
O1605 O 0.92908 0.06472 0.23433 0.0
Sc1606 Sc 0.53523 0.6607 0.53483 0.0
Sc1607 Sc 0.50997 0.68566 0.50991 0.0
Sc1608 Sc 0.50739 0.6421 0.50727 0.0
O1609 O 0.51752 0.66282 0.51733 0.0
C1610 C 0.54521 0.63166 0.51006 0.0
C1611 C 0.54876 0.69099 0.51367 0.0
C1612 C 0.51104 0.66584 0.47605 0.0
C1613 C 0.51417 0.69095 0.54866 0.0
C1614 C 0.51066 0.63158 0.54503 0.0
C1615 C 0.47617 0.66573 0.51146 0.0
O1616 O 0.54846 0.64224 0.52115 0.0
O1617 O 0.53479 0.69489 0.50774 0.0
O1618 O 0.50946 0.65177 0.48274 0.0
O1619 O 0.52405 0.67894 0.55053 0.0
O1620 O 0.50425 0.62994 0.53081 0.0
O1621 O 0.48425 0.67914 0.51182 0.0
O1622 O 0.52172 0.64222 0.54818 0.0
O1623 O 0.50807 0.69482 0.53476 0.0
O1624 O 0.48288 0.65169 0.50974 0.0
O1625 O 0.55075 0.67895 0.5235 0.0
O1626 O 0.53093 0.63005 0.50377 0.0
O1627 O 0.51155 0.67921 0.48417 0.0
Sc1628 Sc 0.56971 0.43464 0.56881 0.0
Sc1629 Sc 0.56737 0.39107 0.56614 0.0
Sc1630 Sc 0.54235 0.41587 0.54085 0.0
O1631 O 0.55981 0.41387 0.55861 0.0
C1632 C 0.53189 0.4449 0.56549 0.0
C1633 C 0.56579 0.41085 0.59997 0.0
C1634 C 0.52865 0.38558 0.5619 0.0
C1635 C 0.60108 0.41114 0.565 0.0
C1636 C 0.56684 0.44514 0.53097 0.0
C1637 C 0.5637 0.38568 0.52737 0.0
O1638 O 0.54603 0.44654 0.57208 0.0
O1639 O 0.56539 0.39749 0.59182 0.0
O1640 O 0.52672 0.39761 0.55206 0.0
O1641 O 0.59431 0.42519 0.56657 0.0
O1642 O 0.55598 0.43435 0.52764 0.0
O1643 O 0.56969 0.38191 0.54135 0.0
O1644 O 0.57298 0.44686 0.54531 0.0
O1645 O 0.59304 0.39772 0.56459 0.0
O1646 O 0.55374 0.3976 0.52535 0.0
O1647 O 0.56745 0.42494 0.59333 0.0
O1648 O 0.52892 0.43435 0.55429 0.0
O1649 O 0.54258 0.38174 0.56797 0.0
Sc1650 Sc 0.18384 0.81833 0.00823 0.0
Sc1651 Sc 0.14023 0.81622 0.01034 0.0
Sc1652 Sc 0.16458 0.79061 0.03549 0.0
O1653 O 0.16289 0.80839 0.01801 0.0
C1654 C 0.19389 0.78039 0.01112 0.0
C1655 C 0.16041 0.81499 0.97673 0.0
C1656 C 0.13434 0.77752 0.01396 0.0
C1657 C 0.16045 0.84979 0.01207 0.0
C1658 C 0.19388 0.81483 0.04612 0.0
C1659 C 0.13444 0.81203 0.04899 0.0
O1660 O 0.19575 0.79467 0.0049 0.0
O1661 O 0.14695 0.81462 0.9847 0.0
O1662 O 0.14624 0.77532 0.02392 0.0
O1663 O 0.17446 0.84296 0.01057 0.0
O1664 O 0.18309 0.80386 0.04909 0.0
O1665 O 0.13083 0.81821 0.03506 0.0
O1666 O 0.19573 0.82131 0.03195 0.0
O1667 O 0.14698 0.84183 0.01232 0.0
O1668 O 0.14629 0.80197 0.051 0.0
O1669 O 0.17444 0.81637 0.98357 0.0
O1670 O 0.18306 0.77721 0.022 0.0
O1671 O 0.13074 0.79155 0.00801 0.0
Sc1672 Sc 0.78556 0.91519 0.28441 0.0
Sc1673 Sc 0.75983 0.89076 0.25946 0.0
Sc1674 Sc 0.75778 0.9344 0.25721 0.0
O1675 O 0.76772 0.91345 0.26701 0.0
C1676 C 0.76131 0.94443 0.29508 0.0
C1677 C 0.76416 0.88512 0.29812 0.0
C1678 C 0.72629 0.91104 0.26106 0.0
C1679 C 0.79856 0.88487 0.26296 0.0
C1680 C 0.79572 0.9445 0.26004 0.0
C1681 C 0.76108 0.91088 0.22578 0.0
O1682 O 0.77232 0.93367 0.29801 0.0
O1683 O 0.75787 0.88144 0.28425 0.0
O1684 O 0.73314 0.92504 0.25952 0.0
O1685 O 0.80082 0.89685 0.27281 0.0
O1686 O 0.78142 0.94632 0.25385 0.0
O1687 O 0.76142 0.89743 0.23378 0.0
O1688 O 0.79893 0.93367 0.27091 0.0
O1689 O 0.78448 0.88122 0.25714 0.0
O1690 O 0.75974 0.92493 0.23258 0.0
O1691 O 0.77427 0.89694 0.29998 0.0
O1692 O 0.7548 0.94629 0.28093 0.0
O1693 O 0.73422 0.89756 0.26141 0.0
Sc1694 Sc 0.16101 0.53606 0.03592 0.0
Sc1695 Sc 0.18583 0.51103 0.01067 0.0
Sc1696 Sc 0.14227 0.50841 0.0082 0.0
O1697 O 0.16303 0.51849 0.01826 0.0
C1698 C 0.13184 0.51147 0.04602 0.0
C1699 C 0.19131 0.51488 0.04942 0.0
C1700 C 0.166 0.47721 0.01206 0.0
C1701 C 0.1912 0.54976 0.01472 0.0
C1702 C 0.13187 0.54622 0.01133 0.0
C1703 C 0.16589 0.51241 0.97692 0.0
O1704 O 0.14251 0.5225 0.04921 0.0
O1705 O 0.1951 0.50893 0.03543 0.0
O1706 O 0.15191 0.48385 0.01046 0.0
O1707 O 0.17926 0.55168 0.02467 0.0
O1708 O 0.13018 0.53198 0.00497 0.0
O1709 O 0.17928 0.51283 0.98501 0.0
O1710 O 0.14254 0.54938 0.02237 0.0
O1711 O 0.19501 0.53584 0.00863 0.0
O1712 O 0.15183 0.51071 0.98362 0.0
O1713 O 0.17931 0.52474 0.05148 0.0
O1714 O 0.13021 0.50511 0.03178 0.0
O1715 O 0.17936 0.48534 0.01242 0.0
Sc1716 Sc 0.7853 0.91088 0.54159 0.0
Sc1717 Sc 0.76021 0.93556 0.56694 0.0
Sc1718 Sc 0.75783 0.89198 0.56936 0.0
O1719 O 0.76777 0.9128 0.55931 0.0
C1720 C 0.76082 0.88162 0.53153 0.0
C1721 C 0.76398 0.94111 0.52817 0.0
C1722 C 0.72649 0.91554 0.56557 0.0
C1723 C 0.79889 0.94115 0.56279 0.0
C1724 C 0.7957 0.8818 0.56618 0.0
C1725 C 0.76164 0.91556 0.60067 0.0
O1726 O 0.7718 0.89233 0.52831 0.0
O1727 O 0.75806 0.94488 0.54218 0.0
O1728 O 0.73323 0.90149 0.56715 0.0
O1729 O 0.80084 0.92924 0.5528 0.0
O1730 O 0.78148 0.88002 0.57257 0.0
O1731 O 0.76203 0.92898 0.59262 0.0
O1732 O 0.79877 0.89248 0.55512 0.0
O1733 O 0.78498 0.94484 0.56898 0.0
O1734 O 0.76006 0.90152 0.59392 0.0
O1735 O 0.77385 0.92912 0.52608 0.0
O1736 O 0.75454 0.87993 0.54579 0.0
O1737 O 0.73454 0.92896 0.5652 0.0
Sc1738 Sc 0.16578 0.03632 0.79137 0.0
Sc1739 Sc 0.14077 0.0114 0.81652 0.0
Sc1740 Sc 0.18435 0.00892 0.8194 0.0
O1741 O 0.16364 0.01887 0.80911 0.0
C1742 C 0.19496 0.01168 0.78159 0.0
C1743 C 0.13555 0.01514 0.77774 0.0
C1744 C 0.16075 0.97762 0.81553 0.0
C1745 C 0.13544 0.05013 0.81227 0.0
C1746 C 0.19478 0.04668 0.81608 0.0
C1747 C 0.16041 0.01292 0.85043 0.0
O1748 O 0.18423 0.0226 0.77824 0.0
O1749 O 0.13169 0.00916 0.7917 0.0
O1750 O 0.17481 0.98434 0.81719 0.0
O1751 O 0.14754 0.05198 0.8025 0.0
O1752 O 0.19637 0.03253 0.82265 0.0
O1753 O 0.14709 0.01331 0.84222 0.0
O1754 O 0.18425 0.04971 0.80488 0.0
O1755 O 0.13148 0.03624 0.81834 0.0
O1756 O 0.17454 0.01127 0.84388 0.0
O1757 O 0.14755 0.02502 0.77578 0.0
O1758 O 0.19666 0.00554 0.79593 0.0
O1759 O 0.14735 0.9857 0.81498 0.0
Sc1760 Sc 0.54195 0.78571 0.91113 0.0
Sc1761 Sc 0.56694 0.76015 0.93573 0.0
Sc1762 Sc 0.56924 0.75783 0.89215 0.0
O1763 O 0.55938 0.76789 0.913 0.0
C1764 C 0.53142 0.76134 0.8819 0.0
C1765 C 0.52825 0.76448 0.94131 0.0
C1766 C 0.56521 0.72648 0.91566 0.0
C1767 C 0.56338 0.79889 0.94141 0.0
C1768 C 0.56646 0.79573 0.8819 0.0
C1769 C 0.60064 0.76132 0.91565 0.0
O1770 O 0.52843 0.77242 0.89258 0.0
O1771 O 0.54215 0.7583 0.94506 0.0
O1772 O 0.56684 0.73326 0.90163 0.0
O1773 O 0.55346 0.80105 0.92948 0.0
O1774 O 0.57263 0.78142 0.88014 0.0
O1775 O 0.59263 0.76171 0.92909 0.0
O1776 O 0.55556 0.79901 0.89267 0.0
O1777 O 0.56929 0.78486 0.94509 0.0
O1778 O 0.59385 0.75985 0.90161 0.0
O1779 O 0.52634 0.77445 0.92937 0.0
O1780 O 0.54557 0.75479 0.88021 0.0
O1781 O 0.56493 0.73451 0.92909 0.0
Sc1782 Sc 0.50807 0.81857 0.68418 0.0
Sc1783 Sc 0.51029 0.81597 0.64061 0.0
Sc1784 Sc 0.53531 0.79055 0.6653 0.0
O1785 O 0.51789 0.80837 0.66337 0.0
C1786 C 0.54589 0.81503 0.69442 0.0
C1787 C 0.51207 0.84975 0.66048 0.0
C1788 C 0.54897 0.81162 0.63499 0.0
C1789 C 0.47663 0.8149 0.66075 0.0
C1790 C 0.51082 0.78072 0.69462 0.0
C1791 C 0.51389 0.77721 0.63508 0.0
O1792 O 0.53176 0.82164 0.69609 0.0
O1793 O 0.51233 0.84164 0.6471 0.0
O1794 O 0.55092 0.8017 0.64696 0.0
O1795 O 0.48343 0.8165 0.67477 0.0
O1796 O 0.5217 0.77737 0.68384 0.0
O1797 O 0.50794 0.79122 0.63137 0.0
O1798 O 0.50468 0.79505 0.69632 0.0
O1799 O 0.48463 0.81442 0.64731 0.0
O1800 O 0.52382 0.7751 0.64702 0.0
O1801 O 0.51047 0.84309 0.67456 0.0
O1802 O 0.54885 0.80391 0.68378 0.0
O1803 O 0.53506 0.81779 0.63126 0.0
Sc1804 Sc 0.16149 0.03575 0.53568 0.0
Sc1805 Sc 0.18636 0.01044 0.51073 0.0
Sc1806 Sc 0.1428 0.00772 0.50832 0.0
O1807 O 0.16354 0.01796 0.51824 0.0
C1808 C 0.1324 0.01117 0.54612 0.0
C1809 C 0.19175 0.01466 0.54944 0.0
C1810 C 0.16659 0.97659 0.51226 0.0
C1811 C 0.19175 0.04923 0.51442 0.0
C1812 C 0.13222 0.04552 0.51108 0.0
C1813 C 0.16638 0.01153 0.47699 0.0
O1814 O 0.143 0.02232 0.54913 0.0
O1815 O 0.19553 0.0085 0.53554 0.0
O1816 O 0.15249 0.98322 0.51071 0.0
O1817 O 0.17972 0.05129 0.52425 0.0
O1818 O 0.13059 0.03119 0.50491 0.0
O1819 O 0.17979 0.01208 0.48505 0.0
O1820 O 0.14295 0.04889 0.52201 0.0
O1821 O 0.19559 0.03522 0.50855 0.0
O1822 O 0.15234 0.00985 0.48373 0.0
O1823 O 0.1798 0.02462 0.55134 0.0
O1824 O 0.1308 0.00458 0.53197 0.0
O1825 O 0.17995 0.98474 0.51258 0.0
Sc1826 Sc 0.78483 0.41542 0.78542 0.0
Sc1827 Sc 0.75976 0.39077 0.76007 0.0
Sc1828 Sc 0.75722 0.4344 0.75786 0.0
O1829 O 0.76726 0.41354 0.76777 0.0
C1830 C 0.76034 0.44456 0.79575 0.0
C1831 C 0.76362 0.38512 0.7988 0.0
C1832 C 0.72599 0.41071 0.76166 0.0
C1833 C 0.79848 0.38532 0.76406 0.0
C1834 C 0.79509 0.44459 0.76091 0.0
C1835 C 0.76099 0.41094 0.72643 0.0
O1836 O 0.77132 0.43383 0.79884 0.0
O1837 O 0.75769 0.38133 0.7848 0.0
O1838 O 0.73267 0.4248 0.76016 0.0
O1839 O 0.80039 0.39721 0.77407 0.0
O1840 O 0.78085 0.4464 0.75457 0.0
O1841 O 0.76149 0.3975 0.73443 0.0
O1842 O 0.79819 0.4339 0.77193 0.0
O1843 O 0.78456 0.38155 0.75793 0.0
O1844 O 0.75936 0.42495 0.73324 0.0
O1845 O 0.77346 0.39713 0.80088 0.0
O1846 O 0.75402 0.44639 0.78151 0.0
O1847 O 0.73408 0.39732 0.7619 0.0
Sc1848 Sc 0.78514 0.41087 0.04152 0.0
Sc1849 Sc 0.76013 0.43577 0.06675 0.0
Sc1850 Sc 0.75741 0.39221 0.06917 0.0
O1851 O 0.76755 0.41295 0.05915 0.0
C1852 C 0.76043 0.38185 0.03134 0.0
C1853 C 0.76409 0.44124 0.028 0.0
C1854 C 0.72626 0.41601 0.06542 0.0
C1855 C 0.79889 0.44101 0.06277 0.0
C1856 C 0.79521 0.38168 0.06606 0.0
C1857 C 0.76139 0.41574 0.10049 0.0
O1858 O 0.77154 0.39243 0.02819 0.0
O1859 O 0.75814 0.4451 0.04197 0.0
O1860 O 0.7329 0.40192 0.067 0.0
O1861 O 0.80078 0.42906 0.05282 0.0
O1862 O 0.78094 0.38004 0.07238 0.0
O1863 O 0.76185 0.42916 0.09245 0.0
O1864 O 0.79843 0.39236 0.05506 0.0
O1865 O 0.78498 0.44487 0.06885 0.0
O1866 O 0.75974 0.40171 0.09374 0.0
O1867 O 0.77388 0.42917 0.02599 0.0
O1868 O 0.75404 0.38022 0.04557 0.0
O1869 O 0.7344 0.42937 0.06497 0.0
Sc1870 Sc 0.31974 0.14254 0.81975 0.0
Sc1871 Sc 0.31728 0.18615 0.81771 0.0
Sc1872 Sc 0.29224 0.16162 0.79216 0.0
O1873 O 0.30976 0.16343 0.80988 0.0
C1874 C 0.31678 0.1325 0.78183 0.0
C1875 C 0.35104 0.16618 0.81622 0.0
C1876 C 0.31355 0.19198 0.77899 0.0
C1877 C 0.31581 0.16584 0.85126 0.0
C1878 C 0.2819 0.13227 0.81642 0.0
C1879 C 0.27858 0.1917 0.81359 0.0
O1880 O 0.3231 0.13071 0.79607 0.0
O1881 O 0.34297 0.1796 0.81594 0.0
O1882 O 0.30369 0.17999 0.77682 0.0
O1883 O 0.31743 0.15185 0.84439 0.0
O1884 O 0.27879 0.14306 0.80548 0.0
O1885 O 0.29249 0.19539 0.8198 0.0
O1886 O 0.29611 0.1305 0.82281 0.0
O1887 O 0.31543 0.17932 0.84333 0.0
O1888 O 0.27666 0.17985 0.80352 0.0
O1889 O 0.34431 0.15211 0.81768 0.0
O1890 O 0.30577 0.1432 0.77872 0.0
O1891 O 0.31945 0.19567 0.79303 0.0
Sc1892 Sc 0.93448 0.56817 0.06914 0.0
Sc1893 Sc 0.89091 0.56593 0.06669 0.0
Sc1894 Sc 0.91551 0.5405 0.04159 0.0
O1895 O 0.91365 0.55821 0.05914 0.0
C1896 C 0.94476 0.5649 0.03128 0.0
C1897 C 0.91101 0.59958 0.06536 0.0
C1898 C 0.88534 0.56186 0.028 0.0
C1899 C 0.91085 0.56444 0.10043 0.0
C1900 C 0.9448 0.53032 0.06603 0.0
C1901 C 0.88524 0.5272 0.06291 0.0
O1902 O 0.94648 0.57131 0.04549 0.0
O1903 O 0.89758 0.59157 0.06495 0.0
O1904 O 0.89719 0.5518 0.02604 0.0
O1905 O 0.92493 0.56596 0.09373 0.0
O1906 O 0.93406 0.52714 0.05506 0.0
O1907 O 0.88151 0.54122 0.0688 0.0
O1908 O 0.94647 0.54455 0.07239 0.0
O1909 O 0.89746 0.56414 0.09235 0.0
O1910 O 0.89722 0.52505 0.05304 0.0
O1911 O 0.92504 0.59279 0.06692 0.0
O1912 O 0.93402 0.55392 0.02816 0.0
O1913 O 0.88168 0.56805 0.04192 0.0
Sc1914 Sc 0.31959 0.18428 0.50708 0.0
Sc1915 Sc 0.31732 0.14069 0.50957 0.0
Sc1916 Sc 0.29192 0.16538 0.53463 0.0
O1917 O 0.30962 0.16345 0.51709 0.0
C1918 C 0.31637 0.19461 0.54491 0.0
C1919 C 0.35097 0.1608 0.51103 0.0
C1920 C 0.31315 0.13517 0.54828 0.0
C1921 C 0.31603 0.16063 0.4758 0.0
C1922 C 0.28173 0.19454 0.51007 0.0
C1923 C 0.27857 0.13507 0.51335 0.0
O1924 O 0.32275 0.19631 0.53068 0.0
O1925 O 0.34297 0.14735 0.51147 0.0
O1926 O 0.3032 0.14711 0.55023 0.0
O1927 O 0.31747 0.1747 0.48252 0.0
O1928 O 0.27857 0.18385 0.52108 0.0
O1929 O 0.29257 0.13134 0.50738 0.0
O1930 O 0.29598 0.19626 0.50375 0.0
O1931 O 0.31568 0.14723 0.48387 0.0
O1932 O 0.27648 0.14704 0.52324 0.0
O1933 O 0.34419 0.17481 0.50937 0.0
O1934 O 0.30536 0.1839 0.54804 0.0
O1935 O 0.31929 0.13143 0.53436 0.0
Sc1936 Sc 0.54144 0.54115 0.41533 0.0
Sc1937 Sc 0.56632 0.56659 0.39052 0.0
Sc1938 Sc 0.56896 0.5689 0.43412 0.0
O1939 O 0.55891 0.55889 0.41333 0.0
C1940 C 0.53113 0.56552 0.44454 0.0
C1941 C 0.52764 0.56244 0.38516 0.0
C1942 C 0.56497 0.60027 0.41068 0.0
C1943 C 0.5626 0.52782 0.38501 0.0
C1944 C 0.56614 0.53107 0.44442 0.0
C1945 C 0.60016 0.56523 0.41032 0.0
O1946 O 0.52794 0.55462 0.43374 0.0
O1947 O 0.54148 0.5688 0.3815 0.0
O1948 O 0.56645 0.59348 0.42471 0.0
O1949 O 0.55304 0.52567 0.39723 0.0
O1950 O 0.57253 0.5453 0.44605 0.0
O1951 O 0.59203 0.56468 0.39695 0.0
O1952 O 0.555 0.52793 0.43387 0.0
O1953 O 0.56822 0.54187 0.38096 0.0
O1954 O 0.5935 0.56694 0.42439 0.0
O1955 O 0.52583 0.55226 0.39694 0.0
O1956 O 0.54538 0.57184 0.4463 0.0
O1957 O 0.5647 0.59226 0.39723 0.0
Sc1958 Sc 0.53567 0.53636 0.66132 0.0
Sc1959 Sc 0.51089 0.51052 0.68579 0.0
Sc1960 Sc 0.50868 0.50828 0.64218 0.0
O1961 O 0.51841 0.51837 0.66309 0.0
C1962 C 0.51105 0.54625 0.63213 0.0
C1963 C 0.51414 0.54925 0.69165 0.0
C1964 C 0.47722 0.51149 0.66567 0.0
C1965 C 0.54953 0.51514 0.69143 0.0
C1966 C 0.54647 0.51223 0.63198 0.0
C1967 C 0.51291 0.47692 0.66564 0.0
O1968 O 0.52188 0.54959 0.64295 0.0
O1969 O 0.50832 0.53517 0.69526 0.0
O1970 O 0.48402 0.51008 0.65162 0.0
O1971 O 0.5514 0.52516 0.67952 0.0
O1972 O 0.5324 0.5055 0.63024 0.0
O1973 O 0.51312 0.48493 0.67908 0.0
O1974 O 0.54931 0.52329 0.64271 0.0
O1975 O 0.53567 0.50884 0.69513 0.0
O1976 O 0.51127 0.48368 0.65161 0.0
O1977 O 0.52406 0.55153 0.67974 0.0
O1978 O 0.50509 0.53187 0.63023 0.0
O1979 O 0.48522 0.51191 0.67911 0.0
Sc1980 Sc 0.8926 0.75783 0.56874 0.0
Sc1981 Sc 0.93619 0.76044 0.56657 0.0
Sc1982 Sc 0.91151 0.78624 0.54195 0.0
O1983 O 0.91342 0.76816 0.5591 0.0
C1984 C 0.88245 0.76193 0.53093 0.0
C1985 C 0.91632 0.7267 0.56426 0.0
C1986 C 0.94179 0.76533 0.52798 0.0
C1987 C 0.91608 0.76091 0.60024 0.0
C1988 C 0.88216 0.79572 0.56656 0.0
C1989 C 0.94163 0.79926 0.56367 0.0
O1990 O 0.88067 0.75519 0.54499 0.0
O1991 O 0.92969 0.73482 0.56418 0.0
O1992 O 0.92987 0.77534 0.52621 0.0
O1993 O 0.90205 0.75944 0.59341 0.0
O1994 O 0.89291 0.79918 0.5557 0.0
O1995 O 0.94546 0.78515 0.56929 0.0
O1996 O 0.88047 0.78132 0.57254 0.0
O1997 O 0.92952 0.76157 0.59224 0.0
O1998 O 0.92967 0.80152 0.55381 0.0
O1999 O 0.90222 0.73333 0.5659 0.0
O2000 O 0.89314 0.77305 0.52814 0.0
O2001 O 0.94552 0.75894 0.54179 0.0
Sc2002 Sc 0.91125 0.54017 0.78505 0.0
Sc2003 Sc 0.93589 0.56553 0.75993 0.0
Sc2004 Sc 0.89231 0.56816 0.75784 0.0
O2005 O 0.91315 0.55796 0.7676 0.0
C2006 C 0.88179 0.53038 0.76068 0.0
C2007 C 0.94131 0.52672 0.76356 0.0
C2008 C 0.91567 0.56442 0.72633 0.0
C2009 C 0.94167 0.56123 0.79856 0.0
C2010 C 0.88233 0.56474 0.79577 0.0
C2011 C 0.91602 0.59935 0.76165 0.0
O2012 O 0.89251 0.52707 0.77163 0.0
O2013 O 0.94517 0.54074 0.75774 0.0
O2014 O 0.90168 0.56614 0.73317 0.0
O2015 O 0.9298 0.55119 0.80051 0.0
O2016 O 0.88047 0.57118 0.78159 0.0
O2017 O 0.92941 0.59125 0.7618 0.0
O2018 O 0.89304 0.55369 0.79874 0.0
O2019 O 0.94527 0.56752 0.78467 0.0
O2020 O 0.90193 0.59267 0.76024 0.0
O2021 O 0.92929 0.52463 0.77338 0.0
O2022 O 0.88018 0.54467 0.75442 0.0
O2023 O 0.92913 0.56383 0.73429 0.0
Sc2024 Sc 0.53467 0.16209 0.0352 0.0
Sc2025 Sc 0.50955 0.18664 0.00976 0.0
Sc2026 Sc 0.50759 0.143 0.00726 0.0
O2027 O 0.51725 0.16391 0.0174 0.0
C2028 C 0.54542 0.13296 0.0108 0.0
C2029 C 0.54824 0.19234 0.01405 0.0
C2030 C 0.51151 0.16669 0.97603 0.0
C2031 C 0.51309 0.19229 0.04846 0.0
C2032 C 0.51034 0.13276 0.04521 0.0
C2033 C 0.476 0.16623 0.01073 0.0
O2034 O 0.54824 0.14354 0.02201 0.0
O2035 O 0.53427 0.19631 0.00815 0.0
O2036 O 0.50985 0.15263 0.98272 0.0
O2037 O 0.52322 0.18052 0.0505 0.0
O2038 O 0.50434 0.13086 0.03083 0.0
O2039 O 0.48389 0.17974 0.0111 0.0
O2040 O 0.52105 0.14369 0.04856 0.0
O2041 O 0.50695 0.19586 0.03449 0.0
O2042 O 0.48291 0.15224 0.00936 0.0
O2043 O 0.55024 0.1802 0.02374 0.0
O2044 O 0.53134 0.13124 0.0041 0.0
O2045 O 0.51184 0.18009 0.98411 0.0
Sc2046 Sc 0.56889 0.93454 0.06871 0.0
Sc2047 Sc 0.56675 0.89093 0.06621 0.0
Sc2048 Sc 0.54163 0.91555 0.04083 0.0
O2049 O 0.5591 0.91367 0.0586 0.0
C2050 C 0.53101 0.94455 0.06541 0.0
C2051 C 0.56502 0.91088 0.09996 0.0
C2052 C 0.52806 0.88524 0.06195 0.0
C2053 C 0.60038 0.91118 0.06498 0.0
C2054 C 0.56606 0.94486 0.03086 0.0
C2055 C 0.56312 0.88543 0.02743 0.0
O2056 O 0.54517 0.94635 0.0719 0.0
O2057 O 0.56471 0.89747 0.0919 0.0
O2058 O 0.5261 0.89722 0.05204 0.0
O2059 O 0.59351 0.92517 0.06654 0.0
O2060 O 0.55519 0.93406 0.02758 0.0
O2061 O 0.56908 0.88166 0.04143 0.0
O2062 O 0.57219 0.94667 0.04518 0.0
O2063 O 0.59242 0.8977 0.06462 0.0
O2064 O 0.55317 0.89735 0.02539 0.0
O2065 O 0.56662 0.92493 0.09325 0.0
O2066 O 0.52806 0.93393 0.05427 0.0
O2067 O 0.54199 0.88149 0.06808 0.0
Sc2068 Sc 0.18437 0.31799 0.50763 0.0
Sc2069 Sc 0.1408 0.31559 0.51033 0.0
Sc2070 Sc 0.16565 0.29028 0.53529 0.0
O2071 O 0.16361 0.30797 0.51775 0.0
C2072 C 0.19469 0.28012 0.51059 0.0
C2073 C 0.16058 0.3142 0.47647 0.0
C2074 C 0.13529 0.27687 0.51415 0.0
C2075 C 0.16078 0.34931 0.5116 0.0
C2076 C 0.19491 0.31477 0.54539 0.0
C2077 C 0.13551 0.31149 0.54909 0.0
O2078 O 0.19644 0.2944 0.50433 0.0
O2079 O 0.14722 0.31391 0.48462 0.0
O2080 O 0.14726 0.27481 0.52404 0.0
O2081 O 0.17482 0.34258 0.50987 0.0
O2082 O 0.18427 0.3037 0.54854 0.0
O2083 O 0.13165 0.31756 0.53517 0.0
O2084 O 0.19648 0.32124 0.53118 0.0
O2085 O 0.14738 0.34125 0.51214 0.0
O2086 O 0.1475 0.30159 0.551 0.0
O2087 O 0.17469 0.31571 0.4831 0.0
O2088 O 0.184 0.27692 0.52159 0.0
O2089 O 0.13153 0.29085 0.50817 0.0
Sc2090 Sc 0.16552 0.53584 0.29138 0.0
Sc2091 Sc 0.14064 0.51063 0.31639 0.0
Sc2092 Sc 0.1842 0.50813 0.31906 0.0
O2093 O 0.16346 0.51819 0.30895 0.0
C2094 C 0.19484 0.51141 0.28133 0.0
C2095 C 0.13539 0.51464 0.27761 0.0
C2096 C 0.1606 0.47688 0.31489 0.0
C2097 C 0.13516 0.54934 0.3125 0.0
C2098 C 0.19442 0.54603 0.31621 0.0
C2099 C 0.16043 0.51178 0.35025 0.0
O2100 O 0.18417 0.52244 0.27814 0.0
O2101 O 0.13147 0.50868 0.29156 0.0
O2102 O 0.17466 0.48356 0.31661 0.0
O2103 O 0.14711 0.55131 0.30256 0.0
O2104 O 0.19618 0.53176 0.32248 0.0
O2105 O 0.14707 0.51224 0.34212 0.0
O2106 O 0.1838 0.5492 0.30513 0.0
O2107 O 0.13139 0.5354 0.31857 0.0
O2108 O 0.17452 0.51023 0.34358 0.0
O2109 O 0.14743 0.52447 0.27566 0.0
O2110 O 0.19641 0.50498 0.29555 0.0
O2111 O 0.14721 0.48497 0.3145 0.0
H2112 H 0.08137 0.03309 0.47417 0.0
H2113 H 0.05846 0.94048 0.49873 0.0
H2114 H 0.05712 0.99825 0.44208 0.0
H2115 H 0.08036 0.97479 0.53298 0.0
H2116 H 0.06183 0.96059 0.47679 0.0
H2117 H 0.08494 0.01116 0.49468 0.0
C2118 C 0.07701 0.0208 0.47132 0.0
C2119 C 0.06875 0.01758 0.45643 0.0
C2120 C 0.06605 0.96373 0.48905 0.0
C2121 C 0.07272 0.99248 0.47986 0.0
C2122 C 0.06412 0.95222 0.50163 0.0
C2123 C 0.06894 0.95601 0.5178 0.0
C2124 C 0.07271 0.97931 0.4926 0.0
C2125 C 0.07642 0.97136 0.52071 0.0
C2126 C 0.079 0.00831 0.48307 0.0
C2127 C 0.06336 0.00141 0.45345 0.0
N2128 N 0.07789 0.98255 0.50827 0.0
N2129 N 0.06533 0.98956 0.46508 0.0
H2130 H 0.04293 0.33109 0.72465 0.0
H2131 H 0.1366 0.31092 0.74746 0.0
H2132 H 0.07856 0.31034 0.69106 0.0
H2133 H 0.10164 0.32961 0.78292 0.0
H2134 H 0.1163 0.31487 0.72574 0.0
H2135 H 0.06492 0.33481 0.7451 0.0
C2136 C 0.05541 0.32758 0.72147 0.0
C2137 C 0.05886 0.32022 0.70618 0.0
C2138 C 0.11306 0.31827 0.73823 0.0
C2139 C 0.08401 0.3243 0.72952 0.0
C2140 C 0.12468 0.31601 0.75067 0.0
C2141 C 0.12076 0.31975 0.7671 0.0
C2142 C 0.09726 0.32415 0.74218 0.0
C2143 C 0.10517 0.32653 0.77044 0.0
C2144 C 0.06793 0.32963 0.73318 0.0
C2145 C 0.07524 0.31585 0.70275 0.0
N2146 N 0.09389 0.3283 0.75812 0.0
N2147 N 0.08713 0.31784 0.71435 0.0
H2148 H 0.76399 0.32925 0.94006 0.0
H2149 H 0.7448 0.35185 0.03398 0.0
H2150 H 0.74654 0.29353 0.9754 0.0
H2151 H 0.76553 0.38537 0.99826 0.0
H2152 H 0.7408 0.33147 0.01198 0.0
H2153 H 0.75996 0.35094 0.96037 0.0
C2154 C 0.75915 0.32597 0.95207 0.0
C2155 C 0.75581 0.30949 0.95609 0.0
C2156 C 0.74603 0.34336 0.00896 0.0
C2157 C 0.75132 0.33437 0.9796 0.0
C2158 C 0.74825 0.35503 0.02149 0.0
C2159 C 0.75571 0.37026 0.01801 0.0
C2160 C 0.75127 0.34702 0.99285 0.0
C2161 C 0.75997 0.37371 0.0016 0.0
C2162 C 0.75684 0.33839 0.96369 0.0
C2163 C 0.74932 0.30606 0.97179 0.0
N2164 N 0.75781 0.36215 0.98971 0.0
N2165 N 0.7475 0.31837 0.98307 0.0
H2166 H 0.72439 0.99533 0.28299 0.0
H2167 H 0.74815 0.01655 0.18978 0.0
H2168 H 0.69146 0.01733 0.24746 0.0
H2169 H 0.78314 0.99692 0.22472 0.0
H2170 H 0.72627 0.01269 0.2099 0.0
H2171 H 0.74495 0.99166 0.2611 0.0
C2172 C 0.72137 0.99915 0.27056 0.0
C2173 C 0.70625 0.00686 0.26712 0.0
C2174 C 0.73869 0.00907 0.21317 0.0
C2175 C 0.7297 0.00278 0.24208 0.0
C2176 C 0.75122 0.01128 0.20166 0.0
C2177 C 0.76757 0.00725 0.20563 0.0
C2178 C 0.74246 0.00293 0.22892 0.0
C2179 C 0.77072 0.00025 0.22116 0.0
C2180 C 0.73314 0.99711 0.25809 0.0
C2181 C 0.70302 0.01156 0.25078 0.0
N2182 N 0.75831 0.99851 0.23234 0.0
N2183 N 0.71468 0.00957 0.23896 0.0
H2184 H 0.08155 0.35144 0.79257 0.0
H2185 H 0.06203 0.32889 0.88643 0.0
H2186 H 0.06096 0.38506 0.82827 0.0
H2187 H 0.07975 0.29316 0.85124 0.0
H2188 H 0.06607 0.35055 0.8661 0.0
H2189 H 0.08538 0.33102 0.81455 0.0
C2190 C 0.07809 0.35463 0.80505 0.0
C2191 C 0.07072 0.36992 0.80853 0.0
C2192 C 0.06924 0.33801 0.86281 0.0
C2193 C 0.07497 0.34662 0.83368 0.0
C2194 C 0.06693 0.32561 0.87444 0.0
C2195 C 0.07035 0.30913 0.87047 0.0
C2196 C 0.07486 0.33398 0.84694 0.0
C2197 C 0.07691 0.30569 0.8548 0.0
C2198 C 0.08021 0.34295 0.81758 0.0
C2199 C 0.06645 0.37337 0.82493 0.0
N2200 N 0.07873 0.31798 0.84351 0.0
N2201 N 0.06852 0.36179 0.83682 0.0
H2202 H 0.69062 0.31243 0.07935 0.0
H2203 H 0.78486 0.33047 0.10167 0.0
H2204 H 0.72606 0.32933 0.04349 0.0
H2205 H 0.74902 0.31024 0.13534 0.0
H2206 H 0.76288 0.33455 0.08127 0.0
H2207 H 0.71109 0.31611 0.10096 0.0
C2208 C 0.70269 0.31709 0.07603 0.0
C2209 C 0.70669 0.32039 0.05954 0.0
C2210 C 0.75982 0.3294 0.0932 0.0
C2211 C 0.73037 0.32447 0.08431 0.0
C2212 C 0.77234 0.32715 0.10487 0.0
C2213 C 0.76882 0.31984 0.12017 0.0
C2214 C 0.74367 0.32435 0.09692 0.0
C2215 C 0.75239 0.3157 0.12364 0.0
C2216 C 0.7144 0.31919 0.0884 0.0
C2217 C 0.72246 0.32662 0.05604 0.0
N2218 N 0.7405 0.3179 0.11208 0.0
N2219 N 0.73383 0.32825 0.0683 0.0
H2220 H 0.74561 0.03325 0.3519 0.0
H2221 H 0.7658 0.93984 0.32807 0.0
H2222 H 0.76728 0.99749 0.38479 0.0
H2223 H 0.74686 0.9751 0.29303 0.0
H2224 H 0.7621 0.95997 0.34997 0.0
H2225 H 0.74179 0.01145 0.33129 0.0
C2226 C 0.74933 0.02079 0.35489 0.0
C2227 C 0.75697 0.01725 0.37003 0.0
C2228 C 0.75859 0.96332 0.33753 0.0
C2229 C 0.75271 0.9923 0.34652 0.0
C2230 C 0.76071 0.9518 0.32499 0.0
C2231 C 0.75684 0.95585 0.30863 0.0
C2232 C 0.75272 0.97916 0.33375 0.0
C2233 C 0.75006 0.97147 0.30546 0.0
C2234 C 0.7472 0.00837 0.3431 0.0
C2235 C 0.76156 0.00088 0.37322 0.0
N2236 N 0.74842 0.98266 0.31788 0.0
N2237 N 0.75947 0.98909 0.36154 0.0
H2238 H 0.10268 0.99484 0.5438 0.0
H2239 H 0.07889 0.01699 0.63676 0.0
H2240 H 0.13549 0.01748 0.57903 0.0
H2241 H 0.04424 0.99567 0.60247 0.0
H2242 H 0.10073 0.01331 0.6166 0.0
H2243 H 0.08222 0.99117 0.56578 0.0
C2244 C 0.1057 0.9988 0.55618 0.0
C2245 C 0.12076 0.00669 0.5595 0.0
C2246 C 0.0884 0.00929 0.61347 0.0
C2247 C 0.09741 0.00262 0.58466 0.0
C2248 C 0.07588 0.0114 0.62502 0.0
C2249 C 0.05962 0.00685 0.62125 0.0
C2250 C 0.08471 0.00274 0.59788 0.0
C2251 C 0.05657 -0.00056 0.60588 0.0
C2252 C 0.09398 0.99677 0.56871 0.0
C2253 C 0.12398 0.01157 0.57579 0.0
N2254 N 0.06896 0.99781 0.59466 0.0
N2255 N 0.11238 0.00958 0.58766 0.0
H2256 H 0.47486 0.08057 0.03383 0.0
H2257 H 0.49817 0.06057 0.94027 0.0
H2258 H 0.44164 0.0594 0.99807 0.0
H2259 H 0.53329 0.08 0.97519 0.0
H2260 H 0.47638 0.0642 0.96052 0.0
H2261 H 0.49535 0.08448 0.01192 0.0
C2262 C 0.47177 0.07699 0.02135 0.0
C2263 C 0.45657 0.06946 0.01784 0.0
C2264 C 0.48881 0.06783 0.96377 0.0
C2265 C 0.47996 0.0738 0.99278 0.0
C2266 C 0.50129 0.06575 0.95218 0.0
C2267 C 0.51764 0.06978 0.9561 0.0
C2268 C 0.49264 0.07382 0.97955 0.0
C2269 C 0.52086 0.07667 0.97167 0.0
C2270 C 0.4835 0.07916 0.00887 0.0
C2271 C 0.45326 0.06504 0.00144 0.0
N2272 N 0.5085 0.07826 0.98293 0.0
N2273 N 0.46488 0.06715 0.9896 0.0
H2274 H 0.99455 0.78355 0.22507 0.0
H2275 H 0.01442 0.68995 0.24821 0.0
H2276 H 0.01492 0.74762 0.19157 0.0
H2277 H 0.996 0.72513 0.2836 0.0
H2278 H 0.01029 0.7101 0.2264 0.0
H2279 H 0.99068 0.76167 0.24561 0.0
C2280 C 0.99794 0.77104 0.22193 0.0
C2281 C 0.00527 0.76747 0.20665 0.0
C2282 C 0.00699 0.71342 0.2389 0.0
C2283 C 0.001 0.74244 0.23007 0.0
C2284 C 0.00935 0.70189 0.25139 0.0
C2285 C 0.00577 0.70592 0.26782 0.0
C2286 C 0.00116 0.72925 0.2428 0.0
C2287 C 0.999 0.72152 0.27112 0.0
C2288 C 0.9958 0.75857 0.23368 0.0
C2289 C 0.00946 0.75103 0.20326 0.0
N2290 N 0.99713 0.73272 0.25874 0.0
N2291 N 0.00739 0.73921 0.2149 0.0
H2292 H 0.32892 0.26627 0.43987 0.0
H2293 H 0.35232 0.24635 0.53345 0.0
H2294 H 0.29377 0.24731 0.475 0.0
H2295 H 0.38546 0.26771 0.49776 0.0
H2296 H 0.33181 0.24249 0.51156 0.0
H2297 H 0.35073 0.26266 0.46012 0.0
C2298 C 0.3258 0.26119 0.45182 0.0
C2299 C 0.30943 0.25728 0.4558 0.0
C2300 C 0.34365 0.24784 0.50852 0.0
C2301 C 0.33446 0.25326 0.47924 0.0
C2302 C 0.35539 0.24999 0.52099 0.0
C2303 C 0.37058 0.25755 0.5175 0.0
C2304 C 0.34717 0.25327 0.49244 0.0
C2305 C 0.37386 0.26205 0.50112 0.0
C2306 C 0.33829 0.25913 0.46341 0.0
C2307 C 0.30621 0.25053 0.47142 0.0
N2308 N 0.36223 0.25996 0.48928 0.0
N2309 N 0.31858 0.24893 0.48267 0.0
H2310 H 0.83152 0.6009 0.78471 0.0
H2311 H 0.81448 0.57938 0.69013 0.0
H2312 H 0.81268 0.63512 0.74862 0.0
H2313 H 0.82942 0.54289 0.72581 0.0
H2314 H 0.81871 0.60083 0.71065 0.0
H2315 H 0.83562 0.58053 0.76271 0.0
C2316 C 0.82851 0.60423 0.77214 0.0
C2317 C 0.82155 0.61967 0.76854 0.0
C2318 C 0.82124 0.58816 0.71401 0.0
C2319 C 0.8261 0.59645 0.74338 0.0
C2320 C 0.81883 0.57588 0.70226 0.0
C2321 C 0.82139 0.55927 0.70632 0.0
C2322 C 0.82608 0.58387 0.73006 0.0
C2323 C 0.82726 0.55554 0.72218 0.0
C2324 C 0.83078 0.59257 0.75961 0.0
C2325 C 0.81784 0.6233 0.75204 0.0
N2326 N 0.82918 0.56772 0.73357 0.0
N2327 N 0.82004 0.61176 0.74015 0.0
H2328 H 0.44054 0.26494 0.32883 0.0
H2329 H 0.53448 0.24603 0.35143 0.0
H2330 H 0.47575 0.24713 0.29317 0.0
H2331 H 0.49851 0.26591 0.38518 0.0
H2332 H 0.51254 0.24202 0.33097 0.0
H2333 H 0.46085 0.26096 0.35052 0.0
C2334 C 0.45253 0.26003 0.32557 0.0
C2335 C 0.45651 0.25658 0.30911 0.0
C2336 C 0.50945 0.24707 0.34294 0.0
C2337 C 0.48003 0.25214 0.33398 0.0
C2338 C 0.52195 0.24928 0.35464 0.0
C2339 C 0.51837 0.2565 0.36997 0.0
C2340 C 0.49328 0.25209 0.34664 0.0
C2341 C 0.50192 0.26054 0.37345 0.0
C2342 C 0.46415 0.25775 0.33799 0.0
C2343 C 0.47218 0.25001 0.30569 0.0
N2344 N 0.49006 0.2584 0.36185 0.0
N2345 N 0.48347 0.24823 0.318 0.0
H2346 H 0.83234 0.72478 0.54247 0.0
H2347 H 0.81281 0.74673 0.63647 0.0
H2348 H 0.81223 0.69076 0.57808 0.0
H2349 H 0.83068 0.78262 0.60154 0.0
H2350 H 0.8169 0.72517 0.61603 0.0
H2351 H 0.83614 0.74508 0.56458 0.0
C2352 C 0.82898 0.72147 0.55496 0.0
C2353 C 0.82174 0.70611 0.55837 0.0
C2354 C 0.8201 0.73772 0.61283 0.0
C2355 C 0.82595 0.72927 0.58366 0.0
C2356 C 0.81776 0.75007 0.62453 0.0
C2357 C 0.82122 0.76656 0.62066 0.0
C2358 C 0.82578 0.74184 0.597 0.0
C2359 C 0.82782 0.77007 0.60503 0.0
C2360 C 0.83109 0.73309 0.56756 0.0
C2361 C 0.81761 0.70251 0.57478 0.0
N2362 N 0.82968 0.75784 0.59367 0.0
N2363 N 0.81964 0.71403 0.58674 0.0
H2364 H 0.29211 0.08 0.8524 0.0
H2365 H 0.38572 0.05964 0.82951 0.0
H2366 H 0.32763 0.05873 0.8858 0.0
H2367 H 0.3509 0.07877 0.79415 0.0
H2368 H 0.36538 0.06339 0.85121 0.0
H2369 H 0.3141 0.08371 0.83196 0.0
C2370 C 0.30455 0.07636 0.85554 0.0
C2371 C 0.30797 0.06886 0.87078 0.0
C2372 C 0.36217 0.06693 0.83874 0.0
C2373 C 0.33313 0.07296 0.84746 0.0
C2374 C 0.37382 0.06478 0.82632 0.0
C2375 C 0.36995 0.0687 0.80993 0.0
C2376 C 0.3464 0.07288 0.83481 0.0
C2377 C 0.35438 0.07554 0.80661 0.0
C2378 C 0.31708 0.07841 0.84384 0.0
C2379 C 0.32433 0.06434 0.87415 0.0
N2380 N 0.34308 0.07721 0.81891 0.0
N2381 N 0.33621 0.06635 0.86257 0.0
H2382 H 0.01461 0.57916 0.13696 0.0
H2383 H 0.99472 0.60163 0.04317 0.0
H2384 H 0.9961 0.54356 0.10205 0.0
H2385 H 0.01503 0.63545 0.07883 0.0
H2386 H 0.99095 0.58123 0.0652 0.0
H2387 H 0.01061 0.60082 0.11662 0.0
C2388 C 0.00955 0.5759 0.12504 0.0
C2389 C 0.00588 0.55946 0.12115 0.0
C2390 C 0.99604 0.5932 0.06821 0.0
C2391 C 0.00142 0.58431 0.0976 0.0
C2392 C 0.99812 0.60487 0.05565 0.0
C2393 C 0.00539 0.62021 0.0591 0.0
C2394 C 0.00125 0.59693 0.08431 0.0
C2395 C 0.00961 0.62372 0.07551 0.0
C2396 C 0.00725 0.58831 0.1134 0.0
C2397 C 0.99914 0.55606 0.10556 0.0
N2398 N 0.00761 0.61215 0.08742 0.0
N2399 N 0.99733 0.56835 0.09425 0.0
H2400 H 0.97474 0.53305 0.08181 0.0
H2401 H 0.99872 0.43988 0.06084 0.0
H2402 H 0.94176 0.49728 0.06031 0.0
H2403 H 0.03366 0.47492 0.08035 0.0
H2404 H 0.97679 0.45992 0.06475 0.0
H2405 H 0.99539 0.51126 0.08548 0.0
C2406 C 0.97173 0.52059 0.07811 0.0
C2407 C 0.95655 0.51705 0.07054 0.0
C2408 C 0.98921 0.46324 0.06833 0.0
C2409 C 0.98013 0.49212 0.0746 0.0
C2410 C 0.00177 0.45177 0.06609 0.0
C2411 C 0.01812 0.45578 0.07005 0.0
C2412 C 0.99294 0.479 0.07444 0.0
C2413 C 0.02124 0.47132 0.07706 0.0
C2414 C 0.98356 0.50817 0.08014 0.0
C2415 C 0.95335 0.50067 0.06598 0.0
N2416 N 0.0088 0.48247 0.07882 0.0
N2417 N 0.96507 0.4889 0.06795 0.0
H2418 H 0.53436 0.35169 0.2456 0.0
H2419 H 0.44043 0.32925 0.26459 0.0
H2420 H 0.49815 0.38592 0.26418 0.0
H2421 H 0.47564 0.2935 0.24696 0.0
H2422 H 0.4607 0.35094 0.26035 0.0
H2423 H 0.51247 0.33114 0.24184 0.0
C2424 C 0.52178 0.35498 0.24859 0.0
C2425 C 0.51812 0.37048 0.25539 0.0
C2426 C 0.464 0.33839 0.25723 0.0
C2427 C 0.49309 0.34704 0.2513 0.0
C2428 C 0.45241 0.32597 0.25967 0.0
C2429 C 0.4564 0.30949 0.25631 0.0
C2430 C 0.47986 0.33436 0.25158 0.0
C2431 C 0.47206 0.30604 0.24974 0.0
C2432 C 0.50931 0.34322 0.24653 0.0
C2433 C 0.50161 0.37406 0.25913 0.0
N2434 N 0.48332 0.31834 0.2478 0.0
N2435 N 0.48979 0.3624 0.25717 0.0
H2436 H 0.72521 0.78325 0.49497 0.0
H2437 H 0.74905 0.68971 0.51433 0.0
H2438 H 0.69194 0.74696 0.51509 0.0
H2439 H 0.78423 0.72529 0.49632 0.0
H2440 H 0.7271 0.70974 0.51035 0.0
H2441 H 0.74594 0.76157 0.49109 0.0
C2442 C 0.72215 0.7707 0.49831 0.0
C2443 C 0.70687 0.76697 0.50556 0.0
C2444 C 0.73958 0.71318 0.5071 0.0
C2445 C 0.73053 0.74216 0.50128 0.0
C2446 C 0.75215 0.70172 0.50939 0.0
C2447 C 0.76855 0.70589 0.50586 0.0
C2448 C 0.74337 0.72908 0.50141 0.0
C2449 C 0.77176 0.72158 0.49924 0.0
C2450 C 0.73402 0.75835 0.49616 0.0
C2451 C 0.70361 0.75049 0.50968 0.0
N2452 N 0.75931 0.73271 0.49744 0.0
N2453 N 0.71537 0.73878 0.50761 0.0
H2454 H 0.29188 0.97472 0.74599 0.0
H2455 H 0.38599 0.99686 0.7647 0.0
H2456 H 0.3275 0.94104 0.76663 0.0
H2457 H 0.35078 0.03272 0.74726 0.0
H2458 H 0.36554 0.97527 0.76085 0.0
H2459 H 0.31395 0.995 0.74193 0.0
C2460 C 0.30436 0.97149 0.74942 0.0
C2461 C 0.30779 0.95622 0.75686 0.0
C2462 C 0.36228 0.98782 0.7577 0.0
C2463 C 0.33305 0.97935 0.75232 0.0
C2464 C 0.37398 0.00018 0.75989 0.0
C2465 C 0.37003 0.01668 0.75652 0.0
C2466 C 0.34637 0.99192 0.75224 0.0
C2467 C 0.35433 0.02017 0.75008 0.0
C2468 C 0.31694 0.98309 0.74716 0.0
C2469 C 0.3242 0.95271 0.76109 0.0
N2470 N 0.34298 0.00792 0.74837 0.0
N2471 N 0.33614 0.96421 0.75888 0.0
H2472 H 0.54237 0.60146 0.49496 0.0
H2473 H 0.63697 0.57979 0.51162 0.0
H2474 H 0.57838 0.63546 0.51429 0.0
H2475 H 0.60134 0.54354 0.49597 0.0
H2476 H 0.61643 0.60129 0.50777 0.0
H2477 H 0.5644 0.58119 0.49054 0.0
C2478 C 0.55493 0.60476 0.498 0.0
C2479 C 0.5585 0.6201 0.50518 0.0
C2480 C 0.61309 0.58867 0.505 0.0
C2481 C 0.5837 0.597 0.50027 0.0
C2482 C 0.62485 0.57636 0.50719 0.0
C2483 C 0.62081 0.55979 0.50434 0.0
C2484 C 0.59705 0.58445 0.50007 0.0
C2485 C 0.60496 0.55615 0.49837 0.0
C2486 C 0.56748 0.59316 0.49555 0.0
C2487 C 0.57499 0.62371 0.50895 0.0
N2488 N 0.59356 0.56836 0.49667 0.0
N2489 N 0.58691 0.61222 0.50657 0.0
H2490 H 0.32867 0.88664 0.062 0.0
H2491 H 0.35222 0.79295 0.08125 0.0
H2492 H 0.29353 0.85127 0.08054 0.0
H2493 H 0.38511 0.82874 0.05963 0.0
H2494 H 0.33174 0.81481 0.08537 0.0
H2495 H 0.35052 0.86641 0.06551 0.0
C2496 C 0.32556 0.87464 0.06697 0.0
C2497 C 0.30918 0.87059 0.07078 0.0
C2498 C 0.34352 0.81788 0.0799 0.0
C2499 C 0.33425 0.84717 0.07466 0.0
C2500 C 0.35525 0.80542 0.0776 0.0
C2501 C 0.37035 0.80895 0.06988 0.0
C2502 C 0.34697 0.83397 0.07449 0.0
C2503 C 0.37357 0.82535 0.06541 0.0
C2504 C 0.33807 0.86306 0.06897 0.0
C2505 C 0.30598 0.8549 0.0774 0.0
N2506 N 0.36196 0.83717 0.06766 0.0
N2507 N 0.31837 0.84367 0.07893 0.0
H2508 H 0.74816 0.13644 0.31088 0.0
H2509 H 0.72463 0.04295 0.33078 0.0
H2510 H 0.78329 0.10128 0.32985 0.0
H2511 H 0.69129 0.07898 0.31027 0.0
H2512 H 0.74523 0.06475 0.33463 0.0
H2513 H 0.72629 0.11632 0.31475 0.0
C2514 C 0.75127 0.12451 0.316 0.0
C2515 C 0.76765 0.12048 0.31983 0.0
C2516 C 0.73333 0.06789 0.32948 0.0
C2517 C 0.74255 0.09718 0.32415 0.0
C2518 C 0.72153 0.05547 0.32734 0.0
C2519 C 0.70627 0.05908 0.31999 0.0
C2520 C 0.72979 0.08403 0.32426 0.0
C2521 C 0.70295 0.07553 0.31576 0.0
C2522 C 0.73874 0.11299 0.31823 0.0
C2523 C 0.77085 0.10489 0.32666 0.0
N2524 N 0.71464 0.08731 0.31782 0.0
N2525 N 0.75844 0.0937 0.3284 0.0
H2526 H 0.10191 0.28352 0.83125 0.0
H2527 H 0.0781 0.19007 0.81137 0.0
H2528 H 0.13489 0.24757 0.81004 0.0
H2529 H 0.04299 0.22541 0.83003 0.0
H2530 H 0.10001 0.21015 0.81523 0.0
H2531 H 0.08129 0.26175 0.83518 0.0
C2532 C 0.10492 0.27103 0.82767 0.0
C2533 C 0.12009 0.26743 0.8201 0.0
C2534 C 0.08756 0.21353 0.81864 0.0
C2535 C 0.09656 0.24251 0.82448 0.0
C2536 C 0.07501 0.20204 0.81643 0.0
C2537 C 0.05863 0.20613 0.82016 0.0
C2538 C 0.08377 0.22938 0.82446 0.0
C2539 C 0.05544 0.22176 0.82693 0.0
C2540 C 0.09312 0.25862 0.82985 0.0
C2541 C 0.1233 0.25101 0.81569 0.0
N2542 N 0.06787 0.23292 0.82865 0.0
N2543 N 0.11161 0.23925 0.81783 0.0
H2544 H 0.99567 0.04202 0.60188 0.0
H2545 H 0.01378 0.13612 0.57938 0.0
H2546 H 0.01452 0.0783 0.6359 0.0
H2547 H 0.99695 0.10059 0.54357 0.0
H2548 H 0.00965 0.11584 0.60109 0.0
H2549 H 0.99164 0.06388 0.58137 0.0
C2550 C 0.99869 0.0546 0.60514 0.0
C2551 C 0.00565 0.05828 0.62057 0.0
C2552 C 0.00668 0.11247 0.58852 0.0
C2553 C 0.0012 0.0833 0.59716 0.0
C2554 C 0.00905 0.12407 0.5761 0.0
C2555 C 0.0059 0.11998 0.5596 0.0
C2556 C 0.0013 0.09651 0.58448 0.0
C2557 C -0.00044 0.10424 0.55613 0.0
C2558 C 0.99646 0.06706 0.5934 0.0
C2559 C 0.00936 0.0748 0.6241 0.0
N2560 N 0.99769 0.09298 0.56844 0.0
N2561 N 0.00723 0.08662 0.61247 0.0
H2562 H 0.94014 0.76587 0.32902 0.0
H2563 H 0.03369 0.74552 0.3522 0.0
H2564 H 0.97505 0.74666 0.29378 0.0
H2565 H 0.99817 0.76719 0.38535 0.0
H2566 H 0.01172 0.74168 0.33176 0.0
H2567 H 0.96042 0.76216 0.35077 0.0
C2568 C 0.95205 0.76072 0.32586 0.0
C2569 C 0.95595 0.75678 0.30948 0.0
C2570 C 0.00873 0.7471 0.34359 0.0
C2571 C 0.97944 0.75264 0.33445 0.0
C2572 C 0.02125 0.74923 0.35529 0.0
C2573 C 0.01783 0.75688 0.37045 0.0
C2574 C 0.99269 0.75262 0.34712 0.0
C2575 C 0.00147 0.76145 0.37376 0.0
C2576 C 0.96366 0.7586 0.33832 0.0
C2577 C 0.97153 0.74992 0.30622 0.0
N2578 N 0.9896 0.75937 0.36217 0.0
N2579 N 0.9828 0.74828 0.31857 0.0
H2580 H 0.31242 0.74746 0.13674 0.0
H2581 H 0.33155 0.72501 0.04279 0.0
H2582 H 0.32991 0.78325 0.1015 0.0
H2583 H 0.31104 0.69138 0.07853 0.0
H2584 H 0.3355 0.7454 0.06478 0.0
H2585 H 0.31643 0.72582 0.11639 0.0
C2586 C 0.31727 0.75076 0.12475 0.0
C2587 C 0.32062 0.76725 0.12076 0.0
C2588 C 0.33032 0.73347 0.06781 0.0
C2589 C 0.32508 0.74242 0.0972 0.0
C2590 C 0.32813 0.72181 0.05528 0.0
C2591 C 0.32075 0.70653 0.05876 0.0
C2592 C 0.32513 0.72979 0.08393 0.0
C2593 C 0.31654 0.70306 0.07518 0.0
C2594 C 0.31956 0.73836 0.1131 0.0
C2595 C 0.32711 0.77071 0.10507 0.0
N2596 N 0.31866 0.71462 0.08707 0.0
N2597 N 0.32891 0.75842 0.09377 0.0
H2598 H 0.38653 0.76584 0.99725 0.0
H2599 H 0.29279 0.74566 0.97479 0.0
H2600 H 0.35186 0.74656 0.03268 0.0
H2601 H 0.32818 0.76675 0.94116 0.0
H2602 H 0.3149 0.7418 0.99507 0.0
H2603 H 0.36612 0.76208 0.97561 0.0
C2604 C 0.37465 0.76066 0.00047 0.0
C2605 C 0.37084 0.7567 0.01687 0.0
C2606 C 0.31783 0.74708 0.98317 0.0
C2607 C 0.34721 0.75252 0.99204 0.0
C2608 C 0.30523 0.74922 0.97157 0.0
C2609 C 0.30858 0.75672 0.95632 0.0
C2610 C 0.33388 0.75246 0.97946 0.0
C2611 C 0.32494 0.76114 0.95283 0.0
C2612 C 0.36297 0.75851 0.98807 0.0
C2613 C 0.3553 0.74982 0.02021 0.0
N2614 N 0.3369 0.75907 0.96433 0.0
N2615 N 0.34396 0.74815 0.00794 0.0
H2616 H 0.33264 0.10255 0.78423 0.0
H2617 H 0.31196 0.0799 0.69069 0.0
H2618 H 0.31136 0.13606 0.74881 0.0
H2619 H 0.33119 0.04446 0.72539 0.0
H2620 H 0.31606 0.1016 0.71095 0.0
H2621 H 0.33649 0.08225 0.76215 0.0
C2622 C 0.32902 0.10575 0.77179 0.0
C2623 C 0.32144 0.12096 0.76843 0.0
C2624 C 0.31955 0.08912 0.71414 0.0
C2625 C 0.32573 0.09779 0.74316 0.0
C2626 C 0.3172 0.07669 0.70254 0.0
C2627 C 0.32102 0.06027 0.70641 0.0
C2628 C 0.32559 0.08517 0.72988 0.0
C2629 C 0.32801 0.05694 0.72191 0.0
C2630 C 0.33116 0.09413 0.7592 0.0
C2631 C 0.31701 0.12442 0.75207 0.0
N2632 N 0.32985 0.06925 0.73318 0.0
N2633 N 0.31909 0.1129 0.74013 0.0
H2634 H 0.99748 0.06378 0.43968 0.0
H2635 H 0.97532 0.08071 0.53409 0.0
H2636 H 0.03346 0.07998 0.47535 0.0
H2637 H 0.94143 0.06152 0.49786 0.0
H2638 H 0.99569 0.08513 0.51216 0.0
H2639 H 0.97586 0.06766 0.46008 0.0
C2640 C 0.00083 0.06833 0.45178 0.0
C2641 C 0.01736 0.07133 0.45587 0.0
C2642 C 0.98371 0.08014 0.50901 0.0
C2643 C 0.99256 0.07563 0.47949 0.0
C2644 C 0.97206 0.07769 0.52151 0.0
C2645 C 0.95672 0.07053 0.51785 0.0
C2646 C 0.97994 0.07545 0.49277 0.0
C2647 C 0.95317 0.06683 0.50133 0.0
C2648 C 0.98845 0.07054 0.46346 0.0
C2649 C 0.02088 0.07745 0.47169 0.0
N2650 N 0.96472 0.0692 0.48947 0.0
N2651 N 0.00861 0.07917 0.48302 0.0
H2652 H 0.54194 0.99663 0.10088 0.0
H2653 H 0.63614 0.01479 0.0788 0.0
H2654 H 0.57803 0.01576 0.13495 0.0
H2655 H 0.60083 0.99788 0.0428 0.0
H2656 H 0.61573 0.01073 0.10038 0.0
H2657 H 0.56389 0.99263 0.08045 0.0
C2658 C 0.5545 -0.00027 0.10416 0.0
C2659 C 0.55811 0.00674 0.11958 0.0
C2660 C 0.61243 0.00773 0.0878 0.0
C2661 C 0.58321 0.00231 0.09628 0.0
C2662 C 0.62411 0.01006 0.07544 0.0
C2663 C 0.62012 0.00689 0.05892 0.0
C2664 C 0.5965 0.00236 0.08367 0.0
C2665 C 0.6044 0.00054 0.05537 0.0
C2666 C 0.567 0.99751 0.09247 0.0
C2667 C 0.5746 0.01055 0.12315 0.0
N2668 N 0.59306 0.99871 0.06762 0.0
N2669 N 0.58646 0.00842 0.11157 0.0
H2670 H 0.74846 0.80928 0.63653 0.0
H2671 H 0.72494 0.83022 0.54319 0.0
H2672 H 0.78348 0.82904 0.6017 0.0
H2673 H 0.69205 0.8079 0.57853 0.0
H2674 H 0.74541 0.83396 0.56514 0.0
H2675 H 0.72666 0.81289 0.61629 0.0
C2676 C 0.75156 0.81452 0.62465 0.0
C2677 C 0.7679 0.81865 0.62075 0.0
C2678 C 0.73363 0.82842 0.5681 0.0
C2679 C 0.74287 0.82268 0.59731 0.0
C2680 C 0.72191 0.82635 0.55559 0.0
C2681 C 0.70681 0.81856 0.55897 0.0
C2682 C 0.73017 0.8227 0.58409 0.0
C2683 C 0.70359 0.81375 0.57527 0.0
C2684 C 0.73907 0.81659 0.61306 0.0
C2685 C 0.77107 0.82563 0.60521 0.0
N2686 N 0.71519 0.81579 0.58714 0.0
N2687 N 0.7587 0.82722 0.59396 0.0
H2688 H 0.26419 0.43993 0.32859 0.0
H2689 H 0.24502 0.53372 0.35155 0.0
H2690 H 0.24646 0.47529 0.29304 0.0
H2691 H 0.26436 0.49752 0.38537 0.0
H2692 H 0.2412 0.5119 0.33094 0.0
H2693 H 0.26004 0.46012 0.35038 0.0
C2694 C 0.25927 0.45192 0.32538 0.0
C2695 C 0.25587 0.45599 0.30892 0.0
C2696 C 0.24608 0.50873 0.34295 0.0
C2697 C 0.25123 0.47935 0.3339 0.0
C2698 C 0.24818 0.52116 0.35475 0.0
C2699 C 0.25521 0.51749 0.37014 0.0
C2700 C 0.25102 0.49253 0.34664 0.0
C2701 C 0.25913 0.501 0.3736 0.0
C2702 C 0.25689 0.46347 0.33785 0.0
C2703 C 0.24929 0.47165 0.30556 0.0
N2704 N 0.25712 0.48921 0.36191 0.0
N2705 N 0.2474 0.48287 0.31791 0.0
H2706 H 0.63671 0.80913 0.74766 0.0
H2707 H 0.54365 0.83126 0.7242 0.0
H2708 H 0.60235 0.82988 0.78257 0.0
H2709 H 0.57879 0.80873 0.69122 0.0
H2710 H 0.56568 0.83485 0.74462 0.0
H2711 H 0.6165 0.81296 0.72586 0.0
C2712 C 0.62494 0.81463 0.75073 0.0
C2713 C 0.62116 0.81897 0.76704 0.0
C2714 C 0.56857 0.82929 0.73283 0.0
C2715 C 0.59775 0.82327 0.74202 0.0
C2716 C 0.55602 0.8273 0.72114 0.0
C2717 C 0.55931 0.81947 0.70604 0.0
C2718 C 0.58451 0.82345 0.72934 0.0
C2719 C 0.57558 0.8146 0.70276 0.0
C2720 C 0.61337 0.81683 0.73824 0.0
C2721 C 0.60576 0.82629 0.77019 0.0
N2722 N 0.58749 0.81655 0.71434 0.0
N2723 N 0.59452 0.828 0.75782 0.0
H2724 H 0.26499 0.3292 0.43995 0.0
H2725 H 0.24505 0.3517 0.53372 0.0
H2726 H 0.24637 0.29362 0.47484 0.0
H2727 H 0.26542 0.3855 0.49806 0.0
H2728 H 0.24131 0.3313 0.5117 0.0
H2729 H 0.26102 0.35086 0.46029 0.0
C2730 C 0.25991 0.32595 0.45186 0.0
C2731 C 0.25622 0.3095 0.45575 0.0
C2732 C 0.24641 0.34326 0.50869 0.0
C2733 C 0.25178 0.33436 0.4793 0.0
C2734 C 0.24848 0.35493 0.52124 0.0
C2735 C 0.25575 0.37027 0.51779 0.0
C2736 C 0.25163 0.34699 0.49259 0.0
C2737 C 0.26 0.37377 0.50139 0.0
C2738 C 0.25764 0.33835 0.46351 0.0
C2739 C 0.24945 0.30612 0.47134 0.0
N2740 N 0.258 0.3622 0.48948 0.0
N2741 N 0.24766 0.31841 0.48264 0.0
H2742 H 0.06372 0.4395 0.99789 0.0
H2743 H 0.08169 0.53352 0.9749 0.0
H2744 H 0.08038 0.47527 0.03354 0.0
H2745 H 0.06219 0.49719 0.94129 0.0
H2746 H 0.08585 0.51173 0.99546 0.0
H2747 H 0.06775 0.45969 0.97609 0.0
C2748 C 0.06839 0.45158 0.00112 0.0
C2749 C 0.0715 0.45576 0.01761 0.0
C2750 C 0.08085 0.50853 0.9835 0.0
C2751 C 0.07599 0.47913 0.99262 0.0
C2752 C 0.07855 0.52094 0.97174 0.0
C2753 C 0.07137 0.51722 0.95641 0.0
C2754 C 0.07599 0.4923 0.97987 0.0
C2755 C 0.06752 0.50071 0.953 0.0
C2756 C 0.0707 0.46314 0.98865 0.0
C2757 C 0.07777 0.47155 0.021 0.0
N2758 N 0.06974 0.48893 0.96467 0.0
N2759 N 0.07959 0.48276 0.00863 0.0
H2760 H 0.13616 0.57933 0.01518 0.0
H2761 H 0.04228 0.60166 0.9955 0.0
H2762 H 0.10118 0.54358 0.99711 0.0
H2763 H 0.0778 0.63527 0.01644 0.0
H2764 H 0.06435 0.58133 0.99163 0.0
H2765 H 0.11576 0.60094 0.01123 0.0
C2766 C 0.12421 0.57604 0.01022 0.0
C2767 C 0.12031 0.55957 0.00667 0.0
C2768 C 0.06731 0.59324 0.99689 0.0
C2769 C 0.09669 0.58435 0.00227 0.0
C2770 C 0.05474 0.60487 0.99904 0.0
C2771 C 0.05814 0.62012 0.00651 0.0
C2772 C 0.08338 0.59694 0.0022 0.0
C2773 C 0.07452 0.6236 0.01086 0.0
C2774 C 0.11253 0.58841 0.00796 0.0
C2775 C 0.10468 0.55611 5e-05 0.0
N2776 N 0.08645 0.61208 0.00877 0.0
N2777 N 0.09334 0.56837 0.99827 0.0
H2778 H 0.60213 0.7837 0.83097 0.0
H2779 H 0.57882 0.68981 0.81287 0.0
H2780 H 0.63573 0.74727 0.81167 0.0
H2781 H 0.5434 0.72556 0.83004 0.0
H2782 H 0.60069 0.70993 0.81681 0.0
H2783 H 0.5815 0.76198 0.83509 0.0
C2784 C 0.60527 0.77111 0.82787 0.0
C2785 C 0.62062 0.76735 0.82078 0.0
C2786 C 0.58818 0.71339 0.81989 0.0
C2787 C 0.59707 0.74249 0.82532 0.0
C2788 C 0.57565 0.70187 0.81763 0.0
C2789 C 0.55921 0.70607 0.82093 0.0
C2790 C 0.58429 0.72936 0.82531 0.0
C2791 C 0.5559 0.72183 0.82731 0.0
C2792 C 0.59346 0.75874 0.83015 0.0
C2793 C 0.624 0.75082 0.81694 0.0
N2794 N 0.56831 0.733 0.82907 0.0
N2795 N 0.61229 0.73908 0.81913 0.0
H2796 H 0.38658 0.32982 0.56066 0.0
H2797 H 0.29302 0.35224 0.58177 0.0
H2798 H 0.35218 0.2944 0.58047 0.0
H2799 H 0.32806 0.38566 0.55974 0.0
H2800 H 0.31521 0.33203 0.5855 0.0
H2801 H 0.36615 0.35142 0.56447 0.0
C2802 C 0.37476 0.32659 0.56596 0.0
C2803 C 0.37103 0.3102 0.57003 0.0
C2804 C 0.31805 0.34387 0.58003 0.0
C2805 C 0.34737 0.33499 0.57429 0.0
C2806 C 0.3054 0.35544 0.57795 0.0
C2807 C 0.30861 0.37061 0.57022 0.0
C2808 C 0.33401 0.34754 0.57438 0.0
C2809 C 0.32491 0.37406 0.56553 0.0
C2810 C 0.36306 0.33897 0.56814 0.0
C2811 C 0.35556 0.30686 0.57709 0.0
N2812 N 0.33691 0.3626 0.56756 0.0
N2813 N 0.3442 0.31911 0.57878 0.0
H2814 H 0.53409 0.4748 0.58148 0.0
H2815 H 0.4405 0.4971 0.56048 0.0
H2816 H 0.49894 0.44126 0.5598 0.0
H2817 H 0.47488 0.53258 0.58021 0.0
H2818 H 0.46092 0.47551 0.56441 0.0
H2819 H 0.51189 0.49501 0.58527 0.0
C2820 C 0.52169 0.47158 0.57776 0.0
C2821 C 0.51844 0.45639 0.57009 0.0
C2822 C 0.46401 0.48798 0.56803 0.0
C2823 C 0.49305 0.47943 0.57431 0.0
C2824 C 0.45232 0.50034 0.56578 0.0
C2825 C 0.45604 0.51674 0.5698 0.0
C2826 C 0.47969 0.49198 0.57419 0.0
C2827 C 0.4715 0.52012 0.57687 0.0
C2828 C 0.50904 0.48314 0.57987 0.0
C2829 C 0.50212 0.45289 0.56552 0.0
N2830 N 0.48286 0.50788 0.57863 0.0
N2831 N 0.49012 0.46435 0.56758 0.0
H2832 H 0.72485 0.28351 0.99545 0.0
H2833 H 0.74854 0.19019 0.01617 0.0
H2834 H 0.692 0.24798 0.01754 0.0
H2835 H 0.7835 0.2251 0.99645 0.0
H2836 H 0.72668 0.21035 0.01248 0.0
H2837 H 0.74534 0.26159 0.99156 0.0
C2838 C 0.72184 0.27107 0.99924 0.0
C2839 C 0.70675 0.26764 0.00703 0.0
C2840 C 0.73909 0.21361 0.0088 0.0
C2841 C 0.73013 0.24256 0.00271 0.0
C2842 C 0.75161 0.20207 0.01092 0.0
C2843 C 0.76794 0.20602 0.00683 0.0
C2844 C 0.74285 0.22937 0.00271 0.0
C2845 C 0.77109 0.22155 -0.00017 0.0
C2846 C 0.73356 0.25859 0.99708 0.0
C2847 C 0.70353 0.2513 0.0117 0.0
N2848 N 0.75869 0.23277 0.9982 0.0
N2849 N 0.71514 0.23945 0.00959 0.0
H2850 H 0.93984 0.82886 0.26441 0.0
H2851 H 0.03384 0.85165 0.24586 0.0
H2852 H 0.97538 0.7932 0.24728 0.0
H2853 H 0.99787 0.88521 0.26607 0.0
H2854 H 0.01196 0.83115 0.24188 0.0
H2855 H 0.96015 0.85059 0.26055 0.0
C2856 C 0.9519 0.82561 0.25967 0.0
C2857 C 0.95598 0.80913 0.25636 0.0
C2858 C 0.00885 0.84308 0.247 0.0
C2859 C 0.97947 0.83405 0.25207 0.0
C2860 C 0.02132 0.85481 0.2492 0.0
C2861 C 0.01773 0.87011 0.25649 0.0
C2862 C 0.99269 0.84673 0.25209 0.0
C2863 C 0.00129 0.87352 0.26063 0.0
C2864 C 0.96352 0.83805 0.25747 0.0
C2865 C 0.97173 0.80573 0.25002 0.0
N2866 N 0.98945 0.8619 0.25849 0.0
N2867 N 0.983 0.81805 0.24829 0.0
H2868 H 0.13623 0.81168 0.24767 0.0
H2869 H 0.04233 0.83083 0.22498 0.0
H2870 H 0.10118 0.83022 0.28313 0.0
H2871 H 0.07801 0.80994 0.19153 0.0
H2872 H 0.06433 0.83492 0.24534 0.0
H2873 H 0.11585 0.81531 0.22599 0.0
C2874 C 0.12427 0.81667 0.25089 0.0
C2875 C 0.12035 0.82044 0.2673 0.0
C2876 C 0.06735 0.82962 0.23346 0.0
C2877 C 0.09675 0.82448 0.24243 0.0
C2878 C 0.05481 0.82736 0.22181 0.0
C2879 C 0.05828 0.81986 0.20659 0.0
C2880 C 0.08346 0.82438 0.22981 0.0
C2881 C 0.07468 0.81555 0.20317 0.0
C2882 C 0.1126 0.81875 0.23847 0.0
C2883 C 0.10471 0.8271 0.27065 0.0
N2884 N 0.08658 0.81776 0.21471 0.0
N2885 N 0.09338 0.8287 0.25835 0.0
H2886 H 0.76326 0.82941 0.43993 0.0
H2887 H 0.7456 0.85143 0.53429 0.0
H2888 H 0.74696 0.79336 0.47546 0.0
H2889 H 0.76551 0.88525 0.4984 0.0
H2890 H 0.74142 0.8311 0.51228 0.0
H2891 H 0.7594 0.85098 0.46041 0.0
C2892 C 0.75869 0.82604 0.45202 0.0
C2893 C 0.75563 0.80951 0.45604 0.0
C2894 C 0.74651 0.84305 0.50923 0.0
C2895 C 0.75135 0.83423 0.47974 0.0
C2896 C 0.74883 0.85468 0.52176 0.0
C2897 C 0.7561 0.87 0.51823 0.0
C2898 C 0.75145 0.84682 0.49305 0.0
C2899 C 0.76009 0.87353 0.50177 0.0
C2900 C 0.75649 0.83839 0.46374 0.0
C2901 C 0.7495 0.80594 0.47185 0.0
N2902 N 0.75784 0.86201 0.48987 0.0
N2903 N 0.74778 0.81818 0.48321 0.0
H2904 H 0.74764 0.51873 0.69055 0.0
H2905 H 0.7241 0.49555 0.78332 0.0
H2906 H 0.78227 0.49676 0.72445 0.0
H2907 H 0.69133 0.51906 0.74862 0.0
H2908 H 0.74441 0.49205 0.76119 0.0
H2909 H 0.72585 0.51502 0.71078 0.0
C2910 C 0.75065 0.51299 0.70222 0.0
C2911 C 0.76688 0.50826 0.70586 0.0
C2912 C 0.73269 0.4978 0.75841 0.0
C2913 C 0.74187 0.5041 0.7293 0.0
C2914 C 0.72106 0.49975 0.77102 0.0
C2915 C 0.70605 0.50781 0.7679 0.0
C2916 C 0.72924 0.50393 0.74258 0.0
C2917 C 0.7028 0.51299 0.75171 0.0
C2918 C 0.73817 0.51086 0.7138 0.0
C2919 C 0.76995 0.50066 0.72114 0.0
N2920 N 0.71433 0.51108 0.73975 0.0
N2921 N 0.7576 0.49902 0.7324 0.0
H2922 H 0.08143 0.79338 0.35212 0.0
H2923 H 0.06165 0.88697 0.32886 0.0
H2924 H 0.06063 0.82922 0.38547 0.0
H2925 H 0.08025 0.85177 0.29358 0.0
H2926 H 0.06557 0.86681 0.35069 0.0
H2927 H 0.08535 0.81526 0.33162 0.0
C2928 C 0.07794 0.80588 0.35524 0.0
C2929 C 0.0705 0.80942 0.37048 0.0
C2930 C 0.06896 0.86348 0.33822 0.0
C2931 C 0.07484 0.83446 0.34707 0.0
C2932 C 0.06672 0.87503 0.32571 0.0
C2933 C 0.07041 0.87099 0.30931 0.0
C2934 C 0.07478 0.84765 0.33435 0.0
C2935 C 0.07718 0.85538 0.30605 0.0
C2936 C 0.08011 0.81835 0.3435 0.0
C2937 C 0.06619 0.82583 0.37382 0.0
N2938 N 0.07893 0.84417 0.31844 0.0
N2939 N 0.06829 0.83766 0.36219 0.0
H2940 H 0.76402 0.43986 0.82882 0.0
H2941 H 0.74519 0.53365 0.85212 0.0
H2942 H 0.74629 0.47539 0.79342 0.0
H2943 H 0.76564 0.49757 0.88542 0.0
H2944 H 0.7411 0.51184 0.83157 0.0
H2945 H 0.76016 0.46004 0.85065 0.0
C2946 C 0.75916 0.45189 0.82565 0.0
C2947 C 0.75569 0.456 0.80921 0.0
C2948 C 0.74629 0.50869 0.84346 0.0
C2949 C 0.7514 0.47936 0.83426 0.0
C2950 C 0.74856 0.52112 0.85522 0.0
C2951 C 0.75597 0.51749 0.87045 0.0
C2952 C 0.75143 0.49253 0.847 0.0
C2953 C 0.76012 0.50103 0.87378 0.0
C2954 C 0.75695 0.46344 0.83815 0.0
C2955 C 0.74918 0.47172 0.80592 0.0
N2956 N 0.75792 0.48924 0.86213 0.0
N2957 N 0.74746 0.48293 0.8183 0.0
H2958 H 0.07854 0.51598 0.13684 0.0
H2959 H 0.10182 0.49583 0.0433 0.0
H2960 H 0.04329 0.49702 0.1018 0.0
H2961 H 0.13512 0.51682 0.07909 0.0
H2962 H 0.08129 0.49202 0.0652 0.0
H2963 H 0.10033 0.51213 0.11664 0.0
C2964 C 0.07539 0.51087 0.12492 0.0
C2965 C 0.05899 0.50704 0.12095 0.0
C2966 C 0.09317 0.49727 0.06826 0.0
C2967 C 0.08401 0.50274 0.09755 0.0
C2968 C 0.10492 0.49939 0.05579 0.0
C2969 C 0.12015 0.50686 0.05931 0.0
C2970 C 0.09673 0.50264 0.08435 0.0
C2971 C 0.12348 0.51124 0.07571 0.0
C2972 C 0.08787 0.50866 0.11335 0.0
C2973 C 0.05574 0.50021 0.10536 0.0
N2974 N 0.11184 0.50919 0.08754 0.0
N2975 N 0.06811 0.49848 0.09413 0.0
H2976 H 0.53387 0.58047 0.47485 0.0
H2977 H 0.44004 0.56101 0.49749 0.0
H2978 H 0.49802 0.56054 0.44101 0.0
H2979 H 0.47515 0.57919 0.53307 0.0
H2980 H 0.46036 0.56495 0.47579 0.0
H2981 H 0.51193 0.58422 0.49534 0.0
C2982 C 0.52135 0.57716 0.47163 0.0
C2983 C 0.51782 0.57002 0.45625 0.0
C2984 C 0.46363 0.56824 0.48831 0.0
C2985 C 0.49272 0.57412 0.47963 0.0
C2986 C 0.452 0.56599 0.50073 0.0
C2987 C 0.45595 0.56958 0.51718 0.0
C2988 C 0.47947 0.57397 0.49229 0.0
C2989 C 0.47159 0.57622 0.52056 0.0
C2990 C 0.50886 0.57922 0.48335 0.0
C2991 C 0.50139 0.56587 0.45277 0.0
N2992 N 0.48288 0.57799 0.50826 0.0
N2993 N 0.48953 0.56786 0.46439 0.0
H2994 H 0.01374 0.19011 0.74766 0.0
H2995 H 0.99508 0.28405 0.72467 0.0
H2996 H 0.99657 0.22568 0.78328 0.0
H2997 H 0.01571 0.2481 0.69133 0.0
H2998 H 0.99106 0.26218 0.74518 0.0
H2999 H 0.00991 0.21039 0.72591 0.0
C3000 C 0.009 0.20216 0.7509 0.0
C3001 C 0.00568 0.20626 0.76737 0.0
C3002 C 0.99628 0.25908 0.73329 0.0
C3003 C 0.00142 0.22973 0.74242 0.0
C3004 C 0.99852 0.27154 0.72156 0.0
C3005 C 0.00594 0.26796 0.70632 0.0
C3006 C 0.00146 0.24294 0.72972 0.0
C3007 C 0.01017 0.25152 0.70297 0.0
C3008 C 0.00682 0.21377 0.73845 0.0
C3009 C 0.99934 0.22202 0.77075 0.0
N3010 N 0.00799 0.2397 0.7146 0.0
N3011 N 0.99763 0.23328 0.75841 0.0
H3012 H 0.81266 0.13676 0.24774 0.0
H3013 H 0.83177 0.04295 0.22464 0.0
H3014 H 0.83023 0.10128 0.28325 0.0
H3015 H 0.81155 0.07897 0.19113 0.0
H3016 H 0.83567 0.06479 0.2452 0.0
H3017 H 0.81664 0.11655 0.22594 0.0
C3018 C 0.81751 0.12474 0.25094 0.0
C3019 C 0.82091 0.12065 0.2674 0.0
C3020 C 0.83057 0.06792 0.23327 0.0
C3021 C 0.82535 0.09726 0.2424 0.0
C3022 C 0.82841 0.05547 0.2215 0.0
C3023 C 0.82112 0.05908 0.2062 0.0
C3024 C 0.82544 0.08407 0.22966 0.0
C3025 C 0.81698 0.07553 0.20282 0.0
C3026 C 0.8198 0.11317 0.23846 0.0
C3027 C 0.82741 0.10494 0.27074 0.0
N3028 N 0.81907 0.08734 0.21448 0.0
N3029 N 0.82921 0.09372 0.25838 0.0
H3030 H 0.53377 0.74546 0.85198 0.0
H3031 H 0.44011 0.76584 0.82936 0.0
H3032 H 0.49844 0.76712 0.88534 0.0
H3033 H 0.47489 0.74689 0.79385 0.0
H3034 H 0.46047 0.76196 0.85101 0.0
H3035 H 0.51169 0.74162 0.83167 0.0
C3036 C 0.52135 0.74917 0.85514 0.0
C3037 C 0.51801 0.75682 0.87032 0.0
C3038 C 0.46366 0.75849 0.83853 0.0
C3039 C 0.49275 0.75254 0.84715 0.0
C3040 C 0.45201 0.76071 0.82613 0.0
C3041 C 0.45586 0.75691 0.8097 0.0
C3042 C 0.47944 0.75259 0.83454 0.0
C3043 C 0.47142 0.75006 0.80633 0.0
C3044 C 0.50877 0.74703 0.84352 0.0
C3045 C 0.50168 0.76139 0.87373 0.0
N3046 N 0.48274 0.74833 0.81862 0.0
N3047 N 0.48974 0.7593 0.86221 0.0
H3048 H 0.81372 0.24759 0.13676 0.0
H3049 H 0.83174 0.22525 0.0426 0.0
H3050 H 0.83099 0.28336 0.1014 0.0
H3051 H 0.81245 0.19131 0.07871 0.0
H3052 H 0.83592 0.24566 0.06454 0.0
H3053 H 0.81767 0.22592 0.11641 0.0
C3054 C 0.81851 0.25087 0.12474 0.0
C3055 C 0.82183 0.26736 0.12072 0.0
C3056 C 0.83097 0.23366 0.06767 0.0
C3057 C 0.8262 0.24252 0.09716 0.0
C3058 C 0.82865 0.22199 0.05516 0.0
C3059 C 0.82155 0.20661 0.05878 0.0
C3060 C 0.82617 0.22989 0.08388 0.0
C3061 C 0.81773 0.20307 0.07527 0.0
C3062 C 0.82077 0.23847 0.11309 0.0
C3063 C 0.82824 0.27081 0.105 0.0
N3064 N 0.81996 0.21464 0.08714 0.0
N3065 N 0.82999 0.25852 0.09369 0.0
H3066 H 0.32822 0.56037 0.38654 0.0
H3067 H 0.35134 0.58092 0.29305 0.0
H3068 H 0.29293 0.57948 0.35163 0.0
H3069 H 0.38472 0.55982 0.3287 0.0
H3070 H 0.33085 0.58464 0.31499 0.0
H3071 H 0.34999 0.56431 0.36631 0.0
C3072 C 0.32506 0.56555 0.37464 0.0
C3073 C 0.30867 0.56941 0.37071 0.0
C3074 C 0.34274 0.57938 0.31802 0.0
C3075 C 0.33364 0.5738 0.3473 0.0
C3076 C 0.35447 0.57732 0.30551 0.0
C3077 C 0.3697 0.56984 0.30898 0.0
C3078 C 0.34633 0.57396 0.33408 0.0
C3079 C 0.37307 0.5654 0.32536 0.0
C3080 C 0.33753 0.5678 0.36307 0.0
C3081 C 0.30539 0.5763 0.35516 0.0
N3082 N 0.36145 0.5674 0.33722 0.0
N3083 N 0.31773 0.57807 0.34392 0.0
H3084 H 0.94067 0.99756 0.55938 0.0
H3085 H 0.99863 0.93755 0.57098 0.0
H3086 H 0.97472 0.03194 0.58142 0.0
H3087 H 0.03345 0.97746 0.57521 0.0
H3088 H 0.97619 0.95697 0.57502 0.0
H3089 H 0.96039 0.97567 0.56342 0.0
C3090 C 0.95223 0.00046 0.5654 0.0
C3091 C 0.95604 0.01668 0.56998 0.0
C3092 C 0.98865 0.96165 0.57483 0.0
C3093 C 0.97889 0.99127 0.57517 0.0
C3094 C 0.00152 0.95047 0.57274 0.0
C3095 C 0.01788 0.95596 0.57241 0.0
C3096 C 0.99212 0.9786 0.57605 0.0
C3097 C 0.02097 0.97275 0.57522 0.0
C3098 C 0.96353 0.9878 0.56793 0.0
C3099 C 0.97125 0.01961 0.57775 0.0
N3100 N 0.00817 0.98354 0.57663 0.0
N3101 N 0.98222 0.00706 0.57989 0.0
H3102 H 0.47445 0.79352 0.74581 0.0
H3103 H 0.49833 0.88688 0.76602 0.0
H3104 H 0.44149 0.82937 0.76723 0.0
H3105 H 0.5333 0.85166 0.74688 0.0
H3106 H 0.47641 0.86679 0.76228 0.0
H3107 H 0.49506 0.81531 0.74195 0.0
C3108 C 0.47144 0.806 0.74945 0.0
C3109 C 0.45628 0.80956 0.75705 0.0
C3110 C 0.48883 0.86345 0.75874 0.0
C3111 C 0.47981 0.8345 0.75277 0.0
C3112 C 0.50139 0.87495 0.76089 0.0
C3113 C 0.51774 0.87089 0.75698 0.0
C3114 C 0.49259 0.84763 0.7528 0.0
C3115 C 0.52088 0.85529 0.75013 0.0
C3116 C 0.48323 0.81841 0.74731 0.0
C3117 C 0.45307 0.82596 0.76155 0.0
N3118 N 0.50845 0.84412 0.74847 0.0
N3119 N 0.46476 0.83773 0.75946 0.0
H3120 H 0.32841 0.43989 0.26472 0.0
H3121 H 0.35145 0.53362 0.24546 0.0
H3122 H 0.29303 0.47512 0.24636 0.0
H3123 H 0.38501 0.49764 0.26563 0.0
H3124 H 0.33095 0.51174 0.24145 0.0
H3125 H 0.3502 0.46009 0.26079 0.0
C3126 C 0.32523 0.45185 0.25971 0.0
C3127 C 0.30881 0.45588 0.25609 0.0
C3128 C 0.34288 0.50863 0.24656 0.0
C3129 C 0.33381 0.47927 0.25171 0.0
C3130 C 0.35461 0.52109 0.24877 0.0
C3131 C 0.3699 0.51751 0.25607 0.0
C3132 C 0.34652 0.49247 0.25165 0.0
C3133 C 0.37332 0.50105 0.26018 0.0
C3134 C 0.33771 0.46341 0.25746 0.0
C3135 C 0.30551 0.47151 0.24939 0.0
N3136 N 0.36169 0.48922 0.25805 0.0
N3137 N 0.31787 0.48274 0.24763 0.0
H3138 H 0.57837 0.13742 0.01567 0.0
H3139 H 0.60205 0.04409 0.99513 0.0
H3140 H 0.54345 0.1025 0.9959 0.0
H3141 H 0.63498 0.07969 0.01696 0.0
H3142 H 0.58157 0.066 0.99115 0.0
H3143 H 0.60025 0.11729 0.01195 0.0
C3144 C 0.57531 0.12554 0.0104 0.0
C3145 C 0.55898 0.12158 0.00631 0.0
C3146 C 0.59336 0.06903 0.99663 0.0
C3147 C 0.5841 0.09826 0.00217 0.0
C3148 C 0.60508 0.05654 0.99883 0.0
C3149 C 0.62019 0.06 0.00657 0.0
C3150 C 0.59682 0.08507 0.00218 0.0
C3151 C 0.62343 0.07636 0.01117 0.0
C3152 C 0.58785 0.11402 0.00827 0.0
C3153 C 0.55586 0.10605 0.99929 0.0
N3154 N 0.61182 0.0882 0.00902 0.0
N3155 N 0.56827 0.09485 0.99765 0.0
H3156 H 0.78447 0.60139 0.83167 0.0
H3157 H 0.6902 0.57941 0.81341 0.0
H3158 H 0.74879 0.63518 0.81135 0.0
H3159 H 0.72551 0.54341 0.83029 0.0
H3160 H 0.71071 0.60095 0.8172 0.0
H3161 H 0.7624 0.58109 0.83574 0.0
C3162 C 0.77197 0.60465 0.82834 0.0
C3163 C 0.76852 0.61995 0.821 0.0
C3164 C 0.71398 0.58838 0.82025 0.0
C3165 C 0.74327 0.5968 0.82549 0.0
C3166 C 0.70224 0.57605 0.81808 0.0
C3167 C 0.70619 0.55953 0.82134 0.0
C3168 C 0.72993 0.58423 0.82555 0.0
C3169 C 0.72195 0.55598 0.8276 0.0
C3170 C 0.7594 0.59303 0.83058 0.0
C3171 C 0.7521 0.62348 0.81684 0.0
N3172 N 0.73334 0.5682 0.82929 0.0
N3173 N 0.74016 0.61197 0.81902 0.0
H3174 H 0.07853 0.69028 0.31171 0.0
H3175 H 0.10153 0.78409 0.33098 0.0
H3176 H 0.04309 0.72552 0.32992 0.0
H3177 H 0.13495 0.74827 0.31029 0.0
H3178 H 0.08103 0.76219 0.33488 0.0
H3179 H 0.10027 0.71059 0.31541 0.0
C3180 C 0.07533 0.70227 0.31664 0.0
C3181 C 0.05891 0.70625 0.32031 0.0
C3182 C 0.09293 0.75912 0.32967 0.0
C3183 C 0.08385 0.72977 0.32443 0.0
C3184 C 0.10466 0.77159 0.32752 0.0
C3185 C 0.11992 0.76806 0.32013 0.0
C3186 C 0.09653 0.743 0.32443 0.0
C3187 C 0.12329 0.75165 0.31582 0.0
C3188 C 0.08778 0.71389 0.31876 0.0
C3189 C 0.05558 0.72193 0.32689 0.0
N3190 N 0.11167 0.73981 0.31791 0.0
N3191 N 0.06791 0.73321 0.32853 0.0
H3192 H 0.99757 0.26619 0.88657 0.0
H3193 H 0.97411 0.24521 0.79325 0.0
H3194 H 0.03263 0.24648 0.85175 0.0
H3195 H 0.94105 0.26711 0.82871 0.0
H3196 H 0.99457 0.24145 0.8152 0.0
H3197 H 0.97575 0.26239 0.86638 0.0
C3198 C 0.00067 0.26091 0.8747 0.0
C3199 C 0.01702 0.25686 0.87079 0.0
C3200 C 0.98276 0.2469 0.81818 0.0
C3201 C 0.99197 0.25261 0.84741 0.0
C3202 C 0.97104 0.24899 0.80567 0.0
C3203 C 0.9559 0.25669 0.80908 0.0
C3204 C 0.97926 0.25252 0.8342 0.0
C3205 C 0.95262 0.26134 0.82542 0.0
C3206 C 0.98817 0.25874 0.86315 0.0
C3207 C 0.02021 0.24984 0.85527 0.0
N3208 N 0.96423 0.25931 0.83728 0.0
N3209 N 0.00783 0.24814 0.84404 0.0
H3210 H 0.31278 0.24695 0.63634 0.0
H3211 H 0.33194 0.22466 0.54235 0.0
H3212 H 0.33076 0.2827 0.60129 0.0
H3213 H 0.31118 0.19105 0.57797 0.0
H3214 H 0.33598 0.24496 0.56441 0.0
H3215 H 0.31667 0.22535 0.61592 0.0
C3216 C 0.31771 0.25025 0.62437 0.0
C3217 C 0.32123 0.26672 0.62046 0.0
C3218 C 0.33072 0.23307 0.5674 0.0
C3219 C 0.32554 0.24194 0.59682 0.0
C3220 C 0.32848 0.22145 0.55483 0.0
C3221 C 0.32101 0.2062 0.55826 0.0
C3222 C 0.32551 0.22936 0.5835 0.0
C3223 C 0.31675 0.20272 0.57466 0.0
C3224 C 0.31993 0.23788 0.61269 0.0
C3225 C 0.32782 0.27018 0.60481 0.0
N3226 N 0.31893 0.21423 0.58659 0.0
N3227 N 0.32955 0.25792 0.59346 0.0
H3228 H 0.31099 0.63697 0.24879 0.0
H3229 H 0.33105 0.54351 0.22532 0.0
H3230 H 0.32957 0.60172 0.28403 0.0
H3231 H 0.31097 0.57957 0.1918 0.0
H3232 H 0.33477 0.56529 0.24598 0.0
H3233 H 0.31511 0.6169 0.22691 0.0
C3234 C 0.31608 0.62502 0.25192 0.0
C3235 C 0.31974 0.62096 0.26832 0.0
C3236 C 0.32975 0.56845 0.23402 0.0
C3237 C 0.32434 0.59772 0.24322 0.0
C3238 C 0.3277 0.55604 0.2222 0.0
C3239 C 0.32051 0.55967 0.20687 0.0
C3240 C 0.32458 0.58459 0.23044 0.0
C3241 C 0.31633 0.57611 0.20351 0.0
C3242 C 0.31845 0.61354 0.23938 0.0
C3243 C 0.32654 0.60536 0.27156 0.0
N3244 N 0.3183 0.58789 0.21523 0.0
N3245 N 0.32841 0.5942 0.25915 0.0
H3246 H 0.97492 0.58023 0.03387 0.0
H3247 H 0.99802 0.55935 0.94046 0.0
H3248 H 0.94135 0.55947 0.99823 0.0
H3249 H 0.03317 0.57921 0.97508 0.0
H3250 H 0.97626 0.56321 0.96071 0.0
H3251 H 0.99543 0.58383 0.01192 0.0
C3252 C 0.97176 0.5767 0.0214 0.0
C3253 C 0.95645 0.56937 0.01794 0.0
C3254 C 0.98869 0.56688 0.96389 0.0
C3255 C 0.97986 0.5733 0.99283 0.0
C3256 C 0.00115 0.56467 0.9523 0.0
C3257 C 0.01751 0.56877 0.95613 0.0
C3258 C 0.99254 0.57309 0.97959 0.0
C3259 C 0.02074 0.57584 0.97162 0.0
C3260 C 0.98349 0.57868 0.0089 0.0
C3261 C 0.95305 0.56496 0.00156 0.0
N3262 N 0.0084 0.57757 0.98289 0.0
N3263 N 0.96467 0.56687 0.9897 0.0
H3264 H 0.60254 0.49627 0.5426 0.0
H3265 H 0.5794 0.51775 0.63594 0.0
H3266 H 0.63534 0.51939 0.5775 0.0
H3267 H 0.54436 0.49726 0.60156 0.0
H3268 H 0.60107 0.51433 0.61553 0.0
H3269 H 0.58222 0.49254 0.56472 0.0
C3270 C 0.60557 0.50032 0.55494 0.0
C3271 C 0.6206 0.50832 0.55814 0.0
C3272 C 0.58869 0.51043 0.61244 0.0
C3273 C 0.59743 0.5042 0.58344 0.0
C3274 C 0.57627 0.51238 0.62412 0.0
C3275 C 0.55996 0.50799 0.62041 0.0
C3276 C 0.58484 0.50417 0.59676 0.0
C3277 C 0.55675 0.50087 0.60494 0.0
C3278 C 0.59395 0.49826 0.56754 0.0
C3279 C 0.62385 0.51337 0.57436 0.0
N3280 N 0.56904 0.49938 0.59358 0.0
N3281 N 0.61234 0.51133 0.58632 0.0
H3282 H 0.26355 0.99697 0.88737 0.0
H3283 H 0.24352 0.97435 0.79364 0.0
H3284 H 0.24499 0.03251 0.85242 0.0
H3285 H 0.26505 0.94099 0.82905 0.0
H3286 H 0.23955 0.99463 0.81572 0.0
H3287 H 0.25961 0.97529 0.86705 0.0
C3288 C 0.25848 0.00021 0.87545 0.0
C3289 C 0.25482 0.01665 0.87153 0.0
C3290 C 0.24496 0.98279 0.81866 0.0
C3291 C 0.25043 0.99177 0.848 0.0
C3292 C 0.24717 0.97118 0.80608 0.0
C3293 C 0.25484 0.95602 0.80943 0.0
C3294 C 0.25041 0.97916 0.8347 0.0
C3295 C 0.25932 0.95259 0.82579 0.0
C3296 C 0.25623 0.98779 0.86381 0.0
C3297 C 0.24805 0.02002 0.85594 0.0
N3298 N 0.25716 0.9641 0.83773 0.0
N3299 N 0.24629 0.00772 0.84464 0.0
H3300 H 0.63684 0.31104 0.2473 0.0
H3301 H 0.54317 0.33135 0.22472 0.0
H3302 H 0.60217 0.33037 0.28272 0.0
H3303 H 0.57871 0.31064 0.19101 0.0
H3304 H 0.56522 0.33509 0.2451 0.0
H3305 H 0.61648 0.31489 0.22564 0.0
C3306 C 0.62497 0.31625 0.25051 0.0
C3307 C 0.62115 0.32018 0.26691 0.0
C3308 C 0.5682 0.32992 0.23316 0.0
C3309 C 0.59758 0.32448 0.24206 0.0
C3310 C 0.55564 0.32785 0.2215 0.0
C3311 C 0.55905 0.3205 0.2062 0.0
C3312 C 0.58428 0.32461 0.22945 0.0
C3313 C 0.57542 0.31614 0.20271 0.0
C3314 C 0.61332 0.31845 0.2381 0.0
C3315 C 0.60562 0.32711 0.27025 0.0
N3316 N 0.58735 0.31814 0.21427 0.0
N3317 N 0.59431 0.32883 0.25796 0.0
H3318 H 0.24521 0.85132 0.03466 0.0
H3319 H 0.26413 0.82897 0.94062 0.0
H3320 H 0.26551 0.88502 0.99885 0.0
H3321 H 0.24618 0.79323 0.97568 0.0
H3322 H 0.26033 0.85057 0.96105 0.0
H3323 H 0.24123 0.83094 0.01265 0.0
C3324 C 0.24858 0.85454 0.02215 0.0
C3325 C 0.25591 0.86984 0.01865 0.0
C3326 C 0.25706 0.83804 0.96429 0.0
C3327 C 0.25148 0.84659 0.99347 0.0
C3328 C 0.25923 0.82567 0.95259 0.0
C3329 C 0.25568 0.80921 0.9565 0.0
C3330 C 0.25146 0.83399 0.98016 0.0
C3331 C 0.24914 0.80575 0.97217 0.0
C3332 C 0.24637 0.84287 0.00961 0.0
C3333 C 0.26005 0.87332 0.00222 0.0
N3334 N 0.24745 0.81801 0.98352 0.0
N3335 N 0.2579 0.86176 0.99032 0.0
H3336 H 0.10202 0.04244 0.49589 0.0
H3337 H 0.07862 0.13607 0.51525 0.0
H3338 H 0.1355 0.07867 0.51578 0.0
H3339 H 0.04324 0.10064 0.49733 0.0
H3340 H 0.10048 0.11598 0.51113 0.0
H3341 H 0.08136 0.0642 0.49202 0.0
C3342 C 0.10513 0.05499 0.49918 0.0
C3343 C 0.12045 0.05869 0.50638 0.0
C3344 C 0.08797 0.11258 0.50794 0.0
C3345 C 0.09688 0.08357 0.5021 0.0
C3346 C 0.07546 0.12408 0.5103 0.0
C3347 C 0.05902 0.11997 0.50684 0.0
C3348 C 0.0841 0.0967 0.50225 0.0
C3349 C 0.05573 0.10431 0.50021 0.0
C3350 C 0.09331 0.06739 0.49704 0.0
C3351 C 0.12379 0.07517 0.51043 0.0
N3352 N 0.06814 0.09314 0.49835 0.0
N3353 N 0.11208 0.08692 0.50836 0.0
H3354 H 0.63698 0.24789 0.31104 0.0
H3355 H 0.54307 0.22543 0.33043 0.0
H3356 H 0.60195 0.2835 0.32933 0.0
H3357 H 0.57867 0.19181 0.30966 0.0
H3358 H 0.5651 0.24578 0.33433 0.0
H3359 H 0.61657 0.22626 0.31479 0.0
C3360 C 0.62502 0.25115 0.316 0.0
C3361 C 0.62111 0.26759 0.31967 0.0
C3362 C 0.56809 0.23388 0.3291 0.0
C3363 C 0.59749 0.24278 0.32385 0.0
C3364 C 0.55554 0.22223 0.32694 0.0
C3365 C 0.55898 0.20696 0.31953 0.0
C3366 C 0.58419 0.23018 0.32384 0.0
C3367 C 0.57536 0.20349 0.3152 0.0
C3368 C 0.61333 0.23876 0.31815 0.0
C3369 C 0.60547 0.271 0.32629 0.0
N3370 N 0.58728 0.21504 0.3173 0.0
N3371 N 0.59413 0.25873 0.32796 0.0
H3372 H 0.49798 0.93993 0.06119 0.0
H3373 H 0.47445 0.03324 0.08184 0.0
H3374 H 0.53315 0.97504 0.08014 0.0
H3375 H 0.44116 0.99743 0.06092 0.0
H3376 H 0.495 0.01138 0.08565 0.0
H3377 H 0.47608 0.95996 0.06539 0.0
C3378 C 0.50109 0.95183 0.06638 0.0
C3379 C 0.51748 0.95588 0.07011 0.0
C3380 C 0.48311 0.0083 0.08042 0.0
C3381 C 0.49235 0.97907 0.07481 0.0
C3382 C 0.47135 0.02075 0.07831 0.0
C3383 C 0.45613 0.01722 0.07084 0.0
C3384 C 0.47958 0.99221 0.07504 0.0
C3385 C 0.4528 0.00081 0.06649 0.0
C3386 C 0.48854 0.96329 0.0688 0.0
C3387 C 0.52069 0.97143 0.07705 0.0
N3388 N 0.46446 0.989 0.06852 0.0
N3389 N 0.50826 0.98256 0.07896 0.0
H3390 H 0.94005 0.32915 0.76535 0.0
H3391 H 0.03389 0.35145 0.74547 0.0
H3392 H 0.97488 0.29351 0.74676 0.0
H3393 H 0.99826 0.38539 0.76564 0.0
H3394 H 0.01184 0.33107 0.74177 0.0
H3395 H 0.96046 0.35077 0.76142 0.0
C3396 C 0.95197 0.32588 0.76029 0.0
C3397 C 0.95581 0.30943 0.75657 0.0
C3398 C 0.00884 0.34306 0.74682 0.0
C3399 C 0.97943 0.33423 0.75218 0.0
C3400 C 0.0214 0.35472 0.74885 0.0
C3401 C 0.01797 0.3701 0.75604 0.0
C3402 C 0.99274 0.34683 0.752 0.0
C3403 C 0.00156 0.37364 0.76026 0.0
C3404 C 0.96365 0.33826 0.75803 0.0
C3405 C 0.9714 0.30601 0.74983 0.0
N3406 N 0.98964 0.36208 0.7583 0.0
N3407 N 0.98274 0.31827 0.74805 0.0
H3408 H 0.58105 0.03438 0.97533 0.0
H3409 H 0.56293 0.94029 0.99771 0.0
H3410 H 0.5626 0.99806 0.94116 0.0
H3411 H 0.57991 0.97572 0.03356 0.0
H3412 H 0.56713 0.96057 0.97603 0.0
H3413 H 0.58505 0.01252 0.99586 0.0
C3414 C 0.57813 0.02178 0.97205 0.0
C3415 C 0.5713 0.01808 0.95657 0.0
C3416 C 0.5701 0.96392 0.9886 0.0
C3417 C 0.57568 0.99308 0.97999 0.0
C3418 C 0.56769 0.95232 0.00101 0.0
C3419 C 0.57085 0.95638 0.01752 0.0
C3420 C 0.57553 0.97985 0.99267 0.0
C3421 C 0.57725 0.97209 0.021 0.0
C3422 C 0.58033 0.00933 0.98379 0.0
C3423 C 0.56766 0.00155 0.953 0.0
N3424 N 0.57916 0.98336 0.0087 0.0
N3425 N 0.56976 0.98974 0.96464 0.0
H3426 H 0.19032 0.01435 0.74843 0.0
H3427 H 0.28469 0.99721 0.72607 0.0
H3428 H 0.22609 0.9985 0.78445 0.0
H3429 H 0.24842 0.01638 0.69223 0.0
H3430 H 0.26284 0.99308 0.74659 0.0
H3431 H 0.21073 0.01048 0.72681 0.0
C3432 C 0.20245 0.00988 0.75178 0.0
C3433 C 0.20656 0.00693 0.76831 0.0
C3434 C 0.25967 0.998 0.7346 0.0
C3435 C 0.23018 0.00265 0.74353 0.0
C3436 C 0.27211 0.00028 0.72286 0.0
C3437 C 0.26842 0.00733 0.70747 0.0
C3438 C 0.24343 0.00274 0.73087 0.0
C3439 C 0.25191 0.01114 0.704 0.0
C3440 C 0.21413 0.00767 0.7394 0.0
C3441 C 0.22241 0.00093 0.77186 0.0
N3442 N 0.2401 0.00892 0.71562 0.0
N3443 N 0.23375 0.99921 0.75959 0.0
H3444 H 0.58187 0.29329 0.35145 0.0
H3445 H 0.56146 0.38675 0.32819 0.0
H3446 H 0.56095 0.32909 0.38478 0.0
H3447 H 0.58045 0.35178 0.29289 0.0
H3448 H 0.5655 0.36659 0.34998 0.0
H3449 H 0.58565 0.31518 0.33091 0.0
C3450 C 0.57833 0.30578 0.35456 0.0
C3451 C 0.57087 0.3093 0.36979 0.0
C3452 C 0.56894 0.36331 0.33751 0.0
C3453 C 0.57506 0.33434 0.34636 0.0
C3454 C 0.56662 0.37485 0.32503 0.0
C3455 C 0.5704 0.37088 0.30863 0.0
C3456 C 0.57491 0.34753 0.33364 0.0
C3457 C 0.5773 0.35533 0.30535 0.0
C3458 C 0.58042 0.31825 0.3428 0.0
C3459 C 0.5665 0.3257 0.37313 0.0
N3460 N 0.57912 0.34411 0.31772 0.0
N3461 N 0.56854 0.33753 0.36148 0.0
H3462 H 0.2482 0.30983 0.63617 0.0
H3463 H 0.22504 0.33012 0.54265 0.0
H3464 H 0.28348 0.32888 0.60121 0.0
H3465 H 0.19154 0.30953 0.57846 0.0
H3466 H 0.24558 0.33385 0.56455 0.0
H3467 H 0.22641 0.31378 0.61596 0.0
C3468 C 0.25135 0.31499 0.62426 0.0
C3469 C 0.26775 0.31882 0.62032 0.0
C3470 C 0.23365 0.32871 0.56762 0.0
C3471 C 0.24275 0.32323 0.59692 0.0
C3472 C 0.2219 0.32665 0.55514 0.0
C3473 C 0.20661 0.31932 0.55867 0.0
C3474 C 0.23004 0.32341 0.58372 0.0
C3475 C 0.20323 0.31501 0.57508 0.0
C3476 C 0.23888 0.31725 0.6127 0.0
C3477 C 0.27102 0.3257 0.60475 0.0
N3478 N 0.21487 0.31699 0.58691 0.0
N3479 N 0.25866 0.32747 0.59352 0.0
H3480 H 0.49552 0.78371 0.72478 0.0
H3481 H 0.5152 0.69016 0.74823 0.0
H3482 H 0.51571 0.74759 0.69134 0.0
H3483 H 0.49673 0.72546 0.78349 0.0
H3484 H 0.51119 0.71026 0.72636 0.0
H3485 H 0.49168 0.76193 0.7454 0.0
C3486 C 0.49889 0.77118 0.72167 0.0
C3487 C 0.50615 0.76752 0.70637 0.0
C3488 C 0.50785 0.71363 0.73884 0.0
C3489 C 0.5019 0.74261 0.72991 0.0
C3490 C 0.51015 0.70212 0.75136 0.0
C3491 C 0.50652 0.7062 0.76777 0.0
C3492 C 0.50204 0.72947 0.74268 0.0
C3493 C 0.49977 0.72182 0.77102 0.0
C3494 C 0.49676 0.75877 0.73347 0.0
C3495 C 0.51029 0.75106 0.70303 0.0
N3496 N 0.49796 0.733 0.75861 0.0
N3497 N 0.50824 0.7393 0.71473 0.0
H3498 H 0.82872 0.26713 0.94048 0.0
H3499 H 0.85231 0.24608 0.03378 0.0
H3500 H 0.79382 0.24696 0.97519 0.0
H3501 H 0.88518 0.26843 0.99845 0.0
H3502 H 0.83184 0.24232 0.01182 0.0
H3503 H 0.85053 0.2636 0.96073 0.0
C3504 C 0.82565 0.26182 0.95234 0.0
C3505 C 0.80934 0.25755 0.9562 0.0
C3506 C 0.84362 0.24787 0.00887 0.0
C3507 C 0.83438 0.25361 0.97965 0.0
C3508 C 0.85533 0.24995 0.02137 0.0
C3509 C 0.87043 0.25775 0.01801 0.0
C3510 C 0.84707 0.2536 0.99288 0.0
C3511 C 0.87365 0.26257 0.00171 0.0
C3512 C 0.83815 0.2598 0.96393 0.0
C3513 C 0.8062 0.25048 0.97171 0.0
N3514 N 0.86205 0.26053 0.98984 0.0
N3515 N 0.81857 0.24894 0.98297 0.0
H3516 H 0.82907 0.06125 0.38676 0.0
H3517 H 0.85206 0.08125 0.29311 0.0
H3518 H 0.79369 0.07996 0.35172 0.0
H3519 H 0.88539 0.06001 0.32873 0.0
H3520 H 0.83164 0.08513 0.31509 0.0
H3521 H 0.85082 0.06512 0.3665 0.0
C3522 C 0.82588 0.06633 0.37483 0.0
C3523 C 0.80946 0.07006 0.37087 0.0
C3524 C 0.8435 0.0798 0.31809 0.0
C3525 C 0.83442 0.07437 0.34741 0.0
C3526 C 0.85519 0.07764 0.30557 0.0
C3527 C 0.8704 0.07009 0.30902 0.0
C3528 C 0.84709 0.07441 0.33416 0.0
C3529 C 0.87377 0.06566 0.3254 0.0
C3530 C 0.83834 0.06854 0.36323 0.0
C3531 C 0.80616 0.07684 0.35527 0.0
N3532 N 0.86218 0.06776 0.33728 0.0
N3533 N 0.8185 0.07857 0.34401 0.0
H3534 H 0.49521 0.60145 0.54245 0.0
H3535 H 0.51445 0.57941 0.63647 0.0
H3536 H 0.51562 0.63526 0.57809 0.0
H3537 H 0.49682 0.54348 0.60142 0.0
H3538 H 0.51033 0.60098 0.61606 0.0
H3539 H 0.49124 0.58116 0.56454 0.0
C3540 C 0.49861 0.60471 0.55494 0.0
C3541 C 0.50598 0.62001 0.55838 0.0
C3542 C 0.5072 0.58841 0.61282 0.0
C3543 C 0.50155 0.59687 0.58363 0.0
C3544 C 0.50955 0.57607 0.6245 0.0
C3545 C 0.50621 0.55956 0.62058 0.0
C3546 C 0.50162 0.58429 0.59696 0.0
C3547 C 0.49964 0.55604 0.60494 0.0
C3548 C 0.4964 0.5931 0.56752 0.0
C3549 C 0.51014 0.62355 0.57479 0.0
N3550 N 0.49779 0.56828 0.5936 0.0
N3551 N 0.508 0.61205 0.58673 0.0
H3552 H 0.28369 0.72516 0.99558 0.0
H3553 H 0.18977 0.74727 0.01533 0.0
H3554 H 0.24817 0.69128 0.01605 0.0
H3555 H 0.2245 0.78297 0.99665 0.0
H3556 H 0.21024 0.72571 0.01146 0.0
H3557 H 0.26158 0.74546 0.99176 0.0
C3558 C 0.27122 0.72189 0.99901 0.0
C3559 C 0.26783 0.70656 0.00632 0.0
C3560 C 0.2134 0.73822 0.00804 0.0
C3561 C 0.24253 0.72972 0.00212 0.0
C3562 C 0.20168 0.75057 0.01026 0.0
C3563 C 0.20548 0.76702 0.00652 0.0
C3564 C 0.22918 0.74228 0.00221 0.0
C3565 C 0.22106 0.77047 -0.00024 0.0
C3566 C 0.25862 0.73351 0.9969 0.0
C3567 C 0.25144 0.70301 0.01059 0.0
N3568 N 0.23244 0.75823 0.99803 0.0
N3569 N 0.23949 0.71452 0.00855 0.0
H3570 H 0.79309 0.97464 0.2446 0.0
H3571 H 0.88656 0.99771 0.26532 0.0
H3572 H 0.82878 0.94108 0.26534 0.0
H3573 H 0.85163 0.03306 0.24637 0.0
H3574 H 0.86636 0.97593 0.26123 0.0
H3575 H 0.81502 0.99515 0.24101 0.0
C3576 C 0.80556 0.97147 0.24814 0.0
C3577 C 0.80904 0.95617 0.25549 0.0
C3578 C 0.86311 0.98841 0.2578 0.0
C3579 C 0.83413 0.9796 0.25153 0.0
C3580 C 0.87466 0.00088 0.26014 0.0
C3581 C 0.87072 0.01729 0.25637 0.0
C3582 C 0.84734 0.99231 0.25179 0.0
C3583 C 0.85517 0.02058 0.24948 0.0
C3584 C 0.81806 0.98322 0.24616 0.0
C3585 C 0.82543 0.95277 0.25986 0.0
N3586 N 0.84395 0.00823 0.24762 0.0
N3587 N 0.83729 0.96441 0.25794 0.0
H3588 H 0.82877 0.88634 0.56231 0.0
H3589 H 0.85182 0.79261 0.58145 0.0
H3590 H 0.79335 0.85113 0.58058 0.0
H3591 H 0.88566 0.82892 0.56236 0.0
H3592 H 0.83121 0.81441 0.58537 0.0
H3593 H 0.85058 0.86619 0.56643 0.0
C3594 C 0.82559 0.87439 0.56733 0.0
C3595 C 0.80915 0.87036 0.57088 0.0
C3596 C 0.84323 0.81761 0.58052 0.0
C3597 C 0.83417 0.84701 0.57548 0.0
C3598 C 0.85502 0.80519 0.57836 0.0
C3599 C 0.87043 0.80889 0.57136 0.0
C3600 C 0.84691 0.83384 0.57567 0.0
C3601 C 0.87388 0.8254 0.56755 0.0
C3602 C 0.83808 0.86286 0.5697 0.0
C3603 C 0.80584 0.85474 0.57761 0.0
N3604 N 0.8622 0.83718 0.56961 0.0
N3605 N 0.81821 0.84353 0.57947 0.0
H3606 H 0.28436 0.10216 0.83191 0.0
H3607 H 0.19063 0.07974 0.81167 0.0
H3608 H 0.24887 0.13584 0.81102 0.0
H3609 H 0.2253 0.04421 0.83076 0.0
H3610 H 0.21102 0.10137 0.81557 0.0
H3611 H 0.26227 0.08183 0.8357 0.0
C3612 C 0.2719 0.10538 0.82837 0.0
C3613 C 0.26852 0.12066 0.82094 0.0
C3614 C 0.21418 0.08888 0.81907 0.0
C3615 C 0.24326 0.09747 0.82513 0.0
C3616 C 0.20251 0.0765 0.81684 0.0
C3617 C 0.20632 0.06008 0.82069 0.0
C3618 C 0.22994 0.08488 0.82503 0.0
C3619 C 0.22186 0.05669 0.82757 0.0
C3620 C 0.25932 0.09375 0.83047 0.0
C3621 C 0.25215 0.12415 0.81656 0.0
N3622 N 0.2332 0.06896 0.82931 0.0
N3623 N 0.24021 0.11262 0.8186 0.0
H3624 H 0.51476 0.07959 0.13612 0.0
H3625 H 0.49517 0.10251 0.04239 0.0
H3626 H 0.49609 0.04423 0.10106 0.0
H3627 H 0.51517 0.13623 0.07834 0.0
H3628 H 0.49134 0.08201 0.0643 0.0
H3629 H 0.51086 0.10136 0.11587 0.0
C3630 C 0.50968 0.07641 0.12418 0.0
C3631 C 0.50593 0.06001 0.12022 0.0
C3632 C 0.49638 0.09398 0.06739 0.0
C3633 C 0.50159 0.08497 0.09677 0.0
C3634 C 0.4985 0.10571 0.05491 0.0
C3635 C 0.5057 0.12106 0.05848 0.0
C3636 C 0.50147 0.09766 0.08355 0.0
C3637 C 0.5098 0.12451 0.07493 0.0
C3638 C 0.50744 0.08888 0.11259 0.0
C3639 C 0.49917 0.0567 0.10462 0.0
N3640 N 0.50776 0.11288 0.08677 0.0
N3641 N 0.49743 0.06904 0.09336 0.0
H3642 H 0.88664 0.76729 0.498 0.0
H3643 H 0.79344 0.74573 0.4744 0.0
H3644 H 0.85201 0.74703 0.53291 0.0
H3645 H 0.82853 0.76873 0.4417 0.0
H3646 H 0.81545 0.74205 0.49483 0.0
H3647 H 0.86638 0.76374 0.4762 0.0
C3648 C 0.8748 0.76194 0.50107 0.0
C3649 C 0.87097 0.75763 0.51738 0.0
C3650 C 0.81833 0.74774 0.4831 0.0
C3651 C 0.8475 0.75368 0.49236 0.0
C3652 C 0.8058 0.74978 0.47141 0.0
C3653 C 0.80908 0.75774 0.45637 0.0
C3654 C 0.83426 0.75365 0.47969 0.0
C3655 C 0.82533 0.76274 0.45318 0.0
C3656 C 0.8632 0.75991 0.48858 0.0
C3657 C 0.85547 0.75055 0.52052 0.0
N3658 N 0.83723 0.76073 0.46476 0.0
N3659 N 0.84421 0.74899 0.50817 0.0
H3660 H 0.18966 0.81004 0.07914 0.0
H3661 H 0.2831 0.83106 0.10225 0.0
H3662 H 0.2244 0.82954 0.0439 0.0
H3663 H 0.24787 0.80882 0.13532 0.0
H3664 H 0.26107 0.83476 0.08186 0.0
H3665 H 0.20997 0.81379 0.10087 0.0
C3666 C 0.20154 0.81526 0.07598 0.0
C3667 C 0.20539 0.81928 0.05961 0.0
C3668 C 0.25815 0.82925 0.09366 0.0
C3669 C 0.22891 0.82346 0.08454 0.0
C3670 C 0.27071 0.82719 0.10533 0.0
C3671 C 0.26739 0.81942 0.12046 0.0
C3672 C 0.24218 0.82354 0.09719 0.0
C3673 C 0.25109 0.81465 0.12376 0.0
C3674 C 0.21317 0.8174 0.08843 0.0
C3675 C 0.22093 0.82622 0.05634 0.0
N3676 N 0.23918 0.81667 0.1122 0.0
N3677 N 0.23222 0.82789 0.06866 0.0
H3678 H 0.58159 0.47555 0.53391 0.0
H3679 H 0.56264 0.49795 0.43996 0.0
H3680 H 0.5625 0.44147 0.49781 0.0
H3681 H 0.58032 0.5337 0.47513 0.0
H3682 H 0.56683 0.47628 0.46025 0.0
H3683 H 0.58546 0.49604 0.51199 0.0
C3684 C 0.57849 0.47227 0.52135 0.0
C3685 C 0.57152 0.45684 0.51774 0.0
C3686 C 0.56996 0.48882 0.46354 0.0
C3687 C 0.57578 0.48021 0.49266 0.0
C3688 C 0.56757 0.50123 0.45193 0.0
C3689 C 0.57094 0.51771 0.45592 0.0
C3690 C 0.5756 0.49286 0.47941 0.0
C3691 C 0.57752 0.52116 0.47156 0.0
C3692 C 0.58063 0.484 0.50886 0.0
C3693 C 0.56768 0.45328 0.50125 0.0
N3694 N 0.57942 0.50887 0.48284 0.0
N3695 N 0.56972 0.4649 0.4894 0.0
H3696 H 0.8868 0.32954 0.06344 0.0
H3697 H 0.79241 0.3514 0.08102 0.0
H3698 H 0.85143 0.29352 0.08018 0.0
H3699 H 0.82835 0.38544 0.06163 0.0
H3700 H 0.81445 0.33109 0.08522 0.0
H3701 H 0.8663 0.35109 0.06728 0.0
C3702 C 0.87475 0.32617 0.0681 0.0
C3703 C 0.87077 0.30965 0.07129 0.0
C3704 C 0.81751 0.34308 0.08024 0.0
C3705 C 0.84705 0.33436 0.07554 0.0
C3706 C 0.80496 0.3547 0.07792 0.0
C3707 C 0.8085 0.37008 0.07079 0.0
C3708 C 0.83371 0.34692 0.07544 0.0
C3709 C 0.82498 0.37368 0.06693 0.0
C3710 C 0.86301 0.33851 0.07029 0.0
C3711 C 0.85501 0.30609 0.07753 0.0
N3712 N 0.83689 0.36216 0.06918 0.0
N3713 N 0.84362 0.31832 0.07922 0.0
H3714 H 0.28429 0.2247 0.49466 0.0
H3715 H 0.19044 0.247 0.51445 0.0
H3716 H 0.24866 0.19092 0.51513 0.0
H3717 H 0.22534 0.28275 0.49619 0.0
H3718 H 0.21082 0.2254 0.51039 0.0
H3719 H 0.26224 0.24506 0.49084 0.0
C3720 C 0.27181 0.22146 0.4981 0.0
C3721 C 0.26838 0.20615 0.50544 0.0
C3722 C 0.21403 0.23793 0.5071 0.0
C3723 C 0.24315 0.22938 0.5012 0.0
C3724 C 0.20237 0.2503 0.50943 0.0
C3725 C 0.20624 0.26677 0.50587 0.0
C3726 C 0.22985 0.24198 0.50134 0.0
C3727 C 0.22184 0.27023 0.49916 0.0
C3728 C 0.25925 0.23311 0.49598 0.0
C3729 C 0.25198 0.20264 0.50966 0.0
N3730 N 0.23317 0.25796 0.49733 0.0
N3731 N 0.24006 0.21418 0.50761 0.0
H3732 H 0.22496 0.496 0.28414 0.0
H3733 H 0.24804 0.51572 0.19048 0.0
H3734 H 0.19154 0.51662 0.24826 0.0
H3735 H 0.2835 0.49747 0.22568 0.0
H3736 H 0.22627 0.51173 0.21069 0.0
H3737 H 0.2455 0.49217 0.26226 0.0
C3738 C 0.22183 0.49947 0.27164 0.0
C3739 C 0.20657 0.50684 0.26808 0.0
C3740 C 0.23877 0.50843 0.21401 0.0
C3741 C 0.23 0.50259 0.24305 0.0
C3742 C 0.25124 0.51072 0.20244 0.0
C3743 C 0.26767 0.50714 0.20645 0.0
C3744 C 0.2427 0.50269 0.22986 0.0
C3745 C 0.27101 0.50045 0.22208 0.0
C3746 C 0.23359 0.49734 0.25917 0.0
C3747 C 0.20321 0.51112 0.25166 0.0
N3748 N 0.25865 0.49866 0.23332 0.0
N3749 N 0.21485 0.50906 0.23984 0.0
H3750 H 0.56253 0.88676 0.82896 0.0
H3751 H 0.58164 0.79291 0.85169 0.0
H3752 H 0.5807 0.85159 0.79343 0.0
H3753 H 0.56172 0.82887 0.88543 0.0
H3754 H 0.5856 0.81483 0.83123 0.0
H3755 H 0.56646 0.86648 0.85068 0.0
C3756 C 0.5675 0.8748 0.82574 0.0
C3757 C 0.57106 0.87081 0.80929 0.0
C3758 C 0.58055 0.81793 0.84319 0.0
C3759 C 0.57545 0.84733 0.83421 0.0
C3760 C 0.57836 0.80544 0.8549 0.0
C3761 C 0.57115 0.80901 0.87024 0.0
C3762 C 0.57551 0.83409 0.84688 0.0
C3763 C 0.56709 0.82546 0.8737 0.0
C3764 C 0.56975 0.86319 0.83818 0.0
C3765 C 0.57771 0.85517 0.80593 0.0
N3766 N 0.5692 0.83731 0.8621 0.0
N3767 N 0.57947 0.8439 0.81825 0.0
H3768 H 0.49502 0.2841 0.22452 0.0
H3769 H 0.51466 0.19036 0.24737 0.0
H3770 H 0.51601 0.24842 0.19111 0.0
H3771 H 0.49629 0.22549 0.28284 0.0
H3772 H 0.51073 0.21063 0.22563 0.0
H3773 H 0.49102 0.26212 0.2449 0.0
C3774 C 0.49854 0.27162 0.22136 0.0
C3775 C 0.50606 0.26816 0.20615 0.0
C3776 C 0.50739 0.21391 0.23812 0.0
C3777 C 0.50163 0.243 0.22941 0.0
C3778 C 0.50964 0.20231 0.25058 0.0
C3779 C 0.50602 0.20629 0.26701 0.0
C3780 C 0.50165 0.22976 0.24207 0.0
C3781 C 0.49931 0.22192 0.27035 0.0
C3782 C 0.49632 0.2591 0.23303 0.0
C3783 C 0.51039 0.25176 0.20275 0.0
N3784 N 0.49756 0.23318 0.25801 0.0
N3785 N 0.50824 0.23987 0.21431 0.0
H3786 H 0.79329 0.58066 0.85206 0.0
H3787 H 0.88682 0.56037 0.82881 0.0
H3788 H 0.82886 0.55924 0.88529 0.0
H3789 H 0.85173 0.57923 0.79357 0.0
H3790 H 0.8666 0.56419 0.85062 0.0
H3791 H 0.81523 0.58445 0.83158 0.0
C3792 C 0.80574 0.57701 0.85515 0.0
C3793 C 0.80919 0.56946 0.87035 0.0
C3794 C 0.86332 0.56766 0.83816 0.0
C3795 C 0.83429 0.57363 0.84699 0.0
C3796 C 0.87489 0.56548 0.82567 0.0
C3797 C 0.8709 0.5693 0.80928 0.0
C3798 C 0.8475 0.57356 0.83429 0.0
C3799 C 0.85531 0.57609 0.80603 0.0
C3800 C 0.81824 0.5791 0.84344 0.0
C3801 C 0.82554 0.56491 0.87368 0.0
N3802 N 0.84408 0.5778 0.81839 0.0
N3803 N 0.83741 0.56695 0.86207 0.0
H3804 H 0.82813 0.43982 0.76458 0.0
H3805 H 0.85172 0.53341 0.74524 0.0
H3806 H 0.79283 0.47535 0.74665 0.0
H3807 H 0.88495 0.49725 0.76569 0.0
H3808 H 0.83107 0.51166 0.74129 0.0
H3809 H 0.85002 0.45989 0.76055 0.0
C3810 C 0.82499 0.45183 0.75965 0.0
C3811 C 0.80856 0.45598 0.75618 0.0
C3812 C 0.84297 0.50848 0.74645 0.0
C3813 C 0.83368 0.47921 0.75169 0.0
C3814 C 0.85478 0.52087 0.74865 0.0
C3815 C 0.87002 0.5172 0.75602 0.0
C3816 C 0.84647 0.49232 0.75162 0.0
C3817 C 0.8733 0.50074 0.7602 0.0
C3818 C 0.83753 0.46331 0.75734 0.0
C3819 C 0.80531 0.47165 0.74956 0.0
N3820 N 0.8616 0.48899 0.75808 0.0
N3821 N 0.81773 0.48281 0.74775 0.0
H3822 H 0.28346 0.60216 0.33229 0.0
H3823 H 0.18971 0.57914 0.31291 0.0
H3824 H 0.24753 0.63565 0.31186 0.0
H3825 H 0.2252 0.54353 0.33023 0.0
H3826 H 0.20988 0.60093 0.31708 0.0
H3827 H 0.26159 0.58162 0.33614 0.0
C3828 C 0.27095 0.6053 0.32887 0.0
C3829 C 0.26738 0.62058 0.32153 0.0
C3830 C 0.21327 0.58839 0.32014 0.0
C3831 C 0.24236 0.59715 0.32581 0.0
C3832 C 0.20172 0.57591 0.31776 0.0
C3833 C 0.20583 0.55944 0.32103 0.0
C3834 C 0.22918 0.58442 0.32568 0.0
C3835 C 0.22153 0.55606 0.32752 0.0
C3836 C 0.25849 0.59355 0.33101 0.0
C3837 C 0.25094 0.62396 0.31733 0.0
N3838 N 0.23274 0.56842 0.32942 0.0
N3839 N 0.23912 0.61232 0.3194 0.0
H3840 H 0.18288 0.037 0.46299 0.0
H3841 H 0.11374 0.03854 0.39473 0.0
H3842 H 0.14931 0.9974 0.45176 0.0
H3843 H 0.12559 0.07811 0.42813 0.0
H3844 H 0.13886 0.02415 0.40336 0.0
H3845 H 0.17401 0.05124 0.43788 0.0
C3846 C 0.17431 0.0309 0.45478 0.0
C3847 C 0.16649 0.01623 0.45952 0.0
C3848 C 0.13635 0.03635 0.40816 0.0
C3849 C 0.15648 0.0323 0.43099 0.0
C3850 C 0.12208 0.04459 0.40323 0.0
C3851 C 0.11754 0.05932 0.41104 0.0
C3852 C 0.14609 0.04308 0.42077 0.0
C3853 C 0.12862 0.06661 0.42207 0.0
C3854 C 0.16923 0.03905 0.44051 0.0
C3855 C 0.15537 0.00886 0.44858 0.0
N3856 N 0.14229 0.05826 0.42686 0.0
N3857 N 0.15043 0.01715 0.43492 0.0
H3858 H 0.07968 0.39835 0.70102 0.0
H3859 H 0.99745 0.37541 0.67797 0.0
H3860 H 0.04036 0.43234 0.71192 0.0
H3861 H 0.03677 0.36461 0.64395 0.0
H3862 H 0.01169 0.4006 0.68605 0.0
H3863 H 0.06545 0.39036 0.67578 0.0
C3864 C 0.06837 0.40463 0.69769 0.0
C3865 C 0.06097 0.41574 0.70861 0.0
C3866 C 0.01692 0.39314 0.6763 0.0
C3867 C 0.04427 0.40617 0.68029 0.0
C3868 C 0.00877 0.37875 0.67171 0.0
C3869 C 0.01616 0.36785 0.66056 0.0
C3870 C 0.03287 0.39615 0.67023 0.0
C3871 C 0.0308 0.37267 0.65275 0.0
C3872 C 0.06022 0.40009 0.68327 0.0
C3873 C 0.04634 0.42357 0.70382 0.0
N3874 N 0.03905 0.38619 0.65821 0.0
N3875 N 0.03809 0.41816 0.69028 0.0
H3876 H 0.70161 0.24702 0.92881 0.0
H3877 H 0.67819 0.32898 0.95198 0.0
H3878 H 0.7118 0.28634 0.8946 0.0
H3879 H 0.64437 0.28952 0.9629 0.0
H3880 H 0.68618 0.3148 0.92671 0.0
H3881 H 0.67633 0.26106 0.93703 0.0
C3882 C 0.69812 0.25829 0.92254 0.0
C3883 C 0.70886 0.26574 0.91129 0.0
C3884 C 0.67649 0.30953 0.93422 0.0
C3885 C 0.68049 0.28222 0.92112 0.0
C3886 C 0.67196 0.31764 0.94866 0.0
C3887 C 0.66089 0.3102 0.95959 0.0
C3888 C 0.67046 0.29357 0.93122 0.0
C3889 C 0.65311 0.29553 0.9548 0.0
C3890 C 0.68368 0.26632 0.9272 0.0
C3891 C 0.70385 0.28031 0.90346 0.0
N3892 N 0.65852 0.28732 0.94124 0.0
N3893 N 0.69031 0.28846 0.909 0.0
H3894 H 0.79096 0.96203 0.14226 0.0
H3895 H 0.74644 0.9279 0.20091 0.0
H3896 H 0.82721 0.95172 0.17971 0.0
H3897 H 0.78642 0.89455 0.21133 0.0
H3898 H 0.76027 0.93619 0.17559 0.0
H3899 H 0.77604 0.93699 0.15025 0.0
C3900 C 0.79618 0.95409 0.15165 0.0
C3901 C 0.81003 0.95909 0.16072 0.0
C3902 C 0.76568 0.92643 0.1829 0.0
C3903 C 0.79303 0.93084 0.16998 0.0
C3904 C 0.75778 0.92177 0.19741 0.0
C3905 C 0.76547 0.91076 0.20824 0.0
C3906 C 0.78166 0.92053 0.17966 0.0
C3907 C 0.78019 0.90318 0.20328 0.0
C3908 C 0.7876 0.9399 0.15627 0.0
C3909 C 0.81633 0.94842 0.17272 0.0
N3910 N 0.78819 0.90873 0.18966 0.0
N3911 N 0.80758 0.93492 0.17725 0.0
H3912 H 0.12483 0.24705 0.8979 0.0
H3913 H 0.14845 0.32886 0.87485 0.0
H3914 H 0.11467 0.28626 0.93223 0.0
H3915 H 0.18243 0.28945 0.86425 0.0
H3916 H 0.1403 0.31471 0.90009 0.0
H3917 H 0.15015 0.26105 0.88977 0.0
C3918 C 0.12833 0.25828 0.90421 0.0
C3919 C 0.11759 0.26572 0.91547 0.0
C3920 C 0.15007 0.30945 0.89266 0.0
C3921 C 0.14602 0.28216 0.90576 0.0
C3922 C 0.15468 0.31755 0.87824 0.0
C3923 C 0.16584 0.31011 0.8674 0.0
C3924 C 0.15611 0.29351 0.89573 0.0
C3925 C 0.17363 0.29547 0.87228 0.0
C3926 C 0.1428 0.2663 0.8996 0.0
C3927 C 0.12262 0.28025 0.92335 0.0
N3928 N 0.16813 0.28727 0.88581 0.0
N3929 N 0.13619 0.28839 0.91788 0.0
H3930 H 0.74731 0.39849 0.12556 0.0
H3931 H 0.82975 0.37507 0.1484 0.0
H3932 H 0.78681 0.43226 0.11465 0.0
H3933 H 0.79041 0.36423 0.18238 0.0
H3934 H 0.81547 0.40024 0.14028 0.0
H3935 H 0.76165 0.3902 0.15065 0.0
C3936 C 0.75869 0.40466 0.12886 0.0
C3937 C 0.76608 0.4158 0.11797 0.0
C3938 C 0.81024 0.39277 0.15003 0.0
C3939 C 0.7829 0.40589 0.14612 0.0
C3940 C 0.81842 0.37839 0.15464 0.0
C3941 C 0.81105 0.36751 0.16581 0.0
C3942 C 0.79429 0.39577 0.1561 0.0
C3943 C 0.79638 0.3723 0.17359 0.0
C3944 C 0.7669 0.39995 0.14318 0.0
C3945 C 0.78081 0.42348 0.12273 0.0
N3946 N 0.78811 0.3858 0.16811 0.0
N3947 N 0.78911 0.41791 0.13617 0.0
H3948 H 0.64396 0.03743 0.36316 0.0
H3949 H 0.71257 0.03854 0.43197 0.0
H3950 H 0.67707 0.99757 0.37483 0.0
H3951 H 0.70132 0.07816 0.39841 0.0
H3952 H 0.68738 0.02437 0.42318 0.0
H3953 H 0.65277 0.05169 0.38829 0.0
C3954 C 0.65241 0.03128 0.37148 0.0
C3955 C 0.66011 0.01651 0.36686 0.0
C3956 C 0.69004 0.03654 0.41838 0.0
C3957 C 0.67006 0.03261 0.39541 0.0
C3958 C 0.70435 0.04466 0.4234 0.0
C3959 C 0.70909 0.05933 0.41559 0.0
C3960 C 0.68046 0.04333 0.40569 0.0
C3961 C 0.69814 0.0667 0.40448 0.0
C3962 C 0.65745 0.03945 0.38575 0.0
C3963 C 0.67108 0.00909 0.37792 0.0
N3964 N 0.68443 0.05846 0.3996 0.0
N3965 N 0.676 0.01739 0.39158 0.0
H3966 H 0.03844 0.96333 0.68306 0.0
H3967 H 0.04165 0.89383 0.61528 0.0
H3968 H 0.9991 0.95017 0.64989 0.0
H3969 H 0.08002 0.92906 0.62568 0.0
H3970 H 0.02744 0.90231 0.64053 0.0
H3971 H 0.05348 0.93854 0.67457 0.0
C3972 C 0.03258 0.95475 0.67467 0.0
C3973 C 0.01772 0.95885 0.66685 0.0
C3974 C 0.03938 0.90756 0.63769 0.0
C3975 C 0.03469 0.93068 0.65729 0.0
C3976 C 0.04753 0.90271 0.62334 0.0
C3977 C 0.06179 0.91108 0.61831 0.0
C3978 C 0.04575 0.92064 0.64702 0.0
C3979 C 0.06886 0.92257 0.62907 0.0
C3980 C 0.04119 0.94067 0.66981 0.0
C3981 C 0.01068 0.94748 0.65596 0.0
N3982 N 0.06059 0.92727 0.64282 0.0
N3983 N 0.01939 0.93401 0.65124 0.0
H3984 H 0.39255 0.11432 0.04036 0.0
H3985 H 0.45121 0.14919 0.99597 0.0
H3986 H 0.42974 0.12453 0.07691 0.0
H3987 H 0.46153 0.18205 0.03637 0.0
H3988 H 0.42604 0.14045 0.00981 0.0
H3989 H 0.40073 0.13933 0.0255 0.0
C3990 C 0.40192 0.12222 0.04565 0.0
C3991 C 0.41085 0.11721 0.05959 0.0
C3992 C 0.43329 0.1502 0.01533 0.0
C3993 C 0.42034 0.14543 0.04264 0.0
C3994 C 0.44771 0.15513 0.00741 0.0
C3995 C 0.45846 0.16615 0.01519 0.0
C3996 C 0.43006 0.15587 0.03139 0.0
C3997 C 0.45352 0.17344 0.03005 0.0
C3998 C 0.40667 0.13639 0.03709 0.0
C3999 C 0.42285 0.12784 0.06596 0.0
N4000 N 0.43999 0.16765 0.03804 0.0
N4001 N 0.42749 0.14132 0.05725 0.0
H4002 H 0.92829 0.70138 0.24789 0.0
H4003 H 0.95126 0.67846 0.3299 0.0
H4004 H 0.8941 0.71219 0.28706 0.0
H4005 H 0.96173 0.64413 0.29076 0.0
H4006 H 0.926 0.68652 0.31574 0.0
H4007 H 0.93624 0.67613 0.26212 0.0
C4008 C 0.92197 0.69803 0.25917 0.0
C4009 C 0.91081 0.70893 0.26652 0.0
C4010 C 0.93341 0.6767 0.31054 0.0
C4011 C 0.92032 0.68059 0.28322 0.0
C4012 C 0.94784 0.67213 0.31865 0.0
C4013 C 0.95865 0.66091 0.31127 0.0
C4014 C 0.93031 0.67054 0.29465 0.0
C4015 C 0.95373 0.65299 0.29672 0.0
C4016 C 0.92647 0.68361 0.26732 0.0
C4017 C 0.90291 0.70411 0.28112 0.0
N4018 N 0.94019 0.65844 0.2885 0.0
N4019 N 0.90829 0.69057 0.28937 0.0
H4020 H 0.37608 0.17792 0.49687 0.0
H4021 H 0.39817 0.20248 0.57901 0.0
H4022 H 0.36504 0.14452 0.53665 0.0
H4023 H 0.43264 0.2127 0.53993 0.0
H4024 H 0.39022 0.17709 0.56503 0.0
H4025 H 0.40107 0.18641 0.51126 0.0
C4026 C 0.37934 0.17187 0.50833 0.0
C4027 C 0.36843 0.16078 0.51578 0.0
C4028 C 0.40003 0.18448 0.5598 0.0
C4029 C 0.39646 0.17093 0.53265 0.0
C4030 C 0.40454 0.19898 0.56781 0.0
C4031 C 0.4158 0.20975 0.56041 0.0
C4032 C 0.4063 0.18122 0.54399 0.0
C4033 C 0.42376 0.20473 0.54591 0.0
C4034 C 0.39361 0.17669 0.51657 0.0
C4035 C 0.37313 0.15325 0.53061 0.0
N4036 N 0.41839 0.1911 0.53779 0.0
N4037 N 0.38651 0.15895 0.53892 0.0
H4038 H 0.89903 0.62456 0.74753 0.0
H4039 H 0.87604 0.64811 0.82995 0.0
H4040 H 0.93265 0.61335 0.78708 0.0
H4041 H 0.86536 0.68182 0.79033 0.0
H4042 H 0.90114 0.63971 0.81571 0.0
H4043 H 0.89107 0.6498 0.76177 0.0
C4044 C 0.90523 0.62782 0.7589 0.0
C4045 C 0.91625 0.61682 0.76634 0.0
C4046 C 0.89373 0.64946 0.81041 0.0
C4047 C 0.9067 0.64516 0.78305 0.0
C4048 C 0.8794 0.65424 0.81856 0.0
C4049 C 0.86855 0.66539 0.8111 0.0
C4050 C 0.89673 0.65535 0.79439 0.0
C4051 C 0.87339 0.67303 0.79637 0.0
C4052 C 0.90071 0.64224 0.76706 0.0
C4053 C 0.92398 0.62152 0.78106 0.0
N4054 N 0.88683 0.66739 0.78813 0.0
N4055 N 0.91858 0.63507 0.7893 0.0
H4056 H 0.45149 0.1783 0.32937 0.0
H4057 H 0.42845 0.20198 0.24734 0.0
H4058 H 0.46235 0.14464 0.28976 0.0
H4059 H 0.39441 0.21243 0.28674 0.0
H4060 H 0.43654 0.17667 0.26138 0.0
H4061 H 0.42625 0.18642 0.31521 0.0
C4062 C 0.44814 0.17211 0.31801 0.0
C4063 C 0.45906 0.16106 0.31052 0.0
C4064 C 0.42678 0.18408 0.26667 0.0
C4065 C 0.43074 0.1708 0.2939 0.0
C4066 C 0.42219 0.19854 0.25863 0.0
C4067 C 0.41103 0.20937 0.2661 0.0
C4068 C 0.42071 0.18093 0.28258 0.0
C4069 C 0.40321 0.20442 0.2807 0.0
C4070 C 0.43373 0.17673 0.3099 0.0
C4071 C 0.45425 0.15335 0.29582 0.0
N4072 N 0.40867 0.19084 0.28884 0.0
N4073 N 0.44073 0.15885 0.28761 0.0
H4074 H 0.86528 0.64395 0.53589 0.0
H4075 H 0.9331 0.71342 0.53859 0.0
H4076 H 0.87657 0.67807 0.49677 0.0
H4077 H 0.89942 0.70101 0.57774 0.0
H4078 H 0.92483 0.68833 0.52393 0.0
H4079 H 0.89032 0.65271 0.55034 0.0
C4080 C 0.8735 0.65263 0.52992 0.0
C4081 C 0.86878 0.66063 0.51535 0.0
C4082 C 0.91989 0.69071 0.53611 0.0
C4083 C 0.89722 0.67051 0.53166 0.0
C4084 C 0.92462 0.70496 0.5445 0.0
C4085 C 0.91661 0.70935 0.55918 0.0
C4086 C 0.9073 0.68084 0.54264 0.0
C4087 C 0.90562 0.69811 0.56628 0.0
C4088 C 0.88772 0.65764 0.5382 0.0
C4089 C 0.87973 0.67187 0.50816 0.0
N4090 N 0.90103 0.68447 0.55778 0.0
N4091 N 0.89333 0.67674 0.51657 0.0
H4092 H 0.43237 0.11284 0.78833 0.0
H4093 H 0.36471 0.18253 0.7905 0.0
H4094 H 0.39825 0.12461 0.74935 0.0
H4095 H 0.37646 0.14931 0.83024 0.0
H4096 H 0.38951 0.17338 0.77591 0.0
H4097 H 0.42425 0.13817 0.80266 0.0
C4098 C 0.42381 0.12119 0.78238 0.0
C4099 C 0.41565 0.11658 0.76785 0.0
C4100 C 0.38708 0.16874 0.7882 0.0
C4101 C 0.40652 0.14537 0.78401 0.0
C4102 C 0.373 0.17399 0.79656 0.0
C4103 C 0.36846 0.16634 0.81138 0.0
C4104 C 0.39663 0.15598 0.79489 0.0
C4105 C 0.37948 0.15525 0.81867 0.0
C4106 C 0.41917 0.13558 0.79058 0.0
C4107 C 0.40457 0.12769 0.76069 0.0
N4108 N 0.39295 0.15012 0.81019 0.0
N4109 N 0.40008 0.14148 0.76901 0.0
H4110 H 0.95055 0.64841 0.99726 0.0
H4111 H 0.92858 0.62449 0.07933 0.0
H4112 H 0.96144 0.68225 0.0367 0.0
H4113 H 0.89398 0.61402 0.04043 0.0
H4114 H 0.93635 0.64988 0.06525 0.0
H4115 H 0.92547 0.64013 0.01162 0.0
C4116 C 0.94724 0.6546 0.00863 0.0
C4117 C 0.95813 0.66574 0.01602 0.0
C4118 C 0.92654 0.64244 0.06009 0.0
C4119 C 0.93001 0.65584 0.03286 0.0
C4120 C 0.92215 0.62793 0.06815 0.0
C4121 C 0.91091 0.61709 0.06082 0.0
C4122 C 0.9202 0.64562 0.04429 0.0
C4123 C 0.90285 0.62205 0.04635 0.0
C4124 C 0.93292 0.6499 0.01685 0.0
C4125 C 0.95337 0.67346 0.03073 0.0
N4126 N 0.90813 0.63568 0.03817 0.0
N4127 N 0.93995 0.66788 0.03904 0.0
H4128 H 0.03528 0.46157 0.18424 0.0
H4129 H 0.08012 0.4279 0.12547 0.0
H4130 H 0.99927 0.45189 0.1464 0.0
H4131 H 0.04017 0.39468 0.11458 0.0
H4132 H 0.06609 0.43614 0.1507 0.0
H4133 H 0.05017 0.43659 0.17603 0.0
C4134 C 0.0301 0.45378 0.17472 0.0
C4135 C 0.01634 0.45895 0.16561 0.0
C4136 C 0.06072 0.42642 0.1433 0.0
C4137 C 0.03331 0.43076 0.15611 0.0
C4138 C 0.06874 0.42179 0.12884 0.0
C4139 C 0.06113 0.41082 0.11792 0.0
C4140 C 0.04472 0.42052 0.14639 0.0
C4141 C 0.04634 0.40328 0.12271 0.0
C4142 C 0.03867 0.43963 0.16997 0.0
C4143 C 0.01009 0.44846 0.15342 0.0
N4144 N 0.03824 0.40879 0.13629 0.0
N4145 N 0.01882 0.43499 0.14878 0.0
H4146 H 0.53988 0.43319 0.21259 0.0
H4147 H 0.53725 0.36434 0.14405 0.0
H4148 H 0.57921 0.39951 0.20074 0.0
H4149 H 0.49813 0.37613 0.178 0.0
H4150 H 0.55181 0.38938 0.15262 0.0
H4151 H 0.52528 0.42445 0.18764 0.0
C4152 C 0.54585 0.42463 0.20426 0.0
C4153 C 0.56056 0.41675 0.2088 0.0
C4154 C 0.53966 0.38688 0.15756 0.0
C4155 C 0.54407 0.40687 0.18044 0.0
C4156 C 0.53131 0.37266 0.15265 0.0
C4157 C 0.51667 0.3681 0.16063 0.0
C4158 C 0.53312 0.39657 0.1703 0.0
C4159 C 0.50955 0.37917 0.17179 0.0
C4160 C 0.53748 0.41961 0.19009 0.0
C4161 C 0.56774 0.40563 0.19772 0.0
N4162 N 0.518 0.39279 0.17655 0.0
N4163 N 0.55925 0.40076 0.18416 0.0
H4164 H 0.67841 0.82906 0.45158 0.0
H4165 H 0.70164 0.74728 0.4282 0.0
H4166 H 0.64426 0.78976 0.46203 0.0
H4167 H 0.71201 0.78659 0.39405 0.0
H4168 H 0.67635 0.76134 0.43633 0.0
H4169 H 0.68644 0.81501 0.42625 0.0
C4170 C 0.67211 0.8178 0.44814 0.0
C4171 C 0.66094 0.81035 0.45896 0.0
C4172 C 0.68374 0.7666 0.42653 0.0
C4173 C 0.67055 0.79386 0.43053 0.0
C4174 C 0.69818 0.75855 0.42192 0.0
C4175 C 0.70898 0.76599 0.41072 0.0
C4176 C 0.68059 0.78251 0.42044 0.0
C4177 C 0.70401 0.78058 0.40288 0.0
C4178 C 0.67666 0.80976 0.43367 0.0
C4179 C 0.65307 0.79578 0.45401 0.0
N4180 N 0.69046 0.78874 0.40837 0.0
N4181 N 0.65851 0.78762 0.44044 0.0
H4182 H 0.3295 0.95255 0.67898 0.0
H4183 H 0.28486 0.89314 0.7121 0.0
H4184 H 0.28976 0.96302 0.64536 0.0
H4185 H 0.24826 0.93025 0.70179 0.0
H4186 H 0.30008 0.90175 0.68746 0.0
H4187 H 0.31558 0.92725 0.68719 0.0
C4188 C 0.31819 0.94909 0.67279 0.0
C4189 C 0.31061 0.9599 0.66169 0.0
C4190 C 0.2884 0.90756 0.69028 0.0
C4191 C 0.29434 0.93131 0.67132 0.0
C4192 C 0.27963 0.90257 0.70423 0.0
C4193 C 0.26557 0.91136 0.70914 0.0
C4194 C 0.28294 0.92135 0.68135 0.0
C4195 C 0.25929 0.92346 0.69856 0.0
C4196 C 0.31024 0.93458 0.6774 0.0
C4197 C 0.29592 0.95497 0.65404 0.0
N4198 N 0.26821 0.92835 0.6853 0.0
N4199 N 0.28788 0.94134 0.65951 0.0
H4200 H 0.62532 0.57938 0.42739 0.0
H4201 H 0.64867 0.49731 0.45077 0.0
H4202 H 0.61428 0.53985 0.39369 0.0
H4203 H 0.68277 0.53671 0.46096 0.0
H4204 H 0.64033 0.51137 0.42554 0.0
H4205 H 0.65058 0.56517 0.43538 0.0
C4206 C 0.62862 0.56802 0.42118 0.0
C4207 C 0.61765 0.56058 0.41014 0.0
C4208 C 0.65017 0.51665 0.43287 0.0
C4209 C 0.64602 0.54392 0.41971 0.0
C4210 C 0.65491 0.50859 0.44727 0.0
C4211 C 0.66615 0.51606 0.45801 0.0
C4212 C 0.65618 0.53258 0.42971 0.0
C4213 C 0.67391 0.53067 0.45301 0.0
C4214 C 0.64305 0.55989 0.42571 0.0
C4215 C 0.62241 0.54588 0.40239 0.0
N4216 N 0.6683 0.53883 0.4395 0.0
N4217 N 0.63597 0.53766 0.4078 0.0
H4218 H 0.2894 0.86369 0.18301 0.0
H4219 H 0.28705 0.9324 0.11446 0.0
H4220 H 0.32841 0.8752 0.14885 0.0
H4221 H 0.24765 0.89888 0.1265 0.0
H4222 H 0.3016 0.92382 0.1395 0.0
H4223 H 0.27507 0.88895 0.17468 0.0
C4224 C 0.29536 0.87199 0.17441 0.0
C4225 C 0.30987 0.86729 0.16627 0.0
C4226 C 0.28938 0.919 0.13706 0.0
C4227 C 0.29371 0.89599 0.1569 0.0
C4228 C 0.28105 0.92391 0.12284 0.0
C4229 C 0.26635 0.91601 0.11835 0.0
C4230 C 0.28277 0.90632 0.14679 0.0
C4231 C 0.25913 0.905 0.12949 0.0
C4232 C 0.28716 0.88634 0.16965 0.0
C4233 C 0.31706 0.87833 0.15514 0.0
N4234 N 0.26758 0.90022 0.1431 0.0
N4235 N 0.30874 0.89208 0.15052 0.0
H4236 H 0.95198 0.9961 0.64786 0.0
H4237 H 0.92766 0.07814 0.62542 0.0
H4238 H 0.96143 0.03516 0.68258 0.0
H4239 H 0.89444 0.03838 0.6138 0.0
H4240 H 0.93573 0.06372 0.65054 0.0
H4241 H 0.92665 0.00998 0.63952 0.0
C4242 C 0.94831 0.00727 0.6542 0.0
C4243 C 0.95887 0.01471 0.66564 0.0
C4244 C 0.92614 0.05842 0.64291 0.0
C4245 C 0.93043 0.03101 0.6557 0.0
C4246 C 0.92156 0.06668 0.62857 0.0
C4247 C 0.91063 0.05924 0.61748 0.0
C4248 C 0.92032 0.04235 0.64566 0.0
C4249 C 0.90304 0.0444 0.62204 0.0
C4250 C 0.93385 0.01521 0.64947 0.0
C4251 C 0.95363 0.02915 0.67356 0.0
N4252 N 0.90851 0.03608 0.6355 0.0
N4253 N 0.94006 0.03722 0.66797 0.0
H4254 H 0.07946 0.7019 0.39855 0.0
H4255 H 0.99735 0.6786 0.37568 0.0
H4256 H 0.04024 0.71253 0.43273 0.0
H4257 H 0.03667 0.64456 0.36496 0.0
H4258 H 0.0116 0.68677 0.40085 0.0
H4259 H 0.06529 0.67664 0.39052 0.0
C4260 C 0.06819 0.69851 0.40485 0.0
C4261 C 0.0608 0.70937 0.41603 0.0
C4262 C 0.01683 0.67699 0.39341 0.0
C4263 C 0.04417 0.68101 0.40643 0.0
C4264 C 0.00867 0.67236 0.37904 0.0
C4265 C 0.01605 0.66117 0.36818 0.0
C4266 C 0.03277 0.67093 0.39643 0.0
C4267 C 0.0307 0.65338 0.37301 0.0
C4268 C 0.06008 0.68408 0.4003 0.0
C4269 C 0.04621 0.70449 0.42391 0.0
N4270 N 0.03896 0.65888 0.3865 0.0
N4271 N 0.03799 0.69094 0.41848 0.0
H4272 H 0.37496 0.82968 0.14902 0.0
H4273 H 0.4339 0.78533 0.11482 0.0
H4274 H 0.36428 0.78935 0.18185 0.0
H4275 H 0.39635 0.74898 0.12437 0.0
H4276 H 0.42558 0.80005 0.13987 0.0
H4277 H 0.40021 0.81582 0.14057 0.0
C4278 C 0.37838 0.81825 0.15501 0.0
C4279 C 0.36752 0.81049 0.16593 0.0
C4280 C 0.41961 0.78852 0.13678 0.0
C4281 C 0.39602 0.79428 0.15598 0.0
C4282 C 0.42442 0.78004 0.12259 0.0
C4283 C 0.41543 0.76622 0.11737 0.0
C4284 C 0.40579 0.783 0.14563 0.0
C4285 C 0.40329 0.75984 0.12784 0.0
C4286 C 0.39286 0.81033 0.15026 0.0
C4287 C 0.37238 0.79564 0.17331 0.0
N4288 N 0.39858 0.76848 0.14134 0.0
N4289 N 0.38597 0.78764 0.16767 0.0
H4290 H 0.24732 0.12455 0.89841 0.0
H4291 H 0.32977 0.14839 0.87627 0.0
H4292 H 0.28634 0.11389 0.93283 0.0
H4293 H 0.29032 0.18224 0.8654 0.0
H4294 H 0.31527 0.13989 0.90119 0.0
H4295 H 0.2616 0.14976 0.89041 0.0
C4296 C 0.25858 0.12791 0.90475 0.0
C4297 C 0.26586 0.11707 0.91603 0.0
C4298 C 0.31007 0.1497 0.89378 0.0
C4299 C 0.28261 0.1454 0.90648 0.0
C4300 C 0.31837 0.15453 0.87955 0.0
C4301 C 0.31103 0.16576 0.86871 0.0
C4302 C 0.29404 0.1556 0.89666 0.0
C4303 C 0.29627 0.1734 0.87344 0.0
C4304 C 0.26675 0.14232 0.90022 0.0
C4305 C 0.28044 0.12192 0.92395 0.0
N4306 N 0.28789 0.1677 0.88677 0.0
N4307 N 0.28871 0.13545 0.91856 0.0
H4308 H 0.95083 0.82906 0.17794 0.0
H4309 H 0.92854 0.74716 0.20179 0.0
H4310 H 0.96169 0.78961 0.14408 0.0
H4311 H 0.89396 0.78614 0.21203 0.0
H4312 H 0.93642 0.76116 0.17639 0.0
H4313 H 0.92567 0.81479 0.1861 0.0
C4314 C 0.94751 0.81771 0.17172 0.0
C4315 C 0.95842 0.81029 0.16061 0.0
C4316 C 0.92659 0.76636 0.18378 0.0
C4317 C 0.93018 0.79356 0.17038 0.0
C4318 C 0.92213 0.75834 0.1983 0.0
C4319 C 0.91087 0.76572 0.20908 0.0
C4320 C 0.92029 0.78216 0.18055 0.0
C4321 C 0.90284 0.78018 0.20405 0.0
C4322 C 0.93314 0.80955 0.17635 0.0
C4323 C 0.95362 0.79561 0.15285 0.0
N4324 N 0.90818 0.78832 0.19043 0.0
N4325 N 0.94014 0.78735 0.15836 0.0
H4326 H 0.24703 0.7016 0.9284 0.0
H4327 H 0.32921 0.67868 0.95118 0.0
H4328 H 0.28617 0.71244 0.89418 0.0
H4329 H 0.29007 0.64443 0.96186 0.0
H4330 H 0.31493 0.68677 0.926 0.0
H4331 H 0.2613 0.67638 0.93636 0.0
C4332 C 0.25831 0.69827 0.92207 0.0
C4333 C 0.26564 0.70917 0.9109 0.0
C4334 C 0.30975 0.67696 0.93343 0.0
C4335 C 0.28239 0.68086 0.92043 0.0
C4336 C 0.31793 0.67238 0.94781 0.0
C4337 C 0.3106 0.66116 0.95867 0.0
C4338 C 0.29384 0.67083 0.93041 0.0
C4339 C 0.296 0.65328 0.95382 0.0
C4340 C 0.26648 0.68386 0.92658 0.0
C4341 C 0.28024 0.70436 0.903 0.0
N4342 N 0.28772 0.65874 0.94033 0.0
N4343 N 0.28851 0.69083 0.90839 0.0
H4344 H 0.36353 0.03859 0.64451 0.0
H4345 H 0.43239 0.03956 0.71294 0.0
H4346 H 0.37596 0.99841 0.67695 0.0
H4347 H 0.39821 0.07881 0.7023 0.0
H4348 H 0.42399 0.02574 0.68743 0.0
H4349 H 0.38858 0.05302 0.65328 0.0
C4350 C 0.37201 0.03241 0.65278 0.0
C4351 C 0.36762 0.0175 0.66034 0.0
C4352 C 0.41896 0.03778 0.69029 0.0
C4353 C 0.39606 0.03379 0.67026 0.0
C4354 C 0.42376 0.04569 0.70479 0.0
C4355 C 0.41565 0.06012 0.70979 0.0
C4356 C 0.40618 0.04452 0.6808 0.0
C4357 C 0.40449 0.06753 0.69892 0.0
C4358 C 0.38623 0.04068 0.65781 0.0
C4359 C 0.37887 0.01005 0.67109 0.0
N4360 N 0.39982 0.05947 0.68503 0.0
N4361 N 0.39247 0.01844 0.676 0.0
H4362 H 0.08 0.12503 0.4285 0.0
H4363 H 0.99779 0.14788 0.45191 0.0
H4364 H 0.04068 0.11471 0.39433 0.0
H4365 H 0.03703 0.18194 0.46286 0.0
H4366 H 0.01208 0.13992 0.42669 0.0
H4367 H 0.06577 0.15013 0.43691 0.0
C4368 C 0.0687 0.12847 0.42227 0.0
C4369 C 0.06131 0.11773 0.41098 0.0
C4370 C 0.01728 0.14965 0.4342 0.0
C4371 C 0.0446 0.14589 0.42103 0.0
C4372 C 0.0091 0.15417 0.4486 0.0
C4373 C 0.01644 0.16532 0.45953 0.0
C4374 C 0.0332 0.15579 0.43121 0.0
C4375 C 0.03108 0.17316 0.45476 0.0
C4376 C 0.06055 0.1428 0.42705 0.0
C4377 C 0.04667 0.12267 0.40322 0.0
N4378 N 0.03936 0.16777 0.44123 0.0
N4379 N 0.03842 0.1361 0.40887 0.0
H4380 H 0.61511 0.89309 0.04086 0.0
H4381 H 0.6487 0.95262 0.99692 0.0
H4382 H 0.62505 0.93001 0.07775 0.0
H4383 H 0.68182 0.96304 0.03709 0.0
H4384 H 0.64047 0.9272 0.0106 0.0
H4385 H 0.63997 0.90169 0.026 0.0
C4386 C 0.62294 0.90247 0.04624 0.0
C4387 C 0.61787 0.91123 0.06026 0.0
C4388 C 0.65016 0.93454 0.0161 0.0
C4389 C 0.64591 0.92121 0.0433 0.0
C4390 C 0.65479 0.94911 0.00828 0.0
C4391 C 0.66574 0.95994 0.01604 0.0
C4392 C 0.65606 0.93122 0.03206 0.0
C4393 C 0.67325 0.95497 0.03079 0.0
C4394 C 0.63702 0.90746 0.03767 0.0
C4395 C 0.62841 0.92326 0.06674 0.0
N4396 N 0.66775 0.94127 0.03869 0.0
N4397 N 0.64179 0.92815 0.05801 0.0
H4398 H 0.12554 0.39788 0.7469 0.0
H4399 H 0.149 0.37479 0.82891 0.0
H4400 H 0.11521 0.432 0.78625 0.0
H4401 H 0.18271 0.36379 0.78939 0.0
H4402 H 0.14101 0.40006 0.81474 0.0
H4403 H 0.15082 0.38971 0.76094 0.0
C4404 C 0.129 0.40413 0.75818 0.0
C4405 C 0.11821 0.41534 0.76564 0.0
C4406 C 0.15068 0.39253 0.80945 0.0
C4407 C 0.14661 0.40558 0.78213 0.0
C4408 C 0.15522 0.3781 0.81756 0.0
C4409 C 0.16625 0.36715 0.8101 0.0
C4410 C 0.15667 0.39551 0.79347 0.0
C4411 C 0.17401 0.37192 0.79542 0.0
C4412 C 0.14344 0.39951 0.76622 0.0
C4413 C 0.12319 0.42316 0.78023 0.0
N4414 N 0.16859 0.38547 0.78721 0.0
N4415 N 0.13675 0.41766 0.78837 0.0
H4416 H 0.71269 0.93205 0.54001 0.0
H4417 H 0.64453 0.86283 0.5379 0.0
H4418 H 0.70115 0.89847 0.57951 0.0
H4419 H 0.67816 0.87478 0.49856 0.0
H4420 H 0.65302 0.88795 0.55238 0.0
H4421 H 0.6877 0.92316 0.52555 0.0
C4422 C 0.70443 0.92347 0.54604 0.0
C4423 C 0.70905 0.91566 0.56075 0.0
C4424 C 0.6579 0.88546 0.5402 0.0
C4425 C 0.68067 0.90562 0.54443 0.0
C4426 C 0.65305 0.8712 0.53191 0.0
C4427 C 0.66097 0.86667 0.51723 0.0
C4428 C 0.67054 0.89522 0.53356 0.0
C4429 C 0.67202 0.87779 0.51002 0.0
C4430 C 0.69024 0.91838 0.53776 0.0
C4431 C 0.69806 0.90453 0.56803 0.0
N4432 N 0.67673 0.89146 0.51842 0.0
N4433 N 0.68448 0.89957 0.55962 0.0
H4434 H 0.21231 0.39427 0.28688 0.0
H4435 H 0.14392 0.46326 0.28932 0.0
H4436 H 0.20068 0.42804 0.24757 0.0
H4437 H 0.1777 0.4514 0.32856 0.0
H4438 H 0.15248 0.4382 0.27479 0.0
H4439 H 0.18733 0.40306 0.30141 0.0
C4440 C 0.20403 0.40287 0.2809 0.0
C4441 C 0.20862 0.41075 0.26622 0.0
C4442 C 0.15738 0.44069 0.28696 0.0
C4443 C 0.18024 0.42068 0.28262 0.0
C4444 C 0.15248 0.45493 0.29528 0.0
C4445 C 0.16043 0.45947 0.30994 0.0
C4446 C 0.17008 0.43098 0.29354 0.0
C4447 C 0.17153 0.44838 0.31711 0.0
C4448 C 0.18984 0.40791 0.28922 0.0
C4449 C 0.19761 0.42192 0.25902 0.0
N4450 N 0.17628 0.43475 0.30868 0.0
N4451 N 0.18403 0.42681 0.26746 0.0
H4452 H 0.68291 0.86293 0.78835 0.0
H4453 H 0.61486 0.93227 0.78655 0.0
H4454 H 0.64974 0.87518 0.82799 0.0
H4455 H 0.62583 0.89829 0.74722 0.0
H4456 H 0.64 0.92344 0.80077 0.0
H4457 H 0.67433 0.888 0.77383 0.0
C4458 C 0.67449 0.87136 0.79439 0.0
C4459 C 0.66672 0.86694 0.80918 0.0
C4460 C 0.63731 0.91856 0.78864 0.0
C4461 C 0.65703 0.89541 0.79279 0.0
C4462 C 0.62303 0.92361 0.78049 0.0
C4463 C 0.6182 0.91568 0.76591 0.0
C4464 C 0.64677 0.90572 0.78196 0.0
C4465 C 0.62907 0.90445 0.75861 0.0
C4466 C 0.66958 0.88559 0.78607 0.0
C4467 C 0.65578 0.87812 0.81645 0.0
N4468 N 0.64275 0.89954 0.76688 0.0
N4469 N 0.65101 0.89175 0.80802 0.0
H4470 H 0.17818 0.37434 0.49762 0.0
H4471 H 0.20076 0.39778 0.57966 0.0
H4472 H 0.14389 0.36358 0.53672 0.0
H4473 H 0.21119 0.43199 0.54041 0.0
H4474 H 0.17563 0.38948 0.56542 0.0
H4475 H 0.18602 0.39966 0.5118 0.0
C4476 C 0.17182 0.3777 0.50888 0.0
C4477 C 0.16066 0.3668 0.51623 0.0
C4478 C 0.18299 0.39932 0.56021 0.0
C4479 C 0.17003 0.39523 0.53286 0.0
C4480 C 0.19734 0.40403 0.56837 0.0
C4481 C 0.20812 0.4153 0.56099 0.0
C4482 C 0.17992 0.40538 0.54428 0.0
C4483 C 0.20321 0.4231 0.54638 0.0
C4484 C 0.17626 0.39217 0.51699 0.0
C4485 C 0.15271 0.37165 0.53078 0.0
N4486 N 0.18975 0.41752 0.53812 0.0
N4487 N 0.15802 0.38524 0.53901 0.0
H4488 H 0.67747 0.95171 0.32861 0.0
H4489 H 0.70144 0.92837 0.24671 0.0
H4490 H 0.64401 0.96249 0.28881 0.0
H4491 H 0.7118 0.89453 0.2863 0.0
H4492 H 0.67608 0.93652 0.26064 0.0
H4493 H 0.68565 0.92643 0.31457 0.0
C4494 C 0.67135 0.94835 0.31722 0.0
C4495 C 0.66034 0.95926 0.30965 0.0
C4496 C 0.68349 0.92679 0.266 0.0
C4497 C 0.67013 0.93088 0.29317 0.0
C4498 C 0.69798 0.92217 0.25802 0.0
C4499 C 0.70877 0.91104 0.26558 0.0
C4500 C 0.6803 0.92079 0.28193 0.0
C4501 C 0.7038 0.9033 0.2802 0.0
C4502 C 0.67599 0.93391 0.30918 0.0
C4503 C 0.6527 0.95441 0.29492 0.0
N4504 N 0.6902 0.9088 0.28828 0.0
N4505 N 0.65822 0.94085 0.28679 0.0
H4506 H 0.11473 0.39427 0.03985 0.0
H4507 H 0.18284 0.46354 0.03751 0.0
H4508 H 0.12628 0.42798 0.07924 0.0
H4509 H 0.14895 0.45173 0.99834 0.0
H4510 H 0.17443 0.43839 0.05196 0.0
H4511 H 0.13967 0.40319 0.02532 0.0
C4512 C 0.12299 0.40288 0.04585 0.0
C4513 C 0.11838 0.41071 0.06055 0.0
C4514 C 0.16947 0.44091 0.03982 0.0
C4515 C 0.14671 0.42079 0.04414 0.0
C4516 C 0.17428 0.4552 0.03154 0.0
C4517 C 0.16626 0.45978 0.01692 0.0
C4518 C 0.15679 0.43118 0.03323 0.0
C4519 C 0.15517 0.44868 0.00975 0.0
C4520 C 0.13715 0.40799 0.03752 0.0
C4521 C 0.12936 0.42189 0.06777 0.0
N4522 N 0.15051 0.43499 0.01814 0.0
N4523 N 0.14291 0.42686 0.05933 0.0
H4524 H 0.03846 0.61287 0.89431 0.0
H4525 H 0.03642 0.68202 0.96257 0.0
H4526 H 0.07802 0.62508 0.92758 0.0
H4527 H 0.99701 0.64829 0.95118 0.0
H4528 H 0.0508 0.67319 0.93751 0.0
H4529 H 0.02388 0.63789 0.90295 0.0
C4530 C 0.04447 0.62128 0.90277 0.0
C4531 C 0.05925 0.61685 0.91055 0.0
C4532 C 0.03863 0.66836 0.9401 0.0
C4533 C 0.04281 0.64528 0.9203 0.0
C4534 C 0.03039 0.67341 0.95433 0.0
C4535 C 0.01572 0.66556 0.95901 0.0
C4536 C 0.03196 0.65558 0.93055 0.0
C4537 C 0.00846 0.65439 0.94805 0.0
C4538 C 0.03612 0.63548 0.90772 0.0
C4539 C 0.06649 0.62801 0.92154 0.0
N4540 N 0.01682 0.64947 0.93443 0.0
N4541 N 0.05803 0.64162 0.92634 0.0
H4542 H 0.49664 0.67814 0.87548 0.0
H4543 H 0.54131 0.71193 0.93421 0.0
H4544 H 0.53652 0.64473 0.86487 0.0
H4545 H 0.57755 0.70167 0.89673 0.0
H4546 H 0.52634 0.68696 0.92612 0.0
H4547 H 0.51055 0.68634 0.90079 0.0
C4548 C 0.50798 0.67198 0.87893 0.0
C4549 C 0.51561 0.66097 0.86806 0.0
C4550 C 0.5379 0.68987 0.92011 0.0
C4551 C 0.53189 0.67063 0.89663 0.0
C4552 C 0.54652 0.70401 0.9248 0.0
C4553 C 0.56038 0.70902 0.91574 0.0
C4554 C 0.5433 0.68085 0.90636 0.0
C4555 C 0.56666 0.69837 0.90371 0.0
C4556 C 0.51593 0.67658 0.89343 0.0
C4557 C 0.53033 0.65336 0.87295 0.0
N4558 N 0.55787 0.68492 0.89912 0.0
N4559 N 0.53837 0.65885 0.88658 0.0
H4560 H 0.37519 0.32948 0.64863 0.0
H4561 H 0.39904 0.24786 0.625 0.0
H4562 H 0.36497 0.28984 0.68244 0.0
H4563 H 0.43266 0.28756 0.6144 0.0
H4564 H 0.39097 0.26178 0.65038 0.0
H4565 H 0.40062 0.31567 0.6405 0.0
C4566 C 0.37871 0.31819 0.65484 0.0
C4567 C 0.36792 0.31058 0.66593 0.0
C4568 C 0.40064 0.26716 0.64292 0.0
C4569 C 0.39646 0.29435 0.6562 0.0
C4570 C 0.40522 0.25919 0.62842 0.0
C4571 C 0.41625 0.26678 0.61755 0.0
C4572 C 0.40658 0.28313 0.64605 0.0
C4573 C 0.42396 0.28144 0.62247 0.0
C4574 C 0.39323 0.31028 0.65023 0.0
C4575 C 0.37296 0.29599 0.67369 0.0
N4576 N 0.4185 0.28951 0.63608 0.0
N4577 N 0.38659 0.28796 0.6682 0.0
H4578 H 0.74707 0.1246 0.39887 0.0
H4579 H 0.82915 0.14765 0.37529 0.0
H4580 H 0.78661 0.11377 0.43262 0.0
H4581 H 0.78981 0.18177 0.36486 0.0
H4582 H 0.81503 0.13947 0.40053 0.0
H4583 H 0.76125 0.14981 0.39072 0.0
C4584 C 0.75841 0.12794 0.40507 0.0
C4585 C 0.76588 0.11704 0.41616 0.0
C4586 C 0.80977 0.14926 0.39314 0.0
C4587 C 0.78252 0.14533 0.4064 0.0
C4588 C 0.81785 0.1539 0.37872 0.0
C4589 C 0.81043 0.16512 0.36793 0.0
C4590 C 0.79386 0.15535 0.39628 0.0
C4591 C 0.79582 0.17292 0.37285 0.0
C4592 C 0.76654 0.14234 0.40044 0.0
C4593 C 0.78057 0.12186 0.42389 0.0
N4594 N 0.78764 0.16742 0.38639 0.0
N4595 N 0.78879 0.13537 0.41838 0.0
H4596 H 0.39453 0.53834 0.61347 0.0
H4597 H 0.46303 0.5367 0.6824 0.0
H4598 H 0.42776 0.57803 0.62537 0.0
H4599 H 0.45211 0.49741 0.64837 0.0
H4600 H 0.43781 0.55085 0.67368 0.0
H4601 H 0.40336 0.52386 0.63847 0.0
C4602 C 0.40301 0.5444 0.62181 0.0
C4603 C 0.41074 0.55919 0.6173 0.0
C4604 C 0.44053 0.53874 0.66876 0.0
C4605 C 0.42069 0.54285 0.64571 0.0
C4606 C 0.45486 0.53063 0.67375 0.0
C4607 C 0.45972 0.51608 0.66578 0.0
C4608 C 0.43105 0.53205 0.65594 0.0
C4609 C 0.44884 0.50877 0.65456 0.0
C4610 C 0.40807 0.53611 0.63601 0.0
C4611 C 0.42176 0.56649 0.62838 0.0
N4612 N 0.43511 0.517 0.64971 0.0
N4613 N 0.42667 0.55809 0.64198 0.0
H4614 H 0.74763 0.20176 0.92887 0.0
H4615 H 0.82967 0.17779 0.95127 0.0
H4616 H 0.78681 0.21208 0.89455 0.0
H4617 H 0.79001 0.14432 0.96248 0.0
H4618 H 0.8154 0.1859 0.92609 0.0
H4619 H 0.7616 0.17637 0.93681 0.0
C4620 C 0.75886 0.19829 0.92253 0.0
C4621 C 0.7663 0.20908 0.91132 0.0
C4622 C 0.81009 0.17625 0.93364 0.0
C4623 C 0.7827 0.18056 0.92082 0.0
C4624 C 0.81827 0.17165 0.94802 0.0
C4625 C 0.8108 0.16066 0.95901 0.0
C4626 C 0.79405 0.17038 0.93077 0.0
C4627 C 0.79605 0.15299 0.95432 0.0
C4628 C 0.76685 0.18378 0.92703 0.0
C4629 C 0.78081 0.20409 0.90339 0.0
N4630 N 0.78778 0.15848 0.94082 0.0
N4631 N 0.78892 0.19046 0.90876 0.0
H4632 H 0.18246 0.538 0.96323 0.0
H4633 H 0.1142 0.53966 0.89409 0.0
H4634 H 0.14891 0.49853 0.95149 0.0
H4635 H 0.12534 0.57913 0.92785 0.0
H4636 H 0.13933 0.52542 0.90293 0.0
H4637 H 0.17387 0.55237 0.93808 0.0
C4638 C 0.17394 0.53195 0.9549 0.0
C4639 C 0.16607 0.51727 0.9595 0.0
C4640 C 0.13667 0.53759 0.90776 0.0
C4641 C 0.15639 0.53348 0.93091 0.0
C4642 C 0.12241 0.54575 0.9027 0.0
C4643 C 0.11763 0.56038 0.91057 0.0
C4644 C 0.14618 0.54429 0.92055 0.0
C4645 C 0.12855 0.56771 0.92174 0.0
C4646 C 0.16903 0.54018 0.94061 0.0
C4647 C 0.15502 0.50999 0.94842 0.0
N4648 N 0.14221 0.55942 0.92666 0.0
N4649 N 0.15026 0.51833 0.93474 0.0
H4650 H 0.03923 0.93227 0.21253 0.0
H4651 H 0.037 0.86322 0.14417 0.0
H4652 H 0.07851 0.89838 0.20111 0.0
H4653 H 0.99755 0.87525 0.17765 0.0
H4654 H 0.05154 0.88825 0.1528 0.0
H4655 H 0.02479 0.92348 0.18749 0.0
C4656 C 0.04522 0.92363 0.20429 0.0
C4657 C 0.05987 0.91573 0.20896 0.0
C4658 C 0.03933 0.88581 0.15761 0.0
C4659 C 0.04357 0.90581 0.1805 0.0
C4660 C 0.031 0.87159 0.15267 0.0
C4661 C 0.01627 0.8671 0.16052 0.0
C4662 C 0.03268 0.89555 0.17026 0.0
C4663 C 0.00905 0.87823 0.17155 0.0
C4664 C 0.03695 0.9186 0.19007 0.0
C4665 C 0.06708 0.90452 0.19799 0.0
N4666 N 0.01749 0.89184 0.17635 0.0
N4667 N 0.05869 0.89964 0.18438 0.0
H4668 H 0.78731 0.46398 0.64427 0.0
H4669 H 0.7864 0.39451 0.7122 0.0
H4670 H 0.82743 0.45148 0.67676 0.0
H4671 H 0.7467 0.42811 0.70136 0.0
H4672 H 0.8004 0.40341 0.68695 0.0
H4673 H 0.77288 0.43888 0.65293 0.0
C4674 C 0.79346 0.4555 0.65256 0.0
C4675 C 0.80837 0.45985 0.66013 0.0
C4676 C 0.78825 0.4082 0.68971 0.0
C4677 C 0.79209 0.43135 0.66991 0.0
C4678 C 0.78022 0.40311 0.70405 0.0
C4679 C 0.76559 0.41091 0.70893 0.0
C4680 C 0.78141 0.42097 0.68026 0.0
C4681 C 0.75813 0.42205 0.69808 0.0
C4682 C 0.7852 0.44125 0.65752 0.0
C4683 C 0.81579 0.44859 0.67089 0.0
N4684 N 0.76629 0.42702 0.68435 0.0
N4685 N 0.80742 0.43495 0.67573 0.0
H4686 H 0.1482 0.83015 0.37496 0.0
H4687 H 0.11496 0.78606 0.4343 0.0
H4688 H 0.18186 0.7904 0.36467 0.0
H4689 H 0.12518 0.74947 0.39716 0.0
H4690 H 0.13988 0.80099 0.426 0.0
H4691 H 0.1402 0.81647 0.40045 0.0
C4692 C 0.15444 0.81889 0.3785 0.0
C4693 C 0.16547 0.81122 0.36768 0.0
C4694 C 0.13699 0.78936 0.42013 0.0
C4695 C 0.15606 0.79521 0.39648 0.0
C4696 C 0.12287 0.78076 0.42493 0.0
C4697 C 0.11785 0.76682 0.41601 0.0
C4698 C 0.14596 0.78384 0.40639 0.0
C4699 C 0.12849 0.76043 0.40402 0.0
C4700 C 0.14996 0.81108 0.39312 0.0
C4701 C 0.1732 0.79661 0.37271 0.0
N4702 N 0.14191 0.76919 0.39931 0.0
N4703 N 0.16783 0.78869 0.38645 0.0
H4704 H 0.74743 0.8985 0.62579 0.0
H4705 H 0.82959 0.87422 0.64805 0.0
H4706 H 0.78716 0.93196 0.61476 0.0
H4707 H 0.79042 0.86381 0.68237 0.0
H4708 H 0.81557 0.89959 0.64012 0.0
H4709 H 0.76177 0.89013 0.65085 0.0
C4710 C 0.75886 0.90459 0.62906 0.0
C4711 C 0.76633 0.91566 0.61814 0.0
C4712 C 0.81033 0.89217 0.6499 0.0
C4713 C 0.78314 0.90563 0.64625 0.0
C4714 C 0.81835 0.87767 0.65439 0.0
C4715 C 0.81095 0.86686 0.66561 0.0
C4716 C 0.79448 0.89537 0.65612 0.0
C4717 C 0.79641 0.87182 0.67353 0.0
C4718 C 0.76707 0.89983 0.64337 0.0
C4719 C 0.78112 0.92323 0.62286 0.0
N4720 N 0.78828 0.88545 0.66817 0.0
N4721 N 0.78941 0.9176 0.63628 0.0
H4722 H 0.71224 0.54123 0.93461 0.0
H4723 H 0.67851 0.49691 0.87558 0.0
H4724 H 0.70192 0.57766 0.89734 0.0
H4725 H 0.64483 0.53668 0.86544 0.0
H4726 H 0.68679 0.51069 0.90093 0.0
H4727 H 0.68728 0.52628 0.92646 0.0
C4728 C 0.7043 0.5465 0.92525 0.0
C4729 C 0.7093 0.5604 0.91626 0.0
C4730 C 0.67697 0.51607 0.89367 0.0
C4731 C 0.68113 0.54335 0.90681 0.0
C4732 C 0.67231 0.50819 0.87914 0.0
C4733 C 0.66119 0.51583 0.86839 0.0
C4734 C 0.67094 0.53197 0.89701 0.0
C4735 C 0.65354 0.53048 0.87343 0.0
C4736 C 0.69016 0.53789 0.92053 0.0
C4737 C 0.69863 0.56674 0.90427 0.0
N4738 N 0.65907 0.53846 0.88707 0.0
N4739 N 0.68518 0.55797 0.89964 0.0
H4740 H 0.46179 0.68377 0.53584 0.0
H4741 H 0.42819 0.62428 0.57971 0.0
H4742 H 0.45123 0.64723 0.49875 0.0
H4743 H 0.39478 0.61413 0.53971 0.0
H4744 H 0.43638 0.64974 0.5661 0.0
H4745 H 0.43698 0.67526 0.55085 0.0
C4746 C 0.45383 0.67449 0.53046 0.0
C4747 C 0.45872 0.66581 0.51633 0.0
C4748 C 0.42664 0.64245 0.56063 0.0
C4749 C 0.43075 0.65591 0.53346 0.0
C4750 C 0.42203 0.62785 0.56841 0.0
C4751 C 0.41101 0.61708 0.56066 0.0
C4752 C 0.42065 0.64586 0.54473 0.0
C4753 C 0.40341 0.62214 0.54599 0.0
C4754 C 0.43979 0.66955 0.53911 0.0
C4755 C 0.44802 0.65392 0.50985 0.0
N4756 N 0.40889 0.63587 0.53812 0.0
N4757 N 0.43467 0.64906 0.51866 0.0
H4758 H 0.92777 0.20178 0.74686 0.0
H4759 H 0.96114 0.14264 0.79118 0.0
H4760 H 0.89423 0.21227 0.78666 0.0
H4761 H 0.95114 0.18006 0.82755 0.0
H4762 H 0.93616 0.15088 0.77631 0.0
H4763 H 0.93583 0.17637 0.76066 0.0
C4764 C 0.92156 0.19829 0.75816 0.0
C4765 C 0.91055 0.20915 0.7658 0.0
C4766 C 0.93912 0.15683 0.78788 0.0
C4767 C 0.92004 0.18045 0.78195 0.0
C4768 C 0.95327 0.15206 0.79645 0.0
C4769 C 0.95836 0.16107 0.81031 0.0
C4770 C 0.93018 0.17061 0.79334 0.0
C4771 C 0.94777 0.17312 0.81666 0.0
C4772 C 0.92608 0.18373 0.76604 0.0
C4773 C 0.90287 0.2042 0.78047 0.0
N4774 N 0.93432 0.1778 0.80792 0.0
N4775 N 0.90828 0.19051 0.78845 0.0
H4776 H 0.43274 0.71295 0.03903 0.0
H4777 H 0.36419 0.64418 0.03659 0.0
H4778 H 0.39899 0.70105 0.07829 0.0
H4779 H 0.37573 0.67819 0.99745 0.0
H4780 H 0.38931 0.65273 0.05101 0.0
H4781 H 0.42418 0.68789 0.02449 0.0
C4782 C 0.4242 0.7046 0.045 0.0
C4783 C 0.41625 0.70913 0.05966 0.0
C4784 C 0.38674 0.65768 0.03888 0.0
C4785 C 0.4066 0.68066 0.04326 0.0
C4786 C 0.37247 0.65279 0.03062 0.0
C4787 C 0.36781 0.66082 0.01603 0.0
C4788 C 0.39636 0.67046 0.03231 0.0
C4789 C 0.37884 0.67197 0.00884 0.0
C4790 C 0.4193 0.69036 0.03667 0.0
C4791 C 0.40516 0.69803 0.06684 0.0
N4792 N 0.3925 0.67672 0.01723 0.0
N4793 N 0.40041 0.68441 0.0584 0.0
H4794 H 0.87543 0.14806 0.32954 0.0
H4795 H 0.89761 0.12513 0.2475 0.0
H4796 H 0.86469 0.18256 0.29063 0.0
H4797 H 0.93248 0.11469 0.28617 0.0
H4798 H 0.88972 0.15038 0.26178 0.0
H4799 H 0.90059 0.14006 0.31516 0.0
C4800 C 0.87879 0.15445 0.3183 0.0
C4801 C 0.86792 0.16571 0.31105 0.0
C4802 C 0.89962 0.14298 0.26684 0.0
C4803 C 0.89613 0.15612 0.29418 0.0
C4804 C 0.90408 0.12856 0.25867 0.0
C4805 C 0.91543 0.11776 0.26589 0.0
C4806 C 0.906 0.1461 0.28264 0.0
C4807 C 0.92353 0.12269 0.28034 0.0
C4808 C 0.89315 0.14991 0.31007 0.0
C4809 C 0.87274 0.17368 0.29649 0.0
N4810 N 0.91818 0.13622 0.28863 0.0
N4811 N 0.88621 0.16825 0.28814 0.0
H4812 H 0.46152 0.64315 0.79113 0.0
H4813 H 0.42727 0.70225 0.74718 0.0
H4814 H 0.45167 0.68024 0.82787 0.0
H4815 H 0.39452 0.71281 0.78761 0.0
H4816 H 0.43561 0.67687 0.76085 0.0
H4817 H 0.43648 0.65151 0.77642 0.0
C4818 C 0.45368 0.65253 0.7965 0.0
C4819 C 0.45882 0.66139 0.81043 0.0
C4820 C 0.42597 0.68423 0.76641 0.0
C4821 C 0.43057 0.6711 0.79366 0.0
C4822 C 0.42127 0.69878 0.7586 0.0
C4823 C 0.41041 0.70964 0.76643 0.0
C4824 C 0.42025 0.68098 0.78245 0.0
C4825 C 0.40303 0.70472 0.78125 0.0
C4826 C 0.4395 0.65738 0.78803 0.0
C4827 C 0.44827 0.67341 0.81692 0.0
N4828 N 0.4086 0.69104 0.78916 0.0
N4829 N 0.43477 0.67816 0.80828 0.0
H4830 H 0.87564 0.17881 0.9969 0.0
H4831 H 0.89874 0.20191 0.07889 0.0
H4832 H 0.8656 0.14441 0.03609 0.0
H4833 H 0.93272 0.21298 0.03961 0.0
H4834 H 0.89088 0.17665 0.06463 0.0
H4835 H 0.90087 0.1871 0.01098 0.0
C4836 C 0.87916 0.17251 0.00814 0.0
C4837 C 0.86846 0.1612 0.01556 0.0
C4838 C 0.90058 0.1842 0.05941 0.0
C4839 C 0.89677 0.17109 0.03209 0.0
C4840 C 0.90503 0.19863 0.06757 0.0
C4841 C 0.91612 0.20959 0.0602 0.0
C4842 C 0.9067 0.18123 0.04348 0.0
C4843 C 0.92397 0.20485 0.04556 0.0
C4844 C 0.89357 0.17721 0.0162 0.0
C4845 C 0.87351 0.15334 0.0301 0.0
N4846 N 0.91864 0.19129 0.0373 0.0
N4847 N 0.88702 0.1589 0.03827 0.0
H4848 H 0.36463 0.68407 0.29159 0.0
H4849 H 0.3985 0.62493 0.24738 0.0
H4850 H 0.37467 0.64702 0.32832 0.0
H4851 H 0.43147 0.61427 0.28761 0.0
H4852 H 0.39024 0.65028 0.26116 0.0
H4853 H 0.38955 0.67563 0.27672 0.0
C4854 C 0.37249 0.67468 0.29692 0.0
C4855 C 0.36744 0.66585 0.3109 0.0
C4856 C 0.39991 0.6429 0.26666 0.0
C4857 C 0.39554 0.65605 0.29393 0.0
C4858 C 0.40455 0.62837 0.25878 0.0
C4859 C 0.41546 0.61748 0.26653 0.0
C4860 C 0.40574 0.64612 0.28266 0.0
C4861 C 0.42293 0.62237 0.28132 0.0
C4862 C 0.3866 0.66979 0.28836 0.0
C4863 C 0.37801 0.65383 0.31734 0.0
N4864 N 0.41741 0.63603 0.28928 0.0
N4865 N 0.39143 0.64903 0.3086 0.0
H4866 H 0.89419 0.11358 0.54004 0.0
H4867 H 0.96305 0.18208 0.53782 0.0
H4868 H 0.9284 0.12475 0.57912 0.0
H4869 H 0.95101 0.14863 0.49835 0.0
H4870 H 0.93805 0.1734 0.55239 0.0
H4871 H 0.90277 0.13877 0.52574 0.0
C4872 C 0.90286 0.12179 0.54603 0.0
C4873 C 0.91092 0.11701 0.56055 0.0
C4874 C 0.94048 0.16861 0.54016 0.0
C4875 C 0.92059 0.14564 0.54442 0.0
C4876 C 0.95467 0.17358 0.53182 0.0
C4877 C 0.95916 0.16574 0.51708 0.0
C4878 C 0.93075 0.15595 0.53352 0.0
C4879 C 0.94803 0.15471 0.50985 0.0
C4880 C 0.90776 0.1361 0.53784 0.0
C4881 C 0.92214 0.12795 0.56777 0.0
N4882 N 0.93444 0.14989 0.51831 0.0
N4883 N 0.9269 0.14166 0.55946 0.0
H4884 H 0.53982 0.93215 0.71253 0.0
H4885 H 0.53781 0.86328 0.644 0.0
H4886 H 0.57912 0.89828 0.70113 0.0
H4887 H 0.49821 0.87529 0.6773 0.0
H4888 H 0.55232 0.88829 0.65272 0.0
H4889 H 0.52545 0.92345 0.68742 0.0
C4890 C 0.54583 0.92354 0.70428 0.0
C4891 C 0.56046 0.91562 0.70896 0.0
C4892 C 0.54008 0.88585 0.65747 0.0
C4893 C 0.54424 0.90579 0.68043 0.0
C4894 C 0.53177 0.87165 0.65248 0.0
C4895 C 0.517 0.86716 0.66026 0.0
C4896 C 0.53339 0.89557 0.67011 0.0
C4897 C 0.50973 0.87828 0.67126 0.0
C4898 C 0.5376 0.91855 0.69002 0.0
C4899 C 0.5677 0.90443 0.69799 0.0
N4900 N 0.51817 0.89187 0.67613 0.0
N4901 N 0.55935 0.8996 0.68433 0.0
H4902 H 0.24691 0.42819 0.20115 0.0
H4903 H 0.32916 0.45231 0.17844 0.0
H4904 H 0.28665 0.39467 0.21195 0.0
H4905 H 0.28976 0.46297 0.14447 0.0
H4906 H 0.31507 0.427 0.18646 0.0
H4907 H 0.26119 0.43667 0.1761 0.0
C4908 C 0.25833 0.42212 0.19783 0.0
C4909 C 0.26581 0.41099 0.20868 0.0
C4910 C 0.30979 0.43447 0.17673 0.0
C4911 C 0.28256 0.42112 0.18057 0.0
C4912 C 0.31786 0.44892 0.17218 0.0
C4913 C 0.31041 0.45979 0.16105 0.0
C4914 C 0.29387 0.43136 0.17064 0.0
C4915 C 0.29578 0.45492 0.15324 0.0
C4916 C 0.26651 0.42694 0.18352 0.0
C4917 C 0.28059 0.40343 0.2039 0.0
N4918 N 0.28762 0.44133 0.15866 0.0
N4919 N 0.28885 0.40911 0.19048 0.0
H4920 H 0.6826 0.03882 0.9635 0.0
H4921 H 0.61464 0.04048 0.89412 0.0
H4922 H 0.64963 0.99908 0.95107 0.0
H4923 H 0.62545 0.07978 0.92818 0.0
H4924 H 0.63986 0.02637 0.90287 0.0
H4925 H 0.67405 0.05335 0.93844 0.0
C4926 C 0.67424 0.03275 0.95504 0.0
C4927 C 0.6665 0.01793 0.95941 0.0
C4928 C 0.63711 0.03847 0.9078 0.0
C4929 C 0.65685 0.03433 0.93093 0.0
C4930 C 0.62278 0.04656 0.90279 0.0
C4931 C 0.61789 0.06109 0.91077 0.0
C4932 C 0.64655 0.04515 0.92065 0.0
C4933 C 0.62874 0.06842 0.922 0.0
C4934 C 0.66934 0.04108 0.9408 0.0
C4935 C 0.65564 0.01063 0.94817 0.0
N4936 N 0.64246 0.0602 0.92687 0.0
N4937 N 0.65087 0.01907 0.93454 0.0
H4938 H 0.24622 0.39853 0.62547 0.0
H4939 H 0.29087 0.3641 0.68395 0.0
H4940 H 0.28641 0.43152 0.61478 0.0
H4941 H 0.32709 0.37418 0.6464 0.0
H4942 H 0.27603 0.38917 0.67592 0.0
H4943 H 0.26015 0.39009 0.65068 0.0
C4944 C 0.25764 0.40455 0.62888 0.0
C4945 C 0.26534 0.41551 0.61802 0.0
C4946 C 0.28755 0.38619 0.66988 0.0
C4947 C 0.28164 0.40557 0.64647 0.0
C4948 C 0.2961 0.37199 0.67453 0.0
C4949 C 0.30992 0.36692 0.66545 0.0
C4950 C 0.29299 0.3952 0.65613 0.0
C4951 C 0.31623 0.37753 0.6534 0.0
C4952 C 0.2656 0.3998 0.64334 0.0
C4953 C 0.28017 0.42294 0.62287 0.0
N4954 N 0.30751 0.39104 0.64884 0.0
N4955 N 0.28821 0.41731 0.63643 0.0
H4956 H 0.96247 0.53675 0.18302 0.0
H4957 H 0.89398 0.53909 0.1142 0.0
H4958 H 0.95094 0.49757 0.14907 0.0
H4959 H 0.92797 0.57822 0.12583 0.0
H4960 H 0.90244 0.52468 0.13936 0.0
H4961 H 0.93736 0.55118 0.17442 0.0
C4962 C 0.95419 0.53077 0.17442 0.0
C4963 C 0.95884 0.51617 0.16642 0.0
C4964 C 0.9074 0.53681 0.1368 0.0
C4965 C 0.93031 0.53244 0.15673 0.0
C4966 C 0.90256 0.54507 0.12251 0.0
C4967 C 0.91061 0.55964 0.11787 0.0
C4968 C 0.92014 0.54338 0.14647 0.0
C4969 C 0.92173 0.56684 0.12893 0.0
C4970 C 0.93992 0.53903 0.1695 0.0
C4971 C 0.94783 0.50896 0.15527 0.0
N4972 N 0.92643 0.55846 0.14262 0.0
N4973 N 0.93417 0.51734 0.1505 0.0
H4974 H 0.99673 0.17822 0.87502 0.0
H4975 H 0.07888 0.20142 0.8985 0.0
H4976 H 0.03623 0.14435 0.86442 0.0
H4977 H 0.0393 0.21233 0.93218 0.0
H4978 H 0.0647 0.1762 0.89038 0.0
H4979 H 0.01083 0.18637 0.90028 0.0
C4980 C 0.00806 0.17201 0.87841 0.0
C4981 C 0.01554 0.16089 0.86756 0.0
C4982 C 0.05939 0.18369 0.90007 0.0
C4983 C 0.03208 0.17063 0.89593 0.0
C4984 C 0.06752 0.1981 0.90468 0.0
C4985 C 0.06005 0.20901 0.91575 0.0
C4986 C 0.0434 0.18071 0.90602 0.0
C4987 C 0.04534 0.20423 0.92345 0.0
C4988 C 0.01613 0.17664 0.89284 0.0
C4989 C 0.03019 0.15313 0.87245 0.0
N4990 N 0.03713 0.1907 0.91797 0.0
N4991 N 0.03835 0.15862 0.886 0.0
H4992 H 0.28942 0.68257 0.36486 0.0
H4993 H 0.28735 0.61309 0.43277 0.0
H4994 H 0.32897 0.64903 0.37634 0.0
H4995 H 0.24796 0.62526 0.39927 0.0
H4996 H 0.30184 0.63823 0.42436 0.0
H4997 H 0.27497 0.67359 0.38981 0.0
C4998 C 0.29547 0.67398 0.37311 0.0
C4999 C 0.3102 0.66621 0.36847 0.0
C5000 C 0.28965 0.63578 0.41949 0.0
C5001 C 0.29387 0.65605 0.39682 0.0
C5002 C 0.28135 0.62151 0.4243 0.0
C5003 C 0.26664 0.61705 0.41639 0.0
C5004 C 0.28301 0.64561 0.40691 0.0
C5005 C 0.25943 0.62823 0.40541 0.0
C5006 C 0.28718 0.66883 0.38728 0.0
C5007 C 0.31748 0.65507 0.37944 0.0
N5008 N 0.26785 0.6419 0.40074 0.0
N5009 N 0.30907 0.65005 0.393 0.0
H5010 H 0.96258 0.28983 0.64395 0.0
H5011 H 0.89398 0.28752 0.71274 0.0
H5012 H 0.95098 0.32914 0.67775 0.0
H5013 H 0.92781 0.24827 0.70105 0.0
H5014 H 0.90262 0.30202 0.68769 0.0
H5015 H 0.93753 0.27537 0.65265 0.0
C5016 C 0.95429 0.29583 0.65254 0.0
C5017 C 0.95891 0.31048 0.66046 0.0
C5018 C 0.90751 0.28985 0.69021 0.0
C5019 C 0.93045 0.29416 0.67028 0.0
C5020 C 0.90257 0.28155 0.70444 0.0
C5021 C 0.91051 0.2669 0.70903 0.0
C5022 C 0.92024 0.28325 0.68055 0.0
C5023 C 0.92165 0.25971 0.69799 0.0
C5024 C 0.94006 0.28754 0.65752 0.0
C5025 C 0.94789 0.3177 0.6716 0.0
N5026 N 0.92644 0.26812 0.68436 0.0
N5027 N 0.93427 0.30929 0.67644 0.0
H5028 H 0.24799 0.20166 0.42886 0.0
H5029 H 0.33011 0.17783 0.4507 0.0
H5030 H 0.28677 0.21209 0.39411 0.0
H5031 H 0.29075 0.14391 0.46164 0.0
H5032 H 0.3157 0.18609 0.42565 0.0
H5033 H 0.26214 0.17632 0.43667 0.0
C5034 C 0.25916 0.19822 0.42241 0.0
C5035 C 0.26644 0.20903 0.4111 0.0
C5036 C 0.3105 0.17631 0.4331 0.0
C5037 C 0.28304 0.18056 0.42043 0.0
C5038 C 0.31876 0.17162 0.4474 0.0
C5039 C 0.3114 0.16046 0.45831 0.0
C5040 C 0.2945 0.17035 0.43022 0.0
C5041 C 0.2967 0.15271 0.45356 0.0
C5042 C 0.26726 0.18374 0.42682 0.0
C5043 C 0.28089 0.20408 0.40303 0.0
N5044 N 0.28836 0.15829 0.44015 0.0
N5045 N 0.28911 0.19048 0.40832 0.0
H5046 H 0.43248 0.53947 0.21304 0.0
H5047 H 0.3639 0.53793 0.1443 0.0
H5048 H 0.39902 0.57903 0.20134 0.0
H5049 H 0.37555 0.49836 0.17777 0.0
H5050 H 0.38908 0.55222 0.15292 0.0
H5051 H 0.42393 0.52519 0.18783 0.0
C5052 C 0.424 0.54556 0.20471 0.0
C5053 C 0.41612 0.56023 0.20934 0.0
C5054 C 0.38652 0.54003 0.15773 0.0
C5055 C 0.40647 0.54411 0.1807 0.0
C5056 C 0.37222 0.53184 0.1528 0.0
C5057 C 0.36758 0.51716 0.16066 0.0
C5058 C 0.39618 0.5333 0.17039 0.0
C5059 C 0.37865 0.50982 0.17167 0.0
C5060 C 0.41911 0.53738 0.19039 0.0
C5061 C 0.40513 0.56757 0.19825 0.0
N5062 N 0.39233 0.51814 0.17648 0.0
N5063 N 0.40036 0.55926 0.18454 0.0
H5064 H 0.68291 0.46403 0.53732 0.0
H5065 H 0.61498 0.39459 0.53951 0.0
H5066 H 0.64945 0.45177 0.49792 0.0
H5067 H 0.62635 0.42832 0.57894 0.0
H5068 H 0.63997 0.40351 0.52509 0.0
H5069 H 0.67447 0.43894 0.55188 0.0
C5070 C 0.67444 0.45561 0.53134 0.0
C5071 C 0.66655 0.46003 0.51662 0.0
C5072 C 0.6374 0.40832 0.53727 0.0
C5073 C 0.65704 0.43152 0.53305 0.0
C5074 C 0.62321 0.40321 0.54554 0.0
C5075 C 0.61853 0.41104 0.56022 0.0
C5076 C 0.64692 0.42113 0.54393 0.0
C5077 C 0.62948 0.42223 0.56748 0.0
C5078 C 0.66961 0.44136 0.53968 0.0
C5079 C 0.65557 0.44884 0.50942 0.0
N5080 N 0.64306 0.4272 0.55909 0.0
N5081 N 0.65088 0.43519 0.51787 0.0
H5082 H 0.14825 0.87555 0.32916 0.0
H5083 H 0.12507 0.89892 0.24707 0.0
H5084 H 0.18213 0.86482 0.2897 0.0
H5085 H 0.11429 0.93271 0.28659 0.0
H5086 H 0.15033 0.89083 0.2612 0.0
H5087 H 0.14019 0.90082 0.31504 0.0
C5088 C 0.15448 0.87892 0.31784 0.0
C5089 C 0.16559 0.86804 0.31038 0.0
C5090 C 0.14285 0.90054 0.2665 0.0
C5091 C 0.15593 0.89642 0.29381 0.0
C5092 C 0.12843 0.90513 0.2584 0.0
C5093 C 0.11753 0.91621 0.26588 0.0
C5094 C 0.14588 0.90652 0.28247 0.0
C5095 C 0.12237 0.92397 0.28054 0.0
C5096 C 0.14991 0.89336 0.30976 0.0
C5097 C 0.17337 0.87289 0.29573 0.0
N5098 N 0.13591 0.91849 0.28874 0.0
N5099 N 0.16792 0.88645 0.28755 0.0
H5100 H 0.70106 0.39917 0.07975 0.0
H5101 H 0.67839 0.375 0.99766 0.0
H5102 H 0.71218 0.43246 0.03991 0.0
H5103 H 0.64435 0.36457 0.03706 0.0
H5104 H 0.68637 0.40039 0.0116 0.0
H5105 H 0.67589 0.39095 0.06553 0.0
C5106 C 0.69779 0.40525 0.06832 0.0
C5107 C 0.70877 0.41622 0.06079 0.0
C5108 C 0.67664 0.39296 0.01691 0.0
C5109 C 0.68052 0.40637 0.0441 0.0
C5110 C 0.67211 0.37845 0.00893 0.0
C5111 C 0.66098 0.36762 0.01643 0.0
C5112 C 0.67054 0.39615 0.03281 0.0
C5113 C 0.65313 0.37259 0.031 0.0
C5114 C 0.68342 0.40058 0.06017 0.0
C5115 C 0.70404 0.42381 0.046 0.0
N5116 N 0.65854 0.38622 0.0391 0.0
N5117 N 0.69055 0.41826 0.03777 0.0
H5118 H 0.17819 0.95265 0.82958 0.0
H5119 H 0.20006 0.9281 0.74728 0.0
H5120 H 0.14384 0.96322 0.79048 0.0
H5121 H 0.21106 0.89467 0.78704 0.0
H5122 H 0.17514 0.93669 0.76172 0.0
H5123 H 0.186 0.92725 0.81552 0.0
C5124 C 0.17181 0.94923 0.81835 0.0
C5125 C 0.16063 0.9601 0.81097 0.0
C5126 C 0.18257 0.92695 0.76701 0.0
C5127 C 0.16997 0.93156 0.79447 0.0
C5128 C 0.1968 0.92205 0.75873 0.0
C5129 C 0.20768 0.91093 0.76617 0.0
C5130 C 0.17974 0.92121 0.78311 0.0
C5131 C 0.20299 0.90342 0.78101 0.0
C5132 C 0.17624 0.93472 0.81031 0.0
C5133 C 0.15266 0.95517 0.79645 0.0
N5134 N 0.18966 0.90919 0.78936 0.0
N5135 N 0.15795 0.94153 0.7883 0.0
H5136 H 0.61398 0.43286 0.28735 0.0
H5137 H 0.68278 0.36426 0.28908 0.0
H5138 H 0.62585 0.39956 0.2477 0.0
H5139 H 0.64899 0.3756 0.32847 0.0
H5140 H 0.67409 0.38942 0.2748 0.0
H5141 H 0.63903 0.42411 0.30178 0.0
C5142 C 0.62232 0.42437 0.28128 0.0
C5143 C 0.61778 0.4166 0.26653 0.0
C5144 C 0.66922 0.3868 0.28695 0.0
C5145 C 0.64624 0.40672 0.28282 0.0
C5146 C 0.67419 0.37251 0.29513 0.0
C5147 C 0.66628 0.36779 0.30976 0.0
C5148 C 0.65648 0.39638 0.29364 0.0
C5149 C 0.65513 0.37876 0.31705 0.0
C5150 C 0.63655 0.41936 0.28955 0.0
C5151 C 0.62887 0.40559 0.25922 0.0
N5152 N 0.65031 0.39245 0.30874 0.0
N5153 N 0.64249 0.40072 0.26761 0.0
H5154 H 0.17781 0.87487 0.99816 0.0
H5155 H 0.20137 0.89727 0.08019 0.0
H5156 H 0.1438 0.86387 0.03743 0.0
H5157 H 0.21136 0.93204 0.04131 0.0
H5158 H 0.1761 0.88914 0.06608 0.0
H5159 H 0.18592 0.89998 0.01255 0.0
C5160 C 0.17156 0.87815 0.0095 0.0
C5161 C 0.16039 0.86724 0.01683 0.0
C5162 C 0.1834 0.89906 0.06094 0.0
C5163 C 0.17009 0.89541 0.0337 0.0
C5164 C 0.19784 0.90367 0.06901 0.0
C5165 C 0.20853 0.91505 0.06169 0.0
C5166 C 0.18015 0.90537 0.04514 0.0
C5167 C 0.20346 0.92305 0.04723 0.0
C5168 C 0.17616 0.89249 0.01774 0.0
C5169 C 0.1526 0.87197 0.0315 0.0
N5170 N 0.18991 0.91759 0.03904 0.0
N5171 N 0.15807 0.88542 0.03984 0.0
H5172 H 0.71239 0.39412 0.78726 0.0
H5173 H 0.64412 0.4632 0.78977 0.0
H5174 H 0.7005 0.42765 0.74782 0.0
H5175 H 0.67823 0.45148 0.82877 0.0
H5176 H 0.65247 0.43802 0.77532 0.0
H5177 H 0.68746 0.40294 0.80186 0.0
C5178 C 0.70405 0.40267 0.78127 0.0
C5179 C 0.70857 0.41049 0.76654 0.0
C5180 C 0.6575 0.44057 0.78742 0.0
C5181 C 0.68025 0.42045 0.78302 0.0
C5182 C 0.65272 0.45488 0.7957 0.0
C5183 C 0.66081 0.45948 0.81026 0.0
C5184 C 0.67022 0.43086 0.79396 0.0
C5185 C 0.67196 0.44841 0.8174 0.0
C5186 C 0.6899 0.40772 0.78963 0.0
C5187 C 0.6975 0.42158 0.75932 0.0
N5188 N 0.67658 0.4347 0.80901 0.0
N5189 N 0.68395 0.4265 0.7678 0.0
H5190 H 0.18306 0.96285 0.53789 0.0
H5191 H 0.11414 0.89447 0.53913 0.0
H5192 H 0.14993 0.95115 0.49806 0.0
H5193 H 0.12591 0.92783 0.57875 0.0
H5194 H 0.1394 0.90296 0.52489 0.0
H5195 H 0.17433 0.9377 0.55214 0.0
C5196 C 0.17462 0.95453 0.53174 0.0
C5197 C 0.16687 0.95914 0.517 0.0
C5198 C 0.13683 0.90778 0.53707 0.0
C5199 C 0.157 0.93058 0.53309 0.0
C5200 C 0.12248 0.90293 0.54523 0.0
C5201 C 0.11788 0.91079 0.55991 0.0
C5202 C 0.14657 0.92036 0.54385 0.0
C5203 C 0.12898 0.92175 0.56727 0.0
C5204 C 0.16962 0.94024 0.53991 0.0
C5205 C 0.15593 0.94807 0.50958 0.0
N5206 N 0.14272 0.92647 0.559 0.0
N5207 N 0.15104 0.9344 0.51787 0.0
H5208 H 0.49769 0.17927 0.37483 0.0
H5209 H 0.57982 0.20196 0.3988 0.0
H5210 H 0.53697 0.14505 0.36449 0.0
H5211 H 0.54014 0.21295 0.43234 0.0
H5212 H 0.56556 0.17683 0.39055 0.0
H5213 H 0.51175 0.18738 0.40013 0.0
C5214 C 0.50896 0.17299 0.37828 0.0
C5215 C 0.51639 0.16175 0.3675 0.0
C5216 C 0.56025 0.18432 0.40025 0.0
C5217 C 0.53288 0.17143 0.39592 0.0
C5218 C 0.56842 0.19867 0.40493 0.0
C5219 C 0.56094 0.20961 0.41599 0.0
C5220 C 0.54422 0.1814 0.40611 0.0
C5221 C 0.54619 0.20485 0.42363 0.0
C5222 C 0.51701 0.17758 0.39274 0.0
C5223 C 0.53097 0.15391 0.37247 0.0
N5224 N 0.53794 0.19138 0.41806 0.0
N5225 N 0.53911 0.15937 0.38605 0.0
H5226 H 0.78601 0.61478 0.93438 0.0
H5227 H 0.83056 0.64906 0.87589 0.0
H5228 H 0.74972 0.62469 0.89686 0.0
H5229 H 0.79024 0.68178 0.86483 0.0
H5230 H 0.81665 0.64082 0.90117 0.0
H5231 H 0.80076 0.63988 0.92631 0.0
C5232 C 0.78074 0.62263 0.92495 0.0
C5233 C 0.76694 0.61749 0.91589 0.0
C5234 C 0.81116 0.65044 0.89373 0.0
C5235 C 0.78377 0.64582 0.90651 0.0
C5236 C 0.81912 0.65508 0.87924 0.0
C5237 C 0.81137 0.66588 0.86825 0.0
C5238 C 0.79509 0.65616 0.89679 0.0
C5239 C 0.79652 0.67331 0.87302 0.0
C5240 C 0.78924 0.63686 0.92028 0.0
C5241 C 0.76058 0.62808 0.90384 0.0
N5242 N 0.78849 0.66778 0.88663 0.0
N5243 N 0.76925 0.64161 0.89925 0.0
H5244 H 0.46247 0.03819 0.18226 0.0
H5245 H 0.39353 0.03963 0.11393 0.0
H5246 H 0.45039 0.99852 0.14908 0.0
H5247 H 0.42713 0.07915 0.12532 0.0
H5248 H 0.40209 0.02548 0.13919 0.0
H5249 H 0.43728 0.05255 0.17378 0.0
C5250 C 0.45406 0.0321 0.17386 0.0
C5251 C 0.45857 0.01737 0.16604 0.0
C5252 C 0.40695 0.03764 0.13656 0.0
C5253 C 0.42995 0.03357 0.15646 0.0
C5254 C 0.40204 0.04575 0.1222 0.0
C5255 C 0.40997 0.06035 0.11746 0.0
C5256 C 0.41964 0.04437 0.14617 0.0
C5257 C 0.421 0.06773 0.12849 0.0
C5258 C 0.43975 0.04032 0.16901 0.0
C5259 C 0.44739 0.01002 0.15514 0.0
N5260 N 0.42578 0.05949 0.14223 0.0
N5261 N 0.43369 0.01836 0.15041 0.0
H5262 H 0.78763 0.71341 0.39388 0.0
H5263 H 0.79047 0.6442 0.462 0.0
H5264 H 0.74866 0.70145 0.42794 0.0
H5265 H 0.82966 0.67811 0.45034 0.0
H5266 H 0.77586 0.653 0.43707 0.0
H5267 H 0.8022 0.68829 0.40221 0.0
C5268 C 0.78174 0.70505 0.40246 0.0
C5269 C 0.76714 0.70957 0.41055 0.0
C5270 C 0.78804 0.65787 0.43956 0.0
C5271 C 0.78358 0.68102 0.41993 0.0
C5272 C 0.79641 0.65284 0.45372 0.0
C5273 C 0.81107 0.66077 0.4583 0.0
C5274 C 0.79458 0.67069 0.42998 0.0
C5275 C 0.81821 0.67196 0.44729 0.0
C5276 C 0.79008 0.69078 0.40722 0.0
C5277 C 0.76005 0.69845 0.42167 0.0
N5278 N 0.80973 0.67685 0.43374 0.0
N5279 N 0.76851 0.68478 0.42628 0.0
H5280 H 0.21246 0.28665 0.39404 0.0
H5281 H 0.14397 0.28859 0.46289 0.0
H5282 H 0.20135 0.24752 0.42819 0.0
H5283 H 0.17735 0.32814 0.45094 0.0
H5284 H 0.15263 0.27413 0.43783 0.0
H5285 H 0.18723 0.30089 0.40261 0.0
C5286 C 0.20425 0.28064 0.40268 0.0
C5287 C 0.20905 0.26611 0.41073 0.0
C5288 C 0.1574 0.28635 0.44029 0.0
C5289 C 0.18038 0.28217 0.42039 0.0
C5290 C 0.15245 0.29464 0.45452 0.0
C5291 C 0.16028 0.30937 0.45904 0.0
C5292 C 0.17004 0.29303 0.43057 0.0
C5293 C 0.17128 0.31665 0.44792 0.0
C5294 C 0.18992 0.28879 0.40758 0.0
C5295 C 0.19812 0.25886 0.42194 0.0
N5296 N 0.1761 0.30824 0.4343 0.0
N5297 N 0.18439 0.26714 0.42669 0.0
H5298 H 0.61411 0.28809 0.43233 0.0
H5299 H 0.68289 0.28993 0.36373 0.0
H5300 H 0.62616 0.24839 0.39916 0.0
H5301 H 0.64886 0.32915 0.37493 0.0
H5302 H 0.67429 0.27569 0.38895 0.0
H5303 H 0.63911 0.30259 0.42356 0.0
C5304 C 0.62248 0.28202 0.42388 0.0
C5305 C 0.618 0.26723 0.41614 0.0
C5306 C 0.66934 0.2878 0.38628 0.0
C5307 C 0.6464 0.28361 0.40624 0.0
C5308 C 0.67426 0.29596 0.37195 0.0
C5309 C 0.66626 0.31052 0.36719 0.0
C5310 C 0.65657 0.29445 0.39584 0.0
C5311 C 0.65507 0.31778 0.37813 0.0
C5312 C 0.63668 0.29034 0.41885 0.0
C5313 C 0.62913 0.25993 0.40517 0.0
N5314 N 0.6503 0.3095 0.39185 0.0
N5315 N 0.64272 0.26836 0.40027 0.0
H5316 H 0.21167 0.03951 0.93337 0.0
H5317 H 0.14364 0.03837 0.86416 0.0
H5318 H 0.20033 0.07921 0.89996 0.0
H5319 H 0.17708 0.99882 0.87594 0.0
H5320 H 0.1519 0.05251 0.88954 0.0
H5321 H 0.18645 0.02537 0.92464 0.0
C5322 C 0.2034 0.04566 0.92487 0.0
C5323 C 0.20815 0.06032 0.91704 0.0
C5324 C 0.15678 0.04036 0.88696 0.0
C5325 C 0.1795 0.04436 0.90718 0.0
C5326 C 0.15206 0.03226 0.87253 0.0
C5327 C 0.16003 0.01764 0.86789 0.0
C5328 C 0.16934 0.03359 0.89674 0.0
C5329 C 0.17093 0.01025 0.87904 0.0
C5330 C 0.18907 0.03756 0.91988 0.0
C5331 C 0.19715 0.06775 0.90603 0.0
N5332 N 0.17552 0.01848 0.89285 0.0
N5333 N 0.18344 0.05952 0.90115 0.0
H5334 H 0.57909 0.92779 0.12526 0.0
H5335 H 0.49671 0.95237 0.14725 0.0
H5336 H 0.53923 0.89465 0.11375 0.0
H5337 H 0.53579 0.96242 0.18178 0.0
H5338 H 0.51074 0.92707 0.13912 0.0
H5339 H 0.56456 0.93622 0.15019 0.0
C5340 C 0.56759 0.92178 0.12841 0.0
C5341 C 0.56016 0.91077 0.11739 0.0
C5342 C 0.51595 0.9344 0.14898 0.0
C5343 C 0.54313 0.92087 0.14535 0.0
C5344 C 0.50792 0.94885 0.1536 0.0
C5345 C 0.5153 0.95956 0.16494 0.0
C5346 C 0.53177 0.93112 0.15523 0.0
C5347 C 0.52981 0.9545 0.17285 0.0
C5348 C 0.55926 0.92657 0.14264 0.0
C5349 C 0.54526 0.90331 0.12193 0.0
N5350 N 0.53795 0.94092 0.16738 0.0
N5351 N 0.53687 0.90897 0.13528 0.0
H5352 H 0.5385 0.46319 0.68219 0.0
H5353 H 0.54013 0.39437 0.61365 0.0
H5354 H 0.49905 0.45155 0.64858 0.0
H5355 H 0.57984 0.42762 0.62543 0.0
H5356 H 0.52577 0.40313 0.63874 0.0
H5357 H 0.55282 0.438 0.67362 0.0
C5358 C 0.53246 0.45488 0.67366 0.0
C5359 C 0.51779 0.45951 0.66576 0.0
C5360 C 0.538 0.40786 0.63623 0.0
C5361 C 0.53395 0.43089 0.6561 0.0
C5362 C 0.54623 0.40285 0.62198 0.0
C5363 C 0.56097 0.41062 0.6174 0.0
C5364 C 0.54475 0.42051 0.6459 0.0
C5365 C 0.56833 0.4216 0.62848 0.0
C5366 C 0.54066 0.44057 0.66876 0.0
C5367 C 0.5105 0.44846 0.65471 0.0
N5368 N 0.55997 0.42649 0.64212 0.0
N5369 N 0.51882 0.43476 0.64995 0.0
H5370 H 0.20091 0.74744 0.92853 0.0
H5371 H 0.17789 0.82919 0.9519 0.0
H5372 H 0.21143 0.78672 0.89437 0.0
H5373 H 0.14354 0.79003 0.96219 0.0
H5374 H 0.1859 0.81516 0.92655 0.0
H5375 H 0.17562 0.76155 0.93657 0.0
C5376 C 0.19749 0.75872 0.92224 0.0
C5377 C 0.20833 0.76615 0.91106 0.0
C5378 C 0.17609 0.80993 0.93394 0.0
C5379 C 0.17993 0.78269 0.92068 0.0
C5380 C 0.17155 0.81796 0.94842 0.0
C5381 C 0.16033 0.81053 0.9592 0.0
C5382 C 0.16991 0.79407 0.93075 0.0
C5383 C 0.1524 0.79602 0.95421 0.0
C5384 C 0.18304 0.76679 0.92679 0.0
C5385 C 0.2034 0.78073 0.9032 0.0
N5386 N 0.15782 0.78787 0.94062 0.0
N5387 N 0.18984 0.78891 0.90864 0.0
H5388 H 0.89835 0.74676 0.62495 0.0
H5389 H 0.87577 0.82846 0.64823 0.0
H5390 H 0.9332 0.78558 0.61501 0.0
H5391 H 0.86509 0.7894 0.68259 0.0
H5392 H 0.90101 0.81421 0.64026 0.0
H5393 H 0.89034 0.76079 0.6503 0.0
C5394 C 0.9048 0.7579 0.62851 0.0
C5395 C 0.91615 0.76525 0.6178 0.0
C5396 C 0.89356 0.80905 0.65007 0.0
C5397 C 0.90659 0.78171 0.64626 0.0
C5398 C 0.87915 0.81721 0.65458 0.0
C5399 C 0.86829 0.80989 0.6658 0.0
C5400 C 0.89661 0.79317 0.65627 0.0
C5401 C 0.87314 0.79532 0.67374 0.0
C5402 C 0.90026 0.76592 0.64299 0.0
C5403 C 0.92422 0.77965 0.62292 0.0
N5404 N 0.88667 0.78705 0.66834 0.0
N5405 N 0.91881 0.78781 0.6365 0.0
H5406 H 0.3942 0.78831 0.71347 0.0
H5407 H 0.46257 0.78937 0.64438 0.0
H5408 H 0.4273 0.74846 0.70171 0.0
H5409 H 0.45145 0.82909 0.67786 0.0
H5410 H 0.43742 0.77522 0.65332 0.0
H5411 H 0.40298 0.80261 0.68834 0.0
C5412 C 0.40265 0.78217 0.70514 0.0
C5413 C 0.41035 0.76739 0.70972 0.0
C5414 C 0.44009 0.78741 0.65807 0.0
C5415 C 0.42025 0.78353 0.68117 0.0
C5416 C 0.45437 0.79552 0.65295 0.0
C5417 C 0.45915 0.81021 0.6607 0.0
C5418 C 0.43058 0.79423 0.6708 0.0
C5419 C 0.44824 0.81762 0.67183 0.0
C5420 C 0.40768 0.79036 0.69087 0.0
C5421 C 0.42132 0.76 0.69865 0.0
N5422 N 0.43457 0.80939 0.6768 0.0
N5423 N 0.4262 0.7683 0.68498 0.0
H5424 H 0.87533 0.997 0.17846 0.0
H5425 H 0.8982 0.07895 0.20128 0.0
H5426 H 0.86511 0.03596 0.14386 0.0
H5427 H 0.93255 0.03992 0.21212 0.0
H5428 H 0.89031 0.06466 0.17604 0.0
H5429 H 0.90057 0.01117 0.18658 0.0
C5430 C 0.87881 0.00821 0.17209 0.0
C5431 C 0.86807 0.01554 0.16076 0.0
C5432 C 0.90009 0.05951 0.18353 0.0
C5433 C 0.89638 0.03217 0.17046 0.0
C5434 C 0.90456 0.06769 0.19795 0.0
C5435 C 0.91576 0.06039 0.20885 0.0
C5436 C 0.90632 0.04363 0.18051 0.0
C5437 C 0.92371 0.04582 0.20403 0.0
C5438 C 0.89323 0.01632 0.17669 0.0
C5439 C 0.87306 0.03004 0.1528 0.0
N5440 N 0.91836 0.03754 0.1905 0.0
N5441 N 0.88658 0.03827 0.15827 0.0
H5442 H 0.539 0.11379 0.89418 0.0
H5443 H 0.53729 0.183 0.96236 0.0
H5444 H 0.57854 0.12581 0.92754 0.0
H5445 H 0.49751 0.14983 0.95059 0.0
H5446 H 0.55172 0.17407 0.93737 0.0
H5447 H 0.5246 0.13896 0.90267 0.0
C5448 C 0.54504 0.12218 0.90263 0.0
C5449 C 0.55977 0.11767 0.91048 0.0
C5450 C 0.53947 0.16938 0.93986 0.0
C5451 C 0.54351 0.14627 0.92007 0.0
C5452 C 0.5312 0.17451 0.95405 0.0
C5453 C 0.5164 0.16683 0.95861 0.0
C5454 C 0.53271 0.15671 0.93023 0.0
C5455 C 0.50906 0.15579 0.94755 0.0
C5456 C 0.5368 0.13648 0.90749 0.0
C5457 C 0.56705 0.12882 0.92145 0.0
N5458 N 0.51746 0.1508 0.93398 0.0
N5459 N 0.55869 0.1425 0.92617 0.0
H5460 H 0.57907 0.6253 0.42794 0.0
H5461 H 0.4968 0.64873 0.45098 0.0
H5462 H 0.53964 0.61448 0.39406 0.0
H5463 H 0.53635 0.68247 0.46181 0.0
H5464 H 0.51102 0.64054 0.42579 0.0
H5465 H 0.56487 0.65054 0.43602 0.0
C5466 C 0.56774 0.62865 0.42171 0.0
C5467 C 0.56032 0.61775 0.41059 0.0
C5468 C 0.5163 0.65026 0.43326 0.0
C5469 C 0.54365 0.64608 0.42026 0.0
C5470 C 0.50816 0.65491 0.44764 0.0
C5471 C 0.51562 0.66601 0.45854 0.0
C5472 C 0.5323 0.6562 0.43028 0.0
C5473 C 0.53031 0.67372 0.45373 0.0
C5474 C 0.55961 0.64306 0.4263 0.0
C5475 C 0.54565 0.62256 0.40282 0.0
N5476 N 0.53855 0.66819 0.44024 0.0
N5477 N 0.53742 0.63609 0.40828 0.0
H5478 H 0.87621 0.32937 0.14917 0.0
H5479 H 0.8987 0.24743 0.12536 0.0
H5480 H 0.86523 0.28984 0.18287 0.0
H5481 H 0.93308 0.28656 0.11504 0.0
H5482 H 0.8908 0.26141 0.15076 0.0
H5483 H 0.90141 0.31514 0.14107 0.0
C5484 C 0.87952 0.31801 0.15537 0.0
C5485 C 0.86857 0.31056 0.16642 0.0
C5486 C 0.90059 0.26664 0.14336 0.0
C5487 C 0.89685 0.29386 0.15672 0.0
C5488 C 0.90508 0.25864 0.12885 0.0
C5489 C 0.91628 0.26606 0.11804 0.0
C5490 C 0.90681 0.28249 0.14656 0.0
C5491 C 0.92424 0.28056 0.12304 0.0
C5492 C 0.89391 0.30986 0.15077 0.0
C5493 C 0.87334 0.29586 0.17415 0.0
N5494 N 0.91888 0.28869 0.13666 0.0
N5495 N 0.88685 0.28761 0.16867 0.0
H5496 H 0.64863 0.8292 0.8747 0.0
H5497 H 0.62566 0.74716 0.89838 0.0
H5498 H 0.6829 0.78995 0.86445 0.0
H5499 H 0.6149 0.78664 0.93223 0.0
H5500 H 0.65082 0.7614 0.89016 0.0
H5501 H 0.64044 0.81512 0.89996 0.0
C5502 C 0.65492 0.81794 0.87817 0.0
C5503 C 0.66618 0.81052 0.86742 0.0
C5504 C 0.64337 0.76666 0.89991 0.0
C5505 C 0.65639 0.79399 0.89579 0.0
C5506 C 0.629 0.75851 0.90458 0.0
C5507 C 0.61814 0.76593 0.91574 0.0
C5508 C 0.64637 0.78264 0.90589 0.0
C5509 C 0.62296 0.78062 0.92345 0.0
C5510 C 0.65027 0.80988 0.8926 0.0
C5511 C 0.67402 0.79595 0.87241 0.0
N5512 N 0.63643 0.78887 0.91791 0.0
N5513 N 0.66851 0.78778 0.88595 0.0
H5514 H 0.17743 0.49752 0.37539 0.0
H5515 H 0.20115 0.57946 0.39847 0.0
H5516 H 0.14381 0.53713 0.36441 0.0
H5517 H 0.21132 0.54011 0.43264 0.0
H5518 H 0.17583 0.56549 0.39029 0.0
H5519 H 0.18549 0.51169 0.40065 0.0
C5520 C 0.17125 0.50889 0.3787 0.0
C5521 C 0.16022 0.51637 0.36775 0.0
C5522 C 0.18318 0.5602 0.4001 0.0
C5523 C 0.16987 0.53299 0.3961 0.0
C5524 C 0.19764 0.5682 0.40474 0.0
C5525 C 0.2084 0.56072 0.41596 0.0
C5526 C 0.17996 0.54431 0.40618 0.0
C5527 C 0.20336 0.54616 0.42379 0.0
C5528 C 0.17582 0.517 0.39313 0.0
C5529 C 0.1525 0.53108 0.37253 0.0
N5530 N 0.18979 0.53804 0.41828 0.0
N5531 N 0.15796 0.53928 0.38608 0.0
H5532 H 0.46254 0.29024 0.14412 0.0
H5533 H 0.39425 0.28789 0.2132 0.0
H5534 H 0.45114 0.32948 0.17806 0.0
H5535 H 0.42783 0.24854 0.20116 0.0
H5536 H 0.40281 0.30245 0.18817 0.0
H5537 H 0.4375 0.2758 0.15288 0.0
C5538 C 0.4543 0.29623 0.15276 0.0
C5539 C 0.45898 0.31086 0.16069 0.0
C5540 C 0.40766 0.29025 0.19061 0.0
C5541 C 0.43052 0.29455 0.17058 0.0
C5542 C 0.40276 0.28191 0.20483 0.0
C5543 C 0.41065 0.2672 0.20931 0.0
C5544 C 0.42032 0.28364 0.18086 0.0
C5545 C 0.4217 0.26001 0.19818 0.0
C5546 C 0.44008 0.28796 0.15778 0.0
C5547 C 0.44801 0.31806 0.1719 0.0
N5548 N 0.42646 0.26847 0.18456 0.0
N5549 N 0.4344 0.30967 0.17677 0.0
H5550 H 0.89833 0.57864 0.70139 0.0
H5551 H 0.87436 0.49678 0.678 0.0
H5552 H 0.93204 0.539 0.712 0.0
H5553 H 0.86431 0.53624 0.64392 0.0
H5554 H 0.89967 0.51071 0.68628 0.0
H5555 H 0.89004 0.56451 0.67619 0.0
C5556 C 0.90448 0.56727 0.69801 0.0
C5557 C 0.91562 0.55978 0.70884 0.0
C5558 C 0.89235 0.51603 0.67647 0.0
C5559 C 0.90571 0.5432 0.68054 0.0
C5560 C 0.87789 0.50805 0.67176 0.0
C5561 C 0.86717 0.51557 0.66053 0.0
C5562 C 0.89559 0.53193 0.67043 0.0
C5563 C 0.87224 0.53015 0.65276 0.0
C5564 C 0.89977 0.55918 0.68361 0.0
C5565 C 0.92327 0.54507 0.70397 0.0
N5566 N 0.88581 0.53824 0.65833 0.0
N5567 N 0.91769 0.53689 0.69046 0.0
H5568 H 0.05083 0.99608 0.38873 0.0
H5569 H 0.08211 0.96909 0.2995 0.0
H5570 H 0.08093 0.02678 0.35732 0.0
H5571 H 0.05056 0.93921 0.33028 0.0
H5572 H 0.08515 0.98861 0.32216 0.0
H5573 H 0.05398 0.97352 0.36915 0.0
C5574 C 0.05824 0.99806 0.37781 0.0
C5575 C 0.06541 0.01348 0.37457 0.0
C5576 C 0.07769 0.9777 0.324 0.0
C5577 C 0.06899 0.98764 0.35202 0.0
C5578 C 0.07595 0.96652 0.31106 0.0
C5579 C 0.06585 0.95258 0.31286 0.0
C5580 C 0.06925 0.97498 0.33886 0.0
C5581 C 0.05832 0.94986 0.32822 0.0
C5582 C 0.06003 0.98514 0.36661 0.0
C5583 C 0.07501 0.01519 0.36027 0.0
N5584 N 0.06004 0.96105 0.34055 0.0
N5585 N 0.07637 0.0025 0.34944 0.0
H5586 H 0.04986 0.33239 0.60779 0.0
H5587 H 0.13897 0.30061 0.58094 0.0
H5588 H 0.08037 0.30062 0.63771 0.0
H5589 H 0.10761 0.33063 0.55009 0.0
H5590 H 0.1194 0.30394 0.6035 0.0
H5591 H 0.07257 0.3353 0.58831 0.0
C5592 C 0.06137 0.32615 0.61038 0.0
C5593 C 0.06308 0.31602 0.62432 0.0
C5594 C 0.11688 0.30993 0.59184 0.0
C5595 C 0.08914 0.31926 0.60196 0.0
C5596 C 0.12806 0.30805 0.57893 0.0
C5597 C 0.12484 0.31513 0.56346 0.0
C5598 C 0.10231 0.31892 0.5893 0.0
C5599 C 0.11056 0.32477 0.56171 0.0
C5600 C 0.07434 0.32782 0.59922 0.0
C5601 C 0.07838 0.3084 0.62705 0.0
N5602 N 0.09974 0.32622 0.5744 0.0
N5603 N 0.09075 0.31004 0.61589 0.0
H5604 H 0.77333 0.3891 0.83093 0.0
H5605 H 0.74404 0.29904 0.85728 0.0
H5606 H 0.74539 0.3566 0.79933 0.0
H5607 H 0.77386 0.33084 0.88786 0.0
H5608 H 0.74074 0.32158 0.83765 0.0
H5609 H 0.76995 0.36956 0.85349 0.0
C5610 C 0.76635 0.37794 0.82875 0.0
C5611 C 0.75987 0.3744 0.81309 0.0
C5612 C 0.74787 0.32367 0.84874 0.0
C5613 C 0.75602 0.3519 0.83892 0.0
C5614 C 0.74975 0.3108 0.85999 0.0
C5615 C 0.75948 0.31293 0.87415 0.0
C5616 C 0.75579 0.33878 0.85164 0.0
C5617 C 0.76643 0.32852 0.87703 0.0
C5618 C 0.76442 0.36677 0.84166 0.0
C5619 C 0.75077 0.3598 0.81112 0.0
N5620 N 0.7646 0.34078 0.86578 0.0
N5621 N 0.74928 0.349 0.82383 0.0
H5622 H 0.77707 0.99457 0.10772 0.0
H5623 H 0.68772 0.026 0.08129 0.0
H5624 H 0.74678 0.02669 0.1375 0.0
H5625 H 0.71888 0.99579 0.05043 0.0
H5626 H 0.70744 0.02284 0.10373 0.0
H5627 H 0.7542 0.99143 0.08845 0.0
C5628 C 0.76558 0.00085 0.11032 0.0
C5629 C 0.76397 0.01113 0.12415 0.0
C5630 C 0.70989 0.01677 0.0921 0.0
C5631 C 0.73774 0.00761 0.10206 0.0
C5632 C 0.69861 0.01855 0.07926 0.0
C5633 C 0.70174 0.01137 0.06382 0.0
C5634 C 0.72446 0.00779 0.08951 0.0
C5635 C 0.71601 0.00172 0.06203 0.0
C5636 C 0.75252 0.99904 0.09929 0.0
C5637 C 0.74869 0.01879 0.12692 0.0
N5638 N 0.72692 0.00037 0.07466 0.0
N5639 N 0.73624 0.01701 0.11588 0.0
H5640 H 0.0534 0.33108 0.93761 0.0
H5641 H 0.08297 0.35697 0.02773 0.0
H5642 H 0.08135 0.29927 0.96989 0.0
H5643 H 0.05306 0.38771 0.99617 0.0
H5644 H 0.08619 0.33744 0.00508 0.0
H5645 H 0.0569 0.35354 0.95724 0.0
C5646 C 0.06042 0.32883 0.94874 0.0
C5647 C 0.06685 0.31314 0.9522 0.0
C5648 C 0.07906 0.34854 0.00307 0.0
C5649 C 0.07083 0.33887 0.97481 0.0
C5650 C 0.07722 0.35973 0.016 0.0
C5651 C 0.06749 0.37391 0.01397 0.0
C5652 C 0.07109 0.35151 0.98799 0.0
C5653 C 0.06049 0.37686 0.99841 0.0
C5654 C 0.0624 0.34169 0.95996 0.0
C5655 C 0.076 0.31108 0.96676 0.0
N5656 N 0.06228 0.36567 0.98609 0.0
N5657 N 0.07755 0.32374 0.97761 0.0
H5658 H 0.71943 0.33275 0.27665 0.0
H5659 H 0.74658 0.30161 0.18745 0.0
H5660 H 0.6896 0.3013 0.24572 0.0
H5661 H 0.77738 0.3313 0.21916 0.0
H5662 H 0.72391 0.30495 0.20688 0.0
H5663 H 0.73897 0.3359 0.25402 0.0
C5664 C 0.71687 0.32664 0.26506 0.0
C5665 C 0.70295 0.31651 0.26321 0.0
C5666 C 0.73558 0.31087 0.20951 0.0
C5667 C 0.72536 0.32003 0.23725 0.0
C5668 C 0.74856 0.30897 0.1984 0.0
C5669 C 0.76404 0.31595 0.20177 0.0
C5670 C 0.73808 0.31976 0.22414 0.0
C5671 C 0.76575 0.32552 0.21611 0.0
C5672 C 0.72806 0.32844 0.25213 0.0
C5673 C 0.70025 0.30906 0.24782 0.0
N5674 N 0.75299 0.32698 0.22685 0.0
N5675 N 0.71144 0.31083 0.23551 0.0
H5676 H 0.74422 0.96858 0.52739 0.0
H5677 H 0.7748 0.99505 0.43776 0.0
H5678 H 0.7752 0.93835 0.49638 0.0
H5679 H 0.74542 0.02615 0.46947 0.0
H5680 H 0.77156 0.97254 0.45739 0.0
H5681 H 0.74106 0.98804 0.50469 0.0
C5682 C 0.75023 0.96592 0.51577 0.0
C5683 C 0.76022 0.9519 0.51392 0.0
C5684 C 0.76569 0.98424 0.45998 0.0
C5685 C 0.75668 0.97422 0.48787 0.0
C5686 C 0.76752 0.99713 0.44876 0.0
C5687 C 0.7606 0.01265 0.45206 0.0
C5688 C 0.75692 0.98686 0.47467 0.0
C5689 C 0.75116 0.01449 0.46646 0.0
C5690 C 0.74842 0.97706 0.5028 0.0
C5691 C 0.76754 0.94907 0.49848 0.0
N5692 N 0.74975 0.00181 0.47731 0.0
N5693 N 0.76577 0.96022 0.48613 0.0
H5694 H 0.13903 0.02584 0.74585 0.0
H5695 H 0.04957 0.99474 0.71948 0.0
H5696 H 0.1076 0.9961 0.77688 0.0
H5697 H 0.08014 0.02637 0.68946 0.0
H5698 H 0.07236 0.99165 0.73883 0.0
H5699 H 0.11935 0.02261 0.72338 0.0
C5700 C 0.12809 0.01849 0.74792 0.0
C5701 C 0.12487 0.01146 0.76341 0.0
C5702 C 0.07413 0.99914 0.72793 0.0
C5703 C 0.10221 0.0078 0.73768 0.0
C5704 C 0.06111 0.00092 0.71685 0.0
C5705 C 0.06281 0.01106 0.70292 0.0
C5706 C 0.08897 0.00758 0.72511 0.0
C5707 C 0.07815 0.01859 0.70011 0.0
C5708 C 0.11684 0.01666 0.73506 0.0
C5709 C 0.11054 0.00191 0.76524 0.0
N5710 N 0.09056 0.01684 0.7112 0.0
N5711 N 0.09966 0.00052 0.75259 0.0
H5712 H 0.29956 0.08217 0.96888 0.0
H5713 H 0.38864 0.0503 0.99564 0.0
H5714 H 0.32971 0.04977 0.93925 0.0
H5715 H 0.35776 0.0812 0.0261 0.0
H5716 H 0.36896 0.05339 0.97314 0.0
H5717 H 0.32244 0.08531 0.98811 0.0
C5718 C 0.31103 0.07584 0.9663 0.0
C5719 C 0.31258 0.06547 0.95252 0.0
C5720 C 0.36657 0.05963 0.98469 0.0
C5721 C 0.33884 0.06899 0.9746 0.0
C5722 C 0.37782 0.05788 0.99757 0.0
C5723 C 0.37475 0.06528 0.01292 0.0
C5724 C 0.3521 0.06879 0.98716 0.0
C5725 C 0.36058 0.07509 0.01458 0.0
C5726 C 0.3241 0.07764 0.97732 0.0
C5727 C 0.32784 0.05774 0.94979 0.0
N5728 N 0.3497 0.07641 0.00192 0.0
N5729 N 0.3403 0.05952 0.96082 0.0
H5730 H 0.99443 0.54873 0.22015 0.0
H5731 H 0.02326 0.63903 0.24625 0.0
H5732 H 0.02404 0.58061 0.18946 0.0
H5733 H 0.99561 0.60644 0.27801 0.0
H5734 H 0.02 0.61938 0.22377 0.0
H5735 H 0.99113 0.57126 0.23979 0.0
C5736 C 0.0001 0.5605 0.21743 0.0
C5737 C 0.00976 0.56266 0.20322 0.0
C5738 C 0.01451 0.61659 0.23562 0.0
C5739 C 0.00606 0.58851 0.22574 0.0
C5740 C 0.01636 0.62783 0.24849 0.0
C5741 C 0.00993 0.6243 0.26417 0.0
C5742 C 0.00623 0.60166 0.23842 0.0
C5743 C 0.00095 0.60964 0.26621 0.0
C5744 C 0.99821 0.57337 0.22868 0.0
C5745 C 0.01666 0.57827 0.20032 0.0
N5746 N -0.00048 0.59878 0.25354 0.0
N5747 N 0.01481 0.59053 0.21156 0.0
H5748 H 0.46923 0.24487 0.52685 0.0
H5749 H 0.49608 0.2756 0.43737 0.0
H5750 H 0.43924 0.27611 0.49586 0.0
H5751 H 0.52705 0.24618 0.46917 0.0
H5752 H 0.47351 0.27241 0.45695 0.0
H5753 H 0.48877 0.24176 0.50422 0.0
C5754 C 0.46664 0.25095 0.51525 0.0
C5755 C 0.45266 0.26099 0.51338 0.0
C5756 C 0.4852 0.26652 0.45957 0.0
C5757 C 0.47508 0.25751 0.48741 0.0
C5758 C 0.49812 0.26833 0.44837 0.0
C5759 C 0.51362 0.26137 0.45171 0.0
C5760 C 0.48777 0.25775 0.47426 0.0
C5761 C 0.51541 0.25194 0.46613 0.0
C5762 C 0.47783 0.24917 0.50232 0.0
C5763 C 0.44992 0.26841 0.49797 0.0
N5764 N 0.5027 0.25056 0.47694 0.0
N5765 N 0.46112 0.26666 0.48566 0.0
H5766 H 0.80341 0.68686 0.74606 0.0
H5767 H 0.83312 0.77673 0.71951 0.0
H5768 H 0.83203 0.71907 0.77735 0.0
H5769 H 0.80295 0.74512 0.68907 0.0
H5770 H 0.8364 0.75416 0.7391 0.0
H5771 H 0.80671 0.7064 0.72348 0.0
C5772 C 0.81053 0.69795 0.74817 0.0
C5773 C 0.81722 0.70142 0.76375 0.0
C5774 C 0.8292 0.75212 0.72805 0.0
C5775 C 0.82097 0.72392 0.73789 0.0
C5776 C 0.82732 0.76501 0.71683 0.0
C5777 C 0.81751 0.76295 0.70271 0.0
C5778 C 0.82118 0.73705 0.72519 0.0
C5779 C 0.81045 0.74739 0.69987 0.0
C5780 C 0.8124 0.70912 0.73524 0.0
C5781 C 0.82648 0.71593 0.76563 0.0
N5782 N 0.81228 0.73512 0.7111 0.0
N5783 N 0.82792 0.72673 0.75291 0.0
H5784 H 0.29978 0.24414 0.35769 0.0
H5785 H 0.38926 0.27507 0.33118 0.0
H5786 H 0.33046 0.27573 0.38762 0.0
H5787 H 0.3577 0.24547 0.30015 0.0
H5788 H 0.36964 0.27179 0.3537 0.0
H5789 H 0.32256 0.24091 0.33834 0.0
C5790 C 0.31134 0.25027 0.36031 0.0
C5791 C 0.31308 0.26045 0.3742 0.0
C5792 C 0.36708 0.26588 0.34201 0.0
C5793 C 0.33922 0.25684 0.35201 0.0
C5794 C 0.3783 0.26773 0.32912 0.0
C5795 C 0.37502 0.26077 0.31362 0.0
C5796 C 0.35243 0.25704 0.3394 0.0
C5797 C 0.36068 0.25124 0.3118 0.0
C5798 C 0.32435 0.24842 0.34922 0.0
C5799 C 0.32845 0.26793 0.37699 0.0
N5800 N 0.34983 0.24982 0.32447 0.0
N5801 N 0.34085 0.26611 0.3659 0.0
H5802 H 0.80417 0.58218 0.63907 0.0
H5803 H 0.83333 0.60728 0.54862 0.0
H5804 H 0.83156 0.54995 0.60672 0.0
H5805 H 0.80367 0.63834 0.5801 0.0
H5806 H 0.83668 0.58795 0.57141 0.0
H5807 H 0.80783 0.60454 0.61935 0.0
C5808 C 0.81111 0.57982 0.62791 0.0
C5809 C 0.81731 0.56404 0.62445 0.0
C5810 C 0.82957 0.59908 0.57338 0.0
C5811 C 0.82146 0.58964 0.60174 0.0
C5812 C 0.82766 0.61015 0.56036 0.0
C5813 C 0.81795 0.62435 0.56233 0.0
C5814 C 0.82171 0.6022 0.58848 0.0
C5815 C 0.81107 0.62746 0.57791 0.0
C5816 C 0.81318 0.59262 0.61664 0.0
C5817 C 0.82637 0.56183 0.60985 0.0
N5818 N 0.81293 0.61638 0.59031 0.0
N5819 N 0.828 0.57444 0.59895 0.0
H5820 H 0.52661 0.08211 0.85821 0.0
H5821 H 0.43773 0.04967 0.83148 0.0
H5822 H 0.49661 0.04964 0.88791 0.0
H5823 H 0.46855 0.08046 0.80086 0.0
H5824 H 0.45738 0.05294 0.85397 0.0
H5825 H 0.50376 0.08501 0.8389 0.0
C5826 C 0.51518 0.07571 0.86078 0.0
C5827 C 0.51366 0.06539 0.8746 0.0
C5828 C 0.45977 0.05911 0.84238 0.0
C5829 C 0.48744 0.06864 0.85246 0.0
C5830 C 0.44854 0.05726 0.82951 0.0
C5831 C 0.4516 0.06458 0.81412 0.0
C5832 C 0.47421 0.06831 0.83988 0.0
C5833 C 0.46575 0.07441 0.81241 0.0
C5834 C 0.50213 0.07738 0.84973 0.0
C5835 C 0.49846 0.05757 0.87734 0.0
N5836 N 0.47661 0.07584 0.82507 0.0
N5837 N 0.48601 0.05922 0.86627 0.0
H5838 H 0.0238 0.74511 0.13927 0.0
H5839 H 0.99338 0.71876 0.04956 0.0
H5840 H 0.99472 0.77636 0.10743 0.0
H5841 H 0.02428 0.68849 0.08063 0.0
H5842 H 0.99018 0.7382 0.07227 0.0
H5843 H 0.02048 0.7226 0.11965 0.0
C5844 C 0.01657 0.74722 0.12825 0.0
C5845 C 0.00976 0.76278 0.1249 0.0
C5846 C 0.99753 0.72722 0.07417 0.0
C5847 C 0.00599 0.737 0.10231 0.0
C5848 C -0.00064 0.71608 0.06119 0.0
C5849 C 0.00934 0.70206 0.06306 0.0
C5850 C 0.00576 0.72436 0.08912 0.0
C5851 C 0.01663 0.69921 0.07851 0.0
C5852 C 0.01469 0.73433 0.11703 0.0
C5853 C 0.00037 0.76466 0.11047 0.0
N5854 N 0.01483 0.71035 0.09087 0.0
N5855 N 0.99892 0.75198 0.09963 0.0
H5856 H 0.9966 0.38919 0.05255 0.0
H5857 H 0.96931 0.29984 0.08308 0.0
H5858 H 0.02766 0.35692 0.08136 0.0
H5859 H 0.93933 0.33125 0.05225 0.0
H5860 H 0.98901 0.32231 0.08625 0.0
H5861 H 0.97386 0.36987 0.05601 0.0
C5862 C 0.99863 0.37812 0.05974 0.0
C5863 C 0.01419 0.37457 0.06644 0.0
C5864 C 0.97804 0.32434 0.07893 0.0
C5865 C 0.98815 0.35233 0.07039 0.0
C5866 C 0.96675 0.3115 0.07711 0.0
C5867 C 0.95274 0.31353 0.06714 0.0
C5868 C 0.97534 0.33931 0.07069 0.0
C5869 C 0.95004 0.32901 0.05988 0.0
C5870 C 0.98561 0.36709 0.06171 0.0
C5871 C 0.01596 0.36012 0.07581 0.0
N5872 N 0.96133 0.34124 0.06165 0.0
N5873 N 0.00315 0.34944 0.07734 0.0
H5874 H 0.52714 0.4694 0.24409 0.0
H5875 H 0.43728 0.49539 0.27431 0.0
H5876 H 0.49589 0.43873 0.2744 0.0
H5877 H 0.46931 0.52699 0.24583 0.0
H5878 H 0.45689 0.4729 0.2708 0.0
H5879 H 0.50444 0.48886 0.24096 0.0
C5880 C 0.51547 0.46664 0.24995 0.0
C5881 C 0.51355 0.45251 0.25976 0.0
C5882 C 0.45956 0.48471 0.26518 0.0
C5883 C 0.48751 0.47483 0.25627 0.0
C5884 C 0.44835 0.49758 0.26718 0.0
C5885 C 0.45175 0.51323 0.26059 0.0
C5886 C 0.47432 0.48747 0.2566 0.0
C5887 C 0.46623 0.51522 0.25131 0.0
C5888 C 0.50251 0.47779 0.24816 0.0
C5889 C 0.49805 0.44955 0.26689 0.0
N5890 N 0.47706 0.50255 0.24975 0.0
N5891 N 0.4857 0.46071 0.26515 0.0
H5892 H 0.60806 0.77646 0.49378 0.0
H5893 H 0.58082 0.68683 0.52359 0.0
H5894 H 0.63801 0.7449 0.52447 0.0
H5895 H 0.54962 0.71944 0.49533 0.0
H5896 H 0.60352 0.7062 0.52029 0.0
H5897 H 0.58834 0.75402 0.49051 0.0
C5898 C 0.61061 0.76477 0.4997 0.0
C5899 C 0.62463 0.76269 0.50965 0.0
C5900 C 0.59176 0.70905 0.51467 0.0
C5901 C 0.60199 0.73694 0.50598 0.0
C5902 C 0.57875 0.69798 0.51655 0.0
C5903 C 0.56315 0.7016 0.50996 0.0
C5904 C 0.58918 0.72391 0.5062 0.0
C5905 C 0.56134 0.71618 0.50079 0.0
C5906 C 0.59931 0.75196 0.49782 0.0
C5907 C 0.6273 0.74718 0.51685 0.0
N5908 N 0.57414 0.72688 0.49934 0.0
N5909 N 0.616 0.73496 0.51502 0.0
H5910 H 0.38822 0.83163 0.77551 0.0
H5911 H 0.29849 0.85758 0.74463 0.0
H5912 H 0.35677 0.8003 0.7461 0.0
H5913 H 0.32925 0.888 0.77568 0.0
H5914 H 0.32128 0.83818 0.74165 0.0
H5915 H 0.3684 0.85399 0.77227 0.0
C5916 C 0.37724 0.82947 0.76822 0.0
C5917 C 0.37407 0.81393 0.76128 0.0
C5918 C 0.32309 0.84918 0.74899 0.0
C5919 C 0.35125 0.83954 0.7576 0.0
C5920 C 0.31007 0.86029 0.75069 0.0
C5921 C 0.31183 0.87435 0.76064 0.0
C5922 C 0.33798 0.8521 0.75731 0.0
C5923 C 0.32721 0.87725 0.76805 0.0
C5924 C 0.36591 0.84227 0.76639 0.0
C5925 C 0.35968 0.81198 0.75184 0.0
N5926 N 0.33962 0.86613 0.76637 0.0
N5927 N 0.34873 0.82457 0.75043 0.0
H5928 H 0.74693 0.63934 0.52359 0.0
H5929 H 0.71931 0.55027 0.49256 0.0
H5930 H 0.77795 0.60705 0.49478 0.0
H5931 H 0.68943 0.58165 0.52351 0.0
H5932 H 0.7391 0.57269 0.48951 0.0
H5933 H 0.72411 0.62016 0.51995 0.0
C5934 C 0.74893 0.6283 0.51637 0.0
C5935 C 0.7645 0.6247 0.50972 0.0
C5936 C 0.72813 0.57472 0.49683 0.0
C5937 C 0.73837 0.60261 0.50556 0.0
C5938 C 0.71679 0.56192 0.49857 0.0
C5939 C 0.70279 0.56395 0.50856 0.0
C5940 C 0.72549 0.58966 0.50515 0.0
C5941 C 0.70014 0.57941 0.51588 0.0
C5942 C 0.73587 0.61734 0.5143 0.0
C5943 C 0.76624 0.61027 0.50031 0.0
N5944 N 0.71148 0.5916 0.51417 0.0
N5945 N 0.75339 0.59967 0.49867 0.0
H5946 H 0.29883 0.96915 0.08243 0.0
H5947 H 0.38878 0.99523 0.0524 0.0
H5948 H 0.32996 0.93878 0.0517 0.0
H5949 H 0.35666 0.02684 0.08078 0.0
H5950 H 0.36907 0.9728 0.05568 0.0
H5951 H 0.3215 0.98865 0.08554 0.0
C5952 C 0.31046 0.96647 0.07646 0.0
C5953 C 0.31237 0.95239 0.06656 0.0
C5954 C 0.3664 0.9846 0.06132 0.0
C5955 C 0.33838 0.97476 0.07005 0.0
C5956 C 0.37767 0.99744 0.05947 0.0
C5957 C 0.37428 0.01307 0.06609 0.0
C5958 C 0.35159 0.98738 0.06982 0.0
C5959 C 0.35974 0.01508 0.07528 0.0
C5960 C 0.32341 0.97764 0.07824 0.0
C5961 C 0.32782 0.94954 0.05928 0.0
N5962 N 0.34885 0.00244 0.07671 0.0
N5963 N 0.34016 0.96071 0.06104 0.0
H5964 H 0.60775 0.05 0.33195 0.0
H5965 H 0.58103 0.13969 0.30187 0.0
H5966 H 0.63766 0.08107 0.30071 0.0
H5967 H 0.55004 0.10774 0.3311 0.0
H5968 H 0.6036 0.12012 0.30499 0.0
H5969 H 0.58834 0.07269 0.33536 0.0
C5970 C 0.61035 0.06163 0.32593 0.0
C5971 C 0.62426 0.0635 0.31579 0.0
C5972 C 0.59191 0.11747 0.31086 0.0
C5973 C 0.60199 0.08954 0.31963 0.0
C5974 C 0.57899 0.12865 0.30909 0.0
C5975 C 0.56348 0.12526 0.316 0.0
C5976 C 0.58933 0.10272 0.31954 0.0
C5977 C 0.5617 0.11082 0.32538 0.0
C5978 C 0.59923 0.07459 0.32789 0.0
C5979 C 0.62702 0.07895 0.30847 0.0
N5980 N 0.5744 0.1 0.32671 0.0
N5981 N 0.61589 0.0913 0.3104 0.0
H5982 H 0.27752 0.21916 0.83336 0.0
H5983 H 0.18794 0.24507 0.80213 0.0
H5984 H 0.24688 0.18874 0.80218 0.0
H5985 H 0.21935 0.27645 0.83153 0.0
H5986 H 0.20765 0.22265 0.80561 0.0
H5987 H 0.25467 0.23848 0.83636 0.0
C5988 C 0.26595 0.21643 0.82728 0.0
C5989 C 0.26425 0.2024 0.81727 0.0
C5990 C 0.21015 0.2344 0.81144 0.0
C5991 C 0.23804 0.22457 0.82063 0.0
C5992 C 0.19888 0.24723 0.80947 0.0
C5993 C 0.20209 0.2628 0.81632 0.0
C5994 C 0.22478 0.23713 0.82028 0.0
C5995 C 0.21642 0.26474 0.82585 0.0
C5996 C 0.2529 0.2275 0.829 0.0
C5997 C 0.24888 0.19947 0.80985 0.0
N5998 N 0.22732 0.25212 0.82738 0.0
N5999 N 0.23644 0.21055 0.81154 0.0
H6000 H 0.02341 0.13908 0.74562 0.0
H6001 H 0.99336 0.04929 0.71924 0.0
H6002 H 0.99466 0.10705 0.77698 0.0
H6003 H 0.02376 0.08068 0.68882 0.0
H6004 H 0.99006 0.07194 0.73873 0.0
H6005 H 0.01999 0.11954 0.72307 0.0
C6006 C 0.01624 0.12802 0.74775 0.0
C6007 C 0.00955 0.1246 0.76335 0.0
C6008 C 0.99731 0.07392 0.72771 0.0
C6009 C 0.00566 0.1021 0.73751 0.0
C6010 C 0.9992 0.06098 0.71654 0.0
C6011 C 0.00909 0.06295 0.70247 0.0
C6012 C 0.0054 0.08895 0.72483 0.0
C6013 C 0.01619 0.07848 0.69959 0.0
C6014 C 0.01429 0.11685 0.73484 0.0
C6015 C 0.00021 0.11015 0.76525 0.0
N6016 N 0.01436 0.0908 0.71076 0.0
N6017 N 0.99871 0.09934 0.75254 0.0
H6018 H 0.02705 0.74446 0.46877 0.0
H6019 H 0.93828 0.77651 0.49626 0.0
H6020 H 0.99633 0.77619 0.43901 0.0
H6021 H 0.96962 0.74612 0.52676 0.0
H6022 H 0.95766 0.77314 0.47355 0.0
H6023 H 0.00445 0.74154 0.48837 0.0
C6024 C 0.01551 0.75068 0.46624 0.0
C6025 C 0.01372 0.76082 0.45232 0.0
C6026 C 0.96022 0.76709 0.48517 0.0
C6027 C 0.98779 0.75756 0.47481 0.0
C6028 C 0.94915 0.769 0.49817 0.0
C6029 C 0.95242 0.76181 0.51357 0.0
C6030 C 0.97473 0.75796 0.48757 0.0
C6031 C 0.96665 0.75207 0.51519 0.0
C6032 C 0.0026 0.74901 0.47747 0.0
C6033 C 0.99838 0.76841 0.44965 0.0
N6034 N 0.97736 0.75058 0.50241 0.0
N6035 N 0.98609 0.76677 0.46088 0.0
H6036 H 0.3325 0.77685 0.21915 0.0
H6037 H 0.30144 0.68774 0.24673 0.0
H6038 H 0.30113 0.74572 0.18943 0.0
H6039 H 0.33087 0.71971 0.2775 0.0
H6040 H 0.30474 0.7071 0.224 0.0
H6041 H 0.33555 0.75437 0.23887 0.0
C6042 C 0.32638 0.76525 0.21665 0.0
C6043 C 0.31631 0.7633 0.2027 0.0
C6044 C 0.31061 0.70981 0.23568 0.0
C6045 C 0.31973 0.73751 0.22533 0.0
C6046 C 0.30873 0.69875 0.2487 0.0
C6047 C 0.31566 0.7022 0.26418 0.0
C6048 C 0.31943 0.72449 0.23814 0.0
C6049 C 0.32514 0.71659 0.26587 0.0
C6050 C 0.32813 0.75241 0.22795 0.0
C6051 C 0.30886 0.7479 0.20009 0.0
N6052 N 0.32659 0.72729 0.25307 0.0
N6053 N 0.31057 0.73567 0.21139 0.0
H6054 H 0.38859 0.77541 0.83153 0.0
H6055 H 0.29905 0.74459 0.85793 0.0
H6056 H 0.35699 0.74594 0.80041 0.0
H6057 H 0.32989 0.77581 0.8881 0.0
H6058 H 0.32179 0.74144 0.83853 0.0
H6059 H 0.36896 0.77212 0.85403 0.0
C6060 C 0.37761 0.7681 0.82945 0.0
C6061 C 0.37433 0.76117 0.81393 0.0
C6062 C 0.32363 0.74885 0.84948 0.0
C6063 C 0.35174 0.75743 0.83969 0.0
C6064 C 0.31064 0.75066 0.86059 0.0
C6065 C 0.31243 0.76071 0.87457 0.0
C6066 C 0.33853 0.75718 0.85231 0.0
C6067 C 0.32783 0.7681 0.8774 0.0
C6068 C 0.36639 0.76624 0.84233 0.0
C6069 C 0.35997 0.75168 0.81208 0.0
N6070 N 0.34021 0.76633 0.86628 0.0
N6071 N 0.34912 0.75025 0.82475 0.0
H6072 H 0.33279 0.10762 0.54932 0.0
H6073 H 0.30149 0.08164 0.63886 0.0
H6074 H 0.30164 0.13806 0.57995 0.0
H6075 H 0.33093 0.05028 0.60747 0.0
H6076 H 0.30485 0.10402 0.61909 0.0
H6077 H 0.33565 0.08821 0.5721 0.0
C6078 C 0.32669 0.11034 0.56087 0.0
C6079 C 0.31674 0.1244 0.56259 0.0
C6080 C 0.3107 0.09229 0.6166 0.0
C6081 C 0.31993 0.10214 0.58873 0.0
C6082 C 0.3088 0.07948 0.6279 0.0
C6083 C 0.31572 0.06393 0.62473 0.0
C6084 C 0.31954 0.08956 0.60198 0.0
C6085 C 0.3252 0.06197 0.61037 0.0
C6086 C 0.32832 0.09922 0.57388 0.0
C6087 C 0.30927 0.12731 0.57795 0.0
N6088 N 0.32668 0.07458 0.59945 0.0
N6089 N 0.31088 0.11618 0.59035 0.0
H6090 H 0.02806 0.08345 0.3576 0.0
H6091 H 0.96431 0.08773 0.30112 0.0
H6092 H 0.99596 0.05242 0.38657 0.0
H6093 H 0.9433 0.04726 0.32853 0.0
H6094 H 0.98405 0.09209 0.32319 0.0
H6095 H 0.00625 0.08693 0.33757 0.0
C6096 C 0.01629 0.0776 0.35991 0.0
C6097 C 0.01396 0.06746 0.37374 0.0
C6098 C 0.97532 0.08211 0.3244 0.0
C6099 C 0.98851 0.07164 0.3508 0.0
C6100 C 0.96388 0.07972 0.31179 0.0
C6101 C 0.95232 0.06689 0.31279 0.0
C6102 C 0.97541 0.07139 0.33803 0.0
C6103 C 0.9521 0.05718 0.32711 0.0
C6104 C 0.00367 0.0797 0.34844 0.0
C6105 C 0.9984 0.06024 0.37604 0.0
N6106 N 0.96359 0.05952 0.33905 0.0
N6107 N 0.98636 0.06232 0.36459 0.0
H6108 H 0.08292 0.52662 0.85763 0.0
H6109 H 0.05314 0.4369 0.83069 0.0
H6110 H 0.05255 0.49499 0.88784 0.0
H6111 H 0.08157 0.46932 0.79946 0.0
H6112 H 0.0565 0.45631 0.85336 0.0
H6113 H 0.08622 0.50412 0.83797 0.0
C6114 C 0.07708 0.51491 0.86025 0.0
C6115 C 0.0672 0.51282 0.87432 0.0
C6116 C 0.06214 0.45911 0.84159 0.0
C6117 C 0.0709 0.487 0.85176 0.0
C6118 C 0.06023 0.44801 0.82861 0.0
C6119 C 0.06685 0.45158 0.81301 0.0
C6120 C 0.07067 0.47393 0.83899 0.0
C6121 C 0.07608 0.46611 0.81118 0.0
C6122 C 0.07897 0.50205 0.84899 0.0
C6123 C 0.06011 0.49727 0.87709 0.0
N6124 N 0.07755 0.47684 0.82396 0.0
N6125 N 0.06195 0.48503 0.86582 0.0
H6126 H 0.63904 0.79964 0.58068 0.0
H6127 H 0.55007 0.83162 0.60771 0.0
H6128 H 0.60792 0.83018 0.55011 0.0
H6129 H 0.58052 0.7997 0.63754 0.0
H6130 H 0.57278 0.83452 0.58823 0.0
H6131 H 0.61946 0.80286 0.60325 0.0
C6132 C 0.62819 0.80716 0.57873 0.0
C6133 C 0.62503 0.81444 0.56334 0.0
C6134 C 0.57454 0.82701 0.59912 0.0
C6135 C 0.60249 0.8181 0.58918 0.0
C6136 C 0.56157 0.82534 0.61028 0.0
C6137 C 0.56326 0.81518 0.62419 0.0
C6138 C 0.58932 0.81842 0.60184 0.0
C6139 C 0.57855 0.80752 0.6269 0.0
C6140 C 0.617 0.80898 0.59165 0.0
C6141 C 0.61081 0.82418 0.56166 0.0
N6142 N 0.59091 0.80916 0.61574 0.0
N6143 N 0.59999 0.82557 0.57436 0.0
H6144 H 0.24426 0.29889 0.35692 0.0
H6145 H 0.27314 0.38911 0.33067 0.0
H6146 H 0.27409 0.33073 0.38746 0.0
H6147 H 0.24539 0.3565 0.29901 0.0
H6148 H 0.26983 0.36954 0.3532 0.0
H6149 H 0.24084 0.32144 0.33733 0.0
C6150 C 0.24996 0.31066 0.35962 0.0
C6151 C 0.25972 0.31279 0.37376 0.0
C6152 C 0.26433 0.36673 0.34137 0.0
C6153 C 0.25588 0.33867 0.3513 0.0
C6154 C 0.26621 0.37792 0.32847 0.0
C6155 C 0.25978 0.37435 0.3128 0.0
C6156 C 0.25602 0.35181 0.33861 0.0
C6157 C 0.25074 0.35972 0.3108 0.0
C6158 C 0.248 0.32354 0.3484 0.0
C6159 C 0.26663 0.3284 0.37664 0.0
N6160 N 0.2493 0.3489 0.3235 0.0
N6161 N 0.26472 0.34067 0.36542 0.0
H6162 H 0.6884 0.80019 0.7458 0.0
H6163 H 0.7775 0.83171 0.71873 0.0
H6164 H 0.71984 0.83027 0.77651 0.0
H6165 H 0.74693 0.79977 0.68906 0.0
H6166 H 0.75479 0.83482 0.73818 0.0
H6167 H 0.70793 0.80344 0.7232 0.0
C6168 C 0.69932 0.80762 0.74778 0.0
C6169 C 0.70259 0.81474 0.76321 0.0
C6170 C 0.75301 0.82726 0.72733 0.0
C6171 C 0.72506 0.81844 0.73733 0.0
C6172 C 0.76598 0.82548 0.71619 0.0
C6173 C 0.76425 0.81523 0.70234 0.0
C6174 C 0.7382 0.8187 0.72465 0.0
C6175 C 0.74894 0.80762 0.69965 0.0
C6176 C 0.71048 0.80945 0.73484 0.0
C6177 C 0.71687 0.82438 0.76491 0.0
N6178 N 0.73658 0.80937 0.7108 0.0
N6179 N 0.72766 0.82579 0.75219 0.0
H6180 H 0.24319 0.46902 0.52762 0.0
H6181 H 0.2727 0.49487 0.43748 0.0
H6182 H 0.27345 0.43845 0.49624 0.0
H6183 H 0.2445 0.52655 0.46968 0.0
H6184 H 0.26929 0.47241 0.45713 0.0
H6185 H 0.23981 0.48841 0.50489 0.0
C6186 C 0.24899 0.46627 0.51592 0.0
C6187 C 0.25886 0.45218 0.51396 0.0
C6188 C 0.26371 0.48423 0.45982 0.0
C6189 C 0.25506 0.47442 0.48788 0.0
C6190 C 0.26564 0.49709 0.44859 0.0
C6191 C 0.25912 0.51275 0.45203 0.0
C6192 C 0.25525 0.48703 0.47466 0.0
C6193 C 0.24993 0.51477 0.46657 0.0
C6194 C 0.24705 0.47738 0.50293 0.0
C6195 C 0.26591 0.44923 0.49842 0.0
N6196 N 0.24843 0.50211 0.47743 0.0
N6197 N 0.26402 0.46034 0.48605 0.0
H6198 H 0.54966 0.99419 0.21788 0.0
H6199 H 0.63875 0.02572 0.24502 0.0
H6200 H 0.58032 0.02595 0.18812 0.0
H6201 H 0.60729 0.99566 0.27571 0.0
H6202 H 0.61925 0.02245 0.22239 0.0
H6203 H 0.57234 0.99112 0.23737 0.0
C6204 C 0.5612 0.00038 0.21532 0.0
C6205 C 0.56295 0.01057 0.20143 0.0
C6206 C 0.61669 0.01643 0.23403 0.0
C6207 C 0.58898 0.00715 0.2238 0.0
C6208 C 0.62783 0.01829 0.24699 0.0
C6209 C 0.62456 0.01117 0.26243 0.0
C6210 C 0.60211 0.00744 0.23651 0.0
C6211 C 0.61027 0.00154 0.26411 0.0
C6212 C 0.57416 0.99863 0.22649 0.0
C6213 C 0.57829 0.01813 0.19873 0.0
N6214 N 0.5995 0.00011 0.25138 0.0
N6215 N 0.59064 0.01641 0.20991 0.0
H6216 H 0.10675 0.77705 0.99436 0.0
H6217 H 0.08009 0.68732 0.0244 0.0
H6218 H 0.13704 0.74561 0.02485 0.0
H6219 H 0.04884 0.71945 0.99564 0.0
H6220 H 0.10266 0.70685 0.0211 0.0
H6221 H 0.08715 0.75449 0.99115 0.0
C6222 C 0.10939 0.76537 0.00024 0.0
C6223 C 0.12347 0.76335 0.01012 0.0
C6224 C 0.09091 0.70956 0.01538 0.0
C6225 C 0.10098 0.73746 0.00653 0.0
C6226 C 0.07799 0.69839 0.01725 0.0
C6227 C 0.06242 0.70184 0.01052 0.0
C6228 C 0.08828 0.72434 0.00676 0.0
C6229 C 0.06055 0.71633 0.00122 0.0
C6230 C 0.09816 0.75248 0.9984 0.0
C6231 C 0.12627 0.74784 0.01729 0.0
N6232 N 0.07327 0.72712 -0.00022 0.0
N6233 N 0.11505 0.73557 0.01549 0.0
H6234 H 0.60723 0.54943 0.83334 0.0
H6235 H 0.58082 0.63941 0.80388 0.0
H6236 H 0.63781 0.58124 0.80354 0.0
H6237 H 0.54904 0.60673 0.83141 0.0
H6238 H 0.60341 0.61996 0.80748 0.0
H6239 H 0.58755 0.57193 0.83657 0.0
C6240 C 0.60993 0.56118 0.82762 0.0
C6241 C 0.6241 0.56332 0.81791 0.0
C6242 C 0.59154 0.61711 0.81287 0.0
C6243 C 0.60153 0.58913 0.82152 0.0
C6244 C 0.5786 0.62823 0.81082 0.0
C6245 C 0.56288 0.6246 0.81711 0.0
C6246 C 0.58877 0.60221 0.82121 0.0
C6247 C 0.56087 0.60999 0.82617 0.0
C6248 C 0.59865 0.57403 0.82947 0.0
C6249 C 0.62697 0.57892 0.81095 0.0
N6250 N 0.57361 0.59924 0.82778 0.0
N6251 N 0.61569 0.59115 0.81275 0.0
H6252 H 0.49672 0.38941 0.55145 0.0
H6253 H 0.46955 0.30004 0.58215 0.0
H6254 H 0.52772 0.35735 0.58055 0.0
H6255 H 0.43961 0.33123 0.55107 0.0
H6256 H 0.48923 0.32255 0.58522 0.0
H6257 H 0.47407 0.36995 0.55474 0.0
C6258 C 0.49876 0.37836 0.55867 0.0
C6259 C 0.51428 0.37492 0.56551 0.0
C6260 C 0.47827 0.32452 0.57786 0.0
C6261 C 0.48833 0.35252 0.56925 0.0
C6262 C 0.467 0.31166 0.5761 0.0
C6263 C 0.45299 0.31362 0.56611 0.0
C6264 C 0.47557 0.33945 0.56954 0.0
C6265 C 0.45031 0.32905 0.55873 0.0
C6266 C 0.48579 0.36725 0.56053 0.0
C6267 C 0.51606 0.36047 0.57489 0.0
N6268 N 0.46158 0.3413 0.56045 0.0
N6269 N 0.5033 0.34972 0.57633 0.0
H6270 H 0.71956 0.27738 0.33216 0.0
H6271 H 0.74615 0.18763 0.30209 0.0
H6272 H 0.6895 0.24622 0.30116 0.0
H6273 H 0.77721 0.2195 0.33133 0.0
H6274 H 0.72363 0.20726 0.3052 0.0
H6275 H 0.73902 0.25471 0.3355 0.0
C6276 C 0.71694 0.26574 0.32619 0.0
C6277 C 0.70297 0.26383 0.31614 0.0
C6278 C 0.73532 0.20989 0.31107 0.0
C6279 C 0.72529 0.23781 0.31988 0.0
C6280 C 0.74822 0.19867 0.30931 0.0
C6281 C 0.76373 0.20202 0.31623 0.0
C6282 C 0.73793 0.22462 0.31976 0.0
C6283 C 0.76555 0.21646 0.32561 0.0
C6284 C 0.72808 0.25279 0.3281 0.0
C6285 C 0.70018 0.24837 0.30886 0.0
N6286 N 0.75287 0.22731 0.32693 0.0
N6287 N 0.71133 0.23603 0.31074 0.0
H6288 H 0.29848 0.46932 0.58218 0.0
H6289 H 0.38846 0.49516 0.55204 0.0
H6290 H 0.32962 0.43873 0.55168 0.0
H6291 H 0.3566 0.52675 0.58072 0.0
H6292 H 0.36868 0.47279 0.55532 0.0
H6293 H 0.32119 0.48879 0.58525 0.0
C6294 C 0.31013 0.46658 0.57626 0.0
C6295 C 0.31202 0.45245 0.56644 0.0
C6296 C 0.36608 0.48457 0.56103 0.0
C6297 C 0.33808 0.47478 0.56987 0.0
C6298 C 0.37739 0.49738 0.55917 0.0
C6299 C 0.3741 0.51299 0.56589 0.0
C6300 C 0.35132 0.48736 0.56961 0.0
C6301 C 0.35961 0.51501 0.57515 0.0
C6302 C 0.3231 0.47773 0.57802 0.0
C6303 C 0.32748 0.44953 0.55921 0.0
N6304 N 0.34868 0.5024 0.57658 0.0
N6305 N 0.33984 0.46068 0.56094 0.0
H6306 H 0.77757 0.10792 0.99475 0.0
H6307 H 0.68798 0.0818 0.02576 0.0
H6308 H 0.74709 0.138 0.0264 0.0
H6309 H 0.71934 0.0507 0.996 0.0
H6310 H 0.70778 0.10418 0.02264 0.0
H6311 H 0.75473 0.08863 0.99165 0.0
C6312 C 0.76604 0.11058 0.00093 0.0
C6313 C 0.76437 0.12451 0.01107 0.0
C6314 C 0.71025 0.09251 0.01666 0.0
C6315 C 0.73816 0.10238 0.0076 0.0
C6316 C 0.69893 0.0797 0.01843 0.0
C6317 C 0.70209 0.06421 0.01136 0.0
C6318 C 0.72488 0.08984 0.00781 0.0
C6319 C 0.71644 0.06234 0.00185 0.0
C6320 C 0.75299 0.09953 0.99915 0.0
C6321 C 0.74905 0.12734 0.01862 0.0
N6322 N 0.72738 0.07494 0.0005 0.0
N6323 N 0.73661 0.11629 0.01687 0.0
H6324 H 0.52755 0.96917 0.74442 0.0
H6325 H 0.4375 0.99459 0.7746 0.0
H6326 H 0.49669 0.9386 0.77523 0.0
H6327 H 0.46918 0.02627 0.74583 0.0
H6328 H 0.45731 0.97226 0.77122 0.0
H6329 H 0.50466 0.98839 0.74116 0.0
C6330 C 0.51593 0.96639 0.75037 0.0
C6331 C 0.51417 0.95235 0.76035 0.0
C6332 C 0.45985 0.98405 0.76551 0.0
C6333 C 0.4879 0.97439 0.75669 0.0
C6334 C 0.44853 0.99683 0.76743 0.0
C6335 C 0.45178 0.01246 0.76073 0.0
C6336 C 0.47459 0.98689 0.7569 0.0
C6337 C 0.46622 0.01451 0.75139 0.0
C6338 C 0.50285 0.9774 0.7485 0.0
C6339 C 0.49873 0.94935 0.7676 0.0
N6340 N 0.47717 0.00194 0.74992 0.0
N6341 N 0.48627 0.96037 0.76576 0.0
H6342 H 0.88892 0.83096 0.27342 0.0
H6343 H 0.79885 0.85694 0.24383 0.0
H6344 H 0.85656 0.79914 0.24556 0.0
H6345 H 0.83059 0.88784 0.27339 0.0
H6346 H 0.82142 0.83733 0.24071 0.0
H6347 H 0.86934 0.85345 0.26986 0.0
C6348 C 0.87778 0.82871 0.26642 0.0
C6349 C 0.87429 0.81301 0.26002 0.0
C6350 C 0.82349 0.84848 0.24773 0.0
C6351 C 0.85174 0.83878 0.25597 0.0
C6352 C 0.8106 0.85972 0.24952 0.0
C6353 C 0.8127 0.87397 0.25912 0.0
C6354 C 0.8386 0.85147 0.25563 0.0
C6355 C 0.82829 0.87693 0.26605 0.0
C6356 C 0.86659 0.8416 0.26439 0.0
C6357 C 0.85972 0.81096 0.25088 0.0
N6358 N 0.84057 0.8657 0.26431 0.0
N6359 N 0.8489 0.82364 0.2493 0.0
H6360 H 0.08034 0.80098 0.13922 0.0
H6361 H 0.10715 0.83201 0.04988 0.0
H6362 H 0.04942 0.83063 0.10757 0.0
H6363 H 0.13707 0.80053 0.08068 0.0
H6364 H 0.08769 0.83516 0.07257 0.0
H6365 H 0.10292 0.80426 0.11968 0.0
C6366 C 0.07831 0.80832 0.12826 0.0
C6367 C 0.06283 0.81531 0.12493 0.0
C6368 C 0.0986 0.8277 0.07441 0.0
C6369 C 0.08869 0.81904 0.10244 0.0
C6370 C 0.10974 0.82589 0.06145 0.0
C6371 C 0.12367 0.81576 0.06325 0.0
C6372 C 0.10135 0.81929 0.08929 0.0
C6373 C 0.12642 0.80829 0.07862 0.0
C6374 C 0.09124 0.81018 0.11709 0.0
C6375 C 0.06106 0.82484 0.11058 0.0
N6376 N 0.11527 0.81007 0.09098 0.0
N6377 N 0.07377 0.82626 0.09979 0.0
H6378 H 0.77447 0.88909 0.33007 0.0
H6379 H 0.7439 0.79977 0.35748 0.0
H6380 H 0.7455 0.85689 0.2991 0.0
H6381 H 0.7748 0.83117 0.38739 0.0
H6382 H 0.74078 0.82222 0.33773 0.0
H6383 H 0.77111 0.86974 0.35279 0.0
C6384 C 0.76727 0.87803 0.32805 0.0
C6385 C 0.76048 0.87451 0.31252 0.0
C6386 C 0.7481 0.82425 0.3487 0.0
C6387 C 0.75665 0.85224 0.33855 0.0
C6388 C 0.74989 0.81142 0.36001 0.0
C6389 C 0.75986 0.81346 0.37402 0.0
C6390 C 0.75636 0.83922 0.35137 0.0
C6391 C 0.76716 0.82893 0.37669 0.0
C6392 C 0.76536 0.86698 0.34107 0.0
C6393 C 0.75111 0.86006 0.31077 0.0
N6394 N 0.76541 0.84114 0.36538 0.0
N6395 N 0.74963 0.84937 0.32358 0.0
H6396 H 0.68431 0.52085 0.58055 0.0
H6397 H 0.74595 0.52835 0.63881 0.0
H6398 H 0.72286 0.50301 0.54851 0.0
H6399 H 0.7754 0.49737 0.60708 0.0
H6400 H 0.72325 0.52604 0.61964 0.0
H6401 H 0.70279 0.51804 0.60393 0.0
C6402 C 0.69672 0.51638 0.57843 0.0
C6403 C 0.70213 0.51248 0.56247 0.0
C6404 C 0.73443 0.51933 0.61695 0.0
C6405 C 0.72374 0.50983 0.58922 0.0
C6406 C 0.74756 0.52079 0.62793 0.0
C6407 C 0.76272 0.51318 0.62453 0.0
C6408 C 0.7364 0.5101 0.60241 0.0
C6409 C 0.76399 0.50355 0.6102 0.0
C6410 C 0.70739 0.51493 0.59182 0.0
C6411 C 0.71819 0.50634 0.56055 0.0
N6412 N 0.75107 0.50245 0.5996 0.0
N6413 N 0.72848 0.5054 0.57373 0.0
H6414 H 0.08253 0.80006 0.4691 0.0
H6415 H 0.05056 0.88885 0.49682 0.0
H6416 H 0.05085 0.83088 0.43939 0.0
H6417 H 0.08083 0.85737 0.5273 0.0
H6418 H 0.05381 0.86944 0.47412 0.0
H6419 H 0.08532 0.82256 0.48885 0.0
C6420 C 0.07629 0.8116 0.46661 0.0
C6421 C 0.06622 0.81345 0.45265 0.0
C6422 C 0.05987 0.86685 0.48573 0.0
C6423 C 0.06933 0.83926 0.47532 0.0
C6424 C 0.05802 0.87795 0.49873 0.0
C6425 C 0.06523 0.87465 0.51412 0.0
C6426 C 0.06893 0.8523 0.48811 0.0
C6427 C 0.07489 0.86037 0.51574 0.0
C6428 C 0.07789 0.82445 0.47793 0.0
C6429 C 0.05859 0.82878 0.45005 0.0
N6430 N 0.07631 0.84965 0.50295 0.0
N6431 N 0.06016 0.84102 0.46136 0.0
H6432 H 0.77424 0.43735 0.99598 0.0
H6433 H 0.74449 0.52719 0.9693 0.0
H6434 H 0.74571 0.46965 0.02726 0.0
H6435 H 0.77497 0.4957 0.93904 0.0
H6436 H 0.74124 0.50464 0.98891 0.0
H6437 H 0.77102 0.4569 0.9734 0.0
C6438 C 0.76715 0.44847 0.99809 0.0
C6439 C 0.76046 0.45195 0.01367 0.0
C6440 C 0.74851 0.50262 0.9779 0.0
C6441 C 0.7568 0.47446 0.9878 0.0
C6442 C 0.75037 0.5155 0.96666 0.0
C6443 C 0.76025 0.51346 0.95259 0.0
C6444 C 0.75661 0.48758 0.97509 0.0
C6445 C 0.7674 0.49794 0.9498 0.0
C6446 C 0.76533 0.45964 0.98516 0.0
C6447 C 0.75125 0.4665 0.01554 0.0
N6448 N 0.76558 0.48567 0.96103 0.0
N6449 N 0.74986 0.4773 0.00282 0.0
H6450 H 0.13898 0.52531 0.24572 0.0
H6451 H 0.04977 0.49385 0.21893 0.0
H6452 H 0.10747 0.49554 0.27664 0.0
H6453 H 0.08028 0.52575 0.18915 0.0
H6454 H 0.07254 0.49072 0.23831 0.0
H6455 H 0.11945 0.52194 0.22314 0.0
C6456 C 0.12805 0.51792 0.24774 0.0
C6457 C 0.12476 0.51093 0.26323 0.0
C6458 C 0.0743 0.49828 0.22745 0.0
C6459 C 0.10228 0.5071 0.23738 0.0
C6460 C 0.06129 0.50007 0.21635 0.0
C6461 C 0.06298 0.51031 0.20249 0.0
C6462 C 0.0891 0.50681 0.22473 0.0
C6463 C 0.0783 0.5179 0.19975 0.0
C6464 C 0.11688 0.51602 0.23482 0.0
C6465 C 0.11045 0.50134 0.26501 0.0
N6466 N 0.0907 0.51614 0.21086 0.0
N6467 N 0.09966 0.49986 0.25229 0.0
H6468 H 0.33013 0.55042 0.43786 0.0
H6469 H 0.35767 0.58202 0.52681 0.0
H6470 H 0.29943 0.58023 0.46956 0.0
H6471 H 0.38739 0.55043 0.49591 0.0
H6472 H 0.33797 0.58495 0.50429 0.0
H6473 H 0.35282 0.55374 0.45726 0.0
C6474 C 0.32817 0.55779 0.44881 0.0
C6475 C 0.31272 0.56484 0.45218 0.0
C6476 C 0.34889 0.57751 0.50238 0.0
C6477 C 0.33872 0.56863 0.4745 0.0
C6478 C 0.36017 0.57584 0.51525 0.0
C6479 C 0.37412 0.56574 0.51338 0.0
C6480 C 0.35151 0.569 0.48754 0.0
C6481 C 0.37674 0.55818 0.49802 0.0
C6482 C 0.34117 0.55968 0.4599 0.0
C6483 C 0.31104 0.57441 0.46651 0.0
N6484 N 0.36545 0.55982 0.48577 0.0
N6485 N 0.32382 0.57587 0.47722 0.0
H6486 H 0.49634 0.77503 0.93757 0.0
H6487 H 0.46934 0.74455 0.02708 0.0
H6488 H 0.52732 0.74581 0.96953 0.0
H6489 H 0.43941 0.7757 0.99594 0.0
H6490 H 0.48894 0.7414 0.00451 0.0
H6491 H 0.47374 0.77187 0.95711 0.0
C6492 C 0.49838 0.76781 0.94861 0.0
C6493 C 0.51388 0.7609 0.95201 0.0
C6494 C 0.47801 0.7488 0.00257 0.0
C6495 C 0.488 0.75731 0.97451 0.0
C6496 C 0.46677 0.7506 0.01546 0.0
C6497 C 0.45279 0.76063 0.01353 0.0
C6498 C 0.47529 0.7571 0.98763 0.0
C6499 C 0.45009 0.76801 0.9981 0.0
C6500 C 0.48544 0.76602 0.95978 0.0
C6501 C 0.51567 0.75153 0.96645 0.0
N6502 N 0.46132 0.76623 0.98582 0.0
N6503 N 0.50294 0.75016 0.97725 0.0
H6504 H 0.80367 0.24554 0.18775 0.0
H6505 H 0.83258 0.21944 0.27804 0.0
H6506 H 0.83154 0.27721 0.22024 0.0
H6507 H 0.8028 0.18882 0.24624 0.0
H6508 H 0.83594 0.23902 0.25546 0.0
H6509 H 0.8069 0.22306 0.20741 0.0
C6510 C 0.81061 0.24775 0.19893 0.0
C6511 C 0.81711 0.26341 0.20244 0.0
C6512 C 0.8288 0.22793 0.25338 0.0
C6513 C 0.82077 0.23767 0.22508 0.0
C6514 C 0.82688 0.21672 0.26627 0.0
C6515 C 0.81716 0.20255 0.26416 0.0
C6516 C 0.82092 0.225 0.23825 0.0
C6517 C 0.81023 0.19965 0.24856 0.0
C6518 C 0.81244 0.23488 0.21017 0.0
C6519 C 0.82614 0.26542 0.21707 0.0
N6520 N 0.8121 0.21086 0.23627 0.0
N6521 N 0.82754 0.25276 0.22794 0.0
H6522 H 0.83312 0.04917 0.10717 0.0
H6523 H 0.8045 0.13956 0.08127 0.0
H6524 H 0.80354 0.08104 0.13791 0.0
H6525 H 0.83208 0.10694 0.04947 0.0
H6526 H 0.80788 0.11996 0.10378 0.0
H6527 H 0.83664 0.07179 0.08769 0.0
C6528 C 0.8275 0.06096 0.10994 0.0
C6529 C 0.81777 0.06308 0.12411 0.0
C6530 C 0.81333 0.11716 0.09192 0.0
C6531 C 0.82173 0.08904 0.10176 0.0
C6532 C 0.81142 0.12837 0.07903 0.0
C6533 C 0.81777 0.1248 0.06333 0.0
C6534 C 0.8216 0.10222 0.08911 0.0
C6535 C 0.82679 0.11016 0.06129 0.0
C6536 C 0.82952 0.07388 0.09878 0.0
C6537 C 0.81096 0.07872 0.12707 0.0
N6538 N 0.82826 0.09932 0.07397 0.0
N6539 N 0.81292 0.09103 0.11591 0.0
H6540 H 0.43739 0.5507 0.33115 0.0
H6541 H 0.52626 0.58288 0.35823 0.0
H6542 H 0.4684 0.58144 0.30067 0.0
H6543 H 0.49618 0.55027 0.38768 0.0
H6544 H 0.50344 0.58593 0.33891 0.0
H6545 H 0.45696 0.5539 0.35372 0.0
C6546 C 0.44821 0.55827 0.32922 0.0
C6547 C 0.45135 0.56559 0.31385 0.0
C6548 C 0.50178 0.57824 0.34968 0.0
C6549 C 0.47388 0.56923 0.3397 0.0
C6550 C 0.51482 0.57649 0.36075 0.0
C6551 C 0.51327 0.56608 0.3745 0.0
C6552 C 0.48708 0.5695 0.35233 0.0
C6553 C 0.49805 0.55827 0.37717 0.0
C6554 C 0.4594 0.56008 0.34214 0.0
C6555 C 0.46553 0.57539 0.31221 0.0
N6556 N 0.48562 0.56 0.36608 0.0
N6557 N 0.47635 0.57677 0.32491 0.0
H6558 H 0.02428 0.18728 0.58151 0.0
H6559 H 0.99422 0.27721 0.60751 0.0
H6560 H 0.99568 0.21926 0.54998 0.0
H6561 H 0.02474 0.24602 0.63803 0.0
H6562 H 0.99103 0.25449 0.58808 0.0
H6563 H 0.02093 0.20695 0.60396 0.0
C6564 C 0.01716 0.19835 0.57932 0.0
C6565 C 0.01048 0.20172 0.56371 0.0
C6566 C 0.99829 0.25257 0.59911 0.0
C6567 C 0.00667 0.22437 0.58942 0.0
C6568 C 0.00012 0.26555 0.61024 0.0
C6569 C 0.01 0.26364 0.62433 0.0
C6570 C 0.00642 0.23758 0.60204 0.0
C6571 C 0.01717 0.24816 0.62725 0.0
C6572 C 0.01525 0.2096 0.59218 0.0
C6573 C 0.00121 0.21621 0.56173 0.0
N6574 N 0.01539 0.2358 0.61612 0.0
N6575 N -0.00026 0.22708 0.57437 0.0
H6576 H 0.02803 0.85703 0.58347 0.0
H6577 H 0.93751 0.83164 0.55484 0.0
H6578 H 0.9959 0.88832 0.55476 0.0
H6579 H 0.97018 0.79941 0.58185 0.0
H6580 H 0.95708 0.85411 0.55863 0.0
H6581 H 0.00539 0.83752 0.58689 0.0
C6582 C 0.01618 0.85991 0.57804 0.0
C6583 C 0.01398 0.87423 0.56855 0.0
C6584 C 0.9599 0.84216 0.56387 0.0
C6585 C 0.98803 0.85187 0.57238 0.0
C6586 C 0.94872 0.8293 0.56172 0.0
C6587 C 0.95231 0.81349 0.56778 0.0
C6588 C 0.97485 0.83922 0.57208 0.0
C6589 C 0.96695 0.81131 0.57677 0.0
C6590 C 0.00325 0.84874 0.57999 0.0
C6591 C 0.99828 0.87735 0.56197 0.0
N6592 N 0.97777 0.82397 0.57847 0.0
N6593 N 0.98597 0.86617 0.56385 0.0
H6594 H 0.63956 0.24582 0.02568 0.0
H6595 H 0.58088 0.18475 0.01773 0.0
H6596 H 0.60715 0.2765 0.99666 0.0
H6597 H 0.54851 0.22394 0.00203 0.0
H6598 H 0.60426 0.20319 0.01476 0.0
H6599 H 0.62028 0.22328 0.02299 0.0
C6600 C 0.6285 0.24774 0.01845 0.0
C6601 C 0.62495 0.26319 0.01154 0.0
C6602 C 0.59209 0.20794 0.01217 0.0
C6603 C 0.60267 0.23705 0.00802 0.0
C6604 C 0.57869 0.19729 0.01371 0.0
C6605 C 0.56266 0.20289 0.01046 0.0
C6606 C 0.58942 0.22446 0.00766 0.0
C6607 C 0.56063 0.21913 0.00485 0.0
C6608 C 0.61745 0.2347 0.01677 0.0
C6609 C 0.6104 0.26486 0.00231 0.0
N6610 N 0.57383 0.22939 0.00383 0.0
N6611 N 0.59972 0.25201 0.001 0.0
H6612 H 0.29926 0.35749 0.24416 0.0
H6613 H 0.38886 0.33128 0.27508 0.0
H6614 H 0.33012 0.38784 0.27518 0.0
H6615 H 0.35726 0.29998 0.24579 0.0
H6616 H 0.36916 0.35371 0.27176 0.0
H6617 H 0.32198 0.33803 0.24117 0.0
C6618 C 0.31085 0.36018 0.25021 0.0
C6619 C 0.31266 0.37423 0.26016 0.0
C6620 C 0.36661 0.34199 0.26593 0.0
C6621 C 0.33873 0.35191 0.25683 0.0
C6622 C 0.37787 0.32914 0.26781 0.0
C6623 C 0.37462 0.31359 0.26092 0.0
C6624 C 0.35194 0.33929 0.25715 0.0
C6625 C 0.36023 0.31167 0.25149 0.0
C6626 C 0.32383 0.34903 0.2485 0.0
C6627 C 0.32805 0.37709 0.26755 0.0
N6628 N 0.34934 0.32431 0.25003 0.0
N6629 N 0.34042 0.36594 0.26587 0.0
H6630 H 0.27716 0.7197 0.33297 0.0
H6631 H 0.18732 0.74596 0.30285 0.0
H6632 H 0.24564 0.68901 0.30297 0.0
H6633 H 0.21946 0.77752 0.33126 0.0
H6634 H 0.20689 0.72344 0.30634 0.0
H6635 H 0.25458 0.73932 0.33602 0.0
C6636 C 0.26546 0.71697 0.32716 0.0
C6637 C 0.26342 0.70277 0.31747 0.0
C6638 C 0.20959 0.73525 0.31195 0.0
C6639 C 0.23752 0.72528 0.32087 0.0
C6640 C 0.19841 0.74814 0.30997 0.0
C6641 C 0.20184 0.76378 0.31655 0.0
C6642 C 0.22438 0.73798 0.32052 0.0
C6643 C 0.21634 0.76575 0.3258 0.0
C6644 C 0.25256 0.72821 0.3289 0.0
C6645 C 0.24789 0.69987 0.31039 0.0
N6646 N 0.22716 0.75306 0.32735 0.0
N6647 N 0.23561 0.71111 0.31209 0.0
H6648 H 0.02702 0.24451 0.96901 0.0
H6649 H 0.93793 0.27601 0.99619 0.0
H6650 H 0.99626 0.27616 0.93921 0.0
H6651 H 0.96948 0.24611 0.02695 0.0
H6652 H 0.95742 0.27274 0.97357 0.0
H6653 H 0.00441 0.24154 0.9886 0.0
C6654 C 0.01547 0.25071 0.96647 0.0
C6655 C 0.01367 0.26082 0.95254 0.0
C6656 C 0.96001 0.26676 0.98522 0.0
C6657 C 0.98772 0.25751 0.97501 0.0
C6658 C 0.94886 0.26862 0.99817 0.0
C6659 C 0.95217 0.26154 0.01362 0.0
C6660 C 0.97461 0.25782 0.98772 0.0
C6661 C 0.96648 0.25195 0.01534 0.0
C6662 C 0.00256 0.24901 0.97769 0.0
C6663 C 0.99833 0.2684 0.94986 0.0
N6664 N 0.97726 0.25053 0.0026 0.0
N6665 N 0.98602 0.26672 0.96108 0.0
H6666 H 0.30361 0.2449 0.68792 0.0
H6667 H 0.33266 0.21992 0.77848 0.0
H6668 H 0.33138 0.27702 0.72005 0.0
H6669 H 0.30311 0.18877 0.74699 0.0
H6670 H 0.3359 0.23928 0.7557 0.0
H6671 H 0.30697 0.22264 0.70781 0.0
C6672 C 0.31056 0.24726 0.69907 0.0
C6673 C 0.31699 0.26298 0.70241 0.0
C6674 C 0.32885 0.22812 0.75374 0.0
C6675 C 0.3208 0.23749 0.72532 0.0
C6676 C 0.32698 0.21704 0.76675 0.0
C6677 C 0.31736 0.20278 0.76477 0.0
C6678 C 0.321 0.22498 0.73863 0.0
C6679 C 0.31046 0.19967 0.74919 0.0
C6680 C 0.31247 0.23452 0.71044 0.0
C6681 C 0.32604 0.26519 0.71701 0.0
N6682 N 0.31228 0.21076 0.73679 0.0
N6683 N 0.32751 0.25264 0.728 0.0
H6684 H 0.33231 0.60772 0.04916 0.0
H6685 H 0.30255 0.58189 0.13925 0.0
H6686 H 0.302 0.63836 0.08044 0.0
H6687 H 0.331 0.55028 0.1072 0.0
H6688 H 0.30586 0.60431 0.11952 0.0
H6689 H 0.33553 0.5883 0.07188 0.0
C6690 C 0.32646 0.61048 0.06084 0.0
C6691 C 0.31664 0.6246 0.06277 0.0
C6692 C 0.31151 0.59252 0.11688 0.0
C6693 C 0.32025 0.60232 0.08884 0.0
C6694 C 0.30964 0.57968 0.12815 0.0
C6695 C 0.31627 0.56405 0.12478 0.0
C6696 C 0.32003 0.58973 0.10208 0.0
C6697 C 0.32549 0.56204 0.11026 0.0
C6698 C 0.32831 0.59935 0.07382 0.0
C6699 C 0.30952 0.62755 0.07828 0.0
N6700 N 0.32693 0.57467 0.09937 0.0
N6701 N 0.31133 0.61642 0.09065 0.0
H6702 H 0.9961 0.54946 0.88858 0.0
H6703 H 0.96884 0.58137 0.79965 0.0
H6704 H 0.02647 0.58025 0.85751 0.0
H6705 H 0.93926 0.54919 0.83007 0.0
H6706 H 0.98832 0.58436 0.82235 0.0
H6707 H 0.97353 0.55253 0.869 0.0
C6708 C 0.998 0.557 0.87774 0.0
C6709 C 0.01334 0.56439 0.87459 0.0
C6710 C 0.97749 0.57677 0.82411 0.0
C6711 C 0.98749 0.56789 0.85205 0.0
C6712 C 0.96633 0.57505 0.81114 0.0
C6713 C 0.95249 0.5648 0.81283 0.0
C6714 C 0.97483 0.56814 0.83888 0.0
C6715 C 0.94984 0.55708 0.8281 0.0
C6716 C 0.98508 0.55875 0.86654 0.0
C6717 C 0.01496 0.57416 0.86038 0.0
N6718 N 0.961 0.55877 0.84046 0.0
N6719 N 0.00225 0.57547 0.84956 0.0
H6720 H 0.63935 0.30233 0.08158 0.0
H6721 H 0.54972 0.33295 0.10785 0.0
H6722 H 0.60759 0.33146 0.05031 0.0
H6723 H 0.58054 0.30167 0.13797 0.0
H6724 H 0.5725 0.33621 0.08851 0.0
H6725 H 0.61975 0.30571 0.10409 0.0
C6726 C 0.62835 0.30958 0.07946 0.0
C6727 C 0.62501 0.31638 0.06389 0.0
C6728 C 0.57433 0.32877 0.09944 0.0
C6729 C 0.60244 0.32022 0.08967 0.0
C6730 C 0.56131 0.32689 0.11051 0.0
C6731 C 0.56309 0.31678 0.12445 0.0
C6732 C 0.58923 0.32044 0.10228 0.0
C6733 C 0.5785 0.30941 0.1273 0.0
C6734 C 0.61714 0.3115 0.09235 0.0
C6735 C 0.61061 0.32581 0.06201 0.0
N6736 N 0.5909 0.31125 0.11622 0.0
N6737 N 0.59978 0.32729 0.07468 0.0
H6738 H 0.27321 0.83119 0.88918 0.0
H6739 H 0.24311 0.85733 0.79932 0.0
H6740 H 0.24465 0.79966 0.85715 0.0
H6741 H 0.27332 0.88794 0.83072 0.0
H6742 H 0.23996 0.8378 0.82197 0.0
H6743 H 0.26974 0.85369 0.86959 0.0
C6744 C 0.26607 0.82901 0.87812 0.0
C6745 C 0.25944 0.81338 0.87471 0.0
C6746 C 0.24714 0.84888 0.82395 0.0
C6747 C 0.2555 0.83915 0.85215 0.0
C6748 C 0.24894 0.86006 0.81101 0.0
C6749 C 0.25873 0.8742 0.813 0.0
C6750 C 0.2552 0.85181 0.83898 0.0
C6751 C 0.26583 0.87712 0.82852 0.0
C6752 C 0.2641 0.84189 0.86692 0.0
C6753 C 0.25015 0.81142 0.86024 0.0
N6754 N 0.26407 0.86593 0.84084 0.0
N6755 N 0.24862 0.8241 0.84941 0.0
H6756 H 0.24352 0.02706 0.97012 0.0
H6757 H 0.27291 0.93698 0.99623 0.0
H6758 H 0.27351 0.99543 0.93952 0.0
H6759 H 0.24459 0.96922 0.02776 0.0
H6760 H 0.2695 0.95655 0.9737 0.0
H6761 H 0.24012 0.00441 0.9896 0.0
C6762 C 0.24926 0.01532 0.96739 0.0
C6763 C 0.25906 0.01327 0.95326 0.0
C6764 C 0.26389 0.95927 0.9855 0.0
C6765 C 0.25524 0.98728 0.9756 0.0
C6766 C 0.26583 0.94808 0.9984 0.0
C6767 C 0.25927 0.95156 0.01404 0.0
C6768 C 0.25541 0.9741 0.98824 0.0
C6769 C 0.25004 0.96608 0.01599 0.0
C6770 C 0.24731 0.00238 0.97854 0.0
C6771 C 0.26603 0.99769 0.95033 0.0
N6772 N 0.24856 0.9769 0.00331 0.0
N6773 N 0.26413 0.98537 0.96149 0.0
H6774 H 0.6078 0.49499 0.77753 0.0
H6775 H 0.58128 0.52635 0.68819 0.0
H6776 H 0.63773 0.52677 0.74704 0.0
H6777 H 0.55054 0.49597 0.71929 0.0
H6778 H 0.60373 0.52325 0.70791 0.0
H6779 H 0.58846 0.49189 0.75472 0.0
C6780 C 0.61042 0.50119 0.76601 0.0
C6781 C 0.62432 0.51137 0.76433 0.0
C6782 C 0.59212 0.51713 0.71035 0.0
C6783 C 0.60214 0.50791 0.73815 0.0
C6784 C 0.57927 0.51889 0.69907 0.0
C6785 C 0.56387 0.51163 0.70218 0.0
C6786 C 0.58957 0.50811 0.72489 0.0
C6787 C 0.56211 0.50196 0.71644 0.0
C6788 C 0.59935 0.49941 0.75297 0.0
C6789 C 0.6271 0.51895 0.74901 0.0
N6790 N 0.57475 0.50064 0.72735 0.0
N6791 N 0.61602 0.5172 0.73659 0.0
H6792 H 0.10806 0.27598 0.49409 0.0
H6793 H 0.081 0.18685 0.52542 0.0
H6794 H 0.1379 0.24517 0.52565 0.0
H6795 H 0.05019 0.21848 0.49563 0.0
H6796 H 0.10367 0.20626 0.522 0.0
H6797 H 0.08859 0.2533 0.49093 0.0
C6798 C 0.11063 0.26441 0.50023 0.0
C6799 C 0.12453 0.26261 0.51039 0.0
C6800 C 0.09199 0.20888 0.51608 0.0
C6801 C 0.1022 0.2366 0.50685 0.0
C6802 C 0.07901 0.19779 0.51802 0.0
C6803 C 0.06353 0.20115 0.51104 0.0
C6804 C 0.08949 0.22348 0.50715 0.0
C6805 C 0.06182 0.21545 0.50142 0.0
C6806 C 0.09948 0.25146 0.49841 0.0
C6807 C 0.12727 0.24724 0.51786 0.0
N6808 N 0.07458 0.22617 0.49992 0.0
N6809 N 0.11611 0.2349 0.51609 0.0
H6810 H 0.46897 0.79969 0.08243 0.0
H6811 H 0.49613 0.889 0.05149 0.0
H6812 H 0.43908 0.83075 0.05116 0.0
H6813 H 0.52718 0.857 0.0806 0.0
H6814 H 0.4735 0.86953 0.0548 0.0
H6815 H 0.48864 0.82223 0.08544 0.0
C6816 C 0.46643 0.81129 0.07633 0.0
C6817 C 0.45244 0.8132 0.0663 0.0
C6818 C 0.48522 0.86683 0.0606 0.0
C6819 C 0.47501 0.83905 0.06966 0.0
C6820 C 0.49818 0.87796 0.05871 0.0
C6821 C 0.51371 0.87454 0.06556 0.0
C6822 C 0.48778 0.85212 0.06934 0.0
C6823 C 0.5155 0.8601 0.07494 0.0
C6824 C 0.4777 0.82416 0.07805 0.0
C6825 C 0.44977 0.8286 0.05885 0.0
N6826 N 0.50275 0.84935 0.07641 0.0
N6827 N 0.46103 0.84086 0.06055 0.0
H6828 H 0.71952 0.77659 0.8326 0.0
H6829 H 0.74662 0.687 0.80244 0.0
H6830 H 0.68941 0.74512 0.80196 0.0
H6831 H 0.7777 0.71925 0.83122 0.0
H6832 H 0.72397 0.70646 0.80569 0.0
H6833 H 0.73922 0.7541 0.83575 0.0
C6834 C 0.71693 0.76491 0.82668 0.0
C6835 C 0.70287 0.76287 0.81677 0.0
C6836 C 0.7357 0.70921 0.81142 0.0
C6837 C 0.72549 0.73707 0.8203 0.0
C6838 C 0.74867 0.69809 0.80958 0.0
C6839 C 0.76422 0.70158 0.81635 0.0
C6840 C 0.73826 0.724 0.82004 0.0
C6841 C 0.76602 0.71609 0.82563 0.0
C6842 C 0.72822 0.75207 0.82848 0.0
C6843 C 0.70015 0.74737 0.80955 0.0
N6844 N 0.75325 0.72684 0.82704 0.0
N6845 N 0.71144 0.73514 0.81131 0.0
H6846 H 0.83042 0.38917 0.77445 0.0
H6847 H 0.85744 0.29968 0.74403 0.0
H6848 H 0.79942 0.35713 0.74533 0.0
H6849 H 0.88721 0.33073 0.77542 0.0
H6850 H 0.83791 0.3223 0.74074 0.0
H6851 H 0.85304 0.36969 0.77123 0.0
C6852 C 0.82838 0.37813 0.76724 0.0
C6853 C 0.81286 0.37469 0.76039 0.0
C6854 C 0.8488 0.32421 0.74822 0.0
C6855 C 0.83878 0.35225 0.75672 0.0
C6856 C 0.85998 0.31129 0.7501 0.0
C6857 C 0.87389 0.31318 0.76025 0.0
C6858 C 0.85149 0.33913 0.75655 0.0
C6859 C 0.87658 0.3286 0.76764 0.0
C6860 C 0.84134 0.36699 0.76541 0.0
C6861 C 0.81108 0.36024 0.751 0.0
N6862 N 0.86539 0.34091 0.76579 0.0
N6863 N 0.82383 0.34947 0.74961 0.0
H6864 H 0.55388 0.99545 0.8893 0.0
H6865 H 0.58291 0.96964 0.79897 0.0
H6866 H 0.58159 0.02729 0.85684 0.0
H6867 H 0.55315 0.93889 0.83066 0.0
H6868 H 0.58625 0.98914 0.82161 0.0
H6869 H 0.55727 0.973 0.86963 0.0
C6870 C 0.56082 0.99771 0.87812 0.0
C6871 C 0.56722 0.01341 0.87462 0.0
C6872 C 0.57913 0.97804 0.82365 0.0
C6873 C 0.57106 0.98769 0.85197 0.0
C6874 C 0.57721 0.96687 0.81072 0.0
C6875 C 0.5675 0.95269 0.81279 0.0
C6876 C 0.57125 0.97506 0.83877 0.0
C6877 C 0.56057 0.94973 0.82838 0.0
C6878 C 0.56274 0.98485 0.86688 0.0
C6879 C 0.57627 0.01548 0.86001 0.0
N6880 N 0.56244 0.96091 0.8407 0.0
N6881 N 0.57775 0.00282 0.84914 0.0
H6882 H 0.24558 0.02593 0.63984 0.0
H6883 H 0.21877 0.99434 0.55069 0.0
H6884 H 0.27621 0.99553 0.60864 0.0
H6885 H 0.18912 0.02656 0.581 0.0
H6886 H 0.23804 0.99114 0.57353 0.0
H6887 H 0.22301 0.02271 0.62026 0.0
C6888 C 0.24754 0.01843 0.62897 0.0
C6889 C 0.26295 0.01122 0.62577 0.0
C6890 C 0.22724 0.99878 0.57524 0.0
C6891 C 0.23711 0.00756 0.60324 0.0
C6892 C 0.2162 0.00063 0.56218 0.0
C6893 C 0.20241 0.01097 0.5638 0.0
C6894 C 0.22452 0.00737 0.59001 0.0
C6895 C 0.19967 0.01863 0.57908 0.0
C6896 C 0.23462 0.01661 0.61778 0.0
C6897 C 0.26463 0.00149 0.61155 0.0
N6898 N 0.21072 0.01681 0.59152 0.0
N6899 N 0.25194 0.00011 0.60073 0.0
H6900 H 0.55229 0.33165 0.4372 0.0
H6901 H 0.58365 0.35836 0.52645 0.0
H6902 H 0.58187 0.30063 0.46881 0.0
H6903 H 0.55234 0.38847 0.49564 0.0
H6904 H 0.58674 0.33892 0.50373 0.0
H6905 H 0.55581 0.35426 0.45666 0.0
C6906 C 0.55966 0.32961 0.44814 0.0
C6907 C 0.56656 0.31408 0.45148 0.0
C6908 C 0.57933 0.34987 0.50189 0.0
C6909 C 0.57057 0.33998 0.47388 0.0
C6910 C 0.57756 0.361 0.51487 0.0
C6911 C 0.56748 0.37497 0.51308 0.0
C6912 C 0.57093 0.35267 0.48702 0.0
C6913 C 0.56006 0.37778 0.4977 0.0
C6914 C 0.56166 0.34256 0.45926 0.0
C6915 C 0.57614 0.31229 0.46579 0.0
N6916 N 0.56178 0.36664 0.48533 0.0
N6917 N 0.5777 0.32503 0.47655 0.0
H6918 H 0.24615 0.30033 0.68761 0.0
H6919 H 0.21882 0.33185 0.77664 0.0
H6920 H 0.27672 0.33051 0.71907 0.0
H6921 H 0.18926 0.29985 0.74602 0.0
H6922 H 0.23834 0.33493 0.754 0.0
H6923 H 0.22352 0.30351 0.70711 0.0
C6924 C 0.24809 0.30776 0.69853 0.0
C6925 C 0.2635 0.31494 0.70181 0.0
C6926 C 0.2275 0.32736 0.75218 0.0
C6927 C 0.23757 0.31856 0.72425 0.0
C6928 C 0.21632 0.32559 0.76512 0.0
C6929 C 0.20247 0.31535 0.76336 0.0
C6930 C 0.22487 0.3188 0.73738 0.0
C6931 C 0.19984 0.30772 0.74805 0.0
C6932 C 0.23513 0.30956 0.70967 0.0
C6933 C 0.26515 0.32459 0.71609 0.0
N6934 N 0.21103 0.30946 0.73572 0.0
N6935 N 0.25241 0.32596 0.72687 0.0
H6936 H 0.88949 0.05258 0.4953 0.0
H6937 H 0.79928 0.08174 0.46923 0.0
H6938 H 0.85712 0.08069 0.52689 0.0
H6939 H 0.83067 0.0512 0.43893 0.0
H6940 H 0.82196 0.08519 0.48865 0.0
H6941 H 0.8698 0.05577 0.47284 0.0
C6942 C 0.87833 0.05957 0.4975 0.0
C6943 C 0.87485 0.06614 0.51314 0.0
C6944 C 0.82393 0.07786 0.47767 0.0
C6945 C 0.85219 0.06975 0.48741 0.0
C6946 C 0.81097 0.07588 0.46654 0.0
C6947 C 0.81295 0.06593 0.45251 0.0
C6948 C 0.83898 0.06982 0.4748 0.0
C6949 C 0.82847 0.05881 0.44966 0.0
C6950 C 0.86708 0.06137 0.48464 0.0
C6951 C 0.86026 0.07524 0.51513 0.0
N6952 N 0.84082 0.06076 0.46079 0.0
N6953 N 0.84938 0.07661 0.50247 0.0
H6954 H 0.49457 0.54953 0.71927 0.0
H6955 H 0.52416 0.63934 0.74613 0.0
H6956 H 0.5248 0.58124 0.68901 0.0
H6957 H 0.49564 0.60698 0.77735 0.0
H6958 H 0.52091 0.61986 0.7235 0.0
H6959 H 0.49125 0.57202 0.73894 0.0
C6960 C 0.50037 0.56126 0.71664 0.0
C6961 C 0.51021 0.56337 0.70255 0.0
C6962 C 0.51522 0.61709 0.73526 0.0
C6963 C 0.5065 0.58918 0.72512 0.0
C6964 C 0.51707 0.62822 0.74821 0.0
C6965 C 0.51039 0.6247 0.76379 0.0
C6966 C 0.50669 0.60226 0.73787 0.0
C6967 C 0.50117 0.61016 0.76563 0.0
C6968 C 0.49847 0.57411 0.72791 0.0
C6969 C 0.51728 0.57893 0.69978 0.0
N6970 N 0.49976 0.59939 0.75289 0.0
N6971 N 0.51542 0.59117 0.71104 0.0
H6972 H 0.83056 0.27504 0.88898 0.0
H6973 H 0.85736 0.24435 0.7995 0.0
H6974 H 0.79951 0.24573 0.85716 0.0
H6975 H 0.88742 0.27544 0.83057 0.0
H6976 H 0.83781 0.24122 0.82212 0.0
H6977 H 0.85313 0.27177 0.86943 0.0
C6978 C 0.8285 0.26778 0.87797 0.0
C6979 C 0.81299 0.26088 0.87462 0.0
C6980 C 0.84877 0.2486 0.82404 0.0
C6981 C 0.83884 0.25716 0.8521 0.0
C6982 C 0.85997 0.25039 0.81112 0.0
C6983 C 0.87397 0.2604 0.81301 0.0
C6984 C 0.85153 0.2569 0.83897 0.0
C6985 C 0.87672 0.26776 0.82844 0.0
C6986 C 0.84143 0.26593 0.8668 0.0
C6987 C 0.81118 0.25144 0.86021 0.0
N6988 N 0.86552 0.26601 0.84075 0.0
N6989 N 0.82389 0.25002 0.8494 0.0
H6990 H 0.52486 0.6872 0.58053 0.0
H6991 H 0.49392 0.77647 0.60776 0.0
H6992 H 0.49532 0.71904 0.54972 0.0
H6993 H 0.52526 0.74544 0.63762 0.0
H6994 H 0.4908 0.75389 0.58817 0.0
H6995 H 0.5216 0.70665 0.6032 0.0
C6996 C 0.51755 0.69819 0.57855 0.0
C6997 C 0.51057 0.70158 0.56307 0.0
C6998 C 0.49822 0.75197 0.59909 0.0
C6999 C 0.50687 0.72398 0.58903 0.0
C7000 C 0.50001 0.76487 0.61032 0.0
C7001 C 0.5101 0.76298 0.62427 0.0
C7002 C 0.5066 0.73707 0.60178 0.0
C7003 C 0.51752 0.74757 0.62696 0.0
C7004 C 0.5157 0.70931 0.59153 0.0
C7005 C 0.50109 0.71597 0.56135 0.0
N7006 N 0.51577 0.73529 0.61572 0.0
N7007 N 0.49967 0.72671 0.57412 0.0
H7008 H 0.93757 0.49464 0.7736 0.0
H7009 H 0.02765 0.46865 0.74398 0.0
H7010 H 0.96964 0.52612 0.74504 0.0
H7011 H 0.99653 0.43838 0.77481 0.0
H7012 H 0.00489 0.488 0.74059 0.0
H7013 H 0.95729 0.47221 0.77042 0.0
C7014 C 0.94866 0.49682 0.76651 0.0
C7015 C 0.95204 0.51242 0.75982 0.0
C7016 C 0.003 0.47704 0.74797 0.0
C7017 C 0.97476 0.48673 0.75621 0.0
C7018 C 0.016 0.46596 0.74992 0.0
C7019 C 0.01412 0.45196 0.75993 0.0
C7020 C 0.98801 0.47415 0.75611 0.0
C7021 C 0.99865 0.44909 0.76715 0.0
C7022 C 0.95994 0.48398 0.76471 0.0
C7023 C 0.96657 0.51439 0.75059 0.0
N7024 N 0.98626 0.46017 0.76524 0.0
N7025 N 0.97747 0.50175 0.74923 0.0
H7026 H 0.27683 0.60837 0.99383 0.0
H7027 H 0.18767 0.58164 0.02544 0.0
H7028 H 0.24629 0.63829 0.02556 0.0
H7029 H 0.21908 0.55072 0.99557 0.0
H7030 H 0.2072 0.60421 0.02203 0.0
H7031 H 0.25408 0.58897 0.99078 0.0
C7032 C 0.2653 0.61098 3e-05 0.0
C7033 C 0.2636 0.62488 0.0102 0.0
C7034 C 0.20974 0.59254 0.01609 0.0
C7035 C 0.23749 0.60262 0.0068 0.0
C7036 C 0.19858 0.57961 0.01803 0.0
C7037 C 0.20184 0.56412 0.01101 0.0
C7038 C 0.22432 0.58997 0.00713 0.0
C7039 C 0.21612 0.56235 0.00138 0.0
C7040 C 0.2523 0.59986 0.99828 0.0
C7041 C 0.24827 0.62766 0.01776 0.0
N7042 N 0.22691 0.57506 -0.00012 0.0
N7043 N 0.23589 0.61653 0.01605 0.0
H7044 H 0.79998 0.96846 0.58274 0.0
H7045 H 0.88891 0.9954 0.55061 0.0
H7046 H 0.83047 0.93851 0.55097 0.0
H7047 H 0.85778 0.02608 0.58105 0.0
H7048 H 0.86937 0.97282 0.55398 0.0
H7049 H 0.82269 0.98794 0.58561 0.0
C7050 C 0.81149 0.96586 0.5765 0.0
C7051 C 0.81319 0.95192 0.56638 0.0
C7052 C 0.86689 0.98445 0.56005 0.0
C7053 C 0.83925 0.97427 0.56957 0.0
C7054 C 0.87806 0.99737 0.55814 0.0
C7055 C 0.87489 0.01279 0.56534 0.0
C7056 C 0.8524 0.98694 0.56917 0.0
C7057 C 0.86068 0.01449 0.57509 0.0
C7058 C 0.82446 0.97702 0.57814 0.0
C7059 C 0.82848 0.94917 0.55875 0.0
N7060 N 0.84988 0.00179 0.57657 0.0
N7061 N 0.84085 0.96033 0.56036 0.0
H7062 H 0.1396 0.08188 0.80162 0.0
H7063 H 0.08089 0.14302 0.80874 0.0
H7064 H 0.10695 0.0514 0.83057 0.0
H7065 H 0.0485 0.10398 0.82477 0.0
H7066 H 0.10427 0.12464 0.812 0.0
H7067 H 0.1204 0.10451 0.80418 0.0
C7068 C 0.1285 0.08002 0.8088 0.0
C7069 C 0.12485 0.0646 0.81573 0.0
C7070 C 0.0921 0.11991 0.81461 0.0
C7071 C 0.10267 0.09083 0.81908 0.0
C7072 C 0.0787 0.13053 0.8129 0.0
C7073 C 0.06266 0.12494 0.81615 0.0
C7074 C 0.08942 0.10344 0.81929 0.0
C7075 C 0.06063 0.10877 0.82193 0.0
C7076 C 0.1175 0.09311 0.8104 0.0
C7077 C 0.11026 0.06302 0.82491 0.0
N7078 N 0.07383 0.09853 0.82312 0.0
N7079 N 0.09963 0.0759 0.82614 0.0
H7080 H 0.52435 0.08134 0.18741 0.0
H7081 H 0.49464 0.10769 0.27737 0.0
H7082 H 0.49579 0.04995 0.21957 0.0
H7083 H 0.525 0.1381 0.24592 0.0
H7084 H 0.49145 0.08811 0.25477 0.0
H7085 H 0.52118 0.10382 0.20707 0.0
C7086 C 0.51728 0.07919 0.19852 0.0
C7087 C 0.51056 0.0636 0.20193 0.0
C7088 C 0.49867 0.09915 0.25277 0.0
C7089 C 0.50695 0.08936 0.22457 0.0
C7090 C 0.50051 0.11036 0.26568 0.0
C7091 C 0.51033 0.12447 0.26366 0.0
C7092 C 0.50675 0.10202 0.23774 0.0
C7093 C 0.51748 0.12731 0.24815 0.0
C7094 C 0.51547 0.09206 0.20976 0.0
C7095 C 0.50136 0.06167 0.21648 0.0
N7096 N 0.51568 0.1161 0.23585 0.0
N7097 N 0.49998 0.07434 0.22734 0.0
H7098 H 0.83078 0.77582 0.38891 0.0
H7099 H 0.85775 0.74417 0.29984 0.0
H7100 H 0.79996 0.74587 0.35746 0.0
H7101 H 0.88764 0.77581 0.33053 0.0
H7102 H 0.83827 0.74114 0.32254 0.0
H7103 H 0.8534 0.7724 0.36945 0.0
C7104 C 0.82879 0.76839 0.37801 0.0
C7105 C 0.81332 0.76135 0.37471 0.0
C7106 C 0.84918 0.74861 0.32435 0.0
C7107 C 0.83922 0.75745 0.35231 0.0
C7108 C 0.86034 0.75035 0.31139 0.0
C7109 C 0.87425 0.76049 0.31315 0.0
C7110 C 0.85191 0.75711 0.33918 0.0
C7111 C 0.877 0.76803 0.3285 0.0
C7112 C 0.84174 0.76644 0.36688 0.0
C7113 C 0.81159 0.7517 0.36044 0.0
N7114 N 0.86583 0.76633 0.34084 0.0
N7115 N 0.82432 0.75019 0.34969 0.0
H7116 H 0.55127 0.43717 0.33045 0.0
H7117 H 0.55884 0.49509 0.39229 0.0
H7118 H 0.58065 0.46985 0.30042 0.0
H7119 H 0.575 0.52781 0.35357 0.0
H7120 H 0.562 0.47189 0.37365 0.0
H7121 H 0.55392 0.45611 0.35329 0.0
C7122 C 0.55856 0.44822 0.32874 0.0
C7123 C 0.56559 0.45196 0.31338 0.0
C7124 C 0.56466 0.48409 0.36905 0.0
C7125 C 0.56906 0.47383 0.33986 0.0
C7126 C 0.56301 0.49739 0.37981 0.0
C7127 C 0.56632 0.51348 0.37439 0.0
C7128 C 0.56935 0.48693 0.3526 0.0
C7129 C 0.57212 0.51565 0.35824 0.0
C7130 C 0.56022 0.45907 0.34194 0.0
C7131 C 0.57491 0.46648 0.31198 0.0
N7132 N 0.57324 0.50255 0.34787 0.0
N7133 N 0.5762 0.47696 0.32499 0.0
H7134 H 0.21872 0.83263 0.27707 0.0
H7135 H 0.24562 0.80162 0.18773 0.0
H7136 H 0.18877 0.80128 0.24615 0.0
H7137 H 0.27671 0.83082 0.21961 0.0
H7138 H 0.22301 0.80502 0.20721 0.0
H7139 H 0.23828 0.8357 0.25445 0.0
C7140 C 0.21614 0.82652 0.26549 0.0
C7141 C 0.20218 0.81645 0.26364 0.0
C7142 C 0.23474 0.81081 0.20987 0.0
C7143 C 0.22461 0.81988 0.23768 0.0
C7144 C 0.24768 0.80889 0.19874 0.0
C7145 C 0.26322 0.81572 0.20214 0.0
C7146 C 0.23732 0.81958 0.22457 0.0
C7147 C 0.26503 0.82516 0.21654 0.0
C7148 C 0.22734 0.82828 0.25257 0.0
C7149 C 0.19945 0.809 0.24825 0.0
N7150 N 0.2523 0.82666 0.2273 0.0
N7151 N 0.21066 0.81073 0.23594 0.0
H7152 H 0.0494 0.60792 0.33304 0.0
H7153 H 0.13881 0.58129 0.30204 0.0
H7154 H 0.08024 0.63796 0.30171 0.0
H7155 H 0.10708 0.55017 0.33137 0.0
H7156 H 0.11926 0.60385 0.30543 0.0
H7157 H 0.0721 0.58846 0.33616 0.0
C7158 C 0.06098 0.61054 0.32695 0.0
C7159 C 0.06278 0.6245 0.31686 0.0
C7160 C 0.11665 0.59213 0.31126 0.0
C7161 C 0.08883 0.60218 0.32035 0.0
C7162 C 0.12782 0.57921 0.30933 0.0
C7163 C 0.12448 0.56368 0.3162 0.0
C7164 C 0.10199 0.58951 0.32006 0.0
C7165 C 0.11011 0.56184 0.32568 0.0
C7166 C 0.07395 0.5994 0.32874 0.0
C7167 C 0.07817 0.62729 0.30944 0.0
N7168 N 0.09931 0.57455 0.32717 0.0
N7169 N 0.09053 0.61613 0.31119 0.0
H7170 H 0.83082 0.43712 0.05232 0.0
H7171 H 0.85793 0.52653 0.08287 0.0
H7172 H 0.79991 0.46912 0.08159 0.0
H7173 H 0.88779 0.4954 0.05164 0.0
H7174 H 0.83839 0.50393 0.08614 0.0
H7175 H 0.85349 0.45655 0.0556 0.0
C7176 C 0.82881 0.44815 0.05958 0.0
C7177 C 0.8133 0.4516 0.06645 0.0
C7178 C 0.8493 0.502 0.0787 0.0
C7179 C 0.83927 0.47396 0.07019 0.0
C7180 C 0.86049 0.51491 0.07683 0.0
C7181 C 0.87443 0.51299 0.06673 0.0
C7182 C 0.852 0.48706 0.07039 0.0
C7183 C 0.87714 0.49755 0.05938 0.0
C7184 C 0.84179 0.45925 0.06144 0.0
C7185 C 0.81157 0.46601 0.07589 0.0
N7186 N 0.86594 0.48526 0.06121 0.0
N7187 N 0.82433 0.47675 0.07732 0.0
H7188 H 0.27784 0.10737 0.4939 0.0
H7189 H 0.18814 0.08129 0.5246 0.0
H7190 H 0.24673 0.138 0.52439 0.0
H7191 H 0.21991 0.04984 0.49567 0.0
H7192 H 0.20777 0.10377 0.52111 0.0
H7193 H 0.25514 0.08788 0.49091 0.0
C7194 C 0.2662 0.11012 0.49983 0.0
C7195 C 0.26432 0.12426 0.50964 0.0
C7196 C 0.21038 0.09199 0.51539 0.0
C7197 C 0.23828 0.1019 0.50631 0.0
C7198 C 0.19915 0.07912 0.51737 0.0
C7199 C 0.20247 0.06352 0.51064 0.0
C7200 C 0.22508 0.08926 0.50668 0.0
C7201 C 0.21689 0.06157 0.50125 0.0
C7202 C 0.25324 0.09895 0.49812 0.0
C7203 C 0.24886 0.12719 0.51688 0.0
N7204 N 0.22774 0.07423 0.49971 0.0
N7205 N 0.23651 0.11602 0.51521 0.0
H7206 H 0.96917 0.02748 0.24427 0.0
H7207 H 0.99538 0.9375 0.27392 0.0
H7208 H 0.93881 0.99614 0.27479 0.0
H7209 H 0.02675 0.9696 0.24527 0.0
H7210 H 0.97287 0.95712 0.27066 0.0
H7211 H 0.98859 0.00478 0.24088 0.0
C7212 C 0.96647 0.01579 0.25013 0.0
C7213 C 0.95243 0.01384 0.26007 0.0
C7214 C 0.98463 0.9598 0.26495 0.0
C7215 C 0.97471 0.9878 0.25626 0.0
C7216 C 0.99752 0.94858 0.2668 0.0
C7217 C 0.01311 0.95201 0.26011 0.0
C7218 C 0.98733 0.9746 0.2564 0.0
C7219 C 0.01503 0.96651 0.25083 0.0
C7220 C 0.9776 0.00283 0.24818 0.0
C7221 C 0.94955 0.99832 0.26719 0.0
N7222 N 0.00235 0.97735 0.24942 0.0
N7223 N 0.96068 0.98597 0.26529 0.0
H7224 H 0.21851 0.49479 0.05031 0.0
H7225 H 0.24578 0.52608 0.13942 0.0
H7226 H 0.18881 0.5265 0.08109 0.0
H7227 H 0.27644 0.49614 0.10781 0.0
H7228 H 0.22311 0.52283 0.11997 0.0
H7229 H 0.23804 0.49166 0.07294 0.0
C7230 C 0.21598 0.50097 0.06186 0.0
C7231 C 0.20209 0.51115 0.06367 0.0
C7232 C 0.23475 0.51684 0.11736 0.0
C7233 C 0.2245 0.50765 0.08964 0.0
C7234 C 0.24773 0.51868 0.12848 0.0
C7235 C 0.26317 0.5116 0.12514 0.0
C7236 C 0.23721 0.5079 0.10275 0.0
C7237 C 0.26484 0.502 0.11083 0.0
C7238 C 0.22716 0.49917 0.0748 0.0
C7239 C 0.19942 0.51868 0.07903 0.0
N7240 N 0.25209 0.50059 0.10008 0.0
N7241 N 0.21061 0.51692 0.09135 0.0
H7242 H 0.58304 0.79943 0.96896 0.0
H7243 H 0.55322 0.88932 0.99534 0.0
H7244 H 0.55251 0.8308 0.93864 0.0
H7245 H 0.58164 0.85709 0.0268 0.0
H7246 H 0.55658 0.86975 0.9728 0.0
H7247 H 0.58633 0.82206 0.98848 0.0
C7248 C 0.57716 0.81111 0.96629 0.0
C7249 C 0.56725 0.81309 0.95223 0.0
C7250 C 0.56222 0.86703 0.98459 0.0
C7251 C 0.57094 0.83906 0.97462 0.0
C7252 C 0.56031 0.87821 0.99749 0.0
C7253 C 0.56692 0.87474 0.01312 0.0
C7254 C 0.57073 0.85221 0.98729 0.0
C7255 C 0.57615 0.86022 0.01505 0.0
C7256 C 0.57905 0.82404 0.97747 0.0
C7257 C 0.5601 0.8286 0.94939 0.0
N7258 N 0.57762 0.84941 0.00235 0.0
N7259 N 0.56194 0.84091 0.96057 0.0
H7260 H 0.85824 0.5821 0.02699 0.0
H7261 H 0.83106 0.55088 0.93781 0.0
H7262 H 0.8878 0.55009 0.99638 0.0
H7263 H 0.80046 0.581 0.96931 0.0
H7264 H 0.85367 0.55398 0.95735 0.0
H7265 H 0.83879 0.5853 0.0043 0.0
C7266 C 0.86076 0.57587 0.01546 0.0
C7267 C 0.87458 0.56559 0.01372 0.0
C7268 C 0.84205 0.56004 0.95991 0.0
C7269 C 0.85227 0.56917 0.98768 0.0
C7270 C 0.82911 0.55829 0.94874 0.0
C7271 C 0.8137 0.56546 0.95202 0.0
C7272 C 0.83959 0.56899 0.97452 0.0
C7273 C 0.81203 0.57507 0.96633 0.0
C7274 C 0.84962 0.5777 0.0025 0.0
C7275 C 0.87724 0.55799 0.9984 0.0
N7276 N 0.82476 0.5764 0.97713 0.0
N7277 N 0.86609 0.55979 0.98604 0.0
H7278 H 0.49345 0.21986 0.04914 0.0
H7279 H 0.52399 0.24619 0.13882 0.0
H7280 H 0.52414 0.18948 0.08029 0.0
H7281 H 0.49529 0.27766 0.10685 0.0
H7282 H 0.52052 0.22368 0.11923 0.0
H7283 H 0.49038 0.23939 0.07179 0.0
C7284 C 0.4994 0.21717 0.06078 0.0
C7285 C 0.5093 0.20309 0.06269 0.0
C7286 C 0.51485 0.23546 0.11657 0.0
C7287 C 0.50587 0.22551 0.08867 0.0
C7288 C 0.51682 0.24835 0.12777 0.0
C7289 C 0.51015 0.26397 0.12438 0.0
C7290 C 0.5062 0.23818 0.10183 0.0
C7291 C 0.50083 0.26591 0.10992 0.0
C7292 C 0.49765 0.22837 0.07372 0.0
C7293 C 0.51656 0.20024 0.07814 0.0
N7294 N 0.49929 0.25323 0.0991 0.0
N7295 N 0.51484 0.21144 0.09047 0.0
loop_
_geom_bond_atom_site_label_1
_geom_bond_atom_site_label_2
_geom_bond_distance
_geom_bond_site_symmetry_2
_ccdc_geom_bond_type
Sc0 O3 2.025 . S
Sc0 O10 2.105 . S
Sc0 O13 2.105 . S
Sc0 O16 2.105 . S
Sc0 O19 2.105 . S
Sc1 O3 2.025 . S
Sc1 O11 2.105 . S
Sc1 O15 2.105 . S
Sc1 O17 2.105 . S
Sc1 O21 2.105 . S
Sc2 O3 2.025 . S
Sc2 O12 2.105 . S
Sc2 O14 2.105 . S
Sc2 O18 2.105 . S
Sc2 O20 2.105 . S
O3 Sc0 2.025 . S
O3 Sc1 2.025 . S
O3 Sc2 2.025 . S
C4 O10 1.268 . S
C4 O20 1.268 . S
C5 O11 1.268 . S
C5 O19 1.268 . S
C6 O12 1.268 . S
C6 O21 1.268 . S
C7 O13 1.268 . S
C7 O17 1.268 . S
C8 O14 1.268 . S
C8 O16 1.268 . S
C9 O15 1.268 . S
C9 O18 1.268 . S
O10 Sc0 2.105 . S
O10 C4 1.268 . S
O11 Sc1 2.105 . S
O11 C5 1.268 . S
O12 Sc2 2.105 . S
O12 C6 1.268 . S
O13 Sc0 2.105 . S
O13 C7 1.268 . S
O14 Sc2 2.105 . S
O14 C8 1.268 . S
O15 Sc1 2.105 . S
O15 C9 1.268 . S
O16 Sc0 2.105 . S
O16 C8 1.268 . S
O17 Sc1 2.105 . S
O17 C7 1.268 . S
O18 Sc2 2.105 . S
O18 C9 1.268 . S
O19 Sc0 2.105 . S
O19 C5 1.268 . S
O20 Sc2 2.105 . S
O20 C4 1.268 . S
O21 Sc1 2.105 . S
O21 C6 1.268 . S
Sc22 O25 2.025 . S
Sc22 O32 2.105 . S
Sc22 O35 2.105 1_455 S
Sc22 O38 2.105 . S
Sc22 O41 2.105 . S
Sc23 O25 2.025 . S
Sc23 O33 2.105 . S
Sc23 O37 2.105 . S
Sc23 O39 2.105 1_455 S
Sc23 O43 2.105 . S
Sc24 O25 2.025 . S
Sc24 O34 2.105 . S
Sc24 O36 2.105 . S
Sc24 O40 2.105 . S
Sc24 O42 2.105 . S
O25 Sc22 2.025 . S
O25 Sc23 2.025 . S
O25 Sc24 2.025 . S
C26 O32 1.268 . S
C26 O42 1.268 . S
C27 O33 1.268 . S
C27 O41 1.268 . S
C28 O34 1.268 . S
C28 O43 1.268 . S
C29 O35 1.268 . S
C29 O39 1.268 . S
C30 O36 1.268 . S
C30 O38 1.268 . S
C31 O37 1.268 . S
C31 O40 1.268 . S
O32 Sc22 2.105 . S
O32 C26 1.268 . S
O33 Sc23 2.105 . S
O33 C27 1.268 . S
O34 Sc24 2.105 . S
O34 C28 1.268 . S
O35 Sc22 2.105 1_655 S
O35 C29 1.268 . S
O36 Sc24 2.105 . S
O36 C30 1.268 . S
O37 Sc23 2.105 . S
O37 C31 1.268 . S
O38 Sc22 2.105 . S
O38 C30 1.268 . S
O39 Sc23 2.105 1_655 S
O39 C29 1.268 . S
O40 Sc24 2.105 . S
O40 C31 1.268 . S
O41 Sc22 2.105 . S
O41 C27 1.268 . S
O42 Sc24 2.105 . S
O42 C26 1.268 . S
O43 Sc23 2.105 . S
O43 C28 1.268 . S
Sc44 O47 2.025 . S
Sc44 O54 2.105 . S
Sc44 O57 2.105 . S
Sc44 O60 2.105 . S
Sc44 O63 2.105 . S
Sc45 O47 2.025 . S
Sc45 O55 2.105 . S
Sc45 O59 2.105 . S
Sc45 O61 2.105 . S
Sc45 O65 2.105 . S
Sc46 O47 2.025 . S
Sc46 O56 2.105 . S
Sc46 O58 2.105 . S
Sc46 O62 2.105 . S
Sc46 O64 2.105 . S
O47 Sc44 2.025 . S
O47 Sc45 2.025 . S
O47 Sc46 2.025 . S
C48 O54 1.268 . S
C48 O64 1.268 . S
C49 O55 1.268 . S
C49 O63 1.268 . S
C50 O56 1.268 . S
C50 O65 1.268 . S
C51 O57 1.268 . S
C51 O61 1.268 . S
C52 O58 1.268 . S
C52 O60 1.268 . S
C53 O59 1.268 . S
C53 O62 1.268 . S
O54 Sc44 2.105 . S
O54 C48 1.268 . S
O55 Sc45 2.105 . S
O55 C49 1.268 . S
O56 Sc46 2.105 . S
O56 C50 1.268 . S
O57 Sc44 2.105 . S
O57 C51 1.268 . S
O58 Sc46 2.105 . S
O58 C52 1.268 . S
O59 Sc45 2.105 . S
O59 C53 1.268 . S
O60 Sc44 2.105 . S
O60 C52 1.268 . S
O61 Sc45 2.105 . S
O61 C51 1.268 . S
O62 Sc46 2.105 . S
O62 C53 1.268 . S
O63 Sc44 2.105 . S
O63 C49 1.268 . S
O64 Sc46 2.105 . S
O64 C48 1.268 . S
O65 Sc45 2.105 . S
O65 C50 1.268 . S
Sc66 O69 2.025 . S
Sc66 O76 2.105 . S
Sc66 O79 2.105 . S
Sc66 O82 2.105 . S
Sc66 O85 2.105 . S
Sc67 O69 2.025 . S
Sc67 O77 2.105 . S
Sc67 O81 2.105 1_545 S
Sc67 O83 2.105 . S
Sc67 O87 2.105 . S
Sc68 O69 2.025 . S
Sc68 O78 2.105 . S
Sc68 O80 2.105 . S
Sc68 O84 2.105 1_545 S
Sc68 O86 2.105 . S
O69 Sc66 2.025 . S
O69 Sc67 2.025 . S
O69 Sc68 2.025 . S
C70 O76 1.268 . S
C70 O86 1.268 . S
C71 O77 1.268 . S
C71 O85 1.268 . S
C72 O78 1.268 . S
C72 O87 1.268 . S
C73 O79 1.268 . S
C73 O83 1.268 . S
C74 O80 1.268 . S
C74 O82 1.268 . S
C75 O81 1.268 . S
C75 O84 1.268 . S
O76 Sc66 2.105 . S
O76 C70 1.268 . S
O77 Sc67 2.105 . S
O77 C71 1.268 . S
O78 Sc68 2.105 . S
O78 C72 1.268 . S
O79 Sc66 2.105 . S
O79 C73 1.268 . S
O80 Sc68 2.105 . S
O80 C74 1.268 . S
O81 Sc67 2.105 1_565 S
O81 C75 1.268 . S
O82 Sc66 2.105 . S
O82 C74 1.268 . S
O83 Sc67 2.105 . S
O83 C73 1.268 . S
O84 Sc68 2.105 1_565 S
O84 C75 1.268 . S
O85 Sc66 2.105 . S
O85 C71 1.268 . S
O86 Sc68 2.105 . S
O86 C70 1.268 . S
O87 Sc67 2.105 . S
O87 C72 1.268 . S
Sc88 O91 2.025 . S
Sc88 O98 2.105 . S
Sc88 O101 2.105 . S
Sc88 O104 2.105 . S
Sc88 O107 2.105 . S
Sc89 O91 2.025 . S
Sc89 O99 2.105 . S
Sc89 O103 2.105 . S
Sc89 O105 2.105 . S
Sc89 O109 2.105 . S
Sc90 O91 2.025 . S
Sc90 O100 2.105 . S
Sc90 O102 2.105 . S
Sc90 O106 2.105 . S
Sc90 O108 2.105 . S
O91 Sc88 2.025 . S
O91 Sc89 2.025 . S
O91 Sc90 2.025 . S
C92 O98 1.268 . S
C92 O108 1.268 . S
C93 O99 1.268 . S
C93 O107 1.268 . S
C94 O100 1.268 . S
C94 O109 1.268 . S
C95 O101 1.268 . S
C95 O105 1.268 . S
C96 O102 1.268 . S
C96 O104 1.268 . S
C97 O103 1.268 . S
C97 O106 1.268 . S
O98 Sc88 2.105 . S
O98 C92 1.268 . S
O99 Sc89 2.105 . S
O99 C93 1.268 . S
O100 Sc90 2.105 . S
O100 C94 1.268 . S
O101 Sc88 2.105 . S
O101 C95 1.268 . S
O102 Sc90 2.105 . S
O102 C96 1.268 . S
O103 Sc89 2.105 . S
O103 C97 1.268 . S
O104 Sc88 2.105 . S
O104 C96 1.268 . S
O105 Sc89 2.105 . S
O105 C95 1.268 . S
O106 Sc90 2.105 . S
O106 C97 1.268 . S
O107 Sc88 2.105 . S
O107 C93 1.268 . S
O108 Sc90 2.105 . S
O108 C92 1.268 . S
O109 Sc89 2.105 . S
O109 C94 1.268 . S
Sc110 O113 2.025 . S
Sc110 O120 2.105 . S
Sc110 O123 2.105 . S
Sc110 O126 2.105 . S
Sc110 O129 2.105 . S
Sc111 O113 2.025 . S
Sc111 O121 2.105 . S
Sc111 O125 2.105 . S
Sc111 O127 2.105 . S
Sc111 O131 2.105 . S
Sc112 O113 2.025 . S
Sc112 O122 2.105 . S
Sc112 O124 2.105 . S
Sc112 O128 2.105 . S
Sc112 O130 2.105 . S
O113 Sc110 2.025 . S
O113 Sc111 2.025 . S
O113 Sc112 2.025 . S
C114 O120 1.268 . S
C114 O130 1.268 . S
C115 O121 1.268 . S
C115 O129 1.268 . S
C116 O122 1.268 . S
C116 O131 1.268 . S
C117 O123 1.268 . S
C117 O127 1.268 . S
C118 O124 1.268 . S
C118 O126 1.268 . S
C119 O125 1.268 . S
C119 O128 1.268 . S
O120 Sc110 2.105 . S
O120 C114 1.268 . S
O121 Sc111 2.105 . S
O121 C115 1.268 . S
O122 Sc112 2.105 . S
O122 C116 1.268 . S
O123 Sc110 2.105 . S
O123 C117 1.268 . S
O124 Sc112 2.105 . S
O124 C118 1.268 . S
O125 Sc111 2.105 . S
O125 C119 1.268 . S
O126 Sc110 2.105 . S
O126 C118 1.268 . S
O127 Sc111 2.105 . S
O127 C117 1.268 . S
O128 Sc112 2.105 . S
O128 C119 1.268 . S
O129 Sc110 2.105 . S
O129 C115 1.268 . S
O130 Sc112 2.105 . S
O130 C114 1.268 . S
O131 Sc111 2.105 . S
O131 C116 1.268 . S
Sc132 O135 2.025 . S
Sc132 O142 2.105 . S
Sc132 O145 2.105 . S
Sc132 O148 2.105 . S
Sc132 O151 2.105 . S
Sc133 O135 2.025 . S
Sc133 O143 2.105 . S
Sc133 O147 2.105 . S
Sc133 O149 2.105 . S
Sc133 O153 2.105 . S
Sc134 O135 2.025 . S
Sc134 O144 2.105 . S
Sc134 O146 2.105 . S
Sc134 O150 2.105 . S
Sc134 O152 2.105 . S
O135 Sc132 2.025 . S
O135 Sc133 2.025 . S
O135 Sc134 2.025 . S
C136 O142 1.268 . S
C136 O152 1.268 . S
C137 O143 1.268 . S
C137 O151 1.268 . S
C138 O144 1.268 . S
C138 O153 1.268 . S
C139 O145 1.268 . S
C139 O149 1.268 . S
C140 O146 1.268 . S
C140 O148 1.268 . S
C141 O147 1.268 . S
C141 O150 1.268 . S
O142 Sc132 2.105 . S
O142 C136 1.268 . S
O143 Sc133 2.105 . S
O143 C137 1.268 . S
O144 Sc134 2.105 . S
O144 C138 1.268 . S
O145 Sc132 2.105 . S
O145 C139 1.268 . S
O146 Sc134 2.105 . S
O146 C140 1.268 . S
O147 Sc133 2.105 . S
O147 C141 1.268 . S
O148 Sc132 2.105 . S
O148 C140 1.268 . S
O149 Sc133 2.105 . S
O149 C139 1.268 . S
O150 Sc134 2.105 . S
O150 C141 1.268 . S
O151 Sc132 2.105 . S
O151 C137 1.268 . S
O152 Sc134 2.105 . S
O152 C136 1.268 . S
O153 Sc133 2.105 . S
O153 C138 1.268 . S
Sc154 O157 2.025 . S
Sc154 O164 2.105 . S
Sc154 O167 2.105 . S
Sc154 O170 2.105 . S
Sc154 O173 2.105 . S
Sc155 O157 2.025 . S
Sc155 O165 2.105 . S
Sc155 O169 2.105 1_545 S
Sc155 O171 2.105 . S
Sc155 O175 2.105 1_455 S
Sc156 O157 2.025 . S
Sc156 O166 2.105 1_455 S
Sc156 O168 2.105 . S
Sc156 O172 2.105 1_545 S
Sc156 O174 2.105 . S
O157 Sc154 2.025 . S
O157 Sc155 2.025 . S
O157 Sc156 2.025 . S
C158 O164 1.268 . S
C158 O174 1.268 . S
C159 O165 1.268 . S
C159 O173 1.268 . S
C160 O166 1.268 . S
C160 O175 1.268 . S
C161 O167 1.268 . S
C161 O171 1.268 . S
C162 O168 1.268 . S
C162 O170 1.268 . S
C163 O169 1.268 . S
C163 O172 1.268 . S
O164 Sc154 2.105 . S
O164 C158 1.268 . S
O165 Sc155 2.105 . S
O165 C159 1.268 . S
O166 Sc156 2.105 1_655 S
O166 C160 1.268 . S
O167 Sc154 2.105 . S
O167 C161 1.268 . S
O168 Sc156 2.105 . S
O168 C162 1.268 . S
O169 Sc155 2.105 1_565 S
O169 C163 1.268 . S
O170 Sc154 2.105 . S
O170 C162 1.268 . S
O171 Sc155 2.105 . S
O171 C161 1.268 . S
O172 Sc156 2.105 1_565 S
O172 C163 1.268 . S
O173 Sc154 2.105 . S
O173 C159 1.268 . S
O174 Sc156 2.105 . S
O174 C158 1.268 . S
O175 Sc155 2.105 1_655 S
O175 C160 1.268 . S
Sc176 O179 2.025 . S
Sc176 O186 2.105 . S
Sc176 O189 2.105 . S
Sc176 O192 2.105 . S
Sc176 O195 2.105 . S
Sc177 O179 2.025 . S
Sc177 O187 2.105 . S
Sc177 O191 2.105 . S
Sc177 O193 2.105 . S
Sc177 O197 2.105 . S
Sc178 O179 2.025 . S
Sc178 O188 2.105 . S
Sc178 O190 2.105 . S
Sc178 O194 2.105 . S
Sc178 O196 2.105 . S
O179 Sc176 2.025 . S
O179 Sc177 2.025 . S
O179 Sc178 2.025 . S
C180 O186 1.268 . S
C180 O196 1.268 . S
C181 O187 1.268 . S
C181 O195 1.268 . S
C182 O188 1.268 . S
C182 O197 1.268 . S
C183 O189 1.268 . S
C183 O193 1.268 . S
C184 O190 1.268 . S
C184 O192 1.268 . S
C185 O191 1.268 . S
C185 O194 1.268 . S
O186 Sc176 2.105 . S
O186 C180 1.268 . S
O187 Sc177 2.105 . S
O187 C181 1.268 . S
O188 Sc178 2.105 . S
O188 C182 1.268 . S
O189 Sc176 2.105 . S
O189 C183 1.268 . S
O190 Sc178 2.105 . S
O190 C184 1.268 . S
O191 Sc177 2.105 . S
O191 C185 1.268 . S
O192 Sc176 2.105 . S
O192 C184 1.268 . S
O193 Sc177 2.105 . S
O193 C183 1.268 . S
O194 Sc178 2.105 . S
O194 C185 1.268 . S
O195 Sc176 2.105 . S
O195 C181 1.268 . S
O196 Sc178 2.105 . S
O196 C180 1.268 . S
O197 Sc177 2.105 . S
O197 C182 1.268 . S
Sc198 O201 2.025 . S
Sc198 O208 2.105 . S
Sc198 O211 2.105 . S
Sc198 O214 2.105 . S
Sc198 O217 2.105 . S
Sc199 O201 2.025 . S
Sc199 O209 2.105 . S
Sc199 O213 2.105 1_455 S
Sc199 O215 2.105 . S
Sc199 O219 2.105 . S
Sc200 O201 2.025 . S
Sc200 O210 2.105 . S
Sc200 O212 2.105 . S
Sc200 O216 2.105 1_455 S
Sc200 O218 2.105 . S
O201 Sc198 2.025 . S
O201 Sc199 2.025 . S
O201 Sc200 2.025 . S
C202 O208 1.268 . S
C202 O218 1.268 . S
C203 O209 1.268 . S
C203 O217 1.268 . S
C204 O210 1.268 . S
C204 O219 1.268 . S
C205 O211 1.268 . S
C205 O215 1.268 . S
C206 O212 1.268 . S
C206 O214 1.268 . S
C207 O213 1.268 . S
C207 O216 1.268 . S
O208 Sc198 2.105 . S
O208 C202 1.268 . S
O209 Sc199 2.105 . S
O209 C203 1.268 . S
O210 Sc200 2.105 . S
O210 C204 1.268 . S
O211 Sc198 2.105 . S
O211 C205 1.268 . S
O212 Sc200 2.105 . S
O212 C206 1.268 . S
O213 Sc199 2.105 1_655 S
O213 C207 1.268 . S
O214 Sc198 2.105 . S
O214 C206 1.268 . S
O215 Sc199 2.105 . S
O215 C205 1.268 . S
O216 Sc200 2.105 1_655 S
O216 C207 1.268 . S
O217 Sc198 2.105 . S
O217 C203 1.268 . S
O218 Sc200 2.105 . S
O218 C202 1.268 . S
O219 Sc199 2.105 . S
O219 C204 1.268 . S
Sc220 O223 2.025 . S
Sc220 O230 2.105 . S
Sc220 O233 2.105 . S
Sc220 O236 2.105 . S
Sc220 O239 2.105 . S
Sc221 O223 2.025 . S
Sc221 O231 2.105 . S
Sc221 O235 2.105 . S
Sc221 O237 2.105 . S
Sc221 O241 2.105 . S
Sc222 O223 2.025 . S
Sc222 O232 2.105 . S
Sc222 O234 2.105 . S
Sc222 O238 2.105 . S
Sc222 O240 2.105 . S
O223 Sc220 2.025 . S
O223 Sc221 2.025 . S
O223 Sc222 2.025 . S
C224 O230 1.268 . S
C224 O240 1.268 . S
C225 O231 1.268 . S
C225 O239 1.268 . S
C226 O232 1.268 . S
C226 O241 1.268 . S
C227 O233 1.268 . S
C227 O237 1.268 . S
C228 O234 1.268 . S
C228 O236 1.268 . S
C229 O235 1.268 . S
C229 O238 1.268 . S
O230 Sc220 2.105 . S
O230 C224 1.268 . S
O231 Sc221 2.105 . S
O231 C225 1.268 . S
O232 Sc222 2.105 . S
O232 C226 1.268 . S
O233 Sc220 2.105 . S
O233 C227 1.268 . S
O234 Sc222 2.105 . S
O234 C228 1.268 . S
O235 Sc221 2.105 . S
O235 C229 1.268 . S
O236 Sc220 2.105 . S
O236 C228 1.268 . S
O237 Sc221 2.105 . S
O237 C227 1.268 . S
O238 Sc222 2.105 . S
O238 C229 1.268 . S
O239 Sc220 2.105 . S
O239 C225 1.268 . S
O240 Sc222 2.105 . S
O240 C224 1.268 . S
O241 Sc221 2.105 . S
O241 C226 1.268 . S
Sc242 O245 2.025 . S
Sc242 O252 2.105 . S
Sc242 O255 2.105 . S
Sc242 O258 2.105 . S
Sc242 O261 2.105 . S
Sc243 O245 2.025 . S
Sc243 O253 2.105 . S
Sc243 O257 2.105 . S
Sc243 O259 2.105 . S
Sc243 O263 2.105 . S
Sc244 O245 2.025 . S
Sc244 O254 2.105 . S
Sc244 O256 2.105 . S
Sc244 O260 2.105 . S
Sc244 O262 2.105 . S
O245 Sc242 2.025 . S
O245 Sc243 2.025 . S
O245 Sc244 2.025 . S
C246 O252 1.268 . S
C246 O262 1.268 . S
C247 O253 1.268 . S
C247 O261 1.268 . S
C248 O254 1.268 . S
C248 O263 1.268 . S
C249 O255 1.268 . S
C249 O259 1.268 . S
C250 O256 1.268 . S
C250 O258 1.268 . S
C251 O257 1.268 . S
C251 O260 1.268 . S
O252 Sc242 2.105 . S
O252 C246 1.268 . S
O253 Sc243 2.105 . S
O253 C247 1.268 . S
O254 Sc244 2.105 . S
O254 C248 1.268 . S
O255 Sc242 2.105 . S
O255 C249 1.268 . S
O256 Sc244 2.105 . S
O256 C250 1.268 . S
O257 Sc243 2.105 . S
O257 C251 1.268 . S
O258 Sc242 2.105 . S
O258 C250 1.268 . S
O259 Sc243 2.105 . S
O259 C249 1.268 . S
O260 Sc244 2.105 . S
O260 C251 1.268 . S
O261 Sc242 2.105 . S
O261 C247 1.268 . S
O262 Sc244 2.105 . S
O262 C246 1.268 . S
O263 Sc243 2.105 . S
O263 C248 1.268 . S
Sc264 O267 2.025 . S
Sc264 O274 2.105 . S
Sc264 O277 2.105 . S
Sc264 O280 2.105 . S
Sc264 O283 2.105 . S
Sc265 O267 2.025 . S
Sc265 O275 2.105 . S
Sc265 O279 2.105 . S
Sc265 O281 2.105 . S
Sc265 O285 2.105 . S
Sc266 O267 2.025 . S
Sc266 O276 2.105 . S
Sc266 O278 2.105 . S
Sc266 O282 2.105 . S
Sc266 O284 2.105 . S
O267 Sc264 2.025 . S
O267 Sc265 2.025 . S
O267 Sc266 2.025 . S
C268 O274 1.268 . S
C268 O284 1.268 . S
C269 O275 1.268 . S
C269 O283 1.268 . S
C270 O276 1.268 . S
C270 O285 1.268 . S
C271 O277 1.268 . S
C271 O281 1.268 . S
C272 O278 1.268 . S
C272 O280 1.268 . S
C273 O279 1.268 . S
C273 O282 1.268 . S
O274 Sc264 2.105 . S
O274 C268 1.268 . S
O275 Sc265 2.105 . S
O275 C269 1.268 . S
O276 Sc266 2.105 . S
O276 C270 1.268 . S
O277 Sc264 2.105 . S
O277 C271 1.268 . S
O278 Sc266 2.105 . S
O278 C272 1.268 . S
O279 Sc265 2.105 . S
O279 C273 1.268 . S
O280 Sc264 2.105 . S
O280 C272 1.268 . S
O281 Sc265 2.105 . S
O281 C271 1.268 . S
O282 Sc266 2.105 . S
O282 C273 1.268 . S
O283 Sc264 2.105 . S
O283 C269 1.268 . S
O284 Sc266 2.105 . S
O284 C268 1.268 . S
O285 Sc265 2.105 . S
O285 C270 1.268 . S
Sc286 O289 2.025 . S
Sc286 O296 2.105 . S
Sc286 O299 2.105 . S
Sc286 O302 2.105 . S
Sc286 O305 2.105 . S
Sc287 O289 2.025 . S
Sc287 O297 2.105 . S
Sc287 O301 2.105 . S
Sc287 O303 2.105 . S
Sc287 O307 2.105 . S
Sc288 O289 2.025 . S
Sc288 O298 2.105 . S
Sc288 O300 2.105 . S
Sc288 O304 2.105 . S
Sc288 O306 2.105 . S
O289 Sc286 2.025 . S
O289 Sc287 2.025 . S
O289 Sc288 2.025 . S
C290 O296 1.268 . S
C290 O306 1.268 . S
C291 O297 1.268 . S
C291 O305 1.268 . S
C292 O298 1.268 . S
C292 O307 1.268 . S
C293 O299 1.268 . S
C293 O303 1.268 . S
C294 O300 1.268 . S
C294 O302 1.268 . S
C295 O301 1.268 . S
C295 O304 1.268 . S
O296 Sc286 2.105 . S
O296 C290 1.268 . S
O297 Sc287 2.105 . S
O297 C291 1.268 . S
O298 Sc288 2.105 . S
O298 C292 1.268 . S
O299 Sc286 2.105 . S
O299 C293 1.268 . S
O300 Sc288 2.105 . S
O300 C294 1.268 . S
O301 Sc287 2.105 . S
O301 C295 1.268 . S
O302 Sc286 2.105 . S
O302 C294 1.268 . S
O303 Sc287 2.105 . S
O303 C293 1.268 . S
O304 Sc288 2.105 . S
O304 C295 1.268 . S
O305 Sc286 2.105 . S
O305 C291 1.268 . S
O306 Sc288 2.105 . S
O306 C290 1.268 . S
O307 Sc287 2.105 . S
O307 C292 1.268 . S
Sc308 O311 2.025 . S
Sc308 O318 2.105 . S
Sc308 O321 2.105 . S
Sc308 O324 2.105 . S
Sc308 O327 2.105 . S
Sc309 O311 2.025 . S
Sc309 O319 2.105 . S
Sc309 O323 2.105 . S
Sc309 O325 2.105 . S
Sc309 O329 2.105 . S
Sc310 O311 2.025 . S
Sc310 O320 2.105 . S
Sc310 O322 2.105 . S
Sc310 O326 2.105 . S
Sc310 O328 2.105 . S
O311 Sc308 2.025 . S
O311 Sc309 2.025 . S
O311 Sc310 2.025 . S
C312 O318 1.268 . S
C312 O328 1.268 . S
C313 O319 1.268 . S
C313 O327 1.268 . S
C314 O320 1.268 . S
C314 O329 1.268 . S
C315 O321 1.268 . S
C315 O325 1.268 . S
C316 O322 1.268 . S
C316 O324 1.268 . S
C317 O323 1.268 . S
C317 O326 1.268 . S
O318 Sc308 2.105 . S
O318 C312 1.268 . S
O319 Sc309 2.105 . S
O319 C313 1.268 . S
O320 Sc310 2.105 . S
O320 C314 1.268 . S
O321 Sc308 2.105 . S
O321 C315 1.268 . S
O322 Sc310 2.105 . S
O322 C316 1.268 . S
O323 Sc309 2.105 . S
O323 C317 1.268 . S
O324 Sc308 2.105 . S
O324 C316 1.268 . S
O325 Sc309 2.105 . S
O325 C315 1.268 . S
O326 Sc310 2.105 . S
O326 C317 1.268 . S
O327 Sc308 2.105 . S
O327 C313 1.268 . S
O328 Sc310 2.105 . S
O328 C312 1.268 . S
O329 Sc309 2.105 . S
O329 C314 1.268 . S
Sc330 O333 2.025 . S
Sc330 O340 2.105 . S
Sc330 O343 2.105 . S
Sc330 O346 2.105 . S
Sc330 O349 2.105 . S
Sc331 O333 2.025 . S
Sc331 O341 2.105 . S
Sc331 O345 2.105 1_455 S
Sc331 O347 2.105 . S
Sc331 O351 2.105 1_554 S
Sc332 O333 2.025 . S
Sc332 O342 2.105 1_554 S
Sc332 O344 2.105 . S
Sc332 O348 2.105 1_455 S
Sc332 O350 2.105 . S
O333 Sc330 2.025 . S
O333 Sc331 2.025 . S
O333 Sc332 2.025 . S
C334 O340 1.268 . S
C334 O350 1.268 . S
C335 O341 1.268 . S
C335 O349 1.268 . S
C336 O342 1.268 . S
C336 O351 1.268 . S
C337 O343 1.268 . S
C337 O347 1.268 . S
C338 O344 1.268 . S
C338 O346 1.268 . S
C339 O345 1.268 . S
C339 O348 1.268 . S
O340 Sc330 2.105 . S
O340 C334 1.268 . S
O341 Sc331 2.105 . S
O341 C335 1.268 . S
O342 Sc332 2.105 1_556 S
O342 C336 1.268 . S
O343 Sc330 2.105 . S
O343 C337 1.268 . S
O344 Sc332 2.105 . S
O344 C338 1.268 . S
O345 Sc331 2.105 1_655 S
O345 C339 1.268 . S
O346 Sc330 2.105 . S
O346 C338 1.268 . S
O347 Sc331 2.105 . S
O347 C337 1.268 . S
O348 Sc332 2.105 1_655 S
O348 C339 1.268 . S
O349 Sc330 2.105 . S
O349 C335 1.268 . S
O350 Sc332 2.105 . S
O350 C334 1.268 . S
O351 Sc331 2.105 1_556 S
O351 C336 1.268 . S
Sc352 O355 2.025 . S
Sc352 O362 2.105 . S
Sc352 O365 2.105 . S
Sc352 O368 2.105 . S
Sc352 O371 2.105 . S
Sc353 O355 2.025 . S
Sc353 O363 2.105 . S
Sc353 O367 2.105 . S
Sc353 O369 2.105 . S
Sc353 O373 2.105 . S
Sc354 O355 2.025 . S
Sc354 O364 2.105 . S
Sc354 O366 2.105 . S
Sc354 O370 2.105 . S
Sc354 O372 2.105 . S
O355 Sc352 2.025 . S
O355 Sc353 2.025 . S
O355 Sc354 2.025 . S
C356 O362 1.268 . S
C356 O372 1.268 . S
C357 O363 1.268 . S
C357 O371 1.268 . S
C358 O364 1.268 . S
C358 O373 1.268 . S
C359 O365 1.268 . S
C359 O369 1.268 . S
C360 O366 1.268 . S
C360 O368 1.268 . S
C361 O367 1.268 . S
C361 O370 1.268 . S
O362 Sc352 2.105 . S
O362 C356 1.268 . S
O363 Sc353 2.105 . S
O363 C357 1.268 . S
O364 Sc354 2.105 . S
O364 C358 1.268 . S
O365 Sc352 2.105 . S
O365 C359 1.268 . S
O366 Sc354 2.105 . S
O366 C360 1.268 . S
O367 Sc353 2.105 . S
O367 C361 1.268 . S
O368 Sc352 2.105 . S
O368 C360 1.268 . S
O369 Sc353 2.105 . S
O369 C359 1.268 . S
O370 Sc354 2.105 . S
O370 C361 1.268 . S
O371 Sc352 2.105 . S
O371 C357 1.268 . S
O372 Sc354 2.105 . S
O372 C356 1.268 . S
O373 Sc353 2.105 . S
O373 C358 1.268 . S
Sc374 O377 2.025 . S
Sc374 O384 2.105 . S
Sc374 O387 2.105 . S
Sc374 O390 2.105 . S
Sc374 O393 2.105 . S
Sc375 O377 2.025 . S
Sc375 O385 2.105 . S
Sc375 O389 2.105 . S
Sc375 O391 2.105 . S
Sc375 O395 2.105 . S
Sc376 O377 2.025 . S
Sc376 O386 2.105 . S
Sc376 O388 2.105 . S
Sc376 O392 2.105 . S
Sc376 O394 2.105 . S
O377 Sc374 2.025 . S
O377 Sc375 2.025 . S
O377 Sc376 2.025 . S
C378 O384 1.268 . S
C378 O394 1.268 . S
C379 O385 1.268 . S
C379 O393 1.268 . S
C380 O386 1.268 . S
C380 O395 1.268 . S
C381 O387 1.268 . S
C381 O391 1.268 . S
C382 O388 1.268 . S
C382 O390 1.268 . S
C383 O389 1.268 . S
C383 O392 1.268 . S
O384 Sc374 2.105 . S
O384 C378 1.268 . S
O385 Sc375 2.105 . S
O385 C379 1.268 . S
O386 Sc376 2.105 . S
O386 C380 1.268 . S
O387 Sc374 2.105 . S
O387 C381 1.268 . S
O388 Sc376 2.105 . S
O388 C382 1.268 . S
O389 Sc375 2.105 . S
O389 C383 1.268 . S
O390 Sc374 2.105 . S
O390 C382 1.268 . S
O391 Sc375 2.105 . S
O391 C381 1.268 . S
O392 Sc376 2.105 . S
O392 C383 1.268 . S
O393 Sc374 2.105 . S
O393 C379 1.268 . S
O394 Sc376 2.105 . S
O394 C378 1.268 . S
O395 Sc375 2.105 . S
O395 C380 1.268 . S
Sc396 O399 2.025 . S
Sc396 O406 2.105 . S
Sc396 O409 2.105 . S
Sc396 O412 2.105 . S
Sc396 O415 2.105 . S
Sc397 O399 2.025 . S
Sc397 O407 2.105 . S
Sc397 O411 2.105 . S
Sc397 O413 2.105 . S
Sc397 O417 2.105 . S
Sc398 O399 2.025 . S
Sc398 O408 2.105 . S
Sc398 O410 2.105 . S
Sc398 O414 2.105 . S
Sc398 O416 2.105 . S
O399 Sc396 2.025 . S
O399 Sc397 2.025 . S
O399 Sc398 2.025 . S
C400 O406 1.268 . S
C400 O416 1.268 . S
C401 O407 1.268 . S
C401 O415 1.268 . S
C402 O408 1.268 . S
C402 O417 1.268 . S
C403 O409 1.268 . S
C403 O413 1.268 . S
C404 O410 1.268 . S
C404 O412 1.268 . S
C405 O411 1.268 . S
C405 O414 1.268 . S
O406 Sc396 2.105 . S
O406 C400 1.268 . S
O407 Sc397 2.105 . S
O407 C401 1.268 . S
O408 Sc398 2.105 . S
O408 C402 1.268 . S
O409 Sc396 2.105 . S
O409 C403 1.268 . S
O410 Sc398 2.105 . S
O410 C404 1.268 . S
O411 Sc397 2.105 . S
O411 C405 1.268 . S
O412 Sc396 2.105 . S
O412 C404 1.268 . S
O413 Sc397 2.105 . S
O413 C403 1.268 . S
O414 Sc398 2.105 . S
O414 C405 1.268 . S
O415 Sc396 2.105 . S
O415 C401 1.268 . S
O416 Sc398 2.105 . S
O416 C400 1.268 . S
O417 Sc397 2.105 . S
O417 C402 1.268 . S
Sc418 O421 2.025 . S
Sc418 O428 2.105 . S
Sc418 O431 2.105 . S
Sc418 O434 2.105 . S
Sc418 O437 2.105 . S
Sc419 O421 2.025 . S
Sc419 O429 2.105 . S
Sc419 O433 2.105 . S
Sc419 O435 2.105 . S
Sc419 O439 2.105 . S
Sc420 O421 2.025 . S
Sc420 O430 2.105 . S
Sc420 O432 2.105 . S
Sc420 O436 2.105 . S
Sc420 O438 2.105 . S
O421 Sc418 2.025 . S
O421 Sc419 2.025 . S
O421 Sc420 2.025 . S
C422 O428 1.268 . S
C422 O438 1.268 . S
C423 O429 1.268 . S
C423 O437 1.268 . S
C424 O430 1.268 . S
C424 O439 1.268 . S
C425 O431 1.268 . S
C425 O435 1.268 . S
C426 O432 1.268 . S
C426 O434 1.268 . S
C427 O433 1.268 . S
C427 O436 1.268 . S
O428 Sc418 2.105 . S
O428 C422 1.268 . S
O429 Sc419 2.105 . S
O429 C423 1.268 . S
O430 Sc420 2.105 . S
O430 C424 1.268 . S
O431 Sc418 2.105 . S
O431 C425 1.268 . S
O432 Sc420 2.105 . S
O432 C426 1.268 . S
O433 Sc419 2.105 . S
O433 C427 1.268 . S
O434 Sc418 2.105 . S
O434 C426 1.268 . S
O435 Sc419 2.105 . S
O435 C425 1.268 . S
O436 Sc420 2.105 . S
O436 C427 1.268 . S
O437 Sc418 2.105 . S
O437 C423 1.268 . S
O438 Sc420 2.105 . S
O438 C422 1.268 . S
O439 Sc419 2.105 . S
O439 C424 1.268 . S
Sc440 O443 2.025 . S
Sc440 O450 2.105 . S
Sc440 O453 2.105 . S
Sc440 O456 2.105 . S
Sc440 O459 2.105 . S
Sc441 O443 2.025 . S
Sc441 O451 2.105 . S
Sc441 O455 2.105 . S
Sc441 O457 2.105 . S
Sc441 O461 2.105 . S
Sc442 O443 2.025 . S
Sc442 O452 2.105 . S
Sc442 O454 2.105 . S
Sc442 O458 2.105 . S
Sc442 O460 2.105 . S
O443 Sc440 2.025 . S
O443 Sc441 2.025 . S
O443 Sc442 2.025 . S
C444 O450 1.268 . S
C444 O460 1.268 . S
C445 O451 1.268 . S
C445 O459 1.268 . S
C446 O452 1.268 . S
C446 O461 1.268 . S
C447 O453 1.268 . S
C447 O457 1.268 . S
C448 O454 1.268 . S
C448 O456 1.268 . S
C449 O455 1.268 . S
C449 O458 1.268 . S
O450 Sc440 2.105 . S
O450 C444 1.268 . S
O451 Sc441 2.105 . S
O451 C445 1.268 . S
O452 Sc442 2.105 . S
O452 C446 1.268 . S
O453 Sc440 2.105 . S
O453 C447 1.268 . S
O454 Sc442 2.105 . S
O454 C448 1.268 . S
O455 Sc441 2.105 . S
O455 C449 1.268 . S
O456 Sc440 2.105 . S
O456 C448 1.268 . S
O457 Sc441 2.105 . S
O457 C447 1.268 . S
O458 Sc442 2.105 . S
O458 C449 1.268 . S
O459 Sc440 2.105 . S
O459 C445 1.268 . S
O460 Sc442 2.105 . S
O460 C444 1.268 . S
O461 Sc441 2.105 . S
O461 C446 1.268 . S
Sc462 O465 2.025 . S
Sc462 O472 2.105 . S
Sc462 O475 2.105 . S
Sc462 O478 2.105 . S
Sc462 O481 2.105 . S
Sc463 O465 2.025 . S
Sc463 O473 2.105 . S
Sc463 O477 2.105 . S
Sc463 O479 2.105 . S
Sc463 O483 2.105 . S
Sc464 O465 2.025 . S
Sc464 O474 2.105 . S
Sc464 O476 2.105 . S
Sc464 O480 2.105 . S
Sc464 O482 2.105 . S
O465 Sc462 2.025 . S
O465 Sc463 2.025 . S
O465 Sc464 2.025 . S
C466 O472 1.268 . S
C466 O482 1.268 . S
C467 O473 1.268 . S
C467 O481 1.268 . S
C468 O474 1.268 . S
C468 O483 1.268 . S
C469 O475 1.268 . S
C469 O479 1.268 . S
C470 O476 1.268 . S
C470 O478 1.268 . S
C471 O477 1.268 . S
C471 O480 1.268 . S
O472 Sc462 2.105 . S
O472 C466 1.268 . S
O473 Sc463 2.105 . S
O473 C467 1.268 . S
O474 Sc464 2.105 . S
O474 C468 1.268 . S
O475 Sc462 2.105 . S
O475 C469 1.268 . S
O476 Sc464 2.105 . S
O476 C470 1.268 . S
O477 Sc463 2.105 . S
O477 C471 1.268 . S
O478 Sc462 2.105 . S
O478 C470 1.268 . S
O479 Sc463 2.105 . S
O479 C469 1.268 . S
O480 Sc464 2.105 . S
O480 C471 1.268 . S
O481 Sc462 2.105 . S
O481 C467 1.268 . S
O482 Sc464 2.105 . S
O482 C466 1.268 . S
O483 Sc463 2.105 . S
O483 C468 1.268 . S
Sc484 O487 2.025 . S
Sc484 O494 2.105 . S
Sc484 O497 2.105 . S
Sc484 O500 2.105 . S
Sc484 O503 2.105 . S
Sc485 O487 2.025 . S
Sc485 O495 2.105 . S
Sc485 O499 2.105 . S
Sc485 O501 2.105 . S
Sc485 O505 2.105 1_545 S
Sc486 O487 2.025 . S
Sc486 O496 2.105 1_545 S
Sc486 O498 2.105 . S
Sc486 O502 2.105 . S
Sc486 O504 2.105 . S
O487 Sc484 2.025 . S
O487 Sc485 2.025 . S
O487 Sc486 2.025 . S
C488 O494 1.268 . S
C488 O504 1.268 . S
C489 O495 1.268 . S
C489 O503 1.268 . S
C490 O496 1.268 . S
C490 O505 1.268 . S
C491 O497 1.268 . S
C491 O501 1.268 . S
C492 O498 1.268 . S
C492 O500 1.268 . S
C493 O499 1.268 . S
C493 O502 1.268 . S
O494 Sc484 2.105 . S
O494 C488 1.268 . S
O495 Sc485 2.105 . S
O495 C489 1.268 . S
O496 Sc486 2.105 1_565 S
O496 C490 1.268 . S
O497 Sc484 2.105 . S
O497 C491 1.268 . S
O498 Sc486 2.105 . S
O498 C492 1.268 . S
O499 Sc485 2.105 . S
O499 C493 1.268 . S
O500 Sc484 2.105 . S
O500 C492 1.268 . S
O501 Sc485 2.105 . S
O501 C491 1.268 . S
O502 Sc486 2.105 . S
O502 C493 1.268 . S
O503 Sc484 2.105 . S
O503 C489 1.268 . S
O504 Sc486 2.105 . S
O504 C488 1.268 . S
O505 Sc485 2.105 1_565 S
O505 C490 1.268 . S
Sc506 O509 2.025 . S
Sc506 O516 2.105 . S
Sc506 O519 2.105 . S
Sc506 O522 2.105 . S
Sc506 O525 2.105 . S
Sc507 O509 2.025 . S
Sc507 O517 2.105 . S
Sc507 O521 2.105 . S
Sc507 O523 2.105 . S
Sc507 O527 2.105 . S
Sc508 O509 2.025 . S
Sc508 O518 2.105 . S
Sc508 O520 2.105 . S
Sc508 O524 2.105 . S
Sc508 O526 2.105 . S
O509 Sc506 2.025 . S
O509 Sc507 2.025 . S
O509 Sc508 2.025 . S
C510 O516 1.268 . S
C510 O526 1.268 . S
C511 O517 1.268 . S
C511 O525 1.268 . S
C512 O518 1.268 . S
C512 O527 1.268 . S
C513 O519 1.268 . S
C513 O523 1.268 . S
C514 O520 1.268 . S
C514 O522 1.268 . S
C515 O521 1.268 . S
C515 O524 1.268 . S
O516 Sc506 2.105 . S
O516 C510 1.268 . S
O517 Sc507 2.105 . S
O517 C511 1.268 . S
O518 Sc508 2.105 . S
O518 C512 1.268 . S
O519 Sc506 2.105 . S
O519 C513 1.268 . S
O520 Sc508 2.105 . S
O520 C514 1.268 . S
O521 Sc507 2.105 . S
O521 C515 1.268 . S
O522 Sc506 2.105 . S
O522 C514 1.268 . S
O523 Sc507 2.105 . S
O523 C513 1.268 . S
O524 Sc508 2.105 . S
O524 C515 1.268 . S
O525 Sc506 2.105 . S
O525 C511 1.268 . S
O526 Sc508 2.105 . S
O526 C510 1.268 . S
O527 Sc507 2.105 . S
O527 C512 1.268 . S
Sc528 O531 2.025 . S
Sc528 O538 2.105 . S
Sc528 O541 2.105 . S
Sc528 O544 2.105 . S
Sc528 O547 2.105 . S
Sc529 O531 2.025 . S
Sc529 O539 2.105 . S
Sc529 O543 2.105 . S
Sc529 O545 2.105 . S
Sc529 O549 2.105 . S
Sc530 O531 2.025 . S
Sc530 O540 2.105 . S
Sc530 O542 2.105 . S
Sc530 O546 2.105 . S
Sc530 O548 2.105 . S
O531 Sc528 2.025 . S
O531 Sc529 2.025 . S
O531 Sc530 2.025 . S
C532 O538 1.268 . S
C532 O548 1.268 . S
C533 O539 1.268 . S
C533 O547 1.268 . S
C534 O540 1.268 . S
C534 O549 1.268 . S
C535 O541 1.268 . S
C535 O545 1.268 . S
C536 O542 1.268 . S
C536 O544 1.268 . S
C537 O543 1.268 . S
C537 O546 1.268 . S
O538 Sc528 2.105 . S
O538 C532 1.268 . S
O539 Sc529 2.105 . S
O539 C533 1.268 . S
O540 Sc530 2.105 . S
O540 C534 1.268 . S
O541 Sc528 2.105 . S
O541 C535 1.268 . S
O542 Sc530 2.105 . S
O542 C536 1.268 . S
O543 Sc529 2.105 . S
O543 C537 1.268 . S
O544 Sc528 2.105 . S
O544 C536 1.268 . S
O545 Sc529 2.105 . S
O545 C535 1.268 . S
O546 Sc530 2.105 . S
O546 C537 1.268 . S
O547 Sc528 2.105 . S
O547 C533 1.268 . S
O548 Sc530 2.105 . S
O548 C532 1.268 . S
O549 Sc529 2.105 . S
O549 C534 1.268 . S
Sc550 O553 2.025 . S
Sc550 O560 2.105 . S
Sc550 O563 2.105 . S
Sc550 O566 2.105 . S
Sc550 O569 2.105 . S
Sc551 O553 2.025 . S
Sc551 O561 2.105 . S
Sc551 O565 2.105 . S
Sc551 O567 2.105 . S
Sc551 O571 2.105 . S
Sc552 O553 2.025 . S
Sc552 O562 2.105 . S
Sc552 O564 2.105 . S
Sc552 O568 2.105 . S
Sc552 O570 2.105 . S
O553 Sc550 2.025 . S
O553 Sc551 2.025 . S
O553 Sc552 2.025 . S
C554 O560 1.268 . S
C554 O570 1.268 . S
C555 O561 1.268 . S
C555 O569 1.268 . S
C556 O562 1.268 . S
C556 O571 1.268 . S
C557 O563 1.268 . S
C557 O567 1.268 . S
C558 O564 1.268 . S
C558 O566 1.268 . S
C559 O565 1.268 . S
C559 O568 1.268 . S
O560 Sc550 2.105 . S
O560 C554 1.268 . S
O561 Sc551 2.105 . S
O561 C555 1.268 . S
O562 Sc552 2.105 . S
O562 C556 1.268 . S
O563 Sc550 2.105 . S
O563 C557 1.268 . S
O564 Sc552 2.105 . S
O564 C558 1.268 . S
O565 Sc551 2.105 . S
O565 C559 1.268 . S
O566 Sc550 2.105 . S
O566 C558 1.268 . S
O567 Sc551 2.105 . S
O567 C557 1.268 . S
O568 Sc552 2.105 . S
O568 C559 1.268 . S
O569 Sc550 2.105 . S
O569 C555 1.268 . S
O570 Sc552 2.105 . S
O570 C554 1.268 . S
O571 Sc551 2.105 . S
O571 C556 1.268 . S
Sc572 O575 2.025 . S
Sc572 O582 2.105 . S
Sc572 O585 2.105 . S
Sc572 O588 2.105 . S
Sc572 O591 2.105 . S
Sc573 O575 2.025 . S
Sc573 O583 2.105 . S
Sc573 O587 2.105 . S
Sc573 O589 2.105 . S
Sc573 O593 2.105 . S
Sc574 O575 2.025 . S
Sc574 O584 2.105 . S
Sc574 O586 2.105 . S
Sc574 O590 2.105 . S
Sc574 O592 2.105 . S
O575 Sc572 2.025 . S
O575 Sc573 2.025 . S
O575 Sc574 2.025 . S
C576 O582 1.268 . S
C576 O592 1.268 . S
C577 O583 1.268 . S
C577 O591 1.268 . S
C578 O584 1.268 . S
C578 O593 1.268 . S
C579 O585 1.268 . S
C579 O589 1.268 . S
C580 O586 1.268 . S
C580 O588 1.268 . S
C581 O587 1.268 . S
C581 O590 1.268 . S
O582 Sc572 2.105 . S
O582 C576 1.268 . S
O583 Sc573 2.105 . S
O583 C577 1.268 . S
O584 Sc574 2.105 . S
O584 C578 1.268 . S
O585 Sc572 2.105 . S
O585 C579 1.268 . S
O586 Sc574 2.105 . S
O586 C580 1.268 . S
O587 Sc573 2.105 . S
O587 C581 1.268 . S
O588 Sc572 2.105 . S
O588 C580 1.268 . S
O589 Sc573 2.105 . S
O589 C579 1.268 . S
O590 Sc574 2.105 . S
O590 C581 1.268 . S
O591 Sc572 2.105 . S
O591 C577 1.268 . S
O592 Sc574 2.105 . S
O592 C576 1.268 . S
O593 Sc573 2.105 . S
O593 C578 1.268 . S
Sc594 O597 2.025 . S
Sc594 O604 2.105 . S
Sc594 O607 2.105 1_455 S
Sc594 O610 2.105 . S
Sc594 O613 2.105 . S
Sc595 O597 2.025 . S
Sc595 O605 2.105 . S
Sc595 O609 2.105 . S
Sc595 O611 2.105 1_455 S
Sc595 O615 2.105 . S
Sc596 O597 2.025 . S
Sc596 O606 2.105 . S
Sc596 O608 2.105 . S
Sc596 O612 2.105 . S
Sc596 O614 2.105 . S
O597 Sc594 2.025 . S
O597 Sc595 2.025 . S
O597 Sc596 2.025 . S
C598 O604 1.268 . S
C598 O614 1.268 . S
C599 O605 1.268 . S
C599 O613 1.268 . S
C600 O606 1.268 . S
C600 O615 1.268 . S
C601 O607 1.268 . S
C601 O611 1.268 . S
C602 O608 1.268 . S
C602 O610 1.268 . S
C603 O609 1.268 . S
C603 O612 1.268 . S
O604 Sc594 2.105 . S
O604 C598 1.268 . S
O605 Sc595 2.105 . S
O605 C599 1.268 . S
O606 Sc596 2.105 . S
O606 C600 1.268 . S
O607 Sc594 2.105 1_655 S
O607 C601 1.268 . S
O608 Sc596 2.105 . S
O608 C602 1.268 . S
O609 Sc595 2.105 . S
O609 C603 1.268 . S
O610 Sc594 2.105 . S
O610 C602 1.268 . S
O611 Sc595 2.105 1_655 S
O611 C601 1.268 . S
O612 Sc596 2.105 . S
O612 C603 1.268 . S
O613 Sc594 2.105 . S
O613 C599 1.268 . S
O614 Sc596 2.105 . S
O614 C598 1.268 . S
O615 Sc595 2.105 . S
O615 C600 1.268 . S
Sc616 O619 2.025 . S
Sc616 O626 2.105 . S
Sc616 O629 2.105 . S
Sc616 O632 2.105 . S
Sc616 O635 2.105 . S
Sc617 O619 2.025 . S
Sc617 O627 2.105 . S
Sc617 O631 2.105 . S
Sc617 O633 2.105 . S
Sc617 O637 2.105 . S
Sc618 O619 2.025 . S
Sc618 O628 2.105 . S
Sc618 O630 2.105 . S
Sc618 O634 2.105 . S
Sc618 O636 2.105 . S
O619 Sc616 2.025 . S
O619 Sc617 2.025 . S
O619 Sc618 2.025 . S
C620 O626 1.268 . S
C620 O636 1.268 . S
C621 O627 1.268 . S
C621 O635 1.268 . S
C622 O628 1.268 . S
C622 O637 1.268 . S
C623 O629 1.268 . S
C623 O633 1.268 . S
C624 O630 1.268 . S
C624 O632 1.268 . S
C625 O631 1.268 . S
C625 O634 1.268 . S
O626 Sc616 2.105 . S
O626 C620 1.268 . S
O627 Sc617 2.105 . S
O627 C621 1.268 . S
O628 Sc618 2.105 . S
O628 C622 1.268 . S
O629 Sc616 2.105 . S
O629 C623 1.268 . S
O630 Sc618 2.105 . S
O630 C624 1.268 . S
O631 Sc617 2.105 . S
O631 C625 1.268 . S
O632 Sc616 2.105 . S
O632 C624 1.268 . S
O633 Sc617 2.105 . S
O633 C623 1.268 . S
O634 Sc618 2.105 . S
O634 C625 1.268 . S
O635 Sc616 2.105 . S
O635 C621 1.268 . S
O636 Sc618 2.105 . S
O636 C620 1.268 . S
O637 Sc617 2.105 . S
O637 C622 1.268 . S
Sc638 O641 2.025 . S
Sc638 O648 2.105 . S
Sc638 O651 2.105 . S
Sc638 O654 2.105 . S
Sc638 O657 2.105 . S
Sc639 O641 2.025 . S
Sc639 O649 2.105 . S
Sc639 O653 2.105 1_545 S
Sc639 O655 2.105 . S
Sc639 O659 2.105 . S
Sc640 O641 2.025 . S
Sc640 O650 2.105 . S
Sc640 O652 2.105 . S
Sc640 O656 2.105 1_545 S
Sc640 O658 2.105 . S
O641 Sc638 2.025 . S
O641 Sc639 2.025 . S
O641 Sc640 2.025 . S
C642 O648 1.268 . S
C642 O658 1.268 . S
C643 O649 1.268 . S
C643 O657 1.268 . S
C644 O650 1.268 . S
C644 O659 1.268 . S
C645 O651 1.268 . S
C645 O655 1.268 . S
C646 O652 1.268 . S
C646 O654 1.268 . S
C647 O653 1.268 . S
C647 O656 1.268 . S
O648 Sc638 2.105 . S
O648 C642 1.268 . S
O649 Sc639 2.105 . S
O649 C643 1.268 . S
O650 Sc640 2.105 . S
O650 C644 1.268 . S
O651 Sc638 2.105 . S
O651 C645 1.268 . S
O652 Sc640 2.105 . S
O652 C646 1.268 . S
O653 Sc639 2.105 1_565 S
O653 C647 1.268 . S
O654 Sc638 2.105 . S
O654 C646 1.268 . S
O655 Sc639 2.105 . S
O655 C645 1.268 . S
O656 Sc640 2.105 1_565 S
O656 C647 1.268 . S
O657 Sc638 2.105 . S
O657 C643 1.268 . S
O658 Sc640 2.105 . S
O658 C642 1.268 . S
O659 Sc639 2.105 . S
O659 C644 1.268 . S
Sc660 O663 2.025 . S
Sc660 O670 2.105 . S
Sc660 O673 2.105 . S
Sc660 O676 2.105 . S
Sc660 O679 2.105 . S
Sc661 O663 2.025 . S
Sc661 O671 2.105 . S
Sc661 O675 2.105 1_554 S
Sc661 O677 2.105 . S
Sc661 O681 2.105 1_545 S
Sc662 O663 2.025 . S
Sc662 O672 2.105 1_545 S
Sc662 O674 2.105 . S
Sc662 O678 2.105 1_554 S
Sc662 O680 2.105 . S
O663 Sc660 2.025 . S
O663 Sc661 2.025 . S
O663 Sc662 2.025 . S
C664 O670 1.268 . S
C664 O680 1.268 . S
C665 O671 1.268 . S
C665 O679 1.268 . S
C666 O672 1.268 . S
C666 O681 1.268 . S
C667 O673 1.268 . S
C667 O677 1.268 . S
C668 O674 1.268 . S
C668 O676 1.268 . S
C669 O675 1.268 . S
C669 O678 1.268 . S
O670 Sc660 2.105 . S
O670 C664 1.268 . S
O671 Sc661 2.105 . S
O671 C665 1.268 . S
O672 Sc662 2.105 1_565 S
O672 C666 1.268 . S
O673 Sc660 2.105 . S
O673 C667 1.268 . S
O674 Sc662 2.105 . S
O674 C668 1.268 . S
O675 Sc661 2.105 1_556 S
O675 C669 1.268 . S
O676 Sc660 2.105 . S
O676 C668 1.268 . S
O677 Sc661 2.105 . S
O677 C667 1.268 . S
O678 Sc662 2.105 1_556 S
O678 C669 1.268 . S
O679 Sc660 2.105 . S
O679 C665 1.268 . S
O680 Sc662 2.105 . S
O680 C664 1.268 . S
O681 Sc661 2.105 1_565 S
O681 C666 1.268 . S
Sc682 O685 2.025 . S
Sc682 O692 2.105 . S
Sc682 O695 2.105 . S
Sc682 O698 2.105 . S
Sc682 O701 2.105 . S
Sc683 O685 2.025 . S
Sc683 O693 2.105 . S
Sc683 O697 2.105 . S
Sc683 O699 2.105 . S
Sc683 O703 2.105 . S
Sc684 O685 2.025 . S
Sc684 O694 2.105 . S
Sc684 O696 2.105 . S
Sc684 O700 2.105 . S
Sc684 O702 2.105 . S
O685 Sc682 2.025 . S
O685 Sc683 2.025 . S
O685 Sc684 2.025 . S
C686 O692 1.268 . S
C686 O702 1.268 . S
C687 O693 1.268 . S
C687 O701 1.268 . S
C688 O694 1.268 . S
C688 O703 1.268 . S
C689 O695 1.268 . S
C689 O699 1.268 . S
C690 O696 1.268 . S
C690 O698 1.268 . S
C691 O697 1.268 . S
C691 O700 1.268 . S
O692 Sc682 2.105 . S
O692 C686 1.268 . S
O693 Sc683 2.105 . S
O693 C687 1.268 . S
O694 Sc684 2.105 . S
O694 C688 1.268 . S
O695 Sc682 2.105 . S
O695 C689 1.268 . S
O696 Sc684 2.105 . S
O696 C690 1.268 . S
O697 Sc683 2.105 . S
O697 C691 1.268 . S
O698 Sc682 2.105 . S
O698 C690 1.268 . S
O699 Sc683 2.105 . S
O699 C689 1.268 . S
O700 Sc684 2.105 . S
O700 C691 1.268 . S
O701 Sc682 2.105 . S
O701 C687 1.268 . S
O702 Sc684 2.105 . S
O702 C686 1.268 . S
O703 Sc683 2.105 . S
O703 C688 1.268 . S
Sc704 O707 2.025 . S
Sc704 O714 2.105 . S
Sc704 O717 2.105 . S
Sc704 O720 2.105 . S
Sc704 O723 2.105 . S
Sc705 O707 2.025 . S
Sc705 O715 2.105 . S
Sc705 O719 2.105 . S
Sc705 O721 2.105 . S
Sc705 O725 2.105 . S
Sc706 O707 2.025 . S
Sc706 O716 2.105 . S
Sc706 O718 2.105 . S
Sc706 O722 2.105 . S
Sc706 O724 2.105 . S
O707 Sc704 2.025 . S
O707 Sc705 2.025 . S
O707 Sc706 2.025 . S
C708 O714 1.268 . S
C708 O724 1.268 . S
C709 O715 1.268 . S
C709 O723 1.268 . S
C710 O716 1.268 . S
C710 O725 1.268 . S
C711 O717 1.268 . S
C711 O721 1.268 . S
C712 O718 1.268 . S
C712 O720 1.268 . S
C713 O719 1.268 . S
C713 O722 1.268 . S
O714 Sc704 2.105 . S
O714 C708 1.268 . S
O715 Sc705 2.105 . S
O715 C709 1.268 . S
O716 Sc706 2.105 . S
O716 C710 1.268 . S
O717 Sc704 2.105 . S
O717 C711 1.268 . S
O718 Sc706 2.105 . S
O718 C712 1.268 . S
O719 Sc705 2.105 . S
O719 C713 1.268 . S
O720 Sc704 2.105 . S
O720 C712 1.268 . S
O721 Sc705 2.105 . S
O721 C711 1.268 . S
O722 Sc706 2.105 . S
O722 C713 1.268 . S
O723 Sc704 2.105 . S
O723 C709 1.268 . S
O724 Sc706 2.105 . S
O724 C708 1.268 . S
O725 Sc705 2.105 . S
O725 C710 1.268 . S
Sc726 O729 2.025 . S
Sc726 O736 2.105 . S
Sc726 O739 2.105 . S
Sc726 O742 2.105 . S
Sc726 O745 2.105 . S
Sc727 O729 2.025 . S
Sc727 O737 2.105 . S
Sc727 O741 2.105 . S
Sc727 O743 2.105 . S
Sc727 O747 2.105 . S
Sc728 O729 2.025 . S
Sc728 O738 2.105 . S
Sc728 O740 2.105 . S
Sc728 O744 2.105 . S
Sc728 O746 2.105 . S
O729 Sc726 2.025 . S
O729 Sc727 2.025 . S
O729 Sc728 2.025 . S
C730 O736 1.268 . S
C730 O746 1.268 . S
C731 O737 1.268 . S
C731 O745 1.268 . S
C732 O738 1.268 . S
C732 O747 1.268 . S
C733 O739 1.268 . S
C733 O743 1.268 . S
C734 O740 1.268 . S
C734 O742 1.268 . S
C735 O741 1.268 . S
C735 O744 1.268 . S
O736 Sc726 2.105 . S
O736 C730 1.268 . S
O737 Sc727 2.105 . S
O737 C731 1.268 . S
O738 Sc728 2.105 . S
O738 C732 1.268 . S
O739 Sc726 2.105 . S
O739 C733 1.268 . S
O740 Sc728 2.105 . S
O740 C734 1.268 . S
O741 Sc727 2.105 . S
O741 C735 1.268 . S
O742 Sc726 2.105 . S
O742 C734 1.268 . S
O743 Sc727 2.105 . S
O743 C733 1.268 . S
O744 Sc728 2.105 . S
O744 C735 1.268 . S
O745 Sc726 2.105 . S
O745 C731 1.268 . S
O746 Sc728 2.105 . S
O746 C730 1.268 . S
O747 Sc727 2.105 . S
O747 C732 1.268 . S
Sc748 O751 2.025 . S
Sc748 O758 2.105 . S
Sc748 O761 2.105 . S
Sc748 O764 2.105 . S
Sc748 O767 2.105 . S
Sc749 O751 2.025 . S
Sc749 O759 2.105 . S
Sc749 O763 2.105 . S
Sc749 O765 2.105 . S
Sc749 O769 2.105 . S
Sc750 O751 2.025 . S
Sc750 O760 2.105 . S
Sc750 O762 2.105 . S
Sc750 O766 2.105 . S
Sc750 O768 2.105 . S
O751 Sc748 2.025 . S
O751 Sc749 2.025 . S
O751 Sc750 2.025 . S
C752 O758 1.268 . S
C752 O768 1.268 . S
C753 O759 1.268 . S
C753 O767 1.268 . S
C754 O760 1.268 . S
C754 O769 1.268 . S
C755 O761 1.268 . S
C755 O765 1.268 . S
C756 O762 1.268 . S
C756 O764 1.268 . S
C757 O763 1.268 . S
C757 O766 1.268 . S
O758 Sc748 2.105 . S
O758 C752 1.268 . S
O759 Sc749 2.105 . S
O759 C753 1.268 . S
O760 Sc750 2.105 . S
O760 C754 1.268 . S
O761 Sc748 2.105 . S
O761 C755 1.268 . S
O762 Sc750 2.105 . S
O762 C756 1.268 . S
O763 Sc749 2.105 . S
O763 C757 1.268 . S
O764 Sc748 2.105 . S
O764 C756 1.268 . S
O765 Sc749 2.105 . S
O765 C755 1.268 . S
O766 Sc750 2.105 . S
O766 C757 1.268 . S
O767 Sc748 2.105 . S
O767 C753 1.268 . S
O768 Sc750 2.105 . S
O768 C752 1.268 . S
O769 Sc749 2.105 . S
O769 C754 1.268 . S
Sc770 O773 2.025 . S
Sc770 O780 2.105 . S
Sc770 O783 2.105 . S
Sc770 O786 2.105 . S
Sc770 O789 2.105 . S
Sc771 O773 2.025 . S
Sc771 O781 2.105 . S
Sc771 O785 2.105 . S
Sc771 O787 2.105 . S
Sc771 O791 2.105 . S
Sc772 O773 2.025 . S
Sc772 O782 2.105 . S
Sc772 O784 2.105 . S
Sc772 O788 2.105 . S
Sc772 O790 2.105 . S
O773 Sc770 2.025 . S
O773 Sc771 2.025 . S
O773 Sc772 2.025 . S
C774 O780 1.268 . S
C774 O790 1.268 . S
C775 O781 1.268 . S
C775 O789 1.268 . S
C776 O782 1.268 . S
C776 O791 1.268 . S
C777 O783 1.268 . S
C777 O787 1.268 . S
C778 O784 1.268 . S
C778 O786 1.268 . S
C779 O785 1.268 . S
C779 O788 1.268 . S
O780 Sc770 2.105 . S
O780 C774 1.268 . S
O781 Sc771 2.105 . S
O781 C775 1.268 . S
O782 Sc772 2.105 . S
O782 C776 1.268 . S
O783 Sc770 2.105 . S
O783 C777 1.268 . S
O784 Sc772 2.105 . S
O784 C778 1.268 . S
O785 Sc771 2.105 . S
O785 C779 1.268 . S
O786 Sc770 2.105 . S
O786 C778 1.268 . S
O787 Sc771 2.105 . S
O787 C777 1.268 . S
O788 Sc772 2.105 . S
O788 C779 1.268 . S
O789 Sc770 2.105 . S
O789 C775 1.268 . S
O790 Sc772 2.105 . S
O790 C774 1.268 . S
O791 Sc771 2.105 . S
O791 C776 1.268 . S
Sc792 O795 2.025 . S
Sc792 O802 2.105 . S
Sc792 O805 2.105 . S
Sc792 O808 2.105 . S
Sc792 O811 2.105 . S
Sc793 O795 2.025 . S
Sc793 O803 2.105 . S
Sc793 O807 2.105 . S
Sc793 O809 2.105 . S
Sc793 O813 2.105 . S
Sc794 O795 2.025 . S
Sc794 O804 2.105 . S
Sc794 O806 2.105 . S
Sc794 O810 2.105 . S
Sc794 O812 2.105 . S
O795 Sc792 2.025 . S
O795 Sc793 2.025 . S
O795 Sc794 2.025 . S
C796 O802 1.268 . S
C796 O812 1.268 . S
C797 O803 1.268 . S
C797 O811 1.268 . S
C798 O804 1.268 . S
C798 O813 1.268 . S
C799 O805 1.268 . S
C799 O809 1.268 . S
C800 O806 1.268 . S
C800 O808 1.268 . S
C801 O807 1.268 . S
C801 O810 1.268 . S
O802 Sc792 2.105 . S
O802 C796 1.268 . S
O803 Sc793 2.105 . S
O803 C797 1.268 . S
O804 Sc794 2.105 . S
O804 C798 1.268 . S
O805 Sc792 2.105 . S
O805 C799 1.268 . S
O806 Sc794 2.105 . S
O806 C800 1.268 . S
O807 Sc793 2.105 . S
O807 C801 1.268 . S
O808 Sc792 2.105 . S
O808 C800 1.268 . S
O809 Sc793 2.105 . S
O809 C799 1.268 . S
O810 Sc794 2.105 . S
O810 C801 1.268 . S
O811 Sc792 2.105 . S
O811 C797 1.268 . S
O812 Sc794 2.105 . S
O812 C796 1.268 . S
O813 Sc793 2.105 . S
O813 C798 1.268 . S
Sc814 O817 2.025 . S
Sc814 O824 2.105 . S
Sc814 O827 2.105 . S
Sc814 O830 2.105 . S
Sc814 O833 2.105 . S
Sc815 O817 2.025 . S
Sc815 O825 2.105 . S
Sc815 O829 2.105 . S
Sc815 O831 2.105 . S
Sc815 O835 2.105 . S
Sc816 O817 2.025 . S
Sc816 O826 2.105 . S
Sc816 O828 2.105 . S
Sc816 O832 2.105 . S
Sc816 O834 2.105 . S
O817 Sc814 2.025 . S
O817 Sc815 2.025 . S
O817 Sc816 2.025 . S
C818 O824 1.268 . S
C818 O834 1.268 . S
C819 O825 1.268 . S
C819 O833 1.268 . S
C820 O826 1.268 . S
C820 O835 1.268 . S
C821 O827 1.268 . S
C821 O831 1.268 . S
C822 O828 1.268 . S
C822 O830 1.268 . S
C823 O829 1.268 . S
C823 O832 1.268 . S
O824 Sc814 2.105 . S
O824 C818 1.268 . S
O825 Sc815 2.105 . S
O825 C819 1.268 . S
O826 Sc816 2.105 . S
O826 C820 1.268 . S
O827 Sc814 2.105 . S
O827 C821 1.268 . S
O828 Sc816 2.105 . S
O828 C822 1.268 . S
O829 Sc815 2.105 . S
O829 C823 1.268 . S
O830 Sc814 2.105 . S
O830 C822 1.268 . S
O831 Sc815 2.105 . S
O831 C821 1.268 . S
O832 Sc816 2.105 . S
O832 C823 1.268 . S
O833 Sc814 2.105 . S
O833 C819 1.268 . S
O834 Sc816 2.105 . S
O834 C818 1.268 . S
O835 Sc815 2.105 . S
O835 C820 1.268 . S
Sc836 O839 2.025 . S
Sc836 O846 2.105 . S
Sc836 O849 2.105 1_554 S
Sc836 O852 2.105 . S
Sc836 O855 2.105 . S
Sc837 O839 2.025 . S
Sc837 O847 2.105 . S
Sc837 O851 2.105 . S
Sc837 O853 2.105 1_554 S
Sc837 O857 2.105 . S
Sc838 O839 2.025 . S
Sc838 O848 2.105 . S
Sc838 O850 2.105 . S
Sc838 O854 2.105 . S
Sc838 O856 2.105 . S
O839 Sc836 2.025 . S
O839 Sc837 2.025 . S
O839 Sc838 2.025 . S
C840 O846 1.268 . S
C840 O856 1.268 . S
C841 O847 1.268 . S
C841 O855 1.268 . S
C842 O848 1.268 . S
C842 O857 1.268 . S
C843 O849 1.268 . S
C843 O853 1.268 . S
C844 O850 1.268 . S
C844 O852 1.268 . S
C845 O851 1.268 . S
C845 O854 1.268 . S
O846 Sc836 2.105 . S
O846 C840 1.268 . S
O847 Sc837 2.105 . S
O847 C841 1.268 . S
O848 Sc838 2.105 . S
O848 C842 1.268 . S
O849 Sc836 2.105 1_556 S
O849 C843 1.268 . S
O850 Sc838 2.105 . S
O850 C844 1.268 . S
O851 Sc837 2.105 . S
O851 C845 1.268 . S
O852 Sc836 2.105 . S
O852 C844 1.268 . S
O853 Sc837 2.105 1_556 S
O853 C843 1.268 . S
O854 Sc838 2.105 . S
O854 C845 1.268 . S
O855 Sc836 2.105 . S
O855 C841 1.268 . S
O856 Sc838 2.105 . S
O856 C840 1.268 . S
O857 Sc837 2.105 . S
O857 C842 1.268 . S
Sc858 O861 2.025 . S
Sc858 O868 2.105 . S
Sc858 O871 2.105 . S
Sc858 O874 2.105 . S
Sc858 O877 2.105 . S
Sc859 O861 2.025 . S
Sc859 O869 2.105 . S
Sc859 O873 2.105 . S
Sc859 O875 2.105 . S
Sc859 O879 2.105 . S
Sc860 O861 2.025 . S
Sc860 O870 2.105 . S
Sc860 O872 2.105 . S
Sc860 O876 2.105 . S
Sc860 O878 2.105 . S
O861 Sc858 2.025 . S
O861 Sc859 2.025 . S
O861 Sc860 2.025 . S
C862 O868 1.268 . S
C862 O878 1.268 . S
C863 O869 1.268 . S
C863 O877 1.268 . S
C864 O870 1.268 . S
C864 O879 1.268 . S
C865 O871 1.268 . S
C865 O875 1.268 . S
C866 O872 1.268 . S
C866 O874 1.268 . S
C867 O873 1.268 . S
C867 O876 1.268 . S
O868 Sc858 2.105 . S
O868 C862 1.268 . S
O869 Sc859 2.105 . S
O869 C863 1.268 . S
O870 Sc860 2.105 . S
O870 C864 1.268 . S
O871 Sc858 2.105 . S
O871 C865 1.268 . S
O872 Sc860 2.105 . S
O872 C866 1.268 . S
O873 Sc859 2.105 . S
O873 C867 1.268 . S
O874 Sc858 2.105 . S
O874 C866 1.268 . S
O875 Sc859 2.105 . S
O875 C865 1.268 . S
O876 Sc860 2.105 . S
O876 C867 1.268 . S
O877 Sc858 2.105 . S
O877 C863 1.268 . S
O878 Sc860 2.105 . S
O878 C862 1.268 . S
O879 Sc859 2.105 . S
O879 C864 1.268 . S
Sc880 O883 2.025 . S
Sc880 O890 2.105 . S
Sc880 O893 2.105 . S
Sc880 O896 2.105 . S
Sc880 O899 2.105 . S
Sc881 O883 2.025 . S
Sc881 O891 2.105 . S
Sc881 O895 2.105 . S
Sc881 O897 2.105 . S
Sc881 O901 2.105 . S
Sc882 O883 2.025 . S
Sc882 O892 2.105 . S
Sc882 O894 2.105 . S
Sc882 O898 2.105 . S
Sc882 O900 2.105 . S
O883 Sc880 2.025 . S
O883 Sc881 2.025 . S
O883 Sc882 2.025 . S
C884 O890 1.268 . S
C884 O900 1.268 . S
C885 O891 1.268 . S
C885 O899 1.268 . S
C886 O892 1.268 . S
C886 O901 1.268 . S
C887 O893 1.268 . S
C887 O897 1.268 . S
C888 O894 1.268 . S
C888 O896 1.268 . S
C889 O895 1.268 . S
C889 O898 1.268 . S
O890 Sc880 2.105 . S
O890 C884 1.268 . S
O891 Sc881 2.105 . S
O891 C885 1.268 . S
O892 Sc882 2.105 . S
O892 C886 1.268 . S
O893 Sc880 2.105 . S
O893 C887 1.268 . S
O894 Sc882 2.105 . S
O894 C888 1.268 . S
O895 Sc881 2.105 . S
O895 C889 1.268 . S
O896 Sc880 2.105 . S
O896 C888 1.268 . S
O897 Sc881 2.105 . S
O897 C887 1.268 . S
O898 Sc882 2.105 . S
O898 C889 1.268 . S
O899 Sc880 2.105 . S
O899 C885 1.268 . S
O900 Sc882 2.105 . S
O900 C884 1.268 . S
O901 Sc881 2.105 . S
O901 C886 1.268 . S
Sc902 O905 2.025 . S
Sc902 O912 2.105 . S
Sc902 O915 2.105 . S
Sc902 O918 2.105 . S
Sc902 O921 2.105 . S
Sc903 O905 2.025 . S
Sc903 O913 2.105 . S
Sc903 O917 2.105 . S
Sc903 O919 2.105 . S
Sc903 O923 2.105 . S
Sc904 O905 2.025 . S
Sc904 O914 2.105 . S
Sc904 O916 2.105 . S
Sc904 O920 2.105 . S
Sc904 O922 2.105 . S
O905 Sc902 2.025 . S
O905 Sc903 2.025 . S
O905 Sc904 2.025 . S
C906 O912 1.268 . S
C906 O922 1.268 . S
C907 O913 1.268 . S
C907 O921 1.268 . S
C908 O914 1.268 . S
C908 O923 1.268 . S
C909 O915 1.268 . S
C909 O919 1.268 . S
C910 O916 1.268 . S
C910 O918 1.268 . S
C911 O917 1.268 . S
C911 O920 1.268 . S
O912 Sc902 2.105 . S
O912 C906 1.268 . S
O913 Sc903 2.105 . S
O913 C907 1.268 . S
O914 Sc904 2.105 . S
O914 C908 1.268 . S
O915 Sc902 2.105 . S
O915 C909 1.268 . S
O916 Sc904 2.105 . S
O916 C910 1.268 . S
O917 Sc903 2.105 . S
O917 C911 1.268 . S
O918 Sc902 2.105 . S
O918 C910 1.268 . S
O919 Sc903 2.105 . S
O919 C909 1.268 . S
O920 Sc904 2.105 . S
O920 C911 1.268 . S
O921 Sc902 2.105 . S
O921 C907 1.268 . S
O922 Sc904 2.105 . S
O922 C906 1.268 . S
O923 Sc903 2.105 . S
O923 C908 1.268 . S
Sc924 O927 2.025 . S
Sc924 O934 2.105 . S
Sc924 O937 2.105 . S
Sc924 O940 2.105 . S
Sc924 O943 2.105 . S
Sc925 O927 2.025 . S
Sc925 O935 2.105 . S
Sc925 O939 2.105 . S
Sc925 O941 2.105 . S
Sc925 O945 2.105 . S
Sc926 O927 2.025 . S
Sc926 O936 2.105 . S
Sc926 O938 2.105 . S
Sc926 O942 2.105 . S
Sc926 O944 2.105 . S
O927 Sc924 2.025 . S
O927 Sc925 2.025 . S
O927 Sc926 2.025 . S
C928 O934 1.268 . S
C928 O944 1.268 . S
C929 O935 1.268 . S
C929 O943 1.268 . S
C930 O936 1.268 . S
C930 O945 1.268 . S
C931 O937 1.268 . S
C931 O941 1.268 . S
C932 O938 1.268 . S
C932 O940 1.268 . S
C933 O939 1.268 . S
C933 O942 1.268 . S
O934 Sc924 2.105 . S
O934 C928 1.268 . S
O935 Sc925 2.105 . S
O935 C929 1.268 . S
O936 Sc926 2.105 . S
O936 C930 1.268 . S
O937 Sc924 2.105 . S
O937 C931 1.268 . S
O938 Sc926 2.105 . S
O938 C932 1.268 . S
O939 Sc925 2.105 . S
O939 C933 1.268 . S
O940 Sc924 2.105 . S
O940 C932 1.268 . S
O941 Sc925 2.105 . S
O941 C931 1.268 . S
O942 Sc926 2.105 . S
O942 C933 1.268 . S
O943 Sc924 2.105 . S
O943 C929 1.268 . S
O944 Sc926 2.105 . S
O944 C928 1.268 . S
O945 Sc925 2.105 . S
O945 C930 1.268 . S
Sc946 O949 2.025 . S
Sc946 O956 2.105 . S
Sc946 O959 2.105 . S
Sc946 O962 2.105 . S
Sc946 O965 2.105 . S
Sc947 O949 2.025 . S
Sc947 O957 2.105 . S
Sc947 O961 2.105 . S
Sc947 O963 2.105 . S
Sc947 O967 2.105 . S
Sc948 O949 2.025 . S
Sc948 O958 2.105 . S
Sc948 O960 2.105 . S
Sc948 O964 2.105 . S
Sc948 O966 2.105 . S
O949 Sc946 2.025 . S
O949 Sc947 2.025 . S
O949 Sc948 2.025 . S
C950 O956 1.268 . S
C950 O966 1.268 . S
C951 O957 1.268 . S
C951 O965 1.268 . S
C952 O958 1.268 . S
C952 O967 1.268 . S
C953 O959 1.268 . S
C953 O963 1.268 . S
C954 O960 1.268 . S
C954 O962 1.268 . S
C955 O961 1.268 . S
C955 O964 1.268 . S
O956 Sc946 2.105 . S
O956 C950 1.268 . S
O957 Sc947 2.105 . S
O957 C951 1.268 . S
O958 Sc948 2.105 . S
O958 C952 1.268 . S
O959 Sc946 2.105 . S
O959 C953 1.268 . S
O960 Sc948 2.105 . S
O960 C954 1.268 . S
O961 Sc947 2.105 . S
O961 C955 1.268 . S
O962 Sc946 2.105 . S
O962 C954 1.268 . S
O963 Sc947 2.105 . S
O963 C953 1.268 . S
O964 Sc948 2.105 . S
O964 C955 1.268 . S
O965 Sc946 2.105 . S
O965 C951 1.268 . S
O966 Sc948 2.105 . S
O966 C950 1.268 . S
O967 Sc947 2.105 . S
O967 C952 1.268 . S
Sc968 O971 2.025 . S
Sc968 O978 2.105 . S
Sc968 O981 2.105 . S
Sc968 O984 2.105 . S
Sc968 O987 2.105 . S
Sc969 O971 2.025 . S
Sc969 O979 2.105 . S
Sc969 O983 2.105 . S
Sc969 O985 2.105 . S
Sc969 O989 2.105 . S
Sc970 O971 2.025 . S
Sc970 O980 2.105 . S
Sc970 O982 2.105 . S
Sc970 O986 2.105 . S
Sc970 O988 2.105 . S
O971 Sc968 2.025 . S
O971 Sc969 2.025 . S
O971 Sc970 2.025 . S
C972 O978 1.268 . S
C972 O988 1.268 . S
C973 O979 1.268 . S
C973 O987 1.268 . S
C974 O980 1.268 . S
C974 O989 1.268 . S
C975 O981 1.268 . S
C975 O985 1.268 . S
C976 O982 1.268 . S
C976 O984 1.268 . S
C977 O983 1.268 . S
C977 O986 1.268 . S
O978 Sc968 2.105 . S
O978 C972 1.268 . S
O979 Sc969 2.105 . S
O979 C973 1.268 . S
O980 Sc970 2.105 . S
O980 C974 1.268 . S
O981 Sc968 2.105 . S
O981 C975 1.268 . S
O982 Sc970 2.105 . S
O982 C976 1.268 . S
O983 Sc969 2.105 . S
O983 C977 1.268 . S
O984 Sc968 2.105 . S
O984 C976 1.268 . S
O985 Sc969 2.105 . S
O985 C975 1.268 . S
O986 Sc970 2.105 . S
O986 C977 1.268 . S
O987 Sc968 2.105 . S
O987 C973 1.268 . S
O988 Sc970 2.105 . S
O988 C972 1.268 . S
O989 Sc969 2.105 . S
O989 C974 1.268 . S
Sc990 O993 2.025 . S
Sc990 O1000 2.105 . S
Sc990 O1003 2.105 . S
Sc990 O1006 2.105 . S
Sc990 O1009 2.105 . S
Sc991 O993 2.025 . S
Sc991 O1001 2.105 . S
Sc991 O1005 2.105 . S
Sc991 O1007 2.105 . S
Sc991 O1011 2.105 1_455 S
Sc992 O993 2.025 . S
Sc992 O1002 2.105 1_455 S
Sc992 O1004 2.105 . S
Sc992 O1008 2.105 . S
Sc992 O1010 2.105 . S
O993 Sc990 2.025 . S
O993 Sc991 2.025 . S
O993 Sc992 2.025 . S
C994 O1000 1.268 . S
C994 O1010 1.268 . S
C995 O1001 1.268 . S
C995 O1009 1.268 . S
C996 O1002 1.268 . S
C996 O1011 1.268 . S
C997 O1003 1.268 . S
C997 O1007 1.268 . S
C998 O1004 1.268 . S
C998 O1006 1.268 . S
C999 O1005 1.268 . S
C999 O1008 1.268 . S
O1000 Sc990 2.105 . S
O1000 C994 1.268 . S
O1001 Sc991 2.105 . S
O1001 C995 1.268 . S
O1002 Sc992 2.105 1_655 S
O1002 C996 1.268 . S
O1003 Sc990 2.105 . S
O1003 C997 1.268 . S
O1004 Sc992 2.105 . S
O1004 C998 1.268 . S
O1005 Sc991 2.105 . S
O1005 C999 1.268 . S
O1006 Sc990 2.105 . S
O1006 C998 1.268 . S
O1007 Sc991 2.105 . S
O1007 C997 1.268 . S
O1008 Sc992 2.105 . S
O1008 C999 1.268 . S
O1009 Sc990 2.105 . S
O1009 C995 1.268 . S
O1010 Sc992 2.105 . S
O1010 C994 1.268 . S
O1011 Sc991 2.105 1_655 S
O1011 C996 1.268 . S
Sc1012 O1015 2.025 . S
Sc1012 O1022 2.105 . S
Sc1012 O1025 2.105 . S
Sc1012 O1028 2.105 . S
Sc1012 O1031 2.105 . S
Sc1013 O1015 2.025 . S
Sc1013 O1023 2.105 . S
Sc1013 O1027 2.105 1_455 S
Sc1013 O1029 2.105 . S
Sc1013 O1033 2.105 . S
Sc1014 O1015 2.025 . S
Sc1014 O1024 2.105 . S
Sc1014 O1026 2.105 . S
Sc1014 O1030 2.105 1_455 S
Sc1014 O1032 2.105 . S
O1015 Sc1012 2.025 . S
O1015 Sc1013 2.025 . S
O1015 Sc1014 2.025 . S
C1016 O1022 1.268 . S
C1016 O1032 1.268 . S
C1017 O1023 1.268 . S
C1017 O1031 1.268 . S
C1018 O1024 1.268 . S
C1018 O1033 1.268 . S
C1019 O1025 1.268 . S
C1019 O1029 1.268 . S
C1020 O1026 1.268 . S
C1020 O1028 1.268 . S
C1021 O1027 1.268 . S
C1021 O1030 1.268 . S
O1022 Sc1012 2.105 . S
O1022 C1016 1.268 . S
O1023 Sc1013 2.105 . S
O1023 C1017 1.268 . S
O1024 Sc1014 2.105 . S
O1024 C1018 1.268 . S
O1025 Sc1012 2.105 . S
O1025 C1019 1.268 . S
O1026 Sc1014 2.105 . S
O1026 C1020 1.268 . S
O1027 Sc1013 2.105 1_655 S
O1027 C1021 1.268 . S
O1028 Sc1012 2.105 . S
O1028 C1020 1.268 . S
O1029 Sc1013 2.105 . S
O1029 C1019 1.268 . S
O1030 Sc1014 2.105 1_655 S
O1030 C1021 1.268 . S
O1031 Sc1012 2.105 . S
O1031 C1017 1.268 . S
O1032 Sc1014 2.105 . S
O1032 C1016 1.268 . S
O1033 Sc1013 2.105 . S
O1033 C1018 1.268 . S
Sc1034 O1037 2.025 . S
Sc1034 O1044 2.105 . S
Sc1034 O1047 2.105 . S
Sc1034 O1050 2.105 . S
Sc1034 O1053 2.105 . S
Sc1035 O1037 2.025 . S
Sc1035 O1045 2.105 . S
Sc1035 O1049 2.105 . S
Sc1035 O1051 2.105 . S
Sc1035 O1055 2.105 . S
Sc1036 O1037 2.025 . S
Sc1036 O1046 2.105 . S
Sc1036 O1048 2.105 . S
Sc1036 O1052 2.105 . S
Sc1036 O1054 2.105 . S
O1037 Sc1034 2.025 . S
O1037 Sc1035 2.025 . S
O1037 Sc1036 2.025 . S
C1038 O1044 1.268 . S
C1038 O1054 1.268 . S
C1039 O1045 1.268 . S
C1039 O1053 1.268 . S
C1040 O1046 1.268 . S
C1040 O1055 1.268 . S
C1041 O1047 1.268 . S
C1041 O1051 1.268 . S
C1042 O1048 1.268 . S
C1042 O1050 1.268 . S
C1043 O1049 1.268 . S
C1043 O1052 1.268 . S
O1044 Sc1034 2.105 . S
O1044 C1038 1.268 . S
O1045 Sc1035 2.105 . S
O1045 C1039 1.268 . S
O1046 Sc1036 2.105 . S
O1046 C1040 1.268 . S
O1047 Sc1034 2.105 . S
O1047 C1041 1.268 . S
O1048 Sc1036 2.105 . S
O1048 C1042 1.268 . S
O1049 Sc1035 2.105 . S
O1049 C1043 1.268 . S
O1050 Sc1034 2.105 . S
O1050 C1042 1.268 . S
O1051 Sc1035 2.105 . S
O1051 C1041 1.268 . S
O1052 Sc1036 2.105 . S
O1052 C1043 1.268 . S
O1053 Sc1034 2.105 . S
O1053 C1039 1.268 . S
O1054 Sc1036 2.105 . S
O1054 C1038 1.268 . S
O1055 Sc1035 2.105 . S
O1055 C1040 1.268 . S
Sc1056 O1059 2.025 . S
Sc1056 O1066 2.105 . S
Sc1056 O1069 2.105 . S
Sc1056 O1072 2.105 . S
Sc1056 O1075 2.105 . S
Sc1057 O1059 2.025 . S
Sc1057 O1067 2.105 . S
Sc1057 O1071 2.105 . S
Sc1057 O1073 2.105 . S
Sc1057 O1077 2.105 . S
Sc1058 O1059 2.025 . S
Sc1058 O1068 2.105 . S
Sc1058 O1070 2.105 . S
Sc1058 O1074 2.105 . S
Sc1058 O1076 2.105 . S
O1059 Sc1056 2.025 . S
O1059 Sc1057 2.025 . S
O1059 Sc1058 2.025 . S
C1060 O1066 1.268 . S
C1060 O1076 1.268 . S
C1061 O1067 1.268 . S
C1061 O1075 1.268 . S
C1062 O1068 1.268 . S
C1062 O1077 1.268 . S
C1063 O1069 1.268 . S
C1063 O1073 1.268 . S
C1064 O1070 1.268 . S
C1064 O1072 1.268 . S
C1065 O1071 1.268 . S
C1065 O1074 1.268 . S
O1066 Sc1056 2.105 . S
O1066 C1060 1.268 . S
O1067 Sc1057 2.105 . S
O1067 C1061 1.268 . S
O1068 Sc1058 2.105 . S
O1068 C1062 1.268 . S
O1069 Sc1056 2.105 . S
O1069 C1063 1.268 . S
O1070 Sc1058 2.105 . S
O1070 C1064 1.268 . S
O1071 Sc1057 2.105 . S
O1071 C1065 1.268 . S
O1072 Sc1056 2.105 . S
O1072 C1064 1.268 . S
O1073 Sc1057 2.105 . S
O1073 C1063 1.268 . S
O1074 Sc1058 2.105 . S
O1074 C1065 1.268 . S
O1075 Sc1056 2.105 . S
O1075 C1061 1.268 . S
O1076 Sc1058 2.105 . S
O1076 C1060 1.268 . S
O1077 Sc1057 2.105 . S
O1077 C1062 1.268 . S
Sc1078 O1081 2.025 . S
Sc1078 O1088 2.105 . S
Sc1078 O1091 2.105 . S
Sc1078 O1094 2.105 . S
Sc1078 O1097 2.105 . S
Sc1079 O1081 2.025 . S
Sc1079 O1089 2.105 . S
Sc1079 O1093 2.105 . S
Sc1079 O1095 2.105 . S
Sc1079 O1099 2.105 . S
Sc1080 O1081 2.025 . S
Sc1080 O1090 2.105 . S
Sc1080 O1092 2.105 . S
Sc1080 O1096 2.105 . S
Sc1080 O1098 2.105 . S
O1081 Sc1078 2.025 . S
O1081 Sc1079 2.025 . S
O1081 Sc1080 2.025 . S
C1082 O1088 1.268 . S
C1082 O1098 1.268 . S
C1083 O1089 1.268 . S
C1083 O1097 1.268 . S
C1084 O1090 1.268 . S
C1084 O1099 1.268 . S
C1085 O1091 1.268 . S
C1085 O1095 1.268 . S
C1086 O1092 1.268 . S
C1086 O1094 1.268 . S
C1087 O1093 1.268 . S
C1087 O1096 1.268 . S
O1088 Sc1078 2.105 . S
O1088 C1082 1.268 . S
O1089 Sc1079 2.105 . S
O1089 C1083 1.268 . S
O1090 Sc1080 2.105 . S
O1090 C1084 1.268 . S
O1091 Sc1078 2.105 . S
O1091 C1085 1.268 . S
O1092 Sc1080 2.105 . S
O1092 C1086 1.268 . S
O1093 Sc1079 2.105 . S
O1093 C1087 1.268 . S
O1094 Sc1078 2.105 . S
O1094 C1086 1.268 . S
O1095 Sc1079 2.105 . S
O1095 C1085 1.268 . S
O1096 Sc1080 2.105 . S
O1096 C1087 1.268 . S
O1097 Sc1078 2.105 . S
O1097 C1083 1.268 . S
O1098 Sc1080 2.105 . S
O1098 C1082 1.268 . S
O1099 Sc1079 2.105 . S
O1099 C1084 1.268 . S
Sc1100 O1103 2.025 . S
Sc1100 O1110 2.105 . S
Sc1100 O1113 2.105 . S
Sc1100 O1116 2.105 . S
Sc1100 O1119 2.105 . S
Sc1101 O1103 2.025 . S
Sc1101 O1111 2.105 . S
Sc1101 O1115 2.105 1_455 S
Sc1101 O1117 2.105 . S
Sc1101 O1121 2.105 . S
Sc1102 O1103 2.025 . S
Sc1102 O1112 2.105 . S
Sc1102 O1114 2.105 . S
Sc1102 O1118 2.105 1_455 S
Sc1102 O1120 2.105 . S
O1103 Sc1100 2.025 . S
O1103 Sc1101 2.025 . S
O1103 Sc1102 2.025 . S
C1104 O1110 1.268 . S
C1104 O1120 1.268 . S
C1105 O1111 1.268 . S
C1105 O1119 1.268 . S
C1106 O1112 1.268 . S
C1106 O1121 1.268 . S
C1107 O1113 1.268 . S
C1107 O1117 1.268 . S
C1108 O1114 1.268 . S
C1108 O1116 1.268 . S
C1109 O1115 1.268 . S
C1109 O1118 1.268 . S
O1110 Sc1100 2.105 . S
O1110 C1104 1.268 . S
O1111 Sc1101 2.105 . S
O1111 C1105 1.268 . S
O1112 Sc1102 2.105 . S
O1112 C1106 1.268 . S
O1113 Sc1100 2.105 . S
O1113 C1107 1.268 . S
O1114 Sc1102 2.105 . S
O1114 C1108 1.268 . S
O1115 Sc1101 2.105 1_655 S
O1115 C1109 1.268 . S
O1116 Sc1100 2.105 . S
O1116 C1108 1.268 . S
O1117 Sc1101 2.105 . S
O1117 C1107 1.268 . S
O1118 Sc1102 2.105 1_655 S
O1118 C1109 1.268 . S
O1119 Sc1100 2.105 . S
O1119 C1105 1.268 . S
O1120 Sc1102 2.105 . S
O1120 C1104 1.268 . S
O1121 Sc1101 2.105 . S
O1121 C1106 1.268 . S
Sc1122 O1125 2.025 . S
Sc1122 O1132 2.105 . S
Sc1122 O1135 2.105 . S
Sc1122 O1138 2.105 . S
Sc1122 O1141 2.105 . S
Sc1123 O1125 2.025 . S
Sc1123 O1133 2.105 . S
Sc1123 O1137 2.105 . S
Sc1123 O1139 2.105 . S
Sc1123 O1143 2.105 . S
Sc1124 O1125 2.025 . S
Sc1124 O1134 2.105 . S
Sc1124 O1136 2.105 . S
Sc1124 O1140 2.105 . S
Sc1124 O1142 2.105 . S
O1125 Sc1122 2.025 . S
O1125 Sc1123 2.025 . S
O1125 Sc1124 2.025 . S
C1126 O1132 1.268 . S
C1126 O1142 1.268 . S
C1127 O1133 1.268 . S
C1127 O1141 1.268 . S
C1128 O1134 1.268 . S
C1128 O1143 1.268 . S
C1129 O1135 1.268 . S
C1129 O1139 1.268 . S
C1130 O1136 1.268 . S
C1130 O1138 1.268 . S
C1131 O1137 1.268 . S
C1131 O1140 1.268 . S
O1132 Sc1122 2.105 . S
O1132 C1126 1.268 . S
O1133 Sc1123 2.105 . S
O1133 C1127 1.268 . S
O1134 Sc1124 2.105 . S
O1134 C1128 1.268 . S
O1135 Sc1122 2.105 . S
O1135 C1129 1.268 . S
O1136 Sc1124 2.105 . S
O1136 C1130 1.268 . S
O1137 Sc1123 2.105 . S
O1137 C1131 1.268 . S
O1138 Sc1122 2.105 . S
O1138 C1130 1.268 . S
O1139 Sc1123 2.105 . S
O1139 C1129 1.268 . S
O1140 Sc1124 2.105 . S
O1140 C1131 1.268 . S
O1141 Sc1122 2.105 . S
O1141 C1127 1.268 . S
O1142 Sc1124 2.105 . S
O1142 C1126 1.268 . S
O1143 Sc1123 2.105 . S
O1143 C1128 1.268 . S
Sc1144 O1147 2.025 . S
Sc1144 O1154 2.105 . S
Sc1144 O1157 2.105 . S
Sc1144 O1160 2.105 . S
Sc1144 O1163 2.105 . S
Sc1145 O1147 2.025 . S
Sc1145 O1155 2.105 . S
Sc1145 O1159 2.105 . S
Sc1145 O1161 2.105 . S
Sc1145 O1165 2.105 . S
Sc1146 O1147 2.025 . S
Sc1146 O1156 2.105 . S
Sc1146 O1158 2.105 . S
Sc1146 O1162 2.105 . S
Sc1146 O1164 2.105 . S
O1147 Sc1144 2.025 . S
O1147 Sc1145 2.025 . S
O1147 Sc1146 2.025 . S
C1148 O1154 1.268 . S
C1148 O1164 1.268 . S
C1149 O1155 1.268 . S
C1149 O1163 1.268 . S
C1150 O1156 1.268 . S
C1150 O1165 1.268 . S
C1151 O1157 1.268 . S
C1151 O1161 1.268 . S
C1152 O1158 1.268 . S
C1152 O1160 1.268 . S
C1153 O1159 1.268 . S
C1153 O1162 1.268 . S
O1154 Sc1144 2.105 . S
O1154 C1148 1.268 . S
O1155 Sc1145 2.105 . S
O1155 C1149 1.268 . S
O1156 Sc1146 2.105 . S
O1156 C1150 1.268 . S
O1157 Sc1144 2.105 . S
O1157 C1151 1.268 . S
O1158 Sc1146 2.105 . S
O1158 C1152 1.268 . S
O1159 Sc1145 2.105 . S
O1159 C1153 1.268 . S
O1160 Sc1144 2.105 . S
O1160 C1152 1.268 . S
O1161 Sc1145 2.105 . S
O1161 C1151 1.268 . S
O1162 Sc1146 2.105 . S
O1162 C1153 1.268 . S
O1163 Sc1144 2.105 . S
O1163 C1149 1.268 . S
O1164 Sc1146 2.105 . S
O1164 C1148 1.268 . S
O1165 Sc1145 2.105 . S
O1165 C1150 1.268 . S
Sc1166 O1169 2.025 . S
Sc1166 O1176 2.105 . S
Sc1166 O1179 2.105 . S
Sc1166 O1182 2.105 . S
Sc1166 O1185 2.105 1_554 S
Sc1167 O1169 2.025 . S
Sc1167 O1177 2.105 1_554 S
Sc1167 O1181 2.105 . S
Sc1167 O1183 2.105 . S
Sc1167 O1187 2.105 . S
Sc1168 O1169 2.025 . S
Sc1168 O1178 2.105 . S
Sc1168 O1180 2.105 . S
Sc1168 O1184 2.105 . S
Sc1168 O1186 2.105 . S
O1169 Sc1166 2.025 . S
O1169 Sc1167 2.025 . S
O1169 Sc1168 2.025 . S
C1170 O1176 1.268 . S
C1170 O1186 1.268 . S
C1171 O1177 1.268 . S
C1171 O1185 1.268 . S
C1172 O1178 1.268 . S
C1172 O1187 1.268 . S
C1173 O1179 1.268 . S
C1173 O1183 1.268 . S
C1174 O1180 1.268 . S
C1174 O1182 1.268 . S
C1175 O1181 1.268 . S
C1175 O1184 1.268 . S
O1176 Sc1166 2.105 . S
O1176 C1170 1.268 . S
O1177 Sc1167 2.105 1_556 S
O1177 C1171 1.268 . S
O1178 Sc1168 2.105 . S
O1178 C1172 1.268 . S
O1179 Sc1166 2.105 . S
O1179 C1173 1.268 . S
O1180 Sc1168 2.105 . S
O1180 C1174 1.268 . S
O1181 Sc1167 2.105 . S
O1181 C1175 1.268 . S
O1182 Sc1166 2.105 . S
O1182 C1174 1.268 . S
O1183 Sc1167 2.105 . S
O1183 C1173 1.268 . S
O1184 Sc1168 2.105 . S
O1184 C1175 1.268 . S
O1185 Sc1166 2.105 1_556 S
O1185 C1171 1.268 . S
O1186 Sc1168 2.105 . S
O1186 C1170 1.268 . S
O1187 Sc1167 2.105 . S
O1187 C1172 1.268 . S
Sc1188 O1191 2.025 . S
Sc1188 O1198 2.105 . S
Sc1188 O1201 2.105 . S
Sc1188 O1204 2.105 . S
Sc1188 O1207 2.105 . S
Sc1189 O1191 2.025 . S
Sc1189 O1199 2.105 . S
Sc1189 O1203 2.105 . S
Sc1189 O1205 2.105 . S
Sc1189 O1209 2.105 . S
Sc1190 O1191 2.025 . S
Sc1190 O1200 2.105 . S
Sc1190 O1202 2.105 . S
Sc1190 O1206 2.105 . S
Sc1190 O1208 2.105 . S
O1191 Sc1188 2.025 . S
O1191 Sc1189 2.025 . S
O1191 Sc1190 2.025 . S
C1192 O1198 1.268 . S
C1192 O1208 1.268 . S
C1193 O1199 1.268 . S
C1193 O1207 1.268 . S
C1194 O1200 1.268 . S
C1194 O1209 1.268 . S
C1195 O1201 1.268 . S
C1195 O1205 1.268 . S
C1196 O1202 1.268 . S
C1196 O1204 1.268 . S
C1197 O1203 1.268 . S
C1197 O1206 1.268 . S
O1198 Sc1188 2.105 . S
O1198 C1192 1.268 . S
O1199 Sc1189 2.105 . S
O1199 C1193 1.268 . S
O1200 Sc1190 2.105 . S
O1200 C1194 1.268 . S
O1201 Sc1188 2.105 . S
O1201 C1195 1.268 . S
O1202 Sc1190 2.105 . S
O1202 C1196 1.268 . S
O1203 Sc1189 2.105 . S
O1203 C1197 1.268 . S
O1204 Sc1188 2.105 . S
O1204 C1196 1.268 . S
O1205 Sc1189 2.105 . S
O1205 C1195 1.268 . S
O1206 Sc1190 2.105 . S
O1206 C1197 1.268 . S
O1207 Sc1188 2.105 . S
O1207 C1193 1.268 . S
O1208 Sc1190 2.105 . S
O1208 C1192 1.268 . S
O1209 Sc1189 2.105 . S
O1209 C1194 1.268 . S
Sc1210 O1213 2.025 . S
Sc1210 O1220 2.105 . S
Sc1210 O1223 2.105 . S
Sc1210 O1226 2.105 . S
Sc1210 O1229 2.105 . S
Sc1211 O1213 2.025 . S
Sc1211 O1221 2.105 . S
Sc1211 O1225 2.105 . S
Sc1211 O1227 2.105 . S
Sc1211 O1231 2.105 . S
Sc1212 O1213 2.025 . S
Sc1212 O1222 2.105 . S
Sc1212 O1224 2.105 . S
Sc1212 O1228 2.105 . S
Sc1212 O1230 2.105 . S
O1213 Sc1210 2.025 . S
O1213 Sc1211 2.025 . S
O1213 Sc1212 2.025 . S
C1214 O1220 1.268 . S
C1214 O1230 1.268 . S
C1215 O1221 1.268 . S
C1215 O1229 1.268 . S
C1216 O1222 1.268 . S
C1216 O1231 1.268 . S
C1217 O1223 1.268 . S
C1217 O1227 1.268 . S
C1218 O1224 1.268 . S
C1218 O1226 1.268 . S
C1219 O1225 1.268 . S
C1219 O1228 1.268 . S
O1220 Sc1210 2.105 . S
O1220 C1214 1.268 . S
O1221 Sc1211 2.105 . S
O1221 C1215 1.268 . S
O1222 Sc1212 2.105 . S
O1222 C1216 1.268 . S
O1223 Sc1210 2.105 . S
O1223 C1217 1.268 . S
O1224 Sc1212 2.105 . S
O1224 C1218 1.268 . S
O1225 Sc1211 2.105 . S
O1225 C1219 1.268 . S
O1226 Sc1210 2.105 . S
O1226 C1218 1.268 . S
O1227 Sc1211 2.105 . S
O1227 C1217 1.268 . S
O1228 Sc1212 2.105 . S
O1228 C1219 1.268 . S
O1229 Sc1210 2.105 . S
O1229 C1215 1.268 . S
O1230 Sc1212 2.105 . S
O1230 C1214 1.268 . S
O1231 Sc1211 2.105 . S
O1231 C1216 1.268 . S
Sc1232 O1235 2.025 . S
Sc1232 O1242 2.105 . S
Sc1232 O1245 2.105 . S
Sc1232 O1248 2.105 . S
Sc1232 O1251 2.105 . S
Sc1233 O1235 2.025 . S
Sc1233 O1243 2.105 . S
Sc1233 O1247 2.105 . S
Sc1233 O1249 2.105 . S
Sc1233 O1253 2.105 . S
Sc1234 O1235 2.025 . S
Sc1234 O1244 2.105 . S
Sc1234 O1246 2.105 . S
Sc1234 O1250 2.105 . S
Sc1234 O1252 2.105 . S
O1235 Sc1232 2.025 . S
O1235 Sc1233 2.025 . S
O1235 Sc1234 2.025 . S
C1236 O1242 1.268 . S
C1236 O1252 1.268 . S
C1237 O1243 1.268 . S
C1237 O1251 1.268 . S
C1238 O1244 1.268 . S
C1238 O1253 1.268 . S
C1239 O1245 1.268 . S
C1239 O1249 1.268 . S
C1240 O1246 1.268 . S
C1240 O1248 1.268 . S
C1241 O1247 1.268 . S
C1241 O1250 1.268 . S
O1242 Sc1232 2.105 . S
O1242 C1236 1.268 . S
O1243 Sc1233 2.105 . S
O1243 C1237 1.268 . S
O1244 Sc1234 2.105 . S
O1244 C1238 1.268 . S
O1245 Sc1232 2.105 . S
O1245 C1239 1.268 . S
O1246 Sc1234 2.105 . S
O1246 C1240 1.268 . S
O1247 Sc1233 2.105 . S
O1247 C1241 1.268 . S
O1248 Sc1232 2.105 . S
O1248 C1240 1.268 . S
O1249 Sc1233 2.105 . S
O1249 C1239 1.268 . S
O1250 Sc1234 2.105 . S
O1250 C1241 1.268 . S
O1251 Sc1232 2.105 . S
O1251 C1237 1.268 . S
O1252 Sc1234 2.105 . S
O1252 C1236 1.268 . S
O1253 Sc1233 2.105 . S
O1253 C1238 1.268 . S
Sc1254 O1257 2.025 . S
Sc1254 O1264 2.105 . S
Sc1254 O1267 2.105 . S
Sc1254 O1270 2.105 . S
Sc1254 O1273 2.105 . S
Sc1255 O1257 2.025 . S
Sc1255 O1265 2.105 . S
Sc1255 O1269 2.105 . S
Sc1255 O1271 2.105 . S
Sc1255 O1275 2.105 . S
Sc1256 O1257 2.025 . S
Sc1256 O1266 2.105 . S
Sc1256 O1268 2.105 . S
Sc1256 O1272 2.105 . S
Sc1256 O1274 2.105 . S
O1257 Sc1254 2.025 . S
O1257 Sc1255 2.025 . S
O1257 Sc1256 2.025 . S
C1258 O1264 1.268 . S
C1258 O1274 1.268 . S
C1259 O1265 1.268 . S
C1259 O1273 1.268 . S
C1260 O1266 1.268 . S
C1260 O1275 1.268 . S
C1261 O1267 1.268 . S
C1261 O1271 1.268 . S
C1262 O1268 1.268 . S
C1262 O1270 1.268 . S
C1263 O1269 1.268 . S
C1263 O1272 1.268 . S
O1264 Sc1254 2.105 . S
O1264 C1258 1.268 . S
O1265 Sc1255 2.105 . S
O1265 C1259 1.268 . S
O1266 Sc1256 2.105 . S
O1266 C1260 1.268 . S
O1267 Sc1254 2.105 . S
O1267 C1261 1.268 . S
O1268 Sc1256 2.105 . S
O1268 C1262 1.268 . S
O1269 Sc1255 2.105 . S
O1269 C1263 1.268 . S
O1270 Sc1254 2.105 . S
O1270 C1262 1.268 . S
O1271 Sc1255 2.105 . S
O1271 C1261 1.268 . S
O1272 Sc1256 2.105 . S
O1272 C1263 1.268 . S
O1273 Sc1254 2.105 . S
O1273 C1259 1.268 . S
O1274 Sc1256 2.105 . S
O1274 C1258 1.268 . S
O1275 Sc1255 2.105 . S
O1275 C1260 1.268 . S
Sc1276 O1279 2.025 . S
Sc1276 O1286 2.105 . S
Sc1276 O1289 2.105 . S
Sc1276 O1292 2.105 . S
Sc1276 O1295 2.105 . S
Sc1277 O1279 2.025 . S
Sc1277 O1287 2.105 . S
Sc1277 O1291 2.105 . S
Sc1277 O1293 2.105 . S
Sc1277 O1297 2.105 . S
Sc1278 O1279 2.025 . S
Sc1278 O1288 2.105 . S
Sc1278 O1290 2.105 . S
Sc1278 O1294 2.105 . S
Sc1278 O1296 2.105 . S
O1279 Sc1276 2.025 . S
O1279 Sc1277 2.025 . S
O1279 Sc1278 2.025 . S
C1280 O1286 1.268 . S
C1280 O1296 1.268 . S
C1281 O1287 1.268 . S
C1281 O1295 1.268 . S
C1282 O1288 1.268 . S
C1282 O1297 1.268 . S
C1283 O1289 1.268 . S
C1283 O1293 1.268 . S
C1284 O1290 1.268 . S
C1284 O1292 1.268 . S
C1285 O1291 1.268 . S
C1285 O1294 1.268 . S
O1286 Sc1276 2.105 . S
O1286 C1280 1.268 . S
O1287 Sc1277 2.105 . S
O1287 C1281 1.268 . S
O1288 Sc1278 2.105 . S
O1288 C1282 1.268 . S
O1289 Sc1276 2.105 . S
O1289 C1283 1.268 . S
O1290 Sc1278 2.105 . S
O1290 C1284 1.268 . S
O1291 Sc1277 2.105 . S
O1291 C1285 1.268 . S
O1292 Sc1276 2.105 . S
O1292 C1284 1.268 . S
O1293 Sc1277 2.105 . S
O1293 C1283 1.268 . S
O1294 Sc1278 2.105 . S
O1294 C1285 1.268 . S
O1295 Sc1276 2.105 . S
O1295 C1281 1.268 . S
O1296 Sc1278 2.105 . S
O1296 C1280 1.268 . S
O1297 Sc1277 2.105 . S
O1297 C1282 1.268 . S
Sc1298 O1301 2.025 . S
Sc1298 O1308 2.105 . S
Sc1298 O1311 2.105 . S
Sc1298 O1314 2.105 . S
Sc1298 O1317 2.105 . S
Sc1299 O1301 2.025 . S
Sc1299 O1309 2.105 . S
Sc1299 O1313 2.105 . S
Sc1299 O1315 2.105 . S
Sc1299 O1319 2.105 . S
Sc1300 O1301 2.025 . S
Sc1300 O1310 2.105 . S
Sc1300 O1312 2.105 . S
Sc1300 O1316 2.105 . S
Sc1300 O1318 2.105 . S
O1301 Sc1298 2.025 . S
O1301 Sc1299 2.025 . S
O1301 Sc1300 2.025 . S
C1302 O1308 1.268 . S
C1302 O1318 1.268 . S
C1303 O1309 1.268 . S
C1303 O1317 1.268 . S
C1304 O1310 1.268 . S
C1304 O1319 1.268 . S
C1305 O1311 1.268 . S
C1305 O1315 1.268 . S
C1306 O1312 1.268 . S
C1306 O1314 1.268 . S
C1307 O1313 1.268 . S
C1307 O1316 1.268 . S
O1308 Sc1298 2.105 . S
O1308 C1302 1.268 . S
O1309 Sc1299 2.105 . S
O1309 C1303 1.268 . S
O1310 Sc1300 2.105 . S
O1310 C1304 1.268 . S
O1311 Sc1298 2.105 . S
O1311 C1305 1.268 . S
O1312 Sc1300 2.105 . S
O1312 C1306 1.268 . S
O1313 Sc1299 2.105 . S
O1313 C1307 1.268 . S
O1314 Sc1298 2.105 . S
O1314 C1306 1.268 . S
O1315 Sc1299 2.105 . S
O1315 C1305 1.268 . S
O1316 Sc1300 2.105 . S
O1316 C1307 1.268 . S
O1317 Sc1298 2.105 . S
O1317 C1303 1.268 . S
O1318 Sc1300 2.105 . S
O1318 C1302 1.268 . S
O1319 Sc1299 2.105 . S
O1319 C1304 1.268 . S
Sc1320 O1323 2.025 . S
Sc1320 O1330 2.105 . S
Sc1320 O1333 2.105 . S
Sc1320 O1336 2.105 . S
Sc1320 O1339 2.105 . S
Sc1321 O1323 2.025 . S
Sc1321 O1331 2.105 . S
Sc1321 O1335 2.105 . S
Sc1321 O1337 2.105 . S
Sc1321 O1341 2.105 . S
Sc1322 O1323 2.025 . S
Sc1322 O1332 2.105 . S
Sc1322 O1334 2.105 . S
Sc1322 O1338 2.105 . S
Sc1322 O1340 2.105 . S
O1323 Sc1320 2.025 . S
O1323 Sc1321 2.025 . S
O1323 Sc1322 2.025 . S
C1324 O1330 1.268 . S
C1324 O1340 1.268 . S
C1325 O1331 1.268 . S
C1325 O1339 1.268 . S
C1326 O1332 1.268 . S
C1326 O1341 1.268 . S
C1327 O1333 1.268 . S
C1327 O1337 1.268 . S
C1328 O1334 1.268 . S
C1328 O1336 1.268 . S
C1329 O1335 1.268 . S
C1329 O1338 1.268 . S
O1330 Sc1320 2.105 . S
O1330 C1324 1.268 . S
O1331 Sc1321 2.105 . S
O1331 C1325 1.268 . S
O1332 Sc1322 2.105 . S
O1332 C1326 1.268 . S
O1333 Sc1320 2.105 . S
O1333 C1327 1.268 . S
O1334 Sc1322 2.105 . S
O1334 C1328 1.268 . S
O1335 Sc1321 2.105 . S
O1335 C1329 1.268 . S
O1336 Sc1320 2.105 . S
O1336 C1328 1.268 . S
O1337 Sc1321 2.105 . S
O1337 C1327 1.268 . S
O1338 Sc1322 2.105 . S
O1338 C1329 1.268 . S
O1339 Sc1320 2.105 . S
O1339 C1325 1.268 . S
O1340 Sc1322 2.105 . S
O1340 C1324 1.268 . S
O1341 Sc1321 2.105 . S
O1341 C1326 1.268 . S
Sc1342 O1345 2.025 . S
Sc1342 O1352 2.105 . S
Sc1342 O1355 2.105 . S
Sc1342 O1358 2.105 . S
Sc1342 O1361 2.105 . S
Sc1343 O1345 2.025 . S
Sc1343 O1353 2.105 . S
Sc1343 O1357 2.105 . S
Sc1343 O1359 2.105 . S
Sc1343 O1363 2.105 . S
Sc1344 O1345 2.025 . S
Sc1344 O1354 2.105 . S
Sc1344 O1356 2.105 . S
Sc1344 O1360 2.105 . S
Sc1344 O1362 2.105 . S
O1345 Sc1342 2.025 . S
O1345 Sc1343 2.025 . S
O1345 Sc1344 2.025 . S
C1346 O1352 1.268 . S
C1346 O1362 1.268 . S
C1347 O1353 1.268 . S
C1347 O1361 1.268 . S
C1348 O1354 1.268 . S
C1348 O1363 1.268 . S
C1349 O1355 1.268 . S
C1349 O1359 1.268 . S
C1350 O1356 1.268 . S
C1350 O1358 1.268 . S
C1351 O1357 1.268 . S
C1351 O1360 1.268 . S
O1352 Sc1342 2.105 . S
O1352 C1346 1.268 . S
O1353 Sc1343 2.105 . S
O1353 C1347 1.268 . S
O1354 Sc1344 2.105 . S
O1354 C1348 1.268 . S
O1355 Sc1342 2.105 . S
O1355 C1349 1.268 . S
O1356 Sc1344 2.105 . S
O1356 C1350 1.268 . S
O1357 Sc1343 2.105 . S
O1357 C1351 1.268 . S
O1358 Sc1342 2.105 . S
O1358 C1350 1.268 . S
O1359 Sc1343 2.105 . S
O1359 C1349 1.268 . S
O1360 Sc1344 2.105 . S
O1360 C1351 1.268 . S
O1361 Sc1342 2.105 . S
O1361 C1347 1.268 . S
O1362 Sc1344 2.105 . S
O1362 C1346 1.268 . S
O1363 Sc1343 2.105 . S
O1363 C1348 1.268 . S
Sc1364 O1367 2.025 . S
Sc1364 O1374 2.105 . S
Sc1364 O1377 2.105 . S
Sc1364 O1380 2.105 . S
Sc1364 O1383 2.105 . S
Sc1365 O1367 2.025 . S
Sc1365 O1375 2.105 . S
Sc1365 O1379 2.105 . S
Sc1365 O1381 2.105 . S
Sc1365 O1385 2.105 . S
Sc1366 O1367 2.025 . S
Sc1366 O1376 2.105 . S
Sc1366 O1378 2.105 . S
Sc1366 O1382 2.105 . S
Sc1366 O1384 2.105 . S
O1367 Sc1364 2.025 . S
O1367 Sc1365 2.025 . S
O1367 Sc1366 2.025 . S
C1368 O1374 1.268 . S
C1368 O1384 1.268 . S
C1369 O1375 1.268 . S
C1369 O1383 1.268 . S
C1370 O1376 1.268 . S
C1370 O1385 1.268 . S
C1371 O1377 1.268 . S
C1371 O1381 1.268 . S
C1372 O1378 1.268 . S
C1372 O1380 1.268 . S
C1373 O1379 1.268 . S
C1373 O1382 1.268 . S
O1374 Sc1364 2.105 . S
O1374 C1368 1.268 . S
O1375 Sc1365 2.105 . S
O1375 C1369 1.268 . S
O1376 Sc1366 2.105 . S
O1376 C1370 1.268 . S
O1377 Sc1364 2.105 . S
O1377 C1371 1.268 . S
O1378 Sc1366 2.105 . S
O1378 C1372 1.268 . S
O1379 Sc1365 2.105 . S
O1379 C1373 1.268 . S
O1380 Sc1364 2.105 . S
O1380 C1372 1.268 . S
O1381 Sc1365 2.105 . S
O1381 C1371 1.268 . S
O1382 Sc1366 2.105 . S
O1382 C1373 1.268 . S
O1383 Sc1364 2.105 . S
O1383 C1369 1.268 . S
O1384 Sc1366 2.105 . S
O1384 C1368 1.268 . S
O1385 Sc1365 2.105 . S
O1385 C1370 1.268 . S
Sc1386 O1389 2.025 . S
Sc1386 O1396 2.105 . S
Sc1386 O1399 2.105 . S
Sc1386 O1402 2.105 . S
Sc1386 O1405 2.105 . S
Sc1387 O1389 2.025 . S
Sc1387 O1397 2.105 . S
Sc1387 O1401 2.105 . S
Sc1387 O1403 2.105 . S
Sc1387 O1407 2.105 . S
Sc1388 O1389 2.025 . S
Sc1388 O1398 2.105 . S
Sc1388 O1400 2.105 . S
Sc1388 O1404 2.105 . S
Sc1388 O1406 2.105 . S
O1389 Sc1386 2.025 . S
O1389 Sc1387 2.025 . S
O1389 Sc1388 2.025 . S
C1390 O1396 1.268 . S
C1390 O1406 1.268 . S
C1391 O1397 1.268 . S
C1391 O1405 1.268 . S
C1392 O1398 1.268 . S
C1392 O1407 1.268 . S
C1393 O1399 1.268 . S
C1393 O1403 1.268 . S
C1394 O1400 1.268 . S
C1394 O1402 1.268 . S
C1395 O1401 1.268 . S
C1395 O1404 1.268 . S
O1396 Sc1386 2.105 . S
O1396 C1390 1.268 . S
O1397 Sc1387 2.105 . S
O1397 C1391 1.268 . S
O1398 Sc1388 2.105 . S
O1398 C1392 1.268 . S
O1399 Sc1386 2.105 . S
O1399 C1393 1.268 . S
O1400 Sc1388 2.105 . S
O1400 C1394 1.268 . S
O1401 Sc1387 2.105 . S
O1401 C1395 1.268 . S
O1402 Sc1386 2.105 . S
O1402 C1394 1.268 . S
O1403 Sc1387 2.105 . S
O1403 C1393 1.268 . S
O1404 Sc1388 2.105 . S
O1404 C1395 1.268 . S
O1405 Sc1386 2.105 . S
O1405 C1391 1.268 . S
O1406 Sc1388 2.105 . S
O1406 C1390 1.268 . S
O1407 Sc1387 2.105 . S
O1407 C1392 1.268 . S
Sc1408 O1411 2.025 . S
Sc1408 O1418 2.105 . S
Sc1408 O1421 2.105 . S
Sc1408 O1424 2.105 . S
Sc1408 O1427 2.105 . S
Sc1409 O1411 2.025 . S
Sc1409 O1419 2.105 . S
Sc1409 O1423 2.105 . S
Sc1409 O1425 2.105 . S
Sc1409 O1429 2.105 . S
Sc1410 O1411 2.025 . S
Sc1410 O1420 2.105 . S
Sc1410 O1422 2.105 . S
Sc1410 O1426 2.105 . S
Sc1410 O1428 2.105 . S
O1411 Sc1408 2.025 . S
O1411 Sc1409 2.025 . S
O1411 Sc1410 2.025 . S
C1412 O1418 1.268 . S
C1412 O1428 1.268 . S
C1413 O1419 1.268 . S
C1413 O1427 1.268 . S
C1414 O1420 1.268 . S
C1414 O1429 1.268 . S
C1415 O1421 1.268 . S
C1415 O1425 1.268 . S
C1416 O1422 1.268 . S
C1416 O1424 1.268 . S
C1417 O1423 1.268 . S
C1417 O1426 1.268 . S
O1418 Sc1408 2.105 . S
O1418 C1412 1.268 . S
O1419 Sc1409 2.105 . S
O1419 C1413 1.268 . S
O1420 Sc1410 2.105 . S
O1420 C1414 1.268 . S
O1421 Sc1408 2.105 . S
O1421 C1415 1.268 . S
O1422 Sc1410 2.105 . S
O1422 C1416 1.268 . S
O1423 Sc1409 2.105 . S
O1423 C1417 1.268 . S
O1424 Sc1408 2.105 . S
O1424 C1416 1.268 . S
O1425 Sc1409 2.105 . S
O1425 C1415 1.268 . S
O1426 Sc1410 2.105 . S
O1426 C1417 1.268 . S
O1427 Sc1408 2.105 . S
O1427 C1413 1.268 . S
O1428 Sc1410 2.105 . S
O1428 C1412 1.268 . S
O1429 Sc1409 2.105 . S
O1429 C1414 1.268 . S
Sc1430 O1433 2.025 . S
Sc1430 O1440 2.105 . S
Sc1430 O1443 2.105 . S
Sc1430 O1446 2.105 . S
Sc1430 O1449 2.105 . S
Sc1431 O1433 2.025 . S
Sc1431 O1441 2.105 . S
Sc1431 O1445 2.105 . S
Sc1431 O1447 2.105 . S
Sc1431 O1451 2.105 . S
Sc1432 O1433 2.025 . S
Sc1432 O1442 2.105 . S
Sc1432 O1444 2.105 . S
Sc1432 O1448 2.105 . S
Sc1432 O1450 2.105 . S
O1433 Sc1430 2.025 . S
O1433 Sc1431 2.025 . S
O1433 Sc1432 2.025 . S
C1434 O1440 1.268 . S
C1434 O1450 1.268 . S
C1435 O1441 1.268 . S
C1435 O1449 1.268 . S
C1436 O1442 1.268 . S
C1436 O1451 1.268 . S
C1437 O1443 1.268 . S
C1437 O1447 1.268 . S
C1438 O1444 1.268 . S
C1438 O1446 1.268 . S
C1439 O1445 1.268 . S
C1439 O1448 1.268 . S
O1440 Sc1430 2.105 . S
O1440 C1434 1.268 . S
O1441 Sc1431 2.105 . S
O1441 C1435 1.268 . S
O1442 Sc1432 2.105 . S
O1442 C1436 1.268 . S
O1443 Sc1430 2.105 . S
O1443 C1437 1.268 . S
O1444 Sc1432 2.105 . S
O1444 C1438 1.268 . S
O1445 Sc1431 2.105 . S
O1445 C1439 1.268 . S
O1446 Sc1430 2.105 . S
O1446 C1438 1.268 . S
O1447 Sc1431 2.105 . S
O1447 C1437 1.268 . S
O1448 Sc1432 2.105 . S
O1448 C1439 1.268 . S
O1449 Sc1430 2.105 . S
O1449 C1435 1.268 . S
O1450 Sc1432 2.105 . S
O1450 C1434 1.268 . S
O1451 Sc1431 2.105 . S
O1451 C1436 1.268 . S
Sc1452 O1455 2.025 . S
Sc1452 O1462 2.105 . S
Sc1452 O1465 2.105 . S
Sc1452 O1468 2.105 . S
Sc1452 O1471 2.105 . S
Sc1453 O1455 2.025 . S
Sc1453 O1463 2.105 . S
Sc1453 O1467 2.105 . S
Sc1453 O1469 2.105 . S
Sc1453 O1473 2.105 . S
Sc1454 O1455 2.025 . S
Sc1454 O1464 2.105 . S
Sc1454 O1466 2.105 . S
Sc1454 O1470 2.105 . S
Sc1454 O1472 2.105 . S
O1455 Sc1452 2.025 . S
O1455 Sc1453 2.025 . S
O1455 Sc1454 2.025 . S
C1456 O1462 1.268 . S
C1456 O1472 1.268 . S
C1457 O1463 1.268 . S
C1457 O1471 1.268 . S
C1458 O1464 1.268 . S
C1458 O1473 1.268 . S
C1459 O1465 1.268 . S
C1459 O1469 1.268 . S
C1460 O1466 1.268 . S
C1460 O1468 1.268 . S
C1461 O1467 1.268 . S
C1461 O1470 1.268 . S
O1462 Sc1452 2.105 . S
O1462 C1456 1.268 . S
O1463 Sc1453 2.105 . S
O1463 C1457 1.268 . S
O1464 Sc1454 2.105 . S
O1464 C1458 1.268 . S
O1465 Sc1452 2.105 . S
O1465 C1459 1.268 . S
O1466 Sc1454 2.105 . S
O1466 C1460 1.268 . S
O1467 Sc1453 2.105 . S
O1467 C1461 1.268 . S
O1468 Sc1452 2.105 . S
O1468 C1460 1.268 . S
O1469 Sc1453 2.105 . S
O1469 C1459 1.268 . S
O1470 Sc1454 2.105 . S
O1470 C1461 1.268 . S
O1471 Sc1452 2.105 . S
O1471 C1457 1.268 . S
O1472 Sc1454 2.105 . S
O1472 C1456 1.268 . S
O1473 Sc1453 2.105 . S
O1473 C1458 1.268 . S
Sc1474 O1477 2.025 . S
Sc1474 O1484 2.105 . S
Sc1474 O1487 2.105 . S
Sc1474 O1490 2.105 . S
Sc1474 O1493 2.105 . S
Sc1475 O1477 2.025 . S
Sc1475 O1485 2.105 . S
Sc1475 O1489 2.105 1_545 S
Sc1475 O1491 2.105 . S
Sc1475 O1495 2.105 . S
Sc1476 O1477 2.025 . S
Sc1476 O1486 2.105 . S
Sc1476 O1488 2.105 . S
Sc1476 O1492 2.105 1_545 S
Sc1476 O1494 2.105 . S
O1477 Sc1474 2.025 . S
O1477 Sc1475 2.025 . S
O1477 Sc1476 2.025 . S
C1478 O1484 1.268 . S
C1478 O1494 1.268 . S
C1479 O1485 1.268 . S
C1479 O1493 1.268 . S
C1480 O1486 1.268 . S
C1480 O1495 1.268 . S
C1481 O1487 1.268 . S
C1481 O1491 1.268 . S
C1482 O1488 1.268 . S
C1482 O1490 1.268 . S
C1483 O1489 1.268 . S
C1483 O1492 1.268 . S
O1484 Sc1474 2.105 . S
O1484 C1478 1.268 . S
O1485 Sc1475 2.105 . S
O1485 C1479 1.268 . S
O1486 Sc1476 2.105 . S
O1486 C1480 1.268 . S
O1487 Sc1474 2.105 . S
O1487 C1481 1.268 . S
O1488 Sc1476 2.105 . S
O1488 C1482 1.268 . S
O1489 Sc1475 2.105 1_565 S
O1489 C1483 1.268 . S
O1490 Sc1474 2.105 . S
O1490 C1482 1.268 . S
O1491 Sc1475 2.105 . S
O1491 C1481 1.268 . S
O1492 Sc1476 2.105 1_565 S
O1492 C1483 1.268 . S
O1493 Sc1474 2.105 . S
O1493 C1479 1.268 . S
O1494 Sc1476 2.105 . S
O1494 C1478 1.268 . S
O1495 Sc1475 2.105 . S
O1495 C1480 1.268 . S
Sc1496 O1499 2.025 . S
Sc1496 O1506 2.105 . S
Sc1496 O1509 2.105 . S
Sc1496 O1512 2.105 . S
Sc1496 O1515 2.105 . S
Sc1497 O1499 2.025 . S
Sc1497 O1507 2.105 . S
Sc1497 O1511 2.105 . S
Sc1497 O1513 2.105 . S
Sc1497 O1517 2.105 . S
Sc1498 O1499 2.025 . S
Sc1498 O1508 2.105 . S
Sc1498 O1510 2.105 . S
Sc1498 O1514 2.105 . S
Sc1498 O1516 2.105 . S
O1499 Sc1496 2.025 . S
O1499 Sc1497 2.025 . S
O1499 Sc1498 2.025 . S
C1500 O1506 1.268 . S
C1500 O1516 1.268 . S
C1501 O1507 1.268 . S
C1501 O1515 1.268 . S
C1502 O1508 1.268 . S
C1502 O1517 1.268 . S
C1503 O1509 1.268 . S
C1503 O1513 1.268 . S
C1504 O1510 1.268 . S
C1504 O1512 1.268 . S
C1505 O1511 1.268 . S
C1505 O1514 1.268 . S
O1506 Sc1496 2.105 . S
O1506 C1500 1.268 . S
O1507 Sc1497 2.105 . S
O1507 C1501 1.268 . S
O1508 Sc1498 2.105 . S
O1508 C1502 1.268 . S
O1509 Sc1496 2.105 . S
O1509 C1503 1.268 . S
O1510 Sc1498 2.105 . S
O1510 C1504 1.268 . S
O1511 Sc1497 2.105 . S
O1511 C1505 1.268 . S
O1512 Sc1496 2.105 . S
O1512 C1504 1.268 . S
O1513 Sc1497 2.105 . S
O1513 C1503 1.268 . S
O1514 Sc1498 2.105 . S
O1514 C1505 1.268 . S
O1515 Sc1496 2.105 . S
O1515 C1501 1.268 . S
O1516 Sc1498 2.105 . S
O1516 C1500 1.268 . S
O1517 Sc1497 2.105 . S
O1517 C1502 1.268 . S
Sc1518 O1521 2.025 . S
Sc1518 O1528 2.105 . S
Sc1518 O1531 2.105 . S
Sc1518 O1534 2.105 . S
Sc1518 O1537 2.105 . S
Sc1519 O1521 2.025 . S
Sc1519 O1529 2.105 . S
Sc1519 O1533 2.105 . S
Sc1519 O1535 2.105 . S
Sc1519 O1539 2.105 . S
Sc1520 O1521 2.025 . S
Sc1520 O1530 2.105 . S
Sc1520 O1532 2.105 . S
Sc1520 O1536 2.105 . S
Sc1520 O1538 2.105 . S
O1521 Sc1518 2.025 . S
O1521 Sc1519 2.025 . S
O1521 Sc1520 2.025 . S
C1522 O1528 1.268 . S
C1522 O1538 1.268 . S
C1523 O1529 1.268 . S
C1523 O1537 1.268 . S
C1524 O1530 1.268 . S
C1524 O1539 1.268 . S
C1525 O1531 1.268 . S
C1525 O1535 1.268 . S
C1526 O1532 1.268 . S
C1526 O1534 1.268 . S
C1527 O1533 1.268 . S
C1527 O1536 1.268 . S
O1528 Sc1518 2.105 . S
O1528 C1522 1.268 . S
O1529 Sc1519 2.105 . S
O1529 C1523 1.268 . S
O1530 Sc1520 2.105 . S
O1530 C1524 1.268 . S
O1531 Sc1518 2.105 . S
O1531 C1525 1.268 . S
O1532 Sc1520 2.105 . S
O1532 C1526 1.268 . S
O1533 Sc1519 2.105 . S
O1533 C1527 1.268 . S
O1534 Sc1518 2.105 . S
O1534 C1526 1.268 . S
O1535 Sc1519 2.105 . S
O1535 C1525 1.268 . S
O1536 Sc1520 2.105 . S
O1536 C1527 1.268 . S
O1537 Sc1518 2.105 . S
O1537 C1523 1.268 . S
O1538 Sc1520 2.105 . S
O1538 C1522 1.268 . S
O1539 Sc1519 2.105 . S
O1539 C1524 1.268 . S
Sc1540 O1543 2.025 . S
Sc1540 O1550 2.105 . S
Sc1540 O1553 2.105 . S
Sc1540 O1556 2.105 . S
Sc1540 O1559 2.105 . S
Sc1541 O1543 2.025 . S
Sc1541 O1551 2.105 . S
Sc1541 O1555 2.105 . S
Sc1541 O1557 2.105 . S
Sc1541 O1561 2.105 . S
Sc1542 O1543 2.025 . S
Sc1542 O1552 2.105 . S
Sc1542 O1554 2.105 . S
Sc1542 O1558 2.105 . S
Sc1542 O1560 2.105 . S
O1543 Sc1540 2.025 . S
O1543 Sc1541 2.025 . S
O1543 Sc1542 2.025 . S
C1544 O1550 1.268 . S
C1544 O1560 1.268 . S
C1545 O1551 1.268 . S
C1545 O1559 1.268 . S
C1546 O1552 1.268 . S
C1546 O1561 1.268 . S
C1547 O1553 1.268 . S
C1547 O1557 1.268 . S
C1548 O1554 1.268 . S
C1548 O1556 1.268 . S
C1549 O1555 1.268 . S
C1549 O1558 1.268 . S
O1550 Sc1540 2.105 . S
O1550 C1544 1.268 . S
O1551 Sc1541 2.105 . S
O1551 C1545 1.268 . S
O1552 Sc1542 2.105 . S
O1552 C1546 1.268 . S
O1553 Sc1540 2.105 . S
O1553 C1547 1.268 . S
O1554 Sc1542 2.105 . S
O1554 C1548 1.268 . S
O1555 Sc1541 2.105 . S
O1555 C1549 1.268 . S
O1556 Sc1540 2.105 . S
O1556 C1548 1.268 . S
O1557 Sc1541 2.105 . S
O1557 C1547 1.268 . S
O1558 Sc1542 2.105 . S
O1558 C1549 1.268 . S
O1559 Sc1540 2.105 . S
O1559 C1545 1.268 . S
O1560 Sc1542 2.105 . S
O1560 C1544 1.268 . S
O1561 Sc1541 2.105 . S
O1561 C1546 1.268 . S
Sc1562 O1565 2.025 . S
Sc1562 O1572 2.105 . S
Sc1562 O1575 2.105 1_554 S
Sc1562 O1578 2.105 . S
Sc1562 O1581 2.105 . S
Sc1563 O1565 2.025 . S
Sc1563 O1573 2.105 . S
Sc1563 O1577 2.105 . S
Sc1563 O1579 2.105 1_554 S
Sc1563 O1583 2.105 . S
Sc1564 O1565 2.025 . S
Sc1564 O1574 2.105 . S
Sc1564 O1576 2.105 . S
Sc1564 O1580 2.105 . S
Sc1564 O1582 2.105 . S
O1565 Sc1562 2.025 . S
O1565 Sc1563 2.025 . S
O1565 Sc1564 2.025 . S
C1566 O1572 1.268 . S
C1566 O1582 1.268 . S
C1567 O1573 1.268 . S
C1567 O1581 1.268 . S
C1568 O1574 1.268 . S
C1568 O1583 1.268 . S
C1569 O1575 1.268 . S
C1569 O1579 1.268 . S
C1570 O1576 1.268 . S
C1570 O1578 1.268 . S
C1571 O1577 1.268 . S
C1571 O1580 1.268 . S
O1572 Sc1562 2.105 . S
O1572 C1566 1.268 . S
O1573 Sc1563 2.105 . S
O1573 C1567 1.268 . S
O1574 Sc1564 2.105 . S
O1574 C1568 1.268 . S
O1575 Sc1562 2.105 1_556 S
O1575 C1569 1.268 . S
O1576 Sc1564 2.105 . S
O1576 C1570 1.268 . S
O1577 Sc1563 2.105 . S
O1577 C1571 1.268 . S
O1578 Sc1562 2.105 . S
O1578 C1570 1.268 . S
O1579 Sc1563 2.105 1_556 S
O1579 C1569 1.268 . S
O1580 Sc1564 2.105 . S
O1580 C1571 1.268 . S
O1581 Sc1562 2.105 . S
O1581 C1567 1.268 . S
O1582 Sc1564 2.105 . S
O1582 C1566 1.268 . S
O1583 Sc1563 2.105 . S
O1583 C1568 1.268 . S
Sc1584 O1587 2.025 . S
Sc1584 O1594 2.105 . S
Sc1584 O1597 2.105 . S
Sc1584 O1600 2.105 . S
Sc1584 O1603 2.105 . S
Sc1585 O1587 2.025 . S
Sc1585 O1595 2.105 . S
Sc1585 O1599 2.105 . S
Sc1585 O1601 2.105 . S
Sc1585 O1605 2.105 . S
Sc1586 O1587 2.025 . S
Sc1586 O1596 2.105 . S
Sc1586 O1598 2.105 . S
Sc1586 O1602 2.105 . S
Sc1586 O1604 2.105 . S
O1587 Sc1584 2.025 . S
O1587 Sc1585 2.025 . S
O1587 Sc1586 2.025 . S
C1588 O1594 1.268 . S
C1588 O1604 1.268 . S
C1589 O1595 1.268 . S
C1589 O1603 1.268 . S
C1590 O1596 1.268 . S
C1590 O1605 1.268 . S
C1591 O1597 1.268 . S
C1591 O1601 1.268 . S
C1592 O1598 1.268 . S
C1592 O1600 1.268 . S
C1593 O1599 1.268 . S
C1593 O1602 1.268 . S
O1594 Sc1584 2.105 . S
O1594 C1588 1.268 . S
O1595 Sc1585 2.105 . S
O1595 C1589 1.268 . S
O1596 Sc1586 2.105 . S
O1596 C1590 1.268 . S
O1597 Sc1584 2.105 . S
O1597 C1591 1.268 . S
O1598 Sc1586 2.105 . S
O1598 C1592 1.268 . S
O1599 Sc1585 2.105 . S
O1599 C1593 1.268 . S
O1600 Sc1584 2.105 . S
O1600 C1592 1.268 . S
O1601 Sc1585 2.105 . S
O1601 C1591 1.268 . S
O1602 Sc1586 2.105 . S
O1602 C1593 1.268 . S
O1603 Sc1584 2.105 . S
O1603 C1589 1.268 . S
O1604 Sc1586 2.105 . S
O1604 C1588 1.268 . S
O1605 Sc1585 2.105 . S
O1605 C1590 1.268 . S
Sc1606 O1609 2.025 . S
Sc1606 O1616 2.105 . S
Sc1606 O1619 2.105 . S
Sc1606 O1622 2.105 . S
Sc1606 O1625 2.105 . S
Sc1607 O1609 2.025 . S
Sc1607 O1617 2.105 . S
Sc1607 O1621 2.105 . S
Sc1607 O1623 2.105 . S
Sc1607 O1627 2.105 . S
Sc1608 O1609 2.025 . S
Sc1608 O1618 2.105 . S
Sc1608 O1620 2.105 . S
Sc1608 O1624 2.105 . S
Sc1608 O1626 2.105 . S
O1609 Sc1606 2.025 . S
O1609 Sc1607 2.025 . S
O1609 Sc1608 2.025 . S
C1610 O1616 1.268 . S
C1610 O1626 1.268 . S
C1611 O1617 1.268 . S
C1611 O1625 1.268 . S
C1612 O1618 1.268 . S
C1612 O1627 1.268 . S
C1613 O1619 1.268 . S
C1613 O1623 1.268 . S
C1614 O1620 1.268 . S
C1614 O1622 1.268 . S
C1615 O1621 1.268 . S
C1615 O1624 1.268 . S
O1616 Sc1606 2.105 . S
O1616 C1610 1.268 . S
O1617 Sc1607 2.105 . S
O1617 C1611 1.268 . S
O1618 Sc1608 2.105 . S
O1618 C1612 1.268 . S
O1619 Sc1606 2.105 . S
O1619 C1613 1.268 . S
O1620 Sc1608 2.105 . S
O1620 C1614 1.268 . S
O1621 Sc1607 2.105 . S
O1621 C1615 1.268 . S
O1622 Sc1606 2.105 . S
O1622 C1614 1.268 . S
O1623 Sc1607 2.105 . S
O1623 C1613 1.268 . S
O1624 Sc1608 2.105 . S
O1624 C1615 1.268 . S
O1625 Sc1606 2.105 . S
O1625 C1611 1.268 . S
O1626 Sc1608 2.105 . S
O1626 C1610 1.268 . S
O1627 Sc1607 2.105 . S
O1627 C1612 1.268 . S
Sc1628 O1631 2.025 . S
Sc1628 O1638 2.105 . S
Sc1628 O1641 2.105 . S
Sc1628 O1644 2.105 . S
Sc1628 O1647 2.105 . S
Sc1629 O1631 2.025 . S
Sc1629 O1639 2.105 . S
Sc1629 O1643 2.105 . S
Sc1629 O1645 2.105 . S
Sc1629 O1649 2.105 . S
Sc1630 O1631 2.025 . S
Sc1630 O1640 2.105 . S
Sc1630 O1642 2.105 . S
Sc1630 O1646 2.105 . S
Sc1630 O1648 2.105 . S
O1631 Sc1628 2.025 . S
O1631 Sc1629 2.025 . S
O1631 Sc1630 2.025 . S
C1632 O1638 1.268 . S
C1632 O1648 1.268 . S
C1633 O1639 1.268 . S
C1633 O1647 1.268 . S
C1634 O1640 1.268 . S
C1634 O1649 1.268 . S
C1635 O1641 1.268 . S
C1635 O1645 1.268 . S
C1636 O1642 1.268 . S
C1636 O1644 1.268 . S
C1637 O1643 1.268 . S
C1637 O1646 1.268 . S
O1638 Sc1628 2.105 . S
O1638 C1632 1.268 . S
O1639 Sc1629 2.105 . S
O1639 C1633 1.268 . S
O1640 Sc1630 2.105 . S
O1640 C1634 1.268 . S
O1641 Sc1628 2.105 . S
O1641 C1635 1.268 . S
O1642 Sc1630 2.105 . S
O1642 C1636 1.268 . S
O1643 Sc1629 2.105 . S
O1643 C1637 1.268 . S
O1644 Sc1628 2.105 . S
O1644 C1636 1.268 . S
O1645 Sc1629 2.105 . S
O1645 C1635 1.268 . S
O1646 Sc1630 2.105 . S
O1646 C1637 1.268 . S
O1647 Sc1628 2.105 . S
O1647 C1633 1.268 . S
O1648 Sc1630 2.105 . S
O1648 C1632 1.268 . S
O1649 Sc1629 2.105 . S
O1649 C1634 1.268 . S
Sc1650 O1653 2.025 . S
Sc1650 O1660 2.105 . S
Sc1650 O1663 2.105 . S
Sc1650 O1666 2.105 . S
Sc1650 O1669 2.105 1_554 S
Sc1651 O1653 2.025 . S
Sc1651 O1661 2.105 1_554 S
Sc1651 O1665 2.105 . S
Sc1651 O1667 2.105 . S
Sc1651 O1671 2.105 . S
Sc1652 O1653 2.025 . S
Sc1652 O1662 2.105 . S
Sc1652 O1664 2.105 . S
Sc1652 O1668 2.105 . S
Sc1652 O1670 2.105 . S
O1653 Sc1650 2.025 . S
O1653 Sc1651 2.025 . S
O1653 Sc1652 2.025 . S
C1654 O1660 1.268 . S
C1654 O1670 1.268 . S
C1655 O1661 1.268 . S
C1655 O1669 1.268 . S
C1656 O1662 1.268 . S
C1656 O1671 1.268 . S
C1657 O1663 1.268 . S
C1657 O1667 1.268 . S
C1658 O1664 1.268 . S
C1658 O1666 1.268 . S
C1659 O1665 1.268 . S
C1659 O1668 1.268 . S
O1660 Sc1650 2.105 . S
O1660 C1654 1.268 . S
O1661 Sc1651 2.105 1_556 S
O1661 C1655 1.268 . S
O1662 Sc1652 2.105 . S
O1662 C1656 1.268 . S
O1663 Sc1650 2.105 . S
O1663 C1657 1.268 . S
O1664 Sc1652 2.105 . S
O1664 C1658 1.268 . S
O1665 Sc1651 2.105 . S
O1665 C1659 1.268 . S
O1666 Sc1650 2.105 . S
O1666 C1658 1.268 . S
O1667 Sc1651 2.105 . S
O1667 C1657 1.268 . S
O1668 Sc1652 2.105 . S
O1668 C1659 1.268 . S
O1669 Sc1650 2.105 1_556 S
O1669 C1655 1.268 . S
O1670 Sc1652 2.105 . S
O1670 C1654 1.268 . S
O1671 Sc1651 2.105 . S
O1671 C1656 1.268 . S
Sc1672 O1675 2.025 . S
Sc1672 O1682 2.105 . S
Sc1672 O1685 2.105 . S
Sc1672 O1688 2.105 . S
Sc1672 O1691 2.105 . S
Sc1673 O1675 2.025 . S
Sc1673 O1683 2.105 . S
Sc1673 O1687 2.105 . S
Sc1673 O1689 2.105 . S
Sc1673 O1693 2.105 . S
Sc1674 O1675 2.025 . S
Sc1674 O1684 2.105 . S
Sc1674 O1686 2.105 . S
Sc1674 O1690 2.105 . S
Sc1674 O1692 2.105 . S
O1675 Sc1672 2.025 . S
O1675 Sc1673 2.025 . S
O1675 Sc1674 2.025 . S
C1676 O1682 1.268 . S
C1676 O1692 1.268 . S
C1677 O1683 1.268 . S
C1677 O1691 1.268 . S
C1678 O1684 1.268 . S
C1678 O1693 1.268 . S
C1679 O1685 1.268 . S
C1679 O1689 1.268 . S
C1680 O1686 1.268 . S
C1680 O1688 1.268 . S
C1681 O1687 1.268 . S
C1681 O1690 1.268 . S
O1682 Sc1672 2.105 . S
O1682 C1676 1.268 . S
O1683 Sc1673 2.105 . S
O1683 C1677 1.268 . S
O1684 Sc1674 2.105 . S
O1684 C1678 1.268 . S
O1685 Sc1672 2.105 . S
O1685 C1679 1.268 . S
O1686 Sc1674 2.105 . S
O1686 C1680 1.268 . S
O1687 Sc1673 2.105 . S
O1687 C1681 1.268 . S
O1688 Sc1672 2.105 . S
O1688 C1680 1.268 . S
O1689 Sc1673 2.105 . S
O1689 C1679 1.268 . S
O1690 Sc1674 2.105 . S
O1690 C1681 1.268 . S
O1691 Sc1672 2.105 . S
O1691 C1677 1.268 . S
O1692 Sc1674 2.105 . S
O1692 C1676 1.268 . S
O1693 Sc1673 2.105 . S
O1693 C1678 1.268 . S
Sc1694 O1697 2.025 . S
Sc1694 O1704 2.105 . S
Sc1694 O1707 2.105 . S
Sc1694 O1710 2.105 . S
Sc1694 O1713 2.105 . S
Sc1695 O1697 2.025 . S
Sc1695 O1705 2.105 . S
Sc1695 O1709 2.105 1_554 S
Sc1695 O1711 2.105 . S
Sc1695 O1715 2.105 . S
Sc1696 O1697 2.025 . S
Sc1696 O1706 2.105 . S
Sc1696 O1708 2.105 . S
Sc1696 O1712 2.105 1_554 S
Sc1696 O1714 2.105 . S
O1697 Sc1694 2.025 . S
O1697 Sc1695 2.025 . S
O1697 Sc1696 2.025 . S
C1698 O1704 1.268 . S
C1698 O1714 1.268 . S
C1699 O1705 1.268 . S
C1699 O1713 1.268 . S
C1700 O1706 1.268 . S
C1700 O1715 1.268 . S
C1701 O1707 1.268 . S
C1701 O1711 1.268 . S
C1702 O1708 1.268 . S
C1702 O1710 1.268 . S
C1703 O1709 1.268 . S
C1703 O1712 1.268 . S
O1704 Sc1694 2.105 . S
O1704 C1698 1.268 . S
O1705 Sc1695 2.105 . S
O1705 C1699 1.268 . S
O1706 Sc1696 2.105 . S
O1706 C1700 1.268 . S
O1707 Sc1694 2.105 . S
O1707 C1701 1.268 . S
O1708 Sc1696 2.105 . S
O1708 C1702 1.268 . S
O1709 Sc1695 2.105 1_556 S
O1709 C1703 1.268 . S
O1710 Sc1694 2.105 . S
O1710 C1702 1.268 . S
O1711 Sc1695 2.105 . S
O1711 C1701 1.268 . S
O1712 Sc1696 2.105 1_556 S
O1712 C1703 1.268 . S
O1713 Sc1694 2.105 . S
O1713 C1699 1.268 . S
O1714 Sc1696 2.105 . S
O1714 C1698 1.268 . S
O1715 Sc1695 2.105 . S
O1715 C1700 1.268 . S
Sc1716 O1719 2.025 . S
Sc1716 O1726 2.105 . S
Sc1716 O1729 2.105 . S
Sc1716 O1732 2.105 . S
Sc1716 O1735 2.105 . S
Sc1717 O1719 2.025 . S
Sc1717 O1727 2.105 . S
Sc1717 O1731 2.105 . S
Sc1717 O1733 2.105 . S
Sc1717 O1737 2.105 . S
Sc1718 O1719 2.025 . S
Sc1718 O1728 2.105 . S
Sc1718 O1730 2.105 . S
Sc1718 O1734 2.105 . S
Sc1718 O1736 2.105 . S
O1719 Sc1716 2.025 . S
O1719 Sc1717 2.025 . S
O1719 Sc1718 2.025 . S
C1720 O1726 1.268 . S
C1720 O1736 1.268 . S
C1721 O1727 1.268 . S
C1721 O1735 1.268 . S
C1722 O1728 1.268 . S
C1722 O1737 1.268 . S
C1723 O1729 1.268 . S
C1723 O1733 1.268 . S
C1724 O1730 1.268 . S
C1724 O1732 1.268 . S
C1725 O1731 1.268 . S
C1725 O1734 1.268 . S
O1726 Sc1716 2.105 . S
O1726 C1720 1.268 . S
O1727 Sc1717 2.105 . S
O1727 C1721 1.268 . S
O1728 Sc1718 2.105 . S
O1728 C1722 1.268 . S
O1729 Sc1716 2.105 . S
O1729 C1723 1.268 . S
O1730 Sc1718 2.105 . S
O1730 C1724 1.268 . S
O1731 Sc1717 2.105 . S
O1731 C1725 1.268 . S
O1732 Sc1716 2.105 . S
O1732 C1724 1.268 . S
O1733 Sc1717 2.105 . S
O1733 C1723 1.268 . S
O1734 Sc1718 2.105 . S
O1734 C1725 1.268 . S
O1735 Sc1716 2.105 . S
O1735 C1721 1.268 . S
O1736 Sc1718 2.105 . S
O1736 C1720 1.268 . S
O1737 Sc1717 2.105 . S
O1737 C1722 1.268 . S
Sc1738 O1741 2.025 . S
Sc1738 O1748 2.105 . S
Sc1738 O1751 2.105 . S
Sc1738 O1754 2.105 . S
Sc1738 O1757 2.105 . S
Sc1739 O1741 2.025 . S
Sc1739 O1749 2.105 . S
Sc1739 O1753 2.105 . S
Sc1739 O1755 2.105 . S
Sc1739 O1759 2.105 1_545 S
Sc1740 O1741 2.025 . S
Sc1740 O1750 2.105 1_545 S
Sc1740 O1752 2.105 . S
Sc1740 O1756 2.105 . S
Sc1740 O1758 2.105 . S
O1741 Sc1738 2.025 . S
O1741 Sc1739 2.025 . S
O1741 Sc1740 2.025 . S
C1742 O1748 1.268 . S
C1742 O1758 1.268 . S
C1743 O1749 1.268 . S
C1743 O1757 1.268 . S
C1744 O1750 1.268 . S
C1744 O1759 1.268 . S
C1745 O1751 1.268 . S
C1745 O1755 1.268 . S
C1746 O1752 1.268 . S
C1746 O1754 1.268 . S
C1747 O1753 1.268 . S
C1747 O1756 1.268 . S
O1748 Sc1738 2.105 . S
O1748 C1742 1.268 . S
O1749 Sc1739 2.105 . S
O1749 C1743 1.268 . S
O1750 Sc1740 2.105 1_565 S
O1750 C1744 1.268 . S
O1751 Sc1738 2.105 . S
O1751 C1745 1.268 . S
O1752 Sc1740 2.105 . S
O1752 C1746 1.268 . S
O1753 Sc1739 2.105 . S
O1753 C1747 1.268 . S
O1754 Sc1738 2.105 . S
O1754 C1746 1.268 . S
O1755 Sc1739 2.105 . S
O1755 C1745 1.268 . S
O1756 Sc1740 2.105 . S
O1756 C1747 1.268 . S
O1757 Sc1738 2.105 . S
O1757 C1743 1.268 . S
O1758 Sc1740 2.105 . S
O1758 C1742 1.268 . S
O1759 Sc1739 2.105 1_565 S
O1759 C1744 1.268 . S
Sc1760 O1763 2.025 . S
Sc1760 O1770 2.105 . S
Sc1760 O1773 2.105 . S
Sc1760 O1776 2.105 . S
Sc1760 O1779 2.105 . S
Sc1761 O1763 2.025 . S
Sc1761 O1771 2.105 . S
Sc1761 O1775 2.105 . S
Sc1761 O1777 2.105 . S
Sc1761 O1781 2.105 . S
Sc1762 O1763 2.025 . S
Sc1762 O1772 2.105 . S
Sc1762 O1774 2.105 . S
Sc1762 O1778 2.105 . S
Sc1762 O1780 2.105 . S
O1763 Sc1760 2.025 . S
O1763 Sc1761 2.025 . S
O1763 Sc1762 2.025 . S
C1764 O1770 1.268 . S
C1764 O1780 1.268 . S
C1765 O1771 1.268 . S
C1765 O1779 1.268 . S
C1766 O1772 1.268 . S
C1766 O1781 1.268 . S
C1767 O1773 1.268 . S
C1767 O1777 1.268 . S
C1768 O1774 1.268 . S
C1768 O1776 1.268 . S
C1769 O1775 1.268 . S
C1769 O1778 1.268 . S
O1770 Sc1760 2.105 . S
O1770 C1764 1.268 . S
O1771 Sc1761 2.105 . S
O1771 C1765 1.268 . S
O1772 Sc1762 2.105 . S
O1772 C1766 1.268 . S
O1773 Sc1760 2.105 . S
O1773 C1767 1.268 . S
O1774 Sc1762 2.105 . S
O1774 C1768 1.268 . S
O1775 Sc1761 2.105 . S
O1775 C1769 1.268 . S
O1776 Sc1760 2.105 . S
O1776 C1768 1.268 . S
O1777 Sc1761 2.105 . S
O1777 C1767 1.268 . S
O1778 Sc1762 2.105 . S
O1778 C1769 1.268 . S
O1779 Sc1760 2.105 . S
O1779 C1765 1.268 . S
O1780 Sc1762 2.105 . S
O1780 C1764 1.268 . S
O1781 Sc1761 2.105 . S
O1781 C1766 1.268 . S
Sc1782 O1785 2.025 . S
Sc1782 O1792 2.105 . S
Sc1782 O1795 2.105 . S
Sc1782 O1798 2.105 . S
Sc1782 O1801 2.105 . S
Sc1783 O1785 2.025 . S
Sc1783 O1793 2.105 . S
Sc1783 O1797 2.105 . S
Sc1783 O1799 2.105 . S
Sc1783 O1803 2.105 . S
Sc1784 O1785 2.025 . S
Sc1784 O1794 2.105 . S
Sc1784 O1796 2.105 . S
Sc1784 O1800 2.105 . S
Sc1784 O1802 2.105 . S
O1785 Sc1782 2.025 . S
O1785 Sc1783 2.025 . S
O1785 Sc1784 2.025 . S
C1786 O1792 1.268 . S
C1786 O1802 1.268 . S
C1787 O1793 1.268 . S
C1787 O1801 1.268 . S
C1788 O1794 1.268 . S
C1788 O1803 1.268 . S
C1789 O1795 1.268 . S
C1789 O1799 1.268 . S
C1790 O1796 1.268 . S
C1790 O1798 1.268 . S
C1791 O1797 1.268 . S
C1791 O1800 1.268 . S
O1792 Sc1782 2.105 . S
O1792 C1786 1.268 . S
O1793 Sc1783 2.105 . S
O1793 C1787 1.268 . S
O1794 Sc1784 2.105 . S
O1794 C1788 1.268 . S
O1795 Sc1782 2.105 . S
O1795 C1789 1.268 . S
O1796 Sc1784 2.105 . S
O1796 C1790 1.268 . S
O1797 Sc1783 2.105 . S
O1797 C1791 1.268 . S
O1798 Sc1782 2.105 . S
O1798 C1790 1.268 . S
O1799 Sc1783 2.105 . S
O1799 C1789 1.268 . S
O1800 Sc1784 2.105 . S
O1800 C1791 1.268 . S
O1801 Sc1782 2.105 . S
O1801 C1787 1.268 . S
O1802 Sc1784 2.105 . S
O1802 C1786 1.268 . S
O1803 Sc1783 2.105 . S
O1803 C1788 1.268 . S
Sc1804 O1807 2.025 . S
Sc1804 O1814 2.105 . S
Sc1804 O1817 2.105 . S
Sc1804 O1820 2.105 . S
Sc1804 O1823 2.105 . S
Sc1805 O1807 2.025 . S
Sc1805 O1815 2.105 . S
Sc1805 O1819 2.105 . S
Sc1805 O1821 2.105 . S
Sc1805 O1825 2.105 1_545 S
Sc1806 O1807 2.025 . S
Sc1806 O1816 2.105 1_545 S
Sc1806 O1818 2.105 . S
Sc1806 O1822 2.105 . S
Sc1806 O1824 2.105 . S
O1807 Sc1804 2.025 . S
O1807 Sc1805 2.025 . S
O1807 Sc1806 2.025 . S
C1808 O1814 1.268 . S
C1808 O1824 1.268 . S
C1809 O1815 1.268 . S
C1809 O1823 1.268 . S
C1810 O1816 1.268 . S
C1810 O1825 1.268 . S
C1811 O1817 1.268 . S
C1811 O1821 1.268 . S
C1812 O1818 1.268 . S
C1812 O1820 1.268 . S
C1813 O1819 1.268 . S
C1813 O1822 1.268 . S
O1814 Sc1804 2.105 . S
O1814 C1808 1.268 . S
O1815 Sc1805 2.105 . S
O1815 C1809 1.268 . S
O1816 Sc1806 2.105 1_565 S
O1816 C1810 1.268 . S
O1817 Sc1804 2.105 . S
O1817 C1811 1.268 . S
O1818 Sc1806 2.105 . S
O1818 C1812 1.268 . S
O1819 Sc1805 2.105 . S
O1819 C1813 1.268 . S
O1820 Sc1804 2.105 . S
O1820 C1812 1.268 . S
O1821 Sc1805 2.105 . S
O1821 C1811 1.268 . S
O1822 Sc1806 2.105 . S
O1822 C1813 1.268 . S
O1823 Sc1804 2.105 . S
O1823 C1809 1.268 . S
O1824 Sc1806 2.105 . S
O1824 C1808 1.268 . S
O1825 Sc1805 2.105 1_565 S
O1825 C1810 1.268 . S
Sc1826 O1829 2.025 . S
Sc1826 O1836 2.105 . S
Sc1826 O1839 2.105 . S
Sc1826 O1842 2.105 . S
Sc1826 O1845 2.105 . S
Sc1827 O1829 2.025 . S
Sc1827 O1837 2.105 . S
Sc1827 O1841 2.105 . S
Sc1827 O1843 2.105 . S
Sc1827 O1847 2.105 . S
Sc1828 O1829 2.025 . S
Sc1828 O1838 2.105 . S
Sc1828 O1840 2.105 . S
Sc1828 O1844 2.105 . S
Sc1828 O1846 2.105 . S
O1829 Sc1826 2.025 . S
O1829 Sc1827 2.025 . S
O1829 Sc1828 2.025 . S
C1830 O1836 1.268 . S
C1830 O1846 1.268 . S
C1831 O1837 1.268 . S
C1831 O1845 1.268 . S
C1832 O1838 1.268 . S
C1832 O1847 1.268 . S
C1833 O1839 1.268 . S
C1833 O1843 1.268 . S
C1834 O1840 1.268 . S
C1834 O1842 1.268 . S
C1835 O1841 1.268 . S
C1835 O1844 1.268 . S
O1836 Sc1826 2.105 . S
O1836 C1830 1.268 . S
O1837 Sc1827 2.105 . S
O1837 C1831 1.268 . S
O1838 Sc1828 2.105 . S
O1838 C1832 1.268 . S
O1839 Sc1826 2.105 . S
O1839 C1833 1.268 . S
O1840 Sc1828 2.105 . S
O1840 C1834 1.268 . S
O1841 Sc1827 2.105 . S
O1841 C1835 1.268 . S
O1842 Sc1826 2.105 . S
O1842 C1834 1.268 . S
O1843 Sc1827 2.105 . S
O1843 C1833 1.268 . S
O1844 Sc1828 2.105 . S
O1844 C1835 1.268 . S
O1845 Sc1826 2.105 . S
O1845 C1831 1.268 . S
O1846 Sc1828 2.105 . S
O1846 C1830 1.268 . S
O1847 Sc1827 2.105 . S
O1847 C1832 1.268 . S
Sc1848 O1851 2.025 . S
Sc1848 O1858 2.105 . S
Sc1848 O1861 2.105 . S
Sc1848 O1864 2.105 . S
Sc1848 O1867 2.105 . S
Sc1849 O1851 2.025 . S
Sc1849 O1859 2.105 . S
Sc1849 O1863 2.105 . S
Sc1849 O1865 2.105 . S
Sc1849 O1869 2.105 . S
Sc1850 O1851 2.025 . S
Sc1850 O1860 2.105 . S
Sc1850 O1862 2.105 . S
Sc1850 O1866 2.105 . S
Sc1850 O1868 2.105 . S
O1851 Sc1848 2.025 . S
O1851 Sc1849 2.025 . S
O1851 Sc1850 2.025 . S
C1852 O1858 1.268 . S
C1852 O1868 1.268 . S
C1853 O1859 1.268 . S
C1853 O1867 1.268 . S
C1854 O1860 1.268 . S
C1854 O1869 1.268 . S
C1855 O1861 1.268 . S
C1855 O1865 1.268 . S
C1856 O1862 1.268 . S
C1856 O1864 1.268 . S
C1857 O1863 1.268 . S
C1857 O1866 1.268 . S
O1858 Sc1848 2.105 . S
O1858 C1852 1.268 . S
O1859 Sc1849 2.105 . S
O1859 C1853 1.268 . S
O1860 Sc1850 2.105 . S
O1860 C1854 1.268 . S
O1861 Sc1848 2.105 . S
O1861 C1855 1.268 . S
O1862 Sc1850 2.105 . S
O1862 C1856 1.268 . S
O1863 Sc1849 2.105 . S
O1863 C1857 1.268 . S
O1864 Sc1848 2.105 . S
O1864 C1856 1.268 . S
O1865 Sc1849 2.105 . S
O1865 C1855 1.268 . S
O1866 Sc1850 2.105 . S
O1866 C1857 1.268 . S
O1867 Sc1848 2.105 . S
O1867 C1853 1.268 . S
O1868 Sc1850 2.105 . S
O1868 C1852 1.268 . S
O1869 Sc1849 2.105 . S
O1869 C1854 1.268 . S
Sc1870 O1873 2.025 . S
Sc1870 O1880 2.105 . S
Sc1870 O1883 2.105 . S
Sc1870 O1886 2.105 . S
Sc1870 O1889 2.105 . S
Sc1871 O1873 2.025 . S
Sc1871 O1881 2.105 . S
Sc1871 O1885 2.105 . S
Sc1871 O1887 2.105 . S
Sc1871 O1891 2.105 . S
Sc1872 O1873 2.025 . S
Sc1872 O1882 2.105 . S
Sc1872 O1884 2.105 . S
Sc1872 O1888 2.105 . S
Sc1872 O1890 2.105 . S
O1873 Sc1870 2.025 . S
O1873 Sc1871 2.025 . S
O1873 Sc1872 2.025 . S
C1874 O1880 1.268 . S
C1874 O1890 1.268 . S
C1875 O1881 1.268 . S
C1875 O1889 1.268 . S
C1876 O1882 1.268 . S
C1876 O1891 1.268 . S
C1877 O1883 1.268 . S
C1877 O1887 1.268 . S
C1878 O1884 1.268 . S
C1878 O1886 1.268 . S
C1879 O1885 1.268 . S
C1879 O1888 1.268 . S
O1880 Sc1870 2.105 . S
O1880 C1874 1.268 . S
O1881 Sc1871 2.105 . S
O1881 C1875 1.268 . S
O1882 Sc1872 2.105 . S
O1882 C1876 1.268 . S
O1883 Sc1870 2.105 . S
O1883 C1877 1.268 . S
O1884 Sc1872 2.105 . S
O1884 C1878 1.268 . S
O1885 Sc1871 2.105 . S
O1885 C1879 1.268 . S
O1886 Sc1870 2.105 . S
O1886 C1878 1.268 . S
O1887 Sc1871 2.105 . S
O1887 C1877 1.268 . S
O1888 Sc1872 2.105 . S
O1888 C1879 1.268 . S
O1889 Sc1870 2.105 . S
O1889 C1875 1.268 . S
O1890 Sc1872 2.105 . S
O1890 C1874 1.268 . S
O1891 Sc1871 2.105 . S
O1891 C1876 1.268 . S
Sc1892 O1895 2.025 . S
Sc1892 O1902 2.105 . S
Sc1892 O1905 2.105 . S
Sc1892 O1908 2.105 . S
Sc1892 O1911 2.105 . S
Sc1893 O1895 2.025 . S
Sc1893 O1903 2.105 . S
Sc1893 O1907 2.105 . S
Sc1893 O1909 2.105 . S
Sc1893 O1913 2.105 . S
Sc1894 O1895 2.025 . S
Sc1894 O1904 2.105 . S
Sc1894 O1906 2.105 . S
Sc1894 O1910 2.105 . S
Sc1894 O1912 2.105 . S
O1895 Sc1892 2.025 . S
O1895 Sc1893 2.025 . S
O1895 Sc1894 2.025 . S
C1896 O1902 1.268 . S
C1896 O1912 1.268 . S
C1897 O1903 1.268 . S
C1897 O1911 1.268 . S
C1898 O1904 1.268 . S
C1898 O1913 1.268 . S
C1899 O1905 1.268 . S
C1899 O1909 1.268 . S
C1900 O1906 1.268 . S
C1900 O1908 1.268 . S
C1901 O1907 1.268 . S
C1901 O1910 1.268 . S
O1902 Sc1892 2.105 . S
O1902 C1896 1.268 . S
O1903 Sc1893 2.105 . S
O1903 C1897 1.268 . S
O1904 Sc1894 2.105 . S
O1904 C1898 1.268 . S
O1905 Sc1892 2.105 . S
O1905 C1899 1.268 . S
O1906 Sc1894 2.105 . S
O1906 C1900 1.268 . S
O1907 Sc1893 2.105 . S
O1907 C1901 1.268 . S
O1908 Sc1892 2.105 . S
O1908 C1900 1.268 . S
O1909 Sc1893 2.105 . S
O1909 C1899 1.268 . S
O1910 Sc1894 2.105 . S
O1910 C1901 1.268 . S
O1911 Sc1892 2.105 . S
O1911 C1897 1.268 . S
O1912 Sc1894 2.105 . S
O1912 C1896 1.268 . S
O1913 Sc1893 2.105 . S
O1913 C1898 1.268 . S
Sc1914 O1917 2.025 . S
Sc1914 O1924 2.105 . S
Sc1914 O1927 2.105 . S
Sc1914 O1930 2.105 . S
Sc1914 O1933 2.105 . S
Sc1915 O1917 2.025 . S
Sc1915 O1925 2.105 . S
Sc1915 O1929 2.105 . S
Sc1915 O1931 2.105 . S
Sc1915 O1935 2.105 . S
Sc1916 O1917 2.025 . S
Sc1916 O1926 2.105 . S
Sc1916 O1928 2.105 . S
Sc1916 O1932 2.105 . S
Sc1916 O1934 2.105 . S
O1917 Sc1914 2.025 . S
O1917 Sc1915 2.025 . S
O1917 Sc1916 2.025 . S
C1918 O1924 1.268 . S
C1918 O1934 1.268 . S
C1919 O1925 1.268 . S
C1919 O1933 1.268 . S
C1920 O1926 1.268 . S
C1920 O1935 1.268 . S
C1921 O1927 1.268 . S
C1921 O1931 1.268 . S
C1922 O1928 1.268 . S
C1922 O1930 1.268 . S
C1923 O1929 1.268 . S
C1923 O1932 1.268 . S
O1924 Sc1914 2.105 . S
O1924 C1918 1.268 . S
O1925 Sc1915 2.105 . S
O1925 C1919 1.268 . S
O1926 Sc1916 2.105 . S
O1926 C1920 1.268 . S
O1927 Sc1914 2.105 . S
O1927 C1921 1.268 . S
O1928 Sc1916 2.105 . S
O1928 C1922 1.268 . S
O1929 Sc1915 2.105 . S
O1929 C1923 1.268 . S
O1930 Sc1914 2.105 . S
O1930 C1922 1.268 . S
O1931 Sc1915 2.105 . S
O1931 C1921 1.268 . S
O1932 Sc1916 2.105 . S
O1932 C1923 1.268 . S
O1933 Sc1914 2.105 . S
O1933 C1919 1.268 . S
O1934 Sc1916 2.105 . S
O1934 C1918 1.268 . S
O1935 Sc1915 2.105 . S
O1935 C1920 1.268 . S
Sc1936 O1939 2.025 . S
Sc1936 O1946 2.105 . S
Sc1936 O1949 2.105 . S
Sc1936 O1952 2.105 . S
Sc1936 O1955 2.105 . S
Sc1937 O1939 2.025 . S
Sc1937 O1947 2.105 . S
Sc1937 O1951 2.105 . S
Sc1937 O1953 2.105 . S
Sc1937 O1957 2.105 . S
Sc1938 O1939 2.025 . S
Sc1938 O1948 2.105 . S
Sc1938 O1950 2.105 . S
Sc1938 O1954 2.105 . S
Sc1938 O1956 2.105 . S
O1939 Sc1936 2.025 . S
O1939 Sc1937 2.025 . S
O1939 Sc1938 2.025 . S
C1940 O1946 1.268 . S
C1940 O1956 1.268 . S
C1941 O1947 1.268 . S
C1941 O1955 1.268 . S
C1942 O1948 1.268 . S
C1942 O1957 1.268 . S
C1943 O1949 1.268 . S
C1943 O1953 1.268 . S
C1944 O1950 1.268 . S
C1944 O1952 1.268 . S
C1945 O1951 1.268 . S
C1945 O1954 1.268 . S
O1946 Sc1936 2.105 . S
O1946 C1940 1.268 . S
O1947 Sc1937 2.105 . S
O1947 C1941 1.268 . S
O1948 Sc1938 2.105 . S
O1948 C1942 1.268 . S
O1949 Sc1936 2.105 . S
O1949 C1943 1.268 . S
O1950 Sc1938 2.105 . S
O1950 C1944 1.268 . S
O1951 Sc1937 2.105 . S
O1951 C1945 1.268 . S
O1952 Sc1936 2.105 . S
O1952 C1944 1.268 . S
O1953 Sc1937 2.105 . S
O1953 C1943 1.268 . S
O1954 Sc1938 2.105 . S
O1954 C1945 1.268 . S
O1955 Sc1936 2.105 . S
O1955 C1941 1.268 . S
O1956 Sc1938 2.105 . S
O1956 C1940 1.268 . S
O1957 Sc1937 2.105 . S
O1957 C1942 1.268 . S
Sc1958 O1961 2.025 . S
Sc1958 O1968 2.105 . S
Sc1958 O1971 2.105 . S
Sc1958 O1974 2.105 . S
Sc1958 O1977 2.105 . S
Sc1959 O1961 2.025 . S
Sc1959 O1969 2.105 . S
Sc1959 O1973 2.105 . S
Sc1959 O1975 2.105 . S
Sc1959 O1979 2.105 . S
Sc1960 O1961 2.025 . S
Sc1960 O1970 2.105 . S
Sc1960 O1972 2.105 . S
Sc1960 O1976 2.105 . S
Sc1960 O1978 2.105 . S
O1961 Sc1958 2.025 . S
O1961 Sc1959 2.025 . S
O1961 Sc1960 2.025 . S
C1962 O1968 1.268 . S
C1962 O1978 1.268 . S
C1963 O1969 1.268 . S
C1963 O1977 1.268 . S
C1964 O1970 1.268 . S
C1964 O1979 1.268 . S
C1965 O1971 1.268 . S
C1965 O1975 1.268 . S
C1966 O1972 1.268 . S
C1966 O1974 1.268 . S
C1967 O1973 1.268 . S
C1967 O1976 1.268 . S
O1968 Sc1958 2.105 . S
O1968 C1962 1.268 . S
O1969 Sc1959 2.105 . S
O1969 C1963 1.268 . S
O1970 Sc1960 2.105 . S
O1970 C1964 1.268 . S
O1971 Sc1958 2.105 . S
O1971 C1965 1.268 . S
O1972 Sc1960 2.105 . S
O1972 C1966 1.268 . S
O1973 Sc1959 2.105 . S
O1973 C1967 1.268 . S
O1974 Sc1958 2.105 . S
O1974 C1966 1.268 . S
O1975 Sc1959 2.105 . S
O1975 C1965 1.268 . S
O1976 Sc1960 2.105 . S
O1976 C1967 1.268 . S
O1977 Sc1958 2.105 . S
O1977 C1963 1.268 . S
O1978 Sc1960 2.105 . S
O1978 C1962 1.268 . S
O1979 Sc1959 2.105 . S
O1979 C1964 1.268 . S
Sc1980 O1983 2.025 . S
Sc1980 O1990 2.105 . S
Sc1980 O1993 2.105 . S
Sc1980 O1996 2.105 . S
Sc1980 O1999 2.105 . S
Sc1981 O1983 2.025 . S
Sc1981 O1991 2.105 . S
Sc1981 O1995 2.105 . S
Sc1981 O1997 2.105 . S
Sc1981 O2001 2.105 . S
Sc1982 O1983 2.025 . S
Sc1982 O1992 2.105 . S
Sc1982 O1994 2.105 . S
Sc1982 O1998 2.105 . S
Sc1982 O2000 2.105 . S
O1983 Sc1980 2.025 . S
O1983 Sc1981 2.025 . S
O1983 Sc1982 2.025 . S
C1984 O1990 1.268 . S
C1984 O2000 1.268 . S
C1985 O1991 1.268 . S
C1985 O1999 1.268 . S
C1986 O1992 1.268 . S
C1986 O2001 1.268 . S
C1987 O1993 1.268 . S
C1987 O1997 1.268 . S
C1988 O1994 1.268 . S
C1988 O1996 1.268 . S
C1989 O1995 1.268 . S
C1989 O1998 1.268 . S
O1990 Sc1980 2.105 . S
O1990 C1984 1.268 . S
O1991 Sc1981 2.105 . S
O1991 C1985 1.268 . S
O1992 Sc1982 2.105 . S
O1992 C1986 1.268 . S
O1993 Sc1980 2.105 . S
O1993 C1987 1.268 . S
O1994 Sc1982 2.105 . S
O1994 C1988 1.268 . S
O1995 Sc1981 2.105 . S
O1995 C1989 1.268 . S
O1996 Sc1980 2.105 . S
O1996 C1988 1.268 . S
O1997 Sc1981 2.105 . S
O1997 C1987 1.268 . S
O1998 Sc1982 2.105 . S
O1998 C1989 1.268 . S
O1999 Sc1980 2.105 . S
O1999 C1985 1.268 . S
O2000 Sc1982 2.105 . S
O2000 C1984 1.268 . S
O2001 Sc1981 2.105 . S
O2001 C1986 1.268 . S
Sc2002 O2005 2.025 . S
Sc2002 O2012 2.105 . S
Sc2002 O2015 2.105 . S
Sc2002 O2018 2.105 . S
Sc2002 O2021 2.105 . S
Sc2003 O2005 2.025 . S
Sc2003 O2013 2.105 . S
Sc2003 O2017 2.105 . S
Sc2003 O2019 2.105 . S
Sc2003 O2023 2.105 . S
Sc2004 O2005 2.025 . S
Sc2004 O2014 2.105 . S
Sc2004 O2016 2.105 . S
Sc2004 O2020 2.105 . S
Sc2004 O2022 2.105 . S
O2005 Sc2002 2.025 . S
O2005 Sc2003 2.025 . S
O2005 Sc2004 2.025 . S
C2006 O2012 1.268 . S
C2006 O2022 1.268 . S
C2007 O2013 1.268 . S
C2007 O2021 1.268 . S
C2008 O2014 1.268 . S
C2008 O2023 1.268 . S
C2009 O2015 1.268 . S
C2009 O2019 1.268 . S
C2010 O2016 1.268 . S
C2010 O2018 1.268 . S
C2011 O2017 1.268 . S
C2011 O2020 1.268 . S
O2012 Sc2002 2.105 . S
O2012 C2006 1.268 . S
O2013 Sc2003 2.105 . S
O2013 C2007 1.268 . S
O2014 Sc2004 2.105 . S
O2014 C2008 1.268 . S
O2015 Sc2002 2.105 . S
O2015 C2009 1.268 . S
O2016 Sc2004 2.105 . S
O2016 C2010 1.268 . S
O2017 Sc2003 2.105 . S
O2017 C2011 1.268 . S
O2018 Sc2002 2.105 . S
O2018 C2010 1.268 . S
O2019 Sc2003 2.105 . S
O2019 C2009 1.268 . S
O2020 Sc2004 2.105 . S
O2020 C2011 1.268 . S
O2021 Sc2002 2.105 . S
O2021 C2007 1.268 . S
O2022 Sc2004 2.105 . S
O2022 C2006 1.268 . S
O2023 Sc2003 2.105 . S
O2023 C2008 1.268 . S
Sc2024 O2027 2.025 . S
Sc2024 O2034 2.105 . S
Sc2024 O2037 2.105 . S
Sc2024 O2040 2.105 . S
Sc2024 O2043 2.105 . S
Sc2025 O2027 2.025 . S
Sc2025 O2035 2.105 . S
Sc2025 O2039 2.105 . S
Sc2025 O2041 2.105 . S
Sc2025 O2045 2.105 1_554 S
Sc2026 O2027 2.025 . S
Sc2026 O2036 2.105 1_554 S
Sc2026 O2038 2.105 . S
Sc2026 O2042 2.105 . S
Sc2026 O2044 2.105 . S
O2027 Sc2024 2.025 . S
O2027 Sc2025 2.025 . S
O2027 Sc2026 2.025 . S
C2028 O2034 1.268 . S
C2028 O2044 1.268 . S
C2029 O2035 1.268 . S
C2029 O2043 1.268 . S
C2030 O2036 1.268 . S
C2030 O2045 1.268 . S
C2031 O2037 1.268 . S
C2031 O2041 1.268 . S
C2032 O2038 1.268 . S
C2032 O2040 1.268 . S
C2033 O2039 1.268 . S
C2033 O2042 1.268 . S
O2034 Sc2024 2.105 . S
O2034 C2028 1.268 . S
O2035 Sc2025 2.105 . S
O2035 C2029 1.268 . S
O2036 Sc2026 2.105 1_556 S
O2036 C2030 1.268 . S
O2037 Sc2024 2.105 . S
O2037 C2031 1.268 . S
O2038 Sc2026 2.105 . S
O2038 C2032 1.268 . S
O2039 Sc2025 2.105 . S
O2039 C2033 1.268 . S
O2040 Sc2024 2.105 . S
O2040 C2032 1.268 . S
O2041 Sc2025 2.105 . S
O2041 C2031 1.268 . S
O2042 Sc2026 2.105 . S
O2042 C2033 1.268 . S
O2043 Sc2024 2.105 . S
O2043 C2029 1.268 . S
O2044 Sc2026 2.105 . S
O2044 C2028 1.268 . S
O2045 Sc2025 2.105 1_556 S
O2045 C2030 1.268 . S
Sc2046 O2049 2.025 . S
Sc2046 O2056 2.105 . S
Sc2046 O2059 2.105 . S
Sc2046 O2062 2.105 . S
Sc2046 O2065 2.105 . S
Sc2047 O2049 2.025 . S
Sc2047 O2057 2.105 . S
Sc2047 O2061 2.105 . S
Sc2047 O2063 2.105 . S
Sc2047 O2067 2.105 . S
Sc2048 O2049 2.025 . S
Sc2048 O2058 2.105 . S
Sc2048 O2060 2.105 . S
Sc2048 O2064 2.105 . S
Sc2048 O2066 2.105 . S
O2049 Sc2046 2.025 . S
O2049 Sc2047 2.025 . S
O2049 Sc2048 2.025 . S
C2050 O2056 1.268 . S
C2050 O2066 1.268 . S
C2051 O2057 1.268 . S
C2051 O2065 1.268 . S
C2052 O2058 1.268 . S
C2052 O2067 1.268 . S
C2053 O2059 1.268 . S
C2053 O2063 1.268 . S
C2054 O2060 1.268 . S
C2054 O2062 1.268 . S
C2055 O2061 1.268 . S
C2055 O2064 1.268 . S
O2056 Sc2046 2.105 . S
O2056 C2050 1.268 . S
O2057 Sc2047 2.105 . S
O2057 C2051 1.268 . S
O2058 Sc2048 2.105 . S
O2058 C2052 1.268 . S
O2059 Sc2046 2.105 . S
O2059 C2053 1.268 . S
O2060 Sc2048 2.105 . S
O2060 C2054 1.268 . S
O2061 Sc2047 2.105 . S
O2061 C2055 1.268 . S
O2062 Sc2046 2.105 . S
O2062 C2054 1.268 . S
O2063 Sc2047 2.105 . S
O2063 C2053 1.268 . S
O2064 Sc2048 2.105 . S
O2064 C2055 1.268 . S
O2065 Sc2046 2.105 . S
O2065 C2051 1.268 . S
O2066 Sc2048 2.105 . S
O2066 C2050 1.268 . S
O2067 Sc2047 2.105 . S
O2067 C2052 1.268 . S
Sc2068 O2071 2.025 . S
Sc2068 O2078 2.105 . S
Sc2068 O2081 2.105 . S
Sc2068 O2084 2.105 . S
Sc2068 O2087 2.105 . S
Sc2069 O2071 2.025 . S
Sc2069 O2079 2.105 . S
Sc2069 O2083 2.105 . S
Sc2069 O2085 2.105 . S
Sc2069 O2089 2.105 . S
Sc2070 O2071 2.025 . S
Sc2070 O2080 2.105 . S
Sc2070 O2082 2.105 . S
Sc2070 O2086 2.105 . S
Sc2070 O2088 2.105 . S
O2071 Sc2068 2.025 . S
O2071 Sc2069 2.025 . S
O2071 Sc2070 2.025 . S
C2072 O2078 1.268 . S
C2072 O2088 1.268 . S
C2073 O2079 1.268 . S
C2073 O2087 1.268 . S
C2074 O2080 1.268 . S
C2074 O2089 1.268 . S
C2075 O2081 1.268 . S
C2075 O2085 1.268 . S
C2076 O2082 1.268 . S
C2076 O2084 1.268 . S
C2077 O2083 1.268 . S
C2077 O2086 1.268 . S
O2078 Sc2068 2.105 . S
O2078 C2072 1.268 . S
O2079 Sc2069 2.105 . S
O2079 C2073 1.268 . S
O2080 Sc2070 2.105 . S
O2080 C2074 1.268 . S
O2081 Sc2068 2.105 . S
O2081 C2075 1.268 . S
O2082 Sc2070 2.105 . S
O2082 C2076 1.268 . S
O2083 Sc2069 2.105 . S
O2083 C2077 1.268 . S
O2084 Sc2068 2.105 . S
O2084 C2076 1.268 . S
O2085 Sc2069 2.105 . S
O2085 C2075 1.268 . S
O2086 Sc2070 2.105 . S
O2086 C2077 1.268 . S
O2087 Sc2068 2.105 . S
O2087 C2073 1.268 . S
O2088 Sc2070 2.105 . S
O2088 C2072 1.268 . S
O2089 Sc2069 2.105 . S
O2089 C2074 1.268 . S
Sc2090 O2093 2.025 . S
Sc2090 O2100 2.105 . S
Sc2090 O2103 2.105 . S
Sc2090 O2106 2.105 . S
Sc2090 O2109 2.105 . S
Sc2091 O2093 2.025 . S
Sc2091 O2101 2.105 . S
Sc2091 O2105 2.105 . S
Sc2091 O2107 2.105 . S
Sc2091 O2111 2.105 . S
Sc2092 O2093 2.025 . S
Sc2092 O2102 2.105 . S
Sc2092 O2104 2.105 . S
Sc2092 O2108 2.105 . S
Sc2092 O2110 2.105 . S
O2093 Sc2090 2.025 . S
O2093 Sc2091 2.025 . S
O2093 Sc2092 2.025 . S
C2094 O2100 1.268 . S
C2094 O2110 1.268 . S
C2095 O2101 1.268 . S
C2095 O2109 1.268 . S
C2096 O2102 1.268 . S
C2096 O2111 1.268 . S
C2097 O2103 1.268 . S
C2097 O2107 1.268 . S
C2098 O2104 1.268 . S
C2098 O2106 1.268 . S
C2099 O2105 1.268 . S
C2099 O2108 1.268 . S
O2100 Sc2090 2.105 . S
O2100 C2094 1.268 . S
O2101 Sc2091 2.105 . S
O2101 C2095 1.268 . S
O2102 Sc2092 2.105 . S
O2102 C2096 1.268 . S
O2103 Sc2090 2.105 . S
O2103 C2097 1.268 . S
O2104 Sc2092 2.105 . S
O2104 C2098 1.268 . S
O2105 Sc2091 2.105 . S
O2105 C2099 1.268 . S
O2106 Sc2090 2.105 . S
O2106 C2098 1.268 . S
O2107 Sc2091 2.105 . S
O2107 C2097 1.268 . S
O2108 Sc2092 2.105 . S
O2108 C2099 1.268 . S
O2109 Sc2090 2.105 . S
O2109 C2095 1.268 . S
O2110 Sc2092 2.105 . S
O2110 C2094 1.268 . S
O2111 Sc2091 2.105 . S
O2111 C2096 1.268 . S
H2112 C2118 0.930 . S
H2113 C2122 0.930 . S
H2114 C2127 0.929 1_545 S
H2115 C2125 0.929 . S
H2116 C2120 0.929 . S
H2117 C2126 0.929 . S
C2118 H2112 0.930 . S
C2118 C2119 1.367 1_565 S
C2118 C2126 1.378 . S
C2119 C2118 1.367 1_545 S
C2119 C2127 1.433 1_545 S
C2120 H2116 0.929 . S
C2120 C2122 1.378 . S
C2120 C2124 1.350 . S
C2121 C2124 1.463 . S
C2121 C2126 1.350 . S
C2121 N2129 1.427 . S
C2122 H2113 0.930 . S
C2122 C2120 1.378 . S
C2122 C2123 1.367 . S
C2123 C2122 1.367 . S
C2123 C2125 1.433 . S
C2124 C2120 1.350 . S
C2124 C2121 1.463 . S
C2124 N2128 1.427 . S
C2125 H2115 0.929 . S
C2125 C2123 1.433 . S
C2125 N2128 1.384 . S
C2126 H2117 0.929 . S
C2126 C2118 1.378 . S
C2126 C2121 1.350 . S
C2127 H2114 0.929 1_565 S
C2127 C2119 1.433 1_565 S
C2127 N2129 1.384 . S
N2128 C2124 1.427 . S
N2128 C2125 1.384 . S
N2129 C2121 1.427 . S
N2129 C2127 1.384 . S
H2130 C2136 0.930 . S
H2131 C2140 0.930 . S
H2132 C2145 0.929 . S
H2133 C2143 0.929 . S
H2134 C2138 0.929 . S
H2135 C2144 0.929 . S
C2136 H2130 0.930 . S
C2136 C2137 1.367 . S
C2136 C2144 1.378 . S
C2137 C2136 1.367 . S
C2137 C2145 1.433 . S
C2138 H2134 0.929 . S
C2138 C2140 1.378 . S
C2138 C2142 1.350 . S
C2139 C2142 1.463 . S
C2139 C2144 1.350 . S
C2139 N2147 1.427 . S
C2140 H2131 0.930 . S
C2140 C2138 1.378 . S
C2140 C2141 1.367 . S
C2141 C2140 1.367 . S
C2141 C2143 1.433 . S
C2142 C2138 1.350 . S
C2142 C2139 1.463 . S
C2142 N2146 1.427 . S
C2143 H2133 0.929 . S
C2143 C2141 1.433 . S
C2143 N2146 1.384 . S
C2144 H2135 0.929 . S
C2144 C2136 1.378 . S
C2144 C2139 1.350 . S
C2145 H2132 0.929 . S
C2145 C2137 1.433 . S
C2145 N2147 1.384 . S
N2146 C2142 1.427 . S
N2146 C2143 1.384 . S
N2147 C2139 1.427 . S
N2147 C2145 1.384 . S
H2148 C2154 0.930 . S
H2149 C2158 0.930 . S
H2150 C2163 0.929 . S
H2151 C2161 0.929 . S
H2152 C2156 0.929 . S
H2153 C2162 0.929 . S
C2154 H2148 0.930 . S
C2154 C2155 1.367 . S
C2154 C2162 1.378 . S
C2155 C2154 1.367 . S
C2155 C2163 1.433 . S
C2156 H2152 0.929 . S
C2156 C2158 1.378 1_556 S
C2156 C2160 1.350 . S
C2157 C2160 1.463 . S
C2157 C2162 1.350 . S
C2157 N2165 1.427 . S
C2158 H2149 0.930 . S
C2158 C2156 1.378 1_554 S
C2158 C2159 1.367 . S
C2159 C2158 1.367 . S
C2159 C2161 1.433 1_554 S
C2160 C2156 1.350 . S
C2160 C2157 1.463 . S
C2160 N2164 1.427 . S
C2161 H2151 0.929 . S
C2161 C2159 1.433 1_556 S
C2161 N2164 1.384 . S
C2162 H2153 0.929 . S
C2162 C2154 1.378 . S
C2162 C2157 1.350 . S
C2163 H2150 0.929 . S
C2163 C2155 1.433 . S
C2163 N2165 1.384 . S
N2164 C2160 1.427 . S
N2164 C2161 1.384 . S
N2165 C2157 1.427 . S
N2165 C2163 1.384 . S
H2166 C2172 0.930 . S
H2167 C2176 0.930 . S
H2168 C2181 0.929 . S
H2169 C2179 0.929 . S
H2170 C2174 0.929 . S
H2171 C2180 0.929 . S
C2172 H2166 0.930 . S
C2172 C2173 1.367 . S
C2172 C2180 1.378 . S
C2173 C2172 1.367 . S
C2173 C2181 1.433 . S
C2174 H2170 0.929 . S
C2174 C2176 1.378 . S
C2174 C2178 1.350 . S
C2175 C2178 1.463 . S
C2175 C2180 1.350 . S
C2175 N2183 1.427 . S
C2176 H2167 0.930 . S
C2176 C2174 1.378 . S
C2176 C2177 1.367 . S
C2177 C2176 1.367 . S
C2177 C2179 1.433 . S
C2178 C2174 1.350 . S
C2178 C2175 1.463 . S
C2178 N2182 1.427 . S
C2179 H2169 0.929 . S
C2179 C2177 1.433 . S
C2179 N2182 1.384 . S
C2180 H2171 0.929 . S
C2180 C2172 1.378 . S
C2180 C2175 1.350 . S
C2181 H2168 0.929 . S
C2181 C2173 1.433 . S
C2181 N2183 1.384 . S
N2182 C2178 1.427 . S
N2182 C2179 1.384 . S
N2183 C2175 1.427 . S
N2183 C2181 1.384 . S
H2184 C2190 0.930 . S
H2185 C2194 0.930 . S
H2186 C2199 0.929 . S
H2187 C2197 0.929 . S
H2188 C2192 0.929 . S
H2189 C2198 0.929 . S
C2190 H2184 0.930 . S
C2190 C2191 1.367 . S
C2190 C2198 1.378 . S
C2191 C2190 1.367 . S
C2191 C2199 1.433 . S
C2192 H2188 0.929 . S
C2192 C2194 1.378 . S
C2192 C2196 1.350 . S
C2193 C2196 1.463 . S
C2193 C2198 1.350 . S
C2193 N2201 1.427 . S
C2194 H2185 0.930 . S
C2194 C2192 1.378 . S
C2194 C2195 1.367 . S
C2195 C2194 1.367 . S
C2195 C2197 1.433 . S
C2196 C2192 1.350 . S
C2196 C2193 1.463 . S
C2196 N2200 1.427 . S
C2197 H2187 0.929 . S
C2197 C2195 1.433 . S
C2197 N2200 1.384 . S
C2198 H2189 0.929 . S
C2198 C2190 1.378 . S
C2198 C2193 1.350 . S
C2199 H2186 0.929 . S
C2199 C2191 1.433 . S
C2199 N2201 1.384 . S
N2200 C2196 1.427 . S
N2200 C2197 1.384 . S
N2201 C2193 1.427 . S
N2201 C2199 1.384 . S
H2202 C2208 0.930 . S
H2203 C2212 0.930 . S
H2204 C2217 0.929 . S
H2205 C2215 0.929 . S
H2206 C2210 0.929 . S
H2207 C2216 0.929 . S
C2208 H2202 0.930 . S
C2208 C2209 1.367 . S
C2208 C2216 1.378 . S
C2209 C2208 1.367 . S
C2209 C2217 1.433 . S
C2210 H2206 0.929 . S
C2210 C2212 1.378 . S
C2210 C2214 1.350 . S
C2211 C2214 1.463 . S
C2211 C2216 1.350 . S
C2211 N2219 1.427 . S
C2212 H2203 0.930 . S
C2212 C2210 1.378 . S
C2212 C2213 1.367 . S
C2213 C2212 1.367 . S
C2213 C2215 1.433 . S
C2214 C2210 1.350 . S
C2214 C2211 1.463 . S
C2214 N2218 1.427 . S
C2215 H2205 0.929 . S
C2215 C2213 1.433 . S
C2215 N2218 1.384 . S
C2216 H2207 0.929 . S
C2216 C2208 1.378 . S
C2216 C2211 1.350 . S
C2217 H2204 0.929 . S
C2217 C2209 1.433 . S
C2217 N2219 1.384 . S
N2218 C2214 1.427 . S
N2218 C2215 1.384 . S
N2219 C2211 1.427 . S
N2219 C2217 1.384 . S
H2220 C2226 0.930 . S
H2221 C2230 0.930 . S
H2222 C2235 0.929 . S
H2223 C2233 0.929 . S
H2224 C2228 0.929 . S
H2225 C2234 0.929 . S
C2226 H2220 0.930 . S
C2226 C2227 1.367 . S
C2226 C2234 1.378 1_545 S
C2227 C2226 1.367 . S
C2227 C2235 1.433 1_545 S
C2228 H2224 0.929 . S
C2228 C2230 1.378 . S
C2228 C2232 1.350 . S
C2229 C2232 1.463 . S
C2229 C2234 1.350 . S
C2229 N2237 1.427 . S
C2230 H2221 0.930 . S
C2230 C2228 1.378 . S
C2230 C2231 1.367 . S
C2231 C2230 1.367 . S
C2231 C2233 1.433 . S
C2232 C2228 1.350 . S
C2232 C2229 1.463 . S
C2232 N2236 1.427 . S
C2233 H2223 0.929 . S
C2233 C2231 1.433 . S
C2233 N2236 1.384 . S
C2234 H2225 0.929 . S
C2234 C2226 1.378 1_565 S
C2234 C2229 1.350 . S
C2235 H2222 0.929 . S
C2235 C2227 1.433 1_565 S
C2235 N2237 1.384 . S
N2236 C2232 1.427 . S
N2236 C2233 1.384 . S
N2237 C2229 1.427 . S
N2237 C2235 1.384 . S
H2238 C2244 0.928 1_565 S
H2239 C2248 0.930 . S
H2240 C2253 0.929 . S
H2241 C2251 0.915 1_565 S
H2242 C2246 0.929 . S
H2243 C2252 0.927 1_565 S
C2244 H2238 0.928 1_545 S
C2244 C2245 1.367 . S
C2244 C2252 1.378 . S
C2245 C2244 1.367 . S
C2245 C2253 1.433 . S
C2246 H2242 0.929 . S
C2246 C2248 1.378 . S
C2246 C2250 1.350 . S
C2247 C2250 1.463 . S
C2247 C2252 1.350 . S
C2247 N2255 1.427 . S
C2248 H2239 0.930 . S
C2248 C2246 1.378 . S
C2248 C2249 1.367 . S
C2249 C2248 1.367 . S
C2249 C2251 1.433 . S
C2250 C2246 1.350 . S
C2250 C2247 1.463 . S
C2250 N2254 1.427 . S
C2251 H2241 0.915 1_545 S
C2251 C2249 1.433 . S
C2251 N2254 1.384 . S
C2252 H2243 0.927 1_545 S
C2252 C2244 1.378 . S
C2252 C2247 1.350 . S
C2253 H2240 0.929 . S
C2253 C2245 1.433 . S
C2253 N2255 1.384 . S
N2254 C2250 1.427 . S
N2254 C2251 1.384 . S
N2255 C2247 1.427 . S
N2255 C2253 1.384 . S
H2256 C2262 0.930 1_554 S
H2257 C2266 0.930 . S
H2258 C2271 0.917 1_554 S
H2259 C2269 0.929 . S
H2260 C2264 0.929 . S
H2261 C2270 0.929 . S
C2262 H2256 0.930 1_556 S
C2262 C2263 1.367 1_556 S
C2262 C2270 1.378 . S
C2263 C2262 1.367 1_554 S
C2263 C2271 1.433 1_554 S
C2264 H2260 0.929 . S
C2264 C2266 1.378 . S
C2264 C2268 1.350 . S
C2265 C2268 1.463 . S
C2265 C2270 1.350 . S
C2265 N2273 1.427 . S
C2266 H2257 0.930 . S
C2266 C2264 1.378 . S
C2266 C2267 1.367 . S
C2267 C2266 1.367 . S
C2267 C2269 1.433 . S
C2268 C2264 1.350 . S
C2268 C2265 1.463 . S
C2268 N2272 1.427 . S
C2269 H2259 0.929 . S
C2269 C2267 1.433 . S
C2269 N2272 1.384 . S
C2270 H2261 0.929 . S
C2270 C2262 1.378 . S
C2270 C2265 1.350 . S
C2271 H2258 0.917 1_556 S
C2271 C2263 1.433 1_556 S
C2271 N2273 1.384 . S
N2272 C2268 1.427 . S
N2272 C2269 1.384 . S
N2273 C2265 1.427 . S
N2273 C2271 1.384 . S
H2274 C2280 0.930 . S
H2275 C2284 0.930 . S
H2276 C2289 0.929 . S
H2277 C2287 0.929 . S
H2278 C2282 0.929 . S
H2279 C2288 0.929 . S
C2280 H2274 0.930 . S
C2280 C2281 1.367 . S
C2280 C2288 1.378 . S
C2281 C2280 1.367 . S
C2281 C2289 1.433 . S
C2282 H2278 0.929 . S
C2282 C2284 1.378 . S
C2282 C2286 1.350 . S
C2283 C2286 1.463 . S
C2283 C2288 1.350 . S
C2283 N2291 1.427 . S
C2284 H2275 0.930 . S
C2284 C2282 1.378 . S
C2284 C2285 1.367 . S
C2285 C2284 1.367 . S
C2285 C2287 1.433 . S
C2286 C2282 1.350 . S
C2286 C2283 1.463 . S
C2286 N2290 1.427 . S
C2287 H2277 0.929 . S
C2287 C2285 1.433 . S
C2287 N2290 1.384 . S
C2288 H2279 0.929 . S
C2288 C2280 1.378 . S
C2288 C2283 1.350 . S
C2289 H2276 0.929 . S
C2289 C2281 1.433 . S
C2289 N2291 1.384 . S
N2290 C2286 1.427 . S
N2290 C2287 1.384 . S
N2291 C2283 1.427 . S
N2291 C2289 1.384 . S
H2292 C2298 0.930 . S
H2293 C2302 0.930 . S
H2294 C2307 0.929 . S
H2295 C2305 0.929 . S
H2296 C2300 0.929 . S
H2297 C2306 0.929 . S
C2298 H2292 0.930 . S
C2298 C2299 1.367 . S
C2298 C2306 1.378 . S
C2299 C2298 1.367 . S
C2299 C2307 1.433 . S
C2300 H2296 0.929 . S
C2300 C2302 1.378 . S
C2300 C2304 1.350 . S
C2301 C2304 1.463 . S
C2301 C2306 1.350 . S
C2301 N2309 1.427 . S
C2302 H2293 0.930 . S
C2302 C2300 1.378 . S
C2302 C2303 1.367 . S
C2303 C2302 1.367 . S
C2303 C2305 1.433 . S
C2304 C2300 1.350 . S
C2304 C2301 1.463 . S
C2304 N2308 1.427 . S
C2305 H2295 0.929 . S
C2305 C2303 1.433 . S
C2305 N2308 1.384 . S
C2306 H2297 0.929 . S
C2306 C2298 1.378 . S
C2306 C2301 1.350 . S
C2307 H2294 0.929 . S
C2307 C2299 1.433 . S
C2307 N2309 1.384 . S
N2308 C2304 1.427 . S
N2308 C2305 1.384 . S
N2309 C2301 1.427 . S
N2309 C2307 1.384 . S
H2310 C2316 0.930 . S
H2311 C2320 0.930 . S
H2312 C2325 0.929 . S
H2313 C2323 0.929 . S
H2314 C2318 0.929 . S
H2315 C2324 0.929 . S
C2316 H2310 0.930 . S
C2316 C2317 1.367 . S
C2316 C2324 1.378 . S
C2317 C2316 1.367 . S
C2317 C2325 1.433 . S
C2318 H2314 0.929 . S
C2318 C2320 1.378 . S
C2318 C2322 1.350 . S
C2319 C2322 1.463 . S
C2319 C2324 1.350 . S
C2319 N2327 1.427 . S
C2320 H2311 0.930 . S
C2320 C2318 1.378 . S
C2320 C2321 1.367 . S
C2321 C2320 1.367 . S
C2321 C2323 1.433 . S
C2322 C2318 1.350 . S
C2322 C2319 1.463 . S
C2322 N2326 1.427 . S
C2323 H2313 0.929 . S
C2323 C2321 1.433 . S
C2323 N2326 1.384 . S
C2324 H2315 0.929 . S
C2324 C2316 1.378 . S
C2324 C2319 1.350 . S
C2325 H2312 0.929 . S
C2325 C2317 1.433 . S
C2325 N2327 1.384 . S
N2326 C2322 1.427 . S
N2326 C2323 1.384 . S
N2327 C2319 1.427 . S
N2327 C2325 1.384 . S
H2328 C2334 0.930 . S
H2329 C2338 0.930 . S
H2330 C2343 0.929 . S
H2331 C2341 0.929 . S
H2332 C2336 0.929 . S
H2333 C2342 0.929 . S
C2334 H2328 0.930 . S
C2334 C2335 1.367 . S
C2334 C2342 1.378 . S
C2335 C2334 1.367 . S
C2335 C2343 1.433 . S
C2336 H2332 0.929 . S
C2336 C2338 1.378 . S
C2336 C2340 1.350 . S
C2337 C2340 1.463 . S
C2337 C2342 1.350 . S
C2337 N2345 1.427 . S
C2338 H2329 0.930 . S
C2338 C2336 1.378 . S
C2338 C2339 1.367 . S
C2339 C2338 1.367 . S
C2339 C2341 1.433 . S
C2340 C2336 1.350 . S
C2340 C2337 1.463 . S
C2340 N2344 1.427 . S
C2341 H2331 0.929 . S
C2341 C2339 1.433 . S
C2341 N2344 1.384 . S
C2342 H2333 0.929 . S
C2342 C2334 1.378 . S
C2342 C2337 1.350 . S
C2343 H2330 0.929 . S
C2343 C2335 1.433 . S
C2343 N2345 1.384 . S
N2344 C2340 1.427 . S
N2344 C2341 1.384 . S
N2345 C2337 1.427 . S
N2345 C2343 1.384 . S
H2346 C2352 0.930 . S
H2347 C2356 0.930 . S
H2348 C2361 0.929 . S
H2349 C2359 0.929 . S
H2350 C2354 0.929 . S
H2351 C2360 0.929 . S
C2352 H2346 0.930 . S
C2352 C2353 1.367 . S
C2352 C2360 1.378 . S
C2353 C2352 1.367 . S
C2353 C2361 1.433 . S
C2354 H2350 0.929 . S
C2354 C2356 1.378 . S
C2354 C2358 1.350 . S
C2355 C2358 1.463 . S
C2355 C2360 1.350 . S
C2355 N2363 1.427 . S
C2356 H2347 0.930 . S
C2356 C2354 1.378 . S
C2356 C2357 1.367 . S
C2357 C2356 1.367 . S
C2357 C2359 1.433 . S
C2358 C2354 1.350 . S
C2358 C2355 1.463 . S
C2358 N2362 1.427 . S
C2359 H2349 0.929 . S
C2359 C2357 1.433 . S
C2359 N2362 1.384 . S
C2360 H2351 0.929 . S
C2360 C2352 1.378 . S
C2360 C2355 1.350 . S
C2361 H2348 0.929 . S
C2361 C2353 1.433 . S
C2361 N2363 1.384 . S
N2362 C2358 1.427 . S
N2362 C2359 1.384 . S
N2363 C2355 1.427 . S
N2363 C2361 1.384 . S
H2364 C2370 0.930 . S
H2365 C2374 0.930 . S
H2366 C2379 0.929 . S
H2367 C2377 0.929 . S
H2368 C2372 0.929 . S
H2369 C2378 0.929 . S
C2370 H2364 0.930 . S
C2370 C2371 1.367 . S
C2370 C2378 1.378 . S
C2371 C2370 1.367 . S
C2371 C2379 1.433 . S
C2372 H2368 0.929 . S
C2372 C2374 1.378 . S
C2372 C2376 1.350 . S
C2373 C2376 1.463 . S
C2373 C2378 1.350 . S
C2373 N2381 1.427 . S
C2374 H2365 0.930 . S
C2374 C2372 1.378 . S
C2374 C2375 1.367 . S
C2375 C2374 1.367 . S
C2375 C2377 1.433 . S
C2376 C2372 1.350 . S
C2376 C2373 1.463 . S
C2376 N2380 1.427 . S
C2377 H2367 0.929 . S
C2377 C2375 1.433 . S
C2377 N2380 1.384 . S
C2378 H2369 0.929 . S
C2378 C2370 1.378 . S
C2378 C2373 1.350 . S
C2379 H2366 0.929 . S
C2379 C2371 1.433 . S
C2379 N2381 1.384 . S
N2380 C2376 1.427 . S
N2380 C2377 1.384 . S
N2381 C2373 1.427 . S
N2381 C2379 1.384 . S
H2382 C2388 0.930 . S
H2383 C2392 0.930 . S
H2384 C2397 0.929 . S
H2385 C2395 0.929 . S
H2386 C2390 0.929 . S
H2387 C2396 0.929 . S
C2388 H2382 0.930 . S
C2388 C2389 1.367 . S
C2388 C2396 1.378 . S
C2389 C2388 1.367 . S
C2389 C2397 1.433 . S
C2390 H2386 0.929 . S
C2390 C2392 1.378 . S
C2390 C2394 1.350 . S
C2391 C2394 1.463 . S
C2391 C2396 1.350 . S
C2391 N2399 1.427 . S
C2392 H2383 0.930 . S
C2392 C2390 1.378 . S
C2392 C2393 1.367 . S
C2393 C2392 1.367 . S
C2393 C2395 1.433 . S
C2394 C2390 1.350 . S
C2394 C2391 1.463 . S
C2394 N2398 1.427 . S
C2395 H2385 0.929 . S
C2395 C2393 1.433 . S
C2395 N2398 1.384 . S
C2396 H2387 0.929 . S
C2396 C2388 1.378 . S
C2396 C2391 1.350 . S
C2397 H2384 0.929 . S
C2397 C2389 1.433 . S
C2397 N2399 1.384 . S
N2398 C2394 1.427 . S
N2398 C2395 1.384 . S
N2399 C2391 1.427 . S
N2399 C2397 1.384 . S
H2400 C2406 0.930 . S
H2401 C2410 0.930 . S
H2402 C2415 0.929 . S
H2403 C2413 0.929 . S
H2404 C2408 0.929 . S
H2405 C2414 0.929 . S
C2406 H2400 0.930 . S
C2406 C2407 1.367 . S
C2406 C2414 1.378 . S
C2407 C2406 1.367 . S
C2407 C2415 1.433 . S
C2408 H2404 0.929 . S
C2408 C2410 1.378 1_655 S
C2408 C2412 1.350 . S
C2409 C2412 1.463 . S
C2409 C2414 1.350 . S
C2409 N2417 1.427 . S
C2410 H2401 0.930 . S
C2410 C2408 1.378 1_455 S
C2410 C2411 1.367 . S
C2411 C2410 1.367 . S
C2411 C2413 1.433 1_455 S
C2412 C2408 1.350 . S
C2412 C2409 1.463 . S
C2412 N2416 1.427 . S
C2413 H2403 0.929 . S
C2413 C2411 1.433 1_655 S
C2413 N2416 1.384 . S
C2414 H2405 0.929 . S
C2414 C2406 1.378 . S
C2414 C2409 1.350 . S
C2415 H2402 0.929 . S
C2415 C2407 1.433 . S
C2415 N2417 1.384 . S
N2416 C2412 1.427 . S
N2416 C2413 1.384 . S
N2417 C2409 1.427 . S
N2417 C2415 1.384 . S
H2418 C2424 0.930 . S
H2419 C2428 0.930 . S
H2420 C2433 0.929 . S
H2421 C2431 0.929 . S
H2422 C2426 0.929 . S
H2423 C2432 0.929 . S
C2424 H2418 0.930 . S
C2424 C2425 1.367 . S
C2424 C2432 1.378 . S
C2425 C2424 1.367 . S
C2425 C2433 1.433 . S
C2426 H2422 0.929 . S
C2426 C2428 1.378 . S
C2426 C2430 1.350 . S
C2427 C2430 1.463 . S
C2427 C2432 1.350 . S
C2427 N2435 1.427 . S
C2428 H2419 0.930 . S
C2428 C2426 1.378 . S
C2428 C2429 1.367 . S
C2429 C2428 1.367 . S
C2429 C2431 1.433 . S
C2430 C2426 1.350 . S
C2430 C2427 1.463 . S
C2430 N2434 1.427 . S
C2431 H2421 0.929 . S
C2431 C2429 1.433 . S
C2431 N2434 1.384 . S
C2432 H2423 0.929 . S
C2432 C2424 1.378 . S
C2432 C2427 1.350 . S
C2433 H2420 0.929 . S
C2433 C2425 1.433 . S
C2433 N2435 1.384 . S
N2434 C2430 1.427 . S
N2434 C2431 1.384 . S
N2435 C2427 1.427 . S
N2435 C2433 1.384 . S
H2436 C2442 0.930 . S
H2437 C2446 0.930 . S
H2438 C2451 0.929 . S
H2439 C2449 0.929 . S
H2440 C2444 0.929 . S
H2441 C2450 0.929 . S
C2442 H2436 0.930 . S
C2442 C2443 1.367 . S
C2442 C2450 1.378 . S
C2443 C2442 1.367 . S
C2443 C2451 1.433 . S
C2444 H2440 0.929 . S
C2444 C2446 1.378 . S
C2444 C2448 1.350 . S
C2445 C2448 1.463 . S
C2445 C2450 1.350 . S
C2445 N2453 1.427 . S
C2446 H2437 0.930 . S
C2446 C2444 1.378 . S
C2446 C2447 1.367 . S
C2447 C2446 1.367 . S
C2447 C2449 1.433 . S
C2448 C2444 1.350 . S
C2448 C2445 1.463 . S
C2448 N2452 1.427 . S
C2449 H2439 0.929 . S
C2449 C2447 1.433 . S
C2449 N2452 1.384 . S
C2450 H2441 0.929 . S
C2450 C2442 1.378 . S
C2450 C2445 1.350 . S
C2451 H2438 0.929 . S
C2451 C2443 1.433 . S
C2451 N2453 1.384 . S
N2452 C2448 1.427 . S
N2452 C2449 1.384 . S
N2453 C2445 1.427 . S
N2453 C2451 1.384 . S
H2454 C2460 0.930 . S
H2455 C2464 0.930 . S
H2456 C2469 0.929 . S
H2457 C2467 0.929 . S
H2458 C2462 0.929 . S
H2459 C2468 0.929 . S
C2460 H2454 0.930 . S
C2460 C2461 1.367 . S
C2460 C2468 1.378 . S
C2461 C2460 1.367 . S
C2461 C2469 1.433 . S
C2462 H2458 0.929 . S
C2462 C2464 1.378 . S
C2462 C2466 1.350 . S
C2463 C2466 1.463 . S
C2463 C2468 1.350 . S
C2463 N2471 1.427 . S
C2464 H2455 0.930 . S
C2464 C2462 1.378 . S
C2464 C2465 1.367 1_565 S
C2465 C2464 1.367 1_545 S
C2465 C2467 1.433 . S
C2466 C2462 1.350 . S
C2466 C2463 1.463 . S
C2466 N2470 1.427 . S
C2467 H2457 0.929 . S
C2467 C2465 1.433 . S
C2467 N2470 1.384 1_545 S
C2468 H2459 0.929 . S
C2468 C2460 1.378 . S
C2468 C2463 1.350 . S
C2469 H2456 0.929 . S
C2469 C2461 1.433 . S
C2469 N2471 1.384 . S
N2470 C2466 1.427 . S
N2470 C2467 1.384 1_565 S
N2471 C2463 1.427 . S
N2471 C2469 1.384 . S
H2472 C2478 0.930 . S
H2473 C2482 0.930 . S
H2474 C2487 0.929 . S
H2475 C2485 0.929 . S
H2476 C2480 0.929 . S
H2477 C2486 0.929 . S
C2478 H2472 0.930 . S
C2478 C2479 1.367 . S
C2478 C2486 1.378 . S
C2479 C2478 1.367 . S
C2479 C2487 1.433 . S
C2480 H2476 0.929 . S
C2480 C2482 1.378 . S
C2480 C2484 1.350 . S
C2481 C2484 1.463 . S
C2481 C2486 1.350 . S
C2481 N2489 1.427 . S
C2482 H2473 0.930 . S
C2482 C2480 1.378 . S
C2482 C2483 1.367 . S
C2483 C2482 1.367 . S
C2483 C2485 1.433 . S
C2484 C2480 1.350 . S
C2484 C2481 1.463 . S
C2484 N2488 1.427 . S
C2485 H2475 0.929 . S
C2485 C2483 1.433 . S
C2485 N2488 1.384 . S
C2486 H2477 0.929 . S
C2486 C2478 1.378 . S
C2486 C2481 1.350 . S
C2487 H2474 0.929 . S
C2487 C2479 1.433 . S
C2487 N2489 1.384 . S
N2488 C2484 1.427 . S
N2488 C2485 1.384 . S
N2489 C2481 1.427 . S
N2489 C2487 1.384 . S
H2490 C2496 0.930 . S
H2491 C2500 0.930 . S
H2492 C2505 0.929 . S
H2493 C2503 0.929 . S
H2494 C2498 0.929 . S
H2495 C2504 0.929 . S
C2496 H2490 0.930 . S
C2496 C2497 1.367 . S
C2496 C2504 1.378 . S
C2497 C2496 1.367 . S
C2497 C2505 1.433 . S
C2498 H2494 0.929 . S
C2498 C2500 1.378 . S
C2498 C2502 1.350 . S
C2499 C2502 1.463 . S
C2499 C2504 1.350 . S
C2499 N2507 1.427 . S
C2500 H2491 0.930 . S
C2500 C2498 1.378 . S
C2500 C2501 1.367 . S
C2501 C2500 1.367 . S
C2501 C2503 1.433 . S
C2502 C2498 1.350 . S
C2502 C2499 1.463 . S
C2502 N2506 1.427 . S
C2503 H2493 0.929 . S
C2503 C2501 1.433 . S
C2503 N2506 1.384 . S
C2504 H2495 0.929 . S
C2504 C2496 1.378 . S
C2504 C2499 1.350 . S
C2505 H2492 0.929 . S
C2505 C2497 1.433 . S
C2505 N2507 1.384 . S
N2506 C2502 1.427 . S
N2506 C2503 1.384 . S
N2507 C2499 1.427 . S
N2507 C2505 1.384 . S
H2508 C2514 0.930 . S
H2509 C2518 0.930 . S
H2510 C2523 0.929 . S
H2511 C2521 0.929 . S
H2512 C2516 0.929 . S
H2513 C2522 0.929 . S
C2514 H2508 0.930 . S
C2514 C2515 1.367 . S
C2514 C2522 1.378 . S
C2515 C2514 1.367 . S
C2515 C2523 1.433 . S
C2516 H2512 0.929 . S
C2516 C2518 1.378 . S
C2516 C2520 1.350 . S
C2517 C2520 1.463 . S
C2517 C2522 1.350 . S
C2517 N2525 1.427 . S
C2518 H2509 0.930 . S
C2518 C2516 1.378 . S
C2518 C2519 1.367 . S
C2519 C2518 1.367 . S
C2519 C2521 1.433 . S
C2520 C2516 1.350 . S
C2520 C2517 1.463 . S
C2520 N2524 1.427 . S
C2521 H2511 0.929 . S
C2521 C2519 1.433 . S
C2521 N2524 1.384 . S
C2522 H2513 0.929 . S
C2522 C2514 1.378 . S
C2522 C2517 1.350 . S
C2523 H2510 0.929 . S
C2523 C2515 1.433 . S
C2523 N2525 1.384 . S
N2524 C2520 1.427 . S
N2524 C2521 1.384 . S
N2525 C2517 1.427 . S
N2525 C2523 1.384 . S
H2526 C2532 0.930 . S
H2527 C2536 0.930 . S
H2528 C2541 0.929 . S
H2529 C2539 0.929 . S
H2530 C2534 0.929 . S
H2531 C2540 0.929 . S
C2532 H2526 0.930 . S
C2532 C2533 1.367 . S
C2532 C2540 1.378 . S
C2533 C2532 1.367 . S
C2533 C2541 1.433 . S
C2534 H2530 0.929 . S
C2534 C2536 1.378 . S
C2534 C2538 1.350 . S
C2535 C2538 1.463 . S
C2535 C2540 1.350 . S
C2535 N2543 1.427 . S
C2536 H2527 0.930 . S
C2536 C2534 1.378 . S
C2536 C2537 1.367 . S
C2537 C2536 1.367 . S
C2537 C2539 1.433 . S
C2538 C2534 1.350 . S
C2538 C2535 1.463 . S
C2538 N2542 1.427 . S
C2539 H2529 0.929 . S
C2539 C2537 1.433 . S
C2539 N2542 1.384 . S
C2540 H2531 0.929 . S
C2540 C2532 1.378 . S
C2540 C2535 1.350 . S
C2541 H2528 0.929 . S
C2541 C2533 1.433 . S
C2541 N2543 1.384 . S
N2542 C2538 1.427 . S
N2542 C2539 1.384 . S
N2543 C2535 1.427 . S
N2543 C2541 1.384 . S
H2544 C2550 0.930 . S
H2545 C2554 0.930 . S
H2546 C2559 0.929 . S
H2547 C2557 0.929 . S
H2548 C2552 0.929 . S
H2549 C2558 0.929 . S
C2550 H2544 0.930 . S
C2550 C2551 1.367 . S
C2550 C2558 1.378 . S
C2551 C2550 1.367 . S
C2551 C2559 1.433 . S
C2552 H2548 0.929 . S
C2552 C2554 1.378 . S
C2552 C2556 1.350 . S
C2553 C2556 1.463 . S
C2553 C2558 1.350 . S
C2553 N2561 1.427 . S
C2554 H2545 0.930 . S
C2554 C2552 1.378 . S
C2554 C2555 1.367 . S
C2555 C2554 1.367 . S
C2555 C2557 1.433 . S
C2556 C2552 1.350 . S
C2556 C2553 1.463 . S
C2556 N2560 1.427 . S
C2557 H2547 0.929 . S
C2557 C2555 1.433 . S
C2557 N2560 1.384 . S
C2558 H2549 0.929 . S
C2558 C2550 1.378 . S
C2558 C2553 1.350 . S
C2559 H2546 0.929 . S
C2559 C2551 1.433 . S
C2559 N2561 1.384 . S
N2560 C2556 1.427 . S
N2560 C2557 1.384 . S
N2561 C2553 1.427 . S
N2561 C2559 1.384 . S
H2562 C2568 0.930 . S
H2563 C2572 0.930 . S
H2564 C2577 0.929 . S
H2565 C2575 0.929 . S
H2566 C2570 0.929 . S
H2567 C2576 0.929 . S
C2568 H2562 0.930 . S
C2568 C2569 1.367 . S
C2568 C2576 1.378 . S
C2569 C2568 1.367 . S
C2569 C2577 1.433 . S
C2570 H2566 0.929 . S
C2570 C2572 1.378 . S
C2570 C2574 1.350 . S
C2571 C2574 1.463 . S
C2571 C2576 1.350 . S
C2571 N2579 1.427 . S
C2572 H2563 0.930 . S
C2572 C2570 1.378 . S
C2572 C2573 1.367 1_655 S
C2573 C2572 1.367 1_455 S
C2573 C2575 1.433 . S
C2574 C2570 1.350 . S
C2574 C2571 1.463 . S
C2574 N2578 1.427 . S
C2575 H2565 0.929 . S
C2575 C2573 1.433 . S
C2575 N2578 1.384 1_455 S
C2576 H2567 0.929 . S
C2576 C2568 1.378 . S
C2576 C2571 1.350 . S
C2577 H2564 0.929 . S
C2577 C2569 1.433 . S
C2577 N2579 1.384 . S
N2578 C2574 1.427 . S
N2578 C2575 1.384 1_655 S
N2579 C2571 1.427 . S
N2579 C2577 1.384 . S
H2580 C2586 0.930 . S
H2581 C2590 0.930 . S
H2582 C2595 0.929 . S
H2583 C2593 0.929 . S
H2584 C2588 0.929 . S
H2585 C2594 0.929 . S
C2586 H2580 0.930 . S
C2586 C2587 1.367 . S
C2586 C2594 1.378 . S
C2587 C2586 1.367 . S
C2587 C2595 1.433 . S
C2588 H2584 0.929 . S
C2588 C2590 1.378 . S
C2588 C2592 1.350 . S
C2589 C2592 1.463 . S
C2589 C2594 1.350 . S
C2589 N2597 1.427 . S
C2590 H2581 0.930 . S
C2590 C2588 1.378 . S
C2590 C2591 1.367 . S
C2591 C2590 1.367 . S
C2591 C2593 1.433 . S
C2592 C2588 1.350 . S
C2592 C2589 1.463 . S
C2592 N2596 1.427 . S
C2593 H2583 0.929 . S
C2593 C2591 1.433 . S
C2593 N2596 1.384 . S
C2594 H2585 0.929 . S
C2594 C2586 1.378 . S
C2594 C2589 1.350 . S
C2595 H2582 0.929 . S
C2595 C2587 1.433 . S
C2595 N2597 1.384 . S
N2596 C2592 1.427 . S
N2596 C2593 1.384 . S
N2597 C2589 1.427 . S
N2597 C2595 1.384 . S
H2598 C2604 0.930 . S
H2599 C2608 0.930 . S
H2600 C2613 0.929 . S
H2601 C2611 0.929 . S
H2602 C2606 0.929 . S
H2603 C2612 0.929 . S
C2604 H2598 0.930 . S
C2604 C2605 1.367 1_556 S
C2604 C2612 1.378 . S
C2605 C2604 1.367 1_554 S
C2605 C2613 1.433 . S
C2606 H2602 0.929 . S
C2606 C2608 1.378 . S
C2606 C2610 1.350 . S
C2607 C2610 1.463 . S
C2607 C2612 1.350 . S
C2607 N2615 1.427 . S
C2608 H2599 0.930 . S
C2608 C2606 1.378 . S
C2608 C2609 1.367 . S
C2609 C2608 1.367 . S
C2609 C2611 1.433 . S
C2610 C2606 1.350 . S
C2610 C2607 1.463 . S
C2610 N2614 1.427 . S
C2611 H2601 0.929 . S
C2611 C2609 1.433 . S
C2611 N2614 1.384 . S
C2612 H2603 0.929 . S
C2612 C2604 1.378 . S
C2612 C2607 1.350 . S
C2613 H2600 0.929 . S
C2613 C2605 1.433 . S
C2613 N2615 1.384 1_554 S
N2614 C2610 1.427 . S
N2614 C2611 1.384 . S
N2615 C2607 1.427 . S
N2615 C2613 1.384 1_556 S
H2616 C2622 0.930 . S
H2617 C2626 0.930 . S
H2618 C2631 0.929 . S
H2619 C2629 0.929 . S
H2620 C2624 0.929 . S
H2621 C2630 0.929 . S
C2622 H2616 0.930 . S
C2622 C2623 1.367 . S
C2622 C2630 1.378 . S
C2623 C2622 1.367 . S
C2623 C2631 1.433 . S
C2624 H2620 0.929 . S
C2624 C2626 1.378 . S
C2624 C2628 1.350 . S
C2625 C2628 1.463 . S
C2625 C2630 1.350 . S
C2625 N2633 1.427 . S
C2626 H2617 0.930 . S
C2626 C2624 1.378 . S
C2626 C2627 1.367 . S
C2627 C2626 1.367 . S
C2627 C2629 1.433 . S
C2628 C2624 1.350 . S
C2628 C2625 1.463 . S
C2628 N2632 1.427 . S
C2629 H2619 0.929 . S
C2629 C2627 1.433 . S
C2629 N2632 1.384 . S
C2630 H2621 0.929 . S
C2630 C2622 1.378 . S
C2630 C2625 1.350 . S
C2631 H2618 0.929 . S
C2631 C2623 1.433 . S
C2631 N2633 1.384 . S
N2632 C2628 1.427 . S
N2632 C2629 1.384 . S
N2633 C2625 1.427 . S
N2633 C2631 1.384 . S
H2634 C2640 0.930 . S
H2635 C2644 0.930 . S
H2636 C2649 0.929 . S
H2637 C2647 0.929 . S
H2638 C2642 0.929 . S
H2639 C2648 0.929 . S
C2640 H2634 0.930 . S
C2640 C2641 1.367 1_655 S
C2640 C2648 1.378 . S
C2641 C2640 1.367 1_455 S
C2641 C2649 1.433 . S
C2642 H2638 0.929 . S
C2642 C2644 1.378 . S
C2642 C2646 1.350 . S
C2643 C2646 1.463 . S
C2643 C2648 1.350 . S
C2643 N2651 1.427 . S
C2644 H2635 0.930 . S
C2644 C2642 1.378 . S
C2644 C2645 1.367 . S
C2645 C2644 1.367 . S
C2645 C2647 1.433 . S
C2646 C2642 1.350 . S
C2646 C2643 1.463 . S
C2646 N2650 1.427 . S
C2647 H2637 0.929 . S
C2647 C2645 1.433 . S
C2647 N2650 1.384 . S
C2648 H2639 0.929 . S
C2648 C2640 1.378 . S
C2648 C2643 1.350 . S
C2649 H2636 0.929 . S
C2649 C2641 1.433 . S
C2649 N2651 1.384 1_455 S
N2650 C2646 1.427 . S
N2650 C2647 1.384 . S
N2651 C2643 1.427 . S
N2651 C2649 1.384 1_655 S
H2652 C2658 0.930 . S
H2653 C2662 0.930 . S
H2654 C2667 0.929 . S
H2655 C2665 0.929 . S
H2656 C2660 0.929 . S
H2657 C2666 0.929 . S
C2658 H2652 0.930 . S
C2658 C2659 1.367 . S
C2658 C2666 1.378 . S
C2659 C2658 1.367 . S
C2659 C2667 1.433 . S
C2660 H2656 0.929 . S
C2660 C2662 1.378 . S
C2660 C2664 1.350 . S
C2661 C2664 1.463 . S
C2661 C2666 1.350 . S
C2661 N2669 1.427 . S
C2662 H2653 0.930 . S
C2662 C2660 1.378 . S
C2662 C2663 1.367 . S
C2663 C2662 1.367 . S
C2663 C2665 1.433 . S
C2664 C2660 1.350 . S
C2664 C2661 1.463 . S
C2664 N2668 1.427 . S
C2665 H2655 0.929 . S
C2665 C2663 1.433 . S
C2665 N2668 1.384 . S
C2666 H2657 0.929 . S
C2666 C2658 1.378 . S
C2666 C2661 1.350 . S
C2667 H2654 0.929 . S
C2667 C2659 1.433 . S
C2667 N2669 1.384 . S
N2668 C2664 1.427 . S
N2668 C2665 1.384 . S
N2669 C2661 1.427 . S
N2669 C2667 1.384 . S
H2670 C2676 0.930 . S
H2671 C2680 0.930 . S
H2672 C2685 0.929 . S
H2673 C2683 0.929 . S
H2674 C2678 0.929 . S
H2675 C2684 0.929 . S
C2676 H2670 0.930 . S
C2676 C2677 1.367 . S
C2676 C2684 1.378 . S
C2677 C2676 1.367 . S
C2677 C2685 1.433 . S
C2678 H2674 0.929 . S
C2678 C2680 1.378 . S
C2678 C2682 1.350 . S
C2679 C2682 1.463 . S
C2679 C2684 1.350 . S
C2679 N2687 1.427 . S
C2680 H2671 0.930 . S
C2680 C2678 1.378 . S
C2680 C2681 1.367 . S
C2681 C2680 1.367 . S
C2681 C2683 1.433 . S
C2682 C2678 1.350 . S
C2682 C2679 1.463 . S
C2682 N2686 1.427 . S
C2683 H2673 0.929 . S
C2683 C2681 1.433 . S
C2683 N2686 1.384 . S
C2684 H2675 0.929 . S
C2684 C2676 1.378 . S
C2684 C2679 1.350 . S
C2685 H2672 0.929 . S
C2685 C2677 1.433 . S
C2685 N2687 1.384 . S
N2686 C2682 1.427 . S
N2686 C2683 1.384 . S
N2687 C2679 1.427 . S
N2687 C2685 1.384 . S
H2688 C2694 0.930 . S
H2689 C2698 0.930 . S
H2690 C2703 0.929 . S
H2691 C2701 0.929 . S
H2692 C2696 0.929 . S
H2693 C2702 0.929 . S
C2694 H2688 0.930 . S
C2694 C2695 1.367 . S
C2694 C2702 1.378 . S
C2695 C2694 1.367 . S
C2695 C2703 1.433 . S
C2696 H2692 0.929 . S
C2696 C2698 1.378 . S
C2696 C2700 1.350 . S
C2697 C2700 1.463 . S
C2697 C2702 1.350 . S
C2697 N2705 1.427 . S
C2698 H2689 0.930 . S
C2698 C2696 1.378 . S
C2698 C2699 1.367 . S
C2699 C2698 1.367 . S
C2699 C2701 1.433 . S
C2700 C2696 1.350 . S
C2700 C2697 1.463 . S
C2700 N2704 1.427 . S
C2701 H2691 0.929 . S
C2701 C2699 1.433 . S
C2701 N2704 1.384 . S
C2702 H2693 0.929 . S
C2702 C2694 1.378 . S
C2702 C2697 1.350 . S
C2703 H2690 0.929 . S
C2703 C2695 1.433 . S
C2703 N2705 1.384 . S
N2704 C2700 1.427 . S
N2704 C2701 1.384 . S
N2705 C2697 1.427 . S
N2705 C2703 1.384 . S
H2706 C2712 0.930 . S
H2707 C2716 0.930 . S
H2708 C2721 0.929 . S
H2709 C2719 0.929 . S
H2710 C2714 0.929 . S
H2711 C2720 0.929 . S
C2712 H2706 0.930 . S
C2712 C2713 1.367 . S
C2712 C2720 1.378 . S
C2713 C2712 1.367 . S
C2713 C2721 1.433 . S
C2714 H2710 0.929 . S
C2714 C2716 1.378 . S
C2714 C2718 1.350 . S
C2715 C2718 1.463 . S
C2715 C2720 1.350 . S
C2715 N2723 1.427 . S
C2716 H2707 0.930 . S
C2716 C2714 1.378 . S
C2716 C2717 1.367 . S
C2717 C2716 1.367 . S
C2717 C2719 1.433 . S
C2718 C2714 1.350 . S
C2718 C2715 1.463 . S
C2718 N2722 1.427 . S
C2719 H2709 0.929 . S
C2719 C2717 1.433 . S
C2719 N2722 1.384 . S
C2720 H2711 0.929 . S
C2720 C2712 1.378 . S
C2720 C2715 1.350 . S
C2721 H2708 0.929 . S
C2721 C2713 1.433 . S
C2721 N2723 1.384 . S
N2722 C2718 1.427 . S
N2722 C2719 1.384 . S
N2723 C2715 1.427 . S
N2723 C2721 1.384 . S
H2724 C2730 0.930 . S
H2725 C2734 0.930 . S
H2726 C2739 0.929 . S
H2727 C2737 0.929 . S
H2728 C2732 0.929 . S
H2729 C2738 0.929 . S
C2730 H2724 0.930 . S
C2730 C2731 1.367 . S
C2730 C2738 1.378 . S
C2731 C2730 1.367 . S
C2731 C2739 1.433 . S
C2732 H2728 0.929 . S
C2732 C2734 1.378 . S
C2732 C2736 1.350 . S
C2733 C2736 1.463 . S
C2733 C2738 1.350 . S
C2733 N2741 1.427 . S
C2734 H2725 0.930 . S
C2734 C2732 1.378 . S
C2734 C2735 1.367 . S
C2735 C2734 1.367 . S
C2735 C2737 1.433 . S
C2736 C2732 1.350 . S
C2736 C2733 1.463 . S
C2736 N2740 1.427 . S
C2737 H2727 0.929 . S
C2737 C2735 1.433 . S
C2737 N2740 1.384 . S
C2738 H2729 0.929 . S
C2738 C2730 1.378 . S
C2738 C2733 1.350 . S
C2739 H2726 0.929 . S
C2739 C2731 1.433 . S
C2739 N2741 1.384 . S
N2740 C2736 1.427 . S
N2740 C2737 1.384 . S
N2741 C2733 1.427 . S
N2741 C2739 1.384 . S
H2742 C2748 0.930 . S
H2743 C2752 0.930 . S
H2744 C2757 0.929 . S
H2745 C2755 0.929 . S
H2746 C2750 0.929 . S
H2747 C2756 0.929 . S
C2748 H2742 0.930 . S
C2748 C2749 1.367 1_556 S
C2748 C2756 1.378 . S
C2749 C2748 1.367 1_554 S
C2749 C2757 1.433 . S
C2750 H2746 0.929 . S
C2750 C2752 1.378 . S
C2750 C2754 1.350 . S
C2751 C2754 1.463 . S
C2751 C2756 1.350 . S
C2751 N2759 1.427 . S
C2752 H2743 0.930 . S
C2752 C2750 1.378 . S
C2752 C2753 1.367 . S
C2753 C2752 1.367 . S
C2753 C2755 1.433 . S
C2754 C2750 1.350 . S
C2754 C2751 1.463 . S
C2754 N2758 1.427 . S
C2755 H2745 0.929 . S
C2755 C2753 1.433 . S
C2755 N2758 1.384 . S
C2756 H2747 0.929 . S
C2756 C2748 1.378 . S
C2756 C2751 1.350 . S
C2757 H2744 0.929 . S
C2757 C2749 1.433 . S
C2757 N2759 1.384 1_554 S
N2758 C2754 1.427 . S
N2758 C2755 1.384 . S
N2759 C2751 1.427 . S
N2759 C2757 1.384 1_556 S
H2760 C2766 0.930 . S
H2761 C2770 0.930 1_556 S
H2762 C2775 0.929 1_556 S
H2763 C2773 0.929 . S
H2764 C2768 0.929 1_556 S
H2765 C2774 0.929 . S
C2766 H2760 0.930 . S
C2766 C2767 1.367 . S
C2766 C2774 1.378 . S
C2767 C2766 1.367 . S
C2767 C2775 1.433 . S
C2768 H2764 0.929 1_554 S
C2768 C2770 1.378 . S
C2768 C2772 1.350 . S
C2769 C2772 1.463 . S
C2769 C2774 1.350 . S
C2769 N2777 1.427 . S
C2770 H2761 0.930 1_554 S
C2770 C2768 1.378 . S
C2770 C2771 1.367 . S
C2771 C2770 1.367 . S
C2771 C2773 1.433 . S
C2772 C2768 1.350 . S
C2772 C2769 1.463 . S
C2772 N2776 1.427 . S
C2773 H2763 0.929 . S
C2773 C2771 1.433 . S
C2773 N2776 1.384 . S
C2774 H2765 0.929 . S
C2774 C2766 1.378 . S
C2774 C2769 1.350 . S
C2775 H2762 0.929 1_554 S
C2775 C2767 1.433 . S
C2775 N2777 1.384 . S
N2776 C2772 1.427 . S
N2776 C2773 1.384 . S
N2777 C2769 1.427 . S
N2777 C2775 1.384 . S
H2778 C2784 0.930 . S
H2779 C2788 0.930 . S
H2780 C2793 0.929 . S
H2781 C2791 0.929 . S
H2782 C2786 0.929 . S
H2783 C2792 0.929 . S
C2784 H2778 0.930 . S
C2784 C2785 1.367 . S
C2784 C2792 1.378 . S
C2785 C2784 1.367 . S
C2785 C2793 1.433 . S
C2786 H2782 0.929 . S
C2786 C2788 1.378 . S
C2786 C2790 1.350 . S
C2787 C2790 1.463 . S
C2787 C2792 1.350 . S
C2787 N2795 1.427 . S
C2788 H2779 0.930 . S
C2788 C2786 1.378 . S
C2788 C2789 1.367 . S
C2789 C2788 1.367 . S
C2789 C2791 1.433 . S
C2790 C2786 1.350 . S
C2790 C2787 1.463 . S
C2790 N2794 1.427 . S
C2791 H2781 0.929 . S
C2791 C2789 1.433 . S
C2791 N2794 1.384 . S
C2792 H2783 0.929 . S
C2792 C2784 1.378 . S
C2792 C2787 1.350 . S
C2793 H2780 0.929 . S
C2793 C2785 1.433 . S
C2793 N2795 1.384 . S
N2794 C2790 1.427 . S
N2794 C2791 1.384 . S
N2795 C2787 1.427 . S
N2795 C2793 1.384 . S
H2796 C2802 0.930 . S
H2797 C2806 0.930 . S
H2798 C2811 0.929 . S
H2799 C2809 0.929 . S
H2800 C2804 0.929 . S
H2801 C2810 0.929 . S
C2802 H2796 0.930 . S
C2802 C2803 1.367 . S
C2802 C2810 1.378 . S
C2803 C2802 1.367 . S
C2803 C2811 1.433 . S
C2804 H2800 0.929 . S
C2804 C2806 1.378 . S
C2804 C2808 1.350 . S
C2805 C2808 1.463 . S
C2805 C2810 1.350 . S
C2805 N2813 1.427 . S
C2806 H2797 0.930 . S
C2806 C2804 1.378 . S
C2806 C2807 1.367 . S
C2807 C2806 1.367 . S
C2807 C2809 1.433 . S
C2808 C2804 1.350 . S
C2808 C2805 1.463 . S
C2808 N2812 1.427 . S
C2809 H2799 0.929 . S
C2809 C2807 1.433 . S
C2809 N2812 1.384 . S
C2810 H2801 0.929 . S
C2810 C2802 1.378 . S
C2810 C2805 1.350 . S
C2811 H2798 0.929 . S
C2811 C2803 1.433 . S
C2811 N2813 1.384 . S
N2812 C2808 1.427 . S
N2812 C2809 1.384 . S
N2813 C2805 1.427 . S
N2813 C2811 1.384 . S
H2814 C2820 0.930 . S
H2815 C2824 0.930 . S
H2816 C2829 0.929 . S
H2817 C2827 0.929 . S
H2818 C2822 0.929 . S
H2819 C2828 0.929 . S
C2820 H2814 0.930 . S
C2820 C2821 1.367 . S
C2820 C2828 1.378 . S
C2821 C2820 1.367 . S
C2821 C2829 1.433 . S
C2822 H2818 0.929 . S
C2822 C2824 1.378 . S
C2822 C2826 1.350 . S
C2823 C2826 1.463 . S
C2823 C2828 1.350 . S
C2823 N2831 1.427 . S
C2824 H2815 0.930 . S
C2824 C2822 1.378 . S
C2824 C2825 1.367 . S
C2825 C2824 1.367 . S
C2825 C2827 1.433 . S
C2826 C2822 1.350 . S
C2826 C2823 1.463 . S
C2826 N2830 1.427 . S
C2827 H2817 0.929 . S
C2827 C2825 1.433 . S
C2827 N2830 1.384 . S
C2828 H2819 0.929 . S
C2828 C2820 1.378 . S
C2828 C2823 1.350 . S
C2829 H2816 0.929 . S
C2829 C2821 1.433 . S
C2829 N2831 1.384 . S
N2830 C2826 1.427 . S
N2830 C2827 1.384 . S
N2831 C2823 1.427 . S
N2831 C2829 1.384 . S
H2832 C2838 0.930 1_556 S
H2833 C2842 0.930 . S
H2834 C2847 0.929 . S
H2835 C2845 0.929 1_556 S
H2836 C2840 0.929 . S
H2837 C2846 0.929 1_556 S
C2838 H2832 0.930 1_554 S
C2838 C2839 1.367 . S
C2838 C2846 1.378 . S
C2839 C2838 1.367 . S
C2839 C2847 1.433 . S
C2840 H2836 0.929 . S
C2840 C2842 1.378 . S
C2840 C2844 1.350 . S
C2841 C2844 1.463 . S
C2841 C2846 1.350 . S
C2841 N2849 1.427 . S
C2842 H2833 0.930 . S
C2842 C2840 1.378 . S
C2842 C2843 1.367 . S
C2843 C2842 1.367 . S
C2843 C2845 1.433 . S
C2844 C2840 1.350 . S
C2844 C2841 1.463 . S
C2844 N2848 1.427 . S
C2845 H2835 0.929 1_554 S
C2845 C2843 1.433 . S
C2845 N2848 1.384 . S
C2846 H2837 0.929 1_554 S
C2846 C2838 1.378 . S
C2846 C2841 1.350 . S
C2847 H2834 0.929 . S
C2847 C2839 1.433 . S
C2847 N2849 1.384 . S
N2848 C2844 1.427 . S
N2848 C2845 1.384 . S
N2849 C2841 1.427 . S
N2849 C2847 1.384 . S
H2850 C2856 0.930 . S
H2851 C2860 0.930 . S
H2852 C2865 0.929 . S
H2853 C2863 0.929 . S
H2854 C2858 0.929 . S
H2855 C2864 0.929 . S
C2856 H2850 0.930 . S
C2856 C2857 1.367 . S
C2856 C2864 1.378 . S
C2857 C2856 1.367 . S
C2857 C2865 1.433 . S
C2858 H2854 0.929 . S
C2858 C2860 1.378 1_655 S
C2858 C2862 1.350 . S
C2859 C2862 1.463 . S
C2859 C2864 1.350 . S
C2859 N2867 1.427 . S
C2860 H2851 0.930 . S
C2860 C2858 1.378 1_455 S
C2860 C2861 1.367 . S
C2861 C2860 1.367 . S
C2861 C2863 1.433 1_455 S
C2862 C2858 1.350 . S
C2862 C2859 1.463 . S
C2862 N2866 1.427 . S
C2863 H2853 0.929 . S
C2863 C2861 1.433 1_655 S
C2863 N2866 1.384 . S
C2864 H2855 0.929 . S
C2864 C2856 1.378 . S
C2864 C2859 1.350 . S
C2865 H2852 0.929 . S
C2865 C2857 1.433 . S
C2865 N2867 1.384 . S
N2866 C2862 1.427 . S
N2866 C2863 1.384 . S
N2867 C2859 1.427 . S
N2867 C2865 1.384 . S
H2868 C2874 0.930 . S
H2869 C2878 0.930 . S
H2870 C2883 0.929 . S
H2871 C2881 0.929 . S
H2872 C2876 0.929 . S
H2873 C2882 0.929 . S
C2874 H2868 0.930 . S
C2874 C2875 1.367 . S
C2874 C2882 1.378 . S
C2875 C2874 1.367 . S
C2875 C2883 1.433 . S
C2876 H2872 0.929 . S
C2876 C2878 1.378 . S
C2876 C2880 1.350 . S
C2877 C2880 1.463 . S
C2877 C2882 1.350 . S
C2877 N2885 1.427 . S
C2878 H2869 0.930 . S
C2878 C2876 1.378 . S
C2878 C2879 1.367 . S
C2879 C2878 1.367 . S
C2879 C2881 1.433 . S
C2880 C2876 1.350 . S
C2880 C2877 1.463 . S
C2880 N2884 1.427 . S
C2881 H2871 0.929 . S
C2881 C2879 1.433 . S
C2881 N2884 1.384 . S
C2882 H2873 0.929 . S
C2882 C2874 1.378 . S
C2882 C2877 1.350 . S
C2883 H2870 0.929 . S
C2883 C2875 1.433 . S
C2883 N2885 1.384 . S
N2884 C2880 1.427 . S
N2884 C2881 1.384 . S
N2885 C2877 1.427 . S
N2885 C2883 1.384 . S
H2886 C2892 0.930 . S
H2887 C2896 0.930 . S
H2888 C2901 0.929 . S
H2889 C2899 0.929 . S
H2890 C2894 0.929 . S
H2891 C2900 0.929 . S
C2892 H2886 0.930 . S
C2892 C2893 1.367 . S
C2892 C2900 1.378 . S
C2893 C2892 1.367 . S
C2893 C2901 1.433 . S
C2894 H2890 0.929 . S
C2894 C2896 1.378 . S
C2894 C2898 1.350 . S
C2895 C2898 1.463 . S
C2895 C2900 1.350 . S
C2895 N2903 1.427 . S
C2896 H2887 0.930 . S
C2896 C2894 1.378 . S
C2896 C2897 1.367 . S
C2897 C2896 1.367 . S
C2897 C2899 1.433 . S
C2898 C2894 1.350 . S
C2898 C2895 1.463 . S
C2898 N2902 1.427 . S
C2899 H2889 0.929 . S
C2899 C2897 1.433 . S
C2899 N2902 1.384 . S
C2900 H2891 0.929 . S
C2900 C2892 1.378 . S
C2900 C2895 1.350 . S
C2901 H2888 0.929 . S
C2901 C2893 1.433 . S
C2901 N2903 1.384 . S
N2902 C2898 1.427 . S
N2902 C2899 1.384 . S
N2903 C2895 1.427 . S
N2903 C2901 1.384 . S
H2904 C2910 0.930 . S
H2905 C2914 0.930 . S
H2906 C2919 0.929 . S
H2907 C2917 0.929 . S
H2908 C2912 0.929 . S
H2909 C2918 0.929 . S
C2910 H2904 0.930 . S
C2910 C2911 1.367 . S
C2910 C2918 1.378 . S
C2911 C2910 1.367 . S
C2911 C2919 1.433 . S
C2912 H2908 0.929 . S
C2912 C2914 1.378 . S
C2912 C2916 1.350 . S
C2913 C2916 1.463 . S
C2913 C2918 1.350 . S
C2913 N2921 1.427 . S
C2914 H2905 0.930 . S
C2914 C2912 1.378 . S
C2914 C2915 1.367 . S
C2915 C2914 1.367 . S
C2915 C2917 1.433 . S
C2916 C2912 1.350 . S
C2916 C2913 1.463 . S
C2916 N2920 1.427 . S
C2917 H2907 0.929 . S
C2917 C2915 1.433 . S
C2917 N2920 1.384 . S
C2918 H2909 0.929 . S
C2918 C2910 1.378 . S
C2918 C2913 1.350 . S
C2919 H2906 0.929 . S
C2919 C2911 1.433 . S
C2919 N2921 1.384 . S
N2920 C2916 1.427 . S
N2920 C2917 1.384 . S
N2921 C2913 1.427 . S
N2921 C2919 1.384 . S
H2922 C2928 0.930 . S
H2923 C2932 0.930 . S
H2924 C2937 0.929 . S
H2925 C2935 0.929 . S
H2926 C2930 0.929 . S
H2927 C2936 0.929 . S
C2928 H2922 0.930 . S
C2928 C2929 1.367 . S
C2928 C2936 1.378 . S
C2929 C2928 1.367 . S
C2929 C2937 1.433 . S
C2930 H2926 0.929 . S
C2930 C2932 1.378 . S
C2930 C2934 1.350 . S
C2931 C2934 1.463 . S
C2931 C2936 1.350 . S
C2931 N2939 1.427 . S
C2932 H2923 0.930 . S
C2932 C2930 1.378 . S
C2932 C2933 1.367 . S
C2933 C2932 1.367 . S
C2933 C2935 1.433 . S
C2934 C2930 1.350 . S
C2934 C2931 1.463 . S
C2934 N2938 1.427 . S
C2935 H2925 0.929 . S
C2935 C2933 1.433 . S
C2935 N2938 1.384 . S
C2936 H2927 0.929 . S
C2936 C2928 1.378 . S
C2936 C2931 1.350 . S
C2937 H2924 0.929 . S
C2937 C2929 1.433 . S
C2937 N2939 1.384 . S
N2938 C2934 1.427 . S
N2938 C2935 1.384 . S
N2939 C2931 1.427 . S
N2939 C2937 1.384 . S
H2940 C2946 0.930 . S
H2941 C2950 0.930 . S
H2942 C2955 0.929 . S
H2943 C2953 0.929 . S
H2944 C2948 0.929 . S
H2945 C2954 0.929 . S
C2946 H2940 0.930 . S
C2946 C2947 1.367 . S
C2946 C2954 1.378 . S
C2947 C2946 1.367 . S
C2947 C2955 1.433 . S
C2948 H2944 0.929 . S
C2948 C2950 1.378 . S
C2948 C2952 1.350 . S
C2949 C2952 1.463 . S
C2949 C2954 1.350 . S
C2949 N2957 1.427 . S
C2950 H2941 0.930 . S
C2950 C2948 1.378 . S
C2950 C2951 1.367 . S
C2951 C2950 1.367 . S
C2951 C2953 1.433 . S
C2952 C2948 1.350 . S
C2952 C2949 1.463 . S
C2952 N2956 1.427 . S
C2953 H2943 0.929 . S
C2953 C2951 1.433 . S
C2953 N2956 1.384 . S
C2954 H2945 0.929 . S
C2954 C2946 1.378 . S
C2954 C2949 1.350 . S
C2955 H2942 0.929 . S
C2955 C2947 1.433 . S
C2955 N2957 1.384 . S
N2956 C2952 1.427 . S
N2956 C2953 1.384 . S
N2957 C2949 1.427 . S
N2957 C2955 1.384 . S
H2958 C2964 0.930 . S
H2959 C2968 0.930 . S
H2960 C2973 0.929 . S
H2961 C2971 0.929 . S
H2962 C2966 0.929 . S
H2963 C2972 0.929 . S
C2964 H2958 0.930 . S
C2964 C2965 1.367 . S
C2964 C2972 1.378 . S
C2965 C2964 1.367 . S
C2965 C2973 1.433 . S
C2966 H2962 0.929 . S
C2966 C2968 1.378 . S
C2966 C2970 1.350 . S
C2967 C2970 1.463 . S
C2967 C2972 1.350 . S
C2967 N2975 1.427 . S
C2968 H2959 0.930 . S
C2968 C2966 1.378 . S
C2968 C2969 1.367 . S
C2969 C2968 1.367 . S
C2969 C2971 1.433 . S
C2970 C2966 1.350 . S
C2970 C2967 1.463 . S
C2970 N2974 1.427 . S
C2971 H2961 0.929 . S
C2971 C2969 1.433 . S
C2971 N2974 1.384 . S
C2972 H2963 0.929 . S
C2972 C2964 1.378 . S
C2972 C2967 1.350 . S
C2973 H2960 0.929 . S
C2973 C2965 1.433 . S
C2973 N2975 1.384 . S
N2974 C2970 1.427 . S
N2974 C2971 1.384 . S
N2975 C2967 1.427 . S
N2975 C2973 1.384 . S
H2976 C2982 0.930 . S
H2977 C2986 0.930 . S
H2978 C2991 0.929 . S
H2979 C2989 0.929 . S
H2980 C2984 0.929 . S
H2981 C2990 0.929 . S
C2982 H2976 0.930 . S
C2982 C2983 1.367 . S
C2982 C2990 1.378 . S
C2983 C2982 1.367 . S
C2983 C2991 1.433 . S
C2984 H2980 0.929 . S
C2984 C2986 1.378 . S
C2984 C2988 1.350 . S
C2985 C2988 1.463 . S
C2985 C2990 1.350 . S
C2985 N2993 1.427 . S
C2986 H2977 0.930 . S
C2986 C2984 1.378 . S
C2986 C2987 1.367 . S
C2987 C2986 1.367 . S
C2987 C2989 1.433 . S
C2988 C2984 1.350 . S
C2988 C2985 1.463 . S
C2988 N2992 1.427 . S
C2989 H2979 0.929 . S
C2989 C2987 1.433 . S
C2989 N2992 1.384 . S
C2990 H2981 0.929 . S
C2990 C2982 1.378 . S
C2990 C2985 1.350 . S
C2991 H2978 0.929 . S
C2991 C2983 1.433 . S
C2991 N2993 1.384 . S
N2992 C2988 1.427 . S
N2992 C2989 1.384 . S
N2993 C2985 1.427 . S
N2993 C2991 1.384 . S
H2994 C3000 0.930 . S
H2995 C3004 0.930 . S
H2996 C3009 0.929 . S
H2997 C3007 0.929 . S
H2998 C3002 0.929 . S
H2999 C3008 0.929 . S
C3000 H2994 0.930 . S
C3000 C3001 1.367 . S
C3000 C3008 1.378 . S
C3001 C3000 1.367 . S
C3001 C3009 1.433 . S
C3002 H2998 0.929 . S
C3002 C3004 1.378 . S
C3002 C3006 1.350 . S
C3003 C3006 1.463 . S
C3003 C3008 1.350 . S
C3003 N3011 1.427 . S
C3004 H2995 0.930 . S
C3004 C3002 1.378 . S
C3004 C3005 1.367 . S
C3005 C3004 1.367 . S
C3005 C3007 1.433 . S
C3006 C3002 1.350 . S
C3006 C3003 1.463 . S
C3006 N3010 1.427 . S
C3007 H2997 0.929 . S
C3007 C3005 1.433 . S
C3007 N3010 1.384 . S
C3008 H2999 0.929 . S
C3008 C3000 1.378 . S
C3008 C3003 1.350 . S
C3009 H2996 0.929 . S
C3009 C3001 1.433 . S
C3009 N3011 1.384 . S
N3010 C3006 1.427 . S
N3010 C3007 1.384 . S
N3011 C3003 1.427 . S
N3011 C3009 1.384 . S
H3012 C3018 0.930 . S
H3013 C3022 0.930 . S
H3014 C3027 0.929 . S
H3015 C3025 0.929 . S
H3016 C3020 0.929 . S
H3017 C3026 0.929 . S
C3018 H3012 0.930 . S
C3018 C3019 1.367 . S
C3018 C3026 1.378 . S
C3019 C3018 1.367 . S
C3019 C3027 1.433 . S
C3020 H3016 0.929 . S
C3020 C3022 1.378 . S
C3020 C3024 1.350 . S
C3021 C3024 1.463 . S
C3021 C3026 1.350 . S
C3021 N3029 1.427 . S
C3022 H3013 0.930 . S
C3022 C3020 1.378 . S
C3022 C3023 1.367 . S
C3023 C3022 1.367 . S
C3023 C3025 1.433 . S
C3024 C3020 1.350 . S
C3024 C3021 1.463 . S
C3024 N3028 1.427 . S
C3025 H3015 0.929 . S
C3025 C3023 1.433 . S
C3025 N3028 1.384 . S
C3026 H3017 0.929 . S
C3026 C3018 1.378 . S
C3026 C3021 1.350 . S
C3027 H3014 0.929 . S
C3027 C3019 1.433 . S
C3027 N3029 1.384 . S
N3028 C3024 1.427 . S
N3028 C3025 1.384 . S
N3029 C3021 1.427 . S
N3029 C3027 1.384 . S
H3030 C3036 0.930 . S
H3031 C3040 0.930 . S
H3032 C3045 0.929 . S
H3033 C3043 0.929 . S
H3034 C3038 0.929 . S
H3035 C3044 0.929 . S
C3036 H3030 0.930 . S
C3036 C3037 1.367 . S
C3036 C3044 1.378 . S
C3037 C3036 1.367 . S
C3037 C3045 1.433 . S
C3038 H3034 0.929 . S
C3038 C3040 1.378 . S
C3038 C3042 1.350 . S
C3039 C3042 1.463 . S
C3039 C3044 1.350 . S
C3039 N3047 1.427 . S
C3040 H3031 0.930 . S
C3040 C3038 1.378 . S
C3040 C3041 1.367 . S
C3041 C3040 1.367 . S
C3041 C3043 1.433 . S
C3042 C3038 1.350 . S
C3042 C3039 1.463 . S
C3042 N3046 1.427 . S
C3043 H3033 0.929 . S
C3043 C3041 1.433 . S
C3043 N3046 1.384 . S
C3044 H3035 0.929 . S
C3044 C3036 1.378 . S
C3044 C3039 1.350 . S
C3045 H3032 0.929 . S
C3045 C3037 1.433 . S
C3045 N3047 1.384 . S
N3046 C3042 1.427 . S
N3046 C3043 1.384 . S
N3047 C3039 1.427 . S
N3047 C3045 1.384 . S
H3048 C3054 0.930 . S
H3049 C3058 0.930 . S
H3050 C3063 0.929 . S
H3051 C3061 0.929 . S
H3052 C3056 0.929 . S
H3053 C3062 0.929 . S
C3054 H3048 0.930 . S
C3054 C3055 1.367 . S
C3054 C3062 1.378 . S
C3055 C3054 1.367 . S
C3055 C3063 1.433 . S
C3056 H3052 0.929 . S
C3056 C3058 1.378 . S
C3056 C3060 1.350 . S
C3057 C3060 1.463 . S
C3057 C3062 1.350 . S
C3057 N3065 1.427 . S
C3058 H3049 0.930 . S
C3058 C3056 1.378 . S
C3058 C3059 1.367 . S
C3059 C3058 1.367 . S
C3059 C3061 1.433 . S
C3060 C3056 1.350 . S
C3060 C3057 1.463 . S
C3060 N3064 1.427 . S
C3061 H3051 0.929 . S
C3061 C3059 1.433 . S
C3061 N3064 1.384 . S
C3062 H3053 0.929 . S
C3062 C3054 1.378 . S
C3062 C3057 1.350 . S
C3063 H3050 0.929 . S
C3063 C3055 1.433 . S
C3063 N3065 1.384 . S
N3064 C3060 1.427 . S
N3064 C3061 1.384 . S
N3065 C3057 1.427 . S
N3065 C3063 1.384 . S
H3066 C3072 0.930 . S
H3067 C3076 0.930 . S
H3068 C3081 0.929 . S
H3069 C3079 0.929 . S
H3070 C3074 0.929 . S
H3071 C3080 0.929 . S
C3072 H3066 0.930 . S
C3072 C3073 1.367 . S
C3072 C3080 1.378 . S
C3073 C3072 1.367 . S
C3073 C3081 1.433 . S
C3074 H3070 0.929 . S
C3074 C3076 1.378 . S
C3074 C3078 1.350 . S
C3075 C3078 1.463 . S
C3075 C3080 1.350 . S
C3075 N3083 1.427 . S
C3076 H3067 0.930 . S
C3076 C3074 1.378 . S
C3076 C3077 1.367 . S
C3077 C3076 1.367 . S
C3077 C3079 1.433 . S
C3078 C3074 1.350 . S
C3078 C3075 1.463 . S
C3078 N3082 1.427 . S
C3079 H3069 0.929 . S
C3079 C3077 1.433 . S
C3079 N3082 1.384 . S
C3080 H3071 0.929 . S
C3080 C3072 1.378 . S
C3080 C3075 1.350 . S
C3081 H3068 0.929 . S
C3081 C3073 1.433 . S
C3081 N3083 1.384 . S
N3082 C3078 1.427 . S
N3082 C3079 1.384 . S
N3083 C3075 1.427 . S
N3083 C3081 1.384 . S
H3084 C3090 0.930 . S
H3085 C3094 0.930 . S
H3086 C3099 0.929 . S
H3087 C3097 0.929 . S
H3088 C3092 0.929 . S
H3089 C3098 0.929 . S
C3090 H3084 0.930 . S
C3090 C3091 1.367 . S
C3090 C3098 1.378 1_545 S
C3091 C3090 1.367 . S
C3091 C3099 1.433 1_545 S
C3092 H3088 0.929 . S
C3092 C3094 1.378 . S
C3092 C3096 1.350 . S
C3093 C3096 1.463 . S
C3093 C3098 1.350 . S
C3093 N3101 1.427 . S
C3094 H3085 0.930 . S
C3094 C3092 1.378 . S
C3094 C3095 1.367 1_655 S
C3095 C3094 1.367 1_455 S
C3095 C3097 1.433 . S
C3096 C3092 1.350 . S
C3096 C3093 1.463 . S
C3096 N3100 1.427 . S
C3097 H3087 0.929 . S
C3097 C3095 1.433 . S
C3097 N3100 1.384 1_455 S
C3098 H3089 0.929 . S
C3098 C3090 1.378 1_565 S
C3098 C3093 1.350 . S
C3099 H3086 0.929 . S
C3099 C3091 1.433 1_565 S
C3099 N3101 1.384 . S
N3100 C3096 1.427 . S
N3100 C3097 1.384 1_655 S
N3101 C3093 1.427 . S
N3101 C3099 1.384 . S
H3102 C3108 0.930 . S
H3103 C3112 0.930 . S
H3104 C3117 0.929 . S
H3105 C3115 0.929 . S
H3106 C3110 0.929 . S
H3107 C3116 0.929 . S
C3108 H3102 0.930 . S
C3108 C3109 1.367 . S
C3108 C3116 1.378 . S
C3109 C3108 1.367 . S
C3109 C3117 1.433 . S
C3110 H3106 0.929 . S
C3110 C3112 1.378 . S
C3110 C3114 1.350 . S
C3111 C3114 1.463 . S
C3111 C3116 1.350 . S
C3111 N3119 1.427 . S
C3112 H3103 0.930 . S
C3112 C3110 1.378 . S
C3112 C3113 1.367 . S
C3113 C3112 1.367 . S
C3113 C3115 1.433 . S
C3114 C3110 1.350 . S
C3114 C3111 1.463 . S
C3114 N3118 1.427 . S
C3115 H3105 0.929 . S
C3115 C3113 1.433 . S
C3115 N3118 1.384 . S
C3116 H3107 0.929 . S
C3116 C3108 1.378 . S
C3116 C3111 1.350 . S
C3117 H3104 0.929 . S
C3117 C3109 1.433 . S
C3117 N3119 1.384 . S
N3118 C3114 1.427 . S
N3118 C3115 1.384 . S
N3119 C3111 1.427 . S
N3119 C3117 1.384 . S
H3120 C3126 0.930 . S
H3121 C3130 0.930 . S
H3122 C3135 0.929 . S
H3123 C3133 0.929 . S
H3124 C3128 0.929 . S
H3125 C3134 0.929 . S
C3126 H3120 0.930 . S
C3126 C3127 1.367 . S
C3126 C3134 1.378 . S
C3127 C3126 1.367 . S
C3127 C3135 1.433 . S
C3128 H3124 0.929 . S
C3128 C3130 1.378 . S
C3128 C3132 1.350 . S
C3129 C3132 1.463 . S
C3129 C3134 1.350 . S
C3129 N3137 1.427 . S
C3130 H3121 0.930 . S
C3130 C3128 1.378 . S
C3130 C3131 1.367 . S
C3131 C3130 1.367 . S
C3131 C3133 1.433 . S
C3132 C3128 1.350 . S
C3132 C3129 1.463 . S
C3132 N3136 1.427 . S
C3133 H3123 0.929 . S
C3133 C3131 1.433 . S
C3133 N3136 1.384 . S
C3134 H3125 0.929 . S
C3134 C3126 1.378 . S
C3134 C3129 1.350 . S
C3135 H3122 0.929 . S
C3135 C3127 1.433 . S
C3135 N3137 1.384 . S
N3136 C3132 1.427 . S
N3136 C3133 1.384 . S
N3137 C3129 1.427 . S
N3137 C3135 1.384 . S
H3138 C3144 0.930 . S
H3139 C3148 0.930 1_556 S
H3140 C3153 0.929 1_556 S
H3141 C3151 0.929 . S
H3142 C3146 0.929 1_556 S
H3143 C3152 0.929 . S
C3144 H3138 0.930 . S
C3144 C3145 1.367 . S
C3144 C3152 1.378 . S
C3145 C3144 1.367 . S
C3145 C3153 1.433 . S
C3146 H3142 0.929 1_554 S
C3146 C3148 1.378 . S
C3146 C3150 1.350 . S
C3147 C3150 1.463 . S
C3147 C3152 1.350 . S
C3147 N3155 1.427 . S
C3148 H3139 0.930 1_554 S
C3148 C3146 1.378 . S
C3148 C3149 1.367 . S
C3149 C3148 1.367 . S
C3149 C3151 1.433 . S
C3150 C3146 1.350 . S
C3150 C3147 1.463 . S
C3150 N3154 1.427 . S
C3151 H3141 0.929 . S
C3151 C3149 1.433 . S
C3151 N3154 1.384 . S
C3152 H3143 0.929 . S
C3152 C3144 1.378 . S
C3152 C3147 1.350 . S
C3153 H3140 0.929 1_554 S
C3153 C3145 1.433 . S
C3153 N3155 1.384 . S
N3154 C3150 1.427 . S
N3154 C3151 1.384 . S
N3155 C3147 1.427 . S
N3155 C3153 1.384 . S
H3156 C3162 0.930 . S
H3157 C3166 0.930 . S
H3158 C3171 0.929 . S
H3159 C3169 0.929 . S
H3160 C3164 0.929 . S
H3161 C3170 0.929 . S
C3162 H3156 0.930 . S
C3162 C3163 1.367 . S
C3162 C3170 1.378 . S
C3163 C3162 1.367 . S
C3163 C3171 1.433 . S
C3164 H3160 0.929 . S
C3164 C3166 1.378 . S
C3164 C3168 1.350 . S
C3165 C3168 1.463 . S
C3165 C3170 1.350 . S
C3165 N3173 1.427 . S
C3166 H3157 0.930 . S
C3166 C3164 1.378 . S
C3166 C3167 1.367 . S
C3167 C3166 1.367 . S
C3167 C3169 1.433 . S
C3168 C3164 1.350 . S
C3168 C3165 1.463 . S
C3168 N3172 1.427 . S
C3169 H3159 0.929 . S
C3169 C3167 1.433 . S
C3169 N3172 1.384 . S
C3170 H3161 0.929 . S
C3170 C3162 1.378 . S
C3170 C3165 1.350 . S
C3171 H3158 0.929 . S
C3171 C3163 1.433 . S
C3171 N3173 1.384 . S
N3172 C3168 1.427 . S
N3172 C3169 1.384 . S
N3173 C3165 1.427 . S
N3173 C3171 1.384 . S
H3174 C3180 0.930 . S
H3175 C3184 0.930 . S
H3176 C3189 0.929 . S
H3177 C3187 0.929 . S
H3178 C3182 0.929 . S
H3179 C3188 0.929 . S
C3180 H3174 0.930 . S
C3180 C3181 1.367 . S
C3180 C3188 1.378 . S
C3181 C3180 1.367 . S
C3181 C3189 1.433 . S
C3182 H3178 0.929 . S
C3182 C3184 1.378 . S
C3182 C3186 1.350 . S
C3183 C3186 1.463 . S
C3183 C3188 1.350 . S
C3183 N3191 1.427 . S
C3184 H3175 0.930 . S
C3184 C3182 1.378 . S
C3184 C3185 1.367 . S
C3185 C3184 1.367 . S
C3185 C3187 1.433 . S
C3186 C3182 1.350 . S
C3186 C3183 1.463 . S
C3186 N3190 1.427 . S
C3187 H3177 0.929 . S
C3187 C3185 1.433 . S
C3187 N3190 1.384 . S
C3188 H3179 0.929 . S
C3188 C3180 1.378 . S
C3188 C3183 1.350 . S
C3189 H3176 0.929 . S
C3189 C3181 1.433 . S
C3189 N3191 1.384 . S
N3190 C3186 1.427 . S
N3190 C3187 1.384 . S
N3191 C3183 1.427 . S
N3191 C3189 1.384 . S
H3192 C3198 0.930 . S
H3193 C3202 0.930 . S
H3194 C3207 0.929 . S
H3195 C3205 0.929 . S
H3196 C3200 0.929 . S
H3197 C3206 0.929 . S
C3198 H3192 0.930 . S
C3198 C3199 1.367 1_655 S
C3198 C3206 1.378 . S
C3199 C3198 1.367 1_455 S
C3199 C3207 1.433 . S
C3200 H3196 0.929 . S
C3200 C3202 1.378 . S
C3200 C3204 1.350 . S
C3201 C3204 1.463 . S
C3201 C3206 1.350 . S
C3201 N3209 1.427 . S
C3202 H3193 0.930 . S
C3202 C3200 1.378 . S
C3202 C3203 1.367 . S
C3203 C3202 1.367 . S
C3203 C3205 1.433 . S
C3204 C3200 1.350 . S
C3204 C3201 1.463 . S
C3204 N3208 1.427 . S
C3205 H3195 0.929 . S
C3205 C3203 1.433 . S
C3205 N3208 1.384 . S
C3206 H3197 0.929 . S
C3206 C3198 1.378 . S
C3206 C3201 1.350 . S
C3207 H3194 0.929 . S
C3207 C3199 1.433 . S
C3207 N3209 1.384 1_455 S
N3208 C3204 1.427 . S
N3208 C3205 1.384 . S
N3209 C3201 1.427 . S
N3209 C3207 1.384 1_655 S
H3210 C3216 0.930 . S
H3211 C3220 0.930 . S
H3212 C3225 0.929 . S
H3213 C3223 0.929 . S
H3214 C3218 0.929 . S
H3215 C3224 0.929 . S
C3216 H3210 0.930 . S
C3216 C3217 1.367 . S
C3216 C3224 1.378 . S
C3217 C3216 1.367 . S
C3217 C3225 1.433 . S
C3218 H3214 0.929 . S
C3218 C3220 1.378 . S
C3218 C3222 1.350 . S
C3219 C3222 1.463 . S
C3219 C3224 1.350 . S
C3219 N3227 1.427 . S
C3220 H3211 0.930 . S
C3220 C3218 1.378 . S
C3220 C3221 1.367 . S
C3221 C3220 1.367 . S
C3221 C3223 1.433 . S
C3222 C3218 1.350 . S
C3222 C3219 1.463 . S
C3222 N3226 1.427 . S
C3223 H3213 0.929 . S
C3223 C3221 1.433 . S
C3223 N3226 1.384 . S
C3224 H3215 0.929 . S
C3224 C3216 1.378 . S
C3224 C3219 1.350 . S
C3225 H3212 0.929 . S
C3225 C3217 1.433 . S
C3225 N3227 1.384 . S
N3226 C3222 1.427 . S
N3226 C3223 1.384 . S
N3227 C3219 1.427 . S
N3227 C3225 1.384 . S
H3228 C3234 0.930 . S
H3229 C3238 0.930 . S
H3230 C3243 0.929 . S
H3231 C3241 0.929 . S
H3232 C3236 0.929 . S
H3233 C3242 0.929 . S
C3234 H3228 0.930 . S
C3234 C3235 1.367 . S
C3234 C3242 1.378 . S
C3235 C3234 1.367 . S
C3235 C3243 1.433 . S
C3236 H3232 0.929 . S
C3236 C3238 1.378 . S
C3236 C3240 1.350 . S
C3237 C3240 1.463 . S
C3237 C3242 1.350 . S
C3237 N3245 1.427 . S
C3238 H3229 0.930 . S
C3238 C3236 1.378 . S
C3238 C3239 1.367 . S
C3239 C3238 1.367 . S
C3239 C3241 1.433 . S
C3240 C3236 1.350 . S
C3240 C3237 1.463 . S
C3240 N3244 1.427 . S
C3241 H3231 0.929 . S
C3241 C3239 1.433 . S
C3241 N3244 1.384 . S
C3242 H3233 0.929 . S
C3242 C3234 1.378 . S
C3242 C3237 1.350 . S
C3243 H3230 0.929 . S
C3243 C3235 1.433 . S
C3243 N3245 1.384 . S
N3244 C3240 1.427 . S
N3244 C3241 1.384 . S
N3245 C3237 1.427 . S
N3245 C3243 1.384 . S
H3246 C3252 0.930 . S
H3247 C3256 0.930 . S
H3248 C3261 0.929 . S
H3249 C3259 0.929 . S
H3250 C3254 0.929 . S
H3251 C3260 0.929 . S
C3252 H3246 0.930 . S
C3252 C3253 1.367 . S
C3252 C3260 1.378 1_554 S
C3253 C3252 1.367 . S
C3253 C3261 1.433 1_554 S
C3254 H3250 0.929 . S
C3254 C3256 1.378 . S
C3254 C3258 1.350 . S
C3255 C3258 1.463 . S
C3255 C3260 1.350 . S
C3255 N3263 1.427 . S
C3256 H3247 0.930 . S
C3256 C3254 1.378 . S
C3256 C3257 1.367 1_655 S
C3257 C3256 1.367 1_455 S
C3257 C3259 1.433 . S
C3258 C3254 1.350 . S
C3258 C3255 1.463 . S
C3258 N3262 1.427 . S
C3259 H3249 0.929 . S
C3259 C3257 1.433 . S
C3259 N3262 1.384 1_455 S
C3260 H3251 0.929 . S
C3260 C3252 1.378 1_556 S
C3260 C3255 1.350 . S
C3261 H3248 0.929 . S
C3261 C3253 1.433 1_556 S
C3261 N3263 1.384 . S
N3262 C3258 1.427 . S
N3262 C3259 1.384 1_655 S
N3263 C3255 1.427 . S
N3263 C3261 1.384 . S
H3264 C3270 0.930 . S
H3265 C3274 0.930 . S
H3266 C3279 0.929 . S
H3267 C3277 0.929 . S
H3268 C3272 0.929 . S
H3269 C3278 0.929 . S
C3270 H3264 0.930 . S
C3270 C3271 1.367 . S
C3270 C3278 1.378 . S
C3271 C3270 1.367 . S
C3271 C3279 1.433 . S
C3272 H3268 0.929 . S
C3272 C3274 1.378 . S
C3272 C3276 1.350 . S
C3273 C3276 1.463 . S
C3273 C3278 1.350 . S
C3273 N3281 1.427 . S
C3274 H3265 0.930 . S
C3274 C3272 1.378 . S
C3274 C3275 1.367 . S
C3275 C3274 1.367 . S
C3275 C3277 1.433 . S
C3276 C3272 1.350 . S
C3276 C3273 1.463 . S
C3276 N3280 1.427 . S
C3277 H3267 0.929 . S
C3277 C3275 1.433 . S
C3277 N3280 1.384 . S
C3278 H3269 0.929 . S
C3278 C3270 1.378 . S
C3278 C3273 1.350 . S
C3279 H3266 0.929 . S
C3279 C3271 1.433 . S
C3279 N3281 1.384 . S
N3280 C3276 1.427 . S
N3280 C3277 1.384 . S
N3281 C3273 1.427 . S
N3281 C3279 1.384 . S
H3282 C3288 0.930 . S
H3283 C3292 0.930 . S
H3284 C3297 0.929 . S
H3285 C3295 0.929 . S
H3286 C3290 0.929 . S
H3287 C3296 0.929 . S
C3288 H3282 0.930 . S
C3288 C3289 1.367 1_565 S
C3288 C3296 1.378 . S
C3289 C3288 1.367 1_545 S
C3289 C3297 1.433 . S
C3290 H3286 0.929 . S
C3290 C3292 1.378 . S
C3290 C3294 1.350 . S
C3291 C3294 1.463 . S
C3291 C3296 1.350 . S
C3291 N3299 1.427 . S
C3292 H3283 0.930 . S
C3292 C3290 1.378 . S
C3292 C3293 1.367 . S
C3293 C3292 1.367 . S
C3293 C3295 1.433 . S
C3294 C3290 1.350 . S
C3294 C3291 1.463 . S
C3294 N3298 1.427 . S
C3295 H3285 0.929 . S
C3295 C3293 1.433 . S
C3295 N3298 1.384 . S
C3296 H3287 0.929 . S
C3296 C3288 1.378 . S
C3296 C3291 1.350 . S
C3297 H3284 0.929 . S
C3297 C3289 1.433 . S
C3297 N3299 1.384 1_545 S
N3298 C3294 1.427 . S
N3298 C3295 1.384 . S
N3299 C3291 1.427 . S
N3299 C3297 1.384 1_565 S
H3300 C3306 0.930 . S
H3301 C3310 0.930 . S
H3302 C3315 0.929 . S
H3303 C3313 0.929 . S
H3304 C3308 0.929 . S
H3305 C3314 0.929 . S
C3306 H3300 0.930 . S
C3306 C3307 1.367 . S
C3306 C3314 1.378 . S
C3307 C3306 1.367 . S
C3307 C3315 1.433 . S
C3308 H3304 0.929 . S
C3308 C3310 1.378 . S
C3308 C3312 1.350 . S
C3309 C3312 1.463 . S
C3309 C3314 1.350 . S
C3309 N3317 1.427 . S
C3310 H3301 0.930 . S
C3310 C3308 1.378 . S
C3310 C3311 1.367 . S
C3311 C3310 1.367 . S
C3311 C3313 1.433 . S
C3312 C3308 1.350 . S
C3312 C3309 1.463 . S
C3312 N3316 1.427 . S
C3313 H3303 0.929 . S
C3313 C3311 1.433 . S
C3313 N3316 1.384 . S
C3314 H3305 0.929 . S
C3314 C3306 1.378 . S
C3314 C3309 1.350 . S
C3315 H3302 0.929 . S
C3315 C3307 1.433 . S
C3315 N3317 1.384 . S
N3316 C3312 1.427 . S
N3316 C3313 1.384 . S
N3317 C3309 1.427 . S
N3317 C3315 1.384 . S
H3318 C3324 0.930 . S
H3319 C3328 0.930 . S
H3320 C3333 0.929 . S
H3321 C3331 0.929 . S
H3322 C3326 0.929 . S
H3323 C3332 0.929 . S
C3324 H3318 0.930 . S
C3324 C3325 1.367 . S
C3324 C3332 1.378 1_554 S
C3325 C3324 1.367 . S
C3325 C3333 1.433 1_554 S
C3326 H3322 0.929 . S
C3326 C3328 1.378 . S
C3326 C3330 1.350 . S
C3327 C3330 1.463 . S
C3327 C3332 1.350 . S
C3327 N3335 1.427 . S
C3328 H3319 0.930 . S
C3328 C3326 1.378 . S
C3328 C3329 1.367 . S
C3329 C3328 1.367 . S
C3329 C3331 1.433 . S
C3330 C3326 1.350 . S
C3330 C3327 1.463 . S
C3330 N3334 1.427 . S
C3331 H3321 0.929 . S
C3331 C3329 1.433 . S
C3331 N3334 1.384 . S
C3332 H3323 0.929 . S
C3332 C3324 1.378 1_556 S
C3332 C3327 1.350 . S
C3333 H3320 0.929 . S
C3333 C3325 1.433 1_556 S
C3333 N3335 1.384 . S
N3334 C3330 1.427 . S
N3334 C3331 1.384 . S
N3335 C3327 1.427 . S
N3335 C3333 1.384 . S
H3336 C3342 0.930 . S
H3337 C3346 0.930 . S
H3338 C3351 0.929 . S
H3339 C3349 0.929 . S
H3340 C3344 0.929 . S
H3341 C3350 0.929 . S
C3342 H3336 0.930 . S
C3342 C3343 1.367 . S
C3342 C3350 1.378 . S
C3343 C3342 1.367 . S
C3343 C3351 1.433 . S
C3344 H3340 0.929 . S
C3344 C3346 1.378 . S
C3344 C3348 1.350 . S
C3345 C3348 1.463 . S
C3345 C3350 1.350 . S
C3345 N3353 1.427 . S
C3346 H3337 0.930 . S
C3346 C3344 1.378 . S
C3346 C3347 1.367 . S
C3347 C3346 1.367 . S
C3347 C3349 1.433 . S
C3348 C3344 1.350 . S
C3348 C3345 1.463 . S
C3348 N3352 1.427 . S
C3349 H3339 0.929 . S
C3349 C3347 1.433 . S
C3349 N3352 1.384 . S
C3350 H3341 0.929 . S
C3350 C3342 1.378 . S
C3350 C3345 1.350 . S
C3351 H3338 0.929 . S
C3351 C3343 1.433 . S
C3351 N3353 1.384 . S
N3352 C3348 1.427 . S
N3352 C3349 1.384 . S
N3353 C3345 1.427 . S
N3353 C3351 1.384 . S
H3354 C3360 0.930 . S
H3355 C3364 0.930 . S
H3356 C3369 0.929 . S
H3357 C3367 0.929 . S
H3358 C3362 0.929 . S
H3359 C3368 0.929 . S
C3360 H3354 0.930 . S
C3360 C3361 1.367 . S
C3360 C3368 1.378 . S
C3361 C3360 1.367 . S
C3361 C3369 1.433 . S
C3362 H3358 0.929 . S
C3362 C3364 1.378 . S
C3362 C3366 1.350 . S
C3363 C3366 1.463 . S
C3363 C3368 1.350 . S
C3363 N3371 1.427 . S
C3364 H3355 0.930 . S
C3364 C3362 1.378 . S
C3364 C3365 1.367 . S
C3365 C3364 1.367 . S
C3365 C3367 1.433 . S
C3366 C3362 1.350 . S
C3366 C3363 1.463 . S
C3366 N3370 1.427 . S
C3367 H3357 0.929 . S
C3367 C3365 1.433 . S
C3367 N3370 1.384 . S
C3368 H3359 0.929 . S
C3368 C3360 1.378 . S
C3368 C3363 1.350 . S
C3369 H3356 0.929 . S
C3369 C3361 1.433 . S
C3369 N3371 1.384 . S
N3370 C3366 1.427 . S
N3370 C3367 1.384 . S
N3371 C3363 1.427 . S
N3371 C3369 1.384 . S
H3372 C3378 0.930 . S
H3373 C3382 0.930 . S
H3374 C3387 0.929 . S
H3375 C3385 0.929 . S
H3376 C3380 0.929 . S
H3377 C3386 0.929 . S
C3378 H3372 0.930 . S
C3378 C3379 1.367 . S
C3378 C3386 1.378 . S
C3379 C3378 1.367 . S
C3379 C3387 1.433 . S
C3380 H3376 0.929 . S
C3380 C3382 1.378 1_565 S
C3380 C3384 1.350 . S
C3381 C3384 1.463 . S
C3381 C3386 1.350 . S
C3381 N3389 1.427 . S
C3382 H3373 0.930 . S
C3382 C3380 1.378 1_545 S
C3382 C3383 1.367 . S
C3383 C3382 1.367 . S
C3383 C3385 1.433 1_545 S
C3384 C3380 1.350 . S
C3384 C3381 1.463 . S
C3384 N3388 1.427 . S
C3385 H3375 0.929 . S
C3385 C3383 1.433 1_565 S
C3385 N3388 1.384 . S
C3386 H3377 0.929 . S
C3386 C3378 1.378 . S
C3386 C3381 1.350 . S
C3387 H3374 0.929 . S
C3387 C3379 1.433 . S
C3387 N3389 1.384 . S
N3388 C3384 1.427 . S
N3388 C3385 1.384 . S
N3389 C3381 1.427 . S
N3389 C3387 1.384 . S
H3390 C3396 0.930 . S
H3391 C3400 0.930 . S
H3392 C3405 0.929 . S
H3393 C3403 0.929 . S
H3394 C3398 0.942 . S
H3395 C3404 0.929 . S
C3396 H3390 0.930 . S
C3396 C3397 1.367 . S
C3396 C3404 1.378 . S
C3397 C3396 1.367 . S
C3397 C3405 1.433 . S
C3398 H3394 0.942 . S
C3398 C3400 1.378 1_655 S
C3398 C3402 1.350 . S
C3399 C3402 1.463 . S
C3399 C3404 1.350 . S
C3399 N3407 1.427 . S
C3400 H3391 0.930 . S
C3400 C3398 1.378 1_455 S
C3400 C3401 1.367 . S
C3401 C3400 1.367 . S
C3401 C3403 1.433 1_455 S
C3402 C3398 1.350 . S
C3402 C3399 1.463 . S
C3402 N3406 1.427 . S
C3403 H3393 0.929 . S
C3403 C3401 1.433 1_655 S
C3403 N3406 1.384 . S
C3404 H3395 0.929 . S
C3404 C3396 1.378 . S
C3404 C3399 1.350 . S
C3405 H3392 0.929 . S
C3405 C3397 1.433 . S
C3405 N3407 1.384 . S
N3406 C3402 1.427 . S
N3406 C3403 1.384 . S
N3407 C3399 1.427 . S
N3407 C3405 1.384 . S
H3408 C3414 0.930 . S
H3409 C3418 0.930 . S
H3410 C3423 0.929 . S
H3411 C3421 0.929 . S
H3412 C3416 0.929 . S
H3413 C3422 0.929 . S
C3414 H3408 0.930 . S
C3414 C3415 1.367 . S
C3414 C3422 1.378 1_545 S
C3415 C3414 1.367 . S
C3415 C3423 1.433 1_545 S
C3416 H3412 0.929 . S
C3416 C3418 1.378 . S
C3416 C3420 1.350 . S
C3417 C3420 1.463 . S
C3417 C3422 1.350 . S
C3417 N3425 1.427 . S
C3418 H3409 0.930 . S
C3418 C3416 1.378 . S
C3418 C3419 1.367 1_556 S
C3419 C3418 1.367 1_554 S
C3419 C3421 1.433 . S
C3420 C3416 1.350 . S
C3420 C3417 1.463 . S
C3420 N3424 1.427 . S
C3421 H3411 0.929 . S
C3421 C3419 1.433 . S
C3421 N3424 1.384 1_554 S
C3422 H3413 0.929 . S
C3422 C3414 1.378 1_565 S
C3422 C3417 1.350 . S
C3423 H3410 0.929 . S
C3423 C3415 1.433 1_565 S
C3423 N3425 1.384 . S
N3424 C3420 1.427 . S
N3424 C3421 1.384 1_556 S
N3425 C3417 1.427 . S
N3425 C3423 1.384 . S
H3426 C3432 0.930 . S
H3427 C3436 0.930 1_565 S
H3428 C3441 0.929 1_565 S
H3429 C3439 0.929 . S
H3430 C3434 0.929 1_565 S
H3431 C3440 0.929 . S
C3432 H3426 0.930 . S
C3432 C3433 1.367 . S
C3432 C3440 1.378 . S
C3433 C3432 1.367 . S
C3433 C3441 1.433 . S
C3434 H3430 0.929 1_545 S
C3434 C3436 1.378 . S
C3434 C3438 1.350 . S
C3435 C3438 1.463 . S
C3435 C3440 1.350 . S
C3435 N3443 1.427 . S
C3436 H3427 0.930 1_545 S
C3436 C3434 1.378 . S
C3436 C3437 1.367 . S
C3437 C3436 1.367 . S
C3437 C3439 1.433 . S
C3438 C3434 1.350 . S
C3438 C3435 1.463 . S
C3438 N3442 1.427 . S
C3439 H3429 0.929 . S
C3439 C3437 1.433 . S
C3439 N3442 1.384 . S
C3440 H3431 0.929 . S
C3440 C3432 1.378 . S
C3440 C3435 1.350 . S
C3441 H3428 0.929 1_545 S
C3441 C3433 1.433 . S
C3441 N3443 1.384 . S
N3442 C3438 1.427 . S
N3442 C3439 1.384 . S
N3443 C3435 1.427 . S
N3443 C3441 1.384 . S
H3444 C3450 0.930 . S
H3445 C3454 0.930 . S
H3446 C3459 0.929 . S
H3447 C3457 0.929 . S
H3448 C3452 0.929 . S
H3449 C3458 0.929 . S
C3450 H3444 0.930 . S
C3450 C3451 1.367 . S
C3450 C3458 1.378 . S
C3451 C3450 1.367 . S
C3451 C3459 1.433 . S
C3452 H3448 0.929 . S
C3452 C3454 1.378 . S
C3452 C3456 1.350 . S
C3453 C3456 1.463 . S
C3453 C3458 1.350 . S
C3453 N3461 1.427 . S
C3454 H3445 0.930 . S
C3454 C3452 1.378 . S
C3454 C3455 1.367 . S
C3455 C3454 1.367 . S
C3455 C3457 1.433 . S
C3456 C3452 1.350 . S
C3456 C3453 1.463 . S
C3456 N3460 1.427 . S
C3457 H3447 0.929 . S
C3457 C3455 1.433 . S
C3457 N3460 1.384 . S
C3458 H3449 0.929 . S
C3458 C3450 1.378 . S
C3458 C3453 1.350 . S
C3459 H3446 0.929 . S
C3459 C3451 1.433 . S
C3459 N3461 1.384 . S
N3460 C3456 1.427 . S
N3460 C3457 1.384 . S
N3461 C3453 1.427 . S
N3461 C3459 1.384 . S
H3462 C3468 0.930 . S
H3463 C3472 0.930 . S
H3464 C3477 0.929 . S
H3465 C3475 0.929 . S
H3466 C3470 0.929 . S
H3467 C3476 0.929 . S
C3468 H3462 0.930 . S
C3468 C3469 1.367 . S
C3468 C3476 1.378 . S
C3469 C3468 1.367 . S
C3469 C3477 1.433 . S
C3470 H3466 0.929 . S
C3470 C3472 1.378 . S
C3470 C3474 1.350 . S
C3471 C3474 1.463 . S
C3471 C3476 1.350 . S
C3471 N3479 1.427 . S
C3472 H3463 0.930 . S
C3472 C3470 1.378 . S
C3472 C3473 1.367 . S
C3473 C3472 1.367 . S
C3473 C3475 1.433 . S
C3474 C3470 1.350 . S
C3474 C3471 1.463 . S
C3474 N3478 1.427 . S
C3475 H3465 0.929 . S
C3475 C3473 1.433 . S
C3475 N3478 1.384 . S
C3476 H3467 0.929 . S
C3476 C3468 1.378 . S
C3476 C3471 1.350 . S
C3477 H3464 0.929 . S
C3477 C3469 1.433 . S
C3477 N3479 1.384 . S
N3478 C3474 1.427 . S
N3478 C3475 1.384 . S
N3479 C3471 1.427 . S
N3479 C3477 1.384 . S
H3480 C3486 0.930 . S
H3481 C3490 0.930 . S
H3482 C3495 0.929 . S
H3483 C3493 0.929 . S
H3484 C3488 0.929 . S
H3485 C3494 0.929 . S
C3486 H3480 0.930 . S
C3486 C3487 1.367 . S
C3486 C3494 1.378 . S
C3487 C3486 1.367 . S
C3487 C3495 1.433 . S
C3488 H3484 0.929 . S
C3488 C3490 1.378 . S
C3488 C3492 1.350 . S
C3489 C3492 1.463 . S
C3489 C3494 1.350 . S
C3489 N3497 1.427 . S
C3490 H3481 0.930 . S
C3490 C3488 1.378 . S
C3490 C3491 1.367 . S
C3491 C3490 1.367 . S
C3491 C3493 1.433 . S
C3492 C3488 1.350 . S
C3492 C3489 1.463 . S
C3492 N3496 1.427 . S
C3493 H3483 0.929 . S
C3493 C3491 1.433 . S
C3493 N3496 1.384 . S
C3494 H3485 0.929 . S
C3494 C3486 1.378 . S
C3494 C3489 1.350 . S
C3495 H3482 0.929 . S
C3495 C3487 1.433 . S
C3495 N3497 1.384 . S
N3496 C3492 1.427 . S
N3496 C3493 1.384 . S
N3497 C3489 1.427 . S
N3497 C3495 1.384 . S
H3498 C3504 0.930 . S
H3499 C3508 0.930 . S
H3500 C3513 0.929 . S
H3501 C3511 0.929 . S
H3502 C3506 0.929 . S
H3503 C3512 0.929 . S
C3504 H3498 0.930 . S
C3504 C3505 1.367 . S
C3504 C3512 1.378 . S
C3505 C3504 1.367 . S
C3505 C3513 1.433 . S
C3506 H3502 0.929 . S
C3506 C3508 1.378 . S
C3506 C3510 1.350 . S
C3507 C3510 1.463 . S
C3507 C3512 1.350 . S
C3507 N3515 1.427 . S
C3508 H3499 0.930 . S
C3508 C3506 1.378 . S
C3508 C3509 1.367 1_556 S
C3509 C3508 1.367 1_554 S
C3509 C3511 1.433 . S
C3510 C3506 1.350 . S
C3510 C3507 1.463 . S
C3510 N3514 1.427 . S
C3511 H3501 0.929 . S
C3511 C3509 1.433 . S
C3511 N3514 1.384 1_554 S
C3512 H3503 0.929 . S
C3512 C3504 1.378 . S
C3512 C3507 1.350 . S
C3513 H3500 0.929 . S
C3513 C3505 1.433 . S
C3513 N3515 1.384 . S
N3514 C3510 1.427 . S
N3514 C3511 1.384 1_556 S
N3515 C3507 1.427 . S
N3515 C3513 1.384 . S
H3516 C3522 0.930 . S
H3517 C3526 0.930 . S
H3518 C3531 0.929 . S
H3519 C3529 0.929 . S
H3520 C3524 0.929 . S
H3521 C3530 0.929 . S
C3522 H3516 0.930 . S
C3522 C3523 1.367 . S
C3522 C3530 1.378 . S
C3523 C3522 1.367 . S
C3523 C3531 1.433 . S
C3524 H3520 0.929 . S
C3524 C3526 1.378 . S
C3524 C3528 1.350 . S
C3525 C3528 1.463 . S
C3525 C3530 1.350 . S
C3525 N3533 1.427 . S
C3526 H3517 0.930 . S
C3526 C3524 1.378 . S
C3526 C3527 1.367 . S
C3527 C3526 1.367 . S
C3527 C3529 1.433 . S
C3528 C3524 1.350 . S
C3528 C3525 1.463 . S
C3528 N3532 1.427 . S
C3529 H3519 0.929 . S
C3529 C3527 1.433 . S
C3529 N3532 1.384 . S
C3530 H3521 0.929 . S
C3530 C3522 1.378 . S
C3530 C3525 1.350 . S
C3531 H3518 0.929 . S
C3531 C3523 1.433 . S
C3531 N3533 1.384 . S
N3532 C3528 1.427 . S
N3532 C3529 1.384 . S
N3533 C3525 1.427 . S
N3533 C3531 1.384 . S
H3534 C3540 0.930 . S
H3535 C3544 0.930 . S
H3536 C3549 0.929 . S
H3537 C3547 0.929 . S
H3538 C3542 0.929 . S
H3539 C3548 0.929 . S
C3540 H3534 0.930 . S
C3540 C3541 1.367 . S
C3540 C3548 1.378 . S
C3541 C3540 1.367 . S
C3541 C3549 1.433 . S
C3542 H3538 0.929 . S
C3542 C3544 1.378 . S
C3542 C3546 1.350 . S
C3543 C3546 1.463 . S
C3543 C3548 1.350 . S
C3543 N3551 1.427 . S
C3544 H3535 0.930 . S
C3544 C3542 1.378 . S
C3544 C3545 1.367 . S
C3545 C3544 1.367 . S
C3545 C3547 1.433 . S
C3546 C3542 1.350 . S
C3546 C3543 1.463 . S
C3546 N3550 1.427 . S
C3547 H3537 0.929 . S
C3547 C3545 1.433 . S
C3547 N3550 1.384 . S
C3548 H3539 0.929 . S
C3548 C3540 1.378 . S
C3548 C3543 1.350 . S
C3549 H3536 0.929 . S
C3549 C3541 1.433 . S
C3549 N3551 1.384 . S
N3550 C3546 1.427 . S
N3550 C3547 1.384 . S
N3551 C3543 1.427 . S
N3551 C3549 1.384 . S
H3552 C3558 0.892 1_556 S
H3553 C3562 0.930 . S
H3554 C3567 0.929 . S
H3555 C3565 0.879 1_556 S
H3556 C3560 0.929 . S
H3557 C3566 0.891 1_556 S
C3558 H3552 0.892 1_554 S
C3558 C3559 1.367 . S
C3558 C3566 1.378 . S
C3559 C3558 1.367 . S
C3559 C3567 1.433 . S
C3560 H3556 0.929 . S
C3560 C3562 1.378 . S
C3560 C3564 1.350 . S
C3561 C3564 1.463 . S
C3561 C3566 1.350 . S
C3561 N3569 1.427 . S
C3562 H3553 0.930 . S
C3562 C3560 1.378 . S
C3562 C3563 1.367 . S
C3563 C3562 1.367 . S
C3563 C3565 1.433 . S
C3564 C3560 1.350 . S
C3564 C3561 1.463 . S
C3564 N3568 1.427 . S
C3565 H3555 0.879 1_554 S
C3565 C3563 1.433 . S
C3565 N3568 1.384 . S
C3566 H3557 0.891 1_554 S
C3566 C3558 1.378 . S
C3566 C3561 1.350 . S
C3567 H3554 0.929 . S
C3567 C3559 1.433 . S
C3567 N3569 1.384 . S
N3568 C3564 1.427 . S
N3568 C3565 1.384 . S
N3569 C3561 1.427 . S
N3569 C3567 1.384 . S
H3570 C3576 0.930 . S
H3571 C3580 0.930 . S
H3572 C3585 0.929 . S
H3573 C3583 0.929 . S
H3574 C3578 0.929 . S
H3575 C3584 0.929 . S
C3576 H3570 0.930 . S
C3576 C3577 1.367 . S
C3576 C3584 1.378 . S
C3577 C3576 1.367 . S
C3577 C3585 1.433 . S
C3578 H3574 0.929 . S
C3578 C3580 1.378 . S
C3578 C3582 1.350 . S
C3579 C3582 1.463 . S
C3579 C3584 1.350 . S
C3579 N3587 1.427 . S
C3580 H3571 0.930 . S
C3580 C3578 1.378 . S
C3580 C3581 1.367 1_565 S
C3581 C3580 1.367 1_545 S
C3581 C3583 1.433 . S
C3582 C3578 1.350 . S
C3582 C3579 1.463 . S
C3582 N3586 1.427 . S
C3583 H3573 0.929 . S
C3583 C3581 1.433 . S
C3583 N3586 1.384 1_545 S
C3584 H3575 0.929 . S
C3584 C3576 1.378 . S
C3584 C3579 1.350 . S
C3585 H3572 0.929 . S
C3585 C3577 1.433 . S
C3585 N3587 1.384 . S
N3586 C3582 1.427 . S
N3586 C3583 1.384 1_565 S
N3587 C3579 1.427 . S
N3587 C3585 1.384 . S
H3588 C3594 0.930 . S
H3589 C3598 0.930 . S
H3590 C3603 0.929 . S
H3591 C3601 0.929 . S
H3592 C3596 0.929 . S
H3593 C3602 0.929 . S
C3594 H3588 0.930 . S
C3594 C3595 1.367 . S
C3594 C3602 1.378 . S
C3595 C3594 1.367 . S
C3595 C3603 1.433 . S
C3596 H3592 0.929 . S
C3596 C3598 1.378 . S
C3596 C3600 1.350 . S
C3597 C3600 1.463 . S
C3597 C3602 1.350 . S
C3597 N3605 1.427 . S
C3598 H3589 0.930 . S
C3598 C3596 1.378 . S
C3598 C3599 1.367 . S
C3599 C3598 1.367 . S
C3599 C3601 1.433 . S
C3600 C3596 1.350 . S
C3600 C3597 1.463 . S
C3600 N3604 1.427 . S
C3601 H3591 0.929 . S
C3601 C3599 1.433 . S
C3601 N3604 1.384 . S
C3602 H3593 0.929 . S
C3602 C3594 1.378 . S
C3602 C3597 1.350 . S
C3603 H3590 0.929 . S
C3603 C3595 1.433 . S
C3603 N3605 1.384 . S
N3604 C3600 1.427 . S
N3604 C3601 1.384 . S
N3605 C3597 1.427 . S
N3605 C3603 1.384 . S
H3606 C3612 0.930 . S
H3607 C3616 0.930 . S
H3608 C3621 0.929 . S
H3609 C3619 0.929 . S
H3610 C3614 0.929 . S
H3611 C3620 0.929 . S
C3612 H3606 0.930 . S
C3612 C3613 1.367 . S
C3612 C3620 1.378 . S
C3613 C3612 1.367 . S
C3613 C3621 1.433 . S
C3614 H3610 0.929 . S
C3614 C3616 1.378 . S
C3614 C3618 1.350 . S
C3615 C3618 1.463 . S
C3615 C3620 1.350 . S
C3615 N3623 1.427 . S
C3616 H3607 0.930 . S
C3616 C3614 1.378 . S
C3616 C3617 1.367 . S
C3617 C3616 1.367 . S
C3617 C3619 1.433 . S
C3618 C3614 1.350 . S
C3618 C3615 1.463 . S
C3618 N3622 1.427 . S
C3619 H3609 0.929 . S
C3619 C3617 1.433 . S
C3619 N3622 1.384 . S
C3620 H3611 0.929 . S
C3620 C3612 1.378 . S
C3620 C3615 1.350 . S
C3621 H3608 0.929 . S
C3621 C3613 1.433 . S
C3621 N3623 1.384 . S
N3622 C3618 1.427 . S
N3622 C3619 1.384 . S
N3623 C3615 1.427 . S
N3623 C3621 1.384 . S
H3624 C3630 0.930 . S
H3625 C3634 0.930 . S
H3626 C3639 0.929 . S
H3627 C3637 0.929 . S
H3628 C3632 0.929 . S
H3629 C3638 0.929 . S
C3630 H3624 0.930 . S
C3630 C3631 1.367 . S
C3630 C3638 1.378 . S
C3631 C3630 1.367 . S
C3631 C3639 1.433 . S
C3632 H3628 0.929 . S
C3632 C3634 1.378 . S
C3632 C3636 1.350 . S
C3633 C3636 1.463 . S
C3633 C3638 1.350 . S
C3633 N3641 1.427 . S
C3634 H3625 0.930 . S
C3634 C3632 1.378 . S
C3634 C3635 1.367 . S
C3635 C3634 1.367 . S
C3635 C3637 1.433 . S
C3636 C3632 1.350 . S
C3636 C3633 1.463 . S
C3636 N3640 1.427 . S
C3637 H3627 0.929 . S
C3637 C3635 1.433 . S
C3637 N3640 1.384 . S
C3638 H3629 0.929 . S
C3638 C3630 1.378 . S
C3638 C3633 1.350 . S
C3639 H3626 0.929 . S
C3639 C3631 1.433 . S
C3639 N3641 1.384 . S
N3640 C3636 1.427 . S
N3640 C3637 1.384 . S
N3641 C3633 1.427 . S
N3641 C3639 1.384 . S
H3642 C3648 0.930 . S
H3643 C3652 0.930 . S
H3644 C3657 0.929 . S
H3645 C3655 0.929 . S
H3646 C3650 0.929 . S
H3647 C3656 0.929 . S
C3648 H3642 0.930 . S
C3648 C3649 1.367 . S
C3648 C3656 1.378 . S
C3649 C3648 1.367 . S
C3649 C3657 1.433 . S
C3650 H3646 0.929 . S
C3650 C3652 1.378 . S
C3650 C3654 1.350 . S
C3651 C3654 1.463 . S
C3651 C3656 1.350 . S
C3651 N3659 1.427 . S
C3652 H3643 0.930 . S
C3652 C3650 1.378 . S
C3652 C3653 1.367 . S
C3653 C3652 1.367 . S
C3653 C3655 1.433 . S
C3654 C3650 1.350 . S
C3654 C3651 1.463 . S
C3654 N3658 1.427 . S
C3655 H3645 0.929 . S
C3655 C3653 1.433 . S
C3655 N3658 1.384 . S
C3656 H3647 0.929 . S
C3656 C3648 1.378 . S
C3656 C3651 1.350 . S
C3657 H3644 0.929 . S
C3657 C3649 1.433 . S
C3657 N3659 1.384 . S
N3658 C3654 1.427 . S
N3658 C3655 1.384 . S
N3659 C3651 1.427 . S
N3659 C3657 1.384 . S
H3660 C3666 0.930 . S
H3661 C3670 0.930 . S
H3662 C3675 0.929 . S
H3663 C3673 0.929 . S
H3664 C3668 0.929 . S
H3665 C3674 0.929 . S
C3666 H3660 0.930 . S
C3666 C3667 1.367 . S
C3666 C3674 1.378 . S
C3667 C3666 1.367 . S
C3667 C3675 1.433 . S
C3668 H3664 0.929 . S
C3668 C3670 1.378 . S
C3668 C3672 1.350 . S
C3669 C3672 1.463 . S
C3669 C3674 1.350 . S
C3669 N3677 1.427 . S
C3670 H3661 0.930 . S
C3670 C3668 1.378 . S
C3670 C3671 1.367 . S
C3671 C3670 1.367 . S
C3671 C3673 1.433 . S
C3672 C3668 1.350 . S
C3672 C3669 1.463 . S
C3672 N3676 1.427 . S
C3673 H3663 0.929 . S
C3673 C3671 1.433 . S
C3673 N3676 1.384 . S
C3674 H3665 0.929 . S
C3674 C3666 1.378 . S
C3674 C3669 1.350 . S
C3675 H3662 0.929 . S
C3675 C3667 1.433 . S
C3675 N3677 1.384 . S
N3676 C3672 1.427 . S
N3676 C3673 1.384 . S
N3677 C3669 1.427 . S
N3677 C3675 1.384 . S
H3678 C3684 0.930 . S
H3679 C3688 0.930 . S
H3680 C3693 0.929 . S
H3681 C3691 0.929 . S
H3682 C3686 0.929 . S
H3683 C3692 0.929 . S
C3684 H3678 0.930 . S
C3684 C3685 1.367 . S
C3684 C3692 1.378 . S
C3685 C3684 1.367 . S
C3685 C3693 1.433 . S
C3686 H3682 0.929 . S
C3686 C3688 1.378 . S
C3686 C3690 1.350 . S
C3687 C3690 1.463 . S
C3687 C3692 1.350 . S
C3687 N3695 1.427 . S
C3688 H3679 0.930 . S
C3688 C3686 1.378 . S
C3688 C3689 1.367 . S
C3689 C3688 1.367 . S
C3689 C3691 1.433 . S
C3690 C3686 1.350 . S
C3690 C3687 1.463 . S
C3690 N3694 1.427 . S
C3691 H3681 0.929 . S
C3691 C3689 1.433 . S
C3691 N3694 1.384 . S
C3692 H3683 0.929 . S
C3692 C3684 1.378 . S
C3692 C3687 1.350 . S
C3693 H3680 0.929 . S
C3693 C3685 1.433 . S
C3693 N3695 1.384 . S
N3694 C3690 1.427 . S
N3694 C3691 1.384 . S
N3695 C3687 1.427 . S
N3695 C3693 1.384 . S
H3696 C3702 0.930 . S
H3697 C3706 0.930 . S
H3698 C3711 0.929 . S
H3699 C3709 0.929 . S
H3700 C3704 0.929 . S
H3701 C3710 0.929 . S
C3702 H3696 0.930 . S
C3702 C3703 1.367 . S
C3702 C3710 1.378 . S
C3703 C3702 1.367 . S
C3703 C3711 1.433 . S
C3704 H3700 0.929 . S
C3704 C3706 1.378 . S
C3704 C3708 1.350 . S
C3705 C3708 1.463 . S
C3705 C3710 1.350 . S
C3705 N3713 1.427 . S
C3706 H3697 0.930 . S
C3706 C3704 1.378 . S
C3706 C3707 1.367 . S
C3707 C3706 1.367 . S
C3707 C3709 1.433 . S
C3708 C3704 1.350 . S
C3708 C3705 1.463 . S
C3708 N3712 1.427 . S
C3709 H3699 0.929 . S
C3709 C3707 1.433 . S
C3709 N3712 1.384 . S
C3710 H3701 0.929 . S
C3710 C3702 1.378 . S
C3710 C3705 1.350 . S
C3711 H3698 0.929 . S
C3711 C3703 1.433 . S
C3711 N3713 1.384 . S
N3712 C3708 1.427 . S
N3712 C3709 1.384 . S
N3713 C3705 1.427 . S
N3713 C3711 1.384 . S
H3714 C3720 0.930 . S
H3715 C3724 0.930 . S
H3716 C3729 0.929 . S
H3717 C3727 0.929 . S
H3718 C3722 0.929 . S
H3719 C3728 0.929 . S
C3720 H3714 0.930 . S
C3720 C3721 1.367 . S
C3720 C3728 1.378 . S
C3721 C3720 1.367 . S
C3721 C3729 1.433 . S
C3722 H3718 0.929 . S
C3722 C3724 1.378 . S
C3722 C3726 1.350 . S
C3723 C3726 1.463 . S
C3723 C3728 1.350 . S
C3723 N3731 1.427 . S
C3724 H3715 0.930 . S
C3724 C3722 1.378 . S
C3724 C3725 1.367 . S
C3725 C3724 1.367 . S
C3725 C3727 1.433 . S
C3726 C3722 1.350 . S
C3726 C3723 1.463 . S
C3726 N3730 1.427 . S
C3727 H3717 0.929 . S
C3727 C3725 1.433 . S
C3727 N3730 1.384 . S
C3728 H3719 0.929 . S
C3728 C3720 1.378 . S
C3728 C3723 1.350 . S
C3729 H3716 0.929 . S
C3729 C3721 1.433 . S
C3729 N3731 1.384 . S
N3730 C3726 1.427 . S
N3730 C3727 1.384 . S
N3731 C3723 1.427 . S
N3731 C3729 1.384 . S
H3732 C3738 0.930 . S
H3733 C3742 0.930 . S
H3734 C3747 0.929 . S
H3735 C3745 0.929 . S
H3736 C3740 0.929 . S
H3737 C3746 0.929 . S
C3738 H3732 0.930 . S
C3738 C3739 1.367 . S
C3738 C3746 1.378 . S
C3739 C3738 1.367 . S
C3739 C3747 1.433 . S
C3740 H3736 0.929 . S
C3740 C3742 1.378 . S
C3740 C3744 1.350 . S
C3741 C3744 1.463 . S
C3741 C3746 1.350 . S
C3741 N3749 1.427 . S
C3742 H3733 0.930 . S
C3742 C3740 1.378 . S
C3742 C3743 1.367 . S
C3743 C3742 1.367 . S
C3743 C3745 1.433 . S
C3744 C3740 1.350 . S
C3744 C3741 1.463 . S
C3744 N3748 1.427 . S
C3745 H3735 0.929 . S
C3745 C3743 1.433 . S
C3745 N3748 1.384 . S
C3746 H3737 0.929 . S
C3746 C3738 1.378 . S
C3746 C3741 1.350 . S
C3747 H3734 0.929 . S
C3747 C3739 1.433 . S
C3747 N3749 1.384 . S
N3748 C3744 1.427 . S
N3748 C3745 1.384 . S
N3749 C3741 1.427 . S
N3749 C3747 1.384 . S
H3750 C3756 0.930 . S
H3751 C3760 0.930 . S
H3752 C3765 0.929 . S
H3753 C3763 0.929 . S
H3754 C3758 0.929 . S
H3755 C3764 0.929 . S
C3756 H3750 0.930 . S
C3756 C3757 1.367 . S
C3756 C3764 1.378 . S
C3757 C3756 1.367 . S
C3757 C3765 1.433 . S
C3758 H3754 0.929 . S
C3758 C3760 1.378 . S
C3758 C3762 1.350 . S
C3759 C3762 1.463 . S
C3759 C3764 1.350 . S
C3759 N3767 1.427 . S
C3760 H3751 0.930 . S
C3760 C3758 1.378 . S
C3760 C3761 1.367 . S
C3761 C3760 1.367 . S
C3761 C3763 1.433 . S
C3762 C3758 1.350 . S
C3762 C3759 1.463 . S
C3762 N3766 1.427 . S
C3763 H3753 0.929 . S
C3763 C3761 1.433 . S
C3763 N3766 1.384 . S
C3764 H3755 0.929 . S
C3764 C3756 1.378 . S
C3764 C3759 1.350 . S
C3765 H3752 0.929 . S
C3765 C3757 1.433 . S
C3765 N3767 1.384 . S
N3766 C3762 1.427 . S
N3766 C3763 1.384 . S
N3767 C3759 1.427 . S
N3767 C3765 1.384 . S
H3768 C3774 0.930 . S
H3769 C3778 0.930 . S
H3770 C3783 0.929 . S
H3771 C3781 0.929 . S
H3772 C3776 0.929 . S
H3773 C3782 0.929 . S
C3774 H3768 0.930 . S
C3774 C3775 1.367 . S
C3774 C3782 1.378 . S
C3775 C3774 1.367 . S
C3775 C3783 1.433 . S
C3776 H3772 0.929 . S
C3776 C3778 1.378 . S
C3776 C3780 1.350 . S
C3777 C3780 1.463 . S
C3777 C3782 1.350 . S
C3777 N3785 1.427 . S
C3778 H3769 0.930 . S
C3778 C3776 1.378 . S
C3778 C3779 1.367 . S
C3779 C3778 1.367 . S
C3779 C3781 1.433 . S
C3780 C3776 1.350 . S
C3780 C3777 1.463 . S
C3780 N3784 1.427 . S
C3781 H3771 0.929 . S
C3781 C3779 1.433 . S
C3781 N3784 1.384 . S
C3782 H3773 0.929 . S
C3782 C3774 1.378 . S
C3782 C3777 1.350 . S
C3783 H3770 0.929 . S
C3783 C3775 1.433 . S
C3783 N3785 1.384 . S
N3784 C3780 1.427 . S
N3784 C3781 1.384 . S
N3785 C3777 1.427 . S
N3785 C3783 1.384 . S
H3786 C3792 0.930 . S
H3787 C3796 0.930 . S
H3788 C3801 0.929 . S
H3789 C3799 0.929 . S
H3790 C3794 0.929 . S
H3791 C3800 0.929 . S
C3792 H3786 0.930 . S
C3792 C3793 1.367 . S
C3792 C3800 1.378 . S
C3793 C3792 1.367 . S
C3793 C3801 1.433 . S
C3794 H3790 0.929 . S
C3794 C3796 1.378 . S
C3794 C3798 1.350 . S
C3795 C3798 1.463 . S
C3795 C3800 1.350 . S
C3795 N3803 1.427 . S
C3796 H3787 0.930 . S
C3796 C3794 1.378 . S
C3796 C3797 1.367 . S
C3797 C3796 1.367 . S
C3797 C3799 1.433 . S
C3798 C3794 1.350 . S
C3798 C3795 1.463 . S
C3798 N3802 1.427 . S
C3799 H3789 0.929 . S
C3799 C3797 1.433 . S
C3799 N3802 1.384 . S
C3800 H3791 0.929 . S
C3800 C3792 1.378 . S
C3800 C3795 1.350 . S
C3801 H3788 0.929 . S
C3801 C3793 1.433 . S
C3801 N3803 1.384 . S
N3802 C3798 1.427 . S
N3802 C3799 1.384 . S
N3803 C3795 1.427 . S
N3803 C3801 1.384 . S
H3804 C3810 0.930 . S
H3805 C3814 0.930 . S
H3806 C3819 0.929 . S
H3807 C3817 0.929 . S
H3808 C3812 0.929 . S
H3809 C3818 0.929 . S
C3810 H3804 0.930 . S
C3810 C3811 1.367 . S
C3810 C3818 1.378 . S
C3811 C3810 1.367 . S
C3811 C3819 1.433 . S
C3812 H3808 0.929 . S
C3812 C3814 1.378 . S
C3812 C3816 1.350 . S
C3813 C3816 1.463 . S
C3813 C3818 1.350 . S
C3813 N3821 1.427 . S
C3814 H3805 0.930 . S
C3814 C3812 1.378 . S
C3814 C3815 1.367 . S
C3815 C3814 1.367 . S
C3815 C3817 1.433 . S
C3816 C3812 1.350 . S
C3816 C3813 1.463 . S
C3816 N3820 1.427 . S
C3817 H3807 0.929 . S
C3817 C3815 1.433 . S
C3817 N3820 1.384 . S
C3818 H3809 0.929 . S
C3818 C3810 1.378 . S
C3818 C3813 1.350 . S
C3819 H3806 0.929 . S
C3819 C3811 1.433 . S
C3819 N3821 1.384 . S
N3820 C3816 1.427 . S
N3820 C3817 1.384 . S
N3821 C3813 1.427 . S
N3821 C3819 1.384 . S
H3822 C3828 0.930 . S
H3823 C3832 0.930 . S
H3824 C3837 0.929 . S
H3825 C3835 0.929 . S
H3826 C3830 0.929 . S
H3827 C3836 0.929 . S
C3828 H3822 0.930 . S
C3828 C3829 1.367 . S
C3828 C3836 1.378 . S
C3829 C3828 1.367 . S
C3829 C3837 1.433 . S
C3830 H3826 0.929 . S
C3830 C3832 1.378 . S
C3830 C3834 1.350 . S
C3831 C3834 1.463 . S
C3831 C3836 1.350 . S
C3831 N3839 1.427 . S
C3832 H3823 0.930 . S
C3832 C3830 1.378 . S
C3832 C3833 1.367 . S
C3833 C3832 1.367 . S
C3833 C3835 1.433 . S
C3834 C3830 1.350 . S
C3834 C3831 1.463 . S
C3834 N3838 1.427 . S
C3835 H3825 0.929 . S
C3835 C3833 1.433 . S
C3835 N3838 1.384 . S
C3836 H3827 0.929 . S
C3836 C3828 1.378 . S
C3836 C3831 1.350 . S
C3837 H3824 0.929 . S
C3837 C3829 1.433 . S
C3837 N3839 1.384 . S
N3838 C3834 1.427 . S
N3838 C3835 1.384 . S
N3839 C3831 1.427 . S
N3839 C3837 1.384 . S
H3840 C3846 0.930 . S
H3841 C3850 0.930 . S
H3842 C3855 0.929 . S
H3843 C3853 0.929 . S
H3844 C3848 0.929 . S
H3845 C3854 0.929 . S
C3846 H3840 0.930 . S
C3846 C3847 1.367 . S
C3846 C3854 1.378 . S
C3847 C3846 1.367 . S
C3847 C3855 1.433 . S
C3848 H3844 0.929 . S
C3848 C3850 1.378 . S
C3848 C3852 1.350 . S
C3849 C3852 1.463 . S
C3849 C3854 1.350 . S
C3849 N3857 1.427 . S
C3850 H3841 0.930 . S
C3850 C3848 1.378 . S
C3850 C3851 1.367 . S
C3851 C3850 1.367 . S
C3851 C3853 1.433 . S
C3852 C3848 1.350 . S
C3852 C3849 1.463 . S
C3852 N3856 1.427 . S
C3853 H3843 0.929 . S
C3853 C3851 1.433 . S
C3853 N3856 1.384 . S
C3854 H3845 0.929 . S
C3854 C3846 1.378 . S
C3854 C3849 1.350 . S
C3855 H3842 0.929 . S
C3855 C3847 1.433 . S
C3855 N3857 1.384 . S
N3856 C3852 1.427 . S
N3856 C3853 1.384 . S
N3857 C3849 1.427 . S
N3857 C3855 1.384 . S
H3858 C3864 0.930 . S
H3859 C3868 0.930 . S
H3860 C3873 0.929 . S
H3861 C3871 0.929 . S
H3862 C3866 0.929 . S
H3863 C3872 0.929 . S
C3864 H3858 0.930 . S
C3864 C3865 1.367 . S
C3864 C3872 1.378 . S
C3865 C3864 1.367 . S
C3865 C3873 1.433 . S
C3866 H3862 0.929 . S
C3866 C3868 1.378 . S
C3866 C3870 1.350 . S
C3867 C3870 1.463 . S
C3867 C3872 1.350 . S
C3867 N3875 1.427 . S
C3868 H3859 0.930 . S
C3868 C3866 1.378 . S
C3868 C3869 1.367 . S
C3869 C3868 1.367 . S
C3869 C3871 1.433 . S
C3870 C3866 1.350 . S
C3870 C3867 1.463 . S
C3870 N3874 1.427 . S
C3871 H3861 0.929 . S
C3871 C3869 1.433 . S
C3871 N3874 1.384 . S
C3872 H3863 0.929 . S
C3872 C3864 1.378 . S
C3872 C3867 1.350 . S
C3873 H3860 0.929 . S
C3873 C3865 1.433 . S
C3873 N3875 1.384 . S
N3874 C3870 1.427 . S
N3874 C3871 1.384 . S
N3875 C3867 1.427 . S
N3875 C3873 1.384 . S
H3876 C3882 0.930 . S
H3877 C3886 0.930 . S
H3878 C3891 0.929 . S
H3879 C3889 0.929 . S
H3880 C3884 0.929 . S
H3881 C3890 0.929 . S
C3882 H3876 0.930 . S
C3882 C3883 1.367 . S
C3882 C3890 1.378 . S
C3883 C3882 1.367 . S
C3883 C3891 1.433 . S
C3884 H3880 0.929 . S
C3884 C3886 1.378 . S
C3884 C3888 1.350 . S
C3885 C3888 1.463 . S
C3885 C3890 1.350 . S
C3885 N3893 1.427 . S
C3886 H3877 0.930 . S
C3886 C3884 1.378 . S
C3886 C3887 1.367 . S
C3887 C3886 1.367 . S
C3887 C3889 1.433 . S
C3888 C3884 1.350 . S
C3888 C3885 1.463 . S
C3888 N3892 1.427 . S
C3889 H3879 0.929 . S
C3889 C3887 1.433 . S
C3889 N3892 1.384 . S
C3890 H3881 0.929 . S
C3890 C3882 1.378 . S
C3890 C3885 1.350 . S
C3891 H3878 0.929 . S
C3891 C3883 1.433 . S
C3891 N3893 1.384 . S
N3892 C3888 1.427 . S
N3892 C3889 1.384 . S
N3893 C3885 1.427 . S
N3893 C3891 1.384 . S
H3894 C3900 0.930 . S
H3895 C3904 0.930 . S
H3896 C3909 0.929 . S
H3897 C3907 0.929 . S
H3898 C3902 0.929 . S
H3899 C3908 0.929 . S
C3900 H3894 0.930 . S
C3900 C3901 1.367 . S
C3900 C3908 1.378 . S
C3901 C3900 1.367 . S
C3901 C3909 1.433 . S
C3902 H3898 0.929 . S
C3902 C3904 1.378 . S
C3902 C3906 1.350 . S
C3903 C3906 1.463 . S
C3903 C3908 1.350 . S
C3903 N3911 1.427 . S
C3904 H3895 0.930 . S
C3904 C3902 1.378 . S
C3904 C3905 1.367 . S
C3905 C3904 1.367 . S
C3905 C3907 1.433 . S
C3906 C3902 1.350 . S
C3906 C3903 1.463 . S
C3906 N3910 1.427 . S
C3907 H3897 0.929 . S
C3907 C3905 1.433 . S
C3907 N3910 1.384 . S
C3908 H3899 0.929 . S
C3908 C3900 1.378 . S
C3908 C3903 1.350 . S
C3909 H3896 0.929 . S
C3909 C3901 1.433 . S
C3909 N3911 1.384 . S
N3910 C3906 1.427 . S
N3910 C3907 1.384 . S
N3911 C3903 1.427 . S
N3911 C3909 1.384 . S
H3912 C3918 0.930 . S
H3913 C3922 0.930 . S
H3914 C3927 0.929 . S
H3915 C3925 0.929 . S
H3916 C3920 0.929 . S
H3917 C3926 0.929 . S
C3918 H3912 0.930 . S
C3918 C3919 1.367 . S
C3918 C3926 1.378 . S
C3919 C3918 1.367 . S
C3919 C3927 1.433 . S
C3920 H3916 0.929 . S
C3920 C3922 1.378 . S
C3920 C3924 1.350 . S
C3921 C3924 1.463 . S
C3921 C3926 1.350 . S
C3921 N3929 1.427 . S
C3922 H3913 0.930 . S
C3922 C3920 1.378 . S
C3922 C3923 1.367 . S
C3923 C3922 1.367 . S
C3923 C3925 1.433 . S
C3924 C3920 1.350 . S
C3924 C3921 1.463 . S
C3924 N3928 1.427 . S
C3925 H3915 0.929 . S
C3925 C3923 1.433 . S
C3925 N3928 1.384 . S
C3926 H3917 0.929 . S
C3926 C3918 1.378 . S
C3926 C3921 1.350 . S
C3927 H3914 0.929 . S
C3927 C3919 1.433 . S
C3927 N3929 1.384 . S
N3928 C3924 1.427 . S
N3928 C3925 1.384 . S
N3929 C3921 1.427 . S
N3929 C3927 1.384 . S
H3930 C3936 0.930 . S
H3931 C3940 0.930 . S
H3932 C3945 0.929 . S
H3933 C3943 0.929 . S
H3934 C3938 0.929 . S
H3935 C3944 0.929 . S
C3936 H3930 0.930 . S
C3936 C3937 1.367 . S
C3936 C3944 1.378 . S
C3937 C3936 1.367 . S
C3937 C3945 1.433 . S
C3938 H3934 0.929 . S
C3938 C3940 1.378 . S
C3938 C3942 1.350 . S
C3939 C3942 1.463 . S
C3939 C3944 1.350 . S
C3939 N3947 1.427 . S
C3940 H3931 0.930 . S
C3940 C3938 1.378 . S
C3940 C3941 1.367 . S
C3941 C3940 1.367 . S
C3941 C3943 1.433 . S
C3942 C3938 1.350 . S
C3942 C3939 1.463 . S
C3942 N3946 1.427 . S
C3943 H3933 0.929 . S
C3943 C3941 1.433 . S
C3943 N3946 1.384 . S
C3944 H3935 0.929 . S
C3944 C3936 1.378 . S
C3944 C3939 1.350 . S
C3945 H3932 0.929 . S
C3945 C3937 1.433 . S
C3945 N3947 1.384 . S
N3946 C3942 1.427 . S
N3946 C3943 1.384 . S
N3947 C3939 1.427 . S
N3947 C3945 1.384 . S
H3948 C3954 0.930 . S
H3949 C3958 0.930 . S
H3950 C3963 0.929 . S
H3951 C3961 0.929 . S
H3952 C3956 0.929 . S
H3953 C3962 0.929 . S
C3954 H3948 0.930 . S
C3954 C3955 1.367 . S
C3954 C3962 1.378 . S
C3955 C3954 1.367 . S
C3955 C3963 1.433 . S
C3956 H3952 0.929 . S
C3956 C3958 1.378 . S
C3956 C3960 1.350 . S
C3957 C3960 1.463 . S
C3957 C3962 1.350 . S
C3957 N3965 1.427 . S
C3958 H3949 0.930 . S
C3958 C3956 1.378 . S
C3958 C3959 1.367 . S
C3959 C3958 1.367 . S
C3959 C3961 1.433 . S
C3960 C3956 1.350 . S
C3960 C3957 1.463 . S
C3960 N3964 1.427 . S
C3961 H3951 0.929 . S
C3961 C3959 1.433 . S
C3961 N3964 1.384 . S
C3962 H3953 0.929 . S
C3962 C3954 1.378 . S
C3962 C3957 1.350 . S
C3963 H3950 0.929 . S
C3963 C3955 1.433 . S
C3963 N3965 1.384 . S
N3964 C3960 1.427 . S
N3964 C3961 1.384 . S
N3965 C3957 1.427 . S
N3965 C3963 1.384 . S
H3966 C3972 0.930 . S
H3967 C3976 0.930 . S
H3968 C3981 0.929 . S
H3969 C3979 0.929 . S
H3970 C3974 0.929 . S
H3971 C3980 0.929 . S
C3972 H3966 0.930 . S
C3972 C3973 1.367 . S
C3972 C3980 1.378 . S
C3973 C3972 1.367 . S
C3973 C3981 1.433 . S
C3974 H3970 0.929 . S
C3974 C3976 1.378 . S
C3974 C3978 1.350 . S
C3975 C3978 1.463 . S
C3975 C3980 1.350 . S
C3975 N3983 1.427 . S
C3976 H3967 0.930 . S
C3976 C3974 1.378 . S
C3976 C3977 1.367 . S
C3977 C3976 1.367 . S
C3977 C3979 1.433 . S
C3978 C3974 1.350 . S
C3978 C3975 1.463 . S
C3978 N3982 1.427 . S
C3979 H3969 0.929 . S
C3979 C3977 1.433 . S
C3979 N3982 1.384 . S
C3980 H3971 0.929 . S
C3980 C3972 1.378 . S
C3980 C3975 1.350 . S
C3981 H3968 0.929 . S
C3981 C3973 1.433 . S
C3981 N3983 1.384 . S
N3982 C3978 1.427 . S
N3982 C3979 1.384 . S
N3983 C3975 1.427 . S
N3983 C3981 1.384 . S
H3984 C3990 0.930 . S
H3985 C3994 0.930 . S
H3986 C3999 0.929 . S
H3987 C3997 0.929 . S
H3988 C3992 0.929 . S
H3989 C3998 0.929 . S
C3990 H3984 0.930 . S
C3990 C3991 1.367 . S
C3990 C3998 1.378 . S
C3991 C3990 1.367 . S
C3991 C3999 1.433 . S
C3992 H3988 0.929 . S
C3992 C3994 1.378 . S
C3992 C3996 1.350 . S
C3993 C3996 1.463 . S
C3993 C3998 1.350 . S
C3993 N4001 1.427 . S
C3994 H3985 0.930 . S
C3994 C3992 1.378 . S
C3994 C3995 1.367 . S
C3995 C3994 1.367 . S
C3995 C3997 1.433 . S
C3996 C3992 1.350 . S
C3996 C3993 1.463 . S
C3996 N4000 1.427 . S
C3997 H3987 0.929 . S
C3997 C3995 1.433 . S
C3997 N4000 1.384 . S
C3998 H3989 0.929 . S
C3998 C3990 1.378 . S
C3998 C3993 1.350 . S
C3999 H3986 0.929 . S
C3999 C3991 1.433 . S
C3999 N4001 1.384 . S
N4000 C3996 1.427 . S
N4000 C3997 1.384 . S
N4001 C3993 1.427 . S
N4001 C3999 1.384 . S
H4002 C4008 0.930 . S
H4003 C4012 0.930 . S
H4004 C4017 0.929 . S
H4005 C4015 0.929 . S
H4006 C4010 0.929 . S
H4007 C4016 0.929 . S
C4008 H4002 0.930 . S
C4008 C4009 1.367 . S
C4008 C4016 1.378 . S
C4009 C4008 1.367 . S
C4009 C4017 1.433 . S
C4010 H4006 0.929 . S
C4010 C4012 1.378 . S
C4010 C4014 1.350 . S
C4011 C4014 1.463 . S
C4011 C4016 1.350 . S
C4011 N4019 1.427 . S
C4012 H4003 0.930 . S
C4012 C4010 1.378 . S
C4012 C4013 1.367 . S
C4013 C4012 1.367 . S
C4013 C4015 1.433 . S
C4014 C4010 1.350 . S
C4014 C4011 1.463 . S
C4014 N4018 1.427 . S
C4015 H4005 0.929 . S
C4015 C4013 1.433 . S
C4015 N4018 1.384 . S
C4016 H4007 0.929 . S
C4016 C4008 1.378 . S
C4016 C4011 1.350 . S
C4017 H4004 0.929 . S
C4017 C4009 1.433 . S
C4017 N4019 1.384 . S
N4018 C4014 1.427 . S
N4018 C4015 1.384 . S
N4019 C4011 1.427 . S
N4019 C4017 1.384 . S
H4020 C4026 0.930 . S
H4021 C4030 0.930 . S
H4022 C4035 0.929 . S
H4023 C4033 0.929 . S
H4024 C4028 0.929 . S
H4025 C4034 0.929 . S
C4026 H4020 0.930 . S
C4026 C4027 1.367 . S
C4026 C4034 1.378 . S
C4027 C4026 1.367 . S
C4027 C4035 1.433 . S
C4028 H4024 0.929 . S
C4028 C4030 1.378 . S
C4028 C4032 1.350 . S
C4029 C4032 1.463 . S
C4029 C4034 1.350 . S
C4029 N4037 1.427 . S
C4030 H4021 0.930 . S
C4030 C4028 1.378 . S
C4030 C4031 1.367 . S
C4031 C4030 1.367 . S
C4031 C4033 1.433 . S
C4032 C4028 1.350 . S
C4032 C4029 1.463 . S
C4032 N4036 1.427 . S
C4033 H4023 0.929 . S
C4033 C4031 1.433 . S
C4033 N4036 1.384 . S
C4034 H4025 0.929 . S
C4034 C4026 1.378 . S
C4034 C4029 1.350 . S
C4035 H4022 0.929 . S
C4035 C4027 1.433 . S
C4035 N4037 1.384 . S
N4036 C4032 1.427 . S
N4036 C4033 1.384 . S
N4037 C4029 1.427 . S
N4037 C4035 1.384 . S
H4038 C4044 0.930 . S
H4039 C4048 0.930 . S
H4040 C4053 0.929 . S
H4041 C4051 0.929 . S
H4042 C4046 0.929 . S
H4043 C4052 0.929 . S
C4044 H4038 0.930 . S
C4044 C4045 1.367 . S
C4044 C4052 1.378 . S
C4045 C4044 1.367 . S
C4045 C4053 1.433 . S
C4046 H4042 0.929 . S
C4046 C4048 1.378 . S
C4046 C4050 1.350 . S
C4047 C4050 1.463 . S
C4047 C4052 1.350 . S
C4047 N4055 1.427 . S
C4048 H4039 0.930 . S
C4048 C4046 1.378 . S
C4048 C4049 1.367 . S
C4049 C4048 1.367 . S
C4049 C4051 1.433 . S
C4050 C4046 1.350 . S
C4050 C4047 1.463 . S
C4050 N4054 1.427 . S
C4051 H4041 0.929 . S
C4051 C4049 1.433 . S
C4051 N4054 1.384 . S
C4052 H4043 0.929 . S
C4052 C4044 1.378 . S
C4052 C4047 1.350 . S
C4053 H4040 0.929 . S
C4053 C4045 1.433 . S
C4053 N4055 1.384 . S
N4054 C4050 1.427 . S
N4054 C4051 1.384 . S
N4055 C4047 1.427 . S
N4055 C4053 1.384 . S
H4056 C4062 0.930 . S
H4057 C4066 0.930 . S
H4058 C4071 0.929 . S
H4059 C4069 0.929 . S
H4060 C4064 0.929 . S
H4061 C4070 0.929 . S
C4062 H4056 0.930 . S
C4062 C4063 1.367 . S
C4062 C4070 1.378 . S
C4063 C4062 1.367 . S
C4063 C4071 1.433 . S
C4064 H4060 0.929 . S
C4064 C4066 1.378 . S
C4064 C4068 1.350 . S
C4065 C4068 1.463 . S
C4065 C4070 1.350 . S
C4065 N4073 1.427 . S
C4066 H4057 0.930 . S
C4066 C4064 1.378 . S
C4066 C4067 1.367 . S
C4067 C4066 1.367 . S
C4067 C4069 1.433 . S
C4068 C4064 1.350 . S
C4068 C4065 1.463 . S
C4068 N4072 1.427 . S
C4069 H4059 0.929 . S
C4069 C4067 1.433 . S
C4069 N4072 1.384 . S
C4070 H4061 0.929 . S
C4070 C4062 1.378 . S
C4070 C4065 1.350 . S
C4071 H4058 0.929 . S
C4071 C4063 1.433 . S
C4071 N4073 1.384 . S
N4072 C4068 1.427 . S
N4072 C4069 1.384 . S
N4073 C4065 1.427 . S
N4073 C4071 1.384 . S
H4074 C4080 0.930 . S
H4075 C4084 0.930 . S
H4076 C4089 0.929 . S
H4077 C4087 0.929 . S
H4078 C4082 0.929 . S
H4079 C4088 0.929 . S
C4080 H4074 0.930 . S
C4080 C4081 1.367 . S
C4080 C4088 1.378 . S
C4081 C4080 1.367 . S
C4081 C4089 1.433 . S
C4082 H4078 0.929 . S
C4082 C4084 1.378 . S
C4082 C4086 1.350 . S
C4083 C4086 1.463 . S
C4083 C4088 1.350 . S
C4083 N4091 1.427 . S
C4084 H4075 0.930 . S
C4084 C4082 1.378 . S
C4084 C4085 1.367 . S
C4085 C4084 1.367 . S
C4085 C4087 1.433 . S
C4086 C4082 1.350 . S
C4086 C4083 1.463 . S
C4086 N4090 1.427 . S
C4087 H4077 0.929 . S
C4087 C4085 1.433 . S
C4087 N4090 1.384 . S
C4088 H4079 0.929 . S
C4088 C4080 1.378 . S
C4088 C4083 1.350 . S
C4089 H4076 0.929 . S
C4089 C4081 1.433 . S
C4089 N4091 1.384 . S
N4090 C4086 1.427 . S
N4090 C4087 1.384 . S
N4091 C4083 1.427 . S
N4091 C4089 1.384 . S
H4092 C4098 0.930 . S
H4093 C4102 0.930 . S
H4094 C4107 0.929 . S
H4095 C4105 0.929 . S
H4096 C4100 0.929 . S
H4097 C4106 0.929 . S
C4098 H4092 0.930 . S
C4098 C4099 1.367 . S
C4098 C4106 1.378 . S
C4099 C4098 1.367 . S
C4099 C4107 1.433 . S
C4100 H4096 0.929 . S
C4100 C4102 1.378 . S
C4100 C4104 1.350 . S
C4101 C4104 1.463 . S
C4101 C4106 1.350 . S
C4101 N4109 1.427 . S
C4102 H4093 0.930 . S
C4102 C4100 1.378 . S
C4102 C4103 1.367 . S
C4103 C4102 1.367 . S
C4103 C4105 1.433 . S
C4104 C4100 1.350 . S
C4104 C4101 1.463 . S
C4104 N4108 1.427 . S
C4105 H4095 0.929 . S
C4105 C4103 1.433 . S
C4105 N4108 1.384 . S
C4106 H4097 0.929 . S
C4106 C4098 1.378 . S
C4106 C4101 1.350 . S
C4107 H4094 0.929 . S
C4107 C4099 1.433 . S
C4107 N4109 1.384 . S
N4108 C4104 1.427 . S
N4108 C4105 1.384 . S
N4109 C4101 1.427 . S
N4109 C4107 1.384 . S
H4110 C4116 0.930 . S
H4111 C4120 0.930 . S
H4112 C4125 0.929 . S
H4113 C4123 0.929 . S
H4114 C4118 0.929 . S
H4115 C4124 0.929 . S
C4116 H4110 0.930 . S
C4116 C4117 1.367 . S
C4116 C4124 1.378 . S
C4117 C4116 1.367 . S
C4117 C4125 1.433 . S
C4118 H4114 0.929 . S
C4118 C4120 1.378 . S
C4118 C4122 1.350 . S
C4119 C4122 1.463 . S
C4119 C4124 1.350 . S
C4119 N4127 1.427 . S
C4120 H4111 0.930 . S
C4120 C4118 1.378 . S
C4120 C4121 1.367 . S
C4121 C4120 1.367 . S
C4121 C4123 1.433 . S
C4122 C4118 1.350 . S
C4122 C4119 1.463 . S
C4122 N4126 1.427 . S
C4123 H4113 0.929 . S
C4123 C4121 1.433 . S
C4123 N4126 1.384 . S
C4124 H4115 0.929 . S
C4124 C4116 1.378 . S
C4124 C4119 1.350 . S
C4125 H4112 0.929 . S
C4125 C4117 1.433 . S
C4125 N4127 1.384 . S
N4126 C4122 1.427 . S
N4126 C4123 1.384 . S
N4127 C4119 1.427 . S
N4127 C4125 1.384 . S
H4128 C4134 0.930 . S
H4129 C4138 0.930 . S
H4130 C4143 0.929 . S
H4131 C4141 0.929 . S
H4132 C4136 0.929 . S
H4133 C4142 0.929 . S
C4134 H4128 0.930 . S
C4134 C4135 1.367 . S
C4134 C4142 1.378 . S
C4135 C4134 1.367 . S
C4135 C4143 1.433 . S
C4136 H4132 0.929 . S
C4136 C4138 1.378 . S
C4136 C4140 1.350 . S
C4137 C4140 1.463 . S
C4137 C4142 1.350 . S
C4137 N4145 1.427 . S
C4138 H4129 0.930 . S
C4138 C4136 1.378 . S
C4138 C4139 1.367 . S
C4139 C4138 1.367 . S
C4139 C4141 1.433 . S
C4140 C4136 1.350 . S
C4140 C4137 1.463 . S
C4140 N4144 1.427 . S
C4141 H4131 0.929 . S
C4141 C4139 1.433 . S
C4141 N4144 1.384 . S
C4142 H4133 0.929 . S
C4142 C4134 1.378 . S
C4142 C4137 1.350 . S
C4143 H4130 0.929 . S
C4143 C4135 1.433 . S
C4143 N4145 1.384 . S
N4144 C4140 1.427 . S
N4144 C4141 1.384 . S
N4145 C4137 1.427 . S
N4145 C4143 1.384 . S
H4146 C4152 0.930 . S
H4147 C4156 0.930 . S
H4148 C4161 0.929 . S
H4149 C4159 0.929 . S
H4150 C4154 0.929 . S
H4151 C4160 0.929 . S
C4152 H4146 0.930 . S
C4152 C4153 1.367 . S
C4152 C4160 1.378 . S
C4153 C4152 1.367 . S
C4153 C4161 1.433 . S
C4154 H4150 0.929 . S
C4154 C4156 1.378 . S
C4154 C4158 1.350 . S
C4155 C4158 1.463 . S
C4155 C4160 1.350 . S
C4155 N4163 1.427 . S
C4156 H4147 0.930 . S
C4156 C4154 1.378 . S
C4156 C4157 1.367 . S
C4157 C4156 1.367 . S
C4157 C4159 1.433 . S
C4158 C4154 1.350 . S
C4158 C4155 1.463 . S
C4158 N4162 1.427 . S
C4159 H4149 0.929 . S
C4159 C4157 1.433 . S
C4159 N4162 1.384 . S
C4160 H4151 0.929 . S
C4160 C4152 1.378 . S
C4160 C4155 1.350 . S
C4161 H4148 0.929 . S
C4161 C4153 1.433 . S
C4161 N4163 1.384 . S
N4162 C4158 1.427 . S
N4162 C4159 1.384 . S
N4163 C4155 1.427 . S
N4163 C4161 1.384 . S
H4164 C4170 0.930 . S
H4165 C4174 0.930 . S
H4166 C4179 0.929 . S
H4167 C4177 0.929 . S
H4168 C4172 0.929 . S
H4169 C4178 0.929 . S
C4170 H4164 0.930 . S
C4170 C4171 1.367 . S
C4170 C4178 1.378 . S
C4171 C4170 1.367 . S
C4171 C4179 1.433 . S
C4172 H4168 0.929 . S
C4172 C4174 1.378 . S
C4172 C4176 1.350 . S
C4173 C4176 1.463 . S
C4173 C4178 1.350 . S
C4173 N4181 1.427 . S
C4174 H4165 0.930 . S
C4174 C4172 1.378 . S
C4174 C4175 1.367 . S
C4175 C4174 1.367 . S
C4175 C4177 1.433 . S
C4176 C4172 1.350 . S
C4176 C4173 1.463 . S
C4176 N4180 1.427 . S
C4177 H4167 0.929 . S
C4177 C4175 1.433 . S
C4177 N4180 1.384 . S
C4178 H4169 0.929 . S
C4178 C4170 1.378 . S
C4178 C4173 1.350 . S
C4179 H4166 0.929 . S
C4179 C4171 1.433 . S
C4179 N4181 1.384 . S
N4180 C4176 1.427 . S
N4180 C4177 1.384 . S
N4181 C4173 1.427 . S
N4181 C4179 1.384 . S
H4182 C4188 0.930 . S
H4183 C4192 0.930 . S
H4184 C4197 0.929 . S
H4185 C4195 0.929 . S
H4186 C4190 0.929 . S
H4187 C4196 0.929 . S
C4188 H4182 0.930 . S
C4188 C4189 1.367 . S
C4188 C4196 1.378 . S
C4189 C4188 1.367 . S
C4189 C4197 1.433 . S
C4190 H4186 0.929 . S
C4190 C4192 1.378 . S
C4190 C4194 1.350 . S
C4191 C4194 1.463 . S
C4191 C4196 1.350 . S
C4191 N4199 1.427 . S
C4192 H4183 0.930 . S
C4192 C4190 1.378 . S
C4192 C4193 1.367 . S
C4193 C4192 1.367 . S
C4193 C4195 1.433 . S
C4194 C4190 1.350 . S
C4194 C4191 1.463 . S
C4194 N4198 1.427 . S
C4195 H4185 0.929 . S
C4195 C4193 1.433 . S
C4195 N4198 1.384 . S
C4196 H4187 0.929 . S
C4196 C4188 1.378 . S
C4196 C4191 1.350 . S
C4197 H4184 0.929 . S
C4197 C4189 1.433 . S
C4197 N4199 1.384 . S
N4198 C4194 1.427 . S
N4198 C4195 1.384 . S
N4199 C4191 1.427 . S
N4199 C4197 1.384 . S
H4200 C4206 0.930 . S
H4201 C4210 0.930 . S
H4202 C4215 0.929 . S
H4203 C4213 0.929 . S
H4204 C4208 0.929 . S
H4205 C4214 0.929 . S
C4206 H4200 0.930 . S
C4206 C4207 1.367 . S
C4206 C4214 1.378 . S
C4207 C4206 1.367 . S
C4207 C4215 1.433 . S
C4208 H4204 0.929 . S
C4208 C4210 1.378 . S
C4208 C4212 1.350 . S
C4209 C4212 1.463 . S
C4209 C4214 1.350 . S
C4209 N4217 1.427 . S
C4210 H4201 0.930 . S
C4210 C4208 1.378 . S
C4210 C4211 1.367 . S
C4211 C4210 1.367 . S
C4211 C4213 1.433 . S
C4212 C4208 1.350 . S
C4212 C4209 1.463 . S
C4212 N4216 1.427 . S
C4213 H4203 0.929 . S
C4213 C4211 1.433 . S
C4213 N4216 1.384 . S
C4214 H4205 0.929 . S
C4214 C4206 1.378 . S
C4214 C4209 1.350 . S
C4215 H4202 0.929 . S
C4215 C4207 1.433 . S
C4215 N4217 1.384 . S
N4216 C4212 1.427 . S
N4216 C4213 1.384 . S
N4217 C4209 1.427 . S
N4217 C4215 1.384 . S
H4218 C4224 0.930 . S
H4219 C4228 0.930 . S
H4220 C4233 0.929 . S
H4221 C4231 0.929 . S
H4222 C4226 0.929 . S
H4223 C4232 0.929 . S
C4224 H4218 0.930 . S
C4224 C4225 1.367 . S
C4224 C4232 1.378 . S
C4225 C4224 1.367 . S
C4225 C4233 1.433 . S
C4226 H4222 0.929 . S
C4226 C4228 1.378 . S
C4226 C4230 1.350 . S
C4227 C4230 1.463 . S
C4227 C4232 1.350 . S
C4227 N4235 1.427 . S
C4228 H4219 0.930 . S
C4228 C4226 1.378 . S
C4228 C4229 1.367 . S
C4229 C4228 1.367 . S
C4229 C4231 1.433 . S
C4230 C4226 1.350 . S
C4230 C4227 1.463 . S
C4230 N4234 1.427 . S
C4231 H4221 0.929 . S
C4231 C4229 1.433 . S
C4231 N4234 1.384 . S
C4232 H4223 0.929 . S
C4232 C4224 1.378 . S
C4232 C4227 1.350 . S
C4233 H4220 0.929 . S
C4233 C4225 1.433 . S
C4233 N4235 1.384 . S
N4234 C4230 1.427 . S
N4234 C4231 1.384 . S
N4235 C4227 1.427 . S
N4235 C4233 1.384 . S
H4236 C4242 0.930 . S
H4237 C4246 0.930 . S
H4238 C4251 0.929 . S
H4239 C4249 0.929 . S
H4240 C4244 0.929 . S
H4241 C4250 0.929 . S
C4242 H4236 0.930 . S
C4242 C4243 1.367 . S
C4242 C4250 1.378 . S
C4243 C4242 1.367 . S
C4243 C4251 1.433 . S
C4244 H4240 0.929 . S
C4244 C4246 1.378 . S
C4244 C4248 1.350 . S
C4245 C4248 1.463 . S
C4245 C4250 1.350 . S
C4245 N4253 1.427 . S
C4246 H4237 0.930 . S
C4246 C4244 1.378 . S
C4246 C4247 1.367 . S
C4247 C4246 1.367 . S
C4247 C4249 1.433 . S
C4248 C4244 1.350 . S
C4248 C4245 1.463 . S
C4248 N4252 1.427 . S
C4249 H4239 0.929 . S
C4249 C4247 1.433 . S
C4249 N4252 1.384 . S
C4250 H4241 0.929 . S
C4250 C4242 1.378 . S
C4250 C4245 1.350 . S
C4251 H4238 0.929 . S
C4251 C4243 1.433 . S
C4251 N4253 1.384 . S
N4252 C4248 1.427 . S
N4252 C4249 1.384 . S
N4253 C4245 1.427 . S
N4253 C4251 1.384 . S
H4254 C4260 0.930 . S
H4255 C4264 0.930 . S
H4256 C4269 0.929 . S
H4257 C4267 0.929 . S
H4258 C4262 0.929 . S
H4259 C4268 0.929 . S
C4260 H4254 0.930 . S
C4260 C4261 1.367 . S
C4260 C4268 1.378 . S
C4261 C4260 1.367 . S
C4261 C4269 1.433 . S
C4262 H4258 0.929 . S
C4262 C4264 1.378 . S
C4262 C4266 1.350 . S
C4263 C4266 1.463 . S
C4263 C4268 1.350 . S
C4263 N4271 1.427 . S
C4264 H4255 0.930 . S
C4264 C4262 1.378 . S
C4264 C4265 1.367 . S
C4265 C4264 1.367 . S
C4265 C4267 1.433 . S
C4266 C4262 1.350 . S
C4266 C4263 1.463 . S
C4266 N4270 1.427 . S
C4267 H4257 0.929 . S
C4267 C4265 1.433 . S
C4267 N4270 1.384 . S
C4268 H4259 0.929 . S
C4268 C4260 1.378 . S
C4268 C4263 1.350 . S
C4269 H4256 0.929 . S
C4269 C4261 1.433 . S
C4269 N4271 1.384 . S
N4270 C4266 1.427 . S
N4270 C4267 1.384 . S
N4271 C4263 1.427 . S
N4271 C4269 1.384 . S
H4272 C4278 0.930 . S
H4273 C4282 0.930 . S
H4274 C4287 0.929 . S
H4275 C4285 0.929 . S
H4276 C4280 0.929 . S
H4277 C4286 0.929 . S
C4278 H4272 0.930 . S
C4278 C4279 1.367 . S
C4278 C4286 1.378 . S
C4279 C4278 1.367 . S
C4279 C4287 1.433 . S
C4280 H4276 0.929 . S
C4280 C4282 1.378 . S
C4280 C4284 1.350 . S
C4281 C4284 1.463 . S
C4281 C4286 1.350 . S
C4281 N4289 1.427 . S
C4282 H4273 0.930 . S
C4282 C4280 1.378 . S
C4282 C4283 1.367 . S
C4283 C4282 1.367 . S
C4283 C4285 1.433 . S
C4284 C4280 1.350 . S
C4284 C4281 1.463 . S
C4284 N4288 1.427 . S
C4285 H4275 0.929 . S
C4285 C4283 1.433 . S
C4285 N4288 1.384 . S
C4286 H4277 0.929 . S
C4286 C4278 1.378 . S
C4286 C4281 1.350 . S
C4287 H4274 0.929 . S
C4287 C4279 1.433 . S
C4287 N4289 1.384 . S
N4288 C4284 1.427 . S
N4288 C4285 1.384 . S
N4289 C4281 1.427 . S
N4289 C4287 1.384 . S
H4290 C4296 0.930 . S
H4291 C4300 0.930 . S
H4292 C4305 0.929 . S
H4293 C4303 0.929 . S
H4294 C4298 0.929 . S
H4295 C4304 0.929 . S
C4296 H4290 0.930 . S
C4296 C4297 1.367 . S
C4296 C4304 1.378 . S
C4297 C4296 1.367 . S
C4297 C4305 1.433 . S
C4298 H4294 0.929 . S
C4298 C4300 1.378 . S
C4298 C4302 1.350 . S
C4299 C4302 1.463 . S
C4299 C4304 1.350 . S
C4299 N4307 1.427 . S
C4300 H4291 0.930 . S
C4300 C4298 1.378 . S
C4300 C4301 1.367 . S
C4301 C4300 1.367 . S
C4301 C4303 1.433 . S
C4302 C4298 1.350 . S
C4302 C4299 1.463 . S
C4302 N4306 1.427 . S
C4303 H4293 0.929 . S
C4303 C4301 1.433 . S
C4303 N4306 1.384 . S
C4304 H4295 0.929 . S
C4304 C4296 1.378 . S
C4304 C4299 1.350 . S
C4305 H4292 0.929 . S
C4305 C4297 1.433 . S
C4305 N4307 1.384 . S
N4306 C4302 1.427 . S
N4306 C4303 1.384 . S
N4307 C4299 1.427 . S
N4307 C4305 1.384 . S
H4308 C4314 0.930 . S
H4309 C4318 0.930 . S
H4310 C4323 0.929 . S
H4311 C4321 0.929 . S
H4312 C4316 0.929 . S
H4313 C4322 0.929 . S
C4314 H4308 0.930 . S
C4314 C4315 1.367 . S
C4314 C4322 1.378 . S
C4315 C4314 1.367 . S
C4315 C4323 1.433 . S
C4316 H4312 0.929 . S
C4316 C4318 1.378 . S
C4316 C4320 1.350 . S
C4317 C4320 1.463 . S
C4317 C4322 1.350 . S
C4317 N4325 1.427 . S
C4318 H4309 0.930 . S
C4318 C4316 1.378 . S
C4318 C4319 1.367 . S
C4319 C4318 1.367 . S
C4319 C4321 1.433 . S
C4320 C4316 1.350 . S
C4320 C4317 1.463 . S
C4320 N4324 1.427 . S
C4321 H4311 0.929 . S
C4321 C4319 1.433 . S
C4321 N4324 1.384 . S
C4322 H4313 0.929 . S
C4322 C4314 1.378 . S
C4322 C4317 1.350 . S
C4323 H4310 0.929 . S
C4323 C4315 1.433 . S
C4323 N4325 1.384 . S
N4324 C4320 1.427 . S
N4324 C4321 1.384 . S
N4325 C4317 1.427 . S
N4325 C4323 1.384 . S
H4326 C4332 0.930 . S
H4327 C4336 0.930 . S
H4328 C4341 0.929 . S
H4329 C4339 0.929 . S
H4330 C4334 0.929 . S
H4331 C4340 0.929 . S
C4332 H4326 0.930 . S
C4332 C4333 1.367 . S
C4332 C4340 1.378 . S
C4333 C4332 1.367 . S
C4333 C4341 1.433 . S
C4334 H4330 0.929 . S
C4334 C4336 1.378 . S
C4334 C4338 1.350 . S
C4335 C4338 1.463 . S
C4335 C4340 1.350 . S
C4335 N4343 1.427 . S
C4336 H4327 0.930 . S
C4336 C4334 1.378 . S
C4336 C4337 1.367 . S
C4337 C4336 1.367 . S
C4337 C4339 1.433 . S
C4338 C4334 1.350 . S
C4338 C4335 1.463 . S
C4338 N4342 1.427 . S
C4339 H4329 0.929 . S
C4339 C4337 1.433 . S
C4339 N4342 1.384 . S
C4340 H4331 0.929 . S
C4340 C4332 1.378 . S
C4340 C4335 1.350 . S
C4341 H4328 0.929 . S
C4341 C4333 1.433 . S
C4341 N4343 1.384 . S
N4342 C4338 1.427 . S
N4342 C4339 1.384 . S
N4343 C4335 1.427 . S
N4343 C4341 1.384 . S
H4344 C4350 0.930 . S
H4345 C4354 0.930 . S
H4346 C4359 0.929 . S
H4347 C4357 0.929 . S
H4348 C4352 0.929 . S
H4349 C4358 0.929 . S
C4350 H4344 0.930 . S
C4350 C4351 1.367 . S
C4350 C4358 1.378 . S
C4351 C4350 1.367 . S
C4351 C4359 1.433 . S
C4352 H4348 0.929 . S
C4352 C4354 1.378 . S
C4352 C4356 1.350 . S
C4353 C4356 1.463 . S
C4353 C4358 1.350 . S
C4353 N4361 1.427 . S
C4354 H4345 0.930 . S
C4354 C4352 1.378 . S
C4354 C4355 1.367 . S
C4355 C4354 1.367 . S
C4355 C4357 1.433 . S
C4356 C4352 1.350 . S
C4356 C4353 1.463 . S
C4356 N4360 1.427 . S
C4357 H4347 0.929 . S
C4357 C4355 1.433 . S
C4357 N4360 1.384 . S
C4358 H4349 0.929 . S
C4358 C4350 1.378 . S
C4358 C4353 1.350 . S
C4359 H4346 0.929 . S
C4359 C4351 1.433 . S
C4359 N4361 1.384 . S
N4360 C4356 1.427 . S
N4360 C4357 1.384 . S
N4361 C4353 1.427 . S
N4361 C4359 1.384 . S
H4362 C4368 0.930 . S
H4363 C4372 0.930 . S
H4364 C4377 0.929 . S
H4365 C4375 0.929 . S
H4366 C4370 0.929 . S
H4367 C4376 0.929 . S
C4368 H4362 0.930 . S
C4368 C4369 1.367 . S
C4368 C4376 1.378 . S
C4369 C4368 1.367 . S
C4369 C4377 1.433 . S
C4370 H4366 0.929 . S
C4370 C4372 1.378 . S
C4370 C4374 1.350 . S
C4371 C4374 1.463 . S
C4371 C4376 1.350 . S
C4371 N4379 1.427 . S
C4372 H4363 0.930 . S
C4372 C4370 1.378 . S
C4372 C4373 1.367 . S
C4373 C4372 1.367 . S
C4373 C4375 1.433 . S
C4374 C4370 1.350 . S
C4374 C4371 1.463 . S
C4374 N4378 1.427 . S
C4375 H4365 0.929 . S
C4375 C4373 1.433 . S
C4375 N4378 1.384 . S
C4376 H4367 0.929 . S
C4376 C4368 1.378 . S
C4376 C4371 1.350 . S
C4377 H4364 0.929 . S
C4377 C4369 1.433 . S
C4377 N4379 1.384 . S
N4378 C4374 1.427 . S
N4378 C4375 1.384 . S
N4379 C4371 1.427 . S
N4379 C4377 1.384 . S
H4380 C4386 0.930 . S
H4381 C4390 0.930 . S
H4382 C4395 0.929 . S
H4383 C4393 0.929 . S
H4384 C4388 0.929 . S
H4385 C4394 0.929 . S
C4386 H4380 0.930 . S
C4386 C4387 1.367 . S
C4386 C4394 1.378 . S
C4387 C4386 1.367 . S
C4387 C4395 1.433 . S
C4388 H4384 0.929 . S
C4388 C4390 1.378 . S
C4388 C4392 1.350 . S
C4389 C4392 1.463 . S
C4389 C4394 1.350 . S
C4389 N4397 1.427 . S
C4390 H4381 0.930 . S
C4390 C4388 1.378 . S
C4390 C4391 1.367 . S
C4391 C4390 1.367 . S
C4391 C4393 1.433 . S
C4392 C4388 1.350 . S
C4392 C4389 1.463 . S
C4392 N4396 1.427 . S
C4393 H4383 0.929 . S
C4393 C4391 1.433 . S
C4393 N4396 1.384 . S
C4394 H4385 0.929 . S
C4394 C4386 1.378 . S
C4394 C4389 1.350 . S
C4395 H4382 0.929 . S
C4395 C4387 1.433 . S
C4395 N4397 1.384 . S
N4396 C4392 1.427 . S
N4396 C4393 1.384 . S
N4397 C4389 1.427 . S
N4397 C4395 1.384 . S
H4398 C4404 0.930 . S
H4399 C4408 0.930 . S
H4400 C4413 0.929 . S
H4401 C4411 0.929 . S
H4402 C4406 0.929 . S
H4403 C4412 0.929 . S
C4404 H4398 0.930 . S
C4404 C4405 1.367 . S
C4404 C4412 1.378 . S
C4405 C4404 1.367 . S
C4405 C4413 1.433 . S
C4406 H4402 0.929 . S
C4406 C4408 1.378 . S
C4406 C4410 1.350 . S
C4407 C4410 1.463 . S
C4407 C4412 1.350 . S
C4407 N4415 1.427 . S
C4408 H4399 0.930 . S
C4408 C4406 1.378 . S
C4408 C4409 1.367 . S
C4409 C4408 1.367 . S
C4409 C4411 1.433 . S
C4410 C4406 1.350 . S
C4410 C4407 1.463 . S
C4410 N4414 1.427 . S
C4411 H4401 0.929 . S
C4411 C4409 1.433 . S
C4411 N4414 1.384 . S
C4412 H4403 0.929 . S
C4412 C4404 1.378 . S
C4412 C4407 1.350 . S
C4413 H4400 0.929 . S
C4413 C4405 1.433 . S
C4413 N4415 1.384 . S
N4414 C4410 1.427 . S
N4414 C4411 1.384 . S
N4415 C4407 1.427 . S
N4415 C4413 1.384 . S
H4416 C4422 0.930 . S
H4417 C4426 0.930 . S
H4418 C4431 0.929 . S
H4419 C4429 0.929 . S
H4420 C4424 0.929 . S
H4421 C4430 0.929 . S
C4422 H4416 0.930 . S
C4422 C4423 1.367 . S
C4422 C4430 1.378 . S
C4423 C4422 1.367 . S
C4423 C4431 1.433 . S
C4424 H4420 0.929 . S
C4424 C4426 1.378 . S
C4424 C4428 1.350 . S
C4425 C4428 1.463 . S
C4425 C4430 1.350 . S
C4425 N4433 1.427 . S
C4426 H4417 0.930 . S
C4426 C4424 1.378 . S
C4426 C4427 1.367 . S
C4427 C4426 1.367 . S
C4427 C4429 1.433 . S
C4428 C4424 1.350 . S
C4428 C4425 1.463 . S
C4428 N4432 1.427 . S
C4429 H4419 0.929 . S
C4429 C4427 1.433 . S
C4429 N4432 1.384 . S
C4430 H4421 0.929 . S
C4430 C4422 1.378 . S
C4430 C4425 1.350 . S
C4431 H4418 0.929 . S
C4431 C4423 1.433 . S
C4431 N4433 1.384 . S
N4432 C4428 1.427 . S
N4432 C4429 1.384 . S
N4433 C4425 1.427 . S
N4433 C4431 1.384 . S
H4434 C4440 0.930 . S
H4435 C4444 0.930 . S
H4436 C4449 0.929 . S
H4437 C4447 0.929 . S
H4438 C4442 0.929 . S
H4439 C4448 0.929 . S
C4440 H4434 0.930 . S
C4440 C4441 1.367 . S
C4440 C4448 1.378 . S
C4441 C4440 1.367 . S
C4441 C4449 1.433 . S
C4442 H4438 0.929 . S
C4442 C4444 1.378 . S
C4442 C4446 1.350 . S
C4443 C4446 1.463 . S
C4443 C4448 1.350 . S
C4443 N4451 1.427 . S
C4444 H4435 0.930 . S
C4444 C4442 1.378 . S
C4444 C4445 1.367 . S
C4445 C4444 1.367 . S
C4445 C4447 1.433 . S
C4446 C4442 1.350 . S
C4446 C4443 1.463 . S
C4446 N4450 1.427 . S
C4447 H4437 0.929 . S
C4447 C4445 1.433 . S
C4447 N4450 1.384 . S
C4448 H4439 0.929 . S
C4448 C4440 1.378 . S
C4448 C4443 1.350 . S
C4449 H4436 0.929 . S
C4449 C4441 1.433 . S
C4449 N4451 1.384 . S
N4450 C4446 1.427 . S
N4450 C4447 1.384 . S
N4451 C4443 1.427 . S
N4451 C4449 1.384 . S
H4452 C4458 0.930 . S
H4453 C4462 0.930 . S
H4454 C4467 0.929 . S
H4455 C4465 0.929 . S
H4456 C4460 0.929 . S
H4457 C4466 0.929 . S
C4458 H4452 0.930 . S
C4458 C4459 1.367 . S
C4458 C4466 1.378 . S
C4459 C4458 1.367 . S
C4459 C4467 1.433 . S
C4460 H4456 0.929 . S
C4460 C4462 1.378 . S
C4460 C4464 1.350 . S
C4461 C4464 1.463 . S
C4461 C4466 1.350 . S
C4461 N4469 1.427 . S
C4462 H4453 0.930 . S
C4462 C4460 1.378 . S
C4462 C4463 1.367 . S
C4463 C4462 1.367 . S
C4463 C4465 1.433 . S
C4464 C4460 1.350 . S
C4464 C4461 1.463 . S
C4464 N4468 1.427 . S
C4465 H4455 0.929 . S
C4465 C4463 1.433 . S
C4465 N4468 1.384 . S
C4466 H4457 0.929 . S
C4466 C4458 1.378 . S
C4466 C4461 1.350 . S
C4467 H4454 0.929 . S
C4467 C4459 1.433 . S
C4467 N4469 1.384 . S
N4468 C4464 1.427 . S
N4468 C4465 1.384 . S
N4469 C4461 1.427 . S
N4469 C4467 1.384 . S
H4470 C4476 0.930 . S
H4471 C4480 0.930 . S
H4472 C4485 0.929 . S
H4473 C4483 0.929 . S
H4474 C4478 0.929 . S
H4475 C4484 0.929 . S
C4476 H4470 0.930 . S
C4476 C4477 1.367 . S
C4476 C4484 1.378 . S
C4477 C4476 1.367 . S
C4477 C4485 1.433 . S
C4478 H4474 0.929 . S
C4478 C4480 1.378 . S
C4478 C4482 1.350 . S
C4479 C4482 1.463 . S
C4479 C4484 1.350 . S
C4479 N4487 1.427 . S
C4480 H4471 0.930 . S
C4480 C4478 1.378 . S
C4480 C4481 1.367 . S
C4481 C4480 1.367 . S
C4481 C4483 1.433 . S
C4482 C4478 1.350 . S
C4482 C4479 1.463 . S
C4482 N4486 1.427 . S
C4483 H4473 0.929 . S
C4483 C4481 1.433 . S
C4483 N4486 1.384 . S
C4484 H4475 0.929 . S
C4484 C4476 1.378 . S
C4484 C4479 1.350 . S
C4485 H4472 0.929 . S
C4485 C4477 1.433 . S
C4485 N4487 1.384 . S
N4486 C4482 1.427 . S
N4486 C4483 1.384 . S
N4487 C4479 1.427 . S
N4487 C4485 1.384 . S
H4488 C4494 0.930 . S
H4489 C4498 0.930 . S
H4490 C4503 0.929 . S
H4491 C4501 0.929 . S
H4492 C4496 0.929 . S
H4493 C4502 0.929 . S
C4494 H4488 0.930 . S
C4494 C4495 1.367 . S
C4494 C4502 1.378 . S
C4495 C4494 1.367 . S
C4495 C4503 1.433 . S
C4496 H4492 0.929 . S
C4496 C4498 1.378 . S
C4496 C4500 1.350 . S
C4497 C4500 1.463 . S
C4497 C4502 1.350 . S
C4497 N4505 1.427 . S
C4498 H4489 0.930 . S
C4498 C4496 1.378 . S
C4498 C4499 1.367 . S
C4499 C4498 1.367 . S
C4499 C4501 1.433 . S
C4500 C4496 1.350 . S
C4500 C4497 1.463 . S
C4500 N4504 1.427 . S
C4501 H4491 0.929 . S
C4501 C4499 1.433 . S
C4501 N4504 1.384 . S
C4502 H4493 0.929 . S
C4502 C4494 1.378 . S
C4502 C4497 1.350 . S
C4503 H4490 0.929 . S
C4503 C4495 1.433 . S
C4503 N4505 1.384 . S
N4504 C4500 1.427 . S
N4504 C4501 1.384 . S
N4505 C4497 1.427 . S
N4505 C4503 1.384 . S
H4506 C4512 0.930 . S
H4507 C4516 0.930 . S
H4508 C4521 0.929 . S
H4509 C4519 0.929 . S
H4510 C4514 0.929 . S
H4511 C4520 0.929 . S
C4512 H4506 0.930 . S
C4512 C4513 1.367 . S
C4512 C4520 1.378 . S
C4513 C4512 1.367 . S
C4513 C4521 1.433 . S
C4514 H4510 0.929 . S
C4514 C4516 1.378 . S
C4514 C4518 1.350 . S
C4515 C4518 1.463 . S
C4515 C4520 1.350 . S
C4515 N4523 1.427 . S
C4516 H4507 0.930 . S
C4516 C4514 1.378 . S
C4516 C4517 1.367 . S
C4517 C4516 1.367 . S
C4517 C4519 1.433 . S
C4518 C4514 1.350 . S
C4518 C4515 1.463 . S
C4518 N4522 1.427 . S
C4519 H4509 0.929 . S
C4519 C4517 1.433 . S
C4519 N4522 1.384 . S
C4520 H4511 0.929 . S
C4520 C4512 1.378 . S
C4520 C4515 1.350 . S
C4521 H4508 0.929 . S
C4521 C4513 1.433 . S
C4521 N4523 1.384 . S
N4522 C4518 1.427 . S
N4522 C4519 1.384 . S
N4523 C4515 1.427 . S
N4523 C4521 1.384 . S
H4524 C4530 0.930 . S
H4525 C4534 0.930 . S
H4526 C4539 0.929 . S
H4527 C4537 0.929 . S
H4528 C4532 0.929 . S
H4529 C4538 0.929 . S
C4530 H4524 0.930 . S
C4530 C4531 1.367 . S
C4530 C4538 1.378 . S
C4531 C4530 1.367 . S
C4531 C4539 1.433 . S
C4532 H4528 0.929 . S
C4532 C4534 1.378 . S
C4532 C4536 1.350 . S
C4533 C4536 1.463 . S
C4533 C4538 1.350 . S
C4533 N4541 1.427 . S
C4534 H4525 0.930 . S
C4534 C4532 1.378 . S
C4534 C4535 1.367 . S
C4535 C4534 1.367 . S
C4535 C4537 1.433 . S
C4536 C4532 1.350 . S
C4536 C4533 1.463 . S
C4536 N4540 1.427 . S
C4537 H4527 0.929 . S
C4537 C4535 1.433 . S
C4537 N4540 1.384 . S
C4538 H4529 0.929 . S
C4538 C4530 1.378 . S
C4538 C4533 1.350 . S
C4539 H4526 0.929 . S
C4539 C4531 1.433 . S
C4539 N4541 1.384 . S
N4540 C4536 1.427 . S
N4540 C4537 1.384 . S
N4541 C4533 1.427 . S
N4541 C4539 1.384 . S
H4542 C4548 0.930 . S
H4543 C4552 0.930 . S
H4544 C4557 0.929 . S
H4545 C4555 0.929 . S
H4546 C4550 0.929 . S
H4547 C4556 0.929 . S
C4548 H4542 0.930 . S
C4548 C4549 1.367 . S
C4548 C4556 1.378 . S
C4549 C4548 1.367 . S
C4549 C4557 1.433 . S
C4550 H4546 0.929 . S
C4550 C4552 1.378 . S
C4550 C4554 1.350 . S
C4551 C4554 1.463 . S
C4551 C4556 1.350 . S
C4551 N4559 1.427 . S
C4552 H4543 0.930 . S
C4552 C4550 1.378 . S
C4552 C4553 1.367 . S
C4553 C4552 1.367 . S
C4553 C4555 1.433 . S
C4554 C4550 1.350 . S
C4554 C4551 1.463 . S
C4554 N4558 1.427 . S
C4555 H4545 0.929 . S
C4555 C4553 1.433 . S
C4555 N4558 1.384 . S
C4556 H4547 0.929 . S
C4556 C4548 1.378 . S
C4556 C4551 1.350 . S
C4557 H4544 0.929 . S
C4557 C4549 1.433 . S
C4557 N4559 1.384 . S
N4558 C4554 1.427 . S
N4558 C4555 1.384 . S
N4559 C4551 1.427 . S
N4559 C4557 1.384 . S
H4560 C4566 0.930 . S
H4561 C4570 0.930 . S
H4562 C4575 0.929 . S
H4563 C4573 0.929 . S
H4564 C4568 0.929 . S
H4565 C4574 0.929 . S
C4566 H4560 0.930 . S
C4566 C4567 1.367 . S
C4566 C4574 1.378 . S
C4567 C4566 1.367 . S
C4567 C4575 1.433 . S
C4568 H4564 0.929 . S
C4568 C4570 1.378 . S
C4568 C4572 1.350 . S
C4569 C4572 1.463 . S
C4569 C4574 1.350 . S
C4569 N4577 1.427 . S
C4570 H4561 0.930 . S
C4570 C4568 1.378 . S
C4570 C4571 1.367 . S
C4571 C4570 1.367 . S
C4571 C4573 1.433 . S
C4572 C4568 1.350 . S
C4572 C4569 1.463 . S
C4572 N4576 1.427 . S
C4573 H4563 0.929 . S
C4573 C4571 1.433 . S
C4573 N4576 1.384 . S
C4574 H4565 0.929 . S
C4574 C4566 1.378 . S
C4574 C4569 1.350 . S
C4575 H4562 0.929 . S
C4575 C4567 1.433 . S
C4575 N4577 1.384 . S
N4576 C4572 1.427 . S
N4576 C4573 1.384 . S
N4577 C4569 1.427 . S
N4577 C4575 1.384 . S
H4578 C4584 0.930 . S
H4579 C4588 0.930 . S
H4580 C4593 0.929 . S
H4581 C4591 0.929 . S
H4582 C4586 0.929 . S
H4583 C4592 0.929 . S
C4584 H4578 0.930 . S
C4584 C4585 1.367 . S
C4584 C4592 1.378 . S
C4585 C4584 1.367 . S
C4585 C4593 1.433 . S
C4586 H4582 0.929 . S
C4586 C4588 1.378 . S
C4586 C4590 1.350 . S
C4587 C4590 1.463 . S
C4587 C4592 1.350 . S
C4587 N4595 1.427 . S
C4588 H4579 0.930 . S
C4588 C4586 1.378 . S
C4588 C4589 1.367 . S
C4589 C4588 1.367 . S
C4589 C4591 1.433 . S
C4590 C4586 1.350 . S
C4590 C4587 1.463 . S
C4590 N4594 1.427 . S
C4591 H4581 0.929 . S
C4591 C4589 1.433 . S
C4591 N4594 1.384 . S
C4592 H4583 0.929 . S
C4592 C4584 1.378 . S
C4592 C4587 1.350 . S
C4593 H4580 0.929 . S
C4593 C4585 1.433 . S
C4593 N4595 1.384 . S
N4594 C4590 1.427 . S
N4594 C4591 1.384 . S
N4595 C4587 1.427 . S
N4595 C4593 1.384 . S
H4596 C4602 0.930 . S
H4597 C4606 0.930 . S
H4598 C4611 0.929 . S
H4599 C4609 0.929 . S
H4600 C4604 0.929 . S
H4601 C4610 0.929 . S
C4602 H4596 0.930 . S
C4602 C4603 1.367 . S
C4602 C4610 1.378 . S
C4603 C4602 1.367 . S
C4603 C4611 1.433 . S
C4604 H4600 0.929 . S
C4604 C4606 1.378 . S
C4604 C4608 1.350 . S
C4605 C4608 1.463 . S
C4605 C4610 1.350 . S
C4605 N4613 1.427 . S
C4606 H4597 0.930 . S
C4606 C4604 1.378 . S
C4606 C4607 1.367 . S
C4607 C4606 1.367 . S
C4607 C4609 1.433 . S
C4608 C4604 1.350 . S
C4608 C4605 1.463 . S
C4608 N4612 1.427 . S
C4609 H4599 0.929 . S
C4609 C4607 1.433 . S
C4609 N4612 1.384 . S
C4610 H4601 0.929 . S
C4610 C4602 1.378 . S
C4610 C4605 1.350 . S
C4611 H4598 0.929 . S
C4611 C4603 1.433 . S
C4611 N4613 1.384 . S
N4612 C4608 1.427 . S
N4612 C4609 1.384 . S
N4613 C4605 1.427 . S
N4613 C4611 1.384 . S
H4614 C4620 0.930 . S
H4615 C4624 0.930 . S
H4616 C4629 0.929 . S
H4617 C4627 0.929 . S
H4618 C4622 0.929 . S
H4619 C4628 0.929 . S
C4620 H4614 0.930 . S
C4620 C4621 1.367 . S
C4620 C4628 1.378 . S
C4621 C4620 1.367 . S
C4621 C4629 1.433 . S
C4622 H4618 0.929 . S
C4622 C4624 1.378 . S
C4622 C4626 1.350 . S
C4623 C4626 1.463 . S
C4623 C4628 1.350 . S
C4623 N4631 1.427 . S
C4624 H4615 0.930 . S
C4624 C4622 1.378 . S
C4624 C4625 1.367 . S
C4625 C4624 1.367 . S
C4625 C4627 1.433 . S
C4626 C4622 1.350 . S
C4626 C4623 1.463 . S
C4626 N4630 1.427 . S
C4627 H4617 0.929 . S
C4627 C4625 1.433 . S
C4627 N4630 1.384 . S
C4628 H4619 0.929 . S
C4628 C4620 1.378 . S
C4628 C4623 1.350 . S
C4629 H4616 0.929 . S
C4629 C4621 1.433 . S
C4629 N4631 1.384 . S
N4630 C4626 1.427 . S
N4630 C4627 1.384 . S
N4631 C4623 1.427 . S
N4631 C4629 1.384 . S
H4632 C4638 0.930 . S
H4633 C4642 0.930 . S
H4634 C4647 0.929 . S
H4635 C4645 0.929 . S
H4636 C4640 0.929 . S
H4637 C4646 0.929 . S
C4638 H4632 0.930 . S
C4638 C4639 1.367 . S
C4638 C4646 1.378 . S
C4639 C4638 1.367 . S
C4639 C4647 1.433 . S
C4640 H4636 0.929 . S
C4640 C4642 1.378 . S
C4640 C4644 1.350 . S
C4641 C4644 1.463 . S
C4641 C4646 1.350 . S
C4641 N4649 1.427 . S
C4642 H4633 0.930 . S
C4642 C4640 1.378 . S
C4642 C4643 1.367 . S
C4643 C4642 1.367 . S
C4643 C4645 1.433 . S
C4644 C4640 1.350 . S
C4644 C4641 1.463 . S
C4644 N4648 1.427 . S
C4645 H4635 0.929 . S
C4645 C4643 1.433 . S
C4645 N4648 1.384 . S
C4646 H4637 0.929 . S
C4646 C4638 1.378 . S
C4646 C4641 1.350 . S
C4647 H4634 0.929 . S
C4647 C4639 1.433 . S
C4647 N4649 1.384 . S
N4648 C4644 1.427 . S
N4648 C4645 1.384 . S
N4649 C4641 1.427 . S
N4649 C4647 1.384 . S
H4650 C4656 0.930 . S
H4651 C4660 0.930 . S
H4652 C4665 0.929 . S
H4653 C4663 0.929 . S
H4654 C4658 0.929 . S
H4655 C4664 0.929 . S
C4656 H4650 0.930 . S
C4656 C4657 1.367 . S
C4656 C4664 1.378 . S
C4657 C4656 1.367 . S
C4657 C4665 1.433 . S
C4658 H4654 0.929 . S
C4658 C4660 1.378 . S
C4658 C4662 1.350 . S
C4659 C4662 1.463 . S
C4659 C4664 1.350 . S
C4659 N4667 1.427 . S
C4660 H4651 0.930 . S
C4660 C4658 1.378 . S
C4660 C4661 1.367 . S
C4661 C4660 1.367 . S
C4661 C4663 1.433 . S
C4662 C4658 1.350 . S
C4662 C4659 1.463 . S
C4662 N4666 1.427 . S
C4663 H4653 0.929 . S
C4663 C4661 1.433 . S
C4663 N4666 1.384 . S
C4664 H4655 0.929 . S
C4664 C4656 1.378 . S
C4664 C4659 1.350 . S
C4665 H4652 0.929 . S
C4665 C4657 1.433 . S
C4665 N4667 1.384 . S
N4666 C4662 1.427 . S
N4666 C4663 1.384 . S
N4667 C4659 1.427 . S
N4667 C4665 1.384 . S
H4668 C4674 0.930 . S
H4669 C4678 0.930 . S
H4670 C4683 0.929 . S
H4671 C4681 0.929 . S
H4672 C4676 0.929 . S
H4673 C4682 0.929 . S
C4674 H4668 0.930 . S
C4674 C4675 1.367 . S
C4674 C4682 1.378 . S
C4675 C4674 1.367 . S
C4675 C4683 1.433 . S
C4676 H4672 0.929 . S
C4676 C4678 1.378 . S
C4676 C4680 1.350 . S
C4677 C4680 1.463 . S
C4677 C4682 1.350 . S
C4677 N4685 1.427 . S
C4678 H4669 0.930 . S
C4678 C4676 1.378 . S
C4678 C4679 1.367 . S
C4679 C4678 1.367 . S
C4679 C4681 1.433 . S
C4680 C4676 1.350 . S
C4680 C4677 1.463 . S
C4680 N4684 1.427 . S
C4681 H4671 0.929 . S
C4681 C4679 1.433 . S
C4681 N4684 1.384 . S
C4682 H4673 0.929 . S
C4682 C4674 1.378 . S
C4682 C4677 1.350 . S
C4683 H4670 0.929 . S
C4683 C4675 1.433 . S
C4683 N4685 1.384 . S
N4684 C4680 1.427 . S
N4684 C4681 1.384 . S
N4685 C4677 1.427 . S
N4685 C4683 1.384 . S
H4686 C4692 0.930 . S
H4687 C4696 0.930 . S
H4688 C4701 0.929 . S
H4689 C4699 0.929 . S
H4690 C4694 0.929 . S
H4691 C4700 0.929 . S
C4692 H4686 0.930 . S
C4692 C4693 1.367 . S
C4692 C4700 1.378 . S
C4693 C4692 1.367 . S
C4693 C4701 1.433 . S
C4694 H4690 0.929 . S
C4694 C4696 1.378 . S
C4694 C4698 1.350 . S
C4695 C4698 1.463 . S
C4695 C4700 1.350 . S
C4695 N4703 1.427 . S
C4696 H4687 0.930 . S
C4696 C4694 1.378 . S
C4696 C4697 1.367 . S
C4697 C4696 1.367 . S
C4697 C4699 1.433 . S
C4698 C4694 1.350 . S
C4698 C4695 1.463 . S
C4698 N4702 1.427 . S
C4699 H4689 0.929 . S
C4699 C4697 1.433 . S
C4699 N4702 1.384 . S
C4700 H4691 0.929 . S
C4700 C4692 1.378 . S
C4700 C4695 1.350 . S
C4701 H4688 0.929 . S
C4701 C4693 1.433 . S
C4701 N4703 1.384 . S
N4702 C4698 1.427 . S
N4702 C4699 1.384 . S
N4703 C4695 1.427 . S
N4703 C4701 1.384 . S
H4704 C4710 0.930 . S
H4705 C4714 0.930 . S
H4706 C4719 0.929 . S
H4707 C4717 0.929 . S
H4708 C4712 0.929 . S
H4709 C4718 0.929 . S
C4710 H4704 0.930 . S
C4710 C4711 1.367 . S
C4710 C4718 1.378 . S
C4711 C4710 1.367 . S
C4711 C4719 1.433 . S
C4712 H4708 0.929 . S
C4712 C4714 1.378 . S
C4712 C4716 1.350 . S
C4713 C4716 1.463 . S
C4713 C4718 1.350 . S
C4713 N4721 1.427 . S
C4714 H4705 0.930 . S
C4714 C4712 1.378 . S
C4714 C4715 1.367 . S
C4715 C4714 1.367 . S
C4715 C4717 1.433 . S
C4716 C4712 1.350 . S
C4716 C4713 1.463 . S
C4716 N4720 1.427 . S
C4717 H4707 0.929 . S
C4717 C4715 1.433 . S
C4717 N4720 1.384 . S
C4718 H4709 0.929 . S
C4718 C4710 1.378 . S
C4718 C4713 1.350 . S
C4719 H4706 0.929 . S
C4719 C4711 1.433 . S
C4719 N4721 1.384 . S
N4720 C4716 1.427 . S
N4720 C4717 1.384 . S
N4721 C4713 1.427 . S
N4721 C4719 1.384 . S
H4722 C4728 0.930 . S
H4723 C4732 0.930 . S
H4724 C4737 0.929 . S
H4725 C4735 0.929 . S
H4726 C4730 0.929 . S
H4727 C4736 0.929 . S
C4728 H4722 0.930 . S
C4728 C4729 1.367 . S
C4728 C4736 1.378 . S
C4729 C4728 1.367 . S
C4729 C4737 1.433 . S
C4730 H4726 0.929 . S
C4730 C4732 1.378 . S
C4730 C4734 1.350 . S
C4731 C4734 1.463 . S
C4731 C4736 1.350 . S
C4731 N4739 1.427 . S
C4732 H4723 0.930 . S
C4732 C4730 1.378 . S
C4732 C4733 1.367 . S
C4733 C4732 1.367 . S
C4733 C4735 1.433 . S
C4734 C4730 1.350 . S
C4734 C4731 1.463 . S
C4734 N4738 1.427 . S
C4735 H4725 0.929 . S
C4735 C4733 1.433 . S
C4735 N4738 1.384 . S
C4736 H4727 0.929 . S
C4736 C4728 1.378 . S
C4736 C4731 1.350 . S
C4737 H4724 0.929 . S
C4737 C4729 1.433 . S
C4737 N4739 1.384 . S
N4738 C4734 1.427 . S
N4738 C4735 1.384 . S
N4739 C4731 1.427 . S
N4739 C4737 1.384 . S
H4740 C4746 0.930 . S
H4741 C4750 0.930 . S
H4742 C4755 0.929 . S
H4743 C4753 0.929 . S
H4744 C4748 0.929 . S
H4745 C4754 0.929 . S
C4746 H4740 0.930 . S
C4746 C4747 1.367 . S
C4746 C4754 1.378 . S
C4747 C4746 1.367 . S
C4747 C4755 1.433 . S
C4748 H4744 0.929 . S
C4748 C4750 1.378 . S
C4748 C4752 1.350 . S
C4749 C4752 1.463 . S
C4749 C4754 1.350 . S
C4749 N4757 1.427 . S
C4750 H4741 0.930 . S
C4750 C4748 1.378 . S
C4750 C4751 1.367 . S
C4751 C4750 1.367 . S
C4751 C4753 1.433 . S
C4752 C4748 1.350 . S
C4752 C4749 1.463 . S
C4752 N4756 1.427 . S
C4753 H4743 0.929 . S
C4753 C4751 1.433 . S
C4753 N4756 1.384 . S
C4754 H4745 0.929 . S
C4754 C4746 1.378 . S
C4754 C4749 1.350 . S
C4755 H4742 0.929 . S
C4755 C4747 1.433 . S
C4755 N4757 1.384 . S
N4756 C4752 1.427 . S
N4756 C4753 1.384 . S
N4757 C4749 1.427 . S
N4757 C4755 1.384 . S
H4758 C4764 0.930 . S
H4759 C4768 0.930 . S
H4760 C4773 0.929 . S
H4761 C4771 0.929 . S
H4762 C4766 0.929 . S
H4763 C4772 0.929 . S
C4764 H4758 0.930 . S
C4764 C4765 1.367 . S
C4764 C4772 1.378 . S
C4765 C4764 1.367 . S
C4765 C4773 1.433 . S
C4766 H4762 0.929 . S
C4766 C4768 1.378 . S
C4766 C4770 1.350 . S
C4767 C4770 1.463 . S
C4767 C4772 1.350 . S
C4767 N4775 1.427 . S
C4768 H4759 0.930 . S
C4768 C4766 1.378 . S
C4768 C4769 1.367 . S
C4769 C4768 1.367 . S
C4769 C4771 1.433 . S
C4770 C4766 1.350 . S
C4770 C4767 1.463 . S
C4770 N4774 1.427 . S
C4771 H4761 0.929 . S
C4771 C4769 1.433 . S
C4771 N4774 1.384 . S
C4772 H4763 0.929 . S
C4772 C4764 1.378 . S
C4772 C4767 1.350 . S
C4773 H4760 0.929 . S
C4773 C4765 1.433 . S
C4773 N4775 1.384 . S
N4774 C4770 1.427 . S
N4774 C4771 1.384 . S
N4775 C4767 1.427 . S
N4775 C4773 1.384 . S
H4776 C4782 0.930 . S
H4777 C4786 0.930 . S
H4778 C4791 0.929 . S
H4779 C4789 0.929 . S
H4780 C4784 0.929 . S
H4781 C4790 0.929 . S
C4782 H4776 0.930 . S
C4782 C4783 1.367 . S
C4782 C4790 1.378 . S
C4783 C4782 1.367 . S
C4783 C4791 1.433 . S
C4784 H4780 0.929 . S
C4784 C4786 1.378 . S
C4784 C4788 1.350 . S
C4785 C4788 1.463 . S
C4785 C4790 1.350 . S
C4785 N4793 1.427 . S
C4786 H4777 0.930 . S
C4786 C4784 1.378 . S
C4786 C4787 1.367 . S
C4787 C4786 1.367 . S
C4787 C4789 1.433 . S
C4788 C4784 1.350 . S
C4788 C4785 1.463 . S
C4788 N4792 1.427 . S
C4789 H4779 0.929 . S
C4789 C4787 1.433 . S
C4789 N4792 1.384 . S
C4790 H4781 0.929 . S
C4790 C4782 1.378 . S
C4790 C4785 1.350 . S
C4791 H4778 0.929 . S
C4791 C4783 1.433 . S
C4791 N4793 1.384 . S
N4792 C4788 1.427 . S
N4792 C4789 1.384 . S
N4793 C4785 1.427 . S
N4793 C4791 1.384 . S
H4794 C4800 0.930 . S
H4795 C4804 0.930 . S
H4796 C4809 0.929 . S
H4797 C4807 0.929 . S
H4798 C4802 0.929 . S
H4799 C4808 0.929 . S
C4800 H4794 0.930 . S
C4800 C4801 1.367 . S
C4800 C4808 1.378 . S
C4801 C4800 1.367 . S
C4801 C4809 1.433 . S
C4802 H4798 0.929 . S
C4802 C4804 1.378 . S
C4802 C4806 1.350 . S
C4803 C4806 1.463 . S
C4803 C4808 1.350 . S
C4803 N4811 1.427 . S
C4804 H4795 0.930 . S
C4804 C4802 1.378 . S
C4804 C4805 1.367 . S
C4805 C4804 1.367 . S
C4805 C4807 1.433 . S
C4806 C4802 1.350 . S
C4806 C4803 1.463 . S
C4806 N4810 1.427 . S
C4807 H4797 0.929 . S
C4807 C4805 1.433 . S
C4807 N4810 1.384 . S
C4808 H4799 0.929 . S
C4808 C4800 1.378 . S
C4808 C4803 1.350 . S
C4809 H4796 0.929 . S
C4809 C4801 1.433 . S
C4809 N4811 1.384 . S
N4810 C4806 1.427 . S
N4810 C4807 1.384 . S
N4811 C4803 1.427 . S
N4811 C4809 1.384 . S
H4812 C4818 0.930 . S
H4813 C4822 0.930 . S
H4814 C4827 0.929 . S
H4815 C4825 0.929 . S
H4816 C4820 0.929 . S
H4817 C4826 0.929 . S
C4818 H4812 0.930 . S
C4818 C4819 1.367 . S
C4818 C4826 1.378 . S
C4819 C4818 1.367 . S
C4819 C4827 1.433 . S
C4820 H4816 0.929 . S
C4820 C4822 1.378 . S
C4820 C4824 1.350 . S
C4821 C4824 1.463 . S
C4821 C4826 1.350 . S
C4821 N4829 1.427 . S
C4822 H4813 0.930 . S
C4822 C4820 1.378 . S
C4822 C4823 1.367 . S
C4823 C4822 1.367 . S
C4823 C4825 1.433 . S
C4824 C4820 1.350 . S
C4824 C4821 1.463 . S
C4824 N4828 1.427 . S
C4825 H4815 0.929 . S
C4825 C4823 1.433 . S
C4825 N4828 1.384 . S
C4826 H4817 0.929 . S
C4826 C4818 1.378 . S
C4826 C4821 1.350 . S
C4827 H4814 0.929 . S
C4827 C4819 1.433 . S
C4827 N4829 1.384 . S
N4828 C4824 1.427 . S
N4828 C4825 1.384 . S
N4829 C4821 1.427 . S
N4829 C4827 1.384 . S
H4830 C4836 0.930 . S
H4831 C4840 0.930 . S
H4832 C4845 0.929 . S
H4833 C4843 0.929 . S
H4834 C4838 0.929 . S
H4835 C4844 0.929 . S
C4836 H4830 0.930 . S
C4836 C4837 1.367 . S
C4836 C4844 1.378 . S
C4837 C4836 1.367 . S
C4837 C4845 1.433 . S
C4838 H4834 0.929 . S
C4838 C4840 1.378 . S
C4838 C4842 1.350 . S
C4839 C4842 1.463 . S
C4839 C4844 1.350 . S
C4839 N4847 1.427 . S
C4840 H4831 0.930 . S
C4840 C4838 1.378 . S
C4840 C4841 1.367 . S
C4841 C4840 1.367 . S
C4841 C4843 1.433 . S
C4842 C4838 1.350 . S
C4842 C4839 1.463 . S
C4842 N4846 1.427 . S
C4843 H4833 0.929 . S
C4843 C4841 1.433 . S
C4843 N4846 1.384 . S
C4844 H4835 0.929 . S
C4844 C4836 1.378 . S
C4844 C4839 1.350 . S
C4845 H4832 0.929 . S
C4845 C4837 1.433 . S
C4845 N4847 1.384 . S
N4846 C4842 1.427 . S
N4846 C4843 1.384 . S
N4847 C4839 1.427 . S
N4847 C4845 1.384 . S
H4848 C4854 0.930 . S
H4849 C4858 0.930 . S
H4850 C4863 0.929 . S
H4851 C4861 0.929 . S
H4852 C4856 0.929 . S
H4853 C4862 0.929 . S
C4854 H4848 0.930 . S
C4854 C4855 1.367 . S
C4854 C4862 1.378 . S
C4855 C4854 1.367 . S
C4855 C4863 1.433 . S
C4856 H4852 0.929 . S
C4856 C4858 1.378 . S
C4856 C4860 1.350 . S
C4857 C4860 1.463 . S
C4857 C4862 1.350 . S
C4857 N4865 1.427 . S
C4858 H4849 0.930 . S
C4858 C4856 1.378 . S
C4858 C4859 1.367 . S
C4859 C4858 1.367 . S
C4859 C4861 1.433 . S
C4860 C4856 1.350 . S
C4860 C4857 1.463 . S
C4860 N4864 1.427 . S
C4861 H4851 0.929 . S
C4861 C4859 1.433 . S
C4861 N4864 1.384 . S
C4862 H4853 0.929 . S
C4862 C4854 1.378 . S
C4862 C4857 1.350 . S
C4863 H4850 0.929 . S
C4863 C4855 1.433 . S
C4863 N4865 1.384 . S
N4864 C4860 1.427 . S
N4864 C4861 1.384 . S
N4865 C4857 1.427 . S
N4865 C4863 1.384 . S
H4866 C4872 0.930 . S
H4867 C4876 0.930 . S
H4868 C4881 0.929 . S
H4869 C4879 0.929 . S
H4870 C4874 0.929 . S
H4871 C4880 0.929 . S
C4872 H4866 0.930 . S
C4872 C4873 1.367 . S
C4872 C4880 1.378 . S
C4873 C4872 1.367 . S
C4873 C4881 1.433 . S
C4874 H4870 0.929 . S
C4874 C4876 1.378 . S
C4874 C4878 1.350 . S
C4875 C4878 1.463 . S
C4875 C4880 1.350 . S
C4875 N4883 1.427 . S
C4876 H4867 0.930 . S
C4876 C4874 1.378 . S
C4876 C4877 1.367 . S
C4877 C4876 1.367 . S
C4877 C4879 1.433 . S
C4878 C4874 1.350 . S
C4878 C4875 1.463 . S
C4878 N4882 1.427 . S
C4879 H4869 0.929 . S
C4879 C4877 1.433 . S
C4879 N4882 1.384 . S
C4880 H4871 0.929 . S
C4880 C4872 1.378 . S
C4880 C4875 1.350 . S
C4881 H4868 0.929 . S
C4881 C4873 1.433 . S
C4881 N4883 1.384 . S
N4882 C4878 1.427 . S
N4882 C4879 1.384 . S
N4883 C4875 1.427 . S
N4883 C4881 1.384 . S
H4884 C4890 0.930 . S
H4885 C4894 0.930 . S
H4886 C4899 0.929 . S
H4887 C4897 0.929 . S
H4888 C4892 0.929 . S
H4889 C4898 0.929 . S
C4890 H4884 0.930 . S
C4890 C4891 1.367 . S
C4890 C4898 1.378 . S
C4891 C4890 1.367 . S
C4891 C4899 1.433 . S
C4892 H4888 0.929 . S
C4892 C4894 1.378 . S
C4892 C4896 1.350 . S
C4893 C4896 1.463 . S
C4893 C4898 1.350 . S
C4893 N4901 1.427 . S
C4894 H4885 0.930 . S
C4894 C4892 1.378 . S
C4894 C4895 1.367 . S
C4895 C4894 1.367 . S
C4895 C4897 1.433 . S
C4896 C4892 1.350 . S
C4896 C4893 1.463 . S
C4896 N4900 1.427 . S
C4897 H4887 0.929 . S
C4897 C4895 1.433 . S
C4897 N4900 1.384 . S
C4898 H4889 0.929 . S
C4898 C4890 1.378 . S
C4898 C4893 1.350 . S
C4899 H4886 0.929 . S
C4899 C4891 1.433 . S
C4899 N4901 1.384 . S
N4900 C4896 1.427 . S
N4900 C4897 1.384 . S
N4901 C4893 1.427 . S
N4901 C4899 1.384 . S
H4902 C4908 0.930 . S
H4903 C4912 0.930 . S
H4904 C4917 0.929 . S
H4905 C4915 0.929 . S
H4906 C4910 0.929 . S
H4907 C4916 0.929 . S
C4908 H4902 0.930 . S
C4908 C4909 1.367 . S
C4908 C4916 1.378 . S
C4909 C4908 1.367 . S
C4909 C4917 1.433 . S
C4910 H4906 0.929 . S
C4910 C4912 1.378 . S
C4910 C4914 1.350 . S
C4911 C4914 1.463 . S
C4911 C4916 1.350 . S
C4911 N4919 1.427 . S
C4912 H4903 0.930 . S
C4912 C4910 1.378 . S
C4912 C4913 1.367 . S
C4913 C4912 1.367 . S
C4913 C4915 1.433 . S
C4914 C4910 1.350 . S
C4914 C4911 1.463 . S
C4914 N4918 1.427 . S
C4915 H4905 0.929 . S
C4915 C4913 1.433 . S
C4915 N4918 1.384 . S
C4916 H4907 0.929 . S
C4916 C4908 1.378 . S
C4916 C4911 1.350 . S
C4917 H4904 0.929 . S
C4917 C4909 1.433 . S
C4917 N4919 1.384 . S
N4918 C4914 1.427 . S
N4918 C4915 1.384 . S
N4919 C4911 1.427 . S
N4919 C4917 1.384 . S
H4920 C4926 0.930 . S
H4921 C4930 0.930 . S
H4922 C4935 0.929 . S
H4923 C4933 0.929 . S
H4924 C4928 0.929 . S
H4925 C4934 0.929 . S
C4926 H4920 0.930 . S
C4926 C4927 1.367 . S
C4926 C4934 1.378 . S
C4927 C4926 1.367 . S
C4927 C4935 1.433 . S
C4928 H4924 0.929 . S
C4928 C4930 1.378 . S
C4928 C4932 1.350 . S
C4929 C4932 1.463 . S
C4929 C4934 1.350 . S
C4929 N4937 1.427 . S
C4930 H4921 0.930 . S
C4930 C4928 1.378 . S
C4930 C4931 1.367 . S
C4931 C4930 1.367 . S
C4931 C4933 1.433 . S
C4932 C4928 1.350 . S
C4932 C4929 1.463 . S
C4932 N4936 1.427 . S
C4933 H4923 0.929 . S
C4933 C4931 1.433 . S
C4933 N4936 1.384 . S
C4934 H4925 0.929 . S
C4934 C4926 1.378 . S
C4934 C4929 1.350 . S
C4935 H4922 0.929 . S
C4935 C4927 1.433 . S
C4935 N4937 1.384 . S
N4936 C4932 1.427 . S
N4936 C4933 1.384 . S
N4937 C4929 1.427 . S
N4937 C4935 1.384 . S
H4938 C4944 0.930 . S
H4939 C4948 0.930 . S
H4940 C4953 0.929 . S
H4941 C4951 0.929 . S
H4942 C4946 0.929 . S
H4943 C4952 0.929 . S
C4944 H4938 0.930 . S
C4944 C4945 1.367 . S
C4944 C4952 1.378 . S
C4945 C4944 1.367 . S
C4945 C4953 1.433 . S
C4946 H4942 0.929 . S
C4946 C4948 1.378 . S
C4946 C4950 1.350 . S
C4947 C4950 1.463 . S
C4947 C4952 1.350 . S
C4947 N4955 1.427 . S
C4948 H4939 0.930 . S
C4948 C4946 1.378 . S
C4948 C4949 1.367 . S
C4949 C4948 1.367 . S
C4949 C4951 1.433 . S
C4950 C4946 1.350 . S
C4950 C4947 1.463 . S
C4950 N4954 1.427 . S
C4951 H4941 0.929 . S
C4951 C4949 1.433 . S
C4951 N4954 1.384 . S
C4952 H4943 0.929 . S
C4952 C4944 1.378 . S
C4952 C4947 1.350 . S
C4953 H4940 0.929 . S
C4953 C4945 1.433 . S
C4953 N4955 1.384 . S
N4954 C4950 1.427 . S
N4954 C4951 1.384 . S
N4955 C4947 1.427 . S
N4955 C4953 1.384 . S
H4956 C4962 0.930 . S
H4957 C4966 0.930 . S
H4958 C4971 0.929 . S
H4959 C4969 0.929 . S
H4960 C4964 0.929 . S
H4961 C4970 0.929 . S
C4962 H4956 0.930 . S
C4962 C4963 1.367 . S
C4962 C4970 1.378 . S
C4963 C4962 1.367 . S
C4963 C4971 1.433 . S
C4964 H4960 0.929 . S
C4964 C4966 1.378 . S
C4964 C4968 1.350 . S
C4965 C4968 1.463 . S
C4965 C4970 1.350 . S
C4965 N4973 1.427 . S
C4966 H4957 0.930 . S
C4966 C4964 1.378 . S
C4966 C4967 1.367 . S
C4967 C4966 1.367 . S
C4967 C4969 1.433 . S
C4968 C4964 1.350 . S
C4968 C4965 1.463 . S
C4968 N4972 1.427 . S
C4969 H4959 0.929 . S
C4969 C4967 1.433 . S
C4969 N4972 1.384 . S
C4970 H4961 0.929 . S
C4970 C4962 1.378 . S
C4970 C4965 1.350 . S
C4971 H4958 0.929 . S
C4971 C4963 1.433 . S
C4971 N4973 1.384 . S
N4972 C4968 1.427 . S
N4972 C4969 1.384 . S
N4973 C4965 1.427 . S
N4973 C4971 1.384 . S
H4974 C4980 0.930 . S
H4975 C4984 0.930 . S
H4976 C4989 0.929 . S
H4977 C4987 0.929 . S
H4978 C4982 0.929 . S
H4979 C4988 0.929 . S
C4980 H4974 0.930 . S
C4980 C4981 1.367 . S
C4980 C4988 1.378 . S
C4981 C4980 1.367 . S
C4981 C4989 1.433 . S
C4982 H4978 0.929 . S
C4982 C4984 1.378 . S
C4982 C4986 1.350 . S
C4983 C4986 1.463 . S
C4983 C4988 1.350 . S
C4983 N4991 1.427 . S
C4984 H4975 0.930 . S
C4984 C4982 1.378 . S
C4984 C4985 1.367 . S
C4985 C4984 1.367 . S
C4985 C4987 1.433 . S
C4986 C4982 1.350 . S
C4986 C4983 1.463 . S
C4986 N4990 1.427 . S
C4987 H4977 0.929 . S
C4987 C4985 1.433 . S
C4987 N4990 1.384 . S
C4988 H4979 0.929 . S
C4988 C4980 1.378 . S
C4988 C4983 1.350 . S
C4989 H4976 0.929 . S
C4989 C4981 1.433 . S
C4989 N4991 1.384 . S
N4990 C4986 1.427 . S
N4990 C4987 1.384 . S
N4991 C4983 1.427 . S
N4991 C4989 1.384 . S
H4992 C4998 0.930 . S
H4993 C5002 0.930 . S
H4994 C5007 0.929 . S
H4995 C5005 0.929 . S
H4996 C5000 0.929 . S
H4997 C5006 0.929 . S
C4998 H4992 0.930 . S
C4998 C4999 1.367 . S
C4998 C5006 1.378 . S
C4999 C4998 1.367 . S
C4999 C5007 1.433 . S
C5000 H4996 0.929 . S
C5000 C5002 1.378 . S
C5000 C5004 1.350 . S
C5001 C5004 1.463 . S
C5001 C5006 1.350 . S
C5001 N5009 1.427 . S
C5002 H4993 0.930 . S
C5002 C5000 1.378 . S
C5002 C5003 1.367 . S
C5003 C5002 1.367 . S
C5003 C5005 1.433 . S
C5004 C5000 1.350 . S
C5004 C5001 1.463 . S
C5004 N5008 1.427 . S
C5005 H4995 0.929 . S
C5005 C5003 1.433 . S
C5005 N5008 1.384 . S
C5006 H4997 0.929 . S
C5006 C4998 1.378 . S
C5006 C5001 1.350 . S
C5007 H4994 0.929 . S
C5007 C4999 1.433 . S
C5007 N5009 1.384 . S
N5008 C5004 1.427 . S
N5008 C5005 1.384 . S
N5009 C5001 1.427 . S
N5009 C5007 1.384 . S
H5010 C5016 0.930 . S
H5011 C5020 0.930 . S
H5012 C5025 0.929 . S
H5013 C5023 0.929 . S
H5014 C5018 0.929 . S
H5015 C5024 0.929 . S
C5016 H5010 0.930 . S
C5016 C5017 1.367 . S
C5016 C5024 1.378 . S
C5017 C5016 1.367 . S
C5017 C5025 1.433 . S
C5018 H5014 0.929 . S
C5018 C5020 1.378 . S
C5018 C5022 1.350 . S
C5019 C5022 1.463 . S
C5019 C5024 1.350 . S
C5019 N5027 1.427 . S
C5020 H5011 0.930 . S
C5020 C5018 1.378 . S
C5020 C5021 1.367 . S
C5021 C5020 1.367 . S
C5021 C5023 1.433 . S
C5022 C5018 1.350 . S
C5022 C5019 1.463 . S
C5022 N5026 1.427 . S
C5023 H5013 0.929 . S
C5023 C5021 1.433 . S
C5023 N5026 1.384 . S
C5024 H5015 0.929 . S
C5024 C5016 1.378 . S
C5024 C5019 1.350 . S
C5025 H5012 0.929 . S
C5025 C5017 1.433 . S
C5025 N5027 1.384 . S
N5026 C5022 1.427 . S
N5026 C5023 1.384 . S
N5027 C5019 1.427 . S
N5027 C5025 1.384 . S
H5028 C5034 0.930 . S
H5029 C5038 0.930 . S
H5030 C5043 0.929 . S
H5031 C5041 0.929 . S
H5032 C5036 0.929 . S
H5033 C5042 0.929 . S
C5034 H5028 0.930 . S
C5034 C5035 1.367 . S
C5034 C5042 1.378 . S
C5035 C5034 1.367 . S
C5035 C5043 1.433 . S
C5036 H5032 0.929 . S
C5036 C5038 1.378 . S
C5036 C5040 1.350 . S
C5037 C5040 1.463 . S
C5037 C5042 1.350 . S
C5037 N5045 1.427 . S
C5038 H5029 0.930 . S
C5038 C5036 1.378 . S
C5038 C5039 1.367 . S
C5039 C5038 1.367 . S
C5039 C5041 1.433 . S
C5040 C5036 1.350 . S
C5040 C5037 1.463 . S
C5040 N5044 1.427 . S
C5041 H5031 0.929 . S
C5041 C5039 1.433 . S
C5041 N5044 1.384 . S
C5042 H5033 0.929 . S
C5042 C5034 1.378 . S
C5042 C5037 1.350 . S
C5043 H5030 0.929 . S
C5043 C5035 1.433 . S
C5043 N5045 1.384 . S
N5044 C5040 1.427 . S
N5044 C5041 1.384 . S
N5045 C5037 1.427 . S
N5045 C5043 1.384 . S
H5046 C5052 0.930 . S
H5047 C5056 0.930 . S
H5048 C5061 0.929 . S
H5049 C5059 0.929 . S
H5050 C5054 0.929 . S
H5051 C5060 0.929 . S
C5052 H5046 0.930 . S
C5052 C5053 1.367 . S
C5052 C5060 1.378 . S
C5053 C5052 1.367 . S
C5053 C5061 1.433 . S
C5054 H5050 0.929 . S
C5054 C5056 1.378 . S
C5054 C5058 1.350 . S
C5055 C5058 1.463 . S
C5055 C5060 1.350 . S
C5055 N5063 1.427 . S
C5056 H5047 0.930 . S
C5056 C5054 1.378 . S
C5056 C5057 1.367 . S
C5057 C5056 1.367 . S
C5057 C5059 1.433 . S
C5058 C5054 1.350 . S
C5058 C5055 1.463 . S
C5058 N5062 1.427 . S
C5059 H5049 0.929 . S
C5059 C5057 1.433 . S
C5059 N5062 1.384 . S
C5060 H5051 0.929 . S
C5060 C5052 1.378 . S
C5060 C5055 1.350 . S
C5061 H5048 0.929 . S
C5061 C5053 1.433 . S
C5061 N5063 1.384 . S
N5062 C5058 1.427 . S
N5062 C5059 1.384 . S
N5063 C5055 1.427 . S
N5063 C5061 1.384 . S
H5064 C5070 0.930 . S
H5065 C5074 0.930 . S
H5066 C5079 0.929 . S
H5067 C5077 0.929 . S
H5068 C5072 0.929 . S
H5069 C5078 0.929 . S
C5070 H5064 0.930 . S
C5070 C5071 1.367 . S
C5070 C5078 1.378 . S
C5071 C5070 1.367 . S
C5071 C5079 1.433 . S
C5072 H5068 0.929 . S
C5072 C5074 1.378 . S
C5072 C5076 1.350 . S
C5073 C5076 1.463 . S
C5073 C5078 1.350 . S
C5073 N5081 1.427 . S
C5074 H5065 0.930 . S
C5074 C5072 1.378 . S
C5074 C5075 1.367 . S
C5075 C5074 1.367 . S
C5075 C5077 1.433 . S
C5076 C5072 1.350 . S
C5076 C5073 1.463 . S
C5076 N5080 1.427 . S
C5077 H5067 0.929 . S
C5077 C5075 1.433 . S
C5077 N5080 1.384 . S
C5078 H5069 0.929 . S
C5078 C5070 1.378 . S
C5078 C5073 1.350 . S
C5079 H5066 0.929 . S
C5079 C5071 1.433 . S
C5079 N5081 1.384 . S
N5080 C5076 1.427 . S
N5080 C5077 1.384 . S
N5081 C5073 1.427 . S
N5081 C5079 1.384 . S
H5082 C5088 0.930 . S
H5083 C5092 0.930 . S
H5084 C5097 0.929 . S
H5085 C5095 0.929 . S
H5086 C5090 0.929 . S
H5087 C5096 0.929 . S
C5088 H5082 0.930 . S
C5088 C5089 1.367 . S
C5088 C5096 1.378 . S
C5089 C5088 1.367 . S
C5089 C5097 1.433 . S
C5090 H5086 0.929 . S
C5090 C5092 1.378 . S
C5090 C5094 1.350 . S
C5091 C5094 1.463 . S
C5091 C5096 1.350 . S
C5091 N5099 1.427 . S
C5092 H5083 0.930 . S
C5092 C5090 1.378 . S
C5092 C5093 1.367 . S
C5093 C5092 1.367 . S
C5093 C5095 1.433 . S
C5094 C5090 1.350 . S
C5094 C5091 1.463 . S
C5094 N5098 1.427 . S
C5095 H5085 0.929 . S
C5095 C5093 1.433 . S
C5095 N5098 1.384 . S
C5096 H5087 0.929 . S
C5096 C5088 1.378 . S
C5096 C5091 1.350 . S
C5097 H5084 0.929 . S
C5097 C5089 1.433 . S
C5097 N5099 1.384 . S
N5098 C5094 1.427 . S
N5098 C5095 1.384 . S
N5099 C5091 1.427 . S
N5099 C5097 1.384 . S
H5100 C5106 0.930 . S
H5101 C5110 0.930 . S
H5102 C5115 0.929 . S
H5103 C5113 0.929 . S
H5104 C5108 0.929 . S
H5105 C5114 0.929 . S
C5106 H5100 0.930 . S
C5106 C5107 1.367 . S
C5106 C5114 1.378 . S
C5107 C5106 1.367 . S
C5107 C5115 1.433 . S
C5108 H5104 0.929 . S
C5108 C5110 1.378 . S
C5108 C5112 1.350 . S
C5109 C5112 1.463 . S
C5109 C5114 1.350 . S
C5109 N5117 1.427 . S
C5110 H5101 0.930 . S
C5110 C5108 1.378 . S
C5110 C5111 1.367 . S
C5111 C5110 1.367 . S
C5111 C5113 1.433 . S
C5112 C5108 1.350 . S
C5112 C5109 1.463 . S
C5112 N5116 1.427 . S
C5113 H5103 0.929 . S
C5113 C5111 1.433 . S
C5113 N5116 1.384 . S
C5114 H5105 0.929 . S
C5114 C5106 1.378 . S
C5114 C5109 1.350 . S
C5115 H5102 0.929 . S
C5115 C5107 1.433 . S
C5115 N5117 1.384 . S
N5116 C5112 1.427 . S
N5116 C5113 1.384 . S
N5117 C5109 1.427 . S
N5117 C5115 1.384 . S
H5118 C5124 0.930 . S
H5119 C5128 0.930 . S
H5120 C5133 0.929 . S
H5121 C5131 0.929 . S
H5122 C5126 0.929 . S
H5123 C5132 0.929 . S
C5124 H5118 0.930 . S
C5124 C5125 1.367 . S
C5124 C5132 1.378 . S
C5125 C5124 1.367 . S
C5125 C5133 1.433 . S
C5126 H5122 0.929 . S
C5126 C5128 1.378 . S
C5126 C5130 1.350 . S
C5127 C5130 1.463 . S
C5127 C5132 1.350 . S
C5127 N5135 1.427 . S
C5128 H5119 0.930 . S
C5128 C5126 1.378 . S
C5128 C5129 1.367 . S
C5129 C5128 1.367 . S
C5129 C5131 1.433 . S
C5130 C5126 1.350 . S
C5130 C5127 1.463 . S
C5130 N5134 1.427 . S
C5131 H5121 0.929 . S
C5131 C5129 1.433 . S
C5131 N5134 1.384 . S
C5132 H5123 0.929 . S
C5132 C5124 1.378 . S
C5132 C5127 1.350 . S
C5133 H5120 0.929 . S
C5133 C5125 1.433 . S
C5133 N5135 1.384 . S
N5134 C5130 1.427 . S
N5134 C5131 1.384 . S
N5135 C5127 1.427 . S
N5135 C5133 1.384 . S
H5136 C5142 0.930 . S
H5137 C5146 0.930 . S
H5138 C5151 0.929 . S
H5139 C5149 0.929 . S
H5140 C5144 0.929 . S
H5141 C5150 0.929 . S
C5142 H5136 0.930 . S
C5142 C5143 1.367 . S
C5142 C5150 1.378 . S
C5143 C5142 1.367 . S
C5143 C5151 1.433 . S
C5144 H5140 0.929 . S
C5144 C5146 1.378 . S
C5144 C5148 1.350 . S
C5145 C5148 1.463 . S
C5145 C5150 1.350 . S
C5145 N5153 1.427 . S
C5146 H5137 0.930 . S
C5146 C5144 1.378 . S
C5146 C5147 1.367 . S
C5147 C5146 1.367 . S
C5147 C5149 1.433 . S
C5148 C5144 1.350 . S
C5148 C5145 1.463 . S
C5148 N5152 1.427 . S
C5149 H5139 0.929 . S
C5149 C5147 1.433 . S
C5149 N5152 1.384 . S
C5150 H5141 0.929 . S
C5150 C5142 1.378 . S
C5150 C5145 1.350 . S
C5151 H5138 0.929 . S
C5151 C5143 1.433 . S
C5151 N5153 1.384 . S
N5152 C5148 1.427 . S
N5152 C5149 1.384 . S
N5153 C5145 1.427 . S
N5153 C5151 1.384 . S
H5154 C5160 0.930 . S
H5155 C5164 0.930 . S
H5156 C5169 0.929 . S
H5157 C5167 0.929 . S
H5158 C5162 0.929 . S
H5159 C5168 0.929 . S
C5160 H5154 0.930 . S
C5160 C5161 1.367 . S
C5160 C5168 1.378 . S
C5161 C5160 1.367 . S
C5161 C5169 1.433 . S
C5162 H5158 0.929 . S
C5162 C5164 1.378 . S
C5162 C5166 1.350 . S
C5163 C5166 1.463 . S
C5163 C5168 1.350 . S
C5163 N5171 1.427 . S
C5164 H5155 0.930 . S
C5164 C5162 1.378 . S
C5164 C5165 1.367 . S
C5165 C5164 1.367 . S
C5165 C5167 1.433 . S
C5166 C5162 1.350 . S
C5166 C5163 1.463 . S
C5166 N5170 1.427 . S
C5167 H5157 0.929 . S
C5167 C5165 1.433 . S
C5167 N5170 1.384 . S
C5168 H5159 0.929 . S
C5168 C5160 1.378 . S
C5168 C5163 1.350 . S
C5169 H5156 0.929 . S
C5169 C5161 1.433 . S
C5169 N5171 1.384 . S
N5170 C5166 1.427 . S
N5170 C5167 1.384 . S
N5171 C5163 1.427 . S
N5171 C5169 1.384 . S
H5172 C5178 0.930 . S
H5173 C5182 0.930 . S
H5174 C5187 0.929 . S
H5175 C5185 0.929 . S
H5176 C5180 0.929 . S
H5177 C5186 0.929 . S
C5178 H5172 0.930 . S
C5178 C5179 1.367 . S
C5178 C5186 1.378 . S
C5179 C5178 1.367 . S
C5179 C5187 1.433 . S
C5180 H5176 0.929 . S
C5180 C5182 1.378 . S
C5180 C5184 1.350 . S
C5181 C5184 1.463 . S
C5181 C5186 1.350 . S
C5181 N5189 1.427 . S
C5182 H5173 0.930 . S
C5182 C5180 1.378 . S
C5182 C5183 1.367 . S
C5183 C5182 1.367 . S
C5183 C5185 1.433 . S
C5184 C5180 1.350 . S
C5184 C5181 1.463 . S
C5184 N5188 1.427 . S
C5185 H5175 0.929 . S
C5185 C5183 1.433 . S
C5185 N5188 1.384 . S
C5186 H5177 0.929 . S
C5186 C5178 1.378 . S
C5186 C5181 1.350 . S
C5187 H5174 0.929 . S
C5187 C5179 1.433 . S
C5187 N5189 1.384 . S
N5188 C5184 1.427 . S
N5188 C5185 1.384 . S
N5189 C5181 1.427 . S
N5189 C5187 1.384 . S
H5190 C5196 0.930 . S
H5191 C5200 0.930 . S
H5192 C5205 0.929 . S
H5193 C5203 0.929 . S
H5194 C5198 0.929 . S
H5195 C5204 0.929 . S
C5196 H5190 0.930 . S
C5196 C5197 1.367 . S
C5196 C5204 1.378 . S
C5197 C5196 1.367 . S
C5197 C5205 1.433 . S
C5198 H5194 0.929 . S
C5198 C5200 1.378 . S
C5198 C5202 1.350 . S
C5199 C5202 1.463 . S
C5199 C5204 1.350 . S
C5199 N5207 1.427 . S
C5200 H5191 0.930 . S
C5200 C5198 1.378 . S
C5200 C5201 1.367 . S
C5201 C5200 1.367 . S
C5201 C5203 1.433 . S
C5202 C5198 1.350 . S
C5202 C5199 1.463 . S
C5202 N5206 1.427 . S
C5203 H5193 0.929 . S
C5203 C5201 1.433 . S
C5203 N5206 1.384 . S
C5204 H5195 0.929 . S
C5204 C5196 1.378 . S
C5204 C5199 1.350 . S
C5205 H5192 0.929 . S
C5205 C5197 1.433 . S
C5205 N5207 1.384 . S
N5206 C5202 1.427 . S
N5206 C5203 1.384 . S
N5207 C5199 1.427 . S
N5207 C5205 1.384 . S
H5208 C5214 0.930 . S
H5209 C5218 0.930 . S
H5210 C5223 0.929 . S
H5211 C5221 0.929 . S
H5212 C5216 0.929 . S
H5213 C5222 0.929 . S
C5214 H5208 0.930 . S
C5214 C5215 1.367 . S
C5214 C5222 1.378 . S
C5215 C5214 1.367 . S
C5215 C5223 1.433 . S
C5216 H5212 0.929 . S
C5216 C5218 1.378 . S
C5216 C5220 1.350 . S
C5217 C5220 1.463 . S
C5217 C5222 1.350 . S
C5217 N5225 1.427 . S
C5218 H5209 0.930 . S
C5218 C5216 1.378 . S
C5218 C5219 1.367 . S
C5219 C5218 1.367 . S
C5219 C5221 1.433 . S
C5220 C5216 1.350 . S
C5220 C5217 1.463 . S
C5220 N5224 1.427 . S
C5221 H5211 0.929 . S
C5221 C5219 1.433 . S
C5221 N5224 1.384 . S
C5222 H5213 0.929 . S
C5222 C5214 1.378 . S
C5222 C5217 1.350 . S
C5223 H5210 0.929 . S
C5223 C5215 1.433 . S
C5223 N5225 1.384 . S
N5224 C5220 1.427 . S
N5224 C5221 1.384 . S
N5225 C5217 1.427 . S
N5225 C5223 1.384 . S
H5226 C5232 0.930 . S
H5227 C5236 0.930 . S
H5228 C5241 0.929 . S
H5229 C5239 0.929 . S
H5230 C5234 0.929 . S
H5231 C5240 0.929 . S
C5232 H5226 0.930 . S
C5232 C5233 1.367 . S
C5232 C5240 1.378 . S
C5233 C5232 1.367 . S
C5233 C5241 1.433 . S
C5234 H5230 0.929 . S
C5234 C5236 1.378 . S
C5234 C5238 1.350 . S
C5235 C5238 1.463 . S
C5235 C5240 1.350 . S
C5235 N5243 1.427 . S
C5236 H5227 0.930 . S
C5236 C5234 1.378 . S
C5236 C5237 1.367 . S
C5237 C5236 1.367 . S
C5237 C5239 1.433 . S
C5238 C5234 1.350 . S
C5238 C5235 1.463 . S
C5238 N5242 1.427 . S
C5239 H5229 0.929 . S
C5239 C5237 1.433 . S
C5239 N5242 1.384 . S
C5240 H5231 0.929 . S
C5240 C5232 1.378 . S
C5240 C5235 1.350 . S
C5241 H5228 0.929 . S
C5241 C5233 1.433 . S
C5241 N5243 1.384 . S
N5242 C5238 1.427 . S
N5242 C5239 1.384 . S
N5243 C5235 1.427 . S
N5243 C5241 1.384 . S
H5244 C5250 0.930 . S
H5245 C5254 0.930 . S
H5246 C5259 0.929 . S
H5247 C5257 0.929 . S
H5248 C5252 0.929 . S
H5249 C5258 0.929 . S
C5250 H5244 0.930 . S
C5250 C5251 1.367 . S
C5250 C5258 1.378 . S
C5251 C5250 1.367 . S
C5251 C5259 1.433 . S
C5252 H5248 0.929 . S
C5252 C5254 1.378 . S
C5252 C5256 1.350 . S
C5253 C5256 1.463 . S
C5253 C5258 1.350 . S
C5253 N5261 1.427 . S
C5254 H5245 0.930 . S
C5254 C5252 1.378 . S
C5254 C5255 1.367 . S
C5255 C5254 1.367 . S
C5255 C5257 1.433 . S
C5256 C5252 1.350 . S
C5256 C5253 1.463 . S
C5256 N5260 1.427 . S
C5257 H5247 0.929 . S
C5257 C5255 1.433 . S
C5257 N5260 1.384 . S
C5258 H5249 0.929 . S
C5258 C5250 1.378 . S
C5258 C5253 1.350 . S
C5259 H5246 0.929 . S
C5259 C5251 1.433 . S
C5259 N5261 1.384 . S
N5260 C5256 1.427 . S
N5260 C5257 1.384 . S
N5261 C5253 1.427 . S
N5261 C5259 1.384 . S
H5262 C5268 0.930 . S
H5263 C5272 0.930 . S
H5264 C5277 0.929 . S
H5265 C5275 0.929 . S
H5266 C5270 0.929 . S
H5267 C5276 0.929 . S
C5268 H5262 0.930 . S
C5268 C5269 1.367 . S
C5268 C5276 1.378 . S
C5269 C5268 1.367 . S
C5269 C5277 1.433 . S
C5270 H5266 0.929 . S
C5270 C5272 1.378 . S
C5270 C5274 1.350 . S
C5271 C5274 1.463 . S
C5271 C5276 1.350 . S
C5271 N5279 1.427 . S
C5272 H5263 0.930 . S
C5272 C5270 1.378 . S
C5272 C5273 1.367 . S
C5273 C5272 1.367 . S
C5273 C5275 1.433 . S
C5274 C5270 1.350 . S
C5274 C5271 1.463 . S
C5274 N5278 1.427 . S
C5275 H5265 0.929 . S
C5275 C5273 1.433 . S
C5275 N5278 1.384 . S
C5276 H5267 0.929 . S
C5276 C5268 1.378 . S
C5276 C5271 1.350 . S
C5277 H5264 0.929 . S
C5277 C5269 1.433 . S
C5277 N5279 1.384 . S
N5278 C5274 1.427 . S
N5278 C5275 1.384 . S
N5279 C5271 1.427 . S
N5279 C5277 1.384 . S
H5280 C5286 0.930 . S
H5281 C5290 0.930 . S
H5282 C5295 0.929 . S
H5283 C5293 0.929 . S
H5284 C5288 0.929 . S
H5285 C5294 0.929 . S
C5286 H5280 0.930 . S
C5286 C5287 1.367 . S
C5286 C5294 1.378 . S
C5287 C5286 1.367 . S
C5287 C5295 1.433 . S
C5288 H5284 0.929 . S
C5288 C5290 1.378 . S
C5288 C5292 1.350 . S
C5289 C5292 1.463 . S
C5289 C5294 1.350 . S
C5289 N5297 1.427 . S
C5290 H5281 0.930 . S
C5290 C5288 1.378 . S
C5290 C5291 1.367 . S
C5291 C5290 1.367 . S
C5291 C5293 1.433 . S
C5292 C5288 1.350 . S
C5292 C5289 1.463 . S
C5292 N5296 1.427 . S
C5293 H5283 0.929 . S
C5293 C5291 1.433 . S
C5293 N5296 1.384 . S
C5294 H5285 0.929 . S
C5294 C5286 1.378 . S
C5294 C5289 1.350 . S
C5295 H5282 0.929 . S
C5295 C5287 1.433 . S
C5295 N5297 1.384 . S
N5296 C5292 1.427 . S
N5296 C5293 1.384 . S
N5297 C5289 1.427 . S
N5297 C5295 1.384 . S
H5298 C5304 0.930 . S
H5299 C5308 0.930 . S
H5300 C5313 0.929 . S
H5301 C5311 0.929 . S
H5302 C5306 0.929 . S
H5303 C5312 0.929 . S
C5304 H5298 0.930 . S
C5304 C5305 1.367 . S
C5304 C5312 1.378 . S
C5305 C5304 1.367 . S
C5305 C5313 1.433 . S
C5306 H5302 0.929 . S
C5306 C5308 1.378 . S
C5306 C5310 1.350 . S
C5307 C5310 1.463 . S
C5307 C5312 1.350 . S
C5307 N5315 1.427 . S
C5308 H5299 0.930 . S
C5308 C5306 1.378 . S
C5308 C5309 1.367 . S
C5309 C5308 1.367 . S
C5309 C5311 1.433 . S
C5310 C5306 1.350 . S
C5310 C5307 1.463 . S
C5310 N5314 1.427 . S
C5311 H5301 0.929 . S
C5311 C5309 1.433 . S
C5311 N5314 1.384 . S
C5312 H5303 0.929 . S
C5312 C5304 1.378 . S
C5312 C5307 1.350 . S
C5313 H5300 0.929 . S
C5313 C5305 1.433 . S
C5313 N5315 1.384 . S
N5314 C5310 1.427 . S
N5314 C5311 1.384 . S
N5315 C5307 1.427 . S
N5315 C5313 1.384 . S
H5316 C5322 0.930 . S
H5317 C5326 0.930 . S
H5318 C5331 0.929 . S
H5319 C5329 0.929 . S
H5320 C5324 0.929 . S
H5321 C5330 0.929 . S
C5322 H5316 0.930 . S
C5322 C5323 1.367 . S
C5322 C5330 1.378 . S
C5323 C5322 1.367 . S
C5323 C5331 1.433 . S
C5324 H5320 0.929 . S
C5324 C5326 1.378 . S
C5324 C5328 1.350 . S
C5325 C5328 1.463 . S
C5325 C5330 1.350 . S
C5325 N5333 1.427 . S
C5326 H5317 0.930 . S
C5326 C5324 1.378 . S
C5326 C5327 1.367 . S
C5327 C5326 1.367 . S
C5327 C5329 1.433 . S
C5328 C5324 1.350 . S
C5328 C5325 1.463 . S
C5328 N5332 1.427 . S
C5329 H5319 0.929 . S
C5329 C5327 1.433 . S
C5329 N5332 1.384 . S
C5330 H5321 0.929 . S
C5330 C5322 1.378 . S
C5330 C5325 1.350 . S
C5331 H5318 0.929 . S
C5331 C5323 1.433 . S
C5331 N5333 1.384 . S
N5332 C5328 1.427 . S
N5332 C5329 1.384 . S
N5333 C5325 1.427 . S
N5333 C5331 1.384 . S
H5334 C5340 0.930 . S
H5335 C5344 0.930 . S
H5336 C5349 0.929 . S
H5337 C5347 0.929 . S
H5338 C5342 0.929 . S
H5339 C5348 0.929 . S
C5340 H5334 0.930 . S
C5340 C5341 1.367 . S
C5340 C5348 1.378 . S
C5341 C5340 1.367 . S
C5341 C5349 1.433 . S
C5342 H5338 0.929 . S
C5342 C5344 1.378 . S
C5342 C5346 1.350 . S
C5343 C5346 1.463 . S
C5343 C5348 1.350 . S
C5343 N5351 1.427 . S
C5344 H5335 0.930 . S
C5344 C5342 1.378 . S
C5344 C5345 1.367 . S
C5345 C5344 1.367 . S
C5345 C5347 1.433 . S
C5346 C5342 1.350 . S
C5346 C5343 1.463 . S
C5346 N5350 1.427 . S
C5347 H5337 0.929 . S
C5347 C5345 1.433 . S
C5347 N5350 1.384 . S
C5348 H5339 0.929 . S
C5348 C5340 1.378 . S
C5348 C5343 1.350 . S
C5349 H5336 0.929 . S
C5349 C5341 1.433 . S
C5349 N5351 1.384 . S
N5350 C5346 1.427 . S
N5350 C5347 1.384 . S
N5351 C5343 1.427 . S
N5351 C5349 1.384 . S
H5352 C5358 0.930 . S
H5353 C5362 0.930 . S
H5354 C5367 0.929 . S
H5355 C5365 0.929 . S
H5356 C5360 0.929 . S
H5357 C5366 0.929 . S
C5358 H5352 0.930 . S
C5358 C5359 1.367 . S
C5358 C5366 1.378 . S
C5359 C5358 1.367 . S
C5359 C5367 1.433 . S
C5360 H5356 0.929 . S
C5360 C5362 1.378 . S
C5360 C5364 1.350 . S
C5361 C5364 1.463 . S
C5361 C5366 1.350 . S
C5361 N5369 1.427 . S
C5362 H5353 0.930 . S
C5362 C5360 1.378 . S
C5362 C5363 1.367 . S
C5363 C5362 1.367 . S
C5363 C5365 1.433 . S
C5364 C5360 1.350 . S
C5364 C5361 1.463 . S
C5364 N5368 1.427 . S
C5365 H5355 0.929 . S
C5365 C5363 1.433 . S
C5365 N5368 1.384 . S
C5366 H5357 0.929 . S
C5366 C5358 1.378 . S
C5366 C5361 1.350 . S
C5367 H5354 0.929 . S
C5367 C5359 1.433 . S
C5367 N5369 1.384 . S
N5368 C5364 1.427 . S
N5368 C5365 1.384 . S
N5369 C5361 1.427 . S
N5369 C5367 1.384 . S
H5370 C5376 0.930 . S
H5371 C5380 0.930 . S
H5372 C5385 0.929 . S
H5373 C5383 0.929 . S
H5374 C5378 0.929 . S
H5375 C5384 0.929 . S
C5376 H5370 0.930 . S
C5376 C5377 1.367 . S
C5376 C5384 1.378 . S
C5377 C5376 1.367 . S
C5377 C5385 1.433 . S
C5378 H5374 0.929 . S
C5378 C5380 1.378 . S
C5378 C5382 1.350 . S
C5379 C5382 1.463 . S
C5379 C5384 1.350 . S
C5379 N5387 1.427 . S
C5380 H5371 0.930 . S
C5380 C5378 1.378 . S
C5380 C5381 1.367 . S
C5381 C5380 1.367 . S
C5381 C5383 1.433 . S
C5382 C5378 1.350 . S
C5382 C5379 1.463 . S
C5382 N5386 1.427 . S
C5383 H5373 0.929 . S
C5383 C5381 1.433 . S
C5383 N5386 1.384 . S
C5384 H5375 0.929 . S
C5384 C5376 1.378 . S
C5384 C5379 1.350 . S
C5385 H5372 0.929 . S
C5385 C5377 1.433 . S
C5385 N5387 1.384 . S
N5386 C5382 1.427 . S
N5386 C5383 1.384 . S
N5387 C5379 1.427 . S
N5387 C5385 1.384 . S
H5388 C5394 0.930 . S
H5389 C5398 0.930 . S
H5390 C5403 0.929 . S
H5391 C5401 0.929 . S
H5392 C5396 0.929 . S
H5393 C5402 0.929 . S
C5394 H5388 0.930 . S
C5394 C5395 1.367 . S
C5394 C5402 1.378 . S
C5395 C5394 1.367 . S
C5395 C5403 1.433 . S
C5396 H5392 0.929 . S
C5396 C5398 1.378 . S
C5396 C5400 1.350 . S
C5397 C5400 1.463 . S
C5397 C5402 1.350 . S
C5397 N5405 1.427 . S
C5398 H5389 0.930 . S
C5398 C5396 1.378 . S
C5398 C5399 1.367 . S
C5399 C5398 1.367 . S
C5399 C5401 1.433 . S
C5400 C5396 1.350 . S
C5400 C5397 1.463 . S
C5400 N5404 1.427 . S
C5401 H5391 0.929 . S
C5401 C5399 1.433 . S
C5401 N5404 1.384 . S
C5402 H5393 0.929 . S
C5402 C5394 1.378 . S
C5402 C5397 1.350 . S
C5403 H5390 0.929 . S
C5403 C5395 1.433 . S
C5403 N5405 1.384 . S
N5404 C5400 1.427 . S
N5404 C5401 1.384 . S
N5405 C5397 1.427 . S
N5405 C5403 1.384 . S
H5406 C5412 0.930 . S
H5407 C5416 0.930 . S
H5408 C5421 0.929 . S
H5409 C5419 0.929 . S
H5410 C5414 0.929 . S
H5411 C5420 0.929 . S
C5412 H5406 0.930 . S
C5412 C5413 1.367 . S
C5412 C5420 1.378 . S
C5413 C5412 1.367 . S
C5413 C5421 1.433 . S
C5414 H5410 0.929 . S
C5414 C5416 1.378 . S
C5414 C5418 1.350 . S
C5415 C5418 1.463 . S
C5415 C5420 1.350 . S
C5415 N5423 1.427 . S
C5416 H5407 0.930 . S
C5416 C5414 1.378 . S
C5416 C5417 1.367 . S
C5417 C5416 1.367 . S
C5417 C5419 1.433 . S
C5418 C5414 1.350 . S
C5418 C5415 1.463 . S
C5418 N5422 1.427 . S
C5419 H5409 0.929 . S
C5419 C5417 1.433 . S
C5419 N5422 1.384 . S
C5420 H5411 0.929 . S
C5420 C5412 1.378 . S
C5420 C5415 1.350 . S
C5421 H5408 0.929 . S
C5421 C5413 1.433 . S
C5421 N5423 1.384 . S
N5422 C5418 1.427 . S
N5422 C5419 1.384 . S
N5423 C5415 1.427 . S
N5423 C5421 1.384 . S
H5424 C5430 0.930 . S
H5425 C5434 0.930 . S
H5426 C5439 0.929 . S
H5427 C5437 0.929 . S
H5428 C5432 0.929 . S
H5429 C5438 0.929 . S
C5430 H5424 0.930 . S
C5430 C5431 1.367 . S
C5430 C5438 1.378 . S
C5431 C5430 1.367 . S
C5431 C5439 1.433 . S
C5432 H5428 0.929 . S
C5432 C5434 1.378 . S
C5432 C5436 1.350 . S
C5433 C5436 1.463 . S
C5433 C5438 1.350 . S
C5433 N5441 1.427 . S
C5434 H5425 0.930 . S
C5434 C5432 1.378 . S
C5434 C5435 1.367 . S
C5435 C5434 1.367 . S
C5435 C5437 1.433 . S
C5436 C5432 1.350 . S
C5436 C5433 1.463 . S
C5436 N5440 1.427 . S
C5437 H5427 0.929 . S
C5437 C5435 1.433 . S
C5437 N5440 1.384 . S
C5438 H5429 0.929 . S
C5438 C5430 1.378 . S
C5438 C5433 1.350 . S
C5439 H5426 0.929 . S
C5439 C5431 1.433 . S
C5439 N5441 1.384 . S
N5440 C5436 1.427 . S
N5440 C5437 1.384 . S
N5441 C5433 1.427 . S
N5441 C5439 1.384 . S
H5442 C5448 0.930 . S
H5443 C5452 0.930 . S
H5444 C5457 0.929 . S
H5445 C5455 0.929 . S
H5446 C5450 0.929 . S
H5447 C5456 0.929 . S
C5448 H5442 0.930 . S
C5448 C5449 1.367 . S
C5448 C5456 1.378 . S
C5449 C5448 1.367 . S
C5449 C5457 1.433 . S
C5450 H5446 0.929 . S
C5450 C5452 1.378 . S
C5450 C5454 1.350 . S
C5451 C5454 1.463 . S
C5451 C5456 1.350 . S
C5451 N5459 1.427 . S
C5452 H5443 0.930 . S
C5452 C5450 1.378 . S
C5452 C5453 1.367 . S
C5453 C5452 1.367 . S
C5453 C5455 1.433 . S
C5454 C5450 1.350 . S
C5454 C5451 1.463 . S
C5454 N5458 1.427 . S
C5455 H5445 0.929 . S
C5455 C5453 1.433 . S
C5455 N5458 1.384 . S
C5456 H5447 0.929 . S
C5456 C5448 1.378 . S
C5456 C5451 1.350 . S
C5457 H5444 0.929 . S
C5457 C5449 1.433 . S
C5457 N5459 1.384 . S
N5458 C5454 1.427 . S
N5458 C5455 1.384 . S
N5459 C5451 1.427 . S
N5459 C5457 1.384 . S
H5460 C5466 0.930 . S
H5461 C5470 0.930 . S
H5462 C5475 0.929 . S
H5463 C5473 0.929 . S
H5464 C5468 0.929 . S
H5465 C5474 0.929 . S
C5466 H5460 0.930 . S
C5466 C5467 1.367 . S
C5466 C5474 1.378 . S
C5467 C5466 1.367 . S
C5467 C5475 1.433 . S
C5468 H5464 0.929 . S
C5468 C5470 1.378 . S
C5468 C5472 1.350 . S
C5469 C5472 1.463 . S
C5469 C5474 1.350 . S
C5469 N5477 1.427 . S
C5470 H5461 0.930 . S
C5470 C5468 1.378 . S
C5470 C5471 1.367 . S
C5471 C5470 1.367 . S
C5471 C5473 1.433 . S
C5472 C5468 1.350 . S
C5472 C5469 1.463 . S
C5472 N5476 1.427 . S
C5473 H5463 0.929 . S
C5473 C5471 1.433 . S
C5473 N5476 1.384 . S
C5474 H5465 0.929 . S
C5474 C5466 1.378 . S
C5474 C5469 1.350 . S
C5475 H5462 0.929 . S
C5475 C5467 1.433 . S
C5475 N5477 1.384 . S
N5476 C5472 1.427 . S
N5476 C5473 1.384 . S
N5477 C5469 1.427 . S
N5477 C5475 1.384 . S
H5478 C5484 0.930 . S
H5479 C5488 0.930 . S
H5480 C5493 0.929 . S
H5481 C5491 0.929 . S
H5482 C5486 0.929 . S
H5483 C5492 0.929 . S
C5484 H5478 0.930 . S
C5484 C5485 1.367 . S
C5484 C5492 1.378 . S
C5485 C5484 1.367 . S
C5485 C5493 1.433 . S
C5486 H5482 0.929 . S
C5486 C5488 1.378 . S
C5486 C5490 1.350 . S
C5487 C5490 1.463 . S
C5487 C5492 1.350 . S
C5487 N5495 1.427 . S
C5488 H5479 0.930 . S
C5488 C5486 1.378 . S
C5488 C5489 1.367 . S
C5489 C5488 1.367 . S
C5489 C5491 1.433 . S
C5490 C5486 1.350 . S
C5490 C5487 1.463 . S
C5490 N5494 1.427 . S
C5491 H5481 0.929 . S
C5491 C5489 1.433 . S
C5491 N5494 1.384 . S
C5492 H5483 0.929 . S
C5492 C5484 1.378 . S
C5492 C5487 1.350 . S
C5493 H5480 0.929 . S
C5493 C5485 1.433 . S
C5493 N5495 1.384 . S
N5494 C5490 1.427 . S
N5494 C5491 1.384 . S
N5495 C5487 1.427 . S
N5495 C5493 1.384 . S
H5496 C5502 0.930 . S
H5497 C5506 0.930 . S
H5498 C5511 0.929 . S
H5499 C5509 0.929 . S
H5500 C5504 0.929 . S
H5501 C5510 0.929 . S
C5502 H5496 0.930 . S
C5502 C5503 1.367 . S
C5502 C5510 1.378 . S
C5503 C5502 1.367 . S
C5503 C5511 1.433 . S
C5504 H5500 0.929 . S
C5504 C5506 1.378 . S
C5504 C5508 1.350 . S
C5505 C5508 1.463 . S
C5505 C5510 1.350 . S
C5505 N5513 1.427 . S
C5506 H5497 0.930 . S
C5506 C5504 1.378 . S
C5506 C5507 1.367 . S
C5507 C5506 1.367 . S
C5507 C5509 1.433 . S
C5508 C5504 1.350 . S
C5508 C5505 1.463 . S
C5508 N5512 1.427 . S
C5509 H5499 0.929 . S
C5509 C5507 1.433 . S
C5509 N5512 1.384 . S
C5510 H5501 0.929 . S
C5510 C5502 1.378 . S
C5510 C5505 1.350 . S
C5511 H5498 0.929 . S
C5511 C5503 1.433 . S
C5511 N5513 1.384 . S
N5512 C5508 1.427 . S
N5512 C5509 1.384 . S
N5513 C5505 1.427 . S
N5513 C5511 1.384 . S
H5514 C5520 0.930 . S
H5515 C5524 0.930 . S
H5516 C5529 0.929 . S
H5517 C5527 0.929 . S
H5518 C5522 0.929 . S
H5519 C5528 0.929 . S
C5520 H5514 0.930 . S
C5520 C5521 1.367 . S
C5520 C5528 1.378 . S
C5521 C5520 1.367 . S
C5521 C5529 1.433 . S
C5522 H5518 0.929 . S
C5522 C5524 1.378 . S
C5522 C5526 1.350 . S
C5523 C5526 1.463 . S
C5523 C5528 1.350 . S
C5523 N5531 1.427 . S
C5524 H5515 0.930 . S
C5524 C5522 1.378 . S
C5524 C5525 1.367 . S
C5525 C5524 1.367 . S
C5525 C5527 1.433 . S
C5526 C5522 1.350 . S
C5526 C5523 1.463 . S
C5526 N5530 1.427 . S
C5527 H5517 0.929 . S
C5527 C5525 1.433 . S
C5527 N5530 1.384 . S
C5528 H5519 0.929 . S
C5528 C5520 1.378 . S
C5528 C5523 1.350 . S
C5529 H5516 0.929 . S
C5529 C5521 1.433 . S
C5529 N5531 1.384 . S
N5530 C5526 1.427 . S
N5530 C5527 1.384 . S
N5531 C5523 1.427 . S
N5531 C5529 1.384 . S
H5532 C5538 0.930 . S
H5533 C5542 0.930 . S
H5534 C5547 0.929 . S
H5535 C5545 0.929 . S
H5536 C5540 0.929 . S
H5537 C5546 0.929 . S
C5538 H5532 0.930 . S
C5538 C5539 1.367 . S
C5538 C5546 1.378 . S
C5539 C5538 1.367 . S
C5539 C5547 1.433 . S
C5540 H5536 0.929 . S
C5540 C5542 1.378 . S
C5540 C5544 1.350 . S
C5541 C5544 1.463 . S
C5541 C5546 1.350 . S
C5541 N5549 1.427 . S
C5542 H5533 0.930 . S
C5542 C5540 1.378 . S
C5542 C5543 1.367 . S
C5543 C5542 1.367 . S
C5543 C5545 1.433 . S
C5544 C5540 1.350 . S
C5544 C5541 1.463 . S
C5544 N5548 1.427 . S
C5545 H5535 0.929 . S
C5545 C5543 1.433 . S
C5545 N5548 1.384 . S
C5546 H5537 0.929 . S
C5546 C5538 1.378 . S
C5546 C5541 1.350 . S
C5547 H5534 0.929 . S
C5547 C5539 1.433 . S
C5547 N5549 1.384 . S
N5548 C5544 1.427 . S
N5548 C5545 1.384 . S
N5549 C5541 1.427 . S
N5549 C5547 1.384 . S
H5550 C5556 0.930 . S
H5551 C5560 0.930 . S
H5552 C5565 0.929 . S
H5553 C5563 0.929 . S
H5554 C5558 0.929 . S
H5555 C5564 0.929 . S
C5556 H5550 0.930 . S
C5556 C5557 1.367 . S
C5556 C5564 1.378 . S
C5557 C5556 1.367 . S
C5557 C5565 1.433 . S
C5558 H5554 0.929 . S
C5558 C5560 1.378 . S
C5558 C5562 1.350 . S
C5559 C5562 1.463 . S
C5559 C5564 1.350 . S
C5559 N5567 1.427 . S
C5560 H5551 0.930 . S
C5560 C5558 1.378 . S
C5560 C5561 1.367 . S
C5561 C5560 1.367 . S
C5561 C5563 1.433 . S
C5562 C5558 1.350 . S
C5562 C5559 1.463 . S
C5562 N5566 1.427 . S
C5563 H5553 0.929 . S
C5563 C5561 1.433 . S
C5563 N5566 1.384 . S
C5564 H5555 0.929 . S
C5564 C5556 1.378 . S
C5564 C5559 1.350 . S
C5565 H5552 0.929 . S
C5565 C5557 1.433 . S
C5565 N5567 1.384 . S
N5566 C5562 1.427 . S
N5566 C5563 1.384 . S
N5567 C5559 1.427 . S
N5567 C5565 1.384 . S
H5568 C5574 0.930 . S
H5569 C5578 0.930 . S
H5570 C5583 0.929 . S
H5571 C5581 0.929 . S
H5572 C5576 0.929 . S
H5573 C5582 0.929 . S
C5574 H5568 0.930 . S
C5574 C5575 1.367 . S
C5574 C5582 1.378 1_545 S
C5575 C5574 1.367 . S
C5575 C5583 1.433 . S
C5576 H5572 0.929 . S
C5576 C5578 1.378 . S
C5576 C5580 1.350 . S
C5577 C5580 1.463 . S
C5577 C5582 1.350 . S
C5577 N5585 1.427 1_565 S
C5578 H5569 0.930 . S
C5578 C5576 1.378 . S
C5578 C5579 1.367 . S
C5579 C5578 1.367 . S
C5579 C5581 1.433 . S
C5580 C5576 1.350 . S
C5580 C5577 1.463 . S
C5580 N5584 1.427 . S
C5581 H5571 0.929 . S
C5581 C5579 1.433 . S
C5581 N5584 1.384 . S
C5582 H5573 0.929 . S
C5582 C5574 1.378 1_565 S
C5582 C5577 1.350 . S
C5583 H5570 0.929 . S
C5583 C5575 1.433 . S
C5583 N5585 1.384 . S
N5584 C5580 1.427 . S
N5584 C5581 1.384 . S
N5585 C5577 1.427 1_545 S
N5585 C5583 1.384 . S
H5586 C5592 0.930 . S
H5587 C5596 0.930 . S
H5588 C5601 0.929 . S
H5589 C5599 0.929 . S
H5590 C5594 0.929 . S
H5591 C5600 0.929 . S
C5592 H5586 0.930 . S
C5592 C5593 1.367 . S
C5592 C5600 1.378 . S
C5593 C5592 1.367 . S
C5593 C5601 1.433 . S
C5594 H5590 0.929 . S
C5594 C5596 1.378 . S
C5594 C5598 1.350 . S
C5595 C5598 1.463 . S
C5595 C5600 1.350 . S
C5595 N5603 1.427 . S
C5596 H5587 0.930 . S
C5596 C5594 1.378 . S
C5596 C5597 1.367 . S
C5597 C5596 1.367 . S
C5597 C5599 1.433 . S
C5598 C5594 1.350 . S
C5598 C5595 1.463 . S
C5598 N5602 1.427 . S
C5599 H5589 0.929 . S
C5599 C5597 1.433 . S
C5599 N5602 1.384 . S
C5600 H5591 0.929 . S
C5600 C5592 1.378 . S
C5600 C5595 1.350 . S
C5601 H5588 0.929 . S
C5601 C5593 1.433 . S
C5601 N5603 1.384 . S
N5602 C5598 1.427 . S
N5602 C5599 1.384 . S
N5603 C5595 1.427 . S
N5603 C5601 1.384 . S
H5604 C5610 0.930 . S
H5605 C5614 0.930 . S
H5606 C5619 0.929 . S
H5607 C5617 0.929 . S
H5608 C5612 0.929 . S
H5609 C5618 0.929 . S
C5610 H5604 0.930 . S
C5610 C5611 1.367 . S
C5610 C5618 1.378 . S
C5611 C5610 1.367 . S
C5611 C5619 1.433 . S
C5612 H5608 0.929 . S
C5612 C5614 1.378 . S
C5612 C5616 1.350 . S
C5613 C5616 1.463 . S
C5613 C5618 1.350 . S
C5613 N5621 1.427 . S
C5614 H5605 0.930 . S
C5614 C5612 1.378 . S
C5614 C5615 1.367 . S
C5615 C5614 1.367 . S
C5615 C5617 1.433 . S
C5616 C5612 1.350 . S
C5616 C5613 1.463 . S
C5616 N5620 1.427 . S
C5617 H5607 0.929 . S
C5617 C5615 1.433 . S
C5617 N5620 1.384 . S
C5618 H5609 0.929 . S
C5618 C5610 1.378 . S
C5618 C5613 1.350 . S
C5619 H5606 0.929 . S
C5619 C5611 1.433 . S
C5619 N5621 1.384 . S
N5620 C5616 1.427 . S
N5620 C5617 1.384 . S
N5621 C5613 1.427 . S
N5621 C5619 1.384 . S
H5622 C5628 0.930 . S
H5623 C5632 0.930 . S
H5624 C5637 0.929 . S
H5625 C5635 0.929 . S
H5626 C5630 0.929 . S
H5627 C5636 0.929 . S
C5628 H5622 0.930 . S
C5628 C5629 1.367 1_565 S
C5628 C5636 1.378 . S
C5629 C5628 1.367 1_545 S
C5629 C5637 1.433 . S
C5630 H5626 0.929 . S
C5630 C5632 1.378 . S
C5630 C5634 1.350 . S
C5631 C5634 1.463 . S
C5631 C5636 1.350 1_545 S
C5631 N5639 1.427 . S
C5632 H5623 0.930 . S
C5632 C5630 1.378 . S
C5632 C5633 1.367 . S
C5633 C5632 1.367 . S
C5633 C5635 1.433 1_545 S
C5634 C5630 1.350 . S
C5634 C5631 1.463 . S
C5634 N5638 1.427 1_545 S
C5635 H5625 0.929 . S
C5635 C5633 1.433 1_565 S
C5635 N5638 1.384 . S
C5636 H5627 0.929 . S
C5636 C5628 1.378 . S
C5636 C5631 1.350 1_565 S
C5637 H5624 0.929 . S
C5637 C5629 1.433 . S
C5637 N5639 1.384 . S
N5638 C5634 1.427 1_565 S
N5638 C5635 1.384 . S
N5639 C5631 1.427 . S
N5639 C5637 1.384 . S
H5640 C5646 0.930 . S
H5641 C5650 0.930 . S
H5642 C5655 0.929 . S
H5643 C5653 0.929 . S
H5644 C5648 0.929 . S
H5645 C5654 0.929 . S
C5646 H5640 0.930 . S
C5646 C5647 1.367 . S
C5646 C5654 1.378 . S
C5647 C5646 1.367 . S
C5647 C5655 1.433 . S
C5648 H5644 0.929 . S
C5648 C5650 1.378 . S
C5648 C5652 1.350 1_554 S
C5649 C5652 1.463 . S
C5649 C5654 1.350 . S
C5649 N5657 1.427 . S
C5650 H5641 0.930 . S
C5650 C5648 1.378 . S
C5650 C5651 1.367 . S
C5651 C5650 1.367 . S
C5651 C5653 1.433 . S
C5652 C5648 1.350 1_556 S
C5652 C5649 1.463 . S
C5652 N5656 1.427 . S
C5653 H5643 0.929 . S
C5653 C5651 1.433 . S
C5653 N5656 1.384 1_554 S
C5654 H5645 0.929 . S
C5654 C5646 1.378 . S
C5654 C5649 1.350 . S
C5655 H5642 0.929 . S
C5655 C5647 1.433 . S
C5655 N5657 1.384 . S
N5656 C5652 1.427 . S
N5656 C5653 1.384 1_556 S
N5657 C5649 1.427 . S
N5657 C5655 1.384 . S
H5658 C5664 0.930 . S
H5659 C5668 0.930 . S
H5660 C5673 0.929 . S
H5661 C5671 0.929 . S
H5662 C5666 0.929 . S
H5663 C5672 0.929 . S
C5664 H5658 0.930 . S
C5664 C5665 1.367 . S
C5664 C5672 1.378 . S
C5665 C5664 1.367 . S
C5665 C5673 1.433 . S
C5666 H5662 0.929 . S
C5666 C5668 1.378 . S
C5666 C5670 1.350 . S
C5667 C5670 1.463 . S
C5667 C5672 1.350 . S
C5667 N5675 1.427 . S
C5668 H5659 0.930 . S
C5668 C5666 1.378 . S
C5668 C5669 1.367 . S
C5669 C5668 1.367 . S
C5669 C5671 1.433 . S
C5670 C5666 1.350 . S
C5670 C5667 1.463 . S
C5670 N5674 1.427 . S
C5671 H5661 0.929 . S
C5671 C5669 1.433 . S
C5671 N5674 1.384 . S
C5672 H5663 0.929 . S
C5672 C5664 1.378 . S
C5672 C5667 1.350 . S
C5673 H5660 0.929 . S
C5673 C5665 1.433 . S
C5673 N5675 1.384 . S
N5674 C5670 1.427 . S
N5674 C5671 1.384 . S
N5675 C5667 1.427 . S
N5675 C5673 1.384 . S
H5676 C5682 0.930 . S
H5677 C5686 0.930 1_565 S
H5678 C5691 0.929 . S
H5679 C5689 0.929 . S
H5680 C5684 0.929 . S
H5681 C5690 0.929 . S
C5682 H5676 0.930 . S
C5682 C5683 1.367 . S
C5682 C5690 1.378 . S
C5683 C5682 1.367 . S
C5683 C5691 1.433 . S
C5684 H5680 0.929 . S
C5684 C5686 1.378 1_565 S
C5684 C5688 1.350 . S
C5685 C5688 1.463 . S
C5685 C5690 1.350 . S
C5685 N5693 1.427 . S
C5686 H5677 0.930 1_545 S
C5686 C5684 1.378 1_545 S
C5686 C5687 1.367 . S
C5687 C5686 1.367 . S
C5687 C5689 1.433 . S
C5688 C5684 1.350 . S
C5688 C5685 1.463 . S
C5688 N5692 1.427 1_565 S
C5689 H5679 0.929 . S
C5689 C5687 1.433 . S
C5689 N5692 1.384 . S
C5690 H5681 0.929 . S
C5690 C5682 1.378 . S
C5690 C5685 1.350 . S
C5691 H5678 0.929 . S
C5691 C5683 1.433 . S
C5691 N5693 1.384 . S
N5692 C5688 1.427 1_545 S
N5692 C5689 1.384 . S
N5693 C5685 1.427 . S
N5693 C5691 1.384 . S
H5694 C5700 0.930 . S
H5695 C5704 0.930 . S
H5696 C5709 0.929 . S
H5697 C5707 0.929 . S
H5698 C5702 0.929 . S
H5699 C5708 0.929 . S
C5700 H5694 0.930 . S
C5700 C5701 1.367 . S
C5700 C5708 1.378 . S
C5701 C5700 1.367 . S
C5701 C5709 1.433 1_545 S
C5702 H5698 0.929 . S
C5702 C5704 1.378 . S
C5702 C5706 1.350 1_565 S
C5703 C5706 1.463 . S
C5703 C5708 1.350 . S
C5703 N5711 1.427 1_545 S
C5704 H5695 0.930 . S
C5704 C5702 1.378 . S
C5704 C5705 1.367 1_565 S
C5705 C5704 1.367 1_545 S
C5705 C5707 1.433 . S
C5706 C5702 1.350 1_545 S
C5706 C5703 1.463 . S
C5706 N5710 1.427 . S
C5707 H5697 0.929 . S
C5707 C5705 1.433 . S
C5707 N5710 1.384 . S
C5708 H5699 0.929 . S
C5708 C5700 1.378 . S
C5708 C5703 1.350 . S
C5709 H5696 0.929 . S
C5709 C5701 1.433 1_565 S
C5709 N5711 1.384 . S
N5710 C5706 1.427 . S
N5710 C5707 1.384 . S
N5711 C5703 1.427 1_565 S
N5711 C5709 1.384 . S
H5712 C5718 0.930 . S
H5713 C5722 0.930 . S
H5714 C5727 0.929 . S
H5715 C5725 0.929 . S
H5716 C5720 0.929 . S
H5717 C5726 0.929 . S
C5718 H5712 0.930 . S
C5718 C5719 1.367 . S
C5718 C5726 1.378 . S
C5719 C5718 1.367 . S
C5719 C5727 1.433 . S
C5720 H5716 0.929 . S
C5720 C5722 1.378 1_556 S
C5720 C5724 1.350 . S
C5721 C5724 1.463 . S
C5721 C5726 1.350 . S
C5721 N5729 1.427 . S
C5722 H5713 0.930 . S
C5722 C5720 1.378 1_554 S
C5722 C5723 1.367 . S
C5723 C5722 1.367 . S
C5723 C5725 1.433 . S
C5724 C5720 1.350 . S
C5724 C5721 1.463 . S
C5724 N5728 1.427 1_556 S
C5725 H5715 0.929 . S
C5725 C5723 1.433 . S
C5725 N5728 1.384 . S
C5726 H5717 0.929 . S
C5726 C5718 1.378 . S
C5726 C5721 1.350 . S
C5727 H5714 0.929 . S
C5727 C5719 1.433 . S
C5727 N5729 1.384 . S
N5728 C5724 1.427 1_554 S
N5728 C5725 1.384 . S
N5729 C5721 1.427 . S
N5729 C5727 1.384 . S
H5730 C5736 0.930 . S
H5731 C5740 0.930 . S
H5732 C5745 0.929 . S
H5733 C5743 0.929 . S
H5734 C5738 0.929 . S
H5735 C5744 0.929 . S
C5736 H5730 0.930 . S
C5736 C5737 1.367 . S
C5736 C5744 1.378 . S
C5737 C5736 1.367 . S
C5737 C5745 1.433 1_455 S
C5738 H5734 0.929 . S
C5738 C5740 1.378 . S
C5738 C5742 1.350 1_655 S
C5739 C5742 1.463 . S
C5739 C5744 1.350 . S
C5739 N5747 1.427 1_455 S
C5740 H5731 0.930 . S
C5740 C5738 1.378 . S
C5740 C5741 1.367 1_655 S
C5741 C5740 1.367 1_455 S
C5741 C5743 1.433 . S
C5742 C5738 1.350 1_455 S
C5742 C5739 1.463 . S
C5742 N5746 1.427 . S
C5743 H5733 0.929 . S
C5743 C5741 1.433 . S
C5743 N5746 1.384 . S
C5744 H5735 0.929 . S
C5744 C5736 1.378 . S
C5744 C5739 1.350 . S
C5745 H5732 0.929 . S
C5745 C5737 1.433 1_655 S
C5745 N5747 1.384 . S
N5746 C5742 1.427 . S
N5746 C5743 1.384 . S
N5747 C5739 1.427 1_655 S
N5747 C5745 1.384 . S
H5748 C5754 0.930 . S
H5749 C5758 0.930 . S
H5750 C5763 0.929 . S
H5751 C5761 0.929 . S
H5752 C5756 0.929 . S
H5753 C5762 0.929 . S
C5754 H5748 0.930 . S
C5754 C5755 1.367 . S
C5754 C5762 1.378 . S
C5755 C5754 1.367 . S
C5755 C5763 1.433 . S
C5756 H5752 0.929 . S
C5756 C5758 1.378 . S
C5756 C5760 1.350 . S
C5757 C5760 1.463 . S
C5757 C5762 1.350 . S
C5757 N5765 1.427 . S
C5758 H5749 0.930 . S
C5758 C5756 1.378 . S
C5758 C5759 1.367 . S
C5759 C5758 1.367 . S
C5759 C5761 1.433 . S
C5760 C5756 1.350 . S
C5760 C5757 1.463 . S
C5760 N5764 1.427 . S
C5761 H5751 0.929 . S
C5761 C5759 1.433 . S
C5761 N5764 1.384 . S
C5762 H5753 0.929 . S
C5762 C5754 1.378 . S
C5762 C5757 1.350 . S
C5763 H5750 0.929 . S
C5763 C5755 1.433 . S
C5763 N5765 1.384 . S
N5764 C5760 1.427 . S
N5764 C5761 1.384 . S
N5765 C5757 1.427 . S
N5765 C5763 1.384 . S
H5766 C5772 0.930 . S
H5767 C5776 0.930 . S
H5768 C5781 0.929 . S
H5769 C5779 0.929 . S
H5770 C5774 0.929 . S
H5771 C5780 0.929 . S
C5772 H5766 0.930 . S
C5772 C5773 1.367 . S
C5772 C5780 1.378 . S
C5773 C5772 1.367 . S
C5773 C5781 1.433 . S
C5774 H5770 0.929 . S
C5774 C5776 1.378 . S
C5774 C5778 1.350 . S
C5775 C5778 1.463 . S
C5775 C5780 1.350 . S
C5775 N5783 1.427 . S
C5776 H5767 0.930 . S
C5776 C5774 1.378 . S
C5776 C5777 1.367 . S
C5777 C5776 1.367 . S
C5777 C5779 1.433 . S
C5778 C5774 1.350 . S
C5778 C5775 1.463 . S
C5778 N5782 1.427 . S
C5779 H5769 0.929 . S
C5779 C5777 1.433 . S
C5779 N5782 1.384 . S
C5780 H5771 0.929 . S
C5780 C5772 1.378 . S
C5780 C5775 1.350 . S
C5781 H5768 0.929 . S
C5781 C5773 1.433 . S
C5781 N5783 1.384 . S
N5782 C5778 1.427 . S
N5782 C5779 1.384 . S
N5783 C5775 1.427 . S
N5783 C5781 1.384 . S
H5784 C5790 0.930 . S
H5785 C5794 0.930 . S
H5786 C5799 0.929 . S
H5787 C5797 0.929 . S
H5788 C5792 0.929 . S
H5789 C5798 0.929 . S
C5790 H5784 0.930 . S
C5790 C5791 1.367 . S
C5790 C5798 1.378 . S
C5791 C5790 1.367 . S
C5791 C5799 1.433 . S
C5792 H5788 0.929 . S
C5792 C5794 1.378 . S
C5792 C5796 1.350 . S
C5793 C5796 1.463 . S
C5793 C5798 1.350 . S
C5793 N5801 1.427 . S
C5794 H5785 0.930 . S
C5794 C5792 1.378 . S
C5794 C5795 1.367 . S
C5795 C5794 1.367 . S
C5795 C5797 1.433 . S
C5796 C5792 1.350 . S
C5796 C5793 1.463 . S
C5796 N5800 1.427 . S
C5797 H5787 0.929 . S
C5797 C5795 1.433 . S
C5797 N5800 1.384 . S
C5798 H5789 0.929 . S
C5798 C5790 1.378 . S
C5798 C5793 1.350 . S
C5799 H5786 0.929 . S
C5799 C5791 1.433 . S
C5799 N5801 1.384 . S
N5800 C5796 1.427 . S
N5800 C5797 1.384 . S
N5801 C5793 1.427 . S
N5801 C5799 1.384 . S
H5802 C5808 0.930 . S
H5803 C5812 0.930 . S
H5804 C5817 0.929 . S
H5805 C5815 0.929 . S
H5806 C5810 0.929 . S
H5807 C5816 0.929 . S
C5808 H5802 0.930 . S
C5808 C5809 1.367 . S
C5808 C5816 1.378 . S
C5809 C5808 1.367 . S
C5809 C5817 1.433 . S
C5810 H5806 0.929 . S
C5810 C5812 1.378 . S
C5810 C5814 1.350 . S
C5811 C5814 1.463 . S
C5811 C5816 1.350 . S
C5811 N5819 1.427 . S
C5812 H5803 0.930 . S
C5812 C5810 1.378 . S
C5812 C5813 1.367 . S
C5813 C5812 1.367 . S
C5813 C5815 1.433 . S
C5814 C5810 1.350 . S
C5814 C5811 1.463 . S
C5814 N5818 1.427 . S
C5815 H5805 0.929 . S
C5815 C5813 1.433 . S
C5815 N5818 1.384 . S
C5816 H5807 0.929 . S
C5816 C5808 1.378 . S
C5816 C5811 1.350 . S
C5817 H5804 0.929 . S
C5817 C5809 1.433 . S
C5817 N5819 1.384 . S
N5818 C5814 1.427 . S
N5818 C5815 1.384 . S
N5819 C5811 1.427 . S
N5819 C5817 1.384 . S
H5820 C5826 0.930 . S
H5821 C5830 0.930 . S
H5822 C5835 0.929 . S
H5823 C5833 0.929 . S
H5824 C5828 0.929 . S
H5825 C5834 0.929 . S
C5826 H5820 0.930 . S
C5826 C5827 1.367 . S
C5826 C5834 1.378 . S
C5827 C5826 1.367 . S
C5827 C5835 1.433 . S
C5828 H5824 0.929 . S
C5828 C5830 1.378 . S
C5828 C5832 1.350 . S
C5829 C5832 1.463 . S
C5829 C5834 1.350 . S
C5829 N5837 1.427 . S
C5830 H5821 0.930 . S
C5830 C5828 1.378 . S
C5830 C5831 1.367 . S
C5831 C5830 1.367 . S
C5831 C5833 1.433 . S
C5832 C5828 1.350 . S
C5832 C5829 1.463 . S
C5832 N5836 1.427 . S
C5833 H5823 0.929 . S
C5833 C5831 1.433 . S
C5833 N5836 1.384 . S
C5834 H5825 0.929 . S
C5834 C5826 1.378 . S
C5834 C5829 1.350 . S
C5835 H5822 0.929 . S
C5835 C5827 1.433 . S
C5835 N5837 1.384 . S
N5836 C5832 1.427 . S
N5836 C5833 1.384 . S
N5837 C5829 1.427 . S
N5837 C5835 1.384 . S
H5838 C5844 0.930 1_655 S
H5839 C5848 0.930 . S
H5840 C5853 0.929 . S
H5841 C5851 0.929 1_655 S
H5842 C5846 0.929 . S
H5843 C5852 0.929 1_655 S
C5844 H5838 0.930 1_455 S
C5844 C5845 1.367 . S
C5844 C5852 1.378 . S
C5845 C5844 1.367 . S
C5845 C5853 1.433 . S
C5846 H5842 0.929 . S
C5846 C5848 1.378 . S
C5846 C5850 1.350 . S
C5847 C5850 1.463 . S
C5847 C5852 1.350 . S
C5847 N5855 1.427 . S
C5848 H5839 0.930 . S
C5848 C5846 1.378 . S
C5848 C5849 1.367 . S
C5849 C5848 1.367 . S
C5849 C5851 1.433 . S
C5850 C5846 1.350 . S
C5850 C5847 1.463 . S
C5850 N5854 1.427 . S
C5851 H5841 0.929 1_455 S
C5851 C5849 1.433 . S
C5851 N5854 1.384 . S
C5852 H5843 0.929 1_455 S
C5852 C5844 1.378 . S
C5852 C5847 1.350 . S
C5853 H5840 0.929 . S
C5853 C5845 1.433 . S
C5853 N5855 1.384 . S
N5854 C5850 1.427 . S
N5854 C5851 1.384 . S
N5855 C5847 1.427 . S
N5855 C5853 1.384 . S
H5856 C5862 0.930 . S
H5857 C5866 0.930 . S
H5858 C5871 0.929 . S
H5859 C5869 0.929 . S
H5860 C5864 0.929 . S
H5861 C5870 0.929 . S
C5862 H5856 0.930 . S
C5862 C5863 1.367 . S
C5862 C5870 1.378 1_455 S
C5863 C5862 1.367 . S
C5863 C5871 1.433 . S
C5864 H5860 0.929 . S
C5864 C5866 1.378 . S
C5864 C5868 1.350 . S
C5865 C5868 1.463 . S
C5865 C5870 1.350 . S
C5865 N5873 1.427 1_655 S
C5866 H5857 0.930 . S
C5866 C5864 1.378 . S
C5866 C5867 1.367 . S
C5867 C5866 1.367 . S
C5867 C5869 1.433 . S
C5868 C5864 1.350 . S
C5868 C5865 1.463 . S
C5868 N5872 1.427 . S
C5869 H5859 0.929 . S
C5869 C5867 1.433 . S
C5869 N5872 1.384 . S
C5870 H5861 0.929 . S
C5870 C5862 1.378 1_655 S
C5870 C5865 1.350 . S
C5871 H5858 0.929 . S
C5871 C5863 1.433 . S
C5871 N5873 1.384 . S
N5872 C5868 1.427 . S
N5872 C5869 1.384 . S
N5873 C5865 1.427 1_455 S
N5873 C5871 1.384 . S
H5874 C5880 0.930 . S
H5875 C5884 0.930 . S
H5876 C5889 0.929 . S
H5877 C5887 0.929 . S
H5878 C5882 0.929 . S
H5879 C5888 0.929 . S
C5880 H5874 0.930 . S
C5880 C5881 1.367 . S
C5880 C5888 1.378 . S
C5881 C5880 1.367 . S
C5881 C5889 1.433 . S
C5882 H5878 0.929 . S
C5882 C5884 1.378 . S
C5882 C5886 1.350 . S
C5883 C5886 1.463 . S
C5883 C5888 1.350 . S
C5883 N5891 1.427 . S
C5884 H5875 0.930 . S
C5884 C5882 1.378 . S
C5884 C5885 1.367 . S
C5885 C5884 1.367 . S
C5885 C5887 1.433 . S
C5886 C5882 1.350 . S
C5886 C5883 1.463 . S
C5886 N5890 1.427 . S
C5887 H5877 0.929 . S
C5887 C5885 1.433 . S
C5887 N5890 1.384 . S
C5888 H5879 0.929 . S
C5888 C5880 1.378 . S
C5888 C5883 1.350 . S
C5889 H5876 0.929 . S
C5889 C5881 1.433 . S
C5889 N5891 1.384 . S
N5890 C5886 1.427 . S
N5890 C5887 1.384 . S
N5891 C5883 1.427 . S
N5891 C5889 1.384 . S
H5892 C5898 0.930 . S
H5893 C5902 0.930 . S
H5894 C5907 0.929 . S
H5895 C5905 0.929 . S
H5896 C5900 0.929 . S
H5897 C5906 0.929 . S
C5898 H5892 0.930 . S
C5898 C5899 1.367 . S
C5898 C5906 1.378 . S
C5899 C5898 1.367 . S
C5899 C5907 1.433 . S
C5900 H5896 0.929 . S
C5900 C5902 1.378 . S
C5900 C5904 1.350 . S
C5901 C5904 1.463 . S
C5901 C5906 1.350 . S
C5901 N5909 1.427 . S
C5902 H5893 0.930 . S
C5902 C5900 1.378 . S
C5902 C5903 1.367 . S
C5903 C5902 1.367 . S
C5903 C5905 1.433 . S
C5904 C5900 1.350 . S
C5904 C5901 1.463 . S
C5904 N5908 1.427 . S
C5905 H5895 0.929 . S
C5905 C5903 1.433 . S
C5905 N5908 1.384 . S
C5906 H5897 0.929 . S
C5906 C5898 1.378 . S
C5906 C5901 1.350 . S
C5907 H5894 0.929 . S
C5907 C5899 1.433 . S
C5907 N5909 1.384 . S
N5908 C5904 1.427 . S
N5908 C5905 1.384 . S
N5909 C5901 1.427 . S
N5909 C5907 1.384 . S
H5910 C5916 0.930 . S
H5911 C5920 0.930 . S
H5912 C5925 0.929 . S
H5913 C5923 0.929 . S
H5914 C5918 0.929 . S
H5915 C5924 0.929 . S
C5916 H5910 0.930 . S
C5916 C5917 1.367 . S
C5916 C5924 1.378 . S
C5917 C5916 1.367 . S
C5917 C5925 1.433 . S
C5918 H5914 0.929 . S
C5918 C5920 1.378 . S
C5918 C5922 1.350 . S
C5919 C5922 1.463 . S
C5919 C5924 1.350 . S
C5919 N5927 1.427 . S
C5920 H5911 0.930 . S
C5920 C5918 1.378 . S
C5920 C5921 1.367 . S
C5921 C5920 1.367 . S
C5921 C5923 1.433 . S
C5922 C5918 1.350 . S
C5922 C5919 1.463 . S
C5922 N5926 1.427 . S
C5923 H5913 0.929 . S
C5923 C5921 1.433 . S
C5923 N5926 1.384 . S
C5924 H5915 0.929 . S
C5924 C5916 1.378 . S
C5924 C5919 1.350 . S
C5925 H5912 0.929 . S
C5925 C5917 1.433 . S
C5925 N5927 1.384 . S
N5926 C5922 1.427 . S
N5926 C5923 1.384 . S
N5927 C5919 1.427 . S
N5927 C5925 1.384 . S
H5928 C5934 0.930 . S
H5929 C5938 0.930 . S
H5930 C5943 0.929 . S
H5931 C5941 0.929 . S
H5932 C5936 0.929 . S
H5933 C5942 0.929 . S
C5934 H5928 0.930 . S
C5934 C5935 1.367 . S
C5934 C5942 1.378 . S
C5935 C5934 1.367 . S
C5935 C5943 1.433 . S
C5936 H5932 0.929 . S
C5936 C5938 1.378 . S
C5936 C5940 1.350 . S
C5937 C5940 1.463 . S
C5937 C5942 1.350 . S
C5937 N5945 1.427 . S
C5938 H5929 0.930 . S
C5938 C5936 1.378 . S
C5938 C5939 1.367 . S
C5939 C5938 1.367 . S
C5939 C5941 1.433 . S
C5940 C5936 1.350 . S
C5940 C5937 1.463 . S
C5940 N5944 1.427 . S
C5941 H5931 0.929 . S
C5941 C5939 1.433 . S
C5941 N5944 1.384 . S
C5942 H5933 0.929 . S
C5942 C5934 1.378 . S
C5942 C5937 1.350 . S
C5943 H5930 0.929 . S
C5943 C5935 1.433 . S
C5943 N5945 1.384 . S
N5944 C5940 1.427 . S
N5944 C5941 1.384 . S
N5945 C5937 1.427 . S
N5945 C5943 1.384 . S
H5946 C5952 0.930 . S
H5947 C5956 0.930 1_565 S
H5948 C5961 0.929 . S
H5949 C5959 0.929 . S
H5950 C5954 0.929 . S
H5951 C5960 0.929 . S
C5952 H5946 0.930 . S
C5952 C5953 1.367 . S
C5952 C5960 1.378 . S
C5953 C5952 1.367 . S
C5953 C5961 1.433 . S
C5954 H5950 0.929 . S
C5954 C5956 1.378 1_565 S
C5954 C5958 1.350 . S
C5955 C5958 1.463 . S
C5955 C5960 1.350 . S
C5955 N5963 1.427 . S
C5956 H5947 0.930 1_545 S
C5956 C5954 1.378 1_545 S
C5956 C5957 1.367 . S
C5957 C5956 1.367 . S
C5957 C5959 1.433 . S
C5958 C5954 1.350 . S
C5958 C5955 1.463 . S
C5958 N5962 1.427 1_565 S
C5959 H5949 0.929 . S
C5959 C5957 1.433 . S
C5959 N5962 1.384 . S
C5960 H5951 0.929 . S
C5960 C5952 1.378 . S
C5960 C5955 1.350 . S
C5961 H5948 0.929 . S
C5961 C5953 1.433 . S
C5961 N5963 1.384 . S
N5962 C5958 1.427 1_545 S
N5962 C5959 1.384 . S
N5963 C5955 1.427 . S
N5963 C5961 1.384 . S
H5964 C5970 0.930 . S
H5965 C5974 0.930 . S
H5966 C5979 0.929 . S
H5967 C5977 0.929 . S
H5968 C5972 0.929 . S
H5969 C5978 0.929 . S
C5970 H5964 0.930 . S
C5970 C5971 1.367 . S
C5970 C5978 1.378 . S
C5971 C5970 1.367 . S
C5971 C5979 1.433 . S
C5972 H5968 0.929 . S
C5972 C5974 1.378 . S
C5972 C5976 1.350 . S
C5973 C5976 1.463 . S
C5973 C5978 1.350 . S
C5973 N5981 1.427 . S
C5974 H5965 0.930 . S
C5974 C5972 1.378 . S
C5974 C5975 1.367 . S
C5975 C5974 1.367 . S
C5975 C5977 1.433 . S
C5976 C5972 1.350 . S
C5976 C5973 1.463 . S
C5976 N5980 1.427 . S
C5977 H5967 0.929 . S
C5977 C5975 1.433 . S
C5977 N5980 1.384 . S
C5978 H5969 0.929 . S
C5978 C5970 1.378 . S
C5978 C5973 1.350 . S
C5979 H5966 0.929 . S
C5979 C5971 1.433 . S
C5979 N5981 1.384 . S
N5980 C5976 1.427 . S
N5980 C5977 1.384 . S
N5981 C5973 1.427 . S
N5981 C5979 1.384 . S
H5982 C5988 0.930 . S
H5983 C5992 0.930 . S
H5984 C5997 0.929 . S
H5985 C5995 0.929 . S
H5986 C5990 0.929 . S
H5987 C5996 0.929 . S
C5988 H5982 0.930 . S
C5988 C5989 1.367 . S
C5988 C5996 1.378 . S
C5989 C5988 1.367 . S
C5989 C5997 1.433 . S
C5990 H5986 0.929 . S
C5990 C5992 1.378 . S
C5990 C5994 1.350 . S
C5991 C5994 1.463 . S
C5991 C5996 1.350 . S
C5991 N5999 1.427 . S
C5992 H5983 0.930 . S
C5992 C5990 1.378 . S
C5992 C5993 1.367 . S
C5993 C5992 1.367 . S
C5993 C5995 1.433 . S
C5994 C5990 1.350 . S
C5994 C5991 1.463 . S
C5994 N5998 1.427 . S
C5995 H5985 0.929 . S
C5995 C5993 1.433 . S
C5995 N5998 1.384 . S
C5996 H5987 0.929 . S
C5996 C5988 1.378 . S
C5996 C5991 1.350 . S
C5997 H5984 0.929 . S
C5997 C5989 1.433 . S
C5997 N5999 1.384 . S
N5998 C5994 1.427 . S
N5998 C5995 1.384 . S
N5999 C5991 1.427 . S
N5999 C5997 1.384 . S
H6000 C6006 0.930 . S
H6001 C6010 0.930 1_655 S
H6002 C6015 0.929 1_655 S
H6003 C6013 0.929 . S
H6004 C6008 0.929 1_655 S
H6005 C6014 0.929 . S
C6006 H6000 0.930 . S
C6006 C6007 1.367 . S
C6006 C6014 1.378 . S
C6007 C6006 1.367 . S
C6007 C6015 1.433 . S
C6008 H6004 0.929 1_455 S
C6008 C6010 1.378 . S
C6008 C6012 1.350 . S
C6009 C6012 1.463 . S
C6009 C6014 1.350 . S
C6009 N6017 1.427 . S
C6010 H6001 0.930 1_455 S
C6010 C6008 1.378 . S
C6010 C6011 1.367 . S
C6011 C6010 1.367 . S
C6011 C6013 1.433 . S
C6012 C6008 1.350 . S
C6012 C6009 1.463 . S
C6012 N6016 1.427 . S
C6013 H6003 0.929 . S
C6013 C6011 1.433 . S
C6013 N6016 1.384 . S
C6014 H6005 0.929 . S
C6014 C6006 1.378 . S
C6014 C6009 1.350 . S
C6015 H6002 0.929 1_455 S
C6015 C6007 1.433 . S
C6015 N6017 1.384 . S
N6016 C6012 1.427 . S
N6016 C6013 1.384 . S
N6017 C6009 1.427 . S
N6017 C6015 1.384 . S
H6018 C6024 0.930 . S
H6019 C6028 0.930 . S
H6020 C6033 0.920 1_655 S
H6021 C6031 0.929 . S
H6022 C6026 0.929 . S
H6023 C6032 0.929 . S
C6024 H6018 0.930 . S
C6024 C6025 1.367 . S
C6024 C6032 1.378 . S
C6025 C6024 1.367 . S
C6025 C6033 1.433 . S
C6026 H6022 0.929 . S
C6026 C6028 1.378 . S
C6026 C6030 1.350 . S
C6027 C6030 1.463 . S
C6027 C6032 1.350 1_655 S
C6027 N6035 1.427 . S
C6028 H6019 0.930 . S
C6028 C6026 1.378 . S
C6028 C6029 1.367 . S
C6029 C6028 1.367 . S
C6029 C6031 1.433 . S
C6030 C6026 1.350 . S
C6030 C6027 1.463 . S
C6030 N6034 1.427 . S
C6031 H6021 0.929 . S
C6031 C6029 1.433 . S
C6031 N6034 1.384 . S
C6032 H6023 0.929 . S
C6032 C6024 1.378 . S
C6032 C6027 1.350 1_455 S
C6033 H6020 0.920 1_455 S
C6033 C6025 1.433 . S
C6033 N6035 1.384 1_455 S
N6034 C6030 1.427 . S
N6034 C6031 1.384 . S
N6035 C6027 1.427 . S
N6035 C6033 1.384 1_655 S
H6036 C6042 0.930 . S
H6037 C6046 0.930 . S
H6038 C6051 0.929 . S
H6039 C6049 0.929 . S
H6040 C6044 0.929 . S
H6041 C6050 0.929 . S
C6042 H6036 0.930 . S
C6042 C6043 1.367 . S
C6042 C6050 1.378 . S
C6043 C6042 1.367 . S
C6043 C6051 1.433 . S
C6044 H6040 0.929 . S
C6044 C6046 1.378 . S
C6044 C6048 1.350 . S
C6045 C6048 1.463 . S
C6045 C6050 1.350 . S
C6045 N6053 1.427 . S
C6046 H6037 0.930 . S
C6046 C6044 1.378 . S
C6046 C6047 1.367 . S
C6047 C6046 1.367 . S
C6047 C6049 1.433 . S
C6048 C6044 1.350 . S
C6048 C6045 1.463 . S
C6048 N6052 1.427 . S
C6049 H6039 0.929 . S
C6049 C6047 1.433 . S
C6049 N6052 1.384 . S
C6050 H6041 0.929 . S
C6050 C6042 1.378 . S
C6050 C6045 1.350 . S
C6051 H6038 0.929 . S
C6051 C6043 1.433 . S
C6051 N6053 1.384 . S
N6052 C6048 1.427 . S
N6052 C6049 1.384 . S
N6053 C6045 1.427 . S
N6053 C6051 1.384 . S
H6054 C6060 0.930 . S
H6055 C6064 0.930 . S
H6056 C6069 0.929 . S
H6057 C6067 0.929 . S
H6058 C6062 0.929 . S
H6059 C6068 0.929 . S
C6060 H6054 0.930 . S
C6060 C6061 1.367 . S
C6060 C6068 1.378 . S
C6061 C6060 1.367 . S
C6061 C6069 1.433 . S
C6062 H6058 0.929 . S
C6062 C6064 1.378 . S
C6062 C6066 1.350 . S
C6063 C6066 1.463 . S
C6063 C6068 1.350 . S
C6063 N6071 1.427 . S
C6064 H6055 0.930 . S
C6064 C6062 1.378 . S
C6064 C6065 1.367 . S
C6065 C6064 1.367 . S
C6065 C6067 1.433 . S
C6066 C6062 1.350 . S
C6066 C6063 1.463 . S
C6066 N6070 1.427 . S
C6067 H6057 0.929 . S
C6067 C6065 1.433 . S
C6067 N6070 1.384 . S
C6068 H6059 0.929 . S
C6068 C6060 1.378 . S
C6068 C6063 1.350 . S
C6069 H6056 0.929 . S
C6069 C6061 1.433 . S
C6069 N6071 1.384 . S
N6070 C6066 1.427 . S
N6070 C6067 1.384 . S
N6071 C6063 1.427 . S
N6071 C6069 1.384 . S
H6072 C6078 0.930 . S
H6073 C6082 0.930 . S
H6074 C6087 0.929 . S
H6075 C6085 0.929 . S
H6076 C6080 0.929 . S
H6077 C6086 0.929 . S
C6078 H6072 0.930 . S
C6078 C6079 1.367 . S
C6078 C6086 1.378 . S
C6079 C6078 1.367 . S
C6079 C6087 1.433 . S
C6080 H6076 0.929 . S
C6080 C6082 1.378 . S
C6080 C6084 1.350 . S
C6081 C6084 1.463 . S
C6081 C6086 1.350 . S
C6081 N6089 1.427 . S
C6082 H6073 0.930 . S
C6082 C6080 1.378 . S
C6082 C6083 1.367 . S
C6083 C6082 1.367 . S
C6083 C6085 1.433 . S
C6084 C6080 1.350 . S
C6084 C6081 1.463 . S
C6084 N6088 1.427 . S
C6085 H6075 0.929 . S
C6085 C6083 1.433 . S
C6085 N6088 1.384 . S
C6086 H6077 0.929 . S
C6086 C6078 1.378 . S
C6086 C6081 1.350 . S
C6087 H6074 0.929 . S
C6087 C6079 1.433 . S
C6087 N6089 1.384 . S
N6088 C6084 1.427 . S
N6088 C6085 1.384 . S
N6089 C6081 1.427 . S
N6089 C6087 1.384 . S
H6090 C6096 0.930 . S
H6091 C6100 0.930 . S
H6092 C6105 0.929 . S
H6093 C6103 0.929 . S
H6094 C6098 0.929 . S
H6095 C6104 0.917 1_655 S
C6096 H6090 0.930 . S
C6096 C6097 1.367 . S
C6096 C6104 1.378 . S
C6097 C6096 1.367 . S
C6097 C6105 1.433 . S
C6098 H6094 0.929 . S
C6098 C6100 1.378 . S
C6098 C6102 1.350 . S
C6099 C6102 1.463 . S
C6099 C6104 1.350 1_655 S
C6099 N6107 1.427 . S
C6100 H6091 0.930 . S
C6100 C6098 1.378 . S
C6100 C6101 1.367 . S
C6101 C6100 1.367 . S
C6101 C6103 1.433 . S
C6102 C6098 1.350 . S
C6102 C6099 1.463 . S
C6102 N6106 1.427 . S
C6103 H6093 0.929 . S
C6103 C6101 1.433 . S
C6103 N6106 1.384 . S
C6104 H6095 0.917 1_455 S
C6104 C6096 1.378 . S
C6104 C6099 1.350 1_455 S
C6105 H6092 0.929 . S
C6105 C6097 1.433 . S
C6105 N6107 1.384 1_455 S
N6106 C6102 1.427 . S
N6106 C6103 1.384 . S
N6107 C6099 1.427 . S
N6107 C6105 1.384 1_655 S
H6108 C6114 0.930 . S
H6109 C6118 0.930 . S
H6110 C6123 0.929 . S
H6111 C6121 0.929 . S
H6112 C6116 0.929 . S
H6113 C6122 0.929 . S
C6114 H6108 0.930 . S
C6114 C6115 1.367 . S
C6114 C6122 1.378 . S
C6115 C6114 1.367 . S
C6115 C6123 1.433 . S
C6116 H6112 0.929 . S
C6116 C6118 1.378 . S
C6116 C6120 1.350 . S
C6117 C6120 1.463 . S
C6117 C6122 1.350 . S
C6117 N6125 1.427 . S
C6118 H6109 0.930 . S
C6118 C6116 1.378 . S
C6118 C6119 1.367 . S
C6119 C6118 1.367 . S
C6119 C6121 1.433 . S
C6120 C6116 1.350 . S
C6120 C6117 1.463 . S
C6120 N6124 1.427 . S
C6121 H6111 0.929 . S
C6121 C6119 1.433 . S
C6121 N6124 1.384 . S
C6122 H6113 0.929 . S
C6122 C6114 1.378 . S
C6122 C6117 1.350 . S
C6123 H6110 0.929 . S
C6123 C6115 1.433 . S
C6123 N6125 1.384 . S
N6124 C6120 1.427 . S
N6124 C6121 1.384 . S
N6125 C6117 1.427 . S
N6125 C6123 1.384 . S
H6126 C6132 0.930 . S
H6127 C6136 0.930 . S
H6128 C6141 0.929 . S
H6129 C6139 0.929 . S
H6130 C6134 0.929 . S
H6131 C6140 0.929 . S
C6132 H6126 0.930 . S
C6132 C6133 1.367 . S
C6132 C6140 1.378 . S
C6133 C6132 1.367 . S
C6133 C6141 1.433 . S
C6134 H6130 0.929 . S
C6134 C6136 1.378 . S
C6134 C6138 1.350 . S
C6135 C6138 1.463 . S
C6135 C6140 1.350 . S
C6135 N6143 1.427 . S
C6136 H6127 0.930 . S
C6136 C6134 1.378 . S
C6136 C6137 1.367 . S
C6137 C6136 1.367 . S
C6137 C6139 1.433 . S
C6138 C6134 1.350 . S
C6138 C6135 1.463 . S
C6138 N6142 1.427 . S
C6139 H6129 0.929 . S
C6139 C6137 1.433 . S
C6139 N6142 1.384 . S
C6140 H6131 0.929 . S
C6140 C6132 1.378 . S
C6140 C6135 1.350 . S
C6141 H6128 0.929 . S
C6141 C6133 1.433 . S
C6141 N6143 1.384 . S
N6142 C6138 1.427 . S
N6142 C6139 1.384 . S
N6143 C6135 1.427 . S
N6143 C6141 1.384 . S
H6144 C6150 0.930 . S
H6145 C6154 0.930 . S
H6146 C6159 0.929 . S
H6147 C6157 0.929 . S
H6148 C6152 0.929 . S
H6149 C6158 0.929 . S
C6150 H6144 0.930 . S
C6150 C6151 1.367 . S
C6150 C6158 1.378 . S
C6151 C6150 1.367 . S
C6151 C6159 1.433 . S
C6152 H6148 0.929 . S
C6152 C6154 1.378 . S
C6152 C6156 1.350 . S
C6153 C6156 1.463 . S
C6153 C6158 1.350 . S
C6153 N6161 1.427 . S
C6154 H6145 0.930 . S
C6154 C6152 1.378 . S
C6154 C6155 1.367 . S
C6155 C6154 1.367 . S
C6155 C6157 1.433 . S
C6156 C6152 1.350 . S
C6156 C6153 1.463 . S
C6156 N6160 1.427 . S
C6157 H6147 0.929 . S
C6157 C6155 1.433 . S
C6157 N6160 1.384 . S
C6158 H6149 0.929 . S
C6158 C6150 1.378 . S
C6158 C6153 1.350 . S
C6159 H6146 0.929 . S
C6159 C6151 1.433 . S
C6159 N6161 1.384 . S
N6160 C6156 1.427 . S
N6160 C6157 1.384 . S
N6161 C6153 1.427 . S
N6161 C6159 1.384 . S
H6162 C6168 0.930 . S
H6163 C6172 0.930 . S
H6164 C6177 0.929 . S
H6165 C6175 0.929 . S
H6166 C6170 0.929 . S
H6167 C6176 0.929 . S
C6168 H6162 0.930 . S
C6168 C6169 1.367 . S
C6168 C6176 1.378 . S
C6169 C6168 1.367 . S
C6169 C6177 1.433 . S
C6170 H6166 0.929 . S
C6170 C6172 1.378 . S
C6170 C6174 1.350 . S
C6171 C6174 1.463 . S
C6171 C6176 1.350 . S
C6171 N6179 1.427 . S
C6172 H6163 0.930 . S
C6172 C6170 1.378 . S
C6172 C6173 1.367 . S
C6173 C6172 1.367 . S
C6173 C6175 1.433 . S
C6174 C6170 1.350 . S
C6174 C6171 1.463 . S
C6174 N6178 1.427 . S
C6175 H6165 0.929 . S
C6175 C6173 1.433 . S
C6175 N6178 1.384 . S
C6176 H6167 0.929 . S
C6176 C6168 1.378 . S
C6176 C6171 1.350 . S
C6177 H6164 0.929 . S
C6177 C6169 1.433 . S
C6177 N6179 1.384 . S
N6178 C6174 1.427 . S
N6178 C6175 1.384 . S
N6179 C6171 1.427 . S
N6179 C6177 1.384 . S
H6180 C6186 0.930 . S
H6181 C6190 0.930 . S
H6182 C6195 0.929 . S
H6183 C6193 0.929 . S
H6184 C6188 0.929 . S
H6185 C6194 0.929 . S
C6186 H6180 0.930 . S
C6186 C6187 1.367 . S
C6186 C6194 1.378 . S
C6187 C6186 1.367 . S
C6187 C6195 1.433 . S
C6188 H6184 0.929 . S
C6188 C6190 1.378 . S
C6188 C6192 1.350 . S
C6189 C6192 1.463 . S
C6189 C6194 1.350 . S
C6189 N6197 1.427 . S
C6190 H6181 0.930 . S
C6190 C6188 1.378 . S
C6190 C6191 1.367 . S
C6191 C6190 1.367 . S
C6191 C6193 1.433 . S
C6192 C6188 1.350 . S
C6192 C6189 1.463 . S
C6192 N6196 1.427 . S
C6193 H6183 0.929 . S
C6193 C6191 1.433 . S
C6193 N6196 1.384 . S
C6194 H6185 0.929 . S
C6194 C6186 1.378 . S
C6194 C6189 1.350 . S
C6195 H6182 0.929 . S
C6195 C6187 1.433 . S
C6195 N6197 1.384 . S
N6196 C6192 1.427 . S
N6196 C6193 1.384 . S
N6197 C6189 1.427 . S
N6197 C6195 1.384 . S
H6198 C6204 0.930 . S
H6199 C6208 0.930 . S
H6200 C6213 0.929 . S
H6201 C6211 0.929 . S
H6202 C6206 0.929 . S
H6203 C6212 0.929 . S
C6204 H6198 0.930 . S
C6204 C6205 1.367 1_565 S
C6204 C6212 1.378 . S
C6205 C6204 1.367 1_545 S
C6205 C6213 1.433 . S
C6206 H6202 0.929 . S
C6206 C6208 1.378 . S
C6206 C6210 1.350 . S
C6207 C6210 1.463 . S
C6207 C6212 1.350 1_545 S
C6207 N6215 1.427 . S
C6208 H6199 0.930 . S
C6208 C6206 1.378 . S
C6208 C6209 1.367 . S
C6209 C6208 1.367 . S
C6209 C6211 1.433 1_545 S
C6210 C6206 1.350 . S
C6210 C6207 1.463 . S
C6210 N6214 1.427 1_545 S
C6211 H6201 0.929 . S
C6211 C6209 1.433 1_565 S
C6211 N6214 1.384 . S
C6212 H6203 0.929 . S
C6212 C6204 1.378 . S
C6212 C6207 1.350 1_565 S
C6213 H6200 0.929 . S
C6213 C6205 1.433 . S
C6213 N6215 1.384 . S
N6214 C6210 1.427 1_565 S
N6214 C6211 1.384 . S
N6215 C6207 1.427 . S
N6215 C6213 1.384 . S
H6216 C6222 0.930 . S
H6217 C6226 0.930 . S
H6218 C6231 0.929 . S
H6219 C6229 0.929 . S
H6220 C6224 0.929 . S
H6221 C6230 0.929 . S
C6222 H6216 0.930 . S
C6222 C6223 1.367 . S
C6222 C6230 1.378 . S
C6223 C6222 1.367 . S
C6223 C6231 1.433 1_554 S
C6224 H6220 0.929 . S
C6224 C6226 1.378 . S
C6224 C6228 1.350 1_556 S
C6225 C6228 1.463 . S
C6225 C6230 1.350 . S
C6225 N6233 1.427 1_554 S
C6226 H6217 0.930 . S
C6226 C6224 1.378 . S
C6226 C6227 1.367 1_556 S
C6227 C6226 1.367 1_554 S
C6227 C6229 1.433 . S
C6228 C6224 1.350 1_554 S
C6228 C6225 1.463 . S
C6228 N6232 1.427 . S
C6229 H6219 0.929 . S
C6229 C6227 1.433 . S
C6229 N6232 1.384 . S
C6230 H6221 0.929 . S
C6230 C6222 1.378 . S
C6230 C6225 1.350 . S
C6231 H6218 0.929 . S
C6231 C6223 1.433 1_556 S
C6231 N6233 1.384 . S
N6232 C6228 1.427 . S
N6232 C6229 1.384 . S
N6233 C6225 1.427 1_556 S
N6233 C6231 1.384 . S
H6234 C6240 0.930 . S
H6235 C6244 0.930 . S
H6236 C6249 0.929 . S
H6237 C6247 0.929 . S
H6238 C6242 0.929 . S
H6239 C6248 0.929 . S
C6240 H6234 0.930 . S
C6240 C6241 1.367 . S
C6240 C6248 1.378 . S
C6241 C6240 1.367 . S
C6241 C6249 1.433 . S
C6242 H6238 0.929 . S
C6242 C6244 1.378 . S
C6242 C6246 1.350 . S
C6243 C6246 1.463 . S
C6243 C6248 1.350 . S
C6243 N6251 1.427 . S
C6244 H6235 0.930 . S
C6244 C6242 1.378 . S
C6244 C6245 1.367 . S
C6245 C6244 1.367 . S
C6245 C6247 1.433 . S
C6246 C6242 1.350 . S
C6246 C6243 1.463 . S
C6246 N6250 1.427 . S
C6247 H6237 0.929 . S
C6247 C6245 1.433 . S
C6247 N6250 1.384 . S
C6248 H6239 0.929 . S
C6248 C6240 1.378 . S
C6248 C6243 1.350 . S
C6249 H6236 0.929 . S
C6249 C6241 1.433 . S
C6249 N6251 1.384 . S
N6250 C6246 1.427 . S
N6250 C6247 1.384 . S
N6251 C6243 1.427 . S
N6251 C6249 1.384 . S
H6252 C6258 0.930 . S
H6253 C6262 0.930 . S
H6254 C6267 0.929 . S
H6255 C6265 0.929 . S
H6256 C6260 0.929 . S
H6257 C6266 0.929 . S
C6258 H6252 0.930 . S
C6258 C6259 1.367 . S
C6258 C6266 1.378 . S
C6259 C6258 1.367 . S
C6259 C6267 1.433 . S
C6260 H6256 0.929 . S
C6260 C6262 1.378 . S
C6260 C6264 1.350 . S
C6261 C6264 1.463 . S
C6261 C6266 1.350 . S
C6261 N6269 1.427 . S
C6262 H6253 0.930 . S
C6262 C6260 1.378 . S
C6262 C6263 1.367 . S
C6263 C6262 1.367 . S
C6263 C6265 1.433 . S
C6264 C6260 1.350 . S
C6264 C6261 1.463 . S
C6264 N6268 1.427 . S
C6265 H6255 0.929 . S
C6265 C6263 1.433 . S
C6265 N6268 1.384 . S
C6266 H6257 0.929 . S
C6266 C6258 1.378 . S
C6266 C6261 1.350 . S
C6267 H6254 0.929 . S
C6267 C6259 1.433 . S
C6267 N6269 1.384 . S
N6268 C6264 1.427 . S
N6268 C6265 1.384 . S
N6269 C6261 1.427 . S
N6269 C6267 1.384 . S
H6270 C6276 0.930 . S
H6271 C6280 0.930 . S
H6272 C6285 0.929 . S
H6273 C6283 0.929 . S
H6274 C6278 0.929 . S
H6275 C6284 0.929 . S
C6276 H6270 0.930 . S
C6276 C6277 1.367 . S
C6276 C6284 1.378 . S
C6277 C6276 1.367 . S
C6277 C6285 1.433 . S
C6278 H6274 0.929 . S
C6278 C6280 1.378 . S
C6278 C6282 1.350 . S
C6279 C6282 1.463 . S
C6279 C6284 1.350 . S
C6279 N6287 1.427 . S
C6280 H6271 0.930 . S
C6280 C6278 1.378 . S
C6280 C6281 1.367 . S
C6281 C6280 1.367 . S
C6281 C6283 1.433 . S
C6282 C6278 1.350 . S
C6282 C6279 1.463 . S
C6282 N6286 1.427 . S
C6283 H6273 0.929 . S
C6283 C6281 1.433 . S
C6283 N6286 1.384 . S
C6284 H6275 0.929 . S
C6284 C6276 1.378 . S
C6284 C6279 1.350 . S
C6285 H6272 0.929 . S
C6285 C6277 1.433 . S
C6285 N6287 1.384 . S
N6286 C6282 1.427 . S
N6286 C6283 1.384 . S
N6287 C6279 1.427 . S
N6287 C6285 1.384 . S
H6288 C6294 0.930 . S
H6289 C6298 0.930 . S
H6290 C6303 0.929 . S
H6291 C6301 0.929 . S
H6292 C6296 0.929 . S
H6293 C6302 0.929 . S
C6294 H6288 0.930 . S
C6294 C6295 1.367 . S
C6294 C6302 1.378 . S
C6295 C6294 1.367 . S
C6295 C6303 1.433 . S
C6296 H6292 0.929 . S
C6296 C6298 1.378 . S
C6296 C6300 1.350 . S
C6297 C6300 1.463 . S
C6297 C6302 1.350 . S
C6297 N6305 1.427 . S
C6298 H6289 0.930 . S
C6298 C6296 1.378 . S
C6298 C6299 1.367 . S
C6299 C6298 1.367 . S
C6299 C6301 1.433 . S
C6300 C6296 1.350 . S
C6300 C6297 1.463 . S
C6300 N6304 1.427 . S
C6301 H6291 0.929 . S
C6301 C6299 1.433 . S
C6301 N6304 1.384 . S
C6302 H6293 0.929 . S
C6302 C6294 1.378 . S
C6302 C6297 1.350 . S
C6303 H6290 0.929 . S
C6303 C6295 1.433 . S
C6303 N6305 1.384 . S
N6304 C6300 1.427 . S
N6304 C6301 1.384 . S
N6305 C6297 1.427 . S
N6305 C6303 1.384 . S
H6306 C6312 0.930 . S
H6307 C6316 0.930 . S
H6308 C6321 0.929 . S
H6309 C6319 0.929 . S
H6310 C6314 0.929 . S
H6311 C6320 0.929 . S
C6312 H6306 0.930 . S
C6312 C6313 1.367 1_556 S
C6312 C6320 1.378 . S
C6313 C6312 1.367 1_554 S
C6313 C6321 1.433 . S
C6314 H6310 0.929 . S
C6314 C6316 1.378 . S
C6314 C6318 1.350 . S
C6315 C6318 1.463 . S
C6315 C6320 1.350 1_554 S
C6315 N6323 1.427 . S
C6316 H6307 0.930 . S
C6316 C6314 1.378 . S
C6316 C6317 1.367 . S
C6317 C6316 1.367 . S
C6317 C6319 1.433 1_554 S
C6318 C6314 1.350 . S
C6318 C6315 1.463 . S
C6318 N6322 1.427 1_554 S
C6319 H6309 0.929 . S
C6319 C6317 1.433 1_556 S
C6319 N6322 1.384 . S
C6320 H6311 0.929 . S
C6320 C6312 1.378 . S
C6320 C6315 1.350 1_556 S
C6321 H6308 0.929 . S
C6321 C6313 1.433 . S
C6321 N6323 1.384 . S
N6322 C6318 1.427 1_556 S
N6322 C6319 1.384 . S
N6323 C6315 1.427 . S
N6323 C6321 1.384 . S
H6324 C6330 0.930 . S
H6325 C6334 0.930 1_565 S
H6326 C6339 0.929 . S
H6327 C6337 0.929 . S
H6328 C6332 0.929 . S
H6329 C6338 0.929 . S
C6330 H6324 0.930 . S
C6330 C6331 1.367 . S
C6330 C6338 1.378 . S
C6331 C6330 1.367 . S
C6331 C6339 1.433 . S
C6332 H6328 0.929 . S
C6332 C6334 1.378 1_565 S
C6332 C6336 1.350 . S
C6333 C6336 1.463 . S
C6333 C6338 1.350 . S
C6333 N6341 1.427 . S
C6334 H6325 0.930 1_545 S
C6334 C6332 1.378 1_545 S
C6334 C6335 1.367 . S
C6335 C6334 1.367 . S
C6335 C6337 1.433 . S
C6336 C6332 1.350 . S
C6336 C6333 1.463 . S
C6336 N6340 1.427 1_565 S
C6337 H6327 0.929 . S
C6337 C6335 1.433 . S
C6337 N6340 1.384 . S
C6338 H6329 0.929 . S
C6338 C6330 1.378 . S
C6338 C6333 1.350 . S
C6339 H6326 0.929 . S
C6339 C6331 1.433 . S
C6339 N6341 1.384 . S
N6340 C6336 1.427 1_545 S
N6340 C6337 1.384 . S
N6341 C6333 1.427 . S
N6341 C6339 1.384 . S
H6342 C6348 0.930 . S
H6343 C6352 0.930 . S
H6344 C6357 0.929 . S
H6345 C6355 0.929 . S
H6346 C6350 0.929 . S
H6347 C6356 0.929 . S
C6348 H6342 0.930 . S
C6348 C6349 1.367 . S
C6348 C6356 1.378 . S
C6349 C6348 1.367 . S
C6349 C6357 1.433 . S
C6350 H6346 0.929 . S
C6350 C6352 1.378 . S
C6350 C6354 1.350 . S
C6351 C6354 1.463 . S
C6351 C6356 1.350 . S
C6351 N6359 1.427 . S
C6352 H6343 0.930 . S
C6352 C6350 1.378 . S
C6352 C6353 1.367 . S
C6353 C6352 1.367 . S
C6353 C6355 1.433 . S
C6354 C6350 1.350 . S
C6354 C6351 1.463 . S
C6354 N6358 1.427 . S
C6355 H6345 0.929 . S
C6355 C6353 1.433 . S
C6355 N6358 1.384 . S
C6356 H6347 0.929 . S
C6356 C6348 1.378 . S
C6356 C6351 1.350 . S
C6357 H6344 0.929 . S
C6357 C6349 1.433 . S
C6357 N6359 1.384 . S
N6358 C6354 1.427 . S
N6358 C6355 1.384 . S
N6359 C6351 1.427 . S
N6359 C6357 1.384 . S
H6360 C6366 0.930 . S
H6361 C6370 0.930 . S
H6362 C6375 0.929 . S
H6363 C6373 0.929 . S
H6364 C6368 0.929 . S
H6365 C6374 0.929 . S
C6366 H6360 0.930 . S
C6366 C6367 1.367 . S
C6366 C6374 1.378 . S
C6367 C6366 1.367 . S
C6367 C6375 1.433 . S
C6368 H6364 0.929 . S
C6368 C6370 1.378 . S
C6368 C6372 1.350 . S
C6369 C6372 1.463 . S
C6369 C6374 1.350 . S
C6369 N6377 1.427 . S
C6370 H6361 0.930 . S
C6370 C6368 1.378 . S
C6370 C6371 1.367 . S
C6371 C6370 1.367 . S
C6371 C6373 1.433 . S
C6372 C6368 1.350 . S
C6372 C6369 1.463 . S
C6372 N6376 1.427 . S
C6373 H6363 0.929 . S
C6373 C6371 1.433 . S
C6373 N6376 1.384 . S
C6374 H6365 0.929 . S
C6374 C6366 1.378 . S
C6374 C6369 1.350 . S
C6375 H6362 0.929 . S
C6375 C6367 1.433 . S
C6375 N6377 1.384 . S
N6376 C6372 1.427 . S
N6376 C6373 1.384 . S
N6377 C6369 1.427 . S
N6377 C6375 1.384 . S
H6378 C6384 0.930 . S
H6379 C6388 0.930 . S
H6380 C6393 0.929 . S
H6381 C6391 0.929 . S
H6382 C6386 0.929 . S
H6383 C6392 0.929 . S
C6384 H6378 0.930 . S
C6384 C6385 1.367 . S
C6384 C6392 1.378 . S
C6385 C6384 1.367 . S
C6385 C6393 1.433 . S
C6386 H6382 0.929 . S
C6386 C6388 1.378 . S
C6386 C6390 1.350 . S
C6387 C6390 1.463 . S
C6387 C6392 1.350 . S
C6387 N6395 1.427 . S
C6388 H6379 0.930 . S
C6388 C6386 1.378 . S
C6388 C6389 1.367 . S
C6389 C6388 1.367 . S
C6389 C6391 1.433 . S
C6390 C6386 1.350 . S
C6390 C6387 1.463 . S
C6390 N6394 1.427 . S
C6391 H6381 0.929 . S
C6391 C6389 1.433 . S
C6391 N6394 1.384 . S
C6392 H6383 0.929 . S
C6392 C6384 1.378 . S
C6392 C6387 1.350 . S
C6393 H6380 0.929 . S
C6393 C6385 1.433 . S
C6393 N6395 1.384 . S
N6394 C6390 1.427 . S
N6394 C6391 1.384 . S
N6395 C6387 1.427 . S
N6395 C6393 1.384 . S
H6396 C6402 0.930 . S
H6397 C6406 0.930 . S
H6398 C6411 0.929 . S
H6399 C6409 0.929 . S
H6400 C6404 0.929 . S
H6401 C6410 0.929 . S
C6402 H6396 0.930 . S
C6402 C6403 1.367 . S
C6402 C6410 1.378 . S
C6403 C6402 1.367 . S
C6403 C6411 1.433 . S
C6404 H6400 0.929 . S
C6404 C6406 1.378 . S
C6404 C6408 1.350 . S
C6405 C6408 1.463 . S
C6405 C6410 1.350 . S
C6405 N6413 1.427 . S
C6406 H6397 0.930 . S
C6406 C6404 1.378 . S
C6406 C6407 1.367 . S
C6407 C6406 1.367 . S
C6407 C6409 1.433 . S
C6408 C6404 1.350 . S
C6408 C6405 1.463 . S
C6408 N6412 1.427 . S
C6409 H6399 0.929 . S
C6409 C6407 1.433 . S
C6409 N6412 1.384 . S
C6410 H6401 0.929 . S
C6410 C6402 1.378 . S
C6410 C6405 1.350 . S
C6411 H6398 0.929 . S
C6411 C6403 1.433 . S
C6411 N6413 1.384 . S
N6412 C6408 1.427 . S
N6412 C6409 1.384 . S
N6413 C6405 1.427 . S
N6413 C6411 1.384 . S
H6414 C6420 0.930 . S
H6415 C6424 0.930 . S
H6416 C6429 0.929 . S
H6417 C6427 0.929 . S
H6418 C6422 0.929 . S
H6419 C6428 0.929 . S
C6420 H6414 0.930 . S
C6420 C6421 1.367 . S
C6420 C6428 1.378 . S
C6421 C6420 1.367 . S
C6421 C6429 1.433 . S
C6422 H6418 0.929 . S
C6422 C6424 1.378 . S
C6422 C6426 1.350 . S
C6423 C6426 1.463 . S
C6423 C6428 1.350 . S
C6423 N6431 1.427 . S
C6424 H6415 0.930 . S
C6424 C6422 1.378 . S
C6424 C6425 1.367 . S
C6425 C6424 1.367 . S
C6425 C6427 1.433 . S
C6426 C6422 1.350 . S
C6426 C6423 1.463 . S
C6426 N6430 1.427 . S
C6427 H6417 0.929 . S
C6427 C6425 1.433 . S
C6427 N6430 1.384 . S
C6428 H6419 0.929 . S
C6428 C6420 1.378 . S
C6428 C6423 1.350 . S
C6429 H6416 0.929 . S
C6429 C6421 1.433 . S
C6429 N6431 1.384 . S
N6430 C6426 1.427 . S
N6430 C6427 1.384 . S
N6431 C6423 1.427 . S
N6431 C6429 1.384 . S
H6432 C6438 0.929 1_556 S
H6433 C6442 0.930 . S
H6434 C6447 0.929 . S
H6435 C6445 0.929 . S
H6436 C6440 0.929 . S
H6437 C6446 0.929 . S
C6438 H6432 0.929 1_554 S
C6438 C6439 1.367 . S
C6438 C6446 1.378 1_554 S
C6439 C6438 1.367 . S
C6439 C6447 1.433 . S
C6440 H6436 0.929 . S
C6440 C6442 1.378 . S
C6440 C6444 1.350 . S
C6441 C6444 1.463 . S
C6441 C6446 1.350 . S
C6441 N6449 1.427 1_556 S
C6442 H6433 0.930 . S
C6442 C6440 1.378 . S
C6442 C6443 1.367 . S
C6443 C6442 1.367 . S
C6443 C6445 1.433 . S
C6444 C6440 1.350 . S
C6444 C6441 1.463 . S
C6444 N6448 1.427 . S
C6445 H6435 0.929 . S
C6445 C6443 1.433 . S
C6445 N6448 1.384 . S
C6446 H6437 0.929 . S
C6446 C6438 1.378 1_556 S
C6446 C6441 1.350 . S
C6447 H6434 0.929 . S
C6447 C6439 1.433 . S
C6447 N6449 1.384 . S
N6448 C6444 1.427 . S
N6448 C6445 1.384 . S
N6449 C6441 1.427 1_554 S
N6449 C6447 1.384 . S
H6450 C6456 0.930 . S
H6451 C6460 0.930 . S
H6452 C6465 0.929 . S
H6453 C6463 0.929 . S
H6454 C6458 0.929 . S
H6455 C6464 0.929 . S
C6456 H6450 0.930 . S
C6456 C6457 1.367 . S
C6456 C6464 1.378 . S
C6457 C6456 1.367 . S
C6457 C6465 1.433 . S
C6458 H6454 0.929 . S
C6458 C6460 1.378 . S
C6458 C6462 1.350 . S
C6459 C6462 1.463 . S
C6459 C6464 1.350 . S
C6459 N6467 1.427 . S
C6460 H6451 0.930 . S
C6460 C6458 1.378 . S
C6460 C6461 1.367 . S
C6461 C6460 1.367 . S
C6461 C6463 1.433 . S
C6462 C6458 1.350 . S
C6462 C6459 1.463 . S
C6462 N6466 1.427 . S
C6463 H6453 0.929 . S
C6463 C6461 1.433 . S
C6463 N6466 1.384 . S
C6464 H6455 0.929 . S
C6464 C6456 1.378 . S
C6464 C6459 1.350 . S
C6465 H6452 0.929 . S
C6465 C6457 1.433 . S
C6465 N6467 1.384 . S
N6466 C6462 1.427 . S
N6466 C6463 1.384 . S
N6467 C6459 1.427 . S
N6467 C6465 1.384 . S
H6468 C6474 0.930 . S
H6469 C6478 0.930 . S
H6470 C6483 0.929 . S
H6471 C6481 0.929 . S
H6472 C6476 0.929 . S
H6473 C6482 0.929 . S
C6474 H6468 0.930 . S
C6474 C6475 1.367 . S
C6474 C6482 1.378 . S
C6475 C6474 1.367 . S
C6475 C6483 1.433 . S
C6476 H6472 0.929 . S
C6476 C6478 1.378 . S
C6476 C6480 1.350 . S
C6477 C6480 1.463 . S
C6477 C6482 1.350 . S
C6477 N6485 1.427 . S
C6478 H6469 0.930 . S
C6478 C6476 1.378 . S
C6478 C6479 1.367 . S
C6479 C6478 1.367 . S
C6479 C6481 1.433 . S
C6480 C6476 1.350 . S
C6480 C6477 1.463 . S
C6480 N6484 1.427 . S
C6481 H6471 0.929 . S
C6481 C6479 1.433 . S
C6481 N6484 1.384 . S
C6482 H6473 0.929 . S
C6482 C6474 1.378 . S
C6482 C6477 1.350 . S
C6483 H6470 0.929 . S
C6483 C6475 1.433 . S
C6483 N6485 1.384 . S
N6484 C6480 1.427 . S
N6484 C6481 1.384 . S
N6485 C6477 1.427 . S
N6485 C6483 1.384 . S
H6486 C6492 0.930 . S
H6487 C6496 0.930 . S
H6488 C6501 0.929 . S
H6489 C6499 0.929 . S
H6490 C6494 0.929 . S
H6491 C6500 0.929 . S
C6492 H6486 0.930 . S
C6492 C6493 1.367 . S
C6492 C6500 1.378 . S
C6493 C6492 1.367 . S
C6493 C6501 1.433 . S
C6494 H6490 0.929 . S
C6494 C6496 1.378 . S
C6494 C6498 1.350 1_554 S
C6495 C6498 1.463 . S
C6495 C6500 1.350 . S
C6495 N6503 1.427 . S
C6496 H6487 0.930 . S
C6496 C6494 1.378 . S
C6496 C6497 1.367 . S
C6497 C6496 1.367 . S
C6497 C6499 1.433 . S
C6498 C6494 1.350 1_556 S
C6498 C6495 1.463 . S
C6498 N6502 1.427 . S
C6499 H6489 0.929 . S
C6499 C6497 1.433 . S
C6499 N6502 1.384 1_554 S
C6500 H6491 0.929 . S
C6500 C6492 1.378 . S
C6500 C6495 1.350 . S
C6501 H6488 0.929 . S
C6501 C6493 1.433 . S
C6501 N6503 1.384 . S
N6502 C6498 1.427 . S
N6502 C6499 1.384 1_556 S
N6503 C6495 1.427 . S
N6503 C6501 1.384 . S
H6504 C6510 0.930 . S
H6505 C6514 0.930 . S
H6506 C6519 0.929 . S
H6507 C6517 0.929 . S
H6508 C6512 0.929 . S
H6509 C6518 0.929 . S
C6510 H6504 0.930 . S
C6510 C6511 1.367 . S
C6510 C6518 1.378 . S
C6511 C6510 1.367 . S
C6511 C6519 1.433 . S
C6512 H6508 0.929 . S
C6512 C6514 1.378 . S
C6512 C6516 1.350 . S
C6513 C6516 1.463 . S
C6513 C6518 1.350 . S
C6513 N6521 1.427 . S
C6514 H6505 0.930 . S
C6514 C6512 1.378 . S
C6514 C6515 1.367 . S
C6515 C6514 1.367 . S
C6515 C6517 1.433 . S
C6516 C6512 1.350 . S
C6516 C6513 1.463 . S
C6516 N6520 1.427 . S
C6517 H6507 0.929 . S
C6517 C6515 1.433 . S
C6517 N6520 1.384 . S
C6518 H6509 0.929 . S
C6518 C6510 1.378 . S
C6518 C6513 1.350 . S
C6519 H6506 0.929 . S
C6519 C6511 1.433 . S
C6519 N6521 1.384 . S
N6520 C6516 1.427 . S
N6520 C6517 1.384 . S
N6521 C6513 1.427 . S
N6521 C6519 1.384 . S
H6522 C6528 0.930 . S
H6523 C6532 0.930 . S
H6524 C6537 0.929 . S
H6525 C6535 0.929 . S
H6526 C6530 0.929 . S
H6527 C6536 0.929 . S
C6528 H6522 0.930 . S
C6528 C6529 1.367 . S
C6528 C6536 1.378 . S
C6529 C6528 1.367 . S
C6529 C6537 1.433 . S
C6530 H6526 0.929 . S
C6530 C6532 1.378 . S
C6530 C6534 1.350 . S
C6531 C6534 1.463 . S
C6531 C6536 1.350 . S
C6531 N6539 1.427 . S
C6532 H6523 0.930 . S
C6532 C6530 1.378 . S
C6532 C6533 1.367 . S
C6533 C6532 1.367 . S
C6533 C6535 1.433 . S
C6534 C6530 1.350 . S
C6534 C6531 1.463 . S
C6534 N6538 1.427 . S
C6535 H6525 0.929 . S
C6535 C6533 1.433 . S
C6535 N6538 1.384 . S
C6536 H6527 0.929 . S
C6536 C6528 1.378 . S
C6536 C6531 1.350 . S
C6537 H6524 0.929 . S
C6537 C6529 1.433 . S
C6537 N6539 1.384 . S
N6538 C6534 1.427 . S
N6538 C6535 1.384 . S
N6539 C6531 1.427 . S
N6539 C6537 1.384 . S
H6540 C6546 0.930 . S
H6541 C6550 0.930 . S
H6542 C6555 0.929 . S
H6543 C6553 0.929 . S
H6544 C6548 0.929 . S
H6545 C6554 0.929 . S
C6546 H6540 0.930 . S
C6546 C6547 1.367 . S
C6546 C6554 1.378 . S
C6547 C6546 1.367 . S
C6547 C6555 1.433 . S
C6548 H6544 0.929 . S
C6548 C6550 1.378 . S
C6548 C6552 1.350 . S
C6549 C6552 1.463 . S
C6549 C6554 1.350 . S
C6549 N6557 1.427 . S
C6550 H6541 0.930 . S
C6550 C6548 1.378 . S
C6550 C6551 1.367 . S
C6551 C6550 1.367 . S
C6551 C6553 1.433 . S
C6552 C6548 1.350 . S
C6552 C6549 1.463 . S
C6552 N6556 1.427 . S
C6553 H6543 0.929 . S
C6553 C6551 1.433 . S
C6553 N6556 1.384 . S
C6554 H6545 0.929 . S
C6554 C6546 1.378 . S
C6554 C6549 1.350 . S
C6555 H6542 0.929 . S
C6555 C6547 1.433 . S
C6555 N6557 1.384 . S
N6556 C6552 1.427 . S
N6556 C6553 1.384 . S
N6557 C6549 1.427 . S
N6557 C6555 1.384 . S
H6558 C6564 0.930 . S
H6559 C6568 0.930 . S
H6560 C6573 0.929 . S
H6561 C6571 0.929 . S
H6562 C6566 0.929 . S
H6563 C6572 0.929 . S
C6564 H6558 0.930 . S
C6564 C6565 1.367 . S
C6564 C6572 1.378 . S
C6565 C6564 1.367 . S
C6565 C6573 1.433 . S
C6566 H6562 0.929 . S
C6566 C6568 1.378 . S
C6566 C6570 1.350 . S
C6567 C6570 1.463 . S
C6567 C6572 1.350 . S
C6567 N6575 1.427 . S
C6568 H6559 0.930 . S
C6568 C6566 1.378 . S
C6568 C6569 1.367 . S
C6569 C6568 1.367 . S
C6569 C6571 1.433 . S
C6570 C6566 1.350 . S
C6570 C6567 1.463 . S
C6570 N6574 1.427 . S
C6571 H6561 0.929 . S
C6571 C6569 1.433 . S
C6571 N6574 1.384 . S
C6572 H6563 0.929 . S
C6572 C6564 1.378 . S
C6572 C6567 1.350 . S
C6573 H6560 0.929 . S
C6573 C6565 1.433 . S
C6573 N6575 1.384 . S
N6574 C6570 1.427 . S
N6574 C6571 1.384 . S
N6575 C6567 1.427 . S
N6575 C6573 1.384 . S
H6576 C6582 0.930 . S
H6577 C6586 0.930 . S
H6578 C6591 0.915 1_655 S
H6579 C6589 0.929 . S
H6580 C6584 0.929 . S
H6581 C6590 0.929 . S
C6582 H6576 0.930 . S
C6582 C6583 1.367 . S
C6582 C6590 1.378 . S
C6583 C6582 1.367 . S
C6583 C6591 1.498 . S
C6584 H6580 0.929 . S
C6584 C6586 1.378 . S
C6584 C6588 1.350 . S
C6585 C6588 1.463 . S
C6585 C6590 1.350 1_655 S
C6585 N6593 1.427 . S
C6586 H6577 0.930 . S
C6586 C6584 1.378 . S
C6586 C6587 1.367 . S
C6587 C6586 1.367 . S
C6587 C6589 1.433 . S
C6588 C6584 1.350 . S
C6588 C6585 1.463 . S
C6588 N6592 1.427 . S
C6589 H6579 0.929 . S
C6589 C6587 1.433 . S
C6589 N6592 1.384 . S
C6590 H6581 0.929 . S
C6590 C6582 1.378 . S
C6590 C6585 1.350 1_455 S
C6591 H6578 0.915 1_455 S
C6591 C6583 1.498 . S
C6591 N6593 1.337 1_455 S
N6592 C6588 1.427 . S
N6592 C6589 1.384 . S
N6593 C6585 1.427 . S
N6593 C6591 1.337 1_655 S
H6594 C6600 0.930 . S
H6595 C6604 0.930 . S
H6596 C6609 0.929 . S
H6597 C6607 0.929 . S
H6598 C6602 0.929 . S
H6599 C6608 0.929 . S
C6600 H6594 0.930 . S
C6600 C6601 1.367 . S
C6600 C6608 1.378 . S
C6601 C6600 1.367 . S
C6601 C6609 1.433 1_554 S
C6602 H6598 0.929 . S
C6602 C6604 1.378 . S
C6602 C6606 1.350 1_556 S
C6603 C6606 1.463 . S
C6603 C6608 1.350 . S
C6603 N6611 1.427 1_554 S
C6604 H6595 0.930 . S
C6604 C6602 1.378 . S
C6604 C6605 1.367 1_556 S
C6605 C6604 1.367 1_554 S
C6605 C6607 1.433 . S
C6606 C6602 1.350 1_554 S
C6606 C6603 1.463 . S
C6606 N6610 1.427 . S
C6607 H6597 0.929 . S
C6607 C6605 1.433 . S
C6607 N6610 1.384 . S
C6608 H6599 0.929 . S
C6608 C6600 1.378 . S
C6608 C6603 1.350 . S
C6609 H6596 0.929 . S
C6609 C6601 1.433 1_556 S
C6609 N6611 1.384 . S
N6610 C6606 1.427 . S
N6610 C6607 1.384 . S
N6611 C6603 1.427 1_556 S
N6611 C6609 1.384 . S
H6612 C6618 0.930 . S
H6613 C6622 0.930 . S
H6614 C6627 0.929 . S
H6615 C6625 0.929 . S
H6616 C6620 0.929 . S
H6617 C6626 0.929 . S
C6618 H6612 0.930 . S
C6618 C6619 1.367 . S
C6618 C6626 1.378 . S
C6619 C6618 1.367 . S
C6619 C6627 1.433 . S
C6620 H6616 0.929 . S
C6620 C6622 1.378 . S
C6620 C6624 1.350 . S
C6621 C6624 1.463 . S
C6621 C6626 1.350 . S
C6621 N6629 1.427 . S
C6622 H6613 0.930 . S
C6622 C6620 1.378 . S
C6622 C6623 1.367 . S
C6623 C6622 1.367 . S
C6623 C6625 1.433 . S
C6624 C6620 1.350 . S
C6624 C6621 1.463 . S
C6624 N6628 1.427 . S
C6625 H6615 0.929 . S
C6625 C6623 1.433 . S
C6625 N6628 1.384 . S
C6626 H6617 0.929 . S
C6626 C6618 1.378 . S
C6626 C6621 1.350 . S
C6627 H6614 0.929 . S
C6627 C6619 1.433 . S
C6627 N6629 1.384 . S
N6628 C6624 1.427 . S
N6628 C6625 1.384 . S
N6629 C6621 1.427 . S
N6629 C6627 1.384 . S
H6630 C6636 0.930 . S
H6631 C6640 0.930 . S
H6632 C6645 0.929 . S
H6633 C6643 0.929 . S
H6634 C6638 0.929 . S
H6635 C6644 0.929 . S
C6636 H6630 0.930 . S
C6636 C6637 1.367 . S
C6636 C6644 1.378 . S
C6637 C6636 1.367 . S
C6637 C6645 1.433 . S
C6638 H6634 0.929 . S
C6638 C6640 1.378 . S
C6638 C6642 1.350 . S
C6639 C6642 1.463 . S
C6639 C6644 1.350 . S
C6639 N6647 1.427 . S
C6640 H6631 0.930 . S
C6640 C6638 1.378 . S
C6640 C6641 1.367 . S
C6641 C6640 1.367 . S
C6641 C6643 1.433 . S
C6642 C6638 1.350 . S
C6642 C6639 1.463 . S
C6642 N6646 1.427 . S
C6643 H6633 0.929 . S
C6643 C6641 1.433 . S
C6643 N6646 1.384 . S
C6644 H6635 0.929 . S
C6644 C6636 1.378 . S
C6644 C6639 1.350 . S
C6645 H6632 0.929 . S
C6645 C6637 1.433 . S
C6645 N6647 1.384 . S
N6646 C6642 1.427 . S
N6646 C6643 1.384 . S
N6647 C6639 1.427 . S
N6647 C6645 1.384 . S
H6648 C6654 0.930 . S
H6649 C6658 0.930 . S
H6650 C6663 0.929 . S
H6651 C6661 0.929 . S
H6652 C6656 0.929 . S
H6653 C6662 0.916 1_655 S
C6654 H6648 0.930 . S
C6654 C6655 1.367 . S
C6654 C6662 1.410 . S
C6655 C6654 1.367 . S
C6655 C6663 1.433 . S
C6656 H6652 0.929 . S
C6656 C6658 1.378 1_556 S
C6656 C6660 1.350 . S
C6657 C6660 1.463 . S
C6657 C6662 1.332 1_655 S
C6657 N6665 1.427 . S
C6658 H6649 0.930 . S
C6658 C6656 1.378 1_554 S
C6658 C6659 1.367 . S
C6659 C6658 1.367 . S
C6659 C6661 1.433 . S
C6660 C6656 1.350 . S
C6660 C6657 1.463 . S
C6660 N6664 1.410 1_556 S
C6661 H6651 0.929 . S
C6661 C6659 1.433 . S
C6661 N6664 1.417 . S
C6662 H6653 0.916 1_455 S
C6662 C6654 1.410 . S
C6662 C6657 1.332 1_455 S
C6663 H6650 0.929 . S
C6663 C6655 1.433 . S
C6663 N6665 1.384 1_455 S
N6664 C6660 1.410 1_554 S
N6664 C6661 1.417 . S
N6665 C6657 1.427 . S
N6665 C6663 1.384 1_655 S
H6666 C6672 0.930 . S
H6667 C6676 0.930 . S
H6668 C6681 0.929 . S
H6669 C6679 0.929 . S
H6670 C6674 0.929 . S
H6671 C6680 0.929 . S
C6672 H6666 0.930 . S
C6672 C6673 1.367 . S
C6672 C6680 1.378 . S
C6673 C6672 1.367 . S
C6673 C6681 1.433 . S
C6674 H6670 0.929 . S
C6674 C6676 1.378 . S
C6674 C6678 1.350 . S
C6675 C6678 1.463 . S
C6675 C6680 1.350 . S
C6675 N6683 1.427 . S
C6676 H6667 0.930 . S
C6676 C6674 1.378 . S
C6676 C6677 1.367 . S
C6677 C6676 1.367 . S
C6677 C6679 1.433 . S
C6678 C6674 1.350 . S
C6678 C6675 1.463 . S
C6678 N6682 1.427 . S
C6679 H6669 0.929 . S
C6679 C6677 1.433 . S
C6679 N6682 1.384 . S
C6680 H6671 0.929 . S
C6680 C6672 1.378 . S
C6680 C6675 1.350 . S
C6681 H6668 0.929 . S
C6681 C6673 1.433 . S
C6681 N6683 1.384 . S
N6682 C6678 1.427 . S
N6682 C6679 1.384 . S
N6683 C6675 1.427 . S
N6683 C6681 1.384 . S
H6684 C6690 0.930 . S
H6685 C6694 0.930 . S
H6686 C6699 0.929 . S
H6687 C6697 0.929 . S
H6688 C6692 0.929 . S
H6689 C6698 0.929 . S
C6690 H6684 0.930 . S
C6690 C6691 1.367 . S
C6690 C6698 1.378 . S
C6691 C6690 1.367 . S
C6691 C6699 1.433 . S
C6692 H6688 0.929 . S
C6692 C6694 1.378 . S
C6692 C6696 1.350 . S
C6693 C6696 1.463 . S
C6693 C6698 1.350 . S
C6693 N6701 1.427 . S
C6694 H6685 0.930 . S
C6694 C6692 1.378 . S
C6694 C6695 1.367 . S
C6695 C6694 1.367 . S
C6695 C6697 1.433 . S
C6696 C6692 1.350 . S
C6696 C6693 1.463 . S
C6696 N6700 1.427 . S
C6697 H6687 0.929 . S
C6697 C6695 1.433 . S
C6697 N6700 1.384 . S
C6698 H6689 0.929 . S
C6698 C6690 1.378 . S
C6698 C6693 1.350 . S
C6699 H6686 0.929 . S
C6699 C6691 1.433 . S
C6699 N6701 1.384 . S
N6700 C6696 1.427 . S
N6700 C6697 1.384 . S
N6701 C6693 1.427 . S
N6701 C6699 1.384 . S
H6702 C6708 0.930 . S
H6703 C6712 0.930 . S
H6704 C6717 0.929 . S
H6705 C6715 0.929 . S
H6706 C6710 0.929 . S
H6707 C6716 0.911 1_655 S
C6708 H6702 0.930 . S
C6708 C6709 1.367 . S
C6708 C6716 1.429 . S
C6709 C6708 1.367 . S
C6709 C6717 1.433 . S
C6710 H6706 0.929 . S
C6710 C6712 1.378 . S
C6710 C6714 1.350 . S
C6711 C6714 1.463 . S
C6711 C6716 1.322 1_655 S
C6711 N6719 1.427 . S
C6712 H6703 0.930 . S
C6712 C6710 1.378 . S
C6712 C6713 1.367 . S
C6713 C6712 1.367 . S
C6713 C6715 1.433 . S
C6714 C6710 1.350 . S
C6714 C6711 1.463 . S
C6714 N6718 1.427 . S
C6715 H6705 0.929 . S
C6715 C6713 1.433 . S
C6715 N6718 1.384 . S
C6716 H6707 0.911 1_455 S
C6716 C6708 1.429 . S
C6716 C6711 1.322 1_455 S
C6717 H6704 0.929 . S
C6717 C6709 1.433 . S
C6717 N6719 1.384 1_455 S
N6718 C6714 1.427 . S
N6718 C6715 1.384 . S
N6719 C6711 1.427 . S
N6719 C6717 1.384 1_655 S
H6720 C6726 0.930 . S
H6721 C6730 0.930 . S
H6722 C6735 0.929 . S
H6723 C6733 0.929 . S
H6724 C6728 0.929 . S
H6725 C6734 0.929 . S
C6726 H6720 0.930 . S
C6726 C6727 1.367 . S
C6726 C6734 1.378 . S
C6727 C6726 1.367 . S
C6727 C6735 1.433 . S
C6728 H6724 0.929 . S
C6728 C6730 1.378 . S
C6728 C6732 1.350 . S
C6729 C6732 1.463 . S
C6729 C6734 1.350 . S
C6729 N6737 1.427 . S
C6730 H6721 0.930 . S
C6730 C6728 1.378 . S
C6730 C6731 1.367 . S
C6731 C6730 1.367 . S
C6731 C6733 1.433 . S
C6732 C6728 1.350 . S
C6732 C6729 1.463 . S
C6732 N6736 1.427 . S
C6733 H6723 0.929 . S
C6733 C6731 1.433 . S
C6733 N6736 1.384 . S
C6734 H6725 0.929 . S
C6734 C6726 1.378 . S
C6734 C6729 1.350 . S
C6735 H6722 0.929 . S
C6735 C6727 1.433 . S
C6735 N6737 1.384 . S
N6736 C6732 1.427 . S
N6736 C6733 1.384 . S
N6737 C6729 1.427 . S
N6737 C6735 1.384 . S
H6738 C6744 0.930 . S
H6739 C6748 0.930 . S
H6740 C6753 0.929 . S
H6741 C6751 0.929 . S
H6742 C6746 0.929 . S
H6743 C6752 0.929 . S
C6744 H6738 0.930 . S
C6744 C6745 1.367 . S
C6744 C6752 1.378 . S
C6745 C6744 1.367 . S
C6745 C6753 1.433 . S
C6746 H6742 0.929 . S
C6746 C6748 1.378 . S
C6746 C6750 1.350 . S
C6747 C6750 1.463 . S
C6747 C6752 1.350 . S
C6747 N6755 1.427 . S
C6748 H6739 0.930 . S
C6748 C6746 1.378 . S
C6748 C6749 1.367 . S
C6749 C6748 1.367 . S
C6749 C6751 1.433 . S
C6750 C6746 1.350 . S
C6750 C6747 1.463 . S
C6750 N6754 1.427 . S
C6751 H6741 0.929 . S
C6751 C6749 1.433 . S
C6751 N6754 1.384 . S
C6752 H6743 0.929 . S
C6752 C6744 1.378 . S
C6752 C6747 1.350 . S
C6753 H6740 0.929 . S
C6753 C6745 1.433 . S
C6753 N6755 1.384 . S
N6754 C6750 1.427 . S
N6754 C6751 1.384 . S
N6755 C6747 1.427 . S
N6755 C6753 1.384 . S
H6756 C6762 0.930 . S
H6757 C6766 0.930 . S
H6758 C6771 0.929 . S
H6759 C6769 0.929 . S
H6760 C6764 0.929 . S
H6761 C6770 0.929 . S
C6762 H6756 0.930 . S
C6762 C6763 1.367 . S
C6762 C6770 1.378 . S
C6763 C6762 1.367 . S
C6763 C6771 1.433 . S
C6764 H6760 0.929 . S
C6764 C6766 1.378 1_556 S
C6764 C6768 1.350 . S
C6765 C6768 1.463 . S
C6765 C6770 1.350 1_565 S
C6765 N6773 1.427 . S
C6766 H6757 0.930 . S
C6766 C6764 1.378 1_554 S
C6766 C6767 1.367 . S
C6767 C6766 1.367 . S
C6767 C6769 1.433 . S
C6768 C6764 1.350 . S
C6768 C6765 1.463 . S
C6768 N6772 1.427 1_556 S
C6769 H6759 0.929 . S
C6769 C6767 1.433 . S
C6769 N6772 1.384 . S
C6770 H6761 0.929 . S
C6770 C6762 1.378 . S
C6770 C6765 1.350 1_545 S
C6771 H6758 0.929 . S
C6771 C6763 1.433 . S
C6771 N6773 1.384 1_545 S
N6772 C6768 1.427 1_554 S
N6772 C6769 1.384 . S
N6773 C6765 1.427 . S
N6773 C6771 1.384 1_565 S
H6774 C6780 0.930 . S
H6775 C6784 0.930 . S
H6776 C6789 0.929 . S
H6777 C6787 0.929 . S
H6778 C6782 0.929 . S
H6779 C6788 0.929 . S
C6780 H6774 0.930 . S
C6780 C6781 1.367 . S
C6780 C6788 1.378 . S
C6781 C6780 1.367 . S
C6781 C6789 1.433 . S
C6782 H6778 0.929 . S
C6782 C6784 1.378 . S
C6782 C6786 1.350 . S
C6783 C6786 1.463 . S
C6783 C6788 1.350 . S
C6783 N6791 1.427 . S
C6784 H6775 0.930 . S
C6784 C6782 1.378 . S
C6784 C6785 1.367 . S
C6785 C6784 1.367 . S
C6785 C6787 1.433 . S
C6786 C6782 1.350 . S
C6786 C6783 1.463 . S
C6786 N6790 1.427 . S
C6787 H6777 0.929 . S
C6787 C6785 1.433 . S
C6787 N6790 1.384 . S
C6788 H6779 0.929 . S
C6788 C6780 1.378 . S
C6788 C6783 1.350 . S
C6789 H6776 0.929 . S
C6789 C6781 1.433 . S
C6789 N6791 1.384 . S
N6790 C6786 1.427 . S
N6790 C6787 1.384 . S
N6791 C6783 1.427 . S
N6791 C6789 1.384 . S
H6792 C6798 0.930 . S
H6793 C6802 0.930 . S
H6794 C6807 0.929 . S
H6795 C6805 0.929 . S
H6796 C6800 0.929 . S
H6797 C6806 0.929 . S
C6798 H6792 0.930 . S
C6798 C6799 1.367 . S
C6798 C6806 1.378 . S
C6799 C6798 1.367 . S
C6799 C6807 1.433 . S
C6800 H6796 0.929 . S
C6800 C6802 1.378 . S
C6800 C6804 1.350 . S
C6801 C6804 1.463 . S
C6801 C6806 1.350 . S
C6801 N6809 1.427 . S
C6802 H6793 0.930 . S
C6802 C6800 1.378 . S
C6802 C6803 1.367 . S
C6803 C6802 1.367 . S
C6803 C6805 1.433 . S
C6804 C6800 1.350 . S
C6804 C6801 1.463 . S
C6804 N6808 1.427 . S
C6805 H6795 0.929 . S
C6805 C6803 1.433 . S
C6805 N6808 1.384 . S
C6806 H6797 0.929 . S
C6806 C6798 1.378 . S
C6806 C6801 1.350 . S
C6807 H6794 0.929 . S
C6807 C6799 1.433 . S
C6807 N6809 1.384 . S
N6808 C6804 1.427 . S
N6808 C6805 1.384 . S
N6809 C6801 1.427 . S
N6809 C6807 1.384 . S
H6810 C6816 0.930 . S
H6811 C6820 0.930 . S
H6812 C6825 0.929 . S
H6813 C6823 0.929 . S
H6814 C6818 0.929 . S
H6815 C6824 0.929 . S
C6816 H6810 0.930 . S
C6816 C6817 1.367 . S
C6816 C6824 1.378 . S
C6817 C6816 1.367 . S
C6817 C6825 1.433 . S
C6818 H6814 0.929 . S
C6818 C6820 1.378 . S
C6818 C6822 1.350 . S
C6819 C6822 1.463 . S
C6819 C6824 1.350 . S
C6819 N6827 1.427 . S
C6820 H6811 0.930 . S
C6820 C6818 1.378 . S
C6820 C6821 1.367 . S
C6821 C6820 1.367 . S
C6821 C6823 1.433 . S
C6822 C6818 1.350 . S
C6822 C6819 1.463 . S
C6822 N6826 1.427 . S
C6823 H6813 0.929 . S
C6823 C6821 1.433 . S
C6823 N6826 1.384 . S
C6824 H6815 0.929 . S
C6824 C6816 1.378 . S
C6824 C6819 1.350 . S
C6825 H6812 0.929 . S
C6825 C6817 1.433 . S
C6825 N6827 1.384 . S
N6826 C6822 1.427 . S
N6826 C6823 1.384 . S
N6827 C6819 1.427 . S
N6827 C6825 1.384 . S
H6828 C6834 0.930 . S
H6829 C6838 0.930 . S
H6830 C6843 0.929 . S
H6831 C6841 0.929 . S
H6832 C6836 0.929 . S
H6833 C6842 0.929 . S
C6834 H6828 0.930 . S
C6834 C6835 1.367 . S
C6834 C6842 1.378 . S
C6835 C6834 1.367 . S
C6835 C6843 1.433 . S
C6836 H6832 0.929 . S
C6836 C6838 1.378 . S
C6836 C6840 1.350 . S
C6837 C6840 1.463 . S
C6837 C6842 1.350 . S
C6837 N6845 1.427 . S
C6838 H6829 0.930 . S
C6838 C6836 1.378 . S
C6838 C6839 1.367 . S
C6839 C6838 1.367 . S
C6839 C6841 1.433 . S
C6840 C6836 1.350 . S
C6840 C6837 1.463 . S
C6840 N6844 1.427 . S
C6841 H6831 0.929 . S
C6841 C6839 1.433 . S
C6841 N6844 1.384 . S
C6842 H6833 0.929 . S
C6842 C6834 1.378 . S
C6842 C6837 1.350 . S
C6843 H6830 0.929 . S
C6843 C6835 1.433 . S
C6843 N6845 1.384 . S
N6844 C6840 1.427 . S
N6844 C6841 1.384 . S
N6845 C6837 1.427 . S
N6845 C6843 1.384 . S
H6846 C6852 0.930 . S
H6847 C6856 0.930 . S
H6848 C6861 0.929 . S
H6849 C6859 0.929 . S
H6850 C6854 0.929 . S
H6851 C6860 0.929 . S
C6852 H6846 0.930 . S
C6852 C6853 1.367 . S
C6852 C6860 1.378 . S
C6853 C6852 1.367 . S
C6853 C6861 1.433 . S
C6854 H6850 0.929 . S
C6854 C6856 1.378 . S
C6854 C6858 1.350 . S
C6855 C6858 1.463 . S
C6855 C6860 1.350 . S
C6855 N6863 1.427 . S
C6856 H6847 0.930 . S
C6856 C6854 1.378 . S
C6856 C6857 1.367 . S
C6857 C6856 1.367 . S
C6857 C6859 1.433 . S
C6858 C6854 1.350 . S
C6858 C6855 1.463 . S
C6858 N6862 1.427 . S
C6859 H6849 0.929 . S
C6859 C6857 1.433 . S
C6859 N6862 1.384 . S
C6860 H6851 0.929 . S
C6860 C6852 1.378 . S
C6860 C6855 1.350 . S
C6861 H6848 0.929 . S
C6861 C6853 1.433 . S
C6861 N6863 1.384 . S
N6862 C6858 1.427 . S
N6862 C6859 1.384 . S
N6863 C6855 1.427 . S
N6863 C6861 1.384 . S
H6864 C6870 0.931 1_565 S
H6865 C6874 0.930 . S
H6866 C6879 0.929 . S
H6867 C6877 0.929 . S
H6868 C6872 0.929 . S
H6869 C6878 0.929 . S
C6870 H6864 0.931 1_545 S
C6870 C6871 1.367 . S
C6870 C6878 1.378 1_545 S
C6871 C6870 1.367 . S
C6871 C6879 1.433 . S
C6872 H6868 0.929 . S
C6872 C6874 1.378 . S
C6872 C6876 1.350 . S
C6873 C6876 1.463 . S
C6873 C6878 1.350 . S
C6873 N6881 1.427 1_565 S
C6874 H6865 0.930 . S
C6874 C6872 1.378 . S
C6874 C6875 1.367 . S
C6875 C6874 1.367 . S
C6875 C6877 1.433 . S
C6876 C6872 1.350 . S
C6876 C6873 1.463 . S
C6876 N6880 1.427 . S
C6877 H6867 0.929 . S
C6877 C6875 1.433 . S
C6877 N6880 1.384 . S
C6878 H6869 0.929 . S
C6878 C6870 1.378 1_565 S
C6878 C6873 1.350 . S
C6879 H6866 0.929 . S
C6879 C6871 1.433 . S
C6879 N6881 1.384 . S
N6880 C6876 1.427 . S
N6880 C6877 1.384 . S
N6881 C6873 1.427 1_545 S
N6881 C6879 1.384 . S
H6882 C6888 0.930 . S
H6883 C6892 0.930 . S
H6884 C6897 0.929 . S
H6885 C6895 0.929 . S
H6886 C6890 0.929 . S
H6887 C6896 0.929 . S
C6888 H6882 0.930 . S
C6888 C6889 1.367 . S
C6888 C6896 1.378 . S
C6889 C6888 1.367 . S
C6889 C6897 1.433 1_545 S
C6890 H6886 0.929 . S
C6890 C6892 1.378 . S
C6890 C6894 1.350 1_565 S
C6891 C6894 1.463 . S
C6891 C6896 1.350 . S
C6891 N6899 1.427 1_545 S
C6892 H6883 0.930 . S
C6892 C6890 1.378 . S
C6892 C6893 1.367 1_565 S
C6893 C6892 1.367 1_545 S
C6893 C6895 1.433 . S
C6894 C6890 1.350 1_545 S
C6894 C6891 1.463 . S
C6894 N6898 1.427 . S
C6895 H6885 0.929 . S
C6895 C6893 1.433 . S
C6895 N6898 1.384 . S
C6896 H6887 0.929 . S
C6896 C6888 1.378 . S
C6896 C6891 1.350 . S
C6897 H6884 0.929 . S
C6897 C6889 1.433 1_565 S
C6897 N6899 1.384 . S
N6898 C6894 1.427 . S
N6898 C6895 1.384 . S
N6899 C6891 1.427 1_565 S
N6899 C6897 1.384 . S
H6900 C6906 0.930 . S
H6901 C6910 0.930 . S
H6902 C6915 0.929 . S
H6903 C6913 0.929 . S
H6904 C6908 0.929 . S
H6905 C6914 0.929 . S
C6906 H6900 0.930 . S
C6906 C6907 1.367 . S
C6906 C6914 1.378 . S
C6907 C6906 1.367 . S
C6907 C6915 1.433 . S
C6908 H6904 0.929 . S
C6908 C6910 1.378 . S
C6908 C6912 1.350 . S
C6909 C6912 1.463 . S
C6909 C6914 1.350 . S
C6909 N6917 1.427 . S
C6910 H6901 0.930 . S
C6910 C6908 1.378 . S
C6910 C6911 1.367 . S
C6911 C6910 1.367 . S
C6911 C6913 1.433 . S
C6912 C6908 1.350 . S
C6912 C6909 1.463 . S
C6912 N6916 1.427 . S
C6913 H6903 0.929 . S
C6913 C6911 1.433 . S
C6913 N6916 1.384 . S
C6914 H6905 0.929 . S
C6914 C6906 1.378 . S
C6914 C6909 1.350 . S
C6915 H6902 0.929 . S
C6915 C6907 1.433 . S
C6915 N6917 1.384 . S
N6916 C6912 1.427 . S
N6916 C6913 1.384 . S
N6917 C6909 1.427 . S
N6917 C6915 1.384 . S
H6918 C6924 0.930 . S
H6919 C6928 0.930 . S
H6920 C6933 0.929 . S
H6921 C6931 0.929 . S
H6922 C6926 0.929 . S
H6923 C6932 0.929 . S
C6924 H6918 0.930 . S
C6924 C6925 1.367 . S
C6924 C6932 1.378 . S
C6925 C6924 1.367 . S
C6925 C6933 1.433 . S
C6926 H6922 0.929 . S
C6926 C6928 1.378 . S
C6926 C6930 1.350 . S
C6927 C6930 1.463 . S
C6927 C6932 1.350 . S
C6927 N6935 1.427 . S
C6928 H6919 0.930 . S
C6928 C6926 1.378 . S
C6928 C6929 1.367 . S
C6929 C6928 1.367 . S
C6929 C6931 1.433 . S
C6930 C6926 1.350 . S
C6930 C6927 1.463 . S
C6930 N6934 1.427 . S
C6931 H6921 0.929 . S
C6931 C6929 1.433 . S
C6931 N6934 1.384 . S
C6932 H6923 0.929 . S
C6932 C6924 1.378 . S
C6932 C6927 1.350 . S
C6933 H6920 0.929 . S
C6933 C6925 1.433 . S
C6933 N6935 1.384 . S
N6934 C6930 1.427 . S
N6934 C6931 1.384 . S
N6935 C6927 1.427 . S
N6935 C6933 1.384 . S
H6936 C6942 0.930 . S
H6937 C6946 0.930 . S
H6938 C6951 0.929 . S
H6939 C6949 0.929 . S
H6940 C6944 0.929 . S
H6941 C6950 0.929 . S
C6942 H6936 0.930 . S
C6942 C6943 1.367 . S
C6942 C6950 1.378 . S
C6943 C6942 1.367 . S
C6943 C6951 1.433 . S
C6944 H6940 0.929 . S
C6944 C6946 1.378 . S
C6944 C6948 1.350 . S
C6945 C6948 1.463 . S
C6945 C6950 1.350 . S
C6945 N6953 1.427 . S
C6946 H6937 0.930 . S
C6946 C6944 1.378 . S
C6946 C6947 1.367 . S
C6947 C6946 1.367 . S
C6947 C6949 1.433 . S
C6948 C6944 1.350 . S
C6948 C6945 1.463 . S
C6948 N6952 1.427 . S
C6949 H6939 0.929 . S
C6949 C6947 1.433 . S
C6949 N6952 1.384 . S
C6950 H6941 0.929 . S
C6950 C6942 1.378 . S
C6950 C6945 1.350 . S
C6951 H6938 0.929 . S
C6951 C6943 1.433 . S
C6951 N6953 1.384 . S
N6952 C6948 1.427 . S
N6952 C6949 1.384 . S
N6953 C6945 1.427 . S
N6953 C6951 1.384 . S
H6954 C6960 0.930 . S
H6955 C6964 0.930 . S
H6956 C6969 0.929 . S
H6957 C6967 0.929 . S
H6958 C6962 0.929 . S
H6959 C6968 0.929 . S
C6960 H6954 0.930 . S
C6960 C6961 1.367 . S
C6960 C6968 1.378 . S
C6961 C6960 1.367 . S
C6961 C6969 1.433 . S
C6962 H6958 0.929 . S
C6962 C6964 1.378 . S
C6962 C6966 1.350 . S
C6963 C6966 1.463 . S
C6963 C6968 1.350 . S
C6963 N6971 1.427 . S
C6964 H6955 0.930 . S
C6964 C6962 1.378 . S
C6964 C6965 1.367 . S
C6965 C6964 1.367 . S
C6965 C6967 1.433 . S
C6966 C6962 1.350 . S
C6966 C6963 1.463 . S
C6966 N6970 1.427 . S
C6967 H6957 0.929 . S
C6967 C6965 1.433 . S
C6967 N6970 1.384 . S
C6968 H6959 0.929 . S
C6968 C6960 1.378 . S
C6968 C6963 1.350 . S
C6969 H6956 0.929 . S
C6969 C6961 1.433 . S
C6969 N6971 1.384 . S
N6970 C6966 1.427 . S
N6970 C6967 1.384 . S
N6971 C6963 1.427 . S
N6971 C6969 1.384 . S
H6972 C6978 0.930 . S
H6973 C6982 0.930 . S
H6974 C6987 0.929 . S
H6975 C6985 0.929 . S
H6976 C6980 0.929 . S
H6977 C6986 0.929 . S
C6978 H6972 0.930 . S
C6978 C6979 1.367 . S
C6978 C6986 1.378 . S
C6979 C6978 1.367 . S
C6979 C6987 1.433 . S
C6980 H6976 0.929 . S
C6980 C6982 1.378 . S
C6980 C6984 1.350 . S
C6981 C6984 1.463 . S
C6981 C6986 1.350 . S
C6981 N6989 1.427 . S
C6982 H6973 0.930 . S
C6982 C6980 1.378 . S
C6982 C6983 1.367 . S
C6983 C6982 1.367 . S
C6983 C6985 1.433 . S
C6984 C6980 1.350 . S
C6984 C6981 1.463 . S
C6984 N6988 1.427 . S
C6985 H6975 0.929 . S
C6985 C6983 1.433 . S
C6985 N6988 1.384 . S
C6986 H6977 0.929 . S
C6986 C6978 1.378 . S
C6986 C6981 1.350 . S
C6987 H6974 0.929 . S
C6987 C6979 1.433 . S
C6987 N6989 1.384 . S
N6988 C6984 1.427 . S
N6988 C6985 1.384 . S
N6989 C6981 1.427 . S
N6989 C6987 1.384 . S
H6990 C6996 0.930 . S
H6991 C7000 0.930 . S
H6992 C7005 0.929 . S
H6993 C7003 0.929 . S
H6994 C6998 0.929 . S
H6995 C7004 0.929 . S
C6996 H6990 0.930 . S
C6996 C6997 1.367 . S
C6996 C7004 1.378 . S
C6997 C6996 1.367 . S
C6997 C7005 1.433 . S
C6998 H6994 0.929 . S
C6998 C7000 1.378 . S
C6998 C7002 1.350 . S
C6999 C7002 1.463 . S
C6999 C7004 1.350 . S
C6999 N7007 1.427 . S
C7000 H6991 0.930 . S
C7000 C6998 1.378 . S
C7000 C7001 1.367 . S
C7001 C7000 1.367 . S
C7001 C7003 1.433 . S
C7002 C6998 1.350 . S
C7002 C6999 1.463 . S
C7002 N7006 1.427 . S
C7003 H6993 0.929 . S
C7003 C7001 1.433 . S
C7003 N7006 1.384 . S
C7004 H6995 0.929 . S
C7004 C6996 1.378 . S
C7004 C6999 1.350 . S
C7005 H6992 0.929 . S
C7005 C6997 1.433 . S
C7005 N7007 1.384 . S
N7006 C7002 1.427 . S
N7006 C7003 1.384 . S
N7007 C6999 1.427 . S
N7007 C7005 1.384 . S
H7008 C7014 0.930 . S
H7009 C7018 0.930 . S
H7010 C7023 0.929 . S
H7011 C7021 0.914 1_655 S
H7012 C7016 0.929 . S
H7013 C7022 0.929 . S
C7014 H7008 0.930 . S
C7014 C7015 1.367 . S
C7014 C7022 1.378 . S
C7015 C7014 1.367 . S
C7015 C7023 1.433 . S
C7016 H7012 0.929 . S
C7016 C7018 1.378 . S
C7016 C7020 1.350 1_455 S
C7017 C7020 1.463 . S
C7017 C7022 1.350 . S
C7017 N7025 1.427 . S
C7018 H7009 0.930 . S
C7018 C7016 1.378 . S
C7018 C7019 1.367 . S
C7019 C7018 1.367 . S
C7019 C7021 1.503 . S
C7020 C7016 1.350 1_655 S
C7020 C7017 1.463 . S
C7020 N7024 1.427 . S
C7021 H7011 0.914 1_455 S
C7021 C7019 1.503 . S
C7021 N7024 1.334 1_455 S
C7022 H7013 0.929 . S
C7022 C7014 1.378 . S
C7022 C7017 1.350 . S
C7023 H7010 0.929 . S
C7023 C7015 1.433 . S
C7023 N7025 1.384 . S
N7024 C7020 1.427 . S
N7024 C7021 1.334 1_655 S
N7025 C7017 1.427 . S
N7025 C7023 1.384 . S
H7026 C7032 0.930 . S
H7027 C7036 0.930 . S
H7028 C7041 0.929 . S
H7029 C7039 0.929 . S
H7030 C7034 0.929 . S
H7031 C7040 0.929 . S
C7032 H7026 0.930 . S
C7032 C7033 1.367 . S
C7032 C7040 1.378 . S
C7033 C7032 1.367 . S
C7033 C7041 1.433 . S
C7034 H7030 0.929 . S
C7034 C7036 1.378 . S
C7034 C7038 1.350 . S
C7035 C7038 1.463 . S
C7035 C7040 1.350 . S
C7035 N7043 1.427 . S
C7036 H7027 0.930 . S
C7036 C7034 1.378 . S
C7036 C7037 1.367 . S
C7037 C7036 1.367 . S
C7037 C7039 1.433 . S
C7038 C7034 1.350 . S
C7038 C7035 1.463 . S
C7038 N7042 1.427 . S
C7039 H7029 0.929 . S
C7039 C7037 1.433 . S
C7039 N7042 1.384 . S
C7040 H7031 0.929 . S
C7040 C7032 1.378 . S
C7040 C7035 1.350 . S
C7041 H7028 0.929 . S
C7041 C7033 1.433 . S
C7041 N7043 1.384 . S
N7042 C7038 1.427 . S
N7042 C7039 1.384 . S
N7043 C7035 1.427 . S
N7043 C7041 1.384 . S
H7044 C7050 0.930 . S
H7045 C7054 0.930 . S
H7046 C7059 0.929 . S
H7047 C7057 0.929 . S
H7048 C7052 0.929 . S
H7049 C7058 0.929 . S
C7050 H7044 0.930 . S
C7050 C7051 1.367 . S
C7050 C7058 1.378 . S
C7051 C7050 1.367 . S
C7051 C7059 1.433 . S
C7052 H7048 0.929 . S
C7052 C7054 1.378 1_565 S
C7052 C7056 1.350 . S
C7053 C7056 1.463 . S
C7053 C7058 1.350 . S
C7053 N7061 1.427 . S
C7054 H7045 0.930 . S
C7054 C7052 1.378 1_545 S
C7054 C7055 1.367 . S
C7055 C7054 1.367 . S
C7055 C7057 1.433 . S
C7056 C7052 1.350 . S
C7056 C7053 1.463 . S
C7056 N7060 1.427 1_565 S
C7057 H7047 0.929 . S
C7057 C7055 1.433 . S
C7057 N7060 1.384 . S
C7058 H7049 0.929 . S
C7058 C7050 1.378 . S
C7058 C7053 1.350 . S
C7059 H7046 0.929 . S
C7059 C7051 1.433 . S
C7059 N7061 1.384 . S
N7060 C7056 1.427 1_545 S
N7060 C7057 1.384 . S
N7061 C7053 1.427 . S
N7061 C7059 1.384 . S
H7062 C7068 0.930 . S
H7063 C7072 0.930 . S
H7064 C7077 0.929 . S
H7065 C7075 0.929 . S
H7066 C7070 0.929 . S
H7067 C7076 0.929 . S
C7068 H7062 0.930 . S
C7068 C7069 1.367 . S
C7068 C7076 1.378 . S
C7069 C7068 1.367 . S
C7069 C7077 1.433 . S
C7070 H7066 0.929 . S
C7070 C7072 1.378 . S
C7070 C7074 1.350 . S
C7071 C7074 1.463 . S
C7071 C7076 1.350 . S
C7071 N7079 1.427 . S
C7072 H7063 0.930 . S
C7072 C7070 1.378 . S
C7072 C7073 1.367 . S
C7073 C7072 1.367 . S
C7073 C7075 1.433 . S
C7074 C7070 1.350 . S
C7074 C7071 1.463 . S
C7074 N7078 1.427 . S
C7075 H7065 0.929 . S
C7075 C7073 1.433 . S
C7075 N7078 1.384 . S
C7076 H7067 0.929 . S
C7076 C7068 1.378 . S
C7076 C7071 1.350 . S
C7077 H7064 0.929 . S
C7077 C7069 1.433 . S
C7077 N7079 1.384 . S
N7078 C7074 1.427 . S
N7078 C7075 1.384 . S
N7079 C7071 1.427 . S
N7079 C7077 1.384 . S
H7080 C7086 0.930 . S
H7081 C7090 0.930 . S
H7082 C7095 0.929 . S
H7083 C7093 0.929 . S
H7084 C7088 0.929 . S
H7085 C7094 0.929 . S
C7086 H7080 0.930 . S
C7086 C7087 1.367 . S
C7086 C7094 1.378 . S
C7087 C7086 1.367 . S
C7087 C7095 1.433 . S
C7088 H7084 0.929 . S
C7088 C7090 1.378 . S
C7088 C7092 1.350 . S
C7089 C7092 1.463 . S
C7089 C7094 1.350 . S
C7089 N7097 1.427 . S
C7090 H7081 0.930 . S
C7090 C7088 1.378 . S
C7090 C7091 1.367 . S
C7091 C7090 1.367 . S
C7091 C7093 1.433 . S
C7092 C7088 1.350 . S
C7092 C7089 1.463 . S
C7092 N7096 1.427 . S
C7093 H7083 0.929 . S
C7093 C7091 1.433 . S
C7093 N7096 1.384 . S
C7094 H7085 0.929 . S
C7094 C7086 1.378 . S
C7094 C7089 1.350 . S
C7095 H7082 0.929 . S
C7095 C7087 1.433 . S
C7095 N7097 1.384 . S
N7096 C7092 1.427 . S
N7096 C7093 1.384 . S
N7097 C7089 1.427 . S
N7097 C7095 1.384 . S
H7098 C7104 0.930 . S
H7099 C7108 0.930 . S
H7100 C7113 0.929 . S
H7101 C7111 0.929 . S
H7102 C7106 0.929 . S
H7103 C7112 0.929 . S
C7104 H7098 0.930 . S
C7104 C7105 1.367 . S
C7104 C7112 1.378 . S
C7105 C7104 1.367 . S
C7105 C7113 1.433 . S
C7106 H7102 0.929 . S
C7106 C7108 1.378 . S
C7106 C7110 1.350 . S
C7107 C7110 1.463 . S
C7107 C7112 1.350 . S
C7107 N7115 1.427 . S
C7108 H7099 0.930 . S
C7108 C7106 1.378 . S
C7108 C7109 1.367 . S
C7109 C7108 1.367 . S
C7109 C7111 1.433 . S
C7110 C7106 1.350 . S
C7110 C7107 1.463 . S
C7110 N7114 1.427 . S
C7111 H7101 0.929 . S
C7111 C7109 1.433 . S
C7111 N7114 1.384 . S
C7112 H7103 0.929 . S
C7112 C7104 1.378 . S
C7112 C7107 1.350 . S
C7113 H7100 0.929 . S
C7113 C7105 1.433 . S
C7113 N7115 1.384 . S
N7114 C7110 1.427 . S
N7114 C7111 1.384 . S
N7115 C7107 1.427 . S
N7115 C7113 1.384 . S
H7116 C7122 0.930 . S
H7117 C7126 0.930 . S
H7118 C7131 0.929 . S
H7119 C7129 0.929 . S
H7120 C7124 0.929 . S
H7121 C7130 0.929 . S
C7122 H7116 0.930 . S
C7122 C7123 1.367 . S
C7122 C7130 1.378 . S
C7123 C7122 1.367 . S
C7123 C7131 1.433 . S
C7124 H7120 0.929 . S
C7124 C7126 1.378 . S
C7124 C7128 1.350 . S
C7125 C7128 1.463 . S
C7125 C7130 1.350 . S
C7125 N7133 1.427 . S
C7126 H7117 0.930 . S
C7126 C7124 1.378 . S
C7126 C7127 1.367 . S
C7127 C7126 1.367 . S
C7127 C7129 1.433 . S
C7128 C7124 1.350 . S
C7128 C7125 1.463 . S
C7128 N7132 1.427 . S
C7129 H7119 0.929 . S
C7129 C7127 1.433 . S
C7129 N7132 1.384 . S
C7130 H7121 0.929 . S
C7130 C7122 1.378 . S
C7130 C7125 1.350 . S
C7131 H7118 0.929 . S
C7131 C7123 1.433 . S
C7131 N7133 1.384 . S
N7132 C7128 1.427 . S
N7132 C7129 1.384 . S
N7133 C7125 1.427 . S
N7133 C7131 1.384 . S
H7134 C7140 0.930 . S
H7135 C7144 0.930 . S
H7136 C7149 0.929 . S
H7137 C7147 0.929 . S
H7138 C7142 0.929 . S
H7139 C7148 0.929 . S
C7140 H7134 0.930 . S
C7140 C7141 1.367 . S
C7140 C7148 1.378 . S
C7141 C7140 1.367 . S
C7141 C7149 1.433 . S
C7142 H7138 0.929 . S
C7142 C7144 1.378 . S
C7142 C7146 1.350 . S
C7143 C7146 1.463 . S
C7143 C7148 1.350 . S
C7143 N7151 1.427 . S
C7144 H7135 0.930 . S
C7144 C7142 1.378 . S
C7144 C7145 1.367 . S
C7145 C7144 1.367 . S
C7145 C7147 1.433 . S
C7146 C7142 1.350 . S
C7146 C7143 1.463 . S
C7146 N7150 1.427 . S
C7147 H7137 0.929 . S
C7147 C7145 1.433 . S
C7147 N7150 1.384 . S
C7148 H7139 0.929 . S
C7148 C7140 1.378 . S
C7148 C7143 1.350 . S
C7149 H7136 0.929 . S
C7149 C7141 1.433 . S
C7149 N7151 1.384 . S
N7150 C7146 1.427 . S
N7150 C7147 1.384 . S
N7151 C7143 1.427 . S
N7151 C7149 1.384 . S
H7152 C7158 0.930 . S
H7153 C7162 0.930 . S
H7154 C7167 0.929 . S
H7155 C7165 0.929 . S
H7156 C7160 0.929 . S
H7157 C7166 0.929 . S
C7158 H7152 0.930 . S
C7158 C7159 1.367 . S
C7158 C7166 1.378 . S
C7159 C7158 1.367 . S
C7159 C7167 1.433 . S
C7160 H7156 0.929 . S
C7160 C7162 1.378 . S
C7160 C7164 1.350 . S
C7161 C7164 1.463 . S
C7161 C7166 1.350 . S
C7161 N7169 1.427 . S
C7162 H7153 0.930 . S
C7162 C7160 1.378 . S
C7162 C7163 1.367 . S
C7163 C7162 1.367 . S
C7163 C7165 1.433 . S
C7164 C7160 1.350 . S
C7164 C7161 1.463 . S
C7164 N7168 1.427 . S
C7165 H7155 0.929 . S
C7165 C7163 1.433 . S
C7165 N7168 1.384 . S
C7166 H7157 0.929 . S
C7166 C7158 1.378 . S
C7166 C7161 1.350 . S
C7167 H7154 0.929 . S
C7167 C7159 1.433 . S
C7167 N7169 1.384 . S
N7168 C7164 1.427 . S
N7168 C7165 1.384 . S
N7169 C7161 1.427 . S
N7169 C7167 1.384 . S
H7170 C7176 0.930 . S
H7171 C7180 0.930 . S
H7172 C7185 0.929 . S
H7173 C7183 0.929 . S
H7174 C7178 0.929 . S
H7175 C7184 0.929 . S
C7176 H7170 0.930 . S
C7176 C7177 1.367 . S
C7176 C7184 1.378 . S
C7177 C7176 1.367 . S
C7177 C7185 1.433 . S
C7178 H7174 0.929 . S
C7178 C7180 1.378 . S
C7178 C7182 1.350 . S
C7179 C7182 1.463 . S
C7179 C7184 1.350 . S
C7179 N7187 1.427 . S
C7180 H7171 0.930 . S
C7180 C7178 1.378 . S
C7180 C7181 1.367 . S
C7181 C7180 1.367 . S
C7181 C7183 1.433 . S
C7182 C7178 1.350 . S
C7182 C7179 1.463 . S
C7182 N7186 1.427 . S
C7183 H7173 0.929 . S
C7183 C7181 1.433 . S
C7183 N7186 1.384 . S
C7184 H7175 0.929 . S
C7184 C7176 1.378 . S
C7184 C7179 1.350 . S
C7185 H7172 0.929 . S
C7185 C7177 1.433 . S
C7185 N7187 1.384 . S
N7186 C7182 1.427 . S
N7186 C7183 1.384 . S
N7187 C7179 1.427 . S
N7187 C7185 1.384 . S
H7188 C7194 0.930 . S
H7189 C7198 0.930 . S
H7190 C7203 0.929 . S
H7191 C7201 0.929 . S
H7192 C7196 0.929 . S
H7193 C7202 0.929 . S
C7194 H7188 0.930 . S
C7194 C7195 1.367 . S
C7194 C7202 1.378 . S
C7195 C7194 1.367 . S
C7195 C7203 1.433 . S
C7196 H7192 0.929 . S
C7196 C7198 1.378 . S
C7196 C7200 1.350 . S
C7197 C7200 1.463 . S
C7197 C7202 1.350 . S
C7197 N7205 1.427 . S
C7198 H7189 0.930 . S
C7198 C7196 1.378 . S
C7198 C7199 1.367 . S
C7199 C7198 1.367 . S
C7199 C7201 1.433 . S
C7200 C7196 1.350 . S
C7200 C7197 1.463 . S
C7200 N7204 1.427 . S
C7201 H7191 0.929 . S
C7201 C7199 1.433 . S
C7201 N7204 1.384 . S
C7202 H7193 0.929 . S
C7202 C7194 1.378 . S
C7202 C7197 1.350 . S
C7203 H7190 0.929 . S
C7203 C7195 1.433 . S
C7203 N7205 1.384 . S
N7204 C7200 1.427 . S
N7204 C7201 1.384 . S
N7205 C7197 1.427 . S
N7205 C7203 1.384 . S
H7206 C7212 0.930 . S
H7207 C7216 0.930 1_655 S
H7208 C7221 0.929 1_565 S
H7209 C7219 0.929 . S
H7210 C7214 0.929 . S
H7211 C7220 0.929 . S
C7212 H7206 0.930 . S
C7212 C7213 1.367 . S
C7212 C7220 1.378 . S
C7213 C7212 1.367 . S
C7213 C7221 1.433 . S
C7214 H7210 0.929 . S
C7214 C7216 1.378 1_655 S
C7214 C7218 1.350 . S
C7215 C7218 1.463 . S
C7215 C7220 1.350 1_565 S
C7215 N7223 1.427 . S
C7216 H7207 0.930 1_455 S
C7216 C7214 1.378 1_455 S
C7216 C7217 1.367 . S
C7217 C7216 1.367 . S
C7217 C7219 1.433 . S
C7218 C7214 1.350 . S
C7218 C7215 1.463 . S
C7218 N7222 1.427 1_655 S
C7219 H7209 0.929 . S
C7219 C7217 1.433 . S
C7219 N7222 1.384 . S
C7220 H7211 0.929 . S
C7220 C7212 1.378 . S
C7220 C7215 1.350 1_545 S
C7221 H7208 0.929 1_545 S
C7221 C7213 1.433 . S
C7221 N7223 1.384 1_545 S
N7222 C7218 1.427 1_455 S
N7222 C7219 1.384 . S
N7223 C7215 1.427 . S
N7223 C7221 1.384 1_565 S
H7224 C7230 0.930 . S
H7225 C7234 0.930 . S
H7226 C7239 0.929 . S
H7227 C7237 0.929 . S
H7228 C7232 0.929 . S
H7229 C7238 0.929 . S
C7230 H7224 0.930 . S
C7230 C7231 1.367 . S
C7230 C7238 1.378 . S
C7231 C7230 1.367 . S
C7231 C7239 1.433 . S
C7232 H7228 0.929 . S
C7232 C7234 1.378 . S
C7232 C7236 1.350 . S
C7233 C7236 1.463 . S
C7233 C7238 1.350 . S
C7233 N7241 1.427 . S
C7234 H7225 0.930 . S
C7234 C7232 1.378 . S
C7234 C7235 1.367 . S
C7235 C7234 1.367 . S
C7235 C7237 1.433 . S
C7236 C7232 1.350 . S
C7236 C7233 1.463 . S
C7236 N7240 1.427 . S
C7237 H7227 0.929 . S
C7237 C7235 1.433 . S
C7237 N7240 1.384 . S
C7238 H7229 0.929 . S
C7238 C7230 1.378 . S
C7238 C7233 1.350 . S
C7239 H7226 0.929 . S
C7239 C7231 1.433 . S
C7239 N7241 1.384 . S
N7240 C7236 1.427 . S
N7240 C7237 1.384 . S
N7241 C7233 1.427 . S
N7241 C7239 1.384 . S
H7242 C7248 0.930 . S
H7243 C7252 0.930 . S
H7244 C7257 0.929 . S
H7245 C7255 0.929 . S
H7246 C7250 0.929 . S
H7247 C7256 0.929 . S
C7248 H7242 0.930 . S
C7248 C7249 1.367 . S
C7248 C7256 1.378 . S
C7249 C7248 1.367 . S
C7249 C7257 1.433 . S
C7250 H7246 0.929 . S
C7250 C7252 1.378 1_556 S
C7250 C7254 1.350 . S
C7251 C7254 1.463 . S
C7251 C7256 1.350 . S
C7251 N7259 1.427 . S
C7252 H7243 0.930 . S
C7252 C7250 1.378 1_554 S
C7252 C7253 1.367 . S
C7253 C7252 1.367 . S
C7253 C7255 1.433 . S
C7254 C7250 1.350 . S
C7254 C7251 1.463 . S
C7254 N7258 1.399 1_556 S
C7255 H7245 0.929 . S
C7255 C7253 1.433 . S
C7255 N7258 1.436 . S
C7256 H7247 0.929 . S
C7256 C7248 1.378 . S
C7256 C7251 1.350 . S
C7257 H7244 0.929 . S
C7257 C7249 1.433 . S
C7257 N7259 1.384 . S
N7258 C7254 1.399 1_554 S
N7258 C7255 1.436 . S
N7259 C7251 1.427 . S
N7259 C7257 1.384 . S
H7260 C7266 0.930 . S
H7261 C7270 0.930 . S
H7262 C7275 0.929 . S
H7263 C7273 0.929 . S
H7264 C7268 0.929 . S
H7265 C7274 0.929 . S
C7266 H7260 0.930 . S
C7266 C7267 1.367 . S
C7266 C7274 1.378 . S
C7267 C7266 1.367 . S
C7267 C7275 1.433 . S
C7268 H7264 0.929 . S
C7268 C7270 1.378 . S
C7268 C7272 1.350 . S
C7269 C7272 1.463 . S
C7269 C7274 1.350 1_556 S
C7269 N7277 1.427 . S
C7270 H7261 0.930 . S
C7270 C7268 1.378 . S
C7270 C7271 1.367 . S
C7271 C7270 1.367 . S
C7271 C7273 1.433 . S
C7272 C7268 1.350 . S
C7272 C7269 1.463 . S
C7272 N7276 1.427 . S
C7273 H7263 0.929 . S
C7273 C7271 1.433 . S
C7273 N7276 1.384 . S
C7274 H7265 0.929 . S
C7274 C7266 1.378 . S
C7274 C7269 1.350 1_554 S
C7275 H7262 0.929 . S
C7275 C7267 1.433 . S
C7275 N7277 1.384 1_554 S
N7276 C7272 1.427 . S
N7276 C7273 1.384 . S
N7277 C7269 1.427 . S
N7277 C7275 1.384 1_556 S
H7278 C7284 0.930 . S
H7279 C7288 0.930 . S
H7280 C7293 0.929 . S
H7281 C7291 0.929 . S
H7282 C7286 0.929 . S
H7283 C7292 0.929 . S
C7284 H7278 0.930 . S
C7284 C7285 1.367 . S
C7284 C7292 1.378 . S
C7285 C7284 1.367 . S
C7285 C7293 1.433 . S
C7286 H7282 0.929 . S
C7286 C7288 1.378 . S
C7286 C7290 1.350 . S
C7287 C7290 1.463 . S
C7287 C7292 1.350 . S
C7287 N7295 1.427 . S
C7288 H7279 0.930 . S
C7288 C7286 1.378 . S
C7288 C7289 1.367 . S
C7289 C7288 1.367 . S
C7289 C7291 1.433 . S
C7290 C7286 1.350 . S
C7290 C7287 1.463 . S
C7290 N7294 1.427 . S
C7291 H7281 0.929 . S
C7291 C7289 1.433 . S
C7291 N7294 1.384 . S
C7292 H7283 0.929 . S
C7292 C7284 1.378 . S
C7292 C7287 1.350 . S
C7293 H7280 0.929 . S
C7293 C7285 1.433 . S
C7293 N7295 1.384 . S
N7294 C7290 1.427 . S
N7294 C7291 1.384 . S
N7295 C7287 1.427 . S
N7295 C7293 1.384 . S
C2119 C8 1.417 . S
C2123 C1130 1.405 . S
C2137 C26 1.404 . S
C2141 C510 1.419 . S
C2155 C48 1.419 . S
C2159 C1852 1.404 . S
C2173 C488 1.409 . S
C2177 C74 1.414 . S
C2191 C690 1.415 . S
C2195 C96 1.407 . S
C2209 C1174 1.405 . S
C2213 C114 1.418 . S
C2227 C136 1.403 . S
C2231 C1676 1.419 . S
C2245 C1808 1.419 . S
C2249 C162 1.404 . S
C2263 C180 1.416 . S
C2267 C1412 1.406 . S
C2281 C602 1.407 . S
C2285 C206 1.415 . S
C2299 C1284 1.407 . S
C2303 C224 1.415 . S
C2317 C246 1.405 . S
C2321 C928 1.418 . S
C2335 C268 1.409 . S
C2339 C1456 1.413 . S
C2353 C290 1.415 . S
C2357 C954 1.408 . S
C2371 C580 1.418 . S
C2375 C316 1.404 . S
C2389 C994 1.416 . S
C2393 C338 1.406 . S
C2407 C1900 1.418 . S
C2411 C356 1.404 . S
C2425 C378 1.404 . S
C2429 C272 1.418 . S
C2443 C400 1.418 . S
C2447 C294 1.404 . S
C2461 C426 1.412 . S
C2465 C312 1.410 . S
C2479 C1610 1.403 . S
C2483 C448 1.419 . S
C2497 C470 1.414 . S
C2501 C1042 1.409 . S
C2515 C800 1.418 . S
C2519 C492 1.404 . S
C2533 C514 1.417 . S
C2537 C1016 1.406 . S
C2551 C158 1.409 . S
C2555 C1108 1.413 . S
C2569 C862 1.404 . S
C2573 C532 1.419 . S
C2587 C558 1.410 . S
C2591 C1566 1.412 . S
C2605 C1038 1.408 . S
C2609 C624 1.414 . S
C2623 C1874 1.403 . S
C2627 C642 1.419 . S
C2641 C4 1.419 . S
C2645 C1500 1.403 . S
C2659 C1482 1.411 . S
C2663 C664 1.411 . S
C2677 C950 1.406 . S
C2681 C404 1.416 . S
C2695 C708 1.413 . S
C2699 C1258 1.409 . S
C2713 C730 1.404 . S
C2717 C1786 1.418 . S
C2731 C1280 1.414 . S
C2735 C752 1.408 . S
C2749 C360 1.418 . S
C2753 C888 1.405 . S
C2767 C1702 1.407 . S
C2771 C334 1.415 . S
C2785 C734 1.412 . S
C2789 C774 1.410 . S
C2803 C228 1.406 . S
C2807 C756 1.417 . S
C2821 C1632 1.414 . S
C2825 C822 1.409 . S
C2839 C1170 1.418 . S
C2843 C844 1.404 . S
C2857 C866 1.415 . S
C2861 C1324 1.407 . S
C2875 C1214 1.413 . S
C2879 C598 1.409 . S
C2893 C906 1.406 . S
C2897 C1720 1.416 . S
C2911 C932 1.411 . S
C2915 C1192 1.411 . S
C2929 C536 1.417 . S
C2933 C1328 1.405 . S
C2947 C1830 1.419 . S
C2951 C972 1.404 . S
C2965 C998 1.411 . S
C2969 C1698 1.411 . S
C2983 C1940 1.411 . S
C2987 C818 1.411 . S
C3001 C1020 1.419 . S
C3005 C30 1.403 . S
C3019 C796 1.407 . S
C3023 C70 1.415 . S
C3037 C1764 1.419 . S
C3041 C1060 1.404 . S
C3055 C118 1.417 . S
C3059 C840 1.405 . S
C3073 C1262 1.403 . S
C3077 C1086 1.419 . S
C3091 C1504 1.403 . S
C3095 C1126 1.419 . S
C3109 C1064 1.416 . S
C3113 C1148 1.406 . S
C3127 C712 1.416 . S
C3131 C1082 1.406 . S
C3145 C2028 1.408 . S
C3149 C668 1.414 . S
C3163 C250 1.418 . S
C3167 C1196 1.405 . S
C3181 C202 1.418 . S
C3185 C1218 1.404 . S
C3199 C92 1.408 . S
C3203 C1390 1.414 . S
C3217 C1240 1.413 . S
C3221 C1918 1.409 . S
C3235 C1544 1.412 . S
C3239 C1302 1.410 . S
C3253 C1896 1.410 . S
C3257 C884 1.412 . S
C3271 C444 1.419 . S
C3275 C1966 1.403 . S
C3289 C576 1.411 . S
C3293 C422 1.411 . S
C3307 C1346 1.405 . S
C3311 C1434 1.417 . S
C3325 C466 1.404 . S
C3329 C620 1.419 . S
C3343 C1812 1.410 . S
C3347 C1104 1.412 . S
C3361 C1350 1.404 . S
C3365 C1368 1.418 . S
C3379 C2050 1.412 . S
C3383 C184 1.410 . S
C3397 C1394 1.417 . S
C3401 C686 1.405 . S
C3415 C1416 1.414 . S
C3419 C2054 1.409 . S
C3433 C1742 1.406 . S
C3437 C646 1.416 . S
C3451 C1460 1.406 . S
C3455 C382 1.416 . S
C3469 C1236 1.405 . S
C3473 C2076 1.418 . S
C3487 C1790 1.405 . S
C3491 C778 1.417 . S
C3505 C52 1.404 . S
C3509 C1522 1.418 . S
C3523 C140 1.406 . S
C3527 C1592 1.416 . S
C3541 C1614 1.404 . S
C3545 C1962 1.418 . S
C3559 C1570 1.418 . S
C3563 C1654 1.404 . S
C3577 C1680 1.410 . S
C3581 C1588 1.413 . S
C3595 C1724 1.414 . S
C3599 C1988 1.408 . S
C3613 C1878 1.404 . S
C3617 C1746 1.418 . S
C3631 C1478 1.404 . S
C3635 C2032 1.418 . S
C3649 C1984 1.407 . S
C3653 C910 1.416 . S
C3667 C1658 1.419 . S
C3671 C554 1.403 . S
C3685 C1636 1.404 . S
C3689 C1944 1.418 . S
C3703 C1526 1.418 . S
C3707 C1856 1.404 . S
C3721 C1922 1.405 . S
C3725 C2072 1.417 . S
C3739 C2094 1.416 . S
C3743 C1306 1.406 . S
C3757 C1152 1.413 . S
C3761 C1768 1.410 . S
C3775 C1438 1.415 . S
C3779 C1372 1.407 . S
C3793 C976 1.418 . S
C3797 C2010 1.404 . S
C3811 C1834 1.404 . S
C3815 C2006 1.418 . S
C3829 C1548 1.417 . S
C3833 C2098 1.405 . S
C3847 C1813 0.720 . S
C3851 C9 0.726 . S
C3865 C687 0.736 . S
C3869 C27 0.711 . S
C3883 C49 0.717 . S
C3887 C1171 0.731 . S
C3901 C75 0.740 . S
C3905 C1681 0.707 . S
C3919 C97 0.739 . S
C3923 C515 0.708 . S
C3937 C1857 0.717 . S
C3941 C115 0.731 . S
C3955 C493 0.737 . S
C3959 C137 0.709 . S
C3973 C163 0.709 . S
C3977 C1127 0.736 . S
C3991 C181 0.740 . S
C3995 C2033 0.706 . S
C4009 C863 0.728 . S
C4013 C207 0.720 . S
C4027 C1919 0.718 . S
C4031 C225 0.730 . S
C4045 C2011 0.731 . S
C4049 C247 0.717 . S
C4063 C1373 0.730 . S
C4067 C269 0.717 . S
C4081 C291 0.737 . S
C4085 C1985 0.708 . S
C4099 C317 0.709 . S
C4103 C1875 0.737 . S
C4117 C339 0.717 . S
C4121 C1897 0.730 . S
C4135 C999 0.740 . S
C4139 C357 0.707 . S
C4153 C379 0.713 . S
C4157 C1435 0.733 . S
C4171 C401 0.736 . S
C4175 C907 0.712 . S
C4189 C647 0.707 . S
C4193 C427 0.739 . S
C4207 C1945 0.713 . S
C4211 C449 0.734 . S
C4225 C555 0.715 . S
C4229 C471 0.730 . S
C4243 C160 0.708 . S
C4247 C1503 0.739 . S
C4261 C534 0.709 . S
C4265 C204 0.738 . S
C4279 C557 0.707 . S
C4283 C1041 0.739 . S
C4297 C579 0.712 . S
C4301 C1877 0.735 . S
C4315 C601 0.726 . S
C4319 C865 0.722 . S
C4333 C623 0.738 . S
C4337 C1569 0.709 . S
C4351 C644 0.734 . S
C4355 C314 0.712 . S
C4369 C6 0.708 . S
C4373 C1106 0.739 . S
C4387 C2053 0.740 . S
C4391 C666 0.707 . S
C4405 C689 0.735 . S
C4409 C512 0.712 . S
C4423 C1722 0.735 . S
C4427 C403 0.711 . S
C4441 C710 0.720 . S
C4445 C2096 0.725 . S
C4459 C732 0.714 . S
C4463 C1151 0.731 . S
C4477 C2075 0.729 . S
C4481 C754 0.719 . S
C4495 C490 0.729 . S
C4499 C1678 0.718 . S
C4513 C359 0.737 . S
C4517 C1700 0.709 . S
C4531 C886 0.710 . S
C4535 C336 0.736 . S
C4549 C776 0.707 . S
C4553 C1766 0.740 . S
C4567 C1239 0.725 . S
C4571 C227 0.723 . S
C4585 C139 0.713 . S
C4589 C799 0.735 . S
C4603 C821 0.720 . S
C4607 C1964 0.726 . S
C4621 C51 0.715 . S
C4625 C843 0.733 . S
C4639 C1703 0.727 . S
C4643 C889 0.719 . S
C4657 C1325 0.709 . S
C4661 C599 0.737 . S
C4675 C933 0.715 . S
C4679 C1835 0.731 . S
C4693 C1219 0.707 . S
C4697 C537 0.740 . S
C4711 C1725 0.727 . S
C4715 C951 0.721 . S
C4729 C973 0.740 . S
C4733 C1197 0.706 . S
C4747 C1615 0.740 . S
C4751 C819 0.707 . S
C4765 C1391 0.707 . S
C4769 C1021 0.740 . S
C4783 C1039 0.735 . S
C4787 C1567 0.711 . S
C4801 C797 0.711 . S
C4805 C1593 0.736 . S
C4819 C779 0.740 . S
C4823 C1061 0.706 . S
C4837 C841 0.715 . S
C4841 C1523 0.733 . S
C4855 C1545 0.740 . S
C4859 C1087 0.706 . S
C4873 C1501 0.720 . S
C4877 C1109 0.726 . S
C4891 C1149 0.707 . S
C4895 C1787 0.738 . S
C4909 C713 0.736 . S
C4913 C1307 0.710 . S
C4927 C669 0.722 . S
C4931 C1417 0.723 . S
C4945 C757 0.707 . S
C4949 C1237 0.740 . S
C4963 C996 0.725 . S
C4967 C1899 0.721 . S
C4981 C1018 0.712 . S
C4985 C94 0.736 . S
C4999 C1547 0.735 . S
C5003 C1261 0.711 . S
C5017 C29 0.717 . S
C5021 C1393 0.728 . S
C5035 C1283 0.710 . S
C5039 C1921 0.737 . S
C5053 C1084 0.712 . S
C5057 C1304 0.733 . S
C5071 C446 0.710 . S
C5075 C1635 0.736 . S
C5089 C1216 0.735 . S
C5093 C1327 0.712 . S
C5107 C1854 0.736 . S
C5111 C1173 0.711 . S
C5125 C1744 0.708 . S
C5129 C424 0.739 . S
C5143 C381 0.725 . S
C5147 C1348 0.721 . S
C5161 C1657 0.735 . S
C5165 C468 0.713 . S
C5179 C1832 0.711 . S
C5183 C1194 0.735 . S
C5197 C1810 0.736 . S
C5201 C1129 0.710 . S
C5215 C1370 0.725 . S
C5219 C1458 0.723 . S
C5233 C975 0.740 . S
C5237 C249 0.707 . S
C5251 C1480 0.733 . S
C5255 C183 0.712 . S
C5269 C909 0.710 . S
C5273 C293 0.736 . S
C5287 C1281 0.732 . S
C5291 C2073 0.713 . S
C5305 C1461 0.735 . S
C5309 C1351 0.711 . S
C5323 C577 0.727 . S
C5327 C1747 0.718 . S
C5341 C2051 0.739 . S
C5345 C1483 0.708 . S
C5359 C1967 0.720 . S
C5363 C1633 0.726 . S
C5377 C621 0.739 . S
C5381 C1655 0.708 . S
C5395 C1987 0.737 . S
C5399 C953 0.710 . S
C5413 C1063 0.728 . S
C5417 C1789 0.717 . S
C5431 C72 0.727 . S
C5435 C1590 0.721 . S
C5449 C1414 0.708 . S
C5453 C2030 0.738 . S
C5467 C1942 0.726 . S
C5471 C1612 0.722 . S
C5485 C117 0.723 . S
C5489 C1525 0.725 . S
C5503 C735 0.709 . S
C5507 C1769 0.738 . S
C5521 C2099 0.729 . S
C5525 C1259 0.719 . S
C5539 C1437 0.727 . S
C5543 C271 0.718 . S
C5557 C2008 0.739 . S
C5561 C930 0.707 . S
C5575 C7 1.260 . S
C5579 C1329 1.276 . S
C5593 C28 1.259 . S
C5597 C2077 1.277 . S
C5611 C1831 1.275 . S
C5615 C50 1.260 . S
C5629 C73 1.276 . S
C5633 C665 1.259 . S
C5647 C95 1.265 . S
C5651 C361 1.272 . S
C5665 C1347 1.275 . S
C5669 C116 1.260 . S
C5683 C1721 1.263 . S
C5687 C138 1.273 . S
C5701 C1743 1.263 . S
C5705 C161 1.272 . S
C5719 C581 1.276 . S
C5723 C182 1.260 . S
C5737 C995 1.260 . S
C5741 C205 1.276 . S
C5755 C226 1.259 . S
C5759 C1457 1.277 . S
C5773 C248 1.262 . S
C5777 C955 1.274 . S
C5791 C1285 1.276 . S
C5795 C270 1.261 . S
C5809 C929 1.276 . S
C5813 C292 1.260 . S
C5827 C1413 1.276 . S
C5831 C315 1.260 . S
C5845 C603 1.274 . S
C5849 C337 1.261 . S
C5863 C358 1.263 . S
C5867 C1527 1.273 . S
C5881 C380 1.270 . S
C5885 C1083 1.266 . S
C5899 C402 1.263 . S
C5903 C1611 1.273 . S
C5917 C1065 1.259 . S
C5921 C425 1.276 . S
C5935 C295 1.277 . S
C5939 C447 1.259 . S
C5953 C469 1.268 . S
C5957 C185 1.268 . S
C5971 C491 1.272 . S
C5975 C1369 1.264 . S
C5989 C1879 1.276 . S
C5993 C513 1.260 . S
C6007 C1019 1.266 . S
C6011 C159 1.269 . S
C6025 C533 1.269 . S
C6029 C1986 1.267 . S
C6043 C559 1.262 . S
C6047 C1546 1.274 . S
C6061 C1062 1.277 . S
C6065 C625 1.259 . S
C6079 C1920 1.277 . S
C6083 C643 1.259 . S
C6097 C5 1.259 . S
C6101 C1591 1.277 . S
C6115 C887 1.261 . S
C6119 C691 1.275 . S
C6133 C405 1.277 . S
C6137 C1788 1.259 . S
C6151 C1282 1.274 . S
C6155 C709 1.262 . S
C6169 C731 1.266 . S
C6173 C952 1.270 . S
C6187 C753 1.262 . S
C6191 C1260 1.274 . S
C6205 C1481 1.277 . S
C6209 C489 1.259 . S
C6223 C1656 1.259 . S
C6227 C335 1.276 . S
C6241 C1195 1.269 . S
C6245 C775 1.267 . S
C6259 C1634 1.276 . S
C6263 C229 1.260 . S
C6277 C1349 1.260 . S
C6281 C801 1.276 . S
C6295 C755 1.261 . S
C6299 C823 1.276 . S
C6313 C845 1.275 . S
C6317 C667 1.261 . S
C6331 C1150 1.264 . S
C6335 C313 1.272 . S
C6349 C867 1.277 . S
C6353 C1679 1.259 . S
C6367 C600 1.277 . S
C6371 C1659 1.259 . S
C6385 C1677 1.276 . S
C6389 C908 1.259 . S
C6403 C445 1.277 . S
C6407 C931 1.259 . S
C6421 C535 1.268 . S
C6425 C1131 1.268 . S
C6439 C1853 1.266 . S
C6443 C974 1.269 . S
C6457 C2095 1.260 . S
C6461 C997 1.276 . S
C6475 C1263 1.277 . S
C6479 C820 1.259 . S
C6493 C1765 1.277 . S
C6497 C1040 1.259 . S
C6511 C119 1.272 . S
C6515 C798 1.263 . S
C6529 C71 1.260 . S
C6533 C842 1.276 . S
C6547 C1085 1.263 . S
C6551 C1941 1.273 . S
C6565 C1107 1.269 . S
C6569 C31 1.267 . S
C6583 C1128 1.266 . S
C6587 C1989 1.270 . S
C6601 C1172 1.259 . S
C6605 C2029 1.277 . S
C6619 C711 1.277 . S
C6623 C273 1.259 . S
C6637 C1549 1.273 . S
C6641 C1217 1.263 . S
C6655 C93 1.276 . S
C6659 C1524 1.259 . S
C6673 C1241 1.275 . S
C6677 C1876 1.261 . S
C6691 C1568 1.273 . S
C6695 C1303 1.263 . S
C6709 C885 1.259 . S
C6713 C2009 1.277 . S
C6727 C1175 1.270 . S
C6731 C1436 1.266 . S
C6745 C622 1.264 . S
C6749 C423 1.271 . S
C6763 C578 1.273 . S
C6767 C467 1.262 . S
C6781 C1193 1.275 . S
C6785 C1965 1.261 . S
C6799 C2074 1.275 . S
C6803 C1105 1.261 . S
C6817 C1043 1.277 . S
C6821 C2052 1.259 . S
C6835 C733 1.259 . S
C6839 C251 1.276 . S
C6853 C1833 1.264 . S
C6857 C1395 1.271 . S
C6871 C1415 1.266 . S
C6875 C1153 1.269 . S
C6889 C645 1.259 . S
C6893 C1809 1.277 . S
C6907 C1459 1.271 . S
C6911 C1637 1.265 . S
C6925 C1238 1.259 . S
C6929 C511 1.277 . S
C6943 C1502 1.277 . S
C6947 C141 1.259 . S
C6961 C1963 1.261 . S
C6965 C777 1.275 . S
C6979 C53 1.261 . S
C6983 C1392 1.274 . S
C6997 C1613 1.264 . S
C7001 C1791 1.271 . S
C7015 C2007 1.272 . S
C7019 C688 1.264 . S
C7033 C1571 1.265 . S
C7037 C1701 1.271 . S
C7051 C1723 1.259 . S
C7055 C1505 1.276 . S
C7069 C1745 1.259 . S
C7073 C1017 1.277 . S
C7087 C1479 1.262 . S
C7091 C1371 1.274 . S
C7105 C911 1.261 . S
C7109 C864 1.275 . S
C7123 C383 1.259 . S
C7127 C1943 1.277 . S
C7141 C1215 1.268 . S
C7145 C556 1.267 . S
C7159 C203 1.273 . S
C7163 C2097 1.263 . S
C7177 C1855 1.274 . S
C7181 C1901 1.262 . S
C7195 C1923 1.260 . S
C7199 C1811 1.276 . S
C7213 C1589 1.267 . S
C7217 C1326 1.269 . S
C7231 C1699 1.276 . S
C7235 C1305 1.260 . S
C7249 C1767 1.276 . S
C7253 C2055 1.259 . S
C7267 C1898 1.260 . S
C7271 C977 1.276 . S
C7285 C2031 1.272 . S
C7289 C1439 1.265 . S
