# Generated by pormake.
# Topology smd, (6)-cn, num edge types: 1
# Building blocks:
#     Node 0, Type 0, BuildingBlock: BETDEL_clean_sbu_0, # of connection points: 6
#     Node 1, Type 0, BuildingBlock: BETDEL_clean_sbu_0, # of connection points: 6
#     Node 2, Type 0, BuildingBlock: BETDEL_clean_sbu_0, # of connection points: 6
#     Node 3, Type 0, BuildingBlock: BETDEL_clean_sbu_0, # of connection points: 6
#     Node 4, Type 0, BuildingBlock: BETDEL_clean_sbu_0, # of connection points: 6
#     Node 5, Type 0, BuildingBlock: BETDEL_clean_sbu_0, # of connection points: 6
#     Node 6, Type 0, BuildingBlock: BETDEL_clean_sbu_0, # of connection points: 6
#     Node 7, Type 0, BuildingBlock: BETDEL_clean_sbu_0, # of connection points: 6
#     Node 8, Type 0, BuildingBlock: BETDEL_clean_sbu_0, # of connection points: 6
#     Node 9, Type 0, BuildingBlock: BETDEL_clean_sbu_0, # of connection points: 6
#     Node 10, Type 0, BuildingBlock: BETDEL_clean_sbu_0, # of connection points: 6
#     Node 11, Type 0, BuildingBlock: BETDEL_clean_sbu_0, # of connection points: 6
#     Node 12, Type 0, BuildingBlock: BETDEL_clean_sbu_0, # of connection points: 6
#     Node 13, Type 0, BuildingBlock: BETDEL_clean_sbu_0, # of connection points: 6
#     Node 14, Type 0, BuildingBlock: BETDEL_clean_sbu_0, # of connection points: 6
#     Node 15, Type 0, BuildingBlock: BETDEL_clean_sbu_0, # of connection points: 6
#     Node 16, Type 0, BuildingBlock: BETDEL_clean_sbu_0, # of connection points: 6
#     Node 17, Type 0, BuildingBlock: BETDEL_clean_sbu_0, # of connection points: 6
#     Edge 18, Type (0, 0), BuildingBlock: AJUNOK_clean_linker_0, # of connection points: 2
#     Edge 19, Type (0, 0), BuildingBlock: AJUNOK_clean_linker_0, # of connection points: 2
#     Edge 20, Type (0, 0), BuildingBlock: AJUNOK_clean_linker_0, # of connection points: 2
#     Edge 21, Type (0, 0), BuildingBlock: AJUNOK_clean_linker_0, # of connection points: 2
#     Edge 22, Type (0, 0), BuildingBlock: AJUNOK_clean_linker_0, # of connection points: 2
#     Edge 23, Type (0, 0), BuildingBlock: AJUNOK_clean_linker_0, # of connection points: 2
#     Edge 24, Type (0, 0), BuildingBlock: AJUNOK_clean_linker_0, # of connection points: 2
#     Edge 25, Type (0, 0), BuildingBlock: AJUNOK_clean_linker_0, # of connection points: 2
#     Edge 26, Type (0, 0), BuildingBlock: AJUNOK_clean_linker_0, # of connection points: 2
#     Edge 27, Type (0, 0), BuildingBlock: AJUNOK_clean_linker_0, # of connection points: 2
#     Edge 28, Type (0, 0), BuildingBlock: AJUNOK_clean_linker_0, # of connection points: 2
#     Edge 29, Type (0, 0), BuildingBlock: AJUNOK_clean_linker_0, # of connection points: 2
#     Edge 30, Type (0, 0), BuildingBlock: AJUNOK_clean_linker_0, # of connection points: 2
#     Edge 31, Type (0, 0), BuildingBlock: AJUNOK_clean_linker_0, # of connection points: 2
#     Edge 32, Type (0, 0), BuildingBlock: AJUNOK_clean_linker_0, # of connection points: 2
#     Edge 33, Type (0, 0), BuildingBlock: AJUNOK_clean_linker_0, # of connection points: 2
#     Edge 34, Type (0, 0), BuildingBlock: AJUNOK_clean_linker_0, # of connection points: 2
#     Edge 35, Type (0, 0), BuildingBlock: AJUNOK_clean_linker_0, # of connection points: 2
#     Edge 36, Type (0, 0), BuildingBlock: AJUNOK_clean_linker_0, # of connection points: 2
#     Edge 37, Type (0, 0), BuildingBlock: AJUNOK_clean_linker_0, # of connection points: 2
#     Edge 38, Type (0, 0), BuildingBlock: AJUNOK_clean_linker_0, # of connection points: 2
#     Edge 39, Type (0, 0), BuildingBlock: AJUNOK_clean_linker_0, # of connection points: 2
#     Edge 40, Type (0, 0), BuildingBlock: AJUNOK_clean_linker_0, # of connection points: 2
#     Edge 41, Type (0, 0), BuildingBlock: AJUNOK_clean_linker_0, # of connection points: 2
#     Edge 42, Type (0, 0), BuildingBlock: AJUNOK_clean_linker_0, # of connection points: 2
#     Edge 43, Type (0, 0), BuildingBlock: AJUNOK_clean_linker_0, # of connection points: 2
#     Edge 44, Type (0, 0), BuildingBlock: AJUNOK_clean_linker_0, # of connection points: 2
#     Edge 45, Type (0, 0), BuildingBlock: AJUNOK_clean_linker_0, # of connection points: 2
#     Edge 46, Type (0, 0), BuildingBlock: AJUNOK_clean_linker_0, # of connection points: 2
#     Edge 47, Type (0, 0), BuildingBlock: AJUNOK_clean_linker_0, # of connection points: 2
#     Edge 48, Type (0, 0), BuildingBlock: AJUNOK_clean_linker_0, # of connection points: 2
#     Edge 49, Type (0, 0), BuildingBlock: AJUNOK_clean_linker_0, # of connection points: 2
#     Edge 50, Type (0, 0), BuildingBlock: AJUNOK_clean_linker_0, # of connection points: 2
#     Edge 51, Type (0, 0), BuildingBlock: AJUNOK_clean_linker_0, # of connection points: 2
#     Edge 52, Type (0, 0), BuildingBlock: AJUNOK_clean_linker_0, # of connection points: 2
#     Edge 53, Type (0, 0), BuildingBlock: AJUNOK_clean_linker_0, # of connection points: 2
#     Edge 54, Type (0, 0), BuildingBlock: AJUNOK_clean_linker_0, # of connection points: 2
#     Edge 55, Type (0, 0), BuildingBlock: AJUNOK_clean_linker_0, # of connection points: 2
#     Edge 56, Type (0, 0), BuildingBlock: AJUNOK_clean_linker_0, # of connection points: 2
#     Edge 57, Type (0, 0), BuildingBlock: AJUNOK_clean_linker_0, # of connection points: 2
#     Edge 58, Type (0, 0), BuildingBlock: AJUNOK_clean_linker_0, # of connection points: 2
#     Edge 59, Type (0, 0), BuildingBlock: AJUNOK_clean_linker_0, # of connection points: 2
#     Edge 60, Type (0, 0), BuildingBlock: AJUNOK_clean_linker_0, # of connection points: 2
#     Edge 61, Type (0, 0), BuildingBlock: AJUNOK_clean_linker_0, # of connection points: 2
#     Edge 62, Type (0, 0), BuildingBlock: AJUNOK_clean_linker_0, # of connection points: 2
#     Edge 63, Type (0, 0), BuildingBlock: AJUNOK_clean_linker_0, # of connection points: 2
#     Edge 64, Type (0, 0), BuildingBlock: AJUNOK_clean_linker_0, # of connection points: 2
#     Edge 65, Type (0, 0), BuildingBlock: AJUNOK_clean_linker_0, # of connection points: 2
#     Edge 66, Type (0, 0), BuildingBlock: AJUNOK_clean_linker_0, # of connection points: 2
#     Edge 67, Type (0, 0), BuildingBlock: AJUNOK_clean_linker_0, # of connection points: 2
#     Edge 68, Type (0, 0), BuildingBlock: AJUNOK_clean_linker_0, # of connection points: 2
#     Edge 69, Type (0, 0), BuildingBlock: AJUNOK_clean_linker_0, # of connection points: 2
#     Edge 70, Type (0, 0), BuildingBlock: AJUNOK_clean_linker_0, # of connection points: 2
#     Edge 71, Type (0, 0), BuildingBlock: AJUNOK_clean_linker_0, # of connection points: 2
# Relax obj value: 0.244
# Max RMSD: 0.299
# Mean RMSD: 0.273
data_MOF--net-smd--node1-BETDEL_clean_sbu_0--edge1-AJUNOK_clean_linker_0
_symmetry_space_group_name_H-M    P1
_symmetry_Int_Tables_number       1
_symmetry_cell_setting            triclinic
loop_
_symmetry_equiv_pos_as_xyz
'x, y, z'
_cell_length_a     48.668386
_cell_length_b     49.346041
_cell_length_c     13.955286
_cell_angle_alpha  92.537006
_cell_angle_beta   92.723972
_cell_angle_gamma 119.73185
loop_
_atom_site_label
_atom_site_type_symbol
_atom_site_fract_x
_atom_site_fract_y
_atom_site_fract_z
_atom_type_partial_charge
Dy0 Dy 0.03672 0.25422 0.63971 0.0
C1 C 0.01688 0.23178 0.24174 0.0
C2 C 0.03091 0.25404 0.83497 0.0
Dy3 Dy 1.01364 0.23348 0.43786 0.0
O4 O 0.05712 0.27175 0.7952 0.0
O5 O 1.00831 0.23865 0.7681 0.0
O6 O 0.0833 0.25849 0.62261 0.0
O7 O 0.0437 0.22276 0.53795 0.0
C8 C 0.0739 0.23678 0.553 0.0
C9 C 0.98218 0.25743 0.53882 0.0
O10 O 0.99011 0.18542 0.48388 0.0
O11 O 0.9924 0.20575 0.6374 0.0
O12 O 0.99055 0.21887 0.28459 0.0
O13 O 0.04069 0.24418 0.30579 0.0
O14 O 0.96831 0.23452 0.47233 0.0
O15 O 1.01128 0.26724 0.54124 0.0
O16 O 0.05892 0.30123 0.57001 0.0
O17 O 0.05734 0.27794 0.42246 0.0
C18 C 0.98078 0.18165 0.57165 0.0
C19 C 0.06761 0.30318 0.4799 0.0
Dy20 Dy 0.81016 0.78778 0.41159 0.0
C21 C 0.80476 0.80459 0.81738 0.0
C22 C 0.80663 0.78375 0.21748 0.0
Dy23 Dy 0.80212 0.8011 0.62429 0.0
O24 O 0.81881 0.77049 0.26999 0.0
O25 O 0.79519 0.79737 0.2702 0.0
O26 O 0.86196 0.82068 0.44026 0.0
O27 O 0.8377 0.79348 0.54892 0.0
C28 C 0.86512 0.81359 0.52679 0.0
C29 C 0.74796 0.78364 0.50659 0.0
O30 O 0.82536 0.8495 0.58265 0.0
O31 O 0.81289 0.83508 0.4191 0.0
O32 O 0.78004 0.7861 0.76006 0.0
O33 O 0.8284 0.82306 0.76908 0.0
O34 O 0.75054 0.79217 0.59746 0.0
O35 O 0.77421 0.7865 0.49065 0.0
O36 O 0.78421 0.73801 0.46531 0.0
O37 O 0.79661 0.75412 0.62846 0.0
C38 C 0.82231 0.85614 0.49378 0.0
C39 C 0.78489 0.73185 0.55806 0.0
Dy40 Dy 0.24062 1.00604 0.61071 0.0
C41 C 0.23653 0.02319 0.21191 0.0
C42 C 0.2497 0.0134 0.80495 0.0
Dy43 Dy 0.2429 0.02505 0.40652 0.0
O44 O 0.24031 0.98703 0.75421 0.0
O45 O 0.25668 0.03585 0.74893 0.0
O46 O 0.19051 0.97035 0.61902 0.0
O47 O 0.20462 0.99178 0.48924 0.0
C48 C 0.18141 0.97198 0.5323 0.0
C49 C 0.29756 0.05795 0.52269 0.0
O50 O 0.21838 0.04931 0.46333 0.0
O51 O 0.23791 0.05088 0.61816 0.0
O52 O 0.2545 0.04825 0.26809 0.0
O53 O 0.22131 0.99946 0.26221 0.0
O54 O 0.28943 0.07005 0.45388 0.0
O55 O 0.27792 0.02933 0.5186 0.0
O56 O 0.26179 0.97812 0.54011 0.0
O57 O 0.25261 0.98604 0.38122 0.0
C58 C 0.22461 0.06074 0.5538 0.0
C59 C 0.26126 0.97222 0.44491 0.0
Dy60 Dy 0.03677 0.80442 0.6678 0.0
C61 C 1.01153 0.78246 0.26377 0.0
C62 C 0.03781 0.80681 0.86485 0.0
Dy63 Dy 1.01196 0.78808 0.45901 0.0
O64 O 0.05058 0.79435 0.81225 0.0
O65 O 0.02623 0.81992 0.80985 0.0
O66 O 0.08313 0.80839 0.62208 0.0
O67 O 0.04002 0.77606 0.54961 0.0
C68 C 0.06932 0.78718 0.55003 0.0
C69 C 0.9862 0.81741 0.55912 0.0
O70 O 0.98115 0.73939 0.51525 0.0
O71 O 1.00033 0.75552 0.67599 0.0
O72 O 0.9871 0.77841 0.30934 0.0
O73 O 0.03469 0.78732 0.32463 0.0
O74 O 0.99778 0.82454 0.47637 0.0
O75 O 0.99256 0.79705 0.58812 0.0
O76 O 0.05982 0.85253 0.61893 0.0
O77 O 0.05842 0.83366 0.46418 0.0
C78 C 0.98111 0.73388 0.6089 0.0
C79 C 0.06928 0.85714 0.53117 0.0
Dy80 Dy 0.24547 0.23315 0.45284 0.0
C81 C 0.25056 0.25633 0.85458 0.0
C82 C 0.24487 0.23109 0.25722 0.0
Dy83 Dy 0.24375 0.25097 0.65781 0.0
O84 O 0.2701 0.24377 0.31636 0.0
O85 O 0.21979 0.21813 0.30499 0.0
O86 O 0.28879 0.22966 0.5031 0.0
O87 O 0.28159 0.26409 0.56701 0.0
C88 C 0.29922 0.2524 0.56964 0.0
C89 C 0.185 0.23034 0.58438 0.0
O90 O 0.26675 0.29901 0.59487 0.0
O91 O 0.24644 0.27784 0.43971 0.0
O92 O 0.22914 0.25846 0.80236 0.0
O93 O 0.27017 0.25396 0.79933 0.0
O94 O 0.19621 0.24364 0.66966 0.0
O95 O 0.2067 0.23106 0.53457 0.0
O96 O 0.22184 0.18483 0.49355 0.0
O97 O 0.23831 0.20181 0.6533 0.0
C98 C 0.26147 0.30223 0.50204 0.0
C99 C 0.22659 0.17921 0.58193 0.0
Dy100 Dy 0.80412 0.01072 0.64014 0.0
C101 C 0.80439 0.02616 0.23501 0.0
C102 C 0.81064 0.01136 0.83152 0.0
Dy103 Dy 0.81268 0.03053 0.4258 0.0
O104 O 0.79036 0.98723 0.77545 0.0
O105 O 0.82821 0.03483 0.78275 0.0
O106 O 0.75008 0.97531 0.61059 0.0
O107 O 0.77565 1.00286 0.50961 0.0
C108 C 0.74825 0.98167 0.52186 0.0
C109 C 0.86871 0.06474 0.52806 0.0
O110 O 0.78941 0.05688 0.49342 0.0
O111 O 0.80166 0.05355 0.65466 0.0
O112 O 0.81804 0.05263 0.28732 0.0
O113 O 0.79433 1.00237 0.28671 0.0
O114 O 0.86396 0.0664 0.437 0.0
O115 O 0.84315 0.04321 0.5574 0.0
O116 O 0.82543 0.98324 0.58999 0.0
O117 O 0.81776 0.9869 0.42583 0.0
C118 C 0.7916 0.0652 0.58782 0.0
C119 C 0.82405 0.97387 0.49917 0.0
Dy120 Dy 0.67544 0.56773 0.70266 0.0
C121 C 0.70253 0.58005 0.10801 0.0
C122 C 0.6815 0.57311 0.51199 0.0
Dy123 Dy 0.70029 0.57826 0.91261 0.0
O124 O 0.6572 0.57094 0.55459 0.0
O125 O 0.70267 0.5741 0.57387 0.0
O126 O 0.6395 0.51758 0.68531 0.0
O127 O 0.66514 0.53687 0.82012 0.0
C128 C 0.64451 0.51186 0.77215 0.0
C129 C 0.72965 0.62746 0.79892 0.0
O130 O 0.72581 0.55479 0.86438 0.0
O131 O 0.72193 0.56668 0.70813 0.0
O132 O 0.70259 0.60134 0.0568 0.0
O133 O 0.70356 0.55872 0.0529 0.0
O134 O 0.74467 0.6218 0.86788 0.0
O135 O 0.70075 0.60827 0.80035 0.0
O136 O 0.64858 0.58926 0.77575 0.0
O137 O 0.6514 0.5697 0.91984 0.0
C138 C 0.7345 0.55715 0.77618 0.0
C139 C 0.63978 0.58317 0.86531 0.0
Dy140 Dy 0.47283 0.11987 0.68633 0.0
C141 C 0.47711 0.14217 0.09112 0.0
C142 C 0.46439 0.11233 0.49036 0.0
Dy143 Dy 0.46796 0.14028 0.89759 0.0
O144 O 0.48375 0.10644 0.54148 0.0
O145 O 0.44779 0.11891 0.54694 0.0
O146 O 0.52445 0.15399 0.70401 0.0
O147 O 0.50217 0.13052 0.82204 0.0
C148 C 0.52898 0.14947 0.79295 0.0
C149 C 0.41324 0.11988 0.7823 0.0
O150 O 0.49338 0.18715 0.84644 0.0
O151 O 0.47598 0.16807 0.68733 0.0
O152 O 0.46334 0.15552 0.04664 0.0
O153 O 0.48758 0.12972 0.02954 0.0
O154 O 0.41586 0.1292 0.87272 0.0
O155 O 0.43934 0.12274 0.76571 0.0
O156 O 0.45478 0.07311 0.76384 0.0
O157 O 0.44321 0.09051 0.90534 0.0
C158 C 0.48751 0.19134 0.75699 0.0
C159 C 0.44497 0.06878 0.85418 0.0
Dy160 Dy 0.91735 0.36451 0.70467 0.0
C161 C 0.90501 0.34452 0.09968 0.0
C162 C 0.91985 0.36112 0.51202 0.0
Dy163 Dy 0.90799 0.34544 0.90766 0.0
O164 O 0.9264 0.38638 0.56387 0.0
O165 O 0.9138 0.33827 0.56551 0.0
O166 O 0.90235 0.40046 0.70213 0.0
O167 O 0.90061 0.37867 0.82876 0.0
C168 C 0.89575 0.39893 0.79099 0.0
C169 C 0.92547 0.31304 0.7854 0.0
O170 O 0.85782 0.31995 0.85597 0.0
O171 O 0.86884 0.31876 0.69784 0.0
O172 O 0.9187 0.33237 0.05005 0.0
O173 O 0.89234 0.35633 0.04405 0.0
O174 O 0.90567 0.30009 0.85039 0.0
O175 O 0.93564 0.34191 0.79347 0.0
O176 O 0.96855 0.39265 0.77817 0.0
O177 O 0.95379 0.38916 0.93455 0.0
C178 C 0.84901 0.30759 0.76721 0.0
C179 C 0.97576 0.40063 0.8733 0.0
Dy180 Dy 0.70037 0.13949 0.92998 0.0
C181 C 0.67861 0.12007 0.52902 0.0
C182 C 0.69975 0.14249 0.12623 0.0
Dy183 Dy 0.67403 0.12029 0.72359 0.0
O184 O 0.72342 0.14502 0.08009 0.0
O185 O 0.67754 0.14011 0.06577 0.0
O186 O 0.74555 0.14054 0.8875 0.0
O187 O 0.70251 0.10879 0.81405 0.0
C188 C 0.73184 0.11961 0.81509 0.0
C189 C 0.64841 0.15108 0.81505 0.0
O190 O 0.64305 0.07366 0.79647 0.0
O191 O 0.66763 0.09125 0.95208 0.0
O192 O 0.65277 0.10068 0.56926 0.0
O193 O 0.70117 0.13676 0.59487 0.0
O194 O 0.65698 0.15456 0.72825 0.0
O195 O 0.65611 0.13233 0.84976 0.0
O196 O 0.7224 0.18697 0.87929 0.0
O197 O 0.72137 0.16569 0.72922 0.0
C198 C 0.64533 0.06981 0.89173 0.0
C199 C 0.73235 0.19026 0.79233 0.0
Dy200 Dy 0.90761 0.57621 0.94295 0.0
C201 C 0.91986 0.5716 0.54482 0.0
C202 C 0.90562 0.5744 0.13526 0.0
Dy203 Dy 0.92183 0.56691 0.73704 0.0
O204 O 0.91498 0.59965 0.09058 0.0
O205 O 0.89603 0.55007 0.07535 0.0
O206 O 0.90526 0.61896 0.89895 0.0
O207 O 0.93572 0.60686 0.83416 0.0
C208 C 0.92485 0.62513 0.83197 0.0
C209 C 0.89906 0.51131 0.80982 0.0
O210 O 0.97182 0.5894 0.81658 0.0
O211 O 0.95505 0.58216 0.97143 0.0
O212 O 0.94389 0.57291 0.59521 0.0
O213 O 0.8983 0.5693 0.5999 0.0
O214 O 0.90867 0.51673 0.72424 0.0
O215 O 0.90282 0.53624 0.85289 0.0
O216 O 0.85818 0.5522 0.88206 0.0
O217 O 0.87417 0.5659 0.73007 0.0
C218 C 0.97742 0.58974 0.91206 0.0
C219 C 0.8519 0.55565 0.79231 0.0
Dy220 Dy 0.4719 0.34697 0.93018 0.0
C221 C 0.46491 0.35786 0.53835 0.0
C222 C 0.47142 0.34524 0.12559 0.0
Dy223 Dy 0.4736 0.36563 0.73489 0.0
O224 O 0.44817 0.34146 0.06708 0.0
O225 O 0.49503 0.34877 0.0772 0.0
O226 O 0.42888 0.29995 0.87567 0.0
O227 O 0.43515 0.3409 0.82113 0.0
C228 C 0.41783 0.31185 0.81424 0.0
C229 C 0.53275 0.40314 0.80444 0.0
O230 O 0.44841 0.38933 0.80658 0.0
O231 O 0.4703 0.39083 0.95757 0.0
O232 O 0.46863 0.38243 0.58956 0.0
O233 O 0.46349 0.33712 0.59472 0.0
O234 O 0.52029 0.40505 0.72331 0.0
O235 O 0.51248 0.38283 0.85581 0.0
O236 O 0.49223 0.31851 0.87723 0.0
O237 O 0.47753 0.32124 0.72072 0.0
C238 C 0.45421 0.39926 0.90006 0.0
C239 C 0.48772 0.30874 0.78572 0.0
Dy240 Dy 0.37261 0.92075 0.2768 0.0
C241 C 0.33976 0.89667 0.87078 0.0
C242 C 0.36333 0.9215 0.46865 0.0
Dy243 Dy 0.34421 0.89696 0.06807 0.0
O244 O 0.38922 0.94197 0.43149 0.0
O245 O 0.34261 0.90288 0.40064 0.0
O246 O 0.4113 0.90993 0.29085 0.0
O247 O 0.38312 0.89707 0.15855 0.0
C248 C 0.40589 0.8962 0.20512 0.0
C249 C 0.31444 0.9187 0.18514 0.0
O250 O 0.32137 0.85005 0.1223 0.0
O251 O 0.32965 0.87176 0.27877 0.0
O252 O 0.33857 0.91673 0.93123 0.0
O253 O 0.34124 0.87518 0.91817 0.0
O254 O 0.29939 0.89526 0.12048 0.0
O255 O 0.34357 0.92967 0.17893 0.0
O256 O 0.39667 0.96536 0.19464 0.0
O257 O 0.39217 0.93653 0.05507 0.0
C258 C 0.31594 0.84732 0.21399 0.0
C259 C 0.40364 0.96382 0.10311 0.0
Dy260 Dy 0.14528 0.45655 0.07644 0.0
C261 C 0.13995 0.47589 0.47889 0.0
C262 C 0.13711 0.45187 0.88136 0.0
Dy263 Dy 0.13687 0.4731 0.28353 0.0
O264 O 0.15427 0.44293 0.93018 0.0
O265 O 0.12296 0.46137 0.93908 0.0
O266 O 0.19595 0.4683 0.08604 0.0
O267 O 0.1765 0.47581 0.20762 0.0
C268 C 0.2016 0.47803 0.17637 0.0
C269 C 0.08715 0.454 0.1474 0.0
O270 O 0.16264 0.52131 0.24522 0.0
O271 O 0.15146 0.50621 0.08207 0.0
O272 O 0.11451 0.4684 0.42366 0.0
O273 O 0.16381 0.4835 0.42732 0.0
O274 O 0.09431 0.47587 0.21576 0.0
O275 O 0.10549 0.44333 0.15926 0.0
O276 O 0.12143 0.408 0.13879 0.0
O277 O 0.1311 0.42672 0.29992 0.0
C278 C 0.161 0.52795 0.15585 0.0
C279 C 0.1215 0.40367 0.23338 0.0
Dy280 Dy 0.57638 0.67648 0.30447 0.0
C281 C 0.58218 0.69856 0.90938 0.0
C282 C 0.58415 0.67823 0.49912 0.0
Dy283 Dy 0.58224 0.69659 0.10399 0.0
O284 O 0.56391 0.65376 0.44424 0.0
O285 O 0.60158 0.70095 0.4474 0.0
O286 O 0.5255 0.64016 0.30369 0.0
O287 O 0.54262 0.66244 0.17859 0.0
C288 C 0.51823 0.64157 0.21459 0.0
C289 C 0.63452 0.72934 0.23217 0.0
O290 O 0.55513 0.71772 0.15514 0.0
O291 O 0.57329 0.72196 0.31201 0.0
O292 O 0.60723 0.71009 0.96924 0.0
O293 O 0.55695 0.68744 0.95644 0.0
O294 O 0.62519 0.74236 0.16914 0.0
O295 O 0.61651 0.70017 0.22086 0.0
O296 O 0.59602 0.64748 0.22704 0.0
O297 O 0.57891 0.65131 0.07372 0.0
C298 C 0.5617 0.73181 0.24172 0.0
C299 C 0.59067 0.639 0.13176 0.0
Dy300 Dy 0.37475 0.47271 0.30329 0.0
C301 C 0.35156 0.45236 0.90154 0.0
C302 C 0.37161 0.47462 0.49805 0.0
Dy303 Dy 0.34468 0.45397 0.09384 0.0
O304 O 0.39707 0.48037 0.45529 0.0
O305 O 0.34888 0.46926 0.43457 0.0
O306 O 0.41788 0.47184 0.2454 0.0
O307 O 0.3727 0.44133 0.18297 0.0
C308 C 0.40146 0.45041 0.17552 0.0
C309 C 0.31374 0.47834 0.18456 0.0
O310 O 0.31748 0.4065 0.16163 0.0
O311 O 0.33918 0.42427 0.32027 0.0
O312 O 0.32423 0.43769 0.93906 0.0
O313 O 0.3743 0.46565 0.96933 0.0
O314 O 0.30756 0.46777 0.09473 0.0
O315 O 0.33692 0.47578 0.21982 0.0
O316 O 0.39739 0.52083 0.25976 0.0
O317 O 0.38889 0.50302 0.09893 0.0
C318 C 0.31902 0.40229 0.25617 0.0
C319 C 0.4033 0.52583 0.16933 0.0
Dy320 Dy 0.58149 0.90147 0.11466 0.0
C321 C 0.57858 0.92531 0.52492 0.0
C322 C 0.57582 0.89609 0.92053 0.0
Dy323 Dy 0.57731 0.92414 0.33081 0.0
O324 O 0.59943 0.89754 0.97254 0.0
O325 O 0.55457 0.89523 0.97464 0.0
O326 O 0.63498 0.91585 0.14638 0.0
O327 O 0.60967 0.92008 0.24868 0.0
C328 C 0.63672 0.92468 0.23669 0.0
C329 C 0.52138 0.90377 0.23041 0.0
O330 O 0.59922 0.97043 0.25091 0.0
O331 O 0.58208 0.94515 0.09725 0.0
O332 O 0.55454 0.90707 0.46524 0.0
O333 O 0.60278 0.94432 0.47865 0.0
O334 O 0.52814 0.91649 0.31784 0.0
O335 O 0.54607 0.90474 0.19989 0.0
O336 O 0.55222 0.85653 0.16964 0.0
O337 O 0.57387 0.87477 0.32526 0.0
C338 C 0.59591 0.97083 0.15397 0.0
C339 C 0.56064 0.85146 0.25444 0.0
Dy340 Dy 0.13764 0.67773 0.32565 0.0
C341 C 0.13737 0.69301 0.93304 0.0
C342 C 0.14132 0.67827 0.52127 0.0
Dy343 Dy 0.1448 0.70022 0.12804 0.0
O344 O 0.12049 0.65486 0.46346 0.0
O345 O 0.16054 0.70066 0.47199 0.0
O346 O 0.09325 0.63306 0.26063 0.0
O347 O 0.10478 0.67567 0.20827 0.0
C348 C 0.08578 0.64689 0.19548 0.0
C349 C 0.20261 0.73408 0.2151 0.0
O350 O 0.1239 0.72858 0.19955 0.0
O351 O 0.12882 0.71656 0.35634 0.0
O352 O 0.14683 0.71949 0.98342 0.0
O353 O 0.13016 0.67061 0.98929 0.0
O354 O 0.19481 0.73632 0.12743 0.0
O355 O 0.17883 0.71348 0.25528 0.0
O356 O 0.16348 0.65446 0.27652 0.0
O357 O 0.14806 0.65535 0.11906 0.0
C358 C 0.12289 0.73273 0.29506 0.0
C359 C 0.15944 0.64426 0.18559 0.0
C360 C 0.07574 0.36407 0.31239 0.0
C361 C 0.10529 0.37301 0.27496 0.0
C362 C 0.06485 0.34386 0.38743 0.0
C363 C 0.08339 0.33226 0.42982 0.0
H364 H 0.06157 0.37401 0.28656 0.0
H365 H 0.04139 0.33657 0.41054 0.0
S366 S 0.16102 0.34672 0.35534 0.0
N367 N 0.15226 0.36801 0.28579 0.0
N368 N 0.13136 0.3293 0.42411 0.0
C369 C 0.11246 0.34051 0.39192 0.0
C370 C 0.12351 0.36101 0.31568 0.0
C371 C 0.69372 0.77628 0.45063 0.0
C372 C 0.71939 0.77125 0.43583 0.0
C373 C 0.6667 0.76371 0.38321 0.0
C374 C 0.6642 0.74535 0.2991 0.0
H375 H 0.69447 0.78992 0.51466 0.0
H376 H 0.64735 0.76777 0.39816 0.0
S377 S 0.72441 0.72504 0.22987 0.0
N378 N 0.73983 0.74612 0.3325 0.0
N379 N 0.69004 0.72333 0.20619 0.0
C380 C 0.68973 0.74041 0.28433 0.0
C381 C 0.717 0.75315 0.3523 0.0
C382 C 0.30768 0.96917 0.38955 0.0
C383 C 0.27497 0.95386 0.40223 0.0
C384 C 0.32023 0.9572 0.32119 0.0
C385 C 0.30053 0.92962 0.26128 0.0
H386 H 0.32344 0.99166 0.42829 0.0
H387 H 0.34546 0.9704 0.3126 0.0
S388 S 0.21319 0.88096 0.26558 0.0
N389 N 0.22323 0.90981 0.34892 0.0
N390 N 0.2466 0.88716 0.22176 0.0
C391 C 0.26792 0.91377 0.27505 0.0
C392 C 0.25523 0.92595 0.3448 0.0
C393 C 0.35136 0.10445 0.57693 0.0
C394 C 0.32709 0.07374 0.58898 0.0
C395 C 0.3795 0.11922 0.63883 0.0
C396 C 0.38394 0.10407 0.71624 0.0
H397 H 0.34871 0.11709 0.51898 0.0
H398 H 0.39772 0.14276 0.62677 0.0
S399 S 0.32909 0.02304 0.77545 0.0
N400 N 0.31067 0.02824 0.68175 0.0
N401 N 0.36292 0.05628 0.79805 0.0
C402 C 0.36026 0.07332 0.72802 0.0
C403 C 0.33196 0.05813 0.66458 0.0
C404 C 0.92093 0.26842 0.67482 0.0
C405 C 0.93958 0.29816 0.72463 0.0
C406 C 0.93454 0.25551 0.61315 0.0
C407 C 0.96739 0.27144 0.60126 0.0
H408 H 0.8956 0.25539 0.68176 0.0
H409 H 0.91927 0.23286 0.57511 0.0
S410 S 0.02652 0.34968 0.71942 0.0
N411 N 0.99236 0.34302 0.75786 0.0
N412 N 0.01804 0.31857 0.64778 0.0
C413 C 0.98615 0.30097 0.65255 0.0
C414 C 0.97222 0.31435 0.71253 0.0
C415 C 0.79005 0.69438 0.66093 0.0
C416 C 0.77118 0.6998 0.59287 0.0
C417 C 0.77668 0.67058 0.72503 0.0
C418 C 0.74365 0.65112 0.72513 0.0
H419 H 0.81549 0.71017 0.66906 0.0
H420 H 0.79238 0.66827 0.77751 0.0
S421 S 0.68326 0.65569 0.56325 0.0
N422 N 0.71749 0.68352 0.53049 0.0
N423 N 0.69221 0.63881 0.64941 0.0
C424 C 0.72442 0.65556 0.65528 0.0
C425 C 0.73816 0.67978 0.58967 0.0
C426 C 0.95848 0.67553 0.6191 0.0
C427 C 0.95969 0.70367 0.64985 0.0
C428 C 0.94675 0.64999 0.67773 0.0
C429 C 0.93553 0.65151 0.76841 0.0
H430 H 0.96856 0.67396 0.55295 0.0
H431 H 0.94741 0.62927 0.65329 0.0
S432 S 0.93728 0.72102 0.88676 0.0
N433 N 0.95016 0.73178 0.78009 0.0
N434 N 0.92896 0.68432 0.88842 0.0
C435 C 0.93659 0.67937 0.79937 0.0
C436 C 0.94831 0.70516 0.74042 0.0
C437 C 0.34772 0.29892 0.64775 0.0
C438 C 0.32953 0.26621 0.63097 0.0
C439 C 0.37632 0.3132 0.70605 0.0
C440 C 0.38763 0.29536 0.75203 0.0
H441 H 0.33995 0.31371 0.61471 0.0
H442 H 0.38949 0.33852 0.71581 0.0
S443 S 0.34757 0.20877 0.73818 0.0
N444 N 0.32389 0.21633 0.66988 0.0
N445 N 0.37786 0.24315 0.77896 0.0
C446 C 0.36946 0.26261 0.73727 0.0
C447 C 0.34034 0.24805 0.67699 0.0
C448 C 0.77825 0.11366 0.77647 0.0
C449 C 0.74776 0.10817 0.74875 0.0
C450 C 0.79348 0.10209 0.71846 0.0
C451 C 0.77928 0.08501 0.62873 0.0
H452 H 0.78997 0.12586 0.84559 0.0
H453 H 0.81611 0.10525 0.74666 0.0
S454 S 0.69987 0.06435 0.5212 0.0
N455 N 0.70344 0.08344 0.62567 0.0
N456 N 0.73349 0.06416 0.51361 0.0
C457 C 0.74944 0.08049 0.59791 0.0
C458 C 0.73327 0.09125 0.65885 0.0
C459 C 0.69483 0.96231 0.28696 0.0
C460 C 0.66496 0.9384 0.30989 0.0
C461 C 0.72136 0.97641 0.35578 0.0
C462 C 0.71971 0.96641 0.44962 0.0
H463 H 0.69751 0.97087 0.21593 0.0
H464 H 0.74319 0.99568 0.33555 0.0
S465 S 0.64783 0.90259 0.54412 0.0
N466 N 0.6357 0.90476 0.43359 0.0
N467 N 0.68567 0.92981 0.55981 0.0
C468 C 0.69014 0.942 0.47273 0.0
C469 C 0.66285 0.92836 0.40381 0.0
C470 C 0.06593 0.75456 0.40044 0.0
C471 C 0.08449 0.77641 0.47856 0.0
C472 C 0.07938 0.74351 0.3325 0.0
C473 C 0.11178 0.75286 0.34182 0.0
H474 H 0.04046 0.74485 0.39359 0.0
H475 H 0.0638 0.7255 0.27729 0.0
S476 S 0.16896 0.80351 0.54614 0.0
N477 N 0.13616 0.80413 0.56638 0.0
N478 N 0.16071 0.78125 0.44515 0.0
C479 C 0.13014 0.77347 0.42243 0.0
C480 C 0.11673 0.78565 0.48924 0.0
C481 C 0.31467 0.35539 0.3262 0.0
C482 C 0.29987 0.37266 0.30061 0.0
C483 C 0.30432 0.33516 0.40103 0.0
C484 C 0.27909 0.33169 0.45491 0.0
H485 H 0.3353 0.35857 0.29077 0.0
H486 H 0.3155 0.32126 0.41489 0.0
S487 S 0.23653 0.3757 0.42917 0.0
N488 N 0.26157 0.38786 0.3443 0.0
N489 N 0.24136 0.34891 0.48208 0.0
C490 C 0.26485 0.34943 0.43222 0.0
C491 C 0.2754 0.37008 0.35618 0.0
C492 C 0.02868 0.44706 0.93799 0.0
C493 C 1.00848 0.41441 0.92146 0.0
C494 C 0.05418 0.46005 1.01094 0.0
C495 C 0.06027 0.44087 0.07034 0.0
H496 H 0.02371 0.46267 0.89809 0.0
H497 H 0.06896 0.48526 0.02172 0.0
S498 S 1.01346 0.35417 0.06027 0.0
N499 N 0.99606 0.36351 0.97381 0.0
N500 N 0.04375 0.38761 0.10719 0.0
C501 C 0.04077 0.40829 0.05255 0.0
C502 C 1.01496 0.39518 0.97941 0.0
C503 C 0.5939 0.58585 0.93272 0.0
C504 C 0.62654 0.59975 0.92135 0.0
C505 C 0.58245 0.59682 1.00783 0.0
C506 C 0.60314 0.62117 0.07759 0.0
H507 H 0.57715 0.56608 0.88436 0.0
H508 H 0.55702 0.58662 1.01002 0.0
S509 S 0.69056 0.66438 0.07904 0.0
N510 N 0.67923 0.63897 0.98499 0.0
N511 N 0.65793 0.65927 0.12558 0.0
C512 C 0.63571 0.63516 0.06569 0.0
C513 C 0.64727 0.62447 0.98842 0.0
C514 C 0.43178 0.04429 1.01292 0.0
C515 C 0.43694 0.04109 0.91369 0.0
C516 C 0.42308 0.02031 0.07515 0.0
C517 C 0.41934 0.99145 0.04331 0.0
H518 H 0.43386 0.06566 0.04508 0.0
H519 H 0.41816 0.0242 0.14782 0.0
S520 S 0.43591 0.97146 0.7993 0.0
N521 N 0.4414 1.00713 0.79242 0.0
N522 N 0.42571 0.96194 0.90922 0.0
C523 C 0.42655 0.98822 0.94687 0.0
C524 C 0.43519 0.01288 0.88251 0.0
C525 C 0.62846 0.01544 0.93224 0.0
C526 C 0.62466 0.04163 0.943 0.0
C527 C 0.62142 0.99479 1.00557 0.0
C528 C 0.60971 0.99865 0.09397 0.0
H529 H 0.63893 0.01192 0.86946 0.0
H530 H 0.62506 0.97503 0.99208 0.0
S531 S 0.59494 0.06369 0.15758 0.0
N532 N 0.60875 0.07089 0.05007 0.0
N533 N 0.59396 0.03097 0.18497 0.0
C534 C 0.60523 0.02452 0.10516 0.0
C535 C 0.61283 0.04595 0.0305 0.0
C536 C 0.03704 0.59989 0.11344 0.0
C537 C 0.06032 0.63161 0.11411 0.0
C538 C 1.01198 0.58558 0.04055 0.0
C539 C 1.0094 0.60194 0.96311 0.0
H540 H 0.03731 0.58632 0.17205 0.0
H541 H 0.99329 0.56181 0.04787 0.0
S542 S 0.06372 0.68557 0.9307 0.0
N543 N 0.07827 0.67934 0.03142 0.0
N544 N 0.03252 0.65164 0.89182 0.0
C545 C 0.0331 0.63331 0.96081 0.0
C546 C 0.05807 0.64831 0.03695 0.0
C547 C 0.44153 0.45701 0.0542 0.0
C548 C 0.41352 0.43761 0.09819 0.0
C549 C 0.45305 0.44505 0.98217 0.0
C550 C 0.43702 0.41307 0.95026 0.0
H551 H 0.45502 0.48159 0.07601 0.0
H552 H 0.47554 0.46076 0.9545 0.0
S553 S 0.36371 0.35151 0.04585 0.0
N554 N 0.37034 0.38427 0.10466 0.0
N555 N 0.39237 0.36183 0.97245 0.0
C556 C 0.40883 0.39337 0.99302 0.0
C557 C 0.39694 0.40559 0.0656 0.0
C558 C 0.11362 0.22992 0.46346 0.0
C559 C 0.09373 0.22209 0.54002 0.0
C560 C 0.14208 0.22867 0.47061 0.0
C561 C 0.15128 0.21957 0.55487 0.0
H562 H 0.10888 0.24014 0.40217 0.0
H563 H 0.15835 0.23801 0.41487 0.0
S564 S 0.10642 0.19449 0.77204 0.0
N565 N 0.08449 0.20302 0.69931 0.0
N566 N 0.13675 0.19967 0.71161 0.0
C567 C 0.1299 0.2087 0.62719 0.0
C568 C 0.10144 0.21027 0.62033 0.0
C569 C 0.80164 0.91915 0.5378 0.0
C570 C 0.82253 0.9434 0.48389 0.0
C571 C 0.8014 0.8908 0.53751 0.0
C572 C 0.82194 0.88544 0.48297 0.0
H573 H 0.78573 0.92239 0.5826 0.0
H574 H 0.78531 0.87304 0.58179 0.0
S575 S 0.88079 0.94084 0.32798 0.0
N576 N 0.86393 0.96009 0.37295 0.0
N577 N 0.86323 0.90605 0.37168 0.0
C578 C 0.84222 0.90887 0.42581 0.0
C579 C 0.84257 0.9381 0.4264 0.0
C580 C 0.11959 0.89095 0.45485 0.0
C581 C 0.09495 0.88835 0.5098 0.0
C582 C 0.14678 0.92019 0.44672 0.0
C583 C 0.1498 0.94774 0.49166 0.0
H584 H 0.11905 0.87006 0.42457 0.0
H585 H 0.16683 0.92077 0.41419 0.0
S586 S 0.08973 0.95412 0.62856 0.0
N587 N 0.07378 0.91619 0.5997 0.0
N588 N 0.1243 0.97103 0.58118 0.0
C589 C 0.12387 0.94564 0.53751 0.0
C590 C 0.09667 0.91596 0.54818 0.0
C591 C 0.20123 0.12239 0.61878 0.0
C592 C 0.22755 0.1499 0.59228 0.0
C593 C 0.20044 0.0933 0.61008 0.0
C594 C 0.22602 0.0911 0.57506 0.0
H595 H 0.1807 0.12313 0.64228 0.0
H596 H 0.17941 0.07238 0.62779 0.0
S597 S 0.30008 0.15598 0.49604 0.0
N598 N 0.27912 0.17236 0.52775 0.0
N599 N 0.27836 0.11882 0.51684 0.0
C600 C 0.25261 0.11854 0.55153 0.0
C601 C 0.25317 0.14766 0.55862 0.0
C602 C 0.92498 0.09488 0.59267 0.0
C603 C 0.89494 0.09257 0.58322 0.0
C604 C 0.95317 0.12411 0.5955 0.0
C605 C 0.95217 0.15198 0.58951 0.0
H606 H 0.9267 0.0738 0.58804 0.0
H607 H 0.97574 0.12473 0.59633 0.0
S608 S 0.87994 0.15899 0.56452 0.0
N609 N 0.86633 0.12112 0.57032 0.0
N610 N 0.91901 0.17565 0.57588 0.0
C611 C 0.92249 0.15023 0.58604 0.0
C612 C 0.89395 0.12063 0.58345 0.0
C613 C 0.94513 0.82714 0.6353 0.0
C614 C 0.95348 0.8123 0.56305 0.0
C615 C 0.9154 0.82599 0.62777 0.0
C616 C 0.89329 0.80989 0.54797 0.0
H617 H 0.96215 0.84085 0.69529 0.0
H618 H 0.91037 0.83898 0.68195 0.0
S619 S 0.90294 0.76526 0.34381 0.0
N620 N 0.93618 0.77923 0.41336 0.0
N621 N 0.88122 0.77726 0.39908 0.0
C622 C 0.90087 0.79358 0.47866 0.0
C623 C 0.9307 0.79471 0.48628 0.0
C624 C 0.7939 0.52983 0.8108 0.0
C625 C 0.82039 0.55234 0.7673 0.0
C626 C 0.76527 0.53018 0.80683 0.0
C627 C 0.76198 0.55303 0.75913 0.0
H628 H 0.79578 0.51268 0.85228 0.0
H629 H 0.74602 0.51331 0.84543 0.0
S630 S 0.82386 0.61688 0.63206 0.0
N631 N 0.84119 0.59761 0.67246 0.0
N632 N 0.7872 0.59821 0.66506 0.0
C633 C 0.78763 0.57466 0.7108 0.0
C634 C 0.81692 0.57433 0.71487 0.0
C635 C 0.46364 0.25208 0.80669 0.0
C636 C 0.48586 0.2782 0.7619 0.0
C637 C 0.46317 0.22347 0.79813 0.0
C638 C 0.48499 0.21971 0.74467 0.0
H639 H 0.44703 0.25404 0.8515 0.0
H640 H 0.44638 0.20442 0.83728 0.0
S641 S 0.54677 0.28006 0.60821 0.0
N642 N 0.52909 0.29795 0.6569 0.0
N643 N 0.52851 0.24395 0.64235 0.0
C644 C 0.50642 0.24506 0.6956 0.0
C645 C 0.50677 0.27439 0.70376 0.0
C646 C 0.76389 0.23998 0.70862 0.0
C647 C 0.76232 0.21892 0.77626 0.0
C648 C 0.79256 0.26829 0.69978 0.0
C649 C 0.8204 0.27578 0.75713 0.0
H650 H 0.74267 0.23512 0.66522 0.0
H651 H 0.79255 0.28484 0.65137 0.0
S652 S 0.82915 0.22607 0.9348 0.0
N653 N 0.79141 0.20624 0.89447 0.0
N654 N 0.8447 0.25815 0.87682 0.0
C655 C 0.8191 0.25374 0.82025 0.0
C656 C 0.79022 0.22562 0.83013 0.0
C657 C 0.91503 0.47787 0.89657 0.0
C658 C 0.89072 0.48113 0.84934 0.0
C659 C 0.91441 0.44892 0.89108 0.0
C660 C 0.88936 0.4224 0.83843 0.0
H661 H 0.93644 0.49852 0.92746 0.0
H662 H 0.93534 0.44832 0.91801 0.0
S663 S 0.8185 0.4179 0.71199 0.0
N664 N 0.83963 0.45465 0.75702 0.0
N665 N 0.83842 0.40059 0.74734 0.0
C666 C 0.86354 0.42474 0.80003 0.0
C667 C 0.8642 0.45403 0.80539 0.0
C668 C 0.58515 0.42722 0.74486 0.0
C669 C 0.56751 0.42322 0.82518 0.0
C670 C 0.61283 0.45528 0.73461 0.0
C671 C 0.62465 0.48035 0.80543 0.0
H672 H 0.57529 0.41007 0.68335 0.0
H673 H 0.62322 0.45842 0.66607 0.0
S674 S 0.59465 0.47743 0.0458 0.0
N675 N 0.5684 0.4435 0.98825 0.0
N676 N 0.62185 0.49642 0.97008 0.0
C677 C 0.6106 0.47486 0.89345 0.0
C678 C 0.58162 0.44611 0.90329 0.0
C679 C 0.60997 0.16403 0.89225 0.0
C680 C 0.61604 0.14613 0.82426 0.0
C681 C 0.58067 0.16363 0.88688 0.0
C682 C 0.5568 0.14531 0.81341 0.0
H683 H 0.6285 0.17962 0.94645 0.0
H684 H 0.57737 0.17894 0.93708 0.0
S685 S 0.55997 0.09196 0.6235 0.0
N686 N 0.59468 0.10756 0.68634 0.0
N687 N 0.54032 0.10697 0.67617 0.0
C688 C 0.56196 0.12576 0.74918 0.0
C689 C 0.59141 0.12611 0.75466 0.0
C690 C 0.46451 0.87064 0.24615 0.0
C691 C 0.48828 0.88905 0.18614 0.0
C692 C 0.43471 0.86855 0.23933 0.0
C693 C 0.42725 0.88486 0.17245 0.0
H694 H 0.47028 0.86093 0.30697 0.0
H695 H 0.41895 0.85738 0.29526 0.0
S696 S 0.47762 0.92886 0.98071 0.0
N697 N 0.4999 0.91833 0.0441 0.0
N698 N 0.44359 0.91456 0.03143 0.0
C699 C 0.44893 0.89954 0.10282 0.0
C700 C 0.47958 0.90162 0.10972 0.0
C701 C 0.14275 0.59214 0.09539 0.0
C702 C 0.16411 0.61715 0.16162 0.0
C703 C 0.14344 0.56382 0.0867 0.0
C704 C 0.16564 0.55972 0.14356 0.0
H705 H 0.12411 0.59368 0.05467 0.0
H706 H 0.12515 0.54438 0.04038 0.0
S707 S 0.22918 0.61947 0.3177 0.0
N708 N 0.20986 0.63683 0.27745 0.0
N709 N 0.21127 0.58418 0.26103 0.0
C710 C 0.18828 0.58532 0.20503 0.0
C711 C 0.18748 0.61385 0.21413 0.0
C712 C 0.46095 0.6127 0.15538 0.0
C713 C 0.49056 0.61401 0.1632 0.0
C714 C 0.43223 0.58377 0.14939 0.0
C715 C 0.4323 0.55533 0.15157 0.0
H716 H 0.45998 0.63415 0.16258 0.0
H717 H 0.40999 0.58379 0.1497 0.0
S718 S 0.50345 0.54622 0.17384 0.0
N719 N 0.51793 0.58427 0.17035 0.0
N720 N 0.46449 0.53059 0.16382 0.0
C721 C 0.4617 0.55642 0.15536 0.0
C722 C 0.4907 0.58558 0.1594 0.0
C723 C 0.56358 0.7787 0.3389 0.0
C724 C 0.56068 0.76192 0.25039 0.0
C725 C 0.56355 0.80764 0.34212 0.0
C726 C 0.56073 0.82088 0.25692 0.0
H727 H 0.56586 0.76945 0.40589 0.0
H728 H 0.56564 0.81957 0.41139 0.0
S729 S 0.55583 0.78786 1.00569 0.0
N730 N 0.55684 0.76243 0.07551 0.0
N731 N 0.55743 0.81521 0.0809 0.0
C732 C 0.55863 0.8044 0.1684 0.0
C733 C 0.55841 0.77545 0.16532 0.0
C734 C 0.28764 0.78878 0.20519 0.0
C735 C 0.29036 0.81698 0.24241 0.0
C736 C 0.26027 0.75992 0.21483 0.0
C737 C 0.23411 0.75818 0.25909 0.0
H738 H 0.306 0.78916 0.16337 0.0
H739 H 0.25806 0.73918 0.17707 0.0
S740 S 0.23078 0.82532 0.37617 0.0
N741 N 0.2662 0.84133 0.33442 0.0
N742 N 0.21408 0.78726 0.34788 0.0
C743 C 0.23771 0.78602 0.3037 0.0
C744 C 0.26593 0.81542 0.29588 0.0
C745 C 0.25981 0.45274 0.24023 0.0
C746 C 0.2889 0.48065 0.23598 0.0
C747 C 0.23081 0.45263 0.23832 0.0
C748 C 0.22965 0.48045 0.23162 0.0
H749 H 0.25902 0.43043 0.23205 0.0
H750 H 0.20899 0.43024 0.22946 0.0
S751 S 0.29923 0.56014 0.23369 0.0
N752 N 0.31487 0.53711 0.23735 0.0
N753 N 0.26042 0.53695 0.23338 0.0
C754 C 0.25869 0.50873 0.23831 0.0
C755 C 0.28829 0.50883 0.2405 0.0
C756 C 0.04663 0.26332 0.10833 0.0
C757 C 0.02014 0.23643 0.13777 0.0
C758 C 0.05017 0.26907 1.0105 0.0
C759 C 0.02736 0.2481 0.93855 0.0
H760 H 0.06456 0.28036 0.16151 0.0
H761 H 0.0707 0.29019 0.99127 0.0
S762 S 0.95615 0.17208 0.9774 0.0
N763 N 0.97231 0.1875 0.08704 0.0
N764 N 0.97899 0.19771 0.90356 0.0
C765 C 1.00136 0.22058 0.96719 0.0
C766 C 0.99769 0.21491 0.06668 0.0
C767 C 0.82983 0.81726 0.08361 0.0
C768 C 0.80924 0.78756 0.11478 0.0
C769 C 0.82917 0.82291 0.98612 0.0
C770 C 0.80687 0.79931 0.91897 0.0
H771 H 0.84611 0.83629 0.13514 0.0
H772 H 0.84534 0.84593 0.96386 0.0
S773 S 0.7492 0.71759 0.96435 0.0
N774 N 0.76781 0.73418 0.07071 0.0
N775 N 0.76489 0.74506 0.88902 0.0
C776 C 0.78655 0.76956 0.9496 0.0
C777 C 0.78809 0.76361 0.0475 0.0
C778 C 0.22938 0.99185 0.05894 0.0
C779 C 0.23787 0.02084 0.10743 0.0
C780 C 0.23382 0.98971 0.9611 0.0
C781 C 0.24669 0.01645 0.90882 0.0
H782 H 0.22003 0.97081 0.09727 0.0
H783 H 0.22708 0.96698 0.92632 0.0
S784 S 0.26898 0.09709 1.00154 0.0
N785 N 0.25753 0.07625 0.09588 0.0
N786 N 0.2651 0.07234 0.91125 0.0
C787 C 0.25401 0.04535 0.95601 0.0
C788 C 0.24982 0.04751 0.05571 0.0
C789 C 1.0151 0.81332 1.01703 0.0
C790 C 0.03173 0.80118 0.96744 0.0
C791 C 1.00713 0.80609 0.11203 0.0
C792 C 1.01565 0.78657 0.16031 0.0
H793 H 1.00812 0.82842 0.98223 0.0
H794 H 0.9951 0.81652 0.14872 0.0
S795 S 0.05891 0.74873 0.06363 0.0
N796 N 0.05578 0.7682 0.97456 0.0
N797 N 0.04168 0.75568 0.15291 0.0
C798 C 0.03242 0.77465 0.11205 0.0
C799 C 0.04018 0.7816 1.01559 0.0
C800 C 0.27434 0.25039 0.1117 0.0
C801 C 0.24515 0.2357 0.15357 0.0
C802 C 0.27591 0.25714 1.01498 0.0
C803 C 0.24845 0.2501 0.95734 0.0
H804 H 0.29624 0.25689 0.1541 0.0
H805 H 0.29885 0.26826 0.9854 0.0
S806 S 0.16586 0.2104 0.03154 0.0
N807 N 0.18795 0.21348 0.1295 0.0
N808 N 0.19082 0.22634 0.94775 0.0
C809 C 0.21897 0.23516 0.99809 0.0
C810 C 0.21734 0.22792 0.09632 0.0
C811 C 0.83201 0.04428 0.08818 0.0
C812 C 0.80507 0.02306 0.13215 0.0
C813 C 0.83417 0.03979 0.99019 0.0
C814 C 0.80939 0.01403 0.93481 0.0
H815 H 0.85172 0.06395 0.12997 0.0
H816 H 0.85518 0.05657 0.95767 0.0
S817 S 0.73347 0.953 0.01806 0.0
N818 N 0.75334 0.976 0.11552 0.0
N819 N 0.75673 0.96793 0.92987 0.0
C820 C 0.78232 0.99284 0.97844 0.0
C821 C 0.78034 0.99727 0.078 0.0
C822 C 0.70651 0.5613 0.26838 0.0
C823 C 0.69623 0.57756 0.21027 0.0
C824 C 0.70134 0.55963 0.36652 0.0
C825 C 0.68483 0.57328 0.4082 0.0
H826 H 0.71921 0.55047 0.23848 0.0
H827 H 0.71029 0.5476 0.41 0.0
S828 S 0.64879 0.61383 0.28463 0.0
N829 N 0.66601 0.60463 0.19989 0.0
N830 N 0.65585 0.60068 0.3837 0.0
C831 C 0.67288 0.58783 0.34995 0.0
C832 C 0.67871 0.5902 0.25093 0.0
C833 C 0.48015 0.10691 0.32493 0.0
C834 C 0.46709 0.11961 0.38811 0.0
C835 C 0.48394 0.11482 0.22905 0.0
C836 C 0.47531 0.13613 0.19378 0.0
H837 H 0.48722 0.09057 0.34946 0.0
H838 H 0.49331 0.10384 0.18203 0.0
S839 S 0.44272 0.17807 0.33172 0.0
N840 N 0.44734 0.1561 0.40951 0.0
N841 N 0.45443 0.17064 0.2298 0.0
C842 C 0.46287 0.14943 0.25649 0.0
C843 C 0.45882 0.1413 0.35363 0.0
C844 C 0.92417 0.33678 0.25742 0.0
C845 C 0.90708 0.34792 0.20456 0.0
C846 C 0.9281 0.34116 0.3576 0.0
C847 C 0.91577 0.35747 0.40727 0.0
H848 H 0.9348 0.32478 0.22128 0.0
H849 H 0.94132 0.33217 0.3964 0.0
S850 S 0.86678 0.38892 0.30271 0.0
N851 N 0.87595 0.37422 0.20903 0.0
N852 N 0.88385 0.38288 0.39826 0.0
C853 C 0.89813 0.36832 0.3557 0.0
C854 C 0.89369 0.36345 0.2537 0.0
C855 C 0.67384 0.10667 0.25548 0.0
C856 C 0.69555 0.1367 0.2287 0.0
C857 C 0.66738 0.10111 0.35237 0.0
C858 C 0.68311 0.12542 0.42553 0.0
H859 H 0.66207 0.08732 0.201 0.0
H860 H 0.65067 0.07766 0.37017 0.0
S861 S 0.74251 0.20821 0.39156 0.0
N862 N 0.73264 0.19073 0.28172 0.0
N863 N 0.72162 0.18076 0.46348 0.0
C864 C 0.70533 0.15546 0.39896 0.0
C865 C 0.7114 0.161 0.30064 0.0
C866 C 0.93925 0.58935 0.28846 0.0
C867 C 0.90897 0.57371 0.23892 0.0
C868 C 0.94286 0.58785 0.38794 0.0
C869 C 0.91619 0.57139 0.43997 0.0
H870 H 0.96019 0.60241 0.24991 0.0
H871 H 0.96646 0.60017 0.42453 0.0
S872 S 0.83208 0.52545 0.33995 0.0
N873 N 0.8524 0.54006 0.24577 0.0
N874 N 0.85859 0.53823 0.43367 0.0
C875 C 0.88581 0.55543 0.39027 0.0
C876 C 0.88236 0.55631 0.28907 0.0
C877 C 0.45426 0.36252 0.26951 0.0
C878 C 0.47179 0.34949 0.23103 0.0
C879 C 0.45288 0.36612 0.3692 0.0
C880 C 0.46806 0.35578 0.43362 0.0
H881 H 0.44155 0.37011 0.22207 0.0
H882 H 0.43909 0.37618 0.39579 0.0
S883 S 0.51888 0.32211 0.36973 0.0
N884 N 0.50659 0.32842 0.26502 0.0
N885 N 0.50277 0.33359 0.45237 0.0
C886 C 0.48624 0.34328 0.3961 0.0
C887 C 0.48847 0.34058 0.29469 0.0
C888 C 0.36386 0.93898 0.64105 0.0
C889 C 0.35924 0.91536 0.57178 0.0
C890 C 0.35659 0.93228 0.73666 0.0
C891 C 0.3455 0.90196 0.76758 0.0
H892 H 0.37225 0.96259 0.62071 0.0
H893 H 0.36025 0.95127 0.78731 0.0
S894 S 0.33118 0.83212 0.61448 0.0
N895 N 0.34323 0.86037 0.54036 0.0
N896 N 0.33151 0.84834 0.72103 0.0
C897 C 0.34177 0.8783 0.69948 0.0
C898 C 0.34815 0.88488 0.60141 0.0
C899 C 0.11213 0.45603 0.72771 0.0
C900 C 0.13816 0.45669 0.77804 0.0
C901 C 0.1131 0.46268 0.63104 0.0
C902 C 0.14042 0.47097 0.58218 0.0
H903 H 0.09077 0.4502 0.76325 0.0
H904 H 0.09226 0.46129 0.5944 0.0
S905 S 0.21596 0.4784 0.68433 0.0
N906 N 0.19263 0.46767 0.7739 0.0
N907 N 0.19465 0.48042 0.59215 0.0
C908 C 0.16693 0.47231 0.63228 0.0
C909 C 0.16576 0.46511 0.7304 0.0
C910 C 0.55407 0.67622 0.74571 0.0
C911 C 0.58253 0.69398 0.80448 0.0
C912 C 0.55462 0.6702 0.64662 0.0
C913 C 0.58362 0.68208 0.60381 0.0
H914 H 0.53134 0.66674 0.77637 0.0
H915 H 0.53231 0.65685 0.60305 0.0
S916 S 0.66423 0.72824 0.72642 0.0
N917 N 0.64021 0.72181 0.81288 0.0
N918 N 0.64096 0.71155 0.62664 0.0
C919 C 0.61194 0.69972 0.66158 0.0
C920 C 0.61147 0.70534 0.76211 0.0
C921 C 0.33105 0.44643 0.72856 0.0
C922 C 0.35675 0.45768 0.79859 0.0
C923 C 0.33613 0.45261 0.63162 0.0
C924 C 0.36706 0.47008 0.60138 0.0
H925 H 0.30692 0.43292 0.74866 0.0
H926 H 0.31565 0.44318 0.57977 0.0
S927 S 0.44209 0.50705 0.75758 0.0
N928 N 0.41415 0.489 0.83158 0.0
N929 N 0.4234 0.49978 0.64961 0.0
C930 C 0.39279 0.48187 0.67079 0.0
C931 C 0.38769 0.47593 0.76937 0.0
C932 C 0.60551 0.91968 0.77821 0.0
C933 C 0.5764 0.9028 0.81935 0.0
C934 C 0.60649 0.92888 0.68417 0.0
C935 C 0.57834 0.92063 0.62818 0.0
H936 H 0.62766 0.92636 0.81948 0.0
H937 H 0.62926 0.94184 0.65459 0.0
S938 S 0.49641 0.87878 0.70637 0.0
N939 N 0.5192 0.88056 0.8006 0.0
N940 N 0.52075 0.8961 0.62237 0.0
C941 C 0.54921 0.90432 0.66964 0.0
C942 C 0.54831 0.89579 0.76571 0.0
C943 C 0.15873 0.71074 0.67751 0.0
C944 C 0.14074 0.68117 0.62649 0.0
C945 C 0.15696 0.71458 0.77669 0.0
C946 C 0.13746 0.68893 0.82805 0.0
H947 H 0.17394 0.73117 0.64044 0.0
H948 H 0.17128 0.73767 0.8135 0.0
S949 S 0.08659 0.60658 0.72842 0.0
N950 N 0.10322 0.62591 0.6346 0.0
N951 N 0.10054 0.63288 0.82154 0.0
C952 C 0.11986 0.65919 0.77823 0.0
C953 C 0.1213 0.65538 0.67715 0.0
loop_
_geom_bond_atom_site_label_1
_geom_bond_atom_site_label_2
_geom_bond_distance
_geom_bond_site_symmetry_2
_ccdc_geom_bond_type
Dy0 O4 2.398 . S
Dy0 O5 2.491 1_455 S
Dy0 O6 2.403 . S
Dy0 O7 2.664 . S
Dy0 O11 2.326 1_455 S
Dy0 O15 2.310 1_455 S
Dy0 O16 2.351 . S
C1 O12 1.185 1_455 S
C1 O13 1.355 . S
C2 O4 1.185 . S
C2 O5 1.355 1_455 S
Dy3 O7 2.310 1_655 S
Dy3 O10 2.351 . S
Dy3 O12 2.398 . S
Dy3 O13 2.491 1_655 S
Dy3 O14 2.403 . S
Dy3 O15 2.664 . S
Dy3 O17 2.326 1_655 S
O4 Dy0 2.398 . S
O4 C2 1.185 . S
O5 Dy0 2.491 1_655 S
O5 C2 1.355 1_655 S
O6 Dy0 2.403 . S
O6 C8 1.254 . S
O7 Dy0 2.664 . S
O7 Dy3 2.310 1_455 S
O7 C8 1.268 . S
C8 O6 1.254 . S
C8 O7 1.268 . S
C9 O14 1.254 . S
C9 O15 1.268 . S
O10 Dy3 2.351 . S
O10 C18 1.249 . S
O11 Dy0 2.326 1_655 S
O11 C18 1.267 . S
O12 C1 1.185 1_655 S
O12 Dy3 2.398 . S
O13 C1 1.355 . S
O13 Dy3 2.491 1_455 S
O14 Dy3 2.403 . S
O14 C9 1.254 . S
O15 Dy0 2.310 1_655 S
O15 Dy3 2.664 . S
O15 C9 1.268 . S
O16 Dy0 2.351 . S
O16 C19 1.249 . S
O17 Dy3 2.326 1_455 S
O17 C19 1.267 . S
C18 O10 1.249 . S
C18 O11 1.267 . S
C19 O16 1.249 . S
C19 O17 1.267 . S
Dy20 O24 2.398 . S
Dy20 O25 2.491 . S
Dy20 O26 2.403 . S
Dy20 O27 2.664 . S
Dy20 O31 2.326 . S
Dy20 O35 2.310 . S
Dy20 O36 2.351 . S
C21 O32 1.185 . S
C21 O33 1.355 . S
C22 O24 1.185 . S
C22 O25 1.355 . S
Dy23 O27 2.310 . S
Dy23 O30 2.351 . S
Dy23 O32 2.398 . S
Dy23 O33 2.491 . S
Dy23 O34 2.403 . S
Dy23 O35 2.664 . S
Dy23 O37 2.326 . S
O24 Dy20 2.398 . S
O24 C22 1.185 . S
O25 Dy20 2.491 . S
O25 C22 1.355 . S
O26 Dy20 2.403 . S
O26 C28 1.254 . S
O27 Dy20 2.664 . S
O27 Dy23 2.310 . S
O27 C28 1.268 . S
C28 O26 1.254 . S
C28 O27 1.268 . S
C29 O34 1.254 . S
C29 O35 1.268 . S
O30 Dy23 2.351 . S
O30 C38 1.249 . S
O31 Dy20 2.326 . S
O31 C38 1.267 . S
O32 C21 1.185 . S
O32 Dy23 2.398 . S
O33 C21 1.355 . S
O33 Dy23 2.491 . S
O34 Dy23 2.403 . S
O34 C29 1.254 . S
O35 Dy20 2.310 . S
O35 Dy23 2.664 . S
O35 C29 1.268 . S
O36 Dy20 2.351 . S
O36 C39 1.249 . S
O37 Dy23 2.326 . S
O37 C39 1.267 . S
C38 O30 1.249 . S
C38 O31 1.267 . S
C39 O36 1.249 . S
C39 O37 1.267 . S
Dy40 O44 2.398 . S
Dy40 O45 2.491 1_565 S
Dy40 O46 2.403 . S
Dy40 O47 2.664 . S
Dy40 O51 2.326 1_565 S
Dy40 O55 2.310 1_565 S
Dy40 O56 2.351 . S
C41 O52 1.185 . S
C41 O53 1.355 1_545 S
C42 O44 1.185 1_545 S
C42 O45 1.355 . S
Dy43 O47 2.310 1_545 S
Dy43 O50 2.351 . S
Dy43 O52 2.398 . S
Dy43 O53 2.491 1_545 S
Dy43 O54 2.403 . S
Dy43 O55 2.664 . S
Dy43 O57 2.326 1_545 S
O44 Dy40 2.398 . S
O44 C42 1.185 1_565 S
O45 Dy40 2.491 1_545 S
O45 C42 1.355 . S
O46 Dy40 2.403 . S
O46 C48 1.254 . S
O47 Dy40 2.664 . S
O47 Dy43 2.310 1_565 S
O47 C48 1.268 . S
C48 O46 1.254 . S
C48 O47 1.268 . S
C49 O54 1.254 . S
C49 O55 1.268 . S
O50 Dy43 2.351 . S
O50 C58 1.249 . S
O51 Dy40 2.326 1_545 S
O51 C58 1.267 . S
O52 C41 1.185 . S
O52 Dy43 2.398 . S
O53 C41 1.355 1_565 S
O53 Dy43 2.491 1_565 S
O54 Dy43 2.403 . S
O54 C49 1.254 . S
O55 Dy40 2.310 1_545 S
O55 Dy43 2.664 . S
O55 C49 1.268 . S
O56 Dy40 2.351 . S
O56 C59 1.249 . S
O57 Dy43 2.326 1_565 S
O57 C59 1.267 . S
C58 O50 1.249 . S
C58 O51 1.267 . S
C59 O56 1.249 . S
C59 O57 1.267 . S
Dy60 O64 2.398 . S
Dy60 O65 2.491 1_455 S
Dy60 O66 2.403 . S
Dy60 O67 2.664 . S
Dy60 O71 2.326 1_455 S
Dy60 O75 2.310 1_455 S
Dy60 O76 2.351 . S
C61 O72 1.185 1_455 S
C61 O73 1.355 . S
C62 O64 1.185 . S
C62 O65 1.355 1_455 S
Dy63 O67 2.310 1_655 S
Dy63 O70 2.351 . S
Dy63 O72 2.398 . S
Dy63 O73 2.491 1_655 S
Dy63 O74 2.403 . S
Dy63 O75 2.664 . S
Dy63 O77 2.326 1_655 S
O64 Dy60 2.398 . S
O64 C62 1.185 . S
O65 Dy60 2.491 1_655 S
O65 C62 1.355 1_655 S
O66 Dy60 2.403 . S
O66 C68 1.254 . S
O67 Dy60 2.664 . S
O67 Dy63 2.310 1_455 S
O67 C68 1.268 . S
C68 O66 1.254 . S
C68 O67 1.268 . S
C69 O74 1.254 . S
C69 O75 1.268 . S
O70 Dy63 2.351 . S
O70 C78 1.249 . S
O71 Dy60 2.326 1_655 S
O71 C78 1.267 . S
O72 C61 1.185 1_655 S
O72 Dy63 2.398 . S
O73 C61 1.355 . S
O73 Dy63 2.491 1_455 S
O74 Dy63 2.403 . S
O74 C69 1.254 . S
O75 Dy60 2.310 1_655 S
O75 Dy63 2.664 . S
O75 C69 1.268 . S
O76 Dy60 2.351 . S
O76 C79 1.249 . S
O77 Dy63 2.326 1_455 S
O77 C79 1.267 . S
C78 O70 1.249 . S
C78 O71 1.267 . S
C79 O76 1.249 . S
C79 O77 1.267 . S
Dy80 O84 2.398 . S
Dy80 O85 2.491 . S
Dy80 O86 2.403 . S
Dy80 O87 2.664 . S
Dy80 O91 2.326 . S
Dy80 O95 2.310 . S
Dy80 O96 2.351 . S
C81 O92 1.185 . S
C81 O93 1.355 . S
C82 O84 1.185 . S
C82 O85 1.355 . S
Dy83 O87 2.310 . S
Dy83 O90 2.351 . S
Dy83 O92 2.398 . S
Dy83 O93 2.491 . S
Dy83 O94 2.403 . S
Dy83 O95 2.664 . S
Dy83 O97 2.326 . S
O84 Dy80 2.398 . S
O84 C82 1.185 . S
O85 Dy80 2.491 . S
O85 C82 1.355 . S
O86 Dy80 2.403 . S
O86 C88 1.254 . S
O87 Dy80 2.664 . S
O87 Dy83 2.310 . S
O87 C88 1.268 . S
C88 O86 1.254 . S
C88 O87 1.268 . S
C89 O94 1.254 . S
C89 O95 1.268 . S
O90 Dy83 2.351 . S
O90 C98 1.249 . S
O91 Dy80 2.326 . S
O91 C98 1.267 . S
O92 C81 1.185 . S
O92 Dy83 2.398 . S
O93 C81 1.355 . S
O93 Dy83 2.491 . S
O94 Dy83 2.403 . S
O94 C89 1.254 . S
O95 Dy80 2.310 . S
O95 Dy83 2.664 . S
O95 C89 1.268 . S
O96 Dy80 2.351 . S
O96 C99 1.249 . S
O97 Dy83 2.326 . S
O97 C99 1.267 . S
C98 O90 1.249 . S
C98 O91 1.267 . S
C99 O96 1.249 . S
C99 O97 1.267 . S
Dy100 O104 2.398 . S
Dy100 O105 2.491 1_565 S
Dy100 O106 2.403 . S
Dy100 O107 2.664 . S
Dy100 O111 2.326 1_565 S
Dy100 O115 2.310 1_565 S
Dy100 O116 2.351 . S
C101 O112 1.185 . S
C101 O113 1.355 1_545 S
C102 O104 1.185 1_545 S
C102 O105 1.355 . S
Dy103 O107 2.310 1_545 S
Dy103 O110 2.351 . S
Dy103 O112 2.398 . S
Dy103 O113 2.491 1_545 S
Dy103 O114 2.403 . S
Dy103 O115 2.664 . S
Dy103 O117 2.326 1_545 S
O104 Dy100 2.398 . S
O104 C102 1.185 1_565 S
O105 Dy100 2.491 1_545 S
O105 C102 1.355 . S
O106 Dy100 2.403 . S
O106 C108 1.254 . S
O107 Dy100 2.664 . S
O107 Dy103 2.310 1_565 S
O107 C108 1.268 . S
C108 O106 1.254 . S
C108 O107 1.268 . S
C109 O114 1.254 . S
C109 O115 1.268 . S
O110 Dy103 2.351 . S
O110 C118 1.249 . S
O111 Dy100 2.326 1_545 S
O111 C118 1.267 . S
O112 C101 1.185 . S
O112 Dy103 2.398 . S
O113 C101 1.355 1_565 S
O113 Dy103 2.491 1_565 S
O114 Dy103 2.403 . S
O114 C109 1.254 . S
O115 Dy100 2.310 1_545 S
O115 Dy103 2.664 . S
O115 C109 1.268 . S
O116 Dy100 2.351 . S
O116 C119 1.249 . S
O117 Dy103 2.326 1_565 S
O117 C119 1.267 . S
C118 O110 1.249 . S
C118 O111 1.267 . S
C119 O116 1.249 . S
C119 O117 1.267 . S
Dy120 O124 2.398 . S
Dy120 O125 2.491 . S
Dy120 O126 2.403 . S
Dy120 O127 2.664 . S
Dy120 O131 2.326 . S
Dy120 O135 2.310 . S
Dy120 O136 2.351 . S
C121 O132 1.185 . S
C121 O133 1.355 . S
C122 O124 1.185 . S
C122 O125 1.355 . S
Dy123 O127 2.310 . S
Dy123 O130 2.351 . S
Dy123 O132 2.398 1_556 S
Dy123 O133 2.491 1_556 S
Dy123 O134 2.403 . S
Dy123 O135 2.664 . S
Dy123 O137 2.326 . S
O124 Dy120 2.398 . S
O124 C122 1.185 . S
O125 Dy120 2.491 . S
O125 C122 1.355 . S
O126 Dy120 2.403 . S
O126 C128 1.254 . S
O127 Dy120 2.664 . S
O127 Dy123 2.310 . S
O127 C128 1.268 . S
C128 O126 1.254 . S
C128 O127 1.268 . S
C129 O134 1.254 . S
C129 O135 1.268 . S
O130 Dy123 2.351 . S
O130 C138 1.249 . S
O131 Dy120 2.326 . S
O131 C138 1.267 . S
O132 C121 1.185 . S
O132 Dy123 2.398 1_554 S
O133 C121 1.355 . S
O133 Dy123 2.491 1_554 S
O134 Dy123 2.403 . S
O134 C129 1.254 . S
O135 Dy120 2.310 . S
O135 Dy123 2.664 . S
O135 C129 1.268 . S
O136 Dy120 2.351 . S
O136 C139 1.249 . S
O137 Dy123 2.326 . S
O137 C139 1.267 . S
C138 O130 1.249 . S
C138 O131 1.267 . S
C139 O136 1.249 . S
C139 O137 1.267 . S
Dy140 O144 2.398 . S
Dy140 O145 2.491 . S
Dy140 O146 2.403 . S
Dy140 O147 2.664 . S
Dy140 O151 2.326 . S
Dy140 O155 2.310 . S
Dy140 O156 2.351 . S
C141 O152 1.185 . S
C141 O153 1.355 . S
C142 O144 1.185 . S
C142 O145 1.355 . S
Dy143 O147 2.310 . S
Dy143 O150 2.351 . S
Dy143 O152 2.398 1_556 S
Dy143 O153 2.491 1_556 S
Dy143 O154 2.403 . S
Dy143 O155 2.664 . S
Dy143 O157 2.326 . S
O144 Dy140 2.398 . S
O144 C142 1.185 . S
O145 Dy140 2.491 . S
O145 C142 1.355 . S
O146 Dy140 2.403 . S
O146 C148 1.254 . S
O147 Dy140 2.664 . S
O147 Dy143 2.310 . S
O147 C148 1.268 . S
C148 O146 1.254 . S
C148 O147 1.268 . S
C149 O154 1.254 . S
C149 O155 1.268 . S
O150 Dy143 2.351 . S
O150 C158 1.249 . S
O151 Dy140 2.326 . S
O151 C158 1.267 . S
O152 C141 1.185 . S
O152 Dy143 2.398 1_554 S
O153 C141 1.355 . S
O153 Dy143 2.491 1_554 S
O154 Dy143 2.403 . S
O154 C149 1.254 . S
O155 Dy140 2.310 . S
O155 Dy143 2.664 . S
O155 C149 1.268 . S
O156 Dy140 2.351 . S
O156 C159 1.249 . S
O157 Dy143 2.326 . S
O157 C159 1.267 . S
C158 O150 1.249 . S
C158 O151 1.267 . S
C159 O156 1.249 . S
C159 O157 1.267 . S
Dy160 O164 2.398 . S
Dy160 O165 2.491 . S
Dy160 O166 2.403 . S
Dy160 O167 2.664 . S
Dy160 O171 2.326 . S
Dy160 O175 2.310 . S
Dy160 O176 2.351 . S
C161 O172 1.185 . S
C161 O173 1.355 . S
C162 O164 1.185 . S
C162 O165 1.355 . S
Dy163 O167 2.310 . S
Dy163 O170 2.351 . S
Dy163 O172 2.398 1_556 S
Dy163 O173 2.491 1_556 S
Dy163 O174 2.403 . S
Dy163 O175 2.664 . S
Dy163 O177 2.326 . S
O164 Dy160 2.398 . S
O164 C162 1.185 . S
O165 Dy160 2.491 . S
O165 C162 1.355 . S
O166 Dy160 2.403 . S
O166 C168 1.254 . S
O167 Dy160 2.664 . S
O167 Dy163 2.310 . S
O167 C168 1.268 . S
C168 O166 1.254 . S
C168 O167 1.268 . S
C169 O174 1.254 . S
C169 O175 1.268 . S
O170 Dy163 2.351 . S
O170 C178 1.249 . S
O171 Dy160 2.326 . S
O171 C178 1.267 . S
O172 C161 1.185 . S
O172 Dy163 2.398 1_554 S
O173 C161 1.355 . S
O173 Dy163 2.491 1_554 S
O174 Dy163 2.403 . S
O174 C169 1.254 . S
O175 Dy160 2.310 . S
O175 Dy163 2.664 . S
O175 C169 1.268 . S
O176 Dy160 2.351 . S
O176 C179 1.249 . S
O177 Dy163 2.326 . S
O177 C179 1.267 . S
C178 O170 1.249 . S
C178 O171 1.267 . S
C179 O176 1.249 . S
C179 O177 1.267 . S
Dy180 O184 2.398 1_556 S
Dy180 O185 2.491 1_556 S
Dy180 O186 2.403 . S
Dy180 O187 2.664 . S
Dy180 O191 2.326 . S
Dy180 O195 2.310 . S
Dy180 O196 2.351 . S
C181 O192 1.185 . S
C181 O193 1.355 . S
C182 O184 1.185 . S
C182 O185 1.355 . S
Dy183 O187 2.310 . S
Dy183 O190 2.351 . S
Dy183 O192 2.398 . S
Dy183 O193 2.491 . S
Dy183 O194 2.403 . S
Dy183 O195 2.664 . S
Dy183 O197 2.326 . S
O184 Dy180 2.398 1_554 S
O184 C182 1.185 . S
O185 Dy180 2.491 1_554 S
O185 C182 1.355 . S
O186 Dy180 2.403 . S
O186 C188 1.254 . S
O187 Dy180 2.664 . S
O187 Dy183 2.310 . S
O187 C188 1.268 . S
C188 O186 1.254 . S
C188 O187 1.268 . S
C189 O194 1.254 . S
C189 O195 1.268 . S
O190 Dy183 2.351 . S
O190 C198 1.249 . S
O191 Dy180 2.326 . S
O191 C198 1.267 . S
O192 C181 1.185 . S
O192 Dy183 2.398 . S
O193 C181 1.355 . S
O193 Dy183 2.491 . S
O194 Dy183 2.403 . S
O194 C189 1.254 . S
O195 Dy180 2.310 . S
O195 Dy183 2.664 . S
O195 C189 1.268 . S
O196 Dy180 2.351 . S
O196 C199 1.249 . S
O197 Dy183 2.326 . S
O197 C199 1.267 . S
C198 O190 1.249 . S
C198 O191 1.267 . S
C199 O196 1.249 . S
C199 O197 1.267 . S
Dy200 O204 2.398 1_556 S
Dy200 O205 2.491 1_556 S
Dy200 O206 2.403 . S
Dy200 O207 2.664 . S
Dy200 O211 2.326 . S
Dy200 O215 2.310 . S
Dy200 O216 2.351 . S
C201 O212 1.185 . S
C201 O213 1.355 . S
C202 O204 1.185 . S
C202 O205 1.355 . S
Dy203 O207 2.310 . S
Dy203 O210 2.351 . S
Dy203 O212 2.398 . S
Dy203 O213 2.491 . S
Dy203 O214 2.403 . S
Dy203 O215 2.664 . S
Dy203 O217 2.326 . S
O204 Dy200 2.398 1_554 S
O204 C202 1.185 . S
O205 Dy200 2.491 1_554 S
O205 C202 1.355 . S
O206 Dy200 2.403 . S
O206 C208 1.254 . S
O207 Dy200 2.664 . S
O207 Dy203 2.310 . S
O207 C208 1.268 . S
C208 O206 1.254 . S
C208 O207 1.268 . S
C209 O214 1.254 . S
C209 O215 1.268 . S
O210 Dy203 2.351 . S
O210 C218 1.249 . S
O211 Dy200 2.326 . S
O211 C218 1.267 . S
O212 C201 1.185 . S
O212 Dy203 2.398 . S
O213 C201 1.355 . S
O213 Dy203 2.491 . S
O214 Dy203 2.403 . S
O214 C209 1.254 . S
O215 Dy200 2.310 . S
O215 Dy203 2.664 . S
O215 C209 1.268 . S
O216 Dy200 2.351 . S
O216 C219 1.249 . S
O217 Dy203 2.326 . S
O217 C219 1.267 . S
C218 O210 1.249 . S
C218 O211 1.267 . S
C219 O216 1.249 . S
C219 O217 1.267 . S
Dy220 O224 2.398 1_556 S
Dy220 O225 2.491 1_556 S
Dy220 O226 2.403 . S
Dy220 O227 2.664 . S
Dy220 O231 2.326 . S
Dy220 O235 2.310 . S
Dy220 O236 2.351 . S
C221 O232 1.185 . S
C221 O233 1.355 . S
C222 O224 1.185 . S
C222 O225 1.355 . S
Dy223 O227 2.310 . S
Dy223 O230 2.351 . S
Dy223 O232 2.398 . S
Dy223 O233 2.491 . S
Dy223 O234 2.403 . S
Dy223 O235 2.664 . S
Dy223 O237 2.326 . S
O224 Dy220 2.398 1_554 S
O224 C222 1.185 . S
O225 Dy220 2.491 1_554 S
O225 C222 1.355 . S
O226 Dy220 2.403 . S
O226 C228 1.254 . S
O227 Dy220 2.664 . S
O227 Dy223 2.310 . S
O227 C228 1.268 . S
C228 O226 1.254 . S
C228 O227 1.268 . S
C229 O234 1.254 . S
C229 O235 1.268 . S
O230 Dy223 2.351 . S
O230 C238 1.249 . S
O231 Dy220 2.326 . S
O231 C238 1.267 . S
O232 C221 1.185 . S
O232 Dy223 2.398 . S
O233 C221 1.355 . S
O233 Dy223 2.491 . S
O234 Dy223 2.403 . S
O234 C229 1.254 . S
O235 Dy220 2.310 . S
O235 Dy223 2.664 . S
O235 C229 1.268 . S
O236 Dy220 2.351 . S
O236 C239 1.249 . S
O237 Dy223 2.326 . S
O237 C239 1.267 . S
C238 O230 1.249 . S
C238 O231 1.267 . S
C239 O236 1.249 . S
C239 O237 1.267 . S
Dy240 O244 2.398 . S
Dy240 O245 2.491 . S
Dy240 O246 2.403 . S
Dy240 O247 2.664 . S
Dy240 O251 2.326 . S
Dy240 O255 2.310 . S
Dy240 O256 2.351 . S
C241 O252 1.185 . S
C241 O253 1.355 . S
C242 O244 1.185 . S
C242 O245 1.355 . S
Dy243 O247 2.310 . S
Dy243 O250 2.351 . S
Dy243 O252 2.398 1_554 S
Dy243 O253 2.491 1_554 S
Dy243 O254 2.403 . S
Dy243 O255 2.664 . S
Dy243 O257 2.326 . S
O244 Dy240 2.398 . S
O244 C242 1.185 . S
O245 Dy240 2.491 . S
O245 C242 1.355 . S
O246 Dy240 2.403 . S
O246 C248 1.254 . S
O247 Dy240 2.664 . S
O247 Dy243 2.310 . S
O247 C248 1.268 . S
C248 O246 1.254 . S
C248 O247 1.268 . S
C249 O254 1.254 . S
C249 O255 1.268 . S
O250 Dy243 2.351 . S
O250 C258 1.249 . S
O251 Dy240 2.326 . S
O251 C258 1.267 . S
O252 C241 1.185 . S
O252 Dy243 2.398 1_556 S
O253 C241 1.355 . S
O253 Dy243 2.491 1_556 S
O254 Dy243 2.403 . S
O254 C249 1.254 . S
O255 Dy240 2.310 . S
O255 Dy243 2.664 . S
O255 C249 1.268 . S
O256 Dy240 2.351 . S
O256 C259 1.249 . S
O257 Dy243 2.326 . S
O257 C259 1.267 . S
C258 O250 1.249 . S
C258 O251 1.267 . S
C259 O256 1.249 . S
C259 O257 1.267 . S
Dy260 O264 2.398 1_554 S
Dy260 O265 2.491 1_554 S
Dy260 O266 2.403 . S
Dy260 O267 2.664 . S
Dy260 O271 2.326 . S
Dy260 O275 2.310 . S
Dy260 O276 2.351 . S
C261 O272 1.185 . S
C261 O273 1.355 . S
C262 O264 1.185 . S
C262 O265 1.355 . S
Dy263 O267 2.310 . S
Dy263 O270 2.351 . S
Dy263 O272 2.398 . S
Dy263 O273 2.491 . S
Dy263 O274 2.403 . S
Dy263 O275 2.664 . S
Dy263 O277 2.326 . S
O264 Dy260 2.398 1_556 S
O264 C262 1.185 . S
O265 Dy260 2.491 1_556 S
O265 C262 1.355 . S
O266 Dy260 2.403 . S
O266 C268 1.254 . S
O267 Dy260 2.664 . S
O267 Dy263 2.310 . S
O267 C268 1.268 . S
C268 O266 1.254 . S
C268 O267 1.268 . S
C269 O274 1.254 . S
C269 O275 1.268 . S
O270 Dy263 2.351 . S
O270 C278 1.249 . S
O271 Dy260 2.326 . S
O271 C278 1.267 . S
O272 C261 1.185 . S
O272 Dy263 2.398 . S
O273 C261 1.355 . S
O273 Dy263 2.491 . S
O274 Dy263 2.403 . S
O274 C269 1.254 . S
O275 Dy260 2.310 . S
O275 Dy263 2.664 . S
O275 C269 1.268 . S
O276 Dy260 2.351 . S
O276 C279 1.249 . S
O277 Dy263 2.326 . S
O277 C279 1.267 . S
C278 O270 1.249 . S
C278 O271 1.267 . S
C279 O276 1.249 . S
C279 O277 1.267 . S
Dy280 O284 2.398 . S
Dy280 O285 2.491 . S
Dy280 O286 2.403 . S
Dy280 O287 2.664 . S
Dy280 O291 2.326 . S
Dy280 O295 2.310 . S
Dy280 O296 2.351 . S
C281 O292 1.185 . S
C281 O293 1.355 . S
C282 O284 1.185 . S
C282 O285 1.355 . S
Dy283 O287 2.310 . S
Dy283 O290 2.351 . S
Dy283 O292 2.398 1_554 S
Dy283 O293 2.491 1_554 S
Dy283 O294 2.403 . S
Dy283 O295 2.664 . S
Dy283 O297 2.326 . S
O284 Dy280 2.398 . S
O284 C282 1.185 . S
O285 Dy280 2.491 . S
O285 C282 1.355 . S
O286 Dy280 2.403 . S
O286 C288 1.254 . S
O287 Dy280 2.664 . S
O287 Dy283 2.310 . S
O287 C288 1.268 . S
C288 O286 1.254 . S
C288 O287 1.268 . S
C289 O294 1.254 . S
C289 O295 1.268 . S
O290 Dy283 2.351 . S
O290 C298 1.249 . S
O291 Dy280 2.326 . S
O291 C298 1.267 . S
O292 C281 1.185 . S
O292 Dy283 2.398 1_556 S
O293 C281 1.355 . S
O293 Dy283 2.491 1_556 S
O294 Dy283 2.403 . S
O294 C289 1.254 . S
O295 Dy280 2.310 . S
O295 Dy283 2.664 . S
O295 C289 1.268 . S
O296 Dy280 2.351 . S
O296 C299 1.249 . S
O297 Dy283 2.326 . S
O297 C299 1.267 . S
C298 O290 1.249 . S
C298 O291 1.267 . S
C299 O296 1.249 . S
C299 O297 1.267 . S
Dy300 O304 2.398 . S
Dy300 O305 2.491 . S
Dy300 O306 2.403 . S
Dy300 O307 2.664 . S
Dy300 O311 2.326 . S
Dy300 O315 2.310 . S
Dy300 O316 2.351 . S
C301 O312 1.185 . S
C301 O313 1.355 . S
C302 O304 1.185 . S
C302 O305 1.355 . S
Dy303 O307 2.310 . S
Dy303 O310 2.351 . S
Dy303 O312 2.398 1_554 S
Dy303 O313 2.491 1_554 S
Dy303 O314 2.403 . S
Dy303 O315 2.664 . S
Dy303 O317 2.326 . S
O304 Dy300 2.398 . S
O304 C302 1.185 . S
O305 Dy300 2.491 . S
O305 C302 1.355 . S
O306 Dy300 2.403 . S
O306 C308 1.254 . S
O307 Dy300 2.664 . S
O307 Dy303 2.310 . S
O307 C308 1.268 . S
C308 O306 1.254 . S
C308 O307 1.268 . S
C309 O314 1.254 . S
C309 O315 1.268 . S
O310 Dy303 2.351 . S
O310 C318 1.249 . S
O311 Dy300 2.326 . S
O311 C318 1.267 . S
O312 C301 1.185 . S
O312 Dy303 2.398 1_556 S
O313 C301 1.355 . S
O313 Dy303 2.491 1_556 S
O314 Dy303 2.403 . S
O314 C309 1.254 . S
O315 Dy300 2.310 . S
O315 Dy303 2.664 . S
O315 C309 1.268 . S
O316 Dy300 2.351 . S
O316 C319 1.249 . S
O317 Dy303 2.326 . S
O317 C319 1.267 . S
C318 O310 1.249 . S
C318 O311 1.267 . S
C319 O316 1.249 . S
C319 O317 1.267 . S
Dy320 O324 2.398 1_554 S
Dy320 O325 2.491 1_554 S
Dy320 O326 2.403 . S
Dy320 O327 2.664 . S
Dy320 O331 2.326 . S
Dy320 O335 2.310 . S
Dy320 O336 2.351 . S
C321 O332 1.185 . S
C321 O333 1.355 . S
C322 O324 1.185 . S
C322 O325 1.355 . S
Dy323 O327 2.310 . S
Dy323 O330 2.351 . S
Dy323 O332 2.398 . S
Dy323 O333 2.491 . S
Dy323 O334 2.403 . S
Dy323 O335 2.664 . S
Dy323 O337 2.326 . S
O324 Dy320 2.398 1_556 S
O324 C322 1.185 . S
O325 Dy320 2.491 1_556 S
O325 C322 1.355 . S
O326 Dy320 2.403 . S
O326 C328 1.254 . S
O327 Dy320 2.664 . S
O327 Dy323 2.310 . S
O327 C328 1.268 . S
C328 O326 1.254 . S
C328 O327 1.268 . S
C329 O334 1.254 . S
C329 O335 1.268 . S
O330 Dy323 2.351 . S
O330 C338 1.249 . S
O331 Dy320 2.326 . S
O331 C338 1.267 . S
O332 C321 1.185 . S
O332 Dy323 2.398 . S
O333 C321 1.355 . S
O333 Dy323 2.491 . S
O334 Dy323 2.403 . S
O334 C329 1.254 . S
O335 Dy320 2.310 . S
O335 Dy323 2.664 . S
O335 C329 1.268 . S
O336 Dy320 2.351 . S
O336 C339 1.249 . S
O337 Dy323 2.326 . S
O337 C339 1.267 . S
C338 O330 1.249 . S
C338 O331 1.267 . S
C339 O336 1.249 . S
C339 O337 1.267 . S
Dy340 O344 2.398 . S
Dy340 O345 2.491 . S
Dy340 O346 2.403 . S
Dy340 O347 2.664 . S
Dy340 O351 2.326 . S
Dy340 O355 2.310 . S
Dy340 O356 2.351 . S
C341 O352 1.185 . S
C341 O353 1.355 . S
C342 O344 1.185 . S
C342 O345 1.355 . S
Dy343 O347 2.310 . S
Dy343 O350 2.351 . S
Dy343 O352 2.398 1_554 S
Dy343 O353 2.491 1_554 S
Dy343 O354 2.403 . S
Dy343 O355 2.664 . S
Dy343 O357 2.326 . S
O344 Dy340 2.398 . S
O344 C342 1.185 . S
O345 Dy340 2.491 . S
O345 C342 1.355 . S
O346 Dy340 2.403 . S
O346 C348 1.254 . S
O347 Dy340 2.664 . S
O347 Dy343 2.310 . S
O347 C348 1.268 . S
C348 O346 1.254 . S
C348 O347 1.268 . S
C349 O354 1.254 . S
C349 O355 1.268 . S
O350 Dy343 2.351 . S
O350 C358 1.249 . S
O351 Dy340 2.326 . S
O351 C358 1.267 . S
O352 C341 1.185 . S
O352 Dy343 2.398 1_556 S
O353 C341 1.355 . S
O353 Dy343 2.491 1_556 S
O354 Dy343 2.403 . S
O354 C349 1.254 . S
O355 Dy340 2.310 . S
O355 Dy343 2.664 . S
O355 C349 1.268 . S
O356 Dy340 2.351 . S
O356 C359 1.249 . S
O357 Dy343 2.326 . S
O357 C359 1.267 . S
C358 O350 1.249 . S
C358 O351 1.267 . S
C359 O356 1.249 . S
C359 O357 1.267 . S
C360 C361 1.369 . S
C360 C362 1.419 . S
C360 H364 0.930 . S
C361 C360 1.369 . S
C361 C370 1.429 . S
C362 C360 1.419 . S
C362 C363 1.363 . S
C362 H365 0.929 . S
C363 C362 1.363 . S
C363 C369 1.428 . S
H364 C360 0.930 . S
H365 C362 0.929 . S
S366 N367 1.613 . S
S366 N368 1.610 . S
N367 S366 1.613 . S
N367 C370 1.350 . S
N368 S366 1.610 . S
N368 C369 1.351 . S
C369 C363 1.428 . S
C369 N368 1.351 . S
C369 C370 1.434 . S
C370 C361 1.429 . S
C370 N367 1.350 . S
C370 C369 1.434 . S
C371 C372 1.369 . S
C371 C373 1.419 . S
C371 H375 0.930 . S
C372 C371 1.369 . S
C372 C381 1.429 . S
C373 C371 1.419 . S
C373 C374 1.363 . S
C373 H376 0.929 . S
C374 C373 1.363 . S
C374 C380 1.428 . S
H375 C371 0.930 . S
H376 C373 0.929 . S
S377 N378 1.613 . S
S377 N379 1.610 . S
N378 S377 1.613 . S
N378 C381 1.350 . S
N379 S377 1.610 . S
N379 C380 1.351 . S
C380 C374 1.428 . S
C380 N379 1.351 . S
C380 C381 1.434 . S
C381 C372 1.429 . S
C381 N378 1.350 . S
C381 C380 1.434 . S
C382 C383 1.369 . S
C382 C384 1.419 . S
C382 H386 0.930 . S
C383 C382 1.369 . S
C383 C392 1.429 . S
C384 C382 1.419 . S
C384 C385 1.363 . S
C384 H387 0.929 . S
C385 C384 1.363 . S
C385 C391 1.428 . S
H386 C382 0.930 . S
H387 C384 0.929 . S
S388 N389 1.613 . S
S388 N390 1.610 . S
N389 S388 1.613 . S
N389 C392 1.350 . S
N390 S388 1.610 . S
N390 C391 1.351 . S
C391 C385 1.428 . S
C391 N390 1.351 . S
C391 C392 1.434 . S
C392 C383 1.429 . S
C392 N389 1.350 . S
C392 C391 1.434 . S
C393 C394 1.369 . S
C393 C395 1.419 . S
C393 H397 0.930 . S
C394 C393 1.369 . S
C394 C403 1.429 . S
C395 C393 1.419 . S
C395 C396 1.363 . S
C395 H398 0.929 . S
C396 C395 1.363 . S
C396 C402 1.428 . S
H397 C393 0.930 . S
H398 C395 0.929 . S
S399 N400 1.613 . S
S399 N401 1.610 . S
N400 S399 1.613 . S
N400 C403 1.350 . S
N401 S399 1.610 . S
N401 C402 1.351 . S
C402 C396 1.428 . S
C402 N401 1.351 . S
C402 C403 1.434 . S
C403 C394 1.429 . S
C403 N400 1.350 . S
C403 C402 1.434 . S
C404 C405 1.369 . S
C404 C406 1.419 . S
C404 H408 0.930 . S
C405 C404 1.369 . S
C405 C414 1.429 . S
C406 C404 1.419 . S
C406 C407 1.363 . S
C406 H409 0.929 . S
C407 C406 1.363 . S
C407 C413 1.428 . S
H408 C404 0.930 . S
H409 C406 0.929 . S
S410 N411 1.613 1_455 S
S410 N412 1.610 1_455 S
N411 S410 1.613 1_655 S
N411 C414 1.350 . S
N412 S410 1.610 1_655 S
N412 C413 1.351 . S
C413 C407 1.428 . S
C413 N412 1.351 . S
C413 C414 1.434 . S
C414 C405 1.429 . S
C414 N411 1.350 . S
C414 C413 1.434 . S
C415 C416 1.369 . S
C415 C417 1.419 . S
C415 H419 0.930 . S
C416 C415 1.369 . S
C416 C425 1.429 . S
C417 C415 1.419 . S
C417 C418 1.363 . S
C417 H420 0.929 . S
C418 C417 1.363 . S
C418 C424 1.428 . S
H419 C415 0.930 . S
H420 C417 0.929 . S
S421 N422 1.613 . S
S421 N423 1.610 . S
N422 S421 1.613 . S
N422 C425 1.350 . S
N423 S421 1.610 . S
N423 C424 1.351 . S
C424 C418 1.428 . S
C424 N423 1.351 . S
C424 C425 1.434 . S
C425 C416 1.429 . S
C425 N422 1.350 . S
C425 C424 1.434 . S
C426 C427 1.369 . S
C426 C428 1.419 . S
C426 H430 0.930 . S
C427 C426 1.369 . S
C427 C436 1.429 . S
C428 C426 1.419 . S
C428 C429 1.363 . S
C428 H431 0.929 . S
C429 C428 1.363 . S
C429 C435 1.428 . S
H430 C426 0.930 . S
H431 C428 0.929 . S
S432 N433 1.613 . S
S432 N434 1.610 . S
N433 S432 1.613 . S
N433 C436 1.350 . S
N434 S432 1.610 . S
N434 C435 1.351 . S
C435 C429 1.428 . S
C435 N434 1.351 . S
C435 C436 1.434 . S
C436 C427 1.429 . S
C436 N433 1.350 . S
C436 C435 1.434 . S
C437 C438 1.369 . S
C437 C439 1.419 . S
C437 H441 0.930 . S
C438 C437 1.369 . S
C438 C447 1.429 . S
C439 C437 1.419 . S
C439 C440 1.363 . S
C439 H442 0.929 . S
C440 C439 1.363 . S
C440 C446 1.428 . S
H441 C437 0.930 . S
H442 C439 0.929 . S
S443 N444 1.613 . S
S443 N445 1.610 . S
N444 S443 1.613 . S
N444 C447 1.350 . S
N445 S443 1.610 . S
N445 C446 1.351 . S
C446 C440 1.428 . S
C446 N445 1.351 . S
C446 C447 1.434 . S
C447 C438 1.429 . S
C447 N444 1.350 . S
C447 C446 1.434 . S
C448 C449 1.369 . S
C448 C450 1.419 . S
C448 H452 0.930 . S
C449 C448 1.369 . S
C449 C458 1.429 . S
C450 C448 1.419 . S
C450 C451 1.363 . S
C450 H453 0.929 . S
C451 C450 1.363 . S
C451 C457 1.428 . S
H452 C448 0.930 . S
H453 C450 0.929 . S
S454 N455 1.613 . S
S454 N456 1.610 . S
N455 S454 1.613 . S
N455 C458 1.350 . S
N456 S454 1.610 . S
N456 C457 1.351 . S
C457 C451 1.428 . S
C457 N456 1.351 . S
C457 C458 1.434 . S
C458 C449 1.429 . S
C458 N455 1.350 . S
C458 C457 1.434 . S
C459 C460 1.369 . S
C459 C461 1.419 . S
C459 H463 0.930 . S
C460 C459 1.369 . S
C460 C469 1.429 . S
C461 C459 1.419 . S
C461 C462 1.363 . S
C461 H464 0.929 . S
C462 C461 1.363 . S
C462 C468 1.428 . S
H463 C459 0.930 . S
H464 C461 0.929 . S
S465 N466 1.613 . S
S465 N467 1.610 . S
N466 S465 1.613 . S
N466 C469 1.350 . S
N467 S465 1.610 . S
N467 C468 1.351 . S
C468 C462 1.428 . S
C468 N467 1.351 . S
C468 C469 1.434 . S
C469 C460 1.429 . S
C469 N466 1.350 . S
C469 C468 1.434 . S
C470 C471 1.369 . S
C470 C472 1.419 . S
C470 H474 0.930 . S
C471 C470 1.369 . S
C471 C480 1.429 . S
C472 C470 1.419 . S
C472 C473 1.363 . S
C472 H475 0.929 . S
C473 C472 1.363 . S
C473 C479 1.428 . S
H474 C470 0.930 . S
H475 C472 0.929 . S
S476 N477 1.613 . S
S476 N478 1.610 . S
N477 S476 1.613 . S
N477 C480 1.350 . S
N478 S476 1.610 . S
N478 C479 1.351 . S
C479 C473 1.428 . S
C479 N478 1.351 . S
C479 C480 1.434 . S
C480 C471 1.429 . S
C480 N477 1.350 . S
C480 C479 1.434 . S
C481 C482 1.369 . S
C481 C483 1.419 . S
C481 H485 0.930 . S
C482 C481 1.369 . S
C482 C491 1.429 . S
C483 C481 1.419 . S
C483 C484 1.363 . S
C483 H486 0.929 . S
C484 C483 1.363 . S
C484 C490 1.428 . S
H485 C481 0.930 . S
H486 C483 0.929 . S
S487 N488 1.613 . S
S487 N489 1.610 . S
N488 S487 1.613 . S
N488 C491 1.350 . S
N489 S487 1.610 . S
N489 C490 1.351 . S
C490 C484 1.428 . S
C490 N489 1.351 . S
C490 C491 1.434 . S
C491 C482 1.429 . S
C491 N488 1.350 . S
C491 C490 1.434 . S
C492 C493 1.369 1_455 S
C492 C494 1.419 1_556 S
C492 H496 0.930 . S
C493 C492 1.369 1_655 S
C493 C502 1.429 . S
C494 C492 1.419 1_554 S
C494 C495 1.363 . S
C494 H497 0.929 . S
C495 C494 1.363 . S
C495 C501 1.428 . S
H496 C492 0.930 . S
H497 C494 0.929 . S
S498 N499 1.613 1_554 S
S498 N500 1.610 1_655 S
N499 S498 1.613 1_556 S
N499 C502 1.350 . S
N500 S498 1.610 1_455 S
N500 C501 1.351 . S
C501 C495 1.428 . S
C501 N500 1.351 . S
C501 C502 1.434 1_454 S
C502 C493 1.429 . S
C502 N499 1.350 . S
C502 C501 1.434 1_656 S
C503 C504 1.369 . S
C503 C505 1.419 . S
C503 H507 0.930 . S
C504 C503 1.369 . S
C504 C513 1.429 . S
C505 C503 1.419 . S
C505 C506 1.363 1_556 S
C505 H508 0.929 . S
C506 C505 1.363 1_554 S
C506 C512 1.428 . S
H507 C503 0.930 . S
H508 C505 0.929 . S
S509 N510 1.613 1_554 S
S509 N511 1.610 . S
N510 S509 1.613 1_556 S
N510 C513 1.350 . S
N511 S509 1.610 . S
N511 C512 1.351 . S
C512 C506 1.428 . S
C512 N511 1.351 . S
C512 C513 1.434 1_554 S
C513 C504 1.429 . S
C513 N510 1.350 . S
C513 C512 1.434 1_556 S
C514 C515 1.369 . S
C514 C516 1.419 1_556 S
C514 H518 0.930 1_556 S
C515 C514 1.369 . S
C515 C524 1.425 1_545 S
C516 C514 1.419 1_554 S
C516 C517 1.363 1_545 S
C516 H519 0.929 . S
C517 C516 1.363 1_565 S
C517 C523 1.428 1_554 S
H518 C514 0.930 1_554 S
H519 C516 0.929 . S
S520 N521 1.613 . S
S520 N522 1.610 . S
N521 S520 1.613 . S
N521 C524 1.351 . S
N522 S520 1.610 . S
N522 C523 1.351 . S
C523 C517 1.428 1_556 S
C523 N522 1.351 . S
C523 C524 1.437 . S
C524 C515 1.425 1_565 S
C524 N521 1.351 . S
C524 C523 1.437 . S
C525 C526 1.369 . S
C525 C527 1.419 1_545 S
C525 H529 0.930 1_545 S
C526 C525 1.369 . S
C526 C535 1.429 1_556 S
C527 C525 1.419 1_565 S
C527 C528 1.363 1_556 S
C527 H530 0.929 . S
C528 C527 1.363 1_554 S
C528 C534 1.428 1_565 S
H529 C525 0.930 1_565 S
H530 C527 0.929 . S
S531 N532 1.613 . S
S531 N533 1.610 . S
N532 S531 1.613 . S
N532 C535 1.350 . S
N533 S531 1.610 . S
N533 C534 1.351 . S
C534 C528 1.428 1_545 S
C534 N533 1.351 . S
C534 C535 1.434 . S
C535 C526 1.429 1_554 S
C535 N532 1.350 . S
C535 C534 1.434 . S
C536 C537 1.369 . S
C536 C538 1.419 1_455 S
C536 H540 0.930 . S
C537 C536 1.369 . S
C537 C546 1.429 . S
C538 C536 1.419 1_655 S
C538 C539 1.363 1_554 S
C538 H541 0.929 . S
C539 C538 1.363 1_556 S
C539 C545 1.428 1_655 S
H540 C536 0.930 . S
H541 C538 0.929 . S
S542 N543 1.613 1_556 S
S542 N544 1.610 . S
N543 S542 1.613 1_554 S
N543 C546 1.350 . S
N544 S542 1.610 . S
N544 C545 1.351 . S
C545 C539 1.428 1_455 S
C545 N544 1.351 . S
C545 C546 1.434 1_556 S
C546 C537 1.429 . S
C546 N543 1.350 . S
C546 C545 1.434 1_554 S
C547 C548 1.369 . S
C547 C549 1.419 1_554 S
C547 H551 0.930 . S
C548 C547 1.369 . S
C548 C557 1.429 . S
C549 C547 1.419 1_556 S
C549 C550 1.363 . S
C549 H552 0.929 . S
C550 C549 1.363 . S
C550 C556 1.428 . S
H551 C547 0.930 . S
H552 C549 0.929 . S
S553 N554 1.613 . S
S553 N555 1.610 1_554 S
N554 S553 1.613 . S
N554 C557 1.350 . S
N555 S553 1.610 1_556 S
N555 C556 1.351 . S
C556 C550 1.428 . S
C556 N555 1.351 . S
C556 C557 1.434 1_556 S
C557 C548 1.429 . S
C557 N554 1.350 . S
C557 C556 1.434 1_554 S
C558 C559 1.369 . S
C558 C560 1.419 . S
C558 H562 0.930 . S
C559 C558 1.369 . S
C559 C568 1.429 . S
C560 C558 1.419 . S
C560 C561 1.363 . S
C560 H563 0.929 . S
C561 C560 1.363 . S
C561 C567 1.428 . S
H562 C558 0.930 . S
H563 C560 0.929 . S
S564 N565 1.613 . S
S564 N566 1.610 . S
N565 S564 1.613 . S
N565 C568 1.350 . S
N566 S564 1.610 . S
N566 C567 1.351 . S
C567 C561 1.428 . S
C567 N566 1.351 . S
C567 C568 1.434 . S
C568 C559 1.429 . S
C568 N565 1.350 . S
C568 C567 1.434 . S
C569 C570 1.369 . S
C569 C571 1.419 . S
C569 H573 0.930 . S
C570 C569 1.369 . S
C570 C579 1.429 . S
C571 C569 1.419 . S
C571 C572 1.363 . S
C571 H574 0.929 . S
C572 C571 1.363 . S
C572 C578 1.428 . S
H573 C569 0.930 . S
H574 C571 0.929 . S
S575 N576 1.613 . S
S575 N577 1.610 . S
N576 S575 1.613 . S
N576 C579 1.350 . S
N577 S575 1.610 . S
N577 C578 1.351 . S
C578 C572 1.428 . S
C578 N577 1.351 . S
C578 C579 1.434 . S
C579 C570 1.429 . S
C579 N576 1.350 . S
C579 C578 1.434 . S
C580 C581 1.369 . S
C580 C582 1.419 . S
C580 H584 0.930 . S
C581 C580 1.369 . S
C581 C590 1.429 . S
C582 C580 1.419 . S
C582 C583 1.363 . S
C582 H585 0.929 . S
C583 C582 1.363 . S
C583 C589 1.428 . S
H584 C580 0.930 . S
H585 C582 0.929 . S
S586 N587 1.613 . S
S586 N588 1.610 . S
N587 S586 1.613 . S
N587 C590 1.350 . S
N588 S586 1.610 . S
N588 C589 1.351 . S
C589 C583 1.428 . S
C589 N588 1.351 . S
C589 C590 1.434 . S
C590 C581 1.429 . S
C590 N587 1.350 . S
C590 C589 1.434 . S
C591 C592 1.369 . S
C591 C593 1.419 . S
C591 H595 0.930 . S
C592 C591 1.369 . S
C592 C601 1.429 . S
C593 C591 1.419 . S
C593 C594 1.363 . S
C593 H596 0.929 . S
C594 C593 1.363 . S
C594 C600 1.428 . S
H595 C591 0.930 . S
H596 C593 0.929 . S
S597 N598 1.613 . S
S597 N599 1.610 . S
N598 S597 1.613 . S
N598 C601 1.350 . S
N599 S597 1.610 . S
N599 C600 1.351 . S
C600 C594 1.428 . S
C600 N599 1.351 . S
C600 C601 1.434 . S
C601 C592 1.429 . S
C601 N598 1.350 . S
C601 C600 1.434 . S
C602 C603 1.369 . S
C602 C604 1.419 . S
C602 H606 0.930 . S
C603 C602 1.369 . S
C603 C612 1.429 . S
C604 C602 1.419 . S
C604 C605 1.363 . S
C604 H607 0.929 . S
C605 C604 1.363 . S
C605 C611 1.428 . S
H606 C602 0.930 . S
H607 C604 0.929 . S
S608 N609 1.613 . S
S608 N610 1.610 . S
N609 S608 1.613 . S
N609 C612 1.350 . S
N610 S608 1.610 . S
N610 C611 1.351 . S
C611 C605 1.428 . S
C611 N610 1.351 . S
C611 C612 1.434 . S
C612 C603 1.429 . S
C612 N609 1.350 . S
C612 C611 1.434 . S
C613 C614 1.369 . S
C613 C615 1.419 . S
C613 H617 0.930 . S
C614 C613 1.369 . S
C614 C623 1.429 . S
C615 C613 1.419 . S
C615 C616 1.363 . S
C615 H618 0.929 . S
C616 C615 1.363 . S
C616 C622 1.428 . S
H617 C613 0.930 . S
H618 C615 0.929 . S
S619 N620 1.613 . S
S619 N621 1.610 . S
N620 S619 1.613 . S
N620 C623 1.350 . S
N621 S619 1.610 . S
N621 C622 1.351 . S
C622 C616 1.428 . S
C622 N621 1.351 . S
C622 C623 1.434 . S
C623 C614 1.429 . S
C623 N620 1.350 . S
C623 C622 1.434 . S
C624 C625 1.369 . S
C624 C626 1.419 . S
C624 H628 0.930 . S
C625 C624 1.369 . S
C625 C634 1.429 . S
C626 C624 1.419 . S
C626 C627 1.363 . S
C626 H629 0.929 . S
C627 C626 1.363 . S
C627 C633 1.428 . S
H628 C624 0.930 . S
H629 C626 0.929 . S
S630 N631 1.613 . S
S630 N632 1.610 . S
N631 S630 1.613 . S
N631 C634 1.350 . S
N632 S630 1.610 . S
N632 C633 1.351 . S
C633 C627 1.428 . S
C633 N632 1.351 . S
C633 C634 1.434 . S
C634 C625 1.429 . S
C634 N631 1.350 . S
C634 C633 1.434 . S
C635 C636 1.369 . S
C635 C637 1.419 . S
C635 H639 0.930 . S
C636 C635 1.369 . S
C636 C645 1.429 . S
C637 C635 1.419 . S
C637 C638 1.363 . S
C637 H640 0.929 . S
C638 C637 1.363 . S
C638 C644 1.428 . S
H639 C635 0.930 . S
H640 C637 0.929 . S
S641 N642 1.613 . S
S641 N643 1.610 . S
N642 S641 1.613 . S
N642 C645 1.350 . S
N643 S641 1.610 . S
N643 C644 1.351 . S
C644 C638 1.428 . S
C644 N643 1.351 . S
C644 C645 1.434 . S
C645 C636 1.429 . S
C645 N642 1.350 . S
C645 C644 1.434 . S
C646 C647 1.369 . S
C646 C648 1.419 . S
C646 H650 0.930 . S
C647 C646 1.369 . S
C647 C656 1.429 . S
C648 C646 1.419 . S
C648 C649 1.363 . S
C648 H651 0.929 . S
C649 C648 1.363 . S
C649 C655 1.428 . S
H650 C646 0.930 . S
H651 C648 0.929 . S
S652 N653 1.613 . S
S652 N654 1.610 . S
N653 S652 1.613 . S
N653 C656 1.350 . S
N654 S652 1.610 . S
N654 C655 1.351 . S
C655 C649 1.428 . S
C655 N654 1.351 . S
C655 C656 1.434 . S
C656 C647 1.429 . S
C656 N653 1.350 . S
C656 C655 1.434 . S
C657 C658 1.369 . S
C657 C659 1.419 . S
C657 H661 0.930 . S
C658 C657 1.369 . S
C658 C667 1.429 . S
C659 C657 1.419 . S
C659 C660 1.363 . S
C659 H662 0.929 . S
C660 C659 1.363 . S
C660 C666 1.428 . S
H661 C657 0.930 . S
H662 C659 0.929 . S
S663 N664 1.613 . S
S663 N665 1.610 . S
N664 S663 1.613 . S
N664 C667 1.350 . S
N665 S663 1.610 . S
N665 C666 1.351 . S
C666 C660 1.428 . S
C666 N665 1.351 . S
C666 C667 1.434 . S
C667 C658 1.429 . S
C667 N664 1.350 . S
C667 C666 1.434 . S
C668 C669 1.369 . S
C668 C670 1.419 . S
C668 H672 0.930 . S
C669 C668 1.369 . S
C669 C678 1.429 . S
C670 C668 1.419 . S
C670 C671 1.363 . S
C670 H673 0.929 . S
C671 C670 1.363 . S
C671 C677 1.428 . S
H672 C668 0.930 . S
H673 C670 0.929 . S
S674 N675 1.613 1_554 S
S674 N676 1.610 1_554 S
N675 S674 1.613 1_556 S
N675 C678 1.350 . S
N676 S674 1.610 1_556 S
N676 C677 1.351 . S
C677 C671 1.428 . S
C677 N676 1.351 . S
C677 C678 1.434 . S
C678 C669 1.429 . S
C678 N675 1.350 . S
C678 C677 1.434 . S
C679 C680 1.369 . S
C679 C681 1.419 . S
C679 H683 0.930 . S
C680 C679 1.369 . S
C680 C689 1.429 . S
C681 C679 1.419 . S
C681 C682 1.363 . S
C681 H684 0.929 . S
C682 C681 1.363 . S
C682 C688 1.428 . S
H683 C679 0.930 . S
H684 C681 0.929 . S
S685 N686 1.613 . S
S685 N687 1.610 . S
N686 S685 1.613 . S
N686 C689 1.350 . S
N687 S685 1.610 . S
N687 C688 1.351 . S
C688 C682 1.428 . S
C688 N687 1.351 . S
C688 C689 1.434 . S
C689 C680 1.429 . S
C689 N686 1.350 . S
C689 C688 1.434 . S
C690 C691 1.369 . S
C690 C692 1.419 . S
C690 H694 0.930 . S
C691 C690 1.369 . S
C691 C700 1.429 . S
C692 C690 1.419 . S
C692 C693 1.363 . S
C692 H695 0.929 . S
C693 C692 1.363 . S
C693 C699 1.428 . S
H694 C690 0.930 . S
H695 C692 0.929 . S
S696 N697 1.613 1_556 S
S696 N698 1.610 . S
N697 S696 1.613 1_554 S
N697 C700 1.350 . S
N698 S696 1.610 . S
N698 C699 1.351 1_556 S
C699 C693 1.428 . S
C699 N698 1.351 1_554 S
C699 C700 1.434 . S
C700 C691 1.429 . S
C700 N697 1.350 . S
C700 C699 1.434 . S
C701 C702 1.369 . S
C701 C703 1.419 . S
C701 H705 0.930 . S
C702 C701 1.369 . S
C702 C711 1.429 . S
C703 C701 1.419 . S
C703 C704 1.363 . S
C703 H706 0.929 1_554 S
C704 C703 1.363 . S
C704 C710 1.428 . S
H705 C701 0.930 . S
H706 C703 0.929 1_556 S
S707 N708 1.613 . S
S707 N709 1.610 . S
N708 S707 1.613 . S
N708 C711 1.350 . S
N709 S707 1.610 . S
N709 C710 1.351 . S
C710 C704 1.428 . S
C710 N709 1.351 . S
C710 C711 1.434 . S
C711 C702 1.429 . S
C711 N708 1.350 . S
C711 C710 1.434 . S
C712 C713 1.369 . S
C712 C714 1.419 . S
C712 H716 0.930 . S
C713 C712 1.369 . S
C713 C722 1.429 . S
C714 C712 1.419 . S
C714 C715 1.363 . S
C714 H717 0.929 . S
C715 C714 1.363 . S
C715 C721 1.428 . S
H716 C712 0.930 . S
H717 C714 0.929 . S
S718 N719 1.613 . S
S718 N720 1.610 . S
N719 S718 1.613 . S
N719 C722 1.350 . S
N720 S718 1.610 . S
N720 C721 1.351 . S
C721 C715 1.428 . S
C721 N720 1.351 . S
C721 C722 1.434 . S
C722 C713 1.429 . S
C722 N719 1.350 . S
C722 C721 1.434 . S
C723 C724 1.369 . S
C723 C725 1.419 . S
C723 H727 0.930 . S
C724 C723 1.369 . S
C724 C733 1.429 . S
C725 C723 1.419 . S
C725 C726 1.363 . S
C725 H728 0.929 . S
C726 C725 1.363 . S
C726 C732 1.428 . S
H727 C723 0.930 . S
H728 C725 0.929 . S
S729 N730 1.613 . S
S729 N731 1.610 . S
N730 S729 1.613 . S
N730 C733 1.350 . S
N731 S729 1.610 . S
N731 C732 1.351 . S
C732 C726 1.428 . S
C732 N731 1.351 . S
C732 C733 1.434 . S
C733 C724 1.429 . S
C733 N730 1.350 . S
C733 C732 1.434 . S
C734 C735 1.369 . S
C734 C736 1.419 . S
C734 H738 0.930 . S
C735 C734 1.369 . S
C735 C744 1.429 . S
C736 C734 1.419 . S
C736 C737 1.363 . S
C736 H739 0.929 . S
C737 C736 1.363 . S
C737 C743 1.428 . S
H738 C734 0.930 . S
H739 C736 0.929 . S
S740 N741 1.613 . S
S740 N742 1.610 . S
N741 S740 1.613 . S
N741 C744 1.350 . S
N742 S740 1.610 . S
N742 C743 1.351 . S
C743 C737 1.428 . S
C743 N742 1.351 . S
C743 C744 1.434 . S
C744 C735 1.429 . S
C744 N741 1.350 . S
C744 C743 1.434 . S
C745 C746 1.369 . S
C745 C747 1.419 . S
C745 H749 0.930 . S
C746 C745 1.369 . S
C746 C755 1.429 . S
C747 C745 1.419 . S
C747 C748 1.363 . S
C747 H750 0.929 . S
C748 C747 1.363 . S
C748 C754 1.428 . S
H749 C745 0.930 . S
H750 C747 0.929 . S
S751 N752 1.613 . S
S751 N753 1.610 . S
N752 S751 1.613 . S
N752 C755 1.350 . S
N753 S751 1.610 . S
N753 C754 1.351 . S
C754 C748 1.428 . S
C754 N753 1.351 . S
C754 C755 1.434 . S
C755 C746 1.429 . S
C755 N752 1.350 . S
C755 C754 1.434 . S
C756 C757 1.369 . S
C756 C758 1.419 1_554 S
C756 H760 0.930 . S
C757 C756 1.369 . S
C757 C766 1.429 1_455 S
C758 C756 1.419 1_556 S
C758 C759 1.363 . S
C758 H761 0.929 . S
C759 C758 1.363 . S
C759 C765 1.428 1_455 S
H760 C756 0.930 . S
H761 C758 0.929 . S
S762 N763 1.613 . S
S762 N764 1.610 1_554 S
N763 S762 1.613 . S
N763 C766 1.350 . S
N764 S762 1.610 1_556 S
N764 C765 1.351 . S
C765 C759 1.428 1_655 S
C765 N764 1.351 . S
C765 C766 1.434 1_556 S
C766 C757 1.429 1_655 S
C766 N763 1.350 . S
C766 C765 1.434 1_554 S
C767 C768 1.369 . S
C767 C769 1.419 1_554 S
C767 H771 0.930 . S
C768 C767 1.369 . S
C768 C777 1.429 . S
C769 C767 1.419 1_556 S
C769 C770 1.363 . S
C769 H772 0.929 . S
C770 C769 1.363 . S
C770 C776 1.428 . S
H771 C767 0.930 . S
H772 C769 0.929 . S
S773 N774 1.613 . S
S773 N775 1.610 1_554 S
N774 S773 1.613 . S
N774 C777 1.350 . S
N775 S773 1.610 1_556 S
N775 C776 1.351 . S
C776 C770 1.428 . S
C776 N775 1.351 . S
C776 C777 1.434 1_556 S
C777 C768 1.429 . S
C777 N774 1.350 . S
C777 C776 1.434 1_554 S
C778 C779 1.369 1_565 S
C778 C780 1.419 1_554 S
C778 H782 0.930 . S
C779 C778 1.369 1_545 S
C779 C788 1.429 . S
C780 C778 1.419 1_556 S
C780 C781 1.363 1_565 S
C780 H783 0.929 . S
C781 C780 1.363 1_545 S
C781 C787 1.428 . S
H782 C778 0.930 . S
H783 C780 0.929 . S
S784 N785 1.613 . S
S784 N786 1.610 1_554 S
N785 S784 1.613 . S
N785 C788 1.350 . S
N786 S784 1.610 1_556 S
N786 C787 1.351 . S
C787 C781 1.428 . S
C787 N786 1.351 . S
C787 C788 1.434 1_556 S
C788 C779 1.429 . S
C788 N785 1.350 . S
C788 C787 1.434 1_554 S
C789 C790 1.369 . S
C789 C791 1.419 1_556 S
C789 H793 0.930 1_455 S
C790 C789 1.369 . S
C790 C799 1.429 1_556 S
C791 C789 1.419 1_554 S
C791 C792 1.363 . S
C791 H794 0.929 1_455 S
C792 C791 1.363 . S
C792 C798 1.428 . S
H793 C789 0.930 1_655 S
H794 C791 0.929 1_655 S
S795 N796 1.613 . S
S795 N797 1.610 . S
N796 S795 1.613 . S
N796 C799 1.350 . S
N797 S795 1.610 . S
N797 C798 1.351 . S
C798 C792 1.428 . S
C798 N797 1.351 . S
C798 C799 1.434 . S
C799 C790 1.429 1_554 S
C799 N796 1.350 . S
C799 C798 1.434 . S
C800 C801 1.369 . S
C800 C802 1.419 . S
C800 H804 0.930 . S
C801 C800 1.369 . S
C801 C810 1.429 . S
C802 C800 1.419 . S
C802 C803 1.363 1_554 S
C802 H805 0.929 1_554 S
C803 C802 1.363 1_556 S
C803 C809 1.428 1_556 S
H804 C800 0.930 . S
H805 C802 0.929 1_556 S
S806 N807 1.613 . S
S806 N808 1.610 1_554 S
N807 S806 1.613 . S
N807 C810 1.350 . S
N808 S806 1.610 1_556 S
N808 C809 1.351 1_556 S
C809 C803 1.428 1_554 S
C809 N808 1.351 1_554 S
C809 C810 1.434 . S
C810 C801 1.429 . S
C810 N807 1.350 . S
C810 C809 1.434 . S
C811 C812 1.369 . S
C811 C813 1.419 1_554 S
C811 H815 0.930 . S
C812 C811 1.369 . S
C812 C821 1.429 1_545 S
C813 C811 1.419 1_556 S
C813 C814 1.363 . S
C813 H816 0.929 . S
C814 C813 1.363 . S
C814 C820 1.428 1_545 S
H815 C811 0.930 . S
H816 C813 0.929 . S
S817 N818 1.613 1_556 S
S817 N819 1.610 . S
N818 S817 1.613 1_554 S
N818 C821 1.350 . S
N819 S817 1.610 . S
N819 C820 1.351 . S
C820 C814 1.428 1_565 S
C820 N819 1.351 . S
C820 C821 1.434 1_556 S
C821 C812 1.429 1_565 S
C821 N818 1.350 . S
C821 C820 1.434 1_554 S
C822 C823 1.369 . S
C822 C824 1.419 . S
C822 H826 0.930 . S
C823 C822 1.369 . S
C823 C832 1.429 . S
C824 C822 1.419 . S
C824 C825 1.363 . S
C824 H827 0.929 . S
C825 C824 1.363 . S
C825 C831 1.428 . S
H826 C822 0.930 . S
H827 C824 0.929 . S
S828 N829 1.613 . S
S828 N830 1.610 . S
N829 S828 1.613 . S
N829 C832 1.350 . S
N830 S828 1.610 . S
N830 C831 1.351 . S
C831 C825 1.428 . S
C831 N830 1.351 . S
C831 C832 1.434 . S
C832 C823 1.429 . S
C832 N829 1.350 . S
C832 C831 1.434 . S
C833 C834 1.369 . S
C833 C835 1.419 . S
C833 H837 0.930 . S
C834 C833 1.369 . S
C834 C843 1.429 . S
C835 C833 1.419 . S
C835 C836 1.363 . S
C835 H838 0.929 . S
C836 C835 1.363 . S
C836 C842 1.428 . S
H837 C833 0.930 . S
H838 C835 0.929 . S
S839 N840 1.613 . S
S839 N841 1.610 . S
N840 S839 1.613 . S
N840 C843 1.350 . S
N841 S839 1.610 . S
N841 C842 1.351 . S
C842 C836 1.428 . S
C842 N841 1.351 . S
C842 C843 1.434 . S
C843 C834 1.429 . S
C843 N840 1.350 . S
C843 C842 1.434 . S
C844 C845 1.369 . S
C844 C846 1.419 . S
C844 H848 0.930 . S
C845 C844 1.369 . S
C845 C854 1.429 . S
C846 C844 1.419 . S
C846 C847 1.363 . S
C846 H849 0.929 . S
C847 C846 1.363 . S
C847 C853 1.428 . S
H848 C844 0.930 . S
H849 C846 0.929 . S
S850 N851 1.613 . S
S850 N852 1.610 . S
N851 S850 1.613 . S
N851 C854 1.350 . S
N852 S850 1.610 . S
N852 C853 1.351 . S
C853 C847 1.428 . S
C853 N852 1.351 . S
C853 C854 1.434 . S
C854 C845 1.429 . S
C854 N851 1.350 . S
C854 C853 1.434 . S
C855 C856 1.369 . S
C855 C857 1.419 . S
C855 H859 0.930 . S
C856 C855 1.369 . S
C856 C865 1.429 . S
C857 C855 1.419 . S
C857 C858 1.363 . S
C857 H860 0.929 . S
C858 C857 1.363 . S
C858 C864 1.428 . S
H859 C855 0.930 . S
H860 C857 0.929 . S
S861 N862 1.613 . S
S861 N863 1.610 . S
N862 S861 1.613 . S
N862 C865 1.350 . S
N863 S861 1.610 . S
N863 C864 1.351 . S
C864 C858 1.428 . S
C864 N863 1.351 . S
C864 C865 1.434 . S
C865 C856 1.429 . S
C865 N862 1.350 . S
C865 C864 1.434 . S
C866 C867 1.369 . S
C866 C868 1.419 . S
C866 H870 0.930 . S
C867 C866 1.369 . S
C867 C876 1.429 . S
C868 C866 1.419 . S
C868 C869 1.363 . S
C868 H871 0.929 . S
C869 C868 1.363 . S
C869 C875 1.428 . S
H870 C866 0.930 . S
H871 C868 0.929 . S
S872 N873 1.613 . S
S872 N874 1.610 . S
N873 S872 1.613 . S
N873 C876 1.350 . S
N874 S872 1.610 . S
N874 C875 1.351 . S
C875 C869 1.428 . S
C875 N874 1.351 . S
C875 C876 1.434 . S
C876 C867 1.429 . S
C876 N873 1.350 . S
C876 C875 1.434 . S
C877 C878 1.369 . S
C877 C879 1.419 . S
C877 H881 0.930 . S
C878 C877 1.369 . S
C878 C887 1.429 . S
C879 C877 1.419 . S
C879 C880 1.363 . S
C879 H882 0.929 . S
C880 C879 1.363 . S
C880 C886 1.428 . S
H881 C877 0.930 . S
H882 C879 0.929 . S
S883 N884 1.613 . S
S883 N885 1.610 . S
N884 S883 1.613 . S
N884 C887 1.350 . S
N885 S883 1.610 . S
N885 C886 1.351 . S
C886 C880 1.428 . S
C886 N885 1.351 . S
C886 C887 1.434 . S
C887 C878 1.429 . S
C887 N884 1.350 . S
C887 C886 1.434 . S
C888 C889 1.369 . S
C888 C890 1.419 . S
C888 H892 0.930 . S
C889 C888 1.369 . S
C889 C898 1.429 . S
C890 C888 1.419 . S
C890 C891 1.363 . S
C890 H893 0.929 . S
C891 C890 1.363 . S
C891 C897 1.428 . S
H892 C888 0.930 . S
H893 C890 0.929 . S
S894 N895 1.613 . S
S894 N896 1.610 . S
N895 S894 1.613 . S
N895 C898 1.350 . S
N896 S894 1.610 . S
N896 C897 1.351 . S
C897 C891 1.428 . S
C897 N896 1.351 . S
C897 C898 1.434 . S
C898 C889 1.429 . S
C898 N895 1.350 . S
C898 C897 1.434 . S
C899 C900 1.369 . S
C899 C901 1.419 . S
C899 H903 0.930 . S
C900 C899 1.369 . S
C900 C909 1.429 . S
C901 C899 1.419 . S
C901 C902 1.363 . S
C901 H904 0.929 . S
C902 C901 1.363 . S
C902 C908 1.428 . S
H903 C899 0.930 . S
H904 C901 0.929 . S
S905 N906 1.613 . S
S905 N907 1.610 . S
N906 S905 1.613 . S
N906 C909 1.350 . S
N907 S905 1.610 . S
N907 C908 1.351 . S
C908 C902 1.428 . S
C908 N907 1.351 . S
C908 C909 1.434 . S
C909 C900 1.429 . S
C909 N906 1.350 . S
C909 C908 1.434 . S
C910 C911 1.369 . S
C910 C912 1.419 . S
C910 H914 0.930 . S
C911 C910 1.369 . S
C911 C920 1.429 . S
C912 C910 1.419 . S
C912 C913 1.363 . S
C912 H915 0.929 . S
C913 C912 1.363 . S
C913 C919 1.428 . S
H914 C910 0.930 . S
H915 C912 0.929 . S
S916 N917 1.613 . S
S916 N918 1.610 . S
N917 S916 1.613 . S
N917 C920 1.350 . S
N918 S916 1.610 . S
N918 C919 1.351 . S
C919 C913 1.428 . S
C919 N918 1.351 . S
C919 C920 1.434 . S
C920 C911 1.429 . S
C920 N917 1.350 . S
C920 C919 1.434 . S
C921 C922 1.369 . S
C921 C923 1.419 . S
C921 H925 0.930 . S
C922 C921 1.369 . S
C922 C931 1.429 . S
C923 C921 1.419 . S
C923 C924 1.363 . S
C923 H926 0.929 . S
C924 C923 1.363 . S
C924 C930 1.428 . S
H925 C921 0.930 . S
H926 C923 0.929 . S
S927 N928 1.613 . S
S927 N929 1.610 . S
N928 S927 1.613 . S
N928 C931 1.350 . S
N929 S927 1.610 . S
N929 C930 1.351 . S
C930 C924 1.428 . S
C930 N929 1.351 . S
C930 C931 1.434 . S
C931 C922 1.429 . S
C931 N928 1.350 . S
C931 C930 1.434 . S
C932 C933 1.369 . S
C932 C934 1.419 . S
C932 H936 0.930 . S
C933 C932 1.369 . S
C933 C942 1.429 . S
C934 C932 1.419 . S
C934 C935 1.363 . S
C934 H937 0.929 . S
C935 C934 1.363 . S
C935 C941 1.428 . S
H936 C932 0.930 . S
H937 C934 0.929 . S
S938 N939 1.613 . S
S938 N940 1.610 . S
N939 S938 1.613 . S
N939 C942 1.350 . S
N940 S938 1.610 . S
N940 C941 1.351 . S
C941 C935 1.428 . S
C941 N940 1.351 . S
C941 C942 1.434 . S
C942 C933 1.429 . S
C942 N939 1.350 . S
C942 C941 1.434 . S
C943 C944 1.369 . S
C943 C945 1.419 . S
C943 H947 0.930 . S
C944 C943 1.369 . S
C944 C953 1.429 . S
C945 C943 1.419 . S
C945 C946 1.363 . S
C945 H948 0.929 . S
C946 C945 1.363 . S
C946 C952 1.428 . S
H947 C943 0.930 . S
H948 C945 0.929 . S
S949 N950 1.613 . S
S949 N951 1.610 . S
N950 S949 1.613 . S
N950 C953 1.350 . S
N951 S949 1.610 . S
N951 C952 1.351 . S
C952 C946 1.428 . S
C952 N951 1.351 . S
C952 C953 1.434 . S
C953 C944 1.429 . S
C953 N950 1.350 . S
C953 C952 1.434 . S
C361 C279 1.886 . S
C363 C19 1.891 . S
C372 C29 1.628 . S
C374 C289 1.628 . S
C383 C59 1.759 . S
C385 C249 1.810 . S
C394 C49 1.548 . S
C396 C149 1.549 . S
C405 C169 1.734 . S
C407 C9 1.735 . S
C416 C39 1.800 . S
C418 C129 1.857 . S
C427 C78 1.768 . S
C429 C208 1.805 . S
C438 C88 1.476 . S
C440 C228 1.476 . S
C449 C188 1.633 . S
C451 C118 1.579 . S
C460 C328 1.636 . S
C462 C108 1.635 . S
C471 C68 1.804 . S
C473 C358 1.763 . S
C482 C318 1.902 . S
C484 C98 1.880 . S
C493 C179 1.675 . S
C495 C269 1.731 . S
C504 C139 1.815 . S
C506 C299 1.810 . S
C515 C159 1.968 . S
C517 C259 1.983 . S
C526 C198 2.043 . S
C528 C338 2.040 . S
C537 C348 1.813 . S
C539 C218 1.772 . S
C548 C308 1.988 . S
C550 C238 1.927 . S
C559 C8 1.428 . S
C561 C89 1.437 . S
C570 C119 1.744 . S
C572 C38 1.740 . S
C581 C79 1.603 . S
C583 C48 1.483 . S
C592 C99 1.744 . S
C594 C58 1.785 . S
C603 C109 1.578 . S
C605 C18 1.628 . S
C614 C69 1.476 . S
C616 C28 1.529 . S
C625 C219 1.785 . S
C627 C138 1.770 . S
C636 C239 1.837 . S
C638 C158 1.822 . S
C647 C199 1.841 . S
C649 C178 1.768 . S
C658 C209 1.474 . S
C660 C168 1.485 . S
C669 C229 1.428 . S
C671 C128 1.516 . S
C680 C189 1.428 . S
C682 C148 1.447 . S
C691 C329 1.516 . S
C693 C248 1.466 . S
C702 C359 1.770 . S
C704 C278 1.731 . S
C713 C288 1.565 . S
C715 C319 1.614 . S
C724 C298 1.841 . S
C726 C339 1.840 . S
C735 C258 1.683 . S
C737 C349 1.553 . S
C746 C309 1.482 . S
C748 C268 1.485 . S
C757 C1 1.366 . S
C759 C2 1.375 . S
C768 C22 1.403 . S
C770 C21 1.414 . S
C779 C41 1.382 . S
C781 C42 1.393 . S
C790 C62 1.405 . S
C792 C61 1.396 . S
C801 C82 1.369 . S
C803 C81 1.374 . S
C812 C101 1.438 . S
C814 C102 1.433 . S
C823 C121 1.484 . S
C825 C122 1.474 . S
C834 C142 1.366 . S
C836 C141 1.360 . S
C845 C161 1.483 . S
C847 C162 1.486 . S
C856 C182 1.358 . S
C858 C181 1.365 . S
C867 C202 1.452 . S
C869 C201 1.463 . S
C878 C222 1.370 . S
C880 C221 1.381 . S
C889 C242 1.376 . S
C891 C241 1.368 . S
C900 C262 1.407 . S
C902 C261 1.402 . S
C911 C281 1.378 . S
C913 C282 1.378 . S
C922 C301 1.424 . S
C924 C302 1.417 . S
C933 C322 1.363 . S
C935 C321 1.369 . S
C944 C342 1.403 . S
C946 C341 1.405 . S
