# Generated by pormake.
# Topology ukv, (4)-cn, num edge types: 1
# Building blocks:
#     Node 0, Type 0, BuildingBlock: NAHDIM_clean_sbu_0, # of connection points: 4
#     Node 1, Type 0, BuildingBlock: NAHDIM_clean_sbu_0, # of connection points: 4
#     Node 2, Type 0, BuildingBlock: NAHDIM_clean_sbu_0, # of connection points: 4
#     Node 3, Type 0, BuildingBlock: NAHDIM_clean_sbu_0, # of connection points: 4
#     Node 4, Type 0, BuildingBlock: NAHDIM_clean_sbu_0, # of connection points: 4
#     Node 5, Type 0, BuildingBlock: NAHDIM_clean_sbu_0, # of connection points: 4
#     Node 6, Type 0, BuildingBlock: NAHDIM_clean_sbu_0, # of connection points: 4
#     Node 7, Type 0, BuildingBlock: NAHDIM_clean_sbu_0, # of connection points: 4
#     Node 8, Type 0, BuildingBlock: NAHDIM_clean_sbu_0, # of connection points: 4
#     Node 9, Type 0, BuildingBlock: NAHDIM_clean_sbu_0, # of connection points: 4
#     Node 10, Type 0, BuildingBlock: NAHDIM_clean_sbu_0, # of connection points: 4
#     Node 11, Type 0, BuildingBlock: NAHDIM_clean_sbu_0, # of connection points: 4
#     Node 12, Type 0, BuildingBlock: NAHDIM_clean_sbu_0, # of connection points: 4
#     Node 13, Type 0, BuildingBlock: NAHDIM_clean_sbu_0, # of connection points: 4
#     Node 14, Type 0, BuildingBlock: NAHDIM_clean_sbu_0, # of connection points: 4
#     Node 15, Type 0, BuildingBlock: NAHDIM_clean_sbu_0, # of connection points: 4
#     Node 16, Type 0, BuildingBlock: NAHDIM_clean_sbu_0, # of connection points: 4
#     Node 17, Type 0, BuildingBlock: NAHDIM_clean_sbu_0, # of connection points: 4
#     Node 18, Type 0, BuildingBlock: NAHDIM_clean_sbu_0, # of connection points: 4
#     Node 19, Type 0, BuildingBlock: NAHDIM_clean_sbu_0, # of connection points: 4
#     Node 20, Type 0, BuildingBlock: NAHDIM_clean_sbu_0, # of connection points: 4
#     Node 21, Type 0, BuildingBlock: NAHDIM_clean_sbu_0, # of connection points: 4
#     Node 22, Type 0, BuildingBlock: NAHDIM_clean_sbu_0, # of connection points: 4
#     Node 23, Type 0, BuildingBlock: NAHDIM_clean_sbu_0, # of connection points: 4
#     Node 24, Type 0, BuildingBlock: NAHDIM_clean_sbu_0, # of connection points: 4
#     Node 25, Type 0, BuildingBlock: NAHDIM_clean_sbu_0, # of connection points: 4
#     Node 26, Type 0, BuildingBlock: NAHDIM_clean_sbu_0, # of connection points: 4
#     Node 27, Type 0, BuildingBlock: NAHDIM_clean_sbu_0, # of connection points: 4
#     Node 28, Type 0, BuildingBlock: NAHDIM_clean_sbu_0, # of connection points: 4
#     Node 29, Type 0, BuildingBlock: NAHDIM_clean_sbu_0, # of connection points: 4
#     Node 30, Type 0, BuildingBlock: NAHDIM_clean_sbu_0, # of connection points: 4
#     Node 31, Type 0, BuildingBlock: NAHDIM_clean_sbu_0, # of connection points: 4
#     Node 32, Type 0, BuildingBlock: NAHDIM_clean_sbu_0, # of connection points: 4
#     Node 33, Type 0, BuildingBlock: NAHDIM_clean_sbu_0, # of connection points: 4
#     Node 34, Type 0, BuildingBlock: NAHDIM_clean_sbu_0, # of connection points: 4
#     Node 35, Type 0, BuildingBlock: NAHDIM_clean_sbu_0, # of connection points: 4
#     Edge 36, Type (0, 0), BuildingBlock: CIFDUS_clean_linker_0, # of connection points: 2
#     Edge 37, Type (0, 0), BuildingBlock: CIFDUS_clean_linker_0, # of connection points: 2
#     Edge 38, Type (0, 0), BuildingBlock: CIFDUS_clean_linker_0, # of connection points: 2
#     Edge 39, Type (0, 0), BuildingBlock: CIFDUS_clean_linker_0, # of connection points: 2
#     Edge 40, Type (0, 0), BuildingBlock: CIFDUS_clean_linker_0, # of connection points: 2
#     Edge 41, Type (0, 0), BuildingBlock: CIFDUS_clean_linker_0, # of connection points: 2
#     Edge 42, Type (0, 0), BuildingBlock: CIFDUS_clean_linker_0, # of connection points: 2
#     Edge 43, Type (0, 0), BuildingBlock: CIFDUS_clean_linker_0, # of connection points: 2
#     Edge 44, Type (0, 0), BuildingBlock: CIFDUS_clean_linker_0, # of connection points: 2
#     Edge 45, Type (0, 0), BuildingBlock: CIFDUS_clean_linker_0, # of connection points: 2
#     Edge 46, Type (0, 0), BuildingBlock: CIFDUS_clean_linker_0, # of connection points: 2
#     Edge 47, Type (0, 0), BuildingBlock: CIFDUS_clean_linker_0, # of connection points: 2
#     Edge 48, Type (0, 0), BuildingBlock: CIFDUS_clean_linker_0, # of connection points: 2
#     Edge 49, Type (0, 0), BuildingBlock: CIFDUS_clean_linker_0, # of connection points: 2
#     Edge 50, Type (0, 0), BuildingBlock: CIFDUS_clean_linker_0, # of connection points: 2
#     Edge 51, Type (0, 0), BuildingBlock: CIFDUS_clean_linker_0, # of connection points: 2
#     Edge 52, Type (0, 0), BuildingBlock: CIFDUS_clean_linker_0, # of connection points: 2
#     Edge 53, Type (0, 0), BuildingBlock: CIFDUS_clean_linker_0, # of connection points: 2
#     Edge 54, Type (0, 0), BuildingBlock: CIFDUS_clean_linker_0, # of connection points: 2
#     Edge 55, Type (0, 0), BuildingBlock: CIFDUS_clean_linker_0, # of connection points: 2
#     Edge 56, Type (0, 0), BuildingBlock: CIFDUS_clean_linker_0, # of connection points: 2
#     Edge 57, Type (0, 0), BuildingBlock: CIFDUS_clean_linker_0, # of connection points: 2
#     Edge 58, Type (0, 0), BuildingBlock: CIFDUS_clean_linker_0, # of connection points: 2
#     Edge 59, Type (0, 0), BuildingBlock: CIFDUS_clean_linker_0, # of connection points: 2
#     Edge 60, Type (0, 0), BuildingBlock: CIFDUS_clean_linker_0, # of connection points: 2
#     Edge 61, Type (0, 0), BuildingBlock: CIFDUS_clean_linker_0, # of connection points: 2
#     Edge 62, Type (0, 0), BuildingBlock: CIFDUS_clean_linker_0, # of connection points: 2
#     Edge 63, Type (0, 0), BuildingBlock: CIFDUS_clean_linker_0, # of connection points: 2
#     Edge 64, Type (0, 0), BuildingBlock: CIFDUS_clean_linker_0, # of connection points: 2
#     Edge 65, Type (0, 0), BuildingBlock: CIFDUS_clean_linker_0, # of connection points: 2
#     Edge 66, Type (0, 0), BuildingBlock: CIFDUS_clean_linker_0, # of connection points: 2
#     Edge 67, Type (0, 0), BuildingBlock: CIFDUS_clean_linker_0, # of connection points: 2
#     Edge 68, Type (0, 0), BuildingBlock: CIFDUS_clean_linker_0, # of connection points: 2
#     Edge 69, Type (0, 0), BuildingBlock: CIFDUS_clean_linker_0, # of connection points: 2
#     Edge 70, Type (0, 0), BuildingBlock: CIFDUS_clean_linker_0, # of connection points: 2
#     Edge 71, Type (0, 0), BuildingBlock: CIFDUS_clean_linker_0, # of connection points: 2
#     Edge 72, Type (0, 0), BuildingBlock: CIFDUS_clean_linker_0, # of connection points: 2
#     Edge 73, Type (0, 0), BuildingBlock: CIFDUS_clean_linker_0, # of connection points: 2
#     Edge 74, Type (0, 0), BuildingBlock: CIFDUS_clean_linker_0, # of connection points: 2
#     Edge 75, Type (0, 0), BuildingBlock: CIFDUS_clean_linker_0, # of connection points: 2
#     Edge 76, Type (0, 0), BuildingBlock: CIFDUS_clean_linker_0, # of connection points: 2
#     Edge 77, Type (0, 0), BuildingBlock: CIFDUS_clean_linker_0, # of connection points: 2
#     Edge 78, Type (0, 0), BuildingBlock: CIFDUS_clean_linker_0, # of connection points: 2
#     Edge 79, Type (0, 0), BuildingBlock: CIFDUS_clean_linker_0, # of connection points: 2
#     Edge 80, Type (0, 0), BuildingBlock: CIFDUS_clean_linker_0, # of connection points: 2
#     Edge 81, Type (0, 0), BuildingBlock: CIFDUS_clean_linker_0, # of connection points: 2
#     Edge 82, Type (0, 0), BuildingBlock: CIFDUS_clean_linker_0, # of connection points: 2
#     Edge 83, Type (0, 0), BuildingBlock: CIFDUS_clean_linker_0, # of connection points: 2
#     Edge 84, Type (0, 0), BuildingBlock: CIFDUS_clean_linker_0, # of connection points: 2
#     Edge 85, Type (0, 0), BuildingBlock: CIFDUS_clean_linker_0, # of connection points: 2
#     Edge 86, Type (0, 0), BuildingBlock: CIFDUS_clean_linker_0, # of connection points: 2
#     Edge 87, Type (0, 0), BuildingBlock: CIFDUS_clean_linker_0, # of connection points: 2
#     Edge 88, Type (0, 0), BuildingBlock: CIFDUS_clean_linker_0, # of connection points: 2
#     Edge 89, Type (0, 0), BuildingBlock: CIFDUS_clean_linker_0, # of connection points: 2
#     Edge 90, Type (0, 0), BuildingBlock: CIFDUS_clean_linker_0, # of connection points: 2
#     Edge 91, Type (0, 0), BuildingBlock: CIFDUS_clean_linker_0, # of connection points: 2
#     Edge 92, Type (0, 0), BuildingBlock: CIFDUS_clean_linker_0, # of connection points: 2
#     Edge 93, Type (0, 0), BuildingBlock: CIFDUS_clean_linker_0, # of connection points: 2
#     Edge 94, Type (0, 0), BuildingBlock: CIFDUS_clean_linker_0, # of connection points: 2
#     Edge 95, Type (0, 0), BuildingBlock: CIFDUS_clean_linker_0, # of connection points: 2
#     Edge 96, Type (0, 0), BuildingBlock: CIFDUS_clean_linker_0, # of connection points: 2
#     Edge 97, Type (0, 0), BuildingBlock: CIFDUS_clean_linker_0, # of connection points: 2
#     Edge 98, Type (0, 0), BuildingBlock: CIFDUS_clean_linker_0, # of connection points: 2
#     Edge 99, Type (0, 0), BuildingBlock: CIFDUS_clean_linker_0, # of connection points: 2
#     Edge 100, Type (0, 0), BuildingBlock: CIFDUS_clean_linker_0, # of connection points: 2
#     Edge 101, Type (0, 0), BuildingBlock: CIFDUS_clean_linker_0, # of connection points: 2
#     Edge 102, Type (0, 0), BuildingBlock: CIFDUS_clean_linker_0, # of connection points: 2
#     Edge 103, Type (0, 0), BuildingBlock: CIFDUS_clean_linker_0, # of connection points: 2
#     Edge 104, Type (0, 0), BuildingBlock: CIFDUS_clean_linker_0, # of connection points: 2
#     Edge 105, Type (0, 0), BuildingBlock: CIFDUS_clean_linker_0, # of connection points: 2
#     Edge 106, Type (0, 0), BuildingBlock: CIFDUS_clean_linker_0, # of connection points: 2
#     Edge 107, Type (0, 0), BuildingBlock: CIFDUS_clean_linker_0, # of connection points: 2
# Relax obj value: 0.249
# Max RMSD: 0.179
# Mean RMSD: 0.179
data_MOF--net-ukv--node1-NAHDIM_clean_sbu_0--edge1-CIFDUS_clean_linker_0
_symmetry_space_group_name_H-M    P1
_symmetry_Int_Tables_number       1
_symmetry_cell_setting            triclinic
loop_
_symmetry_equiv_pos_as_xyz
'x, y, z'
_cell_length_a     84.670534
_cell_length_b     84.648639
_cell_length_c     17.77331
_cell_angle_alpha  90.012024
_cell_angle_beta   89.991983
_cell_angle_gamma 120.01348
loop_
_atom_site_label
_atom_site_type_symbol
_atom_site_fract_x
_atom_site_fract_y
_atom_site_fract_z
_atom_type_partial_charge
C0 C 0.24187 0.05147 0.1011 0.0
O1 O 0.245 0.06626 0.13757 0.0
O2 O 0.27558 0.08449 0.92036 0.0
Zn3 Zn 0.25132 0.07516 0.97124 0.0
O4 O 0.25268 0.09516 0.03709 0.0
C5 C 0.23462 0.0659 0.82442 0.0
O6 O 0.24612 0.05999 0.81285 0.0
O7 O 0.2438 0.0521 0.02998 0.0
C8 C 0.23827 0.09556 0.05348 0.0
O9 O 0.22244 0.0824 0.02942 0.0
C10 C 0.28875 0.08245 0.94173 0.0
O11 O 0.28712 0.07325 0.00358 0.0
O12 O 0.23351 0.07136 0.88972 0.0
C13 C 0.95101 0.19429 0.15375 0.0
O14 O 0.93606 0.19369 0.17802 0.0
O15 O 0.92336 0.20065 0.00132 0.0
Zn16 Zn 0.92849 0.18048 0.02663 0.0
O17 O 0.90747 0.16185 0.08754 0.0
C18 C 0.93022 0.1744 0.86657 0.0
O19 O 0.93694 0.19209 0.86012 0.0
O20 O 0.95151 0.18945 0.08648 0.0
C21 C 0.90716 0.14744 0.10986 0.0
O22 O 0.92122 0.14529 0.09604 0.0
C23 C 0.9081 0.19533 0.96919 0.0
O24 O 0.89745 0.17781 0.95632 0.0
O25 O 0.92778 0.1674 0.93177 0.0
C26 C 0.8171 0.76861 0.11532 0.0
O27 O 0.82608 0.76236 0.15367 0.0
O28 O 0.82007 0.73212 0.99437 0.0
Zn29 Zn 0.83308 0.75954 0.99469 0.0
O30 O 0.85637 0.76781 0.05157 0.0
C31 C 0.83447 0.75868 0.83184 0.0
O32 O 0.81952 0.7428 0.83888 0.0
O33 O 0.81795 0.76886 0.04386 0.0
C34 C 0.86756 0.76368 0.02251 0.0
O35 O 0.86327 0.75461 0.95875 0.0
C36 C 0.80316 0.72168 0.98215 0.0
O37 O 0.7927 0.72883 0.97082 0.0
O38 O 0.84103 0.7688 0.88946 0.0
C39 C 0.02817 0.23126 0.47027 0.0
O40 O 0.02971 0.24115 0.52977 0.0
O41 O 0.07274 0.26926 0.51835 0.0
Zn42 Zn 0.06608 0.24323 0.50009 0.0
O43 O 0.08465 0.24235 0.43286 0.0
C44 C 0.07103 0.2414 0.65914 0.0
O45 O 0.06868 0.2556 0.66073 0.0
O46 O 0.04167 0.22963 0.45005 0.0
C47 C 0.10083 0.24874 0.45723 0.0
O48 O 0.10513 0.2567 0.52346 0.0
C49 C 0.07841 0.28175 0.469 0.0
O50 O 0.07991 0.27784 0.39876 0.0
O51 O 0.06811 0.23254 0.59807 0.0
C52 C 0.76623 0.80463 0.38376 0.0
O53 O 0.75467 0.80749 0.34509 0.0
O54 O 0.72828 0.80208 0.50812 0.0
Zn55 Zn 0.75458 0.82086 0.49013 0.0
O56 O 0.75679 0.8391 0.41205 0.0
C57 C 0.75765 0.82716 0.65025 0.0
O58 O 0.74747 0.80932 0.65385 0.0
O59 O 0.76872 0.80907 0.45296 0.0
C60 C 0.75544 0.853 0.42827 0.0
O61 O 0.75157 0.85522 0.49767 0.0
C62 C 0.71541 0.79736 0.46103 0.0
O63 O 0.7191 0.80448 0.3932 0.0
O64 O 0.76382 0.83467 0.58685 0.0
C65 C 0.20571 0.96506 0.37215 0.0
O66 O 0.2056 0.95141 0.33658 0.0
O67 O 0.2085 0.93152 0.50998 0.0
Zn68 Zn 0.18879 0.93663 0.47577 0.0
O69 O 0.17484 0.91952 0.39124 0.0
C70 C 0.16496 0.91298 0.57873 0.0
O71 O 0.17117 0.90375 0.54177 0.0
O72 O 0.19916 0.96244 0.43837 0.0
C73 C 0.15877 0.91588 0.37455 0.0
O74 O 0.15126 0.92377 0.4123 0.0
C75 C 0.21513 0.92445 0.46619 0.0
O76 O 0.21024 0.92194 0.3951 0.0
O77 O 0.17101 0.92962 0.56144 0.0
C78 C 0.755 0.95369 0.884 0.0
O79 O 0.74046 0.93907 0.8586 0.0
O80 O 0.72404 0.9196 0.02787 0.0
Zn81 Zn 0.74962 0.9277 0.99319 0.0
O82 O 0.75005 0.91086 0.91475 0.0
C83 C 0.7584 0.92774 0.14916 0.0
O84 O 0.74821 0.93529 0.15755 0.0
O85 O 0.76173 0.95275 0.94672 0.0
C86 C 0.74928 0.89587 0.93107 0.0
O87 O 0.74674 0.89034 0.00137 0.0
C88 C 0.70946 0.90929 0.9921 0.0
O89 O 0.71045 0.90389 0.92386 0.0
O90 O 0.76258 0.92535 0.08314 0.0
C91 C 0.02813 0.79537 0.94672 0.0
O92 O 0.0286 0.78508 0.00099 0.0
O93 O 0.07029 0.79848 0.01525 0.0
Zn94 Zn 0.06715 0.81899 0.97576 0.0
O95 O 0.08515 0.83138 0.89235 0.0
C96 C 0.09103 0.84252 0.07799 0.0
O97 O 0.09948 0.83512 0.04342 0.0
O98 O 0.0424 0.81037 0.93129 0.0
C99 C 0.08954 0.84758 0.87394 0.0
O100 O 0.08182 0.85566 0.90878 0.0
C101 C 0.07404 0.78878 0.97252 0.0
O102 O 0.07392 0.79084 0.89928 0.0
O103 O 0.07467 0.83744 0.05928 0.0
C104 C 0.18636 0.23515 0.87027 0.0
O105 O 0.18595 0.24969 0.84729 0.0
O106 O 0.19307 0.26783 0.03404 0.0
Zn107 Zn 0.17247 0.24367 0.99779 0.0
O108 O 0.15512 0.24705 0.93259 0.0
C109 C 0.1624 0.23619 0.15373 0.0
O110 O 0.17956 0.24859 0.16463 0.0
O111 O 0.18139 0.22953 0.93723 0.0
C112 C 0.14656 0.25479 0.95671 0.0
O113 O 0.1504 0.26239 0.02366 0.0
C114 C 0.20142 0.28269 0.99763 0.0
O115 O 0.19723 0.28315 0.92682 0.0
O116 O 0.1571 0.23023 0.08748 0.0
C117 C 0.95404 0.76622 0.62002 0.0
O118 O 0.93767 0.75411 0.64354 0.0
O119 O 0.92678 0.73636 0.44314 0.0
Zn120 Zn 0.93386 0.76116 0.48568 0.0
O121 O 0.91307 0.75944 0.54576 0.0
C122 C 0.93777 0.7735 0.33283 0.0
O123 O 0.94203 0.76076 0.32107 0.0
O124 O 0.95617 0.77143 0.55177 0.0
C125 C 0.89675 0.75067 0.5219 0.0
O126 O 0.89316 0.74158 0.45836 0.0
C127 C 0.91826 0.72158 0.48005 0.0
O128 O 0.9147 0.72221 0.55156 0.0
O129 O 0.93616 0.77755 0.4001 0.0
C130 C 0.2199 0.1945 0.54222 0.0
O131 O 0.23276 0.20362 0.49235 0.0
O132 O 0.25325 0.18005 0.50853 0.0
Zn133 Zn 0.22573 0.16416 0.50676 0.0
O134 O 0.21825 0.14217 0.57169 0.0
C135 C 0.22944 0.16116 0.34819 0.0
O136 O 0.24524 0.1759 0.36045 0.0
O137 O 0.21434 0.17769 0.55271 0.0
C138 C 0.21788 0.12782 0.54796 0.0
O139 O 0.2225 0.12713 0.47798 0.0
C140 C 0.2637 0.1756 0.54221 0.0
O141 O 0.25651 0.16057 0.5824 0.0
O142 O 0.21774 0.15492 0.40096 0.0
C143 C 0.79359 0.03275 0.57497 0.0
O144 O 0.78469 0.03603 0.52245 0.0
O145 O 0.80724 0.0786 0.51104 0.0
Zn146 Zn 0.82393 0.06885 0.53742 0.0
O147 O 0.84272 0.08546 0.61151 0.0
C148 C 0.83313 0.07281 0.38106 0.0
O149 O 0.81725 0.07193 0.37518 0.0
O150 O 0.81024 0.04432 0.58716 0.0
C151 C 0.85646 0.10053 0.59206 0.0
O152 O 0.85801 0.10597 0.52184 0.0
C153 C 0.80311 0.08795 0.55417 0.0
O154 O 0.80931 0.09118 0.62353 0.0
O155 O 0.83788 0.06956 0.44438 0.0
C156 C 0.91134 0.36862 0.47179 0.0
O157 O 0.92827 0.37975 0.49239 0.0
O158 O 0.94604 0.40404 0.35206 0.0
Zn159 Zn 0.92074 0.3989 0.38109 0.0
O160 O 0.92263 0.41529 0.46623 0.0
C161 C 0.92089 0.42294 0.2775 0.0
O162 O 0.93601 0.43249 0.31605 0.0
O163 O 0.90465 0.37334 0.41816 0.0
C164 C 0.90991 0.41855 0.48214 0.0
O165 O 0.89477 0.41071 0.44262 0.0
C166 C 0.95969 0.41504 0.39149 0.0
O167 O 0.95691 0.42136 0.45455 0.0
O168 O 0.91065 0.40617 0.29374 0.0
C169 C 0.63653 0.53911 0.37387 0.0
O170 O 0.63499 0.54866 0.31905 0.0
O171 O 0.59458 0.52873 0.28271 0.0
Zn172 Zn 0.6002 0.51045 0.32878 0.0
O173 O 0.58132 0.49656 0.40815 0.0
C174 C 0.59494 0.47739 0.25417 0.0
O175 O 0.59284 0.4707 0.32248 0.0
O176 O 0.62402 0.52271 0.38392 0.0
C177 C 0.56603 0.4819 0.40321 0.0
O178 O 0.5604 0.47365 0.338 0.0
C179 C 0.59086 0.53892 0.32244 0.0
O180 O 0.59151 0.5381 0.39612 0.0
O181 O 0.59922 0.49395 0.24546 0.0
C182 C 0.48941 0.10978 0.43746 0.0
O183 O 0.49487 0.1008 0.48035 0.0
O184 O 0.47448 0.06711 0.28884 0.0
Zn185 Zn 0.49654 0.09014 0.32427 0.0
O186 O 0.50903 0.08339 0.4037 0.0
C187 C 0.51706 0.08668 0.21542 0.0
O188 O 0.50853 0.07084 0.24998 0.0
O189 O 0.48926 0.10785 0.36634 0.0
C190 C 0.52581 0.09389 0.41863 0.0
O191 O 0.53489 0.10949 0.38279 0.0
C192 C 0.46434 0.05413 0.33282 0.0
O193 O 0.46717 0.05636 0.40572 0.0
O194 O 0.51401 0.09927 0.2367 0.0
C195 C 0.707 0.57412 0.71585 0.0
O196 O 0.72224 0.58881 0.69618 0.0
O197 O 0.73915 0.60574 0.84675 0.0
Zn198 Zn 0.7308 0.57916 0.83006 0.0
O199 O 0.7475 0.57666 0.75698 0.0
C200 C 0.73392 0.57542 0.99032 0.0
O201 O 0.73041 0.58885 0.99496 0.0
O202 O 0.70636 0.5668 0.77916 0.0
C203 C 0.76039 0.57381 0.77487 0.0
O204 O 0.7643 0.57345 0.84615 0.0
C205 C 0.75501 0.6162 0.87301 0.0
O206 O 0.7657 0.60945 0.88709 0.0
O207 O 0.73244 0.56782 0.92698 0.0
C208 C 0.445 0.15377 0.69711 0.0
O209 O 0.43202 0.1546 0.65999 0.0
O210 O 0.40508 0.14186 0.82824 0.0
Zn211 Zn 0.42937 0.16463 0.81014 0.0
O212 O 0.42671 0.1819 0.74048 0.0
C213 C 0.42373 0.18088 0.92881 0.0
O214 O 0.40926 0.17467 0.88551 0.0
O215 O 0.4471 0.15779 0.76675 0.0
C216 C 0.4405 0.19505 0.70905 0.0
O217 O 0.45667 0.19669 0.71742 0.0
C218 C 0.39078 0.13806 0.79119 0.0
O219 O 0.39198 0.14843 0.73399 0.0
O220 O 0.43657 0.17805 0.9091 0.0
C221 C 0.83608 0.28517 0.71155 0.0
O222 O 0.81842 0.27531 0.70009 0.0
O223 O 0.84218 0.24389 0.83238 0.0
Zn224 Zn 0.82857 0.25759 0.82304 0.0
O225 O 0.80542 0.24058 0.76906 0.0
C226 C 0.82875 0.25983 0.98486 0.0
O227 O 0.84493 0.26142 0.97846 0.0
O228 O 0.84331 0.28066 0.76377 0.0
C229 C 0.7951 0.22527 0.80017 0.0
O230 O 0.79995 0.22161 0.86519 0.0
C231 C 0.85923 0.25071 0.84218 0.0
O232 O 0.86977 0.26852 0.84587 0.0
O233 O 0.82076 0.26078 0.92593 0.0
C234 C 0.41148 0.28721 0.22541 0.0
O235 O 0.40181 0.27247 0.18482 0.0
O236 O 0.37477 0.25156 0.37114 0.0
Zn237 Zn 0.40078 0.26033 0.34039 0.0
O238 O 0.40023 0.24295 0.26262 0.0
C239 C 0.40982 0.25757 0.49605 0.0
O240 O 0.39675 0.26109 0.51232 0.0
O241 O 0.41287 0.28561 0.29595 0.0
C242 C 0.41401 0.24115 0.24948 0.0
O243 O 0.42917 0.2511 0.28722 0.0
C244 C 0.36634 0.23575 0.40049 0.0
O245 O 0.37494 0.22654 0.40844 0.0
O246 O 0.4146 0.25817 0.4279 0.0
C247 C 0.70537 0.12459 0.27182 0.0
O248 O 0.70718 0.11639 0.3312 0.0
O249 O 0.74854 0.14069 0.36809 0.0
Zn250 Zn 0.73805 0.15588 0.32931 0.0
O251 O 0.75714 0.17698 0.2708 0.0
C252 C 0.7313 0.16124 0.48293 0.0
O253 O 0.72969 0.1451 0.49238 0.0
O254 O 0.7166 0.14142 0.2615 0.0
C255 C 0.77344 0.18622 0.29445 0.0
O256 O 0.77821 0.18121 0.35637 0.0
C257 C 0.75302 0.13155 0.32536 0.0
O258 O 0.75049 0.13163 0.25245 0.0
O259 O 0.73263 0.16732 0.41655 0.0
C260 C 0.8509 0.57146 0.20294 0.0
O261 O 0.84721 0.58355 0.17435 0.0
O262 O 0.85497 0.60459 0.36724 0.0
Zn263 Zn 0.83635 0.57956 0.33082 0.0
O264 O 0.81744 0.58067 0.26673 0.0
C265 C 0.82962 0.56945 0.48732 0.0
O266 O 0.84737 0.57994 0.49418 0.0
O267 O 0.84763 0.56735 0.27224 0.0
C268 C 0.80857 0.58808 0.29106 0.0
O269 O 0.81276 0.59623 0.35691 0.0
C270 C 0.86241 0.61925 0.3292 0.0
O271 O 0.85866 0.61872 0.25722 0.0
O272 O 0.82261 0.56568 0.42197 0.0
C273 C 0.63389 0.08276 0.93435 0.0
O274 O 0.62028 0.06669 0.95344 0.0
O275 O 0.60367 0.05111 0.78562 0.0
Zn276 Zn 0.60816 0.07554 0.8239 0.0
O277 O 0.5895 0.072 0.90218 0.0
C278 C 0.58702 0.07779 0.71518 0.0
O279 O 0.577 0.06196 0.74844 0.0
O280 O 0.63265 0.09006 0.87374 0.0
C281 C 0.58735 0.08533 0.9203 0.0
O282 O 0.59761 0.10127 0.88829 0.0
C283 C 0.5924 0.03639 0.81848 0.0
O284 O 0.58499 0.0373 0.88208 0.0
O285 O 0.60338 0.08789 0.73726 0.0
C286 C 0.89579 0.53676 0.89759 0.0
O287 O 0.90479 0.54517 0.83646 0.0
O288 O 0.93591 0.53507 0.83311 0.0
Zn289 Zn 0.91315 0.51464 0.87946 0.0
O290 O 0.91989 0.50342 0.96432 0.0
C291 C 0.91338 0.4905 0.78067 0.0
O292 O 0.92939 0.49844 0.81398 0.0
O293 O 0.89683 0.52322 0.92215 0.0
C294 C 0.90843 0.4872 0.98397 0.0
O295 O 0.89251 0.47869 0.95013 0.0
C296 C 0.95023 0.54563 0.86986 0.0
O297 O 0.94996 0.54454 0.94364 0.0
O298 O 0.90191 0.49535 0.79921 0.0
C299 C 0.46469 0.37628 0.97091 0.0
O300 O 0.47084 0.39109 0.01221 0.0
O301 O 0.4757 0.41919 0.88648 0.0
Zn302 Zn 0.48784 0.40401 0.87734 0.0
O303 O 0.50778 0.41249 0.95524 0.0
C304 C 0.50793 0.42564 0.75956 0.0
O305 O 0.50982 0.43705 0.81368 0.0
O306 O 0.46974 0.3779 0.90255 0.0
C307 C 0.52449 0.41757 0.94419 0.0
O308 O 0.53047 0.41809 0.87554 0.0
C309 C 0.46406 0.41734 0.83702 0.0
O310 O 0.45929 0.4046 0.78555 0.0
O311 O 0.49851 0.4086 0.77254 0.0
C312 C 0.56772 0.70699 0.76914 0.0
O313 O 0.57683 0.72275 0.80382 0.0
O314 O 0.60562 0.73784 0.61437 0.0
Zn315 Zn 0.57981 0.73065 0.64139 0.0
O316 O 0.58053 0.75076 0.70366 0.0
C317 C 0.57423 0.7332 0.48302 0.0
O318 O 0.5889 0.73176 0.47631 0.0
O319 O 0.56701 0.70672 0.69761 0.0
C320 C 0.56579 0.75013 0.72331 0.0
O321 O 0.55011 0.73564 0.70656 0.0
C322 C 0.61849 0.74289 0.6617 0.0
O323 O 0.6149 0.74247 0.73382 0.0
O324 O 0.56681 0.73089 0.54729 0.0
C325 C 0.30237 0.86667 0.69678 0.0
O326 O 0.30144 0.87369 0.63213 0.0
O327 O 0.25842 0.8614 0.64324 0.0
Zn328 Zn 0.26426 0.84178 0.66853 0.0
O329 O 0.24482 0.8232 0.73543 0.0
C330 C 0.261 0.83419 0.51009 0.0
O331 O 0.2648 0.85122 0.5052 0.0
O332 O 0.28834 0.85255 0.72145 0.0
C333 C 0.22845 0.81511 0.71193 0.0
O334 O 0.2247 0.81998 0.64716 0.0
C335 C 0.25438 0.87021 0.68972 0.0
O336 O 0.25408 0.86687 0.76204 0.0
O337 O 0.26245 0.8281 0.57353 0.0
C338 C 0.12316 0.42745 0.69761 0.0
O339 O 0.11226 0.41457 0.6508 0.0
O340 O 0.12874 0.39095 0.62554 0.0
Zn341 Zn 0.14888 0.41538 0.66046 0.0
O342 O 0.16273 0.41122 0.74196 0.0
C343 C 0.17196 0.41575 0.55373 0.0
O344 O 0.16536 0.39994 0.58807 0.0
O345 O 0.13944 0.43078 0.70571 0.0
C346 C 0.17865 0.42387 0.75936 0.0
O347 O 0.18558 0.43964 0.72452 0.0
C348 C 0.11942 0.37811 0.67142 0.0
O349 O 0.12189 0.38136 0.74402 0.0
O350 O 0.16644 0.42658 0.57429 0.0
C351 C 0.3811 0.9104 0.00626 0.0
O352 O 0.39654 0.92287 0.97636 0.0
O353 O 0.41035 0.94662 0.15688 0.0
Zn354 Zn 0.40437 0.92097 0.1326 0.0
O355 O 0.42441 0.92137 0.0706 0.0
C356 C 0.40461 0.91506 0.29344 0.0
O357 O 0.39999 0.92768 0.29963 0.0
O358 O 0.38064 0.907 0.0762 0.0
C359 C 0.42229 0.9062 0.0477 0.0
O360 O 0.40688 0.89116 0.06198 0.0
C361 C 0.41893 0.96001 0.11245 0.0
O362 O 0.42348 0.95712 0.04534 0.0
O363 O 0.40522 0.90905 0.22862 0.0
C364 C 0.09427 0.47177 0.02788 0.0
O365 O 0.0787 0.47098 0.01283 0.0
O366 O 0.06712 0.47255 0.19703 0.0
Zn367 Zn 0.09096 0.49097 0.14926 0.0
O368 O 0.08466 0.50535 0.07862 0.0
C369 C 0.10413 0.5043 0.29804 0.0
O370 O 0.09357 0.48708 0.31627 0.0
O371 O 0.10258 0.47948 0.08839 0.0
C372 C 0.09575 0.52167 0.05915 0.0
O373 O 0.11256 0.5298 0.08473 0.0
C374 C 0.05936 0.47995 0.23181 0.0
O375 O 0.06713 0.49783 0.23197 0.0
O376 O 0.10714 0.5086 0.22893 0.0
C377 C 0.524 0.62482 0.06409 0.0
O378 O 0.51844 0.60905 0.0308 0.0
O379 O 0.53122 0.5972 0.2341 0.0
Zn380 Zn 0.51166 0.60179 0.19429 0.0
O381 O 0.49465 0.5804 0.13033 0.0
C382 C 0.50043 0.60098 0.34866 0.0
O383 O 0.51718 0.60497 0.3644 0.0
O384 O 0.5224 0.62524 0.13513 0.0
C385 C 0.47894 0.57811 0.11582 0.0
O386 O 0.47483 0.59037 0.13881 0.0
C387 C 0.53905 0.59094 0.19271 0.0
O388 O 0.53499 0.58833 0.12076 0.0
O389 O 0.49598 0.601 0.28044 0.0
C390 C 0.08856 0.61737 0.49059 0.0
O391 O 0.07665 0.60182 0.45956 0.0
O392 O 0.05206 0.59075 0.64758 0.0
Zn393 Zn 0.07679 0.59461 0.61901 0.0
O394 O 0.07492 0.57364 0.55847 0.0
C395 C 0.07823 0.57859 0.74814 0.0
O396 O 0.06205 0.5678 0.719 0.0
O397 O 0.0912 0.61796 0.56123 0.0
C398 C 0.08999 0.57488 0.53965 0.0
O399 O 0.10528 0.58987 0.55585 0.0
C400 C 0.03764 0.58204 0.60866 0.0
O401 O 0.03862 0.57589 0.54197 0.0
O402 O 0.0888 0.59351 0.71477 0.0
C403 C 0.37966 0.48761 0.56324 0.0
O404 O 0.39544 0.49597 0.52828 0.0
O405 O 0.41162 0.48071 0.70127 0.0
Zn406 Zn 0.40331 0.49926 0.69046 0.0
O407 O 0.42205 0.52091 0.63151 0.0
C408 C 0.40347 0.50272 0.85343 0.0
O409 O 0.40232 0.48666 0.85418 0.0
O410 O 0.3794 0.48747 0.63481 0.0
C411 C 0.43557 0.53423 0.66381 0.0
O412 O 0.43758 0.53385 0.73693 0.0
C413 C 0.42611 0.48412 0.7361 0.0
O414 O 0.43635 0.50035 0.76569 0.0
O415 O 0.40185 0.50923 0.79144 0.0
C416 C 0.52736 0.88704 0.60002 0.0
O417 O 0.53579 0.89573 0.66168 0.0
O418 O 0.51922 0.92398 0.67164 0.0
Zn419 Zn 0.50092 0.89921 0.63164 0.0
O420 O 0.48512 0.90167 0.55416 0.0
C421 C 0.48933 0.89119 0.78422 0.0
O422 O 0.50659 0.90308 0.79642 0.0
O423 O 0.51266 0.88652 0.58084 0.0
C424 C 0.47234 0.9047 0.572 0.0
O425 O 0.47004 0.90743 0.64296 0.0
C426 C 0.53407 0.93666 0.64473 0.0
O427 O 0.53959 0.93468 0.57813 0.0
O428 O 0.4842 0.88534 0.71773 0.0
C429 C 0.29779 0.43498 0.2729 0.0
O430 O 0.28411 0.42101 0.30641 0.0
O431 O 0.26921 0.39818 0.11855 0.0
Zn432 Zn 0.27129 0.42135 0.15954 0.0
O433 O 0.25234 0.41517 0.23988 0.0
C434 C 0.24763 0.42013 0.05444 0.0
O435 O 0.23957 0.40418 0.08819 0.0
O436 O 0.29606 0.43822 0.20439 0.0
C437 C 0.24784 0.42687 0.25867 0.0
O438 O 0.25595 0.44297 0.22616 0.0
C439 C 0.26175 0.38335 0.15551 0.0
O440 O 0.25738 0.38358 0.22628 0.0
O441 O 0.2637 0.43192 0.07487 0.0
C442 C 0.56101 0.84531 0.27602 0.0
O443 O 0.57361 0.8419 0.30093 0.0
O444 O 0.59236 0.84859 0.10729 0.0
Zn445 Zn 0.56733 0.83014 0.14522 0.0
O446 O 0.56924 0.81148 0.20761 0.0
C447 C 0.5586 0.8212 0.99016 0.0
O448 O 0.57211 0.83796 0.98087 0.0
O449 O 0.55583 0.84159 0.20788 0.0
C450 C 0.57709 0.80326 0.18082 0.0
O451 O 0.58475 0.80789 0.11408 0.0
C452 C 0.60717 0.85567 0.14428 0.0
O453 O 0.60683 0.85192 0.21616 0.0
O454 O 0.55234 0.81584 0.05596 0.0
C455 C 0.14508 0.71524 0.29743 0.0
O456 O 0.15204 0.73122 0.33046 0.0
O457 O 0.13685 0.74486 0.14784 0.0
Zn458 Zn 0.15626 0.73847 0.17055 0.0
O459 O 0.17608 0.75797 0.2335 0.0
C460 C 0.1636 0.74204 0.01165 0.0
O461 O 0.14739 0.74048 0.00789 0.0
O462 O 0.14536 0.71453 0.22596 0.0
C463 C 0.18542 0.77422 0.20935 0.0
O464 O 0.18121 0.77856 0.14438 0.0
C465 C 0.13054 0.7518 0.19384 0.0
O466 O 0.13659 0.75499 0.26342 0.0
O467 O 0.16902 0.73918 0.07418 0.0
H468 H 0.21669 0.97287 0.22731 0.0
H469 H 0.2103 0.99712 0.43036 0.0
H470 H 0.22131 0.02617 0.36457 0.0
H471 H 0.2323 0.04445 0.24872 0.0
H472 H 0.23792 0.01965 0.04563 0.0
H473 H 0.22764 0.99098 0.11247 0.0
C474 C 0.21775 0.9845 0.25746 0.0
C475 C 0.2127 0.98282 0.3337 0.0
C476 C 0.22392 0.00104 0.21924 0.0
C477 C 0.21409 0.99804 0.37164 0.0
C478 C 0.22039 0.01464 0.33406 0.0
C479 C 0.23133 0.03279 0.21911 0.0
C480 C 0.23588 0.03421 0.14224 0.0
C481 C 0.22527 0.01627 0.25776 0.0
C482 C 0.23447 0.01894 0.1047 0.0
C483 C 0.22861 0.00253 0.14288 0.0
H484 H 0.9544 0.2066 0.29733 0.0
H485 H 0.98306 0.19499 0.12474 0.0
H486 H 0.00903 0.20451 0.20909 0.0
H487 H 0.02382 0.21672 0.33047 0.0
H488 H 0.99557 0.22913 0.50208 0.0
H489 H 0.9691 0.21852 0.41945 0.0
C490 C 0.96631 0.20613 0.27809 0.0
C491 C 0.96679 0.20013 0.2047 0.0
C492 C 0.98123 0.2117 0.32674 0.0
C493 C 0.98234 0.19961 0.1808 0.0
C494 C 0.99719 0.20502 0.22906 0.0
C495 C 0.01183 0.21698 0.35016 0.0
C496 C 0.01167 0.2237 0.42244 0.0
C497 C 0.9968 0.21114 0.30201 0.0
C498 C 0.99605 0.22404 0.44672 0.0
C499 C 0.98093 0.21801 0.39945 0.0
H500 H 0.76693 0.79855 0.2346 0.0
H501 H 0.78896 0.79403 0.44735 0.0
H502 H 0.80644 0.7822 0.38294 0.0
H503 H 0.8157 0.77353 0.26596 0.0
H504 H 0.79405 0.77881 0.05344 0.0
H505 H 0.77617 0.79 0.11832 0.0
C506 C 0.7755 0.79492 0.2671 0.0
C507 C 0.7766 0.79714 0.34573 0.0
C508 C 0.78561 0.78832 0.22973 0.0
C509 C 0.78786 0.79246 0.38676 0.0
C510 C 0.79786 0.78571 0.34997 0.0
C511 C 0.80705 0.77709 0.23381 0.0
C512 C 0.80622 0.77532 0.15492 0.0
C513 C 0.79688 0.78364 0.27143 0.0
C514 C 0.79498 0.78007 0.11415 0.0
C515 C 0.78473 0.78645 0.15121 0.0
H516 H 0.74302 0.95989 0.75165 0.0
H517 H 0.78771 0.98469 0.90946 0.0
H518 H 0.80372 0.0111 0.82667 0.0
H519 H 0.80525 0.02686 0.70875 0.0
H520 H 0.76029 0.00239 0.5522 0.0
H521 H 0.74421 0.976 0.63523 0.0
C522 C 0.75623 0.97109 0.76821 0.0
C523 C 0.76417 0.97027 0.83665 0.0
C524 C 0.76537 0.98621 0.72033 0.0
C525 C 0.78127 0.98497 0.85723 0.0
C526 C 0.79047 5e-05 0.80976 0.0
C527 C 0.79197 0.01571 0.6925 0.0
C528 C 0.78404 0.01653 0.62405 0.0
C529 C 0.78271 0.00074 0.74095 0.0
C530 C 0.76672 0.00208 0.60444 0.0
C531 C 0.75751 0.98701 0.65194 0.0
H532 H 0.02668 0.80793 0.80814 0.0
H533 H 0.99353 0.76725 0.9728 0.0
H534 H 0.96755 0.75482 0.88637 0.0
H535 H 0.95462 0.75502 0.76279 0.0
H536 H 0.98835 0.79497 0.5967 0.0
H537 H 0.01384 0.80812 0.68508 0.0
C538 C 0.01373 0.79645 0.82555 0.0
C539 C 0.01201 0.78858 0.89701 0.0
C540 C -0.00097 0.78915 0.77508 0.0
C541 C 0.9952 0.77357 0.91817 0.0
C542 C 0.98036 0.76644 0.86872 0.0
C543 C 0.96754 0.76662 0.74589 0.0
C544 C 0.96957 0.77399 0.67317 0.0
C545 C 0.98219 0.77402 0.79679 0.0
C546 C 0.98643 0.78898 0.65216 0.0
C547 C 0.001 0.79654 0.70275 0.0
H548 H 0.20331 0.18281 0.6775 0.0
H549 H 0.22294 0.22792 0.52206 0.0
H550 H 0.21418 0.24443 0.61012 0.0
H551 H 0.20152 0.24622 0.732 0.0
H552 H 0.18313 0.2016 0.88944 0.0
H553 H 0.19102 0.18475 0.79978 0.0
C554 C 0.20552 0.19619 0.66248 0.0
C555 C 0.21364 0.20409 0.59306 0.0
C556 C 0.20085 0.20573 0.71397 0.0
C557 C 0.21667 0.22154 0.57505 0.0
C558 C 0.21171 0.23099 0.62542 0.0
C559 C 0.19923 0.23281 0.7468 0.0
C560 C 0.19172 0.22517 0.81733 0.0
C561 C 0.20391 0.22326 0.69523 0.0
C562 C 0.18895 0.20782 0.83569 0.0
C563 C 0.19339 0.19815 0.78434 0.0
H564 H 0.8731 0.30493 0.70753 0.0
H565 H 0.82494 0.2996 0.59999 0.0
H566 H 0.84398 0.32421 0.5131 0.0
H567 H 0.87431 0.34763 0.46914 0.0
H568 H 0.92235 0.353 0.57789 0.0
H569 H 0.9033 0.32781 0.66209 0.0
C570 C 0.86674 0.30918 0.6653 0.0
C571 C 0.84762 0.30049 0.6606 0.0
C572 C 0.87774 0.32325 0.61526 0.0
C573 C 0.83963 0.30609 0.60508 0.0
C574 C 0.8505 0.32014 0.55518 0.0
C575 C 0.88061 0.34315 0.51068 0.0
C576 C 0.89972 0.35219 0.51717 0.0
C577 C 0.86957 0.32882 0.55977 0.0
C578 C 0.90767 0.34631 0.57173 0.0
C579 C 0.89679 0.33194 0.62012 0.0
H580 H 0.6385 0.52624 0.51129 0.0
H581 H 0.66815 0.5718 0.36083 0.0
H582 H 0.6923 0.58682 0.4546 0.0
H583 H 0.70487 0.58701 0.57891 0.0
H584 H 0.67497 0.54172 0.73041 0.0
H585 H 0.65085 0.52667 0.63655 0.0
C586 C 0.65031 0.53941 0.49869 0.0
C587 C 0.65159 0.54785 0.42891 0.0
C588 C 0.66397 0.54807 0.55322 0.0
C589 C 0.66686 0.565 0.41398 0.0
C590 C 0.68064 0.57361 0.46763 0.0
C591 C 0.69305 0.57387 0.59169 0.0
C592 C 0.69175 0.56549 0.66162 0.0
C593 C 0.6793 0.56529 0.53747 0.0
C594 C 0.6763 0.54849 0.67715 0.0
C595 C 0.66254 0.53985 0.62338 0.0
H596 H 0.44695 0.14899 0.54715 0.0
H597 H 0.46831 0.1441 0.76099 0.0
H598 H 0.4849 0.13111 0.69825 0.0
H599 H 0.49171 0.1194 0.58411 0.0
H600 H 0.4704 0.12426 0.37009 0.0
H601 H 0.45553 0.13921 0.4316 0.0
C602 C 0.4553 0.14517 0.58005 0.0
C603 C 0.45623 0.14732 0.65875 0.0
C604 C 0.46477 0.13769 0.54365 0.0
C605 C 0.46731 0.14253 0.7004 0.0
C606 C 0.47676 0.13506 0.66458 0.0
C607 C 0.48392 0.12384 0.55072 0.0
C608 C 0.48202 0.12055 0.47271 0.0
C609 C 0.47535 0.13232 0.58645 0.0
C610 C 0.47205 0.12658 0.43023 0.0
C611 C 0.46349 0.13507 0.46541 0.0
H612 H 0.41657 0.29439 0.07557 0.0
H613 H 0.42844 0.32067 0.29298 0.0
H614 H 0.44529 0.3505 0.23262 0.0
H615 H 0.45727 0.36899 0.119 0.0
H616 H 0.4465 0.34292 0.90146 0.0
H617 H 0.42849 0.31304 0.96122 0.0
C618 C 0.42275 0.30665 0.10978 0.0
C619 C 0.42123 0.3053 0.18871 0.0
C620 C 0.43262 0.32375 0.07475 0.0
C621 C 0.42944 0.32131 0.23217 0.0
C622 C 0.43907 0.33837 0.1977 0.0
C623 C 0.4509 0.3568 0.08442 0.0
C624 C 0.4532 0.35819 0.00582 0.0
C625 C 0.44083 0.33973 0.11915 0.0
C626 C 0.44496 0.34222 0.96207 0.0
C627 C 0.43467 0.32515 0.99621 0.0
H628 H 0.7011 0.13633 0.13485 0.0
H629 H 0.67729 0.08947 0.28213 0.0
H630 H 0.6536 0.07225 0.18909 0.0
H631 H 0.63938 0.07066 0.06744 0.0
H632 H 0.66304 0.11739 0.91961 0.0
H633 H 0.68723 0.13446 0.01133 0.0
C634 C 0.69071 0.12236 0.14675 0.0
C635 C 0.69092 0.11424 0.21562 0.0
C636 C 0.67718 0.1125 0.09282 0.0
C637 C 0.67744 0.09608 0.22974 0.0
C638 C 0.66389 0.08621 0.17652 0.0
C639 C 0.64987 0.08455 0.05492 0.0
C640 C 0.64936 0.09274 0.98676 0.0
C641 C 0.66361 0.0943 0.10802 0.0
C642 C 0.66311 0.11074 0.97156 0.0
C643 C 0.6769 0.12053 0.02411 0.0
H644 H 0.86134 0.57909 0.05669 0.0
H645 H 0.85747 0.54394 0.24041 0.0
H646 H 0.87004 0.52945 0.16047 0.0
H647 H 0.88281 0.52729 0.03989 0.0
H648 H 0.88762 0.56304 0.85715 0.0
H649 H 0.87379 0.57666 0.9353 0.0
C650 C 0.8632 0.56823 0.07931 0.0
C651 C 0.8585 0.56265 0.15455 0.0
C652 C 0.87054 0.56004 0.0332 0.0
C653 C 0.86104 0.54857 0.18284 0.0
C654 C 0.86819 0.54024 0.13712 0.0
C655 C 0.8807 0.53795 0.01678 0.0
C656 C 0.88623 0.54413 0.94268 0.0
C657 C 0.87306 0.54592 0.06237 0.0
C658 C 0.88351 0.55805 0.91399 0.0
C659 C 0.87564 0.56586 0.95869 0.0
H660 H 0.56388 0.70358 0.92086 0.0
H661 H 0.5507 0.67191 0.71642 0.0
H662 H 0.53586 0.64372 0.78976 0.0
H663 H 0.52699 0.62812 0.91188 0.0
H664 H 0.53992 0.65988 0.11607 0.0
H665 H 0.55447 0.68801 0.04261 0.0
C666 C 0.55778 0.69052 0.89222 0.0
C667 C 0.55847 0.68987 0.81323 0.0
C668 C 0.54922 0.67439 0.93466 0.0
C669 C 0.55038 0.67282 0.77713 0.0
C670 C 0.5419 0.65669 0.81904 0.0
C671 C 0.53298 0.64119 0.9404 0.0
C672 C 0.53241 0.64187 0.01944 0.0
C673 C 0.5413 0.65732 0.89783 0.0
C674 C 0.54015 0.65893 0.05535 0.0
C675 C 0.54851 0.67504 0.01338 0.0
H676 H 0.37779 0.91593 0.85816 0.0
H677 H 0.34776 0.88186 0.04645 0.0
H678 H 0.32102 0.86485 0.96624 0.0
H679 H 0.30609 0.85995 0.84331 0.0
H680 H 0.33593 0.89452 0.65594 0.0
H681 H 0.36292 0.91097 0.7353 0.0
C682 C 0.36541 0.90478 0.88179 0.0
C683 C 0.36478 0.9002 0.95827 0.0
C684 C 0.35008 0.89511 0.83549 0.0
C685 C 0.3486 0.88572 0.98785 0.0
C686 C 0.33332 0.87596 0.94198 0.0
C687 C 0.31853 0.871 0.8196 0.0
C688 C 0.319 0.87597 0.74369 0.0
C689 C 0.3339 0.88056 0.86578 0.0
C690 C 0.33519 0.89042 0.71414 0.0
C691 C 0.35062 0.89985 0.75951 0.0
H692 H 0.13895 0.44683 0.82454 0.0
H693 H 0.09081 0.42712 0.68622 0.0
H694 H 0.0777 0.43919 0.77633 0.0
H695 H 0.07952 0.45444 0.89598 0.0
H696 H 0.1273 0.47333 0.03603 0.0
H697 H 0.14088 0.46229 0.94364 0.0
C698 C 0.12567 0.44533 0.81359 0.0
C699 C 0.1159 0.43613 0.74855 0.0
C700 C 0.11807 0.45196 0.8663 0.0
C701 C 0.09862 0.43415 0.73577 0.0
C702 C 0.09109 0.441 0.78738 0.0
C703 C 0.0929 0.45615 0.90645 0.0
C704 C 0.10235 0.46467 0.973 0.0
C705 C 0.10061 0.44974 0.85321 0.0
C706 C 0.11968 0.46676 0.98548 0.0
C707 C 0.12749 0.4605 0.93255 0.0
H708 H 0.11124 0.6521 0.538 0.0
H709 H 0.08836 0.61974 0.33754 0.0
H710 H 0.10436 0.64703 0.25976 0.0
H711 H 0.12428 0.68021 0.24872 0.0
H712 H 0.1465 0.71258 0.44966 0.0
H713 H 0.13139 0.68515 0.52693 0.0
C714 C 0.1098 0.651 0.47729 0.0
C715 C 0.09859 0.63391 0.44374 0.0
C716 C 0.11891 0.66676 0.43286 0.0
C717 C 0.09685 0.63274 0.36495 0.0
C718 C 0.10601 0.64834 0.32033 0.0
C719 C 0.1259 0.68125 0.30937 0.0
C720 C 0.13648 0.69842 0.34329 0.0
C721 C 0.117 0.66543 0.35369 0.0
C722 C 0.13837 0.69954 0.42203 0.0
C723 C 0.12974 0.68386 0.46636 0.0
H724 H 0.37531 0.48814 0.41175 0.0
H725 H 0.34556 0.46423 0.61702 0.0
H726 H 0.31769 0.44603 0.54486 0.0
H727 H 0.302 0.43623 0.42387 0.0
H728 H 0.33128 0.46041 0.21818 0.0
H729 H 0.35918 0.47924 0.29034 0.0
C730 C 0.36272 0.47899 0.44075 0.0
C731 C 0.36256 0.47748 0.51969 0.0
C732 C 0.34671 0.46858 0.3989 0.0
C733 C 0.34609 0.46567 0.55638 0.0
C734 C 0.33015 0.45521 0.51514 0.0
C735 C 0.31449 0.4456 0.39467 0.0
C736 C 0.31462 0.44681 0.31572 0.0
C737 C 0.33035 0.45644 0.43643 0.0
C738 C 0.33084 0.4592 0.27891 0.0
C739 C 0.34678 0.46995 0.32013 0.0
H740 H 0.51692 0.87464 0.45762 0.0
H741 H 0.55617 0.88178 0.6286 0.0
H742 H 0.57001 0.86946 0.54322 0.0
H743 H 0.57108 0.85696 0.4198 0.0
H744 H 0.53222 0.85059 0.24817 0.0
H745 H 0.51814 0.86244 0.33427 0.0
C746 C 0.52844 0.87342 0.47653 0.0
C747 C 0.53545 0.87906 0.54961 0.0
C748 C 0.53645 0.86657 0.42693 0.0
C749 C 0.5505 0.87753 0.57274 0.0
C750 C 0.55842 0.87051 0.52392 0.0
C751 C 0.55953 0.85816 0.40112 0.0
C752 C 0.55271 0.85287 0.32758 0.0
C753 C 0.55155 0.86505 0.45082 0.0
C754 C 0.53778 0.85459 0.30434 0.0
C755 C 0.52969 0.86132 0.35361 0.0
H756 H 0.22589 0.10069 0.52919 0.0
H757 H 0.20328 0.12257 0.68835 0.0
H758 H 0.2032 0.10224 0.78558 0.0
H759 H 0.21387 0.08197 0.8299 0.0
H760 H 0.23867 0.06168 0.674 0.0
H761 H 0.23303 0.07721 0.57054 0.0
C762 C 0.22061 0.10074 0.58472 0.0
C763 C 0.21491 0.11334 0.60194 0.0
C764 C 0.22107 0.08936 0.64108 0.0
C765 C 0.20802 0.1132 0.67403 0.0
C766 C 0.20795 0.10157 0.72968 0.0
C767 C 0.21772 0.08061 0.77308 0.0
C768 C 0.22704 0.07101 0.76001 0.0
C769 C 0.21512 0.09014 0.71458 0.0
C770 C 0.23166 0.06916 0.68583 0.0
C771 C 0.22856 0.07815 0.62667 0.0
H772 H 0.88482 0.13533 0.57658 0.0
H773 H 0.85998 0.09041 0.73348 0.0
H774 H 0.88246 0.10868 0.82851 0.0
H775 H 0.90746 0.13786 0.87037 0.0
H776 H 0.93138 0.18372 0.71804 0.0
H777 H 0.91127 0.16445 0.61725 0.0
C778 C 0.88441 0.12952 0.63142 0.0
C779 C 0.87062 0.11159 0.6481 0.0
C780 C 0.89726 0.14021 0.68647 0.0
C781 C 0.87031 0.10424 0.71936 0.0
C782 C 0.88321 0.11465 0.77373 0.0
C783 C 0.90855 0.14364 0.81484 0.0
C784 C 0.92085 0.16225 0.80195 0.0
C785 C 0.89653 0.13272 0.7583 0.0
C786 C 0.922 0.16944 0.72955 0.0
C787 C 0.91042 0.15846 0.67205 0.0
H788 H 0.90002 0.77672 0.61863 0.0
H789 H 0.8605 0.72516 0.52172 0.0
H790 H 0.83669 0.72435 0.60257 0.0
H791 H 0.82809 0.7368 0.70988 0.0
H792 H 0.8679 0.78851 0.8058 0.0
H793 H 0.89049 0.79099 0.71457 0.0
C794 C 0.88616 0.76535 0.61497 0.0
C795 C 0.88204 0.75084 0.56559 0.0
C796 C 0.8726 0.76506 0.66105 0.0
C797 C 0.86399 0.73641 0.55992 0.0
C798 C 0.85039 0.73595 0.60608 0.0
C799 C 0.84158 0.74881 0.70986 0.0
C800 C 0.84637 0.76228 0.76556 0.0
C801 C 0.85465 0.75 0.65809 0.0
C802 C 0.86387 0.77783 0.76411 0.0
C803 C 0.87687 0.77922 0.71227 0.0
H804 H 0.12719 0.23028 0.84831 0.0
H805 H 0.13163 0.27682 0.96679 0.0
H806 H 0.10689 0.27544 0.89049 0.0
H807 H 0.08555 0.26223 0.78449 0.0
H808 H 0.08117 0.21548 0.66733 0.0
H809 H 0.10404 0.21544 0.75037 0.0
C810 C 0.12276 0.24014 0.85739 0.0
C811 C 0.13142 0.25384 0.91208 0.0
C812 C 0.10844 0.23911 0.81416 0.0
C813 C 0.12527 0.26626 0.92448 0.0
C814 C 0.11111 0.26544 0.88103 0.0
C815 C 0.08933 0.25182 0.77792 0.0
C816 C 0.08177 0.239 0.71913 0.0
C817 C 0.10276 0.25206 0.82506 0.0
C818 C 0.0868 0.22556 0.7118 0.0
C819 C 0.1 0.2256 0.75892 0.0
H820 H 0.76591 0.86244 0.64614 0.0
H821 H 0.74979 0.81714 0.79801 0.0
H822 H 0.74625 0.83466 0.89965 0.0
H823 H 0.74588 0.86217 0.94267 0.0
H824 H 0.76015 0.90642 0.78661 0.0
H825 H 0.76602 0.88983 0.68897 0.0
C826 C 0.76187 0.85645 0.70169 0.0
C827 C 0.75815 0.83851 0.7145 0.0
C828 C 0.75923 0.8663 0.75878 0.0
C829 C 0.75277 0.83094 0.78674 0.0
C830 C 0.75064 0.8409 0.84471 0.0
C831 C 0.75029 0.86818 0.88733 0.0
C832 C 0.75248 0.88548 0.87198 0.0
C833 C 0.75347 0.85847 0.83091 0.0
C834 C 0.75822 0.89308 0.79993 0.0
C835 C 0.76166 0.88364 0.74405 0.0
H836 H 0.15028 0.878 0.62407 0.0
H837 H 0.14785 0.92704 0.66417 0.0
H838 H 0.12404 0.911 0.75884 0.0
H839 H 0.10395 0.88296 0.82971 0.0
H840 H 0.10685 0.83418 0.78813 0.0
H841 H 0.13048 0.8503 0.694 0.0
C842 C 0.1446 0.88525 0.65344 0.0
C843 C 0.15084 0.9037 0.6371 0.0
C844 C 0.13097 0.87598 0.70733 0.0
C845 C 0.1433 0.91284 0.6758 0.0
C846 C 0.12968 0.90367 0.72982 0.0
C847 C 0.10972 0.87584 0.79992 0.0
C848 C 0.10361 0.85738 0.81592 0.0
C849 C 0.1234 0.88522 0.74591 0.0
C850 C 0.11128 0.84838 0.77697 0.0
C851 C 0.12481 0.85758 0.72314 0.0
H852 H 0.76825 0.90182 0.14212 0.0
H853 H 0.75324 0.93101 0.29901 0.0
H854 H 0.75184 0.91087 0.40065 0.0
H855 H 0.7523 0.88338 0.4422 0.0
H856 H 0.76571 0.85341 0.2825 0.0
H857 H 0.77013 0.87539 0.18456 0.0
C858 C 0.76497 0.90402 0.19875 0.0
C859 C 0.7608 0.91788 0.21286 0.0
C860 C 0.76358 0.89204 0.25618 0.0
C861 C 0.75649 0.92043 0.2866 0.0
C862 C 0.75557 0.90885 0.34464 0.0
C863 C 0.75626 0.88169 0.38606 0.0
C864 C 0.75851 0.86667 0.36966 0.0
C865 C 0.75862 0.89431 0.32962 0.0
C866 C 0.76373 0.86475 0.29664 0.0
C867 C 0.76633 0.87735 0.24056 0.0
H868 H 0.12603 0.85629 0.12063 0.0
H869 H 0.0782 0.8606 0.16477 0.0
H870 H 0.09509 0.88404 0.26004 0.0
H871 H 0.12349 0.90305 0.33123 0.0
H872 H 0.17098 0.89819 0.28484 0.0
H873 H 0.15408 0.87519 0.18952 0.0
C874 C 0.11922 0.86231 0.15098 0.0
C875 C 0.10086 0.85667 0.13576 0.0
C876 C 0.12897 0.87569 0.20514 0.0
C877 C 0.09232 0.86469 0.17554 0.0
C878 C 0.10198 0.87809 0.22993 0.0
C879 C 0.13015 0.897 0.30007 0.0
C880 C 0.14848 0.90234 0.31528 0.0
C881 C 0.12032 0.88367 0.24524 0.0
C882 C 0.1569 0.89434 0.27445 0.0
C883 C 0.14725 0.88116 0.2199 0.0
H884 H 0.16831 0.25256 0.29053 0.0
H885 H 0.12545 0.21355 0.14632 0.0
H886 H 0.10252 0.21359 0.22933 0.0
H887 H 0.09477 0.22689 0.33591 0.0
H888 H 0.13763 0.26615 0.47921 0.0
H889 H 0.16042 0.2639 0.40302 0.0
C890 C 0.15395 0.24379 0.27788 0.0
C891 C 0.14865 0.23321 0.2118 0.0
C892 C 0.14084 0.24418 0.3249 0.0
C893 C 0.12995 0.2219 0.19659 0.0
C894 C 0.11681 0.22201 0.24375 0.0
C895 C 0.1091 0.23494 0.35055 0.0
C896 C 0.11452 0.24687 0.41245 0.0
C897 C 0.12213 0.23352 0.30674 0.0
C898 C 0.1331 0.25696 0.43147 0.0
C899 C 0.14615 0.25566 0.38802 0.0
H900 H 0.88284 0.78577 0.14371 0.0
H901 H 0.88988 0.74989 0.99221 0.0
H902 H 0.9149 0.75246 0.06916 0.0
H903 H 0.9317 0.76138 0.18824 0.0
H904 H 0.92423 0.79677 0.34114 0.0
H905 H 0.90288 0.79832 0.25369 0.0
C906 C 0.89 0.77869 0.12706 0.0
C907 C 0.88425 0.76735 0.06332 0.0
C908 C 0.90432 0.78014 0.17178 0.0
C909 C 0.89389 0.75855 0.04157 0.0
C910 C 0.9082 0.76 0.08557 0.0
C911 C 0.92577 0.7698 0.20173 0.0
C912 C 0.92926 0.77859 0.27191 0.0
C913 C 0.91312 0.77026 0.1521 0.0
C914 C 0.92161 0.78964 0.28793 0.0
C915 C 0.90928 0.79044 0.23817 0.0
H916 H 0.21019 0.0974 0.11921 0.0
H917 H 0.26872 0.12738 0.09239 0.0
H918 H 0.27073 0.15156 0.17351 0.0
H919 H 0.25624 0.16306 0.2591 0.0
H920 H 0.19801 0.13226 0.29371 0.0
H921 H 0.19546 0.1097 0.2011 0.0
C922 C 0.22337 0.10928 0.13067 0.0
C923 C 0.23929 0.11051 0.1002 0.0
C924 C 0.22447 0.12302 0.17845 0.0
C925 C 0.25626 0.126 0.11566 0.0
C926 C 0.25743 0.13987 0.16186 0.0
C927 C 0.24292 0.15162 0.24538 0.0
C928 C 0.22733 0.14935 0.28318 0.0
C929 C 0.24166 0.13839 0.19443 0.0
C930 C 0.21022 0.13431 0.26531 0.0
C931 C 0.20877 0.12136 0.21273 0.0
H932 H 0.83319 0.09554 0.27434 0.0
H933 H 0.86501 0.07255 0.36006 0.0
H934 H 0.89054 0.09295 0.27904 0.0
H935 H 0.90469 0.11926 0.19283 0.0
H936 H 0.87331 0.14359 0.11606 0.0
H937 H 0.84676 0.12078 0.18506 0.0
C938 C 0.84556 0.09469 0.27421 0.0
C939 C 0.8472 0.08251 0.32293 0.0
C940 C 0.86038 0.10695 0.23009 0.0
C941 C 0.86342 0.0818 0.32286 0.0
C942 C 0.87805 0.09353 0.27695 0.0
C943 C 0.89199 0.11947 0.19082 0.0
C944 C 0.89101 0.13318 0.14988 0.0
C945 C 0.87685 0.10651 0.23188 0.0
C946 C 0.87449 0.13331 0.14786 0.0
C947 C 0.85927 0.12023 0.18703 0.0
H948 H 0.94044 0.45813 0.23284 0.0
H949 H 0.88991 0.40818 0.19094 0.0
H950 H 0.8815 0.42378 0.09683 0.0
H951 H 0.88852 0.45167 0.02728 0.0
H952 H 0.93923 0.50144 0.06988 0.0
H953 H 0.9475 0.48576 0.16344 0.0
C954 C 0.92758 0.45059 0.20314 0.0
C955 C 0.91581 0.432 0.21894 0.0
C956 C 0.92284 0.45963 0.1495 0.0
C957 C 0.89923 0.42249 0.17978 0.0
C958 C 0.8944 0.43141 0.12609 0.0
C959 C 0.90136 0.45912 0.05717 0.0
C960 C 0.91321 0.47772 0.0417 0.0
C961 C 0.90609 0.44999 0.11069 0.0
C962 C 0.92984 0.48712 0.08069 0.0
C963 C 0.9346 0.47817 0.13417 0.0
H964 H 0.56468 0.44425 0.25387 0.0
H965 H 0.60677 0.4837 0.10905 0.0
H966 H 0.58946 0.46677 0.99797 0.0
H967 H 0.56037 0.44338 0.94295 0.0
H968 H 0.51686 0.40645 0.08944 0.0
H969 H 0.53663 0.41963 0.19894 0.0
C970 C 0.5703 0.4488 0.19799 0.0
C971 C 0.58698 0.46508 0.18931 0.0
C972 C 0.55981 0.43962 0.13474 0.0
C973 C 0.59397 0.47111 0.11674 0.0
C974 C 0.58401 0.46153 0.05338 0.0
C975 C 0.55538 0.43803 0.99877 0.0
C976 C 0.53721 0.42408 0.00841 0.0
C977 C 0.5666 0.44617 0.06172 0.0
C978 C 0.53078 0.41733 0.08093 0.0
C979 C 0.54207 0.42483 0.14348 0.0
H980 H 0.5786 0.11059 0.96853 0.0
H981 H 0.56441 0.0543 0.99676 0.0
H982 H 0.5412 0.04987 0.08858 0.0
H983 H 0.52526 0.06186 0.16169 0.0
H984 H 0.53911 0.11806 0.13615 0.0
H985 H 0.56212 0.1226 0.04173 0.0
C986 C 0.57043 0.09735 0.99478 0.0
C987 C 0.57329 0.08282 0.97589 0.0
C988 C 0.55705 0.09487 0.04774 0.0
C989 C 0.56255 0.06574 0.01028 0.0
C990 C 0.54925 0.06318 0.0628 0.0
C991 C 0.53325 0.07513 0.1355 0.0
C992 C 0.53049 0.08962 0.15606 0.0
C993 C 0.54643 0.07764 0.08201 0.0
C994 C 0.54096 0.10668 0.12128 0.0
C995 C 0.55413 0.10929 0.06746 0.0
H996 H 0.74747 0.59534 0.11858 0.0
H997 H 0.74444 0.54978 0.99645 0.0
H998 H 0.76701 0.54945 0.08048 0.0
H999 H 0.78967 0.56388 0.18064 0.0
H1000 H 0.7928 0.60931 0.3036 0.0
H1001 H 0.76817 0.60796 0.22682 0.0
C1002 C 0.75145 0.58509 0.1112 0.0
C1003 C 0.74439 0.57273 0.05071 0.0
C1004 C 0.76471 0.58517 0.15894 0.0
C1005 C 0.74971 0.55953 0.04222 0.0
C1006 C 0.76273 0.5594 0.08995 0.0
C1007 C 0.78495 0.57348 0.1907 0.0
C1008 C 0.79324 0.58687 0.2468 0.0
C1009 C 0.77071 0.57251 0.14695 0.0
C1010 C 0.78673 0.59897 0.26028 0.0
C1011 C 0.77264 0.59818 0.2165 0.0
H1012 H 0.39684 0.18517 0.98717 0.0
H1013 H 0.45334 0.20101 0.0209 0.0
H1014 H 0.45522 0.22078 0.12562 0.0
H1015 H 0.44097 0.23457 0.20315 0.0
H1016 H 0.38448 0.21852 0.16497 0.0
H1017 H 0.38251 0.19782 0.06586 0.0
C1018 C 0.4096 0.19288 0.01741 0.0
C1019 C 0.42497 0.19174 0.99594 0.0
C1020 C 0.4106 0.20426 0.07641 0.0
C1021 C 0.44131 0.20168 0.03635 0.0
C1022 C 0.4424 0.21302 0.09596 0.0
C1023 C 0.42822 0.22649 0.17329 0.0
C1024 C 0.41293 0.2282 0.1912 0.0
C1025 C 0.42717 0.21459 0.11579 0.0
C1026 C 0.39649 0.21757 0.15218 0.0
C1027 C 0.39533 0.2057 0.09547 0.0
H1028 H 0.83824 0.24731 0.10799 0.0
H1029 H 0.79385 0.25203 0.01263 0.0
H1030 H 0.77292 0.23034 0.10471 0.0
H1031 H 0.76642 0.20693 0.19986 0.0
H1032 H 0.81053 0.20187 0.29516 0.0
H1033 H 0.83239 0.2268 0.21524 0.0
C1034 C 0.82409 0.24396 0.1084 0.0
C1035 C 0.81757 0.25102 0.05245 0.0
C1036 C 0.81199 0.23111 0.16038 0.0
C1037 C 0.79921 0.24664 0.05446 0.0
C1038 C 0.78717 0.23412 0.10675 0.0
C1039 C 0.78084 0.21138 0.20345 0.0
C1040 C 0.78685 0.20236 0.25196 0.0
C1041 C 0.79327 0.22571 0.15771 0.0
C1042 C 0.80559 0.20851 0.25757 0.0
C1043 C 0.81807 0.22275 0.21193 0.0
H1044 H 0.4385 0.25174 0.48585 0.0
H1045 H 0.39384 0.24276 0.63088 0.0
H1046 H 0.39967 0.22276 0.71056 0.0
H1047 H 0.41568 0.2057 0.73255 0.0
H1048 H 0.46094 0.21534 0.59044 0.0
H1049 H 0.45657 0.23714 0.51559 0.0
C1050 C 0.43023 0.24564 0.53558 0.0
C1051 C 0.41565 0.24859 0.55193 0.0
C1052 C 0.43356 0.23404 0.58085 0.0
C1053 C 0.40516 0.24074 0.61697 0.0
C1054 C 0.40838 0.22916 0.66224 0.0
C1055 C 0.42458 0.21261 0.68518 0.0
C1056 C 0.43839 0.20874 0.66594 0.0
C1057 C 0.4222 0.22532 0.64348 0.0
C1058 C 0.45013 0.21805 0.60576 0.0
C1059 C 0.44764 0.23049 0.56309 0.0
H1060 H 0.77757 0.22972 0.68145 0.0
H1061 H 0.77678 0.18869 0.82803 0.0
H1062 H 0.75385 0.16466 0.74848 0.0
H1063 H 0.73783 0.15555 0.62747 0.0
H1064 H 0.73909 0.1967 0.47991 0.0
H1065 H 0.75755 0.22034 0.57086 0.0
C1066 C 0.77217 0.21552 0.69653 0.0
C1067 C 0.77915 0.21098 0.75943 0.0
C1068 C 0.75908 0.20177 0.65034 0.0
C1069 C 0.77177 0.19254 0.77933 0.0
C1070 C 0.75868 0.17878 0.7338 0.0
C1071 C 0.74173 0.16963 0.61596 0.0
C1072 C 0.73748 0.17438 0.54612 0.0
C1073 C 0.75276 0.18325 0.66768 0.0
C1074 C 0.74241 0.19266 0.53273 0.0
C1075 C 0.7531 0.20625 0.5845 0.0
H1076 H 0.79284 0.57448 0.78698 0.0
H1077 H 0.75029 0.56514 0.62886 0.0
H1078 H 0.76692 0.56026 0.52843 0.0
H1079 H 0.79433 0.56094 0.48338 0.0
H1080 H 0.83831 0.57266 0.63722 0.0
H1081 H 0.82011 0.57384 0.74194 0.0
C1082 C 0.78718 0.57125 0.73064 0.0
C1083 C 0.77043 0.57033 0.7153 0.0
C1084 C 0.797 0.56878 0.67253 0.0
C1085 C 0.76325 0.56615 0.64203 0.0
C1086 C 0.77271 0.56326 0.58456 0.0
C1087 C 0.79986 0.56339 0.53998 0.0
C1088 C 0.81767 0.56671 0.55249 0.0
C1089 C 0.7897 0.56483 0.59894 0.0
C1090 C 0.82463 0.57005 0.62615 0.0
C1091 C 0.81428 0.57085 0.6859 0.0
H1092 H 0.55243 0.0591 0.66445 0.0
H1093 H 0.60301 0.10969 0.6337 0.0
H1094 H 0.5885 0.11919 0.53849 0.0
H1095 H 0.56122 0.11307 0.46531 0.0
H1096 H 0.51084 0.06235 0.49926 0.0
H1097 H 0.52559 0.05299 0.5924 0.0
C1098 C 0.56037 0.07221 0.63696 0.0
C1099 C 0.57879 0.08367 0.65611 0.0
C1100 C 0.55195 0.07757 0.58306 0.0
C1101 C 0.5888 0.10061 0.61987 0.0
C1102 C 0.58051 0.10604 0.56557 0.0
C1103 C 0.55348 0.09997 0.49311 0.0
C1104 C 0.53494 0.08844 0.47533 0.0
C1105 C 0.56205 0.09464 0.54693 0.0
C1106 C 0.5251 0.07151 0.51185 0.0
C1107 C 0.53352 0.06612 0.56513 0.0
H1108 H 0.88675 0.43055 0.5254 0.0
H1109 H 0.93925 0.43605 0.57464 0.0
H1110 H 0.94458 0.45848 0.67146 0.0
H1111 H 0.93486 0.47689 0.74018 0.0
H1112 H 0.88261 0.47208 0.69319 0.0
H1113 H 0.87665 0.44892 0.59728 0.0
C1114 C 0.89931 0.43661 0.55754 0.0
C1115 C 0.91259 0.43164 0.54258 0.0
C1116 C 0.90237 0.44962 0.61327 0.0
C1117 C 0.92881 0.43963 0.58475 0.0
C1118 C 0.9319 0.45248 0.64018 0.0
C1119 C 0.92212 0.47082 0.70913 0.0
C1120 C 0.90923 0.47626 0.72358 0.0
C1121 C 0.91884 0.45764 0.65451 0.0
C1122 C 0.89278 0.46814 0.683 0.0
C1123 C 0.88938 0.45492 0.6282 0.0
H1124 H 0.54083 0.44622 0.43061 0.0
H1125 H 0.56742 0.49983 0.53131 0.0
H1126 H 0.55152 0.48705 0.64934 0.0
H1127 H 0.531 0.46086 0.725 0.0
H1128 H 0.50482 0.40679 0.62899 0.0
H1129 H 0.51972 0.41953 0.508 0.0
C1130 C 0.54297 0.45507 0.47827 0.0
C1131 C 0.55526 0.47394 0.47229 0.0
C1132 C 0.53401 0.44757 0.54682 0.0
C1133 C 0.55809 0.48526 0.53462 0.0
C1134 C 0.54901 0.47797 0.60215 0.0
C1135 C 0.52847 0.4518 0.67772 0.0
C1136 C 0.51683 0.4329 0.68605 0.0
C1137 C 0.53712 0.45916 0.60907 0.0
C1138 C 0.51379 0.4214 0.62411 0.0
C1139 C 0.52226 0.42868 0.55493 0.0
H1140 H 0.5548 0.78385 0.29574 0.0
H1141 H 0.5998 0.7894 0.16175 0.0
H1142 H 0.60132 0.76616 0.23807 0.0
H1143 H 0.59157 0.74634 0.34937 0.0
H1144 H 0.54656 0.74097 0.48323 0.0
H1145 H 0.54304 0.76173 0.39902 0.0
C1146 C 0.56491 0.77994 0.2831 0.0
C1147 C 0.57737 0.78853 0.22409 0.0
C1148 C 0.56562 0.76652 0.3268 0.0
C1149 C 0.59015 0.78307 0.20733 0.0
C1150 C 0.59101 0.76978 0.25087 0.0
C1151 C 0.58076 0.74941 0.35939 0.0
C1152 C 0.56952 0.74229 0.42318 0.0
C1153 C 0.57903 0.76166 0.31158 0.0
C1154 C 0.5555 0.74635 0.43489 0.0
C1155 C 0.55355 0.75833 0.38706 0.0
H1156 H 0.24871 0.84121 0.38 0.0
H1157 H 0.24864 0.79757 0.50614 0.0
H1158 H 0.22558 0.77515 0.422 0.0
H1159 H 0.2033 0.76783 0.3209 0.0
H1160 H 0.20313 0.8113 0.19482 0.0
H1161 H 0.22837 0.83392 0.27116 0.0
C1162 C 0.24393 0.82683 0.38831 0.0
C1163 C 0.25027 0.8211 0.44991 0.0
C1164 C 0.23038 0.81396 0.34065 0.0
C1165 C 0.24395 0.80238 0.45949 0.0
C1166 C 0.23065 0.78952 0.41171 0.0
C1167 C 0.20881 0.78226 0.31001 0.0
C1168 C 0.20118 0.7879 0.25315 0.0
C1169 C 0.22336 0.79514 0.35368 0.0
C1170 C 0.20868 0.80662 0.2387 0.0
C1171 C 0.22313 0.81955 0.28224 0.0
H1172 H 0.18572 0.39509 0.50265 0.0
H1173 H 0.18994 0.4477 0.47336 0.0
H1174 H 0.21391 0.45583 0.37911 0.0
H1175 H 0.23384 0.44798 0.30636 0.0
H1176 H 0.22926 0.39523 0.33783 0.0
H1177 H 0.20522 0.38722 0.43043 0.0
C1178 C 0.19182 0.40835 0.47569 0.0
C1179 C 0.18605 0.42078 0.49505 0.0
C1180 C 0.20557 0.41293 0.42219 0.0
C1181 C 0.19413 0.43788 0.4594 0.0
C1182 C 0.20785 0.44254 0.40565 0.0
C1183 C 0.2276 0.43474 0.33354 0.0
C1184 C 0.23337 0.42224 0.31523 0.0
C1185 C 0.21372 0.43018 0.38684 0.0
C1186 C 0.2251 0.40512 0.35084 0.0
C1187 C 0.21134 0.40051 0.4038 0.0
H1188 H 0.44624 0.91442 0.58623 0.0
H1189 H 0.47003 0.89389 0.42626 0.0
H1190 H 0.44953 0.89324 0.32876 0.0
H1191 H 0.42617 0.89997 0.28693 0.0
H1192 H 0.40343 0.92235 0.44292 0.0
H1193 H 0.42193 0.92041 0.54447 0.0
C1194 C 0.44689 0.90975 0.5301 0.0
C1195 C 0.45974 0.90432 0.51353 0.0
C1196 C 0.43517 0.90961 0.47375 0.0
C1197 C 0.46039 0.8983 0.44049 0.0
C1198 C 0.44862 0.89784 0.38468 0.0
C1199 C 0.42499 0.90416 0.34337 0.0
C1200 C 0.41341 0.91127 0.35735 0.0
C1201 C 0.4361 0.90362 0.4005 0.0
C1202 C 0.41223 0.9168 0.43071 0.0
C1203 C 0.42288 0.9158 0.48865 0.0
H1204 H 0.11779 0.57598 0.45955 0.0
H1205 H 0.06328 0.53912 0.53897 0.0
H1206 H 0.06418 0.51346 0.48041 0.0
H1207 H 0.07976 0.50183 0.40106 0.0
H1208 H 0.13277 0.53904 0.30941 0.0
H1209 H 0.13348 0.56424 0.38031 0.0
C1210 C 0.10615 0.56232 0.46428 0.0
C1211 C 0.09047 0.55944 0.50329 0.0
C1212 C 0.10663 0.5477 0.42917 0.0
C1213 C 0.07543 0.54169 0.50861 0.0
C1214 C 0.07599 0.52701 0.47558 0.0
C1215 C 0.09164 0.51538 0.39804 0.0
C1216 C 0.10633 0.5186 0.35122 0.0
C1217 C 0.09145 0.52989 0.43527 0.0
C1218 C 0.12144 0.53628 0.34604 0.0
C1219 C 0.12175 0.55067 0.38591 0.0
H1220 H 0.43082 0.54583 0.52825 0.0
H1221 H 0.47119 0.55721 0.6997 0.0
H1222 H 0.49476 0.58085 0.62042 0.0
H1223 H 0.50431 0.59597 0.49738 0.0
H1224 H 0.46364 0.58483 0.32709 0.0
H1225 H 0.43974 0.56378 0.41175 0.0
C1226 C 0.44476 0.55359 0.54837 0.0
C1227 C 0.44936 0.5496 0.61895 0.0
C1228 C 0.45817 0.56724 0.50288 0.0
C1229 C 0.46737 0.55998 0.64521 0.0
C1230 C 0.48084 0.57347 0.59992 0.0
C1231 C 0.49019 0.58922 0.47926 0.0
C1232 C 0.48585 0.59175 0.40551 0.0
C1233 C 0.47647 0.57693 0.52795 0.0
C1234 C 0.46743 0.58305 0.38332 0.0
C1235 C 0.45373 0.57089 0.43153 0.0
H1236 H 0.05766 0.54855 0.83095 0.0
H1237 H 0.11253 0.59396 0.81037 0.0
H1238 H 0.12276 0.58075 0.90844 0.0
H1239 H 0.11631 0.55509 0.9935 0.0
H1240 H 0.06129 0.50952 0.00857 0.0
H1241 H 0.05097 0.52405 0.91865 0.0
C1242 C 0.07186 0.55569 0.84811 0.0
C1243 C 0.08435 0.57213 0.81301 0.0
C1244 C 0.07765 0.54789 0.90304 0.0
C1245 C 0.10264 0.58125 0.83653 0.0
C1246 C 0.10851 0.57366 0.89228 0.0
C1247 C 0.10206 0.54841 0.97739 0.0
C1248 C 0.08964 0.53116 0.00724 0.0
C1249 C 0.09617 0.55679 0.92488 0.0
C1250 C 0.07119 0.52271 0.98603 0.0
C1251 C 0.06524 0.53101 0.93467 0.0
H1252 H 0.4468 0.57189 0.05597 0.0
H1253 H 0.48041 0.54728 0.08538 0.0
H1254 H 0.45819 0.52028 0.01657 0.0
H1255 H 0.43052 0.50474 0.93985 0.0
H1256 H 0.39832 0.53043 0.90037 0.0
H1257 H 0.41842 0.55575 0.98309 0.0
C1258 C 0.44921 0.56057 0.04773 0.0
C1259 C 0.46529 0.56165 0.0753 0.0
C1260 C 0.43653 0.54522 0.00698 0.0
C1261 C 0.46823 0.54688 0.06408 0.0
C1262 C 0.45549 0.53139 0.02506 0.0
C1263 C 0.42761 0.51563 0.95115 0.0
C1264 C 0.41286 0.51567 0.91517 0.0
C1265 C 0.43973 0.53052 0.99544 0.0
C1266 C 0.40952 0.53009 0.92835 0.0
C1267 C 0.42109 0.54461 0.97496 0.0
H1268 H 0.49306 0.9158 0.88926 0.0
H1269 H 0.45436 0.86298 0.79967 0.0
H1270 H 0.4302 0.86253 0.87717 0.0
H1271 H 0.41974 0.87831 0.96278 0.0
H1272 H 0.4582 0.93233 0.04272 0.0
H1273 H 0.48283 0.93124 0.97594 0.0
C1274 C 0.47944 0.90399 0.88791 0.0
C1275 C 0.47551 0.88933 0.83955 0.0
C1276 C 0.46553 0.90423 0.92979 0.0
C1277 C 0.4577 0.87435 0.83701 0.0
C1278 C 0.44389 0.87416 0.88084 0.0
C1279 C 0.43353 0.8898 0.96587 0.0
C1280 C 0.43713 0.90541 0.0074 0.0
C1281 C 0.44757 0.88922 0.92613 0.0
C1282 C 0.45505 0.92023 0.01059 0.0
C1283 C 0.46915 0.91958 0.97274 0.0
H1284 H 0.21338 0.44739 0.80599 0.0
H1285 H 0.16799 0.39296 0.84108 0.0
H1286 H 0.18555 0.38717 0.93427 0.0
H1287 H 0.21348 0.39736 0.00548 0.0
H1288 H 0.25917 0.45165 0.97291 0.0
H1289 H 0.24174 0.45768 0.87846 0.0
C1290 C 0.20732 0.43428 0.83412 0.0
C1291 C 0.18937 0.42064 0.81659 0.0
C1292 C 0.21752 0.431 0.88779 0.0
C1293 C 0.18175 0.40371 0.85346 0.0
C1294 C 0.19178 0.40037 0.90676 0.0
C1295 C 0.21971 0.41054 0.97781 0.0
C1296 C 0.23761 0.42404 0.99619 0.0
C1297 C 0.20965 0.41389 0.92424 0.0
C1298 C 0.24541 0.44102 0.95968 0.0
C1299 C 0.23545 0.44447 0.90581 0.0
H1300 H 0.53876 0.75037 0.80531 0.0
H1301 H 0.59415 0.78497 0.72963 0.0
H1302 H 0.59563 0.81079 0.79683 0.0
H1303 H 0.58214 0.82294 0.8841 0.0
H1304 H 0.5279 0.78798 0.97029 0.0
H1305 H 0.52482 0.76296 0.89052 0.0
C1306 C 0.5511 0.7636 0.80318 0.0
C1307 C 0.56635 0.76573 0.76295 0.0
C1308 C 0.552 0.77833 0.84335 0.0
C1309 C 0.58228 0.78292 0.76087 0.0
C1310 C 0.58312 0.79772 0.79896 0.0
C1311 C 0.56946 0.80999 0.88414 0.0
C1312 C 0.55519 0.80733 0.93241 0.0
C1313 C 0.56816 0.79551 0.84115 0.0
C1314 C 0.53901 0.79034 0.9331 0.0
C1315 C 0.53732 0.77603 0.888 0.0
H1316 H 0.2325 0.79552 0.82329 0.0
H1317 H 0.1917 0.80076 0.69801 0.0
H1318 H 0.16764 0.77671 0.77402 0.0
H1319 H 0.15847 0.75599 0.88218 0.0
H1320 H 0.19938 0.75089 0.00768 0.0
H1321 H 0.22306 0.77275 0.92399 0.0
C1322 C 0.21834 0.79137 0.81256 0.0
C1323 C 0.21389 0.8001 0.75598 0.0
C1324 C 0.20459 0.77747 0.85605 0.0
C1325 C 0.19548 0.79434 0.74168 0.0
C1326 C 0.18171 0.78058 0.78502 0.0
C1327 C 0.17252 0.75938 0.89048 0.0
C1328 C 0.17714 0.75195 0.95174 0.0
C1329 C 0.18614 0.77225 0.8431 0.0
C1330 C 0.19542 0.75645 0.96126 0.0
C1331 C 0.20901 0.76907 0.91375 0.0
H1332 H 0.35747 0.13019 0.73891 0.0
H1333 H 0.38345 0.11503 0.91068 0.0
H1334 H 0.35393 0.09542 0.9698 0.0
H1335 H 0.32107 0.08462 0.97884 0.0
H1336 H 0.29544 0.10059 0.80837 0.0
H1337 H 0.32445 0.11774 0.74284 0.0
C1338 C 0.35668 0.12241 0.78868 0.0
C1339 C 0.37269 0.12422 0.82055 0.0
C1340 C 0.3397 0.11142 0.82323 0.0
C1341 C 0.37136 0.11398 0.88505 0.0
C1342 C 0.35448 0.1028 0.91913 0.0
C1343 C 0.3218 0.09171 0.92699 0.0
C1344 C 0.30612 0.09146 0.89918 0.0
C1345 C 0.33861 0.10174 0.88973 0.0
C1346 C 0.30731 0.10067 0.83163 0.0
C1347 C 0.32391 0.11049 0.79394 0.0
H1348 H 0.87638 0.18757 0.90183 0.0
H1349 H 0.92673 0.23256 0.9852 0.0
H1350 H 0.91648 0.2539 0.94949 0.0
H1351 H 0.89268 0.25957 0.89826 0.0
H1352 H 0.8422 0.21412 0.81804 0.0
H1353 H 0.85314 0.19321 0.8485 0.0
C1354 C 0.88517 0.20204 0.91213 0.0
C1355 C 0.90226 0.20844 0.94643 0.0
C1356 C 0.87917 0.21417 0.89193 0.0
C1357 C 0.91347 0.22726 0.95909 0.0
C1358 C 0.90763 0.23947 0.93865 0.0
C1359 C 0.88416 0.24512 0.88684 0.0
C1360 C 0.86664 0.23844 0.85604 0.0
C1361 C 0.89044 0.23306 0.90546 0.0
C1362 C 0.85571 0.21964 0.84198 0.0
C1363 C 0.86194 0.20764 0.85942 0.0
H1364 H 0.78679 0.641 0.93866 0.0
H1365 H 0.73667 0.63468 0.84768 0.0
H1366 H 0.74671 0.66652 0.87709 0.0
H1367 H 0.77009 0.69639 0.92573 0.0
H1368 H 0.82031 0.70257 0.01496 0.0
H1369 H 0.80975 0.67051 0.98969 0.0
C1370 C 0.77804 0.64656 0.92518 0.0
C1371 C 0.76105 0.63548 0.89068 0.0
C1372 C 0.78388 0.66486 0.94219 0.0
C1373 C 0.74986 0.64292 0.87404 0.0
C1374 C 0.75557 0.66112 0.89092 0.0
C1375 C 0.77865 0.69069 0.94027 0.0
C1376 C 0.79597 0.70189 0.97208 0.0
C1377 C 0.77259 0.67225 0.92474 0.0
C1378 C 0.80693 0.69428 0.99023 0.0
C1379 C 0.80093 0.67594 0.97568 0.0
H1380 H 0.11551 0.36636 0.52646 0.0
H1381 H 0.09815 0.34732 0.75337 0.0
H1382 H 0.08279 0.31579 0.70932 0.0
H1383 H 0.07646 0.29368 0.60861 0.0
H1384 H 0.0945 0.31259 0.38217 0.0
H1385 H 0.10734 0.34417 0.42398 0.0
C1386 C 0.10817 0.35534 0.56624 0.0
C1387 C 0.10812 0.35922 0.64328 0.0
C1388 C 0.09962 0.33722 0.54075 0.0
C1389 C 0.0985 0.34475 0.69387 0.0
C1390 C 0.08975 0.3267 0.66877 0.0
C1391 C 0.08307 0.30468 0.56813 0.0
C1392 C 0.08467 0.30077 0.49245 0.0
C1393 C 0.09058 0.32278 0.59266 0.0
C1394 C 0.09315 0.31521 0.4408 0.0
C1395 C 0.10052 0.33328 0.46469 0.0
H1396 H 0.70321 0.7846 0.60192 0.0
H1397 H 0.68465 0.78286 0.37416 0.0
H1398 H 0.65301 0.76466 0.41567 0.0
H1399 H 0.63066 0.75088 0.5175 0.0
H1400 H 0.64922 0.75363 0.74598 0.0
H1401 H 0.68087 0.76971 0.70298 0.0
C1402 C 0.69227 0.78012 0.56112 0.0
C1403 C 0.69631 0.78517 0.48502 0.0
C1404 C 0.67411 0.76989 0.58552 0.0
C1405 C 0.68194 0.77925 0.43308 0.0
C1406 C 0.66383 0.76884 0.45678 0.0
C1407 C 0.6416 0.75481 0.55792 0.0
C1408 C 0.63756 0.75111 0.63497 0.0
C1409 C 0.65976 0.76432 0.53302 0.0
C1410 C 0.65194 0.75636 0.68643 0.0
C1411 C 0.67004 0.76558 0.6619 0.0
H1412 H 0.22116 0.92041 0.61364 0.0
H1413 H 0.23301 0.91042 0.38799 0.0
H1414 H 0.24735 0.89382 0.43807 0.0
H1415 H 0.25431 0.88014 0.54472 0.0
H1416 H 0.24171 0.88918 0.77053 0.0
H1417 H 0.22997 0.90828 0.72139 0.0
C1418 C 0.22711 0.91484 0.5754 0.0
C1419 C 0.2259 0.91657 0.49711 0.0
C1420 C 0.23506 0.90501 0.60452 0.0
C1421 C 0.23366 0.90922 0.44844 0.0
C1422 C 0.24183 0.89968 0.47701 0.0
C1423 C 0.24913 0.88638 0.58342 0.0
C1424 C 0.24874 0.88308 0.66119 0.0
C1425 C 0.24223 0.89715 0.5548 0.0
C1426 C 0.2421 0.89141 0.7104 0.0
C1427 C 0.23535 0.90232 0.68233 0.0
H1428 H 0.67562 0.89117 0.9293 0.0
H1429 H 0.70331 0.91093 0.1418 0.0
H1430 H 0.67412 0.89672 0.20745 0.0
H1431 H 0.64076 0.87724 0.20552 0.0
H1432 H 0.61303 0.85807 0.99274 0.0
H1433 H 0.64213 0.87355 0.92653 0.0
C1434 C 0.67525 0.89246 0.9899 0.0
C1435 C 0.69164 0.90198 0.03049 0.0
C1436 C 0.65839 0.8843 0.02746 0.0
C1437 C 0.69092 0.90368 0.10901 0.0
C1438 C 0.67422 0.8955 0.14676 0.0
C1439 C 0.64108 0.87655 0.14465 0.0
C1440 C 0.62475 0.8664 0.10434 0.0
C1441 C 0.65788 0.88555 0.1067 0.0
C1442 C 0.62538 0.86579 0.02532 0.0
C1443 C 0.64204 0.87459 0.98729 0.0
H1444 H 0.11606 0.74735 0.05376 0.0
H1445 H 0.11596 0.76915 0.27333 0.0
H1446 H 0.09679 0.78092 0.22553 0.0
H1447 H 0.08221 0.78713 0.1193 0.0
H1448 H 0.08324 0.76619 0.89887 0.0
H1449 H 0.09972 0.75175 0.94961 0.0
C1450 C 0.11174 0.75454 0.09146 0.0
C1451 C 0.1176 0.75751 0.16691 0.0
C1452 C 0.10091 0.76145 0.06344 0.0
C1453 C 0.11174 0.76675 0.21494 0.0
C1454 C 0.10079 0.77351 0.18763 0.0
C1455 C 0.08579 0.77919 0.08245 0.0
C1456 C 0.0816 0.77787 0.00519 0.0
C1457 C 0.09559 0.77123 0.11166 0.0
C1458 C 0.08636 0.76751 0.95842 0.0
C1459 C 0.09585 0.7593 0.98734 0.0
H1460 H 0.2451 0.34927 0.21584 0.0
H1461 H 0.26216 0.37792 0.00401 0.0
H1462 H 0.24593 0.34909 0.93613 0.0
H1463 H 0.2244 0.31603 0.93672 0.0
H1464 H 0.20743 0.28749 0.14885 0.0
H1465 H 0.22614 0.31594 0.21639 0.0
C1466 C 0.24551 0.3492 0.15484 0.0
C1467 C 0.25467 0.36577 0.11523 0.0
C1468 C 0.23597 0.33258 0.116 0.0
C1469 C 0.25517 0.36539 0.03612 0.0
C1470 C 0.24579 0.3489 0.99711 0.0
C1471 C 0.22493 0.31601 0.99768 0.0
C1472 C 0.21433 0.29968 0.03753 0.0
C1473 C 0.23573 0.33246 0.03643 0.0
C1474 C 0.21536 0.29986 0.11658 0.0
C1475 C 0.22604 0.31615 0.15542 0.0
H1476 H 0.88266 0.65292 0.26588 0.0
H1477 H 0.86779 0.62521 0.48023 0.0
H1478 H 0.88454 0.65431 0.54558 0.0
H1479 H 0.90195 0.68773 0.54246 0.0
H1480 H 0.91716 0.71557 0.32853 0.0
H1481 H 0.9019 0.68635 0.26278 0.0
C1482 C 0.88318 0.65324 0.32685 0.0
C1483 C 0.87385 0.63689 0.36792 0.0
C1484 C 0.89288 0.67006 0.36435 0.0
C1485 C 0.8748 0.63756 0.44701 0.0
C1486 C 0.88436 0.65422 0.4846 0.0
C1487 C 0.90205 0.68742 0.48147 0.0
C1488 C 0.91057 0.70383 0.44062 0.0
C1489 C 0.89322 0.67057 0.4439 0.0
C1490 C 0.9107 0.70315 0.36152 0.0
C1491 C 0.90191 0.68644 0.32376 0.0
H1492 H 0.28302 0.2073 0.46364 0.0
H1493 H 0.28921 0.16731 0.59125 0.0
H1494 H 0.32159 0.18276 0.56031 0.0
H1495 H 0.34776 0.20659 0.49188 0.0
H1496 H 0.34196 0.2469 0.36534 0.0
H1497 H 0.3098 0.23237 0.4013 0.0
C1498 C 0.29147 0.20204 0.48522 0.0
C1499 C 0.28364 0.18608 0.52927 0.0
C1500 C 0.31012 0.21098 0.46705 0.0
C1501 C 0.29484 0.17953 0.55709 0.0
C1502 C 0.31337 0.18833 0.53925 0.0
C1503 C 0.33948 0.21224 0.47223 0.0
C1504 C 0.34718 0.22768 0.42535 0.0
C1505 C 0.32107 0.20388 0.49335 0.0
C1506 C 0.33634 0.23498 0.40131 0.0
C1507 C 0.31794 0.22666 0.42175 0.0
H1508 H 0.79177 0.08682 0.41019 0.0
H1509 H 0.79081 0.10775 0.63068 0.0
H1510 H 0.77475 0.12262 0.57963 0.0
H1511 H 0.76186 0.13046 0.47179 0.0
H1512 H 0.76341 0.10997 0.25099 0.0
H1513 H 0.77837 0.09412 0.30305 0.0
C1514 C 0.78796 0.09453 0.44732 0.0
C1515 C 0.79252 0.09617 0.52423 0.0
C1516 C 0.7789 0.10319 0.4175 0.0
C1517 C 0.78751 0.10628 0.5713 0.0
C1518 C 0.77833 0.11481 0.54212 0.0
C1519 C 0.76539 0.12247 0.435 0.0
C1520 C 0.76154 0.12145 0.35748 0.0
C1521 C 0.7741 0.11348 0.4652 0.0
C1522 C 0.76624 0.11103 0.31078 0.0
C1523 C 0.7748 0.10196 0.34051 0.0
H1524 H 0.98891 0.44697 0.43225 0.0
H1525 H 0.97213 0.40172 0.27954 0.0
H1526 H 0.00228 0.41723 0.22 0.0
H1527 H 0.03273 0.44477 0.20589 0.0
H1528 H 0.04775 0.49081 0.35242 0.0
H1529 H 0.01902 0.47385 0.42008 0.0
C1530 C 0.9919 0.44034 0.38668 0.0
C1531 C 0.97834 0.42321 0.36049 0.0
C1532 C 0.00894 0.44958 0.35122 0.0
C1533 C 0.98237 0.41493 0.30068 0.0
C1534 C -0.00042 0.42381 0.26654 0.0
C1535 C 0.02973 0.45096 0.25311 0.0
C1536 C 0.0423 0.46899 0.2742 0.0
C1537 C 0.01286 0.44131 0.29043 0.0
C1538 C 0.03824 0.47697 0.33494 0.0
C1539 C 0.02182 0.46729 0.37373 0.0
H1540 H 0.55621 0.57515 0.12236 0.0
H1541 H 0.54831 0.59243 0.34089 0.0
H1542 H 0.56488 0.57901 0.3998 0.0
H1543 H 0.57949 0.56031 0.39045 0.0
H1544 H 0.58689 0.54259 0.17205 0.0
H1545 H 0.57277 0.55837 0.11215 0.0
C1546 C 0.55826 0.57616 0.18278 0.0
C1547 C 0.55086 0.58463 0.22709 0.0
C1548 C 0.56763 0.56824 0.21651 0.0
C1549 C 0.55376 0.5859 0.30533 0.0
C1550 C 0.56321 0.57819 0.3392 0.0
C1551 C 0.57818 0.56005 0.32969 0.0
C1552 C 0.58408 0.55012 0.286 0.0
C1553 C 0.56987 0.569 0.29551 0.0
C1554 C 0.58237 0.55002 0.20723 0.0
C1555 C 0.57426 0.55902 0.17282 0.0
H1556 H 0.4163 0.9708 0.25396 0.0
H1557 H 0.43678 0.99164 0.0318 0.0
H1558 H 0.45098 0.02282 0.07944 0.0
H1559 H 0.45998 0.04394 0.18586 0.0
H1560 H 0.44069 0.02311 0.40915 0.0
H1561 H 0.42342 0.99215 0.35899 0.0
C1562 C 0.42367 0.98215 0.21568 0.0
C1563 C 0.42562 0.97886 0.13951 0.0
C1564 C 0.43209 5e-05 0.24369 0.0
C1565 C 0.43518 0.99376 0.09077 0.0
C1566 C 0.44333 0.01161 0.11798 0.0
C1567 C 0.45179 0.03268 0.22355 0.0
C1568 C 0.45177 0.03585 0.30132 0.0
C1569 C 0.44223 0.01489 0.19463 0.0
C1570 C 0.44104 0.02107 0.34914 0.0
C1571 C 0.4312 0.00334 0.32053 0.0
H1572 H 0.56642 0.00322 0.8685 0.0
H1573 H 0.60264 0.02963 0.68119 0.0
H1574 H 0.58845 0.00082 0.61184 0.0
H1575 H 0.56422 0.96853 0.60115 0.0
H1576 H 0.52765 0.9429 0.78857 0.0
H1577 H 0.54353 0.97097 0.86068 0.0
C1578 C 0.57139 0.00268 0.81283 0.0
C1579 C 0.58551 0.0186 0.78004 0.0
C1580 C 0.56297 0.9862 0.77282 0.0
C1581 C 0.59176 0.01759 0.70784 0.0
C1582 C 0.5836 0.00112 0.66796 0.0
C1583 C 0.55982 0.96906 0.65793 0.0
C1584 C 0.54466 0.95363 0.68893 0.0
C1585 C 0.56894 0.9854 0.69932 0.0
C1586 C 0.53917 0.95457 0.76279 0.0
C1587 C 0.54826 0.97063 0.80434 0.0
H1588 H 0.03101 0.5887 0.75152 0.0
H1589 H 0.00393 0.56331 0.54325 0.0
H1590 H 0.97429 0.5514 0.60446 0.0
H1591 H 0.95628 0.54583 0.71949 0.0
H1592 H 0.98345 0.57008 0.929 0.0
H1593 H 0.01286 0.58499 0.86447 0.0
C1594 C 0.01864 0.58076 0.71911 0.0
C1595 C 0.01972 0.57677 0.64296 0.0
C1596 C 0.00166 0.57367 0.75499 0.0
C1597 C 0.00352 0.5665 0.60198 0.0
C1598 C 0.98656 0.55965 0.637 0.0
C1599 C 0.96859 0.55459 0.75099 0.0
C1600 C 0.96765 0.5567 0.8292 0.0
C1601 C 0.98549 0.56279 0.71387 0.0
C1602 C 0.98377 0.56812 0.86892 0.0
C1603 C 0.00061 0.57661 0.83207 0.0
H1604 H 0.44988 0.48374 0.83739 0.0
H1605 H 0.41265 0.45188 0.66015 0.0
H1606 H 0.42056 0.42804 0.67786 0.0
H1607 H 0.43862 0.41663 0.74153 0.0
H1608 H 0.47542 0.44829 0.92042 0.0
H1609 H 0.46694 0.47173 0.90464 0.0
C1610 C 0.44353 0.4716 0.80247 0.0
C1611 C 0.43082 0.46966 0.74708 0.0
C1612 C 0.44799 0.45787 0.8135 0.0
C1613 C 0.42251 0.45373 0.70307 0.0
C1614 C 0.42703 0.44009 0.71317 0.0
C1615 C 0.44471 0.42859 0.77743 0.0
C1616 C 0.45769 0.43071 0.83186 0.0
C1617 C 0.4398 0.44206 0.76799 0.0
C1618 C 0.46537 0.44628 0.87811 0.0
C1619 C 0.4606 0.45974 0.86894 0.0
loop_
_geom_bond_atom_site_label_1
_geom_bond_atom_site_label_2
_geom_bond_distance
_geom_bond_site_symmetry_2
_ccdc_geom_bond_type
C0 O1 1.160 . S
C0 O7 1.185 . S
O1 C0 1.160 . S
O2 Zn3 1.899 1_556 S
O2 C10 1.284 1_556 S
Zn3 O2 1.899 1_554 S
Zn3 O4 2.032 . S
Zn3 O7 2.086 . S
Zn3 O12 1.977 1_554 S
O4 Zn3 2.032 . S
O4 C8 1.278 . S
C5 O6 1.203 . S
C5 O12 1.267 . S
O6 C5 1.203 . S
O7 C0 1.185 . S
O7 Zn3 2.086 . S
C8 O4 1.278 . S
C8 O9 1.211 . S
O9 C8 1.211 . S
C10 O2 1.284 1_554 S
C10 O11 1.273 . S
O11 C10 1.273 . S
O12 Zn3 1.977 1_556 S
O12 C5 1.267 . S
C13 O14 1.160 . S
C13 O20 1.185 . S
O14 C13 1.160 . S
O15 Zn16 1.899 1_556 S
O15 C23 1.284 1_556 S
Zn16 O15 1.899 1_554 S
Zn16 O17 2.032 . S
Zn16 O20 2.086 . S
Zn16 O25 1.977 1_554 S
O17 Zn16 2.032 . S
O17 C21 1.278 . S
C18 O19 1.203 . S
C18 O25 1.267 . S
O19 C18 1.203 . S
O20 C13 1.185 . S
O20 Zn16 2.086 . S
C21 O17 1.278 . S
C21 O22 1.211 . S
O22 C21 1.211 . S
C23 O15 1.284 1_554 S
C23 O24 1.273 . S
O24 C23 1.273 . S
O25 Zn16 1.977 1_556 S
O25 C18 1.267 . S
C26 O27 1.160 . S
C26 O33 1.185 . S
O27 C26 1.160 . S
O28 Zn29 1.899 1_556 S
O28 C36 1.284 1_556 S
Zn29 O28 1.899 1_554 S
Zn29 O30 2.032 . S
Zn29 O33 2.086 . S
Zn29 O38 1.977 1_554 S
O30 Zn29 2.032 . S
O30 C34 1.278 . S
C31 O32 1.203 . S
C31 O38 1.267 . S
O32 C31 1.203 . S
O33 C26 1.185 . S
O33 Zn29 2.086 . S
C34 O30 1.278 . S
C34 O35 1.211 . S
O35 C34 1.211 . S
C36 O28 1.284 1_554 S
C36 O37 1.273 . S
O37 C36 1.273 . S
O38 Zn29 1.977 1_556 S
O38 C31 1.267 . S
C39 O40 1.160 . S
C39 O46 1.185 . S
O40 C39 1.160 . S
O41 Zn42 1.899 . S
O41 C49 1.284 . S
Zn42 O41 1.899 . S
Zn42 O43 2.032 . S
Zn42 O46 2.086 . S
Zn42 O51 1.977 . S
O43 Zn42 2.032 . S
O43 C47 1.278 . S
C44 O45 1.203 . S
C44 O51 1.267 . S
O45 C44 1.203 . S
O46 C39 1.185 . S
O46 Zn42 2.086 . S
C47 O43 1.278 . S
C47 O48 1.211 . S
O48 C47 1.211 . S
C49 O41 1.284 . S
C49 O50 1.273 . S
O50 C49 1.273 . S
O51 Zn42 1.977 . S
O51 C44 1.267 . S
C52 O53 1.160 . S
C52 O59 1.185 . S
O53 C52 1.160 . S
O54 Zn55 1.899 . S
O54 C62 1.284 . S
Zn55 O54 1.899 . S
Zn55 O56 2.032 . S
Zn55 O59 2.086 . S
Zn55 O64 1.977 . S
O56 Zn55 2.032 . S
O56 C60 1.278 . S
C57 O58 1.203 . S
C57 O64 1.267 . S
O58 C57 1.203 . S
O59 C52 1.185 . S
O59 Zn55 2.086 . S
C60 O56 1.278 . S
C60 O61 1.211 . S
O61 C60 1.211 . S
C62 O54 1.284 . S
C62 O63 1.273 . S
O63 C62 1.273 . S
O64 Zn55 1.977 . S
O64 C57 1.267 . S
C65 O66 1.160 . S
C65 O72 1.185 . S
O66 C65 1.160 . S
O67 Zn68 1.899 . S
O67 C75 1.284 . S
Zn68 O67 1.899 . S
Zn68 O69 2.032 . S
Zn68 O72 2.086 . S
Zn68 O77 1.977 . S
O69 Zn68 2.032 . S
O69 C73 1.278 . S
C70 O71 1.203 . S
C70 O77 1.267 . S
O71 C70 1.203 . S
O72 C65 1.185 . S
O72 Zn68 2.086 . S
C73 O69 1.278 . S
C73 O74 1.211 . S
O74 C73 1.211 . S
C75 O67 1.284 . S
C75 O76 1.273 . S
O76 C75 1.273 . S
O77 Zn68 1.977 . S
O77 C70 1.267 . S
C78 O79 1.160 . S
C78 O85 1.185 . S
O79 C78 1.160 . S
O80 Zn81 1.899 1_554 S
O80 C88 1.284 1_554 S
Zn81 O80 1.899 1_556 S
Zn81 O82 2.032 . S
Zn81 O85 2.086 . S
Zn81 O90 1.977 1_556 S
O82 Zn81 2.032 . S
O82 C86 1.278 . S
C83 O84 1.203 . S
C83 O90 1.267 . S
O84 C83 1.203 . S
O85 C78 1.185 . S
O85 Zn81 2.086 . S
C86 O82 1.278 . S
C86 O87 1.211 . S
O87 C86 1.211 . S
C88 O80 1.284 1_556 S
C88 O89 1.273 . S
O89 C88 1.273 . S
O90 Zn81 1.977 1_554 S
O90 C83 1.267 . S
C91 O92 1.160 . S
C91 O98 1.185 . S
O92 C91 1.160 . S
O93 Zn94 1.899 1_554 S
O93 C101 1.284 1_554 S
Zn94 O93 1.899 1_556 S
Zn94 O95 2.032 . S
Zn94 O98 2.086 . S
Zn94 O103 1.977 1_556 S
O95 Zn94 2.032 . S
O95 C99 1.278 . S
C96 O97 1.203 . S
C96 O103 1.267 . S
O97 C96 1.203 . S
O98 C91 1.185 . S
O98 Zn94 2.086 . S
C99 O95 1.278 . S
C99 O100 1.211 . S
O100 C99 1.211 . S
C101 O93 1.284 1_556 S
C101 O102 1.273 . S
O102 C101 1.273 . S
O103 Zn94 1.977 1_554 S
O103 C96 1.267 . S
C104 O105 1.160 . S
C104 O111 1.185 . S
O105 C104 1.160 . S
O106 Zn107 1.899 1_554 S
O106 C114 1.284 1_554 S
Zn107 O106 1.899 1_556 S
Zn107 O108 2.032 . S
Zn107 O111 2.086 . S
Zn107 O116 1.977 1_556 S
O108 Zn107 2.032 . S
O108 C112 1.278 . S
C109 O110 1.203 . S
C109 O116 1.267 . S
O110 C109 1.203 . S
O111 C104 1.185 . S
O111 Zn107 2.086 . S
C112 O108 1.278 . S
C112 O113 1.211 . S
O113 C112 1.211 . S
C114 O106 1.284 1_556 S
C114 O115 1.273 . S
O115 C114 1.273 . S
O116 Zn107 1.977 1_554 S
O116 C109 1.267 . S
C117 O118 1.160 . S
C117 O124 1.185 . S
O118 C117 1.160 . S
O119 Zn120 1.899 . S
O119 C127 1.284 . S
Zn120 O119 1.899 . S
Zn120 O121 2.032 . S
Zn120 O124 2.086 . S
Zn120 O129 1.977 . S
O121 Zn120 2.032 . S
O121 C125 1.278 . S
C122 O123 1.203 . S
C122 O129 1.267 . S
O123 C122 1.203 . S
O124 C117 1.185 . S
O124 Zn120 2.086 . S
C125 O121 1.278 . S
C125 O126 1.211 . S
O126 C125 1.211 . S
C127 O119 1.284 . S
C127 O128 1.273 . S
O128 C127 1.273 . S
O129 Zn120 1.977 . S
O129 C122 1.267 . S
C130 O131 1.160 . S
C130 O137 1.185 . S
O131 C130 1.160 . S
O132 Zn133 1.899 . S
O132 C140 1.284 . S
Zn133 O132 1.899 . S
Zn133 O134 2.032 . S
Zn133 O137 2.086 . S
Zn133 O142 1.977 . S
O134 Zn133 2.032 . S
O134 C138 1.278 . S
C135 O136 1.203 . S
C135 O142 1.267 . S
O136 C135 1.203 . S
O137 C130 1.185 . S
O137 Zn133 2.086 . S
C138 O134 1.278 . S
C138 O139 1.211 . S
O139 C138 1.211 . S
C140 O132 1.284 . S
C140 O141 1.273 . S
O141 C140 1.273 . S
O142 Zn133 1.977 . S
O142 C135 1.267 . S
C143 O144 1.160 . S
C143 O150 1.185 . S
O144 C143 1.160 . S
O145 Zn146 1.899 . S
O145 C153 1.284 . S
Zn146 O145 1.899 . S
Zn146 O147 2.032 . S
Zn146 O150 2.086 . S
Zn146 O155 1.977 . S
O147 Zn146 2.032 . S
O147 C151 1.278 . S
C148 O149 1.203 . S
C148 O155 1.267 . S
O149 C148 1.203 . S
O150 C143 1.185 . S
O150 Zn146 2.086 . S
C151 O147 1.278 . S
C151 O152 1.211 . S
O152 C151 1.211 . S
C153 O145 1.284 . S
C153 O154 1.273 . S
O154 C153 1.273 . S
O155 Zn146 1.977 . S
O155 C148 1.267 . S
C156 O157 1.160 . S
C156 O163 1.185 . S
O157 C156 1.160 . S
O158 Zn159 1.899 . S
O158 C166 1.284 . S
Zn159 O158 1.899 . S
Zn159 O160 2.032 . S
Zn159 O163 2.086 . S
Zn159 O168 1.977 . S
O160 Zn159 2.032 . S
O160 C164 1.278 . S
C161 O162 1.203 . S
C161 O168 1.267 . S
O162 C161 1.203 . S
O163 C156 1.185 . S
O163 Zn159 2.086 . S
C164 O160 1.278 . S
C164 O165 1.211 . S
O165 C164 1.211 . S
C166 O158 1.284 . S
C166 O167 1.273 . S
O167 C166 1.273 . S
O168 Zn159 1.977 . S
O168 C161 1.267 . S
C169 O170 1.160 . S
C169 O176 1.185 . S
O170 C169 1.160 . S
O171 Zn172 1.899 . S
O171 C179 1.284 . S
Zn172 O171 1.899 . S
Zn172 O173 2.032 . S
Zn172 O176 2.086 . S
Zn172 O181 1.977 . S
O173 Zn172 2.032 . S
O173 C177 1.278 . S
C174 O175 1.203 . S
C174 O181 1.267 . S
O175 C174 1.203 . S
O176 C169 1.185 . S
O176 Zn172 2.086 . S
C177 O173 1.278 . S
C177 O178 1.211 . S
O178 C177 1.211 . S
C179 O171 1.284 . S
C179 O180 1.273 . S
O180 C179 1.273 . S
O181 Zn172 1.977 . S
O181 C174 1.267 . S
C182 O183 1.160 . S
C182 O189 1.185 . S
O183 C182 1.160 . S
O184 Zn185 1.899 . S
O184 C192 1.284 . S
Zn185 O184 1.899 . S
Zn185 O186 2.032 . S
Zn185 O189 2.086 . S
Zn185 O194 1.977 . S
O186 Zn185 2.032 . S
O186 C190 1.278 . S
C187 O188 1.203 . S
C187 O194 1.267 . S
O188 C187 1.203 . S
O189 C182 1.185 . S
O189 Zn185 2.086 . S
C190 O186 1.278 . S
C190 O191 1.211 . S
O191 C190 1.211 . S
C192 O184 1.284 . S
C192 O193 1.273 . S
O193 C192 1.273 . S
O194 Zn185 1.977 . S
O194 C187 1.267 . S
C195 O196 1.160 . S
C195 O202 1.185 . S
O196 C195 1.160 . S
O197 Zn198 1.899 . S
O197 C205 1.284 . S
Zn198 O197 1.899 . S
Zn198 O199 2.032 . S
Zn198 O202 2.086 . S
Zn198 O207 1.977 . S
O199 Zn198 2.032 . S
O199 C203 1.278 . S
C200 O201 1.203 . S
C200 O207 1.267 . S
O201 C200 1.203 . S
O202 C195 1.185 . S
O202 Zn198 2.086 . S
C203 O199 1.278 . S
C203 O204 1.211 . S
O204 C203 1.211 . S
C205 O197 1.284 . S
C205 O206 1.273 . S
O206 C205 1.273 . S
O207 Zn198 1.977 . S
O207 C200 1.267 . S
C208 O209 1.160 . S
C208 O215 1.185 . S
O209 C208 1.160 . S
O210 Zn211 1.899 . S
O210 C218 1.284 . S
Zn211 O210 1.899 . S
Zn211 O212 2.032 . S
Zn211 O215 2.086 . S
Zn211 O220 1.977 . S
O212 Zn211 2.032 . S
O212 C216 1.278 . S
C213 O214 1.203 . S
C213 O220 1.267 . S
O214 C213 1.203 . S
O215 C208 1.185 . S
O215 Zn211 2.086 . S
C216 O212 1.278 . S
C216 O217 1.211 . S
O217 C216 1.211 . S
C218 O210 1.284 . S
C218 O219 1.273 . S
O219 C218 1.273 . S
O220 Zn211 1.977 . S
O220 C213 1.267 . S
C221 O222 1.160 . S
C221 O228 1.185 . S
O222 C221 1.160 . S
O223 Zn224 1.899 . S
O223 C231 1.284 . S
Zn224 O223 1.899 . S
Zn224 O225 2.032 . S
Zn224 O228 2.086 . S
Zn224 O233 1.977 . S
O225 Zn224 2.032 . S
O225 C229 1.278 . S
C226 O227 1.203 . S
C226 O233 1.267 . S
O227 C226 1.203 . S
O228 C221 1.185 . S
O228 Zn224 2.086 . S
C229 O225 1.278 . S
C229 O230 1.211 . S
O230 C229 1.211 . S
C231 O223 1.284 . S
C231 O232 1.273 . S
O232 C231 1.273 . S
O233 Zn224 1.977 . S
O233 C226 1.267 . S
C234 O235 1.160 . S
C234 O241 1.185 . S
O235 C234 1.160 . S
O236 Zn237 1.899 . S
O236 C244 1.284 . S
Zn237 O236 1.899 . S
Zn237 O238 2.032 . S
Zn237 O241 2.086 . S
Zn237 O246 1.977 . S
O238 Zn237 2.032 . S
O238 C242 1.278 . S
C239 O240 1.203 . S
C239 O246 1.267 . S
O240 C239 1.203 . S
O241 C234 1.185 . S
O241 Zn237 2.086 . S
C242 O238 1.278 . S
C242 O243 1.211 . S
O243 C242 1.211 . S
C244 O236 1.284 . S
C244 O245 1.273 . S
O245 C244 1.273 . S
O246 Zn237 1.977 . S
O246 C239 1.267 . S
C247 O248 1.160 . S
C247 O254 1.185 . S
O248 C247 1.160 . S
O249 Zn250 1.899 . S
O249 C257 1.284 . S
Zn250 O249 1.899 . S
Zn250 O251 2.032 . S
Zn250 O254 2.086 . S
Zn250 O259 1.977 . S
O251 Zn250 2.032 . S
O251 C255 1.278 . S
C252 O253 1.203 . S
C252 O259 1.267 . S
O253 C252 1.203 . S
O254 C247 1.185 . S
O254 Zn250 2.086 . S
C255 O251 1.278 . S
C255 O256 1.211 . S
O256 C255 1.211 . S
C257 O249 1.284 . S
C257 O258 1.273 . S
O258 C257 1.273 . S
O259 Zn250 1.977 . S
O259 C252 1.267 . S
C260 O261 1.160 . S
C260 O267 1.185 . S
O261 C260 1.160 . S
O262 Zn263 1.899 . S
O262 C270 1.284 . S
Zn263 O262 1.899 . S
Zn263 O264 2.032 . S
Zn263 O267 2.086 . S
Zn263 O272 1.977 . S
O264 Zn263 2.032 . S
O264 C268 1.278 . S
C265 O266 1.203 . S
C265 O272 1.267 . S
O266 C265 1.203 . S
O267 C260 1.185 . S
O267 Zn263 2.086 . S
C268 O264 1.278 . S
C268 O269 1.211 . S
O269 C268 1.211 . S
C270 O262 1.284 . S
C270 O271 1.273 . S
O271 C270 1.273 . S
O272 Zn263 1.977 . S
O272 C265 1.267 . S
C273 O274 1.160 . S
C273 O280 1.185 . S
O274 C273 1.160 . S
O275 Zn276 1.899 . S
O275 C283 1.284 . S
Zn276 O275 1.899 . S
Zn276 O277 2.032 . S
Zn276 O280 2.086 . S
Zn276 O285 1.977 . S
O277 Zn276 2.032 . S
O277 C281 1.278 . S
C278 O279 1.203 . S
C278 O285 1.267 . S
O279 C278 1.203 . S
O280 C273 1.185 . S
O280 Zn276 2.086 . S
C281 O277 1.278 . S
C281 O282 1.211 . S
O282 C281 1.211 . S
C283 O275 1.284 . S
C283 O284 1.273 . S
O284 C283 1.273 . S
O285 Zn276 1.977 . S
O285 C278 1.267 . S
C286 O287 1.160 . S
C286 O293 1.185 . S
O287 C286 1.160 . S
O288 Zn289 1.899 . S
O288 C296 1.284 . S
Zn289 O288 1.899 . S
Zn289 O290 2.032 . S
Zn289 O293 2.086 . S
Zn289 O298 1.977 . S
O290 Zn289 2.032 . S
O290 C294 1.278 . S
C291 O292 1.203 . S
C291 O298 1.267 . S
O292 C291 1.203 . S
O293 C286 1.185 . S
O293 Zn289 2.086 . S
C294 O290 1.278 . S
C294 O295 1.211 . S
O295 C294 1.211 . S
C296 O288 1.284 . S
C296 O297 1.273 . S
O297 C296 1.273 . S
O298 Zn289 1.977 . S
O298 C291 1.267 . S
C299 O300 1.160 . S
C299 O306 1.185 . S
O300 C299 1.160 . S
O301 Zn302 1.899 . S
O301 C309 1.284 . S
Zn302 O301 1.899 . S
Zn302 O303 2.032 . S
Zn302 O306 2.086 . S
Zn302 O311 1.977 . S
O303 Zn302 2.032 . S
O303 C307 1.278 . S
C304 O305 1.203 . S
C304 O311 1.267 . S
O305 C304 1.203 . S
O306 C299 1.185 . S
O306 Zn302 2.086 . S
C307 O303 1.278 . S
C307 O308 1.211 . S
O308 C307 1.211 . S
C309 O301 1.284 . S
C309 O310 1.273 . S
O310 C309 1.273 . S
O311 Zn302 1.977 . S
O311 C304 1.267 . S
C312 O313 1.160 . S
C312 O319 1.185 . S
O313 C312 1.160 . S
O314 Zn315 1.899 . S
O314 C322 1.284 . S
Zn315 O314 1.899 . S
Zn315 O316 2.032 . S
Zn315 O319 2.086 . S
Zn315 O324 1.977 . S
O316 Zn315 2.032 . S
O316 C320 1.278 . S
C317 O318 1.203 . S
C317 O324 1.267 . S
O318 C317 1.203 . S
O319 C312 1.185 . S
O319 Zn315 2.086 . S
C320 O316 1.278 . S
C320 O321 1.211 . S
O321 C320 1.211 . S
C322 O314 1.284 . S
C322 O323 1.273 . S
O323 C322 1.273 . S
O324 Zn315 1.977 . S
O324 C317 1.267 . S
C325 O326 1.160 . S
C325 O332 1.185 . S
O326 C325 1.160 . S
O327 Zn328 1.899 . S
O327 C335 1.284 . S
Zn328 O327 1.899 . S
Zn328 O329 2.032 . S
Zn328 O332 2.086 . S
Zn328 O337 1.977 . S
O329 Zn328 2.032 . S
O329 C333 1.278 . S
C330 O331 1.203 . S
C330 O337 1.267 . S
O331 C330 1.203 . S
O332 C325 1.185 . S
O332 Zn328 2.086 . S
C333 O329 1.278 . S
C333 O334 1.211 . S
O334 C333 1.211 . S
C335 O327 1.284 . S
C335 O336 1.273 . S
O336 C335 1.273 . S
O337 Zn328 1.977 . S
O337 C330 1.267 . S
C338 O339 1.160 . S
C338 O345 1.185 . S
O339 C338 1.160 . S
O340 Zn341 1.899 . S
O340 C348 1.284 . S
Zn341 O340 1.899 . S
Zn341 O342 2.032 . S
Zn341 O345 2.086 . S
Zn341 O350 1.977 . S
O342 Zn341 2.032 . S
O342 C346 1.278 . S
C343 O344 1.203 . S
C343 O350 1.267 . S
O344 C343 1.203 . S
O345 C338 1.185 . S
O345 Zn341 2.086 . S
C346 O342 1.278 . S
C346 O347 1.211 . S
O347 C346 1.211 . S
C348 O340 1.284 . S
C348 O349 1.273 . S
O349 C348 1.273 . S
O350 Zn341 1.977 . S
O350 C343 1.267 . S
C351 O352 1.160 . S
C351 O358 1.185 . S
O352 C351 1.160 . S
O353 Zn354 1.899 . S
O353 C361 1.284 . S
Zn354 O353 1.899 . S
Zn354 O355 2.032 . S
Zn354 O358 2.086 . S
Zn354 O363 1.977 . S
O355 Zn354 2.032 . S
O355 C359 1.278 . S
C356 O357 1.203 . S
C356 O363 1.267 . S
O357 C356 1.203 . S
O358 C351 1.185 . S
O358 Zn354 2.086 . S
C359 O355 1.278 . S
C359 O360 1.211 . S
O360 C359 1.211 . S
C361 O353 1.284 . S
C361 O362 1.273 . S
O362 C361 1.273 . S
O363 Zn354 1.977 . S
O363 C356 1.267 . S
C364 O365 1.160 . S
C364 O371 1.185 . S
O365 C364 1.160 . S
O366 Zn367 1.899 . S
O366 C374 1.284 . S
Zn367 O366 1.899 . S
Zn367 O368 2.032 . S
Zn367 O371 2.086 . S
Zn367 O376 1.977 . S
O368 Zn367 2.032 . S
O368 C372 1.278 . S
C369 O370 1.203 . S
C369 O376 1.267 . S
O370 C369 1.203 . S
O371 C364 1.185 . S
O371 Zn367 2.086 . S
C372 O368 1.278 . S
C372 O373 1.211 . S
O373 C372 1.211 . S
C374 O366 1.284 . S
C374 O375 1.273 . S
O375 C374 1.273 . S
O376 Zn367 1.977 . S
O376 C369 1.267 . S
C377 O378 1.160 . S
C377 O384 1.185 . S
O378 C377 1.160 . S
O379 Zn380 1.899 . S
O379 C387 1.284 . S
Zn380 O379 1.899 . S
Zn380 O381 2.032 . S
Zn380 O384 2.086 . S
Zn380 O389 1.977 . S
O381 Zn380 2.032 . S
O381 C385 1.278 . S
C382 O383 1.203 . S
C382 O389 1.267 . S
O383 C382 1.203 . S
O384 C377 1.185 . S
O384 Zn380 2.086 . S
C385 O381 1.278 . S
C385 O386 1.211 . S
O386 C385 1.211 . S
C387 O379 1.284 . S
C387 O388 1.273 . S
O388 C387 1.273 . S
O389 Zn380 1.977 . S
O389 C382 1.267 . S
C390 O391 1.160 . S
C390 O397 1.185 . S
O391 C390 1.160 . S
O392 Zn393 1.899 . S
O392 C400 1.284 . S
Zn393 O392 1.899 . S
Zn393 O394 2.032 . S
Zn393 O397 2.086 . S
Zn393 O402 1.977 . S
O394 Zn393 2.032 . S
O394 C398 1.278 . S
C395 O396 1.203 . S
C395 O402 1.267 . S
O396 C395 1.203 . S
O397 C390 1.185 . S
O397 Zn393 2.086 . S
C398 O394 1.278 . S
C398 O399 1.211 . S
O399 C398 1.211 . S
C400 O392 1.284 . S
C400 O401 1.273 . S
O401 C400 1.273 . S
O402 Zn393 1.977 . S
O402 C395 1.267 . S
C403 O404 1.160 . S
C403 O410 1.185 . S
O404 C403 1.160 . S
O405 Zn406 1.899 . S
O405 C413 1.284 . S
Zn406 O405 1.899 . S
Zn406 O407 2.032 . S
Zn406 O410 2.086 . S
Zn406 O415 1.977 . S
O407 Zn406 2.032 . S
O407 C411 1.278 . S
C408 O409 1.203 . S
C408 O415 1.267 . S
O409 C408 1.203 . S
O410 C403 1.185 . S
O410 Zn406 2.086 . S
C411 O407 1.278 . S
C411 O412 1.211 . S
O412 C411 1.211 . S
C413 O405 1.284 . S
C413 O414 1.273 . S
O414 C413 1.273 . S
O415 Zn406 1.977 . S
O415 C408 1.267 . S
C416 O417 1.160 . S
C416 O423 1.185 . S
O417 C416 1.160 . S
O418 Zn419 1.899 . S
O418 C426 1.284 . S
Zn419 O418 1.899 . S
Zn419 O420 2.032 . S
Zn419 O423 2.086 . S
Zn419 O428 1.977 . S
O420 Zn419 2.032 . S
O420 C424 1.278 . S
C421 O422 1.203 . S
C421 O428 1.267 . S
O422 C421 1.203 . S
O423 C416 1.185 . S
O423 Zn419 2.086 . S
C424 O420 1.278 . S
C424 O425 1.211 . S
O425 C424 1.211 . S
C426 O418 1.284 . S
C426 O427 1.273 . S
O427 C426 1.273 . S
O428 Zn419 1.977 . S
O428 C421 1.267 . S
C429 O430 1.160 . S
C429 O436 1.185 . S
O430 C429 1.160 . S
O431 Zn432 1.899 . S
O431 C439 1.284 . S
Zn432 O431 1.899 . S
Zn432 O433 2.032 . S
Zn432 O436 2.086 . S
Zn432 O441 1.977 . S
O433 Zn432 2.032 . S
O433 C437 1.278 . S
C434 O435 1.203 . S
C434 O441 1.267 . S
O435 C434 1.203 . S
O436 C429 1.185 . S
O436 Zn432 2.086 . S
C437 O433 1.278 . S
C437 O438 1.211 . S
O438 C437 1.211 . S
C439 O431 1.284 . S
C439 O440 1.273 . S
O440 C439 1.273 . S
O441 Zn432 1.977 . S
O441 C434 1.267 . S
C442 O443 1.160 . S
C442 O449 1.185 . S
O443 C442 1.160 . S
O444 Zn445 1.899 . S
O444 C452 1.284 . S
Zn445 O444 1.899 . S
Zn445 O446 2.032 . S
Zn445 O449 2.086 . S
Zn445 O454 1.977 . S
O446 Zn445 2.032 . S
O446 C450 1.278 . S
C447 O448 1.203 . S
C447 O454 1.267 . S
O448 C447 1.203 . S
O449 C442 1.185 . S
O449 Zn445 2.086 . S
C450 O446 1.278 . S
C450 O451 1.211 . S
O451 C450 1.211 . S
C452 O444 1.284 . S
C452 O453 1.273 . S
O453 C452 1.273 . S
O454 Zn445 1.977 . S
O454 C447 1.267 . S
C455 O456 1.160 . S
C455 O462 1.185 . S
O456 C455 1.160 . S
O457 Zn458 1.899 . S
O457 C465 1.284 . S
Zn458 O457 1.899 . S
Zn458 O459 2.032 . S
Zn458 O462 2.086 . S
Zn458 O467 1.977 . S
O459 Zn458 2.032 . S
O459 C463 1.278 . S
C460 O461 1.203 . S
C460 O467 1.267 . S
O461 C460 1.203 . S
O462 C455 1.185 . S
O462 Zn458 2.086 . S
C463 O459 1.278 . S
C463 O464 1.211 . S
O464 C463 1.211 . S
C465 O457 1.284 . S
C465 O466 1.273 . S
O466 C465 1.273 . S
O467 Zn458 1.977 . S
O467 C460 1.267 . S
H468 C474 0.930 . S
H469 C477 0.930 . S
H470 C478 0.930 . S
H471 C479 0.930 . S
H472 C482 0.930 . S
H473 C483 0.930 . S
C474 H468 0.930 . S
C474 C475 1.355 . S
C474 C476 1.415 . S
C475 C474 1.355 . S
C475 C477 1.419 . S
C476 C474 1.415 . S
C476 C481 1.425 1_565 S
C476 C483 1.409 . S
C477 H469 0.930 . S
C477 C475 1.419 . S
C477 C478 1.362 1_565 S
C478 H470 0.930 . S
C478 C477 1.362 1_545 S
C478 C481 1.409 . S
C479 H471 0.930 . S
C479 C480 1.355 . S
C479 C481 1.415 . S
C480 C479 1.355 . S
C480 C482 1.419 . S
C481 C476 1.425 1_545 S
C481 C478 1.409 . S
C481 C479 1.415 . S
C482 H472 0.930 . S
C482 C480 1.419 . S
C482 C483 1.362 1_545 S
C483 H473 0.930 . S
C483 C476 1.409 . S
C483 C482 1.362 1_565 S
H484 C490 0.930 . S
H485 C493 0.930 . S
H486 C494 0.930 . S
H487 C495 0.930 . S
H488 C498 0.930 . S
H489 C499 0.930 . S
C490 H484 0.930 . S
C490 C491 1.355 . S
C490 C492 1.415 . S
C491 C490 1.355 . S
C491 C493 1.419 . S
C492 C490 1.415 . S
C492 C497 1.425 1_655 S
C492 C499 1.409 . S
C493 H485 0.930 . S
C493 C491 1.419 . S
C493 C494 1.362 1_655 S
C494 H486 0.930 . S
C494 C493 1.362 1_455 S
C494 C497 1.409 . S
C495 H487 0.930 . S
C495 C496 1.355 . S
C495 C497 1.415 . S
C496 C495 1.355 . S
C496 C498 1.419 . S
C497 C492 1.425 1_455 S
C497 C494 1.409 . S
C497 C495 1.415 . S
C498 H488 0.930 . S
C498 C496 1.419 . S
C498 C499 1.362 1_455 S
C499 H489 0.930 . S
C499 C492 1.409 . S
C499 C498 1.362 1_655 S
H500 C506 0.930 . S
H501 C509 0.930 . S
H502 C510 0.930 . S
H503 C511 0.930 . S
H504 C514 0.930 . S
H505 C515 0.930 . S
C506 H500 0.930 . S
C506 C507 1.355 . S
C506 C508 1.415 . S
C507 C506 1.355 . S
C507 C509 1.419 . S
C508 C506 1.415 . S
C508 C513 1.425 . S
C508 C515 1.409 . S
C509 H501 0.930 . S
C509 C507 1.419 . S
C509 C510 1.362 . S
C510 H502 0.930 . S
C510 C509 1.362 . S
C510 C513 1.409 . S
C511 H503 0.930 . S
C511 C512 1.355 . S
C511 C513 1.415 . S
C512 C511 1.355 . S
C512 C514 1.419 . S
C513 C508 1.425 . S
C513 C510 1.409 . S
C513 C511 1.415 . S
C514 H504 0.930 . S
C514 C512 1.419 . S
C514 C515 1.362 . S
C515 H505 0.930 . S
C515 C508 1.409 . S
C515 C514 1.362 . S
H516 C522 0.930 . S
H517 C525 0.930 . S
H518 C526 0.930 . S
H519 C527 0.930 . S
H520 C530 0.930 . S
H521 C531 0.930 . S
C522 H516 0.930 . S
C522 C523 1.355 . S
C522 C524 1.409 1_565 S
C523 C522 1.355 . S
C523 C525 1.419 . S
C524 C522 1.409 1_545 S
C524 C529 1.413 1_545 S
C524 C531 1.421 . S
C525 H517 0.930 . S
C525 C523 1.419 . S
C525 C526 1.362 . S
C526 H518 0.930 . S
C526 C525 1.362 . S
C526 C529 1.421 . S
C527 H519 0.930 . S
C527 C528 1.355 . S
C527 C529 1.409 1_545 S
C528 C527 1.355 . S
C528 C530 1.419 . S
C529 C524 1.413 1_565 S
C529 C526 1.421 . S
C529 C527 1.409 1_565 S
C530 H520 0.930 . S
C530 C528 1.419 . S
C530 C531 1.362 . S
C531 H521 0.930 . S
C531 C524 1.421 . S
C531 C530 1.362 . S
H532 C538 0.930 . S
H533 C541 0.930 . S
H534 C542 0.930 . S
H535 C543 0.930 . S
H536 C546 0.930 . S
H537 C547 0.930 . S
C538 H532 0.930 . S
C538 C539 1.355 . S
C538 C540 1.415 . S
C539 C538 1.355 . S
C539 C541 1.419 . S
C540 C538 1.415 . S
C540 C545 1.425 1_455 S
C540 C547 1.409 . S
C541 H533 0.930 . S
C541 C539 1.419 . S
C541 C542 1.362 1_455 S
C542 H534 0.930 . S
C542 C541 1.362 1_655 S
C542 C545 1.409 . S
C543 H535 0.930 . S
C543 C544 1.355 . S
C543 C545 1.415 . S
C544 C543 1.355 . S
C544 C546 1.419 . S
C545 C540 1.425 1_655 S
C545 C542 1.409 . S
C545 C543 1.415 . S
C546 H536 0.930 . S
C546 C544 1.419 . S
C546 C547 1.362 1_655 S
C547 H537 0.930 . S
C547 C540 1.409 . S
C547 C546 1.362 1_455 S
H548 C554 0.930 . S
H549 C557 0.930 . S
H550 C558 0.930 . S
H551 C559 0.930 . S
H552 C562 0.930 . S
H553 C563 0.930 . S
C554 H548 0.930 . S
C554 C555 1.355 . S
C554 C556 1.415 . S
C555 C554 1.355 . S
C555 C557 1.419 . S
C556 C554 1.415 . S
C556 C561 1.425 . S
C556 C563 1.409 . S
C557 H549 0.930 . S
C557 C555 1.419 . S
C557 C558 1.362 . S
C558 H550 0.930 . S
C558 C557 1.362 . S
C558 C561 1.409 . S
C559 H551 0.930 . S
C559 C560 1.355 . S
C559 C561 1.415 . S
C560 C559 1.355 . S
C560 C562 1.419 . S
C561 C556 1.425 . S
C561 C558 1.409 . S
C561 C559 1.415 . S
C562 H552 0.930 . S
C562 C560 1.419 . S
C562 C563 1.362 . S
C563 H553 0.930 . S
C563 C556 1.409 . S
C563 C562 1.362 . S
H564 C570 0.930 . S
H565 C573 0.930 . S
H566 C574 0.930 . S
H567 C575 0.930 . S
H568 C578 0.930 . S
H569 C579 0.930 . S
C570 H564 0.930 . S
C570 C571 1.355 . S
C570 C572 1.415 . S
C571 C570 1.355 . S
C571 C573 1.419 . S
C572 C570 1.415 . S
C572 C577 1.425 . S
C572 C579 1.409 . S
C573 H565 0.930 . S
C573 C571 1.419 . S
C573 C574 1.362 . S
C574 H566 0.930 . S
C574 C573 1.362 . S
C574 C577 1.409 . S
C575 H567 0.930 . S
C575 C576 1.355 . S
C575 C577 1.415 . S
C576 C575 1.355 . S
C576 C578 1.419 . S
C577 C572 1.425 . S
C577 C574 1.409 . S
C577 C575 1.415 . S
C578 H568 0.930 . S
C578 C576 1.419 . S
C578 C579 1.362 . S
C579 H569 0.930 . S
C579 C572 1.409 . S
C579 C578 1.362 . S
H580 C586 0.930 . S
H581 C589 0.930 . S
H582 C590 0.930 . S
H583 C591 0.930 . S
H584 C594 0.930 . S
H585 C595 0.930 . S
C586 H580 0.930 . S
C586 C587 1.355 . S
C586 C588 1.415 . S
C587 C586 1.355 . S
C587 C589 1.419 . S
C588 C586 1.415 . S
C588 C593 1.425 . S
C588 C595 1.409 . S
C589 H581 0.930 . S
C589 C587 1.419 . S
C589 C590 1.362 . S
C590 H582 0.930 . S
C590 C589 1.362 . S
C590 C593 1.409 . S
C591 H583 0.930 . S
C591 C592 1.355 . S
C591 C593 1.415 . S
C592 C591 1.355 . S
C592 C594 1.419 . S
C593 C588 1.425 . S
C593 C590 1.409 . S
C593 C591 1.415 . S
C594 H584 0.930 . S
C594 C592 1.419 . S
C594 C595 1.362 . S
C595 H585 0.930 . S
C595 C588 1.409 . S
C595 C594 1.362 . S
H596 C602 0.930 . S
H597 C605 0.930 . S
H598 C606 0.930 . S
H599 C607 0.930 . S
H600 C610 0.930 . S
H601 C611 0.930 . S
C602 H596 0.930 . S
C602 C603 1.355 . S
C602 C604 1.415 . S
C603 C602 1.355 . S
C603 C605 1.419 . S
C604 C602 1.415 . S
C604 C609 1.425 . S
C604 C611 1.409 . S
C605 H597 0.930 . S
C605 C603 1.419 . S
C605 C606 1.362 . S
C606 H598 0.930 . S
C606 C605 1.362 . S
C606 C609 1.409 . S
C607 H599 0.930 . S
C607 C608 1.355 . S
C607 C609 1.415 . S
C608 C607 1.355 . S
C608 C610 1.419 . S
C609 C604 1.425 . S
C609 C606 1.409 . S
C609 C607 1.415 . S
C610 H600 0.930 . S
C610 C608 1.419 . S
C610 C611 1.362 . S
C611 H601 0.930 . S
C611 C604 1.409 . S
C611 C610 1.362 . S
H612 C618 0.930 . S
H613 C621 0.930 . S
H614 C622 0.930 . S
H615 C623 0.930 . S
H616 C626 0.930 . S
H617 C627 0.930 . S
C618 H612 0.930 . S
C618 C619 1.355 . S
C618 C620 1.415 . S
C619 C618 1.355 . S
C619 C621 1.419 . S
C620 C618 1.415 . S
C620 C625 1.425 . S
C620 C627 1.409 1_554 S
C621 H613 0.930 . S
C621 C619 1.419 . S
C621 C622 1.362 . S
C622 H614 0.930 . S
C622 C621 1.362 . S
C622 C625 1.409 . S
C623 H615 0.930 . S
C623 C624 1.355 1_554 S
C623 C625 1.415 . S
C624 C623 1.355 1_556 S
C624 C626 1.419 . S
C625 C620 1.425 . S
C625 C622 1.409 . S
C625 C623 1.415 . S
C626 H616 0.930 . S
C626 C624 1.419 . S
C626 C627 1.362 . S
C627 H617 0.930 . S
C627 C620 1.409 1_556 S
C627 C626 1.362 . S
H628 C634 0.930 . S
H629 C637 0.930 . S
H630 C638 0.930 . S
H631 C639 0.930 . S
H632 C642 0.930 . S
H633 C643 0.930 . S
C634 H628 0.930 . S
C634 C635 1.355 . S
C634 C636 1.415 . S
C635 C634 1.355 . S
C635 C637 1.419 . S
C636 C634 1.415 . S
C636 C641 1.425 . S
C636 C643 1.409 . S
C637 H629 0.930 . S
C637 C635 1.419 . S
C637 C638 1.362 . S
C638 H630 0.930 . S
C638 C637 1.362 . S
C638 C641 1.409 . S
C639 H631 0.930 . S
C639 C640 1.355 1_554 S
C639 C641 1.415 . S
C640 C639 1.355 1_556 S
C640 C642 1.419 . S
C641 C636 1.425 . S
C641 C638 1.409 . S
C641 C639 1.415 . S
C642 H632 0.930 . S
C642 C640 1.419 . S
C642 C643 1.362 1_556 S
C643 H633 0.930 . S
C643 C636 1.409 . S
C643 C642 1.362 1_554 S
H644 C650 0.930 . S
H645 C653 0.930 . S
H646 C654 0.930 . S
H647 C655 0.930 . S
H648 C658 0.930 . S
H649 C659 0.930 . S
C650 H644 0.930 . S
C650 C651 1.355 . S
C650 C652 1.415 . S
C651 C650 1.355 . S
C651 C653 1.419 . S
C652 C650 1.415 . S
C652 C657 1.425 . S
C652 C659 1.409 . S
C653 H645 0.930 . S
C653 C651 1.419 . S
C653 C654 1.362 . S
C654 H646 0.930 . S
C654 C653 1.362 . S
C654 C657 1.409 . S
C655 H647 0.930 . S
C655 C656 1.355 1_554 S
C655 C657 1.415 . S
C656 C655 1.355 1_556 S
C656 C658 1.419 . S
C657 C652 1.425 . S
C657 C654 1.409 . S
C657 C655 1.415 . S
C658 H648 0.930 . S
C658 C656 1.419 . S
C658 C659 1.362 1_556 S
C659 H649 0.930 . S
C659 C652 1.409 . S
C659 C658 1.362 1_554 S
H660 C666 0.930 . S
H661 C669 0.930 . S
H662 C670 0.930 . S
H663 C671 0.930 . S
H664 C674 0.930 . S
H665 C675 0.930 1_554 S
C666 H660 0.930 . S
C666 C667 1.355 . S
C666 C668 1.415 . S
C667 C666 1.355 . S
C667 C669 1.419 . S
C668 C666 1.415 . S
C668 C673 1.425 . S
C668 C675 1.409 . S
C669 H661 0.930 . S
C669 C667 1.419 . S
C669 C670 1.362 . S
C670 H662 0.930 . S
C670 C669 1.362 . S
C670 C673 1.409 . S
C671 H663 0.930 . S
C671 C672 1.355 1_556 S
C671 C673 1.415 . S
C672 C671 1.355 1_554 S
C672 C674 1.419 . S
C673 C668 1.425 . S
C673 C670 1.409 . S
C673 C671 1.415 . S
C674 H664 0.930 . S
C674 C672 1.419 . S
C674 C675 1.362 1_554 S
C675 H665 0.930 1_556 S
C675 C668 1.409 . S
C675 C674 1.362 1_556 S
H676 C682 0.930 1_554 S
H677 C685 0.930 1_554 S
H678 C686 0.930 . S
H679 C687 0.930 . S
H680 C690 0.930 . S
H681 C691 0.930 . S
C682 H676 0.930 1_556 S
C682 C683 1.355 1_556 S
C682 C684 1.415 . S
C683 C682 1.355 1_554 S
C683 C685 1.419 1_554 S
C684 C682 1.415 . S
C684 C689 1.425 . S
C684 C691 1.409 . S
C685 H677 0.930 1_556 S
C685 C683 1.419 1_556 S
C685 C686 1.362 . S
C686 H678 0.930 . S
C686 C685 1.362 . S
C686 C689 1.409 . S
C687 H679 0.930 . S
C687 C688 1.355 . S
C687 C689 1.415 . S
C688 C687 1.355 . S
C688 C690 1.419 . S
C689 C684 1.425 . S
C689 C686 1.409 . S
C689 C687 1.415 . S
C690 H680 0.930 . S
C690 C688 1.419 . S
C690 C691 1.362 . S
C691 H681 0.930 . S
C691 C684 1.409 . S
C691 C690 1.362 . S
H692 C698 0.930 . S
H693 C701 0.930 . S
H694 C702 0.930 . S
H695 C703 0.930 . S
H696 C706 0.930 . S
H697 C707 0.930 . S
C698 H692 0.930 . S
C698 C699 1.355 . S
C698 C700 1.415 . S
C699 C698 1.355 . S
C699 C701 1.419 . S
C700 C698 1.415 . S
C700 C705 1.425 . S
C700 C707 1.409 . S
C701 H693 0.930 . S
C701 C699 1.419 . S
C701 C702 1.362 . S
C702 H694 0.930 . S
C702 C701 1.362 . S
C702 C705 1.409 . S
C703 H695 0.930 . S
C703 C704 1.355 1_556 S
C703 C705 1.415 . S
C704 C703 1.355 1_554 S
C704 C706 1.419 . S
C705 C700 1.425 . S
C705 C702 1.409 . S
C705 C703 1.415 . S
C706 H696 0.930 . S
C706 C704 1.419 . S
C706 C707 1.362 1_554 S
C707 H697 0.930 . S
C707 C700 1.409 . S
C707 C706 1.362 1_556 S
H708 C714 0.930 . S
H709 C717 0.930 . S
H710 C718 0.930 . S
H711 C719 0.930 . S
H712 C722 0.930 . S
H713 C723 0.930 . S
C714 H708 0.930 . S
C714 C715 1.355 . S
C714 C716 1.415 . S
C715 C714 1.355 . S
C715 C717 1.419 . S
C716 C714 1.415 . S
C716 C721 1.425 . S
C716 C723 1.409 . S
C717 H709 0.930 . S
C717 C715 1.419 . S
C717 C718 1.362 . S
C718 H710 0.930 . S
C718 C717 1.362 . S
C718 C721 1.409 . S
C719 H711 0.930 . S
C719 C720 1.355 . S
C719 C721 1.415 . S
C720 C719 1.355 . S
C720 C722 1.419 . S
C721 C716 1.425 . S
C721 C718 1.409 . S
C721 C719 1.415 . S
C722 H712 0.930 . S
C722 C720 1.419 . S
C722 C723 1.362 . S
C723 H713 0.930 . S
C723 C716 1.409 . S
C723 C722 1.362 . S
H724 C730 0.930 . S
H725 C733 0.930 . S
H726 C734 0.930 . S
H727 C735 0.930 . S
H728 C738 0.930 . S
H729 C739 0.930 . S
C730 H724 0.930 . S
C730 C731 1.355 . S
C730 C732 1.415 . S
C731 C730 1.355 . S
C731 C733 1.419 . S
C732 C730 1.415 . S
C732 C737 1.425 . S
C732 C739 1.409 . S
C733 H725 0.930 . S
C733 C731 1.419 . S
C733 C734 1.362 . S
C734 H726 0.930 . S
C734 C733 1.362 . S
C734 C737 1.409 . S
C735 H727 0.930 . S
C735 C736 1.355 . S
C735 C737 1.415 . S
C736 C735 1.355 . S
C736 C738 1.419 . S
C737 C732 1.425 . S
C737 C734 1.409 . S
C737 C735 1.415 . S
C738 H728 0.930 . S
C738 C736 1.419 . S
C738 C739 1.362 . S
C739 H729 0.930 . S
C739 C732 1.409 . S
C739 C738 1.362 . S
H740 C746 0.930 . S
H741 C749 0.930 . S
H742 C750 0.930 . S
H743 C751 0.930 . S
H744 C754 0.930 . S
H745 C755 0.930 . S
C746 H740 0.930 . S
C746 C747 1.355 . S
C746 C748 1.415 . S
C747 C746 1.355 . S
C747 C749 1.419 . S
C748 C746 1.415 . S
C748 C753 1.425 . S
C748 C755 1.409 . S
C749 H741 0.930 . S
C749 C747 1.419 . S
C749 C750 1.362 . S
C750 H742 0.930 . S
C750 C749 1.362 . S
C750 C753 1.409 . S
C751 H743 0.930 . S
C751 C752 1.355 . S
C751 C753 1.415 . S
C752 C751 1.355 . S
C752 C754 1.419 . S
C753 C748 1.425 . S
C753 C750 1.409 . S
C753 C751 1.415 . S
C754 H744 0.930 . S
C754 C752 1.419 . S
C754 C755 1.362 . S
C755 H745 0.930 . S
C755 C748 1.409 . S
C755 C754 1.362 . S
H756 C762 0.930 . S
H757 C765 0.930 . S
H758 C766 0.930 . S
H759 C767 0.930 . S
H760 C770 0.930 . S
H761 C771 0.930 . S
C762 H756 0.930 . S
C762 C763 1.355 . S
C762 C764 1.415 . S
C763 C762 1.355 . S
C763 C765 1.419 . S
C764 C762 1.415 . S
C764 C769 1.425 . S
C764 C771 1.409 . S
C765 H757 0.930 . S
C765 C763 1.419 . S
C765 C766 1.362 . S
C766 H758 0.930 . S
C766 C765 1.362 . S
C766 C769 1.409 . S
C767 H759 0.930 . S
C767 C768 1.355 . S
C767 C769 1.415 . S
C768 C767 1.355 . S
C768 C770 1.419 . S
C769 C764 1.425 . S
C769 C766 1.409 . S
C769 C767 1.415 . S
C770 H760 0.930 . S
C770 C768 1.419 . S
C770 C771 1.362 . S
C771 H761 0.930 . S
C771 C764 1.409 . S
C771 C770 1.362 . S
H772 C778 0.930 . S
H773 C781 0.930 . S
H774 C782 0.930 . S
H775 C783 0.930 . S
H776 C786 0.930 . S
H777 C787 0.930 . S
C778 H772 0.930 . S
C778 C779 1.355 . S
C778 C780 1.415 . S
C779 C778 1.355 . S
C779 C781 1.419 . S
C780 C778 1.415 . S
C780 C785 1.425 . S
C780 C787 1.409 . S
C781 H773 0.930 . S
C781 C779 1.419 . S
C781 C782 1.362 . S
C782 H774 0.930 . S
C782 C781 1.362 . S
C782 C785 1.409 . S
C783 H775 0.930 . S
C783 C784 1.355 . S
C783 C785 1.415 . S
C784 C783 1.355 . S
C784 C786 1.419 . S
C785 C780 1.425 . S
C785 C782 1.409 . S
C785 C783 1.415 . S
C786 H776 0.930 . S
C786 C784 1.419 . S
C786 C787 1.362 . S
C787 H777 0.930 . S
C787 C780 1.409 . S
C787 C786 1.362 . S
H788 C794 0.930 . S
H789 C797 0.930 . S
H790 C798 0.930 . S
H791 C799 0.930 . S
H792 C802 0.930 . S
H793 C803 0.930 . S
C794 H788 0.930 . S
C794 C795 1.355 . S
C794 C796 1.415 . S
C795 C794 1.355 . S
C795 C797 1.419 . S
C796 C794 1.415 . S
C796 C801 1.425 . S
C796 C803 1.409 . S
C797 H789 0.930 . S
C797 C795 1.419 . S
C797 C798 1.362 . S
C798 H790 0.930 . S
C798 C797 1.362 . S
C798 C801 1.409 . S
C799 H791 0.930 . S
C799 C800 1.355 . S
C799 C801 1.415 . S
C800 C799 1.355 . S
C800 C802 1.419 . S
C801 C796 1.425 . S
C801 C798 1.409 . S
C801 C799 1.415 . S
C802 H792 0.930 . S
C802 C800 1.419 . S
C802 C803 1.362 . S
C803 H793 0.930 . S
C803 C796 1.409 . S
C803 C802 1.362 . S
H804 C810 0.930 . S
H805 C813 0.930 . S
H806 C814 0.930 . S
H807 C815 0.930 . S
H808 C818 0.930 . S
H809 C819 0.930 . S
C810 H804 0.930 . S
C810 C811 1.355 . S
C810 C812 1.415 . S
C811 C810 1.355 . S
C811 C813 1.419 . S
C812 C810 1.415 . S
C812 C817 1.425 . S
C812 C819 1.409 . S
C813 H805 0.930 . S
C813 C811 1.419 . S
C813 C814 1.362 . S
C814 H806 0.930 . S
C814 C813 1.362 . S
C814 C817 1.409 . S
C815 H807 0.930 . S
C815 C816 1.355 . S
C815 C817 1.415 . S
C816 C815 1.355 . S
C816 C818 1.419 . S
C817 C812 1.425 . S
C817 C814 1.409 . S
C817 C815 1.415 . S
C818 H808 0.930 . S
C818 C816 1.419 . S
C818 C819 1.362 . S
C819 H809 0.930 . S
C819 C812 1.409 . S
C819 C818 1.362 . S
H820 C826 0.930 . S
H821 C829 0.930 . S
H822 C830 0.930 . S
H823 C831 0.930 . S
H824 C834 0.930 . S
H825 C835 0.930 . S
C826 H820 0.930 . S
C826 C827 1.355 . S
C826 C828 1.415 . S
C827 C826 1.355 . S
C827 C829 1.419 . S
C828 C826 1.415 . S
C828 C833 1.425 . S
C828 C835 1.409 . S
C829 H821 0.930 . S
C829 C827 1.419 . S
C829 C830 1.362 . S
C830 H822 0.930 . S
C830 C829 1.362 . S
C830 C833 1.409 . S
C831 H823 0.930 . S
C831 C832 1.355 . S
C831 C833 1.415 . S
C832 C831 1.355 . S
C832 C834 1.419 . S
C833 C828 1.425 . S
C833 C830 1.409 . S
C833 C831 1.415 . S
C834 H824 0.930 . S
C834 C832 1.419 . S
C834 C835 1.362 . S
C835 H825 0.930 . S
C835 C828 1.409 . S
C835 C834 1.362 . S
H836 C842 0.930 . S
H837 C845 0.930 . S
H838 C846 0.930 . S
H839 C847 0.930 . S
H840 C850 0.930 . S
H841 C851 0.930 . S
C842 H836 0.930 . S
C842 C843 1.355 . S
C842 C844 1.415 . S
C843 C842 1.355 . S
C843 C845 1.419 . S
C844 C842 1.415 . S
C844 C849 1.425 . S
C844 C851 1.409 . S
C845 H837 0.930 . S
C845 C843 1.419 . S
C845 C846 1.362 . S
C846 H838 0.930 . S
C846 C845 1.362 . S
C846 C849 1.409 . S
C847 H839 0.930 . S
C847 C848 1.355 . S
C847 C849 1.415 . S
C848 C847 1.355 . S
C848 C850 1.419 . S
C849 C844 1.425 . S
C849 C846 1.409 . S
C849 C847 1.415 . S
C850 H840 0.930 . S
C850 C848 1.419 . S
C850 C851 1.362 . S
C851 H841 0.930 . S
C851 C844 1.409 . S
C851 C850 1.362 . S
H852 C858 0.930 . S
H853 C861 0.930 . S
H854 C862 0.930 . S
H855 C863 0.930 . S
H856 C866 0.930 . S
H857 C867 0.930 . S
C858 H852 0.930 . S
C858 C859 1.355 . S
C858 C860 1.415 . S
C859 C858 1.355 . S
C859 C861 1.419 . S
C860 C858 1.415 . S
C860 C865 1.425 . S
C860 C867 1.409 . S
C861 H853 0.930 . S
C861 C859 1.419 . S
C861 C862 1.362 . S
C862 H854 0.930 . S
C862 C861 1.362 . S
C862 C865 1.409 . S
C863 H855 0.930 . S
C863 C864 1.355 . S
C863 C865 1.415 . S
C864 C863 1.355 . S
C864 C866 1.419 . S
C865 C860 1.425 . S
C865 C862 1.409 . S
C865 C863 1.415 . S
C866 H856 0.930 . S
C866 C864 1.419 . S
C866 C867 1.362 . S
C867 H857 0.930 . S
C867 C860 1.409 . S
C867 C866 1.362 . S
H868 C874 0.930 . S
H869 C877 0.930 . S
H870 C878 0.930 . S
H871 C879 0.930 . S
H872 C882 0.930 . S
H873 C883 0.930 . S
C874 H868 0.930 . S
C874 C875 1.355 . S
C874 C876 1.415 . S
C875 C874 1.355 . S
C875 C877 1.419 . S
C876 C874 1.415 . S
C876 C881 1.425 . S
C876 C883 1.409 . S
C877 H869 0.930 . S
C877 C875 1.419 . S
C877 C878 1.362 . S
C878 H870 0.930 . S
C878 C877 1.362 . S
C878 C881 1.409 . S
C879 H871 0.930 . S
C879 C880 1.355 . S
C879 C881 1.415 . S
C880 C879 1.355 . S
C880 C882 1.419 . S
C881 C876 1.425 . S
C881 C878 1.409 . S
C881 C879 1.415 . S
C882 H872 0.930 . S
C882 C880 1.419 . S
C882 C883 1.362 . S
C883 H873 0.930 . S
C883 C876 1.409 . S
C883 C882 1.362 . S
H884 C890 0.930 . S
H885 C893 0.930 . S
H886 C894 0.930 . S
H887 C895 0.930 . S
H888 C898 0.930 . S
H889 C899 0.930 . S
C890 H884 0.930 . S
C890 C891 1.355 . S
C890 C892 1.415 . S
C891 C890 1.355 . S
C891 C893 1.419 . S
C892 C890 1.415 . S
C892 C897 1.425 . S
C892 C899 1.409 . S
C893 H885 0.930 . S
C893 C891 1.419 . S
C893 C894 1.362 . S
C894 H886 0.930 . S
C894 C893 1.362 . S
C894 C897 1.409 . S
C895 H887 0.930 . S
C895 C896 1.355 . S
C895 C897 1.415 . S
C896 C895 1.355 . S
C896 C898 1.419 . S
C897 C892 1.425 . S
C897 C894 1.409 . S
C897 C895 1.415 . S
C898 H888 0.930 . S
C898 C896 1.419 . S
C898 C899 1.362 . S
C899 H889 0.930 . S
C899 C892 1.409 . S
C899 C898 1.362 . S
H900 C906 0.930 . S
H901 C909 0.930 . S
H902 C910 0.930 . S
H903 C911 0.930 . S
H904 C914 0.930 . S
H905 C915 0.930 . S
C906 H900 0.930 . S
C906 C907 1.355 . S
C906 C908 1.415 . S
C907 C906 1.355 . S
C907 C909 1.419 . S
C908 C906 1.415 . S
C908 C913 1.425 . S
C908 C915 1.409 . S
C909 H901 0.930 . S
C909 C907 1.419 . S
C909 C910 1.362 . S
C910 H902 0.930 . S
C910 C909 1.362 . S
C910 C913 1.409 . S
C911 H903 0.930 . S
C911 C912 1.355 . S
C911 C913 1.415 . S
C912 C911 1.355 . S
C912 C914 1.419 . S
C913 C908 1.425 . S
C913 C910 1.409 . S
C913 C911 1.415 . S
C914 H904 0.930 . S
C914 C912 1.419 . S
C914 C915 1.362 . S
C915 H905 0.930 . S
C915 C908 1.409 . S
C915 C914 1.362 . S
H916 C922 0.930 . S
H917 C925 0.930 . S
H918 C926 0.930 . S
H919 C927 0.930 . S
H920 C930 0.930 . S
H921 C931 0.930 . S
C922 H916 0.930 . S
C922 C923 1.355 . S
C922 C924 1.415 . S
C923 C922 1.355 . S
C923 C925 1.419 . S
C924 C922 1.415 . S
C924 C929 1.425 . S
C924 C931 1.409 . S
C925 H917 0.930 . S
C925 C923 1.419 . S
C925 C926 1.362 . S
C926 H918 0.930 . S
C926 C925 1.362 . S
C926 C929 1.409 . S
C927 H919 0.930 . S
C927 C928 1.355 . S
C927 C929 1.415 . S
C928 C927 1.355 . S
C928 C930 1.419 . S
C929 C924 1.425 . S
C929 C926 1.409 . S
C929 C927 1.415 . S
C930 H920 0.930 . S
C930 C928 1.419 . S
C930 C931 1.362 . S
C931 H921 0.930 . S
C931 C924 1.409 . S
C931 C930 1.362 . S
H932 C938 0.930 . S
H933 C941 0.930 . S
H934 C942 0.930 . S
H935 C943 0.930 . S
H936 C946 0.930 . S
H937 C947 0.930 . S
C938 H932 0.930 . S
C938 C939 1.355 . S
C938 C940 1.415 . S
C939 C938 1.355 . S
C939 C941 1.419 . S
C940 C938 1.415 . S
C940 C945 1.425 . S
C940 C947 1.409 . S
C941 H933 0.930 . S
C941 C939 1.419 . S
C941 C942 1.362 . S
C942 H934 0.930 . S
C942 C941 1.362 . S
C942 C945 1.409 . S
C943 H935 0.930 . S
C943 C944 1.355 . S
C943 C945 1.415 . S
C944 C943 1.355 . S
C944 C946 1.419 . S
C945 C940 1.425 . S
C945 C942 1.409 . S
C945 C943 1.415 . S
C946 H936 0.930 . S
C946 C944 1.419 . S
C946 C947 1.362 . S
C947 H937 0.930 . S
C947 C940 1.409 . S
C947 C946 1.362 . S
H948 C954 0.930 . S
H949 C957 0.930 . S
H950 C958 0.930 . S
H951 C959 0.930 1_556 S
H952 C962 0.930 . S
H953 C963 0.930 . S
C954 H948 0.930 . S
C954 C955 1.355 . S
C954 C956 1.415 . S
C955 C954 1.355 . S
C955 C957 1.419 . S
C956 C954 1.415 . S
C956 C961 1.425 . S
C956 C963 1.409 . S
C957 H949 0.930 . S
C957 C955 1.419 . S
C957 C958 1.362 . S
C958 H950 0.930 . S
C958 C957 1.362 . S
C958 C961 1.409 . S
C959 H951 0.930 1_554 S
C959 C960 1.355 . S
C959 C961 1.415 . S
C960 C959 1.355 . S
C960 C962 1.419 . S
C961 C956 1.425 . S
C961 C958 1.409 . S
C961 C959 1.415 . S
C962 H952 0.930 . S
C962 C960 1.419 . S
C962 C963 1.362 . S
C963 H953 0.930 . S
C963 C956 1.409 . S
C963 C962 1.362 . S
H964 C970 0.930 . S
H965 C973 0.930 . S
H966 C974 0.930 . S
H967 C975 0.930 1_556 S
H968 C978 0.930 . S
H969 C979 0.930 . S
C970 H964 0.930 . S
C970 C971 1.355 . S
C970 C972 1.415 . S
C971 C970 1.355 . S
C971 C973 1.419 . S
C972 C970 1.415 . S
C972 C977 1.425 . S
C972 C979 1.409 . S
C973 H965 0.930 . S
C973 C971 1.419 . S
C973 C974 1.362 . S
C974 H966 0.930 . S
C974 C973 1.362 . S
C974 C977 1.409 . S
C975 H967 0.930 1_554 S
C975 C976 1.355 . S
C975 C977 1.415 . S
C976 C975 1.355 . S
C976 C978 1.419 . S
C977 C972 1.425 . S
C977 C974 1.409 . S
C977 C975 1.415 . S
C978 H968 0.930 . S
C978 C976 1.419 . S
C978 C979 1.362 . S
C979 H969 0.930 . S
C979 C972 1.409 . S
C979 C978 1.362 . S
H980 C986 0.930 1_556 S
H981 C989 0.930 . S
H982 C990 0.930 . S
H983 C991 0.930 . S
H984 C994 0.930 . S
H985 C995 0.930 . S
C986 H980 0.930 1_554 S
C986 C987 1.355 . S
C986 C988 1.415 . S
C987 C986 1.355 . S
C987 C989 1.419 . S
C988 C986 1.415 . S
C988 C993 1.425 . S
C988 C995 1.409 . S
C989 H981 0.930 . S
C989 C987 1.419 . S
C989 C990 1.362 . S
C990 H982 0.930 . S
C990 C989 1.362 . S
C990 C993 1.409 . S
C991 H983 0.930 . S
C991 C992 1.355 . S
C991 C993 1.415 . S
C992 C991 1.355 . S
C992 C994 1.419 . S
C993 C988 1.425 . S
C993 C990 1.409 . S
C993 C991 1.415 . S
C994 H984 0.930 . S
C994 C992 1.419 . S
C994 C995 1.362 . S
C995 H985 0.930 . S
C995 C988 1.409 . S
C995 C994 1.362 . S
H996 C1002 0.930 . S
H997 C1005 0.930 . S
H998 C1006 0.930 . S
H999 C1007 0.930 . S
H1000 C1010 0.930 . S
H1001 C1011 0.930 . S
C1002 H996 0.930 . S
C1002 C1003 1.355 1_554 S
C1002 C1004 1.415 . S
C1003 C1002 1.355 1_556 S
C1003 C1005 1.419 . S
C1004 C1002 1.415 . S
C1004 C1009 1.425 . S
C1004 C1011 1.409 . S
C1005 H997 0.930 . S
C1005 C1003 1.419 . S
C1005 C1006 1.362 . S
C1006 H998 0.930 . S
C1006 C1005 1.362 . S
C1006 C1009 1.409 1_556 S
C1007 H999 0.930 . S
C1007 C1008 1.355 . S
C1007 C1009 1.415 . S
C1008 C1007 1.355 . S
C1008 C1010 1.419 . S
C1009 C1004 1.425 . S
C1009 C1006 1.409 1_554 S
C1009 C1007 1.415 . S
C1010 H1000 0.930 . S
C1010 C1008 1.419 . S
C1010 C1011 1.362 . S
C1011 H1001 0.930 . S
C1011 C1004 1.409 . S
C1011 C1010 1.362 . S
H1012 C1018 0.930 . S
H1013 C1021 0.930 . S
H1014 C1022 0.930 . S
H1015 C1023 0.930 . S
H1016 C1026 0.930 . S
H1017 C1027 0.930 1_556 S
C1018 H1012 0.930 . S
C1018 C1019 1.355 . S
C1018 C1020 1.415 1_556 S
C1019 C1018 1.355 . S
C1019 C1021 1.419 1_556 S
C1020 C1018 1.415 1_554 S
C1020 C1025 1.425 . S
C1020 C1027 1.409 . S
C1021 H1013 0.930 . S
C1021 C1019 1.419 1_554 S
C1021 C1022 1.362 . S
C1022 H1014 0.930 . S
C1022 C1021 1.362 . S
C1022 C1025 1.409 . S
C1023 H1015 0.930 . S
C1023 C1024 1.355 . S
C1023 C1025 1.415 . S
C1024 C1023 1.355 . S
C1024 C1026 1.419 . S
C1025 C1020 1.425 . S
C1025 C1022 1.409 . S
C1025 C1023 1.415 . S
C1026 H1016 0.930 . S
C1026 C1024 1.419 . S
C1026 C1027 1.362 . S
C1027 H1017 0.930 1_554 S
C1027 C1020 1.409 . S
C1027 C1026 1.362 . S
H1028 C1034 0.930 . S
H1029 C1037 0.930 1_556 S
H1030 C1038 0.930 . S
H1031 C1039 0.930 . S
H1032 C1042 0.930 . S
H1033 C1043 0.930 . S
C1034 H1028 0.930 . S
C1034 C1035 1.355 . S
C1034 C1036 1.415 1_556 S
C1035 C1034 1.355 . S
C1035 C1037 1.419 1_556 S
C1036 C1034 1.415 1_554 S
C1036 C1041 1.425 . S
C1036 C1043 1.409 . S
C1037 H1029 0.930 1_554 S
C1037 C1035 1.419 1_554 S
C1037 C1038 1.362 . S
C1038 H1030 0.930 . S
C1038 C1037 1.362 . S
C1038 C1041 1.409 . S
C1039 H1031 0.930 . S
C1039 C1040 1.355 . S
C1039 C1041 1.415 . S
C1040 C1039 1.355 . S
C1040 C1042 1.419 . S
C1041 C1036 1.425 . S
C1041 C1038 1.409 . S
C1041 C1039 1.415 . S
C1042 H1032 0.930 . S
C1042 C1040 1.419 . S
C1042 C1043 1.362 . S
C1043 H1033 0.930 . S
C1043 C1036 1.409 . S
C1043 C1042 1.362 . S
H1044 C1050 0.930 . S
H1045 C1053 0.930 . S
H1046 C1054 0.930 . S
H1047 C1055 0.930 . S
H1048 C1058 0.930 . S
H1049 C1059 0.930 . S
C1050 H1044 0.930 . S
C1050 C1051 1.355 . S
C1050 C1052 1.415 . S
C1051 C1050 1.355 . S
C1051 C1053 1.419 . S
C1052 C1050 1.415 . S
C1052 C1057 1.425 . S
C1052 C1059 1.409 . S
C1053 H1045 0.930 . S
C1053 C1051 1.419 . S
C1053 C1054 1.362 . S
C1054 H1046 0.930 . S
C1054 C1053 1.362 . S
C1054 C1057 1.409 . S
C1055 H1047 0.930 . S
C1055 C1056 1.355 . S
C1055 C1057 1.415 . S
C1056 C1055 1.355 . S
C1056 C1058 1.419 . S
C1057 C1052 1.425 . S
C1057 C1054 1.409 . S
C1057 C1055 1.415 . S
C1058 H1048 0.930 . S
C1058 C1056 1.419 . S
C1058 C1059 1.362 . S
C1059 H1049 0.930 . S
C1059 C1052 1.409 . S
C1059 C1058 1.362 . S
H1060 C1066 0.930 . S
H1061 C1069 0.930 . S
H1062 C1070 0.930 . S
H1063 C1071 0.930 . S
H1064 C1074 0.930 . S
H1065 C1075 0.930 . S
C1066 H1060 0.930 . S
C1066 C1067 1.355 . S
C1066 C1068 1.415 . S
C1067 C1066 1.355 . S
C1067 C1069 1.419 . S
C1068 C1066 1.415 . S
C1068 C1073 1.425 . S
C1068 C1075 1.409 . S
C1069 H1061 0.930 . S
C1069 C1067 1.419 . S
C1069 C1070 1.362 . S
C1070 H1062 0.930 . S
C1070 C1069 1.362 . S
C1070 C1073 1.409 . S
C1071 H1063 0.930 . S
C1071 C1072 1.355 . S
C1071 C1073 1.415 . S
C1072 C1071 1.355 . S
C1072 C1074 1.419 . S
C1073 C1068 1.425 . S
C1073 C1070 1.409 . S
C1073 C1071 1.415 . S
C1074 H1064 0.930 . S
C1074 C1072 1.419 . S
C1074 C1075 1.362 . S
C1075 H1065 0.930 . S
C1075 C1068 1.409 . S
C1075 C1074 1.362 . S
H1076 C1082 0.930 . S
H1077 C1085 0.930 . S
H1078 C1086 0.930 . S
H1079 C1087 0.930 . S
H1080 C1090 0.930 . S
H1081 C1091 0.930 . S
C1082 H1076 0.930 . S
C1082 C1083 1.355 . S
C1082 C1084 1.415 . S
C1083 C1082 1.355 . S
C1083 C1085 1.419 . S
C1084 C1082 1.415 . S
C1084 C1089 1.425 . S
C1084 C1091 1.409 . S
C1085 H1077 0.930 . S
C1085 C1083 1.419 . S
C1085 C1086 1.362 . S
C1086 H1078 0.930 . S
C1086 C1085 1.362 . S
C1086 C1089 1.409 . S
C1087 H1079 0.930 . S
C1087 C1088 1.355 . S
C1087 C1089 1.415 . S
C1088 C1087 1.355 . S
C1088 C1090 1.419 . S
C1089 C1084 1.425 . S
C1089 C1086 1.409 . S
C1089 C1087 1.415 . S
C1090 H1080 0.930 . S
C1090 C1088 1.419 . S
C1090 C1091 1.362 . S
C1091 H1081 0.930 . S
C1091 C1084 1.409 . S
C1091 C1090 1.362 . S
H1092 C1098 0.930 . S
H1093 C1101 0.930 . S
H1094 C1102 0.930 . S
H1095 C1103 0.930 . S
H1096 C1106 0.930 . S
H1097 C1107 0.930 . S
C1098 H1092 0.930 . S
C1098 C1099 1.355 . S
C1098 C1100 1.415 . S
C1099 C1098 1.355 . S
C1099 C1101 1.419 . S
C1100 C1098 1.415 . S
C1100 C1105 1.425 . S
C1100 C1107 1.409 . S
C1101 H1093 0.930 . S
C1101 C1099 1.419 . S
C1101 C1102 1.362 . S
C1102 H1094 0.930 . S
C1102 C1101 1.362 . S
C1102 C1105 1.409 . S
C1103 H1095 0.930 . S
C1103 C1104 1.355 . S
C1103 C1105 1.415 . S
C1104 C1103 1.355 . S
C1104 C1106 1.419 . S
C1105 C1100 1.425 . S
C1105 C1102 1.409 . S
C1105 C1103 1.415 . S
C1106 H1096 0.930 . S
C1106 C1104 1.419 . S
C1106 C1107 1.362 . S
C1107 H1097 0.930 . S
C1107 C1100 1.409 . S
C1107 C1106 1.362 . S
H1108 C1114 0.930 . S
H1109 C1117 0.930 . S
H1110 C1118 0.930 . S
H1111 C1119 0.930 . S
H1112 C1122 0.930 . S
H1113 C1123 0.930 . S
C1114 H1108 0.930 . S
C1114 C1115 1.355 . S
C1114 C1116 1.415 . S
C1115 C1114 1.355 . S
C1115 C1117 1.419 . S
C1116 C1114 1.415 . S
C1116 C1121 1.425 . S
C1116 C1123 1.409 . S
C1117 H1109 0.930 . S
C1117 C1115 1.419 . S
C1117 C1118 1.362 . S
C1118 H1110 0.930 . S
C1118 C1117 1.362 . S
C1118 C1121 1.409 . S
C1119 H1111 0.930 . S
C1119 C1120 1.355 . S
C1119 C1121 1.415 . S
C1120 C1119 1.355 . S
C1120 C1122 1.419 . S
C1121 C1116 1.425 . S
C1121 C1118 1.409 . S
C1121 C1119 1.415 . S
C1122 H1112 0.930 . S
C1122 C1120 1.419 . S
C1122 C1123 1.362 . S
C1123 H1113 0.930 . S
C1123 C1116 1.409 . S
C1123 C1122 1.362 . S
H1124 C1130 0.930 . S
H1125 C1133 0.930 . S
H1126 C1134 0.930 . S
H1127 C1135 0.930 . S
H1128 C1138 0.930 . S
H1129 C1139 0.930 . S
C1130 H1124 0.930 . S
C1130 C1131 1.355 . S
C1130 C1132 1.415 . S
C1131 C1130 1.355 . S
C1131 C1133 1.419 . S
C1132 C1130 1.415 . S
C1132 C1137 1.425 . S
C1132 C1139 1.409 . S
C1133 H1125 0.930 . S
C1133 C1131 1.419 . S
C1133 C1134 1.362 . S
C1134 H1126 0.930 . S
C1134 C1133 1.362 . S
C1134 C1137 1.409 . S
C1135 H1127 0.930 . S
C1135 C1136 1.355 . S
C1135 C1137 1.415 . S
C1136 C1135 1.355 . S
C1136 C1138 1.419 . S
C1137 C1132 1.425 . S
C1137 C1134 1.409 . S
C1137 C1135 1.415 . S
C1138 H1128 0.930 . S
C1138 C1136 1.419 . S
C1138 C1139 1.362 . S
C1139 H1129 0.930 . S
C1139 C1132 1.409 . S
C1139 C1138 1.362 . S
H1140 C1146 0.930 . S
H1141 C1149 0.930 . S
H1142 C1150 0.930 . S
H1143 C1151 0.930 . S
H1144 C1154 0.930 . S
H1145 C1155 0.930 . S
C1146 H1140 0.930 . S
C1146 C1147 1.355 . S
C1146 C1148 1.415 . S
C1147 C1146 1.355 . S
C1147 C1149 1.419 . S
C1148 C1146 1.415 . S
C1148 C1153 1.425 . S
C1148 C1155 1.409 . S
C1149 H1141 0.930 . S
C1149 C1147 1.419 . S
C1149 C1150 1.362 . S
C1150 H1142 0.930 . S
C1150 C1149 1.362 . S
C1150 C1153 1.409 . S
C1151 H1143 0.930 . S
C1151 C1152 1.355 . S
C1151 C1153 1.415 . S
C1152 C1151 1.355 . S
C1152 C1154 1.419 . S
C1153 C1148 1.425 . S
C1153 C1150 1.409 . S
C1153 C1151 1.415 . S
C1154 H1144 0.930 . S
C1154 C1152 1.419 . S
C1154 C1155 1.362 . S
C1155 H1145 0.930 . S
C1155 C1148 1.409 . S
C1155 C1154 1.362 . S
H1156 C1162 0.930 . S
H1157 C1165 0.930 . S
H1158 C1166 0.930 . S
H1159 C1167 0.930 . S
H1160 C1170 0.930 . S
H1161 C1171 0.930 . S
C1162 H1156 0.930 . S
C1162 C1163 1.355 . S
C1162 C1164 1.415 . S
C1163 C1162 1.355 . S
C1163 C1165 1.419 . S
C1164 C1162 1.415 . S
C1164 C1169 1.425 . S
C1164 C1171 1.409 . S
C1165 H1157 0.930 . S
C1165 C1163 1.419 . S
C1165 C1166 1.362 . S
C1166 H1158 0.930 . S
C1166 C1165 1.362 . S
C1166 C1169 1.409 . S
C1167 H1159 0.930 . S
C1167 C1168 1.355 . S
C1167 C1169 1.415 . S
C1168 C1167 1.355 . S
C1168 C1170 1.419 . S
C1169 C1164 1.425 . S
C1169 C1166 1.409 . S
C1169 C1167 1.415 . S
C1170 H1160 0.930 . S
C1170 C1168 1.419 . S
C1170 C1171 1.362 . S
C1171 H1161 0.930 . S
C1171 C1164 1.409 . S
C1171 C1170 1.362 . S
H1172 C1178 0.930 . S
H1173 C1181 0.930 . S
H1174 C1182 0.930 . S
H1175 C1183 0.930 . S
H1176 C1186 0.930 . S
H1177 C1187 0.930 . S
C1178 H1172 0.930 . S
C1178 C1179 1.355 . S
C1178 C1180 1.415 . S
C1179 C1178 1.355 . S
C1179 C1181 1.419 . S
C1180 C1178 1.415 . S
C1180 C1185 1.425 . S
C1180 C1187 1.409 . S
C1181 H1173 0.930 . S
C1181 C1179 1.419 . S
C1181 C1182 1.362 . S
C1182 H1174 0.930 . S
C1182 C1181 1.362 . S
C1182 C1185 1.409 . S
C1183 H1175 0.930 . S
C1183 C1184 1.355 . S
C1183 C1185 1.415 . S
C1184 C1183 1.355 . S
C1184 C1186 1.419 . S
C1185 C1180 1.425 . S
C1185 C1182 1.409 . S
C1185 C1183 1.415 . S
C1186 H1176 0.930 . S
C1186 C1184 1.419 . S
C1186 C1187 1.362 . S
C1187 H1177 0.930 . S
C1187 C1180 1.409 . S
C1187 C1186 1.362 . S
H1188 C1194 0.930 . S
H1189 C1197 0.930 . S
H1190 C1198 0.930 . S
H1191 C1199 0.930 . S
H1192 C1202 0.930 . S
H1193 C1203 0.930 . S
C1194 H1188 0.930 . S
C1194 C1195 1.355 . S
C1194 C1196 1.415 . S
C1195 C1194 1.355 . S
C1195 C1197 1.419 . S
C1196 C1194 1.415 . S
C1196 C1201 1.425 . S
C1196 C1203 1.409 . S
C1197 H1189 0.930 . S
C1197 C1195 1.419 . S
C1197 C1198 1.362 . S
C1198 H1190 0.930 . S
C1198 C1197 1.362 . S
C1198 C1201 1.409 . S
C1199 H1191 0.930 . S
C1199 C1200 1.355 . S
C1199 C1201 1.415 . S
C1200 C1199 1.355 . S
C1200 C1202 1.419 . S
C1201 C1196 1.425 . S
C1201 C1198 1.409 . S
C1201 C1199 1.415 . S
C1202 H1192 0.930 . S
C1202 C1200 1.419 . S
C1202 C1203 1.362 . S
C1203 H1193 0.930 . S
C1203 C1196 1.409 . S
C1203 C1202 1.362 . S
H1204 C1210 0.930 . S
H1205 C1213 0.930 . S
H1206 C1214 0.930 . S
H1207 C1215 0.930 . S
H1208 C1218 0.930 . S
H1209 C1219 0.930 . S
C1210 H1204 0.930 . S
C1210 C1211 1.355 . S
C1210 C1212 1.415 . S
C1211 C1210 1.355 . S
C1211 C1213 1.419 . S
C1212 C1210 1.415 . S
C1212 C1217 1.425 . S
C1212 C1219 1.409 . S
C1213 H1205 0.930 . S
C1213 C1211 1.419 . S
C1213 C1214 1.362 . S
C1214 H1206 0.930 . S
C1214 C1213 1.362 . S
C1214 C1217 1.409 . S
C1215 H1207 0.930 . S
C1215 C1216 1.355 . S
C1215 C1217 1.415 . S
C1216 C1215 1.355 . S
C1216 C1218 1.419 . S
C1217 C1212 1.425 . S
C1217 C1214 1.409 . S
C1217 C1215 1.415 . S
C1218 H1208 0.930 . S
C1218 C1216 1.419 . S
C1218 C1219 1.362 . S
C1219 H1209 0.930 . S
C1219 C1212 1.409 . S
C1219 C1218 1.362 . S
H1220 C1226 0.930 . S
H1221 C1229 0.930 . S
H1222 C1230 0.930 . S
H1223 C1231 0.930 . S
H1224 C1234 0.930 . S
H1225 C1235 0.930 . S
C1226 H1220 0.930 . S
C1226 C1227 1.355 . S
C1226 C1228 1.415 . S
C1227 C1226 1.355 . S
C1227 C1229 1.419 . S
C1228 C1226 1.415 . S
C1228 C1233 1.425 . S
C1228 C1235 1.409 . S
C1229 H1221 0.930 . S
C1229 C1227 1.419 . S
C1229 C1230 1.362 . S
C1230 H1222 0.930 . S
C1230 C1229 1.362 . S
C1230 C1233 1.409 . S
C1231 H1223 0.930 . S
C1231 C1232 1.355 . S
C1231 C1233 1.415 . S
C1232 C1231 1.355 . S
C1232 C1234 1.419 . S
C1233 C1228 1.425 . S
C1233 C1230 1.409 . S
C1233 C1231 1.415 . S
C1234 H1224 0.930 . S
C1234 C1232 1.419 . S
C1234 C1235 1.362 . S
C1235 H1225 0.930 . S
C1235 C1228 1.409 . S
C1235 C1234 1.362 . S
H1236 C1242 0.930 . S
H1237 C1245 0.930 . S
H1238 C1246 0.930 . S
H1239 C1247 0.930 . S
H1240 C1250 0.930 . S
H1241 C1251 0.930 . S
C1242 H1236 0.930 . S
C1242 C1243 1.355 . S
C1242 C1244 1.415 . S
C1243 C1242 1.355 . S
C1243 C1245 1.419 . S
C1244 C1242 1.415 . S
C1244 C1249 1.425 . S
C1244 C1251 1.409 . S
C1245 H1237 0.930 . S
C1245 C1243 1.419 . S
C1245 C1246 1.362 . S
C1246 H1238 0.930 . S
C1246 C1245 1.362 . S
C1246 C1249 1.409 . S
C1247 H1239 0.930 . S
C1247 C1248 1.355 . S
C1247 C1249 1.415 . S
C1248 C1247 1.355 . S
C1248 C1250 1.419 . S
C1249 C1244 1.425 . S
C1249 C1246 1.409 . S
C1249 C1247 1.415 . S
C1250 H1240 0.930 . S
C1250 C1248 1.419 . S
C1250 C1251 1.362 . S
C1251 H1241 0.930 . S
C1251 C1244 1.409 . S
C1251 C1250 1.362 . S
H1252 C1258 0.930 1_554 S
H1253 C1261 0.930 . S
H1254 C1262 0.930 . S
H1255 C1263 0.930 . S
H1256 C1266 0.930 . S
H1257 C1267 0.930 . S
C1258 H1252 0.930 1_556 S
C1258 C1259 1.355 . S
C1258 C1260 1.415 . S
C1259 C1258 1.355 . S
C1259 C1261 1.419 . S
C1260 C1258 1.415 . S
C1260 C1265 1.425 . S
C1260 C1267 1.409 . S
C1261 H1253 0.930 . S
C1261 C1259 1.419 . S
C1261 C1262 1.362 . S
C1262 H1254 0.930 . S
C1262 C1261 1.362 . S
C1262 C1265 1.409 . S
C1263 H1255 0.930 . S
C1263 C1264 1.355 . S
C1263 C1265 1.415 . S
C1264 C1263 1.355 . S
C1264 C1266 1.419 . S
C1265 C1260 1.425 . S
C1265 C1262 1.409 . S
C1265 C1263 1.415 . S
C1266 H1256 0.930 . S
C1266 C1264 1.419 . S
C1266 C1267 1.362 . S
C1267 H1257 0.930 . S
C1267 C1260 1.409 . S
C1267 C1266 1.362 . S
H1268 C1274 0.930 . S
H1269 C1277 0.930 . S
H1270 C1278 0.930 . S
H1271 C1279 0.930 1_554 S
H1272 C1282 0.930 . S
H1273 C1283 0.930 . S
C1274 H1268 0.930 . S
C1274 C1275 1.355 . S
C1274 C1276 1.415 . S
C1275 C1274 1.355 . S
C1275 C1277 1.419 . S
C1276 C1274 1.415 . S
C1276 C1281 1.425 . S
C1276 C1283 1.409 . S
C1277 H1269 0.930 . S
C1277 C1275 1.419 . S
C1277 C1278 1.362 . S
C1278 H1270 0.930 . S
C1278 C1277 1.362 . S
C1278 C1281 1.409 . S
C1279 H1271 0.930 1_556 S
C1279 C1280 1.355 . S
C1279 C1281 1.415 . S
C1280 C1279 1.355 . S
C1280 C1282 1.419 . S
C1281 C1276 1.425 . S
C1281 C1278 1.409 . S
C1281 C1279 1.415 . S
C1282 H1272 0.930 . S
C1282 C1280 1.419 . S
C1282 C1283 1.362 . S
C1283 H1273 0.930 . S
C1283 C1276 1.409 . S
C1283 C1282 1.362 . S
H1284 C1290 0.930 . S
H1285 C1293 0.930 . S
H1286 C1294 0.931 . S
H1287 C1295 0.930 . S
H1288 C1298 0.930 . S
H1289 C1299 0.930 . S
C1290 H1284 0.930 . S
C1290 C1291 1.355 . S
C1290 C1292 1.415 . S
C1291 C1290 1.355 . S
C1291 C1293 1.419 . S
C1292 C1290 1.415 . S
C1292 C1297 1.425 . S
C1292 C1299 1.409 . S
C1293 H1285 0.930 . S
C1293 C1291 1.419 . S
C1293 C1294 1.362 1_556 S
C1294 H1286 0.931 . S
C1294 C1293 1.362 1_554 S
C1294 C1297 1.409 1_554 S
C1295 H1287 0.930 . S
C1295 C1296 1.355 . S
C1295 C1297 1.415 1_554 S
C1296 C1295 1.355 . S
C1296 C1298 1.419 1_554 S
C1297 C1292 1.425 . S
C1297 C1294 1.409 1_556 S
C1297 C1295 1.415 1_556 S
C1298 H1288 0.930 . S
C1298 C1296 1.419 1_556 S
C1298 C1299 1.362 . S
C1299 H1289 0.930 . S
C1299 C1292 1.409 . S
C1299 C1298 1.362 . S
H1300 C1306 0.930 . S
H1301 C1309 0.930 . S
H1302 C1310 0.930 1_554 S
H1303 C1311 0.930 . S
H1304 C1314 0.930 . S
H1305 C1315 0.930 . S
C1306 H1300 0.930 . S
C1306 C1307 1.355 . S
C1306 C1308 1.415 . S
C1307 C1306 1.355 . S
C1307 C1309 1.419 . S
C1308 C1306 1.415 . S
C1308 C1313 1.425 . S
C1308 C1315 1.409 . S
C1309 H1301 0.930 . S
C1309 C1307 1.419 . S
C1309 C1310 1.362 . S
C1310 H1302 0.930 1_556 S
C1310 C1309 1.362 . S
C1310 C1313 1.409 . S
C1311 H1303 0.930 . S
C1311 C1312 1.355 . S
C1311 C1313 1.415 1_554 S
C1312 C1311 1.355 . S
C1312 C1314 1.419 1_554 S
C1313 C1308 1.425 . S
C1313 C1310 1.409 . S
C1313 C1311 1.415 1_556 S
C1314 H1304 0.930 . S
C1314 C1312 1.419 1_556 S
C1314 C1315 1.362 . S
C1315 H1305 0.930 . S
C1315 C1308 1.409 . S
C1315 C1314 1.362 . S
H1316 C1322 0.930 . S
H1317 C1325 0.930 . S
H1318 C1326 0.930 . S
H1319 C1327 0.930 . S
H1320 C1330 0.930 . S
H1321 C1331 0.930 . S
C1322 H1316 0.930 . S
C1322 C1323 1.355 . S
C1322 C1324 1.415 . S
C1323 C1322 1.355 . S
C1323 C1325 1.419 . S
C1324 C1322 1.415 . S
C1324 C1329 1.425 . S
C1324 C1331 1.409 1_556 S
C1325 H1317 0.930 . S
C1325 C1323 1.419 . S
C1325 C1326 1.362 . S
C1326 H1318 0.930 . S
C1326 C1325 1.362 . S
C1326 C1329 1.409 . S
C1327 H1319 0.930 . S
C1327 C1328 1.355 1_556 S
C1327 C1329 1.415 . S
C1328 C1327 1.355 1_554 S
C1328 C1330 1.419 . S
C1329 C1324 1.425 . S
C1329 C1326 1.409 . S
C1329 C1327 1.415 . S
C1330 H1320 0.930 . S
C1330 C1328 1.419 . S
C1330 C1331 1.362 . S
C1331 H1321 0.930 . S
C1331 C1324 1.409 1_554 S
C1331 C1330 1.362 . S
H1332 C1338 0.930 . S
H1333 C1341 0.930 . S
H1334 C1342 0.930 1_554 S
H1335 C1343 0.930 . S
H1336 C1346 0.930 . S
H1337 C1347 0.930 . S
C1338 H1332 0.930 . S
C1338 C1339 1.355 . S
C1338 C1340 1.415 . S
C1339 C1338 1.355 . S
C1339 C1341 1.419 . S
C1340 C1338 1.415 . S
C1340 C1345 1.425 . S
C1340 C1347 1.409 . S
C1341 H1333 0.930 . S
C1341 C1339 1.419 . S
C1341 C1342 1.362 . S
C1342 H1334 0.930 1_556 S
C1342 C1341 1.362 . S
C1342 C1345 1.409 . S
C1343 H1335 0.930 . S
C1343 C1344 1.355 1_554 S
C1343 C1345 1.415 1_554 S
C1344 C1343 1.355 1_556 S
C1344 C1346 1.419 . S
C1345 C1340 1.425 . S
C1345 C1342 1.409 . S
C1345 C1343 1.415 1_556 S
C1346 H1336 0.930 . S
C1346 C1344 1.419 . S
C1346 C1347 1.362 . S
C1347 H1337 0.930 . S
C1347 C1340 1.409 . S
C1347 C1346 1.362 . S
H1348 C1354 0.933 . S
H1349 C1357 0.930 . S
H1350 C1358 0.930 . S
H1351 C1359 0.930 . S
H1352 C1362 0.930 . S
H1353 C1363 0.930 1_554 S
C1354 H1348 0.933 . S
C1354 C1355 1.354 1_554 S
C1354 C1356 1.413 1_554 S
C1355 C1354 1.354 1_556 S
C1355 C1357 1.419 . S
C1356 C1354 1.413 1_556 S
C1356 C1361 1.425 . S
C1356 C1363 1.409 . S
C1357 H1349 0.930 . S
C1357 C1355 1.419 . S
C1357 C1358 1.362 . S
C1358 H1350 0.930 . S
C1358 C1357 1.362 . S
C1358 C1361 1.409 . S
C1359 H1351 0.930 . S
C1359 C1360 1.355 . S
C1359 C1361 1.415 . S
C1360 C1359 1.355 . S
C1360 C1362 1.419 . S
C1361 C1356 1.425 . S
C1361 C1358 1.409 . S
C1361 C1359 1.415 . S
C1362 H1352 0.930 . S
C1362 C1360 1.419 . S
C1362 C1363 1.362 . S
C1363 H1353 0.930 1_556 S
C1363 C1356 1.409 . S
C1363 C1362 1.362 . S
H1364 C1370 0.930 . S
H1365 C1373 0.930 . S
H1366 C1374 0.930 1_554 S
H1367 C1375 0.943 . S
H1368 C1378 0.930 . S
H1369 C1379 0.930 . S
C1370 H1364 0.930 . S
C1370 C1371 1.355 . S
C1370 C1372 1.415 . S
C1371 C1370 1.355 . S
C1371 C1373 1.419 . S
C1372 C1370 1.415 . S
C1372 C1377 1.425 . S
C1372 C1379 1.409 . S
C1373 H1365 0.930 . S
C1373 C1371 1.419 . S
C1373 C1374 1.362 . S
C1374 H1366 0.930 1_556 S
C1374 C1373 1.362 . S
C1374 C1377 1.409 . S
C1375 H1367 0.943 . S
C1375 C1376 1.350 1_554 S
C1375 C1377 1.407 1_554 S
C1376 C1375 1.350 1_556 S
C1376 C1378 1.419 . S
C1377 C1372 1.425 . S
C1377 C1374 1.409 . S
C1377 C1375 1.407 1_556 S
C1378 H1368 0.930 . S
C1378 C1376 1.419 . S
C1378 C1379 1.362 . S
C1379 H1369 0.930 . S
C1379 C1372 1.409 . S
C1379 C1378 1.362 . S
H1380 C1386 0.930 . S
H1381 C1389 0.930 . S
H1382 C1390 0.930 . S
H1383 C1391 0.930 . S
H1384 C1394 0.930 . S
H1385 C1395 0.930 . S
C1386 H1380 0.930 . S
C1386 C1387 1.355 . S
C1386 C1388 1.415 . S
C1387 C1386 1.355 . S
C1387 C1389 1.419 . S
C1388 C1386 1.415 . S
C1388 C1393 1.425 . S
C1388 C1395 1.409 . S
C1389 H1381 0.930 . S
C1389 C1387 1.419 . S
C1389 C1390 1.362 . S
C1390 H1382 0.930 . S
C1390 C1389 1.362 . S
C1390 C1393 1.409 . S
C1391 H1383 0.930 . S
C1391 C1392 1.355 . S
C1391 C1393 1.415 . S
C1392 C1391 1.355 . S
C1392 C1394 1.419 . S
C1393 C1388 1.425 . S
C1393 C1390 1.409 . S
C1393 C1391 1.415 . S
C1394 H1384 0.930 . S
C1394 C1392 1.419 . S
C1394 C1395 1.362 . S
C1395 H1385 0.930 . S
C1395 C1388 1.409 . S
C1395 C1394 1.362 . S
H1396 C1402 0.930 . S
H1397 C1405 0.930 . S
H1398 C1406 0.930 . S
H1399 C1407 0.930 . S
H1400 C1410 0.930 . S
H1401 C1411 0.930 . S
C1402 H1396 0.930 . S
C1402 C1403 1.355 . S
C1402 C1404 1.415 . S
C1403 C1402 1.355 . S
C1403 C1405 1.419 . S
C1404 C1402 1.415 . S
C1404 C1409 1.425 . S
C1404 C1411 1.409 . S
C1405 H1397 0.930 . S
C1405 C1403 1.419 . S
C1405 C1406 1.362 . S
C1406 H1398 0.930 . S
C1406 C1405 1.362 . S
C1406 C1409 1.409 . S
C1407 H1399 0.930 . S
C1407 C1408 1.355 . S
C1407 C1409 1.415 . S
C1408 C1407 1.355 . S
C1408 C1410 1.419 . S
C1409 C1404 1.425 . S
C1409 C1406 1.409 . S
C1409 C1407 1.415 . S
C1410 H1400 0.930 . S
C1410 C1408 1.419 . S
C1410 C1411 1.362 . S
C1411 H1401 0.930 . S
C1411 C1404 1.409 . S
C1411 C1410 1.362 . S
H1412 C1418 0.930 . S
H1413 C1421 0.930 . S
H1414 C1422 0.930 . S
H1415 C1423 0.930 . S
H1416 C1426 0.930 . S
H1417 C1427 0.930 . S
C1418 H1412 0.930 . S
C1418 C1419 1.355 . S
C1418 C1420 1.415 . S
C1419 C1418 1.355 . S
C1419 C1421 1.419 . S
C1420 C1418 1.415 . S
C1420 C1425 1.425 . S
C1420 C1427 1.409 . S
C1421 H1413 0.930 . S
C1421 C1419 1.419 . S
C1421 C1422 1.362 . S
C1422 H1414 0.930 . S
C1422 C1421 1.362 . S
C1422 C1425 1.409 . S
C1423 H1415 0.930 . S
C1423 C1424 1.355 . S
C1423 C1425 1.415 . S
C1424 C1423 1.355 . S
C1424 C1426 1.419 . S
C1425 C1420 1.425 . S
C1425 C1422 1.409 . S
C1425 C1423 1.415 . S
C1426 H1416 0.930 . S
C1426 C1424 1.419 . S
C1426 C1427 1.362 . S
C1427 H1417 0.930 . S
C1427 C1420 1.409 . S
C1427 C1426 1.362 . S
H1428 C1434 0.930 . S
H1429 C1437 0.930 . S
H1430 C1438 0.930 . S
H1431 C1439 0.930 . S
H1432 C1442 0.930 . S
H1433 C1443 0.930 1_556 S
C1434 H1428 0.930 . S
C1434 C1435 1.355 1_556 S
C1434 C1436 1.415 1_556 S
C1435 C1434 1.355 1_554 S
C1435 C1437 1.419 . S
C1436 C1434 1.415 1_554 S
C1436 C1441 1.425 . S
C1436 C1443 1.409 . S
C1437 H1429 0.930 . S
C1437 C1435 1.419 . S
C1437 C1438 1.362 . S
C1438 H1430 0.930 . S
C1438 C1437 1.362 . S
C1438 C1441 1.409 . S
C1439 H1431 0.930 . S
C1439 C1440 1.355 . S
C1439 C1441 1.415 . S
C1440 C1439 1.355 . S
C1440 C1442 1.419 . S
C1441 C1436 1.425 . S
C1441 C1438 1.409 . S
C1441 C1439 1.415 . S
C1442 H1432 0.930 . S
C1442 C1440 1.419 . S
C1442 C1443 1.362 . S
C1443 H1433 0.930 1_554 S
C1443 C1436 1.409 . S
C1443 C1442 1.362 . S
H1444 C1450 0.930 . S
H1445 C1453 0.930 . S
H1446 C1454 0.930 . S
H1447 C1455 0.930 . S
H1448 C1458 0.930 . S
H1449 C1459 0.930 . S
C1450 H1444 0.930 . S
C1450 C1451 1.355 . S
C1450 C1452 1.415 . S
C1451 C1450 1.355 . S
C1451 C1453 1.419 . S
C1452 C1450 1.415 . S
C1452 C1457 1.425 . S
C1452 C1459 1.409 . S
C1453 H1445 0.930 . S
C1453 C1451 1.419 . S
C1453 C1454 1.362 . S
C1454 H1446 0.930 . S
C1454 C1453 1.362 . S
C1454 C1457 1.409 . S
C1455 H1447 0.930 . S
C1455 C1456 1.355 . S
C1455 C1457 1.415 . S
C1456 C1455 1.355 . S
C1456 C1458 1.419 . S
C1457 C1452 1.425 . S
C1457 C1454 1.409 . S
C1457 C1455 1.415 . S
C1458 H1448 0.930 . S
C1458 C1456 1.419 . S
C1458 C1459 1.362 . S
C1459 H1449 0.930 . S
C1459 C1452 1.409 . S
C1459 C1458 1.362 . S
H1460 C1466 0.930 . S
H1461 C1469 0.930 . S
H1462 C1470 0.930 1_556 S
H1463 C1471 0.930 . S
H1464 C1474 0.930 . S
H1465 C1475 0.930 . S
C1466 H1460 0.930 . S
C1466 C1467 1.355 . S
C1466 C1468 1.415 . S
C1467 C1466 1.355 . S
C1467 C1469 1.419 . S
C1468 C1466 1.415 . S
C1468 C1473 1.425 . S
C1468 C1475 1.409 . S
C1469 H1461 0.930 . S
C1469 C1467 1.419 . S
C1469 C1470 1.362 . S
C1470 H1462 0.930 1_554 S
C1470 C1469 1.362 . S
C1470 C1473 1.409 . S
C1471 H1463 0.930 . S
C1471 C1472 1.354 1_556 S
C1471 C1473 1.414 1_556 S
C1472 C1471 1.354 1_554 S
C1472 C1474 1.419 . S
C1473 C1468 1.425 . S
C1473 C1470 1.409 . S
C1473 C1471 1.414 1_554 S
C1474 H1464 0.930 . S
C1474 C1472 1.419 . S
C1474 C1475 1.362 . S
C1475 H1465 0.930 . S
C1475 C1468 1.409 . S
C1475 C1474 1.362 . S
H1476 C1482 0.930 . S
H1477 C1485 0.930 . S
H1478 C1486 0.930 . S
H1479 C1487 0.930 . S
H1480 C1490 0.930 . S
H1481 C1491 0.930 . S
C1482 H1476 0.930 . S
C1482 C1483 1.355 . S
C1482 C1484 1.415 . S
C1483 C1482 1.355 . S
C1483 C1485 1.419 . S
C1484 C1482 1.415 . S
C1484 C1489 1.425 . S
C1484 C1491 1.409 . S
C1485 H1477 0.930 . S
C1485 C1483 1.419 . S
C1485 C1486 1.362 . S
C1486 H1478 0.930 . S
C1486 C1485 1.362 . S
C1486 C1489 1.409 . S
C1487 H1479 0.930 . S
C1487 C1488 1.355 . S
C1487 C1489 1.415 . S
C1488 C1487 1.355 . S
C1488 C1490 1.419 . S
C1489 C1484 1.425 . S
C1489 C1486 1.409 . S
C1489 C1487 1.415 . S
C1490 H1480 0.930 . S
C1490 C1488 1.419 . S
C1490 C1491 1.362 . S
C1491 H1481 0.930 . S
C1491 C1484 1.409 . S
C1491 C1490 1.362 . S
H1492 C1498 0.930 . S
H1493 C1501 0.930 . S
H1494 C1502 0.930 . S
H1495 C1503 0.930 . S
H1496 C1506 0.930 . S
H1497 C1507 0.930 . S
C1498 H1492 0.930 . S
C1498 C1499 1.355 . S
C1498 C1500 1.415 . S
C1499 C1498 1.355 . S
C1499 C1501 1.419 . S
C1500 C1498 1.415 . S
C1500 C1505 1.425 . S
C1500 C1507 1.409 . S
C1501 H1493 0.930 . S
C1501 C1499 1.419 . S
C1501 C1502 1.362 . S
C1502 H1494 0.930 . S
C1502 C1501 1.362 . S
C1502 C1505 1.409 . S
C1503 H1495 0.930 . S
C1503 C1504 1.355 . S
C1503 C1505 1.415 . S
C1504 C1503 1.355 . S
C1504 C1506 1.419 . S
C1505 C1500 1.425 . S
C1505 C1502 1.409 . S
C1505 C1503 1.415 . S
C1506 H1496 0.930 . S
C1506 C1504 1.419 . S
C1506 C1507 1.362 . S
C1507 H1497 0.930 . S
C1507 C1500 1.409 . S
C1507 C1506 1.362 . S
H1508 C1514 0.930 . S
H1509 C1517 0.930 . S
H1510 C1518 0.930 . S
H1511 C1519 0.930 . S
H1512 C1522 0.930 . S
H1513 C1523 0.930 . S
C1514 H1508 0.930 . S
C1514 C1515 1.355 . S
C1514 C1516 1.415 . S
C1515 C1514 1.355 . S
C1515 C1517 1.419 . S
C1516 C1514 1.415 . S
C1516 C1521 1.425 . S
C1516 C1523 1.409 . S
C1517 H1509 0.930 . S
C1517 C1515 1.419 . S
C1517 C1518 1.362 . S
C1518 H1510 0.930 . S
C1518 C1517 1.362 . S
C1518 C1521 1.409 . S
C1519 H1511 0.930 . S
C1519 C1520 1.355 . S
C1519 C1521 1.415 . S
C1520 C1519 1.355 . S
C1520 C1522 1.419 . S
C1521 C1516 1.425 . S
C1521 C1518 1.409 . S
C1521 C1519 1.415 . S
C1522 H1512 0.930 . S
C1522 C1520 1.419 . S
C1522 C1523 1.362 . S
C1523 H1513 0.930 . S
C1523 C1516 1.409 . S
C1523 C1522 1.362 . S
H1524 C1530 0.930 . S
H1525 C1533 0.930 . S
H1526 C1534 0.974 . S
H1527 C1535 0.930 . S
H1528 C1538 0.930 . S
H1529 C1539 0.973 . S
C1530 H1524 0.930 . S
C1530 C1531 1.355 . S
C1530 C1532 1.415 . S
C1531 C1530 1.355 . S
C1531 C1533 1.419 . S
C1532 C1530 1.415 . S
C1532 C1537 1.425 1_655 S
C1532 C1539 1.409 1_655 S
C1533 H1525 0.930 . S
C1533 C1531 1.419 . S
C1533 C1534 1.362 . S
C1534 H1526 0.974 . S
C1534 C1533 1.362 . S
C1534 C1537 1.409 1_655 S
C1535 H1527 0.930 . S
C1535 C1536 1.355 . S
C1535 C1537 1.415 . S
C1536 C1535 1.355 . S
C1536 C1538 1.419 . S
C1537 C1532 1.425 1_455 S
C1537 C1534 1.409 1_455 S
C1537 C1535 1.415 . S
C1538 H1528 0.930 . S
C1538 C1536 1.419 . S
C1538 C1539 1.362 . S
C1539 H1529 0.973 . S
C1539 C1532 1.409 1_455 S
C1539 C1538 1.362 . S
H1540 C1546 0.930 . S
H1541 C1549 0.930 . S
H1542 C1550 0.930 . S
H1543 C1551 0.930 . S
H1544 C1554 0.930 . S
H1545 C1555 0.930 . S
C1546 H1540 0.930 . S
C1546 C1547 1.355 . S
C1546 C1548 1.415 . S
C1547 C1546 1.355 . S
C1547 C1549 1.419 . S
C1548 C1546 1.415 . S
C1548 C1553 1.425 . S
C1548 C1555 1.409 . S
C1549 H1541 0.930 . S
C1549 C1547 1.419 . S
C1549 C1550 1.362 . S
C1550 H1542 0.930 . S
C1550 C1549 1.362 . S
C1550 C1553 1.409 . S
C1551 H1543 0.930 . S
C1551 C1552 1.355 . S
C1551 C1553 1.415 . S
C1552 C1551 1.355 . S
C1552 C1554 1.419 . S
C1553 C1548 1.425 . S
C1553 C1550 1.409 . S
C1553 C1551 1.415 . S
C1554 H1544 0.930 . S
C1554 C1552 1.419 . S
C1554 C1555 1.362 . S
C1555 H1545 0.930 . S
C1555 C1548 1.409 . S
C1555 C1554 1.362 . S
H1556 C1562 0.930 . S
H1557 C1565 0.930 . S
H1558 C1566 0.930 . S
H1559 C1567 0.930 . S
H1560 C1570 0.930 . S
H1561 C1571 0.930 . S
C1562 H1556 0.930 . S
C1562 C1563 1.355 . S
C1562 C1564 1.415 . S
C1563 C1562 1.355 . S
C1563 C1565 1.419 . S
C1564 C1562 1.415 . S
C1564 C1569 1.425 1_565 S
C1564 C1571 1.409 . S
C1565 H1557 0.930 . S
C1565 C1563 1.419 . S
C1565 C1566 1.362 1_565 S
C1566 H1558 0.930 . S
C1566 C1565 1.362 1_545 S
C1566 C1569 1.409 . S
C1567 H1559 0.930 . S
C1567 C1568 1.355 . S
C1567 C1569 1.415 . S
C1568 C1567 1.355 . S
C1568 C1570 1.419 . S
C1569 C1564 1.425 1_545 S
C1569 C1566 1.409 . S
C1569 C1567 1.415 . S
C1570 H1560 0.930 . S
C1570 C1568 1.419 . S
C1570 C1571 1.362 1_545 S
C1571 H1561 0.930 . S
C1571 C1564 1.409 . S
C1571 C1570 1.362 1_565 S
H1572 C1578 0.930 . S
H1573 C1581 0.930 . S
H1574 C1582 0.930 . S
H1575 C1583 0.930 . S
H1576 C1586 0.930 . S
H1577 C1587 0.930 . S
C1578 H1572 0.930 . S
C1578 C1579 1.355 . S
C1578 C1580 1.415 1_545 S
C1579 C1578 1.355 . S
C1579 C1581 1.419 . S
C1580 C1578 1.415 1_565 S
C1580 C1585 1.425 1_565 S
C1580 C1587 1.409 . S
C1581 H1573 0.930 . S
C1581 C1579 1.419 . S
C1581 C1582 1.362 . S
C1582 H1574 0.930 . S
C1582 C1581 1.362 . S
C1582 C1585 1.409 . S
C1583 H1575 0.930 . S
C1583 C1584 1.355 . S
C1583 C1585 1.415 1_565 S
C1584 C1583 1.355 . S
C1584 C1586 1.419 . S
C1585 C1580 1.425 1_545 S
C1585 C1582 1.409 . S
C1585 C1583 1.415 1_545 S
C1586 H1576 0.930 . S
C1586 C1584 1.419 . S
C1586 C1587 1.362 . S
C1587 H1577 0.930 . S
C1587 C1580 1.409 . S
C1587 C1586 1.362 . S
H1588 C1594 0.930 . S
H1589 C1597 0.930 . S
H1590 C1598 0.899 1_655 S
H1591 C1599 0.930 . S
H1592 C1602 0.930 . S
H1593 C1603 0.900 1_455 S
C1594 H1588 0.930 . S
C1594 C1595 1.355 . S
C1594 C1596 1.415 . S
C1595 C1594 1.355 . S
C1595 C1597 1.419 . S
C1596 C1594 1.415 . S
C1596 C1601 1.425 1_455 S
C1596 C1603 1.408 1_455 S
C1597 H1589 0.930 . S
C1597 C1595 1.419 . S
C1597 C1598 1.396 . S
C1598 H1590 0.899 1_455 S
C1598 C1597 1.396 . S
C1598 C1601 1.408 1_455 S
C1599 H1591 0.930 . S
C1599 C1600 1.355 . S
C1599 C1601 1.415 . S
C1600 C1599 1.355 . S
C1600 C1602 1.419 . S
C1601 C1596 1.425 1_655 S
C1601 C1598 1.408 1_655 S
C1601 C1599 1.415 . S
C1602 H1592 0.930 . S
C1602 C1600 1.419 . S
C1602 C1603 1.394 . S
C1603 H1593 0.900 1_655 S
C1603 C1596 1.408 1_655 S
C1603 C1602 1.394 . S
H1604 C1610 0.930 . S
H1605 C1613 0.930 . S
H1606 C1614 0.930 . S
H1607 C1615 0.930 . S
H1608 C1618 0.930 . S
H1609 C1619 0.930 . S
C1610 H1604 0.930 . S
C1610 C1611 1.355 . S
C1610 C1612 1.415 . S
C1611 C1610 1.355 . S
C1611 C1613 1.419 . S
C1612 C1610 1.415 . S
C1612 C1617 1.425 . S
C1612 C1619 1.409 . S
C1613 H1605 0.930 . S
C1613 C1611 1.419 . S
C1613 C1614 1.362 . S
C1614 H1606 0.930 . S
C1614 C1613 1.362 . S
C1614 C1617 1.409 . S
C1615 H1607 0.930 . S
C1615 C1616 1.355 . S
C1615 C1617 1.415 . S
C1616 C1615 1.355 . S
C1616 C1618 1.419 . S
C1617 C1612 1.425 . S
C1617 C1614 1.409 . S
C1617 C1615 1.415 . S
C1618 H1608 0.930 . S
C1618 C1616 1.419 . S
C1618 C1619 1.362 . S
C1619 H1609 0.930 . S
C1619 C1612 1.409 . S
C1619 C1618 1.362 . S
C475 C65 1.420 . S
C480 C0 1.418 . S
C491 C13 1.430 . S
C496 C39 1.390 . S
C507 C52 1.347 . S
C512 C26 1.396 . S
C523 C78 1.390 . S
C528 C143 1.345 . S
C539 C91 1.397 . S
C544 C117 1.429 . S
C555 C130 1.360 . S
C560 C104 1.417 . S
C571 C221 1.388 . S
C576 C156 1.345 . S
C587 C169 1.346 . S
C592 C195 1.388 . S
C603 C208 1.404 . S
C608 C182 1.429 . S
C619 C234 1.430 . S
C624 C299 1.397 . S
C635 C247 1.397 . S
C640 C273 1.429 . S
C651 C260 1.425 . S
C656 C286 1.372 . S
C667 C312 1.427 . S
C672 C377 1.407 . S
C683 C351 1.417 . S
C688 C325 1.360 . S
C699 C338 1.372 . S
C704 C364 1.425 . S
C715 C390 1.346 . S
C720 C455 1.378 . S
C731 C403 1.428 . S
C736 C429 1.406 . S
C747 C416 1.385 . S
C752 C442 1.430 . S
C763 C138 1.087 . S
C768 C5 0.957 . S
C779 C151 1.063 . S
C784 C18 0.947 . S
C795 C125 1.108 . S
C800 C31 1.096 . S
C811 C112 1.096 . S
C816 C44 1.084 . S
C827 C57 0.961 . S
C832 C86 1.092 . S
C843 C70 1.031 . S
C848 C99 1.142 . S
C859 C83 0.969 . S
C864 C60 1.046 . S
C875 C96 1.048 . S
C880 C73 1.149 . S
C891 C109 1.014 . S
C896 C47 1.053 . S
C907 C34 1.056 . S
C912 C122 1.020 . S
C923 C8 1.126 . S
C928 C135 1.108 . S
C939 C148 0.973 . S
C944 C21 1.046 . S
C955 C161 1.093 . S
C960 C294 1.157 1_554 S
C971 C174 1.045 . S
C976 C307 1.148 1_554 S
C987 C281 1.145 1_554 S
C992 C187 1.039 . S
C1003 C200 1.017 . S
C1008 C268 1.055 . S
C1019 C213 1.112 . S
C1024 C242 1.136 . S
C1035 C226 1.104 . S
C1040 C255 1.119 . S
C1051 C239 0.964 . S
C1056 C216 1.047 . S
C1067 C229 1.060 . S
C1072 C252 1.030 . S
C1083 C203 1.158 . S
C1088 C265 1.083 . S
C1099 C278 1.030 . S
C1104 C190 1.142 . S
C1115 C164 1.119 . S
C1120 C291 1.104 . S
C1131 C177 1.157 . S
C1136 C304 1.081 . S
C1147 C450 1.092 . S
C1152 C317 1.079 . S
C1163 C330 1.050 . S
C1168 C463 1.071 . S
C1179 C343 1.067 . S
C1184 C437 1.155 . S
C1195 C424 1.046 . S
C1200 C356 0.974 . S
C1211 C398 1.154 . S
C1216 C369 1.061 . S
C1227 C411 1.088 . S
C1232 C382 1.075 . S
C1243 C395 0.965 . S
C1248 C372 1.097 1_556 S
C1259 C385 1.151 1_556 S
C1264 C408 1.109 . S
C1275 C421 1.004 . S
C1280 C359 1.128 1_556 S
C1291 C346 1.155 . S
C1296 C434 1.068 . S
C1307 C320 1.146 . S
C1312 C447 1.112 . S
C1323 C333 1.049 . S
C1328 C460 0.998 . S
C1339 C218 1.423 . S
C1344 C10 1.435 1_556 S
C1355 C23 1.429 1_556 S
C1360 C231 1.429 . S
C1371 C205 1.428 . S
C1376 C36 1.430 1_556 S
C1387 C348 1.455 . S
C1392 C49 1.402 . S
C1403 C62 1.452 . S
C1408 C322 1.405 . S
C1419 C75 1.412 . S
C1424 C335 1.445 . S
C1435 C88 1.443 1_554 S
C1440 C452 1.415 . S
C1451 C465 1.403 . S
C1456 C101 1.454 1_554 S
C1467 C439 1.448 . S
C1472 C114 1.409 1_554 S
C1483 C270 1.456 . S
C1488 C127 1.401 . S
C1499 C140 1.401 . S
C1504 C244 1.456 . S
C1515 C153 1.436 . S
C1520 C257 1.421 . S
C1531 C166 1.456 . S
C1536 C374 1.401 . S
C1547 C387 1.436 . S
C1552 C179 1.422 . S
C1563 C361 1.428 . S
C1568 C192 1.430 . S
C1579 C283 1.446 . S
C1584 C426 1.412 . S
C1595 C400 1.439 . S
C1600 C296 1.418 . S
C1611 C413 1.436 . S
C1616 C309 1.422 . S
