# Generated by pormake.
# Topology wiv, (6)-cn, num edge types: 1
# Building blocks:
#     Node 0, Type 0, BuildingBlock: UKALOJ_clean_sbu_0, # of connection points: 6
#     Node 1, Type 0, BuildingBlock: UKALOJ_clean_sbu_0, # of connection points: 6
#     Node 2, Type 0, BuildingBlock: UKALOJ_clean_sbu_0, # of connection points: 6
#     Node 3, Type 0, BuildingBlock: UKALOJ_clean_sbu_0, # of connection points: 6
#     Node 4, Type 0, BuildingBlock: UKALOJ_clean_sbu_0, # of connection points: 6
#     Node 5, Type 0, BuildingBlock: UKALOJ_clean_sbu_0, # of connection points: 6
#     Node 6, Type 0, BuildingBlock: UKALOJ_clean_sbu_0, # of connection points: 6
#     Node 7, Type 0, BuildingBlock: UKALOJ_clean_sbu_0, # of connection points: 6
#     Node 8, Type 0, BuildingBlock: UKALOJ_clean_sbu_0, # of connection points: 6
#     Node 9, Type 0, BuildingBlock: UKALOJ_clean_sbu_0, # of connection points: 6
#     Node 10, Type 0, BuildingBlock: UKALOJ_clean_sbu_0, # of connection points: 6
#     Node 11, Type 0, BuildingBlock: UKALOJ_clean_sbu_0, # of connection points: 6
#     Node 12, Type 0, BuildingBlock: UKALOJ_clean_sbu_0, # of connection points: 6
#     Node 13, Type 0, BuildingBlock: UKALOJ_clean_sbu_0, # of connection points: 6
#     Node 14, Type 0, BuildingBlock: UKALOJ_clean_sbu_0, # of connection points: 6
#     Node 15, Type 0, BuildingBlock: UKALOJ_clean_sbu_0, # of connection points: 6
#     Edge 16, Type (0, 0), BuildingBlock: XIVTED_clean_linker_0, # of connection points: 2
#     Edge 17, Type (0, 0), BuildingBlock: XIVTED_clean_linker_0, # of connection points: 2
#     Edge 18, Type (0, 0), BuildingBlock: XIVTED_clean_linker_0, # of connection points: 2
#     Edge 19, Type (0, 0), BuildingBlock: XIVTED_clean_linker_0, # of connection points: 2
#     Edge 20, Type (0, 0), BuildingBlock: XIVTED_clean_linker_0, # of connection points: 2
#     Edge 21, Type (0, 0), BuildingBlock: XIVTED_clean_linker_0, # of connection points: 2
#     Edge 22, Type (0, 0), BuildingBlock: XIVTED_clean_linker_0, # of connection points: 2
#     Edge 23, Type (0, 0), BuildingBlock: XIVTED_clean_linker_0, # of connection points: 2
#     Edge 24, Type (0, 0), BuildingBlock: XIVTED_clean_linker_0, # of connection points: 2
#     Edge 25, Type (0, 0), BuildingBlock: XIVTED_clean_linker_0, # of connection points: 2
#     Edge 26, Type (0, 0), BuildingBlock: XIVTED_clean_linker_0, # of connection points: 2
#     Edge 27, Type (0, 0), BuildingBlock: XIVTED_clean_linker_0, # of connection points: 2
#     Edge 28, Type (0, 0), BuildingBlock: XIVTED_clean_linker_0, # of connection points: 2
#     Edge 29, Type (0, 0), BuildingBlock: XIVTED_clean_linker_0, # of connection points: 2
#     Edge 30, Type (0, 0), BuildingBlock: XIVTED_clean_linker_0, # of connection points: 2
#     Edge 31, Type (0, 0), BuildingBlock: XIVTED_clean_linker_0, # of connection points: 2
#     Edge 32, Type (0, 0), BuildingBlock: XIVTED_clean_linker_0, # of connection points: 2
#     Edge 33, Type (0, 0), BuildingBlock: XIVTED_clean_linker_0, # of connection points: 2
#     Edge 34, Type (0, 0), BuildingBlock: XIVTED_clean_linker_0, # of connection points: 2
#     Edge 35, Type (0, 0), BuildingBlock: XIVTED_clean_linker_0, # of connection points: 2
#     Edge 36, Type (0, 0), BuildingBlock: XIVTED_clean_linker_0, # of connection points: 2
#     Edge 37, Type (0, 0), BuildingBlock: XIVTED_clean_linker_0, # of connection points: 2
#     Edge 38, Type (0, 0), BuildingBlock: XIVTED_clean_linker_0, # of connection points: 2
#     Edge 39, Type (0, 0), BuildingBlock: XIVTED_clean_linker_0, # of connection points: 2
#     Edge 40, Type (0, 0), BuildingBlock: XIVTED_clean_linker_0, # of connection points: 2
#     Edge 41, Type (0, 0), BuildingBlock: XIVTED_clean_linker_0, # of connection points: 2
#     Edge 42, Type (0, 0), BuildingBlock: XIVTED_clean_linker_0, # of connection points: 2
#     Edge 43, Type (0, 0), BuildingBlock: XIVTED_clean_linker_0, # of connection points: 2
#     Edge 44, Type (0, 0), BuildingBlock: XIVTED_clean_linker_0, # of connection points: 2
#     Edge 45, Type (0, 0), BuildingBlock: XIVTED_clean_linker_0, # of connection points: 2
#     Edge 46, Type (0, 0), BuildingBlock: XIVTED_clean_linker_0, # of connection points: 2
#     Edge 47, Type (0, 0), BuildingBlock: XIVTED_clean_linker_0, # of connection points: 2
#     Edge 48, Type (0, 0), BuildingBlock: XIVTED_clean_linker_0, # of connection points: 2
#     Edge 49, Type (0, 0), BuildingBlock: XIVTED_clean_linker_0, # of connection points: 2
#     Edge 50, Type (0, 0), BuildingBlock: XIVTED_clean_linker_0, # of connection points: 2
#     Edge 51, Type (0, 0), BuildingBlock: XIVTED_clean_linker_0, # of connection points: 2
#     Edge 52, Type (0, 0), BuildingBlock: XIVTED_clean_linker_0, # of connection points: 2
#     Edge 53, Type (0, 0), BuildingBlock: XIVTED_clean_linker_0, # of connection points: 2
#     Edge 54, Type (0, 0), BuildingBlock: XIVTED_clean_linker_0, # of connection points: 2
#     Edge 55, Type (0, 0), BuildingBlock: XIVTED_clean_linker_0, # of connection points: 2
#     Edge 56, Type (0, 0), BuildingBlock: XIVTED_clean_linker_0, # of connection points: 2
#     Edge 57, Type (0, 0), BuildingBlock: XIVTED_clean_linker_0, # of connection points: 2
#     Edge 58, Type (0, 0), BuildingBlock: XIVTED_clean_linker_0, # of connection points: 2
#     Edge 59, Type (0, 0), BuildingBlock: XIVTED_clean_linker_0, # of connection points: 2
#     Edge 60, Type (0, 0), BuildingBlock: XIVTED_clean_linker_0, # of connection points: 2
#     Edge 61, Type (0, 0), BuildingBlock: XIVTED_clean_linker_0, # of connection points: 2
#     Edge 62, Type (0, 0), BuildingBlock: XIVTED_clean_linker_0, # of connection points: 2
#     Edge 63, Type (0, 0), BuildingBlock: XIVTED_clean_linker_0, # of connection points: 2
# Relax obj value: 0.116
# Max RMSD: 0.127
# Mean RMSD: 0.127
data_MOF--net-wiv--node1-UKALOJ_clean_sbu_0--edge1-XIVTED_clean_linker_0
_symmetry_space_group_name_H-M    P1
_symmetry_Int_Tables_number       1
_symmetry_cell_setting            triclinic
loop_
_symmetry_equiv_pos_as_xyz
'x, y, z'
_cell_length_a     68.536853
_cell_length_b     68.546294
_cell_length_c     4.572829
_cell_angle_alpha  90.021435
_cell_angle_beta   89.977241
_cell_angle_gamma 90.009876
loop_
_atom_site_label
_atom_site_type_symbol
_atom_site_fract_x
_atom_site_fract_y
_atom_site_fract_z
_atom_type_partial_charge
Zn0 Zn 0.35967 0.1255 0.31666 0.0
O1 O 0.36919 0.13146 3.08236 0.0
C2 C 0.3249 0.10573 0.07513 0.0
Zn3 Zn 0.36526 0.09344 0.28107 0.0
C4 C 0.37488 0.11681 2.93497 0.0
O5 O 0.3751 0.09997 3.05054 0.0
C6 C 0.34971 0.10239 0.84989 0.0
O7 O 0.39445 0.09698 0.44511 0.0
O8 O 0.38848 0.12831 0.47426 0.0
N9 N 0.37052 0.06422 0.20449 0.0
C10 C 0.37611 0.0496 0.3838 0.0
C11 C 0.37405 0.03766 -0.0453 0.0
N12 N 0.36932 0.05674 3.12464 0.0
N13 N 0.37832 0.03282 0.2327 0.0
C14 C 0.34958 0.17049 0.27122 0.0
C15 C 0.3572 0.17914 0.70408 0.0
N16 N 0.3557 0.15439 0.41425 0.0
N17 N 0.36039 0.15988 0.68259 0.0
N18 N 0.35043 0.18632 0.44944 0.0
H19 H 0.33648 0.1556 3.09229 0.0
H20 H 0.3542 0.17378 2.9989 0.0
H21 H 0.33031 0.18122 3.12239 0.0
C22 C 0.34207 0.17026 -0.03618 0.0
C23 C 0.38047 0.05193 0.70281 0.0
H24 H 0.39153 0.04114 0.77498 0.0
H25 H 0.36689 0.04937 0.82886 0.0
H26 H 0.38587 0.06681 0.75098 0.0
O27 O 0.35517 0.08766 0.70324 0.0
O28 O 0.35002 0.11915 0.7338 0.0
C29 C 0.40016 0.11412 0.50868 0.0
O30 O 0.33113 0.12237 0.15611 0.0
O31 O 0.33585 0.0908 0.10736 0.0
Zn32 Zn 0.125 0.65942 2.74781 0.0
O33 O 0.13032 0.64883 -0.01909 0.0
C34 C 0.10696 0.69462 2.99878 0.0
Zn35 Zn 0.09277 0.65481 2.78404 0.0
C36 C 0.11541 0.64395 0.12909 0.0
O37 O 0.09856 0.6447 0.01422 0.0
C38 C 0.10213 0.67047 2.21624 0.0
O39 O 0.09502 0.6255 2.61945 0.0
O40 O 0.12643 0.63085 2.57492 0.0
N41 N 0.06334 0.6515 2.85962 0.0
C42 C 0.04886 0.64253 2.71058 0.0
C43 C 0.03598 0.65611 3.08265 0.0
N44 N 0.05527 0.65983 3.0912 0.0
N45 N 0.03152 0.64518 2.84691 0.0
C46 C 0.17096 0.66449 2.79876 0.0
C47 C 0.17827 0.66323 2.34559 0.0
N48 N 0.1541 0.66263 2.64836 0.0
N49 N 0.15878 0.66191 2.36757 0.0
N50 N 0.18634 0.66491 2.61244 0.0
H51 H 0.16853 0.64912 0.01561 0.0
H52 H 0.18689 0.66774 0.02052 0.0
H53 H 0.16126 0.67424 0.03258 0.0
C54 C 0.17216 0.66403 3.12566 0.0
C55 C 0.05157 0.6321 2.42525 0.0
H56 H 0.06517 0.63665 2.31487 0.0
H57 H 0.05247 0.61619 2.46719 0.0
H58 H 0.03899 0.63484 2.27825 0.0
O59 O 0.08737 0.66506 2.36211 0.0
O60 O 0.11886 0.67008 2.33356 0.0
C61 C 0.11188 0.61956 2.54371 0.0
O62 O 0.12342 0.68774 2.9219 0.0
O63 O 0.09162 0.68438 2.95826 0.0
Zn64 Zn 0.65458 0.92653 0.29124 0.0
O65 O 0.62525 0.92366 0.45583 0.0
C66 C 0.67027 0.91728 0.8586 0.0
Zn67 Zn 0.65977 0.89438 0.32471 0.0
C68 C 0.6196 0.90657 0.52397 0.0
O69 O 0.63124 0.89237 0.48961 0.0
C70 C 0.6947 0.91315 0.08074 0.0
O71 O 0.64944 0.88872 3.09195 0.0
O72 O 0.6446 0.92037 3.06056 0.0
N73 N 0.66299 0.86542 0.42722 0.0
C74 C 0.6685 0.84867 0.2948 0.0
C75 C 0.65915 0.84138 0.72576 0.0
N76 N 0.65736 0.86075 0.695 0.0
N77 N 0.66609 0.83329 0.4784 0.0
C78 C 0.64449 0.97057 0.39318 0.0
C79 C 0.64684 0.98237 -0.03642 0.0
N80 N 0.65001 0.95585 0.215 0.0
N81 N 0.65141 0.96325 -0.05192 0.0
N82 N 0.64249 0.98732 0.24096 0.0
H83 H 0.62894 0.97924 0.78254 0.0
H84 H 0.65351 0.97087 0.83913 0.0
H85 H 0.63446 0.95353 0.76061 0.0
C86 C 0.63996 0.96836 0.71195 0.0
C87 C 0.67549 0.84746 -0.01485 0.0
H88 H 0.67272 0.86122 3.053 0.0
H89 H 0.66834 0.83509 3.05782 0.0
H90 H 0.69147 0.84493 -0.01556 0.0
O91 O 0.68805 0.89658 0.15722 0.0
O92 O 0.68417 0.92835 0.11766 0.0
C93 C 0.64419 0.90353 2.94484 0.0
O94 O 0.66473 0.93205 0.71387 0.0
O95 O 0.67005 0.90059 0.73996 0.0
Zn96 Zn 0.92483 0.36382 2.76233 0.0
O97 O 0.92156 0.39292 2.59954 0.0
C98 C 0.91579 0.34822 2.19307 0.0
Zn99 Zn 0.89272 0.35845 2.72585 0.0
C100 C 0.9046 0.39863 2.52711 0.0
O101 O 0.89024 0.38712 2.55943 0.0
C102 C 0.91224 0.32363 2.96962 0.0
O103 O 0.88681 0.36838 -0.03975 0.0
O104 O 0.9184 0.37366 -0.00714 0.0
N105 N 0.86377 0.35465 2.62924 0.0
C106 C 0.84762 0.34873 2.77339 0.0
C107 C 0.83901 0.35613 2.33966 0.0
N108 N 0.8583 0.35921 2.36038 0.0
N109 N 0.83178 0.34957 2.59535 0.0
C110 C 0.96862 0.37494 2.66215 0.0
C111 C 0.98038 0.37303 3.09253 0.0
N112 N 0.95403 0.36902 2.8397 0.0
N113 N 0.9614 0.3679 3.1071 0.0
N114 N 0.98527 0.37749 2.81536 0.0
H115 H 0.9771 0.39042 2.27097 0.0
H116 H 0.96885 0.36577 2.21642 0.0
H117 H 0.95145 0.38472 2.29493 0.0
C118 C 0.96633 0.37934 2.34307 0.0
C119 C 0.84781 0.34139 3.08177 0.0
H120 H 0.86244 0.33578 -0.04594 0.0
H121 H 0.84433 0.35362 0.0451 0.0
H122 H 0.8368 0.32969 3.11156 0.0
O123 O 0.89561 0.33003 2.8917 0.0
O124 O 0.92728 0.33439 2.93448 0.0
C125 C 0.90154 0.37382 0.10781 0.0
O126 O 0.93052 0.35381 2.33862 0.0
O127 O 0.89905 0.34839 2.3103 0.0
Zn128 Zn 0.35862 0.39114 0.36077 0.0
O129 O 0.36857 0.38621 0.7828 0.0
C130 C 0.32308 0.40907 0.59988 0.0
Zn131 Zn 0.36292 0.42341 0.39076 0.0
C132 C 0.3737 0.40122 0.92688 0.0
O133 O 0.37314 0.41798 0.80857 0.0
C134 C 0.34754 0.41327 3.01192 0.0
O135 O 0.39226 0.42147 0.22711 0.0
O136 O 0.38752 0.38991 0.20184 0.0
N137 N 0.3658 0.45298 0.45928 0.0
C138 C 0.37457 0.46736 0.30533 0.0
C139 C 0.36059 0.48063 0.67093 0.0
N140 N 0.35723 0.4613 0.68682 0.0
N141 N 0.37154 0.48487 0.43442 0.0
C142 C 0.35021 0.34576 0.40983 0.0
C143 C 0.35937 0.33715 -0.01659 0.0
N144 N 0.35635 0.36197 0.26935 0.0
N145 N 0.36203 0.35649 0.00523 0.0
N146 N 0.35196 0.3299 0.23369 0.0
H147 H 0.33638 0.36054 0.77156 0.0
H148 H 0.35351 0.34199 0.87063 0.0
H149 H 0.32987 0.33507 0.73133 0.0
C150 C 0.34186 0.34587 0.71256 0.0
C151 C 0.38512 0.46436 0.02161 0.0
H152 H 0.40103 0.46373 0.06487 0.0
H153 H 0.38227 0.47669 3.05711 0.0
H154 H 0.38078 0.45056 3.10215 0.0
O155 O 0.3525 0.42826 -0.03073 0.0
O156 O 0.34854 0.39658 3.12972 0.0
C157 C 0.39863 0.40453 0.16492 0.0
O158 O 0.32996 0.39266 0.52167 0.0
O159 O 0.3334 0.4244 0.56421 0.0
Zn160 Zn 0.42357 0.65494 2.69633 0.0
O161 O 0.42009 0.62581 2.86158 0.0
C162 C 0.41436 0.67057 0.07693 0.0
Zn163 Zn 0.39139 0.6601 2.72977 0.0
C164 C 0.40303 0.61996 2.92844 0.0
O165 O 0.38868 0.63148 2.89511 0.0
C166 C 0.41099 0.69494 2.48447 0.0
O167 O 0.38573 0.64999 2.30965 0.0
O168 O 0.41736 0.64497 2.27868 0.0
N169 N 0.36243 0.6645 2.82402 0.0
C170 C 0.34606 0.66757 2.66674 0.0
C171 C 0.33775 0.66666 3.1159 0.0
N172 N 0.35715 0.66398 3.10258 0.0
N173 N 0.33036 0.66893 2.84553 0.0
C174 C 0.46752 0.6446 2.80187 0.0
C175 C 0.47951 0.64683 2.37325 0.0
N176 N 0.45285 0.64992 2.62185 0.0
N177 N 0.46036 0.65123 2.35546 0.0
N178 N 0.48436 0.64267 2.65154 0.0
H179 H 0.47613 0.62933 0.00665 0.0
H180 H 0.4676 0.65387 0.05977 0.0
H181 H 0.45038 0.63468 -0.01812 0.0
C182 C 0.4652 0.64025 3.12089 0.0
C183 C 0.34576 0.67033 2.34215 0.0
H184 H 0.34517 0.65583 2.23463 0.0
H185 H 0.33285 0.67895 2.27375 0.0
H186 H 0.35925 0.67786 2.26967 0.0
O187 O 0.39436 0.68844 2.56108 0.0
O188 O 0.42607 0.6843 2.52228 0.0
C189 C 0.40054 0.64468 2.16266 0.0
O190 O 0.42914 0.66511 3.11857 0.0
O191 O 0.39766 0.67023 -0.04104 0.0
Zn192 Zn 0.66025 0.6286 0.34263 0.0
O193 O 0.65063 0.63415 0.76409 0.0
C194 C 0.69548 0.60929 0.58499 0.0
Zn195 Zn 0.65584 0.59632 0.37238 0.0
C196 C 0.64524 0.61927 0.90822 0.0
O197 O 0.64547 0.60253 0.78906 0.0
C198 C 0.67107 0.6057 2.99368 0.0
O199 O 0.62692 0.5996 0.20073 0.0
O200 O 0.63135 0.63128 0.18779 0.0
N201 N 0.65073 0.56706 0.44654 0.0
C202 C 0.64505 0.55247 0.26722 0.0
C203 C 0.64689 0.54058 0.6968 0.0
N204 N 0.65181 0.55961 0.71343 0.0
N205 N 0.64263 0.53574 0.41873 0.0
C206 C 0.66862 0.67363 0.4084 0.0
C207 C 0.66667 0.68243 -0.03783 0.0
N208 N 0.66462 0.65753 0.24962 0.0
N209 N 0.66347 0.66309 -0.0272 0.0
N210 N 0.66995 0.68946 0.23248 0.0
H211 H 0.67946 0.65971 0.79679 0.0
H212 H 0.65812 0.6746 0.84755 0.0
H213 H 0.68158 0.68605 0.79634 0.0
C214 C 0.67228 0.67353 0.73107 0.0
C215 C 0.64078 0.5548 -0.05212 0.0
H216 H 0.62949 0.54422 3.06297 0.0
H217 H 0.65432 0.55188 3.00929 0.0
H218 H 0.63574 0.56977 3.08492 0.0
O219 O 0.66639 0.5907 -0.04693 0.0
O220 O 0.66991 0.62241 3.11044 0.0
C221 C 0.6204 0.61659 0.14631 0.0
O222 O 0.68879 0.62572 0.50351 0.0
O223 O 0.68501 0.59403 0.55211 0.0
Zn224 Zn 0.62744 0.35991 2.73221 0.0
O225 O 0.63267 0.36911 2.30975 0.0
C226 C 0.60881 0.32443 2.50017 0.0
Zn227 Zn 0.59519 0.36444 2.70519 0.0
C228 C 0.61778 0.37467 2.16717 0.0
O229 O 0.60105 0.37468 2.2875 0.0
C230 C 0.60491 0.34934 0.08253 0.0
O231 O 0.59761 0.39362 2.87191 0.0
O232 O 0.62927 0.38908 2.87739 0.0
N233 N 0.56573 0.36796 2.63349 0.0
C234 C 0.55137 0.37675 2.78779 0.0
C235 C 0.53816 0.36347 2.41606 0.0
N236 N 0.55745 0.35983 2.40208 0.0
N237 N 0.53391 0.37417 2.65513 0.0
C238 C 0.67268 0.35065 2.68629 0.0
C239 C 0.68142 0.36001 3.11095 0.0
N240 N 0.65656 0.35715 2.82559 0.0
N241 N 0.66212 0.36295 3.08866 0.0
N242 N 0.68858 0.35229 2.86203 0.0
H243 H 0.65769 0.33668 2.32802 0.0
H244 H 0.67646 0.35348 2.22475 0.0
H245 H 0.68309 0.32988 2.36865 0.0
C246 C 0.67244 0.34203 2.38529 0.0
C247 C 0.55431 0.3869 3.07484 0.0
H248 H 0.55483 0.40288 3.03679 0.0
H249 H 0.54198 0.38376 0.03823 0.0
H250 H 0.56814 0.38251 -0.00707 0.0
O251 O 0.58991 0.35396 3.12336 0.0
O252 O 0.62165 0.35059 -0.03352 0.0
C253 C 0.61469 0.40014 2.91994 0.0
O254 O 0.6253 0.33103 2.58076 0.0
O255 O 0.59368 0.33508 2.53085 0.0
Zn256 Zn 0.85622 0.62698 1.98284 0.0
O257 O 0.86733 0.63038 1.56283 0.0
C258 C 0.82088 0.60954 1.73437 0.0
Zn259 Zn 0.86017 0.59464 1.9602 0.0
C260 C 0.87206 0.61511 1.42127 0.0
O261 O 0.87089 0.59844 1.54197 0.0
C262 C 0.84431 0.60617 2.5219 0.0
O263 O 0.88927 0.5963 2.13372 0.0
O264 O 0.88472 0.62791 2.1551 0.0
N265 N 0.8612 0.56473 1.9231 0.0
C266 C 0.87556 0.55122 1.92617 0.0
C267 C 0.8485 0.53593 1.92 0.0
N268 N 0.84445 0.55512 1.91782 0.0
N269 N 0.86793 0.53298 1.92694 0.0
C270 C 0.85219 0.67278 1.89854 0.0
C271 C 0.85538 0.6816 2.34342 0.0
N272 N 0.85427 0.65643 2.06032 0.0
N273 N 0.85619 0.66204 2.33592 0.0
N274 N 0.85286 0.68879 2.07237 0.0
H275 H 0.86637 0.66964 1.4869 0.0
H276 H 0.84687 0.68707 1.48182 0.0
H277 H 0.84161 0.66114 1.4934 0.0
C278 C 0.85154 0.67283 1.57135 0.0
C279 C 0.89685 0.55595 1.90972 0.0
H280 H 0.89915 0.5692 1.77478 0.0
H281 H 0.90518 0.54365 1.8133 0.0
H282 H 0.90242 0.5588 2.13339 0.0
O283 O 0.8495 0.59112 2.38129 0.0
O284 O 0.84511 0.62271 2.39959 0.0
C285 C 0.89567 0.61323 2.19627 0.0
O286 O 0.8279 0.62603 1.80629 0.0
O287 O 0.83089 0.59418 1.78132 0.0
Zn288 Zn 0.62834 0.1631 1.12639 0.0
O289 O 0.63324 0.15321 1.54831 0.0
C290 C 0.60959 0.19841 1.36587 0.0
Zn291 Zn 0.59603 0.15871 1.15061 0.0
C292 C 0.61819 0.14788 1.68952 0.0
O293 O 0.60153 0.1483 1.56817 0.0
C294 C 0.60601 0.17411 0.5881 0.0
O295 O 0.59883 0.12961 0.9811 0.0
O296 O 0.63052 0.13423 0.97077 0.0
N297 N 0.56653 0.155 1.21755 0.0
C298 C 0.55237 0.14596 1.06258 0.0
C299 C 0.53877 0.15929 1.43095 0.0
N300 N 0.55801 0.16317 1.4468 0.0
N301 N 0.5348 0.14841 1.19274 0.0
C302 C 0.67367 0.17017 1.19803 0.0
C303 C 0.68246 0.16871 0.75127 0.0
N304 N 0.65748 0.16682 1.03772 0.0
N305 N 0.66306 0.16596 0.76066 0.0
N306 N 0.68954 0.17139 1.02267 0.0
H307 H 0.66004 0.18093 1.58927 0.0
H308 H 0.67408 0.15896 1.63328 0.0
H309 H 0.68645 0.18203 1.59118 0.0
C310 C 0.67361 0.17333 1.52188 0.0
C311 C 0.55561 0.1357 0.77716 0.0
H312 H 0.5566 0.11977 0.81776 0.0
H313 H 0.54322 0.13838 0.62629 0.0
H314 H 0.56932 0.14044 0.67182 0.0
O315 O 0.59096 0.16928 0.73168 0.0
O316 O 0.62266 0.17301 0.7068 0.0
C317 C 0.61591 0.12317 0.92882 0.0
O318 O 0.62606 0.19162 1.28853 0.0
O319 O 0.59431 0.18805 1.32848 0.0
Zn320 Zn 0.15817 0.42396 1.96571 0.0
O321 O 0.12915 0.42333 2.14519 0.0
C322 C 0.1735 0.41104 2.52236 0.0
Zn323 Zn 0.16091 0.39144 1.97734 0.0
C324 C 0.12183 0.40652 2.18771 0.0
O325 O 0.13212 0.39153 2.13586 0.0
C326 C 0.19698 0.40776 1.73655 0.0
O327 O 0.15016 0.38901 1.55695 0.0
O328 O 0.14699 0.42101 1.54739 0.0
N329 N 0.16105 0.36189 2.04741 0.0
C330 C 0.16652 0.34553 1.90431 0.0
C331 C 0.1542 0.33676 2.31165 0.0
N332 N 0.1535 0.35629 2.30022 0.0
N333 N 0.1623 0.32948 2.06653 0.0
C334 C 0.14382 0.4677 1.9368 0.0
C335 C 0.17105 0.48263 1.95206 0.0
N336 N 0.158 0.454 1.93813 0.0
N337 N 0.17487 0.46338 1.94643 0.0
N338 N 0.15165 0.48583 1.94811 0.0
H339 H 0.12044 0.45007 1.76877 0.0
H340 H 0.11471 0.47572 1.80353 0.0
H341 H 0.11618 0.46053 2.12466 0.0
C342 C 0.12253 0.46329 1.9053 0.0
C343 C 0.17518 0.34546 1.60378 0.0
H344 H 0.17227 0.35941 1.48981 0.0
H345 H 0.16928 0.33311 1.47401 0.0
H346 H 0.19123 0.3437 1.62147 0.0
O347 O 0.18951 0.39146 1.80941 0.0
O348 O 0.18735 0.42341 1.7818 0.0
C349 C 0.14555 0.40453 1.42128 0.0
O350 O 0.16933 0.42649 2.38403 0.0
O351 O 0.17159 0.39464 2.39806 0.0
Zn352 Zn 0.39167 0.85737 1.13703 0.0
O353 O 0.38668 0.8672 1.55915 0.0
C354 C 0.41048 0.82196 1.3745 0.0
Zn355 Zn 0.42395 0.86171 1.16129 0.0
C356 C 0.40172 0.87252 1.70045 0.0
O357 O 0.41838 0.87209 1.57902 0.0
C358 C 0.41409 0.84638 0.59853 0.0
O359 O 0.42112 0.89081 0.99228 0.0
O360 O 0.38944 0.88626 0.98197 0.0
N361 N 0.45336 0.86563 1.2292 0.0
C362 C 0.46737 0.87502 1.07591 0.0
C363 C 0.48109 0.86197 1.4451 0.0
N364 N 0.46195 0.85763 1.45893 0.0
N365 N 0.48491 0.87299 1.20786 0.0
C366 C 0.3463 0.85073 1.20679 0.0
C367 C 0.33768 0.85207 0.75922 0.0
N368 N 0.36259 0.85371 1.04716 0.0
N369 N 0.35712 0.8545 0.76961 0.0
N370 N 0.33047 0.84969 1.0305 0.0
H371 H 0.35959 0.83993 1.5999 0.0
H372 H 0.34595 0.86219 1.64082 0.0
H373 H 0.33316 0.83933 1.60048 0.0
C374 C 0.34619 0.84775 1.53099 0.0
C375 C 0.46402 0.88524 0.79045 0.0
H376 H 0.46249 0.90111 0.83166 0.0
H377 H 0.4766 0.88298 0.64135 0.0
H378 H 0.45056 0.88008 0.68246 0.0
O379 O 0.42914 0.85119 0.74223 0.0
O380 O 0.39743 0.8475 0.7172 0.0
C381 C 0.40407 0.89728 0.93971 0.0
O382 O 0.394 0.82879 1.29817 0.0
O383 O 0.42575 0.83235 1.33801 0.0
Zn384 Zn 0.86202 0.92557 1.94843 0.0
O385 O 0.89102 0.92156 1.78388 0.0
C386 C 0.84618 0.91668 1.37957 0.0
Zn387 Zn 0.85641 0.89349 1.91145 0.0
C388 C 0.89647 0.90457 1.70754 0.0
O389 O 0.88477 0.89033 1.73746 0.0
C390 C 0.82195 0.91362 2.16204 0.0
O391 O 0.86682 0.88766 2.33116 0.0
O392 O 0.87185 0.91926 2.36564 0.0
N393 N 0.85144 0.86456 1.81836 0.0
C394 C 0.84898 0.84815 1.97717 0.0
C395 C 0.84843 0.83989 1.52771 0.0
N396 N 0.85102 0.85932 1.53959 0.0
N397 N 0.84714 0.83246 1.79923 0.0
C398 C 0.87421 0.96899 1.84291 0.0
C399 C 0.87234 0.98112 2.27114 0.0
N400 N 0.86785 0.95469 2.02205 0.0
N401 N 0.86675 0.96228 2.28814 0.0
N402 N 0.87706 0.98569 1.9937 0.0
H403 H 0.8904 0.97656 1.45432 0.0
H404 H 0.86538 0.96969 1.3962 0.0
H405 H 0.88329 0.95125 1.4768 0.0
C406 C 0.8787 0.96639 1.52461 0.0
C407 C 0.84724 0.84778 2.30332 0.0
H408 H 0.86206 0.84765 2.40074 0.0
H409 H 0.83922 0.83463 2.37787 0.0
H410 H 0.83951 0.86104 2.38057 0.0
O411 O 0.82831 0.89693 2.08606 0.0
O412 O 0.8327 0.92863 2.12257 0.0
C413 C 0.87215 0.90239 2.47983 0.0
O414 O 0.85202 0.93131 1.52507 0.0
O415 O 0.84604 0.89997 1.4975 0.0
Zn416 Zn 0.89482 0.1603 1.11102 0.0
O417 O 0.89003 0.15037 0.68944 0.0
C418 C 0.91248 0.196 0.87786 0.0
Zn419 Zn 0.92718 0.1562 1.08804 0.0
C420 C 0.90515 0.14521 0.54841 0.0
O421 O 0.9218 0.14585 0.66978 0.0
C422 C 0.91695 0.17142 1.65036 0.0
O423 O 0.92532 0.12687 1.25394 0.0
O424 O 0.89369 0.13137 1.26148 0.0
N425 N 0.95676 0.15322 1.0184 0.0
C426 C 0.97102 0.14392 1.16786 0.0
C427 C 0.98435 0.15765 0.80093 0.0
N428 N 0.96513 0.16167 0.79021 0.0
N429 N 0.98849 0.14641 1.03474 0.0
C430 C 0.84894 0.16797 1.07735 0.0
C431 C 0.84141 0.15703 1.49884 0.0
N432 N 0.86566 0.16226 1.20856 0.0
N433 N 0.86083 0.15561 1.47041 0.0
N434 N 0.83343 0.16473 1.25592 0.0
H435 H 0.86159 0.17307 0.65171 0.0
H436 H 0.83533 0.16957 0.65429 0.0
H437 H 0.84592 0.19199 0.78407 0.0
C438 C 0.84793 0.17595 0.7731 0.0
C439 C 0.96795 0.13333 1.45098 0.0
H440 H 0.9662 0.11753 1.40535 0.0
H441 H 0.98071 0.13529 1.5973 0.0
H442 H 0.95466 0.13848 1.56416 0.0
O443 O 0.93207 0.16669 1.50752 0.0
O444 O 0.90032 0.17022 1.53086 0.0
C445 C 0.90827 0.12034 1.30335 0.0
O446 O 0.89606 0.18893 0.95317 0.0
O447 O 0.92791 0.1858 0.91402 0.0
Zn448 Zn 0.16418 0.12438 1.86794 0.0
O449 O 0.15319 0.12824 2.28864 0.0
C450 C 0.19912 0.10598 2.11881 0.0
Zn451 Zn 0.1594 0.09209 1.89399 0.0
C452 C 0.14805 0.11314 2.43113 0.0
O453 O 0.14879 0.09641 2.31154 0.0
C454 C 0.17546 0.10298 1.33041 0.0
O455 O 0.13025 0.09487 1.71934 0.0
O456 O 0.13583 0.12634 1.69602 0.0
N457 N 0.15717 0.06212 1.93334 0.0
C458 C 0.14234 0.04908 1.93169 0.0
C459 C 0.16883 0.03289 1.94903 0.0
N460 N 0.17355 0.05193 1.94511 0.0
N461 N 0.14932 0.03058 1.93921 0.0
C462 C 0.16988 0.16989 1.95775 0.0
C463 C 0.1697 0.1791 1.5125 0.0
N464 N 0.1675 0.15378 1.79162 0.0
N465 N 0.16742 0.15963 1.51559 0.0
N466 N 0.17128 0.18597 1.78703 0.0
H467 H 0.15717 0.16968 2.38347 0.0
H468 H 0.18009 0.18255 2.36194 0.0
H469 H 0.17956 0.15612 2.3537 0.0
C470 C 0.17191 0.16959 2.28344 0.0
C471 C 0.12121 0.05456 1.94164 0.0
H472 H 0.11923 0.06799 2.07376 0.0
H473 H 0.11233 0.04265 2.03777 0.0
H474 H 0.11601 0.05743 1.71601 0.0
O475 O 0.16996 0.0881 1.47243 0.0
O476 O 0.17508 0.11959 1.4515 0.0
C477 C 0.12441 0.112 1.65571 0.0
O478 O 0.19232 0.12246 2.04312 0.0
O479 O 0.18886 0.0907 2.07529 0.0
Zn480 Zn 0.09277 0.85961 1.18313 0.0
O481 O 0.09385 0.88882 1.35523 0.0
C482 C 0.10424 0.84388 1.7473 0.0
Zn483 Zn 0.1251 0.85612 1.2111 0.0
C484 C 0.11057 0.8953 1.42733 0.0
O485 O 0.12546 0.88454 1.39092 0.0
C486 C 0.10838 0.82051 0.95697 0.0
O487 O 0.12857 0.86756 0.79176 0.0
O488 O 0.09657 0.87026 0.76522 0.0
N489 N 0.1545 0.85459 1.29181 0.0
C490 C 0.17095 0.85271 1.13179 0.0
C491 C 0.17949 0.85594 1.57782 0.0
N492 N 0.15993 0.85654 1.56812 0.0
N493 N 0.18685 0.85352 1.3075 0.0
C494 C 0.04934 0.87455 1.13676 0.0
C495 C 0.03416 0.84744 1.14454 0.0
N496 N 0.0629 0.86025 1.14353 0.0
N497 N 0.05336 0.84346 1.1469 0.0
N498 N 0.03114 0.86686 1.13978 0.0
H499 H 0.06742 0.89778 0.97507 0.0
H500 H 0.0418 0.9038 1.00428 0.0
H501 H 0.05665 0.90202 1.32885 0.0
C502 C 0.05403 0.89579 1.1083 0.0
C503 C 0.17117 0.85211 0.80454 0.0
H504 H 0.16758 0.86685 0.72035 0.0
H505 H 0.18558 0.84787 0.71583 0.0
H506 H 0.1598 0.84186 0.7252 0.0
O507 O 0.12471 0.82787 1.02947 0.0
O508 O 0.09281 0.8302 1.00468 0.0
C509 C 0.1133 0.87187 0.64743 0.0
O510 O 0.08922 0.84903 1.60588 0.0
O511 O 0.12081 0.84467 1.6254 0.0
H512 H 0.37078 0.91866 0.98409 0.0
H513 H 0.40611 1.00857 0.02453 0.0
H514 H 0.42996 0.92207 0.66556 0.0
H515 H 0.36098 0.0134 0.67533 0.0
H516 H 0.4135 0.97542 0.2023 0.0
H517 H 0.36517 0.95199 0.81702 0.0
C518 C 0.38261 0.92642 0.87819 0.0
C519 C 0.40089 0.91756 0.83878 0.0
C520 C 0.40209 0.98382 0.30734 0.0
C521 C 0.39444 0.95575 0.64438 0.0
C522 C 0.39786 1.0026 0.20554 0.0
C523 C 0.38312 0.01367 0.33865 0.0
C524 C 0.39112 0.97594 0.53842 0.0
C525 C 0.37268 1.00539 0.57102 0.0
C526 C 0.3794 0.94549 0.78424 0.0
C527 C 0.41569 0.92839 0.70134 0.0
N528 N 0.37677 0.98697 0.66222 0.0
N529 N 0.4121 0.9469 0.60654 0.0
H530 H 0.92648 0.58719 2.22516 0.0
H531 H 0.99956 0.66773 2.87786 0.0
H532 H 0.91068 0.64671 2.42281 0.0
H533 H 0.01888 0.61041 2.62237 0.0
H534 H 0.9664 0.65913 2.73396 0.0
H535 H 0.95992 0.59418 2.39046 0.0
C536 C 0.92997 0.60164 2.30494 0.0
C537 C 0.91573 0.61638 2.30914 0.0
C538 C 0.97785 0.64839 2.70729 0.0
C539 C 0.95387 0.62448 2.49724 0.0
C540 C 0.99678 0.65332 2.79009 0.0
C541 C 0.01205 0.63993 2.75653 0.0
C542 C 0.97398 0.62979 2.59173 0.0
C543 C 1.00764 0.62137 2.64346 0.0
C544 C 0.94907 0.60564 2.39806 0.0
C545 C 0.92113 0.63488 2.41367 0.0
N546 N 0.98899 0.61684 2.56459 0.0
N547 N 0.93968 0.63836 2.50271 0.0
H548 H 0.61477 0.01137 0.02626 0.0
H549 H 0.64924 0.10193 0.97791 0.0
H550 H 0.65939 1.00699 0.685 0.0
H551 H 0.59018 0.09813 0.65595 0.0
H552 H 0.65502 0.06851 0.81612 0.0
H553 H 0.60714 0.04458 0.19947 0.0
C554 C 0.62287 0.01745 0.20804 0.0
C555 C 0.63754 1.0065 0.34457 0.0
C556 C 0.64077 0.07495 0.78139 0.0
C557 C 0.62926 0.04429 0.53922 0.0
C558 C 0.63747 0.09407 0.87224 0.0
C559 C 0.61918 0.10285 0.83027 0.0
C560 C 0.62582 0.06454 0.64205 0.0
C561 C 0.60447 0.09188 0.69346 0.0
C562 C 0.61849 0.03627 0.30725 0.0
C563 C 0.64776 0.01492 0.57793 0.0
N564 N 0.60815 0.07331 0.60162 0.0
N565 N 0.64354 0.03337 0.66655 0.0
H566 H 1.00507 0.36137 2.36654 0.0
H567 H 0.09712 0.43268 2.46297 0.0
H568 H 1.00903 0.40533 3.0365 0.0
H569 H 0.0997 0.37405 2.1202 0.0
H570 H 0.06307 0.42663 2.61363 0.0
H571 H 0.03811 0.36977 2.20466 0.0
C572 C 0.01287 0.37298 2.47652 0.0
C573 C 1.00438 0.38283 2.7126 0.0
C574 C 0.0712 0.41516 2.5054 0.0
C575 C 0.04214 0.39246 2.53147 0.0
C576 C 0.09054 0.41861 2.41887 0.0
C577 C 0.1013 0.40381 2.2805 0.0
C578 C 0.06253 0.39697 2.44647 0.0
C579 C 0.09206 0.38585 2.22841 0.0
C580 C 0.03173 0.37768 2.38616 0.0
C581 C 0.0152 0.39748 2.85311 0.0
N582 N 0.07325 0.38299 2.30967 0.0
N583 N 0.03354 0.40196 2.75953 0.0
H584 H 0.34834 0.51646 0.44256 0.0
H585 H 0.42909 0.58943 2.98074 0.0
H586 H 0.40633 0.49763 0.21431 0.0
H587 H 0.36881 0.60474 3.13013 0.0
H588 H 0.42203 0.55622 -0.03318 0.0
H589 H 0.35654 0.54945 0.28279 0.0
C590 C 0.36281 0.51932 0.35753 0.0
C591 C 0.37653 0.50423 0.33624 0.0
C592 C 0.41039 0.56689 -0.03832 0.0
C593 C 0.3862 0.54206 0.15371 0.0
C594 C 0.41442 0.58586 3.05051 0.0
C595 C 0.39952 0.59992 3.03989 0.0
C596 C 0.39137 0.56202 0.0511 0.0
C597 C 0.38077 0.59443 -0.05375 0.0
C598 C 0.3675 0.53813 0.2656 0.0
C599 C 0.39515 0.50872 0.22629 0.0
N600 N 0.37727 0.57599 0.04087 0.0
N601 N 0.39945 0.52724 0.13883 0.0
H602 H 0.59598 0.59021 3.06516 0.0
H603 H 0.50337 0.66062 3.09238 0.0
H604 H 0.59862 0.64974 0.18295 0.0
H605 H 0.50914 0.61518 2.44818 0.0
H606 H 0.53659 0.65364 0.07667 0.0
H607 H 0.56233 0.59601 2.89847 0.0
C608 C 0.58948 0.60445 3.09761 0.0
C609 C 0.60012 0.61954 0.04387 0.0
C610 C 0.53057 0.64514 3.08541 0.0
C611 C 0.56174 0.62613 3.04535 0.0
C612 C 0.51163 0.64902 2.98984 0.0
C613 C 0.50359 0.63831 2.75855 0.0
C614 C 0.54145 0.63026 2.95091 0.0
C615 C 0.51494 0.62368 2.62772 0.0
C616 C 0.57036 0.60776 3.00167 0.0
C617 C 0.59101 0.63773 0.07987 0.0
N618 N 0.53329 0.61995 2.72708 0.0
N619 N 0.57233 0.64047 -0.0102 0.0
H620 H 0.61453 0.51204 0.6319 0.0
H621 H 0.64801 0.42129 2.86309 0.0
H622 H 0.65929 0.51592 -0.02609 0.0
H623 H 0.58917 0.42537 0.00715 0.0
H624 H 0.65404 0.45468 3.02312 0.0
H625 H 0.60647 0.47896 0.45753 0.0
C626 C 0.62256 0.50589 0.44993 0.0
C627 C 0.6374 0.51666 0.31399 0.0
C628 C 0.63978 0.44832 3.06006 0.0
C629 C 0.62862 0.47901 0.11791 0.0
C630 C 0.63634 0.42922 2.97012 0.0
C631 C 0.61804 0.42052 3.01538 0.0
C632 C 0.62497 0.45881 0.0149 0.0
C633 C 0.60345 0.43156 -0.03289 0.0
C634 C 0.61793 0.48714 0.35004 0.0
C635 C 0.64753 0.50815 0.08042 0.0
N636 N 0.60728 0.45012 0.05807 0.0
N637 N 0.64306 0.48977 -0.00889 0.0
H638 H 0.42888 0.43105 0.11372 0.0
H639 H 0.50222 0.35116 2.63682 0.0
H640 H 0.41423 0.37064 -0.03938 0.0
H641 H 0.52122 0.40872 2.88572 0.0
H642 H 0.46923 0.35924 2.79678 0.0
H643 H 0.46221 0.42438 3.12627 0.0
C644 C 0.43262 0.41644 0.04292 0.0
C645 C 0.41872 0.40138 0.05305 0.0
C646 C 0.48058 0.37014 2.81852 0.0
C647 C 0.4567 0.39368 3.0402 0.0
C648 C 0.4994 0.36551 2.72637 0.0
C649 C 0.51453 0.37913 2.75331 0.0
C650 C 0.47668 0.38867 2.93647 0.0
C651 C 0.51009 0.3976 2.86916 0.0
C652 C 0.45164 0.41264 -0.05576 0.0
C653 C 0.42441 0.38273 -0.04154 0.0
N654 N 0.49154 0.40185 2.95681 0.0
N655 N 0.44286 0.37945 3.04992 0.0
H656 H 0.87345 0.41091 2.20819 0.0
H657 H 0.89895 0.52355 2.27435 0.0
H658 H 0.92807 0.43121 2.56575 0.0
H659 H 0.85664 0.49921 1.68035 0.0
H660 H 0.91036 0.49051 2.38735 0.0
H661 H 0.867 0.4436 2.02382 0.0
C662 C 0.88413 0.42227 2.24762 0.0
C663 C 0.90127 0.41834 2.40443 0.0
C664 C 0.89885 0.49244 2.22774 0.0
C665 C 0.89389 0.45601 2.19446 0.0
C666 C 0.89249 0.51133 2.16039 0.0
C667 C 0.87702 0.51417 1.96338 0.0
C668 C 0.8894 0.4763 2.10178 0.0
C669 C 0.86863 0.49766 1.83258 0.0
C670 C 0.88048 0.44094 2.14069 0.0
C671 C 0.91465 0.43363 2.4462 0.0
N672 N 0.87478 0.47948 1.90595 0.0
N673 N 0.91057 0.45188 2.34478 0.0
H674 H 0.50262 0.17076 1.2067 0.0
H675 H 0.43124 0.08862 0.55724 0.0
H676 H 0.52288 0.11346 0.96695 0.0
H677 H 0.4148 0.14856 0.70992 0.0
H678 H 0.4644 0.09633 0.72726 0.0
H679 H 0.4698 0.16181 1.04886 0.0
C680 C 0.50011 0.15629 1.11945 0.0
C681 C 0.51555 0.14298 1.09455 0.0
C682 C 0.45349 0.10775 0.72338 0.0
C683 C 0.4779 0.13246 0.91417 0.0
C684 C 0.43456 0.10335 0.6271 0.0
C685 C 0.42019 0.11797 0.61821 0.0
C686 C 0.45801 0.12686 0.81293 0.0
C687 C 0.42535 0.13681 0.71141 0.0
C688 C 0.48139 0.15117 1.02862 0.0
C689 C 0.51151 0.12434 0.98182 0.0
N690 N 0.44375 0.14066 0.80441 0.0
N691 N 0.49306 0.11961 0.89554 0.0
H692 H 0.08808 0.58712 2.58132 0.0
H693 H 0.16378 0.51947 1.70702 0.0
H694 H 0.14292 0.60694 2.22522 0.0
H695 H 0.11981 0.49558 2.27739 0.0
H696 H 0.15193 0.55228 1.81831 0.0
H697 H 0.09538 0.55406 2.39975 0.0
C698 C 0.10153 0.58457 2.46306 0.0
C699 C 0.11499 0.59977 2.42089 0.0
C700 C 0.14465 0.53986 1.91617 0.0
C701 C 0.12329 0.56221 2.21069 0.0
C702 C 0.15138 0.52115 1.85159 0.0
C703 C 0.14264 0.50475 1.97979 0.0
C704 C 0.12909 0.54233 2.11276 0.0
C705 C 0.12666 0.50775 2.16755 0.0
C706 C 0.10571 0.56572 2.36045 0.0
C707 C 0.1322 0.59565 2.26593 0.0
N708 N 0.12046 0.52619 2.22987 0.0
N709 N 0.13583 0.57734 2.16703 0.0
H710 H 0.60612 0.87259 0.75376 0.0
H711 H 0.4959 0.90824 0.98217 0.0
H712 H 0.5878 0.93142 0.55827 0.0
H713 H 0.51776 0.85164 1.22746 0.0
H714 H 0.52885 0.91745 0.8205 0.0
H715 H 0.57349 0.8652 0.92581 0.0
C716 C 0.59522 0.88403 0.74717 0.0
C717 C 0.59975 0.90267 0.63969 0.0
C718 C 0.5264 0.90301 0.90901 0.0
C719 C 0.56197 0.89417 0.83774 0.0
C720 C 0.50757 0.89768 0.99823 0.0
C721 C 0.50404 0.87898 1.11217 0.0
C722 C 0.54177 0.88953 0.93516 0.0
C723 C 0.51984 0.86614 1.13918 0.0
C724 C 0.5765 0.87977 0.84629 0.0
C725 C 0.58495 0.91685 0.63909 0.0
N726 N 0.53793 0.87161 1.05014 0.0
N727 N 0.56666 0.91229 0.73534 0.0
H728 H 0.90552 1.0088 2.21184 0.0
H729 H 0.87508 0.09937 1.23379 0.0
H730 H 0.86154 1.00562 1.54168 0.0
H731 H 0.93331 0.09495 1.58647 0.0
H732 H 0.86845 0.06619 1.39455 0.0
H733 H 0.91468 0.04154 2.03473 0.0
C734 C 0.89791 0.01502 2.02658 0.0
C735 C 0.88295 1.00455 1.88806 0.0
C736 C 0.88272 0.0724 1.43607 0.0
C737 C 0.893 0.04178 1.68864 0.0
C738 C 0.88651 0.0914 1.34564 0.0
C739 C 0.90479 0.09997 1.39714 0.0
C740 C 0.89716 0.06185 1.58441 0.0
C741 C 0.91905 0.08885 1.54161 0.0
C742 C 0.90316 0.03356 1.92511 0.0
C743 C 0.87338 0.01314 1.6503 0.0
N744 N 0.91487 0.07037 1.63313 0.0
N745 N 0.87846 0.0313 1.55944 0.0
H746 H 0.11093 0.14566 1.41597 0.0
H747 H 0.99981 0.11097 1.2512 0.0
H748 H 0.09231 0.0874 1.64011 0.0
H749 H 0.02138 0.1677 1.00628 0.0
H750 H 0.03305 0.1015 1.39457 0.0
H751 H 0.07799 0.15327 1.25942 0.0
C752 C 0.0999 0.13438 1.43155 0.0
C753 C 0.10446 0.11585 1.54282 0.0
C754 C 0.03048 0.11604 1.31044 0.0
C755 C 0.06629 0.1246 1.36343 0.0
C756 C 0.01147 0.12152 1.2318 0.0
C757 C 1.00777 0.14033 1.12306 0.0
C758 C 0.04586 0.12945 1.27847 0.0
C759 C 0.02358 0.15313 1.09094 0.0
C760 C 0.08101 0.13877 1.34162 0.0
C761 C 0.08948 0.10186 1.55529 0.0
N762 N 0.04184 0.1475 1.16929 0.0
N763 N 0.07101 0.10655 1.46822 0.0
H764 H 0.13981 0.90777 1.78054 0.0
H765 H 0.11836 0.02085 1.59144 0.0
H766 H 0.08776 0.92812 1.34737 0.0
H767 H 0.15899 0.99748 2.21871 0.0
H768 H 0.10589 0.98775 1.50411 0.0
H769 H 0.14642 0.94089 1.94455 0.0
C770 C 0.12967 0.91924 1.72141 0.0
C771 C 0.11326 0.91518 1.54869 0.0
C772 C 0.11726 0.98993 1.66519 0.0
C773 C 0.12091 0.95344 1.7336 0.0
C774 C 0.12424 1.00886 1.7174 0.0
C775 C 0.13958 0.01196 1.91605 0.0
C776 C 0.12592 0.974 1.809 0.0
C777 C 0.14716 0.99574 2.06432 0.0
C778 C 0.13343 0.93819 1.81608 0.0
C779 C 0.10057 0.93063 1.48076 0.0
N780 N 0.1404 0.97752 2.00615 0.0
N781 N 0.1048 0.94917 1.56997 0.0
H782 H 0.02144 0.89867 1.4689 0.0
H783 H 0.9087 0.87321 1.39168 0.0
H784 H 0.99755 0.8549 0.89469 0.0
H785 H 0.92913 0.92787 1.74607 0.0
H786 H 0.94149 0.86644 1.2128 0.0
H787 H 0.98832 0.91029 1.57121 0.0
C788 C 1.0093 0.89191 1.35687 0.0
C789 C 0.01228 0.87598 1.16872 0.0
C790 C 0.93883 0.88 1.32767 0.0
C791 C 0.97432 0.88864 1.29497 0.0
C792 C 0.9201 0.88384 1.43134 0.0
C793 C 0.91619 0.90108 1.58597 0.0
C794 C 0.95396 0.89333 1.38242 0.0
C795 C 0.93153 0.91438 1.62822 0.0
C796 C 0.99037 0.8984 1.41817 0.0
C797 C 0.99588 0.86725 1.04016 0.0
N798 N 0.94983 0.91013 1.52998 0.0
N799 N 0.97764 0.87356 1.10751 0.0
H800 H 0.35549 0.2074 -0.05504 0.0
H801 H 0.35505 0.30867 0.74083 0.0
H802 H 0.3377 0.21236 0.84716 0.0
H803 H 0.34051 0.304 3.01225 0.0
H804 H 0.35091 0.27343 0.78927 0.0
H805 H 0.3522 0.2427 3.08024 0.0
C806 C 0.35028 0.21572 0.12965 0.0
C807 C 0.34642 0.20673 0.39936 0.0
C808 C 0.34829 0.28023 0.57911 0.0
C809 C 0.34374 0.24735 0.34572 0.0
C810 C 0.3504 0.30044 0.55203 0.0
C811 C 0.34768 0.3095 0.27972 0.0
C812 C 0.34401 0.26893 0.3308 0.0
C813 C 0.34271 0.29766 0.03957 0.0
C814 C 0.34867 0.23597 0.10105 0.0
C815 C 0.34077 0.21866 0.63508 0.0
N816 N 0.34125 0.278 0.06971 0.0
N817 N 0.33982 0.23834 0.60404 0.0
H818 H 0.31019 0.64947 2.42662 0.0
H819 H 0.20633 0.69064 2.9515 0.0
H820 H 0.3038 0.69068 -0.05554 0.0
H821 H 0.2134 0.64157 2.37298 0.0
H822 H 0.242 0.69285 2.99801 0.0
H823 H 0.27469 0.64902 2.36687 0.0
C824 C 0.30131 0.6588 2.56346 0.0
C825 C 0.30988 0.67041 2.78057 0.0
C826 C 0.23573 0.68146 2.86326 0.0
C827 C 0.26926 0.66952 2.72105 0.0
C828 C 0.21542 0.68005 2.84043 0.0
C829 C 0.20701 0.66552 2.66546 0.0
C830 C 0.24765 0.66846 2.70556 0.0
C831 C 0.2194 0.65278 2.51332 0.0
C832 C 0.28104 0.65834 2.53265 0.0
C833 C 0.29767 0.68167 2.96003 0.0
N834 N 0.23906 0.65453 2.53674 0.0
N835 N 0.27798 0.68095 2.92665 0.0
H836 H 0.69388 0.81334 0.165 0.0
H837 H 0.6519 0.7095 0.6655 0.0
H838 H 0.64272 0.80563 0.70237 0.0
H839 H 0.69184 0.71585 -0.05575 0.0
H840 H 0.65231 0.74489 0.73439 0.0
H841 H 0.69648 0.77779 0.11824 0.0
C842 C 0.68298 0.80427 0.26794 0.0
C843 C 0.66778 0.81254 0.43234 0.0
C844 C 0.66119 0.73855 0.56303 0.0
C845 C 0.67119 0.7719 0.391 0.0
C846 C 0.66116 0.71833 0.5269 0.0
C847 C 0.6721 0.70979 0.30211 0.0
C848 C 0.6722 0.75031 0.37244 0.0
C849 C 0.68331 0.72197 0.12109 0.0
C850 C 0.68463 0.78395 0.24475 0.0
C851 C 0.65463 0.79991 0.57272 0.0
N852 N 0.68307 0.74164 0.15967 0.0
N853 N 0.65664 0.7803 0.54917 0.0
H854 H 0.80573 0.33667 2.19928 0.0
H855 H 0.71432 0.34082 0.0853 0.0
H856 H 0.81067 0.35485 3.09953 0.0
H857 H 0.70986 0.35458 2.35396 0.0
H858 H 0.74963 0.33727 0.02876 0.0
H859 H 0.77031 0.3345 2.25898 0.0
C860 C 0.79943 0.33983 2.41125 0.0
C861 C 0.81135 0.34565 2.6459 0.0
C862 C 0.74082 0.34075 3.02601 0.0
C863 C 0.77082 0.34309 2.71518 0.0
C864 C 0.72069 0.34275 3.05735 0.0
C865 C 0.70893 0.34772 2.81663 0.0
C866 C 0.74935 0.34354 2.75101 0.0
C867 C 0.71805 0.35009 2.54379 0.0
C868 C 0.77924 0.33864 2.44432 0.0
C869 C 0.80233 0.34966 2.91518 0.0
N870 N 0.73773 0.34797 2.51846 0.0
N871 N 0.78259 0.34829 2.94239 0.0
H872 H 0.82597 0.70809 1.74489 0.0
H873 H 0.86852 0.81274 2.20087 0.0
H874 H 0.87754 0.71617 2.26854 0.0
H875 H 0.8249 0.8054 1.53213 0.0
H876 H 0.86971 0.7773 2.26386 0.0
H877 H 0.82366 0.74364 1.68323 0.0
C878 C 0.83709 0.71735 1.83979 0.0
C879 C 0.85231 0.70926 2.00458 0.0
C880 C 0.85972 0.78342 2.10517 0.0
C881 C 0.84928 0.7498 1.94813 0.0
C882 C 0.85884 0.80366 2.07275 0.0
C883 C 0.84631 0.81196 1.86527 0.0
C884 C 0.84801 0.77139 1.92818 0.0
C885 C 0.83462 0.79949 1.69616 0.0
C886 C 0.83563 0.73762 1.80862 0.0
C887 C 0.86577 0.72191 2.1365 0.0
N888 N 0.83572 0.77982 1.73124 0.0
N889 N 0.86394 0.74152 2.10598 0.0
H890 H 0.81379 0.19359 0.96076 0.0
H891 H 0.70937 0.1522 1.44652 0.0
H892 H 0.80547 0.14105 1.46438 0.0
H893 H 0.71623 0.19342 0.74343 0.0
H894 H 0.74483 0.15179 1.51197 0.0
H895 H 0.77827 0.19683 0.91831 0.0
C896 C 0.8046 0.18252 1.05691 0.0
C897 C 0.81269 0.16675 1.21059 0.0
C898 C 0.73858 0.16112 1.34547 0.0
C899 C 0.77207 0.17088 1.17475 0.0
C900 C 0.71834 0.16155 1.31138 0.0
C901 C 0.70993 0.17308 1.09242 0.0
C902 C 0.75049 0.1723 1.15897 0.0
C903 C 0.72226 0.18443 0.91572 0.0
C904 C 0.7843 0.18454 1.03634 0.0
C905 C 0.79989 0.15339 1.34293 0.0
N906 N 0.74194 0.18376 0.95234 0.0
N907 N 0.78029 0.15576 1.32242 0.0
H908 H 0.19197 0.31058 1.77889 0.0
H909 H 0.15022 0.20506 2.19917 0.0
H910 H 0.13784 0.30108 2.23847 0.0
H911 H 0.19372 0.21333 1.53071 0.0
H912 H 0.14891 0.24045 2.27149 0.0
H913 H 0.19554 0.27517 1.72311 0.0
C914 C 0.18063 0.30115 1.86209 0.0
C915 C 0.16434 0.30888 2.00805 0.0
C916 C 0.15892 0.23453 2.1111 0.0
C917 C 0.16881 0.26836 1.95732 0.0
C918 C 0.15986 0.21433 2.07327 0.0
C919 C 0.17231 0.20633 1.86207 0.0
C920 C 0.17054 0.24681 1.93637 0.0
C921 C 0.18402 0.21903 1.69694 0.0
C922 C 0.18282 0.28091 1.83404 0.0
C923 C 0.15058 0.29578 2.1235 0.0
N924 N 0.18286 0.23865 1.73724 0.0
N925 N 0.15314 0.27624 2.09647 0.0
H926 H 0.31073 0.86936 1.4512 0.0
H927 H 0.20644 0.82694 0.97768 0.0
H928 H 0.30363 0.82791 0.75137 0.0
H929 H 0.21404 0.87813 1.51184 0.0
H930 H 0.24202 0.82491 0.91745 0.0
H931 H 0.27527 0.86993 1.51793 0.0
C932 C 0.3017 0.86002 1.31681 0.0
C933 C 0.31005 0.84831 1.09905 0.0
C934 C 0.23587 0.83673 1.04492 0.0
C935 C 0.26951 0.84929 1.16691 0.0
C936 C 0.2156 0.83804 1.07525 0.0
C937 C 0.20736 0.85308 1.24218 0.0
C938 C 0.24793 0.85034 1.18775 0.0
C939 C 0.21989 0.86649 1.37794 0.0
C940 C 0.28146 0.86054 1.35157 0.0
C941 C 0.29766 0.837 0.923 0.0
N942 N 0.23952 0.8648 1.34827 0.0
N943 N 0.278 0.83775 0.96058 0.0
H944 H 0.22242 0.13647 2.27609 0.0
H945 H 0.30616 0.07303 3.0437 0.0
H946 H 0.2192 0.07365 2.32347 0.0
H947 H 0.29997 0.13545 3.1277 0.0
H948 H 0.27561 0.07221 2.76103 0.0
H949 H 0.25241 0.13564 2.55869 0.0
C950 C 0.22807 0.12243 2.3441 0.0
C951 C 0.21817 0.10509 2.27473 0.0
C952 C 0.28094 0.08603 2.84322 0.0
C953 C 0.25281 0.10406 2.60352 0.0
C954 C 0.29835 0.08652 3.00517 0.0
C955 C 0.30571 0.10434 3.11058 0.0
C956 C 0.27094 0.10351 2.78395 0.0
C957 C 0.29496 0.12135 3.05218 0.0
C958 C 0.24523 0.12198 2.50762 0.0
C959 C 0.22632 0.08738 2.37123 0.0
N960 N 0.27828 0.1205 2.89239 0.0
N961 N 0.24318 0.08731 2.53067 0.0
H962 H 0.0747 0.71432 0.02363 0.0
H963 H 0.13919 0.79783 0.78614 0.0
H964 H 0.13741 0.71843 -0.04028 0.0
H965 H 0.07626 0.7998 0.76515 0.0
H966 H 0.13835 0.76769 0.50376 0.0
H967 H 0.07448 0.74478 0.30721 0.0
C968 C 0.0884 0.72166 0.06698 0.0
C969 C 0.1061 0.71374 -0.03364 0.0
C970 C 0.12469 0.77465 0.56097 0.0
C971 C 0.10596 0.7485 0.29416 0.0
C972 C 0.12515 0.79187 0.72405 0.0
C973 C 0.10776 0.80144 0.80081 0.0
C974 C 0.1067 0.76673 0.47303 0.0
C975 C 0.09004 0.79295 0.71174 0.0
C976 C 0.08826 0.73903 0.22967 0.0
C977 C 0.12338 0.72391 0.03122 0.0
N978 N 0.08996 0.77609 0.55273 0.0
N979 N 0.12286 0.74062 0.19113 0.0
H980 H 0.71896 0.88291 -0.05185 0.0
H981 H 0.80257 0.94645 2.36428 0.0
H982 H 0.71448 0.94552 3.057 0.0
H983 H 0.7976 0.88377 2.30983 0.0
H984 H 0.77171 0.94729 2.64021 0.0
H985 H 0.74945 0.88385 2.86524 0.0
C986 C 0.72443 0.89694 3.06281 0.0
C987 C 0.71402 0.91417 3.11955 0.0
C988 C 0.77739 0.9334 2.56612 0.0
C989 C 0.74925 0.91532 2.80551 0.0
C990 C 0.79497 0.93291 2.40824 0.0
C991 C 0.80275 0.91501 2.31271 0.0
C992 C 0.76764 0.91587 2.63109 0.0
C993 C 0.79227 0.89793 2.37755 0.0
C994 C 0.74188 0.89744 2.90676 0.0
C995 C 0.72198 0.93186 3.01868 0.0
N996 N 0.77541 0.8988 2.53291 0.0
N997 N 0.73913 0.93199 2.86633 0.0
H998 H 0.94498 0.30426 -0.01464 0.0
H999 H 0.88181 0.21962 0.73904 0.0
H1000 H 0.88233 0.29913 3.11281 0.0
H1001 H 0.94458 0.2165 0.67635 0.0
H1002 H 0.88243 0.25022 0.47085 0.0
H1003 H 0.94583 0.27335 0.25849 0.0
C1004 C 0.93144 0.29661 0.02765 0.0
C1005 C 0.91356 0.30436 3.11829 0.0
C1006 C 0.89612 0.24292 0.5156 0.0
C1007 C 0.91443 0.26915 0.24695 0.0
C1008 C 0.89579 0.22542 0.67071 0.0
C1009 C 0.91318 0.21537 0.73128 0.0
C1010 C 0.91397 0.25068 0.41942 0.0
C1011 C 0.93081 0.22372 0.63512 0.0
C1012 C 0.93194 0.279 0.18407 0.0
C1013 C 0.89648 0.2938 -0.00573 0.0
N1014 N 0.93076 0.24089 0.48388 0.0
N1015 N 0.89735 0.27689 0.14832 0.0
H1016 H 0.30341 0.44125 0.81281 0.0
H1017 H 0.21947 0.37682 1.56454 0.0
H1018 H 0.29909 0.3786 0.74058 0.0
H1019 H 0.21794 0.43977 1.54934 0.0
H1020 H 0.24966 0.37758 1.28311 0.0
H1021 H 0.27289 0.44142 1.09452 0.0
C1022 C 0.296 0.42756 0.85386 0.0
C1023 C 0.30388 0.40989 0.75167 0.0
C1024 C 0.24279 0.39126 1.34149 0.0
C1025 C 0.26907 0.40997 1.0774 0.0
C1026 C 0.22554 0.39084 1.50403 0.0
C1027 C 0.21608 0.40826 1.58193 0.0
C1028 C 0.25083 0.40923 1.25549 0.0
C1029 C 0.2247 0.42596 1.49491 0.0
C1030 C 0.27861 0.42767 1.01553 0.0
C1031 C 0.29364 0.3926 0.81351 0.0
N1032 N 0.24157 0.426 1.33649 0.0
N1033 N 0.27689 0.39309 0.97265 0.0
H1034 H 0.44369 0.71449 2.28316 0.0
H1035 H 0.38008 0.79793 1.51028 0.0
H1036 H 0.38097 0.71911 2.33572 0.0
H1037 H 0.44274 0.80203 1.58315 0.0
H1038 H 0.38092 0.76749 1.78206 0.0
H1039 H 0.44442 0.74526 2.00623 0.0
C1040 C 0.43011 0.72199 2.23862 0.0
C1041 C 0.41225 0.71415 2.33395 0.0
C1042 C 0.39454 0.77497 1.73882 0.0
C1043 C 0.41298 0.74918 2.01416 0.0
C1044 C 0.39409 0.79238 1.58162 0.0
C1045 C 0.41138 0.80266 1.52288 0.0
C1046 C 0.41242 0.76753 1.83905 0.0
C1047 C 0.42905 0.79462 1.62288 0.0
C1048 C 0.43054 0.73953 2.08007 0.0
C1049 C 0.39512 0.72452 2.26824 0.0
N1050 N 0.42913 0.77753 1.77622 0.0
N1051 N 0.39592 0.74135 2.11216 0.0
H1052 H 0.71984 0.63972 0.70592 0.0
H1053 H 0.80056 0.57693 1.55374 0.0
H1054 H 0.71474 0.57739 0.81775 0.0
H1055 H 0.79799 0.63985 1.55192 0.0
H1056 H 0.77029 0.5761 1.26659 0.0
H1057 H 0.74989 0.63925 0.98771 0.0
C1058 C 0.7251 0.62585 0.78778 0.0
C1059 C 0.71465 0.60854 0.73712 0.0
C1060 C 0.77634 0.59006 1.33054 0.0
C1061 C 0.7493 0.60797 1.06491 0.0
C1062 C 0.7936 0.59055 1.49501 0.0
C1063 C 0.80187 0.60849 1.57823 0.0
C1064 C 0.76737 0.60762 1.24642 0.0
C1065 C 0.7922 0.62566 1.49435 0.0
C1066 C 0.74228 0.62563 0.95067 0.0
C1067 C 0.7223 0.59108 0.85063 0.0
N1068 N 0.77559 0.62478 1.33273 0.0
N1069 N 0.73915 0.59123 1.0095 0.0
H1070 H 0.64006 0.22216 1.50974 0.0
H1071 H 0.5763 0.305 2.29316 0.0
H1072 H 0.57734 0.21825 1.57649 0.0
H1073 H 0.63895 0.30015 2.35763 0.0
H1074 H 0.57572 0.27445 2.01153 0.0
H1075 H 0.63924 0.25226 1.79056 0.0
C1076 C 0.62605 0.22769 1.58147 0.0
C1077 C 0.60873 0.21757 1.51837 0.0
C1078 C 0.58955 0.28006 2.08911 0.0
C1079 C 0.60772 0.25228 1.84483 0.0
C1080 C 0.5899 0.29747 2.2505 0.0
C1081 C 0.60771 0.3052 2.35015 0.0
C1082 C 0.60714 0.27042 2.02453 0.0
C1083 C 0.62486 0.29481 2.28664 0.0
C1084 C 0.62561 0.24489 1.74393 0.0
C1085 C 0.59106 0.22555 1.61932 0.0
N1086 N 0.62414 0.2781 2.12731 0.0
N1087 N 0.591 0.24244 1.77762 0.0
H1088 H 0.36287 0.07362 1.21148 0.0
H1089 H 0.36022 0.14524 2.58187 0.0
H1090 H 0.33356 0.12938 1.21099 0.0
H1091 H 0.39122 0.09039 2.56653 0.0
H1092 H 0.3513 0.14038 2.07165 0.0
H1093 H 0.37121 0.07843 1.72321 0.0
C1094 C 0.35764 0.08658 1.32136 0.0
C1095 C 0.34795 0.10134 1.16788 0.0
C1096 C 0.36028 0.12954 2.17892 0.0
C1097 C 0.35799 0.10727 1.74755 0.0
C1098 C 0.36571 0.1325 2.46829 0.0
C1099 C 0.37612 0.11798 2.61677 0.0
C1100 C 0.36541 0.11201 2.03993 0.0
C1101 C 0.38287 0.10176 2.46001 0.0
C1102 C 0.36274 0.08951 1.61205 0.0
C1103 C 0.34142 0.11781 1.32121 0.0
N1104 N 0.37709 0.09902 2.18039 0.0
N1105 N 0.34689 0.12053 1.60235 0.0
H1106 H 0.07293 0.65782 1.85792 0.0
H1107 H 0.14454 0.65706 0.48435 0.0
H1108 H 0.12968 0.68525 1.85051 0.0
H1109 H 0.08816 0.62892 0.49716 0.0
H1110 H 0.14012 0.6661 0.99512 0.0
H1111 H 0.07742 0.64884 1.34697 0.0
C1112 C 0.08606 0.6625 1.74626 0.0
C1113 C 0.10116 0.67189 1.89744 0.0
C1114 C 0.12883 0.65771 0.88718 0.0
C1115 C 0.10666 0.66112 1.31885 0.0
C1116 C 0.13153 0.65221 0.59729 0.0
C1117 C 0.11651 0.64259 0.44776 0.0
C1118 C 0.11105 0.65346 1.02599 0.0
C1119 C 0.09995 0.63665 0.60428 0.0
C1120 C 0.08879 0.65704 1.45624 0.0
C1121 C 0.11783 0.67769 1.74227 0.0
N1122 N 0.09749 0.64251 0.88442 0.0
N1123 N 0.1203 0.67188 1.46193 0.0
H1124 H 0.65778 0.94635 1.22105 0.0
H1125 H 0.65728 0.87442 2.58832 0.0
H1126 H 0.68515 0.88961 1.22096 0.0
H1127 H 0.62894 0.9307 2.57817 0.0
H1128 H 0.66625 0.87894 2.07749 0.0
H1129 H 0.64892 0.94171 1.73128 0.0
C1130 C 0.66246 0.93319 1.33064 0.0
C1131 C 0.67178 0.91815 1.17738 0.0
C1132 C 0.65784 0.89018 2.18612 0.0
C1133 C 0.66114 0.91244 1.75579 0.0
C1134 C 0.65239 0.88744 2.47605 0.0
C1135 C 0.64276 0.90243 2.62638 0.0
C1136 C 0.65352 0.90796 2.04824 0.0
C1137 C 0.6367 0.91896 2.47055 0.0
C1138 C 0.65707 0.93037 1.62052 0.0
C1139 C 0.67761 0.90142 1.33067 0.0
N1140 N 0.64251 0.92146 2.19042 0.0
N1141 N 0.67186 0.89884 1.61102 0.0
H1142 H 0.92714 0.39189 0.47031 0.0
H1143 H 0.88959 0.33048 1.83586 0.0
H1144 H 0.8742 0.35774 0.46566 0.0
H1145 H 0.94328 0.36342 1.82808 0.0
H1146 H 0.88441 0.33901 1.32501 0.0
H1147 H 0.93218 0.38321 0.98086 0.0
C1148 C 0.91626 0.38305 0.58007 0.0
C1149 C 0.90042 0.37524 0.4259 0.0
C1150 C 0.89747 0.34415 1.4338 0.0
C1151 C 0.90642 0.3647 1.00367 0.0
C1152 C 0.9006 0.33901 1.72358 0.0
C1153 C 0.9167 0.34658 1.87478 0.0
C1154 C 0.91055 0.35692 1.29639 0.0
C1155 C 0.93061 0.35741 1.71995 0.0
C1156 C 0.91932 0.37783 0.86954 0.0
C1157 C 0.88666 0.36399 0.57708 0.0
N1158 N 0.92701 0.3626 1.4394 0.0
N1159 N 0.89019 0.35872 0.85761 0.0
H1160 H 0.38963 0.42834 1.28817 0.0
H1161 H 0.33171 0.38587 2.6547 0.0
H1162 H 0.35996 0.37274 1.28644 0.0
H1163 H 0.36023 0.44206 2.64854 0.0
H1164 H 0.3404 0.38156 2.14285 0.0
H1165 H 0.38058 0.43274 1.79858 0.0
C1166 C 0.3817 0.4168 1.39828 0.0
C1167 C 0.37518 0.40034 1.24489 0.0
C1168 C 0.34454 0.39495 2.25224 0.0
C1169 C 0.36425 0.40556 1.82239 0.0
C1170 C 0.33931 0.39756 2.54263 0.0
C1171 C 0.34569 0.41414 2.69434 0.0
C1172 C 0.3562 0.40904 2.11503 0.0
C1173 C 0.35525 0.42895 2.53975 0.0
C1174 C 0.37626 0.41946 1.6877 0.0
C1175 C 0.36514 0.38572 1.39689 0.0
N1176 N 0.3606 0.42587 2.2585 0.0
N1177 N 0.35964 0.38885 1.67729 0.0
H1178 H 0.44346 0.6582 0.43935 0.0
H1179 H 0.37154 0.65802 1.80699 0.0
H1180 H 0.38675 0.68562 0.43893 0.0
H1181 H 0.42765 0.62935 1.79536 0.0
H1182 H 0.37612 0.66703 1.29671 0.0
H1183 H 0.43883 0.64949 0.94998 0.0
C1184 C 0.43031 0.66293 0.5489 0.0
C1185 C 0.41526 0.6722 0.39547 0.0
C1186 C 0.38731 0.65854 1.40485 0.0
C1187 C 0.40957 0.66173 0.97436 0.0
C1188 C 0.38453 0.65306 1.69447 0.0
C1189 C 0.39945 0.64331 1.84421 0.0
C1190 C 0.40507 0.65413 1.2667 0.0
C1191 C 0.41596 0.6372 1.68813 0.0
C1192 C 0.42749 0.65762 0.83906 0.0
C1193 C 0.39855 0.6781 0.54879 0.0
N1194 N 0.4185 0.64303 1.40826 0.0
N1195 N 0.39597 0.67243 0.82943 0.0
H1196 H 0.65941 0.5763 2.6313 0.0
H1197 H 0.65789 0.64841 1.26716 0.0
H1198 H 0.68573 0.63353 2.63311 0.0
H1199 H 0.63063 0.59158 1.27271 0.0
H1200 H 0.66697 0.64387 1.77691 0.0
H1201 H 0.65075 0.58072 2.1198 0.0
C1202 C 0.66392 0.58953 2.52176 0.0
C1203 C 0.67284 0.60477 2.67558 0.0
C1204 C 0.65878 0.63249 1.66752 0.0
C1205 C 0.66245 0.61021 2.09622 0.0
C1206 C 0.65326 0.63524 1.37818 0.0
C1207 C 0.6439 0.62014 1.22682 0.0
C1208 C 0.6548 0.61459 1.8039 0.0
C1209 C 0.63818 0.60343 1.38113 0.0
C1210 C 0.65865 0.59221 2.23121 0.0
C1211 C 0.67848 0.62158 2.52269 0.0
N1212 N 0.64405 0.60092 1.66088 0.0
N1213 N 0.67284 0.62402 2.24175 0.0
H1214 H 0.64704 0.36232 1.80915 0.0
H1215 H 0.57526 0.36068 0.44132 0.0
H1216 H 0.58998 0.38914 1.8033 0.0
H1217 H 0.63264 0.33461 0.44344 0.0
H1218 H 0.57943 0.36916 0.95453 0.0
H1219 H 0.64262 0.3533 1.29898 0.0
C1220 C 0.63384 0.36686 1.69787 0.0
C1221 C 0.61864 0.37606 1.84909 0.0
C1222 C 0.591 0.36135 0.84354 0.0
C1223 C 0.61324 0.36522 1.27204 0.0
C1224 C 0.58847 0.35618 0.55234 0.0
C1225 C 0.60386 0.34742 0.39964 0.0
C1226 C 0.60897 0.3576 0.97966 0.0
C1227 C 0.6206 0.34176 0.55338 0.0
C1228 C 0.63117 0.36137 1.40843 0.0
C1229 C 0.60189 0.38169 1.69486 0.0
N1230 N 0.62289 0.3473 0.83488 0.0
N1231 N 0.59947 0.37584 1.41491 0.0
H1232 H 0.85245 0.57537 2.87893 0.0
H1233 H 0.86403 0.64592 1.06332 0.0
H1234 H 0.8337 0.63556 2.88924 0.0
H1235 H 0.8828 0.58575 1.05408 0.0
H1236 H 0.85461 0.64294 0.55307 0.0
H1237 H 0.86195 0.57836 0.20261 0.0
C1238 C 0.84978 0.58904 2.99096 0.0
C1239 C 0.84277 0.60541 2.84048 0.0
C1240 C 0.861 0.63045 0.66186 0.0
C1241 C 0.85416 0.60908 0.23182 0.0
C1242 C 0.86672 0.63225 0.95184 0.0
C1243 C 0.87368 0.61589 1.1027 0.0
C1244 C 0.86239 0.61221 0.52408 0.0
C1245 C 0.87706 0.5986 0.94673 0.0
C1246 C 0.85554 0.59084 0.09396 0.0
C1247 C 0.83944 0.6227 2.99644 0.0
N1248 N 0.87101 0.59709 0.66622 0.0
N1249 N 0.84553 0.62421 0.0899 0.0
H1250 H 0.59047 0.13257 2.04729 0.0
H1251 H 0.63364 0.18953 0.23107 0.0
H1252 H 0.64686 0.16071 2.05418 0.0
H1253 H 0.5771 0.1617 0.22422 0.0
H1254 H 0.63791 0.18073 2.90644 0.0
H1255 H 0.58605 0.1416 2.55774 0.0
C1256 C 0.60216 0.14016 2.15905 0.0
C1257 C 0.61886 0.14631 2.00777 0.0
C1258 C 0.62446 0.17677 3.01562 0.0
C1259 C 0.61365 0.15718 2.58564 0.0
C1260 C 0.62188 0.18206 0.11895 0.0
C1261 C 0.6052 0.17591 0.27038 0.0
C1262 C 0.61024 0.16527 2.87826 0.0
C1263 C 0.5903 0.1665 0.11566 0.0
C1264 C 0.5995 0.14559 2.44861 0.0
C1265 C 0.63367 0.15588 2.16235 0.0
N1266 N 0.59334 0.16109 3.02142 0.0
N1267 N 0.63055 0.16138 2.44275 0.0
H1268 H 0.15003 0.37315 1.06046 0.0
H1269 H 0.16865 0.44247 2.88078 0.0
H1270 H 0.13789 0.43503 1.05761 0.0
H1271 H 0.18123 0.38068 2.88764 0.0
H1272 H 0.15903 0.44039 0.2048 0.0
H1273 H 0.1596 0.37529 0.54968 0.0
C1274 C 0.14885 0.38709 0.95028 0.0
C1275 C 0.14377 0.40407 1.10306 0.0
C1276 C 0.16411 0.42733 0.09527 0.0
C1277 C 0.1552 0.4067 0.52424 0.0
C1278 C 0.16994 0.42858 2.99206 0.0
C1279 C 0.17519 0.41159 2.84056 0.0
C1280 C 0.16366 0.40903 0.23213 0.0
C1281 C 0.17684 0.39404 2.99559 0.0
C1282 C 0.15464 0.38836 0.66013 0.0
C1283 C 0.14219 0.42167 0.9489 0.0
N1284 N 0.17069 0.39312 0.08932 0.0
N1285 N 0.14829 0.42261 0.66811 0.0
H1286 H 0.38653 0.83081 0.24201 0.0
H1287 H 0.42938 0.88796 2.05784 0.0
H1288 H 0.44293 0.85891 0.23426 0.0
H1289 H 0.37313 0.85953 2.06542 0.0
H1290 H 0.43387 0.87894 2.56803 0.0
H1291 H 0.38221 0.83956 2.91742 0.0
C1292 C 0.39825 0.83832 0.12966 0.0
C1293 C 0.41491 0.84457 0.28082 0.0
C1294 C 0.42044 0.87489 2.45914 0.0
C1295 C 0.40981 0.85515 2.88879 0.0
C1296 C 0.41773 0.8803 2.16974 0.0
C1297 C 0.40105 0.87408 2.01873 0.0
C1298 C 0.40635 0.86322 2.59629 0.0
C1299 C 0.3863 0.86443 2.17343 0.0
C1300 C 0.39565 0.84359 3.02637 0.0
C1301 C 0.42976 0.85404 0.12588 0.0
N1302 N 0.38946 0.85894 2.45368 0.0
N1303 N 0.42669 0.85942 3.03168 0.0
H1304 H 0.85951 0.94543 1.01801 0.0
H1305 H 0.85826 0.87361 2.83532 0.0
H1306 H 0.83066 0.88942 1.01583 0.0
H1307 H 0.88811 0.92909 2.84758 0.0
H1308 H 0.84939 0.8783 0.15936 0.0
H1309 H 0.86836 0.94056 0.50811 0.0
C1310 C 0.8545 0.93239 0.90799 0.0
C1311 C 0.84475 0.9176 1.06061 0.0
C1312 C 0.85811 0.88933 0.05126 0.0
C1313 C 0.85537 0.91163 0.48239 0.0
C1314 C 0.8635 0.88647 2.94808 0.0
C1315 C 0.87355 0.90119 2.79834 0.0
C1316 C 0.8629 0.90697 0.18985 0.0
C1317 C 0.88003 0.91755 2.95482 0.0
C1318 C 0.85988 0.92943 0.61829 0.0
C1319 C 0.83852 0.90103 0.90669 0.0
N1320 N 0.87427 0.92018 0.04817 0.0
N1321 N 0.84426 0.89831 0.62651 0.0
H1322 H 0.93311 0.1303 0.19111 0.0
H1323 H 0.88902 0.18639 2.00692 0.0
H1324 H 0.87622 0.15742 0.18371 0.0
H1325 H 0.94601 0.1595 2.01465 0.0
H1326 H 0.88486 0.17753 2.51822 0.0
H1327 H 0.93736 0.13931 2.86736 0.0
C1328 C 0.92128 0.13766 0.0792 0.0
C1329 C 0.90449 0.14356 0.23036 0.0
C1330 C 0.89839 0.17379 2.40924 0.0
C1331 C 0.9095 0.15441 2.83922 0.0
C1332 C 0.9009 0.17912 2.11918 0.0
C1333 C 0.91769 0.17323 1.96804 0.0
C1334 C 0.91278 0.16254 2.54674 0.0
C1335 C 0.93274 0.16408 2.12296 0.0
C1336 C 0.92385 0.14308 2.97639 0.0
C1337 C 0.8895 0.15282 0.0756 0.0
N1338 N 0.92976 0.15864 2.40393 0.0
N1339 N 0.89252 0.15833 2.98192 0.0
H1340 H 0.15742 0.14359 2.78917 0.0
H1341 H 0.16563 0.07263 0.97403 0.0
H1342 H 0.13588 0.08436 2.79801 0.0
H1343 H 0.18746 0.13177 0.96241 0.0
H1344 H 0.15617 0.07607 0.46397 0.0
H1345 H 0.16665 0.1402 0.11305 0.0
C1346 C 0.15409 0.13007 2.90069 0.0
C1347 C 0.1464 0.11403 2.74964 0.0
C1348 C 0.16324 0.08822 0.57219 0.0
C1349 C 0.15745 0.10987 0.14181 0.0
C1350 C 0.16898 0.08613 0.86173 0.0
C1351 C 0.17687 0.10212 1.01171 0.0
C1352 C 0.16553 0.10635 0.43408 0.0
C1353 C 0.18103 0.11922 0.85551 0.0
C1354 C 0.15969 0.12802 0.00406 0.0
C1355 C 0.1422 0.09694 2.90557 0.0
N1356 N 0.17496 0.12103 0.57554 0.0
N1357 N 0.14815 0.09516 -0.0006 0.0
H1358 H 0.07358 0.85263 2.10437 0.0
H1359 H 0.14408 0.86323 0.29155 0.0
H1360 H 0.13352 0.83308 2.11525 0.0
H1361 H 0.08428 0.88316 0.27858 0.0
H1362 H 0.14109 0.85387 2.96752 0.0
H1363 H 0.0767 0.86226 2.61434 0.0
C1364 C 0.08722 0.84981 2.21646 0.0
C1365 C 0.10348 0.8425 2.06624 0.0
C1366 C 0.1287 0.86052 3.07555 0.0
C1367 C 0.10732 0.85405 2.64397 0.0
C1368 C 0.13051 0.86621 0.17901 0.0
C1369 C 0.11423 0.8735 0.32888 0.0
C1370 C 0.11053 0.86225 2.93652 0.0
C1371 C 0.09706 0.87718 0.17182 0.0
C1372 C 0.0891 0.85565 2.50597 0.0
C1373 C 0.12074 0.83902 2.22226 0.0
N1374 N 0.09553 0.87115 3.07795 0.0
N1375 N 0.12233 0.84518 2.50226 0.0
loop_
_geom_bond_atom_site_label_1
_geom_bond_atom_site_label_2
_geom_bond_distance
_geom_bond_site_symmetry_2
_ccdc_geom_bond_type
Zn0 O1 2.055 1_554 S
Zn0 O8 2.046 . S
Zn0 N16 2.036 . S
Zn0 O28 2.053 . S
Zn0 O30 2.066 . S
O1 Zn0 2.055 1_556 S
O1 C4 1.259 . S
C2 O30 1.256 . S
C2 O31 1.244 . S
Zn3 O5 2.046 1_554 S
Zn3 O7 2.055 . S
Zn3 N9 2.036 . S
Zn3 O27 2.066 . S
Zn3 O31 2.053 . S
C4 O1 1.259 . S
C4 O5 1.254 . S
O5 Zn3 2.046 1_556 S
O5 C4 1.254 . S
C6 O27 1.256 . S
C6 O28 1.244 . S
O7 Zn3 2.055 . S
O7 C29 1.259 . S
O8 Zn0 2.046 . S
O8 C29 1.254 . S
N9 Zn3 2.036 . S
N9 C10 1.298 . S
N9 N12 1.398 . S
C10 N9 1.298 . S
C10 N13 1.367 . S
C10 C23 1.481 . S
C11 N12 1.299 . S
C11 N13 1.379 . S
N12 N9 1.398 . S
N12 C11 1.299 . S
N13 C10 1.367 . S
N13 C11 1.379 . S
C14 N16 1.298 . S
C14 N18 1.367 . S
C14 C22 1.481 1_554 S
C15 N17 1.299 . S
C15 N18 1.379 . S
N16 Zn0 2.036 . S
N16 C14 1.298 . S
N16 N17 1.398 . S
N17 C15 1.299 . S
N17 N16 1.398 . S
N18 C14 1.367 . S
N18 C15 1.379 . S
H19 C22 0.980 . S
H20 C22 0.981 . S
H21 C22 0.981 . S
C22 C14 1.481 1_556 S
C22 H19 0.980 . S
C22 H20 0.981 . S
C22 H21 0.981 . S
C23 C10 1.481 . S
C23 H24 0.980 . S
C23 H25 0.981 . S
C23 H26 0.981 . S
H24 C23 0.980 . S
H25 C23 0.981 . S
H26 C23 0.981 . S
O27 Zn3 2.066 . S
O27 C6 1.256 . S
O28 Zn0 2.053 . S
O28 C6 1.244 . S
C29 O7 1.259 . S
C29 O8 1.254 . S
O30 Zn0 2.066 . S
O30 C2 1.256 . S
O31 C2 1.244 . S
O31 Zn3 2.053 . S
Zn32 O33 2.055 1_556 S
Zn32 O40 2.046 . S
Zn32 N48 2.036 . S
Zn32 O60 2.053 . S
Zn32 O62 2.066 . S
O33 Zn32 2.055 1_554 S
O33 C36 1.259 . S
C34 O62 1.256 . S
C34 O63 1.244 . S
Zn35 O37 2.046 1_556 S
Zn35 O39 2.055 . S
Zn35 N41 2.036 . S
Zn35 O59 2.066 . S
Zn35 O63 2.053 . S
C36 O33 1.259 . S
C36 O37 1.254 . S
O37 Zn35 2.046 1_554 S
O37 C36 1.254 . S
C38 O59 1.256 . S
C38 O60 1.244 . S
O39 Zn35 2.055 . S
O39 C61 1.259 . S
O40 Zn32 2.046 . S
O40 C61 1.254 . S
N41 Zn35 2.036 . S
N41 C42 1.298 . S
N41 N44 1.398 . S
C42 N41 1.298 . S
C42 N45 1.367 . S
C42 C55 1.481 . S
C43 N44 1.299 . S
C43 N45 1.379 . S
N44 N41 1.398 . S
N44 C43 1.299 . S
N45 C42 1.367 . S
N45 C43 1.379 . S
C46 N48 1.298 . S
C46 N50 1.367 . S
C46 C54 1.481 1_556 S
C47 N49 1.299 . S
C47 N50 1.379 . S
N48 Zn32 2.036 . S
N48 C46 1.298 . S
N48 N49 1.398 . S
N49 C47 1.299 . S
N49 N48 1.398 . S
N50 C46 1.367 . S
N50 C47 1.379 . S
H51 C54 0.980 . S
H52 C54 0.981 . S
H53 C54 0.981 . S
C54 C46 1.481 1_554 S
C54 H51 0.980 . S
C54 H52 0.981 . S
C54 H53 0.981 . S
C55 C42 1.481 . S
C55 H56 0.980 . S
C55 H57 0.981 . S
C55 H58 0.981 . S
H56 C55 0.980 . S
H57 C55 0.981 . S
H58 C55 0.981 . S
O59 Zn35 2.066 . S
O59 C38 1.256 . S
O60 Zn32 2.053 . S
O60 C38 1.244 . S
C61 O39 1.259 . S
C61 O40 1.254 . S
O62 Zn32 2.066 . S
O62 C34 1.256 . S
O63 C34 1.244 . S
O63 Zn35 2.053 . S
Zn64 O65 2.055 . S
Zn64 O72 2.046 1_554 S
Zn64 N80 2.036 . S
Zn64 O92 2.053 . S
Zn64 O94 2.066 . S
O65 Zn64 2.055 . S
O65 C68 1.259 . S
C66 O94 1.256 . S
C66 O95 1.244 . S
Zn67 O69 2.046 . S
Zn67 O71 2.055 1_554 S
Zn67 N73 2.036 . S
Zn67 O91 2.066 . S
Zn67 O95 2.053 . S
C68 O65 1.259 . S
C68 O69 1.254 . S
O69 Zn67 2.046 . S
O69 C68 1.254 . S
C70 O91 1.256 . S
C70 O92 1.244 . S
O71 Zn67 2.055 1_556 S
O71 C93 1.259 . S
O72 Zn64 2.046 1_556 S
O72 C93 1.254 . S
N73 Zn67 2.036 . S
N73 C74 1.298 . S
N73 N76 1.398 . S
C74 N73 1.298 . S
C74 N77 1.367 . S
C74 C87 1.481 1_554 S
C75 N76 1.299 . S
C75 N77 1.379 . S
N76 N73 1.398 . S
N76 C75 1.299 . S
N77 C74 1.367 . S
N77 C75 1.379 . S
C78 N80 1.298 . S
C78 N82 1.367 . S
C78 C86 1.481 . S
C79 N81 1.299 . S
C79 N82 1.379 . S
N80 Zn64 2.036 . S
N80 C78 1.298 . S
N80 N81 1.398 . S
N81 C79 1.299 . S
N81 N80 1.398 . S
N82 C78 1.367 . S
N82 C79 1.379 . S
H83 C86 0.980 . S
H84 C86 0.981 . S
H85 C86 0.981 . S
C86 C78 1.481 . S
C86 H83 0.980 . S
C86 H84 0.981 . S
C86 H85 0.981 . S
C87 C74 1.481 1_556 S
C87 H88 0.980 . S
C87 H89 0.981 . S
C87 H90 0.981 . S
H88 C87 0.980 . S
H89 C87 0.981 . S
H90 C87 0.981 . S
O91 Zn67 2.066 . S
O91 C70 1.256 . S
O92 Zn64 2.053 . S
O92 C70 1.244 . S
C93 O71 1.259 . S
C93 O72 1.254 . S
O94 Zn64 2.066 . S
O94 C66 1.256 . S
O95 C66 1.244 . S
O95 Zn67 2.053 . S
Zn96 O97 2.055 . S
Zn96 O104 2.046 1_556 S
Zn96 N112 2.036 . S
Zn96 O124 2.053 . S
Zn96 O126 2.066 . S
O97 Zn96 2.055 . S
O97 C100 1.259 . S
C98 O126 1.256 . S
C98 O127 1.244 . S
Zn99 O101 2.046 . S
Zn99 O103 2.055 1_556 S
Zn99 N105 2.036 . S
Zn99 O123 2.066 . S
Zn99 O127 2.053 . S
C100 O97 1.259 . S
C100 O101 1.254 . S
O101 Zn99 2.046 . S
O101 C100 1.254 . S
C102 O123 1.256 . S
C102 O124 1.244 . S
O103 Zn99 2.055 1_554 S
O103 C125 1.259 . S
O104 Zn96 2.046 1_554 S
O104 C125 1.254 . S
N105 Zn99 2.036 . S
N105 C106 1.298 . S
N105 N108 1.398 . S
C106 N105 1.298 . S
C106 N109 1.367 . S
C106 C119 1.481 1_556 S
C107 N108 1.299 . S
C107 N109 1.379 . S
N108 N105 1.398 . S
N108 C107 1.299 . S
N109 C106 1.367 . S
N109 C107 1.379 . S
C110 N112 1.298 . S
C110 N114 1.367 . S
C110 C118 1.481 . S
C111 N113 1.299 . S
C111 N114 1.379 . S
N112 Zn96 2.036 . S
N112 C110 1.298 . S
N112 N113 1.398 . S
N113 C111 1.299 . S
N113 N112 1.398 . S
N114 C110 1.367 . S
N114 C111 1.379 . S
H115 C118 0.980 . S
H116 C118 0.981 . S
H117 C118 0.981 . S
C118 C110 1.481 . S
C118 H115 0.980 . S
C118 H116 0.981 . S
C118 H117 0.981 . S
C119 C106 1.481 1_554 S
C119 H120 0.980 . S
C119 H121 0.981 . S
C119 H122 0.981 . S
H120 C119 0.980 . S
H121 C119 0.981 . S
H122 C119 0.981 . S
O123 Zn99 2.066 . S
O123 C102 1.256 . S
O124 Zn96 2.053 . S
O124 C102 1.244 . S
C125 O103 1.259 . S
C125 O104 1.254 . S
O126 Zn96 2.066 . S
O126 C98 1.256 . S
O127 C98 1.244 . S
O127 Zn99 2.053 . S
Zn128 O129 2.055 . S
Zn128 O136 2.046 . S
Zn128 N144 2.036 . S
Zn128 O156 2.053 1_554 S
Zn128 O158 2.066 . S
O129 Zn128 2.055 . S
O129 C132 1.259 . S
C130 O158 1.256 . S
C130 O159 1.244 . S
Zn131 O133 2.046 . S
Zn131 O135 2.055 . S
Zn131 N137 2.036 . S
Zn131 O155 2.066 1_554 S
Zn131 O159 2.053 . S
C132 O129 1.259 . S
C132 O133 1.254 . S
O133 Zn131 2.046 . S
O133 C132 1.254 . S
C134 O155 1.256 . S
C134 O156 1.244 . S
O135 Zn131 2.055 . S
O135 C157 1.259 . S
O136 Zn128 2.046 . S
O136 C157 1.254 . S
N137 Zn131 2.036 . S
N137 C138 1.298 . S
N137 N140 1.398 . S
C138 N137 1.298 . S
C138 N141 1.367 . S
C138 C151 1.481 . S
C139 N140 1.299 . S
C139 N141 1.379 . S
N140 N137 1.398 . S
N140 C139 1.299 . S
N141 C138 1.367 . S
N141 C139 1.379 . S
C142 N144 1.298 . S
C142 N146 1.367 . S
C142 C150 1.481 . S
C143 N145 1.299 . S
C143 N146 1.379 . S
N144 Zn128 2.036 . S
N144 C142 1.298 . S
N144 N145 1.398 . S
N145 C143 1.299 . S
N145 N144 1.398 . S
N146 C142 1.367 . S
N146 C143 1.379 . S
H147 C150 0.980 . S
H148 C150 0.981 . S
H149 C150 0.981 . S
C150 C142 1.481 . S
C150 H147 0.980 . S
C150 H148 0.981 . S
C150 H149 0.981 . S
C151 C138 1.481 . S
C151 H152 0.980 . S
C151 H153 0.981 . S
C151 H154 0.981 1_554 S
H152 C151 0.980 . S
H153 C151 0.981 . S
H154 C151 0.981 1_556 S
O155 Zn131 2.066 1_556 S
O155 C134 1.256 . S
O156 Zn128 2.053 1_556 S
O156 C134 1.244 . S
C157 O135 1.259 . S
C157 O136 1.254 . S
O158 Zn128 2.066 . S
O158 C130 1.256 . S
O159 C130 1.244 . S
O159 Zn131 2.053 . S
Zn160 O161 2.055 . S
Zn160 O168 2.046 . S
Zn160 N176 2.036 . S
Zn160 O188 2.053 . S
Zn160 O190 2.066 1_556 S
O161 Zn160 2.055 . S
O161 C164 1.259 . S
C162 O190 1.256 . S
C162 O191 1.244 . S
Zn163 O165 2.046 . S
Zn163 O167 2.055 . S
Zn163 N169 2.036 . S
Zn163 O187 2.066 . S
Zn163 O191 2.053 1_556 S
C164 O161 1.259 . S
C164 O165 1.254 . S
O165 Zn163 2.046 . S
O165 C164 1.254 . S
C166 O187 1.256 . S
C166 O188 1.244 . S
O167 Zn163 2.055 . S
O167 C189 1.259 . S
O168 Zn160 2.046 . S
O168 C189 1.254 . S
N169 Zn163 2.036 . S
N169 C170 1.298 . S
N169 N172 1.398 . S
C170 N169 1.298 . S
C170 N173 1.367 . S
C170 C183 1.481 . S
C171 N172 1.299 . S
C171 N173 1.379 . S
N172 N169 1.398 . S
N172 C171 1.299 . S
N173 C170 1.367 . S
N173 C171 1.379 . S
C174 N176 1.298 . S
C174 N178 1.367 . S
C174 C182 1.481 . S
C175 N177 1.299 . S
C175 N178 1.379 . S
N176 Zn160 2.036 . S
N176 C174 1.298 . S
N176 N177 1.398 . S
N177 C175 1.299 . S
N177 N176 1.398 . S
N178 C174 1.367 . S
N178 C175 1.379 . S
H179 C182 0.980 . S
H180 C182 0.981 . S
H181 C182 0.981 1_554 S
C182 C174 1.481 . S
C182 H179 0.980 . S
C182 H180 0.981 . S
C182 H181 0.981 1_556 S
C183 C170 1.481 . S
C183 H184 0.980 . S
C183 H185 0.981 . S
C183 H186 0.981 . S
H184 C183 0.980 . S
H185 C183 0.981 . S
H186 C183 0.981 . S
O187 Zn163 2.066 . S
O187 C166 1.256 . S
O188 Zn160 2.053 . S
O188 C166 1.244 . S
C189 O167 1.259 . S
C189 O168 1.254 . S
O190 Zn160 2.066 1_554 S
O190 C162 1.256 . S
O191 C162 1.244 . S
O191 Zn163 2.053 1_554 S
Zn192 O193 2.055 . S
Zn192 O200 2.046 . S
Zn192 N208 2.036 . S
Zn192 O220 2.053 1_554 S
Zn192 O222 2.066 . S
O193 Zn192 2.055 . S
O193 C196 1.259 . S
C194 O222 1.256 . S
C194 O223 1.244 . S
Zn195 O197 2.046 . S
Zn195 O199 2.055 . S
Zn195 N201 2.036 . S
Zn195 O219 2.066 1_554 S
Zn195 O223 2.053 . S
C196 O193 1.259 . S
C196 O197 1.254 . S
O197 Zn195 2.046 . S
O197 C196 1.254 . S
C198 O219 1.256 . S
C198 O220 1.244 . S
O199 Zn195 2.055 . S
O199 C221 1.259 . S
O200 Zn192 2.046 . S
O200 C221 1.254 . S
N201 Zn195 2.036 . S
N201 C202 1.298 . S
N201 N204 1.398 . S
C202 N201 1.298 . S
C202 N205 1.367 . S
C202 C215 1.481 . S
C203 N204 1.299 . S
C203 N205 1.379 . S
N204 N201 1.398 . S
N204 C203 1.299 . S
N205 C202 1.367 . S
N205 C203 1.379 . S
C206 N208 1.298 . S
C206 N210 1.367 . S
C206 C214 1.481 . S
C207 N209 1.299 . S
C207 N210 1.379 . S
N208 Zn192 2.036 . S
N208 C206 1.298 . S
N208 N209 1.398 . S
N209 C207 1.299 . S
N209 N208 1.398 . S
N210 C206 1.367 . S
N210 C207 1.379 . S
H211 C214 0.980 . S
H212 C214 0.981 . S
H213 C214 0.981 . S
C214 C206 1.481 . S
C214 H211 0.980 . S
C214 H212 0.981 . S
C214 H213 0.981 . S
C215 C202 1.481 . S
C215 H216 0.980 . S
C215 H217 0.981 . S
C215 H218 0.981 1_554 S
H216 C215 0.980 . S
H217 C215 0.981 . S
H218 C215 0.981 1_556 S
O219 Zn195 2.066 1_556 S
O219 C198 1.256 . S
O220 Zn192 2.053 1_556 S
O220 C198 1.244 . S
C221 O199 1.259 . S
C221 O200 1.254 . S
O222 Zn192 2.066 . S
O222 C194 1.256 . S
O223 C194 1.244 . S
O223 Zn195 2.053 . S
Zn224 O225 2.055 . S
Zn224 O232 2.046 . S
Zn224 N240 2.036 . S
Zn224 O252 2.053 1_556 S
Zn224 O254 2.066 . S
O225 Zn224 2.055 . S
O225 C228 1.259 . S
C226 O254 1.256 . S
C226 O255 1.244 . S
Zn227 O229 2.046 . S
Zn227 O231 2.055 . S
Zn227 N233 2.036 . S
Zn227 O251 2.066 1_556 S
Zn227 O255 2.053 . S
C228 O225 1.259 . S
C228 O229 1.254 . S
O229 Zn227 2.046 . S
O229 C228 1.254 . S
C230 O251 1.256 . S
C230 O252 1.244 . S
O231 Zn227 2.055 . S
O231 C253 1.259 . S
O232 Zn224 2.046 . S
O232 C253 1.254 . S
N233 Zn227 2.036 . S
N233 C234 1.298 . S
N233 N236 1.398 . S
C234 N233 1.298 . S
C234 N237 1.367 . S
C234 C247 1.481 . S
C235 N236 1.299 . S
C235 N237 1.379 . S
N236 N233 1.398 . S
N236 C235 1.299 . S
N237 C234 1.367 . S
N237 C235 1.379 . S
C238 N240 1.298 . S
C238 N242 1.367 . S
C238 C246 1.481 . S
C239 N241 1.299 . S
C239 N242 1.379 . S
N240 Zn224 2.036 . S
N240 C238 1.298 . S
N240 N241 1.398 . S
N241 C239 1.299 . S
N241 N240 1.398 . S
N242 C238 1.367 . S
N242 C239 1.379 . S
H243 C246 0.980 . S
H244 C246 0.981 . S
H245 C246 0.981 . S
C246 C238 1.481 . S
C246 H243 0.980 . S
C246 H244 0.981 . S
C246 H245 0.981 . S
C247 C234 1.481 . S
C247 H248 0.980 . S
C247 H249 0.981 . S
C247 H250 0.981 1_556 S
H248 C247 0.980 . S
H249 C247 0.981 . S
H250 C247 0.981 1_554 S
O251 Zn227 2.066 1_554 S
O251 C230 1.256 . S
O252 Zn224 2.053 1_554 S
O252 C230 1.244 . S
C253 O231 1.259 . S
C253 O232 1.254 . S
O254 Zn224 2.066 . S
O254 C226 1.256 . S
O255 C226 1.244 . S
O255 Zn227 2.053 . S
Zn256 O257 2.055 . S
Zn256 O264 2.046 . S
Zn256 N272 2.036 . S
Zn256 O284 2.053 . S
Zn256 O286 2.066 . S
O257 Zn256 2.055 . S
O257 C260 1.259 . S
C258 O286 1.256 . S
C258 O287 1.244 . S
Zn259 O261 2.046 . S
Zn259 O263 2.055 . S
Zn259 N265 2.036 . S
Zn259 O283 2.066 . S
Zn259 O287 2.053 . S
C260 O257 1.259 . S
C260 O261 1.254 . S
O261 Zn259 2.046 . S
O261 C260 1.254 . S
C262 O283 1.256 . S
C262 O284 1.244 . S
O263 Zn259 2.055 . S
O263 C285 1.259 . S
O264 Zn256 2.046 . S
O264 C285 1.254 . S
N265 Zn259 2.036 . S
N265 C266 1.298 . S
N265 N268 1.398 . S
C266 N265 1.298 . S
C266 N269 1.367 . S
C266 C279 1.481 . S
C267 N268 1.299 . S
C267 N269 1.379 . S
N268 N265 1.398 . S
N268 C267 1.299 . S
N269 C266 1.367 . S
N269 C267 1.379 . S
C270 N272 1.298 . S
C270 N274 1.367 . S
C270 C278 1.481 . S
C271 N273 1.299 . S
C271 N274 1.379 . S
N272 Zn256 2.036 . S
N272 C270 1.298 . S
N272 N273 1.398 . S
N273 C271 1.299 . S
N273 N272 1.398 . S
N274 C270 1.367 . S
N274 C271 1.379 . S
H275 C278 0.980 . S
H276 C278 0.981 . S
H277 C278 0.981 . S
C278 C270 1.481 . S
C278 H275 0.980 . S
C278 H276 0.981 . S
C278 H277 0.981 . S
C279 C266 1.481 . S
C279 H280 0.980 . S
C279 H281 0.981 . S
C279 H282 0.981 . S
H280 C279 0.980 . S
H281 C279 0.981 . S
H282 C279 0.981 . S
O283 Zn259 2.066 . S
O283 C262 1.256 . S
O284 Zn256 2.053 . S
O284 C262 1.244 . S
C285 O263 1.259 . S
C285 O264 1.254 . S
O286 Zn256 2.066 . S
O286 C258 1.256 . S
O287 C258 1.244 . S
O287 Zn259 2.053 . S
Zn288 O289 2.055 . S
Zn288 O296 2.046 . S
Zn288 N304 2.036 . S
Zn288 O316 2.053 . S
Zn288 O318 2.066 . S
O289 Zn288 2.055 . S
O289 C292 1.259 . S
C290 O318 1.256 . S
C290 O319 1.244 . S
Zn291 O293 2.046 . S
Zn291 O295 2.055 . S
Zn291 N297 2.036 . S
Zn291 O315 2.066 . S
Zn291 O319 2.053 . S
C292 O289 1.259 . S
C292 O293 1.254 . S
O293 Zn291 2.046 . S
O293 C292 1.254 . S
C294 O315 1.256 . S
C294 O316 1.244 . S
O295 Zn291 2.055 . S
O295 C317 1.259 . S
O296 Zn288 2.046 . S
O296 C317 1.254 . S
N297 Zn291 2.036 . S
N297 C298 1.298 . S
N297 N300 1.398 . S
C298 N297 1.298 . S
C298 N301 1.367 . S
C298 C311 1.481 . S
C299 N300 1.299 . S
C299 N301 1.379 . S
N300 N297 1.398 . S
N300 C299 1.299 . S
N301 C298 1.367 . S
N301 C299 1.379 . S
C302 N304 1.298 . S
C302 N306 1.367 . S
C302 C310 1.481 . S
C303 N305 1.299 . S
C303 N306 1.379 . S
N304 Zn288 2.036 . S
N304 C302 1.298 . S
N304 N305 1.398 . S
N305 C303 1.299 . S
N305 N304 1.398 . S
N306 C302 1.367 . S
N306 C303 1.379 . S
H307 C310 0.980 . S
H308 C310 0.981 . S
H309 C310 0.981 . S
C310 C302 1.481 . S
C310 H307 0.980 . S
C310 H308 0.981 . S
C310 H309 0.981 . S
C311 C298 1.481 . S
C311 H312 0.980 . S
C311 H313 0.981 . S
C311 H314 0.981 . S
H312 C311 0.980 . S
H313 C311 0.981 . S
H314 C311 0.981 . S
O315 Zn291 2.066 . S
O315 C294 1.256 . S
O316 Zn288 2.053 . S
O316 C294 1.244 . S
C317 O295 1.259 . S
C317 O296 1.254 . S
O318 Zn288 2.066 . S
O318 C290 1.256 . S
O319 C290 1.244 . S
O319 Zn291 2.053 . S
Zn320 O321 2.055 . S
Zn320 O328 2.046 . S
Zn320 N336 2.036 . S
Zn320 O348 2.053 . S
Zn320 O350 2.066 . S
O321 Zn320 2.055 . S
O321 C324 1.259 . S
C322 O350 1.256 . S
C322 O351 1.244 . S
Zn323 O325 2.046 . S
Zn323 O327 2.055 . S
Zn323 N329 2.036 . S
Zn323 O347 2.066 . S
Zn323 O351 2.053 . S
C324 O321 1.259 . S
C324 O325 1.254 . S
O325 Zn323 2.046 . S
O325 C324 1.254 . S
C326 O347 1.256 . S
C326 O348 1.244 . S
O327 Zn323 2.055 . S
O327 C349 1.259 . S
O328 Zn320 2.046 . S
O328 C349 1.254 . S
N329 Zn323 2.036 . S
N329 C330 1.298 . S
N329 N332 1.398 . S
C330 N329 1.298 . S
C330 N333 1.367 . S
C330 C343 1.481 . S
C331 N332 1.299 . S
C331 N333 1.379 . S
N332 N329 1.398 . S
N332 C331 1.299 . S
N333 C330 1.367 . S
N333 C331 1.379 . S
C334 N336 1.298 . S
C334 N338 1.367 . S
C334 C342 1.481 . S
C335 N337 1.299 . S
C335 N338 1.379 . S
N336 Zn320 2.036 . S
N336 C334 1.298 . S
N336 N337 1.398 . S
N337 C335 1.299 . S
N337 N336 1.398 . S
N338 C334 1.367 . S
N338 C335 1.379 . S
H339 C342 0.980 . S
H340 C342 0.981 . S
H341 C342 0.981 . S
C342 C334 1.481 . S
C342 H339 0.980 . S
C342 H340 0.981 . S
C342 H341 0.981 . S
C343 C330 1.481 . S
C343 H344 0.980 . S
C343 H345 0.981 . S
C343 H346 0.981 . S
H344 C343 0.980 . S
H345 C343 0.981 . S
H346 C343 0.981 . S
O347 Zn323 2.066 . S
O347 C326 1.256 . S
O348 Zn320 2.053 . S
O348 C326 1.244 . S
C349 O327 1.259 . S
C349 O328 1.254 . S
O350 Zn320 2.066 . S
O350 C322 1.256 . S
O351 C322 1.244 . S
O351 Zn323 2.053 . S
Zn352 O353 2.055 . S
Zn352 O360 2.046 . S
Zn352 N368 2.036 . S
Zn352 O380 2.053 . S
Zn352 O382 2.066 . S
O353 Zn352 2.055 . S
O353 C356 1.259 . S
C354 O382 1.256 . S
C354 O383 1.244 . S
Zn355 O357 2.046 . S
Zn355 O359 2.055 . S
Zn355 N361 2.036 . S
Zn355 O379 2.066 . S
Zn355 O383 2.053 . S
C356 O353 1.259 . S
C356 O357 1.254 . S
O357 Zn355 2.046 . S
O357 C356 1.254 . S
C358 O379 1.256 . S
C358 O380 1.244 . S
O359 Zn355 2.055 . S
O359 C381 1.259 . S
O360 Zn352 2.046 . S
O360 C381 1.254 . S
N361 Zn355 2.036 . S
N361 C362 1.298 . S
N361 N364 1.398 . S
C362 N361 1.298 . S
C362 N365 1.367 . S
C362 C375 1.481 . S
C363 N364 1.299 . S
C363 N365 1.379 . S
N364 N361 1.398 . S
N364 C363 1.299 . S
N365 C362 1.367 . S
N365 C363 1.379 . S
C366 N368 1.298 . S
C366 N370 1.367 . S
C366 C374 1.481 . S
C367 N369 1.299 . S
C367 N370 1.379 . S
N368 Zn352 2.036 . S
N368 C366 1.298 . S
N368 N369 1.398 . S
N369 C367 1.299 . S
N369 N368 1.398 . S
N370 C366 1.367 . S
N370 C367 1.379 . S
H371 C374 0.980 . S
H372 C374 0.981 . S
H373 C374 0.981 . S
C374 C366 1.481 . S
C374 H371 0.980 . S
C374 H372 0.981 . S
C374 H373 0.981 . S
C375 C362 1.481 . S
C375 H376 0.980 . S
C375 H377 0.981 . S
C375 H378 0.981 . S
H376 C375 0.980 . S
H377 C375 0.981 . S
H378 C375 0.981 . S
O379 Zn355 2.066 . S
O379 C358 1.256 . S
O380 Zn352 2.053 . S
O380 C358 1.244 . S
C381 O359 1.259 . S
C381 O360 1.254 . S
O382 Zn352 2.066 . S
O382 C354 1.256 . S
O383 C354 1.244 . S
O383 Zn355 2.053 . S
Zn384 O385 2.055 . S
Zn384 O392 2.046 . S
Zn384 N400 2.036 . S
Zn384 O412 2.053 . S
Zn384 O414 2.066 . S
O385 Zn384 2.055 . S
O385 C388 1.259 . S
C386 O414 1.256 . S
C386 O415 1.244 . S
Zn387 O389 2.046 . S
Zn387 O391 2.055 . S
Zn387 N393 2.036 . S
Zn387 O411 2.066 . S
Zn387 O415 2.053 . S
C388 O385 1.259 . S
C388 O389 1.254 . S
O389 Zn387 2.046 . S
O389 C388 1.254 . S
C390 O411 1.256 . S
C390 O412 1.244 . S
O391 Zn387 2.055 . S
O391 C413 1.259 . S
O392 Zn384 2.046 . S
O392 C413 1.254 . S
N393 Zn387 2.036 . S
N393 C394 1.298 . S
N393 N396 1.398 . S
C394 N393 1.298 . S
C394 N397 1.367 . S
C394 C407 1.481 . S
C395 N396 1.299 . S
C395 N397 1.379 . S
N396 N393 1.398 . S
N396 C395 1.299 . S
N397 C394 1.367 . S
N397 C395 1.379 . S
C398 N400 1.298 . S
C398 N402 1.367 . S
C398 C406 1.481 . S
C399 N401 1.299 . S
C399 N402 1.379 . S
N400 Zn384 2.036 . S
N400 C398 1.298 . S
N400 N401 1.398 . S
N401 C399 1.299 . S
N401 N400 1.398 . S
N402 C398 1.367 . S
N402 C399 1.379 . S
H403 C406 0.980 . S
H404 C406 0.981 . S
H405 C406 0.981 . S
C406 C398 1.481 . S
C406 H403 0.980 . S
C406 H404 0.981 . S
C406 H405 0.981 . S
C407 C394 1.481 . S
C407 H408 0.980 . S
C407 H409 0.981 . S
C407 H410 0.981 . S
H408 C407 0.980 . S
H409 C407 0.981 . S
H410 C407 0.981 . S
O411 Zn387 2.066 . S
O411 C390 1.256 . S
O412 Zn384 2.053 . S
O412 C390 1.244 . S
C413 O391 1.259 . S
C413 O392 1.254 . S
O414 Zn384 2.066 . S
O414 C386 1.256 . S
O415 C386 1.244 . S
O415 Zn387 2.053 . S
Zn416 O417 2.055 . S
Zn416 O424 2.046 . S
Zn416 N432 2.036 . S
Zn416 O444 2.053 . S
Zn416 O446 2.066 . S
O417 Zn416 2.055 . S
O417 C420 1.259 . S
C418 O446 1.256 . S
C418 O447 1.244 . S
Zn419 O421 2.046 . S
Zn419 O423 2.055 . S
Zn419 N425 2.036 . S
Zn419 O443 2.066 . S
Zn419 O447 2.053 . S
C420 O417 1.259 . S
C420 O421 1.254 . S
O421 Zn419 2.046 . S
O421 C420 1.254 . S
C422 O443 1.256 . S
C422 O444 1.244 . S
O423 Zn419 2.055 . S
O423 C445 1.259 . S
O424 Zn416 2.046 . S
O424 C445 1.254 . S
N425 Zn419 2.036 . S
N425 C426 1.298 . S
N425 N428 1.398 . S
C426 N425 1.298 . S
C426 N429 1.367 . S
C426 C439 1.481 . S
C427 N428 1.299 . S
C427 N429 1.379 . S
N428 N425 1.398 . S
N428 C427 1.299 . S
N429 C426 1.367 . S
N429 C427 1.379 . S
C430 N432 1.298 . S
C430 N434 1.367 . S
C430 C438 1.481 . S
C431 N433 1.299 . S
C431 N434 1.379 . S
N432 Zn416 2.036 . S
N432 C430 1.298 . S
N432 N433 1.398 . S
N433 C431 1.299 . S
N433 N432 1.398 . S
N434 C430 1.367 . S
N434 C431 1.379 . S
H435 C438 0.980 . S
H436 C438 0.981 . S
H437 C438 0.981 . S
C438 C430 1.481 . S
C438 H435 0.980 . S
C438 H436 0.981 . S
C438 H437 0.981 . S
C439 C426 1.481 . S
C439 H440 0.980 . S
C439 H441 0.981 . S
C439 H442 0.981 . S
H440 C439 0.980 . S
H441 C439 0.981 . S
H442 C439 0.981 . S
O443 Zn419 2.066 . S
O443 C422 1.256 . S
O444 Zn416 2.053 . S
O444 C422 1.244 . S
C445 O423 1.259 . S
C445 O424 1.254 . S
O446 Zn416 2.066 . S
O446 C418 1.256 . S
O447 C418 1.244 . S
O447 Zn419 2.053 . S
Zn448 O449 2.055 . S
Zn448 O456 2.046 . S
Zn448 N464 2.036 . S
Zn448 O476 2.053 . S
Zn448 O478 2.066 . S
O449 Zn448 2.055 . S
O449 C452 1.259 . S
C450 O478 1.256 . S
C450 O479 1.244 . S
Zn451 O453 2.046 . S
Zn451 O455 2.055 . S
Zn451 N457 2.036 . S
Zn451 O475 2.066 . S
Zn451 O479 2.053 . S
C452 O449 1.259 . S
C452 O453 1.254 . S
O453 Zn451 2.046 . S
O453 C452 1.254 . S
C454 O475 1.256 . S
C454 O476 1.244 . S
O455 Zn451 2.055 . S
O455 C477 1.259 . S
O456 Zn448 2.046 . S
O456 C477 1.254 . S
N457 Zn451 2.036 . S
N457 C458 1.298 . S
N457 N460 1.398 . S
C458 N457 1.298 . S
C458 N461 1.367 . S
C458 C471 1.481 . S
C459 N460 1.299 . S
C459 N461 1.379 . S
N460 N457 1.398 . S
N460 C459 1.299 . S
N461 C458 1.367 . S
N461 C459 1.379 . S
C462 N464 1.298 . S
C462 N466 1.367 . S
C462 C470 1.481 . S
C463 N465 1.299 . S
C463 N466 1.379 . S
N464 Zn448 2.036 . S
N464 C462 1.298 . S
N464 N465 1.398 . S
N465 C463 1.299 . S
N465 N464 1.398 . S
N466 C462 1.367 . S
N466 C463 1.379 . S
H467 C470 0.980 . S
H468 C470 0.981 . S
H469 C470 0.981 . S
C470 C462 1.481 . S
C470 H467 0.980 . S
C470 H468 0.981 . S
C470 H469 0.981 . S
C471 C458 1.481 . S
C471 H472 0.980 . S
C471 H473 0.981 . S
C471 H474 0.981 . S
H472 C471 0.980 . S
H473 C471 0.981 . S
H474 C471 0.981 . S
O475 Zn451 2.066 . S
O475 C454 1.256 . S
O476 Zn448 2.053 . S
O476 C454 1.244 . S
C477 O455 1.259 . S
C477 O456 1.254 . S
O478 Zn448 2.066 . S
O478 C450 1.256 . S
O479 C450 1.244 . S
O479 Zn451 2.053 . S
Zn480 O481 2.055 . S
Zn480 O488 2.046 . S
Zn480 N496 2.036 . S
Zn480 O508 2.053 . S
Zn480 O510 2.066 . S
O481 Zn480 2.055 . S
O481 C484 1.259 . S
C482 O510 1.256 . S
C482 O511 1.244 . S
Zn483 O485 2.046 . S
Zn483 O487 2.055 . S
Zn483 N489 2.036 . S
Zn483 O507 2.066 . S
Zn483 O511 2.053 . S
C484 O481 1.259 . S
C484 O485 1.254 . S
O485 Zn483 2.046 . S
O485 C484 1.254 . S
C486 O507 1.256 . S
C486 O508 1.244 . S
O487 Zn483 2.055 . S
O487 C509 1.259 . S
O488 Zn480 2.046 . S
O488 C509 1.254 . S
N489 Zn483 2.036 . S
N489 C490 1.298 . S
N489 N492 1.398 . S
C490 N489 1.298 . S
C490 N493 1.367 . S
C490 C503 1.481 . S
C491 N492 1.299 . S
C491 N493 1.379 . S
N492 N489 1.398 . S
N492 C491 1.299 . S
N493 C490 1.367 . S
N493 C491 1.379 . S
C494 N496 1.298 . S
C494 N498 1.367 . S
C494 C502 1.481 . S
C495 N497 1.299 . S
C495 N498 1.379 . S
N496 Zn480 2.036 . S
N496 C494 1.298 . S
N496 N497 1.398 . S
N497 C495 1.299 . S
N497 N496 1.398 . S
N498 C494 1.367 . S
N498 C495 1.379 . S
H499 C502 0.980 . S
H500 C502 0.981 . S
H501 C502 0.981 . S
C502 C494 1.481 . S
C502 H499 0.980 . S
C502 H500 0.981 . S
C502 H501 0.981 . S
C503 C490 1.481 . S
C503 H504 0.980 . S
C503 H505 0.981 . S
C503 H506 0.981 . S
H504 C503 0.980 . S
H505 C503 0.981 . S
H506 C503 0.981 . S
O507 Zn483 2.066 . S
O507 C486 1.256 . S
O508 Zn480 2.053 . S
O508 C486 1.244 . S
C509 O487 1.259 . S
C509 O488 1.254 . S
O510 Zn480 2.066 . S
O510 C482 1.256 . S
O511 C482 1.244 . S
O511 Zn483 2.053 . S
H512 C518 0.930 . S
H513 C522 0.930 1_545 S
H514 C527 0.929 . S
H515 C525 0.929 1_545 S
H516 C520 0.929 . S
H517 C526 0.929 . S
C518 H512 0.930 . S
C518 C519 1.367 . S
C518 C526 1.378 . S
C519 C518 1.367 . S
C519 C527 1.433 . S
C520 H516 0.929 . S
C520 C522 1.378 . S
C520 C524 1.350 . S
C521 C524 1.463 . S
C521 C526 1.350 . S
C521 N529 1.427 . S
C522 H513 0.930 1_565 S
C522 C520 1.378 . S
C522 C523 1.367 1_565 S
C523 C522 1.367 1_545 S
C523 C525 1.433 1_545 S
C524 C520 1.350 . S
C524 C521 1.463 . S
C524 N528 1.427 . S
C525 H515 0.929 1_565 S
C525 C523 1.433 1_565 S
C525 N528 1.384 . S
C526 H517 0.929 . S
C526 C518 1.378 . S
C526 C521 1.350 . S
C527 H514 0.929 . S
C527 C519 1.433 . S
C527 N529 1.384 . S
N528 C524 1.427 . S
N528 C525 1.384 . S
N529 C521 1.427 . S
N529 C527 1.384 . S
H530 C536 0.930 . S
H531 C540 0.930 . S
H532 C545 0.929 . S
H533 C543 0.929 . S
H534 C538 0.929 . S
H535 C544 0.929 . S
C536 H530 0.930 . S
C536 C537 1.367 . S
C536 C544 1.378 . S
C537 C536 1.367 . S
C537 C545 1.433 . S
C538 H534 0.929 . S
C538 C540 1.378 . S
C538 C542 1.350 . S
C539 C542 1.463 . S
C539 C544 1.350 . S
C539 N547 1.427 . S
C540 H531 0.930 . S
C540 C538 1.378 . S
C540 C541 1.367 1_655 S
C541 C540 1.367 1_455 S
C541 C543 1.433 . S
C542 C538 1.350 . S
C542 C539 1.463 . S
C542 N546 1.427 . S
C543 H533 0.929 . S
C543 C541 1.433 . S
C543 N546 1.384 1_455 S
C544 H535 0.929 . S
C544 C536 1.378 . S
C544 C539 1.350 . S
C545 H532 0.929 . S
C545 C537 1.433 . S
C545 N547 1.384 . S
N546 C542 1.427 . S
N546 C543 1.384 1_655 S
N547 C539 1.427 . S
N547 C545 1.384 . S
H548 C554 0.930 1_565 S
H549 C558 0.930 . S
H550 C563 0.929 1_565 S
H551 C561 0.929 . S
H552 C556 0.929 . S
H553 C562 0.929 . S
C554 H548 0.930 1_545 S
C554 C555 1.367 1_545 S
C554 C562 1.378 . S
C555 C554 1.367 1_565 S
C555 C563 1.433 1_565 S
C556 H552 0.929 . S
C556 C558 1.378 . S
C556 C560 1.350 . S
C557 C560 1.463 . S
C557 C562 1.350 . S
C557 N565 1.427 . S
C558 H549 0.930 . S
C558 C556 1.378 . S
C558 C559 1.367 . S
C559 C558 1.367 . S
C559 C561 1.433 . S
C560 C556 1.350 . S
C560 C557 1.463 . S
C560 N564 1.427 . S
C561 H551 0.929 . S
C561 C559 1.433 . S
C561 N564 1.384 . S
C562 H553 0.929 . S
C562 C554 1.378 . S
C562 C557 1.350 . S
C563 H550 0.929 1_545 S
C563 C555 1.433 1_545 S
C563 N565 1.384 . S
N564 C560 1.427 . S
N564 C561 1.384 . S
N565 C557 1.427 . S
N565 C563 1.384 . S
H566 C572 0.930 1_655 S
H567 C576 0.930 . S
H568 C581 0.929 1_655 S
H569 C579 0.929 . S
H570 C574 0.929 . S
H571 C580 0.929 . S
C572 H566 0.930 1_455 S
C572 C573 1.367 1_455 S
C572 C580 1.378 . S
C573 C572 1.367 1_655 S
C573 C581 1.433 1_655 S
C574 H570 0.929 . S
C574 C576 1.378 . S
C574 C578 1.350 . S
C575 C578 1.463 . S
C575 C580 1.350 . S
C575 N583 1.427 . S
C576 H567 0.930 . S
C576 C574 1.378 . S
C576 C577 1.367 . S
C577 C576 1.367 . S
C577 C579 1.433 . S
C578 C574 1.350 . S
C578 C575 1.463 . S
C578 N582 1.427 . S
C579 H569 0.929 . S
C579 C577 1.433 . S
C579 N582 1.384 . S
C580 H571 0.929 . S
C580 C572 1.378 . S
C580 C575 1.350 . S
C581 H568 0.929 1_455 S
C581 C573 1.433 1_455 S
C581 N583 1.384 . S
N582 C578 1.427 . S
N582 C579 1.384 . S
N583 C575 1.427 . S
N583 C581 1.384 . S
H584 C590 0.931 . S
H585 C594 0.930 . S
H586 C599 0.929 . S
H587 C597 0.929 . S
H588 C592 0.929 1_554 S
H589 C598 0.929 . S
C590 H584 0.931 . S
C590 C591 1.367 . S
C590 C598 1.378 1_554 S
C591 C590 1.367 . S
C591 C599 1.433 . S
C592 H588 0.929 1_556 S
C592 C594 1.378 . S
C592 C596 1.350 . S
C593 C596 1.463 . S
C593 C598 1.350 . S
C593 N601 1.427 1_556 S
C594 H585 0.930 . S
C594 C592 1.378 . S
C594 C595 1.367 . S
C595 C594 1.367 . S
C595 C597 1.433 . S
C596 C592 1.350 . S
C596 C593 1.463 . S
C596 N600 1.427 . S
C597 H587 0.929 . S
C597 C595 1.433 . S
C597 N600 1.384 . S
C598 H589 0.929 . S
C598 C590 1.378 1_556 S
C598 C593 1.350 . S
C599 H586 0.929 . S
C599 C591 1.433 . S
C599 N601 1.384 . S
N600 C596 1.427 . S
N600 C597 1.384 . S
N601 C593 1.427 1_554 S
N601 C599 1.384 . S
H602 C608 0.930 . S
H603 C612 0.930 . S
H604 C617 0.929 . S
H605 C615 0.929 . S
H606 C610 0.929 . S
H607 C616 0.929 . S
C608 H602 0.930 . S
C608 C609 1.367 1_556 S
C608 C616 1.378 . S
C609 C608 1.367 1_554 S
C609 C617 1.433 . S
C610 H606 0.929 . S
C610 C612 1.378 . S
C610 C614 1.350 . S
C611 C614 1.463 . S
C611 C616 1.350 1_554 S
C611 N619 1.427 . S
C612 H603 0.930 . S
C612 C610 1.378 . S
C612 C613 1.367 1_554 S
C613 C612 1.367 1_556 S
C613 C615 1.433 . S
C614 C610 1.350 . S
C614 C611 1.463 . S
C614 N618 1.427 1_554 S
C615 H605 0.929 . S
C615 C613 1.433 . S
C615 N618 1.384 . S
C616 H607 0.929 . S
C616 C608 1.378 . S
C616 C611 1.350 1_556 S
C617 H604 0.929 . S
C617 C609 1.433 . S
C617 N619 1.384 . S
N618 C614 1.427 1_556 S
N618 C615 1.384 . S
N619 C611 1.427 . S
N619 C617 1.384 . S
H620 C626 0.930 . S
H621 C630 0.930 . S
H622 C635 0.929 . S
H623 C633 0.929 . S
H624 C628 0.929 . S
H625 C634 0.929 . S
C626 H620 0.930 . S
C626 C627 1.367 . S
C626 C634 1.378 . S
C627 C626 1.367 . S
C627 C635 1.433 1_554 S
C628 H624 0.929 . S
C628 C630 1.378 . S
C628 C632 1.350 . S
C629 C632 1.463 1_554 S
C629 C634 1.350 . S
C629 N637 1.427 1_554 S
C630 H621 0.930 . S
C630 C628 1.378 . S
C630 C631 1.367 . S
C631 C630 1.367 . S
C631 C633 1.433 1_556 S
C632 C628 1.350 . S
C632 C629 1.463 1_556 S
C632 N636 1.427 1_556 S
C633 H623 0.929 . S
C633 C631 1.433 1_554 S
C633 N636 1.384 . S
C634 H625 0.929 . S
C634 C626 1.378 . S
C634 C629 1.350 . S
C635 H622 0.929 . S
C635 C627 1.433 1_556 S
C635 N637 1.384 . S
N636 C632 1.427 1_554 S
N636 C633 1.384 . S
N637 C629 1.427 1_556 S
N637 C635 1.384 . S
H638 C644 0.930 . S
H639 C648 0.930 . S
H640 C653 0.929 . S
H641 C651 0.929 . S
H642 C646 0.929 . S
H643 C652 0.929 . S
C644 H638 0.930 . S
C644 C645 1.367 . S
C644 C652 1.378 . S
C645 C644 1.367 . S
C645 C653 1.433 . S
C646 H642 0.929 . S
C646 C648 1.378 1_554 S
C646 C650 1.350 . S
C647 C650 1.465 . S
C647 C652 1.350 . S
C647 N655 1.427 . S
C648 H639 0.930 . S
C648 C646 1.378 1_556 S
C648 C649 1.367 . S
C649 C648 1.367 . S
C649 C651 1.433 . S
C650 C646 1.350 . S
C650 C647 1.465 . S
C650 N654 1.425 1_554 S
C651 H641 0.929 . S
C651 C649 1.433 . S
C651 N654 1.384 . S
C652 H643 0.929 . S
C652 C644 1.378 . S
C652 C647 1.350 . S
C653 H640 0.929 . S
C653 C645 1.433 . S
C653 N655 1.384 . S
N654 C650 1.425 1_556 S
N654 C651 1.384 . S
N655 C647 1.427 . S
N655 C653 1.384 . S
H656 C662 0.930 . S
H657 C666 0.930 . S
H658 C671 0.929 . S
H659 C669 0.929 . S
H660 C664 0.929 . S
H661 C670 0.929 . S
C662 H656 0.930 . S
C662 C663 1.367 . S
C662 C670 1.378 . S
C663 C662 1.367 . S
C663 C671 1.433 . S
C664 H660 0.929 . S
C664 C666 1.378 . S
C664 C668 1.350 . S
C665 C668 1.463 . S
C665 C670 1.350 . S
C665 N673 1.427 . S
C666 H657 0.930 . S
C666 C664 1.378 . S
C666 C667 1.367 . S
C667 C666 1.367 . S
C667 C669 1.433 . S
C668 C664 1.350 . S
C668 C665 1.463 . S
C668 N672 1.427 . S
C669 H659 0.929 . S
C669 C667 1.433 . S
C669 N672 1.384 . S
C670 H661 0.929 . S
C670 C662 1.378 . S
C670 C665 1.350 . S
C671 H658 0.929 . S
C671 C663 1.433 . S
C671 N673 1.384 . S
N672 C668 1.427 . S
N672 C669 1.384 . S
N673 C665 1.427 . S
N673 C671 1.384 . S
H674 C680 0.930 . S
H675 C684 0.930 . S
H676 C689 0.929 . S
H677 C687 0.929 . S
H678 C682 0.929 . S
H679 C688 0.929 . S
C680 H674 0.930 . S
C680 C681 1.367 . S
C680 C688 1.378 . S
C681 C680 1.367 . S
C681 C689 1.433 . S
C682 H678 0.929 . S
C682 C684 1.378 . S
C682 C686 1.350 . S
C683 C686 1.463 . S
C683 C688 1.350 . S
C683 N691 1.427 . S
C684 H675 0.930 . S
C684 C682 1.378 . S
C684 C685 1.367 . S
C685 C684 1.367 . S
C685 C687 1.433 . S
C686 C682 1.350 . S
C686 C683 1.463 . S
C686 N690 1.427 . S
C687 H677 0.929 . S
C687 C685 1.433 . S
C687 N690 1.384 . S
C688 H679 0.929 . S
C688 C680 1.378 . S
C688 C683 1.350 . S
C689 H676 0.929 . S
C689 C681 1.433 . S
C689 N691 1.384 . S
N690 C686 1.427 . S
N690 C687 1.384 . S
N691 C683 1.427 . S
N691 C689 1.384 . S
H692 C698 0.930 . S
H693 C702 0.930 . S
H694 C707 0.929 . S
H695 C705 0.929 . S
H696 C700 0.929 . S
H697 C706 0.929 . S
C698 H692 0.930 . S
C698 C699 1.367 . S
C698 C706 1.378 . S
C699 C698 1.367 . S
C699 C707 1.433 . S
C700 H696 0.929 . S
C700 C702 1.378 . S
C700 C704 1.350 . S
C701 C704 1.463 . S
C701 C706 1.350 . S
C701 N709 1.427 . S
C702 H693 0.930 . S
C702 C700 1.378 . S
C702 C703 1.367 . S
C703 C702 1.367 . S
C703 C705 1.433 . S
C704 C700 1.350 . S
C704 C701 1.463 . S
C704 N708 1.427 . S
C705 H695 0.929 . S
C705 C703 1.433 . S
C705 N708 1.384 . S
C706 H697 0.929 . S
C706 C698 1.378 . S
C706 C701 1.350 . S
C707 H694 0.929 . S
C707 C699 1.433 . S
C707 N709 1.384 . S
N708 C704 1.427 . S
N708 C705 1.384 . S
N709 C701 1.427 . S
N709 C707 1.384 . S
H710 C716 0.930 . S
H711 C720 0.930 . S
H712 C725 0.929 . S
H713 C723 0.929 . S
H714 C718 0.929 . S
H715 C724 0.929 . S
C716 H710 0.930 . S
C716 C717 1.367 . S
C716 C724 1.378 . S
C717 C716 1.367 . S
C717 C725 1.433 . S
C718 H714 0.929 . S
C718 C720 1.378 . S
C718 C722 1.350 . S
C719 C722 1.463 . S
C719 C724 1.350 . S
C719 N727 1.427 . S
C720 H711 0.930 . S
C720 C718 1.378 . S
C720 C721 1.367 . S
C721 C720 1.367 . S
C721 C723 1.433 . S
C722 C718 1.350 . S
C722 C719 1.463 . S
C722 N726 1.427 . S
C723 H713 0.929 . S
C723 C721 1.433 . S
C723 N726 1.384 . S
C724 H715 0.929 . S
C724 C716 1.378 . S
C724 C719 1.350 . S
C725 H712 0.929 . S
C725 C717 1.433 . S
C725 N727 1.384 . S
N726 C722 1.427 . S
N726 C723 1.384 . S
N727 C719 1.427 . S
N727 C725 1.384 . S
H728 C734 0.930 1_565 S
H729 C738 0.930 . S
H730 C743 0.929 1_565 S
H731 C741 0.929 . S
H732 C736 0.929 . S
H733 C742 0.929 . S
C734 H728 0.930 1_545 S
C734 C735 1.367 1_545 S
C734 C742 1.378 . S
C735 C734 1.367 1_565 S
C735 C743 1.433 1_565 S
C736 H732 0.929 . S
C736 C738 1.378 . S
C736 C740 1.350 . S
C737 C740 1.463 . S
C737 C742 1.350 . S
C737 N745 1.427 . S
C738 H729 0.930 . S
C738 C736 1.378 . S
C738 C739 1.367 . S
C739 C738 1.367 . S
C739 C741 1.433 . S
C740 C736 1.350 . S
C740 C737 1.463 . S
C740 N744 1.427 . S
C741 H731 0.929 . S
C741 C739 1.433 . S
C741 N744 1.384 . S
C742 H733 0.929 . S
C742 C734 1.378 . S
C742 C737 1.350 . S
C743 H730 0.929 1_545 S
C743 C735 1.433 1_545 S
C743 N745 1.384 . S
N744 C740 1.427 . S
N744 C741 1.384 . S
N745 C737 1.427 . S
N745 C743 1.384 . S
H746 C752 0.930 . S
H747 C756 0.930 1_655 S
H748 C761 0.929 . S
H749 C759 0.929 1_655 S
H750 C754 0.929 . S
H751 C760 0.929 . S
C752 H746 0.930 . S
C752 C753 1.367 . S
C752 C760 1.378 . S
C753 C752 1.367 . S
C753 C761 1.433 . S
C754 H750 0.929 . S
C754 C756 1.378 . S
C754 C758 1.350 . S
C755 C758 1.463 . S
C755 C760 1.350 . S
C755 N763 1.427 . S
C756 H747 0.930 1_455 S
C756 C754 1.378 . S
C756 C757 1.367 1_455 S
C757 C756 1.367 1_655 S
C757 C759 1.433 1_655 S
C758 C754 1.350 . S
C758 C755 1.463 . S
C758 N762 1.427 . S
C759 H749 0.929 1_455 S
C759 C757 1.433 1_455 S
C759 N762 1.384 . S
C760 H751 0.929 . S
C760 C752 1.378 . S
C760 C755 1.350 . S
C761 H748 0.929 . S
C761 C753 1.433 . S
C761 N763 1.384 . S
N762 C758 1.427 . S
N762 C759 1.384 . S
N763 C755 1.427 . S
N763 C761 1.384 . S
H764 C770 0.930 . S
H765 C774 0.930 1_545 S
H766 C779 0.929 . S
H767 C777 0.929 . S
H768 C772 0.929 . S
H769 C778 0.929 . S
C770 H764 0.930 . S
C770 C771 1.367 . S
C770 C778 1.378 . S
C771 C770 1.367 . S
C771 C779 1.433 . S
C772 H768 0.929 . S
C772 C774 1.378 . S
C772 C776 1.350 . S
C773 C776 1.463 . S
C773 C778 1.350 . S
C773 N781 1.427 . S
C774 H765 0.930 1_565 S
C774 C772 1.378 . S
C774 C775 1.367 1_565 S
C775 C774 1.367 1_545 S
C775 C777 1.433 1_545 S
C776 C772 1.350 . S
C776 C773 1.463 . S
C776 N780 1.427 . S
C777 H767 0.929 . S
C777 C775 1.433 1_565 S
C777 N780 1.384 . S
C778 H769 0.929 . S
C778 C770 1.378 . S
C778 C773 1.350 . S
C779 H766 0.929 . S
C779 C771 1.433 . S
C779 N781 1.384 . S
N780 C776 1.427 . S
N780 C777 1.384 . S
N781 C773 1.427 . S
N781 C779 1.384 . S
H782 C788 0.934 . S
H783 C792 0.930 . S
H784 C797 0.929 . S
H785 C795 0.929 . S
H786 C790 0.929 . S
H787 C796 0.929 . S
C788 H782 0.934 . S
C788 C789 1.368 . S
C788 C796 1.373 1_455 S
C789 C788 1.368 . S
C789 C797 1.433 1_455 S
C790 H786 0.929 . S
C790 C792 1.378 . S
C790 C794 1.350 . S
C791 C794 1.463 . S
C791 C796 1.350 . S
C791 N799 1.427 . S
C792 H783 0.930 . S
C792 C790 1.378 . S
C792 C793 1.367 . S
C793 C792 1.367 . S
C793 C795 1.433 . S
C794 C790 1.350 . S
C794 C791 1.463 . S
C794 N798 1.427 . S
C795 H785 0.929 . S
C795 C793 1.433 . S
C795 N798 1.384 . S
C796 H787 0.929 . S
C796 C788 1.373 1_655 S
C796 C791 1.350 . S
C797 H784 0.929 . S
C797 C789 1.433 1_655 S
C797 N799 1.384 . S
N798 C794 1.427 . S
N798 C795 1.384 . S
N799 C791 1.427 . S
N799 C797 1.384 . S
H800 C806 0.930 1_556 S
H801 C810 0.930 . S
H802 C815 0.929 . S
H803 C813 0.929 . S
H804 C808 0.929 . S
H805 C814 0.929 1_556 S
C806 H800 0.930 1_554 S
C806 C807 1.367 . S
C806 C814 1.378 . S
C807 C806 1.367 . S
C807 C815 1.433 . S
C808 H804 0.929 . S
C808 C810 1.378 . S
C808 C812 1.350 . S
C809 C812 1.463 . S
C809 C814 1.350 . S
C809 N817 1.427 . S
C810 H801 0.930 . S
C810 C808 1.378 . S
C810 C811 1.367 . S
C811 C810 1.367 . S
C811 C813 1.433 . S
C812 C808 1.350 . S
C812 C809 1.463 . S
C812 N816 1.427 . S
C813 H803 0.929 . S
C813 C811 1.433 . S
C813 N816 1.384 . S
C814 H805 0.929 1_554 S
C814 C806 1.378 . S
C814 C809 1.350 . S
C815 H802 0.929 . S
C815 C807 1.433 . S
C815 N817 1.384 . S
N816 C812 1.427 . S
N816 C813 1.384 . S
N817 C809 1.427 . S
N817 C815 1.384 . S
H818 C824 0.930 . S
H819 C828 0.930 . S
H820 C833 0.929 . S
H821 C831 0.929 . S
H822 C826 0.929 . S
H823 C832 0.929 . S
C824 H818 0.930 . S
C824 C825 1.367 . S
C824 C832 1.378 . S
C825 C824 1.367 . S
C825 C833 1.433 . S
C826 H822 0.929 . S
C826 C828 1.378 . S
C826 C830 1.350 . S
C827 C830 1.463 . S
C827 C832 1.350 . S
C827 N835 1.427 . S
C828 H819 0.930 . S
C828 C826 1.378 . S
C828 C829 1.367 . S
C829 C828 1.367 . S
C829 C831 1.433 . S
C830 C826 1.350 . S
C830 C827 1.463 . S
C830 N834 1.427 . S
C831 H821 0.929 . S
C831 C829 1.433 . S
C831 N834 1.384 . S
C832 H823 0.929 . S
C832 C824 1.378 . S
C832 C827 1.350 . S
C833 H820 0.929 . S
C833 C825 1.433 . S
C833 N835 1.384 . S
N834 C830 1.427 . S
N834 C831 1.384 . S
N835 C827 1.427 . S
N835 C833 1.384 . S
H836 C842 0.930 1_556 S
H837 C846 0.930 . S
H838 C851 0.929 . S
H839 C849 0.929 . S
H840 C844 0.929 . S
H841 C850 0.929 1_556 S
C842 H836 0.930 1_554 S
C842 C843 1.367 . S
C842 C850 1.378 . S
C843 C842 1.367 . S
C843 C851 1.433 . S
C844 H840 0.929 . S
C844 C846 1.378 . S
C844 C848 1.350 . S
C845 C848 1.463 . S
C845 C850 1.350 . S
C845 N853 1.427 . S
C846 H837 0.930 . S
C846 C844 1.378 . S
C846 C847 1.367 . S
C847 C846 1.367 . S
C847 C849 1.433 . S
C848 C844 1.350 . S
C848 C845 1.463 . S
C848 N852 1.427 . S
C849 H839 0.929 . S
C849 C847 1.433 . S
C849 N852 1.384 . S
C850 H841 0.929 1_554 S
C850 C842 1.378 . S
C850 C845 1.350 . S
C851 H838 0.929 . S
C851 C843 1.433 . S
C851 N853 1.384 . S
N852 C848 1.427 . S
N852 C849 1.384 . S
N853 C845 1.427 . S
N853 C851 1.384 . S
H854 C860 0.930 . S
H855 C864 0.930 . S
H856 C869 0.929 1_554 S
H857 C867 0.929 . S
H858 C862 0.929 1_554 S
H859 C868 0.929 . S
C860 H854 0.930 . S
C860 C861 1.367 . S
C860 C868 1.378 . S
C861 C860 1.367 . S
C861 C869 1.433 . S
C862 H858 0.929 1_556 S
C862 C864 1.378 . S
C862 C866 1.350 . S
C863 C866 1.463 . S
C863 C868 1.350 . S
C863 N871 1.427 . S
C864 H855 0.930 . S
C864 C862 1.378 . S
C864 C865 1.367 . S
C865 C864 1.367 . S
C865 C867 1.433 . S
C866 C862 1.350 . S
C866 C863 1.463 . S
C866 N870 1.427 . S
C867 H857 0.929 . S
C867 C865 1.433 . S
C867 N870 1.384 . S
C868 H859 0.929 . S
C868 C860 1.378 . S
C868 C863 1.350 . S
C869 H856 0.929 1_556 S
C869 C861 1.433 . S
C869 N871 1.384 . S
N870 C866 1.427 . S
N870 C867 1.384 . S
N871 C863 1.427 . S
N871 C869 1.384 . S
H872 C878 0.930 . S
H873 C882 0.930 . S
H874 C887 0.929 . S
H875 C885 0.929 . S
H876 C880 0.929 . S
H877 C886 0.929 . S
C878 H872 0.930 . S
C878 C879 1.367 . S
C878 C886 1.378 . S
C879 C878 1.367 . S
C879 C887 1.433 . S
C880 H876 0.929 . S
C880 C882 1.378 . S
C880 C884 1.350 . S
C881 C884 1.463 . S
C881 C886 1.350 . S
C881 N889 1.427 . S
C882 H873 0.930 . S
C882 C880 1.378 . S
C882 C883 1.367 . S
C883 C882 1.367 . S
C883 C885 1.433 . S
C884 C880 1.350 . S
C884 C881 1.463 . S
C884 N888 1.427 . S
C885 H875 0.929 . S
C885 C883 1.433 . S
C885 N888 1.384 . S
C886 H877 0.929 . S
C886 C878 1.378 . S
C886 C881 1.350 . S
C887 H874 0.929 . S
C887 C879 1.433 . S
C887 N889 1.384 . S
N888 C884 1.427 . S
N888 C885 1.384 . S
N889 C881 1.427 . S
N889 C887 1.384 . S
H890 C896 0.930 . S
H891 C900 0.930 . S
H892 C905 0.929 . S
H893 C903 0.929 . S
H894 C898 0.929 . S
H895 C904 0.929 . S
C896 H890 0.930 . S
C896 C897 1.367 . S
C896 C904 1.378 . S
C897 C896 1.367 . S
C897 C905 1.433 . S
C898 H894 0.929 . S
C898 C900 1.378 . S
C898 C902 1.350 . S
C899 C902 1.463 . S
C899 C904 1.350 . S
C899 N907 1.427 . S
C900 H891 0.930 . S
C900 C898 1.378 . S
C900 C901 1.367 . S
C901 C900 1.367 . S
C901 C903 1.433 . S
C902 C898 1.350 . S
C902 C899 1.463 . S
C902 N906 1.427 . S
C903 H893 0.929 . S
C903 C901 1.433 . S
C903 N906 1.384 . S
C904 H895 0.929 . S
C904 C896 1.378 . S
C904 C899 1.350 . S
C905 H892 0.929 . S
C905 C897 1.433 . S
C905 N907 1.384 . S
N906 C902 1.427 . S
N906 C903 1.384 . S
N907 C899 1.427 . S
N907 C905 1.384 . S
H908 C914 0.930 . S
H909 C918 0.930 . S
H910 C923 0.929 . S
H911 C921 0.929 . S
H912 C916 0.929 . S
H913 C922 0.929 . S
C914 H908 0.930 . S
C914 C915 1.367 . S
C914 C922 1.378 . S
C915 C914 1.367 . S
C915 C923 1.433 . S
C916 H912 0.929 . S
C916 C918 1.378 . S
C916 C920 1.350 . S
C917 C920 1.463 . S
C917 C922 1.350 . S
C917 N925 1.427 . S
C918 H909 0.930 . S
C918 C916 1.378 . S
C918 C919 1.367 . S
C919 C918 1.367 . S
C919 C921 1.433 . S
C920 C916 1.350 . S
C920 C917 1.463 . S
C920 N924 1.427 . S
C921 H911 0.929 . S
C921 C919 1.433 . S
C921 N924 1.384 . S
C922 H913 0.929 . S
C922 C914 1.378 . S
C922 C917 1.350 . S
C923 H910 0.929 . S
C923 C915 1.433 . S
C923 N925 1.384 . S
N924 C920 1.427 . S
N924 C921 1.384 . S
N925 C917 1.427 . S
N925 C923 1.384 . S
H926 C932 0.930 . S
H927 C936 0.930 . S
H928 C941 0.929 . S
H929 C939 0.929 . S
H930 C934 0.929 . S
H931 C940 0.929 . S
C932 H926 0.930 . S
C932 C933 1.367 . S
C932 C940 1.378 . S
C933 C932 1.367 . S
C933 C941 1.433 . S
C934 H930 0.929 . S
C934 C936 1.378 . S
C934 C938 1.350 . S
C935 C938 1.463 . S
C935 C940 1.350 . S
C935 N943 1.427 . S
C936 H927 0.930 . S
C936 C934 1.378 . S
C936 C937 1.367 . S
C937 C936 1.367 . S
C937 C939 1.433 . S
C938 C934 1.350 . S
C938 C935 1.463 . S
C938 N942 1.427 . S
C939 H929 0.929 . S
C939 C937 1.433 . S
C939 N942 1.384 . S
C940 H931 0.929 . S
C940 C932 1.378 . S
C940 C935 1.350 . S
C941 H928 0.929 . S
C941 C933 1.433 . S
C941 N943 1.384 . S
N942 C938 1.427 . S
N942 C939 1.384 . S
N943 C935 1.427 . S
N943 C941 1.384 . S
H944 C950 0.930 . S
H945 C954 0.930 . S
H946 C959 0.929 . S
H947 C957 0.929 . S
H948 C952 0.929 . S
H949 C958 0.929 . S
C950 H944 0.930 . S
C950 C951 1.367 . S
C950 C958 1.378 . S
C951 C950 1.367 . S
C951 C959 1.433 . S
C952 H948 0.929 . S
C952 C954 1.378 . S
C952 C956 1.350 . S
C953 C956 1.463 . S
C953 C958 1.350 . S
C953 N961 1.427 . S
C954 H945 0.930 . S
C954 C952 1.378 . S
C954 C955 1.367 1_556 S
C955 C954 1.367 1_554 S
C955 C957 1.433 . S
C956 C952 1.350 . S
C956 C953 1.463 . S
C956 N960 1.427 . S
C957 H947 0.929 . S
C957 C955 1.433 . S
C957 N960 1.384 1_554 S
C958 H949 0.929 . S
C958 C950 1.378 . S
C958 C953 1.350 . S
C959 H946 0.929 . S
C959 C951 1.433 . S
C959 N961 1.384 . S
N960 C956 1.427 . S
N960 C957 1.384 1_556 S
N961 C953 1.427 . S
N961 C959 1.384 . S
H962 C968 0.930 . S
H963 C972 0.930 . S
H964 C977 0.929 . S
H965 C975 0.929 . S
H966 C970 0.929 . S
H967 C976 0.929 1_556 S
C968 H962 0.930 . S
C968 C969 1.367 . S
C968 C976 1.378 1_556 S
C969 C968 1.367 . S
C969 C977 1.433 1_556 S
C970 H966 0.929 . S
C970 C972 1.378 . S
C970 C974 1.350 . S
C971 C974 1.463 . S
C971 C976 1.350 . S
C971 N979 1.427 . S
C972 H963 0.930 . S
C972 C970 1.378 . S
C972 C973 1.367 . S
C973 C972 1.367 . S
C973 C975 1.433 . S
C974 C970 1.350 . S
C974 C971 1.463 . S
C974 N978 1.427 . S
C975 H965 0.929 . S
C975 C973 1.433 . S
C975 N978 1.384 . S
C976 H967 0.929 1_554 S
C976 C968 1.378 1_554 S
C976 C971 1.350 . S
C977 H964 0.929 . S
C977 C969 1.433 1_554 S
C977 N979 1.384 . S
N978 C974 1.427 . S
N978 C975 1.384 . S
N979 C971 1.427 . S
N979 C977 1.384 . S
H980 C986 0.930 . S
H981 C990 0.930 . S
H982 C995 0.929 . S
H983 C993 0.929 . S
H984 C988 0.929 . S
H985 C994 0.929 . S
C986 H980 0.930 . S
C986 C987 1.367 1_556 S
C986 C994 1.378 . S
C987 C986 1.367 1_554 S
C987 C995 1.433 . S
C988 H984 0.929 . S
C988 C990 1.378 . S
C988 C992 1.350 . S
C989 C992 1.463 . S
C989 C994 1.350 . S
C989 N997 1.427 . S
C990 H981 0.930 . S
C990 C988 1.378 . S
C990 C991 1.367 . S
C991 C990 1.367 . S
C991 C993 1.433 . S
C992 C988 1.350 . S
C992 C989 1.463 . S
C992 N996 1.427 . S
C993 H983 0.929 . S
C993 C991 1.433 . S
C993 N996 1.384 . S
C994 H985 0.929 . S
C994 C986 1.378 . S
C994 C989 1.350 . S
C995 H982 0.929 . S
C995 C987 1.433 . S
C995 N997 1.384 1_554 S
N996 C992 1.427 . S
N996 C993 1.384 . S
N997 C989 1.427 . S
N997 C995 1.384 1_556 S
H998 C1004 0.930 . S
H999 C1008 0.930 . S
H1000 C1013 0.929 . S
H1001 C1011 0.929 . S
H1002 C1006 0.929 . S
H1003 C1012 0.929 . S
C1004 H998 0.930 . S
C1004 C1005 1.367 1_554 S
C1004 C1012 1.378 . S
C1005 C1004 1.367 1_556 S
C1005 C1013 1.433 . S
C1006 H1002 0.929 . S
C1006 C1008 1.378 . S
C1006 C1010 1.350 . S
C1007 C1010 1.463 . S
C1007 C1012 1.350 . S
C1007 N1015 1.427 . S
C1008 H999 0.930 . S
C1008 C1006 1.378 . S
C1008 C1009 1.367 . S
C1009 C1008 1.367 . S
C1009 C1011 1.433 . S
C1010 C1006 1.350 . S
C1010 C1007 1.463 . S
C1010 N1014 1.427 . S
C1011 H1001 0.929 . S
C1011 C1009 1.433 . S
C1011 N1014 1.384 . S
C1012 H1003 0.929 . S
C1012 C1004 1.378 . S
C1012 C1007 1.350 . S
C1013 H1000 0.929 . S
C1013 C1005 1.433 . S
C1013 N1015 1.384 1_556 S
N1014 C1010 1.427 . S
N1014 C1011 1.384 . S
N1015 C1007 1.427 . S
N1015 C1013 1.384 1_554 S
H1016 C1022 0.930 . S
H1017 C1026 0.930 . S
H1018 C1031 0.929 . S
H1019 C1029 0.929 . S
H1020 C1024 0.929 . S
H1021 C1030 0.929 . S
C1022 H1016 0.930 . S
C1022 C1023 1.367 . S
C1022 C1030 1.378 . S
C1023 C1022 1.367 . S
C1023 C1031 1.433 . S
C1024 H1020 0.929 . S
C1024 C1026 1.378 . S
C1024 C1028 1.350 . S
C1025 C1028 1.463 . S
C1025 C1030 1.350 . S
C1025 N1033 1.427 . S
C1026 H1017 0.930 . S
C1026 C1024 1.378 . S
C1026 C1027 1.367 . S
C1027 C1026 1.367 . S
C1027 C1029 1.433 . S
C1028 C1024 1.350 . S
C1028 C1025 1.463 . S
C1028 N1032 1.427 . S
C1029 H1019 0.929 . S
C1029 C1027 1.433 . S
C1029 N1032 1.384 . S
C1030 H1021 0.929 . S
C1030 C1022 1.378 . S
C1030 C1025 1.350 . S
C1031 H1018 0.929 . S
C1031 C1023 1.433 . S
C1031 N1033 1.384 . S
N1032 C1028 1.427 . S
N1032 C1029 1.384 . S
N1033 C1025 1.427 . S
N1033 C1031 1.384 . S
H1034 C1040 0.930 . S
H1035 C1044 0.930 . S
H1036 C1049 0.929 . S
H1037 C1047 0.929 . S
H1038 C1042 0.929 . S
H1039 C1048 0.929 . S
C1040 H1034 0.930 . S
C1040 C1041 1.367 . S
C1040 C1048 1.378 . S
C1041 C1040 1.367 . S
C1041 C1049 1.433 . S
C1042 H1038 0.929 . S
C1042 C1044 1.378 . S
C1042 C1046 1.350 . S
C1043 C1046 1.463 . S
C1043 C1048 1.350 . S
C1043 N1051 1.427 . S
C1044 H1035 0.930 . S
C1044 C1042 1.378 . S
C1044 C1045 1.367 . S
C1045 C1044 1.367 . S
C1045 C1047 1.433 . S
C1046 C1042 1.350 . S
C1046 C1043 1.463 . S
C1046 N1050 1.427 . S
C1047 H1037 0.929 . S
C1047 C1045 1.433 . S
C1047 N1050 1.384 . S
C1048 H1039 0.929 . S
C1048 C1040 1.378 . S
C1048 C1043 1.350 . S
C1049 H1036 0.929 . S
C1049 C1041 1.433 . S
C1049 N1051 1.384 . S
N1050 C1046 1.427 . S
N1050 C1047 1.384 . S
N1051 C1043 1.427 . S
N1051 C1049 1.384 . S
H1052 C1058 0.930 . S
H1053 C1062 0.930 . S
H1054 C1067 0.929 . S
H1055 C1065 0.929 . S
H1056 C1060 0.929 . S
H1057 C1066 0.929 . S
C1058 H1052 0.930 . S
C1058 C1059 1.367 . S
C1058 C1066 1.378 . S
C1059 C1058 1.367 . S
C1059 C1067 1.433 . S
C1060 H1056 0.929 . S
C1060 C1062 1.378 . S
C1060 C1064 1.350 . S
C1061 C1064 1.463 . S
C1061 C1066 1.350 . S
C1061 N1069 1.427 . S
C1062 H1053 0.930 . S
C1062 C1060 1.378 . S
C1062 C1063 1.367 . S
C1063 C1062 1.367 . S
C1063 C1065 1.433 . S
C1064 C1060 1.350 . S
C1064 C1061 1.463 . S
C1064 N1068 1.427 . S
C1065 H1055 0.929 . S
C1065 C1063 1.433 . S
C1065 N1068 1.384 . S
C1066 H1057 0.929 . S
C1066 C1058 1.378 . S
C1066 C1061 1.350 . S
C1067 H1054 0.929 . S
C1067 C1059 1.433 . S
C1067 N1069 1.384 . S
N1068 C1064 1.427 . S
N1068 C1065 1.384 . S
N1069 C1061 1.427 . S
N1069 C1067 1.384 . S
H1070 C1076 0.930 . S
H1071 C1080 0.930 . S
H1072 C1085 0.929 . S
H1073 C1083 0.929 . S
H1074 C1078 0.929 . S
H1075 C1084 0.929 . S
C1076 H1070 0.930 . S
C1076 C1077 1.367 . S
C1076 C1084 1.378 . S
C1077 C1076 1.367 . S
C1077 C1085 1.433 . S
C1078 H1074 0.929 . S
C1078 C1080 1.378 . S
C1078 C1082 1.350 . S
C1079 C1082 1.463 . S
C1079 C1084 1.350 . S
C1079 N1087 1.427 . S
C1080 H1071 0.930 . S
C1080 C1078 1.378 . S
C1080 C1081 1.367 . S
C1081 C1080 1.367 . S
C1081 C1083 1.433 . S
C1082 C1078 1.350 . S
C1082 C1079 1.463 . S
C1082 N1086 1.427 . S
C1083 H1073 0.929 . S
C1083 C1081 1.433 . S
C1083 N1086 1.384 . S
C1084 H1075 0.929 . S
C1084 C1076 1.378 . S
C1084 C1079 1.350 . S
C1085 H1072 0.929 . S
C1085 C1077 1.433 . S
C1085 N1087 1.384 . S
N1086 C1082 1.427 . S
N1086 C1083 1.384 . S
N1087 C1079 1.427 . S
N1087 C1085 1.384 . S
H1088 C1094 0.930 . S
H1089 C1098 0.930 . S
H1090 C1103 0.929 . S
H1091 C1101 0.929 . S
H1092 C1096 0.929 . S
H1093 C1102 0.929 . S
C1094 H1088 0.930 . S
C1094 C1095 1.367 . S
C1094 C1102 1.378 . S
C1095 C1094 1.367 . S
C1095 C1103 1.433 . S
C1096 H1092 0.929 . S
C1096 C1098 1.378 . S
C1096 C1100 1.350 . S
C1097 C1100 1.463 . S
C1097 C1102 1.350 . S
C1097 N1105 1.427 . S
C1098 H1089 0.930 . S
C1098 C1096 1.378 . S
C1098 C1099 1.367 . S
C1099 C1098 1.367 . S
C1099 C1101 1.433 . S
C1100 C1096 1.350 . S
C1100 C1097 1.463 . S
C1100 N1104 1.427 . S
C1101 H1091 0.929 . S
C1101 C1099 1.433 . S
C1101 N1104 1.384 . S
C1102 H1093 0.929 . S
C1102 C1094 1.378 . S
C1102 C1097 1.350 . S
C1103 H1090 0.929 . S
C1103 C1095 1.433 . S
C1103 N1105 1.384 . S
N1104 C1100 1.427 . S
N1104 C1101 1.384 . S
N1105 C1097 1.427 . S
N1105 C1103 1.384 . S
H1106 C1112 0.930 . S
H1107 C1116 0.930 . S
H1108 C1121 0.929 . S
H1109 C1119 0.929 . S
H1110 C1114 0.929 . S
H1111 C1120 0.929 . S
C1112 H1106 0.930 . S
C1112 C1113 1.367 . S
C1112 C1120 1.378 . S
C1113 C1112 1.367 . S
C1113 C1121 1.433 . S
C1114 H1110 0.929 . S
C1114 C1116 1.378 . S
C1114 C1118 1.350 . S
C1115 C1118 1.463 . S
C1115 C1120 1.350 . S
C1115 N1123 1.427 . S
C1116 H1107 0.930 . S
C1116 C1114 1.378 . S
C1116 C1117 1.367 . S
C1117 C1116 1.367 . S
C1117 C1119 1.433 . S
C1118 C1114 1.350 . S
C1118 C1115 1.463 . S
C1118 N1122 1.427 . S
C1119 H1109 0.929 . S
C1119 C1117 1.433 . S
C1119 N1122 1.384 . S
C1120 H1111 0.929 . S
C1120 C1112 1.378 . S
C1120 C1115 1.350 . S
C1121 H1108 0.929 . S
C1121 C1113 1.433 . S
C1121 N1123 1.384 . S
N1122 C1118 1.427 . S
N1122 C1119 1.384 . S
N1123 C1115 1.427 . S
N1123 C1121 1.384 . S
H1124 C1130 0.930 . S
H1125 C1134 0.930 . S
H1126 C1139 0.929 . S
H1127 C1137 0.929 . S
H1128 C1132 0.929 . S
H1129 C1138 0.929 . S
C1130 H1124 0.930 . S
C1130 C1131 1.367 . S
C1130 C1138 1.378 . S
C1131 C1130 1.367 . S
C1131 C1139 1.433 . S
C1132 H1128 0.929 . S
C1132 C1134 1.378 . S
C1132 C1136 1.350 . S
C1133 C1136 1.463 . S
C1133 C1138 1.350 . S
C1133 N1141 1.427 . S
C1134 H1125 0.930 . S
C1134 C1132 1.378 . S
C1134 C1135 1.367 . S
C1135 C1134 1.367 . S
C1135 C1137 1.433 . S
C1136 C1132 1.350 . S
C1136 C1133 1.463 . S
C1136 N1140 1.427 . S
C1137 H1127 0.929 . S
C1137 C1135 1.433 . S
C1137 N1140 1.384 . S
C1138 H1129 0.929 . S
C1138 C1130 1.378 . S
C1138 C1133 1.350 . S
C1139 H1126 0.929 . S
C1139 C1131 1.433 . S
C1139 N1141 1.384 . S
N1140 C1136 1.427 . S
N1140 C1137 1.384 . S
N1141 C1133 1.427 . S
N1141 C1139 1.384 . S
H1142 C1148 0.930 . S
H1143 C1152 0.930 . S
H1144 C1157 0.929 . S
H1145 C1155 0.929 . S
H1146 C1150 0.929 . S
H1147 C1156 0.929 . S
C1148 H1142 0.930 . S
C1148 C1149 1.367 . S
C1148 C1156 1.378 . S
C1149 C1148 1.367 . S
C1149 C1157 1.433 . S
C1150 H1146 0.929 . S
C1150 C1152 1.378 . S
C1150 C1154 1.350 . S
C1151 C1154 1.463 . S
C1151 C1156 1.350 . S
C1151 N1159 1.427 . S
C1152 H1143 0.930 . S
C1152 C1150 1.378 . S
C1152 C1153 1.367 . S
C1153 C1152 1.367 . S
C1153 C1155 1.433 . S
C1154 C1150 1.350 . S
C1154 C1151 1.463 . S
C1154 N1158 1.427 . S
C1155 H1145 0.929 . S
C1155 C1153 1.433 . S
C1155 N1158 1.384 . S
C1156 H1147 0.929 . S
C1156 C1148 1.378 . S
C1156 C1151 1.350 . S
C1157 H1144 0.929 . S
C1157 C1149 1.433 . S
C1157 N1159 1.384 . S
N1158 C1154 1.427 . S
N1158 C1155 1.384 . S
N1159 C1151 1.427 . S
N1159 C1157 1.384 . S
H1160 C1166 0.930 . S
H1161 C1170 0.930 . S
H1162 C1175 0.929 . S
H1163 C1173 0.929 . S
H1164 C1168 0.929 . S
H1165 C1174 0.929 . S
C1166 H1160 0.930 . S
C1166 C1167 1.367 . S
C1166 C1174 1.378 . S
C1167 C1166 1.367 . S
C1167 C1175 1.433 . S
C1168 H1164 0.929 . S
C1168 C1170 1.378 . S
C1168 C1172 1.350 . S
C1169 C1172 1.463 . S
C1169 C1174 1.350 . S
C1169 N1177 1.427 . S
C1170 H1161 0.930 . S
C1170 C1168 1.378 . S
C1170 C1171 1.367 . S
C1171 C1170 1.367 . S
C1171 C1173 1.433 . S
C1172 C1168 1.350 . S
C1172 C1169 1.463 . S
C1172 N1176 1.427 . S
C1173 H1163 0.929 . S
C1173 C1171 1.433 . S
C1173 N1176 1.384 . S
C1174 H1165 0.929 . S
C1174 C1166 1.378 . S
C1174 C1169 1.350 . S
C1175 H1162 0.929 . S
C1175 C1167 1.433 . S
C1175 N1177 1.384 . S
N1176 C1172 1.427 . S
N1176 C1173 1.384 . S
N1177 C1169 1.427 . S
N1177 C1175 1.384 . S
H1178 C1184 0.930 . S
H1179 C1188 0.930 . S
H1180 C1193 0.929 . S
H1181 C1191 0.929 . S
H1182 C1186 0.929 . S
H1183 C1192 0.929 . S
C1184 H1178 0.930 . S
C1184 C1185 1.367 . S
C1184 C1192 1.378 . S
C1185 C1184 1.367 . S
C1185 C1193 1.433 . S
C1186 H1182 0.929 . S
C1186 C1188 1.378 . S
C1186 C1190 1.350 . S
C1187 C1190 1.463 . S
C1187 C1192 1.350 . S
C1187 N1195 1.427 . S
C1188 H1179 0.930 . S
C1188 C1186 1.378 . S
C1188 C1189 1.367 . S
C1189 C1188 1.367 . S
C1189 C1191 1.433 . S
C1190 C1186 1.350 . S
C1190 C1187 1.463 . S
C1190 N1194 1.427 . S
C1191 H1181 0.929 . S
C1191 C1189 1.433 . S
C1191 N1194 1.384 . S
C1192 H1183 0.929 . S
C1192 C1184 1.378 . S
C1192 C1187 1.350 . S
C1193 H1180 0.929 . S
C1193 C1185 1.433 . S
C1193 N1195 1.384 . S
N1194 C1190 1.427 . S
N1194 C1191 1.384 . S
N1195 C1187 1.427 . S
N1195 C1193 1.384 . S
H1196 C1202 0.930 . S
H1197 C1206 0.930 . S
H1198 C1211 0.929 . S
H1199 C1209 0.929 . S
H1200 C1204 0.929 . S
H1201 C1210 0.929 . S
C1202 H1196 0.930 . S
C1202 C1203 1.367 . S
C1202 C1210 1.378 . S
C1203 C1202 1.367 . S
C1203 C1211 1.433 . S
C1204 H1200 0.929 . S
C1204 C1206 1.378 . S
C1204 C1208 1.350 . S
C1205 C1208 1.463 . S
C1205 C1210 1.350 . S
C1205 N1213 1.427 . S
C1206 H1197 0.930 . S
C1206 C1204 1.378 . S
C1206 C1207 1.367 . S
C1207 C1206 1.367 . S
C1207 C1209 1.433 . S
C1208 C1204 1.350 . S
C1208 C1205 1.463 . S
C1208 N1212 1.427 . S
C1209 H1199 0.929 . S
C1209 C1207 1.433 . S
C1209 N1212 1.384 . S
C1210 H1201 0.929 . S
C1210 C1202 1.378 . S
C1210 C1205 1.350 . S
C1211 H1198 0.929 . S
C1211 C1203 1.433 . S
C1211 N1213 1.384 . S
N1212 C1208 1.427 . S
N1212 C1209 1.384 . S
N1213 C1205 1.427 . S
N1213 C1211 1.384 . S
H1214 C1220 0.930 . S
H1215 C1224 0.930 . S
H1216 C1229 0.929 . S
H1217 C1227 0.929 . S
H1218 C1222 0.929 . S
H1219 C1228 0.929 . S
C1220 H1214 0.930 . S
C1220 C1221 1.367 . S
C1220 C1228 1.378 . S
C1221 C1220 1.367 . S
C1221 C1229 1.433 . S
C1222 H1218 0.929 . S
C1222 C1224 1.378 . S
C1222 C1226 1.350 . S
C1223 C1226 1.463 . S
C1223 C1228 1.350 . S
C1223 N1231 1.427 . S
C1224 H1215 0.930 . S
C1224 C1222 1.378 . S
C1224 C1225 1.367 . S
C1225 C1224 1.367 . S
C1225 C1227 1.433 . S
C1226 C1222 1.350 . S
C1226 C1223 1.463 . S
C1226 N1230 1.427 . S
C1227 H1217 0.929 . S
C1227 C1225 1.433 . S
C1227 N1230 1.384 . S
C1228 H1219 0.929 . S
C1228 C1220 1.378 . S
C1228 C1223 1.350 . S
C1229 H1216 0.929 . S
C1229 C1221 1.433 . S
C1229 N1231 1.384 . S
N1230 C1226 1.427 . S
N1230 C1227 1.384 . S
N1231 C1223 1.427 . S
N1231 C1229 1.384 . S
H1232 C1238 0.930 . S
H1233 C1242 0.930 . S
H1234 C1247 0.929 . S
H1235 C1245 0.929 . S
H1236 C1240 0.929 . S
H1237 C1246 0.929 . S
C1238 H1232 0.930 . S
C1238 C1239 1.367 . S
C1238 C1246 1.378 1_556 S
C1239 C1238 1.367 . S
C1239 C1247 1.433 . S
C1240 H1236 0.929 . S
C1240 C1242 1.378 . S
C1240 C1244 1.350 . S
C1241 C1244 1.463 . S
C1241 C1246 1.350 . S
C1241 N1249 1.427 . S
C1242 H1233 0.930 . S
C1242 C1240 1.378 . S
C1242 C1243 1.367 . S
C1243 C1242 1.367 . S
C1243 C1245 1.433 . S
C1244 C1240 1.350 . S
C1244 C1241 1.463 . S
C1244 N1248 1.427 . S
C1245 H1235 0.929 . S
C1245 C1243 1.433 . S
C1245 N1248 1.384 . S
C1246 H1237 0.929 . S
C1246 C1238 1.378 1_554 S
C1246 C1241 1.350 . S
C1247 H1234 0.929 . S
C1247 C1239 1.433 . S
C1247 N1249 1.384 1_556 S
N1248 C1244 1.427 . S
N1248 C1245 1.384 . S
N1249 C1241 1.427 . S
N1249 C1247 1.384 1_554 S
H1250 C1256 0.930 . S
H1251 C1260 0.930 . S
H1252 C1265 0.929 . S
H1253 C1263 0.929 . S
H1254 C1258 0.929 . S
H1255 C1264 0.929 . S
C1256 H1250 0.930 . S
C1256 C1257 1.367 . S
C1256 C1264 1.378 . S
C1257 C1256 1.367 . S
C1257 C1265 1.433 . S
C1258 H1254 0.929 . S
C1258 C1260 1.378 1_556 S
C1258 C1262 1.350 . S
C1259 C1262 1.463 . S
C1259 C1264 1.350 . S
C1259 N1267 1.427 . S
C1260 H1251 0.930 . S
C1260 C1258 1.378 1_554 S
C1260 C1261 1.367 . S
C1261 C1260 1.367 . S
C1261 C1263 1.433 . S
C1262 C1258 1.350 . S
C1262 C1259 1.463 . S
C1262 N1266 1.427 . S
C1263 H1253 0.929 . S
C1263 C1261 1.433 . S
C1263 N1266 1.384 1_554 S
C1264 H1255 0.929 . S
C1264 C1256 1.378 . S
C1264 C1259 1.350 . S
C1265 H1252 0.929 . S
C1265 C1257 1.433 . S
C1265 N1267 1.384 . S
N1266 C1262 1.427 . S
N1266 C1263 1.384 1_556 S
N1267 C1259 1.427 . S
N1267 C1265 1.384 . S
H1268 C1274 0.930 . S
H1269 C1278 0.930 . S
H1270 C1283 0.929 . S
H1271 C1281 0.929 . S
H1272 C1276 0.929 . S
H1273 C1282 0.929 . S
C1274 H1268 0.930 . S
C1274 C1275 1.367 . S
C1274 C1282 1.378 . S
C1275 C1274 1.367 . S
C1275 C1283 1.433 . S
C1276 H1272 0.929 . S
C1276 C1278 1.378 1_554 S
C1276 C1280 1.350 . S
C1277 C1280 1.463 . S
C1277 C1282 1.350 . S
C1277 N1285 1.427 . S
C1278 H1269 0.930 . S
C1278 C1276 1.378 1_556 S
C1278 C1279 1.367 . S
C1279 C1278 1.367 . S
C1279 C1281 1.433 . S
C1280 C1276 1.350 . S
C1280 C1277 1.463 . S
C1280 N1284 1.427 . S
C1281 H1271 0.929 . S
C1281 C1279 1.433 . S
C1281 N1284 1.384 1_556 S
C1282 H1273 0.929 . S
C1282 C1274 1.378 . S
C1282 C1277 1.350 . S
C1283 H1270 0.929 . S
C1283 C1275 1.433 . S
C1283 N1285 1.384 . S
N1284 C1280 1.427 . S
N1284 C1281 1.384 1_554 S
N1285 C1277 1.427 . S
N1285 C1283 1.384 . S
H1286 C1292 0.930 . S
H1287 C1296 0.930 . S
H1288 C1301 0.929 . S
H1289 C1299 0.929 . S
H1290 C1294 0.929 . S
H1291 C1300 0.929 . S
C1292 H1286 0.930 . S
C1292 C1293 1.367 . S
C1292 C1300 1.378 1_554 S
C1293 C1292 1.367 . S
C1293 C1301 1.433 . S
C1294 H1290 0.929 . S
C1294 C1296 1.378 . S
C1294 C1298 1.350 . S
C1295 C1298 1.463 . S
C1295 C1300 1.350 . S
C1295 N1303 1.427 . S
C1296 H1287 0.930 . S
C1296 C1294 1.378 . S
C1296 C1297 1.367 . S
C1297 C1296 1.367 . S
C1297 C1299 1.433 . S
C1298 C1294 1.350 . S
C1298 C1295 1.463 . S
C1298 N1302 1.427 . S
C1299 H1289 0.929 . S
C1299 C1297 1.433 . S
C1299 N1302 1.384 . S
C1300 H1291 0.929 . S
C1300 C1292 1.378 1_556 S
C1300 C1295 1.350 . S
C1301 H1288 0.929 . S
C1301 C1293 1.433 . S
C1301 N1303 1.384 1_554 S
N1302 C1298 1.427 . S
N1302 C1299 1.384 . S
N1303 C1295 1.427 . S
N1303 C1301 1.384 1_556 S
H1304 C1310 0.930 . S
H1305 C1314 0.930 . S
H1306 C1319 0.929 . S
H1307 C1317 0.929 . S
H1308 C1312 0.929 . S
H1309 C1318 0.929 . S
C1310 H1304 0.930 . S
C1310 C1311 1.367 . S
C1310 C1318 1.378 . S
C1311 C1310 1.367 . S
C1311 C1319 1.433 . S
C1312 H1308 0.929 . S
C1312 C1314 1.378 1_554 S
C1312 C1316 1.350 . S
C1313 C1316 1.463 . S
C1313 C1318 1.350 . S
C1313 N1321 1.427 . S
C1314 H1305 0.930 . S
C1314 C1312 1.378 1_556 S
C1314 C1315 1.367 . S
C1315 C1314 1.367 . S
C1315 C1317 1.433 . S
C1316 C1312 1.350 . S
C1316 C1313 1.463 . S
C1316 N1320 1.427 . S
C1317 H1307 0.929 . S
C1317 C1315 1.433 . S
C1317 N1320 1.384 1_556 S
C1318 H1309 0.929 . S
C1318 C1310 1.378 . S
C1318 C1313 1.350 . S
C1319 H1306 0.929 . S
C1319 C1311 1.433 . S
C1319 N1321 1.384 . S
N1320 C1316 1.427 . S
N1320 C1317 1.384 1_554 S
N1321 C1313 1.427 . S
N1321 C1319 1.384 . S
H1322 C1328 0.930 . S
H1323 C1332 0.930 . S
H1324 C1337 0.929 . S
H1325 C1335 0.929 . S
H1326 C1330 0.929 . S
H1327 C1336 0.929 . S
C1328 H1322 0.930 . S
C1328 C1329 1.367 . S
C1328 C1336 1.378 1_554 S
C1329 C1328 1.367 . S
C1329 C1337 1.433 . S
C1330 H1326 0.929 . S
C1330 C1332 1.378 . S
C1330 C1334 1.350 . S
C1331 C1334 1.463 . S
C1331 C1336 1.350 . S
C1331 N1339 1.427 . S
C1332 H1323 0.930 . S
C1332 C1330 1.378 . S
C1332 C1333 1.367 . S
C1333 C1332 1.367 . S
C1333 C1335 1.433 . S
C1334 C1330 1.350 . S
C1334 C1331 1.463 . S
C1334 N1338 1.427 . S
C1335 H1325 0.929 . S
C1335 C1333 1.433 . S
C1335 N1338 1.384 . S
C1336 H1327 0.929 . S
C1336 C1328 1.378 1_556 S
C1336 C1331 1.350 . S
C1337 H1324 0.929 . S
C1337 C1329 1.433 . S
C1337 N1339 1.384 1_554 S
N1338 C1334 1.427 . S
N1338 C1335 1.384 . S
N1339 C1331 1.427 . S
N1339 C1337 1.384 1_556 S
H1340 C1346 0.930 . S
H1341 C1350 0.930 . S
H1342 C1355 0.929 . S
H1343 C1353 0.929 . S
H1344 C1348 0.929 . S
H1345 C1354 0.929 . S
C1346 H1340 0.930 . S
C1346 C1347 1.367 . S
C1346 C1354 1.378 1_556 S
C1347 C1346 1.367 . S
C1347 C1355 1.433 . S
C1348 H1344 0.929 . S
C1348 C1350 1.378 . S
C1348 C1352 1.350 . S
C1349 C1352 1.463 . S
C1349 C1354 1.350 . S
C1349 N1357 1.427 . S
C1350 H1341 0.930 . S
C1350 C1348 1.378 . S
C1350 C1351 1.367 . S
C1351 C1350 1.367 . S
C1351 C1353 1.433 . S
C1352 C1348 1.350 . S
C1352 C1349 1.463 . S
C1352 N1356 1.427 . S
C1353 H1343 0.929 . S
C1353 C1351 1.433 . S
C1353 N1356 1.384 . S
C1354 H1345 0.929 . S
C1354 C1346 1.378 1_554 S
C1354 C1349 1.350 . S
C1355 H1342 0.929 . S
C1355 C1347 1.433 . S
C1355 N1357 1.384 1_556 S
N1356 C1352 1.427 . S
N1356 C1353 1.384 . S
N1357 C1349 1.427 . S
N1357 C1355 1.384 1_554 S
H1358 C1364 0.930 . S
H1359 C1368 0.930 . S
H1360 C1373 0.929 . S
H1361 C1371 0.929 . S
H1362 C1366 0.929 . S
H1363 C1372 0.929 . S
C1364 H1358 0.930 . S
C1364 C1365 1.367 . S
C1364 C1372 1.378 . S
C1365 C1364 1.367 . S
C1365 C1373 1.433 . S
C1366 H1362 0.929 . S
C1366 C1368 1.378 1_556 S
C1366 C1370 1.350 . S
C1367 C1370 1.463 . S
C1367 C1372 1.350 . S
C1367 N1375 1.427 . S
C1368 H1359 0.930 . S
C1368 C1366 1.378 1_554 S
C1368 C1369 1.367 . S
C1369 C1368 1.367 . S
C1369 C1371 1.433 . S
C1370 C1366 1.350 . S
C1370 C1367 1.463 . S
C1370 N1374 1.427 . S
C1371 H1361 0.929 . S
C1371 C1369 1.433 . S
C1371 N1374 1.384 1_554 S
C1372 H1363 0.929 . S
C1372 C1364 1.378 . S
C1372 C1367 1.350 . S
C1373 H1360 0.929 . S
C1373 C1365 1.433 . S
C1373 N1375 1.384 . S
N1374 C1370 1.427 . S
N1374 C1371 1.384 1_556 S
N1375 C1367 1.427 . S
N1375 C1373 1.384 . S
C519 C381 1.576 . S
C523 N13 1.571 . S
C537 C285 1.582 . S
C541 N45 1.571 . S
C555 N82 1.570 . S
C559 C317 1.576 . S
C573 N114 1.577 . S
C577 C324 1.584 . S
C591 N141 1.574 . S
C595 C164 1.584 . S
C609 C221 1.583 . S
C613 N178 1.578 . S
C627 N205 1.569 . S
C631 C253 1.577 . S
C645 C157 1.583 . S
C649 N237 1.573 . S
C663 C100 1.582 . S
C667 N269 1.578 . S
C681 N301 1.573 . S
C685 C29 1.583 . S
C699 C61 1.578 . S
C703 N338 1.569 . S
C717 C68 1.576 . S
C721 N365 1.573 . S
C735 N402 1.570 . S
C739 C445 1.576 . S
C753 C477 1.576 . S
C757 N429 1.571 . S
C771 C484 1.583 . S
C775 N461 1.578 . S
C789 N498 1.578 . S
C793 C388 1.582 . S
C807 N18 1.177 . S
C811 N146 1.177 . S
C825 N173 1.162 . S
C829 N50 1.178 . S
C843 N77 1.180 . S
C847 N210 1.173 . S
C861 N109 1.163 . S
C865 N242 1.158 . S
C879 N274 1.180 . S
C883 N397 1.172 . S
C897 N434 1.179 . S
C901 N306 1.164 . S
C915 N333 1.180 . S
C919 N466 1.167 . S
C933 N370 1.168 . S
C937 N493 1.180 . S
C951 C450 2.199 . S
C955 C2 2.199 . S
C969 C34 2.204 . S
C973 C486 2.203 . S
C987 C70 2.199 . S
C991 C390 2.199 . S
C1005 C102 2.199 . S
C1009 C418 2.199 . S
C1023 C130 2.198 . S
C1027 C326 2.198 . S
C1041 C166 2.202 . S
C1045 C354 2.201 . S
C1059 C194 2.203 . S
C1063 C258 2.204 . S
C1077 C290 2.198 . S
C1081 C226 2.199 . S
C1095 C6 1.050 . S
C1099 C4 1.052 . S
C1113 C38 1.050 . S
C1117 C36 1.053 . S
C1131 C66 1.051 . S
C1135 C93 1.053 . S
C1149 C125 1.052 . S
C1153 C98 1.053 . S
C1167 C132 1.052 . S
C1171 C134 1.051 . S
C1185 C162 1.049 . S
C1189 C189 1.052 . S
C1203 C198 1.052 . S
C1207 C196 1.053 . S
C1221 C228 1.052 . S
C1225 C230 1.053 . S
C1239 C262 1.049 . S
C1243 C260 1.052 . S
C1257 C292 1.052 . S
C1261 C294 1.050 . S
C1275 C349 1.052 . S
C1279 C322 1.053 . S
C1293 C358 1.050 . S
C1297 C356 1.052 . S
C1311 C386 1.049 . S
C1315 C413 1.052 . S
C1329 C420 1.052 . S
C1333 C422 1.050 . S
C1347 C452 1.052 . S
C1351 C454 1.049 . S
C1365 C482 1.049 . S
C1369 C509 1.053 . S
