# Generated by pormake.
# Topology snl, (6)-cn, num edge types: 1
# Building blocks:
#     Node 0, Type 0, BuildingBlock: KUMJIN_clean_sbu_0, # of connection points: 6
#     Node 1, Type 0, BuildingBlock: KUMJIN_clean_sbu_0, # of connection points: 6
#     Node 2, Type 0, BuildingBlock: KUMJIN_clean_sbu_0, # of connection points: 6
#     Node 3, Type 0, BuildingBlock: KUMJIN_clean_sbu_0, # of connection points: 6
#     Node 4, Type 0, BuildingBlock: KUMJIN_clean_sbu_0, # of connection points: 6
#     Node 5, Type 0, BuildingBlock: KUMJIN_clean_sbu_0, # of connection points: 6
#     Node 6, Type 0, BuildingBlock: KUMJIN_clean_sbu_0, # of connection points: 6
#     Node 7, Type 0, BuildingBlock: KUMJIN_clean_sbu_0, # of connection points: 6
#     Node 8, Type 0, BuildingBlock: KUMJIN_clean_sbu_0, # of connection points: 6
#     Node 9, Type 0, BuildingBlock: KUMJIN_clean_sbu_0, # of connection points: 6
#     Node 10, Type 0, BuildingBlock: KUMJIN_clean_sbu_0, # of connection points: 6
#     Node 11, Type 0, BuildingBlock: KUMJIN_clean_sbu_0, # of connection points: 6
#     Node 12, Type 0, BuildingBlock: KUMJIN_clean_sbu_0, # of connection points: 6
#     Node 13, Type 0, BuildingBlock: KUMJIN_clean_sbu_0, # of connection points: 6
#     Node 14, Type 0, BuildingBlock: KUMJIN_clean_sbu_0, # of connection points: 6
#     Node 15, Type 0, BuildingBlock: KUMJIN_clean_sbu_0, # of connection points: 6
#     Edge 16, Type (0, 0), BuildingBlock: CIFDUS_clean_linker_0, # of connection points: 2
#     Edge 17, Type (0, 0), BuildingBlock: CIFDUS_clean_linker_0, # of connection points: 2
#     Edge 18, Type (0, 0), BuildingBlock: CIFDUS_clean_linker_0, # of connection points: 2
#     Edge 19, Type (0, 0), BuildingBlock: CIFDUS_clean_linker_0, # of connection points: 2
#     Edge 20, Type (0, 0), BuildingBlock: CIFDUS_clean_linker_0, # of connection points: 2
#     Edge 21, Type (0, 0), BuildingBlock: CIFDUS_clean_linker_0, # of connection points: 2
#     Edge 22, Type (0, 0), BuildingBlock: CIFDUS_clean_linker_0, # of connection points: 2
#     Edge 23, Type (0, 0), BuildingBlock: CIFDUS_clean_linker_0, # of connection points: 2
#     Edge 24, Type (0, 0), BuildingBlock: CIFDUS_clean_linker_0, # of connection points: 2
#     Edge 25, Type (0, 0), BuildingBlock: CIFDUS_clean_linker_0, # of connection points: 2
#     Edge 26, Type (0, 0), BuildingBlock: CIFDUS_clean_linker_0, # of connection points: 2
#     Edge 27, Type (0, 0), BuildingBlock: CIFDUS_clean_linker_0, # of connection points: 2
#     Edge 28, Type (0, 0), BuildingBlock: CIFDUS_clean_linker_0, # of connection points: 2
#     Edge 29, Type (0, 0), BuildingBlock: CIFDUS_clean_linker_0, # of connection points: 2
#     Edge 30, Type (0, 0), BuildingBlock: CIFDUS_clean_linker_0, # of connection points: 2
#     Edge 31, Type (0, 0), BuildingBlock: CIFDUS_clean_linker_0, # of connection points: 2
#     Edge 32, Type (0, 0), BuildingBlock: CIFDUS_clean_linker_0, # of connection points: 2
#     Edge 33, Type (0, 0), BuildingBlock: CIFDUS_clean_linker_0, # of connection points: 2
#     Edge 34, Type (0, 0), BuildingBlock: CIFDUS_clean_linker_0, # of connection points: 2
#     Edge 35, Type (0, 0), BuildingBlock: CIFDUS_clean_linker_0, # of connection points: 2
#     Edge 36, Type (0, 0), BuildingBlock: CIFDUS_clean_linker_0, # of connection points: 2
#     Edge 37, Type (0, 0), BuildingBlock: CIFDUS_clean_linker_0, # of connection points: 2
#     Edge 38, Type (0, 0), BuildingBlock: CIFDUS_clean_linker_0, # of connection points: 2
#     Edge 39, Type (0, 0), BuildingBlock: CIFDUS_clean_linker_0, # of connection points: 2
#     Edge 40, Type (0, 0), BuildingBlock: CIFDUS_clean_linker_0, # of connection points: 2
#     Edge 41, Type (0, 0), BuildingBlock: CIFDUS_clean_linker_0, # of connection points: 2
#     Edge 42, Type (0, 0), BuildingBlock: CIFDUS_clean_linker_0, # of connection points: 2
#     Edge 43, Type (0, 0), BuildingBlock: CIFDUS_clean_linker_0, # of connection points: 2
#     Edge 44, Type (0, 0), BuildingBlock: CIFDUS_clean_linker_0, # of connection points: 2
#     Edge 45, Type (0, 0), BuildingBlock: CIFDUS_clean_linker_0, # of connection points: 2
#     Edge 46, Type (0, 0), BuildingBlock: CIFDUS_clean_linker_0, # of connection points: 2
#     Edge 47, Type (0, 0), BuildingBlock: CIFDUS_clean_linker_0, # of connection points: 2
#     Edge 48, Type (0, 0), BuildingBlock: CIFDUS_clean_linker_0, # of connection points: 2
#     Edge 49, Type (0, 0), BuildingBlock: CIFDUS_clean_linker_0, # of connection points: 2
#     Edge 50, Type (0, 0), BuildingBlock: CIFDUS_clean_linker_0, # of connection points: 2
#     Edge 51, Type (0, 0), BuildingBlock: CIFDUS_clean_linker_0, # of connection points: 2
#     Edge 52, Type (0, 0), BuildingBlock: CIFDUS_clean_linker_0, # of connection points: 2
#     Edge 53, Type (0, 0), BuildingBlock: CIFDUS_clean_linker_0, # of connection points: 2
#     Edge 54, Type (0, 0), BuildingBlock: CIFDUS_clean_linker_0, # of connection points: 2
#     Edge 55, Type (0, 0), BuildingBlock: CIFDUS_clean_linker_0, # of connection points: 2
#     Edge 56, Type (0, 0), BuildingBlock: CIFDUS_clean_linker_0, # of connection points: 2
#     Edge 57, Type (0, 0), BuildingBlock: CIFDUS_clean_linker_0, # of connection points: 2
#     Edge 58, Type (0, 0), BuildingBlock: CIFDUS_clean_linker_0, # of connection points: 2
#     Edge 59, Type (0, 0), BuildingBlock: CIFDUS_clean_linker_0, # of connection points: 2
#     Edge 60, Type (0, 0), BuildingBlock: CIFDUS_clean_linker_0, # of connection points: 2
#     Edge 61, Type (0, 0), BuildingBlock: CIFDUS_clean_linker_0, # of connection points: 2
#     Edge 62, Type (0, 0), BuildingBlock: CIFDUS_clean_linker_0, # of connection points: 2
#     Edge 63, Type (0, 0), BuildingBlock: CIFDUS_clean_linker_0, # of connection points: 2
# Relax obj value: 0.165
# Max RMSD: 0.254
# Mean RMSD: 0.245
data_MOF--net-snl--node1-KUMJIN_clean_sbu_0--edge1-CIFDUS_clean_linker_0
_symmetry_space_group_name_H-M    P1
_symmetry_Int_Tables_number       1
_symmetry_cell_setting            triclinic
loop_
_symmetry_equiv_pos_as_xyz
'x, y, z'
_cell_length_a     49.505905
_cell_length_b     49.25068
_cell_length_c     23.109095
_cell_angle_alpha  90.369219
_cell_angle_beta   90.570015
_cell_angle_gamma 90.021434
loop_
_atom_site_label
_atom_site_type_symbol
_atom_site_fract_x
_atom_site_fract_y
_atom_site_fract_z
_atom_type_partial_charge
Eu0 Eu 0.12397 0.62974 0.20407 0.0
C1 C 0.17718 0.68862 0.99212 0.0
C2 C 0.14502 0.72265 0.9605 0.0
C3 C 0.19117 0.72414 0.92596 0.0
C4 C 0.15162 0.6999 0.99469 0.0
C5 C 0.19729 0.70071 0.95782 0.0
C6 C 0.165 0.73486 0.92664 0.0
C7 C 0.22681 0.66338 0.98171 0.0
N8 N 0.18186 0.66488 0.02 0.0
C9 C 0.20583 0.65154 0.01275 0.0
C10 C 0.22258 0.68819 0.95435 0.0
Eu11 Eu 0.14328 0.64336 0.05894 0.0
N12 N 0.13276 0.68778 0.02812 0.0
C13 C 0.10716 0.69796 0.03074 0.0
C14 C 0.11868 0.73286 0.9624 0.0
C15 C 0.09982 0.72076 0.99855 0.0
H16 H 0.20863 0.63145 0.03043 0.0
H17 H 0.07945 0.72863 1.00068 0.0
H18 H 0.16043 0.75268 0.90109 0.0
H19 H 0.24591 0.65292 0.97731 0.0
H20 H 0.09201 0.68806 0.05606 0.0
H21 H 0.20267 0.57178 0.32067 0.0
H22 H 0.11285 0.75037 0.93702 0.0
H23 H 0.06058 0.60515 0.17887 0.0
H24 H 0.17632 0.61223 0.29536 0.0
H25 H 0.03862 0.56202 0.15449 0.0
H26 H 0.20635 0.73371 0.89948 0.0
H27 H 0.18765 0.52648 0.2867 0.0
H28 H 0.15189 0.49818 0.23803 0.0
H29 H 0.23858 0.69694 0.92881 0.0
H30 H 0.10698 0.49549 0.19197 0.0
N31 N 0.14869 0.5911 0.23984 0.0
C32 C 0.17034 0.59296 0.27707 0.0
C33 C 0.17642 0.54438 0.27394 0.0
C34 C 0.15238 0.54218 0.24209 0.0
C35 C 0.18501 0.56988 0.29294 0.0
C36 C 0.13854 0.56619 0.22646 0.0
H37 H 0.0644 0.51914 0.16121 0.0
N38 N 0.09978 0.5881 0.1904 0.0
C39 C 0.05989 0.56243 0.16587 0.0
C40 C 0.11327 0.56464 0.20097 0.0
C41 C 0.07275 0.58713 0.17786 0.0
C42 C 0.07443 0.5383 0.17009 0.0
C43 C 0.10119 0.5391 0.18987 0.0
O44 O 0.08767 0.6384 0.25476 0.0
O45 O 0.12667 0.66375 0.13849 0.0
O46 O 0.18202 0.65112 0.1156 0.0
O47 O 0.16982 0.63565 0.20678 0.0
O48 O 0.14232 0.6718 0.2197 0.0
O49 O 0.12623 0.63282 0.29915 0.0
O50 O 0.15002 0.61221 0.99291 0.0
O51 O 0.12973 0.60938 0.1166 0.0
O52 O 0.08592 0.64511 0.15833 0.0
O53 O 0.09689 0.63679 0.06259 0.0
O54 O 0.16743 0.60585 0.07879 0.0
O55 O 0.12469 0.64593 0.97175 0.0
C56 C 0.13791 0.68228 0.16935 0.0
C57 C 0.08711 0.6418 0.36039 0.0
C58 C 0.08795 0.64151 0.46688 0.0
C59 C 0.10129 0.63859 0.41326 0.0
C60 C 0.06023 0.64791 0.46628 0.0
C61 C 0.05953 0.64834 0.36155 0.0
C62 C 0.04627 0.65142 0.41412 0.0
C63 C 0.18823 0.64458 0.17028 0.0
C64 C 0.10054 0.63741 0.304 0.0
C65 C 0.11574 0.51524 0.2012 0.0
C66 C 0.1413 0.51677 0.22742 0.0
C67 C 0.14893 0.59272 0.10598 0.0
C68 C 0.15082 0.6267 0.89542 0.0
C69 C 0.13608 0.63203 0.84407 0.0
C70 C 0.14921 0.63258 0.78991 0.0
C71 C 0.17735 0.6287 0.78844 0.0
C72 C 0.17876 0.62193 0.89178 0.0
C73 C 0.19191 0.62339 0.83894 0.0
C74 C 0.07876 0.64148 0.10355 0.0
C75 C 0.13696 0.62456 0.95197 0.0
H76 H 0.12263 0.6338 0.41255 0.0
H77 H 0.04905 0.64966 0.50616 0.0
H78 H 0.04809 0.65085 0.32176 0.0
H79 H 0.02494 0.65623 0.41442 0.0
H80 H 0.11441 0.6349 0.84613 0.0
H81 H 0.18818 0.62972 0.74802 0.0
H82 H 0.19054 0.6166 0.92961 0.0
H83 H 0.21349 0.62002 0.83701 0.0
Eu84 Eu 0.6663 0.88429 0.46197 0.0
C85 C 0.59043 0.95608 0.30608 0.0
C86 C 0.54649 0.93472 0.2969 0.0
C87 C 0.55088 0.98334 0.28261 0.0
C88 C 0.57444 0.93306 0.30912 0.0
C89 C 0.57882 0.98146 0.29258 0.0
C90 C 0.53484 0.95997 0.2839 0.0
C91 C 0.62369 1.0007 0.29194 0.0
N92 N 0.61756 0.95334 0.31228 0.0
C93 C 0.63432 0.975 0.30351 0.0
C94 C 0.59578 1.00399 0.28678 0.0
Eu95 Eu 0.63423 0.90895 0.32931 0.0
N96 N 0.58656 0.90872 0.31865 0.0
C97 C 0.57197 0.88522 0.31462 0.0
C98 C 0.53131 0.91076 0.29519 0.0
C99 C 0.54414 0.8859 0.30384 0.0
H100 H 0.65595 0.97261 0.30671 0.0
H101 H 0.53266 0.86721 0.3016 0.0
H102 H 0.51357 0.96156 0.27311 0.0
H103 H 0.63703 0.01787 0.2863 0.0
H104 H 0.58165 0.86578 0.31991 0.0
H105 H 0.76888 0.92355 0.43827 0.0
H106 H 0.50986 0.91117 0.28556 0.0
H107 H 0.64634 0.8251 0.51569 0.0
H108 H 0.71929 0.92616 0.44345 0.0
H109 H 0.66636 0.78197 0.54901 0.0
H110 H 0.54164 1.00261 0.27173 0.0
H111 H 0.79205 0.87961 0.45299 0.0
H112 H 0.78889 0.83029 0.47935 0.0
H113 H 0.58761 0.02383 0.27666 0.0
H114 H 0.761 0.79178 0.51061 0.0
N115 N 0.71411 0.88382 0.45744 0.0
C116 C 0.72903 0.90677 0.44918 0.0
C117 C 0.7702 0.88056 0.45452 0.0
C118 C 0.7549 0.85746 0.46693 0.0
C119 C 0.75721 0.90541 0.44638 0.0
C120 C 0.72651 0.85978 0.46812 0.0
H121 H 0.71551 0.77412 0.53966 0.0
N122 N 0.68376 0.84145 0.48801 0.0
C123 C 0.67907 0.79742 0.53027 0.0
C124 C 0.71085 0.83798 0.48457 0.0
C125 C 0.66779 0.82183 0.51135 0.0
C126 C 0.70681 0.79305 0.52481 0.0
C127 C 0.7231 0.81346 0.50186 0.0
O128 O 0.6499 0.87992 0.54904 0.0
O129 O 0.62827 0.89893 0.42096 0.0
O130 O 0.632 0.94304 0.39869 0.0
O131 O 0.67 0.93027 0.45077 0.0
O132 O 0.62362 0.86787 0.47893 0.0
O133 O 0.68118 0.90954 0.5336 0.0
O134 O 0.65167 0.91829 0.24504 0.0
O135 O 0.67284 0.8921 0.36692 0.0
O136 O 0.66401 0.84753 0.40299 0.0
O137 O 0.62947 0.86201 0.34054 0.0
O138 O 0.67579 0.927 0.31902 0.0
O139 O 0.62422 0.88443 0.25275 0.0
C140 C 0.61091 0.88404 0.44458 0.0
C141 C 0.67977 0.88963 0.62658 0.0
C142 C 0.68062 0.88859 0.73259 0.0
C143 C 0.668 0.89617 0.68005 0.0
C144 C 0.70514 0.87416 0.73035 0.0
C145 C 0.70422 0.87531 0.62565 0.0
C146 C 0.71675 0.86755 0.67727 0.0
C147 C 0.6512 0.94845 0.43782 0.0
C148 C 0.66627 0.89769 0.57224 0.0
C149 C 0.75126 0.8106 0.49822 0.0
C150 C 0.76713 0.83253 0.48046 0.0
C151 C 0.68964 0.9083 0.34424 0.0
C152 C 0.62551 0.90691 0.16235 0.0
C153 C 0.63793 0.90035 0.10953 0.0
C154 C 0.62579 0.90775 0.05629 0.0
C155 C 0.60106 0.92185 0.05717 0.0
C156 C 0.60096 0.92103 0.16177 0.0
C157 C 0.58884 0.92846 0.10953 0.0
C158 C 0.64501 0.84255 0.36366 0.0
C159 C 0.63846 0.8992 0.21763 0.0
H160 H 0.64893 0.90697 0.68056 0.0
H161 H 0.71568 0.86838 0.76967 0.0
H162 H 0.71372 0.87026 0.58514 0.0
H163 H 0.73568 0.85657 0.67615 0.0
H164 H 0.6571 0.88973 0.11002 0.0
H165 H 0.59086 0.92741 0.01731 0.0
H166 H 0.59107 0.92625 0.20153 0.0
H167 H 0.56979 0.93925 0.10963 0.0
Eu168 Eu 0.38358 0.4076 0.70485 0.0
C169 C 0.33734 0.33184 0.52301 0.0
C170 C 0.37234 0.29997 0.49608 0.0
C171 C 0.32552 0.28914 0.47523 0.0
C172 C 0.36447 0.32545 0.51906 0.0
C173 C 0.31758 0.31316 0.50296 0.0
C174 C 0.35286 0.2824 0.4723 0.0
C175 C 0.2832 0.34302 0.53907 0.0
N176 N 0.33018 0.3557 0.54846 0.0
C177 C 0.30326 0.3615 0.55573 0.0
C178 C 0.29034 0.31892 0.51173 0.0
Eu179 Eu 0.36594 0.38817 0.56116 0.0
N180 N 0.38295 0.34307 0.54176 0.0
C181 C 0.40929 0.33471 0.54787 0.0
C182 C 0.39945 0.29242 0.49915 0.0
C183 C 0.41786 0.3096 0.52654 0.0
H184 H 0.29626 0.381 0.5699 0.0
H185 H 0.43872 0.30342 0.53177 0.0
H186 H 0.35864 0.26311 0.45327 0.0
H187 H 0.2621 0.34804 0.54481 0.0
H188 H 0.42401 0.34622 0.57161 0.0
H189 H 0.3221 0.49965 0.69294 0.0
H190 H 0.40618 0.27295 0.48263 0.0
H191 H 0.44611 0.40252 0.76274 0.0
H192 H 0.33077 0.45051 0.69953 0.0
H193 H 0.48467 0.43233 0.78741 0.0
H194 H 0.3106 0.27512 0.45785 0.0
H195 H 0.3604 0.53195 0.6948 0.0
H196 H 0.41015 0.53975 0.70791 0.0
H197 H 0.27468 0.30497 0.49739 0.0
H198 H 0.45482 0.52127 0.73333 0.0
N199 N 0.37338 0.45463 0.70202 0.0
C200 C 0.34756 0.46428 0.69948 0.0
C201 C 0.36427 0.51033 0.69709 0.0
C202 C 0.39059 0.5004 0.70381 0.0
C203 C 0.34261 0.49219 0.69622 0.0
C204 C 0.39455 0.47205 0.70661 0.0
H205 H 0.48226 0.48155 0.76617 0.0
N206 N 0.42238 0.43437 0.72669 0.0
C207 C 0.46687 0.44075 0.76686 0.0
C208 C 0.41986 0.46159 0.71928 0.0
C209 C 0.44494 0.42397 0.75327 0.0
C210 C 0.46544 0.46845 0.75472 0.0
C211 C 0.44158 0.4793 0.73174 0.0
O212 O 0.39507 0.39281 0.79069 0.0
O213 O 0.3696 0.37207 0.65058 0.0
O214 O 0.32926 0.40592 0.61244 0.0
O215 O 0.33985 0.39424 0.7057 0.0
O216 O 0.40195 0.36494 0.70599 0.0
O217 O 0.3592 0.41709 0.78072 0.0
O218 O 0.33647 0.40579 0.50065 0.0
O219 O 0.36953 0.42529 0.61832 0.0
O220 O 0.42342 0.40446 0.65783 0.0
O221 O 0.41302 0.39045 0.56349 0.0
O222 O 0.39185 0.4246 0.54285 0.0
O223 O 0.37427 0.3901 0.46881 0.0
C224 C 0.38555 0.35377 0.66898 0.0
C225 C 0.38224 0.42001 0.87021 0.0
C226 C 0.3785 0.42487 0.97478 0.0
C227 C 0.3719 0.41112 0.92304 0.0
C228 C 0.39571 0.44754 0.9731 0.0
C229 C 0.39886 0.44306 0.86914 0.0
C230 C 0.4057 0.45663 0.92041 0.0
C231 C 0.32165 0.40032 0.66634 0.0
C232 C 0.37535 0.40501 0.81694 0.0
C233 C 0.4382 0.50742 0.72496 0.0
C234 C 0.41275 0.51795 0.71068 0.0
C235 C 0.38415 0.43994 0.58488 0.0
C236 C 0.33785 0.39011 0.4025 0.0
C237 C 0.34946 0.3956 0.34868 0.0
C238 C 0.33825 0.3848 0.29717 0.0
C239 C 0.31522 0.36813 0.30073 0.0
C240 C 0.31431 0.37437 0.40456 0.0
C241 C 0.30326 0.3632 0.35405 0.0
C242 C 0.43075 0.39717 0.60524 0.0
C243 C 0.35112 0.4009 0.45522 0.0
H244 H 0.35889 0.3934 0.92395 0.0
H245 H 0.40094 0.45856 0.01236 0.0
H246 H 0.40647 0.45069 0.829 0.0
H247 H 0.41863 0.47435 0.91923 0.0
H248 H 0.36706 0.40868 0.34717 0.0
H249 H 0.30641 0.35882 0.26241 0.0
H250 H 0.30435 0.37071 0.4448 0.0
H251 H 0.28533 0.35068 0.35623 0.0
Eu252 Eu 0.89985 0.11668 0.81329 0.0
C253 C 0.86429 0.2015 0.9968 0.0
C254 C 0.90262 0.23175 1.0064 0.0
C255 C 0.85813 0.24789 0.03206 0.0
C256 C 0.89173 0.20586 0.99269 0.0
C257 C 0.84714 0.22272 0.01578 0.0
C258 C 0.88583 0.25238 0.02728 0.0
C259 C 0.80916 0.19304 1.00056 0.0
N260 N 0.85414 0.17708 0.97971 0.0
C261 C 0.82685 0.17261 0.98285 0.0
C262 C 0.81933 0.21822 0.01719 0.0
Eu263 Eu 0.88596 0.14173 0.95798 0.0
N264 N 0.90736 0.18577 0.97022 0.0
C265 C 0.93341 0.19187 0.95537 0.0
C266 C 0.92986 0.23673 0.99616 0.0
C267 C 0.94517 0.21686 0.96928 0.0
H268 H 0.81832 0.1528 0.9753 0.0
H269 H 0.96581 0.22108 0.95714 0.0
H270 H 0.89411 0.27211 0.03812 0.0
H271 H 0.7877 0.18904 1.00288 0.0
H272 H 0.94478 0.17888 0.9281 0.0
H273 H 0.80936 0.05253 0.79019 0.0
H274 H 0.93884 0.25635 1.00576 0.0
H275 H 0.96498 0.09419 0.7935 0.0
H276 H 0.83566 0.09411 0.78323 0.0
H277 H 0.99095 0.05206 0.80805 0.0
H278 H 0.84528 0.26419 0.04727 0.0
H279 H 0.83192 1.00923 0.81391 0.0
H280 H 0.8748 0.98401 0.83324 0.0
H281 H 0.80558 0.23399 0.03135 0.0
H282 H 0.92434 0.98411 0.83949 0.0
N283 N 0.87299 0.07623 0.81 0.0
C284 C 0.84593 0.07613 0.79717 0.0
C285 C 0.84364 0.02779 0.81233 0.0
C286 C 0.87162 0.02747 0.8206 0.0
C287 C 0.83084 0.05218 0.79935 0.0
C288 C 0.886 0.05228 0.81822 0.0
H289 H 0.96776 1.00935 0.8297 0.0
N290 N 0.92716 0.07632 0.8158 0.0
C291 C 0.9693 0.05201 0.81246 0.0
C292 C 0.91386 0.05236 0.82195 0.0
C293 C 0.95441 0.07594 0.80578 0.0
C294 C 0.95614 0.02786 0.82503 0.0
C295 C 0.92802 0.02759 0.82783 0.0
O296 O 0.92314 0.12129 0.73445 0.0
O297 O 0.8893 0.15313 0.86626 0.0
O298 O 0.84573 0.13526 0.90511 0.0
O299 O 0.85774 0.13523 0.80838 0.0
O300 O 0.91795 0.15967 0.80445 0.0
O301 O 0.87994 0.11608 0.72802 0.0
O302 O 0.85811 0.12111 0.01633 0.0
O303 O 0.88479 0.10404 0.90148 0.0
O304 O 0.94081 0.12148 0.85922 0.0
O305 O 0.93271 0.13607 0.95419 0.0
O306 O 0.90847 0.10277 0.9757 0.0
O307 O 0.89358 0.14126 0.05142 0.0
C308 C 0.90366 0.17131 0.84385 0.0
C309 C 0.90608 0.10064 0.64901 0.0
C310 C 0.89981 0.09308 0.54532 0.0
C311 C 0.89474 0.10835 0.59565 0.0
C312 C 0.9161 0.06982 0.54893 0.0
C313 C 0.92187 0.07701 0.65214 0.0
C314 C 0.92684 0.06172 0.60224 0.0
C315 C 0.83916 0.13699 0.849 0.0
C316 C 0.90243 0.11834 0.69987 0.0
C317 C 0.91374 1.00318 0.83395 0.0
C318 C 0.88557 1.00311 0.83023 0.0
C319 C 0.89803 0.08814 0.93483 0.0
C320 C 0.85742 0.13399 0.11666 0.0
C321 C 0.87014 0.12923 0.17041 0.0
C322 C 0.85695 0.13531 0.22292 0.0
C323 C 0.83108 0.1472 0.2201 0.0
C324 C 0.83084 0.14379 0.11572 0.0
C325 C 0.81806 0.15097 0.167 0.0
C326 C 0.94939 0.12837 0.9118 0.0
C327 C 0.87201 0.12718 0.0629 0.0
H328 H 0.8825 0.12657 0.59299 0.0
H329 H 0.92017 0.05774 0.51065 0.0
H330 H 0.93065 0.07057 0.69283 0.0
H331 H 0.93918 0.04362 0.60483 0.0
H332 H 0.88997 0.11996 0.17089 0.0
H333 H 0.82059 0.15336 0.25888 0.0
H334 H 0.81965 0.14554 0.07587 0.0
H335 H 0.79779 0.1592 0.16564 0.0
Eu336 Eu 0.14731 0.38751 0.94188 0.0
C337 C 0.07976 0.45475 0.75595 0.0
C338 C 0.04622 0.42654 0.70773 0.0
C339 C 0.04524 0.4754 0.69467 0.0
C340 C 0.06841 0.42941 0.74617 0.0
C341 C 0.06804 0.47809 0.73085 0.0
C342 C 0.03469 0.44963 0.68222 0.0
C343 C 0.10531 0.50446 0.7692 0.0
N344 N 0.10356 0.45631 0.78548 0.0
C345 C 0.11704 0.48056 0.78983 0.0
C346 C 0.08063 0.50324 0.73965 0.0
Eu347 Eu 0.12471 0.41419 0.8061 0.0
N348 N 0.07987 0.40742 0.77174 0.0
C349 C 0.06862 0.38226 0.76427 0.0
C350 C 0.0362 0.40048 0.69611 0.0
C351 C 0.04697 0.37836 0.72581 0.0
H352 H 0.13703 0.48139 0.80906 0.0
H353 H 0.03871 0.35824 0.71885 0.0
H354 H 0.01744 0.4478 0.65322 0.0
H355 H 0.11581 0.52363 0.77411 0.0
H356 H 0.07667 0.36474 0.78591 0.0
H357 H 0.24891 0.43128 0.95508 0.0
H358 H 0.01938 0.39739 0.66643 0.0
H359 H 0.12753 0.32404 0.9726 0.0
H360 H 0.19923 0.43216 0.94912 0.0
H361 H 0.14809 0.27851 0.98414 0.0
H362 H 0.03613 0.49305 0.67464 0.0
H363 H 0.27307 0.38742 0.9609 0.0
H364 H 0.27083 0.33653 0.9665 0.0
H365 H 0.07212 0.52162 0.72153 0.0
H366 H 0.24341 0.29495 0.97283 0.0
N367 N 0.19507 0.38915 0.95058 0.0
C368 C 0.2094 0.41285 0.95182 0.0
C369 C 0.2512 0.38765 0.95838 0.0
C370 C 0.23636 0.36347 0.95938 0.0
C371 C 0.23763 0.41245 0.95515 0.0
C372 C 0.20792 0.3649 0.95594 0.0
H373 H 0.19765 0.27332 0.97717 0.0
N374 N 0.16518 0.34372 0.95917 0.0
C375 C 0.16077 0.2961 0.97743 0.0
C376 C 0.19255 0.34146 0.95959 0.0
C377 C 0.14923 0.3218 0.97098 0.0
C378 C 0.18877 0.2932 0.97392 0.0
C379 C 0.20509 0.31607 0.96676 0.0
O380 O 0.12754 0.37652 0.02243 0.0
O381 O 0.11105 0.4036 0.89376 0.0
O382 O 0.11691 0.44647 0.87773 0.0
O383 O 0.15004 0.43402 0.94338 0.0
O384 O 0.10404 0.36968 0.94138 0.0
O385 O 0.15821 0.40783 0.02329 0.0
O386 O 0.1485 0.4304 0.73551 0.0
O387 O 0.16112 0.39716 0.85128 0.0
O388 O 0.1536 0.35387 0.87751 0.0
O389 O 0.12237 0.36627 0.80752 0.0
O390 O 0.16574 0.4344 0.81346 0.0
O391 O 0.12427 0.39433 0.72076 0.0
C392 C 0.09259 0.38722 0.90791 0.0
C393 C 0.15417 0.38068 0.10693 0.0
C394 C 0.15358 0.37433 0.21166 0.0
C395 C 0.14347 0.38704 0.16133 0.0
C396 C 0.17416 0.35476 0.2061 0.0
C397 C 0.17553 0.36216 0.10321 0.0
C398 C 0.18525 0.34903 0.15229 0.0
C399 C 0.13263 0.45216 0.92346 0.0
C400 C 0.14234 0.39273 0.05435 0.0
C401 C 0.23341 0.31438 0.96785 0.0
C402 C 0.24901 0.33806 0.96436 0.0
C403 C 0.17886 0.41439 0.83596 0.0
C404 C 0.1302 0.42431 0.64174 0.0
C405 C 0.13411 0.40958 0.59038 0.0
C406 C 0.12654 0.42076 0.53669 0.0
C407 C 0.11387 0.44628 0.53522 0.0
C408 C 0.11898 0.45045 0.63872 0.0
C409 C 0.11018 0.46103 0.5861 0.0
C410 C 0.13759 0.3475 0.83388 0.0
C411 C 0.13941 0.41295 0.69744 0.0
H412 H 0.12762 0.40213 0.16423 0.0
H413 H 0.18184 0.34385 0.2433 0.0
H414 H 0.18472 0.35774 0.0626 0.0
H415 H 0.20142 0.33435 0.14858 0.0
H416 H 0.14371 0.38981 0.59204 0.0
H417 H 0.10808 0.45546 0.49446 0.0
H418 H 0.11767 0.46311 0.67656 0.0
H419 H 0.10134 0.48112 0.58455 0.0
Eu420 Eu 0.89406 0.917 0.19249 0.0
C421 C 0.82086 0.84065 0.03977 0.0
C422 C 0.8411 0.79593 0.0358 0.0
C423 C 0.79238 0.80071 0.02746 0.0
C424 C 0.84353 0.82432 0.04293 0.0
C425 C 0.79508 0.82908 0.03068 0.0
C426 C 0.81537 0.78416 0.02991 0.0
C427 C 0.77692 0.87446 0.0225 0.0
N428 N 0.82421 0.86798 0.04189 0.0
C429 C 0.80291 0.88496 0.03101 0.0
C430 C 0.77292 0.84639 0.02308 0.0
Eu431 Eu 0.86867 0.88434 0.05885 0.0
N432 N 0.86814 0.83636 0.04799 0.0
C433 C 0.89112 0.82138 0.04099 0.0
C434 C 0.86463 0.78033 0.03219 0.0
C435 C 0.88973 0.7932 0.03355 0.0
H436 H 0.80587 0.90669 0.03079 0.0
H437 H 0.90806 0.78141 0.02933 0.0
H438 H 0.81311 0.76237 0.02523 0.0
H439 H 0.76002 0.888 0.01537 0.0
H440 H 0.91069 0.83096 0.04184 0.0
H441 H 0.83597 1.0118 0.17462 0.0
H442 H 0.86361 0.75848 0.02687 0.0
H443 H 0.95872 0.90905 0.22933 0.0
H444 H 0.84226 0.96283 0.18203 0.0
H445 H 1.00007 0.93655 0.23876 0.0
H446 H 0.77272 0.79143 0.02111 0.0
H447 H 0.87543 0.04253 0.17754 0.0
H448 H 0.9255 0.04833 0.18871 0.0
H449 H 0.75279 0.8383 0.01601 0.0
H450 H 0.97023 0.02794 0.20578 0.0
N451 N 0.88528 0.96468 0.18843 0.0
C452 C 0.85988 0.9755 0.18384 0.0
C453 C 0.87841 0.0208 0.18102 0.0
C454 C 0.90426 1.00984 0.1882 0.0
C455 C 0.85612 1.00354 0.17945 0.0
C456 C 0.90705 0.98136 0.19222 0.0
H457 H 0.99826 0.98641 0.22426 0.0
N458 N 0.93394 0.94265 0.20693 0.0
C459 C 0.9812 0.94632 0.22851 0.0
C460 C 0.93217 0.96997 0.20143 0.0
C461 C 0.95774 0.93078 0.22311 0.0
C462 C 0.98005 0.97434 0.22001 0.0
C463 C 0.95523 0.9866 0.20742 0.0
O464 O 0.90825 0.9031 0.27706 0.0
O465 O 0.88028 0.8782 0.151 0.0
O466 O 0.83465 0.88154 0.12632 0.0
O467 O 0.84797 0.9163 0.18903 0.0
O468 O 0.91239 0.87505 0.2083 0.0
O469 O 0.87065 0.92532 0.27035 0.0
O470 O 0.85932 0.90238 0.97481 0.0
O471 O 0.88541 0.9226 0.09821 0.0
O472 O 0.92919 0.91378 0.13058 0.0
O473 O 0.91513 0.87843 0.06945 0.0
O474 O 0.85228 0.92725 0.04559 0.0
O475 O 0.89267 0.87427 0.98276 0.0
C476 C 0.89617 0.86146 0.17508 0.0
C477 C 0.89523 0.92876 0.35859 0.0
C478 C 0.89818 0.92963 0.46445 0.0
C479 C 0.89084 0.91638 0.41228 0.0
C480 C 0.90984 0.95567 0.46157 0.0
C481 C 0.90677 0.95471 0.3568 0.0
C482 C 0.91399 0.96807 0.40813 0.0
C483 C 0.82969 0.89888 0.16924 0.0
C484 C 0.88821 0.91397 0.30504 0.0
C485 C 0.9527 0.01486 0.20176 0.0
C486 C 0.92725 0.02646 0.19214 0.0
C487 C 0.87056 0.94033 0.07439 0.0
C488 C 0.87001 0.87645 0.89219 0.0
C489 C 0.87565 0.88983 0.8401 0.0
C490 C 0.86781 0.87832 0.78646 0.0
C491 C 0.85412 0.85326 0.78609 0.0
C492 C 0.85638 0.85152 0.89067 0.0
C493 C 0.8485 0.84001 0.83785 0.0
C494 C 0.93438 0.89424 0.09263 0.0
C495 C 0.87806 0.88899 0.94768 0.0
H496 H 0.88156 0.89645 0.41322 0.0
H497 H 0.91618 0.96632 0.50052 0.0
H498 H 0.91026 0.96457 0.31587 0.0
H499 H 0.92304 0.98806 0.40651 0.0
H500 H 0.88635 0.90904 0.84144 0.0
H501 H 0.84738 0.84404 0.7458 0.0
H502 H 0.85177 0.84098 0.93018 0.0
H503 H 0.83787 0.82079 0.83701 0.0
Eu504 Eu 0.39629 0.62072 0.31955 0.0
C505 C 0.34257 0.69561 0.48281 0.0
C506 C 0.37482 0.73231 0.48891 0.0
C507 C 0.32679 0.74215 0.49126 0.0
C508 C 0.369 0.70451 0.48218 0.0
C509 C 0.32126 0.71422 0.49081 0.0
C510 C 0.35359 0.75114 0.48946 0.0
C511 C 0.29142 0.67617 0.50522 0.0
N512 N 0.338 0.66855 0.48186 0.0
C513 C 0.31326 0.65859 0.4971 0.0
C514 C 0.29528 0.70414 0.50043 0.0
Eu515 Eu 0.37564 0.64034 0.46081 0.0
N516 N 0.38908 0.6859 0.47784 0.0
C517 C 0.41539 0.69345 0.48652 0.0
C518 C 0.40179 0.74029 0.49444 0.0
C519 C 0.42213 0.72073 0.49513 0.0
H520 H 0.31013 0.63692 0.5003 0.0
H521 H 0.44305 0.72675 0.50025 0.0
H522 H 0.35773 0.77265 0.48916 0.0
H523 H 0.27164 0.66812 0.51489 0.0
H524 H 0.43142 0.67874 0.48652 0.0
H525 H 0.30865 0.55562 0.26493 0.0
H526 H 0.40716 0.76146 0.49669 0.0
H527 H 0.46226 0.59942 0.32719 0.0
H528 H 0.33443 0.59749 0.26728 0.0
H529 H 0.48716 0.55804 0.34957 0.0
H530 H 0.31064 0.75689 0.49484 0.0
H531 H 0.33003 0.51246 0.2938 0.0
H532 H 0.37169 0.48755 0.32358 0.0
H533 H 0.27838 0.71776 0.50682 0.0
H534 H 0.42033 0.48813 0.34518 0.0
N535 N 0.36989 0.58011 0.30584 0.0
C536 C 0.34401 0.57967 0.28421 0.0
C537 C 0.34145 0.5312 0.2968 0.0
C538 C 0.36864 0.53116 0.3133 0.0
C539 C 0.32928 0.55551 0.28087 0.0
C540 C 0.38268 0.55617 0.31651 0.0
H541 H 0.4634 0.51416 0.35493 0.0
N542 N 0.42327 0.5807 0.33034 0.0
C543 C 0.46548 0.55728 0.34405 0.0
C544 C 0.41008 0.55649 0.32896 0.0
C545 C 0.45092 0.58103 0.33346 0.0
C546 C 0.452 0.53257 0.34713 0.0
C547 C 0.4241 0.53181 0.33796 0.0
O548 O 0.42451 0.62052 0.24777 0.0
O549 O 0.38187 0.65629 0.37211 0.0
O550 O 0.3367 0.63915 0.40325 0.0
O551 O 0.35255 0.63565 0.30926 0.0
O552 O 0.41249 0.66454 0.31571 0.0
O553 O 0.38173 0.62447 0.23035 0.0
O554 O 0.3585 0.62326 0.5396 0.0
O555 O 0.39162 0.60436 0.41171 0.0
O556 O 0.4354 0.63417 0.3614 0.0
O557 O 0.42255 0.63299 0.45771 0.0
O558 O 0.35508 0.59983 0.45454 0.0
O559 O 0.39876 0.63991 0.5417 0.0
C560 C 0.39679 0.67534 0.35373 0.0
C561 C 0.40807 0.60305 0.15905 0.0
C562 C 0.40834 0.59643 0.05439 0.0
C563 C 0.40515 0.61336 0.1031 0.0
C564 C 0.41396 0.56872 0.06284 0.0
C565 C 0.41365 0.5754 0.16682 0.0
C566 C 0.41649 0.55832 0.11879 0.0
C567 C 0.3324 0.63873 0.34613 0.0
C568 C 0.40566 0.62177 0.20828 0.0
C569 C 0.40994 0.50713 0.33735 0.0
C570 C 0.38226 0.50682 0.32515 0.0
C571 C 0.37438 0.58685 0.42949 0.0
C572 C 0.37347 0.6435 0.62681 0.0
C573 C 0.37844 0.63005 0.67911 0.0
C574 C 0.37405 0.64338 0.73217 0.0
C575 C 0.36422 0.67019 0.73215 0.0
C576 C 0.36386 0.67027 0.62769 0.0
C577 C 0.35914 0.68349 0.6801 0.0
C578 C 0.44149 0.6342 0.41689 0.0
C579 C 0.37922 0.62971 0.57186 0.0
H580 H 0.40029 0.63467 0.0977 0.0
H581 H 0.41682 0.55517 0.02633 0.0
H582 H 0.41601 0.56709 0.20973 0.0
H583 H 0.42092 0.537 0.12492 0.0
H584 H 0.38631 0.60951 0.67845 0.0
H585 H 0.36035 0.68081 0.77242 0.0
H586 H 0.36021 0.68105 0.5881 0.0
H587 H 0.35167 0.70415 0.68037 0.0
Eu588 Eu 0.62896 0.12508 0.70789 0.0
C589 C 0.70081 0.19028 0.54373 0.0
C590 C 0.68443 0.23606 0.55416 0.0
C591 C 0.73214 0.22809 0.53774 0.0
C592 C 0.67991 0.20794 0.55416 0.0
C593 C 0.72694 0.20013 0.53241 0.0
C594 C 0.7109 0.24603 0.5497 0.0
C595 C 0.73997 0.15428 0.50751 0.0
N596 N 0.69502 0.16346 0.54067 0.0
C597 C 0.71386 0.14547 0.52062 0.0
C598 C 0.74673 0.18167 0.51463 0.0
Eu599 Eu 0.65082 0.1503 0.56903 0.0
N600 N 0.65464 0.19766 0.55898 0.0
C601 C 0.6327 0.21415 0.55333 0.0
C602 C 0.66205 0.25317 0.55646 0.0
C603 C 0.63607 0.24224 0.55194 0.0
H604 H 0.70902 0.1242 0.51581 0.0
H605 H 0.61857 0.25537 0.55094 0.0
H606 H 0.71492 0.2676 0.5527 0.0
H607 H 0.75495 0.1399 0.49269 0.0
H608 H 0.61253 0.20584 0.55297 0.0
H609 H 0.71477 0.05333 0.7269 0.0
H610 H 0.66461 0.27475 0.56174 0.0
H611 H 0.56231 0.10842 0.72302 0.0
H612 H 0.69286 0.09689 0.73385 0.0
H613 H 0.53302 0.06885 0.70502 0.0
H614 H 0.75225 0.23609 0.53102 0.0
H615 H 0.68821 1.01205 0.70553 0.0
H616 H 0.64336 0.99057 0.6879 0.0
H617 H 0.76703 0.18842 0.50508 0.0
H618 H 0.59404 0.99481 0.68126 0.0
N619 N 0.65311 0.0825 0.71206 0.0
C620 C 0.68034 0.08001 0.72234 0.0
C621 C 0.67815 0.03156 0.70781 0.0
C622 C 0.65022 0.03365 0.70094 0.0
C623 C 0.69319 0.0548 0.71956 0.0
C624 C 0.63802 0.05963 0.70419 0.0
H625 H 0.55287 0.02381 0.68738 0.0
N626 N 0.5989 0.08696 0.70559 0.0
C627 C 0.5547 0.06662 0.70407 0.0
C628 C 0.61023 0.06198 0.70008 0.0
C629 C 0.57151 0.0891 0.71274 0.0
C630 C 0.56597 0.04125 0.69348 0.0
C631 C 0.59402 0.03849 0.69325 0.0
O632 O 0.60289 0.13154 0.78234 0.0
O633 O 0.64296 0.162 0.66036 0.0
O634 O 0.68899 0.1513 0.62762 0.0
O635 O 0.67356 0.13779 0.71805 0.0
O636 O 0.61271 0.16881 0.71841 0.0
O637 O 0.6455 0.12365 0.79575 0.0
O638 O 0.65531 0.12937 0.48571 0.0
O639 O 0.63377 0.1134 0.61364 0.0
O640 O 0.59059 0.13096 0.65531 0.0
O641 O 0.60431 0.1578 0.57852 0.0
O642 O 0.66848 0.10835 0.56586 0.0
O643 O 0.62536 0.16081 0.49487 0.0
C644 C 0.62832 0.18059 0.68187 0.0
C645 C 0.61595 0.11082 0.87024 0.0
C646 C 0.61318 0.10683 0.9753 0.0
C647 C 0.61945 0.12195 0.92572 0.0
C648 C 0.60363 0.08008 0.96816 0.0
C649 C 0.60658 0.08411 0.86388 0.0
C650 C 0.60046 0.06884 0.91277 0.0
C651 C 0.69329 0.14569 0.68333 0.0
C652 C 0.62221 0.1277 0.82006 0.0
C653 C 0.60619 1.01293 0.68744 0.0
C654 C 0.63424 1.01051 0.69133 0.0
C655 C 0.65013 0.09574 0.59379 0.0
C656 C 0.64631 0.15646 0.40428 0.0
C657 C 0.64035 0.14306 0.35191 0.0
C658 C 0.64798 0.15455 0.29891 0.0
C659 C 0.66196 0.17942 0.29916 0.0
C660 C 0.66026 0.18126 0.40357 0.0
C661 C 0.66809 0.19262 0.35125 0.0
C662 C 0.58504 0.14596 0.60969 0.0
C663 C 0.63771 0.14456 0.45924 0.0
H664 H 0.62732 0.14242 0.93008 0.0
H665 H 0.59827 0.06795 1.00524 0.0
H666 H 0.60395 0.07511 0.82143 0.0
H667 H 0.59309 0.04826 0.90771 0.0
H668 H 0.62936 0.12402 0.35242 0.0
H669 H 0.66836 0.18856 0.25904 0.0
H670 H 0.66497 0.19194 0.44328 0.0
H671 H 0.67887 0.21174 0.35108 0.0
Eu672 Eu 0.89273 0.39997 0.81762 0.0
C673 C 0.81223 0.36015 0.96046 0.0
C674 C 0.78384 0.39911 0.97983 0.0
C675 C 0.76319 0.35582 0.95571 0.0
C676 C 0.8098 0.38751 0.97315 0.0
C677 C 0.78885 0.34381 0.95419 0.0
C678 C 0.76067 0.38343 0.96868 0.0
C679 C 0.81742 0.30433 0.95682 0.0
N680 N 0.83728 0.34897 0.9603 0.0
C681 C 0.83984 0.32131 0.96382 0.0
C682 C 0.79185 0.31567 0.95009 0.0
Eu683 Eu 0.8748 0.3797 0.96243 0.0
N684 N 0.83264 0.40228 0.98324 0.0
C685 C 0.83036 0.42752 1.00827 0.0
C686 C 0.78183 0.42593 0.99918 0.0
C687 C 0.8052 0.43992 0.01488 0.0
H688 H 0.85921 0.3119 0.97163 0.0
H689 H 0.80385 0.46015 0.03324 0.0
H690 H 0.74069 0.39222 0.97228 0.0
H691 H 0.81987 0.28249 0.95715 0.0
H692 H 0.84755 0.43827 0.02539 0.0
H693 H 0.99741 0.36837 0.79191 0.0
H694 H 0.76233 0.43553 1.00475 0.0
H695 H 0.86476 0.45993 0.77067 0.0
H696 H 0.94831 0.36168 0.79741 0.0
H697 H 0.87997 0.5053 0.74276 0.0
H698 H 0.74511 0.34366 0.9498 0.0
H699 H 0.01614 0.41497 0.79787 0.0
H700 H 1.0083 0.46511 0.78755 0.0
H701 H 0.77444 0.30247 0.9453 0.0
H702 H 0.97629 0.50234 0.76878 0.0
N703 N 0.93956 0.40394 0.8028 0.0
C704 C 0.9562 0.38205 0.79678 0.0
C705 C 0.99461 0.41203 0.79478 0.0
C706 C 0.97724 0.43428 0.79308 0.0
C707 C 0.98407 0.38576 0.7931 0.0
C708 C 0.9493 0.42946 0.79593 0.0
H709 H 0.9285 0.5171 0.74832 0.0
N710 N 0.90441 0.44488 0.7884 0.0
C711 C 0.89462 0.49012 0.75553 0.0
C712 C 0.93126 0.45049 0.78739 0.0
C713 C 0.88609 0.46406 0.77077 0.0
C714 C 0.922 0.49673 0.75896 0.0
C715 C 0.94074 0.47679 0.77469 0.0
O716 O 0.86441 0.38398 0.75203 0.0
O717 O 0.8576 0.38535 0.87156 0.0
O718 O 0.8843 0.34062 0.91335 0.0
O719 O 0.90256 0.35408 0.82579 0.0
O720 O 0.85239 0.42061 0.82442 0.0
O721 O 0.90469 0.39354 0.72728 0.0
O722 O 0.89164 0.34928 0.02111 0.0
O723 O 0.90964 0.383 0.8997 0.0
O724 O 0.89427 0.43909 0.87486 0.0
O725 O 0.88173 0.42519 0.96691 0.0
O726 O 0.91721 0.39696 0.98151 0.0
O727 O 0.87267 0.38522 0.05633 0.0
C728 C 0.84014 0.40313 0.85598 0.0
C729 C 0.87076 0.39871 0.65592 0.0
C730 C 0.86715 0.39971 0.54978 0.0
C731 C 0.8755 0.38668 0.60147 0.0
C732 C 0.85459 0.42534 0.55449 0.0
C733 C 0.85665 0.42328 0.65887 0.0
C734 C 0.84902 0.4367 0.60849 0.0
C735 C 0.89504 0.3349 0.86262 0.0
C736 C 0.88102 0.38582 0.70929 0.0
C737 C 0.96861 0.48211 0.77664 0.0
C738 C 0.98684 0.46091 0.78692 0.0
C739 C 0.9281 0.39334 0.93164 0.0
C740 C 0.87478 0.34668 0.11793 0.0
C741 C 0.87304 0.35948 0.17249 0.0
C742 C 0.86688 0.34437 0.22214 0.0
C743 C 0.86232 0.31635 0.21685 0.0
C744 C 0.86948 0.31875 0.11347 0.0
C745 C 0.86336 0.30369 0.16265 0.0
C746 C 0.88902 0.44427 0.93041 0.0
C747 C 0.88457 0.36232 0.06786 0.0
H748 H 0.88531 0.36705 0.59996 0.0
H749 H 0.84899 0.43687 0.51656 0.0
H750 H 0.85153 0.43208 0.70012 0.0
H751 H 0.83876 0.45607 0.61127 0.0
H752 H 0.87712 0.38104 0.17661 0.0
H753 H 0.85749 0.30437 0.25453 0.0
H754 H 0.87043 0.30853 0.07218 0.0
H755 H 0.85956 0.28211 0.15876 0.0
Eu756 Eu 0.39629 0.12437 0.7122 0.0
C757 C 0.30572 0.16937 0.57326 0.0
C758 C 0.27237 0.13376 0.58275 0.0
C759 C 0.25798 0.18081 0.58039 0.0
C760 C 0.29961 0.14215 0.57886 0.0
C761 C 0.28482 0.18889 0.5717 0.0
C762 C 0.25176 0.15325 0.58579 0.0
C763 C 0.31773 0.22218 0.54355 0.0
N764 N 0.33173 0.17647 0.56307 0.0
C765 C 0.33754 0.20204 0.54371 0.0
C766 C 0.29133 0.21575 0.55859 0.0
Eu767 Eu 0.36491 0.14168 0.57346 0.0
N768 N 0.31999 0.12376 0.57532 0.0
C769 C 0.31405 0.09668 0.57015 0.0
C770 C 0.26649 0.10603 0.58061 0.0
C771 C 0.28737 0.08748 0.57272 0.0
H772 H 0.35801 0.20734 0.53223 0.0
H773 H 0.28299 0.06598 0.56952 0.0
H774 H 0.23082 0.14716 0.58983 0.0
H775 H 0.32296 0.24271 0.53283 0.0
H776 H 0.32954 0.08169 0.5646 0.0
H777 H 0.49404 0.1759 0.73242 0.0
H778 H 0.24586 0.0988 0.58312 0.0
H779 H 0.38022 0.05984 0.7463 0.0
H780 H 0.44601 0.17172 0.70886 0.0
H781 H 0.4023 0.01864 0.78275 0.0
H782 H 0.24177 0.19558 0.58028 0.0
H783 H 0.51958 0.13613 0.76766 0.0
H784 H 0.51925 0.08771 0.79934 0.0
H785 H 0.27596 0.23141 0.55768 0.0
H786 H 0.49474 0.04471 0.81059 0.0
N787 N 0.44373 0.12943 0.72713 0.0
C788 C 0.45656 0.15395 0.72329 0.0
C789 C 0.49837 0.13402 0.7565 0.0
C790 C 0.48503 0.10921 0.76271 0.0
C791 C 0.48402 0.1565 0.73682 0.0
C792 C 0.45743 0.10743 0.747 0.0
H793 H 0.45134 0.01871 0.80384 0.0
N794 N 0.41656 0.08308 0.74333 0.0
C795 C 0.41414 0.03673 0.77514 0.0
C796 C 0.44343 0.08353 0.75517 0.0
C797 C 0.4017 0.06025 0.75441 0.0
C798 C 0.44181 0.03682 0.78681 0.0
C799 C 0.45674 0.06051 0.77782 0.0
O800 O 0.3785 0.11725 0.79722 0.0
O801 O 0.35612 0.13489 0.6686 0.0
O802 O 0.36654 0.18077 0.62587 0.0
O803 O 0.39925 0.17092 0.6952 0.0
O804 O 0.3575 0.10123 0.72161 0.0
O805 O 0.40032 0.15443 0.78155 0.0
O806 O 0.37293 0.16005 0.48949 0.0
O807 O 0.40329 0.13174 0.61976 0.0
O808 O 0.40308 0.08732 0.6518 0.0
O809 O 0.37366 0.09574 0.57442 0.0
O810 O 0.40756 0.15974 0.55617 0.0
O811 O 0.36117 0.11779 0.49395 0.0
C812 C 0.34176 0.11623 0.6912 0.0
C813 C 0.40178 0.13691 0.87661 0.0
C814 C 0.39913 0.13522 0.98205 0.0
C815 C 0.38645 0.13774 0.92746 0.0
C816 C 0.42731 0.13158 0.98481 0.0
C817 C 0.42988 0.13367 0.88064 0.0
C818 C 0.44251 0.13081 0.93438 0.0
C819 C 0.38404 0.18859 0.66593 0.0
C820 C 0.38825 0.1395 0.81985 0.0
C821 C 0.48425 0.06208 0.79265 0.0
C822 C 0.49824 0.08651 0.78596 0.0
C823 C 0.42077 0.14594 0.59439 0.0
C824 C 0.34887 0.14161 0.4096 0.0
C825 C 0.35924 0.13682 0.35425 0.0
C826 C 0.34262 0.13911 0.30467 0.0
C827 C 0.31542 0.14668 0.3116 0.0
C828 C 0.32171 0.14903 0.41565 0.0
C829 C 0.30512 0.15164 0.36678 0.0
C830 C 0.39008 0.07935 0.60361 0.0
C831 C 0.36662 0.13818 0.46033 0.0
H832 H 0.36472 0.14027 0.92446 0.0
H833 H 0.43773 0.12999 0.02607 0.0
H834 H 0.44217 0.13366 0.8425 0.0
H835 H 0.46421 0.12833 0.93699 0.0
H836 H 0.38036 0.13143 0.34995 0.0
H837 H 0.30198 0.14834 0.27454 0.0
H838 H 0.31331 0.15263 0.45794 0.0
H839 H 0.28414 0.1573 0.3717 0.0
Eu840 Eu 0.63626 0.61405 0.32048 0.0
C841 C 0.71098 0.68303 0.44175 0.0
C842 C 0.75197 0.65653 0.43561 0.0
C843 C 0.75367 0.70523 0.42058 0.0
C844 C 0.72372 0.65819 0.44264 0.0
C845 C 0.726 0.70699 0.43277 0.0
C846 C 0.76669 0.68 0.42222 0.0
C847 C 0.6864 0.73271 0.45813 0.0
N848 N 0.68448 0.68399 0.45573 0.0
C849 C 0.67282 0.70847 0.46897 0.0
C850 C 0.71301 0.73203 0.43892 0.0
Eu851 Eu 0.66105 0.64144 0.45844 0.0
N852 N 0.70888 0.63598 0.45585 0.0
C853 C 0.72155 0.61214 0.46942 0.0
C854 C 0.7647 0.63157 0.44469 0.0
C855 C 0.74952 0.60946 0.46321 0.0
H856 H 0.65232 0.70938 0.4847 0.0
H857 H 0.75932 0.59032 0.47253 0.0
H858 H 0.7883 0.679 0.41542 0.0
H859 H 0.67609 0.75182 0.46368 0.0
H860 H 0.71033 0.59493 0.48462 0.0
H861 H 0.55092 0.6793 0.26312 0.0
H862 H 0.78632 0.62949 0.43978 0.0
H863 H 0.64028 0.54666 0.30155 0.0
H864 H 0.59812 0.66847 0.28593 0.0
H865 H 0.60983 0.50719 0.28921 0.0
H866 H 0.76542 0.72337 0.41257 0.0
H867 H 0.51629 0.64313 0.26335 0.0
H868 H 0.50547 0.59365 0.27002 0.0
H869 H 0.72361 0.75089 0.43121 0.0
H870 H 0.52158 0.54655 0.27727 0.0
N871 N 0.59072 0.62656 0.30179 0.0
C872 C 0.58344 0.65242 0.28727 0.0
C873 C 0.53709 0.63823 0.27392 0.0
C874 C 0.5449 0.6115 0.28524 0.0
C875 C 0.55658 0.65867 0.2736 0.0
C876 C 0.57229 0.60616 0.29852 0.0
H877 H 0.56038 0.51412 0.28423 0.0
N878 N 0.60826 0.5753 0.30784 0.0
C879 C 0.60151 0.52742 0.2933 0.0
C880 C 0.58134 0.57967 0.30226 0.0
C881 C 0.61865 0.54977 0.30029 0.0
C882 C 0.57363 0.53142 0.29078 0.0
C883 C 0.56326 0.55782 0.2935 0.0
O884 O 0.65203 0.59374 0.24325 0.0
O885 O 0.67416 0.62978 0.36615 0.0
O886 O 0.64075 0.67588 0.41097 0.0
O887 O 0.64407 0.66056 0.31641 0.0
O888 O 0.67551 0.59167 0.32634 0.0
O889 O 0.63748 0.63491 0.23753 0.0
O890 O 0.66056 0.66135 0.54295 0.0
O891 O 0.62481 0.62895 0.40656 0.0
O892 O 0.63353 0.58003 0.38972 0.0
O893 O 0.66411 0.59541 0.45941 0.0
O894 O 0.61623 0.6475 0.48253 0.0
O895 O 0.66036 0.61749 0.53788 0.0
C896 C 0.68995 0.61044 0.35066 0.0
C897 C 0.63348 0.6079 0.15371 0.0
C898 C 0.63375 0.60897 0.04788 0.0
C899 C 0.64684 0.61332 0.10168 0.0
C900 C 0.60708 0.59894 0.04748 0.0
C901 C 0.60706 0.59771 0.1521 0.0
C902 C 0.59398 0.59323 0.09922 0.0
C903 C 0.64139 0.68045 0.35513 0.0
C904 C 0.6469 0.6141 0.20923 0.0
C905 C 0.53572 0.56308 0.28415 0.0
C906 C 0.52655 0.58989 0.28001 0.0
C907 C 0.6051 0.63554 0.43861 0.0
C908 C 0.67985 0.63764 0.62151 0.0
C909 C 0.66997 0.62956 0.67544 0.0
C910 C 0.68696 0.62935 0.72465 0.0
C911 C 0.71411 0.63722 0.71889 0.0
C912 C 0.70701 0.6453 0.61644 0.0
C913 C 0.72404 0.64502 0.66502 0.0
C914 C 0.649 0.576 0.43636 0.0
C915 C 0.6612 0.63873 0.57177 0.0
H916 H 0.66739 0.6209 0.10333 0.0
H917 H 0.59607 0.59595 1.00724 0.0
H918 H 0.59647 0.5935 0.19157 0.0
H919 H 0.57347 0.5856 0.09833 0.0
H920 H 0.64887 0.62401 0.67927 0.0
H921 H 0.72771 0.63708 0.75589 0.0
H922 H 0.71493 0.6517 0.57522 0.0
H923 H 0.74499 0.65096 0.66098 0.0
Eu924 Eu 0.16055 0.87625 0.06624 0.0
C925 C 0.09984 0.95398 0.22411 0.0
C926 C 0.12509 0.99549 0.2092 0.0
C927 C 0.07768 0.99775 0.23488 0.0
C928 C 0.12378 0.96686 0.21033 0.0
C929 C 0.07687 0.96932 0.23885 0.0
C930 C 0.10171 1.01081 0.21969 0.0
C931 C 0.05491 0.92751 0.26613 0.0
N932 N 0.09967 0.92649 0.22787 0.0
C933 C 0.07791 0.91312 0.2498 0.0
C934 C 0.05425 0.95571 0.25998 0.0
Eu935 Eu 0.13995 0.90365 0.20372 0.0
N936 N 0.14623 0.9515 0.20248 0.0
C937 C 0.17094 0.96359 0.19718 0.0
C938 C 0.15008 1.00789 0.19986 0.0
C939 C 0.17316 0.99187 0.19468 0.0
H940 H 0.07838 0.89129 0.2543 0.0
H941 H 0.1927 1.00127 0.18884 0.0
H942 H 0.10227 0.03279 0.2184 0.0
H943 H 0.03786 0.91682 0.28401 0.0
H944 H 0.18904 0.95162 0.193 0.0
H945 H 0.11197 0.77758 0.04385 0.0
H946 H 0.1519 0.02981 0.19845 0.0
H947 H 0.22415 0.89325 0.03044 0.0
H948 H 0.11381 0.82744 0.04918 0.0
H949 H 0.26783 0.87044 0.01263 0.0
H950 H 0.06008 1.00986 0.2452 0.0
H951 H 0.15447 0.7511 0.0514 0.0
H952 H 0.20493 0.75012 0.04191 0.0
H953 H 0.03662 0.96689 0.27373 0.0
H954 H 0.24749 0.77541 0.03096 0.0
N955 N 0.15672 0.82888 0.05495 0.0
C956 C 0.13243 0.81606 0.04874 0.0
C957 C 0.15526 0.77287 0.04793 0.0
C958 C 0.18008 0.78624 0.04755 0.0
C959 C 0.13132 0.7878 0.04525 0.0
C960 C 0.18015 0.81474 0.05083 0.0
H961 H 0.27101 0.82035 0.01795 0.0
N962 N 0.20304 0.85642 0.04591 0.0
C963 C 0.25008 0.85853 0.02226 0.0
C964 C 0.20406 0.82893 0.04573 0.0
C965 C 0.22533 0.87137 0.03215 0.0
C966 C 0.25181 0.83025 0.02546 0.0
C967 C 0.22855 0.81504 0.03652 0.0
O968 O 0.17136 0.89382 0.98299 0.0
O969 O 0.14642 0.91451 0.1096 0.0
O970 O 0.1036 0.90755 0.14679 0.0
O971 O 0.11307 0.87622 0.07375 0.0
O972 O 0.18058 0.91743 0.06017 0.0
O973 O 0.13593 0.86827 0.98909 0.0
O974 O 0.1301 0.88714 0.28853 0.0
O975 O 0.15211 0.8656 0.15713 0.0
O976 O 0.19591 0.87056 0.13159 0.0
O977 O 0.18582 0.90339 0.20014 0.0
O978 O 0.1208 0.86094 0.21283 0.0
O979 O 0.16433 0.91414 0.27974 0.0
C980 C 0.16287 0.93144 0.08775 0.0
C981 C 0.15962 0.86764 0.90095 0.0
C982 C 0.16263 0.86775 0.7957 0.0
C983 C 0.15525 0.88056 0.84782 0.0
C984 C 0.17465 0.84188 0.79768 0.0
C985 C 0.17143 0.84178 0.90193 0.0
C986 C 0.17897 0.82902 0.85056 0.0
C987 C 0.09595 0.89233 0.10259 0.0
C988 C 0.15195 0.8815 0.9548 0.0
C989 C 0.22882 0.78651 0.0369 0.0
C990 C 0.2046 0.77211 0.043 0.0
C991 C 0.13605 0.84801 0.17703 0.0
C992 C 0.14037 0.91584 0.36759 0.0
C993 C 0.14211 0.9031 0.42154 0.0
C994 C 0.13385 0.91676 0.47208 0.0
C995 C 0.12336 0.94321 0.46753 0.0
C996 C 0.13044 0.94245 0.36421 0.0
C997 C 0.12173 0.95594 0.41385 0.0
C998 C 0.20264 0.88552 0.1778 0.0
C999 C 0.14884 0.90104 0.3154 0.0
H1000 H 0.14578 0.90041 0.84712 0.0
H1001 H 0.18095 0.83169 0.7584 0.0
H1002 H 0.1748 0.83141 0.94214 0.0
H1003 H 0.1882 0.8091 0.85177 0.0
H1004 H 0.15041 0.88277 0.42416 0.0
H1005 H 0.11638 0.95407 0.50544 0.0
H1006 H 0.12958 0.95289 0.32346 0.0
H1007 H 0.11384 0.97638 0.41075 0.0
Eu1008 Eu 0.88621 0.63517 0.21318 0.0
C1009 C 0.79534 0.65388 0.08291 0.0
C1010 C 0.77607 0.60968 0.0622 0.0
C1011 C 0.74694 0.64645 0.09333 0.0
C1012 C 0.79877 0.62704 0.06706 0.0
C1013 C 0.76917 0.66413 0.09377 0.0
C1014 C 0.75041 0.61921 0.07778 0.0
C1015 C 0.78824 0.70908 0.09823 0.0
N1016 N 0.81725 0.67046 0.08365 0.0
C1017 C 0.81364 0.698 0.08688 0.0
C1018 C 0.76598 0.69199 0.1032 0.0
Eu1019 Eu 0.86046 0.64982 0.07025 0.0
N1020 N 0.82377 0.61865 0.05096 0.0
C1021 C 0.82609 0.59478 0.02036 0.0
C1022 C 0.7795 0.58377 0.03851 0.0
C1023 C 0.80445 0.57664 0.01578 0.0
H1024 H 0.82999 0.71194 0.07951 0.0
H1025 H 0.80691 0.55742 0.99345 0.0
H1026 H 0.7329 0.60603 0.07517 0.0
H1027 H 0.78581 0.73085 0.10229 0.0
H1028 H 0.84441 0.58952 0.99808 0.0
H1029 H 0.97814 0.69478 0.25484 0.0
H1030 H 0.76262 0.56987 0.03404 0.0
H1031 H 0.87757 0.57183 0.26532 0.0
H1032 H 0.92961 0.6876 0.24133 0.0
H1033 H 0.90511 0.53079 0.28353 0.0
H1034 H 0.72684 0.65385 0.10281 0.0
H1035 H 1.00966 0.65597 0.24996 0.0
H1036 H 0.01629 0.60559 0.245 0.0
H1037 H 0.74628 0.70062 0.11174 0.0
H1038 H 0.99609 0.56016 0.25215 0.0
N1039 N 0.93295 0.64488 0.22614 0.0
C1040 C 0.94277 0.67029 0.23817 0.0
C1041 C 0.9882 0.65257 0.24393 0.0
C1042 C 0.97784 0.62634 0.23683 0.0
C1043 C 0.97047 0.67452 0.24676 0.0
C1044 C 0.94964 0.62301 0.22981 0.0
H1045 H 0.95455 0.53216 0.26924 0.0
N1046 N 0.91094 0.59545 0.23732 0.0
C1047 C 0.91466 0.54929 0.26915 0.0
C1048 C 0.93826 0.59744 0.23491 0.0
C1049 C 0.89916 0.57254 0.25896 0.0
C1050 C 0.94254 0.55011 0.26067 0.0
C1051 C 0.95482 0.57465 0.24563 0.0
O1052 O 0.8591 0.65181 0.27929 0.0
O1053 O 0.84757 0.64436 0.16413 0.0
O1054 O 0.86863 0.69083 0.11196 0.0
O1055 O 0.88641 0.68193 0.20355 0.0
O1056 O 0.84936 0.60841 0.21041 0.0
O1057 O 0.897 0.63498 0.30546 0.0
O1058 O 0.86904 0.68471 0.0156 0.0
O1059 O 0.8978 0.65178 0.12765 0.0
O1060 O 0.8876 0.59491 0.15923 0.0
O1061 O 0.87454 0.60617 0.06542 0.0
O1062 O 0.9032 0.63617 0.04558 0.0
O1063 O 0.85427 0.6473 0.97546 0.0
C1064 C 0.83318 0.62491 0.18392 0.0
C1065 C 0.86146 0.63188 0.37217 0.0
C1066 C 0.85511 0.62894 0.47717 0.0
C1067 C 0.8659 0.64212 0.42838 0.0
C1068 C 0.83929 0.60548 0.46798 0.0
C1069 C 0.84549 0.60862 0.36427 0.0
C1070 C 0.83439 0.59561 0.41197 0.0
C1071 C 0.87788 0.69896 0.16288 0.0
C1072 C 0.8744 0.64527 0.32275 0.0
C1073 C 0.98304 0.57753 0.24532 0.0
C1074 C 0.99456 0.6034 0.24117 0.0
C1075 C 0.91547 0.64237 0.09345 0.0
C1076 C 0.86376 0.68548 0.91074 0.0
C1077 C 0.859 0.67095 0.85867 0.0
C1078 C 0.86214 0.68381 0.80468 0.0
C1079 C 0.8695 0.71136 0.80351 0.0
C1080 C 0.87099 0.71304 0.90803 0.0
C1081 C 0.87373 0.72585 0.85481 0.0
C1082 C 0.88295 0.58836 0.10391 0.0
C1083 C 0.86242 0.67212 0.96794 0.0
H1084 H 0.8778 0.66045 0.43376 0.0
H1085 H 0.831 0.5944 0.50399 0.0
H1086 H 0.8418 0.60038 0.32143 0.0
H1087 H 0.82216 0.57759 0.40559 0.0
H1088 H 0.85358 0.64965 0.86002 0.0
H1089 H 0.87174 0.72181 0.76272 0.0
H1090 H 0.87476 0.72474 0.94712 0.0
H1091 H 0.87931 0.74709 0.85332 0.0
Eu1092 Eu 0.13749 0.11995 0.81882 0.0
C1093 C 0.21557 0.18346 0.98368 0.0
C1094 C 0.25868 0.16223 0.96424 0.0
C1095 C 0.25727 0.20846 1.00128 0.0
C1096 C 0.23017 0.16132 0.96453 0.0
C1097 C 0.22899 0.20692 1.0042 0.0
C1098 C 0.27209 0.1862 0.981 0.0
C1099 C 0.18572 0.22473 0.03349 0.0
N1100 N 0.1883 0.18126 0.98654 0.0
C1101 C 0.17327 0.20128 0.01174 0.0
C1102 C 0.2137 0.22762 0.02947 0.0
Eu1103 Eu 0.16867 0.13991 0.95498 0.0
N1104 N 0.21663 0.13809 0.95136 0.0
C1105 C 0.23054 0.11453 0.94177 0.0
C1106 C 0.2729 0.13864 0.94993 0.0
C1107 C 0.25876 0.11458 0.93952 0.0
H1108 H 0.15164 0.19909 0.01519 0.0
H1109 H 0.26957 0.096 0.93012 0.0
H1110 H 0.29395 0.18733 0.98067 0.0
H1111 H 0.17374 0.24052 0.05351 0.0
H1112 H 0.22005 0.09565 0.93427 0.0
H1113 H 0.04325 0.17661 0.78977 0.0
H1114 H 0.29478 0.13854 0.94899 0.0
H1115 H 0.14999 0.05481 0.788 0.0
H1116 H 0.09148 0.17084 0.80961 0.0
H1117 H 0.12489 1.01294 0.76242 0.0
H1118 H 0.2679 0.22646 0.01622 0.0
H1119 H 0.01433 0.13657 0.77103 0.0
H1120 H 1.011 0.08677 0.7538 0.0
H1121 H 0.22335 0.24571 0.04684 0.0
H1122 H 0.03279 0.04193 0.74896 0.0
N1123 N 0.0904 0.12752 0.80628 0.0
C1124 C 0.07938 0.15295 0.80285 0.0
C1125 C 0.03561 0.1338 0.78081 0.0
C1126 C 0.04717 0.10792 0.78129 0.0
C1127 C 0.05185 0.15642 0.79119 0.0
C1128 C 0.07493 0.1053 0.7948 0.0
H1129 H 0.07512 0.01421 0.75263 0.0
N1130 N 0.11459 0.07885 0.79732 0.0
C1131 C 0.11407 0.03165 0.77053 0.0
C1132 C 0.08739 0.08018 0.79053 0.0
C1133 C 0.12819 0.05534 0.7851 0.0
C1134 C 0.08598 0.03244 0.7653 0.0
C1135 C 0.07236 0.05702 0.77374 0.0
O1136 O 0.15385 0.10721 0.73531 0.0
O1137 O 0.17668 0.13407 0.85944 0.0
O1138 O 0.16962 0.17793 0.90165 0.0
O1139 O 0.13766 0.16755 0.82989 0.0
O1140 O 0.17824 0.09972 0.80814 0.0
O1141 O 0.13209 0.14514 0.74202 0.0
O1142 O 0.15345 0.14469 0.04313 0.0
O1143 O 0.12974 0.12766 0.91126 0.0
O1144 O 0.13461 0.0836 0.88319 0.0
O1145 O 0.17166 0.09426 0.94042 0.0
O1146 O 0.12676 0.15835 0.97109 0.0
O1147 O 0.18097 0.11196 0.02325 0.0
C1148 C 0.19284 0.11736 0.83553 0.0
C1149 C 0.13025 0.12192 0.65201 0.0
C1150 C 0.13086 0.12042 0.54625 0.0
C1151 C 0.14381 0.12606 0.59967 0.0
C1152 C 0.10422 0.11041 0.54629 0.0
C1153 C 0.10373 0.11198 0.65072 0.0
C1154 C 0.09085 0.10618 0.59824 0.0
C1155 C 0.15326 0.18532 0.859 0.0
C1156 C 0.14399 0.12794 0.70746 0.0
C1157 C 0.04458 0.05943 0.76252 0.0
C1158 C 0.0321 0.08488 0.76569 0.0
C1159 C 0.11305 0.1434 0.93553 0.0
C1160 C 0.1835 0.13099 0.11725 0.0
C1161 C 0.17179 0.12603 0.17125 0.0
C1162 C 0.18628 0.13137 0.22294 0.0
C1163 C 0.21258 0.14208 0.21952 0.0
C1164 C 0.2098 0.14148 0.11498 0.0
C1165 C 0.22416 0.14713 0.16585 0.0
C1166 C 0.15311 0.07673 0.92284 0.0
C1167 C 0.16813 0.12501 0.0638 0.0
H1168 H 0.16442 0.1335 0.60066 0.0
H1169 H 0.09348 0.10633 0.50613 0.0
H1170 H 0.09288 0.10886 0.69003 0.0
H1171 H 0.07032 0.0986 0.59783 0.0
H1172 H 0.15136 0.11814 0.17288 0.0
H1173 H 0.22444 0.14607 0.25828 0.0
H1174 H 0.21935 0.14506 0.07403 0.0
H1175 H 0.24448 0.15517 0.16366 0.0
Eu1176 Eu 0.65916 0.37687 0.57068 0.0
C1177 C 0.58917 0.44858 0.72157 0.0
C1178 C 0.61325 0.49137 0.7189 0.0
C1179 C 0.56443 0.49107 0.72869 0.0
C1180 C 0.61318 0.46273 0.71693 0.0
C1181 C 0.56465 0.46256 0.72911 0.0
C1182 C 0.58869 0.50545 0.72349 0.0
C1183 C 0.54265 0.41922 0.74253 0.0
N1184 N 0.59 0.42102 0.72217 0.0
C1185 C 0.56746 0.40624 0.73504 0.0
C1186 C 0.5412 0.44747 0.73862 0.0
Eu1187 Eu 0.6325 0.40055 0.70602 0.0
N1188 N 0.63658 0.44849 0.7132 0.0
C1189 C 0.66089 0.46164 0.71513 0.0
C1190 C 0.63805 0.50498 0.71763 0.0
C1191 C 0.66198 0.49002 0.71647 0.0
H1192 H 0.56854 0.38437 0.73749 0.0
H1193 H 0.68129 0.50033 0.71654 0.0
H1194 H 0.58832 0.52745 0.72454 0.0
H1195 H 0.52469 0.40741 0.75081 0.0
H1196 H 0.67956 0.45039 0.71403 0.0
H1197 H 0.60645 0.29231 0.46953 0.0
H1198 H 0.63897 0.52696 0.71889 0.0
H1199 H 0.72588 0.39042 0.58067 0.0
H1200 H 0.61123 0.32905 0.54076 0.0
H1201 H 0.76876 0.3708 0.54663 0.0
H1202 H 0.5457 0.50217 0.73381 0.0
H1203 H 0.64661 0.27446 0.41924 0.0
H1204 H 0.69695 0.27392 0.40928 0.0
H1205 H 0.52206 0.45755 0.74415 0.0
H1206 H 0.74127 0.29304 0.43589 0.0
N1207 N 0.6539 0.33257 0.53182 0.0
C1208 C 0.62914 0.3213 0.5206 0.0
C1209 C 0.64893 0.29064 0.45089 0.0
C1210 C 0.67448 0.30092 0.46542 0.0
C1211 C 0.62624 0.30056 0.47943 0.0
C1212 C 0.67637 0.3222 0.50657 0.0
H1213 H 0.76833 0.32834 0.48904 0.0
N1214 N 0.7019 0.35691 0.55192 0.0
C1215 C 0.74997 0.36002 0.53923 0.0
C1216 C 0.70122 0.33378 0.5196 0.0
C1217 C 0.7257 0.3708 0.55939 0.0
C1218 C 0.74965 0.33603 0.50683 0.0
C1219 C 0.725 0.32317 0.49478 0.0
O1220 O 0.67446 0.40224 0.50135 0.0
O1221 O 0.64249 0.41342 0.61587 0.0
O1222 O 0.59894 0.40615 0.64062 0.0
O1223 O 0.6117 0.37452 0.57129 0.0
O1224 O 0.67948 0.41817 0.57847 0.0
O1225 O 0.64005 0.37625 0.48429 0.0
O1226 O 0.6205 0.38124 0.78653 0.0
O1227 O 0.64639 0.36293 0.65792 0.0
O1228 O 0.69022 0.36696 0.6434 0.0
O1229 O 0.67894 0.40107 0.70775 0.0
O1230 O 0.61192 0.35908 0.70621 0.0
O1231 O 0.65337 0.41018 0.78756 0.0
C1232 C 0.65967 0.43121 0.6015 0.0
C1233 C 0.67104 0.38315 0.40771 0.0
C1234 C 0.66956 0.37586 0.3029 0.0
C1235 C 0.65701 0.38445 0.35458 0.0
C1236 C 0.69552 0.36423 0.30618 0.0
C1237 C 0.69792 0.37405 0.40819 0.0
C1238 C 0.70969 0.36375 0.35835 0.0
C1239 C 0.59294 0.38993 0.5968 0.0
C1240 C 0.65818 0.39226 0.462 0.0
C1241 C 0.72327 0.30127 0.45572 0.0
C1242 C 0.69803 0.29047 0.44033 0.0
C1243 C 0.62824 0.34611 0.67288 0.0
C1244 C 0.62679 0.40713 0.87182 0.0
C1245 C 0.63762 0.39948 0.92559 0.0
C1246 C 0.62697 0.41017 0.9772 0.0
C1247 C 0.60532 0.42857 0.97435 0.0
C1248 C 0.60545 0.42583 0.86995 0.0
C1249 C 0.59473 0.43641 0.9209 0.0
C1250 C 0.69644 0.38287 0.68854 0.0
C1251 C 0.63757 0.39498 0.81847 0.0
H1252 H 0.63692 0.39316 0.35343 0.0
H1253 H 0.7053 0.35621 0.26802 0.0
H1254 H 0.71008 0.37518 0.44685 0.0
H1255 H 0.73012 0.35592 0.35994 0.0
H1256 H 0.65413 0.38503 0.92728 0.0
H1257 H 0.59697 0.43732 0.01341 0.0
H1258 H 0.59694 0.43228 0.82946 0.0
H1259 H 0.57823 0.45079 0.91892 0.0
Eu1260 Eu 0.38541 0.87969 0.48188 0.0
C1261 C 0.41837 0.95676 0.33677 0.0
C1262 C 0.37864 0.98291 0.31098 0.0
C1263 C 0.42002 1.00626 0.33836 0.0
C1264 C 0.3914 0.95762 0.32077 0.0
C1265 C 0.43306 0.98116 0.34484 0.0
C1266 C 0.39289 1.00713 0.32117 0.0
C1267 C 0.47311 0.95442 0.35979 0.0
N1268 N 0.43046 0.93217 0.34303 0.0
C1269 C 0.45793 0.93094 0.34955 0.0
C1270 C 0.46056 0.97966 0.35833 0.0
Eu1271 Eu 0.40179 0.89297 0.33613 0.0
N1272 N 0.37789 0.93384 0.31261 0.0
C1273 C 0.35281 0.93421 0.28698 0.0
C1274 C 0.35202 0.98315 0.29046 0.0
C1275 C 0.33928 0.95867 0.27716 0.0
H1276 H 0.46868 0.91206 0.34608 0.0
H1277 H 0.31917 0.95859 0.25832 0.0
H1278 H 0.38325 0.02666 0.31487 0.0
H1279 H 0.49457 0.95298 0.36831 0.0
H1280 H 0.34314 0.91589 0.27203 0.0
H1281 H 0.45465 0.80064 0.55854 0.0
H1282 H 0.34153 1.0021 0.28259 0.0
H1283 H 0.31468 0.87863 0.48395 0.0
H1284 H 0.44145 0.83776 0.49676 0.0
H1285 H 0.27897 0.84958 0.51643 0.0
H1286 H 0.43092 0.02511 0.34514 0.0
H1287 H 0.42042 0.7763 0.61515 0.0
H1288 H 0.37197 0.76847 0.63708 0.0
H1289 H 0.47247 0.99786 0.36552 0.0
H1290 H 0.32432 0.77996 0.62061 0.0
N1291 N 0.39937 0.8359 0.51541 0.0
C1292 C 0.42578 0.82781 0.51947 0.0
C1293 C 0.41428 0.79279 0.58712 0.0
C1294 C 0.3871 0.7996 0.57999 0.0
C1295 C 0.4336 0.80639 0.55516 0.0
C1296 C 0.3801 0.82138 0.54298 0.0
H1297 H 0.28966 0.80841 0.57191 0.0
N1298 N 0.34723 0.85094 0.50348 0.0
C1299 C 0.29975 0.84301 0.52094 0.0
C1300 C 0.35329 0.82847 0.5351 0.0
C1301 C 0.32061 0.85892 0.4992 0.0
C1302 C 0.30585 0.81999 0.55272 0.0
C1303 C 0.33282 0.81304 0.56208 0.0
O1304 O 0.36077 0.90323 0.54266 0.0
O1305 O 0.38652 0.91464 0.41835 0.0
O1306 O 0.44051 0.87837 0.37954 0.0
O1307 O 0.43206 0.88236 0.47803 0.0
O1308 O 0.41103 0.91662 0.49229 0.0
O1309 O 0.39759 0.88422 0.57258 0.0
O1310 O 0.43362 0.88344 0.27407 0.0
O1311 O 0.40108 0.85899 0.40288 0.0
O1312 O 0.34751 0.88982 0.4235 0.0
O1313 O 0.35882 0.88034 0.32911 0.0
O1314 O 0.3842 0.85022 0.32387 0.0
O1315 O 0.393 0.89069 0.24329 0.0
C1316 C 0.40104 0.93057 0.45045 0.0
C1317 C 0.364 0.89135 0.64304 0.0
C1318 C 0.36703 0.88986 0.749 0.0
C1319 C 0.37827 0.8966 0.69506 0.0
C1320 C 0.3414 0.87757 0.75002 0.0
C1321 C 0.33818 0.87973 0.6456 0.0
C1322 C 0.32711 0.87265 0.69867 0.0
C1323 C 0.44895 0.88 0.43386 0.0
C1324 C 0.37648 0.89831 0.58709 0.0
C1325 C 0.33978 0.79164 0.59912 0.0
C1326 C 0.36688 0.78515 0.60862 0.0
C1327 C 0.38953 0.84008 0.37407 0.0
C1328 C 0.42811 0.90009 0.17765 0.0
C1329 C 0.41676 0.89407 0.12296 0.0
C1330 C 0.42706 0.9058 0.07206 0.0
C1331 C 0.44877 0.92419 0.07756 0.0
C1332 C 0.44952 0.91868 0.18184 0.0
C1333 C 0.45968 0.93068 0.13199 0.0
C1334 C 0.34057 0.88381 0.36887 0.0
C1335 C 0.41782 0.88579 0.22893 0.0
H1336 H 0.39814 0.90581 0.69349 0.0
H1337 H 0.33207 0.8724 0.79069 0.0
H1338 H 0.3264 0.87631 0.60688 0.0
H1339 H 0.3072 0.86359 0.70005 0.0
H1340 H 0.39985 0.88014 0.12041 0.0
H1341 H 0.45777 0.93326 0.03983 0.0
H1342 H 0.45857 0.92373 0.22336 0.0
H1343 H 0.47638 0.94481 0.13545 0.0
H1344 H 0.15596 0.6058 0.68757 0.0
H1345 H 0.10845 0.66892 0.76731 0.0
H1346 H 0.08583 0.67762 0.67454 0.0
H1347 H 0.08072 0.66832 0.5702 0.0
H1348 H 0.12766 0.60426 0.4916 0.0
H1349 H 0.15016 0.59583 0.58403 0.0
C1350 C 0.14077 0.6216 0.68469 0.0
C1351 C 0.13408 0.63682 0.73447 0.0
C1352 C 0.12805 0.62664 0.63115 0.0
C1353 C 0.11388 0.65676 0.72999 0.0
C1354 C 0.1011 0.66189 0.67678 0.0
C1355 C 0.09564 0.65228 0.57317 0.0
C1356 C 0.10239 0.63703 0.52334 0.0
C1357 C 0.10816 0.64707 0.62698 0.0
C1358 C 0.12227 0.61674 0.52846 0.0
C1359 C 0.13499 0.61166 0.58162 0.0
H1360 H 0.62837 0.93854 0.95854 0.0
H1361 H 0.65142 0.86038 0.02659 0.0
H1362 H 0.6702 0.84763 0.93296 0.0
H1363 H 0.67881 0.85804 0.83092 0.0
H1364 H 0.65573 0.93624 0.76301 0.0
H1365 H 0.63725 0.94908 0.85678 0.0
C1366 C 0.6373 0.91861 0.95289 0.0
C1367 C 0.63837 0.90046 0.99982 0.0
C1368 C 0.64772 0.91123 0.89864 0.0
C1369 C 0.65057 0.87494 0.9917 0.0
C1370 C 0.66112 0.86752 0.93793 0.0
C1371 C 0.66997 0.87801 0.83665 0.0
C1372 C 0.6687 0.89609 0.78962 0.0
C1373 C 0.65968 0.88544 0.89102 0.0
C1374 C 0.65667 0.92169 0.79791 0.0
C1375 C 0.64629 0.92917 0.85177 0.0
H1376 H 0.31182 0.39272 0.19444 0.0
H1377 H 0.39187 0.39151 0.27075 0.0
H1378 H 0.41118 0.40423 0.17825 0.0
H1379 H 0.40542 0.41583 0.0755 0.0
H1380 H 0.32583 0.41399 0.99802 0.0
H1381 H 0.30635 0.4013 0.09085 0.0
C1382 C 0.33355 0.39469 0.19087 0.0
C1383 C 0.35024 0.39129 0.24 0.0
C1384 C 0.34464 0.4013 0.13717 0.0
C1385 C 0.37835 0.39455 0.23426 0.0
C1386 C 0.3895 0.4016 0.18116 0.0
C1387 C 0.38382 0.41265 0.07915 0.0
C1388 C 0.36702 0.41597 0.03035 0.0
C1389 C 0.37282 0.40516 0.13244 0.0
C1390 C 0.33912 0.41142 0.03511 0.0
C1391 C 0.32799 0.40431 0.08815 0.0
H1392 H 0.9263 0.10632 0.44719 0.0
H1393 H 0.84664 0.09811 0.51846 0.0
H1394 H 0.82638 0.10982 0.4248 0.0
H1395 H 0.83142 0.12076 0.32274 0.0
H1396 H 0.91112 0.1342 0.25348 0.0
H1397 H 0.93123 0.12119 0.3458 0.0
C1398 C 0.90452 0.10717 0.44193 0.0
C1399 C 0.88788 0.10121 0.48915 0.0
C1400 C 0.89306 0.11451 0.38833 0.0
C1401 C 0.85973 0.10264 0.48248 0.0
C1402 C 0.84819 0.10925 0.42901 0.0
C1403 C 0.85318 0.12158 0.32767 0.0
C1404 C 0.86953 0.12851 0.28028 0.0
C1405 C 0.86468 0.11513 0.38161 0.0
C1406 C 0.8978 0.12846 0.28818 0.0
C1407 C 0.90942 0.12126 0.34135 0.0
H1408 H 0.18233 0.37733 0.31243 0.0
H1409 H 0.10182 0.38844 0.24252 0.0
H1410 H 0.08602 0.40263 0.33769 0.0
H1411 H 0.09544 0.413 0.44037 0.0
H1412 H 0.17551 0.39962 0.5099 0.0
H1413 H 0.19074 0.38368 0.41554 0.0
C1414 C 0.16114 0.38217 0.31791 0.0
C1415 C 0.14338 0.38183 0.26996 0.0
C1416 C 0.15202 0.38957 0.3729 0.0
C1417 C 0.11616 0.38899 0.27818 0.0
C1418 C 0.10701 0.39686 0.33277 0.0
C1419 C 0.11614 0.40633 0.4348 0.0
C1420 C 0.13435 0.40749 0.48183 0.0
C1421 C 0.12482 0.39742 0.38032 0.0
C1422 C 0.16105 0.39859 0.47446 0.0
C1423 C 0.16984 0.38976 0.42041 0.0
H1424 H 0.88519 0.85568 0.68564 0.0
H1425 H 0.86344 0.93264 0.76237 0.0
H1426 H 0.8712 0.95528 0.6702 0.0
H1427 H 0.88244 0.95293 0.56674 0.0
H1428 H 0.90494 0.87588 0.49102 0.0
H1429 H 0.89768 0.85354 0.58333 0.0
C1430 C 0.88195 0.87738 0.68217 0.0
C1431 C 0.87358 0.89235 0.73093 0.0
C1432 C 0.88624 0.89025 0.62894 0.0
C1433 C 0.87008 0.92059 0.7258 0.0
C1434 C 0.87433 0.93355 0.67293 0.0
C1435 C 0.88608 0.9313 0.57045 0.0
C1436 C 0.89407 0.91617 0.52147 0.0
C1437 C 0.88225 0.91855 0.62409 0.0
C1438 C 0.89827 0.88805 0.52735 0.0
C1439 C 0.89434 0.87524 0.58037 0.0
H1440 H 0.4013 0.66419 0.82412 0.0
H1441 H 0.3606 0.59174 0.76396 0.0
H1442 H 0.36859 0.57022 0.8578 0.0
H1443 H 0.38473 0.57327 0.95873 0.0
H1444 H 0.42671 0.64552 0.01687 0.0
H1445 H 0.41998 0.6661 0.92237 0.0
C1446 C 0.39408 0.64372 0.8317 0.0
C1447 C 0.38008 0.62969 0.78764 0.0
C1448 C 0.39869 0.63158 0.88551 0.0
C1449 C 0.37143 0.60294 0.79737 0.0
C1450 C 0.37588 0.5907 0.85103 0.0
C1451 C 0.3928 0.59333 0.95051 0.0
C1452 C 0.40587 0.60793 0.99527 0.0
C1453 C 0.3892 0.60497 0.89567 0.0
C1454 C 0.41597 0.63404 0.9838 0.0
C1455 C 0.41232 0.64579 0.9296 0.0
H1456 H 0.63157 0.08246 0.07424 0.0
H1457 H 0.60223 0.15904 1.00864 0.0
H1458 H 0.61032 0.18027 0.10263 0.0
H1459 H 0.62639 0.1775 0.20293 0.0
H1460 H 0.6543 0.10094 0.27038 0.0
H1461 H 0.64524 0.07909 0.17669 0.0
C1462 C 0.62655 0.10369 0.08064 0.0
C1463 C 0.61661 0.11914 0.03396 0.0
C1464 C 0.63087 0.11577 0.13523 0.0
C1465 C 0.6105 0.14673 0.0432 0.0
C1466 C 0.61492 0.1589 0.09713 0.0
C1467 C 0.63057 0.15605 0.19701 0.0
C1468 C 0.64124 0.14091 0.24322 0.0
C1469 C 0.62534 0.14369 0.14323 0.0
C1470 C 0.64602 0.113 0.23541 0.0
C1471 C 0.64097 0.10055 0.18182 0.0
H1472 H 0.8976 0.33594 0.31862 0.0
H1473 H 0.83059 0.38275 0.25317 0.0
H1474 H 0.8241 0.40312 0.34899 0.0
H1475 H 0.8363 0.40612 0.4512 0.0
H1476 H 0.90708 0.36384 0.51484 0.0
H1477 H 0.91257 0.34243 0.42048 0.0
C1478 C 0.88171 0.35073 0.32557 0.0
C1479 C 0.86447 0.35783 0.27932 0.0
C1480 C 0.87851 0.3628 0.3805 0.0
C1481 C 0.84407 0.37711 0.2883 0.0
C1482 C 0.84032 0.38863 0.34304 0.0
C1483 C 0.85345 0.39284 0.44475 0.0
C1484 C 0.87116 0.38684 0.49129 0.0
C1485 C 0.85734 0.38152 0.38951 0.0
C1486 C 0.8926 0.36863 0.48108 0.0
C1487 C 0.89601 0.35651 0.42662 0.0
H1488 H 0.33234 0.16635 0.2041 0.0
H1489 H 0.37769 0.09886 0.27338 0.0
H1490 H 0.39801 0.09094 0.17916 0.0
H1491 H 0.4042 0.10405 0.07811 0.0
H1492 H 0.35885 0.17125 1.00808 0.0
H1493 H 0.33638 0.17763 0.10091 0.0
C1494 C 0.34635 0.14965 0.19845 0.0
C1495 C 0.3537 0.13347 0.24615 0.0
C1496 C 0.35783 0.14501 0.14388 0.0
C1497 C 0.37212 0.11207 0.23792 0.0
C1498 C 0.38361 0.10736 0.18389 0.0
C1499 C 0.38941 0.12012 0.08318 0.0
C1500 C 0.38344 0.13732 0.03641 0.0
C1501 C 0.3769 0.12392 0.13681 0.0
C1502 C 0.36375 0.15763 0.04326 0.0
C1503 C 0.35105 0.16144 0.0965 0.0
H1504 H 0.63016 0.5814 0.94514 0.0
H1505 H 0.66827 0.65126 0.02515 0.0
H1506 H 0.68913 0.66279 0.93338 0.0
H1507 H 0.69474 0.65445 0.82893 0.0
H1508 H 0.65486 0.58585 0.74844 0.0
H1509 H 0.63584 0.57297 0.84146 0.0
C1510 C 0.64278 0.59934 0.94258 0.0
C1511 C 0.64743 0.61543 0.99233 0.0
C1512 C 0.6542 0.60628 0.88929 0.0
C1513 C 0.6645 0.6382 0.98806 0.0
C1514 C 0.67629 0.645 0.93534 0.0
C1515 C 0.68212 0.63653 0.83193 0.0
C1516 C 0.6762 0.62116 0.7818 0.0
C1517 C 0.67108 0.62933 0.88555 0.0
C1518 C 0.65949 0.59819 0.78623 0.0
C1519 C 0.64871 0.59074 0.83945 0.0
H1520 H 0.15125 0.94016 0.57252 0.0
H1521 H 0.12326 0.86397 0.50052 0.0
H1522 H 0.12966 0.84221 0.5943 0.0
H1523 H 0.1432 0.84482 0.69654 0.0
H1524 H 0.17111 0.92102 0.76854 0.0
H1525 H 0.16387 0.94301 0.67523 0.0
C1526 C 0.14619 0.91888 0.57749 0.0
C1527 C 0.13682 0.90372 0.52953 0.0
C1528 C 0.14975 0.90654 0.63155 0.0
C1529 C 0.13084 0.87604 0.53652 0.0
C1530 C 0.13434 0.86361 0.5902 0.0
C1531 C 0.14791 0.86619 0.69168 0.0
C1532 C 0.15778 0.88122 0.73933 0.0
C1533 C 0.14391 0.87864 0.63788 0.0
C1534 C 0.16326 0.90903 0.73268 0.0
C1535 C 0.15928 0.92159 0.67927 0.0
H1536 H 0.89603 0.68153 0.71346 0.0
H1537 H 0.81843 0.65334 0.77082 0.0
H1538 H 0.80922 0.63381 0.67467 0.0
H1539 H 0.82223 0.62747 0.5727 0.0
H1540 H 0.90144 0.65332 0.51827 0.0
H1541 H 0.91058 0.67172 0.61428 0.0
C1542 C 0.87718 0.67094 0.70494 0.0
C1543 C 0.85784 0.66904 0.74898 0.0
C1544 C 0.8721 0.65978 0.64978 0.0
C1545 C 0.83366 0.65495 0.73768 0.0
C1546 C 0.82834 0.64398 0.6826 0.0
C1547 C 0.8417 0.63668 0.5818 0.0
C1548 C 0.86087 0.63926 0.53724 0.0
C1549 C 0.84727 0.64662 0.63802 0.0
C1550 C 0.88584 0.65168 0.55054 0.0
C1551 C 0.89129 0.66198 0.60588 0.0
H1552 H 0.12948 0.089 0.44883 0.0
H1553 H 0.16306 0.16349 0.51792 0.0
H1554 H 0.18331 0.17326 0.42442 0.0
H1555 H 0.18978 0.16169 0.32194 0.0
H1556 H 0.15601 0.08724 0.25297 0.0
H1557 H 0.13665 0.077 0.34702 0.0
C1558 C 0.14108 0.10748 0.4434 0.0
C1559 C 0.14459 0.12553 0.49038 0.0
C1560 C 0.15229 0.1132 0.38929 0.0
C1561 C 0.16022 0.14907 0.48279 0.0
C1562 C 0.17162 0.15481 0.42915 0.0
C1563 C 0.17842 0.14308 0.32757 0.0
C1564 C 0.17431 0.12533 0.28025 0.0
C1565 C 0.16758 0.13714 0.38198 0.0
C1566 C 0.15914 0.10151 0.28826 0.0
C1567 C 0.14824 0.09551 0.3422 0.0
H1568 H 0.69477 0.39023 0.20395 0.0
H1569 H 0.61567 0.3728 0.27173 0.0
H1570 H 0.5955 0.38195 0.17679 0.0
H1571 H 0.60054 0.39483 0.07432 0.0
H1572 H 0.68019 0.40953 1.00703 0.0
H1573 H 0.70013 0.40026 0.10189 0.0
C1574 C 0.67316 0.38774 0.19803 0.0
C1575 C 0.65685 0.38058 0.24516 0.0
C1576 C 0.66184 0.39233 0.14328 0.0
C1577 C 0.62875 0.37852 0.23658 0.0
C1578 C 0.61721 0.38356 0.18216 0.0
C1579 C 0.62226 0.39597 0.08062 0.0
C1580 C 0.6389 0.40293 0.03396 0.0
C1581 C 0.63358 0.39053 0.13526 0.0
C1582 C 0.66702 0.40401 0.04223 0.0
C1583 C 0.67839 0.3989 0.09649 0.0
H1584 H 0.42247 0.93787 0.97521 0.0
H1585 H 0.40606 0.85671 0.03585 0.0
H1586 H 0.3864 0.84485 0.94226 0.0
H1587 H 0.3736 0.85723 0.84283 0.0
H1588 H 0.39234 0.93723 0.77995 0.0
H1589 H 0.41242 0.9493 0.87384 0.0
C1590 C 0.41505 0.91742 0.96803 0.0
C1591 C 0.41562 0.89843 0.01362 0.0
C1592 C 0.4044 0.91034 0.9132 0.0
C1593 C 0.40535 0.87217 1.00279 0.0
C1594 C 0.39432 0.86517 0.94879 0.0
C1595 C 0.38211 0.87731 0.84969 0.0
C1596 C 0.38132 0.89634 0.80448 0.0
C1597 C 0.39362 0.8841 0.90378 0.0
C1598 C 0.39284 0.92212 0.8138 0.0
C1599 C 0.40414 0.9291 0.86766 0.0
H1600 H 0.17527 0.72358 0.18177 0.0
H1601 H 0.0903 0.70972 0.15363 0.0
H1602 H 0.08177 0.75868 0.15999 0.0
H1603 H 0.09841 0.80638 0.17206 0.0
H1604 H 0.18394 0.82046 0.19019 0.0
H1605 H 0.19207 0.77135 0.19182 0.0
C1606 C 0.15492 0.73131 0.17616 0.0
C1607 C 0.13361 0.71266 0.16473 0.0
C1608 C 0.15013 0.75986 0.18006 0.0
C1609 C 0.10731 0.72332 0.1596 0.0
C1610 C 0.10234 0.75146 0.16446 0.0
C1611 C 0.11883 0.7987 0.17667 0.0
C1612 C 0.14058 0.81751 0.17979 0.0
C1613 C 0.12354 0.77007 0.17458 0.0
C1614 C 0.16682 0.80684 0.18637 0.0
C1615 C 0.17149 0.77857 0.18748 0.0
H1616 H 0.57211 0.84519 0.44539 0.0
H1617 H 0.58286 0.93194 0.44878 0.0
H1618 H 0.53377 0.93833 0.45369 0.0
H1619 H 0.48731 0.91896 0.45456 0.0
H1620 H 0.47724 0.83263 0.43291 0.0
H1621 H 0.52603 0.82618 0.43914 0.0
C1622 C 0.56366 0.86548 0.4469 0.0
C1623 C 0.58111 0.88805 0.44563 0.0
C1624 C 0.53536 0.86898 0.44746 0.0
C1625 C 0.56988 0.91424 0.44851 0.0
C1626 C 0.54178 0.91787 0.45169 0.0
C1627 C 0.49585 0.89877 0.45143 0.0
C1628 C 0.47846 0.87624 0.44473 0.0
C1629 C 0.52425 0.89538 0.45084 0.0
C1630 C 0.48992 0.85024 0.43991 0.0
C1631 C 0.51794 0.84656 0.44279 0.0
H1632 H 0.42164 0.31261 0.69135 0.0
H1633 H 0.33824 0.32631 0.64593 0.0
H1634 H 0.33051 0.27724 0.64001 0.0
H1635 H 0.34724 0.22994 0.64968 0.0
H1636 H 0.43001 0.21614 0.70062 0.0
H1637 H 0.43784 0.26515 0.70491 0.0
C1638 C 0.40176 0.30486 0.6801 0.0
C1639 C 0.38081 0.32345 0.66655 0.0
C1640 C 0.39723 0.27634 0.67884 0.0
C1641 C 0.35507 0.31278 0.65371 0.0
C1642 C 0.35055 0.28457 0.6512 0.0
C1643 C 0.36709 0.23756 0.66117 0.0
C1644 C 0.38807 0.21886 0.67406 0.0
C1645 C 0.37148 0.26607 0.66354 0.0
C1646 C 0.41337 0.22957 0.69072 0.0
C1647 C 0.41793 0.25781 0.69277 0.0
H1648 H 0.98729 0.16976 0.93034 0.0
H1649 H 0.98064 0.08281 0.91559 0.0
H1650 H 0.03003 0.07887 0.91932 0.0
H1651 H 0.076 0.1005 0.92546 0.0
H1652 H 0.08112 0.18753 0.94264 0.0
H1653 H 0.03191 0.1909 0.9408 0.0
C1654 C 0.99622 0.14981 0.92918 0.0
C1655 C 0.97959 0.12655 0.92271 0.0
C1656 C 0.02485 0.1477 0.93179 0.0
C1657 C 0.99258 0.10112 0.92001 0.0
C1658 C 0.02098 0.09885 0.92247 0.0
C1659 C 0.06631 0.12019 0.92837 0.0
C1660 C 0.08257 0.14387 0.93249 0.0
C1661 C 0.0375 0.12204 0.92778 0.0
C1662 C 0.06939 0.16904 0.93835 0.0
C1663 C 0.0411 0.17099 0.93739 0.0
H1664 H 0.17836 0.31107 0.84 0.0
H1665 H 0.09348 0.31594 0.7993 0.0
H1666 H 0.09063 0.26598 0.79848 0.0
H1667 H 0.11188 0.22029 0.81992 0.0
H1668 H 0.19668 0.21817 0.86533 0.0
H1669 H 0.19975 0.26699 0.85392 0.0
C1670 C 0.15924 0.3013 0.8298 0.0
C1671 C 0.13619 0.31758 0.81953 0.0
C1672 C 0.15765 0.27264 0.83116 0.0
C1673 C 0.11169 0.30423 0.80655 0.0
C1674 C 0.11002 0.2755 0.80687 0.0
C1675 C 0.1311 0.23047 0.82625 0.0
C1676 C 0.15404 0.21509 0.84362 0.0
C1677 C 0.13277 0.25935 0.82061 0.0
C1678 C 0.17862 0.22906 0.85229 0.0
C1679 C 0.18046 0.25719 0.84572 0.0
H1680 H 0.05647 0.8537 0.07225 0.0
H1681 H 0.06945 0.9396 0.09829 0.0
H1682 H 0.02128 0.94782 0.09441 0.0
H1683 H 0.97508 0.93094 0.09264 0.0
H1684 H 0.95965 0.84574 0.06547 0.0
H1685 H 1.00848 0.8371 0.0596 0.0
C1686 C 0.04874 0.87424 0.07514 0.0
C1687 C 0.06692 0.89599 0.08533 0.0
C1688 C 0.02032 0.87904 0.07332 0.0
C1689 C 0.05625 0.92243 0.09016 0.0
C1690 C 0.02852 0.92723 0.0883 0.0
C1691 C 0.98231 0.91047 0.08474 0.0
C1692 C 0.96357 0.88904 0.08001 0.0
C1693 C 1.01033 0.9057 0.0814 0.0
C1694 C 0.97348 0.86271 0.06912 0.0
C1695 C 1.00152 0.85774 0.0661 0.0
H1696 H 0.43268 0.71783 0.3635 0.0
H1697 H 0.34773 0.70118 0.34315 0.0
H1698 H 0.33797 0.75006 0.34591 0.0
H1699 H 0.35335 0.79812 0.35978 0.0
H1700 H 0.4376 0.81406 0.3918 0.0
H1701 H 0.44776 0.76556 0.38119 0.0
C1702 C 0.412 0.72491 0.35974 0.0
C1703 C 0.39091 0.70552 0.3548 0.0
C1704 C 0.40639 0.75323 0.36452 0.0
C1705 C 0.36433 0.71533 0.34863 0.0
C1706 C 0.35876 0.74343 0.35007 0.0
C1707 C 0.37387 0.7909 0.36558 0.0
C1708 C 0.3946 0.80994 0.37867 0.0
C1709 C 0.37951 0.76263 0.35967 0.0
C1710 C 0.42112 0.80004 0.38427 0.0
C1711 C 0.42699 0.77223 0.37685 0.0
H1712 H 0.54407 0.1089 0.6161 0.0
H1713 H 0.55855 0.19251 0.57319 0.0
H1714 H 0.50954 0.20002 0.56352 0.0
H1715 H 0.46171 0.18313 0.57258 0.0
H1716 H 0.44886 0.09889 0.61349 0.0
H1717 H 0.49742 0.09153 0.61938 0.0
C1718 C 0.53661 0.12885 0.60487 0.0
C1719 C 0.55535 0.15015 0.59612 0.0
C1720 C 0.50833 0.13298 0.59952 0.0
C1721 C 0.54494 0.17562 0.57987 0.0
C1722 C 0.51675 0.17996 0.57477 0.0
C1723 C 0.46955 0.16314 0.58259 0.0
C1724 C 0.45113 0.14182 0.59476 0.0
C1725 C 0.4981 0.15887 0.58525 0.0
C1726 C 0.46202 0.11596 0.60603 0.0
C1727 C 0.49005 0.11165 0.60895 0.0
H1728 H 0.93767 0.21413 0.81974 0.0
H1729 H 0.85586 0.196 0.86829 0.0
H1730 H 0.846 0.24442 0.87734 0.0
H1731 H 0.86064 0.29214 0.87313 0.0
H1732 H 0.94181 0.3114 0.82269 0.0
H1733 H 0.95174 0.26276 0.81109 0.0
C1734 C 0.91767 0.22084 0.83205 0.0
C1735 C 0.89781 0.20125 0.84553 0.0
C1736 C 0.912 0.24905 0.83649 0.0
C1737 C 0.87183 0.21042 0.85994 0.0
C1738 C 0.8661 0.23821 0.86464 0.0
C1739 C 0.88059 0.28574 0.86025 0.0
C1740 C 0.90053 0.30555 0.84971 0.0
C1741 C 0.88609 0.25773 0.85379 0.0
C1742 C 0.926 0.29674 0.83082 0.0
C1743 C 0.93172 0.26884 0.82457 0.0
H1744 H 0.67872 0.80212 0.32577 0.0
H1745 H 0.5969 0.81719 0.37851 0.0
H1746 H 0.5876 0.76831 0.37758 0.0
H1747 H 0.60414 0.72078 0.37002 0.0
H1748 H 0.68423 0.70571 0.30657 0.0
H1749 H 0.69269 0.75472 0.3019 0.0
C1750 C 0.65868 0.79469 0.33569 0.0
C1751 C 0.63849 0.81336 0.35235 0.0
C1752 C 0.65319 0.76644 0.33291 0.0
C1753 C 0.61269 0.80337 0.36529 0.0
C1754 C 0.60742 0.77534 0.36497 0.0
C1755 C 0.6231 0.72827 0.35336 0.0
C1756 C 0.6434 0.70953 0.3379 0.0
C1757 C 0.62764 0.75661 0.34985 0.0
C1758 C 0.66804 0.71961 0.31728 0.0
C1759 C 0.67299 0.7477 0.31534 0.0
H1760 H 0.92066 0.73463 0.16532 0.0
H1761 H 0.83426 0.73058 0.18235 0.0
H1762 H 0.83155 0.78018 0.18501 0.0
H1763 H 0.85369 0.82541 0.17961 0.0
H1764 H 0.94028 0.8295 0.16617 0.0
H1765 H 0.94305 0.77986 0.16519 0.0
C1766 C 0.90136 0.74466 0.17082 0.0
C1767 C 0.87768 0.72886 0.17389 0.0
C1768 C 0.89996 0.77344 0.1724 0.0
C1769 C 0.85276 0.74222 0.17988 0.0
C1770 C 0.8512 0.77066 0.18143 0.0
C1771 C 0.87309 0.81536 0.176 0.0
C1772 C 0.8967 0.8312 0.171 0.0
C1773 C 0.8746 0.78659 0.17692 0.0
C1774 C 0.92178 0.81783 0.1686 0.0
C1775 C 0.92339 0.78938 0.16841 0.0
H1776 H 0.59149 0.222 0.67346 0.0
H1777 H 0.67675 0.20797 0.69495 0.0
H1778 H 0.68506 0.25723 0.69559 0.0
H1779 H 0.66818 0.30533 0.6827 0.0
H1780 H 0.58297 0.31767 0.6535 0.0
H1781 H 0.57492 0.26896 0.66013 0.0
C1782 C 0.61191 0.2297 0.67833 0.0
C1783 C 0.63349 0.21095 0.68272 0.0
C1784 C 0.61669 0.25822 0.67584 0.0
C1785 C 0.65975 0.22162 0.69003 0.0
C1786 C 0.6645 0.24998 0.69067 0.0
C1787 C 0.64796 0.2973 0.67668 0.0
C1788 C 0.62628 0.31557 0.66596 0.0
C1789 C 0.64324 0.26866 0.68164 0.0
C1790 C 0.60016 0.30441 0.66037 0.0
C1791 C 0.59543 0.2764 0.66504 0.0
H1792 H 0.97051 0.43019 0.93286 0.0
H1793 H 0.95392 0.34444 0.92346 0.0
H1794 H 1.00246 0.33484 0.91775 0.0
H1795 H 0.05027 0.35075 0.91168 0.0
H1796 H 0.06645 0.43666 0.90977 0.0
H1797 H 0.01833 0.44615 0.923 0.0
C1798 C 0.97753 0.40939 0.92961 0.0
C1799 C 0.9582 0.3881 0.92718 0.0
C1800 C 1.00581 0.40401 0.92446 0.0
C1801 C 0.96799 0.36129 0.92393 0.0
C1802 C 0.99592 0.35578 0.92086 0.0
C1803 C 0.04327 0.37158 0.9137 0.0
C1804 C 0.06243 0.39291 0.90927 0.0
C1805 C 0.0151 0.37695 0.92 0.0
C1806 C 0.05259 0.41973 0.9122 0.0
C1807 C 0.02489 0.42519 0.92062 0.0
H1808 H 0.48231 0.67094 0.3983 0.0
H1809 H 0.46776 0.59093 0.4649 0.0
H1810 H 0.51658 0.58253 0.47041 0.0
H1811 H 0.56432 0.5979 0.45538 0.0
H1812 H 0.57833 0.68036 0.4035 0.0
H1813 H 0.52963 0.68801 0.39421 0.0
C1814 C 0.48983 0.65189 0.41535 0.0
C1815 C 0.47111 0.63172 0.43182 0.0
C1816 C 0.51818 0.6475 0.42019 0.0
C1817 C 0.48147 0.60706 0.45305 0.0
C1818 C 0.50953 0.60213 0.45557 0.0
C1819 C 0.55668 0.61731 0.44067 0.0
C1820 C 0.57529 0.63798 0.42597 0.0
C1821 C 0.52822 0.62207 0.43863 0.0
C1822 C 0.56473 0.66363 0.41171 0.0
C1823 C 0.53674 0.66813 0.40719 0.0
H1824 H 0.46836 0.35987 0.56068 0.0
H1825 H 0.4604 0.44197 0.62443 0.0
H1826 H 0.50923 0.44775 0.62212 0.0
H1827 H 0.55454 0.42885 0.60975 0.0
H1828 H 0.5642 0.34639 0.55034 0.0
H1829 H 0.51486 0.34166 0.54177 0.0
C1830 C 0.4772 0.37919 0.57288 0.0
C1831 C 0.46034 0.40053 0.59273 0.0
C1832 C 0.50586 0.38232 0.57243 0.0
C1833 C 0.47263 0.42521 0.60911 0.0
C1834 C 0.50069 0.42854 0.6079 0.0
C1835 C 0.54596 0.40985 0.59431 0.0
C1836 C 0.56338 0.38798 0.58099 0.0
C1837 C 0.51756 0.40711 0.59086 0.0
C1838 C 0.55159 0.36369 0.56048 0.0
C1839 C 0.52322 0.36092 0.55613 0.0
H1840 H 0.03856 0.67909 0.12342 0.0
H1841 H 0.05203 0.59898 0.0538 0.0
H1842 H 1.00316 0.59135 0.04715 0.0
H1843 H 0.95598 0.60678 0.06536 0.0
H1844 H 0.94245 0.68923 0.12028 0.0
H1845 H 0.99138 0.6971 0.12574 0.0
C1846 C 0.03077 0.66018 0.10567 0.0
C1847 C 0.0491 0.63953 0.08958 0.0
C1848 C 1.00242 0.65635 0.09943 0.0
C1849 C 0.03852 0.61525 0.06628 0.0
C1850 C 1.01048 0.61081 0.06285 0.0
C1851 C 0.96379 0.62639 0.07905 0.0
C1852 C 0.94548 0.64689 0.09623 0.0
C1853 C 0.99214 0.63102 0.08025 0.0
C1854 C 0.95601 0.67265 0.11016 0.0
C1855 C 0.98406 0.67724 0.1126 0.0
H1856 H 0.1099 0.57064 0.03188 0.0
H1857 H 0.18152 0.55017 0.12939 0.0
H1858 H 0.1823 0.50517 0.08418 0.0
H1859 H 0.16491 0.47243 0.01161 0.0
H1860 H 0.09523 0.49341 0.90781 0.0
H1861 H 0.09181 0.53697 0.95923 0.0
C1862 C 0.12524 0.55604 0.04434 0.0
C1863 C 0.14513 0.56368 0.08604 0.0
C1864 C 0.12637 0.5303 0.01557 0.0
C1865 C 0.16549 0.54474 0.09922 0.0
C1866 C 0.16614 0.51901 0.07265 0.0
C1867 C 0.14885 0.4864 1.00006 0.0
C1868 C 0.13047 0.47925 0.95496 0.0
C1869 C 0.14706 0.51168 0.02984 0.0
C1870 C 0.10992 0.49806 0.94145 0.0
C1871 C 0.10784 0.52309 0.97131 0.0
H1872 H 0.72196 0.94081 0.28234 0.0
H1873 H 0.71709 0.8586 0.34378 0.0
H1874 H 0.7594 0.84756 0.29359 0.0
H1875 H 0.79827 0.86183 0.2301 0.0
H1876 H 0.79896 0.94357 0.16447 0.0
H1877 H 0.75759 0.95386 0.21625 0.0
C1878 C 0.73009 0.92041 0.28512 0.0
C1879 C 0.71647 0.90081 0.31833 0.0
C1880 C 0.75361 0.91396 0.25396 0.0
C1881 C 0.72736 0.8744 0.32021 0.0
C1882 C 0.75145 0.868 0.29069 0.0
C1883 C 0.789 0.88168 0.22636 0.0
C1884 C 0.80186 0.90197 0.19315 0.0
C1885 C 0.76476 0.8876 0.25688 0.0
C1886 C 0.78972 0.92768 0.18968 0.0
C1887 C 0.76603 0.93362 0.21956 0.0
H1888 H 0.42013 0.47896 0.55082 0.0
H1889 H 0.33501 0.46494 0.57299 0.0
H1890 H 0.32481 0.50783 0.5244 0.0
H1891 H 0.33974 0.54854 0.47078 0.0
H1892 H 0.42478 0.56438 0.45286 0.0
H1893 H 0.43528 0.52167 0.50239 0.0
C1894 C 0.39936 0.48568 0.5464 0.0
C1895 C 0.3784 0.46891 0.56784 0.0
C1896 C 0.39359 0.51044 0.51717 0.0
C1897 C 0.35161 0.47766 0.55949 0.0
C1898 C 0.34576 0.50209 0.53062 0.0
C1899 C 0.36064 0.5426 0.47724 0.0
C1900 C 0.38141 0.5595 0.45553 0.0
C1901 C 0.36652 0.51846 0.50834 0.0
C1902 C 0.40829 0.55158 0.46648 0.0
C1903 C 0.4143 0.5272 0.49578 0.0
H1904 H 0.81967 0.15247 0.74236 0.0
H1905 H 0.79226 0.12662 0.90972 0.0
H1906 H 0.74537 0.12838 0.87511 0.0
H1907 H 0.71173 0.13537 0.7955 0.0
H1908 H 0.73988 0.1608 0.62852 0.0
H1909 H 0.78626 0.16098 0.66447 0.0
C1910 C 0.80351 0.14736 0.77168 0.0
C1911 C 0.80997 0.13971 0.82928 0.0
C1912 C 0.77639 0.14811 0.75112 0.0
C1913 C 0.78835 0.13315 0.86584 0.0
C1914 C 0.76134 0.1339 0.84571 0.0
C1915 C 0.72792 0.14108 0.76679 0.0
C1916 C 0.72176 0.14776 0.70832 0.0
C1917 C 0.75503 0.14114 0.7882 0.0
C1918 C 0.74347 0.15526 0.67293 0.0
C1919 C 0.77025 0.1554 0.69375 0.0
H1920 H 0.89166 0.5711 0.99223 0.0
H1921 H 0.88241 0.54019 0.16499 0.0
H1922 H 0.8852 0.49366 0.12758 0.0
H1923 H 0.8882 0.4614 0.04496 0.0
H1924 H 0.89541 0.49258 0.87215 0.0
H1925 H 0.89561 0.5389 0.91011 0.0
C1926 C 0.89028 0.55426 0.02203 0.0
C1927 C 0.88695 0.55961 0.08201 0.0
C1928 C 0.89134 0.52734 0.99982 0.0
C1929 C 0.88552 0.53715 0.1192 0.0
C1930 C 0.88681 0.51036 0.09751 0.0
C1931 C 0.88955 0.47822 0.01516 0.0
C1932 C 0.89115 0.47295 0.95466 0.0
C1933 C 0.88938 0.50514 0.03775 0.0
C1934 C 0.89382 0.49548 0.91812 0.0
C1935 C 0.89391 0.52219 0.94014 0.0
H1936 H 0.22689 0.08212 0.78381 0.0
H1937 H 0.22179 0.16637 0.83297 0.0
H1938 H 0.26584 0.17494 0.78747 0.0
H1939 H 0.30713 0.15765 0.73356 0.0
H1940 H 0.31058 0.07242 0.69061 0.0
H1941 H 0.26614 0.06547 0.73145 0.0
C1942 C 0.23534 0.10245 0.78485 0.0
C1943 C 0.22084 0.12342 0.8127 0.0
C1944 C 0.26049 0.10723 0.75799 0.0
C1945 C 0.23241 0.14961 0.81293 0.0
C1946 C 0.25763 0.15455 0.78625 0.0
C1947 C 0.29775 0.13778 0.73161 0.0
C1948 C 0.31207 0.11576 0.70602 0.0
C1949 C 0.27198 0.13351 0.75814 0.0
C1950 C 0.29992 0.08994 0.70749 0.0
C1951 C 0.27449 0.08581 0.73173 0.0
H1952 H 0.61202 0.5397 0.48477 0.0
H1953 H 0.69637 0.54975 0.4457 0.0
H1954 H 0.70715 0.50769 0.49598 0.0
H1955 H 0.69336 0.46804 0.55245 0.0
H1956 H 0.60932 0.45604 0.5913 0.0
H1957 H 0.59791 0.49855 0.54181 0.0
C1958 C 0.63265 0.53239 0.48648 0.0
C1959 C 0.65334 0.54798 0.46058 0.0
C1960 C 0.63893 0.50792 0.51678 0.0
C1961 C 0.68003 0.53831 0.46468 0.0
C1962 C 0.68626 0.51421 0.49382 0.0
C1963 C 0.67251 0.47475 0.55063 0.0
C1964 C 0.65239 0.45872 0.57689 0.0
C1965 C 0.66601 0.49894 0.52057 0.0
C1966 C 0.62546 0.46793 0.57298 0.0
C1967 C 0.61886 0.49224 0.54386 0.0
H1968 H 0.32019 0.85713 0.27488 0.0
H1969 H 0.29633 0.91233 0.41059 0.0
H1970 H 0.25192 0.91772 0.36345 0.0
H1971 H 0.22079 0.90872 0.2803 0.0
H1972 H 0.24501 0.85254 0.14643 0.0
H1973 H 0.28845 0.84618 0.19539 0.0
C1974 C 0.30522 0.87018 0.29473 0.0
C1975 C 0.31183 0.88425 0.34675 0.0
C1976 C 0.2799 0.87348 0.2668 0.0
C1977 C 0.29193 0.90093 0.3714 0.0
C1978 C 0.26658 0.90425 0.34388 0.0
C1979 C 0.23551 0.89507 0.26151 0.0
C1980 C 0.22947 0.8816 0.2083 0.0
C1981 C 0.26048 0.89099 0.29097 0.0
C1982 C 0.24896 0.86371 0.186 0.0
C1983 C 0.27386 0.85988 0.21448 0.0
H1984 H 0.61104 0.98613 0.46785 0.0
H1985 H 0.69717 0.97248 0.47515 0.0
H1986 H 0.70353 0.01469 0.52821 0.0
H1987 H 0.6857 0.05627 0.57098 0.0
H1988 H 0.60025 0.07212 0.56652 0.0
H1989 H 0.59254 0.02848 0.51598 0.0
C1990 C 0.63118 0.99256 0.48067 0.0
C1991 C 0.65363 0.97588 0.46667 0.0
C1992 C 0.63485 0.01721 0.51276 0.0
C1993 C 0.67948 0.98457 0.48481 0.0
C1994 C 0.6832 1.00882 0.51552 0.0
C1995 C 0.66528 0.05003 0.55974 0.0
C1996 C 0.64361 0.06742 0.57336 0.0
C1997 C 0.66116 0.02529 0.5298 0.0
C1998 C 0.61733 0.05903 0.55774 0.0
C1999 C 0.61298 0.03414 0.5281 0.0
H2000 H 0.20953 0.44467 0.76158 0.0
H2001 H 0.2079 0.36603 0.84177 0.0
H2002 H 0.25191 0.35529 0.79989 0.0
H2003 H 0.29153 0.36845 0.73919 0.0
H2004 H 0.28756 0.44283 0.64231 0.0
H2005 H 0.24491 0.4545 0.68951 0.0
C2006 C 0.21874 0.42515 0.77044 0.0
C2007 C 0.20586 0.40699 0.80908 0.0
C2008 C 0.24301 0.41811 0.74155 0.0
C2009 C 0.21793 0.38136 0.8167 0.0
C2010 C 0.24296 0.37493 0.79123 0.0
C2011 C 0.28113 0.38706 0.72773 0.0
C2012 C 0.29315 0.40487 0.68727 0.0
C2013 C 0.25584 0.39321 0.75367 0.0
C2014 C 0.27902 0.42867 0.67281 0.0
C2015 C 0.25463 0.43547 0.70033 0.0
H2016 H 0.8406 0.98016 0.02223 0.0
H2017 H 0.9222 0.96149 0.07478 0.0
H2018 H 0.93782 1.0045 0.03452 0.0
H2019 H 0.92846 0.04786 0.98331 0.0
H2020 H 0.84697 0.06628 0.92978 0.0
H2021 H 0.83139 0.02305 0.96948 0.0
C2022 C 0.8618 0.98557 0.02524 0.0
C2023 C 0.88 0.96767 0.05335 0.0
C2024 C 0.8708 1.01024 1.00041 0.0
C2025 C 0.90749 0.97497 0.05537 0.0
C2026 C 0.91652 0.99956 0.03158 0.0
C2027 C 0.90734 0.04219 0.97956 0.0
C2028 C 0.88909 0.06011 0.95171 0.0
C2029 C 0.89841 0.01736 1.00373 0.0
C2030 C 0.86167 0.05268 0.94897 0.0
C2031 C 0.85269 0.02801 0.97244 0.0
H2032 H 0.20611 0.64614 0.28412 0.0
H2033 H 0.23663 0.64881 0.11038 0.0
H2034 H 0.28289 0.64817 0.14836 0.0
H2035 H 0.31539 0.64466 0.23148 0.0
H2036 H 0.28401 0.63873 0.40438 0.0
H2037 H 0.23808 0.6423 0.36638 0.0
C2038 C 0.2227 0.64605 0.25405 0.0
C2039 C 0.21713 0.64685 0.19358 0.0
C2040 C 0.24957 0.64509 0.27648 0.0
C2041 C 0.23957 0.64806 0.15662 0.0
C2042 C 0.26632 0.64756 0.1786 0.0
C2043 C 0.29859 0.64424 0.26116 0.0
C2044 C 0.30384 0.64178 0.32164 0.0
C2045 C 0.27168 0.64572 0.23853 0.0
C2046 C 0.28129 0.64119 0.35832 0.0
C2047 C 0.25472 0.64301 0.33632 0.0
H2048 H 0.43231 0.96349 0.51716 0.0
H2049 H 0.35694 0.96382 0.42252 0.0
H2050 H 0.34772 1.01002 0.45851 0.0
H2051 H 0.36018 0.04978 0.52182 0.0
H2052 H 0.43274 0.04543 0.62653 0.0
H2053 H 0.44346 1.00143 0.58315 0.0
C2054 C 0.41392 0.97371 0.50367 0.0
C2055 C 0.39586 0.96019 0.46498 0.0
C2056 C 0.40796 0.99958 0.52772 0.0
C2057 C 0.37184 0.9738 0.44988 0.0
C2058 C 0.36637 1.00018 0.47147 0.0
C2059 C 0.37831 0.03924 0.53551 0.0
C2060 C 0.39559 0.05143 0.57804 0.0
C2061 C 0.38412 1.01321 0.51114 0.0
C2062 C 0.4189 0.03697 0.59459 0.0
C2063 C 0.42515 1.01169 0.56941 0.0
H2064 H 0.80239 0.5859 0.23311 0.0
H2065 H 0.80302 0.67206 0.20425 0.0
H2066 H 0.75961 0.67643 0.25444 0.0
H2067 H 0.72003 0.65482 0.30635 0.0
H2068 H 0.7249 0.56939 0.34514 0.0
H2069 H 0.76742 0.56601 0.29388 0.0
C2070 C 0.79298 0.6057 0.2371 0.0
C2071 C 0.80555 0.62834 0.21128 0.0
C2072 C 0.76891 0.60829 0.26953 0.0
C2073 C 0.79334 0.65391 0.22011 0.0
C2074 C 0.7686 0.65648 0.25002 0.0
C2075 C 0.73073 0.63565 0.30484 0.0
C2076 C 0.71892 0.61233 0.33045 0.0
C2077 C 0.75597 0.63373 0.27502 0.0
C2078 C 0.73325 0.5877 0.32661 0.0
C2079 C 0.75762 0.58564 0.29668 0.0
H2080 H 0.11603 0.04249 0.97863 0.0
H2081 H 0.19852 0.047 0.92128 0.0
H2082 H 0.20888 1.00442 0.96965 0.0
H2083 H 0.19562 0.96609 0.03019 0.0
H2084 H 0.11355 0.95915 0.0877 0.0
H2085 H 0.10221 1.00213 0.03941 0.0
C2086 C 0.13608 0.0338 0.97566 0.0
C2087 C 0.15636 0.04806 0.94492 0.0
C2088 C 0.14222 1.00897 1.00509 0.0
C2089 C 0.18239 0.0366 0.94352 0.0
C2090 C 0.18844 1.01221 0.97175 0.0
C2091 C 0.1752 0.97395 0.03264 0.0
C2092 C 0.15564 0.95922 0.06385 0.0
C2093 C 0.16871 0.99834 1.00324 0.0
C2094 C 0.12927 0.96999 0.06541 0.0
C2095 C 0.12272 0.99458 0.037 0.0
H2096 H 0.71884 0.41747 0.77013 0.0
H2097 H 0.73645 0.34378 0.6762 0.0
H2098 H 0.78062 0.34104 0.72504 0.0
H2099 H 0.81593 0.36098 0.79207 0.0
H2100 H 0.7989 0.43704 0.87694 0.0
H2101 H 0.75323 0.4369 0.83618 0.0
C2102 C 0.73216 0.40063 0.76029 0.0
C2103 C 0.72383 0.38089 0.71882 0.0
C2104 C 0.75788 0.39934 0.78822 0.0
C2105 C 0.74194 0.35945 0.70723 0.0
C2106 C 0.76735 0.35781 0.73557 0.0
C2107 C 0.80193 0.37707 0.80305 0.0
C2108 C 0.81075 0.39841 0.84044 0.0
C2109 C 0.77575 0.37771 0.77614 0.0
C2110 C 0.79255 0.41979 0.85083 0.0
C2111 C 0.76641 0.41993 0.82663 0.0
loop_
_geom_bond_atom_site_label_1
_geom_bond_atom_site_label_2
_geom_bond_distance
_geom_bond_site_symmetry_2
_ccdc_geom_bond_type
Eu0 N31 2.657 . S
Eu0 N38 2.609 . S
Eu0 O44 2.558 . S
Eu0 O45 2.612 . S
Eu0 O47 2.339 . S
Eu0 O48 2.563 . S
Eu0 O49 2.419 . S
Eu0 O51 2.380 . S
Eu0 O52 2.432 . S
Eu0 C64 2.848 . S
C1 C4 1.429 . S
C1 C5 1.411 1_554 S
C1 N8 1.377 . S
C2 C4 1.420 . S
C2 C6 1.423 1_554 S
C2 C14 1.392 . S
C3 C5 1.420 . S
C3 C6 1.351 . S
C3 H26 0.931 . S
C4 C1 1.429 . S
C4 C2 1.420 . S
C4 N12 1.362 . S
C5 C1 1.411 1_556 S
C5 C3 1.420 . S
C5 C10 1.395 . S
C6 C2 1.423 1_556 S
C6 C3 1.351 . S
C6 H18 0.930 . S
C7 C9 1.399 1_556 S
C7 C10 1.386 . S
C7 H19 0.930 . S
N8 C1 1.377 . S
N8 C9 1.321 . S
N8 Eu11 2.609 . S
C9 C7 1.399 1_554 S
C9 N8 1.321 . S
C9 H16 0.930 . S
C10 C5 1.395 . S
C10 C7 1.386 . S
C10 H29 0.930 . S
Eu11 N8 2.609 . S
Eu11 N12 2.657 . S
Eu11 O45 2.380 . S
Eu11 O46 2.432 . S
Eu11 O50 2.558 1_554 S
Eu11 O51 2.612 . S
Eu11 O53 2.339 . S
Eu11 O54 2.563 . S
Eu11 O55 2.419 1_554 S
Eu11 C75 2.848 1_554 S
N12 C4 1.362 . S
N12 Eu11 2.657 . S
N12 C13 1.334 . S
C13 N12 1.334 . S
C13 C15 1.413 . S
C13 H20 0.929 . S
C14 C2 1.392 . S
C14 C15 1.367 . S
C14 H22 0.930 . S
C15 C13 1.413 . S
C15 C14 1.367 . S
C15 H17 0.930 . S
H16 C9 0.930 . S
H17 C15 0.930 . S
H18 C6 0.930 . S
H19 C7 0.930 . S
H20 C13 0.929 . S
H21 C35 0.930 . S
H22 C14 0.930 . S
H23 C41 0.930 . S
H24 C32 0.929 . S
H25 C39 0.930 . S
H26 C3 0.931 . S
H27 C33 0.930 . S
H28 C66 0.930 . S
H29 C10 0.930 . S
H30 C65 0.931 . S
N31 Eu0 2.657 . S
N31 C32 1.334 . S
N31 C36 1.362 . S
C32 H24 0.929 . S
C32 N31 1.334 . S
C32 C35 1.413 . S
C33 H27 0.930 . S
C33 C34 1.392 . S
C33 C35 1.367 . S
C34 C33 1.392 . S
C34 C36 1.420 . S
C34 C66 1.423 . S
C35 H21 0.930 . S
C35 C32 1.413 . S
C35 C33 1.367 . S
C36 N31 1.362 . S
C36 C34 1.420 . S
C36 C40 1.429 . S
H37 C42 0.930 . S
N38 Eu0 2.609 . S
N38 C40 1.377 . S
N38 C41 1.321 . S
C39 H25 0.930 . S
C39 C41 1.400 . S
C39 C42 1.386 . S
C40 C36 1.429 . S
C40 N38 1.377 . S
C40 C43 1.411 . S
C41 H23 0.930 . S
C41 N38 1.321 . S
C41 C39 1.400 . S
C42 H37 0.930 . S
C42 C39 1.386 . S
C42 C43 1.395 . S
C43 C40 1.411 . S
C43 C42 1.395 . S
C43 C65 1.420 . S
O44 Eu0 2.558 . S
O44 C64 1.257 . S
O45 Eu0 2.612 . S
O45 Eu11 2.380 . S
O45 C56 1.276 . S
O46 Eu11 2.432 . S
O46 C63 1.264 . S
O47 Eu0 2.339 . S
O47 C63 1.254 . S
O48 Eu0 2.563 . S
O48 C56 1.235 . S
O49 Eu0 2.419 . S
O49 C64 1.249 . S
O50 Eu11 2.558 1_556 S
O50 C75 1.257 . S
O51 Eu0 2.380 . S
O51 Eu11 2.612 . S
O51 C67 1.276 . S
O52 Eu0 2.432 . S
O52 C74 1.264 . S
O53 Eu11 2.339 . S
O53 C74 1.254 . S
O54 Eu11 2.563 . S
O54 C67 1.235 . S
O55 Eu11 2.419 1_556 S
O55 C75 1.249 . S
C56 O45 1.276 . S
C56 O48 1.235 . S
C57 C59 1.393 . S
C57 C61 1.395 . S
C57 C64 1.492 . S
C58 C59 1.392 . S
C58 C60 1.386 . S
C59 C57 1.393 . S
C59 C58 1.392 . S
C59 H76 0.930 . S
C60 C58 1.386 . S
C60 C62 1.395 . S
C60 H77 0.930 . S
C61 C57 1.395 . S
C61 C62 1.379 . S
C61 H78 0.930 . S
C62 C60 1.395 . S
C62 C61 1.379 . S
C62 H79 0.930 . S
C63 O46 1.264 . S
C63 O47 1.254 . S
C64 Eu0 2.848 . S
C64 O44 1.257 . S
C64 O49 1.249 . S
C64 C57 1.492 . S
C65 H30 0.931 . S
C65 C43 1.420 . S
C65 C66 1.351 . S
C66 H28 0.930 . S
C66 C34 1.423 . S
C66 C65 1.351 . S
C67 O51 1.276 . S
C67 O54 1.235 . S
C68 C69 1.393 . S
C68 C72 1.395 . S
C68 C75 1.492 . S
C69 C68 1.393 . S
C69 C70 1.392 . S
C69 H80 0.930 . S
C70 C69 1.392 . S
C70 C71 1.386 . S
C71 C70 1.386 . S
C71 C73 1.395 . S
C71 H81 0.930 . S
C72 C68 1.395 . S
C72 C73 1.379 . S
C72 H82 0.930 . S
C73 C71 1.395 . S
C73 C72 1.379 . S
C73 H83 0.930 . S
C74 O52 1.264 . S
C74 O53 1.254 . S
C75 Eu11 2.848 1_556 S
C75 O50 1.257 . S
C75 O55 1.249 . S
C75 C68 1.492 . S
H76 C59 0.930 . S
H77 C60 0.930 . S
H78 C61 0.930 . S
H79 C62 0.930 . S
H80 C69 0.930 . S
H81 C71 0.930 . S
H82 C72 0.930 . S
H83 C73 0.930 . S
Eu84 N115 2.657 . S
Eu84 N122 2.609 . S
Eu84 O128 2.558 . S
Eu84 O129 2.612 . S
Eu84 O131 2.339 . S
Eu84 O132 2.563 . S
Eu84 O133 2.419 . S
Eu84 O135 2.380 . S
Eu84 O136 2.432 . S
Eu84 C148 2.848 . S
C85 C88 1.429 . S
C85 C89 1.411 . S
C85 N92 1.377 . S
C86 C88 1.420 . S
C86 C90 1.423 . S
C86 C98 1.392 . S
C87 C89 1.420 . S
C87 C90 1.351 . S
C87 H110 0.931 . S
C88 C85 1.429 . S
C88 C86 1.420 . S
C88 N96 1.362 . S
C89 C85 1.411 . S
C89 C87 1.420 . S
C89 C94 1.395 . S
C90 C86 1.423 . S
C90 C87 1.351 . S
C90 H102 0.930 . S
C91 C93 1.400 . S
C91 C94 1.386 . S
C91 H103 0.930 . S
N92 C85 1.377 . S
N92 C93 1.321 . S
N92 Eu95 2.609 . S
C93 C91 1.400 . S
C93 N92 1.321 . S
C93 H100 0.930 . S
C94 C89 1.395 . S
C94 C91 1.386 . S
C94 H113 0.930 . S
Eu95 N92 2.609 . S
Eu95 N96 2.657 . S
Eu95 O129 2.380 . S
Eu95 O130 2.432 . S
Eu95 O134 2.558 . S
Eu95 O135 2.612 . S
Eu95 O137 2.339 . S
Eu95 O138 2.563 . S
Eu95 O139 2.419 . S
Eu95 C159 2.848 . S
N96 C88 1.362 . S
N96 Eu95 2.657 . S
N96 C97 1.334 . S
C97 N96 1.334 . S
C97 C99 1.413 . S
C97 H104 0.929 . S
C98 C86 1.392 . S
C98 C99 1.367 . S
C98 H106 0.930 . S
C99 C97 1.413 . S
C99 C98 1.367 . S
C99 H101 0.930 . S
H100 C93 0.930 . S
H101 C99 0.930 . S
H102 C90 0.930 . S
H103 C91 0.930 . S
H104 C97 0.929 . S
H105 C119 0.930 . S
H106 C98 0.930 . S
H107 C125 0.930 . S
H108 C116 0.929 . S
H109 C123 0.930 . S
H110 C87 0.931 . S
H111 C117 0.930 . S
H112 C150 0.930 . S
H113 C94 0.930 . S
H114 C149 0.931 . S
N115 Eu84 2.657 . S
N115 C116 1.334 . S
N115 C120 1.362 . S
C116 H108 0.929 . S
C116 N115 1.334 . S
C116 C119 1.413 . S
C117 H111 0.930 . S
C117 C118 1.392 . S
C117 C119 1.367 . S
C118 C117 1.392 . S
C118 C120 1.420 . S
C118 C150 1.423 . S
C119 H105 0.930 . S
C119 C116 1.413 . S
C119 C117 1.367 . S
C120 N115 1.362 . S
C120 C118 1.420 . S
C120 C124 1.429 . S
H121 C126 0.930 . S
N122 Eu84 2.609 . S
N122 C124 1.377 . S
N122 C125 1.321 . S
C123 H109 0.930 . S
C123 C125 1.400 . S
C123 C126 1.386 . S
C124 C120 1.429 . S
C124 N122 1.377 . S
C124 C127 1.411 . S
C125 H107 0.930 . S
C125 N122 1.321 . S
C125 C123 1.400 . S
C126 H121 0.930 . S
C126 C123 1.386 . S
C126 C127 1.395 . S
C127 C124 1.411 . S
C127 C126 1.395 . S
C127 C149 1.420 . S
O128 Eu84 2.558 . S
O128 C148 1.257 . S
O129 Eu84 2.612 . S
O129 Eu95 2.380 . S
O129 C140 1.276 . S
O130 Eu95 2.432 . S
O130 C147 1.264 . S
O131 Eu84 2.339 . S
O131 C147 1.254 . S
O132 Eu84 2.563 . S
O132 C140 1.235 . S
O133 Eu84 2.419 . S
O133 C148 1.249 . S
O134 Eu95 2.558 . S
O134 C159 1.257 . S
O135 Eu84 2.380 . S
O135 Eu95 2.612 . S
O135 C151 1.276 . S
O136 Eu84 2.432 . S
O136 C158 1.264 . S
O137 Eu95 2.339 . S
O137 C158 1.254 . S
O138 Eu95 2.563 . S
O138 C151 1.235 . S
O139 Eu95 2.419 . S
O139 C159 1.249 . S
C140 O129 1.276 . S
C140 O132 1.235 . S
C141 C143 1.393 . S
C141 C145 1.395 . S
C141 C148 1.492 . S
C142 C143 1.392 . S
C142 C144 1.386 . S
C143 C141 1.393 . S
C143 C142 1.392 . S
C143 H160 0.930 . S
C144 C142 1.386 . S
C144 C146 1.395 . S
C144 H161 0.930 . S
C145 C141 1.395 . S
C145 C146 1.379 . S
C145 H162 0.930 . S
C146 C144 1.395 . S
C146 C145 1.379 . S
C146 H163 0.930 . S
C147 O130 1.264 . S
C147 O131 1.254 . S
C148 Eu84 2.848 . S
C148 O128 1.257 . S
C148 O133 1.249 . S
C148 C141 1.492 . S
C149 H114 0.931 . S
C149 C127 1.420 . S
C149 C150 1.351 . S
C150 H112 0.930 . S
C150 C118 1.423 . S
C150 C149 1.351 . S
C151 O135 1.276 . S
C151 O138 1.235 . S
C152 C153 1.393 . S
C152 C156 1.395 . S
C152 C159 1.492 . S
C153 C152 1.393 . S
C153 C154 1.392 . S
C153 H164 0.930 . S
C154 C153 1.392 . S
C154 C155 1.386 1_554 S
C155 C154 1.386 1_556 S
C155 C157 1.395 1_556 S
C155 H165 0.930 . S
C156 C152 1.395 . S
C156 C157 1.379 . S
C156 H166 0.930 . S
C157 C155 1.395 1_554 S
C157 C156 1.379 . S
C157 H167 0.930 . S
C158 O136 1.264 . S
C158 O137 1.254 . S
C159 Eu95 2.848 . S
C159 O134 1.257 . S
C159 O139 1.249 . S
C159 C152 1.492 . S
H160 C143 0.930 . S
H161 C144 0.930 . S
H162 C145 0.930 . S
H163 C146 0.930 . S
H164 C153 0.930 . S
H165 C155 0.930 . S
H166 C156 0.930 . S
H167 C157 0.930 . S
Eu168 N199 2.657 . S
Eu168 N206 2.609 . S
Eu168 O212 2.558 . S
Eu168 O213 2.612 . S
Eu168 O215 2.339 . S
Eu168 O216 2.563 . S
Eu168 O217 2.419 . S
Eu168 O219 2.380 . S
Eu168 O220 2.432 . S
Eu168 C232 2.848 . S
C169 C172 1.429 . S
C169 C173 1.411 . S
C169 N176 1.377 . S
C170 C172 1.420 . S
C170 C174 1.423 . S
C170 C182 1.392 . S
C171 C173 1.420 . S
C171 C174 1.351 . S
C171 H194 0.931 . S
C172 C169 1.429 . S
C172 C170 1.420 . S
C172 N180 1.362 . S
C173 C169 1.411 . S
C173 C171 1.420 . S
C173 C178 1.395 . S
C174 C170 1.423 . S
C174 C171 1.351 . S
C174 H186 0.930 . S
C175 C177 1.400 . S
C175 C178 1.386 . S
C175 H187 0.930 . S
N176 C169 1.377 . S
N176 C177 1.321 . S
N176 Eu179 2.609 . S
C177 C175 1.400 . S
C177 N176 1.321 . S
C177 H184 0.930 . S
C178 C173 1.395 . S
C178 C175 1.386 . S
C178 H197 0.930 . S
Eu179 N176 2.609 . S
Eu179 N180 2.657 . S
Eu179 O213 2.380 . S
Eu179 O214 2.432 . S
Eu179 O218 2.558 . S
Eu179 O219 2.612 . S
Eu179 O221 2.339 . S
Eu179 O222 2.563 . S
Eu179 O223 2.419 . S
Eu179 C243 2.848 . S
N180 C172 1.362 . S
N180 Eu179 2.657 . S
N180 C181 1.334 . S
C181 N180 1.334 . S
C181 C183 1.413 . S
C181 H188 0.929 . S
C182 C170 1.392 . S
C182 C183 1.367 . S
C182 H190 0.930 . S
C183 C181 1.413 . S
C183 C182 1.367 . S
C183 H185 0.930 . S
H184 C177 0.930 . S
H185 C183 0.930 . S
H186 C174 0.930 . S
H187 C175 0.930 . S
H188 C181 0.929 . S
H189 C203 0.930 . S
H190 C182 0.930 . S
H191 C209 0.930 . S
H192 C200 0.929 . S
H193 C207 0.930 . S
H194 C171 0.931 . S
H195 C201 0.930 . S
H196 C234 0.930 . S
H197 C178 0.930 . S
H198 C233 0.931 . S
N199 Eu168 2.657 . S
N199 C200 1.334 . S
N199 C204 1.362 . S
C200 H192 0.929 . S
C200 N199 1.334 . S
C200 C203 1.413 . S
C201 H195 0.930 . S
C201 C202 1.392 . S
C201 C203 1.367 . S
C202 C201 1.392 . S
C202 C204 1.420 . S
C202 C234 1.423 . S
C203 H189 0.930 . S
C203 C200 1.413 . S
C203 C201 1.367 . S
C204 N199 1.362 . S
C204 C202 1.420 . S
C204 C208 1.429 . S
H205 C210 0.930 . S
N206 Eu168 2.609 . S
N206 C208 1.377 . S
N206 C209 1.321 . S
C207 H193 0.930 . S
C207 C209 1.400 . S
C207 C210 1.386 . S
C208 C204 1.429 . S
C208 N206 1.377 . S
C208 C211 1.411 . S
C209 H191 0.930 . S
C209 N206 1.321 . S
C209 C207 1.400 . S
C210 H205 0.930 . S
C210 C207 1.386 . S
C210 C211 1.395 . S
C211 C208 1.411 . S
C211 C210 1.395 . S
C211 C233 1.420 . S
O212 Eu168 2.558 . S
O212 C232 1.257 . S
O213 Eu168 2.612 . S
O213 Eu179 2.380 . S
O213 C224 1.276 . S
O214 Eu179 2.432 . S
O214 C231 1.264 . S
O215 Eu168 2.339 . S
O215 C231 1.254 . S
O216 Eu168 2.563 . S
O216 C224 1.235 . S
O217 Eu168 2.419 . S
O217 C232 1.249 . S
O218 Eu179 2.558 . S
O218 C243 1.257 . S
O219 Eu168 2.380 . S
O219 Eu179 2.612 . S
O219 C235 1.276 . S
O220 Eu168 2.432 . S
O220 C242 1.264 . S
O221 Eu179 2.339 . S
O221 C242 1.254 . S
O222 Eu179 2.563 . S
O222 C235 1.235 . S
O223 Eu179 2.419 . S
O223 C243 1.249 . S
C224 O213 1.276 . S
C224 O216 1.235 . S
C225 C227 1.393 . S
C225 C229 1.395 . S
C225 C232 1.492 . S
C226 C227 1.392 . S
C226 C228 1.386 . S
C227 C225 1.393 . S
C227 C226 1.392 . S
C227 H244 0.930 . S
C228 C226 1.386 . S
C228 C230 1.395 . S
C228 H245 0.930 1_556 S
C229 C225 1.395 . S
C229 C230 1.379 . S
C229 H246 0.930 . S
C230 C228 1.395 . S
C230 C229 1.379 . S
C230 H247 0.930 . S
C231 O214 1.264 . S
C231 O215 1.254 . S
C232 Eu168 2.848 . S
C232 O212 1.257 . S
C232 O217 1.249 . S
C232 C225 1.492 . S
C233 H198 0.931 . S
C233 C211 1.420 . S
C233 C234 1.351 . S
C234 H196 0.930 . S
C234 C202 1.423 . S
C234 C233 1.351 . S
C235 O219 1.276 . S
C235 O222 1.235 . S
C236 C237 1.393 . S
C236 C240 1.395 . S
C236 C243 1.492 . S
C237 C236 1.393 . S
C237 C238 1.392 . S
C237 H248 0.930 . S
C238 C237 1.392 . S
C238 C239 1.386 . S
C239 C238 1.386 . S
C239 C241 1.395 . S
C239 H249 0.930 . S
C240 C236 1.395 . S
C240 C241 1.379 . S
C240 H250 0.930 . S
C241 C239 1.395 . S
C241 C240 1.379 . S
C241 H251 0.930 . S
C242 O220 1.264 . S
C242 O221 1.254 . S
C243 Eu179 2.848 . S
C243 O218 1.257 . S
C243 O223 1.249 . S
C243 C236 1.492 . S
H244 C227 0.930 . S
H245 C228 0.930 1_554 S
H246 C229 0.930 . S
H247 C230 0.930 . S
H248 C237 0.930 . S
H249 C239 0.930 . S
H250 C240 0.930 . S
H251 C241 0.930 . S
Eu252 N283 2.657 . S
Eu252 N290 2.609 . S
Eu252 O296 2.558 . S
Eu252 O297 2.612 . S
Eu252 O299 2.339 . S
Eu252 O300 2.563 . S
Eu252 O301 2.419 . S
Eu252 O303 2.380 . S
Eu252 O304 2.432 . S
Eu252 C316 2.848 . S
C253 C256 1.429 . S
C253 C257 1.411 1_556 S
C253 N260 1.377 . S
C254 C256 1.420 . S
C254 C258 1.423 1_556 S
C254 C266 1.392 . S
C255 C257 1.420 . S
C255 C258 1.351 . S
C255 H278 0.931 . S
C256 C253 1.429 . S
C256 C254 1.420 . S
C256 N264 1.362 . S
C257 C253 1.411 1_554 S
C257 C255 1.420 . S
C257 C262 1.395 . S
C258 C254 1.423 1_554 S
C258 C255 1.351 . S
C258 H270 0.930 . S
C259 C261 1.400 1_554 S
C259 C262 1.386 . S
C259 H271 0.930 . S
N260 C253 1.377 . S
N260 C261 1.321 . S
N260 Eu263 2.609 . S
C261 C259 1.400 1_556 S
C261 N260 1.321 . S
C261 H268 0.930 . S
C262 C257 1.395 . S
C262 C259 1.386 . S
C262 H281 0.930 . S
Eu263 N260 2.609 . S
Eu263 N264 2.657 . S
Eu263 O297 2.380 . S
Eu263 O298 2.432 . S
Eu263 O302 2.558 1_556 S
Eu263 O303 2.612 . S
Eu263 O305 2.339 . S
Eu263 O306 2.563 . S
Eu263 O307 2.419 1_556 S
Eu263 C327 2.848 1_556 S
N264 C256 1.362 . S
N264 Eu263 2.657 . S
N264 C265 1.334 . S
C265 N264 1.334 . S
C265 C267 1.413 . S
C265 H272 0.929 . S
C266 C254 1.392 . S
C266 C267 1.367 . S
C266 H274 0.930 . S
C267 C265 1.413 . S
C267 C266 1.367 . S
C267 H269 0.930 . S
H268 C261 0.930 . S
H269 C267 0.930 . S
H270 C258 0.930 . S
H271 C259 0.930 . S
H272 C265 0.929 . S
H273 C287 0.930 . S
H274 C266 0.930 . S
H275 C293 0.930 . S
H276 C284 0.929 . S
H277 C291 0.930 . S
H278 C255 0.931 . S
H279 C285 0.930 1_565 S
H280 C318 0.930 . S
H281 C262 0.930 . S
H282 C317 0.931 . S
N283 Eu252 2.657 . S
N283 C284 1.334 . S
N283 C288 1.362 . S
C284 H276 0.929 . S
C284 N283 1.334 . S
C284 C287 1.413 . S
C285 H279 0.930 1_545 S
C285 C286 1.392 . S
C285 C287 1.367 . S
C286 C285 1.392 . S
C286 C288 1.420 . S
C286 C318 1.423 1_545 S
C287 H273 0.930 . S
C287 C284 1.413 . S
C287 C285 1.367 . S
C288 N283 1.362 . S
C288 C286 1.420 . S
C288 C292 1.429 . S
H289 C294 0.930 . S
N290 Eu252 2.609 . S
N290 C292 1.377 . S
N290 C293 1.321 . S
C291 H277 0.930 . S
C291 C293 1.400 . S
C291 C294 1.386 . S
C292 C288 1.429 . S
C292 N290 1.377 . S
C292 C295 1.411 . S
C293 H275 0.930 . S
C293 N290 1.321 . S
C293 C291 1.400 . S
C294 H289 0.930 . S
C294 C291 1.386 . S
C294 C295 1.395 . S
C295 C292 1.411 . S
C295 C294 1.395 . S
C295 C317 1.420 1_545 S
O296 Eu252 2.558 . S
O296 C316 1.257 . S
O297 Eu252 2.612 . S
O297 Eu263 2.380 . S
O297 C308 1.276 . S
O298 Eu263 2.432 . S
O298 C315 1.264 . S
O299 Eu252 2.339 . S
O299 C315 1.254 . S
O300 Eu252 2.563 . S
O300 C308 1.235 . S
O301 Eu252 2.419 . S
O301 C316 1.249 . S
O302 Eu263 2.558 1_554 S
O302 C327 1.257 . S
O303 Eu252 2.380 . S
O303 Eu263 2.612 . S
O303 C319 1.276 . S
O304 Eu252 2.432 . S
O304 C326 1.264 . S
O305 Eu263 2.339 . S
O305 C326 1.254 . S
O306 Eu263 2.563 . S
O306 C319 1.235 . S
O307 Eu263 2.419 1_554 S
O307 C327 1.249 . S
C308 O297 1.276 . S
C308 O300 1.235 . S
C309 C311 1.393 . S
C309 C313 1.395 . S
C309 C316 1.492 . S
C310 C311 1.392 . S
C310 C312 1.386 . S
C311 C309 1.393 . S
C311 C310 1.392 . S
C311 H328 0.930 . S
C312 C310 1.386 . S
C312 C314 1.395 . S
C312 H329 0.930 . S
C313 C309 1.395 . S
C313 C314 1.379 . S
C313 H330 0.930 . S
C314 C312 1.395 . S
C314 C313 1.379 . S
C314 H331 0.930 . S
C315 O298 1.264 . S
C315 O299 1.254 . S
C316 Eu252 2.848 . S
C316 O296 1.257 . S
C316 O301 1.249 . S
C316 C309 1.492 . S
C317 H282 0.931 . S
C317 C295 1.420 1_565 S
C317 C318 1.351 . S
C318 H280 0.930 . S
C318 C286 1.423 1_565 S
C318 C317 1.351 . S
C319 O303 1.276 . S
C319 O306 1.235 . S
C320 C321 1.393 . S
C320 C324 1.395 . S
C320 C327 1.492 . S
C321 C320 1.393 . S
C321 C322 1.392 . S
C321 H332 0.930 . S
C322 C321 1.392 . S
C322 C323 1.386 . S
C323 C322 1.386 . S
C323 C325 1.395 . S
C323 H333 0.930 . S
C324 C320 1.395 . S
C324 C325 1.379 . S
C324 H334 0.930 . S
C325 C323 1.395 . S
C325 C324 1.379 . S
C325 H335 0.930 . S
C326 O304 1.264 . S
C326 O305 1.254 . S
C327 Eu263 2.848 1_554 S
C327 O302 1.257 . S
C327 O307 1.249 . S
C327 C320 1.492 . S
H328 C311 0.930 . S
H329 C312 0.930 . S
H330 C313 0.930 . S
H331 C314 0.930 . S
H332 C321 0.930 . S
H333 C323 0.930 . S
H334 C324 0.930 . S
H335 C325 0.930 . S
Eu336 N367 2.657 . S
Eu336 N374 2.609 . S
Eu336 O380 2.558 1_556 S
Eu336 O381 2.612 . S
Eu336 O383 2.339 . S
Eu336 O384 2.563 . S
Eu336 O385 2.419 1_556 S
Eu336 O387 2.380 . S
Eu336 O388 2.432 . S
Eu336 C400 2.848 1_556 S
C337 C340 1.429 . S
C337 C341 1.411 . S
C337 N344 1.377 . S
C338 C340 1.420 . S
C338 C342 1.423 . S
C338 C350 1.392 . S
C339 C341 1.420 . S
C339 C342 1.351 . S
C339 H362 0.931 1_455 S
C340 C337 1.429 . S
C340 C338 1.420 . S
C340 N348 1.362 . S
C341 C337 1.411 . S
C341 C339 1.420 . S
C341 C346 1.395 . S
C342 C338 1.423 . S
C342 C339 1.351 . S
C342 H354 0.930 1_455 S
C343 C345 1.400 . S
C343 C346 1.386 . S
C343 H355 0.930 . S
N344 C337 1.377 . S
N344 C345 1.321 . S
N344 Eu347 2.609 . S
C345 C343 1.400 . S
C345 N344 1.321 . S
C345 H352 0.930 . S
C346 C341 1.395 . S
C346 C343 1.386 . S
C346 H365 0.930 . S
Eu347 N344 2.609 . S
Eu347 N348 2.657 . S
Eu347 O381 2.380 . S
Eu347 O382 2.432 . S
Eu347 O386 2.558 . S
Eu347 O387 2.612 . S
Eu347 O389 2.339 . S
Eu347 O390 2.563 . S
Eu347 O391 2.419 . S
Eu347 C411 2.848 . S
N348 C340 1.362 . S
N348 Eu347 2.657 . S
N348 C349 1.334 . S
C349 N348 1.334 . S
C349 C351 1.413 . S
C349 H356 0.929 . S
C350 C338 1.392 . S
C350 C351 1.367 . S
C350 H358 0.928 1_455 S
C351 C349 1.413 . S
C351 C350 1.367 . S
C351 H353 0.930 . S
H352 C345 0.930 . S
H353 C351 0.930 . S
H354 C342 0.930 1_655 S
H355 C343 0.930 . S
H356 C349 0.929 . S
H357 C371 0.930 . S
H358 C350 0.928 1_655 S
H359 C377 0.930 . S
H360 C368 0.929 . S
H361 C375 0.930 . S
H362 C339 0.931 1_655 S
H363 C369 0.930 . S
H364 C402 0.930 . S
H365 C346 0.930 . S
H366 C401 0.931 . S
N367 Eu336 2.657 . S
N367 C368 1.334 . S
N367 C372 1.362 . S
C368 H360 0.929 . S
C368 N367 1.334 . S
C368 C371 1.413 . S
C369 H363 0.930 . S
C369 C370 1.392 . S
C369 C371 1.367 . S
C370 C369 1.392 . S
C370 C372 1.420 . S
C370 C402 1.423 1_556 S
C371 H357 0.930 . S
C371 C368 1.413 . S
C371 C369 1.367 . S
C372 N367 1.362 . S
C372 C370 1.420 . S
C372 C376 1.429 . S
H373 C378 0.930 . S
N374 Eu336 2.609 . S
N374 C376 1.377 . S
N374 C377 1.321 . S
C375 H361 0.930 . S
C375 C377 1.400 1_554 S
C375 C378 1.386 . S
C376 C372 1.429 . S
C376 N374 1.377 . S
C376 C379 1.411 1_556 S
C377 H359 0.930 . S
C377 N374 1.321 . S
C377 C375 1.400 1_556 S
C378 H373 0.930 . S
C378 C375 1.386 . S
C378 C379 1.395 . S
C379 C376 1.411 1_554 S
C379 C378 1.395 . S
C379 C401 1.420 . S
O380 Eu336 2.558 1_554 S
O380 C400 1.257 . S
O381 Eu336 2.612 . S
O381 Eu347 2.380 . S
O381 C392 1.276 . S
O382 Eu347 2.432 . S
O382 C399 1.264 . S
O383 Eu336 2.339 . S
O383 C399 1.254 . S
O384 Eu336 2.563 . S
O384 C392 1.235 . S
O385 Eu336 2.419 1_554 S
O385 C400 1.249 . S
O386 Eu347 2.558 . S
O386 C411 1.257 . S
O387 Eu336 2.380 . S
O387 Eu347 2.612 . S
O387 C403 1.276 . S
O388 Eu336 2.432 . S
O388 C410 1.264 . S
O389 Eu347 2.339 . S
O389 C410 1.254 . S
O390 Eu347 2.563 . S
O390 C403 1.235 . S
O391 Eu347 2.419 . S
O391 C411 1.249 . S
C392 O381 1.276 . S
C392 O384 1.235 . S
C393 C395 1.393 . S
C393 C397 1.395 . S
C393 C400 1.492 . S
C394 C395 1.392 . S
C394 C396 1.386 . S
C395 C393 1.393 . S
C395 C394 1.392 . S
C395 H412 0.930 . S
C396 C394 1.386 . S
C396 C398 1.395 . S
C396 H413 0.930 . S
C397 C393 1.395 . S
C397 C398 1.379 . S
C397 H414 0.930 . S
C398 C396 1.395 . S
C398 C397 1.379 . S
C398 H415 0.930 . S
C399 O382 1.264 . S
C399 O383 1.254 . S
C400 Eu336 2.848 1_554 S
C400 O380 1.257 . S
C400 O385 1.249 . S
C400 C393 1.492 . S
C401 H366 0.931 . S
C401 C379 1.420 . S
C401 C402 1.351 . S
C402 H364 0.930 . S
C402 C370 1.423 1_554 S
C402 C401 1.351 . S
C403 O387 1.276 . S
C403 O390 1.235 . S
C404 C405 1.393 . S
C404 C408 1.395 . S
C404 C411 1.492 . S
C405 C404 1.393 . S
C405 C406 1.392 . S
C405 H416 0.930 . S
C406 C405 1.392 . S
C406 C407 1.386 . S
C407 C406 1.386 . S
C407 C409 1.395 . S
C407 H417 0.930 . S
C408 C404 1.395 . S
C408 C409 1.379 . S
C408 H418 0.930 . S
C409 C407 1.395 . S
C409 C408 1.379 . S
C409 H419 0.930 . S
C410 O388 1.264 . S
C410 O389 1.254 . S
C411 Eu347 2.848 . S
C411 O386 1.257 . S
C411 O391 1.249 . S
C411 C404 1.492 . S
H412 C395 0.930 . S
H413 C396 0.930 . S
H414 C397 0.930 . S
H415 C398 0.930 . S
H416 C405 0.930 . S
H417 C407 0.930 . S
H418 C408 0.930 . S
H419 C409 0.930 . S
Eu420 N451 2.657 . S
Eu420 N458 2.609 . S
Eu420 O464 2.558 . S
Eu420 O465 2.612 . S
Eu420 O467 2.339 . S
Eu420 O468 2.563 . S
Eu420 O469 2.419 . S
Eu420 O471 2.380 . S
Eu420 O472 2.432 . S
Eu420 C484 2.848 . S
C421 C424 1.429 . S
C421 C425 1.411 1_554 S
C421 N428 1.377 . S
C422 C424 1.420 . S
C422 C426 1.423 1_554 S
C422 C434 1.392 . S
C423 C425 1.420 . S
C423 C426 1.351 . S
C423 H446 0.931 . S
C424 C421 1.429 . S
C424 C422 1.420 . S
C424 N432 1.362 . S
C425 C421 1.411 1_556 S
C425 C423 1.420 . S
C425 C430 1.395 . S
C426 C422 1.423 1_556 S
C426 C423 1.351 . S
C426 H438 0.930 . S
C427 C429 1.400 1_556 S
C427 C430 1.386 . S
C427 H439 0.930 . S
N428 C421 1.377 . S
N428 C429 1.321 . S
N428 Eu431 2.609 . S
C429 C427 1.400 1_554 S
C429 N428 1.321 . S
C429 H436 0.930 . S
C430 C425 1.395 . S
C430 C427 1.386 . S
C430 H449 0.930 . S
Eu431 N428 2.609 . S
Eu431 N432 2.657 . S
Eu431 O465 2.380 . S
Eu431 O466 2.432 . S
Eu431 O470 2.558 1_554 S
Eu431 O471 2.612 . S
Eu431 O473 2.339 . S
Eu431 O474 2.563 . S
Eu431 O475 2.419 1_554 S
Eu431 C495 2.848 1_554 S
N432 C424 1.362 . S
N432 Eu431 2.657 . S
N432 C433 1.334 . S
C433 N432 1.334 . S
C433 C435 1.413 . S
C433 H440 0.929 . S
C434 C422 1.392 . S
C434 C435 1.367 . S
C434 H442 0.930 . S
C435 C433 1.413 . S
C435 C434 1.367 . S
C435 H437 0.930 . S
H436 C429 0.930 . S
H437 C435 0.930 . S
H438 C426 0.930 . S
H439 C427 0.930 . S
H440 C433 0.929 . S
H441 C455 0.930 . S
H442 C434 0.930 . S
H443 C461 0.930 . S
H444 C452 0.929 . S
H445 C459 0.930 . S
H446 C423 0.931 . S
H447 C453 0.930 1_545 S
H448 C486 0.930 . S
H449 C430 0.930 . S
H450 C485 0.931 . S
N451 Eu420 2.657 . S
N451 C452 1.334 . S
N451 C456 1.362 . S
C452 H444 0.929 . S
C452 N451 1.334 . S
C452 C455 1.413 . S
C453 H447 0.930 1_565 S
C453 C454 1.392 . S
C453 C455 1.367 . S
C454 C453 1.392 . S
C454 C456 1.420 . S
C454 C486 1.423 1_565 S
C455 H441 0.930 . S
C455 C452 1.413 . S
C455 C453 1.367 . S
C456 N451 1.362 . S
C456 C454 1.420 . S
C456 C460 1.429 . S
H457 C462 0.930 . S
N458 Eu420 2.609 . S
N458 C460 1.377 . S
N458 C461 1.321 . S
C459 H445 0.930 . S
C459 C461 1.400 . S
C459 C462 1.386 . S
C460 C456 1.429 . S
C460 N458 1.377 . S
C460 C463 1.411 . S
C461 H443 0.930 . S
C461 N458 1.321 . S
C461 C459 1.400 . S
C462 H457 0.930 . S
C462 C459 1.386 . S
C462 C463 1.395 . S
C463 C460 1.411 . S
C463 C462 1.395 . S
C463 C485 1.420 1_565 S
O464 Eu420 2.558 . S
O464 C484 1.257 . S
O465 Eu420 2.612 . S
O465 Eu431 2.380 . S
O465 C476 1.276 . S
O466 Eu431 2.432 . S
O466 C483 1.264 . S
O467 Eu420 2.339 . S
O467 C483 1.254 . S
O468 Eu420 2.563 . S
O468 C476 1.235 . S
O469 Eu420 2.419 . S
O469 C484 1.249 . S
O470 Eu431 2.558 1_556 S
O470 C495 1.257 . S
O471 Eu420 2.380 . S
O471 Eu431 2.612 . S
O471 C487 1.276 . S
O472 Eu420 2.432 . S
O472 C494 1.264 . S
O473 Eu431 2.339 . S
O473 C494 1.254 . S
O474 Eu431 2.563 . S
O474 C487 1.235 . S
O475 Eu431 2.419 1_556 S
O475 C495 1.249 . S
C476 O465 1.276 . S
C476 O468 1.235 . S
C477 C479 1.393 . S
C477 C481 1.395 . S
C477 C484 1.492 . S
C478 C479 1.392 . S
C478 C480 1.386 . S
C479 C477 1.393 . S
C479 C478 1.392 . S
C479 H496 0.930 . S
C480 C478 1.386 . S
C480 C482 1.395 . S
C480 H497 0.930 . S
C481 C477 1.395 . S
C481 C482 1.379 . S
C481 H498 0.930 . S
C482 C480 1.395 . S
C482 C481 1.379 . S
C482 H499 0.930 . S
C483 O466 1.264 . S
C483 O467 1.254 . S
C484 Eu420 2.848 . S
C484 O464 1.257 . S
C484 O469 1.249 . S
C484 C477 1.492 . S
C485 H450 0.931 . S
C485 C463 1.420 1_545 S
C485 C486 1.351 . S
C486 H448 0.930 . S
C486 C454 1.423 1_545 S
C486 C485 1.351 . S
C487 O471 1.276 . S
C487 O474 1.235 . S
C488 C489 1.393 . S
C488 C492 1.395 . S
C488 C495 1.492 . S
C489 C488 1.393 . S
C489 C490 1.392 . S
C489 H500 0.930 . S
C490 C489 1.392 . S
C490 C491 1.386 . S
C491 C490 1.386 . S
C491 C493 1.395 . S
C491 H501 0.930 . S
C492 C488 1.395 . S
C492 C493 1.379 . S
C492 H502 0.930 . S
C493 C491 1.395 . S
C493 C492 1.379 . S
C493 H503 0.930 . S
C494 O472 1.264 . S
C494 O473 1.254 . S
C495 Eu431 2.848 1_556 S
C495 O470 1.257 . S
C495 O475 1.249 . S
C495 C488 1.492 . S
H496 C479 0.930 . S
H497 C480 0.930 . S
H498 C481 0.930 . S
H499 C482 0.930 . S
H500 C489 0.930 . S
H501 C491 0.930 . S
H502 C492 0.930 . S
H503 C493 0.930 . S
Eu504 N535 2.657 . S
Eu504 N542 2.609 . S
Eu504 O548 2.558 . S
Eu504 O549 2.612 . S
Eu504 O551 2.339 . S
Eu504 O552 2.563 . S
Eu504 O553 2.419 . S
Eu504 O555 2.380 . S
Eu504 O556 2.432 . S
Eu504 C568 2.848 . S
C505 C508 1.429 . S
C505 C509 1.411 . S
C505 N512 1.377 . S
C506 C508 1.420 . S
C506 C510 1.423 . S
C506 C518 1.392 . S
C507 C509 1.420 . S
C507 C510 1.351 . S
C507 H530 0.931 . S
C508 C505 1.429 . S
C508 C506 1.420 . S
C508 N516 1.362 . S
C509 C505 1.411 . S
C509 C507 1.420 . S
C509 C514 1.395 . S
C510 C506 1.423 . S
C510 C507 1.351 . S
C510 H522 0.930 . S
C511 C513 1.400 . S
C511 C514 1.386 . S
C511 H523 0.930 . S
N512 C505 1.377 . S
N512 C513 1.321 . S
N512 Eu515 2.609 . S
C513 C511 1.400 . S
C513 N512 1.321 . S
C513 H520 0.930 . S
C514 C509 1.395 . S
C514 C511 1.386 . S
C514 H533 0.930 . S
Eu515 N512 2.609 . S
Eu515 N516 2.657 . S
Eu515 O549 2.380 . S
Eu515 O550 2.432 . S
Eu515 O554 2.558 . S
Eu515 O555 2.612 . S
Eu515 O557 2.339 . S
Eu515 O558 2.563 . S
Eu515 O559 2.419 . S
Eu515 C579 2.848 . S
N516 C508 1.362 . S
N516 Eu515 2.657 . S
N516 C517 1.334 . S
C517 N516 1.334 . S
C517 C519 1.413 . S
C517 H524 0.929 . S
C518 C506 1.392 . S
C518 C519 1.367 . S
C518 H526 0.930 . S
C519 C517 1.413 . S
C519 C518 1.367 . S
C519 H521 0.930 . S
H520 C513 0.930 . S
H521 C519 0.930 . S
H522 C510 0.930 . S
H523 C511 0.930 . S
H524 C517 0.929 . S
H525 C539 0.930 . S
H526 C518 0.930 . S
H527 C545 0.930 . S
H528 C536 0.929 . S
H529 C543 0.930 . S
H530 C507 0.931 . S
H531 C537 0.930 . S
H532 C570 0.930 . S
H533 C514 0.930 . S
H534 C569 0.931 . S
N535 Eu504 2.657 . S
N535 C536 1.334 . S
N535 C540 1.362 . S
C536 H528 0.929 . S
C536 N535 1.334 . S
C536 C539 1.413 . S
C537 H531 0.930 . S
C537 C538 1.392 . S
C537 C539 1.367 . S
C538 C537 1.392 . S
C538 C540 1.420 . S
C538 C570 1.423 . S
C539 H525 0.930 . S
C539 C536 1.413 . S
C539 C537 1.367 . S
C540 N535 1.362 . S
C540 C538 1.420 . S
C540 C544 1.429 . S
H541 C546 0.930 . S
N542 Eu504 2.609 . S
N542 C544 1.377 . S
N542 C545 1.321 . S
C543 H529 0.930 . S
C543 C545 1.400 . S
C543 C546 1.386 . S
C544 C540 1.429 . S
C544 N542 1.377 . S
C544 C547 1.411 . S
C545 H527 0.930 . S
C545 N542 1.321 . S
C545 C543 1.400 . S
C546 H541 0.930 . S
C546 C543 1.386 . S
C546 C547 1.395 . S
C547 C544 1.411 . S
C547 C546 1.395 . S
C547 C569 1.420 . S
O548 Eu504 2.558 . S
O548 C568 1.257 . S
O549 Eu504 2.612 . S
O549 Eu515 2.380 . S
O549 C560 1.276 . S
O550 Eu515 2.432 . S
O550 C567 1.264 . S
O551 Eu504 2.339 . S
O551 C567 1.254 . S
O552 Eu504 2.563 . S
O552 C560 1.235 . S
O553 Eu504 2.419 . S
O553 C568 1.249 . S
O554 Eu515 2.558 . S
O554 C579 1.257 . S
O555 Eu504 2.380 . S
O555 Eu515 2.612 . S
O555 C571 1.276 . S
O556 Eu504 2.432 . S
O556 C578 1.264 . S
O557 Eu515 2.339 . S
O557 C578 1.254 . S
O558 Eu515 2.563 . S
O558 C571 1.235 . S
O559 Eu515 2.419 . S
O559 C579 1.249 . S
C560 O549 1.276 . S
C560 O552 1.235 . S
C561 C563 1.393 . S
C561 C565 1.395 . S
C561 C568 1.492 . S
C562 C563 1.392 . S
C562 C564 1.386 1_554 S
C563 C561 1.393 . S
C563 C562 1.392 . S
C563 H580 0.930 . S
C564 C562 1.386 1_556 S
C564 C566 1.395 1_556 S
C564 H581 0.930 . S
C565 C561 1.395 . S
C565 C566 1.379 . S
C565 H582 0.930 . S
C566 C564 1.395 1_554 S
C566 C565 1.379 . S
C566 H583 0.930 . S
C567 O550 1.264 . S
C567 O551 1.254 . S
C568 Eu504 2.848 . S
C568 O548 1.257 . S
C568 O553 1.249 . S
C568 C561 1.492 . S
C569 H534 0.931 . S
C569 C547 1.420 . S
C569 C570 1.351 . S
C570 H532 0.930 . S
C570 C538 1.423 . S
C570 C569 1.351 . S
C571 O555 1.276 . S
C571 O558 1.235 . S
C572 C573 1.393 . S
C572 C576 1.395 . S
C572 C579 1.492 . S
C573 C572 1.393 . S
C573 C574 1.392 . S
C573 H584 0.930 . S
C574 C573 1.392 . S
C574 C575 1.386 . S
C575 C574 1.386 . S
C575 C577 1.395 . S
C575 H585 0.930 . S
C576 C572 1.395 . S
C576 C577 1.379 . S
C576 H586 0.930 . S
C577 C575 1.395 . S
C577 C576 1.379 . S
C577 H587 0.930 . S
C578 O556 1.264 . S
C578 O557 1.254 . S
C579 Eu515 2.848 . S
C579 O554 1.257 . S
C579 O559 1.249 . S
C579 C572 1.492 . S
H580 C563 0.930 . S
H581 C564 0.930 . S
H582 C565 0.930 . S
H583 C566 0.930 . S
H584 C573 0.930 . S
H585 C575 0.930 . S
H586 C576 0.930 . S
H587 C577 0.930 . S
Eu588 N619 2.657 . S
Eu588 N626 2.609 . S
Eu588 O632 2.558 . S
Eu588 O633 2.612 . S
Eu588 O635 2.339 . S
Eu588 O636 2.563 . S
Eu588 O637 2.419 . S
Eu588 O639 2.380 . S
Eu588 O640 2.432 . S
Eu588 C652 2.848 . S
C589 C592 1.429 . S
C589 C593 1.411 . S
C589 N596 1.377 . S
C590 C592 1.420 . S
C590 C594 1.423 . S
C590 C602 1.392 . S
C591 C593 1.420 . S
C591 C594 1.351 . S
C591 H614 0.931 . S
C592 C589 1.429 . S
C592 C590 1.420 . S
C592 N600 1.362 . S
C593 C589 1.411 . S
C593 C591 1.420 . S
C593 C598 1.395 . S
C594 C590 1.423 . S
C594 C591 1.351 . S
C594 H606 0.930 . S
C595 C597 1.400 . S
C595 C598 1.386 . S
C595 H607 0.930 . S
N596 C589 1.377 . S
N596 C597 1.321 . S
N596 Eu599 2.609 . S
C597 C595 1.400 . S
C597 N596 1.321 . S
C597 H604 0.930 . S
C598 C593 1.395 . S
C598 C595 1.386 . S
C598 H617 0.930 . S
Eu599 N596 2.609 . S
Eu599 N600 2.657 . S
Eu599 O633 2.380 . S
Eu599 O634 2.432 . S
Eu599 O638 2.558 . S
Eu599 O639 2.612 . S
Eu599 O641 2.339 . S
Eu599 O642 2.563 . S
Eu599 O643 2.419 . S
Eu599 C663 2.848 . S
N600 C592 1.362 . S
N600 Eu599 2.657 . S
N600 C601 1.334 . S
C601 N600 1.334 . S
C601 C603 1.413 . S
C601 H608 0.929 . S
C602 C590 1.392 . S
C602 C603 1.367 . S
C602 H610 0.930 . S
C603 C601 1.413 . S
C603 C602 1.367 . S
C603 H605 0.930 . S
H604 C597 0.930 . S
H605 C603 0.930 . S
H606 C594 0.930 . S
H607 C595 0.930 . S
H608 C601 0.929 . S
H609 C623 0.930 . S
H610 C602 0.930 . S
H611 C629 0.930 . S
H612 C620 0.929 . S
H613 C627 0.930 . S
H614 C591 0.931 . S
H615 C621 0.930 1_565 S
H616 C654 0.930 . S
H617 C598 0.930 . S
H618 C653 0.907 1_565 S
N619 Eu588 2.657 . S
N619 C620 1.334 . S
N619 C624 1.362 . S
C620 H612 0.929 . S
C620 N619 1.334 . S
C620 C623 1.413 . S
C621 H615 0.930 1_545 S
C621 C622 1.392 . S
C621 C623 1.367 . S
C622 C621 1.392 . S
C622 C624 1.420 . S
C622 C654 1.423 1_545 S
C623 H609 0.930 . S
C623 C620 1.413 . S
C623 C621 1.367 . S
C624 N619 1.362 . S
C624 C622 1.420 . S
C624 C628 1.429 . S
H625 C630 0.930 . S
N626 Eu588 2.609 . S
N626 C628 1.377 . S
N626 C629 1.321 . S
C627 H613 0.930 . S
C627 C629 1.400 . S
C627 C630 1.386 . S
C628 C624 1.429 . S
C628 N626 1.377 . S
C628 C631 1.411 . S
C629 H611 0.930 . S
C629 N626 1.321 . S
C629 C627 1.400 . S
C630 H625 0.930 . S
C630 C627 1.386 . S
C630 C631 1.395 . S
C631 C628 1.411 . S
C631 C630 1.395 . S
C631 C653 1.453 . S
O632 Eu588 2.558 . S
O632 C652 1.257 . S
O633 Eu588 2.612 . S
O633 Eu599 2.380 . S
O633 C644 1.276 . S
O634 Eu599 2.432 . S
O634 C651 1.264 . S
O635 Eu588 2.339 . S
O635 C651 1.254 . S
O636 Eu588 2.563 . S
O636 C644 1.235 . S
O637 Eu588 2.419 . S
O637 C652 1.249 . S
O638 Eu599 2.558 . S
O638 C663 1.257 . S
O639 Eu588 2.380 . S
O639 Eu599 2.612 . S
O639 C655 1.276 . S
O640 Eu588 2.432 . S
O640 C662 1.264 . S
O641 Eu599 2.339 . S
O641 C662 1.254 . S
O642 Eu599 2.563 . S
O642 C655 1.235 . S
O643 Eu599 2.419 . S
O643 C663 1.249 . S
C644 O633 1.276 . S
C644 O636 1.235 . S
C645 C647 1.393 . S
C645 C649 1.395 . S
C645 C652 1.492 . S
C646 C647 1.392 . S
C646 C648 1.386 . S
C647 C645 1.393 . S
C647 C646 1.392 . S
C647 H664 0.930 . S
C648 C646 1.386 . S
C648 C650 1.395 . S
C648 H665 0.930 1_556 S
C649 C645 1.395 . S
C649 C650 1.379 . S
C649 H666 0.930 . S
C650 C648 1.395 . S
C650 C649 1.379 . S
C650 H667 0.930 . S
C651 O634 1.264 . S
C651 O635 1.254 . S
C652 Eu588 2.848 . S
C652 O632 1.257 . S
C652 O637 1.249 . S
C652 C645 1.492 . S
C653 H618 0.907 1_545 S
C653 C631 1.453 . S
C653 C654 1.342 1_545 S
C654 H616 0.930 . S
C654 C622 1.423 1_565 S
C654 C653 1.342 1_565 S
C655 O639 1.276 . S
C655 O642 1.235 . S
C656 C657 1.393 . S
C656 C660 1.395 . S
C656 C663 1.492 . S
C657 C656 1.393 . S
C657 C658 1.392 . S
C657 H668 0.930 . S
C658 C657 1.392 . S
C658 C659 1.386 . S
C659 C658 1.386 . S
C659 C661 1.395 . S
C659 H669 0.930 . S
C660 C656 1.395 . S
C660 C661 1.379 . S
C660 H670 0.930 . S
C661 C659 1.395 . S
C661 C660 1.379 . S
C661 H671 0.930 . S
C662 O640 1.264 . S
C662 O641 1.254 . S
C663 Eu599 2.848 . S
C663 O638 1.257 . S
C663 O643 1.249 . S
C663 C656 1.492 . S
H664 C647 0.930 . S
H665 C648 0.930 1_554 S
H666 C649 0.930 . S
H667 C650 0.930 . S
H668 C657 0.930 . S
H669 C659 0.930 . S
H670 C660 0.930 . S
H671 C661 0.930 . S
Eu672 N703 2.657 . S
Eu672 N710 2.609 . S
Eu672 O716 2.558 . S
Eu672 O717 2.612 . S
Eu672 O719 2.339 . S
Eu672 O720 2.563 . S
Eu672 O721 2.419 . S
Eu672 O723 2.380 . S
Eu672 O724 2.432 . S
Eu672 C736 2.848 . S
C673 C676 1.429 . S
C673 C677 1.411 1_556 S
C673 N680 1.377 . S
C674 C676 1.420 . S
C674 C678 1.419 1_556 S
C674 C686 1.392 . S
C675 C677 1.420 . S
C675 C678 1.353 . S
C675 H698 0.931 . S
C676 C673 1.429 . S
C676 C674 1.420 . S
C676 N684 1.362 . S
C677 C673 1.411 1_554 S
C677 C675 1.420 . S
C677 C682 1.395 . S
C678 C674 1.419 1_554 S
C678 C675 1.353 . S
C678 H690 0.932 . S
C679 C681 1.405 . S
C679 C682 1.382 1_556 S
C679 H691 0.928 1_556 S
N680 C673 1.377 . S
N680 C681 1.321 . S
N680 Eu683 2.609 . S
C681 C679 1.405 . S
C681 N680 1.321 . S
C681 H688 0.930 . S
C682 C677 1.395 . S
C682 C679 1.382 1_554 S
C682 H701 0.930 . S
Eu683 N680 2.609 . S
Eu683 N684 2.657 . S
Eu683 O717 2.380 . S
Eu683 O718 2.432 . S
Eu683 O722 2.558 1_556 S
Eu683 O723 2.612 . S
Eu683 O725 2.339 . S
Eu683 O726 2.563 . S
Eu683 O727 2.419 1_556 S
Eu683 C747 2.848 1_556 S
N684 C676 1.362 . S
N684 Eu683 2.657 . S
N684 C685 1.334 . S
C685 N684 1.334 . S
C685 C687 1.413 . S
C685 H692 0.929 . S
C686 C674 1.392 . S
C686 C687 1.367 . S
C686 H694 0.930 . S
C687 C685 1.413 . S
C687 C686 1.367 . S
C687 H689 0.930 . S
H688 C681 0.930 . S
H689 C687 0.930 . S
H690 C678 0.932 . S
H691 C679 0.928 1_554 S
H692 C685 0.929 . S
H693 C707 0.930 . S
H694 C686 0.930 . S
H695 C713 0.930 . S
H696 C704 0.929 . S
H697 C711 0.930 . S
H698 C675 0.931 . S
H699 C705 0.914 1_455 S
H700 C738 0.930 1_455 S
H701 C682 0.930 . S
H702 C737 0.931 1_455 S
N703 Eu672 2.657 . S
N703 C704 1.334 . S
N703 C708 1.362 . S
C704 H696 0.929 . S
C704 N703 1.334 . S
C704 C707 1.413 . S
C705 H699 0.914 1_655 S
C705 C706 1.392 . S
C705 C707 1.367 . S
C706 C705 1.392 . S
C706 C708 1.420 . S
C706 C738 1.423 . S
C707 H693 0.930 . S
C707 C704 1.413 . S
C707 C705 1.367 . S
C708 N703 1.362 . S
C708 C706 1.420 . S
C708 C712 1.429 . S
H709 C714 0.930 . S
N710 Eu672 2.609 . S
N710 C712 1.377 . S
N710 C713 1.321 . S
C711 H697 0.930 . S
C711 C713 1.400 . S
C711 C714 1.386 . S
C712 C708 1.429 . S
C712 N710 1.377 . S
C712 C715 1.411 . S
C713 H695 0.930 . S
C713 N710 1.321 . S
C713 C711 1.400 . S
C714 H709 0.930 . S
C714 C711 1.386 . S
C714 C715 1.395 . S
C715 C712 1.411 . S
C715 C714 1.395 . S
C715 C737 1.420 . S
O716 Eu672 2.558 . S
O716 C736 1.257 . S
O717 Eu672 2.612 . S
O717 Eu683 2.380 . S
O717 C728 1.276 . S
O718 Eu683 2.432 . S
O718 C735 1.264 . S
O719 Eu672 2.339 . S
O719 C735 1.254 . S
O720 Eu672 2.563 . S
O720 C728 1.235 . S
O721 Eu672 2.419 . S
O721 C736 1.249 . S
O722 Eu683 2.558 1_554 S
O722 C747 1.257 . S
O723 Eu672 2.380 . S
O723 Eu683 2.612 . S
O723 C739 1.276 . S
O724 Eu672 2.432 . S
O724 C746 1.264 . S
O725 Eu683 2.339 . S
O725 C746 1.254 . S
O726 Eu683 2.563 . S
O726 C739 1.235 . S
O727 Eu683 2.419 1_554 S
O727 C747 1.249 . S
C728 O717 1.276 . S
C728 O720 1.235 . S
C729 C731 1.393 . S
C729 C733 1.395 . S
C729 C736 1.492 . S
C730 C731 1.392 . S
C730 C732 1.386 . S
C731 C729 1.393 . S
C731 C730 1.392 . S
C731 H748 0.930 . S
C732 C730 1.386 . S
C732 C734 1.395 . S
C732 H749 0.930 . S
C733 C729 1.395 . S
C733 C734 1.379 . S
C733 H750 0.930 . S
C734 C732 1.395 . S
C734 C733 1.379 . S
C734 H751 0.930 . S
C735 O718 1.264 . S
C735 O719 1.254 . S
C736 Eu672 2.848 . S
C736 O716 1.257 . S
C736 O721 1.249 . S
C736 C729 1.492 . S
C737 H702 0.931 1_655 S
C737 C715 1.420 . S
C737 C738 1.351 . S
C738 H700 0.930 1_655 S
C738 C706 1.423 . S
C738 C737 1.351 . S
C739 O723 1.276 . S
C739 O726 1.235 . S
C740 C741 1.393 . S
C740 C744 1.395 . S
C740 C747 1.492 . S
C741 C740 1.393 . S
C741 C742 1.392 . S
C741 H752 0.930 . S
C742 C741 1.392 . S
C742 C743 1.386 . S
C743 C742 1.386 . S
C743 C745 1.395 . S
C743 H753 0.930 . S
C744 C740 1.395 . S
C744 C745 1.379 . S
C744 H754 0.930 . S
C745 C743 1.395 . S
C745 C744 1.379 . S
C745 H755 0.930 . S
C746 O724 1.264 . S
C746 O725 1.254 . S
C747 Eu683 2.848 1_554 S
C747 O722 1.257 . S
C747 O727 1.249 . S
C747 C740 1.492 . S
H748 C731 0.930 . S
H749 C732 0.930 . S
H750 C733 0.930 . S
H751 C734 0.930 . S
H752 C741 0.930 . S
H753 C743 0.930 . S
H754 C744 0.930 . S
H755 C745 0.930 . S
Eu756 N787 2.657 . S
Eu756 N794 2.609 . S
Eu756 O800 2.558 . S
Eu756 O801 2.612 . S
Eu756 O803 2.339 . S
Eu756 O804 2.563 . S
Eu756 O805 2.419 . S
Eu756 O807 2.380 . S
Eu756 O808 2.432 . S
Eu756 C820 2.848 . S
C757 C760 1.429 . S
C757 C761 1.411 . S
C757 N764 1.377 . S
C758 C760 1.420 . S
C758 C762 1.423 . S
C758 C770 1.392 . S
C759 C761 1.420 . S
C759 C762 1.351 . S
C759 H782 0.931 . S
C760 C757 1.429 . S
C760 C758 1.420 . S
C760 N768 1.362 . S
C761 C757 1.411 . S
C761 C759 1.420 . S
C761 C766 1.395 . S
C762 C758 1.423 . S
C762 C759 1.351 . S
C762 H774 0.930 . S
C763 C765 1.400 . S
C763 C766 1.386 . S
C763 H775 0.930 . S
N764 C757 1.377 . S
N764 C765 1.321 . S
N764 Eu767 2.609 . S
C765 C763 1.400 . S
C765 N764 1.321 . S
C765 H772 0.930 . S
C766 C761 1.395 . S
C766 C763 1.386 . S
C766 H785 0.930 . S
Eu767 N764 2.609 . S
Eu767 N768 2.657 . S
Eu767 O801 2.380 . S
Eu767 O802 2.432 . S
Eu767 O806 2.558 . S
Eu767 O807 2.612 . S
Eu767 O809 2.339 . S
Eu767 O810 2.563 . S
Eu767 O811 2.419 . S
Eu767 C831 2.848 . S
N768 C760 1.362 . S
N768 Eu767 2.657 . S
N768 C769 1.334 . S
C769 N768 1.334 . S
C769 C771 1.413 . S
C769 H776 0.929 . S
C770 C758 1.392 . S
C770 C771 1.367 . S
C770 H778 0.930 . S
C771 C769 1.413 . S
C771 C770 1.367 . S
C771 H773 0.930 . S
H772 C765 0.930 . S
H773 C771 0.930 . S
H774 C762 0.930 . S
H775 C763 0.930 . S
H776 C769 0.929 . S
H777 C791 0.930 . S
H778 C770 0.930 . S
H779 C797 0.930 . S
H780 C788 0.929 . S
H781 C795 0.930 . S
H782 C759 0.931 . S
H783 C789 0.930 . S
H784 C822 0.930 . S
H785 C766 0.930 . S
H786 C821 0.931 . S
N787 Eu756 2.657 . S
N787 C788 1.334 . S
N787 C792 1.362 . S
C788 H780 0.929 . S
C788 N787 1.334 . S
C788 C791 1.413 . S
C789 H783 0.930 . S
C789 C790 1.392 . S
C789 C791 1.367 . S
C790 C789 1.392 . S
C790 C792 1.420 . S
C790 C822 1.423 . S
C791 H777 0.930 . S
C791 C788 1.413 . S
C791 C789 1.367 . S
C792 N787 1.362 . S
C792 C790 1.420 . S
C792 C796 1.429 . S
H793 C798 0.930 . S
N794 Eu756 2.609 . S
N794 C796 1.377 . S
N794 C797 1.321 . S
C795 H781 0.930 . S
C795 C797 1.400 . S
C795 C798 1.386 . S
C796 C792 1.429 . S
C796 N794 1.377 . S
C796 C799 1.411 . S
C797 H779 0.930 . S
C797 N794 1.321 . S
C797 C795 1.400 . S
C798 H793 0.930 . S
C798 C795 1.386 . S
C798 C799 1.395 . S
C799 C796 1.411 . S
C799 C798 1.395 . S
C799 C821 1.420 . S
O800 Eu756 2.558 . S
O800 C820 1.257 . S
O801 Eu756 2.612 . S
O801 Eu767 2.380 . S
O801 C812 1.276 . S
O802 Eu767 2.432 . S
O802 C819 1.264 . S
O803 Eu756 2.339 . S
O803 C819 1.254 . S
O804 Eu756 2.563 . S
O804 C812 1.235 . S
O805 Eu756 2.419 . S
O805 C820 1.249 . S
O806 Eu767 2.558 . S
O806 C831 1.257 . S
O807 Eu756 2.380 . S
O807 Eu767 2.612 . S
O807 C823 1.276 . S
O808 Eu756 2.432 . S
O808 C830 1.264 . S
O809 Eu767 2.339 . S
O809 C830 1.254 . S
O810 Eu767 2.563 . S
O810 C823 1.235 . S
O811 Eu767 2.419 . S
O811 C831 1.249 . S
C812 O801 1.276 . S
C812 O804 1.235 . S
C813 C815 1.393 . S
C813 C817 1.395 . S
C813 C820 1.492 . S
C814 C815 1.392 . S
C814 C816 1.386 1_556 S
C815 C813 1.393 . S
C815 C814 1.392 . S
C815 H832 0.930 . S
C816 C814 1.386 1_554 S
C816 C818 1.395 1_554 S
C816 H833 0.930 . S
C817 C813 1.395 . S
C817 C818 1.379 . S
C817 H834 0.930 . S
C818 C816 1.395 1_556 S
C818 C817 1.379 . S
C818 H835 0.930 . S
C819 O802 1.264 . S
C819 O803 1.254 . S
C820 Eu756 2.848 . S
C820 O800 1.257 . S
C820 O805 1.249 . S
C820 C813 1.492 . S
C821 H786 0.931 . S
C821 C799 1.420 . S
C821 C822 1.351 . S
C822 H784 0.930 . S
C822 C790 1.423 . S
C822 C821 1.351 . S
C823 O807 1.276 . S
C823 O810 1.235 . S
C824 C825 1.393 . S
C824 C828 1.395 . S
C824 C831 1.492 . S
C825 C824 1.393 . S
C825 C826 1.392 . S
C825 H836 0.930 . S
C826 C825 1.392 . S
C826 C827 1.386 . S
C827 C826 1.386 . S
C827 C829 1.395 . S
C827 H837 0.930 . S
C828 C824 1.395 . S
C828 C829 1.379 . S
C828 H838 0.930 . S
C829 C827 1.395 . S
C829 C828 1.379 . S
C829 H839 0.930 . S
C830 O808 1.264 . S
C830 O809 1.254 . S
C831 Eu767 2.848 . S
C831 O806 1.257 . S
C831 O811 1.249 . S
C831 C824 1.492 . S
H832 C815 0.930 . S
H833 C816 0.930 . S
H834 C817 0.930 . S
H835 C818 0.930 . S
H836 C825 0.930 . S
H837 C827 0.930 . S
H838 C828 0.930 . S
H839 C829 0.930 . S
Eu840 N871 2.657 . S
Eu840 N878 2.609 . S
Eu840 O884 2.558 . S
Eu840 O885 2.612 . S
Eu840 O887 2.339 . S
Eu840 O888 2.563 . S
Eu840 O889 2.419 . S
Eu840 O891 2.380 . S
Eu840 O892 2.432 . S
Eu840 C904 2.848 . S
C841 C844 1.429 . S
C841 C845 1.411 . S
C841 N848 1.377 . S
C842 C844 1.420 . S
C842 C846 1.423 . S
C842 C854 1.392 . S
C843 C845 1.420 . S
C843 C846 1.351 . S
C843 H866 0.931 . S
C844 C841 1.429 . S
C844 C842 1.420 . S
C844 N852 1.362 . S
C845 C841 1.411 . S
C845 C843 1.420 . S
C845 C850 1.395 . S
C846 C842 1.423 . S
C846 C843 1.351 . S
C846 H858 0.930 . S
C847 C849 1.400 . S
C847 C850 1.386 . S
C847 H859 0.930 . S
N848 C841 1.377 . S
N848 C849 1.321 . S
N848 Eu851 2.609 . S
C849 C847 1.400 . S
C849 N848 1.321 . S
C849 H856 0.930 . S
C850 C845 1.395 . S
C850 C847 1.386 . S
C850 H869 0.930 . S
Eu851 N848 2.609 . S
Eu851 N852 2.657 . S
Eu851 O885 2.380 . S
Eu851 O886 2.432 . S
Eu851 O890 2.558 . S
Eu851 O891 2.612 . S
Eu851 O893 2.339 . S
Eu851 O894 2.563 . S
Eu851 O895 2.419 . S
Eu851 C915 2.848 . S
N852 C844 1.362 . S
N852 Eu851 2.657 . S
N852 C853 1.334 . S
C853 N852 1.334 . S
C853 C855 1.413 . S
C853 H860 0.929 . S
C854 C842 1.392 . S
C854 C855 1.367 . S
C854 H862 0.930 . S
C855 C853 1.413 . S
C855 C854 1.367 . S
C855 H857 0.930 . S
H856 C849 0.930 . S
H857 C855 0.930 . S
H858 C846 0.930 . S
H859 C847 0.930 . S
H860 C853 0.929 . S
H861 C875 0.930 . S
H862 C854 0.930 . S
H863 C881 0.930 . S
H864 C872 0.929 . S
H865 C879 0.930 . S
H866 C843 0.931 . S
H867 C873 0.930 . S
H868 C906 0.930 . S
H869 C850 0.930 . S
H870 C905 0.931 . S
N871 Eu840 2.657 . S
N871 C872 1.334 . S
N871 C876 1.362 . S
C872 H864 0.929 . S
C872 N871 1.334 . S
C872 C875 1.413 . S
C873 H867 0.930 . S
C873 C874 1.392 . S
C873 C875 1.367 . S
C874 C873 1.392 . S
C874 C876 1.420 . S
C874 C906 1.423 . S
C875 H861 0.930 . S
C875 C872 1.413 . S
C875 C873 1.367 . S
C876 N871 1.362 . S
C876 C874 1.420 . S
C876 C880 1.429 . S
H877 C882 0.930 . S
N878 Eu840 2.609 . S
N878 C880 1.377 . S
N878 C881 1.321 . S
C879 H865 0.930 . S
C879 C881 1.400 . S
C879 C882 1.386 . S
C880 C876 1.429 . S
C880 N878 1.377 . S
C880 C883 1.411 . S
C881 H863 0.930 . S
C881 N878 1.321 . S
C881 C879 1.400 . S
C882 H877 0.930 . S
C882 C879 1.386 . S
C882 C883 1.395 . S
C883 C880 1.411 . S
C883 C882 1.395 . S
C883 C905 1.420 . S
O884 Eu840 2.558 . S
O884 C904 1.257 . S
O885 Eu840 2.612 . S
O885 Eu851 2.380 . S
O885 C896 1.276 . S
O886 Eu851 2.432 . S
O886 C903 1.264 . S
O887 Eu840 2.339 . S
O887 C903 1.254 . S
O888 Eu840 2.563 . S
O888 C896 1.235 . S
O889 Eu840 2.419 . S
O889 C904 1.249 . S
O890 Eu851 2.558 . S
O890 C915 1.257 . S
O891 Eu840 2.380 . S
O891 Eu851 2.612 . S
O891 C907 1.276 . S
O892 Eu840 2.432 . S
O892 C914 1.264 . S
O893 Eu851 2.339 . S
O893 C914 1.254 . S
O894 Eu851 2.563 . S
O894 C907 1.235 . S
O895 Eu851 2.419 . S
O895 C915 1.249 . S
C896 O885 1.276 . S
C896 O888 1.235 . S
C897 C899 1.393 . S
C897 C901 1.395 . S
C897 C904 1.492 . S
C898 C899 1.392 . S
C898 C900 1.386 1_554 S
C899 C897 1.393 . S
C899 C898 1.392 . S
C899 H916 0.930 . S
C900 C898 1.386 1_556 S
C900 C902 1.395 1_556 S
C900 H917 0.930 . S
C901 C897 1.395 . S
C901 C902 1.379 . S
C901 H918 0.930 . S
C902 C900 1.395 1_554 S
C902 C901 1.379 . S
C902 H919 0.930 . S
C903 O886 1.264 . S
C903 O887 1.254 . S
C904 Eu840 2.848 . S
C904 O884 1.257 . S
C904 O889 1.249 . S
C904 C897 1.492 . S
C905 H870 0.931 . S
C905 C883 1.420 . S
C905 C906 1.351 . S
C906 H868 0.930 . S
C906 C874 1.423 . S
C906 C905 1.351 . S
C907 O891 1.276 . S
C907 O894 1.235 . S
C908 C909 1.393 . S
C908 C912 1.395 . S
C908 C915 1.492 . S
C909 C908 1.393 . S
C909 C910 1.392 . S
C909 H920 0.930 . S
C910 C909 1.392 . S
C910 C911 1.386 . S
C911 C910 1.386 . S
C911 C913 1.395 . S
C911 H921 0.930 . S
C912 C908 1.395 . S
C912 C913 1.379 . S
C912 H922 0.930 . S
C913 C911 1.395 . S
C913 C912 1.379 . S
C913 H923 0.930 . S
C914 O892 1.264 . S
C914 O893 1.254 . S
C915 Eu851 2.848 . S
C915 O890 1.257 . S
C915 O895 1.249 . S
C915 C908 1.492 . S
H916 C899 0.930 . S
H917 C900 0.930 . S
H918 C901 0.930 . S
H919 C902 0.930 . S
H920 C909 0.930 . S
H921 C911 0.930 . S
H922 C912 0.930 . S
H923 C913 0.930 . S
Eu924 N955 2.657 . S
Eu924 N962 2.609 . S
Eu924 O968 2.558 1_554 S
Eu924 O969 2.612 . S
Eu924 O971 2.339 . S
Eu924 O972 2.563 . S
Eu924 O973 2.419 1_554 S
Eu924 O975 2.380 . S
Eu924 O976 2.432 . S
Eu924 C988 2.848 1_554 S
C925 C928 1.429 . S
C925 C929 1.411 . S
C925 N932 1.377 . S
C926 C928 1.420 . S
C926 C930 1.423 1_565 S
C926 C938 1.392 . S
C927 C929 1.405 1_545 S
C927 C930 1.354 . S
C927 H950 0.942 . S
C928 C925 1.429 . S
C928 C926 1.420 . S
C928 N936 1.362 . S
C929 C925 1.411 . S
C929 C927 1.405 1_565 S
C929 C934 1.395 . S
C930 C926 1.423 1_545 S
C930 C927 1.354 . S
C930 H942 0.930 . S
C931 C933 1.400 . S
C931 C934 1.386 . S
C931 H943 0.930 . S
N932 C925 1.377 . S
N932 C933 1.321 . S
N932 Eu935 2.609 . S
C933 C931 1.400 . S
C933 N932 1.321 . S
C933 H940 0.930 . S
C934 C929 1.395 . S
C934 C931 1.386 . S
C934 H953 0.930 . S
Eu935 N932 2.609 . S
Eu935 N936 2.657 . S
Eu935 O969 2.380 . S
Eu935 O970 2.432 . S
Eu935 O974 2.558 . S
Eu935 O975 2.612 . S
Eu935 O977 2.339 . S
Eu935 O978 2.563 . S
Eu935 O979 2.419 . S
Eu935 C999 2.848 . S
N936 C928 1.362 . S
N936 Eu935 2.657 . S
N936 C937 1.334 . S
C937 N936 1.334 . S
C937 C939 1.413 . S
C937 H944 0.929 . S
C938 C926 1.392 . S
C938 C939 1.367 . S
C938 H946 0.930 1_565 S
C939 C937 1.413 . S
C939 C938 1.367 . S
C939 H941 0.930 . S
H940 C933 0.930 . S
H941 C939 0.930 . S
H942 C930 0.930 . S
H943 C931 0.930 . S
H944 C937 0.929 . S
H945 C959 0.930 . S
H946 C938 0.930 1_545 S
H947 C965 0.930 . S
H948 C956 0.929 . S
H949 C963 0.928 1_556 S
H950 C927 0.942 . S
H951 C957 0.930 . S
H952 C990 0.930 . S
H953 C934 0.930 . S
H954 C989 0.931 . S
N955 Eu924 2.657 . S
N955 C956 1.334 . S
N955 C960 1.362 . S
C956 H948 0.929 . S
C956 N955 1.334 . S
C956 C959 1.413 . S
C957 H951 0.930 . S
C957 C958 1.392 . S
C957 C959 1.367 . S
C958 C957 1.392 . S
C958 C960 1.420 . S
C958 C990 1.423 1_554 S
C959 H945 0.930 . S
C959 C956 1.413 . S
C959 C957 1.367 . S
C960 N955 1.362 . S
C960 C958 1.420 . S
C960 C964 1.429 . S
H961 C966 0.930 . S
N962 Eu924 2.609 . S
N962 C964 1.377 . S
N962 C965 1.321 . S
C963 H949 0.928 1_554 S
C963 C965 1.400 . S
C963 C966 1.386 1_554 S
C964 C960 1.429 . S
C964 N962 1.377 . S
C964 C967 1.411 1_554 S
C965 H947 0.930 . S
C965 N962 1.321 . S
C965 C963 1.400 . S
C966 H961 0.930 . S
C966 C963 1.386 1_556 S
C966 C967 1.395 . S
C967 C964 1.411 1_556 S
C967 C966 1.395 . S
C967 C989 1.420 . S
O968 Eu924 2.558 1_556 S
O968 C988 1.257 . S
O969 Eu924 2.612 . S
O969 Eu935 2.380 . S
O969 C980 1.276 . S
O970 Eu935 2.432 . S
O970 C987 1.264 . S
O971 Eu924 2.339 . S
O971 C987 1.254 . S
O972 Eu924 2.563 . S
O972 C980 1.235 . S
O973 Eu924 2.419 1_556 S
O973 C988 1.249 . S
O974 Eu935 2.558 . S
O974 C999 1.257 . S
O975 Eu924 2.380 . S
O975 Eu935 2.612 . S
O975 C991 1.276 . S
O976 Eu924 2.432 . S
O976 C998 1.264 . S
O977 Eu935 2.339 . S
O977 C998 1.254 . S
O978 Eu935 2.563 . S
O978 C991 1.235 . S
O979 Eu935 2.419 . S
O979 C999 1.249 . S
C980 O969 1.276 . S
C980 O972 1.235 . S
C981 C983 1.393 . S
C981 C985 1.395 . S
C981 C988 1.492 . S
C982 C983 1.392 . S
C982 C984 1.386 . S
C983 C981 1.393 . S
C983 C982 1.392 . S
C983 H1000 0.930 . S
C984 C982 1.386 . S
C984 C986 1.395 . S
C984 H1001 0.930 . S
C985 C981 1.395 . S
C985 C986 1.379 . S
C985 H1002 0.930 . S
C986 C984 1.395 . S
C986 C985 1.379 . S
C986 H1003 0.930 . S
C987 O970 1.264 . S
C987 O971 1.254 . S
C988 Eu924 2.848 1_556 S
C988 O968 1.257 . S
C988 O973 1.249 . S
C988 C981 1.492 . S
C989 H954 0.931 . S
C989 C967 1.420 . S
C989 C990 1.351 . S
C990 H952 0.930 . S
C990 C958 1.423 1_556 S
C990 C989 1.351 . S
C991 O975 1.276 . S
C991 O978 1.235 . S
C992 C993 1.393 . S
C992 C996 1.395 . S
C992 C999 1.492 . S
C993 C992 1.393 . S
C993 C994 1.392 . S
C993 H1004 0.930 . S
C994 C993 1.392 . S
C994 C995 1.386 . S
C995 C994 1.386 . S
C995 C997 1.395 . S
C995 H1005 0.930 . S
C996 C992 1.395 . S
C996 C997 1.379 . S
C996 H1006 0.930 . S
C997 C995 1.395 . S
C997 C996 1.379 . S
C997 H1007 0.930 . S
C998 O976 1.264 . S
C998 O977 1.254 . S
C999 Eu935 2.848 . S
C999 O974 1.257 . S
C999 O979 1.249 . S
C999 C992 1.492 . S
H1000 C983 0.930 . S
H1001 C984 0.930 . S
H1002 C985 0.930 . S
H1003 C986 0.930 . S
H1004 C993 0.930 . S
H1005 C995 0.930 . S
H1006 C996 0.930 . S
H1007 C997 0.930 . S
Eu1008 N1039 2.657 . S
Eu1008 N1046 2.609 . S
Eu1008 O1052 2.558 . S
Eu1008 O1053 2.612 . S
Eu1008 O1055 2.339 . S
Eu1008 O1056 2.563 . S
Eu1008 O1057 2.419 . S
Eu1008 O1059 2.380 . S
Eu1008 O1060 2.432 . S
Eu1008 C1072 2.848 . S
C1009 C1012 1.429 . S
C1009 C1013 1.411 1_554 S
C1009 N1016 1.377 . S
C1010 C1012 1.420 . S
C1010 C1014 1.423 1_554 S
C1010 C1022 1.392 . S
C1011 C1013 1.420 . S
C1011 C1014 1.351 . S
C1011 H1034 0.931 . S
C1012 C1009 1.429 . S
C1012 C1010 1.420 . S
C1012 N1020 1.362 . S
C1013 C1009 1.411 1_556 S
C1013 C1011 1.420 . S
C1013 C1018 1.395 . S
C1014 C1010 1.423 1_556 S
C1014 C1011 1.351 . S
C1014 H1026 0.930 . S
C1015 C1017 1.400 1_556 S
C1015 C1018 1.386 . S
C1015 H1027 0.930 . S
N1016 C1009 1.377 . S
N1016 C1017 1.321 . S
N1016 Eu1019 2.609 . S
C1017 C1015 1.400 1_554 S
C1017 N1016 1.321 . S
C1017 H1024 0.930 . S
C1018 C1013 1.395 . S
C1018 C1015 1.386 . S
C1018 H1037 0.930 . S
Eu1019 N1016 2.609 . S
Eu1019 N1020 2.657 . S
Eu1019 O1053 2.380 . S
Eu1019 O1054 2.432 . S
Eu1019 O1058 2.558 1_554 S
Eu1019 O1059 2.612 . S
Eu1019 O1061 2.339 . S
Eu1019 O1062 2.563 . S
Eu1019 O1063 2.419 1_554 S
Eu1019 C1083 2.848 1_554 S
N1020 C1012 1.362 . S
N1020 Eu1019 2.657 . S
N1020 C1021 1.334 . S
C1021 N1020 1.334 . S
C1021 C1023 1.413 . S
C1021 H1028 0.929 . S
C1022 C1010 1.392 . S
C1022 C1023 1.367 . S
C1022 H1030 0.930 . S
C1023 C1021 1.413 . S
C1023 C1022 1.367 . S
C1023 H1025 0.930 . S
H1024 C1017 0.930 . S
H1025 C1023 0.930 . S
H1026 C1014 0.930 . S
H1027 C1015 0.930 . S
H1028 C1021 0.929 . S
H1029 C1043 0.930 . S
H1030 C1022 0.930 . S
H1031 C1049 0.930 . S
H1032 C1040 0.929 . S
H1033 C1047 0.930 . S
H1034 C1011 0.931 . S
H1035 C1041 0.930 . S
H1036 C1074 0.930 1_455 S
H1037 C1018 0.930 . S
H1038 C1073 0.958 . S
N1039 Eu1008 2.657 . S
N1039 C1040 1.334 . S
N1039 C1044 1.362 . S
C1040 H1032 0.929 . S
C1040 N1039 1.334 . S
C1040 C1043 1.413 . S
C1041 H1035 0.930 . S
C1041 C1042 1.392 . S
C1041 C1043 1.367 . S
C1042 C1041 1.392 . S
C1042 C1044 1.420 . S
C1042 C1074 1.423 . S
C1043 H1029 0.930 . S
C1043 C1040 1.413 . S
C1043 C1041 1.367 . S
C1044 N1039 1.362 . S
C1044 C1042 1.420 . S
C1044 C1048 1.429 . S
H1045 C1050 0.930 . S
N1046 Eu1008 2.609 . S
N1046 C1048 1.377 . S
N1046 C1049 1.321 . S
C1047 H1033 0.930 . S
C1047 C1049 1.400 . S
C1047 C1050 1.386 . S
C1048 C1044 1.429 . S
C1048 N1046 1.377 . S
C1048 C1051 1.411 . S
C1049 H1031 0.930 . S
C1049 N1046 1.321 . S
C1049 C1047 1.400 . S
C1050 H1045 0.930 . S
C1050 C1047 1.386 . S
C1050 C1051 1.395 . S
C1051 C1048 1.411 . S
C1051 C1050 1.395 . S
C1051 C1073 1.420 . S
O1052 Eu1008 2.558 . S
O1052 C1072 1.257 . S
O1053 Eu1008 2.612 . S
O1053 Eu1019 2.380 . S
O1053 C1064 1.276 . S
O1054 Eu1019 2.432 . S
O1054 C1071 1.264 . S
O1055 Eu1008 2.339 . S
O1055 C1071 1.254 . S
O1056 Eu1008 2.563 . S
O1056 C1064 1.235 . S
O1057 Eu1008 2.419 . S
O1057 C1072 1.249 . S
O1058 Eu1019 2.558 1_556 S
O1058 C1083 1.257 . S
O1059 Eu1008 2.380 . S
O1059 Eu1019 2.612 . S
O1059 C1075 1.276 . S
O1060 Eu1008 2.432 . S
O1060 C1082 1.264 . S
O1061 Eu1019 2.339 . S
O1061 C1082 1.254 . S
O1062 Eu1019 2.563 . S
O1062 C1075 1.235 . S
O1063 Eu1019 2.419 1_556 S
O1063 C1083 1.249 . S
C1064 O1053 1.276 . S
C1064 O1056 1.235 . S
C1065 C1067 1.393 . S
C1065 C1069 1.395 . S
C1065 C1072 1.492 . S
C1066 C1067 1.392 . S
C1066 C1068 1.386 . S
C1067 C1065 1.393 . S
C1067 C1066 1.392 . S
C1067 H1084 0.930 . S
C1068 C1066 1.386 . S
C1068 C1070 1.395 . S
C1068 H1085 0.930 . S
C1069 C1065 1.395 . S
C1069 C1070 1.379 . S
C1069 H1086 0.930 . S
C1070 C1068 1.395 . S
C1070 C1069 1.379 . S
C1070 H1087 0.930 . S
C1071 O1054 1.264 . S
C1071 O1055 1.254 . S
C1072 Eu1008 2.848 . S
C1072 O1052 1.257 . S
C1072 O1057 1.249 . S
C1072 C1065 1.492 . S
C1073 H1038 0.958 . S
C1073 C1051 1.420 . S
C1073 C1074 1.351 . S
C1074 H1036 0.930 1_655 S
C1074 C1042 1.423 . S
C1074 C1073 1.351 . S
C1075 O1059 1.276 . S
C1075 O1062 1.235 . S
C1076 C1077 1.393 . S
C1076 C1080 1.395 . S
C1076 C1083 1.492 . S
C1077 C1076 1.393 . S
C1077 C1078 1.392 . S
C1077 H1088 0.930 . S
C1078 C1077 1.392 . S
C1078 C1079 1.386 . S
C1079 C1078 1.386 . S
C1079 C1081 1.395 . S
C1079 H1089 0.930 . S
C1080 C1076 1.395 . S
C1080 C1081 1.379 . S
C1080 H1090 0.930 . S
C1081 C1079 1.395 . S
C1081 C1080 1.379 . S
C1081 H1091 0.930 . S
C1082 O1060 1.264 . S
C1082 O1061 1.254 . S
C1083 Eu1019 2.848 1_556 S
C1083 O1058 1.257 . S
C1083 O1063 1.249 . S
C1083 C1076 1.492 . S
H1084 C1067 0.930 . S
H1085 C1068 0.930 . S
H1086 C1069 0.930 . S
H1087 C1070 0.930 . S
H1088 C1077 0.930 . S
H1089 C1079 0.930 . S
H1090 C1080 0.930 . S
H1091 C1081 0.930 . S
Eu1092 N1123 2.657 . S
Eu1092 N1130 2.609 . S
Eu1092 O1136 2.558 . S
Eu1092 O1137 2.612 . S
Eu1092 O1139 2.339 . S
Eu1092 O1140 2.563 . S
Eu1092 O1141 2.419 . S
Eu1092 O1143 2.380 . S
Eu1092 O1144 2.432 . S
Eu1092 C1156 2.848 . S
C1093 C1096 1.429 . S
C1093 C1097 1.411 1_556 S
C1093 N1100 1.377 . S
C1094 C1096 1.420 . S
C1094 C1098 1.423 1_556 S
C1094 C1106 1.392 . S
C1095 C1097 1.420 . S
C1095 C1098 1.351 . S
C1095 H1118 0.931 . S
C1096 C1093 1.429 . S
C1096 C1094 1.420 . S
C1096 N1104 1.362 . S
C1097 C1093 1.411 1_554 S
C1097 C1095 1.420 . S
C1097 C1102 1.395 . S
C1098 C1094 1.423 1_554 S
C1098 C1095 1.351 . S
C1098 H1110 0.930 . S
C1099 C1101 1.400 1_554 S
C1099 C1102 1.386 . S
C1099 H1111 0.930 . S
N1100 C1093 1.377 . S
N1100 C1101 1.321 . S
N1100 Eu1103 2.609 . S
C1101 C1099 1.400 1_556 S
C1101 N1100 1.321 . S
C1101 H1108 0.930 . S
C1102 C1097 1.395 . S
C1102 C1099 1.386 . S
C1102 H1121 0.930 . S
Eu1103 N1100 2.609 . S
Eu1103 N1104 2.657 . S
Eu1103 O1137 2.380 . S
Eu1103 O1138 2.432 . S
Eu1103 O1142 2.558 1_556 S
Eu1103 O1143 2.612 . S
Eu1103 O1145 2.339 . S
Eu1103 O1146 2.563 . S
Eu1103 O1147 2.419 1_556 S
Eu1103 C1167 2.848 1_556 S
N1104 C1096 1.362 . S
N1104 Eu1103 2.657 . S
N1104 C1105 1.334 . S
C1105 N1104 1.334 . S
C1105 C1107 1.413 . S
C1105 H1112 0.929 . S
C1106 C1094 1.392 . S
C1106 C1107 1.367 . S
C1106 H1114 0.930 . S
C1107 C1105 1.413 . S
C1107 C1106 1.367 . S
C1107 H1109 0.930 . S
H1108 C1101 0.930 . S
H1109 C1107 0.930 . S
H1110 C1098 0.930 . S
H1111 C1099 0.930 . S
H1112 C1105 0.929 . S
H1113 C1127 0.930 . S
H1114 C1106 0.930 . S
H1115 C1133 0.930 . S
H1116 C1124 0.929 . S
H1117 C1131 0.930 . S
H1118 C1095 0.931 . S
H1119 C1125 0.930 . S
H1120 C1158 0.930 1_655 S
H1121 C1102 0.930 . S
H1122 C1157 0.931 . S
N1123 Eu1092 2.657 . S
N1123 C1124 1.334 . S
N1123 C1128 1.362 . S
C1124 H1116 0.929 . S
C1124 N1123 1.334 . S
C1124 C1127 1.413 . S
C1125 H1119 0.930 . S
C1125 C1126 1.392 . S
C1125 C1127 1.367 . S
C1126 C1125 1.392 . S
C1126 C1128 1.420 . S
C1126 C1158 1.423 . S
C1127 H1113 0.930 . S
C1127 C1124 1.413 . S
C1127 C1125 1.367 . S
C1128 N1123 1.362 . S
C1128 C1126 1.420 . S
C1128 C1132 1.429 . S
H1129 C1134 0.930 . S
N1130 Eu1092 2.609 . S
N1130 C1132 1.377 . S
N1130 C1133 1.321 . S
C1131 H1117 0.930 . S
C1131 C1133 1.400 . S
C1131 C1134 1.386 . S
C1132 C1128 1.429 . S
C1132 N1130 1.377 . S
C1132 C1135 1.411 . S
C1133 H1115 0.930 . S
C1133 N1130 1.321 . S
C1133 C1131 1.400 . S
C1134 H1129 0.930 . S
C1134 C1131 1.386 . S
C1134 C1135 1.395 . S
C1135 C1132 1.411 . S
C1135 C1134 1.395 . S
C1135 C1157 1.420 . S
O1136 Eu1092 2.558 . S
O1136 C1156 1.257 . S
O1137 Eu1092 2.612 . S
O1137 Eu1103 2.380 . S
O1137 C1148 1.276 . S
O1138 Eu1103 2.432 . S
O1138 C1155 1.264 . S
O1139 Eu1092 2.339 . S
O1139 C1155 1.254 . S
O1140 Eu1092 2.563 . S
O1140 C1148 1.235 . S
O1141 Eu1092 2.419 . S
O1141 C1156 1.249 . S
O1142 Eu1103 2.558 1_554 S
O1142 C1167 1.257 . S
O1143 Eu1092 2.380 . S
O1143 Eu1103 2.612 . S
O1143 C1159 1.276 . S
O1144 Eu1092 2.432 . S
O1144 C1166 1.264 . S
O1145 Eu1103 2.339 . S
O1145 C1166 1.254 . S
O1146 Eu1103 2.563 . S
O1146 C1159 1.235 . S
O1147 Eu1103 2.419 1_554 S
O1147 C1167 1.249 . S
C1148 O1137 1.276 . S
C1148 O1140 1.235 . S
C1149 C1151 1.393 . S
C1149 C1153 1.395 . S
C1149 C1156 1.492 . S
C1150 C1151 1.392 . S
C1150 C1152 1.386 . S
C1151 C1149 1.393 . S
C1151 C1150 1.392 . S
C1151 H1168 0.930 . S
C1152 C1150 1.386 . S
C1152 C1154 1.395 . S
C1152 H1169 0.930 . S
C1153 C1149 1.395 . S
C1153 C1154 1.379 . S
C1153 H1170 0.930 . S
C1154 C1152 1.395 . S
C1154 C1153 1.379 . S
C1154 H1171 0.930 . S
C1155 O1138 1.264 . S
C1155 O1139 1.254 . S
C1156 Eu1092 2.848 . S
C1156 O1136 1.257 . S
C1156 O1141 1.249 . S
C1156 C1149 1.492 . S
C1157 H1122 0.931 . S
C1157 C1135 1.420 . S
C1157 C1158 1.351 . S
C1158 H1120 0.930 1_455 S
C1158 C1126 1.423 . S
C1158 C1157 1.351 . S
C1159 O1143 1.276 . S
C1159 O1146 1.235 . S
C1160 C1161 1.393 . S
C1160 C1164 1.395 . S
C1160 C1167 1.492 . S
C1161 C1160 1.393 . S
C1161 C1162 1.392 . S
C1161 H1172 0.930 . S
C1162 C1161 1.392 . S
C1162 C1163 1.386 . S
C1163 C1162 1.386 . S
C1163 C1165 1.395 . S
C1163 H1173 0.930 . S
C1164 C1160 1.395 . S
C1164 C1165 1.379 . S
C1164 H1174 0.930 . S
C1165 C1163 1.395 . S
C1165 C1164 1.379 . S
C1165 H1175 0.930 . S
C1166 O1144 1.264 . S
C1166 O1145 1.254 . S
C1167 Eu1103 2.848 1_554 S
C1167 O1142 1.257 . S
C1167 O1147 1.249 . S
C1167 C1160 1.492 . S
H1168 C1151 0.930 . S
H1169 C1152 0.930 . S
H1170 C1153 0.930 . S
H1171 C1154 0.930 . S
H1172 C1161 0.930 . S
H1173 C1163 0.930 . S
H1174 C1164 0.930 . S
H1175 C1165 0.930 . S
Eu1176 N1207 2.657 . S
Eu1176 N1214 2.609 . S
Eu1176 O1220 2.558 . S
Eu1176 O1221 2.612 . S
Eu1176 O1223 2.339 . S
Eu1176 O1224 2.563 . S
Eu1176 O1225 2.419 . S
Eu1176 O1227 2.380 . S
Eu1176 O1228 2.432 . S
Eu1176 C1240 2.848 . S
C1177 C1180 1.429 . S
C1177 C1181 1.411 . S
C1177 N1184 1.377 . S
C1178 C1180 1.420 . S
C1178 C1182 1.423 . S
C1178 C1190 1.392 . S
C1179 C1181 1.420 . S
C1179 C1182 1.351 . S
C1179 H1202 0.931 . S
C1180 C1177 1.429 . S
C1180 C1178 1.420 . S
C1180 N1188 1.362 . S
C1181 C1177 1.411 . S
C1181 C1179 1.420 . S
C1181 C1186 1.395 . S
C1182 C1178 1.423 . S
C1182 C1179 1.351 . S
C1182 H1194 0.930 . S
C1183 C1185 1.400 . S
C1183 C1186 1.386 . S
C1183 H1195 0.930 . S
N1184 C1177 1.377 . S
N1184 C1185 1.321 . S
N1184 Eu1187 2.609 . S
C1185 C1183 1.400 . S
C1185 N1184 1.321 . S
C1185 H1192 0.930 . S
C1186 C1181 1.395 . S
C1186 C1183 1.386 . S
C1186 H1205 0.930 . S
Eu1187 N1184 2.609 . S
Eu1187 N1188 2.657 . S
Eu1187 O1221 2.380 . S
Eu1187 O1222 2.432 . S
Eu1187 O1226 2.558 . S
Eu1187 O1227 2.612 . S
Eu1187 O1229 2.339 . S
Eu1187 O1230 2.563 . S
Eu1187 O1231 2.419 . S
Eu1187 C1251 2.848 . S
N1188 C1180 1.362 . S
N1188 Eu1187 2.657 . S
N1188 C1189 1.334 . S
C1189 N1188 1.334 . S
C1189 C1191 1.413 . S
C1189 H1196 0.929 . S
C1190 C1178 1.392 . S
C1190 C1191 1.367 . S
C1190 H1198 0.930 . S
C1191 C1189 1.413 . S
C1191 C1190 1.367 . S
C1191 H1193 0.930 . S
H1192 C1185 0.930 . S
H1193 C1191 0.930 . S
H1194 C1182 0.930 . S
H1195 C1183 0.930 . S
H1196 C1189 0.929 . S
H1197 C1211 0.930 . S
H1198 C1190 0.930 . S
H1199 C1217 0.930 . S
H1200 C1208 0.929 . S
H1201 C1215 0.930 . S
H1202 C1179 0.931 . S
H1203 C1209 0.930 . S
H1204 C1242 0.930 . S
H1205 C1186 0.930 . S
H1206 C1241 0.931 . S
N1207 Eu1176 2.657 . S
N1207 C1208 1.334 . S
N1207 C1212 1.362 . S
C1208 H1200 0.929 . S
C1208 N1207 1.334 . S
C1208 C1211 1.413 . S
C1209 H1203 0.930 . S
C1209 C1210 1.392 . S
C1209 C1211 1.367 . S
C1210 C1209 1.392 . S
C1210 C1212 1.420 . S
C1210 C1242 1.423 . S
C1211 H1197 0.930 . S
C1211 C1208 1.413 . S
C1211 C1209 1.367 . S
C1212 N1207 1.362 . S
C1212 C1210 1.420 . S
C1212 C1216 1.429 . S
H1213 C1218 0.930 . S
N1214 Eu1176 2.609 . S
N1214 C1216 1.377 . S
N1214 C1217 1.321 . S
C1215 H1201 0.930 . S
C1215 C1217 1.400 . S
C1215 C1218 1.386 . S
C1216 C1212 1.429 . S
C1216 N1214 1.377 . S
C1216 C1219 1.411 . S
C1217 H1199 0.930 . S
C1217 N1214 1.321 . S
C1217 C1215 1.400 . S
C1218 H1213 0.930 . S
C1218 C1215 1.386 . S
C1218 C1219 1.395 . S
C1219 C1216 1.411 . S
C1219 C1218 1.395 . S
C1219 C1241 1.420 . S
O1220 Eu1176 2.558 . S
O1220 C1240 1.257 . S
O1221 Eu1176 2.612 . S
O1221 Eu1187 2.380 . S
O1221 C1232 1.276 . S
O1222 Eu1187 2.432 . S
O1222 C1239 1.264 . S
O1223 Eu1176 2.339 . S
O1223 C1239 1.254 . S
O1224 Eu1176 2.563 . S
O1224 C1232 1.235 . S
O1225 Eu1176 2.419 . S
O1225 C1240 1.249 . S
O1226 Eu1187 2.558 . S
O1226 C1251 1.257 . S
O1227 Eu1176 2.380 . S
O1227 Eu1187 2.612 . S
O1227 C1243 1.276 . S
O1228 Eu1176 2.432 . S
O1228 C1250 1.264 . S
O1229 Eu1187 2.339 . S
O1229 C1250 1.254 . S
O1230 Eu1187 2.563 . S
O1230 C1243 1.235 . S
O1231 Eu1187 2.419 . S
O1231 C1251 1.249 . S
C1232 O1221 1.276 . S
C1232 O1224 1.235 . S
C1233 C1235 1.393 . S
C1233 C1237 1.395 . S
C1233 C1240 1.492 . S
C1234 C1235 1.392 . S
C1234 C1236 1.386 . S
C1235 C1233 1.393 . S
C1235 C1234 1.392 . S
C1235 H1252 0.930 . S
C1236 C1234 1.386 . S
C1236 C1238 1.395 . S
C1236 H1253 0.930 . S
C1237 C1233 1.395 . S
C1237 C1238 1.379 . S
C1237 H1254 0.930 . S
C1238 C1236 1.395 . S
C1238 C1237 1.379 . S
C1238 H1255 0.930 . S
C1239 O1222 1.264 . S
C1239 O1223 1.254 . S
C1240 Eu1176 2.848 . S
C1240 O1220 1.257 . S
C1240 O1225 1.249 . S
C1240 C1233 1.492 . S
C1241 H1206 0.931 . S
C1241 C1219 1.420 . S
C1241 C1242 1.351 . S
C1242 H1204 0.930 . S
C1242 C1210 1.423 . S
C1242 C1241 1.351 . S
C1243 O1227 1.276 . S
C1243 O1230 1.235 . S
C1244 C1245 1.393 . S
C1244 C1248 1.395 . S
C1244 C1251 1.492 . S
C1245 C1244 1.393 . S
C1245 C1246 1.392 . S
C1245 H1256 0.930 . S
C1246 C1245 1.392 . S
C1246 C1247 1.386 . S
C1247 C1246 1.386 . S
C1247 C1249 1.395 . S
C1247 H1257 0.930 1_556 S
C1248 C1244 1.395 . S
C1248 C1249 1.379 . S
C1248 H1258 0.930 . S
C1249 C1247 1.395 . S
C1249 C1248 1.379 . S
C1249 H1259 0.930 . S
C1250 O1228 1.264 . S
C1250 O1229 1.254 . S
C1251 Eu1187 2.848 . S
C1251 O1226 1.257 . S
C1251 O1231 1.249 . S
C1251 C1244 1.492 . S
H1252 C1235 0.930 . S
H1253 C1236 0.930 . S
H1254 C1237 0.930 . S
H1255 C1238 0.930 . S
H1256 C1245 0.930 . S
H1257 C1247 0.930 1_554 S
H1258 C1248 0.930 . S
H1259 C1249 0.930 . S
Eu1260 N1291 2.657 . S
Eu1260 N1298 2.609 . S
Eu1260 O1304 2.558 . S
Eu1260 O1305 2.612 . S
Eu1260 O1307 2.339 . S
Eu1260 O1308 2.563 . S
Eu1260 O1309 2.419 . S
Eu1260 O1311 2.380 . S
Eu1260 O1312 2.432 . S
Eu1260 C1324 2.848 . S
C1261 C1264 1.429 . S
C1261 C1265 1.411 . S
C1261 N1268 1.377 . S
C1262 C1264 1.420 . S
C1262 C1266 1.423 1_565 S
C1262 C1274 1.392 . S
C1263 C1265 1.447 . S
C1263 C1266 1.344 1_565 S
C1263 H1286 0.911 1_565 S
C1264 C1261 1.429 . S
C1264 C1262 1.420 . S
C1264 N1272 1.362 . S
C1265 C1261 1.411 . S
C1265 C1263 1.447 . S
C1265 C1270 1.395 . S
C1266 C1262 1.423 1_545 S
C1266 C1263 1.344 1_545 S
C1266 H1278 0.930 . S
C1267 C1269 1.400 . S
C1267 C1270 1.386 . S
C1267 H1279 0.930 . S
N1268 C1261 1.377 . S
N1268 C1269 1.321 . S
N1268 Eu1271 2.609 . S
C1269 C1267 1.400 . S
C1269 N1268 1.321 . S
C1269 H1276 0.930 . S
C1270 C1265 1.395 . S
C1270 C1267 1.386 . S
C1270 H1289 0.930 . S
Eu1271 N1268 2.609 . S
Eu1271 N1272 2.657 . S
Eu1271 O1305 2.380 . S
Eu1271 O1306 2.432 . S
Eu1271 O1310 2.558 . S
Eu1271 O1311 2.612 . S
Eu1271 O1313 2.339 . S
Eu1271 O1314 2.563 . S
Eu1271 O1315 2.419 . S
Eu1271 C1335 2.848 . S
N1272 C1264 1.362 . S
N1272 Eu1271 2.657 . S
N1272 C1273 1.334 . S
C1273 N1272 1.334 . S
C1273 C1275 1.413 . S
C1273 H1280 0.929 . S
C1274 C1262 1.392 . S
C1274 C1275 1.367 . S
C1274 H1282 0.930 1_565 S
C1275 C1273 1.413 . S
C1275 C1274 1.367 . S
C1275 H1277 0.930 . S
H1276 C1269 0.930 . S
H1277 C1275 0.930 . S
H1278 C1266 0.930 . S
H1279 C1267 0.930 . S
H1280 C1273 0.929 . S
H1281 C1295 0.930 . S
H1282 C1274 0.930 1_545 S
H1283 C1301 0.930 . S
H1284 C1292 0.929 . S
H1285 C1299 0.930 . S
H1286 C1263 0.911 1_545 S
H1287 C1293 0.930 . S
H1288 C1326 0.930 . S
H1289 C1270 0.930 . S
H1290 C1325 0.931 . S
N1291 Eu1260 2.657 . S
N1291 C1292 1.334 . S
N1291 C1296 1.362 . S
C1292 H1284 0.929 . S
C1292 N1291 1.334 . S
C1292 C1295 1.413 . S
C1293 H1287 0.930 . S
C1293 C1294 1.392 . S
C1293 C1295 1.367 . S
C1294 C1293 1.392 . S
C1294 C1296 1.420 . S
C1294 C1326 1.423 . S
C1295 H1281 0.930 . S
C1295 C1292 1.413 . S
C1295 C1293 1.367 . S
C1296 N1291 1.362 . S
C1296 C1294 1.420 . S
C1296 C1300 1.429 . S
H1297 C1302 0.930 . S
N1298 Eu1260 2.609 . S
N1298 C1300 1.377 . S
N1298 C1301 1.321 . S
C1299 H1285 0.930 . S
C1299 C1301 1.400 . S
C1299 C1302 1.386 . S
C1300 C1296 1.429 . S
C1300 N1298 1.377 . S
C1300 C1303 1.411 . S
C1301 H1283 0.930 . S
C1301 N1298 1.321 . S
C1301 C1299 1.400 . S
C1302 H1297 0.930 . S
C1302 C1299 1.386 . S
C1302 C1303 1.395 . S
C1303 C1300 1.411 . S
C1303 C1302 1.395 . S
C1303 C1325 1.420 . S
O1304 Eu1260 2.558 . S
O1304 C1324 1.257 . S
O1305 Eu1260 2.612 . S
O1305 Eu1271 2.380 . S
O1305 C1316 1.276 . S
O1306 Eu1271 2.432 . S
O1306 C1323 1.264 . S
O1307 Eu1260 2.339 . S
O1307 C1323 1.254 . S
O1308 Eu1260 2.563 . S
O1308 C1316 1.235 . S
O1309 Eu1260 2.419 . S
O1309 C1324 1.249 . S
O1310 Eu1271 2.558 . S
O1310 C1335 1.257 . S
O1311 Eu1260 2.380 . S
O1311 Eu1271 2.612 . S
O1311 C1327 1.276 . S
O1312 Eu1260 2.432 . S
O1312 C1334 1.264 . S
O1313 Eu1271 2.339 . S
O1313 C1334 1.254 . S
O1314 Eu1271 2.563 . S
O1314 C1327 1.235 . S
O1315 Eu1271 2.419 . S
O1315 C1335 1.249 . S
C1316 O1305 1.276 . S
C1316 O1308 1.235 . S
C1317 C1319 1.393 . S
C1317 C1321 1.395 . S
C1317 C1324 1.492 . S
C1318 C1319 1.392 . S
C1318 C1320 1.386 . S
C1319 C1317 1.393 . S
C1319 C1318 1.392 . S
C1319 H1336 0.930 . S
C1320 C1318 1.386 . S
C1320 C1322 1.395 . S
C1320 H1337 0.930 . S
C1321 C1317 1.395 . S
C1321 C1322 1.379 . S
C1321 H1338 0.930 . S
C1322 C1320 1.395 . S
C1322 C1321 1.379 . S
C1322 H1339 0.930 . S
C1323 O1306 1.264 . S
C1323 O1307 1.254 . S
C1324 Eu1260 2.848 . S
C1324 O1304 1.257 . S
C1324 O1309 1.249 . S
C1324 C1317 1.492 . S
C1325 H1290 0.931 . S
C1325 C1303 1.420 . S
C1325 C1326 1.351 . S
C1326 H1288 0.930 . S
C1326 C1294 1.423 . S
C1326 C1325 1.351 . S
C1327 O1311 1.276 . S
C1327 O1314 1.235 . S
C1328 C1329 1.393 . S
C1328 C1332 1.395 . S
C1328 C1335 1.492 . S
C1329 C1328 1.393 . S
C1329 C1330 1.392 . S
C1329 H1340 0.930 . S
C1330 C1329 1.392 . S
C1330 C1331 1.386 . S
C1331 C1330 1.386 . S
C1331 C1333 1.395 . S
C1331 H1341 0.930 1_554 S
C1332 C1328 1.395 . S
C1332 C1333 1.379 . S
C1332 H1342 0.930 . S
C1333 C1331 1.395 . S
C1333 C1332 1.379 . S
C1333 H1343 0.930 . S
C1334 O1312 1.264 . S
C1334 O1313 1.254 . S
C1335 Eu1271 2.848 . S
C1335 O1310 1.257 . S
C1335 O1315 1.249 . S
C1335 C1328 1.492 . S
H1336 C1319 0.930 . S
H1337 C1320 0.930 . S
H1338 C1321 0.930 . S
H1339 C1322 0.930 . S
H1340 C1329 0.930 . S
H1341 C1331 0.930 1_556 S
H1342 C1332 0.930 . S
H1343 C1333 0.930 . S
H1344 C1350 0.930 . S
H1345 C1353 0.930 . S
H1346 C1354 0.930 . S
H1347 C1355 0.930 . S
H1348 C1358 0.930 . S
H1349 C1359 0.930 . S
C1350 H1344 0.930 . S
C1350 C1351 1.355 . S
C1350 C1352 1.415 . S
C1351 C1350 1.355 . S
C1351 C1353 1.419 . S
C1352 C1350 1.415 . S
C1352 C1357 1.425 . S
C1352 C1359 1.409 . S
C1353 H1345 0.930 . S
C1353 C1351 1.419 . S
C1353 C1354 1.362 . S
C1354 H1346 0.930 . S
C1354 C1353 1.362 . S
C1354 C1357 1.409 . S
C1355 H1347 0.930 . S
C1355 C1356 1.355 . S
C1355 C1357 1.415 . S
C1356 C1355 1.355 . S
C1356 C1358 1.419 . S
C1357 C1352 1.425 . S
C1357 C1354 1.409 . S
C1357 C1355 1.415 . S
C1358 H1348 0.930 . S
C1358 C1356 1.419 . S
C1358 C1359 1.362 . S
C1359 H1349 0.930 . S
C1359 C1352 1.409 . S
C1359 C1358 1.362 . S
H1360 C1366 0.930 . S
H1361 C1369 0.930 1_554 S
H1362 C1370 0.930 . S
H1363 C1371 0.930 . S
H1364 C1374 0.930 . S
H1365 C1375 0.930 . S
C1366 H1360 0.930 . S
C1366 C1367 1.355 . S
C1366 C1368 1.415 . S
C1367 C1366 1.355 . S
C1367 C1369 1.419 . S
C1368 C1366 1.415 . S
C1368 C1373 1.425 . S
C1368 C1375 1.409 . S
C1369 H1361 0.930 1_556 S
C1369 C1367 1.419 . S
C1369 C1370 1.362 . S
C1370 H1362 0.930 . S
C1370 C1369 1.362 . S
C1370 C1373 1.409 . S
C1371 H1363 0.930 . S
C1371 C1372 1.355 . S
C1371 C1373 1.415 . S
C1372 C1371 1.355 . S
C1372 C1374 1.419 . S
C1373 C1368 1.425 . S
C1373 C1370 1.409 . S
C1373 C1371 1.415 . S
C1374 H1364 0.930 . S
C1374 C1372 1.419 . S
C1374 C1375 1.362 . S
C1375 H1365 0.930 . S
C1375 C1368 1.409 . S
C1375 C1374 1.362 . S
H1376 C1382 0.930 . S
H1377 C1385 0.930 . S
H1378 C1386 0.930 . S
H1379 C1387 0.930 . S
H1380 C1390 0.930 . S
H1381 C1391 0.930 . S
C1382 H1376 0.930 . S
C1382 C1383 1.355 . S
C1382 C1384 1.415 . S
C1383 C1382 1.355 . S
C1383 C1385 1.419 . S
C1384 C1382 1.415 . S
C1384 C1389 1.425 . S
C1384 C1391 1.409 . S
C1385 H1377 0.930 . S
C1385 C1383 1.419 . S
C1385 C1386 1.362 . S
C1386 H1378 0.930 . S
C1386 C1385 1.362 . S
C1386 C1389 1.409 . S
C1387 H1379 0.930 . S
C1387 C1388 1.355 . S
C1387 C1389 1.415 . S
C1388 C1387 1.355 . S
C1388 C1390 1.419 . S
C1389 C1384 1.425 . S
C1389 C1386 1.409 . S
C1389 C1387 1.415 . S
C1390 H1380 0.930 . S
C1390 C1388 1.419 . S
C1390 C1391 1.362 . S
C1391 H1381 0.930 . S
C1391 C1384 1.409 . S
C1391 C1390 1.362 . S
H1392 C1398 0.930 . S
H1393 C1401 0.930 . S
H1394 C1402 0.930 . S
H1395 C1403 0.930 . S
H1396 C1406 0.930 . S
H1397 C1407 0.930 . S
C1398 H1392 0.930 . S
C1398 C1399 1.355 . S
C1398 C1400 1.415 . S
C1399 C1398 1.355 . S
C1399 C1401 1.419 . S
C1400 C1398 1.415 . S
C1400 C1405 1.425 . S
C1400 C1407 1.409 . S
C1401 H1393 0.930 . S
C1401 C1399 1.419 . S
C1401 C1402 1.362 . S
C1402 H1394 0.930 . S
C1402 C1401 1.362 . S
C1402 C1405 1.409 . S
C1403 H1395 0.930 . S
C1403 C1404 1.355 . S
C1403 C1405 1.415 . S
C1404 C1403 1.355 . S
C1404 C1406 1.419 . S
C1405 C1400 1.425 . S
C1405 C1402 1.409 . S
C1405 C1403 1.415 . S
C1406 H1396 0.930 . S
C1406 C1404 1.419 . S
C1406 C1407 1.362 . S
C1407 H1397 0.930 . S
C1407 C1400 1.409 . S
C1407 C1406 1.362 . S
H1408 C1414 0.930 . S
H1409 C1417 0.930 . S
H1410 C1418 0.930 . S
H1411 C1419 0.930 . S
H1412 C1422 0.930 . S
H1413 C1423 0.930 . S
C1414 H1408 0.930 . S
C1414 C1415 1.355 . S
C1414 C1416 1.415 . S
C1415 C1414 1.355 . S
C1415 C1417 1.419 . S
C1416 C1414 1.415 . S
C1416 C1421 1.425 . S
C1416 C1423 1.409 . S
C1417 H1409 0.930 . S
C1417 C1415 1.419 . S
C1417 C1418 1.362 . S
C1418 H1410 0.930 . S
C1418 C1417 1.362 . S
C1418 C1421 1.409 . S
C1419 H1411 0.930 . S
C1419 C1420 1.355 . S
C1419 C1421 1.415 . S
C1420 C1419 1.355 . S
C1420 C1422 1.419 . S
C1421 C1416 1.425 . S
C1421 C1418 1.409 . S
C1421 C1419 1.415 . S
C1422 H1412 0.930 . S
C1422 C1420 1.419 . S
C1422 C1423 1.362 . S
C1423 H1413 0.930 . S
C1423 C1416 1.409 . S
C1423 C1422 1.362 . S
H1424 C1430 0.930 . S
H1425 C1433 0.930 . S
H1426 C1434 0.930 . S
H1427 C1435 0.930 . S
H1428 C1438 0.930 . S
H1429 C1439 0.930 . S
C1430 H1424 0.930 . S
C1430 C1431 1.355 . S
C1430 C1432 1.415 . S
C1431 C1430 1.355 . S
C1431 C1433 1.419 . S
C1432 C1430 1.415 . S
C1432 C1437 1.425 . S
C1432 C1439 1.409 . S
C1433 H1425 0.930 . S
C1433 C1431 1.419 . S
C1433 C1434 1.362 . S
C1434 H1426 0.930 . S
C1434 C1433 1.362 . S
C1434 C1437 1.409 . S
C1435 H1427 0.930 . S
C1435 C1436 1.355 . S
C1435 C1437 1.415 . S
C1436 C1435 1.355 . S
C1436 C1438 1.419 . S
C1437 C1432 1.425 . S
C1437 C1434 1.409 . S
C1437 C1435 1.415 . S
C1438 H1428 0.930 . S
C1438 C1436 1.419 . S
C1438 C1439 1.362 . S
C1439 H1429 0.930 . S
C1439 C1432 1.409 . S
C1439 C1438 1.362 . S
H1440 C1446 0.930 . S
H1441 C1449 0.930 . S
H1442 C1450 0.930 . S
H1443 C1451 0.930 . S
H1444 C1454 0.930 . S
H1445 C1455 0.930 . S
C1446 H1440 0.930 . S
C1446 C1447 1.355 . S
C1446 C1448 1.415 . S
C1447 C1446 1.355 . S
C1447 C1449 1.419 . S
C1448 C1446 1.415 . S
C1448 C1453 1.425 . S
C1448 C1455 1.409 . S
C1449 H1441 0.930 . S
C1449 C1447 1.419 . S
C1449 C1450 1.362 . S
C1450 H1442 0.930 . S
C1450 C1449 1.362 . S
C1450 C1453 1.409 . S
C1451 H1443 0.930 . S
C1451 C1452 1.355 . S
C1451 C1453 1.415 . S
C1452 C1451 1.355 . S
C1452 C1454 1.419 . S
C1453 C1448 1.425 . S
C1453 C1450 1.409 . S
C1453 C1451 1.415 . S
C1454 H1444 0.930 . S
C1454 C1452 1.419 . S
C1454 C1455 1.362 . S
C1455 H1445 0.930 . S
C1455 C1448 1.409 . S
C1455 C1454 1.362 . S
H1456 C1462 0.930 . S
H1457 C1465 0.930 . S
H1458 C1466 0.930 . S
H1459 C1467 0.930 . S
H1460 C1470 0.930 . S
H1461 C1471 0.930 . S
C1462 H1456 0.930 . S
C1462 C1463 1.355 . S
C1462 C1464 1.415 . S
C1463 C1462 1.355 . S
C1463 C1465 1.419 . S
C1464 C1462 1.415 . S
C1464 C1469 1.425 . S
C1464 C1471 1.409 . S
C1465 H1457 0.930 . S
C1465 C1463 1.419 . S
C1465 C1466 1.362 . S
C1466 H1458 0.930 . S
C1466 C1465 1.362 . S
C1466 C1469 1.409 . S
C1467 H1459 0.930 . S
C1467 C1468 1.355 . S
C1467 C1469 1.415 . S
C1468 C1467 1.355 . S
C1468 C1470 1.419 . S
C1469 C1464 1.425 . S
C1469 C1466 1.409 . S
C1469 C1467 1.415 . S
C1470 H1460 0.930 . S
C1470 C1468 1.419 . S
C1470 C1471 1.362 . S
C1471 H1461 0.930 . S
C1471 C1464 1.409 . S
C1471 C1470 1.362 . S
H1472 C1478 0.930 . S
H1473 C1481 0.930 . S
H1474 C1482 0.930 . S
H1475 C1483 0.930 . S
H1476 C1486 0.930 . S
H1477 C1487 0.930 . S
C1478 H1472 0.930 . S
C1478 C1479 1.355 . S
C1478 C1480 1.415 . S
C1479 C1478 1.355 . S
C1479 C1481 1.419 . S
C1480 C1478 1.415 . S
C1480 C1485 1.425 . S
C1480 C1487 1.409 . S
C1481 H1473 0.930 . S
C1481 C1479 1.419 . S
C1481 C1482 1.362 . S
C1482 H1474 0.930 . S
C1482 C1481 1.362 . S
C1482 C1485 1.409 . S
C1483 H1475 0.930 . S
C1483 C1484 1.355 . S
C1483 C1485 1.415 . S
C1484 C1483 1.355 . S
C1484 C1486 1.419 . S
C1485 C1480 1.425 . S
C1485 C1482 1.409 . S
C1485 C1483 1.415 . S
C1486 H1476 0.930 . S
C1486 C1484 1.419 . S
C1486 C1487 1.362 . S
C1487 H1477 0.930 . S
C1487 C1480 1.409 . S
C1487 C1486 1.362 . S
H1488 C1494 0.930 . S
H1489 C1497 0.930 . S
H1490 C1498 0.930 . S
H1491 C1499 0.930 . S
H1492 C1502 0.930 . S
H1493 C1503 0.930 . S
C1494 H1488 0.930 . S
C1494 C1495 1.355 . S
C1494 C1496 1.415 . S
C1495 C1494 1.355 . S
C1495 C1497 1.419 . S
C1496 C1494 1.415 . S
C1496 C1501 1.425 . S
C1496 C1503 1.409 . S
C1497 H1489 0.930 . S
C1497 C1495 1.419 . S
C1497 C1498 1.362 . S
C1498 H1490 0.930 . S
C1498 C1497 1.362 . S
C1498 C1501 1.409 . S
C1499 H1491 0.930 . S
C1499 C1500 1.355 . S
C1499 C1501 1.415 . S
C1500 C1499 1.355 . S
C1500 C1502 1.419 . S
C1501 C1496 1.425 . S
C1501 C1498 1.409 . S
C1501 C1499 1.415 . S
C1502 H1492 0.930 . S
C1502 C1500 1.419 . S
C1502 C1503 1.362 . S
C1503 H1493 0.930 . S
C1503 C1496 1.409 . S
C1503 C1502 1.362 . S
H1504 C1510 0.930 . S
H1505 C1513 0.930 . S
H1506 C1514 0.930 . S
H1507 C1515 0.930 . S
H1508 C1518 0.930 . S
H1509 C1519 0.930 . S
C1510 H1504 0.930 . S
C1510 C1511 1.355 . S
C1510 C1512 1.415 . S
C1511 C1510 1.355 . S
C1511 C1513 1.419 . S
C1512 C1510 1.415 . S
C1512 C1517 1.425 . S
C1512 C1519 1.409 . S
C1513 H1505 0.930 . S
C1513 C1511 1.419 . S
C1513 C1514 1.362 . S
C1514 H1506 0.930 . S
C1514 C1513 1.362 . S
C1514 C1517 1.409 . S
C1515 H1507 0.930 . S
C1515 C1516 1.355 . S
C1515 C1517 1.415 . S
C1516 C1515 1.355 . S
C1516 C1518 1.419 . S
C1517 C1512 1.425 . S
C1517 C1514 1.409 . S
C1517 C1515 1.415 . S
C1518 H1508 0.930 . S
C1518 C1516 1.419 . S
C1518 C1519 1.362 . S
C1519 H1509 0.930 . S
C1519 C1512 1.409 . S
C1519 C1518 1.362 . S
H1520 C1526 0.930 . S
H1521 C1529 0.930 . S
H1522 C1530 0.930 . S
H1523 C1531 0.930 . S
H1524 C1534 0.930 . S
H1525 C1535 0.930 . S
C1526 H1520 0.930 . S
C1526 C1527 1.355 . S
C1526 C1528 1.415 . S
C1527 C1526 1.355 . S
C1527 C1529 1.419 . S
C1528 C1526 1.415 . S
C1528 C1533 1.425 . S
C1528 C1535 1.409 . S
C1529 H1521 0.930 . S
C1529 C1527 1.419 . S
C1529 C1530 1.362 . S
C1530 H1522 0.930 . S
C1530 C1529 1.362 . S
C1530 C1533 1.409 . S
C1531 H1523 0.930 . S
C1531 C1532 1.355 . S
C1531 C1533 1.415 . S
C1532 C1531 1.355 . S
C1532 C1534 1.419 . S
C1533 C1528 1.425 . S
C1533 C1530 1.409 . S
C1533 C1531 1.415 . S
C1534 H1524 0.930 . S
C1534 C1532 1.419 . S
C1534 C1535 1.362 . S
C1535 H1525 0.930 . S
C1535 C1528 1.409 . S
C1535 C1534 1.362 . S
H1536 C1542 0.930 . S
H1537 C1545 0.930 . S
H1538 C1546 0.930 . S
H1539 C1547 0.930 . S
H1540 C1550 0.930 . S
H1541 C1551 0.930 . S
C1542 H1536 0.930 . S
C1542 C1543 1.355 . S
C1542 C1544 1.415 . S
C1543 C1542 1.355 . S
C1543 C1545 1.419 . S
C1544 C1542 1.415 . S
C1544 C1549 1.425 . S
C1544 C1551 1.409 . S
C1545 H1537 0.930 . S
C1545 C1543 1.419 . S
C1545 C1546 1.362 . S
C1546 H1538 0.930 . S
C1546 C1545 1.362 . S
C1546 C1549 1.409 . S
C1547 H1539 0.930 . S
C1547 C1548 1.355 . S
C1547 C1549 1.415 . S
C1548 C1547 1.355 . S
C1548 C1550 1.419 . S
C1549 C1544 1.425 . S
C1549 C1546 1.409 . S
C1549 C1547 1.415 . S
C1550 H1540 0.930 . S
C1550 C1548 1.419 . S
C1550 C1551 1.362 . S
C1551 H1541 0.930 . S
C1551 C1544 1.409 . S
C1551 C1550 1.362 . S
H1552 C1558 0.930 . S
H1553 C1561 0.930 . S
H1554 C1562 0.930 . S
H1555 C1563 0.930 . S
H1556 C1566 0.930 . S
H1557 C1567 0.930 . S
C1558 H1552 0.930 . S
C1558 C1559 1.355 . S
C1558 C1560 1.415 . S
C1559 C1558 1.355 . S
C1559 C1561 1.419 . S
C1560 C1558 1.415 . S
C1560 C1565 1.425 . S
C1560 C1567 1.409 . S
C1561 H1553 0.930 . S
C1561 C1559 1.419 . S
C1561 C1562 1.362 . S
C1562 H1554 0.930 . S
C1562 C1561 1.362 . S
C1562 C1565 1.409 . S
C1563 H1555 0.930 . S
C1563 C1564 1.355 . S
C1563 C1565 1.415 . S
C1564 C1563 1.355 . S
C1564 C1566 1.419 . S
C1565 C1560 1.425 . S
C1565 C1562 1.409 . S
C1565 C1563 1.415 . S
C1566 H1556 0.930 . S
C1566 C1564 1.419 . S
C1566 C1567 1.362 . S
C1567 H1557 0.930 . S
C1567 C1560 1.409 . S
C1567 C1566 1.362 . S
H1568 C1574 0.930 . S
H1569 C1577 0.930 . S
H1570 C1578 0.930 . S
H1571 C1579 0.930 . S
H1572 C1582 0.930 . S
H1573 C1583 0.930 . S
C1574 H1568 0.930 . S
C1574 C1575 1.355 . S
C1574 C1576 1.415 . S
C1575 C1574 1.355 . S
C1575 C1577 1.419 . S
C1576 C1574 1.415 . S
C1576 C1581 1.425 . S
C1576 C1583 1.409 . S
C1577 H1569 0.930 . S
C1577 C1575 1.419 . S
C1577 C1578 1.362 . S
C1578 H1570 0.930 . S
C1578 C1577 1.362 . S
C1578 C1581 1.409 . S
C1579 H1571 0.930 . S
C1579 C1580 1.355 . S
C1579 C1581 1.415 . S
C1580 C1579 1.355 . S
C1580 C1582 1.419 . S
C1581 C1576 1.425 . S
C1581 C1578 1.409 . S
C1581 C1579 1.415 . S
C1582 H1572 0.930 . S
C1582 C1580 1.419 . S
C1582 C1583 1.362 . S
C1583 H1573 0.930 . S
C1583 C1576 1.409 . S
C1583 C1582 1.362 . S
H1584 C1590 0.930 . S
H1585 C1593 0.930 . S
H1586 C1594 0.930 . S
H1587 C1595 0.930 . S
H1588 C1598 0.930 . S
H1589 C1599 0.930 . S
C1590 H1584 0.930 . S
C1590 C1591 1.355 . S
C1590 C1592 1.415 . S
C1591 C1590 1.355 . S
C1591 C1593 1.419 . S
C1592 C1590 1.415 . S
C1592 C1597 1.425 . S
C1592 C1599 1.409 . S
C1593 H1585 0.930 . S
C1593 C1591 1.419 . S
C1593 C1594 1.362 . S
C1594 H1586 0.930 . S
C1594 C1593 1.362 . S
C1594 C1597 1.409 . S
C1595 H1587 0.930 . S
C1595 C1596 1.355 . S
C1595 C1597 1.415 . S
C1596 C1595 1.355 . S
C1596 C1598 1.419 . S
C1597 C1592 1.425 . S
C1597 C1594 1.409 . S
C1597 C1595 1.415 . S
C1598 H1588 0.930 . S
C1598 C1596 1.419 . S
C1598 C1599 1.362 . S
C1599 H1589 0.930 . S
C1599 C1592 1.409 . S
C1599 C1598 1.362 . S
H1600 C1606 0.930 . S
H1601 C1609 0.930 . S
H1602 C1610 0.930 . S
H1603 C1611 0.930 . S
H1604 C1614 0.930 . S
H1605 C1615 0.930 . S
C1606 H1600 0.930 . S
C1606 C1607 1.355 . S
C1606 C1608 1.415 . S
C1607 C1606 1.355 . S
C1607 C1609 1.419 . S
C1608 C1606 1.415 . S
C1608 C1613 1.425 . S
C1608 C1615 1.409 . S
C1609 H1601 0.930 . S
C1609 C1607 1.419 . S
C1609 C1610 1.362 . S
C1610 H1602 0.930 . S
C1610 C1609 1.362 . S
C1610 C1613 1.409 . S
C1611 H1603 0.930 . S
C1611 C1612 1.355 . S
C1611 C1613 1.415 . S
C1612 C1611 1.355 . S
C1612 C1614 1.419 . S
C1613 C1608 1.425 . S
C1613 C1610 1.409 . S
C1613 C1611 1.415 . S
C1614 H1604 0.930 . S
C1614 C1612 1.419 . S
C1614 C1615 1.362 . S
C1615 H1605 0.930 . S
C1615 C1608 1.409 . S
C1615 C1614 1.362 . S
H1616 C1622 0.930 . S
H1617 C1625 0.930 . S
H1618 C1626 0.930 . S
H1619 C1627 0.930 . S
H1620 C1630 0.930 . S
H1621 C1631 0.930 . S
C1622 H1616 0.930 . S
C1622 C1623 1.355 . S
C1622 C1624 1.415 . S
C1623 C1622 1.355 . S
C1623 C1625 1.419 . S
C1624 C1622 1.415 . S
C1624 C1629 1.425 . S
C1624 C1631 1.409 . S
C1625 H1617 0.930 . S
C1625 C1623 1.419 . S
C1625 C1626 1.362 . S
C1626 H1618 0.930 . S
C1626 C1625 1.362 . S
C1626 C1629 1.409 . S
C1627 H1619 0.930 . S
C1627 C1628 1.355 . S
C1627 C1629 1.415 . S
C1628 C1627 1.355 . S
C1628 C1630 1.419 . S
C1629 C1624 1.425 . S
C1629 C1626 1.409 . S
C1629 C1627 1.415 . S
C1630 H1620 0.930 . S
C1630 C1628 1.419 . S
C1630 C1631 1.362 . S
C1631 H1621 0.930 . S
C1631 C1624 1.409 . S
C1631 C1630 1.362 . S
H1632 C1638 0.930 . S
H1633 C1641 0.930 . S
H1634 C1642 0.930 . S
H1635 C1643 0.930 . S
H1636 C1646 0.930 . S
H1637 C1647 0.930 . S
C1638 H1632 0.930 . S
C1638 C1639 1.355 . S
C1638 C1640 1.415 . S
C1639 C1638 1.355 . S
C1639 C1641 1.419 . S
C1640 C1638 1.415 . S
C1640 C1645 1.425 . S
C1640 C1647 1.409 . S
C1641 H1633 0.930 . S
C1641 C1639 1.419 . S
C1641 C1642 1.362 . S
C1642 H1634 0.930 . S
C1642 C1641 1.362 . S
C1642 C1645 1.409 . S
C1643 H1635 0.930 . S
C1643 C1644 1.355 . S
C1643 C1645 1.415 . S
C1644 C1643 1.355 . S
C1644 C1646 1.419 . S
C1645 C1640 1.425 . S
C1645 C1642 1.409 . S
C1645 C1643 1.415 . S
C1646 H1636 0.930 . S
C1646 C1644 1.419 . S
C1646 C1647 1.362 . S
C1647 H1637 0.930 . S
C1647 C1640 1.409 . S
C1647 C1646 1.362 . S
H1648 C1654 0.928 . S
H1649 C1657 0.930 . S
H1650 C1658 0.930 . S
H1651 C1659 0.930 . S
H1652 C1662 0.930 1_554 S
H1653 C1663 0.930 1_554 S
C1654 H1648 0.928 . S
C1654 C1655 1.355 . S
C1654 C1656 1.416 . S
C1655 C1654 1.355 . S
C1655 C1657 1.419 . S
C1656 C1654 1.416 . S
C1656 C1661 1.425 1_655 S
C1656 C1663 1.408 1_655 S
C1657 H1649 0.930 . S
C1657 C1655 1.419 . S
C1657 C1658 1.362 . S
C1658 H1650 0.930 . S
C1658 C1657 1.362 . S
C1658 C1661 1.409 1_655 S
C1659 H1651 0.930 . S
C1659 C1660 1.355 . S
C1659 C1661 1.415 . S
C1660 C1659 1.355 . S
C1660 C1662 1.419 . S
C1661 C1656 1.425 1_455 S
C1661 C1658 1.409 1_455 S
C1661 C1659 1.415 . S
C1662 H1652 0.930 1_556 S
C1662 C1660 1.419 . S
C1662 C1663 1.362 . S
C1663 H1653 0.930 1_556 S
C1663 C1656 1.408 1_455 S
C1663 C1662 1.362 . S
H1664 C1670 0.930 . S
H1665 C1673 0.930 . S
H1666 C1674 0.930 . S
H1667 C1675 0.930 . S
H1668 C1678 0.930 . S
H1669 C1679 0.930 . S
C1670 H1664 0.930 . S
C1670 C1671 1.355 . S
C1670 C1672 1.415 . S
C1671 C1670 1.355 . S
C1671 C1673 1.419 . S
C1672 C1670 1.415 . S
C1672 C1677 1.425 . S
C1672 C1679 1.409 . S
C1673 H1665 0.930 . S
C1673 C1671 1.419 . S
C1673 C1674 1.362 . S
C1674 H1666 0.930 . S
C1674 C1673 1.362 . S
C1674 C1677 1.409 . S
C1675 H1667 0.930 . S
C1675 C1676 1.355 . S
C1675 C1677 1.415 . S
C1676 C1675 1.355 . S
C1676 C1678 1.419 . S
C1677 C1672 1.425 . S
C1677 C1674 1.409 . S
C1677 C1675 1.415 . S
C1678 H1668 0.930 . S
C1678 C1676 1.419 . S
C1678 C1679 1.362 . S
C1679 H1669 0.930 . S
C1679 C1672 1.409 . S
C1679 C1678 1.362 . S
H1680 C1686 0.930 . S
H1681 C1689 0.930 . S
H1682 C1690 0.930 . S
H1683 C1691 0.930 . S
H1684 C1694 0.930 . S
H1685 C1695 0.930 1_556 S
C1686 H1680 0.930 . S
C1686 C1687 1.355 . S
C1686 C1688 1.415 . S
C1687 C1686 1.355 . S
C1687 C1689 1.419 . S
C1688 C1686 1.415 . S
C1688 C1693 1.425 1_455 S
C1688 C1695 1.409 1_455 S
C1689 H1681 0.930 . S
C1689 C1687 1.419 . S
C1689 C1690 1.362 . S
C1690 H1682 0.930 . S
C1690 C1689 1.362 . S
C1690 C1693 1.409 1_455 S
C1691 H1683 0.930 . S
C1691 C1692 1.355 . S
C1691 C1693 1.415 . S
C1692 C1691 1.355 . S
C1692 C1694 1.419 . S
C1693 C1688 1.425 1_655 S
C1693 C1690 1.409 1_655 S
C1693 C1691 1.415 . S
C1694 H1684 0.930 . S
C1694 C1692 1.419 . S
C1694 C1695 1.362 . S
C1695 H1685 0.930 1_554 S
C1695 C1688 1.409 1_655 S
C1695 C1694 1.362 . S
H1696 C1702 0.930 . S
H1697 C1705 0.930 . S
H1698 C1706 0.930 . S
H1699 C1707 0.930 . S
H1700 C1710 0.930 . S
H1701 C1711 0.930 . S
C1702 H1696 0.930 . S
C1702 C1703 1.355 . S
C1702 C1704 1.415 . S
C1703 C1702 1.355 . S
C1703 C1705 1.419 . S
C1704 C1702 1.415 . S
C1704 C1709 1.425 . S
C1704 C1711 1.409 . S
C1705 H1697 0.930 . S
C1705 C1703 1.419 . S
C1705 C1706 1.362 . S
C1706 H1698 0.930 . S
C1706 C1705 1.362 . S
C1706 C1709 1.409 . S
C1707 H1699 0.930 . S
C1707 C1708 1.355 . S
C1707 C1709 1.415 . S
C1708 C1707 1.355 . S
C1708 C1710 1.419 . S
C1709 C1704 1.425 . S
C1709 C1706 1.409 . S
C1709 C1707 1.415 . S
C1710 H1700 0.930 . S
C1710 C1708 1.419 . S
C1710 C1711 1.362 . S
C1711 H1701 0.930 . S
C1711 C1704 1.409 . S
C1711 C1710 1.362 . S
H1712 C1718 0.930 . S
H1713 C1721 0.930 . S
H1714 C1722 0.930 . S
H1715 C1723 0.930 . S
H1716 C1726 0.930 . S
H1717 C1727 0.930 . S
C1718 H1712 0.930 . S
C1718 C1719 1.355 . S
C1718 C1720 1.415 . S
C1719 C1718 1.355 . S
C1719 C1721 1.419 . S
C1720 C1718 1.415 . S
C1720 C1725 1.425 . S
C1720 C1727 1.409 . S
C1721 H1713 0.930 . S
C1721 C1719 1.419 . S
C1721 C1722 1.362 . S
C1722 H1714 0.930 . S
C1722 C1721 1.362 . S
C1722 C1725 1.409 . S
C1723 H1715 0.930 . S
C1723 C1724 1.355 . S
C1723 C1725 1.415 . S
C1724 C1723 1.355 . S
C1724 C1726 1.419 . S
C1725 C1720 1.425 . S
C1725 C1722 1.409 . S
C1725 C1723 1.415 . S
C1726 H1716 0.930 . S
C1726 C1724 1.419 . S
C1726 C1727 1.362 . S
C1727 H1717 0.930 . S
C1727 C1720 1.409 . S
C1727 C1726 1.362 . S
H1728 C1734 0.930 . S
H1729 C1737 0.930 . S
H1730 C1738 0.930 . S
H1731 C1739 0.930 . S
H1732 C1742 0.930 . S
H1733 C1743 0.930 . S
C1734 H1728 0.930 . S
C1734 C1735 1.355 . S
C1734 C1736 1.415 . S
C1735 C1734 1.355 . S
C1735 C1737 1.419 . S
C1736 C1734 1.415 . S
C1736 C1741 1.425 . S
C1736 C1743 1.409 . S
C1737 H1729 0.930 . S
C1737 C1735 1.419 . S
C1737 C1738 1.362 . S
C1738 H1730 0.930 . S
C1738 C1737 1.362 . S
C1738 C1741 1.409 . S
C1739 H1731 0.930 . S
C1739 C1740 1.355 . S
C1739 C1741 1.415 . S
C1740 C1739 1.355 . S
C1740 C1742 1.419 . S
C1741 C1736 1.425 . S
C1741 C1738 1.409 . S
C1741 C1739 1.415 . S
C1742 H1732 0.930 . S
C1742 C1740 1.419 . S
C1742 C1743 1.362 . S
C1743 H1733 0.930 . S
C1743 C1736 1.409 . S
C1743 C1742 1.362 . S
H1744 C1750 0.930 . S
H1745 C1753 0.930 . S
H1746 C1754 0.930 . S
H1747 C1755 0.930 . S
H1748 C1758 0.930 . S
H1749 C1759 0.930 . S
C1750 H1744 0.930 . S
C1750 C1751 1.355 . S
C1750 C1752 1.415 . S
C1751 C1750 1.355 . S
C1751 C1753 1.419 . S
C1752 C1750 1.415 . S
C1752 C1757 1.425 . S
C1752 C1759 1.409 . S
C1753 H1745 0.930 . S
C1753 C1751 1.419 . S
C1753 C1754 1.362 . S
C1754 H1746 0.930 . S
C1754 C1753 1.362 . S
C1754 C1757 1.409 . S
C1755 H1747 0.930 . S
C1755 C1756 1.355 . S
C1755 C1757 1.415 . S
C1756 C1755 1.355 . S
C1756 C1758 1.419 . S
C1757 C1752 1.425 . S
C1757 C1754 1.409 . S
C1757 C1755 1.415 . S
C1758 H1748 0.930 . S
C1758 C1756 1.419 . S
C1758 C1759 1.362 . S
C1759 H1749 0.930 . S
C1759 C1752 1.409 . S
C1759 C1758 1.362 . S
H1760 C1766 0.930 . S
H1761 C1769 0.930 . S
H1762 C1770 0.930 . S
H1763 C1771 0.930 . S
H1764 C1774 0.930 . S
H1765 C1775 0.930 . S
C1766 H1760 0.930 . S
C1766 C1767 1.355 . S
C1766 C1768 1.415 . S
C1767 C1766 1.355 . S
C1767 C1769 1.419 . S
C1768 C1766 1.415 . S
C1768 C1773 1.425 . S
C1768 C1775 1.409 . S
C1769 H1761 0.930 . S
C1769 C1767 1.419 . S
C1769 C1770 1.362 . S
C1770 H1762 0.930 . S
C1770 C1769 1.362 . S
C1770 C1773 1.409 . S
C1771 H1763 0.930 . S
C1771 C1772 1.355 . S
C1771 C1773 1.415 . S
C1772 C1771 1.355 . S
C1772 C1774 1.419 . S
C1773 C1768 1.425 . S
C1773 C1770 1.409 . S
C1773 C1771 1.415 . S
C1774 H1764 0.930 . S
C1774 C1772 1.419 . S
C1774 C1775 1.362 . S
C1775 H1765 0.930 . S
C1775 C1768 1.409 . S
C1775 C1774 1.362 . S
H1776 C1782 0.930 . S
H1777 C1785 0.930 . S
H1778 C1786 0.930 . S
H1779 C1787 0.930 . S
H1780 C1790 0.930 . S
H1781 C1791 0.930 . S
C1782 H1776 0.930 . S
C1782 C1783 1.355 . S
C1782 C1784 1.415 . S
C1783 C1782 1.355 . S
C1783 C1785 1.419 . S
C1784 C1782 1.415 . S
C1784 C1789 1.425 . S
C1784 C1791 1.409 . S
C1785 H1777 0.930 . S
C1785 C1783 1.419 . S
C1785 C1786 1.362 . S
C1786 H1778 0.930 . S
C1786 C1785 1.362 . S
C1786 C1789 1.409 . S
C1787 H1779 0.930 . S
C1787 C1788 1.355 . S
C1787 C1789 1.415 . S
C1788 C1787 1.355 . S
C1788 C1790 1.419 . S
C1789 C1784 1.425 . S
C1789 C1786 1.409 . S
C1789 C1787 1.415 . S
C1790 H1780 0.930 . S
C1790 C1788 1.419 . S
C1790 C1791 1.362 . S
C1791 H1781 0.930 . S
C1791 C1784 1.409 . S
C1791 C1790 1.362 . S
H1792 C1798 0.930 . S
H1793 C1801 0.930 . S
H1794 C1802 0.930 . S
H1795 C1803 0.930 . S
H1796 C1806 0.930 . S
H1797 C1807 0.930 . S
C1798 H1792 0.930 . S
C1798 C1799 1.355 . S
C1798 C1800 1.415 . S
C1799 C1798 1.355 . S
C1799 C1801 1.419 . S
C1800 C1798 1.415 . S
C1800 C1805 1.425 1_655 S
C1800 C1807 1.409 1_655 S
C1801 H1793 0.930 . S
C1801 C1799 1.419 . S
C1801 C1802 1.362 . S
C1802 H1794 0.930 . S
C1802 C1801 1.362 . S
C1802 C1805 1.409 1_655 S
C1803 H1795 0.930 . S
C1803 C1804 1.355 . S
C1803 C1805 1.415 . S
C1804 C1803 1.355 . S
C1804 C1806 1.419 . S
C1805 C1800 1.425 1_455 S
C1805 C1802 1.409 1_455 S
C1805 C1803 1.415 . S
C1806 H1796 0.930 . S
C1806 C1804 1.419 . S
C1806 C1807 1.362 . S
C1807 H1797 0.930 . S
C1807 C1800 1.409 1_455 S
C1807 C1806 1.362 . S
H1808 C1814 0.930 . S
H1809 C1817 0.930 . S
H1810 C1818 0.930 . S
H1811 C1819 0.930 . S
H1812 C1822 0.930 . S
H1813 C1823 0.930 . S
C1814 H1808 0.930 . S
C1814 C1815 1.355 . S
C1814 C1816 1.415 . S
C1815 C1814 1.355 . S
C1815 C1817 1.419 . S
C1816 C1814 1.415 . S
C1816 C1821 1.425 . S
C1816 C1823 1.409 . S
C1817 H1809 0.930 . S
C1817 C1815 1.419 . S
C1817 C1818 1.362 . S
C1818 H1810 0.930 . S
C1818 C1817 1.362 . S
C1818 C1821 1.409 . S
C1819 H1811 0.930 . S
C1819 C1820 1.355 . S
C1819 C1821 1.415 . S
C1820 C1819 1.355 . S
C1820 C1822 1.419 . S
C1821 C1816 1.425 . S
C1821 C1818 1.409 . S
C1821 C1819 1.415 . S
C1822 H1812 0.930 . S
C1822 C1820 1.419 . S
C1822 C1823 1.362 . S
C1823 H1813 0.930 . S
C1823 C1816 1.409 . S
C1823 C1822 1.362 . S
H1824 C1830 0.930 . S
H1825 C1833 0.930 . S
H1826 C1834 0.930 . S
H1827 C1835 0.930 . S
H1828 C1838 0.930 . S
H1829 C1839 0.930 . S
C1830 H1824 0.930 . S
C1830 C1831 1.355 . S
C1830 C1832 1.415 . S
C1831 C1830 1.355 . S
C1831 C1833 1.419 . S
C1832 C1830 1.415 . S
C1832 C1837 1.425 . S
C1832 C1839 1.409 . S
C1833 H1825 0.930 . S
C1833 C1831 1.419 . S
C1833 C1834 1.362 . S
C1834 H1826 0.930 . S
C1834 C1833 1.362 . S
C1834 C1837 1.409 . S
C1835 H1827 0.930 . S
C1835 C1836 1.355 . S
C1835 C1837 1.415 . S
C1836 C1835 1.355 . S
C1836 C1838 1.419 . S
C1837 C1832 1.425 . S
C1837 C1834 1.409 . S
C1837 C1835 1.415 . S
C1838 H1828 0.930 . S
C1838 C1836 1.419 . S
C1838 C1839 1.362 . S
C1839 H1829 0.930 . S
C1839 C1832 1.409 . S
C1839 C1838 1.362 . S
H1840 C1846 0.930 . S
H1841 C1849 0.930 . S
H1842 C1850 0.930 . S
H1843 C1851 0.930 . S
H1844 C1854 0.930 . S
H1845 C1855 0.930 . S
C1846 H1840 0.930 . S
C1846 C1847 1.355 . S
C1846 C1848 1.424 . S
C1847 C1846 1.355 . S
C1847 C1849 1.419 . S
C1848 C1846 1.424 . S
C1848 C1853 1.422 1_455 S
C1848 C1855 1.403 1_455 S
C1849 H1841 0.930 . S
C1849 C1847 1.419 . S
C1849 C1850 1.362 . S
C1850 H1842 0.930 . S
C1850 C1849 1.362 . S
C1850 C1853 1.409 1_455 S
C1851 H1843 0.930 . S
C1851 C1852 1.355 . S
C1851 C1853 1.415 . S
C1852 C1851 1.355 . S
C1852 C1854 1.419 . S
C1853 C1848 1.422 1_655 S
C1853 C1850 1.409 1_655 S
C1853 C1851 1.415 . S
C1854 H1844 0.930 . S
C1854 C1852 1.419 . S
C1854 C1855 1.362 . S
C1855 H1845 0.930 . S
C1855 C1848 1.403 1_655 S
C1855 C1854 1.362 . S
H1856 C1862 0.930 1_556 S
H1857 C1865 0.930 . S
H1858 C1866 0.930 . S
H1859 C1867 0.930 1_554 S
H1860 C1870 0.930 . S
H1861 C1871 0.930 . S
C1862 H1856 0.930 1_554 S
C1862 C1863 1.355 . S
C1862 C1864 1.415 1_554 S
C1863 C1862 1.355 . S
C1863 C1865 1.419 . S
C1864 C1862 1.415 1_556 S
C1864 C1869 1.425 1_556 S
C1864 C1871 1.409 . S
C1865 H1857 0.930 . S
C1865 C1863 1.419 . S
C1865 C1866 1.362 . S
C1866 H1858 0.930 . S
C1866 C1865 1.362 . S
C1866 C1869 1.409 . S
C1867 H1859 0.930 1_556 S
C1867 C1868 1.355 . S
C1867 C1869 1.415 1_556 S
C1868 C1867 1.355 . S
C1868 C1870 1.419 . S
C1869 C1864 1.425 1_554 S
C1869 C1866 1.409 . S
C1869 C1867 1.415 1_554 S
C1870 H1860 0.930 . S
C1870 C1868 1.419 . S
C1870 C1871 1.362 . S
C1871 H1861 0.930 . S
C1871 C1864 1.409 . S
C1871 C1870 1.362 . S
H1872 C1878 0.930 . S
H1873 C1881 0.930 . S
H1874 C1882 0.930 . S
H1875 C1883 0.930 . S
H1876 C1886 0.930 . S
H1877 C1887 0.930 . S
C1878 H1872 0.930 . S
C1878 C1879 1.355 . S
C1878 C1880 1.415 . S
C1879 C1878 1.355 . S
C1879 C1881 1.419 . S
C1880 C1878 1.415 . S
C1880 C1885 1.425 . S
C1880 C1887 1.409 . S
C1881 H1873 0.930 . S
C1881 C1879 1.419 . S
C1881 C1882 1.362 . S
C1882 H1874 0.930 . S
C1882 C1881 1.362 . S
C1882 C1885 1.409 . S
C1883 H1875 0.930 . S
C1883 C1884 1.355 . S
C1883 C1885 1.415 . S
C1884 C1883 1.355 . S
C1884 C1886 1.419 . S
C1885 C1880 1.425 . S
C1885 C1882 1.409 . S
C1885 C1883 1.415 . S
C1886 H1876 0.930 . S
C1886 C1884 1.419 . S
C1886 C1887 1.362 . S
C1887 H1877 0.930 . S
C1887 C1880 1.409 . S
C1887 C1886 1.362 . S
H1888 C1894 0.930 . S
H1889 C1897 0.930 . S
H1890 C1898 0.930 . S
H1891 C1899 0.930 . S
H1892 C1902 0.930 . S
H1893 C1903 0.930 . S
C1894 H1888 0.930 . S
C1894 C1895 1.355 . S
C1894 C1896 1.415 . S
C1895 C1894 1.355 . S
C1895 C1897 1.419 . S
C1896 C1894 1.415 . S
C1896 C1901 1.425 . S
C1896 C1903 1.409 . S
C1897 H1889 0.930 . S
C1897 C1895 1.419 . S
C1897 C1898 1.362 . S
C1898 H1890 0.930 . S
C1898 C1897 1.362 . S
C1898 C1901 1.409 . S
C1899 H1891 0.930 . S
C1899 C1900 1.355 . S
C1899 C1901 1.415 . S
C1900 C1899 1.355 . S
C1900 C1902 1.419 . S
C1901 C1896 1.425 . S
C1901 C1898 1.409 . S
C1901 C1899 1.415 . S
C1902 H1892 0.930 . S
C1902 C1900 1.419 . S
C1902 C1903 1.362 . S
C1903 H1893 0.930 . S
C1903 C1896 1.409 . S
C1903 C1902 1.362 . S
H1904 C1910 0.930 . S
H1905 C1913 0.930 . S
H1906 C1914 0.930 . S
H1907 C1915 0.930 . S
H1908 C1918 0.930 . S
H1909 C1919 0.930 . S
C1910 H1904 0.930 . S
C1910 C1911 1.355 . S
C1910 C1912 1.415 . S
C1911 C1910 1.355 . S
C1911 C1913 1.419 . S
C1912 C1910 1.415 . S
C1912 C1917 1.425 . S
C1912 C1919 1.409 . S
C1913 H1905 0.930 . S
C1913 C1911 1.419 . S
C1913 C1914 1.362 . S
C1914 H1906 0.930 . S
C1914 C1913 1.362 . S
C1914 C1917 1.409 . S
C1915 H1907 0.930 . S
C1915 C1916 1.355 . S
C1915 C1917 1.415 . S
C1916 C1915 1.355 . S
C1916 C1918 1.419 . S
C1917 C1912 1.425 . S
C1917 C1914 1.409 . S
C1917 C1915 1.415 . S
C1918 H1908 0.930 . S
C1918 C1916 1.419 . S
C1918 C1919 1.362 . S
C1919 H1909 0.930 . S
C1919 C1912 1.409 . S
C1919 C1918 1.362 . S
H1920 C1926 0.930 1_556 S
H1921 C1929 0.930 . S
H1922 C1930 0.930 . S
H1923 C1931 0.930 1_554 S
H1924 C1934 0.930 . S
H1925 C1935 0.930 . S
C1926 H1920 0.930 1_554 S
C1926 C1927 1.355 . S
C1926 C1928 1.415 1_554 S
C1927 C1926 1.355 . S
C1927 C1929 1.419 . S
C1928 C1926 1.415 1_556 S
C1928 C1933 1.425 1_556 S
C1928 C1935 1.409 . S
C1929 H1921 0.930 . S
C1929 C1927 1.419 . S
C1929 C1930 1.362 . S
C1930 H1922 0.930 . S
C1930 C1929 1.362 . S
C1930 C1933 1.409 . S
C1931 H1923 0.930 1_556 S
C1931 C1932 1.355 . S
C1931 C1933 1.415 1_556 S
C1932 C1931 1.355 . S
C1932 C1934 1.419 . S
C1933 C1928 1.425 1_554 S
C1933 C1930 1.409 . S
C1933 C1931 1.415 1_554 S
C1934 H1924 0.930 . S
C1934 C1932 1.419 . S
C1934 C1935 1.362 . S
C1935 H1925 0.930 . S
C1935 C1928 1.409 . S
C1935 C1934 1.362 . S
H1936 C1942 0.930 . S
H1937 C1945 0.930 . S
H1938 C1946 0.930 . S
H1939 C1947 0.930 . S
H1940 C1950 0.930 . S
H1941 C1951 0.930 . S
C1942 H1936 0.930 . S
C1942 C1943 1.355 . S
C1942 C1944 1.415 . S
C1943 C1942 1.355 . S
C1943 C1945 1.419 . S
C1944 C1942 1.415 . S
C1944 C1949 1.425 . S
C1944 C1951 1.409 . S
C1945 H1937 0.930 . S
C1945 C1943 1.419 . S
C1945 C1946 1.362 . S
C1946 H1938 0.930 . S
C1946 C1945 1.362 . S
C1946 C1949 1.409 . S
C1947 H1939 0.930 . S
C1947 C1948 1.355 . S
C1947 C1949 1.415 . S
C1948 C1947 1.355 . S
C1948 C1950 1.419 . S
C1949 C1944 1.425 . S
C1949 C1946 1.409 . S
C1949 C1947 1.415 . S
C1950 H1940 0.930 . S
C1950 C1948 1.419 . S
C1950 C1951 1.362 . S
C1951 H1941 0.930 . S
C1951 C1944 1.409 . S
C1951 C1950 1.362 . S
H1952 C1958 0.930 . S
H1953 C1961 0.930 . S
H1954 C1962 0.930 . S
H1955 C1963 0.930 . S
H1956 C1966 0.930 . S
H1957 C1967 0.930 . S
C1958 H1952 0.930 . S
C1958 C1959 1.355 . S
C1958 C1960 1.415 . S
C1959 C1958 1.355 . S
C1959 C1961 1.419 . S
C1960 C1958 1.415 . S
C1960 C1965 1.425 . S
C1960 C1967 1.409 . S
C1961 H1953 0.930 . S
C1961 C1959 1.419 . S
C1961 C1962 1.362 . S
C1962 H1954 0.930 . S
C1962 C1961 1.362 . S
C1962 C1965 1.409 . S
C1963 H1955 0.930 . S
C1963 C1964 1.355 . S
C1963 C1965 1.415 . S
C1964 C1963 1.355 . S
C1964 C1966 1.419 . S
C1965 C1960 1.425 . S
C1965 C1962 1.409 . S
C1965 C1963 1.415 . S
C1966 H1956 0.930 . S
C1966 C1964 1.419 . S
C1966 C1967 1.362 . S
C1967 H1957 0.930 . S
C1967 C1960 1.409 . S
C1967 C1966 1.362 . S
H1968 C1974 0.930 . S
H1969 C1977 0.930 . S
H1970 C1978 0.930 . S
H1971 C1979 0.930 . S
H1972 C1982 0.930 . S
H1973 C1983 0.930 . S
C1974 H1968 0.930 . S
C1974 C1975 1.355 . S
C1974 C1976 1.415 . S
C1975 C1974 1.355 . S
C1975 C1977 1.419 . S
C1976 C1974 1.415 . S
C1976 C1981 1.425 . S
C1976 C1983 1.409 . S
C1977 H1969 0.930 . S
C1977 C1975 1.419 . S
C1977 C1978 1.362 . S
C1978 H1970 0.930 . S
C1978 C1977 1.362 . S
C1978 C1981 1.409 . S
C1979 H1971 0.930 . S
C1979 C1980 1.355 . S
C1979 C1981 1.415 . S
C1980 C1979 1.355 . S
C1980 C1982 1.419 . S
C1981 C1976 1.425 . S
C1981 C1978 1.409 . S
C1981 C1979 1.415 . S
C1982 H1972 0.930 . S
C1982 C1980 1.419 . S
C1982 C1983 1.362 . S
C1983 H1973 0.930 . S
C1983 C1976 1.409 . S
C1983 C1982 1.362 . S
H1984 C1990 0.930 . S
H1985 C1993 0.930 . S
H1986 C1994 0.930 . S
H1987 C1995 0.930 . S
H1988 C1998 0.930 . S
H1989 C1999 0.930 . S
C1990 H1984 0.930 . S
C1990 C1991 1.355 . S
C1990 C1992 1.415 1_565 S
C1991 C1990 1.355 . S
C1991 C1993 1.419 . S
C1992 C1990 1.415 1_545 S
C1992 C1997 1.425 . S
C1992 C1999 1.409 . S
C1993 H1985 0.930 . S
C1993 C1991 1.419 . S
C1993 C1994 1.362 . S
C1994 H1986 0.930 . S
C1994 C1993 1.362 . S
C1994 C1997 1.409 1_565 S
C1995 H1987 0.930 . S
C1995 C1996 1.355 . S
C1995 C1997 1.415 . S
C1996 C1995 1.355 . S
C1996 C1998 1.419 . S
C1997 C1992 1.425 . S
C1997 C1994 1.409 1_545 S
C1997 C1995 1.415 . S
C1998 H1988 0.930 . S
C1998 C1996 1.419 . S
C1998 C1999 1.362 . S
C1999 H1989 0.930 . S
C1999 C1992 1.409 . S
C1999 C1998 1.362 . S
H2000 C2006 0.930 . S
H2001 C2009 0.930 . S
H2002 C2010 0.930 . S
H2003 C2011 0.930 . S
H2004 C2014 0.930 . S
H2005 C2015 0.930 . S
C2006 H2000 0.930 . S
C2006 C2007 1.355 . S
C2006 C2008 1.415 . S
C2007 C2006 1.355 . S
C2007 C2009 1.419 . S
C2008 C2006 1.415 . S
C2008 C2013 1.425 . S
C2008 C2015 1.409 . S
C2009 H2001 0.930 . S
C2009 C2007 1.419 . S
C2009 C2010 1.362 . S
C2010 H2002 0.930 . S
C2010 C2009 1.362 . S
C2010 C2013 1.409 . S
C2011 H2003 0.930 . S
C2011 C2012 1.355 . S
C2011 C2013 1.415 . S
C2012 C2011 1.355 . S
C2012 C2014 1.419 . S
C2013 C2008 1.425 . S
C2013 C2010 1.409 . S
C2013 C2011 1.415 . S
C2014 H2004 0.930 . S
C2014 C2012 1.419 . S
C2014 C2015 1.362 . S
C2015 H2005 0.930 . S
C2015 C2008 1.409 . S
C2015 C2014 1.362 . S
H2016 C2022 0.930 . S
H2017 C2025 0.930 . S
H2018 C2026 0.930 1_556 S
H2019 C2027 0.930 . S
H2020 C2030 0.930 . S
H2021 C2031 0.930 1_554 S
C2022 H2016 0.930 . S
C2022 C2023 1.355 . S
C2022 C2024 1.415 . S
C2023 C2022 1.355 . S
C2023 C2025 1.419 . S
C2024 C2022 1.415 . S
C2024 C2029 1.425 1_564 S
C2024 C2031 1.409 1_564 S
C2025 H2017 0.930 . S
C2025 C2023 1.419 . S
C2025 C2026 1.362 . S
C2026 H2018 0.930 1_554 S
C2026 C2025 1.362 . S
C2026 C2029 1.409 1_564 S
C2027 H2019 0.930 . S
C2027 C2028 1.355 . S
C2027 C2029 1.415 . S
C2028 C2027 1.355 . S
C2028 C2030 1.419 . S
C2029 C2024 1.425 1_546 S
C2029 C2026 1.409 1_546 S
C2029 C2027 1.415 . S
C2030 H2020 0.930 . S
C2030 C2028 1.419 . S
C2030 C2031 1.362 . S
C2031 H2021 0.930 1_556 S
C2031 C2024 1.409 1_546 S
C2031 C2030 1.362 . S
H2032 C2038 0.930 . S
H2033 C2041 0.930 . S
H2034 C2042 0.930 . S
H2035 C2043 0.930 . S
H2036 C2046 0.930 . S
H2037 C2047 0.930 . S
C2038 H2032 0.930 . S
C2038 C2039 1.355 . S
C2038 C2040 1.415 . S
C2039 C2038 1.355 . S
C2039 C2041 1.419 . S
C2040 C2038 1.415 . S
C2040 C2045 1.425 . S
C2040 C2047 1.409 . S
C2041 H2033 0.930 . S
C2041 C2039 1.419 . S
C2041 C2042 1.362 . S
C2042 H2034 0.930 . S
C2042 C2041 1.362 . S
C2042 C2045 1.409 . S
C2043 H2035 0.930 . S
C2043 C2044 1.355 . S
C2043 C2045 1.415 . S
C2044 C2043 1.355 . S
C2044 C2046 1.419 . S
C2045 C2040 1.425 . S
C2045 C2042 1.409 . S
C2045 C2043 1.415 . S
C2046 H2036 0.930 . S
C2046 C2044 1.419 . S
C2046 C2047 1.362 . S
C2047 H2037 0.930 . S
C2047 C2040 1.409 . S
C2047 C2046 1.362 . S
H2048 C2054 0.930 . S
H2049 C2057 0.930 . S
H2050 C2058 0.930 . S
H2051 C2059 0.930 . S
H2052 C2062 0.930 . S
H2053 C2063 0.930 . S
C2054 H2048 0.930 . S
C2054 C2055 1.355 . S
C2054 C2056 1.415 . S
C2055 C2054 1.355 . S
C2055 C2057 1.419 . S
C2056 C2054 1.415 . S
C2056 C2061 1.431 . S
C2056 C2063 1.409 1_565 S
C2057 H2049 0.930 . S
C2057 C2055 1.419 . S
C2057 C2058 1.362 . S
C2058 H2050 0.930 . S
C2058 C2057 1.362 . S
C2058 C2061 1.430 . S
C2059 H2051 0.930 . S
C2059 C2060 1.355 . S
C2059 C2061 1.389 1_545 S
C2060 C2059 1.355 . S
C2060 C2062 1.419 . S
C2061 C2056 1.431 . S
C2061 C2058 1.430 . S
C2061 C2059 1.389 1_565 S
C2062 H2052 0.930 . S
C2062 C2060 1.419 . S
C2062 C2063 1.362 . S
C2063 H2053 0.930 . S
C2063 C2056 1.409 1_545 S
C2063 C2062 1.362 . S
H2064 C2070 0.930 . S
H2065 C2073 0.930 . S
H2066 C2074 0.930 . S
H2067 C2075 0.930 . S
H2068 C2078 0.930 . S
H2069 C2079 0.930 . S
C2070 H2064 0.930 . S
C2070 C2071 1.355 . S
C2070 C2072 1.415 . S
C2071 C2070 1.355 . S
C2071 C2073 1.419 . S
C2072 C2070 1.415 . S
C2072 C2077 1.425 . S
C2072 C2079 1.409 . S
C2073 H2065 0.930 . S
C2073 C2071 1.419 . S
C2073 C2074 1.362 . S
C2074 H2066 0.930 . S
C2074 C2073 1.362 . S
C2074 C2077 1.409 . S
C2075 H2067 0.930 . S
C2075 C2076 1.355 . S
C2075 C2077 1.415 . S
C2076 C2075 1.355 . S
C2076 C2078 1.419 . S
C2077 C2072 1.425 . S
C2077 C2074 1.409 . S
C2077 C2075 1.415 . S
C2078 H2068 0.930 . S
C2078 C2076 1.419 . S
C2078 C2079 1.362 . S
C2079 H2069 0.930 . S
C2079 C2072 1.409 . S
C2079 C2078 1.362 . S
H2080 C2086 0.930 . S
H2081 C2089 0.930 . S
H2082 C2090 0.930 . S
H2083 C2091 0.930 . S
H2084 C2094 0.930 . S
H2085 C2095 0.930 . S
C2086 H2080 0.930 . S
C2086 C2087 1.355 . S
C2086 C2088 1.415 1_545 S
C2087 C2086 1.355 . S
C2087 C2089 1.419 1_556 S
C2088 C2086 1.415 1_565 S
C2088 C2093 1.431 1_556 S
C2088 C2095 1.409 . S
C2089 H2081 0.930 . S
C2089 C2087 1.419 1_554 S
C2089 C2090 1.362 . S
C2090 H2082 0.930 . S
C2090 C2089 1.362 . S
C2090 C2093 1.387 1_545 S
C2091 H2083 0.930 . S
C2091 C2092 1.355 . S
C2091 C2093 1.432 . S
C2092 C2091 1.355 . S
C2092 C2094 1.419 1_554 S
C2093 C2088 1.431 1_554 S
C2093 C2090 1.387 1_565 S
C2093 C2091 1.432 . S
C2094 H2084 0.930 . S
C2094 C2092 1.419 1_556 S
C2094 C2095 1.362 . S
C2095 H2085 0.930 . S
C2095 C2088 1.409 . S
C2095 C2094 1.362 . S
H2096 C2102 0.930 . S
H2097 C2105 0.930 . S
H2098 C2106 0.930 . S
H2099 C2107 0.930 . S
H2100 C2110 0.930 . S
H2101 C2111 0.930 . S
C2102 H2096 0.930 . S
C2102 C2103 1.355 . S
C2102 C2104 1.415 . S
C2103 C2102 1.355 . S
C2103 C2105 1.419 . S
C2104 C2102 1.415 . S
C2104 C2109 1.425 . S
C2104 C2111 1.409 . S
C2105 H2097 0.930 . S
C2105 C2103 1.419 . S
C2105 C2106 1.362 . S
C2106 H2098 0.930 . S
C2106 C2105 1.362 . S
C2106 C2109 1.409 . S
C2107 H2099 0.930 . S
C2107 C2108 1.355 . S
C2107 C2109 1.415 . S
C2108 C2107 1.355 . S
C2108 C2110 1.419 . S
C2109 C2104 1.425 . S
C2109 C2106 1.409 . S
C2109 C2107 1.415 . S
C2110 H2100 0.930 . S
C2110 C2108 1.419 . S
C2110 C2111 1.362 . S
C2111 H2101 0.930 . S
C2111 C2104 1.409 . S
C2111 C2110 1.362 . S
C1351 C70 1.370 . S
C1356 C58 1.370 . S
C1367 C154 1.353 1_556 S
C1372 C142 1.353 . S
C1383 C238 1.441 . S
C1388 C226 1.441 1_554 S
C1399 C310 1.490 . S
C1404 C322 1.490 . S
C1415 C394 1.464 . S
C1420 C406 1.464 . S
C1431 C490 1.484 . S
C1436 C478 1.484 . S
C1447 C574 1.491 . S
C1452 C562 1.491 1_556 S
C1463 C646 1.460 1_554 S
C1468 C658 1.460 . S
C1479 C742 1.399 . S
C1484 C730 1.399 . S
C1495 C826 1.442 . S
C1500 C814 1.442 1_554 S
C1511 C898 1.474 1_556 S
C1516 C910 1.474 . S
C1527 C994 1.492 . S
C1532 C982 1.492 . S
C1543 C1078 1.363 . S
C1548 C1066 1.363 . S
C1559 C1150 1.468 . S
C1564 C1162 1.468 . S
C1575 C1234 1.451 . S
C1580 C1246 1.451 1_554 S
C1591 C1330 1.456 1_556 S
C1596 C1318 1.456 . S
C1607 C56 1.786 . S
C1612 C991 1.826 . S
C1623 C140 1.765 . S
C1628 C1323 1.709 . S
C1639 C224 1.829 . S
C1644 C819 1.712 . S
C1655 C326 1.689 . S
C1660 C1159 1.791 . S
C1671 C410 1.718 . S
C1676 C1155 1.676 . S
C1687 C987 1.673 . S
C1692 C494 1.663 . S
C1703 C560 1.869 . S
C1708 C1327 1.850 . S
C1719 C662 1.752 . S
C1724 C823 1.821 . S
C1735 C308 1.801 . S
C1740 C735 1.705 . S
C1751 C158 1.662 . S
C1756 C903 1.715 . S
C1767 C1071 1.738 . S
C1772 C476 1.762 . S
C1783 C644 1.826 . S
C1788 C1243 1.803 . S
C1799 C739 1.817 . S
C1804 C392 1.852 . S
C1815 C578 1.702 . S
C1820 C907 1.795 . S
C1831 C242 1.731 . S
C1836 C1239 1.692 . S
C1847 C74 1.748 . S
C1852 C1075 1.780 . S
C1863 C67 1.542 . S
C1868 C399 1.604 . S
C1879 C151 1.591 . S
C1884 C483 1.621 . S
C1895 C235 1.569 . S
C1900 C571 1.598 . S
C1911 C315 1.629 . S
C1916 C651 1.581 . S
C1927 C1082 1.576 . S
C1932 C746 1.611 . S
C1943 C1148 1.628 . S
C1948 C812 1.634 . S
C1959 C914 1.667 . S
C1964 C1232 1.520 . S
C1975 C1334 1.547 . S
C1980 C998 1.551 . S
C1991 C147 1.581 . S
C1996 C655 1.526 . S
C2007 C403 1.566 . S
C2012 C231 1.671 . S
C2023 C487 1.555 . S
C2028 C319 1.510 . S
C2039 C63 1.608 . S
C2044 C567 1.581 . S
C2055 C1316 1.526 . S
C2060 C830 1.673 . S
C2071 C1064 1.612 . S
C2076 C896 1.577 . S
C2087 C1166 1.652 . S
C2092 C980 1.504 . S
C2103 C1250 1.607 . S
C2108 C728 1.569 . S
