# Generated by pormake.
# Topology zft, (5)-cn, num edge types: 1
# Building blocks:
#     Node 0, Type 0, BuildingBlock: XOMCOT_clean_sbu_1, # of connection points: 5
#     Node 1, Type 0, BuildingBlock: XOMCOT_clean_sbu_1, # of connection points: 5
#     Node 2, Type 0, BuildingBlock: XOMCOT_clean_sbu_1, # of connection points: 5
#     Node 3, Type 0, BuildingBlock: XOMCOT_clean_sbu_1, # of connection points: 5
#     Node 4, Type 0, BuildingBlock: XOMCOT_clean_sbu_1, # of connection points: 5
#     Node 5, Type 0, BuildingBlock: XOMCOT_clean_sbu_1, # of connection points: 5
#     Node 6, Type 0, BuildingBlock: XOMCOT_clean_sbu_1, # of connection points: 5
#     Node 7, Type 0, BuildingBlock: XOMCOT_clean_sbu_1, # of connection points: 5
#     Edge 8, Type (0, 0), BuildingBlock: OJICUG_clean_linker_0, # of connection points: 2
#     Edge 9, Type (0, 0), BuildingBlock: OJICUG_clean_linker_0, # of connection points: 2
#     Edge 10, Type (0, 0), BuildingBlock: OJICUG_clean_linker_0, # of connection points: 2
#     Edge 11, Type (0, 0), BuildingBlock: OJICUG_clean_linker_0, # of connection points: 2
#     Edge 12, Type (0, 0), BuildingBlock: OJICUG_clean_linker_0, # of connection points: 2
#     Edge 13, Type (0, 0), BuildingBlock: OJICUG_clean_linker_0, # of connection points: 2
#     Edge 14, Type (0, 0), BuildingBlock: OJICUG_clean_linker_0, # of connection points: 2
#     Edge 15, Type (0, 0), BuildingBlock: OJICUG_clean_linker_0, # of connection points: 2
#     Edge 16, Type (0, 0), BuildingBlock: OJICUG_clean_linker_0, # of connection points: 2
#     Edge 17, Type (0, 0), BuildingBlock: OJICUG_clean_linker_0, # of connection points: 2
#     Edge 18, Type (0, 0), BuildingBlock: OJICUG_clean_linker_0, # of connection points: 2
#     Edge 19, Type (0, 0), BuildingBlock: OJICUG_clean_linker_0, # of connection points: 2
#     Edge 20, Type (0, 0), BuildingBlock: OJICUG_clean_linker_0, # of connection points: 2
#     Edge 21, Type (0, 0), BuildingBlock: OJICUG_clean_linker_0, # of connection points: 2
#     Edge 22, Type (0, 0), BuildingBlock: OJICUG_clean_linker_0, # of connection points: 2
#     Edge 23, Type (0, 0), BuildingBlock: OJICUG_clean_linker_0, # of connection points: 2
#     Edge 24, Type (0, 0), BuildingBlock: OJICUG_clean_linker_0, # of connection points: 2
#     Edge 25, Type (0, 0), BuildingBlock: OJICUG_clean_linker_0, # of connection points: 2
#     Edge 26, Type (0, 0), BuildingBlock: OJICUG_clean_linker_0, # of connection points: 2
#     Edge 27, Type (0, 0), BuildingBlock: OJICUG_clean_linker_0, # of connection points: 2
# Relax obj value: 0.076
# Max RMSD: 0.108
# Mean RMSD: 0.108
data_MOF--net-zft--node1-XOMCOT_clean_sbu_1--edge1-OJICUG_clean_linker_0
_symmetry_space_group_name_H-M    P1
_symmetry_Int_Tables_number       1
_symmetry_cell_setting            triclinic
loop_
_symmetry_equiv_pos_as_xyz
'x, y, z'
_cell_length_a     22.599385
_cell_length_b     22.875564
_cell_length_c     32.156673
_cell_angle_alpha  90.05962
_cell_angle_beta   90.175695
_cell_angle_gamma 89.943458
loop_
_atom_site_label
_atom_site_type_symbol
_atom_site_fract_x
_atom_site_fract_y
_atom_site_fract_z
_atom_type_partial_charge
C0 C 0.06766 0.24582 0.34829 0.0
C1 C 0.01936 0.21147 0.35684 0.0
N2 N 0.99211 0.1982 0.32072 0.0
N3 N 0.07096 0.25484 0.30695 0.0
C4 C 0.02427 0.22533 0.29095 0.0
H5 H 0.09976 0.261 0.37076 0.0
Co6 Co 0.13366 0.29222 0.28031 0.0
C7 C 0.08326 0.3407 0.20018 0.0
O8 O 0.13512 0.33965 0.18188 0.0
N9 N 0.1985 0.32983 0.2551 0.0
C10 C 0.28794 0.3503 0.23021 0.0
C11 C 0.25214 0.30717 0.24587 0.0
C12 C 0.20362 0.38733 0.24575 0.0
N13 N 0.25723 0.40068 0.22995 0.0
O14 O 0.12076 0.36085 0.31377 0.0
H15 H 0.26542 0.26237 0.25041 0.0
H16 H 0.16839 0.41878 0.25026 0.0
O17 O 0.07814 0.32247 0.23773 0.0
C18 C 0.15516 0.36569 0.34514 0.0
O19 O 0.19483 0.32461 0.35163 0.0
N20 N 0.14866 0.2228 0.25037 0.0
C21 C 0.18439 0.11693 0.2151 0.0
C22 C 0.14302 0.15273 0.19482 0.0
C23 C 0.12529 0.2053 0.21313 0.0
C24 C 0.1859 0.18667 0.27169 0.0
C25 C 0.20518 0.13404 0.25437 0.0
H26 H 0.09218 0.23059 0.19727 0.0
H27 H 0.2022 0.19992 0.30193 0.0
H28 H 0.01517 0.22242 0.25799 0.0
H29 H 1.0073 0.19497 0.38718 0.0
H30 H 0.33283 0.34473 0.21924 0.0
H31 H 0.12498 0.14061 0.16479 0.0
H32 H 0.23584 0.10689 0.27167 0.0
C33 C 0.25502 0.55506 0.59723 0.0
C34 C 0.28993 0.50773 0.60671 0.0
N35 N 0.31143 0.48537 0.57104 0.0
N36 N 0.25375 0.56268 0.55566 0.0
C37 C 0.2884 0.5193 0.54051 0.0
H38 H 0.23387 0.58327 0.61964 0.0
Co39 Co 0.21865 0.62593 0.52776 0.0
C40 C 0.16021 0.57062 0.45113 0.0
O41 O 0.14293 0.62031 0.4348 0.0
N42 N 0.18375 0.69114 0.50133 0.0
C43 C 0.17111 0.77853 0.4722 0.0
C44 C 0.21179 0.73978 0.48806 0.0
C45 C 0.12564 0.70287 0.49498 0.0
N46 N 0.11685 0.7551 0.47633 0.0
O47 O 0.14805 0.61629 0.56047 0.0
H48 H 0.2589 0.74731 0.49005 0.0
H49 H 0.09054 0.67248 0.50238 0.0
O50 O 0.18887 0.57013 0.48561 0.0
C51 C 0.14439 0.65107 0.59144 0.0
O52 O 0.18753 0.68859 0.59771 0.0
N53 N 0.28949 0.63778 0.49822 0.0
C54 C 0.39744 0.66911 0.46258 0.0
C55 C 0.35039 0.64943 0.4377 0.0
C56 C 0.29669 0.63387 0.45613 0.0
C57 C 0.33488 0.65643 0.52286 0.0
C58 C 0.38932 0.67189 0.50576 0.0
H59 H 0.26078 0.62091 0.4362 0.0
H60 H 0.32821 0.66056 0.55603 0.0
H61 H 0.29913 0.51481 0.50788 0.0
H62 H 0.29966 0.4919 0.63768 0.0
H63 H 0.18079 0.82094 0.45899 0.0
H64 H 0.35486 0.64654 0.40424 0.0
H65 H 0.42408 0.68773 0.52609 0.0
C66 C 0.95997 0.75683 0.84709 0.0
C67 C 1.00808 0.79172 0.85521 0.0
N68 N 0.031 0.80962 0.81875 0.0
N69 N 0.95243 0.75204 0.80563 0.0
C70 C 0.99637 0.78474 0.78915 0.0
H71 H 0.93095 0.73832 0.87019 0.0
Co72 Co 0.88854 0.71504 0.77938 0.0
C73 C 0.94115 0.66028 0.70064 0.0
O74 O 0.88974 0.64646 0.68436 0.0
N75 N 0.82288 0.67815 0.7548 0.0
C76 C 0.73298 0.66041 0.72927 0.0
C77 C 0.77062 0.70282 0.74423 0.0
C78 C 0.81491 0.62043 0.74755 0.0
N79 N 0.76126 0.60867 0.73103 0.0
O80 O 0.90245 0.64598 0.81229 0.0
H81 H 0.7602 0.74876 0.74718 0.0
H82 H 0.84851 0.58767 0.75341 0.0
O83 O 0.94375 0.68655 0.7359 0.0
C84 C 0.86856 0.64163 0.84383 0.0
O85 O 0.82961 0.68329 0.8505 0.0
N86 N 0.87231 0.78445 0.7499 0.0
C87 C 0.83706 0.89116 0.71557 0.0
C88 C 0.8576 0.84572 0.6901 0.0
C89 C 0.8751 0.79265 0.70787 0.0
C90 C 0.85233 0.82813 0.77508 0.0
C91 C 0.83488 0.88192 0.75865 0.0
H92 H 0.88939 0.75839 0.68744 0.0
H93 H 0.84911 0.82073 0.80821 0.0
H94 H 1.00154 0.7915 0.75607 0.0
H95 H 0.02297 0.80522 0.88575 0.0
H96 H 0.68885 0.66734 0.71705 0.0
H97 H 0.86024 0.85114 0.6567 0.0
H98 H 0.81847 0.91545 0.77944 0.0
C99 C 0.77053 0.45708 0.09713 0.0
C100 C 0.73551 0.50434 0.10644 0.0
N101 N 0.71276 0.52559 0.07076 0.0
N102 N 0.77067 0.44838 1.05564 0.0
C103 C 0.73524 0.49112 1.04037 0.0
H104 H 0.79243 0.42965 0.1197 0.0
Co105 Co 0.80507 0.38446 1.02802 0.0
C106 C 0.86269 0.43805 0.95081 0.0
O107 O 0.87911 0.38793 0.93472 0.0
N108 N 0.8392 0.31868 1.00194 0.0
C109 C 0.85119 0.2309 0.9732 0.0
C110 C 0.81082 0.27001 0.98888 0.0
C111 C 0.89719 0.30663 0.99566 0.0
N112 N 0.90558 0.25415 0.97725 0.0
O113 O 0.87632 0.39416 1.06044 0.0
H114 H 0.76368 0.26273 0.99087 0.0
H115 H 0.93249 0.33697 1.00285 0.0
O116 O 0.83462 0.4394 0.9854 0.0
C117 C 0.8794 0.3603 0.09191 0.0
O118 O 0.8353 0.32419 0.09881 0.0
N119 N 0.73369 0.37246 0.99875 0.0
C120 C 0.62529 0.3404 0.96352 0.0
C121 C 0.67189 0.36007 0.93846 0.0
C122 C 0.72581 0.376 0.95667 0.0
C123 C 0.68871 0.35394 1.02358 0.0
C124 C 0.63407 0.33808 1.00669 0.0
H125 H 0.76135 0.38893 0.93658 0.0
H126 H 0.6959 0.35014 1.05675 0.0
H127 H 0.72348 0.4947 1.00782 0.0
H128 H 0.72646 0.52081 0.13733 0.0
H129 H 0.84123 0.1884 0.96013 0.0
H130 H 0.66691 0.36269 0.905 0.0
H131 H 0.59968 0.3223 1.02719 0.0
C132 C 0.56512 0.26062 0.52613 0.0
C133 C 0.51697 0.29534 0.51739 0.0
N134 N 0.49062 0.3099 0.55348 0.0
N135 N 0.56918 0.25267 0.56756 0.0
C136 C 0.52306 0.28308 0.58339 0.0
H137 H 0.59672 0.24467 0.50368 0.0
Co138 Co 0.63223 0.21635 0.59503 0.0
C139 C 0.58146 0.16631 0.67429 0.0
O140 O 0.63338 0.16526 0.69268 0.0
N141 N 0.69746 0.17989 0.62137 0.0
C142 C 0.784 0.16293 0.65239 0.0
C143 C 0.74781 0.20494 0.63551 0.0
C144 C 0.70529 0.12209 0.62892 0.0
N145 N 0.75709 0.11079 0.64847 0.0
O146 O 0.62079 0.14727 0.56172 0.0
H147 H 0.75834 0.25083 0.63403 0.0
H148 H 0.67231 0.08922 0.62191 0.0
O149 O 0.57659 0.18596 0.63707 0.0
C150 C 0.65526 0.14285 0.53051 0.0
O151 O 0.69435 0.18439 0.5242 0.0
N152 N 0.6456 0.28627 0.62471 0.0
C153 C 0.67922 0.39312 0.65942 0.0
C154 C 0.63958 0.35636 0.68023 0.0
C155 C 0.62308 0.3031 0.66229 0.0
C156 C 0.68116 0.32325 0.60295 0.0
C157 C 0.69935 0.37644 0.61997 0.0
H158 H 0.59181 0.27658 0.67877 0.0
H159 H 0.69714 0.3102 0.57264 0.0
H160 H 0.51471 0.28704 0.61636 0.0
H161 H 0.50454 0.31133 0.48693 0.0
H162 H 0.82696 0.17029 0.66639 0.0
H163 H 0.62232 0.36813 0.7105 0.0
H164 H 0.72892 0.40424 0.60242 0.0
C165 C 0.26641 0.05453 0.77557 0.0
C166 C 0.23101 0.0077 0.76584 0.0
N167 N 0.21015 0.98476 0.80144 0.0
N168 N 0.26858 0.06125 0.81723 0.0
C169 C 0.234 0.0178 0.83217 0.0
H170 H 0.28708 0.08313 0.75327 0.0
Co171 Co 0.30374 0.12424 0.84546 0.0
C172 C 0.36198 0.06882 0.922 0.0
O173 O 0.37948 0.11851 0.93822 0.0
N174 N 0.33861 0.18934 0.87214 0.0
C175 C 0.35108 0.27665 0.90153 0.0
C176 C 0.31047 0.23789 0.88565 0.0
C177 C 0.39672 0.20118 0.87835 0.0
N178 N 0.40541 0.25335 0.89717 0.0
O179 O 0.37451 0.11438 0.81302 0.0
H180 H 0.26333 0.24538 0.88378 0.0
H181 H 0.43191 0.1709 0.87075 0.0
O182 O 0.33322 0.06825 0.88756 0.0
C183 C 0.37773 0.14863 0.78181 0.0
O184 O 0.33408 0.18552 0.77518 0.0
N185 N 0.23277 0.13623 0.87484 0.0
C186 C 0.1247 0.16755 0.91042 0.0
C187 C 0.17164 0.14761 0.93529 0.0
C188 C 0.2254 0.13205 0.9169 0.0
C189 C 0.18749 0.15513 0.8502 0.0
C190 C 0.13298 0.1706 0.86727 0.0
H191 H 0.26123 0.11888 0.93685 0.0
H192 H 0.19429 0.15946 0.81706 0.0
H193 H 0.22371 0.01275 0.86482 0.0
H194 H 0.22038 0.99268 0.73479 0.0
H195 H 0.3413 0.31901 0.91489 0.0
H196 H 0.16704 0.1445 0.96874 0.0
H197 H 0.09829 0.18664 0.84695 0.0
C198 C 0.45434 0.74488 1.02542 0.0
C199 C 0.50268 0.71049 1.01682 0.0
N200 N 0.53005 0.69739 1.05292 0.0
N201 N 0.45114 0.7541 0.06674 0.0
C202 C 0.49793 0.72467 0.08271 0.0
H203 H 0.42214 0.75995 1.00297 0.0
Co204 Co 0.38845 0.79166 0.09341 0.0
C205 C 0.43882 0.84033 0.1735 0.0
O206 O 0.38701 0.83905 0.19186 0.0
N207 N 0.3236 0.82947 0.11862 0.0
C208 C 0.23415 0.85022 0.14347 0.0
C209 C 0.26992 0.80697 0.12778 0.0
C210 C 0.31854 0.88698 0.12804 0.0
N211 N 0.26493 0.9005 0.14384 0.0
O212 O 0.40121 0.86008 1.05987 0.0
H213 H 0.25658 0.76222 0.12315 0.0
H214 H 0.35381 0.91832 0.1236 0.0
O215 O 0.44397 0.8221 0.13592 0.0
C216 C 0.36675 0.86476 1.02852 0.0
O217 O 0.32707 0.82372 1.02216 0.0
N218 N 0.37356 0.7224 0.1234 0.0
C219 C 0.33787 0.61673 0.15874 0.0
C220 C 0.37937 0.65246 0.17893 0.0
C221 C 0.39708 0.70494 0.16059 0.0
C222 C 0.33623 0.68631 0.10215 0.0
C223 C 0.31697 0.63378 0.1195 0.0
H224 H 0.43031 0.73017 0.17637 0.0
H225 H 0.31983 0.69951 0.07194 0.0
H226 H 0.50714 0.72191 0.11566 0.0
H227 H 0.51468 0.69382 0.98649 0.0
H228 H 0.18924 0.84479 0.1544 0.0
H229 H 0.39753 0.64037 0.20893 0.0
H230 H 0.28622 0.60667 0.10225 0.0
C231 C 0.75155 0.95835 0.27624 0.0
C232 C 0.78662 0.00551 0.26698 0.0
N233 N 0.80943 0.02668 0.30268 0.0
N234 N 0.75146 0.94964 0.31772 0.0
C235 C 0.78696 0.99228 0.33303 0.0
H236 H 0.72958 0.931 0.25364 0.0
Co237 Co 0.71704 0.88584 0.34532 0.0
C238 C 0.65952 0.93983 0.42255 0.0
O239 O 0.64243 0.88986 0.43839 0.0
N240 N 0.68287 0.82017 0.37138 0.0
C241 C 0.6709 0.73238 0.39996 0.0
C242 C 0.71126 0.77145 0.38436 0.0
C243 C 0.62487 0.80817 0.37761 0.0
N244 N 0.6165 0.75569 0.39593 0.0
O245 O 0.64575 0.89565 0.31294 0.0
H246 H 0.7584 0.7641 0.38236 0.0
H247 H 0.58955 0.83854 0.37042 0.0
O248 O 0.68773 0.94097 0.38802 0.0
C249 C 0.6428 0.86168 0.28147 0.0
O250 O 0.68704 0.82562 0.27459 0.0
N251 N 0.78843 0.87371 0.37454 0.0
C252 C 0.89687 0.84177 0.4098 0.0
C253 C 0.85013 0.86129 0.43487 0.0
C254 C 0.79619 0.87714 0.41664 0.0
C255 C 0.83352 0.85529 0.34971 0.0
C256 C 0.88819 0.83951 0.36661 0.0
H257 H 0.76055 0.88991 0.43673 0.0
H258 H 0.82642 0.85155 0.31652 0.0
H259 H 0.79877 0.99581 0.36558 0.0
H260 H 0.79565 0.02197 0.23611 0.0
H261 H 0.6809 0.68986 0.41295 0.0
H262 H 0.85502 0.86383 0.46834 0.0
H263 H 0.92268 0.82383 0.34612 0.0
C264 C 0.18502 0.4165 0.41098 0.0
C265 C 0.15248 0.41676 0.37357 0.0
H266 H 0.21236 0.46417 0.46506 0.0
C267 C 0.11951 0.46676 0.36326 0.0
H268 H 0.21064 0.37853 0.42005 0.0
C269 C 0.12073 0.51611 0.3891 0.0
C270 C 0.15458 0.51639 0.42598 0.0
H271 H 0.09396 0.46836 0.33473 0.0
H272 H 0.09591 0.55444 0.37974 0.0
C273 C 0.18585 0.46559 0.43696 0.0
C274 C 0.04766 0.68265 0.68508 0.0
C275 C 0.99491 0.65371 0.6746 0.0
H276 H 0.13582 0.70471 0.66697 0.0
C277 C 0.99271 0.62133 0.63731 0.0
H278 H 0.05098 0.70796 0.71347 0.0
C279 C 0.04155 0.6192 0.61063 0.0
C280 C 0.09353 0.64981 0.62048 0.0
H281 H 0.95282 0.59829 0.62832 0.0
H282 H 0.03807 0.59475 0.58186 0.0
C283 C 0.09624 0.68096 0.65824 0.0
C284 C 0.83832 0.54323 0.93624 0.0
C285 C 0.8686 0.49186 0.92533 0.0
H286 H 0.81453 0.63043 0.91908 0.0
C287 C 0.9017 0.4912 0.88824 0.0
H288 H 0.81238 0.54537 0.96447 0.0
C289 C 0.90315 0.54022 0.86216 0.0
C290 C 0.87116 0.59082 0.87244 0.0
H291 H 0.92576 0.45239 0.87892 0.0
H292 H 0.92807 0.53793 0.83349 0.0
C293 C 0.83939 0.59199 0.91004 0.0
C294 C 0.92519 0.33607 0.16065 0.0
C295 C 0.93064 0.36082 0.12079 0.0
H296 H 0.96851 0.31144 0.2173 0.0
C297 C 0.98573 0.38314 0.10858 0.0
H298 H 0.88316 0.31889 0.17115 0.0
C299 C 0.03495 0.37835 0.13501 0.0
C300 C 0.02985 0.35192 0.1744 0.0
H301 H 0.9913 0.40241 0.07809 0.0
H302 H 0.07732 0.39429 0.12421 0.0
C303 C 0.97407 0.33207 0.18727 0.0
C304 C 0.68505 0.093 0.46437 0.0
C305 C 0.65277 0.09211 0.50175 0.0
H306 H 0.71189 0.04633 0.40981 0.0
C307 C 0.61993 0.04196 0.51158 0.0
H308 H 0.71058 0.13109 0.45567 0.0
C309 C 0.62088 0.99314 0.48524 0.0
C310 C 0.65433 0.99353 0.44832 0.0
H311 H 0.59459 0.03988 0.54008 0.0
H312 H 0.59609 0.95469 0.49421 0.0
C313 C 0.68562 0.04443 0.43789 0.0
C314 C 0.42371 0.17372 0.71351 0.0
C315 C 0.4288 0.14782 0.75304 0.0
H316 H 0.46734 0.19878 0.65728 0.0
C317 C 0.48343 0.12389 0.76508 0.0
H318 H 0.38203 0.19215 0.70315 0.0
C319 C 0.53261 0.12817 0.73882 0.0
C320 C 0.52792 0.15572 0.69977 0.0
H321 H 0.48871 0.10369 0.79532 0.0
H322 H 0.57464 0.11095 0.7495 0.0
C323 C 0.47256 0.17725 0.68705 0.0
C324 C 0.33674 0.91518 0.96261 0.0
C325 C 0.36944 0.91558 0.99996 0.0
H326 H 0.30935 0.96255 0.90845 0.0
C327 C 0.40264 0.96548 1.01005 0.0
H328 H 0.31094 0.87727 0.95371 0.0
C329 C 0.4015 0.01459 0.98408 0.0
C330 C 0.3675 0.01475 0.94727 0.0
H331 H 0.42832 0.96717 1.03853 0.0
H332 H 0.42652 0.05286 0.99328 0.0
C333 C 0.33598 0.96404 0.93649 0.0
C334 C 0.59705 0.83698 0.21279 0.0
C335 C 0.5915 0.86185 0.25264 0.0
H336 H 0.55377 0.81179 0.15622 0.0
C337 C 0.53624 0.88384 0.26493 0.0
H338 H 0.6392 0.82005 0.20223 0.0
C339 C 0.48698 0.87858 0.23858 0.0
C340 C 0.4922 0.85201 0.19919 0.0
H341 H 0.53058 0.90318 0.29542 0.0
H342 H 0.4445 0.89426 0.24943 0.0
C343 C 0.54812 0.83252 0.18625 0.0
C344 C 0.18502 0.97127 0.15857 0.0
C345 C 0.24527 0.95599 0.15993 0.0
H346 H 0.11853 0.03386 0.175 0.0
C347 C 0.28553 0.99463 0.17879 0.0
H348 H 0.15304 0.94262 0.14394 0.0
C349 C 0.26578 0.04689 0.19661 0.0
C350 C 0.20543 0.06185 0.19562 0.0
H351 H 0.3321 0.9838 0.18069 0.0
H352 H 0.29781 0.07571 0.21108 0.0
C353 C 0.16534 0.02372 0.17606 0.0
C354 C 0.50738 0.74634 0.39236 0.0
C355 C 0.56167 0.73163 0.41109 0.0
H356 H 0.41294 0.73795 0.3938 0.0
C357 C 0.56151 0.69434 0.44584 0.0
H358 H 0.50603 0.7745 0.36534 0.0
C359 C 0.50836 0.6733 0.46204 0.0
C360 C 0.45402 0.68871 0.44375 0.0
H361 H 0.60241 0.6826 0.4613 0.0
H362 H 0.50978 0.64511 0.48907 0.0
C363 C 0.45413 0.72491 0.4084 0.0
C364 C 0.81417 0.05393 0.70012 0.0
C365 C 0.77774 0.05559 0.6646 0.0
H366 H 0.86163 1.00102 0.74379 0.0
C367 C 0.76152 1.00262 0.64555 0.0
H368 H 0.82691 0.09382 0.71587 0.0
C369 C 0.78138 0.94923 0.6617 0.0
C370 C 0.81735 0.94771 0.69747 0.0
H371 H 0.73387 1.0025 0.61801 0.0
H372 H 0.76771 0.90908 0.6466 0.0
C373 C 0.83359 1.00068 0.71641 0.0
C374 C 0.46104 0.3144 0.94728 0.0
C375 C 0.46046 0.27726 0.91239 0.0
H376 H 0.51322 0.36373 0.99048 0.0
C377 C 0.51454 0.26271 0.8935 0.0
H378 H 0.42034 0.32602 0.96289 0.0
C379 C 0.56796 0.28425 0.90947 0.0
C380 C 0.56848 0.32042 0.94489 0.0
H381 H 0.51559 0.23465 0.86639 0.0
H382 H 0.60897 0.27138 0.89471 0.0
C383 C 0.51436 0.33557 0.96339 0.0
C384 C 0.76069 0.46226 0.67855 0.0
C385 C 0.7002 0.44818 0.67886 0.0
H386 H 0.82754 0.52428 0.69515 0.0
C387 C 0.66021 0.48699 0.69777 0.0
H388 H 0.79257 0.43289 0.66454 0.0
C389 C 0.68026 0.53942 0.71526 0.0
C390 C 0.74076 0.55361 0.71473 0.0
H391 H 0.61331 0.47732 0.69832 0.0
H392 H 0.64852 0.56884 0.72929 0.0
C393 C 0.78079 0.51423 0.69649 0.0
C394 C 0.06793 0.22318 0.96475 0.0
C395 C 0.06809 0.18717 0.92926 0.0
H396 H 0.01596 0.27263 1.00798 0.0
C397 C 0.01379 0.17193 0.91087 0.0
H398 H 0.1091 0.23608 0.97943 0.0
C399 C 0.96061 0.19296 0.92712 0.0
C400 C 0.96041 0.23006 0.96202 0.0
H401 H 0.01242 0.14389 0.88371 0.0
H402 H 0.91973 0.18136 0.9116 0.0
C403 C 0.01467 0.2446 0.98084 0.0
C404 C 0.25644 0.54703 0.17734 0.0
C405 C 0.31682 0.56179 0.17825 0.0
H406 H 0.19008 0.48419 0.19329 0.0
C407 C 0.35691 0.52355 0.19772 0.0
H408 H 0.22441 0.57594 0.16294 0.0
C409 C 0.3372 0.47119 0.2152 0.0
C410 C 0.27693 0.45611 0.2139 0.0
H411 H 0.40373 0.53354 0.19873 0.0
H412 H 0.36918 0.44245 0.22975 0.0
C413 C 0.23666 0.49487 0.19514 0.0
C414 C 0.95424 0.78564 0.46378 0.0
C415 C 0.95369 0.82187 0.42845 0.0
H416 H 1.00666 0.73611 0.50685 0.0
C417 C 1.00782 0.83719 0.41009 0.0
H418 H 0.91323 0.77264 0.47844 0.0
C419 C 0.06117 0.81613 0.42625 0.0
C420 C 0.06177 0.77893 0.46106 0.0
H421 H 1.00893 0.86539 0.38307 0.0
H422 H 0.10189 0.82787 0.41076 0.0
C423 C 1.00769 0.76421 0.47981 0.0
C424 C 0.85999 0.10356 0.34398 0.0
C425 C 0.85358 0.07205 0.30672 0.0
H426 H 0.90787 0.16938 0.37731 0.0
C427 C 0.89204 0.08473 0.27355 0.0
H428 H 0.83066 0.09559 0.3699 0.0
C429 C 0.93636 0.12693 0.27775 0.0
C430 C 0.94357 0.15771 0.31527 0.0
H431 H 0.88922 0.06082 0.24458 0.0
H432 H 0.96613 0.13393 0.25196 0.0
C433 C 0.90432 0.14593 0.34817 0.0
C434 C 0.4373 0.38333 0.59599 0.0
C435 C 0.443 0.35154 0.5588 0.0
H436 H 0.39222 0.45108 0.62879 0.0
C437 C 0.40317 0.36339 0.52607 0.0
H438 H 0.46759 0.37636 0.62163 0.0
C439 C 0.3597 0.40672 0.53014 0.0
C440 C 0.35477 0.43916 0.5671 0.0
H441 H 0.40559 0.33924 0.49718 0.0
H442 H 0.32985 0.41467 0.50437 0.0
C443 C 0.39386 0.42648 0.60008 0.0
C444 C 0.08215 0.88527 0.77698 0.0
C445 C 0.07833 0.85149 0.81336 0.0
H446 H 0.12606 0.95442 0.74495 0.0
C447 C 0.12004 0.86129 0.84529 0.0
H448 H 0.0505 0.87984 0.75198 0.0
C449 C 0.16345 0.90457 0.84133 0.0
C450 C 0.16658 0.93888 0.80522 0.0
H451 H 0.11927 0.83555 0.87347 0.0
H452 H 0.19475 0.91095 0.86647 0.0
C453 C 0.12567 0.9283 0.77297 0.0
C454 C 0.66221 0.60255 1.02955 0.0
C455 C 0.66863 0.57106 0.06679 0.0
H456 H 0.61429 0.66841 0.9963 0.0
C457 C 0.63019 0.58385 0.09997 0.0
H458 H 0.69153 0.5945 1.00362 0.0
C459 C 0.58587 0.62613 0.09582 0.0
C460 C 0.57863 0.65687 1.05834 0.0
H461 H 0.63301 0.55996 0.12892 0.0
H462 H 0.5561 0.63321 0.12162 0.0
C463 C 0.61787 0.64499 1.02541 0.0
loop_
_geom_bond_atom_site_label_1
_geom_bond_atom_site_label_2
_geom_bond_distance
_geom_bond_site_symmetry_2
_ccdc_geom_bond_type
C0 C1 1.351 1_455 S
C0 N3 1.368 . S
C0 H5 0.931 . S
C1 C0 1.351 1_655 S
C1 N2 1.373 . S
C1 H29 0.930 . S
N2 C1 1.373 . S
N2 C4 1.340 . S
N3 C0 1.368 . S
N3 C4 1.321 1_455 S
N3 Co6 2.135 . S
C4 N2 1.340 . S
C4 N3 1.321 1_655 S
C4 H28 0.930 . S
H5 C0 0.931 . S
Co6 N3 2.135 . S
Co6 N9 2.121 . S
Co6 O14 2.055 . S
Co6 O17 2.039 1_455 S
Co6 N20 2.140 . S
C7 O8 1.227 1_655 S
C7 O17 1.265 . S
O8 C7 1.227 1_455 S
N9 Co6 2.121 . S
N9 C11 1.375 . S
N9 C12 1.313 . S
C10 C11 1.338 . S
C10 N13 1.377 . S
C10 H30 0.930 . S
C11 N9 1.375 . S
C11 C10 1.338 . S
C11 H15 0.931 . S
C12 N9 1.313 . S
C12 N13 1.344 . S
C12 H16 0.930 . S
N13 C10 1.377 . S
N13 C12 1.344 . S
O14 Co6 2.055 . S
O14 C18 1.253 . S
H15 C11 0.931 . S
H16 C12 0.930 . S
O17 Co6 2.039 1_655 S
O17 C7 1.265 . S
C18 O14 1.253 . S
C18 O19 1.227 . S
O19 C18 1.227 . S
N20 Co6 2.140 . S
N20 C23 1.346 . S
N20 C24 1.345 . S
C21 C22 1.387 . S
C21 C25 1.391 . S
C22 C21 1.387 . S
C22 C23 1.369 . S
C22 H31 0.929 . S
C23 N20 1.346 . S
C23 C22 1.369 . S
C23 H26 0.928 . S
C24 N20 1.345 . S
C24 C25 1.371 . S
C24 H27 0.931 . S
C25 C21 1.391 . S
C25 C24 1.371 . S
C25 H32 0.930 . S
H26 C23 0.928 . S
H27 C24 0.931 . S
H28 C4 0.930 . S
H29 C1 0.930 . S
H30 C10 0.930 . S
H31 C22 0.929 . S
H32 C25 0.930 . S
C33 C34 1.351 . S
C33 N36 1.368 . S
C33 H38 0.931 . S
C34 C33 1.351 . S
C34 N35 1.373 . S
C34 H62 0.930 . S
N35 C34 1.373 . S
N35 C37 1.340 . S
N36 C33 1.368 . S
N36 C37 1.321 . S
N36 Co39 2.135 . S
C37 N35 1.340 . S
C37 N36 1.321 . S
C37 H61 0.930 . S
H38 C33 0.931 . S
Co39 N36 2.135 . S
Co39 N42 2.121 . S
Co39 O47 2.055 . S
Co39 O50 2.039 . S
Co39 N53 2.140 . S
C40 O41 1.227 . S
C40 O50 1.265 . S
O41 C40 1.227 . S
N42 Co39 2.121 . S
N42 C44 1.375 . S
N42 C45 1.313 . S
C43 C44 1.338 . S
C43 N46 1.377 . S
C43 H63 0.930 . S
C44 N42 1.375 . S
C44 C43 1.338 . S
C44 H48 0.931 . S
C45 N42 1.313 . S
C45 N46 1.344 . S
C45 H49 0.930 . S
N46 C43 1.377 . S
N46 C45 1.344 . S
O47 Co39 2.055 . S
O47 C51 1.253 . S
H48 C44 0.931 . S
H49 C45 0.930 . S
O50 Co39 2.039 . S
O50 C40 1.265 . S
C51 O47 1.253 . S
C51 O52 1.227 . S
O52 C51 1.227 . S
N53 Co39 2.140 . S
N53 C56 1.346 . S
N53 C57 1.345 . S
C54 C55 1.387 . S
C54 C58 1.391 . S
C55 C54 1.387 . S
C55 C56 1.369 . S
C55 H64 0.929 . S
C56 N53 1.346 . S
C56 C55 1.369 . S
C56 H59 0.928 . S
C57 N53 1.345 . S
C57 C58 1.371 . S
C57 H60 0.931 . S
C58 C54 1.391 . S
C58 C57 1.371 . S
C58 H65 0.930 . S
H59 C56 0.928 . S
H60 C57 0.931 . S
H61 C37 0.930 . S
H62 C34 0.930 . S
H63 C43 0.930 . S
H64 C55 0.929 . S
H65 C58 0.930 . S
C66 C67 1.351 1_655 S
C66 N69 1.368 . S
C66 H71 0.931 . S
C67 C66 1.351 1_455 S
C67 N68 1.373 . S
C67 H95 0.930 . S
N68 C67 1.373 . S
N68 C70 1.340 . S
N69 C66 1.368 . S
N69 C70 1.321 1_655 S
N69 Co72 2.135 . S
C70 N68 1.340 . S
C70 N69 1.321 1_455 S
C70 H94 0.930 . S
H71 C66 0.931 . S
Co72 N69 2.135 . S
Co72 N75 2.121 . S
Co72 O80 2.055 . S
Co72 O83 2.039 1_655 S
Co72 N86 2.140 . S
C73 O74 1.227 1_455 S
C73 O83 1.265 . S
O74 C73 1.227 1_655 S
N75 Co72 2.121 . S
N75 C77 1.375 . S
N75 C78 1.313 . S
C76 C77 1.338 . S
C76 N79 1.377 . S
C76 H96 0.930 . S
C77 N75 1.375 . S
C77 C76 1.338 . S
C77 H81 0.931 . S
C78 N75 1.313 . S
C78 N79 1.344 . S
C78 H82 0.930 . S
N79 C76 1.377 . S
N79 C78 1.344 . S
O80 Co72 2.055 . S
O80 C84 1.253 . S
H81 C77 0.931 . S
H82 C78 0.930 . S
O83 Co72 2.039 1_455 S
O83 C73 1.265 . S
C84 O80 1.253 . S
C84 O85 1.227 . S
O85 C84 1.227 . S
N86 Co72 2.140 . S
N86 C89 1.346 . S
N86 C90 1.345 . S
C87 C88 1.387 . S
C87 C91 1.391 . S
C88 C87 1.387 . S
C88 C89 1.369 . S
C88 H97 0.929 . S
C89 N86 1.346 . S
C89 C88 1.369 . S
C89 H92 0.928 . S
C90 N86 1.345 . S
C90 C91 1.371 . S
C90 H93 0.931 . S
C91 C87 1.391 . S
C91 C90 1.371 . S
C91 H98 0.930 . S
H92 C89 0.928 . S
H93 C90 0.931 . S
H94 C70 0.930 . S
H95 C67 0.930 . S
H96 C76 0.930 . S
H97 C88 0.929 . S
H98 C91 0.930 . S
C99 C100 1.351 1_556 S
C99 N102 1.368 . S
C99 H104 0.931 1_556 S
C100 C99 1.351 1_554 S
C100 N101 1.373 1_554 S
C100 H128 0.930 . S
N101 C100 1.373 1_556 S
N101 C103 1.340 . S
N102 C99 1.368 . S
N102 C103 1.321 . S
N102 Co105 2.135 . S
C103 N101 1.340 . S
C103 N102 1.321 . S
C103 H127 0.930 . S
H104 C99 0.931 1_554 S
Co105 N102 2.135 . S
Co105 N108 2.121 . S
Co105 O113 2.055 . S
Co105 O116 2.039 . S
Co105 N119 2.140 . S
C106 O107 1.227 . S
C106 O116 1.265 . S
O107 C106 1.227 . S
N108 Co105 2.121 . S
N108 C110 1.375 . S
N108 C111 1.313 . S
C109 C110 1.338 . S
C109 N112 1.377 . S
C109 H129 0.930 . S
C110 N108 1.375 . S
C110 C109 1.338 . S
C110 H114 0.931 . S
C111 N108 1.313 . S
C111 N112 1.344 . S
C111 H115 0.930 . S
N112 C109 1.377 . S
N112 C111 1.344 . S
O113 Co105 2.055 . S
O113 C117 1.253 . S
H114 C110 0.931 . S
H115 C111 0.930 . S
O116 Co105 2.039 . S
O116 C106 1.265 . S
C117 O113 1.253 . S
C117 O118 1.227 . S
O118 C117 1.227 . S
N119 Co105 2.140 . S
N119 C122 1.346 . S
N119 C123 1.345 . S
C120 C121 1.387 . S
C120 C124 1.391 . S
C121 C120 1.387 . S
C121 C122 1.369 . S
C121 H130 0.929 . S
C122 N119 1.346 . S
C122 C121 1.369 . S
C122 H125 0.928 . S
C123 N119 1.345 . S
C123 C124 1.371 . S
C123 H126 0.931 . S
C124 C120 1.391 . S
C124 C123 1.371 . S
C124 H131 0.930 . S
H125 C122 0.928 . S
H126 C123 0.931 . S
H127 C103 0.930 . S
H128 C100 0.930 . S
H129 C109 0.930 . S
H130 C121 0.929 . S
H131 C124 0.930 . S
C132 C133 1.351 . S
C132 N135 1.368 . S
C132 H137 0.931 . S
C133 C132 1.351 . S
C133 N134 1.373 . S
C133 H161 0.930 . S
N134 C133 1.373 . S
N134 C136 1.340 . S
N135 C132 1.368 . S
N135 C136 1.321 . S
N135 Co138 2.135 . S
C136 N134 1.340 . S
C136 N135 1.321 . S
C136 H160 0.930 . S
H137 C132 0.931 . S
Co138 N135 2.135 . S
Co138 N141 2.121 . S
Co138 O146 2.055 . S
Co138 O149 2.039 . S
Co138 N152 2.140 . S
C139 O140 1.227 . S
C139 O149 1.265 . S
O140 C139 1.227 . S
N141 Co138 2.121 . S
N141 C143 1.375 . S
N141 C144 1.313 . S
C142 C143 1.338 . S
C142 N145 1.377 . S
C142 H162 0.930 . S
C143 N141 1.375 . S
C143 C142 1.338 . S
C143 H147 0.931 . S
C144 N141 1.313 . S
C144 N145 1.344 . S
C144 H148 0.930 . S
N145 C142 1.377 . S
N145 C144 1.344 . S
O146 Co138 2.055 . S
O146 C150 1.253 . S
H147 C143 0.931 . S
H148 C144 0.930 . S
O149 Co138 2.039 . S
O149 C139 1.265 . S
C150 O146 1.253 . S
C150 O151 1.227 . S
O151 C150 1.227 . S
N152 Co138 2.140 . S
N152 C155 1.346 . S
N152 C156 1.345 . S
C153 C154 1.387 . S
C153 C157 1.391 . S
C154 C153 1.387 . S
C154 C155 1.369 . S
C154 H163 0.929 . S
C155 N152 1.346 . S
C155 C154 1.369 . S
C155 H158 0.928 . S
C156 N152 1.345 . S
C156 C157 1.371 . S
C156 H159 0.931 . S
C157 C153 1.391 . S
C157 C156 1.371 . S
C157 H164 0.930 . S
H158 C155 0.928 . S
H159 C156 0.931 . S
H160 C136 0.930 . S
H161 C133 0.930 . S
H162 C142 0.930 . S
H163 C154 0.929 . S
H164 C157 0.930 . S
C165 C166 1.351 1_545 S
C165 N168 1.368 . S
C165 H170 0.931 . S
C166 C165 1.351 1_565 S
C166 N167 1.373 . S
C166 H194 0.930 . S
N167 C166 1.373 . S
N167 C169 1.340 . S
N168 C165 1.368 . S
N168 C169 1.321 1_545 S
N168 Co171 2.135 . S
C169 N167 1.340 . S
C169 N168 1.321 1_565 S
C169 H193 0.930 . S
H170 C165 0.931 . S
Co171 N168 2.135 . S
Co171 N174 2.121 . S
Co171 O179 2.055 . S
Co171 O182 2.039 1_545 S
Co171 N185 2.140 . S
C172 O173 1.227 1_565 S
C172 O182 1.265 . S
O173 C172 1.227 1_545 S
N174 Co171 2.121 . S
N174 C176 1.375 . S
N174 C177 1.313 . S
C175 C176 1.338 . S
C175 N178 1.377 . S
C175 H195 0.930 . S
C176 N174 1.375 . S
C176 C175 1.338 . S
C176 H180 0.931 . S
C177 N174 1.313 . S
C177 N178 1.344 . S
C177 H181 0.930 . S
N178 C175 1.377 . S
N178 C177 1.344 . S
O179 Co171 2.055 . S
O179 C183 1.253 . S
H180 C176 0.931 . S
H181 C177 0.930 . S
O182 Co171 2.039 1_565 S
O182 C172 1.265 . S
C183 O179 1.253 . S
C183 O184 1.227 . S
O184 C183 1.227 . S
N185 Co171 2.140 . S
N185 C188 1.346 . S
N185 C189 1.345 . S
C186 C187 1.387 . S
C186 C190 1.391 . S
C187 C186 1.387 . S
C187 C188 1.369 . S
C187 H196 0.929 . S
C188 N185 1.346 . S
C188 C187 1.369 . S
C188 H191 0.928 . S
C189 N185 1.345 . S
C189 C190 1.371 . S
C189 H192 0.931 . S
C190 C186 1.391 . S
C190 C189 1.371 . S
C190 H197 0.930 . S
H191 C188 0.928 . S
H192 C189 0.931 . S
H193 C169 0.930 . S
H194 C166 0.930 . S
H195 C175 0.930 . S
H196 C187 0.929 . S
H197 C190 0.930 . S
C198 C199 1.351 1_554 S
C198 N201 1.368 . S
C198 H203 0.931 1_554 S
C199 C198 1.351 1_556 S
C199 N200 1.373 1_556 S
C199 H227 0.930 . S
N200 C199 1.373 1_554 S
N200 C202 1.340 . S
N201 C198 1.368 . S
N201 C202 1.321 . S
N201 Co204 2.135 . S
C202 N200 1.340 . S
C202 N201 1.321 . S
C202 H226 0.930 . S
H203 C198 0.931 1_556 S
Co204 N201 2.135 . S
Co204 N207 2.121 . S
Co204 O212 2.055 . S
Co204 O215 2.039 . S
Co204 N218 2.140 . S
C205 O206 1.227 . S
C205 O215 1.265 . S
O206 C205 1.227 . S
N207 Co204 2.121 . S
N207 C209 1.375 . S
N207 C210 1.313 . S
C208 C209 1.338 . S
C208 N211 1.377 . S
C208 H228 0.930 . S
C209 N207 1.375 . S
C209 C208 1.338 . S
C209 H213 0.931 . S
C210 N207 1.313 . S
C210 N211 1.344 . S
C210 H214 0.930 . S
N211 C208 1.377 . S
N211 C210 1.344 . S
O212 Co204 2.055 . S
O212 C216 1.253 . S
H213 C209 0.931 . S
H214 C210 0.930 . S
O215 Co204 2.039 . S
O215 C205 1.265 . S
C216 O212 1.253 . S
C216 O217 1.227 . S
O217 C216 1.227 . S
N218 Co204 2.140 . S
N218 C221 1.346 . S
N218 C222 1.345 . S
C219 C220 1.387 . S
C219 C223 1.391 . S
C220 C219 1.387 . S
C220 C221 1.369 . S
C220 H229 0.929 . S
C221 N218 1.346 . S
C221 C220 1.369 . S
C221 H224 0.928 . S
C222 N218 1.345 . S
C222 C223 1.371 . S
C222 H225 0.931 . S
C223 C219 1.391 . S
C223 C222 1.371 . S
C223 H230 0.930 . S
H224 C221 0.928 . S
H225 C222 0.931 . S
H226 C202 0.930 . S
H227 C199 0.930 . S
H228 C208 0.930 . S
H229 C220 0.929 . S
H230 C223 0.930 . S
C231 C232 1.351 1_565 S
C231 N234 1.368 . S
C231 H236 0.931 . S
C232 C231 1.351 1_545 S
C232 N233 1.373 . S
C232 H260 0.930 . S
N233 C232 1.373 . S
N233 C235 1.340 . S
N234 C231 1.368 . S
N234 C235 1.321 1_565 S
N234 Co237 2.135 . S
C235 N233 1.340 . S
C235 N234 1.321 1_545 S
C235 H259 0.930 . S
H236 C231 0.931 . S
Co237 N234 2.135 . S
Co237 N240 2.121 . S
Co237 O245 2.055 . S
Co237 O248 2.039 1_565 S
Co237 N251 2.140 . S
C238 O239 1.227 1_545 S
C238 O248 1.265 . S
O239 C238 1.227 1_565 S
N240 Co237 2.121 . S
N240 C242 1.375 . S
N240 C243 1.313 . S
C241 C242 1.338 . S
C241 N244 1.377 . S
C241 H261 0.930 . S
C242 N240 1.375 . S
C242 C241 1.338 . S
C242 H246 0.931 . S
C243 N240 1.313 . S
C243 N244 1.344 . S
C243 H247 0.930 . S
N244 C241 1.377 . S
N244 C243 1.344 . S
O245 Co237 2.055 . S
O245 C249 1.253 . S
H246 C242 0.931 . S
H247 C243 0.930 . S
O248 Co237 2.039 1_545 S
O248 C238 1.265 . S
C249 O245 1.253 . S
C249 O250 1.227 . S
O250 C249 1.227 . S
N251 Co237 2.140 . S
N251 C254 1.346 . S
N251 C255 1.345 . S
C252 C253 1.387 . S
C252 C256 1.391 . S
C253 C252 1.387 . S
C253 C254 1.369 . S
C253 H262 0.929 . S
C254 N251 1.346 . S
C254 C253 1.369 . S
C254 H257 0.928 . S
C255 N251 1.345 . S
C255 C256 1.371 . S
C255 H258 0.931 . S
C256 C252 1.391 . S
C256 C255 1.371 . S
C256 H263 0.930 . S
H257 C254 0.928 . S
H258 C255 0.931 . S
H259 C235 0.930 . S
H260 C232 0.930 . S
H261 C241 0.930 . S
H262 C253 0.929 . S
H263 C256 0.930 . S
C264 C265 1.387 . S
C264 H268 0.950 . S
C264 C273 1.390 . S
C265 C264 1.387 . S
C265 C267 1.387 . S
H266 C273 0.950 . S
C267 C265 1.387 . S
C267 C269 1.390 . S
C267 H271 0.950 . S
H268 C264 0.950 . S
C269 C267 1.390 . S
C269 C270 1.387 . S
C269 H272 0.950 . S
C270 C269 1.387 . S
C270 C273 1.387 . S
H271 C267 0.950 . S
H272 C269 0.950 . S
C273 C264 1.390 . S
C273 H266 0.950 . S
C273 C270 1.387 . S
C274 C275 1.387 . S
C274 H278 0.950 . S
C274 C283 1.390 . S
C275 C274 1.387 . S
C275 C277 1.387 . S
H276 C283 0.950 . S
C277 C275 1.387 . S
C277 C279 1.390 . S
C277 H281 0.939 1_455 S
H278 C274 0.950 . S
C279 C277 1.390 . S
C279 C280 1.387 . S
C279 H282 0.950 . S
C280 C279 1.387 . S
C280 C283 1.387 . S
H281 C277 0.939 1_655 S
H282 C279 0.950 . S
C283 C274 1.390 . S
C283 H276 0.950 . S
C283 C280 1.387 . S
C284 C285 1.387 . S
C284 H288 0.950 . S
C284 C293 1.390 . S
C285 C284 1.387 . S
C285 C287 1.387 . S
H286 C293 0.950 . S
C287 C285 1.387 . S
C287 C289 1.390 . S
C287 H291 0.950 . S
H288 C284 0.950 . S
C289 C287 1.390 . S
C289 C290 1.387 . S
C289 H292 0.950 . S
C290 C289 1.387 . S
C290 C293 1.387 . S
H291 C287 0.950 . S
H292 C289 0.950 . S
C293 C284 1.390 . S
C293 H286 0.950 . S
C293 C290 1.387 . S
C294 C295 1.387 . S
C294 H298 0.950 . S
C294 C303 1.390 . S
C295 C294 1.387 . S
C295 C297 1.387 . S
H296 C303 0.950 . S
C297 C295 1.387 . S
C297 C299 1.390 . S
C297 H301 0.950 . S
H298 C294 0.950 . S
C299 C297 1.390 . S
C299 C300 1.387 . S
C299 H302 0.950 . S
C300 C299 1.387 . S
C300 C303 1.387 . S
H301 C297 0.950 . S
H302 C299 0.950 . S
C303 C294 1.390 . S
C303 H296 0.950 . S
C303 C300 1.387 . S
C304 C305 1.387 . S
C304 H308 0.950 . S
C304 C313 1.390 . S
C305 C304 1.387 . S
C305 C307 1.387 . S
H306 C313 0.950 . S
C307 C305 1.387 . S
C307 C309 1.390 . S
C307 H311 0.950 . S
H308 C304 0.950 . S
C309 C307 1.390 . S
C309 C310 1.387 . S
C309 H312 0.950 1_545 S
C310 C309 1.387 . S
C310 C313 1.387 . S
H311 C307 0.950 . S
H312 C309 0.950 1_565 S
C313 C304 1.390 . S
C313 H306 0.950 . S
C313 C310 1.387 . S
C314 C315 1.387 . S
C314 H318 0.950 . S
C314 C323 1.390 . S
C315 C314 1.387 . S
C315 C317 1.387 . S
H316 C323 0.950 . S
C317 C315 1.387 . S
C317 C319 1.390 . S
C317 H321 0.950 . S
H318 C314 0.950 . S
C319 C317 1.390 . S
C319 C320 1.387 . S
C319 H322 0.950 . S
C320 C319 1.387 . S
C320 C323 1.387 . S
H321 C317 0.950 . S
H322 C319 0.950 . S
C323 C314 1.390 . S
C323 H316 0.950 . S
C323 C320 1.387 . S
C324 C325 1.387 . S
C324 H328 0.950 . S
C324 C333 1.390 . S
C325 C324 1.387 . S
C325 C327 1.387 . S
H326 C333 0.950 . S
C327 C325 1.387 . S
C327 C329 1.390 . S
C327 H331 0.950 . S
H328 C324 0.950 . S
C329 C327 1.390 . S
C329 C330 1.387 . S
C329 H332 0.950 1_565 S
C330 C329 1.387 . S
C330 C333 1.387 . S
H331 C327 0.950 . S
H332 C329 0.950 1_545 S
C333 C324 1.390 . S
C333 H326 0.950 . S
C333 C330 1.387 . S
C334 C335 1.387 . S
C334 H338 0.950 . S
C334 C343 1.390 . S
C335 C334 1.387 . S
C335 C337 1.387 . S
H336 C343 0.950 . S
C337 C335 1.387 . S
C337 C339 1.390 . S
C337 H341 0.950 . S
H338 C334 0.950 . S
C339 C337 1.390 . S
C339 C340 1.387 . S
C339 H342 0.950 . S
C340 C339 1.387 . S
C340 C343 1.387 . S
H341 C337 0.950 . S
H342 C339 0.950 . S
C343 C334 1.390 . S
C343 H336 0.950 . S
C343 C340 1.387 . S
C344 C345 1.387 . S
C344 H348 0.950 1_545 S
C344 C353 1.390 . S
C345 C344 1.387 . S
C345 C347 1.387 . S
H346 C353 0.950 . S
C347 C345 1.387 . S
C347 C349 1.390 . S
C347 H351 0.950 . S
H348 C344 0.950 1_565 S
C349 C347 1.390 . S
C349 C350 1.387 . S
C349 H352 0.950 . S
C350 C349 1.387 . S
C350 C353 1.387 . S
H351 C347 0.950 . S
H352 C349 0.950 . S
C353 C344 1.390 . S
C353 H346 0.950 . S
C353 C350 1.387 . S
C354 C355 1.387 . S
C354 H358 0.950 . S
C354 C363 1.390 . S
C355 C354 1.387 . S
C355 C357 1.387 . S
H356 C363 0.950 . S
C357 C355 1.387 . S
C357 C359 1.390 . S
C357 H361 0.950 . S
H358 C354 0.950 . S
C359 C357 1.390 . S
C359 C360 1.387 . S
C359 H362 0.950 . S
C360 C359 1.387 . S
C360 C363 1.387 . S
H361 C357 0.950 . S
H362 C359 0.950 . S
C363 C354 1.390 . S
C363 H356 0.950 . S
C363 C360 1.387 . S
C364 C365 1.387 . S
C364 H368 0.950 . S
C364 C373 1.390 . S
C365 C364 1.387 . S
C365 C367 1.387 . S
H366 C373 0.950 . S
C367 C365 1.387 . S
C367 C369 1.390 . S
C367 H371 0.950 . S
H368 C364 0.950 . S
C369 C367 1.390 . S
C369 C370 1.387 . S
C369 H372 0.950 . S
C370 C369 1.387 . S
C370 C373 1.387 . S
H371 C367 0.950 . S
H372 C369 0.950 . S
C373 C364 1.390 . S
C373 H366 0.950 . S
C373 C370 1.387 . S
C374 C375 1.387 . S
C374 H378 0.950 . S
C374 C383 1.390 . S
C375 C374 1.387 . S
C375 C377 1.387 . S
H376 C383 0.950 . S
C377 C375 1.387 . S
C377 C379 1.390 . S
C377 H381 0.950 . S
H378 C374 0.950 . S
C379 C377 1.390 . S
C379 C380 1.387 . S
C379 H382 0.950 . S
C380 C379 1.387 . S
C380 C383 1.387 . S
H381 C377 0.950 . S
H382 C379 0.950 . S
C383 C374 1.390 . S
C383 H376 0.950 . S
C383 C380 1.387 . S
C384 C385 1.387 . S
C384 H388 0.950 . S
C384 C393 1.390 . S
C385 C384 1.387 . S
C385 C387 1.387 . S
H386 C393 0.950 . S
C387 C385 1.387 . S
C387 C389 1.390 . S
C387 H391 0.950 . S
H388 C384 0.950 . S
C389 C387 1.390 . S
C389 C390 1.387 . S
C389 H392 0.950 . S
C390 C389 1.387 . S
C390 C393 1.387 . S
H391 C387 0.950 . S
H392 C389 0.950 . S
C393 C384 1.390 . S
C393 H386 0.950 . S
C393 C390 1.387 . S
C394 C395 1.387 . S
C394 H398 0.950 . S
C394 C403 1.390 . S
C395 C394 1.387 . S
C395 C397 1.387 . S
H396 C403 0.950 . S
C397 C395 1.387 . S
C397 C399 1.390 . S
C397 H401 0.950 . S
H398 C394 0.950 . S
C399 C397 1.390 . S
C399 C400 1.387 . S
C399 H402 0.950 . S
C400 C399 1.387 . S
C400 C403 1.387 . S
H401 C397 0.950 . S
H402 C399 0.950 . S
C403 C394 1.390 . S
C403 H396 0.950 . S
C403 C400 1.387 . S
C404 C405 1.387 . S
C404 H408 0.950 . S
C404 C413 1.390 . S
C405 C404 1.387 . S
C405 C407 1.387 . S
H406 C413 0.950 . S
C407 C405 1.387 . S
C407 C409 1.390 . S
C407 H411 0.950 . S
H408 C404 0.950 . S
C409 C407 1.390 . S
C409 C410 1.387 . S
C409 H412 0.950 . S
C410 C409 1.387 . S
C410 C413 1.387 . S
H411 C407 0.950 . S
H412 C409 0.950 . S
C413 C404 1.390 . S
C413 H406 0.950 . S
C413 C410 1.387 . S
C414 C415 1.387 . S
C414 H418 0.950 . S
C414 C423 1.390 . S
C415 C414 1.387 . S
C415 C417 1.387 . S
H416 C423 0.950 . S
C417 C415 1.387 . S
C417 C419 1.390 . S
C417 H421 0.950 . S
H418 C414 0.950 . S
C419 C417 1.390 . S
C419 C420 1.387 . S
C419 H422 0.950 . S
C420 C419 1.387 . S
C420 C423 1.387 . S
H421 C417 0.950 . S
H422 C419 0.950 . S
C423 C414 1.390 . S
C423 H416 0.950 . S
C423 C420 1.387 . S
C424 C425 1.387 . S
C424 H428 0.950 . S
C424 C433 1.390 . S
C425 C424 1.387 . S
C425 C427 1.387 . S
H426 C433 0.950 . S
C427 C425 1.387 . S
C427 C429 1.390 . S
C427 H431 0.950 . S
H428 C424 0.950 . S
C429 C427 1.390 . S
C429 C430 1.387 . S
C429 H432 0.950 . S
C430 C429 1.387 . S
C430 C433 1.387 . S
H431 C427 0.950 . S
H432 C429 0.950 . S
C433 C424 1.390 . S
C433 H426 0.950 . S
C433 C430 1.387 . S
C434 C435 1.387 . S
C434 H438 0.950 . S
C434 C443 1.390 . S
C435 C434 1.387 . S
C435 C437 1.387 . S
H436 C443 0.950 . S
C437 C435 1.387 . S
C437 C439 1.390 . S
C437 H441 0.950 . S
H438 C434 0.950 . S
C439 C437 1.390 . S
C439 C440 1.387 . S
C439 H442 0.950 . S
C440 C439 1.387 . S
C440 C443 1.387 . S
H441 C437 0.950 . S
H442 C439 0.950 . S
C443 C434 1.390 . S
C443 H436 0.950 . S
C443 C440 1.387 . S
C444 C445 1.387 . S
C444 H448 0.950 . S
C444 C453 1.390 . S
C445 C444 1.387 . S
C445 C447 1.387 . S
H446 C453 0.950 . S
C447 C445 1.387 . S
C447 C449 1.390 . S
C447 H451 0.950 . S
H448 C444 0.950 . S
C449 C447 1.390 . S
C449 C450 1.387 . S
C449 H452 0.950 . S
C450 C449 1.387 . S
C450 C453 1.387 . S
H451 C447 0.950 . S
H452 C449 0.950 . S
C453 C444 1.390 . S
C453 H446 0.950 . S
C453 C450 1.387 . S
C454 C455 1.387 . S
C454 H458 0.950 . S
C454 C463 1.390 . S
C455 C454 1.387 . S
C455 C457 1.387 1_556 S
H456 C463 0.950 . S
C457 C455 1.387 1_554 S
C457 C459 1.390 . S
C457 H461 0.950 . S
H458 C454 0.950 . S
C459 C457 1.390 . S
C459 C460 1.387 . S
C459 H462 0.950 . S
C460 C459 1.387 . S
C460 C463 1.387 1_554 S
H461 C457 0.950 . S
H462 C459 0.950 . S
C463 C454 1.390 . S
C463 H456 0.950 . S
C463 C460 1.387 1_556 S
C265 C18 1.308 . S
C270 C40 1.306 . S
C275 C73 1.305 . S
C280 C51 1.308 . S
C285 C106 1.305 . S
C290 C84 1.308 . S
C295 C117 1.307 1_554 S
C300 C7 1.305 . S
C305 C150 1.308 . S
C310 C238 1.306 . S
C315 C183 1.307 . S
C320 C139 1.305 . S
C325 C216 1.308 1_556 S
C330 C172 1.307 . S
C335 C249 1.308 . S
C340 C205 1.306 . S
C345 N211 1.566 1_545 S
C350 C21 1.609 . S
C355 N244 1.564 . S
C360 C54 1.608 . S
C365 N145 1.565 1_565 S
C370 C87 1.609 . S
C375 N178 1.564 . S
C380 C120 1.609 . S
C385 C153 1.608 . S
C390 N79 1.563 . S
C395 C186 1.608 . S
C400 N112 1.564 1_455 S
C405 C219 1.608 . S
C410 N13 1.563 . S
C415 C252 1.608 . S
C420 N46 1.564 1_655 S
C425 N233 1.302 . S
C430 N2 1.302 . S
C435 N134 1.304 . S
C440 N35 1.304 . S
C445 N68 1.305 . S
C450 N167 1.305 . S
C455 N101 1.302 . S
C460 N200 1.302 . S
