# Generated by pormake.
# Topology zfk, (5)-cn, num edge types: 1
# Building blocks:
#     Node 0, Type 0, BuildingBlock: BEQFEK_clean_sbu_0, # of connection points: 5
#     Node 1, Type 0, BuildingBlock: BEQFEK_clean_sbu_0, # of connection points: 5
#     Node 2, Type 0, BuildingBlock: BEQFEK_clean_sbu_0, # of connection points: 5
#     Node 3, Type 0, BuildingBlock: BEQFEK_clean_sbu_0, # of connection points: 5
#     Node 4, Type 0, BuildingBlock: BEQFEK_clean_sbu_0, # of connection points: 5
#     Node 5, Type 0, BuildingBlock: BEQFEK_clean_sbu_0, # of connection points: 5
#     Node 6, Type 0, BuildingBlock: BEQFEK_clean_sbu_0, # of connection points: 5
#     Node 7, Type 0, BuildingBlock: BEQFEK_clean_sbu_0, # of connection points: 5
#     Node 8, Type 0, BuildingBlock: BEQFEK_clean_sbu_0, # of connection points: 5
#     Node 9, Type 0, BuildingBlock: BEQFEK_clean_sbu_0, # of connection points: 5
#     Node 10, Type 0, BuildingBlock: BEQFEK_clean_sbu_0, # of connection points: 5
#     Node 11, Type 0, BuildingBlock: BEQFEK_clean_sbu_0, # of connection points: 5
#     Node 12, Type 0, BuildingBlock: BEQFEK_clean_sbu_0, # of connection points: 5
#     Node 13, Type 0, BuildingBlock: BEQFEK_clean_sbu_0, # of connection points: 5
#     Node 14, Type 0, BuildingBlock: BEQFEK_clean_sbu_0, # of connection points: 5
#     Node 15, Type 0, BuildingBlock: BEQFEK_clean_sbu_0, # of connection points: 5
#     Edge 16, Type (0, 0), BuildingBlock: XUDNAN_clean_linker_2, # of connection points: 2
#     Edge 17, Type (0, 0), BuildingBlock: XUDNAN_clean_linker_2, # of connection points: 2
#     Edge 18, Type (0, 0), BuildingBlock: XUDNAN_clean_linker_2, # of connection points: 2
#     Edge 19, Type (0, 0), BuildingBlock: XUDNAN_clean_linker_2, # of connection points: 2
#     Edge 20, Type (0, 0), BuildingBlock: XUDNAN_clean_linker_2, # of connection points: 2
#     Edge 21, Type (0, 0), BuildingBlock: XUDNAN_clean_linker_2, # of connection points: 2
#     Edge 22, Type (0, 0), BuildingBlock: XUDNAN_clean_linker_2, # of connection points: 2
#     Edge 23, Type (0, 0), BuildingBlock: XUDNAN_clean_linker_2, # of connection points: 2
#     Edge 24, Type (0, 0), BuildingBlock: XUDNAN_clean_linker_2, # of connection points: 2
#     Edge 25, Type (0, 0), BuildingBlock: XUDNAN_clean_linker_2, # of connection points: 2
#     Edge 26, Type (0, 0), BuildingBlock: XUDNAN_clean_linker_2, # of connection points: 2
#     Edge 27, Type (0, 0), BuildingBlock: XUDNAN_clean_linker_2, # of connection points: 2
#     Edge 28, Type (0, 0), BuildingBlock: XUDNAN_clean_linker_2, # of connection points: 2
#     Edge 29, Type (0, 0), BuildingBlock: XUDNAN_clean_linker_2, # of connection points: 2
#     Edge 30, Type (0, 0), BuildingBlock: XUDNAN_clean_linker_2, # of connection points: 2
#     Edge 31, Type (0, 0), BuildingBlock: XUDNAN_clean_linker_2, # of connection points: 2
#     Edge 32, Type (0, 0), BuildingBlock: XUDNAN_clean_linker_2, # of connection points: 2
#     Edge 33, Type (0, 0), BuildingBlock: XUDNAN_clean_linker_2, # of connection points: 2
#     Edge 34, Type (0, 0), BuildingBlock: XUDNAN_clean_linker_2, # of connection points: 2
#     Edge 35, Type (0, 0), BuildingBlock: XUDNAN_clean_linker_2, # of connection points: 2
#     Edge 36, Type (0, 0), BuildingBlock: XUDNAN_clean_linker_2, # of connection points: 2
#     Edge 37, Type (0, 0), BuildingBlock: XUDNAN_clean_linker_2, # of connection points: 2
#     Edge 38, Type (0, 0), BuildingBlock: XUDNAN_clean_linker_2, # of connection points: 2
#     Edge 39, Type (0, 0), BuildingBlock: XUDNAN_clean_linker_2, # of connection points: 2
#     Edge 40, Type (0, 0), BuildingBlock: XUDNAN_clean_linker_2, # of connection points: 2
#     Edge 41, Type (0, 0), BuildingBlock: XUDNAN_clean_linker_2, # of connection points: 2
#     Edge 42, Type (0, 0), BuildingBlock: XUDNAN_clean_linker_2, # of connection points: 2
#     Edge 43, Type (0, 0), BuildingBlock: XUDNAN_clean_linker_2, # of connection points: 2
#     Edge 44, Type (0, 0), BuildingBlock: XUDNAN_clean_linker_2, # of connection points: 2
#     Edge 45, Type (0, 0), BuildingBlock: XUDNAN_clean_linker_2, # of connection points: 2
#     Edge 46, Type (0, 0), BuildingBlock: XUDNAN_clean_linker_2, # of connection points: 2
#     Edge 47, Type (0, 0), BuildingBlock: XUDNAN_clean_linker_2, # of connection points: 2
#     Edge 48, Type (0, 0), BuildingBlock: XUDNAN_clean_linker_2, # of connection points: 2
#     Edge 49, Type (0, 0), BuildingBlock: XUDNAN_clean_linker_2, # of connection points: 2
#     Edge 50, Type (0, 0), BuildingBlock: XUDNAN_clean_linker_2, # of connection points: 2
#     Edge 51, Type (0, 0), BuildingBlock: XUDNAN_clean_linker_2, # of connection points: 2
#     Edge 52, Type (0, 0), BuildingBlock: XUDNAN_clean_linker_2, # of connection points: 2
#     Edge 53, Type (0, 0), BuildingBlock: XUDNAN_clean_linker_2, # of connection points: 2
#     Edge 54, Type (0, 0), BuildingBlock: XUDNAN_clean_linker_2, # of connection points: 2
#     Edge 55, Type (0, 0), BuildingBlock: XUDNAN_clean_linker_2, # of connection points: 2
# Relax obj value: 0.167
# Max RMSD: 0.138
# Mean RMSD: 0.138
data_MOF--net-zfk--node1-BEQFEK_clean_sbu_0--edge1-XUDNAN_clean_linker_2
_symmetry_space_group_name_H-M    P1
_symmetry_Int_Tables_number       1
_symmetry_cell_setting            triclinic
loop_
_symmetry_equiv_pos_as_xyz
'x, y, z'
_cell_length_a     30.693349
_cell_length_b     30.644596
_cell_length_c     74.517179
_cell_angle_alpha  90.022876
_cell_angle_beta   89.957914
_cell_angle_gamma 89.824339
loop_
_atom_site_label
_atom_site_type_symbol
_atom_site_fract_x
_atom_site_fract_y
_atom_site_fract_z
_atom_type_partial_charge
Co0 Co 0.03763 0.29878 0.10546 0.0
Co1 Co 0.0537 0.3164 0.14678 0.0
C2 C 0.99432 0.24798 0.13693 0.0
O3 O 0.00412 0.25621 0.12059 0.0
O4 O 0.00818 0.2719 0.14975 0.0
C5 C 0.03252 0.25653 0.07215 0.0
O6 O 0.05677 0.22909 0.08132 0.0
C7 C 0.06278 0.3468 0.18533 0.0
C8 C 0.12671 0.37922 0.18268 0.0
C9 C 0.09328 0.37155 0.19471 0.0
N10 N 0.07762 0.34075 0.16844 0.0
N11 N 0.11609 0.35974 0.16716 0.0
C12 C 0.01893 0.33262 0.19176 0.0
H13 H -0.00258 0.32482 0.18023 0.0
H14 H 0.00388 0.35847 0.20019 0.0
H15 H 0.02275 0.30292 0.20013 0.0
C16 C 0.02961 0.39573 0.10591 0.0
N17 N 0.03316 0.35674 0.11413 0.0
N18 N 0.03571 0.36296 0.13154 0.0
C19 C 0.03099 0.4058 0.13509 0.0
C20 C 0.02808 0.42865 0.11894 0.0
C21 C 0.03257 0.40087 0.08597 0.0
H22 H 0.04964 0.37246 0.07994 0.0
H23 H -0.00079 0.40239 0.08027 0.0
H24 H 0.0502 0.43121 0.08239 0.0
O25 O 0.09816 0.27982 0.10677 0.0
O26 O 0.10323 0.28255 0.13644 0.0
H27 H 0.05834 0.43133 0.15933 0.0
H28 H 0.00551 0.4536 0.1537 0.0
C29 C 0.02583 0.4236 0.15369 0.0
H30 H 0.01006 0.39896 0.1624 0.0
H31 H 0.13454 0.36067 0.15539 0.0
O32 O 0.01875 0.29106 0.07988 0.0
C33 C 0.11824 0.27122 0.1212 0.0
Co34 Co 0.1792 0.02905 0.59899 0.0
Co35 Co 0.16382 0.05894 0.63939 0.0
C36 C 0.24971 0.02817 0.62842 0.0
O37 O 0.23537 0.02422 0.61243 0.0
O38 O 0.22492 0.03907 0.64145 0.0
C39 C 0.20461 0.96605 0.57113 0.0
O40 O 0.21189 0.93855 0.58432 0.0
C41 C 0.14682 0.08043 0.67872 0.0
C42 C 0.0914 0.12552 0.67465 0.0
C43 C 0.11754 0.10757 0.68786 0.0
N44 N 0.13796 0.08254 0.66098 0.0
N45 N 0.1047 0.1095 0.6588 0.0
C46 C 0.18396 0.05511 0.68651 0.0
H47 H 0.19872 0.07318 0.69789 0.0
H48 H 0.20898 0.04838 0.67613 0.0
H49 H 0.1716 0.02347 0.69162 0.0
C50 C 0.09566 0.98306 0.60709 0.0
N51 N 0.13143 0.00536 0.61215 0.0
N52 N 0.12785 0.0153 0.62929 0.0
C53 C 0.09093 0.99807 0.63585 0.0
C54 C 0.06847 0.97803 0.62196 0.0
C55 C 0.08523 0.97231 0.58799 0.0
H56 H 0.10414 0.99334 0.57874 0.0
H57 H 0.09406 0.93775 0.58537 0.0
H58 H 0.0499 0.97649 0.58533 0.0
O59 O 0.16942 0.09112 0.59483 0.0
O60 O 0.16442 0.11035 0.62339 0.0
H61 H 0.06034 0.03233 0.65754 0.0
H62 H 0.05512 0.97387 0.6587 0.0
C63 C 0.07744 0.00096 0.65514 0.0
H64 H 0.10659 -0.00036 0.66391 0.0
H65 H 0.09129 0.11739 0.64635 0.0
O66 O 0.18886 0.00353 0.57462 0.0
C67 C 0.16556 0.12025 0.60682 0.0
Co68 Co 0.48323 0.16894 0.10413 0.0
Co69 Co 0.46238 0.1594 0.1456 0.0
C70 C 0.47583 0.24607 0.13058 0.0
O71 O 0.48003 0.22824 0.11522 0.0
O72 O 0.47095 0.22353 0.1448 0.0
C73 C 0.48771 0.20536 0.06979 0.0
O74 O 0.45293 0.22464 0.07642 0.0
C75 C 0.44897 0.15625 0.18536 0.0
C76 C 0.41373 0.09369 0.18764 0.0
C77 C 0.42887 0.1285 0.19768 0.0
N78 N 0.44555 0.13848 0.1689 0.0
N79 N 0.42437 0.10117 0.17042 0.0
C80 C 0.47262 0.19788 0.18905 0.0
H81 H 0.49873 0.20279 0.17895 0.0
H82 H 0.48693 0.1976 0.20273 0.0
H83 H 0.4494 0.22558 0.18801 0.0
C84 C 0.53829 0.09206 0.11351 0.0
N85 N 0.51534 0.1278 0.11832 0.0
N86 N 0.50979 0.12727 0.13585 0.0
C87 C 0.53084 0.09252 0.14278 0.0
C88 C 0.54866 0.06817 0.12885 0.0
C89 C 0.54485 0.07821 0.09445 0.0
H90 H 0.51303 0.06839 0.08868 0.0
H91 H 0.55716 0.10615 0.08648 0.0
H92 H 0.5681 0.05048 0.09349 0.0
O93 O 0.4225 0.1497 0.10182 0.0
O94 O 0.41028 0.14686 0.13115 0.0
H95 H 0.49969 0.05623 0.16366 0.0
H96 H 0.55742 0.06155 0.16642 0.0
C97 C 0.52756 0.07884 0.16203 0.0
H98 H 0.52305 0.10773 0.17077 0.0
H99 H 0.41686 0.0809 0.15962 0.0
O100 O 0.50777 0.17756 0.07948 0.0
C101 C 0.39723 0.14294 0.11504 0.0
Co102 Co 0.31643 0.49543 0.6079 0.0
Co103 Co 0.31243 0.45688 0.64761 0.0
C104 C 0.24833 0.52315 0.63556 0.0
O105 O 0.26713 0.52485 0.62032 0.0
O106 O 0.26336 0.49971 0.64834 0.0
C107 C 0.29081 0.53484 0.57507 0.0
O108 O 0.25457 0.54072 0.58415 0.0
C109 C 0.32215 0.43609 0.68721 0.0
C110 C 0.33263 0.36497 0.68491 0.0
C111 C 0.33006 0.39845 0.69734 0.0
N112 N 0.32062 0.42486 0.66968 0.0
N113 N 0.32678 0.38226 0.66855 0.0
C114 C 0.31477 0.48149 0.6939 0.0
H115 H 0.29737 0.50121 0.68366 0.0
H116 H 0.3467 0.49707 0.69657 0.0
H117 H 0.29586 0.48097 0.70661 0.0
C118 C 0.41025 0.49722 0.61688 0.0
N119 N 0.36824 0.49345 0.62187 0.0
N120 N 0.36654 0.4789 0.6385 0.0
C121 C 0.40762 0.47356 0.64464 0.0
C122 C 0.43676 0.48463 0.63111 0.0
C123 C 0.42439 0.50824 0.59822 0.0
H124 H 0.40603 0.53719 0.59341 0.0
H125 H 0.45987 0.51497 0.59761 0.0
H126 H 0.4166 0.48054 0.58919 0.0
O127 O 0.29608 0.43601 0.60319 0.0
O128 O 0.29022 0.41211 0.63114 0.0
H129 H 0.40831 0.41687 0.66131 0.0
H130 H 0.454 0.45241 0.66489 0.0
C131 C 0.41863 0.45146 0.66197 0.0
H132 H 0.4008 0.46761 0.67307 0.0
H133 H 0.32742 0.36485 0.65652 0.0
O134 O 0.32403 0.51942 0.58316 0.0
C135 C 0.28515 0.40682 0.61436 0.0
Co136 Co 0.07045 0.13944 0.91639 0.0
Co137 Co 0.0699 0.14808 0.87385 0.0
C138 C 0.03927 0.22016 0.89438 0.0
O139 O 0.0506 0.19657 0.90761 0.0
O140 O 0.04013 0.20518 0.8784 0.0
C141 C 0.01809 0.15781 0.94663 0.0
O142 O 0.9915 0.16985 0.93373 0.0
C143 C 0.06776 0.14916 0.83327 0.0
C144 C 0.12233 0.10358 0.82813 0.0
C145 C 0.09177 0.12936 0.81949 0.0
N146 N 0.08375 0.13545 0.84916 0.0
N147 N 0.11639 0.10837 0.84588 0.0
C148 C 0.02923 0.1788 0.83157 0.0
H149 H 0.04074 0.21293 0.83021 0.0
H150 H 0.00861 0.17674 0.84378 0.0
H151 H 0.00975 0.17029 0.81953 0.0
C152 C 0.04122 0.05127 0.90635 0.0
N153 N 0.04735 0.09362 0.90236 0.0
N154 N 0.04284 0.09922 0.88493 0.0
C155 C 0.03188 0.0609 0.8774 0.0
C156 C 0.03179 0.02877 0.89058 0.0
C157 C 0.0518 0.03202 0.92429 0.0
H158 H 0.07032 0.0556 0.93259 0.0
H159 H 0.02102 0.02391 0.93134 0.0
H160 H 0.07102 0.00152 0.9227 0.0
O161 O 0.13376 0.14173 0.91372 0.0
O162 O 0.12848 0.15457 0.8845 0.0
H163 H 0.05356 0.04838 0.85053 0.0
H164 H 0.00037 0.02724 0.8556 0.0
C165 C 0.02278 0.0551 0.8578 0.0
H166 H 0.00813 0.08533 0.85222 0.0
H167 H 0.13466 0.09295 0.85585 0.0
O168 O 0.05376 0.13906 0.94241 0.0
C169 C 0.15118 0.15109 0.89873 0.0
Co170 Co 0.3243 0.02111 0.41609 0.0
Co171 Co 0.33566 0.04259 0.37483 0.0
C172 C 0.26941 0.98144 0.38494 0.0
O173 O 0.27949 0.98934 0.40129 0.0
O174 O 0.29237 0.99607 0.37195 0.0
C175 C 0.3111 0.9623 0.44644 0.0
O176 O 0.30738 0.93154 0.43426 0.0
C177 C 0.35141 0.06673 0.33577 0.0
C178 C 0.38116 0.13126 0.34065 0.0
C179 C 0.36869 0.10319 0.32707 0.0
N180 N 0.35389 0.0734 0.35366 0.0
N181 N 0.37176 0.11202 0.35633 0.0
C182 C 0.33071 0.02766 0.32738 0.0
H183 H 0.30805 0.01182 0.33696 0.0
H184 H 0.35652 0.00381 0.32375 0.0
H185 H 0.31301 0.03702 0.31497 0.0
C186 C 0.42172 0.01479 0.41279 0.0
N187 N 0.38134 0.0187 0.40579 0.0
N188 N 0.38485 0.02469 0.38836 0.0
C189 C 0.42717 0.02304 0.38362 0.0
C190 C 0.45221 0.01738 0.39895 0.0
C191 C 0.4308 0.01111 0.43244 0.0
H192 H 0.40927 0.98602 0.43844 0.0
H193 H 0.4654 0.00252 0.43499 0.0
H194 H 0.42315 0.04274 0.439 0.0
O195 O 0.30216 0.08134 0.41679 0.0
O196 O 0.30146 0.0875 0.38722 0.0
H197 H 0.44753 0.06722 0.3631 0.0
H198 H 0.47521 0.01574 0.36244 0.0
C199 C 0.44337 0.03158 0.36498 0.0
H200 H 0.41963 0.01925 0.35501 0.0
H201 H 0.3772 0.12548 0.369 0.0
O202 O 0.3208 0.00084 0.44154 0.0
C203 C 0.29062 0.10124 0.40264 0.0
Co204 Co 0.48098 0.34311 0.91642 0.0
Co205 Co 0.44903 0.36395 0.87732 0.0
C206 C 0.47562 0.27328 0.8896 0.0
O207 O 0.49414 0.28746 0.90377 0.0
O208 O 0.45599 0.29907 0.87881 0.0
C209 C 0.53035 0.30982 0.94621 0.0
O210 O 0.55314 0.29123 0.93337 0.0
C211 C 0.42896 0.36288 0.83802 0.0
C212 C 0.39919 0.42817 0.83486 0.0
C213 C 0.40947 0.39054 0.82548 0.0
N214 N 0.43013 0.38348 0.85399 0.0
N215 N 0.412 0.42236 0.85196 0.0
C216 C 0.44691 0.31808 0.83497 0.0
H217 H 0.47553 0.31247 0.84377 0.0
H218 H 0.45645 0.31346 0.82072 0.0
H219 H 0.42166 0.2937 0.8385 0.0
C220 C 0.527 0.4279 0.90901 0.0
N221 N 0.50495 0.39215 0.90367 0.0
N222 N 0.4974 0.39524 0.88631 0.0
C223 C 0.51607 0.43179 0.87995 0.0
C224 C 0.53454 0.45452 0.89416 0.0
C225 C 0.53709 0.43804 0.92818 0.0
H226 H 0.55108 0.40873 0.93478 0.0
H227 H 0.56018 0.46572 0.92927 0.0
H228 H 0.50639 0.44647 0.93527 0.0
O229 O 0.41653 0.34026 0.91655 0.0
O230 O 0.40063 0.38006 0.89298 0.0
H231 H 0.54086 0.46373 0.85626 0.0
H232 H 0.50347 0.42052 0.85191 0.0
C233 C 0.5107 0.44791 0.8611 0.0
H234 H 0.48417 0.47254 0.86064 0.0
H235 H 0.40784 0.44478 0.86234 0.0
O236 O 0.50015 0.33648 0.94198 0.0
C237 C 0.38856 0.35524 0.90561 0.0
Co238 Co 0.17703 0.46738 0.41673 0.0
Co239 Co 0.15545 0.45557 0.37527 0.0
C240 C 0.24322 0.4783 0.38628 0.0
O241 O 0.23075 0.47611 0.40253 0.0
O242 O 0.21688 0.47339 0.37326 0.0
C243 C 0.19371 0.51893 0.45044 0.0
O244 O 0.17602 0.55396 0.44335 0.0
C245 C 0.13878 0.4547 0.33533 0.0
C246 C 0.08041 0.41266 0.33481 0.0
C247 C 0.10877 0.4352 0.32377 0.0
N248 N 0.12807 0.44435 0.35238 0.0
N249 N 0.09318 0.41919 0.35185 0.0
C250 C 0.17871 0.47974 0.33026 0.0
H251 H 0.20464 0.47514 0.34038 0.0
H252 H 0.17051 0.515 0.32966 0.0
H253 H 0.19118 0.46921 0.31696 0.0
C254 C 0.09265 0.51524 0.41427 0.0
N255 N 0.1283 0.49722 0.40671 0.0
N256 N 0.12286 0.49606 0.38917 0.0
C257 C 0.08518 0.51591 0.38495 0.0
C258 C 0.06388 0.52764 0.40071 0.0
C259 C 0.08284 0.51254 0.43392 0.0
H260 H 0.10545 0.4895 0.44066 0.0
H261 H 0.08647 0.54534 0.44003 0.0
H262 H 0.0488 0.50165 0.43612 0.0
O263 O 0.16578 0.40506 0.41655 0.0
O264 O 0.15411 0.39769 0.3873 0.0
H265 H 0.05248 0.49345 0.3613 0.0
H266 H 0.04711 0.55115 0.36537 0.0
C267 C 0.06977 0.5229 0.3661 0.0
H268 H 0.09804 0.52868 0.35713 0.0
H269 H 0.07833 0.40594 0.3632 0.0
O270 O 0.19428 0.48322 0.44174 0.0
C271 C 0.15764 0.38146 0.40297 0.0
Co272 Co 0.94002 0.65839 0.91736 0.0
Co273 Co 0.94075 0.64454 0.87542 0.0
C274 C 0.99319 0.71289 0.89014 0.0
O275 O 0.9769 0.70252 0.9053 0.0
O276 O 0.98589 0.6903 0.87607 0.0
C277 C 0.98192 0.67931 0.95122 0.0
O278 O 0.01836 0.67969 0.94197 0.0
C279 C 0.93377 0.63852 0.83555 0.0
C280 C 0.89243 0.57988 0.83309 0.0
C281 C 0.91219 0.61233 0.82312 0.0
N282 N 0.92692 0.62208 0.85206 0.0
N283 N 0.90207 0.58714 0.85043 0.0
C284 C 0.9601 0.67857 0.83197 0.0
H285 H 0.93971 0.70785 0.83461 0.0
H286 H 0.98849 0.67964 0.84115 0.0
H287 H 0.97167 0.67937 0.81786 0.0
C288 C 0.96095 0.5637 0.91646 0.0
N289 N 0.95191 0.60205 0.90848 0.0
N290 N 0.9552 0.59742 0.89098 0.0
C291 C 0.96849 0.55649 0.88728 0.0
C292 C 0.97161 0.53328 0.90324 0.0
C293 C 0.9583 0.55667 0.9363 0.0
H294 H 0.9339 0.57915 0.94229 0.0
H295 H 0.99047 0.56392 0.94238 0.0
H296 H 0.94951 0.5224 0.93941 0.0
O297 O 0.88047 0.67615 0.9122 0.0
O298 O 0.88717 0.67641 0.88262 0.0
H299 H 0.95749 0.52377 0.86227 0.0
H300 H 0.01223 0.51945 0.87048 0.0
C301 C 0.98389 0.5418 0.86916 0.0
H302 H 0.99336 0.57023 0.86083 0.0
H303 H 0.89043 0.569 0.86125 0.0
O304 O 0.94688 0.66704 0.94366 0.0
C305 C 0.8662 0.68626 0.89678 0.0
Co306 Co 0.83274 0.9835 0.41289 0.0
Co307 Co 0.82493 0.94307 0.37362 0.0
C308 C 0.76763 0.0166 0.38598 0.0
O309 O 0.78732 0.01909 0.40098 0.0
O310 O 0.78022 0.99029 0.37373 0.0
C311 C 0.81055 0.02493 0.44587 0.0
O312 O 0.77836 0.03979 0.436 0.0
C313 C 0.84137 0.93156 0.33425 0.0
C314 C 0.83184 0.86036 0.33197 0.0
C315 C 0.84401 0.89676 0.32216 0.0
N316 N 0.82926 0.91584 0.3504 0.0
N317 N 0.82311 0.87337 0.3488 0.0
C318 C 0.84829 0.97903 0.33057 0.0
H319 H 0.83109 -0.00085 0.34076 0.0
H320 H 0.8835 0.98671 0.33132 0.0
H321 H 0.83649 0.98748 0.31692 0.0
C322 C 0.9272 0.98508 0.40189 0.0
N323 N 0.88452 0.97755 0.39864 0.0
N324 N 0.88078 0.9585 0.38286 0.0
C325 C 0.92084 0.95111 0.3761 0.0
C326 C 0.95172 0.96887 0.38757 0.0
C327 C 0.94382 0.00722 0.41838 0.0
H328 H 0.95174 0.98214 0.42862 0.0
H329 H 0.91854 0.02932 0.42398 0.0
H330 H 0.97384 0.02595 0.41536 0.0
O331 O 0.80415 0.92617 0.4166 0.0
O332 O 0.79874 0.89953 0.38902 0.0
H333 H 0.90606 0.89387 0.36062 0.0
H334 H 0.963 0.90611 0.36184 0.0
C335 C 0.93001 0.92078 0.36075 0.0
H336 H 0.9281 0.9389 0.34793 0.0
H337 H 0.81406 0.85294 0.35934 0.0
O338 O 0.84131 0.00376 0.43826 0.0
C339 C 0.79129 0.89694 0.40573 0.0
Co340 Co 0.52248 0.84295 0.91819 0.0
Co341 Co 0.534 0.86164 0.87647 0.0
C342 C 0.51562 0.77301 0.88845 0.0
O343 O 0.51463 0.78709 0.90455 0.0
O344 O 0.52126 0.79876 0.87523 0.0
C345 C 0.47607 0.83155 0.95461 0.0
O346 O 0.44208 0.85527 0.95017 0.0
C347 C 0.55243 0.86855 0.83718 0.0
C348 C 0.56694 0.93891 0.8349 0.0
C349 C 0.56524 0.90066 0.8251 0.0
N350 N 0.54616 0.88726 0.85336 0.0
N351 N 0.55555 0.9292 0.85187 0.0
C352 C 0.54752 0.82081 0.83361 0.0
H353 H 0.57412 0.80286 0.84051 0.0
H354 H 0.51616 0.80929 0.83927 0.0
H355 H 0.54869 0.81357 0.81903 0.0
C356 C 0.47526 0.92888 0.91426 0.0
N357 N 0.49248 0.89166 0.90752 0.0
N358 N 0.49153 0.89399 0.88985 0.0
C359 C 0.46986 0.93035 0.88494 0.0
C360 C 0.46013 0.95464 0.90013 0.0
C361 C 0.47711 0.94139 0.93365 0.0
H362 H 0.49928 0.91928 0.94112 0.0
H363 H 0.44385 0.93953 0.93943 0.0
H364 H 0.48833 0.97548 0.93527 0.0
O365 O 0.58549 0.85364 0.91769 0.0
O366 O 0.59092 0.86491 0.8884 0.0
H367 H 0.48025 0.97277 0.86244 0.0
H368 H 0.42609 0.95237 0.86447 0.0
C369 C 0.46093 0.94344 0.86593 0.0
H370 H 0.46794 0.91628 0.85655 0.0
H371 H 0.55558 0.95104 0.86261 0.0
O372 O 0.50743 0.82641 0.9436 0.0
C373 C 0.60828 0.86146 0.90381 0.0
Co374 Co 0.65958 0.53888 0.42226 0.0
Co375 Co 0.66702 0.56497 0.38125 0.0
C376 C 0.74501 0.54267 0.40021 0.0
O377 O 0.72131 0.53933 0.41417 0.0
O378 O 0.72863 0.54938 0.38477 0.0
C379 C 0.68154 0.47598 0.44946 0.0
O380 O 0.69609 0.45341 0.4357 0.0
C381 C 0.67111 0.57496 0.34113 0.0
C382 C 0.61956 0.62457 0.33729 0.0
C383 C 0.64932 0.59916 0.32795 0.0
N384 N 0.65462 0.58572 0.35732 0.0
N385 N 0.62407 0.61561 0.35485 0.0
C386 C 0.7048 0.54019 0.33849 0.0
H387 H 0.7057 0.51803 0.35027 0.0
H388 H 0.69801 0.52121 0.32612 0.0
H389 H 0.73728 0.55565 0.33716 0.0
C390 C 0.58007 0.49831 0.40724 0.0
N391 N 0.62098 0.51349 0.40525 0.0
N392 N 0.62876 0.5193 0.38804 0.0
C393 C 0.59458 0.50482 0.37853 0.0
C394 C 0.56144 0.49312 0.39028 0.0
C395 C 0.5568 0.49782 0.42489 0.0
H396 H 0.57718 0.51269 0.43554 0.0
H397 H 0.54946 0.46358 0.42864 0.0
H398 H 0.52547 0.51583 0.42387 0.0
O399 O 0.64413 0.59976 0.42532 0.0
O400 O 0.6557 0.617 0.39679 0.0
H401 H 0.58436 0.53578 0.35301 0.0
H402 H 0.56897 0.47921 0.35373 0.0
C403 C 0.5933 0.50338 0.35844 0.0
H404 H 0.62591 0.4945 0.35315 0.0
H405 H 0.60577 0.62948 0.36518 0.0
O406 O 0.66113 0.51151 0.44661 0.0
C407 C 0.64652 0.62795 0.41288 0.0
Co408 Co 0.98004 0.81975 0.10516 0.0
Co409 Co 0.9473 0.80177 0.14477 0.0
C410 C 0.01818 0.74857 0.1263 0.0
O411 O 0.02186 0.77598 0.11357 0.0
O412 O 0.99276 0.75574 0.13958 0.0
C413 C 0.01732 0.81146 0.07013 0.0
O414 O 0.04513 0.78569 0.07834 0.0
C415 C 0.94658 0.81471 0.18459 0.0
C416 C 0.87868 0.79574 0.19045 0.0
C417 C 0.91565 0.81301 0.19835 0.0
N418 N 0.92794 0.80023 0.16933 0.0
N419 N 0.88763 0.78832 0.17308 0.0
C420 C 0.99341 0.82784 0.18588 0.0
H421 H 0.0125 0.81237 0.17492 0.0
H422 H 0.99641 0.86368 0.18446 0.0
H423 H 0.00701 0.8183 0.19911 0.0
C424 C 0.98069 0.91102 0.11885 0.0
N425 N 0.97542 0.86771 0.12114 0.0
N426 N 0.95904 0.86038 0.13718 0.0
C427 C 0.95045 0.89906 0.1451 0.0
C428 C 0.9651 0.9326 0.13406 0.0
C429 C 0.00043 0.93074 0.1024 0.0
H430 H 0.02258 0.90698 0.0958 0.0
H431 H 0.01871 0.96082 0.10581 0.0
H432 H 0.97409 0.93929 0.09282 0.0
O433 O 0.92405 0.78782 0.10308 0.0
O434 O 0.8989 0.77929 0.13081 0.0
H435 H 0.90188 0.93532 0.15995 0.0
H436 H 0.93977 0.90529 0.17347 0.0
C437 C 0.92061 0.90436 0.16091 0.0
H438 H 0.89719 0.87699 0.16155 0.0
H439 H 0.86552 0.77661 0.16361 0.0
O440 O 0.99125 0.83455 0.0795 0.0
C441 C 0.89542 0.77403 0.11399 0.0
Co442 Co 0.67279 0.95935 0.6024 0.0
Co443 Co 0.66683 0.95154 0.64433 0.0
C444 C 0.75111 0.95607 0.62899 0.0
O445 O 0.73094 0.956 0.61408 0.0
O446 O 0.73078 0.95771 0.64386 0.0
C447 C 0.68485 0.00784 0.56661 0.0
O448 O 0.66223 0.04243 0.57135 0.0
C449 C 0.65964 0.94317 0.68455 0.0
C450 C 0.59056 0.9234 0.68638 0.0
C451 C 0.62708 0.93157 0.69666 0.0
N452 N 0.64271 0.94237 0.66786 0.0
N453 N 0.60161 0.92995 0.66914 0.0
C454 C 0.70582 0.95463 0.68871 0.0
H455 H 0.71729 0.98046 0.67942 0.0
H456 H 0.70919 0.96567 0.70283 0.0
H457 H 0.72658 0.92533 0.68666 0.0
C458 C 0.59128 0.00731 0.61098 0.0
N459 N 0.63221 0.99475 0.61519 0.0
N460 N 0.63764 -0.00122 0.63262 0.0
C461 C 0.60238 0.01838 0.63966 0.0
C462 C 0.57031 0.02202 0.62655 0.0
C463 C 0.57025 0.99615 0.59347 0.0
H464 H 0.59303 0.97738 0.58481 0.0
H465 H 0.5608 0.02667 0.58646 0.0
H466 H 0.54029 0.97675 0.5958 0.0
O467 O 0.65147 0.90031 0.60229 0.0
O468 O 0.65253 0.89518 0.632 0.0
H469 H 0.58677 0.01273 0.6679 0.0
H470 H 0.58035 0.0663 0.65877 0.0
C471 C 0.60086 0.0364 0.65839 0.0
H472 H 0.63433 0.04404 0.66305 0.0
H473 H 0.58111 0.92558 0.65812 0.0
O474 O 0.68833 0.97567 0.5773 0.0
C475 C 0.64641 0.87832 0.61655 0.0
Co476 Co 0.52844 0.67885 0.10897 0.0
Co477 Co 0.56975 0.65911 0.14753 0.0
C478 C 0.54181 0.74907 0.13731 0.0
O479 O 0.52795 0.73544 0.12218 0.0
O480 O 0.55829 0.723 0.14883 0.0
C481 C 0.48865 0.72325 0.07851 0.0
O482 O 0.49072 0.75796 0.08881 0.0
C483 C 0.59326 0.64581 0.18678 0.0
C484 C 0.64107 0.59245 0.18335 0.0
C485 C 0.62212 0.61896 0.19623 0.0
N486 N 0.5954 0.63534 0.16917 0.0
N487 N 0.62395 0.60326 0.16738 0.0
C488 C 0.56612 0.68221 0.19417 0.0
H489 H 0.55676 0.70533 0.18339 0.0
H490 H 0.53596 0.66842 0.20007 0.0
H491 H 0.58404 0.69964 0.20492 0.0
C492 C 0.48448 0.59526 0.11816 0.0
N493 N 0.50696 0.63115 0.12301 0.0
N494 N 0.52115 0.62596 0.13957 0.0
C495 C 0.50662 0.5876 0.14598 0.0
C496 C 0.48378 0.56613 0.13254 0.0
C497 C 0.47079 0.58614 0.09924 0.0
H498 H 0.4923 0.60349 0.08968 0.0
H499 H 0.43695 0.59808 0.09731 0.0
H500 H 0.47175 0.55068 0.09626 0.0
O501 O 0.58945 0.66734 0.1028 0.0
O502 O 0.61664 0.65151 0.12964 0.0
H503 H 0.54914 0.55557 0.16456 0.0
H504 H 0.49205 0.54608 0.16859 0.0
C505 C 0.51636 0.57084 0.16442 0.0
H506 H 0.51606 0.59821 0.17416 0.0
H507 H 0.63227 0.58903 0.15512 0.0
O508 O 0.4995 0.68623 0.08495 0.0
C509 C 0.62093 0.65572 0.11276 0.0
Co510 Co 0.80569 0.51885 0.60429 0.0
Co511 Co 0.81263 0.53773 0.64603 0.0
C512 C 0.75104 0.47345 0.63413 0.0
O513 O 0.76297 0.48262 0.61813 0.0
O514 O 0.77017 0.48972 0.64782 0.0
C515 C 0.79463 0.46305 0.57294 0.0
O516 O 0.7911 0.43117 0.58462 0.0
C517 C 0.82776 0.55964 0.68535 0.0
C518 C 0.85234 0.6266 0.68114 0.0
C519 C 0.84305 0.5965 0.69442 0.0
N520 N 0.82842 0.56808 0.66757 0.0
N521 N 0.8431 0.60817 0.6653 0.0
C522 C 0.81106 0.51814 0.69327 0.0
H523 H 0.79327 0.5248 0.70596 0.0
H524 H 0.78937 0.50124 0.68362 0.0
H525 H 0.83903 0.49633 0.69628 0.0
C526 C 0.90302 0.51672 0.60872 0.0
N527 N 0.86198 0.51852 0.61522 0.0
N528 N 0.8638 0.52316 0.63277 0.0
C529 C 0.9058 0.52296 0.63804 0.0
C530 C 0.9323 0.51948 0.62298 0.0
C531 C 0.9138 0.51453 0.58917 0.0
H532 H 0.89222 0.49062 0.58244 0.0
H533 H 0.94841 0.50528 0.58703 0.0
H534 H 0.90769 0.54696 0.58303 0.0
O535 O 0.77954 0.57758 0.60441 0.0
O536 O 0.77747 0.5822 0.63399 0.0
H537 H 0.92113 0.56646 0.65952 0.0
H538 H 0.95302 0.51746 0.65962 0.0
C539 C 0.92014 0.53083 0.65698 0.0
H540 H 0.89684 0.51557 0.66643 0.0
H541 H 0.84683 0.62303 0.6528 0.0
O542 O 0.80403 0.50118 0.57845 0.0
C543 C 0.76648 0.59619 0.61865 0.0
H544 H 0.06572 0.13969 0.97719 0.0
H545 H 0.9525 0.21135 0.95824 0.0
H546 H 0.94317 0.24387 0.98825 0.0
H547 H 0.02282 0.11749 0.02227 0.0
H548 H 0.0753 0.12378 0.03278 0.0
H549 H 0.0718 0.1046 1.00997 0.0
H550 H 0.1228 0.16716 0.99979 0.0
H551 H 0.12609 0.18677 0.02253 0.0
H552 H 0.10828 0.22286 1.00488 0.0
H553 H 0.94962 0.27349 0.01981 0.0
H554 H 0.96755 0.29207 0.05131 0.0
H555 H 0.07431 0.19895 0.04998 0.0
C556 C 0.03857 0.16169 0.97942 0.0
C557 C 0.00986 0.17285 0.9653 0.0
C558 C 0.97488 0.20202 0.9688 0.0
C559 C 0.96935 0.22087 0.98582 0.0
C560 C -0.00126 0.20995 0.99932 0.0
C561 C 0.03228 0.18053 0.9964 0.0
C562 C 0.05956 0.17464 0.01317 0.0
C563 C 0.05721 0.12732 0.01995 0.0
C564 C 0.10698 0.18871 1.00989 0.0
C565 C 0.03647 0.20571 0.02587 0.0
C566 C 0.00162 0.22601 0.01761 0.0
C567 C 0.97652 0.25739 0.02648 0.0
C568 C 0.98703 0.2679 0.04434 0.0
C569 C 0.02204 0.24675 0.05315 0.0
C570 C 0.04698 0.21534 0.0437 0.0
H571 H 0.28728 0.02185 0.47214 0.0
H572 H 0.30549 0.88302 0.46336 0.0
H573 H 0.2801 0.86839 0.49431 0.0
H574 H 0.32 0.02462 0.51883 0.0
H575 H 0.27915 0.06435 0.5249 0.0
H576 H 0.30101 0.06359 0.50247 0.0
H577 H 0.22288 0.0565 0.48966 0.0
H578 H 0.20081 0.05683 0.51206 0.0
H579 H 0.18866 0.01231 0.49707 0.0
H580 H 0.25261 0.86931 0.52654 0.0
H581 H 0.22401 0.88562 0.55691 0.0
H582 H 0.21997 0.02344 0.54365 0.0
C583 C 0.28655 0.98838 0.47679 0.0
C584 C 0.29884 0.95356 0.46537 0.0
C585 C 0.29647 0.91021 0.47189 0.0
C586 C 0.28205 0.90159 0.48945 0.0
C587 C 0.26962 0.93666 0.50027 0.0
C588 C 0.27161 0.97918 0.49415 0.0
C589 C 0.25486 0.01095 0.50815 0.0
C590 C 0.29091 0.04274 0.51393 0.0
C591 C 0.2144 0.03559 0.50132 0.0
C592 C 0.24323 0.97972 0.52315 0.0
C593 C 0.25225 0.93703 0.51842 0.0
C594 C 0.24523 0.90262 0.53033 0.0
C595 C 0.22894 0.91218 0.54754 0.0
C596 C 0.21933 0.95571 0.55262 0.0
C597 C 0.22635 0.98973 0.54013 0.0
H598 H 0.45025 0.26283 0.04621 0.0
H599 H 0.56013 0.17443 0.05196 0.0
H600 H 0.58555 0.19491 0.02157 0.0
H601 H 0.42953 0.24076 1.00002 0.0
H602 H 0.41466 0.29623 0.99474 0.0
H603 H 0.40628 0.27549 0.01707 0.0
H604 H 0.4521 0.33905 0.03 0.0
H605 H 0.46088 0.35983 1.00768 0.0
H606 H 0.50678 0.34755 0.0219 0.0
H607 H 0.59763 0.22388 0.99007 0.0
H608 H 0.59416 0.25669 0.95984 0.0
H609 H 0.47654 0.32659 0.975 0.0
C610 C 0.47978 0.2478 0.04115 0.0
C611 C 0.50325 0.21702 0.05153 0.0
C612 C 0.54161 0.19808 0.0443 0.0
C613 C 0.55635 0.20962 0.02706 0.0
C614 C 0.53244 0.2402 0.01724 0.0
C615 C 0.4949 0.25892 0.02403 0.0
C616 C 0.47442 0.29002 0.01063 0.0
C617 C 0.42851 0.27469 1.0053 0.0
C618 C 0.47351 0.33689 0.01799 0.0
C619 C 0.50612 0.28571 0.99514 0.0
C620 C 0.53946 0.25696 0.99923 0.0
C621 C 0.57181 0.24663 0.98679 0.0
C622 C 0.56958 0.26553 0.96964 0.0
C623 C 0.53525 0.29449 0.96503 0.0
C624 C 0.50355 0.30509 0.97812 0.0
H625 H 0.17135 0.56479 0.48088 0.0
H626 H 0.26949 0.47798 0.45878 0.0
H627 H 0.31001 0.4805 0.48736 0.0
H628 H 0.24353 0.6303 0.50967 0.0
H629 H 0.20473 0.63287 0.52781 0.0
H630 H 0.18595 0.62876 0.50496 0.0
H631 H 0.14164 0.55968 0.51311 0.0
H632 H 0.15998 0.56384 0.53597 0.0
H633 H 0.16893 0.51412 0.52355 0.0
H634 H 0.33873 0.49022 0.51855 0.0
H635 H 0.34843 0.49831 0.55126 0.0
H636 H 0.22927 0.57472 0.55397 0.0
C637 C 0.20173 0.54694 0.48204 0.0
C638 C 0.21759 0.52153 0.46762 0.0
C639 C 0.25684 0.49765 0.4697 0.0
C640 C 0.28026 0.49915 0.48582 0.0
C641 C 0.26373 0.52426 0.49986 0.0
C642 C 0.22505 0.54723 0.49824 0.0
C643 C 0.21224 0.56791 0.51598 0.0
C644 C 0.21159 0.61794 0.51451 0.0
C645 C 0.16809 0.55032 0.52254 0.0
C646 C 0.24936 0.5524 0.52783 0.0
C647 C 0.27922 0.52813 0.51816 0.0
C648 C 0.31567 0.50933 0.52626 0.0
C649 C 0.32103 0.51429 0.54486 0.0
C650 C 0.28966 0.53717 0.5552 0.0
C651 C 0.25395 0.55724 0.54643 0.0
H652 H 0.06914 0.77018 0.04524 0.0
H653 H 0.94318 0.83313 0.05173 0.0
H654 H 0.92109 0.80649 0.02189 0.0
H655 H 0.07861 0.79169 0.99614 0.0
H656 H 0.10512 0.74005 0.99209 0.0
H657 H 0.1123 0.76746 0.01328 0.0
H658 H 0.08562 0.6981 0.02977 0.0
H659 H 0.07744 0.67078 1.00865 0.0
H660 H 0.03297 0.67576 0.02434 0.0
H661 H 0.90889 0.76457 0.9935 0.0
H662 H 0.9117 0.72093 0.96572 0.0
H663 H 0.0471 0.6889 0.97631 0.0
C664 C 0.03735 0.77936 0.04018 0.0
C665 C 0.00793 0.8038 0.05086 0.0
C666 C 0.96648 0.81483 0.04379 0.0
C667 C 0.95347 0.79954 0.02688 0.0
C668 C 0.98256 0.77399 0.01705 0.0
C669 C 0.02407 0.76496 0.02319 0.0
C670 C 0.04871 0.73623 1.01002 0.0
C671 C 0.08854 0.7603 1.00243 0.0
C672 C 0.06195 0.69264 0.01872 0.0
C673 C 0.01416 0.7296 0.99576 0.0
C674 C 0.97612 0.75135 1.00019 0.0
C675 C 0.93873 0.74805 0.98972 0.0
C676 C 0.94054 0.72279 0.97405 0.0
C677 C 0.97965 0.70158 0.96883 0.0
C678 C 0.01686 0.70499 0.97991 0.0
H679 H 0.75246 0.07185 0.46622 0.0
H680 H 0.85491 0.97436 0.47017 0.0
H681 H 0.83589 0.96241 0.50199 0.0
H682 H 0.76518 0.1154 0.51284 0.0
H683 H 0.70735 0.12395 0.51527 0.0
H684 H 0.73247 0.12845 0.49347 0.0
H685 H 0.67852 0.07108 0.48106 0.0
H686 H 0.65372 0.06581 0.50284 0.0
H687 H 0.67525 0.01826 0.49163 0.0
H688 H 0.79937 0.9537 0.53179 0.0
H689 H 0.75373 0.95466 0.55893 0.0
H690 H 0.67609 0.05995 0.53643 0.0
C691 C 0.7717 0.04882 0.4739 0.0
C692 C 0.8053 0.0241 0.46567 0.0
C693 C 0.82937 0.994 0.47617 0.0
C694 C 0.81863 0.98682 0.49425 0.0
C695 C 0.78422 0.0105 0.50172 0.0
C696 C 0.7617 0.04158 0.49201 0.0
C697 C 0.72498 0.06135 0.50306 0.0
C698 C 0.73299 0.11019 0.50636 0.0
C699 C 0.6805 0.05364 0.49411 0.0
C700 C 0.72935 0.03538 0.52029 0.0
C701 C 0.7638 0.00628 0.51919 0.0
C702 C 0.77283 0.97688 0.53292 0.0
C703 C 0.7464 0.97751 0.54825 0.0
C704 C 0.7113 0.00753 0.54989 0.0
C705 C 0.70289 0.03695 0.53568 0.0
H706 H 0.448 0.85843 0.98801 0.0
H707 H 0.5063 0.74918 0.95973 0.0
H708 H 0.50878 0.70704 0.98796 0.0
H709 H 0.51497 0.8479 0.02683 0.0
H710 H 0.47311 0.8638 0.04253 0.0
H711 H 0.47151 0.88372 0.01981 0.0
H712 H 0.39356 0.85276 0.01614 0.0
H713 H 0.39507 0.83252 0.03884 0.0
H714 H 0.38377 0.79577 0.02054 0.0
H715 H 0.50611 0.677 0.01921 0.0
H716 H 0.50717 0.66436 0.05191 0.0
H717 H 0.45582 0.79483 0.06064 0.0
C718 C 0.4607 0.82542 0.98779 0.0
C719 C 0.47656 0.80683 0.97168 0.0
C720 C 0.49395 0.76397 0.97193 0.0
C721 C 0.49523 0.73969 0.98787 0.0
C722 C 0.4796 0.75892 1.00356 0.0
C723 C 0.46325 0.80103 1.00374 0.0
C724 C 0.45225 0.81525 0.02274 0.0
C725 C 0.4796 0.85501 0.0283 0.0
C726 C 0.40325 0.82462 0.02467 0.0
C727 C 0.46536 0.77474 0.03318 0.0
C728 C 0.48018 0.74235 0.0218 0.0
C729 C 0.49454 0.70212 0.02827 0.0
C730 C 0.49483 0.69516 0.04688 0.0
C731 C 0.4816 0.72854 0.05889 0.0
C732 C 0.46602 0.76858 0.05184 0.0
H733 H 0.69252 0.53065 0.47825 0.0
H734 H 0.70454 0.39522 0.462 0.0
H735 H 0.73508 0.37685 0.49181 0.0
H736 H 0.79321 0.5348 0.50171 0.0
H737 H 0.77361 0.57064 0.51915 0.0
H738 H 0.74946 0.57258 0.49715 0.0
H739 H 0.67318 0.55871 0.51089 0.0
H740 H 0.69703 0.55728 0.53296 0.0
H741 H 0.66498 0.51191 0.52514 0.0
H742 H 0.76477 0.37357 0.52356 0.0
H743 H 0.7922 0.38588 0.55438 0.0
H744 H 0.76555 0.52435 0.54889 0.0
C745 C 0.70074 0.49695 0.48108 0.0
C746 C 0.69551 0.46418 0.46789 0.0
C747 C 0.70788 0.42073 0.47196 0.0
C748 C 0.72534 0.41004 0.48884 0.0
C749 C 0.73084 0.44327 0.50142 0.0
C750 C 0.71899 0.48589 0.49772 0.0
C751 C 0.73021 0.5159 0.51321 0.0
C752 C 0.76361 0.55052 0.50746 0.0
C753 C 0.68889 0.53719 0.52101 0.0
C754 C 0.75006 0.48353 0.52626 0.0
C755 C 0.74984 0.44175 0.51928 0.0
C756 C 0.76532 0.40621 0.52911 0.0
C757 C 0.78092 0.41351 0.54658 0.0
C758 C 0.78154 0.45609 0.55398 0.0
C759 C 0.76626 0.4915 0.54353 0.0
H760 H 0.96174 0.18783 0.11316 0.0
H761 H 0.98664 0.20885 0.16987 0.0
H762 H 0.97533 0.13053 0.17553 0.0
H763 H 0.87892 0.09737 0.11935 0.0
H764 H 0.89893 0.06915 0.09977 0.0
H765 H 0.90078 0.1279 0.10075 0.0
H766 H 0.98356 0.12497 0.09418 0.0
H767 H 0.98238 0.06632 0.09367 0.0
H768 H 0.01875 0.09404 0.10882 0.0
H769 H 0.97751 0.0493 0.174 0.0
H770 H 0.98084 0.97128 0.16632 0.0
H771 H 0.94844 0.00202 0.11106 0.0
C772 C 0.96311 0.17637 0.12689 0.0
C773 C 0.97515 0.20471 0.14107 0.0
C774 C 0.97718 0.18807 0.15879 0.0
C775 C 0.97103 0.14347 0.16213 0.0
C776 C 0.96199 0.11606 0.14768 0.0
C777 C 0.95675 0.13198 0.13048 0.0
C778 C 0.95015 0.09512 0.11714 0.0
C779 C 0.90447 0.09753 0.10876 0.0
C780 C 0.98584 0.09515 0.1026 0.0
C781 C 0.95454 0.05594 0.12941 0.0
C782 C 0.96131 0.06882 0.14697 0.0
C783 C 0.97062 0.03878 0.16044 0.0
C784 C 0.9723 0.99443 0.15593 0.0
C785 C 0.96403 0.98017 0.13816 0.0
C786 C 0.95499 0.01158 0.12476 0.0
H787 H 0.31535 0.0522 0.60584 0.0
H788 H 0.29032 0.99495 0.65806 0.0
H789 H 0.36978 0.98818 0.66318 0.0
H790 H 0.41005 0.98929 0.59413 0.0
H791 H 0.43838 0.03431 0.58389 0.0
H792 H 0.3797 0.03335 0.58403 0.0
H793 H 0.37823 0.10899 0.59955 0.0
H794 H 0.43692 0.1102 0.59947 0.0
H795 H 0.40753 0.11668 0.62026 0.0
H796 H 0.45049 0.98246 0.66147 0.0
H797 H 0.52824 0.98444 0.65492 0.0
H798 H 0.50299 0.05559 0.60564 0.0
C799 C 0.3267 0.03788 0.61828 0.0
C800 C 0.29692 0.02336 0.63149 0.0
C801 C 0.31274 0.00589 0.64778 0.0
C802 C 0.35769 0.00195 0.65077 0.0
C803 C 0.38617 0.01661 0.63749 0.0
C804 C 0.37143 0.03481 0.62168 0.0
C805 C 0.4091 0.04964 0.60996 0.0
C806 C 0.40931 0.02518 0.59193 0.0
C807 C 0.40786 0.09934 0.60715 0.0
C808 C 0.44744 0.03623 0.62155 0.0
C809 C 0.43323 0.01686 0.63724 0.0
C810 C 0.46205 -0.00109 0.64954 0.0
C811 C 0.50658 0.00101 0.6458 0.0
C812 C 0.52249 0.02217 0.63018 0.0
C813 C 0.49221 0.03989 0.61785 0.0
H814 H 0.5338 0.4972 0.14382 0.0
H815 H 0.40931 0.52856 0.11949 0.0
H816 H 0.39266 0.44959 0.11732 0.0
H817 H 0.55799 0.40373 0.11858 0.0
H818 H 0.58186 0.37367 0.13691 0.0
H819 H 0.58323 0.43239 0.13695 0.0
H820 H 0.54513 0.43379 0.16798 0.0
H821 H 0.54389 0.37499 0.16811 0.0
H822 H 0.49412 0.40565 0.1709 0.0
H823 H 0.39224 0.3674 0.11609 0.0
H824 H 0.4061 0.28785 0.11711 0.0
H825 H 0.52838 0.31034 0.14455 0.0
C826 C 0.50245 0.48766 0.13852 0.0
C827 C 0.47247 0.51905 0.13205 0.0
C828 C 0.43264 0.50498 0.12451 0.0
C829 C 0.42291 0.46029 0.12331 0.0
C830 C 0.45321 0.43023 0.12988 0.0
C831 C 0.49199 0.44337 0.1375 0.0
C832 C 0.51933 0.40461 0.14335 0.0
C833 C 0.56319 0.40355 0.13334 0.0
C834 C 0.526 0.40478 0.1638 0.0
C835 C 0.49022 0.36738 0.13757 0.0
C836 C 0.45229 0.38294 0.12976 0.0
C837 C 0.42145 0.35491 0.12242 0.0
C838 C 0.42959 0.30992 0.12303 0.0
C839 C 0.46793 0.29339 0.13111 0.0
C840 C 0.49848 0.32237 0.13861 0.0
H841 H 0.1799 0.48384 0.6522 0.0
H842 H 0.21339 0.59424 0.61863 0.0
H843 H 0.13527 0.60665 0.61225 0.0
H844 H 0.10272 0.44223 0.62368 0.0
H845 H 0.06566 0.42313 0.64071 0.0
H846 H 0.12287 0.42759 0.64559 0.0
H847 H 0.1064 0.47807 0.67268 0.0
H848 H 0.04895 0.47281 0.66821 0.0
H849 H 0.07333 0.52616 0.66947 0.0
H850 H 0.05405 0.60158 0.60674 0.0
H851 H 0.97556 0.58333 0.6048 0.0
H852 H 0.99627 0.47311 0.64019 0.0
C853 C 0.17067 0.51197 0.64425 0.0
C854 C 0.20269 0.53884 0.63629 0.0
C855 C 0.18935 0.57394 0.62519 0.0
C856 C 0.14506 0.58095 0.62137 0.0
C857 C 0.1145 0.55236 0.62863 0.0
C858 C 0.12669 0.51887 0.64003 0.0
C859 C 0.0881 0.49025 0.64472 0.0
C860 C 0.09529 0.44302 0.63829 0.0
C861 C 0.07863 0.49194 0.66497 0.0
C862 C 0.05242 0.51256 0.63406 0.0
C863 C 0.0682 0.54844 0.62493 0.0
C864 C 0.04132 0.57377 0.61396 0.0
C865 C 0.99695 0.56292 0.61276 0.0
C866 C 0.98001 0.527 0.6224 0.0
C867 C 0.00837 0.50108 0.63286 0.0
H868 H 0.94706 0.46377 0.88239 0.0
H869 H 0.02612 0.49827 0.92851 0.0
H870 H 0.04888 0.42141 0.93154 0.0
H871 H 0.91384 0.3568 0.89684 0.0
H872 H 0.91889 0.33255 0.87489 0.0
H873 H 0.90601 0.38972 0.87705 0.0
H874 H 0.97249 0.40924 0.85723 0.0
H875 H 0.98557 0.35214 0.85497 0.0
H876 H 0.02581 0.38959 0.86343 0.0
H877 H 0.06311 0.34246 0.92964 0.0
H878 H 0.07237 0.26522 0.92226 0.0
H879 H 0.98988 0.28109 0.87529 0.0
C880 C 0.96945 0.45525 0.89304 0.0
C881 C 0.98452 0.48698 0.90535 0.0
C882 C 0.01324 0.47439 0.91925 0.0
C883 C 0.02666 0.43088 0.92096 0.0
C884 C 0.01151 0.4006 0.9085 0.0
C885 C 0.9839 0.41213 0.8947 0.0
C886 C 0.97419 0.37336 0.88265 0.0
C887 C 0.92532 0.36247 0.88288 0.0
C888 C 0.9905 0.38158 0.86343 0.0
C889 C 0.00076 0.33814 0.89188 0.0
C890 C 0.02149 0.35478 0.90687 0.0
C891 C 0.04717 0.32903 0.91793 0.0
C892 C 0.052 0.28503 0.91361 0.0
C893 C 0.03167 0.26694 0.8982 0.0
C894 C 0.00587 0.29401 0.8871 0.0
H895 H 0.01991 0.95437 0.4115 0.0
H896 H 0.99186 0.98743 0.35607 0.0
H897 H 0.06978 0.98169 0.3487 0.0
H898 H 0.11725 0.02029 0.41356 0.0
H899 H 0.14561 0.98335 0.42834 0.0
H900 H 0.08705 0.98628 0.42886 0.0
H901 H 0.08364 0.90287 0.42318 0.0
H902 H 0.14227 0.90005 0.42218 0.0
H903 H 0.11013 0.88017 0.40368 0.0
H904 H 0.15002 0.97219 0.34699 0.0
H905 H 0.22904 0.97572 0.35223 0.0
H906 H 0.20719 0.95455 0.4092 0.0
C907 C 0.03022 0.96075 0.39787 0.0
C908 C -0.00047 0.97016 0.38425 0.0
C909 C 0.01455 0.97868 0.3666 0.0
C910 C 0.05878 0.97548 0.36226 0.0
C911 C 0.08802 0.96464 0.37579 0.0
C912 C 0.07466 0.9586 0.39334 0.0
C913 C 0.11359 0.95148 0.40556 0.0
C914 C 0.11602 0.9875 0.41992 0.0
C915 C 0.11231 0.90593 0.41416 0.0
C916 C 0.1507 0.95504 0.39213 0.0
C917 C 0.13504 0.96153 0.37498 0.0
C918 C 0.16279 0.96717 0.36037 0.0
C919 C 0.20779 0.96877 0.36348 0.0
C920 C 0.22464 0.96558 0.38114 0.0
C921 C 0.1956 0.95675 0.3955 0.0
H922 H 0.52533 0.20643 0.90364 0.0
H923 H 0.40921 0.23243 0.87213 0.0
H924 H 0.38977 0.15451 0.87351 0.0
H925 H 0.54976 0.1012 0.88238 0.0
H926 H 0.56995 0.07759 0.90291 0.0
H927 H 0.57454 0.13544 0.89917 0.0
H928 H 0.53386 0.14953 0.92913 0.0
H929 H 0.52812 0.09168 0.9327 0.0
H930 H 0.48057 0.12633 0.93251 0.0
H931 H 0.3803 0.07437 0.88003 0.0
H932 H 0.38824 0.99558 0.88668 0.0
H933 H 0.51311 0.02056 0.91169 0.0
C934 C 0.49625 0.19556 0.89676 0.0
C935 C 0.46893 0.22559 0.88772 0.0
C936 C 0.43101 0.21006 0.87894 0.0
C937 C 0.41939 0.16588 0.87982 0.0
C938 C 0.44637 0.13738 0.88926 0.0
C939 C 0.4846 0.15134 0.89717 0.0
C940 C 0.50861 0.11364 0.90593 0.0
C941 C 0.55336 0.10654 0.89706 0.0
C942 C 0.51304 0.12074 0.92628 0.0
C943 C 0.47776 0.07641 0.90182 0.0
C944 C 0.44169 0.09093 0.89246 0.0
C945 C 0.40856 0.06259 0.88725 0.0
C946 C 0.41322 0.01799 0.89113 0.0
C947 C 0.45089 0.00214 0.89993 0.0
C948 C 0.48324 0.0319 0.90552 0.0
H949 H 0.49616 0.44313 0.4053 0.0
H950 H 0.51888 0.5466 0.3667 0.0
H951 H 0.44138 0.54803 0.35919 0.0
H952 H 0.40521 0.38904 0.38304 0.0
H953 H 0.37517 0.38114 0.40357 0.0
H954 H 0.43385 0.38277 0.404 0.0
H955 H 0.43107 0.44512 0.42751 0.0
H956 H 0.37245 0.44362 0.42716 0.0
H957 H 0.4005 0.494 0.42259 0.0
H958 H 0.36103 0.53937 0.3559 0.0
H959 H 0.28174 0.52819 0.36037 0.0
H960 H 0.30948 0.43947 0.40426 0.0
C961 C 0.48487 0.46568 0.39513 0.0
C962 C 0.51425 0.49298 0.38589 0.0
C963 C 0.49785 0.52306 0.37307 0.0
C964 C 0.45355 0.52469 0.36888 0.0
C965 C 0.42556 0.49712 0.37807 0.0
C966 C 0.44032 0.46885 0.39121 0.0
C967 C 0.40263 0.44658 0.40053 0.0
C968 C 0.40433 0.39694 0.3976 0.0
C969 C 0.40161 0.45803 0.42063 0.0
C970 C 0.36465 0.46704 0.39061 0.0
C971 C 0.37862 0.49532 0.37742 0.0
C972 C 0.34954 0.51751 0.36626 0.0
C973 C 0.30476 0.511 0.36885 0.0
C974 C 0.28993 0.48355 0.38277 0.0
C975 C 0.32023 0.46115 0.39368 0.0
H976 H 0.9804 0.78094 0.91273 0.0
H977 H 0.04637 0.74494 0.86332 0.0
H978 H 0.06768 0.82228 0.85896 0.0
H979 H 0.93301 0.87441 0.89557 0.0
H980 H 0.93631 0.90546 0.91607 0.0
H981 H 0.9329 0.84692 0.91696 0.0
H982 H 0.00407 0.84339 0.9356 0.0
H983 H 0.00746 0.90207 0.93503 0.0
H984 H 0.05258 0.86943 0.9272 0.0
H985 H 0.07863 0.90429 0.85968 0.0
H986 H 0.07579 0.98378 0.86434 0.0
H987 H 0.99364 0.96536 0.9111 0.0
C988 C 0.00059 0.78884 0.90126 0.0
C989 C 0.01261 0.75674 0.88853 0.0
C990 C 0.03751 0.76893 0.87337 0.0
C991 C 0.04962 0.81271 0.87079 0.0
C992 C 0.03592 0.84368 0.88337 0.0
C993 C 0.0118 0.83219 0.89826 0.0
C994 C 0.99688 0.87176 0.90878 0.0
C995 C 0.94682 0.8748 0.90936 0.0
C996 C 0.01643 0.87165 0.92777 0.0
C997 C 0.01614 0.90763 0.89742 0.0
C998 C 0.03912 0.89081 0.883 0.0
C999 C 0.06025 0.91776 0.87078 0.0
C1000 C 0.05777 0.96299 0.87338 0.0
C1001 C 0.03336 0.9809 0.88779 0.0
C1002 C 0.01245 0.95268 0.89995 0.0
H1003 H 0.69838 0.97902 0.36946 0.0
H1004 H 0.73419 0.08838 0.40326 0.0
H1005 H 0.65635 0.10126 0.4102 0.0
H1006 H 0.59192 0.02174 0.35307 0.0
H1007 H 0.56748 0.96843 0.35438 0.0
H1008 H 0.62479 0.9736 0.34959 0.0
H1009 H 0.64188 0.92281 0.37651 0.0
H1010 H 0.58483 0.91853 0.38174 0.0
H1011 H 0.62252 0.93737 0.39856 0.0
H1012 H 0.57486 0.09683 0.41602 0.0
H1013 H 0.49604 0.07968 0.41781 0.0
H1014 H 0.51558 0.9695 0.38226 0.0
C1015 C 0.68981 0.00707 0.37759 0.0
C1016 C 0.72238 0.03342 0.38546 0.0
C1017 C 0.70974 0.06844 0.39676 0.0
C1018 C 0.66563 0.07569 0.40092 0.0
C1019 C 0.63461 0.04737 0.3938 0.0
C1020 C 0.64614 0.01407 0.38219 0.0
C1021 C 0.60738 0.98562 0.37768 0.0
C1022 C 0.59729 0.98748 0.35748 0.0
C1023 C 0.61461 0.93831 0.384 0.0
C1024 C 0.5722 0.00798 0.38858 0.0
C1025 C 0.58841 0.04361 0.39776 0.0
C1026 C 0.56183 0.06916 0.40879 0.0
C1027 C 0.51729 0.05893 0.40991 0.0
C1028 C 0.49997 0.02339 0.40015 0.0
C1029 C 0.52806 0.99706 0.38974 0.0
H1030 H 0.49564 0.51994 0.91353 0.0
H1031 H 0.5954 0.49553 0.87356 0.0
H1032 H 0.59847 0.57445 0.86679 0.0
H1033 H 0.43895 0.60153 0.89147 0.0
H1034 H 0.42884 0.63566 0.91075 0.0
H1035 H 0.43619 0.57775 0.91357 0.0
H1036 H 0.49927 0.59077 0.93599 0.0
H1037 H 0.49125 0.64878 0.93369 0.0
H1038 H 0.54418 0.62517 0.92955 0.0
H1039 H 0.58277 0.65379 0.86139 0.0
H1040 H 0.56321 0.73189 0.86267 0.0
H1041 H 0.47936 0.70673 0.90841 0.0
C1042 C 0.51924 0.53145 0.90383 0.0
C1043 C 0.54486 0.50173 0.89383 0.0
C1044 C 0.57493 0.51783 0.88108 0.0
C1045 C 0.57684 0.56252 0.87715 0.0
C1046 C 0.54931 0.59076 0.88649 0.0
C1047 C 0.52228 0.57617 0.90005 0.0
C1048 C 0.49649 0.61362 0.90817 0.0
C1049 C 0.4472 0.6067 0.90584 0.0
C1050 C 0.50853 0.61997 0.92803 0.0
C1051 C 0.51248 0.65129 0.89675 0.0
C1052 C 0.54238 0.63718 0.88413 0.0
C1053 C 0.56 0.66541 0.87142 0.0
C1054 C 0.54821 0.70962 0.8721 0.0
C1055 C 0.5197 0.72537 0.88561 0.0
C1056 C 0.50119 0.69559 0.89793 0.0
H1057 H 0.80985 0.50518 0.37989 0.0
H1058 H 0.78632 0.5874 0.42629 0.0
H1059 H 0.86557 0.59623 0.43056 0.0
H1060 H 0.90078 0.44827 0.39964 0.0
H1061 H 0.93013 0.44324 0.37877 0.0
H1062 H 0.87154 0.44602 0.37868 0.0
H1063 H 0.87498 0.512 0.35693 0.0
H1064 H 0.93365 0.5097 0.35717 0.0
H1065 H 0.90593 0.55955 0.36317 0.0
H1066 H 0.94738 0.59792 0.42922 0.0
H1067 H 0.02621 0.58469 0.42454 0.0
H1068 H 0.99539 0.49375 0.38178 0.0
C1069 C 0.82158 0.52509 0.39087 0.0
C1070 C 0.79234 0.54577 0.40273 0.0
C1071 C 0.8085 0.57114 0.41714 0.0
C1072 C 0.85334 0.57662 0.41959 0.0
C1073 C 0.88151 0.55583 0.4077 0.0
C1074 C 0.86635 0.52989 0.39384 0.0
C1075 C 0.90362 0.50859 0.38383 0.0
C1076 C 0.90138 0.45857 0.38533 0.0
C1077 C 0.90458 0.52336 0.36411 0.0
C1078 C 0.94189 0.5268 0.39417 0.0
C1079 C 0.92857 0.55462 0.40767 0.0
C1080 C 0.95827 0.5759 0.41877 0.0
C1081 C 0.00288 0.56806 0.41609 0.0
C1082 C 0.01709 0.5386 0.40268 0.0
C1083 C 0.98598 0.51768 0.3917 0.0
H1084 H 0.05545 0.68089 0.14638 0.0
H1085 H 0.9954 0.71184 0.09517 0.0
H1086 H 0.9933 0.63418 0.08744 0.0
H1087 H 0.12425 0.58986 0.12731 0.0
H1088 H 0.11968 0.55748 0.14741 0.0
H1089 H 0.11855 0.6162 0.14883 0.0
H1090 H 0.0448 0.61214 0.16565 0.0
H1091 H 0.0453 0.55351 0.16398 0.0
H1092 H -0.00035 0.58413 0.15538 0.0
H1093 H 0.98508 0.55384 0.08748 0.0
H1094 H 0.98597 0.47455 0.09237 0.0
H1095 H 0.06553 0.49338 0.13994 0.0
C1096 C 0.04312 0.67122 0.13337 0.0
C1097 C 0.02619 0.70254 0.1213 0.0
C1098 C 0.00953 0.68862 0.10448 0.0
C1099 C 0.00773 0.64446 0.09999 0.0
C1100 C 0.02385 0.61433 0.11221 0.0
C1101 C 0.04268 0.62692 0.12827 0.0
C1102 C 0.05835 0.5872 0.13863 0.0
C1103 C 0.10817 0.58772 0.14066 0.0
C1104 C 0.03566 0.58409 0.157 0.0
C1105 C 0.04375 0.55075 0.12617 0.0
C1106 C 0.02321 0.56726 0.1112 0.0
C1107 C 0.00267 0.54031 0.09878 0.0
C1108 C 0.00374 0.4951 0.10158 0.0
C1109 C 0.02652 0.47697 0.11633 0.0
C1110 C 0.04717 0.50556 0.12865 0.0
H1111 H 0.81554 0.0053 0.64457 0.0
H1112 H 0.79263 0.89148 0.61141 0.0
H1113 H 0.87197 0.8813 0.60755 0.0
H1114 H 0.90032 0.04681 0.61773 0.0
H1115 H 0.93199 0.06808 0.6361 0.0
H1116 H 0.87382 0.06312 0.63828 0.0
H1117 H 0.884 0.01603 0.66688 0.0
H1118 H 0.94229 0.02091 0.66478 0.0
H1119 H 0.91757 0.96771 0.6659 0.0
H1120 H 0.95365 0.88561 0.60601 0.0
H1121 H 0.03176 0.90604 0.60616 0.0
H1122 H 0.00026 0.02072 0.63779 0.0
C1123 C 0.82749 0.97773 0.6369 0.0
C1124 C 0.79841 0.94874 0.6285 0.0
C1125 C 0.81477 0.91374 0.61804 0.0
C1126 C 0.85966 0.90766 0.61581 0.0
C1127 C 0.88772 0.93724 0.62394 0.0
C1128 C 0.87234 0.97173 0.6342 0.0
C1129 C 0.90927 0.00104 0.64007 0.0
C1130 C 0.90349 0.0475 0.63259 0.0
C1131 C 0.91352 0.00142 0.66063 0.0
C1132 C 0.94751 0.97787 0.63139 0.0
C1133 C 0.93458 0.9408 0.62236 0.0
C1134 C 0.96425 0.9145 0.6131 0.0
C1135 C 0.0084 0.92643 0.61315 0.0
C1136 C 0.02217 0.96452 0.6222 0.0
C1137 C 0.9911 0.99058 0.63127 0.0
H1138 H 0.4974 0.81439 0.11978 0.0
H1139 H 0.59593 0.79189 0.16054 0.0
H1140 H 0.61182 0.8708 0.16121 0.0
H1141 H 0.55292 0.89635 0.09555 0.0
H1142 H 0.50523 0.92904 0.09109 0.0
H1143 H 0.50013 0.87096 0.09412 0.0
H1144 H 0.44415 0.88295 0.11972 0.0
H1145 H 0.44824 0.94101 0.11645 0.0
H1146 H 0.45808 0.91787 0.13832 0.0
H1147 H 0.62107 0.95149 0.15569 0.0
H1148 H 0.61359 0.03001 0.14841 0.0
H1149 H 0.50645 0.00037 0.11263 0.0
C1150 C 0.52186 0.82611 0.12905 0.0
C1151 C 0.54545 0.79685 0.14009 0.0
C1152 C 0.57714 0.81361 0.15206 0.0
C1153 C 0.58675 0.85836 0.1524 0.0
C1154 C 0.56402 0.88603 0.14087 0.0
C1155 C 0.53147 0.87073 0.12974 0.0
C1156 C 0.5111 0.90751 0.11901 0.0
C1157 C 0.51776 0.90052 0.09874 0.0
C1158 C 0.46252 0.91264 0.12366 0.0
C1159 C 0.53749 0.94587 0.12575 0.0
C1160 C 0.56828 0.93268 0.13816 0.0
C1161 C 0.59674 0.96224 0.14615 0.0
C1162 C 0.59239 0.00666 0.14191 0.0
C1163 C 0.55943 0.02109 0.13005 0.0
C1164 C 0.53237 0.99013 0.12156 0.0
H1165 H 0.50262 0.51547 0.65238 0.0
H1166 H 0.47601 0.42725 0.60833 0.0
H1167 H 0.55369 0.40533 0.60762 0.0
H1168 H 0.60485 0.55246 0.63614 0.0
H1169 H 0.62935 0.55649 0.65804 0.0
H1170 H 0.57135 0.56241 0.65561 0.0
H1171 H 0.56009 0.50027 0.67881 0.0
H1172 H 0.61824 0.49361 0.68095 0.0
H1173 H 0.58477 0.44766 0.67489 0.0
H1174 H 0.63481 0.39754 0.61012 0.0
H1175 H 0.71389 0.4095 0.61381 0.0
H1176 H 0.68785 0.50007 0.65721 0.0
C1177 C 0.5133 0.49133 0.6427 0.0
C1178 C 0.48362 0.47299 0.63039 0.0
C1179 C 0.4985 0.44184 0.61777 0.0
C1180 C 0.54239 0.42889 0.61741 0.0
C1181 C 0.57091 0.44724 0.62984 0.0
C1182 C 0.55705 0.47804 0.64218 0.0
C1183 C 0.59485 0.49496 0.65322 0.0
C1184 C 0.60043 0.54449 0.65059 0.0
C1185 C 0.58913 0.48343 0.67315 0.0
C1186 C 0.63229 0.46956 0.64493 0.0
C1187 C 0.6177 0.44185 0.63159 0.0
C1188 C 0.64657 0.41838 0.62078 0.0
C1189 C 0.69145 0.42503 0.62307 0.0
C1190 C 0.70703 0.45469 0.63613 0.0
C1191 C 0.677 0.47575 0.64766 0.0
H1192 H 0.08169 0.36903 0.30186 0.0
H1193 H 0.12922 0.50222 0.30058 0.0
H1194 H 0.12638 0.50118 0.26749 0.0
H1195 H 0.13952 0.33027 0.2637 0.0
H1196 H 0.09594 0.29611 0.25572 0.0
H1197 H 0.1007 0.30779 0.27931 0.0
H1198 H 0.02156 0.33744 0.27958 0.0
H1199 H 0.01665 0.3261 0.25593 0.0
H1200 H 0.00634 0.38039 0.26427 0.0
H1201 H 0.12183 0.48454 0.23464 0.0
H1202 H 0.11604 0.4536 0.20418 0.0
H1203 H 0.06849 0.33199 0.22645 0.0
C1204 C 0.09134 0.39807 0.29462 0.0
C1205 C 0.10683 0.43535 0.30384 0.0
C1206 C 0.11885 0.47273 0.29387 0.0
C1207 C 0.11674 0.47265 0.27504 0.0
C1208 C 0.10193 0.43515 0.2664 0.0
C1209 C 0.08926 0.39859 0.27584 0.0
C1210 C 0.07546 0.36219 0.26325 0.0
C1211 C 0.10465 0.32171 0.26564 0.0
C1212 C 0.02712 0.35087 0.26592 0.0
C1213 C 0.08301 0.38376 0.24521 0.0
C1214 C 0.09811 0.42593 0.24738 0.0
C1215 C 0.10958 0.45177 0.23278 0.0
C1216 C 0.10623 0.43388 0.21554 0.0
C1217 C 0.09125 0.39065 0.21296 0.0
C1218 C 0.07891 0.36549 0.228 0.0
H1219 H 0.13142 0.05492 0.71778 0.0
H1220 H 0.09319 0.18571 0.70176 0.0
H1221 H 0.08037 0.2051 0.7334 0.0
H1222 H 0.05334 0.0434 0.75295 0.0
H1223 H 0.08932 0.01416 0.76783 0.0
H1224 H 0.09686 0.01039 0.74391 0.0
H1225 H 0.17669 0.03642 0.7472 0.0
H1226 H 0.16956 0.0397 0.77116 0.0
H1227 H 0.18782 0.08679 0.7588 0.0
H1228 H 0.07087 0.21056 0.76682 0.0
H1229 H 0.0686 0.2022 0.79972 0.0
H1230 H 0.11197 0.0679 0.79426 0.0
C1231 C 0.12137 0.0879 0.72093 0.0
C1232 C 0.11389 0.11893 0.70722 0.0
C1233 C 0.09923 0.16133 0.71199 0.0
C1234 C 0.09182 0.17273 0.72995 0.0
C1235 C 0.099 0.14136 0.74311 0.0
C1236 C 0.11367 0.09988 0.73887 0.0
C1237 C 0.11831 0.07227 0.75566 0.0
C1238 C 0.08762 0.03272 0.75504 0.0
C1239 C 0.16593 0.05797 0.75836 0.0
C1240 C 0.10411 0.10476 0.76991 0.0
C1241 C 0.09292 0.14436 0.76238 0.0
C1242 C 0.0792 0.17955 0.77288 0.0
C1243 C 0.07741 0.17431 0.7916 0.0
C1244 C 0.08909 0.13411 0.79966 0.0
C1245 C 0.10246 0.09898 0.78854 0.0
H1246 H 0.38682 0.04785 0.29838 0.0
H1247 H 0.36176 0.18335 0.31206 0.0
H1248 H 0.37541 0.20467 0.28073 0.0
H1249 H 0.4731 0.06767 0.26779 0.0
H1250 H 0.45777 0.02568 0.25209 0.0
H1251 H 0.44418 0.0201 0.2755 0.0
H1252 H 0.36266 0.01093 0.26738 0.0
H1253 H 0.37609 0.01587 0.24393 0.0
H1254 H 0.33607 0.05175 0.25381 0.0
H1255 H 0.3936 0.21215 0.24824 0.0
H1256 H 0.41167 0.20446 0.21617 0.0
H1257 H 0.42545 0.0645 0.22317 0.0
C1258 C 0.38305 0.08179 0.29471 0.0
C1259 C 0.37266 0.11383 0.3077 0.0
C1260 C 0.36963 0.15817 0.30237 0.0
C1261 C 0.37731 0.17068 0.28459 0.0
C1262 C 0.38811 0.13852 0.27219 0.0
C1263 C 0.39067 0.09495 0.27692 0.0
C1264 C 0.40363 0.06718 0.26091 0.0
C1265 C 0.44727 0.04379 0.26428 0.0
C1266 C 0.36745 0.03451 0.25623 0.0
C1267 C 0.40809 0.10203 0.24656 0.0
C1268 C 0.39911 0.14294 0.25338 0.0
C1269 C 0.40102 0.1803 0.24274 0.0
C1270 C 0.41196 0.17569 0.22455 0.0
C1271 C 0.42111 0.13405 0.2172 0.0
C1272 C 0.41903 0.09684 0.22843 0.0
H1273 H 0.41283 0.44832 0.79758 0.0
H1274 H 0.37657 0.31543 0.81076 0.0
H1275 H 0.35088 0.30441 0.7797 0.0
H1276 H 0.32258 0.4717 0.76885 0.0
H1277 H 0.35361 0.50324 0.75295 0.0
H1278 H 0.37048 0.5007 0.77608 0.0
H1279 H 0.44673 0.47282 0.7664 0.0
H1280 H 0.4303 0.47589 0.74324 0.0
H1281 H 0.45092 0.4253 0.75223 0.0
H1282 H 0.32666 0.30862 0.74771 0.0
H1283 H 0.31069 0.32529 0.71611 0.0
H1284 H 0.36437 0.45518 0.72307 0.0
C1285 C 0.39987 0.41677 0.79384 0.0
C1286 C 0.39751 0.38241 0.8065 0.0
C1287 C 0.37999 0.34175 0.80119 0.0
C1288 C 0.36479 0.33539 0.78362 0.0
C1289 C 0.36736 0.37 0.77152 0.0
C1290 C 0.3849 0.40976 0.77631 0.0
C1291 C 0.38426 0.44139 0.76062 0.0
C1292 C 0.35605 0.48164 0.76489 0.0
C1293 C 0.43082 0.45461 0.75531 0.0
C1294 C 0.36331 0.41328 0.74627 0.0
C1295 C 0.35361 0.37235 0.75294 0.0
C1296 C 0.33425 0.34051 0.74234 0.0
C1297 C 0.32529 0.3504 0.72437 0.0
C1298 C 0.33571 0.39178 0.717 0.0
C1299 C 0.35476 0.42372 0.72824 0.0
H1300 H 0.90864 0.55014 0.79693 0.0
H1301 H 0.89566 0.68951 0.80579 0.0
H1302 H 0.87563 0.69958 0.77401 0.0
H1303 H 0.95393 0.55731 0.75166 0.0
H1304 H 0.92493 0.50998 0.74377 0.0
H1305 H 0.94013 0.51413 0.76706 0.0
H1306 H 0.85949 0.5029 0.77621 0.0
H1307 H 0.84393 0.49944 0.75295 0.0
H1308 H 0.81828 0.53907 0.76741 0.0
H1309 H 0.8536 0.69428 0.74195 0.0
H1310 H 0.83651 0.67524 0.7107 0.0
H1311 H 0.865 0.53907 0.72203 0.0
C1312 C 0.9022 0.58283 0.79207 0.0
C1313 C 0.90479 0.61922 0.80371 0.0
C1314 C 0.89546 0.6614 0.797 0.0
C1315 C 0.88345 0.66735 0.77901 0.0
C1316 C 0.88085 0.63077 0.76795 0.0
C1317 C 0.89041 0.58937 0.77412 0.0
C1318 C 0.88497 0.55562 0.75937 0.0
C1319 C 0.92859 0.53293 0.75522 0.0
C1320 C 0.84956 0.52229 0.76429 0.0
C1321 C 0.87052 0.58453 0.74397 0.0
C1322 C 0.86816 0.62769 0.74931 0.0
C1323 C 0.85552 0.66064 0.73759 0.0
C1324 C 0.84586 0.64939 0.71985 0.0
C1325 C 0.8489 0.60554 0.71385 0.0
C1326 C 0.86115 0.57265 0.72619 0.0
H1327 H 0.86775 0.78421 0.22657 0.0
H1328 H 0.96267 0.88282 0.21216 0.0
H1329 H 0.95526 0.9156 0.24228 0.0
H1330 H 0.79715 0.85512 0.2499 0.0
H1331 H 0.78231 0.8157 0.26676 0.0
H1332 H 0.79825 0.79765 0.24472 0.0
H1333 H 0.85862 0.74871 0.25849 0.0
H1334 H 0.84238 0.76605 0.2806 0.0
H1335 H 0.8981 0.77252 0.27345 0.0
H1336 H 0.93436 0.93933 0.27427 0.0
H1337 H 0.90492 0.94913 0.30485 0.0
H1338 H 0.82036 0.83758 0.29688 0.0
C1339 C 0.88762 0.81229 0.2298 0.0
C1340 C 0.91662 0.83014 0.21704 0.0
C1341 C 0.94144 0.86733 0.2218 0.0
C1342 C 0.93695 0.88665 0.23886 0.0
C1343 C 0.9073 0.8686 0.25095 0.0
C1344 C 0.88328 0.83204 0.24661 0.0
C1345 C 0.85246 0.81959 0.26158 0.0
C1346 C 0.80473 0.82219 0.25536 0.0
C1347 C 0.86357 0.77403 0.26897 0.0
C1348 C 0.86266 0.85491 0.27509 0.0
C1349 C 0.89435 0.88295 0.26881 0.0
C1350 C 0.90924 0.91773 0.27922 0.0
C1351 C 0.89177 0.92347 0.29654 0.0
C1352 C 0.85943 0.8948 0.30324 0.0
C1353 C 0.84475 0.86037 0.29218 0.0
H1354 H 0.53399 0.9453 0.79632 0.0
H1355 H 0.62961 0.84807 0.81167 0.0
H1356 H 0.65918 0.84813 0.78065 0.0
H1357 H 0.51287 0.89987 0.75203 0.0
H1358 H 0.50501 0.95273 0.74191 0.0
H1359 H 0.49238 0.94471 0.76528 0.0
H1360 H 0.54405 0.00836 0.77356 0.0
H1361 H 0.55743 0.01605 0.75024 0.0
H1362 H 0.60013 0.00647 0.76637 0.0
H1363 H 0.68085 0.86287 0.74807 0.0
H1364 H 0.68525 0.882 0.71575 0.0
H1365 H 0.57183 0.96529 0.72156 0.0
C1366 C 0.56083 0.9237 0.79304 0.0
C1367 C 0.57947 0.89646 0.80623 0.0
C1368 C 0.61461 0.86867 0.8016 0.0
C1369 C 0.6318 0.86884 0.78409 0.0
C1370 C 0.61304 0.89659 0.77139 0.0
C1371 C 0.57768 0.92278 0.77558 0.0
C1372 C 0.56224 0.94831 0.75939 0.0
C1373 C 0.51535 0.93563 0.75435 0.0
C1374 C 0.56622 0.99772 0.76259 0.0
C1375 C 0.59459 0.93274 0.74542 0.0
C1376 C 0.62416 0.9035 0.75263 0.0
C1377 C 0.65769 0.88553 0.74229 0.0
C1378 C 0.66025 0.89686 0.72402 0.0
C1379 C 0.62908 0.92529 0.7163 0.0
C1380 C 0.59616 0.9436 0.7272 0.0
H1381 H 0.56953 0.63081 0.2263 0.0
H1382 H 0.70253 0.60358 0.20986 0.0
H1383 H 0.72415 0.59575 0.24152 0.0
H1384 H 0.59698 0.69309 0.26678 0.0
H1385 H 0.55236 0.67095 0.27957 0.0
H1386 H 0.54768 0.67653 0.25558 0.0
H1387 H 0.52948 0.59428 0.25302 0.0
H1388 H 0.53457 0.58836 0.27698 0.0
H1389 H 0.56671 0.55454 0.26221 0.0
H1390 H 0.73151 0.5892 0.27494 0.0
H1391 H 0.72402 0.58589 0.30784 0.0
H1392 H 0.58617 0.61561 0.30293 0.0
C1393 C 0.60337 0.62429 0.22937 0.0
C1394 C 0.63444 0.61841 0.21553 0.0
C1395 C 0.67813 0.60834 0.22019 0.0
C1396 C 0.6908 0.60386 0.23816 0.0
C1397 C 0.6594 0.60929 0.25145 0.0
C1398 C 0.61662 0.61944 0.24733 0.0
C1399 C 0.58919 0.62223 0.26425 0.0
C1400 C 0.57046 0.66846 0.26669 0.0
C1401 C 0.55284 0.5878 0.2641 0.0
C1402 C 0.62323 0.61197 0.27844 0.0
C1403 C 0.66351 0.60462 0.27076 0.0
C1404 C 0.70002 0.59456 0.28112 0.0
C1405 C 0.69532 0.59213 0.29985 0.0
C1406 C 0.65432 0.59937 0.30807 0.0
C1407 C 0.61796 0.6096 0.2971 0.0
H1408 H 0.34792 0.18424 0.09 0.0
H1409 H 0.34123 0.0959 0.13528 0.0
H1410 H 0.26301 0.11157 0.13854 0.0
H1411 H 0.29302 0.26309 0.10773 0.0
H1412 H 0.26196 0.28176 0.08869 0.0
H1413 H 0.3126 0.25354 0.08524 0.0
H1414 H 0.27488 0.19542 0.0655 0.0
H1415 H 0.22404 0.22437 0.06819 0.0
H1416 H 0.22754 0.16731 0.07388 0.0
H1417 H 0.19588 0.15266 0.14308 0.0
H1418 H 0.13638 0.20666 0.14477 0.0
H1419 H 0.18325 0.26793 0.09601 0.0
C1420 C 0.32919 0.16604 0.09977 0.0
C1421 C 0.35015 0.13863 0.1123 0.0
C1422 C 0.32538 0.11667 0.12548 0.0
C1423 C 0.28099 0.12547 0.12745 0.0
C1424 C 0.26194 0.15584 0.11597 0.0
C1425 C 0.28472 0.1748 0.10196 0.0
C1426 C 0.25841 0.21115 0.09333 0.0
C1427 C 0.28298 0.25493 0.0938 0.0
C1428 C 0.24544 0.19881 0.07408 0.0
C1429 C 0.21912 0.21192 0.1056 0.0
C1430 C 0.22166 0.17941 0.11843 0.0
C1431 C 0.19257 0.17722 0.13274 0.0
C1432 C 0.15941 0.20845 0.13376 0.0
C1433 C 0.15549 0.24121 0.1205 0.0
C1434 C 0.18542 0.24272 0.10615 0.0
H1435 H 0.23309 0.35449 0.63418 0.0
H1436 H 0.28498 0.37127 0.58045 0.0
H1437 H 0.24661 0.30426 0.57073 0.0
H1438 H 0.2465 0.24441 0.63708 0.0
H1439 H 0.19712 0.23451 0.64952 0.0
H1440 H 0.22341 0.28658 0.65107 0.0
H1441 H 0.15161 0.32459 0.64116 0.0
H1442 H 0.12527 0.27226 0.63937 0.0
H1443 H 0.12601 0.30876 0.62041 0.0
H1444 H 0.2116 0.23031 0.56839 0.0
H1445 H 0.18681 0.15498 0.57396 0.0
H1446 H 0.15506 0.18998 0.62889 0.0
C1447 C 0.23613 0.34438 0.6203 0.0
C1448 C 0.26228 0.36763 0.60808 0.0
C1449 C 0.26512 0.35365 0.59002 0.0
C1450 C 0.24318 0.31595 0.58436 0.0
C1451 C 0.21787 0.29351 0.59687 0.0
C1452 C 0.21408 0.3075 0.61444 0.0
C1453 C 0.18833 0.27596 0.62575 0.0
C1454 C 0.21547 0.25938 0.64178 0.0
C1455 C 0.14524 0.29664 0.63204 0.0
C1456 C 0.18047 0.24051 0.61209 0.0
C1457 C 0.19681 0.25151 0.59539 0.0
C1458 C 0.19779 0.22169 0.58127 0.0
C1459 C 0.18358 0.17897 0.58456 0.0
C1460 C 0.16916 0.16666 0.60189 0.0
C1461 C 0.16561 0.19849 0.61547 0.0
H1462 H 0.20094 0.18367 0.92619 0.0
H1463 H 0.20209 0.15589 0.86904 0.0
H1464 H 0.26498 0.20433 0.86521 0.0
H1465 H 0.21982 0.29027 0.924 0.0
H1466 H 0.25689 0.29592 0.9426 0.0
H1467 H 0.21832 0.25187 0.94232 0.0
H1468 H 0.28017 0.19474 0.9455 0.0
H1469 H 0.31901 0.23867 0.94664 0.0
H1470 H 0.32565 0.19606 0.93018 0.0
H1471 H 0.31273 0.26787 0.86612 0.0
H1472 H 0.36083 0.32937 0.87282 0.0
H1473 H 0.33506 0.3136 0.92981 0.0
C1474 C 0.21588 0.18602 0.91306 0.0
C1475 C 0.19647 0.16647 0.89788 0.0
C1476 C 0.21634 0.17088 0.88082 0.0
C1477 C 0.25197 0.19842 0.87849 0.0
C1478 C 0.26791 0.22031 0.89343 0.0
C1479 C 0.25198 0.21312 0.91052 0.0
C1480 C 0.27371 0.24304 0.92403 0.0
C1481 C 0.24016 0.27197 0.93381 0.0
C1482 C 0.30129 0.21655 0.93737 0.0
C1483 C 0.30218 0.2698 0.91163 0.0
C1484 C 0.29793 0.25616 0.89405 0.0
C1485 C 0.31745 0.27811 0.87988 0.0
C1486 C 0.34403 0.31363 0.88384 0.0
C1487 C 0.35151 0.32638 0.90187 0.0
C1488 C 0.32977 0.30455 0.91593 0.0
H1489 H 0.20117 0.33404 0.42809 0.0
H1490 H 0.11824 0.32204 0.38126 0.0
H1491 H 0.13384 0.24322 0.38007 0.0
H1492 H 0.28213 0.27431 0.41248 0.0
H1493 H 0.29806 0.24722 0.43292 0.0
H1494 H 0.27086 0.29909 0.43395 0.0
H1495 H 0.21048 0.26655 0.45415 0.0
H1496 H 0.23804 0.2145 0.45358 0.0
H1497 H 0.1817 0.21844 0.44694 0.0
H1498 H 0.17085 0.17315 0.3792 0.0
H1499 H 0.22395 0.11306 0.37975 0.0
H1500 H 0.28446 0.16825 0.42717 0.0
C1501 C 0.1846 0.31433 0.41817 0.0
C1502 C 0.15822 0.33378 0.40486 0.0
C1503 C 0.13833 0.30751 0.39162 0.0
C1504 C 0.14685 0.26274 0.39091 0.0
C1505 C 0.17514 0.2449 0.40357 0.0
C1506 C 0.19329 0.26964 0.41715 0.0
C1507 C 0.22801 0.24418 0.4272 0.0
C1508 C 0.27235 0.2676 0.42658 0.0
C1509 C 0.21369 0.23539 0.44662 0.0
C1510 C 0.22872 0.20252 0.41631 0.0
C1511 C 0.19722 0.20341 0.40302 0.0
C1512 C 0.19477 0.17142 0.38984 0.0
C1513 C 0.22544 0.13779 0.39013 0.0
C1514 C 0.25814 0.13635 0.40351 0.0
C1515 C 0.25924 0.16848 0.41702 0.0
H1516 H 0.80182 0.70204 0.92155 0.0
H1517 H 0.8502 0.74285 0.86942 0.0
H1518 H 0.79748 0.80352 0.86916 0.0
H1519 H 0.69047 0.7211 0.91151 0.0
H1520 H 0.67688 0.73893 0.93389 0.0
H1521 H 0.7214 0.70163 0.93046 0.0
H1522 H 0.77227 0.75529 0.94737 0.0
H1523 H 0.72794 0.79342 0.95022 0.0
H1524 H 0.7776 0.81059 0.93944 0.0
H1525 H 0.73914 0.85783 0.87384 0.0
H1526 H 0.66756 0.89137 0.87962 0.0
H1527 H 0.65513 0.81486 0.92833 0.0
C1528 C 0.80118 0.72372 0.91007 0.0
C1529 C 0.83008 0.71781 0.89553 0.0
C1530 C 0.82807 0.74653 0.88066 0.0
C1531 C 0.7988 0.78157 0.88052 0.0
C1532 C 0.77164 0.78728 0.8953 0.0
C1533 C 0.77172 0.75856 0.90959 0.0
C1534 C 0.73574 0.7692 0.92278 0.0
C1535 C 0.70426 0.73044 0.92476 0.0
C1536 C 0.75453 0.78294 0.94103 0.0
C1537 C 0.71451 0.8075 0.91333 0.0
C1538 C 0.73672 0.81825 0.89781 0.0
C1539 C 0.72159 0.85005 0.88602 0.0
C1540 C 0.68102 0.86911 0.88947 0.0
C1541 C 0.65586 0.8556 0.9044 0.0
C1542 C 0.67403 0.82647 0.91704 0.0
H1543 H 0.64025 0.69643 0.39002 0.0
H1544 H 0.65845 0.66413 0.44615 0.0
H1545 H 0.68628 0.73811 0.45182 0.0
H1546 H 0.73347 0.74041 0.38384 0.0
H1547 H 0.7186 0.78439 0.36898 0.0
H1548 H 0.68521 0.73664 0.37013 0.0
H1549 H 0.61743 0.78318 0.37835 0.0
H1550 H 0.6503 0.83166 0.37654 0.0
H1551 H 0.62015 0.82108 0.39682 0.0
H1552 H 0.73054 0.80638 0.44965 0.0
H1553 H 0.7803 0.86568 0.44015 0.0
H1554 H 0.73521 0.85074 0.38533 0.0
C1555 C 0.64795 0.70571 0.40368 0.0
C1556 C 0.64755 0.67462 0.41759 0.0
C1557 C 0.65828 0.68758 0.43528 0.0
C1558 C 0.67422 0.7296 0.43864 0.0
C1559 C 0.67826 0.75829 0.42423 0.0
C1560 C 0.66417 0.74728 0.40716 0.0
C1561 C 0.67858 0.78041 0.39339 0.0
C1562 C 0.70557 0.75916 0.37823 0.0
C1563 C 0.63927 0.80558 0.38584 0.0
C1564 C 0.70626 0.80937 0.40507 0.0
C1565 C 0.7047 0.79718 0.4229 0.0
C1566 C 0.7311 0.81696 0.4358 0.0
C1567 C 0.75957 0.85018 0.43029 0.0
C1568 C 0.76199 0.86223 0.41199 0.0
C1569 C 0.73447 0.8419 0.39939 0.0
H1570 H 0.82387 0.79064 0.09326 0.0
H1571 H 0.89374 0.68879 0.12143 0.0
H1572 H 0.834 0.63731 0.11552 0.0
H1573 H 0.72876 0.77328 0.11166 0.0
H1574 H 0.69434 0.78323 0.09248 0.0
H1575 H 0.7474 0.80722 0.09344 0.0
H1576 H 0.76709 0.77132 0.06298 0.0
H1577 H 0.71374 0.74689 0.06201 0.0
H1578 H 0.76175 0.71313 0.06027 0.0
H1579 H 0.76237 0.60535 0.11498 0.0
H1580 H 0.68361 0.59562 0.11993 0.0
H1581 H 0.65752 0.7149 0.09075 0.0
C1582 C 0.82698 0.7569 0.09739 0.0
C1583 C 0.86289 0.74311 0.10764 0.0
C1584 C 0.86611 0.69944 0.11348 0.0
C1585 C 0.83262 0.66995 0.11001 0.0
C1586 C 0.7963 0.68472 0.10059 0.0
C1587 C 0.79337 0.72707 0.09414 0.0
C1588 C 0.74784 0.73695 0.08745 0.0
C1589 C 0.72848 0.7775 0.09684 0.0
C1590 C 0.74761 0.74238 0.06695 0.0
C1591 C 0.72474 0.69539 0.09293 0.0
C1592 C 0.75368 0.66504 0.09987 0.0
C1593 C 0.73948 0.62784 0.10891 0.0
C1594 C 0.69477 0.62255 0.11172 0.0
C1595 C 0.665 0.65406 0.10533 0.0
C1596 C 0.6799 0.68958 0.09505 0.0
H1597 H 0.6774 0.82564 0.59029 0.0
H1598 H 0.60757 0.82463 0.64084 0.0
H1599 H 0.6181 0.74507 0.64295 0.0
H1600 H 0.64828 0.70749 0.57528 0.0
H1601 H 0.70256 0.70053 0.56647 0.0
H1602 H 0.67637 0.75326 0.5655 0.0
H1603 H 0.74239 0.78698 0.58198 0.0
H1604 H 0.76827 0.73458 0.58349 0.0
H1605 H 0.75815 0.76575 0.6036 0.0
H1606 H 0.65199 0.67346 0.644 0.0
H1607 H 0.7041 0.61258 0.64336 0.0
H1608 H 0.75523 0.6585 0.59248 0.0
C1609 C 0.66216 0.80816 0.60123 0.0
C1610 C 0.6412 0.83084 0.61529 0.0
C1611 C 0.6233 0.80752 0.62987 0.0
C1612 C 0.62901 0.76235 0.63111 0.0
C1613 C 0.65267 0.74123 0.61768 0.0
C1614 C 0.66847 0.76318 0.60283 0.0
C1615 C 0.69988 0.73496 0.59217 0.0
C1616 C 0.68061 0.72336 0.57376 0.0
C1617 C 0.74479 0.75689 0.59023 0.0
C1618 C 0.70213 0.69525 0.60418 0.0
C1619 C 0.67359 0.69909 0.6185 0.0
C1620 C 0.67356 0.66947 0.63262 0.0
C1621 C 0.70374 0.63537 0.63225 0.0
C1622 C 0.73377 0.63122 0.6179 0.0
C1623 C 0.73217 0.6608 0.60345 0.0
loop_
_geom_bond_atom_site_label_1
_geom_bond_atom_site_label_2
_geom_bond_distance
_geom_bond_site_symmetry_2
_ccdc_geom_bond_type
Co0 O3 1.970 . S
Co0 N17 1.989 . S
Co0 O25 1.967 . S
Co0 O32 1.920 . S
Co1 O4 1.966 . S
Co1 N10 2.022 . S
Co1 N18 1.993 . S
Co1 O26 1.941 . S
C2 O3 1.258 . S
C2 O4 1.263 . S
O3 Co0 1.970 . S
O3 C2 1.258 . S
O4 Co1 1.966 . S
O4 C2 1.263 . S
C5 O6 1.235 1_455 S
C5 O32 1.289 . S
O6 C5 1.235 1_655 S
C7 C9 1.400 . S
C7 N10 1.351 . S
C7 C12 1.501 . S
C8 C9 1.387 . S
C8 N11 1.341 . S
C9 C7 1.400 . S
C9 C8 1.387 . S
N10 Co1 2.022 . S
N10 C7 1.351 . S
N10 N11 1.365 . S
N11 C8 1.341 . S
N11 N10 1.365 . S
N11 H31 0.862 . S
C12 C7 1.501 . S
C12 H13 0.961 . S
C12 H14 0.961 1_455 S
C12 H15 0.960 . S
H13 C12 0.961 . S
H14 C12 0.961 1_655 S
H15 C12 0.960 . S
C16 N17 1.342 . S
C16 C20 1.401 . S
C16 C21 1.499 . S
N17 Co0 1.989 . S
N17 C16 1.342 . S
N17 N18 1.388 . S
N18 Co1 1.993 . S
N18 N17 1.388 . S
N18 C19 1.346 . S
C19 N18 1.346 . S
C19 C20 1.396 . S
C19 C29 1.510 . S
C20 C16 1.401 . S
C20 C19 1.396 . S
C21 C16 1.499 . S
C21 H22 0.959 . S
C21 H23 0.960 . S
C21 H24 0.961 . S
H22 C21 0.959 . S
H23 C21 0.960 . S
H24 C21 0.961 . S
O25 Co0 1.967 . S
O25 C33 1.258 . S
O26 Co1 1.941 . S
O26 C33 1.266 . S
H27 C29 0.959 . S
H28 C29 0.961 . S
C29 C19 1.510 . S
C29 H27 0.959 . S
C29 H28 0.961 . S
C29 H30 0.960 . S
H30 C29 0.960 . S
H31 N11 0.862 . S
O32 Co0 1.920 . S
O32 C5 1.289 . S
C33 O25 1.258 . S
C33 O26 1.266 . S
Co34 O37 1.970 . S
Co34 N51 1.989 . S
Co34 O59 1.967 . S
Co34 O66 1.920 . S
Co35 O38 1.966 . S
Co35 N44 2.022 . S
Co35 N52 1.993 . S
Co35 O60 1.941 . S
C36 O37 1.258 . S
C36 O38 1.263 . S
O37 Co34 1.970 . S
O37 C36 1.258 . S
O38 Co35 1.966 . S
O38 C36 1.263 . S
C39 O40 1.235 1_545 S
C39 O66 1.289 . S
O40 C39 1.235 1_565 S
C41 C43 1.400 . S
C41 N44 1.351 . S
C41 C46 1.501 . S
C42 C43 1.387 . S
C42 N45 1.341 . S
C43 C41 1.400 . S
C43 C42 1.387 . S
N44 Co35 2.022 . S
N44 C41 1.351 . S
N44 N45 1.365 . S
N45 C42 1.341 . S
N45 N44 1.365 . S
N45 H65 0.862 . S
C46 C41 1.501 . S
C46 H47 0.961 . S
C46 H48 0.961 1_545 S
C46 H49 0.960 . S
H47 C46 0.961 . S
H48 C46 0.961 1_565 S
H49 C46 0.960 . S
C50 N51 1.342 . S
C50 C54 1.401 . S
C50 C55 1.499 . S
N51 Co34 1.989 . S
N51 C50 1.342 . S
N51 N52 1.388 . S
N52 Co35 1.993 . S
N52 N51 1.388 . S
N52 C53 1.346 . S
C53 N52 1.346 . S
C53 C54 1.396 . S
C53 C63 1.510 . S
C54 C50 1.401 . S
C54 C53 1.396 . S
C55 C50 1.499 . S
C55 H56 0.959 . S
C55 H57 0.960 . S
C55 H58 0.961 . S
H56 C55 0.959 . S
H57 C55 0.960 . S
H58 C55 0.961 . S
O59 Co34 1.967 . S
O59 C67 1.258 . S
O60 Co35 1.941 . S
O60 C67 1.266 . S
H61 C63 0.959 . S
H62 C63 0.961 . S
C63 C53 1.510 . S
C63 H61 0.959 . S
C63 H62 0.961 . S
C63 H64 0.960 . S
H64 C63 0.960 . S
H65 N45 0.862 . S
O66 Co34 1.920 . S
O66 C39 1.289 . S
C67 O59 1.258 . S
C67 O60 1.266 . S
Co68 O71 1.970 . S
Co68 N85 1.989 . S
Co68 O93 1.967 . S
Co68 O100 1.920 . S
Co69 O72 1.966 . S
Co69 N78 2.022 . S
Co69 N86 1.993 . S
Co69 O94 1.941 . S
C70 O71 1.258 . S
C70 O72 1.263 . S
O71 Co68 1.970 . S
O71 C70 1.258 . S
O72 Co69 1.966 . S
O72 C70 1.263 . S
C73 O74 1.235 . S
C73 O100 1.289 . S
O74 C73 1.235 . S
C75 C77 1.400 . S
C75 N78 1.351 . S
C75 C80 1.501 . S
C76 C77 1.387 . S
C76 N79 1.341 . S
C77 C75 1.400 . S
C77 C76 1.387 . S
N78 Co69 2.022 . S
N78 C75 1.351 . S
N78 N79 1.365 . S
N79 C76 1.341 . S
N79 N78 1.365 . S
N79 H99 0.862 . S
C80 C75 1.501 . S
C80 H81 0.961 . S
C80 H82 0.961 . S
C80 H83 0.960 . S
H81 C80 0.961 . S
H82 C80 0.961 . S
H83 C80 0.960 . S
C84 N85 1.342 . S
C84 C88 1.401 . S
C84 C89 1.499 . S
N85 Co68 1.989 . S
N85 C84 1.342 . S
N85 N86 1.388 . S
N86 Co69 1.993 . S
N86 N85 1.388 . S
N86 C87 1.346 . S
C87 N86 1.346 . S
C87 C88 1.396 . S
C87 C97 1.510 . S
C88 C84 1.401 . S
C88 C87 1.396 . S
C89 C84 1.499 . S
C89 H90 0.959 . S
C89 H91 0.960 . S
C89 H92 0.961 . S
H90 C89 0.959 . S
H91 C89 0.960 . S
H92 C89 0.961 . S
O93 Co68 1.967 . S
O93 C101 1.258 . S
O94 Co69 1.941 . S
O94 C101 1.266 . S
H95 C97 0.959 . S
H96 C97 0.961 . S
C97 C87 1.510 . S
C97 H95 0.959 . S
C97 H96 0.961 . S
C97 H98 0.960 . S
H98 C97 0.960 . S
H99 N79 0.862 . S
O100 Co68 1.920 . S
O100 C73 1.289 . S
C101 O93 1.258 . S
C101 O94 1.266 . S
Co102 O105 1.970 . S
Co102 N119 1.989 . S
Co102 O127 1.967 . S
Co102 O134 1.920 . S
Co103 O106 1.966 . S
Co103 N112 2.022 . S
Co103 N120 1.993 . S
Co103 O128 1.941 . S
C104 O105 1.258 . S
C104 O106 1.263 . S
O105 Co102 1.970 . S
O105 C104 1.258 . S
O106 Co103 1.966 . S
O106 C104 1.263 . S
C107 O108 1.235 . S
C107 O134 1.289 . S
O108 C107 1.235 . S
C109 C111 1.400 . S
C109 N112 1.351 . S
C109 C114 1.501 . S
C110 C111 1.387 . S
C110 N113 1.341 . S
C111 C109 1.400 . S
C111 C110 1.387 . S
N112 Co103 2.022 . S
N112 C109 1.351 . S
N112 N113 1.365 . S
N113 C110 1.341 . S
N113 N112 1.365 . S
N113 H133 0.862 . S
C114 C109 1.501 . S
C114 H115 0.961 . S
C114 H116 0.961 . S
C114 H117 0.960 . S
H115 C114 0.961 . S
H116 C114 0.961 . S
H117 C114 0.960 . S
C118 N119 1.342 . S
C118 C122 1.401 . S
C118 C123 1.499 . S
N119 Co102 1.989 . S
N119 C118 1.342 . S
N119 N120 1.388 . S
N120 Co103 1.993 . S
N120 N119 1.388 . S
N120 C121 1.346 . S
C121 N120 1.346 . S
C121 C122 1.396 . S
C121 C131 1.510 . S
C122 C118 1.401 . S
C122 C121 1.396 . S
C123 C118 1.499 . S
C123 H124 0.959 . S
C123 H125 0.960 . S
C123 H126 0.961 . S
H124 C123 0.959 . S
H125 C123 0.960 . S
H126 C123 0.961 . S
O127 Co102 1.967 . S
O127 C135 1.258 . S
O128 Co103 1.941 . S
O128 C135 1.266 . S
H129 C131 0.959 . S
H130 C131 0.961 . S
C131 C121 1.510 . S
C131 H129 0.959 . S
C131 H130 0.961 . S
C131 H132 0.960 . S
H132 C131 0.960 . S
H133 N113 0.862 . S
O134 Co102 1.920 . S
O134 C107 1.289 . S
C135 O127 1.258 . S
C135 O128 1.266 . S
Co136 O139 1.970 . S
Co136 N153 1.989 . S
Co136 O161 1.967 . S
Co136 O168 1.920 . S
Co137 O140 1.966 . S
Co137 N146 2.022 . S
Co137 N154 1.993 . S
Co137 O162 1.941 . S
C138 O139 1.258 . S
C138 O140 1.263 . S
O139 Co136 1.970 . S
O139 C138 1.258 . S
O140 Co137 1.966 . S
O140 C138 1.263 . S
C141 O142 1.235 1_455 S
C141 O168 1.289 . S
O142 C141 1.235 1_655 S
C143 C145 1.400 . S
C143 N146 1.351 . S
C143 C148 1.501 . S
C144 C145 1.387 . S
C144 N147 1.341 . S
C145 C143 1.400 . S
C145 C144 1.387 . S
N146 Co137 2.022 . S
N146 C143 1.351 . S
N146 N147 1.365 . S
N147 C144 1.341 . S
N147 N146 1.365 . S
N147 H167 0.862 . S
C148 C143 1.501 . S
C148 H149 0.961 . S
C148 H150 0.961 1_455 S
C148 H151 0.960 . S
H149 C148 0.961 . S
H150 C148 0.961 1_655 S
H151 C148 0.960 . S
C152 N153 1.342 . S
C152 C156 1.401 . S
C152 C157 1.499 . S
N153 Co136 1.989 . S
N153 C152 1.342 . S
N153 N154 1.388 . S
N154 Co137 1.993 . S
N154 N153 1.388 . S
N154 C155 1.346 . S
C155 N154 1.346 . S
C155 C156 1.396 . S
C155 C165 1.510 . S
C156 C152 1.401 . S
C156 C155 1.396 . S
C157 C152 1.499 . S
C157 H158 0.959 . S
C157 H159 0.960 . S
C157 H160 0.961 . S
H158 C157 0.959 . S
H159 C157 0.960 . S
H160 C157 0.961 . S
O161 Co136 1.967 . S
O161 C169 1.258 . S
O162 Co137 1.941 . S
O162 C169 1.266 . S
H163 C165 0.959 . S
H164 C165 0.961 . S
C165 C155 1.510 . S
C165 H163 0.959 . S
C165 H164 0.961 . S
C165 H166 0.960 . S
H166 C165 0.960 . S
H167 N147 0.862 . S
O168 Co136 1.920 . S
O168 C141 1.289 . S
C169 O161 1.258 . S
C169 O162 1.266 . S
Co170 O173 1.970 . S
Co170 N187 1.989 . S
Co170 O195 1.967 . S
Co170 O202 1.920 . S
Co171 O174 1.966 . S
Co171 N180 2.022 . S
Co171 N188 1.993 . S
Co171 O196 1.941 . S
C172 O173 1.258 . S
C172 O174 1.263 . S
O173 Co170 1.970 . S
O173 C172 1.258 . S
O174 Co171 1.966 . S
O174 C172 1.263 . S
C175 O176 1.235 1_545 S
C175 O202 1.289 . S
O176 C175 1.235 1_565 S
C177 C179 1.400 . S
C177 N180 1.351 . S
C177 C182 1.501 . S
C178 C179 1.387 . S
C178 N181 1.341 . S
C179 C177 1.400 . S
C179 C178 1.387 . S
N180 Co171 2.022 . S
N180 C177 1.351 . S
N180 N181 1.365 . S
N181 C178 1.341 . S
N181 N180 1.365 . S
N181 H201 0.862 . S
C182 C177 1.501 . S
C182 H183 0.961 . S
C182 H184 0.961 1_545 S
C182 H185 0.960 . S
H183 C182 0.961 . S
H184 C182 0.961 1_565 S
H185 C182 0.960 . S
C186 N187 1.342 . S
C186 C190 1.401 . S
C186 C191 1.499 . S
N187 Co170 1.989 . S
N187 C186 1.342 . S
N187 N188 1.388 . S
N188 Co171 1.993 . S
N188 N187 1.388 . S
N188 C189 1.346 . S
C189 N188 1.346 . S
C189 C190 1.396 . S
C189 C199 1.510 . S
C190 C186 1.401 . S
C190 C189 1.396 . S
C191 C186 1.499 . S
C191 H192 0.959 . S
C191 H193 0.960 . S
C191 H194 0.961 . S
H192 C191 0.959 . S
H193 C191 0.960 . S
H194 C191 0.961 . S
O195 Co170 1.967 . S
O195 C203 1.258 . S
O196 Co171 1.941 . S
O196 C203 1.266 . S
H197 C199 0.959 . S
H198 C199 0.961 . S
C199 C189 1.510 . S
C199 H197 0.959 . S
C199 H198 0.961 . S
C199 H200 0.960 . S
H200 C199 0.960 . S
H201 N181 0.862 . S
O202 Co170 1.920 . S
O202 C175 1.289 . S
C203 O195 1.258 . S
C203 O196 1.266 . S
Co204 O207 1.970 . S
Co204 N221 1.989 . S
Co204 O229 1.967 . S
Co204 O236 1.920 . S
Co205 O208 1.966 . S
Co205 N214 2.022 . S
Co205 N222 1.993 . S
Co205 O230 1.941 . S
C206 O207 1.258 . S
C206 O208 1.263 . S
O207 Co204 1.970 . S
O207 C206 1.258 . S
O208 Co205 1.966 . S
O208 C206 1.263 . S
C209 O210 1.235 . S
C209 O236 1.289 . S
O210 C209 1.235 . S
C211 C213 1.400 . S
C211 N214 1.351 . S
C211 C216 1.501 . S
C212 C213 1.387 . S
C212 N215 1.341 . S
C213 C211 1.400 . S
C213 C212 1.387 . S
N214 Co205 2.022 . S
N214 C211 1.351 . S
N214 N215 1.365 . S
N215 C212 1.341 . S
N215 N214 1.365 . S
N215 H235 0.862 . S
C216 C211 1.501 . S
C216 H217 0.961 . S
C216 H218 0.961 . S
C216 H219 0.960 . S
H217 C216 0.961 . S
H218 C216 0.961 . S
H219 C216 0.960 . S
C220 N221 1.342 . S
C220 C224 1.401 . S
C220 C225 1.499 . S
N221 Co204 1.989 . S
N221 C220 1.342 . S
N221 N222 1.388 . S
N222 Co205 1.993 . S
N222 N221 1.388 . S
N222 C223 1.346 . S
C223 N222 1.346 . S
C223 C224 1.396 . S
C223 C233 1.510 . S
C224 C220 1.401 . S
C224 C223 1.396 . S
C225 C220 1.499 . S
C225 H226 0.959 . S
C225 H227 0.960 . S
C225 H228 0.961 . S
H226 C225 0.959 . S
H227 C225 0.960 . S
H228 C225 0.961 . S
O229 Co204 1.967 . S
O229 C237 1.258 . S
O230 Co205 1.941 . S
O230 C237 1.266 . S
H231 C233 0.959 . S
H232 C233 0.961 . S
C233 C223 1.510 . S
C233 H231 0.959 . S
C233 H232 0.961 . S
C233 H234 0.960 . S
H234 C233 0.960 . S
H235 N215 0.862 . S
O236 Co204 1.920 . S
O236 C209 1.289 . S
C237 O229 1.258 . S
C237 O230 1.266 . S
Co238 O241 1.970 . S
Co238 N255 1.989 . S
Co238 O263 1.967 . S
Co238 O270 1.920 . S
Co239 O242 1.966 . S
Co239 N248 2.022 . S
Co239 N256 1.993 . S
Co239 O264 1.941 . S
C240 O241 1.258 . S
C240 O242 1.263 . S
O241 Co238 1.970 . S
O241 C240 1.258 . S
O242 Co239 1.966 . S
O242 C240 1.263 . S
C243 O244 1.235 . S
C243 O270 1.289 . S
O244 C243 1.235 . S
C245 C247 1.400 . S
C245 N248 1.351 . S
C245 C250 1.501 . S
C246 C247 1.387 . S
C246 N249 1.341 . S
C247 C245 1.400 . S
C247 C246 1.387 . S
N248 Co239 2.022 . S
N248 C245 1.351 . S
N248 N249 1.365 . S
N249 C246 1.341 . S
N249 N248 1.365 . S
N249 H269 0.862 . S
C250 C245 1.501 . S
C250 H251 0.961 . S
C250 H252 0.961 . S
C250 H253 0.960 . S
H251 C250 0.961 . S
H252 C250 0.961 . S
H253 C250 0.960 . S
C254 N255 1.342 . S
C254 C258 1.401 . S
C254 C259 1.499 . S
N255 Co238 1.989 . S
N255 C254 1.342 . S
N255 N256 1.388 . S
N256 Co239 1.993 . S
N256 N255 1.388 . S
N256 C257 1.346 . S
C257 N256 1.346 . S
C257 C258 1.396 . S
C257 C267 1.510 . S
C258 C254 1.401 . S
C258 C257 1.396 . S
C259 C254 1.499 . S
C259 H260 0.959 . S
C259 H261 0.960 . S
C259 H262 0.961 . S
H260 C259 0.959 . S
H261 C259 0.960 . S
H262 C259 0.961 . S
O263 Co238 1.967 . S
O263 C271 1.258 . S
O264 Co239 1.941 . S
O264 C271 1.266 . S
H265 C267 0.959 . S
H266 C267 0.961 . S
C267 C257 1.510 . S
C267 H265 0.959 . S
C267 H266 0.961 . S
C267 H268 0.960 . S
H268 C267 0.960 . S
H269 N249 0.862 . S
O270 Co238 1.920 . S
O270 C243 1.289 . S
C271 O263 1.258 . S
C271 O264 1.266 . S
Co272 O275 1.970 . S
Co272 N289 1.989 . S
Co272 O297 1.967 . S
Co272 O304 1.920 . S
Co273 O276 1.966 . S
Co273 N282 2.022 . S
Co273 N290 1.993 . S
Co273 O298 1.941 . S
C274 O275 1.258 . S
C274 O276 1.263 . S
O275 Co272 1.970 . S
O275 C274 1.258 . S
O276 Co273 1.966 . S
O276 C274 1.263 . S
C277 O278 1.235 1_655 S
C277 O304 1.289 . S
O278 C277 1.235 1_455 S
C279 C281 1.400 . S
C279 N282 1.351 . S
C279 C284 1.501 . S
C280 C281 1.387 . S
C280 N283 1.341 . S
C281 C279 1.400 . S
C281 C280 1.387 . S
N282 Co273 2.022 . S
N282 C279 1.351 . S
N282 N283 1.365 . S
N283 C280 1.341 . S
N283 N282 1.365 . S
N283 H303 0.862 . S
C284 C279 1.501 . S
C284 H285 0.961 . S
C284 H286 0.961 1_655 S
C284 H287 0.960 . S
H285 C284 0.961 . S
H286 C284 0.961 1_455 S
H287 C284 0.960 . S
C288 N289 1.342 . S
C288 C292 1.401 . S
C288 C293 1.499 . S
N289 Co272 1.989 . S
N289 C288 1.342 . S
N289 N290 1.388 . S
N290 Co273 1.993 . S
N290 N289 1.388 . S
N290 C291 1.346 . S
C291 N290 1.346 . S
C291 C292 1.396 . S
C291 C301 1.510 . S
C292 C288 1.401 . S
C292 C291 1.396 . S
C293 C288 1.499 . S
C293 H294 0.959 . S
C293 H295 0.960 . S
C293 H296 0.961 . S
H294 C293 0.959 . S
H295 C293 0.960 . S
H296 C293 0.961 . S
O297 Co272 1.967 . S
O297 C305 1.258 . S
O298 Co273 1.941 . S
O298 C305 1.266 . S
H299 C301 0.959 . S
H300 C301 0.961 . S
C301 C291 1.510 . S
C301 H299 0.959 . S
C301 H300 0.961 . S
C301 H302 0.960 . S
H302 C301 0.960 . S
H303 N283 0.862 . S
O304 Co272 1.920 . S
O304 C277 1.289 . S
C305 O297 1.258 . S
C305 O298 1.266 . S
Co306 O309 1.970 . S
Co306 N323 1.989 . S
Co306 O331 1.967 . S
Co306 O338 1.920 . S
Co307 O310 1.966 . S
Co307 N316 2.022 . S
Co307 N324 1.993 . S
Co307 O332 1.941 . S
C308 O309 1.258 . S
C308 O310 1.263 . S
O309 Co306 1.970 . S
O309 C308 1.258 . S
O310 Co307 1.966 . S
O310 C308 1.263 . S
C311 O312 1.235 1_565 S
C311 O338 1.289 . S
O312 C311 1.235 1_545 S
C313 C315 1.400 . S
C313 N316 1.351 . S
C313 C318 1.501 . S
C314 C315 1.387 . S
C314 N317 1.341 . S
C315 C313 1.400 . S
C315 C314 1.387 . S
N316 Co307 2.022 . S
N316 C313 1.351 . S
N316 N317 1.365 . S
N317 C314 1.341 . S
N317 N316 1.365 . S
N317 H337 0.862 . S
C318 C313 1.501 . S
C318 H319 0.961 . S
C318 H320 0.961 1_565 S
C318 H321 0.960 . S
H319 C318 0.961 . S
H320 C318 0.961 1_545 S
H321 C318 0.960 . S
C322 N323 1.342 . S
C322 C326 1.401 . S
C322 C327 1.499 . S
N323 Co306 1.989 . S
N323 C322 1.342 . S
N323 N324 1.388 . S
N324 Co307 1.993 . S
N324 N323 1.388 . S
N324 C325 1.346 . S
C325 N324 1.346 . S
C325 C326 1.396 . S
C325 C335 1.510 . S
C326 C322 1.401 . S
C326 C325 1.396 . S
C327 C322 1.499 . S
C327 H328 0.959 . S
C327 H329 0.960 . S
C327 H330 0.961 . S
H328 C327 0.959 . S
H329 C327 0.960 . S
H330 C327 0.961 . S
O331 Co306 1.967 . S
O331 C339 1.258 . S
O332 Co307 1.941 . S
O332 C339 1.266 . S
H333 C335 0.959 . S
H334 C335 0.961 . S
C335 C325 1.510 . S
C335 H333 0.959 . S
C335 H334 0.961 . S
C335 H336 0.960 . S
H336 C335 0.960 . S
H337 N317 0.862 . S
O338 Co306 1.920 . S
O338 C311 1.289 . S
C339 O331 1.258 . S
C339 O332 1.266 . S
Co340 O343 1.970 . S
Co340 N357 1.989 . S
Co340 O365 1.967 . S
Co340 O372 1.920 . S
Co341 O344 1.966 . S
Co341 N350 2.022 . S
Co341 N358 1.993 . S
Co341 O366 1.941 . S
C342 O343 1.258 . S
C342 O344 1.263 . S
O343 Co340 1.970 . S
O343 C342 1.258 . S
O344 Co341 1.966 . S
O344 C342 1.263 . S
C345 O346 1.235 . S
C345 O372 1.289 . S
O346 C345 1.235 . S
C347 C349 1.400 . S
C347 N350 1.351 . S
C347 C352 1.501 . S
C348 C349 1.387 . S
C348 N351 1.341 . S
C349 C347 1.400 . S
C349 C348 1.387 . S
N350 Co341 2.022 . S
N350 C347 1.351 . S
N350 N351 1.365 . S
N351 C348 1.341 . S
N351 N350 1.365 . S
N351 H371 0.862 . S
C352 C347 1.501 . S
C352 H353 0.961 . S
C352 H354 0.961 . S
C352 H355 0.960 . S
H353 C352 0.961 . S
H354 C352 0.961 . S
H355 C352 0.960 . S
C356 N357 1.342 . S
C356 C360 1.401 . S
C356 C361 1.499 . S
N357 Co340 1.989 . S
N357 C356 1.342 . S
N357 N358 1.388 . S
N358 Co341 1.993 . S
N358 N357 1.388 . S
N358 C359 1.346 . S
C359 N358 1.346 . S
C359 C360 1.396 . S
C359 C369 1.510 . S
C360 C356 1.401 . S
C360 C359 1.396 . S
C361 C356 1.499 . S
C361 H362 0.959 . S
C361 H363 0.960 . S
C361 H364 0.961 . S
H362 C361 0.959 . S
H363 C361 0.960 . S
H364 C361 0.961 . S
O365 Co340 1.967 . S
O365 C373 1.258 . S
O366 Co341 1.941 . S
O366 C373 1.266 . S
H367 C369 0.959 . S
H368 C369 0.961 . S
C369 C359 1.510 . S
C369 H367 0.959 . S
C369 H368 0.961 . S
C369 H370 0.960 . S
H370 C369 0.960 . S
H371 N351 0.862 . S
O372 Co340 1.920 . S
O372 C345 1.289 . S
C373 O365 1.258 . S
C373 O366 1.266 . S
Co374 O377 1.970 . S
Co374 N391 1.989 . S
Co374 O399 1.967 . S
Co374 O406 1.920 . S
Co375 O378 1.966 . S
Co375 N384 2.022 . S
Co375 N392 1.993 . S
Co375 O400 1.941 . S
C376 O377 1.258 . S
C376 O378 1.263 . S
O377 Co374 1.970 . S
O377 C376 1.258 . S
O378 Co375 1.966 . S
O378 C376 1.263 . S
C379 O380 1.235 . S
C379 O406 1.289 . S
O380 C379 1.235 . S
C381 C383 1.400 . S
C381 N384 1.351 . S
C381 C386 1.501 . S
C382 C383 1.387 . S
C382 N385 1.341 . S
C383 C381 1.400 . S
C383 C382 1.387 . S
N384 Co375 2.022 . S
N384 C381 1.351 . S
N384 N385 1.365 . S
N385 C382 1.341 . S
N385 N384 1.365 . S
N385 H405 0.862 . S
C386 C381 1.501 . S
C386 H387 0.961 . S
C386 H388 0.961 . S
C386 H389 0.960 . S
H387 C386 0.961 . S
H388 C386 0.961 . S
H389 C386 0.960 . S
C390 N391 1.342 . S
C390 C394 1.401 . S
C390 C395 1.499 . S
N391 Co374 1.989 . S
N391 C390 1.342 . S
N391 N392 1.388 . S
N392 Co375 1.993 . S
N392 N391 1.388 . S
N392 C393 1.346 . S
C393 N392 1.346 . S
C393 C394 1.396 . S
C393 C403 1.510 . S
C394 C390 1.401 . S
C394 C393 1.396 . S
C395 C390 1.499 . S
C395 H396 0.959 . S
C395 H397 0.960 . S
C395 H398 0.961 . S
H396 C395 0.959 . S
H397 C395 0.960 . S
H398 C395 0.961 . S
O399 Co374 1.967 . S
O399 C407 1.258 . S
O400 Co375 1.941 . S
O400 C407 1.266 . S
H401 C403 0.959 . S
H402 C403 0.961 . S
C403 C393 1.510 . S
C403 H401 0.959 . S
C403 H402 0.961 . S
C403 H404 0.960 . S
H404 C403 0.960 . S
H405 N385 0.862 . S
O406 Co374 1.920 . S
O406 C379 1.289 . S
C407 O399 1.258 . S
C407 O400 1.266 . S
Co408 O411 1.970 . S
Co408 N425 1.989 . S
Co408 O433 1.967 . S
Co408 O440 1.920 . S
Co409 O412 1.966 . S
Co409 N418 2.022 . S
Co409 N426 1.993 . S
Co409 O434 1.941 . S
C410 O411 1.258 . S
C410 O412 1.263 . S
O411 Co408 1.970 . S
O411 C410 1.258 . S
O412 Co409 1.966 . S
O412 C410 1.263 . S
C413 O414 1.235 1_655 S
C413 O440 1.289 . S
O414 C413 1.235 1_455 S
C415 C417 1.400 . S
C415 N418 1.351 . S
C415 C420 1.501 . S
C416 C417 1.387 . S
C416 N419 1.341 . S
C417 C415 1.400 . S
C417 C416 1.387 . S
N418 Co409 2.022 . S
N418 C415 1.351 . S
N418 N419 1.365 . S
N419 C416 1.341 . S
N419 N418 1.365 . S
N419 H439 0.862 . S
C420 C415 1.501 . S
C420 H421 0.961 . S
C420 H422 0.961 1_655 S
C420 H423 0.960 . S
H421 C420 0.961 . S
H422 C420 0.961 1_455 S
H423 C420 0.960 . S
C424 N425 1.342 . S
C424 C428 1.401 . S
C424 C429 1.499 . S
N425 Co408 1.989 . S
N425 C424 1.342 . S
N425 N426 1.388 . S
N426 Co409 1.993 . S
N426 N425 1.388 . S
N426 C427 1.346 . S
C427 N426 1.346 . S
C427 C428 1.396 . S
C427 C437 1.510 . S
C428 C424 1.401 . S
C428 C427 1.396 . S
C429 C424 1.499 . S
C429 H430 0.959 . S
C429 H431 0.960 . S
C429 H432 0.961 . S
H430 C429 0.959 . S
H431 C429 0.960 . S
H432 C429 0.961 . S
O433 Co408 1.967 . S
O433 C441 1.258 . S
O434 Co409 1.941 . S
O434 C441 1.266 . S
H435 C437 0.959 . S
H436 C437 0.961 . S
C437 C427 1.510 . S
C437 H435 0.959 . S
C437 H436 0.961 . S
C437 H438 0.960 . S
H438 C437 0.960 . S
H439 N419 0.862 . S
O440 Co408 1.920 . S
O440 C413 1.289 . S
C441 O433 1.258 . S
C441 O434 1.266 . S
Co442 O445 1.970 . S
Co442 N459 1.989 . S
Co442 O467 1.967 . S
Co442 O474 1.920 . S
Co443 O446 1.966 . S
Co443 N452 2.022 . S
Co443 N460 1.993 . S
Co443 O468 1.941 . S
C444 O445 1.258 . S
C444 O446 1.263 . S
O445 Co442 1.970 . S
O445 C444 1.258 . S
O446 Co443 1.966 . S
O446 C444 1.263 . S
C447 O448 1.235 1_565 S
C447 O474 1.289 . S
O448 C447 1.235 1_545 S
C449 C451 1.400 . S
C449 N452 1.351 . S
C449 C454 1.501 . S
C450 C451 1.387 . S
C450 N453 1.341 . S
C451 C449 1.400 . S
C451 C450 1.387 . S
N452 Co443 2.022 . S
N452 C449 1.351 . S
N452 N453 1.365 . S
N453 C450 1.341 . S
N453 N452 1.365 . S
N453 H473 0.862 . S
C454 C449 1.501 . S
C454 H455 0.961 . S
C454 H456 0.961 1_565 S
C454 H457 0.960 . S
H455 C454 0.961 . S
H456 C454 0.961 1_545 S
H457 C454 0.960 . S
C458 N459 1.342 . S
C458 C462 1.401 . S
C458 C463 1.499 . S
N459 Co442 1.989 . S
N459 C458 1.342 . S
N459 N460 1.388 . S
N460 Co443 1.993 . S
N460 N459 1.388 . S
N460 C461 1.346 . S
C461 N460 1.346 . S
C461 C462 1.396 . S
C461 C471 1.510 . S
C462 C458 1.401 . S
C462 C461 1.396 . S
C463 C458 1.499 . S
C463 H464 0.959 . S
C463 H465 0.960 . S
C463 H466 0.961 . S
H464 C463 0.959 . S
H465 C463 0.960 . S
H466 C463 0.961 . S
O467 Co442 1.967 . S
O467 C475 1.258 . S
O468 Co443 1.941 . S
O468 C475 1.266 . S
H469 C471 0.959 . S
H470 C471 0.961 . S
C471 C461 1.510 . S
C471 H469 0.959 . S
C471 H470 0.961 . S
C471 H472 0.960 . S
H472 C471 0.960 . S
H473 N453 0.862 . S
O474 Co442 1.920 . S
O474 C447 1.289 . S
C475 O467 1.258 . S
C475 O468 1.266 . S
Co476 O479 1.970 . S
Co476 N493 1.989 . S
Co476 O501 1.967 . S
Co476 O508 1.920 . S
Co477 O480 1.966 . S
Co477 N486 2.022 . S
Co477 N494 1.993 . S
Co477 O502 1.941 . S
C478 O479 1.258 . S
C478 O480 1.263 . S
O479 Co476 1.970 . S
O479 C478 1.258 . S
O480 Co477 1.966 . S
O480 C478 1.263 . S
C481 O482 1.235 . S
C481 O508 1.289 . S
O482 C481 1.235 . S
C483 C485 1.400 . S
C483 N486 1.351 . S
C483 C488 1.501 . S
C484 C485 1.387 . S
C484 N487 1.341 . S
C485 C483 1.400 . S
C485 C484 1.387 . S
N486 Co477 2.022 . S
N486 C483 1.351 . S
N486 N487 1.365 . S
N487 C484 1.341 . S
N487 N486 1.365 . S
N487 H507 0.862 . S
C488 C483 1.501 . S
C488 H489 0.961 . S
C488 H490 0.961 . S
C488 H491 0.960 . S
H489 C488 0.961 . S
H490 C488 0.961 . S
H491 C488 0.960 . S
C492 N493 1.342 . S
C492 C496 1.401 . S
C492 C497 1.499 . S
N493 Co476 1.989 . S
N493 C492 1.342 . S
N493 N494 1.388 . S
N494 Co477 1.993 . S
N494 N493 1.388 . S
N494 C495 1.346 . S
C495 N494 1.346 . S
C495 C496 1.396 . S
C495 C505 1.510 . S
C496 C492 1.401 . S
C496 C495 1.396 . S
C497 C492 1.499 . S
C497 H498 0.959 . S
C497 H499 0.960 . S
C497 H500 0.961 . S
H498 C497 0.959 . S
H499 C497 0.960 . S
H500 C497 0.961 . S
O501 Co476 1.967 . S
O501 C509 1.258 . S
O502 Co477 1.941 . S
O502 C509 1.266 . S
H503 C505 0.959 . S
H504 C505 0.961 . S
C505 C495 1.510 . S
C505 H503 0.959 . S
C505 H504 0.961 . S
C505 H506 0.960 . S
H506 C505 0.960 . S
H507 N487 0.862 . S
O508 Co476 1.920 . S
O508 C481 1.289 . S
C509 O501 1.258 . S
C509 O502 1.266 . S
Co510 O513 1.970 . S
Co510 N527 1.989 . S
Co510 O535 1.967 . S
Co510 O542 1.920 . S
Co511 O514 1.966 . S
Co511 N520 2.022 . S
Co511 N528 1.993 . S
Co511 O536 1.941 . S
C512 O513 1.258 . S
C512 O514 1.263 . S
O513 Co510 1.970 . S
O513 C512 1.258 . S
O514 Co511 1.966 . S
O514 C512 1.263 . S
C515 O516 1.235 . S
C515 O542 1.289 . S
O516 C515 1.235 . S
C517 C519 1.400 . S
C517 N520 1.351 . S
C517 C522 1.501 . S
C518 C519 1.387 . S
C518 N521 1.341 . S
C519 C517 1.400 . S
C519 C518 1.387 . S
N520 Co511 2.022 . S
N520 C517 1.351 . S
N520 N521 1.365 . S
N521 C518 1.341 . S
N521 N520 1.365 . S
N521 H541 0.862 . S
C522 C517 1.501 . S
C522 H523 0.961 . S
C522 H524 0.961 . S
C522 H525 0.960 . S
H523 C522 0.961 . S
H524 C522 0.961 . S
H525 C522 0.960 . S
C526 N527 1.342 . S
C526 C530 1.401 . S
C526 C531 1.499 . S
N527 Co510 1.989 . S
N527 C526 1.342 . S
N527 N528 1.388 . S
N528 Co511 1.993 . S
N528 N527 1.388 . S
N528 C529 1.346 . S
C529 N528 1.346 . S
C529 C530 1.396 . S
C529 C539 1.510 . S
C530 C526 1.401 . S
C530 C529 1.396 . S
C531 C526 1.499 . S
C531 H532 0.959 . S
C531 H533 0.960 . S
C531 H534 0.961 . S
H532 C531 0.959 . S
H533 C531 0.960 . S
H534 C531 0.961 . S
O535 Co510 1.967 . S
O535 C543 1.258 . S
O536 Co511 1.941 . S
O536 C543 1.266 . S
H537 C539 0.959 . S
H538 C539 0.961 . S
C539 C529 1.510 . S
C539 H537 0.959 . S
C539 H538 0.961 . S
C539 H540 0.960 . S
H540 C539 0.960 . S
H541 N521 0.862 . S
O542 Co510 1.920 . S
O542 C515 1.289 . S
C543 O535 1.258 . S
C543 O536 1.266 . S
H544 C556 0.930 . S
H545 C558 0.930 . S
H546 C559 0.930 . S
H547 C563 0.959 1_655 S
H548 C563 0.959 . S
H549 C563 0.961 . S
H550 C564 0.960 . S
H551 C564 0.961 . S
H552 C564 0.959 . S
H553 C567 0.929 . S
H554 C568 0.931 . S
H555 C570 0.930 . S
C556 H544 0.930 . S
C556 C557 1.399 . S
C556 C561 1.399 . S
C557 C556 1.399 . S
C557 C558 1.376 . S
C558 H545 0.930 . S
C558 C557 1.376 . S
C558 C559 1.388 . S
C559 H546 0.930 . S
C559 C558 1.388 . S
C559 C560 1.390 . S
C560 C559 1.390 . S
C560 C561 1.394 . S
C560 C566 1.465 1_556 S
C561 C556 1.399 . S
C561 C560 1.394 . S
C561 C562 1.516 1_556 S
C562 C561 1.516 1_554 S
C562 C563 1.502 . S
C562 C564 1.561 . S
C562 C565 1.526 . S
C563 H547 0.959 1_455 S
C563 H548 0.959 . S
C563 H549 0.961 . S
C563 C562 1.502 . S
C564 H550 0.960 . S
C564 H551 0.961 . S
C564 H552 0.959 . S
C564 C562 1.561 . S
C565 C562 1.526 . S
C565 C566 1.396 . S
C565 C570 1.390 . S
C566 C560 1.465 1_554 S
C566 C565 1.396 . S
C566 C567 1.399 . S
C567 H553 0.929 . S
C567 C566 1.399 . S
C567 C568 1.385 . S
C568 H554 0.931 . S
C568 C567 1.385 . S
C568 C569 1.389 . S
C569 C568 1.389 . S
C569 C570 1.387 . S
C570 H555 0.930 . S
C570 C565 1.390 . S
C570 C569 1.387 . S
H571 C583 0.930 . S
H572 C585 0.930 . S
H573 C586 0.930 . S
H574 C590 0.959 . S
H575 C590 0.959 . S
H576 C590 0.961 . S
H577 C591 0.960 . S
H578 C591 0.961 . S
H579 C591 0.959 . S
H580 C594 0.929 . S
H581 C595 0.931 . S
H582 C597 0.930 . S
C583 H571 0.930 . S
C583 C584 1.399 . S
C583 C588 1.399 . S
C584 C583 1.399 . S
C584 C585 1.376 1_545 S
C585 H572 0.930 . S
C585 C584 1.376 1_565 S
C585 C586 1.388 . S
C586 H573 0.930 . S
C586 C585 1.388 . S
C586 C587 1.390 1_565 S
C587 C586 1.390 1_545 S
C587 C588 1.394 . S
C587 C593 1.465 . S
C588 C583 1.399 . S
C588 C587 1.394 . S
C588 C589 1.516 . S
C589 C588 1.516 . S
C589 C590 1.502 . S
C589 C591 1.561 . S
C589 C592 1.526 . S
C590 H574 0.959 . S
C590 H575 0.959 . S
C590 H576 0.961 . S
C590 C589 1.502 . S
C591 H577 0.960 . S
C591 H578 0.961 . S
C591 H579 0.959 . S
C591 C589 1.561 . S
C592 C589 1.526 . S
C592 C593 1.396 . S
C592 C597 1.390 . S
C593 C587 1.465 . S
C593 C592 1.396 . S
C593 C594 1.399 1_545 S
C594 H580 0.929 . S
C594 C593 1.399 1_565 S
C594 C595 1.385 . S
C595 H581 0.931 . S
C595 C594 1.385 . S
C595 C596 1.389 1_565 S
C596 C595 1.389 1_545 S
C596 C597 1.387 . S
C597 H582 0.930 . S
C597 C592 1.390 . S
C597 C596 1.387 . S
H598 C610 0.930 . S
H599 C612 0.930 . S
H600 C613 0.930 . S
H601 C617 0.959 . S
H602 C617 0.959 . S
H603 C617 0.961 . S
H604 C618 0.960 . S
H605 C618 0.961 . S
H606 C618 0.959 . S
H607 C621 0.929 . S
H608 C622 0.931 . S
H609 C624 0.930 . S
C610 H598 0.930 . S
C610 C611 1.399 . S
C610 C615 1.399 . S
C611 C610 1.399 . S
C611 C612 1.376 . S
C612 H599 0.930 . S
C612 C611 1.376 . S
C612 C613 1.388 . S
C613 H600 0.930 . S
C613 C612 1.388 . S
C613 C614 1.390 . S
C614 C613 1.390 . S
C614 C615 1.394 . S
C614 C620 1.465 1_554 S
C615 C610 1.399 . S
C615 C614 1.394 . S
C615 C616 1.516 . S
C616 C615 1.516 . S
C616 C617 1.502 . S
C616 C618 1.561 . S
C616 C619 1.526 1_554 S
C617 H601 0.959 . S
C617 H602 0.959 . S
C617 H603 0.961 . S
C617 C616 1.502 . S
C618 H604 0.960 . S
C618 H605 0.961 . S
C618 H606 0.959 . S
C618 C616 1.561 . S
C619 C616 1.526 1_556 S
C619 C620 1.396 . S
C619 C624 1.390 . S
C620 C614 1.465 1_556 S
C620 C619 1.396 . S
C620 C621 1.399 . S
C621 H607 0.929 . S
C621 C620 1.399 . S
C621 C622 1.385 . S
C622 H608 0.931 . S
C622 C621 1.385 . S
C622 C623 1.389 . S
C623 C622 1.389 . S
C623 C624 1.387 . S
C624 H609 0.930 . S
C624 C619 1.390 . S
C624 C623 1.387 . S
H625 C637 0.930 . S
H626 C639 0.930 . S
H627 C640 0.930 . S
H628 C644 0.959 . S
H629 C644 0.959 . S
H630 C644 0.961 . S
H631 C645 0.960 . S
H632 C645 0.961 . S
H633 C645 0.959 . S
H634 C648 0.929 . S
H635 C649 0.931 . S
H636 C651 0.930 . S
C637 H625 0.930 . S
C637 C638 1.399 . S
C637 C642 1.399 . S
C638 C637 1.399 . S
C638 C639 1.376 . S
C639 H626 0.930 . S
C639 C638 1.376 . S
C639 C640 1.388 . S
C640 H627 0.930 . S
C640 C639 1.388 . S
C640 C641 1.390 . S
C641 C640 1.390 . S
C641 C642 1.394 . S
C641 C647 1.465 . S
C642 C637 1.399 . S
C642 C641 1.394 . S
C642 C643 1.516 . S
C643 C642 1.516 . S
C643 C644 1.502 . S
C643 C645 1.561 . S
C643 C646 1.526 . S
C644 H628 0.959 . S
C644 H629 0.959 . S
C644 H630 0.961 . S
C644 C643 1.502 . S
C645 H631 0.960 . S
C645 H632 0.961 . S
C645 H633 0.959 . S
C645 C643 1.561 . S
C646 C643 1.526 . S
C646 C647 1.396 . S
C646 C651 1.390 . S
C647 C641 1.465 . S
C647 C646 1.396 . S
C647 C648 1.399 . S
C648 H634 0.929 . S
C648 C647 1.399 . S
C648 C649 1.385 . S
C649 H635 0.931 . S
C649 C648 1.385 . S
C649 C650 1.389 . S
C650 C649 1.389 . S
C650 C651 1.387 . S
C651 H636 0.930 . S
C651 C646 1.390 . S
C651 C650 1.387 . S
H652 C664 0.930 . S
H653 C666 0.930 . S
H654 C667 0.930 . S
H655 C671 0.959 . S
H656 C671 0.959 . S
H657 C671 0.961 . S
H658 C672 0.960 . S
H659 C672 0.961 . S
H660 C672 0.959 . S
H661 C675 0.929 . S
H662 C676 0.931 . S
H663 C678 0.930 . S
C664 H652 0.930 . S
C664 C665 1.399 . S
C664 C669 1.399 . S
C665 C664 1.399 . S
C665 C666 1.376 . S
C666 H653 0.930 . S
C666 C665 1.376 . S
C666 C667 1.388 . S
C667 H654 0.930 . S
C667 C666 1.388 . S
C667 C668 1.390 . S
C668 C667 1.390 . S
C668 C669 1.394 . S
C668 C674 1.465 1_554 S
C669 C664 1.399 . S
C669 C668 1.394 . S
C669 C670 1.516 . S
C670 C669 1.516 . S
C670 C671 1.502 1_655 S
C670 C672 1.561 . S
C670 C673 1.526 1_554 S
C671 H655 0.959 . S
C671 H656 0.959 . S
C671 H657 0.961 . S
C671 C670 1.502 1_455 S
C672 H658 0.960 . S
C672 H659 0.961 . S
C672 H660 0.959 . S
C672 C670 1.561 . S
C673 C670 1.526 1_556 S
C673 C674 1.396 . S
C673 C678 1.390 . S
C674 C668 1.465 1_556 S
C674 C673 1.396 . S
C674 C675 1.399 . S
C675 H661 0.929 . S
C675 C674 1.399 . S
C675 C676 1.385 . S
C676 H662 0.931 . S
C676 C675 1.385 . S
C676 C677 1.389 . S
C677 C676 1.389 . S
C677 C678 1.387 . S
C678 H663 0.930 . S
C678 C673 1.390 . S
C678 C677 1.387 . S
H679 C691 0.930 1_545 S
H680 C693 0.930 . S
H681 C694 0.930 . S
H682 C698 0.959 1_565 S
H683 C698 0.959 . S
H684 C698 0.961 . S
H685 C699 0.960 . S
H686 C699 0.961 . S
H687 C699 0.959 . S
H688 C702 0.929 . S
H689 C703 0.931 . S
H690 C705 0.930 1_545 S
C691 H679 0.930 1_565 S
C691 C692 1.399 . S
C691 C696 1.399 . S
C692 C691 1.399 . S
C692 C693 1.376 . S
C693 H680 0.930 . S
C693 C692 1.376 . S
C693 C694 1.388 . S
C694 H681 0.930 . S
C694 C693 1.388 . S
C694 C695 1.390 . S
C695 C694 1.390 . S
C695 C696 1.394 . S
C695 C701 1.465 . S
C696 C691 1.399 . S
C696 C695 1.394 . S
C696 C697 1.516 1_565 S
C697 C696 1.516 1_545 S
C697 C698 1.502 . S
C697 C699 1.561 . S
C697 C700 1.526 1_545 S
C698 H682 0.959 1_545 S
C698 H683 0.959 . S
C698 H684 0.961 . S
C698 C697 1.502 . S
C699 H685 0.960 . S
C699 H686 0.961 . S
C699 H687 0.959 . S
C699 C697 1.561 . S
C700 C697 1.526 1_565 S
C700 C701 1.396 . S
C700 C705 1.390 . S
C701 C695 1.465 . S
C701 C700 1.396 . S
C701 C702 1.399 . S
C702 H688 0.929 . S
C702 C701 1.399 . S
C702 C703 1.385 . S
C703 H689 0.931 . S
C703 C702 1.385 . S
C703 C704 1.389 . S
C704 C703 1.389 . S
C704 C705 1.387 . S
C705 H690 0.930 1_565 S
C705 C700 1.390 . S
C705 C704 1.387 . S
H706 C718 0.930 . S
H707 C720 0.930 . S
H708 C721 0.930 . S
H709 C725 0.959 . S
H710 C725 0.959 . S
H711 C725 0.961 . S
H712 C726 0.960 1_556 S
H713 C726 0.961 . S
H714 C726 0.959 1_556 S
H715 C729 0.929 . S
H716 C730 0.931 . S
H717 C732 0.930 . S
C718 H706 0.930 . S
C718 C719 1.399 . S
C718 C723 1.399 . S
C719 C718 1.399 . S
C719 C720 1.376 . S
C720 H707 0.930 . S
C720 C719 1.376 . S
C720 C721 1.388 . S
C721 H708 0.930 . S
C721 C720 1.388 . S
C721 C722 1.390 . S
C722 C721 1.390 . S
C722 C723 1.394 . S
C722 C728 1.465 1_556 S
C723 C718 1.399 . S
C723 C722 1.394 . S
C723 C724 1.516 1_556 S
C724 C723 1.516 1_554 S
C724 C725 1.502 . S
C724 C726 1.561 . S
C724 C727 1.526 . S
C725 H709 0.959 . S
C725 H710 0.959 . S
C725 H711 0.961 . S
C725 C724 1.502 . S
C726 H712 0.960 1_554 S
C726 H713 0.961 . S
C726 H714 0.959 1_554 S
C726 C724 1.561 . S
C727 C724 1.526 . S
C727 C728 1.396 . S
C727 C732 1.390 . S
C728 C722 1.465 1_554 S
C728 C727 1.396 . S
C728 C729 1.399 . S
C729 H715 0.929 . S
C729 C728 1.399 . S
C729 C730 1.385 . S
C730 H716 0.931 . S
C730 C729 1.385 . S
C730 C731 1.389 . S
C731 C730 1.389 . S
C731 C732 1.387 . S
C732 H717 0.930 . S
C732 C727 1.390 . S
C732 C731 1.387 . S
H733 C745 0.930 . S
H734 C747 0.930 . S
H735 C748 0.930 . S
H736 C752 0.959 . S
H737 C752 0.959 . S
H738 C752 0.961 . S
H739 C753 0.960 . S
H740 C753 0.961 . S
H741 C753 0.959 . S
H742 C756 0.929 . S
H743 C757 0.931 . S
H744 C759 0.930 . S
C745 H733 0.930 . S
C745 C746 1.399 . S
C745 C750 1.399 . S
C746 C745 1.399 . S
C746 C747 1.376 . S
C747 H734 0.930 . S
C747 C746 1.376 . S
C747 C748 1.388 . S
C748 H735 0.930 . S
C748 C747 1.388 . S
C748 C749 1.390 . S
C749 C748 1.390 . S
C749 C750 1.394 . S
C749 C755 1.465 . S
C750 C745 1.399 . S
C750 C749 1.394 . S
C750 C751 1.516 . S
C751 C750 1.516 . S
C751 C752 1.502 . S
C751 C753 1.561 . S
C751 C754 1.526 . S
C752 H736 0.959 . S
C752 H737 0.959 . S
C752 H738 0.961 . S
C752 C751 1.502 . S
C753 H739 0.960 . S
C753 H740 0.961 . S
C753 H741 0.959 . S
C753 C751 1.561 . S
C754 C751 1.526 . S
C754 C755 1.396 . S
C754 C759 1.390 . S
C755 C749 1.465 . S
C755 C754 1.396 . S
C755 C756 1.399 . S
C756 H742 0.929 . S
C756 C755 1.399 . S
C756 C757 1.385 . S
C757 H743 0.931 . S
C757 C756 1.385 . S
C757 C758 1.389 . S
C758 C757 1.389 . S
C758 C759 1.387 . S
C759 H744 0.930 . S
C759 C754 1.390 . S
C759 C758 1.387 . S
H760 C772 0.930 . S
H761 C774 0.930 . S
H762 C775 0.930 . S
H763 C779 0.959 . S
H764 C779 0.959 . S
H765 C779 0.961 . S
H766 C780 0.960 . S
H767 C780 0.961 . S
H768 C780 0.959 . S
H769 C783 0.929 . S
H770 C784 0.931 . S
H771 C786 0.930 . S
C772 H760 0.930 . S
C772 C773 1.399 . S
C772 C777 1.399 . S
C773 C772 1.399 . S
C773 C774 1.376 . S
C774 H761 0.930 . S
C774 C773 1.376 . S
C774 C775 1.388 . S
C775 H762 0.930 . S
C775 C774 1.388 . S
C775 C776 1.390 . S
C776 C775 1.390 . S
C776 C777 1.394 . S
C776 C782 1.465 1_455 S
C777 C772 1.399 . S
C777 C776 1.394 . S
C777 C778 1.516 . S
C778 C777 1.516 . S
C778 C779 1.502 1_455 S
C778 C780 1.561 . S
C778 C781 1.526 1_455 S
C779 H763 0.959 . S
C779 H764 0.959 . S
C779 H765 0.961 . S
C779 C778 1.502 1_655 S
C780 H766 0.960 . S
C780 H767 0.961 . S
C780 H768 0.959 . S
C780 C778 1.561 . S
C781 C778 1.526 1_655 S
C781 C782 1.396 . S
C781 C786 1.390 . S
C782 C776 1.465 1_655 S
C782 C781 1.396 . S
C782 C783 1.399 . S
C783 H769 0.929 . S
C783 C782 1.399 . S
C783 C784 1.385 1_545 S
C784 H770 0.931 . S
C784 C783 1.385 1_565 S
C784 C785 1.389 . S
C785 C784 1.389 . S
C785 C786 1.387 1_565 S
C786 H771 0.930 . S
C786 C781 1.390 . S
C786 C785 1.387 1_545 S
H787 C799 0.930 . S
H788 C801 0.930 . S
H789 C802 0.933 . S
H790 C806 0.959 . S
H791 C806 0.959 . S
H792 C806 0.960 1_545 S
H793 C807 0.960 . S
H794 C807 0.961 . S
H795 C807 0.959 . S
H796 C810 0.929 . S
H797 C811 0.931 . S
H798 C813 0.930 . S
C799 H787 0.930 . S
C799 C800 1.399 . S
C799 C804 1.399 . S
C800 C799 1.399 . S
C800 C801 1.376 . S
C801 H788 0.930 . S
C801 C800 1.376 . S
C801 C802 1.386 1_545 S
C802 H789 0.933 . S
C802 C801 1.386 1_565 S
C802 C803 1.389 1_565 S
C803 C802 1.389 1_545 S
C803 C804 1.394 . S
C803 C809 1.465 1_545 S
C804 C799 1.399 . S
C804 C803 1.394 . S
C804 C805 1.516 . S
C805 C804 1.516 . S
C805 C806 1.502 1_545 S
C805 C807 1.561 . S
C805 C808 1.530 . S
C806 H790 0.959 . S
C806 H791 0.959 . S
C806 H792 0.960 1_565 S
C806 C805 1.502 1_565 S
C807 H793 0.960 . S
C807 H794 0.961 . S
C807 H795 0.959 . S
C807 C805 1.561 . S
C808 C805 1.530 . S
C808 C809 1.394 1_545 S
C808 C813 1.387 1_545 S
C809 C803 1.465 1_565 S
C809 C808 1.394 1_565 S
C809 C810 1.399 . S
C810 H796 0.929 . S
C810 C809 1.399 . S
C810 C811 1.385 . S
C811 H797 0.931 . S
C811 C810 1.385 . S
C811 C812 1.389 . S
C812 C811 1.389 . S
C812 C813 1.387 . S
C813 H798 0.930 . S
C813 C808 1.387 1_565 S
C813 C812 1.387 . S
H814 C826 0.930 . S
H815 C828 0.930 . S
H816 C829 0.930 . S
H817 C833 0.959 . S
H818 C833 0.959 . S
H819 C833 0.961 . S
H820 C834 0.960 . S
H821 C834 0.961 . S
H822 C834 0.959 . S
H823 C837 0.929 . S
H824 C838 0.931 . S
H825 C840 0.930 . S
C826 H814 0.930 . S
C826 C827 1.399 . S
C826 C831 1.399 . S
C827 C826 1.399 . S
C827 C828 1.376 . S
C828 H815 0.930 . S
C828 C827 1.376 . S
C828 C829 1.388 . S
C829 H816 0.930 . S
C829 C828 1.388 . S
C829 C830 1.390 . S
C830 C829 1.390 . S
C830 C831 1.394 . S
C830 C836 1.465 . S
C831 C826 1.399 . S
C831 C830 1.394 . S
C831 C832 1.516 . S
C832 C831 1.516 . S
C832 C833 1.502 . S
C832 C834 1.561 . S
C832 C835 1.526 . S
C833 H817 0.959 . S
C833 H818 0.959 . S
C833 H819 0.961 . S
C833 C832 1.502 . S
C834 H820 0.960 . S
C834 H821 0.961 . S
C834 H822 0.959 . S
C834 C832 1.561 . S
C835 C832 1.526 . S
C835 C836 1.396 . S
C835 C840 1.390 . S
C836 C830 1.465 . S
C836 C835 1.396 . S
C836 C837 1.399 . S
C837 H823 0.929 . S
C837 C836 1.399 . S
C837 C838 1.385 . S
C838 H824 0.931 . S
C838 C837 1.385 . S
C838 C839 1.389 . S
C839 C838 1.389 . S
C839 C840 1.387 . S
C840 H825 0.930 . S
C840 C835 1.390 . S
C840 C839 1.387 . S
H841 C853 0.930 . S
H842 C855 0.930 . S
H843 C856 0.930 . S
H844 C860 0.959 . S
H845 C860 0.959 . S
H846 C860 0.961 . S
H847 C861 0.960 . S
H848 C861 0.961 . S
H849 C861 0.959 . S
H850 C864 0.929 . S
H851 C865 0.931 1_655 S
H852 C867 0.930 1_655 S
C853 H841 0.930 . S
C853 C854 1.399 . S
C853 C858 1.399 . S
C854 C853 1.399 . S
C854 C855 1.376 . S
C855 H842 0.930 . S
C855 C854 1.376 . S
C855 C856 1.388 . S
C856 H843 0.930 . S
C856 C855 1.388 . S
C856 C857 1.390 . S
C857 C856 1.390 . S
C857 C858 1.394 . S
C857 C863 1.465 . S
C858 C853 1.399 . S
C858 C857 1.394 . S
C858 C859 1.516 . S
C859 C858 1.516 . S
C859 C860 1.502 . S
C859 C861 1.561 . S
C859 C862 1.526 . S
C860 H844 0.959 . S
C860 H845 0.959 . S
C860 H846 0.961 . S
C860 C859 1.502 . S
C861 H847 0.960 . S
C861 H848 0.961 . S
C861 H849 0.959 . S
C861 C859 1.561 . S
C862 C859 1.526 . S
C862 C863 1.396 . S
C862 C867 1.390 . S
C863 C857 1.465 . S
C863 C862 1.396 . S
C863 C864 1.399 . S
C864 H850 0.929 . S
C864 C863 1.399 . S
C864 C865 1.385 . S
C865 H851 0.931 1_455 S
C865 C864 1.385 . S
C865 C866 1.389 1_455 S
C866 C865 1.389 1_655 S
C866 C867 1.387 1_655 S
C867 H852 0.930 1_455 S
C867 C862 1.390 . S
C867 C866 1.387 1_455 S
H868 C880 0.930 . S
H869 C882 0.930 . S
H870 C883 0.930 . S
H871 C887 0.959 . S
H872 C887 0.959 . S
H873 C887 0.961 . S
H874 C888 0.965 . S
H875 C888 0.963 . S
H876 C888 0.945 1_455 S
H877 C891 0.929 . S
H878 C892 0.931 . S
H879 C894 0.930 . S
C880 H868 0.930 . S
C880 C881 1.399 . S
C880 C885 1.399 . S
C881 C880 1.399 . S
C881 C882 1.376 1_655 S
C882 H869 0.930 . S
C882 C881 1.376 1_455 S
C882 C883 1.388 . S
C883 H870 0.930 . S
C883 C882 1.388 . S
C883 C884 1.390 . S
C884 C883 1.390 . S
C884 C885 1.394 1_455 S
C884 C890 1.465 . S
C885 C880 1.399 . S
C885 C884 1.394 1_655 S
C885 C886 1.516 . S
C886 C885 1.516 . S
C886 C887 1.502 . S
C886 C888 1.568 . S
C886 C889 1.526 . S
C887 H871 0.959 . S
C887 H872 0.959 . S
C887 H873 0.961 . S
C887 C886 1.502 . S
C888 H874 0.965 . S
C888 H875 0.963 . S
C888 H876 0.945 1_655 S
C888 C886 1.568 . S
C889 C886 1.526 . S
C889 C890 1.396 1_655 S
C889 C894 1.390 . S
C890 C884 1.465 . S
C890 C889 1.396 1_455 S
C890 C891 1.399 . S
C891 H877 0.929 . S
C891 C890 1.399 . S
C891 C892 1.385 . S
C892 H878 0.931 . S
C892 C891 1.385 . S
C892 C893 1.389 . S
C893 C892 1.389 . S
C893 C894 1.387 1_455 S
C894 H879 0.930 . S
C894 C889 1.390 . S
C894 C893 1.387 1_655 S
H895 C907 0.930 . S
H896 C909 0.930 . S
H897 C910 0.930 . S
H898 C914 0.959 . S
H899 C914 0.959 . S
H900 C914 0.961 . S
H901 C915 0.960 . S
H902 C915 0.961 . S
H903 C915 0.959 . S
H904 C918 0.929 . S
H905 C919 0.931 . S
H906 C921 0.930 . S
C907 H895 0.930 . S
C907 C908 1.399 1_455 S
C907 C912 1.399 . S
C908 C907 1.399 1_655 S
C908 C909 1.376 1_565 S
C909 H896 0.930 . S
C909 C908 1.376 1_545 S
C909 C910 1.388 1_655 S
C910 H897 0.930 . S
C910 C909 1.388 1_455 S
C910 C911 1.390 . S
C911 C910 1.390 . S
C911 C912 1.394 1_545 S
C911 C917 1.465 . S
C912 C907 1.399 . S
C912 C911 1.394 1_565 S
C912 C913 1.516 . S
C913 C912 1.516 . S
C913 C914 1.502 . S
C913 C915 1.561 . S
C913 C916 1.526 . S
C914 H898 0.959 . S
C914 H899 0.959 . S
C914 H900 0.961 . S
C914 C913 1.502 . S
C915 H901 0.960 . S
C915 H902 0.961 . S
C915 H903 0.959 . S
C915 C913 1.561 . S
C916 C913 1.526 . S
C916 C917 1.396 1_565 S
C916 C921 1.390 . S
C917 C911 1.465 . S
C917 C916 1.396 1_545 S
C917 C918 1.399 . S
C918 H904 0.929 . S
C918 C917 1.399 . S
C918 C919 1.385 . S
C919 H905 0.931 . S
C919 C918 1.385 . S
C919 C920 1.389 . S
C920 C919 1.389 . S
C920 C921 1.387 1_545 S
C921 H906 0.930 . S
C921 C916 1.390 . S
C921 C920 1.387 1_565 S
H922 C934 0.930 . S
H923 C936 0.930 . S
H924 C937 0.930 . S
H925 C941 0.959 . S
H926 C941 0.959 . S
H927 C941 0.961 . S
H928 C942 0.960 . S
H929 C942 0.961 . S
H930 C942 0.959 . S
H931 C945 0.929 . S
H932 C946 0.931 . S
H933 C948 0.930 1_565 S
C934 H922 0.930 . S
C934 C935 1.399 . S
C934 C939 1.399 . S
C935 C934 1.399 . S
C935 C936 1.376 . S
C936 H923 0.930 . S
C936 C935 1.376 . S
C936 C937 1.388 . S
C937 H924 0.930 . S
C937 C936 1.388 . S
C937 C938 1.390 . S
C938 C937 1.390 . S
C938 C939 1.394 . S
C938 C944 1.465 . S
C939 C934 1.399 . S
C939 C938 1.394 . S
C939 C940 1.516 . S
C940 C939 1.516 . S
C940 C941 1.502 . S
C940 C942 1.561 . S
C940 C943 1.526 . S
C941 H925 0.959 . S
C941 H926 0.959 . S
C941 H927 0.961 . S
C941 C940 1.502 . S
C942 H928 0.960 . S
C942 H929 0.961 . S
C942 H930 0.959 . S
C942 C940 1.561 . S
C943 C940 1.526 . S
C943 C944 1.396 . S
C943 C948 1.390 . S
C944 C938 1.465 . S
C944 C943 1.396 . S
C944 C945 1.399 . S
C945 H931 0.929 . S
C945 C944 1.399 . S
C945 C946 1.385 1_545 S
C946 H932 0.931 . S
C946 C945 1.385 1_565 S
C946 C947 1.389 . S
C947 C946 1.389 . S
C947 C948 1.387 1_565 S
C948 H933 0.930 1_545 S
C948 C943 1.390 . S
C948 C947 1.387 1_545 S
H949 C961 0.930 . S
H950 C963 0.930 . S
H951 C964 0.930 . S
H952 C968 0.959 . S
H953 C968 0.959 . S
H954 C968 0.961 . S
H955 C969 0.960 . S
H956 C969 0.961 . S
H957 C969 0.959 . S
H958 C972 0.929 . S
H959 C973 0.931 . S
H960 C975 0.930 . S
C961 H949 0.930 . S
C961 C962 1.399 . S
C961 C966 1.399 . S
C962 C961 1.399 . S
C962 C963 1.376 . S
C963 H950 0.930 . S
C963 C962 1.376 . S
C963 C964 1.388 . S
C964 H951 0.930 . S
C964 C963 1.388 . S
C964 C965 1.390 . S
C965 C964 1.390 . S
C965 C966 1.394 . S
C965 C971 1.465 . S
C966 C961 1.399 . S
C966 C965 1.394 . S
C966 C967 1.516 . S
C967 C966 1.516 . S
C967 C968 1.502 . S
C967 C969 1.561 . S
C967 C970 1.526 . S
C968 H952 0.959 . S
C968 H953 0.959 . S
C968 H954 0.961 . S
C968 C967 1.502 . S
C969 H955 0.960 . S
C969 H956 0.961 . S
C969 H957 0.959 . S
C969 C967 1.561 . S
C970 C967 1.526 . S
C970 C971 1.396 . S
C970 C975 1.390 . S
C971 C965 1.465 . S
C971 C970 1.396 . S
C971 C972 1.399 . S
C972 H958 0.929 . S
C972 C971 1.399 . S
C972 C973 1.385 . S
C973 H959 0.931 . S
C973 C972 1.385 . S
C973 C974 1.389 . S
C974 C973 1.389 . S
C974 C975 1.387 . S
C975 H960 0.930 . S
C975 C970 1.390 . S
C975 C974 1.387 . S
H976 C988 0.930 . S
H977 C990 0.930 1_455 S
H978 C991 0.930 . S
H979 C995 0.959 . S
H980 C995 0.959 . S
H981 C995 0.961 . S
H982 C996 0.960 . S
H983 C996 0.961 . S
H984 C996 0.959 . S
H985 C999 0.929 . S
H986 C1000 0.931 . S
H987 C1002 0.930 . S
C988 H976 0.930 . S
C988 C989 1.399 . S
C988 C993 1.399 . S
C989 C988 1.399 . S
C989 C990 1.377 . S
C990 H977 0.930 1_655 S
C990 C989 1.377 . S
C990 C991 1.388 1_655 S
C991 H978 0.930 . S
C991 C990 1.388 1_455 S
C991 C992 1.390 . S
C992 C991 1.390 . S
C992 C993 1.394 1_455 S
C992 C998 1.465 . S
C993 C988 1.399 . S
C993 C992 1.394 1_655 S
C993 C994 1.516 . S
C994 C993 1.516 . S
C994 C995 1.502 . S
C994 C996 1.561 1_655 S
C994 C997 1.526 1_655 S
C995 H979 0.959 . S
C995 H980 0.959 . S
C995 H981 0.961 . S
C995 C994 1.502 . S
C996 H982 0.960 . S
C996 H983 0.961 . S
C996 H984 0.959 . S
C996 C994 1.561 1_455 S
C997 C994 1.526 1_455 S
C997 C998 1.396 . S
C997 C1002 1.390 . S
C998 C992 1.465 . S
C998 C997 1.396 . S
C998 C999 1.399 . S
C999 H985 0.929 . S
C999 C998 1.399 . S
C999 C1000 1.385 1_565 S
C1000 H986 0.931 . S
C1000 C999 1.385 1_545 S
C1000 C1001 1.389 . S
C1001 C1000 1.389 . S
C1001 C1002 1.387 1_545 S
C1002 H987 0.930 . S
C1002 C997 1.390 . S
C1002 C1001 1.387 1_565 S
H1003 C1015 0.930 . S
H1004 C1017 0.930 . S
H1005 C1018 0.930 . S
H1006 C1022 0.959 . S
H1007 C1022 0.963 . S
H1008 C1022 0.961 1_565 S
H1009 C1023 0.960 . S
H1010 C1023 0.961 . S
H1011 C1023 0.959 . S
H1012 C1026 0.929 . S
H1013 C1027 0.931 . S
H1014 C1029 0.928 1_565 S
C1015 H1003 0.930 . S
C1015 C1016 1.399 . S
C1015 C1020 1.399 . S
C1016 C1015 1.399 . S
C1016 C1017 1.376 . S
C1017 H1004 0.930 . S
C1017 C1016 1.376 . S
C1017 C1018 1.388 1_565 S
C1018 H1005 0.930 . S
C1018 C1017 1.388 1_545 S
C1018 C1019 1.390 1_545 S
C1019 C1018 1.390 1_565 S
C1019 C1020 1.394 . S
C1019 C1025 1.465 1_565 S
C1020 C1015 1.399 . S
C1020 C1019 1.394 . S
C1020 C1021 1.516 . S
C1021 C1020 1.516 . S
C1021 C1022 1.502 1_565 S
C1021 C1023 1.561 . S
C1021 C1024 1.526 . S
C1022 H1006 0.959 . S
C1022 H1007 0.963 . S
C1022 H1008 0.961 1_545 S
C1022 C1021 1.502 1_545 S
C1023 H1009 0.960 . S
C1023 H1010 0.961 . S
C1023 H1011 0.959 . S
C1023 C1021 1.561 . S
C1024 C1021 1.526 . S
C1024 C1025 1.396 1_565 S
C1024 C1029 1.390 1_565 S
C1025 C1019 1.465 1_545 S
C1025 C1024 1.396 1_545 S
C1025 C1026 1.399 . S
C1026 H1012 0.929 . S
C1026 C1025 1.399 . S
C1026 C1027 1.385 . S
C1027 H1013 0.931 . S
C1027 C1026 1.385 . S
C1027 C1028 1.389 . S
C1028 C1027 1.389 . S
C1028 C1029 1.387 . S
C1029 H1014 0.928 1_545 S
C1029 C1024 1.390 1_545 S
C1029 C1028 1.387 . S
H1030 C1042 0.930 . S
H1031 C1044 0.930 . S
H1032 C1045 0.930 . S
H1033 C1049 0.959 . S
H1034 C1049 0.959 . S
H1035 C1049 0.961 . S
H1036 C1050 0.960 . S
H1037 C1050 0.961 . S
H1038 C1050 0.959 . S
H1039 C1053 0.929 . S
H1040 C1054 0.931 . S
H1041 C1056 0.930 . S
C1042 H1030 0.930 . S
C1042 C1043 1.399 . S
C1042 C1047 1.399 . S
C1043 C1042 1.399 . S
C1043 C1044 1.376 . S
C1044 H1031 0.930 . S
C1044 C1043 1.376 . S
C1044 C1045 1.388 . S
C1045 H1032 0.930 . S
C1045 C1044 1.388 . S
C1045 C1046 1.390 . S
C1046 C1045 1.390 . S
C1046 C1047 1.394 . S
C1046 C1052 1.465 . S
C1047 C1042 1.399 . S
C1047 C1046 1.394 . S
C1047 C1048 1.516 . S
C1048 C1047 1.516 . S
C1048 C1049 1.502 . S
C1048 C1050 1.561 . S
C1048 C1051 1.526 . S
C1049 H1033 0.959 . S
C1049 H1034 0.959 . S
C1049 H1035 0.961 . S
C1049 C1048 1.502 . S
C1050 H1036 0.960 . S
C1050 H1037 0.961 . S
C1050 H1038 0.959 . S
C1050 C1048 1.561 . S
C1051 C1048 1.526 . S
C1051 C1052 1.396 . S
C1051 C1056 1.390 . S
C1052 C1046 1.465 . S
C1052 C1051 1.396 . S
C1052 C1053 1.399 . S
C1053 H1039 0.929 . S
C1053 C1052 1.399 . S
C1053 C1054 1.385 . S
C1054 H1040 0.931 . S
C1054 C1053 1.385 . S
C1054 C1055 1.389 . S
C1055 C1054 1.389 . S
C1055 C1056 1.387 . S
C1056 H1041 0.930 . S
C1056 C1051 1.390 . S
C1056 C1055 1.387 . S
H1057 C1069 0.930 . S
H1058 C1071 0.930 . S
H1059 C1072 0.930 . S
H1060 C1076 0.959 . S
H1061 C1076 0.959 . S
H1062 C1076 0.961 . S
H1063 C1077 0.960 . S
H1064 C1077 0.961 . S
H1065 C1077 0.959 . S
H1066 C1080 0.929 . S
H1067 C1081 0.931 . S
H1068 C1083 0.930 1_455 S
C1069 H1057 0.930 . S
C1069 C1070 1.399 . S
C1069 C1074 1.399 . S
C1070 C1069 1.399 . S
C1070 C1071 1.376 . S
C1071 H1058 0.930 . S
C1071 C1070 1.376 . S
C1071 C1072 1.388 . S
C1072 H1059 0.930 . S
C1072 C1071 1.388 . S
C1072 C1073 1.390 . S
C1073 C1072 1.390 . S
C1073 C1074 1.394 . S
C1073 C1079 1.465 . S
C1074 C1069 1.399 . S
C1074 C1073 1.394 . S
C1074 C1075 1.516 . S
C1075 C1074 1.516 . S
C1075 C1076 1.502 . S
C1075 C1077 1.561 . S
C1075 C1078 1.526 . S
C1076 H1060 0.959 . S
C1076 H1061 0.959 . S
C1076 H1062 0.961 . S
C1076 C1075 1.502 . S
C1077 H1063 0.960 . S
C1077 H1064 0.961 . S
C1077 H1065 0.959 . S
C1077 C1075 1.561 . S
C1078 C1075 1.526 . S
C1078 C1079 1.396 . S
C1078 C1083 1.390 . S
C1079 C1073 1.465 . S
C1079 C1078 1.396 . S
C1079 C1080 1.399 . S
C1080 H1066 0.929 . S
C1080 C1079 1.399 . S
C1080 C1081 1.385 1_655 S
C1081 H1067 0.931 . S
C1081 C1080 1.385 1_455 S
C1081 C1082 1.389 . S
C1082 C1081 1.389 . S
C1082 C1083 1.387 1_455 S
C1083 H1068 0.930 1_655 S
C1083 C1078 1.390 . S
C1083 C1082 1.387 1_655 S
H1084 C1096 0.930 1_455 S
H1085 C1098 0.930 . S
H1086 C1099 0.930 . S
H1087 C1103 0.959 . S
H1088 C1103 0.959 . S
H1089 C1103 0.961 . S
H1090 C1104 0.960 . S
H1091 C1104 0.961 . S
H1092 C1104 0.959 . S
H1093 C1107 0.929 . S
H1094 C1108 0.928 1_655 S
H1095 C1110 0.930 . S
C1096 H1084 0.930 1_655 S
C1096 C1097 1.399 . S
C1096 C1101 1.399 . S
C1097 C1096 1.399 . S
C1097 C1098 1.376 . S
C1098 H1085 0.930 . S
C1098 C1097 1.376 . S
C1098 C1099 1.388 . S
C1099 H1086 0.930 . S
C1099 C1098 1.388 . S
C1099 C1100 1.390 . S
C1100 C1099 1.390 . S
C1100 C1101 1.394 . S
C1100 C1106 1.465 . S
C1101 C1096 1.399 . S
C1101 C1100 1.394 . S
C1101 C1102 1.516 1_655 S
C1102 C1101 1.516 1_455 S
C1102 C1103 1.502 . S
C1102 C1104 1.561 1_455 S
C1102 C1105 1.526 . S
C1103 H1087 0.959 . S
C1103 H1088 0.959 . S
C1103 H1089 0.961 . S
C1103 C1102 1.502 . S
C1104 H1090 0.960 . S
C1104 H1091 0.961 . S
C1104 H1092 0.959 . S
C1104 C1102 1.561 1_655 S
C1105 C1102 1.526 . S
C1105 C1106 1.396 1_455 S
C1105 C1110 1.390 . S
C1106 C1100 1.465 . S
C1106 C1105 1.396 1_655 S
C1106 C1107 1.399 . S
C1107 H1093 0.929 . S
C1107 C1106 1.399 . S
C1107 C1108 1.379 1_655 S
C1108 H1094 0.928 1_455 S
C1108 C1107 1.379 1_455 S
C1108 C1109 1.398 . S
C1109 C1108 1.398 . S
C1109 C1110 1.387 . S
C1110 H1095 0.930 . S
C1110 C1105 1.390 . S
C1110 C1109 1.387 . S
H1111 C1123 0.930 . S
H1112 C1125 0.930 . S
H1113 C1126 0.930 . S
H1114 C1130 0.959 . S
H1115 C1130 0.959 . S
H1116 C1130 0.961 . S
H1117 C1131 0.960 . S
H1118 C1131 0.961 . S
H1119 C1131 0.959 . S
H1120 C1134 0.929 . S
H1121 C1135 0.931 . S
H1122 C1137 0.930 1_455 S
C1123 H1111 0.930 . S
C1123 C1124 1.399 . S
C1123 C1128 1.399 . S
C1124 C1123 1.399 . S
C1124 C1125 1.376 . S
C1125 H1112 0.930 . S
C1125 C1124 1.376 . S
C1125 C1126 1.388 . S
C1126 H1113 0.930 . S
C1126 C1125 1.388 . S
C1126 C1127 1.390 . S
C1127 C1126 1.390 . S
C1127 C1128 1.394 . S
C1127 C1133 1.465 . S
C1128 C1123 1.399 . S
C1128 C1127 1.394 . S
C1128 C1129 1.516 1_565 S
C1129 C1128 1.516 1_545 S
C1129 C1130 1.502 . S
C1129 C1131 1.561 1_545 S
C1129 C1132 1.526 . S
C1130 H1114 0.959 . S
C1130 H1115 0.959 . S
C1130 H1116 0.961 . S
C1130 C1129 1.502 . S
C1131 H1117 0.960 . S
C1131 H1118 0.961 . S
C1131 H1119 0.959 . S
C1131 C1129 1.561 1_565 S
C1132 C1129 1.526 . S
C1132 C1133 1.396 1_545 S
C1132 C1137 1.390 . S
C1133 C1127 1.465 . S
C1133 C1132 1.396 1_565 S
C1133 C1134 1.399 . S
C1134 H1120 0.929 . S
C1134 C1133 1.399 . S
C1134 C1135 1.385 1_665 S
C1135 H1121 0.931 . S
C1135 C1134 1.385 1_445 S
C1135 C1136 1.389 . S
C1136 C1135 1.389 . S
C1136 C1137 1.387 1_455 S
C1137 H1122 0.930 1_655 S
C1137 C1132 1.390 . S
C1137 C1136 1.387 1_655 S
H1138 C1150 0.930 . S
H1139 C1152 0.930 . S
H1140 C1153 0.930 . S
H1141 C1157 0.959 . S
H1142 C1157 0.959 . S
H1143 C1157 0.961 . S
H1144 C1158 0.960 . S
H1145 C1158 0.961 . S
H1146 C1158 0.959 . S
H1147 C1161 0.929 . S
H1148 C1162 0.931 . S
H1149 C1164 0.930 1_545 S
C1150 H1138 0.930 . S
C1150 C1151 1.399 . S
C1150 C1155 1.399 . S
C1151 C1150 1.399 . S
C1151 C1152 1.376 . S
C1152 H1139 0.930 . S
C1152 C1151 1.376 . S
C1152 C1153 1.388 . S
C1153 H1140 0.930 . S
C1153 C1152 1.388 . S
C1153 C1154 1.390 . S
C1154 C1153 1.390 . S
C1154 C1155 1.394 . S
C1154 C1160 1.465 . S
C1155 C1150 1.399 . S
C1155 C1154 1.394 . S
C1155 C1156 1.516 . S
C1156 C1155 1.516 . S
C1156 C1157 1.502 . S
C1156 C1158 1.561 . S
C1156 C1159 1.526 . S
C1157 H1141 0.959 . S
C1157 H1142 0.959 . S
C1157 H1143 0.961 . S
C1157 C1156 1.502 . S
C1158 H1144 0.960 . S
C1158 H1145 0.961 . S
C1158 H1146 0.959 . S
C1158 C1156 1.561 . S
C1159 C1156 1.526 . S
C1159 C1160 1.396 . S
C1159 C1164 1.390 . S
C1160 C1154 1.465 . S
C1160 C1159 1.396 . S
C1160 C1161 1.399 . S
C1161 H1147 0.929 . S
C1161 C1160 1.399 . S
C1161 C1162 1.385 1_565 S
C1162 H1148 0.931 . S
C1162 C1161 1.385 1_545 S
C1162 C1163 1.389 . S
C1163 C1162 1.389 . S
C1163 C1164 1.387 1_545 S
C1164 H1149 0.930 1_565 S
C1164 C1159 1.390 . S
C1164 C1163 1.387 1_565 S
H1165 C1177 0.930 . S
H1166 C1179 0.930 . S
H1167 C1180 0.930 . S
H1168 C1184 0.959 . S
H1169 C1184 0.959 . S
H1170 C1184 0.961 . S
H1171 C1185 0.960 . S
H1172 C1185 0.961 . S
H1173 C1185 0.959 . S
H1174 C1188 0.929 . S
H1175 C1189 0.931 . S
H1176 C1191 0.930 . S
C1177 H1165 0.930 . S
C1177 C1178 1.399 . S
C1177 C1182 1.399 . S
C1178 C1177 1.399 . S
C1178 C1179 1.376 . S
C1179 H1166 0.930 . S
C1179 C1178 1.376 . S
C1179 C1180 1.388 . S
C1180 H1167 0.930 . S
C1180 C1179 1.388 . S
C1180 C1181 1.390 . S
C1181 C1180 1.390 . S
C1181 C1182 1.394 . S
C1181 C1187 1.465 . S
C1182 C1177 1.399 . S
C1182 C1181 1.394 . S
C1182 C1183 1.516 . S
C1183 C1182 1.516 . S
C1183 C1184 1.502 . S
C1183 C1185 1.561 . S
C1183 C1186 1.526 . S
C1184 H1168 0.959 . S
C1184 H1169 0.959 . S
C1184 H1170 0.961 . S
C1184 C1183 1.502 . S
C1185 H1171 0.960 . S
C1185 H1172 0.961 . S
C1185 H1173 0.959 . S
C1185 C1183 1.561 . S
C1186 C1183 1.526 . S
C1186 C1187 1.396 . S
C1186 C1191 1.390 . S
C1187 C1181 1.465 . S
C1187 C1186 1.396 . S
C1187 C1188 1.399 . S
C1188 H1174 0.929 . S
C1188 C1187 1.399 . S
C1188 C1189 1.385 . S
C1189 H1175 0.931 . S
C1189 C1188 1.385 . S
C1189 C1190 1.389 . S
C1190 C1189 1.389 . S
C1190 C1191 1.387 . S
C1191 H1176 0.930 . S
C1191 C1186 1.390 . S
C1191 C1190 1.387 . S
H1192 C1204 0.930 . S
H1193 C1206 0.930 . S
H1194 C1207 0.930 . S
H1195 C1211 0.959 . S
H1196 C1211 0.959 . S
H1197 C1211 0.961 . S
H1198 C1212 0.960 . S
H1199 C1212 0.961 . S
H1200 C1212 0.959 . S
H1201 C1215 0.929 . S
H1202 C1216 0.931 . S
H1203 C1218 0.930 . S
C1204 H1192 0.930 . S
C1204 C1205 1.399 . S
C1204 C1209 1.399 . S
C1205 C1204 1.399 . S
C1205 C1206 1.376 . S
C1206 H1193 0.930 . S
C1206 C1205 1.376 . S
C1206 C1207 1.388 . S
C1207 H1194 0.930 . S
C1207 C1206 1.388 . S
C1207 C1208 1.390 . S
C1208 C1207 1.390 . S
C1208 C1209 1.394 . S
C1208 C1214 1.465 . S
C1209 C1204 1.399 . S
C1209 C1208 1.394 . S
C1209 C1210 1.516 . S
C1210 C1209 1.516 . S
C1210 C1211 1.502 . S
C1210 C1212 1.561 . S
C1210 C1213 1.526 . S
C1211 H1195 0.959 . S
C1211 H1196 0.959 . S
C1211 H1197 0.961 . S
C1211 C1210 1.502 . S
C1212 H1198 0.960 . S
C1212 H1199 0.961 . S
C1212 H1200 0.959 . S
C1212 C1210 1.561 . S
C1213 C1210 1.526 . S
C1213 C1214 1.396 . S
C1213 C1218 1.390 . S
C1214 C1208 1.465 . S
C1214 C1213 1.396 . S
C1214 C1215 1.399 . S
C1215 H1201 0.929 . S
C1215 C1214 1.399 . S
C1215 C1216 1.385 . S
C1216 H1202 0.931 . S
C1216 C1215 1.385 . S
C1216 C1217 1.389 . S
C1217 C1216 1.389 . S
C1217 C1218 1.387 . S
C1218 H1203 0.930 . S
C1218 C1213 1.390 . S
C1218 C1217 1.387 . S
H1219 C1231 0.930 . S
H1220 C1233 0.930 . S
H1221 C1234 0.930 . S
H1222 C1238 0.959 . S
H1223 C1238 0.959 . S
H1224 C1238 0.969 . S
H1225 C1239 0.960 1_565 S
H1226 C1239 0.961 . S
H1227 C1239 0.959 . S
H1228 C1242 0.929 . S
H1229 C1243 0.931 . S
H1230 C1245 0.930 . S
C1231 H1219 0.930 . S
C1231 C1232 1.399 . S
C1231 C1236 1.399 . S
C1232 C1231 1.399 . S
C1232 C1233 1.376 . S
C1233 H1220 0.930 . S
C1233 C1232 1.376 . S
C1233 C1234 1.388 . S
C1234 H1221 0.930 . S
C1234 C1233 1.388 . S
C1234 C1235 1.390 . S
C1235 C1234 1.390 . S
C1235 C1236 1.394 . S
C1235 C1241 1.465 . S
C1236 C1231 1.399 . S
C1236 C1235 1.394 . S
C1236 C1237 1.516 . S
C1237 C1236 1.516 . S
C1237 C1238 1.502 . S
C1237 C1239 1.561 . S
C1237 C1240 1.526 . S
C1238 H1222 0.959 . S
C1238 H1223 0.959 . S
C1238 H1224 0.969 . S
C1238 C1237 1.502 . S
C1239 H1225 0.960 1_545 S
C1239 H1226 0.961 . S
C1239 H1227 0.959 . S
C1239 C1237 1.561 . S
C1240 C1237 1.526 . S
C1240 C1241 1.396 . S
C1240 C1245 1.390 . S
C1241 C1235 1.465 . S
C1241 C1240 1.396 . S
C1241 C1242 1.399 . S
C1242 H1228 0.929 . S
C1242 C1241 1.399 . S
C1242 C1243 1.385 . S
C1243 H1229 0.931 . S
C1243 C1242 1.385 . S
C1243 C1244 1.389 . S
C1244 C1243 1.389 . S
C1244 C1245 1.387 . S
C1245 H1230 0.930 . S
C1245 C1240 1.390 . S
C1245 C1244 1.387 . S
H1246 C1258 0.930 . S
H1247 C1260 0.930 . S
H1248 C1261 0.930 . S
H1249 C1265 0.959 . S
H1250 C1265 0.959 . S
H1251 C1265 0.961 1_565 S
H1252 C1266 0.960 . S
H1253 C1266 0.961 . S
H1254 C1266 0.959 . S
H1255 C1269 0.929 . S
H1256 C1270 0.931 . S
H1257 C1272 0.930 . S
C1258 H1246 0.930 . S
C1258 C1259 1.399 . S
C1258 C1263 1.399 . S
C1259 C1258 1.399 . S
C1259 C1260 1.376 . S
C1260 H1247 0.930 . S
C1260 C1259 1.376 . S
C1260 C1261 1.388 . S
C1261 H1248 0.930 . S
C1261 C1260 1.388 . S
C1261 C1262 1.390 . S
C1262 C1261 1.390 . S
C1262 C1263 1.394 . S
C1262 C1268 1.465 . S
C1263 C1258 1.399 . S
C1263 C1262 1.394 . S
C1263 C1264 1.516 . S
C1264 C1263 1.516 . S
C1264 C1265 1.502 . S
C1264 C1266 1.561 . S
C1264 C1267 1.526 . S
C1265 H1249 0.959 . S
C1265 H1250 0.959 . S
C1265 H1251 0.961 1_545 S
C1265 C1264 1.502 . S
C1266 H1252 0.960 . S
C1266 H1253 0.961 . S
C1266 H1254 0.959 . S
C1266 C1264 1.561 . S
C1267 C1264 1.526 . S
C1267 C1268 1.396 . S
C1267 C1272 1.390 . S
C1268 C1262 1.465 . S
C1268 C1267 1.396 . S
C1268 C1269 1.399 . S
C1269 H1255 0.929 . S
C1269 C1268 1.399 . S
C1269 C1270 1.385 . S
C1270 H1256 0.931 . S
C1270 C1269 1.385 . S
C1270 C1271 1.389 . S
C1271 C1270 1.389 . S
C1271 C1272 1.387 . S
C1272 H1257 0.930 . S
C1272 C1267 1.390 . S
C1272 C1271 1.387 . S
H1273 C1285 0.930 . S
H1274 C1287 0.930 . S
H1275 C1288 0.930 . S
H1276 C1292 0.959 . S
H1277 C1292 0.959 . S
H1278 C1292 0.961 . S
H1279 C1293 0.960 . S
H1280 C1293 0.961 . S
H1281 C1293 0.959 . S
H1282 C1296 0.929 . S
H1283 C1297 0.931 . S
H1284 C1299 0.930 . S
C1285 H1273 0.930 . S
C1285 C1286 1.399 . S
C1285 C1290 1.399 . S
C1286 C1285 1.399 . S
C1286 C1287 1.376 . S
C1287 H1274 0.930 . S
C1287 C1286 1.376 . S
C1287 C1288 1.388 . S
C1288 H1275 0.930 . S
C1288 C1287 1.388 . S
C1288 C1289 1.390 . S
C1289 C1288 1.390 . S
C1289 C1290 1.394 . S
C1289 C1295 1.465 . S
C1290 C1285 1.399 . S
C1290 C1289 1.394 . S
C1290 C1291 1.516 . S
C1291 C1290 1.516 . S
C1291 C1292 1.502 . S
C1291 C1293 1.561 . S
C1291 C1294 1.526 . S
C1292 H1276 0.959 . S
C1292 H1277 0.959 . S
C1292 H1278 0.961 . S
C1292 C1291 1.502 . S
C1293 H1279 0.960 . S
C1293 H1280 0.961 . S
C1293 H1281 0.959 . S
C1293 C1291 1.561 . S
C1294 C1291 1.526 . S
C1294 C1295 1.396 . S
C1294 C1299 1.390 . S
C1295 C1289 1.465 . S
C1295 C1294 1.396 . S
C1295 C1296 1.399 . S
C1296 H1282 0.929 . S
C1296 C1295 1.399 . S
C1296 C1297 1.385 . S
C1297 H1283 0.931 . S
C1297 C1296 1.385 . S
C1297 C1298 1.389 . S
C1298 C1297 1.389 . S
C1298 C1299 1.387 . S
C1299 H1284 0.930 . S
C1299 C1294 1.390 . S
C1299 C1298 1.387 . S
H1300 C1312 0.930 . S
H1301 C1314 0.930 . S
H1302 C1315 0.930 . S
H1303 C1319 0.959 . S
H1304 C1319 0.959 . S
H1305 C1319 0.961 . S
H1306 C1320 0.960 . S
H1307 C1320 0.961 . S
H1308 C1320 0.959 . S
H1309 C1323 0.929 . S
H1310 C1324 0.931 . S
H1311 C1326 0.930 . S
C1312 H1300 0.930 . S
C1312 C1313 1.399 . S
C1312 C1317 1.399 . S
C1313 C1312 1.399 . S
C1313 C1314 1.376 . S
C1314 H1301 0.930 . S
C1314 C1313 1.376 . S
C1314 C1315 1.388 . S
C1315 H1302 0.930 . S
C1315 C1314 1.388 . S
C1315 C1316 1.390 . S
C1316 C1315 1.390 . S
C1316 C1317 1.394 . S
C1316 C1322 1.465 . S
C1317 C1312 1.399 . S
C1317 C1316 1.394 . S
C1317 C1318 1.516 . S
C1318 C1317 1.516 . S
C1318 C1319 1.502 . S
C1318 C1320 1.561 . S
C1318 C1321 1.526 . S
C1319 H1303 0.959 . S
C1319 H1304 0.959 . S
C1319 H1305 0.961 . S
C1319 C1318 1.502 . S
C1320 H1306 0.960 . S
C1320 H1307 0.961 . S
C1320 H1308 0.959 . S
C1320 C1318 1.561 . S
C1321 C1318 1.526 . S
C1321 C1322 1.396 . S
C1321 C1326 1.390 . S
C1322 C1316 1.465 . S
C1322 C1321 1.396 . S
C1322 C1323 1.399 . S
C1323 H1309 0.929 . S
C1323 C1322 1.399 . S
C1323 C1324 1.385 . S
C1324 H1310 0.931 . S
C1324 C1323 1.385 . S
C1324 C1325 1.389 . S
C1325 C1324 1.389 . S
C1325 C1326 1.387 . S
C1326 H1311 0.930 . S
C1326 C1321 1.390 . S
C1326 C1325 1.387 . S
H1327 C1339 0.930 . S
H1328 C1341 0.930 . S
H1329 C1342 0.930 . S
H1330 C1346 0.959 . S
H1331 C1346 0.959 . S
H1332 C1346 0.961 . S
H1333 C1347 0.960 . S
H1334 C1347 0.961 . S
H1335 C1347 0.959 . S
H1336 C1350 0.929 . S
H1337 C1351 0.931 1_545 S
H1338 C1353 0.930 . S
C1339 H1327 0.930 . S
C1339 C1340 1.399 . S
C1339 C1344 1.399 . S
C1340 C1339 1.399 . S
C1340 C1341 1.376 . S
C1341 H1328 0.930 . S
C1341 C1340 1.376 . S
C1341 C1342 1.388 . S
C1342 H1329 0.930 . S
C1342 C1341 1.388 . S
C1342 C1343 1.390 . S
C1343 C1342 1.390 . S
C1343 C1344 1.394 . S
C1343 C1349 1.465 . S
C1344 C1339 1.399 . S
C1344 C1343 1.394 . S
C1344 C1345 1.516 . S
C1345 C1344 1.516 . S
C1345 C1346 1.502 . S
C1345 C1347 1.561 . S
C1345 C1348 1.526 . S
C1346 H1330 0.959 . S
C1346 H1331 0.959 . S
C1346 H1332 0.961 . S
C1346 C1345 1.502 . S
C1347 H1333 0.960 . S
C1347 H1334 0.961 . S
C1347 H1335 0.959 . S
C1347 C1345 1.561 . S
C1348 C1345 1.526 . S
C1348 C1349 1.396 . S
C1348 C1353 1.390 . S
C1349 C1343 1.465 . S
C1349 C1348 1.396 . S
C1349 C1350 1.399 . S
C1350 H1336 0.929 . S
C1350 C1349 1.399 . S
C1350 C1351 1.385 . S
C1351 H1337 0.931 1_565 S
C1351 C1350 1.385 . S
C1351 C1352 1.389 . S
C1352 C1351 1.389 . S
C1352 C1353 1.387 . S
C1353 H1338 0.930 . S
C1353 C1348 1.390 . S
C1353 C1352 1.387 . S
H1354 C1366 0.930 . S
H1355 C1368 0.930 . S
H1356 C1369 0.930 . S
H1357 C1373 0.959 . S
H1358 C1373 0.959 1_545 S
H1359 C1373 0.961 . S
H1360 C1374 0.960 . S
H1361 C1374 0.961 1_545 S
H1362 C1374 0.959 . S
H1363 C1377 0.929 . S
H1364 C1378 0.931 . S
H1365 C1380 0.930 . S
C1366 H1354 0.930 . S
C1366 C1367 1.399 . S
C1366 C1371 1.399 . S
C1367 C1366 1.399 . S
C1367 C1368 1.376 . S
C1368 H1355 0.930 . S
C1368 C1367 1.376 . S
C1368 C1369 1.388 . S
C1369 H1356 0.930 . S
C1369 C1368 1.388 . S
C1369 C1370 1.390 . S
C1370 C1369 1.390 . S
C1370 C1371 1.394 . S
C1370 C1376 1.465 . S
C1371 C1366 1.399 . S
C1371 C1370 1.394 . S
C1371 C1372 1.516 . S
C1372 C1371 1.516 . S
C1372 C1373 1.502 . S
C1372 C1374 1.561 . S
C1372 C1375 1.526 . S
C1373 H1357 0.959 . S
C1373 H1358 0.959 1_565 S
C1373 H1359 0.961 . S
C1373 C1372 1.502 . S
C1374 H1360 0.960 . S
C1374 H1361 0.961 1_565 S
C1374 H1362 0.959 . S
C1374 C1372 1.561 . S
C1375 C1372 1.526 . S
C1375 C1376 1.396 . S
C1375 C1380 1.390 . S
C1376 C1370 1.465 . S
C1376 C1375 1.396 . S
C1376 C1377 1.399 . S
C1377 H1363 0.929 . S
C1377 C1376 1.399 . S
C1377 C1378 1.385 . S
C1378 H1364 0.931 . S
C1378 C1377 1.385 . S
C1378 C1379 1.389 . S
C1379 C1378 1.389 . S
C1379 C1380 1.387 . S
C1380 H1365 0.930 . S
C1380 C1375 1.390 . S
C1380 C1379 1.387 . S
H1381 C1393 0.930 . S
H1382 C1395 0.930 . S
H1383 C1396 0.930 . S
H1384 C1400 0.959 . S
H1385 C1400 0.959 . S
H1386 C1400 0.961 . S
H1387 C1401 0.960 . S
H1388 C1401 0.961 . S
H1389 C1401 0.959 . S
H1390 C1404 0.929 . S
H1391 C1405 0.931 . S
H1392 C1407 0.930 . S
C1393 H1381 0.930 . S
C1393 C1394 1.399 . S
C1393 C1398 1.399 . S
C1394 C1393 1.399 . S
C1394 C1395 1.376 . S
C1395 H1382 0.930 . S
C1395 C1394 1.376 . S
C1395 C1396 1.388 . S
C1396 H1383 0.930 . S
C1396 C1395 1.388 . S
C1396 C1397 1.390 . S
C1397 C1396 1.390 . S
C1397 C1398 1.394 . S
C1397 C1403 1.465 . S
C1398 C1393 1.399 . S
C1398 C1397 1.394 . S
C1398 C1399 1.516 . S
C1399 C1398 1.516 . S
C1399 C1400 1.502 . S
C1399 C1401 1.561 . S
C1399 C1402 1.526 . S
C1400 H1384 0.959 . S
C1400 H1385 0.959 . S
C1400 H1386 0.961 . S
C1400 C1399 1.502 . S
C1401 H1387 0.960 . S
C1401 H1388 0.961 . S
C1401 H1389 0.959 . S
C1401 C1399 1.561 . S
C1402 C1399 1.526 . S
C1402 C1403 1.396 . S
C1402 C1407 1.390 . S
C1403 C1397 1.465 . S
C1403 C1402 1.396 . S
C1403 C1404 1.399 . S
C1404 H1390 0.929 . S
C1404 C1403 1.399 . S
C1404 C1405 1.385 . S
C1405 H1391 0.931 . S
C1405 C1404 1.385 . S
C1405 C1406 1.389 . S
C1406 C1405 1.389 . S
C1406 C1407 1.387 . S
C1407 H1392 0.930 . S
C1407 C1402 1.390 . S
C1407 C1406 1.387 . S
H1408 C1420 0.930 . S
H1409 C1422 0.930 . S
H1410 C1423 0.930 . S
H1411 C1427 0.959 . S
H1412 C1427 0.959 . S
H1413 C1427 0.961 . S
H1414 C1428 0.960 . S
H1415 C1428 0.961 . S
H1416 C1428 0.959 . S
H1417 C1431 0.929 . S
H1418 C1432 0.931 . S
H1419 C1434 0.930 . S
C1420 H1408 0.930 . S
C1420 C1421 1.399 . S
C1420 C1425 1.399 . S
C1421 C1420 1.399 . S
C1421 C1422 1.376 . S
C1422 H1409 0.930 . S
C1422 C1421 1.376 . S
C1422 C1423 1.388 . S
C1423 H1410 0.930 . S
C1423 C1422 1.388 . S
C1423 C1424 1.390 . S
C1424 C1423 1.390 . S
C1424 C1425 1.394 . S
C1424 C1430 1.465 . S
C1425 C1420 1.399 . S
C1425 C1424 1.394 . S
C1425 C1426 1.516 . S
C1426 C1425 1.516 . S
C1426 C1427 1.502 . S
C1426 C1428 1.561 . S
C1426 C1429 1.526 . S
C1427 H1411 0.959 . S
C1427 H1412 0.959 . S
C1427 H1413 0.961 . S
C1427 C1426 1.502 . S
C1428 H1414 0.960 . S
C1428 H1415 0.961 . S
C1428 H1416 0.959 . S
C1428 C1426 1.561 . S
C1429 C1426 1.526 . S
C1429 C1430 1.396 . S
C1429 C1434 1.390 . S
C1430 C1424 1.465 . S
C1430 C1429 1.396 . S
C1430 C1431 1.399 . S
C1431 H1417 0.929 . S
C1431 C1430 1.399 . S
C1431 C1432 1.385 . S
C1432 H1418 0.931 . S
C1432 C1431 1.385 . S
C1432 C1433 1.389 . S
C1433 C1432 1.389 . S
C1433 C1434 1.387 . S
C1434 H1419 0.930 . S
C1434 C1429 1.390 . S
C1434 C1433 1.387 . S
H1435 C1447 0.930 . S
H1436 C1449 0.930 . S
H1437 C1450 0.930 . S
H1438 C1454 0.959 . S
H1439 C1454 0.959 . S
H1440 C1454 0.961 . S
H1441 C1455 0.960 . S
H1442 C1455 0.961 . S
H1443 C1455 0.959 . S
H1444 C1458 0.929 . S
H1445 C1459 0.931 . S
H1446 C1461 0.930 . S
C1447 H1435 0.930 . S
C1447 C1448 1.399 . S
C1447 C1452 1.399 . S
C1448 C1447 1.399 . S
C1448 C1449 1.376 . S
C1449 H1436 0.930 . S
C1449 C1448 1.376 . S
C1449 C1450 1.388 . S
C1450 H1437 0.930 . S
C1450 C1449 1.388 . S
C1450 C1451 1.390 . S
C1451 C1450 1.390 . S
C1451 C1452 1.394 . S
C1451 C1457 1.465 . S
C1452 C1447 1.399 . S
C1452 C1451 1.394 . S
C1452 C1453 1.516 . S
C1453 C1452 1.516 . S
C1453 C1454 1.502 . S
C1453 C1455 1.561 . S
C1453 C1456 1.526 . S
C1454 H1438 0.959 . S
C1454 H1439 0.959 . S
C1454 H1440 0.961 . S
C1454 C1453 1.502 . S
C1455 H1441 0.960 . S
C1455 H1442 0.961 . S
C1455 H1443 0.959 . S
C1455 C1453 1.561 . S
C1456 C1453 1.526 . S
C1456 C1457 1.396 . S
C1456 C1461 1.390 . S
C1457 C1451 1.465 . S
C1457 C1456 1.396 . S
C1457 C1458 1.399 . S
C1458 H1444 0.929 . S
C1458 C1457 1.399 . S
C1458 C1459 1.385 . S
C1459 H1445 0.931 . S
C1459 C1458 1.385 . S
C1459 C1460 1.389 . S
C1460 C1459 1.389 . S
C1460 C1461 1.387 . S
C1461 H1446 0.930 . S
C1461 C1456 1.390 . S
C1461 C1460 1.387 . S
H1462 C1474 0.930 . S
H1463 C1476 0.930 . S
H1464 C1477 0.930 . S
H1465 C1481 0.959 . S
H1466 C1481 0.959 . S
H1467 C1481 0.961 . S
H1468 C1482 0.960 . S
H1469 C1482 0.961 . S
H1470 C1482 0.959 . S
H1471 C1485 0.929 . S
H1472 C1486 0.931 . S
H1473 C1488 0.930 . S
C1474 H1462 0.930 . S
C1474 C1475 1.399 . S
C1474 C1479 1.399 . S
C1475 C1474 1.399 . S
C1475 C1476 1.376 . S
C1476 H1463 0.930 . S
C1476 C1475 1.376 . S
C1476 C1477 1.388 . S
C1477 H1464 0.930 . S
C1477 C1476 1.388 . S
C1477 C1478 1.390 . S
C1478 C1477 1.390 . S
C1478 C1479 1.394 . S
C1478 C1484 1.465 . S
C1479 C1474 1.399 . S
C1479 C1478 1.394 . S
C1479 C1480 1.516 . S
C1480 C1479 1.516 . S
C1480 C1481 1.502 . S
C1480 C1482 1.561 . S
C1480 C1483 1.526 . S
C1481 H1465 0.959 . S
C1481 H1466 0.959 . S
C1481 H1467 0.961 . S
C1481 C1480 1.502 . S
C1482 H1468 0.960 . S
C1482 H1469 0.961 . S
C1482 H1470 0.959 . S
C1482 C1480 1.561 . S
C1483 C1480 1.526 . S
C1483 C1484 1.396 . S
C1483 C1488 1.390 . S
C1484 C1478 1.465 . S
C1484 C1483 1.396 . S
C1484 C1485 1.399 . S
C1485 H1471 0.929 . S
C1485 C1484 1.399 . S
C1485 C1486 1.385 . S
C1486 H1472 0.931 . S
C1486 C1485 1.385 . S
C1486 C1487 1.389 . S
C1487 C1486 1.389 . S
C1487 C1488 1.387 . S
C1488 H1473 0.930 . S
C1488 C1483 1.390 . S
C1488 C1487 1.387 . S
H1489 C1501 0.930 . S
H1490 C1503 0.930 . S
H1491 C1504 0.930 . S
H1492 C1508 0.959 . S
H1493 C1508 0.959 . S
H1494 C1508 0.961 . S
H1495 C1509 0.960 . S
H1496 C1509 0.961 . S
H1497 C1509 0.959 . S
H1498 C1512 0.929 . S
H1499 C1513 0.931 . S
H1500 C1515 0.930 . S
C1501 H1489 0.930 . S
C1501 C1502 1.399 . S
C1501 C1506 1.399 . S
C1502 C1501 1.399 . S
C1502 C1503 1.376 . S
C1503 H1490 0.930 . S
C1503 C1502 1.376 . S
C1503 C1504 1.388 . S
C1504 H1491 0.930 . S
C1504 C1503 1.388 . S
C1504 C1505 1.390 . S
C1505 C1504 1.390 . S
C1505 C1506 1.394 . S
C1505 C1511 1.465 . S
C1506 C1501 1.399 . S
C1506 C1505 1.394 . S
C1506 C1507 1.516 . S
C1507 C1506 1.516 . S
C1507 C1508 1.502 . S
C1507 C1509 1.561 . S
C1507 C1510 1.526 . S
C1508 H1492 0.959 . S
C1508 H1493 0.959 . S
C1508 H1494 0.961 . S
C1508 C1507 1.502 . S
C1509 H1495 0.960 . S
C1509 H1496 0.961 . S
C1509 H1497 0.959 . S
C1509 C1507 1.561 . S
C1510 C1507 1.526 . S
C1510 C1511 1.396 . S
C1510 C1515 1.390 . S
C1511 C1505 1.465 . S
C1511 C1510 1.396 . S
C1511 C1512 1.399 . S
C1512 H1498 0.929 . S
C1512 C1511 1.399 . S
C1512 C1513 1.385 . S
C1513 H1499 0.931 . S
C1513 C1512 1.385 . S
C1513 C1514 1.389 . S
C1514 C1513 1.389 . S
C1514 C1515 1.387 . S
C1515 H1500 0.930 . S
C1515 C1510 1.390 . S
C1515 C1514 1.387 . S
H1516 C1528 0.930 . S
H1517 C1530 0.930 . S
H1518 C1531 0.930 . S
H1519 C1535 0.959 . S
H1520 C1535 0.959 . S
H1521 C1535 0.961 . S
H1522 C1536 0.960 . S
H1523 C1536 0.961 . S
H1524 C1536 0.959 . S
H1525 C1539 0.929 . S
H1526 C1540 0.931 . S
H1527 C1542 0.930 . S
C1528 H1516 0.930 . S
C1528 C1529 1.399 . S
C1528 C1533 1.399 . S
C1529 C1528 1.399 . S
C1529 C1530 1.376 . S
C1530 H1517 0.930 . S
C1530 C1529 1.376 . S
C1530 C1531 1.388 . S
C1531 H1518 0.930 . S
C1531 C1530 1.388 . S
C1531 C1532 1.390 . S
C1532 C1531 1.390 . S
C1532 C1533 1.394 . S
C1532 C1538 1.465 . S
C1533 C1528 1.399 . S
C1533 C1532 1.394 . S
C1533 C1534 1.516 . S
C1534 C1533 1.516 . S
C1534 C1535 1.502 . S
C1534 C1536 1.561 . S
C1534 C1537 1.526 . S
C1535 H1519 0.959 . S
C1535 H1520 0.959 . S
C1535 H1521 0.961 . S
C1535 C1534 1.502 . S
C1536 H1522 0.960 . S
C1536 H1523 0.961 . S
C1536 H1524 0.959 . S
C1536 C1534 1.561 . S
C1537 C1534 1.526 . S
C1537 C1538 1.396 . S
C1537 C1542 1.390 . S
C1538 C1532 1.465 . S
C1538 C1537 1.396 . S
C1538 C1539 1.399 . S
C1539 H1525 0.929 . S
C1539 C1538 1.399 . S
C1539 C1540 1.385 . S
C1540 H1526 0.931 . S
C1540 C1539 1.385 . S
C1540 C1541 1.389 . S
C1541 C1540 1.389 . S
C1541 C1542 1.387 . S
C1542 H1527 0.930 . S
C1542 C1537 1.390 . S
C1542 C1541 1.387 . S
H1543 C1555 0.930 . S
H1544 C1557 0.930 . S
H1545 C1558 0.930 . S
H1546 C1562 0.959 . S
H1547 C1562 0.959 . S
H1548 C1562 0.961 . S
H1549 C1563 0.960 . S
H1550 C1563 0.961 . S
H1551 C1563 0.959 . S
H1552 C1566 0.929 . S
H1553 C1567 0.931 . S
H1554 C1569 0.930 . S
C1555 H1543 0.930 . S
C1555 C1556 1.399 . S
C1555 C1560 1.399 . S
C1556 C1555 1.399 . S
C1556 C1557 1.376 . S
C1557 H1544 0.930 . S
C1557 C1556 1.376 . S
C1557 C1558 1.388 . S
C1558 H1545 0.930 . S
C1558 C1557 1.388 . S
C1558 C1559 1.390 . S
C1559 C1558 1.390 . S
C1559 C1560 1.394 . S
C1559 C1565 1.465 . S
C1560 C1555 1.399 . S
C1560 C1559 1.394 . S
C1560 C1561 1.516 . S
C1561 C1560 1.516 . S
C1561 C1562 1.502 . S
C1561 C1563 1.561 . S
C1561 C1564 1.526 . S
C1562 H1546 0.959 . S
C1562 H1547 0.959 . S
C1562 H1548 0.961 . S
C1562 C1561 1.502 . S
C1563 H1549 0.960 . S
C1563 H1550 0.961 . S
C1563 H1551 0.959 . S
C1563 C1561 1.561 . S
C1564 C1561 1.526 . S
C1564 C1565 1.396 . S
C1564 C1569 1.390 . S
C1565 C1559 1.465 . S
C1565 C1564 1.396 . S
C1565 C1566 1.399 . S
C1566 H1552 0.929 . S
C1566 C1565 1.399 . S
C1566 C1567 1.385 . S
C1567 H1553 0.931 . S
C1567 C1566 1.385 . S
C1567 C1568 1.389 . S
C1568 C1567 1.389 . S
C1568 C1569 1.387 . S
C1569 H1554 0.930 . S
C1569 C1564 1.390 . S
C1569 C1568 1.387 . S
H1570 C1582 0.930 . S
H1571 C1584 0.930 . S
H1572 C1585 0.930 . S
H1573 C1589 0.959 . S
H1574 C1589 0.959 . S
H1575 C1589 0.961 . S
H1576 C1590 0.960 . S
H1577 C1590 0.961 . S
H1578 C1590 0.959 . S
H1579 C1593 0.929 . S
H1580 C1594 0.931 . S
H1581 C1596 0.930 . S
C1582 H1570 0.930 . S
C1582 C1583 1.399 . S
C1582 C1587 1.399 . S
C1583 C1582 1.399 . S
C1583 C1584 1.376 . S
C1584 H1571 0.930 . S
C1584 C1583 1.376 . S
C1584 C1585 1.388 . S
C1585 H1572 0.930 . S
C1585 C1584 1.388 . S
C1585 C1586 1.390 . S
C1586 C1585 1.390 . S
C1586 C1587 1.394 . S
C1586 C1592 1.465 . S
C1587 C1582 1.399 . S
C1587 C1586 1.394 . S
C1587 C1588 1.516 . S
C1588 C1587 1.516 . S
C1588 C1589 1.502 . S
C1588 C1590 1.561 . S
C1588 C1591 1.526 . S
C1589 H1573 0.959 . S
C1589 H1574 0.959 . S
C1589 H1575 0.961 . S
C1589 C1588 1.502 . S
C1590 H1576 0.960 . S
C1590 H1577 0.961 . S
C1590 H1578 0.959 . S
C1590 C1588 1.561 . S
C1591 C1588 1.526 . S
C1591 C1592 1.396 . S
C1591 C1596 1.390 . S
C1592 C1586 1.465 . S
C1592 C1591 1.396 . S
C1592 C1593 1.399 . S
C1593 H1579 0.929 . S
C1593 C1592 1.399 . S
C1593 C1594 1.385 . S
C1594 H1580 0.931 . S
C1594 C1593 1.385 . S
C1594 C1595 1.389 . S
C1595 C1594 1.389 . S
C1595 C1596 1.387 . S
C1596 H1581 0.930 . S
C1596 C1591 1.390 . S
C1596 C1595 1.387 . S
H1597 C1609 0.930 . S
H1598 C1611 0.930 . S
H1599 C1612 0.930 . S
H1600 C1616 0.959 . S
H1601 C1616 0.959 . S
H1602 C1616 0.961 . S
H1603 C1617 0.960 . S
H1604 C1617 0.961 . S
H1605 C1617 0.959 . S
H1606 C1620 0.929 . S
H1607 C1621 0.931 . S
H1608 C1623 0.930 . S
C1609 H1597 0.930 . S
C1609 C1610 1.399 . S
C1609 C1614 1.399 . S
C1610 C1609 1.399 . S
C1610 C1611 1.376 . S
C1611 H1598 0.930 . S
C1611 C1610 1.376 . S
C1611 C1612 1.388 . S
C1612 H1599 0.930 . S
C1612 C1611 1.388 . S
C1612 C1613 1.390 . S
C1613 C1612 1.390 . S
C1613 C1614 1.394 . S
C1613 C1619 1.465 . S
C1614 C1609 1.399 . S
C1614 C1613 1.394 . S
C1614 C1615 1.516 . S
C1615 C1614 1.516 . S
C1615 C1616 1.502 . S
C1615 C1617 1.561 . S
C1615 C1618 1.526 . S
C1616 H1600 0.959 . S
C1616 H1601 0.959 . S
C1616 H1602 0.961 . S
C1616 C1615 1.502 . S
C1617 H1603 0.960 . S
C1617 H1604 0.961 . S
C1617 H1605 0.959 . S
C1617 C1615 1.561 . S
C1618 C1615 1.526 . S
C1618 C1619 1.396 . S
C1618 C1623 1.390 . S
C1619 C1613 1.465 . S
C1619 C1618 1.396 . S
C1619 C1620 1.399 . S
C1620 H1606 0.929 . S
C1620 C1619 1.399 . S
C1620 C1621 1.385 . S
C1621 H1607 0.931 . S
C1621 C1620 1.385 . S
C1621 C1622 1.389 . S
C1622 C1621 1.389 . S
C1622 C1623 1.387 . S
C1623 H1608 0.930 . S
C1623 C1618 1.390 . S
C1623 C1622 1.387 . S
C557 C141 1.575 . S
C569 C5 1.612 . S
C584 C175 1.574 . S
C596 C39 1.595 . S
C611 C73 1.600 . S
C623 C209 1.573 . S
C638 C243 1.610 . S
C650 C107 1.593 . S
C665 C413 1.612 . S
C677 C277 1.578 . S
C692 C311 1.578 . S
C704 C447 1.612 . S
C719 C345 1.578 . S
C731 C481 1.612 . S
C746 C379 1.599 . S
C758 C515 1.581 . S
C773 C2 1.396 . S
C785 C428 1.390 . S
C800 C36 1.402 . S
C812 C462 1.390 . S
C827 C496 1.411 . S
C839 C70 1.357 . S
C854 C104 1.383 . S
C866 C530 1.411 . S
C881 C292 1.408 . S
C893 C138 1.356 . S
C908 C326 1.399 . S
C920 C172 1.367 . S
C935 C206 1.361 . S
C947 C360 1.413 . S
C962 C394 1.400 . S
C974 C240 1.406 . S
C989 C274 1.411 . S
C1001 C156 1.390 . S
C1016 C308 1.358 . S
C1028 C190 1.413 . S
C1043 C224 1.392 . S
C1055 C342 1.398 . S
C1070 C376 1.355 . S
C1082 C258 1.412 . S
C1097 C410 1.355 . S
C1109 C20 1.412 . S
C1124 C444 1.355 . S
C1136 C54 1.413 . S
C1151 C478 1.356 . S
C1163 C88 1.412 . S
C1178 C122 1.410 . S
C1190 C512 1.368 . S
C1205 C247 1.691 . S
C1217 C9 1.604 . S
C1232 C43 1.610 . S
C1244 C145 1.626 . S
C1259 C179 1.592 . S
C1271 C77 1.648 . S
C1286 C213 1.692 . S
C1298 C111 1.581 . S
C1313 C281 1.614 . S
C1325 C519 1.592 . S
C1340 C417 1.621 . S
C1352 C315 1.693 . S
C1367 C349 1.624 . S
C1379 C451 1.585 . S
C1394 C485 1.581 . S
C1406 C383 1.675 . S
C1421 C101 0.259 . S
C1433 C33 0.125 . S
C1448 C135 0.242 . S
C1460 C67 0.354 . S
C1475 C169 0.261 . S
C1487 C237 0.122 . S
C1502 C271 0.285 . S
C1514 C203 0.098 . S
C1529 C305 0.132 . S
C1541 C373 0.167 . S
C1556 C407 0.362 . S
C1568 C339 0.272 . S
C1583 C441 0.090 . S
C1595 C509 0.218 . S
C1610 C475 0.080 . S
C1622 C543 0.249 . S
