# Generated by pormake.
# Topology wgm, (5)-cn, num edge types: 1
# Building blocks:
#     Node 0, Type 0, BuildingBlock: XOMCOT_clean_sbu_0, # of connection points: 5
#     Node 1, Type 0, BuildingBlock: XOMCOT_clean_sbu_0, # of connection points: 5
#     Node 2, Type 0, BuildingBlock: XOMCOT_clean_sbu_0, # of connection points: 5
#     Node 3, Type 0, BuildingBlock: XOMCOT_clean_sbu_0, # of connection points: 5
#     Node 4, Type 0, BuildingBlock: XOMCOT_clean_sbu_0, # of connection points: 5
#     Node 5, Type 0, BuildingBlock: XOMCOT_clean_sbu_0, # of connection points: 5
#     Node 6, Type 0, BuildingBlock: XOMCOT_clean_sbu_0, # of connection points: 5
#     Node 7, Type 0, BuildingBlock: XOMCOT_clean_sbu_0, # of connection points: 5
#     Node 8, Type 0, BuildingBlock: XOMCOT_clean_sbu_0, # of connection points: 5
#     Node 9, Type 0, BuildingBlock: XOMCOT_clean_sbu_0, # of connection points: 5
#     Node 10, Type 0, BuildingBlock: XOMCOT_clean_sbu_0, # of connection points: 5
#     Node 11, Type 0, BuildingBlock: XOMCOT_clean_sbu_0, # of connection points: 5
#     Node 12, Type 0, BuildingBlock: XOMCOT_clean_sbu_0, # of connection points: 5
#     Node 13, Type 0, BuildingBlock: XOMCOT_clean_sbu_0, # of connection points: 5
#     Node 14, Type 0, BuildingBlock: XOMCOT_clean_sbu_0, # of connection points: 5
#     Node 15, Type 0, BuildingBlock: XOMCOT_clean_sbu_0, # of connection points: 5
#     Node 16, Type 0, BuildingBlock: XOMCOT_clean_sbu_0, # of connection points: 5
#     Node 17, Type 0, BuildingBlock: XOMCOT_clean_sbu_0, # of connection points: 5
#     Node 18, Type 0, BuildingBlock: XOMCOT_clean_sbu_0, # of connection points: 5
#     Node 19, Type 0, BuildingBlock: XOMCOT_clean_sbu_0, # of connection points: 5
#     Node 20, Type 0, BuildingBlock: XOMCOT_clean_sbu_0, # of connection points: 5
#     Node 21, Type 0, BuildingBlock: XOMCOT_clean_sbu_0, # of connection points: 5
#     Node 22, Type 0, BuildingBlock: XOMCOT_clean_sbu_0, # of connection points: 5
#     Node 23, Type 0, BuildingBlock: XOMCOT_clean_sbu_0, # of connection points: 5
#     Node 24, Type 0, BuildingBlock: XOMCOT_clean_sbu_0, # of connection points: 5
#     Node 25, Type 0, BuildingBlock: XOMCOT_clean_sbu_0, # of connection points: 5
#     Node 26, Type 0, BuildingBlock: XOMCOT_clean_sbu_0, # of connection points: 5
#     Node 27, Type 0, BuildingBlock: XOMCOT_clean_sbu_0, # of connection points: 5
#     Node 28, Type 0, BuildingBlock: XOMCOT_clean_sbu_0, # of connection points: 5
#     Node 29, Type 0, BuildingBlock: XOMCOT_clean_sbu_0, # of connection points: 5
#     Node 30, Type 0, BuildingBlock: XOMCOT_clean_sbu_0, # of connection points: 5
#     Node 31, Type 0, BuildingBlock: XOMCOT_clean_sbu_0, # of connection points: 5
#     Edge 32, Type (0, 0), BuildingBlock: EZIPEK_clean_linker_0, # of connection points: 2
#     Edge 33, Type (0, 0), BuildingBlock: EZIPEK_clean_linker_0, # of connection points: 2
#     Edge 34, Type (0, 0), BuildingBlock: EZIPEK_clean_linker_0, # of connection points: 2
#     Edge 35, Type (0, 0), BuildingBlock: EZIPEK_clean_linker_0, # of connection points: 2
#     Edge 36, Type (0, 0), BuildingBlock: EZIPEK_clean_linker_0, # of connection points: 2
#     Edge 37, Type (0, 0), BuildingBlock: EZIPEK_clean_linker_0, # of connection points: 2
#     Edge 38, Type (0, 0), BuildingBlock: EZIPEK_clean_linker_0, # of connection points: 2
#     Edge 39, Type (0, 0), BuildingBlock: EZIPEK_clean_linker_0, # of connection points: 2
#     Edge 40, Type (0, 0), BuildingBlock: EZIPEK_clean_linker_0, # of connection points: 2
#     Edge 41, Type (0, 0), BuildingBlock: EZIPEK_clean_linker_0, # of connection points: 2
#     Edge 42, Type (0, 0), BuildingBlock: EZIPEK_clean_linker_0, # of connection points: 2
#     Edge 43, Type (0, 0), BuildingBlock: EZIPEK_clean_linker_0, # of connection points: 2
#     Edge 44, Type (0, 0), BuildingBlock: EZIPEK_clean_linker_0, # of connection points: 2
#     Edge 45, Type (0, 0), BuildingBlock: EZIPEK_clean_linker_0, # of connection points: 2
#     Edge 46, Type (0, 0), BuildingBlock: EZIPEK_clean_linker_0, # of connection points: 2
#     Edge 47, Type (0, 0), BuildingBlock: EZIPEK_clean_linker_0, # of connection points: 2
#     Edge 48, Type (0, 0), BuildingBlock: EZIPEK_clean_linker_0, # of connection points: 2
#     Edge 49, Type (0, 0), BuildingBlock: EZIPEK_clean_linker_0, # of connection points: 2
#     Edge 50, Type (0, 0), BuildingBlock: EZIPEK_clean_linker_0, # of connection points: 2
#     Edge 51, Type (0, 0), BuildingBlock: EZIPEK_clean_linker_0, # of connection points: 2
#     Edge 52, Type (0, 0), BuildingBlock: EZIPEK_clean_linker_0, # of connection points: 2
#     Edge 53, Type (0, 0), BuildingBlock: EZIPEK_clean_linker_0, # of connection points: 2
#     Edge 54, Type (0, 0), BuildingBlock: EZIPEK_clean_linker_0, # of connection points: 2
#     Edge 55, Type (0, 0), BuildingBlock: EZIPEK_clean_linker_0, # of connection points: 2
#     Edge 56, Type (0, 0), BuildingBlock: EZIPEK_clean_linker_0, # of connection points: 2
#     Edge 57, Type (0, 0), BuildingBlock: EZIPEK_clean_linker_0, # of connection points: 2
#     Edge 58, Type (0, 0), BuildingBlock: EZIPEK_clean_linker_0, # of connection points: 2
#     Edge 59, Type (0, 0), BuildingBlock: EZIPEK_clean_linker_0, # of connection points: 2
#     Edge 60, Type (0, 0), BuildingBlock: EZIPEK_clean_linker_0, # of connection points: 2
#     Edge 61, Type (0, 0), BuildingBlock: EZIPEK_clean_linker_0, # of connection points: 2
#     Edge 62, Type (0, 0), BuildingBlock: EZIPEK_clean_linker_0, # of connection points: 2
#     Edge 63, Type (0, 0), BuildingBlock: EZIPEK_clean_linker_0, # of connection points: 2
#     Edge 64, Type (0, 0), BuildingBlock: EZIPEK_clean_linker_0, # of connection points: 2
#     Edge 65, Type (0, 0), BuildingBlock: EZIPEK_clean_linker_0, # of connection points: 2
#     Edge 66, Type (0, 0), BuildingBlock: EZIPEK_clean_linker_0, # of connection points: 2
#     Edge 67, Type (0, 0), BuildingBlock: EZIPEK_clean_linker_0, # of connection points: 2
#     Edge 68, Type (0, 0), BuildingBlock: EZIPEK_clean_linker_0, # of connection points: 2
#     Edge 69, Type (0, 0), BuildingBlock: EZIPEK_clean_linker_0, # of connection points: 2
#     Edge 70, Type (0, 0), BuildingBlock: EZIPEK_clean_linker_0, # of connection points: 2
#     Edge 71, Type (0, 0), BuildingBlock: EZIPEK_clean_linker_0, # of connection points: 2
#     Edge 72, Type (0, 0), BuildingBlock: EZIPEK_clean_linker_0, # of connection points: 2
#     Edge 73, Type (0, 0), BuildingBlock: EZIPEK_clean_linker_0, # of connection points: 2
#     Edge 74, Type (0, 0), BuildingBlock: EZIPEK_clean_linker_0, # of connection points: 2
#     Edge 75, Type (0, 0), BuildingBlock: EZIPEK_clean_linker_0, # of connection points: 2
#     Edge 76, Type (0, 0), BuildingBlock: EZIPEK_clean_linker_0, # of connection points: 2
#     Edge 77, Type (0, 0), BuildingBlock: EZIPEK_clean_linker_0, # of connection points: 2
#     Edge 78, Type (0, 0), BuildingBlock: EZIPEK_clean_linker_0, # of connection points: 2
#     Edge 79, Type (0, 0), BuildingBlock: EZIPEK_clean_linker_0, # of connection points: 2
#     Edge 80, Type (0, 0), BuildingBlock: EZIPEK_clean_linker_0, # of connection points: 2
#     Edge 81, Type (0, 0), BuildingBlock: EZIPEK_clean_linker_0, # of connection points: 2
#     Edge 82, Type (0, 0), BuildingBlock: EZIPEK_clean_linker_0, # of connection points: 2
#     Edge 83, Type (0, 0), BuildingBlock: EZIPEK_clean_linker_0, # of connection points: 2
#     Edge 84, Type (0, 0), BuildingBlock: EZIPEK_clean_linker_0, # of connection points: 2
#     Edge 85, Type (0, 0), BuildingBlock: EZIPEK_clean_linker_0, # of connection points: 2
#     Edge 86, Type (0, 0), BuildingBlock: EZIPEK_clean_linker_0, # of connection points: 2
#     Edge 87, Type (0, 0), BuildingBlock: EZIPEK_clean_linker_0, # of connection points: 2
#     Edge 88, Type (0, 0), BuildingBlock: EZIPEK_clean_linker_0, # of connection points: 2
#     Edge 89, Type (0, 0), BuildingBlock: EZIPEK_clean_linker_0, # of connection points: 2
#     Edge 90, Type (0, 0), BuildingBlock: EZIPEK_clean_linker_0, # of connection points: 2
#     Edge 91, Type (0, 0), BuildingBlock: EZIPEK_clean_linker_0, # of connection points: 2
#     Edge 92, Type (0, 0), BuildingBlock: EZIPEK_clean_linker_0, # of connection points: 2
#     Edge 93, Type (0, 0), BuildingBlock: EZIPEK_clean_linker_0, # of connection points: 2
#     Edge 94, Type (0, 0), BuildingBlock: EZIPEK_clean_linker_0, # of connection points: 2
#     Edge 95, Type (0, 0), BuildingBlock: EZIPEK_clean_linker_0, # of connection points: 2
#     Edge 96, Type (0, 0), BuildingBlock: EZIPEK_clean_linker_0, # of connection points: 2
#     Edge 97, Type (0, 0), BuildingBlock: EZIPEK_clean_linker_0, # of connection points: 2
#     Edge 98, Type (0, 0), BuildingBlock: EZIPEK_clean_linker_0, # of connection points: 2
#     Edge 99, Type (0, 0), BuildingBlock: EZIPEK_clean_linker_0, # of connection points: 2
#     Edge 100, Type (0, 0), BuildingBlock: EZIPEK_clean_linker_0, # of connection points: 2
#     Edge 101, Type (0, 0), BuildingBlock: EZIPEK_clean_linker_0, # of connection points: 2
#     Edge 102, Type (0, 0), BuildingBlock: EZIPEK_clean_linker_0, # of connection points: 2
#     Edge 103, Type (0, 0), BuildingBlock: EZIPEK_clean_linker_0, # of connection points: 2
#     Edge 104, Type (0, 0), BuildingBlock: EZIPEK_clean_linker_0, # of connection points: 2
#     Edge 105, Type (0, 0), BuildingBlock: EZIPEK_clean_linker_0, # of connection points: 2
#     Edge 106, Type (0, 0), BuildingBlock: EZIPEK_clean_linker_0, # of connection points: 2
#     Edge 107, Type (0, 0), BuildingBlock: EZIPEK_clean_linker_0, # of connection points: 2
#     Edge 108, Type (0, 0), BuildingBlock: EZIPEK_clean_linker_0, # of connection points: 2
#     Edge 109, Type (0, 0), BuildingBlock: EZIPEK_clean_linker_0, # of connection points: 2
#     Edge 110, Type (0, 0), BuildingBlock: EZIPEK_clean_linker_0, # of connection points: 2
#     Edge 111, Type (0, 0), BuildingBlock: EZIPEK_clean_linker_0, # of connection points: 2
# Relax obj value: 0.099
# Max RMSD: 0.192
# Mean RMSD: 0.192
data_MOF--net-wgm--node1-XOMCOT_clean_sbu_0--edge1-EZIPEK_clean_linker_0
_symmetry_space_group_name_H-M    P1
_symmetry_Int_Tables_number       1
_symmetry_cell_setting            triclinic
loop_
_symmetry_equiv_pos_as_xyz
'x, y, z'
_cell_length_a     36.513467
_cell_length_b     36.465415
_cell_length_c     59.788424
_cell_angle_alpha  89.996573
_cell_angle_beta   89.990631
_cell_angle_gamma 89.965959
loop_
_atom_site_label
_atom_site_type_symbol
_atom_site_fract_x
_atom_site_fract_y
_atom_site_fract_z
_atom_type_partial_charge
Co0 Co 0.19042 0.13909 0.35547 0.0
C1 C 0.18605 0.21299 0.37543 0.0
C2 C 0.19853 0.17299 0.40046 0.0
C3 C 0.19417 0.20658 0.41072 0.0
N4 N 0.19518 0.17722 0.37816 0.0
N5 N 0.18549 0.23172 0.39502 0.0
H6 H 0.17799 0.22469 0.35953 0.0
H7 H 0.20238 0.14708 0.40884 0.0
C8 C 0.265 0.11979 0.37771 0.0
O9 O 0.26728 0.15135 0.38809 0.0
N10 N 0.18384 0.10221 0.3321 0.0
C11 C 0.1517 0.09254 0.3225 0.0
C12 C 0.15829 0.06953 0.30491 0.0
C13 C 0.20982 0.08531 0.31954 0.0
N14 N 0.19461 0.06507 0.30299 0.0
C15 C 0.19112 0.18118 0.31518 0.0
C16 C 0.26167 0.2082 0.31811 0.0
C17 C 0.2401 0.21815 0.29961 0.0
C18 C 0.20439 0.20434 0.29834 0.0
C19 C 0.24728 0.18488 0.33468 0.0
N20 N 0.21243 0.17147 0.33303 0.0
H21 H 0.1635 0.17082 0.31384 0.0
H22 H 0.26413 0.17798 0.34883 0.0
H23 H 0.12493 0.10267 0.32696 0.0
H24 H 0.239 0.08908 0.32172 0.0
O25 O 0.1392 0.15362 0.35267 0.0
O26 O 0.1596 0.11073 0.37563 0.0
O27 O 0.23917 0.11359 0.36357 0.0
C28 C 0.13177 0.12873 0.36768 0.0
H29 H 0.1952 0.21172 0.42854 0.0
H30 H 0.13803 0.05821 0.29363 0.0
H31 H 0.28939 0.21842 0.31971 0.0
H32 H 0.18687 0.21138 0.28437 0.0
Co33 Co 0.15002 0.93233 0.60261 0.0
C34 C 0.08498 0.92508 0.63137 0.0
C35 C 0.12602 0.95564 0.64867 0.0
C36 C 0.09431 0.95546 0.66145 0.0
N37 N 0.11942 0.93819 0.62919 0.0
N38 N 0.06856 0.93625 0.65032 0.0
H39 H 0.0716 0.90744 0.6195 0.0
H40 H 0.15189 0.9677 0.65337 0.0
C41 C 0.1717 1.00965 0.61822 0.0
O42 O 0.13724 0.01979 0.61686 0.0
N43 N 0.17772 0.92468 0.57526 0.0
C44 C 0.16162 0.9097 0.55711 0.0
C45 C 0.18516 0.911 0.53939 0.0
C46 C 0.2116 0.93473 0.56828 0.0
N47 N 0.2165 0.92659 0.54628 0.0
C48 C 0.0824 0.94461 0.57871 0.0
C49 C 0.10433 1.00698 0.55624 0.0
C50 C 0.07029 0.99146 0.5511 0.0
C51 C 0.05928 0.96011 0.56267 0.0
C52 C 0.12659 0.99069 0.5726 0.0
N53 N 0.11519 0.96038 0.58422 0.0
H54 H 0.07507 0.9181 0.58506 0.0
H55 H 0.15396 1.00122 0.57482 0.0
H56 H 0.13398 0.89916 0.55663 0.0
H57 H 0.23195 0.9476 0.5788 0.0
O58 O 0.13002 0.88286 0.59948 0.0
O59 O 0.17993 0.89658 0.61826 0.0
O60 O 0.18097 0.97746 0.61135 0.0
C61 C 0.15715 0.87139 0.61179 0.0
H62 H 0.0904 0.96856 0.67752 0.0
H63 H 0.17992 0.90093 0.52265 0.0
H64 H 0.11426 0.03054 0.54702 0.0
H65 H 0.03381 0.94653 0.55845 0.0
Co66 Co 0.3457 0.87762 0.84854 0.0
C67 C 0.35487 0.81432 0.87891 0.0
C68 C 0.3292 0.85812 0.89668 0.0
C69 C 0.33069 0.82766 0.91048 0.0
N70 N 0.34283 0.84921 0.87638 0.0
N71 N 0.34695 0.80013 0.89918 0.0
H72 H 0.36912 0.79898 0.86624 0.0
H73 H 0.31822 0.88451 0.90127 0.0
C74 C 0.27152 0.90259 0.86801 0.0
O75 O 0.26245 0.8687 0.87301 0.0
N76 N 0.35006 0.90346 0.82032 0.0
C77 C 0.36154 0.88711 0.80131 0.0
C78 C 0.36145 0.91213 0.78427 0.0
C79 C 0.34348 0.93877 0.8146 0.0
N80 N 0.35018 0.94447 0.79256 0.0
C81 C 0.33659 0.80896 0.82577 0.0
C82 C 0.26798 0.82241 0.80822 0.0
C83 C 0.28725 0.79119 0.80114 0.0
C84 C 0.32164 0.78433 0.81043 0.0
C85 C 0.28408 0.84662 0.82363 0.0
N86 N 0.31805 0.83974 0.8324 0.0
H87 H 0.36463 0.80469 0.83063 0.0
H88 H 0.27011 0.87198 0.82716 0.0
H89 H 0.37032 0.85893 0.79994 0.0
H90 H 0.33471 0.95979 0.82621 0.0
O91 O 0.39578 0.85948 0.8445 0.0
O92 O 0.38083 0.91047 0.86212 0.0
O93 O 0.30063 0.9088 0.85657 0.0
C94 C 0.40654 0.88859 0.85529 0.0
H95 H 0.32033 0.82577 0.92741 0.0
H96 H 0.37011 0.90739 0.76719 0.0
H97 H 0.24155 0.82895 0.80103 0.0
H98 H 0.33771 0.761 0.80497 0.0
Co99 Co 0.38125 0.10558 0.09624 0.0
C100 C 0.44866 0.09966 0.12335 0.0
C101 C 0.40112 0.09835 0.14431 0.0
C102 C 0.43198 0.10072 0.15773 0.0
N103 N 0.41162 0.09769 0.12267 0.0
N104 N 0.46171 0.10182 0.14438 0.0
H105 H 0.46612 0.10222 0.10896 0.0
H106 H 0.37299 0.09993 0.14989 0.0
C107 C 0.35725 0.03216 0.11543 0.0
O108 O 0.39167 0.0249 0.12005 0.0
N109 N 0.35419 0.11512 0.06883 0.0
C110 C 0.36905 0.13535 0.05219 0.0
C111 C 0.34715 0.1339 0.03374 0.0
C112 C 0.32296 0.10119 0.06002 0.0
N113 N 0.31825 0.11262 0.03857 0.0
C114 C 0.44452 0.09699 0.0686 0.0
C115 C 0.42734 0.02858 0.0518 0.0
C116 C 0.45662 0.04804 0.04256 0.0
C117 C 0.4655 0.08237 0.05128 0.0
C118 C 0.40675 0.04441 0.06901 0.0
N119 N 0.41554 0.07816 0.07746 0.0
H120 H 0.45074 0.12441 0.07419 0.0
H121 H 0.38261 0.03016 0.07434 0.0
H122 H 0.39484 0.14975 0.05308 0.0
H123 H 0.30464 0.08278 0.06874 0.0
O124 O 0.40188 0.15501 0.0942 0.0
O125 O 0.35125 0.14078 0.11242 0.0
O126 O 0.34924 0.06095 0.10396 0.0
C127 C 0.37404 0.16592 0.10604 0.0
H128 H 0.43246 0.10361 0.17575 0.0
H129 H 0.35199 0.14732 0.01786 0.0
H130 H 0.41951 1.00213 0.0451 0.0
H131 H 0.48785 0.09821 0.04431 0.0
Co132 Co 0.17816 0.91061 0.17638 0.0
C133 C 0.18233 0.83402 0.15899 0.0
C134 C 0.17437 0.87317 0.13265 0.0
C135 C 0.17191 0.83849 0.12368 0.0
N136 N 0.18146 0.87058 0.15478 0.0
N137 N 0.17668 0.81399 0.14026 0.0
H138 H 0.18502 0.82213 0.17548 0.0
H139 H 0.1702 0.89858 0.12369 0.0
C140 C 0.24801 0.92799 0.14962 0.0
O141 O 0.2463 0.89677 0.13881 0.0
N142 N 0.17396 0.9498 0.19841 0.0
C143 C 0.1429 0.96415 0.20709 0.0
C144 C 0.15172 0.98717 0.2244 0.0
C145 C 0.20135 0.96414 0.21098 0.0
N146 N 0.18827 0.98702 0.22688 0.0
C147 C 0.18212 0.87284 0.21783 0.0
C148 C 0.2526 0.84582 0.21426 0.0
C149 C 0.23186 0.83723 0.23337 0.0
C150 C 0.19632 0.8512 0.23504 0.0
C151 C 0.2373 0.86784 0.19731 0.0
N152 N 0.20233 0.88089 0.19923 0.0
H153 H 0.15461 0.88339 0.21949 0.0
H154 H 0.25323 0.87367 0.18254 0.0
H155 H 0.11531 0.9571 0.20234 0.0
H156 H 0.22986 0.95645 0.20939 0.0
O157 O 0.12765 0.89583 0.1817 0.0
O158 O 0.14471 0.93654 0.15644 0.0
O159 O 0.22577 0.93498 0.16573 0.0
C160 C 0.11813 0.9185 0.16589 0.0
H161 H 0.16605 0.83167 0.10643 0.0
H162 H 0.13265 1.00152 0.23516 0.0
H163 H 0.28019 0.83535 0.21241 0.0
H164 H 0.17956 0.84524 0.24954 0.0
Co165 Co 0.39863 0.93924 0.42695 0.0
C166 C 0.46291 0.93539 0.39681 0.0
C167 C 0.41399 0.94493 0.37801 0.0
C168 C 0.44282 0.93969 0.36322 0.0
N169 N 0.42671 0.94263 0.39916 0.0
N170 N 0.47343 0.93372 0.37527 0.0
H171 H 0.48137 0.92922 0.41026 0.0
H172 H 0.38545 0.9482 0.37361 0.0
C173 C 0.37602 1.01303 0.40698 0.0
O174 O 0.41023 0.01911 0.40127 0.0
N175 N 0.3732 0.93426 0.4554 0.0
C176 C 0.39015 0.92094 0.47375 0.0
C177 C 0.3666 0.92145 0.49146 0.0
C178 C 0.33868 0.9422 0.46224 0.0
N179 N 0.33427 0.93459 0.48435 0.0
C180 C 0.46622 0.94727 0.45075 0.0
C181 C 0.45192 1.01561 0.46859 0.0
C182 C 0.48165 0.99538 0.47669 0.0
C183 C 0.4893 0.96131 0.46722 0.0
C184 C 0.42937 1.00049 0.45202 0.0
N185 N 0.43639 0.96649 0.4433 0.0
H186 H 0.47065 0.9193 0.44559 0.0
H187 H 0.40486 1.01513 0.44772 0.0
H188 H 0.41775 0.91042 0.47424 0.0
H189 H 0.31728 0.95245 0.45139 0.0
O190 O 0.41682 0.88908 0.43034 0.0
O191 O 0.36558 0.90441 0.41324 0.0
O192 O 0.36813 0.98468 0.41882 0.0
C193 C 0.38771 0.87852 0.41952 0.0
H194 H 0.44118 0.93873 0.34516 0.0
H195 H 0.37215 0.91138 0.50816 0.0
H196 H 0.44492 0.04183 0.47595 0.0
H197 H 0.51165 0.94468 0.47349 0.0
Co198 Co 0.35082 0.13489 0.67929 0.0
C199 C 0.35136 0.19872 0.64831 0.0
C200 C 0.34825 0.14824 0.63018 0.0
C201 C 0.3513 0.17673 0.61501 0.0
N202 N 0.34801 0.16204 0.65116 0.0
N203 N 0.35319 0.20829 0.62661 0.0
H204 H 0.35419 0.21844 0.66153 0.0
H205 H 0.34774 0.11941 0.62614 0.0
C206 C 0.27882 0.11186 0.65775 0.0
O207 O 0.27425 0.14571 0.6508 0.0
N208 N 0.35489 0.10971 0.70775 0.0
C209 C 0.36724 0.12614 0.72653 0.0
C210 C 0.36621 0.1017 0.74387 0.0
C211 C 0.34676 0.07496 0.71393 0.0
N212 N 0.35344 0.06965 0.73601 0.0
C213 C 0.34103 0.20326 0.70221 0.0
C214 C 0.27195 0.18959 0.71898 0.0
C215 C 0.29097 0.22072 0.72638 0.0
C216 C 0.32565 0.22766 0.71753 0.0
C217 C 0.28849 0.16563 0.70359 0.0
N218 N 0.32258 0.17273 0.6951 0.0
H219 H 0.36896 0.20799 0.69711 0.0
H220 H 0.2748 0.14022 0.69986 0.0
H221 H 0.37706 0.15401 0.72755 0.0
H222 H 0.33678 0.05404 0.70263 0.0
O223 O 0.40039 0.15404 0.6834 0.0
O224 O 0.38723 0.10216 0.66643 0.0
O225 O 0.3057 0.10401 0.67082 0.0
C226 C 0.41231 0.12499 0.67306 0.0
H227 H 0.35333 0.17442 0.59701 0.0
H228 H 0.37512 0.10661 0.76088 0.0
H229 H 0.24534 0.18294 0.72588 0.0
H230 H 0.34147 0.25102 0.7232 0.0
Co231 Co 0.1362 0.08244 0.91946 0.0
C232 C 0.07568 0.10274 0.88918 0.0
C233 C 0.10165 0.05341 0.87796 0.0
C234 C 0.06954 0.05819 0.86607 0.0
N235 N 0.10545 0.08125 0.8927 0.0
N236 N 0.05319 0.08906 0.87334 0.0
H237 H 0.06859 0.12623 0.89931 0.0
H238 H 0.11905 0.0295 0.87702 0.0
C239 C 0.1861 1.0136 0.9164 0.0
O240 O 0.19614 1.01619 0.93736 0.0
N241 N 0.16405 0.08502 0.94745 0.0
C242 C 0.14716 0.08902 0.96744 0.0
C243 C 0.1724 0.09197 0.98408 0.0
C244 C 0.20029 0.08805 0.95236 0.0
N245 N 0.20573 0.09116 0.97478 0.0
C246 C 0.06701 0.0765 0.94164 0.0
C247 C 0.07929 1.00928 0.96159 0.0
C248 C 0.04989 0.03082 0.96896 0.0
C249 C 0.04298 0.06409 0.95819 0.0
C250 C 0.10258 0.02258 0.94477 0.0
N251 N 0.09727 0.05661 0.93569 0.0
H252 H 0.06281 0.10368 0.93507 0.0
H253 H 0.12616 1.00649 0.94045 0.0
H254 H 0.11816 0.09169 0.97002 0.0
H255 H 0.22191 0.08852 0.94 0.0
O256 O 0.12163 0.13332 0.92466 0.0
O257 O 0.16977 0.11623 0.90499 0.0
O258 O 0.16148 0.03515 0.90845 0.0
C259 C 0.14952 0.1429 0.91239 0.0
H260 H 0.05767 0.03901 0.8543 0.0
H261 H 0.1668 0.09612 1.00169 0.0
H262 H 0.08525 0.98327 0.96954 0.0
H263 H 0.02045 0.08139 0.96346 0.0
Co264 Co 0.85389 0.90082 0.67548 0.0
C265 C 0.86591 0.83277 0.64854 0.0
C266 C 0.8319 0.87009 0.63046 0.0
C267 C 0.8345 0.83772 0.61849 0.0
N268 N 0.85028 0.86659 0.64996 0.0
N269 N 0.85578 0.81414 0.62998 0.0
H270 H 0.88465 0.82157 0.66066 0.0
H271 H 0.81729 0.89418 0.62508 0.0
C272 C 0.77696 0.92153 0.65803 0.0
O273 O 0.7675 0.88679 0.65719 0.0
N274 N 0.85899 0.9327 0.70134 0.0
C275 C 0.87241 0.92071 0.72104 0.0
C276 C 0.87094 0.94854 0.73637 0.0
C277 C 0.84929 0.96811 0.70499 0.0
N278 N 0.85639 0.9782 0.72641 0.0
C279 C 0.84234 0.83533 0.7011 0.0
C280 C 0.77975 0.85819 0.72296 0.0
C281 C 0.79646 0.82527 0.72948 0.0
C282 C 0.82773 0.81365 0.71811 0.0
C283 C 0.79521 0.87905 0.70562 0.0
N284 N 0.82597 0.86736 0.69463 0.0
H285 H 0.86859 0.82759 0.6946 0.0
H286 H 0.78398 0.90585 0.70227 0.0
H287 H 0.88209 0.89317 0.72419 0.0
H288 H 0.83688 0.98576 0.69256 0.0
O289 O 0.90325 0.88247 0.68104 0.0
O290 O 0.88989 0.92978 0.65956 0.0
O291 O 0.80869 0.93049 0.66551 0.0
C292 C 0.915 0.9089 0.66829 0.0
H293 H 0.82158 0.83187 0.60259 0.0
H294 H 0.87938 0.94707 0.75371 0.0
H295 H 0.75598 0.86842 0.73182 0.0
H296 H 0.8419 0.78888 0.72316 0.0
Co297 Co 0.89301 0.09842 0.42865 0.0
C298 C 0.96004 0.08615 0.40087 0.0
C299 C 0.91969 0.11675 0.38297 0.0
C300 C 0.9528 0.12041 0.37211 0.0
N301 N 0.92407 0.09603 0.40159 0.0
N302 N 0.9782 0.10157 0.38359 0.0
H303 H 0.97395 0.07043 0.41353 0.0
H304 H 0.89518 0.1318 0.37868 0.0
C305 C 0.85168 0.0445 0.40054 0.0
O306 O 0.85745 0.06858 0.38464 0.0
N307 N 0.86568 0.10235 0.45646 0.0
C308 C 0.8814 0.11673 0.47492 0.0
C309 C 0.85748 0.11519 0.49238 0.0
C310 C 0.83145 0.09267 0.46298 0.0
N311 N 0.82611 0.10032 0.48501 0.0
C312 C 0.96039 0.0921 0.45301 0.0
C313 C 0.94755 0.02346 0.47098 0.0
C314 C 0.97786 0.04362 0.47842 0.0
C315 C 0.9845 0.07805 0.46901 0.0
C316 C 0.92392 0.03858 0.45492 0.0
N317 N 0.93042 0.07257 0.4461 0.0
H318 H 0.96533 0.11928 0.44652 0.0
H319 H 0.89937 0.02373 0.45068 0.0
H320 H 0.90857 0.1283 0.47567 0.0
H321 H 0.81094 0.08113 0.45197 0.0
O322 O 0.909 0.14923 0.43311 0.0
O323 O 0.85962 0.13328 0.41439 0.0
O324 O 0.86573 0.05067 0.42001 0.0
C325 C 0.88022 0.15961 0.42196 0.0
H326 H 0.95846 0.13835 0.3581 0.0
H327 H 0.8621 0.12556 0.50912 0.0
H328 H 0.94139 0.99694 0.47821 0.0
H329 H 1.00756 0.09442 0.47448 0.0
Co330 Co 0.67468 0.13328 0.17488 0.0
C331 C 0.67601 0.19979 0.14718 0.0
C332 C 0.68842 0.15331 0.12676 0.0
C333 C 0.68866 0.18449 0.11348 0.0
N334 N 0.68166 0.1632 0.14814 0.0
N335 N 0.68056 0.21358 0.12651 0.0
H336 H 0.66748 0.21648 0.16104 0.0
H337 H 0.69269 0.12555 0.12107 0.0
C338 C 0.74696 0.10653 0.15477 0.0
O339 O 0.75596 0.1405 0.14996 0.0
N340 N 0.66602 0.10662 0.20246 0.0
C341 C 0.64715 0.12189 0.21953 0.0
C342 C 0.64894 0.0996 0.23782 0.0
C343 C 0.67927 0.0747 0.21075 0.0
N344 N 0.66896 0.07004 0.23238 0.0
C345 C 0.68484 0.19789 0.20133 0.0
C346 C 0.75279 0.18044 0.21849 0.0
C347 C 0.73415 0.21111 0.22686 0.0
C348 C 0.70013 0.22007 0.21784 0.0
C349 C 0.73659 0.159 0.20165 0.0
N350 N 0.70299 0.16795 0.19306 0.0
H351 H 0.65714 0.20379 0.19627 0.0
H352 H 0.75023 0.13408 0.19676 0.0
H353 H 0.63347 0.14815 0.21899 0.0
H354 H 0.69608 0.05562 0.20143 0.0
O355 O 0.62565 0.15448 0.17758 0.0
O356 O 0.63865 0.10352 0.15932 0.0
O357 O 0.71869 0.10027 0.16704 0.0
C358 C 0.61398 0.12671 0.16596 0.0
H359 H 0.69365 0.18565 0.09565 0.0
H360 H 0.63622 0.10441 0.25392 0.0
H361 H 0.7789 0.17232 0.22552 0.0
H362 H 0.68463 0.2431 0.22431 0.0
Co363 Co 0.63419 0.94367 0.92271 0.0
C364 C 0.57659 0.9202 0.89115 0.0
C365 C 0.60407 0.96787 0.8787 0.0
C366 C 0.57332 0.96156 0.86574 0.0
N367 N 0.60598 0.9421 0.8949 0.0
N368 N 0.556 0.93174 0.87377 0.0
H369 H 0.56838 0.89798 0.902 0.0
H370 H 0.62183 0.99144 0.87729 0.0
C371 C 0.68261 1.01358 0.91975 0.0
O372 O 0.69287 1.0109 0.94067 0.0
N373 N 0.65954 0.94341 0.95155 0.0
C374 C 0.64136 0.93927 0.97111 0.0
C375 C 0.66561 0.93582 0.98833 0.0
C376 C 0.6954 0.94026 0.95728 0.0
N377 N 0.69946 0.93663 0.97974 0.0
C378 C 0.56283 0.94937 0.94244 0.0
C379 C 0.57186 0.01887 0.96 0.0
C380 C 0.54224 0.99755 0.96707 0.0
C381 C 0.53693 0.96303 0.95749 0.0
C382 C 0.597 1.00427 0.94478 0.0
N383 N 0.59323 0.96931 0.93688 0.0
H384 H 0.55989 0.92145 0.93686 0.0
H385 H 0.62068 0.02027 0.94085 0.0
H386 H 0.61219 0.93668 0.97291 0.0
H387 H 0.71781 0.94028 0.94542 0.0
O388 O 0.62055 0.89297 0.92871 0.0
O389 O 0.67011 0.91025 0.91036 0.0
O390 O 0.65851 0.99149 0.91172 0.0
C391 C 0.65002 0.88354 0.91788 0.0
H392 H 0.56295 0.97912 0.85259 0.0
H393 H 0.65901 0.93189 1.00582 0.0
H394 H 0.57665 0.04573 0.96717 0.0
H395 H 0.51431 0.94585 0.96272 0.0
Co396 Co 0.84174 0.14247 0.85232 0.0
C397 C 0.85746 0.21402 0.8761 0.0
C398 C 0.82407 0.17805 0.89562 0.0
C399 C 0.82869 0.21032 0.9073 0.0
N400 N 0.84077 0.18067 0.87556 0.0
N401 N 0.84974 0.23301 0.89504 0.0
H402 H 0.87541 0.22435 0.86324 0.0
H403 H 0.81021 0.15399 0.90179 0.0
C404 C 0.76375 0.12716 0.87102 0.0
O405 O 0.75271 0.16107 0.8679 0.0
N406 N 0.84288 0.10383 0.82998 0.0
C407 C 0.83974 0.06799 0.8351 0.0
C408 C 0.84043 0.04781 0.81573 0.0
C409 C 0.84555 0.10506 0.80736 0.0
N410 N 0.84412 0.07097 0.79835 0.0
C411 C 0.83314 0.20443 0.82363 0.0
C412 C 0.76643 0.18622 0.80503 0.0
C413 C 0.78452 0.21791 0.79757 0.0
C414 C 0.81822 0.22683 0.80707 0.0
C415 C 0.78247 0.16438 0.8218 0.0
N416 N 0.81507 0.17416 0.83139 0.0
H417 H 0.86029 0.21072 0.82933 0.0
H418 H 0.76939 0.13894 0.82631 0.0
H419 H 0.8367 0.05728 0.85187 0.0
H420 H 0.84816 0.13006 0.79773 0.0
O421 O 0.89147 0.15654 0.84437 0.0
O422 O 0.87706 0.11508 0.86977 0.0
O423 O 0.79618 0.11757 0.86528 0.0
C424 C 0.90258 0.13227 0.85879 0.0
H425 H 0.81786 0.21648 0.92374 0.0
H426 H 0.83807 0.01829 0.8144 0.0
H427 H 0.74071 0.17798 0.79756 0.0
H428 H 0.83342 0.25051 0.80129 0.0
Co429 Co 0.64454 0.1011 0.60431 0.0
C430 C 0.58107 0.11048 0.63449 0.0
C431 C 0.62465 0.08405 0.65202 0.0
C432 C 0.59397 0.08491 0.66572 0.0
N433 N 0.61586 0.09839 0.63193 0.0
N434 N 0.56659 0.1015 0.65446 0.0
H435 H 0.56597 0.12567 0.62216 0.0
H436 H 0.6513 0.07344 0.65643 0.0
C437 C 0.66725 0.02543 0.62229 0.0
O438 O 0.63254 1.01602 0.62315 0.0
N439 N 0.67028 0.10544 0.57602 0.0
C440 C 0.6528 0.11726 0.55747 0.0
C441 C 0.67583 0.11515 0.53956 0.0
C442 C 0.70449 0.09661 0.56909 0.0
N443 N 0.70824 0.10233 0.54675 0.0
C444 C 0.57592 0.08714 0.5823 0.0
C445 C 0.59788 0.02404 0.56059 0.0
C446 C 0.56469 0.04047 0.5546 0.0
C447 C 0.55329 0.07178 0.56603 0.0
C448 C 0.6196 0.04012 0.57721 0.0
N449 N 0.60857 0.07131 0.58808 0.0
H450 H 0.56889 0.1141 0.58804 0.0
H451 H 0.64677 0.0293 0.57966 0.0
H452 H 0.6248 0.1268 0.55693 0.0
H453 H 0.726 0.08665 0.57996 0.0
O454 O 0.62439 0.15013 0.59934 0.0
O455 O 0.67557 0.1383 0.61752 0.0
O456 O 0.67608 0.05675 0.61389 0.0
C457 C 0.65257 0.16275 0.61024 0.0
H458 H 0.59179 0.07377 0.68245 0.0
H459 H 0.66971 0.12333 0.52255 0.0
H460 H 0.60798 1.00041 0.55151 0.0
H461 H 0.52843 0.08591 0.56115 0.0
Co462 Co 0.68692 0.88919 0.35227 0.0
C463 C 0.67361 0.82617 0.38207 0.0
C464 C 0.708 0.86459 0.39892 0.0
C465 C 0.70487 0.83324 0.41199 0.0
N466 N 0.68924 0.85962 0.37968 0.0
N467 N 0.6832 0.80916 0.40116 0.0
H468 H 0.65609 0.81343 0.3699 0.0
H469 H 0.72338 0.88883 0.40322 0.0
C470 C 0.76266 0.91756 0.36989 0.0
O471 O 0.77653 0.88431 0.37009 0.0
N472 N 0.68308 0.91528 0.32402 0.0
C473 C 0.67443 0.8972 0.30503 0.0
C474 C 0.67443 0.92098 0.28747 0.0
C475 C 0.68726 0.95073 0.31772 0.0
N476 N 0.68221 0.95457 0.29532 0.0
C477 C 0.70344 0.82005 0.33116 0.0
C478 C 0.76559 0.84287 0.30889 0.0
C479 C 0.75027 0.80878 0.30344 0.0
C480 C 0.71942 0.79709 0.3152 0.0
C481 C 0.74888 0.86499 0.32524 0.0
N482 N 0.71801 0.8536 0.33629 0.0
H483 H 0.67705 0.81219 0.33731 0.0
H484 H 0.75891 0.89258 0.3274 0.0
H485 H 0.66793 0.86836 0.30399 0.0
H486 H 0.69255 0.97312 0.32913 0.0
O487 O 0.63787 0.86911 0.34616 0.0
O488 O 0.64866 0.91945 0.36536 0.0
O489 O 0.7298 0.92241 0.36254 0.0
C490 C 0.62459 0.89707 0.35708 0.0
H491 H 0.71823 0.82816 0.42785 0.0
H492 H 0.66761 0.91455 0.27028 0.0
H493 H 0.78896 0.8532 0.29969 0.0
H494 H 0.7062 0.77143 0.31095 0.0
Co495 Co 0.8838 0.93238 0.09759 0.0
C496 C 0.94808 0.92389 0.12685 0.0
C497 C 0.90662 0.95522 0.14354 0.0
C498 C 0.93794 0.95515 0.15661 0.0
N499 N 0.91321 0.93591 0.12469 0.0
N500 N 0.96395 0.93571 0.14584 0.0
H501 H 0.96234 0.90766 0.11456 0.0
H502 H 0.88151 0.96974 0.14723 0.0
C503 C 0.83124 1.0008 0.10138 0.0
O504 O 0.82241 1.00166 0.08014 0.0
N505 N 0.8573 0.92724 0.06935 0.0
C506 C 0.87468 0.91611 0.05054 0.0
C507 C 0.85055 0.9144 0.03317 0.0
C508 C 0.82169 0.93031 0.06314 0.0
N509 N 0.81741 0.92357 0.04096 0.0
C510 C 0.95116 0.94143 0.07362 0.0
C511 C 0.93734 1.01068 0.05701 0.0
C512 C 0.96603 0.99005 0.04784 0.0
C513 C 0.97368 0.95567 0.05691 0.0
C514 C 0.91524 0.99529 0.07378 0.0
N515 N 0.92129 0.96036 0.0813 0.0
H516 H 0.95571 0.91338 0.07847 0.0
H517 H 0.89225 1.01093 0.07956 0.0
H518 H 0.90317 0.90872 0.04938 0.0
H519 H 0.79952 0.93717 0.07434 0.0
O520 O 0.9021 0.88247 0.09328 0.0
O521 O 0.85182 0.89657 0.11154 0.0
O522 O 0.85533 0.97797 0.10859 0.0
C523 C 0.87396 0.87105 0.10467 0.0
H524 H 0.94189 0.9696 0.17223 0.0
H525 H 0.85673 0.9071 0.01602 0.0
H526 H 0.93092 0.03761 0.05045 0.0
H527 H 0.99564 0.93899 0.05018 0.0
Co528 Co 0.69061 0.64997 0.85152 0.0
C529 C 0.67513 0.71444 0.88012 0.0
C530 C 0.70913 0.67605 0.89746 0.0
C531 C 0.70657 0.70773 0.91011 0.0
N532 N 0.68971 0.68043 0.87841 0.0
N533 N 0.68513 0.73177 0.89908 0.0
H534 H 0.65908 0.72753 0.86729 0.0
H535 H 0.72555 0.65231 0.90157 0.0
C536 C 0.75891 0.59968 0.85768 0.0
O537 O 0.75989 0.58968 0.83664 0.0
N538 N 0.6909 0.62158 0.82358 0.0
C539 C 0.68925 0.63771 0.80321 0.0
C540 C 0.68759 0.61172 0.78686 0.0
C541 C 0.68866 0.58507 0.81905 0.0
N542 N 0.68732 0.57869 0.79664 0.0
C543 C 0.69846 0.71813 0.82821 0.0
C544 C 0.77025 0.70924 0.81479 0.0
C545 C 0.74933 0.73762 0.80544 0.0
C546 C 0.71354 0.74271 0.81292 0.0
C547 C 0.75409 0.68514 0.83026 0.0
N548 N 0.71808 0.68889 0.83618 0.0
H549 H 0.66968 0.72074 0.83172 0.0
H550 H 0.77009 0.66245 0.83625 0.0
H551 H 0.68761 0.66666 0.80002 0.0
H552 H 0.68757 0.56387 0.8317 0.0
O553 O 0.64033 0.66494 0.84447 0.0
O554 O 0.65486 0.61694 0.86492 0.0
O555 O 0.73642 0.62453 0.86429 0.0
C556 C 0.62916 0.63733 0.85646 0.0
H557 H 0.72047 0.71323 0.92574 0.0
H558 H 0.68525 0.61662 0.76905 0.0
H559 H 0.79814 0.7046 0.80931 0.0
H560 H 0.69655 0.76419 0.80589 0.0
Co561 Co 0.64803 0.43005 0.10154 0.0
C562 C 0.58259 0.43532 0.13082 0.0
C563 C 0.63117 0.42815 0.1503 0.0
C564 C 0.60106 0.42495 0.16426 0.0
N565 N 0.61964 0.43467 0.1292 0.0
N566 N 0.57064 0.42941 0.15184 0.0
H567 H 0.56405 0.43758 0.11694 0.0
H568 H 0.65934 0.42373 0.15502 0.0
C569 C 0.67447 0.50155 0.1234 0.0
O570 O 0.6423 0.50502 0.13297 0.0
N571 N 0.6734 0.42368 0.07318 0.0
C572 C 0.65733 0.40731 0.05545 0.0
C573 C 0.68034 0.40836 0.03747 0.0
C574 C 0.7066 0.43467 0.06559 0.0
N575 N 0.7112 0.42541 0.04376 0.0
C576 C 0.58229 0.43807 0.07624 0.0
C577 C 0.59763 0.50642 0.05879 0.0
C578 C 0.56961 0.48544 0.04921 0.0
C579 C 0.56129 0.45142 0.05858 0.0
C580 C 0.6182 0.4919 0.07651 0.0
N581 N 0.61113 0.45763 0.08471 0.0
H582 H 0.57663 0.4107 0.08213 0.0
H583 H 0.64103 0.50743 0.08249 0.0
H584 H 0.6303 0.39539 0.05539 0.0
H585 H 0.7267 0.44904 0.07559 0.0
O586 O 0.62823 0.38048 0.09854 0.0
O587 O 0.68009 0.39368 0.11519 0.0
O588 O 0.67993 0.47538 0.10925 0.0
C589 C 0.65717 0.36847 0.10887 0.0
H590 H 0.6014 0.41768 0.18181 0.0
H591 H 0.67506 0.39729 0.02098 0.0
H592 H 0.60459 0.53304 0.05197 0.0
H593 H 0.53963 0.43458 0.05166 0.0
Co594 Co 0.83978 0.38596 0.34971 0.0
C595 C 0.84106 0.32137 0.38003 0.0
C596 C 0.83902 0.37118 0.39886 0.0
C597 C 0.84317 0.34203 0.41356 0.0
N598 N 0.83736 0.3582 0.37773 0.0
N599 N 0.84436 0.31083 0.40152 0.0
H600 H 0.84364 0.30223 0.36649 0.0
H601 H 0.83952 0.39994 0.40318 0.0
C602 C 0.76751 0.41143 0.37153 0.0
O603 O 0.76312 0.37887 0.38053 0.0
N604 N 0.84342 0.41112 0.32109 0.0
C605 C 0.85426 0.39408 0.30216 0.0
C606 C 0.85363 0.41831 0.28477 0.0
C607 C 0.83701 0.44632 0.31491 0.0
N608 N 0.843 0.4511 0.29266 0.0
C609 C 0.83226 0.31797 0.32614 0.0
C610 C 0.76178 0.32852 0.31082 0.0
C611 C 0.78262 0.29961 0.30205 0.0
C612 C 0.81784 0.29389 0.31032 0.0
C613 C 0.77734 0.35217 0.32674 0.0
N614 N 0.81252 0.34722 0.33401 0.0
H615 H 0.86054 0.31437 0.33086 0.0
H616 H 0.76167 0.3755 0.33201 0.0
H617 H 0.86367 0.36614 0.30101 0.0
H618 H 0.82927 0.46796 0.32635 0.0
O619 O 0.89011 0.3682 0.34567 0.0
O620 O 0.87531 0.41959 0.36269 0.0
O621 O 0.79417 0.4169 0.35782 0.0
C622 C 0.9011 0.39773 0.35589 0.0
H623 H 0.84713 0.34377 0.43146 0.0
H624 H 0.8623 0.41288 0.26776 0.0
H625 H 0.73444 0.33385 0.30458 0.0
H626 H 0.83481 0.27201 0.30375 0.0
Co627 Co 0.88202 0.59909 0.59712 0.0
C628 C 0.94466 0.61224 0.62837 0.0
C629 C 0.92853 0.5561 0.62812 0.0
C630 C 0.96119 0.55874 0.63936 0.0
N631 N 0.91718 0.58964 0.62143 0.0
N632 N 0.97162 0.59394 0.63919 0.0
H633 H 0.94714 0.64076 0.62373 0.0
H634 H 0.91732 0.5306 0.6227 0.0
C635 C 0.84747 0.52151 0.61 0.0
O636 O 0.8732 0.50152 0.60073 0.0
N637 N 0.85087 0.60932 0.57146 0.0
C638 C 0.86574 0.62435 0.5529 0.0
C639 C 0.84106 0.62344 0.53583 0.0
C640 C 0.81657 0.59929 0.56525 0.0
N641 N 0.81024 0.60775 0.54342 0.0
C642 C 0.94696 0.5822 0.57327 0.0
C643 C 0.91819 0.5295 0.54511 0.0
C644 C 0.95388 0.54229 0.54126 0.0
C645 C 0.96837 0.56856 0.55578 0.0
C646 C 0.89762 0.54392 0.56293 0.0
N647 N 0.91225 0.56971 0.57695 0.0
H648 H 0.95743 0.60474 0.58301 0.0
H649 H 0.86918 0.5362 0.56449 0.0
H650 H 0.89376 0.6336 0.55147 0.0
H651 H 0.79718 0.58562 0.57607 0.0
O652 O 0.90424 0.64779 0.59258 0.0
O653 O 0.85732 0.63684 0.61453 0.0
O654 O 0.84802 0.55684 0.60832 0.0
C655 C 0.87963 0.66094 0.60619 0.0
H656 H 0.97809 0.53605 0.64486 0.0
H657 H 0.84544 0.63309 0.51891 0.0
H658 H 0.90584 0.50974 0.53389 0.0
H659 H 0.99555 0.57961 0.55305 0.0
Co660 Co 0.67347 0.39761 0.67747 0.0
C661 C 0.66752 0.33264 0.64856 0.0
C662 C 0.69281 0.37558 0.62988 0.0
C663 C 0.69231 0.34404 0.61692 0.0
N664 N 0.67875 0.36791 0.65026 0.0
N665 N 0.67632 0.31709 0.62886 0.0
H666 H 0.65304 0.31798 0.66141 0.0
H667 H 0.70333 0.40179 0.62466 0.0
C668 C 0.74741 0.4239 0.65847 0.0
O669 O 0.7576 0.38986 0.65487 0.0
N670 N 0.66631 0.42387 0.70551 0.0
C671 C 0.64949 0.40785 0.72309 0.0
C672 C 0.65091 0.43061 0.74123 0.0
C673 C 0.6781 0.4567 0.71338 0.0
N674 N 0.66877 0.46124 0.73523 0.0
C675 C 0.68382 0.3305 0.70166 0.0
C676 C 0.7518 0.34598 0.71941 0.0
C677 C 0.73358 0.31401 0.72623 0.0
C678 C 0.69943 0.30625 0.71697 0.0
C679 C 0.73516 0.36962 0.70382 0.0
N680 N 0.70171 0.36148 0.69475 0.0
H681 H 0.65593 0.32541 0.69682 0.0
H682 H 0.74825 0.39543 0.70026 0.0
H683 H 0.63751 0.38077 0.72295 0.0
H684 H 0.69336 0.47647 0.70361 0.0
O685 O 0.6242 0.37717 0.68049 0.0
O686 O 0.63744 0.42836 0.66283 0.0
O687 O 0.71765 0.43042 0.66931 0.0
C688 C 0.61251 0.40508 0.66897 0.0
H689 H 0.70307 0.34107 0.60015 0.0
H690 H 0.63977 0.42518 0.75769 0.0
H691 H 0.77784 0.35339 0.7268 0.0
H692 H 0.68405 0.28246 0.72241 0.0
Co693 Co 0.89688 0.44413 0.92634 0.0
C694 C 0.95687 0.42189 0.89652 0.0
C695 C 0.92883 0.46842 0.88292 0.0
C696 C 0.96088 0.46308 0.87106 0.0
N697 N 0.92653 0.44281 0.8992 0.0
N698 N 0.97852 0.43403 0.87987 0.0
H699 H 0.96514 0.40037 0.90786 0.0
H700 H 0.91058 0.49151 0.88093 0.0
C701 C 0.84607 0.51207 0.92107 0.0
O702 O 0.83685 0.51231 0.94225 0.0
N703 N 0.86991 0.44416 0.95465 0.0
C704 C 0.88704 0.44287 0.97472 0.0
C705 C 0.86187 0.441 0.99152 0.0
C706 C 0.8338 0.44096 0.95977 0.0
N707 N 0.82851 0.44003 0.98226 0.0
C708 C 0.96728 0.45266 0.94737 0.0
C709 C 0.95595 0.52227 0.96425 0.0
C710 C 0.98612 0.50201 0.97191 0.0
C711 C 0.99237 0.46737 0.96264 0.0
C712 C 0.93156 0.50664 0.94877 0.0
N713 N 0.93649 0.47158 0.94117 0.0
H714 H 0.97113 0.42466 0.94219 0.0
H715 H 0.90756 0.522 0.94425 0.0
H716 H 0.91617 0.44174 0.97733 0.0
H717 H 0.81215 0.43879 0.94752 0.0
O718 O 0.91157 0.39345 0.93274 0.0
O719 O 0.86284 0.40933 0.91333 0.0
O720 O 0.87105 0.49014 0.91398 0.0
C721 C 0.88353 0.3831 0.9208 0.0
H722 H 0.97207 0.48121 0.85845 0.0
H723 H 0.86755 0.43924 1.00927 0.0
H724 H 0.95033 0.54924 0.97102 0.0
H725 H 1.01532 0.45088 0.96818 0.0
Co726 Co 0.85224 0.63721 0.17593 0.0
C727 C 0.85219 0.70434 0.14812 0.0
C728 C 0.84392 0.6569 0.12777 0.0
C729 C 0.84455 0.68763 0.11414 0.0
N730 N 0.84716 0.6676 0.14925 0.0
N731 N 0.85025 0.71747 0.12705 0.0
H732 H 0.85855 0.72153 0.1622 0.0
H733 H 0.84258 0.62866 0.12237 0.0
C734 C 0.77808 0.61411 0.1558 0.0
O735 O 0.77141 0.64818 0.14993 0.0
N736 N 0.85909 0.60957 0.2034 0.0
C737 C 0.8773 0.62384 0.22102 0.0
C738 C 0.87507 0.60036 0.23876 0.0
C739 C 0.84611 0.57688 0.21073 0.0
N740 N 0.8557 0.57085 0.23239 0.0
C741 C 0.84673 0.70223 0.20274 0.0
C742 C 0.77689 0.69096 0.21896 0.0
C743 C 0.79797 0.71954 0.22792 0.0
C744 C 0.83301 0.72538 0.21935 0.0
C745 C 0.79175 0.66824 0.20224 0.0
N746 N 0.82639 0.67393 0.19421 0.0
H747 H 0.87473 0.70618 0.19756 0.0
H748 H 0.77592 0.64507 0.19681 0.0
H749 H 0.8913 0.64991 0.22111 0.0
H750 H 0.83021 0.55809 0.20064 0.0
O751 O 0.90262 0.65504 0.17855 0.0
O752 O 0.88615 0.60519 0.16022 0.0
O753 O 0.80621 0.60688 0.16805 0.0
C754 C 0.91231 0.62676 0.16667 0.0
H755 H 0.84233 0.68787 0.09608 0.0
H756 H 0.88742 0.60417 0.25506 0.0
H757 H 0.7498 0.68533 0.22548 0.0
H758 H 0.85024 0.7469 0.22608 0.0
Co759 Co 0.63308 0.59487 0.42175 0.0
C760 C 0.5694 0.59732 0.39098 0.0
C761 C 0.61934 0.59587 0.37234 0.0
C762 C 0.59036 0.6007 0.35759 0.0
N763 N 0.60615 0.59334 0.39338 0.0
N764 N 0.55907 0.60153 0.36953 0.0
H765 H 0.55015 0.59946 0.40448 0.0
H766 H 0.6481 0.59638 0.36812 0.0
C767 C 0.65901 0.52319 0.39939 0.0
O768 O 0.62685 0.5197 0.38979 0.0
N769 N 0.65681 0.59798 0.45089 0.0
C770 C 0.63872 0.60981 0.46923 0.0
C771 C 0.66139 0.60879 0.48733 0.0
C772 C 0.69123 0.59063 0.45819 0.0
N773 N 0.69437 0.59701 0.48053 0.0
C774 C 0.56465 0.58619 0.44472 0.0
C775 C 0.57489 0.51459 0.45829 0.0
C776 C 0.54599 0.53488 0.46741 0.0
C777 C 0.54035 0.5707 0.46003 0.0
C778 C 0.59872 0.5312 0.44296 0.0
N779 N 0.59399 0.56692 0.43658 0.0
H780 H 0.56119 0.6148 0.44063 0.0
H781 H 0.622 0.51576 0.43749 0.0
H782 H 0.61112 0.62024 0.46949 0.0
H783 H 0.7135 0.58196 0.44747 0.0
O784 O 0.61527 0.64528 0.42589 0.0
O785 O 0.66725 0.6306 0.40963 0.0
O786 O 0.66426 0.54932 0.41355 0.0
C787 C 0.64526 0.6564 0.41622 0.0
H788 H 0.59228 0.60528 0.33975 0.0
H789 H 0.65485 0.61803 0.50408 0.0
H790 H 0.58012 0.48681 0.46387 0.0
H791 H 0.51843 0.58723 0.46693 0.0
Co792 Co 0.35585 0.39565 0.17855 0.0
C793 C 0.34537 0.33115 0.14918 0.0
C794 C 0.36065 0.37856 0.13024 0.0
C795 C 0.36312 0.3481 0.11657 0.0
N796 N 0.35022 0.36782 0.15091 0.0
N797 N 0.35388 0.3184 0.12869 0.0
H798 H 0.33872 0.31317 0.16285 0.0
H799 H 0.3689 0.4061 0.12583 0.0
C800 C 0.28499 0.42224 0.15683 0.0
O801 O 0.27956 0.38903 0.14903 0.0
N802 N 0.36283 0.42112 0.2066 0.0
C803 C 0.38021 0.40579 0.22422 0.0
C804 C 0.37908 0.42939 0.24198 0.0
C805 C 0.35134 0.45427 0.21388 0.0
N806 N 0.36109 0.45971 0.23549 0.0
C807 C 0.34602 0.3293 0.20377 0.0
C808 C 0.27636 0.34341 0.21955 0.0
C809 C 0.2955 0.3131 0.22815 0.0
C810 C 0.33054 0.30596 0.21977 0.0
C811 C 0.29297 0.3663 0.20352 0.0
N812 N 0.3275 0.35919 0.1957 0.0
H813 H 0.37358 0.32365 0.19824 0.0
H814 H 0.27849 0.39052 0.19834 0.0
H815 H 0.39289 0.37902 0.22424 0.0
H816 H 0.33634 0.47381 0.2038 0.0
O817 O 0.40533 0.37512 0.18155 0.0
O818 O 0.39251 0.42708 0.16448 0.0
O819 O 0.31147 0.42814 0.17061 0.0
C820 C 0.4173 0.40383 0.1709 0.0
H821 H 0.37334 0.34746 0.09958 0.0
H822 H 0.39089 0.42498 0.25837 0.0
H823 H 0.24928 0.35002 0.22575 0.0
H824 H 0.34629 0.28294 0.226 0.0
Co825 Co 0.39756 0.58894 0.92624 0.0
C826 C 0.46357 0.60652 0.8996 0.0
C827 C 0.42019 0.58648 0.87866 0.0
C828 C 0.45089 0.5922 0.86558 0.0
N829 N 0.42822 0.59542 0.89999 0.0
N830 N 0.47805 0.60459 0.87884 0.0
H831 H 0.47873 0.61507 0.91425 0.0
H832 H 0.3941 0.57586 0.87308 0.0
C833 C 0.36186 0.51278 0.91917 0.0
O834 O 0.36072 0.50495 0.94053 0.0
N835 N 0.36791 0.58189 0.9535 0.0
C836 C 0.37702 0.55904 0.97049 0.0
C837 C 0.35235 0.56201 0.98751 0.0
C838 C 0.33703 0.59893 0.96093 0.0
N839 N 0.32725 0.58692 0.98162 0.0
C840 C 0.45583 0.58742 0.9575 0.0
C841 C 0.47433 0.51422 0.95368 0.0
C842 C 0.48876 0.53498 0.97141 0.0
C843 C 0.48047 0.57223 0.9726 0.0
C844 C 0.44981 0.53076 0.93855 0.0
N845 N 0.43926 0.56644 0.94147 0.0
H846 H 0.44807 0.61563 0.95994 0.0
H847 H 0.43786 0.51436 0.92545 0.0
H848 H 0.39956 0.54014 0.97063 0.0
H849 H 0.32244 0.61994 0.95177 0.0
O850 O 0.40644 0.64014 0.93395 0.0
O851 O 0.36049 0.62083 0.91332 0.0
O852 O 0.37787 0.54181 0.91212 0.0
C853 C 0.37811 0.64848 0.92181 0.0
H854 H 0.45336 0.58709 0.84781 0.0
H855 H 0.35276 0.54706 1.00316 0.0
H856 H 0.48059 0.48529 0.9522 0.0
H857 H 0.49135 0.58906 0.98598 0.0
Co858 Co 0.18246 0.62368 0.67201 0.0
C859 C 0.1827 0.69949 0.6538 0.0
C860 C 0.19617 0.65996 0.62862 0.0
C861 C 0.194 0.69395 0.61872 0.0
N862 N 0.19066 0.66348 0.65081 0.0
N863 N 0.18483 0.71885 0.63445 0.0
H864 H 0.17358 0.71092 0.66956 0.0
H865 H 0.19993 0.63419 0.62 0.0
C866 C 0.25552 0.60089 0.649 0.0
O867 O 0.2628 0.63421 0.64209 0.0
N868 N 0.17316 0.58368 0.6933 0.0
C869 C 0.14276 0.56267 0.69478 0.0
C870 C 0.14568 0.53976 0.71287 0.0
C871 C 0.19489 0.57175 0.71027 0.0
N872 N 0.17829 0.54545 0.72274 0.0
C873 C 0.18753 0.65923 0.71388 0.0
C874 C 0.25814 0.68574 0.7108 0.0
C875 C 0.23687 0.69502 0.72955 0.0
C876 C 0.20128 0.68124 0.731 0.0
C877 C 0.24312 0.66367 0.69383 0.0
N878 N 0.20812 0.65073 0.69549 0.0
H879 H 0.15987 0.64902 0.71538 0.0
H880 H 0.25945 0.65788 0.67936 0.0
H881 H 0.11948 0.5635 0.68371 0.0
H882 H 0.22185 0.58265 0.71379 0.0
O883 O 0.13419 0.64432 0.67724 0.0
O884 O 0.14671 0.60281 0.65151 0.0
O885 O 0.22767 0.59433 0.66158 0.0
C886 C 0.12224 0.62352 0.66125 0.0
H887 H 0.19666 0.69963 0.60102 0.0
H888 H 0.12522 0.52034 0.71849 0.0
H889 H 0.28582 0.69602 0.70912 0.0
H890 H 0.18407 0.68772 0.74523 0.0
Co891 Co 0.13327 0.44513 0.41854 0.0
C892 C 0.07432 0.4249 0.38702 0.0
C893 C 0.10192 0.47326 0.37576 0.0
C894 C 0.07043 0.46861 0.36319 0.0
N895 N 0.10432 0.44594 0.39096 0.0
N896 N 0.05302 0.43833 0.37047 0.0
H897 H 0.06611 0.40201 0.39734 0.0
H898 H 0.11974 0.49687 0.37503 0.0
C899 C 0.19221 0.49394 0.4012 0.0
O900 O 0.21217 0.46405 0.40151 0.0
N901 N 0.15907 0.44334 0.44719 0.0
C902 C 0.141 0.43629 0.46646 0.0
C903 C 0.1651 0.43484 0.48385 0.0
C904 C 0.19488 0.44481 0.45328 0.0
N905 N 0.19891 0.44002 0.47569 0.0
C906 C 0.06246 0.45287 0.43875 0.0
C907 C 0.07518 0.51988 0.45889 0.0
C908 C 0.04419 0.49962 0.46515 0.0
C909 C 0.03736 0.46634 0.45437 0.0
C910 C 0.09976 0.50539 0.44311 0.0
N911 N 0.09379 0.4717 0.43372 0.0
H912 H 0.05803 0.42574 0.43219 0.0
H913 H 0.1249 0.52002 0.43987 0.0
H914 H 0.11211 0.43071 0.46786 0.0
H915 H 0.2175 0.44763 0.4418 0.0
O916 O 0.11775 0.39436 0.42367 0.0
O917 O 0.16739 0.41024 0.40547 0.0
O918 O 0.15928 0.49284 0.40895 0.0
C919 C 0.14661 0.38394 0.41258 0.0
H920 H 0.05954 0.48771 0.35103 0.0
H921 H 0.15864 0.42831 0.50108 0.0
H922 H 0.0814 0.54563 0.46707 0.0
H923 H 1.01382 0.44988 0.45892 0.0
Co924 Co 0.34512 0.65099 0.34785 0.0
C925 C 0.36193 0.71226 0.37795 0.0
C926 C 0.32965 0.67208 0.39507 0.0
C927 C 0.33331 0.70255 0.4087 0.0
N928 N 0.34742 0.67842 0.37565 0.0
N929 N 0.35368 0.72767 0.3978 0.0
H930 H 0.37655 0.72653 0.3649 0.0
H931 H 0.31367 0.64789 0.39876 0.0
C932 C 0.27422 0.6046 0.35029 0.0
O933 O 0.26964 0.60716 0.32855 0.0
N934 N 0.34316 0.62536 0.31927 0.0
C935 C 0.34226 0.64188 0.299 0.0
C936 C 0.34235 0.61594 0.28253 0.0
C937 C 0.34471 0.58906 0.31463 0.0
N938 N 0.34379 0.58292 0.2923 0.0
C939 C 0.33789 0.72015 0.32538 0.0
C940 C 0.26365 0.71773 0.31704 0.0
C941 C 0.28506 0.74383 0.30578 0.0
C942 C 0.32227 0.74591 0.31095 0.0
C943 C 0.28042 0.69249 0.33164 0.0
N944 N 0.31762 0.69221 0.33444 0.0
H945 H 0.36716 0.72099 0.32747 0.0
H946 H 0.26333 0.67287 0.33999 0.0
H947 H 0.34277 0.67086 0.29585 0.0
H948 H 0.34724 0.5678 0.32716 0.0
O949 O 0.3954 0.66622 0.34064 0.0
O950 O 0.38157 0.61623 0.35925 0.0
O951 O 0.29983 0.62313 0.35983 0.0
C952 C 0.40706 0.63719 0.35108 0.0
H953 H 0.32076 0.70659 0.42492 0.0
H954 H 0.34274 0.62084 0.26466 0.0
H955 H 0.23446 0.71608 0.31398 0.0
H956 H 0.33961 0.76604 0.30287 0.0
Co957 Co 0.15226 0.60352 0.10347 0.0
C958 C 0.08083 0.59265 0.12549 0.0
C959 C 0.12398 0.59521 0.14969 0.0
C960 C 0.09084 0.59719 0.16076 0.0
N961 N 0.11786 0.59205 0.12749 0.0
N962 N 0.06382 0.5961 0.14546 0.0
H963 H 0.06648 0.59423 0.10972 0.0
H964 H 0.15045 0.59979 0.15719 0.0
C965 C 0.179 0.53049 0.12323 0.0
O966 O 0.14715 0.52573 0.13293 0.0
N967 N 0.18381 0.6176 0.07843 0.0
C968 C 0.17757 0.64759 0.06561 0.0
C969 C 0.20085 0.64765 0.04772 0.0
C970 C 0.21096 0.59932 0.06763 0.0
N971 N 0.22176 0.6175 0.04891 0.0
C972 C 0.09874 0.60351 0.06853 0.0
C973 C 0.09754 0.52911 0.0599 0.0
C974 C 0.07654 0.55258 0.04641 0.0
C975 C 0.07714 0.59013 0.05102 0.0
C976 C 0.11901 0.54368 0.07731 0.0
N977 N 0.11965 0.58059 0.0814 0.0
H978 H 0.0989 0.63266 0.07153 0.0
H979 H 0.13521 0.52511 0.08718 0.0
H980 H 0.15664 0.66797 0.06841 0.0
H981 H 0.2218 0.57305 0.07282 0.0
O982 O 0.1324 0.65345 0.10438 0.0
O983 O 0.18063 0.63474 0.12342 0.0
O984 O 0.18348 0.55688 0.10908 0.0
C985 C 0.15903 0.66152 0.118 0.0
H986 H 0.08693 0.60212 0.17845 0.0
H987 H 0.20194 0.66792 0.0345 0.0
H988 H 0.09762 0.49984 0.05683 0.0
H989 H 0.06115 0.60906 0.04104 0.0
Co990 Co 0.19148 0.39167 0.85548 0.0
C991 C 0.17858 0.31573 0.873 0.0
C992 C 0.21681 0.34584 0.89314 0.0
C993 C 0.21247 0.31147 0.90229 0.0
N994 N 0.19578 0.3486 0.87467 0.0
N995 N 0.18827 0.29258 0.88977 0.0
H996 H 0.15953 0.3088 0.8598 0.0
H997 H 0.23395 0.36738 0.89979 0.0
C998 C 0.26594 0.42951 0.85966 0.0
O999 O 0.26876 0.43359 0.83794 0.0
N1000 N 0.18698 0.43527 0.8361 0.0
C1001 C 0.16648 0.4653 0.84047 0.0
C1002 C 0.1668 0.48834 0.82234 0.0
C1003 C 0.20034 0.44146 0.81517 0.0
N1004 N 0.18803 0.47344 0.80637 0.0
C1005 C 0.19227 0.35508 0.81347 0.0
C1006 C 0.26233 0.32662 0.81601 0.0
C1007 C 0.24035 0.31776 0.79749 0.0
C1008 C 0.20495 0.3323 0.79638 0.0
C1009 C 0.2484 0.3494 0.83294 0.0
N1010 N 0.21397 0.36384 0.8313 0.0
H1011 H 0.1648 0.36591 0.81233 0.0
H1012 H 0.26492 0.35464 0.84757 0.0
H1013 H 0.15159 0.47044 0.85565 0.0
H1014 H 0.21845 0.42304 0.80631 0.0
O1015 O 0.1401 0.38041 0.84977 0.0
O1016 O 0.15989 0.4137 0.87778 0.0
O1017 O 0.23936 0.41135 0.86814 0.0
C1018 C 0.13196 0.39988 0.86736 0.0
H1019 H 0.22561 0.30122 0.91728 0.0
H1020 H 0.15224 0.51411 0.82087 0.0
H1021 H 0.28969 0.31542 0.81754 0.0
H1022 H 0.18714 0.32587 0.78243 0.0
Co1023 Co 0.38175 0.42004 0.59333 0.0
C1024 C 0.44824 0.41973 0.62188 0.0
C1025 C 0.40081 0.4341 0.64093 0.0
C1026 C 0.431 0.43449 0.65493 0.0
N1027 N 0.4119 0.42618 0.61997 0.0
N1028 N 0.46075 0.42511 0.64284 0.0
H1029 H 0.46557 0.41011 0.6086 0.0
H1030 H 0.37269 0.43903 0.64576 0.0
C1031 C 0.35999 0.49492 0.61157 0.0
O1032 O 0.39494 0.50335 0.61259 0.0
N1033 N 0.35382 0.41248 0.56605 0.0
C1034 C 0.36834 0.39478 0.54829 0.0
C1035 C 0.345 0.39736 0.5305 0.0
C1036 C 0.32133 0.42582 0.55869 0.0
N1037 N 0.31559 0.41679 0.53693 0.0
C1038 C 0.44723 0.43205 0.56788 0.0
C1039 C 0.42597 0.4972 0.54825 0.0
C1040 C 0.45858 0.48052 0.54134 0.0
C1041 C 0.46936 0.44782 0.55148 0.0
C1042 C 0.40468 0.48058 0.5649 0.0
N1043 N 0.41576 0.44875 0.57501 0.0
H1044 H 0.45429 0.40493 0.57352 0.0
H1045 H 0.37819 0.49218 0.56843 0.0
H1046 H 0.39491 0.38173 0.54801 0.0
H1047 H 0.30271 0.44199 0.56872 0.0
O1048 O 0.40283 0.37125 0.58953 0.0
O1049 O 0.35272 0.38347 0.60887 0.0
O1050 O 0.35029 0.46447 0.60242 0.0
C1051 C 0.37586 0.35912 0.60164 0.0
H1052 H 0.431 0.44047 0.67267 0.0
H1053 H 0.34927 0.38604 0.51395 0.0
H1054 H 0.4163 0.52196 0.54016 0.0
H1055 H 0.49379 0.43359 0.54593 0.0
C1056 C 0.18838 0.29837 0.38525 0.0
C1057 C 0.17448 0.26964 0.39882 0.0
C1058 C 0.14587 0.31604 0.42304 0.0
C1059 C 0.15527 0.34434 0.40769 0.0
N1060 N 0.17569 0.3583 0.37 0.0
N1061 N 0.12936 0.25219 0.42643 0.0
C1062 C 0.17369 0.33438 0.38754 0.0
C1063 C 0.15001 0.27874 0.41649 0.0
N1064 N 0.21659 0.29195 0.37081 0.0
N1065 N 0.13482 0.3242 0.44429 0.0
H1066 H 0.12905 0.22514 0.42083 0.0
H1067 H 0.10914 0.25815 0.43821 0.0
H1068 H 0.13462 0.35074 0.45072 0.0
H1069 H 0.13048 0.30403 0.45637 0.0
H1070 H 0.22941 0.31288 0.36187 0.0
H1071 H 0.22997 0.26675 0.36981 0.0
H1072 H 0.1866 0.35093 0.35452 0.0
H1073 H 0.1621 0.38343 0.3698 0.0
C1074 C 1.00308 0.94059 0.6398 0.0
C1075 C 0.03022 0.93108 0.65574 0.0
C1076 C 0.9816 0.91119 0.68132 0.0
C1077 C 0.95498 0.91545 0.66402 0.0
N1078 N 0.94406 0.92481 0.62446 0.0
N1079 N 0.04545 0.89966 0.6899 0.0
C1080 C 0.96672 0.92754 0.64257 0.0
C1081 C 0.01955 0.91416 0.67603 0.0
N1082 N 1.01173 0.96301 0.6223 0.0
N1083 N 0.97105 0.90627 0.70301 0.0
H1084 H 0.07333 0.9002 0.68616 0.0
H1085 H 0.0389 0.88386 0.70386 0.0
H1086 H 0.94385 0.90648 0.7081 0.0
H1087 H 0.98951 0.9064 0.71631 0.0
H1088 H 0.9922 0.97306 0.61116 0.0
H1089 H 0.03751 0.975 0.62057 0.0
H1090 H 0.95272 0.93057 0.60822 0.0
H1091 H 0.91839 0.91237 0.62516 0.0
C1092 C 0.35401 0.6974 0.89523 0.0
C1093 C 0.36792 0.68757 0.91669 0.0
C1094 C 0.37031 0.75325 0.92626 0.0
C1095 C 0.35214 0.76223 0.906 0.0
N1096 N 0.31637 0.74046 0.87483 0.0
N1097 N 0.3792 0.70705 0.9548 0.0
C1098 C 0.34068 0.73351 0.89165 0.0
C1099 C 0.37309 0.71576 0.9329 0.0
N1100 N 0.35566 0.6735 0.87767 0.0
N1101 N 0.38647 0.78012 0.93868 0.0
H1102 H 0.37871 0.6802 0.96074 0.0
H1103 H 0.3802 0.72674 0.96742 0.0
H1104 H 0.3868 0.80752 0.93374 0.0
H1105 H 0.40287 0.7745 0.95253 0.0
H1106 H 0.34845 0.68102 0.86142 0.0
H1107 H 0.36871 0.64818 0.87847 0.0
H1108 H 0.3051 0.71977 0.86496 0.0
H1109 H 0.30414 0.76607 0.87264 0.0
C1110 C 0.55476 0.14712 0.14815 0.0
C1111 C 0.57433 0.12098 0.16106 0.0
C1112 C 0.5196 0.08154 0.16217 0.0
C1113 C 0.49937 0.10881 0.15071 0.0
N1114 N 0.49581 0.16997 0.13575 0.0
N1115 N 0.57382 0.06611 0.18365 0.0
C1116 C 0.51647 0.14232 0.14456 0.0
C1117 C 0.55631 0.08891 0.16898 0.0
N1118 N 0.57305 0.17563 0.13837 0.0
N1119 N 0.50409 0.04797 0.16571 0.0
H1120 H 0.60053 0.0706 0.18912 0.0
H1121 H 0.5609 0.04454 0.19189 0.0
H1122 H 0.47739 0.0418 0.16079 0.0
H1123 H 0.51851 0.02542 0.17178 0.0
H1124 H 0.56125 0.19322 0.1267 0.0
H1125 H 0.60105 0.17994 0.14041 0.0
H1126 H 0.50548 0.19652 0.13331 0.0
H1127 H 0.46798 0.16713 0.13254 0.0
C1128 C 0.14044 0.71685 0.14069 0.0
C1129 C 0.16576 0.69978 0.12597 0.0
C1130 C 0.20267 0.7563 0.12569 0.0
C1131 C 0.17486 0.77456 0.13784 0.0
N1132 N 0.117 0.77304 0.15695 0.0
N1133 N 0.22151 0.70301 0.1043 0.0
C1134 C 0.14381 0.75494 0.14553 0.0
C1135 C 0.19729 0.71933 0.11862 0.0
N1136 N 0.11417 0.69618 0.15091 0.0
N1137 N 0.23468 0.77441 0.12147 0.0
H1138 H 0.21995 0.6755 0.09979 0.0
H1139 H 0.24228 0.71701 0.096 0.0
H1140 H 0.23918 0.8013 0.12679 0.0
H1141 H 0.25777 0.76215 0.11453 0.0
H1142 H 0.09704 0.70582 0.16353 0.0
H1143 H 0.11177 0.66817 0.14816 0.0
H1144 H 0.09127 0.76202 0.16028 0.0
H1145 H 0.12006 0.79991 0.16239 0.0
C1146 C 0.52135 0.88662 0.36965 0.0
C1147 C 0.50955 0.92341 0.3675 0.0
C1148 C 0.57069 0.94062 0.35397 0.0
C1149 C 0.58416 0.90486 0.35914 0.0
N1150 N 0.57213 0.84468 0.37444 0.0
N1151 N 0.5232 0.98639 0.35976 0.0
C1152 C 0.55931 0.87788 0.36739 0.0
C1153 C 0.53426 0.95063 0.36011 0.0
N1154 N 0.49595 0.86001 0.37384 0.0
N1155 N 0.59222 0.96467 0.34242 0.0
H1156 H 0.49651 0.99429 0.36375 0.0
H1157 H 0.54097 1.0083 0.35711 0.0
H1158 H 0.61844 0.95809 0.33692 0.0
H1159 H 0.58279 0.98965 0.33623 0.0
H1160 H 0.50179 0.83207 0.37343 0.0
H1161 H 0.46814 0.86593 0.37571 0.0
H1162 H 0.55618 0.82555 0.38294 0.0
H1163 H 0.59954 0.83739 0.37356 0.0
C1164 C 0.33112 0.26507 0.60835 0.0
C1165 C 0.35994 0.24477 0.61819 0.0
C1166 C 0.39929 0.29932 0.61759 0.0
C1167 C 0.37107 0.31931 0.6066 0.0
N1168 N 0.31308 0.31885 0.58718 0.0
N1169 N 0.42333 0.23965 0.62821 0.0
C1170 C 0.33777 0.3015 0.60073 0.0
C1171 C 0.39466 0.26108 0.62153 0.0
N1172 N 0.29703 0.24987 0.60707 0.0
N1173 N 0.42964 0.31714 0.62537 0.0
H1174 H 0.42056 0.21156 0.6311 0.0
H1175 H 0.4503 0.24886 0.6289 0.0
H1176 H 0.43382 0.34514 0.62323 0.0
H1177 H 0.44916 0.30488 0.63563 0.0
H1178 H 0.27377 0.26451 0.60238 0.0
H1179 H 0.29158 0.22315 0.61234 0.0
H1180 H 0.29008 0.30599 0.58053 0.0
H1181 H 0.31731 0.34513 0.58081 0.0
C1182 C 0.967 0.12022 0.84383 0.0
C1183 C 0.94225 0.12338 0.86225 0.0
C1184 C 0.98971 0.09826 0.88685 0.0
C1185 C 0.01565 0.09999 0.86931 0.0
N1186 N 0.0306 0.1183 0.83187 0.0
N1187 N 0.9348 0.1247 0.90247 0.0
C1188 C 1.00477 0.11282 0.84801 0.0
C1189 C 0.95501 0.11517 0.88414 0.0
N1190 N 0.95445 0.12187 0.82234 0.0
N1191 N 0.99748 0.07869 0.90568 0.0
H1192 H 0.91052 0.13967 0.9014 0.0
H1193 H 0.94453 0.12169 0.91877 0.0
H1194 H 0.02126 0.06305 0.90707 0.0
H1195 H 0.97841 0.07419 0.91837 0.0
H1196 H 0.97089 0.11615 0.80852 0.0
H1197 H 0.92695 0.1249 0.81824 0.0
H1198 H 0.02492 0.13111 0.81668 0.0
H1199 H 0.05832 0.11291 0.83456 0.0
C1200 C 0.856 0.74745 0.63964 0.0
C1201 C 0.86397 0.77611 0.62433 0.0
C1202 C 0.88132 0.72958 0.59635 0.0
C1203 C 0.87695 0.70104 0.61248 0.0
N1204 N 0.87112 0.68601 0.65173 0.0
N1205 N 0.89337 0.79425 0.5901 0.0
C1206 C 0.86757 0.71094 0.63481 0.0
C1207 C 0.87944 0.76707 0.60328 0.0
N1208 N 0.83573 0.75454 0.65834 0.0
N1209 N 0.88514 0.72139 0.57419 0.0
H1210 H 0.89372 0.82166 0.59509 0.0
H1211 H 0.90809 0.78906 0.5755 0.0
H1212 H 0.88482 0.69478 0.56801 0.0
H1213 H 0.88467 0.74128 0.56168 0.0
H1214 H 0.82643 0.73395 0.66901 0.0
H1215 H 0.82461 0.78026 0.66174 0.0
H1216 H 0.86756 0.69291 0.66851 0.0
H1217 H 0.88209 0.65991 0.64934 0.0
C1218 C 0.0341 0.13863 0.39024 0.0
C1219 C 0.01748 0.10639 0.38176 0.0
C1220 C 0.07769 0.08486 0.369 0.0
C1221 C 0.09313 0.11985 0.37412 0.0
N1222 N 0.0852 0.18094 0.3889 0.0
N1223 N 0.02227 0.04962 0.36191 0.0
C1224 C 0.071 0.14705 0.38447 0.0
C1225 C 0.03905 0.07962 0.37092 0.0
N1226 N 1.01498 0.16028 0.40472 0.0
N1227 N 0.09973 0.05646 0.36258 0.0
H1228 H 0.99421 0.04492 0.36366 0.0
H1229 H 0.03548 0.03092 0.35151 0.0
H1230 H 0.128 0.05871 0.361 0.0
H1231 H 0.09043 0.02965 0.36075 0.0
H1232 H 0.02627 0.18261 0.41309 0.0
H1233 H 0.98899 0.15315 0.41036 0.0
H1234 H 0.06929 0.2032 0.3939 0.0
H1235 H 0.11268 0.18744 0.38644 0.0
C1236 C 0.69601 0.27875 0.13297 0.0
C1237 C 0.67686 0.2519 0.12051 0.0
C1238 C 0.65022 0.30101 0.09777 0.0
C1239 C 0.66409 0.32814 0.11281 0.0
N1240 N 0.69269 0.3392 0.1489 0.0
N1241 N 0.62845 0.23861 0.09437 0.0
C1242 C 0.68509 0.31609 0.13156 0.0
C1243 C 0.65182 0.2633 0.10384 0.0
N1244 N 0.72495 0.26865 0.14603 0.0
N1245 N 0.63742 0.31051 0.07713 0.0
H1246 H 0.62752 0.21114 0.09914 0.0
H1247 H 0.60736 0.24642 0.08361 0.0
H1248 H 0.63933 0.33691 0.07074 0.0
H1249 H 0.62972 0.29115 0.0652 0.0
H1250 H 0.74173 0.28764 0.15409 0.0
H1251 H 0.7346 0.24173 0.14665 0.0
H1252 H 0.70536 0.33041 0.16358 0.0
H1253 H 0.68202 0.3655 0.15011 0.0
C1254 C 0.47311 0.89529 0.84286 0.0
C1255 C 0.44598 0.89693 0.86 0.0
C1256 C 0.49086 0.9261 0.88485 0.0
C1257 C 0.51883 0.92049 0.86882 0.0
N1258 N 0.53808 0.89473 0.83383 0.0
N1259 N 0.43273 0.90524 0.89931 0.0
C1260 C 0.51037 0.90349 0.84818 0.0
C1261 C 0.45596 0.90978 0.8816 0.0
N1262 N 0.46324 0.88809 0.82127 0.0
N1263 N 0.49708 0.94859 0.90267 0.0
H1264 H 0.40783 0.8914 0.89801 0.0
H1265 H 0.44015 0.91133 0.91573 0.0
H1266 H 0.52146 0.96313 0.90452 0.0
H1267 H 0.47668 0.95618 0.91396 0.0
H1268 H 0.48128 0.89032 0.80784 0.0
H1269 H 0.43631 0.88334 0.81638 0.0
H1270 H 0.53427 0.87895 0.81949 0.0
H1271 H 0.56542 0.90075 0.83735 0.0
C1272 C 0.87712 0.27754 0.92202 0.0
C1273 C 0.86049 0.27022 0.90099 0.0
C1274 C 0.86626 0.33557 0.89168 0.0
C1275 C 0.87701 0.34384 0.91405 0.0
N1276 N 0.88601 0.32176 0.95178 0.0
N1277 N 0.83156 0.29466 0.86793 0.0
C1278 C 0.88077 0.31454 0.9296 0.0
C1279 C 0.85295 0.29991 0.88638 0.0
N1280 N 0.89062 0.24922 0.93444 0.0
N1281 N 0.87035 0.36103 0.87511 0.0
H1282 H 0.81937 0.26959 0.86416 0.0
H1283 H 0.82256 0.31622 0.85787 0.0
H1284 H 0.88267 0.38645 0.87768 0.0
H1285 H 0.8658 0.35506 0.85829 0.0
H1286 H 0.90586 0.25312 0.94898 0.0
H1287 H 0.89014 0.22214 0.92882 0.0
H1288 H 0.88542 0.30141 0.96402 0.0
H1289 H 0.88699 0.34826 0.95827 0.0
C1290 C 0.51729 0.12486 0.67971 0.0
C1291 C 0.52824 0.10495 0.6605 0.0
C1292 C 0.46413 0.10194 0.6484 0.0
C1293 C 0.45241 0.11816 0.66886 0.0
N1294 N 0.46901 0.1358 0.70661 0.0
N1295 N 0.51063 0.0653 0.63018 0.0
C1296 C 0.47932 0.12707 0.68531 0.0
C1297 C 0.50114 0.09057 0.646 0.0
N1298 N 0.54289 0.14281 0.6922 0.0
N1299 N 0.44082 0.0993 0.63062 0.0
H1300 H 0.53714 0.05487 0.62879 0.0
H1301 H 0.49141 0.05166 0.62034 0.0
H1302 H 0.41448 0.11011 0.63072 0.0
H1303 H 0.44929 0.09064 0.61483 0.0
H1304 H 0.53604 0.16076 0.70511 0.0
H1305 H 0.5707 0.14248 0.68825 0.0
H1306 H 0.48775 0.13934 0.71958 0.0
H1307 H 0.44192 0.13516 0.71199 0.0
C1308 C 0.67162 0.70774 0.39253 0.0
C1309 C 0.65457 0.69632 0.4128 0.0
C1310 C 0.65538 0.76085 0.42545 0.0
C1311 C 0.67598 0.77093 0.40634 0.0
N1312 N 0.71217 0.75156 0.3749 0.0
N1313 N 0.63842 0.7121 0.45092 0.0
C1314 C 0.68674 0.74354 0.39091 0.0
C1315 C 0.64862 0.72291 0.42997 0.0
N1316 N 0.6716 0.68536 0.37423 0.0
N1317 N 0.64124 0.78751 0.43894 0.0
H1318 H 0.63514 0.68474 0.45542 0.0
H1319 H 0.63716 0.73003 0.46446 0.0
H1320 H 0.64549 0.81536 0.43595 0.0
H1321 H 0.6228 0.78204 0.45181 0.0
H1322 H 0.68077 0.69381 0.35855 0.0
H1323 H 0.65818 0.66025 0.37395 0.0
H1324 H 0.7234 0.7318 0.36433 0.0
H1325 H 0.72506 0.77704 0.37398 0.0
C1326 C 0.01725 0.89693 0.15536 0.0
C1327 C 1.00234 0.93211 0.1514 0.0
C1328 C 0.06313 0.95949 0.15726 0.0
C1329 C 0.07869 0.9238 0.15955 0.0
N1330 N 0.07132 0.8588 0.15385 0.0
N1331 N 1.01255 0.99578 0.14299 0.0
C1332 C 0.05589 0.89254 0.15674 0.0
C1333 C 0.0257 0.96313 0.15079 0.0
N1334 N 0.99432 0.86772 0.15805 0.0
N1335 N 0.08335 0.99002 0.16201 0.0
H1336 H 0.98565 0.99914 0.13752 0.0
H1337 H 0.02919 0.01839 0.13983 0.0
H1338 H 0.11078 0.98925 0.16665 0.0
H1339 H 0.07197 1.01616 0.16316 0.0
H1340 H 1.00334 0.84188 0.16307 0.0
H1341 H 0.96587 0.87031 0.15728 0.0
H1342 H 0.05632 0.83541 0.14984 0.0
H1343 H 0.09954 0.85532 0.15256 0.0
C1344 C 0.68692 0.79768 0.88894 0.0
C1345 C 0.67809 0.76985 0.90457 0.0
C1346 C 0.656 0.81725 0.9305 0.0
C1347 C 0.65963 0.84428 0.91345 0.0
N1348 N 0.67001 0.85686 0.87416 0.0
N1349 N 0.64765 0.75268 0.93872 0.0
C1350 C 0.6728 0.83362 0.89201 0.0
C1351 C 0.66081 0.77949 0.92498 0.0
N1352 N 0.70983 0.79011 0.87149 0.0
N1353 N 0.64961 0.82747 0.95213 0.0
H1354 H 0.6496 0.72488 0.93482 0.0
H1355 H 0.63166 0.75821 0.95276 0.0
H1356 H 0.64787 0.85476 0.95718 0.0
H1357 H 0.65016 0.80899 0.96542 0.0
H1358 H 0.71951 0.81022 0.8606 0.0
H1359 H 0.72254 0.76469 0.86955 0.0
H1360 H 0.67638 0.84888 0.85787 0.0
H1361 H 0.65717 0.88235 0.87503 0.0
C1362 C 0.4752 0.44153 0.17562 0.0
C1363 C 0.45729 0.41017 0.16656 0.0
C1364 C 0.51616 0.38911 0.15111 0.0
C1365 C 0.53311 0.422 0.15823 0.0
N1366 N 0.52855 0.48158 0.17491 0.0
N1367 N 0.45958 0.35843 0.14157 0.0
C1368 C 0.51254 0.44876 0.16992 0.0
C1369 C 0.47755 0.38495 0.15331 0.0
N1370 N 0.45689 0.46382 0.19019 0.0
N1371 N 0.53725 0.36162 0.14245 0.0
H1372 H 0.4312 0.3564 0.1416 0.0
H1373 H 0.47224 0.34131 0.12996 0.0
H1374 H 0.5656 0.36392 0.14076 0.0
H1375 H 0.52722 0.33551 0.13894 0.0
H1376 H 0.46938 0.48488 0.19912 0.0
H1377 H 0.42967 0.4595 0.1947 0.0
H1378 H 0.51426 0.50401 0.18123 0.0
H1379 H 0.55593 0.48713 0.1712 0.0
C1380 C 0.8357 0.21331 0.42275 0.0
C1381 C 0.87136 0.19945 0.41791 0.0
C1382 C 0.89034 0.26175 0.40659 0.0
C1383 C 0.8539 0.27427 0.40899 0.0
N1384 N 0.79086 0.26186 0.417 0.0
N1385 N 0.93095 0.21004 0.40158 0.0
C1386 C 0.8263 0.24998 0.41648 0.0
C1387 C 0.89838 0.22368 0.40907 0.0
N1388 N 0.81124 0.19203 0.43417 0.0
N1389 N 0.91733 0.28652 0.40194 0.0
H1390 H 0.93717 0.18232 0.40206 0.0
H1391 H 0.95019 0.22547 0.39282 0.0
H1392 H 0.912 0.3144 0.39968 0.0
H1393 H 0.94512 0.28012 0.40228 0.0
H1394 H 0.78628 0.20175 0.44016 0.0
H1395 H 0.81723 0.16553 0.43956 0.0
H1396 H 0.76861 0.24461 0.41982 0.0
H1397 H 0.7836 0.28879 0.41308 0.0
C1398 C 0.03601 0.60463 0.62761 0.0
C1399 C 1.00825 0.6065 0.64412 0.0
C1400 C 0.05468 0.62026 0.6725 0.0
C1401 C 0.08235 0.62106 0.65552 0.0
N1402 N 0.09589 0.6255 0.61606 0.0
N1403 N 0.98959 0.62329 0.68108 0.0
C1404 C 0.07194 0.61681 0.63279 0.0
C1405 C 0.01717 0.61702 0.66615 0.0
N1406 N 0.02858 0.58948 0.60728 0.0
N1407 N 0.06384 0.61977 0.69467 0.0
H1408 H 0.96205 0.62012 0.6768 0.0
H1409 H 0.99386 0.63471 0.69684 0.0
H1410 H 0.09054 0.62024 0.70063 0.0
H1411 H 0.04486 0.61511 0.70735 0.0
H1412 H 0.04865 0.58425 0.5953 0.0
H1413 H 1.00308 0.57851 0.60345 0.0
H1414 H 0.08846 0.62581 0.59923 0.0
H1415 H 0.12168 0.63665 0.61913 0.0
C1416 C 0.68439 0.25133 0.63828 0.0
C1417 C 0.67185 0.27862 0.62321 0.0
C1418 C 0.65077 0.22981 0.59796 0.0
C1419 C 0.65824 0.20289 0.61466 0.0
N1420 N 0.67294 0.19118 0.65352 0.0
N1421 N 0.63568 0.29347 0.59076 0.0
C1422 C 0.6725 0.21451 0.63564 0.0
C1423 C 0.65293 0.26779 0.60358 0.0
N1424 N 0.70859 0.26031 0.65479 0.0
N1425 N 0.64337 0.21953 0.57648 0.0
H1426 H 0.63533 0.32124 0.59488 0.0
H1427 H 0.61858 0.28664 0.57744 0.0
H1428 H 0.64378 0.19236 0.57117 0.0
H1429 H 0.64103 0.2383 0.56341 0.0
H1430 H 0.72077 0.24079 0.66515 0.0
H1431 H 0.71978 0.2865 0.65633 0.0
H1432 H 0.68031 0.1996 0.66956 0.0
H1433 H 0.66154 0.16499 0.65306 0.0
C1434 C 0.08142 0.44092 0.88463 0.0
C1435 C 0.09267 0.40739 0.87402 0.0
C1436 C 0.02772 0.39262 0.86701 0.0
C1437 C 0.01694 0.4254 0.87761 0.0
N1438 N 0.03219 0.47512 0.90222 0.0
N1439 N 0.07436 0.34593 0.86374 0.0
C1440 C 0.04342 0.44789 0.88806 0.0
C1441 C 0.06514 0.38167 0.86763 0.0
N1442 N 0.10614 0.467 0.89106 0.0
N1443 N 1.00203 0.37193 0.85627 0.0
H1444 H 0.10059 0.33581 0.86667 0.0
H1445 H 0.05514 0.32541 0.86071 0.0
H1446 H 0.97436 0.37914 0.856 0.0
H1447 H 1.00863 0.34954 0.84621 0.0
H1448 H 0.09857 0.49395 0.8946 0.0
H1449 H 0.1341 0.46309 0.89258 0.0
H1450 H 0.04993 0.48936 0.91275 0.0
H1451 H 1.0047 0.4812 0.9051 0.0
C1452 C 0.8373 0.78383 0.13267 0.0
C1453 C 0.85494 0.7556 0.12039 0.0
C1454 C 0.87972 0.80283 0.09528 0.0
C1455 C 0.86758 0.83114 0.10998 0.0
N1456 N 0.84417 0.8451 0.14706 0.0
N1457 N 0.90192 0.74044 0.09345 0.0
C1458 C 0.84892 0.82075 0.12994 0.0
C1459 C 0.87875 0.76563 0.10262 0.0
N1460 N 0.8088 0.7757 0.14656 0.0
N1461 N 0.89059 0.81073 0.07397 0.0
H1462 H 0.9045 0.71384 0.0996 0.0
H1463 H 0.92176 0.74748 0.08166 0.0
H1464 H 0.88843 0.83677 0.06696 0.0
H1465 H 0.89708 0.79035 0.06239 0.0
H1466 H 0.79349 0.79589 0.15465 0.0
H1467 H 0.79775 0.7494 0.14774 0.0
H1468 H 0.83293 0.83747 0.16241 0.0
H1469 H 0.85603 0.87107 0.14725 0.0
C1470 C 0.46104 0.59278 0.34941 0.0
C1471 C 0.44736 0.62868 0.35402 0.0
C1472 C 0.51025 0.64777 0.36411 0.0
C1473 C 0.5225 0.61114 0.36212 0.0
N1474 N 0.5095 0.54784 0.35512 0.0
N1475 N 0.45914 0.68899 0.36932 0.0
C1476 C 0.49784 0.58341 0.35533 0.0
C1477 C 0.47215 0.65598 0.36206 0.0
N1478 N 0.43945 0.568 0.33851 0.0
N1479 N 0.53531 0.67479 0.36808 0.0
H1480 H 0.4316 0.69579 0.36907 0.0
H1481 H 0.47508 0.7083 0.37767 0.0
H1482 H 0.56315 0.66933 0.37021 0.0
H1483 H 0.52913 0.70265 0.36733 0.0
H1484 H 0.44893 0.54284 0.33265 0.0
H1485 H 0.41295 0.574 0.33332 0.0
H1486 H 0.49203 0.52557 0.35291 0.0
H1487 H 0.53652 0.54057 0.3587 0.0
C1488 C 0.33731 0.26434 0.1057 0.0
C1489 C 0.35912 0.28036 0.12268 0.0
C1490 C 0.38697 0.22048 0.13043 0.0
C1491 C 0.36824 0.20519 0.11191 0.0
N1492 N 0.32654 0.21265 0.08097 0.0
N1493 N 0.40925 0.27497 0.14878 0.0
C1494 C 0.34367 0.2272 0.09923 0.0
C1495 C 0.38521 0.25876 0.13436 0.0
N1496 N 0.30938 0.28427 0.09656 0.0
N1497 N 0.40503 0.19815 0.14504 0.0
H1498 H 0.40869 0.30274 0.1525 0.0
H1499 H 0.43178 0.26141 0.15558 0.0
H1500 H 0.40628 0.16998 0.14289 0.0
H1501 H 0.41565 0.20704 0.16028 0.0
H1502 H 0.28994 0.27337 0.0857 0.0
H1503 H 0.30388 0.31124 0.10128 0.0
H1504 H 0.31177 0.22816 0.06946 0.0
H1505 H 0.32863 0.18509 0.07668 0.0
C1506 C 0.57581 0.59291 0.85913 0.0
C1507 C 0.58919 0.62953 0.86077 0.0
C1508 C 0.52689 0.64981 0.87118 0.0
C1509 C 0.51528 0.61295 0.87233 0.0
N1510 N 0.52964 0.54881 0.87062 0.0
N1511 N 0.57747 0.69227 0.87212 0.0
C1512 C 0.54004 0.58432 0.86718 0.0
C1513 C 0.56464 0.65794 0.86762 0.0
N1514 N 0.59648 0.56659 0.84889 0.0
N1515 N 0.50153 0.67716 0.87314 0.0
H1516 H 0.60474 0.69945 0.87044 0.0
H1517 H 0.56172 0.7127 0.87958 0.0
H1518 H 0.47381 0.67188 0.87593 0.0
H1519 H 0.50733 0.70465 0.87001 0.0
H1520 H 0.58676 0.5404 0.84528 0.0
H1521 H 0.62187 0.57207 0.84172 0.0
H1522 H 0.54765 0.52672 0.86948 0.0
H1523 H 0.5037 0.5418 0.87655 0.0
C1524 C 0.19003 0.78577 0.64338 0.0
C1525 C 0.17504 0.75696 0.63034 0.0
C1526 C 0.15057 0.80272 0.60416 0.0
C1527 C 0.1619 0.8318 0.61849 0.0
N1528 N 0.18137 0.8481 0.65599 0.0
N1529 N 0.1297 0.73987 0.60295 0.0
C1530 C 0.17839 0.82255 0.6394 0.0
C1531 C 0.15172 0.76602 0.61218 0.0
N1532 N 0.2164 0.77857 0.65893 0.0
N1533 N 0.1408 0.8093 0.58249 0.0
H1534 H 0.12766 0.71348 0.60957 0.0
H1535 H 0.11023 0.74588 0.59073 0.0
H1536 H 0.14302 0.83489 0.57493 0.0
H1537 H 0.13513 0.78823 0.57122 0.0
H1538 H 0.23029 0.79925 0.66748 0.0
H1539 H 0.22716 0.75244 0.66149 0.0
H1540 H 0.19077 0.84163 0.67198 0.0
H1541 H 0.16987 0.8742 0.65485 0.0
C1542 C 0.9671 0.40344 0.34188 0.0
C1543 C 0.94094 0.40672 0.35953 0.0
C1544 C 0.98822 0.43624 0.3827 0.0
C1545 C 1.01512 0.42863 0.36632 0.0
N1546 N 0.03151 0.4007 0.33145 0.0
N1547 N 0.9304 0.41838 0.39884 0.0
C1548 C 1.00491 0.41086 0.34624 0.0
C1549 C 0.95258 0.42098 0.38054 0.0
N1550 N 0.95583 0.39544 0.32066 0.0
N1551 N 0.99638 0.45925 0.39998 0.0
H1552 H 0.90521 0.40516 0.39844 0.0
H1553 H 0.93893 0.42531 0.41493 0.0
H1554 H 0.02163 0.47241 0.40126 0.0
H1555 H 0.97692 0.46847 0.41143 0.0
H1556 H 0.97317 0.39634 0.30684 0.0
H1557 H 0.92849 0.39158 0.31638 0.0
H1558 H 0.02648 0.38422 0.31755 0.0
H1559 H 0.05916 0.40646 0.33417 0.0
C1560 C 0.38073 0.77349 0.42387 0.0
C1561 C 0.36087 0.76527 0.40415 0.0
C1562 C 0.36416 0.8298 0.39315 0.0
C1563 C 0.37979 0.83913 0.41421 0.0
N1564 N 0.39459 0.81933 0.45184 0.0
N1565 N 0.3249 0.78759 0.37326 0.0
C1566 C 0.38587 0.81083 0.43024 0.0
C1567 C 0.34988 0.79408 0.38979 0.0
N1568 N 0.39573 0.74576 0.43615 0.0
N1569 N 0.36464 0.85418 0.37582 0.0
H1570 H 0.31223 0.7622 0.37117 0.0
H1571 H 0.31368 0.80843 0.36348 0.0
H1572 H 0.37761 0.87948 0.37679 0.0
H1573 H 0.35636 0.84729 0.35967 0.0
H1574 H 0.41354 0.75035 0.44949 0.0
H1575 H 0.39322 0.71827 0.43163 0.0
H1576 H 0.39592 0.79973 0.4645 0.0
H1577 H 0.3964 0.84612 0.4577 0.0
C1578 C 0.97127 0.6435 0.14712 0.0
C1579 C 0.95136 0.61893 0.16096 0.0
C1580 C 1.00444 0.57724 0.1617 0.0
C1581 C 0.02536 0.60325 0.14963 0.0
N1582 N 0.03033 0.66323 0.13303 0.0
N1583 N 0.95035 0.56461 0.18398 0.0
C1584 C 1.00917 0.63693 0.14286 0.0
C1585 C 0.96828 0.58628 0.16888 0.0
N1586 N 0.95362 0.67236 0.13725 0.0
N1587 N 0.01903 0.54337 0.16571 0.0
H1588 H 0.924 0.57034 0.18971 0.0
H1589 H 0.96256 0.54266 0.19225 0.0
H1590 H 0.0453 0.5361 0.16045 0.0
H1591 H 1.00421 0.52161 0.17241 0.0
H1592 H 0.96539 0.68881 0.12497 0.0
H1593 H 0.92603 0.67814 0.13997 0.0
H1594 H 0.02155 0.69003 0.13031 0.0
H1595 H 0.05768 0.65907 0.12893 0.0
C1596 C 0.16669 0.19127 0.88374 0.0
C1597 C 0.1571 0.18209 0.90617 0.0
C1598 C 0.15974 0.24766 0.91568 0.0
C1599 C 0.17517 0.25575 0.89446 0.0
N1600 N 0.19947 0.23337 0.85961 0.0
N1601 N 0.15134 0.20202 0.9446 0.0
C1602 C 0.18023 0.22704 0.87879 0.0
C1603 C 0.15527 0.21045 0.92246 0.0
N1604 N 0.16138 0.16652 0.8669 0.0
N1605 N 0.14846 0.27567 0.92916 0.0
H1606 H 0.14996 0.17521 0.95056 0.0
H1607 H 0.15348 0.22153 0.95727 0.0
H1608 H 0.14989 0.30307 0.9242 0.0
H1609 H 0.13404 0.27148 0.94398 0.0
H1610 H 0.16488 0.17309 0.85007 0.0
H1611 H 0.14936 0.14093 0.86943 0.0
H1612 H 0.20714 0.21251 0.84865 0.0
H1613 H 0.2109 0.2588 0.85581 0.0
C1614 C 0.52705 0.43752 0.63775 0.0
C1615 C 0.4984 0.42103 0.65019 0.0
C1616 C 0.5441 0.39846 0.67695 0.0
C1617 C 0.57303 0.40992 0.66253 0.0
N1618 N 0.58935 0.43044 0.62522 0.0
N1619 N 0.48146 0.37704 0.6785 0.0
C1620 C 0.56382 0.42671 0.64177 0.0
C1621 C 0.50737 0.39894 0.66893 0.0
N1622 N 0.51937 0.46422 0.62247 0.0
N1623 N 0.55098 0.3888 0.6986 0.0
H1624 H 0.45499 0.37464 0.67214 0.0
H1625 H 0.48762 0.35811 0.69101 0.0
H1626 H 0.57672 0.39098 0.70592 0.0
H1627 H 0.53016 0.38313 0.71003 0.0
H1628 H 0.53975 0.47896 0.6142 0.0
H1629 H 0.493 0.47456 0.62012 0.0
H1630 H 0.58276 0.4401 0.60931 0.0
H1631 H 0.61558 0.41931 0.62623 0.0
C1632 C 0.21288 1.00703 0.28596 0.0
C1633 C 0.21137 0.04566 0.28471 0.0
C1634 C 0.21379 0.0425 0.24383 0.0
C1635 C 0.20704 1.00443 0.24519 0.0
N1636 N 0.20469 0.9489 0.26657 0.0
N1637 N 0.21535 0.10105 0.26339 0.0
C1638 C 0.20914 0.98604 0.26601 0.0
C1639 C 0.21459 0.06365 0.26383 0.0
N1640 N 0.21589 0.99098 0.30648 0.0
N1641 N 0.21758 0.05813 0.22323 0.0
H1642 H 0.21644 0.11654 0.27806 0.0
H1643 H 0.21436 0.11669 0.24886 0.0
H1644 H 0.21656 0.04245 0.20862 0.0
H1645 H 0.22411 0.08556 0.22061 0.0
H1646 H 0.2187 0.9629 0.30903 0.0
H1647 H 0.21811 1.00666 0.32104 0.0
H1648 H 0.20261 0.93356 0.28118 0.0
H1649 H 0.20249 0.93334 0.252 0.0
C1650 C 0.26472 0.89753 0.52393 0.0
C1651 C 0.24849 0.93 0.53228 0.0
C1652 C 0.28772 0.96662 0.50742 0.0
C1653 C 0.30157 0.93386 0.49787 0.0
N1654 N 0.29847 0.86849 0.49382 0.0
N1655 N 0.24033 0.9953 0.53008 0.0
C1656 C 0.28844 0.89939 0.50518 0.0
C1657 C 0.25889 0.96463 0.52354 0.0
N1658 N 0.25786 0.86497 0.5344 0.0
N1659 N 0.30299 0.99938 0.50157 0.0
H1660 H 0.21947 0.99451 0.54199 0.0
H1661 H 0.24399 0.02093 0.52274 0.0
H1662 H 0.32352 1.00141 0.48949 0.0
H1663 H 0.29687 0.02404 0.50953 0.0
H1664 H 0.27119 0.84058 0.53042 0.0
H1665 H 0.2413 0.8632 0.54859 0.0
H1666 H 0.28751 0.84266 0.49702 0.0
H1667 H 0.31522 0.86942 0.47968 0.0
C1668 C 0.31768 0.02372 0.75724 0.0
C1669 C 0.35173 0.0364 0.74894 0.0
C1670 C 0.38414 0.99298 0.77312 0.0
C1671 C 0.35016 0.97818 0.78004 0.0
N1672 N 0.28466 0.97572 0.77699 0.0
N1673 N 0.41698 0.03004 0.74603 0.0
C1674 C 0.31685 0.99262 0.77168 0.0
C1675 C 0.38489 0.02005 0.75607 0.0
N1676 N 0.28641 0.04225 0.75185 0.0
N1677 N 0.41557 0.98139 0.7833 0.0
H1678 H 0.41798 0.04935 0.73316 0.0
H1679 H 0.44191 0.01706 0.74898 0.0
H1680 H 0.41546 0.96198 0.79614 0.0
H1681 H 0.44113 0.99316 0.78052 0.0
H1682 H 0.26104 0.03684 0.75908 0.0
H1683 H 0.2864 0.06475 0.74107 0.0
H1684 H 0.25964 0.98242 0.7697 0.0
H1685 H 0.28345 0.95331 0.78782 0.0
C1686 C 0.26702 0.13575 0.01607 0.0
C1687 C 0.28886 0.10577 0.02308 0.0
C1688 C 0.2589 0.06636 0.99535 0.0
C1689 C 0.23865 0.09694 0.98752 0.0
N1690 N 0.22762 0.16168 0.9874 0.0
N1691 N 0.31077 0.04441 0.01702 0.0
C1692 C 0.24434 0.13204 0.99692 0.0
C1693 C 0.28628 0.0715 1.01204 0.0
N1694 N 0.26736 0.16739 0.02828 0.0
N1695 N 0.25075 0.03224 0.98745 0.0
H1696 H 0.33087 0.04745 0.02928 0.0
H1697 H 0.31278 0.02005 1.00801 0.0
H1698 H 0.23135 0.02805 0.97492 0.0
H1699 H 0.26156 1.0082 0.99415 0.0
H1700 H 0.24991 0.18944 0.02529 0.0
H1701 H 0.28299 0.17023 0.04278 0.0
H1702 H 0.23263 0.18866 0.99218 0.0
H1703 H 0.21107 0.15924 0.97324 0.0
C1704 C 0.81529 0.01874 0.74796 0.0
C1705 C 0.84985 1.01234 0.73795 0.0
C1706 C 0.87863 0.05569 0.76394 0.0
C1707 C 0.84473 0.05953 0.77521 0.0
N1708 N 0.77948 0.05371 0.77495 0.0
N1709 N 0.91177 0.03104 0.7319 0.0
C1710 C 0.81249 0.04428 0.76593 0.0
C1711 C 0.88053 0.03355 0.74433 0.0
N1712 N 0.78595 0.99827 0.74133 0.0
N1713 N 0.9093 0.071 0.773 0.0
H1714 H 0.91319 1.01447 0.71767 0.0
H1715 H 0.93485 0.04721 0.73449 0.0
H1716 H 0.90824 0.08765 0.78714 0.0
H1717 H 0.93572 0.06629 0.76713 0.0
H1718 H 0.76072 0.99841 0.74942 0.0
H1719 H 0.78744 0.97996 0.72796 0.0
H1720 H 0.75438 0.04568 0.76834 0.0
H1721 H 0.77746 0.07231 0.78819 0.0
C1722 C 0.77799 0.13307 0.50534 0.0
C1723 C 0.79326 0.0993 0.49833 0.0
C1724 C 0.75301 0.06657 0.52449 0.0
C1725 C 0.74034 0.10069 0.5328 0.0
N1726 N 0.74505 0.16626 0.53414 0.0
N1727 N 0.79915 0.03414 0.50278 0.0
C1728 C 0.75421 0.13392 0.52406 0.0
C1729 C 0.78171 0.06598 0.50829 0.0
N1730 N 0.78623 0.16429 0.49378 0.0
N1731 N 0.73676 0.03497 0.53162 0.0
H1732 H 0.81968 0.0331 0.49065 0.0
H1733 H 0.79478 1.00939 0.51105 0.0
H1734 H 0.71618 0.03483 0.54374 0.0
H1735 H 0.74208 1.00935 0.52465 0.0
H1736 H 0.77362 0.18946 0.49666 0.0
H1737 H 0.8034 0.1641 0.47984 0.0
H1738 H 0.75661 0.19141 0.52988 0.0
H1739 H 0.72835 0.16735 0.5483 0.0
C1740 C 0.70799 0.0339 0.25814 0.0
C1741 C 0.67408 0.03923 0.24708 0.0
C1742 C 0.64475 0.99549 0.27235 0.0
C1743 C 0.67923 0.98717 0.28188 0.0
N1744 N 0.74453 0.99493 0.28248 0.0
N1745 N 0.61167 0.0213 0.24095 0.0
C1746 C 0.71118 1.00556 0.27447 0.0
C1747 C 0.64287 0.01882 0.25345 0.0
N1748 N 0.73663 0.05669 0.25349 0.0
N1749 N 0.61378 0.98114 0.28168 0.0
H1750 H 0.61005 0.03763 0.22666 0.0
H1751 H 0.5888 1.00475 0.24344 0.0
H1752 H 0.61461 0.96425 0.29575 0.0
H1753 H 0.58741 0.98859 0.27687 0.0
H1754 H 0.76101 0.05673 0.26253 0.0
H1755 H 0.73497 0.07729 0.24142 0.0
H1756 H 0.76928 1.00457 0.27614 0.0
H1757 H 0.74734 0.97466 0.29467 0.0
C1758 C 0.74862 0.96546 1.00174 0.0
C1759 C 0.73204 0.93336 0.99311 0.0
C1760 C 0.76761 0.89562 0.01923 0.0
C1761 C 0.78566 0.92754 0.02693 0.0
N1762 N 0.79837 0.9919 0.02325 0.0
N1763 N 0.7274 0.86789 0.99149 0.0
C1764 C 0.77748 0.96228 0.01758 0.0
C1765 C 0.74218 0.89835 1.00124 0.0
N1766 N 0.73569 0.99898 0.99532 0.0
N1767 N 0.77478 0.8629 0.02945 0.0
H1768 H 0.70893 0.86964 0.97822 0.0
H1769 H 0.7351 0.84116 0.99534 0.0
H1770 H 0.79322 0.86068 0.04272 0.0
H1771 H 0.76096 0.83864 0.02596 0.0
H1772 H 0.74367 0.02353 1.00275 0.0
H1773 H 0.71507 1.00197 0.98339 0.0
H1774 H 0.7965 0.01725 0.01531 0.0
H1775 H 0.81948 0.99036 0.03496 0.0
C1776 C 0.7135 0.52563 0.77651 0.0
C1777 C 0.68239 0.54514 0.78424 0.0
C1778 C 0.64386 0.5128 0.75702 0.0
C1779 C 0.67457 0.49194 0.75005 0.0
N1780 N 0.73719 0.47379 0.75537 0.0
N1781 N 0.61743 0.55423 0.78453 0.0
C1782 C 0.70907 0.49705 0.76043 0.0
C1783 C 0.64732 0.5375 0.77533 0.0
N1784 N 0.74738 0.53554 0.78399 0.0
N1785 N 0.61169 0.50953 0.74554 0.0
H1786 H 0.61965 0.57249 0.7979 0.0
H1787 H 0.59053 0.54797 0.78025 0.0
H1788 H 0.6089 0.49217 0.73177 0.0
H1789 H 0.58884 0.52595 0.74837 0.0
H1790 H 0.7717 0.52535 0.77734 0.0
H1791 H 0.75102 0.55567 0.79618 0.0
H1792 H 0.76202 0.47351 0.76392 0.0
H1793 H 0.73469 0.45303 0.74346 0.0
C1794 C 0.78767 0.40143 1.00467 0.0
C1795 C 0.79546 0.43605 0.99513 0.0
C1796 C 0.7478 0.46435 0.01842 0.0
C1797 C 0.74229 0.4303 0.02928 0.0
N1798 N 0.759 0.36736 0.0349 0.0
N1799 N 0.78677 0.50128 0.99442 0.0
C1800 C 0.76286 0.39904 0.02294 0.0
C1801 C 0.77639 0.46778 1.00235 0.0
N1802 N 0.80424 0.37097 0.99603 0.0
N1803 N 0.72488 0.49297 0.02304 0.0
H1804 H 0.80714 0.50426 0.98234 0.0
H1805 H 0.77684 0.526 1.00068 0.0
H1806 H 0.70419 0.49124 0.03503 0.0
H1807 H 0.72484 0.51746 0.01408 0.0
H1808 H 0.79798 0.34429 1.00087 0.0
H1809 H 0.82245 0.37241 0.9826 0.0
H1810 H 0.77508 0.34413 0.0325 0.0
H1811 H 0.74138 0.36537 0.0486 0.0
C1812 C 0.81618 0.53045 0.25557 0.0
C1813 C 0.85089 0.53879 0.24621 0.0
C1814 C 0.88008 0.49549 0.27194 0.0
C1815 C 0.84526 0.48437 0.27974 0.0
N1816 N 0.77972 0.48772 0.27753 0.0
N1817 N 0.91481 0.52461 0.24236 0.0
C1818 C 0.81308 0.50098 0.27119 0.0
C1819 C 0.88254 0.51985 0.25354 0.0
N1820 N 0.7866 0.5515 0.25009 0.0
N1821 N 0.91079 0.48288 0.28248 0.0
H1822 H 0.91693 0.54146 0.22833 0.0
H1823 H 0.93829 0.50925 0.24556 0.0
H1824 H 0.90949 0.46558 0.29637 0.0
H1825 H 0.93708 0.49228 0.27891 0.0
H1826 H 0.76124 0.54924 0.25793 0.0
H1827 H 0.7882 0.57296 0.2386 0.0
H1828 H 0.75514 0.49596 0.27025 0.0
H1829 H 0.77696 0.46677 0.28929 0.0
C1830 C 0.74094 0.56606 0.50407 0.0
C1831 C 0.72644 0.59856 0.49455 0.0
C1832 C 0.76093 0.63545 0.52151 0.0
C1833 C 0.77802 0.60337 0.52975 0.0
N1834 N 0.78842 0.53843 0.5271 0.0
N1835 N 0.72723 0.66413 0.49124 0.0
C1836 C 0.76906 0.56862 0.5206 0.0
C1837 C 0.73797 0.63328 0.50242 0.0
N1838 N 0.72699 0.53296 0.49773 0.0
N1839 N 0.76657 0.66798 0.53228 0.0
H1840 H 0.7111 0.663 0.47685 0.0
H1841 H 0.73703 0.69026 0.49488 0.0
H1842 H 0.7828 0.66988 0.54661 0.0
H1843 H 0.75263 0.69206 0.52839 0.0
H1844 H 0.73356 0.50835 0.5056 0.0
H1845 H 0.70707 0.53055 0.4853 0.0
H1846 H 0.78592 0.51289 0.51946 0.0
H1847 H 0.80871 0.53957 0.53935 0.0
C1848 C 0.38341 0.54029 0.27189 0.0
C1849 C 0.34829 0.54925 0.28021 0.0
C1850 C 0.32124 0.49865 0.25892 0.0
C1851 C 0.35592 0.49158 0.24926 0.0
N1852 N 0.41912 0.50758 0.24408 0.0
N1853 N 0.28309 0.54102 0.2799 0.0
C1854 C 0.38684 0.51292 0.25516 0.0
C1855 C 0.31695 0.52941 0.2733 0.0
N1856 N 0.41334 0.55828 0.28008 0.0
N1857 N 0.29287 0.47522 0.25482 0.0
H1858 H 0.27947 0.56329 0.29063 0.0
H1859 H 0.25872 0.53018 0.27374 0.0
H1860 H 0.29535 0.45267 0.24419 0.0
H1861 H 0.26777 0.47662 0.26305 0.0
H1862 H 0.44024 0.551 0.27642 0.0
H1863 H 0.41123 0.57916 0.29193 0.0
H1864 H 0.44208 0.52418 0.24599 0.0
H1865 H 0.422 0.48801 0.23151 0.0
C1866 C 0.30456 0.62616 1.01202 0.0
C1867 C 0.29787 0.59811 0.99619 0.0
C1868 C 0.24076 0.58196 0.01562 0.0
C1869 C 0.24902 0.60804 0.03244 0.0
N1870 N 0.28955 0.65283 0.04819 0.0
N1871 N 0.26217 0.54695 0.98358 0.0
C1872 C 0.28117 0.62967 0.03098 0.0
C1873 C 0.26651 0.57544 0.99815 0.0
N1874 N 0.33361 0.64915 1.00881 0.0
N1875 N 0.2077 0.56448 0.016 0.0
H1876 H 0.27992 0.54269 0.97014 0.0
H1877 H 0.24231 0.52669 0.98537 0.0
H1878 H 0.18865 0.56844 0.02878 0.0
H1879 H 0.19817 0.5479 1.00309 0.0
H1880 H 0.33886 0.67217 0.01856 0.0
H1881 H 0.35129 0.64649 0.9952 0.0
H1882 H 0.31378 0.66768 0.04931 0.0
H1883 H 0.27307 0.65515 0.06239 0.0
C1884 C 0.18846 0.48795 0.74358 0.0
C1885 C 0.19052 0.52676 0.74282 0.0
C1886 C 0.20501 0.52663 0.78288 0.0
C1887 C 0.19435 0.48929 0.78443 0.0
N1888 N 0.17129 0.43524 0.76571 0.0
N1889 N 0.1971 0.58381 0.76298 0.0
C1890 C 0.18544 0.46983 0.76459 0.0
C1891 C 0.19847 0.54642 0.76273 0.0
N1892 N 0.18893 0.46856 0.72408 0.0
N1893 N 0.22135 0.54309 0.80077 0.0
H1894 H 0.19076 0.59945 0.74896 0.0
H1895 H 0.19901 0.59917 0.77763 0.0
H1896 H 0.22744 0.5287 0.8154 0.0
H1897 H 0.23236 0.56943 0.8001 0.0
H1898 H 0.19042 0.44002 0.72354 0.0
H1899 H 0.19192 0.4814 0.70857 0.0
H1900 H 0.16111 0.42142 0.75179 0.0
H1901 H 0.1662 0.4217 0.7807 0.0
C1902 C 0.28018 0.45924 0.51279 0.0
C1903 C 0.28467 0.42414 0.52263 0.0
C1904 C 0.23872 0.39878 0.49711 0.0
C1905 C 0.23159 0.4344 0.48877 0.0
N1906 N 0.24222 0.49929 0.48993 0.0
N1907 N 0.26504 0.36174 0.52676 0.0
C1908 C 0.25156 0.4649 0.4969 0.0
C1909 C 0.26294 0.39425 0.51548 0.0
N1910 N 0.30408 0.48665 0.51811 0.0
N1911 N 0.22244 0.36933 0.48712 0.0
H1912 H 0.28208 0.35816 0.5406 0.0
H1913 H 0.24773 0.33961 0.52377 0.0
H1914 H 0.20511 0.37214 0.47333 0.0
H1915 H 0.2286 0.34221 0.49105 0.0
H1916 H 0.30473 0.51185 0.50994 0.0
H1917 H 0.32495 0.48322 0.52985 0.0
H1918 H 0.25297 0.52316 0.49686 0.0
H1919 H 0.22199 0.50384 0.47792 0.0
C1920 C 0.34498 0.05074 0.37625 0.0
C1921 C 0.34631 0.03908 0.3991 0.0
C1922 C 0.28967 0.07443 0.40598 0.0
C1923 C 0.29145 0.08992 0.38418 0.0
N1924 N 0.32335 0.09565 0.34919 0.0
N1925 N 0.32214 0.04552 0.43657 0.0
C1926 C 0.31979 0.07878 0.36948 0.0
C1927 C 0.31911 0.05232 0.41417 0.0
N1928 N 0.36646 0.03385 0.36063 0.0
N1929 N 0.25909 0.07986 0.41872 0.0
H1930 H 0.34348 0.0305 0.44357 0.0
H1931 H 0.30548 0.05787 0.44854 0.0
H1932 H 0.23664 0.09482 0.41303 0.0
H1933 H 0.25431 0.06625 0.43376 0.0
H1934 H 0.3638 0.03828 0.3435 0.0
H1935 H 0.3844 1.0126 0.36442 0.0
H1936 H 0.346 0.09211 0.33881 0.0
H1937 H 0.30492 0.11538 0.34343 0.0
C1938 C 0.21522 0.08363 0.65653 0.0
C1939 C 0.25245 0.08286 0.64971 0.0
C1940 C 0.236 0.03759 0.62065 0.0
C1941 C 0.19956 0.03509 0.62906 0.0
N1942 N 0.15819 0.05054 0.65952 0.0
N1943 N 0.29952 0.05218 0.62848 0.0
C1944 C 0.19015 0.05671 0.64824 0.0
C1945 C 0.26324 0.05743 0.63291 0.0
N1946 N 0.20346 0.11018 0.67096 0.0
N1947 N 0.24426 0.02335 0.60013 0.0
H1948 H 0.32016 0.06551 0.63732 0.0
H1949 H 0.30905 0.03168 0.61782 0.0
H1950 H 0.22458 1.01188 0.58964 0.0
H1951 H 0.26948 0.02722 0.59232 0.0
H1952 H 0.17585 0.11504 0.67428 0.0
H1953 H 0.22103 0.1291 0.67839 0.0
H1954 H 0.1522 0.06263 0.67488 0.0
H1955 H 0.13931 0.03053 0.65513 0.0
C1956 C 0.18928 0.95786 0.89046 0.0
C1957 C 0.20682 0.98768 0.90136 0.0
C1958 C 0.26685 0.96327 0.88951 0.0
C1959 C 0.24942 0.93398 0.87775 0.0
N1960 N 0.19336 0.9096 0.8625 0.0
N1961 N 0.26132 0.02422 0.90538 0.0
C1962 C 0.21037 0.93315 0.87691 0.0
C1963 C 0.24528 0.99199 0.89904 0.0
N1964 N 0.15269 0.95221 0.89369 0.0
N1965 N 0.30388 0.96301 0.89293 0.0
H1966 H 0.24645 0.04619 0.91189 0.0
H1967 H 0.28851 0.03069 0.90186 0.0
H1968 H 0.32147 0.94313 0.88666 0.0
H1969 H 0.31698 0.98099 0.90384 0.0
H1970 H 0.13907 0.9287 0.88836 0.0
H1971 H 0.13642 0.96982 0.90319 0.0
H1972 H 0.16527 0.90997 0.85949 0.0
H1973 H 0.20777 0.89231 0.85174 0.0
C1974 C 0.27132 0.97058 0.11941 0.0
C1975 C 0.27447 0.95663 0.14156 0.0
C1976 C 0.32792 0.99662 0.14748 0.0
C1977 C 0.32772 1.00705 0.12442 0.0
N1978 N 0.30143 0.99887 0.08767 0.0
N1979 N 0.30869 0.95299 0.17587 0.0
C1980 C 0.29985 0.99282 0.1102 0.0
C1981 C 0.30351 0.96884 0.15539 0.0
N1982 N 0.24033 0.96357 0.10732 0.0
N1983 N 0.3503 1.01438 0.16223 0.0
H1984 H 0.2912 0.93308 0.18238 0.0
H1985 H 0.33194 0.95733 0.1856 0.0
H1986 H 0.36806 0.03525 0.15754 0.0
H1987 H 0.34866 1.01104 0.1795 0.0
H1988 H 0.23448 0.97618 0.0921 0.0
H1989 H 0.21865 0.94797 0.11352 0.0
H1990 H 0.28443 0.98572 0.07622 0.0
H1991 H 0.32184 1.01437 0.08006 0.0
C1992 C 0.69018 0.98144 0.65272 0.0
C1993 C 0.69611 0.99975 0.63187 0.0
C1994 C 0.75818 0.97223 0.63075 0.0
C1995 C 0.75026 0.95038 0.64992 0.0
N1996 N 0.70625 0.93163 0.67776 0.0
N1997 N 0.73368 1.00507 0.59878 0.0
C1998 C 0.71545 0.95413 0.66035 0.0
C1999 C 0.72969 0.9933 0.62035 0.0
N2000 N 0.66147 0.99135 0.6661 0.0
N2001 N 0.79287 0.97295 0.62222 0.0
H2002 H 0.71292 0.01828 0.58995 0.0
H2003 H 0.75589 0.99796 0.58874 0.0
H2004 H 0.81442 0.95774 0.62883 0.0
H2005 H 0.80109 0.99136 0.60987 0.0
H2006 H 0.65852 0.98239 0.68254 0.0
H2007 H 0.64241 1.01132 0.66188 0.0
H2008 H 0.67965 0.92933 0.6839 0.0
H2009 H 0.72459 0.9135 0.68523 0.0
C2010 C 0.80989 0.94611 0.39718 0.0
C2011 C 0.7852 0.94987 0.37868 0.0
C2012 C 0.79765 0.01637 0.37973 0.0
C2013 C 0.82726 1.0117 0.39507 0.0
N2014 N 0.86577 0.96821 0.4145 0.0
N2015 N 0.76556 0.98941 0.34851 0.0
C2016 C 0.83456 0.97546 0.40277 0.0
C2017 C 0.78185 0.98528 0.36889 0.0
N2018 N 0.80901 0.91541 0.41022 0.0
N2019 N 0.78343 0.05044 0.37593 0.0
H2020 H 0.75756 0.96717 0.33873 0.0
H2021 H 0.76489 1.01444 0.34007 0.0
H2022 H 0.79167 0.07353 0.38491 0.0
H2023 H 0.76022 0.05465 0.36609 0.0
H2024 H 0.82424 0.91297 0.4249 0.0
H2025 H 0.78994 0.8945 0.40811 0.0
H2026 H 0.87387 0.94165 0.41866 0.0
H2027 H 0.88554 0.98803 0.41781 0.0
C2028 C 0.8076 0.07614 0.14471 0.0
C2029 C 0.76856 0.07557 0.14411 0.0
C2030 C 0.77203 0.02066 0.11985 0.0
C2031 C 0.81053 0.02504 0.11753 0.0
N2032 N 0.86509 0.05862 0.12704 0.0
N2033 N 0.7136 0.0484 0.12855 0.0
C2034 C 0.8284 0.05306 0.12995 0.0
C2035 C 0.75077 0.04788 0.13119 0.0
N2036 N 0.82488 0.09797 0.15999 0.0
N2037 N 0.75572 0.98961 0.11182 0.0
H2038 H 0.69633 0.06682 0.13659 0.0
H2039 H 0.69992 0.03219 0.11689 0.0
H2040 H 0.77035 0.96872 0.10396 0.0
H2041 H 0.72856 0.98272 0.11511 0.0
H2042 H 0.85299 0.09724 0.16287 0.0
H2043 H 0.81061 0.11412 0.17146 0.0
H2044 H 0.87904 0.08115 0.13349 0.0
H2045 H 0.88121 0.04204 0.11679 0.0
C2046 C 0.71796 0.03514 0.88536 0.0
C2047 C 0.69911 0.04354 0.90557 0.0
C2048 C 0.72204 0.10717 0.90314 0.0
C2049 C 0.73912 0.09938 0.88223 0.0
N2050 N 0.7449 0.05794 0.85096 0.0
N2051 N 0.67597 0.09014 0.93044 0.0
C2052 C 0.73451 0.06393 0.87262 0.0
C2053 C 0.69897 0.08036 0.91342 0.0
N2054 N 0.72192 0.99943 0.87884 0.0
N2055 N 0.7293 0.13933 0.91401 0.0
H2056 H 0.65832 0.07164 0.93818 0.0
H2057 H 0.67159 0.11724 0.93527 0.0
H2058 H 0.74596 0.15986 0.90752 0.0
H2059 H 0.7214 0.14435 0.93047 0.0
H2060 H 0.73898 0.99136 0.86577 0.0
H2061 H 0.71085 0.97742 0.88766 0.0
H2062 H 0.73897 0.03388 0.8423 0.0
H2063 H 0.75597 0.07842 0.84086 0.0
C2064 C 0.78561 0.53053 0.9034 0.0
C2065 C 0.8243 0.53509 0.90475 0.0
C2066 C 0.82058 0.58125 0.87442 0.0
C2067 C 0.78164 0.57884 0.87451 0.0
N2068 N 0.72676 0.55396 0.89113 0.0
N2069 N 0.87813 0.56846 0.89354 0.0
C2070 C 0.76414 0.55454 0.88976 0.0
C2071 C 0.84168 0.56135 0.89069 0.0
N2072 N 0.76944 0.5015 0.91399 0.0
N2073 N 0.83749 0.6025 0.85869 0.0
H2074 H 0.89423 0.55476 0.90529 0.0
H2075 H 0.89186 0.58983 0.88562 0.0
H2076 H 0.82308 0.61899 0.84747 0.0
H2077 H 0.86562 0.60223 0.85585 0.0
H2078 H 0.7422 0.49401 0.91166 0.0
H2079 H 0.78402 0.48236 0.92336 0.0
H2080 H 0.71255 0.54083 0.90393 0.0
H2081 H 0.70971 0.56854 0.88035 0.0
C2082 C 0.72103 0.55268 0.11575 0.0
C2083 C 0.70495 0.52719 0.13079 0.0
C2084 C 0.73657 0.55844 0.16228 0.0
C2085 C 0.75328 0.58365 0.14723 0.0
N2086 N 0.76555 0.6006 0.10884 0.0
N2087 N 0.70471 0.50066 0.16765 0.0
C2088 C 0.74652 0.5796 0.12377 0.0
C2089 C 0.7149 0.52869 0.15384 0.0
N2090 N 0.71109 0.55207 0.09373 0.0
N2091 N 0.73977 0.56386 0.18482 0.0
H2092 H 0.68971 0.47823 0.16203 0.0
H2093 H 0.71425 0.4976 0.18396 0.0
H2094 H 0.75508 0.58505 0.19178 0.0
H2095 H 0.72473 0.54938 0.19668 0.0
H2096 H 0.71664 0.57318 0.08251 0.0
H2097 H 0.69594 0.53087 0.08675 0.0
H2098 H 0.76623 0.59561 0.09171 0.0
H2099 H 0.78283 0.62176 0.11356 0.0
C2100 C 0.70877 0.47562 0.4087 0.0
C2101 C 0.68964 0.49711 0.39262 0.0
C2102 C 0.72208 0.46318 0.36243 0.0
C2103 C 0.74203 0.44245 0.37852 0.0
N2104 N 0.76007 0.43567 0.41713 0.0
N2105 N 0.68536 0.51696 0.35421 0.0
C2106 C 0.73689 0.4506 0.40168 0.0
C2107 C 0.69841 0.49239 0.36951 0.0
N2108 N 0.69929 0.47785 0.43076 0.0
N2109 N 0.72439 0.45417 0.3403 0.0
H2110 H 0.66862 0.5389 0.35855 0.0
H2111 H 0.69408 0.51793 0.33764 0.0
H2112 H 0.74193 0.43408 0.33418 0.0
H2113 H 0.70691 0.4647 0.32812 0.0
H2114 H 0.70828 0.45934 0.44284 0.0
H2115 H 0.68046 0.49669 0.43691 0.0
H2116 H 0.76093 0.4438 0.43382 0.0
H2117 H 0.78105 0.41768 0.41293 0.0
C2118 C 0.82961 0.48679 0.64537 0.0
C2119 C 0.81915 0.50215 0.62441 0.0
C2120 C 0.75751 0.47547 0.63005 0.0
C2121 C 0.77036 0.4546 0.64868 0.0
N2122 N 0.82024 0.43953 0.67339 0.0
N2123 N 0.77324 0.5079 0.59578 0.0
C2124 C 0.80693 0.46001 0.65607 0.0
C2125 C 0.78296 0.49585 0.61657 0.0
N2126 N 0.86043 0.49926 0.65572 0.0
N2127 N 0.72097 0.47621 0.62526 0.0
H2128 H 0.79108 0.52263 0.58555 0.0
H2129 H 0.74874 0.50075 0.588 0.0
H2130 H 0.70149 0.46274 0.63497 0.0
H2131 H 0.70959 0.49333 0.61317 0.0
H2132 H 0.86819 0.49153 0.67181 0.0
H2133 H 0.87533 0.52119 0.64943 0.0
H2134 H 0.84787 0.43878 0.67771 0.0
H2135 H 0.80395 0.42166 0.68269 0.0
C2136 C 0.2284 0.48193 0.11616 0.0
C2137 C 0.21047 0.50655 0.13092 0.0
C2138 C 0.24235 0.47721 0.16289 0.0
C2139 C 0.26121 0.45322 0.14811 0.0
N2140 N 0.27922 0.44015 0.11005 0.0
N2141 N 0.20881 0.5341 0.16752 0.0
C2142 C 0.25623 0.45777 0.12454 0.0
C2143 C 0.22003 0.50605 0.15404 0.0
N2144 N 0.21801 0.48055 0.09423 0.0
N2145 N 0.24422 0.47165 0.18546 0.0
H2146 H 0.19396 0.55632 0.16143 0.0
H2147 H 0.21775 0.53753 0.18393 0.0
H2148 H 0.26018 0.45127 0.19276 0.0
H2149 H 0.22757 0.48532 0.1969 0.0
H2150 H 0.22671 0.46021 0.08321 0.0
H2151 H 0.1986 0.49829 0.0874 0.0
H2152 H 0.27951 0.44507 0.0929 0.0
H2153 H 0.30074 0.42355 0.11539 0.0
C2154 C 0.29929 0.49715 0.90429 0.0
C2155 C 0.33784 0.49169 0.9035 0.0
C2156 C 0.32928 0.44381 0.87482 0.0
C2157 C 0.29093 0.45064 0.8748 0.0
N2158 N 0.24041 0.48905 0.8862 0.0
N2159 N 0.39021 0.46402 0.88581 0.0
C2160 C 0.27617 0.47861 0.88874 0.0
C2161 C 0.35303 0.46631 0.88803 0.0
N2162 N 0.28463 0.52025 0.91995 0.0
N2163 N 0.34281 0.41482 0.8629 0.0
H2164 H 0.40824 0.47927 0.89562 0.0
H2165 H 0.40317 0.44913 0.87324 0.0
H2166 H 0.32626 0.39781 0.85318 0.0
H2167 H 0.3698 0.40579 0.86397 0.0
H2168 H 0.25675 0.52159 0.92353 0.0
H2169 H 0.30048 0.53674 0.93039 0.0
H2170 H 0.22902 0.51196 0.89391 0.0
H2171 H 0.22267 0.4769 0.87475 0.0
C2172 C 0.27155 0.5513 0.62111 0.0
C2173 C 0.27999 0.57041 0.64116 0.0
C2174 C 0.33814 0.53632 0.64349 0.0
C2175 C 0.33198 0.5206 0.62187 0.0
N2176 N 0.29502 0.51995 0.58835 0.0
N2177 N 0.32329 0.58433 0.67021 0.0
C2178 C 0.29907 0.52967 0.61028 0.0
C2179 C 0.31387 0.56382 0.65195 0.0
N2180 N 0.23709 0.5538 0.61234 0.0
N2181 N 0.36618 0.52395 0.65661 0.0
H2182 H 0.3055 0.60312 0.67764 0.0
H2183 H 0.34952 0.58447 0.67706 0.0
H2184 H 0.38454 0.50381 0.65165 0.0
H2185 H 0.36923 0.53115 0.67336 0.0
H2186 H 0.22805 0.53768 0.59906 0.0
H2187 H 0.21643 0.56935 0.61978 0.0
H2188 H 0.27337 0.52888 0.5784 0.0
H2189 H 0.31528 0.50643 0.57928 0.0
C2190 C 0.23385 0.58772 0.38422 0.0
C2191 C 0.25061 0.5779 0.36346 0.0
C2192 C 0.21843 0.51842 0.36542 0.0
C2193 C 0.20679 0.52568 0.38762 0.0
N2194 N 0.20624 0.56673 0.4191 0.0
N2195 N 0.26472 0.52901 0.33742 0.0
C2196 C 0.21509 0.56033 0.39727 0.0
C2197 C 0.24423 0.54201 0.35482 0.0
N2198 N 0.23456 0.6234 0.39112 0.0
N2199 N 0.20458 0.48882 0.35424 0.0
H2200 H 0.28618 0.54366 0.33029 0.0
H2201 H 0.26355 0.50192 0.33193 0.0
H2202 H 0.18508 0.47134 0.36125 0.0
H2203 H 0.20933 0.48415 0.33729 0.0
H2204 H 0.22011 0.63288 0.40499 0.0
H2205 H 0.24661 0.64425 0.38174 0.0
H2206 H 0.21515 0.58968 0.42792 0.0
H2207 H 0.19191 0.54775 0.42879 0.0
C2208 C 0.27074 0.25222 0.24182 0.0
C2209 C 0.27986 0.28936 0.24638 0.0
C2210 C 0.2602 0.28068 0.28551 0.0
C2211 C 0.25462 0.24268 0.28144 0.0
N2212 N 0.26088 0.19102 0.25658 0.0
N2213 N 0.28928 0.33727 0.27362 0.0
C2214 C 0.26162 0.22812 0.25979 0.0
C2215 C 0.27617 0.30317 0.26853 0.0
N2216 N 0.26973 0.2402 0.22017 0.0
N2217 N 0.24918 0.29561 0.30538 0.0
H2218 H 0.30135 0.35448 0.26181 0.0
H2219 H 0.2911 0.34725 0.28991 0.0
H2220 H 0.23743 0.28016 0.31819 0.0
H2221 H 0.24874 0.32373 0.30844 0.0
H2222 H 0.2596 0.21461 0.21553 0.0
H2223 H 0.27584 0.25708 0.20659 0.0
H2224 H 0.26939 0.17839 0.24184 0.0
H2225 H 0.25506 0.17252 0.26939 0.0
C2226 C 0.01631 0.02798 0.53716 0.0
C2227 C 0.04734 1.00585 0.53238 0.0
C2228 C 0.03396 1.01004 0.4921 0.0
C2229 C 1.00151 0.02993 0.49701 0.0
N2230 N 0.95927 0.05479 0.52405 0.0
N2231 N 0.08337 0.97151 0.50583 0.0
C2232 C 0.99197 0.03803 0.51953 0.0
C2233 C 0.0556 0.99578 0.50996 0.0
N2234 N 1.01075 0.04018 0.55853 0.0
N2235 N 0.04442 1.00537 0.47033 0.0
H2236 H 0.1002 0.96094 0.51837 0.0
H2237 H 0.08822 0.95973 0.49026 0.0
H2238 H 0.02861 1.01421 0.45683 0.0
H2239 H 0.06982 0.99498 0.46557 0.0
H2240 H 0.99103 0.05952 0.56287 0.0
H2241 H 0.02777 0.03301 0.57185 0.0
H2242 H 0.94861 0.0578 0.54009 0.0
H2243 H 0.94133 0.06366 0.5116 0.0
C2244 C 0.27159 0.78023 0.76047 0.0
C2245 C 0.27324 0.76699 0.78282 0.0
C2246 C 0.25652 0.70542 0.76952 0.0
C2247 C 0.25105 0.71959 0.74762 0.0
N2248 N 0.24675 0.77214 0.7232 0.0
N2249 N 0.26147 0.71842 0.80921 0.0
C2250 C 0.25676 0.75748 0.74335 0.0
C2251 C 0.26404 0.72994 0.7875 0.0
N2252 N 0.28557 0.81398 0.75536 0.0
N2253 N 0.25565 0.66837 0.77299 0.0
H2254 H 0.26639 0.73568 0.8228 0.0
H2255 H 0.25125 0.69285 0.81379 0.0
H2256 H 0.25091 0.64957 0.76017 0.0
H2257 H 0.263 0.65609 0.78807 0.0
H2258 H 0.28875 0.82335 0.73901 0.0
H2259 H 0.29718 0.83135 0.76725 0.0
H2260 H 0.24649 0.80023 0.72003 0.0
H2261 H 0.23555 0.75659 0.71027 0.0
C2262 C 0.51169 1.01602 0.02694 0.0
C2263 C 0.47744 0.03329 0.02322 0.0
C2264 C 0.48587 0.02807 0.98255 0.0
C2265 C 0.51945 1.00952 0.98633 0.0
N2266 N 0.56234 0.98109 1.01167 0.0
N2267 N 0.42941 0.05254 0.99812 0.0
C2268 C 0.5318 1.00216 1.00842 0.0
C2269 C 0.46372 0.03828 1.00117 0.0
N2270 N 0.52534 1.01362 0.04821 0.0
N2271 N 0.47581 0.03683 0.96117 0.0
H2272 H 0.41306 0.06177 1.01128 0.0
H2273 H 0.41604 0.05329 0.98277 0.0
H2274 H 0.491 0.02897 0.94718 0.0
H2275 H 0.45377 0.0537 0.9572 0.0
H2276 H 0.55204 1.00571 0.05191 0.0
H2277 H 0.51057 0.02163 0.06233 0.0
H2278 H 0.57046 0.97096 0.02717 0.0
H2279 H 0.5785 0.97144 0.9986 0.0
C2280 C 0.25655 0.82899 0.27255 0.0
C2281 C 0.24657 0.81327 0.25167 0.0
C2282 C 0.26285 0.75212 0.26604 0.0
C2283 C 0.26975 0.76745 0.28751 0.0
N2284 N 0.26811 0.8196 0.31218 0.0
N2285 N 0.23447 0.75929 0.22959 0.0
C2286 C 0.26515 0.8057 0.29103 0.0
C2287 C 0.24815 0.77464 0.24871 0.0
N2288 N 0.25888 0.86627 0.2745 0.0
N2289 N 0.2717 0.71631 0.2619 0.0
H2290 H 0.22392 0.77478 0.21641 0.0
H2291 H 0.23088 0.73117 0.2275 0.0
H2292 H 0.28227 0.69877 0.27407 0.0
H2293 H 0.27139 0.70474 0.24598 0.0
H2294 H 0.26944 0.87952 0.28851 0.0
H2295 H 0.25321 0.88404 0.26127 0.0
H2296 H 0.26145 0.8465 0.31635 0.0
H2297 H 0.27426 0.80331 0.32603 0.0
C2298 C 0.51282 1.00532 0.53724 0.0
C2299 C 0.54402 0.02803 0.53457 0.0
C2300 C 0.53517 0.02837 0.49382 0.0
C2301 C 0.50259 1.00775 0.49663 0.0
N2302 N 0.45766 0.97974 0.52078 0.0
N2303 N 0.58262 0.06541 0.51104 0.0
C2304 C 0.49062 0.99712 0.51831 0.0
C2305 C 0.55463 0.04068 0.51303 0.0
N2306 N 0.50505 0.99088 0.55781 0.0
N2307 N 0.54789 0.03549 0.47275 0.0
H2308 H 0.5981 0.07448 0.52461 0.0
H2309 H 0.589 0.07897 0.49623 0.0
H2310 H 0.53364 0.02807 0.45832 0.0
H2311 H 0.57359 0.04656 0.46945 0.0
H2312 H 0.4851 0.97103 0.56059 0.0
H2313 H 0.52048 0.99678 0.57205 0.0
H2314 H 0.44534 0.97482 0.53618 0.0
H2315 H 0.44113 0.9723 0.5073 0.0
C2316 C 0.25908 0.3066 0.7574 0.0
C2317 C 0.2537 0.29276 0.77938 0.0
C2318 C 0.27437 0.23194 0.76688 0.0
C2319 C 0.27627 0.24493 0.74449 0.0
N2320 N 0.26421 0.29298 0.71781 0.0
N2321 N 0.24926 0.24054 0.80403 0.0
C2322 C 0.2668 0.28183 0.73958 0.0
C2323 C 0.25939 0.25491 0.78384 0.0
N2324 N 0.2581 0.34359 0.75369 0.0
N2325 N 0.28827 0.19821 0.77218 0.0
H2326 H 0.23788 0.25631 0.8168 0.0
H2327 H 0.249 0.2125 0.80736 0.0
H2328 H 0.29985 0.18063 0.76038 0.0
H2329 H 0.29132 0.18903 0.78857 0.0
H2330 H 0.26553 0.3556 0.73856 0.0
H2331 H 0.25313 0.36263 0.76636 0.0
H2332 H 0.25378 0.3184 0.71306 0.0
H2333 H 0.26931 0.27551 0.70434 0.0
C2334 C 0.02173 0.01865 0.03017 0.0
C2335 C 0.98656 1.00266 0.02767 0.0
C2336 C 0.99387 1.0028 0.98671 0.0
C2337 C 0.02827 0.0204 0.98918 0.0
N2338 N 0.07324 0.04955 0.01278 0.0
N2339 N 0.93701 0.98267 1.00395 0.0
C2340 C 0.04174 0.02953 1.0108 0.0
C2341 C 0.97197 0.99575 1.00602 0.0
N2342 N 0.03632 0.02267 0.05109 0.0
N2343 N 0.98274 0.99182 0.96592 0.0
H2344 H 0.9207 0.97574 0.01763 0.0
H2345 H 0.9231 0.98076 0.98882 0.0
H2346 H 0.99784 0.99708 0.95145 0.0
H2347 H 0.95994 0.97542 0.96299 0.0
H2348 H 0.06347 0.02978 0.0541 0.0
H2349 H 0.02175 0.01681 0.06568 0.0
H2350 H 0.08238 0.06093 0.02772 0.0
H2351 H 0.08931 0.05695 0.99911 0.0
C2352 C 0.79243 0.81505 0.77117 0.0
C2353 C 0.78315 0.80379 0.74911 0.0
C2354 C 0.75605 0.74717 0.76401 0.0
C2355 C 0.7629 0.75968 0.78613 0.0
N2356 N 0.78314 0.80729 0.81114 0.0
N2357 N 0.75175 0.7621 0.72449 0.0
C2358 C 0.77981 0.79418 0.78981 0.0
C2359 C 0.76374 0.77062 0.74553 0.0
N2360 N 0.81443 0.84497 0.77424 0.0
N2361 N 0.74271 0.71256 0.76065 0.0
H2362 H 0.75701 0.77859 0.71059 0.0
H2363 H 0.7341 0.74044 0.72101 0.0
H2364 H 0.73597 0.69486 0.77372 0.0
H2365 H 0.7409 0.70019 0.74501 0.0
H2366 H 0.82562 0.85224 0.78962 0.0
H2367 H 0.82379 0.86125 0.76108 0.0
H2368 H 0.79121 0.83397 0.81488 0.0
H2369 H 0.77549 0.79215 0.8252 0.0
C2370 C 0.75252 0.24264 0.28683 0.0
C2371 C 0.76935 0.27711 0.28286 0.0
C2372 C 0.76754 0.26584 0.24229 0.0
C2373 C 0.74839 0.23262 0.2462 0.0
N2374 N 0.71882 0.19084 0.27171 0.0
N2375 N 0.79006 0.32363 0.25713 0.0
C2376 C 0.73992 0.22134 0.26837 0.0
C2377 C 0.77606 0.28931 0.26064 0.0
N2378 N 0.74926 0.22999 0.30827 0.0
N2379 N 0.77828 0.27446 0.221 0.0
H2380 H 0.79777 0.34111 0.2701 0.0
H2381 H 0.79189 0.33594 0.24147 0.0
H2382 H 0.77208 0.2581 0.2072 0.0
H2383 H 0.79557 0.2962 0.21709 0.0
H2384 H 0.7413 0.20339 0.31229 0.0
H2385 H 0.75675 0.24549 0.3222 0.0
H2386 H 0.70797 0.18343 0.28716 0.0
H2387 H 0.71009 0.17388 0.25871 0.0
C2388 C 0.77724 0.23235 0.75654 0.0
C2389 C 0.76956 0.2414 0.7792 0.0
C2390 C 0.74017 0.29898 0.76716 0.0
C2391 C 0.74807 0.29005 0.74451 0.0
N2392 N 0.77023 0.24716 0.71705 0.0
N2393 N 0.7471 0.28422 0.80663 0.0
C2394 C 0.76563 0.25642 0.73906 0.0
C2395 C 0.75181 0.27495 0.78463 0.0
N2396 N 0.79711 0.20143 0.75188 0.0
N2397 N 0.72004 0.32972 0.77184 0.0
H2398 H 0.75336 0.2665 0.81979 0.0
H2399 H 0.73865 0.30993 0.8121 0.0
H2400 H 0.71186 0.34846 0.75964 0.0
H2401 H 0.70952 0.33599 0.78754 0.0
H2402 H 0.80737 0.19493 0.73615 0.0
H2403 H 0.80517 0.18272 0.76412 0.0
H2404 H 0.77879 0.2215 0.71156 0.0
H2405 H 0.76375 0.26485 0.70392 0.0
C2406 C 0.78463 0.75448 0.28774 0.0
C2407 C 0.76373 0.78673 0.28397 0.0
C2408 C 0.76622 0.77566 0.24334 0.0
C2409 C 0.7848 0.74205 0.24723 0.0
N2410 N 0.80821 0.69697 0.27302 0.0
N2411 N 0.72983 0.82546 0.25862 0.0
C2412 C 0.79298 0.73075 0.26944 0.0
C2413 C 0.75329 0.79669 0.26186 0.0
N2414 N 0.79735 0.74713 0.30878 0.0
N2415 N 0.76161 0.78785 0.22189 0.0
H2416 H 0.7201 0.84183 0.27164 0.0
H2417 H 0.71778 0.83157 0.24329 0.0
H2418 H 0.76947 0.7726 0.20793 0.0
H2419 H 0.7523 0.81404 0.21792 0.0
H2420 H 0.8159 0.72629 0.31241 0.0
H2421 H 0.79155 0.76378 0.32252 0.0
H2422 H 0.81121 0.68524 0.28878 0.0
H2423 H 0.81555 0.67928 0.26006 0.0
C2424 C 0.49101 0.51325 1.0111 0.0
C2425 C 0.50929 0.51805 0.99033 0.0
C2426 C 0.56697 0.49841 1.00773 0.0
C2427 C 0.54941 0.49805 0.02897 0.0
N2428 N 0.49611 0.5109 0.05145 0.0
N2429 N 0.56535 0.51917 0.96913 0.0
C2430 C 0.51177 0.50703 0.0308 0.0
C2431 C 0.5475 0.51163 0.98868 0.0
N2432 N 0.45362 0.51387 1.01187 0.0
N2433 N 0.60176 0.48497 1.0056 0.0
H2434 H 0.55175 0.52778 0.95471 0.0
H2435 H 0.59377 0.51919 0.96761 0.0
H2436 H 0.61686 0.47493 0.01909 0.0
H2437 H 0.61458 0.48096 0.99024 0.0
H2438 H 0.43856 0.50698 0.02605 0.0
H2439 H 0.43756 0.51756 0.99766 0.0
H2440 H 0.46982 0.52123 0.0539 0.0
H2441 H 0.51058 0.50707 0.06632 0.0
C2442 C 0.03048 0.49919 0.50646 0.0
C2443 C 0.02092 0.51096 0.48455 0.0
C2444 C 0.96759 0.54383 0.49977 0.0
C2445 C 0.97577 0.53 0.52146 0.0
N2446 N 1.01139 0.48997 0.54498 0.0
N2447 N 0.97785 0.53987 0.45967 0.0
C2448 C 1.00627 0.50641 0.52465 0.0
C2449 C 0.98866 0.5319 0.48101 0.0
N2450 N 0.0631 0.48163 0.50994 0.0
N2451 N 0.94063 0.56955 0.49725 0.0
H2452 H 0.99323 0.53268 0.44563 0.0
H2453 H 0.95251 0.55129 0.45575 0.0
H2454 H 0.9245 0.57886 0.51048 0.0
H2455 H 0.936 0.58377 0.48242 0.0
H2456 H 0.07374 0.47612 0.52573 0.0
H2457 H 0.08106 0.47484 0.49702 0.0
H2458 H 0.03066 0.46947 0.54786 0.0
H2459 H 0.99419 0.49457 0.55863 0.0
C2460 C 0.01737 0.52647 0.03135 0.0
C2461 C 0.05385 0.53832 0.02741 0.0
C2462 C 0.04495 0.5294 0.98688 0.0
C2463 C 1.00929 0.51534 0.99097 0.0
N2464 N 0.96355 0.49494 0.01729 0.0
N2465 N 0.10432 0.54676 1.002 0.0
C2466 C 0.99604 0.5124 0.01328 0.0
C2467 C 0.06819 0.53852 1.0053 0.0
N2468 N 1.00275 0.52957 0.05233 0.0
N2469 N 0.05614 0.53504 0.96533 0.0
H2470 H 0.12185 0.55418 0.015 0.0
H2471 H 0.11769 0.5437 0.98674 0.0
H2472 H 0.03996 0.52844 0.95152 0.0
H2473 H 0.08015 0.54871 0.96104 0.0
H2474 H 0.97511 0.52569 0.05585 0.0
H2475 H 0.0178 0.53861 0.0661 0.0
H2476 H 0.95435 0.48802 0.03322 0.0
H2477 H 0.94688 0.48473 1.00459 0.0
C2478 C 0.4904 0.50164 0.48185 0.0
C2479 C 0.52373 0.52026 0.48625 0.0
C2480 C 0.51219 0.51633 0.52668 0.0
C2481 C 0.48022 0.49544 0.52232 0.0
N2482 N 0.4409 0.46394 0.49622 0.0
N2483 N 0.56895 0.54203 0.51248 0.0
C2484 C 0.46981 0.48698 0.5 0.0
C2485 C 0.53537 0.52666 0.50859 0.0
N2486 N 0.47811 0.49867 0.46032 0.0
N2487 N 0.51978 0.52708 0.5481 0.0
H2488 H 0.58625 0.55097 0.49971 0.0
H2489 H 0.58094 0.54371 0.52824 0.0
H2490 H 0.50362 0.51962 0.56176 0.0
H2491 H 0.54036 0.54559 0.55225 0.0
H2492 H 0.45211 0.48927 0.45609 0.0
H2493 H 0.49311 0.50795 0.44659 0.0
H2494 H 0.43439 0.45331 0.48057 0.0
H2495 H 0.42469 0.45327 0.50903 0.0
loop_
_geom_bond_atom_site_label_1
_geom_bond_atom_site_label_2
_geom_bond_distance
_geom_bond_site_symmetry_2
_ccdc_geom_bond_type
Co0 N4 2.148 . S
Co0 N10 2.128 . S
Co0 N20 2.194 . S
Co0 O25 2.351 . S
Co0 O26 2.155 . S
Co0 O27 2.096 . S
C1 N4 1.301 . S
C1 N5 1.328 . S
C1 H6 0.930 . S
C2 C3 1.333 . S
C2 N4 1.317 . S
C2 H7 0.930 . S
C3 C2 1.333 . S
C3 N5 1.350 . S
C3 H29 0.931 . S
N4 Co0 2.148 . S
N4 C1 1.301 . S
N4 C2 1.317 . S
N5 C1 1.328 . S
N5 C3 1.350 . S
H6 C1 0.930 . S
H7 C2 0.930 . S
C8 O9 1.224 . S
C8 O27 1.247 . S
O9 C8 1.224 . S
N10 Co0 2.128 . S
N10 C11 1.355 . S
N10 C13 1.311 . S
C11 N10 1.355 . S
C11 C12 1.363 . S
C11 H23 0.929 . S
C12 C11 1.363 . S
C12 N14 1.375 . S
C12 H30 0.931 . S
C13 N10 1.311 . S
C13 N14 1.347 . S
C13 H24 0.929 . S
N14 C12 1.375 . S
N14 C13 1.347 . S
C15 C18 1.365 . S
C15 N20 1.328 . S
C15 H21 0.929 . S
C16 C17 1.362 . S
C16 C19 1.378 . S
C16 H31 0.929 . S
C17 C16 1.362 . S
C17 C18 1.366 . S
C18 C15 1.365 . S
C18 C17 1.366 . S
C18 H32 0.930 . S
C19 C16 1.378 . S
C19 N20 1.315 . S
C19 H22 0.930 . S
N20 Co0 2.194 . S
N20 C15 1.328 . S
N20 C19 1.315 . S
H21 C15 0.929 . S
H22 C19 0.930 . S
H23 C11 0.929 . S
H24 C13 0.929 . S
O25 Co0 2.351 . S
O25 C28 1.244 . S
O26 Co0 2.155 . S
O26 C28 1.240 . S
O27 Co0 2.096 . S
O27 C8 1.247 . S
C28 O25 1.244 . S
C28 O26 1.240 . S
H29 C3 0.931 . S
H30 C12 0.931 . S
H31 C16 0.929 . S
H32 C18 0.930 . S
Co33 N37 2.148 . S
Co33 N43 2.128 . S
Co33 N53 2.194 . S
Co33 O58 2.351 . S
Co33 O59 2.155 . S
Co33 O60 2.096 . S
C34 N37 1.301 . S
C34 N38 1.328 . S
C34 H39 0.930 . S
C35 C36 1.333 . S
C35 N37 1.317 . S
C35 H40 0.930 . S
C36 C35 1.333 . S
C36 N38 1.350 . S
C36 H62 0.931 . S
N37 Co33 2.148 . S
N37 C34 1.301 . S
N37 C35 1.317 . S
N38 C34 1.328 . S
N38 C36 1.350 . S
H39 C34 0.930 . S
H40 C35 0.930 . S
C41 O42 1.224 . S
C41 O60 1.247 . S
O42 C41 1.224 . S
N43 Co33 2.128 . S
N43 C44 1.355 . S
N43 C46 1.311 . S
C44 N43 1.355 . S
C44 C45 1.363 . S
C44 H56 0.929 . S
C45 C44 1.363 . S
C45 N47 1.375 . S
C45 H63 0.931 . S
C46 N43 1.311 . S
C46 N47 1.347 . S
C46 H57 0.929 . S
N47 C45 1.375 . S
N47 C46 1.347 . S
C48 C51 1.365 . S
C48 N53 1.328 . S
C48 H54 0.929 . S
C49 C50 1.362 . S
C49 C52 1.378 . S
C49 H64 0.929 1_565 S
C50 C49 1.362 . S
C50 C51 1.366 . S
C51 C48 1.365 . S
C51 C50 1.366 . S
C51 H65 0.930 . S
C52 C49 1.378 . S
C52 N53 1.315 . S
C52 H55 0.930 . S
N53 Co33 2.194 . S
N53 C48 1.328 . S
N53 C52 1.315 . S
H54 C48 0.929 . S
H55 C52 0.930 . S
H56 C44 0.929 . S
H57 C46 0.929 . S
O58 Co33 2.351 . S
O58 C61 1.244 . S
O59 Co33 2.155 . S
O59 C61 1.240 . S
O60 Co33 2.096 . S
O60 C41 1.247 . S
C61 O58 1.244 . S
C61 O59 1.240 . S
H62 C36 0.931 . S
H63 C45 0.931 . S
H64 C49 0.929 1_545 S
H65 C51 0.930 . S
Co66 N70 2.148 . S
Co66 N76 2.128 . S
Co66 N86 2.194 . S
Co66 O91 2.351 . S
Co66 O92 2.155 . S
Co66 O93 2.096 . S
C67 N70 1.301 . S
C67 N71 1.328 . S
C67 H72 0.930 . S
C68 C69 1.333 . S
C68 N70 1.317 . S
C68 H73 0.930 . S
C69 C68 1.333 . S
C69 N71 1.350 . S
C69 H95 0.931 . S
N70 Co66 2.148 . S
N70 C67 1.301 . S
N70 C68 1.317 . S
N71 C67 1.328 . S
N71 C69 1.350 . S
H72 C67 0.930 . S
H73 C68 0.930 . S
C74 O75 1.224 . S
C74 O93 1.247 . S
O75 C74 1.224 . S
N76 Co66 2.128 . S
N76 C77 1.355 . S
N76 C79 1.311 . S
C77 N76 1.355 . S
C77 C78 1.363 . S
C77 H89 0.929 . S
C78 C77 1.363 . S
C78 N80 1.375 . S
C78 H96 0.931 . S
C79 N76 1.311 . S
C79 N80 1.347 . S
C79 H90 0.929 . S
N80 C78 1.375 . S
N80 C79 1.347 . S
C81 C84 1.365 . S
C81 N86 1.328 . S
C81 H87 0.929 . S
C82 C83 1.362 . S
C82 C85 1.378 . S
C82 H97 0.929 . S
C83 C82 1.362 . S
C83 C84 1.366 . S
C84 C81 1.365 . S
C84 C83 1.366 . S
C84 H98 0.930 . S
C85 C82 1.378 . S
C85 N86 1.315 . S
C85 H88 0.930 . S
N86 Co66 2.194 . S
N86 C81 1.328 . S
N86 C85 1.315 . S
H87 C81 0.929 . S
H88 C85 0.930 . S
H89 C77 0.929 . S
H90 C79 0.929 . S
O91 Co66 2.351 . S
O91 C94 1.244 . S
O92 Co66 2.155 . S
O92 C94 1.240 . S
O93 Co66 2.096 . S
O93 C74 1.247 . S
C94 O91 1.244 . S
C94 O92 1.240 . S
H95 C69 0.931 . S
H96 C78 0.931 . S
H97 C82 0.929 . S
H98 C84 0.930 . S
Co99 N103 2.148 . S
Co99 N109 2.128 . S
Co99 N119 2.194 . S
Co99 O124 2.351 . S
Co99 O125 2.155 . S
Co99 O126 2.096 . S
C100 N103 1.301 . S
C100 N104 1.328 . S
C100 H105 0.930 . S
C101 C102 1.333 . S
C101 N103 1.317 . S
C101 H106 0.930 . S
C102 C101 1.333 . S
C102 N104 1.350 . S
C102 H128 0.931 . S
N103 Co99 2.148 . S
N103 C100 1.301 . S
N103 C101 1.317 . S
N104 C100 1.328 . S
N104 C102 1.350 . S
H105 C100 0.930 . S
H106 C101 0.930 . S
C107 O108 1.224 . S
C107 O126 1.247 . S
O108 C107 1.224 . S
N109 Co99 2.128 . S
N109 C110 1.355 . S
N109 C112 1.311 . S
C110 N109 1.355 . S
C110 C111 1.363 . S
C110 H122 0.929 . S
C111 C110 1.363 . S
C111 N113 1.375 . S
C111 H129 0.931 . S
C112 N109 1.311 . S
C112 N113 1.347 . S
C112 H123 0.929 . S
N113 C111 1.375 . S
N113 C112 1.347 . S
C114 C117 1.365 . S
C114 N119 1.328 . S
C114 H120 0.929 . S
C115 C116 1.362 . S
C115 C118 1.378 . S
C115 H130 0.929 1_545 S
C116 C115 1.362 . S
C116 C117 1.366 . S
C117 C114 1.365 . S
C117 C116 1.366 . S
C117 H131 0.930 . S
C118 C115 1.378 . S
C118 N119 1.315 . S
C118 H121 0.930 . S
N119 Co99 2.194 . S
N119 C114 1.328 . S
N119 C118 1.315 . S
H120 C114 0.929 . S
H121 C118 0.930 . S
H122 C110 0.929 . S
H123 C112 0.929 . S
O124 Co99 2.351 . S
O124 C127 1.244 . S
O125 Co99 2.155 . S
O125 C127 1.240 . S
O126 Co99 2.096 . S
O126 C107 1.247 . S
C127 O124 1.244 . S
C127 O125 1.240 . S
H128 C102 0.931 . S
H129 C111 0.931 . S
H130 C115 0.929 1_565 S
H131 C117 0.930 . S
Co132 N136 2.148 . S
Co132 N142 2.128 . S
Co132 N152 2.194 . S
Co132 O157 2.351 . S
Co132 O158 2.155 . S
Co132 O159 2.096 . S
C133 N136 1.301 . S
C133 N137 1.328 . S
C133 H138 0.930 . S
C134 C135 1.333 . S
C134 N136 1.317 . S
C134 H139 0.930 . S
C135 C134 1.333 . S
C135 N137 1.350 . S
C135 H161 0.931 . S
N136 Co132 2.148 . S
N136 C133 1.301 . S
N136 C134 1.317 . S
N137 C133 1.328 . S
N137 C135 1.350 . S
H138 C133 0.930 . S
H139 C134 0.930 . S
C140 O141 1.224 . S
C140 O159 1.247 . S
O141 C140 1.224 . S
N142 Co132 2.128 . S
N142 C143 1.355 . S
N142 C145 1.311 . S
C143 N142 1.355 . S
C143 C144 1.363 . S
C143 H155 0.929 . S
C144 C143 1.363 . S
C144 N146 1.375 . S
C144 H162 0.931 . S
C145 N142 1.311 . S
C145 N146 1.347 . S
C145 H156 0.929 . S
N146 C144 1.375 . S
N146 C145 1.347 . S
C147 C150 1.365 . S
C147 N152 1.328 . S
C147 H153 0.929 . S
C148 C149 1.362 . S
C148 C151 1.378 . S
C148 H163 0.929 . S
C149 C148 1.362 . S
C149 C150 1.366 . S
C150 C147 1.365 . S
C150 C149 1.366 . S
C150 H164 0.930 . S
C151 C148 1.378 . S
C151 N152 1.315 . S
C151 H154 0.930 . S
N152 Co132 2.194 . S
N152 C147 1.328 . S
N152 C151 1.315 . S
H153 C147 0.929 . S
H154 C151 0.930 . S
H155 C143 0.929 . S
H156 C145 0.929 . S
O157 Co132 2.351 . S
O157 C160 1.244 . S
O158 Co132 2.155 . S
O158 C160 1.240 . S
O159 Co132 2.096 . S
O159 C140 1.247 . S
C160 O157 1.244 . S
C160 O158 1.240 . S
H161 C135 0.931 . S
H162 C144 0.931 . S
H163 C148 0.929 . S
H164 C150 0.930 . S
Co165 N169 2.148 . S
Co165 N175 2.128 . S
Co165 N185 2.194 . S
Co165 O190 2.351 . S
Co165 O191 2.155 . S
Co165 O192 2.096 . S
C166 N169 1.301 . S
C166 N170 1.328 . S
C166 H171 0.930 . S
C167 C168 1.333 . S
C167 N169 1.317 . S
C167 H172 0.930 . S
C168 C167 1.333 . S
C168 N170 1.350 . S
C168 H194 0.931 . S
N169 Co165 2.148 . S
N169 C166 1.301 . S
N169 C167 1.317 . S
N170 C166 1.328 . S
N170 C168 1.350 . S
H171 C166 0.930 . S
H172 C167 0.930 . S
C173 O174 1.224 . S
C173 O192 1.247 . S
O174 C173 1.224 . S
N175 Co165 2.128 . S
N175 C176 1.355 . S
N175 C178 1.311 . S
C176 N175 1.355 . S
C176 C177 1.363 . S
C176 H188 0.929 . S
C177 C176 1.363 . S
C177 N179 1.375 . S
C177 H195 0.931 . S
C178 N175 1.311 . S
C178 N179 1.347 . S
C178 H189 0.929 . S
N179 C177 1.375 . S
N179 C178 1.347 . S
C180 C183 1.365 . S
C180 N185 1.328 . S
C180 H186 0.929 . S
C181 C182 1.362 . S
C181 C184 1.378 . S
C181 H196 0.929 1_565 S
C182 C181 1.362 . S
C182 C183 1.366 . S
C183 C180 1.365 . S
C183 C182 1.366 . S
C183 H197 0.930 . S
C184 C181 1.378 . S
C184 N185 1.315 . S
C184 H187 0.930 . S
N185 Co165 2.194 . S
N185 C180 1.328 . S
N185 C184 1.315 . S
H186 C180 0.929 . S
H187 C184 0.930 . S
H188 C176 0.929 . S
H189 C178 0.929 . S
O190 Co165 2.351 . S
O190 C193 1.244 . S
O191 Co165 2.155 . S
O191 C193 1.240 . S
O192 Co165 2.096 . S
O192 C173 1.247 . S
C193 O190 1.244 . S
C193 O191 1.240 . S
H194 C168 0.931 . S
H195 C177 0.931 . S
H196 C181 0.929 1_545 S
H197 C183 0.930 . S
Co198 N202 2.148 . S
Co198 N208 2.128 . S
Co198 N218 2.194 . S
Co198 O223 2.351 . S
Co198 O224 2.155 . S
Co198 O225 2.096 . S
C199 N202 1.301 . S
C199 N203 1.328 . S
C199 H204 0.930 . S
C200 C201 1.333 . S
C200 N202 1.317 . S
C200 H205 0.930 . S
C201 C200 1.333 . S
C201 N203 1.350 . S
C201 H227 0.931 . S
N202 Co198 2.148 . S
N202 C199 1.301 . S
N202 C200 1.317 . S
N203 C199 1.328 . S
N203 C201 1.350 . S
H204 C199 0.930 . S
H205 C200 0.930 . S
C206 O207 1.224 . S
C206 O225 1.247 . S
O207 C206 1.224 . S
N208 Co198 2.128 . S
N208 C209 1.355 . S
N208 C211 1.311 . S
C209 N208 1.355 . S
C209 C210 1.363 . S
C209 H221 0.929 . S
C210 C209 1.363 . S
C210 N212 1.375 . S
C210 H228 0.931 . S
C211 N208 1.311 . S
C211 N212 1.347 . S
C211 H222 0.929 . S
N212 C210 1.375 . S
N212 C211 1.347 . S
C213 C216 1.365 . S
C213 N218 1.328 . S
C213 H219 0.929 . S
C214 C215 1.362 . S
C214 C217 1.378 . S
C214 H229 0.929 . S
C215 C214 1.362 . S
C215 C216 1.366 . S
C216 C213 1.365 . S
C216 C215 1.366 . S
C216 H230 0.930 . S
C217 C214 1.378 . S
C217 N218 1.315 . S
C217 H220 0.930 . S
N218 Co198 2.194 . S
N218 C213 1.328 . S
N218 C217 1.315 . S
H219 C213 0.929 . S
H220 C217 0.930 . S
H221 C209 0.929 . S
H222 C211 0.929 . S
O223 Co198 2.351 . S
O223 C226 1.244 . S
O224 Co198 2.155 . S
O224 C226 1.240 . S
O225 Co198 2.096 . S
O225 C206 1.247 . S
C226 O223 1.244 . S
C226 O224 1.240 . S
H227 C201 0.931 . S
H228 C210 0.931 . S
H229 C214 0.929 . S
H230 C216 0.930 . S
Co231 N235 2.148 . S
Co231 N241 2.128 . S
Co231 N251 2.194 . S
Co231 O256 2.351 . S
Co231 O257 2.155 . S
Co231 O258 2.096 . S
C232 N235 1.301 . S
C232 N236 1.328 . S
C232 H237 0.930 . S
C233 C234 1.333 . S
C233 N235 1.317 . S
C233 H238 0.930 . S
C234 C233 1.333 . S
C234 N236 1.350 . S
C234 H260 0.931 . S
N235 Co231 2.148 . S
N235 C232 1.301 . S
N235 C233 1.317 . S
N236 C232 1.328 . S
N236 C234 1.350 . S
H237 C232 0.930 . S
H238 C233 0.930 . S
C239 O240 1.224 . S
C239 O258 1.247 . S
O240 C239 1.224 . S
N241 Co231 2.128 . S
N241 C242 1.355 . S
N241 C244 1.311 . S
C242 N241 1.355 . S
C242 C243 1.363 . S
C242 H254 0.929 . S
C243 C242 1.363 . S
C243 N245 1.375 . S
C243 H261 0.931 . S
C244 N241 1.311 . S
C244 N245 1.347 . S
C244 H255 0.929 . S
N245 C243 1.375 . S
N245 C244 1.347 . S
C246 C249 1.365 . S
C246 N251 1.328 . S
C246 H252 0.929 . S
C247 C248 1.362 . S
C247 C250 1.378 . S
C247 H262 0.929 1_545 S
C248 C247 1.362 . S
C248 C249 1.366 . S
C249 C246 1.365 . S
C249 C248 1.366 . S
C249 H263 0.930 . S
C250 C247 1.378 . S
C250 N251 1.315 . S
C250 H253 0.930 . S
N251 Co231 2.194 . S
N251 C246 1.328 . S
N251 C250 1.315 . S
H252 C246 0.929 . S
H253 C250 0.930 . S
H254 C242 0.929 . S
H255 C244 0.929 . S
O256 Co231 2.351 . S
O256 C259 1.244 . S
O257 Co231 2.155 . S
O257 C259 1.240 . S
O258 Co231 2.096 . S
O258 C239 1.247 . S
C259 O256 1.244 . S
C259 O257 1.240 . S
H260 C234 0.931 . S
H261 C243 0.931 . S
H262 C247 0.929 1_565 S
H263 C249 0.930 . S
Co264 N268 2.148 . S
Co264 N274 2.128 . S
Co264 N284 2.194 . S
Co264 O289 2.351 . S
Co264 O290 2.155 . S
Co264 O291 2.096 . S
C265 N268 1.301 . S
C265 N269 1.328 . S
C265 H270 0.930 . S
C266 C267 1.333 . S
C266 N268 1.317 . S
C266 H271 0.930 . S
C267 C266 1.333 . S
C267 N269 1.350 . S
C267 H293 0.931 . S
N268 Co264 2.148 . S
N268 C265 1.301 . S
N268 C266 1.317 . S
N269 C265 1.328 . S
N269 C267 1.350 . S
H270 C265 0.930 . S
H271 C266 0.930 . S
C272 O273 1.224 . S
C272 O291 1.247 . S
O273 C272 1.224 . S
N274 Co264 2.128 . S
N274 C275 1.355 . S
N274 C277 1.311 . S
C275 N274 1.355 . S
C275 C276 1.363 . S
C275 H287 0.929 . S
C276 C275 1.363 . S
C276 N278 1.375 . S
C276 H294 0.931 . S
C277 N274 1.311 . S
C277 N278 1.347 . S
C277 H288 0.929 . S
N278 C276 1.375 . S
N278 C277 1.347 . S
C279 C282 1.365 . S
C279 N284 1.328 . S
C279 H285 0.929 . S
C280 C281 1.362 . S
C280 C283 1.378 . S
C280 H295 0.929 . S
C281 C280 1.362 . S
C281 C282 1.366 . S
C282 C279 1.365 . S
C282 C281 1.366 . S
C282 H296 0.930 . S
C283 C280 1.378 . S
C283 N284 1.315 . S
C283 H286 0.930 . S
N284 Co264 2.194 . S
N284 C279 1.328 . S
N284 C283 1.315 . S
H285 C279 0.929 . S
H286 C283 0.930 . S
H287 C275 0.929 . S
H288 C277 0.929 . S
O289 Co264 2.351 . S
O289 C292 1.244 . S
O290 Co264 2.155 . S
O290 C292 1.240 . S
O291 Co264 2.096 . S
O291 C272 1.247 . S
C292 O289 1.244 . S
C292 O290 1.240 . S
H293 C267 0.931 . S
H294 C276 0.931 . S
H295 C280 0.929 . S
H296 C282 0.930 . S
Co297 N301 2.148 . S
Co297 N307 2.128 . S
Co297 N317 2.194 . S
Co297 O322 2.351 . S
Co297 O323 2.155 . S
Co297 O324 2.096 . S
C298 N301 1.301 . S
C298 N302 1.328 . S
C298 H303 0.930 . S
C299 C300 1.333 . S
C299 N301 1.317 . S
C299 H304 0.930 . S
C300 C299 1.333 . S
C300 N302 1.350 . S
C300 H326 0.931 . S
N301 Co297 2.148 . S
N301 C298 1.301 . S
N301 C299 1.317 . S
N302 C298 1.328 . S
N302 C300 1.350 . S
H303 C298 0.930 . S
H304 C299 0.930 . S
C305 O306 1.224 . S
C305 O324 1.247 . S
O306 C305 1.224 . S
N307 Co297 2.128 . S
N307 C308 1.355 . S
N307 C310 1.311 . S
C308 N307 1.355 . S
C308 C309 1.363 . S
C308 H320 0.929 . S
C309 C308 1.363 . S
C309 N311 1.375 . S
C309 H327 0.931 . S
C310 N307 1.311 . S
C310 N311 1.347 . S
C310 H321 0.929 . S
N311 C309 1.375 . S
N311 C310 1.347 . S
C312 C315 1.365 . S
C312 N317 1.328 . S
C312 H318 0.929 . S
C313 C314 1.362 . S
C313 C316 1.378 . S
C313 H328 0.929 1_545 S
C314 C313 1.362 . S
C314 C315 1.366 . S
C315 C312 1.365 . S
C315 C314 1.366 . S
C315 H329 0.930 . S
C316 C313 1.378 . S
C316 N317 1.315 . S
C316 H319 0.930 . S
N317 Co297 2.194 . S
N317 C312 1.328 . S
N317 C316 1.315 . S
H318 C312 0.929 . S
H319 C316 0.930 . S
H320 C308 0.929 . S
H321 C310 0.929 . S
O322 Co297 2.351 . S
O322 C325 1.244 . S
O323 Co297 2.155 . S
O323 C325 1.240 . S
O324 Co297 2.096 . S
O324 C305 1.247 . S
C325 O322 1.244 . S
C325 O323 1.240 . S
H326 C300 0.931 . S
H327 C309 0.931 . S
H328 C313 0.929 1_565 S
H329 C315 0.930 . S
Co330 N334 2.148 . S
Co330 N340 2.128 . S
Co330 N350 2.194 . S
Co330 O355 2.351 . S
Co330 O356 2.155 . S
Co330 O357 2.096 . S
C331 N334 1.301 . S
C331 N335 1.328 . S
C331 H336 0.930 . S
C332 C333 1.333 . S
C332 N334 1.317 . S
C332 H337 0.930 . S
C333 C332 1.333 . S
C333 N335 1.350 . S
C333 H359 0.931 . S
N334 Co330 2.148 . S
N334 C331 1.301 . S
N334 C332 1.317 . S
N335 C331 1.328 . S
N335 C333 1.350 . S
H336 C331 0.930 . S
H337 C332 0.930 . S
C338 O339 1.224 . S
C338 O357 1.247 . S
O339 C338 1.224 . S
N340 Co330 2.128 . S
N340 C341 1.355 . S
N340 C343 1.311 . S
C341 N340 1.355 . S
C341 C342 1.363 . S
C341 H353 0.929 . S
C342 C341 1.363 . S
C342 N344 1.375 . S
C342 H360 0.931 . S
C343 N340 1.311 . S
C343 N344 1.347 . S
C343 H354 0.929 . S
N344 C342 1.375 . S
N344 C343 1.347 . S
C345 C348 1.365 . S
C345 N350 1.328 . S
C345 H351 0.929 . S
C346 C347 1.362 . S
C346 C349 1.378 . S
C346 H361 0.929 . S
C347 C346 1.362 . S
C347 C348 1.366 . S
C348 C345 1.365 . S
C348 C347 1.366 . S
C348 H362 0.930 . S
C349 C346 1.378 . S
C349 N350 1.315 . S
C349 H352 0.930 . S
N350 Co330 2.194 . S
N350 C345 1.328 . S
N350 C349 1.315 . S
H351 C345 0.929 . S
H352 C349 0.930 . S
H353 C341 0.929 . S
H354 C343 0.929 . S
O355 Co330 2.351 . S
O355 C358 1.244 . S
O356 Co330 2.155 . S
O356 C358 1.240 . S
O357 Co330 2.096 . S
O357 C338 1.247 . S
C358 O355 1.244 . S
C358 O356 1.240 . S
H359 C333 0.931 . S
H360 C342 0.931 . S
H361 C346 0.929 . S
H362 C348 0.930 . S
Co363 N367 2.148 . S
Co363 N373 2.128 . S
Co363 N383 2.194 . S
Co363 O388 2.351 . S
Co363 O389 2.155 . S
Co363 O390 2.096 . S
C364 N367 1.301 . S
C364 N368 1.328 . S
C364 H369 0.930 . S
C365 C366 1.333 . S
C365 N367 1.317 . S
C365 H370 0.930 . S
C366 C365 1.333 . S
C366 N368 1.350 . S
C366 H392 0.931 . S
N367 Co363 2.148 . S
N367 C364 1.301 . S
N367 C365 1.317 . S
N368 C364 1.328 . S
N368 C366 1.350 . S
H369 C364 0.930 . S
H370 C365 0.930 . S
C371 O372 1.224 . S
C371 O390 1.247 . S
O372 C371 1.224 . S
N373 Co363 2.128 . S
N373 C374 1.355 . S
N373 C376 1.311 . S
C374 N373 1.355 . S
C374 C375 1.363 . S
C374 H386 0.929 . S
C375 C374 1.363 . S
C375 N377 1.375 . S
C375 H393 0.931 . S
C376 N373 1.311 . S
C376 N377 1.347 . S
C376 H387 0.929 . S
N377 C375 1.375 . S
N377 C376 1.347 . S
C378 C381 1.365 . S
C378 N383 1.328 . S
C378 H384 0.929 . S
C379 C380 1.362 . S
C379 C382 1.378 . S
C379 H394 0.929 1_565 S
C380 C379 1.362 . S
C380 C381 1.366 . S
C381 C378 1.365 . S
C381 C380 1.366 . S
C381 H395 0.930 . S
C382 C379 1.378 . S
C382 N383 1.315 . S
C382 H385 0.930 . S
N383 Co363 2.194 . S
N383 C378 1.328 . S
N383 C382 1.315 . S
H384 C378 0.929 . S
H385 C382 0.930 . S
H386 C374 0.929 . S
H387 C376 0.929 . S
O388 Co363 2.351 . S
O388 C391 1.244 . S
O389 Co363 2.155 . S
O389 C391 1.240 . S
O390 Co363 2.096 . S
O390 C371 1.247 . S
C391 O388 1.244 . S
C391 O389 1.240 . S
H392 C366 0.931 . S
H393 C375 0.931 . S
H394 C379 0.929 1_545 S
H395 C381 0.930 . S
Co396 N400 2.148 . S
Co396 N406 2.128 . S
Co396 N416 2.194 . S
Co396 O421 2.351 . S
Co396 O422 2.155 . S
Co396 O423 2.096 . S
C397 N400 1.301 . S
C397 N401 1.328 . S
C397 H402 0.930 . S
C398 C399 1.333 . S
C398 N400 1.317 . S
C398 H403 0.930 . S
C399 C398 1.333 . S
C399 N401 1.350 . S
C399 H425 0.931 . S
N400 Co396 2.148 . S
N400 C397 1.301 . S
N400 C398 1.317 . S
N401 C397 1.328 . S
N401 C399 1.350 . S
H402 C397 0.930 . S
H403 C398 0.930 . S
C404 O405 1.224 . S
C404 O423 1.247 . S
O405 C404 1.224 . S
N406 Co396 2.128 . S
N406 C407 1.355 . S
N406 C409 1.311 . S
C407 N406 1.355 . S
C407 C408 1.363 . S
C407 H419 0.929 . S
C408 C407 1.363 . S
C408 N410 1.375 . S
C408 H426 0.931 . S
C409 N406 1.311 . S
C409 N410 1.347 . S
C409 H420 0.929 . S
N410 C408 1.375 . S
N410 C409 1.347 . S
C411 C414 1.365 . S
C411 N416 1.328 . S
C411 H417 0.929 . S
C412 C413 1.362 . S
C412 C415 1.378 . S
C412 H427 0.929 . S
C413 C412 1.362 . S
C413 C414 1.366 . S
C414 C411 1.365 . S
C414 C413 1.366 . S
C414 H428 0.930 . S
C415 C412 1.378 . S
C415 N416 1.315 . S
C415 H418 0.930 . S
N416 Co396 2.194 . S
N416 C411 1.328 . S
N416 C415 1.315 . S
H417 C411 0.929 . S
H418 C415 0.930 . S
H419 C407 0.929 . S
H420 C409 0.929 . S
O421 Co396 2.351 . S
O421 C424 1.244 . S
O422 Co396 2.155 . S
O422 C424 1.240 . S
O423 Co396 2.096 . S
O423 C404 1.247 . S
C424 O421 1.244 . S
C424 O422 1.240 . S
H425 C399 0.931 . S
H426 C408 0.931 . S
H427 C412 0.929 . S
H428 C414 0.930 . S
Co429 N433 2.148 . S
Co429 N439 2.128 . S
Co429 N449 2.194 . S
Co429 O454 2.351 . S
Co429 O455 2.155 . S
Co429 O456 2.096 . S
C430 N433 1.301 . S
C430 N434 1.328 . S
C430 H435 0.930 . S
C431 C432 1.333 . S
C431 N433 1.317 . S
C431 H436 0.930 . S
C432 C431 1.333 . S
C432 N434 1.350 . S
C432 H458 0.931 . S
N433 Co429 2.148 . S
N433 C430 1.301 . S
N433 C431 1.317 . S
N434 C430 1.328 . S
N434 C432 1.350 . S
H435 C430 0.930 . S
H436 C431 0.930 . S
C437 O438 1.224 . S
C437 O456 1.247 . S
O438 C437 1.224 . S
N439 Co429 2.128 . S
N439 C440 1.355 . S
N439 C442 1.311 . S
C440 N439 1.355 . S
C440 C441 1.363 . S
C440 H452 0.929 . S
C441 C440 1.363 . S
C441 N443 1.375 . S
C441 H459 0.931 . S
C442 N439 1.311 . S
C442 N443 1.347 . S
C442 H453 0.929 . S
N443 C441 1.375 . S
N443 C442 1.347 . S
C444 C447 1.365 . S
C444 N449 1.328 . S
C444 H450 0.929 . S
C445 C446 1.362 . S
C445 C448 1.378 . S
C445 H460 0.929 1_545 S
C446 C445 1.362 . S
C446 C447 1.366 . S
C447 C444 1.365 . S
C447 C446 1.366 . S
C447 H461 0.930 . S
C448 C445 1.378 . S
C448 N449 1.315 . S
C448 H451 0.930 . S
N449 Co429 2.194 . S
N449 C444 1.328 . S
N449 C448 1.315 . S
H450 C444 0.929 . S
H451 C448 0.930 . S
H452 C440 0.929 . S
H453 C442 0.929 . S
O454 Co429 2.351 . S
O454 C457 1.244 . S
O455 Co429 2.155 . S
O455 C457 1.240 . S
O456 Co429 2.096 . S
O456 C437 1.247 . S
C457 O454 1.244 . S
C457 O455 1.240 . S
H458 C432 0.931 . S
H459 C441 0.931 . S
H460 C445 0.929 1_565 S
H461 C447 0.930 . S
Co462 N466 2.148 . S
Co462 N472 2.128 . S
Co462 N482 2.194 . S
Co462 O487 2.351 . S
Co462 O488 2.155 . S
Co462 O489 2.096 . S
C463 N466 1.301 . S
C463 N467 1.328 . S
C463 H468 0.930 . S
C464 C465 1.333 . S
C464 N466 1.317 . S
C464 H469 0.930 . S
C465 C464 1.333 . S
C465 N467 1.350 . S
C465 H491 0.931 . S
N466 Co462 2.148 . S
N466 C463 1.301 . S
N466 C464 1.317 . S
N467 C463 1.328 . S
N467 C465 1.350 . S
H468 C463 0.930 . S
H469 C464 0.930 . S
C470 O471 1.224 . S
C470 O489 1.247 . S
O471 C470 1.224 . S
N472 Co462 2.128 . S
N472 C473 1.355 . S
N472 C475 1.311 . S
C473 N472 1.355 . S
C473 C474 1.363 . S
C473 H485 0.929 . S
C474 C473 1.363 . S
C474 N476 1.375 . S
C474 H492 0.931 . S
C475 N472 1.311 . S
C475 N476 1.347 . S
C475 H486 0.929 . S
N476 C474 1.375 . S
N476 C475 1.347 . S
C477 C480 1.365 . S
C477 N482 1.328 . S
C477 H483 0.929 . S
C478 C479 1.362 . S
C478 C481 1.378 . S
C478 H493 0.929 . S
C479 C478 1.362 . S
C479 C480 1.366 . S
C480 C477 1.365 . S
C480 C479 1.366 . S
C480 H494 0.930 . S
C481 C478 1.378 . S
C481 N482 1.315 . S
C481 H484 0.930 . S
N482 Co462 2.194 . S
N482 C477 1.328 . S
N482 C481 1.315 . S
H483 C477 0.929 . S
H484 C481 0.930 . S
H485 C473 0.929 . S
H486 C475 0.929 . S
O487 Co462 2.351 . S
O487 C490 1.244 . S
O488 Co462 2.155 . S
O488 C490 1.240 . S
O489 Co462 2.096 . S
O489 C470 1.247 . S
C490 O487 1.244 . S
C490 O488 1.240 . S
H491 C465 0.931 . S
H492 C474 0.931 . S
H493 C478 0.929 . S
H494 C480 0.930 . S
Co495 N499 2.148 . S
Co495 N505 2.128 . S
Co495 N515 2.194 . S
Co495 O520 2.351 . S
Co495 O521 2.155 . S
Co495 O522 2.096 . S
C496 N499 1.301 . S
C496 N500 1.328 . S
C496 H501 0.930 . S
C497 C498 1.333 . S
C497 N499 1.317 . S
C497 H502 0.930 . S
C498 C497 1.333 . S
C498 N500 1.350 . S
C498 H524 0.931 . S
N499 Co495 2.148 . S
N499 C496 1.301 . S
N499 C497 1.317 . S
N500 C496 1.328 . S
N500 C498 1.350 . S
H501 C496 0.930 . S
H502 C497 0.930 . S
C503 O504 1.224 . S
C503 O522 1.247 . S
O504 C503 1.224 . S
N505 Co495 2.128 . S
N505 C506 1.355 . S
N505 C508 1.311 . S
C506 N505 1.355 . S
C506 C507 1.363 . S
C506 H518 0.929 . S
C507 C506 1.363 . S
C507 N509 1.375 . S
C507 H525 0.931 . S
C508 N505 1.311 . S
C508 N509 1.347 . S
C508 H519 0.929 . S
N509 C507 1.375 . S
N509 C508 1.347 . S
C510 C513 1.365 . S
C510 N515 1.328 . S
C510 H516 0.929 . S
C511 C512 1.362 . S
C511 C514 1.378 . S
C511 H526 0.929 1_565 S
C512 C511 1.362 . S
C512 C513 1.366 . S
C513 C510 1.365 . S
C513 C512 1.366 . S
C513 H527 0.930 . S
C514 C511 1.378 . S
C514 N515 1.315 . S
C514 H517 0.930 . S
N515 Co495 2.194 . S
N515 C510 1.328 . S
N515 C514 1.315 . S
H516 C510 0.929 . S
H517 C514 0.930 . S
H518 C506 0.929 . S
H519 C508 0.929 . S
O520 Co495 2.351 . S
O520 C523 1.244 . S
O521 Co495 2.155 . S
O521 C523 1.240 . S
O522 Co495 2.096 . S
O522 C503 1.247 . S
C523 O520 1.244 . S
C523 O521 1.240 . S
H524 C498 0.931 . S
H525 C507 0.931 . S
H526 C511 0.929 1_545 S
H527 C513 0.930 . S
Co528 N532 2.148 . S
Co528 N538 2.128 . S
Co528 N548 2.194 . S
Co528 O553 2.351 . S
Co528 O554 2.155 . S
Co528 O555 2.096 . S
C529 N532 1.301 . S
C529 N533 1.328 . S
C529 H534 0.930 . S
C530 C531 1.333 . S
C530 N532 1.317 . S
C530 H535 0.930 . S
C531 C530 1.333 . S
C531 N533 1.350 . S
C531 H557 0.931 . S
N532 Co528 2.148 . S
N532 C529 1.301 . S
N532 C530 1.317 . S
N533 C529 1.328 . S
N533 C531 1.350 . S
H534 C529 0.930 . S
H535 C530 0.930 . S
C536 O537 1.224 . S
C536 O555 1.247 . S
O537 C536 1.224 . S
N538 Co528 2.128 . S
N538 C539 1.355 . S
N538 C541 1.311 . S
C539 N538 1.355 . S
C539 C540 1.363 . S
C539 H551 0.929 . S
C540 C539 1.363 . S
C540 N542 1.375 . S
C540 H558 0.931 . S
C541 N538 1.311 . S
C541 N542 1.347 . S
C541 H552 0.929 . S
N542 C540 1.375 . S
N542 C541 1.347 . S
C543 C546 1.365 . S
C543 N548 1.328 . S
C543 H549 0.929 . S
C544 C545 1.362 . S
C544 C547 1.378 . S
C544 H559 0.929 . S
C545 C544 1.362 . S
C545 C546 1.366 . S
C546 C543 1.365 . S
C546 C545 1.366 . S
C546 H560 0.930 . S
C547 C544 1.378 . S
C547 N548 1.315 . S
C547 H550 0.930 . S
N548 Co528 2.194 . S
N548 C543 1.328 . S
N548 C547 1.315 . S
H549 C543 0.929 . S
H550 C547 0.930 . S
H551 C539 0.929 . S
H552 C541 0.929 . S
O553 Co528 2.351 . S
O553 C556 1.244 . S
O554 Co528 2.155 . S
O554 C556 1.240 . S
O555 Co528 2.096 . S
O555 C536 1.247 . S
C556 O553 1.244 . S
C556 O554 1.240 . S
H557 C531 0.931 . S
H558 C540 0.931 . S
H559 C544 0.929 . S
H560 C546 0.930 . S
Co561 N565 2.148 . S
Co561 N571 2.128 . S
Co561 N581 2.194 . S
Co561 O586 2.351 . S
Co561 O587 2.155 . S
Co561 O588 2.096 . S
C562 N565 1.301 . S
C562 N566 1.328 . S
C562 H567 0.930 . S
C563 C564 1.333 . S
C563 N565 1.317 . S
C563 H568 0.930 . S
C564 C563 1.333 . S
C564 N566 1.350 . S
C564 H590 0.931 . S
N565 Co561 2.148 . S
N565 C562 1.301 . S
N565 C563 1.317 . S
N566 C562 1.328 . S
N566 C564 1.350 . S
H567 C562 0.930 . S
H568 C563 0.930 . S
C569 O570 1.224 . S
C569 O588 1.247 . S
O570 C569 1.224 . S
N571 Co561 2.128 . S
N571 C572 1.355 . S
N571 C574 1.311 . S
C572 N571 1.355 . S
C572 C573 1.363 . S
C572 H584 0.929 . S
C573 C572 1.363 . S
C573 N575 1.375 . S
C573 H591 0.931 . S
C574 N571 1.311 . S
C574 N575 1.347 . S
C574 H585 0.929 . S
N575 C573 1.375 . S
N575 C574 1.347 . S
C576 C579 1.365 . S
C576 N581 1.328 . S
C576 H582 0.929 . S
C577 C578 1.362 . S
C577 C580 1.378 . S
C577 H592 0.929 . S
C578 C577 1.362 . S
C578 C579 1.366 . S
C579 C576 1.365 . S
C579 C578 1.366 . S
C579 H593 0.930 . S
C580 C577 1.378 . S
C580 N581 1.315 . S
C580 H583 0.930 . S
N581 Co561 2.194 . S
N581 C576 1.328 . S
N581 C580 1.315 . S
H582 C576 0.929 . S
H583 C580 0.930 . S
H584 C572 0.929 . S
H585 C574 0.929 . S
O586 Co561 2.351 . S
O586 C589 1.244 . S
O587 Co561 2.155 . S
O587 C589 1.240 . S
O588 Co561 2.096 . S
O588 C569 1.247 . S
C589 O586 1.244 . S
C589 O587 1.240 . S
H590 C564 0.931 . S
H591 C573 0.931 . S
H592 C577 0.929 . S
H593 C579 0.930 . S
Co594 N598 2.148 . S
Co594 N604 2.128 . S
Co594 N614 2.194 . S
Co594 O619 2.351 . S
Co594 O620 2.155 . S
Co594 O621 2.096 . S
C595 N598 1.301 . S
C595 N599 1.328 . S
C595 H600 0.930 . S
C596 C597 1.333 . S
C596 N598 1.317 . S
C596 H601 0.930 . S
C597 C596 1.333 . S
C597 N599 1.350 . S
C597 H623 0.931 . S
N598 Co594 2.148 . S
N598 C595 1.301 . S
N598 C596 1.317 . S
N599 C595 1.328 . S
N599 C597 1.350 . S
H600 C595 0.930 . S
H601 C596 0.930 . S
C602 O603 1.224 . S
C602 O621 1.247 . S
O603 C602 1.224 . S
N604 Co594 2.128 . S
N604 C605 1.355 . S
N604 C607 1.311 . S
C605 N604 1.355 . S
C605 C606 1.363 . S
C605 H617 0.929 . S
C606 C605 1.363 . S
C606 N608 1.375 . S
C606 H624 0.931 . S
C607 N604 1.311 . S
C607 N608 1.347 . S
C607 H618 0.929 . S
N608 C606 1.375 . S
N608 C607 1.347 . S
C609 C612 1.365 . S
C609 N614 1.328 . S
C609 H615 0.929 . S
C610 C611 1.362 . S
C610 C613 1.378 . S
C610 H625 0.929 . S
C611 C610 1.362 . S
C611 C612 1.366 . S
C612 C609 1.365 . S
C612 C611 1.366 . S
C612 H626 0.930 . S
C613 C610 1.378 . S
C613 N614 1.315 . S
C613 H616 0.930 . S
N614 Co594 2.194 . S
N614 C609 1.328 . S
N614 C613 1.315 . S
H615 C609 0.929 . S
H616 C613 0.930 . S
H617 C605 0.929 . S
H618 C607 0.929 . S
O619 Co594 2.351 . S
O619 C622 1.244 . S
O620 Co594 2.155 . S
O620 C622 1.240 . S
O621 Co594 2.096 . S
O621 C602 1.247 . S
C622 O619 1.244 . S
C622 O620 1.240 . S
H623 C597 0.931 . S
H624 C606 0.931 . S
H625 C610 0.929 . S
H626 C612 0.930 . S
Co627 N631 2.148 . S
Co627 N637 2.128 . S
Co627 N647 2.194 . S
Co627 O652 2.351 . S
Co627 O653 2.155 . S
Co627 O654 2.096 . S
C628 N631 1.301 . S
C628 N632 1.328 . S
C628 H633 0.930 . S
C629 C630 1.333 . S
C629 N631 1.317 . S
C629 H634 0.930 . S
C630 C629 1.333 . S
C630 N632 1.350 . S
C630 H656 0.931 . S
N631 Co627 2.148 . S
N631 C628 1.301 . S
N631 C629 1.317 . S
N632 C628 1.328 . S
N632 C630 1.350 . S
H633 C628 0.930 . S
H634 C629 0.930 . S
C635 O636 1.224 . S
C635 O654 1.247 . S
O636 C635 1.224 . S
N637 Co627 2.128 . S
N637 C638 1.355 . S
N637 C640 1.311 . S
C638 N637 1.355 . S
C638 C639 1.363 . S
C638 H650 0.929 . S
C639 C638 1.363 . S
C639 N641 1.375 . S
C639 H657 0.931 . S
C640 N637 1.311 . S
C640 N641 1.347 . S
C640 H651 0.929 . S
N641 C639 1.375 . S
N641 C640 1.347 . S
C642 C645 1.365 . S
C642 N647 1.328 . S
C642 H648 0.929 . S
C643 C644 1.362 . S
C643 C646 1.378 . S
C643 H658 0.929 . S
C644 C643 1.362 . S
C644 C645 1.366 . S
C645 C642 1.365 . S
C645 C644 1.366 . S
C645 H659 0.930 . S
C646 C643 1.378 . S
C646 N647 1.315 . S
C646 H649 0.930 . S
N647 Co627 2.194 . S
N647 C642 1.328 . S
N647 C646 1.315 . S
H648 C642 0.929 . S
H649 C646 0.930 . S
H650 C638 0.929 . S
H651 C640 0.929 . S
O652 Co627 2.351 . S
O652 C655 1.244 . S
O653 Co627 2.155 . S
O653 C655 1.240 . S
O654 Co627 2.096 . S
O654 C635 1.247 . S
C655 O652 1.244 . S
C655 O653 1.240 . S
H656 C630 0.931 . S
H657 C639 0.931 . S
H658 C643 0.929 . S
H659 C645 0.930 . S
Co660 N664 2.148 . S
Co660 N670 2.128 . S
Co660 N680 2.194 . S
Co660 O685 2.351 . S
Co660 O686 2.155 . S
Co660 O687 2.096 . S
C661 N664 1.301 . S
C661 N665 1.328 . S
C661 H666 0.930 . S
C662 C663 1.333 . S
C662 N664 1.317 . S
C662 H667 0.930 . S
C663 C662 1.333 . S
C663 N665 1.350 . S
C663 H689 0.931 . S
N664 Co660 2.148 . S
N664 C661 1.301 . S
N664 C662 1.317 . S
N665 C661 1.328 . S
N665 C663 1.350 . S
H666 C661 0.930 . S
H667 C662 0.930 . S
C668 O669 1.224 . S
C668 O687 1.247 . S
O669 C668 1.224 . S
N670 Co660 2.128 . S
N670 C671 1.355 . S
N670 C673 1.311 . S
C671 N670 1.355 . S
C671 C672 1.363 . S
C671 H683 0.929 . S
C672 C671 1.363 . S
C672 N674 1.375 . S
C672 H690 0.931 . S
C673 N670 1.311 . S
C673 N674 1.347 . S
C673 H684 0.929 . S
N674 C672 1.375 . S
N674 C673 1.347 . S
C675 C678 1.365 . S
C675 N680 1.328 . S
C675 H681 0.929 . S
C676 C677 1.362 . S
C676 C679 1.378 . S
C676 H691 0.929 . S
C677 C676 1.362 . S
C677 C678 1.366 . S
C678 C675 1.365 . S
C678 C677 1.366 . S
C678 H692 0.930 . S
C679 C676 1.378 . S
C679 N680 1.315 . S
C679 H682 0.930 . S
N680 Co660 2.194 . S
N680 C675 1.328 . S
N680 C679 1.315 . S
H681 C675 0.929 . S
H682 C679 0.930 . S
H683 C671 0.929 . S
H684 C673 0.929 . S
O685 Co660 2.351 . S
O685 C688 1.244 . S
O686 Co660 2.155 . S
O686 C688 1.240 . S
O687 Co660 2.096 . S
O687 C668 1.247 . S
C688 O685 1.244 . S
C688 O686 1.240 . S
H689 C663 0.931 . S
H690 C672 0.931 . S
H691 C676 0.929 . S
H692 C678 0.930 . S
Co693 N697 2.148 . S
Co693 N703 2.128 . S
Co693 N713 2.194 . S
Co693 O718 2.351 . S
Co693 O719 2.155 . S
Co693 O720 2.096 . S
C694 N697 1.301 . S
C694 N698 1.328 . S
C694 H699 0.930 . S
C695 C696 1.333 . S
C695 N697 1.317 . S
C695 H700 0.930 . S
C696 C695 1.333 . S
C696 N698 1.350 . S
C696 H722 0.931 . S
N697 Co693 2.148 . S
N697 C694 1.301 . S
N697 C695 1.317 . S
N698 C694 1.328 . S
N698 C696 1.350 . S
H699 C694 0.930 . S
H700 C695 0.930 . S
C701 O702 1.224 . S
C701 O720 1.247 . S
O702 C701 1.224 . S
N703 Co693 2.128 . S
N703 C704 1.355 . S
N703 C706 1.311 . S
C704 N703 1.355 . S
C704 C705 1.363 . S
C704 H716 0.929 . S
C705 C704 1.363 . S
C705 N707 1.375 . S
C705 H723 0.931 . S
C706 N703 1.311 . S
C706 N707 1.347 . S
C706 H717 0.929 . S
N707 C705 1.375 . S
N707 C706 1.347 . S
C708 C711 1.365 . S
C708 N713 1.328 . S
C708 H714 0.929 . S
C709 C710 1.362 . S
C709 C712 1.378 . S
C709 H724 0.929 . S
C710 C709 1.362 . S
C710 C711 1.366 . S
C711 C708 1.365 . S
C711 C710 1.366 . S
C711 H725 0.930 . S
C712 C709 1.378 . S
C712 N713 1.315 . S
C712 H715 0.930 . S
N713 Co693 2.194 . S
N713 C708 1.328 . S
N713 C712 1.315 . S
H714 C708 0.929 . S
H715 C712 0.930 . S
H716 C704 0.929 . S
H717 C706 0.929 . S
O718 Co693 2.351 . S
O718 C721 1.244 . S
O719 Co693 2.155 . S
O719 C721 1.240 . S
O720 Co693 2.096 . S
O720 C701 1.247 . S
C721 O718 1.244 . S
C721 O719 1.240 . S
H722 C696 0.931 . S
H723 C705 0.931 . S
H724 C709 0.929 . S
H725 C711 0.930 . S
Co726 N730 2.148 . S
Co726 N736 2.128 . S
Co726 N746 2.194 . S
Co726 O751 2.351 . S
Co726 O752 2.155 . S
Co726 O753 2.096 . S
C727 N730 1.301 . S
C727 N731 1.328 . S
C727 H732 0.930 . S
C728 C729 1.333 . S
C728 N730 1.317 . S
C728 H733 0.930 . S
C729 C728 1.333 . S
C729 N731 1.350 . S
C729 H755 0.931 . S
N730 Co726 2.148 . S
N730 C727 1.301 . S
N730 C728 1.317 . S
N731 C727 1.328 . S
N731 C729 1.350 . S
H732 C727 0.930 . S
H733 C728 0.930 . S
C734 O735 1.224 . S
C734 O753 1.247 . S
O735 C734 1.224 . S
N736 Co726 2.128 . S
N736 C737 1.355 . S
N736 C739 1.311 . S
C737 N736 1.355 . S
C737 C738 1.363 . S
C737 H749 0.929 . S
C738 C737 1.363 . S
C738 N740 1.375 . S
C738 H756 0.931 . S
C739 N736 1.311 . S
C739 N740 1.347 . S
C739 H750 0.929 . S
N740 C738 1.375 . S
N740 C739 1.347 . S
C741 C744 1.365 . S
C741 N746 1.328 . S
C741 H747 0.929 . S
C742 C743 1.362 . S
C742 C745 1.378 . S
C742 H757 0.929 . S
C743 C742 1.362 . S
C743 C744 1.366 . S
C744 C741 1.365 . S
C744 C743 1.366 . S
C744 H758 0.930 . S
C745 C742 1.378 . S
C745 N746 1.315 . S
C745 H748 0.930 . S
N746 Co726 2.194 . S
N746 C741 1.328 . S
N746 C745 1.315 . S
H747 C741 0.929 . S
H748 C745 0.930 . S
H749 C737 0.929 . S
H750 C739 0.929 . S
O751 Co726 2.351 . S
O751 C754 1.244 . S
O752 Co726 2.155 . S
O752 C754 1.240 . S
O753 Co726 2.096 . S
O753 C734 1.247 . S
C754 O751 1.244 . S
C754 O752 1.240 . S
H755 C729 0.931 . S
H756 C738 0.931 . S
H757 C742 0.929 . S
H758 C744 0.930 . S
Co759 N763 2.148 . S
Co759 N769 2.128 . S
Co759 N779 2.194 . S
Co759 O784 2.351 . S
Co759 O785 2.155 . S
Co759 O786 2.096 . S
C760 N763 1.301 . S
C760 N764 1.328 . S
C760 H765 0.930 . S
C761 C762 1.333 . S
C761 N763 1.317 . S
C761 H766 0.930 . S
C762 C761 1.333 . S
C762 N764 1.350 . S
C762 H788 0.931 . S
N763 Co759 2.148 . S
N763 C760 1.301 . S
N763 C761 1.317 . S
N764 C760 1.328 . S
N764 C762 1.350 . S
H765 C760 0.930 . S
H766 C761 0.930 . S
C767 O768 1.224 . S
C767 O786 1.247 . S
O768 C767 1.224 . S
N769 Co759 2.128 . S
N769 C770 1.355 . S
N769 C772 1.311 . S
C770 N769 1.355 . S
C770 C771 1.363 . S
C770 H782 0.929 . S
C771 C770 1.363 . S
C771 N773 1.375 . S
C771 H789 0.931 . S
C772 N769 1.311 . S
C772 N773 1.347 . S
C772 H783 0.929 . S
N773 C771 1.375 . S
N773 C772 1.347 . S
C774 C777 1.365 . S
C774 N779 1.328 . S
C774 H780 0.929 . S
C775 C776 1.362 . S
C775 C778 1.378 . S
C775 H790 0.929 . S
C776 C775 1.362 . S
C776 C777 1.366 . S
C777 C774 1.365 . S
C777 C776 1.366 . S
C777 H791 0.930 . S
C778 C775 1.378 . S
C778 N779 1.315 . S
C778 H781 0.930 . S
N779 Co759 2.194 . S
N779 C774 1.328 . S
N779 C778 1.315 . S
H780 C774 0.929 . S
H781 C778 0.930 . S
H782 C770 0.929 . S
H783 C772 0.929 . S
O784 Co759 2.351 . S
O784 C787 1.244 . S
O785 Co759 2.155 . S
O785 C787 1.240 . S
O786 Co759 2.096 . S
O786 C767 1.247 . S
C787 O784 1.244 . S
C787 O785 1.240 . S
H788 C762 0.931 . S
H789 C771 0.931 . S
H790 C775 0.929 . S
H791 C777 0.930 . S
Co792 N796 2.148 . S
Co792 N802 2.128 . S
Co792 N812 2.194 . S
Co792 O817 2.351 . S
Co792 O818 2.155 . S
Co792 O819 2.096 . S
C793 N796 1.301 . S
C793 N797 1.328 . S
C793 H798 0.930 . S
C794 C795 1.333 . S
C794 N796 1.317 . S
C794 H799 0.930 . S
C795 C794 1.333 . S
C795 N797 1.350 . S
C795 H821 0.931 . S
N796 Co792 2.148 . S
N796 C793 1.301 . S
N796 C794 1.317 . S
N797 C793 1.328 . S
N797 C795 1.350 . S
H798 C793 0.930 . S
H799 C794 0.930 . S
C800 O801 1.224 . S
C800 O819 1.247 . S
O801 C800 1.224 . S
N802 Co792 2.128 . S
N802 C803 1.355 . S
N802 C805 1.311 . S
C803 N802 1.355 . S
C803 C804 1.363 . S
C803 H815 0.929 . S
C804 C803 1.363 . S
C804 N806 1.375 . S
C804 H822 0.931 . S
C805 N802 1.311 . S
C805 N806 1.347 . S
C805 H816 0.929 . S
N806 C804 1.375 . S
N806 C805 1.347 . S
C807 C810 1.365 . S
C807 N812 1.328 . S
C807 H813 0.929 . S
C808 C809 1.362 . S
C808 C811 1.378 . S
C808 H823 0.929 . S
C809 C808 1.362 . S
C809 C810 1.366 . S
C810 C807 1.365 . S
C810 C809 1.366 . S
C810 H824 0.930 . S
C811 C808 1.378 . S
C811 N812 1.315 . S
C811 H814 0.930 . S
N812 Co792 2.194 . S
N812 C807 1.328 . S
N812 C811 1.315 . S
H813 C807 0.929 . S
H814 C811 0.930 . S
H815 C803 0.929 . S
H816 C805 0.929 . S
O817 Co792 2.351 . S
O817 C820 1.244 . S
O818 Co792 2.155 . S
O818 C820 1.240 . S
O819 Co792 2.096 . S
O819 C800 1.247 . S
C820 O817 1.244 . S
C820 O818 1.240 . S
H821 C795 0.931 . S
H822 C804 0.931 . S
H823 C808 0.929 . S
H824 C810 0.930 . S
Co825 N829 2.148 . S
Co825 N835 2.128 . S
Co825 N845 2.194 . S
Co825 O850 2.351 . S
Co825 O851 2.155 . S
Co825 O852 2.096 . S
C826 N829 1.301 . S
C826 N830 1.328 . S
C826 H831 0.930 . S
C827 C828 1.333 . S
C827 N829 1.317 . S
C827 H832 0.930 . S
C828 C827 1.333 . S
C828 N830 1.350 . S
C828 H854 0.931 . S
N829 Co825 2.148 . S
N829 C826 1.301 . S
N829 C827 1.317 . S
N830 C826 1.328 . S
N830 C828 1.350 . S
H831 C826 0.930 . S
H832 C827 0.930 . S
C833 O834 1.224 . S
C833 O852 1.247 . S
O834 C833 1.224 . S
N835 Co825 2.128 . S
N835 C836 1.355 . S
N835 C838 1.311 . S
C836 N835 1.355 . S
C836 C837 1.363 . S
C836 H848 0.929 . S
C837 C836 1.363 . S
C837 N839 1.375 . S
C837 H855 0.931 . S
C838 N835 1.311 . S
C838 N839 1.347 . S
C838 H849 0.929 . S
N839 C837 1.375 . S
N839 C838 1.347 . S
C840 C843 1.365 . S
C840 N845 1.328 . S
C840 H846 0.929 . S
C841 C842 1.362 . S
C841 C844 1.378 . S
C841 H856 0.929 . S
C842 C841 1.362 . S
C842 C843 1.366 . S
C843 C840 1.365 . S
C843 C842 1.366 . S
C843 H857 0.930 . S
C844 C841 1.378 . S
C844 N845 1.315 . S
C844 H847 0.930 . S
N845 Co825 2.194 . S
N845 C840 1.328 . S
N845 C844 1.315 . S
H846 C840 0.929 . S
H847 C844 0.930 . S
H848 C836 0.929 . S
H849 C838 0.929 . S
O850 Co825 2.351 . S
O850 C853 1.244 . S
O851 Co825 2.155 . S
O851 C853 1.240 . S
O852 Co825 2.096 . S
O852 C833 1.247 . S
C853 O850 1.244 . S
C853 O851 1.240 . S
H854 C828 0.931 . S
H855 C837 0.931 . S
H856 C841 0.929 . S
H857 C843 0.930 . S
Co858 N862 2.148 . S
Co858 N868 2.128 . S
Co858 N878 2.194 . S
Co858 O883 2.351 . S
Co858 O884 2.155 . S
Co858 O885 2.096 . S
C859 N862 1.301 . S
C859 N863 1.328 . S
C859 H864 0.930 . S
C860 C861 1.333 . S
C860 N862 1.317 . S
C860 H865 0.930 . S
C861 C860 1.333 . S
C861 N863 1.350 . S
C861 H887 0.931 . S
N862 Co858 2.148 . S
N862 C859 1.301 . S
N862 C860 1.317 . S
N863 C859 1.328 . S
N863 C861 1.350 . S
H864 C859 0.930 . S
H865 C860 0.930 . S
C866 O867 1.224 . S
C866 O885 1.247 . S
O867 C866 1.224 . S
N868 Co858 2.128 . S
N868 C869 1.355 . S
N868 C871 1.311 . S
C869 N868 1.355 . S
C869 C870 1.363 . S
C869 H881 0.929 . S
C870 C869 1.363 . S
C870 N872 1.375 . S
C870 H888 0.931 . S
C871 N868 1.311 . S
C871 N872 1.347 . S
C871 H882 0.929 . S
N872 C870 1.375 . S
N872 C871 1.347 . S
C873 C876 1.365 . S
C873 N878 1.328 . S
C873 H879 0.929 . S
C874 C875 1.362 . S
C874 C877 1.378 . S
C874 H889 0.929 . S
C875 C874 1.362 . S
C875 C876 1.366 . S
C876 C873 1.365 . S
C876 C875 1.366 . S
C876 H890 0.930 . S
C877 C874 1.378 . S
C877 N878 1.315 . S
C877 H880 0.930 . S
N878 Co858 2.194 . S
N878 C873 1.328 . S
N878 C877 1.315 . S
H879 C873 0.929 . S
H880 C877 0.930 . S
H881 C869 0.929 . S
H882 C871 0.929 . S
O883 Co858 2.351 . S
O883 C886 1.244 . S
O884 Co858 2.155 . S
O884 C886 1.240 . S
O885 Co858 2.096 . S
O885 C866 1.247 . S
C886 O883 1.244 . S
C886 O884 1.240 . S
H887 C861 0.931 . S
H888 C870 0.931 . S
H889 C874 0.929 . S
H890 C876 0.930 . S
Co891 N895 2.148 . S
Co891 N901 2.128 . S
Co891 N911 2.194 . S
Co891 O916 2.351 . S
Co891 O917 2.155 . S
Co891 O918 2.096 . S
C892 N895 1.301 . S
C892 N896 1.328 . S
C892 H897 0.930 . S
C893 C894 1.333 . S
C893 N895 1.317 . S
C893 H898 0.930 . S
C894 C893 1.333 . S
C894 N896 1.350 . S
C894 H920 0.931 . S
N895 Co891 2.148 . S
N895 C892 1.301 . S
N895 C893 1.317 . S
N896 C892 1.328 . S
N896 C894 1.350 . S
H897 C892 0.930 . S
H898 C893 0.930 . S
C899 O900 1.224 . S
C899 O918 1.247 . S
O900 C899 1.224 . S
N901 Co891 2.128 . S
N901 C902 1.355 . S
N901 C904 1.311 . S
C902 N901 1.355 . S
C902 C903 1.363 . S
C902 H914 0.929 . S
C903 C902 1.363 . S
C903 N905 1.375 . S
C903 H921 0.931 . S
C904 N901 1.311 . S
C904 N905 1.347 . S
C904 H915 0.929 . S
N905 C903 1.375 . S
N905 C904 1.347 . S
C906 C909 1.365 . S
C906 N911 1.328 . S
C906 H912 0.929 . S
C907 C908 1.362 . S
C907 C910 1.378 . S
C907 H922 0.929 . S
C908 C907 1.362 . S
C908 C909 1.366 . S
C909 C906 1.365 . S
C909 C908 1.366 . S
C909 H923 0.930 . S
C910 C907 1.378 . S
C910 N911 1.315 . S
C910 H913 0.930 . S
N911 Co891 2.194 . S
N911 C906 1.328 . S
N911 C910 1.315 . S
H912 C906 0.929 . S
H913 C910 0.930 . S
H914 C902 0.929 . S
H915 C904 0.929 . S
O916 Co891 2.351 . S
O916 C919 1.244 . S
O917 Co891 2.155 . S
O917 C919 1.240 . S
O918 Co891 2.096 . S
O918 C899 1.247 . S
C919 O916 1.244 . S
C919 O917 1.240 . S
H920 C894 0.931 . S
H921 C903 0.931 . S
H922 C907 0.929 . S
H923 C909 0.930 . S
Co924 N928 2.148 . S
Co924 N934 2.128 . S
Co924 N944 2.194 . S
Co924 O949 2.351 . S
Co924 O950 2.155 . S
Co924 O951 2.096 . S
C925 N928 1.301 . S
C925 N929 1.328 . S
C925 H930 0.930 . S
C926 C927 1.333 . S
C926 N928 1.317 . S
C926 H931 0.930 . S
C927 C926 1.333 . S
C927 N929 1.350 . S
C927 H953 0.931 . S
N928 Co924 2.148 . S
N928 C925 1.301 . S
N928 C926 1.317 . S
N929 C925 1.328 . S
N929 C927 1.350 . S
H930 C925 0.930 . S
H931 C926 0.930 . S
C932 O933 1.224 . S
C932 O951 1.247 . S
O933 C932 1.224 . S
N934 Co924 2.128 . S
N934 C935 1.355 . S
N934 C937 1.311 . S
C935 N934 1.355 . S
C935 C936 1.363 . S
C935 H947 0.929 . S
C936 C935 1.363 . S
C936 N938 1.375 . S
C936 H954 0.931 . S
C937 N934 1.311 . S
C937 N938 1.347 . S
C937 H948 0.929 . S
N938 C936 1.375 . S
N938 C937 1.347 . S
C939 C942 1.365 . S
C939 N944 1.328 . S
C939 H945 0.929 . S
C940 C941 1.362 . S
C940 C943 1.378 . S
C940 H955 0.929 . S
C941 C940 1.362 . S
C941 C942 1.366 . S
C942 C939 1.365 . S
C942 C941 1.366 . S
C942 H956 0.930 . S
C943 C940 1.378 . S
C943 N944 1.315 . S
C943 H946 0.930 . S
N944 Co924 2.194 . S
N944 C939 1.328 . S
N944 C943 1.315 . S
H945 C939 0.929 . S
H946 C943 0.930 . S
H947 C935 0.929 . S
H948 C937 0.929 . S
O949 Co924 2.351 . S
O949 C952 1.244 . S
O950 Co924 2.155 . S
O950 C952 1.240 . S
O951 Co924 2.096 . S
O951 C932 1.247 . S
C952 O949 1.244 . S
C952 O950 1.240 . S
H953 C927 0.931 . S
H954 C936 0.931 . S
H955 C940 0.929 . S
H956 C942 0.930 . S
Co957 N961 2.148 . S
Co957 N967 2.128 . S
Co957 N977 2.194 . S
Co957 O982 2.351 . S
Co957 O983 2.155 . S
Co957 O984 2.096 . S
C958 N961 1.301 . S
C958 N962 1.328 . S
C958 H963 0.930 . S
C959 C960 1.333 . S
C959 N961 1.317 . S
C959 H964 0.930 . S
C960 C959 1.333 . S
C960 N962 1.350 . S
C960 H986 0.931 . S
N961 Co957 2.148 . S
N961 C958 1.301 . S
N961 C959 1.317 . S
N962 C958 1.328 . S
N962 C960 1.350 . S
H963 C958 0.930 . S
H964 C959 0.930 . S
C965 O966 1.224 . S
C965 O984 1.247 . S
O966 C965 1.224 . S
N967 Co957 2.128 . S
N967 C968 1.355 . S
N967 C970 1.311 . S
C968 N967 1.355 . S
C968 C969 1.363 . S
C968 H980 0.929 . S
C969 C968 1.363 . S
C969 N971 1.375 . S
C969 H987 0.931 . S
C970 N967 1.311 . S
C970 N971 1.347 . S
C970 H981 0.929 . S
N971 C969 1.375 . S
N971 C970 1.347 . S
C972 C975 1.365 . S
C972 N977 1.328 . S
C972 H978 0.929 . S
C973 C974 1.362 . S
C973 C976 1.378 . S
C973 H988 0.929 . S
C974 C973 1.362 . S
C974 C975 1.366 . S
C975 C972 1.365 . S
C975 C974 1.366 . S
C975 H989 0.930 . S
C976 C973 1.378 . S
C976 N977 1.315 . S
C976 H979 0.930 . S
N977 Co957 2.194 . S
N977 C972 1.328 . S
N977 C976 1.315 . S
H978 C972 0.929 . S
H979 C976 0.930 . S
H980 C968 0.929 . S
H981 C970 0.929 . S
O982 Co957 2.351 . S
O982 C985 1.244 . S
O983 Co957 2.155 . S
O983 C985 1.240 . S
O984 Co957 2.096 . S
O984 C965 1.247 . S
C985 O982 1.244 . S
C985 O983 1.240 . S
H986 C960 0.931 . S
H987 C969 0.931 . S
H988 C973 0.929 . S
H989 C975 0.930 . S
Co990 N994 2.148 . S
Co990 N1000 2.128 . S
Co990 N1010 2.194 . S
Co990 O1015 2.351 . S
Co990 O1016 2.155 . S
Co990 O1017 2.096 . S
C991 N994 1.301 . S
C991 N995 1.328 . S
C991 H996 0.930 . S
C992 C993 1.333 . S
C992 N994 1.317 . S
C992 H997 0.930 . S
C993 C992 1.333 . S
C993 N995 1.350 . S
C993 H1019 0.931 . S
N994 Co990 2.148 . S
N994 C991 1.301 . S
N994 C992 1.317 . S
N995 C991 1.328 . S
N995 C993 1.350 . S
H996 C991 0.930 . S
H997 C992 0.930 . S
C998 O999 1.224 . S
C998 O1017 1.247 . S
O999 C998 1.224 . S
N1000 Co990 2.128 . S
N1000 C1001 1.355 . S
N1000 C1003 1.311 . S
C1001 N1000 1.355 . S
C1001 C1002 1.363 . S
C1001 H1013 0.929 . S
C1002 C1001 1.363 . S
C1002 N1004 1.375 . S
C1002 H1020 0.931 . S
C1003 N1000 1.311 . S
C1003 N1004 1.347 . S
C1003 H1014 0.929 . S
N1004 C1002 1.375 . S
N1004 C1003 1.347 . S
C1005 C1008 1.365 . S
C1005 N1010 1.328 . S
C1005 H1011 0.929 . S
C1006 C1007 1.362 . S
C1006 C1009 1.378 . S
C1006 H1021 0.929 . S
C1007 C1006 1.362 . S
C1007 C1008 1.366 . S
C1008 C1005 1.365 . S
C1008 C1007 1.366 . S
C1008 H1022 0.930 . S
C1009 C1006 1.378 . S
C1009 N1010 1.315 . S
C1009 H1012 0.930 . S
N1010 Co990 2.194 . S
N1010 C1005 1.328 . S
N1010 C1009 1.315 . S
H1011 C1005 0.929 . S
H1012 C1009 0.930 . S
H1013 C1001 0.929 . S
H1014 C1003 0.929 . S
O1015 Co990 2.351 . S
O1015 C1018 1.244 . S
O1016 Co990 2.155 . S
O1016 C1018 1.240 . S
O1017 Co990 2.096 . S
O1017 C998 1.247 . S
C1018 O1015 1.244 . S
C1018 O1016 1.240 . S
H1019 C993 0.931 . S
H1020 C1002 0.931 . S
H1021 C1006 0.929 . S
H1022 C1008 0.930 . S
Co1023 N1027 2.148 . S
Co1023 N1033 2.128 . S
Co1023 N1043 2.194 . S
Co1023 O1048 2.351 . S
Co1023 O1049 2.155 . S
Co1023 O1050 2.096 . S
C1024 N1027 1.301 . S
C1024 N1028 1.328 . S
C1024 H1029 0.930 . S
C1025 C1026 1.333 . S
C1025 N1027 1.317 . S
C1025 H1030 0.930 . S
C1026 C1025 1.333 . S
C1026 N1028 1.350 . S
C1026 H1052 0.931 . S
N1027 Co1023 2.148 . S
N1027 C1024 1.301 . S
N1027 C1025 1.317 . S
N1028 C1024 1.328 . S
N1028 C1026 1.350 . S
H1029 C1024 0.930 . S
H1030 C1025 0.930 . S
C1031 O1032 1.224 . S
C1031 O1050 1.247 . S
O1032 C1031 1.224 . S
N1033 Co1023 2.128 . S
N1033 C1034 1.355 . S
N1033 C1036 1.311 . S
C1034 N1033 1.355 . S
C1034 C1035 1.363 . S
C1034 H1046 0.929 . S
C1035 C1034 1.363 . S
C1035 N1037 1.375 . S
C1035 H1053 0.931 . S
C1036 N1033 1.311 . S
C1036 N1037 1.347 . S
C1036 H1047 0.929 . S
N1037 C1035 1.375 . S
N1037 C1036 1.347 . S
C1038 C1041 1.365 . S
C1038 N1043 1.328 . S
C1038 H1044 0.929 . S
C1039 C1040 1.362 . S
C1039 C1042 1.378 . S
C1039 H1054 0.929 . S
C1040 C1039 1.362 . S
C1040 C1041 1.366 . S
C1041 C1038 1.365 . S
C1041 C1040 1.366 . S
C1041 H1055 0.930 . S
C1042 C1039 1.378 . S
C1042 N1043 1.315 . S
C1042 H1045 0.930 . S
N1043 Co1023 2.194 . S
N1043 C1038 1.328 . S
N1043 C1042 1.315 . S
H1044 C1038 0.929 . S
H1045 C1042 0.930 . S
H1046 C1034 0.929 . S
H1047 C1036 0.929 . S
O1048 Co1023 2.351 . S
O1048 C1051 1.244 . S
O1049 Co1023 2.155 . S
O1049 C1051 1.240 . S
O1050 Co1023 2.096 . S
O1050 C1031 1.247 . S
C1051 O1048 1.244 . S
C1051 O1049 1.240 . S
H1052 C1026 0.931 . S
H1053 C1035 0.931 . S
H1054 C1039 0.929 . S
H1055 C1041 0.930 . S
C1056 C1057 1.363 . S
C1056 C1062 1.379 . S
C1056 N1064 1.356 . S
C1057 C1056 1.363 . S
C1057 C1063 1.363 . S
C1058 C1059 1.363 . S
C1058 C1063 1.379 . S
C1058 N1065 1.356 . S
C1059 C1058 1.363 . S
C1059 C1062 1.363 . S
N1060 C1062 1.356 . S
N1060 H1072 0.984 . S
N1060 H1073 0.985 . S
N1061 C1063 1.356 . S
N1061 H1066 0.984 . S
N1061 H1067 0.985 . S
C1062 C1056 1.379 . S
C1062 C1059 1.363 . S
C1062 N1060 1.356 . S
C1063 C1057 1.363 . S
C1063 C1058 1.379 . S
C1063 N1061 1.356 . S
N1064 C1056 1.356 . S
N1064 H1070 0.984 . S
N1064 H1071 0.984 . S
N1065 C1058 1.356 . S
N1065 H1068 0.984 . S
N1065 H1069 0.985 . S
H1066 N1061 0.984 . S
H1067 N1061 0.985 . S
H1068 N1065 0.984 . S
H1069 N1065 0.985 . S
H1070 N1064 0.984 . S
H1071 N1064 0.984 . S
H1072 N1060 0.984 . S
H1073 N1060 0.985 . S
C1074 C1075 1.363 . S
C1074 C1080 1.379 . S
C1074 N1082 1.356 . S
C1075 C1074 1.363 . S
C1075 C1081 1.363 . S
C1076 C1077 1.363 . S
C1076 C1081 1.379 . S
C1076 N1083 1.356 . S
C1077 C1076 1.363 . S
C1077 C1080 1.363 . S
N1078 C1080 1.356 . S
N1078 H1090 0.984 . S
N1078 H1091 0.985 . S
N1079 C1081 1.356 1_455 S
N1079 H1084 0.984 . S
N1079 H1085 0.985 . S
C1080 C1074 1.379 . S
C1080 C1077 1.363 . S
C1080 N1078 1.356 . S
C1081 C1075 1.363 . S
C1081 C1076 1.379 . S
C1081 N1079 1.356 1_655 S
N1082 C1074 1.356 . S
N1082 H1088 0.984 . S
N1082 H1089 0.984 1_655 S
N1083 C1076 1.356 . S
N1083 H1086 0.984 . S
N1083 H1087 0.985 . S
H1084 N1079 0.984 . S
H1085 N1079 0.985 . S
H1086 N1083 0.984 . S
H1087 N1083 0.985 . S
H1088 N1082 0.984 . S
H1089 N1082 0.984 1_455 S
H1090 N1078 0.984 . S
H1091 N1078 0.985 . S
C1092 C1093 1.363 . S
C1092 C1098 1.379 . S
C1092 N1100 1.356 . S
C1093 C1092 1.363 . S
C1093 C1099 1.363 . S
C1094 C1095 1.363 . S
C1094 C1099 1.379 . S
C1094 N1101 1.356 . S
C1095 C1094 1.363 . S
C1095 C1098 1.363 . S
N1096 C1098 1.356 . S
N1096 H1108 0.984 . S
N1096 H1109 0.985 . S
N1097 C1099 1.356 . S
N1097 H1102 0.984 . S
N1097 H1103 0.985 . S
C1098 C1092 1.379 . S
C1098 C1095 1.363 . S
C1098 N1096 1.356 . S
C1099 C1093 1.363 . S
C1099 C1094 1.379 . S
C1099 N1097 1.356 . S
N1100 C1092 1.356 . S
N1100 H1106 0.984 . S
N1100 H1107 0.984 . S
N1101 C1094 1.356 . S
N1101 H1104 0.984 . S
N1101 H1105 0.985 . S
H1102 N1097 0.984 . S
H1103 N1097 0.985 . S
H1104 N1101 0.984 . S
H1105 N1101 0.985 . S
H1106 N1100 0.984 . S
H1107 N1100 0.984 . S
H1108 N1096 0.984 . S
H1109 N1096 0.985 . S
C1110 C1111 1.363 . S
C1110 C1116 1.379 . S
C1110 N1118 1.356 . S
C1111 C1110 1.363 . S
C1111 C1117 1.363 . S
C1112 C1113 1.363 . S
C1112 C1117 1.379 . S
C1112 N1119 1.356 . S
C1113 C1112 1.363 . S
C1113 C1116 1.363 . S
N1114 C1116 1.356 . S
N1114 H1126 0.984 . S
N1114 H1127 0.985 . S
N1115 C1117 1.356 . S
N1115 H1120 0.984 . S
N1115 H1121 0.985 . S
C1116 C1110 1.379 . S
C1116 C1113 1.363 . S
C1116 N1114 1.356 . S
C1117 C1111 1.363 . S
C1117 C1112 1.379 . S
C1117 N1115 1.356 . S
N1118 C1110 1.356 . S
N1118 H1124 0.984 . S
N1118 H1125 0.984 . S
N1119 C1112 1.356 . S
N1119 H1122 0.984 . S
N1119 H1123 0.985 . S
H1120 N1115 0.984 . S
H1121 N1115 0.985 . S
H1122 N1119 0.984 . S
H1123 N1119 0.985 . S
H1124 N1118 0.984 . S
H1125 N1118 0.984 . S
H1126 N1114 0.984 . S
H1127 N1114 0.985 . S
C1128 C1129 1.363 . S
C1128 C1134 1.379 . S
C1128 N1136 1.356 . S
C1129 C1128 1.363 . S
C1129 C1135 1.363 . S
C1130 C1131 1.363 . S
C1130 C1135 1.379 . S
C1130 N1137 1.356 . S
C1131 C1130 1.363 . S
C1131 C1134 1.363 . S
N1132 C1134 1.356 . S
N1132 H1144 0.984 . S
N1132 H1145 0.985 . S
N1133 C1135 1.356 . S
N1133 H1138 0.984 . S
N1133 H1139 0.985 . S
C1134 C1128 1.379 . S
C1134 C1131 1.363 . S
C1134 N1132 1.356 . S
C1135 C1129 1.363 . S
C1135 C1130 1.379 . S
C1135 N1133 1.356 . S
N1136 C1128 1.356 . S
N1136 H1142 0.984 . S
N1136 H1143 0.984 . S
N1137 C1130 1.356 . S
N1137 H1140 0.984 . S
N1137 H1141 0.985 . S
H1138 N1133 0.984 . S
H1139 N1133 0.985 . S
H1140 N1137 0.984 . S
H1141 N1137 0.985 . S
H1142 N1136 0.984 . S
H1143 N1136 0.984 . S
H1144 N1132 0.984 . S
H1145 N1132 0.985 . S
C1146 C1147 1.363 . S
C1146 C1152 1.379 . S
C1146 N1154 1.356 . S
C1147 C1146 1.363 . S
C1147 C1153 1.363 . S
C1148 C1149 1.363 . S
C1148 C1153 1.379 . S
C1148 N1155 1.356 . S
C1149 C1148 1.363 . S
C1149 C1152 1.363 . S
N1150 C1152 1.356 . S
N1150 H1162 0.984 . S
N1150 H1163 0.985 . S
N1151 C1153 1.356 . S
N1151 H1156 0.984 . S
N1151 H1157 0.985 . S
C1152 C1146 1.379 . S
C1152 C1149 1.363 . S
C1152 N1150 1.356 . S
C1153 C1147 1.363 . S
C1153 C1148 1.379 . S
C1153 N1151 1.356 . S
N1154 C1146 1.356 . S
N1154 H1160 0.984 . S
N1154 H1161 0.984 . S
N1155 C1148 1.356 . S
N1155 H1158 0.984 . S
N1155 H1159 0.985 . S
H1156 N1151 0.984 . S
H1157 N1151 0.985 . S
H1158 N1155 0.984 . S
H1159 N1155 0.985 . S
H1160 N1154 0.984 . S
H1161 N1154 0.984 . S
H1162 N1150 0.984 . S
H1163 N1150 0.985 . S
C1164 C1165 1.363 . S
C1164 C1170 1.379 . S
C1164 N1172 1.356 . S
C1165 C1164 1.363 . S
C1165 C1171 1.363 . S
C1166 C1167 1.363 . S
C1166 C1171 1.379 . S
C1166 N1173 1.356 . S
C1167 C1166 1.363 . S
C1167 C1170 1.363 . S
N1168 C1170 1.356 . S
N1168 H1180 0.984 . S
N1168 H1181 0.985 . S
N1169 C1171 1.356 . S
N1169 H1174 0.984 . S
N1169 H1175 0.985 . S
C1170 C1164 1.379 . S
C1170 C1167 1.363 . S
C1170 N1168 1.356 . S
C1171 C1165 1.363 . S
C1171 C1166 1.379 . S
C1171 N1169 1.356 . S
N1172 C1164 1.356 . S
N1172 H1178 0.984 . S
N1172 H1179 0.984 . S
N1173 C1166 1.356 . S
N1173 H1176 0.984 . S
N1173 H1177 0.985 . S
H1174 N1169 0.984 . S
H1175 N1169 0.985 . S
H1176 N1173 0.984 . S
H1177 N1173 0.985 . S
H1178 N1172 0.984 . S
H1179 N1172 0.984 . S
H1180 N1168 0.984 . S
H1181 N1168 0.985 . S
C1182 C1183 1.363 . S
C1182 C1188 1.379 . S
C1182 N1190 1.356 . S
C1183 C1182 1.363 . S
C1183 C1189 1.363 . S
C1184 C1185 1.363 . S
C1184 C1189 1.379 . S
C1184 N1191 1.356 . S
C1185 C1184 1.363 . S
C1185 C1188 1.363 . S
N1186 C1188 1.356 1_455 S
N1186 H1198 0.984 . S
N1186 H1199 0.985 . S
N1187 C1189 1.356 . S
N1187 H1192 0.984 . S
N1187 H1193 0.985 . S
C1188 C1182 1.379 . S
C1188 C1185 1.363 . S
C1188 N1186 1.356 1_655 S
C1189 C1183 1.363 . S
C1189 C1184 1.379 . S
C1189 N1187 1.356 . S
N1190 C1182 1.356 . S
N1190 H1196 0.984 . S
N1190 H1197 0.984 . S
N1191 C1184 1.356 . S
N1191 H1194 0.984 1_655 S
N1191 H1195 0.985 . S
H1192 N1187 0.984 . S
H1193 N1187 0.985 . S
H1194 N1191 0.984 1_455 S
H1195 N1191 0.985 . S
H1196 N1190 0.984 . S
H1197 N1190 0.984 . S
H1198 N1186 0.984 . S
H1199 N1186 0.985 . S
C1200 C1201 1.363 . S
C1200 C1206 1.379 . S
C1200 N1208 1.356 . S
C1201 C1200 1.363 . S
C1201 C1207 1.363 . S
C1202 C1203 1.363 . S
C1202 C1207 1.379 . S
C1202 N1209 1.356 . S
C1203 C1202 1.363 . S
C1203 C1206 1.363 . S
N1204 C1206 1.356 . S
N1204 H1216 0.984 . S
N1204 H1217 0.985 . S
N1205 C1207 1.356 . S
N1205 H1210 0.984 . S
N1205 H1211 0.985 . S
C1206 C1200 1.379 . S
C1206 C1203 1.363 . S
C1206 N1204 1.356 . S
C1207 C1201 1.363 . S
C1207 C1202 1.379 . S
C1207 N1205 1.356 . S
N1208 C1200 1.356 . S
N1208 H1214 0.984 . S
N1208 H1215 0.984 . S
N1209 C1202 1.356 . S
N1209 H1212 0.984 . S
N1209 H1213 0.985 . S
H1210 N1205 0.984 . S
H1211 N1205 0.985 . S
H1212 N1209 0.984 . S
H1213 N1209 0.985 . S
H1214 N1208 0.984 . S
H1215 N1208 0.984 . S
H1216 N1204 0.984 . S
H1217 N1204 0.985 . S
C1218 C1219 1.363 . S
C1218 C1224 1.379 . S
C1218 N1226 1.356 1_455 S
C1219 C1218 1.363 . S
C1219 C1225 1.363 . S
C1220 C1221 1.363 . S
C1220 C1225 1.379 . S
C1220 N1227 1.356 . S
C1221 C1220 1.363 . S
C1221 C1224 1.363 . S
N1222 C1224 1.356 . S
N1222 H1234 0.984 . S
N1222 H1235 0.985 . S
N1223 C1225 1.356 1_655 S
N1223 H1228 0.984 . S
N1223 H1229 0.985 1_655 S
C1224 C1218 1.379 . S
C1224 C1221 1.363 . S
C1224 N1222 1.356 . S
C1225 C1219 1.363 . S
C1225 C1220 1.379 . S
C1225 N1223 1.356 1_455 S
N1226 C1218 1.356 1_655 S
N1226 H1232 0.987 . S
N1226 H1233 0.984 . S
N1227 C1220 1.356 . S
N1227 H1230 0.984 . S
N1227 H1231 0.985 . S
H1228 N1223 0.984 . S
H1229 N1223 0.985 1_455 S
H1230 N1227 0.984 . S
H1231 N1227 0.985 . S
H1232 N1226 0.987 . S
H1233 N1226 0.984 . S
H1234 N1222 0.984 . S
H1235 N1222 0.985 . S
C1236 C1237 1.363 . S
C1236 C1242 1.379 . S
C1236 N1244 1.356 . S
C1237 C1236 1.363 . S
C1237 C1243 1.363 . S
C1238 C1239 1.363 . S
C1238 C1243 1.379 . S
C1238 N1245 1.356 . S
C1239 C1238 1.363 . S
C1239 C1242 1.363 . S
N1240 C1242 1.356 . S
N1240 H1252 0.984 . S
N1240 H1253 0.985 . S
N1241 C1243 1.356 . S
N1241 H1246 0.984 . S
N1241 H1247 0.985 . S
C1242 C1236 1.379 . S
C1242 C1239 1.363 . S
C1242 N1240 1.356 . S
C1243 C1237 1.363 . S
C1243 C1238 1.379 . S
C1243 N1241 1.356 . S
N1244 C1236 1.356 . S
N1244 H1250 0.984 . S
N1244 H1251 0.984 . S
N1245 C1238 1.356 . S
N1245 H1248 0.984 . S
N1245 H1249 0.985 . S
H1246 N1241 0.984 . S
H1247 N1241 0.985 . S
H1248 N1245 0.984 . S
H1249 N1245 0.985 . S
H1250 N1244 0.984 . S
H1251 N1244 0.984 . S
H1252 N1240 0.984 . S
H1253 N1240 0.985 . S
C1254 C1255 1.363 . S
C1254 C1260 1.379 . S
C1254 N1262 1.356 . S
C1255 C1254 1.363 . S
C1255 C1261 1.363 . S
C1256 C1257 1.363 . S
C1256 C1261 1.379 . S
C1256 N1263 1.356 . S
C1257 C1256 1.363 . S
C1257 C1260 1.363 . S
N1258 C1260 1.356 . S
N1258 H1270 0.984 . S
N1258 H1271 0.985 . S
N1259 C1261 1.356 . S
N1259 H1264 0.984 . S
N1259 H1265 0.985 . S
C1260 C1254 1.379 . S
C1260 C1257 1.363 . S
C1260 N1258 1.356 . S
C1261 C1255 1.363 . S
C1261 C1256 1.379 . S
C1261 N1259 1.356 . S
N1262 C1254 1.356 . S
N1262 H1268 0.984 . S
N1262 H1269 0.984 . S
N1263 C1256 1.356 . S
N1263 H1266 0.984 . S
N1263 H1267 0.985 . S
H1264 N1259 0.984 . S
H1265 N1259 0.985 . S
H1266 N1263 0.984 . S
H1267 N1263 0.985 . S
H1268 N1262 0.984 . S
H1269 N1262 0.984 . S
H1270 N1258 0.984 . S
H1271 N1258 0.985 . S
C1272 C1273 1.363 . S
C1272 C1278 1.379 . S
C1272 N1280 1.356 . S
C1273 C1272 1.363 . S
C1273 C1279 1.363 . S
C1274 C1275 1.363 . S
C1274 C1279 1.379 . S
C1274 N1281 1.356 . S
C1275 C1274 1.363 . S
C1275 C1278 1.363 . S
N1276 C1278 1.356 . S
N1276 H1288 0.984 . S
N1276 H1289 0.985 . S
N1277 C1279 1.356 . S
N1277 H1282 0.984 . S
N1277 H1283 0.985 . S
C1278 C1272 1.379 . S
C1278 C1275 1.363 . S
C1278 N1276 1.356 . S
C1279 C1273 1.363 . S
C1279 C1274 1.379 . S
C1279 N1277 1.356 . S
N1280 C1272 1.356 . S
N1280 H1286 0.984 . S
N1280 H1287 0.984 . S
N1281 C1274 1.356 . S
N1281 H1284 0.984 . S
N1281 H1285 0.985 . S
H1282 N1277 0.984 . S
H1283 N1277 0.985 . S
H1284 N1281 0.984 . S
H1285 N1281 0.985 . S
H1286 N1280 0.984 . S
H1287 N1280 0.984 . S
H1288 N1276 0.984 . S
H1289 N1276 0.985 . S
C1290 C1291 1.363 . S
C1290 C1296 1.379 . S
C1290 N1298 1.356 . S
C1291 C1290 1.363 . S
C1291 C1297 1.363 . S
C1292 C1293 1.363 . S
C1292 C1297 1.379 . S
C1292 N1299 1.356 . S
C1293 C1292 1.363 . S
C1293 C1296 1.363 . S
N1294 C1296 1.356 . S
N1294 H1306 0.984 . S
N1294 H1307 0.985 . S
N1295 C1297 1.356 . S
N1295 H1300 0.984 . S
N1295 H1301 0.985 . S
C1296 C1290 1.379 . S
C1296 C1293 1.363 . S
C1296 N1294 1.356 . S
C1297 C1291 1.363 . S
C1297 C1292 1.379 . S
C1297 N1295 1.356 . S
N1298 C1290 1.356 . S
N1298 H1304 0.984 . S
N1298 H1305 0.984 . S
N1299 C1292 1.356 . S
N1299 H1302 0.984 . S
N1299 H1303 0.985 . S
H1300 N1295 0.984 . S
H1301 N1295 0.985 . S
H1302 N1299 0.984 . S
H1303 N1299 0.985 . S
H1304 N1298 0.984 . S
H1305 N1298 0.984 . S
H1306 N1294 0.984 . S
H1307 N1294 0.985 . S
C1308 C1309 1.363 . S
C1308 C1314 1.379 . S
C1308 N1316 1.356 . S
C1309 C1308 1.363 . S
C1309 C1315 1.363 . S
C1310 C1311 1.363 . S
C1310 C1315 1.379 . S
C1310 N1317 1.356 . S
C1311 C1310 1.363 . S
C1311 C1314 1.363 . S
N1312 C1314 1.356 . S
N1312 H1324 0.984 . S
N1312 H1325 0.985 . S
N1313 C1315 1.356 . S
N1313 H1318 0.984 . S
N1313 H1319 0.985 . S
C1314 C1308 1.379 . S
C1314 C1311 1.363 . S
C1314 N1312 1.356 . S
C1315 C1309 1.363 . S
C1315 C1310 1.379 . S
C1315 N1313 1.356 . S
N1316 C1308 1.356 . S
N1316 H1322 0.984 . S
N1316 H1323 0.984 . S
N1317 C1310 1.356 . S
N1317 H1320 0.984 . S
N1317 H1321 0.985 . S
H1318 N1313 0.984 . S
H1319 N1313 0.985 . S
H1320 N1317 0.984 . S
H1321 N1317 0.985 . S
H1322 N1316 0.984 . S
H1323 N1316 0.984 . S
H1324 N1312 0.984 . S
H1325 N1312 0.985 . S
C1326 C1327 1.363 . S
C1326 C1332 1.379 . S
C1326 N1334 1.356 1_455 S
C1327 C1326 1.363 . S
C1327 C1333 1.363 . S
C1328 C1329 1.363 . S
C1328 C1333 1.379 . S
C1328 N1335 1.356 . S
C1329 C1328 1.363 . S
C1329 C1332 1.363 . S
N1330 C1332 1.356 . S
N1330 H1342 0.984 . S
N1330 H1343 0.985 . S
N1331 C1333 1.356 . S
N1331 H1336 0.984 1_455 S
N1331 H1337 0.985 . S
C1332 C1326 1.379 . S
C1332 C1329 1.363 . S
C1332 N1330 1.356 . S
C1333 C1327 1.363 . S
C1333 C1328 1.379 . S
C1333 N1331 1.356 . S
N1334 C1326 1.356 1_655 S
N1334 H1340 0.984 . S
N1334 H1341 0.984 . S
N1335 C1328 1.356 . S
N1335 H1338 0.984 . S
N1335 H1339 0.985 . S
H1336 N1331 0.984 1_655 S
H1337 N1331 0.985 . S
H1338 N1335 0.984 . S
H1339 N1335 0.985 . S
H1340 N1334 0.984 . S
H1341 N1334 0.984 . S
H1342 N1330 0.984 . S
H1343 N1330 0.985 . S
C1344 C1345 1.363 . S
C1344 C1350 1.379 . S
C1344 N1352 1.356 . S
C1345 C1344 1.363 . S
C1345 C1351 1.363 . S
C1346 C1347 1.363 . S
C1346 C1351 1.379 . S
C1346 N1353 1.356 . S
C1347 C1346 1.363 . S
C1347 C1350 1.363 . S
N1348 C1350 1.356 . S
N1348 H1360 0.984 . S
N1348 H1361 0.985 . S
N1349 C1351 1.356 . S
N1349 H1354 0.984 . S
N1349 H1355 0.985 . S
C1350 C1344 1.379 . S
C1350 C1347 1.363 . S
C1350 N1348 1.356 . S
C1351 C1345 1.363 . S
C1351 C1346 1.379 . S
C1351 N1349 1.356 . S
N1352 C1344 1.356 . S
N1352 H1358 0.984 . S
N1352 H1359 0.984 . S
N1353 C1346 1.356 . S
N1353 H1356 0.984 . S
N1353 H1357 0.985 . S
H1354 N1349 0.984 . S
H1355 N1349 0.985 . S
H1356 N1353 0.984 . S
H1357 N1353 0.985 . S
H1358 N1352 0.984 . S
H1359 N1352 0.984 . S
H1360 N1348 0.984 . S
H1361 N1348 0.985 . S
C1362 C1363 1.363 . S
C1362 C1368 1.379 . S
C1362 N1370 1.356 . S
C1363 C1362 1.363 . S
C1363 C1369 1.363 . S
C1364 C1365 1.363 . S
C1364 C1369 1.379 . S
C1364 N1371 1.356 . S
C1365 C1364 1.363 . S
C1365 C1368 1.363 . S
N1366 C1368 1.356 . S
N1366 H1378 0.984 . S
N1366 H1379 0.985 . S
N1367 C1369 1.356 . S
N1367 H1372 0.984 . S
N1367 H1373 0.985 . S
C1368 C1362 1.379 . S
C1368 C1365 1.363 . S
C1368 N1366 1.356 . S
C1369 C1363 1.363 . S
C1369 C1364 1.379 . S
C1369 N1367 1.356 . S
N1370 C1362 1.356 . S
N1370 H1376 0.984 . S
N1370 H1377 0.984 . S
N1371 C1364 1.356 . S
N1371 H1374 0.984 . S
N1371 H1375 0.985 . S
H1372 N1367 0.984 . S
H1373 N1367 0.985 . S
H1374 N1371 0.984 . S
H1375 N1371 0.985 . S
H1376 N1370 0.984 . S
H1377 N1370 0.984 . S
H1378 N1366 0.984 . S
H1379 N1366 0.985 . S
C1380 C1381 1.363 . S
C1380 C1386 1.379 . S
C1380 N1388 1.356 . S
C1381 C1380 1.363 . S
C1381 C1387 1.363 . S
C1382 C1383 1.363 . S
C1382 C1387 1.379 . S
C1382 N1389 1.356 . S
C1383 C1382 1.363 . S
C1383 C1386 1.363 . S
N1384 C1386 1.356 . S
N1384 H1396 0.984 . S
N1384 H1397 0.985 . S
N1385 C1387 1.356 . S
N1385 H1390 0.984 . S
N1385 H1391 0.985 . S
C1386 C1380 1.379 . S
C1386 C1383 1.363 . S
C1386 N1384 1.356 . S
C1387 C1381 1.363 . S
C1387 C1382 1.379 . S
C1387 N1385 1.356 . S
N1388 C1380 1.356 . S
N1388 H1394 0.984 . S
N1388 H1395 0.984 . S
N1389 C1382 1.356 . S
N1389 H1392 0.984 . S
N1389 H1393 0.985 . S
H1390 N1385 0.984 . S
H1391 N1385 0.985 . S
H1392 N1389 0.984 . S
H1393 N1389 0.985 . S
H1394 N1388 0.984 . S
H1395 N1388 0.984 . S
H1396 N1384 0.984 . S
H1397 N1384 0.985 . S
C1398 C1399 1.363 . S
C1398 C1404 1.379 . S
C1398 N1406 1.356 . S
C1399 C1398 1.363 . S
C1399 C1405 1.363 . S
C1400 C1401 1.363 . S
C1400 C1405 1.379 . S
C1400 N1407 1.356 . S
C1401 C1400 1.363 . S
C1401 C1404 1.363 . S
N1402 C1404 1.356 . S
N1402 H1414 0.984 . S
N1402 H1415 0.985 . S
N1403 C1405 1.356 1_655 S
N1403 H1408 0.984 . S
N1403 H1409 0.985 . S
C1404 C1398 1.379 . S
C1404 C1401 1.363 . S
C1404 N1402 1.356 . S
C1405 C1399 1.363 . S
C1405 C1400 1.379 . S
C1405 N1403 1.356 1_455 S
N1406 C1398 1.356 . S
N1406 H1412 0.984 . S
N1406 H1413 0.984 1_455 S
N1407 C1400 1.356 . S
N1407 H1410 0.984 . S
N1407 H1411 0.985 . S
H1408 N1403 0.984 . S
H1409 N1403 0.985 . S
H1410 N1407 0.984 . S
H1411 N1407 0.985 . S
H1412 N1406 0.984 . S
H1413 N1406 0.984 1_655 S
H1414 N1402 0.984 . S
H1415 N1402 0.985 . S
C1416 C1417 1.363 . S
C1416 C1422 1.379 . S
C1416 N1424 1.356 . S
C1417 C1416 1.363 . S
C1417 C1423 1.363 . S
C1418 C1419 1.363 . S
C1418 C1423 1.379 . S
C1418 N1425 1.356 . S
C1419 C1418 1.363 . S
C1419 C1422 1.363 . S
N1420 C1422 1.356 . S
N1420 H1432 0.984 . S
N1420 H1433 0.985 . S
N1421 C1423 1.356 . S
N1421 H1426 0.984 . S
N1421 H1427 0.985 . S
C1422 C1416 1.379 . S
C1422 C1419 1.363 . S
C1422 N1420 1.356 . S
C1423 C1417 1.363 . S
C1423 C1418 1.379 . S
C1423 N1421 1.356 . S
N1424 C1416 1.356 . S
N1424 H1430 0.984 . S
N1424 H1431 0.984 . S
N1425 C1418 1.356 . S
N1425 H1428 0.984 . S
N1425 H1429 0.985 . S
H1426 N1421 0.984 . S
H1427 N1421 0.985 . S
H1428 N1425 0.984 . S
H1429 N1425 0.985 . S
H1430 N1424 0.984 . S
H1431 N1424 0.984 . S
H1432 N1420 0.984 . S
H1433 N1420 0.985 . S
C1434 C1435 1.363 . S
C1434 C1440 1.379 . S
C1434 N1442 1.356 . S
C1435 C1434 1.363 . S
C1435 C1441 1.363 . S
C1436 C1437 1.363 . S
C1436 C1441 1.379 . S
C1436 N1443 1.356 1_455 S
C1437 C1436 1.363 . S
C1437 C1440 1.363 . S
N1438 C1440 1.356 . S
N1438 H1450 0.984 . S
N1438 H1451 0.985 1_455 S
N1439 C1441 1.356 . S
N1439 H1444 0.984 . S
N1439 H1445 0.985 . S
C1440 C1434 1.379 . S
C1440 C1437 1.363 . S
C1440 N1438 1.356 . S
C1441 C1435 1.363 . S
C1441 C1436 1.379 . S
C1441 N1439 1.356 . S
N1442 C1434 1.356 . S
N1442 H1448 0.984 . S
N1442 H1449 0.984 . S
N1443 C1436 1.356 1_655 S
N1443 H1446 0.984 . S
N1443 H1447 0.985 . S
H1444 N1439 0.984 . S
H1445 N1439 0.985 . S
H1446 N1443 0.984 . S
H1447 N1443 0.985 . S
H1448 N1442 0.984 . S
H1449 N1442 0.984 . S
H1450 N1438 0.984 . S
H1451 N1438 0.985 1_655 S
C1452 C1453 1.363 . S
C1452 C1458 1.379 . S
C1452 N1460 1.356 . S
C1453 C1452 1.363 . S
C1453 C1459 1.363 . S
C1454 C1455 1.363 . S
C1454 C1459 1.379 . S
C1454 N1461 1.356 . S
C1455 C1454 1.363 . S
C1455 C1458 1.363 . S
N1456 C1458 1.356 . S
N1456 H1468 0.984 . S
N1456 H1469 0.985 . S
N1457 C1459 1.356 . S
N1457 H1462 0.984 . S
N1457 H1463 0.985 . S
C1458 C1452 1.379 . S
C1458 C1455 1.363 . S
C1458 N1456 1.356 . S
C1459 C1453 1.363 . S
C1459 C1454 1.379 . S
C1459 N1457 1.356 . S
N1460 C1452 1.356 . S
N1460 H1466 0.984 . S
N1460 H1467 0.984 . S
N1461 C1454 1.356 . S
N1461 H1464 0.984 . S
N1461 H1465 0.985 . S
H1462 N1457 0.984 . S
H1463 N1457 0.985 . S
H1464 N1461 0.984 . S
H1465 N1461 0.985 . S
H1466 N1460 0.984 . S
H1467 N1460 0.984 . S
H1468 N1456 0.984 . S
H1469 N1456 0.985 . S
C1470 C1471 1.363 . S
C1470 C1476 1.379 . S
C1470 N1478 1.356 . S
C1471 C1470 1.363 . S
C1471 C1477 1.363 . S
C1472 C1473 1.363 . S
C1472 C1477 1.379 . S
C1472 N1479 1.356 . S
C1473 C1472 1.363 . S
C1473 C1476 1.363 . S
N1474 C1476 1.356 . S
N1474 H1486 0.984 . S
N1474 H1487 0.985 . S
N1475 C1477 1.356 . S
N1475 H1480 0.984 . S
N1475 H1481 0.985 . S
C1476 C1470 1.379 . S
C1476 C1473 1.363 . S
C1476 N1474 1.356 . S
C1477 C1471 1.363 . S
C1477 C1472 1.379 . S
C1477 N1475 1.356 . S
N1478 C1470 1.356 . S
N1478 H1484 0.984 . S
N1478 H1485 0.984 . S
N1479 C1472 1.356 . S
N1479 H1482 0.984 . S
N1479 H1483 0.985 . S
H1480 N1475 0.984 . S
H1481 N1475 0.985 . S
H1482 N1479 0.984 . S
H1483 N1479 0.985 . S
H1484 N1478 0.984 . S
H1485 N1478 0.984 . S
H1486 N1474 0.984 . S
H1487 N1474 0.985 . S
C1488 C1489 1.363 . S
C1488 C1494 1.379 . S
C1488 N1496 1.356 . S
C1489 C1488 1.363 . S
C1489 C1495 1.363 . S
C1490 C1491 1.363 . S
C1490 C1495 1.379 . S
C1490 N1497 1.356 . S
C1491 C1490 1.363 . S
C1491 C1494 1.363 . S
N1492 C1494 1.356 . S
N1492 H1504 0.984 . S
N1492 H1505 0.985 . S
N1493 C1495 1.356 . S
N1493 H1498 0.984 . S
N1493 H1499 0.985 . S
C1494 C1488 1.379 . S
C1494 C1491 1.363 . S
C1494 N1492 1.356 . S
C1495 C1489 1.363 . S
C1495 C1490 1.379 . S
C1495 N1493 1.356 . S
N1496 C1488 1.356 . S
N1496 H1502 0.984 . S
N1496 H1503 0.984 . S
N1497 C1490 1.356 . S
N1497 H1500 0.984 . S
N1497 H1501 0.985 . S
H1498 N1493 0.984 . S
H1499 N1493 0.985 . S
H1500 N1497 0.984 . S
H1501 N1497 0.985 . S
H1502 N1496 0.984 . S
H1503 N1496 0.984 . S
H1504 N1492 0.984 . S
H1505 N1492 0.985 . S
C1506 C1507 1.363 . S
C1506 C1512 1.379 . S
C1506 N1514 1.356 . S
C1507 C1506 1.363 . S
C1507 C1513 1.363 . S
C1508 C1509 1.363 . S
C1508 C1513 1.379 . S
C1508 N1515 1.356 . S
C1509 C1508 1.363 . S
C1509 C1512 1.363 . S
N1510 C1512 1.356 . S
N1510 H1522 0.984 . S
N1510 H1523 0.985 . S
N1511 C1513 1.356 . S
N1511 H1516 0.984 . S
N1511 H1517 0.985 . S
C1512 C1506 1.379 . S
C1512 C1509 1.363 . S
C1512 N1510 1.356 . S
C1513 C1507 1.363 . S
C1513 C1508 1.379 . S
C1513 N1511 1.356 . S
N1514 C1506 1.356 . S
N1514 H1520 0.984 . S
N1514 H1521 0.984 . S
N1515 C1508 1.356 . S
N1515 H1518 0.984 . S
N1515 H1519 0.985 . S
H1516 N1511 0.984 . S
H1517 N1511 0.985 . S
H1518 N1515 0.984 . S
H1519 N1515 0.985 . S
H1520 N1514 0.984 . S
H1521 N1514 0.984 . S
H1522 N1510 0.984 . S
H1523 N1510 0.985 . S
C1524 C1525 1.363 . S
C1524 C1530 1.379 . S
C1524 N1532 1.356 . S
C1525 C1524 1.363 . S
C1525 C1531 1.363 . S
C1526 C1527 1.363 . S
C1526 C1531 1.379 . S
C1526 N1533 1.356 . S
C1527 C1526 1.363 . S
C1527 C1530 1.363 . S
N1528 C1530 1.356 . S
N1528 H1540 0.984 . S
N1528 H1541 0.985 . S
N1529 C1531 1.356 . S
N1529 H1534 0.984 . S
N1529 H1535 0.985 . S
C1530 C1524 1.379 . S
C1530 C1527 1.363 . S
C1530 N1528 1.356 . S
C1531 C1525 1.363 . S
C1531 C1526 1.379 . S
C1531 N1529 1.356 . S
N1532 C1524 1.356 . S
N1532 H1538 0.984 . S
N1532 H1539 0.984 . S
N1533 C1526 1.356 . S
N1533 H1536 0.984 . S
N1533 H1537 0.985 . S
H1534 N1529 0.984 . S
H1535 N1529 0.985 . S
H1536 N1533 0.984 . S
H1537 N1533 0.985 . S
H1538 N1532 0.984 . S
H1539 N1532 0.984 . S
H1540 N1528 0.984 . S
H1541 N1528 0.985 . S
C1542 C1543 1.363 . S
C1542 C1548 1.379 . S
C1542 N1550 1.356 . S
C1543 C1542 1.363 . S
C1543 C1549 1.363 . S
C1544 C1545 1.363 . S
C1544 C1549 1.379 . S
C1544 N1551 1.356 . S
C1545 C1544 1.363 . S
C1545 C1548 1.363 . S
N1546 C1548 1.356 1_455 S
N1546 H1558 0.984 . S
N1546 H1559 0.985 . S
N1547 C1549 1.356 . S
N1547 H1552 0.984 . S
N1547 H1553 0.985 . S
C1548 C1542 1.379 . S
C1548 C1545 1.363 . S
C1548 N1546 1.356 1_655 S
C1549 C1543 1.363 . S
C1549 C1544 1.379 . S
C1549 N1547 1.356 . S
N1550 C1542 1.356 . S
N1550 H1556 0.984 . S
N1550 H1557 0.984 . S
N1551 C1544 1.356 . S
N1551 H1554 0.984 1_655 S
N1551 H1555 0.985 . S
H1552 N1547 0.984 . S
H1553 N1547 0.985 . S
H1554 N1551 0.984 1_455 S
H1555 N1551 0.985 . S
H1556 N1550 0.984 . S
H1557 N1550 0.984 . S
H1558 N1546 0.984 . S
H1559 N1546 0.985 . S
C1560 C1561 1.363 . S
C1560 C1566 1.379 . S
C1560 N1568 1.356 . S
C1561 C1560 1.363 . S
C1561 C1567 1.363 . S
C1562 C1563 1.363 . S
C1562 C1567 1.379 . S
C1562 N1569 1.356 . S
C1563 C1562 1.363 . S
C1563 C1566 1.363 . S
N1564 C1566 1.356 . S
N1564 H1576 0.984 . S
N1564 H1577 0.985 . S
N1565 C1567 1.356 . S
N1565 H1570 0.984 . S
N1565 H1571 0.985 . S
C1566 C1560 1.379 . S
C1566 C1563 1.363 . S
C1566 N1564 1.356 . S
C1567 C1561 1.363 . S
C1567 C1562 1.379 . S
C1567 N1565 1.356 . S
N1568 C1560 1.356 . S
N1568 H1574 0.984 . S
N1568 H1575 0.984 . S
N1569 C1562 1.356 . S
N1569 H1572 0.984 . S
N1569 H1573 0.985 . S
H1570 N1565 0.984 . S
H1571 N1565 0.985 . S
H1572 N1569 0.984 . S
H1573 N1569 0.985 . S
H1574 N1568 0.984 . S
H1575 N1568 0.984 . S
H1576 N1564 0.984 . S
H1577 N1564 0.985 . S
C1578 C1579 1.363 . S
C1578 C1584 1.379 . S
C1578 N1586 1.356 . S
C1579 C1578 1.363 . S
C1579 C1585 1.363 . S
C1580 C1581 1.363 . S
C1580 C1585 1.379 . S
C1580 N1587 1.356 . S
C1581 C1580 1.363 . S
C1581 C1584 1.363 . S
N1582 C1584 1.356 1_455 S
N1582 H1594 0.984 . S
N1582 H1595 0.985 . S
N1583 C1585 1.356 . S
N1583 H1588 0.984 . S
N1583 H1589 0.985 . S
C1584 C1578 1.379 . S
C1584 C1581 1.363 . S
C1584 N1582 1.356 1_655 S
C1585 C1579 1.363 . S
C1585 C1580 1.379 . S
C1585 N1583 1.356 . S
N1586 C1578 1.356 . S
N1586 H1592 0.984 . S
N1586 H1593 0.984 . S
N1587 C1580 1.356 . S
N1587 H1590 0.984 1_655 S
N1587 H1591 0.985 . S
H1588 N1583 0.984 . S
H1589 N1583 0.985 . S
H1590 N1587 0.984 1_455 S
H1591 N1587 0.985 . S
H1592 N1586 0.984 . S
H1593 N1586 0.984 . S
H1594 N1582 0.984 . S
H1595 N1582 0.985 . S
C1596 C1597 1.363 . S
C1596 C1602 1.379 . S
C1596 N1604 1.356 . S
C1597 C1596 1.363 . S
C1597 C1603 1.363 . S
C1598 C1599 1.363 . S
C1598 C1603 1.379 . S
C1598 N1605 1.356 . S
C1599 C1598 1.363 . S
C1599 C1602 1.363 . S
N1600 C1602 1.356 . S
N1600 H1612 0.984 . S
N1600 H1613 0.985 . S
N1601 C1603 1.356 . S
N1601 H1606 0.984 . S
N1601 H1607 0.985 . S
C1602 C1596 1.379 . S
C1602 C1599 1.363 . S
C1602 N1600 1.356 . S
C1603 C1597 1.363 . S
C1603 C1598 1.379 . S
C1603 N1601 1.356 . S
N1604 C1596 1.356 . S
N1604 H1610 0.984 . S
N1604 H1611 0.984 . S
N1605 C1598 1.356 . S
N1605 H1608 0.984 . S
N1605 H1609 0.985 . S
H1606 N1601 0.984 . S
H1607 N1601 0.985 . S
H1608 N1605 0.984 . S
H1609 N1605 0.985 . S
H1610 N1604 0.984 . S
H1611 N1604 0.984 . S
H1612 N1600 0.984 . S
H1613 N1600 0.985 . S
C1614 C1615 1.363 . S
C1614 C1620 1.379 . S
C1614 N1622 1.356 . S
C1615 C1614 1.363 . S
C1615 C1621 1.363 . S
C1616 C1617 1.363 . S
C1616 C1621 1.379 . S
C1616 N1623 1.356 . S
C1617 C1616 1.363 . S
C1617 C1620 1.363 . S
N1618 C1620 1.356 . S
N1618 H1630 0.984 . S
N1618 H1631 0.985 . S
N1619 C1621 1.356 . S
N1619 H1624 0.984 . S
N1619 H1625 0.985 . S
C1620 C1614 1.379 . S
C1620 C1617 1.363 . S
C1620 N1618 1.356 . S
C1621 C1615 1.363 . S
C1621 C1616 1.379 . S
C1621 N1619 1.356 . S
N1622 C1614 1.356 . S
N1622 H1628 0.984 . S
N1622 H1629 0.984 . S
N1623 C1616 1.356 . S
N1623 H1626 0.984 . S
N1623 H1627 0.985 . S
H1624 N1619 0.984 . S
H1625 N1619 0.985 . S
H1626 N1623 0.984 . S
H1627 N1623 0.985 . S
H1628 N1622 0.984 . S
H1629 N1622 0.984 . S
H1630 N1618 0.984 . S
H1631 N1618 0.985 . S
C1632 C1633 1.363 1_565 S
C1632 C1638 1.379 . S
C1632 N1640 1.356 . S
C1633 C1632 1.363 1_545 S
C1633 C1639 1.363 . S
C1634 C1635 1.363 1_545 S
C1634 C1639 1.379 . S
C1634 N1641 1.356 . S
C1635 C1634 1.363 1_565 S
C1635 C1638 1.363 . S
N1636 C1638 1.356 . S
N1636 H1648 0.984 . S
N1636 H1649 0.985 . S
N1637 C1639 1.356 . S
N1637 H1642 0.984 . S
N1637 H1643 0.985 . S
C1638 C1632 1.379 . S
C1638 C1635 1.363 . S
C1638 N1636 1.356 . S
C1639 C1633 1.363 . S
C1639 C1634 1.379 . S
C1639 N1637 1.356 . S
N1640 C1632 1.356 . S
N1640 H1646 0.984 . S
N1640 H1647 0.984 . S
N1641 C1634 1.356 . S
N1641 H1644 0.984 . S
N1641 H1645 0.985 . S
H1642 N1637 0.984 . S
H1643 N1637 0.985 . S
H1644 N1641 0.984 . S
H1645 N1641 0.985 . S
H1646 N1640 0.984 . S
H1647 N1640 0.984 . S
H1648 N1636 0.984 . S
H1649 N1636 0.985 . S
C1650 C1651 1.363 . S
C1650 C1656 1.379 . S
C1650 N1658 1.356 . S
C1651 C1650 1.363 . S
C1651 C1657 1.363 . S
C1652 C1653 1.363 . S
C1652 C1657 1.379 . S
C1652 N1659 1.356 . S
C1653 C1652 1.363 . S
C1653 C1656 1.363 . S
N1654 C1656 1.356 . S
N1654 H1666 0.984 . S
N1654 H1667 0.985 . S
N1655 C1657 1.356 . S
N1655 H1660 0.984 . S
N1655 H1661 0.985 1_565 S
C1656 C1650 1.379 . S
C1656 C1653 1.363 . S
C1656 N1654 1.356 . S
C1657 C1651 1.363 . S
C1657 C1652 1.379 . S
C1657 N1655 1.356 . S
N1658 C1650 1.356 . S
N1658 H1664 0.984 . S
N1658 H1665 0.984 . S
N1659 C1652 1.356 . S
N1659 H1662 0.984 . S
N1659 H1663 0.985 1_565 S
H1660 N1655 0.984 . S
H1661 N1655 0.985 1_545 S
H1662 N1659 0.984 . S
H1663 N1659 0.985 1_545 S
H1664 N1658 0.984 . S
H1665 N1658 0.984 . S
H1666 N1654 0.984 . S
H1667 N1654 0.985 . S
C1668 C1669 1.363 1_565 S
C1668 C1674 1.379 . S
C1668 N1676 1.356 . S
C1669 C1668 1.363 1_545 S
C1669 C1675 1.363 . S
C1670 C1671 1.363 1_545 S
C1670 C1675 1.379 . S
C1670 N1677 1.356 . S
C1671 C1670 1.363 1_565 S
C1671 C1674 1.363 . S
N1672 C1674 1.356 . S
N1672 H1684 0.984 . S
N1672 H1685 0.985 . S
N1673 C1675 1.356 . S
N1673 H1678 0.984 . S
N1673 H1679 0.985 . S
C1674 C1668 1.379 . S
C1674 C1671 1.363 . S
C1674 N1672 1.356 . S
C1675 C1669 1.363 . S
C1675 C1670 1.379 . S
C1675 N1673 1.356 . S
N1676 C1668 1.356 . S
N1676 H1682 0.984 . S
N1676 H1683 0.984 . S
N1677 C1670 1.356 . S
N1677 H1680 0.984 . S
N1677 H1681 0.985 . S
H1678 N1673 0.984 . S
H1679 N1673 0.985 . S
H1680 N1677 0.984 . S
H1681 N1677 0.985 . S
H1682 N1676 0.984 . S
H1683 N1676 0.984 . S
H1684 N1672 0.984 . S
H1685 N1672 0.985 . S
C1686 C1687 1.363 . S
C1686 C1692 1.379 1_554 S
C1686 N1694 1.356 . S
C1687 C1686 1.363 . S
C1687 C1693 1.363 . S
C1688 C1689 1.363 . S
C1688 C1693 1.379 1_556 S
C1688 N1695 1.356 . S
C1689 C1688 1.363 . S
C1689 C1692 1.363 . S
N1690 C1692 1.356 . S
N1690 H1702 0.984 . S
N1690 H1703 0.985 . S
N1691 C1693 1.356 . S
N1691 H1696 0.984 . S
N1691 H1697 0.985 1_545 S
C1692 C1686 1.379 1_556 S
C1692 C1689 1.363 . S
C1692 N1690 1.356 . S
C1693 C1687 1.363 . S
C1693 C1688 1.379 1_554 S
C1693 N1691 1.356 . S
N1694 C1686 1.356 . S
N1694 H1700 0.984 . S
N1694 H1701 0.984 . S
N1695 C1688 1.356 . S
N1695 H1698 0.984 . S
N1695 H1699 0.985 1_545 S
H1696 N1691 0.984 . S
H1697 N1691 0.985 1_565 S
H1698 N1695 0.984 . S
H1699 N1695 0.985 1_565 S
H1700 N1694 0.984 . S
H1701 N1694 0.984 . S
H1702 N1690 0.984 . S
H1703 N1690 0.985 . S
C1704 C1705 1.363 . S
C1704 C1710 1.379 . S
C1704 N1712 1.356 . S
C1705 C1704 1.363 . S
C1705 C1711 1.363 1_565 S
C1706 C1707 1.363 . S
C1706 C1711 1.379 . S
C1706 N1713 1.356 . S
C1707 C1706 1.363 . S
C1707 C1710 1.363 1_545 S
N1708 C1710 1.356 . S
N1708 H1720 0.984 . S
N1708 H1721 0.985 . S
N1709 C1711 1.356 . S
N1709 H1714 0.984 . S
N1709 H1715 0.985 . S
C1710 C1704 1.379 . S
C1710 C1707 1.363 1_565 S
C1710 N1708 1.356 . S
C1711 C1705 1.363 1_545 S
C1711 C1706 1.379 . S
C1711 N1709 1.356 . S
N1712 C1704 1.356 . S
N1712 H1718 0.984 . S
N1712 H1719 0.984 . S
N1713 C1706 1.356 . S
N1713 H1716 0.984 . S
N1713 H1717 0.985 . S
H1714 N1709 0.984 . S
H1715 N1709 0.985 . S
H1716 N1713 0.984 . S
H1717 N1713 0.985 . S
H1718 N1712 0.984 . S
H1719 N1712 0.984 . S
H1720 N1708 0.984 . S
H1721 N1708 0.985 . S
C1722 C1723 1.363 . S
C1722 C1728 1.379 . S
C1722 N1730 1.356 . S
C1723 C1722 1.363 . S
C1723 C1729 1.363 . S
C1724 C1725 1.363 . S
C1724 C1729 1.379 . S
C1724 N1731 1.356 . S
C1725 C1724 1.363 . S
C1725 C1728 1.363 . S
N1726 C1728 1.356 . S
N1726 H1738 0.984 . S
N1726 H1739 0.985 . S
N1727 C1729 1.356 . S
N1727 H1732 0.984 . S
N1727 H1733 0.985 1_545 S
C1728 C1722 1.379 . S
C1728 C1725 1.363 . S
C1728 N1726 1.356 . S
C1729 C1723 1.363 . S
C1729 C1724 1.379 . S
C1729 N1727 1.356 . S
N1730 C1722 1.356 . S
N1730 H1736 0.984 . S
N1730 H1737 0.984 . S
N1731 C1724 1.356 . S
N1731 H1734 0.984 . S
N1731 H1735 0.985 1_545 S
H1732 N1727 0.984 . S
H1733 N1727 0.985 1_565 S
H1734 N1731 0.984 . S
H1735 N1731 0.985 1_565 S
H1736 N1730 0.984 . S
H1737 N1730 0.984 . S
H1738 N1726 0.984 . S
H1739 N1726 0.985 . S
C1740 C1741 1.363 . S
C1740 C1746 1.379 . S
C1740 N1748 1.356 . S
C1741 C1740 1.363 . S
C1741 C1747 1.363 1_545 S
C1742 C1743 1.363 . S
C1742 C1747 1.379 . S
C1742 N1749 1.356 . S
C1743 C1742 1.363 . S
C1743 C1746 1.363 1_565 S
N1744 C1746 1.356 . S
N1744 H1756 0.984 . S
N1744 H1757 0.985 . S
N1745 C1747 1.356 . S
N1745 H1750 0.984 . S
N1745 H1751 0.985 . S
C1746 C1740 1.379 . S
C1746 C1743 1.363 1_545 S
C1746 N1744 1.356 . S
C1747 C1741 1.363 1_565 S
C1747 C1742 1.379 . S
C1747 N1745 1.356 . S
N1748 C1740 1.356 . S
N1748 H1754 0.984 . S
N1748 H1755 0.984 . S
N1749 C1742 1.356 . S
N1749 H1752 0.984 . S
N1749 H1753 0.985 . S
H1750 N1745 0.984 . S
H1751 N1745 0.985 . S
H1752 N1749 0.984 . S
H1753 N1749 0.985 . S
H1754 N1748 0.984 . S
H1755 N1748 0.984 . S
H1756 N1744 0.984 . S
H1757 N1744 0.985 . S
C1758 C1759 1.363 . S
C1758 C1764 1.379 1_556 S
C1758 N1766 1.356 . S
C1759 C1758 1.363 . S
C1759 C1765 1.363 . S
C1760 C1761 1.363 . S
C1760 C1765 1.379 1_554 S
C1760 N1767 1.356 . S
C1761 C1760 1.363 . S
C1761 C1764 1.363 . S
N1762 C1764 1.356 . S
N1762 H1774 0.984 1_565 S
N1762 H1775 0.985 . S
N1763 C1765 1.356 . S
N1763 H1768 0.984 . S
N1763 H1769 0.985 . S
C1764 C1758 1.379 1_554 S
C1764 C1761 1.363 . S
C1764 N1762 1.356 . S
C1765 C1759 1.363 . S
C1765 C1760 1.379 1_556 S
C1765 N1763 1.356 . S
N1766 C1758 1.356 . S
N1766 H1772 0.984 1_565 S
N1766 H1773 0.984 . S
N1767 C1760 1.356 . S
N1767 H1770 0.984 . S
N1767 H1771 0.985 . S
H1768 N1763 0.984 . S
H1769 N1763 0.985 . S
H1770 N1767 0.984 . S
H1771 N1767 0.985 . S
H1772 N1766 0.984 1_545 S
H1773 N1766 0.984 . S
H1774 N1762 0.984 1_545 S
H1775 N1762 0.985 . S
C1776 C1777 1.363 . S
C1776 C1782 1.379 . S
C1776 N1784 1.356 . S
C1777 C1776 1.363 . S
C1777 C1783 1.363 . S
C1778 C1779 1.363 . S
C1778 C1783 1.379 . S
C1778 N1785 1.356 . S
C1779 C1778 1.363 . S
C1779 C1782 1.363 . S
N1780 C1782 1.356 . S
N1780 H1792 0.984 . S
N1780 H1793 0.985 . S
N1781 C1783 1.356 . S
N1781 H1786 0.984 . S
N1781 H1787 0.985 . S
C1782 C1776 1.379 . S
C1782 C1779 1.363 . S
C1782 N1780 1.356 . S
C1783 C1777 1.363 . S
C1783 C1778 1.379 . S
C1783 N1781 1.356 . S
N1784 C1776 1.356 . S
N1784 H1790 0.984 . S
N1784 H1791 0.984 . S
N1785 C1778 1.356 . S
N1785 H1788 0.984 . S
N1785 H1789 0.985 . S
H1786 N1781 0.984 . S
H1787 N1781 0.985 . S
H1788 N1785 0.984 . S
H1789 N1785 0.985 . S
H1790 N1784 0.984 . S
H1791 N1784 0.984 . S
H1792 N1780 0.984 . S
H1793 N1780 0.985 . S
C1794 C1795 1.363 . S
C1794 C1800 1.379 1_556 S
C1794 N1802 1.356 . S
C1795 C1794 1.363 . S
C1795 C1801 1.363 . S
C1796 C1797 1.363 . S
C1796 C1801 1.379 1_554 S
C1796 N1803 1.356 . S
C1797 C1796 1.363 . S
C1797 C1800 1.363 . S
N1798 C1800 1.356 . S
N1798 H1810 0.984 . S
N1798 H1811 0.985 . S
N1799 C1801 1.356 . S
N1799 H1804 0.984 . S
N1799 H1805 0.985 . S
C1800 C1794 1.379 1_554 S
C1800 C1797 1.363 . S
C1800 N1798 1.356 . S
C1801 C1795 1.363 . S
C1801 C1796 1.379 1_556 S
C1801 N1799 1.356 . S
N1802 C1794 1.356 . S
N1802 H1808 0.984 . S
N1802 H1809 0.984 . S
N1803 C1796 1.356 . S
N1803 H1806 0.984 . S
N1803 H1807 0.985 . S
H1804 N1799 0.984 . S
H1805 N1799 0.985 . S
H1806 N1803 0.984 . S
H1807 N1803 0.985 . S
H1808 N1802 0.984 . S
H1809 N1802 0.984 . S
H1810 N1798 0.984 . S
H1811 N1798 0.985 . S
C1812 C1813 1.363 . S
C1812 C1818 1.379 . S
C1812 N1820 1.356 . S
C1813 C1812 1.363 . S
C1813 C1819 1.363 . S
C1814 C1815 1.363 . S
C1814 C1819 1.379 . S
C1814 N1821 1.356 . S
C1815 C1814 1.363 . S
C1815 C1818 1.363 . S
N1816 C1818 1.356 . S
N1816 H1828 0.984 . S
N1816 H1829 0.985 . S
N1817 C1819 1.356 . S
N1817 H1822 0.984 . S
N1817 H1823 0.985 . S
C1818 C1812 1.379 . S
C1818 C1815 1.363 . S
C1818 N1816 1.356 . S
C1819 C1813 1.363 . S
C1819 C1814 1.379 . S
C1819 N1817 1.356 . S
N1820 C1812 1.356 . S
N1820 H1826 0.984 . S
N1820 H1827 0.984 . S
N1821 C1814 1.356 . S
N1821 H1824 0.984 . S
N1821 H1825 0.985 . S
H1822 N1817 0.984 . S
H1823 N1817 0.985 . S
H1824 N1821 0.984 . S
H1825 N1821 0.985 . S
H1826 N1820 0.984 . S
H1827 N1820 0.984 . S
H1828 N1816 0.984 . S
H1829 N1816 0.985 . S
C1830 C1831 1.363 . S
C1830 C1836 1.379 . S
C1830 N1838 1.356 . S
C1831 C1830 1.363 . S
C1831 C1837 1.363 . S
C1832 C1833 1.363 . S
C1832 C1837 1.379 . S
C1832 N1839 1.356 . S
C1833 C1832 1.363 . S
C1833 C1836 1.363 . S
N1834 C1836 1.356 . S
N1834 H1846 0.984 . S
N1834 H1847 0.985 . S
N1835 C1837 1.356 . S
N1835 H1840 0.984 . S
N1835 H1841 0.985 . S
C1836 C1830 1.379 . S
C1836 C1833 1.363 . S
C1836 N1834 1.356 . S
C1837 C1831 1.363 . S
C1837 C1832 1.379 . S
C1837 N1835 1.356 . S
N1838 C1830 1.356 . S
N1838 H1844 0.984 . S
N1838 H1845 0.984 . S
N1839 C1832 1.356 . S
N1839 H1842 0.984 . S
N1839 H1843 0.985 . S
H1840 N1835 0.984 . S
H1841 N1835 0.985 . S
H1842 N1839 0.984 . S
H1843 N1839 0.985 . S
H1844 N1838 0.984 . S
H1845 N1838 0.984 . S
H1846 N1834 0.984 . S
H1847 N1834 0.985 . S
C1848 C1849 1.363 . S
C1848 C1854 1.379 . S
C1848 N1856 1.356 . S
C1849 C1848 1.363 . S
C1849 C1855 1.363 . S
C1850 C1851 1.363 . S
C1850 C1855 1.379 . S
C1850 N1857 1.356 . S
C1851 C1850 1.363 . S
C1851 C1854 1.363 . S
N1852 C1854 1.356 . S
N1852 H1864 0.984 . S
N1852 H1865 0.985 . S
N1853 C1855 1.356 . S
N1853 H1858 0.984 . S
N1853 H1859 0.985 . S
C1854 C1848 1.379 . S
C1854 C1851 1.363 . S
C1854 N1852 1.356 . S
C1855 C1849 1.363 . S
C1855 C1850 1.379 . S
C1855 N1853 1.356 . S
N1856 C1848 1.356 . S
N1856 H1862 0.984 . S
N1856 H1863 0.984 . S
N1857 C1850 1.356 . S
N1857 H1860 0.984 . S
N1857 H1861 0.985 . S
H1858 N1853 0.984 . S
H1859 N1853 0.985 . S
H1860 N1857 0.984 . S
H1861 N1857 0.985 . S
H1862 N1856 0.984 . S
H1863 N1856 0.984 . S
H1864 N1852 0.984 . S
H1865 N1852 0.985 . S
C1866 C1867 1.363 . S
C1866 C1872 1.379 1_556 S
C1866 N1874 1.356 . S
C1867 C1866 1.363 . S
C1867 C1873 1.363 . S
C1868 C1869 1.363 . S
C1868 C1873 1.379 1_554 S
C1868 N1875 1.356 . S
C1869 C1868 1.363 . S
C1869 C1872 1.363 . S
N1870 C1872 1.356 . S
N1870 H1882 0.984 . S
N1870 H1883 0.985 . S
N1871 C1873 1.356 . S
N1871 H1876 0.984 . S
N1871 H1877 0.985 . S
C1872 C1866 1.379 1_554 S
C1872 C1869 1.363 . S
C1872 N1870 1.356 . S
C1873 C1867 1.363 . S
C1873 C1868 1.379 1_556 S
C1873 N1871 1.356 . S
N1874 C1866 1.356 . S
N1874 H1880 0.984 . S
N1874 H1881 0.984 . S
N1875 C1868 1.356 . S
N1875 H1878 0.984 . S
N1875 H1879 0.985 . S
H1876 N1871 0.984 . S
H1877 N1871 0.985 . S
H1878 N1875 0.984 . S
H1879 N1875 0.985 . S
H1880 N1874 0.984 . S
H1881 N1874 0.984 . S
H1882 N1870 0.984 . S
H1883 N1870 0.985 . S
C1884 C1885 1.363 . S
C1884 C1890 1.379 . S
C1884 N1892 1.356 . S
C1885 C1884 1.363 . S
C1885 C1891 1.363 . S
C1886 C1887 1.363 . S
C1886 C1891 1.379 . S
C1886 N1893 1.356 . S
C1887 C1886 1.363 . S
C1887 C1890 1.363 . S
N1888 C1890 1.356 . S
N1888 H1900 0.984 . S
N1888 H1901 0.985 . S
N1889 C1891 1.356 . S
N1889 H1894 0.984 . S
N1889 H1895 0.985 . S
C1890 C1884 1.379 . S
C1890 C1887 1.363 . S
C1890 N1888 1.356 . S
C1891 C1885 1.363 . S
C1891 C1886 1.379 . S
C1891 N1889 1.356 . S
N1892 C1884 1.356 . S
N1892 H1898 0.984 . S
N1892 H1899 0.984 . S
N1893 C1886 1.356 . S
N1893 H1896 0.984 . S
N1893 H1897 0.985 . S
H1894 N1889 0.984 . S
H1895 N1889 0.985 . S
H1896 N1893 0.984 . S
H1897 N1893 0.985 . S
H1898 N1892 0.984 . S
H1899 N1892 0.984 . S
H1900 N1888 0.984 . S
H1901 N1888 0.985 . S
C1902 C1903 1.363 . S
C1902 C1908 1.379 . S
C1902 N1910 1.356 . S
C1903 C1902 1.363 . S
C1903 C1909 1.363 . S
C1904 C1905 1.363 . S
C1904 C1909 1.379 . S
C1904 N1911 1.356 . S
C1905 C1904 1.363 . S
C1905 C1908 1.363 . S
N1906 C1908 1.356 . S
N1906 H1918 0.984 . S
N1906 H1919 0.985 . S
N1907 C1909 1.356 . S
N1907 H1912 0.984 . S
N1907 H1913 0.985 . S
C1908 C1902 1.379 . S
C1908 C1905 1.363 . S
C1908 N1906 1.356 . S
C1909 C1903 1.363 . S
C1909 C1904 1.379 . S
C1909 N1907 1.356 . S
N1910 C1902 1.356 . S
N1910 H1916 0.984 . S
N1910 H1917 0.984 . S
N1911 C1904 1.356 . S
N1911 H1914 0.984 . S
N1911 H1915 0.985 . S
H1912 N1907 0.984 . S
H1913 N1907 0.985 . S
H1914 N1911 0.984 . S
H1915 N1911 0.985 . S
H1916 N1910 0.984 . S
H1917 N1910 0.984 . S
H1918 N1906 0.984 . S
H1919 N1906 0.985 . S
C1920 C1921 1.363 . S
C1920 C1926 1.379 . S
C1920 N1928 1.356 . S
C1921 C1920 1.363 . S
C1921 C1927 1.363 . S
C1922 C1923 1.363 . S
C1922 C1927 1.379 . S
C1922 N1929 1.356 . S
C1923 C1922 1.363 . S
C1923 C1926 1.363 . S
N1924 C1926 1.356 . S
N1924 H1936 0.984 . S
N1924 H1937 0.985 . S
N1925 C1927 1.356 . S
N1925 H1930 0.984 . S
N1925 H1931 0.985 . S
C1926 C1920 1.379 . S
C1926 C1923 1.363 . S
C1926 N1924 1.356 . S
C1927 C1921 1.363 . S
C1927 C1922 1.379 . S
C1927 N1925 1.356 . S
N1928 C1920 1.356 . S
N1928 H1934 0.985 1_545 S
N1928 H1935 0.984 1_545 S
N1929 C1922 1.356 . S
N1929 H1932 0.984 . S
N1929 H1933 0.985 . S
H1930 N1925 0.984 . S
H1931 N1925 0.985 . S
H1932 N1929 0.984 . S
H1933 N1929 0.985 . S
H1934 N1928 0.985 1_565 S
H1935 N1928 0.984 1_565 S
H1936 N1924 0.984 . S
H1937 N1924 0.985 . S
C1938 C1939 1.363 . S
C1938 C1944 1.379 . S
C1938 N1946 1.356 . S
C1939 C1938 1.363 . S
C1939 C1945 1.363 . S
C1940 C1941 1.363 . S
C1940 C1945 1.379 . S
C1940 N1947 1.356 1_545 S
C1941 C1940 1.363 . S
C1941 C1944 1.363 . S
N1942 C1944 1.356 . S
N1942 H1954 0.984 . S
N1942 H1955 0.985 . S
N1943 C1945 1.356 . S
N1943 H1948 0.984 . S
N1943 H1949 0.985 . S
C1944 C1938 1.379 . S
C1944 C1941 1.363 . S
C1944 N1942 1.356 . S
C1945 C1939 1.363 . S
C1945 C1940 1.379 . S
C1945 N1943 1.356 . S
N1946 C1938 1.356 . S
N1946 H1952 0.984 . S
N1946 H1953 0.984 . S
N1947 C1940 1.356 1_565 S
N1947 H1950 0.984 . S
N1947 H1951 0.985 . S
H1948 N1943 0.984 . S
H1949 N1943 0.985 . S
H1950 N1947 0.984 . S
H1951 N1947 0.985 . S
H1952 N1946 0.984 . S
H1953 N1946 0.984 . S
H1954 N1942 0.984 . S
H1955 N1942 0.985 . S
C1956 C1957 1.363 . S
C1956 C1962 1.379 . S
C1956 N1964 1.356 . S
C1957 C1956 1.363 . S
C1957 C1963 1.363 . S
C1958 C1959 1.363 . S
C1958 C1963 1.379 . S
C1958 N1965 1.356 . S
C1959 C1958 1.363 . S
C1959 C1962 1.363 . S
N1960 C1962 1.356 . S
N1960 H1972 0.984 . S
N1960 H1973 0.985 . S
N1961 C1963 1.356 . S
N1961 H1966 0.984 . S
N1961 H1967 0.985 . S
C1962 C1956 1.379 . S
C1962 C1959 1.363 . S
C1962 N1960 1.356 . S
C1963 C1957 1.363 . S
C1963 C1958 1.379 . S
C1963 N1961 1.356 . S
N1964 C1956 1.356 . S
N1964 H1970 0.984 . S
N1964 H1971 0.984 1_565 S
N1965 C1958 1.356 . S
N1965 H1968 0.984 . S
N1965 H1969 0.985 . S
H1966 N1961 0.984 . S
H1967 N1961 0.985 . S
H1968 N1965 0.984 . S
H1969 N1965 0.985 . S
H1970 N1964 0.984 . S
H1971 N1964 0.984 1_545 S
H1972 N1960 0.984 . S
H1973 N1960 0.985 . S
C1974 C1975 1.363 . S
C1974 C1980 1.379 . S
C1974 N1982 1.356 . S
C1975 C1974 1.363 . S
C1975 C1981 1.363 . S
C1976 C1977 1.363 . S
C1976 C1981 1.379 . S
C1976 N1983 1.356 1_565 S
C1977 C1976 1.363 . S
C1977 C1980 1.363 . S
N1978 C1980 1.356 . S
N1978 H1990 0.984 . S
N1978 H1991 0.985 . S
N1979 C1981 1.356 . S
N1979 H1984 0.984 . S
N1979 H1985 0.985 . S
C1980 C1974 1.379 . S
C1980 C1977 1.363 . S
C1980 N1978 1.356 . S
C1981 C1975 1.363 . S
C1981 C1976 1.379 . S
C1981 N1979 1.356 . S
N1982 C1974 1.356 . S
N1982 H1988 0.984 . S
N1982 H1989 0.984 . S
N1983 C1976 1.356 1_545 S
N1983 H1986 0.984 . S
N1983 H1987 0.985 . S
H1984 N1979 0.984 . S
H1985 N1979 0.985 . S
H1986 N1983 0.984 . S
H1987 N1983 0.985 . S
H1988 N1982 0.984 . S
H1989 N1982 0.984 . S
H1990 N1978 0.984 . S
H1991 N1978 0.985 . S
C1992 C1993 1.363 . S
C1992 C1998 1.379 . S
C1992 N2000 1.356 . S
C1993 C1992 1.363 . S
C1993 C1999 1.363 . S
C1994 C1995 1.363 . S
C1994 C1999 1.379 . S
C1994 N2001 1.356 . S
C1995 C1994 1.363 . S
C1995 C1998 1.363 . S
N1996 C1998 1.356 . S
N1996 H2008 0.984 . S
N1996 H2009 0.985 . S
N1997 C1999 1.356 . S
N1997 H2002 0.984 1_565 S
N1997 H2003 0.985 . S
C1998 C1992 1.379 . S
C1998 C1995 1.363 . S
C1998 N1996 1.356 . S
C1999 C1993 1.363 . S
C1999 C1994 1.379 . S
C1999 N1997 1.356 . S
N2000 C1992 1.356 . S
N2000 H2006 0.984 . S
N2000 H2007 0.984 . S
N2001 C1994 1.356 . S
N2001 H2004 0.984 . S
N2001 H2005 0.985 . S
H2002 N1997 0.984 1_545 S
H2003 N1997 0.985 . S
H2004 N2001 0.984 . S
H2005 N2001 0.985 . S
H2006 N2000 0.984 . S
H2007 N2000 0.984 . S
H2008 N1996 0.984 . S
H2009 N1996 0.985 . S
C2010 C2011 1.363 . S
C2010 C2016 1.379 . S
C2010 N2018 1.356 . S
C2011 C2010 1.363 . S
C2011 C2017 1.363 . S
C2012 C2013 1.363 . S
C2012 C2017 1.379 . S
C2012 N2019 1.356 1_565 S
C2013 C2012 1.363 . S
C2013 C2016 1.363 . S
N2014 C2016 1.356 . S
N2014 H2026 0.984 . S
N2014 H2027 0.985 . S
N2015 C2017 1.356 . S
N2015 H2020 0.984 . S
N2015 H2021 0.985 . S
C2016 C2010 1.379 . S
C2016 C2013 1.363 . S
C2016 N2014 1.356 . S
C2017 C2011 1.363 . S
C2017 C2012 1.379 . S
C2017 N2015 1.356 . S
N2018 C2010 1.356 . S
N2018 H2024 0.984 . S
N2018 H2025 0.984 . S
N2019 C2012 1.356 1_545 S
N2019 H2022 0.984 . S
N2019 H2023 0.985 . S
H2020 N2015 0.984 . S
H2021 N2015 0.985 . S
H2022 N2019 0.984 . S
H2023 N2019 0.985 . S
H2024 N2018 0.984 . S
H2025 N2018 0.984 . S
H2026 N2014 0.984 . S
H2027 N2014 0.985 . S
C2028 C2029 1.363 . S
C2028 C2034 1.379 . S
C2028 N2036 1.356 . S
C2029 C2028 1.363 . S
C2029 C2035 1.363 . S
C2030 C2031 1.363 . S
C2030 C2035 1.379 . S
C2030 N2037 1.356 . S
C2031 C2030 1.363 . S
C2031 C2034 1.363 . S
N2032 C2034 1.356 . S
N2032 H2044 0.984 . S
N2032 H2045 0.986 . S
N2033 C2035 1.356 . S
N2033 H2038 0.984 . S
N2033 H2039 0.985 . S
C2034 C2028 1.379 . S
C2034 C2031 1.363 . S
C2034 N2032 1.356 . S
C2035 C2029 1.363 . S
C2035 C2030 1.379 . S
C2035 N2033 1.356 . S
N2036 C2028 1.356 . S
N2036 H2042 0.984 . S
N2036 H2043 0.984 . S
N2037 C2030 1.356 . S
N2037 H2040 0.984 1_545 S
N2037 H2041 0.985 . S
H2038 N2033 0.984 . S
H2039 N2033 0.985 . S
H2040 N2037 0.984 1_565 S
H2041 N2037 0.985 . S
H2042 N2036 0.984 . S
H2043 N2036 0.984 . S
H2044 N2032 0.984 . S
H2045 N2032 0.986 . S
C2046 C2047 1.363 . S
C2046 C2052 1.379 . S
C2046 N2054 1.356 1_545 S
C2047 C2046 1.363 . S
C2047 C2053 1.363 . S
C2048 C2049 1.363 . S
C2048 C2053 1.379 . S
C2048 N2055 1.356 . S
C2049 C2048 1.363 . S
C2049 C2052 1.363 . S
N2050 C2052 1.356 . S
N2050 H2062 0.984 . S
N2050 H2063 0.985 . S
N2051 C2053 1.356 . S
N2051 H2056 0.984 . S
N2051 H2057 0.985 . S
C2052 C2046 1.379 . S
C2052 C2049 1.363 . S
C2052 N2050 1.356 . S
C2053 C2047 1.363 . S
C2053 C2048 1.379 . S
C2053 N2051 1.356 . S
N2054 C2046 1.356 1_565 S
N2054 H2060 0.984 . S
N2054 H2061 0.984 . S
N2055 C2048 1.356 . S
N2055 H2058 0.984 . S
N2055 H2059 0.985 . S
H2056 N2051 0.984 . S
H2057 N2051 0.985 . S
H2058 N2055 0.984 . S
H2059 N2055 0.985 . S
H2060 N2054 0.984 . S
H2061 N2054 0.984 . S
H2062 N2050 0.984 . S
H2063 N2050 0.985 . S
C2064 C2065 1.363 . S
C2064 C2070 1.379 . S
C2064 N2072 1.356 . S
C2065 C2064 1.363 . S
C2065 C2071 1.363 . S
C2066 C2067 1.363 . S
C2066 C2071 1.379 . S
C2066 N2073 1.356 . S
C2067 C2066 1.363 . S
C2067 C2070 1.363 . S
N2068 C2070 1.356 . S
N2068 H2080 0.984 . S
N2068 H2081 0.985 . S
N2069 C2071 1.356 . S
N2069 H2074 0.984 . S
N2069 H2075 0.985 . S
C2070 C2064 1.379 . S
C2070 C2067 1.363 . S
C2070 N2068 1.356 . S
C2071 C2065 1.363 . S
C2071 C2066 1.379 . S
C2071 N2069 1.356 . S
N2072 C2064 1.356 . S
N2072 H2078 0.984 . S
N2072 H2079 0.984 . S
N2073 C2066 1.356 . S
N2073 H2076 0.984 . S
N2073 H2077 0.985 . S
H2074 N2069 0.984 . S
H2075 N2069 0.985 . S
H2076 N2073 0.984 . S
H2077 N2073 0.985 . S
H2078 N2072 0.984 . S
H2079 N2072 0.984 . S
H2080 N2068 0.984 . S
H2081 N2068 0.985 . S
C2082 C2083 1.363 . S
C2082 C2088 1.379 . S
C2082 N2090 1.356 . S
C2083 C2082 1.363 . S
C2083 C2089 1.363 . S
C2084 C2085 1.363 . S
C2084 C2089 1.379 . S
C2084 N2091 1.356 . S
C2085 C2084 1.363 . S
C2085 C2088 1.363 . S
N2086 C2088 1.356 . S
N2086 H2098 0.984 . S
N2086 H2099 0.985 . S
N2087 C2089 1.356 . S
N2087 H2092 0.984 . S
N2087 H2093 0.985 . S
C2088 C2082 1.379 . S
C2088 C2085 1.363 . S
C2088 N2086 1.356 . S
C2089 C2083 1.363 . S
C2089 C2084 1.379 . S
C2089 N2087 1.356 . S
N2090 C2082 1.356 . S
N2090 H2096 0.984 . S
N2090 H2097 0.984 . S
N2091 C2084 1.356 . S
N2091 H2094 0.984 . S
N2091 H2095 0.985 . S
H2092 N2087 0.984 . S
H2093 N2087 0.985 . S
H2094 N2091 0.984 . S
H2095 N2091 0.985 . S
H2096 N2090 0.984 . S
H2097 N2090 0.984 . S
H2098 N2086 0.984 . S
H2099 N2086 0.985 . S
C2100 C2101 1.363 . S
C2100 C2106 1.379 . S
C2100 N2108 1.356 . S
C2101 C2100 1.363 . S
C2101 C2107 1.363 . S
C2102 C2103 1.363 . S
C2102 C2107 1.379 . S
C2102 N2109 1.356 . S
C2103 C2102 1.363 . S
C2103 C2106 1.363 . S
N2104 C2106 1.356 . S
N2104 H2116 0.984 . S
N2104 H2117 0.985 . S
N2105 C2107 1.356 . S
N2105 H2110 0.984 . S
N2105 H2111 0.985 . S
C2106 C2100 1.379 . S
C2106 C2103 1.363 . S
C2106 N2104 1.356 . S
C2107 C2101 1.363 . S
C2107 C2102 1.379 . S
C2107 N2105 1.356 . S
N2108 C2100 1.356 . S
N2108 H2114 0.984 . S
N2108 H2115 0.984 . S
N2109 C2102 1.356 . S
N2109 H2112 0.984 . S
N2109 H2113 0.985 . S
H2110 N2105 0.984 . S
H2111 N2105 0.985 . S
H2112 N2109 0.984 . S
H2113 N2109 0.985 . S
H2114 N2108 0.984 . S
H2115 N2108 0.984 . S
H2116 N2104 0.984 . S
H2117 N2104 0.985 . S
C2118 C2119 1.363 . S
C2118 C2124 1.379 . S
C2118 N2126 1.356 . S
C2119 C2118 1.363 . S
C2119 C2125 1.363 . S
C2120 C2121 1.363 . S
C2120 C2125 1.379 . S
C2120 N2127 1.356 . S
C2121 C2120 1.363 . S
C2121 C2124 1.363 . S
N2122 C2124 1.356 . S
N2122 H2134 0.984 . S
N2122 H2135 0.985 . S
N2123 C2125 1.356 . S
N2123 H2128 0.984 . S
N2123 H2129 0.985 . S
C2124 C2118 1.379 . S
C2124 C2121 1.363 . S
C2124 N2122 1.356 . S
C2125 C2119 1.363 . S
C2125 C2120 1.379 . S
C2125 N2123 1.356 . S
N2126 C2118 1.356 . S
N2126 H2132 0.984 . S
N2126 H2133 0.984 . S
N2127 C2120 1.356 . S
N2127 H2130 0.984 . S
N2127 H2131 0.985 . S
H2128 N2123 0.984 . S
H2129 N2123 0.985 . S
H2130 N2127 0.984 . S
H2131 N2127 0.985 . S
H2132 N2126 0.984 . S
H2133 N2126 0.984 . S
H2134 N2122 0.984 . S
H2135 N2122 0.985 . S
C2136 C2137 1.363 . S
C2136 C2142 1.379 . S
C2136 N2144 1.356 . S
C2137 C2136 1.363 . S
C2137 C2143 1.363 . S
C2138 C2139 1.363 . S
C2138 C2143 1.379 . S
C2138 N2145 1.356 . S
C2139 C2138 1.363 . S
C2139 C2142 1.363 . S
N2140 C2142 1.356 . S
N2140 H2152 0.984 . S
N2140 H2153 0.985 . S
N2141 C2143 1.356 . S
N2141 H2146 0.984 . S
N2141 H2147 0.985 . S
C2142 C2136 1.379 . S
C2142 C2139 1.363 . S
C2142 N2140 1.356 . S
C2143 C2137 1.363 . S
C2143 C2138 1.379 . S
C2143 N2141 1.356 . S
N2144 C2136 1.356 . S
N2144 H2150 0.984 . S
N2144 H2151 0.984 . S
N2145 C2138 1.356 . S
N2145 H2148 0.984 . S
N2145 H2149 0.985 . S
H2146 N2141 0.984 . S
H2147 N2141 0.985 . S
H2148 N2145 0.984 . S
H2149 N2145 0.985 . S
H2150 N2144 0.984 . S
H2151 N2144 0.984 . S
H2152 N2140 0.984 . S
H2153 N2140 0.985 . S
C2154 C2155 1.363 . S
C2154 C2160 1.379 . S
C2154 N2162 1.356 . S
C2155 C2154 1.363 . S
C2155 C2161 1.363 . S
C2156 C2157 1.363 . S
C2156 C2161 1.379 . S
C2156 N2163 1.356 . S
C2157 C2156 1.363 . S
C2157 C2160 1.363 . S
N2158 C2160 1.356 . S
N2158 H2170 0.984 . S
N2158 H2171 0.985 . S
N2159 C2161 1.356 . S
N2159 H2164 0.984 . S
N2159 H2165 0.985 . S
C2160 C2154 1.379 . S
C2160 C2157 1.363 . S
C2160 N2158 1.356 . S
C2161 C2155 1.363 . S
C2161 C2156 1.379 . S
C2161 N2159 1.356 . S
N2162 C2154 1.356 . S
N2162 H2168 0.984 . S
N2162 H2169 0.984 . S
N2163 C2156 1.356 . S
N2163 H2166 0.984 . S
N2163 H2167 0.985 . S
H2164 N2159 0.984 . S
H2165 N2159 0.985 . S
H2166 N2163 0.984 . S
H2167 N2163 0.985 . S
H2168 N2162 0.984 . S
H2169 N2162 0.984 . S
H2170 N2158 0.984 . S
H2171 N2158 0.985 . S
C2172 C2173 1.363 . S
C2172 C2178 1.379 . S
C2172 N2180 1.356 . S
C2173 C2172 1.363 . S
C2173 C2179 1.363 . S
C2174 C2175 1.363 . S
C2174 C2179 1.379 . S
C2174 N2181 1.356 . S
C2175 C2174 1.363 . S
C2175 C2178 1.363 . S
N2176 C2178 1.356 . S
N2176 H2188 0.984 . S
N2176 H2189 0.985 . S
N2177 C2179 1.356 . S
N2177 H2182 0.984 . S
N2177 H2183 0.985 . S
C2178 C2172 1.379 . S
C2178 C2175 1.363 . S
C2178 N2176 1.356 . S
C2179 C2173 1.363 . S
C2179 C2174 1.379 . S
C2179 N2177 1.356 . S
N2180 C2172 1.356 . S
N2180 H2186 0.984 . S
N2180 H2187 0.984 . S
N2181 C2174 1.356 . S
N2181 H2184 0.984 . S
N2181 H2185 0.985 . S
H2182 N2177 0.984 . S
H2183 N2177 0.985 . S
H2184 N2181 0.984 . S
H2185 N2181 0.985 . S
H2186 N2180 0.984 . S
H2187 N2180 0.984 . S
H2188 N2176 0.984 . S
H2189 N2176 0.985 . S
C2190 C2191 1.363 . S
C2190 C2196 1.379 . S
C2190 N2198 1.356 . S
C2191 C2190 1.363 . S
C2191 C2197 1.363 . S
C2192 C2193 1.363 . S
C2192 C2197 1.379 . S
C2192 N2199 1.356 . S
C2193 C2192 1.363 . S
C2193 C2196 1.363 . S
N2194 C2196 1.356 . S
N2194 H2206 0.984 . S
N2194 H2207 0.985 . S
N2195 C2197 1.356 . S
N2195 H2200 0.984 . S
N2195 H2201 0.985 . S
C2196 C2190 1.379 . S
C2196 C2193 1.363 . S
C2196 N2194 1.356 . S
C2197 C2191 1.363 . S
C2197 C2192 1.379 . S
C2197 N2195 1.356 . S
N2198 C2190 1.356 . S
N2198 H2204 0.984 . S
N2198 H2205 0.984 . S
N2199 C2192 1.356 . S
N2199 H2202 0.984 . S
N2199 H2203 0.985 . S
H2200 N2195 0.984 . S
H2201 N2195 0.985 . S
H2202 N2199 0.984 . S
H2203 N2199 0.985 . S
H2204 N2198 0.984 . S
H2205 N2198 0.984 . S
H2206 N2194 0.984 . S
H2207 N2194 0.985 . S
C2208 C2209 1.363 . S
C2208 C2214 1.379 . S
C2208 N2216 1.356 . S
C2209 C2208 1.363 . S
C2209 C2215 1.363 . S
C2210 C2211 1.363 . S
C2210 C2215 1.379 . S
C2210 N2217 1.356 . S
C2211 C2210 1.363 . S
C2211 C2214 1.363 . S
N2212 C2214 1.356 . S
N2212 H2224 0.984 . S
N2212 H2225 0.985 . S
N2213 C2215 1.356 . S
N2213 H2218 0.984 . S
N2213 H2219 0.985 . S
C2214 C2208 1.379 . S
C2214 C2211 1.363 . S
C2214 N2212 1.356 . S
C2215 C2209 1.363 . S
C2215 C2210 1.379 . S
C2215 N2213 1.356 . S
N2216 C2208 1.356 . S
N2216 H2222 0.984 . S
N2216 H2223 0.984 . S
N2217 C2210 1.356 . S
N2217 H2220 0.984 . S
N2217 H2221 0.985 . S
H2218 N2213 0.984 . S
H2219 N2213 0.985 . S
H2220 N2217 0.984 . S
H2221 N2217 0.985 . S
H2222 N2216 0.984 . S
H2223 N2216 0.984 . S
H2224 N2212 0.984 . S
H2225 N2212 0.985 . S
C2226 C2227 1.363 1_545 S
C2226 C2232 1.379 1_455 S
C2226 N2234 1.356 . S
C2227 C2226 1.363 1_565 S
C2227 C2233 1.363 . S
C2228 C2229 1.363 1_565 S
C2228 C2233 1.379 1_655 S
C2228 N2235 1.356 . S
C2229 C2228 1.363 1_545 S
C2229 C2232 1.363 . S
N2230 C2232 1.356 . S
N2230 H2242 0.984 . S
N2230 H2243 0.985 . S
N2231 C2233 1.356 . S
N2231 H2236 0.984 . S
N2231 H2237 0.985 . S
C2232 C2226 1.379 1_655 S
C2232 C2229 1.363 . S
C2232 N2230 1.356 . S
C2233 C2227 1.363 . S
C2233 C2228 1.379 1_455 S
C2233 N2231 1.356 . S
N2234 C2226 1.356 . S
N2234 H2240 0.984 . S
N2234 H2241 0.984 1_545 S
N2235 C2228 1.356 . S
N2235 H2238 0.984 1_565 S
N2235 H2239 0.985 . S
H2236 N2231 0.984 . S
H2237 N2231 0.985 . S
H2238 N2235 0.984 1_545 S
H2239 N2235 0.985 . S
H2240 N2234 0.984 . S
H2241 N2234 0.984 1_565 S
H2242 N2230 0.984 . S
H2243 N2230 0.985 . S
C2244 C2245 1.363 . S
C2244 C2250 1.379 . S
C2244 N2252 1.356 . S
C2245 C2244 1.363 . S
C2245 C2251 1.363 . S
C2246 C2247 1.363 . S
C2246 C2251 1.379 . S
C2246 N2253 1.356 . S
C2247 C2246 1.363 . S
C2247 C2250 1.363 . S
N2248 C2250 1.356 . S
N2248 H2260 0.984 . S
N2248 H2261 0.985 . S
N2249 C2251 1.356 . S
N2249 H2254 0.984 . S
N2249 H2255 0.985 . S
C2250 C2244 1.379 . S
C2250 C2247 1.363 . S
C2250 N2248 1.356 . S
C2251 C2245 1.363 . S
C2251 C2246 1.379 . S
C2251 N2249 1.356 . S
N2252 C2244 1.356 . S
N2252 H2258 0.984 . S
N2252 H2259 0.984 . S
N2253 C2246 1.356 . S
N2253 H2256 0.984 . S
N2253 H2257 0.985 . S
H2254 N2249 0.984 . S
H2255 N2249 0.985 . S
H2256 N2253 0.984 . S
H2257 N2253 0.985 . S
H2258 N2252 0.984 . S
H2259 N2252 0.984 . S
H2260 N2248 0.984 . S
H2261 N2248 0.985 . S
C2262 C2263 1.363 . S
C2262 C2268 1.379 1_545 S
C2262 N2270 1.356 . S
C2263 C2262 1.363 . S
C2263 C2269 1.363 1_554 S
C2264 C2265 1.363 . S
C2264 C2269 1.379 1_565 S
C2264 N2271 1.356 . S
C2265 C2264 1.363 . S
C2265 C2268 1.363 1_556 S
N2266 C2268 1.356 . S
N2266 H2278 0.984 . S
N2266 H2279 0.985 1_554 S
N2267 C2269 1.356 . S
N2267 H2272 0.984 1_556 S
N2267 H2273 0.985 . S
C2268 C2262 1.379 1_565 S
C2268 C2265 1.363 1_554 S
C2268 N2266 1.356 . S
C2269 C2263 1.363 1_556 S
C2269 C2264 1.379 1_545 S
C2269 N2267 1.356 . S
N2270 C2262 1.356 . S
N2270 H2276 0.984 . S
N2270 H2277 0.984 . S
N2271 C2264 1.356 . S
N2271 H2274 0.984 . S
N2271 H2275 0.985 . S
H2272 N2267 0.984 1_554 S
H2273 N2267 0.985 . S
H2274 N2271 0.984 . S
H2275 N2271 0.985 . S
H2276 N2270 0.984 . S
H2277 N2270 0.984 . S
H2278 N2266 0.984 . S
H2279 N2266 0.985 1_556 S
C2280 C2281 1.363 . S
C2280 C2286 1.379 . S
C2280 N2288 1.356 . S
C2281 C2280 1.363 . S
C2281 C2287 1.363 . S
C2282 C2283 1.363 . S
C2282 C2287 1.379 . S
C2282 N2289 1.356 . S
C2283 C2282 1.363 . S
C2283 C2286 1.363 . S
N2284 C2286 1.356 . S
N2284 H2296 0.984 . S
N2284 H2297 0.985 . S
N2285 C2287 1.356 . S
N2285 H2290 0.984 . S
N2285 H2291 0.985 . S
C2286 C2280 1.379 . S
C2286 C2283 1.363 . S
C2286 N2284 1.356 . S
C2287 C2281 1.363 . S
C2287 C2282 1.379 . S
C2287 N2285 1.356 . S
N2288 C2280 1.356 . S
N2288 H2294 0.984 . S
N2288 H2295 0.984 . S
N2289 C2282 1.356 . S
N2289 H2292 0.984 . S
N2289 H2293 0.985 . S
H2290 N2285 0.984 . S
H2291 N2285 0.985 . S
H2292 N2289 0.984 . S
H2293 N2289 0.985 . S
H2294 N2288 0.984 . S
H2295 N2288 0.984 . S
H2296 N2284 0.984 . S
H2297 N2284 0.985 . S
C2298 C2299 1.363 1_565 S
C2298 C2304 1.379 . S
C2298 N2306 1.356 . S
C2299 C2298 1.363 1_545 S
C2299 C2305 1.363 . S
C2300 C2301 1.363 1_545 S
C2300 C2305 1.379 . S
C2300 N2307 1.356 . S
C2301 C2300 1.363 1_565 S
C2301 C2304 1.363 . S
N2302 C2304 1.356 . S
N2302 H2314 0.984 . S
N2302 H2315 0.985 . S
N2303 C2305 1.356 . S
N2303 H2308 0.984 . S
N2303 H2309 0.985 . S
C2304 C2298 1.379 . S
C2304 C2301 1.363 . S
C2304 N2302 1.356 . S
C2305 C2299 1.363 . S
C2305 C2300 1.379 . S
C2305 N2303 1.356 . S
N2306 C2298 1.356 . S
N2306 H2312 0.984 . S
N2306 H2313 0.984 1_565 S
N2307 C2300 1.356 . S
N2307 H2310 0.984 1_545 S
N2307 H2311 0.985 . S
H2308 N2303 0.984 . S
H2309 N2303 0.985 . S
H2310 N2307 0.984 1_565 S
H2311 N2307 0.985 . S
H2312 N2306 0.984 . S
H2313 N2306 0.984 1_545 S
H2314 N2302 0.984 . S
H2315 N2302 0.985 . S
C2316 C2317 1.363 . S
C2316 C2322 1.379 . S
C2316 N2324 1.356 . S
C2317 C2316 1.363 . S
C2317 C2323 1.363 . S
C2318 C2319 1.363 . S
C2318 C2323 1.379 . S
C2318 N2325 1.356 . S
C2319 C2318 1.363 . S
C2319 C2322 1.363 . S
N2320 C2322 1.356 . S
N2320 H2332 0.984 . S
N2320 H2333 0.985 . S
N2321 C2323 1.356 . S
N2321 H2326 0.984 . S
N2321 H2327 0.985 . S
C2322 C2316 1.379 . S
C2322 C2319 1.363 . S
C2322 N2320 1.356 . S
C2323 C2317 1.363 . S
C2323 C2318 1.379 . S
C2323 N2321 1.356 . S
N2324 C2316 1.356 . S
N2324 H2330 0.984 . S
N2324 H2331 0.984 . S
N2325 C2318 1.356 . S
N2325 H2328 0.984 . S
N2325 H2329 0.985 . S
H2326 N2321 0.984 . S
H2327 N2321 0.985 . S
H2328 N2325 0.984 . S
H2329 N2325 0.985 . S
H2330 N2324 0.984 . S
H2331 N2324 0.984 . S
H2332 N2320 0.984 . S
H2333 N2320 0.985 . S
C2334 C2335 1.363 1_545 S
C2334 C2340 1.405 . S
C2334 N2342 1.356 . S
C2335 C2334 1.363 1_565 S
C2335 C2341 1.335 1_654 S
C2336 C2337 1.363 1_565 S
C2336 C2341 1.405 . S
C2336 N2343 1.356 . S
C2337 C2336 1.363 1_545 S
C2337 C2340 1.335 1_456 S
N2338 C2340 1.350 1_556 S
N2338 H2350 0.984 1_556 S
N2338 H2351 0.985 1_655 S
N2339 C2341 1.350 1_554 S
N2339 H2344 0.984 1_455 S
N2339 H2345 0.985 1_554 S
C2340 C2334 1.405 . S
C2340 C2337 1.335 1_654 S
C2340 N2338 1.350 1_554 S
C2341 C2335 1.335 1_456 S
C2341 C2336 1.405 . S
C2341 N2339 1.350 1_556 S
N2342 C2334 1.356 . S
N2342 H2348 0.984 . S
N2342 H2349 0.984 1_545 S
N2343 C2336 1.356 . S
N2343 H2346 0.984 1_565 S
N2343 H2347 0.985 . S
H2344 N2339 0.984 1_655 S
H2345 N2339 0.985 1_556 S
H2346 N2343 0.984 1_545 S
H2347 N2343 0.985 . S
H2348 N2342 0.984 . S
H2349 N2342 0.984 1_565 S
H2350 N2338 0.984 1_554 S
H2351 N2338 0.985 1_455 S
C2352 C2353 1.363 . S
C2352 C2358 1.379 . S
C2352 N2360 1.356 . S
C2353 C2352 1.363 . S
C2353 C2359 1.363 . S
C2354 C2355 1.363 . S
C2354 C2359 1.379 . S
C2354 N2361 1.356 . S
C2355 C2354 1.363 . S
C2355 C2358 1.363 . S
N2356 C2358 1.356 . S
N2356 H2368 0.984 . S
N2356 H2369 0.985 . S
N2357 C2359 1.356 . S
N2357 H2362 0.984 . S
N2357 H2363 0.985 . S
C2358 C2352 1.379 . S
C2358 C2355 1.363 . S
C2358 N2356 1.356 . S
C2359 C2353 1.363 . S
C2359 C2354 1.379 . S
C2359 N2357 1.356 . S
N2360 C2352 1.356 . S
N2360 H2366 0.984 . S
N2360 H2367 0.984 . S
N2361 C2354 1.356 . S
N2361 H2364 0.984 . S
N2361 H2365 0.985 . S
H2362 N2357 0.984 . S
H2363 N2357 0.985 . S
H2364 N2361 0.984 . S
H2365 N2361 0.985 . S
H2366 N2360 0.984 . S
H2367 N2360 0.984 . S
H2368 N2356 0.984 . S
H2369 N2356 0.985 . S
C2370 C2371 1.363 . S
C2370 C2376 1.379 . S
C2370 N2378 1.356 . S
C2371 C2370 1.363 . S
C2371 C2377 1.363 . S
C2372 C2373 1.363 . S
C2372 C2377 1.379 . S
C2372 N2379 1.356 . S
C2373 C2372 1.363 . S
C2373 C2376 1.363 . S
N2374 C2376 1.356 . S
N2374 H2386 0.984 . S
N2374 H2387 0.985 . S
N2375 C2377 1.356 . S
N2375 H2380 0.984 . S
N2375 H2381 0.985 . S
C2376 C2370 1.379 . S
C2376 C2373 1.363 . S
C2376 N2374 1.356 . S
C2377 C2371 1.363 . S
C2377 C2372 1.379 . S
C2377 N2375 1.356 . S
N2378 C2370 1.356 . S
N2378 H2384 0.984 . S
N2378 H2385 0.984 . S
N2379 C2372 1.356 . S
N2379 H2382 0.984 . S
N2379 H2383 0.985 . S
H2380 N2375 0.984 . S
H2381 N2375 0.985 . S
H2382 N2379 0.984 . S
H2383 N2379 0.985 . S
H2384 N2378 0.984 . S
H2385 N2378 0.984 . S
H2386 N2374 0.984 . S
H2387 N2374 0.985 . S
C2388 C2389 1.363 . S
C2388 C2394 1.379 . S
C2388 N2396 1.356 . S
C2389 C2388 1.363 . S
C2389 C2395 1.363 . S
C2390 C2391 1.363 . S
C2390 C2395 1.379 . S
C2390 N2397 1.356 . S
C2391 C2390 1.363 . S
C2391 C2394 1.363 . S
N2392 C2394 1.356 . S
N2392 H2404 0.984 . S
N2392 H2405 0.985 . S
N2393 C2395 1.356 . S
N2393 H2398 0.984 . S
N2393 H2399 0.985 . S
C2394 C2388 1.379 . S
C2394 C2391 1.363 . S
C2394 N2392 1.356 . S
C2395 C2389 1.363 . S
C2395 C2390 1.379 . S
C2395 N2393 1.356 . S
N2396 C2388 1.356 . S
N2396 H2402 0.984 . S
N2396 H2403 0.984 . S
N2397 C2390 1.356 . S
N2397 H2400 0.984 . S
N2397 H2401 0.985 . S
H2398 N2393 0.984 . S
H2399 N2393 0.985 . S
H2400 N2397 0.984 . S
H2401 N2397 0.985 . S
H2402 N2396 0.984 . S
H2403 N2396 0.984 . S
H2404 N2392 0.984 . S
H2405 N2392 0.985 . S
C2406 C2407 1.363 . S
C2406 C2412 1.379 . S
C2406 N2414 1.356 . S
C2407 C2406 1.363 . S
C2407 C2413 1.363 . S
C2408 C2409 1.363 . S
C2408 C2413 1.379 . S
C2408 N2415 1.356 . S
C2409 C2408 1.363 . S
C2409 C2412 1.363 . S
N2410 C2412 1.356 . S
N2410 H2422 0.984 . S
N2410 H2423 0.985 . S
N2411 C2413 1.356 . S
N2411 H2416 0.984 . S
N2411 H2417 0.985 . S
C2412 C2406 1.379 . S
C2412 C2409 1.363 . S
C2412 N2410 1.356 . S
C2413 C2407 1.363 . S
C2413 C2408 1.379 . S
C2413 N2411 1.356 . S
N2414 C2406 1.356 . S
N2414 H2420 0.984 . S
N2414 H2421 0.984 . S
N2415 C2408 1.356 . S
N2415 H2418 0.984 . S
N2415 H2419 0.985 . S
H2416 N2411 0.984 . S
H2417 N2411 0.985 . S
H2418 N2415 0.984 . S
H2419 N2415 0.985 . S
H2420 N2414 0.984 . S
H2421 N2414 0.984 . S
H2422 N2410 0.984 . S
H2423 N2410 0.985 . S
C2424 C2425 1.363 1_554 S
C2424 C2430 1.379 . S
C2424 N2432 1.351 1_554 S
C2425 C2424 1.363 1_556 S
C2425 C2431 1.363 . S
C2426 C2427 1.363 1_556 S
C2426 C2431 1.379 . S
C2426 N2433 1.351 1_556 S
C2427 C2426 1.363 1_554 S
C2427 C2430 1.363 . S
N2428 C2430 1.356 . S
N2428 H2440 0.984 . S
N2428 H2441 0.985 . S
N2429 C2431 1.356 . S
N2429 H2434 0.984 . S
N2429 H2435 0.985 . S
C2430 C2424 1.379 . S
C2430 C2427 1.363 . S
C2430 N2428 1.356 . S
C2431 C2425 1.363 . S
C2431 C2426 1.379 . S
C2431 N2429 1.356 . S
N2432 C2424 1.351 1_556 S
N2432 H2438 0.960 1_556 S
N2432 H2439 1.016 . S
N2433 C2426 1.351 1_554 S
N2433 H2436 1.016 . S
N2433 H2437 0.960 1_554 S
H2434 N2429 0.984 . S
H2435 N2429 0.985 . S
H2436 N2433 1.016 . S
H2437 N2433 0.960 1_556 S
H2438 N2432 0.960 1_554 S
H2439 N2432 1.016 . S
H2440 N2428 0.984 . S
H2441 N2428 0.985 . S
C2442 C2443 1.363 . S
C2442 C2448 1.379 1_455 S
C2442 N2450 1.356 . S
C2443 C2442 1.363 . S
C2443 C2449 1.363 . S
C2444 C2445 1.363 . S
C2444 C2449 1.379 1_655 S
C2444 N2451 1.356 . S
C2445 C2444 1.363 . S
C2445 C2448 1.363 . S
N2446 C2448 1.356 . S
N2446 H2458 0.984 . S
N2446 H2459 0.985 . S
N2447 C2449 1.356 . S
N2447 H2452 0.984 . S
N2447 H2453 0.985 . S
C2448 C2442 1.379 1_655 S
C2448 C2445 1.363 . S
C2448 N2446 1.356 . S
C2449 C2443 1.363 . S
C2449 C2444 1.379 1_455 S
C2449 N2447 1.356 . S
N2450 C2442 1.356 . S
N2450 H2456 0.984 . S
N2450 H2457 0.984 . S
N2451 C2444 1.356 . S
N2451 H2454 0.984 . S
N2451 H2455 0.985 . S
H2452 N2447 0.984 . S
H2453 N2447 0.985 . S
H2454 N2451 0.984 . S
H2455 N2451 0.985 . S
H2456 N2450 0.984 . S
H2457 N2450 0.984 . S
H2458 N2446 0.984 . S
H2459 N2446 0.985 . S
C2460 C2461 1.363 . S
C2460 C2466 1.379 1_455 S
C2460 N2468 1.356 . S
C2461 C2460 1.363 . S
C2461 C2467 1.363 1_554 S
C2462 C2463 1.363 . S
C2462 C2467 1.379 1_655 S
C2462 N2469 1.356 . S
C2463 C2462 1.363 . S
C2463 C2466 1.363 1_556 S
N2464 C2466 1.356 . S
N2464 H2476 0.984 1_655 S
N2464 H2477 0.985 1_554 S
N2465 C2467 1.356 . S
N2465 H2470 0.984 1_556 S
N2465 H2471 0.985 1_455 S
C2466 C2460 1.379 1_655 S
C2466 C2463 1.363 1_554 S
C2466 N2464 1.356 . S
C2467 C2461 1.363 1_556 S
C2467 C2462 1.379 1_455 S
C2467 N2465 1.356 . S
N2468 C2460 1.356 . S
N2468 H2474 0.984 . S
N2468 H2475 0.984 . S
N2469 C2462 1.356 . S
N2469 H2472 0.984 . S
N2469 H2473 0.985 . S
H2470 N2465 0.984 1_554 S
H2471 N2465 0.985 1_655 S
H2472 N2469 0.984 . S
H2473 N2469 0.985 . S
H2474 N2468 0.984 . S
H2475 N2468 0.984 . S
H2476 N2464 0.984 1_455 S
H2477 N2464 0.985 1_556 S
C2478 C2479 1.363 . S
C2478 C2484 1.379 . S
C2478 N2486 1.356 . S
C2479 C2478 1.363 . S
C2479 C2485 1.363 . S
C2480 C2481 1.363 . S
C2480 C2485 1.379 . S
C2480 N2487 1.356 . S
C2481 C2480 1.363 . S
C2481 C2484 1.363 . S
N2482 C2484 1.356 . S
N2482 H2494 0.984 . S
N2482 H2495 0.985 . S
N2483 C2485 1.356 . S
N2483 H2488 0.984 . S
N2483 H2489 0.985 . S
C2484 C2478 1.379 . S
C2484 C2481 1.363 . S
C2484 N2482 1.356 . S
C2485 C2479 1.363 . S
C2485 C2480 1.379 . S
C2485 N2483 1.356 . S
N2486 C2478 1.356 . S
N2486 H2492 0.984 . S
N2486 H2493 0.984 . S
N2487 C2480 1.356 . S
N2487 H2490 0.984 . S
N2487 H2491 0.985 . S
H2488 N2483 0.984 . S
H2489 N2483 0.985 . S
H2490 N2487 0.984 . S
H2491 N2487 0.985 . S
H2492 N2486 0.984 . S
H2493 N2486 0.984 . S
H2494 N2482 0.984 . S
H2495 N2482 0.985 . S
C1057 N5 1.589 . S
C1059 C919 1.557 . S
C1075 N38 1.589 1_655 S
C1077 C292 1.557 . S
C1093 C853 1.557 . S
C1095 N71 1.589 . S
C1111 C358 1.557 . S
C1113 N104 1.589 . S
C1129 C985 1.557 . S
C1131 N137 1.589 . S
C1147 N170 1.589 . S
C1149 C490 1.557 . S
C1165 N203 1.589 . S
C1167 C1051 1.557 . S
C1183 C424 1.557 . S
C1185 N236 1.589 1_655 S
C1201 N269 1.589 . S
C1203 C655 1.557 . S
C1219 N302 1.589 1_455 S
C1221 C28 1.557 . S
C1237 N335 1.589 . S
C1239 C589 1.557 . S
C1255 C94 1.557 . S
C1257 N368 1.589 . S
C1273 N401 1.589 . S
C1275 C721 1.557 . S
C1291 N434 1.589 . S
C1293 C226 1.557 . S
C1309 C787 1.557 . S
C1311 N467 1.589 . S
C1327 N500 1.589 1_455 S
C1329 C160 1.557 . S
C1345 N533 1.589 . S
C1347 C391 1.557 . S
C1363 C820 1.557 . S
C1365 N566 1.589 . S
C1381 C325 1.557 . S
C1383 N599 1.589 . S
C1399 N632 1.589 1_455 S
C1401 C886 1.557 . S
C1417 N665 1.589 . S
C1419 C457 1.557 . S
C1435 C1018 1.557 . S
C1437 N698 1.589 1_455 S
C1453 N731 1.589 . S
C1455 C523 1.557 . S
C1471 C952 1.557 . S
C1473 N764 1.589 . S
C1489 N797 1.589 . S
C1491 C127 1.557 . S
C1507 C556 1.557 . S
C1509 N830 1.589 . S
C1525 N863 1.589 . S
C1527 C61 1.557 . S
C1543 C622 1.557 . S
C1545 N896 1.589 1_655 S
C1561 N929 1.589 . S
C1563 C193 1.557 . S
C1579 C754 1.557 . S
C1581 N962 1.589 1_655 S
C1597 C259 1.557 . S
C1599 N995 1.589 . S
C1615 N1028 1.589 . S
C1617 C688 1.557 . S
C1633 N14 1.508 . S
C1635 N146 1.508 . S
C1651 N47 1.508 . S
C1653 N179 1.508 . S
C1669 N212 1.508 . S
C1671 N80 1.508 . S
C1687 N113 1.508 . S
C1689 N245 1.508 . S
C1705 N278 1.508 . S
C1707 N410 1.508 . S
C1723 N311 1.508 . S
C1725 N443 1.508 . S
C1741 N344 1.508 . S
C1743 N476 1.508 . S
C1759 N377 1.508 . S
C1761 N509 1.508 . S
C1777 N542 1.508 . S
C1779 N674 1.508 . S
C1795 N707 1.508 . S
C1797 N575 1.508 . S
C1813 N740 1.508 . S
C1815 N608 1.508 . S
C1831 N773 1.508 . S
C1833 N641 1.508 . S
C1849 N938 1.508 . S
C1851 N806 1.508 . S
C1867 N839 1.508 . S
C1869 N971 1.508 . S
C1885 N872 1.508 . S
C1887 N1004 1.508 . S
C1903 N1037 1.508 . S
C1905 N905 1.508 . S
C1921 C173 1.887 1_545 S
C1923 C8 1.887 . S
C1939 C206 1.887 . S
C1941 C41 1.887 1_545 S
C1957 C239 1.887 1_565 S
C1959 C74 1.887 . S
C1975 C140 1.887 . S
C1977 C107 1.887 1_565 S
C1993 C437 1.887 1_565 S
C1995 C272 1.887 . S
C2011 C470 1.887 . S
C2013 C305 1.887 1_565 S
C2029 C338 1.887 . S
C2031 C503 1.887 1_545 S
C2047 C371 1.887 1_545 S
C2049 C404 1.887 . S
C2065 C701 1.887 . S
C2067 C536 1.887 . S
C2083 C569 1.887 . S
C2085 C734 1.887 . S
C2101 C767 1.887 . S
C2103 C602 1.887 . S
C2119 C635 1.887 . S
C2121 C668 1.887 . S
C2137 C965 1.887 . S
C2139 C800 1.887 . S
C2155 C833 1.887 . S
C2157 C998 1.887 . S
C2173 C866 1.887 . S
C2175 C1031 1.887 . S
C2191 C932 1.887 . S
C2193 C899 1.887 . S
C2209 C809 1.191 . S
C2211 C17 1.191 . S
C2227 C50 1.191 . S
C2229 C314 1.191 . S
C2245 C83 1.191 . S
C2247 C875 1.191 . S
C2263 C116 1.191 . S
C2265 C380 1.191 . S
C2281 C149 1.191 . S
C2283 C941 1.191 . S
C2299 C446 1.191 . S
C2301 C182 1.191 . S
C2317 C1007 1.191 . S
C2319 C215 1.191 . S
C2335 C512 1.191 . S
C2337 C248 1.191 . S
C2353 C281 1.191 . S
C2355 C545 1.191 . S
C2371 C611 1.191 . S
C2373 C347 1.191 . S
C2389 C413 1.191 . S
C2391 C677 1.191 . S
C2407 C479 1.191 . S
C2409 C743 1.191 . S
C2425 C842 1.191 . S
C2427 C578 1.191 . S
C2443 C908 1.191 . S
C2445 C644 1.191 . S
C2461 C974 1.191 . S
C2463 C710 1.191 . S
C2479 C776 1.191 . S
C2481 C1040 1.191 . S
