# Generated by pormake.
# Topology umr, (4)-cn, num edge types: 1
# Building blocks:
#     Node 0, Type 0, BuildingBlock: QUQFOY_clean_sbu_3, # of connection points: 4
#     Node 1, Type 0, BuildingBlock: QUQFOY_clean_sbu_3, # of connection points: 4
#     Node 2, Type 0, BuildingBlock: QUQFOY_clean_sbu_3, # of connection points: 4
#     Node 3, Type 0, BuildingBlock: QUQFOY_clean_sbu_3, # of connection points: 4
#     Node 4, Type 0, BuildingBlock: QUQFOY_clean_sbu_3, # of connection points: 4
#     Node 5, Type 0, BuildingBlock: QUQFOY_clean_sbu_3, # of connection points: 4
#     Node 6, Type 0, BuildingBlock: QUQFOY_clean_sbu_3, # of connection points: 4
#     Node 7, Type 0, BuildingBlock: QUQFOY_clean_sbu_3, # of connection points: 4
#     Node 8, Type 0, BuildingBlock: QUQFOY_clean_sbu_3, # of connection points: 4
#     Node 9, Type 0, BuildingBlock: QUQFOY_clean_sbu_3, # of connection points: 4
#     Node 10, Type 0, BuildingBlock: QUQFOY_clean_sbu_3, # of connection points: 4
#     Node 11, Type 0, BuildingBlock: QUQFOY_clean_sbu_3, # of connection points: 4
#     Node 12, Type 0, BuildingBlock: QUQFOY_clean_sbu_3, # of connection points: 4
#     Node 13, Type 0, BuildingBlock: QUQFOY_clean_sbu_3, # of connection points: 4
#     Node 14, Type 0, BuildingBlock: QUQFOY_clean_sbu_3, # of connection points: 4
#     Node 15, Type 0, BuildingBlock: QUQFOY_clean_sbu_3, # of connection points: 4
#     Node 16, Type 0, BuildingBlock: QUQFOY_clean_sbu_3, # of connection points: 4
#     Node 17, Type 0, BuildingBlock: QUQFOY_clean_sbu_3, # of connection points: 4
#     Node 18, Type 0, BuildingBlock: QUQFOY_clean_sbu_3, # of connection points: 4
#     Node 19, Type 0, BuildingBlock: QUQFOY_clean_sbu_3, # of connection points: 4
#     Node 20, Type 0, BuildingBlock: QUQFOY_clean_sbu_3, # of connection points: 4
#     Node 21, Type 0, BuildingBlock: QUQFOY_clean_sbu_3, # of connection points: 4
#     Node 22, Type 0, BuildingBlock: QUQFOY_clean_sbu_3, # of connection points: 4
#     Node 23, Type 0, BuildingBlock: QUQFOY_clean_sbu_3, # of connection points: 4
#     Node 24, Type 0, BuildingBlock: QUQFOY_clean_sbu_3, # of connection points: 4
#     Node 25, Type 0, BuildingBlock: QUQFOY_clean_sbu_3, # of connection points: 4
#     Node 26, Type 0, BuildingBlock: QUQFOY_clean_sbu_3, # of connection points: 4
#     Node 27, Type 0, BuildingBlock: QUQFOY_clean_sbu_3, # of connection points: 4
#     Node 28, Type 0, BuildingBlock: QUQFOY_clean_sbu_3, # of connection points: 4
#     Node 29, Type 0, BuildingBlock: QUQFOY_clean_sbu_3, # of connection points: 4
#     Node 30, Type 0, BuildingBlock: QUQFOY_clean_sbu_3, # of connection points: 4
#     Node 31, Type 0, BuildingBlock: QUQFOY_clean_sbu_3, # of connection points: 4
#     Edge 32, Type (0, 0), BuildingBlock: KIFKEQ_clean_linker_1, # of connection points: 2
#     Edge 33, Type (0, 0), BuildingBlock: KIFKEQ_clean_linker_1, # of connection points: 2
#     Edge 34, Type (0, 0), BuildingBlock: KIFKEQ_clean_linker_1, # of connection points: 2
#     Edge 35, Type (0, 0), BuildingBlock: KIFKEQ_clean_linker_1, # of connection points: 2
#     Edge 36, Type (0, 0), BuildingBlock: KIFKEQ_clean_linker_1, # of connection points: 2
#     Edge 37, Type (0, 0), BuildingBlock: KIFKEQ_clean_linker_1, # of connection points: 2
#     Edge 38, Type (0, 0), BuildingBlock: KIFKEQ_clean_linker_1, # of connection points: 2
#     Edge 39, Type (0, 0), BuildingBlock: KIFKEQ_clean_linker_1, # of connection points: 2
#     Edge 40, Type (0, 0), BuildingBlock: KIFKEQ_clean_linker_1, # of connection points: 2
#     Edge 41, Type (0, 0), BuildingBlock: KIFKEQ_clean_linker_1, # of connection points: 2
#     Edge 42, Type (0, 0), BuildingBlock: KIFKEQ_clean_linker_1, # of connection points: 2
#     Edge 43, Type (0, 0), BuildingBlock: KIFKEQ_clean_linker_1, # of connection points: 2
#     Edge 44, Type (0, 0), BuildingBlock: KIFKEQ_clean_linker_1, # of connection points: 2
#     Edge 45, Type (0, 0), BuildingBlock: KIFKEQ_clean_linker_1, # of connection points: 2
#     Edge 46, Type (0, 0), BuildingBlock: KIFKEQ_clean_linker_1, # of connection points: 2
#     Edge 47, Type (0, 0), BuildingBlock: KIFKEQ_clean_linker_1, # of connection points: 2
#     Edge 48, Type (0, 0), BuildingBlock: KIFKEQ_clean_linker_1, # of connection points: 2
#     Edge 49, Type (0, 0), BuildingBlock: KIFKEQ_clean_linker_1, # of connection points: 2
#     Edge 50, Type (0, 0), BuildingBlock: KIFKEQ_clean_linker_1, # of connection points: 2
#     Edge 51, Type (0, 0), BuildingBlock: KIFKEQ_clean_linker_1, # of connection points: 2
#     Edge 52, Type (0, 0), BuildingBlock: KIFKEQ_clean_linker_1, # of connection points: 2
#     Edge 53, Type (0, 0), BuildingBlock: KIFKEQ_clean_linker_1, # of connection points: 2
#     Edge 54, Type (0, 0), BuildingBlock: KIFKEQ_clean_linker_1, # of connection points: 2
#     Edge 55, Type (0, 0), BuildingBlock: KIFKEQ_clean_linker_1, # of connection points: 2
#     Edge 56, Type (0, 0), BuildingBlock: KIFKEQ_clean_linker_1, # of connection points: 2
#     Edge 57, Type (0, 0), BuildingBlock: KIFKEQ_clean_linker_1, # of connection points: 2
#     Edge 58, Type (0, 0), BuildingBlock: KIFKEQ_clean_linker_1, # of connection points: 2
#     Edge 59, Type (0, 0), BuildingBlock: KIFKEQ_clean_linker_1, # of connection points: 2
#     Edge 60, Type (0, 0), BuildingBlock: KIFKEQ_clean_linker_1, # of connection points: 2
#     Edge 61, Type (0, 0), BuildingBlock: KIFKEQ_clean_linker_1, # of connection points: 2
#     Edge 62, Type (0, 0), BuildingBlock: KIFKEQ_clean_linker_1, # of connection points: 2
#     Edge 63, Type (0, 0), BuildingBlock: KIFKEQ_clean_linker_1, # of connection points: 2
#     Edge 64, Type (0, 0), BuildingBlock: KIFKEQ_clean_linker_1, # of connection points: 2
#     Edge 65, Type (0, 0), BuildingBlock: KIFKEQ_clean_linker_1, # of connection points: 2
#     Edge 66, Type (0, 0), BuildingBlock: KIFKEQ_clean_linker_1, # of connection points: 2
#     Edge 67, Type (0, 0), BuildingBlock: KIFKEQ_clean_linker_1, # of connection points: 2
#     Edge 68, Type (0, 0), BuildingBlock: KIFKEQ_clean_linker_1, # of connection points: 2
#     Edge 69, Type (0, 0), BuildingBlock: KIFKEQ_clean_linker_1, # of connection points: 2
#     Edge 70, Type (0, 0), BuildingBlock: KIFKEQ_clean_linker_1, # of connection points: 2
#     Edge 71, Type (0, 0), BuildingBlock: KIFKEQ_clean_linker_1, # of connection points: 2
#     Edge 72, Type (0, 0), BuildingBlock: KIFKEQ_clean_linker_1, # of connection points: 2
#     Edge 73, Type (0, 0), BuildingBlock: KIFKEQ_clean_linker_1, # of connection points: 2
#     Edge 74, Type (0, 0), BuildingBlock: KIFKEQ_clean_linker_1, # of connection points: 2
#     Edge 75, Type (0, 0), BuildingBlock: KIFKEQ_clean_linker_1, # of connection points: 2
#     Edge 76, Type (0, 0), BuildingBlock: KIFKEQ_clean_linker_1, # of connection points: 2
#     Edge 77, Type (0, 0), BuildingBlock: KIFKEQ_clean_linker_1, # of connection points: 2
#     Edge 78, Type (0, 0), BuildingBlock: KIFKEQ_clean_linker_1, # of connection points: 2
#     Edge 79, Type (0, 0), BuildingBlock: KIFKEQ_clean_linker_1, # of connection points: 2
#     Edge 80, Type (0, 0), BuildingBlock: KIFKEQ_clean_linker_1, # of connection points: 2
#     Edge 81, Type (0, 0), BuildingBlock: KIFKEQ_clean_linker_1, # of connection points: 2
#     Edge 82, Type (0, 0), BuildingBlock: KIFKEQ_clean_linker_1, # of connection points: 2
#     Edge 83, Type (0, 0), BuildingBlock: KIFKEQ_clean_linker_1, # of connection points: 2
#     Edge 84, Type (0, 0), BuildingBlock: KIFKEQ_clean_linker_1, # of connection points: 2
#     Edge 85, Type (0, 0), BuildingBlock: KIFKEQ_clean_linker_1, # of connection points: 2
#     Edge 86, Type (0, 0), BuildingBlock: KIFKEQ_clean_linker_1, # of connection points: 2
#     Edge 87, Type (0, 0), BuildingBlock: KIFKEQ_clean_linker_1, # of connection points: 2
#     Edge 88, Type (0, 0), BuildingBlock: KIFKEQ_clean_linker_1, # of connection points: 2
#     Edge 89, Type (0, 0), BuildingBlock: KIFKEQ_clean_linker_1, # of connection points: 2
#     Edge 90, Type (0, 0), BuildingBlock: KIFKEQ_clean_linker_1, # of connection points: 2
#     Edge 91, Type (0, 0), BuildingBlock: KIFKEQ_clean_linker_1, # of connection points: 2
#     Edge 92, Type (0, 0), BuildingBlock: KIFKEQ_clean_linker_1, # of connection points: 2
#     Edge 93, Type (0, 0), BuildingBlock: KIFKEQ_clean_linker_1, # of connection points: 2
#     Edge 94, Type (0, 0), BuildingBlock: KIFKEQ_clean_linker_1, # of connection points: 2
#     Edge 95, Type (0, 0), BuildingBlock: KIFKEQ_clean_linker_1, # of connection points: 2
# Relax obj value: 0.088
# Max RMSD: 0.108
# Mean RMSD: 0.108
data_MOF--net-umr--node1-QUQFOY_clean_sbu_3--edge1-KIFKEQ_clean_linker_1
_symmetry_space_group_name_H-M    P1
_symmetry_Int_Tables_number       1
_symmetry_cell_setting            triclinic
loop_
_symmetry_equiv_pos_as_xyz
'x, y, z'
_cell_length_a     87.244154
_cell_length_b     87.234016
_cell_length_c     27.476218
_cell_angle_alpha  89.993225
_cell_angle_beta   89.994615
_cell_angle_gamma 89.989517
loop_
_atom_site_label
_atom_site_type_symbol
_atom_site_fract_x
_atom_site_fract_y
_atom_site_fract_z
_atom_type_partial_charge
C0 C 0.15384 0.25335 0.05005 0.0
O1 O 0.15764 0.24458 0.08486 0.0
Cd2 Cd 0.17107 0.2548 0.15175 0.0
O3 O 0.15514 0.26789 0.05404 0.0
Cd4 Cd 0.16186 0.28798 0.11544 0.0
C5 C 0.19718 0.27694 0.08579 0.0
O6 O 0.15354 0.27318 0.18379 0.0
O7 O 0.16878 0.29175 0.20182 0.0
O8 O 0.13786 0.30049 0.09481 0.0
C9 C 0.15964 0.28141 0.21627 0.0
O10 O 0.19366 0.26466 0.10829 0.0
C11 C 0.14308 0.31405 0.09709 0.0
O12 O 0.18781 0.28807 0.0832 0.0
O13 O 0.15732 0.31549 0.1056 0.0
C14 C 0.99162 0.91127 0.30758 0.0
O15 O -0.00047 0.91733 0.34122 0.0
Cd16 Cd 0.98787 0.92824 0.41064 0.0
O17 O 0.97711 0.90985 0.31189 0.0
Cd18 Cd 0.95655 0.91466 0.37314 0.0
C19 C 0.9626 0.95196 0.34911 0.0
O20 O 0.97277 0.90719 0.43903 0.0
O21 O 0.95229 0.91903 0.46135 0.0
O22 O 0.94615 0.88989 0.34926 0.0
C23 C 0.9638 0.91095 0.47302 0.0
O24 O 0.97486 0.95034 0.37376 0.0
C25 C 0.9322 0.89381 0.35363 0.0
O26 O 0.9536 0.94068 0.34269 0.0
O27 O 0.92957 0.90771 0.36454 0.0
C28 C 0.32336 0.74273 0.59122 0.0
O29 O 0.31493 0.74927 0.62263 0.0
Cd30 Cd 0.30395 0.7355 0.68857 0.0
O31 O 0.3265 0.72846 0.59446 0.0
Cd32 Cd 0.32145 0.70606 0.64793 0.0
C33 C 0.28395 0.70982 0.61756 0.0
O34 O 0.32561 0.72155 0.71845 0.0
O35 O 0.3176 0.69876 0.73447 0.0
O36 O 0.34728 0.69819 0.62468 0.0
C37 C 0.32297 0.71135 0.74994 0.0
O38 O 0.28389 0.72144 0.64557 0.0
C39 C 0.34435 0.68393 0.62483 0.0
O40 O 0.29617 0.7021 0.6113 0.0
O41 O 0.33059 0.68005 0.63342 0.0
C42 C 0.49866 0.08091 0.82352 0.0
O43 O 0.49264 0.07171 0.85386 0.0
Cd44 Cd 0.50622 0.06051 0.91999 0.0
O45 O 0.51251 0.08537 0.82851 0.0
Cd46 Cd 0.53417 0.0819 0.88606 0.0
C47 C 0.53475 0.04456 0.85067 0.0
O48 O 0.51791 0.08249 0.95564 0.0
O49 O 0.54113 0.07599 0.97205 0.0
O50 O 0.54144 0.1088 0.87745 0.0
C51 C 0.52791 0.07958 0.98749 0.0
O52 O 0.52318 0.04233 0.87802 0.0
C53 C 0.55552 0.10599 0.86972 0.0
O54 O 0.54055 0.05785 0.84624 0.0
O55 O 0.55947 0.09199 0.8679 0.0
C56 C 0.16187 0.74601 0.40639 0.0
O57 O 0.1686 0.75319 0.37238 0.0
Cd58 Cd 0.17923 0.73976 0.30546 0.0
O59 O 0.15928 0.73164 0.40284 0.0
Cd60 Cd 0.16222 0.71021 0.34379 0.0
C61 C 0.19952 0.71293 0.37294 0.0
O62 O 0.15784 0.72582 0.2739 0.0
O63 O 0.16842 0.70405 0.25785 0.0
O64 O 0.13571 0.70285 0.35792 0.0
C65 C 0.16176 0.71604 0.24238 0.0
O66 O 0.19938 0.72509 0.34719 0.0
C67 C 0.13849 0.68869 0.36372 0.0
O68 O 0.18739 0.70502 0.37823 0.0
O69 O 0.15246 0.68459 0.3622 0.0
C70 C 0.50685 0.92072 0.6545 0.0
O71 O 0.4997 0.92841 0.62252 0.0
Cd72 Cd 0.51256 0.93825 0.55304 0.0
O73 O 0.52101 0.91747 0.64895 0.0
Cd74 Cd 0.54165 0.92128 0.58782 0.0
C75 C 0.53962 0.9589 0.61505 0.0
O76 O 0.52485 0.91563 0.52149 0.0
O77 O 0.54633 0.92576 0.4998 0.0
O78 O 0.55059 0.89572 0.60993 0.0
C79 C 0.53433 0.91846 0.48795 0.0
O80 O 0.52771 0.9593 0.58832 0.0
C81 C 0.56473 0.89894 0.60623 0.0
O82 O 0.5467 0.94636 0.62192 0.0
O83 O 0.5681 0.91273 0.59612 0.0
C84 C 0.33564 0.25312 0.91746 0.0
O85 O 0.33175 0.24441 0.88261 0.0
Cd86 Cd 0.31924 0.25476 0.81418 0.0
O87 O 0.33464 0.26769 0.91338 0.0
Cd88 Cd 0.3283 0.28781 0.85157 0.0
C89 C 0.29254 0.27697 0.87709 0.0
O90 O 0.33763 0.2728 0.7851 0.0
O91 O 0.32298 0.2915 0.76379 0.0
O92 O 0.35203 0.3001 0.87612 0.0
C93 C 0.33235 0.28108 0.75137 0.0
O94 O 0.29621 0.26472 0.85472 0.0
C95 C 0.3471 0.31372 0.87197 0.0
O96 O 0.30198 0.28801 0.88097 0.0
O97 O 0.33307 0.31534 0.86076 0.0
C98 C 0.9857 0.08629 0.17296 0.0
O99 O 0.99386 0.08107 0.13849 0.0
Cd100 Cd 0.98252 0.0697 0.06934 0.0
O101 O 0.97111 0.08681 0.16923 0.0
Cd102 Cd 0.95054 0.08134 0.10851 0.0
C103 C 0.95894 0.04448 0.13201 0.0
O104 O 0.96592 0.0896 0.04147 0.0
O105 O 0.94623 0.07626 0.02079 0.0
O106 O 0.93896 0.10553 0.13284 0.0
C107 C 0.95719 0.08492 0.00801 0.0
O108 O 0.97095 0.04688 0.10673 0.0
C109 C 0.92522 0.10086 0.12951 0.0
O110 O 0.94929 0.05518 0.13902 0.0
O111 O 0.92327 0.08683 0.11878 0.0
C112 C 0.83361 0.73536 0.91933 0.0
O113 O 0.82847 0.74363 0.88503 0.0
Cd114 Cd 0.81703 0.73261 0.81542 0.0
O115 O 0.83411 0.72078 0.91516 0.0
Cd116 Cd 0.82869 0.70048 0.85336 0.0
C117 C 0.7919 0.70879 0.87749 0.0
O118 O 0.83685 0.71604 0.78654 0.0
O119 O 0.82331 0.69648 0.76572 0.0
O120 O 0.8529 0.68866 0.87617 0.0
C121 C 0.83204 0.70739 0.75301 0.0
O122 O 0.79424 0.7209 0.85265 0.0
C123 C 0.84812 0.67495 0.87283 0.0
O124 O 0.80262 0.69912 0.88398 0.0
O125 O 0.83403 0.67312 0.86281 0.0
C126 C 0.00054 0.08365 0.67381 0.0
O127 O 0.99248 0.07776 0.64021 0.0
Cd128 Cd 0.00369 0.06651 0.57064 0.0
O129 O 0.01508 0.08474 0.66944 0.0
Cd130 Cd 0.03534 0.07933 0.60758 0.0
C131 C 0.02841 0.04222 0.63185 0.0
O132 O 0.0193 0.08707 0.54154 0.0
O133 O 0.03935 0.07446 0.51958 0.0
O134 O 0.0468 0.10381 0.62961 0.0
C135 C 0.02811 0.08287 0.50765 0.0
O136 O 0.01618 0.04405 0.60722 0.0
C137 C 0.06056 0.09925 0.62549 0.0
O138 O 0.03762 0.05333 0.6382 0.0
O139 O 0.06257 0.08516 0.61576 0.0
C140 C 0.66704 0.25298 0.39424 0.0
O141 O 0.67496 0.24572 0.36305 0.0
Cd142 Cd 0.6874 0.2585 0.29766 0.0
O143 O 0.6645 0.26732 0.38937 0.0
Cd144 Cd 0.66932 0.28886 0.33203 0.0
C145 C 0.70629 0.28557 0.36781 0.0
O146 O 0.66678 0.27261 0.26283 0.0
O147 O 0.67486 0.29529 0.24547 0.0
O148 O 0.6427 0.29618 0.34296 0.0
C149 C 0.67012 0.28236 0.2306 0.0
O150 O 0.70654 0.27332 0.34261 0.0
C151 C 0.64532 0.31036 0.349 0.0
O152 O 0.69415 0.29363 0.37043 0.0
O153 O 0.65928 0.31454 0.34929 0.0
C154 C 0.49415 0.90692 0.15316 0.0
O155 O 0.50176 0.9132 0.11921 0.0
Cd156 Cd 0.4887 0.9251 0.05371 0.0
O157 O 0.47966 0.90522 0.14942 0.0
Cd158 Cd 0.45844 0.90923 0.09023 0.0
C159 C 0.46278 0.94587 0.12371 0.0
O160 O 0.47359 0.905 0.01918 0.0
O161 O 0.45244 0.91711 0.00575 0.0
O162 O 0.45033 0.88285 0.10133 0.0
C163 C 0.46396 0.91001 -0.01126 0.0
O164 O 0.47496 0.94538 0.09816 0.0
C165 C 0.43626 0.88595 0.10767 0.0
O166 O 0.45421 0.93413 0.12743 0.0
O167 O 0.43253 0.90003 0.10778 0.0
C168 C 0.82503 0.25022 0.5806 0.0
O169 O 0.81731 0.24408 0.61456 0.0
Cd170 Cd 0.80865 0.25823 0.68281 0.0
O171 O 0.82916 0.26424 0.58323 0.0
Cd172 Cd 0.82702 0.28623 0.64079 0.0
C173 C 0.78914 0.28536 0.61595 0.0
O174 O 0.83145 0.27073 0.71088 0.0
O175 O 0.82207 0.29301 0.72722 0.0
O176 O 0.85351 0.29324 0.62431 0.0
C177 C 0.82852 0.28087 0.74233 0.0
O178 O 0.78864 0.27372 0.64391 0.0
C179 C 0.85084 0.30742 0.61831 0.0
O180 O 0.8018 0.29211 0.60778 0.0
O181 O 0.83693 0.31166 0.62058 0.0
C182 C 0.48966 0.07198 0.32859 0.0
O183 O 0.49687 0.06499 0.362 0.0
Cd184 Cd 0.4835 0.05489 0.42992 0.0
O185 O 0.47524 0.07424 0.33185 0.0
Cd186 Cd 0.45363 0.0694 0.38885 0.0
C187 C 0.45889 0.03208 0.36359 0.0
O188 O 0.46867 0.07638 0.45804 0.0
O189 O 0.44769 0.06453 0.47568 0.0
O190 O 0.44455 0.09456 0.36383 0.0
C191 C 0.45885 0.07273 0.48975 0.0
O192 O 0.47057 0.03313 0.39116 0.0
C193 C 0.43041 0.09121 0.36602 0.0
O194 O 0.4505 0.04374 0.35561 0.0
O195 O 0.42706 0.07742 0.37638 0.0
C196 C 0.65877 0.73843 0.05903 0.0
O197 O 0.66438 0.74656 0.09293 0.0
Cd198 Cd 0.67605 0.73524 0.16165 0.0
O199 O 0.65795 0.72387 0.06322 0.0
Cd200 Cd 0.66333 0.70348 0.12482 0.0
C201 C 0.70015 0.71073 0.09822 0.0
O202 O 0.65602 0.71922 0.19218 0.0
O203 O 0.66927 0.69936 0.21207 0.0
O204 O 0.63869 0.69214 0.10404 0.0
C205 C 0.66085 0.71046 0.22536 0.0
O206 O 0.69832 0.72293 0.12305 0.0
C207 C 0.64325 0.67835 0.10696 0.0
O208 O 0.68913 0.70137 0.09254 0.0
O209 O 0.65738 0.67625 0.11581 0.0
C210 C 0.00603 0.90713 0.80775 0.0
O211 O -0.00226 0.91219 0.84213 0.0
Cd212 Cd 0.00866 0.92397 0.91139 0.0
O213 O 0.02062 0.90694 0.81156 0.0
Cd214 Cd 0.04099 0.91295 0.87236 0.0
C215 C 0.03179 0.94955 0.84857 0.0
O216 O 0.02583 0.90462 0.93986 0.0
O217 O 0.04533 0.91841 0.95966 0.0
O218 O 0.05328 0.889 0.84945 0.0
C219 C 0.03454 0.90961 0.97296 0.0
O220 O 0.01979 0.94699 0.87376 0.0
C221 C 0.06687 0.89414 0.852 0.0
O222 O 0.04164 0.93903 0.84178 0.0
O223 O 0.06839 0.9083 0.86162 0.0
C224 C 0.66264 0.75498 0.55839 0.0
O225 O 0.67003 0.74773 0.59085 0.0
Cd226 Cd 0.68014 0.75981 0.66107 0.0
O227 O 0.65969 0.76924 0.56335 0.0
Cd228 Cd 0.66402 0.78967 0.62514 0.0
C229 C 0.70174 0.78628 0.59976 0.0
O230 O 0.65788 0.77289 0.69104 0.0
O231 O 0.66872 0.7939 0.71341 0.0
O232 O 0.63898 0.80028 0.60389 0.0
C233 C 0.66124 0.78199 0.7251 0.0
O234 O 0.70174 0.77447 0.627 0.0
C235 C 0.6432 0.81417 0.60737 0.0
O236 O 0.68941 0.79361 0.59185 0.0
O237 O 0.65723 0.81657 0.61696 0.0
C238 C 0.48381 0.41891 0.80548 0.0
O239 O 0.49106 0.42658 0.8373 0.0
Cd240 Cd 0.479 0.43653 0.90782 0.0
O241 O 0.46964 0.41571 0.81127 0.0
Cd242 Cd 0.44939 0.4199 0.87397 0.0
C243 C 0.45186 0.45762 0.84784 0.0
O244 O 0.4667 0.41393 0.93869 0.0
O245 O 0.4456 0.42426 0.96274 0.0
O246 O 0.4395 0.39459 0.85308 0.0
C247 C 0.45767 0.41687 0.97333 0.0
O248 O 0.46382 0.45782 0.87434 0.0
C249 C 0.42548 0.39822 0.85795 0.0
O250 O 0.44467 0.44517 0.84052 0.0
O251 O 0.42259 0.41213 0.8679 0.0
C252 C 0.82283 0.23865 0.07655 0.0
O253 O 0.81573 0.24642 0.10847 0.0
Cd254 Cd 0.80305 0.23464 0.1749 0.0
O255 O 0.82449 0.22416 0.08124 0.0
Cd256 Cd 0.81879 0.20311 0.14014 0.0
C257 C 0.78203 0.20872 0.10619 0.0
O258 O 0.82336 0.21965 0.20773 0.0
O259 O 0.81375 0.19785 0.22781 0.0
O260 O 0.84432 0.19359 0.12085 0.0
C261 C 0.81964 0.21045 0.24112 0.0
O262 O 0.78277 0.22104 0.13095 0.0
C263 C 0.84072 0.17951 0.12302 0.0
O264 O 0.79354 0.1998 0.10341 0.0
O265 O 0.82671 0.17641 0.13083 0.0
C266 C -0.00082 0.58171 0.32072 0.0
O267 O 0.99343 0.57238 0.35117 0.0
Cd268 Cd 0.0068 0.56199 0.41897 0.0
O269 O 0.0128 0.58681 0.32607 0.0
Cd270 Cd 0.03421 0.58422 0.38533 0.0
C271 C 0.03627 0.54661 0.3527 0.0
O272 O 0.01736 0.58469 0.45351 0.0
O273 O 0.04063 0.57921 0.47246 0.0
O274 O 0.04148 0.61116 0.37602 0.0
C275 C 0.02714 0.58238 0.48647 0.0
O276 O 0.02462 0.5441 0.37949 0.0
C277 C 0.05559 0.60829 0.36897 0.0
O278 O 0.04156 0.5601 0.34781 0.0
O279 O 0.05951 0.59428 0.36779 0.0
C280 C 0.66218 0.24513 0.88937 0.0
O281 O 0.66958 0.25131 0.85478 0.0
Cd282 Cd 0.67865 0.23657 0.78817 0.0
O283 O 0.65851 0.23097 0.88765 0.0
Cd284 Cd 0.66089 0.2086 0.83191 0.0
C285 C 0.69855 0.2104 0.85795 0.0
O286 O 0.65643 0.22308 0.75956 0.0
O287 O 0.66666 0.20091 0.74698 0.0
O288 O 0.63442 0.20137 0.84819 0.0
C289 C 0.65992 0.21261 0.72978 0.0
O290 O 0.69886 0.22189 0.82935 0.0
C291 C 0.63734 0.18734 0.85617 0.0
O292 O 0.68605 0.20336 0.86604 0.0
O293 O 0.65133 0.18333 0.85484 0.0
C294 C 0.00995 0.42328 0.16228 0.0
O295 O 0.00271 0.43108 0.13074 0.0
Cd296 Cd 0.01492 0.44062 0.05981 0.0
O297 O 0.02403 0.4198 0.15582 0.0
Cd298 Cd 0.04418 0.42342 0.09265 0.0
C299 C 0.04268 0.46117 0.11878 0.0
O300 O 0.0265 0.41761 0.02875 0.0
O301 O 0.04786 0.42715 0.00364 0.0
O302 O 0.0533 0.39797 0.11506 0.0
C303 C 0.03558 0.42001 -0.00618 0.0
O304 O 0.03057 0.4616 0.09298 0.0
C305 C 0.06741 0.40107 0.10925 0.0
O306 O 0.04969 0.44858 0.12549 0.0
O307 O 0.07072 0.41479 0.09798 0.0
C308 C 0.83154 0.75241 0.42116 0.0
O309 O 0.82372 0.74534 0.38933 0.0
Cd310 Cd 0.81334 0.75746 0.3197 0.0
O311 O 0.83478 0.7666 0.41593 0.0
Cd312 Cd 0.83033 0.78698 0.35385 0.0
C313 C 0.79273 0.78452 0.38182 0.0
O314 O 0.83567 0.76992 0.28799 0.0
O315 O 0.82499 0.79101 0.26577 0.0
O316 O 0.85572 0.7973 0.37217 0.0
C317 C 0.83222 0.77896 0.25392 0.0
O318 O 0.79229 0.77269 0.3547 0.0
C319 C 0.85167 0.81124 0.36838 0.0
O320 O 0.80528 0.79155 0.38896 0.0
O321 O 0.83759 0.81381 0.36026 0.0
C322 C 0.48889 0.5846 0.66324 0.0
O323 O 0.49551 0.57622 0.63181 0.0
Cd324 Cd 0.48338 0.56574 0.56208 0.0
O325 O 0.4749 0.5886 0.65803 0.0
Cd326 Cd 0.45407 0.58493 0.59697 0.0
C327 C 0.45522 0.54698 0.6252 0.0
O328 O 0.47137 0.58812 0.53023 0.0
O329 O 0.4489 0.58069 0.50878 0.0
O330 O 0.4442 0.61063 0.61554 0.0
C331 C 0.46206 0.5854 0.49624 0.0
O332 O 0.46706 0.54582 0.59832 0.0
C333 C 0.43022 0.60656 0.61354 0.0
O334 O 0.44878 0.55989 0.63171 0.0
O335 O 0.42755 0.59246 0.606 0.0
C336 C 0.33409 0.23657 0.41926 0.0
O337 O 0.32646 0.24368 0.38703 0.0
Cd338 Cd 0.31627 0.23178 0.31678 0.0
O339 O 0.33724 0.22235 0.41434 0.0
Cd340 Cd 0.33278 0.20196 0.35235 0.0
C341 C 0.29502 0.20504 0.37798 0.0
O342 O 0.33862 0.21896 0.28678 0.0
O343 O 0.32803 0.1979 0.26401 0.0
O344 O 0.35778 0.19091 0.37228 0.0
C345 C 0.33529 0.20996 0.2525 0.0
O346 O 0.29483 0.21685 0.35073 0.0
C347 C 0.35328 0.1771 0.36865 0.0
O348 O 0.30745 0.19789 0.38582 0.0
O349 O 0.33917 0.17498 0.35974 0.0
C350 C 0.50399 0.57728 0.15902 0.0
O351 O 0.49646 0.57054 0.1258 0.0
Cd352 Cd 0.50848 0.56043 0.05573 0.0
O353 O 0.51843 0.57935 0.15497 0.0
Cd354 Cd 0.53934 0.5741 0.09519 0.0
C355 C 0.53321 0.53666 0.11818 0.0
O356 O 0.52349 0.58178 0.02859 0.0
O357 O 0.54396 0.56976 0.00702 0.0
O358 O 0.5498 0.59872 0.12018 0.0
C359 C 0.53264 0.57807 -0.00498 0.0
O360 O 0.52134 0.53818 0.09167 0.0
C361 C 0.56375 0.59479 0.1161 0.0
O362 O 0.54193 0.54806 0.12635 0.0
O363 O 0.56638 0.58093 0.10473 0.0
C364 C 0.16962 0.758 0.9064 0.0
O365 O 0.17539 0.74993 0.87262 0.0
Cd366 Cd 0.18687 0.76201 0.80467 0.0
O367 O 0.16869 0.77256 0.90217 0.0
Cd368 Cd 0.17391 0.79332 0.84199 0.0
C369 C 0.2106 0.78644 0.86981 0.0
O370 O 0.16637 0.77769 0.77478 0.0
O371 O 0.17911 0.79788 0.75442 0.0
O372 O 0.1491 0.80336 0.86599 0.0
C373 C 0.17058 0.78681 0.74167 0.0
O374 O 0.20883 0.77428 0.84476 0.0
C375 C 0.15278 0.81738 0.86204 0.0
O376 O 0.19958 0.79584 0.87502 0.0
O377 O 0.16663 0.82028 0.85114 0.0
C378 C 0.99402 0.40543 0.66133 0.0
O379 O 0.00193 0.41147 0.62763 0.0
Cd380 Cd 0.98983 0.42369 0.561 0.0
O381 O 0.97952 0.40398 0.6569 0.0
Cd382 Cd 0.95889 0.40836 0.59549 0.0
C383 C 0.96375 0.44501 0.62864 0.0
O384 O 0.97451 0.40402 0.52539 0.0
O385 O 0.95381 0.41672 0.51087 0.0
O386 O 0.94951 0.38226 0.60409 0.0
C387 C 0.96533 0.40951 0.49438 0.0
O388 O 0.97611 0.44429 0.604 0.0
C389 C 0.93558 0.38598 0.61016 0.0
O390 O 0.95498 0.43341 0.63198 0.0
O391 O 0.93254 0.40022 0.61141 0.0
C392 C 0.33146 0.74542 0.09139 0.0
O393 O 0.32313 0.73946 0.12424 0.0
Cd394 Cd 0.31266 0.75381 0.18965 0.0
O395 O 0.33532 0.75953 0.09345 0.0
Cd396 Cd 0.33193 0.78223 0.14728 0.0
C397 C 0.29431 0.78032 0.117 0.0
O398 O 0.33448 0.76737 0.21942 0.0
O399 O 0.32696 0.7905 0.2325 0.0
O400 O 0.35845 0.78978 0.13324 0.0
C401 C 0.33155 0.77782 0.24978 0.0
O402 O 0.29346 0.76873 0.1451 0.0
C403 C 0.35533 0.80369 0.12387 0.0
O404 O 0.30696 0.78731 0.11108 0.0
O405 O 0.34127 0.80743 0.12344 0.0
C406 C 0.98681 0.57374 0.82555 0.0
O407 O 0.99437 0.56717 0.85904 0.0
Cd408 Cd 0.98191 0.55668 0.92791 0.0
O409 O 0.97231 0.57546 0.82911 0.0
Cd410 Cd 0.95114 0.56993 0.88757 0.0
C411 C 0.9579 0.53276 0.86313 0.0
O412 O 0.96636 0.57764 0.9556 0.0
O413 O 0.94603 0.56501 0.97507 0.0
O414 O 0.94081 0.59459 0.86267 0.0
C415 C 0.957 0.57359 0.98821 0.0
O416 O 0.96964 0.53438 0.8902 0.0
C417 C 0.92683 0.59067 0.86583 0.0
O418 O 0.94901 0.54404 0.85514 0.0
O419 O 0.92413 0.57678 0.87666 0.0
C420 C 0.16494 0.23677 0.54916 0.0
O421 O 0.17268 0.24394 0.58101 0.0
Cd422 Cd 0.18239 0.23208 0.6521 0.0
O423 O 0.16157 0.22264 0.55487 0.0
Cd424 Cd 0.16561 0.20245 0.61762 0.0
C425 C 0.20347 0.20477 0.59303 0.0
O426 O 0.15955 0.21997 0.68153 0.0
O427 O 0.16941 0.19877 0.70662 0.0
O428 O 0.14038 0.19242 0.59631 0.0
C429 C 0.16218 0.21099 0.71653 0.0
O430 O 0.20367 0.21671 0.61964 0.0
C431 C 0.14408 0.17844 0.60189 0.0
O432 O 0.19099 0.19769 0.58514 0.0
O433 O 0.15799 0.17567 0.61212 0.0
C434 C 0.5005 0.40676 0.30682 0.0
O435 O 0.49262 0.41255 0.34101 0.0
Cd436 Cd 0.50459 0.42402 0.40914 0.0
O437 O 0.51502 0.40534 0.31093 0.0
Cd438 Cd 0.53569 0.40958 0.37242 0.0
C439 C 0.53021 0.44663 0.34433 0.0
O440 O 0.52009 0.40396 0.44168 0.0
O441 O 0.54059 0.41668 0.45844 0.0
O442 O 0.54558 0.38383 0.36002 0.0
C443 C 0.52917 0.40905 0.47364 0.0
O444 O 0.51794 0.44542 0.36921 0.0
C445 C 0.55946 0.38787 0.3549 0.0
O446 O 0.53909 0.43518 0.33908 0.0
O447 O 0.56225 0.40216 0.35584 0.0
H448 H 0.27913 0.25328 0.92355 0.0
H449 H 0.27374 0.30158 0.89476 0.0
H450 H 0.25691 0.2537 0.97599 0.0
H451 H 0.25042 0.3019 0.94407 0.0
H452 H 0.21656 0.3012 0.07034 0.0
H453 H 0.23964 0.30152 0.01991 0.0
H454 H 0.23132 0.25414 0.98064 0.0
H455 H 0.20936 0.25364 0.03426 0.0
C456 C 0.27286 0.26394 0.92744 0.0
C457 C 0.27804 0.27736 0.90472 0.0
C458 C 0.25998 0.2642 0.95743 0.0
C459 C 0.25155 0.27781 0.96429 0.0
C460 C 0.25666 0.29124 0.94065 0.0
C461 C 0.26991 0.29106 0.91181 0.0
C462 C 0.21993 0.29084 0.05136 0.0
C463 C 0.2114 0.27732 0.05683 0.0
C464 C 0.23304 0.29104 0.02187 0.0
C465 C 0.23759 0.27782 -0.00403 0.0
C466 C 0.22869 0.26443 0.00097 0.0
C467 C 0.21597 0.26412 0.03162 0.0
H468 H 0.93742 0.96029 0.29512 0.0
H469 H 0.98205 0.97633 0.34091 0.0
H470 H 0.93512 0.9824 0.24065 0.0
H471 H 0.97971 -0.0018 0.28644 0.0
H472 H 0.97987 0.02131 0.13844 0.0
H473 H 0.9793 -0.00065 0.19297 0.0
H474 H 0.93421 0.01242 0.2424 0.0
H475 H 0.93473 0.03463 0.18786 0.0
C476 C 0.94662 0.96862 0.29418 0.0
C477 C 0.95997 0.96646 0.32217 0.0
C478 C 0.94529 0.98125 0.26298 0.0
C479 C 0.95735 0.99182 0.25879 0.0
C480 C 0.97036 0.99005 0.28836 0.0
C481 C 0.97162 0.97757 0.31988 0.0
C482 C 0.96971 0.01944 0.16029 0.0
C483 C 0.95739 0.02984 0.159 0.0
C484 C 0.96945 0.00691 0.19184 0.0
C485 C 0.95682 0.00436 0.22245 0.0
C486 C 0.94411 0.01418 0.21926 0.0
C487 C 0.94442 0.02687 0.18801 0.0
H488 H 0.20507 0.68734 0.42881 0.0
H489 H 0.2248 0.73082 0.38634 0.0
H490 H 0.22546 0.68411 0.48954 0.0
H491 H 0.24478 0.72761 0.44737 0.0
H492 H 0.25811 0.72724 0.61018 0.0
H493 H 0.23836 0.72569 0.54791 0.0
H494 H 0.25904 0.68458 0.49071 0.0
H495 H 0.27925 0.68619 0.55274 0.0
C496 C 0.21387 0.69605 0.4317 0.0
C497 C 0.21322 0.70941 0.40293 0.0
C498 C 0.2255 0.69417 0.46643 0.0
C499 C 0.23647 0.70572 0.47329 0.0
C500 C 0.23632 0.71863 0.44288 0.0
C501 C 0.2249 0.7204 0.4078 0.0
C502 C 0.25839 0.71768 0.58506 0.0
C503 C 0.2704 0.70692 0.58624 0.0
C504 C 0.24709 0.71686 0.54928 0.0
C505 C 0.24737 0.70515 0.51438 0.0
C506 C 0.25868 0.69374 0.5173 0.0
C507 C 0.27019 0.69468 0.55281 0.0
H508 H 0.54987 0.04722 0.7642 0.0
H509 H 0.53117 0.01369 0.8636 0.0
H510 H 0.55459 0.027 0.70441 0.0
H511 H 0.53623 0.99348 0.80409 0.0
H512 H 0.55705 0.95958 0.69744 0.0
H513 H 0.55933 0.98067 0.75537 0.0
H514 H 0.53361 0.00993 0.65861 0.0
H515 H 0.531 0.98876 0.60082 0.0
C516 C 0.54715 0.03549 0.77382 0.0
C517 C 0.54009 0.03204 0.81857 0.0
C518 C 0.54977 0.02397 0.73947 0.0
C519 C 0.54574 0.00874 0.74971 0.0
C520 C 0.53954 0.00514 0.79551 0.0
C521 C 0.53661 0.0167 0.82946 0.0
C522 C 0.55218 0.97061 0.68787 0.0
C523 C 0.54373 0.97247 0.64464 0.0
C524 C 0.55344 0.98263 0.72121 0.0
C525 C 0.54657 -0.00317 0.71149 0.0
C526 C 0.53908 -0.00093 0.66679 0.0
C527 C 0.53755 0.98696 0.6338 0.0
H528 H 0.72387 0.73091 0.08827 0.0
H529 H 0.70886 0.68578 0.04391 0.0
H530 H 0.74551 0.7291 0.0327 0.0
H531 H 0.73069 0.68403 0.98826 0.0
H532 H 0.78234 0.68439 0.9329 0.0
H533 H 0.76034 0.68361 0.98809 0.0
H534 H 0.7468 0.72872 0.94005 0.0
H535 H 0.76862 0.72957 0.88494 0.0
C536 C 0.72529 0.7205 0.06727 0.0
C537 C 0.71454 0.70853 0.07036 0.0
C538 C 0.73763 0.71954 0.0351 0.0
C539 C 0.73961 0.70654 0.00562 0.0
C540 C 0.72939 0.6942 0.0105 0.0
C541 C 0.71691 0.69522 0.04238 0.0
C542 C 0.77453 0.69404 0.9335 0.0
C543 C 0.77733 0.7071 0.90472 0.0
C544 C 0.76195 0.69357 0.96512 0.0
C545 C 0.75206 0.70622 0.96891 0.0
C546 C 0.75443 0.71894 0.9385 0.0
C547 C 0.76687 0.71935 0.9066 0.0
H548 H 0.01051 0.97239 0.84127 0.0
H549 H 0.056 0.9597 0.79347 0.0
H550 H 0.01099 0.9944 0.78684 0.0
H551 H 0.05642 0.98188 0.73896 0.0
H552 H 0.05346 0.03358 0.68576 0.0
H553 H 0.05551 0.01146 0.74015 0.0
H554 H 0.01073 0.99617 0.69437 0.0
H555 H 0.00862 0.01811 0.64007 0.0
C556 C 0.02071 0.9744 0.81976 0.0
C557 C 0.03317 0.96419 0.82153 0.0
C558 C 0.02092 0.98694 0.78825 0.0
C559 C 0.03364 0.98967 0.75813 0.0
C560 C 0.04646 0.98 0.76173 0.0
C561 C 0.0462 0.96732 0.79295 0.0
C562 C 0.04416 0.02537 0.68671 0.0
C563 C 0.03083 0.02769 0.65878 0.0
C564 C 0.04534 0.01272 0.71787 0.0
C565 C 0.03316 0.00228 0.72204 0.0
C566 C 0.02017 0.00422 0.69252 0.0
C567 C 0.01904 0.01673 0.66108 0.0
H568 H 0.7319 0.26822 0.38186 0.0
H569 H 0.71035 0.31043 0.42831 0.0
H570 H 0.75103 0.27106 0.44565 0.0
H571 H 0.72993 0.3133 0.49191 0.0
H572 H 0.78556 0.30937 0.55207 0.0
H573 H 0.7653 0.3122 0.49079 0.0
H574 H 0.74207 0.27275 0.54972 0.0
H575 H 0.76196 0.26995 0.61134 0.0
C576 C 0.7314 0.27828 0.40487 0.0
C577 C 0.71946 0.28902 0.40015 0.0
C578 C 0.74234 0.27985 0.4415 0.0
C579 C 0.74176 0.29229 0.47369 0.0
C580 C 0.73051 0.3036 0.46737 0.0
C581 C 0.71937 0.30194 0.43098 0.0
C582 C 0.77591 0.30155 0.55286 0.0
C583 C 0.77548 0.28932 0.58634 0.0
C584 C 0.76436 0.30321 0.51781 0.0
C585 C 0.75233 0.29259 0.51557 0.0
C586 C 0.75134 0.28102 0.55083 0.0
C587 C 0.76272 0.27947 0.58615 0.0
H588 H 0.48206 0.96979 0.14155 0.0
H589 H 0.43702 0.95246 0.17753 0.0
H590 H 0.47918 0.98978 0.20261 0.0
H591 H 0.43414 0.97281 0.23847 0.0
H592 H 0.43509 0.02504 0.30189 0.0
H593 H 0.43426 0.00408 0.24252 0.0
H594 H 0.47701 0.98663 0.29862 0.0
H595 H 0.47784 0.00726 0.35816 0.0
C596 C 0.47142 0.97039 0.16177 0.0
C597 C 0.45981 0.95943 0.15481 0.0
C598 C 0.46984 0.98178 0.19702 0.0
C599 C 0.45654 0.98264 0.22563 0.0
C600 C 0.44453 0.97231 0.21693 0.0
C601 C 0.44619 0.9607 0.18205 0.0
C602 C 0.44413 0.01654 0.3023 0.0
C603 C 0.45661 0.01794 0.3345 0.0
C604 C 0.44364 0.00458 0.2683 0.0
C605 C 0.45571 0.99397 0.26559 0.0
C606 C 0.46769 0.99484 0.29957 0.0
C607 C 0.46808 0.00661 0.33388 0.0
H608 H 0.73148 0.77841 0.61947 0.0
H609 H 0.70327 0.80234 0.51482 0.0
H610 H 0.75361 0.78125 0.56539 0.0
H611 H 0.72531 0.80478 0.46052 0.0
H612 H 0.76269 0.77779 0.36274 0.0
H613 H 0.74077 0.78151 0.41712 0.0
H614 H 0.77015 0.80376 0.52178 0.0
H615 H 0.79202 0.80043 0.46715 0.0
C616 C 0.73007 0.7845 0.5854 0.0
C617 C 0.71563 0.79012 0.5714 0.0
C618 C 0.74271 0.78614 0.55456 0.0
C619 C 0.74107 0.79316 0.50882 0.0
C620 C 0.72681 0.79929 0.49558 0.0
C621 C 0.71425 0.79796 0.52683 0.0
C622 C 0.7644 0.78377 0.39685 0.0
C623 C 0.77907 0.78879 0.41066 0.0
C624 C 0.75188 0.78592 0.42786 0.0
C625 C 0.75387 0.79285 0.47358 0.0
C626 C 0.76839 0.79835 0.48672 0.0
C627 C 0.78084 0.79651 0.45529 0.0
H628 H 0.43534 0.45879 0.76369 0.0
H629 H 0.45962 0.48746 0.86619 0.0
H630 H 0.43288 0.48054 0.70823 0.0
H631 H 0.45679 0.50929 0.81095 0.0
H632 H 0.43915 0.5474 0.71029 0.0
H633 H 0.43499 0.52602 0.76625 0.0
H634 H 0.45609 0.49517 0.66342 0.0
H635 H 0.46063 0.51658 0.60772 0.0
C636 C 0.43977 0.46982 0.77503 0.0
C637 C 0.44776 0.4714 0.81926 0.0
C638 C 0.43843 0.48222 0.74311 0.0
C639 C 0.44471 0.4965 0.75534 0.0
C640 C 0.45178 0.49838 0.80088 0.0
C641 C 0.45342 0.4859 0.83239 0.0
C642 C 0.44262 0.53601 0.6991 0.0
C643 C 0.45028 0.53367 0.65463 0.0
C644 C 0.4403 0.52382 0.73128 0.0
C645 C 0.44526 0.50902 0.71909 0.0
C646 C 0.45208 0.50649 0.67346 0.0
C647 C 0.4547 0.51873 0.64169 0.0
H648 H 0.70301 0.18602 0.91979 0.0
H649 H 0.72483 0.22717 0.86576 0.0
H650 H 0.72322 0.18344 0.9813 0.0
H651 H 0.74468 0.22462 0.92754 0.0
H652 H 0.7584 0.2284 0.08892 0.0
H653 H 0.73902 0.22652 0.02557 0.0
H654 H 0.75559 0.18159 0.98662 0.0
H655 H 0.77541 0.18348 0.04981 0.0
C656 C 0.71225 0.19432 0.9203 0.0
C657 C 0.7122 0.20689 0.88812 0.0
C658 C 0.72377 0.19282 0.9555 0.0
C659 C 0.73528 0.20398 0.9594 0.0
C660 C 0.73578 0.21598 0.92546 0.0
C661 C 0.72444 0.21736 0.88993 0.0
C662 C 0.75783 0.21798 0.06758 0.0
C663 C 0.76858 0.20614 0.07425 0.0
C664 C 0.74679 0.21697 0.03108 0.0
C665 C 0.74604 0.20403 0.00093 0.0
C666 C 0.75605 0.19172 0.00939 0.0
C667 C 0.76733 0.19281 0.04557 0.0
H668 H 0.03441 0.49108 0.10392 0.0
H669 H 0.06024 0.46183 0.20089 0.0
H670 H 0.03703 0.51224 0.16168 0.0
H671 H 0.06253 0.48292 0.25883 0.0
H672 H 0.03338 0.51568 0.36595 0.0
H673 H 0.03923 0.49554 0.30693 0.0
H674 H 0.05765 0.52936 0.20838 0.0
H675 H 0.05214 0.54951 0.26767 0.0
C676 C 0.04095 0.48927 0.13695 0.0
C677 C 0.04702 0.47475 0.14794 0.0
C678 C 0.04248 0.50138 0.16992 0.0
C679 C 0.04987 0.49911 0.21477 0.0
C680 C 0.05672 0.48489 0.22455 0.0
C681 C 0.05546 0.47287 0.1912 0.0
C682 C 0.03902 0.51877 0.33223 0.0
C683 C 0.04224 0.53417 0.32141 0.0
C684 C 0.04242 0.50725 0.29856 0.0
C685 C 0.04882 0.51096 0.25314 0.0
C686 C 0.05268 0.52625 0.24315 0.0
C687 C 0.04958 0.53773 0.27722 0.0
H688 H 0.26515 0.21237 0.3581 0.0
H689 H 0.29373 0.18886 0.46272 0.0
H690 H 0.243 0.20887 0.41169 0.0
H691 H 0.27165 0.18575 0.51652 0.0
H692 H 0.23333 0.21178 0.61375 0.0
H693 H 0.25551 0.20851 0.56017 0.0
H694 H 0.22693 0.18582 0.45426 0.0
H695 H 0.20481 0.18869 0.50808 0.0
C696 C 0.26665 0.20624 0.39207 0.0
C697 C 0.28118 0.20092 0.40619 0.0
C698 C 0.25399 0.20421 0.42261 0.0
C699 C 0.25571 0.19711 0.46817 0.0
C700 C 0.27009 0.1913 0.48158 0.0
C701 C 0.28267 0.19302 0.45062 0.0
C702 C 0.23186 0.20577 0.57957 0.0
C703 C 0.21733 0.20052 0.56513 0.0
C704 C 0.24454 0.20388 0.54901 0.0
C705 C 0.24283 0.19699 0.50312 0.0
C706 C 0.22847 0.1912 0.48945 0.0
C707 C 0.21587 0.19278 0.52043 0.0
H708 H 0.51065 0.47067 0.33133 0.0
H709 H 0.55579 0.45449 0.29142 0.0
H710 H 0.51322 0.49179 0.27407 0.0
H711 H 0.55835 0.47593 0.23427 0.0
H712 H 0.5572 0.52867 0.17805 0.0
H713 H 0.55816 0.50692 0.23448 0.0
H714 H 0.51496 0.49061 0.17845 0.0
H715 H 0.51398 0.51203 0.12187 0.0
C716 C 0.52124 0.47175 0.31105 0.0
C717 C 0.53297 0.46079 0.31575 0.0
C718 C 0.52264 0.48379 0.27798 0.0
C719 C 0.53587 0.4853 0.24931 0.0
C720 C 0.54801 0.47495 0.2559 0.0
C721 C 0.54653 0.46271 0.2886 0.0
C722 C 0.54806 0.52027 0.17705 0.0
C723 C 0.53544 0.5222 0.1457 0.0
C724 C 0.54863 0.50785 0.20938 0.0
C725 C 0.5365 0.49731 0.21128 0.0
C726 C 0.52433 0.49876 0.17818 0.0
C727 C 0.52385 0.51099 0.14554 0.0
H728 H 0.26819 0.76366 0.10409 0.0
H729 H 0.29075 0.80521 0.05666 0.0
H730 H 0.24887 0.76707 0.04113 0.0
H731 H 0.27107 0.80866 -0.00615 0.0
H732 H 0.21915 0.81106 0.92609 0.0
H733 H 0.23952 0.81156 0.98755 0.0
H734 H 0.25359 0.76617 0.94428 0.0
H735 H 0.23358 0.76563 0.88262 0.0
C736 C 0.26887 0.7737 0.08099 0.0
C737 C 0.28112 0.78409 0.08521 0.0
C738 C 0.25786 0.77557 0.04471 0.0
C739 C 0.25869 0.78798 0.01233 0.0
C740 C 0.27028 0.79896 0.01835 0.0
C741 C 0.28149 0.79697 0.0543 0.0
C742 C 0.22682 0.80133 0.92891 0.0
C743 C 0.22462 0.78824 0.89971 0.0
C744 C 0.23843 0.80164 0.96411 0.0
C745 C 0.24786 0.78879 0.97102 0.0
C746 C 0.24628 0.77612 0.94001 0.0
C747 C 0.23487 0.77588 0.90448 0.0
H748 H 0.93773 0.45199 0.68056 0.0
H749 H 0.98308 0.4689 0.64664 0.0
H750 H 0.93453 0.4727 0.74005 0.0
H751 H 0.97987 0.48929 0.70619 0.0
H752 H 0.97758 0.50847 0.8592 0.0
H753 H 0.97737 0.48746 0.801 0.0
H754 H 0.93425 0.50343 0.74327 0.0
H755 H 0.93443 0.52474 0.80136 0.0
C756 C 0.94691 0.46022 0.68523 0.0
C757 C 0.9607 0.45873 0.65899 0.0
C758 C 0.94506 0.47203 0.71928 0.0
C759 C 0.95705 0.48238 0.72816 0.0
C760 C 0.97055 0.48128 0.70054 0.0
C761 C 0.97232 0.46966 0.66613 0.0
C762 C 0.96788 0.50742 0.83481 0.0
C763 C 0.9561 0.51843 0.83467 0.0
C764 C 0.96784 0.49543 0.80124 0.0
C765 C 0.95594 0.49403 0.76719 0.0
C766 C 0.94359 0.50433 0.76909 0.0
C767 C 0.94371 0.5165 0.80238 0.0
H768 H 0.1503 0.26806 0.96313 0.0
H769 H 0.14923 0.22306 0.02908 0.0
H770 H 0.14968 0.25641 0.883 0.0
H771 H 0.14819 0.21139 0.94858 0.0
H772 H 0.14176 0.23283 0.74269 0.0
H773 H 0.13574 0.24182 0.82418 0.0
H774 H 0.16707 0.20843 0.88442 0.0
H775 H 0.1727 0.19905 0.80252 0.0
C776 C 0.1495 0.2557 0.96059 0.0
C777 C 0.15005 0.24649 0.00245 0.0
C778 C 0.14909 0.24899 0.91456 0.0
C779 C 0.1491 0.23295 0.90945 0.0
C780 C 0.14851 0.22377 0.95138 0.0
C781 C 0.14899 0.23048 -0.00254 0.0
C782 C 0.14727 0.22731 0.77339 0.0
C783 C 0.15788 0.2154 0.76638 0.0
C784 C 0.14382 0.23248 0.82004 0.0
C785 C 0.15104 0.22597 0.8607 0.0
C786 C 0.16119 0.21359 0.85383 0.0
C787 C 0.16452 0.20829 0.80699 0.0
H788 H 0.01555 0.88786 0.00924 0.0
H789 H 0.04485 0.92539 0.05252 0.0
H790 H 0.00682 0.88499 0.09283 0.0
H791 H 0.03572 0.92288 0.1361 0.0
H792 H 0.02233 0.91066 0.28819 0.0
H793 H 0.03457 0.90743 0.20916 0.0
H794 H 0.99019 0.90001 0.14332 0.0
H795 H 0.97801 0.90281 0.22229 0.0
C796 C 0.02018 0.89545 0.03677 0.0
C797 C 0.0307 0.907 0.02441 0.0
C798 C 0.01514 0.89383 0.08458 0.0
C799 C 0.02041 0.90383 0.12094 0.0
C800 C 0.03153 0.9149 0.10899 0.0
C801 C 0.0367 0.91642 0.06111 0.0
C802 C 0.01521 0.90809 0.25695 0.0
C803 C -0.00082 0.90716 0.26137 0.0
C804 C 0.02223 0.90633 0.21167 0.0
C805 C 0.01335 0.90363 0.16994 0.0
C806 C -0.00261 0.90191 0.17484 0.0
C807 C 0.99039 0.9036 0.22012 0.0
H808 H 0.34726 0.73625 0.53086 0.0
H809 H 0.31017 0.76832 0.55284 0.0
H810 H 0.35221 0.74741 0.45114 0.0
H811 H 0.31457 0.77898 0.47226 0.0
H812 H 0.32826 0.79811 0.32555 0.0
H813 H 0.3297 0.79228 0.41268 0.0
H814 H 0.33803 0.7446 0.3784 0.0
H815 H 0.33714 0.75048 0.2926 0.0
C816 C 0.34029 0.74581 0.51883 0.0
C817 C 0.32817 0.75124 0.54755 0.0
C818 C 0.34306 0.75216 0.47312 0.0
C819 C 0.33353 0.76383 0.45483 0.0
C820 C 0.32217 0.77005 0.48522 0.0
C821 C 0.31958 0.76388 0.53135 0.0
C822 C 0.33051 0.78643 0.33692 0.0
C823 C 0.33253 0.77474 0.30238 0.0
C824 C 0.33133 0.78309 0.38669 0.0
C825 C 0.33411 0.768 0.40255 0.0
C826 C 0.33628 0.75642 0.36768 0.0
C827 C 0.33557 0.75977 0.3183 0.0
H828 H 0.4681 0.07691 0.80516 0.0
H829 H 0.51018 0.09312 0.73999 0.0
H830 H 0.45544 0.07832 0.72621 0.0
H831 H 0.49783 0.09388 0.66122 0.0
H832 H 0.44933 0.05745 0.57115 0.0
H833 H 0.45658 0.06305 0.65507 0.0
H834 H 0.47998 0.10406 0.60685 0.0
H835 H 0.47347 0.09789 0.52305 0.0
C836 C 0.47458 0.08099 0.77412 0.0
C837 C 0.4902 0.0847 0.77862 0.0
C838 C 0.46735 0.08169 0.72883 0.0
C839 C 0.47565 0.08595 0.68713 0.0
C840 C 0.49098 0.09069 0.69247 0.0
C841 C 0.49813 0.09018 0.73777 0.0
C842 C 0.45586 0.06773 0.57881 0.0
C843 C 0.46115 0.07706 0.54086 0.0
C844 C 0.45992 0.07105 0.62689 0.0
C845 C 0.46907 0.08392 0.63772 0.0
C846 C 0.4733 0.09384 0.59975 0.0
C847 C 0.46954 0.09034 0.55178 0.0
H848 H 0.14649 0.77028 0.70917 0.0
H849 H 0.18552 0.79639 0.65948 0.0
H850 H 0.14081 0.7628 0.62588 0.0
H851 H 0.1803 0.78833 0.57596 0.0
H852 H 0.16461 0.77665 0.42601 0.0
H853 H 0.16392 0.78888 0.50577 0.0
H854 H 0.15241 0.74533 0.57149 0.0
H855 H 0.15258 0.7333 0.49207 0.0
C856 C 0.15384 0.77443 0.68026 0.0
C857 C 0.16658 0.78369 0.69065 0.0
C858 C 0.15062 0.77012 0.63258 0.0
C859 C 0.16023 0.77476 0.59432 0.0
C860 C 0.17257 0.78467 0.60451 0.0
C861 C 0.17565 0.7892 0.65232 0.0
C862 C 0.16161 0.76977 0.45743 0.0
C863 C 0.15881 0.75396 0.4528 0.0
C864 C 0.16133 0.77676 0.50314 0.0
C865 C 0.1583 0.76807 0.54508 0.0
C866 C 0.15462 0.75245 0.53996 0.0
C867 C 0.15479 0.7455 0.49432 0.0
H868 H 0.45394 0.92919 0.91658 0.0
H869 H 0.48168 0.88906 0.94329 0.0
H870 H 0.46291 0.92977 0.83233 0.0
H871 H 0.49008 0.88915 0.85894 0.0
H872 H 0.51966 0.90902 0.73694 0.0
H873 H 0.50734 0.90475 0.81481 0.0
H874 H 0.46374 0.91814 0.7532 0.0
H875 H 0.47625 0.92297 0.6753 0.0
C876 C 0.46167 0.9203 0.90404 0.0
C877 C 0.46735 0.90925 0.93641 0.0
C878 C 0.46675 0.92057 0.85578 0.0
C879 C 0.47741 0.90963 0.8391 0.0
C880 C 0.48221 0.89798 0.87092 0.0
C881 C 0.47734 0.89788 0.91915 0.0
C882 C 0.50742 0.91089 0.73975 0.0
C883 C 0.49896 0.91644 0.70004 0.0
C884 C 0.5003 0.90834 0.78441 0.0
C885 C 0.48453 0.91111 0.7903 0.0
C886 C 0.47595 0.91611 0.75005 0.0
C887 C 0.4831 0.91879 0.70538 0.0
H888 H 0.34024 0.22279 0.93776 0.0
H889 H 0.33987 0.26771 0.00429 0.0
H890 H 0.34287 0.21105 0.01777 0.0
H891 H 0.34211 0.25597 0.08411 0.0
H892 H 0.3546 0.23215 0.22124 0.0
H893 H 0.35803 0.24151 0.13863 0.0
H894 H 0.32572 0.2077 0.08665 0.0
H895 H 0.32266 0.19799 0.1695 0.0
C896 C 0.34091 0.23018 0.96938 0.0
C897 C 0.3397 0.24619 0.96474 0.0
C898 C 0.34231 0.22343 0.0152 0.0
C899 C 0.34252 0.23256 0.05726 0.0
C900 C 0.34213 0.2486 0.05238 0.0
C901 C 0.34079 0.25535 0.00659 0.0
C902 C 0.34833 0.22661 0.19208 0.0
C903 C 0.33819 0.21448 0.20175 0.0
C904 C 0.35028 0.23201 0.14481 0.0
C905 C 0.34202 0.22548 0.10622 0.0
C906 C 0.33236 0.21288 0.11558 0.0
C907 C 0.33052 0.20738 0.16299 0.0
H908 H 0.03884 0.06885 0.42528 0.0
H909 H 0.00862 0.10477 0.47541 0.0
H910 H 0.02983 0.07288 0.34211 0.0
H911 H 1e-05 0.10916 0.39241 0.0
H912 H 0.97182 0.09321 0.25919 0.0
H913 H 0.98382 0.09486 0.33867 0.0
H914 H 0.02846 0.08981 0.27228 0.0
H915 H 0.0164 0.08773 0.19258 0.0
C916 C 0.0305 0.07778 0.41833 0.0
C917 C 0.02421 0.0863 0.45673 0.0
C918 C 0.02541 0.08018 0.37072 0.0
C919 C 0.01408 0.09125 0.3608 0.0
C920 C 0.0085 0.10034 0.39902 0.0
C921 C 0.01345 0.09784 0.44651 0.0
C922 C 0.98421 0.09273 0.26135 0.0
C923 C 0.99313 0.09013 0.21966 0.0
C924 C 0.99111 0.09376 0.30697 0.0
C925 C 0.0071 0.09231 0.3118 0.0
C926 C 0.0161 0.09067 0.26977 0.0
C927 C 0.00918 0.08958 0.22412 0.0
H928 H 0.83935 0.72126 0.00609 0.0
H929 H 0.83611 0.76598 0.93894 0.0
H930 H 0.84118 0.73325 0.08557 0.0
H931 H 0.83841 0.77802 0.01861 0.0
H932 H 0.85252 0.75781 0.22197 0.0
H933 H 0.85614 0.74861 0.13929 0.0
H934 H 0.82183 0.78061 0.08849 0.0
H935 H 0.81864 0.79023 0.17141 0.0
C936 C 0.8394 0.73366 0.00816 0.0
C937 C 0.83741 0.74265 0.96627 0.0
C938 C 0.84051 0.74056 0.05379 0.0
C939 C 0.8398 0.75661 0.05846 0.0
C940 C 0.83869 0.76563 0.01628 0.0
C941 C 0.83749 0.75872 0.97063 0.0
C942 C 0.84586 0.76298 0.19303 0.0
C943 C 0.83514 0.77458 0.20306 0.0
C944 C 0.8479 0.75768 0.14571 0.0
C945 C 0.83914 0.76372 0.10741 0.0
C946 C 0.82887 0.7758 0.11713 0.0
C947 C 0.82695 0.78125 0.16459 0.0
H948 H 0.94665 0.06979 0.92743 0.0
H949 H 0.97686 0.10629 0.9731 0.0
H950 H 0.95602 0.07244 0.84415 0.0
H951 H 0.98585 0.1093 0.88984 0.0
H952 H 0.96985 0.08516 0.69293 0.0
H953 H 0.95765 0.08831 0.77202 0.0
H954 H 0.00216 0.0941 0.83862 0.0
H955 H 0.01433 0.09136 0.75957 0.0
C956 C 0.95505 0.07856 0.91945 0.0
C957 C 0.96121 0.08765 0.95672 0.0
C958 C 0.96036 0.08017 0.87174 0.0
C959 C 0.9718 0.09099 0.86054 0.0
C960 C 0.97728 0.10065 0.8975 0.0
C961 C 0.97208 0.09895 0.94512 0.0
C962 C 0.97702 0.08736 0.72436 0.0
C963 C 0.99308 0.08785 0.72011 0.0
C964 C 0.97002 0.08908 0.76967 0.0
C965 C 0.97893 0.09127 0.81162 0.0
C966 C 0.99493 0.09258 0.80693 0.0
C967 C 0.00193 0.09094 0.76161 0.0
H968 H 0.66825 0.22225 0.41439 0.0
H969 H 0.65483 0.26587 0.47579 0.0
H970 H 0.66344 0.20988 0.49253 0.0
H971 H 0.65063 0.25371 0.55381 0.0
H972 H 0.67724 0.20137 0.65489 0.0
H973 H 0.676 0.20929 0.5697 0.0
H974 H 0.63602 0.23685 0.6017 0.0
H975 H 0.63785 0.22956 0.68695 0.0
C976 C 0.66412 0.22917 0.44439 0.0
C977 C 0.66206 0.24507 0.43904 0.0
C978 C 0.66146 0.22209 0.48922 0.0
C979 C 0.65678 0.23079 0.52961 0.0
C980 C 0.654 0.24657 0.52342 0.0
C981 C 0.65652 0.25359 0.47862 0.0
C982 C 0.66808 0.20892 0.64333 0.0
C983 C 0.65783 0.21511 0.67734 0.0
C984 C 0.66728 0.2134 0.59453 0.0
C985 C 0.65605 0.22393 0.57899 0.0
C986 C 0.64508 0.22909 0.61265 0.0
C987 C 0.64607 0.22486 0.6614 0.0
H988 H 0.48064 0.8993 0.23921 0.0
H989 H 0.52487 0.9077 0.17345 0.0
H990 H 0.49232 0.89962 0.31906 0.0
H991 H 0.53674 0.90743 0.25377 0.0
H992 H 0.54519 0.93112 0.40354 0.0
H993 H 0.53712 0.92486 0.32075 0.0
H994 H 0.50859 0.88836 0.37689 0.0
H995 H 0.51605 0.89518 0.45929 0.0
C996 C 0.49295 0.90076 0.24167 0.0
C997 C 0.50178 0.90371 0.20002 0.0
C998 C 0.49969 0.90088 0.28762 0.0
C999 C 0.51548 0.90375 0.29296 0.0
C1000 C 0.52451 0.90554 0.25099 0.0
C1001 C 0.51772 0.90556 0.20495 0.0
C1002 C 0.5373 0.9217 0.3979 0.0
C1003 C 0.53098 0.91384 0.43762 0.0
C1004 C 0.53276 0.918 0.35052 0.0
C1005 C 0.52204 0.9062 0.34218 0.0
C1006 C 0.51654 0.89775 0.38202 0.0
C1007 C 0.52084 0.90163 0.42922 0.0
H1008 H 0.82559 0.23876 0.27655 0.0
H1009 H 0.81849 0.19183 0.32146 0.0
H1010 H 0.82926 0.24631 0.36045 0.0
H1011 H 0.82282 0.19931 0.40625 0.0
H1012 H 0.8102 0.22442 0.5505 0.0
H1013 H 0.81054 0.21326 0.46958 0.0
H1014 H 0.84621 0.24499 0.42714 0.0
H1015 H 0.8453 0.25666 0.50763 0.0
C1016 C 0.82497 0.23001 0.30447 0.0
C1017 C 0.8217 0.21471 0.29255 0.0
C1018 C 0.82727 0.23431 0.35264 0.0
C1019 C 0.82655 0.22339 0.39017 0.0
C1020 C 0.82335 0.20802 0.37824 0.0
C1021 C 0.82087 0.20373 0.32979 0.0
C1022 C 0.81831 0.22884 0.52418 0.0
C1023 C 0.82753 0.2416 0.5351 0.0
C1024 C 0.81856 0.22238 0.47775 0.0
C1025 C 0.82819 0.22841 0.44152 0.0
C1026 C 0.83832 0.24036 0.45381 0.0
C1027 C 0.8379 0.24698 0.5 0.0
H1028 H 0.51651 0.06021 0.29411 0.0
H1029 H 0.4809 0.093 0.26078 0.0
H1030 H 0.52724 0.06363 0.21306 0.0
H1031 H 0.49203 0.09698 0.18052 0.0
H1032 H 0.49936 0.08097 0.02542 0.0
H1033 H 0.49196 0.08131 0.11018 0.0
H1034 H 0.53965 0.07927 0.15265 0.0
H1035 H 0.54709 0.07837 0.06666 0.0
C1036 C 0.51122 0.06847 0.26989 0.0
C1037 C 0.49771 0.07615 0.28335 0.0
C1038 C 0.51743 0.07048 0.22349 0.0
C1039 C 0.51032 0.08036 0.18998 0.0
C1040 C 0.49751 0.08894 0.205 0.0
C1041 C 0.49118 0.08675 0.25105 0.0
C1042 C 0.50831 0.08062 0.05274 0.0
C1043 C 0.52381 0.07963 0.03947 0.0
C1044 C 0.50406 0.08099 0.10147 0.0
C1045 C 0.51522 0.08057 0.1383 0.0
C1046 C 0.53078 0.07956 0.12511 0.0
C1047 C 0.53504 0.07905 0.076 0.0
H1048 H 0.65659 0.7691 0.03991 0.0
H1049 H 0.65247 0.72453 0.97237 0.0
H1050 H 0.65433 0.78127 0.96042 0.0
H1051 H 0.65069 0.73664 0.89305 0.0
H1052 H 0.64031 0.76136 0.75645 0.0
H1053 H 0.63619 0.75231 0.8391 0.0
H1054 H 0.67099 0.78361 0.89085 0.0
H1055 H 0.67466 0.7931 0.80801 0.0
C1056 C 0.65501 0.76191 0.00817 0.0
C1057 C 0.65486 0.74584 0.01235 0.0
C1058 C 0.65383 0.76889 0.96263 0.0
C1059 C 0.65253 0.75994 0.92036 0.0
C1060 C 0.65152 0.7439 0.92489 0.0
C1061 C 0.6526 0.73693 0.97043 0.0
C1062 C 0.64696 0.76642 0.78561 0.0
C1063 C 0.65797 0.77777 0.77588 0.0
C1064 C 0.64463 0.7612 0.83291 0.0
C1065 C 0.6534 0.76707 0.87147 0.0
C1066 C 0.66394 0.77894 0.86202 0.0
C1067 C 0.66613 0.78432 0.81459 0.0
H1068 H 0.98383 0.8894 0.50431 0.0
H1069 H 0.95265 0.92426 0.55603 0.0
H1070 H 0.99245 0.88477 0.58715 0.0
H1071 H 0.96169 0.92002 0.63907 0.0
H1072 H 0.9754 0.90492 0.78794 0.0
H1073 H 0.96344 0.90284 0.70808 0.0
H1074 H 0.00823 0.89909 0.64185 0.0
H1075 H 0.02014 0.90073 0.72147 0.0
C1076 C 0.97879 0.89605 0.53352 0.0
C1077 C 0.96775 0.90736 0.5238 0.0
C1078 C 0.98375 0.89341 0.58093 0.0
C1079 C 0.97791 0.90215 0.61959 0.0
C1080 C 0.96632 0.91298 0.61013 0.0
C1081 C 0.96121 0.91551 0.56259 0.0
C1082 C 0.98267 0.90335 0.75639 0.0
C1083 C -0.00127 0.90318 0.76095 0.0
C1084 C 0.97581 0.90226 0.71065 0.0
C1085 C 0.98488 0.90101 0.66861 0.0
C1086 C 0.00089 0.8999 0.67353 0.0
C1087 C 0.00774 0.90091 0.71924 0.0
H1088 H 0.66359 0.72423 0.53995 0.0
H1089 H 0.65307 0.76786 0.47316 0.0
H1090 H 0.66052 0.71157 0.46154 0.0
H1091 H 0.65051 0.75532 0.39472 0.0
H1092 H 0.63889 0.72909 0.26197 0.0
H1093 H 0.63624 0.73812 0.34529 0.0
H1094 H 0.67515 0.71045 0.38767 0.0
H1095 H 0.67738 0.70095 0.30442 0.0
C1096 C 0.66049 0.7311 0.50861 0.0
C1097 C 0.65871 0.74707 0.51262 0.0
C1098 C 0.65882 0.72385 0.46366 0.0
C1099 C 0.65544 0.73243 0.42179 0.0
C1100 C 0.65294 0.74831 0.42632 0.0
C1101 C 0.65448 0.75553 0.47131 0.0
C1102 C 0.64676 0.7248 0.28928 0.0
C1103 C 0.65847 0.71449 0.27677 0.0
C1104 C 0.64527 0.73002 0.33694 0.0
C1105 C 0.65561 0.72519 0.37299 0.0
C1106 C 0.6669 0.7143 0.36088 0.0
C1107 C 0.66826 0.70892 0.31318 0.0
H1108 H 0.51453 0.41989 0.78651 0.0
H1109 H 0.47091 0.40841 0.72139 0.0
H1110 H 0.52726 0.41523 0.709 0.0
H1111 H 0.48352 0.40428 0.6437 0.0
H1112 H 0.50996 0.38857 0.51545 0.0
H1113 H 0.50053 0.38846 0.59874 0.0
H1114 H 0.529 0.42771 0.63148 0.0
H1115 H 0.5389 0.42737 0.54837 0.0
C1116 C 0.50767 0.4163 0.7557 0.0
C1117 C 0.4917 0.4146 0.75997 0.0
C1118 C 0.51496 0.41372 0.71124 0.0
C1119 C 0.50642 0.40949 0.67005 0.0
C1120 C 0.49051 0.4073 0.67482 0.0
C1121 C 0.48324 0.40975 0.71935 0.0
C1122 C 0.51435 0.39705 0.54069 0.0
C1123 C 0.52501 0.40811 0.52545 0.0
C1124 C 0.50889 0.39704 0.58832 0.0
C1125 C 0.51381 0.40822 0.62159 0.0
C1126 C 0.52505 0.41885 0.60691 0.0
C1127 C 0.53068 0.41873 0.55927 0.0
H1128 H 0.8495 0.26161 0.78072 0.0
H1129 H 0.81298 0.29257 0.82049 0.0
H1130 H 0.85174 0.2533 0.86489 0.0
H1131 H 0.81466 0.28375 0.90472 0.0
H1132 H 0.82409 0.26942 0.05787 0.0
H1133 H 0.82857 0.28175 0.97953 0.0
H1134 H 0.83641 0.23732 0.91424 0.0
H1135 H 0.83249 0.22513 -0.00749 0.0
C1136 C 0.84199 0.26668 0.8077 0.0
C1137 C 0.83091 0.27755 0.79421 0.0
C1138 C 0.84323 0.26188 0.85585 0.0
C1139 C 0.8332 0.26763 0.89142 0.0
C1140 C 0.82266 0.27916 0.87833 0.0
C1141 C 0.82161 0.28417 0.8301 0.0
C1142 C 0.82706 0.26233 0.02691 0.0
C1143 C 0.8278 0.24628 0.03126 0.0
C1144 C 0.82952 0.26939 0.98198 0.0
C1145 C 0.83269 0.26054 0.94048 0.0
C1146 C 0.83419 0.24455 0.9455 0.0
C1147 C 0.83186 0.23751 -0.00956 0.0
H1148 H 0.96867 0.57722 0.30322 0.0
H1149 H 0.01044 0.59341 0.23604 0.0
H1150 H 0.95572 0.57829 0.22472 0.0
H1151 H -0.00222 0.59387 0.1576 0.0
H1152 H 0.97207 0.59854 0.02128 0.0
H1153 H 0.97949 0.60426 0.10463 0.0
H1154 H 0.9565 0.56307 0.15327 0.0
H1155 H 0.94839 0.55788 0.06987 0.0
C1156 C 0.97503 0.5812 0.27179 0.0
C1157 C 0.99062 0.58507 0.27565 0.0
C1158 C 0.96763 0.58171 0.22676 0.0
C1159 C 0.97574 0.58594 0.18465 0.0
C1160 C 0.99108 0.59072 0.18923 0.0
C1161 C -0.0016 0.5904 0.2343 0.0
C1162 C 0.96843 0.59085 0.05001 0.0
C1163 C 0.95987 0.57765 0.0393 0.0
C1164 C 0.97272 0.59408 0.09772 0.0
C1165 C 0.96884 0.584 0.13563 0.0
C1166 C 0.95958 0.57119 0.12511 0.0
C1167 C 0.95501 0.56812 0.07733 0.0
H1168 H 0.67 0.30195 0.15232 0.0
H1169 H 0.66571 0.25421 0.19201 0.0
H1170 H 0.6651 0.29526 0.06707 0.0
H1171 H 0.66133 0.24752 0.10773 0.0
H1172 H 0.64263 0.23828 0.96377 0.0
H1173 H 0.64262 0.24945 0.04498 0.0
H1174 H 0.67709 0.28209 -0.00015 0.0
H1175 H 0.6766 0.27135 0.91819 0.0
C1176 C 0.66814 0.29005 0.14274 0.0
C1177 C 0.66819 0.27861 0.1787 0.0
C1178 C 0.66531 0.28622 0.09407 0.0
C1179 C 0.66257 0.27088 0.08071 0.0
C1180 C 0.66291 0.25949 0.11683 0.0
C1181 C 0.66561 0.26332 0.16517 0.0
C1182 C 0.64993 0.24807 0.97093 0.0
C1183 C 0.65979 0.25377 0.93489 0.0
C1184 C 0.65002 0.25441 0.01751 0.0
C1185 C 0.66016 0.26639 0.02921 0.0
C1186 C 0.66913 0.27288 -0.00791 0.0
C1187 C 0.66888 0.26668 0.94526 0.0
H1188 H 0.98443 0.38974 0.44893 0.0
H1189 H 0.95555 0.42912 0.42308 0.0
H1190 H 0.9937 0.39098 0.36558 0.0
H1191 H 0.96532 0.43082 0.33994 0.0
H1192 H 0.02302 0.41211 0.24515 0.0
H1193 H 0.01066 0.40737 0.32284 0.0
H1194 H 0.96684 0.41963 0.26045 0.0
H1195 H 0.97935 0.42492 0.18294 0.0
C1196 C 0.98004 0.39865 0.42523 0.0
C1197 C 0.96942 0.40945 0.44246 0.0
C1198 C 0.98541 0.39941 0.37758 0.0
C1199 C 0.98046 0.41115 0.34631 0.0
C1200 C 0.96929 0.42155 0.36294 0.0
C1201 C 0.96373 0.42065 0.41059 0.0
C1202 C 0.01073 0.41365 0.24783 0.0
C1203 C 0.00219 0.41898 0.20799 0.0
C1204 C 0.0036 0.41084 0.29235 0.0
C1205 C 0.98773 0.41313 0.29791 0.0
C1206 C 0.97911 0.41799 0.25758 0.0
C1207 C 0.98627 0.42093 0.21312 0.0
H1208 H 0.81588 0.69813 0.67296 0.0
H1209 H 0.85442 0.72581 0.71778 0.0
H1210 H 0.81864 0.7077 0.58998 0.0
H1211 H 0.85759 0.73492 0.6347 0.0
H1212 H 0.84129 0.76507 0.50653 0.0
H1213 H 0.84372 0.75234 0.58476 0.0
H1214 H 0.8336 0.70878 0.5169 0.0
H1215 H 0.83065 0.72163 0.43876 0.0
C1216 C 0.82513 0.706 0.66478 0.0
C1217 C 0.83477 0.71143 0.70177 0.0
C1218 C 0.82679 0.71142 0.61723 0.0
C1219 C 0.83825 0.72221 0.60584 0.0
C1220 C 0.84844 0.72689 0.64248 0.0
C1221 C 0.84666 0.72163 0.69 0.0
C1222 C 0.83985 0.75274 0.50812 0.0
C1223 C 0.83558 0.74439 0.46664 0.0
C1224 C 0.84131 0.74541 0.55298 0.0
C1225 C 0.8387 0.72954 0.55717 0.0
C1226 C 0.83536 0.72106 0.51506 0.0
C1227 C 0.83377 0.72841 0.47026 0.0
H1228 H 0.51521 0.60169 0.96361 0.0
H1229 H 0.54201 0.56334 0.91229 0.0
H1230 H 0.50682 0.60697 0.8809 0.0
H1231 H 0.53304 0.56812 0.82951 0.0
H1232 H 0.4766 0.59421 0.74922 0.0
H1233 H 0.48926 0.59508 0.82777 0.0
H1234 H 0.5325 0.58408 0.75914 0.0
H1235 H 0.51965 0.58263 0.68056 0.0
C1236 C 0.51933 0.59441 0.93444 0.0
C1237 C 0.52907 0.58197 0.94423 0.0
C1238 C 0.51448 0.5974 0.88711 0.0
C1239 C 0.51904 0.58784 0.84863 0.0
C1240 C 0.52941 0.57582 0.85818 0.0
C1241 C 0.53448 0.57299 0.9056 0.0
C1242 C 0.48886 0.59229 0.75071 0.0
C1243 C 0.49708 0.58815 0.70884 0.0
C1244 C 0.49617 0.59284 0.79581 0.0
C1245 C 0.5119 0.58947 0.79989 0.0
C1246 C 0.52032 0.58639 0.75742 0.0
C1247 C 0.51297 0.58567 0.71236 0.0
H1248 H 0.34377 0.22396 0.50481 0.0
H1249 H 0.33287 0.26733 0.43698 0.0
H1250 H 0.34574 0.23665 0.58325 0.0
H1251 H 0.3353 0.28013 0.51537 0.0
H1252 H 0.31628 0.29 0.67067 0.0
H1253 H 0.31972 0.28064 0.58768 0.0
H1254 H 0.35918 0.25439 0.63391 0.0
H1255 H 0.35538 0.26332 0.71691 0.0
C1256 C 0.34218 0.23626 0.50644 0.0
C1257 C 0.33796 0.2446 0.46487 0.0
C1258 C 0.34337 0.24357 0.55141 0.0
C1259 C 0.34051 0.25939 0.55562 0.0
C1260 C 0.33726 0.26788 0.51345 0.0
C1261 C 0.33595 0.26055 0.46854 0.0
C1262 C 0.3258 0.28238 0.66283 0.0
C1263 C 0.33541 0.27717 0.70022 0.0
C1264 C 0.32784 0.27709 0.61529 0.0
C1265 C 0.33965 0.26664 0.60432 0.0
C1266 C 0.34978 0.26217 0.64137 0.0
C1267 C 0.34764 0.26732 0.68886 0.0
H1268 H 0.44427 0.58503 0.41411 0.0
H1269 H 0.49124 0.58748 0.46332 0.0
H1270 H 0.45307 0.58611 0.32966 0.0
H1271 H 0.50005 0.58781 0.37984 0.0
H1272 H 0.51356 0.59751 0.22855 0.0
H1273 H 0.50195 0.60208 0.30789 0.0
H1274 H 0.46556 0.57031 0.27241 0.0
H1275 H 0.47672 0.56642 0.19249 0.0
C1276 C 0.45645 0.58574 0.40681 0.0
C1277 C 0.46707 0.58613 0.44513 0.0
C1278 C 0.46151 0.58632 0.35853 0.0
C1279 C 0.47728 0.5871 0.34784 0.0
C1280 C 0.48782 0.5876 0.38649 0.0
C1281 C 0.48276 0.58724 0.4345 0.0
C1282 C 0.50295 0.59172 0.23754 0.0
C1283 C 0.49614 0.5815 0.20459 0.0
C1284 C 0.49633 0.59425 0.28307 0.0
C1285 C 0.48294 0.58636 0.29693 0.0
C1286 C 0.47576 0.57671 0.26293 0.0
C1287 C 0.48223 0.5744 0.21712 0.0
H1288 H 0.17823 0.70437 0.16599 0.0
H1289 H 0.14172 0.73586 0.20171 0.0
H1290 H 0.17769 0.71333 0.0817 0.0
H1291 H 0.1407 0.74435 0.11751 0.0
H1292 H 0.16102 0.77193 -0.0091 0.0
H1293 H 0.15709 0.76004 0.06966 0.0
H1294 H 0.16402 0.7153 0.00558 0.0
H1295 H 0.16845 0.7273 0.92666 0.0
C1296 C 0.16988 0.71295 0.15551 0.0
C1297 C 0.16021 0.71963 0.19033 0.0
C1298 C 0.16949 0.71803 0.10724 0.0
C1299 C 0.15929 0.72973 0.09307 0.0
C1300 C 0.14895 0.73562 0.12749 0.0
C1301 C 0.1495 0.73072 0.17565 0.0
C1302 C 0.1615 0.75955 -0.00663 0.0
C1303 C 0.16517 0.75058 0.95259 0.0
C1304 C 0.15915 0.75269 0.03856 0.0
C1305 C 0.16029 0.7367 0.04396 0.0
C1306 C 0.1633 0.72767 0.00274 0.0
C1307 C 0.16574 0.73454 0.9575 0.0
H1308 H 0.98 0.40002 0.7483 0.0
H1309 H 0.02469 0.40454 0.68188 0.0
H1310 H 0.99165 0.40115 0.82824 0.0
H1311 H 0.03648 0.40509 0.76226 0.0
H1312 H 0.01553 0.39769 0.96936 0.0
H1313 H 0.00729 0.3901 0.88843 0.0
H1314 H 0.03782 0.42379 0.8256 0.0
H1315 H 0.04661 0.43084 0.90701 0.0
C1316 C 0.99237 0.40077 0.75073 0.0
C1317 C 0.00139 0.40242 0.70876 0.0
C1318 C -0.00091 0.40138 0.79672 0.0
C1319 C 0.01501 0.40344 0.80174 0.0
C1320 C 0.02415 0.40387 0.75966 0.0
C1321 C 0.0174 0.40341 0.71361 0.0
C1322 C 0.02057 0.40338 0.93818 0.0
C1323 C 0.03153 0.41501 0.94432 0.0
C1324 C 0.01582 0.39906 0.8918 0.0
C1325 C 0.02172 0.40646 0.85047 0.0
C1326 C 0.03315 0.41771 0.85659 0.0
C1327 C 0.0381 0.42187 0.90317 0.0
H1328 H 0.31719 0.7194 0.06041 0.0
H1329 H 0.35264 0.75169 0.02093 0.0
H1330 H 0.31758 0.70895 0.97857 0.0
H1331 H 0.35356 0.74072 0.93946 0.0
H1332 H 0.33016 0.73858 0.79101 0.0
H1333 H 0.33558 0.74397 0.87554 0.0
H1334 H 0.3292 0.69608 0.91094 0.0
H1335 H 0.32321 0.69075 0.82549 0.0
C1336 C 0.32546 0.72392 0.03472 0.0
C1337 C 0.33463 0.73662 0.04668 0.0
C1338 C 0.32573 0.71786 0.98775 0.0
C1339 C 0.33533 0.72427 0.9521 0.0
C1340 C 0.34568 0.73586 0.96572 0.0
C1341 C 0.34524 0.74209 0.01245 0.0
C1342 C 0.32995 0.72916 0.81671 0.0
C1343 C 0.32617 0.71426 0.80174 0.0
C1344 C 0.33327 0.73222 0.86521 0.0
C1345 C 0.33305 0.72043 0.90002 0.0
C1346 C 0.32941 0.70543 0.88502 0.0
C1347 C 0.32596 0.70238 0.83622 0.0
H1348 H 0.97679 0.5935 0.75546 0.0
H1349 H 0.0145 0.5636 0.79275 0.0
H1350 H 0.98811 0.59785 0.67562 0.0
H1351 H 0.02544 0.56734 0.71225 0.0
H1352 H 0.04554 0.58271 0.56753 0.0
H1353 H 0.03721 0.58345 0.65265 0.0
H1354 H 0.98992 0.58238 0.60547 0.0
H1355 H -0.00182 0.58225 0.52148 0.0
C1356 C 0.98755 0.58795 0.74668 0.0
C1357 C 0.99465 0.57807 0.78005 0.0
C1358 C 0.994 0.59035 0.70087 0.0
C1359 C 0.00753 0.58269 0.68715 0.0
C1360 C 0.01508 0.5735 0.72163 0.0
C1361 C 0.00875 0.57129 0.76774 0.0
C1362 C 0.03339 0.58268 0.57564 0.0
C1363 C 0.02251 0.58243 0.538 0.0
C1364 C 0.02861 0.58309 0.62427 0.0
C1365 C 0.01289 0.58314 0.63592 0.0
C1366 C 0.0021 0.58279 0.59798 0.0
C1367 C 0.00685 0.58254 0.5497 0.0
H1368 H 0.13769 0.26337 0.25624 0.0
H1369 H 0.17767 0.29024 0.29265 0.0
H1370 H 0.13618 0.25424 0.33978 0.0
H1371 H 0.17652 0.28069 0.37599 0.0
H1372 H 0.15426 0.224 0.46509 0.0
H1373 H 0.15094 0.23656 0.38688 0.0
H1374 H 0.16279 0.2801 0.45192 0.0
H1375 H 0.16659 0.26743 0.52998 0.0
C1376 C 0.14613 0.26738 0.28226 0.0
C1377 C 0.15793 0.27735 0.26795 0.0
C1378 C 0.14529 0.2621 0.33003 0.0
C1379 C 0.15633 0.26657 0.36436 0.0
C1380 C 0.16773 0.27713 0.35054 0.0
C1381 C 0.16847 0.28254 0.30276 0.0
C1382 C 0.15594 0.23628 0.46289 0.0
C1383 C 0.16086 0.24469 0.50354 0.0
C1384 C 0.15396 0.24352 0.41807 0.0
C1385 C 0.15672 0.25933 0.41311 0.0
C1386 C 0.16087 0.26786 0.45439 0.0
C1387 C 0.16296 0.2606 0.49913 0.0
H1388 H 0.51427 0.40097 0.21963 0.0
H1389 H 0.46979 0.40605 0.28704 0.0
H1390 H 0.50233 0.4012 0.13997 0.0
H1391 H 0.45773 0.40576 0.20705 0.0
H1392 H 0.47772 0.3949 0.00087 0.0
H1393 H 0.48639 0.38882 0.08265 0.0
H1394 H 0.45612 0.42358 0.14072 0.0
H1395 H 0.44695 0.42916 0.05857 0.0
C1396 C 0.5019 0.4017 0.21752 0.0
C1397 C 0.49301 0.40369 0.25963 0.0
C1398 C 0.49501 0.40179 0.17174 0.0
C1399 C 0.47906 0.40368 0.16706 0.0
C1400 C 0.47007 0.40462 0.20937 0.0
C1401 C 0.47697 0.40466 0.2552 0.0
C1402 C 0.47282 0.40115 0.0312 0.0
C1403 C 0.46183 0.41266 0.02348 0.0
C1404 C 0.47782 0.39769 0.07805 0.0
C1405 C 0.47212 0.40584 0.11822 0.0
C1406 C 0.46064 0.41696 0.11064 0.0
C1407 C 0.45546 0.42026 0.06362 0.0
H1408 H 0.11301 0.31438 0.07049 0.0
H1409 H 0.14978 0.34389 0.11853 0.0
H1410 H 0.09525 0.33587 0.07424 0.0
H1411 H 0.1319 0.36532 0.12381 0.0
H1412 H 0.06398 0.37148 0.13942 0.0
H1413 H 0.08281 0.35092 0.13545 0.0
H1414 H 0.11623 0.38262 0.07747 0.0
H1415 H 0.09751 0.4033 0.08296 0.0
C1416 C 0.11731 0.32549 0.08165 0.0
C1417 C 0.13278 0.32744 0.09433 0.0
C1418 C 0.1071 0.33777 0.08428 0.0
C1419 C 0.11209 0.35227 0.10006 0.0
C1420 C 0.12769 0.35434 0.11124 0.0
C1421 C 0.13794 0.34205 0.10826 0.0
C1422 C 0.0754 0.37409 0.12634 0.0
C1423 C 0.07925 0.38899 0.1114 0.0
C1424 C 0.08616 0.36228 0.12359 0.0
C1425 C 0.10098 0.36507 0.10546 0.0
C1426 C 0.10496 0.38009 0.0919 0.0
C1427 C 0.09422 0.39194 0.09497 0.0
H1428 H 0.84691 0.84132 0.34599 0.0
H1429 H 0.88204 0.80953 0.39187 0.0
H1430 H 0.86602 0.86153 0.33919 0.0
H1431 H 0.9011 0.82989 0.38679 0.0
H1432 H 0.90223 0.89754 0.37938 0.0
H1433 H 0.88254 0.87783 0.38485 0.0
H1434 H 0.91434 0.84453 0.32655 0.0
H1435 H 0.93416 0.86415 0.32277 0.0
C1436 C 0.85869 0.83871 0.35539 0.0
C1437 C 0.86299 0.82382 0.36935 0.0
C1438 C 0.86964 0.85032 0.35159 0.0
C1439 C 0.88513 0.84732 0.36203 0.0
C1440 C 0.88933 0.83252 0.37741 0.0
C1441 C 0.87839 0.82088 0.38083 0.0
C1442 C 0.90495 0.88605 0.36722 0.0
C1443 C 0.91975 0.88238 0.35082 0.0
C1444 C 0.89366 0.87474 0.37029 0.0
C1445 C 0.89689 0.85954 0.35665 0.0
C1446 C 0.91155 0.85603 0.33847 0.0
C1447 C 0.92288 0.86731 0.33579 0.0
H1448 H 0.37382 0.68854 0.59441 0.0
H1449 H 0.34266 0.65334 0.64377 0.0
H1450 H 0.39451 0.66978 0.59117 0.0
H1451 H 0.36341 0.63475 0.64266 0.0
H1452 H 0.40018 0.60178 0.59204 0.0
H1453 H 0.3795 0.62041 0.59152 0.0
H1454 H 0.4108 0.65528 0.64283 0.0
H1455 H 0.43169 0.63668 0.64119 0.0
C1456 C 0.37139 0.67678 0.60448 0.0
C1457 C 0.35661 0.67239 0.61919 0.0
C1458 C 0.38329 0.66605 0.60313 0.0
C1459 C 0.38069 0.65074 0.61699 0.0
C1460 C 0.36582 0.64636 0.63103 0.0
C1461 C 0.3539 0.65704 0.63181 0.0
C1462 C 0.40264 0.61341 0.60346 0.0
C1463 C 0.41756 0.61777 0.61674 0.0
C1464 C 0.39075 0.6241 0.60334 0.0
C1465 C 0.39343 0.63939 0.61712 0.0
C1466 C 0.40835 0.64368 0.63114 0.0
C1467 C 0.42031 0.633 0.63068 0.0
H1468 H 0.60674 0.19137 0.8406 0.0
H1469 H 0.64005 0.15764 0.88609 0.0
H1470 H 0.58671 0.17196 0.84292 0.0
H1471 H 0.61993 0.13834 0.89046 0.0
H1472 H 0.58507 0.10366 0.83861 0.0
H1473 H 0.6045 0.12366 0.83706 0.0
H1474 H 0.57151 0.15611 0.89358 0.0
H1475 H 0.55192 0.13619 0.89313 0.0
C1476 C 0.60973 0.17986 0.85196 0.0
C1477 C 0.62497 0.176 0.86294 0.0
C1478 C 0.59823 0.16873 0.85344 0.0
C1479 C 0.6017 0.15353 0.86644 0.0
C1480 C 0.61689 0.14984 0.87916 0.0
C1481 C 0.62841 0.16093 0.87713 0.0
C1482 C 0.58195 0.1151 0.85033 0.0
C1483 C 0.56698 0.11837 0.86594 0.0
C1484 C 0.59313 0.12654 0.84993 0.0
C1485 C 0.58964 0.14148 0.86572 0.0
C1486 C 0.57457 0.14478 0.88068 0.0
C1487 C 0.56334 0.13336 0.88054 0.0
H1488 H 0.08506 0.60582 0.33738 0.0
H1489 H 0.05229 0.63843 0.39361 0.0
H1490 H 0.10475 0.62556 0.33714 0.0
H1491 H 0.07214 0.65808 0.39548 0.0
H1492 H 0.10802 0.69326 0.34739 0.0
H1493 H 0.08772 0.67413 0.34699 0.0
H1494 H 0.12034 0.63953 0.39159 0.0
H1495 H 0.14074 0.65858 0.38982 0.0
C1496 C 0.08208 0.61723 0.34972 0.0
C1497 C 0.06715 0.62059 0.36549 0.0
C1498 C 0.0934 0.62852 0.35009 0.0
C1499 C 0.09012 0.6434 0.36688 0.0
C1500 C 0.07507 0.64681 0.38183 0.0
C1501 C 0.06368 0.63554 0.38087 0.0
C1502 C 0.11082 0.68158 0.35747 0.0
C1503 C 0.12598 0.67739 0.36844 0.0
C1504 C 0.09916 0.67061 0.3574 0.0
C1505 C 0.10238 0.65523 0.36886 0.0
C1506 C 0.11749 0.65118 0.38144 0.0
C1507 C 0.12918 0.66212 0.38091 0.0
H1508 H 0.64814 0.84426 0.62894 0.0
H1509 H 0.6132 0.81285 0.57926 0.0
H1510 H 0.62937 0.86488 0.63105 0.0
H1511 H 0.5945 0.83362 0.57959 0.0
H1512 H 0.59504 0.90148 0.58342 0.0
H1513 H 0.61413 0.88114 0.58142 0.0
H1514 H 0.58049 0.84905 0.63586 0.0
H1515 H 0.56125 0.8693 0.6361 0.0
C1516 C 0.63649 0.84182 0.61772 0.0
C1517 C 0.63213 0.82693 0.60402 0.0
C1518 C 0.62573 0.85366 0.61881 0.0
C1519 C 0.61039 0.85091 0.6058 0.0
C1520 C 0.60614 0.83607 0.59084 0.0
C1521 C 0.61688 0.8242 0.59017 0.0
C1522 C 0.59176 0.8901 0.59534 0.0
C1523 C 0.57664 0.88697 0.60982 0.0
C1524 C 0.60272 0.87844 0.59431 0.0
C1525 C 0.59884 0.86341 0.60815 0.0
C1526 C 0.5838 0.86041 0.62395 0.0
C1527 C 0.5728 0.87204 0.62457 0.0
H1528 H 0.39522 0.40182 0.88097 0.0
H1529 H 0.42813 0.36815 0.83212 0.0
H1530 H 0.37574 0.38188 0.88738 0.0
H1531 H 0.40857 0.34831 0.83712 0.0
H1532 H 0.34143 0.34351 0.8467 0.0
H1533 H 0.35996 0.36439 0.84137 0.0
H1534 H 0.39506 0.33462 0.89961 0.0
H1535 H 0.37669 0.31368 0.90354 0.0
C1536 C 0.39823 0.3902 0.87085 0.0
C1537 C 0.41323 0.38654 0.85627 0.0
C1538 C 0.38705 0.37878 0.87446 0.0
C1539 C 0.39064 0.36346 0.86338 0.0
C1540 C 0.40552 0.35993 0.84708 0.0
C1541 C 0.4167 0.37133 0.84373 0.0
C1542 C 0.35306 0.3415 0.85893 0.0
C1543 C 0.35763 0.32693 0.87526 0.0
C1544 C 0.36368 0.35347 0.8559 0.0
C1545 C 0.37906 0.35112 0.86937 0.0
C1546 C 0.38341 0.33672 0.88775 0.0
C1547 C 0.37284 0.32475 0.89049 0.0
H1548 H 0.83735 0.1491 0.14417 0.0
H1549 H 0.87076 0.18255 0.0974 0.0
H1550 H 0.8574 0.1297 0.14891 0.0
H1551 H 0.89071 0.16307 0.10043 0.0
H1552 H 0.89531 0.09561 0.10551 0.0
H1553 H 0.87456 0.11428 0.10209 0.0
H1554 H 0.90493 0.149 0.15956 0.0
H1555 H 0.92578 0.13046 0.1613 0.0
C1556 C 0.84894 0.15224 0.13412 0.0
C1557 C 0.8525 0.16736 0.12058 0.0
C1558 C 0.86044 0.14111 0.13676 0.0
C1559 C 0.87572 0.14485 0.12557 0.0
C1560 C 0.87914 0.15987 0.11046 0.0
C1561 C 0.86768 0.17102 0.10821 0.0
C1562 C 0.89749 0.10719 0.11791 0.0
C1563 C 0.91219 0.1116 0.13345 0.0
C1564 C 0.88559 0.1179 0.11602 0.0
C1565 C 0.8881 0.13321 0.12998 0.0
C1566 C 0.90267 0.13741 0.14738 0.0
C1567 C 0.9146 0.12675 0.14887 0.0
H1568 H 0.84243 0.64495 0.85053 0.0
H1569 H 0.87802 0.67542 0.9014 0.0
H1570 H 0.86095 0.62405 0.846 0.0
H1571 H 0.89641 0.65447 0.89833 0.0
H1572 H 0.89657 0.58713 0.88907 0.0
H1573 H 0.877 0.60708 0.893 0.0
H1574 H 0.90955 0.64 0.837 0.0
H1575 H 0.92918 0.6202 0.83453 0.0
C1576 C 0.85415 0.64711 0.86156 0.0
C1577 C 0.8588 0.66185 0.87606 0.0
C1578 C 0.86476 0.63513 0.859 0.0
C1579 C 0.88022 0.63763 0.87113 0.0
C1580 C 0.88469 0.65223 0.88753 0.0
C1581 C 0.87411 0.66422 0.88978 0.0
C1582 C 0.89947 0.5986 0.87705 0.0
C1583 C 0.91443 0.60213 0.86178 0.0
C1584 C 0.88825 0.61003 0.87927 0.0
C1585 C 0.89177 0.6252 0.86602 0.0
C1586 C 0.90656 0.62853 0.84869 0.0
C1587 C 0.91778 0.61714 0.84679 0.0
H1588 H 0.14785 0.14849 0.62784 0.0
H1589 H 0.114 0.18068 0.57549 0.0
H1590 H 0.12804 0.12901 0.63648 0.0
H1591 H 0.09427 0.16106 0.58256 0.0
H1592 H 0.05986 0.12935 0.65223 0.0
H1593 H 0.08049 0.14804 0.64565 0.0
H1594 H 0.1109 0.11262 0.59277 0.0
H1595 H 0.09039 0.09384 0.60092 0.0
C1596 C 0.13622 0.15132 0.61735 0.0
C1597 C 0.13246 0.16614 0.60116 0.0
C1598 C 0.12486 0.14014 0.62225 0.0
C1599 C 0.10952 0.14351 0.61077 0.0
C1600 C 0.1059 0.15818 0.59285 0.0
C1601 C 0.11724 0.16939 0.58828 0.0
C1602 C 0.07101 0.12552 0.63981 0.0
C1603 C 0.0735 0.11014 0.62701 0.0
C1604 C 0.08279 0.13626 0.63553 0.0
C1605 C 0.09729 0.13188 0.61796 0.0
C1606 C 0.09991 0.11638 0.60671 0.0
C1607 C 0.08814 0.10561 0.61134 0.0
H1608 H 0.58932 0.39257 0.32857 0.0
H1609 H 0.55767 0.35736 0.37449 0.0
H1610 H 0.61001 0.37377 0.3271 0.0
H1611 H 0.57838 0.33875 0.37543 0.0
H1612 H 0.61529 0.30562 0.32715 0.0
H1613 H 0.59469 0.32433 0.32605 0.0
H1614 H 0.62598 0.35908 0.37833 0.0
H1615 H 0.6468 0.34042 0.37703 0.0
C1616 C 0.5868 0.38081 0.33839 0.0
C1617 C 0.57187 0.37642 0.35139 0.0
C1618 C 0.59869 0.37005 0.33805 0.0
C1619 C 0.59593 0.35471 0.35138 0.0
C1620 C 0.58093 0.35037 0.36412 0.0
C1621 C 0.56903 0.36106 0.36376 0.0
C1622 C 0.61775 0.31724 0.33869 0.0
C1623 C 0.63266 0.32155 0.35224 0.0
C1624 C 0.6059 0.32798 0.33825 0.0
C1625 C 0.60861 0.34327 0.35208 0.0
C1626 C 0.62351 0.3475 0.36654 0.0
C1627 C 0.63543 0.33678 0.36628 0.0
H1628 H 0.38577 0.80059 0.14391 0.0
H1629 H 0.35233 0.83298 0.0903 0.0
H1630 H 0.40539 0.82039 0.14145 0.0
H1631 H 0.37209 0.85266 0.08573 0.0
H1632 H 0.40624 0.8887 0.13459 0.0
H1633 H 0.38691 0.86855 0.1374 0.0
H1634 H 0.42072 0.83553 0.08975 0.0
H1635 H 0.44012 0.85554 0.08908 0.0
C1636 C 0.38268 0.81188 0.13075 0.0
C1637 C 0.36751 0.81525 0.11741 0.0
C1638 C 0.39394 0.82324 0.12919 0.0
C1639 C 0.39032 0.83818 0.11368 0.0
C1640 C 0.37522 0.84138 0.09891 0.0
C1641 C 0.36392 0.83007 0.10104 0.0
C1642 C 0.40954 0.8771 0.12512 0.0
C1643 C 0.42469 0.87368 0.11177 0.0
C1644 C 0.39844 0.86557 0.12625 0.0
C1645 C 0.40221 0.8504 0.11346 0.0
C1646 C 0.41743 0.84701 0.1005 0.0
C1647 C 0.42855 0.8585 0.09995 0.0
H1648 H 0.90584 0.38981 0.63889 0.0
H1649 H 0.93774 0.3558 0.58606 0.0
H1650 H 0.88551 0.37065 0.63947 0.0
H1651 H 0.91734 0.33683 0.5843 0.0
H1652 H 0.88125 0.30267 0.63448 0.0
H1653 H 0.9017 0.32157 0.63374 0.0
H1654 H 0.86941 0.3563 0.58772 0.0
H1655 H 0.84881 0.33745 0.59081 0.0
C1656 C 0.90848 0.37824 0.62729 0.0
C1657 C 0.92338 0.37428 0.61266 0.0
C1658 C 0.8968 0.36728 0.62712 0.0
C1659 C 0.89972 0.35217 0.61165 0.0
C1660 C 0.91468 0.34826 0.5972 0.0
C1661 C 0.9264 0.35915 0.59804 0.0
C1662 C 0.87855 0.31432 0.62381 0.0
C1663 C 0.86343 0.31859 0.61278 0.0
C1664 C 0.8903 0.32517 0.62321 0.0
C1665 C 0.88725 0.34053 0.61088 0.0
C1666 C 0.87215 0.34467 0.59842 0.0
C1667 C 0.86035 0.33385 0.59969 0.0
H1668 H 0.34758 0.14717 0.34681 0.0
H1669 H 0.3835 0.17775 0.39462 0.0
H1670 H 0.3659 0.12618 0.34282 0.0
H1671 H 0.40176 0.15661 0.39242 0.0
H1672 H 0.434 0.12059 0.33415 0.0
H1673 H 0.41502 0.14106 0.33475 0.0
H1674 H 0.38119 0.10946 0.3909 0.0
H1675 H 0.40004 0.08888 0.38853 0.0
C1676 C 0.35935 0.14935 0.35722 0.0
C1677 C 0.36411 0.16412 0.37095 0.0
C1678 C 0.36986 0.13729 0.35504 0.0
C1679 C 0.38534 0.13971 0.36694 0.0
C1680 C 0.38999 0.15441 0.38197 0.0
C1681 C 0.37951 0.1665 0.38373 0.0
C1682 C 0.42245 0.11799 0.34602 0.0
C1683 C 0.41851 0.10314 0.36133 0.0
C1684 C 0.41161 0.12975 0.34687 0.0
C1685 C 0.39662 0.12698 0.36351 0.0
C1686 C 0.39258 0.112 0.37747 0.0
C1687 C 0.40339 0.10019 0.37618 0.0
H1688 H 0.64865 0.64824 0.12846 0.0
H1689 H 0.61313 0.67933 0.08079 0.0
H1690 H 0.62989 0.62758 0.13368 0.0
H1691 H 0.59449 0.6586 0.08447 0.0
H1692 H 0.59387 0.59117 0.09135 0.0
H1693 H 0.61353 0.61099 0.08711 0.0
H1694 H 0.58143 0.64397 0.14538 0.0
H1695 H 0.56168 0.62429 0.1481 0.0
C1696 C 0.63688 0.6506 0.1183 0.0
C1697 C 0.63234 0.66542 0.10443 0.0
C1698 C 0.62613 0.63875 0.12124 0.0
C1699 C 0.61064 0.64147 0.11011 0.0
C1700 C 0.60625 0.65619 0.09449 0.0
C1701 C 0.61696 0.66804 0.09187 0.0
C1702 C 0.59108 0.60261 0.10378 0.0
C1703 C 0.57621 0.6062 0.1198 0.0
C1704 C 0.60236 0.61398 0.1014 0.0
C1705 C 0.59901 0.62913 0.11526 0.0
C1706 C 0.58429 0.63252 0.13325 0.0
C1707 C 0.57301 0.6212 0.13529 0.0
H1708 H 0.06705 0.86417 0.82424 0.0
H1709 H 0.09678 0.90066 0.87308 0.0
H1710 H 0.08842 0.84628 0.82768 0.0
H1711 H 0.11811 0.88264 0.87798 0.0
H1712 H 0.15571 0.84754 0.83667 0.0
H1713 H 0.13536 0.86668 0.83153 0.0
H1714 H 0.10315 0.83385 0.89002 0.0
H1715 H 0.12334 0.81465 0.89373 0.0
C1716 C 0.07818 0.86838 0.83545 0.0
C1717 C 0.08022 0.8838 0.84858 0.0
C1718 C 0.0904 0.8581 0.83791 0.0
C1719 C 0.10492 0.86297 0.85393 0.0
C1720 C 0.1071 0.87853 0.86531 0.0
C1721 C 0.09487 0.88885 0.86254 0.0
C1722 C 0.14432 0.84449 0.84897 0.0
C1723 C 0.14109 0.82957 0.86532 0.0
C1724 C 0.13266 0.85546 0.84604 0.0
C1725 C 0.11757 0.85172 0.85965 0.0
C1726 C 0.11455 0.83698 0.87804 0.0
C1727 C 0.12616 0.82602 0.88065 0.0
loop_
_geom_bond_atom_site_label_1
_geom_bond_atom_site_label_2
_geom_bond_distance
_geom_bond_site_symmetry_2
_ccdc_geom_bond_type
C0 O1 1.306 . S
C0 O3 1.160 . S
O1 C0 1.306 . S
O1 Cd2 2.228 1_556 S
Cd2 O1 2.228 1_554 S
Cd2 O6 2.273 . S
Cd2 O10 2.277 . S
O3 C0 1.160 . S
O3 Cd4 2.203 1_556 S
Cd4 O3 2.203 1_554 S
Cd4 O6 2.411 . S
Cd4 O7 2.333 . S
Cd4 O8 2.352 . S
Cd4 O12 2.277 . S
Cd4 O13 2.356 . S
C5 O10 1.209 . S
C5 O12 1.226 . S
O6 Cd2 2.273 . S
O6 Cd4 2.411 . S
O6 C9 1.320 . S
O7 Cd4 2.333 . S
O7 C9 1.214 . S
O8 Cd4 2.352 . S
O8 C11 1.258 . S
C9 O6 1.320 . S
C9 O7 1.214 . S
O10 Cd2 2.277 . S
O10 C5 1.209 . S
C11 O8 1.258 . S
C11 O13 1.282 . S
O12 Cd4 2.277 . S
O12 C5 1.226 . S
O13 Cd4 2.356 . S
O13 C11 1.282 . S
C14 O15 1.306 . S
C14 O17 1.160 . S
O15 C14 1.306 . S
O15 Cd16 2.228 . S
Cd16 O15 2.228 . S
Cd16 O20 2.273 . S
Cd16 O24 2.277 . S
O17 C14 1.160 . S
O17 Cd18 2.203 . S
Cd18 O17 2.203 . S
Cd18 O20 2.411 . S
Cd18 O21 2.333 . S
Cd18 O22 2.352 . S
Cd18 O26 2.277 . S
Cd18 O27 2.356 . S
C19 O24 1.209 . S
C19 O26 1.226 . S
O20 Cd16 2.273 . S
O20 Cd18 2.411 . S
O20 C23 1.320 . S
O21 Cd18 2.333 . S
O21 C23 1.214 . S
O22 Cd18 2.352 . S
O22 C25 1.258 . S
C23 O20 1.320 . S
C23 O21 1.214 . S
O24 Cd16 2.277 . S
O24 C19 1.209 . S
C25 O22 1.258 . S
C25 O27 1.282 . S
O26 Cd18 2.277 . S
O26 C19 1.226 . S
O27 Cd18 2.356 . S
O27 C25 1.282 . S
C28 O29 1.306 . S
C28 O31 1.160 . S
O29 C28 1.306 . S
O29 Cd30 2.228 . S
Cd30 O29 2.228 . S
Cd30 O34 2.273 . S
Cd30 O38 2.277 . S
O31 C28 1.160 . S
O31 Cd32 2.203 . S
Cd32 O31 2.203 . S
Cd32 O34 2.411 . S
Cd32 O35 2.333 . S
Cd32 O36 2.352 . S
Cd32 O40 2.277 . S
Cd32 O41 2.356 . S
C33 O38 1.209 . S
C33 O40 1.226 . S
O34 Cd30 2.273 . S
O34 Cd32 2.411 . S
O34 C37 1.320 . S
O35 Cd32 2.333 . S
O35 C37 1.214 . S
O36 Cd32 2.352 . S
O36 C39 1.258 . S
C37 O34 1.320 . S
C37 O35 1.214 . S
O38 Cd30 2.277 . S
O38 C33 1.209 . S
C39 O36 1.258 . S
C39 O41 1.282 . S
O40 Cd32 2.277 . S
O40 C33 1.226 . S
O41 Cd32 2.356 . S
O41 C39 1.282 . S
C42 O43 1.306 . S
C42 O45 1.160 . S
O43 C42 1.306 . S
O43 Cd44 2.228 . S
Cd44 O43 2.228 . S
Cd44 O48 2.273 . S
Cd44 O52 2.277 . S
O45 C42 1.160 . S
O45 Cd46 2.203 . S
Cd46 O45 2.203 . S
Cd46 O48 2.411 . S
Cd46 O49 2.333 . S
Cd46 O50 2.352 . S
Cd46 O54 2.277 . S
Cd46 O55 2.356 . S
C47 O52 1.209 . S
C47 O54 1.226 . S
O48 Cd44 2.273 . S
O48 Cd46 2.411 . S
O48 C51 1.320 . S
O49 Cd46 2.333 . S
O49 C51 1.214 . S
O50 Cd46 2.352 . S
O50 C53 1.258 . S
C51 O48 1.320 . S
C51 O49 1.214 . S
O52 Cd44 2.277 . S
O52 C47 1.209 . S
C53 O50 1.258 . S
C53 O55 1.282 . S
O54 Cd46 2.277 . S
O54 C47 1.226 . S
O55 Cd46 2.356 . S
O55 C53 1.282 . S
C56 O57 1.306 . S
C56 O59 1.160 . S
O57 C56 1.306 . S
O57 Cd58 2.228 . S
Cd58 O57 2.228 . S
Cd58 O62 2.273 . S
Cd58 O66 2.277 . S
O59 C56 1.160 . S
O59 Cd60 2.203 . S
Cd60 O59 2.203 . S
Cd60 O62 2.411 . S
Cd60 O63 2.333 . S
Cd60 O64 2.352 . S
Cd60 O68 2.277 . S
Cd60 O69 2.356 . S
C61 O66 1.209 . S
C61 O68 1.226 . S
O62 Cd58 2.273 . S
O62 Cd60 2.411 . S
O62 C65 1.320 . S
O63 Cd60 2.333 . S
O63 C65 1.214 . S
O64 Cd60 2.352 . S
O64 C67 1.258 . S
C65 O62 1.320 . S
C65 O63 1.214 . S
O66 Cd58 2.277 . S
O66 C61 1.209 . S
C67 O64 1.258 . S
C67 O69 1.282 . S
O68 Cd60 2.277 . S
O68 C61 1.226 . S
O69 Cd60 2.356 . S
O69 C67 1.282 . S
C70 O71 1.306 . S
C70 O73 1.160 . S
O71 C70 1.306 . S
O71 Cd72 2.228 . S
Cd72 O71 2.228 . S
Cd72 O76 2.273 . S
Cd72 O80 2.277 . S
O73 C70 1.160 . S
O73 Cd74 2.203 . S
Cd74 O73 2.203 . S
Cd74 O76 2.411 . S
Cd74 O77 2.333 . S
Cd74 O78 2.352 . S
Cd74 O82 2.277 . S
Cd74 O83 2.356 . S
C75 O80 1.209 . S
C75 O82 1.226 . S
O76 Cd72 2.273 . S
O76 Cd74 2.411 . S
O76 C79 1.320 . S
O77 Cd74 2.333 . S
O77 C79 1.214 . S
O78 Cd74 2.352 . S
O78 C81 1.258 . S
C79 O76 1.320 . S
C79 O77 1.214 . S
O80 Cd72 2.277 . S
O80 C75 1.209 . S
C81 O78 1.258 . S
C81 O83 1.282 . S
O82 Cd74 2.277 . S
O82 C75 1.226 . S
O83 Cd74 2.356 . S
O83 C81 1.282 . S
C84 O85 1.306 . S
C84 O87 1.160 . S
O85 C84 1.306 . S
O85 Cd86 2.228 1_554 S
Cd86 O85 2.228 1_556 S
Cd86 O90 2.273 . S
Cd86 O94 2.277 . S
O87 C84 1.160 . S
O87 Cd88 2.203 1_554 S
Cd88 O87 2.203 1_556 S
Cd88 O90 2.411 . S
Cd88 O91 2.333 . S
Cd88 O92 2.352 . S
Cd88 O96 2.277 . S
Cd88 O97 2.356 . S
C89 O94 1.209 . S
C89 O96 1.226 . S
O90 Cd86 2.273 . S
O90 Cd88 2.411 . S
O90 C93 1.320 . S
O91 Cd88 2.333 . S
O91 C93 1.214 . S
O92 Cd88 2.352 . S
O92 C95 1.258 . S
C93 O90 1.320 . S
C93 O91 1.214 . S
O94 Cd86 2.277 . S
O94 C89 1.209 . S
C95 O92 1.258 . S
C95 O97 1.282 . S
O96 Cd88 2.277 . S
O96 C89 1.226 . S
O97 Cd88 2.356 . S
O97 C95 1.282 . S
C98 O99 1.306 . S
C98 O101 1.160 . S
O99 C98 1.306 . S
O99 Cd100 2.228 . S
Cd100 O99 2.228 . S
Cd100 O104 2.273 . S
Cd100 O108 2.277 . S
O101 C98 1.160 . S
O101 Cd102 2.203 . S
Cd102 O101 2.203 . S
Cd102 O104 2.411 . S
Cd102 O105 2.333 . S
Cd102 O106 2.352 . S
Cd102 O110 2.277 . S
Cd102 O111 2.356 . S
C103 O108 1.209 . S
C103 O110 1.226 . S
O104 Cd100 2.273 . S
O104 Cd102 2.411 . S
O104 C107 1.320 . S
O105 Cd102 2.333 . S
O105 C107 1.214 . S
O106 Cd102 2.352 . S
O106 C109 1.258 . S
C107 O104 1.320 . S
C107 O105 1.214 . S
O108 Cd100 2.277 . S
O108 C103 1.209 . S
C109 O106 1.258 . S
C109 O111 1.282 . S
O110 Cd102 2.277 . S
O110 C103 1.226 . S
O111 Cd102 2.356 . S
O111 C109 1.282 . S
C112 O113 1.306 . S
C112 O115 1.160 . S
O113 C112 1.306 . S
O113 Cd114 2.228 1_554 S
Cd114 O113 2.228 1_556 S
Cd114 O118 2.273 . S
Cd114 O122 2.277 . S
O115 C112 1.160 . S
O115 Cd116 2.203 1_554 S
Cd116 O115 2.203 1_556 S
Cd116 O118 2.411 . S
Cd116 O119 2.333 . S
Cd116 O120 2.352 . S
Cd116 O124 2.277 . S
Cd116 O125 2.356 . S
C117 O122 1.209 . S
C117 O124 1.226 . S
O118 Cd114 2.273 . S
O118 Cd116 2.411 . S
O118 C121 1.320 . S
O119 Cd116 2.333 . S
O119 C121 1.214 . S
O120 Cd116 2.352 . S
O120 C123 1.258 . S
C121 O118 1.320 . S
C121 O119 1.214 . S
O122 Cd114 2.277 . S
O122 C117 1.209 . S
C123 O120 1.258 . S
C123 O125 1.282 . S
O124 Cd116 2.277 . S
O124 C117 1.226 . S
O125 Cd116 2.356 . S
O125 C123 1.282 . S
C126 O127 1.306 . S
C126 O129 1.160 . S
O127 C126 1.306 . S
O127 Cd128 2.228 . S
Cd128 O127 2.228 . S
Cd128 O132 2.273 . S
Cd128 O136 2.277 . S
O129 C126 1.160 . S
O129 Cd130 2.203 . S
Cd130 O129 2.203 . S
Cd130 O132 2.411 . S
Cd130 O133 2.333 . S
Cd130 O134 2.352 . S
Cd130 O138 2.277 . S
Cd130 O139 2.356 . S
C131 O136 1.209 . S
C131 O138 1.226 . S
O132 Cd128 2.273 . S
O132 Cd130 2.411 . S
O132 C135 1.320 . S
O133 Cd130 2.333 . S
O133 C135 1.214 . S
O134 Cd130 2.352 . S
O134 C137 1.258 . S
C135 O132 1.320 . S
C135 O133 1.214 . S
O136 Cd128 2.277 . S
O136 C131 1.209 . S
C137 O134 1.258 . S
C137 O139 1.282 . S
O138 Cd130 2.277 . S
O138 C131 1.226 . S
O139 Cd130 2.356 . S
O139 C137 1.282 . S
C140 O141 1.306 . S
C140 O143 1.160 . S
O141 C140 1.306 . S
O141 Cd142 2.228 . S
Cd142 O141 2.228 . S
Cd142 O146 2.273 . S
Cd142 O150 2.277 . S
O143 C140 1.160 . S
O143 Cd144 2.203 . S
Cd144 O143 2.203 . S
Cd144 O146 2.411 . S
Cd144 O147 2.333 . S
Cd144 O148 2.352 . S
Cd144 O152 2.277 . S
Cd144 O153 2.356 . S
C145 O150 1.209 . S
C145 O152 1.226 . S
O146 Cd142 2.273 . S
O146 Cd144 2.411 . S
O146 C149 1.320 . S
O147 Cd144 2.333 . S
O147 C149 1.214 . S
O148 Cd144 2.352 . S
O148 C151 1.258 . S
C149 O146 1.320 . S
C149 O147 1.214 . S
O150 Cd142 2.277 . S
O150 C145 1.209 . S
C151 O148 1.258 . S
C151 O153 1.282 . S
O152 Cd144 2.277 . S
O152 C145 1.226 . S
O153 Cd144 2.356 . S
O153 C151 1.282 . S
C154 O155 1.306 . S
C154 O157 1.160 . S
O155 C154 1.306 . S
O155 Cd156 2.228 . S
Cd156 O155 2.228 . S
Cd156 O160 2.273 . S
Cd156 O164 2.277 . S
O157 C154 1.160 . S
O157 Cd158 2.203 . S
Cd158 O157 2.203 . S
Cd158 O160 2.411 . S
Cd158 O161 2.333 . S
Cd158 O162 2.352 . S
Cd158 O166 2.277 . S
Cd158 O167 2.356 . S
C159 O164 1.209 . S
C159 O166 1.226 . S
O160 Cd156 2.273 . S
O160 Cd158 2.411 . S
O160 C163 1.320 . S
O161 Cd158 2.333 . S
O161 C163 1.214 . S
O162 Cd158 2.352 . S
O162 C165 1.258 . S
C163 O160 1.320 . S
C163 O161 1.214 . S
O164 Cd156 2.277 . S
O164 C159 1.209 . S
C165 O162 1.258 . S
C165 O167 1.282 . S
O166 Cd158 2.277 . S
O166 C159 1.226 . S
O167 Cd158 2.356 . S
O167 C165 1.282 . S
C168 O169 1.306 . S
C168 O171 1.160 . S
O169 C168 1.306 . S
O169 Cd170 2.228 . S
Cd170 O169 2.228 . S
Cd170 O174 2.273 . S
Cd170 O178 2.277 . S
O171 C168 1.160 . S
O171 Cd172 2.203 . S
Cd172 O171 2.203 . S
Cd172 O174 2.411 . S
Cd172 O175 2.333 . S
Cd172 O176 2.352 . S
Cd172 O180 2.277 . S
Cd172 O181 2.356 . S
C173 O178 1.209 . S
C173 O180 1.226 . S
O174 Cd170 2.273 . S
O174 Cd172 2.411 . S
O174 C177 1.320 . S
O175 Cd172 2.333 . S
O175 C177 1.214 . S
O176 Cd172 2.352 . S
O176 C179 1.258 . S
C177 O174 1.320 . S
C177 O175 1.214 . S
O178 Cd170 2.277 . S
O178 C173 1.209 . S
C179 O176 1.258 . S
C179 O181 1.282 . S
O180 Cd172 2.277 . S
O180 C173 1.226 . S
O181 Cd172 2.356 . S
O181 C179 1.282 . S
C182 O183 1.306 . S
C182 O185 1.160 . S
O183 C182 1.306 . S
O183 Cd184 2.228 . S
Cd184 O183 2.228 . S
Cd184 O188 2.273 . S
Cd184 O192 2.277 . S
O185 C182 1.160 . S
O185 Cd186 2.203 . S
Cd186 O185 2.203 . S
Cd186 O188 2.411 . S
Cd186 O189 2.333 . S
Cd186 O190 2.352 . S
Cd186 O194 2.277 . S
Cd186 O195 2.356 . S
C187 O192 1.209 . S
C187 O194 1.226 . S
O188 Cd184 2.273 . S
O188 Cd186 2.411 . S
O188 C191 1.320 . S
O189 Cd186 2.333 . S
O189 C191 1.214 . S
O190 Cd186 2.352 . S
O190 C193 1.258 . S
C191 O188 1.320 . S
C191 O189 1.214 . S
O192 Cd184 2.277 . S
O192 C187 1.209 . S
C193 O190 1.258 . S
C193 O195 1.282 . S
O194 Cd186 2.277 . S
O194 C187 1.226 . S
O195 Cd186 2.356 . S
O195 C193 1.282 . S
C196 O197 1.306 . S
C196 O199 1.160 . S
O197 C196 1.306 . S
O197 Cd198 2.228 1_556 S
Cd198 O197 2.228 1_554 S
Cd198 O202 2.273 . S
Cd198 O206 2.277 . S
O199 C196 1.160 . S
O199 Cd200 2.203 1_556 S
Cd200 O199 2.203 1_554 S
Cd200 O202 2.411 . S
Cd200 O203 2.333 . S
Cd200 O204 2.352 . S
Cd200 O208 2.277 . S
Cd200 O209 2.356 . S
C201 O206 1.209 . S
C201 O208 1.226 . S
O202 Cd198 2.273 . S
O202 Cd200 2.411 . S
O202 C205 1.320 . S
O203 Cd200 2.333 . S
O203 C205 1.214 . S
O204 Cd200 2.352 . S
O204 C207 1.258 . S
C205 O202 1.320 . S
C205 O203 1.214 . S
O206 Cd198 2.277 . S
O206 C201 1.209 . S
C207 O204 1.258 . S
C207 O209 1.282 . S
O208 Cd200 2.277 . S
O208 C201 1.226 . S
O209 Cd200 2.356 . S
O209 C207 1.282 . S
C210 O211 1.306 . S
C210 O213 1.160 . S
O211 C210 1.306 . S
O211 Cd212 2.228 . S
Cd212 O211 2.228 . S
Cd212 O216 2.273 . S
Cd212 O220 2.277 . S
O213 C210 1.160 . S
O213 Cd214 2.203 . S
Cd214 O213 2.203 . S
Cd214 O216 2.411 . S
Cd214 O217 2.333 . S
Cd214 O218 2.352 . S
Cd214 O222 2.277 . S
Cd214 O223 2.356 . S
C215 O220 1.209 . S
C215 O222 1.226 . S
O216 Cd212 2.273 . S
O216 Cd214 2.411 . S
O216 C219 1.320 . S
O217 Cd214 2.333 . S
O217 C219 1.214 . S
O218 Cd214 2.352 . S
O218 C221 1.258 . S
C219 O216 1.320 . S
C219 O217 1.214 . S
O220 Cd212 2.277 . S
O220 C215 1.209 . S
C221 O218 1.258 . S
C221 O223 1.282 . S
O222 Cd214 2.277 . S
O222 C215 1.226 . S
O223 Cd214 2.356 . S
O223 C221 1.282 . S
C224 O225 1.306 . S
C224 O227 1.160 . S
O225 C224 1.306 . S
O225 Cd226 2.228 . S
Cd226 O225 2.228 . S
Cd226 O230 2.273 . S
Cd226 O234 2.277 . S
O227 C224 1.160 . S
O227 Cd228 2.203 . S
Cd228 O227 2.203 . S
Cd228 O230 2.411 . S
Cd228 O231 2.333 . S
Cd228 O232 2.352 . S
Cd228 O236 2.277 . S
Cd228 O237 2.356 . S
C229 O234 1.209 . S
C229 O236 1.226 . S
O230 Cd226 2.273 . S
O230 Cd228 2.411 . S
O230 C233 1.320 . S
O231 Cd228 2.333 . S
O231 C233 1.214 . S
O232 Cd228 2.352 . S
O232 C235 1.258 . S
C233 O230 1.320 . S
C233 O231 1.214 . S
O234 Cd226 2.277 . S
O234 C229 1.209 . S
C235 O232 1.258 . S
C235 O237 1.282 . S
O236 Cd228 2.277 . S
O236 C229 1.226 . S
O237 Cd228 2.356 . S
O237 C235 1.282 . S
C238 O239 1.306 . S
C238 O241 1.160 . S
O239 C238 1.306 . S
O239 Cd240 2.228 . S
Cd240 O239 2.228 . S
Cd240 O244 2.273 . S
Cd240 O248 2.277 . S
O241 C238 1.160 . S
O241 Cd242 2.203 . S
Cd242 O241 2.203 . S
Cd242 O244 2.411 . S
Cd242 O245 2.333 . S
Cd242 O246 2.352 . S
Cd242 O250 2.277 . S
Cd242 O251 2.356 . S
C243 O248 1.209 . S
C243 O250 1.226 . S
O244 Cd240 2.273 . S
O244 Cd242 2.411 . S
O244 C247 1.320 . S
O245 Cd242 2.333 . S
O245 C247 1.214 . S
O246 Cd242 2.352 . S
O246 C249 1.258 . S
C247 O244 1.320 . S
C247 O245 1.214 . S
O248 Cd240 2.277 . S
O248 C243 1.209 . S
C249 O246 1.258 . S
C249 O251 1.282 . S
O250 Cd242 2.277 . S
O250 C243 1.226 . S
O251 Cd242 2.356 . S
O251 C249 1.282 . S
C252 O253 1.306 . S
C252 O255 1.160 . S
O253 C252 1.306 . S
O253 Cd254 2.228 1_556 S
Cd254 O253 2.228 1_554 S
Cd254 O258 2.273 . S
Cd254 O262 2.277 . S
O255 C252 1.160 . S
O255 Cd256 2.203 1_556 S
Cd256 O255 2.203 1_554 S
Cd256 O258 2.411 . S
Cd256 O259 2.333 . S
Cd256 O260 2.352 . S
Cd256 O264 2.277 . S
Cd256 O265 2.356 . S
C257 O262 1.209 . S
C257 O264 1.226 . S
O258 Cd254 2.273 . S
O258 Cd256 2.411 . S
O258 C261 1.320 . S
O259 Cd256 2.333 . S
O259 C261 1.214 . S
O260 Cd256 2.352 . S
O260 C263 1.258 . S
C261 O258 1.320 . S
C261 O259 1.214 . S
O262 Cd254 2.277 . S
O262 C257 1.209 . S
C263 O260 1.258 . S
C263 O265 1.282 . S
O264 Cd256 2.277 . S
O264 C257 1.226 . S
O265 Cd256 2.356 . S
O265 C263 1.282 . S
C266 O267 1.306 . S
C266 O269 1.160 . S
O267 C266 1.306 . S
O267 Cd268 2.228 . S
Cd268 O267 2.228 . S
Cd268 O272 2.273 . S
Cd268 O276 2.277 . S
O269 C266 1.160 . S
O269 Cd270 2.203 . S
Cd270 O269 2.203 . S
Cd270 O272 2.411 . S
Cd270 O273 2.333 . S
Cd270 O274 2.352 . S
Cd270 O278 2.277 . S
Cd270 O279 2.356 . S
C271 O276 1.209 . S
C271 O278 1.226 . S
O272 Cd268 2.273 . S
O272 Cd270 2.411 . S
O272 C275 1.320 . S
O273 Cd270 2.333 . S
O273 C275 1.214 . S
O274 Cd270 2.352 . S
O274 C277 1.258 . S
C275 O272 1.320 . S
C275 O273 1.214 . S
O276 Cd268 2.277 . S
O276 C271 1.209 . S
C277 O274 1.258 . S
C277 O279 1.282 . S
O278 Cd270 2.277 . S
O278 C271 1.226 . S
O279 Cd270 2.356 . S
O279 C277 1.282 . S
C280 O281 1.306 . S
C280 O283 1.160 . S
O281 C280 1.306 . S
O281 Cd282 2.228 1_554 S
Cd282 O281 2.228 1_556 S
Cd282 O286 2.273 . S
Cd282 O290 2.277 . S
O283 C280 1.160 . S
O283 Cd284 2.203 1_554 S
Cd284 O283 2.203 1_556 S
Cd284 O286 2.411 . S
Cd284 O287 2.333 . S
Cd284 O288 2.352 . S
Cd284 O292 2.277 . S
Cd284 O293 2.356 . S
C285 O290 1.209 . S
C285 O292 1.226 . S
O286 Cd282 2.273 . S
O286 Cd284 2.411 . S
O286 C289 1.320 . S
O287 Cd284 2.333 . S
O287 C289 1.214 . S
O288 Cd284 2.352 . S
O288 C291 1.258 . S
C289 O286 1.320 . S
C289 O287 1.214 . S
O290 Cd282 2.277 . S
O290 C285 1.209 . S
C291 O288 1.258 . S
C291 O293 1.282 . S
O292 Cd284 2.277 . S
O292 C285 1.226 . S
O293 Cd284 2.356 . S
O293 C291 1.282 . S
C294 O295 1.306 . S
C294 O297 1.160 . S
O295 C294 1.306 . S
O295 Cd296 2.228 . S
Cd296 O295 2.228 . S
Cd296 O300 2.273 . S
Cd296 O304 2.277 . S
O297 C294 1.160 . S
O297 Cd298 2.203 . S
Cd298 O297 2.203 . S
Cd298 O300 2.411 . S
Cd298 O301 2.333 . S
Cd298 O302 2.352 . S
Cd298 O306 2.277 . S
Cd298 O307 2.356 . S
C299 O304 1.209 . S
C299 O306 1.226 . S
O300 Cd296 2.273 . S
O300 Cd298 2.411 . S
O300 C303 1.320 . S
O301 Cd298 2.333 . S
O301 C303 1.214 . S
O302 Cd298 2.352 . S
O302 C305 1.258 . S
C303 O300 1.320 . S
C303 O301 1.214 . S
O304 Cd296 2.277 . S
O304 C299 1.209 . S
C305 O302 1.258 . S
C305 O307 1.282 . S
O306 Cd298 2.277 . S
O306 C299 1.226 . S
O307 Cd298 2.356 . S
O307 C305 1.282 . S
C308 O309 1.306 . S
C308 O311 1.160 . S
O309 C308 1.306 . S
O309 Cd310 2.228 . S
Cd310 O309 2.228 . S
Cd310 O314 2.273 . S
Cd310 O318 2.277 . S
O311 C308 1.160 . S
O311 Cd312 2.203 . S
Cd312 O311 2.203 . S
Cd312 O314 2.411 . S
Cd312 O315 2.333 . S
Cd312 O316 2.352 . S
Cd312 O320 2.277 . S
Cd312 O321 2.356 . S
C313 O318 1.209 . S
C313 O320 1.226 . S
O314 Cd310 2.273 . S
O314 Cd312 2.411 . S
O314 C317 1.320 . S
O315 Cd312 2.333 . S
O315 C317 1.214 . S
O316 Cd312 2.352 . S
O316 C319 1.258 . S
C317 O314 1.320 . S
C317 O315 1.214 . S
O318 Cd310 2.277 . S
O318 C313 1.209 . S
C319 O316 1.258 . S
C319 O321 1.282 . S
O320 Cd312 2.277 . S
O320 C313 1.226 . S
O321 Cd312 2.356 . S
O321 C319 1.282 . S
C322 O323 1.306 . S
C322 O325 1.160 . S
O323 C322 1.306 . S
O323 Cd324 2.228 . S
Cd324 O323 2.228 . S
Cd324 O328 2.273 . S
Cd324 O332 2.277 . S
O325 C322 1.160 . S
O325 Cd326 2.203 . S
Cd326 O325 2.203 . S
Cd326 O328 2.411 . S
Cd326 O329 2.333 . S
Cd326 O330 2.352 . S
Cd326 O334 2.277 . S
Cd326 O335 2.356 . S
C327 O332 1.209 . S
C327 O334 1.226 . S
O328 Cd324 2.273 . S
O328 Cd326 2.411 . S
O328 C331 1.320 . S
O329 Cd326 2.333 . S
O329 C331 1.214 . S
O330 Cd326 2.352 . S
O330 C333 1.258 . S
C331 O328 1.320 . S
C331 O329 1.214 . S
O332 Cd324 2.277 . S
O332 C327 1.209 . S
C333 O330 1.258 . S
C333 O335 1.282 . S
O334 Cd326 2.277 . S
O334 C327 1.226 . S
O335 Cd326 2.356 . S
O335 C333 1.282 . S
C336 O337 1.306 . S
C336 O339 1.160 . S
O337 C336 1.306 . S
O337 Cd338 2.228 . S
Cd338 O337 2.228 . S
Cd338 O342 2.273 . S
Cd338 O346 2.277 . S
O339 C336 1.160 . S
O339 Cd340 2.203 . S
Cd340 O339 2.203 . S
Cd340 O342 2.411 . S
Cd340 O343 2.333 . S
Cd340 O344 2.352 . S
Cd340 O348 2.277 . S
Cd340 O349 2.356 . S
C341 O346 1.209 . S
C341 O348 1.226 . S
O342 Cd338 2.273 . S
O342 Cd340 2.411 . S
O342 C345 1.320 . S
O343 Cd340 2.333 . S
O343 C345 1.214 . S
O344 Cd340 2.352 . S
O344 C347 1.258 . S
C345 O342 1.320 . S
C345 O343 1.214 . S
O346 Cd338 2.277 . S
O346 C341 1.209 . S
C347 O344 1.258 . S
C347 O349 1.282 . S
O348 Cd340 2.277 . S
O348 C341 1.226 . S
O349 Cd340 2.356 . S
O349 C347 1.282 . S
C350 O351 1.306 . S
C350 O353 1.160 . S
O351 C350 1.306 . S
O351 Cd352 2.228 . S
Cd352 O351 2.228 . S
Cd352 O356 2.273 . S
Cd352 O360 2.277 . S
O353 C350 1.160 . S
O353 Cd354 2.203 . S
Cd354 O353 2.203 . S
Cd354 O356 2.411 . S
Cd354 O357 2.333 . S
Cd354 O358 2.352 . S
Cd354 O362 2.277 . S
Cd354 O363 2.356 . S
C355 O360 1.209 . S
C355 O362 1.226 . S
O356 Cd352 2.273 . S
O356 Cd354 2.411 . S
O356 C359 1.320 . S
O357 Cd354 2.333 . S
O357 C359 1.214 . S
O358 Cd354 2.352 . S
O358 C361 1.258 . S
C359 O356 1.320 . S
C359 O357 1.214 . S
O360 Cd352 2.277 . S
O360 C355 1.209 . S
C361 O358 1.258 . S
C361 O363 1.282 . S
O362 Cd354 2.277 . S
O362 C355 1.226 . S
O363 Cd354 2.356 . S
O363 C361 1.282 . S
C364 O365 1.306 . S
C364 O367 1.160 . S
O365 C364 1.306 . S
O365 Cd366 2.228 1_554 S
Cd366 O365 2.228 1_556 S
Cd366 O370 2.273 . S
Cd366 O374 2.277 . S
O367 C364 1.160 . S
O367 Cd368 2.203 1_554 S
Cd368 O367 2.203 1_556 S
Cd368 O370 2.411 . S
Cd368 O371 2.333 . S
Cd368 O372 2.352 . S
Cd368 O376 2.277 . S
Cd368 O377 2.356 . S
C369 O374 1.209 . S
C369 O376 1.226 . S
O370 Cd366 2.273 . S
O370 Cd368 2.411 . S
O370 C373 1.320 . S
O371 Cd368 2.333 . S
O371 C373 1.214 . S
O372 Cd368 2.352 . S
O372 C375 1.258 . S
C373 O370 1.320 . S
C373 O371 1.214 . S
O374 Cd366 2.277 . S
O374 C369 1.209 . S
C375 O372 1.258 . S
C375 O377 1.282 . S
O376 Cd368 2.277 . S
O376 C369 1.226 . S
O377 Cd368 2.356 . S
O377 C375 1.282 . S
C378 O379 1.306 . S
C378 O381 1.160 . S
O379 C378 1.306 . S
O379 Cd380 2.228 . S
Cd380 O379 2.228 . S
Cd380 O384 2.273 . S
Cd380 O388 2.277 . S
O381 C378 1.160 . S
O381 Cd382 2.203 . S
Cd382 O381 2.203 . S
Cd382 O384 2.411 . S
Cd382 O385 2.333 . S
Cd382 O386 2.352 . S
Cd382 O390 2.277 . S
Cd382 O391 2.356 . S
C383 O388 1.209 . S
C383 O390 1.226 . S
O384 Cd380 2.273 . S
O384 Cd382 2.411 . S
O384 C387 1.320 . S
O385 Cd382 2.333 . S
O385 C387 1.214 . S
O386 Cd382 2.352 . S
O386 C389 1.258 . S
C387 O384 1.320 . S
C387 O385 1.214 . S
O388 Cd380 2.277 . S
O388 C383 1.209 . S
C389 O386 1.258 . S
C389 O391 1.282 . S
O390 Cd382 2.277 . S
O390 C383 1.226 . S
O391 Cd382 2.356 . S
O391 C389 1.282 . S
C392 O393 1.306 . S
C392 O395 1.160 . S
O393 C392 1.306 . S
O393 Cd394 2.228 1_556 S
Cd394 O393 2.228 1_554 S
Cd394 O398 2.273 . S
Cd394 O402 2.277 . S
O395 C392 1.160 . S
O395 Cd396 2.203 1_556 S
Cd396 O395 2.203 1_554 S
Cd396 O398 2.411 . S
Cd396 O399 2.333 . S
Cd396 O400 2.352 . S
Cd396 O404 2.277 . S
Cd396 O405 2.356 . S
C397 O402 1.209 . S
C397 O404 1.226 . S
O398 Cd394 2.273 . S
O398 Cd396 2.411 . S
O398 C401 1.320 . S
O399 Cd396 2.333 . S
O399 C401 1.214 . S
O400 Cd396 2.352 . S
O400 C403 1.258 . S
C401 O398 1.320 . S
C401 O399 1.214 . S
O402 Cd394 2.277 . S
O402 C397 1.209 . S
C403 O400 1.258 . S
C403 O405 1.282 . S
O404 Cd396 2.277 . S
O404 C397 1.226 . S
O405 Cd396 2.356 . S
O405 C403 1.282 . S
C406 O407 1.306 . S
C406 O409 1.160 . S
O407 C406 1.306 . S
O407 Cd408 2.228 . S
Cd408 O407 2.228 . S
Cd408 O412 2.273 . S
Cd408 O416 2.277 . S
O409 C406 1.160 . S
O409 Cd410 2.203 . S
Cd410 O409 2.203 . S
Cd410 O412 2.411 . S
Cd410 O413 2.333 . S
Cd410 O414 2.352 . S
Cd410 O418 2.277 . S
Cd410 O419 2.356 . S
C411 O416 1.209 . S
C411 O418 1.226 . S
O412 Cd408 2.273 . S
O412 Cd410 2.411 . S
O412 C415 1.320 . S
O413 Cd410 2.333 . S
O413 C415 1.214 . S
O414 Cd410 2.352 . S
O414 C417 1.258 . S
C415 O412 1.320 . S
C415 O413 1.214 . S
O416 Cd408 2.277 . S
O416 C411 1.209 . S
C417 O414 1.258 . S
C417 O419 1.282 . S
O418 Cd410 2.277 . S
O418 C411 1.226 . S
O419 Cd410 2.356 . S
O419 C417 1.282 . S
C420 O421 1.306 . S
C420 O423 1.160 . S
O421 C420 1.306 . S
O421 Cd422 2.228 . S
Cd422 O421 2.228 . S
Cd422 O426 2.273 . S
Cd422 O430 2.277 . S
O423 C420 1.160 . S
O423 Cd424 2.203 . S
Cd424 O423 2.203 . S
Cd424 O426 2.411 . S
Cd424 O427 2.333 . S
Cd424 O428 2.352 . S
Cd424 O432 2.277 . S
Cd424 O433 2.356 . S
C425 O430 1.209 . S
C425 O432 1.226 . S
O426 Cd422 2.273 . S
O426 Cd424 2.411 . S
O426 C429 1.320 . S
O427 Cd424 2.333 . S
O427 C429 1.214 . S
O428 Cd424 2.352 . S
O428 C431 1.258 . S
C429 O426 1.320 . S
C429 O427 1.214 . S
O430 Cd422 2.277 . S
O430 C425 1.209 . S
C431 O428 1.258 . S
C431 O433 1.282 . S
O432 Cd424 2.277 . S
O432 C425 1.226 . S
O433 Cd424 2.356 . S
O433 C431 1.282 . S
C434 O435 1.306 . S
C434 O437 1.160 . S
O435 C434 1.306 . S
O435 Cd436 2.228 . S
Cd436 O435 2.228 . S
Cd436 O440 2.273 . S
Cd436 O444 2.277 . S
O437 C434 1.160 . S
O437 Cd438 2.203 . S
Cd438 O437 2.203 . S
Cd438 O440 2.411 . S
Cd438 O441 2.333 . S
Cd438 O442 2.352 . S
Cd438 O446 2.277 . S
Cd438 O447 2.356 . S
C439 O444 1.209 . S
C439 O446 1.226 . S
O440 Cd436 2.273 . S
O440 Cd438 2.411 . S
O440 C443 1.320 . S
O441 Cd438 2.333 . S
O441 C443 1.214 . S
O442 Cd438 2.352 . S
O442 C445 1.258 . S
C443 O440 1.320 . S
C443 O441 1.214 . S
O444 Cd436 2.277 . S
O444 C439 1.209 . S
C445 O442 1.258 . S
C445 O447 1.282 . S
O446 Cd438 2.277 . S
O446 C439 1.226 . S
O447 Cd438 2.356 . S
O447 C445 1.282 . S
H448 C456 0.950 . S
H449 C461 0.950 . S
H450 C458 0.950 . S
H451 C460 0.950 1_554 S
H452 C462 0.950 . S
H453 C464 0.950 . S
H454 C466 0.950 1_556 S
H455 C467 0.950 . S
C456 H448 0.950 . S
C456 C457 1.386 . S
C456 C458 1.391 . S
C457 C456 1.386 . S
C457 C461 1.393 . S
C458 H450 0.950 . S
C458 C456 1.391 . S
C458 C459 1.400 . S
C459 C458 1.400 . S
C459 C460 1.398 . S
C459 C465 1.491 1_556 S
C460 H451 0.950 1_556 S
C460 C459 1.398 . S
C460 C461 1.391 . S
C461 H449 0.950 . S
C461 C457 1.393 . S
C461 C460 1.391 . S
C462 H452 0.950 . S
C462 C463 1.386 . S
C462 C464 1.391 . S
C463 C462 1.386 . S
C463 C467 1.393 . S
C464 H453 0.950 . S
C464 C462 1.391 . S
C464 C465 1.400 . S
C465 C459 1.491 1_554 S
C465 C464 1.400 . S
C465 C466 1.398 . S
C466 H454 0.950 1_554 S
C466 C465 1.398 . S
C466 C467 1.391 . S
C467 H455 0.950 . S
C467 C463 1.393 . S
C467 C466 1.391 . S
H468 C476 0.950 . S
H469 C481 0.950 . S
H470 C478 0.950 . S
H471 C480 0.950 . S
H472 C482 0.950 . S
H473 C484 0.950 . S
H474 C486 0.950 . S
H475 C487 0.950 . S
C476 H468 0.950 . S
C476 C477 1.386 . S
C476 C478 1.391 . S
C477 C476 1.386 . S
C477 C481 1.393 . S
C478 H470 0.950 . S
C478 C476 1.391 . S
C478 C479 1.400 . S
C479 C478 1.400 . S
C479 C480 1.398 . S
C479 C485 1.491 1_565 S
C480 H471 0.950 . S
C480 C479 1.398 . S
C480 C481 1.391 . S
C481 H469 0.950 . S
C481 C477 1.393 . S
C481 C480 1.391 . S
C482 H472 0.950 . S
C482 C483 1.386 . S
C482 C484 1.391 . S
C483 C482 1.386 . S
C483 C487 1.393 . S
C484 H473 0.950 . S
C484 C482 1.391 . S
C484 C485 1.400 . S
C485 C479 1.491 1_545 S
C485 C484 1.400 . S
C485 C486 1.398 . S
C486 H474 0.950 . S
C486 C485 1.398 . S
C486 C487 1.391 . S
C487 H475 0.950 . S
C487 C483 1.393 . S
C487 C486 1.391 . S
H488 C496 0.950 . S
H489 C501 0.950 . S
H490 C498 0.950 . S
H491 C500 0.950 . S
H492 C502 0.950 . S
H493 C504 0.950 . S
H494 C506 0.950 . S
H495 C507 0.950 . S
C496 H488 0.950 . S
C496 C497 1.386 . S
C496 C498 1.391 . S
C497 C496 1.386 . S
C497 C501 1.393 . S
C498 H490 0.950 . S
C498 C496 1.391 . S
C498 C499 1.400 . S
C499 C498 1.400 . S
C499 C500 1.398 . S
C499 C505 1.491 . S
C500 H491 0.950 . S
C500 C499 1.398 . S
C500 C501 1.391 . S
C501 H489 0.950 . S
C501 C497 1.393 . S
C501 C500 1.391 . S
C502 H492 0.950 . S
C502 C503 1.386 . S
C502 C504 1.391 . S
C503 C502 1.386 . S
C503 C507 1.393 . S
C504 H493 0.950 . S
C504 C502 1.391 . S
C504 C505 1.400 . S
C505 C499 1.491 . S
C505 C504 1.400 . S
C505 C506 1.398 . S
C506 H494 0.950 . S
C506 C505 1.398 . S
C506 C507 1.391 . S
C507 H495 0.950 . S
C507 C503 1.393 . S
C507 C506 1.391 . S
H508 C516 0.950 . S
H509 C521 0.950 . S
H510 C518 0.950 . S
H511 C520 0.950 . S
H512 C522 0.950 . S
H513 C524 0.950 . S
H514 C526 0.950 . S
H515 C527 0.950 . S
C516 H508 0.950 . S
C516 C517 1.386 . S
C516 C518 1.391 . S
C517 C516 1.386 . S
C517 C521 1.393 . S
C518 H510 0.950 . S
C518 C516 1.391 . S
C518 C519 1.400 . S
C519 C518 1.400 . S
C519 C520 1.398 . S
C519 C525 1.491 1_545 S
C520 H511 0.950 . S
C520 C519 1.398 . S
C520 C521 1.391 . S
C521 H509 0.950 . S
C521 C517 1.393 . S
C521 C520 1.391 . S
C522 H512 0.950 . S
C522 C523 1.386 . S
C522 C524 1.391 . S
C523 C522 1.386 . S
C523 C527 1.393 . S
C524 H513 0.950 . S
C524 C522 1.391 . S
C524 C525 1.400 . S
C525 C519 1.491 1_565 S
C525 C524 1.400 . S
C525 C526 1.398 . S
C526 H514 0.950 . S
C526 C525 1.398 . S
C526 C527 1.391 . S
C527 H515 0.950 . S
C527 C523 1.393 . S
C527 C526 1.391 . S
H528 C536 0.950 . S
H529 C541 0.950 . S
H530 C538 0.953 . S
H531 C540 0.950 . S
H532 C542 0.950 . S
H533 C544 0.953 . S
H534 C546 0.950 . S
H535 C547 0.950 . S
C536 H528 0.950 . S
C536 C537 1.386 . S
C536 C538 1.390 1_554 S
C537 C536 1.386 . S
C537 C541 1.393 . S
C538 H530 0.953 . S
C538 C536 1.390 1_556 S
C538 C539 1.399 1_556 S
C539 C538 1.399 1_554 S
C539 C540 1.398 . S
C539 C545 1.491 1_554 S
C540 H531 0.950 . S
C540 C539 1.398 . S
C540 C541 1.391 . S
C541 H529 0.950 . S
C541 C537 1.393 . S
C541 C540 1.391 . S
C542 H532 0.950 . S
C542 C543 1.386 . S
C542 C544 1.390 1_556 S
C543 C542 1.386 . S
C543 C547 1.393 . S
C544 H533 0.953 . S
C544 C542 1.390 1_554 S
C544 C545 1.399 1_554 S
C545 C539 1.491 1_556 S
C545 C544 1.399 1_556 S
C545 C546 1.398 . S
C546 H534 0.950 . S
C546 C545 1.398 . S
C546 C547 1.391 . S
C547 H535 0.950 . S
C547 C543 1.393 . S
C547 C546 1.391 . S
H548 C556 0.950 . S
H549 C561 0.950 . S
H550 C558 0.950 . S
H551 C560 0.950 . S
H552 C562 0.950 . S
H553 C564 0.950 . S
H554 C566 0.950 . S
H555 C567 0.950 . S
C556 H548 0.950 . S
C556 C557 1.386 . S
C556 C558 1.391 . S
C557 C556 1.386 . S
C557 C561 1.393 . S
C558 H550 0.950 . S
C558 C556 1.391 . S
C558 C559 1.400 . S
C559 C558 1.400 . S
C559 C560 1.398 . S
C559 C565 1.491 1_565 S
C560 H551 0.950 . S
C560 C559 1.398 . S
C560 C561 1.391 . S
C561 H549 0.950 . S
C561 C557 1.393 . S
C561 C560 1.391 . S
C562 H552 0.950 . S
C562 C563 1.386 . S
C562 C564 1.391 . S
C563 C562 1.386 . S
C563 C567 1.393 . S
C564 H553 0.950 . S
C564 C562 1.391 . S
C564 C565 1.400 . S
C565 C559 1.491 1_545 S
C565 C564 1.400 . S
C565 C566 1.398 . S
C566 H554 0.950 . S
C566 C565 1.398 . S
C566 C567 1.391 . S
C567 H555 0.950 . S
C567 C563 1.393 . S
C567 C566 1.391 . S
H568 C576 0.950 . S
H569 C581 0.950 . S
H570 C578 0.950 . S
H571 C580 0.950 . S
H572 C582 0.950 . S
H573 C584 0.950 . S
H574 C586 0.950 . S
H575 C587 0.950 . S
C576 H568 0.950 . S
C576 C577 1.386 . S
C576 C578 1.391 . S
C577 C576 1.386 . S
C577 C581 1.393 . S
C578 H570 0.950 . S
C578 C576 1.391 . S
C578 C579 1.400 . S
C579 C578 1.400 . S
C579 C580 1.398 . S
C579 C585 1.491 . S
C580 H571 0.950 . S
C580 C579 1.398 . S
C580 C581 1.391 . S
C581 H569 0.950 . S
C581 C577 1.393 . S
C581 C580 1.391 . S
C582 H572 0.950 . S
C582 C583 1.386 . S
C582 C584 1.391 . S
C583 C582 1.386 . S
C583 C587 1.393 . S
C584 H573 0.950 . S
C584 C582 1.391 . S
C584 C585 1.400 . S
C585 C579 1.491 . S
C585 C584 1.400 . S
C585 C586 1.398 . S
C586 H574 0.950 . S
C586 C585 1.398 . S
C586 C587 1.391 . S
C587 H575 0.950 . S
C587 C583 1.393 . S
C587 C586 1.391 . S
H588 C596 0.950 . S
H589 C601 0.950 . S
H590 C598 0.950 . S
H591 C600 0.950 . S
H592 C602 0.950 . S
H593 C604 0.950 . S
H594 C606 0.950 . S
H595 C607 0.950 . S
C596 H588 0.950 . S
C596 C597 1.386 . S
C596 C598 1.391 . S
C597 C596 1.386 . S
C597 C601 1.393 . S
C598 H590 0.950 . S
C598 C596 1.391 . S
C598 C599 1.400 . S
C599 C598 1.400 . S
C599 C600 1.398 . S
C599 C605 1.491 1_565 S
C600 H591 0.950 . S
C600 C599 1.398 . S
C600 C601 1.391 . S
C601 H589 0.950 . S
C601 C597 1.393 . S
C601 C600 1.391 . S
C602 H592 0.950 . S
C602 C603 1.386 . S
C602 C604 1.391 . S
C603 C602 1.386 . S
C603 C607 1.393 . S
C604 H593 0.950 . S
C604 C602 1.391 . S
C604 C605 1.400 . S
C605 C599 1.491 1_545 S
C605 C604 1.400 . S
C605 C606 1.398 . S
C606 H594 0.950 . S
C606 C605 1.398 . S
C606 C607 1.391 . S
C607 H595 0.950 . S
C607 C603 1.393 . S
C607 C606 1.391 . S
H608 C616 0.950 . S
H609 C621 0.950 . S
H610 C618 0.950 . S
H611 C620 0.950 . S
H612 C622 0.950 . S
H613 C624 0.950 . S
H614 C626 0.950 . S
H615 C627 0.950 . S
C616 H608 0.950 . S
C616 C617 1.386 . S
C616 C618 1.391 . S
C617 C616 1.386 . S
C617 C621 1.393 . S
C618 H610 0.950 . S
C618 C616 1.391 . S
C618 C619 1.400 . S
C619 C618 1.400 . S
C619 C620 1.398 . S
C619 C625 1.491 . S
C620 H611 0.950 . S
C620 C619 1.398 . S
C620 C621 1.391 . S
C621 H609 0.950 . S
C621 C617 1.393 . S
C621 C620 1.391 . S
C622 H612 0.950 . S
C622 C623 1.386 . S
C622 C624 1.391 . S
C623 C622 1.386 . S
C623 C627 1.393 . S
C624 H613 0.950 . S
C624 C622 1.391 . S
C624 C625 1.400 . S
C625 C619 1.491 . S
C625 C624 1.400 . S
C625 C626 1.398 . S
C626 H614 0.950 . S
C626 C625 1.398 . S
C626 C627 1.391 . S
C627 H615 0.950 . S
C627 C623 1.393 . S
C627 C626 1.391 . S
H628 C636 0.950 . S
H629 C641 0.950 . S
H630 C638 0.950 . S
H631 C640 0.950 . S
H632 C642 0.950 . S
H633 C644 0.950 . S
H634 C646 0.950 . S
H635 C647 0.950 . S
C636 H628 0.950 . S
C636 C637 1.386 . S
C636 C638 1.391 . S
C637 C636 1.386 . S
C637 C641 1.393 . S
C638 H630 0.950 . S
C638 C636 1.391 . S
C638 C639 1.400 . S
C639 C638 1.400 . S
C639 C640 1.398 . S
C639 C645 1.491 . S
C640 H631 0.950 . S
C640 C639 1.398 . S
C640 C641 1.391 . S
C641 H629 0.950 . S
C641 C637 1.393 . S
C641 C640 1.391 . S
C642 H632 0.950 . S
C642 C643 1.386 . S
C642 C644 1.391 . S
C643 C642 1.386 . S
C643 C647 1.393 . S
C644 H633 0.950 . S
C644 C642 1.391 . S
C644 C645 1.400 . S
C645 C639 1.491 . S
C645 C644 1.400 . S
C645 C646 1.398 . S
C646 H634 0.950 . S
C646 C645 1.398 . S
C646 C647 1.391 . S
C647 H635 0.950 . S
C647 C643 1.393 . S
C647 C646 1.391 . S
H648 C656 0.950 1_554 S
H649 C661 0.950 . S
H650 C658 0.950 . S
H651 C660 0.950 . S
H652 C662 0.950 1_556 S
H653 C664 0.950 . S
H654 C666 0.950 . S
H655 C667 0.950 . S
C656 H648 0.950 1_556 S
C656 C657 1.386 . S
C656 C658 1.391 1_556 S
C657 C656 1.386 . S
C657 C661 1.393 . S
C658 H650 0.950 . S
C658 C656 1.391 1_554 S
C658 C659 1.400 1_554 S
C659 C658 1.400 1_556 S
C659 C660 1.398 . S
C659 C665 1.491 1_556 S
C660 H651 0.950 . S
C660 C659 1.398 . S
C660 C661 1.391 . S
C661 H649 0.950 . S
C661 C657 1.393 . S
C661 C660 1.391 . S
C662 H652 0.950 1_554 S
C662 C663 1.386 . S
C662 C664 1.391 1_554 S
C663 C662 1.386 . S
C663 C667 1.393 . S
C664 H653 0.950 . S
C664 C662 1.391 1_556 S
C664 C665 1.400 1_556 S
C665 C659 1.491 1_554 S
C665 C664 1.400 1_554 S
C665 C666 1.398 . S
C666 H654 0.950 . S
C666 C665 1.398 . S
C666 C667 1.391 . S
C667 H655 0.950 . S
C667 C663 1.393 . S
C667 C666 1.391 . S
H668 C676 0.950 . S
H669 C681 0.950 . S
H670 C678 0.950 . S
H671 C680 0.950 . S
H672 C682 0.950 . S
H673 C684 0.950 . S
H674 C686 0.950 . S
H675 C687 0.950 . S
C676 H668 0.950 . S
C676 C677 1.386 . S
C676 C678 1.391 . S
C677 C676 1.386 . S
C677 C681 1.393 . S
C678 H670 0.950 . S
C678 C676 1.391 . S
C678 C679 1.400 . S
C679 C678 1.400 . S
C679 C680 1.398 . S
C679 C685 1.491 . S
C680 H671 0.950 . S
C680 C679 1.398 . S
C680 C681 1.391 . S
C681 H669 0.950 . S
C681 C677 1.393 . S
C681 C680 1.391 . S
C682 H672 0.950 . S
C682 C683 1.386 . S
C682 C684 1.391 . S
C683 C682 1.386 . S
C683 C687 1.393 . S
C684 H673 0.950 . S
C684 C682 1.391 . S
C684 C685 1.400 . S
C685 C679 1.491 . S
C685 C684 1.400 . S
C685 C686 1.398 . S
C686 H674 0.950 . S
C686 C685 1.398 . S
C686 C687 1.391 . S
C687 H675 0.950 . S
C687 C683 1.393 . S
C687 C686 1.391 . S
H688 C696 0.950 . S
H689 C701 0.950 . S
H690 C698 0.950 . S
H691 C700 0.950 . S
H692 C702 0.950 . S
H693 C704 0.950 . S
H694 C706 0.950 . S
H695 C707 0.950 . S
C696 H688 0.950 . S
C696 C697 1.386 . S
C696 C698 1.391 . S
C697 C696 1.386 . S
C697 C701 1.393 . S
C698 H690 0.950 . S
C698 C696 1.391 . S
C698 C699 1.400 . S
C699 C698 1.400 . S
C699 C700 1.398 . S
C699 C705 1.491 . S
C700 H691 0.950 . S
C700 C699 1.398 . S
C700 C701 1.391 . S
C701 H689 0.950 . S
C701 C697 1.393 . S
C701 C700 1.391 . S
C702 H692 0.950 . S
C702 C703 1.386 . S
C702 C704 1.391 . S
C703 C702 1.386 . S
C703 C707 1.393 . S
C704 H693 0.950 . S
C704 C702 1.391 . S
C704 C705 1.400 . S
C705 C699 1.491 . S
C705 C704 1.400 . S
C705 C706 1.398 . S
C706 H694 0.950 . S
C706 C705 1.398 . S
C706 C707 1.391 . S
C707 H695 0.950 . S
C707 C703 1.393 . S
C707 C706 1.391 . S
H708 C716 0.950 . S
H709 C721 0.950 . S
H710 C718 0.950 . S
H711 C720 0.950 . S
H712 C722 0.950 . S
H713 C724 0.950 . S
H714 C726 0.950 . S
H715 C727 0.950 . S
C716 H708 0.950 . S
C716 C717 1.386 . S
C716 C718 1.391 . S
C717 C716 1.386 . S
C717 C721 1.393 . S
C718 H710 0.950 . S
C718 C716 1.391 . S
C718 C719 1.400 . S
C719 C718 1.400 . S
C719 C720 1.398 . S
C719 C725 1.491 . S
C720 H711 0.950 . S
C720 C719 1.398 . S
C720 C721 1.391 . S
C721 H709 0.950 . S
C721 C717 1.393 . S
C721 C720 1.391 . S
C722 H712 0.950 . S
C722 C723 1.386 . S
C722 C724 1.391 . S
C723 C722 1.386 . S
C723 C727 1.393 . S
C724 H713 0.950 . S
C724 C722 1.391 . S
C724 C725 1.400 . S
C725 C719 1.491 . S
C725 C724 1.400 . S
C725 C726 1.398 . S
C726 H714 0.950 . S
C726 C725 1.398 . S
C726 C727 1.391 . S
C727 H715 0.950 . S
C727 C723 1.393 . S
C727 C726 1.391 . S
H728 C736 0.950 1_556 S
H729 C741 0.950 . S
H730 C738 0.950 . S
H731 C740 0.950 . S
H732 C742 0.950 1_554 S
H733 C744 0.950 . S
H734 C746 0.950 . S
H735 C747 0.950 . S
C736 H728 0.950 1_554 S
C736 C737 1.386 . S
C736 C738 1.391 1_554 S
C737 C736 1.386 . S
C737 C741 1.393 . S
C738 H730 0.950 . S
C738 C736 1.391 1_556 S
C738 C739 1.400 1_556 S
C739 C738 1.400 1_554 S
C739 C740 1.398 . S
C739 C745 1.491 1_554 S
C740 H731 0.950 . S
C740 C739 1.398 . S
C740 C741 1.391 . S
C741 H729 0.950 . S
C741 C737 1.393 . S
C741 C740 1.391 . S
C742 H732 0.950 1_556 S
C742 C743 1.386 . S
C742 C744 1.391 1_556 S
C743 C742 1.386 . S
C743 C747 1.393 . S
C744 H733 0.950 . S
C744 C742 1.391 1_554 S
C744 C745 1.400 1_554 S
C745 C739 1.491 1_556 S
C745 C744 1.400 1_556 S
C745 C746 1.398 . S
C746 H734 0.950 . S
C746 C745 1.398 . S
C746 C747 1.391 . S
C747 H735 0.950 . S
C747 C743 1.393 . S
C747 C746 1.391 . S
H748 C756 0.950 . S
H749 C761 0.950 . S
H750 C758 0.950 . S
H751 C760 0.950 . S
H752 C762 0.950 . S
H753 C764 0.950 . S
H754 C766 0.950 . S
H755 C767 0.950 . S
C756 H748 0.950 . S
C756 C757 1.386 . S
C756 C758 1.391 . S
C757 C756 1.386 . S
C757 C761 1.393 . S
C758 H750 0.950 . S
C758 C756 1.391 . S
C758 C759 1.400 . S
C759 C758 1.400 . S
C759 C760 1.398 . S
C759 C765 1.491 . S
C760 H751 0.950 . S
C760 C759 1.398 . S
C760 C761 1.391 . S
C761 H749 0.950 . S
C761 C757 1.393 . S
C761 C760 1.391 . S
C762 H752 0.950 . S
C762 C763 1.386 . S
C762 C764 1.391 . S
C763 C762 1.386 . S
C763 C767 1.393 . S
C764 H753 0.950 . S
C764 C762 1.391 . S
C764 C765 1.400 . S
C765 C759 1.491 . S
C765 C764 1.400 . S
C765 C766 1.398 . S
C766 H754 0.950 . S
C766 C765 1.398 . S
C766 C767 1.391 . S
C767 H755 0.950 . S
C767 C763 1.393 . S
C767 C766 1.391 . S
H768 C776 0.950 . S
H769 C781 0.950 . S
H770 C778 0.950 . S
H771 C780 0.950 . S
H772 C782 0.950 . S
H773 C784 0.950 . S
H774 C786 0.950 . S
H775 C787 0.950 . S
C776 H768 0.950 . S
C776 C777 1.386 . S
C776 C778 1.391 . S
C777 C776 1.386 . S
C777 C781 1.393 . S
C778 H770 0.950 . S
C778 C776 1.391 . S
C778 C779 1.400 . S
C779 C778 1.400 . S
C779 C780 1.398 . S
C779 C785 1.491 . S
C780 H771 0.950 . S
C780 C779 1.398 . S
C780 C781 1.391 . S
C781 H769 0.950 . S
C781 C777 1.393 . S
C781 C780 1.391 . S
C782 H772 0.950 . S
C782 C783 1.386 . S
C782 C784 1.391 . S
C783 C782 1.386 . S
C783 C787 1.393 . S
C784 H773 0.950 . S
C784 C782 1.391 . S
C784 C785 1.400 . S
C785 C779 1.491 . S
C785 C784 1.400 . S
C785 C786 1.398 . S
C786 H774 0.950 . S
C786 C785 1.398 . S
C786 C787 1.391 . S
C787 H775 0.950 . S
C787 C783 1.393 . S
C787 C786 1.391 . S
H788 C796 0.950 1_655 S
H789 C801 0.950 . S
H790 C798 0.950 . S
H791 C800 0.950 . S
H792 C802 0.950 1_455 S
H793 C804 0.950 . S
H794 C806 0.950 . S
H795 C807 0.950 . S
C796 H788 0.950 1_455 S
C796 C797 1.386 . S
C796 C798 1.391 1_455 S
C797 C796 1.386 . S
C797 C801 1.393 . S
C798 H790 0.950 . S
C798 C796 1.391 1_655 S
C798 C799 1.400 1_656 S
C799 C798 1.400 1_454 S
C799 C800 1.398 . S
C799 C805 1.491 1_455 S
C800 H791 0.950 . S
C800 C799 1.398 . S
C800 C801 1.391 1_554 S
C801 H789 0.950 . S
C801 C797 1.393 . S
C801 C800 1.391 1_556 S
C802 H792 0.950 1_655 S
C802 C803 1.386 . S
C802 C804 1.391 1_655 S
C803 C802 1.386 . S
C803 C807 1.393 . S
C804 H793 0.950 . S
C804 C802 1.391 1_455 S
C804 C805 1.400 1_455 S
C805 C799 1.491 1_655 S
C805 C804 1.400 1_655 S
C805 C806 1.398 . S
C806 H794 0.950 . S
C806 C805 1.398 . S
C806 C807 1.391 . S
C807 H795 0.950 . S
C807 C803 1.393 . S
C807 C806 1.391 . S
H808 C816 0.950 . S
H809 C821 0.950 . S
H810 C818 0.950 . S
H811 C820 0.950 . S
H812 C822 0.950 . S
H813 C824 0.950 . S
H814 C826 0.950 . S
H815 C827 0.950 . S
C816 H808 0.950 . S
C816 C817 1.386 . S
C816 C818 1.391 . S
C817 C816 1.386 . S
C817 C821 1.393 . S
C818 H810 0.950 . S
C818 C816 1.391 . S
C818 C819 1.400 . S
C819 C818 1.400 . S
C819 C820 1.398 . S
C819 C825 1.491 . S
C820 H811 0.950 . S
C820 C819 1.398 . S
C820 C821 1.391 . S
C821 H809 0.950 . S
C821 C817 1.393 . S
C821 C820 1.391 . S
C822 H812 0.950 . S
C822 C823 1.386 . S
C822 C824 1.391 . S
C823 C822 1.386 . S
C823 C827 1.393 . S
C824 H813 0.950 . S
C824 C822 1.391 . S
C824 C825 1.400 . S
C825 C819 1.491 . S
C825 C824 1.400 . S
C825 C826 1.398 . S
C826 H814 0.950 . S
C826 C825 1.398 . S
C826 C827 1.391 . S
C827 H815 0.950 . S
C827 C823 1.393 . S
C827 C826 1.391 . S
H828 C836 0.950 . S
H829 C841 0.950 . S
H830 C838 0.950 . S
H831 C840 0.950 . S
H832 C842 0.950 . S
H833 C844 0.950 . S
H834 C846 0.950 . S
H835 C847 0.950 . S
C836 H828 0.950 . S
C836 C837 1.386 . S
C836 C838 1.391 . S
C837 C836 1.386 . S
C837 C841 1.393 . S
C838 H830 0.950 . S
C838 C836 1.391 . S
C838 C839 1.400 . S
C839 C838 1.400 . S
C839 C840 1.398 . S
C839 C845 1.491 . S
C840 H831 0.950 . S
C840 C839 1.398 . S
C840 C841 1.391 . S
C841 H829 0.950 . S
C841 C837 1.393 . S
C841 C840 1.391 . S
C842 H832 0.950 . S
C842 C843 1.386 . S
C842 C844 1.391 . S
C843 C842 1.386 . S
C843 C847 1.393 . S
C844 H833 0.950 . S
C844 C842 1.391 . S
C844 C845 1.400 . S
C845 C839 1.491 . S
C845 C844 1.400 . S
C845 C846 1.398 . S
C846 H834 0.950 . S
C846 C845 1.398 . S
C846 C847 1.391 . S
C847 H835 0.950 . S
C847 C843 1.393 . S
C847 C846 1.391 . S
H848 C856 0.950 . S
H849 C861 0.950 . S
H850 C858 0.950 . S
H851 C860 0.950 . S
H852 C862 0.950 . S
H853 C864 0.950 . S
H854 C866 0.950 . S
H855 C867 0.950 . S
C856 H848 0.950 . S
C856 C857 1.386 . S
C856 C858 1.391 . S
C857 C856 1.386 . S
C857 C861 1.393 . S
C858 H850 0.950 . S
C858 C856 1.391 . S
C858 C859 1.400 . S
C859 C858 1.400 . S
C859 C860 1.398 . S
C859 C865 1.491 . S
C860 H851 0.950 . S
C860 C859 1.398 . S
C860 C861 1.391 . S
C861 H849 0.950 . S
C861 C857 1.393 . S
C861 C860 1.391 . S
C862 H852 0.950 . S
C862 C863 1.386 . S
C862 C864 1.391 . S
C863 C862 1.386 . S
C863 C867 1.393 . S
C864 H853 0.950 . S
C864 C862 1.391 . S
C864 C865 1.400 . S
C865 C859 1.491 . S
C865 C864 1.400 . S
C865 C866 1.398 . S
C866 H854 0.950 . S
C866 C865 1.398 . S
C866 C867 1.391 . S
C867 H855 0.950 . S
C867 C863 1.393 . S
C867 C866 1.391 . S
H868 C876 0.950 . S
H869 C881 0.950 . S
H870 C878 0.950 . S
H871 C880 0.950 . S
H872 C882 0.950 . S
H873 C884 0.950 . S
H874 C886 0.950 . S
H875 C887 0.950 . S
C876 H868 0.950 . S
C876 C877 1.386 . S
C876 C878 1.391 1_554 S
C877 C876 1.386 . S
C877 C881 1.393 . S
C878 H870 0.950 . S
C878 C876 1.391 1_556 S
C878 C879 1.400 . S
C879 C878 1.400 . S
C879 C880 1.398 1_556 S
C879 C885 1.491 . S
C880 H871 0.950 . S
C880 C879 1.398 1_554 S
C880 C881 1.391 . S
C881 H869 0.950 . S
C881 C877 1.393 . S
C881 C880 1.391 . S
C882 H872 0.950 . S
C882 C883 1.386 . S
C882 C884 1.391 . S
C883 C882 1.386 . S
C883 C887 1.393 . S
C884 H873 0.950 . S
C884 C882 1.391 . S
C884 C885 1.400 . S
C885 C879 1.491 . S
C885 C884 1.400 . S
C885 C886 1.398 . S
C886 H874 0.950 . S
C886 C885 1.398 . S
C886 C887 1.391 . S
C887 H875 0.950 . S
C887 C883 1.393 . S
C887 C886 1.391 . S
H888 C896 0.950 . S
H889 C901 0.950 . S
H890 C898 0.950 . S
H891 C900 0.950 . S
H892 C902 0.950 . S
H893 C904 0.950 . S
H894 C906 0.950 . S
H895 C907 0.950 . S
C896 H888 0.950 . S
C896 C897 1.386 . S
C896 C898 1.391 . S
C897 C896 1.386 . S
C897 C901 1.393 . S
C898 H890 0.950 . S
C898 C896 1.391 . S
C898 C899 1.400 . S
C899 C898 1.400 . S
C899 C900 1.398 . S
C899 C905 1.491 . S
C900 H891 0.950 . S
C900 C899 1.398 . S
C900 C901 1.391 . S
C901 H889 0.950 . S
C901 C897 1.393 . S
C901 C900 1.391 . S
C902 H892 0.950 . S
C902 C903 1.386 . S
C902 C904 1.391 . S
C903 C902 1.386 . S
C903 C907 1.393 . S
C904 H893 0.950 . S
C904 C902 1.391 . S
C904 C905 1.400 . S
C905 C899 1.491 . S
C905 C904 1.400 . S
C905 C906 1.398 . S
C906 H894 0.950 . S
C906 C905 1.398 . S
C906 C907 1.391 . S
C907 H895 0.950 . S
C907 C903 1.393 . S
C907 C906 1.391 . S
H908 C916 0.950 . S
H909 C921 0.950 1_655 S
H910 C918 0.950 . S
H911 C920 0.950 . S
H912 C922 0.950 . S
H913 C924 0.950 . S
H914 C926 0.950 . S
H915 C927 0.950 1_455 S
C916 H908 0.950 . S
C916 C917 1.386 . S
C916 C918 1.391 . S
C917 C916 1.386 . S
C917 C921 1.393 . S
C918 H910 0.950 . S
C918 C916 1.391 . S
C918 C919 1.400 . S
C919 C918 1.400 . S
C919 C920 1.398 1_455 S
C919 C925 1.491 1_455 S
C920 H911 0.950 . S
C920 C919 1.398 1_655 S
C920 C921 1.391 1_655 S
C921 H909 0.950 1_455 S
C921 C917 1.393 . S
C921 C920 1.391 1_455 S
C922 H912 0.950 . S
C922 C923 1.386 . S
C922 C924 1.391 . S
C923 C922 1.386 . S
C923 C927 1.393 . S
C924 H913 0.950 . S
C924 C922 1.391 . S
C924 C925 1.400 . S
C925 C919 1.491 1_655 S
C925 C924 1.400 . S
C925 C926 1.398 1_655 S
C926 H914 0.950 . S
C926 C925 1.398 1_455 S
C926 C927 1.391 1_455 S
C927 H915 0.950 1_655 S
C927 C923 1.393 . S
C927 C926 1.391 1_655 S
H928 C936 0.950 . S
H929 C941 0.950 . S
H930 C938 0.950 . S
H931 C940 0.950 . S
H932 C942 0.950 . S
H933 C944 0.950 . S
H934 C946 0.950 . S
H935 C947 0.950 . S
C936 H928 0.950 . S
C936 C937 1.386 . S
C936 C938 1.391 . S
C937 C936 1.386 . S
C937 C941 1.393 . S
C938 H930 0.950 . S
C938 C936 1.391 . S
C938 C939 1.400 . S
C939 C938 1.400 . S
C939 C940 1.398 . S
C939 C945 1.491 . S
C940 H931 0.950 . S
C940 C939 1.398 . S
C940 C941 1.391 . S
C941 H929 0.950 . S
C941 C937 1.393 . S
C941 C940 1.391 . S
C942 H932 0.950 . S
C942 C943 1.386 . S
C942 C944 1.391 . S
C943 C942 1.386 . S
C943 C947 1.393 . S
C944 H933 0.950 . S
C944 C942 1.391 . S
C944 C945 1.400 . S
C945 C939 1.491 . S
C945 C944 1.400 . S
C945 C946 1.398 . S
C946 H934 0.950 . S
C946 C945 1.398 . S
C946 C947 1.391 . S
C947 H935 0.950 . S
C947 C943 1.393 . S
C947 C946 1.391 . S
H948 C956 0.950 . S
H949 C961 0.950 . S
H950 C958 0.951 1_455 S
H951 C960 0.950 . S
H952 C962 0.950 . S
H953 C964 0.950 1_655 S
H954 C966 0.950 . S
H955 C967 0.950 . S
C956 H948 0.950 . S
C956 C957 1.386 . S
C956 C958 1.391 1_554 S
C957 C956 1.386 . S
C957 C961 1.393 . S
C958 H950 0.951 1_655 S
C958 C956 1.391 1_556 S
C958 C959 1.400 . S
C959 C958 1.400 . S
C959 C960 1.398 . S
C959 C965 1.491 1_655 S
C960 H951 0.950 . S
C960 C959 1.398 . S
C960 C961 1.391 1_556 S
C961 H949 0.950 . S
C961 C957 1.393 . S
C961 C960 1.391 1_554 S
C962 H952 0.950 . S
C962 C963 1.386 . S
C962 C964 1.391 . S
C963 C962 1.386 . S
C963 C967 1.393 . S
C964 H953 0.950 1_455 S
C964 C962 1.391 . S
C964 C965 1.400 . S
C965 C959 1.491 1_455 S
C965 C964 1.400 . S
C965 C966 1.398 . S
C966 H954 0.950 . S
C966 C965 1.398 . S
C966 C967 1.391 . S
C967 H955 0.950 . S
C967 C963 1.393 . S
C967 C966 1.391 . S
H968 C976 0.950 . S
H969 C981 0.950 . S
H970 C978 0.950 . S
H971 C980 0.950 . S
H972 C982 0.950 . S
H973 C984 0.950 . S
H974 C986 0.950 . S
H975 C987 0.950 . S
C976 H968 0.950 . S
C976 C977 1.386 . S
C976 C978 1.391 . S
C977 C976 1.386 . S
C977 C981 1.393 . S
C978 H970 0.950 . S
C978 C976 1.391 . S
C978 C979 1.400 . S
C979 C978 1.400 . S
C979 C980 1.398 . S
C979 C985 1.491 . S
C980 H971 0.950 . S
C980 C979 1.398 . S
C980 C981 1.391 . S
C981 H969 0.950 . S
C981 C977 1.393 . S
C981 C980 1.391 . S
C982 H972 0.950 . S
C982 C983 1.386 . S
C982 C984 1.391 . S
C983 C982 1.386 . S
C983 C987 1.393 . S
C984 H973 0.950 . S
C984 C982 1.391 . S
C984 C985 1.400 . S
C985 C979 1.491 . S
C985 C984 1.400 . S
C985 C986 1.398 . S
C986 H974 0.950 . S
C986 C985 1.398 . S
C986 C987 1.391 . S
C987 H975 0.950 . S
C987 C983 1.393 . S
C987 C986 1.391 . S
H988 C996 0.950 . S
H989 C1001 0.950 . S
H990 C998 0.950 . S
H991 C1000 0.950 . S
H992 C1002 0.950 . S
H993 C1004 0.950 . S
H994 C1006 0.950 . S
H995 C1007 0.950 . S
C996 H988 0.950 . S
C996 C997 1.386 . S
C996 C998 1.391 . S
C997 C996 1.386 . S
C997 C1001 1.393 . S
C998 H990 0.950 . S
C998 C996 1.391 . S
C998 C999 1.400 . S
C999 C998 1.400 . S
C999 C1000 1.398 . S
C999 C1005 1.491 . S
C1000 H991 0.950 . S
C1000 C999 1.398 . S
C1000 C1001 1.391 . S
C1001 H989 0.950 . S
C1001 C997 1.393 . S
C1001 C1000 1.391 . S
C1002 H992 0.950 . S
C1002 C1003 1.386 . S
C1002 C1004 1.391 . S
C1003 C1002 1.386 . S
C1003 C1007 1.393 . S
C1004 H993 0.950 . S
C1004 C1002 1.391 . S
C1004 C1005 1.400 . S
C1005 C999 1.491 . S
C1005 C1004 1.400 . S
C1005 C1006 1.398 . S
C1006 H994 0.950 . S
C1006 C1005 1.398 . S
C1006 C1007 1.391 . S
C1007 H995 0.950 . S
C1007 C1003 1.393 . S
C1007 C1006 1.391 . S
H1008 C1016 0.950 . S
H1009 C1021 0.950 . S
H1010 C1018 0.950 . S
H1011 C1020 0.950 . S
H1012 C1022 0.950 . S
H1013 C1024 0.950 . S
H1014 C1026 0.950 . S
H1015 C1027 0.950 . S
C1016 H1008 0.950 . S
C1016 C1017 1.386 . S
C1016 C1018 1.391 . S
C1017 C1016 1.386 . S
C1017 C1021 1.393 . S
C1018 H1010 0.950 . S
C1018 C1016 1.391 . S
C1018 C1019 1.400 . S
C1019 C1018 1.400 . S
C1019 C1020 1.398 . S
C1019 C1025 1.491 . S
C1020 H1011 0.950 . S
C1020 C1019 1.398 . S
C1020 C1021 1.391 . S
C1021 H1009 0.950 . S
C1021 C1017 1.393 . S
C1021 C1020 1.391 . S
C1022 H1012 0.950 . S
C1022 C1023 1.386 . S
C1022 C1024 1.391 . S
C1023 C1022 1.386 . S
C1023 C1027 1.393 . S
C1024 H1013 0.950 . S
C1024 C1022 1.391 . S
C1024 C1025 1.400 . S
C1025 C1019 1.491 . S
C1025 C1024 1.400 . S
C1025 C1026 1.398 . S
C1026 H1014 0.950 . S
C1026 C1025 1.398 . S
C1026 C1027 1.391 . S
C1027 H1015 0.950 . S
C1027 C1023 1.393 . S
C1027 C1026 1.391 . S
H1028 C1036 0.950 . S
H1029 C1041 0.950 . S
H1030 C1038 0.950 . S
H1031 C1040 0.950 . S
H1032 C1042 0.950 . S
H1033 C1044 0.950 . S
H1034 C1046 0.950 . S
H1035 C1047 0.950 . S
C1036 H1028 0.950 . S
C1036 C1037 1.386 . S
C1036 C1038 1.391 . S
C1037 C1036 1.386 . S
C1037 C1041 1.393 . S
C1038 H1030 0.950 . S
C1038 C1036 1.391 . S
C1038 C1039 1.400 . S
C1039 C1038 1.400 . S
C1039 C1040 1.398 . S
C1039 C1045 1.491 . S
C1040 H1031 0.950 . S
C1040 C1039 1.398 . S
C1040 C1041 1.391 . S
C1041 H1029 0.950 . S
C1041 C1037 1.393 . S
C1041 C1040 1.391 . S
C1042 H1032 0.950 . S
C1042 C1043 1.386 . S
C1042 C1044 1.391 . S
C1043 C1042 1.386 . S
C1043 C1047 1.393 . S
C1044 H1033 0.950 . S
C1044 C1042 1.391 . S
C1044 C1045 1.400 1_556 S
C1045 C1039 1.491 . S
C1045 C1044 1.400 1_554 S
C1045 C1046 1.398 . S
C1046 H1034 0.950 . S
C1046 C1045 1.398 . S
C1046 C1047 1.391 1_554 S
C1047 H1035 0.950 . S
C1047 C1043 1.393 . S
C1047 C1046 1.391 1_556 S
H1048 C1056 0.950 . S
H1049 C1061 0.950 . S
H1050 C1058 0.950 . S
H1051 C1060 0.950 . S
H1052 C1062 0.950 . S
H1053 C1064 0.950 . S
H1054 C1066 0.950 . S
H1055 C1067 0.950 . S
C1056 H1048 0.950 . S
C1056 C1057 1.386 . S
C1056 C1058 1.391 . S
C1057 C1056 1.386 . S
C1057 C1061 1.393 . S
C1058 H1050 0.950 . S
C1058 C1056 1.391 . S
C1058 C1059 1.400 . S
C1059 C1058 1.400 . S
C1059 C1060 1.398 . S
C1059 C1065 1.491 . S
C1060 H1051 0.950 . S
C1060 C1059 1.398 . S
C1060 C1061 1.391 . S
C1061 H1049 0.950 . S
C1061 C1057 1.393 . S
C1061 C1060 1.391 . S
C1062 H1052 0.950 . S
C1062 C1063 1.386 . S
C1062 C1064 1.391 . S
C1063 C1062 1.386 . S
C1063 C1067 1.393 . S
C1064 H1053 0.950 . S
C1064 C1062 1.391 . S
C1064 C1065 1.400 . S
C1065 C1059 1.491 . S
C1065 C1064 1.400 . S
C1065 C1066 1.398 . S
C1066 H1054 0.950 . S
C1066 C1065 1.398 . S
C1066 C1067 1.391 . S
C1067 H1055 0.950 . S
C1067 C1063 1.393 . S
C1067 C1066 1.391 . S
H1068 C1076 0.931 1_455 S
H1069 C1081 0.950 . S
H1070 C1078 0.950 . S
H1071 C1080 0.950 . S
H1072 C1082 0.950 1_655 S
H1073 C1084 0.950 . S
H1074 C1086 0.950 . S
H1075 C1087 0.950 . S
C1076 H1068 0.931 1_655 S
C1076 C1077 1.419 . S
C1076 C1078 1.378 1_655 S
C1077 C1076 1.419 . S
C1077 C1081 1.393 . S
C1078 H1070 0.950 . S
C1078 C1076 1.378 1_455 S
C1078 C1079 1.400 1_455 S
C1079 C1078 1.400 1_655 S
C1079 C1080 1.398 . S
C1079 C1085 1.491 1_655 S
C1080 H1071 0.950 . S
C1080 C1079 1.398 . S
C1080 C1081 1.391 . S
C1081 H1069 0.950 . S
C1081 C1077 1.393 . S
C1081 C1080 1.391 . S
C1082 H1072 0.950 1_455 S
C1082 C1083 1.386 . S
C1082 C1084 1.391 1_455 S
C1083 C1082 1.386 . S
C1083 C1087 1.393 . S
C1084 H1073 0.950 . S
C1084 C1082 1.391 1_655 S
C1084 C1085 1.400 1_655 S
C1085 C1079 1.491 1_455 S
C1085 C1084 1.400 1_455 S
C1085 C1086 1.398 . S
C1086 H1074 0.950 . S
C1086 C1085 1.398 . S
C1086 C1087 1.391 . S
C1087 H1075 0.950 . S
C1087 C1083 1.393 . S
C1087 C1086 1.391 . S
H1088 C1096 0.950 . S
H1089 C1101 0.950 . S
H1090 C1098 0.950 . S
H1091 C1100 0.950 . S
H1092 C1102 0.950 . S
H1093 C1104 0.950 . S
H1094 C1106 0.950 . S
H1095 C1107 0.950 . S
C1096 H1088 0.950 . S
C1096 C1097 1.386 . S
C1096 C1098 1.391 . S
C1097 C1096 1.386 . S
C1097 C1101 1.393 . S
C1098 H1090 0.950 . S
C1098 C1096 1.391 . S
C1098 C1099 1.400 . S
C1099 C1098 1.400 . S
C1099 C1100 1.398 . S
C1099 C1105 1.491 . S
C1100 H1091 0.950 . S
C1100 C1099 1.398 . S
C1100 C1101 1.391 . S
C1101 H1089 0.950 . S
C1101 C1097 1.393 . S
C1101 C1100 1.391 . S
C1102 H1092 0.950 . S
C1102 C1103 1.386 . S
C1102 C1104 1.391 . S
C1103 C1102 1.386 . S
C1103 C1107 1.393 . S
C1104 H1093 0.950 . S
C1104 C1102 1.391 . S
C1104 C1105 1.400 . S
C1105 C1099 1.491 . S
C1105 C1104 1.400 . S
C1105 C1106 1.398 . S
C1106 H1094 0.950 . S
C1106 C1105 1.398 . S
C1106 C1107 1.391 . S
C1107 H1095 0.950 . S
C1107 C1103 1.393 . S
C1107 C1106 1.391 . S
H1108 C1116 0.950 . S
H1109 C1121 0.950 . S
H1110 C1118 0.950 . S
H1111 C1120 0.950 . S
H1112 C1122 0.950 . S
H1113 C1124 0.950 . S
H1114 C1126 0.950 . S
H1115 C1127 0.950 . S
C1116 H1108 0.950 . S
C1116 C1117 1.386 . S
C1116 C1118 1.391 . S
C1117 C1116 1.386 . S
C1117 C1121 1.393 . S
C1118 H1110 0.950 . S
C1118 C1116 1.391 . S
C1118 C1119 1.400 . S
C1119 C1118 1.400 . S
C1119 C1120 1.398 . S
C1119 C1125 1.491 . S
C1120 H1111 0.950 . S
C1120 C1119 1.398 . S
C1120 C1121 1.391 . S
C1121 H1109 0.950 . S
C1121 C1117 1.393 . S
C1121 C1120 1.391 . S
C1122 H1112 0.950 . S
C1122 C1123 1.386 . S
C1122 C1124 1.391 . S
C1123 C1122 1.386 . S
C1123 C1127 1.393 . S
C1124 H1113 0.950 . S
C1124 C1122 1.391 . S
C1124 C1125 1.400 . S
C1125 C1119 1.491 . S
C1125 C1124 1.400 . S
C1125 C1126 1.398 . S
C1126 H1114 0.950 . S
C1126 C1125 1.398 . S
C1126 C1127 1.391 . S
C1127 H1115 0.950 . S
C1127 C1123 1.393 . S
C1127 C1126 1.391 . S
H1128 C1136 0.950 . S
H1129 C1141 0.950 . S
H1130 C1138 0.950 . S
H1131 C1140 0.950 . S
H1132 C1142 0.950 . S
H1133 C1144 0.950 . S
H1134 C1146 0.950 . S
H1135 C1147 0.950 . S
C1136 H1128 0.950 . S
C1136 C1137 1.386 . S
C1136 C1138 1.391 . S
C1137 C1136 1.386 . S
C1137 C1141 1.393 . S
C1138 H1130 0.950 . S
C1138 C1136 1.391 . S
C1138 C1139 1.400 . S
C1139 C1138 1.400 . S
C1139 C1140 1.398 . S
C1139 C1145 1.491 . S
C1140 H1131 0.950 . S
C1140 C1139 1.398 . S
C1140 C1141 1.391 . S
C1141 H1129 0.950 . S
C1141 C1137 1.393 . S
C1141 C1140 1.391 . S
C1142 H1132 0.950 . S
C1142 C1143 1.386 . S
C1142 C1144 1.391 . S
C1143 C1142 1.386 . S
C1143 C1147 1.393 . S
C1144 H1133 0.950 . S
C1144 C1142 1.391 . S
C1144 C1145 1.400 . S
C1145 C1139 1.491 . S
C1145 C1144 1.400 . S
C1145 C1146 1.398 . S
C1146 H1134 0.950 . S
C1146 C1145 1.398 . S
C1146 C1147 1.391 . S
C1147 H1135 0.950 . S
C1147 C1143 1.393 . S
C1147 C1146 1.391 . S
H1148 C1156 0.950 1_655 S
H1149 C1161 0.950 . S
H1150 C1158 0.950 . S
H1151 C1160 0.950 . S
H1152 C1162 0.950 1_455 S
H1153 C1164 0.950 . S
H1154 C1166 0.950 . S
H1155 C1167 0.950 . S
C1156 H1148 0.950 1_455 S
C1156 C1157 1.386 . S
C1156 C1158 1.391 1_455 S
C1157 C1156 1.386 . S
C1157 C1161 1.393 . S
C1158 H1150 0.950 . S
C1158 C1156 1.391 1_655 S
C1158 C1159 1.400 1_655 S
C1159 C1158 1.400 1_455 S
C1159 C1160 1.398 . S
C1159 C1165 1.491 1_455 S
C1160 H1151 0.950 . S
C1160 C1159 1.398 . S
C1160 C1161 1.391 . S
C1161 H1149 0.950 . S
C1161 C1157 1.393 . S
C1161 C1160 1.391 . S
C1162 H1152 0.950 1_655 S
C1162 C1163 1.386 . S
C1162 C1164 1.391 1_655 S
C1163 C1162 1.386 . S
C1163 C1167 1.393 . S
C1164 H1153 0.950 . S
C1164 C1162 1.391 1_455 S
C1164 C1165 1.400 1_456 S
C1165 C1159 1.491 1_655 S
C1165 C1164 1.400 1_654 S
C1165 C1166 1.398 . S
C1166 H1154 0.950 . S
C1166 C1165 1.398 . S
C1166 C1167 1.391 1_554 S
C1167 H1155 0.950 . S
C1167 C1163 1.393 . S
C1167 C1166 1.391 1_556 S
H1168 C1176 0.950 . S
H1169 C1181 0.950 . S
H1170 C1178 0.950 . S
H1171 C1180 0.950 . S
H1172 C1182 0.950 . S
H1173 C1184 0.950 . S
H1174 C1186 0.950 . S
H1175 C1187 0.950 . S
C1176 H1168 0.950 . S
C1176 C1177 1.386 . S
C1176 C1178 1.391 . S
C1177 C1176 1.386 . S
C1177 C1181 1.393 . S
C1178 H1170 0.950 . S
C1178 C1176 1.391 . S
C1178 C1179 1.400 . S
C1179 C1178 1.400 . S
C1179 C1180 1.398 . S
C1179 C1185 1.491 . S
C1180 H1171 0.950 . S
C1180 C1179 1.398 . S
C1180 C1181 1.391 . S
C1181 H1169 0.950 . S
C1181 C1177 1.393 . S
C1181 C1180 1.391 . S
C1182 H1172 0.950 . S
C1182 C1183 1.386 . S
C1182 C1184 1.391 . S
C1183 C1182 1.386 . S
C1183 C1187 1.393 . S
C1184 H1173 0.950 . S
C1184 C1182 1.391 . S
C1184 C1185 1.400 . S
C1185 C1179 1.491 . S
C1185 C1184 1.400 . S
C1185 C1186 1.398 . S
C1186 H1174 0.950 . S
C1186 C1185 1.398 . S
C1186 C1187 1.391 . S
C1187 H1175 0.950 . S
C1187 C1183 1.393 . S
C1187 C1186 1.391 . S
H1188 C1196 0.950 . S
H1189 C1201 0.950 . S
H1190 C1198 0.950 . S
H1191 C1200 0.950 1_455 S
H1192 C1202 0.950 . S
H1193 C1204 0.950 . S
H1194 C1206 0.935 1_655 S
H1195 C1207 0.950 . S
C1196 H1188 0.950 . S
C1196 C1197 1.386 . S
C1196 C1198 1.391 . S
C1197 C1196 1.386 . S
C1197 C1201 1.393 . S
C1198 H1190 0.950 . S
C1198 C1196 1.391 . S
C1198 C1199 1.400 . S
C1199 C1198 1.400 . S
C1199 C1200 1.398 . S
C1199 C1205 1.491 1_655 S
C1200 H1191 0.950 1_655 S
C1200 C1199 1.398 . S
C1200 C1201 1.391 . S
C1201 H1189 0.950 . S
C1201 C1197 1.393 . S
C1201 C1200 1.391 . S
C1202 H1192 0.950 . S
C1202 C1203 1.386 . S
C1202 C1204 1.391 . S
C1203 C1202 1.386 . S
C1203 C1207 1.393 . S
C1204 H1193 0.950 . S
C1204 C1202 1.391 . S
C1204 C1205 1.400 . S
C1205 C1199 1.491 1_455 S
C1205 C1204 1.400 . S
C1205 C1206 1.398 . S
C1206 H1194 0.935 1_455 S
C1206 C1205 1.398 . S
C1206 C1207 1.391 . S
C1207 H1195 0.950 . S
C1207 C1203 1.393 . S
C1207 C1206 1.391 . S
H1208 C1216 0.950 . S
H1209 C1221 0.950 . S
H1210 C1218 0.950 . S
H1211 C1220 0.950 . S
H1212 C1222 0.950 . S
H1213 C1224 0.950 . S
H1214 C1226 0.950 . S
H1215 C1227 0.950 . S
C1216 H1208 0.950 . S
C1216 C1217 1.386 . S
C1216 C1218 1.391 . S
C1217 C1216 1.386 . S
C1217 C1221 1.393 . S
C1218 H1210 0.950 . S
C1218 C1216 1.391 . S
C1218 C1219 1.400 . S
C1219 C1218 1.400 . S
C1219 C1220 1.398 . S
C1219 C1225 1.491 . S
C1220 H1211 0.950 . S
C1220 C1219 1.398 . S
C1220 C1221 1.391 . S
C1221 H1209 0.950 . S
C1221 C1217 1.393 . S
C1221 C1220 1.391 . S
C1222 H1212 0.950 . S
C1222 C1223 1.386 . S
C1222 C1224 1.391 . S
C1223 C1222 1.386 . S
C1223 C1227 1.393 . S
C1224 H1213 0.950 . S
C1224 C1222 1.391 . S
C1224 C1225 1.400 . S
C1225 C1219 1.491 . S
C1225 C1224 1.400 . S
C1225 C1226 1.398 . S
C1226 H1214 0.950 . S
C1226 C1225 1.398 . S
C1226 C1227 1.391 . S
C1227 H1215 0.950 . S
C1227 C1223 1.393 . S
C1227 C1226 1.391 . S
H1228 C1236 0.950 . S
H1229 C1241 0.950 . S
H1230 C1238 0.950 . S
H1231 C1240 0.950 . S
H1232 C1242 0.950 . S
H1233 C1244 0.950 . S
H1234 C1246 0.950 . S
H1235 C1247 0.950 . S
C1236 H1228 0.950 . S
C1236 C1237 1.386 . S
C1236 C1238 1.391 1_554 S
C1237 C1236 1.386 . S
C1237 C1241 1.393 . S
C1238 H1230 0.950 . S
C1238 C1236 1.391 1_556 S
C1238 C1239 1.400 . S
C1239 C1238 1.400 . S
C1239 C1240 1.398 . S
C1239 C1245 1.491 . S
C1240 H1231 0.950 . S
C1240 C1239 1.398 . S
C1240 C1241 1.391 1_556 S
C1241 H1229 0.950 . S
C1241 C1237 1.393 . S
C1241 C1240 1.391 1_554 S
C1242 H1232 0.950 . S
C1242 C1243 1.386 . S
C1242 C1244 1.391 . S
C1243 C1242 1.386 . S
C1243 C1247 1.393 . S
C1244 H1233 0.950 . S
C1244 C1242 1.391 . S
C1244 C1245 1.400 . S
C1245 C1239 1.491 . S
C1245 C1244 1.400 . S
C1245 C1246 1.398 . S
C1246 H1234 0.950 . S
C1246 C1245 1.398 . S
C1246 C1247 1.391 . S
C1247 H1235 0.950 . S
C1247 C1243 1.393 . S
C1247 C1246 1.391 . S
H1248 C1256 0.950 . S
H1249 C1261 0.950 . S
H1250 C1258 0.950 . S
H1251 C1260 0.950 . S
H1252 C1262 0.950 . S
H1253 C1264 0.950 . S
H1254 C1266 0.950 . S
H1255 C1267 0.950 . S
C1256 H1248 0.950 . S
C1256 C1257 1.386 . S
C1256 C1258 1.391 . S
C1257 C1256 1.386 . S
C1257 C1261 1.393 . S
C1258 H1250 0.950 . S
C1258 C1256 1.391 . S
C1258 C1259 1.400 . S
C1259 C1258 1.400 . S
C1259 C1260 1.398 . S
C1259 C1265 1.491 . S
C1260 H1251 0.950 . S
C1260 C1259 1.398 . S
C1260 C1261 1.391 . S
C1261 H1249 0.950 . S
C1261 C1257 1.393 . S
C1261 C1260 1.391 . S
C1262 H1252 0.950 . S
C1262 C1263 1.386 . S
C1262 C1264 1.391 . S
C1263 C1262 1.386 . S
C1263 C1267 1.393 . S
C1264 H1253 0.950 . S
C1264 C1262 1.391 . S
C1264 C1265 1.400 . S
C1265 C1259 1.491 . S
C1265 C1264 1.400 . S
C1265 C1266 1.398 . S
C1266 H1254 0.950 . S
C1266 C1265 1.398 . S
C1266 C1267 1.391 . S
C1267 H1255 0.950 . S
C1267 C1263 1.393 . S
C1267 C1266 1.391 . S
H1268 C1276 0.950 . S
H1269 C1281 0.950 . S
H1270 C1278 0.950 . S
H1271 C1280 0.950 . S
H1272 C1282 0.950 . S
H1273 C1284 0.950 . S
H1274 C1286 0.950 . S
H1275 C1287 0.950 . S
C1276 H1268 0.950 . S
C1276 C1277 1.386 . S
C1276 C1278 1.391 . S
C1277 C1276 1.386 . S
C1277 C1281 1.393 . S
C1278 H1270 0.950 . S
C1278 C1276 1.391 . S
C1278 C1279 1.400 . S
C1279 C1278 1.400 . S
C1279 C1280 1.398 . S
C1279 C1285 1.491 . S
C1280 H1271 0.950 . S
C1280 C1279 1.398 . S
C1280 C1281 1.391 . S
C1281 H1269 0.950 . S
C1281 C1277 1.393 . S
C1281 C1280 1.391 . S
C1282 H1272 0.950 . S
C1282 C1283 1.386 . S
C1282 C1284 1.391 . S
C1283 C1282 1.386 . S
C1283 C1287 1.393 . S
C1284 H1273 0.950 . S
C1284 C1282 1.391 . S
C1284 C1285 1.400 . S
C1285 C1279 1.491 . S
C1285 C1284 1.400 . S
C1285 C1286 1.398 . S
C1286 H1274 0.950 . S
C1286 C1285 1.398 . S
C1286 C1287 1.391 . S
C1287 H1275 0.950 . S
C1287 C1283 1.393 . S
C1287 C1286 1.391 . S
H1288 C1296 0.950 . S
H1289 C1301 0.950 . S
H1290 C1298 0.950 . S
H1291 C1300 0.950 . S
H1292 C1302 0.950 . S
H1293 C1304 0.950 . S
H1294 C1306 0.950 . S
H1295 C1307 0.950 . S
C1296 H1288 0.950 . S
C1296 C1297 1.386 . S
C1296 C1298 1.391 . S
C1297 C1296 1.386 . S
C1297 C1301 1.393 . S
C1298 H1290 0.950 . S
C1298 C1296 1.391 . S
C1298 C1299 1.400 . S
C1299 C1298 1.400 . S
C1299 C1300 1.398 . S
C1299 C1305 1.491 . S
C1300 H1291 0.950 . S
C1300 C1299 1.398 . S
C1300 C1301 1.391 . S
C1301 H1289 0.950 . S
C1301 C1297 1.393 . S
C1301 C1300 1.391 . S
C1302 H1292 0.950 . S
C1302 C1303 1.386 . S
C1302 C1304 1.391 . S
C1303 C1302 1.386 . S
C1303 C1307 1.393 . S
C1304 H1293 0.950 . S
C1304 C1302 1.391 . S
C1304 C1305 1.400 . S
C1305 C1299 1.491 . S
C1305 C1304 1.400 . S
C1305 C1306 1.398 . S
C1306 H1294 0.950 . S
C1306 C1305 1.398 . S
C1306 C1307 1.391 . S
C1307 H1295 0.950 . S
C1307 C1303 1.393 . S
C1307 C1306 1.391 . S
H1308 C1316 0.950 . S
H1309 C1321 0.950 . S
H1310 C1318 0.950 . S
H1311 C1320 0.950 . S
H1312 C1322 0.950 . S
H1313 C1324 0.950 . S
H1314 C1326 0.950 . S
H1315 C1327 0.950 . S
C1316 H1308 0.950 . S
C1316 C1317 1.386 . S
C1316 C1318 1.391 . S
C1317 C1316 1.386 . S
C1317 C1321 1.393 . S
C1318 H1310 0.950 . S
C1318 C1316 1.391 . S
C1318 C1319 1.400 . S
C1319 C1318 1.400 . S
C1319 C1320 1.398 . S
C1319 C1325 1.491 1_655 S
C1320 H1311 0.950 . S
C1320 C1319 1.398 . S
C1320 C1321 1.391 . S
C1321 H1309 0.950 . S
C1321 C1317 1.393 . S
C1321 C1320 1.391 . S
C1322 H1312 0.950 . S
C1322 C1323 1.386 . S
C1322 C1324 1.391 1_554 S
C1323 C1322 1.386 . S
C1323 C1327 1.393 . S
C1324 H1313 0.950 . S
C1324 C1322 1.391 1_556 S
C1324 C1325 1.400 . S
C1325 C1319 1.491 1_455 S
C1325 C1324 1.400 . S
C1325 C1326 1.398 . S
C1326 H1314 0.950 . S
C1326 C1325 1.398 . S
C1326 C1327 1.391 1_556 S
C1327 H1315 0.950 . S
C1327 C1323 1.393 . S
C1327 C1326 1.391 1_554 S
H1328 C1336 0.950 . S
H1329 C1341 0.950 . S
H1330 C1338 0.950 . S
H1331 C1340 0.950 . S
H1332 C1342 0.950 . S
H1333 C1344 0.950 . S
H1334 C1346 0.950 . S
H1335 C1347 0.950 . S
C1336 H1328 0.950 . S
C1336 C1337 1.386 . S
C1336 C1338 1.391 . S
C1337 C1336 1.386 . S
C1337 C1341 1.393 . S
C1338 H1330 0.950 . S
C1338 C1336 1.391 . S
C1338 C1339 1.400 . S
C1339 C1338 1.400 . S
C1339 C1340 1.398 . S
C1339 C1345 1.491 . S
C1340 H1331 0.950 . S
C1340 C1339 1.398 . S
C1340 C1341 1.391 . S
C1341 H1329 0.950 . S
C1341 C1337 1.393 . S
C1341 C1340 1.391 . S
C1342 H1332 0.950 . S
C1342 C1343 1.386 . S
C1342 C1344 1.391 . S
C1343 C1342 1.386 . S
C1343 C1347 1.393 . S
C1344 H1333 0.950 . S
C1344 C1342 1.391 . S
C1344 C1345 1.400 . S
C1345 C1339 1.491 . S
C1345 C1344 1.400 . S
C1345 C1346 1.398 . S
C1346 H1334 0.950 . S
C1346 C1345 1.398 . S
C1346 C1347 1.391 . S
C1347 H1335 0.950 . S
C1347 C1343 1.393 . S
C1347 C1346 1.391 . S
H1348 C1356 0.950 . S
H1349 C1361 0.950 . S
H1350 C1358 0.950 . S
H1351 C1360 0.950 1_455 S
H1352 C1362 0.950 . S
H1353 C1364 0.950 . S
H1354 C1366 0.950 1_655 S
H1355 C1367 0.950 . S
C1356 H1348 0.950 . S
C1356 C1357 1.386 . S
C1356 C1358 1.391 . S
C1357 C1356 1.386 . S
C1357 C1361 1.393 . S
C1358 H1350 0.950 . S
C1358 C1356 1.391 . S
C1358 C1359 1.400 . S
C1359 C1358 1.400 . S
C1359 C1360 1.398 . S
C1359 C1365 1.491 1_655 S
C1360 H1351 0.950 1_655 S
C1360 C1359 1.398 . S
C1360 C1361 1.391 . S
C1361 H1349 0.950 . S
C1361 C1357 1.393 . S
C1361 C1360 1.391 . S
C1362 H1352 0.950 . S
C1362 C1363 1.386 . S
C1362 C1364 1.391 . S
C1363 C1362 1.386 . S
C1363 C1367 1.393 . S
C1364 H1353 0.950 . S
C1364 C1362 1.391 . S
C1364 C1365 1.400 . S
C1365 C1359 1.491 1_455 S
C1365 C1364 1.400 . S
C1365 C1366 1.398 . S
C1366 H1354 0.950 1_455 S
C1366 C1365 1.398 . S
C1366 C1367 1.391 . S
C1367 H1355 0.950 . S
C1367 C1363 1.393 . S
C1367 C1366 1.391 . S
H1368 C1376 0.950 . S
H1369 C1381 0.950 . S
H1370 C1378 0.950 . S
H1371 C1380 0.950 . S
H1372 C1382 0.950 . S
H1373 C1384 0.950 . S
H1374 C1386 0.950 . S
H1375 C1387 0.950 . S
C1376 H1368 0.950 . S
C1376 C1377 1.386 . S
C1376 C1378 1.391 . S
C1377 C1376 1.386 . S
C1377 C1381 1.393 . S
C1378 H1370 0.950 . S
C1378 C1376 1.391 . S
C1378 C1379 1.400 . S
C1379 C1378 1.400 . S
C1379 C1380 1.398 . S
C1379 C1385 1.491 . S
C1380 H1371 0.950 . S
C1380 C1379 1.398 . S
C1380 C1381 1.391 . S
C1381 H1369 0.950 . S
C1381 C1377 1.393 . S
C1381 C1380 1.391 . S
C1382 H1372 0.950 . S
C1382 C1383 1.386 . S
C1382 C1384 1.391 . S
C1383 C1382 1.386 . S
C1383 C1387 1.393 . S
C1384 H1373 0.950 . S
C1384 C1382 1.391 . S
C1384 C1385 1.400 . S
C1385 C1379 1.491 . S
C1385 C1384 1.400 . S
C1385 C1386 1.398 . S
C1386 H1374 0.950 . S
C1386 C1385 1.398 . S
C1386 C1387 1.391 . S
C1387 H1375 0.950 . S
C1387 C1383 1.393 . S
C1387 C1386 1.391 . S
H1388 C1396 0.950 . S
H1389 C1401 0.950 . S
H1390 C1398 0.950 . S
H1391 C1400 0.950 . S
H1392 C1402 0.950 . S
H1393 C1404 0.950 . S
H1394 C1406 0.950 . S
H1395 C1407 0.950 . S
C1396 H1388 0.950 . S
C1396 C1397 1.386 . S
C1396 C1398 1.391 . S
C1397 C1396 1.386 . S
C1397 C1401 1.393 . S
C1398 H1390 0.950 . S
C1398 C1396 1.391 . S
C1398 C1399 1.400 . S
C1399 C1398 1.400 . S
C1399 C1400 1.398 . S
C1399 C1405 1.491 . S
C1400 H1391 0.950 . S
C1400 C1399 1.398 . S
C1400 C1401 1.391 . S
C1401 H1389 0.950 . S
C1401 C1397 1.393 . S
C1401 C1400 1.391 . S
C1402 H1392 0.950 . S
C1402 C1403 1.386 . S
C1402 C1404 1.391 1_556 S
C1403 C1402 1.386 . S
C1403 C1407 1.393 . S
C1404 H1393 0.950 . S
C1404 C1402 1.391 1_554 S
C1404 C1405 1.400 . S
C1405 C1399 1.491 . S
C1405 C1404 1.400 . S
C1405 C1406 1.398 . S
C1406 H1394 0.950 . S
C1406 C1405 1.398 . S
C1406 C1407 1.391 1_554 S
C1407 H1395 0.950 . S
C1407 C1403 1.393 . S
C1407 C1406 1.391 1_556 S
H1408 C1416 0.950 . S
H1409 C1421 0.950 . S
H1410 C1418 0.950 . S
H1411 C1420 0.950 . S
H1412 C1422 0.950 . S
H1413 C1424 0.950 . S
H1414 C1426 0.950 . S
H1415 C1427 0.950 . S
C1416 H1408 0.950 . S
C1416 C1417 1.386 . S
C1416 C1418 1.391 . S
C1417 C1416 1.386 . S
C1417 C1421 1.393 . S
C1418 H1410 0.950 . S
C1418 C1416 1.391 . S
C1418 C1419 1.400 . S
C1419 C1418 1.400 . S
C1419 C1420 1.398 . S
C1419 C1425 1.491 . S
C1420 H1411 0.950 . S
C1420 C1419 1.398 . S
C1420 C1421 1.391 . S
C1421 H1409 0.950 . S
C1421 C1417 1.393 . S
C1421 C1420 1.391 . S
C1422 H1412 0.950 . S
C1422 C1423 1.386 . S
C1422 C1424 1.391 . S
C1423 C1422 1.386 . S
C1423 C1427 1.393 . S
C1424 H1413 0.950 . S
C1424 C1422 1.391 . S
C1424 C1425 1.400 . S
C1425 C1419 1.491 . S
C1425 C1424 1.400 . S
C1425 C1426 1.398 . S
C1426 H1414 0.950 . S
C1426 C1425 1.398 . S
C1426 C1427 1.391 . S
C1427 H1415 0.950 . S
C1427 C1423 1.393 . S
C1427 C1426 1.391 . S
H1428 C1436 0.950 . S
H1429 C1441 0.950 . S
H1430 C1438 0.950 . S
H1431 C1440 0.950 . S
H1432 C1442 0.950 . S
H1433 C1444 0.950 . S
H1434 C1446 0.950 . S
H1435 C1447 0.950 . S
C1436 H1428 0.950 . S
C1436 C1437 1.386 . S
C1436 C1438 1.391 . S
C1437 C1436 1.386 . S
C1437 C1441 1.393 . S
C1438 H1430 0.950 . S
C1438 C1436 1.391 . S
C1438 C1439 1.400 . S
C1439 C1438 1.400 . S
C1439 C1440 1.398 . S
C1439 C1445 1.491 . S
C1440 H1431 0.950 . S
C1440 C1439 1.398 . S
C1440 C1441 1.391 . S
C1441 H1429 0.950 . S
C1441 C1437 1.393 . S
C1441 C1440 1.391 . S
C1442 H1432 0.950 . S
C1442 C1443 1.386 . S
C1442 C1444 1.391 . S
C1443 C1442 1.386 . S
C1443 C1447 1.393 . S
C1444 H1433 0.950 . S
C1444 C1442 1.391 . S
C1444 C1445 1.400 . S
C1445 C1439 1.491 . S
C1445 C1444 1.400 . S
C1445 C1446 1.398 . S
C1446 H1434 0.950 . S
C1446 C1445 1.398 . S
C1446 C1447 1.391 . S
C1447 H1435 0.950 . S
C1447 C1443 1.393 . S
C1447 C1446 1.391 . S
H1448 C1456 0.950 . S
H1449 C1461 0.950 . S
H1450 C1458 0.950 . S
H1451 C1460 0.950 . S
H1452 C1462 0.950 . S
H1453 C1464 0.950 . S
H1454 C1466 0.950 . S
H1455 C1467 0.950 . S
C1456 H1448 0.950 . S
C1456 C1457 1.386 . S
C1456 C1458 1.391 . S
C1457 C1456 1.386 . S
C1457 C1461 1.393 . S
C1458 H1450 0.950 . S
C1458 C1456 1.391 . S
C1458 C1459 1.400 . S
C1459 C1458 1.400 . S
C1459 C1460 1.398 . S
C1459 C1465 1.491 . S
C1460 H1451 0.950 . S
C1460 C1459 1.398 . S
C1460 C1461 1.391 . S
C1461 H1449 0.950 . S
C1461 C1457 1.393 . S
C1461 C1460 1.391 . S
C1462 H1452 0.950 . S
C1462 C1463 1.386 . S
C1462 C1464 1.391 . S
C1463 C1462 1.386 . S
C1463 C1467 1.393 . S
C1464 H1453 0.950 . S
C1464 C1462 1.391 . S
C1464 C1465 1.400 . S
C1465 C1459 1.491 . S
C1465 C1464 1.400 . S
C1465 C1466 1.398 . S
C1466 H1454 0.950 . S
C1466 C1465 1.398 . S
C1466 C1467 1.391 . S
C1467 H1455 0.950 . S
C1467 C1463 1.393 . S
C1467 C1466 1.391 . S
H1468 C1476 0.950 . S
H1469 C1481 0.950 . S
H1470 C1478 0.950 . S
H1471 C1480 0.950 . S
H1472 C1482 0.950 . S
H1473 C1484 0.950 . S
H1474 C1486 0.950 . S
H1475 C1487 0.950 . S
C1476 H1468 0.950 . S
C1476 C1477 1.386 . S
C1476 C1478 1.391 . S
C1477 C1476 1.386 . S
C1477 C1481 1.393 . S
C1478 H1470 0.950 . S
C1478 C1476 1.391 . S
C1478 C1479 1.400 . S
C1479 C1478 1.400 . S
C1479 C1480 1.398 . S
C1479 C1485 1.491 . S
C1480 H1471 0.950 . S
C1480 C1479 1.398 . S
C1480 C1481 1.391 . S
C1481 H1469 0.950 . S
C1481 C1477 1.393 . S
C1481 C1480 1.391 . S
C1482 H1472 0.950 . S
C1482 C1483 1.386 . S
C1482 C1484 1.391 . S
C1483 C1482 1.386 . S
C1483 C1487 1.393 . S
C1484 H1473 0.950 . S
C1484 C1482 1.391 . S
C1484 C1485 1.400 . S
C1485 C1479 1.491 . S
C1485 C1484 1.400 . S
C1485 C1486 1.398 . S
C1486 H1474 0.950 . S
C1486 C1485 1.398 . S
C1486 C1487 1.391 . S
C1487 H1475 0.950 . S
C1487 C1483 1.393 . S
C1487 C1486 1.391 . S
H1488 C1496 0.950 . S
H1489 C1501 0.950 . S
H1490 C1498 0.950 . S
H1491 C1500 0.950 . S
H1492 C1502 0.950 . S
H1493 C1504 0.950 . S
H1494 C1506 0.950 . S
H1495 C1507 0.950 . S
C1496 H1488 0.950 . S
C1496 C1497 1.386 . S
C1496 C1498 1.391 . S
C1497 C1496 1.386 . S
C1497 C1501 1.393 . S
C1498 H1490 0.950 . S
C1498 C1496 1.391 . S
C1498 C1499 1.400 . S
C1499 C1498 1.400 . S
C1499 C1500 1.398 . S
C1499 C1505 1.491 . S
C1500 H1491 0.950 . S
C1500 C1499 1.398 . S
C1500 C1501 1.391 . S
C1501 H1489 0.950 . S
C1501 C1497 1.393 . S
C1501 C1500 1.391 . S
C1502 H1492 0.950 . S
C1502 C1503 1.386 . S
C1502 C1504 1.391 . S
C1503 C1502 1.386 . S
C1503 C1507 1.393 . S
C1504 H1493 0.950 . S
C1504 C1502 1.391 . S
C1504 C1505 1.400 . S
C1505 C1499 1.491 . S
C1505 C1504 1.400 . S
C1505 C1506 1.398 . S
C1506 H1494 0.950 . S
C1506 C1505 1.398 . S
C1506 C1507 1.391 . S
C1507 H1495 0.950 . S
C1507 C1503 1.393 . S
C1507 C1506 1.391 . S
H1508 C1516 0.950 . S
H1509 C1521 0.950 . S
H1510 C1518 0.950 . S
H1511 C1520 0.950 . S
H1512 C1522 0.950 . S
H1513 C1524 0.950 . S
H1514 C1526 0.950 . S
H1515 C1527 0.950 . S
C1516 H1508 0.950 . S
C1516 C1517 1.386 . S
C1516 C1518 1.391 . S
C1517 C1516 1.386 . S
C1517 C1521 1.393 . S
C1518 H1510 0.950 . S
C1518 C1516 1.391 . S
C1518 C1519 1.400 . S
C1519 C1518 1.400 . S
C1519 C1520 1.398 . S
C1519 C1525 1.491 . S
C1520 H1511 0.950 . S
C1520 C1519 1.398 . S
C1520 C1521 1.391 . S
C1521 H1509 0.950 . S
C1521 C1517 1.393 . S
C1521 C1520 1.391 . S
C1522 H1512 0.950 . S
C1522 C1523 1.386 . S
C1522 C1524 1.391 . S
C1523 C1522 1.386 . S
C1523 C1527 1.393 . S
C1524 H1513 0.950 . S
C1524 C1522 1.391 . S
C1524 C1525 1.400 . S
C1525 C1519 1.491 . S
C1525 C1524 1.400 . S
C1525 C1526 1.398 . S
C1526 H1514 0.950 . S
C1526 C1525 1.398 . S
C1526 C1527 1.391 . S
C1527 H1515 0.950 . S
C1527 C1523 1.393 . S
C1527 C1526 1.391 . S
H1528 C1536 0.950 . S
H1529 C1541 0.950 . S
H1530 C1538 0.950 . S
H1531 C1540 0.950 . S
H1532 C1542 0.950 . S
H1533 C1544 0.950 . S
H1534 C1546 0.950 . S
H1535 C1547 0.950 . S
C1536 H1528 0.950 . S
C1536 C1537 1.386 . S
C1536 C1538 1.391 . S
C1537 C1536 1.386 . S
C1537 C1541 1.393 . S
C1538 H1530 0.950 . S
C1538 C1536 1.391 . S
C1538 C1539 1.400 . S
C1539 C1538 1.400 . S
C1539 C1540 1.398 . S
C1539 C1545 1.491 . S
C1540 H1531 0.950 . S
C1540 C1539 1.398 . S
C1540 C1541 1.391 . S
C1541 H1529 0.950 . S
C1541 C1537 1.393 . S
C1541 C1540 1.391 . S
C1542 H1532 0.950 . S
C1542 C1543 1.386 . S
C1542 C1544 1.391 . S
C1543 C1542 1.386 . S
C1543 C1547 1.393 . S
C1544 H1533 0.950 . S
C1544 C1542 1.391 . S
C1544 C1545 1.400 . S
C1545 C1539 1.491 . S
C1545 C1544 1.400 . S
C1545 C1546 1.398 . S
C1546 H1534 0.950 . S
C1546 C1545 1.398 . S
C1546 C1547 1.391 . S
C1547 H1535 0.950 . S
C1547 C1543 1.393 . S
C1547 C1546 1.391 . S
H1548 C1556 0.950 . S
H1549 C1561 0.950 . S
H1550 C1558 0.950 . S
H1551 C1560 0.950 . S
H1552 C1562 0.950 . S
H1553 C1564 0.950 . S
H1554 C1566 0.950 . S
H1555 C1567 0.950 . S
C1556 H1548 0.950 . S
C1556 C1557 1.386 . S
C1556 C1558 1.391 . S
C1557 C1556 1.386 . S
C1557 C1561 1.393 . S
C1558 H1550 0.950 . S
C1558 C1556 1.391 . S
C1558 C1559 1.400 . S
C1559 C1558 1.400 . S
C1559 C1560 1.398 . S
C1559 C1565 1.491 . S
C1560 H1551 0.950 . S
C1560 C1559 1.398 . S
C1560 C1561 1.391 . S
C1561 H1549 0.950 . S
C1561 C1557 1.393 . S
C1561 C1560 1.391 . S
C1562 H1552 0.950 . S
C1562 C1563 1.386 . S
C1562 C1564 1.391 . S
C1563 C1562 1.386 . S
C1563 C1567 1.393 . S
C1564 H1553 0.950 . S
C1564 C1562 1.391 . S
C1564 C1565 1.400 . S
C1565 C1559 1.491 . S
C1565 C1564 1.400 . S
C1565 C1566 1.398 . S
C1566 H1554 0.950 . S
C1566 C1565 1.398 . S
C1566 C1567 1.391 . S
C1567 H1555 0.950 . S
C1567 C1563 1.393 . S
C1567 C1566 1.391 . S
H1568 C1576 0.950 . S
H1569 C1581 0.950 . S
H1570 C1578 0.950 . S
H1571 C1580 0.950 . S
H1572 C1582 0.950 . S
H1573 C1584 0.950 . S
H1574 C1586 0.950 . S
H1575 C1587 0.950 . S
C1576 H1568 0.950 . S
C1576 C1577 1.386 . S
C1576 C1578 1.391 . S
C1577 C1576 1.386 . S
C1577 C1581 1.393 . S
C1578 H1570 0.950 . S
C1578 C1576 1.391 . S
C1578 C1579 1.400 . S
C1579 C1578 1.400 . S
C1579 C1580 1.398 . S
C1579 C1585 1.491 . S
C1580 H1571 0.950 . S
C1580 C1579 1.398 . S
C1580 C1581 1.391 . S
C1581 H1569 0.950 . S
C1581 C1577 1.393 . S
C1581 C1580 1.391 . S
C1582 H1572 0.950 . S
C1582 C1583 1.386 . S
C1582 C1584 1.391 . S
C1583 C1582 1.386 . S
C1583 C1587 1.393 . S
C1584 H1573 0.950 . S
C1584 C1582 1.391 . S
C1584 C1585 1.400 . S
C1585 C1579 1.491 . S
C1585 C1584 1.400 . S
C1585 C1586 1.398 . S
C1586 H1574 0.950 . S
C1586 C1585 1.398 . S
C1586 C1587 1.391 . S
C1587 H1575 0.950 . S
C1587 C1583 1.393 . S
C1587 C1586 1.391 . S
H1588 C1596 0.950 . S
H1589 C1601 0.950 . S
H1590 C1598 0.950 . S
H1591 C1600 0.950 . S
H1592 C1602 0.950 . S
H1593 C1604 0.950 . S
H1594 C1606 0.950 . S
H1595 C1607 0.950 . S
C1596 H1588 0.950 . S
C1596 C1597 1.386 . S
C1596 C1598 1.391 . S
C1597 C1596 1.386 . S
C1597 C1601 1.393 . S
C1598 H1590 0.950 . S
C1598 C1596 1.391 . S
C1598 C1599 1.400 . S
C1599 C1598 1.400 . S
C1599 C1600 1.398 . S
C1599 C1605 1.491 . S
C1600 H1591 0.950 . S
C1600 C1599 1.398 . S
C1600 C1601 1.391 . S
C1601 H1589 0.950 . S
C1601 C1597 1.393 . S
C1601 C1600 1.391 . S
C1602 H1592 0.950 . S
C1602 C1603 1.386 . S
C1602 C1604 1.391 . S
C1603 C1602 1.386 . S
C1603 C1607 1.393 . S
C1604 H1593 0.950 . S
C1604 C1602 1.391 . S
C1604 C1605 1.400 . S
C1605 C1599 1.491 . S
C1605 C1604 1.400 . S
C1605 C1606 1.398 . S
C1606 H1594 0.950 . S
C1606 C1605 1.398 . S
C1606 C1607 1.391 . S
C1607 H1595 0.950 . S
C1607 C1603 1.393 . S
C1607 C1606 1.391 . S
H1608 C1616 0.950 . S
H1609 C1621 0.950 . S
H1610 C1618 0.950 . S
H1611 C1620 0.950 . S
H1612 C1622 0.950 . S
H1613 C1624 0.950 . S
H1614 C1626 0.950 . S
H1615 C1627 0.950 . S
C1616 H1608 0.950 . S
C1616 C1617 1.386 . S
C1616 C1618 1.391 . S
C1617 C1616 1.386 . S
C1617 C1621 1.393 . S
C1618 H1610 0.950 . S
C1618 C1616 1.391 . S
C1618 C1619 1.400 . S
C1619 C1618 1.400 . S
C1619 C1620 1.398 . S
C1619 C1625 1.491 . S
C1620 H1611 0.950 . S
C1620 C1619 1.398 . S
C1620 C1621 1.391 . S
C1621 H1609 0.950 . S
C1621 C1617 1.393 . S
C1621 C1620 1.391 . S
C1622 H1612 0.950 . S
C1622 C1623 1.386 . S
C1622 C1624 1.391 . S
C1623 C1622 1.386 . S
C1623 C1627 1.393 . S
C1624 H1613 0.950 . S
C1624 C1622 1.391 . S
C1624 C1625 1.400 . S
C1625 C1619 1.491 . S
C1625 C1624 1.400 . S
C1625 C1626 1.398 . S
C1626 H1614 0.950 . S
C1626 C1625 1.398 . S
C1626 C1627 1.391 . S
C1627 H1615 0.950 . S
C1627 C1623 1.393 . S
C1627 C1626 1.391 . S
H1628 C1636 0.950 . S
H1629 C1641 0.950 . S
H1630 C1638 0.950 . S
H1631 C1640 0.950 . S
H1632 C1642 0.950 . S
H1633 C1644 0.950 . S
H1634 C1646 0.950 . S
H1635 C1647 0.950 . S
C1636 H1628 0.950 . S
C1636 C1637 1.386 . S
C1636 C1638 1.391 . S
C1637 C1636 1.386 . S
C1637 C1641 1.393 . S
C1638 H1630 0.950 . S
C1638 C1636 1.391 . S
C1638 C1639 1.400 . S
C1639 C1638 1.400 . S
C1639 C1640 1.398 . S
C1639 C1645 1.491 . S
C1640 H1631 0.950 . S
C1640 C1639 1.398 . S
C1640 C1641 1.391 . S
C1641 H1629 0.950 . S
C1641 C1637 1.393 . S
C1641 C1640 1.391 . S
C1642 H1632 0.950 . S
C1642 C1643 1.386 . S
C1642 C1644 1.391 . S
C1643 C1642 1.386 . S
C1643 C1647 1.393 . S
C1644 H1633 0.950 . S
C1644 C1642 1.391 . S
C1644 C1645 1.400 . S
C1645 C1639 1.491 . S
C1645 C1644 1.400 . S
C1645 C1646 1.398 . S
C1646 H1634 0.950 . S
C1646 C1645 1.398 . S
C1646 C1647 1.391 . S
C1647 H1635 0.950 . S
C1647 C1643 1.393 . S
C1647 C1646 1.391 . S
H1648 C1656 0.950 . S
H1649 C1661 0.950 . S
H1650 C1658 0.950 . S
H1651 C1660 0.950 . S
H1652 C1662 0.950 . S
H1653 C1664 0.950 . S
H1654 C1666 0.950 . S
H1655 C1667 0.950 . S
C1656 H1648 0.950 . S
C1656 C1657 1.386 . S
C1656 C1658 1.391 . S
C1657 C1656 1.386 . S
C1657 C1661 1.393 . S
C1658 H1650 0.950 . S
C1658 C1656 1.391 . S
C1658 C1659 1.400 . S
C1659 C1658 1.400 . S
C1659 C1660 1.398 . S
C1659 C1665 1.491 . S
C1660 H1651 0.950 . S
C1660 C1659 1.398 . S
C1660 C1661 1.391 . S
C1661 H1649 0.950 . S
C1661 C1657 1.393 . S
C1661 C1660 1.391 . S
C1662 H1652 0.950 . S
C1662 C1663 1.386 . S
C1662 C1664 1.391 . S
C1663 C1662 1.386 . S
C1663 C1667 1.393 . S
C1664 H1653 0.950 . S
C1664 C1662 1.391 . S
C1664 C1665 1.400 . S
C1665 C1659 1.491 . S
C1665 C1664 1.400 . S
C1665 C1666 1.398 . S
C1666 H1654 0.950 . S
C1666 C1665 1.398 . S
C1666 C1667 1.391 . S
C1667 H1655 0.950 . S
C1667 C1663 1.393 . S
C1667 C1666 1.391 . S
H1668 C1676 0.950 . S
H1669 C1681 0.950 . S
H1670 C1678 0.950 . S
H1671 C1680 0.950 . S
H1672 C1682 0.950 . S
H1673 C1684 0.950 . S
H1674 C1686 0.950 . S
H1675 C1687 0.950 . S
C1676 H1668 0.950 . S
C1676 C1677 1.386 . S
C1676 C1678 1.391 . S
C1677 C1676 1.386 . S
C1677 C1681 1.393 . S
C1678 H1670 0.950 . S
C1678 C1676 1.391 . S
C1678 C1679 1.400 . S
C1679 C1678 1.400 . S
C1679 C1680 1.398 . S
C1679 C1685 1.491 . S
C1680 H1671 0.950 . S
C1680 C1679 1.398 . S
C1680 C1681 1.391 . S
C1681 H1669 0.950 . S
C1681 C1677 1.393 . S
C1681 C1680 1.391 . S
C1682 H1672 0.950 . S
C1682 C1683 1.386 . S
C1682 C1684 1.391 . S
C1683 C1682 1.386 . S
C1683 C1687 1.393 . S
C1684 H1673 0.950 . S
C1684 C1682 1.391 . S
C1684 C1685 1.400 . S
C1685 C1679 1.491 . S
C1685 C1684 1.400 . S
C1685 C1686 1.398 . S
C1686 H1674 0.950 . S
C1686 C1685 1.398 . S
C1686 C1687 1.391 . S
C1687 H1675 0.950 . S
C1687 C1683 1.393 . S
C1687 C1686 1.391 . S
H1688 C1696 0.950 . S
H1689 C1701 0.950 . S
H1690 C1698 0.950 . S
H1691 C1700 0.950 . S
H1692 C1702 0.950 . S
H1693 C1704 0.950 . S
H1694 C1706 0.950 . S
H1695 C1707 0.950 . S
C1696 H1688 0.950 . S
C1696 C1697 1.386 . S
C1696 C1698 1.391 . S
C1697 C1696 1.386 . S
C1697 C1701 1.393 . S
C1698 H1690 0.950 . S
C1698 C1696 1.391 . S
C1698 C1699 1.400 . S
C1699 C1698 1.400 . S
C1699 C1700 1.398 . S
C1699 C1705 1.491 . S
C1700 H1691 0.950 . S
C1700 C1699 1.398 . S
C1700 C1701 1.391 . S
C1701 H1689 0.950 . S
C1701 C1697 1.393 . S
C1701 C1700 1.391 . S
C1702 H1692 0.950 . S
C1702 C1703 1.386 . S
C1702 C1704 1.391 . S
C1703 C1702 1.386 . S
C1703 C1707 1.393 . S
C1704 H1693 0.950 . S
C1704 C1702 1.391 . S
C1704 C1705 1.400 . S
C1705 C1699 1.491 . S
C1705 C1704 1.400 . S
C1705 C1706 1.398 . S
C1706 H1694 0.950 . S
C1706 C1705 1.398 . S
C1706 C1707 1.391 . S
C1707 H1695 0.950 . S
C1707 C1703 1.393 . S
C1707 C1706 1.391 . S
H1708 C1716 0.950 . S
H1709 C1721 0.950 . S
H1710 C1718 0.950 . S
H1711 C1720 0.950 . S
H1712 C1722 0.950 . S
H1713 C1724 0.950 . S
H1714 C1726 0.950 . S
H1715 C1727 0.950 . S
C1716 H1708 0.950 . S
C1716 C1717 1.386 . S
C1716 C1718 1.391 . S
C1717 C1716 1.386 . S
C1717 C1721 1.393 . S
C1718 H1710 0.950 . S
C1718 C1716 1.391 . S
C1718 C1719 1.400 . S
C1719 C1718 1.400 . S
C1719 C1720 1.398 . S
C1719 C1725 1.491 . S
C1720 H1711 0.950 . S
C1720 C1719 1.398 . S
C1720 C1721 1.391 . S
C1721 H1709 0.950 . S
C1721 C1717 1.393 . S
C1721 C1720 1.391 . S
C1722 H1712 0.950 . S
C1722 C1723 1.386 . S
C1722 C1724 1.391 . S
C1723 C1722 1.386 . S
C1723 C1727 1.393 . S
C1724 H1713 0.950 . S
C1724 C1722 1.391 . S
C1724 C1725 1.400 . S
C1725 C1719 1.491 . S
C1725 C1724 1.400 . S
C1725 C1726 1.398 . S
C1726 H1714 0.950 . S
C1726 C1725 1.398 . S
C1726 C1727 1.391 . S
C1727 H1715 0.950 . S
C1727 C1723 1.393 . S
C1727 C1726 1.391 . S
C457 C89 1.473 . S
C463 C5 1.473 . S
C477 C19 1.475 . S
C483 C103 1.481 . S
C497 C61 1.482 . S
C503 C33 1.478 . S
C517 C47 1.474 . S
C523 C75 1.472 . S
C537 C201 1.480 . S
C543 C117 1.482 . S
C557 C215 1.482 . S
C563 C131 1.480 . S
C577 C145 1.478 . S
C583 C173 1.482 . S
C597 C159 1.482 . S
C603 C187 1.479 . S
C617 C229 1.472 . S
C623 C313 1.477 . S
C637 C243 1.478 . S
C643 C327 1.473 . S
C657 C285 1.482 . S
C663 C257 1.478 . S
C677 C299 1.473 . S
C683 C271 1.478 . S
C697 C341 1.476 . S
C703 C425 1.472 . S
C717 C439 1.481 . S
C723 C355 1.476 . S
C737 C397 1.479 . S
C743 C369 1.482 . S
C757 C383 1.474 . S
C763 C411 1.472 . S
C777 C0 1.230 . S
C783 C429 1.261 . S
C797 C219 1.250 . S
C803 C14 1.223 . S
C817 C28 1.228 . S
C823 C401 1.249 . S
C837 C42 1.234 . S
C843 C191 1.249 . S
C857 C373 1.252 . S
C863 C56 1.219 . S
C877 C163 1.260 . S
C883 C70 1.240 . S
C897 C84 1.242 . S
C903 C345 1.252 . S
C917 C135 1.256 . S
C923 C98 1.244 . S
C937 C112 1.240 . S
C943 C317 1.251 . S
C957 C107 1.251 . S
C963 C126 1.240 . S
C977 C140 1.221 . S
C983 C289 1.258 . S
C997 C154 1.234 . S
C1003 C79 1.261 . S
C1017 C261 1.261 . S
C1023 C168 1.235 . S
C1037 C182 1.223 . S
C1043 C51 1.250 . S
C1057 C196 1.219 . S
C1063 C233 1.252 . S
C1077 C23 1.257 . S
C1083 C210 1.244 . S
C1097 C224 1.244 . S
C1103 C205 1.256 . S
C1117 C238 1.244 . S
C1123 C443 1.255 . S
C1137 C177 1.250 . S
C1143 C252 1.222 . S
C1157 C266 1.244 . S
C1163 C415 1.254 . S
C1177 C149 1.261 . S
C1183 C280 1.229 . S
C1197 C387 1.251 . S
C1203 C294 1.241 . S
C1217 C121 1.253 . S
C1223 C308 1.243 . S
C1237 C359 1.251 . S
C1243 C322 1.241 . S
C1257 C336 1.234 . S
C1263 C93 1.261 . S
C1277 C331 1.251 . S
C1283 C350 1.222 . S
C1297 C65 1.257 . S
C1303 C364 1.220 . S
C1317 C378 1.237 . S
C1323 C303 1.250 . S
C1337 C392 1.223 . S
C1343 C37 1.250 . S
C1357 C406 1.230 . S
C1363 C275 1.261 . S
C1377 C9 1.261 . S
C1383 C420 1.231 . S
C1397 C434 1.240 . S
C1403 C247 1.251 . S
C1417 C11 1.407 . S
C1423 C305 1.402 . S
C1437 C319 1.400 . S
C1443 C25 1.406 . S
C1457 C39 1.399 . S
C1463 C333 1.394 . S
C1477 C291 1.394 . S
C1483 C53 1.395 . S
C1497 C277 1.407 . S
C1503 C67 1.407 . S
C1517 C235 1.401 . S
C1523 C81 1.406 . S
C1537 C249 1.401 . S
C1543 C95 1.406 . S
C1557 C263 1.400 . S
C1563 C109 1.405 . S
C1577 C123 1.404 . S
C1583 C417 1.398 . S
C1597 C431 1.402 . S
C1603 C137 1.396 . S
C1617 C445 1.396 . S
C1623 C151 1.394 . S
C1637 C403 1.404 . S
C1643 C165 1.408 . S
C1657 C389 1.395 . S
C1663 C179 1.394 . S
C1677 C347 1.401 . S
C1683 C193 1.396 . S
C1697 C207 1.403 . S
C1703 C361 1.398 . S
C1717 C221 1.402 . S
C1723 C375 1.407 . S
