# Generated by pormake.
# Topology wir, (6)-cn, num edge types: 1
# Building blocks:
#     Node 0, Type 0, BuildingBlock: BETFEN_clean_sbu_0, # of connection points: 6
#     Node 1, Type 0, BuildingBlock: BETFEN_clean_sbu_0, # of connection points: 6
#     Node 2, Type 0, BuildingBlock: BETFEN_clean_sbu_0, # of connection points: 6
#     Node 3, Type 0, BuildingBlock: BETFEN_clean_sbu_0, # of connection points: 6
#     Node 4, Type 0, BuildingBlock: BETFEN_clean_sbu_0, # of connection points: 6
#     Node 5, Type 0, BuildingBlock: BETFEN_clean_sbu_0, # of connection points: 6
#     Node 6, Type 0, BuildingBlock: BETFEN_clean_sbu_0, # of connection points: 6
#     Node 7, Type 0, BuildingBlock: BETFEN_clean_sbu_0, # of connection points: 6
#     Node 8, Type 0, BuildingBlock: BETFEN_clean_sbu_0, # of connection points: 6
#     Node 9, Type 0, BuildingBlock: BETFEN_clean_sbu_0, # of connection points: 6
#     Node 10, Type 0, BuildingBlock: BETFEN_clean_sbu_0, # of connection points: 6
#     Node 11, Type 0, BuildingBlock: BETFEN_clean_sbu_0, # of connection points: 6
#     Node 12, Type 0, BuildingBlock: BETFEN_clean_sbu_0, # of connection points: 6
#     Node 13, Type 0, BuildingBlock: BETFEN_clean_sbu_0, # of connection points: 6
#     Node 14, Type 0, BuildingBlock: BETFEN_clean_sbu_0, # of connection points: 6
#     Node 15, Type 0, BuildingBlock: BETFEN_clean_sbu_0, # of connection points: 6
#     Node 16, Type 0, BuildingBlock: BETFEN_clean_sbu_0, # of connection points: 6
#     Node 17, Type 0, BuildingBlock: BETFEN_clean_sbu_0, # of connection points: 6
#     Node 18, Type 0, BuildingBlock: BETFEN_clean_sbu_0, # of connection points: 6
#     Node 19, Type 0, BuildingBlock: BETFEN_clean_sbu_0, # of connection points: 6
#     Node 20, Type 0, BuildingBlock: BETFEN_clean_sbu_0, # of connection points: 6
#     Node 21, Type 0, BuildingBlock: BETFEN_clean_sbu_0, # of connection points: 6
#     Node 22, Type 0, BuildingBlock: BETFEN_clean_sbu_0, # of connection points: 6
#     Node 23, Type 0, BuildingBlock: BETFEN_clean_sbu_0, # of connection points: 6
#     Node 24, Type 0, BuildingBlock: BETFEN_clean_sbu_0, # of connection points: 6
#     Node 25, Type 0, BuildingBlock: BETFEN_clean_sbu_0, # of connection points: 6
#     Node 26, Type 0, BuildingBlock: BETFEN_clean_sbu_0, # of connection points: 6
#     Node 27, Type 0, BuildingBlock: BETFEN_clean_sbu_0, # of connection points: 6
#     Node 28, Type 0, BuildingBlock: BETFEN_clean_sbu_0, # of connection points: 6
#     Node 29, Type 0, BuildingBlock: BETFEN_clean_sbu_0, # of connection points: 6
#     Node 30, Type 0, BuildingBlock: BETFEN_clean_sbu_0, # of connection points: 6
#     Node 31, Type 0, BuildingBlock: BETFEN_clean_sbu_0, # of connection points: 6
#     Edge 32, Type (0, 0), BuildingBlock: ZUJKAS_clean_linker_0, # of connection points: 2
#     Edge 33, Type (0, 0), BuildingBlock: ZUJKAS_clean_linker_0, # of connection points: 2
#     Edge 34, Type (0, 0), BuildingBlock: ZUJKAS_clean_linker_0, # of connection points: 2
#     Edge 35, Type (0, 0), BuildingBlock: ZUJKAS_clean_linker_0, # of connection points: 2
#     Edge 36, Type (0, 0), BuildingBlock: ZUJKAS_clean_linker_0, # of connection points: 2
#     Edge 37, Type (0, 0), BuildingBlock: ZUJKAS_clean_linker_0, # of connection points: 2
#     Edge 38, Type (0, 0), BuildingBlock: ZUJKAS_clean_linker_0, # of connection points: 2
#     Edge 39, Type (0, 0), BuildingBlock: ZUJKAS_clean_linker_0, # of connection points: 2
#     Edge 40, Type (0, 0), BuildingBlock: ZUJKAS_clean_linker_0, # of connection points: 2
#     Edge 41, Type (0, 0), BuildingBlock: ZUJKAS_clean_linker_0, # of connection points: 2
#     Edge 42, Type (0, 0), BuildingBlock: ZUJKAS_clean_linker_0, # of connection points: 2
#     Edge 43, Type (0, 0), BuildingBlock: ZUJKAS_clean_linker_0, # of connection points: 2
#     Edge 44, Type (0, 0), BuildingBlock: ZUJKAS_clean_linker_0, # of connection points: 2
#     Edge 45, Type (0, 0), BuildingBlock: ZUJKAS_clean_linker_0, # of connection points: 2
#     Edge 46, Type (0, 0), BuildingBlock: ZUJKAS_clean_linker_0, # of connection points: 2
#     Edge 47, Type (0, 0), BuildingBlock: ZUJKAS_clean_linker_0, # of connection points: 2
#     Edge 48, Type (0, 0), BuildingBlock: ZUJKAS_clean_linker_0, # of connection points: 2
#     Edge 49, Type (0, 0), BuildingBlock: ZUJKAS_clean_linker_0, # of connection points: 2
#     Edge 50, Type (0, 0), BuildingBlock: ZUJKAS_clean_linker_0, # of connection points: 2
#     Edge 51, Type (0, 0), BuildingBlock: ZUJKAS_clean_linker_0, # of connection points: 2
#     Edge 52, Type (0, 0), BuildingBlock: ZUJKAS_clean_linker_0, # of connection points: 2
#     Edge 53, Type (0, 0), BuildingBlock: ZUJKAS_clean_linker_0, # of connection points: 2
#     Edge 54, Type (0, 0), BuildingBlock: ZUJKAS_clean_linker_0, # of connection points: 2
#     Edge 55, Type (0, 0), BuildingBlock: ZUJKAS_clean_linker_0, # of connection points: 2
#     Edge 56, Type (0, 0), BuildingBlock: ZUJKAS_clean_linker_0, # of connection points: 2
#     Edge 57, Type (0, 0), BuildingBlock: ZUJKAS_clean_linker_0, # of connection points: 2
#     Edge 58, Type (0, 0), BuildingBlock: ZUJKAS_clean_linker_0, # of connection points: 2
#     Edge 59, Type (0, 0), BuildingBlock: ZUJKAS_clean_linker_0, # of connection points: 2
#     Edge 60, Type (0, 0), BuildingBlock: ZUJKAS_clean_linker_0, # of connection points: 2
#     Edge 61, Type (0, 0), BuildingBlock: ZUJKAS_clean_linker_0, # of connection points: 2
#     Edge 62, Type (0, 0), BuildingBlock: ZUJKAS_clean_linker_0, # of connection points: 2
#     Edge 63, Type (0, 0), BuildingBlock: ZUJKAS_clean_linker_0, # of connection points: 2
#     Edge 64, Type (0, 0), BuildingBlock: ZUJKAS_clean_linker_0, # of connection points: 2
#     Edge 65, Type (0, 0), BuildingBlock: ZUJKAS_clean_linker_0, # of connection points: 2
#     Edge 66, Type (0, 0), BuildingBlock: ZUJKAS_clean_linker_0, # of connection points: 2
#     Edge 67, Type (0, 0), BuildingBlock: ZUJKAS_clean_linker_0, # of connection points: 2
#     Edge 68, Type (0, 0), BuildingBlock: ZUJKAS_clean_linker_0, # of connection points: 2
#     Edge 69, Type (0, 0), BuildingBlock: ZUJKAS_clean_linker_0, # of connection points: 2
#     Edge 70, Type (0, 0), BuildingBlock: ZUJKAS_clean_linker_0, # of connection points: 2
#     Edge 71, Type (0, 0), BuildingBlock: ZUJKAS_clean_linker_0, # of connection points: 2
#     Edge 72, Type (0, 0), BuildingBlock: ZUJKAS_clean_linker_0, # of connection points: 2
#     Edge 73, Type (0, 0), BuildingBlock: ZUJKAS_clean_linker_0, # of connection points: 2
#     Edge 74, Type (0, 0), BuildingBlock: ZUJKAS_clean_linker_0, # of connection points: 2
#     Edge 75, Type (0, 0), BuildingBlock: ZUJKAS_clean_linker_0, # of connection points: 2
#     Edge 76, Type (0, 0), BuildingBlock: ZUJKAS_clean_linker_0, # of connection points: 2
#     Edge 77, Type (0, 0), BuildingBlock: ZUJKAS_clean_linker_0, # of connection points: 2
#     Edge 78, Type (0, 0), BuildingBlock: ZUJKAS_clean_linker_0, # of connection points: 2
#     Edge 79, Type (0, 0), BuildingBlock: ZUJKAS_clean_linker_0, # of connection points: 2
#     Edge 80, Type (0, 0), BuildingBlock: ZUJKAS_clean_linker_0, # of connection points: 2
#     Edge 81, Type (0, 0), BuildingBlock: ZUJKAS_clean_linker_0, # of connection points: 2
#     Edge 82, Type (0, 0), BuildingBlock: ZUJKAS_clean_linker_0, # of connection points: 2
#     Edge 83, Type (0, 0), BuildingBlock: ZUJKAS_clean_linker_0, # of connection points: 2
#     Edge 84, Type (0, 0), BuildingBlock: ZUJKAS_clean_linker_0, # of connection points: 2
#     Edge 85, Type (0, 0), BuildingBlock: ZUJKAS_clean_linker_0, # of connection points: 2
#     Edge 86, Type (0, 0), BuildingBlock: ZUJKAS_clean_linker_0, # of connection points: 2
#     Edge 87, Type (0, 0), BuildingBlock: ZUJKAS_clean_linker_0, # of connection points: 2
#     Edge 88, Type (0, 0), BuildingBlock: ZUJKAS_clean_linker_0, # of connection points: 2
#     Edge 89, Type (0, 0), BuildingBlock: ZUJKAS_clean_linker_0, # of connection points: 2
#     Edge 90, Type (0, 0), BuildingBlock: ZUJKAS_clean_linker_0, # of connection points: 2
#     Edge 91, Type (0, 0), BuildingBlock: ZUJKAS_clean_linker_0, # of connection points: 2
#     Edge 92, Type (0, 0), BuildingBlock: ZUJKAS_clean_linker_0, # of connection points: 2
#     Edge 93, Type (0, 0), BuildingBlock: ZUJKAS_clean_linker_0, # of connection points: 2
#     Edge 94, Type (0, 0), BuildingBlock: ZUJKAS_clean_linker_0, # of connection points: 2
#     Edge 95, Type (0, 0), BuildingBlock: ZUJKAS_clean_linker_0, # of connection points: 2
#     Edge 96, Type (0, 0), BuildingBlock: ZUJKAS_clean_linker_0, # of connection points: 2
#     Edge 97, Type (0, 0), BuildingBlock: ZUJKAS_clean_linker_0, # of connection points: 2
#     Edge 98, Type (0, 0), BuildingBlock: ZUJKAS_clean_linker_0, # of connection points: 2
#     Edge 99, Type (0, 0), BuildingBlock: ZUJKAS_clean_linker_0, # of connection points: 2
#     Edge 100, Type (0, 0), BuildingBlock: ZUJKAS_clean_linker_0, # of connection points: 2
#     Edge 101, Type (0, 0), BuildingBlock: ZUJKAS_clean_linker_0, # of connection points: 2
#     Edge 102, Type (0, 0), BuildingBlock: ZUJKAS_clean_linker_0, # of connection points: 2
#     Edge 103, Type (0, 0), BuildingBlock: ZUJKAS_clean_linker_0, # of connection points: 2
#     Edge 104, Type (0, 0), BuildingBlock: ZUJKAS_clean_linker_0, # of connection points: 2
#     Edge 105, Type (0, 0), BuildingBlock: ZUJKAS_clean_linker_0, # of connection points: 2
#     Edge 106, Type (0, 0), BuildingBlock: ZUJKAS_clean_linker_0, # of connection points: 2
#     Edge 107, Type (0, 0), BuildingBlock: ZUJKAS_clean_linker_0, # of connection points: 2
#     Edge 108, Type (0, 0), BuildingBlock: ZUJKAS_clean_linker_0, # of connection points: 2
#     Edge 109, Type (0, 0), BuildingBlock: ZUJKAS_clean_linker_0, # of connection points: 2
#     Edge 110, Type (0, 0), BuildingBlock: ZUJKAS_clean_linker_0, # of connection points: 2
#     Edge 111, Type (0, 0), BuildingBlock: ZUJKAS_clean_linker_0, # of connection points: 2
#     Edge 112, Type (0, 0), BuildingBlock: ZUJKAS_clean_linker_0, # of connection points: 2
#     Edge 113, Type (0, 0), BuildingBlock: ZUJKAS_clean_linker_0, # of connection points: 2
#     Edge 114, Type (0, 0), BuildingBlock: ZUJKAS_clean_linker_0, # of connection points: 2
#     Edge 115, Type (0, 0), BuildingBlock: ZUJKAS_clean_linker_0, # of connection points: 2
#     Edge 116, Type (0, 0), BuildingBlock: ZUJKAS_clean_linker_0, # of connection points: 2
#     Edge 117, Type (0, 0), BuildingBlock: ZUJKAS_clean_linker_0, # of connection points: 2
#     Edge 118, Type (0, 0), BuildingBlock: ZUJKAS_clean_linker_0, # of connection points: 2
#     Edge 119, Type (0, 0), BuildingBlock: ZUJKAS_clean_linker_0, # of connection points: 2
#     Edge 120, Type (0, 0), BuildingBlock: ZUJKAS_clean_linker_0, # of connection points: 2
#     Edge 121, Type (0, 0), BuildingBlock: ZUJKAS_clean_linker_0, # of connection points: 2
#     Edge 122, Type (0, 0), BuildingBlock: ZUJKAS_clean_linker_0, # of connection points: 2
#     Edge 123, Type (0, 0), BuildingBlock: ZUJKAS_clean_linker_0, # of connection points: 2
#     Edge 124, Type (0, 0), BuildingBlock: ZUJKAS_clean_linker_0, # of connection points: 2
#     Edge 125, Type (0, 0), BuildingBlock: ZUJKAS_clean_linker_0, # of connection points: 2
#     Edge 126, Type (0, 0), BuildingBlock: ZUJKAS_clean_linker_0, # of connection points: 2
#     Edge 127, Type (0, 0), BuildingBlock: ZUJKAS_clean_linker_0, # of connection points: 2
# Relax obj value: 0.371
# Max RMSD: 0.201
# Mean RMSD: 0.201
data_MOF--net-wir--node1-BETFEN_clean_sbu_0--edge1-ZUJKAS_clean_linker_0
_symmetry_space_group_name_H-M    P1
_symmetry_Int_Tables_number       1
_symmetry_cell_setting            triclinic
loop_
_symmetry_equiv_pos_as_xyz
'x, y, z'
_cell_length_a     49.633264
_cell_length_b     49.647502
_cell_length_c     136.72207
_cell_angle_alpha  90.119812
_cell_angle_beta   90.114858
_cell_angle_gamma 89.95219
loop_
_atom_site_label
_atom_site_type_symbol
_atom_site_fract_x
_atom_site_fract_y
_atom_site_fract_z
_atom_type_partial_charge
Pr0 Pr 0.24069 0.22783 0.37735 0.0
Pr1 Pr 0.21839 0.19943 0.37298 0.0
C2 C 0.26208 0.2756 0.38246 0.0
C3 C 0.24784 0.30103 0.38351 0.0
C4 C 0.26163 0.32516 0.38511 0.0
C5 C 0.24712 0.34903 0.38638 0.0
C6 C 0.21875 0.34877 0.3861 0.0
C7 C 0.20525 0.32453 0.38412 0.0
C8 C 0.2197 0.30095 0.3828 0.0
C9 C 0.26892 0.1847 0.38831 0.0
C10 C 0.19568 0.21379 0.39284 0.0
C11 C 0.22415 0.1512 0.36494 0.0
C12 C 0.22291 0.13561 0.35598 0.0
C13 C 0.20589 0.1132 0.35579 0.0
C14 C 0.2084 0.09431 0.34839 0.0
C15 C 0.22808 0.0977 0.34116 0.0
C16 C 0.24348 0.12135 0.34087 0.0
C17 C 0.24088 0.14035 0.34827 0.0
C18 C 0.17023 0.22915 0.37204 0.0
C19 C 0.24431 0.22942 0.35388 0.0
O20 O 0.26258 0.26634 0.37356 0.0
O21 O 0.25548 0.25727 0.38881 0.0
O22 O 0.24374 0.18969 0.38771 0.0
O23 O 0.27994 0.20001 0.38172 0.0
O24 O 0.19778 0.19188 0.38768 0.0
O25 O 0.20896 0.2348 0.38976 0.0
O26 O 0.24441 0.16801 0.36602 0.0
O27 O 0.20118 0.15954 0.36854 0.0
O28 O 0.19431 0.24005 0.37201 0.0
O29 O 0.17171 0.20297 0.37235 0.0
O30 O 0.26083 0.23136 0.36128 0.0
O31 O 0.22131 0.21887 0.35657 0.0
H32 H 0.28342 0.32545 0.38554 0.0
H33 H 0.25798 0.3675 0.38787 0.0
H34 H 0.18345 0.3234 0.3841 0.0
H35 H 0.20879 0.28247 0.38148 0.0
H36 H 0.19195 0.10933 0.36172 0.0
H37 H 0.19651 0.07605 0.34879 0.0
H38 H 0.25859 0.12431 0.33526 0.0
H39 H 0.25402 0.15777 0.34827 0.0
Pr40 Pr 0.08827 0.99083 0.62614 0.0
Pr41 Pr 0.11695 0.96844 0.6216 0.0
C42 C 0.03963 1.01041 0.63094 0.0
C43 C 1.01438 0.9956 0.63168 0.0
C44 C 0.99706 1.00074 0.6395 0.0
C45 C 0.97657 0.98258 0.64166 0.0
C46 C 0.97316 0.9591 0.63599 0.0
C47 C 0.98944 0.95503 0.62775 0.0
C48 C 1.01005 0.97304 0.62565 0.0
C49 C 0.13039 1.02094 0.63697 0.0
C50 C 0.10477 0.94816 0.64204 0.0
C51 C 0.16305 0.96969 0.61168 0.0
C52 C 0.17057 0.95968 0.60212 0.0
C53 C 0.15382 0.94114 0.5973 0.0
C54 C 0.16236 0.92905 0.58867 0.0
C55 C 0.18763 0.93556 0.5848 0.0
C56 C 0.20392 0.95483 0.5895 0.0
C57 C 0.1954 0.96682 0.59815 0.0
C58 C 0.08672 0.92014 0.62161 0.0
C59 C 0.0855 0.99396 0.6028 0.0
O60 O 0.04963 1.01237 0.62217 0.0
O61 O 0.0576 1.00375 0.63744 0.0
O62 O 0.12839 0.99549 0.63573 0.0
O63 O 0.1123 0.03149 0.63127 0.0
O64 O 0.12617 0.95039 0.63664 0.0
O65 O 0.083 0.96025 0.63896 0.0
O66 O 0.14634 0.99019 0.61179 0.0
O67 O 0.15708 0.95072 0.61792 0.0
O68 O 0.07614 0.94427 0.62085 0.0
O69 O 0.11281 0.92177 0.62232 0.0
O70 O 0.08574 1.01112 0.61005 0.0
O71 O 0.09435 0.97041 0.60568 0.0
H72 H 1.00052 1.01776 0.64431 0.0
H73 H 0.96473 0.986 0.64819 0.0
H74 H 0.98718 0.93721 0.62324 0.0
H75 H 1.02354 0.96845 0.61965 0.0
H76 H 0.13458 0.93535 0.60039 0.0
H77 H 0.14951 0.91433 0.58513 0.0
H78 H 0.22368 0.95983 0.58669 0.0
H79 H 0.20849 0.98096 0.60189 0.0
Pr80 Pr 0.31006 0.8337 0.87696 0.0
Pr81 Pr 0.33075 0.8664 0.87154 0.0
C82 C 0.28757 0.78513 0.87984 0.0
C83 C 0.30136 0.75941 0.88062 0.0
C84 C 0.28967 0.73822 0.88581 0.0
C85 C 0.30555 0.71646 0.88871 0.0
C86 C 0.33326 0.71607 0.88655 0.0
C87 C 0.34431 0.73645 0.88072 0.0
C88 C 0.32843 0.75796 0.87777 0.0
C89 C 0.28251 0.87416 0.8891 0.0
C90 C 0.34984 0.85198 0.89226 0.0
C91 C 0.33898 0.91441 0.86324 0.0
C92 C 0.35716 0.92484 0.85586 0.0
C93 C 0.36868 0.95022 0.85728 0.0
C94 C 0.38644 0.96049 0.85039 0.0
C95 C 0.39275 0.94542 0.842 0.0
C96 C 0.38181 0.9196 0.84074 0.0
C97 C 0.36421 0.90925 0.84769 0.0
C98 C 0.37996 0.83566 0.87222 0.0
C99 C 0.30428 0.83343 0.85333 0.0
O100 O 0.28867 0.79651 0.87128 0.0
O101 O 0.29317 0.80171 0.88693 0.0
O102 O 0.28875 0.87667 0.87989 0.0
O103 O 0.29118 0.85081 0.89181 0.0
O104 O 0.34093 0.87339 0.88783 0.0
O105 O 0.34503 0.829 0.88802 0.0
O106 O 0.32028 0.89774 0.86024 0.0
O107 O 0.35061 0.9071 0.87137 0.0
O108 O 0.35606 0.82493 0.87144 0.0
O109 O 0.37782 0.86162 0.87287 0.0
O110 O 0.28901 0.82987 0.86102 0.0
O111 O 0.32654 0.84628 0.85545 0.0
H112 H 0.26885 0.73933 0.88815 0.0
H113 H 0.29658 0.70084 0.89316 0.0
H114 H 0.36568 0.73701 0.87912 0.0
H115 H 0.33783 0.77446 0.87389 0.0
H116 H 0.36369 0.9622 0.86366 0.0
H117 H 0.39437 0.98062 0.85143 0.0
H118 H 0.38653 0.9077 0.83432 0.0
H119 H 0.35593 0.88927 0.84661 0.0
Pr120 Pr 0.47258 0.06158 0.12584 0.0
Pr121 Pr 0.44079 0.08159 0.12024 0.0
C122 C 0.52208 0.04072 0.12856 0.0
C123 C 0.54745 0.05511 0.12934 0.0
C124 C 0.57 0.04283 0.13353 0.0
C125 C 0.59215 0.05852 0.13618 0.0
C126 C 0.59158 0.08661 0.13481 0.0
C127 C 0.56956 0.09841 0.12999 0.0
C128 C 0.54771 0.08272 0.12725 0.0
C129 C 0.43312 0.03247 0.1378 0.0
C130 C 0.44971 0.09899 0.14137 0.0
C131 C 0.39432 0.08752 0.11058 0.0
C132 C 0.38529 0.10232 0.1021 0.0
C133 C 0.39986 0.12462 0.09872 0.0
C134 C 0.39113 0.13831 0.09043 0.0
C135 C 0.36802 0.12951 0.08546 0.0
C136 C 0.3536 0.10713 0.08891 0.0
C137 C 0.36225 0.09358 0.0972 0.0
C138 C 0.47064 0.13121 0.12181 0.0
C139 C 0.47397 0.05561 0.1023 0.0
O140 O 0.51048 0.04182 0.12002 0.0
O141 O 0.50549 0.04566 0.13569 0.0
O142 O 0.42983 0.03988 0.12873 0.0
O143 O 0.45681 0.04044 0.14043 0.0
O144 O 0.42957 0.09029 0.13618 0.0
O145 O 0.47367 0.09501 0.13777 0.0
O146 O 0.4111 0.06784 0.10878 0.0
O147 O 0.40091 0.10215 0.11815 0.0
O148 O 0.48149 0.10761 0.12041 0.0
O149 O 0.44477 0.12849 0.12278 0.0
O150 O 0.47513 0.03961 0.10992 0.0
O151 O 0.46323 0.07883 0.10456 0.0
H152 H 0.56988 1.02153 0.13523 0.0
H153 H 0.60903 0.04893 0.13981 0.0
H154 H 0.56821 0.12001 0.12901 0.0
H155 H 0.53025 0.09248 0.1241 0.0
H156 H 0.41793 0.13132 0.10246 0.0
H157 H 0.40252 0.15548 0.08784 0.0
H158 H 0.33544 0.1003 0.08526 0.0
H159 H 0.35101 0.07629 0.09977 0.0
Pr160 Pr 0.24562 0.8299 0.22796 0.0
Pr161 Pr 0.22487 0.85638 0.23224 0.0
C162 C 0.26608 0.78176 0.22288 0.0
C163 C 0.25183 0.75606 0.22258 0.0
C164 C 0.25478 0.73924 0.21445 0.0
C165 C 0.2363 0.71863 0.2128 0.0
C166 C 0.21469 0.71457 0.2193 0.0
C167 C 0.21311 0.73016 0.22784 0.0
C168 C 0.23141 0.7509 0.22943 0.0
C169 C 0.27409 0.87204 0.21663 0.0
C170 C 0.19928 0.8463 0.21306 0.0
C171 C 0.23722 0.89969 0.2427 0.0
C172 C 0.23883 0.90372 0.25317 0.0
C173 C 0.22176 0.88931 0.25944 0.0
C174 C 0.22614 0.88996 0.26947 0.0
C175 C 0.24761 0.90497 0.27328 0.0
C176 C 0.26467 0.9193 0.26697 0.0
C177 C 0.2603 0.91862 0.25695 0.0
C178 C 0.17563 0.8283 0.23332 0.0
C179 C 0.24865 0.82541 0.25112 0.0
O180 O 0.26931 0.79221 0.23154 0.0
O181 O 0.2578 0.79928 0.21649 0.0
O182 O 0.24887 0.86744 0.21732 0.0
O183 O 0.28507 0.8568 0.22326 0.0
O184 O 0.20284 0.86801 0.21823 0.0
O185 O 0.21212 0.82468 0.21594 0.0
O186 O 0.2556 0.88303 0.23938 0.0
O187 O 0.21302 0.8959 0.23906 0.0
O188 O 0.19946 0.81675 0.23328 0.0
O189 O 0.17798 0.85451 0.23293 0.0
O190 O 0.26622 0.82733 0.24409 0.0
O191 O 0.22492 0.83275 0.24794 0.0
H192 H 0.27011 0.7433 0.20901 0.0
H193 H 0.23778 0.70734 0.20603 0.0
H194 H 0.1968 0.72739 0.23299 0.0
H195 H 0.22846 0.76396 0.2357 0.0
H196 H 0.20536 0.87723 0.25658 0.0
H197 H 0.21267 0.879 0.27425 0.0
H198 H 0.28092 0.93164 0.2698 0.0
H199 H 0.2739 0.92934 0.25214 0.0
Pr200 Pr 0.46834 0.99489 0.47923 0.0
Pr201 Pr 0.4357 0.97466 0.48457 0.0
C202 C 0.51752 1.01641 0.47662 0.0
C203 C 0.54298 1.00232 0.47556 0.0
C204 C 0.56537 1.01534 0.47161 0.0
C205 C 0.58772 1.00024 0.46876 0.0
C206 C 0.58753 0.97202 0.46973 0.0
C207 C 0.56561 0.95939 0.47427 0.0
C208 C 0.54352 0.97447 0.47718 0.0
C209 C 0.42854 1.02383 0.46724 0.0
C210 C 0.44775 0.95695 0.46349 0.0
C211 C 0.38805 0.9657 0.49307 0.0
C212 C 0.37765 0.94623 0.5 0.0
C213 C 0.35209 0.93535 0.49835 0.0
C214 C 0.34174 0.91639 0.50477 0.0
C215 C 0.35688 0.90817 0.51293 0.0
C216 C 0.38298 0.91834 0.51435 0.0
C217 C 0.39342 0.93719 0.50786 0.0
C218 C 0.466 0.92513 0.48323 0.0
C219 C 0.46826 1.00091 0.50285 0.0
O220 O 0.50627 1.01432 0.48517 0.0
O221 O 0.50072 1.01204 0.46949 0.0
O222 O 0.42569 1.01704 0.47639 0.0
O223 O 0.45193 1.01519 0.46456 0.0
O224 O 0.42699 0.96556 0.46836 0.0
O225 O 0.47129 0.96138 0.4674 0.0
O226 O 0.40523 0.98347 0.49639 0.0
O227 O 0.39469 0.95556 0.48462 0.0
O228 O 0.47671 0.94875 0.48474 0.0
O229 O 0.44023 0.92787 0.48208 0.0
O230 O 0.47111 1.01648 0.49518 0.0
O231 O 0.45633 0.97823 0.50061 0.0
H232 H 0.56499 0.03683 0.47025 0.0
H233 H 0.6045 1.01041 0.46532 0.0
H234 H 0.56457 0.93767 0.47492 0.0
H235 H 0.52612 0.96415 0.48012 0.0
H236 H 0.33999 0.94185 0.49218 0.0
H237 H 0.32137 0.90921 0.50363 0.0
H238 H 0.39492 0.91226 0.52061 0.0
H239 H 0.41355 0.94495 0.50907 0.0
Pr240 Pr 0.31616 0.22028 0.7293 0.0
Pr241 Pr 0.33668 0.1884 0.73475 0.0
C242 C 0.29382 0.26922 0.72703 0.0
C243 C 0.3069 0.29529 0.72791 0.0
C244 C 0.29725 0.31715 0.72252 0.0
C245 C 0.3139 0.33929 0.72093 0.0
C246 C 0.34035 0.33938 0.72463 0.0
C247 C 0.34898 0.31857 0.73078 0.0
C248 C 0.33229 0.29661 0.73243 0.0
C249 C 0.28774 0.18054 0.71708 0.0
C250 C 0.35412 0.19979 0.71366 0.0
C251 C 0.34351 0.14145 0.74395 0.0
C252 C 0.35864 0.13173 0.75231 0.0
C253 C 0.3843 0.142 0.7545 0.0
C254 C 0.39827 0.13248 0.76262 0.0
C255 C 0.38647 0.11298 0.76864 0.0
C256 C 0.36065 0.10306 0.76645 0.0
C257 C 0.34682 0.11242 0.75832 0.0
C258 C 0.38586 0.21882 0.73346 0.0
C259 C 0.31081 0.22141 0.75293 0.0
O260 O 0.29189 0.2555 0.7351 0.0
O261 O 0.30261 0.25478 0.71975 0.0
O262 O 0.29524 0.17716 0.72613 0.0
O263 O 0.29517 0.20447 0.71461 0.0
O264 O 0.34596 0.17902 0.71861 0.0
O265 O 0.34951 0.22334 0.71752 0.0
O266 O 0.32369 0.15787 0.74598 0.0
O267 O 0.35765 0.14856 0.73635 0.0
O268 O 0.36215 0.22943 0.73498 0.0
O269 O 0.38335 0.19301 0.73225 0.0
O270 O 0.29502 0.22364 0.74528 0.0
O271 O 0.33361 0.20973 0.7507 0.0
H272 H 0.27787 0.31612 0.71887 0.0
H273 H 0.3071 0.35493 0.71599 0.0
H274 H 0.36941 0.3182 0.73359 0.0
H275 H 0.34012 0.27965 0.73652 0.0
H276 H 0.3935 0.15729 0.74995 0.0
H277 H 0.41812 0.14043 0.76424 0.0
H278 H 0.35135 0.0877 0.77093 0.0
H279 H 0.32693 0.10456 0.75671 0.0
Pr280 Pr 0.07928 0.06489 0.9787 0.0
Pr281 Pr 0.1126 0.08522 0.98403 0.0
C282 C 0.03019 0.04335 0.97592 0.0
C283 C 1.00464 0.05758 0.9755 0.0
C284 C 0.98052 0.04384 0.97384 0.0
C285 C 0.9569 0.0584 0.97216 0.0
C286 C 0.95743 0.08676 0.97199 0.0
C287 C 0.98152 0.10027 0.97423 0.0
C288 C 1.00489 0.08576 0.97601 0.0
C289 C 0.11937 0.03648 0.96661 0.0
C290 C 0.09776 0.10354 0.96318 0.0
C291 C 0.16124 0.0938 0.99191 0.0
C292 C 0.1731 0.11224 0.99895 0.0
C293 C 0.19834 0.12327 0.9969 0.0
C294 C 0.21039 0.1407 1.00354 0.0
C295 C 0.19727 0.14716 1.01232 0.0
C296 C 0.17142 0.13694 1.01418 0.0
C297 C 0.15928 0.11964 1.00748 0.0
C298 C 0.08194 0.13451 0.9832 0.0
C299 C 0.07985 0.05898 1.00238 0.0
O300 O 0.04206 0.04379 0.98441 0.0
O301 O 0.04648 0.04911 0.96878 0.0
O302 O 0.12208 0.04297 0.97579 0.0
O303 O 0.09598 0.04515 0.96391 0.0
O304 O 0.1191 0.09447 0.96764 0.0
O305 O 0.0748 0.0994 0.96748 0.0
O306 O 0.14452 0.07573 0.99528 0.0
O307 O 0.15336 0.1049 0.98378 0.0
O308 O 0.07144 0.11077 0.98463 0.0
O309 O 0.10769 0.13206 0.98192 0.0
O310 O 0.0754 0.04398 0.99464 0.0
O311 O 0.09334 0.08089 1.00028 0.0
H312 H 0.98017 1.02205 0.97347 0.0
H313 H 0.93852 0.04751 0.97054 0.0
H314 H 0.98288 0.12203 0.97396 0.0
H315 H 1.02352 0.09658 0.97726 0.0
H316 H 0.20895 0.11799 0.99024 0.0
H317 H 0.23051 0.14802 1.00204 0.0
H318 H 0.161 0.14177 1.02092 0.0
H319 H 0.13943 0.1117 1.00905 0.0
Pr320 Pr 0.83046 0.86528 0.73407 0.0
Pr321 Pr 0.80843 0.83572 0.72934 0.0
C322 C 0.82866 0.91177 0.74376 0.0
C323 C 0.83881 0.91983 0.75325 0.0
C324 C 0.85723 0.90318 0.75816 0.0
C325 C 0.8697 0.91224 0.76665 0.0
C326 C 0.86374 0.93796 0.77028 0.0
C327 C 0.84458 0.95417 0.7655 0.0
C328 C 0.83218 0.94511 0.75699 0.0
C329 C 0.87909 0.8353 0.73425 0.0
C330 C 0.80578 0.83234 0.75276 0.0
C331 C 0.78907 0.78774 0.72365 0.0
C332 C 0.80391 0.76246 0.72295 0.0
C333 C 0.80002 0.74575 0.71484 0.0
C334 C 0.8185 0.72536 0.71283 0.0
C335 C 0.84103 0.72145 0.71895 0.0
C336 C 0.84377 0.73708 0.72745 0.0
C337 C 0.82547 0.75759 0.72939 0.0
C338 C 0.77795 0.87865 0.7191 0.0
C339 C 0.85163 0.85266 0.71383 0.0
O340 O 0.80843 0.89475 0.7438 0.0
O341 O 0.84761 0.90581 0.73749 0.0
O342 O 0.85503 0.82443 0.73476 0.0
O343 O 0.87721 0.86139 0.73369 0.0
O344 O 0.78913 0.83027 0.74541 0.0
O345 O 0.82838 0.84379 0.75012 0.0
O346 O 0.7859 0.79715 0.73247 0.0
O347 O 0.79675 0.80608 0.71747 0.0
O348 O 0.80341 0.8759 0.71994 0.0
O349 O 0.76769 0.86089 0.72497 0.0
O350 O 0.84766 0.87443 0.71892 0.0
O351 O 0.84077 0.83053 0.7171 0.0
H352 H 0.86269 0.88364 0.75523 0.0
H353 H 0.88433 0.89944 0.77026 0.0
H354 H 0.84001 0.97427 0.76812 0.0
H355 H 0.81817 0.95814 0.75317 0.0
H356 H 0.78381 0.74964 0.70971 0.0
H357 H 0.81614 0.71404 0.70611 0.0
H358 H 0.86083 0.73443 0.7323 0.0
H359 H 0.82913 0.77065 0.73561 0.0
Pr360 Pr 0.9492 0.08342 0.48193 0.0
Pr361 Pr 0.97732 0.06252 0.47753 0.0
C362 C 0.90366 0.07644 0.49166 0.0
C363 C 0.8955 0.08013 0.50176 0.0
C364 C 0.87497 0.09856 0.5038 0.0
C365 C 0.86625 0.10201 0.51333 0.0
C366 C 0.87788 0.08686 0.52091 0.0
C367 C 0.89946 0.0695 0.51895 0.0
C368 C 0.90831 0.06618 0.5094 0.0
C369 C 0.97737 0.13272 0.4827 0.0
C370 C 0.98054 0.05896 0.50087 0.0
C371 C 1.02561 0.04267 0.47221 0.0
C372 C 0.05074 0.05732 0.47104 0.0
C373 C 0.07494 0.04385 0.46919 0.0
C374 C 0.09854 0.05865 0.4678 0.0
C375 C 0.09796 0.08698 0.46824 0.0
C376 C 0.07369 0.10017 0.47044 0.0
C377 C 0.05033 0.08543 0.47186 0.0
C378 C 0.93489 0.03274 0.46669 0.0
C379 C 0.96004 0.10708 0.46223 0.0
O380 O 0.92032 0.05644 0.48985 0.0
O381 O 0.90917 0.09875 0.48699 0.0
O382 O 0.98892 0.10896 0.48305 0.0
O383 O 0.95129 0.13025 0.48201 0.0
O384 O 0.98083 0.04194 0.49358 0.0
O385 O 0.97105 0.08226 0.49801 0.0
O386 O 1.01676 0.04194 0.48115 0.0
O387 O 1.00686 0.04892 0.46594 0.0
O388 O 0.93882 0.05805 0.46731 0.0
O389 O 0.95103 1.02227 0.47316 0.0
O390 O 0.93851 0.1033 0.46742 0.0
O391 O 0.98203 0.09516 0.46522 0.0
H392 H 0.86516 0.10971 0.49799 0.0
H393 H 0.84917 0.11512 0.51465 0.0
H394 H 0.90851 0.05759 0.52472 0.0
H395 H 0.92457 0.05215 0.50799 0.0
H396 H 0.07547 1.02209 0.46866 0.0
H397 H 0.11704 0.04805 0.46612 0.0
H398 H 0.07235 0.12195 0.47059 0.0
H399 H 0.03177 0.09608 0.47333 0.0
Pr400 Pr 0.71883 0.19033 0.23449 0.0
Pr401 Pr 0.73926 0.22318 0.22896 0.0
C402 C 0.70981 0.14295 0.24315 0.0
C403 C 0.69214 0.13338 0.25087 0.0
C404 C 0.67775 0.10953 0.24936 0.0
C405 C 0.66077 0.09989 0.25661 0.0
C406 C 0.65814 0.11402 0.26546 0.0
C407 C 0.67176 0.13849 0.26681 0.0
C408 C 0.6886 0.14824 0.25951 0.0
C409 C 0.66984 0.22144 0.23334 0.0
C410 C 0.74438 0.2242 0.25271 0.0
C411 C 0.76117 0.2719 0.22588 0.0
C412 C 0.74849 0.29833 0.2263 0.0
C413 C 0.75442 0.31705 0.21901 0.0
C414 C 0.73708 0.3386 0.21737 0.0
C415 C 0.71364 0.34178 0.22306 0.0
C416 C 0.70918 0.32429 0.23094 0.0
C417 C 0.72633 0.30251 0.23249 0.0
C418 C 0.76793 0.18287 0.21706 0.0
C419 C 0.70119 0.20221 0.21342 0.0
O420 O 0.72948 0.15897 0.24576 0.0
O421 O 0.69754 0.1504 0.23518 0.0
O422 O 0.69362 0.2318 0.23488 0.0
O423 O 0.67218 0.1957 0.23198 0.0
O424 O 0.75951 0.22847 0.24502 0.0
O425 O 0.72265 0.21047 0.25058 0.0
O426 O 0.76355 0.25913 0.23415 0.0
O427 O 0.75204 0.25667 0.21888 0.0
O428 O 0.76094 0.18013 0.2262 0.0
O429 O 0.75974 0.20639 0.21438 0.0
O430 O 0.7101 0.18153 0.21827 0.0
O431 O 0.70517 0.22575 0.21738 0.0
H432 H 0.68002 0.09815 0.24263 0.0
H433 H 0.65074 0.08075 0.25549 0.0
H434 H 0.66992 0.14965 0.27359 0.0
H435 H 0.69912 0.16707 0.2607 0.0
H436 H 0.77113 0.31373 0.21406 0.0
H437 H 0.74093 0.35129 0.21109 0.0
H438 H 0.69148 0.32634 0.23551 0.0
H439 H 0.72114 0.28792 0.23806 0.0
Pr440 Pr 0.61405 0.97005 0.9825 0.0
Pr441 Pr 0.58773 0.99057 0.9778 0.0
C442 C 0.65591 0.98264 0.99373 0.0
C443 C 0.65818 0.98508 1.00427 0.0
C444 C 0.64297 0.96827 1.01038 0.0
C445 C 0.64103 0.97396 1.0203 0.0
C446 C 0.6542 0.99653 1.02418 0.0
C447 C 0.66972 1.01306 1.01806 0.0
C448 C 0.67165 1.00737 1.00815 0.0
C449 C 0.5859 0.92082 0.98309 0.0
C450 C 0.5818 0.99391 1.00091 0.0
C451 C 0.53959 1.01037 0.97235 0.0
C452 C 0.51387 0.99632 0.97179 0.0
C453 C 0.49702 1.00056 0.96374 0.0
C454 C 0.47569 0.98302 0.96197 0.0
C455 C 0.47093 0.96111 0.96826 0.0
C456 C 0.48688 0.95801 0.97666 0.0
C457 C 0.50834 0.97535 0.97837 0.0
C458 C 0.62967 1.01999 0.96685 0.0
C459 C 0.60772 0.94481 0.96302 0.0
O460 O 0.6401 1.00094 0.98986 0.0
O461 O 0.65237 0.95826 0.99023 0.0
O462 O 0.5743 0.94458 0.98297 0.0
O463 O 0.61214 0.92318 0.98297 0.0
O464 O 0.58486 1.01142 0.9939 0.0
O465 O 0.58864 0.97002 0.99778 0.0
O466 O 0.54941 1.01346 0.98111 0.0
O467 O 0.55752 1.00209 0.96611 0.0
O468 O 0.62644 0.99458 0.96778 0.0
O469 O 0.61305 0.03079 0.97306 0.0
O470 O 0.62819 0.94786 0.96887 0.0
O471 O 0.58557 0.95766 0.96537 0.0
H472 H 0.63199 0.95121 1.00745 0.0
H473 H 0.62919 0.96086 1.02494 0.0
H474 H 0.68071 0.03015 1.02097 0.0
H475 H 0.68303 1.02074 1.00346 0.0
H476 H 0.50139 1.01633 0.95852 0.0
H477 H 0.46415 0.98562 0.95531 0.0
H478 H 0.48359 0.94143 0.98166 0.0
H479 H 0.52145 0.97145 0.98455 0.0
Pr480 Pr 0.83828 0.18854 0.87117 0.0
Pr481 Pr 0.81804 0.2215 0.87679 0.0
C482 C 0.84717 0.14078 0.86269 0.0
C483 C 0.86612 0.13013 0.8556 0.0
C484 C 0.87648 0.10429 0.85706 0.0
C485 C 0.89458 0.0935 0.85039 0.0
C486 C 0.90244 0.10849 0.84218 0.0
C487 C 0.89292 0.13491 0.84097 0.0
C488 C 0.87492 0.14578 0.8477 0.0
C489 C 0.88754 0.21913 0.87246 0.0
C490 C 0.81213 0.22205 0.85305 0.0
C491 C 0.79623 0.27045 0.87974 0.0
C492 C 0.80948 0.29649 0.87989 0.0
C493 C 0.79481 0.32004 0.88159 0.0
C494 C 0.80843 0.34425 0.88313 0.0
C495 C 0.83679 0.34486 0.88312 0.0
C496 C 0.8512 0.32138 0.88076 0.0
C497 C 0.8376 0.29739 0.87912 0.0
C498 C 0.7891 0.18114 0.88845 0.0
C499 C 0.85612 0.20025 0.89231 0.0
O500 O 0.8291 0.15778 0.85946 0.0
O501 O 0.85789 0.14775 0.87101 0.0
O502 O 0.86385 0.22978 0.87104 0.0
O503 O 0.88504 0.19335 0.87356 0.0
O504 O 0.79719 0.22618 0.86081 0.0
O505 O 0.83409 0.20854 0.85508 0.0
O506 O 0.79595 0.25842 0.87128 0.0
O507 O 0.80343 0.25453 0.88683 0.0
O508 O 0.79596 0.17871 0.8793 0.0
O509 O 0.79751 0.20445 0.89131 0.0
O510 O 0.84736 0.17967 0.88735 0.0
O511 O 0.8518 0.22391 0.88853 0.0
H512 H 0.87014 0.09228 0.86325 0.0
H513 H 0.90124 0.0729 0.85139 0.0
H514 H 0.89873 0.14674 0.83467 0.0
H515 H 0.86752 0.1661 0.84663 0.0
H516 H 0.77305 0.31949 0.88214 0.0
H517 H 0.79687 0.36215 0.88485 0.0
H518 H 0.87302 0.32097 0.88088 0.0
H519 H 0.84912 0.27919 0.87782 0.0
Pr520 Pr 0.60453 0.08649 0.62374 0.0
Pr521 Pr 0.57767 0.06613 0.62803 0.0
C522 C 0.6482 0.07386 0.6136 0.0
C523 C 0.6541 0.07312 0.60329 0.0
C524 C 0.6398 0.08956 0.59676 0.0
C525 C 0.64513 0.08807 0.58681 0.0
C526 C 0.66488 0.07024 0.58337 0.0
C527 C 0.67832 0.05308 0.58995 0.0
C528 C 0.67286 0.05449 0.59987 0.0
C529 C 0.57705 0.13608 0.62269 0.0
C530 C 0.57347 0.06274 0.60485 0.0
C531 C 0.52936 0.04608 0.63313 0.0
C532 C 0.50397 0.06039 0.63416 0.0
C533 C 0.47958 0.04645 0.63471 0.0
C534 C 0.45552 0.06075 0.63572 0.0
C535 C 0.4558 0.08908 0.63619 0.0
C536 C 0.48036 0.10285 0.63527 0.0
C537 C 0.5042 0.0886 0.63423 0.0
C538 C 0.61959 0.03681 0.63921 0.0
C539 C 0.59536 0.11186 0.64306 0.0
O540 O 0.63064 0.05569 0.61638 0.0
O541 O 0.64451 0.09789 0.61739 0.0
O542 O 0.56523 0.11244 0.62272 0.0
O543 O 0.60324 0.13341 0.62308 0.0
O544 O 0.57509 0.0453 0.61195 0.0
O545 O 0.5811 0.08643 0.60797 0.0
O546 O 0.5385 0.04532 0.62424 0.0
O547 O 0.54782 0.05255 0.63948 0.0
O548 O 0.61542 0.0621 0.63856 0.0
O549 O 0.60396 1.0261 0.63262 0.0
O550 O 0.61672 0.10833 0.63774 0.0
O551 O 0.57352 0.09921 0.64028 0.0
H552 H 0.62495 0.10385 0.59935 0.0
H553 H 0.63469 0.10154 0.58186 0.0
H554 H 0.69416 0.03963 0.58753 0.0
H555 H 0.68363 0.04145 0.60489 0.0
H556 H 0.4792 1.02464 0.63449 0.0
H557 H 0.43681 0.04971 0.63638 0.0
H558 H 0.48139 0.1246 0.63583 0.0
H559 H 0.52292 0.09964 0.63369 0.0
Pr560 Pr 0.72467 0.86349 0.37089 0.0
Pr561 Pr 0.7442 0.83055 0.37681 0.0
C562 C 0.71848 0.91081 0.36186 0.0
C563 C 0.70283 0.92149 0.35381 0.0
C564 C 0.67768 0.91045 0.35136 0.0
C565 C 0.66301 0.92114 0.3436 0.0
C566 C 0.67362 0.94263 0.33821 0.0
C567 C 0.69891 0.95338 0.34067 0.0
C568 C 0.71344 0.94282 0.34844 0.0
C569 C 0.67494 0.83348 0.37206 0.0
C570 C 0.75042 0.82881 0.35306 0.0
C571 C 0.76408 0.78121 0.38039 0.0
C572 C 0.74974 0.75563 0.38025 0.0
C573 C 0.75486 0.73687 0.38762 0.0
C574 C 0.73635 0.71645 0.38945 0.0
C575 C 0.71253 0.71452 0.38386 0.0
C576 C 0.70864 0.73209 0.37596 0.0
C577 C 0.727 0.75266 0.37422 0.0
C578 C 0.77355 0.87089 0.38847 0.0
C579 C 0.70626 0.85432 0.3919 0.0
O580 O 0.73735 0.89366 0.35947 0.0
O581 O 0.70484 0.90396 0.3696 0.0
O582 O 0.69857 0.82253 0.3708 0.0
O583 O 0.67773 0.85932 0.37306 0.0
O584 O 0.76518 0.82476 0.3609 0.0
O585 O 0.72861 0.84264 0.35495 0.0
O586 O 0.76686 0.79319 0.37198 0.0
O587 O 0.75612 0.79749 0.38726 0.0
O588 O 0.76684 0.87309 0.37928 0.0
O589 O 0.76482 0.84777 0.39136 0.0
O590 O 0.71593 0.87427 0.3869 0.0
O591 O 0.70971 0.83033 0.38825 0.0
H592 H 0.66942 0.8937 0.35544 0.0
H593 H 0.64358 0.91255 0.34176 0.0
H594 H 0.70727 0.97027 0.3367 0.0
H595 H 0.7329 0.95135 0.35029 0.0
H596 H 0.77199 0.73932 0.39247 0.0
H597 H 0.73973 0.70364 0.39573 0.0
H598 H 0.69061 0.73097 0.3715 0.0
H599 H 0.72241 0.76734 0.3686 0.0
Pr600 Pr 0.94106 0.97144 0.12273 0.0
Pr601 Pr 0.9704 0.9928 0.12737 0.0
C602 C 0.89253 0.97795 0.115 0.0
C603 C 0.87534 0.97858 0.10641 0.0
C604 C 0.85376 0.96049 0.10598 0.0
C605 C 0.83299 0.96475 0.09938 0.0
C606 C 0.83366 0.98724 0.09321 0.0
C607 C 0.85634 1.00401 0.09306 0.0
C608 C 0.87722 0.99967 0.09964 0.0
C609 C 0.97044 0.92283 0.12175 0.0
C610 C 0.97261 0.99667 0.10378 0.0
C611 C 1.01802 1.01277 0.13317 0.0
C612 C 0.04352 0.99824 0.13341 0.0
C613 C 0.06072 1.00137 0.14142 0.0
C614 C 0.08108 0.98261 0.14307 0.0
C615 C 0.08444 0.96052 0.13669 0.0
C616 C 0.06839 0.95865 0.12828 0.0
C617 C 0.04793 0.97726 0.12668 0.0
C618 C 0.92729 1.0217 0.13817 0.0
C619 C 0.95483 0.94747 0.1424 0.0
O620 O 0.9094 0.99805 0.11631 0.0
O621 O 0.90122 0.95444 0.11799 0.0
O622 O 0.98156 0.9468 0.12139 0.0
O623 O 0.94434 0.92476 0.12252 0.0
O624 O 0.97694 1.01213 0.11135 0.0
O625 O 0.95932 0.97489 0.10619 0.0
O626 O 1.00809 1.01708 0.1245 0.0
O627 O 1.00014 1.00375 0.13928 0.0
O628 O 0.9319 0.99649 0.13754 0.0
O629 O 0.94296 0.03246 0.13164 0.0
O630 O 0.93281 0.95145 0.13746 0.0
O631 O 0.97657 0.95937 0.13923 0.0
H632 H 0.85199 0.94422 0.11122 0.0
H633 H 0.81553 0.95169 0.09964 0.0
H634 H 0.85723 1.02126 0.08823 0.0
H635 H 0.89383 1.01381 0.09983 0.0
H636 H 0.05716 1.0171 0.14677 0.0
H637 H 0.09274 0.9843 0.14975 0.0
H638 H 0.0706 0.94193 0.12323 0.0
H639 H 0.03447 0.97416 0.12053 0.0
Pr640 Pr 0.73704 0.7209 0.87724 0.0
Pr641 Pr 0.71626 0.68906 0.87156 0.0
C642 C 0.76019 0.76929 0.88003 0.0
C643 C 0.74799 0.79585 0.87999 0.0
C644 C 0.76365 0.81885 0.88148 0.0
C645 C 0.75108 0.84368 0.88289 0.0
C646 C 0.72277 0.84549 0.88296 0.0
C647 C 0.70735 0.82253 0.88076 0.0
C648 C 0.71992 0.7979 0.87925 0.0
C649 C 0.7652 0.68062 0.88917 0.0
C650 C 0.69832 0.70026 0.89262 0.0
C651 C 0.70768 0.64217 0.86246 0.0
C652 C 0.69013 0.63303 0.85461 0.0
C653 C 0.6752 0.60947 0.85596 0.0
C654 C 0.65819 0.60031 0.8486 0.0
C655 C 0.65608 0.61463 0.83979 0.0
C656 C 0.67029 0.6388 0.83859 0.0
C657 C 0.68715 0.64807 0.84599 0.0
C658 C 0.66734 0.72011 0.87271 0.0
C659 C 0.74251 0.72218 0.85354 0.0
O660 O 0.7602 0.75696 0.87163 0.0
O661 O 0.75227 0.75392 0.88716 0.0
O662 O 0.75789 0.67762 0.88007 0.0
O663 O 0.75751 0.70434 0.89184 0.0
O664 O 0.70664 0.67959 0.88763 0.0
O665 O 0.70325 0.72389 0.88891 0.0
O666 O 0.72736 0.6584 0.86007 0.0
O667 O 0.69525 0.64908 0.87047 0.0
O668 O 0.69124 0.73064 0.87174 0.0
O669 O 0.66938 0.69415 0.87338 0.0
O670 O 0.75807 0.72485 0.86125 0.0
O671 O 0.71992 0.71005 0.85566 0.0
H672 H 0.78538 0.8174 0.882 0.0
H673 H 0.7634 0.86115 0.88449 0.0
H674 H 0.68554 0.82303 0.88095 0.0
H675 H 0.70764 0.78014 0.8781 0.0
H676 H 0.67703 0.59795 0.86266 0.0
H677 H 0.64772 0.58139 0.84961 0.0
H678 H 0.66885 0.65009 0.83183 0.0
H679 H 0.69809 0.66669 0.84491 0.0
Pr680 Pr 0.58419 0.48696 0.12757 0.0
Pr681 Pr 0.61774 0.46719 0.12186 0.0
C682 C 0.53536 0.50825 0.13105 0.0
C683 C 0.50934 0.49478 0.13052 0.0
C684 C 0.49001 0.50034 0.13765 0.0
C685 C 0.46907 0.48224 0.13924 0.0
C686 C 0.46723 0.45839 0.13367 0.0
C687 C 0.48531 0.4542 0.12594 0.0
C688 C 0.50638 0.47217 0.12442 0.0
C689 C 0.62499 0.51517 0.13946 0.0
C690 C 0.60509 0.44772 0.14268 0.0
C691 C 0.66586 0.45888 0.11359 0.0
C692 C 0.6776 0.44045 0.1064 0.0
C693 C 0.68601 0.41452 0.10918 0.0
C694 C 0.69891 0.39787 0.10249 0.0
C695 C 0.7037 0.40696 0.09296 0.0
C696 C 0.69435 0.43245 0.09007 0.0
C697 C 0.68144 0.4491 0.09676 0.0
C698 C 0.58673 0.41791 0.12254 0.0
C699 C 0.58375 0.49301 0.10373 0.0
O700 O 0.54794 0.51147 0.12278 0.0
O701 O 0.55093 0.49901 0.13792 0.0
O702 O 0.62664 0.50968 0.13015 0.0
O703 O 0.60231 0.50543 0.14237 0.0
O704 O 0.62591 0.45712 0.13805 0.0
O705 O 0.58165 0.45186 0.13866 0.0
O706 O 0.64876 0.4768 0.11033 0.0
O707 O 0.65883 0.44838 0.12193 0.0
O708 O 0.57636 0.44174 0.12116 0.0
O709 O 0.61251 0.42026 0.12384 0.0
O710 O 0.57803 0.50717 0.11157 0.0
O711 O 0.59873 0.47196 0.10565 0.0
H712 H 0.49242 0.51739 0.14254 0.0
H713 H 0.45583 0.48586 0.14539 0.0
H714 H 0.48428 0.43613 0.1215 0.0
H715 H 0.52149 0.46726 0.11899 0.0
H716 H 0.68326 0.40728 0.11658 0.0
H717 H 0.70587 0.37822 0.10484 0.0
H718 H 0.69823 0.44012 0.0828 0.0
H719 H 0.67521 0.46903 0.09446 0.0
Pr720 Pr 0.81215 0.33782 0.37733 0.0
Pr721 Pr 0.83211 0.37023 0.37144 0.0
C722 C 0.79216 0.28845 0.38063 0.0
C723 C 0.80679 0.26297 0.38057 0.0
C724 C 0.80215 0.24446 0.38806 0.0
C725 C 0.82107 0.22443 0.38998 0.0
C726 C 0.84482 0.22262 0.38438 0.0
C727 C 0.8482 0.23984 0.37635 0.0
C728 C 0.82943 0.26003 0.37451 0.0
C729 C 0.78334 0.37801 0.38914 0.0
C730 C 0.85067 0.36108 0.39247 0.0
C731 C 0.83887 0.41655 0.36182 0.0
C732 C 0.85582 0.42411 0.3537 0.0
C733 C 0.87405 0.40539 0.34979 0.0
C734 C 0.89057 0.41272 0.34204 0.0
C735 C 0.88888 0.4388 0.33816 0.0
C736 C 0.87045 0.45738 0.34212 0.0
C737 C 0.85406 0.45006 0.34989 0.0
C738 C 0.88157 0.33998 0.37267 0.0
C739 C 0.80636 0.33562 0.35361 0.0
O740 O 0.78972 0.30057 0.37223 0.0
O741 O 0.79953 0.30468 0.38762 0.0
O742 O 0.79046 0.38083 0.38002 0.0
O743 O 0.79131 0.35443 0.39185 0.0
O744 O 0.84171 0.38126 0.38738 0.0
O745 O 0.84643 0.33712 0.38889 0.0
O746 O 0.81958 0.39959 0.35971 0.0
O747 O 0.85194 0.41061 0.36982 0.0
O748 O 0.85784 0.32908 0.37169 0.0
O749 O 0.87915 0.36593 0.37331 0.0
O750 O 0.79107 0.33254 0.36135 0.0
O751 O 0.82858 0.34856 0.35565 0.0
H752 H 0.78511 0.24687 0.39292 0.0
H753 H 0.81805 0.21189 0.39635 0.0
H754 H 0.86616 0.23881 0.37188 0.0
H755 H 0.83367 0.27451 0.36879 0.0
H756 H 0.8755 0.3852 0.35275 0.0
H757 H 0.90463 0.39811 0.33911 0.0
H758 H 0.86831 0.47742 0.3391 0.0
H759 H 0.83994 0.46454 0.35289 0.0
Pr760 Pr 0.97135 0.56233 0.62642 0.0
Pr761 Pr 0.94225 0.58433 0.62171 0.0
C762 C 1.01942 0.54268 0.6319 0.0
C763 C 0.04499 0.55706 0.63242 0.0
C764 C 0.06177 0.55342 0.64051 0.0
C765 C 0.0827 0.57145 0.64228 0.0
C766 C 0.08714 0.59328 0.63591 0.0
C767 C 0.07132 0.59576 0.62745 0.0
C768 C 0.05024 0.57793 0.62576 0.0
C769 C 0.92869 0.53246 0.637 0.0
C770 C 0.95476 0.606 0.64187 0.0
C771 C 0.89602 0.58215 0.61186 0.0
C772 C 0.88809 0.59182 0.6023 0.0
C773 C 0.90353 0.61173 0.59767 0.0
C774 C 0.89432 0.62341 0.58907 0.0
C775 C 0.86978 0.61504 0.58501 0.0
C776 C 0.85499 0.59429 0.58946 0.0
C777 C 0.86412 0.58276 0.5981 0.0
C778 C 0.97238 0.63282 0.6215 0.0
C779 C 0.9748 0.55938 0.60301 0.0
O780 O 1.00958 0.53926 0.62315 0.0
O781 O 1.00145 0.55093 0.63815 0.0
O782 O 0.93135 0.55787 0.63597 0.0
O783 O 0.94634 0.52186 0.63113 0.0
O784 O 0.93299 0.60218 0.63677 0.0
O785 O 0.9768 0.59478 0.63866 0.0
O786 O 0.91303 0.56188 0.61197 0.0
O787 O 0.90178 0.60134 0.61809 0.0
O788 O 0.98307 0.60867 0.62091 0.0
O789 O 0.94628 0.63111 0.62213 0.0
O790 O 0.97609 0.5426 0.61032 0.0
O791 O 0.9641 0.58233 0.60571 0.0
H792 H 0.05759 0.53776 0.64581 0.0
H793 H 0.09411 0.56931 0.64899 0.0
H794 H 0.07436 0.61226 0.6224 0.0
H795 H 0.03714 0.58141 0.61954 0.0
H796 H 0.92217 0.61888 0.6009 0.0
H797 H 0.90602 0.63929 0.5857 0.0
H798 H 0.83581 0.5878 0.58648 0.0
H799 H 0.85209 0.56747 0.60167 0.0
Pr800 Pr 0.74197 0.33215 0.72824 0.0
Pr801 Pr 0.72216 0.36478 0.73407 0.0
C802 C 0.76264 0.28292 0.725 0.0
C803 C 0.74883 0.25707 0.72554 0.0
C804 C 0.75343 0.23795 0.71822 0.0
C805 C 0.73473 0.21752 0.71662 0.0
C806 C 0.71125 0.21597 0.72236 0.0
C807 C 0.70814 0.23365 0.7303 0.0
C808 C 0.72668 0.25424 0.73183 0.0
C809 C 0.77072 0.37229 0.71637 0.0
C810 C 0.70354 0.35467 0.71304 0.0
C811 C 0.71568 0.41206 0.74316 0.0
C812 C 0.70009 0.42254 0.75126 0.0
C813 C 0.6748 0.41167 0.75358 0.0
C814 C 0.66013 0.42228 0.76135 0.0
C815 C 0.67085 0.44354 0.76688 0.0
C816 C 0.69632 0.45406 0.76457 0.0
C817 C 0.71086 0.44357 0.75679 0.0
C818 C 0.67269 0.33442 0.73294 0.0
C819 C 0.74819 0.33071 0.75199 0.0
O820 O 0.76584 0.29574 0.73325 0.0
O821 O 0.75379 0.29839 0.71804 0.0
O822 O 0.76383 0.37502 0.72551 0.0
O823 O 0.76249 0.3488 0.71363 0.0
O824 O 0.71268 0.37497 0.71805 0.0
O825 O 0.70766 0.33083 0.71671 0.0
O826 O 0.73485 0.39516 0.74548 0.0
O827 O 0.70195 0.40505 0.73543 0.0
O828 O 0.69642 0.32371 0.73426 0.0
O829 O 0.67528 0.36025 0.73186 0.0
O830 O 0.76306 0.32689 0.74419 0.0
O831 O 0.72617 0.34416 0.75004 0.0
H832 H 0.77013 0.24025 0.7132 0.0
H833 H 0.73755 0.20458 0.71032 0.0
H834 H 0.69039 0.2328 0.73489 0.0
H835 H 0.72251 0.26915 0.73743 0.0
H836 H 0.66642 0.39513 0.74938 0.0
H837 H 0.64057 0.41387 0.76306 0.0
H838 H 0.70478 0.47076 0.76866 0.0
H839 H 0.73042 0.45197 0.75505 0.0
Pr840 Pr 0.96842 0.49048 0.97834 0.0
Pr841 Pr 0.93613 0.47059 0.98405 0.0
C842 C 1.01767 0.51148 0.97539 0.0
C843 C 0.04344 0.49768 0.9751 0.0
C844 C 0.06708 0.51168 0.97297 0.0
C845 C 0.09081 0.49741 0.97124 0.0
C846 C 0.09085 0.46907 0.97151 0.0
C847 C 0.06735 0.45535 0.97427 0.0
C848 C 0.04383 0.4696 0.97608 0.0
C849 C 0.92853 0.51928 0.96639 0.0
C850 C 0.94585 0.45269 0.9629 0.0
C851 C 0.88927 0.46345 0.99332 0.0
C852 C 0.8801 0.44644 1.00119 0.0
C853 C 0.89665 0.42574 1.00474 0.0
C854 C 0.88734 0.40894 1.01212 0.0
C855 C 0.86149 0.41287 1.016 0.0
C856 C 0.84523 0.43395 1.01247 0.0
C857 C 0.85448 0.45057 1.00506 0.0
C858 C 0.96655 0.42121 0.98272 0.0
C859 C 0.96986 0.49728 1.00192 0.0
O860 O 1.00588 0.51163 0.98388 0.0
O861 O 1.00141 0.50491 0.96831 0.0
O862 O 0.9255 0.51222 0.9755 0.0
O863 O 0.95216 0.51125 0.96375 0.0
O864 O 0.92564 0.4615 0.96801 0.0
O865 O 0.96975 0.45668 0.96657 0.0
O866 O 0.90637 0.48229 0.99578 0.0
O867 O 0.89576 0.45063 0.98534 0.0
O868 O 0.97713 0.44487 0.98421 0.0
O869 O 0.94074 0.42377 0.98155 0.0
O870 O 0.97217 0.51261 0.99416 0.0
O871 O 0.95786 0.4745 0.99988 0.0
H872 H 0.0669 0.5334 0.97222 0.0
H873 H 0.10876 0.50843 0.96919 0.0
H874 H 0.06652 0.43355 0.97435 0.0
H875 H 1.02555 0.45858 0.97768 0.0
H876 H 0.91661 0.42252 1.00175 0.0
H877 H 0.9002 0.39284 1.01474 0.0
H878 H 0.82549 0.43787 1.01553 0.0
H879 H 0.8417 0.46664 1.00236 0.0
Pr880 Pr 0.81841 0.71896 0.22831 0.0
Pr881 Pr 0.83801 0.68553 0.23375 0.0
C882 C 0.79642 0.76763 0.2251 0.0
C883 C 0.80962 0.79383 0.22535 0.0
C884 C 0.8041 0.81232 0.21793 0.0
C885 C 0.82199 0.83329 0.21613 0.0
C886 C 0.84558 0.83609 0.2218 0.0
C887 C 0.84965 0.81895 0.22982 0.0
C888 C 0.83193 0.79778 0.23152 0.0
C889 C 0.79034 0.6784 0.21622 0.0
C890 C 0.85852 0.70073 0.21317 0.0
C891 C 0.84572 0.63672 0.24156 0.0
C892 C 0.8646 0.62356 0.24826 0.0
C893 C 0.88829 0.61168 0.24464 0.0
C894 C 0.90503 0.59713 0.25084 0.0
C895 C 0.89818 0.59402 0.26071 0.0
C896 C 0.87513 0.60689 0.26441 0.0
C897 C 0.85844 0.62153 0.25822 0.0
C898 C 0.88783 0.71545 0.23326 0.0
C899 C 0.81273 0.71924 0.25206 0.0
O900 O 0.79435 0.75514 0.23344 0.0
O901 O 0.8049 0.75202 0.21811 0.0
O902 O 0.79544 0.67678 0.22554 0.0
O903 O 0.80064 0.70087 0.21334 0.0
O904 O 0.84932 0.67926 0.21748 0.0
O905 O 0.85363 0.72364 0.21744 0.0
O906 O 0.82901 0.65433 0.24529 0.0
O907 O 0.85535 0.64386 0.2331 0.0
O908 O 0.86415 0.7264 0.2345 0.0
O909 O 0.88502 0.68971 0.23202 0.0
O910 O 0.79819 0.7246 0.24429 0.0
O911 O 0.83395 0.70458 0.25003 0.0
H912 H 0.78728 0.80917 0.21299 0.0
H913 H 0.81845 0.84575 0.20977 0.0
H914 H 0.86747 0.82073 0.23435 0.0
H915 H 0.83683 0.78336 0.2372 0.0
H916 H 0.89356 0.61293 0.23697 0.0
H917 H 0.9228 0.58749 0.24785 0.0
H918 H 0.86913 0.60441 0.27197 0.0
H919 H 0.84025 0.63043 0.26119 0.0
Pr920 Pr 0.57954 0.5685 0.47833 0.0
Pr921 Pr 0.6123 0.58881 0.48382 0.0
C922 C 0.53069 0.54677 0.4753 0.0
C923 C 0.5045 0.55997 0.47573 0.0
C924 C 0.48538 0.55418 0.46852 0.0
C925 C 0.4641 0.57191 0.4669 0.0
C926 C 0.46166 0.5956 0.47252 0.0
C927 C 0.47958 0.60001 0.48032 0.0
C928 C 0.50102 0.58244 0.48185 0.0
C929 C 0.61972 0.53995 0.4663 0.0
C930 C 0.5994 0.60688 0.46285 0.0
C931 C 0.66051 0.59716 0.49207 0.0
C932 C 0.67209 0.61505 0.49932 0.0
C933 C 0.69859 0.62374 0.49803 0.0
C934 C 0.71032 0.64077 0.50487 0.0
C935 C 0.69561 0.64925 0.51308 0.0
C936 C 0.66865 0.64129 0.51417 0.0
C937 C 0.65685 0.62435 0.50726 0.0
C938 C 0.58155 0.63807 0.48282 0.0
C939 C 0.57893 0.56308 0.50209 0.0
O940 O 0.54358 0.54444 0.48356 0.0
O941 O 0.54593 0.55545 0.46825 0.0
O942 O 0.62259 0.54688 0.47544 0.0
O943 O 0.59613 0.5481 0.46365 0.0
O944 O 0.62033 0.59786 0.46754 0.0
O945 O 0.57609 0.60277 0.46691 0.0
O946 O 0.64368 0.57887 0.49521 0.0
O947 O 0.65284 0.60889 0.48402 0.0
O948 O 0.57104 0.61432 0.48425 0.0
O949 O 0.60732 0.63557 0.48158 0.0
O950 O 0.5747 0.54797 0.49436 0.0
O951 O 0.59247 0.58492 0.49997 0.0
H952 H 0.48816 0.53723 0.46361 0.0
H953 H 0.45103 0.56812 0.4607 0.0
H954 H 0.47809 0.61794 0.48481 0.0
H955 H 0.51594 0.58754 0.48735 0.0
H956 H 0.71034 0.61694 0.49182 0.0
H957 H 0.7313 0.64621 0.50397 0.0
H958 H 0.65701 0.64764 0.52046 0.0
H959 H 0.63608 0.61817 0.50821 0.0
Pr960 Pr 0.33464 0.36712 0.23348 0.0
Pr961 Pr 0.31236 0.33776 0.22895 0.0
C962 C 0.33298 0.41374 0.24308 0.0
C963 C 0.34333 0.4217 0.25255 0.0
C964 C 0.36305 0.40582 0.25713 0.0
C965 C 0.37538 0.41486 0.26564 0.0
C966 C 0.36785 0.4397 0.26967 0.0
C967 C 0.34735 0.45503 0.26526 0.0
C968 C 0.33517 0.44605 0.2567 0.0
C969 C 0.38304 0.33688 0.2338 0.0
C970 C 0.30921 0.33539 0.25232 0.0
C971 C 0.29232 0.28966 0.22357 0.0
C972 C 0.30677 0.26458 0.22201 0.0
C973 C 0.29299 0.2407 0.21998 0.0
C974 C 0.3075 0.21724 0.21801 0.0
C975 C 0.33586 0.21767 0.21801 0.0
C976 C 0.34943 0.24154 0.22046 0.0
C977 C 0.33496 0.26476 0.22249 0.0
C978 C 0.28233 0.38038 0.21841 0.0
C979 C 0.35575 0.35397 0.21329 0.0
O980 O 0.31268 0.39681 0.24316 0.0
O981 O 0.35178 0.40773 0.23675 0.0
O982 O 0.35891 0.32624 0.23433 0.0
O983 O 0.3814 0.36297 0.23316 0.0
O984 O 0.29236 0.33407 0.245 0.0
O985 O 0.33228 0.34571 0.24958 0.0
O986 O 0.2924 0.29812 0.23258 0.0
O987 O 0.29797 0.30863 0.21734 0.0
O988 O 0.30775 0.37737 0.21925 0.0
O989 O 0.27185 0.36316 0.22445 0.0
O990 O 0.35242 0.37586 0.21837 0.0
O991 O 0.34429 0.33217 0.21657 0.0
H992 H 0.36952 0.3869 0.25393 0.0
H993 H 0.39105 0.40274 0.26898 0.0
H994 H 0.34151 0.47442 0.26823 0.0
H995 H 0.32004 0.45843 0.25316 0.0
H996 H 0.27118 0.24035 0.21971 0.0
H997 H 0.29661 0.19899 0.21621 0.0
H998 H 0.37123 0.24272 0.22032 0.0
H999 H 0.34584 0.28307 0.22414 0.0
Pr1000 Pr 0.44245 0.58426 0.98452 0.0
Pr1001 Pr 0.47569 0.56432 0.97905 0.0
C1002 C 0.39468 0.59314 0.99296 0.0
C1003 C 0.38328 0.61258 0.99986 0.0
C1004 C 0.37521 0.63828 0.99668 0.0
C1005 C 0.36226 0.65575 1.00309 0.0
C1006 C 0.35711 0.64772 1.01272 0.0
C1007 C 0.36637 0.62257 1.01601 0.0
C1008 C 0.37932 0.6051 1.00962 0.0
C1009 C 0.47245 0.63389 0.98333 0.0
C1010 C 0.47567 0.55805 1.00272 0.0
C1011 C 0.52517 0.54375 0.97618 0.0
C1012 C 0.55053 0.55824 0.97574 0.0
C1013 C 0.57484 0.54463 0.97432 0.0
C1014 C 0.59838 0.55929 0.9727 0.0
C1015 C 0.59759 0.58763 0.97237 0.0
C1016 C 0.57329 0.60105 0.97438 0.0
C1017 C 0.54998 0.58644 0.97608 0.0
C1018 C 0.43571 0.53503 0.9672 0.0
C1019 C 0.45437 0.60183 0.96345 0.0
O1020 O 0.41209 0.57581 0.99642 0.0
O1021 O 0.40113 0.60244 0.98437 0.0
O1022 O 0.48334 0.61035 0.98479 0.0
O1023 O 0.44672 0.63103 0.98212 0.0
O1024 O 0.48009 0.54317 0.99495 0.0
O1025 O 0.46215 0.57996 1.00067 0.0
O1026 O 0.51349 0.54398 0.98469 0.0
O1027 O 0.50864 0.54934 0.96907 0.0
O1028 O 0.43307 0.54187 0.97636 0.0
O1029 O 0.45908 0.5435 0.96445 0.0
O1030 O 0.4338 0.59272 0.96828 0.0
O1031 O 0.47794 0.59822 0.96743 0.0
H1032 H 0.37812 0.64466 0.98919 0.0
H1033 H 0.35535 0.67509 1.00042 0.0
H1034 H 0.36222 0.61569 1.02337 0.0
H1035 H 0.38536 0.5854 1.01222 0.0
H1036 H 0.57541 0.52282 0.9741 0.0
H1037 H 0.61691 0.54848 0.97126 0.0
H1038 H 0.57177 0.62279 0.97397 0.0
H1039 H 0.53121 0.59717 0.97716 0.0
Pr1040 Pr 0.21638 0.69151 0.73372 0.0
Pr1041 Pr 0.23646 0.72501 0.72852 0.0
C1042 C 0.20764 0.64282 0.74144 0.0
C1043 C 0.18887 0.63016 0.74825 0.0
C1044 C 0.16536 0.61778 0.74469 0.0
C1045 C 0.14885 0.60336 0.75097 0.0
C1046 C 0.15581 0.60081 0.76086 0.0
C1047 C 0.17853 0.6144 0.76452 0.0
C1048 C 0.19496 0.62898 0.75825 0.0
C1049 C 0.16684 0.72177 0.73298 0.0
C1050 C 0.24198 0.72454 0.75222 0.0
C1051 C 0.25793 0.77415 0.726 0.0
C1052 C 0.2442 0.79991 0.72689 0.0
C1053 C 0.25353 0.82226 0.72172 0.0
C1054 C 0.2366 0.84438 0.72035 0.0
C1055 C 0.2102 0.84395 0.72406 0.0
C1056 C 0.20175 0.82241 0.72988 0.0
C1057 C 0.21872 0.80051 0.73132 0.0
C1058 C 0.2655 0.68521 0.71645 0.0
C1059 C 0.19832 0.70627 0.71284 0.0
O1060 O 0.22532 0.65967 0.74505 0.0
O1061 O 0.19749 0.65057 0.73311 0.0
O1062 O 0.19049 0.73247 0.7345 0.0
O1063 O 0.16959 0.69614 0.73148 0.0
O1064 O 0.25669 0.72982 0.74452 0.0
O1065 O 0.2206 0.71022 0.75008 0.0
O1066 O 0.26055 0.76062 0.7341 0.0
O1067 O 0.24914 0.75941 0.7188 0.0
O1068 O 0.25872 0.68233 0.72558 0.0
O1069 O 0.25697 0.70868 0.71382 0.0
O1070 O 0.20755 0.68505 0.7173 0.0
O1071 O 0.20206 0.72925 0.7172 0.0
H1072 H 0.16016 0.61841 0.737 0.0
H1073 H 0.13132 0.59319 0.74802 0.0
H1074 H 0.18464 0.6124 0.77209 0.0
H1075 H 0.21296 0.63835 0.76118 0.0
H1076 H 0.27297 0.82178 0.71813 0.0
H1077 H 0.24324 0.86063 0.71567 0.0
H1078 H 0.18136 0.82165 0.73269 0.0
H1079 H 0.21113 0.78317 0.73524 0.0
Pr1080 Pr 0.11376 0.46988 0.48296 0.0
Pr1081 Pr 0.0874 0.49144 0.47877 0.0
C1082 C 0.15872 0.47639 0.49292 0.0
C1083 C 0.18341 0.47998 0.4984 0.0
C1084 C 0.20526 0.4627 0.49676 0.0
C1085 C 0.22966 0.46762 0.50138 0.0
C1086 C 0.23226 0.48976 0.5077 0.0
C1087 C 0.21007 0.50646 0.50958 0.0
C1088 C 0.18573 0.50161 0.50492 0.0
C1089 C 0.08595 0.42085 0.48334 0.0
C1090 C 0.08319 0.49478 0.50183 0.0
C1091 C 0.03961 0.51327 0.47392 0.0
C1092 C 1.01384 0.49996 0.47256 0.0
C1093 C 0.99019 0.51486 0.47135 0.0
C1094 C 0.96581 0.50151 0.46983 0.0
C1095 C 0.96505 0.47319 0.46946 0.0
C1096 C 0.98882 0.45846 0.47103 0.0
C1097 C 1.01297 0.47177 0.47261 0.0
C1098 C 0.12986 0.52059 0.46773 0.0
C1099 C 0.10155 0.44792 0.46294 0.0
O1100 O 0.14141 0.49618 0.49179 0.0
O1101 O 0.15258 0.45328 0.48886 0.0
O1102 O 0.07435 0.44462 0.48374 0.0
O1103 O 0.11203 0.42324 0.48273 0.0
O1104 O 0.08533 0.51229 0.4948 0.0
O1105 O 0.09017 0.47089 0.49867 0.0
O1106 O 0.04867 0.5126 0.48284 0.0
O1107 O 0.05791 0.50702 0.4675 0.0
O1108 O 0.12598 0.49523 0.4685 0.0
O1109 O 0.11376 0.53131 0.47414 0.0
O1110 O 0.12347 0.45065 0.46808 0.0
O1111 O 0.08019 0.46019 0.46624 0.0
H1112 H 0.20374 0.44595 0.4917 0.0
H1113 H 0.24667 0.45462 0.49982 0.0
H1114 H 0.2116 0.52332 0.51459 0.0
H1115 H 0.16888 0.51496 0.50632 0.0
H1116 H 0.99066 0.53668 0.47144 0.0
H1117 H 0.94771 0.5133 0.4687 0.0
H1118 H 0.98909 0.43667 0.47057 0.0
H1119 H 0.0311 0.46001 0.47366 0.0
Pr1120 Pr 0.33819 0.68826 0.37133 0.0
Pr1121 Pr 0.31782 0.72108 0.37652 0.0
C1122 C 0.34651 0.64001 0.36313 0.0
C1123 C 0.36514 0.62891 0.35604 0.0
C1124 C 0.3734 0.60219 0.35709 0.0
C1125 C 0.39143 0.59113 0.35045 0.0
C1126 C 0.40134 0.60676 0.3427 0.0
C1127 C 0.39373 0.63389 0.34188 0.0
C1128 C 0.37579 0.64501 0.34858 0.0
C1129 C 0.38775 0.71844 0.37228 0.0
C1130 C 0.31211 0.72065 0.35291 0.0
C1131 C 0.29661 0.77039 0.37917 0.0
C1132 C 0.31105 0.79571 0.38007 0.0
C1133 C 0.2973 0.81999 0.38138 0.0
C1134 C 0.31178 0.84348 0.38333 0.0
C1135 C 0.34007 0.84267 0.3841 0.0
C1136 C 0.35369 0.81837 0.38227 0.0
C1137 C 0.33926 0.79513 0.38023 0.0
C1138 C 0.28908 0.68126 0.3886 0.0
C1139 C 0.35622 0.70203 0.39222 0.0
O1140 O 0.32856 0.65705 0.35983 0.0
O1141 O 0.35755 0.64734 0.37136 0.0
O1142 O 0.36404 0.72925 0.37098 0.0
O1143 O 0.38509 0.69269 0.37346 0.0
O1144 O 0.29652 0.72405 0.36054 0.0
O1145 O 0.33457 0.7083 0.35519 0.0
O1146 O 0.29823 0.75895 0.37062 0.0
O1147 O 0.30101 0.75367 0.38631 0.0
O1148 O 0.29589 0.67842 0.37945 0.0
O1149 O 0.29753 0.70476 0.39127 0.0
O1150 O 0.34728 0.68084 0.38766 0.0
O1151 O 0.35202 0.72508 0.38799 0.0
H1152 H 0.36558 0.58979 0.36295 0.0
H1153 H 0.39662 0.57002 0.35113 0.0
H1154 H 0.40115 0.64623 0.33594 0.0
H1155 H 0.36998 0.66595 0.34786 0.0
H1156 H 0.27548 0.82061 0.38122 0.0
H1157 H 0.30084 0.86202 0.38464 0.0
H1158 H 0.37537 0.81685 0.38301 0.0
H1159 H 0.3501 0.77639 0.37924 0.0
Pr1160 Pr 0.11328 0.58699 0.12155 0.0
Pr1161 Pr 0.08399 0.56477 0.12618 0.0
C1162 C 0.15992 0.58551 0.112 0.0
C1163 C 0.16829 0.59589 0.10259 0.0
C1164 C 0.15387 0.6171 0.09828 0.0
C1165 C 0.1638 0.62956 0.08995 0.0
C1166 C 0.18804 0.62066 0.0858 0.0
C1167 C 0.20152 0.59834 0.08984 0.0
C1168 C 0.19177 0.58614 0.09826 0.0
C1169 C 0.08309 0.63534 0.12127 0.0
C1170 C 0.08082 0.56171 0.10279 0.0
C1171 C 0.03595 0.54483 0.13143 0.0
C1172 C 1.0103 0.55913 0.1317 0.0
C1173 C 0.99257 0.55476 0.13945 0.0
C1174 C 0.97141 0.57266 0.14106 0.0
C1175 C 0.96776 0.59509 0.1349 0.0
C1176 C 0.98456 0.59831 0.12675 0.0
C1177 C 1.00581 0.58058 0.12521 0.0
C1178 C 0.12678 0.53516 0.13684 0.0
C1179 C 0.09957 0.6082 0.14177 0.0
O1180 O 0.14297 0.56522 0.1118 0.0
O1181 O 0.15384 0.60423 0.11836 0.0
O1182 O 0.07238 0.61122 0.12068 0.0
O1183 O 0.10918 0.63366 0.12195 0.0
O1184 O 0.07949 0.54501 0.11011 0.0
O1185 O 0.09157 0.58467 0.10547 0.0
O1186 O 0.04613 0.54129 0.12275 0.0
O1187 O 0.05361 0.55335 0.13776 0.0
O1188 O 0.12401 0.56053 0.13579 0.0
O1189 O 0.10913 0.52441 0.13101 0.0
O1190 O 0.12156 0.60447 0.13679 0.0
O1191 O 0.07771 0.59703 0.13838 0.0
H1192 H 0.13554 0.62471 0.10159 0.0
H1193 H 0.15311 0.64679 0.08702 0.0
H1194 H 0.21992 0.59068 0.08662 0.0
H1195 H 0.20289 0.56965 0.10153 0.0
H1196 H 0.99614 0.53862 0.14462 0.0
H1197 H 0.95918 0.56994 0.14753 0.0
H1198 H 0.98215 0.61531 0.12187 0.0
H1199 H 1.01964 0.58458 0.11926 0.0
Pr1200 Pr 0.22264 0.36424 0.87259 0.0
Pr1201 Pr 0.24447 0.33441 0.87766 0.0
C1202 C 0.2245 0.41032 0.8627 0.0
C1203 C 0.2147 0.418 0.85314 0.0
C1204 C 0.19516 0.4021 0.84847 0.0
C1205 C 0.18316 0.41104 0.8399 0.0
C1206 C 0.1908 0.43583 0.83588 0.0
C1207 C 0.21139 0.451 0.84034 0.0
C1208 C 0.22317 0.44216 0.84898 0.0
C1209 C 0.17431 0.33377 0.87255 0.0
C1210 C 0.24786 0.33075 0.85412 0.0
C1211 C 0.26289 0.2863 0.88358 0.0
C1212 C 0.24787 0.26114 0.88408 0.0
C1213 C 0.25118 0.24428 0.89215 0.0
C1214 C 0.23264 0.22381 0.89388 0.0
C1215 C 0.21062 0.21994 0.8875 0.0
C1216 C 0.20839 0.23586 0.87909 0.0
C1217 C 0.22676 0.25646 0.87742 0.0
C1218 C 0.27517 0.37731 0.88778 0.0
C1219 C 0.20146 0.3543 0.89304 0.0
O1220 O 0.24484 0.39341 0.86283 0.0
O1221 O 0.20536 0.40453 0.86891 0.0
O1222 O 0.19843 0.32314 0.87193 0.0
O1223 O 0.17592 0.35986 0.87313 0.0
O1224 O 0.26403 0.32837 0.86161 0.0
O1225 O 0.22533 0.34272 0.85655 0.0
O1226 O 0.26705 0.29562 0.87482 0.0
O1227 O 0.25467 0.30475 0.88966 0.0
O1228 O 0.24972 0.37507 0.88676 0.0
O1229 O 0.28546 0.35903 0.8821 0.0
O1230 O 0.20511 0.37516 0.88749 0.0
O1231 O 0.21237 0.33167 0.89018 0.0
H1232 H 0.18843 0.38333 0.85168 0.0
H1233 H 0.16722 0.3991 0.83664 0.0
H1234 H 0.218 0.46993 0.83724 0.0
H1235 H 0.23832 0.45447 0.85255 0.0
H1236 H 0.26702 0.24805 0.89744 0.0
H1237 H 0.2346 0.21229 0.90056 0.0
H1238 H 0.19175 0.23324 0.87403 0.0
H1239 H 0.22354 0.26965 0.87122 0.0
Pr1240 Pr 0.43987 0.47419 0.62193 0.0
Pr1241 Pr 0.4666 0.49489 0.62656 0.0
C1242 C 0.39792 0.48617 0.61072 0.0
C1243 C 0.39632 0.48773 0.60014 0.0
C1244 C 0.4104 0.46909 0.59433 0.0
C1245 C 0.41326 0.47356 0.58437 0.0
C1246 C 0.40225 0.49677 0.58014 0.0
C1247 C 0.38801 0.51526 0.58595 0.0
C1248 C 0.38506 0.51073 0.59591 0.0
C1249 C 0.46779 0.42478 0.62142 0.0
C1250 C 0.47191 0.49869 0.60348 0.0
C1251 C 0.51508 0.51397 0.63205 0.0
C1252 C 0.5397 0.49879 0.63375 0.0
C1253 C 0.56465 0.51171 0.63433 0.0
C1254 C 0.58794 0.49653 0.63589 0.0
C1255 C 0.58632 0.46837 0.63688 0.0
C1256 C 0.56124 0.45558 0.636 0.0
C1257 C 0.53817 0.47068 0.6344 0.0
C1258 C 0.42463 0.5243 0.63758 0.0
C1259 C 0.44711 0.44917 0.64135 0.0
O1260 O 0.4135 0.50475 0.61455 0.0
O1261 O 0.40128 0.46207 0.61445 0.0
O1262 O 0.47946 0.4485 0.62146 0.0
O1263 O 0.44158 0.42728 0.62151 0.0
O1264 O 0.4691 0.51614 0.61056 0.0
O1265 O 0.465 0.47476 0.60655 0.0
O1266 O 0.50689 0.51375 0.62302 0.0
O1267 O 0.49572 0.50923 0.63821 0.0
O1268 O 0.42801 0.49891 0.63665 0.0
O1269 O 0.44111 0.53516 0.63134 0.0
O1270 O 0.42641 0.4517 0.63558 0.0
O1271 O 0.46887 0.46258 0.63906 0.0
H1272 H 0.41991 0.45153 0.59753 0.0
H1273 H 0.42415 0.45901 0.57997 0.0
H1274 H 0.37872 0.53296 0.58278 0.0
H1275 H 0.37468 0.52554 0.60036 0.0
H1276 H 0.56606 0.5334 0.63366 0.0
H1277 H 0.60711 0.50681 0.63651 0.0
H1278 H 0.55919 0.43402 0.63695 0.0
H1279 H 0.51905 0.46037 0.63383 0.0
H1280 H 0.17104 0.36744 0.37859 0.0
H1281 H 0.13887 0.39603 0.38731 0.0
H1282 H 0.19829 0.41072 0.40976 0.0
H1283 H 0.23004 0.3819 0.40134 0.0
H1284 H 0.12583 0.37655 0.40576 0.0
H1285 H 0.15909 0.48253 0.40864 0.0
H1286 H 0.16952 0.46067 0.39873 0.0
H1287 H 0.18658 0.45958 0.41037 0.0
C1288 C 0.17751 0.3776 0.38521 0.0
C1289 C 0.20294 0.37225 0.38935 0.0
C1290 C 0.15921 0.39404 0.39011 0.0
C1291 C 0.1664 0.40567 0.39907 0.0
C1292 C 0.19265 0.40254 0.4027 0.0
H1293 H 0.13993 0.41548 0.4554 0.0
H1294 H 0.14707 0.40638 0.43804 0.0
C1295 C 0.21084 0.38597 0.39786 0.0
C1296 C 0.14556 0.41532 0.4058 0.0
H1297 H 0.13676 0.46361 0.42315 0.0
C1298 C 0.12721 0.39609 0.40929 0.0
C1299 C 0.14774 0.44064 0.41042 0.0
C1300 C 0.16667 0.4621 0.40677 0.0
C1301 C 0.11328 0.40045 0.41801 0.0
C1302 C 0.11762 0.42467 0.4231 0.0
C1303 C 0.13359 0.44507 0.41909 0.0
C1304 C 0.11068 0.4268 0.43339 0.0
C1305 C 0.0963 0.37824 0.4223 0.0
C1306 C 0.08738 0.44033 0.43632 0.0
C1307 C 0.08306 0.44517 0.44621 0.0
C1308 C 0.10236 0.43692 0.45311 0.0
C1309 C 0.12485 0.42197 0.45017 0.0
C1310 C 0.12898 0.41689 0.44031 0.0
H1311 H 0.09137 0.36249 0.4168 0.0
H1312 H 0.10749 0.36865 0.42842 0.0
H1313 H 0.07731 0.3866 0.42534 0.0
H1314 H 0.07325 0.44803 0.43097 0.0
H1315 H 0.06567 0.45695 0.44837 0.0
H1316 H 0.9233 0.96386 0.64417 0.0
H1317 H 0.90134 0.93024 0.65435 0.0
H1318 H 0.96069 0.87118 0.64581 0.0
H1319 H 0.98388 0.9051 0.63613 0.0
H1320 H 0.88067 0.87869 0.65343 0.0
H1321 H 0.97657 0.8848 0.67472 0.0
H1322 H 0.96935 0.90696 0.66465 0.0
H1323 H 0.97944 0.87273 0.66237 0.0
C1324 C 0.93137 0.94359 0.64431 0.0
C1325 C 0.95563 0.93732 0.63957 0.0
C1326 C 0.91866 0.92433 0.65003 0.0
C1327 C 0.92986 0.89854 0.65094 0.0
C1328 C 0.95211 0.8912 0.64526 0.0
H1329 H 0.85726 0.81223 0.70054 0.0
H1330 H 0.87785 0.81596 0.68429 0.0
C1331 C 0.96515 0.91059 0.63967 0.0
C1332 C 0.92109 0.8816 0.65909 0.0
H1333 H 0.94027 0.86366 0.6821 0.0
C1334 C 0.89378 0.87457 0.65961 0.0
C1335 C 0.93838 0.87701 0.66717 0.0
C1336 C 0.96751 0.88591 0.66729 0.0
C1337 C 0.88283 0.86474 0.6683 0.0
C1338 C 0.89998 0.86112 0.67642 0.0
C1339 C 0.92757 0.86615 0.67569 0.0
C1340 C 0.88902 0.85773 0.6862 0.0
C1341 C 0.85277 0.8607 0.66907 0.0
C1342 C 0.88929 0.87993 0.69252 0.0
C1343 C 0.87781 0.8779 0.70169 0.0
C1344 C 0.86593 0.85363 0.7046 0.0
C1345 C 0.86638 0.83112 0.69838 0.0
C1346 C 0.87793 0.8332 0.68915 0.0
H1347 H 0.84213 0.86554 0.66213 0.0
H1348 H 0.84842 0.83946 0.67102 0.0
H1349 H 0.84449 0.87367 0.67497 0.0
H1350 H 0.89787 0.89899 0.69025 0.0
H1351 H 0.87774 0.8955 0.70639 0.0
H1352 H 0.33137 0.70263 0.90572 0.0
H1353 H 0.36565 0.67879 0.91504 0.0
H1354 H 0.41181 0.66577 0.88876 0.0
H1355 H 0.37703 0.68922 0.8792 0.0
H1356 H 0.40078 0.61885 0.90445 0.0
H1357 H 0.44562 0.71477 0.91776 0.0
H1358 H 0.40942 0.7139 0.91742 0.0
H1359 H 0.42806 0.71206 0.90618 0.0
C1360 C 0.34831 0.69396 0.90184 0.0
C1361 C 0.35149 0.69757 0.89172 0.0
C1362 C 0.36801 0.68073 0.90719 0.0
C1363 C 0.39115 0.67111 0.90252 0.0
C1364 C 0.39399 0.67342 0.8924 0.0
H1365 H 0.49311 0.62174 0.95133 0.0
H1366 H 0.48676 0.63509 0.93417 0.0
C1367 C 0.37419 0.68668 0.887 0.0
C1368 C 0.41233 0.65916 0.90849 0.0
H1369 H 0.45134 0.67593 0.928 0.0
C1370 C 0.41284 0.63111 0.90936 0.0
C1371 C 0.4279 0.67546 0.9148 0.0
C1372 C 0.42796 0.70576 0.91397 0.0
C1373 C 0.42625 0.61901 0.91718 0.0
C1374 C 0.4392 0.63562 0.92414 0.0
C1375 C 0.44142 0.66337 0.92258 0.0
C1376 C 0.44413 0.62601 0.93405 0.0
C1377 C 0.42419 0.58891 0.91846 0.0
C1378 C 0.42197 0.61773 0.93959 0.0
C1379 C 0.42538 0.61057 0.94926 0.0
C1380 C 0.45103 0.61172 0.95354 0.0
C1381 C 0.47319 0.62062 0.94809 0.0
C1382 C 0.46969 0.62794 0.93834 0.0
H1383 H 0.42323 0.57856 0.91126 0.0
H1384 H 0.4415 0.58081 0.9227 0.0
H1385 H 0.40534 0.5841 0.92245 0.0
H1386 H 0.40189 0.61718 0.93645 0.0
H1387 H 0.40792 0.60387 0.95334 0.0
H1388 H 0.69707 0.15557 0.20349 0.0
H1389 H 0.68603 0.14994 0.18634 0.0
H1390 H 0.67312 0.23559 0.18355 0.0
H1391 H 0.68422 0.24155 0.20095 0.0
H1392 H 0.6318 0.20188 0.17622 0.0
H1393 H 0.73126 0.16957 0.16238 0.0
H1394 H 0.72248 0.15205 0.17336 0.0
H1395 H 0.72731 0.188 0.17372 0.0
C1396 C 0.69186 0.17326 0.19926 0.0
C1397 C 0.69164 0.19904 0.20345 0.0
C1398 C 0.68599 0.17005 0.18944 0.0
C1399 C 0.67992 0.19254 0.1837 0.0
C1400 C 0.67858 0.21823 0.18791 0.0
H1401 H 0.61451 0.13313 0.12795 0.0
H1402 H 0.63918 0.16656 0.13772 0.0
C1403 C 0.68461 0.22152 0.19779 0.0
C1404 C 0.67226 0.18807 0.17353 0.0
H1405 H 0.69167 0.1493 0.15427 0.0
C1406 C 0.64507 0.19156 0.17114 0.0
C1407 C 0.68979 0.1745 0.16706 0.0
C1408 C 0.71941 0.17106 0.16925 0.0
C1409 C 0.63416 0.17875 0.16296 0.0
C1410 C 0.65115 0.16271 0.15708 0.0
C1411 C 0.6789 0.16182 0.15884 0.0
C1412 C 0.63961 0.1421 0.15076 0.0
C1413 C 0.60411 0.17976 0.1613 0.0
C1414 C 0.63261 0.1174 0.15494 0.0
C1415 C 0.61844 0.09854 0.1495 0.0
C1416 C 0.61126 0.10412 0.13977 0.0
C1417 C 0.61972 0.1284 0.13545 0.0
C1418 C 0.63378 0.14742 0.14096 0.0
H1419 H 0.5944 0.19611 0.1656 0.0
H1420 H 0.5996 0.18277 0.15343 0.0
H1421 H 0.59508 0.16027 0.16354 0.0
H1422 H 0.63699 0.11329 0.16257 0.0
H1423 H 0.61168 0.08038 0.15312 0.0
H1424 H 0.21654 0.66569 0.21014 0.0
H1425 H 0.18009 0.64578 0.20064 0.0
H1426 H 0.12435 0.70406 0.21246 0.0
H1427 H 0.161 0.72534 0.22144 0.0
H1428 H 0.12873 0.62573 0.20218 0.0
H1429 H 0.13166 0.72624 0.18396 0.0
H1430 H 0.15576 0.71662 0.19315 0.0
H1431 H 0.12214 0.72616 0.19662 0.0
C1432 C 0.19642 0.67391 0.21088 0.0
C1433 C 0.19181 0.69748 0.2163 0.0
C1434 C 0.17555 0.66233 0.20555 0.0
C1435 C 0.14981 0.67398 0.20571 0.0
C1436 C 0.14429 0.69519 0.21215 0.0
H1437 H 0.0591 0.61157 0.15509 0.0
H1438 H 0.06287 0.62929 0.17181 0.0
C1439 C 0.16527 0.70714 0.21735 0.0
C1440 C 0.13101 0.66729 0.19779 0.0
H1441 H 0.10975 0.69168 0.17582 0.0
C1442 C 0.1237 0.64023 0.19654 0.0
C1443 C 0.12515 0.68639 0.19039 0.0
C1444 C 0.1342 0.71543 0.19101 0.0
C1445 C 0.11269 0.63129 0.18769 0.0
C1446 C 0.10809 0.65022 0.1802 0.0
C1447 C 0.11304 0.67757 0.18176 0.0
C1448 C 0.10439 0.64152 0.17012 0.0
C1449 C 0.10868 0.6015 0.18602 0.0
C1450 C 0.12639 0.64342 0.16377 0.0
C1451 C 0.12433 0.63359 0.15433 0.0
C1452 C 0.10024 0.6217 0.15118 0.0
C1453 C 0.07784 0.62075 0.15742 0.0
C1454 C 0.07995 0.63065 0.16691 0.0
H1455 H 0.11388 0.58937 0.19258 0.0
H1456 H 0.08737 0.5975 0.18403 0.0
H1457 H 0.12142 0.59463 0.17982 0.0
H1458 H 0.1454 0.65182 0.16622 0.0
H1459 H 0.14184 0.63456 0.14962 0.0
H1460 H 0.70253 0.90202 0.40117 0.0
H1461 H 0.68892 0.90976 0.41795 0.0
H1462 H 0.67308 0.82486 0.42156 0.0
H1463 H 0.68667 0.81678 0.40453 0.0
H1464 H 0.63169 0.8601 0.42742 0.0
H1465 H 0.72954 0.89148 0.44311 0.0
H1466 H 0.72254 0.90849 0.43184 0.0
H1467 H 0.72696 0.87246 0.43185 0.0
C1468 C 0.69616 0.88494 0.40551 0.0
C1469 C 0.69577 0.85875 0.40166 0.0
C1470 C 0.68881 0.88935 0.41511 0.0
C1471 C 0.68112 0.86766 0.42099 0.0
C1472 C 0.67975 0.84159 0.4171 0.0
H1473 H 0.61148 0.9256 0.47618 0.0
H1474 H 0.63706 0.89349 0.46616 0.0
C1475 C 0.68722 0.83709 0.40743 0.0
C1476 C 0.67192 0.87333 0.43088 0.0
H1477 H 0.68922 0.91195 0.45046 0.0
C1478 C 0.64437 0.87036 0.43272 0.0
C1479 C 0.68872 0.88685 0.43764 0.0
C1480 C 0.71865 0.88976 0.43603 0.0
C1481 C 0.63257 0.88328 0.44069 0.0
C1482 C 0.64899 0.89898 0.44691 0.0
C1483 C 0.67691 0.89968 0.44563 0.0
C1484 C 0.63689 0.91889 0.45335 0.0
C1485 C 0.60236 0.88246 0.44185 0.0
C1486 C 0.62931 0.94371 0.44939 0.0
C1487 C 0.61467 0.96184 0.45498 0.0
C1488 C 0.60761 0.95536 0.46463 0.0
C1489 C 0.61663 0.93098 0.46874 0.0
C1490 C 0.63119 0.91273 0.46309 0.0
H1491 H 0.59305 0.86631 0.43733 0.0
H1492 H 0.59693 0.87926 0.44963 0.0
H1493 H 0.5937 0.90208 0.43954 0.0
H1494 H 0.63363 0.94846 0.44181 0.0
H1495 H 0.60749 0.98012 0.45153 0.0
H1496 H 0.47143 0.46455 0.65798 0.0
H1497 H 0.45866 0.45089 0.67442 0.0
H1498 H 0.40377 0.39202 0.66229 0.0
H1499 H 0.41526 0.40702 0.64579 0.0
H1500 H 0.37986 0.42237 0.67517 0.0
H1501 H 0.47707 0.38687 0.69046 0.0
H1502 H 0.4788 0.42086 0.68609 0.0
H1503 H 0.47242 0.39376 0.67763 0.0
C1504 C 0.45726 0.44814 0.65886 0.0
C1505 C 0.44434 0.43654 0.65078 0.0
C1506 C 0.45001 0.44039 0.66822 0.0
C1507 C 0.43059 0.42028 0.66951 0.0
C1508 C 0.41884 0.4076 0.66138 0.0
H1509 H 0.38569 0.32346 0.71559 0.0
H1510 H 0.4108 0.34919 0.70362 0.0
C1511 C 0.42549 0.41593 0.65202 0.0
C1512 C 0.4209 0.41389 0.67931 0.0
H1513 H 0.44095 0.39196 0.7017 0.0
C1514 C 0.39314 0.41564 0.681 0.0
C1515 C 0.43848 0.40529 0.6868 0.0
C1516 C 0.4683 0.40132 0.68513 0.0
C1517 C 0.38214 0.40752 0.68988 0.0
C1518 C 0.39975 0.39927 0.69747 0.0
C1519 C 0.42767 0.39886 0.69591 0.0
C1520 C 0.38936 0.38651 0.70635 0.0
C1521 C 0.3518 0.40601 0.69072 0.0
C1522 C 0.37018 0.39947 0.71223 0.0
C1523 C 0.35533 0.38458 0.71895 0.0
C1524 C 0.36032 0.35695 0.72003 0.0
C1525 C 0.38171 0.34486 0.71496 0.0
C1526 C 0.39604 0.35953 0.70811 0.0
H1527 H 0.34169 0.4074 0.68348 0.0
H1528 H 0.34551 0.38684 0.69421 0.0
H1529 H 0.34446 0.42298 0.69529 0.0
H1530 H 0.36534 0.42051 0.71111 0.0
H1531 H 0.33888 0.39415 0.72283 0.0
H1532 H 0.93839 0.13608 0.97791 0.0
H1533 H 0.90978 0.16613 0.96823 0.0
H1534 H 0.89742 0.10268 0.94709 0.0
H1535 H 0.9263 0.07301 0.95644 0.0
H1536 H 0.92799 0.17693 0.94924 0.0
H1537 H 0.82351 0.13841 0.94818 0.0
H1538 H 0.8466 0.13056 0.95803 0.0
H1539 H 0.8478 0.11198 0.94671 0.0
C1540 C 0.92888 0.12832 0.97135 0.0
C1541 C 0.93465 0.1022 0.96792 0.0
C1542 C 0.91244 0.14543 0.96589 0.0
C1543 C 0.90123 0.13638 0.95708 0.0
C1544 C 0.90524 0.10971 0.95405 0.0
H1545 H 0.87081 0.15343 0.9006 0.0
H1546 H 0.87853 0.14529 0.9179 0.0
C1547 C 0.9218 0.09273 0.95943 0.0
C1548 C 0.89021 0.1556 0.95001 0.0
H1549 H 0.83974 0.16033 0.93328 0.0
C1550 C 0.90824 0.17427 0.94596 0.0
C1551 C 0.86461 0.15168 0.94576 0.0
C1552 C 0.84445 0.1322 0.94997 0.0
C1553 C 0.90242 0.18692 0.93709 0.0
C1554 C 0.87776 0.18115 0.93244 0.0
C1555 C 0.85861 0.16468 0.93698 0.0
C1556 C 0.87394 0.18713 0.92209 0.0
C1557 C 0.92371 0.20396 0.93222 0.0
C1558 C 0.86975 0.21351 0.91882 0.0
C1559 C 0.86562 0.21829 0.9089 0.0
C1560 C 0.86547 0.19663 0.90229 0.0
C1561 C 0.87078 0.17044 0.90558 0.0
C1562 C 0.87493 0.16572 0.91544 0.0
H1563 H 0.94255 0.20512 0.93659 0.0
H1564 H 0.92861 0.19556 0.9249 0.0
H1565 H 0.91588 0.22468 0.93112 0.0
H1566 H 0.86907 0.23015 0.92395 0.0
H1567 H 0.86134 0.23861 0.90647 0.0
H1568 H 0.89493 0.73213 0.72011 0.0
H1569 H 0.93046 0.70978 0.7109 0.0
H1570 H 0.87306 0.65128 0.70033 0.0
H1571 H 0.83775 0.67232 0.71005 0.0
H1572 H 0.92428 0.6305 0.70199 0.0
H1573 H 0.92165 0.72849 0.68206 0.0
H1574 H 0.93178 0.73007 0.69466 0.0
H1575 H 0.89793 0.72038 0.69154 0.0
C1576 C 0.89009 0.71372 0.71623 0.0
C1577 C 0.86341 0.70421 0.71563 0.0
C1578 C 0.91041 0.70117 0.7109 0.0
C1579 C 0.90408 0.67945 0.70479 0.0
C1580 C 0.8782 0.66818 0.705 0.0
H1581 H 0.91222 0.633 0.64916 0.0
H1582 H 0.90816 0.65202 0.66548 0.0
C1583 C 0.858 0.68039 0.71046 0.0
C1584 C 0.92233 0.67147 0.6969 0.0
H1585 H 0.94362 0.69282 0.67456 0.0
C1586 C 0.92935 0.6442 0.6961 0.0
C1587 C 0.92821 0.68954 0.68918 0.0
C1588 C 0.91937 0.71869 0.68931 0.0
C1589 C 0.94027 0.63404 0.68744 0.0
C1590 C 0.94506 0.65197 0.67965 0.0
C1591 C 0.94022 0.67952 0.68073 0.0
C1592 C 0.949 0.64197 0.66976 0.0
C1593 C 0.94408 0.60403 0.68627 0.0
C1594 C 0.9735 0.63061 0.66686 0.0
C1595 C 0.9759 0.61969 0.65753 0.0
C1596 C 0.95373 0.62013 0.65115 0.0
C1597 C 0.92956 0.6324 0.65399 0.0
C1598 C 0.92721 0.64324 0.66327 0.0
H1599 H 0.93858 0.59278 0.69299 0.0
H1600 H 0.93148 0.59652 0.68012 0.0
H1601 H 0.96542 0.59961 0.68447 0.0
H1602 H 0.99042 0.62974 0.67187 0.0
H1603 H 0.9947 0.61022 0.65543 0.0
H1604 H 0.13005 0.07699 0.45263 0.0
H1605 H 0.1585 0.10935 0.44438 0.0
H1606 H 0.14529 0.16683 0.4676 0.0
H1607 H 0.11694 0.1341 0.47609 0.0
H1608 H 0.12507 0.18181 0.4495 0.0
H1609 H 0.23064 0.14776 0.44556 0.0
H1610 H 0.20724 0.12088 0.44345 0.0
H1611 H 0.20911 0.13628 0.45537 0.0
C1612 C 0.13435 0.0959 0.45628 0.0
C1613 C 0.12114 0.10311 0.46496 0.0
C1614 C 0.15071 0.11441 0.45155 0.0
C1615 C 0.15418 0.14031 0.45546 0.0
C1616 C 0.14303 0.14677 0.46457 0.0
H1617 H 0.20799 0.2464 0.40811 0.0
H1618 H 0.19936 0.23621 0.42536 0.0
C1619 C 0.12674 0.12816 0.46935 0.0
C1620 C 0.16366 0.16171 0.44895 0.0
H1621 H 0.21154 0.17281 0.43168 0.0
C1622 C 0.14448 0.18075 0.44589 0.0
C1623 C 0.1888 0.15994 0.4442 0.0
C1624 C 0.21019 0.14023 0.44739 0.0
C1625 C 0.14875 0.19608 0.43749 0.0
C1626 C 0.17282 0.19243 0.43227 0.0
C1627 C 0.19314 0.1755 0.43585 0.0
C1628 C 0.17481 0.20135 0.42217 0.0
C1629 C 0.12658 0.21404 0.43367 0.0
C1630 C 0.16295 0.18544 0.41488 0.0
C1631 C 0.16779 0.19109 0.40512 0.0
C1632 C 0.18451 0.2127 0.40262 0.0
C1633 C 0.19475 0.22982 0.40992 0.0
C1634 C 0.19012 0.22394 0.41972 0.0
H1635 H 0.11135 0.21859 0.43938 0.0
H1636 H 0.13508 0.23322 0.43087 0.0
H1637 H 0.11629 0.2038 0.42747 0.0
H1638 H 0.15114 0.16784 0.41676 0.0
H1639 H 0.15984 0.17762 0.39957 0.0
H1640 H 0.56703 0.42203 0.15348 0.0
H1641 H 0.57132 0.40846 0.17069 0.0
H1642 H 0.65301 0.43821 0.17117 0.0
H1643 H 0.64906 0.45158 0.15414 0.0
H1644 H 0.61521 0.37254 0.17731 0.0
H1645 H 0.61569 0.47225 0.19571 0.0
H1646 H 0.60068 0.46676 0.1838 0.0
H1647 H 0.63658 0.47006 0.18503 0.0
C1648 C 0.58582 0.42561 0.15731 0.0
C1649 C 0.60772 0.43772 0.15259 0.0
C1650 C 0.58812 0.41814 0.16708 0.0
C1651 C 0.61214 0.42321 0.17213 0.0
C1652 C 0.63409 0.43494 0.16737 0.0
H1653 H 0.71899 0.39173 0.21488 0.0
H1654 H 0.6859 0.41338 0.20436 0.0
C1655 C 0.63193 0.44213 0.15764 0.0
C1656 C 0.61583 0.41375 0.18211 0.0
H1657 H 0.63685 0.43564 0.20441 0.0
C1658 C 0.6191 0.38607 0.1834 0.0
C1659 C 0.62125 0.43188 0.1898 0.0
C1660 C 0.61818 0.46192 0.18855 0.0
C1661 C 0.63026 0.37597 0.19202 0.0
C1662 C 0.63681 0.3942 0.19966 0.0
C1663 C 0.63142 0.42178 0.19859 0.0
C1664 C 0.65368 0.38568 0.20793 0.0
C1665 C 0.63737 0.34636 0.19239 0.0
C1666 C 0.6459 0.36415 0.21387 0.0
C1667 C 0.66508 0.35106 0.21958 0.0
C1668 C 0.69203 0.35997 0.21963 0.0
C1669 C 0.69862 0.38393 0.21475 0.0
C1670 C 0.67964 0.39652 0.20883 0.0
H1671 H 0.63566 0.33649 0.18511 0.0
H1672 H 0.65829 0.34347 0.19509 0.0
H1673 H 0.62345 0.33589 0.19745 0.0
H1674 H 0.62568 0.35604 0.21343 0.0
H1675 H 0.65919 0.33265 0.22323 0.0
H1676 H 0.37471 0.81215 0.9025 0.0
H1677 H 0.39054 0.81491 0.9195 0.0
H1678 H 0.36469 0.89787 0.9209 0.0
H1679 H 0.34902 0.8954 0.90408 0.0
H1680 H 0.42936 0.85541 0.92564 0.0
H1681 H 0.33328 0.86287 0.946 0.0
H1682 H 0.3357 0.84779 0.93396 0.0
H1683 H 0.3345 0.88382 0.93533 0.0
C1684 C 0.37237 0.83086 0.9065 0.0
C1685 C 0.36074 0.85355 0.90209 0.0
C1686 C 0.38113 0.8323 0.91616 0.0
C1687 C 0.37783 0.85626 0.92142 0.0
C1688 C 0.36651 0.87898 0.91697 0.0
H1689 H 0.42162 0.96718 0.95971 0.0
H1690 H 0.39713 0.93263 0.95071 0.0
C1691 C 0.35801 0.87765 0.90734 0.0
C1692 C 0.38909 0.85923 0.9312 0.0
H1693 H 0.37221 0.88435 0.95349 0.0
C1694 C 0.41712 0.86076 0.93192 0.0
C1695 C 0.37265 0.86641 0.93918 0.0
C1696 C 0.34233 0.86493 0.93861 0.0
C1697 C 0.42925 0.87242 0.94011 0.0
C1698 C 0.41267 0.88136 0.9479 0.0
C1699 C 0.38476 0.87719 0.94754 0.0
C1700 C 0.4232 0.89996 0.95531 0.0
C1701 C 0.45922 0.87776 0.9398 0.0
C1702 C 0.44494 0.89264 0.96127 0.0
C1703 C 0.45952 0.9125 0.96615 0.0
C1704 C 0.45198 0.93975 0.96529 0.0
C1705 C 0.42822 0.94644 0.96028 0.0
C1706 C 0.41404 0.92668 0.95525 0.0
H1707 H 0.46807 0.87331 0.93251 0.0
H1708 H 0.46355 0.89914 0.94161 0.0
H1709 H 0.46956 0.86488 0.94526 0.0
H1710 H 0.45188 0.87196 0.96151 0.0
H1711 H 0.47781 0.90665 0.96992 0.0
H1712 H 0.88466 0.36662 0.87698 0.0
H1713 H 0.91404 0.39593 0.88673 0.0
H1714 H 0.85161 0.40381 0.90845 0.0
H1715 H 0.82259 0.37428 0.89902 0.0
H1716 H 0.88439 0.45227 0.90463 0.0
H1717 H 0.94094 0.35728 0.91248 0.0
H1718 H 0.93662 0.36748 0.89994 0.0
H1719 H 0.90799 0.35675 0.90691 0.0
C1720 C 0.87699 0.37524 0.8837 0.0
C1721 C 0.85141 0.36804 0.88727 0.0
C1722 C 0.89372 0.39197 0.88921 0.0
C1723 C 0.88487 0.40171 0.89826 0.0
C1724 C 0.85855 0.39657 0.9014 0.0
H1725 H 0.89807 0.44364 0.95415 0.0
H1726 H 0.89013 0.43631 0.93683 0.0
C1727 C 0.84193 0.37979 0.89596 0.0
C1728 C 0.90373 0.41346 0.90529 0.0
H1729 H 0.94671 0.39314 0.92323 0.0
C1730 C 0.89884 0.43979 0.90851 0.0
C1731 C 0.92224 0.3968 0.91032 0.0
C1732 C 0.92733 0.36795 0.90731 0.0
C1733 C 0.91033 0.4492 0.91719 0.0
C1734 C 0.92695 0.43166 0.92264 0.0
C1735 C 0.93402 0.4064 0.91892 0.0
C1736 C 0.93246 0.43663 0.93297 0.0
C1737 C 0.90289 0.47694 0.92084 0.0
C1738 C 0.95894 0.43748 0.9365 0.0
C1739 C 0.96359 0.44128 0.94646 0.0
C1740 C 0.94172 0.44404 0.95286 0.0
C1741 C 0.91528 0.44178 0.94933 0.0
C1742 C 0.91069 0.43805 0.93944 0.0
H1743 H 0.89873 0.49078 0.91464 0.0
H1744 H 0.88424 0.47559 0.92528 0.0
H1745 H 0.91909 0.48568 0.92547 0.0
H1746 H 0.97586 0.43563 0.93156 0.0
H1747 H 0.98414 0.44294 0.94907 0.0
H1748 H 0.41999 0.07524 0.6502 0.0
H1749 H 0.38902 0.10526 0.65843 0.0
H1750 H 0.40707 0.16809 0.63769 0.0
H1751 H 0.43817 0.13773 0.62923 0.0
H1752 H 0.42234 0.17934 0.65642 0.0
H1753 H 0.31731 0.14304 0.65672 0.0
H1754 H 0.34031 0.11577 0.6587 0.0
H1755 H 0.3409 0.13361 0.64723 0.0
C1756 C 0.4163 0.09488 0.64703 0.0
C1757 C 0.43161 0.10422 0.63912 0.0
C1758 C 0.39845 0.11206 0.65173 0.0
C1759 C 0.39552 0.13875 0.64856 0.0
C1760 C 0.40887 0.1474 0.64013 0.0
H1761 H 0.35879 0.23901 0.69991 0.0
H1762 H 0.36469 0.23176 0.68228 0.0
C1763 C 0.42672 0.13014 0.63538 0.0
C1764 C 0.38432 0.15845 0.65545 0.0
H1765 H 0.3339 0.16325 0.67214 0.0
C1766 C 0.40251 0.17687 0.65962 0.0
C1767 C 0.35859 0.15485 0.65961 0.0
C1768 C 0.33812 0.13587 0.65524 0.0
C1769 C 0.39691 0.18919 0.66857 0.0
C1770 C 0.37224 0.18342 0.67317 0.0
C1771 C 0.3528 0.16753 0.66847 0.0
C1772 C 0.36886 0.18855 0.68359 0.0
C1773 C 0.41849 0.20565 0.67359 0.0
C1774 C 0.37004 0.1666 0.68998 0.0
C1775 C 0.36693 0.17062 0.69993 0.0
C1776 C 0.36251 0.19665 0.70357 0.0
C1777 C 0.3624 0.21879 0.69721 0.0
C1778 C 0.36546 0.21471 0.6872 0.0
H1779 H 0.43727 0.20691 0.66921 0.0
H1780 H 0.41095 0.22639 0.67492 0.0
H1781 H 0.42346 0.1967 0.68081 0.0
H1782 H 0.37308 0.14631 0.68724 0.0
H1783 H 0.36709 0.15324 0.70472 0.0
H1784 H 0.71594 0.66396 0.3916 0.0
H1785 H 0.68194 0.64222 0.40157 0.0
H1786 H 0.62432 0.70365 0.39365 0.0
H1787 H 0.65889 0.72682 0.38434 0.0
H1788 H 0.63131 0.7022 0.41239 0.0
H1789 H 0.6165 0.5973 0.40022 0.0
H1790 H 0.65174 0.60408 0.40138 0.0
H1791 H 0.63202 0.62221 0.39244 0.0
C1792 C 0.69587 0.6725 0.39179 0.0
C1793 C 0.69027 0.69728 0.38731 0.0
C1794 C 0.67624 0.65975 0.39735 0.0
C1795 C 0.65047 0.67113 0.39823 0.0
C1796 C 0.64404 0.69445 0.39296 0.0
H1797 H 0.55968 0.62759 0.45132 0.0
H1798 H 0.5647 0.64343 0.4344 0.0
C1799 C 0.66384 0.70756 0.38758 0.0
C1800 C 0.63278 0.66214 0.40619 0.0
H1801 H 0.61268 0.60536 0.41801 0.0
C1802 C 0.62616 0.68117 0.41343 0.0
C1803 C 0.62641 0.63468 0.40759 0.0
C1804 C 0.63187 0.61353 0.39991 0.0
C1805 C 0.61557 0.67308 0.42239 0.0
C1806 C 0.61135 0.64545 0.42402 0.0
C1807 C 0.61589 0.62662 0.41658 0.0
C1808 C 0.60751 0.6355 0.43391 0.0
C1809 C 0.61136 0.69363 0.43041 0.0
C1810 C 0.63012 0.62639 0.43904 0.0
C1811 C 0.62745 0.61774 0.4486 0.0
C1812 C 0.60207 0.61796 0.45308 0.0
C1813 C 0.57942 0.62731 0.44795 0.0
C1814 C 0.58217 0.63614 0.43835 0.0
H1815 H 0.61486 0.71456 0.42785 0.0
H1816 H 0.5905 0.69213 0.43327 0.0
H1817 H 0.62533 0.68941 0.43658 0.0
H1818 H 0.64985 0.62613 0.43564 0.0
H1819 H 0.64521 0.61052 0.4524 0.0
H1820 H 0.19422 0.806 0.19973 0.0
H1821 H 0.17382 0.8098 0.18344 0.0
H1822 H 0.1505 0.89173 0.18989 0.0
H1823 H 0.17041 0.88809 0.2061 0.0
H1824 H 0.11039 0.85722 0.18061 0.0
H1825 H 0.21096 0.86072 0.16249 0.0
H1826 H 0.20355 0.83346 0.17075 0.0
H1827 H 0.20698 0.86706 0.1754 0.0
C1828 C 0.18427 0.8246 0.1977 0.0
C1829 C 0.18395 0.84685 0.20404 0.0
C1830 C 0.17284 0.82672 0.18844 0.0
C1831 C 0.16107 0.85104 0.18558 0.0
C1832 C 0.1596 0.87281 0.19208 0.0
H1833 H 0.13395 0.96226 0.14535 0.0
H1834 H 0.15421 0.92617 0.15489 0.0
C1835 C 0.17095 0.87072 0.20129 0.0
C1836 C 0.15133 0.85495 0.17564 0.0
H1837 H 0.1736 0.87463 0.15327 0.0
C1838 C 0.12388 0.86022 0.17447 0.0
C1839 C 0.1695 0.85919 0.16788 0.0
C1840 C 0.19944 0.85496 0.16912 0.0
C1841 C 0.11424 0.87216 0.16594 0.0
C1842 C 0.13258 0.87751 0.15825 0.0
C1843 C 0.15969 0.86997 0.15914 0.0
C1844 C 0.1252 0.896 0.15035 0.0
C1845 C 0.08525 0.88153 0.16571 0.0
C1846 C 0.10332 0.89038 0.14422 0.0
C1847 C 0.09122 0.91117 0.139 0.0
C1848 C 0.10136 0.9376 0.13972 0.0
C1849 C 0.12542 0.94223 0.14486 0.0
C1850 C 0.13716 0.92157 0.15021 0.0
H1851 H 0.07522 0.87943 0.17293 0.0
H1852 H 0.08403 0.903 0.16349 0.0
H1853 H 0.07378 0.86935 0.16032 0.0
H1854 H 0.0942 0.87056 0.14416 0.0
H1855 H 0.07263 0.90692 0.13513 0.0
H1856 H 0.57215 0.94568 0.94791 0.0
H1857 H 0.58348 0.93816 0.93069 0.0
H1858 H 0.66336 0.91265 0.93909 0.0
H1859 H 0.65236 0.91999 0.95624 0.0
H1860 H 0.65609 0.95946 0.92443 0.0
H1861 H 0.60267 0.86278 0.91666 0.0
H1862 H 0.58572 0.88938 0.92324 0.0
H1863 H 0.61305 0.87171 0.92891 0.0
C1864 C 0.59184 0.93772 0.94608 0.0
C1865 C 0.6115 0.93356 0.95331 0.0
C1866 C 0.59829 0.93374 0.93629 0.0
C1867 C 0.62426 0.92538 0.93378 0.0
C1868 C 0.64329 0.91944 0.94102 0.0
H1869 H 0.73874 0.87409 0.89882 0.0
H1870 H 0.71088 0.9034 0.90865 0.0
C1871 C 0.63689 0.92336 0.95077 0.0
C1872 C 0.63228 0.92324 0.92358 0.0
H1873 H 0.63414 0.87776 0.90508 0.0
C1874 C 0.65076 0.94209 0.92 0.0
C1875 C 0.62502 0.90059 0.91798 0.0
C1876 C 0.60556 0.87981 0.92183 0.0
C1877 C 0.66394 0.93765 0.91114 0.0
C1878 C 0.6584 0.91379 0.90589 0.0
C1879 C 0.63807 0.89623 0.90909 0.0
C1880 C 0.6772 0.90338 0.89855 0.0
C1881 C 0.68501 0.95751 0.90784 0.0
C1882 C 0.6677 0.89419 0.88949 0.0
C1883 C 0.68375 0.87734 0.88378 0.0
C1884 C 0.70926 0.86925 0.88717 0.0
C1885 C 0.71948 0.88039 0.89587 0.0
C1886 C 0.70352 0.89725 0.90152 0.0
H1887 H 0.67969 0.97829 0.91016 0.0
H1888 H 0.70459 0.95235 0.9113 0.0
H1889 H 0.68755 0.95711 0.89977 0.0
H1890 H 0.64724 0.89849 0.88718 0.0
H1891 H 0.67546 0.86912 0.87707 0.0
H1892 H 0.35683 0.31451 0.19951 0.0
H1893 H 0.37582 0.31808 0.18302 0.0
H1894 H 0.40337 0.39857 0.18961 0.0
H1895 H 0.38479 0.39516 0.20602 0.0
H1896 H 0.36043 0.36045 0.1694 0.0
H1897 H 0.46964 0.35951 0.17796 0.0
H1898 H 0.44452 0.34625 0.18621 0.0
H1899 H 0.45064 0.38191 0.18563 0.0
C1900 C 0.36743 0.33271 0.19747 0.0
C1901 C 0.36952 0.35456 0.20395 0.0
C1902 C 0.37809 0.33471 0.1881 0.0
C1903 C 0.39115 0.35839 0.18528 0.0
C1904 C 0.39372 0.37997 0.19182 0.0
H1905 H 0.4162 0.46186 0.14103 0.0
H1906 H 0.39481 0.42857 0.15143 0.0
C1907 C 0.38305 0.37803 0.20113 0.0
C1908 C 0.40072 0.36173 0.17529 0.0
H1909 H 0.45639 0.3816 0.16298 0.0
C1910 C 0.38152 0.36423 0.16783 0.0
C1911 C 0.42817 0.36644 0.1734 0.0
C1912 C 0.44947 0.36315 0.18122 0.0
C1913 C 0.38893 0.37361 0.15859 0.0
C1914 C 0.41608 0.38074 0.15694 0.0
C1915 C 0.43555 0.37601 0.16422 0.0
C1916 C 0.42426 0.39727 0.14856 0.0
C1917 C 0.36741 0.37705 0.1509 0.0
C1918 C 0.44756 0.39054 0.14333 0.0
C1919 C 0.46041 0.40992 0.13768 0.0
C1920 C 0.44988 0.43621 0.1371 0.0
C1921 C 0.42493 0.4419 0.14146 0.0
C1922 C 0.41241 0.42268 0.14727 0.0
H1923 H 0.35155 0.36143 0.15167 0.0
H1924 H 0.35758 0.39696 0.15188 0.0
H1925 H 0.3759 0.37595 0.1434 0.0
H1926 H 0.45709 0.37107 0.14432 0.0
H1927 H 0.47978 0.4049 0.13453 0.0
H1928 H 0.91757 0.13534 0.45555 0.0
H1929 H 0.91241 0.15496 0.43941 0.0
H1930 H 0.99383 0.13184 0.43212 0.0
H1931 H 0.99912 0.11153 0.44838 0.0
H1932 H 0.94483 0.1953 0.43025 0.0
H1933 H 0.94265 0.09598 0.41112 0.0
H1934 H 0.93755 0.09904 0.42413 0.0
H1935 H 0.9706 0.10339 0.41912 0.0
C1936 C 0.9345 0.13467 0.45057 0.0
C1937 C 0.95868 0.12185 0.4531 0.0
C1938 C 0.93154 0.14588 0.44138 0.0
C1939 C 0.95273 0.14451 0.43467 0.0
C1940 C 0.97732 0.13273 0.43728 0.0
H1941 H 0.89834 0.23584 0.38457 0.0
H1942 H 0.93338 0.21437 0.39428 0.0
C1943 C 0.98032 0.12138 0.44652 0.0
C1944 C 0.94803 0.15479 0.42484 0.0
H1945 H 0.92885 0.13382 0.40217 0.0
C1946 C 0.94205 0.18218 0.42397 0.0
C1947 C 0.94401 0.1371 0.41688 0.0
C1948 C 0.94887 0.10718 0.41779 0.0
C1949 C 0.92989 0.19219 0.41553 0.0
C1950 C 0.92514 0.1744 0.4076 0.0
C1951 C 0.93306 0.14735 0.40823 0.0
C1952 C 0.90758 0.18239 0.39946 0.0
C1953 C 0.91988 0.22097 0.41562 0.0
C1954 C 0.88238 0.16993 0.39851 0.0
C1955 C 0.86253 0.18158 0.39272 0.0
C1956 C 0.86752 0.20609 0.38796 0.0
C1957 C 0.89376 0.2169 0.38811 0.0
C1958 C 0.91379 0.20487 0.39375 0.0
H1959 H 0.92079 0.23012 0.42304 0.0
H1960 H 0.93255 0.23333 0.41069 0.0
H1961 H 0.89872 0.22206 0.413 0.0
H1962 H 0.87734 0.15239 0.40285 0.0
H1963 H 0.84272 0.17246 0.39254 0.0
H1964 H 0.13619 0.58882 0.64481 0.0
H1965 H 0.15908 0.62422 0.65392 0.0
H1966 H 0.10339 0.68309 0.64247 0.0
H1967 H 0.07901 0.64752 0.63394 0.0
H1968 H 0.18278 0.6731 0.65137 0.0
H1969 H 0.08494 0.68168 0.67127 0.0
H1970 H 0.09095 0.65589 0.66227 0.0
H1971 H 0.08422 0.68992 0.65849 0.0
C1972 C 0.12905 0.60935 0.64411 0.0
C1973 C 0.10541 0.61524 0.6389 0.0
C1974 C 0.14233 0.6296 0.64922 0.0
C1975 C 0.13241 0.65604 0.64901 0.0
C1976 C 0.1109 0.66262 0.64283 0.0
H1977 H 0.17341 0.74552 0.7023 0.0
H1978 H 0.15945 0.74244 0.68507 0.0
C1979 C 0.09721 0.64226 0.63788 0.0
C1980 C 0.14179 0.67504 0.6565 0.0
H1981 H 0.12249 0.70094 0.67849 0.0
C1982 C 0.16953 0.68001 0.65716 0.0
C1983 C 0.12431 0.68364 0.66408 0.0
C1984 C 0.0945 0.67741 0.66408 0.0
C1985 C 0.18061 0.6913 0.66562 0.0
C1986 C 0.16331 0.69818 0.67339 0.0
C1987 C 0.13541 0.69583 0.67236 0.0
C1988 C 0.17363 0.70151 0.6833 0.0
C1989 C 0.21082 0.69362 0.66652 0.0
C1990 C 0.18518 0.67912 0.68788 0.0
C1991 C 0.19259 0.68061 0.69762 0.0
C1992 C 0.18854 0.70455 0.70286 0.0
C1993 C 0.17673 0.72693 0.69831 0.0
C1994 C 0.16905 0.72532 0.68853 0.0
H1995 H 0.22042 0.69595 0.65924 0.0
H1996 H 0.2166 0.71091 0.67124 0.0
H1997 H 0.2189 0.67493 0.66989 0.0
H1998 H 0.18796 0.66031 0.68397 0.0
H1999 H 0.20175 0.6631 0.70099 0.0
H2000 H 0.55751 0.11338 0.65734 0.0
H2001 H 0.56339 0.1321 0.6738 0.0
H2002 H 0.64267 0.16024 0.66588 0.0
H2003 H 0.63687 0.1421 0.64948 0.0
H2004 H 0.60624 0.11566 0.68636 0.0
H2005 H 0.60783 0.22539 0.67918 0.0
H2006 H 0.59338 0.20142 0.6707 0.0
H2007 H 0.62922 0.20681 0.67103 0.0
C2008 C 0.57585 0.12421 0.65908 0.0
C2009 C 0.59676 0.12645 0.65224 0.0
C2010 C 0.57918 0.1347 0.66843 0.0
C2011 C 0.60324 0.14773 0.6709 0.0
C2012 C 0.62374 0.15071 0.66397 0.0
H2013 H 0.71249 0.1655 0.71433 0.0
H2014 H 0.67772 0.14616 0.70394 0.0
C2015 C 0.62046 0.14027 0.65465 0.0
C2016 C 0.60831 0.15634 0.68093 0.0
H2017 H 0.63187 0.21014 0.69359 0.0
C2018 C 0.61102 0.13644 0.68811 0.0
C2019 C 0.61433 0.18341 0.68307 0.0
C2020 C 0.61079 0.20551 0.6756 0.0
C2021 C 0.62179 0.14272 0.69729 0.0
C2022 C 0.63015 0.16942 0.69915 0.0
C2023 C 0.62535 0.18964 0.69218 0.0
C2024 C 0.64767 0.17636 0.70745 0.0
C2025 C 0.62528 0.12048 0.70468 0.0
C2026 C 0.64211 0.19939 0.71302 0.0
C2027 C 0.66231 0.21107 0.71867 0.0
C2028 C 0.68827 0.19963 0.71891 0.0
C2029 C 0.6928 0.17492 0.71418 0.0
C2030 C 0.67276 0.16357 0.70837 0.0
H2031 H 0.60907 0.10519 0.7039 0.0
H2032 H 0.64475 0.11012 0.70335 0.0
H2033 H 0.62518 0.12838 0.71228 0.0
H2034 H 0.62291 0.20963 0.71232 0.0
H2035 H 0.65816 0.23031 0.7221 0.0
H2036 H 0.18111 0.40007 0.90064 0.0
H2037 H 0.17252 0.40914 0.91782 0.0
H2038 H 0.18993 0.32627 0.9249 0.0
H2039 H 0.199 0.31686 0.90757 0.0
H2040 H 0.1399 0.35284 0.93289 0.0
H2041 H 0.23416 0.41019 0.93925 0.0
H2042 H 0.21686 0.41907 0.92817 0.0
H2043 H 0.23057 0.38573 0.9295 0.0
C2044 C 0.18278 0.38364 0.90581 0.0
C2045 C 0.19093 0.35782 0.90286 0.0
C2046 C 0.1782 0.38894 0.9156 0.0
C2047 C 0.18157 0.36849 0.92251 0.0
C2048 C 0.18793 0.34226 0.91957 0.0
H2049 H 0.11261 0.42153 0.978 0.0
H2050 H 0.14155 0.39121 0.96849 0.0
C2051 C 0.19275 0.33692 0.90973 0.0
C2052 C 0.17706 0.37497 0.93276 0.0
H2053 H 0.19626 0.42141 0.94967 0.0
C2054 C 0.15258 0.36697 0.93684 0.0
C2055 C 0.19385 0.39354 0.93766 0.0
C2056 C 0.22046 0.40248 0.93345 0.0
C2057 C 0.14283 0.37953 0.94526 0.0
C2058 C 0.15867 0.39975 0.94977 0.0
C2059 C 0.18444 0.40564 0.94622 0.0
C2060 C 0.14636 0.41907 0.9565 0.0
C2061 C 0.1145 0.37332 0.94858 0.0
C2062 C 0.14074 0.44496 0.953 0.0
C2063 C 0.12431 0.46213 0.95832 0.0
C2064 C 0.11333 0.45366 0.96726 0.0
C2065 C 0.12071 0.42844 0.9711 0.0
C2066 C 0.13717 0.41116 0.96572 0.0
H2067 H 0.10421 0.35865 0.9437 0.0
H2068 H 0.11506 0.36479 0.95607 0.0
H2069 H 0.10229 0.39207 0.94882 0.0
H2070 H 0.14754 0.45118 0.94582 0.0
H2071 H 0.11856 0.48116 0.95506 0.0
H2072 H 0.91301 0.91905 0.14946 0.0
H2073 H 0.90873 0.90069 0.16583 0.0
H2074 H 0.99035 0.92469 0.17248 0.0
H2075 H 0.99475 0.9437 0.156 0.0
H2076 H 0.94204 0.86139 0.17544 0.0
H2077 H 0.93956 0.96269 0.19315 0.0
H2078 H 0.9337 0.95815 0.18023 0.0
H2079 H 0.9671 0.95472 0.18507 0.0
C2080 C 0.9302 0.92011 0.15434 0.0
C2081 C 0.95415 0.93288 0.15158 0.0
C2082 C 0.92772 0.90964 0.16366 0.0
C2083 C 0.94919 0.91171 0.17027 0.0
C2084 C 0.97361 0.92328 0.16741 0.0
H2085 H 0.89952 0.82463 0.22176 0.0
H2086 H 0.93352 0.84625 0.21171 0.0
C2087 C 0.97612 0.93386 0.15803 0.0
C2088 C 0.94496 0.90249 0.18025 0.0
H2089 H 0.92675 0.9257 0.20271 0.0
C2090 C 0.93941 0.87516 0.18155 0.0
C2091 C 0.94111 0.92099 0.18797 0.0
C2092 C 0.94551 0.95083 0.1866 0.0
C2093 C 0.92795 0.86592 0.19021 0.0
C2094 C 0.92341 0.8845 0.19792 0.0
C2095 C 0.93081 0.91158 0.19683 0.0
C2096 C 0.90663 0.8771 0.20631 0.0
C2097 C 0.91846 0.83701 0.19061 0.0
C2098 C 0.88118 0.88906 0.20727 0.0
C2099 C 0.86189 0.87736 0.21326 0.0
C2100 C 0.86772 0.85328 0.2182 0.0
C2101 C 0.89427 0.84321 0.21809 0.0
C2102 C 0.91372 0.85533 0.21225 0.0
H2103 H 0.91901 0.82707 0.18331 0.0
H2104 H 0.9317 0.82539 0.1956 0.0
H2105 H 0.89751 0.83587 0.19341 0.0
H2106 H 0.87547 0.90609 0.20276 0.0
H2107 H 0.84183 0.88594 0.21341 0.0
H2108 H 0.47237 0.64957 0.47211 0.0
H2109 H 0.44857 0.68328 0.46258 0.0
H2110 H 0.3887 0.6241 0.45463 0.0
H2111 H 0.41098 0.59093 0.46485 0.0
H2112 H 0.4485 0.67517 0.44397 0.0
H2113 H 0.34244 0.68861 0.45482 0.0
H2114 H 0.36703 0.67395 0.46301 0.0
H2115 H 0.34993 0.65343 0.45402 0.0
C2116 C 0.45325 0.64409 0.46884 0.0
C2117 C 0.44367 0.61741 0.46914 0.0
C2118 C 0.43978 0.66342 0.46333 0.0
C2119 C 0.41682 0.65628 0.45794 0.0
C2120 C 0.40596 0.63034 0.45892 0.0
H2121 H 0.35974 0.65692 0.40307 0.0
H2122 H 0.3741 0.6536 0.42005 0.0
C2123 C 0.41904 0.61119 0.46462 0.0
C2124 C 0.40802 0.67326 0.44974 0.0
H2125 H 0.35172 0.69129 0.43708 0.0
C2126 C 0.42745 0.67978 0.44265 0.0
C2127 C 0.38053 0.67892 0.44796 0.0
C2128 C 0.35891 0.67354 0.45544 0.0
C2129 C 0.41982 0.68956 0.4335 0.0
C2130 C 0.39223 0.69306 0.43152 0.0
C2131 C 0.37293 0.68862 0.43878 0.0
C2132 C 0.38297 0.6961 0.42149 0.0
C2133 C 0.44089 0.69366 0.42569 0.0
C2134 C 0.38378 0.72111 0.41682 0.0
C2135 C 0.37569 0.7231 0.4071 0.0
C2136 C 0.36689 0.70003 0.40208 0.0
C2137 C 0.36654 0.67498 0.40679 0.0
C2138 C 0.37447 0.67306 0.41647 0.0
H2139 H 0.46167 0.69047 0.42849 0.0
H2140 H 0.43726 0.67943 0.41954 0.0
H2141 H 0.43935 0.71438 0.42271 0.0
H2142 H 0.39062 0.7389 0.42069 0.0
H2143 H 0.37604 0.7426 0.40356 0.0
H2144 H 0.38375 0.19755 0.22483 0.0
H2145 H 0.41412 0.16736 0.21589 0.0
H2146 H 0.35358 0.15668 0.19354 0.0
H2147 H 0.32355 0.18712 0.20218 0.0
H2148 H 0.38599 0.10842 0.19914 0.0
H2149 H 0.44305 0.20165 0.18947 0.0
H2150 H 0.43738 0.19404 0.20218 0.0
H2151 H 0.40954 0.20328 0.1945 0.0
C2152 C 0.37674 0.18823 0.21812 0.0
C2153 C 0.35138 0.19476 0.21416 0.0
C2154 C 0.39401 0.17099 0.21309 0.0
C2155 C 0.38591 0.16009 0.20412 0.0
C2156 C 0.35989 0.16484 0.20054 0.0
H2157 H 0.40169 0.10822 0.14982 0.0
H2158 H 0.39334 0.11804 0.16692 0.0
C2159 C 0.34273 0.18212 0.20551 0.0
C2160 C 0.40526 0.14704 0.19764 0.0
H2161 H 0.44946 0.1638 0.17969 0.0
C2162 C 0.4007 0.1201 0.1951 0.0
C2163 C 0.42412 0.16267 0.1924 0.0
C2164 C 0.4289 0.19205 0.1947 0.0
C2165 C 0.41285 0.10899 0.18683 0.0
C2166 C 0.42978 0.12543 0.1811 0.0
C2167 C 0.43655 0.15139 0.18422 0.0
C2168 C 0.4356 0.1186 0.17096 0.0
C2169 C 0.40569 0.08059 0.18385 0.0
C2170 C 0.46216 0.11738 0.16756 0.0
C2171 C 0.46705 0.11216 0.15771 0.0
C2172 C 0.44533 0.10836 0.15129 0.0
C2173 C 0.4188 0.11083 0.15467 0.0
C2174 C 0.41398 0.11599 0.16444 0.0
H2175 H 0.40143 0.06796 0.19037 0.0
H2176 H 0.38715 0.08099 0.1793 0.0
H2177 H 0.42208 0.07106 0.17954 0.0
H2178 H 0.47896 0.12018 0.17253 0.0
H2179 H 0.48766 0.11039 0.1552 0.0
H2180 H 0.62909 0.57353 0.95702 0.0
H2181 H 0.6579 0.60304 0.94765 0.0
H2182 H 0.64484 0.66707 0.96849 0.0
H2183 H 0.6162 0.63719 0.97817 0.0
H2184 H 0.62688 0.67747 0.94956 0.0
H2185 H 0.73138 0.63899 0.94859 0.0
H2186 H 0.70728 0.61244 0.94708 0.0
H2187 H 0.70835 0.63104 0.95841 0.0
C2188 C 0.63343 0.59335 0.95994 0.0
C2189 C 0.62036 0.60304 0.96834 0.0
C2190 C 0.64997 0.61025 0.95455 0.0
C2191 C 0.65377 0.63703 0.95749 0.0
C2192 C 0.64236 0.64628 0.96623 0.0
H2193 H 0.69344 0.73865 0.90678 0.0
H2194 H 0.68577 0.73023 0.92425 0.0
C2195 C 0.62591 0.62928 0.97169 0.0
C2196 C 0.66467 0.6561 0.95036 0.0
H2197 H 0.71486 0.66045 0.93358 0.0
C2198 C 0.64658 0.67472 0.94628 0.0
C2199 C 0.69021 0.65207 0.9461 0.0
C2200 C 0.71048 0.63268 0.95035 0.0
C2201 C 0.65225 0.68722 0.93738 0.0
C2202 C 0.67683 0.68132 0.93272 0.0
C2203 C 0.69605 0.66488 0.93729 0.0
C2204 C 0.68054 0.68728 0.92238 0.0
C2205 C 0.63091 0.70425 0.93249 0.0
C2206 C 0.6793 0.66589 0.91572 0.0
C2207 C 0.68341 0.67057 0.90587 0.0
C2208 C 0.68893 0.69672 0.90259 0.0
C2209 C 0.68901 0.71837 0.9092 0.0
C2210 C 0.68491 0.71361 0.91912 0.0
H2211 H 0.61216 0.70558 0.93689 0.0
H2212 H 0.63876 0.72491 0.93133 0.0
H2213 H 0.62584 0.69572 0.9252 0.0
H2214 H 0.67557 0.64548 0.91818 0.0
H2215 H 0.68321 0.65357 0.90088 0.0
H2216 H 0.21178 0.89887 0.72391 0.0
H2217 H 0.18355 0.92839 0.71382 0.0
H2218 H 0.13811 0.85909 0.70408 0.0
H2219 H 0.16484 0.83029 0.71455 0.0
H2220 H 0.18591 0.92612 0.69567 0.0
H2221 H 0.07913 0.91081 0.70398 0.0
H2222 H 0.10503 0.90006 0.71241 0.0
H2223 H 0.09356 0.87803 0.7027 0.0
C2224 C 0.19487 0.89038 0.71995 0.0
C2225 C 0.19016 0.86256 0.72004 0.0
C2226 C 0.17882 0.90712 0.7142 0.0
C2227 C 0.15837 0.89606 0.70832 0.0
C2228 C 0.15289 0.86838 0.70884 0.0
H2229 H 0.14073 0.91189 0.64874 0.0
H2230 H 0.15197 0.90399 0.66588 0.0
C2231 C 0.1684 0.85183 0.71477 0.0
C2232 C 0.14674 0.91172 0.7002 0.0
H2233 H 0.09011 0.91462 0.68619 0.0
C2234 C 0.16473 0.92448 0.69379 0.0
C2235 C 0.1191 0.91009 0.69775 0.0
C2236 C 0.09819 0.89922 0.70468 0.0
C2237 C 0.15628 0.93316 0.68458 0.0
C2238 C 0.12948 0.92792 0.68167 0.0
C2239 C 0.11088 0.9178 0.6884 0.0
C2240 C 0.12098 0.93069 0.67147 0.0
C2241 C 0.1764 0.94683 0.67797 0.0
C2242 C 0.09849 0.94642 0.66909 0.0
C2243 C 0.09146 0.95012 0.65935 0.0
C2244 C 0.10714 0.93836 0.65197 0.0
C2245 C 0.12851 0.92117 0.65438 0.0
C2246 C 0.1352 0.91708 0.66411 0.0
H2247 H 0.19166 0.95809 0.6823 0.0
H2248 H 0.18728 0.93135 0.67363 0.0
H2249 H 0.1664 0.96102 0.67284 0.0
H2250 H 0.0871 0.95667 0.67474 0.0
H2251 H 0.07503 0.96367 0.65759 0.0
H2252 H 0.93158 0.48824 0.45478 0.0
H2253 H 0.8994 0.45985 0.44634 0.0
H2254 H 0.9126 0.3966 0.46741 0.0
H2255 H 0.94472 0.42536 0.47613 0.0
H2256 H 0.92743 0.38434 0.44836 0.0
H2257 H 0.82465 0.42727 0.44872 0.0
H2258 H 0.84966 0.45265 0.44667 0.0
H2259 H 0.84926 0.43475 0.45813 0.0
C2260 C 0.92664 0.4689 0.45795 0.0
C2261 C 0.94073 0.45896 0.46609 0.0
C2262 C 0.90814 0.45267 0.45312 0.0
C2263 C 0.9034 0.42635 0.45637 0.0
C2264 C 0.91581 0.41706 0.46492 0.0
H2265 H 0.85664 0.32351 0.40676 0.0
H2266 H 0.86546 0.33272 0.42411 0.0
C2267 C 0.93425 0.43339 0.46982 0.0
C2268 C 0.89071 0.40734 0.44959 0.0
H2269 H 0.83832 0.40434 0.4336 0.0
C2270 C 0.90747 0.38777 0.44535 0.0
C2271 C 0.86486 0.41227 0.44569 0.0
C2272 C 0.84601 0.43276 0.45012 0.0
C2273 C 0.90025 0.3752 0.43659 0.0
C2274 C 0.87536 0.38192 0.43228 0.0
C2275 C 0.85739 0.3993 0.43705 0.0
C2276 C 0.87012 0.37566 0.42203 0.0
C2277 C 0.92038 0.35721 0.43148 0.0
C2278 C 0.87046 0.39682 0.41529 0.0
C2279 C 0.8656 0.39169 0.4055 0.0
C2280 C 0.86032 0.36532 0.40237 0.0
C2281 C 0.86093 0.34396 0.40906 0.0
C2282 C 0.86569 0.34916 0.41892 0.0
H2283 H 0.9399 0.35609 0.43544 0.0
H2284 H 0.91204 0.33655 0.43084 0.0
H2285 H 0.92423 0.36468 0.42395 0.0
H2286 H 0.87426 0.41735 0.41763 0.0
H2287 H 0.86522 0.40847 0.40044 0.0
H2288 H 0.40104 0.94229 0.45505 0.0
H2289 H 0.39368 0.93151 0.43791 0.0
H2290 H 0.47896 0.93881 0.43236 0.0
H2291 H 0.48665 0.94954 0.44969 0.0
H2292 H 0.40911 0.96628 0.42172 0.0
H2293 H 0.45475 0.86341 0.42152 0.0
H2294 H 0.44505 0.87997 0.43273 0.0
H2295 H 0.47428 0.89116 0.42624 0.0
C2296 C 0.4183 0.94129 0.45022 0.0
C2297 C 0.4444 0.94674 0.4536 0.0
C2298 C 0.41403 0.93537 0.44045 0.0
C2299 C 0.4358 0.93476 0.43397 0.0
C2300 C 0.46205 0.93932 0.43735 0.0
H2301 H 0.39008 0.86106 0.37885 0.0
H2302 H 0.41884 0.89093 0.38858 0.0
C2303 C 0.46638 0.94522 0.44719 0.0
C2304 C 0.43032 0.92878 0.42372 0.0
H2305 H 0.42781 0.87548 0.40815 0.0
C2306 C 0.4139 0.9468 0.41855 0.0
C2307 C 0.43663 0.90332 0.41976 0.0
C2308 C 0.45355 0.88318 0.42532 0.0
C2309 C 0.40156 0.93901 0.40981 0.0
C2310 C 0.40613 0.91276 0.40624 0.0
C2311 C 0.42467 0.89574 0.41092 0.0
C2312 C 0.38784 0.90039 0.39912 0.0
C2313 C 0.38211 0.95807 0.40492 0.0
C2314 C 0.36093 0.89639 0.40182 0.0
C2315 C 0.34467 0.87914 0.39643 0.0
C2316 C 0.35513 0.86559 0.38825 0.0
C2317 C 0.38158 0.87114 0.38516 0.0
C2318 C 0.39795 0.88828 0.39064 0.0
H2319 H 0.38769 0.97938 0.40636 0.0
H2320 H 0.38133 0.95464 0.3969 0.0
H2321 H 0.36163 0.95479 0.40794 0.0
H2322 H 0.3531 0.90493 0.40854 0.0
H2323 H 0.32466 0.87482 0.39915 0.0
H2324 H 0.86306 0.65628 0.20193 0.0
H2325 H 0.8778 0.65433 0.18498 0.0
H2326 H 0.89346 0.73982 0.18534 0.0
H2327 H 0.8786 0.7421 0.20244 0.0
H2328 H 0.85517 0.69157 0.16837 0.0
H2329 H 0.9651 0.69479 0.17712 0.0
H2330 H 0.94105 0.68327 0.18605 0.0
H2331 H 0.94206 0.71818 0.1828 0.0
C2332 C 0.86982 0.67465 0.19844 0.0
C2333 C 0.86981 0.69935 0.20341 0.0
C2334 C 0.87793 0.67353 0.18877 0.0
C2335 C 0.88623 0.69702 0.18403 0.0
C2336 C 0.88677 0.72167 0.18899 0.0
H2337 H 0.97706 0.64921 0.13413 0.0
H2338 H 0.95225 0.684 0.14284 0.0
C2339 C 0.87853 0.72285 0.19869 0.0
C2340 C 0.8956 0.69484 0.174 0.0
H2341 H 0.95246 0.67872 0.16165 0.0
C2342 C 0.87647 0.68968 0.1667 0.0
C2343 C 0.9233 0.69246 0.17204 0.0
C2344 C 0.94422 0.69742 0.17988 0.0
C2345 C 0.88441 0.67992 0.15757 0.0
C2346 C 0.91205 0.675 0.15588 0.0
C2347 C 0.93126 0.6827 0.16292 0.0
C2348 C 0.92125 0.657 0.14802 0.0
C2349 C 0.86301 0.67334 0.1501 0.0
C2350 C 0.91118 0.63061 0.14766 0.0
C2351 C 0.92492 0.61079 0.14249 0.0
C2352 C 0.94933 0.61692 0.13786 0.0
C2353 C 0.95812 0.64385 0.13753 0.0
C2354 C 0.94404 0.66379 0.14254 0.0
H2355 H 0.84619 0.68808 0.15051 0.0
H2356 H 0.87121 0.67326 0.14255 0.0
H2357 H 0.85448 0.65317 0.15171 0.0
H2358 H 0.89408 0.62468 0.15206 0.0
H2359 H 0.91754 0.59027 0.14275 0.0
H2360 H 0.15646 0.2291 0.88567 0.0
H2361 H 0.12057 0.20469 0.89394 0.0
H2362 H 0.1788 0.14757 0.90491 0.0
H2363 H 0.21446 0.17054 0.89606 0.0
H2364 H 0.12991 0.1245 0.90192 0.0
H2365 H 0.12135 0.22078 0.92292 0.0
H2366 H 0.11325 0.22232 0.91013 0.0
H2367 H 0.14727 0.21545 0.91394 0.0
C2368 C 0.16149 0.21063 0.88946 0.0
C2369 C 0.1884 0.20198 0.8904 0.0
C2370 C 0.14095 0.19692 0.89426 0.0
C2371 C 0.14727 0.17491 0.90022 0.0
C2372 C 0.17361 0.16469 0.90037 0.0
H2373 H 0.14085 0.10122 0.95129 0.0
H2374 H 0.14348 0.11672 0.93447 0.0
C2375 C 0.19402 0.178 0.89542 0.0
C2376 C 0.12812 0.16505 0.90754 0.0
H2377 H 0.10267 0.18256 0.92979 0.0
C2378 C 0.1231 0.13728 0.90787 0.0
C2379 C 0.11961 0.18191 0.91533 0.0
C2380 C 0.12573 0.21173 0.91565 0.0
C2381 C 0.11202 0.12552 0.91621 0.0
C2382 C 0.10538 0.14217 0.92421 0.0
C2383 C 0.10766 0.17014 0.9235 0.0
C2384 C 0.10224 0.13101 0.93398 0.0
C2385 C 0.10971 0.09526 0.91674 0.0
C2386 C 0.07844 0.13495 0.93926 0.0
C2387 C 0.07692 0.12628 0.94892 0.0
C2388 C 0.09937 0.11409 0.95331 0.0
C2389 C 0.12329 0.11065 0.94804 0.0
C2390 C 0.1247 0.11907 0.93841 0.0
H2391 H 0.1073 0.08626 0.90935 0.0
H2392 H 0.12843 0.08693 0.92002 0.0
H2393 H 0.09245 0.08912 0.92139 0.0
H2394 H 0.06126 0.14482 0.93594 0.0
H2395 H 0.05834 0.12916 0.95294 0.0
H2396 H 0.62267 0.48225 0.65079 0.0
H2397 H 0.65376 0.45229 0.65907 0.0
H2398 H 0.63286 0.38805 0.63916 0.0
H2399 H 0.60174 0.41827 0.63064 0.0
H2400 H 0.62063 0.37842 0.65853 0.0
H2401 H 0.72557 0.4146 0.65559 0.0
H2402 H 0.70265 0.44171 0.65799 0.0
H2403 H 0.69995 0.42314 0.64669 0.0
C2404 C 0.62567 0.46221 0.64784 0.0
C2405 C 0.60978 0.45255 0.6401 0.0
C2406 C 0.64353 0.4451 0.65257 0.0
C2407 C 0.64585 0.41816 0.64959 0.0
C2408 C 0.63152 0.40894 0.64142 0.0
H2409 H 0.69472 0.3164 0.69913 0.0
H2410 H 0.68404 0.32475 0.68186 0.0
C2411 C 0.61369 0.42612 0.63664 0.0
C2412 C 0.6584 0.39897 0.65632 0.0
H2413 H 0.71304 0.39373 0.6712 0.0
C2414 C 0.64121 0.38078 0.66107 0.0
C2415 C 0.6851 0.4025 0.65962 0.0
C2416 C 0.70441 0.42142 0.65462 0.0
C2417 C 0.64912 0.36833 0.66975 0.0
C2418 C 0.67504 0.37374 0.67347 0.0
C2419 C 0.69319 0.38966 0.6682 0.0
C2420 C 0.68149 0.36798 0.68365 0.0
C2421 C 0.62887 0.35195 0.67544 0.0
C2422 C 0.68295 0.38962 0.6902 0.0
C2423 C 0.68883 0.38499 0.69994 0.0
C2424 C 0.69337 0.35864 0.70321 0.0
C2425 C 0.69108 0.33685 0.69672 0.0
C2426 C 0.68525 0.34155 0.68691 0.0
H2427 H 0.6088 0.35144 0.67184 0.0
H2428 H 0.63627 0.33096 0.67621 0.0
H2429 H 0.62644 0.3604 0.68292 0.0
H2430 H 0.67969 0.41012 0.68774 0.0
H2431 H 0.69047 0.40211 0.70484 0.0
H2432 H 0.12287 0.21103 0.36348 0.0
H2433 H 0.07727 0.22928 0.36355 0.0
H2434 H 0.10475 0.29575 0.38124 0.0
H2435 H 0.15099 0.27855 0.38028 0.0
H2436 H 0.03756 0.23613 0.3719 0.0
H2437 H 0.05857 0.34451 0.36889 0.0
H2438 H 0.0848 0.32001 0.36726 0.0
H2439 H 0.07503 0.33084 0.37941 0.0
C2440 C 0.11959 0.23009 0.36716 0.0
C2441 C 0.14195 0.24332 0.37157 0.0
C2442 C 0.09268 0.24066 0.36733 0.0
C2443 C 0.08557 0.26506 0.37219 0.0
C2444 C 0.10803 0.27794 0.37687 0.0
H2445 H 0.90049 0.2885 0.37924 0.0
H2446 H 0.94663 0.27094 0.38 0.0
C2447 C 0.13528 0.26775 0.37641 0.0
C2448 C 0.0552 0.27573 0.37246 0.0
H2449 H 1.01458 0.33277 0.37358 0.0
C2450 C 0.03306 0.25746 0.3721 0.0
C2451 C 0.04709 0.30355 0.37266 0.0
C2452 C 0.06757 0.32586 0.37197 0.0
C2453 C 1.00501 0.26547 0.37182 0.0
C2454 C 0.99687 0.29324 0.37257 0.0
C2455 C 1.01904 0.31148 0.37303 0.0
C2456 C 0.9665 0.30406 0.37246 0.0
C2457 C 0.98461 0.24343 0.37021 0.0
C2458 C 0.95971 0.32981 0.36857 0.0
C2459 C 0.93283 0.34053 0.36858 0.0
C2460 C 0.91014 0.32621 0.3722 0.0
C2461 C 0.91649 0.3004 0.37606 0.0
C2462 C 0.9437 0.28999 0.37637 0.0
H2463 H 0.99379 0.22562 0.36657 0.0
H2464 H 0.97678 0.23662 0.37738 0.0
H2465 H 0.96763 0.25044 0.36558 0.0
H2466 H 0.97535 0.34215 0.3654 0.0
H2467 H 0.92982 0.36052 0.36562 0.0
H2468 H 0.94846 0.68323 0.62079 0.0
H2469 H 0.96699 0.72868 0.62079 0.0
H2470 H 0.04707 0.69577 0.62237 0.0
H2471 H 1.02829 0.64977 0.62202 0.0
H2472 H 0.98954 0.76278 0.63106 0.0
H2473 H 0.06951 0.74898 0.6036 0.0
H2474 H 0.04495 0.72311 0.60591 0.0
H2475 H 0.07378 0.72698 0.61385 0.0
C2476 C 0.97018 0.68522 0.621 0.0
C2477 C 0.98632 0.66145 0.62122 0.0
C2478 C 0.98103 0.712 0.62106 0.0
C2479 C 1.0091 0.71753 0.62134 0.0
C2480 C 1.02546 0.69371 0.62175 0.0
H2481 H 0.11051 0.86974 0.62227 0.0
H2482 H 0.09189 0.82437 0.62243 0.0
C2483 C 1.0145 0.66665 0.62163 0.0
C2484 C 1.02025 0.74766 0.6214 0.0
H2485 H 0.06943 0.79039 0.61204 0.0
C2486 C 1.007 0.76842 0.62679 0.0
C2487 C 0.04322 0.75693 0.61599 0.0
C2488 C 0.05857 0.73796 0.60943 0.0
C2489 C 1.01574 0.79626 0.62709 0.0
C2490 C 0.03869 0.8055 0.62166 0.0
C2491 C 0.05196 0.78474 0.6163 0.0
C2492 C 0.04984 0.8356 0.62163 0.0
C2493 C 1.00044 0.81531 0.63364 0.0
C2494 C 0.03351 0.85941 0.62105 0.0
C2495 C 0.04454 0.88644 0.62099 0.0
C2496 C 0.07273 0.89156 0.6214 0.0
C2497 C 0.08881 0.86779 0.62189 0.0
C2498 C 0.0779 0.84106 0.62197 0.0
H2499 H 0.98953 0.80436 0.6395 0.0
H2500 H 1.01408 0.83021 0.63713 0.0
H2501 H 0.98521 0.82628 0.62923 0.0
H2502 H 1.01189 0.85734 0.62047 0.0
H2503 H 0.03079 0.90334 0.62061 0.0
H2504 H 0.39971 0.78538 0.8798 0.0
H2505 H 0.44625 0.76792 0.88034 0.0
H2506 H 0.47261 0.83584 0.86335 0.0
H2507 H 0.42717 0.85419 0.8637 0.0
H2508 H 0.48425 0.74762 0.87288 0.0
H2509 H 0.53547 0.84414 0.87817 0.0
H2510 H 0.4994 0.8419 0.87859 0.0
H2511 H 0.51673 0.84583 0.86702 0.0
C2512 C 0.41537 0.79678 0.87618 0.0
C2513 C 0.40847 0.82169 0.87169 0.0
C2514 C 0.44273 0.78664 0.8765 0.0
C2515 C 0.46519 0.80042 0.87223 0.0
C2516 C 0.45765 0.82463 0.86735 0.0
H2517 H 0.62005 0.70105 0.86438 0.0
H2518 H 0.57465 0.71941 0.86387 0.0
C2519 C 0.43068 0.83513 0.86732 0.0
C2520 C 0.49548 0.78944 0.87264 0.0
H2521 H 0.56318 0.80832 0.8726 0.0
C2522 C 0.50119 0.76135 0.87288 0.0
C2523 C 0.51935 0.80598 0.87302 0.0
C2524 C 0.51746 0.83608 0.87431 0.0
C2525 C 0.52807 0.75 0.87328 0.0
C2526 C 0.55193 0.7665 0.87275 0.0
C2527 C 0.54623 0.7946 0.87273 0.0
C2528 C 0.58221 0.75549 0.87245 0.0
C2529 C 0.52998 0.72002 0.87486 0.0
C2530 C 0.60472 0.76957 0.8766 0.0
C2531 C 0.63207 0.75938 0.87637 0.0
C2532 C 0.63887 0.73411 0.8721 0.0
C2533 C 0.61661 0.72037 0.86784 0.0
C2534 C 0.58966 0.7309 0.86778 0.0
H2535 H 0.51202 0.71228 0.8788 0.0
H2536 H 0.53062 0.70966 0.86767 0.0
H2537 H 0.5481 0.71455 0.87919 0.0
H2538 H 0.60126 0.78859 0.88026 0.0
H2539 H 0.64779 0.77104 0.87988 0.0
H2540 H 0.44645 0.18179 0.12196 0.0
H2541 H 0.4652 0.22726 0.12192 0.0
H2542 H 0.54522 0.1939 0.1221 0.0
H2543 H 0.5262 0.14812 0.12165 0.0
H2544 H 0.48859 0.26129 0.13164 0.0
H2545 H 0.56707 0.24736 0.10366 0.0
H2546 H 0.54254 0.22157 0.10608 0.0
H2547 H 0.57197 0.22506 0.11378 0.0
C2548 C 0.46817 0.18376 0.12185 0.0
C2549 C 0.48426 0.15997 0.12164 0.0
C2550 C 0.47918 0.21052 0.12189 0.0
C2551 C 0.50732 0.21592 0.12175 0.0
C2552 C 0.52356 0.19202 0.12177 0.0
H2553 H 0.61043 0.3673 0.12351 0.0
H2554 H 0.59145 0.32192 0.12348 0.0
C2555 C 0.51246 0.16506 0.12162 0.0
C2556 C 0.51878 0.24596 0.1218 0.0
H2557 H 0.56839 0.28828 0.11244 0.0
C2558 C 0.50598 0.26677 0.12731 0.0
C2559 C 0.54171 0.25509 0.11632 0.0
C2560 C 0.55648 0.23622 0.10955 0.0
C2561 C 0.51509 0.2945 0.12765 0.0
C2562 C 0.53807 0.30353 0.1222 0.0
C2563 C 0.55092 0.28275 0.11673 0.0
C2564 C 0.54956 0.33347 0.12223 0.0
C2565 C 0.50011 0.31369 0.13424 0.0
C2566 C 0.53346 0.35736 0.12144 0.0
C2567 C 0.54468 0.38429 0.12144 0.0
C2568 C 0.57286 0.38927 0.12218 0.0
C2569 C 0.58876 0.36543 0.1229 0.0
C2570 C 0.57765 0.33873 0.12286 0.0
H2571 H 0.48905 0.30284 0.14009 0.0
H2572 H 0.51401 0.32834 0.13774 0.0
H2573 H 0.48506 0.32498 0.12985 0.0
H2574 H 0.51188 0.35539 0.12065 0.0
H2575 H 0.53108 0.40127 0.12088 0.0
H2576 H 0.90607 0.77078 0.23491 0.0
H2577 H 0.95267 0.78869 0.23471 0.0
H2578 H 0.98346 0.70802 0.23222 0.0
H2579 H 0.93768 0.69049 0.23213 0.0
H2580 H 0.99738 0.78958 0.24475 0.0
H2581 H 0.03175 0.73431 0.21222 0.0
H2582 H 0.99686 0.73437 0.2158 0.0
H2583 H 1.02044 0.71132 0.2214 0.0
C2584 C 0.92264 0.75669 0.23427 0.0
C2585 C 0.9168 0.72867 0.23351 0.0
C2586 C 0.94992 0.76711 0.23415 0.0
C2587 C 0.97326 0.75034 0.23316 0.0
C2588 C 0.96715 0.72242 0.23259 0.0
H2589 H 0.15764 0.7728 0.23241 0.0
H2590 H 0.11104 0.75483 0.23243 0.0
C2591 C 0.94016 0.71211 0.23269 0.0
C2592 C 1.00336 0.76143 0.233 0.0
H2593 H 0.06629 0.75413 0.22195 0.0
C2594 C 1.0121 0.7817 0.23964 0.0
C2595 C 1.02417 0.75202 0.22651 0.0
C2596 C 1.01782 0.73203 0.21852 0.0
C2597 C 0.03946 0.7917 0.24018 0.0
C2598 C 0.06029 0.7822 0.23372 0.0
C2599 C 0.05156 0.76198 0.22706 0.0
C2600 C 0.09038 0.79323 0.23365 0.0
C2601 C 0.04577 0.8119 0.2481 0.0
C2602 C 0.09642 0.82118 0.23407 0.0
C2603 C 0.12338 0.83152 0.23411 0.0
C2604 C 0.14678 0.81493 0.23362 0.0
C2605 C 0.14104 0.78687 0.23297 0.0
C2606 C 0.11376 0.77642 0.23294 0.0
H2607 H 0.03171 0.80992 0.25437 0.0
H2608 H 0.06667 0.80952 0.25087 0.0
H2609 H 0.04335 0.83253 0.24512 0.0
H2610 H 0.08008 0.83558 0.2342 0.0
H2611 H 0.12581 0.85317 0.23443 0.0
H2612 H 0.52158 0.90725 0.48401 0.0
H2613 H 0.53982 0.86079 0.48373 0.0
H2614 H 0.45912 0.82946 0.48306 0.0
H2615 H 0.44126 0.87511 0.48294 0.0
H2616 H 0.54374 0.81702 0.49356 0.0
H2617 H 0.48149 0.77937 0.46323 0.0
H2618 H 0.48185 0.81453 0.46645 0.0
H2619 H 0.46041 0.79121 0.47293 0.0
C2620 C 0.50755 0.89058 0.48374 0.0
C2621 C 0.47941 0.89623 0.48345 0.0
C2622 C 0.51817 0.86336 0.48358 0.0
C2623 C 0.50148 0.83987 0.48305 0.0
C2624 C 0.47345 0.84582 0.48301 0.0
H2625 H 0.52592 0.65568 0.48406 0.0
H2626 H 0.50749 0.70213 0.48416 0.0
C2627 C 0.46294 0.87275 0.4831 0.0
C2628 C 0.51282 0.80982 0.48285 0.0
H2629 H 0.50359 0.74583 0.47273 0.0
C2630 C 0.53479 0.80182 0.48888 0.0
C2631 C 0.50216 0.78835 0.47688 0.0
C2632 C 0.4804 0.79381 0.46944 0.0
C2633 C 0.54526 0.77461 0.48934 0.0
C2634 C 0.5344 0.75313 0.48346 0.0
C2635 C 0.51249 0.76109 0.4774 0.0
C2636 C 0.54573 0.72313 0.48333 0.0
C2637 C 0.56764 0.76917 0.49653 0.0
C2638 C 0.57369 0.71732 0.4826 0.0
C2639 C 0.58431 0.69044 0.48253 0.0
C2640 C 0.56799 0.66689 0.48316 0.0
C2641 C 0.53986 0.67241 0.48371 0.0
C2642 C 0.52912 0.69959 0.48373 0.0
H2643 H 0.56737 0.78387 0.50267 0.0
H2644 H 0.56621 0.74857 0.49962 0.0
H2645 H 0.5873 0.77126 0.49276 0.0
H2646 H 0.58779 0.73378 0.48188 0.0
H2647 H 0.60594 0.68818 0.48193 0.0
H2648 H 0.65497 0.27881 0.73345 0.0
H2649 H 0.60853 0.26056 0.73333 0.0
H2650 H 0.577 0.34124 0.73348 0.0
H2651 H 0.62261 0.35913 0.7332 0.0
H2652 H 0.56517 0.25628 0.74344 0.0
H2653 H 0.52614 0.31969 0.71374 0.0
H2654 H 0.56144 0.31922 0.71677 0.0
H2655 H 0.53835 0.34036 0.72352 0.0
C2656 C 0.63827 0.29284 0.7334 0.0
C2657 C 0.64384 0.32098 0.73328 0.0
C2658 C 0.61105 0.28221 0.73333 0.0
C2659 C 0.5875 0.29891 0.73308 0.0
C2660 C 0.5934 0.32693 0.73321 0.0
H2661 H 0.4034 0.27439 0.73485 0.0
H2662 H 0.44983 0.29282 0.73482 0.0
C2663 C 0.62031 0.33745 0.73321 0.0
C2664 C 0.55746 0.28758 0.73297 0.0
H2665 H 0.49305 0.29715 0.72326 0.0
C2666 C 0.54976 0.2654 0.73891 0.0
C2667 C 0.53574 0.29846 0.72719 0.0
C2668 C 0.54084 0.32053 0.71987 0.0
C2669 C 0.52258 0.2549 0.73944 0.0
C2670 C 0.50084 0.26596 0.73374 0.0
C2671 C 0.50851 0.28809 0.72779 0.0
C2672 C 0.47087 0.25462 0.7337 0.0
C2673 C 0.51747 0.23229 0.74653 0.0
C2674 C 0.46508 0.22669 0.73286 0.0
C2675 C 0.43821 0.21606 0.73288 0.0
C2676 C 0.41467 0.23236 0.73369 0.0
C2677 C 0.42015 0.26047 0.73435 0.0
C2678 C 0.44731 0.27121 0.73429 0.0
H2679 H 0.53241 0.23238 0.7526 0.0
H2680 H 0.49699 0.2336 0.74974 0.0
H2681 H 0.51947 0.21276 0.74264 0.0
H2682 H 0.48154 0.21261 0.732 0.0
H2683 H 0.43596 0.19445 0.7322 0.0
H2684 H 0.10597 0.18498 0.98302 0.0
H2685 H 0.0872 0.23041 0.98309 0.0
H2686 H 1.0072 0.19714 0.98322 0.0
H2687 H 1.02627 0.15131 0.98361 0.0
H2688 H 0.06361 0.26405 0.97335 0.0
H2689 H 0.98596 0.2511 1.00169 0.0
H2690 H 1.01038 0.22517 0.99922 0.0
H2691 H 0.98076 0.22859 0.99162 0.0
C2692 C 0.08425 0.18695 0.98322 0.0
C2693 C 0.06819 0.16318 0.9835 0.0
C2694 C 0.07323 0.21369 0.98319 0.0
C2695 C 0.04511 0.21909 0.98341 0.0
C2696 C 0.02886 0.19522 0.98348 0.0
H2697 H 0.94255 0.37081 0.98169 0.0
H2698 H 0.96134 0.32531 0.98171 0.0
C2699 C 0.03998 0.16825 0.9836 0.0
C2700 C 0.0337 0.24912 0.98336 0.0
H2701 H 0.98455 0.29187 0.99288 0.0
C2702 C 0.04639 0.26973 0.97776 0.0
C2703 C 1.01099 0.25846 0.98893 0.0
C2704 C 0.99637 0.2398 0.99578 0.0
C2705 C 0.03738 0.29747 0.97743 0.0
C2706 C 1.01462 0.3067 0.98297 0.0
C2707 C 1.00186 0.28614 0.98852 0.0
C2708 C 1.00326 0.33666 0.98294 0.0
C2709 C 0.05219 0.31646 0.97075 0.0
C2710 C 1.01949 0.36042 0.98374 0.0
C2711 C 1.0084 0.3874 0.98375 0.0
C2712 C 0.98025 0.39252 0.983 0.0
C2713 C 0.96421 0.3688 0.98229 0.0
C2714 C 0.97521 0.34205 0.98232 0.0
H2715 H 0.06303 0.30544 0.96487 0.0
H2716 H 0.03822 0.3311 0.96729 0.0
H2717 H 0.0674 0.32777 0.97506 0.0
H2718 H 0.04106 0.35831 0.98452 0.0
H2719 H 1.02207 0.40431 0.98433 0.0
H2720 H 0.14856 0.77684 0.73556 0.0
H2721 H 0.1019 0.79471 0.73583 0.0
H2722 H 0.0713 0.71483 0.73097 0.0
H2723 H 0.11708 0.69719 0.73092 0.0
H2724 H 0.05889 0.80111 0.72449 0.0
H2725 H 1.01964 0.72967 0.75164 0.0
H2726 H 0.05509 0.73174 0.74898 0.0
H2727 H 0.03292 0.71232 0.74122 0.0
C2728 C 0.13201 0.76286 0.73467 0.0
C2729 C 0.13787 0.73499 0.73338 0.0
C2730 C 0.1047 0.77328 0.73479 0.0
C2731 C 0.08137 0.75656 0.73374 0.0
C2732 C 0.08754 0.72891 0.73224 0.0
H2733 H 0.89687 0.7796 0.73291 0.0
H2734 H 0.94344 0.76151 0.73251 0.0
C2735 C 0.11455 0.71861 0.73211 0.0
C2736 C 0.05124 0.76753 0.73396 0.0
H2737 H 0.98676 0.75503 0.743 0.0
C2738 C 0.04344 0.79088 0.72866 0.0
C2739 C 0.02949 0.755 0.7392 0.0
C2740 C 0.03469 0.73098 0.74565 0.0
C2741 C 1.01611 0.8011 0.72825 0.0
C2742 C 0.99438 0.78868 0.73355 0.0
C2743 C 1.00219 0.76529 0.73883 0.0
C2744 C 0.96427 0.79976 0.73389 0.0
C2745 C 1.0109 0.82481 0.72164 0.0
C2746 C 0.95826 0.82756 0.73505 0.0
C2747 C 0.93133 0.83798 0.73524 0.0
C2748 C 0.90785 0.82159 0.7345 0.0
C2749 C 0.91352 0.79356 0.73357 0.0
C2750 C 0.9408 0.78304 0.73332 0.0
H2751 H 1.02574 0.82559 0.71557 0.0
H2752 H 0.99038 0.82408 0.71842 0.0
H2753 H 1.01309 0.84371 0.72591 0.0
H2754 H 0.9746 0.84174 0.73596 0.0
H2755 H 0.92898 0.85956 0.73603 0.0
H2756 H 0.03279 0.15116 0.48314 0.0
H2757 H 0.0502 0.19797 0.48335 0.0
H2758 H 0.96899 0.22804 0.48255 0.0
H2759 H 0.95189 0.18219 0.48264 0.0
H2760 H 0.05264 0.24184 0.47264 0.0
H2761 H 0.98975 0.27778 0.50306 0.0
H2762 H 0.99116 0.24264 0.49982 0.0
H2763 H 0.96916 0.26536 0.49329 0.0
C2764 C 1.01848 0.16763 0.48317 0.0
C2765 C 0.99043 0.16164 0.48308 0.0
C2766 C 1.0286 0.19499 0.48324 0.0
C2767 C 1.01141 0.21816 0.48331 0.0
C2768 C 0.98354 0.21186 0.48296 0.0
H2769 H 0.03067 0.40228 0.4833 0.0
H2770 H 1.01352 0.35538 0.48305 0.0
C2771 C 0.97352 0.18483 0.48291 0.0
C2772 C 1.02201 0.2483 0.48348 0.0
H2773 H 1.01133 0.31176 0.49372 0.0
C2774 C 0.04349 0.2568 0.47737 0.0
C2775 C 1.01084 0.26937 0.48947 0.0
C2776 C 0.98916 0.26332 0.49685 0.0
C2777 C 0.05314 0.28425 0.47689 0.0
C2778 C 0.04195 0.30528 0.4829 0.0
C2779 C 1.02047 0.29679 0.489 0.0
C2780 C 0.05244 0.33542 0.48313 0.0
C2781 C 0.07483 0.29039 0.46953 0.0
C2782 C 0.08027 0.34182 0.48353 0.0
C2783 C 0.09011 0.36888 0.48366 0.0
C2784 C 0.07303 0.39195 0.48358 0.0
C2785 C 0.04504 0.38587 0.4834 0.0
C2786 C 0.0351 0.35847 0.48324 0.0
H2787 H 0.07427 0.27596 0.4633 0.0
H2788 H 0.0728 0.31109 0.46657 0.0
H2789 H 0.09484 0.28838 0.47308 0.0
H2790 H 0.0949 0.32571 0.48387 0.0
H2791 H 0.11173 0.37165 0.48386 0.0
H2792 H 0.61953 0.19776 0.23143 0.0
H2793 H 0.57405 0.21648 0.23141 0.0
H2794 H 0.60678 0.2957 0.23599 0.0
H2795 H 0.65282 0.2768 0.23577 0.0
H2796 H 0.53966 0.23736 0.24242 0.0
H2797 H 0.55505 0.32134 0.21676 0.0
H2798 H 0.58069 0.29627 0.21879 0.0
H2799 H 0.57656 0.32385 0.22726 0.0
C2800 C 0.61748 0.21931 0.23241 0.0
C2801 C 0.64116 0.23522 0.2336 0.0
C2802 C 0.59072 0.23026 0.23242 0.0
C2803 C 0.58523 0.25818 0.23353 0.0
C2804 C 0.60894 0.27428 0.2348 0.0
H2805 H 0.43351 0.36041 0.2352 0.0
H2806 H 0.47885 0.34154 0.23519 0.0
C2807 C 0.63596 0.26322 0.23481 0.0
C2808 C 0.5552 0.26945 0.23354 0.0
H2809 H 0.5131 0.32024 0.22488 0.0
C2810 C 0.53422 0.25551 0.2385 0.0
C2811 C 0.5463 0.29326 0.22854 0.0
C2812 C 0.5657 0.30944 0.22246 0.0
C2813 C 0.50646 0.26443 0.23884 0.0
C2814 C 0.4975 0.28825 0.23384 0.0
C2815 C 0.5185 0.30213 0.22884 0.0
C2816 C 0.46746 0.29962 0.23394 0.0
C2817 C 0.48723 0.2483 0.24501 0.0
C2818 C 0.44357 0.2835 0.23316 0.0
C2819 C 0.41659 0.29465 0.23332 0.0
C2820 C 0.41156 0.32279 0.23411 0.0
C2821 C 0.43539 0.33872 0.23469 0.0
C2822 C 0.46211 0.32767 0.23462 0.0
H2823 H 0.49803 0.23652 0.25069 0.0
H2824 H 0.47232 0.2615 0.2487 0.0
H2825 H 0.47635 0.23377 0.24026 0.0
H2826 H 0.44552 0.26198 0.23221 0.0
H2827 H 0.39964 0.28107 0.23262 0.0
H2828 H 0.53043 0.90303 0.98206 0.0
H2829 H 0.51236 0.8565 0.98213 0.0
H2830 H 0.59305 0.82537 0.98403 0.0
H2831 H 0.61075 0.87105 0.98422 0.0
H2832 H 0.51187 0.81174 0.97167 0.0
H2833 H 0.56688 0.77763 1.00434 0.0
H2834 H 0.56663 0.81251 1.00075 0.0
H2835 H 0.5897 0.78905 0.99511 0.0
C2836 C 0.54446 0.8864 0.98266 0.0
C2837 C 0.57253 0.89204 0.98334 0.0
C2838 C 0.53396 0.85919 0.98265 0.0
C2839 C 0.55074 0.83582 0.98342 0.0
C2840 C 0.5787 0.84175 0.98386 0.0
H2841 H 0.52773 0.65193 0.9851 0.0
H2842 H 0.54579 0.69844 0.98485 0.0
C2843 C 0.58909 0.86866 0.98387 0.0
C2844 C 0.53964 0.80583 0.98354 0.0
H2845 H 0.54656 0.7432 0.99476 0.0
C2846 C 0.51954 0.79708 0.97683 0.0
C2847 C 0.54894 0.78514 0.99008 0.0
C2848 C 0.56901 0.79156 0.99803 0.0
C2849 C 0.50951 0.76975 0.97632 0.0
C2850 C 0.51871 0.74907 0.98291 0.0
C2851 C 0.53886 0.75783 0.98959 0.0
C2852 C 0.50753 0.71907 0.9831 0.0
C2853 C 0.4897 0.76331 0.96829 0.0
C2854 C 0.4796 0.71307 0.98246 0.0
C2855 C 0.4692 0.68614 0.98257 0.0
C2856 C 0.48569 0.66279 0.9835 0.0
C2857 C 0.51371 0.66852 0.98436 0.0
C2858 C 0.52422 0.69574 0.98421 0.0
H2859 H 0.49218 0.7771 0.96196 0.0
H2860 H 0.49202 0.7423 0.96564 0.0
H2861 H 0.46891 0.76608 0.97109 0.0
H2862 H 0.46526 0.72942 0.982 0.0
H2863 H 0.44759 0.6837 0.98195 0.0
H2864 H 0.12382 0.35745 0.8722 0.0
H2865 H 0.0785 0.33862 0.87235 0.0
H2866 H 0.11193 0.25866 0.87237 0.0
H2867 H 0.15786 0.27779 0.87246 0.0
H2868 H 0.04567 0.31366 0.8619 0.0
H2869 H 0.05787 0.2402 0.89176 0.0
H2870 H 0.08373 0.2644 0.88895 0.0
H2871 H 0.08059 0.23394 0.88184 0.0
C2872 C 0.12198 0.33572 0.87225 0.0
C2873 C 0.14582 0.3197 0.87228 0.0
C2874 C 0.0953 0.3247 0.87232 0.0
C2875 C 0.09003 0.29661 0.87254 0.0
C2876 C 0.1139 0.28033 0.87249 0.0
H2877 H 0.93788 0.1949 0.87338 0.0
H2878 H 0.98342 0.21335 0.8733 0.0
C2879 C 0.14086 0.29147 0.8724 0.0
C2880 C 0.06004 0.28532 0.87258 0.0
H2881 H 1.0168 0.23833 0.88301 0.0
C2882 C 0.03972 0.2972 0.86661 0.0
C2883 C 0.05051 0.26364 0.87858 0.0
C2884 C 0.06917 0.24993 0.88572 0.0
C2885 C 1.012 0.28823 0.86626 0.0
C2886 C 1.00238 0.26659 0.87228 0.0
C2887 C 1.02273 0.25474 0.87827 0.0
C2888 C 0.97231 0.2554 0.87228 0.0
C2889 C 0.99359 0.3018 0.85901 0.0
C2890 C 0.94853 0.27179 0.87185 0.0
C2891 C 0.9215 0.26086 0.87177 0.0
C2892 C 0.91628 0.23272 0.87225 0.0
C2893 C 0.93996 0.21656 0.87289 0.0
C2894 C 0.96676 0.22739 0.8729 0.0
H2895 H 1.0051 0.31117 0.85295 0.0
H2896 H 0.979 0.28733 0.85581 0.0
H2897 H 0.98231 0.3181 0.86277 0.0
H2898 H 0.95059 0.29345 0.87177 0.0
H2899 H 0.90463 0.27466 0.87145 0.0
H2900 H 0.44288 0.37487 0.62147 0.0
H2901 H 0.46074 0.32915 0.62194 0.0
H2902 H 0.54142 0.36074 0.62159 0.0
H2903 H 0.52327 0.40702 0.62149 0.0
H2904 H 0.48384 0.29487 0.61207 0.0
H2905 H 0.56073 0.30743 0.64083 0.0
H2906 H 0.53695 0.33375 0.63806 0.0
H2907 H 0.56673 0.32931 0.63067 0.0
C2908 C 0.46456 0.37251 0.62152 0.0
C2909 C 0.48111 0.39594 0.62141 0.0
C2910 C 0.47503 0.34559 0.62178 0.0
C2911 C 0.50303 0.33968 0.62199 0.0
C2912 C 0.5198 0.36317 0.62177 0.0
H2913 H 0.60219 0.1859 0.62196 0.0
H2914 H 0.58444 0.23176 0.6218 0.0
C2915 C 0.50922 0.39035 0.62156 0.0
C2916 C 0.51374 0.30947 0.62218 0.0
H2917 H 0.56139 0.26605 0.63225 0.0
C2918 C 0.50076 0.28897 0.6166 0.0
C2919 C 0.53598 0.2999 0.62796 0.0
C2920 C 0.55076 0.31863 0.63479 0.0
C2921 C 0.50917 0.26106 0.61641 0.0
C2922 C 0.53146 0.25151 0.62214 0.0
C2923 C 0.54444 0.27199 0.62774 0.0
C2924 C 0.54216 0.22131 0.62223 0.0
C2925 C 0.49423 0.24227 0.60965 0.0
C2926 C 0.52534 0.1979 0.62264 0.0
C2927 C 0.53582 0.17068 0.62266 0.0
C2928 C 0.5639 0.16498 0.62234 0.0
C2929 C 0.58052 0.18836 0.6221 0.0
C2930 C 0.57013 0.21533 0.62207 0.0
H2931 H 0.48399 0.2534 0.60366 0.0
H2932 H 0.508 0.2272 0.60633 0.0
H2933 H 0.47848 0.2315 0.61385 0.0
H2934 H 0.50377 0.20043 0.62316 0.0
H2935 H 0.52175 0.15407 0.62305 0.0
H2936 H 0.65714 0.77797 0.37121 0.0
H2937 H 0.61065 0.75975 0.37121 0.0
H2938 H 0.57918 0.84029 0.37291 0.0
H2939 H 0.62487 0.85824 0.37275 0.0
H2940 H 0.56707 0.75643 0.38252 0.0
H2941 H 0.52885 0.819 0.35236 0.0
H2942 H 0.56417 0.81795 0.35539 0.0
H2943 H 0.54149 0.83935 0.36218 0.0
C2944 C 0.64044 0.792 0.37146 0.0
C2945 C 0.64604 0.82013 0.37181 0.0
C2946 C 0.61323 0.78138 0.37149 0.0
C2947 C 0.58973 0.7981 0.37175 0.0
C2948 C 0.59561 0.82608 0.3723 0.0
H2949 H 0.40552 0.77401 0.37142 0.0
H2950 H 0.45197 0.79227 0.37157 0.0
C2951 C 0.62254 0.83659 0.3723 0.0
C2952 C 0.55971 0.78684 0.37169 0.0
H2953 H 0.49574 0.79582 0.36159 0.0
C2954 C 0.55179 0.76517 0.37783 0.0
C2955 C 0.53819 0.79748 0.36578 0.0
C2956 C 0.54358 0.81953 0.35849 0.0
C2957 C 0.52453 0.75486 0.37839 0.0
C2958 C 0.50303 0.76531 0.3724 0.0
C2959 C 0.51098 0.78704 0.36629 0.0
C2960 C 0.47298 0.75396 0.37225 0.0
C2961 C 0.51913 0.73334 0.38589 0.0
C2962 C 0.46709 0.72594 0.37233 0.0
C2963 C 0.44017 0.71542 0.3723 0.0
C2964 C 0.41664 0.73186 0.37198 0.0
C2965 C 0.42223 0.75999 0.37166 0.0
C2966 C 0.44944 0.77063 0.37175 0.0
H2967 H 0.5336 0.73461 0.39209 0.0
H2968 H 0.49842 0.7349 0.38889 0.0
H2969 H 0.52173 0.71325 0.38245 0.0
H2970 H 0.48349 0.71162 0.37228 0.0
H2971 H 0.43787 0.69374 0.37248 0.0
H2972 H 0.94598 0.87277 0.12187 0.0
H2973 H 0.96418 0.82719 0.12198 0.0
H2974 H 0.04455 0.85937 0.12074 0.0
H2975 H 1.02609 0.90555 0.12097 0.0
H2976 H 0.98689 0.79328 0.11167 0.0
H2977 H 0.06538 0.80606 0.13985 0.0
H2978 H 0.04115 0.83217 0.13734 0.0
H2979 H 0.07047 0.82817 0.12969 0.0
C2980 C 0.96768 0.87058 0.12164 0.0
C2981 C 0.98404 0.89415 0.12139 0.0
C2982 C 0.97833 0.84375 0.12168 0.0
C2983 C 1.00636 0.83805 0.12155 0.0
C2984 C 1.02294 0.86166 0.12117 0.0
H2985 H 0.10707 0.68561 0.12077 0.0
H2986 H 0.08859 0.73108 0.12082 0.0
C2987 C 1.01218 0.88877 0.12116 0.0
C2988 C 1.01727 0.80792 0.12158 0.0
H2989 H 0.06573 0.76473 0.13124 0.0
C2990 C 1.00413 0.78742 0.11605 0.0
C2991 C 0.03987 0.79845 0.12718 0.0
C2992 C 0.0549 0.81723 0.13393 0.0
C2993 C 1.01274 0.75958 0.11573 0.0
C2994 C 0.03542 0.75009 0.12128 0.0
C2995 C 0.04851 0.77059 0.12685 0.0
C2996 C 0.04649 0.71998 0.12119 0.0
C2997 C 0.99761 0.74082 0.10901 0.0
C2998 C 0.03006 0.69623 0.12147 0.0
C2999 C 0.04099 0.66916 0.12133 0.0
C3000 C 0.06917 0.66394 0.12101 0.0
C3001 C 0.08536 0.68764 0.12091 0.0
C3002 C 0.07454 0.71443 0.121 0.0
H3003 H 0.98691 0.75201 0.10314 0.0
H3004 H 1.01133 0.726 0.10553 0.0
H3005 H 0.98221 0.72979 0.1133 0.0
H3006 H 1.00844 0.69837 0.12202 0.0
H3007 H 1.02719 0.65231 0.12163 0.0
H3008 H 0.29 0.25647 0.3468 0.0
H3009 H 0.29992 0.27393 0.3304 0.0
H3010 H 0.22416 0.24285 0.32001 0.0
H3011 H 0.21387 0.22637 0.33649 0.0
H3012 H 0.31069 0.25867 0.31329 0.0
H3013 H 0.21423 0.31036 0.30653 0.0
H3014 H 0.22227 0.29635 0.31831 0.0
H3015 H 0.20925 0.27516 0.30865 0.0
C3016 C 0.27521 0.25337 0.34108 0.0
C3017 C 0.25085 0.23974 0.34335 0.0
C3018 C 0.28101 0.26354 0.33149 0.0
C3019 C 0.26282 0.26089 0.32349 0.0
C3020 C 0.23868 0.24672 0.32575 0.0
H3021 H 0.26365 0.30823 0.2594 0.0
H3022 H 0.25384 0.29068 0.2758 0.0
C3023 C 0.23279 0.23672 0.33535 0.0
C3024 C 0.26952 0.27214 0.31299 0.0
H3025 H 0.24316 0.30588 0.29288 0.0
C3026 C 0.2957 0.26913 0.30895 0.0
C3027 C 0.25072 0.28608 0.30682 0.0
C3028 C 0.22265 0.29245 0.31032 0.0
C3029 C 0.30312 0.27846 0.29935 0.0
C3030 C 0.28433 0.29241 0.29318 0.0
C3031 C 0.25815 0.29542 0.29722 0.0
C3032 C 0.29101 0.30364 0.28268 0.0
C3033 C 0.33118 0.27208 0.29584 0.0
C3034 C 0.31517 0.31777 0.28041 0.0
C3035 C 0.321 0.32779 0.2708 0.0
C3036 C 0.30286 0.32486 0.26283 0.0
C3037 C 0.2785 0.31125 0.26511 0.0
C3038 C 0.27277 0.30104 0.27469 0.0
H3039 H 0.3396 0.25417 0.29963 0.0
H3040 H 0.33156 0.26817 0.28785 0.0
H3041 H 0.3446 0.28936 0.2975 0.0
H3042 H 0.32973 0.32161 0.28613 0.0
H3043 H 0.33991 0.33816 0.26965 0.0
H3044 H 1.00373 1.01167 0.50844 0.0
H3045 H 1.0203 1.00153 0.52499 0.0
H3046 H 0.99959 0.08186 0.53416 0.0
H3047 H 0.98217 0.09157 0.51773 0.0
H3048 H 0.0573 1.01317 0.53686 0.0
H3049 H 0.9697 0.0505 0.55753 0.0
H3050 H 0.96907 0.04803 0.54439 0.0
H3051 H 0.98444 0.07669 0.55033 0.0
C3052 C 1.00227 1.02723 0.51397 0.0
C3053 C 0.99089 0.05254 0.51142 0.0
C3054 C 1.01206 1.02137 0.52363 0.0
C3055 C 1.01103 0.04032 0.53144 0.0
C3056 C 1.00013 0.06586 0.52879 0.0
H3057 H 0.06266 0.04148 0.59526 0.0
H3058 H 0.04596 0.05176 0.57874 0.0
C3059 C 0.99023 0.07168 0.51915 0.0
C3060 C 1.0218 0.03354 0.54203 0.0
H3061 H 1.00856 0.04011 0.56688 0.0
C3062 C 0.04625 1.01907 0.54335 0.0
C3063 C 1.00838 0.04075 0.55095 0.0
C3064 C 0.98134 0.05459 0.55076 0.0
C3065 C 0.05745 1.0125 0.55279 0.0
C3066 C 0.04403 1.01972 0.56171 0.0
C3067 C 1.0196 0.03421 0.56039 0.0
C3068 C 0.0548 1.01286 0.57228 0.0
C3069 C 0.08446 0.99862 0.55298 0.0
C3070 C 0.06547 0.98723 0.57492 0.0
C3071 C 0.0754 0.98131 0.58455 0.0
C3072 C 0.07506 1.00048 0.59227 0.0
C3073 C 0.06389 1.0259 0.58973 0.0
C3074 C 0.05403 0.03184 0.58009 0.0
H3075 H 0.09611 1.00269 0.54621 0.0
H3076 H 0.09673 1.00516 0.55935 0.0
H3077 H 0.08133 0.97653 0.55341 0.0
H3078 H 0.06581 0.97122 0.56955 0.0
H3079 H 0.08328 0.96135 0.58596 0.0
H3080 H 0.33119 0.84064 0.83547 0.0
H3081 H 0.32047 0.82296 0.81911 0.0
H3082 H 0.25207 0.78118 0.83102 0.0
H3083 H 0.26208 0.79988 0.84721 0.0
H3084 H 0.31929 0.78011 0.80947 0.0
H3085 H 0.21139 0.80616 0.80883 0.0
H3086 H 0.23319 0.81757 0.81851 0.0
H3087 H 0.21902 0.78409 0.81878 0.0
C3088 C 0.31354 0.82803 0.83464 0.0
C3089 C 0.29738 0.82249 0.84294 0.0
C3090 C 0.30735 0.8176 0.82511 0.0
C3091 C 0.28463 0.8009 0.82327 0.0
C3092 C 0.26897 0.79477 0.83168 0.0
H3093 H 0.21546 0.71604 0.77013 0.0
H3094 H 0.22599 0.73361 0.78654 0.0
C3095 C 0.27498 0.80543 0.84117 0.0
C3096 C 0.27803 0.78964 0.81279 0.0
H3097 H 0.22651 0.77725 0.79617 0.0
C3098 C 0.29888 0.77982 0.80665 0.0
C3099 C 0.25153 0.78855 0.80861 0.0
C3100 C 0.22756 0.79989 0.81398 0.0
C3101 C 0.29427 0.76889 0.79704 0.0
C3102 C 0.26777 0.76777 0.79287 0.0
C3103 C 0.24692 0.77756 0.799 0.0
C3104 C 0.26123 0.7566 0.78238 0.0
C3105 C 0.31825 0.75771 0.79163 0.0
C3106 C 0.27661 0.76332 0.77397 0.0
C3107 C 0.27066 0.75283 0.76445 0.0
C3108 C 0.24866 0.73527 0.76265 0.0
C3109 C 0.2328 0.72906 0.77097 0.0
C3110 C 0.23888 0.73942 0.78052 0.0
H3111 H 0.33449 0.75148 0.79675 0.0
H3112 H 0.31264 0.74004 0.78707 0.0
H3113 H 0.32666 0.77358 0.78682 0.0
H3114 H 0.29324 0.77724 0.77465 0.0
H3115 H 0.28334 0.75887 0.7584 0.0
H3116 H 0.47489 0.08681 0.08524 0.0
H3117 H 0.49263 0.0763 0.0689 0.0
H3118 H 0.51782 0.99834 0.07914 0.0
H3119 H 0.49946 1.00863 0.09539 0.0
H3120 H 0.53778 0.06754 0.06023 0.0
H3121 H 0.4863 0.97017 0.05508 0.0
H3122 H 0.47862 0.99192 0.06526 0.0
H3123 H 0.50768 0.97009 0.06564 0.0
C3124 C 0.48389 0.06721 0.08405 0.0
C3125 C 0.48498 0.04861 0.09192 0.0
C3126 C 0.49434 0.06111 0.07454 0.0
C3127 C 0.50642 0.03594 0.07222 0.0
C3128 C 0.50798 1.01756 0.08018 0.0
H3129 H 0.57794 0.96091 1.01753 0.0
H3130 H 0.5613 0.97131 1.03404 0.0
C3131 C 0.4975 1.02364 0.0897 0.0
C3132 C 0.51762 0.02948 0.06172 0.0
H3133 H 0.51939 0.98123 1.04332 0.0
C3134 C 0.53345 0.0486 0.0566 0.0
C3135 C 0.51284 1.00482 0.05654 0.0
C3136 C 0.49524 0.98317 0.06085 0.0
C3137 C 0.54466 0.04385 1.04705 0.0
C3138 C 0.53964 1.01928 1.04181 0.0
C3139 C 0.52382 1.00015 1.04694 0.0
C3140 C 0.55053 1.01291 1.03124 0.0
C3141 C 0.56288 0.06525 1.04291 0.0
C3142 C 0.55038 0.03202 1.02349 0.0
C3143 C 0.5606 1.02608 1.01392 0.0
C3144 C 0.57104 1.00042 1.01136 0.0
C3145 C 0.57051 0.98103 1.01898 0.0
C3146 C 0.56068 0.98709 1.02859 0.0
H3147 H 0.57224 0.07753 1.04881 0.0
H3148 H 0.57924 0.05635 1.03842 0.0
H3149 H 0.55081 0.07911 1.03829 0.0
H3150 H 0.54187 0.05177 1.02471 0.0
H3151 H 0.55992 0.04176 1.00844 0.0
H3152 H 0.26645 0.74822 0.34581 0.0
H3153 H 0.25635 0.76494 0.32928 0.0
H3154 H 0.33346 0.73616 0.3194 0.0
H3155 H 0.34289 0.71846 0.33575 0.0
H3156 H 0.26975 0.79965 0.31699 0.0
H3157 H 0.2978 0.70807 0.29661 0.0
H3158 H 0.29648 0.70837 0.30976 0.0
H3159 H 0.32588 0.72073 0.30343 0.0
C3160 C 0.2812 0.74496 0.34011 0.0
C3161 C 0.30546 0.73114 0.34242 0.0
C3162 C 0.2754 0.75484 0.33047 0.0
C3163 C 0.29343 0.75157 0.32247 0.0
C3164 C 0.31804 0.73841 0.32491 0.0
H3165 H 0.29566 0.80179 0.25872 0.0
H3166 H 0.30557 0.78515 0.27528 0.0
C3167 C 0.32373 0.72833 0.33451 0.0
C3168 C 0.28676 0.7623 0.3119 0.0
H3169 H 0.29064 0.7473 0.2871 0.0
C3170 C 0.27427 0.7878 0.31054 0.0
C3171 C 0.2922 0.74782 0.30302 0.0
C3172 C 0.30356 0.71965 0.30326 0.0
C3173 C 0.26796 0.79895 0.30108 0.0
C3174 C 0.27356 0.78451 0.29223 0.0
C3175 C 0.28607 0.75908 0.29357 0.0
C3176 C 0.26695 0.79522 0.28166 0.0
C3177 C 0.25607 0.8269 0.30076 0.0
C3178 C 0.24159 0.80651 0.27903 0.0
C3179 C 0.2358 0.81614 0.26936 0.0
C3180 C 0.25494 0.81511 0.26167 0.0
C3181 C 0.28014 0.80352 0.26424 0.0
C3182 C 0.28588 0.79373 0.27389 0.0
H3183 H 0.26116 0.83858 0.30745 0.0
H3184 H 0.26327 0.83829 0.2943 0.0
H3185 H 0.23379 0.82535 0.30037 0.0
H3186 H 0.22575 0.80757 0.28443 0.0
H3187 H 0.21602 0.82446 0.26792 0.0
H3188 H 0.57224 0.09508 0.58794 0.0
H3189 H 0.55486 0.08501 0.57145 0.0
H3190 H 0.53371 1.00514 0.58084 0.0
H3191 H 0.55049 1.01543 0.59732 0.0
H3192 H 0.56508 0.05482 0.5566 0.0
H3193 H 0.46537 1.01671 0.56751 0.0
H3194 H 0.4878 0.03224 0.57622 0.0
H3195 H 0.492 0.99732 0.57285 0.0
C3196 C 0.56372 0.07535 0.58658 0.0
C3197 C 0.56295 0.05634 0.59432 0.0
C3198 C 0.55364 0.06944 0.57697 0.0
C3199 C 0.54181 0.04425 0.57447 0.0
C3200 C 0.54149 1.02513 0.58221 0.0
H3201 H 0.4668 0.97053 0.52014 0.0
H3202 H 0.48475 0.98075 0.53649 0.0
C3203 C 0.55162 0.03101 0.5918 0.0
C3204 C 0.53073 0.03798 0.56391 0.0
H3205 H 0.47743 1.00988 0.55096 0.0
C3206 C 0.54576 0.04512 0.55549 0.0
C3207 C 0.50548 1.02506 0.5619 0.0
C3208 C 0.4866 1.01762 0.57008 0.0
C3209 C 0.53717 0.0394 0.54563 0.0
C3210 C 0.51181 1.02664 0.54361 0.0
C3211 C 0.49678 1.01953 0.55205 0.0
C3212 C 0.50063 1.02026 0.53306 0.0
C3213 C 0.5564 0.04631 0.53749 0.0
C3214 C 0.50239 0.03857 0.52508 0.0
C3215 C 0.49217 0.03246 0.51551 0.0
C3216 C 0.47895 1.00786 0.5133 0.0
C3217 C 0.47666 0.98974 0.52127 0.0
C3218 C 0.48709 0.99575 0.53082 0.0
H3219 H 0.57758 0.04677 0.54013 0.0
H3220 H 0.55506 0.03162 0.53138 0.0
H3221 H 0.55156 0.06671 0.53468 0.0
H3222 H 0.51139 0.05814 0.5262 0.0
H3223 H 0.49457 0.04733 0.5098 0.0
H3224 H 0.33981 0.21785 0.77057 0.0
H3225 H 0.32901 0.23552 0.78691 0.0
H3226 H 0.25585 0.26997 0.77551 0.0
H3227 H 0.26614 0.25137 0.75932 0.0
H3228 H 0.32464 0.27896 0.79625 0.0
H3229 H 0.21997 0.24271 0.79843 0.0
H3230 H 0.24185 0.23275 0.78858 0.0
H3231 H 0.22447 0.2647 0.78821 0.0
C3232 C 0.32114 0.22885 0.7715 0.0
C3233 C 0.30382 0.23239 0.76332 0.0
C3234 C 0.31489 0.23928 0.78102 0.0
C3235 C 0.29088 0.25393 0.78303 0.0
C3236 C 0.27394 0.25802 0.77475 0.0
H3237 H 0.21853 0.33475 0.83651 0.0
H3238 H 0.22917 0.31723 0.82011 0.0
C3239 C 0.28008 0.24741 0.76525 0.0
C3240 C 0.28424 0.26523 0.79352 0.0
H3241 H 0.23344 0.27366 0.81069 0.0
C3242 C 0.3046 0.27746 0.79933 0.0
C3243 C 0.25821 0.26405 0.79803 0.0
C3244 C 0.23495 0.25012 0.79305 0.0
C3245 C 0.29988 0.28856 0.80891 0.0
C3246 C 0.27384 0.28738 0.81343 0.0
C3247 C 0.25349 0.27517 0.80762 0.0
C3248 C 0.26723 0.29857 0.82393 0.0
C3249 C 0.32315 0.30247 0.81391 0.0
C3250 C 0.28419 0.29427 0.83219 0.0
C3251 C 0.27813 0.30475 0.84171 0.0
C3252 C 0.25445 0.31983 0.84369 0.0
C3253 C 0.23711 0.32362 0.83553 0.0
C3254 C 0.24329 0.31331 0.82598 0.0
H3255 H 0.3381 0.30994 0.80852 0.0
H3256 H 0.31626 0.31979 0.81839 0.0
H3257 H 0.33367 0.28785 0.81871 0.0
H3258 H 0.30223 0.28228 0.83139 0.0
H3259 H 0.29212 0.30066 0.84761 0.0
H3260 H 0.08715 0.0861 1.02029 0.0
H3261 H 0.06971 0.07545 1.03666 0.0
H3262 H 1.02839 1.00657 1.02478 0.0
H3263 H 0.04668 1.01662 1.00856 0.0
H3264 H 1.02648 0.07388 1.04631 0.0
H3265 H 0.05436 0.96649 1.04704 0.0
H3266 H 0.06541 0.98837 1.03736 0.0
H3267 H 0.03214 0.97369 1.03706 0.0
C3268 C 0.07468 0.06837 1.02113 0.0
C3269 C 0.06912 0.05213 1.0128 0.0
C3270 C 0.06439 0.06222 1.03066 0.0
C3271 C 0.04788 0.03939 1.03253 0.0
C3272 C 0.04179 1.02361 1.02411 0.0
H3273 H 0.96541 0.9689 0.08591 0.0
H3274 H 0.98258 0.97946 0.06948 0.0
C3275 C 0.05224 0.02963 1.0146 0.0
C3276 C 0.03677 0.03278 1.04303 0.0
H3277 H 1.0254 0.98133 0.0597 0.0
C3278 C 1.02657 0.05352 1.04916 0.0
C3279 C 0.03614 1.00635 1.04724 0.0
C3280 C 0.04783 0.9825 1.04188 0.0
C3281 C 1.01568 0.04886 0.05876 0.0
C3282 C 1.01508 1.02243 0.06298 0.0
C3283 C 1.02528 1.00169 0.05685 0.0
C3284 C 1.00408 1.01583 0.07351 0.0
C3285 C 1.00392 0.07272 0.06409 0.0
C3286 C 1.01007 0.03181 0.08188 0.0
C3287 C 0.99976 1.02584 0.09141 0.0
C3288 C 0.98316 1.00317 0.0933 0.0
C3289 C 0.97769 0.98673 0.08502 0.0
C3290 C 0.98783 0.99285 0.07545 0.0
H3291 H 0.99726 0.08863 0.05892 0.0
H3292 H 0.98641 0.06684 0.06865 0.0
H3293 H 1.01961 0.0817 0.06888 0.0
H3294 H 1.02329 0.04897 0.08117 0.0
H3295 H 1.0052 0.03907 0.0974 0.0
H3296 H 0.78679 0.75274 0.84706 0.0
H3297 H 0.79661 0.77105 0.83074 0.0
H3298 H 0.72422 0.73442 0.81959 0.0
H3299 H 0.714 0.71706 0.83593 0.0
H3300 H 0.80943 0.75588 0.81363 0.0
H3301 H 0.71038 0.80187 0.80636 0.0
H3302 H 0.71872 0.78818 0.81817 0.0
H3303 H 0.70742 0.7664 0.8084 0.0
C3304 C 0.77275 0.74859 0.84118 0.0
C3305 C 0.74935 0.73313 0.84316 0.0
C3306 C 0.77847 0.75924 0.83166 0.0
C3307 C 0.7611 0.75526 0.82349 0.0
C3308 C 0.73796 0.73931 0.82547 0.0
H3309 H 0.76161 0.80273 0.75958 0.0
H3310 H 0.75224 0.78461 0.77593 0.0
C3311 C 0.73216 0.72882 0.83499 0.0
C3312 C 0.76759 0.76699 0.81308 0.0
H3313 H 0.74012 0.79921 0.79287 0.0
C3314 C 0.79406 0.76548 0.80921 0.0
C3315 C 0.74825 0.77981 0.80683 0.0
C3316 C 0.71969 0.78444 0.81018 0.0
C3317 C 0.80131 0.77522 0.79966 0.0
C3318 C 0.78198 0.78808 0.79341 0.0
C3319 C 0.75551 0.78961 0.79729 0.0
C3320 C 0.78838 0.79967 0.78296 0.0
C3321 C 0.82981 0.77041 0.79629 0.0
C3322 C 0.81179 0.81515 0.78082 0.0
C3323 C 0.81739 0.82547 0.77125 0.0
C3324 C 0.79971 0.82149 0.76321 0.0
C3325 C 0.77607 0.80656 0.76536 0.0
C3326 C 0.77059 0.79604 0.7749 0.0
H3327 H 0.83906 0.75297 0.80012 0.0
H3328 H 0.83072 0.76657 0.7883 0.0
H3329 H 0.84219 0.7884 0.79804 0.0
H3330 H 0.82587 0.81981 0.78662 0.0
H3331 H 0.83572 0.83689 0.77018 0.0
H3332 H 0.76337 0.30298 0.34716 0.0
H3333 H 0.75393 0.28447 0.3308 0.0
H3334 H 0.82393 0.32499 0.31958 0.0
H3335 H 0.8339 0.34243 0.33595 0.0
H3336 H 0.73964 0.29865 0.3139 0.0
H3337 H 0.84097 0.25924 0.30587 0.0
H3338 H 0.83248 0.27215 0.31779 0.0
H3339 H 0.84196 0.29477 0.30805 0.0
C3340 C 0.77698 0.30792 0.34125 0.0
C3341 C 0.79966 0.32447 0.34322 0.0
C3342 C 0.77148 0.29716 0.33171 0.0
C3343 C 0.78833 0.30217 0.32351 0.0
C3344 C 0.81069 0.31925 0.32548 0.0
H3345 H 0.78672 0.25734 0.25923 0.0
H3346 H 0.796 0.27565 0.27562 0.0
C3347 C 0.81631 0.32979 0.33502 0.0
C3348 C 0.78209 0.29035 0.31307 0.0
H3349 H 0.81057 0.26073 0.29251 0.0
C3350 C 0.75538 0.29023 0.30934 0.0
C3351 C 0.80191 0.27902 0.30664 0.0
C3352 C 0.83086 0.27601 0.30982 0.0
C3353 C 0.74829 0.2803 0.29978 0.0
C3354 C 0.76812 0.26902 0.29334 0.0
C3355 C 0.79482 0.26914 0.29707 0.0
C3356 C 0.76192 0.2573 0.28289 0.0
C3357 C 0.71933 0.28316 0.2966 0.0
C3358 C 0.73978 0.23994 0.2809 0.0
C3359 C 0.73428 0.22944 0.27134 0.0
C3360 C 0.75081 0.23517 0.26315 0.0
C3361 C 0.77323 0.25207 0.26513 0.0
C3362 C 0.77864 0.26271 0.27469 0.0
H3363 H 0.70909 0.29979 0.30057 0.0
H3364 H 0.71771 0.28712 0.28863 0.0
H3365 H 0.70837 0.26429 0.29831 0.0
H3366 H 0.72664 0.23396 0.2868 0.0
H3367 H 0.71688 0.21655 0.27039 0.0
H3368 H 0.72148 0.33777 0.76991 0.0
H3369 H 0.73243 0.32025 0.78624 0.0
H3370 H 0.80114 0.27892 0.77426 0.0
H3371 H 0.79082 0.2974 0.75806 0.0
H3372 H 0.73396 0.27733 0.79584 0.0
H3373 H 0.84162 0.30418 0.79653 0.0
H3374 H 0.8197 0.31545 0.78686 0.0
H3375 H 0.83413 0.28205 0.78654 0.0
C3376 C 0.73923 0.32527 0.77071 0.0
C3377 C 0.75533 0.31976 0.76236 0.0
C3378 C 0.74556 0.31493 0.78022 0.0
C3379 C 0.76842 0.29839 0.78205 0.0
C3380 C 0.78408 0.29235 0.77361 0.0
H3381 H 0.83886 0.21462 0.83514 0.0
H3382 H 0.82805 0.23217 0.81879 0.0
C3383 C 0.77789 0.30288 0.76412 0.0
C3384 C 0.77512 0.2872 0.79254 0.0
H3385 H 0.82672 0.27533 0.80917 0.0
C3386 C 0.75437 0.27723 0.79867 0.0
C3387 C 0.80161 0.28634 0.79674 0.0
C3388 C 0.82549 0.29781 0.79138 0.0
C3389 C 0.75906 0.26635 0.80828 0.0
C3390 C 0.78556 0.26548 0.81247 0.0
C3391 C 0.80631 0.27545 0.80634 0.0
C3392 C 0.79223 0.25432 0.82296 0.0
C3393 C 0.73518 0.25493 0.81365 0.0
C3394 C 0.77662 0.26054 0.83139 0.0
C3395 C 0.78272 0.25001 0.84089 0.0
C3396 C 0.80514 0.23294 0.84266 0.0
C3397 C 0.82121 0.22726 0.83433 0.0
C3398 C 0.81497 0.23761 0.8248 0.0
H3399 H 0.71904 0.24856 0.80851 0.0
H3400 H 0.74096 0.2373 0.81817 0.0
H3401 H 0.72658 0.27071 0.81848 0.0
H3402 H 0.75966 0.27409 0.83074 0.0
H3403 H 0.76984 0.25565 0.84695 0.0
H3404 H 0.72308 0.83498 0.33522 0.0
H3405 H 0.73336 0.81652 0.31896 0.0
H3406 H 0.80473 0.77907 0.33061 0.0
H3407 H 0.79392 0.79678 0.3469 0.0
H3408 H 0.76731 0.82097 0.30533 0.0
H3409 H 0.78405 0.71537 0.31607 0.0
H3410 H 0.77121 0.73987 0.3246 0.0
H3411 H 0.80691 0.73751 0.32225 0.0
C3412 C 0.74095 0.82267 0.33441 0.0
C3413 C 0.75742 0.81766 0.34271 0.0
C3414 C 0.74698 0.81194 0.32493 0.0
C3415 C 0.76976 0.7953 0.32312 0.0
C3416 C 0.78645 0.79071 0.33143 0.0
H3417 H 0.84015 0.71219 0.2699 0.0
H3418 H 0.8302 0.73064 0.28621 0.0
C3419 C 0.78038 0.80137 0.34092 0.0
C3420 C 0.77614 0.78374 0.31267 0.0
H3421 H 0.79669 0.72683 0.29992 0.0
C3422 C 0.77355 0.80025 0.30426 0.0
C3423 C 0.78458 0.75663 0.31075 0.0
C3424 C 0.7866 0.73624 0.31887 0.0
C3425 C 0.77948 0.7912 0.2945 0.0
C3426 C 0.78787 0.76406 0.29257 0.0
C3427 C 0.79048 0.74756 0.30098 0.0
C3428 C 0.7941 0.75247 0.2821 0.0
C3429 C 0.77757 0.81165 0.28639 0.0
C3430 C 0.77746 0.75739 0.27382 0.0
C3431 C 0.78337 0.7468 0.26431 0.0
C3432 C 0.80606 0.73017 0.26247 0.0
C3433 C 0.82247 0.72476 0.27075 0.0
C3434 C 0.81663 0.73549 0.28026 0.0
H3435 H 0.78033 0.83248 0.28921 0.0
H3436 H 0.79289 0.80794 0.28064 0.0
H3437 H 0.75721 0.81061 0.28304 0.0
H3438 H 0.75933 0.76925 0.27465 0.0
H3439 H 0.76988 0.7517 0.25834 0.0
H3440 H 0.54868 0.53408 0.09751 0.0
H3441 H 0.53089 0.54395 0.0811 0.0
H3442 H 0.57714 0.4781 0.06934 0.0
H3443 H 0.59405 0.46771 0.08576 0.0
H3444 H 0.546 0.56091 0.06457 0.0
H3445 H 0.51321 0.45834 0.05479 0.0
H3446 H 0.52466 0.46648 0.06694 0.0
H3447 H 0.54857 0.45933 0.05734 0.0
C3448 C 0.55507 0.52148 0.09147 0.0
C3449 C 0.57308 0.49983 0.0933 0.0
C3450 C 0.54473 0.52723 0.08191 0.0
C3451 C 0.55159 0.51165 0.07353 0.0
C3452 C 0.57005 0.49031 0.07537 0.0
H3453 H 0.50992 0.51635 1.00901 0.0
H3454 H 0.52781 0.50656 1.0254 0.0
C3455 C 0.58025 0.48446 0.08494 0.0
C3456 C 0.54017 0.5182 0.06308 0.0
H3457 H 0.51343 0.49015 1.04191 0.0
C3458 C 0.53877 0.54519 0.05972 0.0
C3459 C 0.53041 0.49842 0.05629 0.0
C3460 C 0.529 0.46908 0.05904 0.0
C3461 C 0.52909 0.55265 1.05017 0.0
C3462 C 0.51928 0.53287 1.04338 0.0
C3463 C 0.52067 0.50588 1.04675 0.0
C3464 C 0.50784 0.53941 1.03292 0.0
C3465 C 0.53065 0.58198 1.04742 0.0
C3466 C 0.48975 0.56106 1.03105 0.0
C3467 C 0.47959 0.56692 1.02148 0.0
C3468 C 0.48631 0.5512 1.01316 0.0
C3469 C 0.50388 0.52922 1.01502 0.0
C3470 C 0.51427 0.52351 1.02458 0.0
H3471 H 0.54655 0.59261 1.05165 0.0
H3472 H 0.53496 0.58457 1.03951 0.0
H3473 H 0.51117 0.59187 1.04914 0.0
H3474 H 0.48293 0.57351 1.03705 0.0
H3475 H 0.46613 0.58393 1.02063 0.0
H3476 H 1.00255 0.51401 0.59602 0.0
H3477 H 1.02066 0.50426 0.57968 0.0
H3478 H 0.98935 0.57986 0.5693 0.0
H3479 H 0.97223 0.59 0.58572 0.0
H3480 H 1.00568 0.4935 0.56256 0.0
H3481 H 0.05734 0.58997 0.55613 0.0
H3482 H 0.04299 0.58193 0.56784 0.0
H3483 H 1.02205 0.59489 0.55811 0.0
C3484 C 0.99957 0.52881 0.59031 0.0
C3485 C 0.98569 0.55307 0.59255 0.0
C3486 C 1.01009 0.52311 0.58077 0.0
C3487 C 1.00755 0.5413 0.5728 0.0
C3488 C 0.99315 0.56537 0.57503 0.0
H3489 H 0.05737 0.54108 0.50902 0.0
H3490 H 0.03951 0.55091 0.5254 0.0
C3491 C 0.9828 0.57116 0.58459 0.0
C3492 C 1.0191 0.53465 0.56235 0.0
H3493 H 0.05339 0.561 0.54244 0.0
C3494 C 1.01623 0.50848 0.55827 0.0
C3495 C 0.03318 0.55345 0.55627 0.0
C3496 C 0.03934 0.58152 0.55983 0.0
C3497 C 1.0258 0.50106 0.5487 0.0
C3498 C 0.03989 0.51985 0.54261 0.0
C3499 C 0.04281 0.54601 0.5467 0.0
C3500 C 0.05134 0.51322 0.53213 0.0
C3501 C 1.01946 0.473 0.54515 0.0
C3502 C 0.06495 0.48877 0.5298 0.0
C3503 C 0.07489 0.48284 0.52019 0.0
C3504 C 0.07263 0.50126 0.51232 0.0
C3505 C 0.05979 0.52601 0.51467 0.0
C3506 C 0.04944 0.53175 0.52424 0.0
H3507 H 1.00143 0.46466 0.54887 0.0
H3508 H 1.01575 0.47259 0.53714 0.0
H3509 H 0.03667 0.45953 0.54687 0.0
H3510 H 0.06843 0.47403 0.53547 0.0
H3511 H 0.08477 0.46368 0.51897 0.0
H3512 H 0.0815 0.59262 0.08549 0.0
H3513 H 0.063 0.58224 0.06918 0.0
H3514 H 0.03687 0.50485 0.07961 0.0
H3515 H 0.05454 0.51557 0.09589 0.0
H3516 H 0.07053 0.55081 0.05469 0.0
H3517 H 0.96934 0.51875 0.06632 0.0
H3518 H 0.99282 0.53361 0.07481 0.0
H3519 H 0.99495 0.49826 0.07177 0.0
C3520 C 0.07166 0.57339 0.08439 0.0
C3521 C 0.06977 0.5552 0.09236 0.0
C3522 C 0.06091 0.5673 0.07488 0.0
C3523 C 0.04735 0.54273 0.07274 0.0
C3524 C 0.04595 0.52441 0.0807 0.0
H3525 H 0.96841 0.4679 1.01943 0.0
H3526 H 0.98719 0.47863 1.03561 0.0
C3527 C 0.05663 0.53051 0.09019 0.0
C3528 C 0.03563 0.53621 0.0623 0.0
H3529 H 0.98071 0.50962 1.04984 0.0
C3530 C 0.05074 0.54197 0.05375 0.0
C3531 C 1.00972 0.52439 0.06052 0.0
C3532 C 0.99066 0.51863 0.06883 0.0
C3533 C 0.04156 0.53595 1.04399 0.0
C3534 C 1.01561 0.52419 1.04221 0.0
C3535 C 1.00051 0.51845 1.05076 0.0
C3536 C 1.00387 0.51751 1.03178 0.0
C3537 C 0.06075 0.54145 1.0357 0.0
C3538 C 1.0058 0.53533 1.02366 0.0
C3539 C 0.99501 0.52896 1.0142 0.0
C3540 C 0.98114 0.50455 1.01225 0.0
C3541 C 0.97875 0.48693 1.02036 0.0
C3542 C 0.98967 0.49322 1.02981 0.0
H3543 H 0.08203 0.54125 1.03824 0.0
H3544 H 0.05858 0.52637 1.02975 0.0
H3545 H 0.05662 0.56179 1.03271 0.0
H3546 H 1.01537 0.5547 1.02461 0.0
H3547 H 0.99753 0.54344 1.00837 0.0
H3548 H 0.49503 0.54619 0.59608 0.0
H3549 H 0.5122 0.55636 0.57961 0.0
H3550 H 0.49138 0.4763 0.57021 0.0
H3551 H 0.47441 0.46615 0.58666 0.0
H3552 H 0.55125 0.54086 0.56784 0.0
H3553 H 0.45979 0.51294 0.54734 0.0
H3554 H 0.4604 0.51424 0.56051 0.0
H3555 H 0.47298 0.48505 0.55415 0.0
C3556 C 0.4938 0.53065 0.59053 0.0
C3557 C 0.4826 0.50525 0.59301 0.0
C3558 C 0.50389 0.53655 0.58093 0.0
C3559 C 0.503 0.51762 0.57312 0.0
C3560 C 0.49205 0.4921 0.57566 0.0
H3561 H 0.55002 0.51807 0.50894 0.0
H3562 H 0.53306 0.50791 0.52541 0.0
C3563 C 0.48229 0.48611 0.58528 0.0
C3564 C 0.51392 0.52436 0.5626 0.0
H3565 H 0.49895 0.52124 0.5378 0.0
C3566 C 0.53951 0.53657 0.56133 0.0
C3567 C 0.49955 0.51907 0.5537 0.0
C3568 C 0.47156 0.50735 0.55395 0.0
C3569 C 0.55097 0.54266 0.55192 0.0
C3570 C 0.5365 0.53763 0.54299 0.0
C3571 C 0.51083 0.52547 0.54428 0.0
C3572 C 0.54743 0.54435 0.53244 0.0
C3573 C 0.57935 0.55344 0.55177 0.0
C3574 C 0.56127 0.56864 0.53014 0.0
C3575 C 0.57153 0.57434 0.52057 0.0
C3576 C 0.56821 0.55644 0.51255 0.0
C3577 C 0.5537 0.53254 0.51472 0.0
C3578 C 0.54367 0.52671 0.52433 0.0
H3579 H 0.59075 0.54728 0.5584 0.0
H3580 H 0.59057 0.54628 0.54525 0.0
H3581 H 0.5787 0.57578 0.55171 0.0
H3582 H 0.56392 0.58382 0.53573 0.0
H3583 H 0.58196 0.59323 0.51944 0.0
H3584 H 0.32476 0.17314 0.39126 0.0
H3585 H 0.34819 0.14723 0.404 0.0
H3586 H 0.2723 0.13258 0.41813 0.0
H3587 H 0.24902 0.15699 0.40509 0.0
H3588 H 0.36511 0.14316 0.42023 0.0
H3589 H 0.29064 0.0627 0.42591 0.0
H3590 H 0.2875 0.08576 0.41586 0.0
H3591 H 0.27603 0.09516 0.42796 0.0
C3592 C 0.31269 0.16407 0.39696 0.0
C3593 C 0.28413 0.16765 0.3966 0.0
C3594 C 0.32651 0.14888 0.40453 0.0
C3595 C 0.31317 0.13584 0.41252 0.0
C3596 C 0.28456 0.14016 0.41224 0.0
H3597 H 0.37244 0.04232 0.46787 0.0
H3598 H 0.34615 0.06779 0.4555 0.0
C3599 C 0.27071 0.15504 0.4046 0.0
C3600 C 0.32909 0.11916 0.42094 0.0
H3601 H 0.32546 0.06544 0.43756 0.0
C3602 C 0.35594 0.12606 0.42381 0.0
C3603 C 0.31894 0.09612 0.42627 0.0
C3604 C 0.29185 0.08427 0.4238 0.0
C3605 C 0.37155 0.11222 0.43132 0.0
C3606 C 0.36133 0.08939 0.43667 0.0
C3607 C 0.33447 0.08251 0.43389 0.0
C3608 C 0.37801 0.07265 0.4448 0.0
C3609 C 0.3991 0.1233 0.43362 0.0
C3610 C 0.4055 0.06495 0.44358 0.0
C3611 C 0.42075 0.05013 0.45079 0.0
C3612 C 0.41021 0.04137 0.45998 0.0
C3613 C 0.38252 0.04852 0.46123 0.0
C3614 C 0.36704 0.06336 0.45391 0.0
H3615 H 0.40054 0.14501 0.43174 0.0
H3616 H 0.4042 0.12091 0.44148 0.0
H3617 H 0.41431 0.11244 0.42917 0.0
H3618 H 0.41555 0.0699 0.43682 0.0
H3619 H 0.44145 0.04526 0.44903 0.0
H3620 H 0.26036 0.19409 0.69986 0.0
H3621 H 0.23552 0.16759 0.68784 0.0
H3622 H 0.25331 0.09578 0.70419 0.0
H3623 H 0.27638 0.12298 0.71664 0.0
H3624 H 0.23377 0.13901 0.67451 0.0
H3625 H 0.18939 0.06069 0.69801 0.0
H3626 H 0.205 0.09003 0.70323 0.0
H3627 H 0.22528 0.06189 0.69911 0.0
C3628 C 0.25863 0.17266 0.70116 0.0
C3629 C 0.27065 0.16179 0.7098 0.0
C3630 C 0.24413 0.15686 0.69397 0.0
C3631 C 0.2405 0.12833 0.69454 0.0
C3632 C 0.25327 0.11729 0.70313 0.0
H3633 H 0.1656 1.00163 0.65211 0.0
H3634 H 0.19058 1.02586 0.66504 0.0
C3635 C 0.26733 0.13331 0.71049 0.0
C3636 C 0.2245 0.11138 0.68617 0.0
H3637 H 0.18557 0.05396 0.68112 0.0
C3638 C 0.22312 0.12064 0.67626 0.0
C3639 C 0.2098 0.08648 0.68752 0.0
C3640 C 0.20714 0.07424 0.69754 0.0
C3641 C 0.20895 0.10699 0.66832 0.0
C3642 C 0.19439 0.08217 0.66969 0.0
C3643 C 0.19602 0.07258 0.67952 0.0
C3644 C 0.17788 0.06631 0.66126 0.0
C3645 C 0.2107 0.11944 0.65831 0.0
C3646 C 0.1607 0.07919 0.65426 0.0
C3647 C 0.14607 0.06494 0.64665 0.0
C3648 C 0.14705 0.03641 0.64532 0.0
C3649 C 0.16378 1.02335 0.65241 0.0
C3650 C 0.1784 0.03763 0.66006 0.0
H3651 H 0.22887 0.13232 0.65758 0.0
H3652 H 0.21128 0.10383 0.65249 0.0
H3653 H 0.19281 0.13246 0.65711 0.0
H3654 H 0.15794 0.10075 0.65471 0.0
H3655 H 0.13357 0.07666 0.64174 0.0
H3656 H 0.10848 1.01826 0.94767 0.0
H3657 H 0.13504 0.99345 0.93567 0.0
H3658 H 0.20194 0.99249 0.9557 0.0
H3659 H 0.17448 1.01616 0.96797 0.0
H3660 H 0.16938 0.99237 0.92374 0.0
H3661 H 0.22281 0.92246 0.94817 0.0
H3662 H 0.19586 0.94336 0.9526 0.0
H3663 H 0.22957 0.95676 0.9514 0.0
C3664 C 0.12873 1.01248 0.94975 0.0
C3665 C 0.13813 1.01958 0.95931 0.0
C3666 C 0.14455 0.99798 0.9426 0.0
C3667 C 0.17157 0.98917 0.94423 0.0
C3668 C 0.18132 0.99689 0.95376 0.0
H3669 H 0.26437 0.86329 0.90799 0.0
H3670 H 0.23938 0.88972 0.91998 0.0
C3671 C 0.16525 1.01122 0.96102 0.0
C3672 C 0.1886 0.97302 0.93598 0.0
H3673 H 0.23811 0.92405 0.93194 0.0
C3674 C 0.1842 0.97735 0.92575 0.0
C3675 C 0.20852 0.9524 0.93778 0.0
C3676 C 0.21436 0.94319 0.94806 0.0
C3677 C 0.19791 0.96295 0.91789 0.0
C3678 C 0.21865 0.94314 0.9197 0.0
C3679 C 0.223 0.93877 0.92992 0.0
C3680 C 0.23489 0.9262 0.91145 0.0
C3681 C 0.18867 0.96873 0.90761 0.0
C3682 C 0.24255 0.93594 0.90193 0.0
C3683 C 0.25698 0.91993 0.89468 0.0
C3684 C 0.26553 0.89289 0.89638 0.0
C3685 C 0.25848 0.88349 0.90592 0.0
C3686 C 0.24387 0.89924 0.91306 0.0
H3687 H 0.16791 0.97709 0.90748 0.0
H3688 H 0.20218 0.98399 0.90431 0.0
H3689 H 0.18893 0.95024 0.90304 0.0
H3690 H 0.23801 0.95652 0.90001 0.0
H3691 H 0.26185 0.92916 0.88774 0.0
H3692 H 0.25491 0.90058 0.19972 0.0
H3693 H 0.27937 0.92541 0.18692 0.0
H3694 H 0.35389 0.90961 0.20193 0.0
H3695 H 0.32967 0.88366 0.21426 0.0
H3696 H 0.30433 0.96485 0.18142 0.0
H3697 H 0.39185 0.89747 0.17865 0.0
H3698 H 0.36296 0.88827 0.18579 0.0
H3699 H 0.38874 0.91005 0.19085 0.0
C3700 C 0.27662 0.90194 0.20033 0.0
C3701 C 0.28953 0.889 0.20841 0.0
C3702 C 0.2911 0.91665 0.19279 0.0
C3703 C 0.31983 0.9198 0.19262 0.0
C3704 C 0.33244 0.90744 0.20093 0.0
H3705 H 0.44628 1.00807 0.15559 0.0
H3706 H 0.4198 0.98325 0.16763 0.0
C3707 C 0.31806 0.89248 0.20836 0.0
C3708 C 0.33586 0.93601 0.18415 0.0
H3709 H 0.39627 0.9396 0.17099 0.0
C3710 C 0.32438 0.95872 0.17922 0.0
C3711 C 0.36254 0.92961 0.1806 0.0
C3712 C 0.37716 0.9049 0.18416 0.0
C3713 C 0.33792 0.97445 0.17167 0.0
C3714 C 0.36475 0.96828 0.16829 0.0
C3715 C 0.37617 0.94561 0.17318 0.0
C3716 C 0.38144 0.98475 0.16011 0.0
C3717 C 0.32314 0.99847 0.16762 0.0
C3718 C 0.37062 0.99502 0.15109 0.0
C3719 C 0.38646 1.00959 0.14385 0.0
C3720 C 0.41452 1.01516 0.14501 0.0
C3721 C 0.42518 1.00479 0.15397 0.0
C3722 C 0.40954 0.99012 0.16111 0.0
H3723 H 0.30723 1.00565 0.1727 0.0
H3724 H 0.33714 1.01539 0.16615 0.0
H3725 H 0.31317 0.99264 0.16066 0.0
H3726 H 0.34962 0.99149 0.14943 0.0
H3727 H 0.37639 1.01677 0.13732 0.0
H3728 H 0.79638 0.91436 0.70408 0.0
H3729 H 0.77149 0.93924 0.69136 0.0
H3730 H 0.69702 0.90834 0.70275 0.0
H3731 H 0.72197 0.88271 0.71504 0.0
H3732 H 0.74195 0.97634 0.68661 0.0
H3733 H 0.66869 0.89764 0.67738 0.0
H3734 H 0.66604 0.90605 0.69007 0.0
H3735 H 0.6966 0.89087 0.6854 0.0
C3736 C 0.77466 0.91246 0.7039 0.0
C3737 C 0.76202 0.89553 0.71098 0.0
C3738 C 0.75993 0.92717 0.69642 0.0
C3739 C 0.73122 0.9262 0.69528 0.0
C3740 C 0.71872 0.90968 0.70256 0.0
H3741 H 0.62758 0.98074 0.64256 0.0
H3742 H 0.65353 0.95662 0.65511 0.0
C3743 C 0.73342 0.89485 0.70997 0.0
C3744 C 0.71496 0.94249 0.68689 0.0
H3745 H 0.65847 0.94118 0.67153 0.0
C3746 C 0.72376 0.96812 0.6834 0.0
C3747 C 0.69095 0.93321 0.68194 0.0
C3748 C 0.68015 0.90535 0.68379 0.0
C3749 C 0.71018 0.98378 0.67583 0.0
C3750 C 0.68529 0.97517 0.67129 0.0
C3751 C 0.67677 0.94935 0.67467 0.0
C3752 C 0.66856 0.99147 0.66302 0.0
C3753 C 0.72395 1.00921 0.67254 0.0
C3754 C 0.6663 1.02027 0.66251 0.0
C3755 C 0.65129 0.03448 0.655 0.0
C3756 C 0.63665 1.02127 0.64738 0.0
C3757 C 0.63828 0.9926 0.64797 0.0
C3758 C 0.65349 0.97839 0.65542 0.0
H3759 H 0.74596 1.00851 0.67402 0.0
H3760 H 0.72102 1.01266 0.6646 0.0
H3761 H 0.71562 1.02655 0.67668 0.0
H3762 H 0.67573 0.03239 0.66811 0.0
H3763 H 0.65095 0.05627 0.65527 0.0
H3764 H 0.90321 0.05168 0.45057 0.0
H3765 H 0.87757 1.02703 0.43792 0.0
H3766 H 0.90233 0.95205 0.45075 0.0
H3767 H 0.92731 0.97665 0.46343 0.0
H3768 H 0.88171 0.99562 0.42278 0.0
H3769 H 0.82948 0.92594 0.4475 0.0
H3770 H 0.8489 0.95381 0.45215 0.0
H3771 H 0.86532 0.92291 0.44854 0.0
C3772 C 0.90315 0.02989 0.45086 0.0
C3773 C 0.91789 1.01697 0.45853 0.0
C3774 C 0.88814 1.01535 0.4434 0.0
C3775 C 0.88626 0.98659 0.44297 0.0
C3776 C 0.90145 0.97379 0.45058 0.0
H3777 H 0.79825 0.85862 0.40629 0.0
H3778 H 0.82377 0.88539 0.41803 0.0
C3779 C 0.91646 0.98829 0.45802 0.0
C3780 C 0.86936 0.97052 0.43472 0.0
H3781 H 0.82585 0.91631 0.4307 0.0
C3782 C 0.86956 0.97829 0.42467 0.0
C3783 C 0.85262 0.94733 0.43648 0.0
C3784 C 0.84876 0.93709 0.44674 0.0
C3785 C 0.85547 0.96406 0.41683 0.0
C3786 C 0.83862 0.94078 0.41857 0.0
C3787 C 0.83819 0.93337 0.42868 0.0
C3788 C 0.82219 0.9236 0.41039 0.0
C3789 C 0.8601 0.97407 0.40658 0.0
C3790 C 0.81102 0.93401 0.40141 0.0
C3791 C 0.79651 0.91775 0.39424 0.0
C3792 C 0.79116 0.88975 0.39552 0.0
C3793 C 0.8016 0.87961 0.40454 0.0
C3794 C 0.8165 0.89558 0.41156 0.0
H3795 H 0.87898 0.98597 0.40604 0.0
H3796 H 0.86142 0.9571 0.40131 0.0
H3797 H 0.84324 0.98753 0.40445 0.0
H3798 H 0.81265 0.95523 0.39988 0.0
H3799 H 0.78878 0.92757 0.38775 0.0
H3800 H 0.91719 0.07771 0.14125 0.0
H3801 H 0.89192 0.10162 0.1541 0.0
H3802 H 0.87186 1.0258 0.16729 0.0
H3803 H 0.89751 1.00207 0.15455 0.0
H3804 H 0.84488 0.111 0.16087 0.0
H3805 H 0.88537 0.05682 0.19277 0.0
H3806 H 0.89941 0.0522 0.18074 0.0
H3807 H 0.86904 0.03477 0.18423 0.0
C3808 C 0.90761 0.06578 0.14687 0.0
C3809 C 0.91036 0.03714 0.14644 0.0
C3810 C 0.89268 0.07986 0.15444 0.0
C3811 C 0.87939 0.06668 0.16239 0.0
C3812 C 0.8819 0.03794 0.16186 0.0
H3813 H 0.78264 0.1256 0.21697 0.0
H3814 H 0.80709 0.09915 0.20442 0.0
C3815 C 0.89676 1.02385 0.15426 0.0
C3816 C 0.86292 0.08273 0.17077 0.0
H3817 H 0.84921 0.08644 0.19587 0.0
C3818 C 0.8463 0.10533 0.1685 0.0
C3819 C 0.8631 0.07662 0.18109 0.0
C3820 C 0.88033 0.05397 0.18491 0.0
C3821 C 0.8305 0.12051 0.1756 0.0
C3822 C 0.83119 0.1149 0.18599 0.0
C3823 C 0.84772 0.09214 0.18825 0.0
C3824 C 0.81546 0.13191 0.19435 0.0
C3825 C 0.81198 0.14183 0.17155 0.0
C3826 C 0.81118 0.16033 0.19387 0.0
C3827 C 0.79652 0.1756 0.20112 0.0
C3828 C 0.78544 0.1644 0.20984 0.0
C3829 C 0.79039 0.13611 0.21065 0.0
C3830 C 0.80477 0.12056 0.20322 0.0
H3831 H 0.80604 0.13723 0.16388 0.0
H3832 H 0.79331 0.14375 0.17594 0.0
H3833 H 0.8227 0.16143 0.17145 0.0
H3834 H 0.81957 0.17151 0.18784 0.0
H3835 H 0.79402 0.19696 0.19982 0.0
H3836 H 0.66204 1.00079 0.95092 0.0
H3837 H 0.68733 1.02541 0.93823 0.0
H3838 H 0.66075 0.10045 0.9506 0.0
H3839 H 0.63609 0.07593 0.9633 0.0
H3840 H 0.68252 0.05617 0.92292 0.0
H3841 H 0.73329 0.12774 0.94752 0.0
H3842 H 0.71431 0.09972 0.95221 0.0
H3843 H 0.69739 0.13018 0.94845 0.0
C3844 C 0.66164 1.02259 0.95111 0.0
C3845 C 0.64652 0.03557 0.95866 0.0
C3846 C 0.67643 0.0371 0.94361 0.0
C3847 C 0.67769 0.06589 0.94306 0.0
C3848 C 0.6621 0.07873 0.95054 0.0
H3849 H 0.76381 0.19387 0.90611 0.0
H3850 H 0.73853 0.16722 0.91788 0.0
C3851 C 0.6473 0.06426 0.95799 0.0
C3852 C 0.69436 0.08194 0.93479 0.0
H3853 H 0.73691 0.13677 0.93069 0.0
C3854 C 0.69436 0.07379 0.92477 0.0
C3855 C 0.71065 0.1055 0.93651 0.0
C3856 C 0.71422 0.11622 0.94675 0.0
C3857 C 0.70824 0.08797 0.91691 0.0
C3858 C 0.72468 0.11159 0.91862 0.0
C3859 C 0.72489 0.11941 0.9287 0.0
C3860 C 0.7409 0.12869 0.91042 0.0
C3861 C 0.70383 0.07751 0.9067 0.0
C3862 C 0.75237 0.11806 0.90153 0.0
C3863 C 0.76673 0.13422 0.89433 0.0
C3864 C 0.7716 0.16236 0.89551 0.0
C3865 C 0.76084 0.17275 0.90444 0.0
C3866 C 0.74609 0.15686 0.91148 0.0
H3867 H 0.68512 0.06531 0.90615 0.0
H3868 H 0.70232 0.09425 0.90136 0.0
H3869 H 0.7209 0.06419 0.90466 0.0
H3870 H 0.75113 0.09674 0.90009 0.0
H3871 H 0.77474 0.12423 0.88792 0.0
H3872 H 0.79289 0.69442 0.90625 0.0
H3873 H 0.81746 0.66786 0.91839 0.0
H3874 H 0.80228 0.59616 0.90163 0.0
H3875 H 0.77744 0.62308 0.88937 0.0
H3876 H 0.86008 0.64138 0.92149 0.0
H3877 H 0.78646 0.5596 0.92629 0.0
H3878 H 0.79799 0.56223 0.9139 0.0
H3879 H 0.77864 0.58924 0.91922 0.0
C3880 C 0.79463 0.67297 0.90496 0.0
C3881 C 0.78252 0.66192 0.89635 0.0
C3882 C 0.80913 0.6573 0.91215 0.0
C3883 C 0.81244 0.62882 0.91159 0.0
C3884 C 0.80042 0.61757 0.90291 0.0
H3885 H 0.87084 0.5312 0.9659 0.0
H3886 H 0.84409 0.55574 0.95341 0.0
C3887 C 0.78611 0.63344 0.89559 0.0
C3888 C 0.82855 0.61206 0.91984 0.0
H3889 H 0.82855 0.55374 0.93424 0.0
C3890 C 0.85274 0.6222 0.92414 0.0
C3891 C 0.82029 0.58668 0.92398 0.0
C3892 C 0.79432 0.57382 0.92071 0.0
C3893 C 0.86812 0.6086 0.93174 0.0
C3894 C 0.86034 0.58287 0.93569 0.0
C3895 C 0.83583 0.57291 0.93156 0.0
C3896 C 0.87719 0.56659 0.94386 0.0
C3897 C 0.89258 0.62292 0.9357 0.0
C3898 C 0.90562 0.56271 0.9433 0.0
C3899 C 0.92112 0.54832 0.95055 0.0
C3900 C 0.90992 0.5365 0.95915 0.0
C3901 C 0.88137 0.54 0.95976 0.0
C3902 C 0.86565 0.55424 0.95237 0.0
H3903 H 0.89107 0.64505 0.93463 0.0
H3904 H 0.89544 0.61891 0.94362 0.0
H3905 H 0.91069 0.61583 0.93171 0.0
H3906 H 0.91627 0.57045 0.93701 0.0
H3907 H 0.94257 0.54633 0.9493 0.0
H3908 H 0.67237 0.54975 0.13672 0.0
H3909 H 0.69923 0.57481 0.14907 0.0
H3910 H 0.64813 0.54441 0.17182 0.0
H3911 H 0.62191 0.5196 0.1597 0.0
H3912 H 0.69586 0.6152 0.16198 0.0
H3913 H 0.71264 0.53081 0.18724 0.0
H3914 H 0.69829 0.52559 0.17527 0.0
H3915 H 0.67749 0.53694 0.18527 0.0
C3916 C 0.66674 0.54803 0.14434 0.0
C3917 C 0.64405 0.53169 0.14679 0.0
C3918 C 0.68247 0.56281 0.15162 0.0
C3919 C 0.67722 0.56205 0.16195 0.0
C3920 C 0.65449 0.54576 0.16428 0.0
H3921 H 0.75274 0.63327 0.21887 0.0
H3922 H 0.727 0.60748 0.20646 0.0
C3923 C 0.63878 0.53134 0.15707 0.0
C3924 C 0.69435 0.57831 0.17008 0.0
H3925 H 0.72384 0.57405 0.19333 0.0
C3926 C 0.70195 0.60573 0.16877 0.0
C3927 C 0.70305 0.56764 0.17939 0.0
C3928 C 0.69771 0.53859 0.18188 0.0
C3929 C 0.71614 0.62198 0.17603 0.0
C3930 C 0.72537 0.61124 0.1853 0.0
C3931 C 0.71779 0.58369 0.18657 0.0
C3932 C 0.74231 0.62768 0.19352 0.0
C3933 C 0.71955 0.65139 0.17365 0.0
C3934 C 0.76142 0.64825 0.19126 0.0
C3935 C 0.77591 0.66366 0.19853 0.0
C3936 C 0.77372 0.65957 0.20883 0.0
C3937 C 0.75565 0.63818 0.21124 0.0
C3938 C 0.74055 0.62298 0.20389 0.0
H3939 H 0.70378 0.65846 0.16848 0.0
H3940 H 0.71845 0.66412 0.18032 0.0
H3941 H 0.73929 0.65441 0.17002 0.0
H3942 H 0.76595 0.65254 0.18371 0.0
H3943 H 0.78955 0.67905 0.19592 0.0
H3944 H 0.75456 0.36413 0.40593 0.0
H3945 H 0.72995 0.39077 0.41806 0.0
H3946 H 0.74731 0.46272 0.40186 0.0
H3947 H 0.77207 0.43572 0.3896 0.0
H3948 H 0.68754 0.41826 0.42096 0.0
H3949 H 0.76305 0.49777 0.42697 0.0
H3950 H 0.75213 0.49594 0.41448 0.0
H3951 H 0.77044 0.46821 0.41978 0.0
C3952 C 0.75325 0.38565 0.40476 0.0
C3953 C 0.76592 0.39674 0.39629 0.0
C3954 C 0.73876 0.40137 0.41194 0.0
C3955 C 0.73604 0.42994 0.41154 0.0
C3956 C 0.74865 0.44123 0.40302 0.0
H3957 H 0.67728 0.52698 0.46608 0.0
H3958 H 0.70406 0.50236 0.45362 0.0
C3959 C 0.76291 0.42531 0.39569 0.0
C3960 C 0.71993 0.44676 0.41979 0.0
H3961 H 0.72073 0.50442 0.43464 0.0
C3962 C 0.69524 0.43712 0.42381 0.0
C3963 C 0.72863 0.47173 0.4242 0.0
C3964 C 0.75511 0.484 0.42124 0.0
C3965 C 0.67981 0.4508 0.43139 0.0
C3966 C 0.68805 0.47614 0.43561 0.0
C3967 C 0.71306 0.48558 0.43175 0.0
C3968 C 0.67118 0.49252 0.44377 0.0
C3969 C 0.65477 0.43696 0.43502 0.0
C3970 C 0.64286 0.49703 0.44304 0.0
C3971 C 0.62733 0.51146 0.45028 0.0
C3972 C 0.63838 0.52274 0.45904 0.0
C3973 C 0.66683 0.51865 0.45981 0.0
C3974 C 0.68259 0.50434 0.45243 0.0
H3975 H 0.65575 0.41485 0.4338 0.0
H3976 H 0.65156 0.4407 0.44294 0.0
H3977 H 0.63709 0.4447 0.43091 0.0
H3978 H 0.6323 0.48977 0.43663 0.0
H3979 H 0.60598 0.51392 0.4489 0.0
H3980 H 0.79706 0.35916 0.69892 0.0
H3981 H 0.82202 0.38573 0.68704 0.0
H3982 H 0.80669 0.45697 0.70412 0.0
H3983 H 0.78351 0.42963 0.71642 0.0
H3984 H 0.82408 0.41491 0.67397 0.0
H3985 H 0.87097 0.49113 0.69792 0.0
H3986 H 0.85499 0.46184 0.70297 0.0
H3987 H 0.8351 0.49056 0.69914 0.0
C3988 C 0.79938 0.38046 0.70041 0.0
C3989 C 0.788 0.39108 0.70921 0.0
C3990 C 0.81394 0.39632 0.6933 0.0
C3991 C 0.8183 0.42471 0.69411 0.0
C3992 C 0.80617 0.43554 0.70286 0.0
H3993 H 0.89438 0.55181 0.65237 0.0
H3994 H 0.86934 0.52753 0.66521 0.0
C3995 C 0.79204 0.41944 0.71014 0.0
C3996 C 0.83436 0.44174 0.68581 0.0
H3997 H 0.87436 0.49856 0.68108 0.0
C3998 C 0.83519 0.43295 0.67583 0.0
C3999 C 0.84965 0.46625 0.68731 0.0
C4000 C 0.85293 0.47795 0.69741 0.0
C4001 C 0.84937 0.44668 0.66795 0.0
C4002 C 0.86451 0.47111 0.66946 0.0
C4003 C 0.86344 0.48025 0.67937 0.0
C4004 C 0.88107 0.487 0.6611 0.0
C4005 C 0.84701 0.43477 0.65784 0.0
C4006 C 0.89772 0.47409 0.65394 0.0
C4007 C 0.91239 0.48836 0.64639 0.0
C4008 C 0.91198 0.51696 0.64528 0.0
C4009 C 0.89577 0.53005 0.65251 0.0
C4010 C 0.88111 0.51573 0.6601 0.0
H4011 H 0.82855 0.4223 0.65707 0.0
H4012 H 0.84653 0.45068 0.65215 0.0
H4013 H 0.86458 0.42146 0.65648 0.0
H4014 H 0.90004 0.45246 0.65422 0.0
H4015 H 0.92445 0.47662 0.64135 0.0
H4016 H 0.30134 0.41394 0.20285 0.0
H4017 H 0.27688 0.43825 0.18989 0.0
H4018 H 0.20182 0.41106 0.202 0.0
H4019 H 0.22632 0.38582 0.21451 0.0
H4020 H 0.24884 0.47541 0.18454 0.0
H4021 H 0.17148 0.39926 0.17711 0.0
H4022 H 0.16995 0.40927 0.18967 0.0
H4023 H 0.1995 0.39211 0.18503 0.0
C4024 C 0.27956 0.41272 0.20278 0.0
C4025 C 0.26663 0.39693 0.21013 0.0
C4026 C 0.26508 0.42711 0.19515 0.0
C4027 C 0.23631 0.42698 0.19414 0.0
C4028 C 0.22353 0.41163 0.20169 0.0
H4029 H 0.13159 0.47937 0.14141 0.0
H4030 H 0.15712 0.45584 0.1542 0.0
C4031 C 0.23799 0.39707 0.20924 0.0
C4032 C 0.22034 0.44295 0.18558 0.0
H4033 H 0.16296 0.44245 0.17066 0.0
C4034 C 0.23012 0.46766 0.18159 0.0
C4035 C 0.19564 0.43423 0.18095 0.0
C4036 C 0.18365 0.40716 0.18331 0.0
C4037 C 0.21691 0.48293 0.17383 0.0
C4038 C 0.19138 0.47499 0.1696 0.0
C4039 C 0.18182 0.45011 0.17351 0.0
C4040 C 0.17496 0.49093 0.16114 0.0
C4041 C 0.23175 0.50716 0.17001 0.0
C4042 C 0.17442 0.51967 0.15999 0.0
C4043 C 0.15969 0.53349 0.15231 0.0
C4044 C 0.14362 0.51997 0.14516 0.0
C4045 C 0.14349 0.49142 0.14641 0.0
C4046 C 0.15846 0.47758 0.15402 0.0
H4047 H 0.25377 0.50559 0.17139 0.0
H4048 H 0.22866 0.50962 0.16202 0.0
H4049 H 0.22446 0.52545 0.17386 0.0
H4050 H 0.18499 0.53213 0.16521 0.0
H4051 H 0.16071 0.55526 0.15208 0.0
H4052 H 0.44879 0.50997 0.94954 0.0
H4053 H 0.42203 0.48551 0.9374 0.0
H4054 H 0.35163 0.49562 0.95527 0.0
H4055 H 0.37874 0.52039 0.96752 0.0
H4056 H 0.39707 0.4416 0.93438 0.0
H4057 H 0.31123 0.51148 0.9314 0.0
H4058 H 0.34121 0.52026 0.93816 0.0
H4059 H 0.31602 0.49885 0.94355 0.0
C4060 C 0.42759 0.50712 0.95108 0.0
C4061 C 0.41697 0.51778 0.95999 0.0
C4062 C 0.41181 0.4927 0.94389 0.0
C4063 C 0.38359 0.488 0.94477 0.0
C4064 C 0.37277 0.4986 0.95374 0.0
H4065 H 0.2562 0.40875 0.904 0.0
H4066 H 0.28084 0.43297 0.91696 0.0
C4067 C 0.38878 0.51286 0.96105 0.0
C4068 C 0.36675 0.47184 0.93654 0.0
H4069 H 0.30728 0.47056 0.92275 0.0
C4070 C 0.37745 0.44838 0.93193 0.0
C4071 C 0.3405 0.47905 0.93284 0.0
C4072 C 0.32656 0.50388 0.93665 0.0
C4073 C 0.3636 0.43256 0.92448 0.0
C4074 C 0.33757 0.44006 0.92056 0.0
C4075 C 0.32682 0.46359 0.92521 0.0
C4076 C 0.32143 0.42417 0.91199 0.0
C4077 C 0.3772 0.40686 0.92132 0.0
C4078 C 0.33408 0.41021 0.90403 0.0
C4079 C 0.31955 0.3955 0.89653 0.0
C4080 C 0.29089 0.39403 0.89603 0.0
C4081 C 0.27801 0.4086 0.90375 0.0
C4082 C 0.2926 0.42295 0.91138 0.0
H4083 H 0.391 0.39913 0.92708 0.0
H4084 H 0.3623 0.39085 0.91965 0.0
H4085 H 0.38962 0.41087 0.91475 0.0
H4086 H 0.35571 0.41087 0.90334 0.0
H4087 H 0.33116 0.38531 0.89094 0.0
H4088 H 0.41658 0.58033 0.64113 0.0
H4089 H 0.39135 0.60428 0.65398 0.0
H4090 H 0.36756 0.52838 0.66627 0.0
H4091 H 0.39314 0.50457 0.65352 0.0
H4092 H 0.34378 0.61452 0.66031 0.0
H4093 H 0.38097 0.55758 0.69211 0.0
H4094 H 0.39556 0.55324 0.68015 0.0
H4095 H 0.36453 0.5365 0.68329 0.0
C4096 C 0.40615 0.56839 0.64654 0.0
C4097 C 0.40778 0.53971 0.64586 0.0
C4098 C 0.39126 0.58248 0.65412 0.0
C4099 C 0.37694 0.56925 0.6618 0.0
C4100 C 0.3784 0.54048 0.66103 0.0
H4101 H 0.27951 0.6279 0.71616 0.0
H4102 H 0.30393 0.60155 0.70359 0.0
C4103 C 0.3932 0.52637 0.65343 0.0
C4104 C 0.36049 0.58531 0.67016 0.0
H4105 H 0.34558 0.58815 0.69517 0.0
C4106 C 0.34462 0.60845 0.66792 0.0
C4107 C 0.35995 0.57867 0.68043 0.0
C4108 C 0.37631 0.55533 0.6842 0.0
C4109 C 0.32883 0.62368 0.675 0.0
C4110 C 0.32883 0.61756 0.68535 0.0
C4111 C 0.34464 0.59427 0.68758 0.0
C4112 C 0.3131 0.63454 0.69372 0.0
C4113 C 0.31107 0.64562 0.67094 0.0
C4114 C 0.30925 0.66304 0.69335 0.0
C4115 C 0.29455 0.67825 0.7006 0.0
C4116 C 0.28307 0.66689 0.70921 0.0
C4117 C 0.2876 0.63851 0.70992 0.0
C4118 C 0.30197 0.62303 0.70248 0.0
H4119 H 0.30547 0.64153 0.66321 0.0
H4120 H 0.2922 0.64777 0.67521 0.0
H4121 H 0.32226 0.66496 0.67105 0.0
H4122 H 0.31803 0.67433 0.68743 0.0
H4123 H 0.29235 0.69969 0.6994 0.0
H4124 H 0.16036 0.50156 0.45125 0.0
H4125 H 0.18549 0.52611 0.4385 0.0
H4126 H 0.16268 0.60116 0.4518 0.0
H4127 H 0.13815 0.57667 0.46455 0.0
H4128 H 0.18122 0.55778 0.42347 0.0
H4129 H 0.23542 0.62686 0.44803 0.0
H4130 H 0.21601 0.59916 0.45273 0.0
H4131 H 0.19967 0.63021 0.44928 0.0
C4132 C 0.16076 0.52334 0.45164 0.0
C4133 C 0.14667 0.53625 0.45948 0.0
C4134 C 0.17548 0.53784 0.4441 0.0
C4135 C 0.17779 0.56661 0.44375 0.0
C4136 C 0.16325 0.57942 0.45153 0.0
H4137 H 0.26543 0.69393 0.40661 0.0
H4138 H 0.24023 0.66753 0.4185 0.0
C4139 C 0.14849 0.56496 0.45903 0.0
C4140 C 0.19443 0.58264 0.43541 0.0
H4141 H 0.23825 0.63653 0.43123 0.0
C4142 C 0.19364 0.57498 0.42533 0.0
C4143 C 0.21149 0.6057 0.4371 0.0
C4144 C 0.216 0.61588 0.44736 0.0
C4145 C 0.2075 0.58912 0.41744 0.0
C4146 C 0.22471 0.61222 0.41912 0.0
C4147 C 0.22567 0.61958 0.42925 0.0
C4148 C 0.24099 0.62921 0.41086 0.0
C4149 C 0.20221 0.57923 0.4072 0.0
C4150 C 0.25165 0.61862 0.40182 0.0
C4151 C 0.26604 0.63464 0.39458 0.0
C4152 C 0.27175 0.66262 0.39581 0.0
C4153 C 0.26181 0.67295 0.40489 0.0
C4154 C 0.24708 0.65719 0.41199 0.0
H4155 H 0.18313 0.5676 0.40673 0.0
H4156 H 0.20088 0.59624 0.40197 0.0
H4157 H 0.21877 0.56554 0.40495 0.0
H4158 H 0.2497 0.5974 0.4003 0.0
H4159 H 0.27333 0.62465 0.38806 0.0
H4160 H 0.19416 0.06511 0.33102 0.0
H4161 H 0.20604 1.02288 0.32285 0.0
H4162 H 0.2899 0.03599 0.3298 0.0
H4163 H 0.27819 0.07811 0.33806 0.0
H4164 H 0.27767 1.02332 0.31004 0.0
H4165 H 0.23059 0.95196 0.33605 0.0
H4166 H 0.20864 0.97875 0.33225 0.0
H4167 H 0.23838 0.98645 0.33926 0.0
C4168 C 0.2151 0.05898 0.33073 0.0
C4169 C 0.23532 0.07472 0.33505 0.0
C4170 C 0.22179 0.03487 0.32622 0.0
C4171 C 0.24868 1.02631 0.32605 0.0
C4172 C 0.26902 0.04235 0.33006 0.0
H4173 H 0.29304 0.9022 0.28443 0.0
H4174 H 0.29906 0.92549 0.3001 0.0
C4175 C 0.26236 0.06647 0.33459 0.0
C4176 C 0.25559 1.00149 0.32097 0.0
H4177 H 0.23902 0.93517 0.31977 0.0
C4178 C 0.27004 1.00378 0.31226 0.0
C4179 C 0.2453 0.9764 0.324 0.0
C4180 C 0.23005 0.97316 0.33346 0.0
C4181 C 0.27247 0.98184 0.30596 0.0
C4182 C 0.26092 0.95695 0.30875 0.0
C4183 C 0.24818 0.95425 0.31781 0.0
C4184 C 0.25689 0.93571 0.30153 0.0
C4185 C 0.28504 0.98617 0.29602 0.0
C4186 C 0.23092 0.93223 0.29772 0.0
C4187 C 0.22744 0.919 0.28888 0.0
C4188 C 0.24999 0.90936 0.28381 0.0
C4189 C 0.27551 0.90984 0.28825 0.0
C4190 C 0.27896 0.92303 0.29714 0.0
H4191 H 0.28995 1.00767 0.29466 0.0
H4192 H 0.30396 0.97434 0.29549 0.0
H4193 H 0.27122 0.97915 0.29015 0.0
H4194 H 0.21373 0.94208 0.30106 0.0
H4195 H 0.20761 0.91901 0.28554 0.0
H4196 H 0.18717 0.88144 0.58153 0.0
H4197 H 0.21038 0.85733 0.56832 0.0
H4198 H 0.23547 0.93331 0.55605 0.0
H4199 H 0.21173 0.9574 0.56898 0.0
H4200 H 0.21791 0.89413 0.54224 0.0
H4201 H 0.29442 0.85646 0.56889 0.0
H4202 H 0.2594 0.84913 0.57105 0.0
H4203 H 0.27128 0.88315 0.57197 0.0
C4204 C 0.19704 0.8929 0.57584 0.0
C4205 C 0.19797 0.92119 0.57623 0.0
C4206 C 0.21039 0.87915 0.5684 0.0
C4207 C 0.22469 0.89365 0.56135 0.0
C4208 C 0.2244 0.92188 0.56146 0.0
H4209 H 0.35614 0.9201 0.53217 0.0
H4210 H 0.32347 0.90393 0.54396 0.0
C4211 C 0.21106 0.93558 0.56885 0.0
C4212 C 0.24206 0.88009 0.55425 0.0
H4213 H 0.30595 0.85577 0.55236 0.0
C4214 C 0.23683 0.8848 0.54434 0.0
C4215 C 0.26667 0.86832 0.5572 0.0
C4216 C 0.27352 0.86398 0.56785 0.0
C4217 C 0.25689 0.88091 0.53734 0.0
C4218 C 0.2822 0.8707 0.54037 0.0
C4219 C 0.28632 0.8632 0.55013 0.0
C4220 C 0.30603 0.87422 0.5342 0.0
C4221 C 0.25186 0.89079 0.52705 0.0
C4222 C 0.30791 0.86171 0.52504 0.0
C4223 C 0.32657 0.87105 0.51825 0.0
C4224 C 0.34351 0.89274 0.52065 0.0
C4225 C 0.34351 0.90314 0.53019 0.0
C4226 C 0.3248 0.89397 0.53692 0.0
H4227 H 0.23199 0.90092 0.52627 0.0
H4228 H 0.26778 0.90527 0.52485 0.0
H4229 H 0.25242 0.87353 0.5219 0.0
H4230 H 0.2937 0.84622 0.52291 0.0
H4231 H 0.32646 0.86268 0.51092 0.0
H4232 H 0.36719 0.10526 0.7869 0.0
H4233 H 0.38822 0.07921 0.79984 0.0
H4234 H 0.46008 0.07023 0.78236 0.0
H4235 H 0.43835 0.09527 0.76908 0.0
H4236 H 0.44183 1.02322 0.78835 0.0
H4237 H 0.444 0.09094 0.82023 0.0
H4238 H 0.41118 0.09222 0.81482 0.0
H4239 H 0.43999 0.1035 0.80791 0.0
C4240 C 0.38766 0.09815 0.7859 0.0
C4241 C 0.40118 0.10201 0.77703 0.0
C4242 C 0.39984 0.08367 0.79335 0.0
C4243 C 0.42597 0.07342 0.79213 0.0
C4244 C 0.44008 0.07843 0.78346 0.0
H4245 H 0.44005 0.973 0.84343 0.0
H4246 H 0.46001 1.00158 0.83077 0.0
C4247 C 0.42774 0.09276 0.77593 0.0
C4248 C 0.43627 0.05407 0.79932 0.0
H4249 H 0.43403 0.04296 0.82379 0.0
C4250 C 0.44127 1.02767 0.79612 0.0
C4251 C 0.43599 0.05998 0.80942 0.0
C4252 C 0.43278 0.08832 0.81325 0.0
C4253 C 0.44274 1.00645 0.80279 0.0
C4254 C 0.43861 1.01195 0.81281 0.0
C4255 C 0.43688 0.03871 0.81607 0.0
C4256 C 0.43081 0.99065 0.81968 0.0
C4257 C 0.44685 0.97822 0.79897 0.0
C4258 C 0.40813 0.97483 0.81752 0.0
C4259 C 0.39696 0.95846 0.82466 0.0
C4260 C 0.40798 0.95812 0.8341 0.0
C4261 C 0.43135 0.97299 0.83615 0.0
C4262 C 0.44275 0.98918 0.82896 0.0
H4263 H 0.46058 0.97827 0.79256 0.0
H4264 H 0.4553 0.96469 0.80466 0.0
H4265 H 0.42723 0.96997 0.79647 0.0
H4266 H 0.39792 0.97649 0.81054 0.0
H4267 H 0.37856 0.94763 0.82299 0.0
H4268 H 0.22723 0.19298 1.01067 0.0
H4269 H 0.26007 0.20971 1.02266 0.0
H4270 H 0.23488 0.14819 1.04295 0.0
H4271 H 0.2021 0.13174 1.03114 0.0
H4272 H 0.2465 0.19705 1.05184 0.0
H4273 H 0.3271 0.16221 1.02637 0.0
H4274 H 0.30423 0.18751 1.02193 0.0
H4275 H 0.29211 0.15418 1.02445 0.0
C4276 C 0.22832 0.18362 1.01781 0.0
C4277 C 0.21231 0.16114 1.02003 0.0
C4278 C 0.24702 0.1931 1.02459 0.0
C4279 C 0.24994 0.17995 1.03358 0.0
C4280 C 0.23268 0.15869 1.03605 0.0
H4281 H 0.35228 0.10718 0.06836 0.0
H4282 H 0.32808 0.12942 0.05517 0.0
C4283 C 0.21391 0.14938 1.02933 0.0
C4284 C 0.27277 0.18566 1.04006 0.0
H4285 H 0.33939 0.17084 1.04248 0.0
C4286 C 0.26706 0.1922 1.0498 0.0
C4287 C 0.29934 0.1789 1.03725 0.0
C4288 C 0.30621 0.17013 1.02696 0.0
C4289 C 0.28665 0.18928 0.05707 0.0
C4290 C 0.31283 0.18101 0.05432 0.0
C4291 C 0.31928 0.17749 1.04444 0.0
C4292 C 0.33127 0.16935 0.06154 0.0
C4293 C 0.27835 0.19203 0.06765 0.0
C4294 C 0.34168 0.18467 0.06927 0.0
C4295 C 0.35512 0.17186 0.07692 0.0
C4296 C 0.35828 0.14374 0.07679 0.0
C4297 C 0.34962 0.12884 0.06866 0.0
C4298 C 0.33606 0.14154 0.06111 0.0
H4299 H 0.25641 0.19586 0.06847 0.0
H4300 H 0.28347 0.17341 0.07174 0.0
H4301 H 0.28941 0.20902 0.07107 0.0
H4302 H 0.33834 0.20621 0.06961 0.0
H4303 H 0.36168 0.18366 0.08316 0.0
H4304 H 0.84295 0.96406 0.78592 0.0
H4305 H 0.86799 0.98801 0.79859 0.0
H4306 H 0.94299 0.96001 0.78625 0.0
H4307 H 0.91795 0.93656 0.77331 0.0
H4308 H 0.90709 0.96949 0.81235 0.0
H4309 H 0.9461 0.04411 0.7854 0.0
H4310 H 0.91854 1.0218 0.78252 0.0
H4311 H 0.95223 1.00884 0.78322 0.0
C4312 C 0.86475 0.96283 0.78598 0.0
C4313 C 0.87861 0.94878 0.77866 0.0
C4314 C 0.87898 0.9763 0.79321 0.0
C4315 C 0.90722 0.97576 0.79323 0.0
C4316 C 0.92117 0.96064 0.78624 0.0
H4317 H 0.94682 0.07614 0.84342 0.0
H4318 H 0.96035 0.04273 0.83114 0.0
C4319 C 0.90689 0.94717 0.77895 0.0
C4320 C 0.92145 0.99289 0.80024 0.0
H4321 H 0.94852 0.05567 0.80193 0.0
C4322 C 0.91705 0.98798 0.81018 0.0
C4323 C 0.934 1.01697 0.79719 0.0
C4324 C 0.93798 1.02349 0.78651 0.0
C4325 C 0.92228 1.00786 0.81715 0.0
C4326 C 0.93345 0.03263 0.81404 0.0
C4327 C 0.94039 0.03641 0.80422 0.0
C4328 C 0.93173 0.05654 0.8203 0.0
C4329 C 0.91294 1.00334 0.82753 0.0
C4330 C 0.91259 0.07624 0.81791 0.0
C4331 C 0.90504 0.09528 0.82481 0.0
C4332 C 0.91649 0.09469 0.83419 0.0
C4333 C 0.93766 0.07673 0.83623 0.0
C4334 C 0.94533 0.05771 0.82927 0.0
H4335 H 0.9019 0.98402 0.82838 0.0
H4336 H 0.9306 1.00301 0.83251 0.0
H4337 H 0.89945 1.01997 0.82989 0.0
H4338 H 0.9018 0.07545 0.81101 0.0
H4339 H 0.88844 0.10868 0.82311 0.0
H4340 H 0.67724 0.11674 0.57418 0.0
H4341 H 0.71161 0.12087 0.56164 0.0
H4342 H 0.71375 0.03435 0.55855 0.0
H4343 H 0.67833 0.03013 0.57074 0.0
H4344 H 0.75901 0.09676 0.56789 0.0
H4345 H 0.72959 0.05994 0.53099 0.0
H4346 H 0.70523 0.07109 0.53994 0.0
H4347 H 0.71981 0.03802 0.54079 0.0
C4348 C 0.68368 0.09872 0.57036 0.0
C4349 C 0.67561 0.07304 0.57348 0.0
C4350 C 0.70349 0.10112 0.56328 0.0
C4351 C 0.71516 0.07791 0.5593 0.0
C4352 C 0.70461 0.05247 0.56147 0.0
H4353 H 0.86205 0.04137 0.52991 0.0
H4354 H 0.82464 0.03822 0.54135 0.0
C4355 C 0.68453 0.05007 0.56846 0.0
C4356 C 0.74164 0.07971 0.55476 0.0
H4357 H 0.77682 0.06252 0.53443 0.0
C4358 C 0.76293 0.0896 0.56052 0.0
C4359 C 0.74647 0.06975 0.54528 0.0
C4360 C 0.72402 0.0593 0.53886 0.0
C4361 C 0.78926 0.08964 0.55701 0.0
C4362 C 0.79405 0.07977 0.54753 0.0
C4363 C 0.77282 0.0698 0.54177 0.0
C4364 C 0.82063 0.08135 0.54309 0.0
C4365 C 0.81178 0.09988 0.56346 0.0
C4366 C 0.83138 0.10665 0.54084 0.0
C4367 C 0.85297 0.10851 0.53445 0.0
C4368 C 0.8635 0.08508 0.53018 0.0
C4369 C 0.85449 0.05968 0.53325 0.0
C4370 C 0.83298 0.05784 0.53967 0.0
H4371 H 0.806 0.09986 0.5713 0.0
H4372 H 0.83026 0.08751 0.56254 0.0
H4373 H 0.81668 0.1209 0.56137 0.0
H4374 H 0.82166 0.12496 0.54334 0.0
H4375 H 0.85968 0.12824 0.53211 0.0
H4376 H 0.69238 0.9552 0.32026 0.0
H4377 H 0.66986 0.98263 0.308 0.0
H4378 H 0.5976 0.98382 0.32555 0.0
H4379 H 0.62067 0.95722 0.33815 0.0
H4380 H 0.62343 0.97728 0.29717 0.0
H4381 H 0.61903 0.06336 0.32345 0.0
H4382 H 0.63828 0.03338 0.32598 0.0
H4383 H 0.60219 0.03266 0.32678 0.0
C4384 C 0.67161 0.9611 0.32145 0.0
C4385 C 0.65831 0.95461 0.33016 0.0
C4386 C 0.6587 0.97651 0.31444 0.0
C4387 C 0.63222 0.98537 0.31598 0.0
C4388 C 0.61816 0.97732 0.32434 0.0
H4389 H 0.60849 0.09041 0.26555 0.0
H4390 H 0.59072 0.06072 0.27834 0.0
C4391 C 0.63122 0.96201 0.33145 0.0
C4392 C 0.62105 1.0052 0.30917 0.0
H4393 H 0.61385 0.07307 0.30692 0.0
C4394 C 0.6204 0.99817 0.29925 0.0
C4395 C 0.61751 0.03233 0.31206 0.0
C4396 C 0.61939 0.04109 0.32262 0.0
C4397 C 0.61956 1.01798 0.29203 0.0
C4398 C 0.61759 0.04529 0.29492 0.0
C4399 C 0.61506 0.05201 0.30483 0.0
C4400 C 0.62449 0.06695 0.28811 0.0
C4401 C 0.62398 1.00972 0.28151 0.0
C4402 C 0.6485 0.08117 0.2897 0.0
C4403 C 0.65839 0.09824 0.28255 0.0
C4404 C 0.64446 0.10112 0.27369 0.0
C4405 C 0.61952 0.08829 0.27235 0.0
C4406 C 0.60945 0.07137 0.27959 0.0
H4407 H 0.62874 0.98794 0.28077 0.0
H4408 H 0.60552 1.01394 0.27719 0.0
H4409 H 0.64081 1.02141 0.27827 0.0
H4410 H 0.66047 0.07778 0.29623 0.0
H4411 H 0.67788 0.10759 0.28367 0.0
H4412 H 0.80218 0.95507 0.08197 0.0
H4413 H 0.75965 0.96745 0.07411 0.0
H4414 H 0.76756 0.04867 0.08508 0.0
H4415 H 0.81009 0.0364 0.09301 0.0
H4416 H 0.71168 0.99184 0.08345 0.0
H4417 H 0.76134 0.05326 0.05444 0.0
H4418 H 0.77987 0.02954 0.06183 0.0
H4419 H 0.76891 0.06083 0.06704 0.0
C4420 C 0.79481 0.97554 0.08266 0.0
C4421 C 0.80934 0.99494 0.08791 0.0
C4422 C 0.7706 0.98251 0.07827 0.0
C4423 C 0.7608 1.00887 0.07911 0.0
C4424 C 0.77513 1.02828 0.08438 0.0
H4425 H 0.64692 0.04395 1.0339 0.0
H4426 H 0.66309 0.0534 1.05048 0.0
C4427 C 0.7994 1.02134 0.08877 0.0
C4428 C 0.73621 1.01605 0.07391 0.0
H4429 H 0.71592 0.0426 1.05229 0.0
C4430 C 0.71218 1.00364 0.07678 0.0
C4431 C 0.73736 0.03147 0.06528 0.0
C4432 C 0.76321 0.0445 0.06188 0.0
C4433 C 0.68951 1.00446 0.07074 0.0
C4434 C 0.69127 1.01796 0.0617 0.0
C4435 C 0.71458 0.03255 0.05931 0.0
C4436 C 0.67272 1.01182 0.05366 0.0
C4437 C 0.66465 0.98915 0.07374 0.0
C4438 C 0.67166 0.98518 1.05025 0.0
C4439 C 0.66257 0.9798 1.04086 0.0
C4440 C 0.65486 1.00108 1.03475 0.0
C4441 C 0.65309 1.02734 1.03852 0.0
C4442 C 0.66208 0.03272 1.04797 0.0
H4443 H 0.66198 0.98991 0.0818 0.0
H4444 H 0.64626 0.99723 0.07015 0.0
H4445 H 0.66703 0.96767 0.07165 0.0
H4446 H 0.68056 0.96888 0.05441 0.0
H4447 H 0.66441 0.95944 1.03806 0.0
H4448 H 0.60591 0.59219 0.8394 0.0
H4449 H 0.58786 0.5629 0.82647 0.0
H4450 H 0.6584 0.57856 0.80896 0.0
H4451 H 0.6761 0.60797 0.82165 0.0
H4452 H 0.61195 0.57471 0.79803 0.0
H4453 H 0.62462 0.48941 0.82416 0.0
H4454 H 0.60179 0.51587 0.82764 0.0
H4455 H 0.63725 0.52266 0.82675 0.0
C4456 C 0.61706 0.58986 0.83265 0.0
C4457 C 0.64231 0.60215 0.83146 0.0
C4458 C 0.60682 0.57318 0.82533 0.0
C4459 C 0.622 0.56846 0.81688 0.0
C4460 C 0.64633 0.5822 0.81543 0.0
H4461 H 0.6892 0.45573 0.78496 0.0
H4462 H 0.66666 0.48344 0.79715 0.0
C4463 C 0.65639 0.59902 0.82266 0.0
C4464 C 0.61488 0.54689 0.81001 0.0
H4465 H 0.61977 0.4788 0.80771 0.0
C4466 C 0.61277 0.55364 0.8001 0.0
C4467 C 0.61634 0.51957 0.81288 0.0
C4468 C 0.62029 0.51128 0.82341 0.0
C4469 C 0.61516 0.5339 0.79286 0.0
C4470 C 0.61822 0.50672 0.79573 0.0
C4471 C 0.61713 0.49973 0.80564 0.0
C4472 C 0.62932 0.48672 0.78896 0.0
C4473 C 0.61754 0.54261 0.78232 0.0
C4474 C 0.61541 0.47886 0.78051 0.0
C4475 C 0.62849 0.46338 0.77345 0.0
C4476 C 0.65543 0.45562 0.77488 0.0
C4477 C 0.66855 0.4619 0.78367 0.0
C4478 C 0.65563 0.47748 0.79064 0.0
H4479 H 0.61753 0.56488 0.78152 0.0
H4480 H 0.63642 0.53462 0.77907 0.0
H4481 H 0.60036 0.53442 0.77805 0.0
H4482 H 0.59499 0.48566 0.7792 0.0
H4483 H 0.61809 0.45876 0.76668 0.0
H4484 H 0.88925 0.39642 1.03215 0.0
H4485 H 0.87014 0.37602 1.04682 0.0
H4486 H 0.79209 0.37353 1.03283 0.0
H4487 H 0.81138 0.39193 1.018 0.0
H4488 H 0.83441 0.40412 0.05642 0.0
H4489 H 0.78804 0.30599 1.04797 0.0
H4490 H 0.81286 0.32113 1.04004 0.0
H4491 H 0.77775 0.3303 1.03908 0.0
C4492 C 0.86832 0.39029 1.03207 0.0
C4493 C 0.85163 0.39598 1.02403 0.0
C4494 C 0.85745 0.37872 1.04044 0.0
C4495 C 0.82983 0.37291 1.04085 0.0
C4496 C 0.81361 0.37701 1.03258 0.0
H4497 H 0.69661 0.3977 0.07349 0.0
H4498 H 0.73103 0.3819 0.06209 0.0
C4499 C 0.82453 0.38808 1.02418 0.0
C4500 C 0.81676 0.36814 1.0503 0.0
H4501 H 0.76466 0.33351 0.06041 0.0
C4502 C 0.8199 0.38807 0.0575 0.0
C4503 C 0.79764 0.34739 1.05157 0.0
C4504 C 0.79413 0.3249 1.04426 0.0
C4505 C 0.80265 0.38924 0.06553 0.0
C4506 C 0.78231 0.36952 0.06642 0.0
C4507 C 0.78046 0.34844 0.05965 0.0
C4508 C 0.76036 0.37312 0.0734 0.0
C4509 C 0.80475 0.41287 0.07249 0.0
C4510 C 0.7654 0.37228 0.08345 0.0
C4511 C 0.74598 0.38161 0.08994 0.0
C4512 C 0.72135 0.39164 0.08639 0.0
C4513 C 0.71558 0.39029 0.07636 0.0
C4514 C 0.73506 0.38112 0.06988 0.0
H4515 H 0.81949 0.42819 0.06997 0.0
H4516 H 0.78483 0.42279 0.07336 0.0
H4517 H 0.81127 0.40561 0.07979 0.0
H4518 H 0.78491 0.36606 0.08621 0.0
H4519 H 0.75102 0.38274 0.09764 0.0
H4520 H 0.89858 0.40899 0.32177 0.0
H4521 H 0.91811 0.42518 0.30649 0.0
H4522 H 0.93279 0.50261 0.31993 0.0
H4523 H 0.9151 0.48604 0.33531 0.0
H4524 H 0.89256 0.46412 0.29748 0.0
H4525 H 0.99729 0.49769 0.303 0.0
H4526 H 0.98084 0.47497 0.3114 0.0
H4527 H 0.97635 0.51093 0.3125 0.0
C4528 C 0.90717 0.42903 0.32157 0.0
C4529 C 0.90514 0.44644 0.32965 0.0
C4530 C 0.91824 0.43823 0.31286 0.0
C4531 C 0.92726 0.46491 0.31214 0.0
C4532 C 0.92678 0.48169 0.3204 0.0
H4533 H 0.91333 0.59993 0.27975 0.0
H4534 H 0.92718 0.56376 0.29075 0.0
C4535 C 0.91614 0.47239 0.32913 0.0
C4536 C 0.93168 0.47709 0.30251 0.0
H4537 H 0.97047 0.52413 0.29121 0.0
C4538 C 0.91005 0.47644 0.29589 0.0
C4539 C 0.95437 0.49335 0.30057 0.0
C4540 C 0.97858 0.49402 0.30724 0.0
C4541 C 0.90938 0.49362 0.28784 0.0
C4542 C 0.9313 0.51125 0.2863 0.0
C4543 C 0.95384 0.5104 0.29246 0.0
C4544 C 0.92905 0.53346 0.27936 0.0
C4545 C 0.88424 0.49453 0.28158 0.0
C4546 C 0.92669 0.52831 0.26934 0.0
C4547 C 0.91841 0.54876 0.26309 0.0
C4548 C 0.91269 0.57454 0.26682 0.0
C4549 C 0.91736 0.58013 0.27674 0.0
C4550 C 0.92545 0.55962 0.28299 0.0
H4551 H 0.86769 0.48204 0.28462 0.0
H4552 H 0.87687 0.51556 0.28085 0.0
H4553 H 0.88894 0.48691 0.27414 0.0
H4554 H 0.92953 0.50815 0.26648 0.0
H4555 H 0.91464 0.54385 0.25548 0.0
H4556 H 0.69421 0.63605 0.53222 0.0
H4557 H 0.72679 0.64932 0.54456 0.0
H4558 H 0.76292 0.70516 0.5243 0.0
H4559 H 0.73018 0.69172 0.51179 0.0
H4560 H 0.79726 0.66678 0.53045 0.0
H4561 H 0.74601 0.71054 0.56254 0.0
H4562 H 0.72896 0.68069 0.55853 0.0
H4563 H 0.73047 0.70955 0.55057 0.0
C4564 C 0.7082 0.65213 0.53054 0.0
C4565 C 0.70983 0.66289 0.52109 0.0
C4566 C 0.72678 0.65977 0.53762 0.0
C4567 C 0.74695 0.67852 0.53536 0.0
C4568 C 0.74724 0.69091 0.52617 0.0
H4569 H 0.86507 0.6691 0.58253 0.0
H4570 H 0.84052 0.69222 0.56943 0.0
C4571 C 0.72867 0.68319 0.51906 0.0
C4572 C 0.77043 0.68054 0.54183 0.0
H4573 H 0.78613 0.6828 0.56602 0.0
C4574 C 0.79519 0.67132 0.53817 0.0
C4575 C 0.76764 0.68649 0.55187 0.0
C4576 C 0.74184 0.69762 0.55607 0.0
C4577 C 0.81647 0.66533 0.54449 0.0
C4578 C 0.81259 0.66851 0.55463 0.0
C4579 C 0.78887 0.68028 0.5582 0.0
C4580 C 0.8306 0.65553 0.56167 0.0
C4581 C 0.84221 0.65391 0.54032 0.0
C4582 C 0.83305 0.6274 0.56151 0.0
C4583 C 0.84706 0.61426 0.56887 0.0
C4584 C 0.85847 0.6291 0.57655 0.0
C4585 C 0.85673 0.65735 0.57656 0.0
C4586 C 0.8427 0.67052 0.56916 0.0
H4587 H 0.8457 0.66129 0.53276 0.0
H4588 H 0.85987 0.65922 0.54493 0.0
H4589 H 0.84064 0.63163 0.53998 0.0
H4590 H 0.82314 0.61551 0.5559 0.0
H4591 H 0.84823 0.59246 0.56875 0.0
H4592 H 0.44364 0.57202 0.34436 0.0
H4593 H 0.45868 0.54046 0.33171 0.0
H4594 H 0.40564 0.57886 0.3109 0.0
H4595 H 0.39094 0.61034 0.32338 0.0
H4596 H 0.42136 0.50708 0.32476 0.0
H4597 H 0.46752 0.55962 0.29355 0.0
H4598 H 0.46558 0.57472 0.30558 0.0
H4599 H 0.4375 0.57689 0.29722 0.0
C4600 C 0.43614 0.57432 0.33696 0.0
C4601 C 0.41616 0.59343 0.33479 0.0
C4602 C 0.44478 0.55643 0.32977 0.0
C4603 C 0.43356 0.55762 0.32037 0.0
C4604 C 0.41524 0.57816 0.31802 0.0
H4605 H 0.34611 0.46159 0.28597 0.0
H4606 H 0.37004 0.4852 0.299 0.0
C4607 C 0.40674 0.5961 0.32517 0.0
C4608 C 0.43591 0.53451 0.31372 0.0
H4609 H 0.43854 0.52059 0.2894 0.0
C4610 C 0.42621 0.50964 0.31708 0.0
C4611 C 0.44227 0.53789 0.30375 0.0
C4612 C 0.45406 0.56372 0.29986 0.0
C4613 C 0.41997 0.489 0.31053 0.0
C4614 C 0.42336 0.49363 0.30044 0.0
C4615 C 0.4358 0.5173 0.29717 0.0
C4616 C 0.40978 0.47672 0.29319 0.0
C4617 C 0.40789 0.46322 0.31438 0.0
C4618 C 0.42433 0.46461 0.28561 0.0
C4619 C 0.41066 0.4514 0.27811 0.0
C4620 C 0.38237 0.45054 0.27812 0.0
C4621 C 0.36794 0.4621 0.28585 0.0
C4622 C 0.38157 0.47526 0.29332 0.0
H4623 H 0.41515 0.4589 0.3219 0.0
H4624 H 0.38564 0.46535 0.3147 0.0
H4625 H 0.4128 0.44584 0.30957 0.0
H4626 H 0.4461 0.46604 0.28537 0.0
H4627 H 0.42209 0.44293 0.2721 0.0
H4628 H 0.3097 0.67031 1.00722 0.0
H4629 H 0.27383 0.68527 1.01809 0.0
H4630 H 0.32593 0.67258 1.04297 0.0
H4631 H 0.36229 0.65888 1.03212 0.0
H4632 H 0.25613 0.64701 1.03034 0.0
H4633 H 0.28365 0.73704 1.05193 0.0
H4634 H 0.29976 0.72884 1.04045 0.0
H4635 H 0.31064 0.71308 1.05165 0.0
C4636 C 0.31398 0.67217 1.01496 0.0
C4637 C 0.33866 0.66339 1.01888 0.0
C4638 C 0.29344 0.68061 1.02115 0.0
C4639 C 0.2974 0.68034 1.03128 0.0
C4640 C 0.32274 0.67368 1.03515 0.0
H4641 H 0.24072 0.63335 0.08341 0.0
H4642 H 0.26143 0.65444 0.06927 0.0
C4643 C 0.34336 0.66548 1.02896 0.0
C4644 C 0.2741 0.68079 1.03784 0.0
H4645 H 0.25476 0.70409 0.06014 0.0
C4646 C 0.25508 0.66012 1.03669 0.0
C4647 C 0.27319 0.69774 1.04612 0.0
C4648 C 0.29282 0.72057 1.04755 0.0
C4649 C 0.23683 0.65415 1.04412 0.0
C4650 C 0.2372 0.67001 1.05271 0.0
C4651 C 0.25456 0.69217 0.05348 0.0
C4652 C 0.22373 0.66074 0.06159 0.0
C4653 C 0.21932 0.62938 1.04314 0.0
C4654 C 0.1957 0.65777 0.06193 0.0
C4655 C 0.18387 0.64493 0.06988 0.0
C4656 C 0.20001 0.63535 0.07759 0.0
C4657 C 0.22792 0.63982 0.07743 0.0
C4658 C 0.2397 0.65227 0.06946 0.0
H4659 H 0.22446 0.6172 1.03657 0.0
H4660 H 0.22138 0.61635 1.04969 0.0
H4661 H 0.1979 0.63554 1.04252 0.0
H4662 H 0.18317 0.66451 0.05592 0.0
H4663 H 0.16229 0.64177 0.06985 0.0
H4664 H 0.14128 0.55015 0.7556 0.0
H4665 H 0.1298 0.51348 0.7666 0.0
H4666 H 0.13144 0.56865 0.79104 0.0
H4667 H 0.14142 0.60575 0.78001 0.0
H4668 H 0.16788 0.50179 0.77984 0.0
H4669 H 0.07155 0.51912 0.79905 0.0
H4670 H 0.07965 0.53553 0.78764 0.0
H4671 H 0.09213 0.54874 0.79907 0.0
C4672 C 0.1377 0.55477 0.76324 0.0
C4673 C 0.14226 0.58075 0.767 0.0
C4674 C 0.13127 0.53376 0.7695 0.0
C4675 C 0.12945 0.53849 0.77957 0.0
C4676 C 0.132 0.56477 0.78324 0.0
H4677 H 0.17384 0.48715 0.83317 0.0
H4678 H 0.15343 0.50604 0.81852 0.0
C4679 C 0.1381 0.58586 0.77697 0.0
C4680 C 0.13091 0.51581 0.78637 0.0
H4681 H 0.10603 0.49432 0.80814 0.0
C4682 C 0.15388 0.49938 0.78586 0.0
C4683 C 0.11274 0.51316 0.79422 0.0
C4684 C 0.08751 0.52997 0.79497 0.0
C4685 C 0.16051 0.48202 0.7935 0.0
C4686 C 0.14314 0.48063 0.80164 0.0
C4687 C 0.11908 0.49543 0.8018 0.0
C4688 C 0.15205 0.46802 0.81073 0.0
C4689 C 0.18723 0.46737 0.79321 0.0
C4690 C 0.15754 0.44039 0.81116 0.0
C4691 C 0.16992 0.42968 0.81942 0.0
C4692 C 0.17655 0.44653 0.82733 0.0
C4693 C 0.16961 0.47391 0.82705 0.0
C4694 C 0.15757 0.48461 0.81878 0.0
H4695 H 0.19997 0.47383 0.78697 0.0
H4696 H 0.19866 0.47084 0.80009 0.0
H4697 H 0.18362 0.4454 0.7925 0.0
H4698 H 0.15311 0.42739 0.80499 0.0
H4699 H 0.17504 0.40847 0.81949 0.0
H4700 H 0.25669 0.53846 0.50891 0.0
H4701 H 0.29916 0.54879 0.51722 0.0
H4702 H 0.3081 0.46493 0.5249 0.0
H4703 H 0.26573 0.45451 0.51667 0.0
H4704 H 0.30602 0.53862 0.53693 0.0
H4705 H 0.38306 0.48489 0.51515 0.0
H4706 H 0.34998 0.49283 0.51038 0.0
H4707 H 0.35486 0.4639 0.51811 0.0
C4708 C 0.26793 0.52227 0.51232 0.0
C4709 C 0.25822 0.49573 0.5122 0.0
C4710 C 0.29216 0.52813 0.51693 0.0
C4711 C 0.30687 0.50746 0.52137 0.0
C4712 C 0.29735 0.4809 0.52117 0.0
H4713 H 0.38972 0.4591 0.56667 0.0
H4714 H 0.3755 0.46799 0.55 0.0
C4715 C 0.27316 0.47502 0.51656 0.0
C4716 C 0.3302 0.51392 0.52742 0.0
H4717 H 0.39366 0.49214 0.53237 0.0
C4718 C 0.32562 0.5294 0.53582 0.0
C4719 C 0.35538 0.50151 0.52586 0.0
C4720 C 0.36117 0.48505 0.51682 0.0
C4721 C 0.34482 0.53055 0.54325 0.0
C4722 C 0.36944 0.51657 0.54197 0.0
C4723 C 0.37489 0.50312 0.53319 0.0
C4724 C 0.38627 0.51026 0.55043 0.0
C4725 C 0.33739 0.54418 0.55278 0.0
C4726 C 0.39856 0.53078 0.55585 0.0
C4727 C 0.40646 0.52579 0.56544 0.0
C4728 C 0.40235 0.5002 0.56953 0.0
C4729 C 0.39324 0.47894 0.56364 0.0
C4730 C 0.38513 0.48399 0.55412 0.0
H4731 H 0.31626 0.55161 0.5528 0.0
H4732 H 0.33993 0.53001 0.55899 0.0
H4733 H 0.35089 0.56164 0.55405 0.0
H4734 H 0.39979 0.55107 0.55299 0.0
H4735 H 0.41392 0.5423 0.56988 0.0
loop_
_geom_bond_atom_site_label_1
_geom_bond_atom_site_label_2
_geom_bond_distance
_geom_bond_site_symmetry_2
_ccdc_geom_bond_type
Pr0 C2 2.880 . S
Pr0 O20 2.562 . S
Pr0 O21 2.490 . S
Pr0 O22 2.695 . S
Pr0 O23 2.512 . S
Pr0 O25 2.437 . S
Pr0 O28 2.436 . S
Pr0 O30 2.438 . S
Pr1 C11 2.880 . S
Pr1 O22 2.436 . S
Pr1 O24 2.438 . S
Pr1 O26 2.562 . S
Pr1 O27 2.490 . S
Pr1 O28 2.695 . S
Pr1 O29 2.512 . S
Pr1 O31 2.437 . S
C2 Pr0 2.880 . S
C2 C3 1.491 . S
C2 O20 1.254 . S
C2 O21 1.225 . S
C3 C2 1.491 . S
C3 C4 1.392 . S
C3 C8 1.356 . S
C4 C3 1.392 . S
C4 C5 1.368 . S
C4 H32 0.929 . S
C5 C4 1.368 . S
C5 C6 1.386 . S
C5 H33 0.929 . S
C6 C5 1.386 . S
C6 C7 1.373 . S
C7 C6 1.373 . S
C7 C8 1.409 . S
C7 H34 0.931 . S
C8 C3 1.356 . S
C8 C7 1.409 . S
C8 H35 0.930 . S
C9 O22 1.270 . S
C9 O23 1.248 . S
C10 O24 1.267 . S
C10 O25 1.278 . S
C11 Pr1 2.880 . S
C11 C12 1.491 . S
C11 O26 1.254 . S
C11 O27 1.225 . S
C12 C11 1.491 . S
C12 C13 1.392 . S
C12 C17 1.356 . S
C13 C12 1.392 . S
C13 C14 1.368 . S
C13 H36 0.929 . S
C14 C13 1.368 . S
C14 C15 1.386 . S
C14 H37 0.929 . S
C15 C14 1.386 . S
C15 C16 1.373 . S
C16 C15 1.373 . S
C16 C17 1.409 . S
C16 H38 0.931 . S
C17 C12 1.356 . S
C17 C16 1.409 . S
C17 H39 0.930 . S
C18 O28 1.270 . S
C18 O29 1.248 . S
C19 O30 1.267 . S
C19 O31 1.278 . S
O20 Pr0 2.562 . S
O20 C2 1.254 . S
O21 Pr0 2.490 . S
O21 C2 1.225 . S
O22 Pr0 2.695 . S
O22 Pr1 2.436 . S
O22 C9 1.270 . S
O23 Pr0 2.512 . S
O23 C9 1.248 . S
O24 Pr1 2.438 . S
O24 C10 1.267 . S
O25 Pr0 2.437 . S
O25 C10 1.278 . S
O26 Pr1 2.562 . S
O26 C11 1.254 . S
O27 Pr1 2.490 . S
O27 C11 1.225 . S
O28 Pr0 2.436 . S
O28 Pr1 2.695 . S
O28 C18 1.270 . S
O29 Pr1 2.512 . S
O29 C18 1.248 . S
O30 Pr0 2.438 . S
O30 C19 1.267 . S
O31 Pr1 2.437 . S
O31 C19 1.278 . S
H32 C4 0.929 . S
H33 C5 0.929 . S
H34 C7 0.931 . S
H35 C8 0.930 . S
H36 C13 0.929 . S
H37 C14 0.929 . S
H38 C16 0.931 . S
H39 C17 0.930 . S
Pr40 C42 2.880 1_455 S
Pr40 O60 2.562 1_455 S
Pr40 O61 2.490 1_455 S
Pr40 O62 2.695 . S
Pr40 O63 2.512 . S
Pr40 O65 2.437 . S
Pr40 O68 2.436 . S
Pr40 O70 2.438 . S
Pr41 C51 2.880 . S
Pr41 O62 2.436 . S
Pr41 O64 2.438 . S
Pr41 O66 2.562 . S
Pr41 O67 2.490 . S
Pr41 O68 2.695 . S
Pr41 O69 2.512 . S
Pr41 O71 2.437 . S
C42 Pr40 2.880 1_655 S
C42 C43 1.491 . S
C42 O60 1.254 . S
C42 O61 1.225 . S
C43 C42 1.491 . S
C43 C44 1.392 . S
C43 C48 1.356 . S
C44 C43 1.392 . S
C44 C45 1.368 . S
C44 H72 0.929 . S
C45 C44 1.368 . S
C45 C46 1.386 . S
C45 H73 0.929 . S
C46 C45 1.386 . S
C46 C47 1.373 . S
C47 C46 1.373 . S
C47 C48 1.409 . S
C47 H74 0.931 . S
C48 C43 1.356 . S
C48 C47 1.409 . S
C48 H75 0.930 . S
C49 O62 1.270 . S
C49 O63 1.248 . S
C50 O64 1.267 . S
C50 O65 1.278 . S
C51 Pr41 2.880 . S
C51 C52 1.491 . S
C51 O66 1.254 . S
C51 O67 1.225 . S
C52 C51 1.491 . S
C52 C53 1.392 . S
C52 C57 1.356 . S
C53 C52 1.392 . S
C53 C54 1.368 . S
C53 H76 0.929 . S
C54 C53 1.368 . S
C54 C55 1.386 . S
C54 H77 0.929 . S
C55 C54 1.386 . S
C55 C56 1.373 . S
C56 C55 1.373 . S
C56 C57 1.409 . S
C56 H78 0.931 . S
C57 C52 1.356 . S
C57 C56 1.409 . S
C57 H79 0.930 . S
C58 O68 1.270 . S
C58 O69 1.248 . S
C59 O70 1.267 . S
C59 O71 1.278 . S
O60 Pr40 2.562 1_655 S
O60 C42 1.254 . S
O61 Pr40 2.490 1_655 S
O61 C42 1.225 . S
O62 Pr40 2.695 . S
O62 Pr41 2.436 . S
O62 C49 1.270 . S
O63 Pr40 2.512 . S
O63 C49 1.248 . S
O64 Pr41 2.438 . S
O64 C50 1.267 . S
O65 Pr40 2.437 . S
O65 C50 1.278 . S
O66 Pr41 2.562 . S
O66 C51 1.254 . S
O67 Pr41 2.490 . S
O67 C51 1.225 . S
O68 Pr40 2.436 . S
O68 Pr41 2.695 . S
O68 C58 1.270 . S
O69 Pr41 2.512 . S
O69 C58 1.248 . S
O70 Pr40 2.438 . S
O70 C59 1.267 . S
O71 Pr41 2.437 . S
O71 C59 1.278 . S
H72 C44 0.929 . S
H73 C45 0.929 . S
H74 C47 0.931 . S
H75 C48 0.930 . S
H76 C53 0.929 . S
H77 C54 0.929 . S
H78 C56 0.931 . S
H79 C57 0.930 . S
Pr80 C82 2.880 . S
Pr80 O100 2.562 . S
Pr80 O101 2.490 . S
Pr80 O102 2.695 . S
Pr80 O103 2.512 . S
Pr80 O105 2.437 . S
Pr80 O108 2.436 . S
Pr80 O110 2.438 . S
Pr81 C91 2.880 . S
Pr81 O102 2.436 . S
Pr81 O104 2.438 . S
Pr81 O106 2.562 . S
Pr81 O107 2.490 . S
Pr81 O108 2.695 . S
Pr81 O109 2.512 . S
Pr81 O111 2.437 . S
C82 Pr80 2.880 . S
C82 C83 1.491 . S
C82 O100 1.254 . S
C82 O101 1.225 . S
C83 C82 1.491 . S
C83 C84 1.392 . S
C83 C88 1.356 . S
C84 C83 1.392 . S
C84 C85 1.368 . S
C84 H112 0.929 . S
C85 C84 1.368 . S
C85 C86 1.386 . S
C85 H113 0.929 . S
C86 C85 1.386 . S
C86 C87 1.373 . S
C87 C86 1.373 . S
C87 C88 1.409 . S
C87 H114 0.931 . S
C88 C83 1.356 . S
C88 C87 1.409 . S
C88 H115 0.930 . S
C89 O102 1.270 . S
C89 O103 1.248 . S
C90 O104 1.267 . S
C90 O105 1.278 . S
C91 Pr81 2.880 . S
C91 C92 1.491 . S
C91 O106 1.254 . S
C91 O107 1.225 . S
C92 C91 1.491 . S
C92 C93 1.392 . S
C92 C97 1.356 . S
C93 C92 1.392 . S
C93 C94 1.368 . S
C93 H116 0.929 . S
C94 C93 1.368 . S
C94 C95 1.386 . S
C94 H117 0.929 . S
C95 C94 1.386 . S
C95 C96 1.373 . S
C96 C95 1.373 . S
C96 C97 1.409 . S
C96 H118 0.931 . S
C97 C92 1.356 . S
C97 C96 1.409 . S
C97 H119 0.930 . S
C98 O108 1.270 . S
C98 O109 1.248 . S
C99 O110 1.267 . S
C99 O111 1.278 . S
O100 Pr80 2.562 . S
O100 C82 1.254 . S
O101 Pr80 2.490 . S
O101 C82 1.225 . S
O102 Pr80 2.695 . S
O102 Pr81 2.436 . S
O102 C89 1.270 . S
O103 Pr80 2.512 . S
O103 C89 1.248 . S
O104 Pr81 2.438 . S
O104 C90 1.267 . S
O105 Pr80 2.437 . S
O105 C90 1.278 . S
O106 Pr81 2.562 . S
O106 C91 1.254 . S
O107 Pr81 2.490 . S
O107 C91 1.225 . S
O108 Pr80 2.436 . S
O108 Pr81 2.695 . S
O108 C98 1.270 . S
O109 Pr81 2.512 . S
O109 C98 1.248 . S
O110 Pr80 2.438 . S
O110 C99 1.267 . S
O111 Pr81 2.437 . S
O111 C99 1.278 . S
H112 C84 0.929 . S
H113 C85 0.929 . S
H114 C87 0.931 . S
H115 C88 0.930 . S
H116 C93 0.929 . S
H117 C94 0.929 . S
H118 C96 0.931 . S
H119 C97 0.930 . S
Pr120 C122 2.880 . S
Pr120 O140 2.562 . S
Pr120 O141 2.490 . S
Pr120 O142 2.695 . S
Pr120 O143 2.512 . S
Pr120 O145 2.437 . S
Pr120 O148 2.436 . S
Pr120 O150 2.438 . S
Pr121 C131 2.880 . S
Pr121 O142 2.436 . S
Pr121 O144 2.438 . S
Pr121 O146 2.562 . S
Pr121 O147 2.490 . S
Pr121 O148 2.695 . S
Pr121 O149 2.512 . S
Pr121 O151 2.437 . S
C122 Pr120 2.880 . S
C122 C123 1.491 . S
C122 O140 1.254 . S
C122 O141 1.225 . S
C123 C122 1.491 . S
C123 C124 1.392 . S
C123 C128 1.356 . S
C124 C123 1.392 . S
C124 C125 1.368 . S
C124 H152 0.929 . S
C125 C124 1.368 . S
C125 C126 1.386 . S
C125 H153 0.929 . S
C126 C125 1.386 . S
C126 C127 1.373 . S
C127 C126 1.373 . S
C127 C128 1.409 . S
C127 H154 0.931 . S
C128 C123 1.356 . S
C128 C127 1.409 . S
C128 H155 0.930 . S
C129 O142 1.270 . S
C129 O143 1.248 . S
C130 O144 1.267 . S
C130 O145 1.278 . S
C131 Pr121 2.880 . S
C131 C132 1.491 . S
C131 O146 1.254 . S
C131 O147 1.225 . S
C132 C131 1.491 . S
C132 C133 1.392 . S
C132 C137 1.356 . S
C133 C132 1.392 . S
C133 C134 1.368 . S
C133 H156 0.929 . S
C134 C133 1.368 . S
C134 C135 1.386 . S
C134 H157 0.929 . S
C135 C134 1.386 . S
C135 C136 1.373 . S
C136 C135 1.373 . S
C136 C137 1.409 . S
C136 H158 0.931 . S
C137 C132 1.356 . S
C137 C136 1.409 . S
C137 H159 0.930 . S
C138 O148 1.270 . S
C138 O149 1.248 . S
C139 O150 1.267 . S
C139 O151 1.278 . S
O140 Pr120 2.562 . S
O140 C122 1.254 . S
O141 Pr120 2.490 . S
O141 C122 1.225 . S
O142 Pr120 2.695 . S
O142 Pr121 2.436 . S
O142 C129 1.270 . S
O143 Pr120 2.512 . S
O143 C129 1.248 . S
O144 Pr121 2.438 . S
O144 C130 1.267 . S
O145 Pr120 2.437 . S
O145 C130 1.278 . S
O146 Pr121 2.562 . S
O146 C131 1.254 . S
O147 Pr121 2.490 . S
O147 C131 1.225 . S
O148 Pr120 2.436 . S
O148 Pr121 2.695 . S
O148 C138 1.270 . S
O149 Pr121 2.512 . S
O149 C138 1.248 . S
O150 Pr120 2.438 . S
O150 C139 1.267 . S
O151 Pr121 2.437 . S
O151 C139 1.278 . S
H152 C124 0.929 . S
H153 C125 0.929 . S
H154 C127 0.931 . S
H155 C128 0.930 . S
H156 C133 0.929 . S
H157 C134 0.929 . S
H158 C136 0.931 . S
H159 C137 0.930 . S
Pr160 C162 2.880 . S
Pr160 O180 2.562 . S
Pr160 O181 2.490 . S
Pr160 O182 2.695 . S
Pr160 O183 2.512 . S
Pr160 O185 2.437 . S
Pr160 O188 2.436 . S
Pr160 O190 2.438 . S
Pr161 C171 2.880 . S
Pr161 O182 2.436 . S
Pr161 O184 2.438 . S
Pr161 O186 2.562 . S
Pr161 O187 2.490 . S
Pr161 O188 2.695 . S
Pr161 O189 2.512 . S
Pr161 O191 2.437 . S
C162 Pr160 2.880 . S
C162 C163 1.491 . S
C162 O180 1.254 . S
C162 O181 1.225 . S
C163 C162 1.491 . S
C163 C164 1.392 . S
C163 C168 1.356 . S
C164 C163 1.392 . S
C164 C165 1.368 . S
C164 H192 0.929 . S
C165 C164 1.368 . S
C165 C166 1.386 . S
C165 H193 0.929 . S
C166 C165 1.386 . S
C166 C167 1.373 . S
C167 C166 1.373 . S
C167 C168 1.409 . S
C167 H194 0.931 . S
C168 C163 1.356 . S
C168 C167 1.409 . S
C168 H195 0.930 . S
C169 O182 1.270 . S
C169 O183 1.248 . S
C170 O184 1.267 . S
C170 O185 1.278 . S
C171 Pr161 2.880 . S
C171 C172 1.491 . S
C171 O186 1.254 . S
C171 O187 1.225 . S
C172 C171 1.491 . S
C172 C173 1.392 . S
C172 C177 1.356 . S
C173 C172 1.392 . S
C173 C174 1.368 . S
C173 H196 0.929 . S
C174 C173 1.368 . S
C174 C175 1.386 . S
C174 H197 0.929 . S
C175 C174 1.386 . S
C175 C176 1.373 . S
C176 C175 1.373 . S
C176 C177 1.409 . S
C176 H198 0.931 . S
C177 C172 1.356 . S
C177 C176 1.409 . S
C177 H199 0.930 . S
C178 O188 1.270 . S
C178 O189 1.248 . S
C179 O190 1.267 . S
C179 O191 1.278 . S
O180 Pr160 2.562 . S
O180 C162 1.254 . S
O181 Pr160 2.490 . S
O181 C162 1.225 . S
O182 Pr160 2.695 . S
O182 Pr161 2.436 . S
O182 C169 1.270 . S
O183 Pr160 2.512 . S
O183 C169 1.248 . S
O184 Pr161 2.438 . S
O184 C170 1.267 . S
O185 Pr160 2.437 . S
O185 C170 1.278 . S
O186 Pr161 2.562 . S
O186 C171 1.254 . S
O187 Pr161 2.490 . S
O187 C171 1.225 . S
O188 Pr160 2.436 . S
O188 Pr161 2.695 . S
O188 C178 1.270 . S
O189 Pr161 2.512 . S
O189 C178 1.248 . S
O190 Pr160 2.438 . S
O190 C179 1.267 . S
O191 Pr161 2.437 . S
O191 C179 1.278 . S
H192 C164 0.929 . S
H193 C165 0.929 . S
H194 C167 0.931 . S
H195 C168 0.930 . S
H196 C173 0.929 . S
H197 C174 0.929 . S
H198 C176 0.931 . S
H199 C177 0.930 . S
Pr200 C202 2.880 . S
Pr200 O220 2.562 . S
Pr200 O221 2.490 . S
Pr200 O222 2.695 . S
Pr200 O223 2.512 . S
Pr200 O225 2.437 . S
Pr200 O228 2.436 . S
Pr200 O230 2.438 . S
Pr201 C211 2.880 . S
Pr201 O222 2.436 . S
Pr201 O224 2.438 . S
Pr201 O226 2.562 . S
Pr201 O227 2.490 . S
Pr201 O228 2.695 . S
Pr201 O229 2.512 . S
Pr201 O231 2.437 . S
C202 Pr200 2.880 . S
C202 C203 1.491 . S
C202 O220 1.254 . S
C202 O221 1.225 . S
C203 C202 1.491 . S
C203 C204 1.392 . S
C203 C208 1.356 . S
C204 C203 1.392 . S
C204 C205 1.368 . S
C204 H232 0.929 . S
C205 C204 1.368 . S
C205 C206 1.386 . S
C205 H233 0.929 . S
C206 C205 1.386 . S
C206 C207 1.373 . S
C207 C206 1.373 . S
C207 C208 1.409 . S
C207 H234 0.931 . S
C208 C203 1.356 . S
C208 C207 1.409 . S
C208 H235 0.930 . S
C209 O222 1.270 . S
C209 O223 1.248 . S
C210 O224 1.267 . S
C210 O225 1.278 . S
C211 Pr201 2.880 . S
C211 C212 1.491 . S
C211 O226 1.254 . S
C211 O227 1.225 . S
C212 C211 1.491 . S
C212 C213 1.392 . S
C212 C217 1.356 . S
C213 C212 1.392 . S
C213 C214 1.368 . S
C213 H236 0.929 . S
C214 C213 1.368 . S
C214 C215 1.386 . S
C214 H237 0.929 . S
C215 C214 1.386 . S
C215 C216 1.373 . S
C216 C215 1.373 . S
C216 C217 1.409 . S
C216 H238 0.931 . S
C217 C212 1.356 . S
C217 C216 1.409 . S
C217 H239 0.930 . S
C218 O228 1.270 . S
C218 O229 1.248 . S
C219 O230 1.267 . S
C219 O231 1.278 . S
O220 Pr200 2.562 . S
O220 C202 1.254 . S
O221 Pr200 2.490 . S
O221 C202 1.225 . S
O222 Pr200 2.695 . S
O222 Pr201 2.436 . S
O222 C209 1.270 . S
O223 Pr200 2.512 . S
O223 C209 1.248 . S
O224 Pr201 2.438 . S
O224 C210 1.267 . S
O225 Pr200 2.437 . S
O225 C210 1.278 . S
O226 Pr201 2.562 . S
O226 C211 1.254 . S
O227 Pr201 2.490 . S
O227 C211 1.225 . S
O228 Pr200 2.436 . S
O228 Pr201 2.695 . S
O228 C218 1.270 . S
O229 Pr201 2.512 . S
O229 C218 1.248 . S
O230 Pr200 2.438 . S
O230 C219 1.267 . S
O231 Pr201 2.437 . S
O231 C219 1.278 . S
H232 C204 0.929 . S
H233 C205 0.929 . S
H234 C207 0.931 . S
H235 C208 0.930 . S
H236 C213 0.929 . S
H237 C214 0.929 . S
H238 C216 0.931 . S
H239 C217 0.930 . S
Pr240 C242 2.880 . S
Pr240 O260 2.562 . S
Pr240 O261 2.490 . S
Pr240 O262 2.695 . S
Pr240 O263 2.512 . S
Pr240 O265 2.437 . S
Pr240 O268 2.436 . S
Pr240 O270 2.438 . S
Pr241 C251 2.880 . S
Pr241 O262 2.436 . S
Pr241 O264 2.438 . S
Pr241 O266 2.562 . S
Pr241 O267 2.490 . S
Pr241 O268 2.695 . S
Pr241 O269 2.512 . S
Pr241 O271 2.437 . S
C242 Pr240 2.880 . S
C242 C243 1.491 . S
C242 O260 1.254 . S
C242 O261 1.225 . S
C243 C242 1.491 . S
C243 C244 1.392 . S
C243 C248 1.356 . S
C244 C243 1.392 . S
C244 C245 1.368 . S
C244 H272 0.929 . S
C245 C244 1.368 . S
C245 C246 1.386 . S
C245 H273 0.929 . S
C246 C245 1.386 . S
C246 C247 1.373 . S
C247 C246 1.373 . S
C247 C248 1.409 . S
C247 H274 0.931 . S
C248 C243 1.356 . S
C248 C247 1.409 . S
C248 H275 0.930 . S
C249 O262 1.270 . S
C249 O263 1.248 . S
C250 O264 1.267 . S
C250 O265 1.278 . S
C251 Pr241 2.880 . S
C251 C252 1.491 . S
C251 O266 1.254 . S
C251 O267 1.225 . S
C252 C251 1.491 . S
C252 C253 1.392 . S
C252 C257 1.356 . S
C253 C252 1.392 . S
C253 C254 1.368 . S
C253 H276 0.929 . S
C254 C253 1.368 . S
C254 C255 1.386 . S
C254 H277 0.929 . S
C255 C254 1.386 . S
C255 C256 1.373 . S
C256 C255 1.373 . S
C256 C257 1.409 . S
C256 H278 0.931 . S
C257 C252 1.356 . S
C257 C256 1.409 . S
C257 H279 0.930 . S
C258 O268 1.270 . S
C258 O269 1.248 . S
C259 O270 1.267 . S
C259 O271 1.278 . S
O260 Pr240 2.562 . S
O260 C242 1.254 . S
O261 Pr240 2.490 . S
O261 C242 1.225 . S
O262 Pr240 2.695 . S
O262 Pr241 2.436 . S
O262 C249 1.270 . S
O263 Pr240 2.512 . S
O263 C249 1.248 . S
O264 Pr241 2.438 . S
O264 C250 1.267 . S
O265 Pr240 2.437 . S
O265 C250 1.278 . S
O266 Pr241 2.562 . S
O266 C251 1.254 . S
O267 Pr241 2.490 . S
O267 C251 1.225 . S
O268 Pr240 2.436 . S
O268 Pr241 2.695 . S
O268 C258 1.270 . S
O269 Pr241 2.512 . S
O269 C258 1.248 . S
O270 Pr240 2.438 . S
O270 C259 1.267 . S
O271 Pr241 2.437 . S
O271 C259 1.278 . S
H272 C244 0.929 . S
H273 C245 0.929 . S
H274 C247 0.931 . S
H275 C248 0.930 . S
H276 C253 0.929 . S
H277 C254 0.929 . S
H278 C256 0.931 . S
H279 C257 0.930 . S
Pr280 C282 2.880 1_455 S
Pr280 O300 2.562 1_455 S
Pr280 O301 2.490 1_455 S
Pr280 O302 2.695 . S
Pr280 O303 2.512 . S
Pr280 O305 2.437 . S
Pr280 O308 2.436 . S
Pr280 O310 2.438 . S
Pr281 C291 2.880 . S
Pr281 O302 2.436 . S
Pr281 O304 2.438 . S
Pr281 O306 2.562 . S
Pr281 O307 2.490 . S
Pr281 O308 2.695 . S
Pr281 O309 2.512 . S
Pr281 O311 2.437 . S
C282 Pr280 2.880 1_655 S
C282 C283 1.491 . S
C282 O300 1.254 . S
C282 O301 1.225 . S
C283 C282 1.491 . S
C283 C284 1.392 . S
C283 C288 1.356 . S
C284 C283 1.392 . S
C284 C285 1.368 . S
C284 H312 0.929 . S
C285 C284 1.368 . S
C285 C286 1.386 . S
C285 H313 0.929 . S
C286 C285 1.386 . S
C286 C287 1.373 . S
C287 C286 1.373 . S
C287 C288 1.409 . S
C287 H314 0.931 . S
C288 C283 1.356 . S
C288 C287 1.409 . S
C288 H315 0.930 . S
C289 O302 1.270 . S
C289 O303 1.248 . S
C290 O304 1.267 . S
C290 O305 1.278 . S
C291 Pr281 2.880 . S
C291 C292 1.491 . S
C291 O306 1.254 . S
C291 O307 1.225 . S
C292 C291 1.491 . S
C292 C293 1.392 . S
C292 C297 1.356 . S
C293 C292 1.392 . S
C293 C294 1.368 . S
C293 H316 0.929 . S
C294 C293 1.368 . S
C294 C295 1.386 . S
C294 H317 0.929 . S
C295 C294 1.386 . S
C295 C296 1.373 . S
C296 C295 1.373 . S
C296 C297 1.409 . S
C296 H318 0.931 . S
C297 C292 1.356 . S
C297 C296 1.409 . S
C297 H319 0.930 . S
C298 O308 1.270 . S
C298 O309 1.248 . S
C299 O310 1.267 . S
C299 O311 1.278 . S
O300 Pr280 2.562 1_655 S
O300 C282 1.254 . S
O301 Pr280 2.490 1_655 S
O301 C282 1.225 . S
O302 Pr280 2.695 . S
O302 Pr281 2.436 . S
O302 C289 1.270 . S
O303 Pr280 2.512 . S
O303 C289 1.248 . S
O304 Pr281 2.438 . S
O304 C290 1.267 . S
O305 Pr280 2.437 . S
O305 C290 1.278 . S
O306 Pr281 2.562 . S
O306 C291 1.254 . S
O307 Pr281 2.490 . S
O307 C291 1.225 . S
O308 Pr280 2.436 . S
O308 Pr281 2.695 . S
O308 C298 1.270 . S
O309 Pr281 2.512 . S
O309 C298 1.248 . S
O310 Pr280 2.438 . S
O310 C299 1.267 . S
O311 Pr281 2.437 . S
O311 C299 1.278 . S
H312 C284 0.929 . S
H313 C285 0.929 . S
H314 C287 0.931 . S
H315 C288 0.930 . S
H316 C293 0.929 . S
H317 C294 0.929 . S
H318 C296 0.931 . S
H319 C297 0.930 . S
Pr320 C322 2.880 . S
Pr320 O340 2.562 . S
Pr320 O341 2.490 . S
Pr320 O342 2.695 . S
Pr320 O343 2.512 . S
Pr320 O345 2.437 . S
Pr320 O348 2.436 . S
Pr320 O350 2.438 . S
Pr321 C331 2.880 . S
Pr321 O342 2.436 . S
Pr321 O344 2.438 . S
Pr321 O346 2.562 . S
Pr321 O347 2.490 . S
Pr321 O348 2.695 . S
Pr321 O349 2.512 . S
Pr321 O351 2.437 . S
C322 Pr320 2.880 . S
C322 C323 1.491 . S
C322 O340 1.254 . S
C322 O341 1.225 . S
C323 C322 1.491 . S
C323 C324 1.392 . S
C323 C328 1.356 . S
C324 C323 1.392 . S
C324 C325 1.368 . S
C324 H352 0.929 . S
C325 C324 1.368 . S
C325 C326 1.386 . S
C325 H353 0.929 . S
C326 C325 1.386 . S
C326 C327 1.373 . S
C327 C326 1.373 . S
C327 C328 1.409 . S
C327 H354 0.931 . S
C328 C323 1.356 . S
C328 C327 1.409 . S
C328 H355 0.930 . S
C329 O342 1.270 . S
C329 O343 1.248 . S
C330 O344 1.267 . S
C330 O345 1.278 . S
C331 Pr321 2.880 . S
C331 C332 1.491 . S
C331 O346 1.254 . S
C331 O347 1.225 . S
C332 C331 1.491 . S
C332 C333 1.392 . S
C332 C337 1.356 . S
C333 C332 1.392 . S
C333 C334 1.368 . S
C333 H356 0.929 . S
C334 C333 1.368 . S
C334 C335 1.386 . S
C334 H357 0.929 . S
C335 C334 1.386 . S
C335 C336 1.373 . S
C336 C335 1.373 . S
C336 C337 1.409 . S
C336 H358 0.931 . S
C337 C332 1.356 . S
C337 C336 1.409 . S
C337 H359 0.930 . S
C338 O348 1.270 . S
C338 O349 1.248 . S
C339 O350 1.267 . S
C339 O351 1.278 . S
O340 Pr320 2.562 . S
O340 C322 1.254 . S
O341 Pr320 2.490 . S
O341 C322 1.225 . S
O342 Pr320 2.695 . S
O342 Pr321 2.436 . S
O342 C329 1.270 . S
O343 Pr320 2.512 . S
O343 C329 1.248 . S
O344 Pr321 2.438 . S
O344 C330 1.267 . S
O345 Pr320 2.437 . S
O345 C330 1.278 . S
O346 Pr321 2.562 . S
O346 C331 1.254 . S
O347 Pr321 2.490 . S
O347 C331 1.225 . S
O348 Pr320 2.436 . S
O348 Pr321 2.695 . S
O348 C338 1.270 . S
O349 Pr321 2.512 . S
O349 C338 1.248 . S
O350 Pr320 2.438 . S
O350 C339 1.267 . S
O351 Pr321 2.437 . S
O351 C339 1.278 . S
H352 C324 0.929 . S
H353 C325 0.929 . S
H354 C327 0.931 . S
H355 C328 0.930 . S
H356 C333 0.929 . S
H357 C334 0.929 . S
H358 C336 0.931 . S
H359 C337 0.930 . S
Pr360 C362 2.880 . S
Pr360 O380 2.562 . S
Pr360 O381 2.490 . S
Pr360 O382 2.695 . S
Pr360 O383 2.512 . S
Pr360 O385 2.437 . S
Pr360 O388 2.436 . S
Pr360 O390 2.438 . S
Pr361 C371 2.880 1_655 S
Pr361 O382 2.436 . S
Pr361 O384 2.438 . S
Pr361 O386 2.562 1_655 S
Pr361 O387 2.490 1_655 S
Pr361 O388 2.695 . S
Pr361 O389 2.512 . S
Pr361 O391 2.437 . S
C362 Pr360 2.880 . S
C362 C363 1.491 . S
C362 O380 1.254 . S
C362 O381 1.225 . S
C363 C362 1.491 . S
C363 C364 1.392 . S
C363 C368 1.356 . S
C364 C363 1.392 . S
C364 C365 1.368 . S
C364 H392 0.929 . S
C365 C364 1.368 . S
C365 C366 1.386 . S
C365 H393 0.929 . S
C366 C365 1.386 . S
C366 C367 1.373 . S
C367 C366 1.373 . S
C367 C368 1.409 . S
C367 H394 0.931 . S
C368 C363 1.356 . S
C368 C367 1.409 . S
C368 H395 0.930 . S
C369 O382 1.270 . S
C369 O383 1.248 . S
C370 O384 1.267 . S
C370 O385 1.278 . S
C371 Pr361 2.880 1_455 S
C371 C372 1.491 . S
C371 O386 1.254 . S
C371 O387 1.225 . S
C372 C371 1.491 . S
C372 C373 1.392 . S
C372 C377 1.356 . S
C373 C372 1.392 . S
C373 C374 1.368 . S
C373 H396 0.929 . S
C374 C373 1.368 . S
C374 C375 1.386 . S
C374 H397 0.929 . S
C375 C374 1.386 . S
C375 C376 1.373 . S
C376 C375 1.373 . S
C376 C377 1.409 . S
C376 H398 0.931 . S
C377 C372 1.356 . S
C377 C376 1.409 . S
C377 H399 0.930 . S
C378 O388 1.270 . S
C378 O389 1.248 . S
C379 O390 1.267 . S
C379 O391 1.278 . S
O380 Pr360 2.562 . S
O380 C362 1.254 . S
O381 Pr360 2.490 . S
O381 C362 1.225 . S
O382 Pr360 2.695 . S
O382 Pr361 2.436 . S
O382 C369 1.270 . S
O383 Pr360 2.512 . S
O383 C369 1.248 . S
O384 Pr361 2.438 . S
O384 C370 1.267 . S
O385 Pr360 2.437 . S
O385 C370 1.278 . S
O386 Pr361 2.562 1_455 S
O386 C371 1.254 . S
O387 Pr361 2.490 1_455 S
O387 C371 1.225 . S
O388 Pr360 2.436 . S
O388 Pr361 2.695 . S
O388 C378 1.270 . S
O389 Pr361 2.512 . S
O389 C378 1.248 . S
O390 Pr360 2.438 . S
O390 C379 1.267 . S
O391 Pr361 2.437 . S
O391 C379 1.278 . S
H392 C364 0.929 . S
H393 C365 0.929 . S
H394 C367 0.931 . S
H395 C368 0.930 . S
H396 C373 0.929 . S
H397 C374 0.929 . S
H398 C376 0.931 . S
H399 C377 0.930 . S
Pr400 C402 2.880 . S
Pr400 O420 2.562 . S
Pr400 O421 2.490 . S
Pr400 O422 2.695 . S
Pr400 O423 2.512 . S
Pr400 O425 2.437 . S
Pr400 O428 2.436 . S
Pr400 O430 2.438 . S
Pr401 C411 2.880 . S
Pr401 O422 2.436 . S
Pr401 O424 2.438 . S
Pr401 O426 2.562 . S
Pr401 O427 2.490 . S
Pr401 O428 2.695 . S
Pr401 O429 2.512 . S
Pr401 O431 2.437 . S
C402 Pr400 2.880 . S
C402 C403 1.491 . S
C402 O420 1.254 . S
C402 O421 1.225 . S
C403 C402 1.491 . S
C403 C404 1.392 . S
C403 C408 1.356 . S
C404 C403 1.392 . S
C404 C405 1.368 . S
C404 H432 0.929 . S
C405 C404 1.368 . S
C405 C406 1.386 . S
C405 H433 0.929 . S
C406 C405 1.386 . S
C406 C407 1.373 . S
C407 C406 1.373 . S
C407 C408 1.409 . S
C407 H434 0.931 . S
C408 C403 1.356 . S
C408 C407 1.409 . S
C408 H435 0.930 . S
C409 O422 1.270 . S
C409 O423 1.248 . S
C410 O424 1.267 . S
C410 O425 1.278 . S
C411 Pr401 2.880 . S
C411 C412 1.491 . S
C411 O426 1.254 . S
C411 O427 1.225 . S
C412 C411 1.491 . S
C412 C413 1.392 . S
C412 C417 1.356 . S
C413 C412 1.392 . S
C413 C414 1.368 . S
C413 H436 0.929 . S
C414 C413 1.368 . S
C414 C415 1.386 . S
C414 H437 0.929 . S
C415 C414 1.386 . S
C415 C416 1.373 . S
C416 C415 1.373 . S
C416 C417 1.409 . S
C416 H438 0.931 . S
C417 C412 1.356 . S
C417 C416 1.409 . S
C417 H439 0.930 . S
C418 O428 1.270 . S
C418 O429 1.248 . S
C419 O430 1.267 . S
C419 O431 1.278 . S
O420 Pr400 2.562 . S
O420 C402 1.254 . S
O421 Pr400 2.490 . S
O421 C402 1.225 . S
O422 Pr400 2.695 . S
O422 Pr401 2.436 . S
O422 C409 1.270 . S
O423 Pr400 2.512 . S
O423 C409 1.248 . S
O424 Pr401 2.438 . S
O424 C410 1.267 . S
O425 Pr400 2.437 . S
O425 C410 1.278 . S
O426 Pr401 2.562 . S
O426 C411 1.254 . S
O427 Pr401 2.490 . S
O427 C411 1.225 . S
O428 Pr400 2.436 . S
O428 Pr401 2.695 . S
O428 C418 1.270 . S
O429 Pr401 2.512 . S
O429 C418 1.248 . S
O430 Pr400 2.438 . S
O430 C419 1.267 . S
O431 Pr401 2.437 . S
O431 C419 1.278 . S
H432 C404 0.929 . S
H433 C405 0.929 . S
H434 C407 0.931 . S
H435 C408 0.930 . S
H436 C413 0.929 . S
H437 C414 0.929 . S
H438 C416 0.931 . S
H439 C417 0.930 . S
Pr440 C442 2.880 . S
Pr440 O460 2.562 . S
Pr440 O461 2.490 . S
Pr440 O462 2.695 . S
Pr440 O463 2.512 . S
Pr440 O465 2.437 . S
Pr440 O468 2.436 . S
Pr440 O470 2.438 . S
Pr441 C451 2.880 . S
Pr441 O462 2.436 . S
Pr441 O464 2.438 . S
Pr441 O466 2.562 . S
Pr441 O467 2.490 . S
Pr441 O468 2.695 . S
Pr441 O469 2.512 . S
Pr441 O471 2.437 . S
C442 Pr440 2.880 . S
C442 C443 1.491 . S
C442 O460 1.254 . S
C442 O461 1.225 . S
C443 C442 1.491 . S
C443 C444 1.392 . S
C443 C448 1.356 . S
C444 C443 1.392 . S
C444 C445 1.368 . S
C444 H472 0.929 . S
C445 C444 1.368 . S
C445 C446 1.386 . S
C445 H473 0.929 . S
C446 C445 1.386 . S
C446 C447 1.373 . S
C447 C446 1.373 . S
C447 C448 1.409 . S
C447 H474 0.931 . S
C448 C443 1.356 . S
C448 C447 1.409 . S
C448 H475 0.930 . S
C449 O462 1.270 . S
C449 O463 1.248 . S
C450 O464 1.267 . S
C450 O465 1.278 . S
C451 Pr441 2.880 . S
C451 C452 1.491 . S
C451 O466 1.254 . S
C451 O467 1.225 . S
C452 C451 1.491 . S
C452 C453 1.392 . S
C452 C457 1.356 . S
C453 C452 1.392 . S
C453 C454 1.368 . S
C453 H476 0.929 . S
C454 C453 1.368 . S
C454 C455 1.386 . S
C454 H477 0.929 . S
C455 C454 1.386 . S
C455 C456 1.373 . S
C456 C455 1.373 . S
C456 C457 1.409 . S
C456 H478 0.931 . S
C457 C452 1.356 . S
C457 C456 1.409 . S
C457 H479 0.930 . S
C458 O468 1.270 . S
C458 O469 1.248 . S
C459 O470 1.267 . S
C459 O471 1.278 . S
O460 Pr440 2.562 . S
O460 C442 1.254 . S
O461 Pr440 2.490 . S
O461 C442 1.225 . S
O462 Pr440 2.695 . S
O462 Pr441 2.436 . S
O462 C449 1.270 . S
O463 Pr440 2.512 . S
O463 C449 1.248 . S
O464 Pr441 2.438 . S
O464 C450 1.267 . S
O465 Pr440 2.437 . S
O465 C450 1.278 . S
O466 Pr441 2.562 . S
O466 C451 1.254 . S
O467 Pr441 2.490 . S
O467 C451 1.225 . S
O468 Pr440 2.436 . S
O468 Pr441 2.695 . S
O468 C458 1.270 . S
O469 Pr441 2.512 . S
O469 C458 1.248 . S
O470 Pr440 2.438 . S
O470 C459 1.267 . S
O471 Pr441 2.437 . S
O471 C459 1.278 . S
H472 C444 0.929 . S
H473 C445 0.929 . S
H474 C447 0.931 . S
H475 C448 0.930 . S
H476 C453 0.929 . S
H477 C454 0.929 . S
H478 C456 0.931 . S
H479 C457 0.930 . S
Pr480 C482 2.880 . S
Pr480 O500 2.562 . S
Pr480 O501 2.490 . S
Pr480 O502 2.695 . S
Pr480 O503 2.512 . S
Pr480 O505 2.437 . S
Pr480 O508 2.436 . S
Pr480 O510 2.438 . S
Pr481 C491 2.880 . S
Pr481 O502 2.436 . S
Pr481 O504 2.438 . S
Pr481 O506 2.562 . S
Pr481 O507 2.490 . S
Pr481 O508 2.695 . S
Pr481 O509 2.512 . S
Pr481 O511 2.437 . S
C482 Pr480 2.880 . S
C482 C483 1.491 . S
C482 O500 1.254 . S
C482 O501 1.225 . S
C483 C482 1.491 . S
C483 C484 1.392 . S
C483 C488 1.356 . S
C484 C483 1.392 . S
C484 C485 1.368 . S
C484 H512 0.929 . S
C485 C484 1.368 . S
C485 C486 1.386 . S
C485 H513 0.929 . S
C486 C485 1.386 . S
C486 C487 1.373 . S
C487 C486 1.373 . S
C487 C488 1.409 . S
C487 H514 0.931 . S
C488 C483 1.356 . S
C488 C487 1.409 . S
C488 H515 0.930 . S
C489 O502 1.270 . S
C489 O503 1.248 . S
C490 O504 1.267 . S
C490 O505 1.278 . S
C491 Pr481 2.880 . S
C491 C492 1.491 . S
C491 O506 1.254 . S
C491 O507 1.225 . S
C492 C491 1.491 . S
C492 C493 1.392 . S
C492 C497 1.356 . S
C493 C492 1.392 . S
C493 C494 1.368 . S
C493 H516 0.929 . S
C494 C493 1.368 . S
C494 C495 1.386 . S
C494 H517 0.929 . S
C495 C494 1.386 . S
C495 C496 1.373 . S
C496 C495 1.373 . S
C496 C497 1.409 . S
C496 H518 0.931 . S
C497 C492 1.356 . S
C497 C496 1.409 . S
C497 H519 0.930 . S
C498 O508 1.270 . S
C498 O509 1.248 . S
C499 O510 1.267 . S
C499 O511 1.278 . S
O500 Pr480 2.562 . S
O500 C482 1.254 . S
O501 Pr480 2.490 . S
O501 C482 1.225 . S
O502 Pr480 2.695 . S
O502 Pr481 2.436 . S
O502 C489 1.270 . S
O503 Pr480 2.512 . S
O503 C489 1.248 . S
O504 Pr481 2.438 . S
O504 C490 1.267 . S
O505 Pr480 2.437 . S
O505 C490 1.278 . S
O506 Pr481 2.562 . S
O506 C491 1.254 . S
O507 Pr481 2.490 . S
O507 C491 1.225 . S
O508 Pr480 2.436 . S
O508 Pr481 2.695 . S
O508 C498 1.270 . S
O509 Pr481 2.512 . S
O509 C498 1.248 . S
O510 Pr480 2.438 . S
O510 C499 1.267 . S
O511 Pr481 2.437 . S
O511 C499 1.278 . S
H512 C484 0.929 . S
H513 C485 0.929 . S
H514 C487 0.931 . S
H515 C488 0.930 . S
H516 C493 0.929 . S
H517 C494 0.929 . S
H518 C496 0.931 . S
H519 C497 0.930 . S
Pr520 C522 2.880 . S
Pr520 O540 2.562 . S
Pr520 O541 2.490 . S
Pr520 O542 2.695 . S
Pr520 O543 2.512 . S
Pr520 O545 2.437 . S
Pr520 O548 2.436 . S
Pr520 O550 2.438 . S
Pr521 C531 2.880 . S
Pr521 O542 2.436 . S
Pr521 O544 2.438 . S
Pr521 O546 2.562 . S
Pr521 O547 2.490 . S
Pr521 O548 2.695 . S
Pr521 O549 2.512 . S
Pr521 O551 2.437 . S
C522 Pr520 2.880 . S
C522 C523 1.491 . S
C522 O540 1.254 . S
C522 O541 1.225 . S
C523 C522 1.491 . S
C523 C524 1.392 . S
C523 C528 1.356 . S
C524 C523 1.392 . S
C524 C525 1.368 . S
C524 H552 0.929 . S
C525 C524 1.368 . S
C525 C526 1.386 . S
C525 H553 0.929 . S
C526 C525 1.386 . S
C526 C527 1.373 . S
C527 C526 1.373 . S
C527 C528 1.409 . S
C527 H554 0.931 . S
C528 C523 1.356 . S
C528 C527 1.409 . S
C528 H555 0.930 . S
C529 O542 1.270 . S
C529 O543 1.248 . S
C530 O544 1.267 . S
C530 O545 1.278 . S
C531 Pr521 2.880 . S
C531 C532 1.491 . S
C531 O546 1.254 . S
C531 O547 1.225 . S
C532 C531 1.491 . S
C532 C533 1.392 . S
C532 C537 1.356 . S
C533 C532 1.392 . S
C533 C534 1.368 . S
C533 H556 0.929 . S
C534 C533 1.368 . S
C534 C535 1.386 . S
C534 H557 0.929 . S
C535 C534 1.386 . S
C535 C536 1.373 . S
C536 C535 1.373 . S
C536 C537 1.409 . S
C536 H558 0.931 . S
C537 C532 1.356 . S
C537 C536 1.409 . S
C537 H559 0.930 . S
C538 O548 1.270 . S
C538 O549 1.248 . S
C539 O550 1.267 . S
C539 O551 1.278 . S
O540 Pr520 2.562 . S
O540 C522 1.254 . S
O541 Pr520 2.490 . S
O541 C522 1.225 . S
O542 Pr520 2.695 . S
O542 Pr521 2.436 . S
O542 C529 1.270 . S
O543 Pr520 2.512 . S
O543 C529 1.248 . S
O544 Pr521 2.438 . S
O544 C530 1.267 . S
O545 Pr520 2.437 . S
O545 C530 1.278 . S
O546 Pr521 2.562 . S
O546 C531 1.254 . S
O547 Pr521 2.490 . S
O547 C531 1.225 . S
O548 Pr520 2.436 . S
O548 Pr521 2.695 . S
O548 C538 1.270 . S
O549 Pr521 2.512 . S
O549 C538 1.248 . S
O550 Pr520 2.438 . S
O550 C539 1.267 . S
O551 Pr521 2.437 . S
O551 C539 1.278 . S
H552 C524 0.929 . S
H553 C525 0.929 . S
H554 C527 0.931 . S
H555 C528 0.930 . S
H556 C533 0.929 . S
H557 C534 0.929 . S
H558 C536 0.931 . S
H559 C537 0.930 . S
Pr560 C562 2.880 . S
Pr560 O580 2.562 . S
Pr560 O581 2.490 . S
Pr560 O582 2.695 . S
Pr560 O583 2.512 . S
Pr560 O585 2.437 . S
Pr560 O588 2.436 . S
Pr560 O590 2.438 . S
Pr561 C571 2.880 . S
Pr561 O582 2.436 . S
Pr561 O584 2.438 . S
Pr561 O586 2.562 . S
Pr561 O587 2.490 . S
Pr561 O588 2.695 . S
Pr561 O589 2.512 . S
Pr561 O591 2.437 . S
C562 Pr560 2.880 . S
C562 C563 1.491 . S
C562 O580 1.254 . S
C562 O581 1.225 . S
C563 C562 1.491 . S
C563 C564 1.392 . S
C563 C568 1.356 . S
C564 C563 1.392 . S
C564 C565 1.368 . S
C564 H592 0.929 . S
C565 C564 1.368 . S
C565 C566 1.386 . S
C565 H593 0.929 . S
C566 C565 1.386 . S
C566 C567 1.373 . S
C567 C566 1.373 . S
C567 C568 1.409 . S
C567 H594 0.931 . S
C568 C563 1.356 . S
C568 C567 1.409 . S
C568 H595 0.930 . S
C569 O582 1.270 . S
C569 O583 1.248 . S
C570 O584 1.267 . S
C570 O585 1.278 . S
C571 Pr561 2.880 . S
C571 C572 1.491 . S
C571 O586 1.254 . S
C571 O587 1.225 . S
C572 C571 1.491 . S
C572 C573 1.392 . S
C572 C577 1.356 . S
C573 C572 1.392 . S
C573 C574 1.368 . S
C573 H596 0.929 . S
C574 C573 1.368 . S
C574 C575 1.386 . S
C574 H597 0.929 . S
C575 C574 1.386 . S
C575 C576 1.373 . S
C576 C575 1.373 . S
C576 C577 1.409 . S
C576 H598 0.931 . S
C577 C572 1.356 . S
C577 C576 1.409 . S
C577 H599 0.930 . S
C578 O588 1.270 . S
C578 O589 1.248 . S
C579 O590 1.267 . S
C579 O591 1.278 . S
O580 Pr560 2.562 . S
O580 C562 1.254 . S
O581 Pr560 2.490 . S
O581 C562 1.225 . S
O582 Pr560 2.695 . S
O582 Pr561 2.436 . S
O582 C569 1.270 . S
O583 Pr560 2.512 . S
O583 C569 1.248 . S
O584 Pr561 2.438 . S
O584 C570 1.267 . S
O585 Pr560 2.437 . S
O585 C570 1.278 . S
O586 Pr561 2.562 . S
O586 C571 1.254 . S
O587 Pr561 2.490 . S
O587 C571 1.225 . S
O588 Pr560 2.436 . S
O588 Pr561 2.695 . S
O588 C578 1.270 . S
O589 Pr561 2.512 . S
O589 C578 1.248 . S
O590 Pr560 2.438 . S
O590 C579 1.267 . S
O591 Pr561 2.437 . S
O591 C579 1.278 . S
H592 C564 0.929 . S
H593 C565 0.929 . S
H594 C567 0.931 . S
H595 C568 0.930 . S
H596 C573 0.929 . S
H597 C574 0.929 . S
H598 C576 0.931 . S
H599 C577 0.930 . S
Pr600 C602 2.880 . S
Pr600 O620 2.562 . S
Pr600 O621 2.490 . S
Pr600 O622 2.695 . S
Pr600 O623 2.512 . S
Pr600 O625 2.437 . S
Pr600 O628 2.436 . S
Pr600 O630 2.438 . S
Pr601 C611 2.880 1_655 S
Pr601 O622 2.436 . S
Pr601 O624 2.438 . S
Pr601 O626 2.562 1_655 S
Pr601 O627 2.490 1_655 S
Pr601 O628 2.695 . S
Pr601 O629 2.512 . S
Pr601 O631 2.437 . S
C602 Pr600 2.880 . S
C602 C603 1.491 . S
C602 O620 1.254 . S
C602 O621 1.225 . S
C603 C602 1.491 . S
C603 C604 1.392 . S
C603 C608 1.356 . S
C604 C603 1.392 . S
C604 C605 1.368 . S
C604 H632 0.929 . S
C605 C604 1.368 . S
C605 C606 1.386 . S
C605 H633 0.929 . S
C606 C605 1.386 . S
C606 C607 1.373 . S
C607 C606 1.373 . S
C607 C608 1.409 . S
C607 H634 0.931 . S
C608 C603 1.356 . S
C608 C607 1.409 . S
C608 H635 0.930 . S
C609 O622 1.270 . S
C609 O623 1.248 . S
C610 O624 1.267 . S
C610 O625 1.278 . S
C611 Pr601 2.880 1_455 S
C611 C612 1.491 . S
C611 O626 1.254 . S
C611 O627 1.225 . S
C612 C611 1.491 . S
C612 C613 1.392 . S
C612 C617 1.356 . S
C613 C612 1.392 . S
C613 C614 1.368 . S
C613 H636 0.929 . S
C614 C613 1.368 . S
C614 C615 1.386 . S
C614 H637 0.929 . S
C615 C614 1.386 . S
C615 C616 1.373 . S
C616 C615 1.373 . S
C616 C617 1.409 . S
C616 H638 0.931 . S
C617 C612 1.356 . S
C617 C616 1.409 . S
C617 H639 0.930 . S
C618 O628 1.270 . S
C618 O629 1.248 . S
C619 O630 1.267 . S
C619 O631 1.278 . S
O620 Pr600 2.562 . S
O620 C602 1.254 . S
O621 Pr600 2.490 . S
O621 C602 1.225 . S
O622 Pr600 2.695 . S
O622 Pr601 2.436 . S
O622 C609 1.270 . S
O623 Pr600 2.512 . S
O623 C609 1.248 . S
O624 Pr601 2.438 . S
O624 C610 1.267 . S
O625 Pr600 2.437 . S
O625 C610 1.278 . S
O626 Pr601 2.562 1_455 S
O626 C611 1.254 . S
O627 Pr601 2.490 1_455 S
O627 C611 1.225 . S
O628 Pr600 2.436 . S
O628 Pr601 2.695 . S
O628 C618 1.270 . S
O629 Pr601 2.512 . S
O629 C618 1.248 . S
O630 Pr600 2.438 . S
O630 C619 1.267 . S
O631 Pr601 2.437 . S
O631 C619 1.278 . S
H632 C604 0.929 . S
H633 C605 0.929 . S
H634 C607 0.931 . S
H635 C608 0.930 . S
H636 C613 0.929 . S
H637 C614 0.929 . S
H638 C616 0.931 . S
H639 C617 0.930 . S
Pr640 C642 2.880 . S
Pr640 O660 2.562 . S
Pr640 O661 2.490 . S
Pr640 O662 2.695 . S
Pr640 O663 2.512 . S
Pr640 O665 2.437 . S
Pr640 O668 2.436 . S
Pr640 O670 2.438 . S
Pr641 C651 2.880 . S
Pr641 O662 2.436 . S
Pr641 O664 2.438 . S
Pr641 O666 2.562 . S
Pr641 O667 2.490 . S
Pr641 O668 2.695 . S
Pr641 O669 2.512 . S
Pr641 O671 2.437 . S
C642 Pr640 2.880 . S
C642 C643 1.491 . S
C642 O660 1.254 . S
C642 O661 1.225 . S
C643 C642 1.491 . S
C643 C644 1.392 . S
C643 C648 1.356 . S
C644 C643 1.392 . S
C644 C645 1.368 . S
C644 H672 0.929 . S
C645 C644 1.368 . S
C645 C646 1.386 . S
C645 H673 0.929 . S
C646 C645 1.386 . S
C646 C647 1.373 . S
C647 C646 1.373 . S
C647 C648 1.409 . S
C647 H674 0.931 . S
C648 C643 1.356 . S
C648 C647 1.409 . S
C648 H675 0.930 . S
C649 O662 1.270 . S
C649 O663 1.248 . S
C650 O664 1.267 . S
C650 O665 1.278 . S
C651 Pr641 2.880 . S
C651 C652 1.491 . S
C651 O666 1.254 . S
C651 O667 1.225 . S
C652 C651 1.491 . S
C652 C653 1.392 . S
C652 C657 1.356 . S
C653 C652 1.392 . S
C653 C654 1.368 . S
C653 H676 0.929 . S
C654 C653 1.368 . S
C654 C655 1.386 . S
C654 H677 0.929 . S
C655 C654 1.386 . S
C655 C656 1.373 . S
C656 C655 1.373 . S
C656 C657 1.409 . S
C656 H678 0.931 . S
C657 C652 1.356 . S
C657 C656 1.409 . S
C657 H679 0.930 . S
C658 O668 1.270 . S
C658 O669 1.248 . S
C659 O670 1.267 . S
C659 O671 1.278 . S
O660 Pr640 2.562 . S
O660 C642 1.254 . S
O661 Pr640 2.490 . S
O661 C642 1.225 . S
O662 Pr640 2.695 . S
O662 Pr641 2.436 . S
O662 C649 1.270 . S
O663 Pr640 2.512 . S
O663 C649 1.248 . S
O664 Pr641 2.438 . S
O664 C650 1.267 . S
O665 Pr640 2.437 . S
O665 C650 1.278 . S
O666 Pr641 2.562 . S
O666 C651 1.254 . S
O667 Pr641 2.490 . S
O667 C651 1.225 . S
O668 Pr640 2.436 . S
O668 Pr641 2.695 . S
O668 C658 1.270 . S
O669 Pr641 2.512 . S
O669 C658 1.248 . S
O670 Pr640 2.438 . S
O670 C659 1.267 . S
O671 Pr641 2.437 . S
O671 C659 1.278 . S
H672 C644 0.929 . S
H673 C645 0.929 . S
H674 C647 0.931 . S
H675 C648 0.930 . S
H676 C653 0.929 . S
H677 C654 0.929 . S
H678 C656 0.931 . S
H679 C657 0.930 . S
Pr680 C682 2.880 . S
Pr680 O700 2.562 . S
Pr680 O701 2.490 . S
Pr680 O702 2.695 . S
Pr680 O703 2.512 . S
Pr680 O705 2.437 . S
Pr680 O708 2.436 . S
Pr680 O710 2.438 . S
Pr681 C691 2.880 . S
Pr681 O702 2.436 . S
Pr681 O704 2.438 . S
Pr681 O706 2.562 . S
Pr681 O707 2.490 . S
Pr681 O708 2.695 . S
Pr681 O709 2.512 . S
Pr681 O711 2.437 . S
C682 Pr680 2.880 . S
C682 C683 1.491 . S
C682 O700 1.254 . S
C682 O701 1.225 . S
C683 C682 1.491 . S
C683 C684 1.392 . S
C683 C688 1.356 . S
C684 C683 1.392 . S
C684 C685 1.368 . S
C684 H712 0.929 . S
C685 C684 1.368 . S
C685 C686 1.386 . S
C685 H713 0.929 . S
C686 C685 1.386 . S
C686 C687 1.373 . S
C687 C686 1.373 . S
C687 C688 1.409 . S
C687 H714 0.931 . S
C688 C683 1.356 . S
C688 C687 1.409 . S
C688 H715 0.930 . S
C689 O702 1.270 . S
C689 O703 1.248 . S
C690 O704 1.267 . S
C690 O705 1.278 . S
C691 Pr681 2.880 . S
C691 C692 1.491 . S
C691 O706 1.254 . S
C691 O707 1.225 . S
C692 C691 1.491 . S
C692 C693 1.392 . S
C692 C697 1.356 . S
C693 C692 1.392 . S
C693 C694 1.368 . S
C693 H716 0.929 . S
C694 C693 1.368 . S
C694 C695 1.386 . S
C694 H717 0.929 . S
C695 C694 1.386 . S
C695 C696 1.373 . S
C696 C695 1.373 . S
C696 C697 1.409 . S
C696 H718 0.931 . S
C697 C692 1.356 . S
C697 C696 1.409 . S
C697 H719 0.930 . S
C698 O708 1.270 . S
C698 O709 1.248 . S
C699 O710 1.267 . S
C699 O711 1.278 . S
O700 Pr680 2.562 . S
O700 C682 1.254 . S
O701 Pr680 2.490 . S
O701 C682 1.225 . S
O702 Pr680 2.695 . S
O702 Pr681 2.436 . S
O702 C689 1.270 . S
O703 Pr680 2.512 . S
O703 C689 1.248 . S
O704 Pr681 2.438 . S
O704 C690 1.267 . S
O705 Pr680 2.437 . S
O705 C690 1.278 . S
O706 Pr681 2.562 . S
O706 C691 1.254 . S
O707 Pr681 2.490 . S
O707 C691 1.225 . S
O708 Pr680 2.436 . S
O708 Pr681 2.695 . S
O708 C698 1.270 . S
O709 Pr681 2.512 . S
O709 C698 1.248 . S
O710 Pr680 2.438 . S
O710 C699 1.267 . S
O711 Pr681 2.437 . S
O711 C699 1.278 . S
H712 C684 0.929 . S
H713 C685 0.929 . S
H714 C687 0.931 . S
H715 C688 0.930 . S
H716 C693 0.929 . S
H717 C694 0.929 . S
H718 C696 0.931 . S
H719 C697 0.930 . S
Pr720 C722 2.880 . S
Pr720 O740 2.562 . S
Pr720 O741 2.490 . S
Pr720 O742 2.695 . S
Pr720 O743 2.512 . S
Pr720 O745 2.437 . S
Pr720 O748 2.436 . S
Pr720 O750 2.438 . S
Pr721 C731 2.880 . S
Pr721 O742 2.436 . S
Pr721 O744 2.438 . S
Pr721 O746 2.562 . S
Pr721 O747 2.490 . S
Pr721 O748 2.695 . S
Pr721 O749 2.512 . S
Pr721 O751 2.437 . S
C722 Pr720 2.880 . S
C722 C723 1.491 . S
C722 O740 1.254 . S
C722 O741 1.225 . S
C723 C722 1.491 . S
C723 C724 1.392 . S
C723 C728 1.356 . S
C724 C723 1.392 . S
C724 C725 1.368 . S
C724 H752 0.929 . S
C725 C724 1.368 . S
C725 C726 1.386 . S
C725 H753 0.929 . S
C726 C725 1.386 . S
C726 C727 1.373 . S
C727 C726 1.373 . S
C727 C728 1.409 . S
C727 H754 0.931 . S
C728 C723 1.356 . S
C728 C727 1.409 . S
C728 H755 0.930 . S
C729 O742 1.270 . S
C729 O743 1.248 . S
C730 O744 1.267 . S
C730 O745 1.278 . S
C731 Pr721 2.880 . S
C731 C732 1.491 . S
C731 O746 1.254 . S
C731 O747 1.225 . S
C732 C731 1.491 . S
C732 C733 1.392 . S
C732 C737 1.356 . S
C733 C732 1.392 . S
C733 C734 1.368 . S
C733 H756 0.929 . S
C734 C733 1.368 . S
C734 C735 1.386 . S
C734 H757 0.929 . S
C735 C734 1.386 . S
C735 C736 1.373 . S
C736 C735 1.373 . S
C736 C737 1.409 . S
C736 H758 0.931 . S
C737 C732 1.356 . S
C737 C736 1.409 . S
C737 H759 0.930 . S
C738 O748 1.270 . S
C738 O749 1.248 . S
C739 O750 1.267 . S
C739 O751 1.278 . S
O740 Pr720 2.562 . S
O740 C722 1.254 . S
O741 Pr720 2.490 . S
O741 C722 1.225 . S
O742 Pr720 2.695 . S
O742 Pr721 2.436 . S
O742 C729 1.270 . S
O743 Pr720 2.512 . S
O743 C729 1.248 . S
O744 Pr721 2.438 . S
O744 C730 1.267 . S
O745 Pr720 2.437 . S
O745 C730 1.278 . S
O746 Pr721 2.562 . S
O746 C731 1.254 . S
O747 Pr721 2.490 . S
O747 C731 1.225 . S
O748 Pr720 2.436 . S
O748 Pr721 2.695 . S
O748 C738 1.270 . S
O749 Pr721 2.512 . S
O749 C738 1.248 . S
O750 Pr720 2.438 . S
O750 C739 1.267 . S
O751 Pr721 2.437 . S
O751 C739 1.278 . S
H752 C724 0.929 . S
H753 C725 0.929 . S
H754 C727 0.931 . S
H755 C728 0.930 . S
H756 C733 0.929 . S
H757 C734 0.929 . S
H758 C736 0.931 . S
H759 C737 0.930 . S
Pr760 C762 2.880 1_655 S
Pr760 O780 2.562 1_655 S
Pr760 O781 2.490 1_655 S
Pr760 O782 2.695 . S
Pr760 O783 2.512 . S
Pr760 O785 2.437 . S
Pr760 O788 2.436 . S
Pr760 O790 2.438 . S
Pr761 C771 2.880 . S
Pr761 O782 2.436 . S
Pr761 O784 2.438 . S
Pr761 O786 2.562 . S
Pr761 O787 2.490 . S
Pr761 O788 2.695 . S
Pr761 O789 2.512 . S
Pr761 O791 2.437 . S
C762 Pr760 2.880 1_455 S
C762 C763 1.491 . S
C762 O780 1.254 . S
C762 O781 1.225 . S
C763 C762 1.491 . S
C763 C764 1.392 . S
C763 C768 1.356 . S
C764 C763 1.392 . S
C764 C765 1.368 . S
C764 H792 0.929 . S
C765 C764 1.368 . S
C765 C766 1.386 . S
C765 H793 0.929 . S
C766 C765 1.386 . S
C766 C767 1.373 . S
C767 C766 1.373 . S
C767 C768 1.409 . S
C767 H794 0.931 . S
C768 C763 1.356 . S
C768 C767 1.409 . S
C768 H795 0.930 . S
C769 O782 1.270 . S
C769 O783 1.248 . S
C770 O784 1.267 . S
C770 O785 1.278 . S
C771 Pr761 2.880 . S
C771 C772 1.491 . S
C771 O786 1.254 . S
C771 O787 1.225 . S
C772 C771 1.491 . S
C772 C773 1.392 . S
C772 C777 1.356 . S
C773 C772 1.392 . S
C773 C774 1.368 . S
C773 H796 0.929 . S
C774 C773 1.368 . S
C774 C775 1.386 . S
C774 H797 0.929 . S
C775 C774 1.386 . S
C775 C776 1.373 . S
C776 C775 1.373 . S
C776 C777 1.409 . S
C776 H798 0.931 . S
C777 C772 1.356 . S
C777 C776 1.409 . S
C777 H799 0.930 . S
C778 O788 1.270 . S
C778 O789 1.248 . S
C779 O790 1.267 . S
C779 O791 1.278 . S
O780 Pr760 2.562 1_455 S
O780 C762 1.254 . S
O781 Pr760 2.490 1_455 S
O781 C762 1.225 . S
O782 Pr760 2.695 . S
O782 Pr761 2.436 . S
O782 C769 1.270 . S
O783 Pr760 2.512 . S
O783 C769 1.248 . S
O784 Pr761 2.438 . S
O784 C770 1.267 . S
O785 Pr760 2.437 . S
O785 C770 1.278 . S
O786 Pr761 2.562 . S
O786 C771 1.254 . S
O787 Pr761 2.490 . S
O787 C771 1.225 . S
O788 Pr760 2.436 . S
O788 Pr761 2.695 . S
O788 C778 1.270 . S
O789 Pr761 2.512 . S
O789 C778 1.248 . S
O790 Pr760 2.438 . S
O790 C779 1.267 . S
O791 Pr761 2.437 . S
O791 C779 1.278 . S
H792 C764 0.929 . S
H793 C765 0.929 . S
H794 C767 0.931 . S
H795 C768 0.930 . S
H796 C773 0.929 . S
H797 C774 0.929 . S
H798 C776 0.931 . S
H799 C777 0.930 . S
Pr800 C802 2.880 . S
Pr800 O820 2.562 . S
Pr800 O821 2.490 . S
Pr800 O822 2.695 . S
Pr800 O823 2.512 . S
Pr800 O825 2.437 . S
Pr800 O828 2.436 . S
Pr800 O830 2.438 . S
Pr801 C811 2.880 . S
Pr801 O822 2.436 . S
Pr801 O824 2.438 . S
Pr801 O826 2.562 . S
Pr801 O827 2.490 . S
Pr801 O828 2.695 . S
Pr801 O829 2.512 . S
Pr801 O831 2.437 . S
C802 Pr800 2.880 . S
C802 C803 1.491 . S
C802 O820 1.254 . S
C802 O821 1.225 . S
C803 C802 1.491 . S
C803 C804 1.392 . S
C803 C808 1.356 . S
C804 C803 1.392 . S
C804 C805 1.368 . S
C804 H832 0.929 . S
C805 C804 1.368 . S
C805 C806 1.386 . S
C805 H833 0.929 . S
C806 C805 1.386 . S
C806 C807 1.373 . S
C807 C806 1.373 . S
C807 C808 1.409 . S
C807 H834 0.931 . S
C808 C803 1.356 . S
C808 C807 1.409 . S
C808 H835 0.930 . S
C809 O822 1.270 . S
C809 O823 1.248 . S
C810 O824 1.267 . S
C810 O825 1.278 . S
C811 Pr801 2.880 . S
C811 C812 1.491 . S
C811 O826 1.254 . S
C811 O827 1.225 . S
C812 C811 1.491 . S
C812 C813 1.392 . S
C812 C817 1.356 . S
C813 C812 1.392 . S
C813 C814 1.368 . S
C813 H836 0.929 . S
C814 C813 1.368 . S
C814 C815 1.386 . S
C814 H837 0.929 . S
C815 C814 1.386 . S
C815 C816 1.373 . S
C816 C815 1.373 . S
C816 C817 1.409 . S
C816 H838 0.931 . S
C817 C812 1.356 . S
C817 C816 1.409 . S
C817 H839 0.930 . S
C818 O828 1.270 . S
C818 O829 1.248 . S
C819 O830 1.267 . S
C819 O831 1.278 . S
O820 Pr800 2.562 . S
O820 C802 1.254 . S
O821 Pr800 2.490 . S
O821 C802 1.225 . S
O822 Pr800 2.695 . S
O822 Pr801 2.436 . S
O822 C809 1.270 . S
O823 Pr800 2.512 . S
O823 C809 1.248 . S
O824 Pr801 2.438 . S
O824 C810 1.267 . S
O825 Pr800 2.437 . S
O825 C810 1.278 . S
O826 Pr801 2.562 . S
O826 C811 1.254 . S
O827 Pr801 2.490 . S
O827 C811 1.225 . S
O828 Pr800 2.436 . S
O828 Pr801 2.695 . S
O828 C818 1.270 . S
O829 Pr801 2.512 . S
O829 C818 1.248 . S
O830 Pr800 2.438 . S
O830 C819 1.267 . S
O831 Pr801 2.437 . S
O831 C819 1.278 . S
H832 C804 0.929 . S
H833 C805 0.929 . S
H834 C807 0.931 . S
H835 C808 0.930 . S
H836 C813 0.929 . S
H837 C814 0.929 . S
H838 C816 0.931 . S
H839 C817 0.930 . S
Pr840 C842 2.880 1_655 S
Pr840 O860 2.562 1_655 S
Pr840 O861 2.490 1_655 S
Pr840 O862 2.695 . S
Pr840 O863 2.512 . S
Pr840 O865 2.437 . S
Pr840 O868 2.436 . S
Pr840 O870 2.438 . S
Pr841 C851 2.880 . S
Pr841 O862 2.436 . S
Pr841 O864 2.438 . S
Pr841 O866 2.562 . S
Pr841 O867 2.490 . S
Pr841 O868 2.695 . S
Pr841 O869 2.512 . S
Pr841 O871 2.437 . S
C842 Pr840 2.880 1_455 S
C842 C843 1.491 . S
C842 O860 1.254 . S
C842 O861 1.225 . S
C843 C842 1.491 . S
C843 C844 1.392 . S
C843 C848 1.356 . S
C844 C843 1.392 . S
C844 C845 1.368 . S
C844 H872 0.929 . S
C845 C844 1.368 . S
C845 C846 1.386 . S
C845 H873 0.929 . S
C846 C845 1.386 . S
C846 C847 1.373 . S
C847 C846 1.373 . S
C847 C848 1.409 . S
C847 H874 0.931 . S
C848 C843 1.356 . S
C848 C847 1.409 . S
C848 H875 0.930 . S
C849 O862 1.270 . S
C849 O863 1.248 . S
C850 O864 1.267 . S
C850 O865 1.278 . S
C851 Pr841 2.880 . S
C851 C852 1.491 . S
C851 O866 1.254 . S
C851 O867 1.225 . S
C852 C851 1.491 . S
C852 C853 1.392 . S
C852 C857 1.356 . S
C853 C852 1.392 . S
C853 C854 1.368 . S
C853 H876 0.929 . S
C854 C853 1.368 . S
C854 C855 1.386 . S
C854 H877 0.929 . S
C855 C854 1.386 . S
C855 C856 1.373 . S
C856 C855 1.373 . S
C856 C857 1.409 . S
C856 H878 0.931 . S
C857 C852 1.356 . S
C857 C856 1.409 . S
C857 H879 0.930 . S
C858 O868 1.270 . S
C858 O869 1.248 . S
C859 O870 1.267 . S
C859 O871 1.278 . S
O860 Pr840 2.562 1_455 S
O860 C842 1.254 . S
O861 Pr840 2.490 1_455 S
O861 C842 1.225 . S
O862 Pr840 2.695 . S
O862 Pr841 2.436 . S
O862 C849 1.270 . S
O863 Pr840 2.512 . S
O863 C849 1.248 . S
O864 Pr841 2.438 . S
O864 C850 1.267 . S
O865 Pr840 2.437 . S
O865 C850 1.278 . S
O866 Pr841 2.562 . S
O866 C851 1.254 . S
O867 Pr841 2.490 . S
O867 C851 1.225 . S
O868 Pr840 2.436 . S
O868 Pr841 2.695 . S
O868 C858 1.270 . S
O869 Pr841 2.512 . S
O869 C858 1.248 . S
O870 Pr840 2.438 . S
O870 C859 1.267 . S
O871 Pr841 2.437 . S
O871 C859 1.278 . S
H872 C844 0.929 . S
H873 C845 0.929 . S
H874 C847 0.931 . S
H875 C848 0.930 . S
H876 C853 0.929 . S
H877 C854 0.929 . S
H878 C856 0.931 . S
H879 C857 0.930 . S
Pr880 C882 2.880 . S
Pr880 O900 2.562 . S
Pr880 O901 2.490 . S
Pr880 O902 2.695 . S
Pr880 O903 2.512 . S
Pr880 O905 2.437 . S
Pr880 O908 2.436 . S
Pr880 O910 2.438 . S
Pr881 C891 2.880 . S
Pr881 O902 2.436 . S
Pr881 O904 2.438 . S
Pr881 O906 2.562 . S
Pr881 O907 2.490 . S
Pr881 O908 2.695 . S
Pr881 O909 2.512 . S
Pr881 O911 2.437 . S
C882 Pr880 2.880 . S
C882 C883 1.491 . S
C882 O900 1.254 . S
C882 O901 1.225 . S
C883 C882 1.491 . S
C883 C884 1.392 . S
C883 C888 1.356 . S
C884 C883 1.392 . S
C884 C885 1.368 . S
C884 H912 0.929 . S
C885 C884 1.368 . S
C885 C886 1.386 . S
C885 H913 0.929 . S
C886 C885 1.386 . S
C886 C887 1.373 . S
C887 C886 1.373 . S
C887 C888 1.409 . S
C887 H914 0.931 . S
C888 C883 1.356 . S
C888 C887 1.409 . S
C888 H915 0.930 . S
C889 O902 1.270 . S
C889 O903 1.248 . S
C890 O904 1.267 . S
C890 O905 1.278 . S
C891 Pr881 2.880 . S
C891 C892 1.491 . S
C891 O906 1.254 . S
C891 O907 1.225 . S
C892 C891 1.491 . S
C892 C893 1.392 . S
C892 C897 1.356 . S
C893 C892 1.392 . S
C893 C894 1.368 . S
C893 H916 0.929 . S
C894 C893 1.368 . S
C894 C895 1.386 . S
C894 H917 0.929 . S
C895 C894 1.386 . S
C895 C896 1.373 . S
C896 C895 1.373 . S
C896 C897 1.409 . S
C896 H918 0.931 . S
C897 C892 1.356 . S
C897 C896 1.409 . S
C897 H919 0.930 . S
C898 O908 1.270 . S
C898 O909 1.248 . S
C899 O910 1.267 . S
C899 O911 1.278 . S
O900 Pr880 2.562 . S
O900 C882 1.254 . S
O901 Pr880 2.490 . S
O901 C882 1.225 . S
O902 Pr880 2.695 . S
O902 Pr881 2.436 . S
O902 C889 1.270 . S
O903 Pr880 2.512 . S
O903 C889 1.248 . S
O904 Pr881 2.438 . S
O904 C890 1.267 . S
O905 Pr880 2.437 . S
O905 C890 1.278 . S
O906 Pr881 2.562 . S
O906 C891 1.254 . S
O907 Pr881 2.490 . S
O907 C891 1.225 . S
O908 Pr880 2.436 . S
O908 Pr881 2.695 . S
O908 C898 1.270 . S
O909 Pr881 2.512 . S
O909 C898 1.248 . S
O910 Pr880 2.438 . S
O910 C899 1.267 . S
O911 Pr881 2.437 . S
O911 C899 1.278 . S
H912 C884 0.929 . S
H913 C885 0.929 . S
H914 C887 0.931 . S
H915 C888 0.930 . S
H916 C893 0.929 . S
H917 C894 0.929 . S
H918 C896 0.931 . S
H919 C897 0.930 . S
Pr920 C922 2.880 . S
Pr920 O940 2.562 . S
Pr920 O941 2.490 . S
Pr920 O942 2.695 . S
Pr920 O943 2.512 . S
Pr920 O945 2.437 . S
Pr920 O948 2.436 . S
Pr920 O950 2.438 . S
Pr921 C931 2.880 . S
Pr921 O942 2.436 . S
Pr921 O944 2.438 . S
Pr921 O946 2.562 . S
Pr921 O947 2.490 . S
Pr921 O948 2.695 . S
Pr921 O949 2.512 . S
Pr921 O951 2.437 . S
C922 Pr920 2.880 . S
C922 C923 1.491 . S
C922 O940 1.254 . S
C922 O941 1.225 . S
C923 C922 1.491 . S
C923 C924 1.392 . S
C923 C928 1.356 . S
C924 C923 1.392 . S
C924 C925 1.368 . S
C924 H952 0.929 . S
C925 C924 1.368 . S
C925 C926 1.386 . S
C925 H953 0.929 . S
C926 C925 1.386 . S
C926 C927 1.373 . S
C927 C926 1.373 . S
C927 C928 1.409 . S
C927 H954 0.931 . S
C928 C923 1.356 . S
C928 C927 1.409 . S
C928 H955 0.930 . S
C929 O942 1.270 . S
C929 O943 1.248 . S
C930 O944 1.267 . S
C930 O945 1.278 . S
C931 Pr921 2.880 . S
C931 C932 1.491 . S
C931 O946 1.254 . S
C931 O947 1.225 . S
C932 C931 1.491 . S
C932 C933 1.392 . S
C932 C937 1.356 . S
C933 C932 1.392 . S
C933 C934 1.368 . S
C933 H956 0.929 . S
C934 C933 1.368 . S
C934 C935 1.386 . S
C934 H957 0.929 . S
C935 C934 1.386 . S
C935 C936 1.373 . S
C936 C935 1.373 . S
C936 C937 1.409 . S
C936 H958 0.931 . S
C937 C932 1.356 . S
C937 C936 1.409 . S
C937 H959 0.930 . S
C938 O948 1.270 . S
C938 O949 1.248 . S
C939 O950 1.267 . S
C939 O951 1.278 . S
O940 Pr920 2.562 . S
O940 C922 1.254 . S
O941 Pr920 2.490 . S
O941 C922 1.225 . S
O942 Pr920 2.695 . S
O942 Pr921 2.436 . S
O942 C929 1.270 . S
O943 Pr920 2.512 . S
O943 C929 1.248 . S
O944 Pr921 2.438 . S
O944 C930 1.267 . S
O945 Pr920 2.437 . S
O945 C930 1.278 . S
O946 Pr921 2.562 . S
O946 C931 1.254 . S
O947 Pr921 2.490 . S
O947 C931 1.225 . S
O948 Pr920 2.436 . S
O948 Pr921 2.695 . S
O948 C938 1.270 . S
O949 Pr921 2.512 . S
O949 C938 1.248 . S
O950 Pr920 2.438 . S
O950 C939 1.267 . S
O951 Pr921 2.437 . S
O951 C939 1.278 . S
H952 C924 0.929 . S
H953 C925 0.929 . S
H954 C927 0.931 . S
H955 C928 0.930 . S
H956 C933 0.929 . S
H957 C934 0.929 . S
H958 C936 0.931 . S
H959 C937 0.930 . S
Pr960 C962 2.880 . S
Pr960 O980 2.562 . S
Pr960 O981 2.490 . S
Pr960 O982 2.695 . S
Pr960 O983 2.512 . S
Pr960 O985 2.437 . S
Pr960 O988 2.436 . S
Pr960 O990 2.438 . S
Pr961 C971 2.880 . S
Pr961 O982 2.436 . S
Pr961 O984 2.438 . S
Pr961 O986 2.562 . S
Pr961 O987 2.490 . S
Pr961 O988 2.695 . S
Pr961 O989 2.512 . S
Pr961 O991 2.437 . S
C962 Pr960 2.880 . S
C962 C963 1.491 . S
C962 O980 1.254 . S
C962 O981 1.225 . S
C963 C962 1.491 . S
C963 C964 1.392 . S
C963 C968 1.356 . S
C964 C963 1.392 . S
C964 C965 1.368 . S
C964 H992 0.929 . S
C965 C964 1.368 . S
C965 C966 1.386 . S
C965 H993 0.929 . S
C966 C965 1.386 . S
C966 C967 1.373 . S
C967 C966 1.373 . S
C967 C968 1.409 . S
C967 H994 0.931 . S
C968 C963 1.356 . S
C968 C967 1.409 . S
C968 H995 0.930 . S
C969 O982 1.270 . S
C969 O983 1.248 . S
C970 O984 1.267 . S
C970 O985 1.278 . S
C971 Pr961 2.880 . S
C971 C972 1.491 . S
C971 O986 1.254 . S
C971 O987 1.225 . S
C972 C971 1.491 . S
C972 C973 1.392 . S
C972 C977 1.356 . S
C973 C972 1.392 . S
C973 C974 1.368 . S
C973 H996 0.929 . S
C974 C973 1.368 . S
C974 C975 1.386 . S
C974 H997 0.929 . S
C975 C974 1.386 . S
C975 C976 1.373 . S
C976 C975 1.373 . S
C976 C977 1.409 . S
C976 H998 0.931 . S
C977 C972 1.356 . S
C977 C976 1.409 . S
C977 H999 0.930 . S
C978 O988 1.270 . S
C978 O989 1.248 . S
C979 O990 1.267 . S
C979 O991 1.278 . S
O980 Pr960 2.562 . S
O980 C962 1.254 . S
O981 Pr960 2.490 . S
O981 C962 1.225 . S
O982 Pr960 2.695 . S
O982 Pr961 2.436 . S
O982 C969 1.270 . S
O983 Pr960 2.512 . S
O983 C969 1.248 . S
O984 Pr961 2.438 . S
O984 C970 1.267 . S
O985 Pr960 2.437 . S
O985 C970 1.278 . S
O986 Pr961 2.562 . S
O986 C971 1.254 . S
O987 Pr961 2.490 . S
O987 C971 1.225 . S
O988 Pr960 2.436 . S
O988 Pr961 2.695 . S
O988 C978 1.270 . S
O989 Pr961 2.512 . S
O989 C978 1.248 . S
O990 Pr960 2.438 . S
O990 C979 1.267 . S
O991 Pr961 2.437 . S
O991 C979 1.278 . S
H992 C964 0.929 . S
H993 C965 0.929 . S
H994 C967 0.931 . S
H995 C968 0.930 . S
H996 C973 0.929 . S
H997 C974 0.929 . S
H998 C976 0.931 . S
H999 C977 0.930 . S
Pr1000 C1002 2.880 . S
Pr1000 O1020 2.562 . S
Pr1000 O1021 2.490 . S
Pr1000 O1022 2.695 . S
Pr1000 O1023 2.512 . S
Pr1000 O1025 2.437 . S
Pr1000 O1028 2.436 . S
Pr1000 O1030 2.438 . S
Pr1001 C1011 2.880 . S
Pr1001 O1022 2.436 . S
Pr1001 O1024 2.438 . S
Pr1001 O1026 2.562 . S
Pr1001 O1027 2.490 . S
Pr1001 O1028 2.695 . S
Pr1001 O1029 2.512 . S
Pr1001 O1031 2.437 . S
C1002 Pr1000 2.880 . S
C1002 C1003 1.491 . S
C1002 O1020 1.254 . S
C1002 O1021 1.225 . S
C1003 C1002 1.491 . S
C1003 C1004 1.392 . S
C1003 C1008 1.356 . S
C1004 C1003 1.392 . S
C1004 C1005 1.368 . S
C1004 H1032 0.929 . S
C1005 C1004 1.368 . S
C1005 C1006 1.386 . S
C1005 H1033 0.929 . S
C1006 C1005 1.386 . S
C1006 C1007 1.373 . S
C1007 C1006 1.373 . S
C1007 C1008 1.409 . S
C1007 H1034 0.931 . S
C1008 C1003 1.356 . S
C1008 C1007 1.409 . S
C1008 H1035 0.930 . S
C1009 O1022 1.270 . S
C1009 O1023 1.248 . S
C1010 O1024 1.267 . S
C1010 O1025 1.278 . S
C1011 Pr1001 2.880 . S
C1011 C1012 1.491 . S
C1011 O1026 1.254 . S
C1011 O1027 1.225 . S
C1012 C1011 1.491 . S
C1012 C1013 1.392 . S
C1012 C1017 1.356 . S
C1013 C1012 1.392 . S
C1013 C1014 1.368 . S
C1013 H1036 0.929 . S
C1014 C1013 1.368 . S
C1014 C1015 1.386 . S
C1014 H1037 0.929 . S
C1015 C1014 1.386 . S
C1015 C1016 1.373 . S
C1016 C1015 1.373 . S
C1016 C1017 1.409 . S
C1016 H1038 0.931 . S
C1017 C1012 1.356 . S
C1017 C1016 1.409 . S
C1017 H1039 0.930 . S
C1018 O1028 1.270 . S
C1018 O1029 1.248 . S
C1019 O1030 1.267 . S
C1019 O1031 1.278 . S
O1020 Pr1000 2.562 . S
O1020 C1002 1.254 . S
O1021 Pr1000 2.490 . S
O1021 C1002 1.225 . S
O1022 Pr1000 2.695 . S
O1022 Pr1001 2.436 . S
O1022 C1009 1.270 . S
O1023 Pr1000 2.512 . S
O1023 C1009 1.248 . S
O1024 Pr1001 2.438 . S
O1024 C1010 1.267 . S
O1025 Pr1000 2.437 . S
O1025 C1010 1.278 . S
O1026 Pr1001 2.562 . S
O1026 C1011 1.254 . S
O1027 Pr1001 2.490 . S
O1027 C1011 1.225 . S
O1028 Pr1000 2.436 . S
O1028 Pr1001 2.695 . S
O1028 C1018 1.270 . S
O1029 Pr1001 2.512 . S
O1029 C1018 1.248 . S
O1030 Pr1000 2.438 . S
O1030 C1019 1.267 . S
O1031 Pr1001 2.437 . S
O1031 C1019 1.278 . S
H1032 C1004 0.929 . S
H1033 C1005 0.929 . S
H1034 C1007 0.931 . S
H1035 C1008 0.930 . S
H1036 C1013 0.929 . S
H1037 C1014 0.929 . S
H1038 C1016 0.931 . S
H1039 C1017 0.930 . S
Pr1040 C1042 2.880 . S
Pr1040 O1060 2.562 . S
Pr1040 O1061 2.490 . S
Pr1040 O1062 2.695 . S
Pr1040 O1063 2.512 . S
Pr1040 O1065 2.437 . S
Pr1040 O1068 2.436 . S
Pr1040 O1070 2.438 . S
Pr1041 C1051 2.880 . S
Pr1041 O1062 2.436 . S
Pr1041 O1064 2.438 . S
Pr1041 O1066 2.562 . S
Pr1041 O1067 2.490 . S
Pr1041 O1068 2.695 . S
Pr1041 O1069 2.512 . S
Pr1041 O1071 2.437 . S
C1042 Pr1040 2.880 . S
C1042 C1043 1.491 . S
C1042 O1060 1.254 . S
C1042 O1061 1.225 . S
C1043 C1042 1.491 . S
C1043 C1044 1.392 . S
C1043 C1048 1.356 . S
C1044 C1043 1.392 . S
C1044 C1045 1.368 . S
C1044 H1072 0.929 . S
C1045 C1044 1.368 . S
C1045 C1046 1.386 . S
C1045 H1073 0.929 . S
C1046 C1045 1.386 . S
C1046 C1047 1.373 . S
C1047 C1046 1.373 . S
C1047 C1048 1.409 . S
C1047 H1074 0.931 . S
C1048 C1043 1.356 . S
C1048 C1047 1.409 . S
C1048 H1075 0.930 . S
C1049 O1062 1.270 . S
C1049 O1063 1.248 . S
C1050 O1064 1.267 . S
C1050 O1065 1.278 . S
C1051 Pr1041 2.880 . S
C1051 C1052 1.491 . S
C1051 O1066 1.254 . S
C1051 O1067 1.225 . S
C1052 C1051 1.491 . S
C1052 C1053 1.392 . S
C1052 C1057 1.356 . S
C1053 C1052 1.392 . S
C1053 C1054 1.368 . S
C1053 H1076 0.929 . S
C1054 C1053 1.368 . S
C1054 C1055 1.386 . S
C1054 H1077 0.929 . S
C1055 C1054 1.386 . S
C1055 C1056 1.373 . S
C1056 C1055 1.373 . S
C1056 C1057 1.409 . S
C1056 H1078 0.931 . S
C1057 C1052 1.356 . S
C1057 C1056 1.409 . S
C1057 H1079 0.930 . S
C1058 O1068 1.270 . S
C1058 O1069 1.248 . S
C1059 O1070 1.267 . S
C1059 O1071 1.278 . S
O1060 Pr1040 2.562 . S
O1060 C1042 1.254 . S
O1061 Pr1040 2.490 . S
O1061 C1042 1.225 . S
O1062 Pr1040 2.695 . S
O1062 Pr1041 2.436 . S
O1062 C1049 1.270 . S
O1063 Pr1040 2.512 . S
O1063 C1049 1.248 . S
O1064 Pr1041 2.438 . S
O1064 C1050 1.267 . S
O1065 Pr1040 2.437 . S
O1065 C1050 1.278 . S
O1066 Pr1041 2.562 . S
O1066 C1051 1.254 . S
O1067 Pr1041 2.490 . S
O1067 C1051 1.225 . S
O1068 Pr1040 2.436 . S
O1068 Pr1041 2.695 . S
O1068 C1058 1.270 . S
O1069 Pr1041 2.512 . S
O1069 C1058 1.248 . S
O1070 Pr1040 2.438 . S
O1070 C1059 1.267 . S
O1071 Pr1041 2.437 . S
O1071 C1059 1.278 . S
H1072 C1044 0.929 . S
H1073 C1045 0.929 . S
H1074 C1047 0.931 . S
H1075 C1048 0.930 . S
H1076 C1053 0.929 . S
H1077 C1054 0.929 . S
H1078 C1056 0.931 . S
H1079 C1057 0.930 . S
Pr1080 C1082 2.880 . S
Pr1080 O1100 2.562 . S
Pr1080 O1101 2.490 . S
Pr1080 O1102 2.695 . S
Pr1080 O1103 2.512 . S
Pr1080 O1105 2.437 . S
Pr1080 O1108 2.436 . S
Pr1080 O1110 2.438 . S
Pr1081 C1091 2.880 1_455 S
Pr1081 O1102 2.436 . S
Pr1081 O1104 2.438 . S
Pr1081 O1106 2.562 1_455 S
Pr1081 O1107 2.490 1_455 S
Pr1081 O1108 2.695 . S
Pr1081 O1109 2.512 . S
Pr1081 O1111 2.437 . S
C1082 Pr1080 2.880 . S
C1082 C1083 1.491 . S
C1082 O1100 1.254 . S
C1082 O1101 1.225 . S
C1083 C1082 1.491 . S
C1083 C1084 1.392 . S
C1083 C1088 1.356 . S
C1084 C1083 1.392 . S
C1084 C1085 1.368 . S
C1084 H1112 0.929 . S
C1085 C1084 1.368 . S
C1085 C1086 1.386 . S
C1085 H1113 0.929 . S
C1086 C1085 1.386 . S
C1086 C1087 1.373 . S
C1087 C1086 1.373 . S
C1087 C1088 1.409 . S
C1087 H1114 0.931 . S
C1088 C1083 1.356 . S
C1088 C1087 1.409 . S
C1088 H1115 0.930 . S
C1089 O1102 1.270 . S
C1089 O1103 1.248 . S
C1090 O1104 1.267 . S
C1090 O1105 1.278 . S
C1091 Pr1081 2.880 1_655 S
C1091 C1092 1.491 . S
C1091 O1106 1.254 . S
C1091 O1107 1.225 . S
C1092 C1091 1.491 . S
C1092 C1093 1.392 . S
C1092 C1097 1.356 . S
C1093 C1092 1.392 . S
C1093 C1094 1.368 . S
C1093 H1116 0.929 . S
C1094 C1093 1.368 . S
C1094 C1095 1.386 . S
C1094 H1117 0.929 . S
C1095 C1094 1.386 . S
C1095 C1096 1.373 . S
C1096 C1095 1.373 . S
C1096 C1097 1.409 . S
C1096 H1118 0.931 . S
C1097 C1092 1.356 . S
C1097 C1096 1.409 . S
C1097 H1119 0.930 . S
C1098 O1108 1.270 . S
C1098 O1109 1.248 . S
C1099 O1110 1.267 . S
C1099 O1111 1.278 . S
O1100 Pr1080 2.562 . S
O1100 C1082 1.254 . S
O1101 Pr1080 2.490 . S
O1101 C1082 1.225 . S
O1102 Pr1080 2.695 . S
O1102 Pr1081 2.436 . S
O1102 C1089 1.270 . S
O1103 Pr1080 2.512 . S
O1103 C1089 1.248 . S
O1104 Pr1081 2.438 . S
O1104 C1090 1.267 . S
O1105 Pr1080 2.437 . S
O1105 C1090 1.278 . S
O1106 Pr1081 2.562 1_655 S
O1106 C1091 1.254 . S
O1107 Pr1081 2.490 1_655 S
O1107 C1091 1.225 . S
O1108 Pr1080 2.436 . S
O1108 Pr1081 2.695 . S
O1108 C1098 1.270 . S
O1109 Pr1081 2.512 . S
O1109 C1098 1.248 . S
O1110 Pr1080 2.438 . S
O1110 C1099 1.267 . S
O1111 Pr1081 2.437 . S
O1111 C1099 1.278 . S
H1112 C1084 0.929 . S
H1113 C1085 0.929 . S
H1114 C1087 0.931 . S
H1115 C1088 0.930 . S
H1116 C1093 0.929 . S
H1117 C1094 0.929 . S
H1118 C1096 0.931 . S
H1119 C1097 0.930 . S
Pr1120 C1122 2.880 . S
Pr1120 O1140 2.562 . S
Pr1120 O1141 2.490 . S
Pr1120 O1142 2.695 . S
Pr1120 O1143 2.512 . S
Pr1120 O1145 2.437 . S
Pr1120 O1148 2.436 . S
Pr1120 O1150 2.438 . S
Pr1121 C1131 2.880 . S
Pr1121 O1142 2.436 . S
Pr1121 O1144 2.438 . S
Pr1121 O1146 2.562 . S
Pr1121 O1147 2.490 . S
Pr1121 O1148 2.695 . S
Pr1121 O1149 2.512 . S
Pr1121 O1151 2.437 . S
C1122 Pr1120 2.880 . S
C1122 C1123 1.491 . S
C1122 O1140 1.254 . S
C1122 O1141 1.225 . S
C1123 C1122 1.491 . S
C1123 C1124 1.392 . S
C1123 C1128 1.356 . S
C1124 C1123 1.392 . S
C1124 C1125 1.368 . S
C1124 H1152 0.929 . S
C1125 C1124 1.368 . S
C1125 C1126 1.386 . S
C1125 H1153 0.929 . S
C1126 C1125 1.386 . S
C1126 C1127 1.373 . S
C1127 C1126 1.373 . S
C1127 C1128 1.409 . S
C1127 H1154 0.931 . S
C1128 C1123 1.356 . S
C1128 C1127 1.409 . S
C1128 H1155 0.930 . S
C1129 O1142 1.270 . S
C1129 O1143 1.248 . S
C1130 O1144 1.267 . S
C1130 O1145 1.278 . S
C1131 Pr1121 2.880 . S
C1131 C1132 1.491 . S
C1131 O1146 1.254 . S
C1131 O1147 1.225 . S
C1132 C1131 1.491 . S
C1132 C1133 1.392 . S
C1132 C1137 1.356 . S
C1133 C1132 1.392 . S
C1133 C1134 1.368 . S
C1133 H1156 0.929 . S
C1134 C1133 1.368 . S
C1134 C1135 1.386 . S
C1134 H1157 0.929 . S
C1135 C1134 1.386 . S
C1135 C1136 1.373 . S
C1136 C1135 1.373 . S
C1136 C1137 1.409 . S
C1136 H1158 0.931 . S
C1137 C1132 1.356 . S
C1137 C1136 1.409 . S
C1137 H1159 0.930 . S
C1138 O1148 1.270 . S
C1138 O1149 1.248 . S
C1139 O1150 1.267 . S
C1139 O1151 1.278 . S
O1140 Pr1120 2.562 . S
O1140 C1122 1.254 . S
O1141 Pr1120 2.490 . S
O1141 C1122 1.225 . S
O1142 Pr1120 2.695 . S
O1142 Pr1121 2.436 . S
O1142 C1129 1.270 . S
O1143 Pr1120 2.512 . S
O1143 C1129 1.248 . S
O1144 Pr1121 2.438 . S
O1144 C1130 1.267 . S
O1145 Pr1120 2.437 . S
O1145 C1130 1.278 . S
O1146 Pr1121 2.562 . S
O1146 C1131 1.254 . S
O1147 Pr1121 2.490 . S
O1147 C1131 1.225 . S
O1148 Pr1120 2.436 . S
O1148 Pr1121 2.695 . S
O1148 C1138 1.270 . S
O1149 Pr1121 2.512 . S
O1149 C1138 1.248 . S
O1150 Pr1120 2.438 . S
O1150 C1139 1.267 . S
O1151 Pr1121 2.437 . S
O1151 C1139 1.278 . S
H1152 C1124 0.929 . S
H1153 C1125 0.929 . S
H1154 C1127 0.931 . S
H1155 C1128 0.930 . S
H1156 C1133 0.929 . S
H1157 C1134 0.929 . S
H1158 C1136 0.931 . S
H1159 C1137 0.930 . S
Pr1160 C1162 2.880 . S
Pr1160 O1180 2.562 . S
Pr1160 O1181 2.490 . S
Pr1160 O1182 2.695 . S
Pr1160 O1183 2.512 . S
Pr1160 O1185 2.437 . S
Pr1160 O1188 2.436 . S
Pr1160 O1190 2.438 . S
Pr1161 C1171 2.880 1_455 S
Pr1161 O1182 2.436 . S
Pr1161 O1184 2.438 . S
Pr1161 O1186 2.562 1_455 S
Pr1161 O1187 2.490 1_455 S
Pr1161 O1188 2.695 . S
Pr1161 O1189 2.512 . S
Pr1161 O1191 2.437 . S
C1162 Pr1160 2.880 . S
C1162 C1163 1.491 . S
C1162 O1180 1.254 . S
C1162 O1181 1.225 . S
C1163 C1162 1.491 . S
C1163 C1164 1.392 . S
C1163 C1168 1.356 . S
C1164 C1163 1.392 . S
C1164 C1165 1.368 . S
C1164 H1192 0.929 . S
C1165 C1164 1.368 . S
C1165 C1166 1.386 . S
C1165 H1193 0.929 . S
C1166 C1165 1.386 . S
C1166 C1167 1.373 . S
C1167 C1166 1.373 . S
C1167 C1168 1.409 . S
C1167 H1194 0.931 . S
C1168 C1163 1.356 . S
C1168 C1167 1.409 . S
C1168 H1195 0.930 . S
C1169 O1182 1.270 . S
C1169 O1183 1.248 . S
C1170 O1184 1.267 . S
C1170 O1185 1.278 . S
C1171 Pr1161 2.880 1_655 S
C1171 C1172 1.491 . S
C1171 O1186 1.254 . S
C1171 O1187 1.225 . S
C1172 C1171 1.491 . S
C1172 C1173 1.392 . S
C1172 C1177 1.356 . S
C1173 C1172 1.392 . S
C1173 C1174 1.368 . S
C1173 H1196 0.929 . S
C1174 C1173 1.368 . S
C1174 C1175 1.386 . S
C1174 H1197 0.929 . S
C1175 C1174 1.386 . S
C1175 C1176 1.373 . S
C1176 C1175 1.373 . S
C1176 C1177 1.409 . S
C1176 H1198 0.931 . S
C1177 C1172 1.356 . S
C1177 C1176 1.409 . S
C1177 H1199 0.930 . S
C1178 O1188 1.270 . S
C1178 O1189 1.248 . S
C1179 O1190 1.267 . S
C1179 O1191 1.278 . S
O1180 Pr1160 2.562 . S
O1180 C1162 1.254 . S
O1181 Pr1160 2.490 . S
O1181 C1162 1.225 . S
O1182 Pr1160 2.695 . S
O1182 Pr1161 2.436 . S
O1182 C1169 1.270 . S
O1183 Pr1160 2.512 . S
O1183 C1169 1.248 . S
O1184 Pr1161 2.438 . S
O1184 C1170 1.267 . S
O1185 Pr1160 2.437 . S
O1185 C1170 1.278 . S
O1186 Pr1161 2.562 1_655 S
O1186 C1171 1.254 . S
O1187 Pr1161 2.490 1_655 S
O1187 C1171 1.225 . S
O1188 Pr1160 2.436 . S
O1188 Pr1161 2.695 . S
O1188 C1178 1.270 . S
O1189 Pr1161 2.512 . S
O1189 C1178 1.248 . S
O1190 Pr1160 2.438 . S
O1190 C1179 1.267 . S
O1191 Pr1161 2.437 . S
O1191 C1179 1.278 . S
H1192 C1164 0.929 . S
H1193 C1165 0.929 . S
H1194 C1167 0.931 . S
H1195 C1168 0.930 . S
H1196 C1173 0.929 . S
H1197 C1174 0.929 . S
H1198 C1176 0.931 . S
H1199 C1177 0.930 . S
Pr1200 C1202 2.880 . S
Pr1200 O1220 2.562 . S
Pr1200 O1221 2.490 . S
Pr1200 O1222 2.695 . S
Pr1200 O1223 2.512 . S
Pr1200 O1225 2.437 . S
Pr1200 O1228 2.436 . S
Pr1200 O1230 2.438 . S
Pr1201 C1211 2.880 . S
Pr1201 O1222 2.436 . S
Pr1201 O1224 2.438 . S
Pr1201 O1226 2.562 . S
Pr1201 O1227 2.490 . S
Pr1201 O1228 2.695 . S
Pr1201 O1229 2.512 . S
Pr1201 O1231 2.437 . S
C1202 Pr1200 2.880 . S
C1202 C1203 1.491 . S
C1202 O1220 1.254 . S
C1202 O1221 1.225 . S
C1203 C1202 1.491 . S
C1203 C1204 1.392 . S
C1203 C1208 1.356 . S
C1204 C1203 1.392 . S
C1204 C1205 1.368 . S
C1204 H1232 0.929 . S
C1205 C1204 1.368 . S
C1205 C1206 1.386 . S
C1205 H1233 0.929 . S
C1206 C1205 1.386 . S
C1206 C1207 1.373 . S
C1207 C1206 1.373 . S
C1207 C1208 1.409 . S
C1207 H1234 0.931 . S
C1208 C1203 1.356 . S
C1208 C1207 1.409 . S
C1208 H1235 0.930 . S
C1209 O1222 1.270 . S
C1209 O1223 1.248 . S
C1210 O1224 1.267 . S
C1210 O1225 1.278 . S
C1211 Pr1201 2.880 . S
C1211 C1212 1.491 . S
C1211 O1226 1.254 . S
C1211 O1227 1.225 . S
C1212 C1211 1.491 . S
C1212 C1213 1.392 . S
C1212 C1217 1.356 . S
C1213 C1212 1.392 . S
C1213 C1214 1.368 . S
C1213 H1236 0.929 . S
C1214 C1213 1.368 . S
C1214 C1215 1.386 . S
C1214 H1237 0.929 . S
C1215 C1214 1.386 . S
C1215 C1216 1.373 . S
C1216 C1215 1.373 . S
C1216 C1217 1.409 . S
C1216 H1238 0.931 . S
C1217 C1212 1.356 . S
C1217 C1216 1.409 . S
C1217 H1239 0.930 . S
C1218 O1228 1.270 . S
C1218 O1229 1.248 . S
C1219 O1230 1.267 . S
C1219 O1231 1.278 . S
O1220 Pr1200 2.562 . S
O1220 C1202 1.254 . S
O1221 Pr1200 2.490 . S
O1221 C1202 1.225 . S
O1222 Pr1200 2.695 . S
O1222 Pr1201 2.436 . S
O1222 C1209 1.270 . S
O1223 Pr1200 2.512 . S
O1223 C1209 1.248 . S
O1224 Pr1201 2.438 . S
O1224 C1210 1.267 . S
O1225 Pr1200 2.437 . S
O1225 C1210 1.278 . S
O1226 Pr1201 2.562 . S
O1226 C1211 1.254 . S
O1227 Pr1201 2.490 . S
O1227 C1211 1.225 . S
O1228 Pr1200 2.436 . S
O1228 Pr1201 2.695 . S
O1228 C1218 1.270 . S
O1229 Pr1201 2.512 . S
O1229 C1218 1.248 . S
O1230 Pr1200 2.438 . S
O1230 C1219 1.267 . S
O1231 Pr1201 2.437 . S
O1231 C1219 1.278 . S
H1232 C1204 0.929 . S
H1233 C1205 0.929 . S
H1234 C1207 0.931 . S
H1235 C1208 0.930 . S
H1236 C1213 0.929 . S
H1237 C1214 0.929 . S
H1238 C1216 0.931 . S
H1239 C1217 0.930 . S
Pr1240 C1242 2.880 . S
Pr1240 O1260 2.562 . S
Pr1240 O1261 2.490 . S
Pr1240 O1262 2.695 . S
Pr1240 O1263 2.512 . S
Pr1240 O1265 2.437 . S
Pr1240 O1268 2.436 . S
Pr1240 O1270 2.438 . S
Pr1241 C1251 2.880 . S
Pr1241 O1262 2.436 . S
Pr1241 O1264 2.438 . S
Pr1241 O1266 2.562 . S
Pr1241 O1267 2.490 . S
Pr1241 O1268 2.695 . S
Pr1241 O1269 2.512 . S
Pr1241 O1271 2.437 . S
C1242 Pr1240 2.880 . S
C1242 C1243 1.491 . S
C1242 O1260 1.254 . S
C1242 O1261 1.225 . S
C1243 C1242 1.491 . S
C1243 C1244 1.392 . S
C1243 C1248 1.356 . S
C1244 C1243 1.392 . S
C1244 C1245 1.368 . S
C1244 H1272 0.929 . S
C1245 C1244 1.368 . S
C1245 C1246 1.386 . S
C1245 H1273 0.929 . S
C1246 C1245 1.386 . S
C1246 C1247 1.373 . S
C1247 C1246 1.373 . S
C1247 C1248 1.409 . S
C1247 H1274 0.931 . S
C1248 C1243 1.356 . S
C1248 C1247 1.409 . S
C1248 H1275 0.930 . S
C1249 O1262 1.270 . S
C1249 O1263 1.248 . S
C1250 O1264 1.267 . S
C1250 O1265 1.278 . S
C1251 Pr1241 2.880 . S
C1251 C1252 1.491 . S
C1251 O1266 1.254 . S
C1251 O1267 1.225 . S
C1252 C1251 1.491 . S
C1252 C1253 1.392 . S
C1252 C1257 1.356 . S
C1253 C1252 1.392 . S
C1253 C1254 1.368 . S
C1253 H1276 0.929 . S
C1254 C1253 1.368 . S
C1254 C1255 1.386 . S
C1254 H1277 0.929 . S
C1255 C1254 1.386 . S
C1255 C1256 1.373 . S
C1256 C1255 1.373 . S
C1256 C1257 1.409 . S
C1256 H1278 0.931 . S
C1257 C1252 1.356 . S
C1257 C1256 1.409 . S
C1257 H1279 0.930 . S
C1258 O1268 1.270 . S
C1258 O1269 1.248 . S
C1259 O1270 1.267 . S
C1259 O1271 1.278 . S
O1260 Pr1240 2.562 . S
O1260 C1242 1.254 . S
O1261 Pr1240 2.490 . S
O1261 C1242 1.225 . S
O1262 Pr1240 2.695 . S
O1262 Pr1241 2.436 . S
O1262 C1249 1.270 . S
O1263 Pr1240 2.512 . S
O1263 C1249 1.248 . S
O1264 Pr1241 2.438 . S
O1264 C1250 1.267 . S
O1265 Pr1240 2.437 . S
O1265 C1250 1.278 . S
O1266 Pr1241 2.562 . S
O1266 C1251 1.254 . S
O1267 Pr1241 2.490 . S
O1267 C1251 1.225 . S
O1268 Pr1240 2.436 . S
O1268 Pr1241 2.695 . S
O1268 C1258 1.270 . S
O1269 Pr1241 2.512 . S
O1269 C1258 1.248 . S
O1270 Pr1240 2.438 . S
O1270 C1259 1.267 . S
O1271 Pr1241 2.437 . S
O1271 C1259 1.278 . S
H1272 C1244 0.929 . S
H1273 C1245 0.929 . S
H1274 C1247 0.931 . S
H1275 C1248 0.930 . S
H1276 C1253 0.929 . S
H1277 C1254 0.929 . S
H1278 C1256 0.931 . S
H1279 C1257 0.930 . S
H1280 C1288 0.929 . S
H1281 C1290 0.930 . S
H1282 C1292 0.930 . S
H1283 C1295 0.929 . S
H1284 C1298 0.930 . S
H1285 C1300 0.960 . S
H1286 C1300 0.960 . S
H1287 C1300 0.960 . S
C1288 H1280 0.929 . S
C1288 C1289 1.377 . S
C1288 C1290 1.384 . S
C1289 C1288 1.377 . S
C1289 C1295 1.390 . S
C1290 H1281 0.930 . S
C1290 C1288 1.384 . S
C1290 C1291 1.372 . S
C1291 C1290 1.372 . S
C1291 C1292 1.400 . S
C1291 C1296 1.490 . S
C1292 H1282 0.930 . S
C1292 C1291 1.400 . S
C1292 C1295 1.386 . S
H1293 C1309 0.930 . S
H1294 C1310 0.931 . S
C1295 H1283 0.929 . S
C1295 C1289 1.390 . S
C1295 C1292 1.386 . S
C1296 C1291 1.490 . S
C1296 C1298 1.395 . S
C1296 C1299 1.403 . S
H1297 C1303 0.930 . S
C1298 H1284 0.930 . S
C1298 C1296 1.395 . S
C1298 C1301 1.403 . S
C1299 C1296 1.403 . S
C1299 C1300 1.524 . S
C1299 C1303 1.400 . S
C1300 H1285 0.960 . S
C1300 H1286 0.960 . S
C1300 H1287 0.960 . S
C1300 C1299 1.524 . S
C1301 C1298 1.403 . S
C1301 C1302 1.392 . S
C1301 C1305 1.495 . S
C1302 C1301 1.392 . S
C1302 C1303 1.385 . S
C1302 C1304 1.478 . S
C1303 H1297 0.930 . S
C1303 C1299 1.400 . S
C1303 C1302 1.385 . S
C1304 C1302 1.478 . S
C1304 C1306 1.381 . S
C1304 C1310 1.383 . S
C1305 C1301 1.495 . S
C1305 H1311 0.959 . S
C1305 H1312 0.961 . S
C1305 H1313 0.960 . S
C1306 C1304 1.381 . S
C1306 C1307 1.394 . S
C1306 H1314 0.930 . S
C1307 C1306 1.394 . S
C1307 C1308 1.383 . S
C1307 H1315 0.929 . S
C1308 C1307 1.383 . S
C1308 C1309 1.377 . S
C1309 H1293 0.930 . S
C1309 C1308 1.377 . S
C1309 C1310 1.379 . S
C1310 H1294 0.931 . S
C1310 C1304 1.383 . S
C1310 C1309 1.379 . S
H1311 C1305 0.959 . S
H1312 C1305 0.961 . S
H1313 C1305 0.960 . S
H1314 C1306 0.930 . S
H1315 C1307 0.929 . S
H1316 C1324 0.929 . S
H1317 C1326 0.930 . S
H1318 C1328 0.930 . S
H1319 C1331 0.929 . S
H1320 C1334 0.930 . S
H1321 C1336 0.960 . S
H1322 C1336 0.960 . S
H1323 C1336 0.960 . S
C1324 H1316 0.929 . S
C1324 C1325 1.377 . S
C1324 C1326 1.384 . S
C1325 C1324 1.377 . S
C1325 C1331 1.390 . S
C1326 H1317 0.930 . S
C1326 C1324 1.384 . S
C1326 C1327 1.372 . S
C1327 C1326 1.372 . S
C1327 C1328 1.400 . S
C1327 C1332 1.490 . S
C1328 H1318 0.930 . S
C1328 C1327 1.400 . S
C1328 C1331 1.386 . S
H1329 C1345 0.930 . S
H1330 C1346 0.931 . S
C1331 H1319 0.929 . S
C1331 C1325 1.390 . S
C1331 C1328 1.386 . S
C1332 C1327 1.490 . S
C1332 C1334 1.395 . S
C1332 C1335 1.403 . S
H1333 C1339 0.930 . S
C1334 H1320 0.930 . S
C1334 C1332 1.395 . S
C1334 C1337 1.403 . S
C1335 C1332 1.403 . S
C1335 C1336 1.524 . S
C1335 C1339 1.400 . S
C1336 H1321 0.960 . S
C1336 H1322 0.960 . S
C1336 H1323 0.960 . S
C1336 C1335 1.524 . S
C1337 C1334 1.403 . S
C1337 C1338 1.392 . S
C1337 C1341 1.495 . S
C1338 C1337 1.392 . S
C1338 C1339 1.385 . S
C1338 C1340 1.478 . S
C1339 H1333 0.930 . S
C1339 C1335 1.400 . S
C1339 C1338 1.385 . S
C1340 C1338 1.478 . S
C1340 C1342 1.381 . S
C1340 C1346 1.383 . S
C1341 C1337 1.495 . S
C1341 H1347 0.959 . S
C1341 H1348 0.961 . S
C1341 H1349 0.960 . S
C1342 C1340 1.381 . S
C1342 C1343 1.394 . S
C1342 H1350 0.930 . S
C1343 C1342 1.394 . S
C1343 C1344 1.383 . S
C1343 H1351 0.929 . S
C1344 C1343 1.383 . S
C1344 C1345 1.377 . S
C1345 H1329 0.930 . S
C1345 C1344 1.377 . S
C1345 C1346 1.379 . S
C1346 H1330 0.931 . S
C1346 C1340 1.383 . S
C1346 C1345 1.379 . S
H1347 C1341 0.959 . S
H1348 C1341 0.961 . S
H1349 C1341 0.960 . S
H1350 C1342 0.930 . S
H1351 C1343 0.929 . S
H1352 C1360 0.929 . S
H1353 C1362 0.930 . S
H1354 C1364 0.930 . S
H1355 C1367 0.929 . S
H1356 C1370 0.930 . S
H1357 C1372 0.960 . S
H1358 C1372 0.960 . S
H1359 C1372 0.960 . S
C1360 H1352 0.929 . S
C1360 C1361 1.377 . S
C1360 C1362 1.384 . S
C1361 C1360 1.377 . S
C1361 C1367 1.390 . S
C1362 H1353 0.930 . S
C1362 C1360 1.384 . S
C1362 C1363 1.372 . S
C1363 C1362 1.372 . S
C1363 C1364 1.400 . S
C1363 C1368 1.490 . S
C1364 H1354 0.930 . S
C1364 C1363 1.400 . S
C1364 C1367 1.386 . S
H1365 C1381 0.930 . S
H1366 C1382 0.931 . S
C1367 H1355 0.929 . S
C1367 C1361 1.390 . S
C1367 C1364 1.386 . S
C1368 C1363 1.490 . S
C1368 C1370 1.395 . S
C1368 C1371 1.403 . S
H1369 C1375 0.930 . S
C1370 H1356 0.930 . S
C1370 C1368 1.395 . S
C1370 C1373 1.403 . S
C1371 C1368 1.403 . S
C1371 C1372 1.524 . S
C1371 C1375 1.400 . S
C1372 H1357 0.960 . S
C1372 H1358 0.960 . S
C1372 H1359 0.960 . S
C1372 C1371 1.524 . S
C1373 C1370 1.403 . S
C1373 C1374 1.392 . S
C1373 C1377 1.495 . S
C1374 C1373 1.392 . S
C1374 C1375 1.385 . S
C1374 C1376 1.478 . S
C1375 H1369 0.930 . S
C1375 C1371 1.400 . S
C1375 C1374 1.385 . S
C1376 C1374 1.478 . S
C1376 C1378 1.381 . S
C1376 C1382 1.383 . S
C1377 C1373 1.495 . S
C1377 H1383 0.959 . S
C1377 H1384 0.961 . S
C1377 H1385 0.960 . S
C1378 C1376 1.381 . S
C1378 C1379 1.394 . S
C1378 H1386 0.930 . S
C1379 C1378 1.394 . S
C1379 C1380 1.383 . S
C1379 H1387 0.929 . S
C1380 C1379 1.383 . S
C1380 C1381 1.377 . S
C1381 H1365 0.930 . S
C1381 C1380 1.377 . S
C1381 C1382 1.379 . S
C1382 H1366 0.931 . S
C1382 C1376 1.383 . S
C1382 C1381 1.379 . S
H1383 C1377 0.959 . S
H1384 C1377 0.961 . S
H1385 C1377 0.960 . S
H1386 C1378 0.930 . S
H1387 C1379 0.929 . S
H1388 C1396 0.929 . S
H1389 C1398 0.930 . S
H1390 C1400 0.930 . S
H1391 C1403 0.929 . S
H1392 C1406 0.930 . S
H1393 C1408 0.960 . S
H1394 C1408 0.960 . S
H1395 C1408 0.960 . S
C1396 H1388 0.929 . S
C1396 C1397 1.377 . S
C1396 C1398 1.384 . S
C1397 C1396 1.377 . S
C1397 C1403 1.390 . S
C1398 H1389 0.930 . S
C1398 C1396 1.384 . S
C1398 C1399 1.372 . S
C1399 C1398 1.372 . S
C1399 C1400 1.400 . S
C1399 C1404 1.490 . S
C1400 H1390 0.930 . S
C1400 C1399 1.400 . S
C1400 C1403 1.386 . S
H1401 C1417 0.930 . S
H1402 C1418 0.931 . S
C1403 H1391 0.929 . S
C1403 C1397 1.390 . S
C1403 C1400 1.386 . S
C1404 C1399 1.490 . S
C1404 C1406 1.395 . S
C1404 C1407 1.403 . S
H1405 C1411 0.930 . S
C1406 H1392 0.930 . S
C1406 C1404 1.395 . S
C1406 C1409 1.403 . S
C1407 C1404 1.403 . S
C1407 C1408 1.524 . S
C1407 C1411 1.400 . S
C1408 H1393 0.960 . S
C1408 H1394 0.960 . S
C1408 H1395 0.960 . S
C1408 C1407 1.524 . S
C1409 C1406 1.403 . S
C1409 C1410 1.392 . S
C1409 C1413 1.495 . S
C1410 C1409 1.392 . S
C1410 C1411 1.385 . S
C1410 C1412 1.478 . S
C1411 H1405 0.930 . S
C1411 C1407 1.400 . S
C1411 C1410 1.385 . S
C1412 C1410 1.478 . S
C1412 C1414 1.381 . S
C1412 C1418 1.383 . S
C1413 C1409 1.495 . S
C1413 H1419 0.959 . S
C1413 H1420 0.961 . S
C1413 H1421 0.960 . S
C1414 C1412 1.381 . S
C1414 C1415 1.394 . S
C1414 H1422 0.930 . S
C1415 C1414 1.394 . S
C1415 C1416 1.383 . S
C1415 H1423 0.929 . S
C1416 C1415 1.383 . S
C1416 C1417 1.377 . S
C1417 H1401 0.930 . S
C1417 C1416 1.377 . S
C1417 C1418 1.379 . S
C1418 H1402 0.931 . S
C1418 C1412 1.383 . S
C1418 C1417 1.379 . S
H1419 C1413 0.959 . S
H1420 C1413 0.961 . S
H1421 C1413 0.960 . S
H1422 C1414 0.930 . S
H1423 C1415 0.929 . S
H1424 C1432 0.929 . S
H1425 C1434 0.930 . S
H1426 C1436 0.930 . S
H1427 C1439 0.929 . S
H1428 C1442 0.930 . S
H1429 C1444 0.960 . S
H1430 C1444 0.960 . S
H1431 C1444 0.960 . S
C1432 H1424 0.929 . S
C1432 C1433 1.377 . S
C1432 C1434 1.384 . S
C1433 C1432 1.377 . S
C1433 C1439 1.390 . S
C1434 H1425 0.930 . S
C1434 C1432 1.384 . S
C1434 C1435 1.372 . S
C1435 C1434 1.372 . S
C1435 C1436 1.400 . S
C1435 C1440 1.490 . S
C1436 H1426 0.930 . S
C1436 C1435 1.400 . S
C1436 C1439 1.386 . S
H1437 C1453 0.930 . S
H1438 C1454 0.931 . S
C1439 H1427 0.929 . S
C1439 C1433 1.390 . S
C1439 C1436 1.386 . S
C1440 C1435 1.490 . S
C1440 C1442 1.395 . S
C1440 C1443 1.403 . S
H1441 C1447 0.930 . S
C1442 H1428 0.930 . S
C1442 C1440 1.395 . S
C1442 C1445 1.403 . S
C1443 C1440 1.403 . S
C1443 C1444 1.524 . S
C1443 C1447 1.400 . S
C1444 H1429 0.960 . S
C1444 H1430 0.960 . S
C1444 H1431 0.960 . S
C1444 C1443 1.524 . S
C1445 C1442 1.403 . S
C1445 C1446 1.392 . S
C1445 C1449 1.495 . S
C1446 C1445 1.392 . S
C1446 C1447 1.385 . S
C1446 C1448 1.478 . S
C1447 H1441 0.930 . S
C1447 C1443 1.400 . S
C1447 C1446 1.385 . S
C1448 C1446 1.478 . S
C1448 C1450 1.381 . S
C1448 C1454 1.383 . S
C1449 C1445 1.495 . S
C1449 H1455 0.959 . S
C1449 H1456 0.961 . S
C1449 H1457 0.960 . S
C1450 C1448 1.381 . S
C1450 C1451 1.394 . S
C1450 H1458 0.930 . S
C1451 C1450 1.394 . S
C1451 C1452 1.383 . S
C1451 H1459 0.929 . S
C1452 C1451 1.383 . S
C1452 C1453 1.377 . S
C1453 H1437 0.930 . S
C1453 C1452 1.377 . S
C1453 C1454 1.379 . S
C1454 H1438 0.931 . S
C1454 C1448 1.383 . S
C1454 C1453 1.379 . S
H1455 C1449 0.959 . S
H1456 C1449 0.961 . S
H1457 C1449 0.960 . S
H1458 C1450 0.930 . S
H1459 C1451 0.929 . S
H1460 C1468 0.929 . S
H1461 C1470 0.930 . S
H1462 C1472 0.930 . S
H1463 C1475 0.929 . S
H1464 C1478 0.930 . S
H1465 C1480 0.960 . S
H1466 C1480 0.960 . S
H1467 C1480 0.960 . S
C1468 H1460 0.929 . S
C1468 C1469 1.377 . S
C1468 C1470 1.384 . S
C1469 C1468 1.377 . S
C1469 C1475 1.390 . S
C1470 H1461 0.930 . S
C1470 C1468 1.384 . S
C1470 C1471 1.372 . S
C1471 C1470 1.372 . S
C1471 C1472 1.400 . S
C1471 C1476 1.490 . S
C1472 H1462 0.930 . S
C1472 C1471 1.400 . S
C1472 C1475 1.386 . S
H1473 C1489 0.930 . S
H1474 C1490 0.931 . S
C1475 H1463 0.929 . S
C1475 C1469 1.390 . S
C1475 C1472 1.386 . S
C1476 C1471 1.490 . S
C1476 C1478 1.395 . S
C1476 C1479 1.403 . S
H1477 C1483 0.930 . S
C1478 H1464 0.930 . S
C1478 C1476 1.395 . S
C1478 C1481 1.403 . S
C1479 C1476 1.403 . S
C1479 C1480 1.524 . S
C1479 C1483 1.400 . S
C1480 H1465 0.960 . S
C1480 H1466 0.960 . S
C1480 H1467 0.960 . S
C1480 C1479 1.524 . S
C1481 C1478 1.403 . S
C1481 C1482 1.392 . S
C1481 C1485 1.495 . S
C1482 C1481 1.392 . S
C1482 C1483 1.385 . S
C1482 C1484 1.478 . S
C1483 H1477 0.930 . S
C1483 C1479 1.400 . S
C1483 C1482 1.385 . S
C1484 C1482 1.478 . S
C1484 C1486 1.381 . S
C1484 C1490 1.383 . S
C1485 C1481 1.495 . S
C1485 H1491 0.959 . S
C1485 H1492 0.961 . S
C1485 H1493 0.960 . S
C1486 C1484 1.381 . S
C1486 C1487 1.394 . S
C1486 H1494 0.930 . S
C1487 C1486 1.394 . S
C1487 C1488 1.383 . S
C1487 H1495 0.929 . S
C1488 C1487 1.383 . S
C1488 C1489 1.377 . S
C1489 H1473 0.930 . S
C1489 C1488 1.377 . S
C1489 C1490 1.379 . S
C1490 H1474 0.931 . S
C1490 C1484 1.383 . S
C1490 C1489 1.379 . S
H1491 C1485 0.959 . S
H1492 C1485 0.961 . S
H1493 C1485 0.960 . S
H1494 C1486 0.930 . S
H1495 C1487 0.929 . S
H1496 C1504 0.929 . S
H1497 C1506 0.930 . S
H1498 C1508 0.930 . S
H1499 C1511 0.929 . S
H1500 C1514 0.930 . S
H1501 C1516 0.960 . S
H1502 C1516 0.960 . S
H1503 C1516 0.960 . S
C1504 H1496 0.929 . S
C1504 C1505 1.377 . S
C1504 C1506 1.384 . S
C1505 C1504 1.377 . S
C1505 C1511 1.390 . S
C1506 H1497 0.930 . S
C1506 C1504 1.384 . S
C1506 C1507 1.372 . S
C1507 C1506 1.372 . S
C1507 C1508 1.400 . S
C1507 C1512 1.490 . S
C1508 H1498 0.930 . S
C1508 C1507 1.400 . S
C1508 C1511 1.386 . S
H1509 C1525 0.930 . S
H1510 C1526 0.931 . S
C1511 H1499 0.929 . S
C1511 C1505 1.390 . S
C1511 C1508 1.386 . S
C1512 C1507 1.490 . S
C1512 C1514 1.395 . S
C1512 C1515 1.403 . S
H1513 C1519 0.930 . S
C1514 H1500 0.930 . S
C1514 C1512 1.395 . S
C1514 C1517 1.403 . S
C1515 C1512 1.403 . S
C1515 C1516 1.524 . S
C1515 C1519 1.400 . S
C1516 H1501 0.960 . S
C1516 H1502 0.960 . S
C1516 H1503 0.960 . S
C1516 C1515 1.524 . S
C1517 C1514 1.403 . S
C1517 C1518 1.392 . S
C1517 C1521 1.495 . S
C1518 C1517 1.392 . S
C1518 C1519 1.385 . S
C1518 C1520 1.478 . S
C1519 H1513 0.930 . S
C1519 C1515 1.400 . S
C1519 C1518 1.385 . S
C1520 C1518 1.478 . S
C1520 C1522 1.381 . S
C1520 C1526 1.383 . S
C1521 C1517 1.495 . S
C1521 H1527 0.959 . S
C1521 H1528 0.961 . S
C1521 H1529 0.960 . S
C1522 C1520 1.381 . S
C1522 C1523 1.394 . S
C1522 H1530 0.930 . S
C1523 C1522 1.394 . S
C1523 C1524 1.383 . S
C1523 H1531 0.929 . S
C1524 C1523 1.383 . S
C1524 C1525 1.377 . S
C1525 H1509 0.930 . S
C1525 C1524 1.377 . S
C1525 C1526 1.379 . S
C1526 H1510 0.931 . S
C1526 C1520 1.383 . S
C1526 C1525 1.379 . S
H1527 C1521 0.959 . S
H1528 C1521 0.961 . S
H1529 C1521 0.960 . S
H1530 C1522 0.930 . S
H1531 C1523 0.929 . S
H1532 C1540 0.929 . S
H1533 C1542 0.930 . S
H1534 C1544 0.930 . S
H1535 C1547 0.929 . S
H1536 C1550 0.930 . S
H1537 C1552 0.960 . S
H1538 C1552 0.960 . S
H1539 C1552 0.960 . S
C1540 H1532 0.929 . S
C1540 C1541 1.377 . S
C1540 C1542 1.384 . S
C1541 C1540 1.377 . S
C1541 C1547 1.390 . S
C1542 H1533 0.930 . S
C1542 C1540 1.384 . S
C1542 C1543 1.372 . S
C1543 C1542 1.372 . S
C1543 C1544 1.400 . S
C1543 C1548 1.490 . S
C1544 H1534 0.930 . S
C1544 C1543 1.400 . S
C1544 C1547 1.386 . S
H1545 C1561 0.930 . S
H1546 C1562 0.931 . S
C1547 H1535 0.929 . S
C1547 C1541 1.390 . S
C1547 C1544 1.386 . S
C1548 C1543 1.490 . S
C1548 C1550 1.395 . S
C1548 C1551 1.403 . S
H1549 C1555 0.930 . S
C1550 H1536 0.930 . S
C1550 C1548 1.395 . S
C1550 C1553 1.403 . S
C1551 C1548 1.403 . S
C1551 C1552 1.524 . S
C1551 C1555 1.400 . S
C1552 H1537 0.960 . S
C1552 H1538 0.960 . S
C1552 H1539 0.960 . S
C1552 C1551 1.524 . S
C1553 C1550 1.403 . S
C1553 C1554 1.392 . S
C1553 C1557 1.495 . S
C1554 C1553 1.392 . S
C1554 C1555 1.385 . S
C1554 C1556 1.478 . S
C1555 H1549 0.930 . S
C1555 C1551 1.400 . S
C1555 C1554 1.385 . S
C1556 C1554 1.478 . S
C1556 C1558 1.381 . S
C1556 C1562 1.383 . S
C1557 C1553 1.495 . S
C1557 H1563 0.959 . S
C1557 H1564 0.961 . S
C1557 H1565 0.960 . S
C1558 C1556 1.381 . S
C1558 C1559 1.394 . S
C1558 H1566 0.930 . S
C1559 C1558 1.394 . S
C1559 C1560 1.383 . S
C1559 H1567 0.929 . S
C1560 C1559 1.383 . S
C1560 C1561 1.377 . S
C1561 H1545 0.930 . S
C1561 C1560 1.377 . S
C1561 C1562 1.379 . S
C1562 H1546 0.931 . S
C1562 C1556 1.383 . S
C1562 C1561 1.379 . S
H1563 C1557 0.959 . S
H1564 C1557 0.961 . S
H1565 C1557 0.960 . S
H1566 C1558 0.930 . S
H1567 C1559 0.929 . S
H1568 C1576 0.929 . S
H1569 C1578 0.930 . S
H1570 C1580 0.930 . S
H1571 C1583 0.929 . S
H1572 C1586 0.930 . S
H1573 C1588 0.960 . S
H1574 C1588 0.960 . S
H1575 C1588 0.960 . S
C1576 H1568 0.929 . S
C1576 C1577 1.377 . S
C1576 C1578 1.384 . S
C1577 C1576 1.377 . S
C1577 C1583 1.390 . S
C1578 H1569 0.930 . S
C1578 C1576 1.384 . S
C1578 C1579 1.372 . S
C1579 C1578 1.372 . S
C1579 C1580 1.400 . S
C1579 C1584 1.490 . S
C1580 H1570 0.930 . S
C1580 C1579 1.400 . S
C1580 C1583 1.386 . S
H1581 C1597 0.930 . S
H1582 C1598 0.931 . S
C1583 H1571 0.929 . S
C1583 C1577 1.390 . S
C1583 C1580 1.386 . S
C1584 C1579 1.490 . S
C1584 C1586 1.395 . S
C1584 C1587 1.403 . S
H1585 C1591 0.930 . S
C1586 H1572 0.930 . S
C1586 C1584 1.395 . S
C1586 C1589 1.403 . S
C1587 C1584 1.403 . S
C1587 C1588 1.524 . S
C1587 C1591 1.400 . S
C1588 H1573 0.960 . S
C1588 H1574 0.960 . S
C1588 H1575 0.960 . S
C1588 C1587 1.524 . S
C1589 C1586 1.403 . S
C1589 C1590 1.392 . S
C1589 C1593 1.495 . S
C1590 C1589 1.392 . S
C1590 C1591 1.385 . S
C1590 C1592 1.478 . S
C1591 H1585 0.930 . S
C1591 C1587 1.400 . S
C1591 C1590 1.385 . S
C1592 C1590 1.478 . S
C1592 C1594 1.381 . S
C1592 C1598 1.383 . S
C1593 C1589 1.495 . S
C1593 H1599 0.959 . S
C1593 H1600 0.961 . S
C1593 H1601 0.960 . S
C1594 C1592 1.381 . S
C1594 C1595 1.394 . S
C1594 H1602 0.930 . S
C1595 C1594 1.394 . S
C1595 C1596 1.383 . S
C1595 H1603 0.929 . S
C1596 C1595 1.383 . S
C1596 C1597 1.377 . S
C1597 H1581 0.930 . S
C1597 C1596 1.377 . S
C1597 C1598 1.379 . S
C1598 H1582 0.931 . S
C1598 C1592 1.383 . S
C1598 C1597 1.379 . S
H1599 C1593 0.959 . S
H1600 C1593 0.961 . S
H1601 C1593 0.960 . S
H1602 C1594 0.930 . S
H1603 C1595 0.929 . S
H1604 C1612 0.929 . S
H1605 C1614 0.930 . S
H1606 C1616 0.930 . S
H1607 C1619 0.929 . S
H1608 C1622 0.930 . S
H1609 C1624 0.960 . S
H1610 C1624 0.960 . S
H1611 C1624 0.960 . S
C1612 H1604 0.929 . S
C1612 C1613 1.377 . S
C1612 C1614 1.384 . S
C1613 C1612 1.377 . S
C1613 C1619 1.390 . S
C1614 H1605 0.930 . S
C1614 C1612 1.384 . S
C1614 C1615 1.372 . S
C1615 C1614 1.372 . S
C1615 C1616 1.400 . S
C1615 C1620 1.490 . S
C1616 H1606 0.930 . S
C1616 C1615 1.400 . S
C1616 C1619 1.386 . S
H1617 C1633 0.930 . S
H1618 C1634 0.931 . S
C1619 H1607 0.929 . S
C1619 C1613 1.390 . S
C1619 C1616 1.386 . S
C1620 C1615 1.490 . S
C1620 C1622 1.395 . S
C1620 C1623 1.403 . S
H1621 C1627 0.930 . S
C1622 H1608 0.930 . S
C1622 C1620 1.395 . S
C1622 C1625 1.403 . S
C1623 C1620 1.403 . S
C1623 C1624 1.524 . S
C1623 C1627 1.400 . S
C1624 H1609 0.960 . S
C1624 H1610 0.960 . S
C1624 H1611 0.960 . S
C1624 C1623 1.524 . S
C1625 C1622 1.403 . S
C1625 C1626 1.392 . S
C1625 C1629 1.495 . S
C1626 C1625 1.392 . S
C1626 C1627 1.385 . S
C1626 C1628 1.478 . S
C1627 H1621 0.930 . S
C1627 C1623 1.400 . S
C1627 C1626 1.385 . S
C1628 C1626 1.478 . S
C1628 C1630 1.381 . S
C1628 C1634 1.383 . S
C1629 C1625 1.495 . S
C1629 H1635 0.959 . S
C1629 H1636 0.961 . S
C1629 H1637 0.960 . S
C1630 C1628 1.381 . S
C1630 C1631 1.394 . S
C1630 H1638 0.930 . S
C1631 C1630 1.394 . S
C1631 C1632 1.383 . S
C1631 H1639 0.929 . S
C1632 C1631 1.383 . S
C1632 C1633 1.377 . S
C1633 H1617 0.930 . S
C1633 C1632 1.377 . S
C1633 C1634 1.379 . S
C1634 H1618 0.931 . S
C1634 C1628 1.383 . S
C1634 C1633 1.379 . S
H1635 C1629 0.959 . S
H1636 C1629 0.961 . S
H1637 C1629 0.960 . S
H1638 C1630 0.930 . S
H1639 C1631 0.929 . S
H1640 C1648 0.929 . S
H1641 C1650 0.930 . S
H1642 C1652 0.930 . S
H1643 C1655 0.929 . S
H1644 C1658 0.930 . S
H1645 C1660 0.960 . S
H1646 C1660 0.960 . S
H1647 C1660 0.960 . S
C1648 H1640 0.929 . S
C1648 C1649 1.377 . S
C1648 C1650 1.384 . S
C1649 C1648 1.377 . S
C1649 C1655 1.390 . S
C1650 H1641 0.930 . S
C1650 C1648 1.384 . S
C1650 C1651 1.372 . S
C1651 C1650 1.372 . S
C1651 C1652 1.400 . S
C1651 C1656 1.490 . S
C1652 H1642 0.930 . S
C1652 C1651 1.400 . S
C1652 C1655 1.386 . S
H1653 C1669 0.930 . S
H1654 C1670 0.931 . S
C1655 H1643 0.929 . S
C1655 C1649 1.390 . S
C1655 C1652 1.386 . S
C1656 C1651 1.490 . S
C1656 C1658 1.395 . S
C1656 C1659 1.403 . S
H1657 C1663 0.930 . S
C1658 H1644 0.930 . S
C1658 C1656 1.395 . S
C1658 C1661 1.403 . S
C1659 C1656 1.403 . S
C1659 C1660 1.524 . S
C1659 C1663 1.400 . S
C1660 H1645 0.960 . S
C1660 H1646 0.960 . S
C1660 H1647 0.960 . S
C1660 C1659 1.524 . S
C1661 C1658 1.403 . S
C1661 C1662 1.392 . S
C1661 C1665 1.495 . S
C1662 C1661 1.392 . S
C1662 C1663 1.385 . S
C1662 C1664 1.478 . S
C1663 H1657 0.930 . S
C1663 C1659 1.400 . S
C1663 C1662 1.385 . S
C1664 C1662 1.478 . S
C1664 C1666 1.381 . S
C1664 C1670 1.383 . S
C1665 C1661 1.495 . S
C1665 H1671 0.959 . S
C1665 H1672 0.961 . S
C1665 H1673 0.960 . S
C1666 C1664 1.381 . S
C1666 C1667 1.394 . S
C1666 H1674 0.930 . S
C1667 C1666 1.394 . S
C1667 C1668 1.383 . S
C1667 H1675 0.929 . S
C1668 C1667 1.383 . S
C1668 C1669 1.377 . S
C1669 H1653 0.930 . S
C1669 C1668 1.377 . S
C1669 C1670 1.379 . S
C1670 H1654 0.931 . S
C1670 C1664 1.383 . S
C1670 C1669 1.379 . S
H1671 C1665 0.959 . S
H1672 C1665 0.961 . S
H1673 C1665 0.960 . S
H1674 C1666 0.930 . S
H1675 C1667 0.929 . S
H1676 C1684 0.929 . S
H1677 C1686 0.930 . S
H1678 C1688 0.930 . S
H1679 C1691 0.929 . S
H1680 C1694 0.930 . S
H1681 C1696 0.960 . S
H1682 C1696 0.960 . S
H1683 C1696 0.960 . S
C1684 H1676 0.929 . S
C1684 C1685 1.377 . S
C1684 C1686 1.384 . S
C1685 C1684 1.377 . S
C1685 C1691 1.390 . S
C1686 H1677 0.930 . S
C1686 C1684 1.384 . S
C1686 C1687 1.372 . S
C1687 C1686 1.372 . S
C1687 C1688 1.400 . S
C1687 C1692 1.490 . S
C1688 H1678 0.930 . S
C1688 C1687 1.400 . S
C1688 C1691 1.386 . S
H1689 C1705 0.930 . S
H1690 C1706 0.931 . S
C1691 H1679 0.929 . S
C1691 C1685 1.390 . S
C1691 C1688 1.386 . S
C1692 C1687 1.490 . S
C1692 C1694 1.395 . S
C1692 C1695 1.403 . S
H1693 C1699 0.930 . S
C1694 H1680 0.930 . S
C1694 C1692 1.395 . S
C1694 C1697 1.403 . S
C1695 C1692 1.403 . S
C1695 C1696 1.524 . S
C1695 C1699 1.400 . S
C1696 H1681 0.960 . S
C1696 H1682 0.960 . S
C1696 H1683 0.960 . S
C1696 C1695 1.524 . S
C1697 C1694 1.403 . S
C1697 C1698 1.392 . S
C1697 C1701 1.495 . S
C1698 C1697 1.392 . S
C1698 C1699 1.385 . S
C1698 C1700 1.478 . S
C1699 H1693 0.930 . S
C1699 C1695 1.400 . S
C1699 C1698 1.385 . S
C1700 C1698 1.478 . S
C1700 C1702 1.381 . S
C1700 C1706 1.383 . S
C1701 C1697 1.495 . S
C1701 H1707 0.959 . S
C1701 H1708 0.961 . S
C1701 H1709 0.960 . S
C1702 C1700 1.381 . S
C1702 C1703 1.394 . S
C1702 H1710 0.930 . S
C1703 C1702 1.394 . S
C1703 C1704 1.383 . S
C1703 H1711 0.929 . S
C1704 C1703 1.383 . S
C1704 C1705 1.377 . S
C1705 H1689 0.930 . S
C1705 C1704 1.377 . S
C1705 C1706 1.379 . S
C1706 H1690 0.931 . S
C1706 C1700 1.383 . S
C1706 C1705 1.379 . S
H1707 C1701 0.959 . S
H1708 C1701 0.961 . S
H1709 C1701 0.960 . S
H1710 C1702 0.930 . S
H1711 C1703 0.929 . S
H1712 C1720 0.929 . S
H1713 C1722 0.930 . S
H1714 C1724 0.930 . S
H1715 C1727 0.929 . S
H1716 C1730 0.930 . S
H1717 C1732 0.960 . S
H1718 C1732 0.960 . S
H1719 C1732 0.960 . S
C1720 H1712 0.929 . S
C1720 C1721 1.377 . S
C1720 C1722 1.384 . S
C1721 C1720 1.377 . S
C1721 C1727 1.390 . S
C1722 H1713 0.930 . S
C1722 C1720 1.384 . S
C1722 C1723 1.372 . S
C1723 C1722 1.372 . S
C1723 C1724 1.400 . S
C1723 C1728 1.490 . S
C1724 H1714 0.930 . S
C1724 C1723 1.400 . S
C1724 C1727 1.386 . S
H1725 C1741 0.930 . S
H1726 C1742 0.931 . S
C1727 H1715 0.929 . S
C1727 C1721 1.390 . S
C1727 C1724 1.386 . S
C1728 C1723 1.490 . S
C1728 C1730 1.395 . S
C1728 C1731 1.403 . S
H1729 C1735 0.930 . S
C1730 H1716 0.930 . S
C1730 C1728 1.395 . S
C1730 C1733 1.403 . S
C1731 C1728 1.403 . S
C1731 C1732 1.524 . S
C1731 C1735 1.400 . S
C1732 H1717 0.960 . S
C1732 H1718 0.960 . S
C1732 H1719 0.960 . S
C1732 C1731 1.524 . S
C1733 C1730 1.403 . S
C1733 C1734 1.392 . S
C1733 C1737 1.495 . S
C1734 C1733 1.392 . S
C1734 C1735 1.385 . S
C1734 C1736 1.478 . S
C1735 H1729 0.930 . S
C1735 C1731 1.400 . S
C1735 C1734 1.385 . S
C1736 C1734 1.478 . S
C1736 C1738 1.381 . S
C1736 C1742 1.383 . S
C1737 C1733 1.495 . S
C1737 H1743 0.959 . S
C1737 H1744 0.961 . S
C1737 H1745 0.960 . S
C1738 C1736 1.381 . S
C1738 C1739 1.394 . S
C1738 H1746 0.930 . S
C1739 C1738 1.394 . S
C1739 C1740 1.383 . S
C1739 H1747 0.929 . S
C1740 C1739 1.383 . S
C1740 C1741 1.377 . S
C1741 H1725 0.930 . S
C1741 C1740 1.377 . S
C1741 C1742 1.379 . S
C1742 H1726 0.931 . S
C1742 C1736 1.383 . S
C1742 C1741 1.379 . S
H1743 C1737 0.959 . S
H1744 C1737 0.961 . S
H1745 C1737 0.960 . S
H1746 C1738 0.930 . S
H1747 C1739 0.929 . S
H1748 C1756 0.929 . S
H1749 C1758 0.930 . S
H1750 C1760 0.930 . S
H1751 C1763 0.929 . S
H1752 C1766 0.930 . S
H1753 C1768 0.960 . S
H1754 C1768 0.960 . S
H1755 C1768 0.960 . S
C1756 H1748 0.929 . S
C1756 C1757 1.377 . S
C1756 C1758 1.384 . S
C1757 C1756 1.377 . S
C1757 C1763 1.390 . S
C1758 H1749 0.930 . S
C1758 C1756 1.384 . S
C1758 C1759 1.372 . S
C1759 C1758 1.372 . S
C1759 C1760 1.400 . S
C1759 C1764 1.490 . S
C1760 H1750 0.930 . S
C1760 C1759 1.400 . S
C1760 C1763 1.386 . S
H1761 C1777 0.930 . S
H1762 C1778 0.931 . S
C1763 H1751 0.929 . S
C1763 C1757 1.390 . S
C1763 C1760 1.386 . S
C1764 C1759 1.490 . S
C1764 C1766 1.395 . S
C1764 C1767 1.403 . S
H1765 C1771 0.930 . S
C1766 H1752 0.930 . S
C1766 C1764 1.395 . S
C1766 C1769 1.403 . S
C1767 C1764 1.403 . S
C1767 C1768 1.524 . S
C1767 C1771 1.400 . S
C1768 H1753 0.960 . S
C1768 H1754 0.960 . S
C1768 H1755 0.960 . S
C1768 C1767 1.524 . S
C1769 C1766 1.403 . S
C1769 C1770 1.392 . S
C1769 C1773 1.495 . S
C1770 C1769 1.392 . S
C1770 C1771 1.385 . S
C1770 C1772 1.478 . S
C1771 H1765 0.930 . S
C1771 C1767 1.400 . S
C1771 C1770 1.385 . S
C1772 C1770 1.478 . S
C1772 C1774 1.381 . S
C1772 C1778 1.383 . S
C1773 C1769 1.495 . S
C1773 H1779 0.959 . S
C1773 H1780 0.961 . S
C1773 H1781 0.960 . S
C1774 C1772 1.381 . S
C1774 C1775 1.394 . S
C1774 H1782 0.930 . S
C1775 C1774 1.394 . S
C1775 C1776 1.383 . S
C1775 H1783 0.929 . S
C1776 C1775 1.383 . S
C1776 C1777 1.377 . S
C1777 H1761 0.930 . S
C1777 C1776 1.377 . S
C1777 C1778 1.379 . S
C1778 H1762 0.931 . S
C1778 C1772 1.383 . S
C1778 C1777 1.379 . S
H1779 C1773 0.959 . S
H1780 C1773 0.961 . S
H1781 C1773 0.960 . S
H1782 C1774 0.930 . S
H1783 C1775 0.929 . S
H1784 C1792 0.929 . S
H1785 C1794 0.930 . S
H1786 C1796 0.930 . S
H1787 C1799 0.929 . S
H1788 C1802 0.930 . S
H1789 C1804 0.960 . S
H1790 C1804 0.960 . S
H1791 C1804 0.960 . S
C1792 H1784 0.929 . S
C1792 C1793 1.377 . S
C1792 C1794 1.384 . S
C1793 C1792 1.377 . S
C1793 C1799 1.390 . S
C1794 H1785 0.930 . S
C1794 C1792 1.384 . S
C1794 C1795 1.372 . S
C1795 C1794 1.372 . S
C1795 C1796 1.400 . S
C1795 C1800 1.490 . S
C1796 H1786 0.930 . S
C1796 C1795 1.400 . S
C1796 C1799 1.386 . S
H1797 C1813 0.930 . S
H1798 C1814 0.931 . S
C1799 H1787 0.929 . S
C1799 C1793 1.390 . S
C1799 C1796 1.386 . S
C1800 C1795 1.490 . S
C1800 C1802 1.395 . S
C1800 C1803 1.403 . S
H1801 C1807 0.930 . S
C1802 H1788 0.930 . S
C1802 C1800 1.395 . S
C1802 C1805 1.403 . S
C1803 C1800 1.403 . S
C1803 C1804 1.524 . S
C1803 C1807 1.400 . S
C1804 H1789 0.960 . S
C1804 H1790 0.960 . S
C1804 H1791 0.960 . S
C1804 C1803 1.524 . S
C1805 C1802 1.403 . S
C1805 C1806 1.392 . S
C1805 C1809 1.495 . S
C1806 C1805 1.392 . S
C1806 C1807 1.385 . S
C1806 C1808 1.478 . S
C1807 H1801 0.930 . S
C1807 C1803 1.400 . S
C1807 C1806 1.385 . S
C1808 C1806 1.478 . S
C1808 C1810 1.381 . S
C1808 C1814 1.383 . S
C1809 C1805 1.495 . S
C1809 H1815 0.959 . S
C1809 H1816 0.961 . S
C1809 H1817 0.960 . S
C1810 C1808 1.381 . S
C1810 C1811 1.394 . S
C1810 H1818 0.930 . S
C1811 C1810 1.394 . S
C1811 C1812 1.383 . S
C1811 H1819 0.929 . S
C1812 C1811 1.383 . S
C1812 C1813 1.377 . S
C1813 H1797 0.930 . S
C1813 C1812 1.377 . S
C1813 C1814 1.379 . S
C1814 H1798 0.931 . S
C1814 C1808 1.383 . S
C1814 C1813 1.379 . S
H1815 C1809 0.959 . S
H1816 C1809 0.961 . S
H1817 C1809 0.960 . S
H1818 C1810 0.930 . S
H1819 C1811 0.929 . S
H1820 C1828 0.929 . S
H1821 C1830 0.930 . S
H1822 C1832 0.930 . S
H1823 C1835 0.929 . S
H1824 C1838 0.930 . S
H1825 C1840 0.960 . S
H1826 C1840 0.960 . S
H1827 C1840 0.960 . S
C1828 H1820 0.929 . S
C1828 C1829 1.377 . S
C1828 C1830 1.384 . S
C1829 C1828 1.377 . S
C1829 C1835 1.390 . S
C1830 H1821 0.930 . S
C1830 C1828 1.384 . S
C1830 C1831 1.372 . S
C1831 C1830 1.372 . S
C1831 C1832 1.400 . S
C1831 C1836 1.490 . S
C1832 H1822 0.930 . S
C1832 C1831 1.400 . S
C1832 C1835 1.386 . S
H1833 C1849 0.930 . S
H1834 C1850 0.931 . S
C1835 H1823 0.929 . S
C1835 C1829 1.390 . S
C1835 C1832 1.386 . S
C1836 C1831 1.490 . S
C1836 C1838 1.395 . S
C1836 C1839 1.403 . S
H1837 C1843 0.930 . S
C1838 H1824 0.930 . S
C1838 C1836 1.395 . S
C1838 C1841 1.403 . S
C1839 C1836 1.403 . S
C1839 C1840 1.524 . S
C1839 C1843 1.400 . S
C1840 H1825 0.960 . S
C1840 H1826 0.960 . S
C1840 H1827 0.960 . S
C1840 C1839 1.524 . S
C1841 C1838 1.403 . S
C1841 C1842 1.392 . S
C1841 C1845 1.495 . S
C1842 C1841 1.392 . S
C1842 C1843 1.385 . S
C1842 C1844 1.478 . S
C1843 H1837 0.930 . S
C1843 C1839 1.400 . S
C1843 C1842 1.385 . S
C1844 C1842 1.478 . S
C1844 C1846 1.381 . S
C1844 C1850 1.383 . S
C1845 C1841 1.495 . S
C1845 H1851 0.959 . S
C1845 H1852 0.961 . S
C1845 H1853 0.960 . S
C1846 C1844 1.381 . S
C1846 C1847 1.394 . S
C1846 H1854 0.930 . S
C1847 C1846 1.394 . S
C1847 C1848 1.383 . S
C1847 H1855 0.929 . S
C1848 C1847 1.383 . S
C1848 C1849 1.377 . S
C1849 H1833 0.930 . S
C1849 C1848 1.377 . S
C1849 C1850 1.379 . S
C1850 H1834 0.931 . S
C1850 C1844 1.383 . S
C1850 C1849 1.379 . S
H1851 C1845 0.959 . S
H1852 C1845 0.961 . S
H1853 C1845 0.960 . S
H1854 C1846 0.930 . S
H1855 C1847 0.929 . S
H1856 C1864 0.929 . S
H1857 C1866 0.930 . S
H1858 C1868 0.930 . S
H1859 C1871 0.929 . S
H1860 C1874 0.930 . S
H1861 C1876 0.960 . S
H1862 C1876 0.960 . S
H1863 C1876 0.960 . S
C1864 H1856 0.929 . S
C1864 C1865 1.377 . S
C1864 C1866 1.384 . S
C1865 C1864 1.377 . S
C1865 C1871 1.390 . S
C1866 H1857 0.930 . S
C1866 C1864 1.384 . S
C1866 C1867 1.372 . S
C1867 C1866 1.372 . S
C1867 C1868 1.400 . S
C1867 C1872 1.490 . S
C1868 H1858 0.930 . S
C1868 C1867 1.400 . S
C1868 C1871 1.386 . S
H1869 C1885 0.930 . S
H1870 C1886 0.931 . S
C1871 H1859 0.929 . S
C1871 C1865 1.390 . S
C1871 C1868 1.386 . S
C1872 C1867 1.490 . S
C1872 C1874 1.395 . S
C1872 C1875 1.403 . S
H1873 C1879 0.930 . S
C1874 H1860 0.930 . S
C1874 C1872 1.395 . S
C1874 C1877 1.403 . S
C1875 C1872 1.403 . S
C1875 C1876 1.524 . S
C1875 C1879 1.400 . S
C1876 H1861 0.960 . S
C1876 H1862 0.960 . S
C1876 H1863 0.960 . S
C1876 C1875 1.524 . S
C1877 C1874 1.403 . S
C1877 C1878 1.392 . S
C1877 C1881 1.495 . S
C1878 C1877 1.392 . S
C1878 C1879 1.385 . S
C1878 C1880 1.478 . S
C1879 H1873 0.930 . S
C1879 C1875 1.400 . S
C1879 C1878 1.385 . S
C1880 C1878 1.478 . S
C1880 C1882 1.381 . S
C1880 C1886 1.383 . S
C1881 C1877 1.495 . S
C1881 H1887 0.959 . S
C1881 H1888 0.961 . S
C1881 H1889 0.960 . S
C1882 C1880 1.381 . S
C1882 C1883 1.394 . S
C1882 H1890 0.930 . S
C1883 C1882 1.394 . S
C1883 C1884 1.383 . S
C1883 H1891 0.929 . S
C1884 C1883 1.383 . S
C1884 C1885 1.377 . S
C1885 H1869 0.930 . S
C1885 C1884 1.377 . S
C1885 C1886 1.379 . S
C1886 H1870 0.931 . S
C1886 C1880 1.383 . S
C1886 C1885 1.379 . S
H1887 C1881 0.959 . S
H1888 C1881 0.961 . S
H1889 C1881 0.960 . S
H1890 C1882 0.930 . S
H1891 C1883 0.929 . S
H1892 C1900 0.929 . S
H1893 C1902 0.930 . S
H1894 C1904 0.930 . S
H1895 C1907 0.929 . S
H1896 C1910 0.930 . S
H1897 C1912 0.960 . S
H1898 C1912 0.960 . S
H1899 C1912 0.960 . S
C1900 H1892 0.929 . S
C1900 C1901 1.377 . S
C1900 C1902 1.384 . S
C1901 C1900 1.377 . S
C1901 C1907 1.390 . S
C1902 H1893 0.930 . S
C1902 C1900 1.384 . S
C1902 C1903 1.372 . S
C1903 C1902 1.372 . S
C1903 C1904 1.400 . S
C1903 C1908 1.490 . S
C1904 H1894 0.930 . S
C1904 C1903 1.400 . S
C1904 C1907 1.386 . S
H1905 C1921 0.930 . S
H1906 C1922 0.931 . S
C1907 H1895 0.929 . S
C1907 C1901 1.390 . S
C1907 C1904 1.386 . S
C1908 C1903 1.490 . S
C1908 C1910 1.395 . S
C1908 C1911 1.403 . S
H1909 C1915 0.930 . S
C1910 H1896 0.930 . S
C1910 C1908 1.395 . S
C1910 C1913 1.403 . S
C1911 C1908 1.403 . S
C1911 C1912 1.524 . S
C1911 C1915 1.400 . S
C1912 H1897 0.960 . S
C1912 H1898 0.960 . S
C1912 H1899 0.960 . S
C1912 C1911 1.524 . S
C1913 C1910 1.403 . S
C1913 C1914 1.392 . S
C1913 C1917 1.495 . S
C1914 C1913 1.392 . S
C1914 C1915 1.385 . S
C1914 C1916 1.478 . S
C1915 H1909 0.930 . S
C1915 C1911 1.400 . S
C1915 C1914 1.385 . S
C1916 C1914 1.478 . S
C1916 C1918 1.381 . S
C1916 C1922 1.383 . S
C1917 C1913 1.495 . S
C1917 H1923 0.959 . S
C1917 H1924 0.961 . S
C1917 H1925 0.960 . S
C1918 C1916 1.381 . S
C1918 C1919 1.394 . S
C1918 H1926 0.930 . S
C1919 C1918 1.394 . S
C1919 C1920 1.383 . S
C1919 H1927 0.929 . S
C1920 C1919 1.383 . S
C1920 C1921 1.377 . S
C1921 H1905 0.930 . S
C1921 C1920 1.377 . S
C1921 C1922 1.379 . S
C1922 H1906 0.931 . S
C1922 C1916 1.383 . S
C1922 C1921 1.379 . S
H1923 C1917 0.959 . S
H1924 C1917 0.961 . S
H1925 C1917 0.960 . S
H1926 C1918 0.930 . S
H1927 C1919 0.929 . S
H1928 C1936 0.929 . S
H1929 C1938 0.930 . S
H1930 C1940 0.930 . S
H1931 C1943 0.929 . S
H1932 C1946 0.930 . S
H1933 C1948 0.960 . S
H1934 C1948 0.960 . S
H1935 C1948 0.960 . S
C1936 H1928 0.929 . S
C1936 C1937 1.377 . S
C1936 C1938 1.384 . S
C1937 C1936 1.377 . S
C1937 C1943 1.390 . S
C1938 H1929 0.930 . S
C1938 C1936 1.384 . S
C1938 C1939 1.372 . S
C1939 C1938 1.372 . S
C1939 C1940 1.400 . S
C1939 C1944 1.490 . S
C1940 H1930 0.930 . S
C1940 C1939 1.400 . S
C1940 C1943 1.386 . S
H1941 C1957 0.930 . S
H1942 C1958 0.931 . S
C1943 H1931 0.929 . S
C1943 C1937 1.390 . S
C1943 C1940 1.386 . S
C1944 C1939 1.490 . S
C1944 C1946 1.395 . S
C1944 C1947 1.403 . S
H1945 C1951 0.930 . S
C1946 H1932 0.930 . S
C1946 C1944 1.395 . S
C1946 C1949 1.403 . S
C1947 C1944 1.403 . S
C1947 C1948 1.524 . S
C1947 C1951 1.400 . S
C1948 H1933 0.960 . S
C1948 H1934 0.960 . S
C1948 H1935 0.960 . S
C1948 C1947 1.524 . S
C1949 C1946 1.403 . S
C1949 C1950 1.392 . S
C1949 C1953 1.495 . S
C1950 C1949 1.392 . S
C1950 C1951 1.385 . S
C1950 C1952 1.478 . S
C1951 H1945 0.930 . S
C1951 C1947 1.400 . S
C1951 C1950 1.385 . S
C1952 C1950 1.478 . S
C1952 C1954 1.381 . S
C1952 C1958 1.383 . S
C1953 C1949 1.495 . S
C1953 H1959 0.959 . S
C1953 H1960 0.961 . S
C1953 H1961 0.960 . S
C1954 C1952 1.381 . S
C1954 C1955 1.394 . S
C1954 H1962 0.930 . S
C1955 C1954 1.394 . S
C1955 C1956 1.383 . S
C1955 H1963 0.929 . S
C1956 C1955 1.383 . S
C1956 C1957 1.377 . S
C1957 H1941 0.930 . S
C1957 C1956 1.377 . S
C1957 C1958 1.379 . S
C1958 H1942 0.931 . S
C1958 C1952 1.383 . S
C1958 C1957 1.379 . S
H1959 C1953 0.959 . S
H1960 C1953 0.961 . S
H1961 C1953 0.960 . S
H1962 C1954 0.930 . S
H1963 C1955 0.929 . S
H1964 C1972 0.929 . S
H1965 C1974 0.930 . S
H1966 C1976 0.930 . S
H1967 C1979 0.929 . S
H1968 C1982 0.930 . S
H1969 C1984 0.960 . S
H1970 C1984 0.960 . S
H1971 C1984 0.960 . S
C1972 H1964 0.929 . S
C1972 C1973 1.377 . S
C1972 C1974 1.384 . S
C1973 C1972 1.377 . S
C1973 C1979 1.390 . S
C1974 H1965 0.930 . S
C1974 C1972 1.384 . S
C1974 C1975 1.372 . S
C1975 C1974 1.372 . S
C1975 C1976 1.400 . S
C1975 C1980 1.490 . S
C1976 H1966 0.930 . S
C1976 C1975 1.400 . S
C1976 C1979 1.386 . S
H1977 C1993 0.930 . S
H1978 C1994 0.931 . S
C1979 H1967 0.929 . S
C1979 C1973 1.390 . S
C1979 C1976 1.386 . S
C1980 C1975 1.490 . S
C1980 C1982 1.395 . S
C1980 C1983 1.403 . S
H1981 C1987 0.930 . S
C1982 H1968 0.930 . S
C1982 C1980 1.395 . S
C1982 C1985 1.403 . S
C1983 C1980 1.403 . S
C1983 C1984 1.524 . S
C1983 C1987 1.400 . S
C1984 H1969 0.960 . S
C1984 H1970 0.960 . S
C1984 H1971 0.960 . S
C1984 C1983 1.524 . S
C1985 C1982 1.403 . S
C1985 C1986 1.392 . S
C1985 C1989 1.495 . S
C1986 C1985 1.392 . S
C1986 C1987 1.385 . S
C1986 C1988 1.478 . S
C1987 H1981 0.930 . S
C1987 C1983 1.400 . S
C1987 C1986 1.385 . S
C1988 C1986 1.478 . S
C1988 C1990 1.381 . S
C1988 C1994 1.383 . S
C1989 C1985 1.495 . S
C1989 H1995 0.959 . S
C1989 H1996 0.961 . S
C1989 H1997 0.960 . S
C1990 C1988 1.381 . S
C1990 C1991 1.394 . S
C1990 H1998 0.930 . S
C1991 C1990 1.394 . S
C1991 C1992 1.383 . S
C1991 H1999 0.929 . S
C1992 C1991 1.383 . S
C1992 C1993 1.377 . S
C1993 H1977 0.930 . S
C1993 C1992 1.377 . S
C1993 C1994 1.379 . S
C1994 H1978 0.931 . S
C1994 C1988 1.383 . S
C1994 C1993 1.379 . S
H1995 C1989 0.959 . S
H1996 C1989 0.961 . S
H1997 C1989 0.960 . S
H1998 C1990 0.930 . S
H1999 C1991 0.929 . S
H2000 C2008 0.929 . S
H2001 C2010 0.930 . S
H2002 C2012 0.930 . S
H2003 C2015 0.929 . S
H2004 C2018 0.930 . S
H2005 C2020 0.960 . S
H2006 C2020 0.960 . S
H2007 C2020 0.960 . S
C2008 H2000 0.929 . S
C2008 C2009 1.377 . S
C2008 C2010 1.384 . S
C2009 C2008 1.377 . S
C2009 C2015 1.390 . S
C2010 H2001 0.930 . S
C2010 C2008 1.384 . S
C2010 C2011 1.372 . S
C2011 C2010 1.372 . S
C2011 C2012 1.400 . S
C2011 C2016 1.490 . S
C2012 H2002 0.930 . S
C2012 C2011 1.400 . S
C2012 C2015 1.386 . S
H2013 C2029 0.930 . S
H2014 C2030 0.931 . S
C2015 H2003 0.929 . S
C2015 C2009 1.390 . S
C2015 C2012 1.386 . S
C2016 C2011 1.490 . S
C2016 C2018 1.395 . S
C2016 C2019 1.403 . S
H2017 C2023 0.930 . S
C2018 H2004 0.930 . S
C2018 C2016 1.395 . S
C2018 C2021 1.403 . S
C2019 C2016 1.403 . S
C2019 C2020 1.524 . S
C2019 C2023 1.400 . S
C2020 H2005 0.960 . S
C2020 H2006 0.960 . S
C2020 H2007 0.960 . S
C2020 C2019 1.524 . S
C2021 C2018 1.403 . S
C2021 C2022 1.392 . S
C2021 C2025 1.495 . S
C2022 C2021 1.392 . S
C2022 C2023 1.385 . S
C2022 C2024 1.478 . S
C2023 H2017 0.930 . S
C2023 C2019 1.400 . S
C2023 C2022 1.385 . S
C2024 C2022 1.478 . S
C2024 C2026 1.381 . S
C2024 C2030 1.383 . S
C2025 C2021 1.495 . S
C2025 H2031 0.959 . S
C2025 H2032 0.961 . S
C2025 H2033 0.960 . S
C2026 C2024 1.381 . S
C2026 C2027 1.394 . S
C2026 H2034 0.930 . S
C2027 C2026 1.394 . S
C2027 C2028 1.383 . S
C2027 H2035 0.929 . S
C2028 C2027 1.383 . S
C2028 C2029 1.377 . S
C2029 H2013 0.930 . S
C2029 C2028 1.377 . S
C2029 C2030 1.379 . S
C2030 H2014 0.931 . S
C2030 C2024 1.383 . S
C2030 C2029 1.379 . S
H2031 C2025 0.959 . S
H2032 C2025 0.961 . S
H2033 C2025 0.960 . S
H2034 C2026 0.930 . S
H2035 C2027 0.929 . S
H2036 C2044 0.929 . S
H2037 C2046 0.930 . S
H2038 C2048 0.930 . S
H2039 C2051 0.929 . S
H2040 C2054 0.930 . S
H2041 C2056 0.960 . S
H2042 C2056 0.960 . S
H2043 C2056 0.960 . S
C2044 H2036 0.929 . S
C2044 C2045 1.377 . S
C2044 C2046 1.384 . S
C2045 C2044 1.377 . S
C2045 C2051 1.390 . S
C2046 H2037 0.930 . S
C2046 C2044 1.384 . S
C2046 C2047 1.372 . S
C2047 C2046 1.372 . S
C2047 C2048 1.400 . S
C2047 C2052 1.490 . S
C2048 H2038 0.930 . S
C2048 C2047 1.400 . S
C2048 C2051 1.386 . S
H2049 C2065 0.930 . S
H2050 C2066 0.931 . S
C2051 H2039 0.929 . S
C2051 C2045 1.390 . S
C2051 C2048 1.386 . S
C2052 C2047 1.490 . S
C2052 C2054 1.395 . S
C2052 C2055 1.403 . S
H2053 C2059 0.930 . S
C2054 H2040 0.930 . S
C2054 C2052 1.395 . S
C2054 C2057 1.403 . S
C2055 C2052 1.403 . S
C2055 C2056 1.524 . S
C2055 C2059 1.400 . S
C2056 H2041 0.960 . S
C2056 H2042 0.960 . S
C2056 H2043 0.960 . S
C2056 C2055 1.524 . S
C2057 C2054 1.403 . S
C2057 C2058 1.392 . S
C2057 C2061 1.495 . S
C2058 C2057 1.392 . S
C2058 C2059 1.385 . S
C2058 C2060 1.478 . S
C2059 H2053 0.930 . S
C2059 C2055 1.400 . S
C2059 C2058 1.385 . S
C2060 C2058 1.478 . S
C2060 C2062 1.381 . S
C2060 C2066 1.383 . S
C2061 C2057 1.495 . S
C2061 H2067 0.959 . S
C2061 H2068 0.961 . S
C2061 H2069 0.960 . S
C2062 C2060 1.381 . S
C2062 C2063 1.394 . S
C2062 H2070 0.930 . S
C2063 C2062 1.394 . S
C2063 C2064 1.383 . S
C2063 H2071 0.929 . S
C2064 C2063 1.383 . S
C2064 C2065 1.377 . S
C2065 H2049 0.930 . S
C2065 C2064 1.377 . S
C2065 C2066 1.379 . S
C2066 H2050 0.931 . S
C2066 C2060 1.383 . S
C2066 C2065 1.379 . S
H2067 C2061 0.959 . S
H2068 C2061 0.961 . S
H2069 C2061 0.960 . S
H2070 C2062 0.930 . S
H2071 C2063 0.929 . S
H2072 C2080 0.929 . S
H2073 C2082 0.930 . S
H2074 C2084 0.930 . S
H2075 C2087 0.929 . S
H2076 C2090 0.930 . S
H2077 C2092 0.960 . S
H2078 C2092 0.960 . S
H2079 C2092 0.960 . S
C2080 H2072 0.929 . S
C2080 C2081 1.377 . S
C2080 C2082 1.384 . S
C2081 C2080 1.377 . S
C2081 C2087 1.390 . S
C2082 H2073 0.930 . S
C2082 C2080 1.384 . S
C2082 C2083 1.372 . S
C2083 C2082 1.372 . S
C2083 C2084 1.400 . S
C2083 C2088 1.490 . S
C2084 H2074 0.930 . S
C2084 C2083 1.400 . S
C2084 C2087 1.386 . S
H2085 C2101 0.930 . S
H2086 C2102 0.931 . S
C2087 H2075 0.929 . S
C2087 C2081 1.390 . S
C2087 C2084 1.386 . S
C2088 C2083 1.490 . S
C2088 C2090 1.395 . S
C2088 C2091 1.403 . S
H2089 C2095 0.930 . S
C2090 H2076 0.930 . S
C2090 C2088 1.395 . S
C2090 C2093 1.403 . S
C2091 C2088 1.403 . S
C2091 C2092 1.524 . S
C2091 C2095 1.400 . S
C2092 H2077 0.960 . S
C2092 H2078 0.960 . S
C2092 H2079 0.960 . S
C2092 C2091 1.524 . S
C2093 C2090 1.403 . S
C2093 C2094 1.392 . S
C2093 C2097 1.495 . S
C2094 C2093 1.392 . S
C2094 C2095 1.385 . S
C2094 C2096 1.478 . S
C2095 H2089 0.930 . S
C2095 C2091 1.400 . S
C2095 C2094 1.385 . S
C2096 C2094 1.478 . S
C2096 C2098 1.381 . S
C2096 C2102 1.383 . S
C2097 C2093 1.495 . S
C2097 H2103 0.959 . S
C2097 H2104 0.961 . S
C2097 H2105 0.960 . S
C2098 C2096 1.381 . S
C2098 C2099 1.394 . S
C2098 H2106 0.930 . S
C2099 C2098 1.394 . S
C2099 C2100 1.383 . S
C2099 H2107 0.929 . S
C2100 C2099 1.383 . S
C2100 C2101 1.377 . S
C2101 H2085 0.930 . S
C2101 C2100 1.377 . S
C2101 C2102 1.379 . S
C2102 H2086 0.931 . S
C2102 C2096 1.383 . S
C2102 C2101 1.379 . S
H2103 C2097 0.959 . S
H2104 C2097 0.961 . S
H2105 C2097 0.960 . S
H2106 C2098 0.930 . S
H2107 C2099 0.929 . S
H2108 C2116 0.929 . S
H2109 C2118 0.930 . S
H2110 C2120 0.930 . S
H2111 C2123 0.929 . S
H2112 C2126 0.930 . S
H2113 C2128 0.960 . S
H2114 C2128 0.960 . S
H2115 C2128 0.960 . S
C2116 H2108 0.929 . S
C2116 C2117 1.377 . S
C2116 C2118 1.384 . S
C2117 C2116 1.377 . S
C2117 C2123 1.390 . S
C2118 H2109 0.930 . S
C2118 C2116 1.384 . S
C2118 C2119 1.372 . S
C2119 C2118 1.372 . S
C2119 C2120 1.400 . S
C2119 C2124 1.490 . S
C2120 H2110 0.930 . S
C2120 C2119 1.400 . S
C2120 C2123 1.386 . S
H2121 C2137 0.930 . S
H2122 C2138 0.931 . S
C2123 H2111 0.929 . S
C2123 C2117 1.390 . S
C2123 C2120 1.386 . S
C2124 C2119 1.490 . S
C2124 C2126 1.395 . S
C2124 C2127 1.403 . S
H2125 C2131 0.930 . S
C2126 H2112 0.930 . S
C2126 C2124 1.395 . S
C2126 C2129 1.403 . S
C2127 C2124 1.403 . S
C2127 C2128 1.524 . S
C2127 C2131 1.400 . S
C2128 H2113 0.960 . S
C2128 H2114 0.960 . S
C2128 H2115 0.960 . S
C2128 C2127 1.524 . S
C2129 C2126 1.403 . S
C2129 C2130 1.392 . S
C2129 C2133 1.495 . S
C2130 C2129 1.392 . S
C2130 C2131 1.385 . S
C2130 C2132 1.478 . S
C2131 H2125 0.930 . S
C2131 C2127 1.400 . S
C2131 C2130 1.385 . S
C2132 C2130 1.478 . S
C2132 C2134 1.381 . S
C2132 C2138 1.383 . S
C2133 C2129 1.495 . S
C2133 H2139 0.959 . S
C2133 H2140 0.961 . S
C2133 H2141 0.960 . S
C2134 C2132 1.381 . S
C2134 C2135 1.394 . S
C2134 H2142 0.930 . S
C2135 C2134 1.394 . S
C2135 C2136 1.383 . S
C2135 H2143 0.929 . S
C2136 C2135 1.383 . S
C2136 C2137 1.377 . S
C2137 H2121 0.930 . S
C2137 C2136 1.377 . S
C2137 C2138 1.379 . S
C2138 H2122 0.931 . S
C2138 C2132 1.383 . S
C2138 C2137 1.379 . S
H2139 C2133 0.959 . S
H2140 C2133 0.961 . S
H2141 C2133 0.960 . S
H2142 C2134 0.930 . S
H2143 C2135 0.929 . S
H2144 C2152 0.929 . S
H2145 C2154 0.930 . S
H2146 C2156 0.930 . S
H2147 C2159 0.929 . S
H2148 C2162 0.930 . S
H2149 C2164 0.960 . S
H2150 C2164 0.960 . S
H2151 C2164 0.960 . S
C2152 H2144 0.929 . S
C2152 C2153 1.377 . S
C2152 C2154 1.384 . S
C2153 C2152 1.377 . S
C2153 C2159 1.390 . S
C2154 H2145 0.930 . S
C2154 C2152 1.384 . S
C2154 C2155 1.372 . S
C2155 C2154 1.372 . S
C2155 C2156 1.400 . S
C2155 C2160 1.490 . S
C2156 H2146 0.930 . S
C2156 C2155 1.400 . S
C2156 C2159 1.386 . S
H2157 C2173 0.930 . S
H2158 C2174 0.931 . S
C2159 H2147 0.929 . S
C2159 C2153 1.390 . S
C2159 C2156 1.386 . S
C2160 C2155 1.490 . S
C2160 C2162 1.395 . S
C2160 C2163 1.403 . S
H2161 C2167 0.930 . S
C2162 H2148 0.930 . S
C2162 C2160 1.395 . S
C2162 C2165 1.403 . S
C2163 C2160 1.403 . S
C2163 C2164 1.524 . S
C2163 C2167 1.400 . S
C2164 H2149 0.960 . S
C2164 H2150 0.960 . S
C2164 H2151 0.960 . S
C2164 C2163 1.524 . S
C2165 C2162 1.403 . S
C2165 C2166 1.392 . S
C2165 C2169 1.495 . S
C2166 C2165 1.392 . S
C2166 C2167 1.385 . S
C2166 C2168 1.478 . S
C2167 H2161 0.930 . S
C2167 C2163 1.400 . S
C2167 C2166 1.385 . S
C2168 C2166 1.478 . S
C2168 C2170 1.381 . S
C2168 C2174 1.383 . S
C2169 C2165 1.495 . S
C2169 H2175 0.959 . S
C2169 H2176 0.961 . S
C2169 H2177 0.960 . S
C2170 C2168 1.381 . S
C2170 C2171 1.394 . S
C2170 H2178 0.930 . S
C2171 C2170 1.394 . S
C2171 C2172 1.383 . S
C2171 H2179 0.929 . S
C2172 C2171 1.383 . S
C2172 C2173 1.377 . S
C2173 H2157 0.930 . S
C2173 C2172 1.377 . S
C2173 C2174 1.379 . S
C2174 H2158 0.931 . S
C2174 C2168 1.383 . S
C2174 C2173 1.379 . S
H2175 C2169 0.959 . S
H2176 C2169 0.961 . S
H2177 C2169 0.960 . S
H2178 C2170 0.930 . S
H2179 C2171 0.929 . S
H2180 C2188 0.929 . S
H2181 C2190 0.930 . S
H2182 C2192 0.930 . S
H2183 C2195 0.929 . S
H2184 C2198 0.930 . S
H2185 C2200 0.960 . S
H2186 C2200 0.960 . S
H2187 C2200 0.960 . S
C2188 H2180 0.929 . S
C2188 C2189 1.377 . S
C2188 C2190 1.384 . S
C2189 C2188 1.377 . S
C2189 C2195 1.390 . S
C2190 H2181 0.930 . S
C2190 C2188 1.384 . S
C2190 C2191 1.372 . S
C2191 C2190 1.372 . S
C2191 C2192 1.400 . S
C2191 C2196 1.490 . S
C2192 H2182 0.930 . S
C2192 C2191 1.400 . S
C2192 C2195 1.386 . S
H2193 C2209 0.930 . S
H2194 C2210 0.931 . S
C2195 H2183 0.929 . S
C2195 C2189 1.390 . S
C2195 C2192 1.386 . S
C2196 C2191 1.490 . S
C2196 C2198 1.395 . S
C2196 C2199 1.403 . S
H2197 C2203 0.930 . S
C2198 H2184 0.930 . S
C2198 C2196 1.395 . S
C2198 C2201 1.403 . S
C2199 C2196 1.403 . S
C2199 C2200 1.524 . S
C2199 C2203 1.400 . S
C2200 H2185 0.960 . S
C2200 H2186 0.960 . S
C2200 H2187 0.960 . S
C2200 C2199 1.524 . S
C2201 C2198 1.403 . S
C2201 C2202 1.392 . S
C2201 C2205 1.495 . S
C2202 C2201 1.392 . S
C2202 C2203 1.385 . S
C2202 C2204 1.478 . S
C2203 H2197 0.930 . S
C2203 C2199 1.400 . S
C2203 C2202 1.385 . S
C2204 C2202 1.478 . S
C2204 C2206 1.381 . S
C2204 C2210 1.383 . S
C2205 C2201 1.495 . S
C2205 H2211 0.959 . S
C2205 H2212 0.961 . S
C2205 H2213 0.960 . S
C2206 C2204 1.381 . S
C2206 C2207 1.394 . S
C2206 H2214 0.930 . S
C2207 C2206 1.394 . S
C2207 C2208 1.383 . S
C2207 H2215 0.929 . S
C2208 C2207 1.383 . S
C2208 C2209 1.377 . S
C2209 H2193 0.930 . S
C2209 C2208 1.377 . S
C2209 C2210 1.379 . S
C2210 H2194 0.931 . S
C2210 C2204 1.383 . S
C2210 C2209 1.379 . S
H2211 C2205 0.959 . S
H2212 C2205 0.961 . S
H2213 C2205 0.960 . S
H2214 C2206 0.930 . S
H2215 C2207 0.929 . S
H2216 C2224 0.929 . S
H2217 C2226 0.930 . S
H2218 C2228 0.930 . S
H2219 C2231 0.929 . S
H2220 C2234 0.930 . S
H2221 C2236 0.960 . S
H2222 C2236 0.960 . S
H2223 C2236 0.960 . S
C2224 H2216 0.929 . S
C2224 C2225 1.377 . S
C2224 C2226 1.384 . S
C2225 C2224 1.377 . S
C2225 C2231 1.390 . S
C2226 H2217 0.930 . S
C2226 C2224 1.384 . S
C2226 C2227 1.372 . S
C2227 C2226 1.372 . S
C2227 C2228 1.400 . S
C2227 C2232 1.490 . S
C2228 H2218 0.930 . S
C2228 C2227 1.400 . S
C2228 C2231 1.386 . S
H2229 C2245 0.930 . S
H2230 C2246 0.931 . S
C2231 H2219 0.929 . S
C2231 C2225 1.390 . S
C2231 C2228 1.386 . S
C2232 C2227 1.490 . S
C2232 C2234 1.395 . S
C2232 C2235 1.403 . S
H2233 C2239 0.930 . S
C2234 H2220 0.930 . S
C2234 C2232 1.395 . S
C2234 C2237 1.403 . S
C2235 C2232 1.403 . S
C2235 C2236 1.524 . S
C2235 C2239 1.400 . S
C2236 H2221 0.960 . S
C2236 H2222 0.960 . S
C2236 H2223 0.960 . S
C2236 C2235 1.524 . S
C2237 C2234 1.403 . S
C2237 C2238 1.392 . S
C2237 C2241 1.495 . S
C2238 C2237 1.392 . S
C2238 C2239 1.385 . S
C2238 C2240 1.478 . S
C2239 H2233 0.930 . S
C2239 C2235 1.400 . S
C2239 C2238 1.385 . S
C2240 C2238 1.478 . S
C2240 C2242 1.381 . S
C2240 C2246 1.383 . S
C2241 C2237 1.495 . S
C2241 H2247 0.959 . S
C2241 H2248 0.961 . S
C2241 H2249 0.960 . S
C2242 C2240 1.381 . S
C2242 C2243 1.394 . S
C2242 H2250 0.930 . S
C2243 C2242 1.394 . S
C2243 C2244 1.383 . S
C2243 H2251 0.929 . S
C2244 C2243 1.383 . S
C2244 C2245 1.377 . S
C2245 H2229 0.930 . S
C2245 C2244 1.377 . S
C2245 C2246 1.379 . S
C2246 H2230 0.931 . S
C2246 C2240 1.383 . S
C2246 C2245 1.379 . S
H2247 C2241 0.959 . S
H2248 C2241 0.961 . S
H2249 C2241 0.960 . S
H2250 C2242 0.930 . S
H2251 C2243 0.929 . S
H2252 C2260 0.929 . S
H2253 C2262 0.930 . S
H2254 C2264 0.930 . S
H2255 C2267 0.929 . S
H2256 C2270 0.930 . S
H2257 C2272 0.960 . S
H2258 C2272 0.960 . S
H2259 C2272 0.960 . S
C2260 H2252 0.929 . S
C2260 C2261 1.377 . S
C2260 C2262 1.384 . S
C2261 C2260 1.377 . S
C2261 C2267 1.390 . S
C2262 H2253 0.930 . S
C2262 C2260 1.384 . S
C2262 C2263 1.372 . S
C2263 C2262 1.372 . S
C2263 C2264 1.400 . S
C2263 C2268 1.490 . S
C2264 H2254 0.930 . S
C2264 C2263 1.400 . S
C2264 C2267 1.386 . S
H2265 C2281 0.930 . S
H2266 C2282 0.931 . S
C2267 H2255 0.929 . S
C2267 C2261 1.390 . S
C2267 C2264 1.386 . S
C2268 C2263 1.490 . S
C2268 C2270 1.395 . S
C2268 C2271 1.403 . S
H2269 C2275 0.930 . S
C2270 H2256 0.930 . S
C2270 C2268 1.395 . S
C2270 C2273 1.403 . S
C2271 C2268 1.403 . S
C2271 C2272 1.524 . S
C2271 C2275 1.400 . S
C2272 H2257 0.960 . S
C2272 H2258 0.960 . S
C2272 H2259 0.960 . S
C2272 C2271 1.524 . S
C2273 C2270 1.403 . S
C2273 C2274 1.392 . S
C2273 C2277 1.495 . S
C2274 C2273 1.392 . S
C2274 C2275 1.385 . S
C2274 C2276 1.478 . S
C2275 H2269 0.930 . S
C2275 C2271 1.400 . S
C2275 C2274 1.385 . S
C2276 C2274 1.478 . S
C2276 C2278 1.381 . S
C2276 C2282 1.383 . S
C2277 C2273 1.495 . S
C2277 H2283 0.959 . S
C2277 H2284 0.961 . S
C2277 H2285 0.960 . S
C2278 C2276 1.381 . S
C2278 C2279 1.394 . S
C2278 H2286 0.930 . S
C2279 C2278 1.394 . S
C2279 C2280 1.383 . S
C2279 H2287 0.929 . S
C2280 C2279 1.383 . S
C2280 C2281 1.377 . S
C2281 H2265 0.930 . S
C2281 C2280 1.377 . S
C2281 C2282 1.379 . S
C2282 H2266 0.931 . S
C2282 C2276 1.383 . S
C2282 C2281 1.379 . S
H2283 C2277 0.959 . S
H2284 C2277 0.961 . S
H2285 C2277 0.960 . S
H2286 C2278 0.930 . S
H2287 C2279 0.929 . S
H2288 C2296 0.929 . S
H2289 C2298 0.930 . S
H2290 C2300 0.930 . S
H2291 C2303 0.929 . S
H2292 C2306 0.930 . S
H2293 C2308 0.960 . S
H2294 C2308 0.960 . S
H2295 C2308 0.960 . S
C2296 H2288 0.929 . S
C2296 C2297 1.377 . S
C2296 C2298 1.384 . S
C2297 C2296 1.377 . S
C2297 C2303 1.390 . S
C2298 H2289 0.930 . S
C2298 C2296 1.384 . S
C2298 C2299 1.372 . S
C2299 C2298 1.372 . S
C2299 C2300 1.400 . S
C2299 C2304 1.490 . S
C2300 H2290 0.930 . S
C2300 C2299 1.400 . S
C2300 C2303 1.386 . S
H2301 C2317 0.930 . S
H2302 C2318 0.931 . S
C2303 H2291 0.929 . S
C2303 C2297 1.390 . S
C2303 C2300 1.386 . S
C2304 C2299 1.490 . S
C2304 C2306 1.395 . S
C2304 C2307 1.403 . S
H2305 C2311 0.930 . S
C2306 H2292 0.930 . S
C2306 C2304 1.395 . S
C2306 C2309 1.403 . S
C2307 C2304 1.403 . S
C2307 C2308 1.524 . S
C2307 C2311 1.400 . S
C2308 H2293 0.960 . S
C2308 H2294 0.960 . S
C2308 H2295 0.960 . S
C2308 C2307 1.524 . S
C2309 C2306 1.403 . S
C2309 C2310 1.392 . S
C2309 C2313 1.495 . S
C2310 C2309 1.392 . S
C2310 C2311 1.385 . S
C2310 C2312 1.478 . S
C2311 H2305 0.930 . S
C2311 C2307 1.400 . S
C2311 C2310 1.385 . S
C2312 C2310 1.478 . S
C2312 C2314 1.381 . S
C2312 C2318 1.383 . S
C2313 C2309 1.495 . S
C2313 H2319 0.959 . S
C2313 H2320 0.961 . S
C2313 H2321 0.960 . S
C2314 C2312 1.381 . S
C2314 C2315 1.394 . S
C2314 H2322 0.930 . S
C2315 C2314 1.394 . S
C2315 C2316 1.383 . S
C2315 H2323 0.929 . S
C2316 C2315 1.383 . S
C2316 C2317 1.377 . S
C2317 H2301 0.930 . S
C2317 C2316 1.377 . S
C2317 C2318 1.379 . S
C2318 H2302 0.931 . S
C2318 C2312 1.383 . S
C2318 C2317 1.379 . S
H2319 C2313 0.959 . S
H2320 C2313 0.961 . S
H2321 C2313 0.960 . S
H2322 C2314 0.930 . S
H2323 C2315 0.929 . S
H2324 C2332 0.929 . S
H2325 C2334 0.930 . S
H2326 C2336 0.930 . S
H2327 C2339 0.929 . S
H2328 C2342 0.930 . S
H2329 C2344 0.960 . S
H2330 C2344 0.960 . S
H2331 C2344 0.960 . S
C2332 H2324 0.929 . S
C2332 C2333 1.377 . S
C2332 C2334 1.384 . S
C2333 C2332 1.377 . S
C2333 C2339 1.390 . S
C2334 H2325 0.930 . S
C2334 C2332 1.384 . S
C2334 C2335 1.372 . S
C2335 C2334 1.372 . S
C2335 C2336 1.400 . S
C2335 C2340 1.490 . S
C2336 H2326 0.930 . S
C2336 C2335 1.400 . S
C2336 C2339 1.386 . S
H2337 C2353 0.930 . S
H2338 C2354 0.931 . S
C2339 H2327 0.929 . S
C2339 C2333 1.390 . S
C2339 C2336 1.386 . S
C2340 C2335 1.490 . S
C2340 C2342 1.395 . S
C2340 C2343 1.403 . S
H2341 C2347 0.930 . S
C2342 H2328 0.930 . S
C2342 C2340 1.395 . S
C2342 C2345 1.403 . S
C2343 C2340 1.403 . S
C2343 C2344 1.524 . S
C2343 C2347 1.400 . S
C2344 H2329 0.960 . S
C2344 H2330 0.960 . S
C2344 H2331 0.960 . S
C2344 C2343 1.524 . S
C2345 C2342 1.403 . S
C2345 C2346 1.392 . S
C2345 C2349 1.495 . S
C2346 C2345 1.392 . S
C2346 C2347 1.385 . S
C2346 C2348 1.478 . S
C2347 H2341 0.930 . S
C2347 C2343 1.400 . S
C2347 C2346 1.385 . S
C2348 C2346 1.478 . S
C2348 C2350 1.381 . S
C2348 C2354 1.383 . S
C2349 C2345 1.495 . S
C2349 H2355 0.959 . S
C2349 H2356 0.961 . S
C2349 H2357 0.960 . S
C2350 C2348 1.381 . S
C2350 C2351 1.394 . S
C2350 H2358 0.930 . S
C2351 C2350 1.394 . S
C2351 C2352 1.383 . S
C2351 H2359 0.929 . S
C2352 C2351 1.383 . S
C2352 C2353 1.377 . S
C2353 H2337 0.930 . S
C2353 C2352 1.377 . S
C2353 C2354 1.379 . S
C2354 H2338 0.931 . S
C2354 C2348 1.383 . S
C2354 C2353 1.379 . S
H2355 C2349 0.959 . S
H2356 C2349 0.961 . S
H2357 C2349 0.960 . S
H2358 C2350 0.930 . S
H2359 C2351 0.929 . S
H2360 C2368 0.929 . S
H2361 C2370 0.930 . S
H2362 C2372 0.930 . S
H2363 C2375 0.929 . S
H2364 C2378 0.930 . S
H2365 C2380 0.960 . S
H2366 C2380 0.960 . S
H2367 C2380 0.960 . S
C2368 H2360 0.929 . S
C2368 C2369 1.377 . S
C2368 C2370 1.384 . S
C2369 C2368 1.377 . S
C2369 C2375 1.390 . S
C2370 H2361 0.930 . S
C2370 C2368 1.384 . S
C2370 C2371 1.372 . S
C2371 C2370 1.372 . S
C2371 C2372 1.400 . S
C2371 C2376 1.490 . S
C2372 H2362 0.930 . S
C2372 C2371 1.400 . S
C2372 C2375 1.386 . S
H2373 C2389 0.930 . S
H2374 C2390 0.931 . S
C2375 H2363 0.929 . S
C2375 C2369 1.390 . S
C2375 C2372 1.386 . S
C2376 C2371 1.490 . S
C2376 C2378 1.395 . S
C2376 C2379 1.403 . S
H2377 C2383 0.930 . S
C2378 H2364 0.930 . S
C2378 C2376 1.395 . S
C2378 C2381 1.403 . S
C2379 C2376 1.403 . S
C2379 C2380 1.524 . S
C2379 C2383 1.400 . S
C2380 H2365 0.960 . S
C2380 H2366 0.960 . S
C2380 H2367 0.960 . S
C2380 C2379 1.524 . S
C2381 C2378 1.403 . S
C2381 C2382 1.392 . S
C2381 C2385 1.495 . S
C2382 C2381 1.392 . S
C2382 C2383 1.385 . S
C2382 C2384 1.478 . S
C2383 H2377 0.930 . S
C2383 C2379 1.400 . S
C2383 C2382 1.385 . S
C2384 C2382 1.478 . S
C2384 C2386 1.381 . S
C2384 C2390 1.383 . S
C2385 C2381 1.495 . S
C2385 H2391 0.959 . S
C2385 H2392 0.961 . S
C2385 H2393 0.960 . S
C2386 C2384 1.381 . S
C2386 C2387 1.394 . S
C2386 H2394 0.930 . S
C2387 C2386 1.394 . S
C2387 C2388 1.383 . S
C2387 H2395 0.929 . S
C2388 C2387 1.383 . S
C2388 C2389 1.377 . S
C2389 H2373 0.930 . S
C2389 C2388 1.377 . S
C2389 C2390 1.379 . S
C2390 H2374 0.931 . S
C2390 C2384 1.383 . S
C2390 C2389 1.379 . S
H2391 C2385 0.959 . S
H2392 C2385 0.961 . S
H2393 C2385 0.960 . S
H2394 C2386 0.930 . S
H2395 C2387 0.929 . S
H2396 C2404 0.929 . S
H2397 C2406 0.930 . S
H2398 C2408 0.930 . S
H2399 C2411 0.929 . S
H2400 C2414 0.930 . S
H2401 C2416 0.960 . S
H2402 C2416 0.960 . S
H2403 C2416 0.960 . S
C2404 H2396 0.929 . S
C2404 C2405 1.377 . S
C2404 C2406 1.384 . S
C2405 C2404 1.377 . S
C2405 C2411 1.390 . S
C2406 H2397 0.930 . S
C2406 C2404 1.384 . S
C2406 C2407 1.372 . S
C2407 C2406 1.372 . S
C2407 C2408 1.400 . S
C2407 C2412 1.490 . S
C2408 H2398 0.930 . S
C2408 C2407 1.400 . S
C2408 C2411 1.386 . S
H2409 C2425 0.930 . S
H2410 C2426 0.931 . S
C2411 H2399 0.929 . S
C2411 C2405 1.390 . S
C2411 C2408 1.386 . S
C2412 C2407 1.490 . S
C2412 C2414 1.395 . S
C2412 C2415 1.403 . S
H2413 C2419 0.930 . S
C2414 H2400 0.930 . S
C2414 C2412 1.395 . S
C2414 C2417 1.403 . S
C2415 C2412 1.403 . S
C2415 C2416 1.524 . S
C2415 C2419 1.400 . S
C2416 H2401 0.960 . S
C2416 H2402 0.960 . S
C2416 H2403 0.960 . S
C2416 C2415 1.524 . S
C2417 C2414 1.403 . S
C2417 C2418 1.392 . S
C2417 C2421 1.495 . S
C2418 C2417 1.392 . S
C2418 C2419 1.385 . S
C2418 C2420 1.478 . S
C2419 H2413 0.930 . S
C2419 C2415 1.400 . S
C2419 C2418 1.385 . S
C2420 C2418 1.478 . S
C2420 C2422 1.381 . S
C2420 C2426 1.383 . S
C2421 C2417 1.495 . S
C2421 H2427 0.959 . S
C2421 H2428 0.961 . S
C2421 H2429 0.960 . S
C2422 C2420 1.381 . S
C2422 C2423 1.394 . S
C2422 H2430 0.930 . S
C2423 C2422 1.394 . S
C2423 C2424 1.383 . S
C2423 H2431 0.929 . S
C2424 C2423 1.383 . S
C2424 C2425 1.377 . S
C2425 H2409 0.930 . S
C2425 C2424 1.377 . S
C2425 C2426 1.379 . S
C2426 H2410 0.931 . S
C2426 C2420 1.383 . S
C2426 C2425 1.379 . S
H2427 C2421 0.959 . S
H2428 C2421 0.961 . S
H2429 C2421 0.960 . S
H2430 C2422 0.930 . S
H2431 C2423 0.929 . S
H2432 C2440 0.929 . S
H2433 C2442 0.930 . S
H2434 C2444 0.930 . S
H2435 C2447 0.929 . S
H2436 C2450 0.930 . S
H2437 C2452 0.960 . S
H2438 C2452 0.960 . S
H2439 C2452 0.960 . S
C2440 H2432 0.929 . S
C2440 C2441 1.377 . S
C2440 C2442 1.384 . S
C2441 C2440 1.377 . S
C2441 C2447 1.390 . S
C2442 H2433 0.930 . S
C2442 C2440 1.384 . S
C2442 C2443 1.372 . S
C2443 C2442 1.372 . S
C2443 C2444 1.400 . S
C2443 C2448 1.490 . S
C2444 H2434 0.930 . S
C2444 C2443 1.400 . S
C2444 C2447 1.386 . S
H2445 C2461 0.930 . S
H2446 C2462 0.931 . S
C2447 H2435 0.929 . S
C2447 C2441 1.390 . S
C2447 C2444 1.386 . S
C2448 C2443 1.490 . S
C2448 C2450 1.395 . S
C2448 C2451 1.403 . S
H2449 C2455 0.930 . S
C2450 H2436 0.930 . S
C2450 C2448 1.395 . S
C2450 C2453 1.403 1_455 S
C2451 C2448 1.403 . S
C2451 C2452 1.524 . S
C2451 C2455 1.400 1_455 S
C2452 H2437 0.960 . S
C2452 H2438 0.960 . S
C2452 H2439 0.960 . S
C2452 C2451 1.524 . S
C2453 C2450 1.403 1_655 S
C2453 C2454 1.392 . S
C2453 C2457 1.495 . S
C2454 C2453 1.392 . S
C2454 C2455 1.385 . S
C2454 C2456 1.478 . S
C2455 H2449 0.930 . S
C2455 C2451 1.400 1_655 S
C2455 C2454 1.385 . S
C2456 C2454 1.478 . S
C2456 C2458 1.381 . S
C2456 C2462 1.383 . S
C2457 C2453 1.495 . S
C2457 H2463 0.959 . S
C2457 H2464 0.961 . S
C2457 H2465 0.960 . S
C2458 C2456 1.381 . S
C2458 C2459 1.394 . S
C2458 H2466 0.930 . S
C2459 C2458 1.394 . S
C2459 C2460 1.383 . S
C2459 H2467 0.929 . S
C2460 C2459 1.383 . S
C2460 C2461 1.377 . S
C2461 H2445 0.930 . S
C2461 C2460 1.377 . S
C2461 C2462 1.379 . S
C2462 H2446 0.931 . S
C2462 C2456 1.383 . S
C2462 C2461 1.379 . S
H2463 C2457 0.959 . S
H2464 C2457 0.961 . S
H2465 C2457 0.960 . S
H2466 C2458 0.930 . S
H2467 C2459 0.929 . S
H2468 C2476 0.929 . S
H2469 C2478 0.930 . S
H2470 C2480 0.930 . S
H2471 C2483 0.929 . S
H2472 C2486 0.930 . S
H2473 C2488 0.960 . S
H2474 C2488 0.952 1_655 S
H2475 C2488 0.960 . S
C2476 H2468 0.929 . S
C2476 C2477 1.377 . S
C2476 C2478 1.384 . S
C2477 C2476 1.377 . S
C2477 C2483 1.390 1_655 S
C2478 H2469 0.930 . S
C2478 C2476 1.384 . S
C2478 C2479 1.372 . S
C2479 C2478 1.372 . S
C2479 C2480 1.400 1_655 S
C2479 C2484 1.490 . S
C2480 H2470 0.930 . S
C2480 C2479 1.400 1_455 S
C2480 C2483 1.386 . S
H2481 C2497 0.930 . S
H2482 C2498 0.931 . S
C2483 H2471 0.929 . S
C2483 C2477 1.390 1_455 S
C2483 C2480 1.386 . S
C2484 C2479 1.490 . S
C2484 C2486 1.395 . S
C2484 C2487 1.403 1_655 S
H2485 C2491 0.930 . S
C2486 H2472 0.930 . S
C2486 C2484 1.395 . S
C2486 C2489 1.403 . S
C2487 C2484 1.403 1_455 S
C2487 C2488 1.524 . S
C2487 C2491 1.400 . S
C2488 H2473 0.960 . S
C2488 H2474 0.952 1_455 S
C2488 H2475 0.960 . S
C2488 C2487 1.524 . S
C2489 C2486 1.403 . S
C2489 C2490 1.392 1_655 S
C2489 C2493 1.495 . S
C2490 C2489 1.392 1_455 S
C2490 C2491 1.385 . S
C2490 C2492 1.478 . S
C2491 H2485 0.930 . S
C2491 C2487 1.400 . S
C2491 C2490 1.385 . S
C2492 C2490 1.478 . S
C2492 C2494 1.381 1_455 S
C2492 C2498 1.383 . S
C2493 C2489 1.495 . S
C2493 H2499 0.959 . S
C2493 H2500 0.961 . S
C2493 H2501 0.960 . S
C2494 C2492 1.381 1_655 S
C2494 C2495 1.394 . S
C2494 H2502 0.930 . S
C2495 C2494 1.394 . S
C2495 C2496 1.383 1_655 S
C2495 H2503 0.929 . S
C2496 C2495 1.383 1_455 S
C2496 C2497 1.377 . S
C2497 H2481 0.930 . S
C2497 C2496 1.377 . S
C2497 C2498 1.379 . S
C2498 H2482 0.931 . S
C2498 C2492 1.383 . S
C2498 C2497 1.379 . S
H2499 C2493 0.959 . S
H2500 C2493 0.961 . S
H2501 C2493 0.960 . S
H2502 C2494 0.930 . S
H2503 C2495 0.929 . S
H2504 C2512 0.929 . S
H2505 C2514 0.930 . S
H2506 C2516 0.930 . S
H2507 C2519 0.929 . S
H2508 C2522 0.930 . S
H2509 C2524 0.960 . S
H2510 C2524 0.960 . S
H2511 C2524 0.960 . S
C2512 H2504 0.929 . S
C2512 C2513 1.377 . S
C2512 C2514 1.384 . S
C2513 C2512 1.377 . S
C2513 C2519 1.390 . S
C2514 H2505 0.930 . S
C2514 C2512 1.384 . S
C2514 C2515 1.372 . S
C2515 C2514 1.372 . S
C2515 C2516 1.400 . S
C2515 C2520 1.490 . S
C2516 H2506 0.930 . S
C2516 C2515 1.400 . S
C2516 C2519 1.386 . S
H2517 C2533 0.930 . S
H2518 C2534 0.931 . S
C2519 H2507 0.929 . S
C2519 C2513 1.390 . S
C2519 C2516 1.386 . S
C2520 C2515 1.490 . S
C2520 C2522 1.395 . S
C2520 C2523 1.403 . S
H2521 C2527 0.930 . S
C2522 H2508 0.930 . S
C2522 C2520 1.395 . S
C2522 C2525 1.403 . S
C2523 C2520 1.403 . S
C2523 C2524 1.524 . S
C2523 C2527 1.400 . S
C2524 H2509 0.960 . S
C2524 H2510 0.960 . S
C2524 H2511 0.960 . S
C2524 C2523 1.524 . S
C2525 C2522 1.403 . S
C2525 C2526 1.392 . S
C2525 C2529 1.495 . S
C2526 C2525 1.392 . S
C2526 C2527 1.385 . S
C2526 C2528 1.478 . S
C2527 H2521 0.930 . S
C2527 C2523 1.400 . S
C2527 C2526 1.385 . S
C2528 C2526 1.478 . S
C2528 C2530 1.381 . S
C2528 C2534 1.383 . S
C2529 C2525 1.495 . S
C2529 H2535 0.959 . S
C2529 H2536 0.961 . S
C2529 H2537 0.960 . S
C2530 C2528 1.381 . S
C2530 C2531 1.394 . S
C2530 H2538 0.930 . S
C2531 C2530 1.394 . S
C2531 C2532 1.383 . S
C2531 H2539 0.929 . S
C2532 C2531 1.383 . S
C2532 C2533 1.377 . S
C2533 H2517 0.930 . S
C2533 C2532 1.377 . S
C2533 C2534 1.379 . S
C2534 H2518 0.931 . S
C2534 C2528 1.383 . S
C2534 C2533 1.379 . S
H2535 C2529 0.959 . S
H2536 C2529 0.961 . S
H2537 C2529 0.960 . S
H2538 C2530 0.930 . S
H2539 C2531 0.929 . S
H2540 C2548 0.929 . S
H2541 C2550 0.930 . S
H2542 C2552 0.930 . S
H2543 C2555 0.929 . S
H2544 C2558 0.930 . S
H2545 C2560 0.960 . S
H2546 C2560 0.960 . S
H2547 C2560 0.960 . S
C2548 H2540 0.929 . S
C2548 C2549 1.377 . S
C2548 C2550 1.384 . S
C2549 C2548 1.377 . S
C2549 C2555 1.390 . S
C2550 H2541 0.930 . S
C2550 C2548 1.384 . S
C2550 C2551 1.372 . S
C2551 C2550 1.372 . S
C2551 C2552 1.400 . S
C2551 C2556 1.490 . S
C2552 H2542 0.930 . S
C2552 C2551 1.400 . S
C2552 C2555 1.386 . S
H2553 C2569 0.930 . S
H2554 C2570 0.931 . S
C2555 H2543 0.929 . S
C2555 C2549 1.390 . S
C2555 C2552 1.386 . S
C2556 C2551 1.490 . S
C2556 C2558 1.395 . S
C2556 C2559 1.403 . S
H2557 C2563 0.930 . S
C2558 H2544 0.930 . S
C2558 C2556 1.395 . S
C2558 C2561 1.403 . S
C2559 C2556 1.403 . S
C2559 C2560 1.524 . S
C2559 C2563 1.400 . S
C2560 H2545 0.960 . S
C2560 H2546 0.960 . S
C2560 H2547 0.960 . S
C2560 C2559 1.524 . S
C2561 C2558 1.403 . S
C2561 C2562 1.392 . S
C2561 C2565 1.495 . S
C2562 C2561 1.392 . S
C2562 C2563 1.385 . S
C2562 C2564 1.478 . S
C2563 H2557 0.930 . S
C2563 C2559 1.400 . S
C2563 C2562 1.385 . S
C2564 C2562 1.478 . S
C2564 C2566 1.381 . S
C2564 C2570 1.383 . S
C2565 C2561 1.495 . S
C2565 H2571 0.959 . S
C2565 H2572 0.961 . S
C2565 H2573 0.960 . S
C2566 C2564 1.381 . S
C2566 C2567 1.394 . S
C2566 H2574 0.930 . S
C2567 C2566 1.394 . S
C2567 C2568 1.383 . S
C2567 H2575 0.929 . S
C2568 C2567 1.383 . S
C2568 C2569 1.377 . S
C2569 H2553 0.930 . S
C2569 C2568 1.377 . S
C2569 C2570 1.379 . S
C2570 H2554 0.931 . S
C2570 C2564 1.383 . S
C2570 C2569 1.379 . S
H2571 C2565 0.959 . S
H2572 C2565 0.961 . S
H2573 C2565 0.960 . S
H2574 C2566 0.930 . S
H2575 C2567 0.929 . S
H2576 C2584 0.929 . S
H2577 C2586 0.930 . S
H2578 C2588 0.930 . S
H2579 C2591 0.929 . S
H2580 C2594 0.930 . S
H2581 C2596 0.932 1_455 S
H2582 C2596 0.960 . S
H2583 C2596 0.960 . S
C2584 H2576 0.929 . S
C2584 C2585 1.377 . S
C2584 C2586 1.384 . S
C2585 C2584 1.377 . S
C2585 C2591 1.390 . S
C2586 H2577 0.930 . S
C2586 C2584 1.384 . S
C2586 C2587 1.372 . S
C2587 C2586 1.372 . S
C2587 C2588 1.400 . S
C2587 C2592 1.490 . S
C2588 H2578 0.930 . S
C2588 C2587 1.400 . S
C2588 C2591 1.386 . S
H2589 C2605 0.930 . S
H2590 C2606 0.931 . S
C2591 H2579 0.929 . S
C2591 C2585 1.390 . S
C2591 C2588 1.386 . S
C2592 C2587 1.490 . S
C2592 C2594 1.395 . S
C2592 C2595 1.403 . S
H2593 C2599 0.930 . S
C2594 H2580 0.930 . S
C2594 C2592 1.395 . S
C2594 C2597 1.403 1_655 S
C2595 C2592 1.403 . S
C2595 C2596 1.524 . S
C2595 C2599 1.400 1_655 S
C2596 H2581 0.932 1_655 S
C2596 H2582 0.960 . S
C2596 H2583 0.960 . S
C2596 C2595 1.524 . S
C2597 C2594 1.403 1_455 S
C2597 C2598 1.392 . S
C2597 C2601 1.495 . S
C2598 C2597 1.392 . S
C2598 C2599 1.385 . S
C2598 C2600 1.478 . S
C2599 H2593 0.930 . S
C2599 C2595 1.400 1_455 S
C2599 C2598 1.385 . S
C2600 C2598 1.478 . S
C2600 C2602 1.381 . S
C2600 C2606 1.383 . S
C2601 C2597 1.495 . S
C2601 H2607 0.931 1_455 S
C2601 H2608 0.961 . S
C2601 H2609 0.960 . S
C2602 C2600 1.381 . S
C2602 C2603 1.394 . S
C2602 H2610 0.930 . S
C2603 C2602 1.394 . S
C2603 C2604 1.383 . S
C2603 H2611 0.929 . S
C2604 C2603 1.383 . S
C2604 C2605 1.377 . S
C2605 H2589 0.930 . S
C2605 C2604 1.377 . S
C2605 C2606 1.379 . S
C2606 H2590 0.931 . S
C2606 C2600 1.383 . S
C2606 C2605 1.379 . S
H2607 C2601 0.931 1_655 S
H2608 C2601 0.961 . S
H2609 C2601 0.960 . S
H2610 C2602 0.930 . S
H2611 C2603 0.929 . S
H2612 C2620 0.929 . S
H2613 C2622 0.930 . S
H2614 C2624 0.930 . S
H2615 C2627 0.929 . S
H2616 C2630 0.930 . S
H2617 C2632 0.960 . S
H2618 C2632 0.960 . S
H2619 C2632 0.960 . S
C2620 H2612 0.929 . S
C2620 C2621 1.377 . S
C2620 C2622 1.384 . S
C2621 C2620 1.377 . S
C2621 C2627 1.390 . S
C2622 H2613 0.930 . S
C2622 C2620 1.384 . S
C2622 C2623 1.372 . S
C2623 C2622 1.372 . S
C2623 C2624 1.400 . S
C2623 C2628 1.490 . S
C2624 H2614 0.930 . S
C2624 C2623 1.400 . S
C2624 C2627 1.386 . S
H2625 C2641 0.930 . S
H2626 C2642 0.931 . S
C2627 H2615 0.929 . S
C2627 C2621 1.390 . S
C2627 C2624 1.386 . S
C2628 C2623 1.490 . S
C2628 C2630 1.395 . S
C2628 C2631 1.403 . S
H2629 C2635 0.930 . S
C2630 H2616 0.930 . S
C2630 C2628 1.395 . S
C2630 C2633 1.403 . S
C2631 C2628 1.403 . S
C2631 C2632 1.524 . S
C2631 C2635 1.400 . S
C2632 H2617 0.960 . S
C2632 H2618 0.960 . S
C2632 H2619 0.960 . S
C2632 C2631 1.524 . S
C2633 C2630 1.403 . S
C2633 C2634 1.392 . S
C2633 C2637 1.495 . S
C2634 C2633 1.392 . S
C2634 C2635 1.385 . S
C2634 C2636 1.478 . S
C2635 H2629 0.930 . S
C2635 C2631 1.400 . S
C2635 C2634 1.385 . S
C2636 C2634 1.478 . S
C2636 C2638 1.381 . S
C2636 C2642 1.383 . S
C2637 C2633 1.495 . S
C2637 H2643 0.959 . S
C2637 H2644 0.961 . S
C2637 H2645 0.960 . S
C2638 C2636 1.381 . S
C2638 C2639 1.394 . S
C2638 H2646 0.930 . S
C2639 C2638 1.394 . S
C2639 C2640 1.383 . S
C2639 H2647 0.929 . S
C2640 C2639 1.383 . S
C2640 C2641 1.377 . S
C2641 H2625 0.930 . S
C2641 C2640 1.377 . S
C2641 C2642 1.379 . S
C2642 H2626 0.931 . S
C2642 C2636 1.383 . S
C2642 C2641 1.379 . S
H2643 C2637 0.959 . S
H2644 C2637 0.961 . S
H2645 C2637 0.960 . S
H2646 C2638 0.930 . S
H2647 C2639 0.929 . S
H2648 C2656 0.929 . S
H2649 C2658 0.930 . S
H2650 C2660 0.930 . S
H2651 C2663 0.929 . S
H2652 C2666 0.930 . S
H2653 C2668 0.960 . S
H2654 C2668 0.960 . S
H2655 C2668 0.960 . S
C2656 H2648 0.929 . S
C2656 C2657 1.377 . S
C2656 C2658 1.384 . S
C2657 C2656 1.377 . S
C2657 C2663 1.390 . S
C2658 H2649 0.930 . S
C2658 C2656 1.384 . S
C2658 C2659 1.372 . S
C2659 C2658 1.372 . S
C2659 C2660 1.400 . S
C2659 C2664 1.490 . S
C2660 H2650 0.930 . S
C2660 C2659 1.400 . S
C2660 C2663 1.386 . S
H2661 C2677 0.930 . S
H2662 C2678 0.931 . S
C2663 H2651 0.929 . S
C2663 C2657 1.390 . S
C2663 C2660 1.386 . S
C2664 C2659 1.490 . S
C2664 C2666 1.395 . S
C2664 C2667 1.403 . S
H2665 C2671 0.930 . S
C2666 H2652 0.930 . S
C2666 C2664 1.395 . S
C2666 C2669 1.403 . S
C2667 C2664 1.403 . S
C2667 C2668 1.524 . S
C2667 C2671 1.400 . S
C2668 H2653 0.960 . S
C2668 H2654 0.960 . S
C2668 H2655 0.960 . S
C2668 C2667 1.524 . S
C2669 C2666 1.403 . S
C2669 C2670 1.392 . S
C2669 C2673 1.495 . S
C2670 C2669 1.392 . S
C2670 C2671 1.385 . S
C2670 C2672 1.478 . S
C2671 H2665 0.930 . S
C2671 C2667 1.400 . S
C2671 C2670 1.385 . S
C2672 C2670 1.478 . S
C2672 C2674 1.381 . S
C2672 C2678 1.383 . S
C2673 C2669 1.495 . S
C2673 H2679 0.959 . S
C2673 H2680 0.961 . S
C2673 H2681 0.960 . S
C2674 C2672 1.381 . S
C2674 C2675 1.394 . S
C2674 H2682 0.930 . S
C2675 C2674 1.394 . S
C2675 C2676 1.383 . S
C2675 H2683 0.929 . S
C2676 C2675 1.383 . S
C2676 C2677 1.377 . S
C2677 H2661 0.930 . S
C2677 C2676 1.377 . S
C2677 C2678 1.379 . S
C2678 H2662 0.931 . S
C2678 C2672 1.383 . S
C2678 C2677 1.379 . S
H2679 C2673 0.959 . S
H2680 C2673 0.961 . S
H2681 C2673 0.960 . S
H2682 C2674 0.930 . S
H2683 C2675 0.929 . S
H2684 C2692 0.929 . S
H2685 C2694 0.930 . S
H2686 C2696 0.930 . S
H2687 C2699 0.933 . S
H2688 C2702 0.930 . S
H2689 C2704 0.960 . S
H2690 C2704 0.960 . S
H2691 C2704 0.960 . S
C2692 H2684 0.929 . S
C2692 C2693 1.377 . S
C2692 C2694 1.384 . S
C2693 C2692 1.377 . S
C2693 C2699 1.386 1_455 S
C2694 H2685 0.930 . S
C2694 C2692 1.384 . S
C2694 C2695 1.372 . S
C2695 C2694 1.372 . S
C2695 C2696 1.400 1_455 S
C2695 C2700 1.490 . S
C2696 H2686 0.930 . S
C2696 C2695 1.400 1_655 S
C2696 C2699 1.386 . S
H2697 C2713 0.930 . S
H2698 C2714 0.931 . S
C2699 H2687 0.933 . S
C2699 C2693 1.386 1_655 S
C2699 C2696 1.386 . S
C2700 C2695 1.490 . S
C2700 C2702 1.397 . S
C2700 C2703 1.403 . S
H2701 C2707 0.930 . S
C2702 H2688 0.930 . S
C2702 C2700 1.397 . S
C2702 C2705 1.401 1_455 S
C2703 C2700 1.403 . S
C2703 C2704 1.524 . S
C2703 C2707 1.409 . S
C2704 H2689 0.960 . S
C2704 H2690 0.960 . S
C2704 H2691 0.960 . S
C2704 C2703 1.524 . S
C2705 C2702 1.401 1_655 S
C2705 C2706 1.392 . S
C2705 C2709 1.495 . S
C2706 C2705 1.392 . S
C2706 C2707 1.377 1_655 S
C2706 C2708 1.478 . S
C2707 H2701 0.930 . S
C2707 C2703 1.409 . S
C2707 C2706 1.377 1_455 S
C2708 C2706 1.478 . S
C2708 C2710 1.381 1_655 S
C2708 C2714 1.383 . S
C2709 C2705 1.495 . S
C2709 H2715 0.959 . S
C2709 H2716 0.961 . S
C2709 H2717 0.941 1_655 S
C2710 C2708 1.381 1_455 S
C2710 C2711 1.394 . S
C2710 H2718 0.930 . S
C2711 C2710 1.394 . S
C2711 C2712 1.383 1_455 S
C2711 H2719 0.929 . S
C2712 C2711 1.383 1_655 S
C2712 C2713 1.377 . S
C2713 H2697 0.930 . S
C2713 C2712 1.377 . S
C2713 C2714 1.379 . S
C2714 H2698 0.931 . S
C2714 C2708 1.383 . S
C2714 C2713 1.379 . S
H2715 C2709 0.959 . S
H2716 C2709 0.961 . S
H2717 C2709 0.941 1_455 S
H2718 C2710 0.930 . S
H2719 C2711 0.929 . S
H2720 C2728 0.929 . S
H2721 C2730 0.930 . S
H2722 C2732 0.930 . S
H2723 C2735 0.929 . S
H2724 C2738 0.930 . S
H2725 C2740 0.922 1_655 S
H2726 C2740 0.960 . S
H2727 C2740 0.960 . S
C2728 H2720 0.929 . S
C2728 C2729 1.377 . S
C2728 C2730 1.384 . S
C2729 C2728 1.377 . S
C2729 C2735 1.390 . S
C2730 H2721 0.930 . S
C2730 C2728 1.384 . S
C2730 C2731 1.372 . S
C2731 C2730 1.372 . S
C2731 C2732 1.400 . S
C2731 C2736 1.490 . S
C2732 H2722 0.930 . S
C2732 C2731 1.400 . S
C2732 C2735 1.386 . S
H2733 C2749 0.930 . S
H2734 C2750 0.931 . S
C2735 H2723 0.929 . S
C2735 C2729 1.390 . S
C2735 C2732 1.386 . S
C2736 C2731 1.490 . S
C2736 C2738 1.395 . S
C2736 C2739 1.403 . S
H2737 C2743 0.930 . S
C2738 H2724 0.930 . S
C2738 C2736 1.395 . S
C2738 C2741 1.403 1_455 S
C2739 C2736 1.403 . S
C2739 C2740 1.524 . S
C2739 C2743 1.400 1_455 S
C2740 H2725 0.922 1_455 S
C2740 H2726 0.960 . S
C2740 H2727 0.960 . S
C2740 C2739 1.524 . S
C2741 C2738 1.403 1_655 S
C2741 C2742 1.392 . S
C2741 C2745 1.495 . S
C2742 C2741 1.392 . S
C2742 C2743 1.385 . S
C2742 C2744 1.478 . S
C2743 H2737 0.930 . S
C2743 C2739 1.400 1_655 S
C2743 C2742 1.385 . S
C2744 C2742 1.478 . S
C2744 C2746 1.381 . S
C2744 C2750 1.383 . S
C2745 C2741 1.495 . S
C2745 H2751 0.926 1_655 S
C2745 H2752 0.961 . S
C2745 H2753 0.960 . S
C2746 C2744 1.381 . S
C2746 C2747 1.394 . S
C2746 H2754 0.930 . S
C2747 C2746 1.394 . S
C2747 C2748 1.383 . S
C2747 H2755 0.929 . S
C2748 C2747 1.383 . S
C2748 C2749 1.377 . S
C2749 H2733 0.930 . S
C2749 C2748 1.377 . S
C2749 C2750 1.379 . S
C2750 H2734 0.931 . S
C2750 C2744 1.383 . S
C2750 C2749 1.379 . S
H2751 C2745 0.926 1_455 S
H2752 C2745 0.961 . S
H2753 C2745 0.960 . S
H2754 C2746 0.930 . S
H2755 C2747 0.929 . S
H2756 C2764 0.929 . S
H2757 C2766 0.930 . S
H2758 C2768 0.930 . S
H2759 C2771 0.929 . S
H2760 C2774 0.930 . S
H2761 C2776 0.960 . S
H2762 C2776 0.960 . S
H2763 C2776 0.960 . S
C2764 H2756 0.929 . S
C2764 C2765 1.377 1_455 S
C2764 C2766 1.384 . S
C2765 C2764 1.377 1_655 S
C2765 C2771 1.390 . S
C2766 H2757 0.930 . S
C2766 C2764 1.384 . S
C2766 C2767 1.372 1_455 S
C2767 C2766 1.372 1_655 S
C2767 C2768 1.400 . S
C2767 C2772 1.490 . S
C2768 H2758 0.930 . S
C2768 C2767 1.400 . S
C2768 C2771 1.386 . S
H2769 C2785 0.930 . S
H2770 C2786 0.931 . S
C2771 H2759 0.929 . S
C2771 C2765 1.390 . S
C2771 C2768 1.386 . S
C2772 C2767 1.490 . S
C2772 C2774 1.395 1_655 S
C2772 C2775 1.403 . S
H2773 C2779 0.930 . S
C2774 H2760 0.930 . S
C2774 C2772 1.395 1_455 S
C2774 C2777 1.403 . S
C2775 C2772 1.403 . S
C2775 C2776 1.524 . S
C2775 C2779 1.400 . S
C2776 H2761 0.960 . S
C2776 H2762 0.960 . S
C2776 H2763 0.960 . S
C2776 C2775 1.524 . S
C2777 C2774 1.403 . S
C2777 C2778 1.392 . S
C2777 C2781 1.495 . S
C2778 C2777 1.392 . S
C2778 C2779 1.385 1_455 S
C2778 C2780 1.478 . S
C2779 H2773 0.930 . S
C2779 C2775 1.400 . S
C2779 C2778 1.385 1_655 S
C2780 C2778 1.478 . S
C2780 C2782 1.381 . S
C2780 C2786 1.383 1_455 S
C2781 C2777 1.495 . S
C2781 H2787 0.959 . S
C2781 H2788 0.961 . S
C2781 H2789 0.960 . S
C2782 C2780 1.381 . S
C2782 C2783 1.394 . S
C2782 H2790 0.930 . S
C2783 C2782 1.394 . S
C2783 C2784 1.383 . S
C2783 H2791 0.929 . S
C2784 C2783 1.383 . S
C2784 C2785 1.377 1_455 S
C2785 H2769 0.930 . S
C2785 C2784 1.377 1_655 S
C2785 C2786 1.379 . S
C2786 H2770 0.931 . S
C2786 C2780 1.383 1_655 S
C2786 C2785 1.379 . S
H2787 C2781 0.959 . S
H2788 C2781 0.961 . S
H2789 C2781 0.960 . S
H2790 C2782 0.930 . S
H2791 C2783 0.929 . S
H2792 C2800 0.929 . S
H2793 C2802 0.930 . S
H2794 C2804 0.930 . S
H2795 C2807 0.929 . S
H2796 C2810 0.930 . S
H2797 C2812 0.960 . S
H2798 C2812 0.960 . S
H2799 C2812 0.960 . S
C2800 H2792 0.929 . S
C2800 C2801 1.377 . S
C2800 C2802 1.384 . S
C2801 C2800 1.377 . S
C2801 C2807 1.390 . S
C2802 H2793 0.930 . S
C2802 C2800 1.384 . S
C2802 C2803 1.372 . S
C2803 C2802 1.372 . S
C2803 C2804 1.400 . S
C2803 C2808 1.490 . S
C2804 H2794 0.930 . S
C2804 C2803 1.400 . S
C2804 C2807 1.386 . S
H2805 C2821 0.930 . S
H2806 C2822 0.931 . S
C2807 H2795 0.929 . S
C2807 C2801 1.390 . S
C2807 C2804 1.386 . S
C2808 C2803 1.490 . S
C2808 C2810 1.395 . S
C2808 C2811 1.403 . S
H2809 C2815 0.930 . S
C2810 H2796 0.930 . S
C2810 C2808 1.395 . S
C2810 C2813 1.403 . S
C2811 C2808 1.403 . S
C2811 C2812 1.524 . S
C2811 C2815 1.400 . S
C2812 H2797 0.960 . S
C2812 H2798 0.960 . S
C2812 H2799 0.960 . S
C2812 C2811 1.524 . S
C2813 C2810 1.403 . S
C2813 C2814 1.392 . S
C2813 C2817 1.495 . S
C2814 C2813 1.392 . S
C2814 C2815 1.385 . S
C2814 C2816 1.478 . S
C2815 H2809 0.930 . S
C2815 C2811 1.400 . S
C2815 C2814 1.385 . S
C2816 C2814 1.478 . S
C2816 C2818 1.381 . S
C2816 C2822 1.383 . S
C2817 C2813 1.495 . S
C2817 H2823 0.959 . S
C2817 H2824 0.961 . S
C2817 H2825 0.960 . S
C2818 C2816 1.381 . S
C2818 C2819 1.394 . S
C2818 H2826 0.930 . S
C2819 C2818 1.394 . S
C2819 C2820 1.383 . S
C2819 H2827 0.929 . S
C2820 C2819 1.383 . S
C2820 C2821 1.377 . S
C2821 H2805 0.930 . S
C2821 C2820 1.377 . S
C2821 C2822 1.379 . S
C2822 H2806 0.931 . S
C2822 C2816 1.383 . S
C2822 C2821 1.379 . S
H2823 C2817 0.959 . S
H2824 C2817 0.961 . S
H2825 C2817 0.960 . S
H2826 C2818 0.930 . S
H2827 C2819 0.929 . S
H2828 C2836 0.929 . S
H2829 C2838 0.930 . S
H2830 C2840 0.930 . S
H2831 C2843 0.929 . S
H2832 C2846 0.930 . S
H2833 C2848 0.960 . S
H2834 C2848 0.960 . S
H2835 C2848 0.960 . S
C2836 H2828 0.929 . S
C2836 C2837 1.377 . S
C2836 C2838 1.384 . S
C2837 C2836 1.377 . S
C2837 C2843 1.390 . S
C2838 H2829 0.930 . S
C2838 C2836 1.384 . S
C2838 C2839 1.372 . S
C2839 C2838 1.372 . S
C2839 C2840 1.400 . S
C2839 C2844 1.490 . S
C2840 H2830 0.930 . S
C2840 C2839 1.400 . S
C2840 C2843 1.386 . S
H2841 C2857 0.930 . S
H2842 C2858 0.931 . S
C2843 H2831 0.929 . S
C2843 C2837 1.390 . S
C2843 C2840 1.386 . S
C2844 C2839 1.490 . S
C2844 C2846 1.395 . S
C2844 C2847 1.403 . S
H2845 C2851 0.930 . S
C2846 H2832 0.930 . S
C2846 C2844 1.395 . S
C2846 C2849 1.403 . S
C2847 C2844 1.403 . S
C2847 C2848 1.524 . S
C2847 C2851 1.400 . S
C2848 H2833 0.960 . S
C2848 H2834 0.960 . S
C2848 H2835 0.960 . S
C2848 C2847 1.524 . S
C2849 C2846 1.403 . S
C2849 C2850 1.392 . S
C2849 C2853 1.495 . S
C2850 C2849 1.392 . S
C2850 C2851 1.385 . S
C2850 C2852 1.478 . S
C2851 H2845 0.930 . S
C2851 C2847 1.400 . S
C2851 C2850 1.385 . S
C2852 C2850 1.478 . S
C2852 C2854 1.381 . S
C2852 C2858 1.383 . S
C2853 C2849 1.495 . S
C2853 H2859 0.959 . S
C2853 H2860 0.961 . S
C2853 H2861 0.960 . S
C2854 C2852 1.381 . S
C2854 C2855 1.394 . S
C2854 H2862 0.930 . S
C2855 C2854 1.394 . S
C2855 C2856 1.383 . S
C2855 H2863 0.929 . S
C2856 C2855 1.383 . S
C2856 C2857 1.377 . S
C2857 H2841 0.930 . S
C2857 C2856 1.377 . S
C2857 C2858 1.379 . S
C2858 H2842 0.931 . S
C2858 C2852 1.383 . S
C2858 C2857 1.379 . S
H2859 C2853 0.959 . S
H2860 C2853 0.961 . S
H2861 C2853 0.960 . S
H2862 C2854 0.930 . S
H2863 C2855 0.929 . S
H2864 C2872 0.929 . S
H2865 C2874 0.930 . S
H2866 C2876 0.930 . S
H2867 C2879 0.929 . S
H2868 C2882 0.930 . S
H2869 C2884 0.960 . S
H2870 C2884 0.960 . S
H2871 C2884 0.960 . S
C2872 H2864 0.929 . S
C2872 C2873 1.377 . S
C2872 C2874 1.384 . S
C2873 C2872 1.377 . S
C2873 C2879 1.390 . S
C2874 H2865 0.930 . S
C2874 C2872 1.384 . S
C2874 C2875 1.372 . S
C2875 C2874 1.372 . S
C2875 C2876 1.400 . S
C2875 C2880 1.490 . S
C2876 H2866 0.930 . S
C2876 C2875 1.400 . S
C2876 C2879 1.386 . S
H2877 C2893 0.930 . S
H2878 C2894 0.931 . S
C2879 H2867 0.929 . S
C2879 C2873 1.390 . S
C2879 C2876 1.386 . S
C2880 C2875 1.490 . S
C2880 C2882 1.395 . S
C2880 C2883 1.403 . S
H2881 C2887 0.930 . S
C2882 H2868 0.930 . S
C2882 C2880 1.395 . S
C2882 C2885 1.403 1_455 S
C2883 C2880 1.403 . S
C2883 C2884 1.524 . S
C2883 C2887 1.400 1_455 S
C2884 H2869 0.960 . S
C2884 H2870 0.960 . S
C2884 H2871 0.960 . S
C2884 C2883 1.524 . S
C2885 C2882 1.403 1_655 S
C2885 C2886 1.392 . S
C2885 C2889 1.495 . S
C2886 C2885 1.392 . S
C2886 C2887 1.385 . S
C2886 C2888 1.478 . S
C2887 H2881 0.930 . S
C2887 C2883 1.400 1_655 S
C2887 C2886 1.385 . S
C2888 C2886 1.478 . S
C2888 C2890 1.381 . S
C2888 C2894 1.383 . S
C2889 C2885 1.495 . S
C2889 H2895 0.959 . S
C2889 H2896 0.961 . S
C2889 H2897 0.960 . S
C2890 C2888 1.381 . S
C2890 C2891 1.394 . S
C2890 H2898 0.930 . S
C2891 C2890 1.394 . S
C2891 C2892 1.383 . S
C2891 H2899 0.929 . S
C2892 C2891 1.383 . S
C2892 C2893 1.377 . S
C2893 H2877 0.930 . S
C2893 C2892 1.377 . S
C2893 C2894 1.379 . S
C2894 H2878 0.931 . S
C2894 C2888 1.383 . S
C2894 C2893 1.379 . S
H2895 C2889 0.959 . S
H2896 C2889 0.961 . S
H2897 C2889 0.960 . S
H2898 C2890 0.930 . S
H2899 C2891 0.929 . S
H2900 C2908 0.929 . S
H2901 C2910 0.930 . S
H2902 C2912 0.930 . S
H2903 C2915 0.929 . S
H2904 C2918 0.930 . S
H2905 C2920 0.960 . S
H2906 C2920 0.960 . S
H2907 C2920 0.960 . S
C2908 H2900 0.929 . S
C2908 C2909 1.377 . S
C2908 C2910 1.384 . S
C2909 C2908 1.377 . S
C2909 C2915 1.390 . S
C2910 H2901 0.930 . S
C2910 C2908 1.384 . S
C2910 C2911 1.372 . S
C2911 C2910 1.372 . S
C2911 C2912 1.400 . S
C2911 C2916 1.490 . S
C2912 H2902 0.930 . S
C2912 C2911 1.400 . S
C2912 C2915 1.386 . S
H2913 C2929 0.930 . S
H2914 C2930 0.931 . S
C2915 H2903 0.929 . S
C2915 C2909 1.390 . S
C2915 C2912 1.386 . S
C2916 C2911 1.490 . S
C2916 C2918 1.395 . S
C2916 C2919 1.403 . S
H2917 C2923 0.930 . S
C2918 H2904 0.930 . S
C2918 C2916 1.395 . S
C2918 C2921 1.403 . S
C2919 C2916 1.403 . S
C2919 C2920 1.524 . S
C2919 C2923 1.400 . S
C2920 H2905 0.960 . S
C2920 H2906 0.960 . S
C2920 H2907 0.960 . S
C2920 C2919 1.524 . S
C2921 C2918 1.403 . S
C2921 C2922 1.392 . S
C2921 C2925 1.495 . S
C2922 C2921 1.392 . S
C2922 C2923 1.385 . S
C2922 C2924 1.478 . S
C2923 H2917 0.930 . S
C2923 C2919 1.400 . S
C2923 C2922 1.385 . S
C2924 C2922 1.478 . S
C2924 C2926 1.381 . S
C2924 C2930 1.383 . S
C2925 C2921 1.495 . S
C2925 H2931 0.959 . S
C2925 H2932 0.961 . S
C2925 H2933 0.960 . S
C2926 C2924 1.381 . S
C2926 C2927 1.394 . S
C2926 H2934 0.930 . S
C2927 C2926 1.394 . S
C2927 C2928 1.383 . S
C2927 H2935 0.929 . S
C2928 C2927 1.383 . S
C2928 C2929 1.377 . S
C2929 H2913 0.930 . S
C2929 C2928 1.377 . S
C2929 C2930 1.379 . S
C2930 H2914 0.931 . S
C2930 C2924 1.383 . S
C2930 C2929 1.379 . S
H2931 C2925 0.959 . S
H2932 C2925 0.961 . S
H2933 C2925 0.960 . S
H2934 C2926 0.930 . S
H2935 C2927 0.929 . S
H2936 C2944 0.929 . S
H2937 C2946 0.930 . S
H2938 C2948 0.930 . S
H2939 C2951 0.929 . S
H2940 C2954 0.930 . S
H2941 C2956 0.960 . S
H2942 C2956 0.960 . S
H2943 C2956 0.960 . S
C2944 H2936 0.929 . S
C2944 C2945 1.377 . S
C2944 C2946 1.384 . S
C2945 C2944 1.377 . S
C2945 C2951 1.390 . S
C2946 H2937 0.930 . S
C2946 C2944 1.384 . S
C2946 C2947 1.372 . S
C2947 C2946 1.372 . S
C2947 C2948 1.400 . S
C2947 C2952 1.490 . S
C2948 H2938 0.930 . S
C2948 C2947 1.400 . S
C2948 C2951 1.386 . S
H2949 C2965 0.930 . S
H2950 C2966 0.931 . S
C2951 H2939 0.929 . S
C2951 C2945 1.390 . S
C2951 C2948 1.386 . S
C2952 C2947 1.490 . S
C2952 C2954 1.395 . S
C2952 C2955 1.403 . S
H2953 C2959 0.930 . S
C2954 H2940 0.930 . S
C2954 C2952 1.395 . S
C2954 C2957 1.403 . S
C2955 C2952 1.403 . S
C2955 C2956 1.524 . S
C2955 C2959 1.400 . S
C2956 H2941 0.960 . S
C2956 H2942 0.960 . S
C2956 H2943 0.960 . S
C2956 C2955 1.524 . S
C2957 C2954 1.403 . S
C2957 C2958 1.392 . S
C2957 C2961 1.495 . S
C2958 C2957 1.392 . S
C2958 C2959 1.385 . S
C2958 C2960 1.478 . S
C2959 H2953 0.930 . S
C2959 C2955 1.400 . S
C2959 C2958 1.385 . S
C2960 C2958 1.478 . S
C2960 C2962 1.381 . S
C2960 C2966 1.383 . S
C2961 C2957 1.495 . S
C2961 H2967 0.959 . S
C2961 H2968 0.961 . S
C2961 H2969 0.960 . S
C2962 C2960 1.381 . S
C2962 C2963 1.394 . S
C2962 H2970 0.930 . S
C2963 C2962 1.394 . S
C2963 C2964 1.383 . S
C2963 H2971 0.929 . S
C2964 C2963 1.383 . S
C2964 C2965 1.377 . S
C2965 H2949 0.930 . S
C2965 C2964 1.377 . S
C2965 C2966 1.379 . S
C2966 H2950 0.931 . S
C2966 C2960 1.383 . S
C2966 C2965 1.379 . S
H2967 C2961 0.959 . S
H2968 C2961 0.961 . S
H2969 C2961 0.960 . S
H2970 C2962 0.930 . S
H2971 C2963 0.929 . S
H2972 C2980 0.929 . S
H2973 C2982 0.930 . S
H2974 C2984 0.930 . S
H2975 C2987 0.929 . S
H2976 C2990 0.930 . S
H2977 C2992 0.960 . S
H2978 C2992 0.960 . S
H2979 C2992 0.960 . S
C2980 H2972 0.929 . S
C2980 C2981 1.377 . S
C2980 C2982 1.384 . S
C2981 C2980 1.377 . S
C2981 C2987 1.390 1_655 S
C2982 H2973 0.930 . S
C2982 C2980 1.384 . S
C2982 C2983 1.372 . S
C2983 C2982 1.372 . S
C2983 C2984 1.400 1_655 S
C2983 C2988 1.490 . S
C2984 H2974 0.930 . S
C2984 C2983 1.400 1_455 S
C2984 C2987 1.386 . S
H2985 C3001 0.930 . S
H2986 C3002 0.931 . S
C2987 H2975 0.929 . S
C2987 C2981 1.390 1_455 S
C2987 C2984 1.386 . S
C2988 C2983 1.490 . S
C2988 C2990 1.395 . S
C2988 C2991 1.403 1_655 S
H2989 C2995 0.930 . S
C2990 H2976 0.930 . S
C2990 C2988 1.395 . S
C2990 C2993 1.403 . S
C2991 C2988 1.403 1_455 S
C2991 C2992 1.524 . S
C2991 C2995 1.400 . S
C2992 H2977 0.960 . S
C2992 H2978 0.960 . S
C2992 H2979 0.960 . S
C2992 C2991 1.524 . S
C2993 C2990 1.403 . S
C2993 C2994 1.392 1_655 S
C2993 C2997 1.495 . S
C2994 C2993 1.392 1_455 S
C2994 C2995 1.385 . S
C2994 C2996 1.478 . S
C2995 H2989 0.930 . S
C2995 C2991 1.400 . S
C2995 C2994 1.385 . S
C2996 C2994 1.478 . S
C2996 C2998 1.381 1_455 S
C2996 C3002 1.383 . S
C2997 C2993 1.495 . S
C2997 H3003 0.959 . S
C2997 H3004 0.961 . S
C2997 H3005 0.960 . S
C2998 C2996 1.381 1_655 S
C2998 C2999 1.394 . S
C2998 H3006 0.930 . S
C2999 C2998 1.394 . S
C2999 C3000 1.383 1_655 S
C2999 H3007 0.929 . S
C3000 C2999 1.383 1_455 S
C3000 C3001 1.377 . S
C3001 H2985 0.930 . S
C3001 C3000 1.377 . S
C3001 C3002 1.379 . S
C3002 H2986 0.931 . S
C3002 C2996 1.383 . S
C3002 C3001 1.379 . S
H3003 C2997 0.959 . S
H3004 C2997 0.961 . S
H3005 C2997 0.960 . S
H3006 C2998 0.930 . S
H3007 C2999 0.929 . S
H3008 C3016 0.929 . S
H3009 C3018 0.930 . S
H3010 C3020 0.930 . S
H3011 C3023 0.929 . S
H3012 C3026 0.930 . S
H3013 C3028 0.960 . S
H3014 C3028 0.960 . S
H3015 C3028 0.960 . S
C3016 H3008 0.929 . S
C3016 C3017 1.377 . S
C3016 C3018 1.384 . S
C3017 C3016 1.377 . S
C3017 C3023 1.390 . S
C3018 H3009 0.930 . S
C3018 C3016 1.384 . S
C3018 C3019 1.372 . S
C3019 C3018 1.372 . S
C3019 C3020 1.400 . S
C3019 C3024 1.490 . S
C3020 H3010 0.930 . S
C3020 C3019 1.400 . S
C3020 C3023 1.386 . S
H3021 C3037 0.930 . S
H3022 C3038 0.931 . S
C3023 H3011 0.929 . S
C3023 C3017 1.390 . S
C3023 C3020 1.386 . S
C3024 C3019 1.490 . S
C3024 C3026 1.395 . S
C3024 C3027 1.403 . S
H3025 C3031 0.930 . S
C3026 H3012 0.930 . S
C3026 C3024 1.395 . S
C3026 C3029 1.403 . S
C3027 C3024 1.403 . S
C3027 C3028 1.524 . S
C3027 C3031 1.400 . S
C3028 H3013 0.960 . S
C3028 H3014 0.960 . S
C3028 H3015 0.960 . S
C3028 C3027 1.524 . S
C3029 C3026 1.403 . S
C3029 C3030 1.392 . S
C3029 C3033 1.495 . S
C3030 C3029 1.392 . S
C3030 C3031 1.385 . S
C3030 C3032 1.478 . S
C3031 H3025 0.930 . S
C3031 C3027 1.400 . S
C3031 C3030 1.385 . S
C3032 C3030 1.478 . S
C3032 C3034 1.381 . S
C3032 C3038 1.383 . S
C3033 C3029 1.495 . S
C3033 H3039 0.959 . S
C3033 H3040 0.961 . S
C3033 H3041 0.960 . S
C3034 C3032 1.381 . S
C3034 C3035 1.394 . S
C3034 H3042 0.930 . S
C3035 C3034 1.394 . S
C3035 C3036 1.383 . S
C3035 H3043 0.929 . S
C3036 C3035 1.383 . S
C3036 C3037 1.377 . S
C3037 H3021 0.930 . S
C3037 C3036 1.377 . S
C3037 C3038 1.379 . S
C3038 H3022 0.931 . S
C3038 C3032 1.383 . S
C3038 C3037 1.379 . S
H3039 C3033 0.959 . S
H3040 C3033 0.961 . S
H3041 C3033 0.960 . S
H3042 C3034 0.930 . S
H3043 C3035 0.929 . S
H3044 C3052 0.929 1_455 S
H3045 C3054 0.930 1_565 S
H3046 C3056 0.930 . S
H3047 C3059 0.929 . S
H3048 C3062 0.930 . S
H3049 C3064 0.960 . S
H3050 C3064 0.960 . S
H3051 C3064 0.960 . S
C3052 H3044 0.929 1_655 S
C3052 C3053 1.377 . S
C3052 C3054 1.384 1_655 S
C3053 C3052 1.377 . S
C3053 C3059 1.390 . S
C3054 H3045 0.930 1_545 S
C3054 C3052 1.384 1_455 S
C3054 C3055 1.372 1_455 S
C3055 C3054 1.372 1_655 S
C3055 C3056 1.400 . S
C3055 C3060 1.490 . S
C3056 H3046 0.930 . S
C3056 C3055 1.400 . S
C3056 C3059 1.386 . S
H3057 C3073 0.930 1_645 S
H3058 C3074 0.932 . S
C3059 H3047 0.929 . S
C3059 C3053 1.390 . S
C3059 C3056 1.386 . S
C3060 C3055 1.490 . S
C3060 C3062 1.395 1_655 S
C3060 C3063 1.403 1_545 S
H3061 C3067 0.930 . S
C3062 H3048 0.930 . S
C3062 C3060 1.395 1_455 S
C3062 C3065 1.403 . S
C3063 C3060 1.403 1_565 S
C3063 C3064 1.524 . S
C3063 C3067 1.400 . S
C3064 H3049 0.960 . S
C3064 H3050 0.960 . S
C3064 H3051 0.960 . S
C3064 C3063 1.524 . S
C3065 C3062 1.403 . S
C3065 C3066 1.392 1_545 S
C3065 C3069 1.495 . S
C3066 C3065 1.392 1_565 S
C3066 C3067 1.385 1_455 S
C3066 C3068 1.478 . S
C3067 H3061 0.930 . S
C3067 C3063 1.400 . S
C3067 C3066 1.385 1_655 S
C3068 C3066 1.478 . S
C3068 C3070 1.381 . S
C3068 C3074 1.382 1_465 S
C3069 C3065 1.495 . S
C3069 H3075 0.959 . S
C3069 H3076 0.961 . S
C3069 H3077 0.960 . S
C3070 C3068 1.381 . S
C3070 C3071 1.394 . S
C3070 H3078 0.930 . S
C3071 C3070 1.394 . S
C3071 C3072 1.383 . S
C3071 H3079 0.929 . S
C3072 C3071 1.383 . S
C3072 C3073 1.377 . S
C3073 H3057 0.930 1_465 S
C3073 C3072 1.377 . S
C3073 C3074 1.379 1_465 S
C3074 H3058 0.932 . S
C3074 C3068 1.382 1_645 S
C3074 C3073 1.379 1_645 S
H3075 C3069 0.959 . S
H3076 C3069 0.961 . S
H3077 C3069 0.960 . S
H3078 C3070 0.930 . S
H3079 C3071 0.929 . S
H3080 C3088 0.929 . S
H3081 C3090 0.930 . S
H3082 C3092 0.930 . S
H3083 C3095 0.929 . S
H3084 C3098 0.930 . S
H3085 C3100 0.960 . S
H3086 C3100 0.960 . S
H3087 C3100 0.960 . S
C3088 H3080 0.929 . S
C3088 C3089 1.377 . S
C3088 C3090 1.384 . S
C3089 C3088 1.377 . S
C3089 C3095 1.390 . S
C3090 H3081 0.930 . S
C3090 C3088 1.384 . S
C3090 C3091 1.372 . S
C3091 C3090 1.372 . S
C3091 C3092 1.400 . S
C3091 C3096 1.490 . S
C3092 H3082 0.930 . S
C3092 C3091 1.400 . S
C3092 C3095 1.386 . S
H3093 C3109 0.930 . S
H3094 C3110 0.931 . S
C3095 H3083 0.929 . S
C3095 C3089 1.390 . S
C3095 C3092 1.386 . S
C3096 C3091 1.490 . S
C3096 C3098 1.395 . S
C3096 C3099 1.403 . S
H3097 C3103 0.930 . S
C3098 H3084 0.930 . S
C3098 C3096 1.395 . S
C3098 C3101 1.403 . S
C3099 C3096 1.403 . S
C3099 C3100 1.524 . S
C3099 C3103 1.400 . S
C3100 H3085 0.960 . S
C3100 H3086 0.960 . S
C3100 H3087 0.960 . S
C3100 C3099 1.524 . S
C3101 C3098 1.403 . S
C3101 C3102 1.392 . S
C3101 C3105 1.495 . S
C3102 C3101 1.392 . S
C3102 C3103 1.385 . S
C3102 C3104 1.478 . S
C3103 H3097 0.930 . S
C3103 C3099 1.400 . S
C3103 C3102 1.385 . S
C3104 C3102 1.478 . S
C3104 C3106 1.381 . S
C3104 C3110 1.383 . S
C3105 C3101 1.495 . S
C3105 H3111 0.959 . S
C3105 H3112 0.961 . S
C3105 H3113 0.960 . S
C3106 C3104 1.381 . S
C3106 C3107 1.394 . S
C3106 H3114 0.930 . S
C3107 C3106 1.394 . S
C3107 C3108 1.383 . S
C3107 H3115 0.929 . S
C3108 C3107 1.383 . S
C3108 C3109 1.377 . S
C3109 H3093 0.930 . S
C3109 C3108 1.377 . S
C3109 C3110 1.379 . S
C3110 H3094 0.931 . S
C3110 C3104 1.383 . S
C3110 C3109 1.379 . S
H3111 C3105 0.959 . S
H3112 C3105 0.961 . S
H3113 C3105 0.960 . S
H3114 C3106 0.930 . S
H3115 C3107 0.929 . S
H3116 C3124 0.929 . S
H3117 C3126 0.930 . S
H3118 C3128 0.930 . S
H3119 C3131 0.910 1_565 S
H3120 C3134 0.930 . S
H3121 C3136 0.960 1_556 S
H3122 C3136 0.960 . S
H3123 C3136 0.960 . S
C3124 H3116 0.929 . S
C3124 C3125 1.377 . S
C3124 C3126 1.384 . S
C3125 C3124 1.377 . S
C3125 C3131 1.415 . S
C3126 H3117 0.930 . S
C3126 C3124 1.384 . S
C3126 C3127 1.372 . S
C3127 C3126 1.372 . S
C3127 C3128 1.400 1_545 S
C3127 C3132 1.490 . S
C3128 H3118 0.930 . S
C3128 C3127 1.400 1_565 S
C3128 C3131 1.381 1_565 S
H3129 C3145 0.930 . S
H3130 C3146 0.931 . S
C3131 H3119 0.910 1_545 S
C3131 C3125 1.415 . S
C3131 C3128 1.381 1_545 S
C3132 C3127 1.490 . S
C3132 C3134 1.395 1_545 S
C3132 C3135 1.403 . S
H3133 C3139 0.930 . S
C3134 H3120 0.930 . S
C3134 C3132 1.395 1_565 S
C3134 C3137 1.403 1_554 S
C3135 C3132 1.403 . S
C3135 C3136 1.524 . S
C3135 C3139 1.400 1_554 S
C3136 H3121 0.960 1_554 S
C3136 H3122 0.960 . S
C3136 H3123 0.960 . S
C3136 C3135 1.524 . S
C3137 C3134 1.403 1_556 S
C3137 C3138 1.392 . S
C3137 C3141 1.495 . S
C3138 C3137 1.392 . S
C3138 C3139 1.385 1_565 S
C3138 C3140 1.478 . S
C3139 H3133 0.930 . S
C3139 C3135 1.400 1_556 S
C3139 C3138 1.385 1_545 S
C3140 C3138 1.478 . S
C3140 C3142 1.381 1_565 S
C3140 C3146 1.383 . S
C3141 C3137 1.495 . S
C3141 H3147 0.959 1_556 S
C3141 H3148 0.961 . S
C3141 H3149 0.960 . S
C3142 C3140 1.381 1_545 S
C3142 C3143 1.396 . S
C3142 H3150 0.930 . S
C3143 C3142 1.396 . S
C3143 C3144 1.373 1_545 S
C3143 H3151 0.938 . S
C3144 C3143 1.373 1_565 S
C3144 C3145 1.377 . S
C3145 H3129 0.930 . S
C3145 C3144 1.377 . S
C3145 C3146 1.379 . S
C3146 H3130 0.931 . S
C3146 C3140 1.383 . S
C3146 C3145 1.379 . S
H3147 C3141 0.959 1_554 S
H3148 C3141 0.961 . S
H3149 C3141 0.960 . S
H3150 C3142 0.930 . S
H3151 C3143 0.938 . S
H3152 C3160 0.929 . S
H3153 C3162 0.930 . S
H3154 C3164 0.930 . S
H3155 C3167 0.929 . S
H3156 C3170 0.930 . S
H3157 C3172 0.960 . S
H3158 C3172 0.960 . S
H3159 C3172 0.960 . S
C3160 H3152 0.929 . S
C3160 C3161 1.377 . S
C3160 C3162 1.384 . S
C3161 C3160 1.377 . S
C3161 C3167 1.390 . S
C3162 H3153 0.930 . S
C3162 C3160 1.384 . S
C3162 C3163 1.372 . S
C3163 C3162 1.372 . S
C3163 C3164 1.400 . S
C3163 C3168 1.490 . S
C3164 H3154 0.930 . S
C3164 C3163 1.400 . S
C3164 C3167 1.386 . S
H3165 C3181 0.930 . S
H3166 C3182 0.931 . S
C3167 H3155 0.929 . S
C3167 C3161 1.390 . S
C3167 C3164 1.386 . S
C3168 C3163 1.490 . S
C3168 C3170 1.395 . S
C3168 C3171 1.403 . S
H3169 C3175 0.930 . S
C3170 H3156 0.930 . S
C3170 C3168 1.395 . S
C3170 C3173 1.403 . S
C3171 C3168 1.403 . S
C3171 C3172 1.524 . S
C3171 C3175 1.400 . S
C3172 H3157 0.960 . S
C3172 H3158 0.960 . S
C3172 H3159 0.960 . S
C3172 C3171 1.524 . S
C3173 C3170 1.403 . S
C3173 C3174 1.392 . S
C3173 C3177 1.495 . S
C3174 C3173 1.392 . S
C3174 C3175 1.385 . S
C3174 C3176 1.478 . S
C3175 H3169 0.930 . S
C3175 C3171 1.400 . S
C3175 C3174 1.385 . S
C3176 C3174 1.478 . S
C3176 C3178 1.381 . S
C3176 C3182 1.383 . S
C3177 C3173 1.495 . S
C3177 H3183 0.959 . S
C3177 H3184 0.961 . S
C3177 H3185 0.960 . S
C3178 C3176 1.381 . S
C3178 C3179 1.394 . S
C3178 H3186 0.930 . S
C3179 C3178 1.394 . S
C3179 C3180 1.383 . S
C3179 H3187 0.929 . S
C3180 C3179 1.383 . S
C3180 C3181 1.377 . S
C3181 H3165 0.930 . S
C3181 C3180 1.377 . S
C3181 C3182 1.379 . S
C3182 H3166 0.931 . S
C3182 C3176 1.383 . S
C3182 C3181 1.379 . S
H3183 C3177 0.959 . S
H3184 C3177 0.961 . S
H3185 C3177 0.960 . S
H3186 C3178 0.930 . S
H3187 C3179 0.929 . S
H3188 C3196 0.929 . S
H3189 C3198 0.930 . S
H3190 C3200 0.930 . S
H3191 C3203 0.929 . S
H3192 C3206 0.930 . S
H3193 C3208 0.960 . S
H3194 C3208 0.960 . S
H3195 C3208 0.960 1_565 S
C3196 H3188 0.929 . S
C3196 C3197 1.377 . S
C3196 C3198 1.384 . S
C3197 C3196 1.377 . S
C3197 C3203 1.390 1_545 S
C3198 H3189 0.930 . S
C3198 C3196 1.384 . S
C3198 C3199 1.372 . S
C3199 C3198 1.372 . S
C3199 C3200 1.400 1_545 S
C3199 C3204 1.490 . S
C3200 H3190 0.930 . S
C3200 C3199 1.400 1_565 S
C3200 C3203 1.386 . S
H3201 C3217 0.930 . S
H3202 C3218 0.931 . S
C3203 H3191 0.929 . S
C3203 C3197 1.390 1_565 S
C3203 C3200 1.386 . S
C3204 C3199 1.490 . S
C3204 C3206 1.395 . S
C3204 C3207 1.403 . S
H3205 C3211 0.930 . S
C3206 H3192 0.930 . S
C3206 C3204 1.395 . S
C3206 C3209 1.403 1_545 S
C3207 C3204 1.403 . S
C3207 C3208 1.524 . S
C3207 C3211 1.400 1_545 S
C3208 H3193 0.960 . S
C3208 H3194 0.960 . S
C3208 H3195 0.960 1_545 S
C3208 C3207 1.524 . S
C3209 C3206 1.403 1_565 S
C3209 C3210 1.392 . S
C3209 C3213 1.495 . S
C3210 C3209 1.392 . S
C3210 C3211 1.385 . S
C3210 C3212 1.478 . S
C3211 H3205 0.930 . S
C3211 C3207 1.400 1_565 S
C3211 C3210 1.385 . S
C3212 C3210 1.478 . S
C3212 C3214 1.381 1_565 S
C3212 C3218 1.383 . S
C3213 C3209 1.495 . S
C3213 H3219 0.959 . S
C3213 H3220 0.961 . S
C3213 H3221 0.960 1_565 S
C3214 C3212 1.381 1_545 S
C3214 C3215 1.394 . S
C3214 H3222 0.930 . S
C3215 C3214 1.394 . S
C3215 C3216 1.383 1_545 S
C3215 H3223 0.929 . S
C3216 C3215 1.383 1_565 S
C3216 C3217 1.377 . S
C3217 H3201 0.930 . S
C3217 C3216 1.377 . S
C3217 C3218 1.379 . S
C3218 H3202 0.931 . S
C3218 C3212 1.383 . S
C3218 C3217 1.379 . S
H3219 C3213 0.959 . S
H3220 C3213 0.961 . S
H3221 C3213 0.960 1_545 S
H3222 C3214 0.930 . S
H3223 C3215 0.929 . S
H3224 C3232 0.929 . S
H3225 C3234 0.930 . S
H3226 C3236 0.930 . S
H3227 C3239 0.929 . S
H3228 C3242 0.930 . S
H3229 C3244 0.960 . S
H3230 C3244 0.960 . S
H3231 C3244 0.960 . S
C3232 H3224 0.929 . S
C3232 C3233 1.377 . S
C3232 C3234 1.384 . S
C3233 C3232 1.377 . S
C3233 C3239 1.390 . S
C3234 H3225 0.930 . S
C3234 C3232 1.384 . S
C3234 C3235 1.372 . S
C3235 C3234 1.372 . S
C3235 C3236 1.400 . S
C3235 C3240 1.490 . S
C3236 H3226 0.930 . S
C3236 C3235 1.400 . S
C3236 C3239 1.386 . S
H3237 C3253 0.930 . S
H3238 C3254 0.931 . S
C3239 H3227 0.929 . S
C3239 C3233 1.390 . S
C3239 C3236 1.386 . S
C3240 C3235 1.490 . S
C3240 C3242 1.395 . S
C3240 C3243 1.403 . S
H3241 C3247 0.930 . S
C3242 H3228 0.930 . S
C3242 C3240 1.395 . S
C3242 C3245 1.403 . S
C3243 C3240 1.403 . S
C3243 C3244 1.524 . S
C3243 C3247 1.400 . S
C3244 H3229 0.960 . S
C3244 H3230 0.960 . S
C3244 H3231 0.960 . S
C3244 C3243 1.524 . S
C3245 C3242 1.403 . S
C3245 C3246 1.392 . S
C3245 C3249 1.495 . S
C3246 C3245 1.392 . S
C3246 C3247 1.385 . S
C3246 C3248 1.478 . S
C3247 H3241 0.930 . S
C3247 C3243 1.400 . S
C3247 C3246 1.385 . S
C3248 C3246 1.478 . S
C3248 C3250 1.381 . S
C3248 C3254 1.383 . S
C3249 C3245 1.495 . S
C3249 H3255 0.959 . S
C3249 H3256 0.961 . S
C3249 H3257 0.960 . S
C3250 C3248 1.381 . S
C3250 C3251 1.394 . S
C3250 H3258 0.930 . S
C3251 C3250 1.394 . S
C3251 C3252 1.383 . S
C3251 H3259 0.929 . S
C3252 C3251 1.383 . S
C3252 C3253 1.377 . S
C3253 H3237 0.930 . S
C3253 C3252 1.377 . S
C3253 C3254 1.379 . S
C3254 H3238 0.931 . S
C3254 C3248 1.383 . S
C3254 C3253 1.379 . S
H3255 C3249 0.959 . S
H3256 C3249 0.961 . S
H3257 C3249 0.960 . S
H3258 C3250 0.930 . S
H3259 C3251 0.929 . S
H3260 C3268 0.929 . S
H3261 C3270 0.930 . S
H3262 C3272 0.930 . S
H3263 C3275 0.929 . S
H3264 C3278 0.930 . S
H3265 C3280 0.869 1_554 S
H3266 C3280 0.960 1_545 S
H3267 C3280 0.960 . S
C3268 H3260 0.929 . S
C3268 C3269 1.377 . S
C3268 C3270 1.384 . S
C3269 C3268 1.377 . S
C3269 C3275 1.390 1_545 S
C3270 H3261 0.930 . S
C3270 C3268 1.384 . S
C3270 C3271 1.372 . S
C3271 C3270 1.372 . S
C3271 C3272 1.400 1_545 S
C3271 C3276 1.490 . S
C3272 H3262 0.930 . S
C3272 C3271 1.400 1_565 S
C3272 C3275 1.386 . S
H3273 C3289 0.930 . S
H3274 C3290 0.931 . S
C3275 H3263 0.929 . S
C3275 C3269 1.390 1_565 S
C3275 C3272 1.386 . S
C3276 C3271 1.490 . S
C3276 C3278 1.395 1_455 S
C3276 C3279 1.403 1_545 S
H3277 C3283 0.930 . S
C3278 H3264 0.930 . S
C3278 C3276 1.395 1_655 S
C3278 C3281 1.403 1_556 S
C3279 C3276 1.403 1_565 S
C3279 C3280 1.524 . S
C3279 C3283 1.400 1_556 S
C3280 H3265 0.869 1_556 S
C3280 H3266 0.960 1_565 S
C3280 H3267 0.960 . S
C3280 C3279 1.524 . S
C3281 C3278 1.403 1_554 S
C3281 C3282 1.392 1_545 S
C3281 C3285 1.495 . S
C3282 C3281 1.392 1_565 S
C3282 C3283 1.385 1_655 S
C3282 C3284 1.478 . S
C3283 H3277 0.930 . S
C3283 C3279 1.400 1_554 S
C3283 C3282 1.385 1_455 S
C3284 C3282 1.478 . S
C3284 C3286 1.381 1_565 S
C3284 C3290 1.383 . S
C3285 C3281 1.495 . S
C3285 H3291 0.899 1_554 S
C3285 H3292 0.961 1_545 S
C3285 H3293 0.960 . S
C3286 C3284 1.381 1_545 S
C3286 C3287 1.394 . S
C3286 H3294 0.930 . S
C3287 C3286 1.394 . S
C3287 C3288 1.383 1_545 S
C3287 H3295 0.929 . S
C3288 C3287 1.383 1_565 S
C3288 C3289 1.377 . S
C3289 H3273 0.930 . S
C3289 C3288 1.377 . S
C3289 C3290 1.379 . S
C3290 H3274 0.931 . S
C3290 C3284 1.383 . S
C3290 C3289 1.379 . S
H3291 C3285 0.899 1_556 S
H3292 C3285 0.961 1_565 S
H3293 C3285 0.960 . S
H3294 C3286 0.930 . S
H3295 C3287 0.929 . S
H3296 C3304 0.929 . S
H3297 C3306 0.930 . S
H3298 C3308 0.930 . S
H3299 C3311 0.929 . S
H3300 C3314 0.930 . S
H3301 C3316 0.960 . S
H3302 C3316 0.960 . S
H3303 C3316 0.960 . S
C3304 H3296 0.929 . S
C3304 C3305 1.377 . S
C3304 C3306 1.384 . S
C3305 C3304 1.377 . S
C3305 C3311 1.390 . S
C3306 H3297 0.930 . S
C3306 C3304 1.384 . S
C3306 C3307 1.372 . S
C3307 C3306 1.372 . S
C3307 C3308 1.400 . S
C3307 C3312 1.490 . S
C3308 H3298 0.930 . S
C3308 C3307 1.400 . S
C3308 C3311 1.386 . S
H3309 C3325 0.930 . S
H3310 C3326 0.931 . S
C3311 H3299 0.929 . S
C3311 C3305 1.390 . S
C3311 C3308 1.386 . S
C3312 C3307 1.490 . S
C3312 C3314 1.395 . S
C3312 C3315 1.403 . S
H3313 C3319 0.930 . S
C3314 H3300 0.930 . S
C3314 C3312 1.395 . S
C3314 C3317 1.403 . S
C3315 C3312 1.403 . S
C3315 C3316 1.524 . S
C3315 C3319 1.400 . S
C3316 H3301 0.960 . S
C3316 H3302 0.960 . S
C3316 H3303 0.960 . S
C3316 C3315 1.524 . S
C3317 C3314 1.403 . S
C3317 C3318 1.392 . S
C3317 C3321 1.495 . S
C3318 C3317 1.392 . S
C3318 C3319 1.385 . S
C3318 C3320 1.478 . S
C3319 H3313 0.930 . S
C3319 C3315 1.400 . S
C3319 C3318 1.385 . S
C3320 C3318 1.478 . S
C3320 C3322 1.381 . S
C3320 C3326 1.383 . S
C3321 C3317 1.495 . S
C3321 H3327 0.959 . S
C3321 H3328 0.961 . S
C3321 H3329 0.960 . S
C3322 C3320 1.381 . S
C3322 C3323 1.394 . S
C3322 H3330 0.930 . S
C3323 C3322 1.394 . S
C3323 C3324 1.383 . S
C3323 H3331 0.929 . S
C3324 C3323 1.383 . S
C3324 C3325 1.377 . S
C3325 H3309 0.930 . S
C3325 C3324 1.377 . S
C3325 C3326 1.379 . S
C3326 H3310 0.931 . S
C3326 C3320 1.383 . S
C3326 C3325 1.379 . S
H3327 C3321 0.959 . S
H3328 C3321 0.961 . S
H3329 C3321 0.960 . S
H3330 C3322 0.930 . S
H3331 C3323 0.929 . S
H3332 C3340 0.929 . S
H3333 C3342 0.930 . S
H3334 C3344 0.930 . S
H3335 C3347 0.929 . S
H3336 C3350 0.930 . S
H3337 C3352 0.960 . S
H3338 C3352 0.960 . S
H3339 C3352 0.960 . S
C3340 H3332 0.929 . S
C3340 C3341 1.377 . S
C3340 C3342 1.384 . S
C3341 C3340 1.377 . S
C3341 C3347 1.390 . S
C3342 H3333 0.930 . S
C3342 C3340 1.384 . S
C3342 C3343 1.372 . S
C3343 C3342 1.372 . S
C3343 C3344 1.400 . S
C3343 C3348 1.490 . S
C3344 H3334 0.930 . S
C3344 C3343 1.400 . S
C3344 C3347 1.386 . S
H3345 C3361 0.930 . S
H3346 C3362 0.931 . S
C3347 H3335 0.929 . S
C3347 C3341 1.390 . S
C3347 C3344 1.386 . S
C3348 C3343 1.490 . S
C3348 C3350 1.395 . S
C3348 C3351 1.403 . S
H3349 C3355 0.930 . S
C3350 H3336 0.930 . S
C3350 C3348 1.395 . S
C3350 C3353 1.403 . S
C3351 C3348 1.403 . S
C3351 C3352 1.524 . S
C3351 C3355 1.400 . S
C3352 H3337 0.960 . S
C3352 H3338 0.960 . S
C3352 H3339 0.960 . S
C3352 C3351 1.524 . S
C3353 C3350 1.403 . S
C3353 C3354 1.392 . S
C3353 C3357 1.495 . S
C3354 C3353 1.392 . S
C3354 C3355 1.385 . S
C3354 C3356 1.478 . S
C3355 H3349 0.930 . S
C3355 C3351 1.400 . S
C3355 C3354 1.385 . S
C3356 C3354 1.478 . S
C3356 C3358 1.381 . S
C3356 C3362 1.383 . S
C3357 C3353 1.495 . S
C3357 H3363 0.959 . S
C3357 H3364 0.961 . S
C3357 H3365 0.960 . S
C3358 C3356 1.381 . S
C3358 C3359 1.394 . S
C3358 H3366 0.930 . S
C3359 C3358 1.394 . S
C3359 C3360 1.383 . S
C3359 H3367 0.929 . S
C3360 C3359 1.383 . S
C3360 C3361 1.377 . S
C3361 H3345 0.930 . S
C3361 C3360 1.377 . S
C3361 C3362 1.379 . S
C3362 H3346 0.931 . S
C3362 C3356 1.383 . S
C3362 C3361 1.379 . S
H3363 C3357 0.959 . S
H3364 C3357 0.961 . S
H3365 C3357 0.960 . S
H3366 C3358 0.930 . S
H3367 C3359 0.929 . S
H3368 C3376 0.929 . S
H3369 C3378 0.930 . S
H3370 C3380 0.930 . S
H3371 C3383 0.929 . S
H3372 C3386 0.930 . S
H3373 C3388 0.960 . S
H3374 C3388 0.960 . S
H3375 C3388 0.960 . S
C3376 H3368 0.929 . S
C3376 C3377 1.377 . S
C3376 C3378 1.384 . S
C3377 C3376 1.377 . S
C3377 C3383 1.390 . S
C3378 H3369 0.930 . S
C3378 C3376 1.384 . S
C3378 C3379 1.372 . S
C3379 C3378 1.372 . S
C3379 C3380 1.400 . S
C3379 C3384 1.490 . S
C3380 H3370 0.930 . S
C3380 C3379 1.400 . S
C3380 C3383 1.386 . S
H3381 C3397 0.930 . S
H3382 C3398 0.931 . S
C3383 H3371 0.929 . S
C3383 C3377 1.390 . S
C3383 C3380 1.386 . S
C3384 C3379 1.490 . S
C3384 C3386 1.395 . S
C3384 C3387 1.403 . S
H3385 C3391 0.930 . S
C3386 H3372 0.930 . S
C3386 C3384 1.395 . S
C3386 C3389 1.403 . S
C3387 C3384 1.403 . S
C3387 C3388 1.524 . S
C3387 C3391 1.400 . S
C3388 H3373 0.960 . S
C3388 H3374 0.960 . S
C3388 H3375 0.960 . S
C3388 C3387 1.524 . S
C3389 C3386 1.403 . S
C3389 C3390 1.392 . S
C3389 C3393 1.495 . S
C3390 C3389 1.392 . S
C3390 C3391 1.385 . S
C3390 C3392 1.478 . S
C3391 H3385 0.930 . S
C3391 C3387 1.400 . S
C3391 C3390 1.385 . S
C3392 C3390 1.478 . S
C3392 C3394 1.381 . S
C3392 C3398 1.383 . S
C3393 C3389 1.495 . S
C3393 H3399 0.959 . S
C3393 H3400 0.961 . S
C3393 H3401 0.960 . S
C3394 C3392 1.381 . S
C3394 C3395 1.394 . S
C3394 H3402 0.930 . S
C3395 C3394 1.394 . S
C3395 C3396 1.383 . S
C3395 H3403 0.929 . S
C3396 C3395 1.383 . S
C3396 C3397 1.377 . S
C3397 H3381 0.930 . S
C3397 C3396 1.377 . S
C3397 C3398 1.379 . S
C3398 H3382 0.931 . S
C3398 C3392 1.383 . S
C3398 C3397 1.379 . S
H3399 C3393 0.959 . S
H3400 C3393 0.961 . S
H3401 C3393 0.960 . S
H3402 C3394 0.930 . S
H3403 C3395 0.929 . S
H3404 C3412 0.929 . S
H3405 C3414 0.930 . S
H3406 C3416 0.930 . S
H3407 C3419 0.929 . S
H3408 C3422 0.930 . S
H3409 C3424 0.960 . S
H3410 C3424 0.960 . S
H3411 C3424 0.960 . S
C3412 H3404 0.929 . S
C3412 C3413 1.377 . S
C3412 C3414 1.384 . S
C3413 C3412 1.377 . S
C3413 C3419 1.390 . S
C3414 H3405 0.930 . S
C3414 C3412 1.384 . S
C3414 C3415 1.372 . S
C3415 C3414 1.372 . S
C3415 C3416 1.400 . S
C3415 C3420 1.490 . S
C3416 H3406 0.930 . S
C3416 C3415 1.400 . S
C3416 C3419 1.386 . S
H3417 C3433 0.930 . S
H3418 C3434 0.931 . S
C3419 H3407 0.929 . S
C3419 C3413 1.390 . S
C3419 C3416 1.386 . S
C3420 C3415 1.490 . S
C3420 C3422 1.395 . S
C3420 C3423 1.403 . S
H3421 C3427 0.930 . S
C3422 H3408 0.930 . S
C3422 C3420 1.395 . S
C3422 C3425 1.403 . S
C3423 C3420 1.403 . S
C3423 C3424 1.524 . S
C3423 C3427 1.400 . S
C3424 H3409 0.960 . S
C3424 H3410 0.960 . S
C3424 H3411 0.960 . S
C3424 C3423 1.524 . S
C3425 C3422 1.403 . S
C3425 C3426 1.392 . S
C3425 C3429 1.495 . S
C3426 C3425 1.392 . S
C3426 C3427 1.385 . S
C3426 C3428 1.478 . S
C3427 H3421 0.930 . S
C3427 C3423 1.400 . S
C3427 C3426 1.385 . S
C3428 C3426 1.478 . S
C3428 C3430 1.381 . S
C3428 C3434 1.383 . S
C3429 C3425 1.495 . S
C3429 H3435 0.959 . S
C3429 H3436 0.961 . S
C3429 H3437 0.960 . S
C3430 C3428 1.381 . S
C3430 C3431 1.394 . S
C3430 H3438 0.930 . S
C3431 C3430 1.394 . S
C3431 C3432 1.383 . S
C3431 H3439 0.929 . S
C3432 C3431 1.383 . S
C3432 C3433 1.377 . S
C3433 H3417 0.930 . S
C3433 C3432 1.377 . S
C3433 C3434 1.379 . S
C3434 H3418 0.931 . S
C3434 C3428 1.383 . S
C3434 C3433 1.379 . S
H3435 C3429 0.959 . S
H3436 C3429 0.961 . S
H3437 C3429 0.960 . S
H3438 C3430 0.930 . S
H3439 C3431 0.929 . S
H3440 C3448 0.929 . S
H3441 C3450 0.930 . S
H3442 C3452 0.930 . S
H3443 C3455 0.929 . S
H3444 C3458 0.930 . S
H3445 C3460 0.960 1_556 S
H3446 C3460 0.960 . S
H3447 C3460 0.960 . S
C3448 H3440 0.929 . S
C3448 C3449 1.377 . S
C3448 C3450 1.384 . S
C3449 C3448 1.377 . S
C3449 C3455 1.390 . S
C3450 H3441 0.930 . S
C3450 C3448 1.384 . S
C3450 C3451 1.372 . S
C3451 C3450 1.372 . S
C3451 C3452 1.400 . S
C3451 C3456 1.490 . S
C3452 H3442 0.930 . S
C3452 C3451 1.400 . S
C3452 C3455 1.386 . S
H3453 C3469 0.930 . S
H3454 C3470 0.931 . S
C3455 H3443 0.929 . S
C3455 C3449 1.390 . S
C3455 C3452 1.386 . S
C3456 C3451 1.490 . S
C3456 C3458 1.395 . S
C3456 C3459 1.403 . S
H3457 C3463 0.930 . S
C3458 H3444 0.930 . S
C3458 C3456 1.395 . S
C3458 C3461 1.403 1_554 S
C3459 C3456 1.403 . S
C3459 C3460 1.524 . S
C3459 C3463 1.400 1_554 S
C3460 H3445 0.960 1_554 S
C3460 H3446 0.960 . S
C3460 H3447 0.960 . S
C3460 C3459 1.524 . S
C3461 C3458 1.403 1_556 S
C3461 C3462 1.392 . S
C3461 C3465 1.495 . S
C3462 C3461 1.392 . S
C3462 C3463 1.385 . S
C3462 C3464 1.478 . S
C3463 H3457 0.930 . S
C3463 C3459 1.400 1_556 S
C3463 C3462 1.385 . S
C3464 C3462 1.478 . S
C3464 C3466 1.381 . S
C3464 C3470 1.383 . S
C3465 C3461 1.495 . S
C3465 H3471 0.959 1_556 S
C3465 H3472 0.961 . S
C3465 H3473 0.960 . S
C3466 C3464 1.381 . S
C3466 C3467 1.394 . S
C3466 H3474 0.930 . S
C3467 C3466 1.394 . S
C3467 C3468 1.383 . S
C3467 H3475 0.929 . S
C3468 C3467 1.383 . S
C3468 C3469 1.377 . S
C3469 H3453 0.930 . S
C3469 C3468 1.377 . S
C3469 C3470 1.379 . S
C3470 H3454 0.931 . S
C3470 C3464 1.383 . S
C3470 C3469 1.379 . S
H3471 C3465 0.959 1_554 S
H3472 C3465 0.961 . S
H3473 C3465 0.960 . S
H3474 C3466 0.930 . S
H3475 C3467 0.929 . S
H3476 C3484 0.929 . S
H3477 C3486 0.930 . S
H3478 C3488 0.930 1_455 S
H3479 C3491 0.938 . S
H3480 C3494 0.930 . S
H3481 C3496 0.960 . S
H3482 C3496 0.960 . S
H3483 C3496 0.960 . S
C3484 H3476 0.929 . S
C3484 C3485 1.377 . S
C3484 C3486 1.384 . S
C3485 C3484 1.377 . S
C3485 C3491 1.390 . S
C3486 H3477 0.930 . S
C3486 C3484 1.384 . S
C3486 C3487 1.372 . S
C3487 C3486 1.372 . S
C3487 C3488 1.400 . S
C3487 C3492 1.490 . S
C3488 H3478 0.930 1_655 S
C3488 C3487 1.400 . S
C3488 C3491 1.386 . S
H3489 C3505 0.930 . S
H3490 C3506 0.931 . S
C3491 H3479 0.938 . S
C3491 C3485 1.390 . S
C3491 C3488 1.386 . S
C3492 C3487 1.490 . S
C3492 C3494 1.395 . S
C3492 C3495 1.403 1_655 S
H3493 C3499 0.930 . S
C3494 H3480 0.930 . S
C3494 C3492 1.395 . S
C3494 C3497 1.403 . S
C3495 C3492 1.403 1_455 S
C3495 C3496 1.524 . S
C3495 C3499 1.400 . S
C3496 H3481 0.960 . S
C3496 H3482 0.960 . S
C3496 H3483 0.960 . S
C3496 C3495 1.524 . S
C3497 C3494 1.403 . S
C3497 C3498 1.392 1_655 S
C3497 C3501 1.495 . S
C3498 C3497 1.392 1_455 S
C3498 C3499 1.385 . S
C3498 C3500 1.478 . S
C3499 H3493 0.930 . S
C3499 C3495 1.400 . S
C3499 C3498 1.385 . S
C3500 C3498 1.478 . S
C3500 C3502 1.381 1_455 S
C3500 C3506 1.383 . S
C3501 C3497 1.495 . S
C3501 H3507 0.959 . S
C3501 H3508 0.961 . S
C3501 H3509 0.960 . S
C3502 C3500 1.381 1_655 S
C3502 C3503 1.394 1_655 S
C3502 H3510 0.930 . S
C3503 C3502 1.394 1_455 S
C3503 C3504 1.383 . S
C3503 H3511 0.929 . S
C3504 C3503 1.383 . S
C3504 C3505 1.377 . S
C3505 H3489 0.930 . S
C3505 C3504 1.377 . S
C3505 C3506 1.379 . S
C3506 H3490 0.931 . S
C3506 C3500 1.383 . S
C3506 C3505 1.379 . S
H3507 C3501 0.959 . S
H3508 C3501 0.961 . S
H3509 C3501 0.960 . S
H3510 C3502 0.930 . S
H3511 C3503 0.929 . S
H3512 C3520 0.929 . S
H3513 C3522 0.930 . S
H3514 C3524 0.930 1_655 S
H3515 C3527 0.929 . S
H3516 C3530 0.930 . S
H3517 C3532 0.960 . S
H3518 C3532 0.960 . S
H3519 C3532 0.960 . S
C3520 H3512 0.929 . S
C3520 C3521 1.377 . S
C3520 C3522 1.384 . S
C3521 C3520 1.377 . S
C3521 C3527 1.390 . S
C3522 H3513 0.930 . S
C3522 C3520 1.384 . S
C3522 C3523 1.372 . S
C3523 C3522 1.372 . S
C3523 C3524 1.400 . S
C3523 C3528 1.490 . S
C3524 H3514 0.930 1_455 S
C3524 C3523 1.400 . S
C3524 C3527 1.386 . S
H3525 C3541 0.930 . S
H3526 C3542 0.931 . S
C3527 H3515 0.929 . S
C3527 C3521 1.390 . S
C3527 C3524 1.386 . S
C3528 C3523 1.490 . S
C3528 C3530 1.395 . S
C3528 C3531 1.403 1_455 S
H3529 C3535 0.930 . S
C3530 H3516 0.930 . S
C3530 C3528 1.395 . S
C3530 C3533 1.403 1_554 S
C3531 C3528 1.403 1_655 S
C3531 C3532 1.524 . S
C3531 C3535 1.400 1_554 S
C3532 H3517 0.960 . S
C3532 H3518 0.960 . S
C3532 H3519 0.960 . S
C3532 C3531 1.524 . S
C3533 C3530 1.403 1_556 S
C3533 C3534 1.392 1_455 S
C3533 C3537 1.495 . S
C3534 C3533 1.392 1_655 S
C3534 C3535 1.385 . S
C3534 C3536 1.478 . S
C3535 H3529 0.930 . S
C3535 C3531 1.400 1_556 S
C3535 C3534 1.385 . S
C3536 C3534 1.478 . S
C3536 C3538 1.381 . S
C3536 C3542 1.383 . S
C3537 C3533 1.495 . S
C3537 H3543 0.959 . S
C3537 H3544 0.961 . S
C3537 H3545 0.960 . S
C3538 C3536 1.381 . S
C3538 C3539 1.394 . S
C3538 H3546 0.930 1_655 S
C3539 C3538 1.394 . S
C3539 C3540 1.383 . S
C3539 H3547 0.929 . S
C3540 C3539 1.383 . S
C3540 C3541 1.377 . S
C3541 H3525 0.930 . S
C3541 C3540 1.377 . S
C3541 C3542 1.379 . S
C3542 H3526 0.931 . S
C3542 C3536 1.383 . S
C3542 C3541 1.379 . S
H3543 C3537 0.959 . S
H3544 C3537 0.961 . S
H3545 C3537 0.960 . S
H3546 C3538 0.930 1_455 S
H3547 C3539 0.929 . S
H3548 C3556 0.929 . S
H3549 C3558 0.930 . S
H3550 C3560 0.930 . S
H3551 C3563 0.929 . S
H3552 C3566 0.930 . S
H3553 C3568 0.960 . S
H3554 C3568 0.960 . S
H3555 C3568 0.960 . S
C3556 H3548 0.929 . S
C3556 C3557 1.377 . S
C3556 C3558 1.384 . S
C3557 C3556 1.377 . S
C3557 C3563 1.390 . S
C3558 H3549 0.930 . S
C3558 C3556 1.384 . S
C3558 C3559 1.372 . S
C3559 C3558 1.372 . S
C3559 C3560 1.400 . S
C3559 C3564 1.490 . S
C3560 H3550 0.930 . S
C3560 C3559 1.400 . S
C3560 C3563 1.386 . S
H3561 C3577 0.930 . S
H3562 C3578 0.931 . S
C3563 H3551 0.929 . S
C3563 C3557 1.390 . S
C3563 C3560 1.386 . S
C3564 C3559 1.490 . S
C3564 C3566 1.395 . S
C3564 C3567 1.403 . S
H3565 C3571 0.930 . S
C3566 H3552 0.930 . S
C3566 C3564 1.395 . S
C3566 C3569 1.403 . S
C3567 C3564 1.403 . S
C3567 C3568 1.524 . S
C3567 C3571 1.400 . S
C3568 H3553 0.960 . S
C3568 H3554 0.960 . S
C3568 H3555 0.960 . S
C3568 C3567 1.524 . S
C3569 C3566 1.403 . S
C3569 C3570 1.392 . S
C3569 C3573 1.495 . S
C3570 C3569 1.392 . S
C3570 C3571 1.385 . S
C3570 C3572 1.478 . S
C3571 H3565 0.930 . S
C3571 C3567 1.400 . S
C3571 C3570 1.385 . S
C3572 C3570 1.478 . S
C3572 C3574 1.381 . S
C3572 C3578 1.383 . S
C3573 C3569 1.495 . S
C3573 H3579 0.959 . S
C3573 H3580 0.961 . S
C3573 H3581 0.960 . S
C3574 C3572 1.381 . S
C3574 C3575 1.394 . S
C3574 H3582 0.930 . S
C3575 C3574 1.394 . S
C3575 C3576 1.383 . S
C3575 H3583 0.929 . S
C3576 C3575 1.383 . S
C3576 C3577 1.377 . S
C3577 H3561 0.930 . S
C3577 C3576 1.377 . S
C3577 C3578 1.379 . S
C3578 H3562 0.931 . S
C3578 C3572 1.383 . S
C3578 C3577 1.379 . S
H3579 C3573 0.959 . S
H3580 C3573 0.961 . S
H3581 C3573 0.960 . S
H3582 C3574 0.930 . S
H3583 C3575 0.929 . S
H3584 C3592 0.929 . S
H3585 C3594 0.930 . S
H3586 C3596 0.930 . S
H3587 C3599 0.929 . S
H3588 C3602 0.930 . S
H3589 C3604 0.960 . S
H3590 C3604 0.960 . S
H3591 C3604 0.960 . S
C3592 H3584 0.929 . S
C3592 C3593 1.377 . S
C3592 C3594 1.384 . S
C3593 C3592 1.377 . S
C3593 C3599 1.390 . S
C3594 H3585 0.930 . S
C3594 C3592 1.384 . S
C3594 C3595 1.372 . S
C3595 C3594 1.372 . S
C3595 C3596 1.400 . S
C3595 C3600 1.490 . S
C3596 H3586 0.930 . S
C3596 C3595 1.400 . S
C3596 C3599 1.386 . S
H3597 C3613 0.930 . S
H3598 C3614 0.931 . S
C3599 H3587 0.929 . S
C3599 C3593 1.390 . S
C3599 C3596 1.386 . S
C3600 C3595 1.490 . S
C3600 C3602 1.395 . S
C3600 C3603 1.403 . S
H3601 C3607 0.930 . S
C3602 H3588 0.930 . S
C3602 C3600 1.395 . S
C3602 C3605 1.403 . S
C3603 C3600 1.403 . S
C3603 C3604 1.524 . S
C3603 C3607 1.400 . S
C3604 H3589 0.960 . S
C3604 H3590 0.960 . S
C3604 H3591 0.960 . S
C3604 C3603 1.524 . S
C3605 C3602 1.403 . S
C3605 C3606 1.392 . S
C3605 C3609 1.495 . S
C3606 C3605 1.392 . S
C3606 C3607 1.385 . S
C3606 C3608 1.478 . S
C3607 H3601 0.930 . S
C3607 C3603 1.400 . S
C3607 C3606 1.385 . S
C3608 C3606 1.478 . S
C3608 C3610 1.381 . S
C3608 C3614 1.383 . S
C3609 C3605 1.495 . S
C3609 H3615 0.959 . S
C3609 H3616 0.961 . S
C3609 H3617 0.960 . S
C3610 C3608 1.381 . S
C3610 C3611 1.394 . S
C3610 H3618 0.930 . S
C3611 C3610 1.394 . S
C3611 C3612 1.383 . S
C3611 H3619 0.929 . S
C3612 C3611 1.383 . S
C3612 C3613 1.377 . S
C3613 H3597 0.930 . S
C3613 C3612 1.377 . S
C3613 C3614 1.379 . S
C3614 H3598 0.931 . S
C3614 C3608 1.383 . S
C3614 C3613 1.379 . S
H3615 C3609 0.959 . S
H3616 C3609 0.961 . S
H3617 C3609 0.960 . S
H3618 C3610 0.930 . S
H3619 C3611 0.929 . S
H3620 C3628 0.929 . S
H3621 C3630 0.930 . S
H3622 C3632 0.930 . S
H3623 C3635 0.929 . S
H3624 C3638 0.930 . S
H3625 C3640 0.960 . S
H3626 C3640 0.960 . S
H3627 C3640 0.960 . S
C3628 H3620 0.929 . S
C3628 C3629 1.377 . S
C3628 C3630 1.384 . S
C3629 C3628 1.377 . S
C3629 C3635 1.390 . S
C3630 H3621 0.930 . S
C3630 C3628 1.384 . S
C3630 C3631 1.372 . S
C3631 C3630 1.372 . S
C3631 C3632 1.400 . S
C3631 C3636 1.490 . S
C3632 H3622 0.930 . S
C3632 C3631 1.400 . S
C3632 C3635 1.386 . S
H3633 C3649 0.930 . S
H3634 C3650 0.931 . S
C3635 H3623 0.929 . S
C3635 C3629 1.390 . S
C3635 C3632 1.386 . S
C3636 C3631 1.490 . S
C3636 C3638 1.395 . S
C3636 C3639 1.403 . S
H3637 C3643 0.930 . S
C3638 H3624 0.930 . S
C3638 C3636 1.395 . S
C3638 C3641 1.403 . S
C3639 C3636 1.403 . S
C3639 C3640 1.524 . S
C3639 C3643 1.400 . S
C3640 H3625 0.960 . S
C3640 H3626 0.960 . S
C3640 H3627 0.960 . S
C3640 C3639 1.524 . S
C3641 C3638 1.403 . S
C3641 C3642 1.392 . S
C3641 C3645 1.495 . S
C3642 C3641 1.392 . S
C3642 C3643 1.385 . S
C3642 C3644 1.478 . S
C3643 H3637 0.930 . S
C3643 C3639 1.400 . S
C3643 C3642 1.385 . S
C3644 C3642 1.478 . S
C3644 C3646 1.381 . S
C3644 C3650 1.383 . S
C3645 C3641 1.495 . S
C3645 H3651 0.959 . S
C3645 H3652 0.961 . S
C3645 H3653 0.960 . S
C3646 C3644 1.381 . S
C3646 C3647 1.394 . S
C3646 H3654 0.930 . S
C3647 C3646 1.394 . S
C3647 C3648 1.383 . S
C3647 H3655 0.929 . S
C3648 C3647 1.383 . S
C3648 C3649 1.377 . S
C3649 H3633 0.930 . S
C3649 C3648 1.377 . S
C3649 C3650 1.379 . S
C3650 H3634 0.931 . S
C3650 C3644 1.383 . S
C3650 C3649 1.379 . S
H3651 C3645 0.959 . S
H3652 C3645 0.961 . S
H3653 C3645 0.960 . S
H3654 C3646 0.930 . S
H3655 C3647 0.929 . S
H3656 C3664 0.929 . S
H3657 C3666 0.930 . S
H3658 C3668 0.930 . S
H3659 C3671 0.929 . S
H3660 C3674 0.930 . S
H3661 C3676 0.960 . S
H3662 C3676 0.960 . S
H3663 C3676 0.960 . S
C3664 H3656 0.929 . S
C3664 C3665 1.377 . S
C3664 C3666 1.384 . S
C3665 C3664 1.377 . S
C3665 C3671 1.390 . S
C3666 H3657 0.930 . S
C3666 C3664 1.384 . S
C3666 C3667 1.372 . S
C3667 C3666 1.372 . S
C3667 C3668 1.400 . S
C3667 C3672 1.490 . S
C3668 H3658 0.930 . S
C3668 C3667 1.400 . S
C3668 C3671 1.386 . S
H3669 C3685 0.930 . S
H3670 C3686 0.931 . S
C3671 H3659 0.929 . S
C3671 C3665 1.390 . S
C3671 C3668 1.386 . S
C3672 C3667 1.490 . S
C3672 C3674 1.395 . S
C3672 C3675 1.403 . S
H3673 C3679 0.930 . S
C3674 H3660 0.930 . S
C3674 C3672 1.395 . S
C3674 C3677 1.403 . S
C3675 C3672 1.403 . S
C3675 C3676 1.524 . S
C3675 C3679 1.400 . S
C3676 H3661 0.960 . S
C3676 H3662 0.960 . S
C3676 H3663 0.960 . S
C3676 C3675 1.524 . S
C3677 C3674 1.403 . S
C3677 C3678 1.392 . S
C3677 C3681 1.495 . S
C3678 C3677 1.392 . S
C3678 C3679 1.385 . S
C3678 C3680 1.478 . S
C3679 H3673 0.930 . S
C3679 C3675 1.400 . S
C3679 C3678 1.385 . S
C3680 C3678 1.478 . S
C3680 C3682 1.381 . S
C3680 C3686 1.383 . S
C3681 C3677 1.495 . S
C3681 H3687 0.959 . S
C3681 H3688 0.961 . S
C3681 H3689 0.960 . S
C3682 C3680 1.381 . S
C3682 C3683 1.394 . S
C3682 H3690 0.930 . S
C3683 C3682 1.394 . S
C3683 C3684 1.383 . S
C3683 H3691 0.929 . S
C3684 C3683 1.383 . S
C3684 C3685 1.377 . S
C3685 H3669 0.930 . S
C3685 C3684 1.377 . S
C3685 C3686 1.379 . S
C3686 H3670 0.931 . S
C3686 C3680 1.383 . S
C3686 C3685 1.379 . S
H3687 C3681 0.959 . S
H3688 C3681 0.961 . S
H3689 C3681 0.960 . S
H3690 C3682 0.930 . S
H3691 C3683 0.929 . S
H3692 C3700 0.929 . S
H3693 C3702 0.930 . S
H3694 C3704 0.930 . S
H3695 C3707 0.929 . S
H3696 C3710 0.930 . S
H3697 C3712 0.960 . S
H3698 C3712 0.960 . S
H3699 C3712 0.960 . S
C3700 H3692 0.929 . S
C3700 C3701 1.377 . S
C3700 C3702 1.384 . S
C3701 C3700 1.377 . S
C3701 C3707 1.390 . S
C3702 H3693 0.930 . S
C3702 C3700 1.384 . S
C3702 C3703 1.372 . S
C3703 C3702 1.372 . S
C3703 C3704 1.400 . S
C3703 C3708 1.490 . S
C3704 H3694 0.930 . S
C3704 C3703 1.400 . S
C3704 C3707 1.386 . S
H3705 C3721 0.930 . S
H3706 C3722 0.931 . S
C3707 H3695 0.929 . S
C3707 C3701 1.390 . S
C3707 C3704 1.386 . S
C3708 C3703 1.490 . S
C3708 C3710 1.395 . S
C3708 C3711 1.403 . S
H3709 C3715 0.930 . S
C3710 H3696 0.930 . S
C3710 C3708 1.395 . S
C3710 C3713 1.403 . S
C3711 C3708 1.403 . S
C3711 C3712 1.524 . S
C3711 C3715 1.400 . S
C3712 H3697 0.960 . S
C3712 H3698 0.960 . S
C3712 H3699 0.960 . S
C3712 C3711 1.524 . S
C3713 C3710 1.403 . S
C3713 C3714 1.392 . S
C3713 C3717 1.495 . S
C3714 C3713 1.392 . S
C3714 C3715 1.385 . S
C3714 C3716 1.478 . S
C3715 H3709 0.930 . S
C3715 C3711 1.400 . S
C3715 C3714 1.385 . S
C3716 C3714 1.478 . S
C3716 C3718 1.381 . S
C3716 C3722 1.383 . S
C3717 C3713 1.495 . S
C3717 H3723 0.959 . S
C3717 H3724 0.961 . S
C3717 H3725 0.960 . S
C3718 C3716 1.381 . S
C3718 C3719 1.394 . S
C3718 H3726 0.930 . S
C3719 C3718 1.394 . S
C3719 C3720 1.383 . S
C3719 H3727 0.929 . S
C3720 C3719 1.383 . S
C3720 C3721 1.377 . S
C3721 H3705 0.930 . S
C3721 C3720 1.377 . S
C3721 C3722 1.379 . S
C3722 H3706 0.931 . S
C3722 C3716 1.383 . S
C3722 C3721 1.379 . S
H3723 C3717 0.959 . S
H3724 C3717 0.961 . S
H3725 C3717 0.960 . S
H3726 C3718 0.930 . S
H3727 C3719 0.929 . S
H3728 C3736 0.929 . S
H3729 C3738 0.930 . S
H3730 C3740 0.930 . S
H3731 C3743 0.929 . S
H3732 C3746 0.930 . S
H3733 C3748 0.960 . S
H3734 C3748 0.960 . S
H3735 C3748 0.960 . S
C3736 H3728 0.929 . S
C3736 C3737 1.377 . S
C3736 C3738 1.384 . S
C3737 C3736 1.377 . S
C3737 C3743 1.390 . S
C3738 H3729 0.930 . S
C3738 C3736 1.384 . S
C3738 C3739 1.372 . S
C3739 C3738 1.372 . S
C3739 C3740 1.400 . S
C3739 C3744 1.490 . S
C3740 H3730 0.930 . S
C3740 C3739 1.400 . S
C3740 C3743 1.386 . S
H3741 C3757 0.930 . S
H3742 C3758 0.931 . S
C3743 H3731 0.929 . S
C3743 C3737 1.390 . S
C3743 C3740 1.386 . S
C3744 C3739 1.490 . S
C3744 C3746 1.395 . S
C3744 C3747 1.403 . S
H3745 C3751 0.930 . S
C3746 H3732 0.930 . S
C3746 C3744 1.395 . S
C3746 C3749 1.403 . S
C3747 C3744 1.403 . S
C3747 C3748 1.524 . S
C3747 C3751 1.400 . S
C3748 H3733 0.960 . S
C3748 H3734 0.960 . S
C3748 H3735 0.960 . S
C3748 C3747 1.524 . S
C3749 C3746 1.403 . S
C3749 C3750 1.392 . S
C3749 C3753 1.495 . S
C3750 C3749 1.392 . S
C3750 C3751 1.385 . S
C3750 C3752 1.478 . S
C3751 H3745 0.930 . S
C3751 C3747 1.400 . S
C3751 C3750 1.385 . S
C3752 C3750 1.478 . S
C3752 C3754 1.381 . S
C3752 C3758 1.383 . S
C3753 C3749 1.495 . S
C3753 H3759 0.959 . S
C3753 H3760 0.961 . S
C3753 H3761 0.960 . S
C3754 C3752 1.381 . S
C3754 C3755 1.394 . S
C3754 H3762 0.930 . S
C3755 C3754 1.394 . S
C3755 C3756 1.383 . S
C3755 H3763 0.931 . S
C3756 C3755 1.383 . S
C3756 C3757 1.377 . S
C3757 H3741 0.930 . S
C3757 C3756 1.377 . S
C3757 C3758 1.379 . S
C3758 H3742 0.931 . S
C3758 C3752 1.383 . S
C3758 C3757 1.379 . S
H3759 C3753 0.959 . S
H3760 C3753 0.961 . S
H3761 C3753 0.960 . S
H3762 C3754 0.930 . S
H3763 C3755 0.931 . S
H3764 C3772 0.929 . S
H3765 C3774 0.930 . S
H3766 C3776 0.930 . S
H3767 C3779 0.929 . S
H3768 C3782 0.930 . S
H3769 C3784 0.960 . S
H3770 C3784 0.960 . S
H3771 C3784 0.960 . S
C3772 H3764 0.929 . S
C3772 C3773 1.377 . S
C3772 C3774 1.384 . S
C3773 C3772 1.377 . S
C3773 C3779 1.390 . S
C3774 H3765 0.930 . S
C3774 C3772 1.384 . S
C3774 C3775 1.372 . S
C3775 C3774 1.372 . S
C3775 C3776 1.400 . S
C3775 C3780 1.490 . S
C3776 H3766 0.930 . S
C3776 C3775 1.400 . S
C3776 C3779 1.386 . S
H3777 C3793 0.930 . S
H3778 C3794 0.931 . S
C3779 H3767 0.929 . S
C3779 C3773 1.390 . S
C3779 C3776 1.386 . S
C3780 C3775 1.490 . S
C3780 C3782 1.395 . S
C3780 C3783 1.403 . S
H3781 C3787 0.930 . S
C3782 H3768 0.930 . S
C3782 C3780 1.395 . S
C3782 C3785 1.403 . S
C3783 C3780 1.403 . S
C3783 C3784 1.524 . S
C3783 C3787 1.400 . S
C3784 H3769 0.960 . S
C3784 H3770 0.960 . S
C3784 H3771 0.960 . S
C3784 C3783 1.524 . S
C3785 C3782 1.403 . S
C3785 C3786 1.392 . S
C3785 C3789 1.495 . S
C3786 C3785 1.392 . S
C3786 C3787 1.385 . S
C3786 C3788 1.478 . S
C3787 H3781 0.930 . S
C3787 C3783 1.400 . S
C3787 C3786 1.385 . S
C3788 C3786 1.478 . S
C3788 C3790 1.381 . S
C3788 C3794 1.383 . S
C3789 C3785 1.495 . S
C3789 H3795 0.959 . S
C3789 H3796 0.961 . S
C3789 H3797 0.960 . S
C3790 C3788 1.381 . S
C3790 C3791 1.394 . S
C3790 H3798 0.930 . S
C3791 C3790 1.394 . S
C3791 C3792 1.383 . S
C3791 H3799 0.929 . S
C3792 C3791 1.383 . S
C3792 C3793 1.377 . S
C3793 H3777 0.930 . S
C3793 C3792 1.377 . S
C3793 C3794 1.379 . S
C3794 H3778 0.931 . S
C3794 C3788 1.383 . S
C3794 C3793 1.379 . S
H3795 C3789 0.959 . S
H3796 C3789 0.961 . S
H3797 C3789 0.960 . S
H3798 C3790 0.930 . S
H3799 C3791 0.929 . S
H3800 C3808 0.929 . S
H3801 C3810 0.930 . S
H3802 C3812 0.930 . S
H3803 C3815 0.929 . S
H3804 C3818 0.930 . S
H3805 C3820 0.960 . S
H3806 C3820 0.960 . S
H3807 C3820 0.960 . S
C3808 H3800 0.929 . S
C3808 C3809 1.377 . S
C3808 C3810 1.384 . S
C3809 C3808 1.377 . S
C3809 C3815 1.390 . S
C3810 H3801 0.930 . S
C3810 C3808 1.384 . S
C3810 C3811 1.372 . S
C3811 C3810 1.372 . S
C3811 C3812 1.400 . S
C3811 C3816 1.490 . S
C3812 H3802 0.930 . S
C3812 C3811 1.400 . S
C3812 C3815 1.386 . S
H3813 C3829 0.930 . S
H3814 C3830 0.931 . S
C3815 H3803 0.929 . S
C3815 C3809 1.390 . S
C3815 C3812 1.386 . S
C3816 C3811 1.490 . S
C3816 C3818 1.395 . S
C3816 C3819 1.403 . S
H3817 C3823 0.930 . S
C3818 H3804 0.930 . S
C3818 C3816 1.395 . S
C3818 C3821 1.403 . S
C3819 C3816 1.403 . S
C3819 C3820 1.524 . S
C3819 C3823 1.400 . S
C3820 H3805 0.960 . S
C3820 H3806 0.960 . S
C3820 H3807 0.960 . S
C3820 C3819 1.524 . S
C3821 C3818 1.403 . S
C3821 C3822 1.392 . S
C3821 C3825 1.495 . S
C3822 C3821 1.392 . S
C3822 C3823 1.385 . S
C3822 C3824 1.478 . S
C3823 H3817 0.930 . S
C3823 C3819 1.400 . S
C3823 C3822 1.385 . S
C3824 C3822 1.478 . S
C3824 C3826 1.381 . S
C3824 C3830 1.383 . S
C3825 C3821 1.495 . S
C3825 H3831 0.959 . S
C3825 H3832 0.961 . S
C3825 H3833 0.960 . S
C3826 C3824 1.381 . S
C3826 C3827 1.394 . S
C3826 H3834 0.930 . S
C3827 C3826 1.394 . S
C3827 C3828 1.383 . S
C3827 H3835 0.929 . S
C3828 C3827 1.383 . S
C3828 C3829 1.377 . S
C3829 H3813 0.930 . S
C3829 C3828 1.377 . S
C3829 C3830 1.379 . S
C3830 H3814 0.931 . S
C3830 C3824 1.383 . S
C3830 C3829 1.379 . S
H3831 C3825 0.959 . S
H3832 C3825 0.961 . S
H3833 C3825 0.960 . S
H3834 C3826 0.930 . S
H3835 C3827 0.929 . S
H3836 C3844 0.929 . S
H3837 C3846 0.930 . S
H3838 C3848 0.930 . S
H3839 C3851 0.929 . S
H3840 C3854 0.930 . S
H3841 C3856 0.960 . S
H3842 C3856 0.960 . S
H3843 C3856 0.960 . S
C3844 H3836 0.929 . S
C3844 C3845 1.377 . S
C3844 C3846 1.384 . S
C3845 C3844 1.377 . S
C3845 C3851 1.390 . S
C3846 H3837 0.930 . S
C3846 C3844 1.384 . S
C3846 C3847 1.372 . S
C3847 C3846 1.372 . S
C3847 C3848 1.400 . S
C3847 C3852 1.490 . S
C3848 H3838 0.930 . S
C3848 C3847 1.400 . S
C3848 C3851 1.386 . S
H3849 C3865 0.930 . S
H3850 C3866 0.931 . S
C3851 H3839 0.929 . S
C3851 C3845 1.390 . S
C3851 C3848 1.386 . S
C3852 C3847 1.490 . S
C3852 C3854 1.395 . S
C3852 C3855 1.403 . S
H3853 C3859 0.930 . S
C3854 H3840 0.930 . S
C3854 C3852 1.395 . S
C3854 C3857 1.403 . S
C3855 C3852 1.403 . S
C3855 C3856 1.524 . S
C3855 C3859 1.400 . S
C3856 H3841 0.960 . S
C3856 H3842 0.960 . S
C3856 H3843 0.960 . S
C3856 C3855 1.524 . S
C3857 C3854 1.403 . S
C3857 C3858 1.392 . S
C3857 C3861 1.495 . S
C3858 C3857 1.392 . S
C3858 C3859 1.385 . S
C3858 C3860 1.478 . S
C3859 H3853 0.930 . S
C3859 C3855 1.400 . S
C3859 C3858 1.385 . S
C3860 C3858 1.478 . S
C3860 C3862 1.381 . S
C3860 C3866 1.383 . S
C3861 C3857 1.495 . S
C3861 H3867 0.959 . S
C3861 H3868 0.961 . S
C3861 H3869 0.960 . S
C3862 C3860 1.381 . S
C3862 C3863 1.394 . S
C3862 H3870 0.930 . S
C3863 C3862 1.394 . S
C3863 C3864 1.383 . S
C3863 H3871 0.929 . S
C3864 C3863 1.383 . S
C3864 C3865 1.377 . S
C3865 H3849 0.930 . S
C3865 C3864 1.377 . S
C3865 C3866 1.379 . S
C3866 H3850 0.931 . S
C3866 C3860 1.383 . S
C3866 C3865 1.379 . S
H3867 C3861 0.959 . S
H3868 C3861 0.961 . S
H3869 C3861 0.960 . S
H3870 C3862 0.930 . S
H3871 C3863 0.929 . S
H3872 C3880 0.929 . S
H3873 C3882 0.930 . S
H3874 C3884 0.930 . S
H3875 C3887 0.929 . S
H3876 C3890 0.930 . S
H3877 C3892 0.960 . S
H3878 C3892 0.960 . S
H3879 C3892 0.960 . S
C3880 H3872 0.929 . S
C3880 C3881 1.377 . S
C3880 C3882 1.384 . S
C3881 C3880 1.377 . S
C3881 C3887 1.390 . S
C3882 H3873 0.930 . S
C3882 C3880 1.384 . S
C3882 C3883 1.372 . S
C3883 C3882 1.372 . S
C3883 C3884 1.400 . S
C3883 C3888 1.490 . S
C3884 H3874 0.930 . S
C3884 C3883 1.400 . S
C3884 C3887 1.386 . S
H3885 C3901 0.930 . S
H3886 C3902 0.931 . S
C3887 H3875 0.929 . S
C3887 C3881 1.390 . S
C3887 C3884 1.386 . S
C3888 C3883 1.490 . S
C3888 C3890 1.395 . S
C3888 C3891 1.403 . S
H3889 C3895 0.930 . S
C3890 H3876 0.930 . S
C3890 C3888 1.395 . S
C3890 C3893 1.403 . S
C3891 C3888 1.403 . S
C3891 C3892 1.524 . S
C3891 C3895 1.400 . S
C3892 H3877 0.960 . S
C3892 H3878 0.960 . S
C3892 H3879 0.960 . S
C3892 C3891 1.524 . S
C3893 C3890 1.403 . S
C3893 C3894 1.392 . S
C3893 C3897 1.495 . S
C3894 C3893 1.392 . S
C3894 C3895 1.385 . S
C3894 C3896 1.478 . S
C3895 H3889 0.930 . S
C3895 C3891 1.400 . S
C3895 C3894 1.385 . S
C3896 C3894 1.478 . S
C3896 C3898 1.381 . S
C3896 C3902 1.383 . S
C3897 C3893 1.495 . S
C3897 H3903 0.959 . S
C3897 H3904 0.961 . S
C3897 H3905 0.960 . S
C3898 C3896 1.381 . S
C3898 C3899 1.394 . S
C3898 H3906 0.930 . S
C3899 C3898 1.394 . S
C3899 C3900 1.383 . S
C3899 H3907 0.929 . S
C3900 C3899 1.383 . S
C3900 C3901 1.377 . S
C3901 H3885 0.930 . S
C3901 C3900 1.377 . S
C3901 C3902 1.379 . S
C3902 H3886 0.931 . S
C3902 C3896 1.383 . S
C3902 C3901 1.379 . S
H3903 C3897 0.959 . S
H3904 C3897 0.961 . S
H3905 C3897 0.960 . S
H3906 C3898 0.930 . S
H3907 C3899 0.929 . S
H3908 C3916 0.929 . S
H3909 C3918 0.930 . S
H3910 C3920 0.930 . S
H3911 C3923 0.929 . S
H3912 C3926 0.930 . S
H3913 C3928 0.960 . S
H3914 C3928 0.960 . S
H3915 C3928 0.960 . S
C3916 H3908 0.929 . S
C3916 C3917 1.377 . S
C3916 C3918 1.384 . S
C3917 C3916 1.377 . S
C3917 C3923 1.390 . S
C3918 H3909 0.930 . S
C3918 C3916 1.384 . S
C3918 C3919 1.372 . S
C3919 C3918 1.372 . S
C3919 C3920 1.400 . S
C3919 C3924 1.490 . S
C3920 H3910 0.930 . S
C3920 C3919 1.400 . S
C3920 C3923 1.386 . S
H3921 C3937 0.930 . S
H3922 C3938 0.931 . S
C3923 H3911 0.929 . S
C3923 C3917 1.390 . S
C3923 C3920 1.386 . S
C3924 C3919 1.490 . S
C3924 C3926 1.395 . S
C3924 C3927 1.403 . S
H3925 C3931 0.930 . S
C3926 H3912 0.930 . S
C3926 C3924 1.395 . S
C3926 C3929 1.403 . S
C3927 C3924 1.403 . S
C3927 C3928 1.524 . S
C3927 C3931 1.400 . S
C3928 H3913 0.960 . S
C3928 H3914 0.960 . S
C3928 H3915 0.960 . S
C3928 C3927 1.524 . S
C3929 C3926 1.403 . S
C3929 C3930 1.392 . S
C3929 C3933 1.495 . S
C3930 C3929 1.392 . S
C3930 C3931 1.385 . S
C3930 C3932 1.478 . S
C3931 H3925 0.930 . S
C3931 C3927 1.400 . S
C3931 C3930 1.385 . S
C3932 C3930 1.478 . S
C3932 C3934 1.381 . S
C3932 C3938 1.383 . S
C3933 C3929 1.495 . S
C3933 H3939 0.959 . S
C3933 H3940 0.961 . S
C3933 H3941 0.960 . S
C3934 C3932 1.381 . S
C3934 C3935 1.394 . S
C3934 H3942 0.930 . S
C3935 C3934 1.394 . S
C3935 C3936 1.383 . S
C3935 H3943 0.929 . S
C3936 C3935 1.383 . S
C3936 C3937 1.377 . S
C3937 H3921 0.930 . S
C3937 C3936 1.377 . S
C3937 C3938 1.379 . S
C3938 H3922 0.931 . S
C3938 C3932 1.383 . S
C3938 C3937 1.379 . S
H3939 C3933 0.959 . S
H3940 C3933 0.961 . S
H3941 C3933 0.960 . S
H3942 C3934 0.930 . S
H3943 C3935 0.929 . S
H3944 C3952 0.929 . S
H3945 C3954 0.930 . S
H3946 C3956 0.930 . S
H3947 C3959 0.929 . S
H3948 C3962 0.930 . S
H3949 C3964 0.960 . S
H3950 C3964 0.960 . S
H3951 C3964 0.960 . S
C3952 H3944 0.929 . S
C3952 C3953 1.377 . S
C3952 C3954 1.384 . S
C3953 C3952 1.377 . S
C3953 C3959 1.390 . S
C3954 H3945 0.930 . S
C3954 C3952 1.384 . S
C3954 C3955 1.372 . S
C3955 C3954 1.372 . S
C3955 C3956 1.400 . S
C3955 C3960 1.490 . S
C3956 H3946 0.930 . S
C3956 C3955 1.400 . S
C3956 C3959 1.386 . S
H3957 C3973 0.930 . S
H3958 C3974 0.931 . S
C3959 H3947 0.929 . S
C3959 C3953 1.390 . S
C3959 C3956 1.386 . S
C3960 C3955 1.490 . S
C3960 C3962 1.395 . S
C3960 C3963 1.403 . S
H3961 C3967 0.930 . S
C3962 H3948 0.930 . S
C3962 C3960 1.395 . S
C3962 C3965 1.403 . S
C3963 C3960 1.403 . S
C3963 C3964 1.524 . S
C3963 C3967 1.400 . S
C3964 H3949 0.960 . S
C3964 H3950 0.960 . S
C3964 H3951 0.960 . S
C3964 C3963 1.524 . S
C3965 C3962 1.403 . S
C3965 C3966 1.392 . S
C3965 C3969 1.495 . S
C3966 C3965 1.392 . S
C3966 C3967 1.385 . S
C3966 C3968 1.478 . S
C3967 H3961 0.930 . S
C3967 C3963 1.400 . S
C3967 C3966 1.385 . S
C3968 C3966 1.478 . S
C3968 C3970 1.381 . S
C3968 C3974 1.383 . S
C3969 C3965 1.495 . S
C3969 H3975 0.959 . S
C3969 H3976 0.961 . S
C3969 H3977 0.960 . S
C3970 C3968 1.381 . S
C3970 C3971 1.394 . S
C3970 H3978 0.930 . S
C3971 C3970 1.394 . S
C3971 C3972 1.383 . S
C3971 H3979 0.929 . S
C3972 C3971 1.383 . S
C3972 C3973 1.377 . S
C3973 H3957 0.930 . S
C3973 C3972 1.377 . S
C3973 C3974 1.379 . S
C3974 H3958 0.931 . S
C3974 C3968 1.383 . S
C3974 C3973 1.379 . S
H3975 C3969 0.959 . S
H3976 C3969 0.961 . S
H3977 C3969 0.960 . S
H3978 C3970 0.930 . S
H3979 C3971 0.929 . S
H3980 C3988 0.929 . S
H3981 C3990 0.930 . S
H3982 C3992 0.930 . S
H3983 C3995 0.929 . S
H3984 C3998 0.930 . S
H3985 C4000 0.960 . S
H3986 C4000 0.960 . S
H3987 C4000 0.960 . S
C3988 H3980 0.929 . S
C3988 C3989 1.377 . S
C3988 C3990 1.384 . S
C3989 C3988 1.377 . S
C3989 C3995 1.390 . S
C3990 H3981 0.930 . S
C3990 C3988 1.384 . S
C3990 C3991 1.372 . S
C3991 C3990 1.372 . S
C3991 C3992 1.400 . S
C3991 C3996 1.490 . S
C3992 H3982 0.930 . S
C3992 C3991 1.400 . S
C3992 C3995 1.386 . S
H3993 C4009 0.930 . S
H3994 C4010 0.931 . S
C3995 H3983 0.929 . S
C3995 C3989 1.390 . S
C3995 C3992 1.386 . S
C3996 C3991 1.490 . S
C3996 C3998 1.395 . S
C3996 C3999 1.403 . S
H3997 C4003 0.930 . S
C3998 H3984 0.930 . S
C3998 C3996 1.395 . S
C3998 C4001 1.403 . S
C3999 C3996 1.403 . S
C3999 C4000 1.524 . S
C3999 C4003 1.400 . S
C4000 H3985 0.960 . S
C4000 H3986 0.960 . S
C4000 H3987 0.960 . S
C4000 C3999 1.524 . S
C4001 C3998 1.403 . S
C4001 C4002 1.392 . S
C4001 C4005 1.495 . S
C4002 C4001 1.392 . S
C4002 C4003 1.385 . S
C4002 C4004 1.478 . S
C4003 H3997 0.930 . S
C4003 C3999 1.400 . S
C4003 C4002 1.385 . S
C4004 C4002 1.478 . S
C4004 C4006 1.381 . S
C4004 C4010 1.383 . S
C4005 C4001 1.495 . S
C4005 H4011 0.959 . S
C4005 H4012 0.961 . S
C4005 H4013 0.960 . S
C4006 C4004 1.381 . S
C4006 C4007 1.394 . S
C4006 H4014 0.930 . S
C4007 C4006 1.394 . S
C4007 C4008 1.383 . S
C4007 H4015 0.929 . S
C4008 C4007 1.383 . S
C4008 C4009 1.377 . S
C4009 H3993 0.930 . S
C4009 C4008 1.377 . S
C4009 C4010 1.379 . S
C4010 H3994 0.931 . S
C4010 C4004 1.383 . S
C4010 C4009 1.379 . S
H4011 C4005 0.959 . S
H4012 C4005 0.961 . S
H4013 C4005 0.960 . S
H4014 C4006 0.930 . S
H4015 C4007 0.929 . S
H4016 C4024 0.929 . S
H4017 C4026 0.930 . S
H4018 C4028 0.930 . S
H4019 C4031 0.929 . S
H4020 C4034 0.930 . S
H4021 C4036 0.960 . S
H4022 C4036 0.960 . S
H4023 C4036 0.960 . S
C4024 H4016 0.929 . S
C4024 C4025 1.377 . S
C4024 C4026 1.384 . S
C4025 C4024 1.377 . S
C4025 C4031 1.390 . S
C4026 H4017 0.930 . S
C4026 C4024 1.384 . S
C4026 C4027 1.372 . S
C4027 C4026 1.372 . S
C4027 C4028 1.400 . S
C4027 C4032 1.490 . S
C4028 H4018 0.930 . S
C4028 C4027 1.400 . S
C4028 C4031 1.386 . S
H4029 C4045 0.930 . S
H4030 C4046 0.931 . S
C4031 H4019 0.929 . S
C4031 C4025 1.390 . S
C4031 C4028 1.386 . S
C4032 C4027 1.490 . S
C4032 C4034 1.395 . S
C4032 C4035 1.403 . S
H4033 C4039 0.930 . S
C4034 H4020 0.930 . S
C4034 C4032 1.395 . S
C4034 C4037 1.403 . S
C4035 C4032 1.403 . S
C4035 C4036 1.524 . S
C4035 C4039 1.400 . S
C4036 H4021 0.960 . S
C4036 H4022 0.960 . S
C4036 H4023 0.960 . S
C4036 C4035 1.524 . S
C4037 C4034 1.403 . S
C4037 C4038 1.392 . S
C4037 C4041 1.495 . S
C4038 C4037 1.392 . S
C4038 C4039 1.385 . S
C4038 C4040 1.478 . S
C4039 H4033 0.930 . S
C4039 C4035 1.400 . S
C4039 C4038 1.385 . S
C4040 C4038 1.478 . S
C4040 C4042 1.381 . S
C4040 C4046 1.383 . S
C4041 C4037 1.495 . S
C4041 H4047 0.959 . S
C4041 H4048 0.961 . S
C4041 H4049 0.960 . S
C4042 C4040 1.381 . S
C4042 C4043 1.394 . S
C4042 H4050 0.930 . S
C4043 C4042 1.394 . S
C4043 C4044 1.383 . S
C4043 H4051 0.929 . S
C4044 C4043 1.383 . S
C4044 C4045 1.377 . S
C4045 H4029 0.930 . S
C4045 C4044 1.377 . S
C4045 C4046 1.379 . S
C4046 H4030 0.931 . S
C4046 C4040 1.383 . S
C4046 C4045 1.379 . S
H4047 C4041 0.959 . S
H4048 C4041 0.961 . S
H4049 C4041 0.960 . S
H4050 C4042 0.930 . S
H4051 C4043 0.929 . S
H4052 C4060 0.929 . S
H4053 C4062 0.930 . S
H4054 C4064 0.930 . S
H4055 C4067 0.929 . S
H4056 C4070 0.930 . S
H4057 C4072 0.960 . S
H4058 C4072 0.960 . S
H4059 C4072 0.960 . S
C4060 H4052 0.929 . S
C4060 C4061 1.377 . S
C4060 C4062 1.384 . S
C4061 C4060 1.377 . S
C4061 C4067 1.390 . S
C4062 H4053 0.930 . S
C4062 C4060 1.384 . S
C4062 C4063 1.372 . S
C4063 C4062 1.372 . S
C4063 C4064 1.400 . S
C4063 C4068 1.490 . S
C4064 H4054 0.930 . S
C4064 C4063 1.400 . S
C4064 C4067 1.386 . S
H4065 C4081 0.930 . S
H4066 C4082 0.931 . S
C4067 H4055 0.929 . S
C4067 C4061 1.390 . S
C4067 C4064 1.386 . S
C4068 C4063 1.490 . S
C4068 C4070 1.395 . S
C4068 C4071 1.403 . S
H4069 C4075 0.930 . S
C4070 H4056 0.930 . S
C4070 C4068 1.395 . S
C4070 C4073 1.403 . S
C4071 C4068 1.403 . S
C4071 C4072 1.524 . S
C4071 C4075 1.400 . S
C4072 H4057 0.960 . S
C4072 H4058 0.960 . S
C4072 H4059 0.960 . S
C4072 C4071 1.524 . S
C4073 C4070 1.403 . S
C4073 C4074 1.392 . S
C4073 C4077 1.495 . S
C4074 C4073 1.392 . S
C4074 C4075 1.385 . S
C4074 C4076 1.478 . S
C4075 H4069 0.930 . S
C4075 C4071 1.400 . S
C4075 C4074 1.385 . S
C4076 C4074 1.478 . S
C4076 C4078 1.381 . S
C4076 C4082 1.383 . S
C4077 C4073 1.495 . S
C4077 H4083 0.959 . S
C4077 H4084 0.961 . S
C4077 H4085 0.960 . S
C4078 C4076 1.381 . S
C4078 C4079 1.394 . S
C4078 H4086 0.930 . S
C4079 C4078 1.394 . S
C4079 C4080 1.383 . S
C4079 H4087 0.929 . S
C4080 C4079 1.383 . S
C4080 C4081 1.377 . S
C4081 H4065 0.930 . S
C4081 C4080 1.377 . S
C4081 C4082 1.379 . S
C4082 H4066 0.931 . S
C4082 C4076 1.383 . S
C4082 C4081 1.379 . S
H4083 C4077 0.959 . S
H4084 C4077 0.961 . S
H4085 C4077 0.960 . S
H4086 C4078 0.930 . S
H4087 C4079 0.929 . S
H4088 C4096 0.929 . S
H4089 C4098 0.930 . S
H4090 C4100 0.930 . S
H4091 C4103 0.929 . S
H4092 C4106 0.930 . S
H4093 C4108 0.960 . S
H4094 C4108 0.960 . S
H4095 C4108 0.960 . S
C4096 H4088 0.929 . S
C4096 C4097 1.377 . S
C4096 C4098 1.384 . S
C4097 C4096 1.377 . S
C4097 C4103 1.390 . S
C4098 H4089 0.930 . S
C4098 C4096 1.384 . S
C4098 C4099 1.372 . S
C4099 C4098 1.372 . S
C4099 C4100 1.400 . S
C4099 C4104 1.490 . S
C4100 H4090 0.930 . S
C4100 C4099 1.400 . S
C4100 C4103 1.386 . S
H4101 C4117 0.930 . S
H4102 C4118 0.931 . S
C4103 H4091 0.929 . S
C4103 C4097 1.390 . S
C4103 C4100 1.386 . S
C4104 C4099 1.490 . S
C4104 C4106 1.395 . S
C4104 C4107 1.403 . S
H4105 C4111 0.930 . S
C4106 H4092 0.930 . S
C4106 C4104 1.395 . S
C4106 C4109 1.403 . S
C4107 C4104 1.403 . S
C4107 C4108 1.524 . S
C4107 C4111 1.400 . S
C4108 H4093 0.960 . S
C4108 H4094 0.960 . S
C4108 H4095 0.960 . S
C4108 C4107 1.524 . S
C4109 C4106 1.403 . S
C4109 C4110 1.392 . S
C4109 C4113 1.495 . S
C4110 C4109 1.392 . S
C4110 C4111 1.385 . S
C4110 C4112 1.478 . S
C4111 H4105 0.930 . S
C4111 C4107 1.400 . S
C4111 C4110 1.385 . S
C4112 C4110 1.478 . S
C4112 C4114 1.381 . S
C4112 C4118 1.383 . S
C4113 C4109 1.495 . S
C4113 H4119 0.959 . S
C4113 H4120 0.961 . S
C4113 H4121 0.960 . S
C4114 C4112 1.381 . S
C4114 C4115 1.394 . S
C4114 H4122 0.930 . S
C4115 C4114 1.394 . S
C4115 C4116 1.383 . S
C4115 H4123 0.929 . S
C4116 C4115 1.383 . S
C4116 C4117 1.377 . S
C4117 H4101 0.930 . S
C4117 C4116 1.377 . S
C4117 C4118 1.379 . S
C4118 H4102 0.931 . S
C4118 C4112 1.383 . S
C4118 C4117 1.379 . S
H4119 C4113 0.959 . S
H4120 C4113 0.961 . S
H4121 C4113 0.960 . S
H4122 C4114 0.930 . S
H4123 C4115 0.929 . S
H4124 C4132 0.929 . S
H4125 C4134 0.930 . S
H4126 C4136 0.930 . S
H4127 C4139 0.929 . S
H4128 C4142 0.930 . S
H4129 C4144 0.960 . S
H4130 C4144 0.960 . S
H4131 C4144 0.960 . S
C4132 H4124 0.929 . S
C4132 C4133 1.377 . S
C4132 C4134 1.384 . S
C4133 C4132 1.377 . S
C4133 C4139 1.390 . S
C4134 H4125 0.930 . S
C4134 C4132 1.384 . S
C4134 C4135 1.372 . S
C4135 C4134 1.372 . S
C4135 C4136 1.400 . S
C4135 C4140 1.490 . S
C4136 H4126 0.930 . S
C4136 C4135 1.400 . S
C4136 C4139 1.386 . S
H4137 C4153 0.930 . S
H4138 C4154 0.931 . S
C4139 H4127 0.929 . S
C4139 C4133 1.390 . S
C4139 C4136 1.386 . S
C4140 C4135 1.490 . S
C4140 C4142 1.395 . S
C4140 C4143 1.403 . S
H4141 C4147 0.930 . S
C4142 H4128 0.930 . S
C4142 C4140 1.395 . S
C4142 C4145 1.403 . S
C4143 C4140 1.403 . S
C4143 C4144 1.524 . S
C4143 C4147 1.400 . S
C4144 H4129 0.960 . S
C4144 H4130 0.960 . S
C4144 H4131 0.960 . S
C4144 C4143 1.524 . S
C4145 C4142 1.403 . S
C4145 C4146 1.392 . S
C4145 C4149 1.495 . S
C4146 C4145 1.392 . S
C4146 C4147 1.385 . S
C4146 C4148 1.478 . S
C4147 H4141 0.930 . S
C4147 C4143 1.400 . S
C4147 C4146 1.385 . S
C4148 C4146 1.478 . S
C4148 C4150 1.381 . S
C4148 C4154 1.383 . S
C4149 C4145 1.495 . S
C4149 H4155 0.959 . S
C4149 H4156 0.961 . S
C4149 H4157 0.960 . S
C4150 C4148 1.381 . S
C4150 C4151 1.394 . S
C4150 H4158 0.930 . S
C4151 C4150 1.394 . S
C4151 C4152 1.383 . S
C4151 H4159 0.929 . S
C4152 C4151 1.383 . S
C4152 C4153 1.377 . S
C4153 H4137 0.930 . S
C4153 C4152 1.377 . S
C4153 C4154 1.379 . S
C4154 H4138 0.931 . S
C4154 C4148 1.383 . S
C4154 C4153 1.379 . S
H4155 C4149 0.959 . S
H4156 C4149 0.961 . S
H4157 C4149 0.960 . S
H4158 C4150 0.930 . S
H4159 C4151 0.929 . S
H4160 C4168 0.929 . S
H4161 C4170 0.930 . S
H4162 C4172 0.930 . S
H4163 C4175 0.929 . S
H4164 C4178 0.930 . S
H4165 C4180 0.960 . S
H4166 C4180 0.960 1_545 S
H4167 C4180 0.962 . S
C4168 H4160 0.929 . S
C4168 C4169 1.377 . S
C4168 C4170 1.384 . S
C4169 C4168 1.377 . S
C4169 C4175 1.390 . S
C4170 H4161 0.930 . S
C4170 C4168 1.384 . S
C4170 C4171 1.372 . S
C4171 C4170 1.372 . S
C4171 C4172 1.400 . S
C4171 C4176 1.490 . S
C4172 H4162 0.930 . S
C4172 C4171 1.400 . S
C4172 C4175 1.386 . S
H4173 C4189 0.930 . S
H4174 C4190 0.931 . S
C4175 H4163 0.929 . S
C4175 C4169 1.390 . S
C4175 C4172 1.386 . S
C4176 C4171 1.490 . S
C4176 C4178 1.395 . S
C4176 C4179 1.398 1_545 S
H4177 C4183 0.930 . S
C4178 H4164 0.930 . S
C4178 C4176 1.395 . S
C4178 C4181 1.403 . S
C4179 C4176 1.398 1_565 S
C4179 C4180 1.524 . S
C4179 C4183 1.404 . S
C4180 H4165 0.960 . S
C4180 H4166 0.960 1_565 S
C4180 H4167 0.962 . S
C4180 C4179 1.524 . S
C4181 C4178 1.403 . S
C4181 C4182 1.392 1_545 S
C4181 C4185 1.495 . S
C4182 C4181 1.392 1_565 S
C4182 C4183 1.385 . S
C4182 C4184 1.478 . S
C4183 H4177 0.930 . S
C4183 C4179 1.404 . S
C4183 C4182 1.385 . S
C4184 C4182 1.478 . S
C4184 C4186 1.381 . S
C4184 C4190 1.383 . S
C4185 C4181 1.495 . S
C4185 H4191 0.959 . S
C4185 H4192 0.961 1_545 S
C4185 H4193 0.960 . S
C4186 C4184 1.381 . S
C4186 C4187 1.394 . S
C4186 H4194 0.930 . S
C4187 C4186 1.394 . S
C4187 C4188 1.383 . S
C4187 H4195 0.929 . S
C4188 C4187 1.383 . S
C4188 C4189 1.377 . S
C4189 H4173 0.930 . S
C4189 C4188 1.377 . S
C4189 C4190 1.379 . S
C4190 H4174 0.931 . S
C4190 C4184 1.383 . S
C4190 C4189 1.379 . S
H4191 C4185 0.959 . S
H4192 C4185 0.961 1_565 S
H4193 C4185 0.960 . S
H4194 C4186 0.930 . S
H4195 C4187 0.929 . S
H4196 C4204 0.929 . S
H4197 C4206 0.930 . S
H4198 C4208 0.930 . S
H4199 C4211 0.929 . S
H4200 C4214 0.930 . S
H4201 C4216 0.960 . S
H4202 C4216 0.960 . S
H4203 C4216 0.960 . S
C4204 H4196 0.929 . S
C4204 C4205 1.377 . S
C4204 C4206 1.384 . S
C4205 C4204 1.377 . S
C4205 C4211 1.390 . S
C4206 H4197 0.930 . S
C4206 C4204 1.384 . S
C4206 C4207 1.372 . S
C4207 C4206 1.372 . S
C4207 C4208 1.400 . S
C4207 C4212 1.490 . S
C4208 H4198 0.930 . S
C4208 C4207 1.400 . S
C4208 C4211 1.386 . S
H4209 C4225 0.930 . S
H4210 C4226 0.931 . S
C4211 H4199 0.929 . S
C4211 C4205 1.390 . S
C4211 C4208 1.386 . S
C4212 C4207 1.490 . S
C4212 C4214 1.395 . S
C4212 C4215 1.403 . S
H4213 C4219 0.930 . S
C4214 H4200 0.930 . S
C4214 C4212 1.395 . S
C4214 C4217 1.403 . S
C4215 C4212 1.403 . S
C4215 C4216 1.524 1_565 S
C4215 C4219 1.400 . S
C4216 H4201 0.960 . S
C4216 H4202 0.960 . S
C4216 H4203 0.960 . S
C4216 C4215 1.524 1_545 S
C4217 C4214 1.403 . S
C4217 C4218 1.392 . S
C4217 C4221 1.495 . S
C4218 C4217 1.392 . S
C4218 C4219 1.385 . S
C4218 C4220 1.478 . S
C4219 H4213 0.930 . S
C4219 C4215 1.400 . S
C4219 C4218 1.385 . S
C4220 C4218 1.478 . S
C4220 C4222 1.381 . S
C4220 C4226 1.383 . S
C4221 C4217 1.495 . S
C4221 H4227 0.959 . S
C4221 H4228 0.961 . S
C4221 H4229 0.960 . S
C4222 C4220 1.381 . S
C4222 C4223 1.394 . S
C4222 H4230 0.930 . S
C4223 C4222 1.394 . S
C4223 C4224 1.383 . S
C4223 H4231 0.929 . S
C4224 C4223 1.383 . S
C4224 C4225 1.377 . S
C4225 H4209 0.930 . S
C4225 C4224 1.377 . S
C4225 C4226 1.379 . S
C4226 H4210 0.931 . S
C4226 C4220 1.383 . S
C4226 C4225 1.379 . S
H4227 C4221 0.959 . S
H4228 C4221 0.961 . S
H4229 C4221 0.960 . S
H4230 C4222 0.930 . S
H4231 C4223 0.929 . S
H4232 C4240 0.929 . S
H4233 C4242 0.930 . S
H4234 C4244 0.930 . S
H4235 C4247 0.929 . S
H4236 C4250 0.930 . S
H4237 C4252 0.960 . S
H4238 C4252 0.960 . S
H4239 C4252 0.960 . S
C4240 H4232 0.929 . S
C4240 C4241 1.377 . S
C4240 C4242 1.384 . S
C4241 C4240 1.377 . S
C4241 C4247 1.390 . S
C4242 H4233 0.930 . S
C4242 C4240 1.384 . S
C4242 C4243 1.372 . S
C4243 C4242 1.372 . S
C4243 C4244 1.400 . S
C4243 C4248 1.490 . S
C4244 H4234 0.930 . S
C4244 C4243 1.400 . S
C4244 C4247 1.386 . S
H4245 C4261 0.930 . S
H4246 C4262 0.931 . S
C4247 H4235 0.929 . S
C4247 C4241 1.390 . S
C4247 C4244 1.386 . S
C4248 C4243 1.490 . S
C4248 C4250 1.395 . S
C4248 C4251 1.403 . S
H4249 C4255 0.930 . S
C4250 H4236 0.930 . S
C4250 C4248 1.395 . S
C4250 C4253 1.403 1_545 S
C4251 C4248 1.403 . S
C4251 C4252 1.524 . S
C4251 C4255 1.400 1_545 S
C4252 H4237 0.960 . S
C4252 H4238 0.960 . S
C4252 H4239 0.960 . S
C4252 C4251 1.524 . S
C4253 C4250 1.403 1_565 S
C4253 C4254 1.392 . S
C4253 C4257 1.495 . S
C4254 C4253 1.392 . S
C4254 C4255 1.385 . S
C4254 C4256 1.478 . S
C4255 H4249 0.930 . S
C4255 C4251 1.400 1_565 S
C4255 C4254 1.385 . S
C4256 C4254 1.478 . S
C4256 C4258 1.381 . S
C4256 C4262 1.383 . S
C4257 C4253 1.495 . S
C4257 H4263 0.959 . S
C4257 H4264 0.961 . S
C4257 H4265 0.960 . S
C4258 C4256 1.381 . S
C4258 C4259 1.394 . S
C4258 H4266 0.930 . S
C4259 C4258 1.394 . S
C4259 C4260 1.383 . S
C4259 H4267 0.929 . S
C4260 C4259 1.383 . S
C4260 C4261 1.377 . S
C4261 H4245 0.930 . S
C4261 C4260 1.377 . S
C4261 C4262 1.379 . S
C4262 H4246 0.931 . S
C4262 C4256 1.383 . S
C4262 C4261 1.379 . S
H4263 C4257 0.959 . S
H4264 C4257 0.961 . S
H4265 C4257 0.960 . S
H4266 C4258 0.930 . S
H4267 C4259 0.929 . S
H4268 C4276 0.929 . S
H4269 C4278 0.930 . S
H4270 C4280 0.930 . S
H4271 C4283 0.929 . S
H4272 C4286 0.930 . S
H4273 C4288 0.960 . S
H4274 C4288 0.960 . S
H4275 C4288 0.960 . S
C4276 H4268 0.929 . S
C4276 C4277 1.377 . S
C4276 C4278 1.384 . S
C4277 C4276 1.377 . S
C4277 C4283 1.390 . S
C4278 H4269 0.930 . S
C4278 C4276 1.384 . S
C4278 C4279 1.372 . S
C4279 C4278 1.372 . S
C4279 C4280 1.400 . S
C4279 C4284 1.490 . S
C4280 H4270 0.930 . S
C4280 C4279 1.400 . S
C4280 C4283 1.386 . S
H4281 C4297 0.930 . S
H4282 C4298 0.931 . S
C4283 H4271 0.929 . S
C4283 C4277 1.390 . S
C4283 C4280 1.386 . S
C4284 C4279 1.490 . S
C4284 C4286 1.395 1_556 S
C4284 C4287 1.403 . S
H4285 C4291 0.930 . S
C4286 H4272 0.930 . S
C4286 C4284 1.395 1_554 S
C4286 C4289 1.403 . S
C4287 C4284 1.403 . S
C4287 C4288 1.524 . S
C4287 C4291 1.400 . S
C4288 H4273 0.960 . S
C4288 H4274 0.960 . S
C4288 H4275 0.960 . S
C4288 C4287 1.524 . S
C4289 C4286 1.403 . S
C4289 C4290 1.392 . S
C4289 C4293 1.495 . S
C4290 C4289 1.392 . S
C4290 C4291 1.385 1_554 S
C4290 C4292 1.478 . S
C4291 H4285 0.930 . S
C4291 C4287 1.400 . S
C4291 C4290 1.385 1_556 S
C4292 C4290 1.478 . S
C4292 C4294 1.381 . S
C4292 C4298 1.383 . S
C4293 C4289 1.495 . S
C4293 H4299 0.959 . S
C4293 H4300 0.961 1_545 S
C4293 H4301 0.960 . S
C4294 C4292 1.381 . S
C4294 C4295 1.394 . S
C4294 H4302 0.930 . S
C4295 C4294 1.394 . S
C4295 C4296 1.383 . S
C4295 H4303 0.929 . S
C4296 C4295 1.383 . S
C4296 C4297 1.377 . S
C4297 H4281 0.930 . S
C4297 C4296 1.377 . S
C4297 C4298 1.379 . S
C4298 H4282 0.931 . S
C4298 C4292 1.383 . S
C4298 C4297 1.379 . S
H4299 C4293 0.959 . S
H4300 C4293 0.961 1_565 S
H4301 C4293 0.960 . S
H4302 C4294 0.930 . S
H4303 C4295 0.929 . S
H4304 C4312 0.929 . S
H4305 C4314 0.930 . S
H4306 C4316 0.930 . S
H4307 C4319 0.929 . S
H4308 C4322 0.930 . S
H4309 C4324 0.960 . S
H4310 C4324 0.960 1_565 S
H4311 C4324 0.960 . S
C4312 H4304 0.929 . S
C4312 C4313 1.377 . S
C4312 C4314 1.384 . S
C4313 C4312 1.377 . S
C4313 C4319 1.390 . S
C4314 H4305 0.930 . S
C4314 C4312 1.384 . S
C4314 C4315 1.372 . S
C4315 C4314 1.372 . S
C4315 C4316 1.400 . S
C4315 C4320 1.490 . S
C4316 H4306 0.930 . S
C4316 C4315 1.400 . S
C4316 C4319 1.386 . S
H4317 C4333 0.930 . S
H4318 C4334 0.931 . S
C4319 H4307 0.929 . S
C4319 C4313 1.390 . S
C4319 C4316 1.386 . S
C4320 C4315 1.490 . S
C4320 C4322 1.395 . S
C4320 C4323 1.403 1_565 S
H4321 C4327 0.930 . S
C4322 H4308 0.930 . S
C4322 C4320 1.395 . S
C4322 C4325 1.403 . S
C4323 C4320 1.403 1_545 S
C4323 C4324 1.524 . S
C4323 C4327 1.400 . S
C4324 H4309 0.960 . S
C4324 H4310 0.960 1_545 S
C4324 H4311 0.960 . S
C4324 C4323 1.524 . S
C4325 C4322 1.403 . S
C4325 C4326 1.392 1_565 S
C4325 C4329 1.495 . S
C4326 C4325 1.392 1_545 S
C4326 C4327 1.385 . S
C4326 C4328 1.478 . S
C4327 H4321 0.930 . S
C4327 C4323 1.400 . S
C4327 C4326 1.385 . S
C4328 C4326 1.478 . S
C4328 C4330 1.381 . S
C4328 C4334 1.383 . S
C4329 C4325 1.495 . S
C4329 H4335 0.959 . S
C4329 H4336 0.961 1_565 S
C4329 H4337 0.960 . S
C4330 C4328 1.381 . S
C4330 C4331 1.394 . S
C4330 H4338 0.930 . S
C4331 C4330 1.394 . S
C4331 C4332 1.383 . S
C4331 H4339 0.929 . S
C4332 C4331 1.383 . S
C4332 C4333 1.377 . S
C4333 H4317 0.930 . S
C4333 C4332 1.377 . S
C4333 C4334 1.379 . S
C4334 H4318 0.931 . S
C4334 C4328 1.383 . S
C4334 C4333 1.379 . S
H4335 C4329 0.959 . S
H4336 C4329 0.961 1_545 S
H4337 C4329 0.960 . S
H4338 C4330 0.930 . S
H4339 C4331 0.929 . S
H4340 C4348 0.929 . S
H4341 C4350 0.930 . S
H4342 C4352 0.930 . S
H4343 C4355 0.929 . S
H4344 C4358 0.930 . S
H4345 C4360 0.960 . S
H4346 C4360 0.960 . S
H4347 C4360 0.960 . S
C4348 H4340 0.929 . S
C4348 C4349 1.377 . S
C4348 C4350 1.384 . S
C4349 C4348 1.377 . S
C4349 C4355 1.390 . S
C4350 H4341 0.930 . S
C4350 C4348 1.384 . S
C4350 C4351 1.372 . S
C4351 C4350 1.372 . S
C4351 C4352 1.400 . S
C4351 C4356 1.490 . S
C4352 H4342 0.930 . S
C4352 C4351 1.400 . S
C4352 C4355 1.386 . S
H4353 C4369 0.930 . S
H4354 C4370 0.931 . S
C4355 H4343 0.929 . S
C4355 C4349 1.390 . S
C4355 C4352 1.386 . S
C4356 C4351 1.490 . S
C4356 C4358 1.395 . S
C4356 C4359 1.403 . S
H4357 C4363 0.930 . S
C4358 H4344 0.930 . S
C4358 C4356 1.395 . S
C4358 C4361 1.403 . S
C4359 C4356 1.403 . S
C4359 C4360 1.524 . S
C4359 C4363 1.400 . S
C4360 H4345 0.960 . S
C4360 H4346 0.960 . S
C4360 H4347 0.960 . S
C4360 C4359 1.524 . S
C4361 C4358 1.403 . S
C4361 C4362 1.392 . S
C4361 C4365 1.495 . S
C4362 C4361 1.392 . S
C4362 C4363 1.385 . S
C4362 C4364 1.478 . S
C4363 H4357 0.930 . S
C4363 C4359 1.400 . S
C4363 C4362 1.385 . S
C4364 C4362 1.478 . S
C4364 C4366 1.381 . S
C4364 C4370 1.383 . S
C4365 C4361 1.495 . S
C4365 H4371 0.959 . S
C4365 H4372 0.961 . S
C4365 H4373 0.960 . S
C4366 C4364 1.381 . S
C4366 C4367 1.394 . S
C4366 H4374 0.930 . S
C4367 C4366 1.394 . S
C4367 C4368 1.383 . S
C4367 H4375 0.929 . S
C4368 C4367 1.383 . S
C4368 C4369 1.377 . S
C4369 H4353 0.930 . S
C4369 C4368 1.377 . S
C4369 C4370 1.379 . S
C4370 H4354 0.931 . S
C4370 C4364 1.383 . S
C4370 C4369 1.379 . S
H4371 C4365 0.959 . S
H4372 C4365 0.961 . S
H4373 C4365 0.960 . S
H4374 C4366 0.930 . S
H4375 C4367 0.929 . S
H4376 C4384 0.929 . S
H4377 C4386 0.930 . S
H4378 C4388 0.930 . S
H4379 C4391 0.929 . S
H4380 C4394 0.930 . S
H4381 C4396 0.960 1_545 S
H4382 C4396 0.960 . S
H4383 C4396 0.960 . S
C4384 H4376 0.929 . S
C4384 C4385 1.377 . S
C4384 C4386 1.384 . S
C4385 C4384 1.377 . S
C4385 C4391 1.390 . S
C4386 H4377 0.930 . S
C4386 C4384 1.384 . S
C4386 C4387 1.372 . S
C4387 C4386 1.372 . S
C4387 C4388 1.400 . S
C4387 C4392 1.490 . S
C4388 H4378 0.930 . S
C4388 C4387 1.400 . S
C4388 C4391 1.386 . S
H4389 C4405 0.930 . S
H4390 C4406 0.931 . S
C4391 H4379 0.929 . S
C4391 C4385 1.390 . S
C4391 C4388 1.386 . S
C4392 C4387 1.490 . S
C4392 C4394 1.395 . S
C4392 C4395 1.403 . S
H4393 C4399 0.930 . S
C4394 H4380 0.930 . S
C4394 C4392 1.395 . S
C4394 C4397 1.403 1_565 S
C4395 C4392 1.403 . S
C4395 C4396 1.524 . S
C4395 C4399 1.400 1_565 S
C4396 H4381 0.960 1_565 S
C4396 H4382 0.960 . S
C4396 H4383 0.960 . S
C4396 C4395 1.524 . S
C4397 C4394 1.403 1_545 S
C4397 C4398 1.392 . S
C4397 C4401 1.495 . S
C4398 C4397 1.392 . S
C4398 C4399 1.385 . S
C4398 C4400 1.478 . S
C4399 H4393 0.930 . S
C4399 C4395 1.400 1_545 S
C4399 C4398 1.385 . S
C4400 C4398 1.478 . S
C4400 C4402 1.381 . S
C4400 C4406 1.383 . S
C4401 C4397 1.495 . S
C4401 H4407 0.959 1_545 S
C4401 H4408 0.961 . S
C4401 H4409 0.960 . S
C4402 C4400 1.381 . S
C4402 C4403 1.394 . S
C4402 H4410 0.930 . S
C4403 C4402 1.394 . S
C4403 C4404 1.383 . S
C4403 H4411 0.929 . S
C4404 C4403 1.383 . S
C4404 C4405 1.377 . S
C4405 H4389 0.930 . S
C4405 C4404 1.377 . S
C4405 C4406 1.379 . S
C4406 H4390 0.931 . S
C4406 C4400 1.383 . S
C4406 C4405 1.379 . S
H4407 C4401 0.959 1_565 S
H4408 C4401 0.961 . S
H4409 C4401 0.960 . S
H4410 C4402 0.930 . S
H4411 C4403 0.929 . S
H4412 C4420 0.929 . S
H4413 C4422 0.930 . S
H4414 C4424 0.930 . S
H4415 C4427 0.929 . S
H4416 C4430 0.930 . S
H4417 C4432 0.947 1_545 S
H4418 C4432 0.970 . S
H4419 C4432 0.947 1_544 S
C4420 H4412 0.929 . S
C4420 C4421 1.377 . S
C4420 C4422 1.384 . S
C4421 C4420 1.377 . S
C4421 C4427 1.390 . S
C4422 H4413 0.930 . S
C4422 C4420 1.384 . S
C4422 C4423 1.372 . S
C4423 C4422 1.372 . S
C4423 C4424 1.400 . S
C4423 C4428 1.490 . S
C4424 H4414 0.930 . S
C4424 C4423 1.400 . S
C4424 C4427 1.386 . S
H4425 C4441 0.930 . S
H4426 C4442 0.931 . S
C4427 H4415 0.929 . S
C4427 C4421 1.390 . S
C4427 C4424 1.386 . S
C4428 C4423 1.490 . S
C4428 C4430 1.395 . S
C4428 C4431 1.403 1_554 S
H4429 C4435 0.930 . S
C4430 H4416 0.930 . S
C4430 C4428 1.395 . S
C4430 C4433 1.403 . S
C4431 C4428 1.403 1_556 S
C4431 C4432 1.540 . S
C4431 C4435 1.400 . S
C4432 H4417 0.947 1_565 S
C4432 H4418 0.970 . S
C4432 H4419 0.947 1_566 S
C4432 C4431 1.540 . S
C4433 C4430 1.403 . S
C4433 C4434 1.392 1_554 S
C4433 C4437 1.495 . S
C4434 C4433 1.392 1_556 S
C4434 C4435 1.385 . S
C4434 C4436 1.478 . S
C4435 H4429 0.930 . S
C4435 C4431 1.400 . S
C4435 C4434 1.385 . S
C4436 C4434 1.478 . S
C4436 C4438 1.381 . S
C4436 C4442 1.383 . S
C4437 C4433 1.495 . S
C4437 H4443 0.959 . S
C4437 H4444 0.961 . S
C4437 H4445 0.960 1_554 S
C4438 C4436 1.381 . S
C4438 C4439 1.394 . S
C4438 H4446 0.930 . S
C4439 C4438 1.394 . S
C4439 C4440 1.383 . S
C4439 H4447 0.929 . S
C4440 C4439 1.383 . S
C4440 C4441 1.377 . S
C4441 H4425 0.930 . S
C4441 C4440 1.377 . S
C4441 C4442 1.379 . S
C4442 H4426 0.931 . S
C4442 C4436 1.383 . S
C4442 C4441 1.379 . S
H4443 C4437 0.959 . S
H4444 C4437 0.961 . S
H4445 C4437 0.960 1_556 S
H4446 C4438 0.930 . S
H4447 C4439 0.929 . S
H4448 C4456 0.929 . S
H4449 C4458 0.930 . S
H4450 C4460 0.930 . S
H4451 C4463 0.929 . S
H4452 C4466 0.930 . S
H4453 C4468 0.960 . S
H4454 C4468 0.960 . S
H4455 C4468 0.960 . S
C4456 H4448 0.929 . S
C4456 C4457 1.377 . S
C4456 C4458 1.384 . S
C4457 C4456 1.377 . S
C4457 C4463 1.390 . S
C4458 H4449 0.930 . S
C4458 C4456 1.384 . S
C4458 C4459 1.372 . S
C4459 C4458 1.372 . S
C4459 C4460 1.400 . S
C4459 C4464 1.490 . S
C4460 H4450 0.930 . S
C4460 C4459 1.400 . S
C4460 C4463 1.386 . S
H4461 C4477 0.930 . S
H4462 C4478 0.931 . S
C4463 H4451 0.929 . S
C4463 C4457 1.390 . S
C4463 C4460 1.386 . S
C4464 C4459 1.490 . S
C4464 C4466 1.395 . S
C4464 C4467 1.403 . S
H4465 C4471 0.930 . S
C4466 H4452 0.930 . S
C4466 C4464 1.395 . S
C4466 C4469 1.403 . S
C4467 C4464 1.403 . S
C4467 C4468 1.524 . S
C4467 C4471 1.400 . S
C4468 H4453 0.960 . S
C4468 H4454 0.960 . S
C4468 H4455 0.960 . S
C4468 C4467 1.524 . S
C4469 C4466 1.403 . S
C4469 C4470 1.392 . S
C4469 C4473 1.495 . S
C4470 C4469 1.392 . S
C4470 C4471 1.385 . S
C4470 C4472 1.478 . S
C4471 H4465 0.930 . S
C4471 C4467 1.400 . S
C4471 C4470 1.385 . S
C4472 C4470 1.478 . S
C4472 C4474 1.381 . S
C4472 C4478 1.383 . S
C4473 C4469 1.495 . S
C4473 H4479 0.959 . S
C4473 H4480 0.961 . S
C4473 H4481 0.960 . S
C4474 C4472 1.381 . S
C4474 C4475 1.394 . S
C4474 H4482 0.930 . S
C4475 C4474 1.394 . S
C4475 C4476 1.383 . S
C4475 H4483 0.929 . S
C4476 C4475 1.383 . S
C4476 C4477 1.377 . S
C4477 H4461 0.930 . S
C4477 C4476 1.377 . S
C4477 C4478 1.379 . S
C4478 H4462 0.931 . S
C4478 C4472 1.383 . S
C4478 C4477 1.379 . S
H4479 C4473 0.959 . S
H4480 C4473 0.961 . S
H4481 C4473 0.960 . S
H4482 C4474 0.930 . S
H4483 C4475 0.929 . S
H4484 C4492 0.929 . S
H4485 C4494 0.930 . S
H4486 C4496 0.930 . S
H4487 C4499 0.929 . S
H4488 C4502 0.930 . S
H4489 C4504 0.960 . S
H4490 C4504 0.960 . S
H4491 C4504 0.960 . S
C4492 H4484 0.929 . S
C4492 C4493 1.377 . S
C4492 C4494 1.384 . S
C4493 C4492 1.377 . S
C4493 C4499 1.390 . S
C4494 H4485 0.930 . S
C4494 C4492 1.384 . S
C4494 C4495 1.372 . S
C4495 C4494 1.372 . S
C4495 C4496 1.400 . S
C4495 C4500 1.490 . S
C4496 H4486 0.930 . S
C4496 C4495 1.400 . S
C4496 C4499 1.386 . S
H4497 C4513 0.930 . S
H4498 C4514 0.931 . S
C4499 H4487 0.929 . S
C4499 C4493 1.390 . S
C4499 C4496 1.386 . S
C4500 C4495 1.490 . S
C4500 C4502 1.395 1_556 S
C4500 C4503 1.403 . S
H4501 C4507 0.930 . S
C4502 H4488 0.930 . S
C4502 C4500 1.395 1_554 S
C4502 C4505 1.403 . S
C4503 C4500 1.403 . S
C4503 C4504 1.524 . S
C4503 C4507 1.400 . S
C4504 H4489 0.960 . S
C4504 H4490 0.960 . S
C4504 H4491 0.960 . S
C4504 C4503 1.524 . S
C4505 C4502 1.403 . S
C4505 C4506 1.392 . S
C4505 C4509 1.495 . S
C4506 C4505 1.392 . S
C4506 C4507 1.385 1_554 S
C4506 C4508 1.478 . S
C4507 H4501 0.930 . S
C4507 C4503 1.400 . S
C4507 C4506 1.385 1_556 S
C4508 C4506 1.478 . S
C4508 C4510 1.381 . S
C4508 C4514 1.383 . S
C4509 C4505 1.495 . S
C4509 H4515 0.959 . S
C4509 H4516 0.961 . S
C4509 H4517 0.960 . S
C4510 C4508 1.381 . S
C4510 C4511 1.394 . S
C4510 H4518 0.930 . S
C4511 C4510 1.394 . S
C4511 C4512 1.383 . S
C4511 H4519 0.929 . S
C4512 C4511 1.383 . S
C4512 C4513 1.377 . S
C4513 H4497 0.930 . S
C4513 C4512 1.377 . S
C4513 C4514 1.379 . S
C4514 H4498 0.931 . S
C4514 C4508 1.383 . S
C4514 C4513 1.379 . S
H4515 C4509 0.959 . S
H4516 C4509 0.961 . S
H4517 C4509 0.960 . S
H4518 C4510 0.930 . S
H4519 C4511 0.929 . S
H4520 C4528 0.929 . S
H4521 C4530 0.930 . S
H4522 C4532 0.930 . S
H4523 C4535 0.929 . S
H4524 C4538 0.930 . S
H4525 C4540 0.960 . S
H4526 C4540 0.960 . S
H4527 C4540 0.960 . S
C4528 H4520 0.929 . S
C4528 C4529 1.377 . S
C4528 C4530 1.384 . S
C4529 C4528 1.377 . S
C4529 C4535 1.390 . S
C4530 H4521 0.930 . S
C4530 C4528 1.384 . S
C4530 C4531 1.372 . S
C4531 C4530 1.372 . S
C4531 C4532 1.400 . S
C4531 C4536 1.490 . S
C4532 H4522 0.930 . S
C4532 C4531 1.400 . S
C4532 C4535 1.386 . S
H4533 C4549 0.930 . S
H4534 C4550 0.931 . S
C4535 H4523 0.929 . S
C4535 C4529 1.390 . S
C4535 C4532 1.386 . S
C4536 C4531 1.490 . S
C4536 C4538 1.395 . S
C4536 C4539 1.403 . S
H4537 C4543 0.930 . S
C4538 H4524 0.930 . S
C4538 C4536 1.395 . S
C4538 C4541 1.403 . S
C4539 C4536 1.403 . S
C4539 C4540 1.524 . S
C4539 C4543 1.400 . S
C4540 H4525 0.960 . S
C4540 H4526 0.960 . S
C4540 H4527 0.960 . S
C4540 C4539 1.524 . S
C4541 C4538 1.403 . S
C4541 C4542 1.392 . S
C4541 C4545 1.495 . S
C4542 C4541 1.392 . S
C4542 C4543 1.385 . S
C4542 C4544 1.478 . S
C4543 H4537 0.930 . S
C4543 C4539 1.400 . S
C4543 C4542 1.385 . S
C4544 C4542 1.478 . S
C4544 C4546 1.381 . S
C4544 C4550 1.383 . S
C4545 C4541 1.495 . S
C4545 H4551 0.959 . S
C4545 H4552 0.961 . S
C4545 H4553 0.960 . S
C4546 C4544 1.381 . S
C4546 C4547 1.394 . S
C4546 H4554 0.930 . S
C4547 C4546 1.394 . S
C4547 C4548 1.383 . S
C4547 H4555 0.929 . S
C4548 C4547 1.383 . S
C4548 C4549 1.377 . S
C4549 H4533 0.930 . S
C4549 C4548 1.377 . S
C4549 C4550 1.379 . S
C4550 H4534 0.931 . S
C4550 C4544 1.383 . S
C4550 C4549 1.379 . S
H4551 C4545 0.959 . S
H4552 C4545 0.961 . S
H4553 C4545 0.960 . S
H4554 C4546 0.930 . S
H4555 C4547 0.929 . S
H4556 C4564 0.929 . S
H4557 C4566 0.930 . S
H4558 C4568 0.930 . S
H4559 C4571 0.929 . S
H4560 C4574 0.930 . S
H4561 C4576 0.960 . S
H4562 C4576 0.960 . S
H4563 C4576 0.960 . S
C4564 H4556 0.929 . S
C4564 C4565 1.377 . S
C4564 C4566 1.384 . S
C4565 C4564 1.377 . S
C4565 C4571 1.390 . S
C4566 H4557 0.930 . S
C4566 C4564 1.384 . S
C4566 C4567 1.372 . S
C4567 C4566 1.372 . S
C4567 C4568 1.400 . S
C4567 C4572 1.490 . S
C4568 H4558 0.930 . S
C4568 C4567 1.400 . S
C4568 C4571 1.386 . S
H4569 C4585 0.930 . S
H4570 C4586 0.931 . S
C4571 H4559 0.929 . S
C4571 C4565 1.390 . S
C4571 C4568 1.386 . S
C4572 C4567 1.490 . S
C4572 C4574 1.395 . S
C4572 C4575 1.403 . S
H4573 C4579 0.930 . S
C4574 H4560 0.930 . S
C4574 C4572 1.395 . S
C4574 C4577 1.403 . S
C4575 C4572 1.403 . S
C4575 C4576 1.524 . S
C4575 C4579 1.400 . S
C4576 H4561 0.960 . S
C4576 H4562 0.960 . S
C4576 H4563 0.960 . S
C4576 C4575 1.524 . S
C4577 C4574 1.403 . S
C4577 C4578 1.392 . S
C4577 C4581 1.495 . S
C4578 C4577 1.392 . S
C4578 C4579 1.385 . S
C4578 C4580 1.478 . S
C4579 H4573 0.930 . S
C4579 C4575 1.400 . S
C4579 C4578 1.385 . S
C4580 C4578 1.478 . S
C4580 C4582 1.381 . S
C4580 C4586 1.383 . S
C4581 C4577 1.495 . S
C4581 H4587 0.959 . S
C4581 H4588 0.961 . S
C4581 H4589 0.960 . S
C4582 C4580 1.381 . S
C4582 C4583 1.394 . S
C4582 H4590 0.930 . S
C4583 C4582 1.394 . S
C4583 C4584 1.383 . S
C4583 H4591 0.929 . S
C4584 C4583 1.383 . S
C4584 C4585 1.377 . S
C4585 H4569 0.930 . S
C4585 C4584 1.377 . S
C4585 C4586 1.379 . S
C4586 H4570 0.931 . S
C4586 C4580 1.383 . S
C4586 C4585 1.379 . S
H4587 C4581 0.959 . S
H4588 C4581 0.961 . S
H4589 C4581 0.960 . S
H4590 C4582 0.930 . S
H4591 C4583 0.929 . S
H4592 C4600 0.929 . S
H4593 C4602 0.930 . S
H4594 C4604 0.930 . S
H4595 C4607 0.929 . S
H4596 C4610 0.930 . S
H4597 C4612 0.960 . S
H4598 C4612 0.960 . S
H4599 C4612 0.960 . S
C4600 H4592 0.929 . S
C4600 C4601 1.377 . S
C4600 C4602 1.384 . S
C4601 C4600 1.377 . S
C4601 C4607 1.390 . S
C4602 H4593 0.930 . S
C4602 C4600 1.384 . S
C4602 C4603 1.372 . S
C4603 C4602 1.372 . S
C4603 C4604 1.400 . S
C4603 C4608 1.490 . S
C4604 H4594 0.930 . S
C4604 C4603 1.400 . S
C4604 C4607 1.386 . S
H4605 C4621 0.930 . S
H4606 C4622 0.931 . S
C4607 H4595 0.929 . S
C4607 C4601 1.390 . S
C4607 C4604 1.386 . S
C4608 C4603 1.490 . S
C4608 C4610 1.395 . S
C4608 C4611 1.403 . S
H4609 C4615 0.930 . S
C4610 H4596 0.930 . S
C4610 C4608 1.395 . S
C4610 C4613 1.403 . S
C4611 C4608 1.403 . S
C4611 C4612 1.524 . S
C4611 C4615 1.400 . S
C4612 H4597 0.960 . S
C4612 H4598 0.960 . S
C4612 H4599 0.960 . S
C4612 C4611 1.524 . S
C4613 C4610 1.403 . S
C4613 C4614 1.392 . S
C4613 C4617 1.495 . S
C4614 C4613 1.392 . S
C4614 C4615 1.385 . S
C4614 C4616 1.478 . S
C4615 H4609 0.930 . S
C4615 C4611 1.400 . S
C4615 C4614 1.385 . S
C4616 C4614 1.478 . S
C4616 C4618 1.381 . S
C4616 C4622 1.383 . S
C4617 C4613 1.495 . S
C4617 H4623 0.959 . S
C4617 H4624 0.961 . S
C4617 H4625 0.960 . S
C4618 C4616 1.381 . S
C4618 C4619 1.394 . S
C4618 H4626 0.930 . S
C4619 C4618 1.394 . S
C4619 C4620 1.383 . S
C4619 H4627 0.929 . S
C4620 C4619 1.383 . S
C4620 C4621 1.377 . S
C4621 H4605 0.930 . S
C4621 C4620 1.377 . S
C4621 C4622 1.379 . S
C4622 H4606 0.931 . S
C4622 C4616 1.383 . S
C4622 C4621 1.379 . S
H4623 C4617 0.959 . S
H4624 C4617 0.961 . S
H4625 C4617 0.960 . S
H4626 C4618 0.930 . S
H4627 C4619 0.929 . S
H4628 C4636 0.929 . S
H4629 C4638 0.930 . S
H4630 C4640 0.930 . S
H4631 C4643 0.929 . S
H4632 C4646 0.930 . S
H4633 C4648 0.960 . S
H4634 C4648 0.960 . S
H4635 C4648 0.960 . S
C4636 H4628 0.929 . S
C4636 C4637 1.377 . S
C4636 C4638 1.384 . S
C4637 C4636 1.377 . S
C4637 C4643 1.390 . S
C4638 H4629 0.930 . S
C4638 C4636 1.384 . S
C4638 C4639 1.372 . S
C4639 C4638 1.372 . S
C4639 C4640 1.400 . S
C4639 C4644 1.490 . S
C4640 H4630 0.930 . S
C4640 C4639 1.400 . S
C4640 C4643 1.386 . S
H4641 C4657 0.930 . S
H4642 C4658 0.931 . S
C4643 H4631 0.929 . S
C4643 C4637 1.390 . S
C4643 C4640 1.386 . S
C4644 C4639 1.490 . S
C4644 C4646 1.395 . S
C4644 C4647 1.403 1_556 S
H4645 C4651 0.930 . S
C4646 H4632 0.930 . S
C4646 C4644 1.395 . S
C4646 C4649 1.403 . S
C4647 C4644 1.403 1_554 S
C4647 C4648 1.524 . S
C4647 C4651 1.400 . S
C4648 H4633 0.960 . S
C4648 H4634 0.960 . S
C4648 H4635 0.960 . S
C4648 C4647 1.524 . S
C4649 C4646 1.403 . S
C4649 C4650 1.392 1_556 S
C4649 C4653 1.495 . S
C4650 C4649 1.392 1_554 S
C4650 C4651 1.385 . S
C4650 C4652 1.478 . S
C4651 H4645 0.930 . S
C4651 C4647 1.400 . S
C4651 C4650 1.385 . S
C4652 C4650 1.478 . S
C4652 C4654 1.381 . S
C4652 C4658 1.383 . S
C4653 C4649 1.495 . S
C4653 H4659 0.959 . S
C4653 H4660 0.961 . S
C4653 H4661 0.960 . S
C4654 C4652 1.381 . S
C4654 C4655 1.394 . S
C4654 H4662 0.930 . S
C4655 C4654 1.394 . S
C4655 C4656 1.383 . S
C4655 H4663 0.929 . S
C4656 C4655 1.383 . S
C4656 C4657 1.377 . S
C4657 H4641 0.930 . S
C4657 C4656 1.377 . S
C4657 C4658 1.379 . S
C4658 H4642 0.931 . S
C4658 C4652 1.383 . S
C4658 C4657 1.379 . S
H4659 C4653 0.959 . S
H4660 C4653 0.961 . S
H4661 C4653 0.960 . S
H4662 C4654 0.930 . S
H4663 C4655 0.929 . S
H4664 C4672 0.929 . S
H4665 C4674 0.930 . S
H4666 C4676 0.930 . S
H4667 C4679 0.929 . S
H4668 C4682 0.930 . S
H4669 C4684 0.960 . S
H4670 C4684 0.960 . S
H4671 C4684 0.960 . S
C4672 H4664 0.929 . S
C4672 C4673 1.377 . S
C4672 C4674 1.384 . S
C4673 C4672 1.377 . S
C4673 C4679 1.390 . S
C4674 H4665 0.930 . S
C4674 C4672 1.384 . S
C4674 C4675 1.372 . S
C4675 C4674 1.372 . S
C4675 C4676 1.400 . S
C4675 C4680 1.490 . S
C4676 H4666 0.930 . S
C4676 C4675 1.400 . S
C4676 C4679 1.386 . S
H4677 C4693 0.930 . S
H4678 C4694 0.931 . S
C4679 H4667 0.929 . S
C4679 C4673 1.390 . S
C4679 C4676 1.386 . S
C4680 C4675 1.490 . S
C4680 C4682 1.395 . S
C4680 C4683 1.403 . S
H4681 C4687 0.930 . S
C4682 H4668 0.930 . S
C4682 C4680 1.395 . S
C4682 C4685 1.403 . S
C4683 C4680 1.403 . S
C4683 C4684 1.524 . S
C4683 C4687 1.400 . S
C4684 H4669 0.960 . S
C4684 H4670 0.960 . S
C4684 H4671 0.960 . S
C4684 C4683 1.524 . S
C4685 C4682 1.403 . S
C4685 C4686 1.392 . S
C4685 C4689 1.495 . S
C4686 C4685 1.392 . S
C4686 C4687 1.385 . S
C4686 C4688 1.478 . S
C4687 H4681 0.930 . S
C4687 C4683 1.400 . S
C4687 C4686 1.385 . S
C4688 C4686 1.478 . S
C4688 C4690 1.381 . S
C4688 C4694 1.383 . S
C4689 C4685 1.495 . S
C4689 H4695 0.959 . S
C4689 H4696 0.961 . S
C4689 H4697 0.960 . S
C4690 C4688 1.381 . S
C4690 C4691 1.394 . S
C4690 H4698 0.930 . S
C4691 C4690 1.394 . S
C4691 C4692 1.383 . S
C4691 H4699 0.929 . S
C4692 C4691 1.383 . S
C4692 C4693 1.377 . S
C4693 H4677 0.930 . S
C4693 C4692 1.377 . S
C4693 C4694 1.379 . S
C4694 H4678 0.931 . S
C4694 C4688 1.383 . S
C4694 C4693 1.379 . S
H4695 C4689 0.959 . S
H4696 C4689 0.961 . S
H4697 C4689 0.960 . S
H4698 C4690 0.930 . S
H4699 C4691 0.929 . S
H4700 C4708 0.929 . S
H4701 C4710 0.930 . S
H4702 C4712 0.930 . S
H4703 C4715 0.929 . S
H4704 C4718 0.930 . S
H4705 C4720 0.960 . S
H4706 C4720 0.960 . S
H4707 C4720 0.960 . S
C4708 H4700 0.929 . S
C4708 C4709 1.377 . S
C4708 C4710 1.384 . S
C4709 C4708 1.377 . S
C4709 C4715 1.390 . S
C4710 H4701 0.930 . S
C4710 C4708 1.384 . S
C4710 C4711 1.372 . S
C4711 C4710 1.372 . S
C4711 C4712 1.400 . S
C4711 C4716 1.490 . S
C4712 H4702 0.930 . S
C4712 C4711 1.400 . S
C4712 C4715 1.386 . S
H4713 C4729 0.930 . S
H4714 C4730 0.931 . S
C4715 H4703 0.929 . S
C4715 C4709 1.390 . S
C4715 C4712 1.386 . S
C4716 C4711 1.490 . S
C4716 C4718 1.395 . S
C4716 C4719 1.403 . S
H4717 C4723 0.930 . S
C4718 H4704 0.930 . S
C4718 C4716 1.395 . S
C4718 C4721 1.403 . S
C4719 C4716 1.403 . S
C4719 C4720 1.524 . S
C4719 C4723 1.400 . S
C4720 H4705 0.960 . S
C4720 H4706 0.960 . S
C4720 H4707 0.960 . S
C4720 C4719 1.524 . S
C4721 C4718 1.403 . S
C4721 C4722 1.392 . S
C4721 C4725 1.495 . S
C4722 C4721 1.392 . S
C4722 C4723 1.385 . S
C4722 C4724 1.478 . S
C4723 H4717 0.930 . S
C4723 C4719 1.400 . S
C4723 C4722 1.385 . S
C4724 C4722 1.478 . S
C4724 C4726 1.381 . S
C4724 C4730 1.383 . S
C4725 C4721 1.495 . S
C4725 H4731 0.959 . S
C4725 H4732 0.961 . S
C4725 H4733 0.960 . S
C4726 C4724 1.381 . S
C4726 C4727 1.394 . S
C4726 H4734 0.930 . S
C4727 C4726 1.394 . S
C4727 C4728 1.383 . S
C4727 H4735 0.929 . S
C4728 C4727 1.383 . S
C4728 C4729 1.377 . S
C4729 H4713 0.930 . S
C4729 C4728 1.377 . S
C4729 C4730 1.379 . S
C4730 H4714 0.931 . S
C4730 C4724 1.383 . S
C4730 C4729 1.379 . S
H4731 C4725 0.959 . S
H4732 C4725 0.961 . S
H4733 C4725 0.960 . S
H4734 C4726 0.930 . S
H4735 C4727 0.929 . S
C1289 C6 0.384 . S
C1308 C1099 0.563 . S
C1325 C46 0.401 . S
C1344 C339 0.565 . S
C1361 C86 0.389 . S
C1380 C1019 0.418 . S
C1397 C419 0.466 . S
C1416 C126 0.368 . S
C1433 C166 0.403 . S
C1452 C1179 0.558 . S
C1469 C579 0.466 . S
C1488 C206 0.393 . S
C1505 C1259 0.490 . S
C1524 C246 0.478 . S
C1541 C286 0.395 . S
C1560 C499 0.575 . S
C1577 C335 0.385 . S
C1596 C770 0.555 . S
C1613 C375 0.405 . S
C1632 C10 0.536 . S
C1649 C690 0.498 . S
C1668 C415 0.475 . S
C1685 C90 0.502 . S
C1704 C455 0.441 . S
C1721 C495 0.377 . S
C1740 C850 0.405 . S
C1757 C535 0.403 . S
C1776 C250 0.506 . S
C1793 C575 0.385 . S
C1812 C930 0.416 . S
C1829 C170 0.502 . S
C1848 C615 0.454 . S
C1865 C459 0.502 . S
C1884 C646 0.431 . S
C1901 C979 0.474 . S
C1920 C686 0.313 . S
C1937 C379 0.482 . S
C1956 C726 0.469 . S
C1973 C766 0.401 . S
C1992 C1059 0.469 . S
C2009 C539 0.482 . S
C2028 C806 0.315 . S
C2045 C1219 0.469 . S
C2064 C846 0.327 . S
C2081 C619 0.485 . S
C2100 C886 0.474 . S
C2117 C926 0.371 . S
C2136 C1139 0.503 . S
C2153 C975 0.372 . S
C2172 C130 0.413 . S
C2189 C1015 0.403 . S
C2208 C650 0.567 . S
C2225 C1055 0.375 . S
C2244 C50 0.407 . S
C2261 C1095 0.405 . S
C2280 C730 0.550 . S
C2297 C210 0.487 . S
C2316 C1135 0.471 . S
C2333 C890 0.471 . S
C2352 C1175 0.313 . S
C2369 C1215 0.393 . S
C2388 C290 0.571 . S
C2405 C1255 0.400 . S
C2424 C810 0.477 . S
C2441 C18 2.321 . S
C2460 C738 2.332 . S
C2477 C778 2.315 . S
C2496 C58 2.318 . S
C2513 C98 2.313 . S
C2532 C658 2.291 . S
C2549 C138 2.319 . S
C2568 C698 2.332 . S
C2585 C898 2.315 . S
C2604 C178 2.292 . S
C2621 C218 2.314 . S
C2640 C938 2.292 . S
C2657 C818 2.318 . S
C2676 C258 2.300 . S
C2693 C298 2.313 . S
C2712 C858 2.305 . S
C2729 C1049 2.315 . S
C2748 C329 2.291 . S
C2765 C369 2.320 . S
C2784 C1089 2.298 . S
C2801 C409 2.317 . S
C2820 C969 2.334 . S
C2837 C449 2.322 . S
C2856 C1009 2.318 . S
C2873 C1209 2.317 . S
C2892 C489 2.333 . S
C2909 C1249 2.317 . S
C2928 C529 2.334 . S
C2945 C569 2.315 . S
C2964 C1129 2.292 . S
C2981 C609 2.314 . S
C3000 C1169 2.327 . S
C3017 C19 3.113 . S
C3036 C970 3.103 . S
C3053 C370 3.118 . S
C3072 C59 3.122 . S
C3089 C99 3.115 . S
C3108 C1050 3.121 . S
C3125 C139 3.114 . S
C3144 C450 3.110 . S
C3161 C1130 3.119 . S
C3180 C179 3.117 . S
C3197 C530 3.113 . S
C3216 C219 3.106 . S
C3233 C259 3.116 . S
C3252 C1210 3.123 . S
C3269 C299 3.114 . S
C3288 C610 3.116 . S
C3305 C659 3.116 . S
C3324 C330 3.100 . S
C3341 C739 3.116 . S
C3360 C410 3.101 . S
C3377 C819 3.115 . S
C3396 C490 3.118 . S
C3413 C570 3.113 . S
C3432 C899 3.111 . S
C3449 C699 3.113 . S
C3468 C1010 3.104 . S
C3485 C779 3.119 . S
C3504 C1090 3.111 . S
C3521 C1170 3.113 . S
C3540 C859 3.106 . S
C3557 C1250 3.118 . S
C3576 C939 3.103 . S
C3593 C9 4.648 . S
C3612 C209 4.636 1_545 S
C3629 C249 4.646 . S
C3648 C49 4.651 1_545 S
C3665 C289 4.644 1_565 S
C3684 C89 4.645 . S
C3701 C169 4.643 . S
C3720 C129 4.636 1_565 S
C3737 C338 4.648 . S
C3756 C538 4.649 1_565 S
C3773 C378 4.646 1_565 S
C3792 C578 4.649 . S
C3809 C618 4.646 1_545 S
C3828 C418 4.632 . S
C3845 C458 4.646 1_545 S
C3864 C498 4.649 . S
C3881 C649 4.646 . S
C3900 C849 4.651 . S
C3917 C689 4.647 . S
C3936 C889 4.634 . S
C3953 C729 4.647 . S
C3972 C929 4.633 . S
C3989 C809 4.647 . S
C4008 C769 4.648 . S
C4025 C978 4.648 . S
C4044 C1178 4.648 . S
C4061 C1018 4.644 . S
C4080 C1218 4.636 . S
C4097 C1258 4.644 . S
C4116 C1058 4.630 . S
C4133 C1098 4.646 . S
C4152 C1138 4.649 . S
C4169 C15 0.840 . S
C4188 C175 0.830 . S
C4205 C55 0.836 . S
C4224 C215 0.816 . S
C4241 C255 0.848 . S
C4260 C95 0.871 . S
C4277 C295 0.840 . S
C4296 C135 0.830 . S
C4313 C326 0.845 . S
C4332 C486 0.810 . S
C4349 C526 0.840 . S
C4368 C366 0.871 . S
C4385 C566 0.848 . S
C4404 C406 0.817 . S
C4421 C606 0.846 . S
C4440 C446 0.848 . S
C4457 C655 0.840 . S
C4476 C815 0.828 . S
C4493 C855 0.836 . S
C4512 C695 0.814 . S
C4529 C735 0.840 . S
C4548 C895 0.832 . S
C4565 C935 0.843 . S
C4584 C775 0.846 . S
C4601 C1126 0.849 . S
C4620 C966 0.826 . S
C4637 C1006 0.837 . S
C4656 C1166 0.871 . S
C4673 C1046 0.838 . S
C4692 C1206 0.871 . S
C4709 C1086 0.838 . S
C4728 C1246 0.834 . S
