# Generated by pormake.
# Topology mon, (4)-cn, num edge types: 1
# Building blocks:
#     Node 0, Type 0, BuildingBlock: AZAVOO_clean_sbu_0, # of connection points: 4
#     Node 1, Type 0, BuildingBlock: AZAVOO_clean_sbu_0, # of connection points: 4
#     Node 2, Type 0, BuildingBlock: AZAVOO_clean_sbu_0, # of connection points: 4
#     Node 3, Type 0, BuildingBlock: AZAVOO_clean_sbu_0, # of connection points: 4
#     Node 4, Type 0, BuildingBlock: AZAVOO_clean_sbu_0, # of connection points: 4
#     Node 5, Type 0, BuildingBlock: AZAVOO_clean_sbu_0, # of connection points: 4
#     Node 6, Type 0, BuildingBlock: AZAVOO_clean_sbu_0, # of connection points: 4
#     Node 7, Type 0, BuildingBlock: AZAVOO_clean_sbu_0, # of connection points: 4
#     Node 8, Type 0, BuildingBlock: AZAVOO_clean_sbu_0, # of connection points: 4
#     Node 9, Type 0, BuildingBlock: AZAVOO_clean_sbu_0, # of connection points: 4
#     Node 10, Type 0, BuildingBlock: AZAVOO_clean_sbu_0, # of connection points: 4
#     Node 11, Type 0, BuildingBlock: AZAVOO_clean_sbu_0, # of connection points: 4
#     Node 12, Type 0, BuildingBlock: AZAVOO_clean_sbu_0, # of connection points: 4
#     Node 13, Type 0, BuildingBlock: AZAVOO_clean_sbu_0, # of connection points: 4
#     Node 14, Type 0, BuildingBlock: AZAVOO_clean_sbu_0, # of connection points: 4
#     Node 15, Type 0, BuildingBlock: AZAVOO_clean_sbu_0, # of connection points: 4
#     Edge 16, Type (0, 0), BuildingBlock: XIVTED_clean_linker_0, # of connection points: 2
#     Edge 17, Type (0, 0), BuildingBlock: XIVTED_clean_linker_0, # of connection points: 2
#     Edge 18, Type (0, 0), BuildingBlock: XIVTED_clean_linker_0, # of connection points: 2
#     Edge 19, Type (0, 0), BuildingBlock: XIVTED_clean_linker_0, # of connection points: 2
#     Edge 20, Type (0, 0), BuildingBlock: XIVTED_clean_linker_0, # of connection points: 2
#     Edge 21, Type (0, 0), BuildingBlock: XIVTED_clean_linker_0, # of connection points: 2
#     Edge 22, Type (0, 0), BuildingBlock: XIVTED_clean_linker_0, # of connection points: 2
#     Edge 23, Type (0, 0), BuildingBlock: XIVTED_clean_linker_0, # of connection points: 2
#     Edge 24, Type (0, 0), BuildingBlock: XIVTED_clean_linker_0, # of connection points: 2
#     Edge 25, Type (0, 0), BuildingBlock: XIVTED_clean_linker_0, # of connection points: 2
#     Edge 26, Type (0, 0), BuildingBlock: XIVTED_clean_linker_0, # of connection points: 2
#     Edge 27, Type (0, 0), BuildingBlock: XIVTED_clean_linker_0, # of connection points: 2
#     Edge 28, Type (0, 0), BuildingBlock: XIVTED_clean_linker_0, # of connection points: 2
#     Edge 29, Type (0, 0), BuildingBlock: XIVTED_clean_linker_0, # of connection points: 2
#     Edge 30, Type (0, 0), BuildingBlock: XIVTED_clean_linker_0, # of connection points: 2
#     Edge 31, Type (0, 0), BuildingBlock: XIVTED_clean_linker_0, # of connection points: 2
#     Edge 32, Type (0, 0), BuildingBlock: XIVTED_clean_linker_0, # of connection points: 2
#     Edge 33, Type (0, 0), BuildingBlock: XIVTED_clean_linker_0, # of connection points: 2
#     Edge 34, Type (0, 0), BuildingBlock: XIVTED_clean_linker_0, # of connection points: 2
#     Edge 35, Type (0, 0), BuildingBlock: XIVTED_clean_linker_0, # of connection points: 2
#     Edge 36, Type (0, 0), BuildingBlock: XIVTED_clean_linker_0, # of connection points: 2
#     Edge 37, Type (0, 0), BuildingBlock: XIVTED_clean_linker_0, # of connection points: 2
#     Edge 38, Type (0, 0), BuildingBlock: XIVTED_clean_linker_0, # of connection points: 2
#     Edge 39, Type (0, 0), BuildingBlock: XIVTED_clean_linker_0, # of connection points: 2
#     Edge 40, Type (0, 0), BuildingBlock: XIVTED_clean_linker_0, # of connection points: 2
#     Edge 41, Type (0, 0), BuildingBlock: XIVTED_clean_linker_0, # of connection points: 2
#     Edge 42, Type (0, 0), BuildingBlock: XIVTED_clean_linker_0, # of connection points: 2
#     Edge 43, Type (0, 0), BuildingBlock: XIVTED_clean_linker_0, # of connection points: 2
#     Edge 44, Type (0, 0), BuildingBlock: XIVTED_clean_linker_0, # of connection points: 2
#     Edge 45, Type (0, 0), BuildingBlock: XIVTED_clean_linker_0, # of connection points: 2
#     Edge 46, Type (0, 0), BuildingBlock: XIVTED_clean_linker_0, # of connection points: 2
#     Edge 47, Type (0, 0), BuildingBlock: XIVTED_clean_linker_0, # of connection points: 2
# Relax obj value: 0.178
# Max RMSD: 0.148
# Mean RMSD: 0.148
data_MOF--net-mon--node1-AZAVOO_clean_sbu_0--edge1-XIVTED_clean_linker_0
_symmetry_space_group_name_H-M    P1
_symmetry_Int_Tables_number       1
_symmetry_cell_setting            triclinic
loop_
_symmetry_equiv_pos_as_xyz
'x, y, z'
_cell_length_a     35.757155
_cell_length_b     35.875524
_cell_length_c     84.253985
_cell_angle_alpha  90.162172
_cell_angle_beta   89.789012
_cell_angle_gamma 89.935329
loop_
_atom_site_label
_atom_site_type_symbol
_atom_site_fract_x
_atom_site_fract_y
_atom_site_fract_z
_atom_type_partial_charge
Mg0 Mg 0.01736 0.0026 0.57546 0.0
O1 O 0.06862 -0.02397 0.58777 0.0
O2 O 0.11941 0.00496 0.57852 0.0
Mg3 Mg 0.10154 0.0483 0.56007 0.0
C4 C 0.10408 -0.01954 0.58737 0.0
C5 C 0.95145 0.95432 0.58575 0.0
O6 O 0.94953 0.95571 0.5702 0.0
O7 O 0.02072 0.05729 0.59012 0.0
O8 O 0.07057 0.0839 0.57871 0.0
O9 O 0.02322 0.96176 0.55549 0.0
O10 O 0.04958 0.01727 0.55553 0.0
C11 C 0.0432 0.08487 0.58852 0.0
C12 C 0.04403 -0.01395 0.54838 0.0
O13 O -0.02277 -0.02735 0.59268 0.0
Mg14 Mg 0.23534 0.71761 0.82571 0.0
O15 O 0.26188 0.76983 0.83741 0.0
O16 O 0.23163 0.81947 0.82797 0.0
Mg17 Mg 0.18804 0.80021 0.80984 0.0
C18 C 0.25675 0.80509 0.83677 0.0
C19 C 0.26049 0.64412 0.8424 0.0
O20 O 0.23302 0.63187 0.83349 0.0
O21 O 0.18071 0.72137 0.84065 0.0
O22 O 0.15328 0.77008 0.82888 0.0
O23 O 0.27527 0.72204 0.80527 0.0
O24 O 0.21962 0.74845 0.8057 0.0
C25 C 0.15276 0.74345 0.83892 0.0
C26 C 0.2505 0.74244 0.79825 0.0
O27 O 0.26686 0.67902 0.8429 0.0
Mg28 Mg 0.51604 0.93175 0.07431 0.0
O29 O 0.46418 0.95835 0.08652 0.0
O30 O 0.41403 0.92891 0.07698 0.0
Mg31 Mg 0.43254 0.88578 0.05842 0.0
C32 C 0.42876 0.95354 0.08595 0.0
C33 C 0.5823 -0.0208 0.08459 0.0
O34 O 0.58471 -0.02328 0.06906 0.0
O35 O 0.51211 0.87692 0.08884 0.0
O36 O 0.46284 0.85024 0.07709 0.0
O37 O 0.51114 -0.02757 0.0543 0.0
O38 O 0.48442 0.91716 0.05427 0.0
C39 C 0.48976 0.84929 0.08703 0.0
C40 C 0.4904 0.94822 0.04711 0.0
O41 O 0.55593 0.9618 0.0916 0.0
Mg42 Mg 0.29931 0.21449 0.32472 0.0
O43 O 0.27337 0.1629 0.33707 0.0
O44 O 0.30341 0.11289 0.32765 0.0
Mg45 Mg 0.34658 0.13135 0.30909 0.0
C46 C 0.27854 0.12763 0.33659 0.0
C47 C 0.24959 0.27946 0.335 0.0
O48 O 0.25053 0.2808 0.31943 0.0
O49 O 0.3543 0.21174 0.33925 0.0
O50 O 0.38171 0.16244 0.32772 0.0
O51 O 0.25852 0.20822 0.30478 0.0
O52 O 0.31459 0.18268 0.30473 0.0
C53 C 0.38227 0.18964 0.33756 0.0
C54 C 0.28326 0.18786 0.29761 0.0
O55 O 0.26865 0.25432 0.34197 0.0
Mg56 Mg 0.01617 0.93185 0.40603 0.0
O57 O 0.06753 0.9583 0.39355 0.0
O58 O 0.11822 0.92936 0.40281 0.0
Mg59 Mg 0.10033 0.88605 0.42129 0.0
C60 C 0.103 0.95383 0.39394 0.0
C61 C 0.95014 -0.01979 0.39608 0.0
O62 O 0.94849 -0.02134 0.41164 0.0
O63 O 0.01959 0.87696 0.39141 0.0
O64 O 0.06958 0.85051 0.40269 0.0
O65 O 0.022 -0.02722 0.42597 0.0
O66 O 0.04838 0.91724 0.42588 0.0
C67 C 0.04223 0.84945 0.39296 0.0
C68 C 0.04285 0.9485 0.43303 0.0
O69 O -0.02416 0.96191 0.38897 0.0
Mg70 Mg 0.29948 0.71754 0.65499 0.0
O71 O 0.27359 0.76975 0.64316 0.0
O72 O 0.30279 0.81932 0.6533 0.0
Mg73 Mg 0.34539 0.79986 0.67179 0.0
C74 C 0.27841 0.80501 0.64408 0.0
C75 C 0.25274 0.65176 0.64392 0.0
O76 O 0.25554 0.64831 0.65939 0.0
O77 O 0.35483 0.72161 0.64067 0.0
O78 O 0.38144 0.77025 0.65289 0.0
O79 O 0.2578 0.72211 0.67473 0.0
O80 O 0.31361 0.7481 0.67541 0.0
C81 C 0.38255 0.74375 0.64272 0.0
C82 C 0.28195 0.74225 0.68226 0.0
O83 O 0.26976 0.67872 0.63722 0.0
Mg84 Mg 0.51947 0.0026 0.9047 0.0
O85 O 0.4681 -0.02386 0.89235 0.0
O86 O 0.41738 0.00443 0.90216 0.0
Mg87 Mg 0.4354 0.04736 0.92085 0.0
C88 C 0.43261 -0.01968 0.89302 0.0
C89 C 0.58587 0.9556 0.89408 0.0
O90 O 0.58808 0.95763 0.90962 0.0
O91 O 0.51542 0.05777 0.8905 0.0
O92 O 0.46558 0.0837 0.9023 0.0
O93 O 0.51432 0.96086 0.92419 0.0
O94 O 0.48758 0.01625 0.92495 0.0
C95 C 0.49272 0.08514 0.89239 0.0
C96 C 0.49341 -0.0154 0.93166 0.0
O97 O 0.55962 -0.02671 0.88718 0.0
Mg98 Mg 0.23099 0.21565 0.15513 0.0
O99 O 0.25797 0.16442 0.14275 0.0
O100 O 0.229 0.11391 0.15211 0.0
Mg101 Mg 0.18526 0.13178 0.17059 0.0
C102 C 0.25361 0.12906 0.14321 0.0
C103 C 0.27867 0.28194 0.14496 0.0
O104 O 0.27639 0.28416 0.16051 0.0
O105 O 0.17613 0.21191 0.14054 0.0
O106 O 0.14968 0.16214 0.15194 0.0
O107 O 0.27179 0.21018 0.1751 0.0
O108 O 0.21623 0.18368 0.17505 0.0
C109 C 0.14862 0.18929 0.14215 0.0
C110 C 0.24744 0.18937 0.18219 0.0
O111 O 0.26112 0.25574 0.13796 0.0
Mg112 Mg 0.80169 0.21826 0.15437 0.0
O113 O 0.77398 0.26943 0.1424 0.0
O114 O 0.79849 0.32033 0.15362 0.0
Mg115 Mg 0.84396 0.30268 0.17121 0.0
C116 C 0.77578 0.30483 0.144 0.0
C117 C 0.75578 0.15149 0.14368 0.0
O118 O 0.75855 0.1487 0.15918 0.0
O119 O 0.85652 0.22462 0.13991 0.0
O120 O 0.88069 0.27476 0.15196 0.0
O121 O 0.76062 0.22122 0.17459 0.0
O122 O 0.81531 0.24931 0.17476 0.0
C123 C 0.88307 0.24821 0.14183 0.0
C124 C 0.78444 0.24204 0.18197 0.0
O125 O 0.77265 0.17829 0.1368 0.0
Mg126 Mg 0.73035 0.7157 0.65501 0.0
O127 O 0.75641 0.66377 0.64284 0.0
O128 O 0.73137 0.61366 0.65444 0.0
Mg129 Mg 0.68677 0.63276 0.67234 0.0
C130 C 0.754 0.62846 0.64456 0.0
C131 C 0.7764 0.78163 0.6438 0.0
O132 O 0.77375 0.78499 0.6593 0.0
O133 O 0.67518 0.71025 0.64099 0.0
O134 O 0.6502 0.6608 0.6532 0.0
O135 O 0.77244 0.71196 0.67458 0.0
O136 O 0.71695 0.68543 0.67561 0.0
C137 C 0.64824 0.68718 0.64305 0.0
C138 C 0.74859 0.6918 0.68229 0.0
O139 O 0.75941 0.75465 0.6371 0.0
Mg140 Mg 0.73027 0.21697 0.32564 0.0
O141 O 0.75658 0.26928 0.33737 0.0
O142 O 0.73173 0.31891 0.32537 0.0
Mg143 Mg 0.68715 0.29942 0.3077 0.0
C144 C 0.75429 0.30451 0.33533 0.0
C145 C 0.77546 0.1508 0.33696 0.0
O146 O 0.77197 0.14697 0.32152 0.0
O147 O 0.67487 0.22332 0.33968 0.0
O148 O 0.65026 0.2723 0.32704 0.0
O149 O 0.77248 0.2196 0.30595 0.0
O150 O 0.71713 0.24646 0.30481 0.0
C151 C 0.648 0.24639 0.33741 0.0
C152 C 0.74879 0.23961 0.29813 0.0
O153 O 0.7592 0.17832 0.34368 0.0
Mg154 Mg 0.80602 0.71388 0.82544 0.0
O155 O 0.77901 0.66246 0.8375 0.0
O156 O 0.80328 0.61188 0.82582 0.0
Mg157 Mg 0.8483 0.63011 0.808 0.0
C158 C 0.78083 0.62711 0.83572 0.0
C159 C 0.76081 0.78063 0.83658 0.0
O160 O 0.76377 0.78374 0.82109 0.0
O161 O 0.86113 0.70754 0.83948 0.0
O162 O 0.8853 0.65758 0.82719 0.0
O163 O 0.76394 0.71083 0.80585 0.0
O164 O 0.81901 0.68333 0.80476 0.0
C165 C 0.88771 0.68398 0.83739 0.0
C166 C 0.78748 0.69027 0.79809 0.0
O167 O 0.77738 0.75349 0.84333 0.0
Mg168 Mg 0.51655 0.50269 0.07488 0.0
O169 O 0.56791 0.47527 0.08687 0.0
O170 O 0.61897 0.5001 0.0758 0.0
Mg171 Mg 0.60115 0.54544 0.05821 0.0
C172 C 0.60344 0.47728 0.08536 0.0
C173 C 0.4502 0.45578 0.08555 0.0
O174 O 0.44767 0.45805 0.07003 0.0
O175 O 0.52248 0.55728 0.08941 0.0
O176 O 0.57266 0.58183 0.07741 0.0
O177 O 0.51996 0.46196 0.05461 0.0
O178 O 0.54777 0.51664 0.05454 0.0
C179 C 0.54592 0.58397 0.08751 0.0
C180 C 0.54072 0.48591 0.04728 0.0
O181 O 0.4766 0.47333 0.09243 0.0
Mg182 Mg 0.01335 0.43042 0.57504 0.0
O183 O 0.96152 0.45704 0.58714 0.0
O184 O 0.91091 0.4318 0.57595 0.0
Mg185 Mg 0.92965 0.38652 0.55834 0.0
C186 C 0.92605 0.45471 0.58559 0.0
C187 C 0.0787 0.47838 0.5858 0.0
O188 O 0.08118 0.47672 0.57025 0.0
O189 O 0.00792 0.376 0.58951 0.0
O190 O 0.95806 0.35079 0.57763 0.0
O191 O 0.00935 0.47138 0.55506 0.0
O192 O -0.01736 0.41609 0.55466 0.0
C193 C -0.01531 0.34913 0.58771 0.0
C194 C -0.01096 0.44721 0.54763 0.0
O195 O 0.05266 0.46014 0.59264 0.0
Mg196 Mg 0.51684 0.43302 0.90344 0.0
O197 O 0.56964 0.45901 0.89194 0.0
O198 O 0.61939 0.4344 0.90401 0.0
Mg199 Mg 0.59921 0.39019 0.9217 0.0
C200 C 0.60498 0.45678 0.89399 0.0
C201 C 0.44408 0.45966 0.88706 0.0
O202 O 0.43122 0.43668 0.8979 0.0
O203 O 0.5235 0.37774 0.88947 0.0
O204 O 0.57238 0.35331 0.90233 0.0
O205 O 0.51879 0.47501 0.92313 0.0
O206 O 0.54584 0.41988 0.92437 0.0
C207 C 0.54661 0.35099 0.89187 0.0
C208 C 0.53873 0.45141 0.93103 0.0
O209 O 0.47932 0.46237 0.88517 0.0
Mg210 Mg 0.01196 0.50334 0.40433 0.0
O211 O 0.95997 0.47649 0.39258 0.0
O212 O 0.90958 0.50123 0.40434 0.0
Mg213 Mg 0.92838 0.54631 0.42194 0.0
C214 C 0.92454 0.47855 0.39449 0.0
C215 C 0.07838 0.45744 0.39296 0.0
O216 O 0.08219 0.46068 0.4084 0.0
O217 O 0.00575 0.55826 0.39019 0.0
O218 O 0.95601 0.58274 0.40264 0.0
O219 O 0.00897 0.46194 0.42422 0.0
O220 O -0.01828 0.517 0.42501 0.0
C221 C -0.01765 0.58493 0.39236 0.0
C222 C -0.0114 0.4858 0.43188 0.0
O223 O 0.05103 0.47407 0.38635 0.0
H224 H -0.02506 0.11195 0.59847 0.0
H225 H 0.0508 0.32185 0.59969 0.0
H226 H 0.09137 0.14218 0.59482 0.0
H227 H 0.93536 0.29176 0.59234 0.0
H228 H 0.06495 0.25649 0.60559 0.0
H229 H 0.95956 0.17741 0.60392 0.0
C230 C -0.00259 0.13209 0.59929 0.0
C231 C 0.03447 0.12154 0.59598 0.0
C232 C 0.03638 0.26435 0.603 0.0
C233 C 0.01699 0.19665 0.60202 0.0
C234 C 0.0282 0.30177 0.59975 0.0
C235 C -0.0081 0.31235 0.59528 0.0
C236 C 0.00804 0.23729 0.60187 0.0
C237 C 0.96385 0.28488 0.59551 0.0
C238 C -0.01144 0.16956 0.60225 0.0
C239 C 0.06235 0.14906 0.5971 0.0
N240 N -0.02742 0.24865 0.59852 0.0
N241 N 0.05301 0.18531 0.59982 0.0
H242 H 0.94423 0.63348 0.84176 0.0
H243 H 0.09672 0.79219 0.84653 0.0
H244 H 0.91686 0.74934 0.84926 0.0
H245 H 0.12422 0.67518 0.84747 0.0
H246 H 0.03131 0.77673 0.85168 0.0
H247 H 0.00953 0.64718 0.84782 0.0
C248 C 0.95178 0.66171 0.84502 0.0
C249 C 0.92491 0.69036 0.84482 0.0
C250 C 0.05167 0.7544 0.85112 0.0
C251 C 0.0002 0.70645 0.85149 0.0
C252 C 0.08915 0.76324 0.84824 0.0
C253 C 0.11606 0.73493 0.84644 0.0
C254 C 0.04066 0.71688 0.85192 0.0
C255 C 0.10453 0.69793 0.84879 0.0
C256 C -0.0108 0.66953 0.84846 0.0
C257 C 0.93648 0.72633 0.84924 0.0
N258 N 0.06761 0.68994 0.85107 0.0
N259 N -0.02669 0.73347 0.85208 0.0
H260 H 0.47956 0.61246 0.099 0.0
H261 H 0.55753 0.82171 0.09712 0.0
H262 H 0.59563 0.64103 0.09209 0.0
H263 H 0.44095 0.79246 0.09322 0.0
H264 H 0.57212 0.75622 0.10276 0.0
H265 H 0.4658 0.67825 0.1044 0.0
C266 C 0.50236 0.63231 0.09907 0.0
C267 C 0.53876 0.62113 0.09488 0.0
C268 C 0.54325 0.76431 0.10099 0.0
C269 C 0.52308 0.69671 0.10087 0.0
C270 C 0.53486 0.8018 0.09791 0.0
C271 C 0.49799 0.81263 0.09451 0.0
C272 C 0.51456 0.73747 0.10077 0.0
C273 C 0.46984 0.78537 0.09559 0.0
C274 C 0.49442 0.66999 0.10202 0.0
C275 C 0.56707 0.64835 0.09507 0.0
N276 N 0.47873 0.74911 0.09843 0.0
N277 N 0.55858 0.68482 0.09778 0.0
H278 H 0.61977 0.18128 0.34983 0.0
H279 H 0.40937 0.25794 0.34702 0.0
H280 H 0.59033 0.29605 0.34112 0.0
H281 H 0.43947 0.14164 0.34431 0.0
H282 H 0.47496 0.27317 0.35251 0.0
H283 H 0.55385 0.16783 0.35547 0.0
C284 C 0.5997 0.2039 0.34954 0.0
C285 C 0.61067 0.23977 0.34478 0.0
C286 C 0.46704 0.24424 0.35104 0.0
C287 C 0.53496 0.22444 0.35106 0.0
C288 C 0.42949 0.23549 0.34806 0.0
C289 C 0.41889 0.19847 0.34502 0.0
C290 C 0.49414 0.21575 0.35111 0.0
C291 C 0.4464 0.17061 0.34639 0.0
C292 C 0.56195 0.19612 0.35263 0.0
C293 C 0.58317 0.26786 0.34454 0.0
N294 N 0.48271 0.17983 0.34914 0.0
N295 N 0.54664 0.25953 0.34741 0.0
H296 H 0.09137 0.79347 0.3857 0.0
H297 H 0.93186 0.64124 0.3877 0.0
H298 H -0.02597 0.82092 0.38398 0.0
H299 H 0.0485 0.61428 0.3812 0.0
H300 H 0.94595 0.70661 0.38233 0.0
H301 H 0.07612 0.72847 0.38001 0.0
C302 C 0.0624 0.78599 0.38375 0.0
C303 C 0.03392 0.81276 0.38546 0.0
C304 C -0.0316 0.68637 0.38174 0.0
C305 C 0.0161 0.73781 0.37931 0.0
C306 C 0.96035 0.64891 0.38477 0.0
C307 C -0.01092 0.62212 0.38507 0.0
C308 C 0.00561 0.69747 0.37924 0.0
C309 C 0.02542 0.63384 0.38112 0.0
C310 C 0.05369 0.74874 0.38054 0.0
C311 C -0.00308 0.80133 0.38276 0.0
N312 N 0.03275 0.67069 0.37869 0.0
N313 N -0.01097 0.76464 0.38014 0.0
H314 H 0.4101 0.67634 0.63224 0.0
H315 H 0.62039 0.75301 0.63122 0.0
H316 H 0.43989 0.79231 0.63694 0.0
H317 H 0.59076 0.63782 0.63865 0.0
H318 H 0.55468 0.76687 0.62548 0.0
H319 H 0.4759 0.66156 0.62673 0.0
C320 C 0.43021 0.69885 0.63164 0.0
C321 C 0.41945 0.73558 0.63525 0.0
C322 C 0.56272 0.73842 0.62806 0.0
C323 C 0.49491 0.71879 0.62914 0.0
C324 C 0.60034 0.73041 0.63121 0.0
C325 C 0.61115 0.69426 0.63564 0.0
C326 C 0.53571 0.71005 0.62923 0.0
C327 C 0.5837 0.6662 0.6355 0.0
C328 C 0.46787 0.69034 0.62864 0.0
C329 C 0.44694 0.76353 0.63442 0.0
N330 N 0.54728 0.67474 0.63256 0.0
N331 N 0.48336 0.75452 0.63165 0.0
H332 H 0.48111 0.32212 0.87999 0.0
H333 H 0.56034 0.11314 0.88224 0.0
H334 H 0.59686 0.294 0.8879 0.0
H335 H 0.44358 0.14193 0.8865 0.0
H336 H 0.57455 0.1787 0.87664 0.0
H337 H 0.46801 0.25619 0.87465 0.0
C338 C 0.504 0.30233 0.88015 0.0
C339 C 0.54008 0.31367 0.88459 0.0
C340 C 0.54573 0.1705 0.87848 0.0
C341 C 0.52517 0.23799 0.87867 0.0
C342 C 0.53755 0.13297 0.88154 0.0
C343 C 0.50074 0.12199 0.88503 0.0
C344 C 0.51688 0.19722 0.87878 0.0
C345 C 0.47243 0.14914 0.88407 0.0
C346 C 0.49643 0.26459 0.87724 0.0
C347 C 0.56853 0.28654 0.88471 0.0
N348 N 0.48111 0.18545 0.88122 0.0
N349 N 0.56041 0.25002 0.882 0.0
H350 H 0.09284 0.14008 0.13498 0.0
H351 H 0.93925 0.29866 0.1368 0.0
H352 H 0.11973 0.25712 0.13308 0.0
H353 H 0.91291 0.18218 0.13083 0.0
H354 H 0.00492 0.28475 0.13132 0.0
H355 H 0.02761 0.15502 0.12932 0.0
C356 C 0.08519 0.16892 0.13299 0.0
C357 C 0.11187 0.1974 0.13465 0.0
C358 C -0.01525 0.26228 0.13087 0.0
C359 C 0.03665 0.21488 0.12853 0.0
C360 C 0.94711 0.27023 0.13396 0.0
C361 C 0.92041 0.2415 0.13445 0.0
C362 C -0.00389 0.22519 0.12849 0.0
C363 C 0.93238 0.20525 0.13061 0.0
C364 C 0.04781 0.17746 0.1298 0.0
C365 C 0.10023 0.23423 0.1319 0.0
N366 N -0.0306 0.19804 0.12811 0.0
N367 N 0.0634 0.24195 0.1293 0.0
H368 H 0.07004 0.89683 0.45381 0.0
H369 H 0.07024 0.03795 0.52742 0.0
H370 H 0.04524 0.01415 0.44969 0.0
H371 H 0.04682 0.92043 0.53171 0.0
H372 H 0.08047 0.0293 0.49889 0.0
H373 H 0.08092 0.9056 0.48226 0.0
C374 C 0.06768 0.92459 0.45881 0.0
C375 C 0.05628 0.95476 0.4494 0.0
C376 C 0.07371 0.00535 0.50615 0.0
C377 C 0.06877 0.96488 0.48188 0.0
C378 C 0.06807 0.01018 0.52244 0.0
C379 C 0.05722 -0.0201 0.53192 0.0
C380 C 0.06898 -0.03007 0.49934 0.0
C381 C 0.05476 0.94458 0.5248 0.0
C382 C 0.0737 0.92949 0.47505 0.0
C383 C 0.05362 -0.00992 0.45653 0.0
N384 N 0.06033 0.94059 0.50891 0.0
N385 N 0.05955 -0.00587 0.47238 0.0
H386 H 0.19927 0.77632 0.77899 0.0
H387 H 0.21533 0.74393 0.6983 0.0
H388 H 0.31324 0.7366 0.77958 0.0
H389 H 0.33289 0.76723 0.70395 0.0
H390 H 0.20627 0.75382 0.72673 0.0
H391 H 0.20481 0.78685 0.75044 0.0
C392 C 0.22564 0.77024 0.77317 0.0
C393 C 0.25567 0.75497 0.78166 0.0
C394 C 0.23386 0.75791 0.72172 0.0
C395 C 0.26184 0.76609 0.7489 0.0
C396 C 0.23908 0.752 0.70547 0.0
C397 C 0.27492 0.75467 0.69876 0.0
C398 C 0.26482 0.7661 0.73136 0.0
C399 C 0.30476 0.76497 0.70863 0.0
C400 C 0.2286 0.77586 0.75682 0.0
C401 C 0.28923 0.74795 0.77348 0.0
N402 N 0.29917 0.76957 0.72449 0.0
N403 N 0.29132 0.75332 0.75752 0.0
H404 H 0.45617 0.89824 0.0273 0.0
H405 H 0.49047 0.91759 0.94697 0.0
H406 H 0.49619 0.01162 0.0292 0.0
H407 H 0.46767 0.0347 0.95369 0.0
H408 H 0.47938 0.90741 0.97521 0.0
H409 H 0.44586 0.90514 -0.00121 0.0
C410 C 0.46234 0.92476 0.02177 0.0
C411 C 0.47769 0.95422 0.03061 0.0
C412 C 0.47564 0.93517 0.97048 0.0
C413 C 0.46683 0.96195 -0.00209 0.0
C414 C 0.48225 0.94102 0.95434 0.0
C415 C 0.4801 -0.02295 0.94798 0.0
C416 C 0.46729 0.96567 0.98039 0.0
C417 C 0.46955 0.00644 0.95809 0.0
C418 C 0.45685 0.92852 0.00545 0.0
C419 C 0.4848 -0.01198 0.02281 0.0
N420 N 0.46429 0.00023 0.97387 0.0
N421 N 0.4796 -0.00913 0.00688 0.0
H422 H 0.19548 0.16201 0.20299 0.0
H423 H 0.3359 0.1623 0.27662 0.0
H424 H 0.31305 0.18743 0.19889 0.0
H425 H 0.21769 0.18474 0.28093 0.0
H426 H 0.32776 0.15229 0.24808 0.0
H427 H 0.20389 0.15116 0.23143 0.0
C428 C 0.22322 0.16453 0.20799 0.0
C429 C 0.25356 0.17608 0.19859 0.0
C430 C 0.30355 0.1588 0.25534 0.0
C431 C 0.26327 0.16361 0.23108 0.0
C432 C 0.30808 0.16431 0.27164 0.0
C433 C 0.27746 0.1748 0.28113 0.0
C434 C 0.26807 0.16331 0.24854 0.0
C435 C 0.24211 0.17706 0.27402 0.0
C436 C 0.22792 0.15852 0.22423 0.0
C437 C 0.28884 0.17894 0.20573 0.0
N438 N 0.23841 0.17163 0.25812 0.0
N439 N 0.2927 0.173 0.22158 0.0
H440 H 0.83438 0.27561 0.20194 0.0
H441 H 0.81584 0.2399 0.28234 0.0
H442 H 0.72123 0.23407 0.20021 0.0
H443 H 0.69862 0.26418 0.2761 0.0
H444 H 0.82579 0.2496 0.25395 0.0
H445 H 0.82779 0.28449 0.23058 0.0
C446 C 0.80796 0.2688 0.20754 0.0
C447 C 0.77847 0.25354 0.19868 0.0
C448 C 0.79808 0.25386 0.25883 0.0
C449 C 0.77108 0.26286 0.23153 0.0
C450 C 0.79235 0.24807 0.27505 0.0
C451 C 0.75637 0.25121 0.28159 0.0
C452 C 0.76747 0.26237 0.24905 0.0
C453 C 0.72687 0.2616 0.27156 0.0
C454 C 0.8044 0.27348 0.22393 0.0
C455 C 0.74482 0.2455 0.20659 0.0
N456 N 0.73294 0.2661 0.25573 0.0
N457 N 0.74212 0.25005 0.22259 0.0
H458 H 0.81545 0.69031 0.69807 0.0
H459 H 0.72063 0.68995 0.78231 0.0
H460 H 0.69793 0.66703 0.7042 0.0
H461 H 0.83788 0.66519 0.77604 0.0
H462 H 0.71128 0.68065 0.7538 0.0
H463 H 0.82471 0.68022 0.72652 0.0
C464 C 0.79172 0.68249 0.70535 0.0
C465 C 0.75583 0.67977 0.69878 0.0
C466 C 0.73893 0.67662 0.75871 0.0
C467 C 0.76607 0.66893 0.73135 0.0
C468 C 0.74428 0.68196 0.77498 0.0
C469 C 0.78012 0.6786 0.78154 0.0
C470 C 0.76979 0.66868 0.74889 0.0
C471 C 0.80977 0.66813 0.77148 0.0
C472 C 0.79701 0.67669 0.72158 0.0
C473 C 0.72607 0.66949 0.70877 0.0
N474 N 0.80409 0.66421 0.75562 0.0
N475 N 0.73172 0.66511 0.72461 0.0
H476 H 0.53831 0.51814 0.9469 0.0
H477 H 0.57392 0.53619 0.02736 0.0
H478 H 0.56354 0.40144 0.95304 0.0
H479 H 0.53328 0.42301 0.02895 0.0
H480 H 0.58278 0.53 -0.0013 0.0
H481 H 0.54787 0.52791 0.97532 0.0
C482 C 0.54664 0.49473 0.95418 0.0
C483 C 0.5501 0.45894 0.9476 0.0
C484 C 0.57197 0.50652 0.00532 0.0
C485 C 0.56112 0.46984 0.98016 0.0
C486 C 0.56731 0.50985 0.02173 0.0
C487 C 0.55229 0.48022 0.03055 0.0
C488 C 0.5616 0.4733 -0.00232 0.0
C489 C 0.54451 0.4467 0.0226 0.0
C490 C 0.55236 0.50036 0.9704 0.0
C491 C 0.5607 0.42954 0.95761 0.0
N492 N 0.54905 0.44422 0.00659 0.0
N493 N 0.56513 0.43551 0.97344 0.0
H494 H 0.96402 0.39538 0.52637 0.0
H495 H 0.96199 0.53679 0.45326 0.0
H496 H -0.0124 0.51284 0.53105 0.0
H497 H -0.01074 0.42007 0.44843 0.0
H498 H 0.95276 0.52768 0.48179 0.0
H499 H 0.95468 0.40411 0.49784 0.0
C500 C 0.96647 0.42315 0.52147 0.0
C501 C -0.02302 0.45341 0.53107 0.0
C502 C 0.96022 0.504 0.47442 0.0
C503 C 0.96618 0.46347 0.4985 0.0
C504 C 0.9653 0.50907 0.45813 0.0
C505 C -0.02321 0.47918 0.44848 0.0
C506 C 0.96614 0.46869 0.48107 0.0
C507 C -0.01927 0.44393 0.45546 0.0
C508 C 0.96134 0.42802 0.50518 0.0
C509 C -0.02015 0.48872 0.52406 0.0
N510 N -0.0244 0.43968 0.47137 0.0
N511 N -0.02533 0.49276 0.50817 0.0
H512 H 0.28954 0.87887 0.63743 0.0
H513 H 0.08632 0.91285 0.60081 0.0
H514 H 0.21037 0.78971 0.63029 0.0
H515 H 0.17814 -0.01044 0.59473 0.0
H516 H 0.12879 0.86955 0.61424 0.0
H517 H 0.24683 0.92162 0.62407 0.0
C518 C 0.26324 0.86819 0.633 0.0
C519 C 0.25366 0.83051 0.63498 0.0
C520 C 0.13956 0.8959 0.60998 0.0
C521 C 0.20422 0.87969 0.61982 0.0
C522 C 0.11528 0.92079 0.60241 0.0
C523 C 0.12861 0.95499 0.5966 0.0
C524 C 0.17737 0.90544 0.61196 0.0
C525 C 0.16655 0.96352 0.59895 0.0
C526 C 0.23885 0.89267 0.62536 0.0
C527 C 0.2191 0.81842 0.62895 0.0
N528 N 0.18949 0.93903 0.60646 0.0
N529 N 0.19553 0.84297 0.62175 0.0
H530 H 0.24547 0.87872 0.84402 0.0
H531 H 0.45036 0.91312 0.87898 0.0
H532 H 0.3258 0.78991 0.8497 0.0
H533 H 0.35823 -0.01079 0.88622 0.0
H534 H 0.40762 0.86985 0.86561 0.0
H535 H 0.2886 0.92142 0.8572 0.0
C536 C 0.27213 0.8681 0.84809 0.0
C537 C 0.2819 0.83053 0.84575 0.0
C538 C 0.39685 0.89607 0.87011 0.0
C539 C 0.33182 0.87968 0.86071 0.0
C540 C 0.42127 0.92094 0.87763 0.0
C541 C 0.40794 0.95495 0.88376 0.0
C542 C 0.35887 0.90543 0.86849 0.0
C543 C 0.36984 0.96333 0.88175 0.0
C544 C 0.29676 0.89256 0.85563 0.0
C545 C 0.31692 0.81853 0.85132 0.0
N546 N 0.34676 0.93885 0.87428 0.0
N547 N 0.34071 0.84306 0.85843 0.0
H548 H 0.355 0.94258 0.09337 0.0
H549 H 0.32144 0.14645 0.12949 0.0
H550 H 0.44448 0.02199 0.0993 0.0
H551 H 0.24454 0.05508 0.13603 0.0
H552 H 0.36483 0.10374 0.11597 0.0
H553 H 0.31247 -0.01441 0.10688 0.0
C554 C 0.3658 -0.031 0.09758 0.0
C555 C 0.4035 -0.02144 0.09519 0.0
C556 C 0.33842 0.09313 0.12035 0.0
C557 C 0.35454 0.02837 0.11055 0.0
C558 C 0.31349 0.11754 0.12797 0.0
C559 C 0.27919 0.10441 0.13394 0.0
C560 C 0.32883 0.05538 0.11849 0.0
C561 C 0.27064 0.06653 0.1317 0.0
C562 C 0.34144 -0.00642 0.1053 0.0
C563 C 0.41575 0.01328 0.10095 0.0
N564 N 0.29517 0.04347 0.12414 0.0
N565 N 0.3913 0.03703 0.10825 0.0
H566 H 0.0854 0.02114 0.38016 0.0
H567 H 0.29002 0.05432 0.34415 0.0
H568 H 0.17731 0.94473 0.38681 0.0
H569 H 0.20974 0.14331 0.34989 0.0
H570 H 0.24705 0.01208 0.3577 0.0
H571 H 0.12816 0.06417 0.36664 0.0
C572 C 0.11444 0.01321 0.37867 0.0
C573 C 0.1277 -0.02084 0.38466 0.0
C574 C 0.23886 0.04088 0.35607 0.0
C575 C 0.1768 0.0284 0.36921 0.0
C576 C 0.26342 0.06508 0.34832 0.0
C577 C 0.2536 0.10255 0.34587 0.0
C578 C 0.20384 0.05393 0.36127 0.0
C579 C 0.21865 0.11476 0.35158 0.0
C580 C 0.13888 0.03794 0.37104 0.0
C581 C 0.16575 -0.02937 0.38245 0.0
N582 N 0.19494 0.09047 0.3589 0.0
N583 N 0.18884 -0.00503 0.37489 0.0
H584 H 0.89745 0.02704 0.40865 0.0
H585 H 0.81812 0.09429 0.32482 0.0
H586 H 0.9415 -0.01136 0.36372 0.0
H587 H 0.78867 0.14718 0.36923 0.0
H588 H 0.85976 0.05227 0.33901 0.0
H589 H 0.85423 0.06774 0.39457 0.0
C590 C 0.89802 0.02703 0.3958 0.0
C591 C 0.92329 0.00427 0.38737 0.0
C592 C 0.84421 0.073 0.34568 0.0
C593 C 0.87352 0.05111 0.37112 0.0
C594 C 0.82025 0.09704 0.33759 0.0
C595 C 0.79976 0.12448 0.34583 0.0
C596 C 0.84774 0.07606 0.36221 0.0
C597 C 0.80388 0.12654 0.36237 0.0
C598 C 0.87331 0.05044 0.38777 0.0
C599 C 0.9226 0.00566 0.37072 0.0
N600 N 0.82737 0.10265 0.37001 0.0
N601 N 0.8981 0.02863 0.36316 0.0
H602 H 0.63654 0.0241 0.07212 0.0
H603 H 0.71171 0.09653 0.15602 0.0
H604 H 0.58918 -0.01024 0.11695 0.0
H605 H 0.74433 0.14558 0.11135 0.0
H606 H 0.67039 0.05398 0.14187 0.0
H607 H 0.67946 0.06511 0.08624 0.0
C608 C 0.63518 0.02504 0.08496 0.0
C609 C 0.60904 0.00335 0.09335 0.0
C610 C 0.68657 0.074 0.13514 0.0
C611 C 0.6585 0.05056 0.10963 0.0
C612 C 0.71034 0.09833 0.1432 0.0
C613 C 0.73163 0.12484 0.13488 0.0
C614 C 0.68404 0.07583 0.11855 0.0
C615 C 0.72848 0.12569 0.11828 0.0
C616 C 0.65973 0.04863 0.09301 0.0
C617 C 0.60876 0.00594 0.10998 0.0
N618 N 0.70517 0.10154 0.11066 0.0
N619 N 0.63312 0.02907 0.11757 0.0
H620 H 0.74917 0.78584 0.86892 0.0
H621 H 0.59312 0.94605 0.86169 0.0
H622 H 0.71714 0.83615 0.82452 0.0
H623 H 0.63939 0.90963 0.90629 0.0
H624 H 0.63666 0.90424 0.84777 0.0
H625 H 0.70737 0.82933 0.88287 0.0
C626 C 0.73349 0.80604 0.86211 0.0
C627 C 0.73676 0.80727 0.84551 0.0
C628 C 0.63733 0.90552 0.86061 0.0
C629 C 0.68863 0.85698 0.86137 0.0
C630 C 0.61244 0.92939 0.86855 0.0
C631 C 0.61253 0.93144 0.88519 0.0
C632 C 0.6623 0.8833 0.86936 0.0
C633 C 0.63826 0.90909 0.89345 0.0
C634 C 0.70962 0.83089 0.87007 0.0
C635 C 0.71564 0.83411 0.83732 0.0
N636 N 0.66191 0.88593 0.88548 0.0
N637 N 0.69245 0.8577 0.8453 0.0
H638 H 0.78774 0.78598 0.61143 0.0
H639 H 0.94389 0.946 0.61815 0.0
H640 H 0.8205 0.8371 0.65568 0.0
H641 H 0.89837 0.90761 0.57364 0.0
H642 H 0.90037 0.90472 0.63218 0.0
H643 H 0.82961 0.82883 0.59732 0.0
C644 C 0.8036 0.80623 0.61817 0.0
C645 C 0.80052 0.80787 0.63477 0.0
C646 C 0.89986 0.90543 0.61934 0.0
C647 C 0.8487 0.85686 0.61873 0.0
C648 C 0.92474 0.929 0.61133 0.0
C649 C 0.92485 0.93036 0.59468 0.0
C650 C 0.87507 0.88283 0.61065 0.0
C651 C 0.89934 0.90761 0.58647 0.0
C652 C 0.82751 0.83071 0.61012 0.0
C653 C 0.82185 0.83474 0.64288 0.0
N654 N 0.87565 0.88476 0.59452 0.0
N655 N 0.84505 0.85799 0.63481 0.0
H656 H 0.7516 0.29689 0.11326 0.0
H657 H 0.59467 0.45215 0.11591 0.0
H658 H 0.73991 0.36725 0.15456 0.0
H659 H 0.66682 0.44248 0.07498 0.0
H660 H 0.63617 0.40914 0.13035 0.0
H661 H 0.70866 0.33848 0.09882 0.0
C662 C 0.73984 0.32092 0.11929 0.0
C663 C 0.7495 0.32887 0.13507 0.0
C664 C 0.6427 0.41648 0.11819 0.0
C665 C 0.69984 0.37558 0.11885 0.0
C666 C 0.61909 0.44084 0.10996 0.0
C667 C 0.62754 0.45109 0.09429 0.0
C668 C 0.67417 0.40132 0.11049 0.0
C669 C 0.65954 0.4356 0.08711 0.0
C670 C 0.71553 0.34459 0.11106 0.0
C671 C 0.73347 0.36038 0.14235 0.0
N672 N 0.68149 0.41118 0.0952 0.0
N673 N 0.70912 0.38239 0.13425 0.0
H674 H 0.78868 0.36692 0.32417 0.0
H675 H 0.86168 0.44424 0.4055 0.0
H676 H 0.77874 0.29912 0.36615 0.0
H677 H 0.93148 0.45297 0.36383 0.0
H678 H 0.82129 0.40015 0.39125 0.0
H679 H 0.83181 0.40829 0.33844 0.0
C680 C 0.79542 0.36088 0.33643 0.0
C681 C 0.78007 0.3296 0.34402 0.0
C682 C 0.84548 0.41175 0.38527 0.0
C683 C 0.82871 0.37714 0.36041 0.0
C684 C 0.86835 0.43705 0.39331 0.0
C685 C 0.89992 0.45233 0.3858 0.0
C686 C 0.85351 0.40257 0.36944 0.0
C687 C 0.90747 0.44176 0.37005 0.0
C688 C 0.82016 0.38432 0.34449 0.0
C689 C 0.79003 0.32288 0.35987 0.0
N690 N 0.88411 0.41791 0.36229 0.0
N691 N 0.81332 0.34679 0.36763 0.0
H692 H 0.93402 0.47975 0.6162 0.0
H693 H 0.77811 0.63554 0.61373 0.0
H694 H 0.86269 0.48913 0.57525 0.0
H695 H 0.78864 0.56547 0.65497 0.0
H696 H 0.82063 0.59329 0.59918 0.0
H697 H 0.89217 0.52273 0.63069 0.0
C698 C 0.90969 0.49098 0.61026 0.0
C699 C 0.90158 0.48069 0.59457 0.0
C700 C 0.81356 0.58736 0.61143 0.0
C701 C 0.85456 0.53041 0.61082 0.0
C702 C 0.78949 0.6114 0.61972 0.0
C703 C 0.77966 0.60377 0.63552 0.0
C704 C 0.82886 0.55632 0.61919 0.0
C705 C 0.79521 0.57211 0.64275 0.0
C706 C 0.88587 0.51532 0.61852 0.0
C707 C 0.86969 0.49606 0.5874 0.0
N708 N 0.81936 0.54976 0.6346 0.0
N709 N 0.84754 0.52048 0.59551 0.0
H710 H 0.75593 0.63504 0.86643 0.0
H711 H 0.59878 0.48066 0.86318 0.0
H712 H 0.74581 0.56432 0.8252 0.0
H713 H 0.66804 0.49115 0.90474 0.0
H714 H 0.64159 0.52275 0.84888 0.0
H715 H 0.71255 0.59362 0.8808 0.0
C716 C 0.74448 0.61093 0.86041 0.0
C717 C 0.75467 0.60288 0.84467 0.0
C718 C 0.64723 0.51577 0.86115 0.0
C719 C 0.7045 0.55635 0.86079 0.0
C720 C 0.62286 0.49194 0.86929 0.0
C721 C 0.63009 0.48221 0.88511 0.0
C722 C 0.67823 0.53095 0.86905 0.0
C723 C 0.6617 0.49764 0.8925 0.0
C724 C 0.71991 0.58736 0.8686 0.0
C725 C 0.73899 0.57128 0.83739 0.0
N726 N 0.6844 0.52156 0.88447 0.0
N727 N 0.71436 0.54939 0.84544 0.0
H728 H 0.46008 0.52597 0.87222 0.0
H729 H 0.24834 0.57029 0.84857 0.0
H730 H 0.36826 0.45307 0.88399 0.0
H731 H 0.33218 0.65606 0.85297 0.0
H732 H 0.29322 0.52475 0.85874 0.0
H733 H 0.41518 0.57138 0.86173 0.0
C734 C 0.43056 0.51927 0.8724 0.0
C735 C 0.41794 0.48561 0.879 0.0
C736 C 0.30174 0.55357 0.85757 0.0
C737 C 0.36644 0.53753 0.86708 0.0
C738 C 0.27611 0.57962 0.85178 0.0
C739 C 0.28642 0.61713 0.84996 0.0
C740 C 0.33826 0.56487 0.86132 0.0
C741 C 0.32289 0.62752 0.85428 0.0
C742 C 0.40494 0.54535 0.86655 0.0
C743 C 0.37928 0.47865 0.87905 0.0
N744 N 0.34758 0.6015 0.85963 0.0
N745 N 0.35496 0.50429 0.87317 0.0
H746 H 0.08609 0.48648 0.61823 0.0
H747 H 0.24075 0.64801 0.61162 0.0
H748 H 0.13117 0.52585 0.57374 0.0
H749 H 0.20923 0.59575 0.65576 0.0
H750 H 0.19896 0.60513 0.59752 0.0
H751 H 0.12924 0.52807 0.6323 0.0
C752 C 0.10505 0.50377 0.61142 0.0
C753 C 0.10496 0.50257 0.59477 0.0
C754 C 0.20131 0.60301 0.61029 0.0
C755 C 0.15428 0.55043 0.61078 0.0
C756 C 0.22517 0.62751 0.61834 0.0
C757 C 0.22859 0.62555 0.63491 0.0
C758 C 0.18049 0.5765 0.61887 0.0
C759 C 0.2076 0.59836 0.64299 0.0
C760 C 0.12972 0.52749 0.61946 0.0
C761 C 0.13022 0.52568 0.58658 0.0
N762 N 0.18443 0.57508 0.63492 0.0
N763 N 0.15368 0.54867 0.59465 0.0
H764 H 0.08082 0.44358 0.36072 0.0
H765 H 0.24317 0.28941 0.3674 0.0
H766 H 0.13528 0.41487 0.40466 0.0
H767 H 0.20089 0.33057 0.32284 0.0
H768 H 0.20222 0.33361 0.38139 0.0
H769 H 0.12312 0.40082 0.34663 0.0
C770 C 0.1017 0.42844 0.3674 0.0
C771 C 0.10442 0.43291 0.38391 0.0
C772 C 0.202 0.333 0.36854 0.0
C773 C 0.15279 0.38367 0.36789 0.0
C774 C 0.22536 0.30771 0.36056 0.0
C775 C 0.22557 0.30622 0.34391 0.0
C776 C 0.17845 0.35679 0.35984 0.0
C777 C 0.20182 0.33069 0.33568 0.0
C778 C 0.12586 0.404 0.35936 0.0
C779 C 0.13206 0.41243 0.39193 0.0
N780 N 0.17922 0.3548 0.3437 0.0
N781 N 0.15498 0.38869 0.38388 0.0
H782 H 0.39628 0.41035 0.07326 0.0
H783 H 0.32312 0.33658 0.15735 0.0
H784 H 0.44365 0.44535 0.11793 0.0
H785 H 0.28945 0.28849 0.11262 0.0
H786 H 0.364 0.37955 0.14315 0.0
H787 H 0.35395 0.36893 0.0875 0.0
C788 C 0.39775 0.40949 0.0861 0.0
C789 C 0.42372 0.43149 0.0944 0.0
C790 C 0.34769 0.35965 0.13642 0.0
C791 C 0.37495 0.38376 0.11083 0.0
C792 C 0.32419 0.33507 0.14451 0.0
C793 C 0.30272 0.30872 0.13618 0.0
C794 C 0.34978 0.3582 0.1198 0.0
C795 C 0.30545 0.30824 0.11955 0.0
C796 C 0.37354 0.38565 0.09421 0.0
C797 C 0.42418 0.42895 0.11102 0.0
N798 N 0.32851 0.33261 0.11192 0.0
N799 N 0.40015 0.40556 0.11868 0.0
loop_
_geom_bond_atom_site_label_1
_geom_bond_atom_site_label_2
_geom_bond_distance
_geom_bond_site_symmetry_2
_ccdc_geom_bond_type
Mg0 O1 2.028 . S
Mg0 O7 1.986 . S
Mg0 O9 2.111 1_545 S
Mg0 O10 2.251 . S
Mg0 O13 2.010 . S
O1 Mg0 2.028 . S
O1 C4 1.250 . S
O2 Mg3 2.028 . S
O2 C4 1.248 . S
Mg3 O2 2.028 . S
Mg3 O8 2.032 . S
Mg3 O10 2.079 . S
C4 O1 1.250 . S
C4 O2 1.248 . S
C5 O6 1.264 . S
C5 O13 1.249 1_665 S
O6 C5 1.264 . S
O7 Mg0 1.986 . S
O7 C11 1.246 . S
O8 Mg3 2.032 . S
O8 C11 1.259 . S
O9 Mg0 2.111 1_565 S
O9 C12 1.250 1_565 S
O10 Mg0 2.251 . S
O10 Mg3 2.079 . S
O10 C12 1.273 . S
C11 O7 1.246 . S
C11 O8 1.259 . S
C12 O9 1.250 1_545 S
C12 O10 1.273 . S
O13 Mg0 2.010 . S
O13 C5 1.249 1_445 S
Mg14 O15 2.028 . S
Mg14 O21 1.986 . S
Mg14 O23 2.114 . S
Mg14 O24 2.251 . S
Mg14 O27 2.010 . S
O15 Mg14 2.028 . S
O15 C18 1.250 . S
O16 Mg17 2.028 . S
O16 C18 1.248 . S
Mg17 O16 2.028 . S
Mg17 O22 2.032 . S
Mg17 O24 2.079 . S
C18 O15 1.250 . S
C18 O16 1.248 . S
C19 O20 1.264 . S
C19 O27 1.249 . S
O20 C19 1.264 . S
O21 Mg14 1.986 . S
O21 C25 1.246 . S
O22 Mg17 2.032 . S
O22 C25 1.259 . S
O23 Mg14 2.114 . S
O23 C26 1.252 . S
O24 Mg14 2.251 . S
O24 Mg17 2.079 . S
O24 C26 1.273 . S
C25 O21 1.246 . S
C25 O22 1.259 . S
C26 O23 1.252 . S
C26 O24 1.273 . S
O27 Mg14 2.010 . S
O27 C19 1.249 . S
Mg28 O29 2.028 . S
Mg28 O35 1.986 . S
Mg28 O37 2.111 1_565 S
Mg28 O38 2.251 . S
Mg28 O41 2.010 . S
O29 Mg28 2.028 . S
O29 C32 1.250 . S
O30 Mg31 2.028 . S
O30 C32 1.248 . S
Mg31 O30 2.028 . S
Mg31 O36 2.032 . S
Mg31 O38 2.079 . S
C32 O29 1.250 . S
C32 O30 1.248 . S
C33 O34 1.264 . S
C33 O41 1.249 1_545 S
O34 C33 1.264 . S
O35 Mg28 1.986 . S
O35 C39 1.246 . S
O36 Mg31 2.032 . S
O36 C39 1.259 . S
O37 Mg28 2.111 1_545 S
O37 C40 1.250 1_545 S
O38 Mg28 2.251 . S
O38 Mg31 2.079 . S
O38 C40 1.273 . S
C39 O35 1.246 . S
C39 O36 1.259 . S
C40 O37 1.250 1_565 S
C40 O38 1.273 . S
O41 Mg28 2.010 . S
O41 C33 1.249 1_565 S
Mg42 O43 2.028 . S
Mg42 O49 1.986 . S
Mg42 O51 2.114 . S
Mg42 O52 2.251 . S
Mg42 O55 2.010 . S
O43 Mg42 2.028 . S
O43 C46 1.250 . S
O44 Mg45 2.028 . S
O44 C46 1.248 . S
Mg45 O44 2.028 . S
Mg45 O50 2.032 . S
Mg45 O52 2.079 . S
C46 O43 1.250 . S
C46 O44 1.248 . S
C47 O48 1.264 . S
C47 O55 1.249 . S
O48 C47 1.264 . S
O49 Mg42 1.986 . S
O49 C53 1.246 . S
O50 Mg45 2.032 . S
O50 C53 1.259 . S
O51 Mg42 2.114 . S
O51 C54 1.252 . S
O52 Mg42 2.251 . S
O52 Mg45 2.079 . S
O52 C54 1.273 . S
C53 O49 1.246 . S
C53 O50 1.259 . S
C54 O51 1.252 . S
C54 O52 1.273 . S
O55 Mg42 2.010 . S
O55 C47 1.249 . S
Mg56 O57 2.028 . S
Mg56 O63 1.986 . S
Mg56 O65 2.111 1_565 S
Mg56 O66 2.251 . S
Mg56 O69 2.010 . S
O57 Mg56 2.028 . S
O57 C60 1.250 . S
O58 Mg59 2.028 . S
O58 C60 1.248 . S
Mg59 O58 2.028 . S
Mg59 O64 2.032 . S
Mg59 O66 2.079 . S
C60 O57 1.250 . S
C60 O58 1.248 . S
C61 O62 1.264 . S
C61 O69 1.249 1_645 S
O62 C61 1.264 . S
O63 Mg56 1.986 . S
O63 C67 1.246 . S
O64 Mg59 2.032 . S
O64 C67 1.259 . S
O65 Mg56 2.111 1_545 S
O65 C68 1.250 1_545 S
O66 Mg56 2.251 . S
O66 Mg59 2.079 . S
O66 C68 1.273 . S
C67 O63 1.246 . S
C67 O64 1.259 . S
C68 O65 1.250 1_565 S
C68 O66 1.273 . S
O69 Mg56 2.010 . S
O69 C61 1.249 1_465 S
Mg70 O71 2.028 . S
Mg70 O77 1.986 . S
Mg70 O79 2.114 . S
Mg70 O80 2.251 . S
Mg70 O83 2.010 . S
O71 Mg70 2.028 . S
O71 C74 1.250 . S
O72 Mg73 2.028 . S
O72 C74 1.248 . S
Mg73 O72 2.028 . S
Mg73 O78 2.032 . S
Mg73 O80 2.079 . S
C74 O71 1.250 . S
C74 O72 1.248 . S
C75 O76 1.264 . S
C75 O83 1.249 . S
O76 C75 1.264 . S
O77 Mg70 1.986 . S
O77 C81 1.246 . S
O78 Mg73 2.032 . S
O78 C81 1.259 . S
O79 Mg70 2.114 . S
O79 C82 1.252 . S
O80 Mg70 2.251 . S
O80 Mg73 2.079 . S
O80 C82 1.273 . S
C81 O77 1.246 . S
C81 O78 1.259 . S
C82 O79 1.252 . S
C82 O80 1.273 . S
O83 Mg70 2.010 . S
O83 C75 1.249 . S
Mg84 O85 2.028 . S
Mg84 O91 1.986 . S
Mg84 O93 2.111 1_545 S
Mg84 O94 2.251 . S
Mg84 O97 2.010 . S
O85 Mg84 2.028 . S
O85 C88 1.250 . S
O86 Mg87 2.028 . S
O86 C88 1.248 . S
Mg87 O86 2.028 . S
Mg87 O92 2.032 . S
Mg87 O94 2.079 . S
C88 O85 1.250 . S
C88 O86 1.248 . S
C89 O90 1.264 . S
C89 O97 1.249 1_565 S
O90 C89 1.264 . S
O91 Mg84 1.986 . S
O91 C95 1.246 . S
O92 Mg87 2.032 . S
O92 C95 1.259 . S
O93 Mg84 2.111 1_565 S
O93 C96 1.250 1_565 S
O94 Mg84 2.251 . S
O94 Mg87 2.079 . S
O94 C96 1.273 . S
C95 O91 1.246 . S
C95 O92 1.259 . S
C96 O93 1.250 1_545 S
C96 O94 1.273 . S
O97 Mg84 2.010 . S
O97 C89 1.249 1_545 S
Mg98 O99 2.028 . S
Mg98 O105 1.986 . S
Mg98 O107 2.114 . S
Mg98 O108 2.251 . S
Mg98 O111 2.010 . S
O99 Mg98 2.028 . S
O99 C102 1.250 . S
O100 Mg101 2.028 . S
O100 C102 1.248 . S
Mg101 O100 2.028 . S
Mg101 O106 2.032 . S
Mg101 O108 2.079 . S
C102 O99 1.250 . S
C102 O100 1.248 . S
C103 O104 1.264 . S
C103 O111 1.249 . S
O104 C103 1.264 . S
O105 Mg98 1.986 . S
O105 C109 1.246 . S
O106 Mg101 2.032 . S
O106 C109 1.259 . S
O107 Mg98 2.114 . S
O107 C110 1.252 . S
O108 Mg98 2.251 . S
O108 Mg101 2.079 . S
O108 C110 1.273 . S
C109 O105 1.246 . S
C109 O106 1.259 . S
C110 O107 1.252 . S
C110 O108 1.273 . S
O111 Mg98 2.010 . S
O111 C103 1.249 . S
Mg112 O113 2.028 . S
Mg112 O119 1.986 . S
Mg112 O121 2.114 . S
Mg112 O122 2.251 . S
Mg112 O125 2.010 . S
O113 Mg112 2.028 . S
O113 C116 1.250 . S
O114 Mg115 2.028 . S
O114 C116 1.248 . S
Mg115 O114 2.028 . S
Mg115 O120 2.032 . S
Mg115 O122 2.079 . S
C116 O113 1.250 . S
C116 O114 1.248 . S
C117 O118 1.264 . S
C117 O125 1.249 . S
O118 C117 1.264 . S
O119 Mg112 1.986 . S
O119 C123 1.246 . S
O120 Mg115 2.032 . S
O120 C123 1.259 . S
O121 Mg112 2.114 . S
O121 C124 1.252 . S
O122 Mg112 2.251 . S
O122 Mg115 2.079 . S
O122 C124 1.273 . S
C123 O119 1.246 . S
C123 O120 1.259 . S
C124 O121 1.252 . S
C124 O122 1.273 . S
O125 Mg112 2.010 . S
O125 C117 1.249 . S
Mg126 O127 2.028 . S
Mg126 O133 1.986 . S
Mg126 O135 2.114 . S
Mg126 O136 2.251 . S
Mg126 O139 2.010 . S
O127 Mg126 2.028 . S
O127 C130 1.250 . S
O128 Mg129 2.028 . S
O128 C130 1.248 . S
Mg129 O128 2.028 . S
Mg129 O134 2.032 . S
Mg129 O136 2.079 . S
C130 O127 1.250 . S
C130 O128 1.248 . S
C131 O132 1.264 . S
C131 O139 1.249 . S
O132 C131 1.264 . S
O133 Mg126 1.986 . S
O133 C137 1.246 . S
O134 Mg129 2.032 . S
O134 C137 1.259 . S
O135 Mg126 2.114 . S
O135 C138 1.252 . S
O136 Mg126 2.251 . S
O136 Mg129 2.079 . S
O136 C138 1.273 . S
C137 O133 1.246 . S
C137 O134 1.259 . S
C138 O135 1.252 . S
C138 O136 1.273 . S
O139 Mg126 2.010 . S
O139 C131 1.249 . S
Mg140 O141 2.028 . S
Mg140 O147 1.986 . S
Mg140 O149 2.114 . S
Mg140 O150 2.251 . S
Mg140 O153 2.010 . S
O141 Mg140 2.028 . S
O141 C144 1.250 . S
O142 Mg143 2.028 . S
O142 C144 1.248 . S
Mg143 O142 2.028 . S
Mg143 O148 2.032 . S
Mg143 O150 2.079 . S
C144 O141 1.250 . S
C144 O142 1.248 . S
C145 O146 1.264 . S
C145 O153 1.249 . S
O146 C145 1.264 . S
O147 Mg140 1.986 . S
O147 C151 1.246 . S
O148 Mg143 2.032 . S
O148 C151 1.259 . S
O149 Mg140 2.114 . S
O149 C152 1.252 . S
O150 Mg140 2.251 . S
O150 Mg143 2.079 . S
O150 C152 1.273 . S
C151 O147 1.246 . S
C151 O148 1.259 . S
C152 O149 1.252 . S
C152 O150 1.273 . S
O153 Mg140 2.010 . S
O153 C145 1.249 . S
Mg154 O155 2.028 . S
Mg154 O161 1.986 . S
Mg154 O163 2.114 . S
Mg154 O164 2.251 . S
Mg154 O167 2.010 . S
O155 Mg154 2.028 . S
O155 C158 1.250 . S
O156 Mg157 2.028 . S
O156 C158 1.248 . S
Mg157 O156 2.028 . S
Mg157 O162 2.032 . S
Mg157 O164 2.079 . S
C158 O155 1.250 . S
C158 O156 1.248 . S
C159 O160 1.264 . S
C159 O167 1.249 . S
O160 C159 1.264 . S
O161 Mg154 1.986 . S
O161 C165 1.246 . S
O162 Mg157 2.032 . S
O162 C165 1.259 . S
O163 Mg154 2.114 . S
O163 C166 1.252 . S
O164 Mg154 2.251 . S
O164 Mg157 2.079 . S
O164 C166 1.273 . S
C165 O161 1.246 . S
C165 O162 1.259 . S
C166 O163 1.252 . S
C166 O164 1.273 . S
O167 Mg154 2.010 . S
O167 C159 1.249 . S
Mg168 O169 2.028 . S
Mg168 O175 1.986 . S
Mg168 O177 2.114 . S
Mg168 O178 2.251 . S
Mg168 O181 2.010 . S
O169 Mg168 2.028 . S
O169 C172 1.250 . S
O170 Mg171 2.028 . S
O170 C172 1.248 . S
Mg171 O170 2.028 . S
Mg171 O176 2.032 . S
Mg171 O178 2.079 . S
C172 O169 1.250 . S
C172 O170 1.248 . S
C173 O174 1.264 . S
C173 O181 1.249 . S
O174 C173 1.264 . S
O175 Mg168 1.986 . S
O175 C179 1.246 . S
O176 Mg171 2.032 . S
O176 C179 1.259 . S
O177 Mg168 2.114 . S
O177 C180 1.252 . S
O178 Mg168 2.251 . S
O178 Mg171 2.079 . S
O178 C180 1.273 . S
C179 O175 1.246 . S
C179 O176 1.259 . S
C180 O177 1.252 . S
C180 O178 1.273 . S
O181 Mg168 2.010 . S
O181 C173 1.249 . S
Mg182 O183 2.049 . S
Mg182 O189 1.986 . S
Mg182 O191 2.114 . S
Mg182 O192 2.251 . S
Mg182 O195 2.010 . S
O183 Mg182 2.049 . S
O183 C186 1.222 1_455 S
O184 Mg185 2.028 . S
O184 C186 1.248 . S
Mg185 O184 2.028 . S
Mg185 O190 2.032 . S
Mg185 O192 2.079 1_655 S
C186 O183 1.222 1_655 S
C186 O184 1.248 . S
C187 O188 1.264 . S
C187 O195 1.249 . S
O188 C187 1.264 . S
O189 Mg182 1.986 . S
O189 C193 1.246 . S
O190 Mg185 2.032 . S
O190 C193 1.259 1_655 S
O191 Mg182 2.114 . S
O191 C194 1.252 . S
O192 Mg182 2.251 . S
O192 Mg185 2.079 1_455 S
O192 C194 1.273 . S
C193 O189 1.246 . S
C193 O190 1.259 1_455 S
C194 O191 1.252 . S
C194 O192 1.273 . S
O195 Mg182 2.010 . S
O195 C187 1.249 . S
Mg196 O197 2.028 . S
Mg196 O203 1.986 . S
Mg196 O205 2.114 . S
Mg196 O206 2.251 . S
Mg196 O209 2.010 . S
O197 Mg196 2.028 . S
O197 C200 1.250 . S
O198 Mg199 2.028 . S
O198 C200 1.248 . S
Mg199 O198 2.028 . S
Mg199 O204 2.032 . S
Mg199 O206 2.079 . S
C200 O197 1.250 . S
C200 O198 1.248 . S
C201 O202 1.264 . S
C201 O209 1.249 . S
O202 C201 1.264 . S
O203 Mg196 1.986 . S
O203 C207 1.246 . S
O204 Mg199 2.032 . S
O204 C207 1.259 . S
O205 Mg196 2.114 . S
O205 C208 1.252 . S
O206 Mg196 2.251 . S
O206 Mg199 2.079 . S
O206 C208 1.273 . S
C207 O203 1.246 . S
C207 O204 1.259 . S
C208 O205 1.252 . S
C208 O206 1.273 . S
O209 Mg196 2.010 . S
O209 C201 1.249 . S
Mg210 O211 2.049 . S
Mg210 O217 1.986 . S
Mg210 O219 2.114 . S
Mg210 O220 2.251 . S
Mg210 O223 2.010 . S
O211 Mg210 2.049 . S
O211 C214 1.222 1_455 S
O212 Mg213 2.028 . S
O212 C214 1.248 . S
Mg213 O212 2.028 . S
Mg213 O218 2.032 . S
Mg213 O220 2.079 1_655 S
C214 O211 1.222 1_655 S
C214 O212 1.248 . S
C215 O216 1.264 . S
C215 O223 1.249 . S
O216 C215 1.264 . S
O217 Mg210 1.986 . S
O217 C221 1.246 . S
O218 Mg213 2.032 . S
O218 C221 1.259 1_655 S
O219 Mg210 2.114 . S
O219 C222 1.252 . S
O220 Mg210 2.251 . S
O220 Mg213 2.079 1_455 S
O220 C222 1.273 . S
C221 O217 1.246 . S
C221 O218 1.259 1_455 S
C222 O219 1.252 . S
C222 O220 1.273 . S
O223 Mg210 2.010 . S
O223 C215 1.249 . S
H224 C230 0.930 . S
H225 C234 0.930 . S
H226 C239 0.929 . S
H227 C237 0.929 . S
H228 C232 0.929 . S
H229 C238 0.929 1_655 S
C230 H224 0.930 . S
C230 C231 1.367 . S
C230 C238 1.378 . S
C231 C230 1.367 . S
C231 C239 1.433 . S
C232 H228 0.929 . S
C232 C234 1.378 . S
C232 C236 1.350 . S
C233 C236 1.463 . S
C233 C238 1.350 . S
C233 N241 1.427 . S
C234 H225 0.930 . S
C234 C232 1.378 . S
C234 C235 1.367 . S
C235 C234 1.367 . S
C235 C237 1.433 1_455 S
C236 C232 1.350 . S
C236 C233 1.463 . S
C236 N240 1.427 . S
C237 H227 0.929 . S
C237 C235 1.433 1_655 S
C237 N240 1.384 1_655 S
C238 H229 0.929 1_455 S
C238 C230 1.378 . S
C238 C233 1.350 . S
C239 H226 0.929 . S
C239 C231 1.433 . S
C239 N241 1.384 . S
N240 C236 1.427 . S
N240 C237 1.384 1_455 S
N241 C233 1.427 . S
N241 C239 1.384 . S
H242 C248 0.930 . S
H243 C252 0.930 . S
H244 C257 0.929 . S
H245 C255 0.929 . S
H246 C250 0.929 . S
H247 C256 0.929 . S
C248 H242 0.930 . S
C248 C249 1.367 . S
C248 C256 1.378 1_655 S
C249 C248 1.367 . S
C249 C257 1.433 . S
C250 H246 0.929 . S
C250 C252 1.378 . S
C250 C254 1.350 . S
C251 C254 1.463 . S
C251 C256 1.350 . S
C251 N259 1.427 . S
C252 H243 0.930 . S
C252 C250 1.378 . S
C252 C253 1.367 . S
C253 C252 1.367 . S
C253 C255 1.433 . S
C254 C250 1.350 . S
C254 C251 1.463 . S
C254 N258 1.427 . S
C255 H245 0.929 . S
C255 C253 1.433 . S
C255 N258 1.384 . S
C256 H247 0.929 . S
C256 C248 1.378 1_455 S
C256 C251 1.350 . S
C257 H244 0.929 . S
C257 C249 1.433 . S
C257 N259 1.384 1_655 S
N258 C254 1.427 . S
N258 C255 1.384 . S
N259 C251 1.427 . S
N259 C257 1.384 1_455 S
H260 C266 0.930 . S
H261 C270 0.930 . S
H262 C275 0.929 . S
H263 C273 0.929 . S
H264 C268 0.929 . S
H265 C274 0.929 . S
C266 H260 0.930 . S
C266 C267 1.367 . S
C266 C274 1.378 . S
C267 C266 1.367 . S
C267 C275 1.433 . S
C268 H264 0.929 . S
C268 C270 1.378 . S
C268 C272 1.350 . S
C269 C272 1.463 . S
C269 C274 1.350 . S
C269 N277 1.427 . S
C270 H261 0.930 . S
C270 C268 1.378 . S
C270 C271 1.367 . S
C271 C270 1.367 . S
C271 C273 1.433 . S
C272 C268 1.350 . S
C272 C269 1.463 . S
C272 N276 1.427 . S
C273 H263 0.929 . S
C273 C271 1.433 . S
C273 N276 1.384 . S
C274 H265 0.929 . S
C274 C266 1.378 . S
C274 C269 1.350 . S
C275 H262 0.929 . S
C275 C267 1.433 . S
C275 N277 1.384 . S
N276 C272 1.427 . S
N276 C273 1.384 . S
N277 C269 1.427 . S
N277 C275 1.384 . S
H278 C284 0.930 . S
H279 C288 0.930 . S
H280 C293 0.929 . S
H281 C291 0.929 . S
H282 C286 0.929 . S
H283 C292 0.929 . S
C284 H278 0.930 . S
C284 C285 1.367 . S
C284 C292 1.378 . S
C285 C284 1.367 . S
C285 C293 1.433 . S
C286 H282 0.929 . S
C286 C288 1.378 . S
C286 C290 1.350 . S
C287 C290 1.463 . S
C287 C292 1.350 . S
C287 N295 1.427 . S
C288 H279 0.930 . S
C288 C286 1.378 . S
C288 C289 1.367 . S
C289 C288 1.367 . S
C289 C291 1.433 . S
C290 C286 1.350 . S
C290 C287 1.463 . S
C290 N294 1.427 . S
C291 H281 0.929 . S
C291 C289 1.433 . S
C291 N294 1.384 . S
C292 H283 0.929 . S
C292 C284 1.378 . S
C292 C287 1.350 . S
C293 H280 0.929 . S
C293 C285 1.433 . S
C293 N295 1.384 . S
N294 C290 1.427 . S
N294 C291 1.384 . S
N295 C287 1.427 . S
N295 C293 1.384 . S
H296 C302 0.930 . S
H297 C306 0.930 . S
H298 C311 0.929 . S
H299 C309 0.929 . S
H300 C304 0.929 . S
H301 C310 0.929 . S
C302 H296 0.930 . S
C302 C303 1.367 . S
C302 C310 1.378 . S
C303 C302 1.367 . S
C303 C311 1.433 . S
C304 H300 0.929 . S
C304 C306 1.378 . S
C304 C308 1.350 . S
C305 C308 1.463 . S
C305 C310 1.350 . S
C305 N313 1.427 . S
C306 H297 0.930 . S
C306 C304 1.378 . S
C306 C307 1.367 . S
C307 C306 1.367 . S
C307 C309 1.433 . S
C308 C304 1.350 . S
C308 C305 1.463 . S
C308 N312 1.427 . S
C309 H299 0.929 . S
C309 C307 1.433 . S
C309 N312 1.384 . S
C310 H301 0.929 . S
C310 C302 1.378 . S
C310 C305 1.350 . S
C311 H298 0.929 . S
C311 C303 1.433 . S
C311 N313 1.384 . S
N312 C308 1.427 . S
N312 C309 1.384 . S
N313 C305 1.427 . S
N313 C311 1.384 . S
H314 C320 0.930 . S
H315 C324 0.930 . S
H316 C329 0.929 . S
H317 C327 0.929 . S
H318 C322 0.929 . S
H319 C328 0.929 . S
C320 H314 0.930 . S
C320 C321 1.367 . S
C320 C328 1.378 . S
C321 C320 1.367 . S
C321 C329 1.433 . S
C322 H318 0.929 . S
C322 C324 1.378 . S
C322 C326 1.350 . S
C323 C326 1.463 . S
C323 C328 1.350 . S
C323 N331 1.427 . S
C324 H315 0.930 . S
C324 C322 1.378 . S
C324 C325 1.367 . S
C325 C324 1.367 . S
C325 C327 1.433 . S
C326 C322 1.350 . S
C326 C323 1.463 . S
C326 N330 1.427 . S
C327 H317 0.929 . S
C327 C325 1.433 . S
C327 N330 1.384 . S
C328 H319 0.929 . S
C328 C320 1.378 . S
C328 C323 1.350 . S
C329 H316 0.929 . S
C329 C321 1.433 . S
C329 N331 1.384 . S
N330 C326 1.427 . S
N330 C327 1.384 . S
N331 C323 1.427 . S
N331 C329 1.384 . S
H332 C338 0.930 . S
H333 C342 0.930 . S
H334 C347 0.929 . S
H335 C345 0.929 . S
H336 C340 0.929 . S
H337 C346 0.929 . S
C338 H332 0.930 . S
C338 C339 1.367 . S
C338 C346 1.378 . S
C339 C338 1.367 . S
C339 C347 1.433 . S
C340 H336 0.929 . S
C340 C342 1.378 . S
C340 C344 1.350 . S
C341 C344 1.463 . S
C341 C346 1.350 . S
C341 N349 1.427 . S
C342 H333 0.930 . S
C342 C340 1.378 . S
C342 C343 1.367 . S
C343 C342 1.367 . S
C343 C345 1.433 . S
C344 C340 1.350 . S
C344 C341 1.463 . S
C344 N348 1.427 . S
C345 H335 0.929 . S
C345 C343 1.433 . S
C345 N348 1.384 . S
C346 H337 0.929 . S
C346 C338 1.378 . S
C346 C341 1.350 . S
C347 H334 0.929 . S
C347 C339 1.433 . S
C347 N349 1.384 . S
N348 C344 1.427 . S
N348 C345 1.384 . S
N349 C341 1.427 . S
N349 C347 1.384 . S
H350 C356 0.930 . S
H351 C360 0.930 . S
H352 C365 0.929 . S
H353 C363 0.929 . S
H354 C358 0.929 . S
H355 C364 0.929 . S
C356 H350 0.930 . S
C356 C357 1.367 . S
C356 C364 1.378 . S
C357 C356 1.367 . S
C357 C365 1.433 . S
C358 H354 0.929 . S
C358 C360 1.378 1_455 S
C358 C362 1.350 . S
C359 C362 1.463 . S
C359 C364 1.350 . S
C359 N367 1.427 . S
C360 H351 0.930 . S
C360 C358 1.378 1_655 S
C360 C361 1.367 . S
C361 C360 1.367 . S
C361 C363 1.433 . S
C362 C358 1.350 . S
C362 C359 1.463 . S
C362 N366 1.427 . S
C363 H353 0.929 . S
C363 C361 1.433 . S
C363 N366 1.384 1_655 S
C364 H355 0.929 . S
C364 C356 1.378 . S
C364 C359 1.350 . S
C365 H352 0.929 . S
C365 C357 1.433 . S
C365 N367 1.384 . S
N366 C362 1.427 . S
N366 C363 1.384 1_455 S
N367 C359 1.427 . S
N367 C365 1.384 . S
H368 C374 0.930 . S
H369 C378 0.930 . S
H370 C383 0.929 . S
H371 C381 0.929 . S
H372 C376 0.929 . S
H373 C382 0.929 . S
C374 H368 0.930 . S
C374 C375 1.367 . S
C374 C382 1.378 . S
C375 C374 1.367 . S
C375 C383 1.433 1_565 S
C376 H372 0.929 . S
C376 C378 1.378 . S
C376 C380 1.350 . S
C377 C380 1.463 1_565 S
C377 C382 1.350 . S
C377 N385 1.427 1_565 S
C378 H369 0.930 . S
C378 C376 1.378 . S
C378 C379 1.367 . S
C379 C378 1.367 . S
C379 C381 1.433 1_545 S
C380 C376 1.350 . S
C380 C377 1.463 1_545 S
C380 N384 1.427 1_545 S
C381 H371 0.929 . S
C381 C379 1.433 1_565 S
C381 N384 1.384 . S
C382 H373 0.929 . S
C382 C374 1.378 . S
C382 C377 1.350 . S
C383 H370 0.929 . S
C383 C375 1.433 1_545 S
C383 N385 1.384 . S
N384 C380 1.427 1_565 S
N384 C381 1.384 . S
N385 C377 1.427 1_545 S
N385 C383 1.384 . S
H386 C392 0.930 . S
H387 C396 0.930 . S
H388 C401 0.929 . S
H389 C399 0.929 . S
H390 C394 0.929 . S
H391 C400 0.929 . S
C392 H386 0.930 . S
C392 C393 1.367 . S
C392 C400 1.378 . S
C393 C392 1.367 . S
C393 C401 1.433 . S
C394 H390 0.929 . S
C394 C396 1.378 . S
C394 C398 1.350 . S
C395 C398 1.463 . S
C395 C400 1.350 . S
C395 N403 1.427 . S
C396 H387 0.930 . S
C396 C394 1.378 . S
C396 C397 1.367 . S
C397 C396 1.367 . S
C397 C399 1.433 . S
C398 C394 1.350 . S
C398 C395 1.463 . S
C398 N402 1.427 . S
C399 H389 0.929 . S
C399 C397 1.433 . S
C399 N402 1.384 . S
C400 H391 0.929 . S
C400 C392 1.378 . S
C400 C395 1.350 . S
C401 H388 0.929 . S
C401 C393 1.433 . S
C401 N403 1.384 . S
N402 C398 1.427 . S
N402 C399 1.384 . S
N403 C395 1.427 . S
N403 C401 1.384 . S
H404 C410 0.930 . S
H405 C414 0.930 . S
H406 C419 0.927 1_545 S
H407 C417 0.927 1_565 S
H408 C412 0.929 . S
H409 C418 0.929 . S
C410 H404 0.930 . S
C410 C411 1.367 . S
C410 C418 1.378 . S
C411 C410 1.367 . S
C411 C419 1.433 . S
C412 H408 0.929 . S
C412 C414 1.378 . S
C412 C416 1.350 . S
C413 C416 1.463 1_564 S
C413 C418 1.350 . S
C413 N421 1.427 1_565 S
C414 H405 0.930 . S
C414 C412 1.378 . S
C414 C415 1.367 . S
C415 C414 1.367 . S
C415 C417 1.433 . S
C416 C412 1.350 . S
C416 C413 1.463 1_546 S
C416 N420 1.427 1_545 S
C417 H407 0.927 1_545 S
C417 C415 1.433 . S
C417 N420 1.384 1_545 S
C418 H409 0.929 . S
C418 C410 1.378 . S
C418 C413 1.350 . S
C419 H406 0.927 1_565 S
C419 C411 1.433 . S
C419 N421 1.384 1_565 S
N420 C416 1.427 1_565 S
N420 C417 1.384 1_565 S
N421 C413 1.427 1_545 S
N421 C419 1.384 1_545 S
H422 C428 0.930 . S
H423 C432 0.930 . S
H424 C437 0.929 . S
H425 C435 0.929 . S
H426 C430 0.929 . S
H427 C436 0.929 . S
C428 H422 0.930 . S
C428 C429 1.367 . S
C428 C436 1.378 . S
C429 C428 1.367 . S
C429 C437 1.433 . S
C430 H426 0.929 . S
C430 C432 1.378 . S
C430 C434 1.350 . S
C431 C434 1.463 . S
C431 C436 1.350 . S
C431 N439 1.427 . S
C432 H423 0.930 . S
C432 C430 1.378 . S
C432 C433 1.367 . S
C433 C432 1.367 . S
C433 C435 1.433 . S
C434 C430 1.350 . S
C434 C431 1.463 . S
C434 N438 1.427 . S
C435 H425 0.929 . S
C435 C433 1.433 . S
C435 N438 1.384 . S
C436 H427 0.929 . S
C436 C428 1.378 . S
C436 C431 1.350 . S
C437 H424 0.929 . S
C437 C429 1.433 . S
C437 N439 1.384 . S
N438 C434 1.427 . S
N438 C435 1.384 . S
N439 C431 1.427 . S
N439 C437 1.384 . S
H440 C446 0.930 . S
H441 C450 0.930 . S
H442 C455 0.929 . S
H443 C453 0.929 . S
H444 C448 0.929 . S
H445 C454 0.929 . S
C446 H440 0.930 . S
C446 C447 1.367 . S
C446 C454 1.378 . S
C447 C446 1.367 . S
C447 C455 1.433 . S
C448 H444 0.929 . S
C448 C450 1.378 . S
C448 C452 1.350 . S
C449 C452 1.463 . S
C449 C454 1.350 . S
C449 N457 1.427 . S
C450 H441 0.930 . S
C450 C448 1.378 . S
C450 C451 1.367 . S
C451 C450 1.367 . S
C451 C453 1.433 . S
C452 C448 1.350 . S
C452 C449 1.463 . S
C452 N456 1.427 . S
C453 H443 0.929 . S
C453 C451 1.433 . S
C453 N456 1.384 . S
C454 H445 0.929 . S
C454 C446 1.378 . S
C454 C449 1.350 . S
C455 H442 0.929 . S
C455 C447 1.433 . S
C455 N457 1.384 . S
N456 C452 1.427 . S
N456 C453 1.384 . S
N457 C449 1.427 . S
N457 C455 1.384 . S
H458 C464 0.930 . S
H459 C468 0.930 . S
H460 C473 0.929 . S
H461 C471 0.929 . S
H462 C466 0.929 . S
H463 C472 0.929 . S
C464 H458 0.930 . S
C464 C465 1.367 . S
C464 C472 1.378 . S
C465 C464 1.367 . S
C465 C473 1.433 . S
C466 H462 0.929 . S
C466 C468 1.378 . S
C466 C470 1.350 . S
C467 C470 1.463 . S
C467 C472 1.350 . S
C467 N475 1.427 . S
C468 H459 0.930 . S
C468 C466 1.378 . S
C468 C469 1.367 . S
C469 C468 1.367 . S
C469 C471 1.433 . S
C470 C466 1.350 . S
C470 C467 1.463 . S
C470 N474 1.427 . S
C471 H461 0.929 . S
C471 C469 1.433 . S
C471 N474 1.384 . S
C472 H463 0.929 . S
C472 C464 1.378 . S
C472 C467 1.350 . S
C473 H460 0.929 . S
C473 C465 1.433 . S
C473 N475 1.384 . S
N474 C470 1.427 . S
N474 C471 1.384 . S
N475 C467 1.427 . S
N475 C473 1.384 . S
H476 C482 0.930 . S
H477 C486 0.930 . S
H478 C491 0.929 . S
H479 C489 0.929 . S
H480 C484 0.929 . S
H481 C490 0.929 . S
C482 H476 0.930 . S
C482 C483 1.367 . S
C482 C490 1.378 . S
C483 C482 1.367 . S
C483 C491 1.433 . S
C484 H480 0.929 . S
C484 C486 1.378 . S
C484 C488 1.350 . S
C485 C488 1.463 1_556 S
C485 C490 1.350 . S
C485 N493 1.427 . S
C486 H477 0.930 . S
C486 C484 1.378 . S
C486 C487 1.367 . S
C487 C486 1.367 . S
C487 C489 1.433 . S
C488 C484 1.350 . S
C488 C485 1.463 1_554 S
C488 N492 1.427 . S
C489 H479 0.929 . S
C489 C487 1.433 . S
C489 N492 1.384 . S
C490 H481 0.929 . S
C490 C482 1.378 . S
C490 C485 1.350 . S
C491 H478 0.929 . S
C491 C483 1.433 . S
C491 N493 1.384 . S
N492 C488 1.427 . S
N492 C489 1.384 . S
N493 C485 1.427 . S
N493 C491 1.384 . S
H494 C500 0.930 1_655 S
H495 C504 0.930 . S
H496 C509 0.929 . S
H497 C507 0.929 1_655 S
H498 C502 0.929 . S
H499 C508 0.929 1_655 S
C500 H494 0.930 1_455 S
C500 C501 1.367 . S
C500 C508 1.378 . S
C501 C500 1.367 . S
C501 C509 1.433 . S
C502 H498 0.929 . S
C502 C504 1.378 . S
C502 C506 1.350 . S
C503 C506 1.463 . S
C503 C508 1.350 . S
C503 N511 1.427 . S
C504 H495 0.930 . S
C504 C502 1.378 . S
C504 C505 1.367 . S
C505 C504 1.367 . S
C505 C507 1.433 . S
C506 C502 1.350 . S
C506 C503 1.463 . S
C506 N510 1.427 . S
C507 H497 0.929 1_455 S
C507 C505 1.433 . S
C507 N510 1.384 . S
C508 H499 0.929 1_455 S
C508 C500 1.378 . S
C508 C503 1.350 . S
C509 H496 0.929 . S
C509 C501 1.433 . S
C509 N511 1.384 . S
N510 C506 1.427 . S
N510 C507 1.384 . S
N511 C503 1.427 . S
N511 C509 1.384 . S
H512 C518 0.930 . S
H513 C522 0.930 . S
H514 C527 0.929 . S
H515 C525 0.929 1_545 S
H516 C520 0.929 . S
H517 C526 0.929 . S
C518 H512 0.930 . S
C518 C519 1.367 . S
C518 C526 1.378 . S
C519 C518 1.367 . S
C519 C527 1.433 . S
C520 H516 0.929 . S
C520 C522 1.378 . S
C520 C524 1.350 . S
C521 C524 1.463 . S
C521 C526 1.350 . S
C521 N529 1.427 . S
C522 H513 0.930 . S
C522 C520 1.378 . S
C522 C523 1.367 . S
C523 C522 1.367 . S
C523 C525 1.433 . S
C524 C520 1.350 . S
C524 C521 1.463 . S
C524 N528 1.427 . S
C525 H515 0.929 1_565 S
C525 C523 1.433 . S
C525 N528 1.384 . S
C526 H517 0.929 . S
C526 C518 1.378 . S
C526 C521 1.350 . S
C527 H514 0.929 . S
C527 C519 1.433 . S
C527 N529 1.384 . S
N528 C524 1.427 . S
N528 C525 1.384 . S
N529 C521 1.427 . S
N529 C527 1.384 . S
H530 C536 0.930 . S
H531 C540 0.930 . S
H532 C545 0.929 . S
H533 C543 0.929 1_545 S
H534 C538 0.929 . S
H535 C544 0.929 . S
C536 H530 0.930 . S
C536 C537 1.367 . S
C536 C544 1.378 . S
C537 C536 1.367 . S
C537 C545 1.433 . S
C538 H534 0.929 . S
C538 C540 1.378 . S
C538 C542 1.350 . S
C539 C542 1.463 . S
C539 C544 1.350 . S
C539 N547 1.427 . S
C540 H531 0.930 . S
C540 C538 1.378 . S
C540 C541 1.367 . S
C541 C540 1.367 . S
C541 C543 1.433 . S
C542 C538 1.350 . S
C542 C539 1.463 . S
C542 N546 1.427 . S
C543 H533 0.929 1_565 S
C543 C541 1.433 . S
C543 N546 1.384 . S
C544 H535 0.929 . S
C544 C536 1.378 . S
C544 C539 1.350 . S
C545 H532 0.929 . S
C545 C537 1.433 . S
C545 N547 1.384 . S
N546 C542 1.427 . S
N546 C543 1.384 . S
N547 C539 1.427 . S
N547 C545 1.384 . S
H548 C554 0.930 . S
H549 C558 0.930 . S
H550 C563 0.929 . S
H551 C561 0.929 . S
H552 C556 0.929 . S
H553 C562 0.929 . S
C554 H548 0.930 . S
C554 C555 1.367 1_565 S
C554 C562 1.378 1_565 S
C555 C554 1.367 1_545 S
C555 C563 1.433 . S
C556 H552 0.929 . S
C556 C558 1.378 . S
C556 C560 1.350 . S
C557 C560 1.463 . S
C557 C562 1.350 . S
C557 N565 1.427 . S
C558 H549 0.930 . S
C558 C556 1.378 . S
C558 C559 1.367 . S
C559 C558 1.367 . S
C559 C561 1.433 . S
C560 C556 1.350 . S
C560 C557 1.463 . S
C560 N564 1.427 . S
C561 H551 0.929 . S
C561 C559 1.433 . S
C561 N564 1.384 . S
C562 H553 0.929 . S
C562 C554 1.378 1_545 S
C562 C557 1.350 . S
C563 H550 0.929 . S
C563 C555 1.433 . S
C563 N565 1.384 . S
N564 C560 1.427 . S
N564 C561 1.384 . S
N565 C557 1.427 . S
N565 C563 1.384 . S
H566 C572 0.930 . S
H567 C576 0.930 . S
H568 C581 0.929 . S
H569 C579 0.929 . S
H570 C574 0.929 . S
H571 C580 0.929 . S
C572 H566 0.930 . S
C572 C573 1.367 . S
C572 C580 1.378 . S
C573 C572 1.367 . S
C573 C581 1.433 . S
C574 H570 0.929 . S
C574 C576 1.378 . S
C574 C578 1.350 . S
C575 C578 1.463 . S
C575 C580 1.350 . S
C575 N583 1.427 . S
C576 H567 0.930 . S
C576 C574 1.378 . S
C576 C577 1.367 . S
C577 C576 1.367 . S
C577 C579 1.433 . S
C578 C574 1.350 . S
C578 C575 1.463 . S
C578 N582 1.427 . S
C579 H569 0.929 . S
C579 C577 1.433 . S
C579 N582 1.384 . S
C580 H571 0.929 . S
C580 C572 1.378 . S
C580 C575 1.350 . S
C581 H568 0.929 . S
C581 C573 1.433 . S
C581 N583 1.384 . S
N582 C578 1.427 . S
N582 C579 1.384 . S
N583 C575 1.427 . S
N583 C581 1.384 . S
H584 C590 0.930 . S
H585 C594 0.930 . S
H586 C599 0.929 . S
H587 C597 0.929 . S
H588 C592 0.929 . S
H589 C598 0.929 . S
C590 H584 0.930 . S
C590 C591 1.367 . S
C590 C598 1.378 . S
C591 C590 1.367 . S
C591 C599 1.433 . S
C592 H588 0.929 . S
C592 C594 1.378 . S
C592 C596 1.350 . S
C593 C596 1.463 . S
C593 C598 1.350 . S
C593 N601 1.427 . S
C594 H585 0.930 . S
C594 C592 1.378 . S
C594 C595 1.367 . S
C595 C594 1.367 . S
C595 C597 1.433 . S
C596 C592 1.350 . S
C596 C593 1.463 . S
C596 N600 1.427 . S
C597 H587 0.929 . S
C597 C595 1.433 . S
C597 N600 1.384 . S
C598 H589 0.929 . S
C598 C590 1.378 . S
C598 C593 1.350 . S
C599 H586 0.929 . S
C599 C591 1.433 . S
C599 N601 1.384 . S
N600 C596 1.427 . S
N600 C597 1.384 . S
N601 C593 1.427 . S
N601 C599 1.384 . S
H602 C608 0.930 . S
H603 C612 0.930 . S
H604 C617 0.929 . S
H605 C615 0.929 . S
H606 C610 0.929 . S
H607 C616 0.929 . S
C608 H602 0.930 . S
C608 C609 1.367 . S
C608 C616 1.378 . S
C609 C608 1.367 . S
C609 C617 1.433 . S
C610 H606 0.929 . S
C610 C612 1.378 . S
C610 C614 1.350 . S
C611 C614 1.463 . S
C611 C616 1.350 . S
C611 N619 1.427 . S
C612 H603 0.930 . S
C612 C610 1.378 . S
C612 C613 1.367 . S
C613 C612 1.367 . S
C613 C615 1.433 . S
C614 C610 1.350 . S
C614 C611 1.463 . S
C614 N618 1.427 . S
C615 H605 0.929 . S
C615 C613 1.433 . S
C615 N618 1.384 . S
C616 H607 0.929 . S
C616 C608 1.378 . S
C616 C611 1.350 . S
C617 H604 0.929 . S
C617 C609 1.433 . S
C617 N619 1.384 . S
N618 C614 1.427 . S
N618 C615 1.384 . S
N619 C611 1.427 . S
N619 C617 1.384 . S
H620 C626 0.930 . S
H621 C630 0.930 . S
H622 C635 0.929 . S
H623 C633 0.929 . S
H624 C628 0.929 . S
H625 C634 0.929 . S
C626 H620 0.930 . S
C626 C627 1.367 . S
C626 C634 1.378 . S
C627 C626 1.367 . S
C627 C635 1.433 . S
C628 H624 0.929 . S
C628 C630 1.378 . S
C628 C632 1.350 . S
C629 C632 1.463 . S
C629 C634 1.350 . S
C629 N637 1.427 . S
C630 H621 0.930 . S
C630 C628 1.378 . S
C630 C631 1.367 . S
C631 C630 1.367 . S
C631 C633 1.433 . S
C632 C628 1.350 . S
C632 C629 1.463 . S
C632 N636 1.427 . S
C633 H623 0.929 . S
C633 C631 1.433 . S
C633 N636 1.384 . S
C634 H625 0.929 . S
C634 C626 1.378 . S
C634 C629 1.350 . S
C635 H622 0.929 . S
C635 C627 1.433 . S
C635 N637 1.384 . S
N636 C632 1.427 . S
N636 C633 1.384 . S
N637 C629 1.427 . S
N637 C635 1.384 . S
H638 C644 0.930 . S
H639 C648 0.930 . S
H640 C653 0.929 . S
H641 C651 0.929 . S
H642 C646 0.929 . S
H643 C652 0.929 . S
C644 H638 0.930 . S
C644 C645 1.367 . S
C644 C652 1.378 . S
C645 C644 1.367 . S
C645 C653 1.433 . S
C646 H642 0.929 . S
C646 C648 1.378 . S
C646 C650 1.350 . S
C647 C650 1.463 . S
C647 C652 1.350 . S
C647 N655 1.427 . S
C648 H639 0.930 . S
C648 C646 1.378 . S
C648 C649 1.367 . S
C649 C648 1.367 . S
C649 C651 1.433 . S
C650 C646 1.350 . S
C650 C647 1.463 . S
C650 N654 1.427 . S
C651 H641 0.929 . S
C651 C649 1.433 . S
C651 N654 1.384 . S
C652 H643 0.929 . S
C652 C644 1.378 . S
C652 C647 1.350 . S
C653 H640 0.929 . S
C653 C645 1.433 . S
C653 N655 1.384 . S
N654 C650 1.427 . S
N654 C651 1.384 . S
N655 C647 1.427 . S
N655 C653 1.384 . S
H656 C662 0.930 . S
H657 C666 0.930 . S
H658 C671 0.929 . S
H659 C669 0.929 . S
H660 C664 0.929 . S
H661 C670 0.929 . S
C662 H656 0.930 . S
C662 C663 1.367 . S
C662 C670 1.378 . S
C663 C662 1.367 . S
C663 C671 1.433 . S
C664 H660 0.929 . S
C664 C666 1.378 . S
C664 C668 1.350 . S
C665 C668 1.463 . S
C665 C670 1.350 . S
C665 N673 1.427 . S
C666 H657 0.930 . S
C666 C664 1.378 . S
C666 C667 1.367 . S
C667 C666 1.367 . S
C667 C669 1.433 . S
C668 C664 1.350 . S
C668 C665 1.463 . S
C668 N672 1.427 . S
C669 H659 0.929 . S
C669 C667 1.433 . S
C669 N672 1.384 . S
C670 H661 0.929 . S
C670 C662 1.378 . S
C670 C665 1.350 . S
C671 H658 0.929 . S
C671 C663 1.433 . S
C671 N673 1.384 . S
N672 C668 1.427 . S
N672 C669 1.384 . S
N673 C665 1.427 . S
N673 C671 1.384 . S
H674 C680 0.930 . S
H675 C684 0.930 . S
H676 C689 0.929 . S
H677 C687 0.929 . S
H678 C682 0.929 . S
H679 C688 0.929 . S
C680 H674 0.930 . S
C680 C681 1.367 . S
C680 C688 1.378 . S
C681 C680 1.367 . S
C681 C689 1.433 . S
C682 H678 0.929 . S
C682 C684 1.378 . S
C682 C686 1.350 . S
C683 C686 1.463 . S
C683 C688 1.350 . S
C683 N691 1.427 . S
C684 H675 0.930 . S
C684 C682 1.378 . S
C684 C685 1.367 . S
C685 C684 1.367 . S
C685 C687 1.433 . S
C686 C682 1.350 . S
C686 C683 1.463 . S
C686 N690 1.427 . S
C687 H677 0.929 . S
C687 C685 1.433 . S
C687 N690 1.384 . S
C688 H679 0.929 . S
C688 C680 1.378 . S
C688 C683 1.350 . S
C689 H676 0.929 . S
C689 C681 1.433 . S
C689 N691 1.384 . S
N690 C686 1.427 . S
N690 C687 1.384 . S
N691 C683 1.427 . S
N691 C689 1.384 . S
H692 C698 0.930 . S
H693 C702 0.930 . S
H694 C707 0.929 . S
H695 C705 0.929 . S
H696 C700 0.929 . S
H697 C706 0.929 . S
C698 H692 0.930 . S
C698 C699 1.367 . S
C698 C706 1.378 . S
C699 C698 1.367 . S
C699 C707 1.433 . S
C700 H696 0.929 . S
C700 C702 1.378 . S
C700 C704 1.350 . S
C701 C704 1.463 . S
C701 C706 1.350 . S
C701 N709 1.427 . S
C702 H693 0.930 . S
C702 C700 1.378 . S
C702 C703 1.367 . S
C703 C702 1.367 . S
C703 C705 1.433 . S
C704 C700 1.350 . S
C704 C701 1.463 . S
C704 N708 1.427 . S
C705 H695 0.929 . S
C705 C703 1.433 . S
C705 N708 1.384 . S
C706 H697 0.929 . S
C706 C698 1.378 . S
C706 C701 1.350 . S
C707 H694 0.929 . S
C707 C699 1.433 . S
C707 N709 1.384 . S
N708 C704 1.427 . S
N708 C705 1.384 . S
N709 C701 1.427 . S
N709 C707 1.384 . S
H710 C716 0.930 . S
H711 C720 0.930 . S
H712 C725 0.929 . S
H713 C723 0.929 . S
H714 C718 0.929 . S
H715 C724 0.929 . S
C716 H710 0.930 . S
C716 C717 1.367 . S
C716 C724 1.378 . S
C717 C716 1.367 . S
C717 C725 1.433 . S
C718 H714 0.929 . S
C718 C720 1.378 . S
C718 C722 1.350 . S
C719 C722 1.463 . S
C719 C724 1.350 . S
C719 N727 1.427 . S
C720 H711 0.930 . S
C720 C718 1.378 . S
C720 C721 1.367 . S
C721 C720 1.367 . S
C721 C723 1.433 . S
C722 C718 1.350 . S
C722 C719 1.463 . S
C722 N726 1.427 . S
C723 H713 0.929 . S
C723 C721 1.433 . S
C723 N726 1.384 . S
C724 H715 0.929 . S
C724 C716 1.378 . S
C724 C719 1.350 . S
C725 H712 0.929 . S
C725 C717 1.433 . S
C725 N727 1.384 . S
N726 C722 1.427 . S
N726 C723 1.384 . S
N727 C719 1.427 . S
N727 C725 1.384 . S
H728 C734 0.930 . S
H729 C738 0.930 . S
H730 C743 0.929 . S
H731 C741 0.929 . S
H732 C736 0.929 . S
H733 C742 0.929 . S
C734 H728 0.930 . S
C734 C735 1.367 . S
C734 C742 1.378 . S
C735 C734 1.367 . S
C735 C743 1.433 . S
C736 H732 0.929 . S
C736 C738 1.378 . S
C736 C740 1.350 . S
C737 C740 1.463 . S
C737 C742 1.350 . S
C737 N745 1.427 . S
C738 H729 0.930 . S
C738 C736 1.378 . S
C738 C739 1.367 . S
C739 C738 1.367 . S
C739 C741 1.433 . S
C740 C736 1.350 . S
C740 C737 1.463 . S
C740 N744 1.427 . S
C741 H731 0.929 . S
C741 C739 1.433 . S
C741 N744 1.384 . S
C742 H733 0.929 . S
C742 C734 1.378 . S
C742 C737 1.350 . S
C743 H730 0.929 . S
C743 C735 1.433 . S
C743 N745 1.384 . S
N744 C740 1.427 . S
N744 C741 1.384 . S
N745 C737 1.427 . S
N745 C743 1.384 . S
H746 C752 0.930 . S
H747 C756 0.930 . S
H748 C761 0.929 . S
H749 C759 0.929 . S
H750 C754 0.929 . S
H751 C760 0.929 . S
C752 H746 0.930 . S
C752 C753 1.367 . S
C752 C760 1.378 . S
C753 C752 1.367 . S
C753 C761 1.433 . S
C754 H750 0.929 . S
C754 C756 1.378 . S
C754 C758 1.350 . S
C755 C758 1.463 . S
C755 C760 1.350 . S
C755 N763 1.427 . S
C756 H747 0.930 . S
C756 C754 1.378 . S
C756 C757 1.367 . S
C757 C756 1.367 . S
C757 C759 1.433 . S
C758 C754 1.350 . S
C758 C755 1.463 . S
C758 N762 1.427 . S
C759 H749 0.929 . S
C759 C757 1.433 . S
C759 N762 1.384 . S
C760 H751 0.929 . S
C760 C752 1.378 . S
C760 C755 1.350 . S
C761 H748 0.929 . S
C761 C753 1.433 . S
C761 N763 1.384 . S
N762 C758 1.427 . S
N762 C759 1.384 . S
N763 C755 1.427 . S
N763 C761 1.384 . S
H764 C770 0.930 . S
H765 C774 0.930 . S
H766 C779 0.929 . S
H767 C777 0.929 . S
H768 C772 0.929 . S
H769 C778 0.929 . S
C770 H764 0.930 . S
C770 C771 1.367 . S
C770 C778 1.378 . S
C771 C770 1.367 . S
C771 C779 1.433 . S
C772 H768 0.929 . S
C772 C774 1.378 . S
C772 C776 1.350 . S
C773 C776 1.463 . S
C773 C778 1.350 . S
C773 N781 1.427 . S
C774 H765 0.930 . S
C774 C772 1.378 . S
C774 C775 1.367 . S
C775 C774 1.367 . S
C775 C777 1.433 . S
C776 C772 1.350 . S
C776 C773 1.463 . S
C776 N780 1.427 . S
C777 H767 0.929 . S
C777 C775 1.433 . S
C777 N780 1.384 . S
C778 H769 0.929 . S
C778 C770 1.378 . S
C778 C773 1.350 . S
C779 H766 0.929 . S
C779 C771 1.433 . S
C779 N781 1.384 . S
N780 C776 1.427 . S
N780 C777 1.384 . S
N781 C773 1.427 . S
N781 C779 1.384 . S
H782 C788 0.930 . S
H783 C792 0.930 . S
H784 C797 0.929 . S
H785 C795 0.929 . S
H786 C790 0.929 . S
H787 C796 0.929 . S
C788 H782 0.930 . S
C788 C789 1.367 . S
C788 C796 1.378 . S
C789 C788 1.367 . S
C789 C797 1.433 . S
C790 H786 0.929 . S
C790 C792 1.378 . S
C790 C794 1.350 . S
C791 C794 1.463 . S
C791 C796 1.350 . S
C791 N799 1.427 . S
C792 H783 0.930 . S
C792 C790 1.378 . S
C792 C793 1.367 . S
C793 C792 1.367 . S
C793 C795 1.433 . S
C794 C790 1.350 . S
C794 C791 1.463 . S
C794 N798 1.427 . S
C795 H785 0.929 . S
C795 C793 1.433 . S
C795 N798 1.384 . S
C796 H787 0.929 . S
C796 C788 1.378 . S
C796 C791 1.350 . S
C797 H784 0.929 . S
C797 C789 1.433 . S
C797 N799 1.384 . S
N798 C794 1.427 . S
N798 C795 1.384 . S
N799 C791 1.427 . S
N799 C797 1.384 . S
C231 C11 1.063 . S
C235 C193 1.059 . S
C249 C165 1.051 . S
C253 C25 1.065 . S
C267 C179 1.052 . S
C271 C39 1.066 . S
C285 C151 1.066 . S
C289 C53 1.052 . S
C303 C67 1.051 . S
C307 C221 1.065 . S
C321 C81 1.066 . S
C325 C137 1.052 . S
C339 C207 1.058 . S
C343 C95 1.064 . S
C357 C109 1.065 . S
C361 C123 1.051 . S
C375 C68 1.621 . S
C379 C12 1.619 . S
C393 C26 1.621 . S
C397 C82 1.618 . S
C411 C40 1.621 . S
C415 C96 1.618 . S
C429 C110 1.620 . S
C433 C54 1.621 . S
C447 C124 1.621 . S
C451 C152 1.618 . S
C465 C138 1.621 . S
C469 C166 1.618 . S
C483 C208 1.618 . S
C487 C180 1.621 . S
C501 C194 1.621 . S
C505 C222 1.620 . S
C519 C74 1.238 . S
C523 C4 1.239 1_565 S
C537 C18 1.244 . S
C541 C88 1.246 1_565 S
C555 C32 1.243 1_545 S
C559 C102 1.245 . S
C573 C60 1.247 1_545 S
C577 C46 1.246 . S
C591 C61 1.137 . S
C595 C145 1.142 . S
C609 C33 1.135 . S
C613 C117 1.144 . S
C627 C159 1.165 . S
C631 C89 1.151 . S
C645 C131 1.162 . S
C649 C5 1.159 . S
C663 C116 1.247 . S
C667 C172 1.247 . S
C681 C144 1.237 . S
C685 C214 1.238 . S
C699 C186 1.246 . S
C703 C130 1.247 . S
C717 C158 1.247 . S
C721 C200 1.246 . S
C735 C201 1.162 . S
C739 C19 1.137 . S
C753 C187 1.146 . S
C757 C75 1.166 . S
C771 C215 1.166 . S
C775 C47 1.146 . S
C789 C173 1.152 . S
C793 C103 1.133 . S
