# Generated by pormake.
# Topology sow, (4)-cn, num edge types: 1
# Building blocks:
#     Node 0, Type 0, BuildingBlock: NAWXER_clean_sbu_0, # of connection points: 4
#     Node 1, Type 0, BuildingBlock: NAWXER_clean_sbu_0, # of connection points: 4
#     Node 2, Type 0, BuildingBlock: NAWXER_clean_sbu_0, # of connection points: 4
#     Node 3, Type 0, BuildingBlock: NAWXER_clean_sbu_0, # of connection points: 4
#     Node 4, Type 0, BuildingBlock: NAWXER_clean_sbu_0, # of connection points: 4
#     Node 5, Type 0, BuildingBlock: NAWXER_clean_sbu_0, # of connection points: 4
#     Node 6, Type 0, BuildingBlock: NAWXER_clean_sbu_0, # of connection points: 4
#     Node 7, Type 0, BuildingBlock: NAWXER_clean_sbu_0, # of connection points: 4
#     Edge 8, Type (0, 0), BuildingBlock: CIFDUS_clean_linker_0, # of connection points: 2
#     Edge 9, Type (0, 0), BuildingBlock: CIFDUS_clean_linker_0, # of connection points: 2
#     Edge 10, Type (0, 0), BuildingBlock: CIFDUS_clean_linker_0, # of connection points: 2
#     Edge 11, Type (0, 0), BuildingBlock: CIFDUS_clean_linker_0, # of connection points: 2
#     Edge 12, Type (0, 0), BuildingBlock: CIFDUS_clean_linker_0, # of connection points: 2
#     Edge 13, Type (0, 0), BuildingBlock: CIFDUS_clean_linker_0, # of connection points: 2
#     Edge 14, Type (0, 0), BuildingBlock: CIFDUS_clean_linker_0, # of connection points: 2
#     Edge 15, Type (0, 0), BuildingBlock: CIFDUS_clean_linker_0, # of connection points: 2
#     Edge 16, Type (0, 0), BuildingBlock: CIFDUS_clean_linker_0, # of connection points: 2
#     Edge 17, Type (0, 0), BuildingBlock: CIFDUS_clean_linker_0, # of connection points: 2
#     Edge 18, Type (0, 0), BuildingBlock: CIFDUS_clean_linker_0, # of connection points: 2
#     Edge 19, Type (0, 0), BuildingBlock: CIFDUS_clean_linker_0, # of connection points: 2
#     Edge 20, Type (0, 0), BuildingBlock: CIFDUS_clean_linker_0, # of connection points: 2
#     Edge 21, Type (0, 0), BuildingBlock: CIFDUS_clean_linker_0, # of connection points: 2
#     Edge 22, Type (0, 0), BuildingBlock: CIFDUS_clean_linker_0, # of connection points: 2
#     Edge 23, Type (0, 0), BuildingBlock: CIFDUS_clean_linker_0, # of connection points: 2
# Relax obj value: 0.113
# Max RMSD: 0.238
# Mean RMSD: 0.237
data_MOF--net-sow--node1-NAWXER_clean_sbu_0--edge1-CIFDUS_clean_linker_0
_symmetry_space_group_name_H-M    P1
_symmetry_Int_Tables_number       1
_symmetry_cell_setting            triclinic
loop_
_symmetry_equiv_pos_as_xyz
'x, y, z'
_cell_length_a     37.822807
_cell_length_b     16.952682
_cell_length_c     19.932463
_cell_angle_alpha  90.098282
_cell_angle_beta   89.803697
_cell_angle_gamma 90.085047
loop_
_atom_site_label
_atom_site_type_symbol
_atom_site_fract_x
_atom_site_fract_y
_atom_site_fract_z
_atom_type_partial_charge
C0 C 0.20279 0.16142 0.17047 0.0
C1 C 0.10767 0.04585 0.03889 0.0
O2 O 0.19662 0.08914 0.15853 0.0
Zn3 Zn 0.15823 0.10297 0.09643 0.0
O4 O 0.18479 0.21436 0.13984 0.0
Zn5 Zn 0.14252 0.2169 0.06726 0.0
O6 O 0.10721 0.27706 0.11491 0.0
O7 O 0.11782 0.15913 0.15749 0.0
O8 O 0.10882 0.12125 0.03328 0.0
O9 O 0.13267 0.01009 0.0685 0.0
O10 O 0.18293 0.14293 0.00586 0.0
O11 O 0.16281 0.26248 0.98695 0.0
C12 C 0.10037 0.22407 0.15825 0.0
C13 C 0.18239 0.20527 0.96956 0.0
C14 C 0.31102 0.30574 0.66252 0.0
C15 C 0.41412 0.37379 0.5274 0.0
O16 O 0.31995 0.37279 0.63975 0.0
Zn17 Zn 0.35968 0.339 0.58629 0.0
O18 O 0.32824 0.24427 0.64377 0.0
Zn19 Zn 0.37289 0.21872 0.57947 0.0
O20 O 0.40464 0.16744 0.64107 0.0
O21 O 0.39572 0.29413 0.66117 0.0
O22 O 0.41032 0.29893 0.53363 0.0
O23 O 0.3898 0.41954 0.54809 0.0
O24 O 0.33646 0.27995 0.50142 0.0
O25 O 0.3544 0.15673 0.50693 0.0
C26 C 0.41121 0.229 0.67547 0.0
C27 C 0.33669 0.20967 0.47737 0.0
C28 C 0.69406 0.3148 0.83206 0.0
C29 C 0.59734 0.41299 0.97004 0.0
O30 O 0.68371 0.38514 0.8411 0.0
Zn31 Zn 0.64854 0.36486 0.90891 0.0
O32 O 0.68021 0.25924 0.86705 0.0
Zn33 Zn 0.64021 0.25017 0.94406 0.0
O34 O 0.60792 0.17625 0.9039 0.0
O35 O 0.6086 0.29483 0.85745 0.0
O36 O 0.60263 0.33892 0.9794 0.0
O37 O 0.61935 0.45238 0.93525 0.0
O38 O 0.67826 0.33765 0.99805 0.0
O39 O 0.66439 0.21499 0.02256 0.0
C40 C 0.5956 0.22496 0.86167 0.0
C41 C 0.68166 0.2771 0.03602 0.0
C42 C 0.81429 0.20035 0.34011 0.0
C43 C 0.91169 0.12603 0.48303 0.0
O44 O 0.82358 0.13349 0.36208 0.0
Zn45 Zn 0.86057 0.16701 0.42008 0.0
O46 O 0.8302 0.26245 0.36146 0.0
Zn47 Zn 0.87292 0.28555 0.43158 0.0
O48 O 0.90548 0.34254 0.37552 0.0
O49 O 0.90088 0.21507 0.35263 0.0
O50 O 0.90993 0.20159 0.47799 0.0
O51 O 0.88665 0.0839 0.46042 0.0
O52 O 0.83399 0.22094 0.50358 0.0
O53 O 0.85195 0.34422 0.50427 0.0
C54 C 0.91557 0.28244 0.34248 0.0
C55 C 0.83325 0.28995 0.5299 0.0
C56 C 0.91345 0.88233 0.96726 0.0
C57 C 0.81921 0.77329 0.83053 0.0
O58 O 0.91146 0.80698 0.97337 0.0
Zn59 Zn 0.87666 0.71299 0.93725 0.0
O60 O 0.88927 0.91907 0.93617 0.0
Zn61 Zn 0.86361 0.82789 0.90671 0.0
O62 O 0.83626 0.79104 0.99516 0.0
O63 O 0.8541 0.67041 0.01695 0.0
O64 O 0.82723 0.84477 0.84167 0.0
O65 O 0.83536 0.71865 0.86268 0.0
O66 O 0.91168 0.64892 0.89132 0.0
O67 O 0.9051 0.76944 0.8506 0.0
C68 C 0.83501 0.72933 0.03213 0.0
C69 C 0.92115 0.70281 0.85068 0.0
C70 C 0.60126 0.58433 0.47877 0.0
C71 C 0.70286 0.64548 0.33812 0.0
O72 O 0.60604 0.65911 0.47388 0.0
Zn73 Zn 0.64461 0.73688 0.4269 0.0
O74 O 0.62472 0.53762 0.45621 0.0
Zn75 Zn 0.65499 0.61655 0.41727 0.0
O76 O 0.68115 0.67096 0.50171 0.0
O77 O 0.66562 0.79584 0.49828 0.0
O78 O 0.6928 0.57928 0.36085 0.0
O79 O 0.68738 0.70854 0.3585 0.0
O80 O 0.61313 0.79405 0.36987 0.0
O81 O 0.61767 0.66702 0.34624 0.0
C82 C 0.68279 0.74095 0.52621 0.0
C83 C 0.60355 0.73468 0.33534 0.0
C84 C 0.41455 0.64088 0.02048 0.0
C85 C 0.31505 0.71127 0.16332 0.0
O86 O 0.41122 0.71618 0.02493 0.0
Zn87 Zn 0.37412 0.79777 0.07348 0.0
O88 O 0.3905 0.59648 0.04427 0.0
Zn89 Zn 0.36241 0.67842 0.08353 0.0
O90 O 0.33703 0.73335 0.99858 0.0
O91 O 0.35408 0.85738 1.00205 0.0
O92 O 0.32467 0.64441 0.14141 0.0
O93 O 0.33102 0.77335 0.14213 0.0
O94 O 0.40652 0.85401 0.12993 0.0
O95 O 0.40214 0.72635 0.15127 0.0
C96 C 0.33645 0.8032 0.97382 0.0
C97 C 0.41686 0.79354 0.16184 0.0
C98 C 0.10645 0.96099 0.54058 0.0
C99 C 0.20272 0.84523 0.66676 0.0
O100 O 0.10751 0.88567 0.53363 0.0
Zn101 Zn 0.14226 0.78999 0.56359 0.0
O102 O 0.1318 0.99647 0.56941 0.0
Zn103 Zn 0.15764 0.9034 0.5947 0.0
O104 O 0.18251 0.86672 0.50339 0.0
O105 O 0.16258 0.74751 0.48182 0.0
O106 O 0.1961 0.91747 0.65603 0.0
O107 O 0.18494 0.79212 0.63557 0.0
O108 O 0.10802 0.72628 0.61105 0.0
O109 O 0.11828 0.84333 0.65617 0.0
C110 C 0.18213 0.80536 0.46578 0.0
C111 C 0.10148 0.77736 0.6563 0.0
H112 H 0.28941 0.17323 0.72763 0.0
H113 H 0.26927 0.42329 0.71404 0.0
H114 H 0.22644 0.41378 0.80571 0.0
H115 H 0.19702 0.33557 0.89389 0.0
H116 H 0.21873 0.08619 0.90853 0.0
H117 H 0.25817 0.09458 0.81185 0.0
C118 C 0.27546 0.22565 0.7442 0.0
C119 C 0.28273 0.29891 0.714 0.0
C120 C 0.25121 0.22002 0.79751 0.0
C121 C 0.26431 0.36611 0.73635 0.0
C122 C 0.23984 0.36079 0.78895 0.0
C123 C 0.21026 0.28295 0.87576 0.0
C124 C 0.20504 0.21049 0.90884 0.0
C125 C 0.23346 0.28823 0.82059 0.0
C126 C 0.22244 0.14291 0.88455 0.0
C127 C 0.24507 0.14755 0.82923 0.0
H128 H 0.24945 0.06671 0.23623 0.0
H129 H 0.2144 0.3084 0.22235 0.0
H130 H 0.25345 0.34524 0.31444 0.0
H131 H 0.29545 0.3078 0.40265 0.0
H132 H 0.33092 0.06633 0.41558 0.0
H133 H 0.2945 0.0313 0.31952 0.0
C134 C 0.25051 0.12758 0.25298 0.0
C135 C 0.2288 0.18451 0.22254 0.0
C136 C 0.27305 0.14852 0.30609 0.0
C137 C 0.23075 0.26322 0.24476 0.0
C138 C 0.25302 0.28439 0.29766 0.0
C139 C 0.29525 0.24748 0.38445 0.0
C140 C 0.3157 0.18973 0.41689 0.0
C141 C 0.27393 0.22734 0.32932 0.0
C142 C 0.31528 0.112 0.3921 0.0
C143 C 0.29428 0.09169 0.3372 0.0
H144 H 0.79503 0.32833 0.26505 0.0
H145 H 0.77049 0.08264 0.29899 0.0
H146 H 0.72668 0.08599 0.21 0.0
H147 H 0.69689 0.1562 0.11986 0.0
H148 H 0.72158 0.40093 0.08252 0.0
H149 H 0.76358 0.40026 0.17558 0.0
C150 C 0.7799 0.27574 0.2533 0.0
C151 C 0.78621 0.2053 0.28863 0.0
C152 C 0.75484 0.27768 0.20125 0.0
C153 C 0.76639 0.13761 0.27253 0.0
C154 C 0.74127 0.13937 0.22156 0.0
C155 C 0.7113 0.20966 0.13211 0.0
C156 C 0.70613 0.27839 0.09399 0.0
C157 C 0.73556 0.20873 0.18514 0.0
C158 C 0.72508 0.34704 0.11083 0.0
C159 C 0.74913 0.34675 0.16408 0.0
H160 H 0.73572 0.41831 0.76349 0.0
H161 H 0.71238 0.17001 0.78269 0.0
H162 H 0.75379 0.14015 0.69192 0.0
H163 H 0.79518 0.18493 0.60443 0.0
H164 H 0.81927 0.43312 0.58701 0.0
H165 H 0.77934 0.46216 0.68002 0.0
C166 C 0.73976 0.3576 0.74802 0.0
C167 C 0.72077 0.29659 0.77968 0.0
C168 C 0.76373 0.34073 0.69593 0.0
C169 C 0.72661 0.2182 0.75928 0.0
C170 C 0.75024 0.20103 0.7072 0.0
C171 C 0.79175 0.24541 0.62102 0.0
C172 C 0.81007 0.30674 0.58834 0.0
C173 C 0.7687 0.2619 0.67473 0.0
C174 C 0.80548 0.38468 0.61099 0.0
C175 C 0.78253 0.40149 0.66414 0.0
H176 H 0.81978 0.60384 0.11324 0.0
H177 H 0.7958 0.85024 0.08343 0.0
H178 H 0.75429 0.8469 0.17715 0.0
H179 H 0.72307 0.77334 0.26505 0.0
H180 H 0.74565 0.52612 0.29352 0.0
H181 H 0.78965 0.53102 0.20362 0.0
C182 C 0.80562 0.65692 0.12745 0.0
C183 C 0.81089 0.72707 0.09101 0.0
C184 C 0.78144 0.65454 0.18123 0.0
C185 C 0.79222 0.79525 0.11022 0.0
C186 C 0.76843 0.79349 0.16393 0.0
C187 C 0.73774 0.72056 0.25194 0.0
C188 C 0.73096 0.64951 0.28608 0.0
C189 C 0.76259 0.72334 0.19941 0.0
C190 C 0.75019 0.58164 0.26807 0.0
C191 C 0.77532 0.58426 0.21648 0.0
H192 H 0.71848 0.63697 0.6057 0.0
H193 H 0.69792 0.88546 0.57904 0.0
H194 H 0.73715 0.91685 0.672 0.0
H195 H 0.77896 0.87473 0.75813 0.0
H196 H 0.79955 0.62657 0.78628 0.0
H197 H 0.75825 0.59447 0.69621 0.0
C198 C 0.72248 0.69796 0.62038 0.0
C199 C 0.70539 0.75868 0.58501 0.0
C200 C 0.74511 0.71584 0.6742 0.0
C201 C 0.71073 0.8374 0.60513 0.0
C202 C 0.73323 0.85555 0.65833 0.0
C203 C 0.7744 0.8135 0.74482 0.0
C204 C 0.79258 0.75328 0.77874 0.0
C205 C 0.75081 0.79534 0.69278 0.0
C206 C 0.78605 0.67425 0.76096 0.0
C207 C 0.76253 0.65575 0.70926 0.0
H208 H 0.29566 0.70254 0.89961 0.0
H209 H 0.32951 0.94556 0.9121 0.0
H210 H 0.29314 0.97848 0.81584 0.0
H211 H 0.24886 0.94101 0.73233 0.0
H212 H 0.21499 0.69828 0.71815 0.0
H213 H 0.25401 0.66303 0.81075 0.0
C214 C 0.29508 0.7627 0.88125 0.0
C215 C 0.31508 0.82151 0.91363 0.0
C216 C 0.27381 0.78169 0.82581 0.0
C217 C 0.31421 0.89906 0.88868 0.0
C218 C 0.29328 0.91819 0.83363 0.0
C219 C 0.25018 0.88023 0.74908 0.0
C220 C 0.22884 0.82255 0.71851 0.0
C221 C 0.27257 0.86034 0.80243 0.0
C222 C 0.2311 0.74399 0.74071 0.0
C223 C 0.25332 0.72376 0.7939 0.0
H224 H 0.29083 0.8435 0.22667 0.0
H225 H 0.27582 0.59121 0.2169 0.0
H226 H 0.23213 0.59844 0.30699 0.0
H227 H 0.20012 0.67542 0.39243 0.0
H228 H 0.21629 0.92719 0.40391 0.0
H229 H 0.25685 0.92094 0.30862 0.0
C230 C 0.27784 0.79012 0.24385 0.0
C231 C 0.28682 0.71692 0.21507 0.0
C232 C 0.25291 0.79447 0.29626 0.0
C233 C 0.26961 0.64841 0.23814 0.0
C234 C 0.24459 0.6524 0.28981 0.0
C235 C 0.21239 0.72903 0.37389 0.0
C236 C 0.20527 0.80156 0.40562 0.0
C237 C 0.23634 0.72497 0.31983 0.0
C238 C 0.22149 0.87041 0.38093 0.0
C239 C 0.2448 0.86697 0.32649 0.0
H240 H 0.05073 0.34154 0.16267 0.0
H241 H 0.08024 0.12107 0.25544 0.0
H242 H 0.02508 0.11934 0.31821 0.0
H243 H 0.96723 0.17561 0.34236 0.0
H244 H 0.93777 0.3993 0.25701 0.0
H245 H 0.99399 0.40417 0.19475 0.0
C246 C 0.0453 0.29374 0.1973 0.0
C247 C 0.06952 0.23118 0.2037 0.0
C248 C 0.01327 0.29278 0.23339 0.0
C249 C 0.06207 0.1698 0.24905 0.0
C250 C 0.0304 0.16838 0.28478 0.0
C251 C 0.973 0.22505 0.30951 0.0
C252 C 0.94826 0.286 0.30253 0.0
C253 C 1.00554 0.22851 0.27615 0.0
C254 C 0.95638 0.35117 0.26199 0.0
C255 C 0.9885 0.35404 0.22682 0.0
H256 H 0.46199 0.11688 0.69667 0.0
H257 H 0.42649 0.34622 0.7635 0.0
H258 H 0.48073 0.36405 0.82674 0.0
H259 H 0.54011 0.32056 0.855 0.0
H260 H 0.57614 0.09017 0.7945 0.0
H261 H 0.51982 0.06662 0.73617 0.0
C262 C 0.46582 0.16995 0.72622 0.0
C263 C 0.44038 0.23053 0.72458 0.0
C264 C 0.4974 0.18036 0.76225 0.0
C265 C 0.44573 0.29894 0.76328 0.0
C266 C 0.47684 0.30951 0.79921 0.0
C267 C 0.53563 0.2653 0.8287 0.0
C268 C 0.56226 0.20793 0.82704 0.0
C269 C 0.50322 0.25179 0.79727 0.0
C270 C 0.55597 0.13547 0.79516 0.0
C271 C 0.52384 0.12208 0.76219 0.0
H272 H 0.05532 0.6525 0.66618 0.0
H273 H 0.08114 0.87819 0.75491 0.0
H274 H 0.02804 0.87259 0.82337 0.0
H275 H 0.97212 0.81019 0.85147 0.0
H276 H 0.94564 0.58241 0.76976 0.0
H277 H 1.00118 0.58212 0.70467 0.0
C278 C 0.04955 0.69985 0.70115 0.0
C279 C 0.07204 0.76618 0.70454 0.0
C280 C 0.01867 0.69649 0.74075 0.0
C281 C 0.06427 0.82675 0.7506 0.0
C282 C 0.03379 0.82388 0.78973 0.0
C283 C 0.97858 0.76036 0.81944 0.0
C284 C 0.95479 0.6972 0.8139 0.0
C285 C 0.01044 0.7602 0.78386 0.0
C286 C 0.96362 0.63196 0.77391 0.0
C287 C 0.99526 0.63195 0.73689 0.0
H288 H 0.46546 0.67932 0.16867 0.0
H289 H 0.44347 0.91606 0.23615 0.0
H290 H 0.50128 0.92162 0.29173 0.0
H291 H 0.5573 0.85704 0.32274 0.0
H292 H 0.57912 0.62171 0.25014 0.0
H293 H 0.52232 0.61867 0.19309 0.0
C294 C 0.4731 0.73177 0.19643 0.0
C295 C 0.45004 0.79649 0.20005 0.0
C296 C 0.50653 0.73528 0.22603 0.0
C297 C 0.4607 0.86513 0.23387 0.0
C298 C 0.49376 0.86842 0.26511 0.0
C299 C 0.5499 0.80563 0.29351 0.0
C300 C 0.57239 0.73954 0.29106 0.0
C301 C 0.5169 0.80376 0.26144 0.0
C302 C 0.56232 0.67332 0.25307 0.0
C303 C 0.52971 0.67121 0.22082 0.0
H304 H 0.04306 0.10898 0.01636 0.0
H305 H 0.0983 0.88655 0.02312 0.0
H306 H 0.04253 0.81614 0.00544 0.0
H307 H 0.97805 0.81799 0.99004 0.0
H308 H 0.92311 0.04086 0.98358 0.0
H309 H 0.97887 0.1109 1.00086 0.0
C310 C 0.04305 0.0451 0.01309 0.0
C311 C 0.0749 0.0031 0.02049 0.0
C312 C 0.01087 0.00509 0.00447 0.0
C313 C 0.07422 0.9203 0.01723 0.0
C314 C 0.04231 0.88002 0.00758 0.0
C315 C 0.97816 0.88186 0.99348 0.0
C316 C 0.94635 0.92412 0.98628 0.0
C317 C 0.01042 0.9218 1.00199 0.0
C318 C 0.94714 0.00691 0.98947 0.0
C319 C 0.97905 0.047 0.99887 0.0
H320 H 0.57319 0.44043 0.45113 0.0
H321 H 0.54952 0.66175 0.5485 0.0
H322 H 0.48856 0.61874 0.56737 0.0
H323 H 0.44175 0.51867 0.55501 0.0
H324 H 0.46569 0.29787 0.45698 0.0
H325 H 0.5265 0.34113 0.43813 0.0
C326 C 0.55489 0.47881 0.4775 0.0
C327 C 0.56607 0.55387 0.49907 0.0
C328 C 0.51967 0.45451 0.48668 0.0
C329 C 0.54172 0.60339 0.53192 0.0
C330 C 0.50676 0.57911 0.54222 0.0
C331 C 0.46009 0.48059 0.52846 0.0
C332 C 0.44905 0.40539 0.50689 0.0
C333 C 0.49532 0.50516 0.51909 0.0
C334 C 0.47341 0.35622 0.47371 0.0
C335 C 0.50829 0.38065 0.46339 0.0
H336 H 0.44094 0.4976 0.05337 0.0
H337 H 0.46613 0.70981 0.94392 0.0
H338 H 0.52583 0.66026 0.92217 0.0
H339 H 0.57105 0.55718 0.93556 0.0
H340 H 0.54579 0.34671 0.04777 0.0
H341 H 0.4862 0.39602 0.06832 0.0
C342 C 0.45926 0.53252 0.02375 0.0
C343 C 0.44888 0.60682 0.99939 0.0
C344 C 0.4938 0.50471 0.01316 0.0
C345 C 0.47331 0.65205 0.96258 0.0
C346 C 0.50754 0.62402 0.95061 0.0
C347 C 0.5527 0.52252 0.96532 0.0
C348 C 0.56307 0.44841 0.99034 0.0
C349 C 0.5182 0.55077 0.97627 0.0
C350 C 0.5387 0.40409 0.02818 0.0
C351 C 0.50447 0.43196 0.03955 0.0
H352 H 0.04032 0.90161 0.54059 0.0
H353 H 0.09858 0.11731 0.50915 0.0
H354 H 0.04304 0.18924 0.49305 0.0
H355 H 0.97781 0.19 0.48766 0.0
H356 H 0.92028 0.97363 0.52225 0.0
H357 H 0.9757 0.90314 0.53911 0.0
C358 C 0.04091 0.96421 0.52935 0.0
C359 C 0.07349 0.00392 0.52493 0.0
C360 C 0.00899 0.00531 0.5222 0.0
C361 C 0.0738 0.08539 0.51213 0.0
C362 C 0.04207 0.12653 0.50338 0.0
C363 C 0.97738 0.12778 0.50023 0.0
C364 C 0.94489 0.08727 0.50414 0.0
C365 C 0.00947 0.08716 0.50881 0.0
C366 C 0.94487 0.0063 0.51923 0.0
C367 C 0.97657 0.96579 0.52839 0.0
loop_
_geom_bond_atom_site_label_1
_geom_bond_atom_site_label_2
_geom_bond_distance
_geom_bond_site_symmetry_2
_ccdc_geom_bond_type
C0 O2 1.247 . S
C0 O4 1.258 . S
C1 O8 1.247 . S
C1 O9 1.258 . S
O2 C0 1.247 . S
O2 Zn3 2.028 . S
Zn3 O2 2.028 . S
Zn3 O7 2.035 . S
Zn3 O9 2.035 . S
Zn3 O10 2.028 . S
O4 C0 1.258 . S
O4 Zn5 2.035 . S
Zn5 O4 2.035 . S
Zn5 O6 2.028 . S
Zn5 O8 2.028 . S
Zn5 O11 2.035 . S
O6 Zn5 2.028 . S
O6 C12 1.247 . S
O7 Zn3 2.035 . S
O7 C12 1.258 . S
O8 C1 1.247 . S
O8 Zn5 2.028 . S
O9 C1 1.258 . S
O9 Zn3 2.035 . S
O10 Zn3 2.028 . S
O10 C13 1.247 . S
O11 Zn5 2.035 . S
O11 C13 1.258 . S
C12 O6 1.247 . S
C12 O7 1.258 . S
C13 O10 1.247 . S
C13 O11 1.258 . S
C14 O16 1.247 . S
C14 O18 1.258 . S
C15 O22 1.247 . S
C15 O23 1.258 . S
O16 C14 1.247 . S
O16 Zn17 2.028 . S
Zn17 O16 2.028 . S
Zn17 O21 2.035 . S
Zn17 O23 2.035 . S
Zn17 O24 2.028 . S
O18 C14 1.258 . S
O18 Zn19 2.035 . S
Zn19 O18 2.035 . S
Zn19 O20 2.028 . S
Zn19 O22 2.028 . S
Zn19 O25 2.035 . S
O20 Zn19 2.028 . S
O20 C26 1.247 . S
O21 Zn17 2.035 . S
O21 C26 1.258 . S
O22 C15 1.247 . S
O22 Zn19 2.028 . S
O23 C15 1.258 . S
O23 Zn17 2.035 . S
O24 Zn17 2.028 . S
O24 C27 1.247 . S
O25 Zn19 2.035 . S
O25 C27 1.258 . S
C26 O20 1.247 . S
C26 O21 1.258 . S
C27 O24 1.247 . S
C27 O25 1.258 . S
C28 O30 1.247 . S
C28 O32 1.258 . S
C29 O36 1.247 . S
C29 O37 1.258 . S
O30 C28 1.247 . S
O30 Zn31 2.028 . S
Zn31 O30 2.028 . S
Zn31 O35 2.035 . S
Zn31 O37 2.035 . S
Zn31 O38 2.028 . S
O32 C28 1.258 . S
O32 Zn33 2.035 . S
Zn33 O32 2.035 . S
Zn33 O34 2.028 . S
Zn33 O36 2.028 . S
Zn33 O39 2.035 . S
O34 Zn33 2.028 . S
O34 C40 1.247 . S
O35 Zn31 2.035 . S
O35 C40 1.258 . S
O36 C29 1.247 . S
O36 Zn33 2.028 . S
O37 C29 1.258 . S
O37 Zn31 2.035 . S
O38 Zn31 2.028 . S
O38 C41 1.247 . S
O39 Zn33 2.035 . S
O39 C41 1.258 . S
C40 O34 1.247 . S
C40 O35 1.258 . S
C41 O38 1.247 . S
C41 O39 1.258 . S
C42 O44 1.247 . S
C42 O46 1.258 . S
C43 O50 1.247 . S
C43 O51 1.258 . S
O44 C42 1.247 . S
O44 Zn45 2.028 . S
Zn45 O44 2.028 . S
Zn45 O49 2.035 . S
Zn45 O51 2.035 . S
Zn45 O52 2.028 . S
O46 C42 1.258 . S
O46 Zn47 2.035 . S
Zn47 O46 2.035 . S
Zn47 O48 2.028 . S
Zn47 O50 2.028 . S
Zn47 O53 2.035 . S
O48 Zn47 2.028 . S
O48 C54 1.247 . S
O49 Zn45 2.035 . S
O49 C54 1.258 . S
O50 C43 1.247 . S
O50 Zn47 2.028 . S
O51 C43 1.258 . S
O51 Zn45 2.035 . S
O52 Zn45 2.028 . S
O52 C55 1.247 . S
O53 Zn47 2.035 . S
O53 C55 1.258 . S
C54 O48 1.247 . S
C54 O49 1.258 . S
C55 O52 1.247 . S
C55 O53 1.258 . S
C56 O58 1.247 . S
C56 O60 1.258 . S
C57 O64 1.247 . S
C57 O65 1.258 . S
O58 C56 1.247 . S
O58 Zn59 2.028 . S
Zn59 O58 2.028 . S
Zn59 O63 2.035 . S
Zn59 O65 2.035 . S
Zn59 O66 2.028 . S
O60 C56 1.258 . S
O60 Zn61 2.035 . S
Zn61 O60 2.035 . S
Zn61 O62 2.028 . S
Zn61 O64 2.028 . S
Zn61 O67 2.035 . S
O62 Zn61 2.028 . S
O62 C68 1.247 . S
O63 Zn59 2.035 . S
O63 C68 1.258 . S
O64 C57 1.247 . S
O64 Zn61 2.028 . S
O65 C57 1.258 . S
O65 Zn59 2.035 . S
O66 Zn59 2.028 . S
O66 C69 1.247 . S
O67 Zn61 2.035 . S
O67 C69 1.258 . S
C68 O62 1.247 . S
C68 O63 1.258 . S
C69 O66 1.247 . S
C69 O67 1.258 . S
C70 O72 1.247 . S
C70 O74 1.258 . S
C71 O78 1.247 . S
C71 O79 1.258 . S
O72 C70 1.247 . S
O72 Zn73 2.028 . S
Zn73 O72 2.028 . S
Zn73 O77 2.035 . S
Zn73 O79 2.035 . S
Zn73 O80 2.028 . S
O74 C70 1.258 . S
O74 Zn75 2.035 . S
Zn75 O74 2.035 . S
Zn75 O76 2.028 . S
Zn75 O78 2.028 . S
Zn75 O81 2.035 . S
O76 Zn75 2.028 . S
O76 C82 1.247 . S
O77 Zn73 2.035 . S
O77 C82 1.258 . S
O78 C71 1.247 . S
O78 Zn75 2.028 . S
O79 C71 1.258 . S
O79 Zn73 2.035 . S
O80 Zn73 2.028 . S
O80 C83 1.247 . S
O81 Zn75 2.035 . S
O81 C83 1.258 . S
C82 O76 1.247 . S
C82 O77 1.258 . S
C83 O80 1.247 . S
C83 O81 1.258 . S
C84 O86 1.247 . S
C84 O88 1.258 . S
C85 O92 1.247 . S
C85 O93 1.258 . S
O86 C84 1.247 . S
O86 Zn87 2.028 . S
Zn87 O86 2.028 . S
Zn87 O91 2.035 . S
Zn87 O93 2.035 . S
Zn87 O94 2.028 . S
O88 C84 1.258 . S
O88 Zn89 2.035 . S
Zn89 O88 2.035 . S
Zn89 O90 2.028 . S
Zn89 O92 2.028 . S
Zn89 O95 2.035 . S
O90 Zn89 2.028 . S
O90 C96 1.247 . S
O91 Zn87 2.035 . S
O91 C96 1.258 . S
O92 C85 1.247 . S
O92 Zn89 2.028 . S
O93 C85 1.258 . S
O93 Zn87 2.035 . S
O94 Zn87 2.028 . S
O94 C97 1.247 . S
O95 Zn89 2.035 . S
O95 C97 1.258 . S
C96 O90 1.247 . S
C96 O91 1.258 . S
C97 O94 1.247 . S
C97 O95 1.258 . S
C98 O100 1.247 . S
C98 O102 1.258 . S
C99 O106 1.247 . S
C99 O107 1.258 . S
O100 C98 1.247 . S
O100 Zn101 2.028 . S
Zn101 O100 2.028 . S
Zn101 O105 2.035 . S
Zn101 O107 2.035 . S
Zn101 O108 2.028 . S
O102 C98 1.258 . S
O102 Zn103 2.035 . S
Zn103 O102 2.035 . S
Zn103 O104 2.028 . S
Zn103 O106 2.028 . S
Zn103 O109 2.035 . S
O104 Zn103 2.028 . S
O104 C110 1.247 . S
O105 Zn101 2.035 . S
O105 C110 1.258 . S
O106 C99 1.247 . S
O106 Zn103 2.028 . S
O107 C99 1.258 . S
O107 Zn101 2.035 . S
O108 Zn101 2.028 . S
O108 C111 1.247 . S
O109 Zn103 2.035 . S
O109 C111 1.258 . S
C110 O104 1.247 . S
C110 O105 1.258 . S
C111 O108 1.247 . S
C111 O109 1.258 . S
H112 C118 0.930 . S
H113 C121 0.930 . S
H114 C122 0.930 . S
H115 C123 0.930 . S
H116 C126 0.930 . S
H117 C127 0.930 . S
C118 H112 0.930 . S
C118 C119 1.355 . S
C118 C120 1.415 . S
C119 C118 1.355 . S
C119 C121 1.419 . S
C120 C118 1.415 . S
C120 C125 1.425 . S
C120 C127 1.409 . S
C121 H113 0.930 . S
C121 C119 1.419 . S
C121 C122 1.362 . S
C122 H114 0.930 . S
C122 C121 1.362 . S
C122 C125 1.409 . S
C123 H115 0.930 . S
C123 C124 1.355 . S
C123 C125 1.415 . S
C124 C123 1.355 . S
C124 C126 1.419 . S
C125 C120 1.425 . S
C125 C122 1.409 . S
C125 C123 1.415 . S
C126 H116 0.930 . S
C126 C124 1.419 . S
C126 C127 1.362 . S
C127 H117 0.930 . S
C127 C120 1.409 . S
C127 C126 1.362 . S
H128 C134 0.930 . S
H129 C137 0.930 . S
H130 C138 0.930 . S
H131 C139 0.930 . S
H132 C142 0.930 . S
H133 C143 0.930 . S
C134 H128 0.930 . S
C134 C135 1.355 . S
C134 C136 1.415 . S
C135 C134 1.355 . S
C135 C137 1.419 . S
C136 C134 1.415 . S
C136 C141 1.425 . S
C136 C143 1.409 . S
C137 H129 0.930 . S
C137 C135 1.419 . S
C137 C138 1.362 . S
C138 H130 0.930 . S
C138 C137 1.362 . S
C138 C141 1.409 . S
C139 H131 0.930 . S
C139 C140 1.355 . S
C139 C141 1.415 . S
C140 C139 1.355 . S
C140 C142 1.419 . S
C141 C136 1.425 . S
C141 C138 1.409 . S
C141 C139 1.415 . S
C142 H132 0.930 . S
C142 C140 1.419 . S
C142 C143 1.362 . S
C143 H133 0.930 . S
C143 C136 1.409 . S
C143 C142 1.362 . S
H144 C150 0.930 . S
H145 C153 0.930 . S
H146 C154 0.930 . S
H147 C155 0.930 . S
H148 C158 0.930 . S
H149 C159 0.930 . S
C150 H144 0.930 . S
C150 C151 1.355 . S
C150 C152 1.415 . S
C151 C150 1.355 . S
C151 C153 1.419 . S
C152 C150 1.415 . S
C152 C157 1.425 . S
C152 C159 1.409 . S
C153 H145 0.930 . S
C153 C151 1.419 . S
C153 C154 1.362 . S
C154 H146 0.930 . S
C154 C153 1.362 . S
C154 C157 1.409 . S
C155 H147 0.930 . S
C155 C156 1.355 . S
C155 C157 1.415 . S
C156 C155 1.355 . S
C156 C158 1.419 . S
C157 C152 1.425 . S
C157 C154 1.409 . S
C157 C155 1.415 . S
C158 H148 0.930 . S
C158 C156 1.419 . S
C158 C159 1.362 . S
C159 H149 0.930 . S
C159 C152 1.409 . S
C159 C158 1.362 . S
H160 C166 0.930 . S
H161 C169 0.930 . S
H162 C170 0.930 . S
H163 C171 0.930 . S
H164 C174 0.930 . S
H165 C175 0.930 . S
C166 H160 0.930 . S
C166 C167 1.355 . S
C166 C168 1.415 . S
C167 C166 1.355 . S
C167 C169 1.419 . S
C168 C166 1.415 . S
C168 C173 1.425 . S
C168 C175 1.409 . S
C169 H161 0.930 . S
C169 C167 1.419 . S
C169 C170 1.362 . S
C170 H162 0.930 . S
C170 C169 1.362 . S
C170 C173 1.409 . S
C171 H163 0.930 . S
C171 C172 1.355 . S
C171 C173 1.415 . S
C172 C171 1.355 . S
C172 C174 1.419 . S
C173 C168 1.425 . S
C173 C170 1.409 . S
C173 C171 1.415 . S
C174 H164 0.930 . S
C174 C172 1.419 . S
C174 C175 1.362 . S
C175 H165 0.930 . S
C175 C168 1.409 . S
C175 C174 1.362 . S
H176 C182 0.930 . S
H177 C185 0.930 1_556 S
H178 C186 0.930 . S
H179 C187 0.930 . S
H180 C190 0.930 . S
H181 C191 0.930 . S
C182 H176 0.930 . S
C182 C183 1.355 . S
C182 C184 1.415 . S
C183 C182 1.355 . S
C183 C185 1.419 . S
C184 C182 1.415 . S
C184 C189 1.425 . S
C184 C191 1.409 . S
C185 H177 0.930 1_554 S
C185 C183 1.419 . S
C185 C186 1.362 . S
C186 H178 0.930 . S
C186 C185 1.362 . S
C186 C189 1.409 . S
C187 H179 0.930 . S
C187 C188 1.355 . S
C187 C189 1.415 . S
C188 C187 1.355 . S
C188 C190 1.419 . S
C189 C184 1.425 . S
C189 C186 1.409 . S
C189 C187 1.415 . S
C190 H180 0.930 . S
C190 C188 1.419 . S
C190 C191 1.362 . S
C191 H181 0.930 . S
C191 C184 1.409 . S
C191 C190 1.362 . S
H192 C198 0.930 . S
H193 C201 0.930 . S
H194 C202 0.930 . S
H195 C203 0.930 . S
H196 C206 0.930 . S
H197 C207 0.930 . S
C198 H192 0.930 . S
C198 C199 1.355 . S
C198 C200 1.415 . S
C199 C198 1.355 . S
C199 C201 1.419 . S
C200 C198 1.415 . S
C200 C205 1.425 . S
C200 C207 1.409 . S
C201 H193 0.930 . S
C201 C199 1.419 . S
C201 C202 1.362 . S
C202 H194 0.930 . S
C202 C201 1.362 . S
C202 C205 1.409 . S
C203 H195 0.930 . S
C203 C204 1.355 . S
C203 C205 1.415 . S
C204 C203 1.355 . S
C204 C206 1.419 . S
C205 C200 1.425 . S
C205 C202 1.409 . S
C205 C203 1.415 . S
C206 H196 0.930 . S
C206 C204 1.419 . S
C206 C207 1.362 . S
C207 H197 0.930 . S
C207 C200 1.409 . S
C207 C206 1.362 . S
H208 C214 0.930 . S
H209 C217 0.930 . S
H210 C218 0.930 . S
H211 C219 0.930 . S
H212 C222 0.930 . S
H213 C223 0.930 . S
C214 H208 0.930 . S
C214 C215 1.355 . S
C214 C216 1.415 . S
C215 C214 1.355 . S
C215 C217 1.419 . S
C216 C214 1.415 . S
C216 C221 1.425 . S
C216 C223 1.409 . S
C217 H209 0.930 . S
C217 C215 1.419 . S
C217 C218 1.362 . S
C218 H210 0.930 . S
C218 C217 1.362 . S
C218 C221 1.409 . S
C219 H211 0.930 . S
C219 C220 1.355 . S
C219 C221 1.415 . S
C220 C219 1.355 . S
C220 C222 1.419 . S
C221 C216 1.425 . S
C221 C218 1.409 . S
C221 C219 1.415 . S
C222 H212 0.930 . S
C222 C220 1.419 . S
C222 C223 1.362 . S
C223 H213 0.930 . S
C223 C216 1.409 . S
C223 C222 1.362 . S
H224 C230 0.930 . S
H225 C233 0.930 . S
H226 C234 0.930 . S
H227 C235 0.930 . S
H228 C238 0.930 . S
H229 C239 0.930 . S
C230 H224 0.930 . S
C230 C231 1.355 . S
C230 C232 1.415 . S
C231 C230 1.355 . S
C231 C233 1.419 . S
C232 C230 1.415 . S
C232 C237 1.425 . S
C232 C239 1.409 . S
C233 H225 0.930 . S
C233 C231 1.419 . S
C233 C234 1.362 . S
C234 H226 0.930 . S
C234 C233 1.362 . S
C234 C237 1.409 . S
C235 H227 0.930 . S
C235 C236 1.355 . S
C235 C237 1.415 . S
C236 C235 1.355 . S
C236 C238 1.419 . S
C237 C232 1.425 . S
C237 C234 1.409 . S
C237 C235 1.415 . S
C238 H228 0.930 . S
C238 C236 1.419 . S
C238 C239 1.362 . S
C239 H229 0.930 . S
C239 C232 1.409 . S
C239 C238 1.362 . S
H240 C246 0.930 . S
H241 C249 0.930 . S
H242 C250 0.930 . S
H243 C251 0.930 . S
H244 C254 0.930 . S
H245 C255 0.930 . S
C246 H240 0.930 . S
C246 C247 1.355 . S
C246 C248 1.415 . S
C247 C246 1.355 . S
C247 C249 1.419 . S
C248 C246 1.415 . S
C248 C253 1.425 1_455 S
C248 C255 1.409 1_455 S
C249 H241 0.930 . S
C249 C247 1.419 . S
C249 C250 1.362 . S
C250 H242 0.930 . S
C250 C249 1.362 . S
C250 C253 1.409 1_455 S
C251 H243 0.930 . S
C251 C252 1.355 . S
C251 C253 1.415 . S
C252 C251 1.355 . S
C252 C254 1.419 . S
C253 C248 1.425 1_655 S
C253 C250 1.409 1_655 S
C253 C251 1.415 . S
C254 H244 0.930 . S
C254 C252 1.419 . S
C254 C255 1.362 . S
C255 H245 0.930 . S
C255 C248 1.409 1_655 S
C255 C254 1.362 . S
H256 C262 0.930 . S
H257 C265 0.930 . S
H258 C266 0.930 . S
H259 C267 0.930 . S
H260 C270 0.930 . S
H261 C271 0.930 . S
C262 H256 0.930 . S
C262 C263 1.355 . S
C262 C264 1.415 . S
C263 C262 1.355 . S
C263 C265 1.419 . S
C264 C262 1.415 . S
C264 C269 1.425 . S
C264 C271 1.409 . S
C265 H257 0.930 . S
C265 C263 1.419 . S
C265 C266 1.362 . S
C266 H258 0.930 . S
C266 C265 1.362 . S
C266 C269 1.409 . S
C267 H259 0.930 . S
C267 C268 1.355 . S
C267 C269 1.415 . S
C268 C267 1.355 . S
C268 C270 1.419 . S
C269 C264 1.425 . S
C269 C266 1.409 . S
C269 C267 1.415 . S
C270 H260 0.930 . S
C270 C268 1.419 . S
C270 C271 1.362 . S
C271 H261 0.930 . S
C271 C264 1.409 . S
C271 C270 1.362 . S
H272 C278 0.930 . S
H273 C281 0.930 . S
H274 C282 0.930 1_655 S
H275 C283 0.930 . S
H276 C286 0.930 . S
H277 C287 0.930 1_455 S
C278 H272 0.930 . S
C278 C279 1.355 . S
C278 C280 1.415 . S
C279 C278 1.355 . S
C279 C281 1.419 . S
C280 C278 1.415 . S
C280 C285 1.425 1_455 S
C280 C287 1.409 1_455 S
C281 H273 0.930 . S
C281 C279 1.419 . S
C281 C282 1.362 . S
C282 H274 0.930 1_455 S
C282 C281 1.362 . S
C282 C285 1.409 1_455 S
C283 H275 0.930 . S
C283 C284 1.355 . S
C283 C285 1.415 . S
C284 C283 1.355 . S
C284 C286 1.419 . S
C285 C280 1.425 1_655 S
C285 C282 1.409 1_655 S
C285 C283 1.415 . S
C286 H276 0.930 . S
C286 C284 1.419 . S
C286 C287 1.362 . S
C287 H277 0.930 1_655 S
C287 C280 1.409 1_655 S
C287 C286 1.362 . S
H288 C294 0.930 . S
H289 C297 0.930 . S
H290 C298 0.930 . S
H291 C299 0.930 . S
H292 C302 0.930 . S
H293 C303 0.930 . S
C294 H288 0.930 . S
C294 C295 1.355 . S
C294 C296 1.415 . S
C295 C294 1.355 . S
C295 C297 1.419 . S
C296 C294 1.415 . S
C296 C301 1.425 . S
C296 C303 1.409 . S
C297 H289 0.930 . S
C297 C295 1.419 . S
C297 C298 1.362 . S
C298 H290 0.930 . S
C298 C297 1.362 . S
C298 C301 1.409 . S
C299 H291 0.930 . S
C299 C300 1.355 . S
C299 C301 1.415 . S
C300 C299 1.355 . S
C300 C302 1.419 . S
C301 C296 1.425 . S
C301 C298 1.409 . S
C301 C299 1.415 . S
C302 H292 0.930 . S
C302 C300 1.419 . S
C302 C303 1.362 . S
C303 H293 0.930 . S
C303 C296 1.409 . S
C303 C302 1.362 . S
H304 C310 0.915 1_655 S
H305 C313 0.930 1_556 S
H306 C314 0.930 . S
H307 C315 0.915 1_455 S
H308 C318 0.930 1_554 S
H309 C319 0.930 . S
C310 H304 0.915 1_455 S
C310 C311 1.355 . S
C310 C312 1.415 1_455 S
C311 C310 1.355 . S
C311 C313 1.419 . S
C312 C310 1.415 1_655 S
C312 C317 1.425 1_644 S
C312 C319 1.409 . S
C313 H305 0.930 1_554 S
C313 C311 1.419 . S
C313 C314 1.362 1_544 S
C314 H306 0.930 . S
C314 C313 1.362 1_566 S
C314 C317 1.409 . S
C315 H307 0.915 1_655 S
C315 C316 1.355 . S
C315 C317 1.415 1_655 S
C316 C315 1.355 . S
C316 C318 1.419 . S
C317 C312 1.425 1_466 S
C317 C314 1.409 . S
C317 C315 1.415 1_455 S
C318 H308 0.930 1_556 S
C318 C316 1.419 . S
C318 C319 1.362 1_566 S
C319 H309 0.930 . S
C319 C312 1.409 . S
C319 C318 1.362 1_544 S
H320 C326 0.930 . S
H321 C329 0.930 . S
H322 C330 0.930 . S
H323 C331 0.930 . S
H324 C334 0.930 . S
H325 C335 0.930 . S
C326 H320 0.930 . S
C326 C327 1.355 . S
C326 C328 1.415 . S
C327 C326 1.355 . S
C327 C329 1.419 . S
C328 C326 1.415 . S
C328 C333 1.425 . S
C328 C335 1.409 . S
C329 H321 0.930 . S
C329 C327 1.419 . S
C329 C330 1.362 . S
C330 H322 0.930 . S
C330 C329 1.362 . S
C330 C333 1.409 . S
C331 H323 0.930 . S
C331 C332 1.355 . S
C331 C333 1.415 . S
C332 C331 1.355 . S
C332 C334 1.419 . S
C333 C328 1.425 . S
C333 C330 1.409 . S
C333 C331 1.415 . S
C334 H324 0.930 . S
C334 C332 1.419 . S
C334 C335 1.362 . S
C335 H325 0.930 . S
C335 C328 1.409 . S
C335 C334 1.362 . S
H336 C342 0.929 1_556 S
H337 C345 0.930 . S
H338 C346 0.930 . S
H339 C347 0.929 1_554 S
H340 C350 0.930 . S
H341 C351 0.930 . S
C342 H336 0.929 1_554 S
C342 C343 1.355 . S
C342 C344 1.415 1_554 S
C343 C342 1.355 . S
C343 C345 1.419 . S
C344 C342 1.415 1_556 S
C344 C349 1.425 1_556 S
C344 C351 1.409 . S
C345 H337 0.930 . S
C345 C343 1.419 . S
C345 C346 1.362 . S
C346 H338 0.930 . S
C346 C345 1.362 . S
C346 C349 1.409 . S
C347 H339 0.929 1_556 S
C347 C348 1.355 . S
C347 C349 1.415 1_556 S
C348 C347 1.355 . S
C348 C350 1.419 . S
C349 C344 1.425 1_554 S
C349 C346 1.409 . S
C349 C347 1.415 1_554 S
C350 H340 0.930 . S
C350 C348 1.419 . S
C350 C351 1.362 . S
C351 H341 0.930 . S
C351 C344 1.409 . S
C351 C350 1.362 . S
H352 C358 0.928 . S
H353 C361 0.930 . S
H354 C362 0.930 . S
H355 C363 0.928 . S
H356 C366 0.930 . S
H357 C367 0.930 . S
C358 H352 0.928 . S
C358 C359 1.355 . S
C358 C360 1.415 1_455 S
C359 C358 1.355 . S
C359 C361 1.419 . S
C360 C358 1.415 1_655 S
C360 C365 1.425 1_665 S
C360 C367 1.409 . S
C361 H353 0.930 . S
C361 C359 1.419 . S
C361 C362 1.362 1_565 S
C362 H354 0.930 . S
C362 C361 1.362 1_545 S
C362 C365 1.409 . S
C363 H355 0.928 . S
C363 C364 1.355 . S
C363 C365 1.415 1_655 S
C364 C363 1.355 . S
C364 C366 1.419 . S
C365 C360 1.425 1_445 S
C365 C362 1.409 . S
C365 C363 1.415 1_455 S
C366 H356 0.930 . S
C366 C364 1.419 . S
C366 C367 1.362 1_545 S
C367 H357 0.930 . S
C367 C360 1.409 . S
C367 C366 1.362 1_565 S
C119 C14 1.927 . S
C124 C13 1.979 1_556 S
C135 C0 1.916 . S
C140 C27 1.959 . S
C151 C42 1.898 . S
C156 C41 1.958 1_554 S
C167 C28 1.901 . S
C172 C55 1.957 . S
C183 C68 1.980 1_554 S
C188 C71 1.930 . S
C199 C82 1.957 . S
C204 C57 1.901 . S
C215 C96 1.965 1_556 S
C220 C99 1.929 . S
C231 C85 1.917 . S
C236 C110 1.975 . S
C247 C12 0.774 . S
C252 C54 0.769 . S
C263 C26 0.747 . S
C268 C40 0.743 . S
C279 C111 0.739 . S
C284 C69 0.736 . S
C295 C97 0.814 . S
C300 C83 0.813 . S
C311 C1 1.820 . S
C316 C56 1.820 . S
C327 C70 1.867 . S
C332 C15 1.867 . S
C343 C84 1.854 . S
C348 C29 1.854 . S
C359 C98 1.848 . S
C364 C43 1.848 . S
