# Generated by pormake.
# Topology lon, (4)-cn, num edge types: 1
# Building blocks:
#     Node 0, Type 0, BuildingBlock: CEKHIL_clean_sbu_0, # of connection points: 4
#     Node 1, Type 0, BuildingBlock: CEKHIL_clean_sbu_0, # of connection points: 4
#     Node 2, Type 0, BuildingBlock: CEKHIL_clean_sbu_0, # of connection points: 4
#     Node 3, Type 0, BuildingBlock: CEKHIL_clean_sbu_0, # of connection points: 4
#     Edge 4, Type (0, 0), BuildingBlock: UVAHIK_clean_linker_0, # of connection points: 2
#     Edge 5, Type (0, 0), BuildingBlock: UVAHIK_clean_linker_0, # of connection points: 2
#     Edge 6, Type (0, 0), BuildingBlock: UVAHIK_clean_linker_0, # of connection points: 2
#     Edge 7, Type (0, 0), BuildingBlock: UVAHIK_clean_linker_0, # of connection points: 2
#     Edge 8, Type (0, 0), BuildingBlock: UVAHIK_clean_linker_0, # of connection points: 2
#     Edge 9, Type (0, 0), BuildingBlock: UVAHIK_clean_linker_0, # of connection points: 2
#     Edge 10, Type (0, 0), BuildingBlock: UVAHIK_clean_linker_0, # of connection points: 2
#     Edge 11, Type (0, 0), BuildingBlock: UVAHIK_clean_linker_0, # of connection points: 2
# Relax obj value: 0.140
# Max RMSD: 0.174
# Mean RMSD: 0.173
data_MOF--net-lon--node1-CEKHIL_clean_sbu_0--edge1-UVAHIK_clean_linker_0
_symmetry_space_group_name_H-M    P1
_symmetry_Int_Tables_number       1
_symmetry_cell_setting            triclinic
loop_
_symmetry_equiv_pos_as_xyz
'x, y, z'
_cell_length_a     29.323229
_cell_length_b     32.03026
_cell_length_c     52.544674
_cell_angle_alpha  91.273569
_cell_angle_beta   90.221172
_cell_angle_gamma 117.30852
loop_
_atom_site_label
_atom_site_type_symbol
_atom_site_fract_x
_atom_site_fract_y
_atom_site_fract_z
_atom_type_partial_charge
Co0 Co 0.36373 0.70407 0.07515 0.0
O1 O 0.33549 0.72432 0.10347 0.0
O2 O 0.36062 0.66913 0.10514 0.0
C3 C 0.41899 0.77713 0.06255 0.0
O4 O 0.39716 0.67445 0.05173 0.0
Co5 Co 0.35816 0.72739 0.0185 0.0
O6 O 0.40804 0.70271 0.01232 0.0
C7 C 0.26628 0.65307 0.04292 0.0
C8 C 0.34291 0.69445 0.11706 0.0
C9 C 0.41498 0.67798 0.02906 0.0
O10 O 0.29228 0.65579 0.06335 0.0
O11 O 0.2851 0.68076 0.02431 0.0
O12 O 0.43087 0.75866 0.08162 0.0
O13 O 0.37355 0.75269 0.05297 0.0
Co14 Co 0.64876 0.33009 0.58041 0.0
O15 O 0.60075 0.30443 0.60796 0.0
O16 O 0.68388 0.32632 0.61091 0.0
C17 C 0.61963 0.38094 0.56782 0.0
O18 O 0.71165 0.36077 0.55772 0.0
Co19 Co 0.61601 0.32442 0.52351 0.0
O20 O 0.68925 0.36695 0.51756 0.0
C21 C 0.61704 0.24168 0.54712 0.0
C22 C 0.63986 0.31047 0.62211 0.0
C23 C 0.72317 0.37471 0.53472 0.0
O24 O 0.63564 0.26474 0.56827 0.0
O25 O 0.60459 0.25855 0.52801 0.0
O26 O 0.65124 0.39162 0.58711 0.0
O27 O 0.60431 0.33938 0.55795 0.0
Co28 Co 0.3227 0.67586 0.43453 0.0
O29 O 0.30214 0.70116 0.40593 0.0
O30 O 0.36053 0.67574 0.4045 0.0
C31 C 0.24214 0.62787 0.44754 0.0
O32 O 0.35313 0.64517 0.45844 0.0
Co33 Co 0.29691 0.68642 0.491 0.0
O34 O 0.32541 0.64269 0.49845 0.0
C35 C 0.38169 0.76621 0.46603 0.0
C36 C 0.33403 0.69247 0.39242 0.0
C37 C 0.35056 0.63275 0.48178 0.0
O38 O 0.37691 0.74124 0.44562 0.0
O39 O 0.35206 0.75147 0.48512 0.0
O40 O 0.2619 0.61501 0.42872 0.0
O41 O 0.26979 0.66988 0.4566 0.0
Co42 Co 0.65899 0.30009 0.93861 0.0
O43 O 0.60984 0.27606 0.91051 0.0
O44 O 0.68881 0.33379 0.90795 0.0
C45 C 0.64465 0.22899 0.95294 0.0
O46 O 0.72229 0.33309 0.96191 0.0
Co47 Co 0.6302 0.27987 0.99553 0.0
O48 O 0.70522 0.30873 1.0021 0.0
C49 C 0.6074 0.34873 0.96854 0.0
C50 C 0.64574 0.3062 0.89646 0.0
C51 C 0.73669 0.33228 0.98504 0.0
O52 O 0.63336 0.34713 0.94905 0.0
O53 O 0.59849 0.3217 0.98747 0.0
O54 O 0.67422 0.24672 0.93359 0.0
O55 O 0.62224 0.25266 0.96162 0.0
C56 C 0.35307 0.66542 0.15957 0.0
C57 C 0.33586 0.69197 0.14511 0.0
C58 C 0.35063 0.66579 0.18617 0.0
C59 C 0.33801 0.73506 0.24143 0.0
H60 H 0.31691 0.62422 0.27825 0.0
C61 C 0.31019 0.71782 0.3515 0.0
C62 C 0.33691 0.6974 0.36431 0.0
C63 C 0.30971 0.7188 0.32481 0.0
C64 C 0.32325 0.6556 0.26827 0.0
H65 H 0.30132 0.73893 0.14736 0.0
H66 H 0.29542 0.73845 0.19375 0.0
H67 H 0.3135 0.62097 0.23193 0.0
H68 H 0.38485 0.66277 0.35899 0.0
H69 H 0.38362 0.66416 0.3126 0.0
H70 H 0.34672 0.76921 0.27807 0.0
C71 C 0.31207 0.71816 0.18459 0.0
C72 C 0.32145 0.65384 0.24162 0.0
C73 C 0.31499 0.71812 0.15792 0.0
C74 C 0.36389 0.67881 0.3498 0.0
C75 C 0.36289 0.67928 0.32317 0.0
C76 C 0.3392 0.73662 0.26815 0.0
C77 C 0.33035 0.69235 0.19916 0.0
C78 C 0.32944 0.69369 0.22772 0.0
C79 C 0.33534 0.6988 0.3103 0.0
C80 C 0.33246 0.69707 0.28189 0.0
H81 H 0.36981 0.64518 0.1504 0.0
H82 H 0.36603 0.64612 0.19654 0.0
H83 H 0.3451 0.76673 0.23157 0.0
H84 H 0.28894 0.73239 0.36209 0.0
H85 H 0.28796 0.73394 0.31549 0.0
C86 C 0.67402 0.29967 0.6641 0.0
C87 C 0.63546 0.30385 0.65005 0.0
C88 C 0.67178 0.29722 0.69071 0.0
C89 C 0.62642 0.33677 0.74583 0.0
H90 H 0.63923 0.23889 0.7826 0.0
C91 C 0.67224 0.34606 0.85454 0.0
C92 C 0.63951 0.30672 0.86841 0.0
C93 C 0.66877 0.34526 0.82789 0.0
C94 C 0.63549 0.26637 0.77256 0.0
H95 H 0.56422 0.30855 0.65295 0.0
H96 H 0.56118 0.30564 0.69948 0.0
H97 H 0.63918 0.23717 0.73587 0.0
H98 H 0.57744 0.23569 0.86518 0.0
H99 H 0.57247 0.23388 0.81856 0.0
H100 H 0.62434 0.36678 0.78252 0.0
C101 C 0.59274 0.30367 0.68983 0.0
C102 C 0.63572 0.2655 0.74587 0.0
C103 C 0.59435 0.30502 0.66319 0.0
C104 C 0.60297 0.26668 0.85506 0.0
C105 C 0.60032 0.2655 0.82838 0.0
C106 C 0.6274 0.33824 0.77252 0.0
C107 C 0.63158 0.30003 0.70388 0.0
C108 C 0.63098 0.3006 0.73222 0.0
C109 C 0.63334 0.30471 0.81451 0.0
C110 C 0.63175 0.30296 0.78617 0.0
H111 H 0.70623 0.29878 0.65453 0.0
H112 H 0.70232 0.29459 0.70108 0.0
H113 H 0.62304 0.36444 0.7358 0.0
H114 H 0.70083 0.37739 0.86427 0.0
H115 H 0.69482 0.37592 0.81768 0.0
C116 C 0.44258 0.61613 0.03797 0.0
C117 C 0.44197 0.65008 0.02167 0.0
C118 C 0.46528 0.5879 0.03046 0.0
C119 C 0.50545 0.54386 0.97322 0.0
H120 H 0.5729 0.50426 0.02389 0.0
C121 C 0.60293 0.42144 0.95327 0.0
C122 C 0.58858 0.38466 0.97054 0.0
C123 C 0.58829 0.45717 0.95728 0.0
C124 C 0.55419 0.51505 0.00951 0.0
H125 H 0.46607 0.68157 0.98479 0.0
H126 H 0.50658 0.63295 0.97196 0.0
H127 H 0.54339 0.56162 0.03567 0.0
H128 H 0.5452 0.35577 1.00486 0.0
H129 H 0.52056 0.41748 0.01168 0.0
H130 H 0.51654 0.49678 0.9471 0.0
C131 C 0.48856 0.62752 0.99037 0.0
C132 C 0.53699 0.54774 0.01628 0.0
C133 C 0.46557 0.65564 0.99783 0.0
C134 C 0.5578 0.38368 0.99127 0.0
C135 C 0.5437 0.41925 0.99532 0.0
C136 C 0.52314 0.51129 0.96637 0.0
C137 C 0.48843 0.59305 1.00652 0.0
C138 C 0.51119 0.56174 0.99844 0.0
C139 C 0.55953 0.45687 0.97873 0.0
C140 C 0.54651 0.49569 0.98465 0.0
H141 H 0.42451 0.61054 0.05638 0.0
H142 H 0.46353 0.5612 0.04327 0.0
H143 H 0.48549 0.55356 0.95898 0.0
H144 H 0.6265 0.42329 0.93709 0.0
H145 H 0.60081 0.48577 0.94412 0.0
C146 C 0.15416 0.55924 0.44384 0.0
C147 C 0.19145 0.59693 0.45826 0.0
C148 C 0.10475 0.53286 0.45338 0.0
C149 C 0.01738 0.53986 0.50311 0.0
H150 H 0.93403 0.40867 0.48385 0.0
C151 C 0.81711 0.42233 0.54568 0.0
C152 C 0.7779 0.39887 0.52739 0.0
C153 C 0.86861 0.44513 0.53841 0.0
C154 C 0.95696 0.44533 0.48936 0.0
H155 H 0.2072 0.63509 0.49445 0.0
H156 H 0.12253 0.58798 0.51158 0.0
H157 H 0.02247 0.44979 0.46946 0.0
H158 H 0.76219 0.38008 0.48721 0.0
H159 H 0.85194 0.41895 0.47473 0.0
H160 H 0.95183 0.53472 0.52348 0.0
C161 C 0.1302 0.57971 0.49248 0.0
C162 C 0.00758 0.46908 0.48098 0.0
C163 C 0.1791 0.60657 0.48275 0.0
C164 C 0.79138 0.39811 0.50177 0.0
C165 C 0.84279 0.42004 0.49461 0.0
C166 C 0.96711 0.51585 0.51185 0.0
C167 C 0.09186 0.54308 0.47776 0.0
C168 C 0.03844 0.51689 0.48752 0.0
C169 C 0.8819 0.44398 0.51281 0.0
C170 C 0.93623 0.46852 0.50483 0.0
H171 H 0.16256 0.55121 0.42483 0.0
H172 H 0.07634 0.50543 0.44125 0.0
H173 H 0.03919 0.57683 0.50815 0.0
H174 H 0.80798 0.42356 0.56555 0.0
H175 H 0.89812 0.46329 0.55281 0.0
C176 C 0.63203 0.18112 0.99139 0.0
C177 C 0.63696 0.18502 0.9649 0.0
C178 C 0.61869 0.13822 1.00285 0.0
C179 C 0.59636 0.01402 0.98972 0.0
H180 H 0.51071 0.99027 0.04914 0.0
C181 C 0.45028 0.83123 0.02603 0.0
C182 C 0.45486 0.82265 0.0518 0.0
C183 C 0.48086 0.8754 0.01607 0.0
C184 C 0.53514 0.99665 0.03276 0.0
H185 H 0.6329 0.14756 0.92955 0.0
H186 H 0.60645 0.07168 0.9492 0.0
H187 H 0.547 0.06716 0.03026 0.0
H188 H 0.49548 0.85327 0.08729 0.0
H189 H 0.5477 0.93163 0.07002 0.0
H190 H 0.58053 0.94164 0.99149 0.0
C191 C 0.61476 0.10199 0.96145 0.0
C192 C 0.5564 0.04095 0.02192 0.0
C193 C 0.62973 0.14547 0.95007 0.0
C194 C 0.49142 0.8589 0.06734 0.0
C195 C 0.5211 0.90361 0.05751 0.0
C196 C 0.57393 0.96929 1.00024 0.0
C197 C 0.60802 0.09748 0.98803 0.0
C198 C 0.58732 0.05045 1.00015 0.0
C199 C 0.51573 0.91224 0.03183 0.0
C200 C 0.54307 0.96027 0.02182 0.0
H201 H 0.63799 0.21124 1.00332 0.0
H202 H 0.61595 0.13707 0.02337 0.0
H203 H 0.62056 0.01979 0.97333 0.0
H204 H 0.42255 0.80395 0.01358 0.0
H205 H 0.47576 0.88133 0.99628 0.0
C206 C 0.57848 0.40543 0.5335 0.0
C207 C 0.60054 0.41309 0.55805 0.0
C208 C 0.5562 0.43291 0.52482 0.0
C209 C 0.48929 0.4968 0.54782 0.0
H210 H 0.5156 0.55309 0.48145 0.0
C211 C 0.39319 0.6091 0.51593 0.0
C212 C 0.3801 0.60811 0.49008 0.0
C213 C 0.42234 0.58735 0.52397 0.0
C214 C 0.50709 0.53699 0.49987 0.0
H215 H 0.61747 0.45607 0.5926 0.0
H216 H 0.57715 0.50353 0.5776 0.0
H217 H 0.56391 0.51274 0.49581 0.0
H218 H 0.38702 0.58289 0.45241 0.0
H219 H 0.43599 0.54306 0.46651 0.0
H220 H 0.43104 0.51879 0.55167 0.0
C221 C 0.57763 0.47644 0.56506 0.0
C222 C 0.53516 0.51423 0.50816 0.0
C223 C 0.6009 0.44951 0.57357 0.0
C224 C 0.39661 0.58446 0.47245 0.0
C225 C 0.4251 0.56193 0.48057 0.0
C226 C 0.4606 0.5188 0.5394 0.0
C227 C 0.55462 0.46806 0.54069 0.0
C228 C 0.5266 0.494 0.53224 0.0
C229 C 0.43855 0.56317 0.50647 0.0
C230 C 0.4691 0.53937 0.51531 0.0
H231 H 0.57771 0.37766 0.52108 0.0
H232 H 0.53849 0.4255 0.50603 0.0
H233 H 0.48129 0.48078 0.56629 0.0
H234 H 0.38177 0.62757 0.53001 0.0
H235 H 0.43277 0.59021 0.54395 0.0
C236 C 0.18271 0.5906 0.06037 0.0
C237 C 0.21207 0.61622 0.0398 0.0
C238 C 0.13069 0.55802 0.05669 0.0
C239 C 0.02256 0.53189 0.0119 0.0
H240 H 0.95991 0.40728 0.03986 0.0
C241 C 0.82735 0.38973 0.97458 0.0
C242 C 0.79153 0.36159 0.99248 0.0
C243 C 0.87825 0.41933 0.98191 0.0
C244 C 0.97673 0.44216 0.03213 0.0
H245 H 0.21007 0.62554 0.999 0.0
H246 H 0.12101 0.56936 0.99278 0.0
H247 H 0.04937 0.46202 0.05082 0.0
H248 H 0.78196 0.34186 0.03213 0.0
H249 H 0.87067 0.39374 0.04485 0.0
H250 H 0.95062 0.5124 0.99308 0.0
C251 C 0.13731 0.57509 0.01185 0.0
C252 C 0.02792 0.47351 0.03846 0.0
C253 C 0.18871 0.60734 0.01547 0.0
C254 C 0.80836 0.36303 0.01779 0.0
C255 C 0.85936 0.39263 0.02511 0.0
C256 C 0.9717 0.50073 1.00558 0.0
C257 C 0.10728 0.55064 0.0324 0.0
C258 C 0.05168 0.51844 0.02799 0.0
C259 C 0.89476 0.42163 1.00733 0.0
C260 C 0.94834 0.45518 0.01523 0.0
H261 H 0.19951 0.59645 0.07932 0.0
H262 H 0.1085 0.5396 0.07291 0.0
H263 H 0.03928 0.56663 1.00397 0.0
H264 H 0.81602 0.38941 0.95491 0.0
H265 H 0.90474 0.44055 0.96761 0.0
C266 C 0.63402 0.18358 0.52265 0.0
C267 C 0.6105 0.19355 0.54348 0.0
C268 C 0.61951 0.13719 0.51486 0.0
C269 C 0.54153 0.01177 0.53233 0.0
H270 H 0.52929 0.99189 0.459 0.0
C271 C 0.45921 0.82516 0.48883 0.0
C272 C 0.42364 0.81438 0.46874 0.0
C273 C 0.49067 0.87182 0.49645 0.0
C274 C 0.53222 0.99669 0.47951 0.0
H275 H 0.55472 0.16333 0.57311 0.0
H276 H 0.5281 0.08181 0.55924 0.0
H277 H 0.56667 0.07137 0.47697 0.0
H278 H 0.39372 0.84338 0.44028 0.0
H279 H 0.44802 0.92523 0.45374 0.0
H280 H 0.50434 0.93699 0.53488 0.0
C281 C 0.55876 0.1097 0.54921 0.0
C282 C 0.55444 0.04246 0.48989 0.0
C283 C 0.57398 0.15635 0.55726 0.0
C284 C 0.42177 0.85103 0.45546 0.0
C285 C 0.45281 0.89788 0.4633 0.0
C286 C 0.51893 0.96597 0.52195 0.0
C287 C 0.58018 0.0996 0.52736 0.0
C288 C 0.55913 0.05069 0.51646 0.0
C289 C 0.48641 0.90878 0.4845 0.0
C290 C 0.51362 0.95775 0.49538 0.0
H291 H 0.66219 0.21186 0.5117 0.0
H292 H 0.63795 0.13093 0.49844 0.0
H293 H 0.54484 0.01659 0.55284 0.0
H294 H 0.46084 0.79728 0.4995 0.0
H295 H 0.51692 0.87877 0.51238 0.0
loop_
_geom_bond_atom_site_label_1
_geom_bond_atom_site_label_2
_geom_bond_distance
_geom_bond_site_symmetry_2
_ccdc_geom_bond_type
Co0 O1 2.216 . S
Co0 O2 2.091 . S
Co0 O4 2.004 . S
Co0 O10 2.021 . S
Co0 O12 2.137 . S
Co0 O13 2.244 . S
O1 Co0 2.216 . S
O1 C8 1.247 . S
O2 Co0 2.091 . S
O2 C8 1.261 . S
C3 O12 1.247 . S
C3 O13 1.272 . S
O4 Co0 2.004 . S
O4 C9 1.259 . S
Co5 O6 2.061 . S
Co5 O11 2.052 . S
Co5 O13 2.135 . S
O6 Co5 2.061 . S
O6 C9 1.235 . S
C7 O10 1.238 . S
C7 O11 1.241 . S
C8 O1 1.247 . S
C8 O2 1.261 . S
C9 O4 1.259 . S
C9 O6 1.235 . S
O10 Co0 2.021 . S
O10 C7 1.238 . S
O11 Co5 2.052 . S
O11 C7 1.241 . S
O12 Co0 2.137 . S
O12 C3 1.247 . S
O13 Co0 2.244 . S
O13 C3 1.272 . S
O13 Co5 2.135 . S
Co14 O15 2.216 . S
Co14 O16 2.091 . S
Co14 O18 2.004 . S
Co14 O24 2.021 . S
Co14 O26 2.137 . S
Co14 O27 2.244 . S
O15 Co14 2.216 . S
O15 C22 1.247 . S
O16 Co14 2.091 . S
O16 C22 1.261 . S
C17 O26 1.247 . S
C17 O27 1.272 . S
O18 Co14 2.004 . S
O18 C23 1.259 . S
Co19 O20 2.061 . S
Co19 O25 2.052 . S
Co19 O27 2.135 . S
O20 Co19 2.061 . S
O20 C23 1.235 . S
C21 O24 1.238 . S
C21 O25 1.241 . S
C22 O15 1.247 . S
C22 O16 1.261 . S
C23 O18 1.259 . S
C23 O20 1.235 . S
O24 Co14 2.021 . S
O24 C21 1.238 . S
O25 Co19 2.052 . S
O25 C21 1.241 . S
O26 Co14 2.137 . S
O26 C17 1.247 . S
O27 Co14 2.244 . S
O27 C17 1.272 . S
O27 Co19 2.135 . S
Co28 O29 2.216 . S
Co28 O30 2.091 . S
Co28 O32 2.004 . S
Co28 O38 2.021 . S
Co28 O40 2.137 . S
Co28 O41 2.244 . S
O29 Co28 2.216 . S
O29 C36 1.247 . S
O30 Co28 2.091 . S
O30 C36 1.261 . S
C31 O40 1.247 . S
C31 O41 1.272 . S
O32 Co28 2.004 . S
O32 C37 1.259 . S
Co33 O34 2.061 . S
Co33 O39 2.052 . S
Co33 O41 2.135 . S
O34 Co33 2.061 . S
O34 C37 1.235 . S
C35 O38 1.238 . S
C35 O39 1.241 . S
C36 O29 1.247 . S
C36 O30 1.261 . S
C37 O32 1.259 . S
C37 O34 1.235 . S
O38 Co28 2.021 . S
O38 C35 1.238 . S
O39 Co33 2.052 . S
O39 C35 1.241 . S
O40 Co28 2.137 . S
O40 C31 1.247 . S
O41 Co28 2.244 . S
O41 C31 1.272 . S
O41 Co33 2.135 . S
Co42 O43 2.216 . S
Co42 O44 2.091 . S
Co42 O46 2.004 . S
Co42 O52 2.021 . S
Co42 O54 2.137 . S
Co42 O55 2.244 . S
O43 Co42 2.216 . S
O43 C50 1.247 . S
O44 Co42 2.091 . S
O44 C50 1.261 . S
C45 O54 1.247 . S
C45 O55 1.272 . S
O46 Co42 2.004 . S
O46 C51 1.259 . S
Co47 O48 2.061 . S
Co47 O53 2.052 . S
Co47 O55 2.135 . S
O48 Co47 2.061 . S
O48 C51 1.235 . S
C49 O52 1.238 . S
C49 O53 1.241 . S
C50 O43 1.247 . S
C50 O44 1.261 . S
C51 O46 1.259 . S
C51 O48 1.235 . S
O52 Co42 2.021 . S
O52 C49 1.238 . S
O53 Co47 2.052 . S
O53 C49 1.241 . S
O54 Co42 2.137 . S
O54 C45 1.247 . S
O55 Co42 2.244 . S
O55 C45 1.272 . S
O55 Co47 2.135 . S
C56 C57 1.349 . S
C56 C58 1.327 . S
C56 H81 0.950 . S
C57 C56 1.349 . S
C57 C73 1.349 . S
C58 C56 1.327 . S
C58 C77 1.429 . S
C58 H82 0.950 . S
C59 C76 1.574 . S
C59 C78 1.368 . S
C59 H83 0.949 . S
H60 C64 0.949 . S
C61 C62 1.349 . S
C61 C63 1.327 . S
C61 H84 0.950 . S
C62 C61 1.349 . S
C62 C74 1.349 . S
C63 C61 1.327 . S
C63 C79 1.429 . S
C63 H85 0.950 . S
C64 H60 0.949 . S
C64 C72 1.574 . S
C64 C80 1.368 . S
H65 C73 0.950 . S
H66 C71 0.950 . S
H67 C72 0.949 . S
H68 C74 0.950 . S
H69 C75 0.950 . S
H70 C76 0.949 . S
C71 H66 0.950 . S
C71 C73 1.327 . S
C71 C77 1.429 . S
C72 C64 1.574 . S
C72 H67 0.949 . S
C72 C78 1.368 . S
C73 C57 1.349 . S
C73 H65 0.950 . S
C73 C71 1.327 . S
C74 C62 1.349 . S
C74 H68 0.950 . S
C74 C75 1.327 . S
C75 H69 0.950 . S
C75 C74 1.327 . S
C75 C79 1.429 . S
C76 C59 1.574 . S
C76 H70 0.949 . S
C76 C80 1.368 . S
C77 C58 1.429 . S
C77 C71 1.429 . S
C77 C78 1.523 . S
C78 C59 1.368 . S
C78 C72 1.368 . S
C78 C77 1.523 . S
C79 C63 1.429 . S
C79 C75 1.429 . S
C79 C80 1.523 . S
C80 C64 1.368 . S
C80 C76 1.368 . S
C80 C79 1.523 . S
H81 C56 0.950 . S
H82 C58 0.950 . S
H83 C59 0.949 . S
H84 C61 0.950 . S
H85 C63 0.950 . S
C86 C87 1.349 . S
C86 C88 1.327 . S
C86 H111 0.950 . S
C87 C86 1.349 . S
C87 C103 1.349 . S
C88 C86 1.327 . S
C88 C107 1.429 . S
C88 H112 0.950 . S
C89 C106 1.574 . S
C89 C108 1.368 . S
C89 H113 0.949 . S
H90 C94 0.949 . S
C91 C92 1.349 . S
C91 C93 1.327 . S
C91 H114 0.950 . S
C92 C91 1.349 . S
C92 C104 1.349 . S
C93 C91 1.327 . S
C93 C109 1.429 . S
C93 H115 0.950 . S
C94 H90 0.949 . S
C94 C102 1.574 . S
C94 C110 1.368 . S
H95 C103 0.950 . S
H96 C101 0.950 . S
H97 C102 0.949 . S
H98 C104 0.950 . S
H99 C105 0.950 . S
H100 C106 0.949 . S
C101 H96 0.950 . S
C101 C103 1.327 . S
C101 C107 1.429 . S
C102 C94 1.574 . S
C102 H97 0.949 . S
C102 C108 1.368 . S
C103 C87 1.349 . S
C103 H95 0.950 . S
C103 C101 1.327 . S
C104 C92 1.349 . S
C104 H98 0.950 . S
C104 C105 1.327 . S
C105 H99 0.950 . S
C105 C104 1.327 . S
C105 C109 1.429 . S
C106 C89 1.574 . S
C106 H100 0.949 . S
C106 C110 1.368 . S
C107 C88 1.429 . S
C107 C101 1.429 . S
C107 C108 1.523 . S
C108 C89 1.368 . S
C108 C102 1.368 . S
C108 C107 1.523 . S
C109 C93 1.429 . S
C109 C105 1.429 . S
C109 C110 1.523 . S
C110 C94 1.368 . S
C110 C106 1.368 . S
C110 C109 1.523 . S
H111 C86 0.950 . S
H112 C88 0.950 . S
H113 C89 0.949 . S
H114 C91 0.950 . S
H115 C93 0.950 . S
C116 C117 1.349 . S
C116 C118 1.327 . S
C116 H141 0.950 . S
C117 C116 1.349 . S
C117 C133 1.349 . S
C118 C116 1.327 . S
C118 C137 1.429 . S
C118 H142 0.950 . S
C119 C136 1.574 . S
C119 C138 1.368 . S
C119 H143 0.949 . S
H120 C124 0.949 . S
C121 C122 1.349 . S
C121 C123 1.327 . S
C121 H144 0.950 . S
C122 C121 1.349 . S
C122 C134 1.349 . S
C123 C121 1.327 . S
C123 C139 1.429 . S
C123 H145 0.950 . S
C124 H120 0.949 . S
C124 C132 1.574 1_556 S
C124 C140 1.368 . S
H125 C133 0.950 . S
H126 C131 0.950 1_556 S
H127 C132 0.949 . S
H128 C134 0.950 . S
H129 C135 0.950 . S
H130 C136 0.949 . S
C131 H126 0.950 1_554 S
C131 C133 1.327 . S
C131 C137 1.429 . S
C132 C124 1.574 1_554 S
C132 H127 0.949 . S
C132 C138 1.368 1_554 S
C133 C117 1.349 . S
C133 H125 0.950 . S
C133 C131 1.327 . S
C134 C122 1.349 . S
C134 H128 0.950 . S
C134 C135 1.327 . S
C135 H129 0.950 . S
C135 C134 1.327 . S
C135 C139 1.429 . S
C136 C119 1.574 . S
C136 H130 0.949 . S
C136 C140 1.368 . S
C137 C118 1.429 . S
C137 C131 1.429 . S
C137 C138 1.523 1_554 S
C138 C119 1.368 . S
C138 C132 1.368 1_556 S
C138 C137 1.523 1_556 S
C139 C123 1.429 . S
C139 C135 1.429 . S
C139 C140 1.523 . S
C140 C124 1.368 . S
C140 C136 1.368 . S
C140 C139 1.523 . S
H141 C116 0.950 . S
H142 C118 0.950 . S
H143 C119 0.949 . S
H144 C121 0.950 . S
H145 C123 0.950 . S
C146 C147 1.349 . S
C146 C148 1.327 . S
C146 H171 0.950 . S
C147 C146 1.349 . S
C147 C163 1.349 . S
C148 C146 1.327 . S
C148 C167 1.429 . S
C148 H172 0.950 . S
C149 C166 1.574 1_455 S
C149 C168 1.368 . S
C149 H173 0.949 . S
H150 C154 0.949 . S
C151 C152 1.349 . S
C151 C153 1.327 . S
C151 H174 0.950 . S
C152 C151 1.349 . S
C152 C164 1.349 . S
C153 C151 1.327 . S
C153 C169 1.429 . S
C153 H175 0.950 . S
C154 H150 0.949 . S
C154 C162 1.574 1_655 S
C154 C170 1.368 . S
H155 C163 0.950 . S
H156 C161 0.950 . S
H157 C162 0.949 . S
H158 C164 0.950 . S
H159 C165 0.950 . S
H160 C166 0.949 . S
C161 H156 0.950 . S
C161 C163 1.327 . S
C161 C167 1.429 . S
C162 C154 1.574 1_455 S
C162 H157 0.949 . S
C162 C168 1.368 . S
C163 C147 1.349 . S
C163 H155 0.950 . S
C163 C161 1.327 . S
C164 C152 1.349 . S
C164 H158 0.950 . S
C164 C165 1.327 . S
C165 H159 0.950 . S
C165 C164 1.327 . S
C165 C169 1.429 . S
C166 C149 1.574 1_655 S
C166 H160 0.949 . S
C166 C170 1.368 . S
C167 C148 1.429 . S
C167 C161 1.429 . S
C167 C168 1.523 . S
C168 C149 1.368 . S
C168 C162 1.368 . S
C168 C167 1.523 . S
C169 C153 1.429 . S
C169 C165 1.429 . S
C169 C170 1.523 . S
C170 C154 1.368 . S
C170 C166 1.368 . S
C170 C169 1.523 . S
H171 C146 0.950 . S
H172 C148 0.950 . S
H173 C149 0.949 . S
H174 C151 0.950 . S
H175 C153 0.950 . S
C176 C177 1.349 . S
C176 C178 1.327 . S
C176 H201 0.950 . S
C177 C176 1.349 . S
C177 C193 1.349 . S
C178 C176 1.327 . S
C178 C197 1.429 . S
C178 H202 0.950 1_556 S
C179 C196 1.574 1_545 S
C179 C198 1.368 . S
C179 H203 0.949 . S
H180 C184 0.949 . S
C181 C182 1.349 . S
C181 C183 1.327 . S
C181 H204 0.950 . S
C182 C181 1.349 . S
C182 C194 1.349 . S
C183 C181 1.327 . S
C183 C199 1.429 . S
C183 H205 0.950 1_554 S
C184 H180 0.949 . S
C184 C192 1.574 1_565 S
C184 C200 1.368 . S
H185 C193 0.950 . S
H186 C191 0.950 . S
H187 C192 0.949 . S
H188 C194 0.950 . S
H189 C195 0.950 . S
H190 C196 0.949 . S
C191 H186 0.950 . S
C191 C193 1.327 . S
C191 C197 1.429 . S
C192 C184 1.574 1_545 S
C192 H187 0.949 . S
C192 C198 1.368 1_554 S
C193 C177 1.349 . S
C193 H185 0.950 . S
C193 C191 1.327 . S
C194 C182 1.349 . S
C194 H188 0.950 . S
C194 C195 1.327 . S
C195 H189 0.950 . S
C195 C194 1.327 . S
C195 C199 1.429 . S
C196 C179 1.574 1_565 S
C196 H190 0.949 . S
C196 C200 1.368 1_556 S
C197 C178 1.429 . S
C197 C191 1.429 . S
C197 C198 1.523 . S
C198 C179 1.368 . S
C198 C192 1.368 1_556 S
C198 C197 1.523 . S
C199 C183 1.429 . S
C199 C195 1.429 . S
C199 C200 1.523 . S
C200 C184 1.368 . S
C200 C196 1.368 1_554 S
C200 C199 1.523 . S
H201 C176 0.950 . S
H202 C178 0.950 1_554 S
H203 C179 0.949 . S
H204 C181 0.950 . S
H205 C183 0.950 1_556 S
C206 C207 1.349 . S
C206 C208 1.327 . S
C206 H231 0.950 . S
C207 C206 1.349 . S
C207 C223 1.349 . S
C208 C206 1.327 . S
C208 C227 1.429 . S
C208 H232 0.950 . S
C209 C226 1.574 . S
C209 C228 1.368 . S
C209 H233 0.949 . S
H210 C214 0.949 . S
C211 C212 1.349 . S
C211 C213 1.327 . S
C211 H234 0.950 . S
C212 C211 1.349 . S
C212 C224 1.349 . S
C213 C211 1.327 . S
C213 C229 1.429 . S
C213 H235 0.950 . S
C214 H210 0.949 . S
C214 C222 1.574 . S
C214 C230 1.368 . S
H215 C223 0.950 . S
H216 C221 0.950 . S
H217 C222 0.949 . S
H218 C224 0.950 . S
H219 C225 0.950 . S
H220 C226 0.949 . S
C221 H216 0.950 . S
C221 C223 1.327 . S
C221 C227 1.429 . S
C222 C214 1.574 . S
C222 H217 0.949 . S
C222 C228 1.368 . S
C223 C207 1.349 . S
C223 H215 0.950 . S
C223 C221 1.327 . S
C224 C212 1.349 . S
C224 H218 0.950 . S
C224 C225 1.327 . S
C225 H219 0.950 . S
C225 C224 1.327 . S
C225 C229 1.429 . S
C226 C209 1.574 . S
C226 H220 0.949 . S
C226 C230 1.368 . S
C227 C208 1.429 . S
C227 C221 1.429 . S
C227 C228 1.523 . S
C228 C209 1.368 . S
C228 C222 1.368 . S
C228 C227 1.523 . S
C229 C213 1.429 . S
C229 C225 1.429 . S
C229 C230 1.523 . S
C230 C214 1.368 . S
C230 C226 1.368 . S
C230 C229 1.523 . S
H231 C206 0.950 . S
H232 C208 0.950 . S
H233 C209 0.949 . S
H234 C211 0.950 . S
H235 C213 0.950 . S
C236 C237 1.349 . S
C236 C238 1.327 . S
C236 H261 0.950 . S
C237 C236 1.349 . S
C237 C253 1.349 . S
C238 C236 1.327 . S
C238 C257 1.429 . S
C238 H262 0.950 . S
C239 C256 1.574 1_455 S
C239 C258 1.368 1_556 S
C239 H263 0.949 . S
H240 C244 0.949 . S
C241 C242 1.349 . S
C241 C243 1.327 . S
C241 H264 0.950 . S
C242 C241 1.349 . S
C242 C254 1.360 . S
C243 C241 1.327 . S
C243 C259 1.429 . S
C243 H265 0.950 . S
C244 H240 0.949 . S
C244 C252 1.574 1_655 S
C244 C260 1.368 . S
H245 C253 0.950 . S
H246 C251 0.950 1_556 S
H247 C252 0.949 . S
H248 C254 0.942 1_554 S
H249 C255 0.950 . S
H250 C256 0.949 . S
C251 H246 0.950 1_554 S
C251 C253 1.327 . S
C251 C257 1.429 . S
C252 C244 1.574 1_455 S
C252 H247 0.949 . S
C252 C258 1.368 . S
C253 C237 1.349 . S
C253 H245 0.950 . S
C253 C251 1.327 . S
C254 C242 1.360 . S
C254 H248 0.942 1_556 S
C254 C255 1.323 1_556 S
C255 H249 0.950 . S
C255 C254 1.323 1_554 S
C255 C259 1.429 1_554 S
C256 C239 1.574 1_655 S
C256 H250 0.949 . S
C256 C260 1.368 1_556 S
C257 C238 1.429 . S
C257 C251 1.429 . S
C257 C258 1.523 . S
C258 C239 1.368 1_554 S
C258 C252 1.368 . S
C258 C257 1.523 . S
C259 C243 1.429 . S
C259 C255 1.429 1_556 S
C259 C260 1.523 1_556 S
C260 C244 1.368 . S
C260 C256 1.368 1_554 S
C260 C259 1.523 1_554 S
H261 C236 0.950 . S
H262 C238 0.950 . S
H263 C239 0.949 . S
H264 C241 0.950 . S
H265 C243 0.950 . S
C266 C267 1.349 . S
C266 C268 1.327 . S
C266 H291 0.950 . S
C267 C266 1.349 . S
C267 C283 1.349 . S
C268 C266 1.327 . S
C268 C287 1.429 . S
C268 H292 0.950 . S
C269 C286 1.574 1_545 S
C269 C288 1.368 . S
C269 H293 0.949 . S
H270 C274 0.949 . S
C271 C272 1.349 . S
C271 C273 1.327 . S
C271 H294 0.950 . S
C272 C271 1.349 . S
C272 C284 1.349 . S
C273 C271 1.327 . S
C273 C289 1.429 . S
C273 H295 0.950 . S
C274 H270 0.949 . S
C274 C282 1.574 1_565 S
C274 C290 1.368 . S
H275 C283 0.950 . S
H276 C281 0.950 . S
H277 C282 0.949 . S
H278 C284 0.950 . S
H279 C285 0.950 . S
H280 C286 0.949 . S
C281 H276 0.950 . S
C281 C283 1.327 . S
C281 C287 1.429 . S
C282 C274 1.574 1_545 S
C282 H277 0.949 . S
C282 C288 1.368 . S
C283 C267 1.349 . S
C283 H275 0.950 . S
C283 C281 1.327 . S
C284 C272 1.349 . S
C284 H278 0.950 . S
C284 C285 1.327 . S
C285 H279 0.950 . S
C285 C284 1.327 . S
C285 C289 1.429 . S
C286 C269 1.574 1_565 S
C286 H280 0.949 . S
C286 C290 1.368 . S
C287 C268 1.429 . S
C287 C281 1.429 . S
C287 C288 1.523 . S
C288 C269 1.368 . S
C288 C282 1.368 . S
C288 C287 1.523 . S
C289 C273 1.429 . S
C289 C285 1.429 . S
C289 C290 1.523 . S
C290 C274 1.368 . S
C290 C286 1.368 . S
C290 C289 1.523 . S
H291 C266 0.950 . S
H292 C268 0.950 . S
H293 C269 0.949 . S
H294 C271 0.950 . S
H295 C273 0.950 . S
C57 C8 1.570 . S
C62 C36 1.568 . S
C87 C22 1.568 . S
C92 C50 1.570 . S
C117 C9 1.537 . S
C122 C49 1.496 . S
C147 C31 1.572 . S
C152 C23 1.568 . S
C177 C45 1.596 . S
C182 C3 1.596 . S
C207 C17 1.573 . S
C212 C37 1.568 . S
C237 C7 1.496 . S
C242 C51 1.537 . S
C267 C21 1.461 . S
C272 C35 1.461 . S
