# Generated by pormake.
# Topology tzs, (4)-cn, num edge types: 1
# Building blocks:
#     Node 0, Type 0, BuildingBlock: GALJAG_clean_sbu_0, # of connection points: 4
#     Node 1, Type 0, BuildingBlock: GALJAG_clean_sbu_0, # of connection points: 4
#     Node 2, Type 0, BuildingBlock: GALJAG_clean_sbu_0, # of connection points: 4
#     Node 3, Type 0, BuildingBlock: GALJAG_clean_sbu_0, # of connection points: 4
#     Node 4, Type 0, BuildingBlock: GALJAG_clean_sbu_0, # of connection points: 4
#     Node 5, Type 0, BuildingBlock: GALJAG_clean_sbu_0, # of connection points: 4
#     Node 6, Type 0, BuildingBlock: GALJAG_clean_sbu_0, # of connection points: 4
#     Node 7, Type 0, BuildingBlock: GALJAG_clean_sbu_0, # of connection points: 4
#     Node 8, Type 0, BuildingBlock: GALJAG_clean_sbu_0, # of connection points: 4
#     Node 9, Type 0, BuildingBlock: GALJAG_clean_sbu_0, # of connection points: 4
#     Node 10, Type 0, BuildingBlock: GALJAG_clean_sbu_0, # of connection points: 4
#     Node 11, Type 0, BuildingBlock: GALJAG_clean_sbu_0, # of connection points: 4
#     Node 12, Type 0, BuildingBlock: GALJAG_clean_sbu_0, # of connection points: 4
#     Node 13, Type 0, BuildingBlock: GALJAG_clean_sbu_0, # of connection points: 4
#     Node 14, Type 0, BuildingBlock: GALJAG_clean_sbu_0, # of connection points: 4
#     Node 15, Type 0, BuildingBlock: GALJAG_clean_sbu_0, # of connection points: 4
#     Edge 16, Type (0, 0), BuildingBlock: XIVTED_clean_linker_0, # of connection points: 2
#     Edge 17, Type (0, 0), BuildingBlock: XIVTED_clean_linker_0, # of connection points: 2
#     Edge 18, Type (0, 0), BuildingBlock: XIVTED_clean_linker_0, # of connection points: 2
#     Edge 19, Type (0, 0), BuildingBlock: XIVTED_clean_linker_0, # of connection points: 2
#     Edge 20, Type (0, 0), BuildingBlock: XIVTED_clean_linker_0, # of connection points: 2
#     Edge 21, Type (0, 0), BuildingBlock: XIVTED_clean_linker_0, # of connection points: 2
#     Edge 22, Type (0, 0), BuildingBlock: XIVTED_clean_linker_0, # of connection points: 2
#     Edge 23, Type (0, 0), BuildingBlock: XIVTED_clean_linker_0, # of connection points: 2
#     Edge 24, Type (0, 0), BuildingBlock: XIVTED_clean_linker_0, # of connection points: 2
#     Edge 25, Type (0, 0), BuildingBlock: XIVTED_clean_linker_0, # of connection points: 2
#     Edge 26, Type (0, 0), BuildingBlock: XIVTED_clean_linker_0, # of connection points: 2
#     Edge 27, Type (0, 0), BuildingBlock: XIVTED_clean_linker_0, # of connection points: 2
#     Edge 28, Type (0, 0), BuildingBlock: XIVTED_clean_linker_0, # of connection points: 2
#     Edge 29, Type (0, 0), BuildingBlock: XIVTED_clean_linker_0, # of connection points: 2
#     Edge 30, Type (0, 0), BuildingBlock: XIVTED_clean_linker_0, # of connection points: 2
#     Edge 31, Type (0, 0), BuildingBlock: XIVTED_clean_linker_0, # of connection points: 2
#     Edge 32, Type (0, 0), BuildingBlock: XIVTED_clean_linker_0, # of connection points: 2
#     Edge 33, Type (0, 0), BuildingBlock: XIVTED_clean_linker_0, # of connection points: 2
#     Edge 34, Type (0, 0), BuildingBlock: XIVTED_clean_linker_0, # of connection points: 2
#     Edge 35, Type (0, 0), BuildingBlock: XIVTED_clean_linker_0, # of connection points: 2
#     Edge 36, Type (0, 0), BuildingBlock: XIVTED_clean_linker_0, # of connection points: 2
#     Edge 37, Type (0, 0), BuildingBlock: XIVTED_clean_linker_0, # of connection points: 2
#     Edge 38, Type (0, 0), BuildingBlock: XIVTED_clean_linker_0, # of connection points: 2
#     Edge 39, Type (0, 0), BuildingBlock: XIVTED_clean_linker_0, # of connection points: 2
#     Edge 40, Type (0, 0), BuildingBlock: XIVTED_clean_linker_0, # of connection points: 2
#     Edge 41, Type (0, 0), BuildingBlock: XIVTED_clean_linker_0, # of connection points: 2
#     Edge 42, Type (0, 0), BuildingBlock: XIVTED_clean_linker_0, # of connection points: 2
#     Edge 43, Type (0, 0), BuildingBlock: XIVTED_clean_linker_0, # of connection points: 2
#     Edge 44, Type (0, 0), BuildingBlock: XIVTED_clean_linker_0, # of connection points: 2
#     Edge 45, Type (0, 0), BuildingBlock: XIVTED_clean_linker_0, # of connection points: 2
#     Edge 46, Type (0, 0), BuildingBlock: XIVTED_clean_linker_0, # of connection points: 2
#     Edge 47, Type (0, 0), BuildingBlock: XIVTED_clean_linker_0, # of connection points: 2
# Relax obj value: 0.153
# Max RMSD: 0.154
# Mean RMSD: 0.154
data_MOF--net-tzs--node1-GALJAG_clean_sbu_0--edge1-XIVTED_clean_linker_0
_symmetry_space_group_name_H-M    P1
_symmetry_Int_Tables_number       1
_symmetry_cell_setting            triclinic
loop_
_symmetry_equiv_pos_as_xyz
'x, y, z'
_cell_length_a     49.491714
_cell_length_b     49.511343
_cell_length_c     40.81371
_cell_angle_alpha  89.890226
_cell_angle_beta   89.975604
_cell_angle_gamma 90.007335
loop_
_atom_site_label
_atom_site_type_symbol
_atom_site_fract_x
_atom_site_fract_y
_atom_site_fract_z
_atom_type_partial_charge
In0 In 0.14065 0.3493 0.18174 0.0
O1 O 0.18285 0.33909 0.20073 0.0
O2 O 0.15546 0.30673 0.19224 0.0
C3 C 0.14958 0.39863 0.2082 0.0
C4 C 0.14127 0.34945 0.11554 0.0
C5 C 0.09107 0.33363 0.20211 0.0
O6 O 0.15894 0.39195 0.18065 0.0
O7 O 0.13623 0.38042 0.22239 0.0
O8 O 0.09525 0.34351 0.17407 0.0
O9 O 0.11191 0.33122 0.21958 0.0
C10 C 0.17862 0.31395 0.2017 0.0
O11 O 0.12691 0.36548 0.13205 0.0
O12 O 0.15538 0.33339 0.13238 0.0
In13 In 0.63967 0.14084 0.17636 0.0
O14 O 0.65876 0.13019 0.12713 0.0
O15 O 0.62895 0.16106 0.12788 0.0
C16 C 0.64616 0.08948 0.19749 0.0
C17 C 0.67687 0.177 0.19673 0.0
C18 C 0.58917 0.14901 0.19938 0.0
O19 O 0.63676 0.09513 0.1696 0.0
O20 O 0.65242 0.10969 0.21463 0.0
O21 O 0.5939 0.14207 0.17024 0.0
O22 O 0.60991 0.15191 0.21696 0.0
C23 C 0.64515 0.14718 0.11102 0.0
O24 O 0.65241 0.1831 0.19241 0.0
O25 O 0.68258 0.15269 0.19074 0.0
In26 In 0.84865 0.64033 0.18387 0.0
O27 O 0.85762 0.66021 0.13456 0.0
O28 O 0.82776 0.62944 0.13588 0.0
C29 C 0.8992 0.64737 0.20726 0.0
C30 C 0.81327 0.67737 0.20675 0.0
C31 C 0.84274 0.58803 0.20123 0.0
O32 O 0.8941 0.64516 0.17712 0.0
O33 O 0.87875 0.64636 0.22569 0.0
O34 O 0.83266 0.6071 0.21766 0.0
O35 O 0.85567 0.59535 0.17611 0.0
C36 C 0.8408 0.64621 0.11879 0.0
O37 O 0.8067 0.65327 0.20088 0.0
O38 O 0.83775 0.68281 0.20129 0.0
In39 In 0.34714 0.8508 0.18831 0.0
O40 O 0.36534 0.8628 0.13912 0.0
O41 O 0.33173 0.8361 0.13863 0.0
C42 C 0.33214 0.90125 0.20578 0.0
C43 C 0.31154 0.81336 0.20954 0.0
C44 C 0.39673 0.8421 0.21418 0.0
O45 O 0.33939 0.89527 0.1771 0.0
O46 O 0.33186 0.88166 0.22557 0.0
O47 O 0.38892 0.83086 0.18816 0.0
O48 O 0.37943 0.85722 0.22737 0.0
C49 C 0.34904 0.84907 0.12222 0.0
O50 O 0.33669 0.80923 0.20903 0.0
O51 O 0.30436 0.83631 0.19926 0.0
In52 In 0.14098 0.63999 0.31117 0.0
O53 O 0.13166 0.66165 0.35915 0.0
O54 O 0.15965 0.62915 0.36056 0.0
C55 C 0.08993 0.64631 0.28902 0.0
C56 C 0.17679 0.67697 0.28911 0.0
C57 C 0.1487 0.58856 0.29123 0.0
O58 O 0.09533 0.64141 0.31862 0.0
O59 O 0.1103 0.64822 0.27056 0.0
O60 O 0.15676 0.60861 0.27483 0.0
O61 O 0.13696 0.59444 0.3177 0.0
C62 C 0.14713 0.64713 0.3763 0.0
O63 O 0.18372 0.65361 0.29813 0.0
O64 O 0.15182 0.68168 0.29115 0.0
In65 In 0.3491 0.14155 0.30491 0.0
O66 O 0.36231 0.12472 0.35432 0.0
O67 O 0.33615 0.15881 0.35429 0.0
C68 C 0.33615 0.09211 0.28139 0.0
C69 C 0.31242 0.17837 0.28508 0.0
C70 C 0.39957 0.15285 0.28322 0.0
O71 O 0.33045 0.09933 0.31016 0.0
O72 O 0.34807 0.1098 0.26457 0.0
O73 O 0.37929 0.15221 0.26462 0.0
O74 O 0.39439 0.14837 0.31296 0.0
C75 C 0.34924 0.14176 0.37097 0.0
O76 O 0.33634 0.18466 0.29253 0.0
O77 O 0.30694 0.1536 0.28803 0.0
In78 In 0.85086 0.34551 0.30048 0.0
O79 O 0.84152 0.32533 0.3496 0.0
O80 O 0.8573 0.36523 0.35026 0.0
C81 C 0.90188 0.33225 0.28333 0.0
C82 C 0.81303 0.31077 0.27821 0.0
C83 C 0.84241 0.39505 0.27441 0.0
O84 O 0.89559 0.33927 0.31202 0.0
O85 O 0.88242 0.33161 0.26343 0.0
O86 O 0.83066 0.38714 0.30013 0.0
O87 O 0.85789 0.37785 0.26162 0.0
C88 C 0.84892 0.34526 0.36659 0.0
O89 O 0.80822 0.33553 0.28249 0.0
O90 O 0.83675 0.30361 0.28527 0.0
In91 In 0.64121 0.84951 0.30699 0.0
O92 O 0.66136 0.85936 0.35584 0.0
O93 O 0.63052 0.82954 0.3557 0.0
C94 C 0.6485 0.89951 0.28186 0.0
C95 C 0.67753 0.81316 0.28459 0.0
C96 C 0.58869 0.84388 0.29069 0.0
O97 O 0.6475 0.8949 0.31223 0.0
O98 O 0.64621 0.87883 0.26406 0.0
O99 O 0.60753 0.83348 0.27415 0.0
O100 O 0.59634 0.85702 0.31545 0.0
C101 C 0.64742 0.84283 0.37223 0.0
O102 O 0.65343 0.80707 0.29126 0.0
O103 O 0.68336 0.83767 0.289 0.0
In104 In 0.84725 0.63645 0.80921 0.0
O105 O 0.82814 0.62575 0.85844 0.0
O106 O 0.85568 0.65864 0.85703 0.0
C107 C 0.83987 0.58485 0.78973 0.0
C108 C 0.81135 0.67292 0.78619 0.0
C109 C 0.89863 0.64296 0.78817 0.0
O110 O 0.85104 0.59093 0.81648 0.0
O111 O 0.83231 0.60479 0.77279 0.0
O112 O 0.87857 0.6448 0.76925 0.0
O113 O 0.89277 0.63796 0.81762 0.0
C114 C 0.84025 0.64403 0.87413 0.0
O115 O 0.83616 0.6781 0.78923 0.0
O116 O 0.80465 0.64936 0.79469 0.0
In117 In 0.35163 0.84922 0.81058 0.0
O118 O 0.30878 0.8375 0.79571 0.0
O119 O 0.33862 0.80663 0.79659 0.0
C120 C 0.33879 0.89778 0.78435 0.0
C121 C 0.35121 0.84805 0.87666 0.0
C122 C 0.40281 0.83854 0.79101 0.0
O123 O 0.33227 0.89122 0.81315 0.0
O124 O 0.35151 0.87987 0.76887 0.0
O125 O 0.39714 0.84596 0.81971 0.0
O126 O 0.38269 0.83603 0.77238 0.0
C127 C 0.31434 0.81293 0.7911 0.0
O128 O 0.34137 0.82929 0.8595 0.0
O129 O 0.3613 0.86733 0.86049 0.0
In130 In 0.14062 0.35065 0.80377 0.0
O131 O 0.12185 0.36153 0.85301 0.0
O132 O 0.15818 0.33859 0.85335 0.0
C133 C 0.15294 0.40153 0.78465 0.0
C134 C 0.17687 0.31342 0.7838 0.0
C135 C 0.09162 0.33974 0.77752 0.0
O136 O 0.1479 0.39549 0.81402 0.0
O137 O 0.15241 0.38187 0.76513 0.0
O138 O 0.09836 0.33161 0.80565 0.0
O139 O 0.1096 0.35297 0.76271 0.0
C140 C 0.13982 0.3499 0.86985 0.0
O141 O 0.15206 0.30822 0.78703 0.0
O142 O 0.18343 0.33732 0.79086 0.0
In143 In 0.63825 0.14173 0.8009 0.0
O144 O 0.67932 0.15303 0.77927 0.0
O145 O 0.65113 0.18458 0.78727 0.0
C146 C 0.64539 0.0911 0.77789 0.0
C147 C 0.64507 0.14805 0.86607 0.0
C148 C 0.58596 0.14791 0.78373 0.0
O149 O 0.64256 0.11123 0.75922 0.0
O150 O 0.64487 0.09654 0.80805 0.0
O151 O 0.60508 0.15818 0.76749 0.0
O152 O 0.59322 0.13463 0.80862 0.0
C153 C 0.6743 0.17794 0.77738 0.0
O154 O 0.6268 0.16008 0.85022 0.0
O155 O 0.66012 0.13309 0.84901 0.0
In156 In 0.84998 0.34707 0.67841 0.0
O157 O 0.85428 0.36778 0.62875 0.0
O158 O 0.84363 0.32624 0.62905 0.0
C159 C 0.83906 0.39494 0.70728 0.0
C160 C 0.81221 0.31109 0.69783 0.0
C161 C 0.90168 0.33658 0.6957 0.0
O162 O 0.82992 0.38869 0.67946 0.0
O163 O 0.85309 0.37683 0.7208 0.0
O164 O 0.88183 0.33022 0.71345 0.0
O165 O 0.89547 0.34788 0.66905 0.0
C166 C 0.84861 0.34705 0.61223 0.0
O167 O 0.83618 0.30448 0.69115 0.0
O168 O 0.80716 0.33594 0.69464 0.0
In169 In 0.64262 0.84716 0.6824 0.0
O170 O 0.68523 0.83462 0.69762 0.0
O171 O 0.65441 0.80489 0.69969 0.0
C172 C 0.64807 0.89909 0.70148 0.0
C173 C 0.64932 0.84154 0.61716 0.0
C174 C 0.59204 0.83906 0.70529 0.0
O175 O 0.63779 0.89252 0.67438 0.0
O176 O 0.6558 0.8795 0.71889 0.0
O177 O 0.59713 0.84279 0.67535 0.0
O178 O 0.61248 0.83921 0.72373 0.0
C179 C 0.67897 0.81052 0.7041 0.0
O180 O 0.63258 0.82767 0.63335 0.0
O181 O 0.6629 0.85805 0.63393 0.0
In182 In 0.14114 0.64402 0.68624 0.0
O183 O 0.13204 0.66449 0.6373 0.0
O184 O 0.16134 0.63311 0.63792 0.0
C185 C 0.1489 0.59255 0.70598 0.0
C186 C 0.17698 0.6807 0.70884 0.0
C187 C 0.08956 0.64945 0.70704 0.0
O188 O 0.14032 0.59854 0.67781 0.0
O189 O 0.15361 0.61251 0.72426 0.0
O190 O 0.10952 0.6513 0.72609 0.0
O191 O 0.09561 0.64521 0.6775 0.0
C192 C 0.14841 0.65019 0.62116 0.0
O193 O 0.15251 0.68638 0.70381 0.0
O194 O 0.18333 0.65664 0.70243 0.0
In195 In 0.34442 0.13747 0.68268 0.0
O196 O 0.36288 0.12736 0.63304 0.0
O197 O 0.32685 0.15064 0.63338 0.0
C198 C 0.39358 0.14716 0.70915 0.0
C199 C 0.30871 0.17473 0.70376 0.0
C200 C 0.33102 0.0866 0.7006 0.0
O201 O 0.38615 0.15754 0.68241 0.0
O202 O 0.37609 0.13244 0.72274 0.0
O203 O 0.32834 0.10655 0.71946 0.0
O204 O 0.33987 0.09238 0.67249 0.0
C205 C 0.34508 0.1395 0.61654 0.0
O206 O 0.3017 0.15146 0.69452 0.0
O207 O 0.33377 0.1793 0.70221 0.0
H208 H 0.26039 0.16915 0.266 0.0
H209 H 0.23005 0.32417 0.22306 0.0
H210 H 0.31918 0.23285 0.27719 0.0
H211 H 0.17326 0.25932 0.20743 0.0
H212 H 0.26288 0.29131 0.24369 0.0
H213 H 0.22792 0.20222 0.24548 0.0
C214 C 0.26644 0.19013 0.2642 0.0
C215 C 0.2925 0.1983 0.27329 0.0
C216 C 0.24325 0.28427 0.2357 0.0
C217 C 0.25547 0.23627 0.24976 0.0
C218 C 0.22453 0.30301 0.22391 0.0
C219 C 0.19892 0.29442 0.21353 0.0
C220 C 0.23626 0.25678 0.23716 0.0
C221 C 0.19279 0.2668 0.21517 0.0
C222 C 0.24791 0.209 0.25243 0.0
C223 C 0.29928 0.22572 0.27043 0.0
N224 N 0.21131 0.24898 0.2268 0.0
N225 N 0.28087 0.24374 0.2589 0.0
H226 H 0.76022 0.32087 0.26251 0.0
H227 H 0.73035 0.16811 0.20908 0.0
H228 H 0.81951 0.25703 0.26592 0.0
H229 H 0.66952 0.23054 0.21042 0.0
H230 H 0.76358 0.20082 0.2286 0.0
H231 H 0.72686 0.28848 0.24217 0.0
C232 C 0.76619 0.30004 0.25897 0.0
C233 C 0.79262 0.29159 0.26593 0.0
C234 C 0.74297 0.2074 0.22463 0.0
C235 C 0.75467 0.25447 0.24266 0.0
C236 C 0.724 0.18873 0.21346 0.0
C237 C 0.69716 0.19665 0.20818 0.0
C238 C 0.73505 0.2342 0.23052 0.0
C239 C 0.69003 0.22361 0.21422 0.0
C240 C 0.74717 0.28156 0.24738 0.0
C241 C 0.79933 0.26438 0.2609 0.0
N242 N 0.70887 0.24143 0.22509 0.0
N243 N 0.78048 0.2468 0.24956 0.0
H244 H 0.82239 0.73074 0.21998 0.0
H245 H 0.66916 0.75957 0.2728 0.0
H246 H 0.75974 0.6701 0.22041 0.0
H247 H 0.73092 0.82106 0.26996 0.0
H248 H 0.70227 0.72644 0.25407 0.0
H249 H 0.78944 0.76408 0.23893 0.0
C250 C 0.8017 0.72445 0.22411 0.0
C251 C 0.79376 0.69764 0.21862 0.0
C252 C 0.70861 0.74717 0.25751 0.0
C253 C 0.75597 0.73562 0.24024 0.0
C254 C 0.68971 0.7661 0.26819 0.0
C255 C 0.69733 0.79309 0.27292 0.0
C256 C 0.73537 0.75528 0.25153 0.0
C257 C 0.72421 0.80044 0.2666 0.0
C258 C 0.7829 0.74348 0.2349 0.0
C259 C 0.76672 0.69057 0.22433 0.0
N260 N 0.74228 0.78163 0.25625 0.0
N261 N 0.7488 0.70945 0.23482 0.0
H262 H 0.32204 0.76237 0.232 0.0
H263 H 0.16651 0.72828 0.26777 0.0
H264 H 0.25663 0.818 0.21364 0.0
H265 H 0.23157 0.67169 0.28338 0.0
H266 H 0.19929 0.76157 0.24826 0.0
H267 H 0.28929 0.72897 0.25134 0.0
C268 C 0.30078 0.76754 0.23204 0.0
C269 C 0.29201 0.79297 0.22121 0.0
C270 C 0.20642 0.74187 0.25593 0.0
C271 C 0.25443 0.75489 0.2433 0.0
C272 C 0.18771 0.72287 0.26707 0.0
C273 C 0.19637 0.69721 0.27719 0.0
C274 C 0.23399 0.73517 0.25493 0.0
C275 C 0.22405 0.69125 0.27579 0.0
C276 C 0.28209 0.74847 0.24307 0.0
C277 C 0.26424 0.79862 0.22177 0.0
N278 N 0.24189 0.7101 0.26488 0.0
N279 N 0.24644 0.77973 0.23265 0.0
H280 H 0.73299 0.81782 0.71488 0.0
H281 H 0.7572 0.66595 0.77632 0.0
H282 H 0.67001 0.75768 0.72024 0.0
H283 H 0.82076 0.72525 0.76798 0.0
H284 H 0.72489 0.69937 0.7561 0.0
H285 H 0.76544 0.7843 0.73464 0.0
C286 C 0.72601 0.79755 0.72022 0.0
C287 C 0.69879 0.79049 0.71594 0.0
C288 C 0.7459 0.70509 0.75866 0.0
C289 C 0.73576 0.75205 0.73856 0.0
C290 C 0.76435 0.68602 0.77021 0.0
C291 C 0.79168 0.69287 0.77382 0.0
C292 C 0.75484 0.73123 0.75072 0.0
C293 C 0.79985 0.71914 0.76554 0.0
C294 C 0.74453 0.77842 0.73148 0.0
C295 C 0.69082 0.76396 0.72321 0.0
N296 N 0.7815 0.73738 0.7544 0.0
N297 N 0.70922 0.74571 0.73418 0.0
H298 H 0.16839 0.73378 0.72424 0.0
H299 H 0.32186 0.75932 0.77847 0.0
H300 H 0.23043 0.67258 0.72191 0.0
H301 H 0.26084 0.82158 0.77801 0.0
H302 H 0.28827 0.72702 0.75886 0.0
H303 H 0.20162 0.76613 0.74497 0.0
C304 C 0.18901 0.72717 0.7281 0.0
C305 C 0.1967 0.7005 0.72134 0.0
C306 C 0.28219 0.74773 0.76307 0.0
C307 C 0.23478 0.7373 0.74503 0.0
C308 C 0.30136 0.76617 0.77429 0.0
C309 C 0.2941 0.79315 0.77983 0.0
C310 C 0.25555 0.75633 0.75735 0.0
C311 C 0.26727 0.80095 0.77402 0.0
C312 C 0.20796 0.74562 0.73992 0.0
C313 C 0.22365 0.69297 0.72679 0.0
N314 N 0.24895 0.78262 0.76307 0.0
N315 N 0.24172 0.71128 0.73831 0.0
H316 H 0.23137 0.31967 0.77605 0.0
H317 H 0.25407 0.16909 0.71008 0.0
H318 H 0.16729 0.26119 0.76566 0.0
H319 H 0.31875 0.22635 0.72418 0.0
H320 H 0.22189 0.20277 0.7298 0.0
H321 H 0.26368 0.28594 0.75663 0.0
C322 C 0.22411 0.29971 0.7697 0.0
C323 C 0.19663 0.29318 0.77245 0.0
C324 C 0.24312 0.20799 0.72861 0.0
C325 C 0.23344 0.25453 0.75017 0.0
C326 C 0.26149 0.18877 0.71732 0.0
C327 C 0.2891 0.19496 0.7155 0.0
C328 C 0.25242 0.23361 0.73811 0.0
C329 C 0.29762 0.22076 0.72521 0.0
C330 C 0.24256 0.28046 0.75862 0.0
C331 C 0.18831 0.26705 0.76391 0.0
N332 N 0.27934 0.23915 0.73608 0.0
N333 N 0.20664 0.24868 0.75312 0.0
H334 H 0.66767 0.23243 0.77011 0.0
H335 H 0.81848 0.25666 0.70513 0.0
H336 H 0.72585 0.16854 0.75629 0.0
H337 H 0.75961 0.3204 0.71524 0.0
H338 H 0.78472 0.2241 0.72376 0.0
H339 H 0.70095 0.26501 0.75001 0.0
C340 C 0.68745 0.22527 0.7628 0.0
C341 C 0.69406 0.19777 0.76489 0.0
C342 C 0.77913 0.24519 0.72188 0.0
C343 C 0.73222 0.2349 0.74192 0.0
C344 C 0.79841 0.26379 0.71125 0.0
C345 C 0.79181 0.29126 0.70869 0.0
C346 C 0.75306 0.25411 0.73008 0.0
C347 C 0.76552 0.29939 0.7169 0.0
C348 C 0.70643 0.24387 0.75132 0.0
C349 C 0.71994 0.18957 0.75508 0.0
N350 N 0.7471 0.28089 0.72728 0.0
N351 N 0.7381 0.20807 0.74407 0.0
H352 H 0.10462 0.37591 0.91063 0.0
H353 H 0.17262 0.31889 0.0748 0.0
H354 H 0.17445 0.32373 0.9113 0.0
H355 H 0.11008 0.3796 0.07404 0.0
H356 H 0.17224 0.31876 0.01488 0.0
H357 H 0.10485 0.37585 0.97055 0.0
C358 C 0.11998 0.36441 0.92341 0.0
C359 C 0.13956 0.34981 0.90601 0.0
C360 C 0.15862 0.33215 0.0278 0.0
C361 C 0.13994 0.34962 0.97453 0.0
C362 C 0.15882 0.3322 0.062 0.0
C363 C 0.14137 0.3493 0.07937 0.0
C364 C 0.14074 0.34921 0.01086 0.0
C365 C 0.12389 0.36613 0.06158 0.0
C366 C 0.12013 0.36442 0.9576 0.0
C367 C 0.159 0.33529 0.92378 0.0
N368 N 0.12399 0.36563 0.02829 0.0
N369 N 0.15868 0.33553 0.95707 0.0
H370 H 0.68099 0.12194 0.90594 0.0
H371 H 0.61661 0.18102 0.071 0.0
H372 H 0.61509 0.17898 0.90787 0.0
H373 H 0.67823 0.11937 0.06931 0.0
H374 H 0.61854 0.18345 0.01124 0.0
H375 H 0.68308 0.12366 0.96576 0.0
C376 C 0.66708 0.13496 0.91896 0.0
C377 C 0.64774 0.15024 0.90198 0.0
C378 C 0.63173 0.16946 0.02392 0.0
C379 C 0.64995 0.15225 0.97037 0.0
C380 C 0.63066 0.16809 0.05804 0.0
C381 C 0.64719 0.14986 0.07509 0.0
C382 C 0.64947 0.15248 0.00671 0.0
C383 C 0.66506 0.13364 0.05709 0.0
C384 C 0.66825 0.13591 0.95311 0.0
C385 C 0.63024 0.1668 0.92004 0.0
N386 N 0.66565 0.13525 0.02386 0.0
N387 N 0.63169 0.16728 0.95327 0.0
H388 H 0.86586 0.68057 0.91345 0.0
H389 H 0.80712 0.61702 0.07937 0.0
H390 H 0.8089 0.6146 0.91623 0.0
H391 H 0.86738 0.67999 0.07665 0.0
H392 H 0.80441 0.61864 0.0196 0.0
H393 H 0.86361 0.68346 0.97318 0.0
C394 C 0.85274 0.66681 0.92664 0.0
C395 C 0.83766 0.6472 0.90993 0.0
C396 C 0.81812 0.63222 0.03207 0.0
C397 C 0.83505 0.65032 0.97823 0.0
C398 C 0.81965 0.63132 0.06618 0.0
C399 C 0.83762 0.64829 0.08293 0.0
C400 C 0.83472 0.6502 0.01457 0.0
C401 C 0.85333 0.66647 0.06467 0.0
C402 C 0.85148 0.66845 0.96073 0.0
C403 C 0.82095 0.62994 0.92819 0.0
N404 N 0.85162 0.66685 0.03144 0.0
N405 N 0.82019 0.63181 0.96138 0.0
H406 H 0.38111 0.8792 0.08185 0.0
H407 H 0.3264 0.81141 0.91687 0.0
H408 H 0.3191 0.81794 0.08046 0.0
H409 H 0.3755 0.88343 0.91863 0.0
H410 H 0.32609 0.81114 0.97684 0.0
H411 H 0.382 0.87867 0.02198 0.0
C412 C 0.36771 0.8656 0.06892 0.0
C413 C 0.34997 0.84861 0.08609 0.0
C414 C 0.33691 0.82701 0.9641 0.0
C415 C 0.35092 0.84785 0.01762 0.0
C416 C 0.33714 0.82714 0.9299 0.0
C417 C 0.35097 0.8475 0.91281 0.0
C418 C 0.35078 0.84726 0.9813 0.0
C419 C 0.36453 0.8674 0.93086 0.0
C420 C 0.36819 0.86535 0.03475 0.0
C421 C 0.33304 0.8314 0.06813 0.0
N422 N 0.36415 0.86675 0.96414 0.0
N423 N 0.33396 0.83142 0.03484 0.0
H424 H 0.18156 0.62085 0.58131 0.0
H425 H 0.12073 0.68303 0.4158 0.0
H426 H 0.12123 0.68375 0.57925 0.0
H427 H 0.17885 0.6181 0.41833 0.0
H428 H 0.12314 0.68603 0.47553 0.0
H429 H 0.18345 0.62205 0.52151 0.0
C430 C 0.16884 0.63505 0.56826 0.0
C431 C 0.15111 0.65214 0.58522 0.0
C432 C 0.13547 0.67122 0.46302 0.0
C433 C 0.15305 0.65354 0.51678 0.0
C434 C 0.13412 0.66951 0.42893 0.0
C435 C 0.14952 0.6502 0.41214 0.0
C436 C 0.15234 0.65346 0.48044 0.0
C437 C 0.16655 0.63322 0.43033 0.0
C438 C 0.1699 0.63571 0.53411 0.0
C439 C 0.13513 0.67017 0.5671 0.0
N440 N 0.16742 0.63517 0.46351 0.0
N441 N 0.13637 0.6703 0.53384 0.0
H442 H 0.31149 0.16769 0.5757 0.0
H443 H 0.37855 0.10941 0.41193 0.0
H444 H 0.37967 0.11337 0.57523 0.0
H445 H 0.31962 0.17364 0.41222 0.0
H446 H 0.37773 0.10905 0.4718 0.0
H447 H 0.3126 0.16866 0.51575 0.0
C448 C 0.32669 0.15597 0.56296 0.0
C449 C 0.34552 0.14042 0.5804 0.0
C450 C 0.36502 0.12327 0.4588 0.0
C451 C 0.34686 0.14136 0.51192 0.0
C452 C 0.36545 0.12345 0.42462 0.0
C453 C 0.34913 0.14158 0.40713 0.0
C454 C 0.34801 0.14124 0.47562 0.0
C455 C 0.33255 0.15935 0.42479 0.0
C456 C 0.32734 0.15657 0.52876 0.0
C457 C 0.36479 0.12565 0.56271 0.0
N458 N 0.33235 0.15869 0.45808 0.0
N459 N 0.36492 0.12642 0.52944 0.0
H460 H 0.83334 0.30417 0.40735 0.0
H461 H 0.86023 0.38903 0.5711 0.0
H462 H 0.86276 0.38621 0.40802 0.0
H463 H 0.83594 0.30532 0.57114 0.0
H464 H 0.85982 0.38874 0.51126 0.0
H465 H 0.8327 0.30451 0.46731 0.0
C466 C 0.83963 0.32226 0.42014 0.0
C467 C 0.84814 0.34519 0.40274 0.0
C468 C 0.85457 0.37042 0.52432 0.0
C469 C 0.84746 0.34575 0.47124 0.0
C470 C 0.85478 0.37058 0.55849 0.0
C471 C 0.84815 0.34715 0.57607 0.0
C472 C 0.84761 0.34665 0.50757 0.0
C473 C 0.84123 0.32382 0.5585 0.0
C474 C 0.83929 0.32244 0.45434 0.0
C475 C 0.85608 0.36808 0.42049 0.0
N476 N 0.84114 0.32416 0.5252 0.0
N477 N 0.85555 0.36778 0.45376 0.0
H478 H 0.68306 0.87001 0.57682 0.0
H479 H 0.61934 0.80887 0.41263 0.0
H480 H 0.6211 0.80869 0.57574 0.0
H481 H 0.68091 0.87059 0.41345 0.0
H482 H 0.62183 0.80641 0.47235 0.0
H483 H 0.68476 0.86841 0.51697 0.0
C484 C 0.66993 0.85609 0.56398 0.0
C485 C 0.65181 0.83955 0.58122 0.0
C486 C 0.63491 0.82041 0.45949 0.0
C487 C 0.65355 0.83769 0.51279 0.0
C488 C 0.6335 0.82181 0.42539 0.0
C489 C 0.64985 0.84006 0.40812 0.0
C490 C 0.65276 0.83744 0.47646 0.0
C491 C 0.66787 0.8563 0.42585 0.0
C492 C 0.67089 0.8552 0.52982 0.0
C493 C 0.6353 0.82186 0.56339 0.0
N494 N 0.66875 0.8547 0.45908 0.0
N495 N 0.63647 0.82149 0.53013 0.0
H496 H 0.17201 0.57068 0.2344 0.0
H497 H 0.13256 0.41629 0.26792 0.0
H498 H 0.13251 0.54247 0.32231 0.0
H499 H 0.17327 0.44312 0.18018 0.0
H500 H 0.13481 0.46216 0.2894 0.0
H501 H 0.17499 0.52395 0.21516 0.0
C502 C 0.1641 0.55463 0.24971 0.0
C503 C 0.15188 0.56043 0.27992 0.0
C504 C 0.1434 0.45805 0.26552 0.0
C505 C 0.15515 0.50702 0.25808 0.0
C506 C 0.14213 0.43184 0.25325 0.0
C507 C 0.15264 0.42594 0.22216 0.0
C508 C 0.15514 0.47862 0.24652 0.0
C509 C 0.16488 0.44684 0.20425 0.0
C510 C 0.1658 0.52798 0.23873 0.0
C511 C 0.142 0.5389 0.29881 0.0
N512 N 0.16566 0.47233 0.21662 0.0
N513 N 0.14375 0.51318 0.28752 0.0
H514 H 0.57357 0.15877 0.26257 0.0
H515 H 0.41569 0.15856 0.21963 0.0
H516 H 0.54188 0.14782 0.16501 0.0
H517 H 0.44658 0.15507 0.31841 0.0
H518 H 0.462 0.16056 0.19902 0.0
H519 H 0.52733 0.16304 0.28327 0.0
C520 C 0.55687 0.1574 0.24549 0.0
C521 C 0.56151 0.15279 0.21206 0.0
C522 C 0.45866 0.15951 0.22521 0.0
C523 C 0.50866 0.15771 0.23551 0.0
C524 C 0.43223 0.15846 0.237 0.0
C525 C 0.42733 0.1565 0.27076 0.0
C526 C 0.48036 0.15865 0.24736 0.0
C527 C 0.4495 0.15647 0.29217 0.0
C528 C 0.53051 0.1598 0.25732 0.0
C529 C 0.53918 0.15123 0.191 0.0
N530 N 0.47509 0.1574 0.28009 0.0
N531 N 0.51372 0.15363 0.20308 0.0
H532 H 0.81581 0.56699 0.25406 0.0
H533 H 0.86495 0.41578 0.21881 0.0
H534 H 0.86389 0.54397 0.17043 0.0
H535 H 0.81395 0.43733 0.30046 0.0
H536 H 0.86304 0.46243 0.19953 0.0
H537 H 0.8133 0.51947 0.2705 0.0
C538 C 0.82575 0.55192 0.23911 0.0
C539 C 0.84017 0.55941 0.21093 0.0
C540 C 0.85212 0.45697 0.22156 0.0
C541 C 0.83744 0.50509 0.22956 0.0
C542 C 0.85318 0.43032 0.23256 0.0
C543 C 0.83966 0.42272 0.26134 0.0
C544 C 0.83754 0.47625 0.23954 0.0
C545 C 0.8247 0.44237 0.27817 0.0
C546 C 0.8243 0.5248 0.24848 0.0
C547 C 0.85262 0.53908 0.1924 0.0
N548 N 0.82416 0.4683 0.26712 0.0
N549 N 0.85106 0.51288 0.20211 0.0
H550 H 0.54489 0.86517 0.32208 0.0
H551 H 0.43872 0.81324 0.18814 0.0
H552 H 0.56718 0.81711 0.23822 0.0
H553 H 0.41771 0.86454 0.26963 0.0
H554 H 0.48529 0.81148 0.20822 0.0
H555 H 0.49762 0.8624 0.30527 0.0
C556 C 0.53981 0.85394 0.30018 0.0
C557 C 0.55997 0.84145 0.28142 0.0
C558 C 0.47046 0.823 0.2218 0.0
C559 C 0.5059 0.83821 0.26198 0.0
C560 C 0.44388 0.82396 0.21039 0.0
C561 C 0.42439 0.83915 0.22719 0.0
C562 C 0.47757 0.83736 0.2502 0.0
C563 C 0.43213 0.85265 0.25587 0.0
C564 C 0.51281 0.85237 0.29058 0.0
C565 C 0.55225 0.82711 0.25332 0.0
N566 N 0.45814 0.85153 0.26639 0.0
N567 N 0.52582 0.82596 0.24438 0.0
H568 H 0.81689 0.56666 0.73293 0.0
H569 H 0.85586 0.41234 0.76732 0.0
H570 H 0.85541 0.53888 0.82164 0.0
H571 H 0.81437 0.4391 0.68015 0.0
H572 H 0.8534 0.45822 0.789 0.0
H573 H 0.81354 0.51983 0.71432 0.0
C574 C 0.82453 0.55068 0.74855 0.0
C575 C 0.83658 0.55664 0.77879 0.0
C576 C 0.84465 0.45406 0.76523 0.0
C577 C 0.83286 0.50306 0.75767 0.0
C578 C 0.84602 0.42785 0.75286 0.0
C579 C 0.83542 0.42196 0.72183 0.0
C580 C 0.83273 0.4746 0.74634 0.0
C581 C 0.82285 0.4428 0.70417 0.0
C582 C 0.82259 0.52396 0.73794 0.0
C583 C 0.84607 0.53518 0.79809 0.0
N584 N 0.82202 0.46825 0.71657 0.0
N585 N 0.84413 0.50936 0.78713 0.0
H586 H 0.54543 0.83469 0.66991 0.0
H587 H 0.44932 0.84111 0.82704 0.0
H588 H 0.57547 0.83601 0.76913 0.0
H589 H 0.42007 0.82794 0.72878 0.0
H590 H 0.49571 0.83842 0.8066 0.0
H591 H 0.49936 0.83148 0.69112 0.0
C592 C 0.54232 0.83417 0.69618 0.0
C593 C 0.56426 0.83573 0.71782 0.0
C594 C 0.47915 0.83592 0.78954 0.0
C595 C 0.5116 0.8322 0.74229 0.0
C596 C 0.45268 0.83745 0.8012 0.0
C597 C 0.43085 0.83485 0.77953 0.0
C598 C 0.48381 0.83198 0.75592 0.0
C599 C 0.43632 0.8301 0.74631 0.0
C600 C 0.51602 0.83231 0.70828 0.0
C601 C 0.5591 0.83491 0.75161 0.0
N602 N 0.46226 0.82901 0.73548 0.0
N603 N 0.53327 0.83338 0.76282 0.0
H604 H 0.15739 0.44701 0.8222 0.0
H605 H 0.14457 0.54673 0.66929 0.0
H606 H 0.1568 0.41995 0.72176 0.0
H607 H 0.16158 0.57431 0.76738 0.0
H608 H 0.149 0.50008 0.68817 0.0
H609 H 0.15936 0.49379 0.80287 0.0
C610 C 0.15793 0.45092 0.79609 0.0
C611 C 0.15681 0.42962 0.77353 0.0
C612 C 0.15194 0.51632 0.70555 0.0
C613 C 0.15875 0.483 0.75126 0.0
C614 C 0.14933 0.54294 0.69479 0.0
C615 C 0.1526 0.56437 0.71686 0.0
C616 C 0.1576 0.51107 0.73868 0.0
C617 C 0.15885 0.55835 0.74959 0.0
C618 C 0.15905 0.47761 0.78507 0.0
C619 C 0.1576 0.43579 0.73998 0.0
N620 N 0.16097 0.53223 0.75958 0.0
N621 N 0.15827 0.46193 0.72986 0.0
H622 H 0.41349 0.12703 0.76651 0.0
H623 H 0.56525 0.17461 0.7306 0.0
H624 H 0.43627 0.17442 0.68206 0.0
H625 H 0.54165 0.12727 0.81477 0.0
H626 H 0.51782 0.17715 0.71394 0.0
H627 H 0.45995 0.1295 0.7863 0.0
C628 C 0.42826 0.13814 0.75225 0.0
C629 C 0.42108 0.15044 0.72253 0.0
C630 C 0.523 0.16632 0.73613 0.0
C631 C 0.47438 0.15319 0.74491 0.0
C632 C 0.55006 0.16485 0.74564 0.0
C633 C 0.55737 0.1506 0.77402 0.0
C634 C 0.50314 0.15339 0.75513 0.0
C635 C 0.5369 0.13839 0.79264 0.0
C636 C 0.4548 0.13951 0.76354 0.0
C637 C 0.441 0.1646 0.70508 0.0
N638 N 0.51074 0.13998 0.7828 0.0
N639 N 0.46681 0.16546 0.71643 0.0
H640 H 0.64172 0.07354 0.71454 0.0
H641 H 0.66456 0.91794 0.76112 0.0
H642 H 0.65524 0.04526 0.81326 0.0
H643 H 0.63616 0.9447 0.66653 0.0
H644 H 0.66599 0.96497 0.77928 0.0
H645 H 0.64435 0.02687 0.69511 0.0
C646 C 0.64539 0.05751 0.73209 0.0
C647 C 0.64817 0.06322 0.76556 0.0
C648 C 0.65951 0.96056 0.75453 0.0
C649 C 0.65121 0.00986 0.74356 0.0
C650 C 0.65875 0.93374 0.74413 0.0
C651 C 0.65012 0.92744 0.71232 0.0
C652 C 0.65172 0.98125 0.7329 0.0
C653 C 0.64283 0.94868 0.69131 0.0
C654 C 0.64682 0.03089 0.72101 0.0
C655 C 0.65288 0.04172 0.78725 0.0
N656 N 0.64377 0.97465 0.70198 0.0
N657 N 0.65423 0.01598 0.77588 0.0
H658 H 0.94474 0.64172 0.82491 0.0
H659 H 0.04355 0.65002 0.67009 0.0
H660 H 0.91656 0.65078 0.72545 0.0
H661 H 0.07139 0.65209 0.77023 0.0
H662 H -0.00312 0.65023 0.6898 0.0
H663 H 0.99129 0.64524 0.80535 0.0
C664 C 0.94836 0.64454 0.79895 0.0
C665 C 0.92679 0.6459 0.77674 0.0
C666 C 0.01318 0.65077 0.70748 0.0
C667 C 0.98 0.64987 0.75416 0.0
C668 C 0.03982 0.65063 0.69623 0.0
C669 C 0.06133 0.65097 0.71858 0.0
C670 C 0.00803 0.65103 0.74133 0.0
C671 C 0.05538 0.65182 0.75217 0.0
C672 C 0.97494 0.64659 0.7878 0.0
C673 C 0.93263 0.64959 0.74339 0.0
N674 N 0.02928 0.65166 0.76253 0.0
N675 N 0.95869 0.65134 0.73309 0.0
H676 H 0.31334 0.069 0.76046 0.0
H677 H 0.34815 0.91484 0.72182 0.0
H678 H 0.33903 0.04033 0.66565 0.0
H679 H 0.31677 0.94183 0.81482 0.0
H680 H 0.34183 0.96026 0.69979 0.0
H681 H 0.3111 0.02225 0.77979 0.0
C682 C 0.31822 0.05283 0.74361 0.0
C683 C 0.32659 0.05852 0.71149 0.0
C684 C 0.33612 0.95625 0.72495 0.0
C685 C 0.3243 0.00506 0.73347 0.0
C686 C 0.33975 0.93032 0.73755 0.0
C687 C 0.33315 0.92465 0.77025 0.0
C688 C 0.32599 0.97676 0.74527 0.0
C689 C 0.32222 0.94541 0.78949 0.0
C690 C 0.31697 0.02616 0.75466 0.0
C691 C 0.33261 0.03684 0.69066 0.0
N692 N 0.31919 0.97063 0.77678 0.0
N693 N 0.33158 0.01109 0.70211 0.0
H694 H 0.07391 0.3538 0.71663 0.0
H695 H 0.92007 0.31438 0.75293 0.0
H696 H 0.0476 0.31613 0.80658 0.0
H697 H 0.94756 0.3504 0.66251 0.0
H698 H 0.96697 0.31172 0.77162 0.0
H699 H 0.02817 0.34964 0.69499 0.0
C700 C 0.05851 0.34448 0.73175 0.0
C701 C 0.06449 0.33544 0.76351 0.0
C702 C 0.96276 0.32002 0.74759 0.0
C703 C 0.01198 0.33074 0.73897 0.0
C704 C 0.93601 0.32152 0.7369 0.0
C705 C 0.92995 0.33278 0.70621 0.0
C706 C 0.98357 0.32994 0.72746 0.0
C707 C 0.95134 0.34168 0.68641 0.0
C708 C 0.03238 0.34211 0.71939 0.0
C709 C 0.0438 0.32344 0.78199 0.0
N710 N 0.97718 0.34022 0.69747 0.0
N711 N 0.01839 0.3216 0.76953 0.0
H712 H 0.3431 0.07378 0.21903 0.0
H713 H 0.31743 0.91951 0.26649 0.0
H714 H 0.3169 0.04824 0.31506 0.0
H715 H 0.33531 0.94689 0.16841 0.0
H716 H 0.31396 0.96659 0.28413 0.0
H717 H 0.3374 0.02763 0.19935 0.0
C718 C 0.33595 0.05846 0.23592 0.0
C719 C 0.33065 0.06476 0.26877 0.0
C720 C 0.31836 0.9623 0.25868 0.0
C721 C 0.32425 0.01181 0.24649 0.0
C722 C 0.32032 0.93544 0.2486 0.0
C723 C 0.32688 0.92933 0.216 0.0
C724 C 0.32319 0.98316 0.23602 0.0
C725 C 0.33036 0.95071 0.19382 0.0
C726 C 0.33267 0.03211 0.22467 0.0
C727 C 0.32131 0.04418 0.28956 0.0
N728 N 0.32872 0.97667 0.2043 0.0
N729 N 0.31864 0.01853 0.27814 0.0
H730 H 0.94691 0.33141 0.32197 0.0
H731 H 0.07714 0.31392 0.26235 0.0
H732 H 0.92088 0.32185 0.22178 0.0
H733 H 0.04289 0.33945 0.17015 0.0
H734 H 0.03164 0.30818 0.28431 0.0
H735 H 0.99369 0.32726 0.30412 0.0
C736 C 0.95107 0.32794 0.29625 0.0
C737 C 0.93003 0.32702 0.27331 0.0
C738 C 0.03398 0.31532 0.25941 0.0
C739 C 0.98359 0.32175 0.25259 0.0
C740 C 0.06 0.3183 0.24673 0.0
C741 C 0.06376 0.32756 0.21455 0.0
C742 C 0.01158 0.32187 0.23979 0.0
C743 C 0.04087 0.33255 0.19522 0.0
C744 C 0.97784 0.32531 0.28605 0.0
C745 C 0.93652 0.32268 0.24028 0.0
N746 N 0.01575 0.32978 0.20821 0.0
N747 N 0.96277 0.32051 0.23086 0.0
H748 H 0.6453 0.91526 0.21768 0.0
H749 H 0.6621 0.07263 0.25825 0.0
H750 H 0.65696 0.94648 0.3153 0.0
H751 H 0.63657 0.04263 0.16402 0.0
H752 H 0.66498 0.02616 0.2783 0.0
H753 H 0.64678 0.96146 0.19627 0.0
C754 C 0.64835 0.93183 0.23457 0.0
C755 C 0.65091 0.92708 0.26832 0.0
C756 C 0.65881 0.02972 0.25321 0.0
C757 C 0.65259 0.97991 0.24405 0.0
C758 C 0.65721 0.05624 0.24174 0.0
C759 C 0.64897 0.06146 0.20947 0.0
C760 C 0.65224 0.00825 0.23222 0.0
C761 C 0.64291 0.03948 0.18912 0.0
C762 C 0.64911 0.95819 0.22236 0.0
C763 C 0.65479 0.94926 0.28911 0.0
N764 N 0.64463 0.01382 0.20084 0.0
N765 N 0.65547 0.97472 0.27665 0.0
H766 H 0.07318 0.65431 0.22591 0.0
H767 H 0.91567 0.64892 0.27121 0.0
H768 H 0.04309 0.64404 0.3244 0.0
H769 H 0.94603 0.65124 0.17211 0.0
H770 H 0.96215 0.6507 0.29151 0.0
H771 H 0.02663 0.65675 0.20604 0.0
C772 C 0.05676 0.65268 0.24337 0.0
C773 C 0.06197 0.64887 0.27683 0.0
C774 C 0.95864 0.65091 0.26532 0.0
C775 C 0.00868 0.65161 0.25431 0.0
C776 C 0.93212 0.64995 0.25374 0.0
C777 C 0.92703 0.64984 0.21994 0.0
C778 C 0.98021 0.65182 0.24294 0.0
C779 C 0.94907 0.65121 0.19838 0.0
C780 C 0.0302 0.65404 0.23202 0.0
C781 C 0.03996 0.64691 0.29838 0.0
N782 N 0.9747 0.65208 0.21024 0.0
N783 N 0.01427 0.64824 0.28674 0.0
loop_
_geom_bond_atom_site_label_1
_geom_bond_atom_site_label_2
_geom_bond_distance
_geom_bond_site_symmetry_2
_ccdc_geom_bond_type
In0 O1 2.294 . S
In0 O2 2.326 . S
In0 O6 2.266 . S
In0 O7 2.326 . S
In0 O8 2.266 . S
In0 O9 2.326 . S
In0 O11 2.294 . S
In0 O12 2.326 . S
O1 In0 2.294 . S
O1 C10 1.240 . S
O2 In0 2.326 . S
O2 C10 1.252 . S
C3 O6 1.252 . S
C3 O7 1.260 . S
C4 O11 1.240 . S
C4 O12 1.252 . S
C5 O8 1.252 . S
C5 O9 1.260 . S
O6 In0 2.266 . S
O6 C3 1.252 . S
O7 In0 2.326 . S
O7 C3 1.260 . S
O8 In0 2.266 . S
O8 C5 1.252 . S
O9 In0 2.326 . S
O9 C5 1.260 . S
C10 O1 1.240 . S
C10 O2 1.252 . S
O11 In0 2.294 . S
O11 C4 1.240 . S
O12 In0 2.326 . S
O12 C4 1.252 . S
In13 O14 2.294 . S
In13 O15 2.326 . S
In13 O19 2.266 . S
In13 O20 2.326 . S
In13 O21 2.266 . S
In13 O22 2.326 . S
In13 O24 2.294 . S
In13 O25 2.326 . S
O14 In13 2.294 . S
O14 C23 1.240 . S
O15 In13 2.326 . S
O15 C23 1.252 . S
C16 O19 1.252 . S
C16 O20 1.260 . S
C17 O24 1.240 . S
C17 O25 1.252 . S
C18 O21 1.252 . S
C18 O22 1.260 . S
O19 In13 2.266 . S
O19 C16 1.252 . S
O20 In13 2.326 . S
O20 C16 1.260 . S
O21 In13 2.266 . S
O21 C18 1.252 . S
O22 In13 2.326 . S
O22 C18 1.260 . S
C23 O14 1.240 . S
C23 O15 1.252 . S
O24 In13 2.294 . S
O24 C17 1.240 . S
O25 In13 2.326 . S
O25 C17 1.252 . S
In26 O27 2.294 . S
In26 O28 2.326 . S
In26 O32 2.266 . S
In26 O33 2.326 . S
In26 O34 2.266 . S
In26 O35 2.326 . S
In26 O37 2.294 . S
In26 O38 2.326 . S
O27 In26 2.294 . S
O27 C36 1.240 . S
O28 In26 2.326 . S
O28 C36 1.252 . S
C29 O32 1.252 . S
C29 O33 1.260 . S
C30 O37 1.240 . S
C30 O38 1.252 . S
C31 O34 1.252 . S
C31 O35 1.260 . S
O32 In26 2.266 . S
O32 C29 1.252 . S
O33 In26 2.326 . S
O33 C29 1.260 . S
O34 In26 2.266 . S
O34 C31 1.252 . S
O35 In26 2.326 . S
O35 C31 1.260 . S
C36 O27 1.240 . S
C36 O28 1.252 . S
O37 In26 2.294 . S
O37 C30 1.240 . S
O38 In26 2.326 . S
O38 C30 1.252 . S
In39 O40 2.294 . S
In39 O41 2.326 . S
In39 O45 2.266 . S
In39 O46 2.326 . S
In39 O47 2.266 . S
In39 O48 2.326 . S
In39 O50 2.294 . S
In39 O51 2.326 . S
O40 In39 2.294 . S
O40 C49 1.240 . S
O41 In39 2.326 . S
O41 C49 1.252 . S
C42 O45 1.252 . S
C42 O46 1.260 . S
C43 O50 1.240 . S
C43 O51 1.252 . S
C44 O47 1.252 . S
C44 O48 1.260 . S
O45 In39 2.266 . S
O45 C42 1.252 . S
O46 In39 2.326 . S
O46 C42 1.260 . S
O47 In39 2.266 . S
O47 C44 1.252 . S
O48 In39 2.326 . S
O48 C44 1.260 . S
C49 O40 1.240 . S
C49 O41 1.252 . S
O50 In39 2.294 . S
O50 C43 1.240 . S
O51 In39 2.326 . S
O51 C43 1.252 . S
In52 O53 2.294 . S
In52 O54 2.326 . S
In52 O58 2.266 . S
In52 O59 2.326 . S
In52 O60 2.266 . S
In52 O61 2.326 . S
In52 O63 2.294 . S
In52 O64 2.326 . S
O53 In52 2.294 . S
O53 C62 1.240 . S
O54 In52 2.326 . S
O54 C62 1.252 . S
C55 O58 1.252 . S
C55 O59 1.260 . S
C56 O63 1.240 . S
C56 O64 1.252 . S
C57 O60 1.252 . S
C57 O61 1.260 . S
O58 In52 2.266 . S
O58 C55 1.252 . S
O59 In52 2.326 . S
O59 C55 1.260 . S
O60 In52 2.266 . S
O60 C57 1.252 . S
O61 In52 2.326 . S
O61 C57 1.260 . S
C62 O53 1.240 . S
C62 O54 1.252 . S
O63 In52 2.294 . S
O63 C56 1.240 . S
O64 In52 2.326 . S
O64 C56 1.252 . S
In65 O66 2.294 . S
In65 O67 2.326 . S
In65 O71 2.266 . S
In65 O72 2.326 . S
In65 O73 2.266 . S
In65 O74 2.326 . S
In65 O76 2.294 . S
In65 O77 2.326 . S
O66 In65 2.294 . S
O66 C75 1.240 . S
O67 In65 2.326 . S
O67 C75 1.252 . S
C68 O71 1.252 . S
C68 O72 1.260 . S
C69 O76 1.240 . S
C69 O77 1.252 . S
C70 O73 1.252 . S
C70 O74 1.260 . S
O71 In65 2.266 . S
O71 C68 1.252 . S
O72 In65 2.326 . S
O72 C68 1.260 . S
O73 In65 2.266 . S
O73 C70 1.252 . S
O74 In65 2.326 . S
O74 C70 1.260 . S
C75 O66 1.240 . S
C75 O67 1.252 . S
O76 In65 2.294 . S
O76 C69 1.240 . S
O77 In65 2.326 . S
O77 C69 1.252 . S
In78 O79 2.294 . S
In78 O80 2.326 . S
In78 O84 2.266 . S
In78 O85 2.326 . S
In78 O86 2.266 . S
In78 O87 2.326 . S
In78 O89 2.294 . S
In78 O90 2.326 . S
O79 In78 2.294 . S
O79 C88 1.240 . S
O80 In78 2.326 . S
O80 C88 1.252 . S
C81 O84 1.252 . S
C81 O85 1.260 . S
C82 O89 1.240 . S
C82 O90 1.252 . S
C83 O86 1.252 . S
C83 O87 1.260 . S
O84 In78 2.266 . S
O84 C81 1.252 . S
O85 In78 2.326 . S
O85 C81 1.260 . S
O86 In78 2.266 . S
O86 C83 1.252 . S
O87 In78 2.326 . S
O87 C83 1.260 . S
C88 O79 1.240 . S
C88 O80 1.252 . S
O89 In78 2.294 . S
O89 C82 1.240 . S
O90 In78 2.326 . S
O90 C82 1.252 . S
In91 O92 2.294 . S
In91 O93 2.326 . S
In91 O97 2.266 . S
In91 O98 2.326 . S
In91 O99 2.266 . S
In91 O100 2.326 . S
In91 O102 2.294 . S
In91 O103 2.326 . S
O92 In91 2.294 . S
O92 C101 1.240 . S
O93 In91 2.326 . S
O93 C101 1.252 . S
C94 O97 1.252 . S
C94 O98 1.260 . S
C95 O102 1.240 . S
C95 O103 1.252 . S
C96 O99 1.252 . S
C96 O100 1.260 . S
O97 In91 2.266 . S
O97 C94 1.252 . S
O98 In91 2.326 . S
O98 C94 1.260 . S
O99 In91 2.266 . S
O99 C96 1.252 . S
O100 In91 2.326 . S
O100 C96 1.260 . S
C101 O92 1.240 . S
C101 O93 1.252 . S
O102 In91 2.294 . S
O102 C95 1.240 . S
O103 In91 2.326 . S
O103 C95 1.252 . S
In104 O105 2.294 . S
In104 O106 2.326 . S
In104 O110 2.266 . S
In104 O111 2.326 . S
In104 O112 2.266 . S
In104 O113 2.326 . S
In104 O115 2.294 . S
In104 O116 2.326 . S
O105 In104 2.294 . S
O105 C114 1.240 . S
O106 In104 2.326 . S
O106 C114 1.252 . S
C107 O110 1.252 . S
C107 O111 1.260 . S
C108 O115 1.240 . S
C108 O116 1.252 . S
C109 O112 1.252 . S
C109 O113 1.260 . S
O110 In104 2.266 . S
O110 C107 1.252 . S
O111 In104 2.326 . S
O111 C107 1.260 . S
O112 In104 2.266 . S
O112 C109 1.252 . S
O113 In104 2.326 . S
O113 C109 1.260 . S
C114 O105 1.240 . S
C114 O106 1.252 . S
O115 In104 2.294 . S
O115 C108 1.240 . S
O116 In104 2.326 . S
O116 C108 1.252 . S
In117 O118 2.294 . S
In117 O119 2.326 . S
In117 O123 2.266 . S
In117 O124 2.326 . S
In117 O125 2.266 . S
In117 O126 2.326 . S
In117 O128 2.294 . S
In117 O129 2.326 . S
O118 In117 2.294 . S
O118 C127 1.240 . S
O119 In117 2.326 . S
O119 C127 1.252 . S
C120 O123 1.252 . S
C120 O124 1.260 . S
C121 O128 1.240 . S
C121 O129 1.252 . S
C122 O125 1.252 . S
C122 O126 1.260 . S
O123 In117 2.266 . S
O123 C120 1.252 . S
O124 In117 2.326 . S
O124 C120 1.260 . S
O125 In117 2.266 . S
O125 C122 1.252 . S
O126 In117 2.326 . S
O126 C122 1.260 . S
C127 O118 1.240 . S
C127 O119 1.252 . S
O128 In117 2.294 . S
O128 C121 1.240 . S
O129 In117 2.326 . S
O129 C121 1.252 . S
In130 O131 2.294 . S
In130 O132 2.326 . S
In130 O136 2.266 . S
In130 O137 2.326 . S
In130 O138 2.266 . S
In130 O139 2.326 . S
In130 O141 2.294 . S
In130 O142 2.326 . S
O131 In130 2.294 . S
O131 C140 1.240 . S
O132 In130 2.326 . S
O132 C140 1.252 . S
C133 O136 1.252 . S
C133 O137 1.260 . S
C134 O141 1.240 . S
C134 O142 1.252 . S
C135 O138 1.252 . S
C135 O139 1.260 . S
O136 In130 2.266 . S
O136 C133 1.252 . S
O137 In130 2.326 . S
O137 C133 1.260 . S
O138 In130 2.266 . S
O138 C135 1.252 . S
O139 In130 2.326 . S
O139 C135 1.260 . S
C140 O131 1.240 . S
C140 O132 1.252 . S
O141 In130 2.294 . S
O141 C134 1.240 . S
O142 In130 2.326 . S
O142 C134 1.252 . S
In143 O144 2.294 . S
In143 O145 2.326 . S
In143 O149 2.266 . S
In143 O150 2.326 . S
In143 O151 2.266 . S
In143 O152 2.326 . S
In143 O154 2.294 . S
In143 O155 2.326 . S
O144 In143 2.294 . S
O144 C153 1.240 . S
O145 In143 2.326 . S
O145 C153 1.252 . S
C146 O149 1.252 . S
C146 O150 1.260 . S
C147 O154 1.240 . S
C147 O155 1.252 . S
C148 O151 1.252 . S
C148 O152 1.260 . S
O149 In143 2.266 . S
O149 C146 1.252 . S
O150 In143 2.326 . S
O150 C146 1.260 . S
O151 In143 2.266 . S
O151 C148 1.252 . S
O152 In143 2.326 . S
O152 C148 1.260 . S
C153 O144 1.240 . S
C153 O145 1.252 . S
O154 In143 2.294 . S
O154 C147 1.240 . S
O155 In143 2.326 . S
O155 C147 1.252 . S
In156 O157 2.294 . S
In156 O158 2.326 . S
In156 O162 2.266 . S
In156 O163 2.326 . S
In156 O164 2.266 . S
In156 O165 2.326 . S
In156 O167 2.294 . S
In156 O168 2.326 . S
O157 In156 2.294 . S
O157 C166 1.240 . S
O158 In156 2.326 . S
O158 C166 1.252 . S
C159 O162 1.252 . S
C159 O163 1.260 . S
C160 O167 1.240 . S
C160 O168 1.252 . S
C161 O164 1.252 . S
C161 O165 1.260 . S
O162 In156 2.266 . S
O162 C159 1.252 . S
O163 In156 2.326 . S
O163 C159 1.260 . S
O164 In156 2.266 . S
O164 C161 1.252 . S
O165 In156 2.326 . S
O165 C161 1.260 . S
C166 O157 1.240 . S
C166 O158 1.252 . S
O167 In156 2.294 . S
O167 C160 1.240 . S
O168 In156 2.326 . S
O168 C160 1.252 . S
In169 O170 2.294 . S
In169 O171 2.326 . S
In169 O175 2.266 . S
In169 O176 2.326 . S
In169 O177 2.266 . S
In169 O178 2.326 . S
In169 O180 2.294 . S
In169 O181 2.326 . S
O170 In169 2.294 . S
O170 C179 1.240 . S
O171 In169 2.326 . S
O171 C179 1.252 . S
C172 O175 1.252 . S
C172 O176 1.260 . S
C173 O180 1.240 . S
C173 O181 1.252 . S
C174 O177 1.252 . S
C174 O178 1.260 . S
O175 In169 2.266 . S
O175 C172 1.252 . S
O176 In169 2.326 . S
O176 C172 1.260 . S
O177 In169 2.266 . S
O177 C174 1.252 . S
O178 In169 2.326 . S
O178 C174 1.260 . S
C179 O170 1.240 . S
C179 O171 1.252 . S
O180 In169 2.294 . S
O180 C173 1.240 . S
O181 In169 2.326 . S
O181 C173 1.252 . S
In182 O183 2.294 . S
In182 O184 2.326 . S
In182 O188 2.266 . S
In182 O189 2.326 . S
In182 O190 2.266 . S
In182 O191 2.326 . S
In182 O193 2.294 . S
In182 O194 2.326 . S
O183 In182 2.294 . S
O183 C192 1.240 . S
O184 In182 2.326 . S
O184 C192 1.252 . S
C185 O188 1.252 . S
C185 O189 1.260 . S
C186 O193 1.240 . S
C186 O194 1.252 . S
C187 O190 1.252 . S
C187 O191 1.260 . S
O188 In182 2.266 . S
O188 C185 1.252 . S
O189 In182 2.326 . S
O189 C185 1.260 . S
O190 In182 2.266 . S
O190 C187 1.252 . S
O191 In182 2.326 . S
O191 C187 1.260 . S
C192 O183 1.240 . S
C192 O184 1.252 . S
O193 In182 2.294 . S
O193 C186 1.240 . S
O194 In182 2.326 . S
O194 C186 1.252 . S
In195 O196 2.294 . S
In195 O197 2.326 . S
In195 O201 2.266 . S
In195 O202 2.326 . S
In195 O203 2.266 . S
In195 O204 2.326 . S
In195 O206 2.294 . S
In195 O207 2.326 . S
O196 In195 2.294 . S
O196 C205 1.240 . S
O197 In195 2.326 . S
O197 C205 1.252 . S
C198 O201 1.252 . S
C198 O202 1.260 . S
C199 O206 1.240 . S
C199 O207 1.252 . S
C200 O203 1.252 . S
C200 O204 1.260 . S
O201 In195 2.266 . S
O201 C198 1.252 . S
O202 In195 2.326 . S
O202 C198 1.260 . S
O203 In195 2.266 . S
O203 C200 1.252 . S
O204 In195 2.326 . S
O204 C200 1.260 . S
C205 O196 1.240 . S
C205 O197 1.252 . S
O206 In195 2.294 . S
O206 C199 1.240 . S
O207 In195 2.326 . S
O207 C199 1.252 . S
H208 C214 0.930 . S
H209 C218 0.930 . S
H210 C223 0.929 . S
H211 C221 0.929 . S
H212 C216 0.929 . S
H213 C222 0.929 . S
C214 H208 0.930 . S
C214 C215 1.367 . S
C214 C222 1.378 . S
C215 C214 1.367 . S
C215 C223 1.433 . S
C216 H212 0.929 . S
C216 C218 1.378 . S
C216 C220 1.350 . S
C217 C220 1.463 . S
C217 C222 1.350 . S
C217 N225 1.427 . S
C218 H209 0.930 . S
C218 C216 1.378 . S
C218 C219 1.367 . S
C219 C218 1.367 . S
C219 C221 1.433 . S
C220 C216 1.350 . S
C220 C217 1.463 . S
C220 N224 1.427 . S
C221 H211 0.929 . S
C221 C219 1.433 . S
C221 N224 1.384 . S
C222 H213 0.929 . S
C222 C214 1.378 . S
C222 C217 1.350 . S
C223 H210 0.929 . S
C223 C215 1.433 . S
C223 N225 1.384 . S
N224 C220 1.427 . S
N224 C221 1.384 . S
N225 C217 1.427 . S
N225 C223 1.384 . S
H226 C232 0.930 . S
H227 C236 0.930 . S
H228 C241 0.929 . S
H229 C239 0.929 . S
H230 C234 0.929 . S
H231 C240 0.929 . S
C232 H226 0.930 . S
C232 C233 1.367 . S
C232 C240 1.378 . S
C233 C232 1.367 . S
C233 C241 1.433 . S
C234 H230 0.929 . S
C234 C236 1.378 . S
C234 C238 1.350 . S
C235 C238 1.463 . S
C235 C240 1.350 . S
C235 N243 1.427 . S
C236 H227 0.930 . S
C236 C234 1.378 . S
C236 C237 1.367 . S
C237 C236 1.367 . S
C237 C239 1.433 . S
C238 C234 1.350 . S
C238 C235 1.463 . S
C238 N242 1.427 . S
C239 H229 0.929 . S
C239 C237 1.433 . S
C239 N242 1.384 . S
C240 H231 0.929 . S
C240 C232 1.378 . S
C240 C235 1.350 . S
C241 H228 0.929 . S
C241 C233 1.433 . S
C241 N243 1.384 . S
N242 C238 1.427 . S
N242 C239 1.384 . S
N243 C235 1.427 . S
N243 C241 1.384 . S
H244 C250 0.930 . S
H245 C254 0.930 . S
H246 C259 0.929 . S
H247 C257 0.929 . S
H248 C252 0.929 . S
H249 C258 0.929 . S
C250 H244 0.930 . S
C250 C251 1.367 . S
C250 C258 1.378 . S
C251 C250 1.367 . S
C251 C259 1.433 . S
C252 H248 0.929 . S
C252 C254 1.378 . S
C252 C256 1.350 . S
C253 C256 1.463 . S
C253 C258 1.350 . S
C253 N261 1.427 . S
C254 H245 0.930 . S
C254 C252 1.378 . S
C254 C255 1.367 . S
C255 C254 1.367 . S
C255 C257 1.433 . S
C256 C252 1.350 . S
C256 C253 1.463 . S
C256 N260 1.427 . S
C257 H247 0.929 . S
C257 C255 1.433 . S
C257 N260 1.384 . S
C258 H249 0.929 . S
C258 C250 1.378 . S
C258 C253 1.350 . S
C259 H246 0.929 . S
C259 C251 1.433 . S
C259 N261 1.384 . S
N260 C256 1.427 . S
N260 C257 1.384 . S
N261 C253 1.427 . S
N261 C259 1.384 . S
H262 C268 0.930 . S
H263 C272 0.930 . S
H264 C277 0.929 . S
H265 C275 0.929 . S
H266 C270 0.929 . S
H267 C276 0.929 . S
C268 H262 0.930 . S
C268 C269 1.367 . S
C268 C276 1.378 . S
C269 C268 1.367 . S
C269 C277 1.433 . S
C270 H266 0.929 . S
C270 C272 1.378 . S
C270 C274 1.350 . S
C271 C274 1.463 . S
C271 C276 1.350 . S
C271 N279 1.427 . S
C272 H263 0.930 . S
C272 C270 1.378 . S
C272 C273 1.367 . S
C273 C272 1.367 . S
C273 C275 1.433 . S
C274 C270 1.350 . S
C274 C271 1.463 . S
C274 N278 1.427 . S
C275 H265 0.929 . S
C275 C273 1.433 . S
C275 N278 1.384 . S
C276 H267 0.929 . S
C276 C268 1.378 . S
C276 C271 1.350 . S
C277 H264 0.929 . S
C277 C269 1.433 . S
C277 N279 1.384 . S
N278 C274 1.427 . S
N278 C275 1.384 . S
N279 C271 1.427 . S
N279 C277 1.384 . S
H280 C286 0.930 . S
H281 C290 0.930 . S
H282 C295 0.929 . S
H283 C293 0.929 . S
H284 C288 0.929 . S
H285 C294 0.929 . S
C286 H280 0.930 . S
C286 C287 1.367 . S
C286 C294 1.378 . S
C287 C286 1.367 . S
C287 C295 1.433 . S
C288 H284 0.929 . S
C288 C290 1.378 . S
C288 C292 1.350 . S
C289 C292 1.463 . S
C289 C294 1.350 . S
C289 N297 1.427 . S
C290 H281 0.930 . S
C290 C288 1.378 . S
C290 C291 1.367 . S
C291 C290 1.367 . S
C291 C293 1.433 . S
C292 C288 1.350 . S
C292 C289 1.463 . S
C292 N296 1.427 . S
C293 H283 0.929 . S
C293 C291 1.433 . S
C293 N296 1.384 . S
C294 H285 0.929 . S
C294 C286 1.378 . S
C294 C289 1.350 . S
C295 H282 0.929 . S
C295 C287 1.433 . S
C295 N297 1.384 . S
N296 C292 1.427 . S
N296 C293 1.384 . S
N297 C289 1.427 . S
N297 C295 1.384 . S
H298 C304 0.930 . S
H299 C308 0.930 . S
H300 C313 0.929 . S
H301 C311 0.929 . S
H302 C306 0.929 . S
H303 C312 0.929 . S
C304 H298 0.930 . S
C304 C305 1.367 . S
C304 C312 1.378 . S
C305 C304 1.367 . S
C305 C313 1.433 . S
C306 H302 0.929 . S
C306 C308 1.378 . S
C306 C310 1.350 . S
C307 C310 1.463 . S
C307 C312 1.350 . S
C307 N315 1.427 . S
C308 H299 0.930 . S
C308 C306 1.378 . S
C308 C309 1.367 . S
C309 C308 1.367 . S
C309 C311 1.433 . S
C310 C306 1.350 . S
C310 C307 1.463 . S
C310 N314 1.427 . S
C311 H301 0.929 . S
C311 C309 1.433 . S
C311 N314 1.384 . S
C312 H303 0.929 . S
C312 C304 1.378 . S
C312 C307 1.350 . S
C313 H300 0.929 . S
C313 C305 1.433 . S
C313 N315 1.384 . S
N314 C310 1.427 . S
N314 C311 1.384 . S
N315 C307 1.427 . S
N315 C313 1.384 . S
H316 C322 0.930 . S
H317 C326 0.930 . S
H318 C331 0.929 . S
H319 C329 0.929 . S
H320 C324 0.929 . S
H321 C330 0.929 . S
C322 H316 0.930 . S
C322 C323 1.367 . S
C322 C330 1.378 . S
C323 C322 1.367 . S
C323 C331 1.433 . S
C324 H320 0.929 . S
C324 C326 1.378 . S
C324 C328 1.350 . S
C325 C328 1.463 . S
C325 C330 1.350 . S
C325 N333 1.427 . S
C326 H317 0.930 . S
C326 C324 1.378 . S
C326 C327 1.367 . S
C327 C326 1.367 . S
C327 C329 1.433 . S
C328 C324 1.350 . S
C328 C325 1.463 . S
C328 N332 1.427 . S
C329 H319 0.929 . S
C329 C327 1.433 . S
C329 N332 1.384 . S
C330 H321 0.929 . S
C330 C322 1.378 . S
C330 C325 1.350 . S
C331 H318 0.929 . S
C331 C323 1.433 . S
C331 N333 1.384 . S
N332 C328 1.427 . S
N332 C329 1.384 . S
N333 C325 1.427 . S
N333 C331 1.384 . S
H334 C340 0.930 . S
H335 C344 0.930 . S
H336 C349 0.929 . S
H337 C347 0.929 . S
H338 C342 0.929 . S
H339 C348 0.929 . S
C340 H334 0.930 . S
C340 C341 1.367 . S
C340 C348 1.378 . S
C341 C340 1.367 . S
C341 C349 1.433 . S
C342 H338 0.929 . S
C342 C344 1.378 . S
C342 C346 1.350 . S
C343 C346 1.463 . S
C343 C348 1.350 . S
C343 N351 1.427 . S
C344 H335 0.930 . S
C344 C342 1.378 . S
C344 C345 1.367 . S
C345 C344 1.367 . S
C345 C347 1.433 . S
C346 C342 1.350 . S
C346 C343 1.463 . S
C346 N350 1.427 . S
C347 H337 0.929 . S
C347 C345 1.433 . S
C347 N350 1.384 . S
C348 H339 0.929 . S
C348 C340 1.378 . S
C348 C343 1.350 . S
C349 H336 0.929 . S
C349 C341 1.433 . S
C349 N351 1.384 . S
N350 C346 1.427 . S
N350 C347 1.384 . S
N351 C343 1.427 . S
N351 C349 1.384 . S
H352 C358 0.930 . S
H353 C362 0.930 . S
H354 C367 0.929 . S
H355 C365 0.929 . S
H356 C360 0.929 . S
H357 C366 0.929 . S
C358 H352 0.930 . S
C358 C359 1.367 . S
C358 C366 1.378 . S
C359 C358 1.367 . S
C359 C367 1.433 . S
C360 H356 0.929 . S
C360 C362 1.378 . S
C360 C364 1.350 . S
C361 C364 1.463 1_556 S
C361 C366 1.350 . S
C361 N369 1.427 . S
C362 H353 0.930 . S
C362 C360 1.378 . S
C362 C363 1.367 . S
C363 C362 1.367 . S
C363 C365 1.433 . S
C364 C360 1.350 . S
C364 C361 1.463 1_554 S
C364 N368 1.427 . S
C365 H355 0.929 . S
C365 C363 1.433 . S
C365 N368 1.384 . S
C366 H357 0.929 . S
C366 C358 1.378 . S
C366 C361 1.350 . S
C367 H354 0.929 . S
C367 C359 1.433 . S
C367 N369 1.384 . S
N368 C364 1.427 . S
N368 C365 1.384 . S
N369 C361 1.427 . S
N369 C367 1.384 . S
H370 C376 0.930 . S
H371 C380 0.930 . S
H372 C385 0.929 . S
H373 C383 0.929 . S
H374 C378 0.929 . S
H375 C384 0.929 . S
C376 H370 0.930 . S
C376 C377 1.367 . S
C376 C384 1.378 . S
C377 C376 1.367 . S
C377 C385 1.433 . S
C378 H374 0.929 . S
C378 C380 1.378 . S
C378 C382 1.350 . S
C379 C382 1.463 1_556 S
C379 C384 1.350 . S
C379 N387 1.427 . S
C380 H371 0.930 . S
C380 C378 1.378 . S
C380 C381 1.367 . S
C381 C380 1.367 . S
C381 C383 1.433 . S
C382 C378 1.350 . S
C382 C379 1.463 1_554 S
C382 N386 1.427 . S
C383 H373 0.929 . S
C383 C381 1.433 . S
C383 N386 1.384 . S
C384 H375 0.929 . S
C384 C376 1.378 . S
C384 C379 1.350 . S
C385 H372 0.929 . S
C385 C377 1.433 . S
C385 N387 1.384 . S
N386 C382 1.427 . S
N386 C383 1.384 . S
N387 C379 1.427 . S
N387 C385 1.384 . S
H388 C394 0.930 . S
H389 C398 0.930 . S
H390 C403 0.929 . S
H391 C401 0.929 . S
H392 C396 0.929 . S
H393 C402 0.929 . S
C394 H388 0.930 . S
C394 C395 1.367 . S
C394 C402 1.378 . S
C395 C394 1.367 . S
C395 C403 1.433 . S
C396 H392 0.929 . S
C396 C398 1.378 . S
C396 C400 1.350 . S
C397 C400 1.463 1_556 S
C397 C402 1.350 . S
C397 N405 1.427 . S
C398 H389 0.930 . S
C398 C396 1.378 . S
C398 C399 1.367 . S
C399 C398 1.367 . S
C399 C401 1.433 . S
C400 C396 1.350 . S
C400 C397 1.463 1_554 S
C400 N404 1.427 . S
C401 H391 0.929 . S
C401 C399 1.433 . S
C401 N404 1.384 . S
C402 H393 0.929 . S
C402 C394 1.378 . S
C402 C397 1.350 . S
C403 H390 0.929 . S
C403 C395 1.433 . S
C403 N405 1.384 . S
N404 C400 1.427 . S
N404 C401 1.384 . S
N405 C397 1.427 . S
N405 C403 1.384 . S
H406 C412 0.930 . S
H407 C416 0.930 . S
H408 C421 0.929 . S
H409 C419 0.929 . S
H410 C414 0.929 . S
H411 C420 0.929 . S
C412 H406 0.930 . S
C412 C413 1.367 . S
C412 C420 1.378 . S
C413 C412 1.367 . S
C413 C421 1.433 . S
C414 H410 0.929 . S
C414 C416 1.378 . S
C414 C418 1.350 . S
C415 C418 1.463 1_554 S
C415 C420 1.350 . S
C415 N423 1.427 . S
C416 H407 0.930 . S
C416 C414 1.378 . S
C416 C417 1.367 . S
C417 C416 1.367 . S
C417 C419 1.433 . S
C418 C414 1.350 . S
C418 C415 1.463 1_556 S
C418 N422 1.427 . S
C419 H409 0.929 . S
C419 C417 1.433 . S
C419 N422 1.384 . S
C420 H411 0.929 . S
C420 C412 1.378 . S
C420 C415 1.350 . S
C421 H408 0.929 . S
C421 C413 1.433 . S
C421 N423 1.384 . S
N422 C418 1.427 . S
N422 C419 1.384 . S
N423 C415 1.427 . S
N423 C421 1.384 . S
H424 C430 0.930 . S
H425 C434 0.930 . S
H426 C439 0.929 . S
H427 C437 0.929 . S
H428 C432 0.929 . S
H429 C438 0.929 . S
C430 H424 0.930 . S
C430 C431 1.367 . S
C430 C438 1.378 . S
C431 C430 1.367 . S
C431 C439 1.433 . S
C432 H428 0.929 . S
C432 C434 1.378 . S
C432 C436 1.350 . S
C433 C436 1.463 . S
C433 C438 1.350 . S
C433 N441 1.427 . S
C434 H425 0.930 . S
C434 C432 1.378 . S
C434 C435 1.367 . S
C435 C434 1.367 . S
C435 C437 1.433 . S
C436 C432 1.350 . S
C436 C433 1.463 . S
C436 N440 1.427 . S
C437 H427 0.929 . S
C437 C435 1.433 . S
C437 N440 1.384 . S
C438 H429 0.929 . S
C438 C430 1.378 . S
C438 C433 1.350 . S
C439 H426 0.929 . S
C439 C431 1.433 . S
C439 N441 1.384 . S
N440 C436 1.427 . S
N440 C437 1.384 . S
N441 C433 1.427 . S
N441 C439 1.384 . S
H442 C448 0.930 . S
H443 C452 0.930 . S
H444 C457 0.929 . S
H445 C455 0.929 . S
H446 C450 0.929 . S
H447 C456 0.929 . S
C448 H442 0.930 . S
C448 C449 1.367 . S
C448 C456 1.378 . S
C449 C448 1.367 . S
C449 C457 1.433 . S
C450 H446 0.929 . S
C450 C452 1.378 . S
C450 C454 1.350 . S
C451 C454 1.463 . S
C451 C456 1.350 . S
C451 N459 1.427 . S
C452 H443 0.930 . S
C452 C450 1.378 . S
C452 C453 1.367 . S
C453 C452 1.367 . S
C453 C455 1.433 . S
C454 C450 1.350 . S
C454 C451 1.463 . S
C454 N458 1.427 . S
C455 H445 0.929 . S
C455 C453 1.433 . S
C455 N458 1.384 . S
C456 H447 0.929 . S
C456 C448 1.378 . S
C456 C451 1.350 . S
C457 H444 0.929 . S
C457 C449 1.433 . S
C457 N459 1.384 . S
N458 C454 1.427 . S
N458 C455 1.384 . S
N459 C451 1.427 . S
N459 C457 1.384 . S
H460 C466 0.930 . S
H461 C470 0.930 . S
H462 C475 0.929 . S
H463 C473 0.929 . S
H464 C468 0.929 . S
H465 C474 0.929 . S
C466 H460 0.930 . S
C466 C467 1.367 . S
C466 C474 1.378 . S
C467 C466 1.367 . S
C467 C475 1.433 . S
C468 H464 0.929 . S
C468 C470 1.378 . S
C468 C472 1.350 . S
C469 C472 1.463 . S
C469 C474 1.350 . S
C469 N477 1.427 . S
C470 H461 0.930 . S
C470 C468 1.378 . S
C470 C471 1.367 . S
C471 C470 1.367 . S
C471 C473 1.433 . S
C472 C468 1.350 . S
C472 C469 1.463 . S
C472 N476 1.427 . S
C473 H463 0.929 . S
C473 C471 1.433 . S
C473 N476 1.384 . S
C474 H465 0.929 . S
C474 C466 1.378 . S
C474 C469 1.350 . S
C475 H462 0.929 . S
C475 C467 1.433 . S
C475 N477 1.384 . S
N476 C472 1.427 . S
N476 C473 1.384 . S
N477 C469 1.427 . S
N477 C475 1.384 . S
H478 C484 0.930 . S
H479 C488 0.930 . S
H480 C493 0.929 . S
H481 C491 0.929 . S
H482 C486 0.929 . S
H483 C492 0.929 . S
C484 H478 0.930 . S
C484 C485 1.367 . S
C484 C492 1.378 . S
C485 C484 1.367 . S
C485 C493 1.433 . S
C486 H482 0.929 . S
C486 C488 1.378 . S
C486 C490 1.350 . S
C487 C490 1.463 . S
C487 C492 1.350 . S
C487 N495 1.427 . S
C488 H479 0.930 . S
C488 C486 1.378 . S
C488 C489 1.367 . S
C489 C488 1.367 . S
C489 C491 1.433 . S
C490 C486 1.350 . S
C490 C487 1.463 . S
C490 N494 1.427 . S
C491 H481 0.929 . S
C491 C489 1.433 . S
C491 N494 1.384 . S
C492 H483 0.929 . S
C492 C484 1.378 . S
C492 C487 1.350 . S
C493 H480 0.929 . S
C493 C485 1.433 . S
C493 N495 1.384 . S
N494 C490 1.427 . S
N494 C491 1.384 . S
N495 C487 1.427 . S
N495 C493 1.384 . S
H496 C502 0.930 . S
H497 C506 0.930 . S
H498 C511 0.929 . S
H499 C509 0.929 . S
H500 C504 0.929 . S
H501 C510 0.929 . S
C502 H496 0.930 . S
C502 C503 1.367 . S
C502 C510 1.378 . S
C503 C502 1.367 . S
C503 C511 1.433 . S
C504 H500 0.929 . S
C504 C506 1.378 . S
C504 C508 1.350 . S
C505 C508 1.463 . S
C505 C510 1.350 . S
C505 N513 1.427 . S
C506 H497 0.930 . S
C506 C504 1.378 . S
C506 C507 1.367 . S
C507 C506 1.367 . S
C507 C509 1.433 . S
C508 C504 1.350 . S
C508 C505 1.463 . S
C508 N512 1.427 . S
C509 H499 0.929 . S
C509 C507 1.433 . S
C509 N512 1.384 . S
C510 H501 0.929 . S
C510 C502 1.378 . S
C510 C505 1.350 . S
C511 H498 0.929 . S
C511 C503 1.433 . S
C511 N513 1.384 . S
N512 C508 1.427 . S
N512 C509 1.384 . S
N513 C505 1.427 . S
N513 C511 1.384 . S
H514 C520 0.930 . S
H515 C524 0.930 . S
H516 C529 0.929 . S
H517 C527 0.929 . S
H518 C522 0.929 . S
H519 C528 0.929 . S
C520 H514 0.930 . S
C520 C521 1.367 . S
C520 C528 1.378 . S
C521 C520 1.367 . S
C521 C529 1.433 . S
C522 H518 0.929 . S
C522 C524 1.378 . S
C522 C526 1.350 . S
C523 C526 1.463 . S
C523 C528 1.350 . S
C523 N531 1.427 . S
C524 H515 0.930 . S
C524 C522 1.378 . S
C524 C525 1.367 . S
C525 C524 1.367 . S
C525 C527 1.433 . S
C526 C522 1.350 . S
C526 C523 1.463 . S
C526 N530 1.427 . S
C527 H517 0.929 . S
C527 C525 1.433 . S
C527 N530 1.384 . S
C528 H519 0.929 . S
C528 C520 1.378 . S
C528 C523 1.350 . S
C529 H516 0.929 . S
C529 C521 1.433 . S
C529 N531 1.384 . S
N530 C526 1.427 . S
N530 C527 1.384 . S
N531 C523 1.427 . S
N531 C529 1.384 . S
H532 C538 0.930 . S
H533 C542 0.930 . S
H534 C547 0.929 . S
H535 C545 0.929 . S
H536 C540 0.929 . S
H537 C546 0.929 . S
C538 H532 0.930 . S
C538 C539 1.367 . S
C538 C546 1.378 . S
C539 C538 1.367 . S
C539 C547 1.433 . S
C540 H536 0.929 . S
C540 C542 1.378 . S
C540 C544 1.350 . S
C541 C544 1.463 . S
C541 C546 1.350 . S
C541 N549 1.427 . S
C542 H533 0.930 . S
C542 C540 1.378 . S
C542 C543 1.367 . S
C543 C542 1.367 . S
C543 C545 1.433 . S
C544 C540 1.350 . S
C544 C541 1.463 . S
C544 N548 1.427 . S
C545 H535 0.929 . S
C545 C543 1.433 . S
C545 N548 1.384 . S
C546 H537 0.929 . S
C546 C538 1.378 . S
C546 C541 1.350 . S
C547 H534 0.929 . S
C547 C539 1.433 . S
C547 N549 1.384 . S
N548 C544 1.427 . S
N548 C545 1.384 . S
N549 C541 1.427 . S
N549 C547 1.384 . S
H550 C556 0.930 . S
H551 C560 0.930 . S
H552 C565 0.929 . S
H553 C563 0.929 . S
H554 C558 0.929 . S
H555 C564 0.929 . S
C556 H550 0.930 . S
C556 C557 1.367 . S
C556 C564 1.378 . S
C557 C556 1.367 . S
C557 C565 1.433 . S
C558 H554 0.929 . S
C558 C560 1.378 . S
C558 C562 1.350 . S
C559 C562 1.463 . S
C559 C564 1.350 . S
C559 N567 1.427 . S
C560 H551 0.930 . S
C560 C558 1.378 . S
C560 C561 1.367 . S
C561 C560 1.367 . S
C561 C563 1.433 . S
C562 C558 1.350 . S
C562 C559 1.463 . S
C562 N566 1.427 . S
C563 H553 0.929 . S
C563 C561 1.433 . S
C563 N566 1.384 . S
C564 H555 0.929 . S
C564 C556 1.378 . S
C564 C559 1.350 . S
C565 H552 0.929 . S
C565 C557 1.433 . S
C565 N567 1.384 . S
N566 C562 1.427 . S
N566 C563 1.384 . S
N567 C559 1.427 . S
N567 C565 1.384 . S
H568 C574 0.930 . S
H569 C578 0.930 . S
H570 C583 0.929 . S
H571 C581 0.929 . S
H572 C576 0.929 . S
H573 C582 0.929 . S
C574 H568 0.930 . S
C574 C575 1.367 . S
C574 C582 1.378 . S
C575 C574 1.367 . S
C575 C583 1.433 . S
C576 H572 0.929 . S
C576 C578 1.378 . S
C576 C580 1.350 . S
C577 C580 1.463 . S
C577 C582 1.350 . S
C577 N585 1.427 . S
C578 H569 0.930 . S
C578 C576 1.378 . S
C578 C579 1.367 . S
C579 C578 1.367 . S
C579 C581 1.433 . S
C580 C576 1.350 . S
C580 C577 1.463 . S
C580 N584 1.427 . S
C581 H571 0.929 . S
C581 C579 1.433 . S
C581 N584 1.384 . S
C582 H573 0.929 . S
C582 C574 1.378 . S
C582 C577 1.350 . S
C583 H570 0.929 . S
C583 C575 1.433 . S
C583 N585 1.384 . S
N584 C580 1.427 . S
N584 C581 1.384 . S
N585 C577 1.427 . S
N585 C583 1.384 . S
H586 C592 0.930 . S
H587 C596 0.930 . S
H588 C601 0.929 . S
H589 C599 0.929 . S
H590 C594 0.929 . S
H591 C600 0.929 . S
C592 H586 0.930 . S
C592 C593 1.367 . S
C592 C600 1.378 . S
C593 C592 1.367 . S
C593 C601 1.433 . S
C594 H590 0.929 . S
C594 C596 1.378 . S
C594 C598 1.350 . S
C595 C598 1.463 . S
C595 C600 1.350 . S
C595 N603 1.427 . S
C596 H587 0.930 . S
C596 C594 1.378 . S
C596 C597 1.367 . S
C597 C596 1.367 . S
C597 C599 1.433 . S
C598 C594 1.350 . S
C598 C595 1.463 . S
C598 N602 1.427 . S
C599 H589 0.929 . S
C599 C597 1.433 . S
C599 N602 1.384 . S
C600 H591 0.929 . S
C600 C592 1.378 . S
C600 C595 1.350 . S
C601 H588 0.929 . S
C601 C593 1.433 . S
C601 N603 1.384 . S
N602 C598 1.427 . S
N602 C599 1.384 . S
N603 C595 1.427 . S
N603 C601 1.384 . S
H604 C610 0.930 . S
H605 C614 0.930 . S
H606 C619 0.929 . S
H607 C617 0.929 . S
H608 C612 0.929 . S
H609 C618 0.929 . S
C610 H604 0.930 . S
C610 C611 1.367 . S
C610 C618 1.378 . S
C611 C610 1.367 . S
C611 C619 1.433 . S
C612 H608 0.929 . S
C612 C614 1.378 . S
C612 C616 1.350 . S
C613 C616 1.463 . S
C613 C618 1.350 . S
C613 N621 1.427 . S
C614 H605 0.930 . S
C614 C612 1.378 . S
C614 C615 1.367 . S
C615 C614 1.367 . S
C615 C617 1.433 . S
C616 C612 1.350 . S
C616 C613 1.463 . S
C616 N620 1.427 . S
C617 H607 0.929 . S
C617 C615 1.433 . S
C617 N620 1.384 . S
C618 H609 0.929 . S
C618 C610 1.378 . S
C618 C613 1.350 . S
C619 H606 0.929 . S
C619 C611 1.433 . S
C619 N621 1.384 . S
N620 C616 1.427 . S
N620 C617 1.384 . S
N621 C613 1.427 . S
N621 C619 1.384 . S
H622 C628 0.930 . S
H623 C632 0.930 . S
H624 C637 0.929 . S
H625 C635 0.929 . S
H626 C630 0.929 . S
H627 C636 0.929 . S
C628 H622 0.930 . S
C628 C629 1.367 . S
C628 C636 1.378 . S
C629 C628 1.367 . S
C629 C637 1.433 . S
C630 H626 0.929 . S
C630 C632 1.378 . S
C630 C634 1.350 . S
C631 C634 1.463 . S
C631 C636 1.350 . S
C631 N639 1.427 . S
C632 H623 0.930 . S
C632 C630 1.378 . S
C632 C633 1.367 . S
C633 C632 1.367 . S
C633 C635 1.433 . S
C634 C630 1.350 . S
C634 C631 1.463 . S
C634 N638 1.427 . S
C635 H625 0.929 . S
C635 C633 1.433 . S
C635 N638 1.384 . S
C636 H627 0.929 . S
C636 C628 1.378 . S
C636 C631 1.350 . S
C637 H624 0.929 . S
C637 C629 1.433 . S
C637 N639 1.384 . S
N638 C634 1.427 . S
N638 C635 1.384 . S
N639 C631 1.427 . S
N639 C637 1.384 . S
H640 C646 0.930 . S
H641 C650 0.930 . S
H642 C655 0.929 . S
H643 C653 0.929 . S
H644 C648 0.929 . S
H645 C654 0.929 . S
C646 H640 0.930 . S
C646 C647 1.367 . S
C646 C654 1.378 . S
C647 C646 1.367 . S
C647 C655 1.433 . S
C648 H644 0.929 . S
C648 C650 1.378 . S
C648 C652 1.350 . S
C649 C652 1.463 1_545 S
C649 C654 1.350 . S
C649 N657 1.427 . S
C650 H641 0.930 . S
C650 C648 1.378 . S
C650 C651 1.367 . S
C651 C650 1.367 . S
C651 C653 1.433 . S
C652 C648 1.350 . S
C652 C649 1.463 1_565 S
C652 N656 1.427 . S
C653 H643 0.929 . S
C653 C651 1.433 . S
C653 N656 1.384 . S
C654 H645 0.929 . S
C654 C646 1.378 . S
C654 C649 1.350 . S
C655 H642 0.929 . S
C655 C647 1.433 . S
C655 N657 1.384 . S
N656 C652 1.427 . S
N656 C653 1.384 . S
N657 C649 1.427 . S
N657 C655 1.384 . S
H658 C664 0.930 . S
H659 C668 0.930 . S
H660 C673 0.929 . S
H661 C671 0.929 . S
H662 C666 0.929 . S
H663 C672 0.929 . S
C664 H658 0.930 . S
C664 C665 1.367 . S
C664 C672 1.378 . S
C665 C664 1.367 . S
C665 C673 1.433 . S
C666 H662 0.929 . S
C666 C668 1.378 . S
C666 C670 1.350 . S
C667 C670 1.463 1_655 S
C667 C672 1.350 . S
C667 N675 1.427 . S
C668 H659 0.930 . S
C668 C666 1.378 . S
C668 C669 1.367 . S
C669 C668 1.367 . S
C669 C671 1.433 . S
C670 C666 1.350 . S
C670 C667 1.463 1_455 S
C670 N674 1.427 . S
C671 H661 0.929 . S
C671 C669 1.433 . S
C671 N674 1.384 . S
C672 H663 0.929 . S
C672 C664 1.378 . S
C672 C667 1.350 . S
C673 H660 0.929 . S
C673 C665 1.433 . S
C673 N675 1.384 . S
N674 C670 1.427 . S
N674 C671 1.384 . S
N675 C667 1.427 . S
N675 C673 1.384 . S
H676 C682 0.930 . S
H677 C686 0.930 . S
H678 C691 0.929 . S
H679 C689 0.929 . S
H680 C684 0.929 . S
H681 C690 0.929 . S
C682 H676 0.930 . S
C682 C683 1.367 . S
C682 C690 1.378 . S
C683 C682 1.367 . S
C683 C691 1.433 . S
C684 H680 0.929 . S
C684 C686 1.378 . S
C684 C688 1.350 . S
C685 C688 1.463 1_545 S
C685 C690 1.350 . S
C685 N693 1.427 . S
C686 H677 0.930 . S
C686 C684 1.378 . S
C686 C687 1.367 . S
C687 C686 1.367 . S
C687 C689 1.433 . S
C688 C684 1.350 . S
C688 C685 1.463 1_565 S
C688 N692 1.427 . S
C689 H679 0.929 . S
C689 C687 1.433 . S
C689 N692 1.384 . S
C690 H681 0.929 . S
C690 C682 1.378 . S
C690 C685 1.350 . S
C691 H678 0.929 . S
C691 C683 1.433 . S
C691 N693 1.384 . S
N692 C688 1.427 . S
N692 C689 1.384 . S
N693 C685 1.427 . S
N693 C691 1.384 . S
H694 C700 0.930 . S
H695 C704 0.930 . S
H696 C709 0.929 . S
H697 C707 0.929 . S
H698 C702 0.929 . S
H699 C708 0.929 . S
C700 H694 0.930 . S
C700 C701 1.367 . S
C700 C708 1.378 . S
C701 C700 1.367 . S
C701 C709 1.433 . S
C702 H698 0.929 . S
C702 C704 1.378 . S
C702 C706 1.350 . S
C703 C706 1.463 1_455 S
C703 C708 1.350 . S
C703 N711 1.427 . S
C704 H695 0.930 . S
C704 C702 1.378 . S
C704 C705 1.367 . S
C705 C704 1.367 . S
C705 C707 1.433 . S
C706 C702 1.350 . S
C706 C703 1.463 1_655 S
C706 N710 1.427 . S
C707 H697 0.929 . S
C707 C705 1.433 . S
C707 N710 1.384 . S
C708 H699 0.929 . S
C708 C700 1.378 . S
C708 C703 1.350 . S
C709 H696 0.929 . S
C709 C701 1.433 . S
C709 N711 1.384 . S
N710 C706 1.427 . S
N710 C707 1.384 . S
N711 C703 1.427 . S
N711 C709 1.384 . S
H712 C718 0.930 . S
H713 C722 0.930 . S
H714 C727 0.929 . S
H715 C725 0.929 . S
H716 C720 0.929 . S
H717 C726 0.929 . S
C718 H712 0.930 . S
C718 C719 1.367 . S
C718 C726 1.378 . S
C719 C718 1.367 . S
C719 C727 1.433 . S
C720 H716 0.929 . S
C720 C722 1.378 . S
C720 C724 1.350 . S
C721 C724 1.463 1_545 S
C721 C726 1.350 . S
C721 N729 1.427 . S
C722 H713 0.930 . S
C722 C720 1.378 . S
C722 C723 1.367 . S
C723 C722 1.367 . S
C723 C725 1.433 . S
C724 C720 1.350 . S
C724 C721 1.463 1_565 S
C724 N728 1.427 . S
C725 H715 0.929 . S
C725 C723 1.433 . S
C725 N728 1.384 . S
C726 H717 0.929 . S
C726 C718 1.378 . S
C726 C721 1.350 . S
C727 H714 0.929 . S
C727 C719 1.433 . S
C727 N729 1.384 . S
N728 C724 1.427 . S
N728 C725 1.384 . S
N729 C721 1.427 . S
N729 C727 1.384 . S
H730 C736 0.930 . S
H731 C740 0.930 . S
H732 C745 0.929 . S
H733 C743 0.929 . S
H734 C738 0.929 . S
H735 C744 0.929 . S
C736 H730 0.930 . S
C736 C737 1.367 . S
C736 C744 1.378 . S
C737 C736 1.367 . S
C737 C745 1.433 . S
C738 H734 0.929 . S
C738 C740 1.378 . S
C738 C742 1.350 . S
C739 C742 1.463 1_655 S
C739 C744 1.350 . S
C739 N747 1.427 . S
C740 H731 0.930 . S
C740 C738 1.378 . S
C740 C741 1.367 . S
C741 C740 1.367 . S
C741 C743 1.433 . S
C742 C738 1.350 . S
C742 C739 1.463 1_455 S
C742 N746 1.427 . S
C743 H733 0.929 . S
C743 C741 1.433 . S
C743 N746 1.384 . S
C744 H735 0.929 . S
C744 C736 1.378 . S
C744 C739 1.350 . S
C745 H732 0.929 . S
C745 C737 1.433 . S
C745 N747 1.384 . S
N746 C742 1.427 . S
N746 C743 1.384 . S
N747 C739 1.427 . S
N747 C745 1.384 . S
H748 C754 0.930 . S
H749 C758 0.930 . S
H750 C763 0.929 . S
H751 C761 0.929 . S
H752 C756 0.929 . S
H753 C762 0.929 . S
C754 H748 0.930 . S
C754 C755 1.367 . S
C754 C762 1.378 . S
C755 C754 1.367 . S
C755 C763 1.433 . S
C756 H752 0.929 . S
C756 C758 1.378 . S
C756 C760 1.350 . S
C757 C760 1.463 1_565 S
C757 C762 1.350 . S
C757 N765 1.427 . S
C758 H749 0.930 . S
C758 C756 1.378 . S
C758 C759 1.367 . S
C759 C758 1.367 . S
C759 C761 1.433 . S
C760 C756 1.350 . S
C760 C757 1.463 1_545 S
C760 N764 1.427 . S
C761 H751 0.929 . S
C761 C759 1.433 . S
C761 N764 1.384 . S
C762 H753 0.929 . S
C762 C754 1.378 . S
C762 C757 1.350 . S
C763 H750 0.929 . S
C763 C755 1.433 . S
C763 N765 1.384 . S
N764 C760 1.427 . S
N764 C761 1.384 . S
N765 C757 1.427 . S
N765 C763 1.384 . S
H766 C772 0.930 . S
H767 C776 0.930 . S
H768 C781 0.929 . S
H769 C779 0.929 . S
H770 C774 0.929 . S
H771 C780 0.929 . S
C772 H766 0.930 . S
C772 C773 1.367 . S
C772 C780 1.378 . S
C773 C772 1.367 . S
C773 C781 1.433 . S
C774 H770 0.929 . S
C774 C776 1.378 . S
C774 C778 1.350 . S
C775 C778 1.463 1_455 S
C775 C780 1.350 . S
C775 N783 1.427 . S
C776 H767 0.930 . S
C776 C774 1.378 . S
C776 C777 1.367 . S
C777 C776 1.367 . S
C777 C779 1.433 . S
C778 C774 1.350 . S
C778 C775 1.463 1_655 S
C778 N782 1.427 . S
C779 H769 0.929 . S
C779 C777 1.433 . S
C779 N782 1.384 . S
C780 H771 0.929 . S
C780 C772 1.378 . S
C780 C775 1.350 . S
C781 H768 0.929 . S
C781 C773 1.433 . S
C781 N783 1.384 . S
N782 C778 1.427 . S
N782 C779 1.384 . S
N783 C775 1.427 . S
N783 C781 1.384 . S
C215 C69 1.597 . S
C219 C10 1.593 . S
C233 C82 1.596 . S
C237 C17 1.598 . S
C251 C30 1.598 . S
C255 C95 1.595 . S
C269 C43 1.591 . S
C273 C56 1.594 . S
C287 C179 1.592 . S
C291 C108 1.595 . S
C305 C186 1.593 . S
C309 C127 1.597 . S
C323 C134 1.595 . S
C327 C199 1.592 . S
C341 C153 1.594 . S
C345 C160 1.591 . S
C359 C140 1.626 . S
C363 C4 1.631 . S
C377 C147 1.631 . S
C381 C23 1.629 . S
C395 C114 1.628 . S
C399 C36 1.631 . S
C413 C49 1.625 . S
C417 C121 1.629 . S
C431 C192 1.630 . S
C435 C62 1.625 . S
C449 C205 1.630 . S
C453 C75 1.626 . S
C467 C88 1.628 . S
C471 C166 1.625 . S
C485 C173 1.630 . S
C489 C101 1.630 . S
C503 C57 1.920 . S
C507 C3 1.920 . S
C521 C18 1.920 . S
C525 C70 1.920 . S
C539 C31 1.920 . S
C543 C83 1.920 . S
C557 C96 1.921 . S
C561 C44 1.921 . S
C575 C107 1.136 . S
C579 C159 1.138 . S
C593 C174 1.126 . S
C597 C122 1.128 . S
C611 C133 1.126 . S
C615 C185 1.130 . S
C629 C198 1.129 . S
C633 C148 1.135 . S
C647 C146 1.920 . S
C651 C172 1.920 . S
C665 C109 1.921 . S
C669 C187 1.921 . S
C683 C200 1.920 . S
C687 C120 1.920 . S
C701 C135 1.920 . S
C705 C161 1.921 . S
C719 C68 1.136 . S
C723 C42 1.138 . S
C737 C81 1.134 . S
C741 C5 1.129 . S
C755 C94 1.135 . S
C759 C16 1.138 . S
C773 C55 1.137 . S
C777 C29 1.132 . S
