# Generated by pormake.
# Topology ull, (4)-cn, num edge types: 1
# Building blocks:
#     Node 0, Type 0, BuildingBlock: ESEHIV_clean_sbu_0, # of connection points: 4
#     Node 1, Type 0, BuildingBlock: ESEHIV_clean_sbu_0, # of connection points: 4
#     Node 2, Type 0, BuildingBlock: ESEHIV_clean_sbu_0, # of connection points: 4
#     Node 3, Type 0, BuildingBlock: ESEHIV_clean_sbu_0, # of connection points: 4
#     Node 4, Type 0, BuildingBlock: ESEHIV_clean_sbu_0, # of connection points: 4
#     Node 5, Type 0, BuildingBlock: ESEHIV_clean_sbu_0, # of connection points: 4
#     Node 6, Type 0, BuildingBlock: ESEHIV_clean_sbu_0, # of connection points: 4
#     Node 7, Type 0, BuildingBlock: ESEHIV_clean_sbu_0, # of connection points: 4
#     Node 8, Type 0, BuildingBlock: ESEHIV_clean_sbu_0, # of connection points: 4
#     Node 9, Type 0, BuildingBlock: ESEHIV_clean_sbu_0, # of connection points: 4
#     Node 10, Type 0, BuildingBlock: ESEHIV_clean_sbu_0, # of connection points: 4
#     Node 11, Type 0, BuildingBlock: ESEHIV_clean_sbu_0, # of connection points: 4
#     Node 12, Type 0, BuildingBlock: ESEHIV_clean_sbu_0, # of connection points: 4
#     Node 13, Type 0, BuildingBlock: ESEHIV_clean_sbu_0, # of connection points: 4
#     Node 14, Type 0, BuildingBlock: ESEHIV_clean_sbu_0, # of connection points: 4
#     Node 15, Type 0, BuildingBlock: ESEHIV_clean_sbu_0, # of connection points: 4
#     Node 16, Type 0, BuildingBlock: ESEHIV_clean_sbu_0, # of connection points: 4
#     Node 17, Type 0, BuildingBlock: ESEHIV_clean_sbu_0, # of connection points: 4
#     Node 18, Type 0, BuildingBlock: ESEHIV_clean_sbu_0, # of connection points: 4
#     Node 19, Type 0, BuildingBlock: ESEHIV_clean_sbu_0, # of connection points: 4
#     Node 20, Type 0, BuildingBlock: ESEHIV_clean_sbu_0, # of connection points: 4
#     Node 21, Type 0, BuildingBlock: ESEHIV_clean_sbu_0, # of connection points: 4
#     Node 22, Type 0, BuildingBlock: ESEHIV_clean_sbu_0, # of connection points: 4
#     Node 23, Type 0, BuildingBlock: ESEHIV_clean_sbu_0, # of connection points: 4
#     Node 24, Type 0, BuildingBlock: ESEHIV_clean_sbu_0, # of connection points: 4
#     Node 25, Type 0, BuildingBlock: ESEHIV_clean_sbu_0, # of connection points: 4
#     Node 26, Type 0, BuildingBlock: ESEHIV_clean_sbu_0, # of connection points: 4
#     Node 27, Type 0, BuildingBlock: ESEHIV_clean_sbu_0, # of connection points: 4
#     Node 28, Type 0, BuildingBlock: ESEHIV_clean_sbu_0, # of connection points: 4
#     Node 29, Type 0, BuildingBlock: ESEHIV_clean_sbu_0, # of connection points: 4
#     Node 30, Type 0, BuildingBlock: ESEHIV_clean_sbu_0, # of connection points: 4
#     Node 31, Type 0, BuildingBlock: ESEHIV_clean_sbu_0, # of connection points: 4
#     Node 32, Type 0, BuildingBlock: ESEHIV_clean_sbu_0, # of connection points: 4
#     Node 33, Type 0, BuildingBlock: ESEHIV_clean_sbu_0, # of connection points: 4
#     Node 34, Type 0, BuildingBlock: ESEHIV_clean_sbu_0, # of connection points: 4
#     Node 35, Type 0, BuildingBlock: ESEHIV_clean_sbu_0, # of connection points: 4
#     Node 36, Type 0, BuildingBlock: ESEHIV_clean_sbu_0, # of connection points: 4
#     Node 37, Type 0, BuildingBlock: ESEHIV_clean_sbu_0, # of connection points: 4
#     Node 38, Type 0, BuildingBlock: ESEHIV_clean_sbu_0, # of connection points: 4
#     Node 39, Type 0, BuildingBlock: ESEHIV_clean_sbu_0, # of connection points: 4
#     Node 40, Type 0, BuildingBlock: ESEHIV_clean_sbu_0, # of connection points: 4
#     Node 41, Type 0, BuildingBlock: ESEHIV_clean_sbu_0, # of connection points: 4
#     Node 42, Type 0, BuildingBlock: ESEHIV_clean_sbu_0, # of connection points: 4
#     Node 43, Type 0, BuildingBlock: ESEHIV_clean_sbu_0, # of connection points: 4
#     Node 44, Type 0, BuildingBlock: ESEHIV_clean_sbu_0, # of connection points: 4
#     Node 45, Type 0, BuildingBlock: ESEHIV_clean_sbu_0, # of connection points: 4
#     Node 46, Type 0, BuildingBlock: ESEHIV_clean_sbu_0, # of connection points: 4
#     Node 47, Type 0, BuildingBlock: ESEHIV_clean_sbu_0, # of connection points: 4
#     Edge 48, Type (0, 0), BuildingBlock: OJICUG_clean_linker_0, # of connection points: 2
#     Edge 49, Type (0, 0), BuildingBlock: OJICUG_clean_linker_0, # of connection points: 2
#     Edge 50, Type (0, 0), BuildingBlock: OJICUG_clean_linker_0, # of connection points: 2
#     Edge 51, Type (0, 0), BuildingBlock: OJICUG_clean_linker_0, # of connection points: 2
#     Edge 52, Type (0, 0), BuildingBlock: OJICUG_clean_linker_0, # of connection points: 2
#     Edge 53, Type (0, 0), BuildingBlock: OJICUG_clean_linker_0, # of connection points: 2
#     Edge 54, Type (0, 0), BuildingBlock: OJICUG_clean_linker_0, # of connection points: 2
#     Edge 55, Type (0, 0), BuildingBlock: OJICUG_clean_linker_0, # of connection points: 2
#     Edge 56, Type (0, 0), BuildingBlock: OJICUG_clean_linker_0, # of connection points: 2
#     Edge 57, Type (0, 0), BuildingBlock: OJICUG_clean_linker_0, # of connection points: 2
#     Edge 58, Type (0, 0), BuildingBlock: OJICUG_clean_linker_0, # of connection points: 2
#     Edge 59, Type (0, 0), BuildingBlock: OJICUG_clean_linker_0, # of connection points: 2
#     Edge 60, Type (0, 0), BuildingBlock: OJICUG_clean_linker_0, # of connection points: 2
#     Edge 61, Type (0, 0), BuildingBlock: OJICUG_clean_linker_0, # of connection points: 2
#     Edge 62, Type (0, 0), BuildingBlock: OJICUG_clean_linker_0, # of connection points: 2
#     Edge 63, Type (0, 0), BuildingBlock: OJICUG_clean_linker_0, # of connection points: 2
#     Edge 64, Type (0, 0), BuildingBlock: OJICUG_clean_linker_0, # of connection points: 2
#     Edge 65, Type (0, 0), BuildingBlock: OJICUG_clean_linker_0, # of connection points: 2
#     Edge 66, Type (0, 0), BuildingBlock: OJICUG_clean_linker_0, # of connection points: 2
#     Edge 67, Type (0, 0), BuildingBlock: OJICUG_clean_linker_0, # of connection points: 2
#     Edge 68, Type (0, 0), BuildingBlock: OJICUG_clean_linker_0, # of connection points: 2
#     Edge 69, Type (0, 0), BuildingBlock: OJICUG_clean_linker_0, # of connection points: 2
#     Edge 70, Type (0, 0), BuildingBlock: OJICUG_clean_linker_0, # of connection points: 2
#     Edge 71, Type (0, 0), BuildingBlock: OJICUG_clean_linker_0, # of connection points: 2
#     Edge 72, Type (0, 0), BuildingBlock: OJICUG_clean_linker_0, # of connection points: 2
#     Edge 73, Type (0, 0), BuildingBlock: OJICUG_clean_linker_0, # of connection points: 2
#     Edge 74, Type (0, 0), BuildingBlock: OJICUG_clean_linker_0, # of connection points: 2
#     Edge 75, Type (0, 0), BuildingBlock: OJICUG_clean_linker_0, # of connection points: 2
#     Edge 76, Type (0, 0), BuildingBlock: OJICUG_clean_linker_0, # of connection points: 2
#     Edge 77, Type (0, 0), BuildingBlock: OJICUG_clean_linker_0, # of connection points: 2
#     Edge 78, Type (0, 0), BuildingBlock: OJICUG_clean_linker_0, # of connection points: 2
#     Edge 79, Type (0, 0), BuildingBlock: OJICUG_clean_linker_0, # of connection points: 2
#     Edge 80, Type (0, 0), BuildingBlock: OJICUG_clean_linker_0, # of connection points: 2
#     Edge 81, Type (0, 0), BuildingBlock: OJICUG_clean_linker_0, # of connection points: 2
#     Edge 82, Type (0, 0), BuildingBlock: OJICUG_clean_linker_0, # of connection points: 2
#     Edge 83, Type (0, 0), BuildingBlock: OJICUG_clean_linker_0, # of connection points: 2
#     Edge 84, Type (0, 0), BuildingBlock: OJICUG_clean_linker_0, # of connection points: 2
#     Edge 85, Type (0, 0), BuildingBlock: OJICUG_clean_linker_0, # of connection points: 2
#     Edge 86, Type (0, 0), BuildingBlock: OJICUG_clean_linker_0, # of connection points: 2
#     Edge 87, Type (0, 0), BuildingBlock: OJICUG_clean_linker_0, # of connection points: 2
#     Edge 88, Type (0, 0), BuildingBlock: OJICUG_clean_linker_0, # of connection points: 2
#     Edge 89, Type (0, 0), BuildingBlock: OJICUG_clean_linker_0, # of connection points: 2
#     Edge 90, Type (0, 0), BuildingBlock: OJICUG_clean_linker_0, # of connection points: 2
#     Edge 91, Type (0, 0), BuildingBlock: OJICUG_clean_linker_0, # of connection points: 2
#     Edge 92, Type (0, 0), BuildingBlock: OJICUG_clean_linker_0, # of connection points: 2
#     Edge 93, Type (0, 0), BuildingBlock: OJICUG_clean_linker_0, # of connection points: 2
#     Edge 94, Type (0, 0), BuildingBlock: OJICUG_clean_linker_0, # of connection points: 2
#     Edge 95, Type (0, 0), BuildingBlock: OJICUG_clean_linker_0, # of connection points: 2
#     Edge 96, Type (0, 0), BuildingBlock: OJICUG_clean_linker_0, # of connection points: 2
#     Edge 97, Type (0, 0), BuildingBlock: OJICUG_clean_linker_0, # of connection points: 2
#     Edge 98, Type (0, 0), BuildingBlock: OJICUG_clean_linker_0, # of connection points: 2
#     Edge 99, Type (0, 0), BuildingBlock: OJICUG_clean_linker_0, # of connection points: 2
#     Edge 100, Type (0, 0), BuildingBlock: OJICUG_clean_linker_0, # of connection points: 2
#     Edge 101, Type (0, 0), BuildingBlock: OJICUG_clean_linker_0, # of connection points: 2
#     Edge 102, Type (0, 0), BuildingBlock: OJICUG_clean_linker_0, # of connection points: 2
#     Edge 103, Type (0, 0), BuildingBlock: OJICUG_clean_linker_0, # of connection points: 2
#     Edge 104, Type (0, 0), BuildingBlock: OJICUG_clean_linker_0, # of connection points: 2
#     Edge 105, Type (0, 0), BuildingBlock: OJICUG_clean_linker_0, # of connection points: 2
#     Edge 106, Type (0, 0), BuildingBlock: OJICUG_clean_linker_0, # of connection points: 2
#     Edge 107, Type (0, 0), BuildingBlock: OJICUG_clean_linker_0, # of connection points: 2
#     Edge 108, Type (0, 0), BuildingBlock: OJICUG_clean_linker_0, # of connection points: 2
#     Edge 109, Type (0, 0), BuildingBlock: OJICUG_clean_linker_0, # of connection points: 2
#     Edge 110, Type (0, 0), BuildingBlock: OJICUG_clean_linker_0, # of connection points: 2
#     Edge 111, Type (0, 0), BuildingBlock: OJICUG_clean_linker_0, # of connection points: 2
#     Edge 112, Type (0, 0), BuildingBlock: OJICUG_clean_linker_0, # of connection points: 2
#     Edge 113, Type (0, 0), BuildingBlock: OJICUG_clean_linker_0, # of connection points: 2
#     Edge 114, Type (0, 0), BuildingBlock: OJICUG_clean_linker_0, # of connection points: 2
#     Edge 115, Type (0, 0), BuildingBlock: OJICUG_clean_linker_0, # of connection points: 2
#     Edge 116, Type (0, 0), BuildingBlock: OJICUG_clean_linker_0, # of connection points: 2
#     Edge 117, Type (0, 0), BuildingBlock: OJICUG_clean_linker_0, # of connection points: 2
#     Edge 118, Type (0, 0), BuildingBlock: OJICUG_clean_linker_0, # of connection points: 2
#     Edge 119, Type (0, 0), BuildingBlock: OJICUG_clean_linker_0, # of connection points: 2
#     Edge 120, Type (0, 0), BuildingBlock: OJICUG_clean_linker_0, # of connection points: 2
#     Edge 121, Type (0, 0), BuildingBlock: OJICUG_clean_linker_0, # of connection points: 2
#     Edge 122, Type (0, 0), BuildingBlock: OJICUG_clean_linker_0, # of connection points: 2
#     Edge 123, Type (0, 0), BuildingBlock: OJICUG_clean_linker_0, # of connection points: 2
#     Edge 124, Type (0, 0), BuildingBlock: OJICUG_clean_linker_0, # of connection points: 2
#     Edge 125, Type (0, 0), BuildingBlock: OJICUG_clean_linker_0, # of connection points: 2
#     Edge 126, Type (0, 0), BuildingBlock: OJICUG_clean_linker_0, # of connection points: 2
#     Edge 127, Type (0, 0), BuildingBlock: OJICUG_clean_linker_0, # of connection points: 2
#     Edge 128, Type (0, 0), BuildingBlock: OJICUG_clean_linker_0, # of connection points: 2
#     Edge 129, Type (0, 0), BuildingBlock: OJICUG_clean_linker_0, # of connection points: 2
#     Edge 130, Type (0, 0), BuildingBlock: OJICUG_clean_linker_0, # of connection points: 2
#     Edge 131, Type (0, 0), BuildingBlock: OJICUG_clean_linker_0, # of connection points: 2
#     Edge 132, Type (0, 0), BuildingBlock: OJICUG_clean_linker_0, # of connection points: 2
#     Edge 133, Type (0, 0), BuildingBlock: OJICUG_clean_linker_0, # of connection points: 2
#     Edge 134, Type (0, 0), BuildingBlock: OJICUG_clean_linker_0, # of connection points: 2
#     Edge 135, Type (0, 0), BuildingBlock: OJICUG_clean_linker_0, # of connection points: 2
#     Edge 136, Type (0, 0), BuildingBlock: OJICUG_clean_linker_0, # of connection points: 2
#     Edge 137, Type (0, 0), BuildingBlock: OJICUG_clean_linker_0, # of connection points: 2
#     Edge 138, Type (0, 0), BuildingBlock: OJICUG_clean_linker_0, # of connection points: 2
#     Edge 139, Type (0, 0), BuildingBlock: OJICUG_clean_linker_0, # of connection points: 2
#     Edge 140, Type (0, 0), BuildingBlock: OJICUG_clean_linker_0, # of connection points: 2
#     Edge 141, Type (0, 0), BuildingBlock: OJICUG_clean_linker_0, # of connection points: 2
#     Edge 142, Type (0, 0), BuildingBlock: OJICUG_clean_linker_0, # of connection points: 2
#     Edge 143, Type (0, 0), BuildingBlock: OJICUG_clean_linker_0, # of connection points: 2
# Relax obj value: 0.108
# Max RMSD: 0.292
# Mean RMSD: 0.271
data_MOF--net-ull--node1-ESEHIV_clean_sbu_0--edge1-OJICUG_clean_linker_0
_symmetry_space_group_name_H-M    P1
_symmetry_Int_Tables_number       1
_symmetry_cell_setting            triclinic
loop_
_symmetry_equiv_pos_as_xyz
'x, y, z'
_cell_length_a     48.043245
_cell_length_b     50.295282
_cell_length_c     50.266958
_cell_angle_alpha  90.058025
_cell_angle_beta   90.168682
_cell_angle_gamma 90.070465
loop_
_atom_site_label
_atom_site_type_symbol
_atom_site_fract_x
_atom_site_fract_y
_atom_site_fract_z
_atom_type_partial_charge
Cu0 Cu 0.06148 0.38046 0.20939 0.0
N1 N 0.09101 0.36331 0.19266 0.0
N2 N 0.12169 0.35475 0.16059 0.0
C3 C 0.10392 0.37269 0.17096 0.0
C4 C 0.12004 0.33326 0.17657 0.0
C5 C 0.10106 0.33861 0.1964 0.0
O6 O 1.03178 0.38561 0.18294 0.0
C7 C 0.09797 0.40892 0.24167 0.0
O8 O 0.10921 0.38513 0.24239 0.0
H9 H 0.0989 0.39165 0.16199 0.0
H10 H 0.09411 0.32498 0.2116 0.0
N11 N 0.04519 0.35866 0.23469 0.0
N12 N 0.03756 0.33026 0.26787 0.0
C13 C 0.05697 0.3432 0.25341 0.0
C14 C 1.01757 0.35559 0.23753 0.0
C15 C 1.01276 0.3381 0.25794 0.0
C16 C 1.02757 0.36708 0.1659 0.0
O17 O 0.04496 0.34701 0.16487 0.0
H18 H 0.0792 0.34123 0.25613 0.0
H19 H 1.00198 0.36553 0.22559 0.0
O20 O 0.07602 0.41225 0.22762 0.0
H21 H 0.13112 0.31476 0.1737 0.0
H22 H 0.99254 0.33201 0.26516 0.0
Cu23 Cu 0.71356 0.03194 0.20683 0.0
N24 N 0.71063 0.99857 0.19003 0.0
N25 N 0.70993 0.96529 0.16029 0.0
C26 C 0.71107 0.99197 0.16394 0.0
C27 C 0.70873 0.95483 0.18496 0.0
C28 C 0.70911 0.97531 0.20315 0.0
O29 O 0.71997 0.06057 0.18112 0.0
C30 C 0.76577 1.01629 0.23066 0.0
O31 O 0.77039 1.00403 0.20802 0.0
H32 H 0.71286 1.00629 0.14799 0.0
H33 H 0.70861 0.97343 0.22458 0.0
N34 N 0.68053 0.03945 0.22538 0.0
N35 N 0.64973 0.05971 0.25219 0.0
C36 C 0.67575 0.06022 0.24178 0.0
C37 C 0.65678 1.02526 0.22539 0.0
C38 C 0.63781 0.03765 0.24184 0.0
C39 C 0.70306 0.06479 0.16196 0.0
O40 O 0.6814 0.04907 0.15906 0.0
H41 H 0.69124 0.07526 0.24607 0.0
H42 H 0.65344 1.00723 0.21407 0.0
O43 O 0.74354 0.02991 0.23336 0.0
H44 H 0.70734 0.93385 0.18954 0.0
H45 H 0.61668 0.03113 0.24539 0.0
Cu46 Cu 0.99864 0.6659 0.2027 0.0
N47 N 0.96901 0.68387 0.18659 0.0
N48 N 0.94017 0.69512 0.15366 0.0
C49 C 0.96415 0.68299 0.16025 0.0
C50 C 0.92931 0.70406 0.17666 0.0
C51 C 0.94735 0.6973 0.19702 0.0
O52 O 1.02816 0.66426 0.17579 0.0
C53 C 0.9661 0.63527 0.2362 0.0
O54 O 0.95889 0.65948 0.24304 0.0
H55 H 0.9774 0.67264 0.14627 0.0
H56 H 0.94437 0.70136 0.21792 0.0
N57 N 1.01519 0.68469 0.23036 0.0
N58 N 1.02599 0.71284 0.26301 0.0
C59 C 1.00608 0.7048 0.24573 0.0
C60 C 0.04146 0.67988 0.23827 0.0
C61 C 0.04821 0.69719 0.25835 0.0
C62 C 0.03635 0.68714 0.16777 0.0
O63 O 1.02389 0.70835 0.17728 0.0
H64 H 0.9856 0.71355 0.24411 0.0
H65 H 0.05479 0.66477 0.22983 0.0
O66 O 0.98443 0.63243 0.218 0.0
H67 H 0.9097 0.71444 0.17859 0.0
H68 H 0.0678 0.69791 0.26902 0.0
Cu69 Cu 0.36245 1.0257 0.20015 0.0
N70 N 0.3665 0.05918 0.18373 0.0
N71 N 0.36566 0.09338 0.15496 0.0
C72 C 0.35933 0.06738 0.15898 0.0
C73 C 0.37695 0.10169 0.17817 0.0
C74 C 0.37737 0.08071 0.19573 0.0
O75 O 0.35448 0.9978 0.17394 0.0
C76 C 0.31172 0.04251 0.22664 0.0
O77 O 0.30685 0.0569 0.20534 0.0
H78 H 0.34994 0.05449 0.14422 0.0
H79 H 0.38498 0.08112 0.216 0.0
N80 N 0.39568 1.01636 0.21792 0.0
N81 N 0.42558 0.99535 0.24531 0.0
C82 C 0.39883 0.99749 0.2368 0.0
C83 C 0.42129 1.02656 0.21431 0.0
C84 C 0.43969 1.01374 0.23112 0.0
C85 C 0.36987 0.99439 0.15356 0.0
O86 O 0.3907 1.01083 0.1495 0.0
H87 H 0.38169 0.98562 0.24411 0.0
H88 H 0.42632 0.04201 0.20017 0.0
O89 O 0.33335 0.02779 0.22744 0.0
H90 H 0.38402 0.12168 0.18245 0.0
H91 H 0.46189 1.01726 0.23222 0.0
Cu92 Cu 0.06839 0.67175 0.85285 0.0
N93 N 0.09852 0.68707 0.87082 0.0
N94 N 0.12724 0.69528 0.90475 0.0
C95 C 0.10367 0.68313 0.89682 0.0
C96 C 0.1375 0.70741 0.88301 0.0
C97 C 0.11953 0.70252 0.86206 0.0
O98 O 0.03876 0.66796 0.87944 0.0
C99 C 0.10125 0.64286 0.81783 0.0
O100 O 0.11091 0.66703 0.81454 0.0
H101 H 0.0906 0.67117 0.90962 0.0
H102 H 0.12183 0.70965 0.84192 0.0
N103 N 0.05284 0.69437 0.82755 0.0
N104 N 0.04499 0.72338 0.79492 0.0
C105 C 0.06452 0.71094 0.80972 0.0
C106 C 1.0252 0.69635 0.82367 0.0
C107 C 1.02028 0.71426 0.80368 0.0
C108 C 1.03152 0.6899 0.8904 0.0
O109 O 0.04514 0.71163 0.88398 0.0
H110 H 0.08669 0.71385 0.80756 0.0
H111 H 1.00967 0.68521 0.8345 0.0
O112 O 0.08141 0.6394 0.83439 0.0
H113 H 0.15638 0.71916 0.88243 0.0
H114 H 1.0001 0.71955 0.79564 0.0
Cu115 Cu 0.36046 0.0324 0.85065 0.0
N116 N 0.36471 0.99913 0.86739 0.0
N117 N 0.36419 0.96513 0.89635 0.0
C118 C 0.3578 0.99108 0.8922 0.0
C119 C 0.37524 0.95669 0.87316 0.0
C120 C 0.37545 0.97754 0.85548 0.0
O121 O 0.35303 0.0607 0.87663 0.0
C122 C 0.30988 1.01411 0.82479 0.0
O123 O 0.30579 1.00006 0.84645 0.0
H124 H 0.3485 1.00402 0.90691 0.0
H125 H 0.38281 0.97702 0.83516 0.0
N126 N 0.39365 0.04123 0.83271 0.0
N127 N 0.42398 0.06115 0.8051 0.0
C128 C 0.39721 0.05977 0.81358 0.0
C129 C 0.41901 0.03055 0.83653 0.0
C130 C 0.43766 0.04269 0.81959 0.0
C131 C 0.3685 0.06392 0.8971 0.0
O132 O 0.38894 0.04711 0.90133 0.0
H133 H 0.3804 0.07194 0.80603 0.0
H134 H 0.42371 1.01521 0.85091 0.0
O135 O 0.33101 0.02951 0.82352 0.0
H136 H 0.38225 0.93668 0.86899 0.0
H137 H 0.45976 0.03868 0.8186 0.0
Cu138 Cu 1.01091 0.38815 0.84766 0.0
N139 N 0.98161 0.36965 0.86347 0.0
N140 N 0.95094 0.35954 0.89512 0.0
C141 C 0.96807 0.37827 0.88514 0.0
C142 C 0.95362 0.33831 0.87889 0.0
C143 C 0.97259 0.34462 0.85931 0.0
O144 O 0.04098 0.39158 0.87422 0.0
C145 C 0.97438 0.41696 0.81625 0.0
O146 O 0.96507 0.39257 0.81333 0.0
H147 H 0.97226 0.39728 0.89445 0.0
H148 H 0.98035 0.33138 0.84411 0.0
N149 N 1.02718 0.36841 0.82063 0.0
N150 N 1.0347 0.34134 0.78627 0.0
C151 C 1.01541 0.35253 0.80223 0.0
C152 C 0.05473 0.36735 0.8161 0.0
C153 C 0.05946 0.35067 0.79494 0.0
C154 C 0.04481 0.37237 0.89056 0.0
O155 O 1.02684 0.35273 0.89107 0.0
H156 H 0.99323 0.34927 0.80056 0.0
H157 H 0.07032 0.37779 0.82765 0.0
O158 O 0.99536 0.42071 0.83156 0.0
H159 H 0.94333 0.31933 0.88145 0.0
H160 H 0.07962 0.34529 0.78707 0.0
Cu161 Cu 0.71275 0.0293 0.85379 0.0
N162 N 0.70862 0.0625 0.87084 0.0
N163 N 0.70779 0.09534 0.9011 0.0
C164 C 0.70785 0.06868 0.89706 0.0
C165 C 0.70823 0.10621 0.87661 0.0
C166 C 0.70867 0.08605 0.85813 0.0
O167 O 0.71095 0.99997 0.87935 0.0
C168 C 0.7498 0.04316 0.81247 0.0
O169 O 0.72727 0.05456 0.80303 0.0
H170 H 0.70822 0.05405 0.91283 0.0
H171 H 0.70941 0.08849 0.83681 0.0
N172 N 0.68337 1.02352 0.82951 0.0
N173 N 0.65479 1.00261 0.80072 0.0
C174 C 0.67858 1.00118 0.8153 0.0
C175 C 0.66197 0.03975 0.82375 0.0
C176 C 0.64441 1.02701 0.80605 0.0
C177 C 0.72631 0.99604 0.89969 0.0
O178 O 0.74659 1.01276 0.90507 0.0
H179 H 0.69232 0.98418 0.81594 0.0
H180 H 0.65901 0.05929 0.83227 0.0
O181 O 0.74811 0.03008 0.83419 0.0
H182 H 0.70819 0.12731 0.87236 0.0
H183 H 0.62505 0.03493 0.79843 0.0
Cu184 Cu 0.19594 0.06101 0.35404 0.0
N185 N 0.19041 1.02511 0.36192 0.0
N186 N 0.17583 0.98298 0.36149 0.0
C187 C 0.17033 1.00819 0.35374 0.0
C188 C 0.19998 0.98419 0.37512 0.0
C189 C 0.20888 1.01008 0.37532 0.0
O190 O 0.16114 0.08155 0.35373 0.0
C191 C 0.24164 0.05207 0.32071 0.0
O192 O 0.25127 0.04229 0.34312 0.0
H193 H 0.15265 1.01402 0.3417 0.0
H194 H 0.22797 1.01734 0.38416 0.0
N195 N 0.21727 0.07529 0.38152 0.0
N196 N 0.24604 0.10172 0.40419 0.0
C197 C 0.23518 0.09577 0.38011 0.0
C198 C 0.21675 0.06808 0.40729 0.0
C199 C 0.2345 0.08434 0.42134 0.0
C200 C 0.14706 0.084 0.37516 0.0
O201 O 0.15448 0.07011 0.39611 0.0
H202 H 0.23965 0.10639 0.36189 0.0
H203 H 0.20413 0.05223 0.41538 0.0
O204 O 0.21741 0.06256 0.32068 0.0
H205 H 0.21044 0.9675 0.38432 0.0
H206 H 0.23875 0.08328 0.44247 0.0
Cu207 Cu 1.02411 0.20226 0.40408 0.0
N208 N 0.99564 0.18856 0.38275 0.0
N209 N 0.96547 0.15888 0.36662 0.0
C210 C 0.98852 0.16273 0.38147 0.0
C211 C 0.95772 0.18322 0.3582 0.0
C212 C 0.97645 0.20152 0.36812 0.0
O213 O 0.05182 0.17366 0.40765 0.0
C214 C 0.99208 0.2388 0.43182 0.0
O215 O 0.99212 0.24886 0.40773 0.0
H216 H 0.99917 0.14724 0.39244 0.0
H217 H 0.97554 0.22283 0.36551 0.0
N218 N 0.04206 0.23009 0.38679 0.0
N219 N 0.05179 0.26116 0.3566 0.0
C220 C 0.03761 0.2386 0.36184 0.0
C221 C 0.06008 0.24748 0.39766 0.0
C222 C 0.06614 0.26672 0.37906 0.0
C223 C 0.06194 0.16582 0.38543 0.0
O224 O 0.05303 0.17726 0.36352 0.0
H225 H 1.02376 0.22871 0.34804 0.0
H226 H 0.06732 0.2468 0.41804 0.0
O227 O 1.00592 0.21742 0.43597 0.0
H228 H 0.93943 0.18754 0.34635 0.0
H229 H 0.07893 0.28415 0.38235 0.0
Cu230 Cu 0.88549 0.98527 0.35246 0.0
N231 N 0.89128 1.01976 0.36484 0.0
N232 N 0.90545 0.06176 0.36887 0.0
C233 C 0.90965 0.03822 0.35658 0.0
C234 C 0.88389 0.05791 0.38551 0.0
C235 C 0.87527 0.032 0.38304 0.0
O236 O 0.92042 0.96574 0.34852 0.0
C237 C 0.83933 0.99973 0.32152 0.0
O238 O 0.8316 1.00921 0.3447 0.0
H239 H 0.92516 0.03472 0.3414 0.0
H240 H 0.85804 1.02282 0.39336 0.0
N241 N 0.86636 0.96713 0.37893 0.0
N242 N 0.83634 0.94124 0.40047 0.0
C243 C 0.84345 0.95187 0.37679 0.0
C244 C 0.8738 0.96619 0.40474 0.0
C245 C 0.85537 0.95021 0.41807 0.0
C246 C 0.93833 0.96616 0.36736 0.0
O247 O 0.93511 0.98319 0.38691 0.0
H248 H 0.83228 0.94865 0.35833 0.0
H249 H 0.89111 0.97682 0.41346 0.0
O250 O 0.86255 0.98744 0.32005 0.0
H251 H 0.87506 0.0728 0.39856 0.0
H252 H 0.85535 0.94629 0.43924 0.0
Cu253 Cu 0.05605 0.8438 0.39535 0.0
N254 N 0.08426 0.85716 0.37369 0.0
N255 N 0.11378 0.8871 0.35705 0.0
C256 C 0.09164 0.88294 0.37292 0.0
C257 C 0.12066 0.86293 0.34744 0.0
C258 C 0.10236 0.84447 0.3577 0.0
O259 O 1.02953 0.87311 0.39936 0.0
C260 C 0.08817 0.80744 0.42286 0.0
O261 O 0.08886 0.79808 0.39848 0.0
H262 H 0.08176 0.89814 0.38485 0.0
H263 H 0.10281 0.82326 0.3543 0.0
N264 N 0.03648 0.81658 0.37849 0.0
N265 N 1.02259 0.78652 0.34865 0.0
C266 C 0.04032 0.80667 0.35394 0.0
C267 C 1.01541 0.80249 0.389 0.0
C268 C 1.00677 0.78387 0.37063 0.0
C269 C 1.01891 0.88067 0.37724 0.0
O270 O 1.02648 0.86833 0.35538 0.0
H271 H 0.05576 0.81409 0.34024 0.0
H272 H 1.00728 0.8053 0.40885 0.0
O273 O 0.07392 0.82848 0.42723 0.0
H274 H 0.13803 0.85878 0.33442 0.0
H275 H 0.99084 0.76894 0.3736 0.0
Cu276 Cu 0.19486 0.98512 0.69786 0.0
N277 N 0.18831 1.02026 0.68782 0.0
N278 N 0.17237 0.0618 0.68629 0.0
C279 C 0.1677 0.03685 0.69515 0.0
C280 C 0.19652 0.06085 0.67281 0.0
C281 C 0.20624 0.03523 0.67373 0.0
O282 O 0.16038 0.96401 0.69896 0.0
C283 C 0.24001 0.99773 0.73104 0.0
O284 O 0.24929 1.00676 0.70823 0.0
H285 H 0.15032 0.03106 0.70753 0.0
H286 H 0.22555 0.02817 0.66531 0.0
N287 N 0.21654 0.96983 0.67139 0.0
N288 N 0.24637 0.94334 0.65038 0.0
C289 C 0.23569 0.95057 0.67411 0.0
C290 C 0.21514 0.97499 0.64514 0.0
C291 C 0.23351 0.95865 0.63211 0.0
C292 C 0.14586 0.9612 0.67776 0.0
O293 O 0.15274 0.97492 0.65656 0.0
H294 H 0.24129 0.94175 0.69301 0.0
H295 H 0.20162 0.98959 0.63608 0.0
O296 O 0.21627 0.98619 0.73143 0.0
H297 H 0.20647 0.07757 0.66316 0.0
H298 H 0.23739 0.95831 0.61091 0.0
Cu299 Cu 0.05017 0.20295 0.66 0.0
N300 N 0.07876 0.18743 0.67995 0.0
N301 N 0.10877 0.15638 0.69323 0.0
C302 C 0.08881 0.16289 0.67556 0.0
C303 C 0.11164 0.17765 0.70933 0.0
C304 C 0.09284 0.19673 0.70126 0.0
O305 O 1.02226 0.17494 0.65403 0.0
C306 C 0.08699 0.23675 0.6339 0.0
O307 O 0.09476 0.23967 0.65878 0.0
H308 H 0.08168 0.1501 0.65959 0.0
H309 H 0.08973 0.21591 0.71041 0.0
N310 N 1.03102 0.22843 0.67963 0.0
N311 N 1.02008 0.2618 0.70686 0.0
C312 C 0.04086 0.2481 0.69518 0.0
C313 C 1.00312 0.22997 0.68132 0.0
C314 C 0.99628 0.25046 0.69819 0.0
C315 C 1.01574 0.16135 0.67465 0.0
O316 O 1.02894 0.16603 0.69709 0.0
H317 H 0.06272 0.25196 0.69843 0.0
H318 H 0.98872 0.21686 0.67117 0.0
O319 O 0.06701 0.22064 0.6288 0.0
H320 H 0.12603 0.17912 0.72588 0.0
H321 H 0.97546 0.25652 0.70366 0.0
Cu322 Cu 0.87798 0.05838 0.70048 0.0
N323 N 0.88214 1.02167 0.69885 0.0
N324 N 0.89753 0.97983 0.69825 0.0
C325 C 0.90472 1.00582 0.69995 0.0
C326 C 0.86955 0.97954 0.69581 0.0
C327 C 0.8602 1.00528 0.69618 0.0
O328 O 0.91351 0.0779 0.70058 0.0
C329 C 0.85173 0.0511 0.75081 0.0
O330 O 0.87133 0.03329 0.75455 0.0
H331 H 0.92579 1.01314 0.70223 0.0
H332 H 0.8388 1.01176 0.69456 0.0
N333 N 0.8599 0.0675 0.66916 0.0
N334 N 0.82977 0.08584 0.64103 0.0
C335 C 0.83518 0.07967 0.66661 0.0
C336 C 0.87033 0.06559 0.64442 0.0
C337 C 0.85177 0.07706 0.62695 0.0
C338 C 0.91466 0.10062 0.6892 0.0
O339 O 0.8915 0.11168 0.68083 0.0
H340 H 0.82202 0.0849 0.68325 0.0
H341 H 0.89043 0.05723 0.63961 0.0
O342 O 0.85261 0.06571 0.73006 0.0
H343 H 0.85673 0.96199 0.69341 0.0
H344 H 0.85432 0.07901 0.60565 0.0
Cu345 Cu 1.02188 0.84253 0.65235 0.0
N346 N 0.99394 0.85676 0.67392 0.0
N347 N 0.96422 0.88639 0.69087 0.0
C348 C 0.98447 0.88191 0.67284 0.0
C349 C 0.96087 0.86307 0.70376 0.0
C350 C 0.97916 0.84486 0.69326 0.0
O351 O 0.04977 0.87095 0.64798 0.0
C352 C 0.98642 0.80775 0.62631 0.0
O353 O 0.98329 0.80112 0.65138 0.0
H354 H 0.99195 0.89641 0.65866 0.0
H355 H 0.98128 0.82433 0.69924 0.0
N356 N 0.03993 0.81481 0.66989 0.0
N357 N 0.05289 0.78638 0.70161 0.0
C358 C 0.03964 0.80934 0.69604 0.0
C359 C 0.05435 0.79494 0.6585 0.0
C360 C 0.06238 0.77731 0.67804 0.0
C361 C 0.05962 0.87992 0.66995 0.0
O362 O 0.05021 0.8698 0.69226 0.0
H363 H 1.02948 0.82172 0.71066 0.0
H364 H 0.05781 0.79293 0.63735 0.0
O365 O 1.00348 0.82657 0.62083 0.0
H366 H 0.94627 0.85933 0.71968 0.0
H367 H 0.07298 0.7586 0.67492 0.0
Cu368 Cu 0.3638 0.20524 0.02887 0.0
N369 N 0.3651 0.18822 0.99541 0.0
N370 N 0.36358 0.15859 0.96196 0.0
C371 C 0.36532 0.16213 0.98869 0.0
C372 C 0.36253 0.18331 0.95164 0.0
C373 C 0.36354 0.2014 0.97217 0.0
O374 O 0.36377 0.17989 0.05857 0.0
C375 C 0.30967 0.2266 1.01518 0.0
O376 O 0.30611 0.20447 1.00169 0.0
H377 H 0.36597 0.14612 1.00304 0.0
H378 H 0.36259 0.22281 0.97039 0.0
N379 N 0.39583 0.22655 0.03353 0.0
N380 N 0.4272 0.25404 0.05253 0.0
C381 C 0.40228 0.24151 0.05504 0.0
C382 C 0.41733 0.22971 1.01675 0.0
C383 C 0.43661 0.24658 0.02833 0.0
C384 C 0.34815 0.15969 0.06218 0.0
O385 O 0.32846 0.15429 0.04481 0.0
H386 H 0.38879 0.24309 0.07215 0.0
H387 H 0.41906 0.22014 0.99755 0.0
O388 O 0.33179 0.22962 0.02904 0.0
H389 H 0.36123 0.18803 0.93067 0.0
H390 H 0.45633 0.25232 1.01973 0.0
Cu391 Cu 0.36045 0.85317 1.02212 0.0
N392 N 0.36263 0.87011 0.05553 0.0
N393 N 0.36212 0.89983 0.08887 0.0
C394 C 0.36419 0.89616 0.0622 0.0
C395 C 0.35944 0.87522 0.0992 0.0
C396 C 0.35977 0.85708 0.07872 0.0
O397 O 0.36206 0.8786 0.99262 0.0
C398 C 0.30402 0.83787 0.03445 0.0
O399 O 0.3025 0.86114 0.04624 0.0
H400 H 0.36586 0.91209 0.04784 0.0
H401 H 0.35737 0.83577 0.08048 0.0
N402 N 0.391 0.82976 1.0181 0.0
N403 N 0.42227 0.80171 0.99993 0.0
C404 C 0.39887 0.81641 0.99598 0.0
C405 C 0.41002 0.8233 0.03668 0.0
C406 C 0.42919 0.80612 1.02564 0.0
C407 C 0.34662 0.89889 0.98893 0.0
O408 O 0.32669 0.90414 1.00598 0.0
H409 H 0.38754 0.81754 0.9774 0.0
H410 H 0.41019 0.83084 0.05683 0.0
O411 O 0.32624 0.83166 1.02194 0.0
H412 H 0.35735 0.87062 0.12013 0.0
H413 H 0.44721 0.79808 0.03574 0.0
Cu414 Cu 0.18851 0.34661 0.98279 0.0
N415 N 0.18464 0.36058 1.01688 0.0
N416 N 0.17367 0.36668 0.05954 0.0
C417 C 0.17066 0.35089 0.03792 0.0
C418 C 0.19022 0.38689 0.05172 0.0
C419 C 0.19692 0.38306 1.02548 0.0
O420 O 0.15165 0.34201 0.96649 0.0
C421 C 0.23433 0.31606 0.99919 0.0
O422 O 0.2405 0.33875 1.01075 0.0
H423 H 0.15838 0.33285 0.03726 0.0
H424 H 0.2102 0.39564 1.01355 0.0
N425 N 0.20487 0.37364 0.96314 0.0
N426 N 0.23413 0.40024 0.94165 0.0
C427 C 0.23127 0.37713 0.95502 0.0
C428 C 0.19086 0.39532 0.95498 0.0
C429 C 0.20878 0.41167 0.94156 0.0
C430 C 0.14914 0.34511 0.94137 0.0
O431 O 0.17167 0.34544 0.92662 0.0
H432 H 0.24795 0.36322 0.95895 0.0
H433 H 0.16908 0.39904 0.95889 0.0
O434 O 0.2123 0.31478 0.98489 0.0
H435 H 0.19738 0.4031 0.06415 0.0
H436 H 0.20383 0.43093 0.9332 0.0
Cu437 Cu 0.70884 0.20414 0.02915 0.0
N438 N 0.70685 0.18779 0.06281 0.0
N439 N 0.70815 0.15872 0.0966 0.0
C440 C 0.70782 0.16184 0.06982 0.0
C441 C 0.70728 0.18355 0.10669 0.0
C442 C 0.70642 0.20133 0.0859 0.0
O443 O 0.71588 0.17833 1.00075 0.0
C444 C 0.76105 0.22828 0.04377 0.0
O445 O 0.76616 0.20549 0.05555 0.0
H446 H 0.70911 0.14563 0.05572 0.0
H447 H 0.70602 0.22278 0.08745 0.0
N448 N 0.67529 0.22196 1.02151 0.0
N449 N 0.6435 0.2476 1.00093 0.0
C450 C 0.66963 0.2374 1.00019 0.0
C451 C 0.65199 0.22236 0.03627 0.0
C452 C 0.63242 0.23809 1.0237 0.0
C453 C 0.69962 0.15872 0.99629 0.0
O454 O 0.67798 0.15516 1.01181 0.0
H455 H 0.6846 0.24125 0.98462 0.0
H456 H 0.64937 0.21186 0.05486 0.0
O457 O 0.73838 0.2311 0.03076 0.0
H458 H 0.7071 0.18851 0.12766 0.0
H459 H 0.61148 0.24178 0.03064 0.0
Cu460 Cu 0.88387 0.72166 0.97567 0.0
N461 N 0.88582 0.70145 1.0068 0.0
N462 N 0.8951 0.6918 0.04917 0.0
C463 C 0.89852 0.70946 0.02932 0.0
C464 C 0.87986 0.67178 0.03883 0.0
C465 C 0.87434 0.67769 1.01255 0.0
O466 O 0.92149 0.72335 0.96081 0.0
C467 C 0.84152 0.752 0.99669 0.0
O468 O 0.83359 0.72774 1.0027 0.0
H469 H 0.90955 0.72814 0.03125 0.0
H470 H 0.86281 0.66543 0.99874 0.0
N471 N 0.86274 0.70526 0.94928 0.0
N472 N 0.83112 0.68128 0.92724 0.0
C473 C 0.84017 0.68957 0.95133 0.0
C474 C 0.86787 0.70732 0.92308 0.0
C475 C 0.84848 0.69252 0.90942 0.0
C476 C 0.93199 0.70069 0.95502 0.0
O477 O 0.91774 0.67918 0.96092 0.0
H478 H 0.83081 0.68409 0.97005 0.0
H479 H 0.8847 0.71876 0.91455 0.0
O480 O 0.86462 0.75503 0.98445 0.0
H481 H 0.87357 0.65404 0.04942 0.0
H482 H 0.84725 0.69035 0.88803 0.0
Cu483 Cu 0.70827 0.85671 0.03191 0.0
N484 N 0.70495 0.87416 0.99888 0.0
N485 N 0.70662 0.90341 0.96518 0.0
C486 C 0.712 0.89911 0.99135 0.0
C487 C 0.69615 0.8802 0.95606 0.0
C488 C 0.69527 0.86233 0.97672 0.0
O489 O 0.71516 0.88168 0.0611 0.0
C490 C 0.76198 0.83664 1.01754 0.0
O491 O 0.76598 0.86066 1.00805 0.0
H492 H 0.72077 0.91376 1.00475 0.0
H493 H 0.68826 0.84191 0.97565 0.0
N494 N 0.67488 0.83798 0.03894 0.0
N495 N 0.64298 0.81031 0.0566 0.0
C496 C 0.66983 0.81887 0.05725 0.0
C497 C 0.65037 0.84171 1.02646 0.0
C498 C 0.63083 0.82476 0.03716 0.0
C499 C 0.701 0.90287 0.06437 0.0
O500 O 0.6815 0.90884 0.04701 0.0
H501 H 0.68556 0.81145 0.07078 0.0
H502 H 0.6468 0.85614 1.01089 0.0
O503 O 0.73898 0.83125 0.02904 0.0
H504 H 0.69006 0.87614 0.93571 0.0
H505 H 0.60908 0.82383 0.03156 0.0
Cu506 Cu 0.18199 0.72497 0.08175 0.0
N507 N 0.18066 0.70331 0.05152 0.0
N508 N 0.17131 0.6918 1.00963 0.0
C509 C 0.16704 0.70978 0.02904 0.0
C510 C 0.18809 0.67313 1.02019 0.0
C511 C 0.19364 0.68016 0.04622 0.0
O512 O 0.1442 0.72579 0.09643 0.0
C513 C 0.2232 0.75523 0.05837 0.0
O514 O 0.23134 0.73088 0.05309 0.0
H515 H 0.15488 0.72774 1.02673 0.0
H516 H 0.2064 0.66919 0.06008 0.0
N517 N 0.20338 0.71036 0.10892 0.0
N518 N 0.23536 0.68792 0.13192 0.0
C519 C 0.22659 0.69555 0.10755 0.0
C520 C 0.19757 0.71259 0.13499 0.0
C521 C 0.21718 0.69869 0.14925 0.0
C522 C 0.13438 0.70276 0.102 0.0
O523 O 0.14938 0.68177 0.09601 0.0
H524 H 0.23648 0.69001 0.0891 0.0
H525 H 0.18 0.72335 0.14301 0.0
O526 O 0.20051 0.75839 0.07129 0.0
H527 H 0.19559 0.65565 1.00988 0.0
H528 H 0.21789 0.69663 0.17066 0.0
Cu529 Cu 0.88312 0.34829 0.07273 0.0
N530 N 0.88642 0.36186 0.03841 0.0
N531 N 0.89746 0.36839 0.99582 0.0
C532 C 0.90117 0.35287 1.01752 0.0
C533 C 0.87966 0.38766 1.00344 0.0
C534 C 0.87293 0.38358 0.02962 0.0
O535 O 0.91998 0.34295 0.08857 0.0
C536 C 0.83607 0.3183 0.05838 0.0
O537 O 0.82951 0.34105 0.04719 0.0
H538 H 0.91455 0.3356 1.01835 0.0
H539 H 0.85888 0.3955 0.04142 0.0
N540 N 0.86769 0.37572 0.09252 0.0
N541 N 0.83912 0.40281 0.1143 0.0
C542 C 0.84162 0.37934 0.10143 0.0
C543 C 0.88198 0.39758 0.0998 0.0
C544 C 0.86447 0.41428 0.11334 0.0
C545 C 0.92251 0.34564 0.11373 0.0
O546 O 0.89995 0.34653 0.12841 0.0
H547 H 0.82486 0.36527 0.09832 0.0
H548 H 0.90361 0.40124 0.09512 0.0
O549 O 0.8588 0.31683 0.07156 0.0
H550 H 0.87171 0.40342 0.99091 0.0
H551 H 0.86971 0.4338 0.12094 0.0
Cu552 Cu 0.56691 0.88914 0.70776 0.0
N553 N 0.59557 0.86996 0.69183 0.0
N554 N 0.625 0.85896 0.65939 0.0
C555 C 0.60828 0.87794 0.66947 0.0
C556 C 0.62279 0.83814 0.67618 0.0
C557 C 0.60457 0.84501 0.69626 0.0
O558 O 0.53799 0.89205 0.68032 0.0
C559 C 0.6037 0.91876 0.73812 0.0
O560 O 0.61336 0.89454 0.74129 0.0
H561 H 0.60386 0.89674 0.65988 0.0
H562 H 0.59733 0.83222 0.71206 0.0
N563 N 0.5504 0.87043 0.73545 0.0
N564 N 0.54271 0.84509 0.7711 0.0
C565 C 0.56205 0.85513 0.75439 0.0
C566 C 0.52292 0.87017 0.74037 0.0
C567 C 0.51807 0.85452 0.76224 0.0
C568 C 0.52979 0.86961 0.67114 0.0
O569 O 0.54134 0.84788 0.68052 0.0
H570 H 0.58418 0.85163 0.75598 0.0
H571 H 0.50745 0.88054 0.72865 0.0
O572 O 0.58264 0.92202 0.72287 0.0
H573 H 0.63297 0.81911 0.67375 0.0
H574 H 0.49786 0.85001 0.77055 0.0
Cu575 Cu 0.21073 0.53071 0.70465 0.0
N576 N 0.20593 0.49737 0.68829 0.0
N577 N 0.20568 0.46347 0.65922 0.0
C578 C 0.2122 0.48939 0.66331 0.0
C579 C 0.19519 0.45494 0.68261 0.0
C580 C 0.19546 0.47576 0.70039 0.0
O581 O 0.21871 0.55834 0.67834 0.0
C582 C 0.26154 0.51274 0.72997 0.0
O583 O 0.26514 0.49812 0.70859 0.0
H584 H 0.22112 0.50237 0.64844 0.0
H585 H 0.18863 0.4752 0.72086 0.0
N586 N 0.17796 0.54024 0.72282 0.0
N587 N 0.14847 0.56167 0.75005 0.0
C588 C 0.17485 0.56015 0.7406 0.0
C589 C 0.15271 0.52878 0.72089 0.0
C590 C 0.13455 0.54186 0.73764 0.0
C591 C 0.20293 0.56205 0.65822 0.0
O592 O 0.18141 0.54628 0.65466 0.0
H593 H 0.1917 0.57318 0.74651 0.0
H594 H 0.14773 0.51223 0.70798 0.0
O595 O 0.24047 0.52813 0.73133 0.0
H596 H 0.18824 0.43491 0.68681 0.0
H597 H 0.11262 0.53753 0.7399 0.0
Cu598 Cu 0.50992 0.16422 0.69939 0.0
N599 N 0.48016 0.18105 0.68231 0.0
N600 N 0.44823 0.18966 0.65107 0.0
C601 C 0.4681 0.17268 0.65962 0.0
C602 C 0.44776 0.20941 0.6693 0.0
C603 C 0.46751 0.20407 0.6885 0.0
O604 O 0.53936 0.15819 0.67295 0.0
C605 C 0.47337 0.13745 0.733 0.0
O606 O 0.46237 0.16133 0.73271 0.0
H607 H 0.47473 0.15505 0.64906 0.0
H608 H 0.47261 0.21638 0.70546 0.0
N609 N 0.52713 0.18673 0.72382 0.0
N610 N 0.53646 0.21499 0.75687 0.0
C611 C 0.51638 0.2016 0.74354 0.0
C612 C 0.55481 0.19065 0.72495 0.0
C613 C 0.56064 0.20808 0.74521 0.0
C614 C 0.54454 0.17728 0.65683 0.0
O615 O 0.52787 0.19794 0.6565 0.0
H616 H 0.49438 0.20283 0.74784 0.0
H617 H 0.56981 0.18127 0.712 0.0
O618 O 0.4952 0.1333 0.71906 0.0
H619 H 0.43436 0.22668 0.66874 0.0
H620 H 0.58114 0.2148 0.75117 0.0
Cu621 Cu 0.85841 0.52414 0.70397 0.0
N622 N 0.86152 0.55711 0.68601 0.0
N623 N 0.86167 0.58952 0.65521 0.0
C624 C 0.86177 0.56289 0.65965 0.0
C625 C 0.86163 0.60075 0.67956 0.0
C626 C 0.8616 0.58089 0.69832 0.0
O627 O 0.86065 0.49408 0.6792 0.0
C628 C 0.82161 0.53836 0.74547 0.0
O629 O 0.84387 0.55102 0.75392 0.0
H630 H 0.86127 0.54799 0.64411 0.0
H631 H 0.86141 0.58373 0.7196 0.0
N632 N 0.88842 0.51954 0.72786 0.0
N633 N 0.91868 0.4995 0.75564 0.0
C634 C 0.8948 0.49712 0.7413 0.0
C635 C 0.9089 0.53681 0.73387 0.0
C636 C 0.92747 0.5246 0.75096 0.0
C637 C 0.84439 0.48818 0.65998 0.0
O638 O 0.82275 0.50334 0.65504 0.0
H639 H 0.88214 0.47936 0.74027 0.0
H640 H 0.91059 0.55671 0.72592 0.0
O641 O 0.82335 0.52441 0.72427 0.0
H642 H 0.86181 0.6219 0.68354 0.0
H643 H 0.94643 0.5334 0.75861 0.0
Cu644 Cu 0.55848 0.16764 0.34747 0.0
N645 N 0.58634 0.18847 0.36294 0.0
N646 N 0.6167 0.2007 0.39427 0.0
C647 C 0.60193 0.1805 0.38366 0.0
C648 C 0.61031 0.22228 0.37958 0.0
C649 C 0.59158 0.21464 0.36014 0.0
O650 O 0.52988 0.16397 0.37495 0.0
C651 C 0.59664 0.13971 0.31747 0.0
O652 O 0.60522 0.16434 0.31451 0.0
H653 H 0.60095 0.16065 0.39193 0.0
H654 H 0.58123 0.22761 0.34614 0.0
N655 N 0.54098 0.18516 0.31956 0.0
N656 N 0.53194 0.21165 0.28518 0.0
C657 C 0.55171 0.20224 0.30178 0.0
C658 C 0.51367 0.18347 0.31383 0.0
C659 C 0.50797 0.19991 0.29268 0.0
C660 C 0.52053 0.18629 0.3833 0.0
O661 O 0.53069 0.20821 0.37298 0.0
H662 H 0.57335 0.20822 0.30148 0.0
H663 H 0.49888 0.17138 0.32461 0.0
O664 O 0.57565 0.13546 0.33249 0.0
H665 H 0.61791 0.24223 0.38318 0.0
H666 H 0.4878 0.20302 0.28356 0.0
Cu667 Cu 0.86204 0.52004 0.35186 0.0
N668 N 0.8707 0.48866 0.37066 0.0
N669 N 0.8712 0.45544 0.40063 0.0
C670 C 0.86206 0.48035 0.39487 0.0
C671 C 0.88601 0.448 0.37906 0.0
C672 C 0.88542 0.46825 0.36071 0.0
O673 O 0.85314 0.54927 0.37642 0.0
C674 C 0.81248 0.526 0.31882 0.0
O675 O 0.81326 0.55135 0.32509 0.0
H676 H 0.84876 0.4921 0.4076 0.0
H677 H 0.89472 0.46792 0.34115 0.0
N678 N 0.89302 0.53056 0.33126 0.0
N679 N 0.92041 0.55237 0.30231 0.0
C680 C 0.89428 0.5494 0.31211 0.0
C681 C 0.91928 0.5216 0.33379 0.0
C682 C 0.93608 0.53479 0.31597 0.0
C683 C 0.86795 0.55354 0.39715 0.0
O684 O 0.88867 0.53736 0.40247 0.0
H685 H 0.87644 0.56091 0.30576 0.0
H686 H 0.92604 0.50703 0.34822 0.0
O687 O 0.83104 0.51049 0.32815 0.0
H688 H 0.89663 0.42923 0.37651 0.0
H689 H 0.95838 0.53245 0.31409 0.0
Cu690 Cu 0.50664 0.88792 0.35122 0.0
N691 N 0.47615 0.87417 0.36973 0.0
N692 N 0.44636 0.86754 0.40295 0.0
C693 C 0.46862 0.88138 0.39445 0.0
C694 C 0.4394 0.85104 0.38287 0.0
C695 C 0.45805 0.855 0.3624 0.0
O696 O 0.53736 0.89248 0.3769 0.0
C697 C 0.47149 0.91686 0.31751 0.0
O698 O 0.45821 0.8941 0.31884 0.0
H699 H 0.47961 0.89609 0.40621 0.0
H700 H 0.45863 0.84441 0.34367 0.0
N701 N 0.52086 0.86309 0.32732 0.0
N702 N 0.52796 0.83687 0.29219 0.0
C703 C 0.50949 0.85231 0.30527 0.0
C704 C 0.54721 0.85407 0.32812 0.0
C705 C 0.55163 0.83787 0.30661 0.0
C706 C 0.54147 0.87352 0.39348 0.0
O707 O 0.52355 0.85382 0.39432 0.0
H708 H 0.48852 0.85627 0.29852 0.0
H709 H 0.5625 0.85936 0.34301 0.0
O710 O 0.49414 0.91943 0.33078 0.0
H711 H 0.42274 0.83654 0.38341 0.0
H712 H 0.57081 0.82763 0.30195 0.0
Cu713 Cu 0.211 0.52097 0.35258 0.0
N714 N 0.20711 0.55442 0.369 0.0
N715 N 0.20822 0.58838 0.39804 0.0
C716 C 0.21432 0.56239 0.3938 0.0
C717 C 0.19703 0.59694 0.37491 0.0
C718 C 0.19645 0.5761 0.35715 0.0
O719 O 0.21862 0.49326 0.37896 0.0
C720 C 0.26068 0.53902 0.32543 0.0
O721 O 0.26457 0.55448 0.34619 0.0
H722 H 0.22359 0.54934 0.40845 0.0
H723 H 0.18891 0.57669 0.33687 0.0
N724 N 0.17766 0.51167 0.33508 0.0
N725 N 0.14718 0.48993 0.30888 0.0
C726 C 0.17391 0.49166 0.3175 0.0
C727 C 0.15247 0.52299 0.33775 0.0
C728 C 0.1337 0.50973 0.32164 0.0
C729 C 0.20273 0.49028 0.39906 0.0
O730 O 0.18196 0.5069 0.40242 0.0
H731 H 0.19057 0.47866 0.31119 0.0
H732 H 0.14793 0.53951 0.35083 0.0
O733 O 0.24001 0.52302 0.32518 0.0
H734 H 0.19015 0.61702 0.37084 0.0
H735 H 0.11168 0.51393 0.32008 0.0
Cu736 Cu 0.69475 0.56384 0.85859 0.0
N737 N 0.68973 0.52857 0.8688 0.0
N738 N 0.67418 0.48708 0.87366 0.0
C739 C 0.66936 0.51117 0.86266 0.0
C740 C 0.6984 0.48946 0.88705 0.0
C741 C 0.70799 0.51496 0.88387 0.0
O742 O 0.65977 0.58385 0.85558 0.0
C743 C 0.72179 0.54601 0.81041 0.0
O744 O 0.70492 0.52549 0.81163 0.0
H745 H 0.65151 0.51601 0.85041 0.0
H746 H 0.72724 0.52301 0.89168 0.0
N747 N 0.71447 0.58016 0.88593 0.0
N748 N 0.74413 0.60692 0.90706 0.0
C749 C 0.73406 0.59902 0.88326 0.0
C750 C 0.71211 0.57589 0.91226 0.0
C751 C 0.73036 0.59246 0.92539 0.0
C752 C 0.64429 0.58659 0.87608 0.0
O753 O 0.65033 0.57302 0.89763 0.0
H754 H 0.74056 0.60695 0.86425 0.0
H755 H 0.69827 0.56155 0.92128 0.0
O756 O 0.71908 0.5649 0.82722 0.0
H757 H 0.70879 0.47366 0.89779 0.0
H758 H 0.73366 0.5934 0.94668 0.0
Cu759 Cu 0.52271 0.70789 0.89619 0.0
N760 N 0.49596 0.69332 0.87328 0.0
N761 N 0.46753 0.66245 0.85648 0.0
C762 C 0.48697 0.66805 0.875 0.0
C763 C 0.46399 0.68504 0.84249 0.0
C764 C 0.48182 0.70402 0.85271 0.0
O765 O 0.54939 0.6787 0.902 0.0
C766 C 0.48403 0.74049 0.92178 0.0
O767 O 0.47846 0.74527 0.89667 0.0
H768 H 0.49405 0.65424 0.89007 0.0
H769 H 0.48385 0.72419 0.84575 0.0
N770 N 0.54313 0.73476 0.87959 0.0
N771 N 0.5554 0.7688 0.85374 0.0
C772 C 0.53412 0.75432 0.86352 0.0
C773 C 0.57103 0.7373 0.88033 0.0
C774 C 0.5787 0.75817 0.86423 0.0
C775 C 0.56001 0.66968 0.88044 0.0
O776 O 0.55226 0.68051 0.85782 0.0
H777 H 0.51257 0.75747 0.85834 0.0
H778 H 0.58489 0.7244 0.89134 0.0
O779 O 0.50326 0.72368 0.92718 0.0
H780 H 0.44947 0.68765 0.8262 0.0
H781 H 0.59973 0.76482 0.86032 0.0
Cu782 Cu 0.38082 0.49077 0.85411 0.0
N783 N 0.38761 0.52649 0.86169 0.0
N784 N 0.40353 0.5681 0.86136 0.0
C785 C 0.40758 0.54298 0.85264 0.0
C786 C 0.38052 0.56733 0.87656 0.0
C787 C 0.37086 0.54166 0.87684 0.0
O788 O 0.4157 0.47032 0.85356 0.0
C789 C 0.33488 0.50186 0.82183 0.0
O790 O 0.32727 0.51352 0.84401 0.0
H791 H 0.42425 0.53692 0.83953 0.0
H792 H 0.35256 0.53457 0.88711 0.0
N793 N 0.3607 0.47802 0.88283 0.0
N794 N 0.33033 0.45553 0.90738 0.0
C795 C 0.33733 0.46335 0.88263 0.0
C796 C 0.36868 0.47964 0.90846 0.0
C797 C 0.34993 0.46575 0.92371 0.0
C798 C 0.41631 0.44683 0.86329 0.0
O799 O 0.39284 0.43525 0.86993 0.0
H800 H 0.32629 0.45778 0.86467 0.0
H801 H 0.3872 0.48977 0.91541 0.0
O802 O 0.35801 0.48933 0.82151 0.0
H803 H 0.37153 0.58413 0.8869 0.0
H804 H 0.35059 0.46343 0.94511 0.0
Cu805 Cu 0.55136 0.34425 0.89376 0.0
N806 N 0.5802 0.36022 0.87467 0.0
N807 N 0.61102 0.39169 0.86431 0.0
C808 C 0.59513 0.38101 0.8836 0.0
C809 C 0.60611 0.37693 0.84239 0.0
C810 C 0.58709 0.35744 0.84885 0.0
O811 O 0.52283 0.37165 0.89937 0.0
C812 C 0.58845 0.31161 0.92073 0.0
O813 O 0.59723 0.30932 0.89611 0.0
H814 H 0.59288 0.38926 0.90339 0.0
H815 H 0.57767 0.34346 0.8352 0.0
N816 N 0.53339 0.31842 0.87355 0.0
N817 N 0.52391 0.28687 0.84368 0.0
C818 C 0.54402 0.30144 0.85561 0.0
C819 C 0.50573 0.31424 0.87323 0.0
C820 C 0.49979 0.29478 0.85483 0.0
C821 C 0.51729 0.38651 0.87936 0.0
O822 O 0.53184 0.38366 0.8575 0.0
H823 H 0.56599 0.29996 0.85124 0.0
H824 H 0.49086 0.32513 0.88511 0.0
O825 O 0.56766 0.32682 0.92524 0.0
H826 H 0.61493 0.3805 0.82292 0.0
H827 H 0.47925 0.28775 0.84938 0.0
Cu828 Cu 0.69191 0.4973 0.19884 0.0
N829 N 0.68455 0.53142 0.18649 0.0
N830 N 0.66751 0.57228 0.18085 0.0
C831 C 0.66464 0.54881 0.19369 0.0
C832 C 0.69009 0.56946 0.16522 0.0
C833 C 0.70056 0.54435 0.16882 0.0
O834 O 0.65702 0.47692 0.20153 0.0
C835 C 0.72944 0.48604 0.24383 0.0
O836 O 0.72911 0.46085 0.2369 0.0
H837 H 0.64849 0.54434 0.20798 0.0
H838 H 0.71896 0.53619 0.15956 0.0
N839 N 0.71207 0.48153 0.17159 0.0
N840 N 0.74252 0.458 0.14806 0.0
C841 C 0.73665 0.46878 0.172 0.0
C842 C 0.70236 0.47904 0.14658 0.0
C843 C 0.72106 0.46452 0.132 0.0
C844 C 0.65638 0.45261 0.19401 0.0
O845 O 0.67992 0.44022 0.18942 0.0
H846 H 0.74953 0.46679 0.18953 0.0
H847 H 0.68264 0.48683 0.13967 0.0
O848 O 0.71426 0.50256 0.23121 0.0
H849 H 0.6989 0.58468 0.15256 0.0
H850 H 0.71905 0.45922 0.11121 0.0
Cu851 Cu 0.54285 0.71194 0.1546 0.0
N852 N 0.56923 0.69595 0.17666 0.0
N853 N 0.60005 0.66514 0.18899 0.0
C854 C 0.58593 0.67616 0.16858 0.0
C855 C 0.59194 0.67861 0.21086 0.0
C856 C 0.57286 0.69763 0.20319 0.0
O857 O 0.51483 0.68393 0.14881 0.0
C858 C 0.58414 0.74167 0.12987 0.0
O859 O 0.59148 0.74352 0.155 0.0
H860 H 0.58636 0.66897 0.14828 0.0
H861 H 0.56139 0.71067 0.21626 0.0
N862 N 0.5246 0.73963 0.17182 0.0
N863 N 0.51463 0.77244 0.20006 0.0
C864 C 0.53448 0.75584 0.19089 0.0
C865 C 0.49774 0.74643 0.16848 0.0
C866 C 0.49147 0.76661 0.18598 0.0
C867 C 0.50326 0.67611 0.17038 0.0
O868 O 0.51042 0.68787 0.19272 0.0
H869 H 0.55552 0.75483 0.19854 0.0
H870 H 0.48357 0.73689 0.1547 0.0
O871 O 0.56267 0.72766 0.12402 0.0
H872 H 0.59872 0.67458 0.23101 0.0
H873 H 0.47138 0.77604 0.18834 0.0
Cu874 Cu 0.37194 0.56723 0.19627 0.0
N875 N 0.37827 0.53264 0.18428 0.0
N876 N 0.395 0.49165 0.17886 0.0
C877 C 0.39813 0.51519 0.19155 0.0
C878 C 0.37234 0.49439 0.16326 0.0
C879 C 0.36201 0.51956 0.16675 0.0
O880 O 0.40631 0.58827 0.19793 0.0
C881 C 0.32883 0.55186 0.23052 0.0
O882 O 0.32009 0.5408 0.20833 0.0
H883 H 0.41447 0.51966 0.20574 0.0
H884 H 0.34348 0.52757 0.15755 0.0
N885 N 0.35004 0.58399 0.17081 0.0
N886 N 0.32073 0.61219 0.15131 0.0
C887 C 0.33072 0.60291 0.17464 0.0
C888 C 0.35227 0.58123 0.14426 0.0
C889 C 0.33418 0.59855 0.13217 0.0
C890 C 0.42126 0.59104 0.1771 0.0
O891 O 0.41525 0.57686 0.1559 0.0
H892 H 0.32475 0.61023 0.19406 0.0
H893 H 0.36632 0.56775 0.13432 0.0
O894 O 0.35144 0.56525 0.23006 0.0
H895 H 0.36343 0.47905 0.15073 0.0
H896 H 0.33108 0.60086 0.11096 0.0
Cu897 Cu 0.52093 0.3515 0.15878 0.0
N898 N 0.49185 0.36708 0.1777 0.0
N899 N 0.46018 0.39766 0.18812 0.0
C900 C 0.47699 0.38795 0.16903 0.0
C901 C 0.46447 0.38218 0.20964 0.0
C902 C 0.48403 0.36322 0.20312 0.0
O903 O 0.54973 0.37899 0.15382 0.0
C904 C 0.4835 0.31904 0.13165 0.0
O905 O 0.47414 0.31765 0.15613 0.0
H906 H 0.47973 0.39679 0.14959 0.0
H907 H 0.4929 0.34858 0.21638 0.0
N908 N 0.53856 0.32583 0.17928 0.0
N909 N 0.54707 0.29244 0.20729 0.0
C910 C 0.52733 0.30675 0.19459 0.0
C911 C 0.56627 0.32345 0.18222 0.0
C912 C 0.57161 0.3029 0.19949 0.0
C913 C 0.55441 0.39457 0.17354 0.0
O914 O 0.53847 0.39291 0.19462 0.0
H915 H 0.50517 0.30357 0.19646 0.0
H916 H 0.58151 0.33612 0.17277 0.0
O917 O 0.50474 0.33375 0.12717 0.0
H918 H 0.45466 0.38476 0.22883 0.0
H919 H 0.59197 0.29673 0.20633 0.0
Cu920 Cu 0.86005 0.6974 0.52569 0.0
N921 N 0.86127 0.67987 0.49245 0.0
N922 N 0.85997 0.64966 0.45949 0.0
C923 C 0.86043 0.65368 0.48618 0.0
C924 C 0.86058 0.6742 0.44869 0.0
C925 C 0.86141 0.69264 0.46894 0.0
O926 O 0.85398 0.6723 0.55513 0.0
C927 C 0.80753 0.72151 0.51087 0.0
O928 O 0.80229 0.69882 0.49889 0.0
H929 H 0.8595 0.63792 0.50078 0.0
H930 H 0.86179 0.71403 0.46673 0.0
N931 N 0.89364 0.71617 0.53164 0.0
N932 N 0.92579 0.74338 0.54982 0.0
C933 C 0.90043 0.73175 0.55264 0.0
C934 C 0.91544 0.71798 0.51499 0.0
C935 C 0.9352 0.73464 0.52608 0.0
C936 C 0.86997 0.6525 0.55959 0.0
O937 O 0.89114 0.64832 0.54365 0.0
H938 H 0.88675 0.73481 0.56943 0.0
H939 H 0.91683 0.70796 0.49599 0.0
O940 O 0.8302 0.72415 0.52399 0.0
H941 H 0.86077 0.67852 0.4276 0.0
H942 H 0.95514 0.73958 0.51742 0.0
Cu943 Cu 0.86307 0.34731 0.52984 0.0
N944 N 0.8729 0.36903 0.55902 0.0
N945 N 0.87277 0.39967 0.59162 0.0
C946 C 0.8573 0.38619 0.57342 0.0
C947 C 0.89894 0.39042 0.58851 0.0
C948 C 0.89894 0.37173 0.56851 0.0
O949 O 0.86324 0.36888 0.49723 0.0
C950 C 0.821 0.31675 0.55581 0.0
O951 O 0.83988 0.31473 0.57465 0.0
H952 H 0.83521 0.38901 0.5703 0.0
H953 H 0.9169 0.36132 0.56085 0.0
N954 N 0.89004 0.32018 0.52611 0.0
N955 N 0.92154 0.29202 0.50865 0.0
C956 C 0.90291 0.31176 0.50375 0.0
C957 C 0.90087 0.30529 0.54579 0.0
C958 C 0.92016 0.288 0.53518 0.0
C959 C 0.85512 0.39303 0.49612 0.0
O960 O 0.84486 0.40422 0.51754 0.0
H961 H 0.89853 0.31993 0.48429 0.0
H962 H 0.89542 0.30714 0.56657 0.0
O963 O 0.82654 0.33058 0.5352 0.0
H964 H 0.91713 0.39737 0.5992 0.0
H965 H 0.93263 0.274 0.54635 0.0
Cu966 Cu 0.68878 0.84438 0.48066 0.0
N967 N 0.68647 0.85887 0.51474 0.0
N968 N 0.6764 0.86611 0.55748 0.0
C969 C 0.67213 0.85028 0.53607 0.0
C970 C 0.69415 0.88519 0.54922 0.0
C971 C 0.70029 0.88067 0.52296 0.0
O972 O 0.65116 0.84157 0.46537 0.0
C973 C 0.73399 0.81255 0.49569 0.0
O974 O 0.7416 0.83542 0.50607 0.0
H975 H 0.65865 0.83302 0.53575 0.0
H976 H 0.71419 0.89232 0.51072 0.0
N977 N 0.70656 0.86999 0.46016 0.0
N978 N 0.73698 0.89298 0.43605 0.0
C979 C 0.73234 0.87037 0.44984 0.0
C980 C 0.6947 0.8931 0.4529 0.0
C981 C 0.71335 0.90728 0.43792 0.0
C982 C 0.6476 0.84562 0.44049 0.0
O983 O 0.66942 0.84593 0.42481 0.0
H984 H 0.74737 0.85458 0.45247 0.0
H985 H 0.67391 0.89923 0.45837 0.0
O986 O 0.71107 0.81153 0.4827 0.0
H987 H 0.70247 0.90111 0.56138 0.0
H988 H 0.71017 0.927 0.42987 0.0
Cu989 Cu 0.21478 0.70004 0.52404 0.0
N990 N 0.21392 0.6838 0.55777 0.0
N991 N 0.21417 0.65475 0.59162 0.0
C992 C 0.21107 0.65802 0.56498 0.0
C993 C 0.21886 0.67936 0.60136 0.0
C994 C 0.21866 0.69709 0.58057 0.0
O995 O 0.21211 0.67432 0.49487 0.0
C996 C 0.27134 0.71675 0.53425 0.0
O997 O 0.27399 0.69405 0.5469 0.0
H998 H 0.20761 0.64197 0.551 0.0
H999 H 0.22229 0.71829 0.58185 0.0
N1000 N 0.18435 0.72344 0.52054 0.0
N1001 N 0.15264 0.75083 0.50223 0.0
C1002 C 0.17441 0.73423 0.49782 0.0
C1003 C 0.16838 0.73356 0.54001 0.0
C1004 C 0.14889 0.75039 0.52884 0.0
C1005 C 0.22733 0.65394 0.491 0.0
O1006 O 0.24758 0.64863 0.50778 0.0
H1007 H 0.1833 0.73018 0.47849 0.0
H1008 H 0.1707 0.72902 0.56092 0.0
O1009 O 0.24854 0.72189 0.52217 0.0
H1010 H 0.22211 0.68425 0.62211 0.0
H1011 H 0.13292 0.76111 0.53953 0.0
Cu1012 Cu 0.38046 0.2188 0.47851 0.0
N1013 N 0.38298 0.19687 0.5084 0.0
N1014 N 0.39432 0.18461 0.54976 0.0
C1015 C 0.3937 0.20463 0.53188 0.0
C1016 C 0.38354 0.16337 0.53688 0.0
C1017 C 0.37659 0.17098 0.51136 0.0
O1018 O 0.41722 0.21978 0.462 0.0
C1019 C 0.34094 0.24999 0.50264 0.0
O1020 O 0.33209 0.22587 0.50809 0.0
H1021 H 0.40178 0.22442 0.53536 0.0
H1022 H 0.36823 0.1583 0.49592 0.0
N1023 N 0.35735 0.20505 0.45222 0.0
N1024 N 0.32611 0.18147 0.42936 0.0
C1025 C 0.33704 0.1867 0.4536 0.0
C1026 C 0.35904 0.21192 0.42644 0.0
C1027 C 0.33985 0.1974 0.41226 0.0
C1028 C 0.4264 0.19712 0.45448 0.0
O1029 O 0.41147 0.17586 0.45963 0.0
H1030 H 0.33083 0.17701 0.47183 0.0
H1031 H 0.37356 0.22631 0.41852 0.0
O1032 O 0.36355 0.2525 0.48954 0.0
H1033 H 0.38107 0.14365 0.54514 0.0
H1034 H 0.33634 0.19849 0.39101 0.0
Cu1035 Cu 0.20641 0.35197 0.5332 0.0
N1036 N 0.20546 0.3681 0.49944 0.0
N1037 N 0.20747 0.39703 0.46554 0.0
C1038 C 0.20482 0.39401 0.49223 0.0
C1039 C 0.20958 0.37213 0.45575 0.0
C1040 C 0.20832 0.35447 0.47658 0.0
O1041 O 0.20489 0.37787 0.56221 0.0
C1042 C 0.2626 0.33521 0.52301 0.0
O1043 O 0.26518 0.35814 0.51076 0.0
H1044 H 0.20336 0.41029 0.50625 0.0
H1045 H 0.21004 0.33307 0.47528 0.0
N1046 N 0.17538 0.32929 0.53718 0.0
N1047 N 0.14443 0.3011 0.55552 0.0
C1048 C 0.16847 0.31497 0.55892 0.0
C1049 C 0.1551 0.32432 0.51935 0.0
C1050 C 0.13609 0.30702 0.53052 0.0
C1051 C 0.22106 0.39761 0.5661 0.0
O1052 O 0.24152 0.40207 0.54941 0.0
H1053 H 0.18098 0.3148 0.57684 0.0
H1054 H 0.15399 0.33295 0.49968 0.0
O1055 O 0.23982 0.32976 0.53486 0.0
H1056 H 0.21185 0.36702 0.43494 0.0
H1057 H 0.11723 0.29993 0.52106 0.0
Cu1058 Cu 0.69288 0.20252 0.56976 0.0
N1059 N 0.69131 0.19646 0.53325 0.0
N1060 N 0.67882 0.19378 0.49059 0.0
C1061 C 0.67173 0.20266 0.51505 0.0
C1062 C 0.70367 0.18171 0.49358 0.0
C1063 C 0.71132 0.18348 0.51985 0.0
O1064 O 0.65561 0.20562 0.58552 0.0
C1065 C 0.72112 0.25117 0.5595 0.0
O1066 O 0.70326 0.25257 0.53972 0.0
H1067 H 0.65257 0.21296 0.51968 0.0
H1068 H 0.73016 0.1757 0.52873 0.0
N1069 N 0.70736 0.1712 0.58358 0.0
N1070 N 0.73518 0.14048 0.60104 0.0
C1071 C 0.73322 0.16577 0.59228 0.0
C1072 C 0.69272 0.14857 0.58656 0.0
C1073 C 0.70977 0.12962 0.59754 0.0
C1074 C 0.65227 0.19806 0.60958 0.0
O1075 O 0.67438 0.19307 0.62417 0.0
H1076 H 0.7501 0.18006 0.59245 0.0
H1077 H 0.67104 0.14616 0.58118 0.0
O1078 O 0.7189 0.23209 0.57613 0.0
H1079 H 0.71552 0.1724 0.47784 0.0
H1080 H 0.70411 0.10931 0.60222 0.0
Cu1081 Cu 0.38834 0.83534 0.5779 0.0
N1082 N 0.3895 0.85729 0.54788 0.0
N1083 N 0.39966 0.86987 0.50653 0.0
C1084 C 0.40443 0.85197 0.52591 0.0
C1085 C 0.3812 0.88729 0.51656 0.0
C1086 C 0.37517 0.87964 0.54226 0.0
O1087 O 0.42576 0.83467 0.59325 0.0
C1088 C 0.34874 0.80326 0.55399 0.0
O1089 O 0.33966 0.8271 0.54784 0.0
H1090 H 0.41787 0.83483 0.52389 0.0
H1091 H 0.36113 0.88963 0.55565 0.0
N1092 N 0.36633 0.84914 0.60498 0.0
N1093 N 0.3337 0.87037 0.62823 0.0
C1094 C 0.34278 0.8635 0.60375 0.0
C1095 C 0.37201 0.84634 0.63103 0.0
C1096 C 0.35202 0.85945 0.64543 0.0
C1097 C 0.43548 0.85751 0.59962 0.0
O1098 O 0.42082 0.87872 0.59359 0.0
H1099 H 0.33279 0.86913 0.58534 0.0
H1100 H 0.38971 0.83567 0.63898 0.0
O1101 O 0.37132 0.80135 0.56739 0.0
H1102 H 0.37284 0.90431 0.50609 0.0
H1103 H 0.35115 0.86083 0.66689 0.0
C1104 C 0.14799 0.44537 0.28771 0.0
C1105 C 0.13518 0.47025 0.29108 0.0
H1106 H 0.14646 0.40694 0.26973 0.0
C1107 C 0.11012 0.47519 0.27721 0.0
H1108 H 0.16702 0.44057 0.29818 0.0
C1109 C 0.09809 0.45564 0.26075 0.0
C1110 C 0.11077 0.43063 0.25784 0.0
H1111 H 0.09977 0.49419 0.279 0.0
H1112 H 0.07871 0.45999 0.25059 0.0
C1113 C 0.13598 0.42591 0.27142 0.0
C1114 C 0.61342 0.07277 0.28519 0.0
C1115 C 0.63694 0.07918 0.26966 0.0
H1116 H 0.58228 0.08657 0.31264 0.0
C1117 C 0.64738 0.10525 0.27105 0.0
H1118 H 0.60492 0.05285 0.28498 0.0
C1119 C 0.63453 0.12441 0.28699 0.0
C1120 C 0.61076 0.11823 0.30213 0.0
H1121 H 0.66515 0.1112 0.2593 0.0
H1122 H 0.64313 0.14433 0.28707 0.0
C1123 C 0.6005 0.09206 0.30126 0.0
C1124 C 0.96588 0.58742 0.25199 0.0
C1125 C 0.95321 0.61253 0.25065 0.0
H1126 H 0.96531 0.54847 0.26947 0.0
C1127 C 0.92847 0.61671 0.26506 0.0
H1128 H 0.98491 0.58353 0.24117 0.0
C1129 C 0.9172 0.59672 0.28112 0.0
C1130 C 0.93046 0.57199 0.28351 0.0
H1131 H 0.91799 0.63575 0.2644 0.0
H1132 H 0.89869 0.6011 0.29251 0.0
C1133 C 0.95472 0.56742 0.26838 0.0
C1134 C 0.47409 0.96199 0.29475 0.0
C1135 C 0.45983 0.93815 0.30001 0.0
H1136 H 0.47437 0.999 0.2735 0.0
C1137 C 0.43389 0.93399 0.2875 0.0
H1138 H 0.49407 0.9659 0.304 0.0
C1139 C 0.42267 0.95276 0.27001 0.0
C1140 C 0.43696 0.97645 0.26431 0.0
H1141 H 0.42214 0.91594 0.29095 0.0
H1142 H 0.403 0.94827 0.2605 0.0
C1143 C 0.46281 0.9809 0.27708 0.0
C1144 C 0.14959 0.60641 0.77067 0.0
C1145 C 0.13709 0.58127 0.7682 0.0
H1146 H 0.14825 0.64507 0.78804 0.0
C1147 C 0.11289 0.57604 0.78322 0.0
H1148 H 0.16796 0.61141 0.75932 0.0
C1149 C 0.10136 0.59561 0.79992 0.0
C1150 C 0.11365 0.62092 0.8018 0.0
H1151 H 0.10284 0.55681 0.78209 0.0
H1152 H 0.0826 0.59108 0.81093 0.0
C1153 C 0.13804 0.62588 0.78711 0.0
C1154 C 0.42286 0.10382 0.78039 0.0
C1155 C 0.4359 0.07944 0.78589 0.0
H1156 H 0.42427 0.1408 0.75965 0.0
C1157 C 0.4612 0.07372 0.77283 0.0
H1158 H 0.40362 0.1092 0.79012 0.0
C1159 C 0.47327 0.09209 0.75516 0.0
C1160 C 0.46042 0.11669 0.75022 0.0
H1161 H 0.47173 0.05503 0.77624 0.0
H1162 H 0.49286 0.0872 0.74575 0.0
C1163 C 0.43492 0.12211 0.76291 0.0
C1164 C 0.92561 0.45218 0.7682 0.0
C1165 C 0.93266 0.47914 0.77131 0.0
H1166 H 0.93299 0.41198 0.7796 0.0
C1167 C 0.95391 0.48563 0.78974 0.0
H1168 H 0.90984 0.44603 0.7541 0.0
C1169 C 0.96766 0.46571 0.80444 0.0
C1170 C 0.96042 0.43881 0.80117 0.0
H1171 H 0.9599 0.5061 0.79304 0.0
H1172 H 0.98384 0.47138 0.81838 0.0
C1173 C 0.93917 0.43244 0.78288 0.0
C1174 C 0.62076 0.98775 0.76594 0.0
C1175 C 0.64228 0.98196 0.78427 0.0
H1176 H 0.59164 0.97261 0.73699 0.0
C1177 C 0.65098 0.95538 0.78659 0.0
H1178 H 0.61356 1.00792 0.76321 0.0
C1179 C 0.63859 0.9353 0.77136 0.0
C1180 C 0.61692 0.94096 0.75332 0.0
H1181 H 0.66708 0.94975 0.80054 0.0
H1182 H 0.64592 0.91512 0.77409 0.0
C1183 C 0.60819 0.96749 0.75072 0.0
C1184 C 0.26635 0.134 0.43576 0.0
C1185 C 0.26579 0.12231 0.41036 0.0
H1186 H 0.28564 0.1624 0.46157 0.0
C1187 C 0.28502 0.13078 0.39118 0.0
H1188 H 0.25148 0.12819 0.45081 0.0
C1189 C 0.30461 0.15032 0.39735 0.0
C1190 C 0.30536 0.16187 0.42282 0.0
H1191 H 0.28537 0.12187 0.37158 0.0
H1192 H 0.31958 0.15589 0.38231 0.0
C1193 C 0.28591 0.15359 0.44192 0.0
C1194 C 0.94573 0.29015 0.46511 0.0
C1195 C 0.9397 0.27858 0.48985 0.0
H1196 H 0.96692 0.28703 0.42802 0.0
C1197 C 0.95198 0.25374 0.49585 0.0
H1198 H 0.93728 0.30933 0.45977 0.0
C1199 C 0.96948 0.24083 0.47748 0.0
C1200 C 0.97507 0.25239 0.45263 0.0
H1201 H 0.94776 0.24396 0.51456 0.0
H1202 H 0.9782 0.22164 0.48256 0.0
C1203 C 0.96305 0.2773 0.44686 0.0
C1204 C 0.78814 0.89547 0.4364 0.0
C1205 C 0.7626 0.90187 0.42445 0.0
H1206 H 0.83195 0.90306 0.43785 0.0
C1207 C 0.7622 0.91912 0.40249 0.0
H1208 H 0.78901 0.8823 0.45341 0.0
C1209 C 0.78673 0.93098 0.3936 0.0
C1210 C 0.81199 0.92596 0.40671 0.0
H1211 H 0.74278 0.92407 0.39273 0.0
H1212 H 0.78566 0.94515 0.37744 0.0
C1213 C 0.81262 0.90752 0.42768 0.0
C1214 C 0.1051 0.802 0.47053 0.0
C1215 C 0.10439 0.79334 0.44394 0.0
H1216 H 0.12118 0.79554 0.50988 0.0
C1217 C 0.11984 0.77055 0.43707 0.0
H1218 H 0.09355 0.81947 0.47654 0.0
C1219 C 0.13556 0.75685 0.45604 0.0
C1220 C 0.13642 0.76537 0.48264 0.0
H1221 H 0.11987 0.76311 0.41684 0.0
H1222 H 0.14674 0.73927 0.44981 0.0
C1223 C 0.1209 0.78816 0.48967 0.0
C1224 C 0.26768 0.90947 0.6215 0.0
C1225 C 0.2675 0.92381 0.64547 0.0
H1226 H 0.28839 0.88063 0.59752 0.0
C1227 C 0.28866 0.9194 0.66422 0.0
H1228 H 0.25131 0.91216 0.60692 0.0
C1229 C 0.31009 0.90153 0.65878 0.0
C1230 C 0.31067 0.88754 0.63453 0.0
H1231 H 0.28917 0.93042 0.68272 0.0
H1232 H 0.32659 0.89938 0.67328 0.0
C1233 C 0.28897 0.89143 0.61613 0.0
C1234 C 0.09526 0.25039 0.58582 0.0
C1235 C 0.10152 0.25273 0.61305 0.0
H1236 H 0.10415 0.26347 0.54614 0.0
C1237 C 0.12225 0.27103 0.6208 0.0
H1238 H 0.0795 0.23648 0.57909 0.0
C1239 C 0.13623 0.28661 0.60207 0.0
C1240 C 0.13009 0.28446 0.5748 0.0
H1241 H 0.12771 0.2736 0.64156 0.0
H1242 H 0.15156 0.30067 0.60921 0.0
C1243 C 0.10939 0.26603 0.56692 0.0
C1244 C 0.77966 0.09555 0.64223 0.0
C1245 C 0.806 0.09995 0.6311 0.0
H1246 H 0.73627 0.10512 0.64115 0.0
C1247 C 0.80886 0.1184 0.61033 0.0
H1248 H 0.77698 0.08135 0.6582 0.0
C1249 C 0.78568 0.13221 0.60083 0.0
C1250 C 0.75926 0.12739 0.61162 0.0
H1251 H 0.82905 0.12231 0.60166 0.0
H1252 H 0.78827 0.14621 0.58467 0.0
C1253 C 0.75644 0.10898 0.63241 0.0
C1254 C 0.96145 0.77828 0.56004 0.0
C1255 C 0.94028 0.76067 0.56849 0.0
H1256 H 0.99249 0.80721 0.57135 0.0
C1257 C 0.93404 0.75978 0.59575 0.0
H1258 H 0.96668 0.77982 0.53919 0.0
C1259 C 0.94877 0.77543 0.61403 0.0
C1260 C 0.97022 0.79269 0.60577 0.0
H1261 H 0.91819 0.74643 0.60318 0.0
H1262 H 0.9434 0.77371 0.63487 0.0
C1263 C 0.97617 0.79417 0.57845 0.0
C1264 C 0.47738 0.30355 0.08375 0.0
C1265 C 0.46928 0.30291 0.1106 0.0
H1266 H 0.47024 0.28898 0.04419 0.0
C1267 C 0.44701 0.28615 0.11775 0.0
H1268 H 0.49437 0.31623 0.07748 0.0
C1269 C 0.43333 0.2704 0.09884 0.0
C1270 C 0.44129 0.27084 0.07196 0.0
H1271 H 0.4401 0.28491 0.1382 0.0
H1272 H 0.41674 0.25755 0.10558 0.0
C1273 C 0.46354 0.28775 0.06467 0.0
C1274 C 0.43301 0.78907 0.95322 0.0
C1275 C 0.43743 0.78567 0.98066 0.0
H1276 H 0.44389 0.77781 0.91368 0.0
C1277 C 0.45739 0.76662 0.98875 0.0
H1278 H 0.41827 0.80358 0.94593 0.0
C1279 C 0.47254 0.75173 0.96995 0.0
C1280 C 0.4681 0.75541 0.94255 0.0
H1281 H 0.46132 0.76304 1.00963 0.0
H1282 H 0.48773 0.73741 0.97688 0.0
C1283 C 0.448 0.77423 0.93457 0.0
C1284 C 0.28169 0.44187 0.9005 0.0
C1285 C 0.30668 0.43983 0.91485 0.0
H1286 H 0.23889 0.43049 0.89781 0.0
C1287 C 0.308 0.42291 0.93704 0.0
H1288 H 0.2801 0.45484 0.88339 0.0
C1289 C 0.28444 0.40891 0.94523 0.0
C1290 C 0.25917 0.4119 0.93152 0.0
H1291 H 0.32717 0.4207 0.94819 0.0
H1292 H 0.28569 0.39663 0.96286 0.0
C1293 C 0.25812 0.42812 0.90883 0.0
C1294 C 0.63943 0.26485 0.95483 0.0
C1295 C 0.62995 0.26435 0.98125 0.0
H1296 H 0.634 0.27988 0.91547 0.0
C1297 C 0.60669 0.28018 0.98785 0.0
H1298 H 0.65693 0.25281 0.94875 0.0
C1299 C 0.59325 0.29584 0.9685 0.0
C1300 C 0.60268 0.296 0.94205 0.0
H1301 H 0.5989 0.28064 1.00801 0.0
H1302 H 0.57539 0.30763 0.97422 0.0
C1303 C 0.62603 0.28037 0.9356 0.0
C1304 C 0.76579 0.64127 0.93538 0.0
C1305 C 0.76563 0.62621 0.91186 0.0
H1306 H 0.78633 0.67113 0.95844 0.0
C1307 C 0.78695 0.62998 0.89321 0.0
H1308 H 0.74936 0.63905 0.9499 0.0
C1309 C 0.80824 0.64819 0.89815 0.0
C1310 C 0.80861 0.66315 0.92179 0.0
H1311 H 0.78756 0.61836 0.87509 0.0
H1312 H 0.82474 0.65001 0.88367 0.0
C1313 C 0.787 0.65962 0.94026 0.0
C1314 C 0.6254 0.76953 0.11717 0.0
C1315 C 0.60015 0.75724 0.10972 0.0
H1316 H 0.65861 0.7958 0.10651 0.0
C1317 C 0.5901 0.76149 0.0838 0.0
H1318 H 0.63396 0.76669 0.13693 0.0
C1319 C 0.60445 0.77836 0.06619 0.0
C1320 C 0.6293 0.7913 0.074 0.0
H1321 H 0.5708 0.75237 0.07733 0.0
H1322 H 0.59589 0.7814 0.0465 0.0
C1323 C 0.63977 0.7862 0.09961 0.0
C1324 C 0.25766 0.65458 0.16106 0.0
C1325 C 0.258 0.67018 0.13786 0.0
H1326 H 0.27738 0.62365 0.18342 0.0
C1327 C 0.28016 0.6673 0.11993 0.0
H1328 H 0.24075 0.65605 0.17514 0.0
C1329 C 0.30098 0.64861 0.12461 0.0
C1330 C 0.30018 0.6325 0.14739 0.0
H1331 H 0.28141 0.6794 0.10219 0.0
H1332 H 0.31773 0.64675 0.11038 0.0
C1333 C 0.2786 0.63597 0.16581 0.0
C1334 C 0.79213 0.44697 0.15365 0.0
C1335 C 0.76648 0.44253 0.14098 0.0
H1336 H 0.83543 0.43738 0.15524 0.0
C1337 C 0.76471 0.42332 0.12073 0.0
H1338 H 0.79412 0.46167 0.16928 0.0
C1339 C 0.78836 0.40951 0.11261 0.0
C1340 C 0.81423 0.41476 0.12453 0.0
H1341 H 0.74509 0.41913 0.11096 0.0
H1342 H 0.78655 0.39549 0.09636 0.0
C1343 C 0.8158 0.43324 0.14546 0.0
C1344 C 0.06985 0.29623 0.32674 0.0
C1345 C 0.04913 0.27762 0.3333 0.0
H1346 H 0.08235 0.32778 0.30087 0.0
C1347 C 1.02512 0.27605 0.31733 0.0
H1348 H 0.08871 0.29777 0.33846 0.0
C1349 C 1.02167 0.29293 0.29566 0.0
C1350 C 0.04202 0.31198 0.28945 0.0
H1351 H 1.00852 0.26226 0.32186 0.0
H1352 H 1.00292 0.29109 0.28383 0.0
C1353 C 0.06634 0.31325 0.30503 0.0
C1354 C 0.82754 0.9933 0.27277 0.0
C1355 C 0.82112 1.00407 0.29784 0.0
H1356 H 0.81525 0.98873 0.23193 0.0
C1357 C 0.79675 1.01943 0.30031 0.0
H1358 H 0.84612 0.98144 0.2701 0.0
C1359 C 0.77918 1.02375 0.27849 0.0
C1360 C 0.78534 1.01276 0.25349 0.0
H1361 H 0.7911 0.02818 0.31923 0.0
H1362 H 0.76054 0.0355 0.28135 0.0
C1363 C 0.80982 0.99755 0.25087 0.0
C1364 C 0.04818 0.74743 0.29037 0.0
C1365 C 1.02423 0.73322 0.28296 0.0
H1366 H 0.06651 0.77533 0.31714 0.0
C1367 C 0.99915 0.73807 0.29637 0.0
H1368 H 0.06769 0.74433 0.28012 0.0
C1369 C 0.99839 0.75603 0.31761 0.0
C1370 C 1.02264 0.76958 0.32559 0.0
H1371 H 0.98042 0.72728 0.29109 0.0
H1372 H 0.97895 0.75908 0.32798 0.0
C1373 C 0.04741 0.76542 0.31141 0.0
C1374 C 0.25132 0.06201 0.2721 0.0
C1375 C 0.25889 0.0497 0.29617 0.0
H1376 H 0.26199 0.0695 0.2313 0.0
C1377 C 0.28358 0.03462 0.29683 0.0
H1378 H 0.23246 0.07372 0.27083 0.0
C1379 C 0.30031 0.032 0.27425 0.0
C1380 C 0.29304 0.04452 0.25026 0.0
H1381 H 0.29011 1.02469 0.3149 0.0
H1382 H 0.31919 1.02033 0.27576 0.0
C1383 C 0.26827 0.05954 0.24944 0.0
C1384 C 1.02905 0.76085 0.76757 0.0
C1385 C 0.04904 0.74128 0.77302 0.0
H1386 H 1.01444 0.79035 0.74062 0.0
C1387 C 0.07169 0.73821 0.75569 0.0
H1388 H 1.01158 0.76385 0.78079 0.0
C1389 C 0.07349 0.75358 0.73258 0.0
C1390 C 0.05279 0.77241 0.72658 0.0
H1391 H 0.08732 0.72317 0.7594 0.0
H1392 H 0.09076 0.75041 0.71918 0.0
C1393 C 1.0309 0.77625 0.74466 0.0
C1394 C 0.28103 1.01823 0.75434 0.0
C1395 C 0.2571 1.00204 0.75555 0.0
H1396 H 0.31601 0.03493 0.77489 0.0
C1397 C 0.25016 0.99043 0.78009 0.0
H1398 H 0.28705 0.02769 0.73588 0.0
C1399 C 0.26703 0.99457 0.80266 0.0
C1400 C 0.29111 1.01062 0.80129 0.0
H1401 H 0.23189 0.97791 0.78181 0.0
H1402 H 0.26129 0.98505 0.82117 0.0
C1403 C 0.29769 1.02253 0.77683 0.0
C1404 C 1.00291 0.28635 0.74599 0.0
C1405 C 1.0229 0.28292 0.72596 0.0
H1406 H 0.99119 0.30731 0.78116 0.0
C1407 C 0.04618 0.29979 0.7254 0.0
H1408 H 0.98493 0.27342 0.74713 0.0
C1409 C 0.04973 0.31931 0.74484 0.0
C1410 C 1.03013 0.3223 0.76532 0.0
H1411 H 0.06166 0.29792 0.70991 0.0
H1412 H 0.06787 0.33204 0.7438 0.0
C1413 C 1.0065 0.30581 0.7655 0.0
C1414 C 0.82525 0.03433 0.79069 0.0
C1415 C 0.82664 0.051 0.7682 0.0
H1416 H 0.8001 1.01871 0.82234 0.0
C1417 C 0.8029 0.06574 0.76121 0.0
H1418 H 0.8431 1.02261 0.79667 0.0
C1419 C 0.77822 0.06328 0.77577 0.0
C1420 C 0.77658 0.04612 0.79786 0.0
H1421 H 0.80308 0.07868 0.74399 0.0
H1422 H 0.76028 0.07469 0.76945 0.0
C1423 C 0.80055 0.03199 0.8054 0.0
C1424 C 0.27622 0.29497 1.02043 0.0
C1425 C 0.25288 0.29264 1.00354 0.0
H1426 H 0.31206 0.27625 0.03754 0.0
C1427 C 0.24778 0.26797 0.99126 0.0
H1428 H 0.28085 0.31357 0.03038 0.0
C1429 C 0.26583 0.24637 0.99548 0.0
C1430 C 0.28939 0.24889 1.01211 0.0
H1431 H 0.22999 0.26539 0.97822 0.0
H1432 H 0.26147 0.22778 0.9854 0.0
C1433 C 0.29417 0.27345 1.02467 0.0
C1434 C 0.23858 0.80349 0.06061 0.0
C1435 C 0.24165 0.77768 0.05031 0.0
H1436 H 0.25578 0.84282 0.06365 0.0
C1437 C 0.26417 0.77263 0.03311 0.0
H1438 H 0.22154 0.8081 0.07389 0.0
C1439 C 0.28371 0.79238 1.02722 0.0
C1440 C 0.28142 0.81788 0.03836 0.0
H1441 H 0.26716 0.75307 1.02454 0.0
H1442 H 0.30107 0.78737 1.01447 0.0
C1443 C 0.25828 0.82337 0.05473 0.0
C1444 C 0.79275 0.29751 0.03951 0.0
C1445 C 0.81725 0.29496 0.05478 0.0
H1446 H 0.75612 0.27876 1.02394 0.0
C1447 C 0.82337 0.27005 0.06603 0.0
H1448 H 0.7873 0.31632 0.03044 0.0
C1449 C 0.80534 0.24834 0.06221 0.0
C1450 C 0.78077 0.251 0.04702 0.0
H1451 H 0.84204 0.26732 0.07783 0.0
H1452 H 0.81062 0.2295 0.07132 0.0
C1453 C 0.77481 0.27587 0.03568 0.0
C1454 C 0.82745 0.80052 0.99411 0.0
C1455 C 0.82258 0.77453 1.00323 0.0
H1456 H 0.8122 0.84055 0.99146 0.0
C1457 C 0.79828 0.76959 1.01808 0.0
H1458 H 0.84589 0.80505 0.98263 0.0
C1459 C 0.77903 0.78978 1.02312 0.0
C1460 C 0.78343 0.81562 1.01348 0.0
H1461 H 0.79379 0.74988 1.02561 0.0
H1462 H 0.76044 0.78498 0.03428 0.0
C1463 C 0.80807 0.82084 0.99917 0.0
C1464 C 0.5741 0.79247 0.81472 0.0
C1465 C 0.55345 0.78954 0.8342 0.0
H1466 H 0.58668 0.81204 0.77904 0.0
C1467 C 0.53005 0.80618 0.83347 0.0
H1468 H 0.59221 0.77968 0.81465 0.0
C1469 C 0.52694 0.82487 0.81323 0.0
C1470 C 0.54705 0.82718 0.79308 0.0
H1471 H 0.51406 0.80462 0.84852 0.0
H1472 H 0.50865 0.83738 0.81334 0.0
C1473 C 0.5709 0.81104 0.7943 0.0
C1474 C 0.29296 0.52079 0.79897 0.0
C1475 C 0.31671 0.50442 0.79786 0.0
H1476 H 0.25735 0.5364 0.77873 0.0
C1477 C 0.32253 0.49111 0.7739 0.0
H1478 H 0.28776 0.53148 0.81699 0.0
C1479 C 0.30482 0.49394 0.75174 0.0
C1480 C 0.281 0.51027 0.75301 0.0
H1481 H 0.34063 0.4784 0.77231 0.0
H1482 H 0.30976 0.48325 0.73366 0.0
C1483 C 0.27545 0.52372 0.7769 0.0
C1484 C 0.54974 0.27089 0.80448 0.0
C1485 C 0.52721 0.2684 0.82204 0.0
H1486 H 0.57 0.25623 0.76974 0.0
C1487 C 0.50761 0.24806 0.81772 0.0
H1488 H 0.56487 0.28667 0.80686 0.0
C1489 C 0.51052 0.23057 0.7963 0.0
C1490 C 0.53311 0.23308 0.77881 0.0
H1491 H 0.49019 0.24546 0.83107 0.0
H1492 H 0.49534 0.21487 0.7937 0.0
C1493 C 0.55265 0.25344 0.78313 0.0
C1494 C 0.79249 0.56103 0.78007 0.0
C1495 C 0.79511 0.541 0.76063 0.0
H1496 H 0.76741 0.57867 0.81049 0.0
C1497 C 0.77255 0.52363 0.75651 0.0
H1498 H 0.8093 0.57495 0.78369 0.0
C1499 C 0.74841 0.52569 0.77214 0.0
C1500 C 0.7461 0.54541 0.79198 0.0
H1501 H 0.7738 0.50804 0.7417 0.0
H1502 H 0.73172 0.51154 0.76894 0.0
C1503 C 0.76831 0.56331 0.7954 0.0
C1504 C 0.51386 0.24929 0.25907 0.0
C1505 C 0.53541 0.23137 0.26483 0.0
H1506 H 0.50082 0.2831 0.23676 0.0
C1507 C 0.56059 0.23336 0.2509 0.0
H1508 H 0.49438 0.24845 0.26979 0.0
C1509 C 0.56425 0.25308 0.23173 0.0
C1510 C 0.54288 0.27138 0.22626 0.0
H1511 H 0.57738 0.21953 0.25471 0.0
H1512 H 0.58381 0.25388 0.22116 0.0
C1513 C 0.51758 0.26914 0.24007 0.0
C1514 C 0.77055 0.53266 0.28922 0.0
C1515 C 0.79042 0.51551 0.30058 0.0
H1516 H 0.73579 0.53692 0.26276 0.0
C1517 C 0.7892 0.4883 0.29399 0.0
H1518 H 0.77073 0.55369 0.29383 0.0
C1519 C 0.76901 0.47861 0.27618 0.0
C1520 C 0.7495 0.49586 0.26441 0.0
H1521 H 0.80406 0.47445 0.30237 0.0
H1522 H 0.76905 0.45764 0.27129 0.0
C1523 C 0.75041 0.52298 0.27139 0.0
C1524 C 0.4943 0.79649 0.23826 0.0
C1525 C 0.51726 0.79067 0.22198 0.0
H1526 H 0.47979 0.81567 0.27368 0.0
C1527 C 0.54326 0.80181 0.22825 0.0
H1528 H 0.47404 0.78801 0.23409 0.0
C1529 C 0.54653 0.81753 0.25087 0.0
C1530 C 0.52387 0.82249 0.26776 0.0
H1531 H 0.56119 0.79819 0.21577 0.0
H1532 H 0.56689 0.82568 0.25522 0.0
C1533 C 0.49757 0.81229 0.26095 0.0
C1534 C 0.31878 0.56195 0.27896 0.0
C1535 C 0.31226 0.54826 0.25534 0.0
H1536 H 0.30773 0.56981 0.31957 0.0
C1537 C 0.28922 0.5309 0.25536 0.0
H1538 H 0.33636 0.57543 0.2797 0.0
C1539 C 0.27295 0.52753 0.27817 0.0
C1540 C 0.27909 0.54152 0.30168 0.0
H1541 H 0.28356 0.51988 0.23762 0.0
H1542 H 0.25526 0.51419 0.27721 0.0
C1543 C 0.30233 0.55868 0.30183 0.0
C1544 C 0.79426 0.76925 0.51898 0.0
C1545 C 0.788 0.7444 0.50765 0.0
H1546 H 0.78241 0.80986 0.52406 0.0
C1547 C 0.76339 0.74197 0.49243 0.0
H1548 H 0.81296 0.77198 0.53075 0.0
C1549 C 0.74568 0.76389 0.48851 0.0
C1550 C 0.75217 0.7888 0.49966 0.0
H1551 H 0.75788 0.72316 0.48333 0.0
H1552 H 0.72703 0.76135 0.47662 0.0
C1553 C 0.77665 0.79107 0.51504 0.0
C1554 C 0.74939 0.28827 0.53955 0.0
C1555 C 0.74547 0.26964 0.56014 0.0
H1556 H 0.77604 0.3176 0.52195 0.0
C1557 C 0.76598 0.26775 0.58006 0.0
H1558 H 0.7341 0.29034 0.52381 0.0
C1559 C 0.79007 0.28354 0.579 0.0
C1560 C 0.7944 0.30153 0.55791 0.0
H1561 H 0.76373 0.25366 0.59619 0.0
H1562 H 0.80563 0.28114 0.59444 0.0
C1563 C 0.77354 0.30393 0.53841 0.0
C1564 C 0.30841 0.78323 0.52954 0.0
C1565 C 0.33128 0.77982 0.5468 0.0
H1566 H 0.27197 0.76622 0.51184 0.0
C1567 C 0.33565 0.75463 0.55814 0.0
H1568 H 0.30446 0.80226 0.5202 0.0
C1569 C 0.31679 0.73376 0.55327 0.0
C1570 C 0.29323 0.73763 0.5369 0.0
H1571 H 0.35302 0.7513 0.5715 0.0
H1572 H 0.32022 0.71485 0.56302 0.0
C1573 C 0.2897 0.76248 0.52465 0.0
C1574 C 0.28115 0.28943 0.53186 0.0
C1575 C 0.28464 0.31458 0.52023 0.0
H1576 H 0.29622 0.2497 0.53567 0.0
C1577 C 0.30837 0.31907 0.50439 0.0
H1578 H 0.26329 0.28523 0.54427 0.0
C1579 C 0.32746 0.29851 0.49939 0.0
C1580 C 0.32317 0.27303 0.51008 0.0
H1581 H 0.31178 0.33823 0.49514 0.0
H1582 H 0.34498 0.30233 0.48643 0.0
C1583 C 0.30011 0.26898 0.52685 0.0
C1584 C 0.14435 0.38254 0.12667 0.0
C1585 C 0.13642 0.35731 0.13584 0.0
H1586 H 0.16187 0.40536 0.09517 0.0
C1587 C 0.14169 0.33496 0.11981 0.0
H1588 H 0.14084 0.40009 0.13867 0.0
C1589 C 0.15402 0.33795 0.09481 0.0
C1590 C 0.16145 0.36331 0.08546 0.0
H1591 H 0.13559 0.31528 0.12622 0.0
H1592 H 0.15775 0.32041 0.08286 0.0
C1593 C 0.15667 0.38552 0.1018 0.0
C1594 C 0.69248 0.08908 0.11938 0.0
C1595 C 0.70646 0.08811 0.14404 0.0
H1596 H 0.68247 0.11221 0.08472 0.0
C1597 C 0.72241 0.11021 0.15194 0.0
H1598 H 0.6801 0.07236 0.11264 0.0
C1599 C 0.72339 0.13311 0.1361 0.0
C1600 C 0.7089 0.13431 0.11174 0.0
H1601 H 0.7334 0.11015 0.17078 0.0
H1602 H 0.73532 0.15005 0.14301 0.0
C1603 C 0.69393 0.11182 0.10329 0.0
C1604 C 0.94463 0.70284 0.10562 0.0
C1605 C 0.92809 0.69609 0.12756 0.0
H1606 H 0.9467 0.70716 0.06323 0.0
C1607 C 0.90026 0.6886 0.12347 0.0
H1608 H 0.96616 0.70862 0.10844 0.0
C1609 C 0.88939 0.68708 0.09767 0.0
C1610 C 0.90599 0.69375 0.07571 0.0
H1611 H 0.88729 0.68307 0.14017 0.0
H1612 H 0.86803 0.68079 0.09479 0.0
C1613 C 0.93355 0.70205 0.07992 0.0
C1614 C 0.3786 0.94617 0.09563 0.0
C1615 C 0.36225 0.92449 0.10375 0.0
H1616 H 0.39398 0.98513 0.10501 0.0
C1617 C 0.347 0.92675 0.12753 0.0
H1618 H 0.39065 0.94503 0.0775 0.0
C1619 C 0.34869 0.94975 0.14321 0.0
C1620 C 0.36593 0.97102 0.13569 0.0
H1621 H 0.33387 0.91058 0.13417 0.0
H1622 H 0.33706 0.95052 0.16162 0.0
C1623 C 0.38058 0.96909 0.1115 0.0
C1624 C 0.12136 0.69959 0.95308 0.0
C1625 C 0.13869 0.69509 0.93111 0.0
H1626 H 0.11855 0.70246 0.99556 0.0
C1627 C 0.16699 0.68955 0.93527 0.0
H1628 H 0.09949 0.70394 0.9502 0.0
C1629 C 0.17768 0.68799 0.96115 0.0
C1630 C 0.16035 0.69274 0.98308 0.0
H1631 H 0.18058 0.68585 0.91854 0.0
H1632 H 0.1995 0.68348 0.96408 0.0
C1633 C 0.1322 0.6988 0.97885 0.0
C1634 C 0.34901 0.10933 0.9071 0.0
C1635 C 0.36513 0.08739 0.91496 0.0
H1636 H 0.33581 0.14906 0.91592 0.0
C1637 C 0.37933 0.08871 0.93951 0.0
H1638 H 0.33777 0.10905 0.88839 0.0
C1639 C 0.37803 0.11164 0.95544 0.0
C1640 C 0.36285 0.13397 0.947 0.0
H1641 H 0.39187 0.07215 0.94628 0.0
H1642 H 0.38974 0.11226 0.97386 0.0
C1643 C 0.34804 0.13236 0.92282 0.0
C1644 C 0.91402 0.38824 0.95389 0.0
C1645 C 0.91019 0.36574 0.97004 0.0
H1646 H 0.92943 0.40376 0.91725 0.0
C1647 C 0.91901 0.34082 0.96059 0.0
H1648 H 0.90776 0.40777 0.9606 0.0
C1649 C 0.93168 0.33857 0.93565 0.0
C1650 C 0.93593 0.36123 0.9198 0.0
H1651 H 0.91608 0.32308 0.97242 0.0
H1652 H 0.93882 0.31924 0.92914 0.0
C1653 C 0.92669 0.386 0.9291 0.0
C1654 C 0.73205 0.9457 0.95636 0.0
C1655 C 0.71108 0.92729 0.94964 0.0
H1656 H 0.75354 0.98166 0.94586 0.0
C1657 C 0.6949 0.93216 0.92676 0.0
H1658 H 0.74503 0.94253 0.9737 0.0
C1659 C 0.69979 0.95444 0.9108 0.0
C1660 C 0.72106 0.97261 0.91717 0.0
H1661 H 0.67824 0.91877 0.92116 0.0
H1662 H 0.68689 0.9573 0.89333 0.0
C1663 C 0.73704 0.96805 0.94027 0.0
C1664 C 0.11207 0.10943 0.40256 0.0
C1665 C 0.12435 0.10406 0.37763 0.0
H1666 H 0.08301 0.13314 0.4248 0.0
C1667 C 0.1156 0.11894 0.35556 0.0
H1668 H 0.11835 0.09844 0.42009 0.0
C1669 C 0.09534 0.13874 0.35832 0.0
C1670 C 0.0833 0.14441 0.38327 0.0
H1671 H 0.12456 0.11547 0.33612 0.0
H1672 H 0.08931 0.14981 0.34076 0.0
C1673 C 0.09186 0.12942 0.40536 0.0
C1674 C 0.96435 0.11001 0.36246 0.0
C1675 C 0.95022 0.13441 0.36407 0.0
H1676 H 0.96088 0.06745 0.36231 0.0
C1677 C 0.92104 0.13448 0.36519 0.0
H1678 H 0.98685 0.10952 0.36142 0.0
C1679 C 0.90633 0.11056 0.36603 0.0
C1680 C 0.92049 0.08617 0.36531 0.0
H1681 H 0.90967 0.15299 0.36664 0.0
H1682 H 0.88388 0.11109 0.3677 0.0
C1683 C 0.94957 0.08605 0.36281 0.0
C1684 C 0.9749 0.94151 0.39348 0.0
C1685 C 0.96012 0.94527 0.36947 0.0
H1686 H 1.00475 0.91802 0.41506 0.0
C1687 C 0.96507 0.92776 0.34829 0.0
H1688 H 0.97147 0.95453 0.41033 0.0
C1689 C 0.98417 0.90696 0.35104 0.0
C1690 C 0.99864 0.9029 0.37513 0.0
H1691 H 0.95403 0.92996 0.3296 0.0
H1692 H 0.98732 0.89384 0.33422 0.0
C1693 C 0.99384 0.92046 0.39633 0.0
C1694 C 0.17333 0.93483 0.35314 0.0
C1695 C 0.15979 0.95932 0.35667 0.0
H1696 H 0.16927 0.89261 0.35033 0.0
C1697 C 0.13062 0.95993 0.35757 0.0
H1698 H 0.1958 0.93389 0.35199 0.0
C1699 C 0.11537 0.93623 0.35665 0.0
C1700 C 0.12905 0.91159 0.35447 0.0
H1701 H 0.11974 0.97857 0.3603 0.0
H1702 H 0.09293 0.93709 0.35829 0.0
C1703 C 0.15812 0.91122 0.35192 0.0
C1704 C 0.09372 0.90731 0.69619 0.0
C1705 C 0.08141 0.90104 0.67143 0.0
H1706 H 0.12342 0.93093 0.71769 0.0
C1707 C 0.09008 0.91523 0.64889 0.0
H1708 H 0.08765 0.89684 0.71408 0.0
C1709 C 0.11057 0.93509 0.6511 0.0
C1710 C 0.12306 0.94111 0.67586 0.0
H1711 H 0.08103 0.91104 0.62957 0.0
H1712 H 0.11686 0.94551 0.63325 0.0
C1713 C 0.1143 0.92695 0.69836 0.0
C1714 C 0.12689 0.08425 0.68718 0.0
C1715 C 0.15584 0.0851 0.69064 0.0
H1716 H 0.08906 0.10679 0.685 0.0
C1717 C 0.16881 0.10942 0.69667 0.0
H1718 H 0.11657 0.06568 0.68242 0.0
C1719 C 0.15316 0.13269 0.69856 0.0
C1720 C 0.12439 0.1321 0.69386 0.0
H1721 H 0.19113 0.1104 0.69957 0.0
H1722 H 0.16367 0.15132 0.70263 0.0
C1723 C 0.1113 0.10766 0.68847 0.0
C1724 C 0.96782 0.14811 0.65956 0.0
C1725 C 0.99136 0.14324 0.67534 0.0
H1726 H 0.92505 0.13872 0.65193 0.0
C1727 C 0.99011 0.12295 0.69463 0.0
H1728 H 0.96803 0.16376 0.64477 0.0
C1729 C 0.96557 0.10841 0.69866 0.0
C1730 C 0.94154 0.11427 0.68388 0.0
H1731 H 1.00797 0.11876 0.70714 0.0
H1732 H 0.96512 0.09331 0.714 0.0
C1733 C 0.94311 0.13394 0.66395 0.0
C1734 C 0.92131 0.90928 0.70506 0.0
C1735 C 0.94826 0.91042 0.69437 0.0
H1736 H 0.88438 0.93046 0.71517 0.0
C1737 C 0.95894 0.93526 0.68645 0.0
H1738 H 0.91228 0.89058 0.71123 0.0
C1739 C 0.94268 0.95825 0.68844 0.0
C1740 C 0.91539 0.95684 0.6983 0.0
H1741 H 0.97979 0.93694 0.67854 0.0
H1742 H 0.95115 0.97694 0.68151 0.0
C1743 C 0.90513 0.93218 0.70703 0.0
C1744 C 0.34071 0.10308 0.11246 0.0
C1745 C 0.36151 0.10937 0.13124 0.0
H1746 H 0.31995 0.11399 0.07616 0.0
C1747 C 0.37799 0.13211 0.12674 0.0
H1748 H 0.32748 0.08589 0.11528 0.0
C1749 C 0.37362 0.14825 0.10445 0.0
C1750 C 0.35262 0.14222 0.08584 0.0
H1751 H 0.39454 0.13744 0.14038 0.0
H1752 H 0.38679 0.16555 0.10185 0.0
C1753 C 0.33628 0.11933 0.09008 0.0
C1754 C 0.3393 0.95546 0.9387 0.0
C1755 C 0.36018 0.94926 0.92012 0.0
H1756 H 0.31845 0.94446 0.97479 0.0
C1757 C 0.37681 0.92669 0.92481 0.0
H1758 H 0.32598 0.97254 0.93571 0.0
C1759 C 0.37245 0.91056 0.94709 0.0
C1760 C 0.35131 0.91646 0.96545 0.0
H1761 H 0.39342 0.92146 0.91131 0.0
H1762 H 0.38568 0.89335 0.94983 0.0
C1763 C 0.33488 0.93923 0.96106 0.0
C1764 C 0.07151 0.35383 0.92912 0.0
C1765 C 0.07122 0.36893 0.90551 0.0
H1766 H 0.09625 0.33464 0.95917 0.0
C1767 C 0.09666 0.37688 0.89445 0.0
H1768 H 0.05218 0.34725 0.938 0.0
C1769 C 0.12184 0.36891 0.90611 0.0
C1770 C 0.12216 0.35327 0.92937 0.0
H1771 H 0.09714 0.38815 0.8761 0.0
H1772 H 0.14113 0.37497 0.89678 0.0
C1773 C 0.09671 0.34641 0.94114 0.0
C1774 C 0.7206 0.14932 0.9515 0.0
C1775 C 0.70371 0.14116 0.97277 0.0
H1776 H 0.73508 0.14108 0.91206 0.0
C1777 C 0.6896 0.11666 0.97069 0.0
H1778 H 0.73177 0.16802 0.95239 0.0
C1779 C 0.6918 0.10103 0.94763 0.0
C1780 C 0.70772 0.10981 0.92596 0.0
H1781 H 0.6765 0.10971 0.98676 0.0
H1782 H 0.68021 0.0826 0.94633 0.0
C1783 C 0.72238 0.13395 0.92832 0.0
C1784 C 0.99846 0.71734 0.91757 0.0
C1785 C 1.00699 0.69213 0.90829 0.0
H1786 H 0.96831 0.73993 0.93943 0.0
C1787 C 0.99125 0.66979 0.91551 0.0
H1788 H 1.01006 0.73508 0.91246 0.0
C1789 C 0.96734 0.67264 0.93118 0.0
C1790 C 0.95844 0.69793 0.93989 0.0
H1791 H 0.99718 0.65013 0.90878 0.0
H1792 H 0.95552 0.65496 0.93603 0.0
C1793 C 0.97446 0.72021 0.93308 0.0
C1794 C 0.69583 0.96077 0.11299 0.0
C1795 C 0.70953 0.95063 0.13554 0.0
H1796 H 0.68216 0.95359 0.07296 0.0
C1797 C 0.7217 0.92524 0.13395 0.0
H1798 H 0.68613 0.98017 0.11365 0.0
C1799 C 0.71971 0.9101 0.11061 0.0
C1800 C 0.70513 0.9198 0.08837 0.0
H1801 H 0.73267 0.917 0.15087 0.0
H1802 H 0.72898 0.89049 0.11026 0.0
C1803 C 0.69345 0.94544 0.08975 0.0
C1804 C 0.07556 0.66902 0.1398 0.0
C1805 C 0.06034 0.69076 0.1494 0.0
H1806 H 0.11056 0.65578 0.11721 0.0
C1807 C 0.06887 0.71661 0.14207 0.0
H1808 H 0.06962 0.6489 0.14496 0.0
C1809 C 0.09243 0.72066 0.12618 0.0
C1810 C 0.10806 0.69895 0.11713 0.0
H1811 H 0.05762 0.73392 0.149 0.0
H1812 H 0.09866 0.7408 0.12143 0.0
C1813 C 0.09909 0.67307 0.12385 0.0
C1814 C 1.00033 0.35018 0.12685 0.0
C1815 C 1.00119 0.36492 0.1507 0.0
H1816 H 0.97487 0.33272 0.09623 0.0
C1817 C 0.97613 0.37407 0.16159 0.0
H1818 H 1.01937 0.34274 0.11807 0.0
C1819 C 0.95068 0.3676 0.14954 0.0
C1820 C 0.94976 0.35232 0.12603 0.0
H1821 H 0.97608 0.38514 0.18008 0.0
H1822 H 0.93167 0.37454 0.15874 0.0
C1823 C 0.9749 0.34426 0.11443 0.0
C1824 C 0.66082 0.88663 0.59947 0.0
C1825 C 0.6642 0.86387 0.58355 0.0
H1826 H 0.64623 0.90276 0.63618 0.0
C1827 C 0.65545 0.83913 0.59353 0.0
H1828 H 0.66705 0.90603 0.59238 0.0
C1829 C 0.64328 0.8373 0.61875 0.0
C1830 C 0.63946 0.86021 0.63436 0.0
H1831 H 0.65805 0.8212 0.58189 0.0
H1832 H 0.63621 0.81809 0.62569 0.0
C1833 C 0.64863 0.8848 0.62453 0.0
C1834 C 0.22627 0.6053 0.6466 0.0
C1835 C 0.20749 0.58491 0.63991 0.0
H1836 H 0.24324 0.64332 0.6364 0.0
C1837 C 0.19213 0.5872 0.61609 0.0
H1838 H 0.2385 0.60422 0.6647 0.0
C1839 C 0.19499 0.60964 0.59973 0.0
C1840 C 0.21297 0.63048 0.60699 0.0
H1841 H 0.17755 0.57182 0.61024 0.0
H1842 H 0.1824 0.61111 0.5819 0.0
C1843 C 0.22886 0.62783 0.63043 0.0
C1844 C 0.40863 0.20986 0.58981 0.0
C1845 C 0.40606 0.18553 0.57621 0.0
H1846 H 0.42417 0.23036 0.62397 0.0
C1847 C 0.41616 0.16234 0.58846 0.0
H1848 H 0.40065 0.22805 0.58126 0.0
C1849 C 0.42931 0.1636 0.61327 0.0
C1850 C 0.43277 0.18808 0.62644 0.0
H1851 H 0.41466 0.14326 0.57861 0.0
H1852 H 0.43698 0.14536 0.62199 0.0
C1853 C 0.42185 0.21113 0.61457 0.0
C1854 C 0.87987 0.42638 0.6326 0.0
C1855 C 0.86425 0.4208 0.6095 0.0
H1856 H 0.88596 0.45162 0.6664 0.0
C1857 C 0.84115 0.43703 0.60374 0.0
H1858 H 0.89746 0.41412 0.63804 0.0
C1859 C 0.83439 0.45867 0.62024 0.0
C1860 C 0.85054 0.46459 0.64293 0.0
H1861 H 0.82874 0.43352 0.58608 0.0
H1862 H 0.81678 0.47102 0.61493 0.0
C1863 C 0.87316 0.44793 0.649 0.0
C1864 C 0.63266 0.22061 0.43664 0.0
C1865 C 0.63313 0.1996 0.41818 0.0
H1866 H 0.64669 0.23498 0.47463 0.0
C1867 C 0.64883 0.17682 0.42392 0.0
H1868 H 0.62043 0.23825 0.43279 0.0
C1869 C 0.66384 0.17502 0.44763 0.0
C1870 C 0.66313 0.19581 0.46629 0.0
H1871 H 0.64955 0.16042 0.40998 0.0
H1872 H 0.67566 0.15714 0.45159 0.0
C1873 C 0.64736 0.21862 0.46064 0.0
C1874 C 0.84829 0.59938 0.40487 0.0
C1875 C 0.86353 0.57744 0.41421 0.0
H1876 H 0.83521 0.63952 0.41198 0.0
C1877 C 0.87603 0.57914 0.43956 0.0
H1878 H 0.8384 0.5988 0.38549 0.0
C1879 C 0.87397 0.6024 0.45487 0.0
C1880 C 0.85975 0.62473 0.44503 0.0
H1881 H 0.88785 0.56258 0.44745 0.0
H1882 H 0.88442 0.60327 0.47396 0.0
C1883 C 0.84661 0.62279 0.42 0.0
C1884 C 0.39414 0.87195 0.45786 0.0
C1885 C 0.41138 0.86979 0.48035 0.0
H1886 H 0.39203 0.8722 0.41512 0.0
C1887 C 0.4402 0.86699 0.47702 0.0
H1888 H 0.37184 0.87394 0.46013 0.0
C1889 C 0.4517 0.8667 0.45155 0.0
C1890 C 0.43445 0.86838 0.42904 0.0
H1891 H 0.45375 0.86532 0.49419 0.0
H1892 H 0.47401 0.86466 0.44932 0.0
C1893 C 0.40558 0.87082 0.43232 0.0
C1894 C 0.22283 0.4455 0.41045 0.0
C1895 C 0.206 0.46724 0.41739 0.0
H1896 H 0.23657 0.40623 0.42039 0.0
C1897 C 0.19102 0.46611 0.44143 0.0
H1898 H 0.23468 0.44567 0.39216 0.0
C1899 C 0.19225 0.4435 0.45774 0.0
C1900 C 0.20817 0.42135 0.45021 0.0
H1901 H 0.17793 0.48254 0.44748 0.0
H1902 H 0.17995 0.44298 0.47574 0.0
C1903 C 0.22376 0.4228 0.42657 0.0
C1904 C 0.60832 0.61308 0.90121 0.0
C1905 C 0.62168 0.60687 0.877 0.0
H1906 H 0.57865 0.6378 0.92155 0.0
C1907 C 0.6142 0.62124 0.85418 0.0
H1908 H 0.61363 0.60251 0.91929 0.0
C1909 C 0.59413 0.64136 0.85553 0.0
C1910 C 0.58105 0.6479 0.87978 0.0
H1911 H 0.62402 0.61712 0.83525 0.0
H1912 H 0.5891 0.65202 0.83744 0.0
C1913 C 0.58833 0.63341 0.90262 0.0
C1914 C 0.46497 0.61354 0.85847 0.0
C1915 C 0.45193 0.63819 0.85427 0.0
H1916 H 0.45949 0.57144 0.86338 0.0
C1917 C 0.42309 0.639 0.84993 0.0
H1918 H 0.48723 0.61251 0.86169 0.0
C1919 C 0.40733 0.61572 0.8513 0.0
C1920 C 0.42022 0.59121 0.85645 0.0
H1921 H 0.4126 0.65778 0.84682 0.0
H1922 H 0.38495 0.61688 0.849 0.0
C1923 C 0.44924 0.59014 0.85924 0.0
C1924 C 0.44368 0.41193 0.88751 0.0
C1925 C 0.44295 0.43296 0.86897 0.0
H1926 H 0.46796 0.3812 0.90602 0.0
C1927 C 0.46768 0.44019 0.85609 0.0
H1928 H 0.42504 0.40607 0.89809 0.0
C1929 C 0.49219 0.42578 0.86057 0.0
C1930 C 0.49267 0.40421 0.87845 0.0
H1931 H 0.46788 0.45637 0.84188 0.0
H1932 H 0.51068 0.43112 0.84949 0.0
C1933 C 0.46832 0.39786 0.89238 0.0
C1934 C 0.62874 0.43355 0.84495 0.0
C1935 C 0.62727 0.41562 0.86634 0.0
H1936 H 0.64466 0.47077 0.8307 0.0
C1937 C 0.64111 0.4218 0.89017 0.0
H1938 H 0.61796 0.4294 0.82646 0.0
C1939 C 0.65632 0.44531 0.89256 0.0
C1940 C 0.65772 0.46332 0.87127 0.0
H1941 H 0.64035 0.40827 0.9069 0.0
H1942 H 0.66682 0.44955 0.91117 0.0
C1943 C 0.64367 0.45732 0.84747 0.0
C1944 C 0.60483 0.40348 0.16394 0.0
C1945 C 0.57964 0.41152 0.17542 0.0
H1946 H 0.64881 0.40983 0.16131 0.0
C1947 C 0.57961 0.434 0.19219 0.0
H1948 H 0.60561 0.38606 0.15127 0.0
C1949 C 0.60431 0.44779 0.19788 0.0
C1950 C 0.62973 0.43899 0.18743 0.0
H1951 H 0.56048 0.4406 0.20145 0.0
H1952 H 0.60362 0.4648 0.21109 0.0
C1953 C 0.62962 0.41692 0.17007 0.0
C1954 C 0.64855 0.6137 0.16192 0.0
C1955 C 0.65054 0.59575 0.18324 0.0
H1956 H 0.63142 0.65 0.14725 0.0
C1957 C 0.63609 0.60134 0.20687 0.0
H1958 H 0.65917 0.60989 0.14335 0.0
C1959 C 0.61995 0.62438 0.20904 0.0
C1960 C 0.61782 0.64216 0.18755 0.0
H1961 H 0.63745 0.58806 0.22374 0.0
H1962 H 0.60872 0.62798 0.22732 0.0
C1963 C 0.63242 0.6366 0.16406 0.0
C1964 C 0.46921 0.64827 0.19579 0.0
C1965 C 0.4825 0.65409 0.17148 0.0
H1966 H 0.43987 0.62401 0.21672 0.0
C1967 C 0.47602 0.63842 0.14917 0.0
H1968 H 0.47363 0.65983 0.2135 0.0
C1969 C 0.45664 0.61756 0.15117 0.0
C1970 C 0.44318 0.61198 0.17548 0.0
H1971 H 0.48592 0.64222 0.13022 0.0
H1972 H 0.45194 0.60603 0.13352 0.0
C1973 C 0.44982 0.62759 0.19775 0.0
C1974 C 0.43084 0.42792 0.16184 0.0
C1975 C 0.44324 0.42112 0.1862 0.0
H1976 H 0.40597 0.45587 0.14041 0.0
C1977 C 0.43971 0.43802 0.20822 0.0
H1978 H 0.43311 0.41518 0.14461 0.0
C1979 C 0.42425 0.46145 0.20578 0.0
C1980 C 0.41176 0.46813 0.1814 0.0
H1981 H 0.44933 0.43337 0.22715 0.0
H1982 H 0.4217 0.47411 0.22303 0.0
C1983 C 0.41518 0.4511 0.15949 0.0
C1984 C 0.8774 0.59488 0.60847 0.0
C1985 C 0.86162 0.60379 0.6302 0.0
H1986 H 0.89269 0.60336 0.5693 0.0
C1987 C 0.84722 0.62805 0.6278 0.0
H1988 H 0.88883 0.57638 0.60976 0.0
C1989 C 0.84912 0.64339 0.60461 0.0
C1990 C 0.86588 0.6351 0.58329 0.0
H1991 H 0.83464 0.63533 0.64409 0.0
H1992 H 0.83813 0.66216 0.60373 0.0
C1993 C 0.87972 0.61046 0.58539 0.0
C1994 C 0.85709 0.45165 0.44814 0.0
C1995 C 0.8662 0.43971 0.42438 0.0
H1996 H 0.84641 0.44646 0.48917 0.0
C1997 C 0.87083 0.412 0.42441 0.0
H1998 H 0.85348 0.47285 0.44917 0.0
C1999 C 0.86706 0.39686 0.44751 0.0
C2000 C 0.85829 0.40889 0.47127 0.0
H2001 H 0.87731 0.40176 0.40656 0.0
H2002 H 0.87107 0.37569 0.44672 0.0
C2003 C 0.85313 0.43645 0.47122 0.0
C2004 C 0.59341 0.87834 0.39605 0.0
C2005 C 0.56837 0.87002 0.40767 0.0
H2006 H 0.63794 0.87656 0.39696 0.0
C2007 C 0.56952 0.85453 0.431 0.0
H2008 H 0.59325 0.88994 0.3779 0.0
C2009 C 0.59515 0.847 0.44212 0.0
C2010 C 0.62018 0.85416 0.4297 0.0
H2011 H 0.55052 0.84768 0.44033 0.0
H2012 H 0.59534 0.83486 0.45991 0.0
C2013 C 0.619 0.87027 0.40678 0.0
C2014 C 0.20091 0.64269 0.44922 0.0
C2015 C 0.22218 0.6365 0.46747 0.0
H2016 H 0.17953 0.6322 0.41339 0.0
C2017 C 0.23838 0.61364 0.46283 0.0
H2018 H 0.18786 0.65999 0.45215 0.0
C2019 C 0.23361 0.59761 0.44035 0.0
C2020 C 0.21261 0.6041 0.42189 0.0
H2021 H 0.25491 0.6082 0.47646 0.0
H2022 H 0.24677 0.58046 0.43717 0.0
C2023 C 0.19622 0.62676 0.42681 0.0
C2024 C 0.48351 0.16603 0.41245 0.0
C2025 C 0.49775 0.18849 0.40313 0.0
H2026 H 0.44997 0.15116 0.43609 0.0
C2027 C 0.48934 0.21381 0.41215 0.0
H2028 H 0.48944 0.14629 0.40599 0.0
C2029 C 0.46673 0.21669 0.4294 0.0
C2030 C 0.45193 0.19431 0.43808 0.0
H2031 H 0.49994 0.23162 0.40553 0.0
H2032 H 0.46051 0.23648 0.43543 0.0
C2033 C 0.46085 0.16891 0.42972 0.0
C2034 C 0.19193 0.42553 0.63056 0.0
C2035 C 0.20908 0.44775 0.63529 0.0
H2036 H 0.18211 0.39256 0.60531 0.0
C2037 C 0.22991 0.45377 0.6166 0.0
H2038 H 0.17536 0.42049 0.6442 0.0
C2039 C 0.23379 0.43764 0.59407 0.0
C2040 C 0.21682 0.41521 0.58962 0.0
H2041 H 0.24362 0.47059 0.61965 0.0
H2042 H 0.25023 0.44267 0.58026 0.0
C2043 C 0.19571 0.40953 0.60809 0.0
C2044 C 0.59991 0.20223 0.6092 0.0
C2045 C 0.62426 0.1915 0.62033 0.0
H2046 H 0.55554 0.20596 0.61202 0.0
C2047 C 0.62175 0.17384 0.64197 0.0
H2048 H 0.60108 0.21567 0.59242 0.0
C2049 C 0.59565 0.16768 0.65275 0.0
C2050 C 0.57144 0.17942 0.64245 0.0
H2051 H 0.64005 0.16485 0.65079 0.0
H2052 H 0.59459 0.15472 0.66991 0.0
C2053 C 0.57384 0.1965 0.62035 0.0
C2054 C 0.49853 0.84158 0.6425 0.0
C2055 C 0.50683 0.86703 0.65137 0.0
H2056 H 0.46978 0.81854 0.61924 0.0
C2057 C 0.49242 0.88931 0.64181 0.0
H2058 H 0.5092 0.8239 0.64933 0.0
C2059 C 0.46981 0.88615 0.62438 0.0
C2060 C 0.46103 0.86063 0.61614 0.0
H2061 H 0.49827 0.90914 0.64813 0.0
H2062 H 0.45886 0.90377 0.61781 0.0
C2063 C 0.47592 0.83843 0.62515 0.0
loop_
_geom_bond_atom_site_label_1
_geom_bond_atom_site_label_2
_geom_bond_distance
_geom_bond_site_symmetry_2
_ccdc_geom_bond_type
Cu0 N1 1.999 . S
Cu0 O6 1.974 1_455 S
Cu0 N11 1.985 . S
Cu0 O20 1.959 . S
N1 Cu0 1.999 . S
N1 C3 1.263 . S
N1 C5 1.389 . S
N2 C3 1.358 . S
N2 C4 1.400 . S
C3 N1 1.263 . S
C3 N2 1.358 . S
C3 H9 0.930 . S
C4 N2 1.400 . S
C4 C5 1.351 . S
C4 H21 0.930 . S
C5 N1 1.389 . S
C5 C4 1.351 . S
C5 H10 0.930 . S
O6 Cu0 1.974 1_655 S
O6 C16 1.282 . S
C7 O8 1.261 . S
C7 O20 1.251 . S
O8 C7 1.261 . S
H9 C3 0.930 . S
H10 C5 0.930 . S
N11 Cu0 1.985 . S
N11 C13 1.335 . S
N11 C14 1.390 1_455 S
N12 C13 1.345 1_655 S
N12 C15 1.336 . S
C13 N11 1.335 . S
C13 N12 1.345 1_455 S
C13 H18 0.930 . S
C14 N11 1.390 1_655 S
C14 C15 1.346 . S
C14 H19 0.930 . S
C15 N12 1.336 . S
C15 C14 1.346 . S
C15 H22 0.929 . S
C16 O6 1.282 . S
C16 O17 1.216 . S
O17 C16 1.216 . S
H18 C13 0.930 . S
H19 C14 0.930 . S
O20 Cu0 1.959 . S
O20 C7 1.251 . S
H21 C4 0.930 . S
H22 C15 0.929 . S
Cu23 N24 1.999 1_545 S
Cu23 O29 1.974 . S
Cu23 N34 1.985 . S
Cu23 O43 1.959 1_545 S
N24 Cu23 1.999 1_565 S
N24 C26 1.263 . S
N24 C28 1.389 . S
N25 C26 1.358 . S
N25 C27 1.400 . S
C26 N24 1.263 . S
C26 N25 1.358 . S
C26 H32 0.930 1_565 S
C27 N25 1.400 . S
C27 C28 1.351 . S
C27 H44 0.930 . S
C28 N24 1.389 . S
C28 C27 1.351 . S
C28 H33 0.930 . S
O29 Cu23 1.974 . S
O29 C39 1.282 . S
C30 O31 1.261 . S
C30 O43 1.251 1_545 S
O31 C30 1.261 . S
H32 C26 0.930 1_545 S
H33 C28 0.930 . S
N34 Cu23 1.985 . S
N34 C36 1.335 . S
N34 C37 1.390 . S
N35 C36 1.345 . S
N35 C38 1.336 . S
C36 N34 1.335 . S
C36 N35 1.345 . S
C36 H41 0.930 . S
C37 N34 1.390 . S
C37 C38 1.346 . S
C37 H42 0.930 . S
C38 N35 1.336 . S
C38 C37 1.346 . S
C38 H45 0.929 . S
C39 O29 1.282 . S
C39 O40 1.216 . S
O40 C39 1.216 . S
H41 C36 0.930 . S
H42 C37 0.930 . S
O43 Cu23 1.959 1_565 S
O43 C30 1.251 1_565 S
H44 C27 0.930 . S
H45 C38 0.929 . S
Cu46 N47 1.999 . S
Cu46 O52 1.974 1_655 S
Cu46 N57 1.985 . S
Cu46 O66 1.959 . S
N47 Cu46 1.999 . S
N47 C49 1.263 . S
N47 C51 1.389 . S
N48 C49 1.358 . S
N48 C50 1.400 . S
C49 N47 1.263 . S
C49 N48 1.358 . S
C49 H55 0.930 . S
C50 N48 1.400 . S
C50 C51 1.351 . S
C50 H67 0.930 . S
C51 N47 1.389 . S
C51 C50 1.351 . S
C51 H56 0.930 . S
O52 Cu46 1.974 1_455 S
O52 C62 1.282 . S
C53 O54 1.261 . S
C53 O66 1.251 . S
O54 C53 1.261 . S
H55 C49 0.930 . S
H56 C51 0.930 . S
N57 Cu46 1.985 . S
N57 C59 1.335 . S
N57 C60 1.390 1_655 S
N58 C59 1.345 1_455 S
N58 C61 1.336 . S
C59 N57 1.335 . S
C59 N58 1.345 1_655 S
C59 H64 0.930 . S
C60 N57 1.390 1_455 S
C60 C61 1.346 . S
C60 H65 0.930 . S
C61 N58 1.336 . S
C61 C60 1.346 . S
C61 H68 0.929 . S
C62 O52 1.282 . S
C62 O63 1.216 . S
O63 C62 1.216 . S
H64 C59 0.930 . S
H65 C60 0.930 . S
O66 Cu46 1.959 . S
O66 C53 1.251 . S
H67 C50 0.930 . S
H68 C61 0.929 . S
Cu69 N70 1.999 1_565 S
Cu69 O75 1.974 . S
Cu69 N80 1.985 . S
Cu69 O89 1.959 1_565 S
N70 Cu69 1.999 1_545 S
N70 C72 1.263 . S
N70 C74 1.389 . S
N71 C72 1.358 . S
N71 C73 1.400 . S
C72 N70 1.263 . S
C72 N71 1.358 . S
C72 H78 0.930 1_545 S
C73 N71 1.400 . S
C73 C74 1.351 . S
C73 H90 0.930 . S
C74 N70 1.389 . S
C74 C73 1.351 . S
C74 H79 0.930 . S
O75 Cu69 1.974 . S
O75 C85 1.282 . S
C76 O77 1.261 . S
C76 O89 1.251 1_565 S
O77 C76 1.261 . S
H78 C72 0.930 1_565 S
H79 C74 0.930 . S
N80 Cu69 1.985 . S
N80 C82 1.335 . S
N80 C83 1.390 . S
N81 C82 1.345 . S
N81 C84 1.336 . S
C82 N80 1.335 . S
C82 N81 1.345 . S
C82 H87 0.930 . S
C83 N80 1.390 . S
C83 C84 1.346 . S
C83 H88 0.930 . S
C84 N81 1.336 . S
C84 C83 1.346 . S
C84 H91 0.929 . S
C85 O75 1.282 . S
C85 O86 1.216 . S
O86 C85 1.216 . S
H87 C82 0.930 . S
H88 C83 0.930 . S
O89 Cu69 1.959 1_545 S
O89 C76 1.251 1_545 S
H90 C73 0.930 . S
H91 C84 0.929 . S
Cu92 N93 1.999 . S
Cu92 O98 1.974 1_455 S
Cu92 N103 1.985 . S
Cu92 O112 1.959 . S
N93 Cu92 1.999 . S
N93 C95 1.263 . S
N93 C97 1.389 . S
N94 C95 1.358 . S
N94 C96 1.400 . S
C95 N93 1.263 . S
C95 N94 1.358 . S
C95 H101 0.930 . S
C96 N94 1.400 . S
C96 C97 1.351 . S
C96 H113 0.930 . S
C97 N93 1.389 . S
C97 C96 1.351 . S
C97 H102 0.930 . S
O98 Cu92 1.974 1_655 S
O98 C108 1.282 . S
C99 O100 1.261 . S
C99 O112 1.251 . S
O100 C99 1.261 . S
H101 C95 0.930 . S
H102 C97 0.930 . S
N103 Cu92 1.985 . S
N103 C105 1.335 . S
N103 C106 1.390 1_455 S
N104 C105 1.345 1_655 S
N104 C107 1.336 . S
C105 N103 1.335 . S
C105 N104 1.345 1_455 S
C105 H110 0.930 . S
C106 N103 1.390 1_655 S
C106 C107 1.346 . S
C106 H111 0.930 . S
C107 N104 1.336 . S
C107 C106 1.346 . S
C107 H114 0.929 . S
C108 O98 1.282 . S
C108 O109 1.216 . S
O109 C108 1.216 . S
H110 C105 0.930 . S
H111 C106 0.930 . S
O112 Cu92 1.959 . S
O112 C99 1.251 . S
H113 C96 0.930 . S
H114 C107 0.929 . S
Cu115 N116 1.999 1_545 S
Cu115 O121 1.974 . S
Cu115 N126 1.985 . S
Cu115 O135 1.959 1_545 S
N116 Cu115 1.999 1_565 S
N116 C118 1.263 . S
N116 C120 1.389 . S
N117 C118 1.358 . S
N117 C119 1.400 . S
C118 N116 1.263 . S
C118 N117 1.358 . S
C118 H124 0.930 1_565 S
C119 N117 1.400 . S
C119 C120 1.351 . S
C119 H136 0.930 . S
C120 N116 1.389 . S
C120 C119 1.351 . S
C120 H125 0.930 . S
O121 Cu115 1.974 . S
O121 C131 1.282 . S
C122 O123 1.261 . S
C122 O135 1.251 1_545 S
O123 C122 1.261 . S
H124 C118 0.930 1_545 S
H125 C120 0.930 . S
N126 Cu115 1.985 . S
N126 C128 1.335 . S
N126 C129 1.390 . S
N127 C128 1.345 . S
N127 C130 1.336 . S
C128 N126 1.335 . S
C128 N127 1.345 . S
C128 H133 0.930 . S
C129 N126 1.390 . S
C129 C130 1.346 . S
C129 H134 0.930 . S
C130 N127 1.336 . S
C130 C129 1.346 . S
C130 H137 0.929 . S
C131 O121 1.282 . S
C131 O132 1.216 . S
O132 C131 1.216 . S
H133 C128 0.930 . S
H134 C129 0.930 . S
O135 Cu115 1.959 1_565 S
O135 C122 1.251 1_565 S
H136 C119 0.930 . S
H137 C130 0.929 . S
Cu138 N139 1.999 . S
Cu138 O144 1.974 1_655 S
Cu138 N149 1.985 . S
Cu138 O158 1.959 . S
N139 Cu138 1.999 . S
N139 C141 1.263 . S
N139 C143 1.389 . S
N140 C141 1.358 . S
N140 C142 1.400 . S
C141 N139 1.263 . S
C141 N140 1.358 . S
C141 H147 0.930 . S
C142 N140 1.400 . S
C142 C143 1.351 . S
C142 H159 0.930 . S
C143 N139 1.389 . S
C143 C142 1.351 . S
C143 H148 0.930 . S
O144 Cu138 1.974 1_455 S
O144 C154 1.282 . S
C145 O146 1.261 . S
C145 O158 1.251 . S
O146 C145 1.261 . S
H147 C141 0.930 . S
H148 C143 0.930 . S
N149 Cu138 1.985 . S
N149 C151 1.335 . S
N149 C152 1.390 1_655 S
N150 C151 1.345 1_455 S
N150 C153 1.336 . S
C151 N149 1.335 . S
C151 N150 1.345 1_655 S
C151 H156 0.930 . S
C152 N149 1.390 1_455 S
C152 C153 1.346 . S
C152 H157 0.930 . S
C153 N150 1.336 . S
C153 C152 1.346 . S
C153 H160 0.929 . S
C154 O144 1.282 . S
C154 O155 1.216 . S
O155 C154 1.216 . S
H156 C151 0.930 . S
H157 C152 0.930 . S
O158 Cu138 1.959 . S
O158 C145 1.251 . S
H159 C142 0.930 . S
H160 C153 0.929 . S
Cu161 N162 1.999 1_565 S
Cu161 O167 1.974 . S
Cu161 N172 1.985 . S
Cu161 O181 1.959 1_565 S
N162 Cu161 1.999 1_545 S
N162 C164 1.263 . S
N162 C166 1.389 . S
N163 C164 1.358 . S
N163 C165 1.400 . S
C164 N162 1.263 . S
C164 N163 1.358 . S
C164 H170 0.930 1_545 S
C165 N163 1.400 . S
C165 C166 1.351 . S
C165 H182 0.930 . S
C166 N162 1.389 . S
C166 C165 1.351 . S
C166 H171 0.930 . S
O167 Cu161 1.974 . S
O167 C177 1.282 . S
C168 O169 1.261 . S
C168 O181 1.251 1_565 S
O169 C168 1.261 . S
H170 C164 0.930 1_565 S
H171 C166 0.930 . S
N172 Cu161 1.985 . S
N172 C174 1.335 . S
N172 C175 1.390 . S
N173 C174 1.345 . S
N173 C176 1.336 . S
C174 N172 1.335 . S
C174 N173 1.345 . S
C174 H179 0.930 . S
C175 N172 1.390 . S
C175 C176 1.346 . S
C175 H180 0.930 . S
C176 N173 1.336 . S
C176 C175 1.346 . S
C176 H183 0.929 . S
C177 O167 1.282 . S
C177 O178 1.216 . S
O178 C177 1.216 . S
H179 C174 0.930 . S
H180 C175 0.930 . S
O181 Cu161 1.959 1_545 S
O181 C168 1.251 1_545 S
H182 C165 0.930 . S
H183 C176 0.929 . S
Cu184 N185 1.999 . S
Cu184 O190 1.974 . S
Cu184 N195 1.985 . S
Cu184 O204 1.959 . S
N185 Cu184 1.999 . S
N185 C187 1.263 . S
N185 C189 1.389 1_545 S
N186 C187 1.358 1_565 S
N186 C188 1.400 . S
C187 N185 1.263 . S
C187 N186 1.358 1_545 S
C187 H193 0.930 . S
C188 N186 1.400 . S
C188 C189 1.351 . S
C188 H205 0.930 . S
C189 N185 1.389 1_565 S
C189 C188 1.351 . S
C189 H194 0.930 . S
O190 Cu184 1.974 . S
O190 C200 1.282 . S
C191 O192 1.261 . S
C191 O204 1.251 . S
O192 C191 1.261 . S
H193 C187 0.930 . S
H194 C189 0.930 . S
N195 Cu184 1.985 . S
N195 C197 1.335 . S
N195 C198 1.390 . S
N196 C197 1.345 . S
N196 C199 1.336 . S
C197 N195 1.335 . S
C197 N196 1.345 . S
C197 H202 0.930 . S
C198 N195 1.390 . S
C198 C199 1.346 . S
C198 H203 0.930 . S
C199 N196 1.336 . S
C199 C198 1.346 . S
C199 H206 0.929 . S
C200 O190 1.282 . S
C200 O201 1.216 . S
O201 C200 1.216 . S
H202 C197 0.930 . S
H203 C198 0.930 . S
O204 Cu184 1.959 . S
O204 C191 1.251 . S
H205 C188 0.930 . S
H206 C199 0.929 . S
Cu207 N208 1.999 . S
Cu207 O213 1.974 1_655 S
Cu207 N218 1.985 . S
Cu207 O227 1.959 . S
N208 Cu207 1.999 . S
N208 C210 1.263 . S
N208 C212 1.389 . S
N209 C210 1.358 . S
N209 C211 1.400 . S
C210 N208 1.263 . S
C210 N209 1.358 . S
C210 H216 0.930 . S
C211 N209 1.400 . S
C211 C212 1.351 . S
C211 H228 0.930 . S
C212 N208 1.389 . S
C212 C211 1.351 . S
C212 H217 0.930 . S
O213 Cu207 1.974 1_455 S
O213 C223 1.282 . S
C214 O215 1.261 . S
C214 O227 1.251 . S
O215 C214 1.261 . S
H216 C210 0.930 . S
H217 C212 0.930 . S
N218 Cu207 1.985 . S
N218 C220 1.335 . S
N218 C221 1.390 1_655 S
N219 C220 1.345 1_455 S
N219 C222 1.336 . S
C220 N218 1.335 . S
C220 N219 1.345 1_655 S
C220 H225 0.930 . S
C221 N218 1.390 1_455 S
C221 C222 1.346 . S
C221 H226 0.930 . S
C222 N219 1.336 . S
C222 C221 1.346 . S
C222 H229 0.929 . S
C223 O213 1.282 . S
C223 O224 1.216 . S
O224 C223 1.216 . S
H225 C220 0.930 . S
H226 C221 0.930 . S
O227 Cu207 1.959 . S
O227 C214 1.251 . S
H228 C211 0.930 . S
H229 C222 0.929 . S
Cu230 N231 1.999 . S
Cu230 O236 1.974 . S
Cu230 N241 1.985 . S
Cu230 O250 1.959 . S
N231 Cu230 1.999 . S
N231 C233 1.263 . S
N231 C235 1.389 1_565 S
N232 C233 1.358 1_545 S
N232 C234 1.400 . S
C233 N231 1.263 . S
C233 N232 1.358 1_565 S
C233 H239 0.930 . S
C234 N232 1.400 . S
C234 C235 1.351 . S
C234 H251 0.930 . S
C235 N231 1.389 1_545 S
C235 C234 1.351 . S
C235 H240 0.930 . S
O236 Cu230 1.974 . S
O236 C246 1.282 . S
C237 O238 1.261 . S
C237 O250 1.251 . S
O238 C237 1.261 . S
H239 C233 0.930 . S
H240 C235 0.930 . S
N241 Cu230 1.985 . S
N241 C243 1.335 . S
N241 C244 1.390 . S
N242 C243 1.345 . S
N242 C245 1.336 . S
C243 N241 1.335 . S
C243 N242 1.345 . S
C243 H248 0.930 . S
C244 N241 1.390 . S
C244 C245 1.346 . S
C244 H249 0.930 . S
C245 N242 1.336 . S
C245 C244 1.346 . S
C245 H252 0.929 . S
C246 O236 1.282 . S
C246 O247 1.216 . S
O247 C246 1.216 . S
H248 C243 0.930 . S
H249 C244 0.930 . S
O250 Cu230 1.959 . S
O250 C237 1.251 . S
H251 C234 0.930 . S
H252 C245 0.929 . S
Cu253 N254 1.999 . S
Cu253 O259 1.974 1_455 S
Cu253 N264 1.985 . S
Cu253 O273 1.959 . S
N254 Cu253 1.999 . S
N254 C256 1.263 . S
N254 C258 1.389 . S
N255 C256 1.358 . S
N255 C257 1.400 . S
C256 N254 1.263 . S
C256 N255 1.358 . S
C256 H262 0.930 . S
C257 N255 1.400 . S
C257 C258 1.351 . S
C257 H274 0.930 . S
C258 N254 1.389 . S
C258 C257 1.351 . S
C258 H263 0.930 . S
O259 Cu253 1.974 1_655 S
O259 C269 1.282 . S
C260 O261 1.261 . S
C260 O273 1.251 . S
O261 C260 1.261 . S
H262 C256 0.930 . S
H263 C258 0.930 . S
N264 Cu253 1.985 . S
N264 C266 1.335 . S
N264 C267 1.390 1_455 S
N265 C266 1.345 1_655 S
N265 C268 1.336 . S
C266 N264 1.335 . S
C266 N265 1.345 1_455 S
C266 H271 0.930 . S
C267 N264 1.390 1_655 S
C267 C268 1.346 . S
C267 H272 0.930 . S
C268 N265 1.336 . S
C268 C267 1.346 . S
C268 H275 0.929 . S
C269 O259 1.282 . S
C269 O270 1.216 . S
O270 C269 1.216 . S
H271 C266 0.930 . S
H272 C267 0.930 . S
O273 Cu253 1.959 . S
O273 C260 1.251 . S
H274 C257 0.930 . S
H275 C268 0.929 . S
Cu276 N277 1.999 . S
Cu276 O282 1.974 . S
Cu276 N287 1.985 . S
Cu276 O296 1.959 . S
N277 Cu276 1.999 . S
N277 C279 1.263 . S
N277 C281 1.389 1_565 S
N278 C279 1.358 1_545 S
N278 C280 1.400 . S
C279 N277 1.263 . S
C279 N278 1.358 1_565 S
C279 H285 0.930 . S
C280 N278 1.400 . S
C280 C281 1.351 . S
C280 H297 0.930 . S
C281 N277 1.389 1_545 S
C281 C280 1.351 . S
C281 H286 0.930 . S
O282 Cu276 1.974 . S
O282 C292 1.282 . S
C283 O284 1.261 . S
C283 O296 1.251 . S
O284 C283 1.261 . S
H285 C279 0.930 . S
H286 C281 0.930 . S
N287 Cu276 1.985 . S
N287 C289 1.335 . S
N287 C290 1.390 . S
N288 C289 1.345 . S
N288 C291 1.336 . S
C289 N287 1.335 . S
C289 N288 1.345 . S
C289 H294 0.930 . S
C290 N287 1.390 . S
C290 C291 1.346 . S
C290 H295 0.930 . S
C291 N288 1.336 . S
C291 C290 1.346 . S
C291 H298 0.929 . S
C292 O282 1.282 . S
C292 O293 1.216 . S
O293 C292 1.216 . S
H294 C289 0.930 . S
H295 C290 0.930 . S
O296 Cu276 1.959 . S
O296 C283 1.251 . S
H297 C280 0.930 . S
H298 C291 0.929 . S
Cu299 N300 1.999 . S
Cu299 O305 1.974 1_455 S
Cu299 N310 1.985 . S
Cu299 O319 1.959 . S
N300 Cu299 1.999 . S
N300 C302 1.263 . S
N300 C304 1.389 . S
N301 C302 1.358 . S
N301 C303 1.400 . S
C302 N300 1.263 . S
C302 N301 1.358 . S
C302 H308 0.930 . S
C303 N301 1.400 . S
C303 C304 1.351 . S
C303 H320 0.930 . S
C304 N300 1.389 . S
C304 C303 1.351 . S
C304 H309 0.930 . S
O305 Cu299 1.974 1_655 S
O305 C315 1.282 . S
C306 O307 1.261 . S
C306 O319 1.251 . S
O307 C306 1.261 . S
H308 C302 0.930 . S
H309 C304 0.930 . S
N310 Cu299 1.985 . S
N310 C312 1.335 . S
N310 C313 1.390 1_455 S
N311 C312 1.345 1_655 S
N311 C314 1.336 . S
C312 N310 1.335 . S
C312 N311 1.345 1_455 S
C312 H317 0.930 . S
C313 N310 1.390 1_655 S
C313 C314 1.346 . S
C313 H318 0.930 . S
C314 N311 1.336 . S
C314 C313 1.346 . S
C314 H321 0.929 . S
C315 O305 1.282 . S
C315 O316 1.216 . S
O316 C315 1.216 . S
H317 C312 0.930 . S
H318 C313 0.930 . S
O319 Cu299 1.959 . S
O319 C306 1.251 . S
H320 C303 0.930 . S
H321 C314 0.929 . S
Cu322 N323 1.999 . S
Cu322 O328 1.974 . S
Cu322 N333 1.985 . S
Cu322 O342 1.959 . S
N323 Cu322 1.999 . S
N323 C325 1.263 . S
N323 C327 1.389 1_545 S
N324 C325 1.358 1_565 S
N324 C326 1.400 . S
C325 N323 1.263 . S
C325 N324 1.358 1_545 S
C325 H331 0.930 . S
C326 N324 1.400 . S
C326 C327 1.351 . S
C326 H343 0.930 . S
C327 N323 1.389 1_565 S
C327 C326 1.351 . S
C327 H332 0.930 . S
O328 Cu322 1.974 . S
O328 C338 1.282 . S
C329 O330 1.261 . S
C329 O342 1.251 . S
O330 C329 1.261 . S
H331 C325 0.930 . S
H332 C327 0.930 . S
N333 Cu322 1.985 . S
N333 C335 1.335 . S
N333 C336 1.390 . S
N334 C335 1.345 . S
N334 C337 1.336 . S
C335 N333 1.335 . S
C335 N334 1.345 . S
C335 H340 0.930 . S
C336 N333 1.390 . S
C336 C337 1.346 . S
C336 H341 0.930 . S
C337 N334 1.336 . S
C337 C336 1.346 . S
C337 H344 0.929 . S
C338 O328 1.282 . S
C338 O339 1.216 . S
O339 C338 1.216 . S
H340 C335 0.930 . S
H341 C336 0.930 . S
O342 Cu322 1.959 . S
O342 C329 1.251 . S
H343 C326 0.930 . S
H344 C337 0.929 . S
Cu345 N346 1.999 . S
Cu345 O351 1.974 1_655 S
Cu345 N356 1.985 . S
Cu345 O365 1.959 . S
N346 Cu345 1.999 . S
N346 C348 1.263 . S
N346 C350 1.389 . S
N347 C348 1.358 . S
N347 C349 1.400 . S
C348 N346 1.263 . S
C348 N347 1.358 . S
C348 H354 0.930 . S
C349 N347 1.400 . S
C349 C350 1.351 . S
C349 H366 0.930 . S
C350 N346 1.389 . S
C350 C349 1.351 . S
C350 H355 0.930 . S
O351 Cu345 1.974 1_455 S
O351 C361 1.282 . S
C352 O353 1.261 . S
C352 O365 1.251 . S
O353 C352 1.261 . S
H354 C348 0.930 . S
H355 C350 0.930 . S
N356 Cu345 1.985 . S
N356 C358 1.335 . S
N356 C359 1.390 1_655 S
N357 C358 1.345 1_455 S
N357 C360 1.336 . S
C358 N356 1.335 . S
C358 N357 1.345 1_655 S
C358 H363 0.930 . S
C359 N356 1.390 1_455 S
C359 C360 1.346 . S
C359 H364 0.930 . S
C360 N357 1.336 . S
C360 C359 1.346 . S
C360 H367 0.929 . S
C361 O351 1.282 . S
C361 O362 1.216 . S
O362 C361 1.216 . S
H363 C358 0.930 . S
H364 C359 0.930 . S
O365 Cu345 1.959 . S
O365 C352 1.251 . S
H366 C349 0.930 . S
H367 C360 0.929 . S
Cu368 N369 1.999 1_554 S
Cu368 O374 1.974 . S
Cu368 N379 1.985 . S
Cu368 O388 1.959 1_554 S
N369 Cu368 1.999 1_556 S
N369 C371 1.263 . S
N369 C373 1.389 . S
N370 C371 1.358 . S
N370 C372 1.400 . S
C371 N369 1.263 . S
C371 N370 1.358 . S
C371 H377 0.930 1_556 S
C372 N370 1.400 . S
C372 C373 1.351 . S
C372 H389 0.930 . S
C373 N369 1.389 . S
C373 C372 1.351 . S
C373 H378 0.930 . S
O374 Cu368 1.974 . S
O374 C384 1.282 . S
C375 O376 1.261 . S
C375 O388 1.251 1_554 S
O376 C375 1.261 . S
H377 C371 0.930 1_554 S
H378 C373 0.930 . S
N379 Cu368 1.985 . S
N379 C381 1.335 . S
N379 C382 1.390 . S
N380 C381 1.345 . S
N380 C383 1.336 . S
C381 N379 1.335 . S
C381 N380 1.345 . S
C381 H386 0.930 . S
C382 N379 1.390 . S
C382 C383 1.346 . S
C382 H387 0.930 . S
C383 N380 1.336 . S
C383 C382 1.346 . S
C383 H390 0.929 . S
C384 O374 1.282 . S
C384 O385 1.216 . S
O385 C384 1.216 . S
H386 C381 0.930 . S
H387 C382 0.930 . S
O388 Cu368 1.959 1_556 S
O388 C375 1.251 1_556 S
H389 C372 0.930 . S
H390 C383 0.929 . S
Cu391 N392 1.999 1_556 S
Cu391 O397 1.974 . S
Cu391 N402 1.985 . S
Cu391 O411 1.959 1_556 S
N392 Cu391 1.999 1_554 S
N392 C394 1.263 . S
N392 C396 1.389 . S
N393 C394 1.358 . S
N393 C395 1.400 . S
C394 N392 1.263 . S
C394 N393 1.358 . S
C394 H400 0.930 1_554 S
C395 N393 1.400 . S
C395 C396 1.351 . S
C395 H412 0.930 . S
C396 N392 1.389 . S
C396 C395 1.351 . S
C396 H401 0.930 . S
O397 Cu391 1.974 . S
O397 C407 1.282 . S
C398 O399 1.261 . S
C398 O411 1.251 1_556 S
O399 C398 1.261 . S
H400 C394 0.930 1_556 S
H401 C396 0.930 . S
N402 Cu391 1.985 . S
N402 C404 1.335 . S
N402 C405 1.390 . S
N403 C404 1.345 . S
N403 C406 1.336 . S
C404 N402 1.335 . S
C404 N403 1.345 . S
C404 H409 0.930 . S
C405 N402 1.390 . S
C405 C406 1.346 . S
C405 H410 0.930 . S
C406 N403 1.336 . S
C406 C405 1.346 . S
C406 H413 0.929 . S
C407 O397 1.282 . S
C407 O408 1.216 . S
O408 C407 1.216 . S
H409 C404 0.930 . S
H410 C405 0.930 . S
O411 Cu391 1.959 1_554 S
O411 C398 1.251 1_554 S
H412 C395 0.930 . S
H413 C406 0.929 . S
Cu414 N415 1.999 . S
Cu414 O420 1.974 . S
Cu414 N425 1.985 . S
Cu414 O434 1.959 . S
N415 Cu414 1.999 . S
N415 C417 1.263 . S
N415 C419 1.389 1_556 S
N416 C417 1.358 1_554 S
N416 C418 1.400 . S
C417 N415 1.263 . S
C417 N416 1.358 1_556 S
C417 H423 0.930 . S
C418 N416 1.400 . S
C418 C419 1.351 . S
C418 H435 0.930 . S
C419 N415 1.389 1_554 S
C419 C418 1.351 . S
C419 H424 0.930 . S
O420 Cu414 1.974 . S
O420 C430 1.282 . S
C421 O422 1.261 . S
C421 O434 1.251 . S
O422 C421 1.261 . S
H423 C417 0.930 . S
H424 C419 0.930 . S
N425 Cu414 1.985 . S
N425 C427 1.335 . S
N425 C428 1.390 . S
N426 C427 1.345 . S
N426 C429 1.336 . S
C427 N425 1.335 . S
C427 N426 1.345 . S
C427 H432 0.930 . S
C428 N425 1.390 . S
C428 C429 1.346 . S
C428 H433 0.930 . S
C429 N426 1.336 . S
C429 C428 1.346 . S
C429 H436 0.929 . S
C430 O420 1.282 . S
C430 O431 1.216 . S
O431 C430 1.216 . S
H432 C427 0.930 . S
H433 C428 0.930 . S
O434 Cu414 1.959 . S
O434 C421 1.251 . S
H435 C418 0.930 . S
H436 C429 0.929 . S
Cu437 N438 1.999 1_556 S
Cu437 O443 1.974 . S
Cu437 N448 1.985 . S
Cu437 O457 1.959 1_556 S
N438 Cu437 1.999 1_554 S
N438 C440 1.263 . S
N438 C442 1.389 . S
N439 C440 1.358 . S
N439 C441 1.400 . S
C440 N438 1.263 . S
C440 N439 1.358 . S
C440 H446 0.930 1_554 S
C441 N439 1.400 . S
C441 C442 1.351 . S
C441 H458 0.930 . S
C442 N438 1.389 . S
C442 C441 1.351 . S
C442 H447 0.930 . S
O443 Cu437 1.974 . S
O443 C453 1.282 . S
C444 O445 1.261 . S
C444 O457 1.251 1_556 S
O445 C444 1.261 . S
H446 C440 0.930 1_556 S
H447 C442 0.930 . S
N448 Cu437 1.985 . S
N448 C450 1.335 . S
N448 C451 1.390 . S
N449 C450 1.345 . S
N449 C452 1.336 . S
C450 N448 1.335 . S
C450 N449 1.345 . S
C450 H455 0.930 . S
C451 N448 1.390 . S
C451 C452 1.346 . S
C451 H456 0.930 . S
C452 N449 1.336 . S
C452 C451 1.346 . S
C452 H459 0.929 . S
C453 O443 1.282 . S
C453 O454 1.216 . S
O454 C453 1.216 . S
H455 C450 0.930 . S
H456 C451 0.930 . S
O457 Cu437 1.959 1_554 S
O457 C444 1.251 1_554 S
H458 C441 0.930 . S
H459 C452 0.929 . S
Cu460 N461 1.999 . S
Cu460 O466 1.974 . S
Cu460 N471 1.985 . S
Cu460 O480 1.959 . S
N461 Cu460 1.999 . S
N461 C463 1.263 . S
N461 C465 1.389 1_556 S
N462 C463 1.358 1_554 S
N462 C464 1.400 . S
C463 N461 1.263 . S
C463 N462 1.358 1_556 S
C463 H469 0.930 . S
C464 N462 1.400 . S
C464 C465 1.351 . S
C464 H481 0.930 . S
C465 N461 1.389 1_554 S
C465 C464 1.351 . S
C465 H470 0.930 . S
O466 Cu460 1.974 . S
O466 C476 1.282 . S
C467 O468 1.261 . S
C467 O480 1.251 . S
O468 C467 1.261 . S
H469 C463 0.930 . S
H470 C465 0.930 . S
N471 Cu460 1.985 . S
N471 C473 1.335 . S
N471 C474 1.390 . S
N472 C473 1.345 . S
N472 C475 1.336 . S
C473 N471 1.335 . S
C473 N472 1.345 . S
C473 H478 0.930 . S
C474 N471 1.390 . S
C474 C475 1.346 . S
C474 H479 0.930 . S
C475 N472 1.336 . S
C475 C474 1.346 . S
C475 H482 0.929 . S
C476 O466 1.282 . S
C476 O477 1.216 . S
O477 C476 1.216 . S
H478 C473 0.930 . S
H479 C474 0.930 . S
O480 Cu460 1.959 . S
O480 C467 1.251 . S
H481 C464 0.930 . S
H482 C475 0.929 . S
Cu483 N484 1.999 1_554 S
Cu483 O489 1.974 . S
Cu483 N494 1.985 . S
Cu483 O503 1.959 1_554 S
N484 Cu483 1.999 1_556 S
N484 C486 1.263 . S
N484 C488 1.389 . S
N485 C486 1.358 . S
N485 C487 1.400 . S
C486 N484 1.263 . S
C486 N485 1.358 . S
C486 H492 0.930 1_556 S
C487 N485 1.400 . S
C487 C488 1.351 . S
C487 H504 0.930 . S
C488 N484 1.389 . S
C488 C487 1.351 . S
C488 H493 0.930 . S
O489 Cu483 1.974 . S
O489 C499 1.282 . S
C490 O491 1.261 . S
C490 O503 1.251 1_554 S
O491 C490 1.261 . S
H492 C486 0.930 1_554 S
H493 C488 0.930 . S
N494 Cu483 1.985 . S
N494 C496 1.335 . S
N494 C497 1.390 . S
N495 C496 1.345 . S
N495 C498 1.336 . S
C496 N494 1.335 . S
C496 N495 1.345 . S
C496 H501 0.930 . S
C497 N494 1.390 . S
C497 C498 1.346 . S
C497 H502 0.930 . S
C498 N495 1.336 . S
C498 C497 1.346 . S
C498 H505 0.929 . S
C499 O489 1.282 . S
C499 O500 1.216 . S
O500 C499 1.216 . S
H501 C496 0.930 . S
H502 C497 0.930 . S
O503 Cu483 1.959 1_556 S
O503 C490 1.251 1_556 S
H504 C487 0.930 . S
H505 C498 0.929 . S
Cu506 N507 1.999 . S
Cu506 O512 1.974 . S
Cu506 N517 1.985 . S
Cu506 O526 1.959 . S
N507 Cu506 1.999 . S
N507 C509 1.263 . S
N507 C511 1.389 1_554 S
N508 C509 1.358 1_556 S
N508 C510 1.400 . S
C509 N507 1.263 . S
C509 N508 1.358 1_554 S
C509 H515 0.930 . S
C510 N508 1.400 . S
C510 C511 1.351 . S
C510 H527 0.930 . S
C511 N507 1.389 1_556 S
C511 C510 1.351 . S
C511 H516 0.930 . S
O512 Cu506 1.974 . S
O512 C522 1.282 . S
C513 O514 1.261 . S
C513 O526 1.251 . S
O514 C513 1.261 . S
H515 C509 0.930 . S
H516 C511 0.930 . S
N517 Cu506 1.985 . S
N517 C519 1.335 . S
N517 C520 1.390 . S
N518 C519 1.345 . S
N518 C521 1.336 . S
C519 N517 1.335 . S
C519 N518 1.345 . S
C519 H524 0.930 . S
C520 N517 1.390 . S
C520 C521 1.346 . S
C520 H525 0.930 . S
C521 N518 1.336 . S
C521 C520 1.346 . S
C521 H528 0.929 . S
C522 O512 1.282 . S
C522 O523 1.216 . S
O523 C522 1.216 . S
H524 C519 0.930 . S
H525 C520 0.930 . S
O526 Cu506 1.959 . S
O526 C513 1.251 . S
H527 C510 0.930 . S
H528 C521 0.929 . S
Cu529 N530 1.999 . S
Cu529 O535 1.974 . S
Cu529 N540 1.985 . S
Cu529 O549 1.959 . S
N530 Cu529 1.999 . S
N530 C532 1.263 . S
N530 C534 1.389 1_554 S
N531 C532 1.358 1_556 S
N531 C533 1.400 . S
C532 N530 1.263 . S
C532 N531 1.358 1_554 S
C532 H538 0.930 . S
C533 N531 1.400 . S
C533 C534 1.351 . S
C533 H550 0.930 . S
C534 N530 1.389 1_556 S
C534 C533 1.351 . S
C534 H539 0.930 . S
O535 Cu529 1.974 . S
O535 C545 1.282 . S
C536 O537 1.261 . S
C536 O549 1.251 . S
O537 C536 1.261 . S
H538 C532 0.930 . S
H539 C534 0.930 . S
N540 Cu529 1.985 . S
N540 C542 1.335 . S
N540 C543 1.390 . S
N541 C542 1.345 . S
N541 C544 1.336 . S
C542 N540 1.335 . S
C542 N541 1.345 . S
C542 H547 0.930 . S
C543 N540 1.390 . S
C543 C544 1.346 . S
C543 H548 0.930 . S
C544 N541 1.336 . S
C544 C543 1.346 . S
C544 H551 0.929 . S
C545 O535 1.282 . S
C545 O546 1.216 . S
O546 C545 1.216 . S
H547 C542 0.930 . S
H548 C543 0.930 . S
O549 Cu529 1.959 . S
O549 C536 1.251 . S
H550 C533 0.930 . S
H551 C544 0.929 . S
Cu552 N553 1.999 . S
Cu552 O558 1.974 . S
Cu552 N563 1.985 . S
Cu552 O572 1.959 . S
N553 Cu552 1.999 . S
N553 C555 1.263 . S
N553 C557 1.389 . S
N554 C555 1.358 . S
N554 C556 1.400 . S
C555 N553 1.263 . S
C555 N554 1.358 . S
C555 H561 0.930 . S
C556 N554 1.400 . S
C556 C557 1.351 . S
C556 H573 0.930 . S
C557 N553 1.389 . S
C557 C556 1.351 . S
C557 H562 0.930 . S
O558 Cu552 1.974 . S
O558 C568 1.282 . S
C559 O560 1.261 . S
C559 O572 1.251 . S
O560 C559 1.261 . S
H561 C555 0.930 . S
H562 C557 0.930 . S
N563 Cu552 1.985 . S
N563 C565 1.335 . S
N563 C566 1.390 . S
N564 C565 1.345 . S
N564 C567 1.336 . S
C565 N563 1.335 . S
C565 N564 1.345 . S
C565 H570 0.930 . S
C566 N563 1.390 . S
C566 C567 1.346 . S
C566 H571 0.930 . S
C567 N564 1.336 . S
C567 C566 1.346 . S
C567 H574 0.929 . S
C568 O558 1.282 . S
C568 O569 1.216 . S
O569 C568 1.216 . S
H570 C565 0.930 . S
H571 C566 0.930 . S
O572 Cu552 1.959 . S
O572 C559 1.251 . S
H573 C556 0.930 . S
H574 C567 0.929 . S
Cu575 N576 1.999 . S
Cu575 O581 1.974 . S
Cu575 N586 1.985 . S
Cu575 O595 1.959 . S
N576 Cu575 1.999 . S
N576 C578 1.263 . S
N576 C580 1.389 . S
N577 C578 1.358 . S
N577 C579 1.400 . S
C578 N576 1.263 . S
C578 N577 1.358 . S
C578 H584 0.930 . S
C579 N577 1.400 . S
C579 C580 1.351 . S
C579 H596 0.930 . S
C580 N576 1.389 . S
C580 C579 1.351 . S
C580 H585 0.930 . S
O581 Cu575 1.974 . S
O581 C591 1.282 . S
C582 O583 1.261 . S
C582 O595 1.251 . S
O583 C582 1.261 . S
H584 C578 0.930 . S
H585 C580 0.930 . S
N586 Cu575 1.985 . S
N586 C588 1.335 . S
N586 C589 1.390 . S
N587 C588 1.345 . S
N587 C590 1.336 . S
C588 N586 1.335 . S
C588 N587 1.345 . S
C588 H593 0.930 . S
C589 N586 1.390 . S
C589 C590 1.346 . S
C589 H594 0.930 . S
C590 N587 1.336 . S
C590 C589 1.346 . S
C590 H597 0.929 . S
C591 O581 1.282 . S
C591 O592 1.216 . S
O592 C591 1.216 . S
H593 C588 0.930 . S
H594 C589 0.930 . S
O595 Cu575 1.959 . S
O595 C582 1.251 . S
H596 C579 0.930 . S
H597 C590 0.929 . S
Cu598 N599 1.999 . S
Cu598 O604 1.974 . S
Cu598 N609 1.985 . S
Cu598 O618 1.959 . S
N599 Cu598 1.999 . S
N599 C601 1.263 . S
N599 C603 1.389 . S
N600 C601 1.358 . S
N600 C602 1.400 . S
C601 N599 1.263 . S
C601 N600 1.358 . S
C601 H607 0.930 . S
C602 N600 1.400 . S
C602 C603 1.351 . S
C602 H619 0.930 . S
C603 N599 1.389 . S
C603 C602 1.351 . S
C603 H608 0.930 . S
O604 Cu598 1.974 . S
O604 C614 1.282 . S
C605 O606 1.261 . S
C605 O618 1.251 . S
O606 C605 1.261 . S
H607 C601 0.930 . S
H608 C603 0.930 . S
N609 Cu598 1.985 . S
N609 C611 1.335 . S
N609 C612 1.390 . S
N610 C611 1.345 . S
N610 C613 1.336 . S
C611 N609 1.335 . S
C611 N610 1.345 . S
C611 H616 0.930 . S
C612 N609 1.390 . S
C612 C613 1.346 . S
C612 H617 0.930 . S
C613 N610 1.336 . S
C613 C612 1.346 . S
C613 H620 0.929 . S
C614 O604 1.282 . S
C614 O615 1.216 . S
O615 C614 1.216 . S
H616 C611 0.930 . S
H617 C612 0.930 . S
O618 Cu598 1.959 . S
O618 C605 1.251 . S
H619 C602 0.930 . S
H620 C613 0.929 . S
Cu621 N622 1.999 . S
Cu621 O627 1.974 . S
Cu621 N632 1.985 . S
Cu621 O641 1.959 . S
N622 Cu621 1.999 . S
N622 C624 1.263 . S
N622 C626 1.389 . S
N623 C624 1.358 . S
N623 C625 1.400 . S
C624 N622 1.263 . S
C624 N623 1.358 . S
C624 H630 0.930 . S
C625 N623 1.400 . S
C625 C626 1.351 . S
C625 H642 0.930 . S
C626 N622 1.389 . S
C626 C625 1.351 . S
C626 H631 0.930 . S
O627 Cu621 1.974 . S
O627 C637 1.282 . S
C628 O629 1.261 . S
C628 O641 1.251 . S
O629 C628 1.261 . S
H630 C624 0.930 . S
H631 C626 0.930 . S
N632 Cu621 1.985 . S
N632 C634 1.335 . S
N632 C635 1.390 . S
N633 C634 1.345 . S
N633 C636 1.336 . S
C634 N632 1.335 . S
C634 N633 1.345 . S
C634 H639 0.930 . S
C635 N632 1.390 . S
C635 C636 1.346 . S
C635 H640 0.930 . S
C636 N633 1.336 . S
C636 C635 1.346 . S
C636 H643 0.929 . S
C637 O627 1.282 . S
C637 O638 1.216 . S
O638 C637 1.216 . S
H639 C634 0.930 . S
H640 C635 0.930 . S
O641 Cu621 1.959 . S
O641 C628 1.251 . S
H642 C625 0.930 . S
H643 C636 0.929 . S
Cu644 N645 1.999 . S
Cu644 O650 1.974 . S
Cu644 N655 1.985 . S
Cu644 O664 1.959 . S
N645 Cu644 1.999 . S
N645 C647 1.263 . S
N645 C649 1.389 . S
N646 C647 1.358 . S
N646 C648 1.400 . S
C647 N645 1.263 . S
C647 N646 1.358 . S
C647 H653 0.930 . S
C648 N646 1.400 . S
C648 C649 1.351 . S
C648 H665 0.930 . S
C649 N645 1.389 . S
C649 C648 1.351 . S
C649 H654 0.930 . S
O650 Cu644 1.974 . S
O650 C660 1.282 . S
C651 O652 1.261 . S
C651 O664 1.251 . S
O652 C651 1.261 . S
H653 C647 0.930 . S
H654 C649 0.930 . S
N655 Cu644 1.985 . S
N655 C657 1.335 . S
N655 C658 1.390 . S
N656 C657 1.345 . S
N656 C659 1.336 . S
C657 N655 1.335 . S
C657 N656 1.345 . S
C657 H662 0.930 . S
C658 N655 1.390 . S
C658 C659 1.346 . S
C658 H663 0.930 . S
C659 N656 1.336 . S
C659 C658 1.346 . S
C659 H666 0.929 . S
C660 O650 1.282 . S
C660 O661 1.216 . S
O661 C660 1.216 . S
H662 C657 0.930 . S
H663 C658 0.930 . S
O664 Cu644 1.959 . S
O664 C651 1.251 . S
H665 C648 0.930 . S
H666 C659 0.929 . S
Cu667 N668 1.999 . S
Cu667 O673 1.974 . S
Cu667 N678 1.985 . S
Cu667 O687 1.959 . S
N668 Cu667 1.999 . S
N668 C670 1.263 . S
N668 C672 1.389 . S
N669 C670 1.358 . S
N669 C671 1.400 . S
C670 N668 1.263 . S
C670 N669 1.358 . S
C670 H676 0.930 . S
C671 N669 1.400 . S
C671 C672 1.351 . S
C671 H688 0.930 . S
C672 N668 1.389 . S
C672 C671 1.351 . S
C672 H677 0.930 . S
O673 Cu667 1.974 . S
O673 C683 1.282 . S
C674 O675 1.261 . S
C674 O687 1.251 . S
O675 C674 1.261 . S
H676 C670 0.930 . S
H677 C672 0.930 . S
N678 Cu667 1.985 . S
N678 C680 1.335 . S
N678 C681 1.390 . S
N679 C680 1.345 . S
N679 C682 1.336 . S
C680 N678 1.335 . S
C680 N679 1.345 . S
C680 H685 0.930 . S
C681 N678 1.390 . S
C681 C682 1.346 . S
C681 H686 0.930 . S
C682 N679 1.336 . S
C682 C681 1.346 . S
C682 H689 0.929 . S
C683 O673 1.282 . S
C683 O684 1.216 . S
O684 C683 1.216 . S
H685 C680 0.930 . S
H686 C681 0.930 . S
O687 Cu667 1.959 . S
O687 C674 1.251 . S
H688 C671 0.930 . S
H689 C682 0.929 . S
Cu690 N691 1.999 . S
Cu690 O696 1.974 . S
Cu690 N701 1.985 . S
Cu690 O710 1.959 . S
N691 Cu690 1.999 . S
N691 C693 1.263 . S
N691 C695 1.389 . S
N692 C693 1.358 . S
N692 C694 1.400 . S
C693 N691 1.263 . S
C693 N692 1.358 . S
C693 H699 0.930 . S
C694 N692 1.400 . S
C694 C695 1.351 . S
C694 H711 0.930 . S
C695 N691 1.389 . S
C695 C694 1.351 . S
C695 H700 0.930 . S
O696 Cu690 1.974 . S
O696 C706 1.282 . S
C697 O698 1.261 . S
C697 O710 1.251 . S
O698 C697 1.261 . S
H699 C693 0.930 . S
H700 C695 0.930 . S
N701 Cu690 1.985 . S
N701 C703 1.335 . S
N701 C704 1.390 . S
N702 C703 1.345 . S
N702 C705 1.336 . S
C703 N701 1.335 . S
C703 N702 1.345 . S
C703 H708 0.930 . S
C704 N701 1.390 . S
C704 C705 1.346 . S
C704 H709 0.930 . S
C705 N702 1.336 . S
C705 C704 1.346 . S
C705 H712 0.929 . S
C706 O696 1.282 . S
C706 O707 1.216 . S
O707 C706 1.216 . S
H708 C703 0.930 . S
H709 C704 0.930 . S
O710 Cu690 1.959 . S
O710 C697 1.251 . S
H711 C694 0.930 . S
H712 C705 0.929 . S
Cu713 N714 1.999 . S
Cu713 O719 1.974 . S
Cu713 N724 1.985 . S
Cu713 O733 1.959 . S
N714 Cu713 1.999 . S
N714 C716 1.263 . S
N714 C718 1.389 . S
N715 C716 1.358 . S
N715 C717 1.400 . S
C716 N714 1.263 . S
C716 N715 1.358 . S
C716 H722 0.930 . S
C717 N715 1.400 . S
C717 C718 1.351 . S
C717 H734 0.930 . S
C718 N714 1.389 . S
C718 C717 1.351 . S
C718 H723 0.930 . S
O719 Cu713 1.974 . S
O719 C729 1.282 . S
C720 O721 1.261 . S
C720 O733 1.251 . S
O721 C720 1.261 . S
H722 C716 0.930 . S
H723 C718 0.930 . S
N724 Cu713 1.985 . S
N724 C726 1.335 . S
N724 C727 1.390 . S
N725 C726 1.345 . S
N725 C728 1.336 . S
C726 N724 1.335 . S
C726 N725 1.345 . S
C726 H731 0.930 . S
C727 N724 1.390 . S
C727 C728 1.346 . S
C727 H732 0.930 . S
C728 N725 1.336 . S
C728 C727 1.346 . S
C728 H735 0.929 . S
C729 O719 1.282 . S
C729 O730 1.216 . S
O730 C729 1.216 . S
H731 C726 0.930 . S
H732 C727 0.930 . S
O733 Cu713 1.959 . S
O733 C720 1.251 . S
H734 C717 0.930 . S
H735 C728 0.929 . S
Cu736 N737 1.999 . S
Cu736 O742 1.974 . S
Cu736 N747 1.985 . S
Cu736 O756 1.959 . S
N737 Cu736 1.999 . S
N737 C739 1.263 . S
N737 C741 1.389 . S
N738 C739 1.358 . S
N738 C740 1.400 . S
C739 N737 1.263 . S
C739 N738 1.358 . S
C739 H745 0.930 . S
C740 N738 1.400 . S
C740 C741 1.351 . S
C740 H757 0.930 . S
C741 N737 1.389 . S
C741 C740 1.351 . S
C741 H746 0.930 . S
O742 Cu736 1.974 . S
O742 C752 1.282 . S
C743 O744 1.261 . S
C743 O756 1.251 . S
O744 C743 1.261 . S
H745 C739 0.930 . S
H746 C741 0.930 . S
N747 Cu736 1.985 . S
N747 C749 1.335 . S
N747 C750 1.390 . S
N748 C749 1.345 . S
N748 C751 1.336 . S
C749 N747 1.335 . S
C749 N748 1.345 . S
C749 H754 0.930 . S
C750 N747 1.390 . S
C750 C751 1.346 . S
C750 H755 0.930 . S
C751 N748 1.336 . S
C751 C750 1.346 . S
C751 H758 0.929 . S
C752 O742 1.282 . S
C752 O753 1.216 . S
O753 C752 1.216 . S
H754 C749 0.930 . S
H755 C750 0.930 . S
O756 Cu736 1.959 . S
O756 C743 1.251 . S
H757 C740 0.930 . S
H758 C751 0.929 . S
Cu759 N760 1.999 . S
Cu759 O765 1.974 . S
Cu759 N770 1.985 . S
Cu759 O779 1.959 . S
N760 Cu759 1.999 . S
N760 C762 1.263 . S
N760 C764 1.389 . S
N761 C762 1.358 . S
N761 C763 1.400 . S
C762 N760 1.263 . S
C762 N761 1.358 . S
C762 H768 0.930 . S
C763 N761 1.400 . S
C763 C764 1.351 . S
C763 H780 0.930 . S
C764 N760 1.389 . S
C764 C763 1.351 . S
C764 H769 0.930 . S
O765 Cu759 1.974 . S
O765 C775 1.282 . S
C766 O767 1.261 . S
C766 O779 1.251 . S
O767 C766 1.261 . S
H768 C762 0.930 . S
H769 C764 0.930 . S
N770 Cu759 1.985 . S
N770 C772 1.335 . S
N770 C773 1.390 . S
N771 C772 1.345 . S
N771 C774 1.336 . S
C772 N770 1.335 . S
C772 N771 1.345 . S
C772 H777 0.930 . S
C773 N770 1.390 . S
C773 C774 1.346 . S
C773 H778 0.930 . S
C774 N771 1.336 . S
C774 C773 1.346 . S
C774 H781 0.929 . S
C775 O765 1.282 . S
C775 O776 1.216 . S
O776 C775 1.216 . S
H777 C772 0.930 . S
H778 C773 0.930 . S
O779 Cu759 1.959 . S
O779 C766 1.251 . S
H780 C763 0.930 . S
H781 C774 0.929 . S
Cu782 N783 1.999 . S
Cu782 O788 1.974 . S
Cu782 N793 1.985 . S
Cu782 O802 1.959 . S
N783 Cu782 1.999 . S
N783 C785 1.263 . S
N783 C787 1.389 . S
N784 C785 1.358 . S
N784 C786 1.400 . S
C785 N783 1.263 . S
C785 N784 1.358 . S
C785 H791 0.930 . S
C786 N784 1.400 . S
C786 C787 1.351 . S
C786 H803 0.930 . S
C787 N783 1.389 . S
C787 C786 1.351 . S
C787 H792 0.930 . S
O788 Cu782 1.974 . S
O788 C798 1.282 . S
C789 O790 1.261 . S
C789 O802 1.251 . S
O790 C789 1.261 . S
H791 C785 0.930 . S
H792 C787 0.930 . S
N793 Cu782 1.985 . S
N793 C795 1.335 . S
N793 C796 1.390 . S
N794 C795 1.345 . S
N794 C797 1.336 . S
C795 N793 1.335 . S
C795 N794 1.345 . S
C795 H800 0.930 . S
C796 N793 1.390 . S
C796 C797 1.346 . S
C796 H801 0.930 . S
C797 N794 1.336 . S
C797 C796 1.346 . S
C797 H804 0.929 . S
C798 O788 1.282 . S
C798 O799 1.216 . S
O799 C798 1.216 . S
H800 C795 0.930 . S
H801 C796 0.930 . S
O802 Cu782 1.959 . S
O802 C789 1.251 . S
H803 C786 0.930 . S
H804 C797 0.929 . S
Cu805 N806 1.999 . S
Cu805 O811 1.974 . S
Cu805 N816 1.985 . S
Cu805 O825 1.959 . S
N806 Cu805 1.999 . S
N806 C808 1.263 . S
N806 C810 1.389 . S
N807 C808 1.358 . S
N807 C809 1.400 . S
C808 N806 1.263 . S
C808 N807 1.358 . S
C808 H814 0.930 . S
C809 N807 1.400 . S
C809 C810 1.351 . S
C809 H826 0.930 . S
C810 N806 1.389 . S
C810 C809 1.351 . S
C810 H815 0.930 . S
O811 Cu805 1.974 . S
O811 C821 1.282 . S
C812 O813 1.261 . S
C812 O825 1.251 . S
O813 C812 1.261 . S
H814 C808 0.930 . S
H815 C810 0.930 . S
N816 Cu805 1.985 . S
N816 C818 1.335 . S
N816 C819 1.390 . S
N817 C818 1.345 . S
N817 C820 1.336 . S
C818 N816 1.335 . S
C818 N817 1.345 . S
C818 H823 0.930 . S
C819 N816 1.390 . S
C819 C820 1.346 . S
C819 H824 0.930 . S
C820 N817 1.336 . S
C820 C819 1.346 . S
C820 H827 0.929 . S
C821 O811 1.282 . S
C821 O822 1.216 . S
O822 C821 1.216 . S
H823 C818 0.930 . S
H824 C819 0.930 . S
O825 Cu805 1.959 . S
O825 C812 1.251 . S
H826 C809 0.930 . S
H827 C820 0.929 . S
Cu828 N829 1.999 . S
Cu828 O834 1.974 . S
Cu828 N839 1.985 . S
Cu828 O848 1.959 . S
N829 Cu828 1.999 . S
N829 C831 1.263 . S
N829 C833 1.389 . S
N830 C831 1.358 . S
N830 C832 1.400 . S
C831 N829 1.263 . S
C831 N830 1.358 . S
C831 H837 0.930 . S
C832 N830 1.400 . S
C832 C833 1.351 . S
C832 H849 0.930 . S
C833 N829 1.389 . S
C833 C832 1.351 . S
C833 H838 0.930 . S
O834 Cu828 1.974 . S
O834 C844 1.282 . S
C835 O836 1.261 . S
C835 O848 1.251 . S
O836 C835 1.261 . S
H837 C831 0.930 . S
H838 C833 0.930 . S
N839 Cu828 1.985 . S
N839 C841 1.335 . S
N839 C842 1.390 . S
N840 C841 1.345 . S
N840 C843 1.336 . S
C841 N839 1.335 . S
C841 N840 1.345 . S
C841 H846 0.930 . S
C842 N839 1.390 . S
C842 C843 1.346 . S
C842 H847 0.930 . S
C843 N840 1.336 . S
C843 C842 1.346 . S
C843 H850 0.929 . S
C844 O834 1.282 . S
C844 O845 1.216 . S
O845 C844 1.216 . S
H846 C841 0.930 . S
H847 C842 0.930 . S
O848 Cu828 1.959 . S
O848 C835 1.251 . S
H849 C832 0.930 . S
H850 C843 0.929 . S
Cu851 N852 1.999 . S
Cu851 O857 1.974 . S
Cu851 N862 1.985 . S
Cu851 O871 1.959 . S
N852 Cu851 1.999 . S
N852 C854 1.263 . S
N852 C856 1.389 . S
N853 C854 1.358 . S
N853 C855 1.400 . S
C854 N852 1.263 . S
C854 N853 1.358 . S
C854 H860 0.930 . S
C855 N853 1.400 . S
C855 C856 1.351 . S
C855 H872 0.930 . S
C856 N852 1.389 . S
C856 C855 1.351 . S
C856 H861 0.930 . S
O857 Cu851 1.974 . S
O857 C867 1.282 . S
C858 O859 1.261 . S
C858 O871 1.251 . S
O859 C858 1.261 . S
H860 C854 0.930 . S
H861 C856 0.930 . S
N862 Cu851 1.985 . S
N862 C864 1.335 . S
N862 C865 1.390 . S
N863 C864 1.345 . S
N863 C866 1.336 . S
C864 N862 1.335 . S
C864 N863 1.345 . S
C864 H869 0.930 . S
C865 N862 1.390 . S
C865 C866 1.346 . S
C865 H870 0.930 . S
C866 N863 1.336 . S
C866 C865 1.346 . S
C866 H873 0.929 . S
C867 O857 1.282 . S
C867 O868 1.216 . S
O868 C867 1.216 . S
H869 C864 0.930 . S
H870 C865 0.930 . S
O871 Cu851 1.959 . S
O871 C858 1.251 . S
H872 C855 0.930 . S
H873 C866 0.929 . S
Cu874 N875 1.999 . S
Cu874 O880 1.974 . S
Cu874 N885 1.985 . S
Cu874 O894 1.959 . S
N875 Cu874 1.999 . S
N875 C877 1.263 . S
N875 C879 1.389 . S
N876 C877 1.358 . S
N876 C878 1.400 . S
C877 N875 1.263 . S
C877 N876 1.358 . S
C877 H883 0.930 . S
C878 N876 1.400 . S
C878 C879 1.351 . S
C878 H895 0.930 . S
C879 N875 1.389 . S
C879 C878 1.351 . S
C879 H884 0.930 . S
O880 Cu874 1.974 . S
O880 C890 1.282 . S
C881 O882 1.261 . S
C881 O894 1.251 . S
O882 C881 1.261 . S
H883 C877 0.930 . S
H884 C879 0.930 . S
N885 Cu874 1.985 . S
N885 C887 1.335 . S
N885 C888 1.390 . S
N886 C887 1.345 . S
N886 C889 1.336 . S
C887 N885 1.335 . S
C887 N886 1.345 . S
C887 H892 0.930 . S
C888 N885 1.390 . S
C888 C889 1.346 . S
C888 H893 0.930 . S
C889 N886 1.336 . S
C889 C888 1.346 . S
C889 H896 0.929 . S
C890 O880 1.282 . S
C890 O891 1.216 . S
O891 C890 1.216 . S
H892 C887 0.930 . S
H893 C888 0.930 . S
O894 Cu874 1.959 . S
O894 C881 1.251 . S
H895 C878 0.930 . S
H896 C889 0.929 . S
Cu897 N898 1.999 . S
Cu897 O903 1.974 . S
Cu897 N908 1.985 . S
Cu897 O917 1.959 . S
N898 Cu897 1.999 . S
N898 C900 1.263 . S
N898 C902 1.389 . S
N899 C900 1.358 . S
N899 C901 1.400 . S
C900 N898 1.263 . S
C900 N899 1.358 . S
C900 H906 0.930 . S
C901 N899 1.400 . S
C901 C902 1.351 . S
C901 H918 0.930 . S
C902 N898 1.389 . S
C902 C901 1.351 . S
C902 H907 0.930 . S
O903 Cu897 1.974 . S
O903 C913 1.282 . S
C904 O905 1.261 . S
C904 O917 1.251 . S
O905 C904 1.261 . S
H906 C900 0.930 . S
H907 C902 0.930 . S
N908 Cu897 1.985 . S
N908 C910 1.335 . S
N908 C911 1.390 . S
N909 C910 1.345 . S
N909 C912 1.336 . S
C910 N908 1.335 . S
C910 N909 1.345 . S
C910 H915 0.930 . S
C911 N908 1.390 . S
C911 C912 1.346 . S
C911 H916 0.930 . S
C912 N909 1.336 . S
C912 C911 1.346 . S
C912 H919 0.929 . S
C913 O903 1.282 . S
C913 O914 1.216 . S
O914 C913 1.216 . S
H915 C910 0.930 . S
H916 C911 0.930 . S
O917 Cu897 1.959 . S
O917 C904 1.251 . S
H918 C901 0.930 . S
H919 C912 0.929 . S
Cu920 N921 1.999 . S
Cu920 O926 1.974 . S
Cu920 N931 1.985 . S
Cu920 O940 1.959 . S
N921 Cu920 1.999 . S
N921 C923 1.263 . S
N921 C925 1.389 . S
N922 C923 1.358 . S
N922 C924 1.400 . S
C923 N921 1.263 . S
C923 N922 1.358 . S
C923 H929 0.930 . S
C924 N922 1.400 . S
C924 C925 1.351 . S
C924 H941 0.930 . S
C925 N921 1.389 . S
C925 C924 1.351 . S
C925 H930 0.930 . S
O926 Cu920 1.974 . S
O926 C936 1.282 . S
C927 O928 1.261 . S
C927 O940 1.251 . S
O928 C927 1.261 . S
H929 C923 0.930 . S
H930 C925 0.930 . S
N931 Cu920 1.985 . S
N931 C933 1.335 . S
N931 C934 1.390 . S
N932 C933 1.345 . S
N932 C935 1.336 . S
C933 N931 1.335 . S
C933 N932 1.345 . S
C933 H938 0.930 . S
C934 N931 1.390 . S
C934 C935 1.346 . S
C934 H939 0.930 . S
C935 N932 1.336 . S
C935 C934 1.346 . S
C935 H942 0.929 . S
C936 O926 1.282 . S
C936 O937 1.216 . S
O937 C936 1.216 . S
H938 C933 0.930 . S
H939 C934 0.930 . S
O940 Cu920 1.959 . S
O940 C927 1.251 . S
H941 C924 0.930 . S
H942 C935 0.929 . S
Cu943 N944 1.999 . S
Cu943 O949 1.974 . S
Cu943 N954 1.985 . S
Cu943 O963 1.959 . S
N944 Cu943 1.999 . S
N944 C946 1.263 . S
N944 C948 1.389 . S
N945 C946 1.358 . S
N945 C947 1.400 . S
C946 N944 1.263 . S
C946 N945 1.358 . S
C946 H952 0.930 . S
C947 N945 1.400 . S
C947 C948 1.351 . S
C947 H964 0.930 . S
C948 N944 1.389 . S
C948 C947 1.351 . S
C948 H953 0.930 . S
O949 Cu943 1.974 . S
O949 C959 1.282 . S
C950 O951 1.261 . S
C950 O963 1.251 . S
O951 C950 1.261 . S
H952 C946 0.930 . S
H953 C948 0.930 . S
N954 Cu943 1.985 . S
N954 C956 1.335 . S
N954 C957 1.390 . S
N955 C956 1.345 . S
N955 C958 1.336 . S
C956 N954 1.335 . S
C956 N955 1.345 . S
C956 H961 0.930 . S
C957 N954 1.390 . S
C957 C958 1.346 . S
C957 H962 0.930 . S
C958 N955 1.336 . S
C958 C957 1.346 . S
C958 H965 0.929 . S
C959 O949 1.282 . S
C959 O960 1.216 . S
O960 C959 1.216 . S
H961 C956 0.930 . S
H962 C957 0.930 . S
O963 Cu943 1.959 . S
O963 C950 1.251 . S
H964 C947 0.930 . S
H965 C958 0.929 . S
Cu966 N967 1.999 . S
Cu966 O972 1.974 . S
Cu966 N977 1.985 . S
Cu966 O986 1.959 . S
N967 Cu966 1.999 . S
N967 C969 1.263 . S
N967 C971 1.389 . S
N968 C969 1.358 . S
N968 C970 1.400 . S
C969 N967 1.263 . S
C969 N968 1.358 . S
C969 H975 0.930 . S
C970 N968 1.400 . S
C970 C971 1.351 . S
C970 H987 0.930 . S
C971 N967 1.389 . S
C971 C970 1.351 . S
C971 H976 0.930 . S
O972 Cu966 1.974 . S
O972 C982 1.282 . S
C973 O974 1.261 . S
C973 O986 1.251 . S
O974 C973 1.261 . S
H975 C969 0.930 . S
H976 C971 0.930 . S
N977 Cu966 1.985 . S
N977 C979 1.335 . S
N977 C980 1.390 . S
N978 C979 1.345 . S
N978 C981 1.336 . S
C979 N977 1.335 . S
C979 N978 1.345 . S
C979 H984 0.930 . S
C980 N977 1.390 . S
C980 C981 1.346 . S
C980 H985 0.930 . S
C981 N978 1.336 . S
C981 C980 1.346 . S
C981 H988 0.929 . S
C982 O972 1.282 . S
C982 O983 1.216 . S
O983 C982 1.216 . S
H984 C979 0.930 . S
H985 C980 0.930 . S
O986 Cu966 1.959 . S
O986 C973 1.251 . S
H987 C970 0.930 . S
H988 C981 0.929 . S
Cu989 N990 1.999 . S
Cu989 O995 1.974 . S
Cu989 N1000 1.985 . S
Cu989 O1009 1.959 . S
N990 Cu989 1.999 . S
N990 C992 1.263 . S
N990 C994 1.389 . S
N991 C992 1.358 . S
N991 C993 1.400 . S
C992 N990 1.263 . S
C992 N991 1.358 . S
C992 H998 0.930 . S
C993 N991 1.400 . S
C993 C994 1.351 . S
C993 H1010 0.930 . S
C994 N990 1.389 . S
C994 C993 1.351 . S
C994 H999 0.930 . S
O995 Cu989 1.974 . S
O995 C1005 1.282 . S
C996 O997 1.261 . S
C996 O1009 1.251 . S
O997 C996 1.261 . S
H998 C992 0.930 . S
H999 C994 0.930 . S
N1000 Cu989 1.985 . S
N1000 C1002 1.335 . S
N1000 C1003 1.390 . S
N1001 C1002 1.345 . S
N1001 C1004 1.336 . S
C1002 N1000 1.335 . S
C1002 N1001 1.345 . S
C1002 H1007 0.930 . S
C1003 N1000 1.390 . S
C1003 C1004 1.346 . S
C1003 H1008 0.930 . S
C1004 N1001 1.336 . S
C1004 C1003 1.346 . S
C1004 H1011 0.929 . S
C1005 O995 1.282 . S
C1005 O1006 1.216 . S
O1006 C1005 1.216 . S
H1007 C1002 0.930 . S
H1008 C1003 0.930 . S
O1009 Cu989 1.959 . S
O1009 C996 1.251 . S
H1010 C993 0.930 . S
H1011 C1004 0.929 . S
Cu1012 N1013 1.999 . S
Cu1012 O1018 1.974 . S
Cu1012 N1023 1.985 . S
Cu1012 O1032 1.959 . S
N1013 Cu1012 1.999 . S
N1013 C1015 1.263 . S
N1013 C1017 1.389 . S
N1014 C1015 1.358 . S
N1014 C1016 1.400 . S
C1015 N1013 1.263 . S
C1015 N1014 1.358 . S
C1015 H1021 0.930 . S
C1016 N1014 1.400 . S
C1016 C1017 1.351 . S
C1016 H1033 0.930 . S
C1017 N1013 1.389 . S
C1017 C1016 1.351 . S
C1017 H1022 0.930 . S
O1018 Cu1012 1.974 . S
O1018 C1028 1.282 . S
C1019 O1020 1.261 . S
C1019 O1032 1.251 . S
O1020 C1019 1.261 . S
H1021 C1015 0.930 . S
H1022 C1017 0.930 . S
N1023 Cu1012 1.985 . S
N1023 C1025 1.335 . S
N1023 C1026 1.390 . S
N1024 C1025 1.345 . S
N1024 C1027 1.336 . S
C1025 N1023 1.335 . S
C1025 N1024 1.345 . S
C1025 H1030 0.930 . S
C1026 N1023 1.390 . S
C1026 C1027 1.346 . S
C1026 H1031 0.930 . S
C1027 N1024 1.336 . S
C1027 C1026 1.346 . S
C1027 H1034 0.929 . S
C1028 O1018 1.282 . S
C1028 O1029 1.216 . S
O1029 C1028 1.216 . S
H1030 C1025 0.930 . S
H1031 C1026 0.930 . S
O1032 Cu1012 1.959 . S
O1032 C1019 1.251 . S
H1033 C1016 0.930 . S
H1034 C1027 0.929 . S
Cu1035 N1036 1.999 . S
Cu1035 O1041 1.974 . S
Cu1035 N1046 1.985 . S
Cu1035 O1055 1.959 . S
N1036 Cu1035 1.999 . S
N1036 C1038 1.263 . S
N1036 C1040 1.389 . S
N1037 C1038 1.358 . S
N1037 C1039 1.400 . S
C1038 N1036 1.263 . S
C1038 N1037 1.358 . S
C1038 H1044 0.930 . S
C1039 N1037 1.400 . S
C1039 C1040 1.351 . S
C1039 H1056 0.930 . S
C1040 N1036 1.389 . S
C1040 C1039 1.351 . S
C1040 H1045 0.930 . S
O1041 Cu1035 1.974 . S
O1041 C1051 1.282 . S
C1042 O1043 1.261 . S
C1042 O1055 1.251 . S
O1043 C1042 1.261 . S
H1044 C1038 0.930 . S
H1045 C1040 0.930 . S
N1046 Cu1035 1.985 . S
N1046 C1048 1.335 . S
N1046 C1049 1.390 . S
N1047 C1048 1.345 . S
N1047 C1050 1.336 . S
C1048 N1046 1.335 . S
C1048 N1047 1.345 . S
C1048 H1053 0.930 . S
C1049 N1046 1.390 . S
C1049 C1050 1.346 . S
C1049 H1054 0.930 . S
C1050 N1047 1.336 . S
C1050 C1049 1.346 . S
C1050 H1057 0.929 . S
C1051 O1041 1.282 . S
C1051 O1052 1.216 . S
O1052 C1051 1.216 . S
H1053 C1048 0.930 . S
H1054 C1049 0.930 . S
O1055 Cu1035 1.959 . S
O1055 C1042 1.251 . S
H1056 C1039 0.930 . S
H1057 C1050 0.929 . S
Cu1058 N1059 1.999 . S
Cu1058 O1064 1.974 . S
Cu1058 N1069 1.985 . S
Cu1058 O1078 1.959 . S
N1059 Cu1058 1.999 . S
N1059 C1061 1.263 . S
N1059 C1063 1.389 . S
N1060 C1061 1.358 . S
N1060 C1062 1.400 . S
C1061 N1059 1.263 . S
C1061 N1060 1.358 . S
C1061 H1067 0.930 . S
C1062 N1060 1.400 . S
C1062 C1063 1.351 . S
C1062 H1079 0.930 . S
C1063 N1059 1.389 . S
C1063 C1062 1.351 . S
C1063 H1068 0.930 . S
O1064 Cu1058 1.974 . S
O1064 C1074 1.282 . S
C1065 O1066 1.261 . S
C1065 O1078 1.251 . S
O1066 C1065 1.261 . S
H1067 C1061 0.930 . S
H1068 C1063 0.930 . S
N1069 Cu1058 1.985 . S
N1069 C1071 1.335 . S
N1069 C1072 1.390 . S
N1070 C1071 1.345 . S
N1070 C1073 1.336 . S
C1071 N1069 1.335 . S
C1071 N1070 1.345 . S
C1071 H1076 0.930 . S
C1072 N1069 1.390 . S
C1072 C1073 1.346 . S
C1072 H1077 0.930 . S
C1073 N1070 1.336 . S
C1073 C1072 1.346 . S
C1073 H1080 0.929 . S
C1074 O1064 1.282 . S
C1074 O1075 1.216 . S
O1075 C1074 1.216 . S
H1076 C1071 0.930 . S
H1077 C1072 0.930 . S
O1078 Cu1058 1.959 . S
O1078 C1065 1.251 . S
H1079 C1062 0.930 . S
H1080 C1073 0.929 . S
Cu1081 N1082 1.999 . S
Cu1081 O1087 1.974 . S
Cu1081 N1092 1.985 . S
Cu1081 O1101 1.959 . S
N1082 Cu1081 1.999 . S
N1082 C1084 1.263 . S
N1082 C1086 1.389 . S
N1083 C1084 1.358 . S
N1083 C1085 1.400 . S
C1084 N1082 1.263 . S
C1084 N1083 1.358 . S
C1084 H1090 0.930 . S
C1085 N1083 1.400 . S
C1085 C1086 1.351 . S
C1085 H1102 0.930 . S
C1086 N1082 1.389 . S
C1086 C1085 1.351 . S
C1086 H1091 0.930 . S
O1087 Cu1081 1.974 . S
O1087 C1097 1.282 . S
C1088 O1089 1.261 . S
C1088 O1101 1.251 . S
O1089 C1088 1.261 . S
H1090 C1084 0.930 . S
H1091 C1086 0.930 . S
N1092 Cu1081 1.985 . S
N1092 C1094 1.335 . S
N1092 C1095 1.390 . S
N1093 C1094 1.345 . S
N1093 C1096 1.336 . S
C1094 N1092 1.335 . S
C1094 N1093 1.345 . S
C1094 H1099 0.930 . S
C1095 N1092 1.390 . S
C1095 C1096 1.346 . S
C1095 H1100 0.930 . S
C1096 N1093 1.336 . S
C1096 C1095 1.346 . S
C1096 H1103 0.929 . S
C1097 O1087 1.282 . S
C1097 O1098 1.216 . S
O1098 C1097 1.216 . S
H1099 C1094 0.930 . S
H1100 C1095 0.930 . S
O1101 Cu1081 1.959 . S
O1101 C1088 1.251 . S
H1102 C1085 0.930 . S
H1103 C1096 0.929 . S
C1104 C1105 1.387 . S
C1104 H1108 0.950 . S
C1104 C1113 1.390 . S
C1105 C1104 1.387 . S
C1105 C1107 1.387 . S
H1106 C1113 0.950 . S
C1107 C1105 1.387 . S
C1107 C1109 1.390 . S
C1107 H1111 0.950 . S
H1108 C1104 0.950 . S
C1109 C1107 1.390 . S
C1109 C1110 1.387 . S
C1109 H1112 0.950 . S
C1110 C1109 1.387 . S
C1110 C1113 1.387 . S
H1111 C1107 0.950 . S
H1112 C1109 0.950 . S
C1113 C1104 1.390 . S
C1113 H1106 0.950 . S
C1113 C1110 1.387 . S
C1114 C1115 1.387 . S
C1114 H1118 0.950 . S
C1114 C1123 1.390 . S
C1115 C1114 1.387 . S
C1115 C1117 1.387 . S
H1116 C1123 0.950 . S
C1117 C1115 1.387 . S
C1117 C1119 1.390 . S
C1117 H1121 0.950 . S
H1118 C1114 0.950 . S
C1119 C1117 1.390 . S
C1119 C1120 1.387 . S
C1119 H1122 0.950 . S
C1120 C1119 1.387 . S
C1120 C1123 1.387 . S
H1121 C1117 0.950 . S
H1122 C1119 0.950 . S
C1123 C1114 1.390 . S
C1123 H1116 0.950 . S
C1123 C1120 1.387 . S
C1124 C1125 1.387 . S
C1124 H1128 0.950 . S
C1124 C1133 1.390 . S
C1125 C1124 1.387 . S
C1125 C1127 1.387 . S
H1126 C1133 0.950 . S
C1127 C1125 1.387 . S
C1127 C1129 1.390 . S
C1127 H1131 0.950 . S
H1128 C1124 0.950 . S
C1129 C1127 1.390 . S
C1129 C1130 1.387 . S
C1129 H1132 0.950 . S
C1130 C1129 1.387 . S
C1130 C1133 1.387 . S
H1131 C1127 0.950 . S
H1132 C1129 0.950 . S
C1133 C1124 1.390 . S
C1133 H1126 0.950 . S
C1133 C1130 1.387 . S
C1134 C1135 1.387 . S
C1134 H1138 0.950 . S
C1134 C1143 1.390 . S
C1135 C1134 1.387 . S
C1135 C1137 1.387 . S
H1136 C1143 0.950 . S
C1137 C1135 1.387 . S
C1137 C1139 1.390 . S
C1137 H1141 0.950 . S
H1138 C1134 0.950 . S
C1139 C1137 1.390 . S
C1139 C1140 1.387 . S
C1139 H1142 0.950 . S
C1140 C1139 1.387 . S
C1140 C1143 1.387 . S
H1141 C1137 0.950 . S
H1142 C1139 0.950 . S
C1143 C1134 1.390 . S
C1143 H1136 0.950 . S
C1143 C1140 1.387 . S
C1144 C1145 1.387 . S
C1144 H1148 0.950 . S
C1144 C1153 1.390 . S
C1145 C1144 1.387 . S
C1145 C1147 1.387 . S
H1146 C1153 0.950 . S
C1147 C1145 1.387 . S
C1147 C1149 1.390 . S
C1147 H1151 0.950 . S
H1148 C1144 0.950 . S
C1149 C1147 1.390 . S
C1149 C1150 1.387 . S
C1149 H1152 0.950 . S
C1150 C1149 1.387 . S
C1150 C1153 1.387 . S
H1151 C1147 0.950 . S
H1152 C1149 0.950 . S
C1153 C1144 1.390 . S
C1153 H1146 0.950 . S
C1153 C1150 1.387 . S
C1154 C1155 1.387 . S
C1154 H1158 0.950 . S
C1154 C1163 1.390 . S
C1155 C1154 1.387 . S
C1155 C1157 1.387 . S
H1156 C1163 0.950 . S
C1157 C1155 1.387 . S
C1157 C1159 1.390 . S
C1157 H1161 0.950 . S
H1158 C1154 0.950 . S
C1159 C1157 1.390 . S
C1159 C1160 1.387 . S
C1159 H1162 0.950 . S
C1160 C1159 1.387 . S
C1160 C1163 1.387 . S
H1161 C1157 0.950 . S
H1162 C1159 0.950 . S
C1163 C1154 1.390 . S
C1163 H1156 0.950 . S
C1163 C1160 1.387 . S
C1164 C1165 1.387 . S
C1164 H1168 0.950 . S
C1164 C1173 1.390 . S
C1165 C1164 1.387 . S
C1165 C1167 1.387 . S
H1166 C1173 0.950 . S
C1167 C1165 1.387 . S
C1167 C1169 1.390 . S
C1167 H1171 0.950 . S
H1168 C1164 0.950 . S
C1169 C1167 1.390 . S
C1169 C1170 1.387 . S
C1169 H1172 0.950 . S
C1170 C1169 1.387 . S
C1170 C1173 1.387 . S
H1171 C1167 0.950 . S
H1172 C1169 0.950 . S
C1173 C1164 1.390 . S
C1173 H1166 0.950 . S
C1173 C1170 1.387 . S
C1174 C1175 1.387 . S
C1174 H1178 0.950 . S
C1174 C1183 1.390 . S
C1175 C1174 1.387 . S
C1175 C1177 1.387 . S
H1176 C1183 0.950 . S
C1177 C1175 1.387 . S
C1177 C1179 1.390 . S
C1177 H1181 0.950 . S
H1178 C1174 0.950 . S
C1179 C1177 1.390 . S
C1179 C1180 1.387 . S
C1179 H1182 0.950 . S
C1180 C1179 1.387 . S
C1180 C1183 1.387 . S
H1181 C1177 0.950 . S
H1182 C1179 0.950 . S
C1183 C1174 1.390 . S
C1183 H1176 0.950 . S
C1183 C1180 1.387 . S
C1184 C1185 1.387 . S
C1184 H1188 0.950 . S
C1184 C1193 1.390 . S
C1185 C1184 1.387 . S
C1185 C1187 1.387 . S
H1186 C1193 0.950 . S
C1187 C1185 1.387 . S
C1187 C1189 1.390 . S
C1187 H1191 0.950 . S
H1188 C1184 0.950 . S
C1189 C1187 1.390 . S
C1189 C1190 1.387 . S
C1189 H1192 0.950 . S
C1190 C1189 1.387 . S
C1190 C1193 1.387 . S
H1191 C1187 0.950 . S
H1192 C1189 0.950 . S
C1193 C1184 1.390 . S
C1193 H1186 0.950 . S
C1193 C1190 1.387 . S
C1194 C1195 1.387 . S
C1194 H1198 0.950 . S
C1194 C1203 1.390 . S
C1195 C1194 1.387 . S
C1195 C1197 1.387 . S
H1196 C1203 0.950 . S
C1197 C1195 1.387 . S
C1197 C1199 1.390 . S
C1197 H1201 0.950 . S
H1198 C1194 0.950 . S
C1199 C1197 1.390 . S
C1199 C1200 1.387 . S
C1199 H1202 0.950 . S
C1200 C1199 1.387 . S
C1200 C1203 1.387 . S
H1201 C1197 0.950 . S
H1202 C1199 0.950 . S
C1203 C1194 1.390 . S
C1203 H1196 0.950 . S
C1203 C1200 1.387 . S
C1204 C1205 1.387 . S
C1204 H1208 0.950 . S
C1204 C1213 1.390 . S
C1205 C1204 1.387 . S
C1205 C1207 1.387 . S
H1206 C1213 0.950 . S
C1207 C1205 1.387 . S
C1207 C1209 1.390 . S
C1207 H1211 0.950 . S
H1208 C1204 0.950 . S
C1209 C1207 1.390 . S
C1209 C1210 1.387 . S
C1209 H1212 0.950 . S
C1210 C1209 1.387 . S
C1210 C1213 1.387 . S
H1211 C1207 0.950 . S
H1212 C1209 0.950 . S
C1213 C1204 1.390 . S
C1213 H1206 0.950 . S
C1213 C1210 1.387 . S
C1214 C1215 1.387 . S
C1214 H1218 0.950 . S
C1214 C1223 1.390 . S
C1215 C1214 1.387 . S
C1215 C1217 1.387 . S
H1216 C1223 0.950 . S
C1217 C1215 1.387 . S
C1217 C1219 1.390 . S
C1217 H1221 0.950 . S
H1218 C1214 0.950 . S
C1219 C1217 1.390 . S
C1219 C1220 1.387 . S
C1219 H1222 0.950 . S
C1220 C1219 1.387 . S
C1220 C1223 1.387 . S
H1221 C1217 0.950 . S
H1222 C1219 0.950 . S
C1223 C1214 1.390 . S
C1223 H1216 0.950 . S
C1223 C1220 1.387 . S
C1224 C1225 1.387 . S
C1224 H1228 0.950 . S
C1224 C1233 1.390 . S
C1225 C1224 1.387 . S
C1225 C1227 1.387 . S
H1226 C1233 0.950 . S
C1227 C1225 1.387 . S
C1227 C1229 1.390 . S
C1227 H1231 0.950 . S
H1228 C1224 0.950 . S
C1229 C1227 1.390 . S
C1229 C1230 1.387 . S
C1229 H1232 0.950 . S
C1230 C1229 1.387 . S
C1230 C1233 1.387 . S
H1231 C1227 0.950 . S
H1232 C1229 0.950 . S
C1233 C1224 1.390 . S
C1233 H1226 0.950 . S
C1233 C1230 1.387 . S
C1234 C1235 1.387 . S
C1234 H1238 0.950 . S
C1234 C1243 1.390 . S
C1235 C1234 1.387 . S
C1235 C1237 1.387 . S
H1236 C1243 0.950 . S
C1237 C1235 1.387 . S
C1237 C1239 1.390 . S
C1237 H1241 0.950 . S
H1238 C1234 0.950 . S
C1239 C1237 1.390 . S
C1239 C1240 1.387 . S
C1239 H1242 0.950 . S
C1240 C1239 1.387 . S
C1240 C1243 1.387 . S
H1241 C1237 0.950 . S
H1242 C1239 0.950 . S
C1243 C1234 1.390 . S
C1243 H1236 0.950 . S
C1243 C1240 1.387 . S
C1244 C1245 1.387 . S
C1244 H1248 0.950 . S
C1244 C1253 1.390 . S
C1245 C1244 1.387 . S
C1245 C1247 1.387 . S
H1246 C1253 0.950 . S
C1247 C1245 1.387 . S
C1247 C1249 1.390 . S
C1247 H1251 0.950 . S
H1248 C1244 0.950 . S
C1249 C1247 1.390 . S
C1249 C1250 1.387 . S
C1249 H1252 0.950 . S
C1250 C1249 1.387 . S
C1250 C1253 1.387 . S
H1251 C1247 0.950 . S
H1252 C1249 0.950 . S
C1253 C1244 1.390 . S
C1253 H1246 0.950 . S
C1253 C1250 1.387 . S
C1254 C1255 1.387 . S
C1254 H1258 0.950 . S
C1254 C1263 1.390 . S
C1255 C1254 1.387 . S
C1255 C1257 1.387 . S
H1256 C1263 0.950 . S
C1257 C1255 1.387 . S
C1257 C1259 1.390 . S
C1257 H1261 0.950 . S
H1258 C1254 0.950 . S
C1259 C1257 1.390 . S
C1259 C1260 1.387 . S
C1259 H1262 0.950 . S
C1260 C1259 1.387 . S
C1260 C1263 1.387 . S
H1261 C1257 0.950 . S
H1262 C1259 0.950 . S
C1263 C1254 1.390 . S
C1263 H1256 0.950 . S
C1263 C1260 1.387 . S
C1264 C1265 1.387 . S
C1264 H1268 0.950 . S
C1264 C1273 1.390 . S
C1265 C1264 1.387 . S
C1265 C1267 1.387 . S
H1266 C1273 0.950 . S
C1267 C1265 1.387 . S
C1267 C1269 1.390 . S
C1267 H1271 0.950 . S
H1268 C1264 0.950 . S
C1269 C1267 1.390 . S
C1269 C1270 1.387 . S
C1269 H1272 0.950 . S
C1270 C1269 1.387 . S
C1270 C1273 1.387 . S
H1271 C1267 0.950 . S
H1272 C1269 0.950 . S
C1273 C1264 1.390 . S
C1273 H1266 0.950 . S
C1273 C1270 1.387 . S
C1274 C1275 1.387 . S
C1274 H1278 0.950 . S
C1274 C1283 1.390 . S
C1275 C1274 1.387 . S
C1275 C1277 1.387 . S
H1276 C1283 0.950 . S
C1277 C1275 1.387 . S
C1277 C1279 1.390 . S
C1277 H1281 0.950 . S
H1278 C1274 0.950 . S
C1279 C1277 1.390 . S
C1279 C1280 1.387 . S
C1279 H1282 0.950 . S
C1280 C1279 1.387 . S
C1280 C1283 1.387 . S
H1281 C1277 0.950 . S
H1282 C1279 0.950 . S
C1283 C1274 1.390 . S
C1283 H1276 0.950 . S
C1283 C1280 1.387 . S
C1284 C1285 1.387 . S
C1284 H1288 0.950 . S
C1284 C1293 1.390 . S
C1285 C1284 1.387 . S
C1285 C1287 1.387 . S
H1286 C1293 0.950 . S
C1287 C1285 1.387 . S
C1287 C1289 1.390 . S
C1287 H1291 0.950 . S
H1288 C1284 0.950 . S
C1289 C1287 1.390 . S
C1289 C1290 1.387 . S
C1289 H1292 0.950 . S
C1290 C1289 1.387 . S
C1290 C1293 1.387 . S
H1291 C1287 0.950 . S
H1292 C1289 0.950 . S
C1293 C1284 1.390 . S
C1293 H1286 0.950 . S
C1293 C1290 1.387 . S
C1294 C1295 1.387 . S
C1294 H1298 0.950 . S
C1294 C1303 1.390 . S
C1295 C1294 1.387 . S
C1295 C1297 1.387 . S
H1296 C1303 0.950 . S
C1297 C1295 1.387 . S
C1297 C1299 1.390 . S
C1297 H1301 0.950 . S
H1298 C1294 0.950 . S
C1299 C1297 1.390 . S
C1299 C1300 1.387 . S
C1299 H1302 0.950 . S
C1300 C1299 1.387 . S
C1300 C1303 1.387 . S
H1301 C1297 0.950 . S
H1302 C1299 0.950 . S
C1303 C1294 1.390 . S
C1303 H1296 0.950 . S
C1303 C1300 1.387 . S
C1304 C1305 1.387 . S
C1304 H1308 0.950 . S
C1304 C1313 1.390 . S
C1305 C1304 1.387 . S
C1305 C1307 1.387 . S
H1306 C1313 0.950 . S
C1307 C1305 1.387 . S
C1307 C1309 1.390 . S
C1307 H1311 0.950 . S
H1308 C1304 0.950 . S
C1309 C1307 1.390 . S
C1309 C1310 1.387 . S
C1309 H1312 0.950 . S
C1310 C1309 1.387 . S
C1310 C1313 1.387 . S
H1311 C1307 0.950 . S
H1312 C1309 0.950 . S
C1313 C1304 1.390 . S
C1313 H1306 0.950 . S
C1313 C1310 1.387 . S
C1314 C1315 1.387 . S
C1314 H1318 0.950 . S
C1314 C1323 1.390 . S
C1315 C1314 1.387 . S
C1315 C1317 1.387 . S
H1316 C1323 0.950 . S
C1317 C1315 1.387 . S
C1317 C1319 1.390 . S
C1317 H1321 0.950 . S
H1318 C1314 0.950 . S
C1319 C1317 1.390 . S
C1319 C1320 1.387 . S
C1319 H1322 0.950 . S
C1320 C1319 1.387 . S
C1320 C1323 1.387 . S
H1321 C1317 0.950 . S
H1322 C1319 0.950 . S
C1323 C1314 1.390 . S
C1323 H1316 0.950 . S
C1323 C1320 1.387 . S
C1324 C1325 1.387 . S
C1324 H1328 0.950 . S
C1324 C1333 1.390 . S
C1325 C1324 1.387 . S
C1325 C1327 1.387 . S
H1326 C1333 0.950 . S
C1327 C1325 1.387 . S
C1327 C1329 1.390 . S
C1327 H1331 0.950 . S
H1328 C1324 0.950 . S
C1329 C1327 1.390 . S
C1329 C1330 1.387 . S
C1329 H1332 0.950 . S
C1330 C1329 1.387 . S
C1330 C1333 1.387 . S
H1331 C1327 0.950 . S
H1332 C1329 0.950 . S
C1333 C1324 1.390 . S
C1333 H1326 0.950 . S
C1333 C1330 1.387 . S
C1334 C1335 1.387 . S
C1334 H1338 0.950 . S
C1334 C1343 1.390 . S
C1335 C1334 1.387 . S
C1335 C1337 1.387 . S
H1336 C1343 0.950 . S
C1337 C1335 1.387 . S
C1337 C1339 1.390 . S
C1337 H1341 0.950 . S
H1338 C1334 0.950 . S
C1339 C1337 1.390 . S
C1339 C1340 1.387 . S
C1339 H1342 0.950 . S
C1340 C1339 1.387 . S
C1340 C1343 1.387 . S
H1341 C1337 0.950 . S
H1342 C1339 0.950 . S
C1343 C1334 1.390 . S
C1343 H1336 0.950 . S
C1343 C1340 1.387 . S
C1344 C1345 1.387 . S
C1344 H1348 0.950 . S
C1344 C1353 1.390 . S
C1345 C1344 1.387 . S
C1345 C1347 1.387 1_455 S
H1346 C1353 0.950 . S
C1347 C1345 1.387 1_655 S
C1347 C1349 1.390 . S
C1347 H1351 0.950 . S
H1348 C1344 0.950 . S
C1349 C1347 1.390 . S
C1349 C1350 1.387 . S
C1349 H1352 0.950 . S
C1350 C1349 1.387 . S
C1350 C1353 1.387 1_655 S
H1351 C1347 0.950 . S
H1352 C1349 0.950 . S
C1353 C1344 1.390 . S
C1353 H1346 0.950 . S
C1353 C1350 1.387 1_455 S
C1354 C1355 1.387 . S
C1354 H1358 0.950 1_565 S
C1354 C1363 1.390 1_565 S
C1355 C1354 1.387 . S
C1355 C1357 1.387 . S
H1356 C1363 0.950 . S
C1357 C1355 1.387 . S
C1357 C1359 1.390 . S
C1357 H1361 0.950 . S
H1358 C1354 0.950 1_545 S
C1359 C1357 1.390 . S
C1359 C1360 1.387 . S
C1359 H1362 0.950 . S
C1360 C1359 1.387 . S
C1360 C1363 1.387 1_565 S
H1361 C1357 0.950 . S
H1362 C1359 0.950 . S
C1363 C1354 1.390 1_545 S
C1363 H1356 0.950 . S
C1363 C1360 1.387 1_545 S
C1364 C1365 1.387 . S
C1364 H1368 0.950 . S
C1364 C1373 1.390 . S
C1365 C1364 1.387 . S
C1365 C1367 1.387 1_455 S
H1366 C1373 0.950 . S
C1367 C1365 1.387 1_655 S
C1367 C1369 1.390 . S
C1367 H1371 0.950 . S
H1368 C1364 0.950 . S
C1369 C1367 1.390 . S
C1369 C1370 1.387 . S
C1369 H1372 0.950 . S
C1370 C1369 1.387 . S
C1370 C1373 1.387 1_655 S
H1371 C1367 0.950 . S
H1372 C1369 0.950 . S
C1373 C1364 1.390 . S
C1373 H1366 0.950 . S
C1373 C1370 1.387 1_455 S
C1374 C1375 1.386 1_565 S
C1374 H1378 0.951 . S
C1374 C1383 1.391 . S
C1375 C1374 1.386 1_545 S
C1375 C1377 1.387 . S
H1376 C1383 0.950 . S
C1377 C1375 1.387 . S
C1377 C1379 1.390 . S
C1377 H1381 0.950 . S
H1378 C1374 0.951 . S
C1379 C1377 1.390 . S
C1379 C1380 1.387 . S
C1379 H1382 0.950 . S
C1380 C1379 1.387 . S
C1380 C1383 1.387 1_545 S
H1381 C1377 0.950 . S
H1382 C1379 0.950 . S
C1383 C1374 1.391 . S
C1383 H1376 0.950 . S
C1383 C1380 1.387 1_565 S
C1384 C1385 1.387 . S
C1384 H1388 0.950 . S
C1384 C1393 1.390 . S
C1385 C1384 1.387 . S
C1385 C1387 1.387 1_655 S
H1386 C1393 0.950 . S
C1387 C1385 1.387 1_455 S
C1387 C1389 1.390 . S
C1387 H1391 0.950 . S
H1388 C1384 0.950 . S
C1389 C1387 1.390 . S
C1389 C1390 1.387 . S
C1389 H1392 0.950 . S
C1390 C1389 1.387 . S
C1390 C1393 1.387 1_455 S
H1391 C1387 0.950 . S
H1392 C1389 0.950 . S
C1393 C1384 1.390 . S
C1393 H1386 0.950 . S
C1393 C1390 1.387 1_655 S
C1394 C1395 1.387 . S
C1394 H1398 0.950 . S
C1394 C1403 1.390 . S
C1395 C1394 1.387 . S
C1395 C1397 1.387 1_565 S
H1396 C1403 0.950 . S
C1397 C1395 1.387 1_545 S
C1397 C1399 1.390 . S
C1397 H1401 0.950 . S
H1398 C1394 0.950 . S
C1399 C1397 1.390 . S
C1399 C1400 1.387 1_545 S
C1399 H1402 0.950 . S
C1400 C1399 1.387 1_565 S
C1400 C1403 1.387 . S
H1401 C1397 0.950 . S
H1402 C1399 0.950 . S
C1403 C1394 1.390 . S
C1403 H1396 0.950 . S
C1403 C1400 1.387 . S
C1404 C1405 1.387 . S
C1404 H1408 0.950 . S
C1404 C1413 1.390 . S
C1405 C1404 1.387 . S
C1405 C1407 1.387 1_655 S
H1406 C1413 0.950 . S
C1407 C1405 1.387 1_455 S
C1407 C1409 1.390 . S
C1407 H1411 0.950 . S
H1408 C1404 0.950 . S
C1409 C1407 1.390 . S
C1409 C1410 1.387 . S
C1409 H1412 0.950 . S
C1410 C1409 1.387 . S
C1410 C1413 1.387 1_455 S
H1411 C1407 0.950 . S
H1412 C1409 0.950 . S
C1413 C1404 1.390 . S
C1413 H1406 0.950 . S
C1413 C1410 1.387 1_655 S
C1414 C1415 1.387 . S
C1414 H1418 0.950 . S
C1414 C1423 1.390 . S
C1415 C1414 1.387 . S
C1415 C1417 1.387 1_545 S
H1416 C1423 0.950 . S
C1417 C1415 1.387 1_565 S
C1417 C1419 1.390 . S
C1417 H1421 0.950 . S
H1418 C1414 0.950 . S
C1419 C1417 1.390 . S
C1419 C1420 1.387 1_565 S
C1419 H1422 0.950 . S
C1420 C1419 1.387 1_545 S
C1420 C1423 1.387 . S
H1421 C1417 0.950 . S
H1422 C1419 0.950 . S
C1423 C1414 1.390 . S
C1423 H1416 0.950 . S
C1423 C1420 1.387 . S
C1424 C1425 1.387 . S
C1424 H1428 0.950 . S
C1424 C1433 1.390 . S
C1425 C1424 1.387 . S
C1425 C1427 1.387 1_556 S
H1426 C1433 0.950 . S
C1427 C1425 1.387 1_554 S
C1427 C1429 1.390 . S
C1427 H1431 0.950 . S
H1428 C1424 0.950 . S
C1429 C1427 1.390 . S
C1429 C1430 1.387 1_554 S
C1429 H1432 0.950 . S
C1430 C1429 1.387 1_556 S
C1430 C1433 1.387 . S
H1431 C1427 0.950 . S
H1432 C1429 0.950 . S
C1433 C1424 1.390 . S
C1433 H1426 0.950 . S
C1433 C1430 1.387 . S
C1434 C1435 1.387 1_556 S
C1434 H1438 0.950 . S
C1434 C1443 1.390 . S
C1435 C1434 1.387 1_554 S
C1435 C1437 1.387 . S
H1436 C1443 0.950 . S
C1437 C1435 1.387 . S
C1437 C1439 1.390 . S
C1437 H1441 0.950 . S
H1438 C1434 0.950 . S
C1439 C1437 1.390 . S
C1439 C1440 1.387 . S
C1439 H1442 0.950 . S
C1440 C1439 1.387 . S
C1440 C1443 1.387 1_554 S
H1441 C1437 0.950 . S
H1442 C1439 0.950 . S
C1443 C1434 1.390 . S
C1443 H1436 0.950 . S
C1443 C1440 1.387 1_556 S
C1444 C1445 1.387 . S
C1444 H1448 0.950 . S
C1444 C1453 1.390 . S
C1445 C1444 1.387 . S
C1445 C1447 1.387 1_554 S
H1446 C1453 0.950 . S
C1447 C1445 1.387 1_556 S
C1447 C1449 1.390 . S
C1447 H1451 0.950 . S
H1448 C1444 0.950 . S
C1449 C1447 1.390 . S
C1449 C1450 1.387 1_556 S
C1449 H1452 0.950 . S
C1450 C1449 1.387 1_554 S
C1450 C1453 1.387 . S
H1451 C1447 0.950 . S
H1452 C1449 0.950 . S
C1453 C1444 1.390 . S
C1453 H1446 0.950 . S
C1453 C1450 1.387 . S
C1454 C1455 1.387 1_554 S
C1454 H1458 0.950 . S
C1454 C1463 1.390 . S
C1455 C1454 1.387 1_556 S
C1455 C1457 1.387 . S
H1456 C1463 0.950 . S
C1457 C1455 1.387 . S
C1457 C1459 1.390 . S
C1457 H1461 0.950 . S
H1458 C1454 0.950 . S
C1459 C1457 1.390 . S
C1459 C1460 1.387 . S
C1459 H1462 0.950 . S
C1460 C1459 1.387 . S
C1460 C1463 1.387 1_556 S
H1461 C1457 0.950 . S
H1462 C1459 0.950 . S
C1463 C1454 1.390 . S
C1463 H1456 0.950 . S
C1463 C1460 1.387 1_554 S
C1464 C1465 1.387 . S
C1464 H1468 0.950 . S
C1464 C1473 1.390 . S
C1465 C1464 1.387 . S
C1465 C1467 1.387 . S
H1466 C1473 0.950 . S
C1467 C1465 1.387 . S
C1467 C1469 1.390 . S
C1467 H1471 0.950 . S
H1468 C1464 0.950 . S
C1469 C1467 1.390 . S
C1469 C1470 1.387 . S
C1469 H1472 0.950 . S
C1470 C1469 1.387 . S
C1470 C1473 1.387 . S
H1471 C1467 0.950 . S
H1472 C1469 0.950 . S
C1473 C1464 1.390 . S
C1473 H1466 0.950 . S
C1473 C1470 1.387 . S
C1474 C1475 1.387 . S
C1474 H1478 0.950 . S
C1474 C1483 1.390 . S
C1475 C1474 1.387 . S
C1475 C1477 1.387 . S
H1476 C1483 0.950 . S
C1477 C1475 1.387 . S
C1477 C1479 1.390 . S
C1477 H1481 0.950 . S
H1478 C1474 0.950 . S
C1479 C1477 1.390 . S
C1479 C1480 1.387 . S
C1479 H1482 0.950 . S
C1480 C1479 1.387 . S
C1480 C1483 1.387 . S
H1481 C1477 0.950 . S
H1482 C1479 0.950 . S
C1483 C1474 1.390 . S
C1483 H1476 0.950 . S
C1483 C1480 1.387 . S
C1484 C1485 1.387 . S
C1484 H1488 0.950 . S
C1484 C1493 1.390 . S
C1485 C1484 1.387 . S
C1485 C1487 1.387 . S
H1486 C1493 0.950 . S
C1487 C1485 1.387 . S
C1487 C1489 1.390 . S
C1487 H1491 0.950 . S
H1488 C1484 0.950 . S
C1489 C1487 1.390 . S
C1489 C1490 1.387 . S
C1489 H1492 0.950 . S
C1490 C1489 1.387 . S
C1490 C1493 1.387 . S
H1491 C1487 0.950 . S
H1492 C1489 0.950 . S
C1493 C1484 1.390 . S
C1493 H1486 0.950 . S
C1493 C1490 1.387 . S
C1494 C1495 1.387 . S
C1494 H1498 0.950 . S
C1494 C1503 1.390 . S
C1495 C1494 1.387 . S
C1495 C1497 1.387 . S
H1496 C1503 0.950 . S
C1497 C1495 1.387 . S
C1497 C1499 1.390 . S
C1497 H1501 0.950 . S
H1498 C1494 0.950 . S
C1499 C1497 1.390 . S
C1499 C1500 1.387 . S
C1499 H1502 0.950 . S
C1500 C1499 1.387 . S
C1500 C1503 1.387 . S
H1501 C1497 0.950 . S
H1502 C1499 0.950 . S
C1503 C1494 1.390 . S
C1503 H1496 0.950 . S
C1503 C1500 1.387 . S
C1504 C1505 1.387 . S
C1504 H1508 0.950 . S
C1504 C1513 1.390 . S
C1505 C1504 1.387 . S
C1505 C1507 1.387 . S
H1506 C1513 0.950 . S
C1507 C1505 1.387 . S
C1507 C1509 1.390 . S
C1507 H1511 0.950 . S
H1508 C1504 0.950 . S
C1509 C1507 1.390 . S
C1509 C1510 1.387 . S
C1509 H1512 0.950 . S
C1510 C1509 1.387 . S
C1510 C1513 1.387 . S
H1511 C1507 0.950 . S
H1512 C1509 0.950 . S
C1513 C1504 1.390 . S
C1513 H1506 0.950 . S
C1513 C1510 1.387 . S
C1514 C1515 1.387 . S
C1514 H1518 0.950 . S
C1514 C1523 1.390 . S
C1515 C1514 1.387 . S
C1515 C1517 1.387 . S
H1516 C1523 0.950 . S
C1517 C1515 1.387 . S
C1517 C1519 1.390 . S
C1517 H1521 0.950 . S
H1518 C1514 0.950 . S
C1519 C1517 1.390 . S
C1519 C1520 1.387 . S
C1519 H1522 0.950 . S
C1520 C1519 1.387 . S
C1520 C1523 1.387 . S
H1521 C1517 0.950 . S
H1522 C1519 0.950 . S
C1523 C1514 1.390 . S
C1523 H1516 0.950 . S
C1523 C1520 1.387 . S
C1524 C1525 1.387 . S
C1524 H1528 0.950 . S
C1524 C1533 1.390 . S
C1525 C1524 1.387 . S
C1525 C1527 1.387 . S
H1526 C1533 0.950 . S
C1527 C1525 1.387 . S
C1527 C1529 1.390 . S
C1527 H1531 0.950 . S
H1528 C1524 0.950 . S
C1529 C1527 1.390 . S
C1529 C1530 1.387 . S
C1529 H1532 0.950 . S
C1530 C1529 1.387 . S
C1530 C1533 1.387 . S
H1531 C1527 0.950 . S
H1532 C1529 0.950 . S
C1533 C1524 1.390 . S
C1533 H1526 0.950 . S
C1533 C1530 1.387 . S
C1534 C1535 1.387 . S
C1534 H1538 0.950 . S
C1534 C1543 1.390 . S
C1535 C1534 1.387 . S
C1535 C1537 1.387 . S
H1536 C1543 0.950 . S
C1537 C1535 1.387 . S
C1537 C1539 1.390 . S
C1537 H1541 0.950 . S
H1538 C1534 0.950 . S
C1539 C1537 1.390 . S
C1539 C1540 1.387 . S
C1539 H1542 0.950 . S
C1540 C1539 1.387 . S
C1540 C1543 1.387 . S
H1541 C1537 0.950 . S
H1542 C1539 0.950 . S
C1543 C1534 1.390 . S
C1543 H1536 0.950 . S
C1543 C1540 1.387 . S
C1544 C1545 1.387 . S
C1544 H1548 0.950 . S
C1544 C1553 1.390 . S
C1545 C1544 1.387 . S
C1545 C1547 1.387 . S
H1546 C1553 0.950 . S
C1547 C1545 1.387 . S
C1547 C1549 1.390 . S
C1547 H1551 0.950 . S
H1548 C1544 0.950 . S
C1549 C1547 1.390 . S
C1549 C1550 1.387 . S
C1549 H1552 0.950 . S
C1550 C1549 1.387 . S
C1550 C1553 1.387 . S
H1551 C1547 0.950 . S
H1552 C1549 0.950 . S
C1553 C1544 1.390 . S
C1553 H1546 0.950 . S
C1553 C1550 1.387 . S
C1554 C1555 1.387 . S
C1554 H1558 0.950 . S
C1554 C1563 1.390 . S
C1555 C1554 1.387 . S
C1555 C1557 1.387 . S
H1556 C1563 0.950 . S
C1557 C1555 1.387 . S
C1557 C1559 1.390 . S
C1557 H1561 0.950 . S
H1558 C1554 0.950 . S
C1559 C1557 1.390 . S
C1559 C1560 1.387 . S
C1559 H1562 0.950 . S
C1560 C1559 1.387 . S
C1560 C1563 1.387 . S
H1561 C1557 0.950 . S
H1562 C1559 0.950 . S
C1563 C1554 1.390 . S
C1563 H1556 0.950 . S
C1563 C1560 1.387 . S
C1564 C1565 1.387 . S
C1564 H1568 0.950 . S
C1564 C1573 1.390 . S
C1565 C1564 1.387 . S
C1565 C1567 1.387 . S
H1566 C1573 0.950 . S
C1567 C1565 1.387 . S
C1567 C1569 1.390 . S
C1567 H1571 0.950 . S
H1568 C1564 0.950 . S
C1569 C1567 1.390 . S
C1569 C1570 1.387 . S
C1569 H1572 0.950 . S
C1570 C1569 1.387 . S
C1570 C1573 1.387 . S
H1571 C1567 0.950 . S
H1572 C1569 0.950 . S
C1573 C1564 1.390 . S
C1573 H1566 0.950 . S
C1573 C1570 1.387 . S
C1574 C1575 1.387 . S
C1574 H1578 0.950 . S
C1574 C1583 1.390 . S
C1575 C1574 1.387 . S
C1575 C1577 1.387 . S
H1576 C1583 0.950 . S
C1577 C1575 1.387 . S
C1577 C1579 1.390 . S
C1577 H1581 0.950 . S
H1578 C1574 0.950 . S
C1579 C1577 1.390 . S
C1579 C1580 1.387 . S
C1579 H1582 0.950 . S
C1580 C1579 1.387 . S
C1580 C1583 1.387 . S
H1581 C1577 0.950 . S
H1582 C1579 0.950 . S
C1583 C1574 1.390 . S
C1583 H1576 0.950 . S
C1583 C1580 1.387 . S
C1584 C1585 1.387 . S
C1584 H1588 0.950 . S
C1584 C1593 1.390 . S
C1585 C1584 1.387 . S
C1585 C1587 1.387 . S
H1586 C1593 0.950 . S
C1587 C1585 1.387 . S
C1587 C1589 1.390 . S
C1587 H1591 0.950 . S
H1588 C1584 0.950 . S
C1589 C1587 1.390 . S
C1589 C1590 1.387 . S
C1589 H1592 0.950 . S
C1590 C1589 1.387 . S
C1590 C1593 1.387 . S
H1591 C1587 0.950 . S
H1592 C1589 0.950 . S
C1593 C1584 1.390 . S
C1593 H1586 0.950 . S
C1593 C1590 1.387 . S
C1594 C1595 1.387 . S
C1594 H1598 0.950 . S
C1594 C1603 1.390 . S
C1595 C1594 1.387 . S
C1595 C1597 1.387 . S
H1596 C1603 0.950 . S
C1597 C1595 1.387 . S
C1597 C1599 1.390 . S
C1597 H1601 0.950 . S
H1598 C1594 0.950 . S
C1599 C1597 1.390 . S
C1599 C1600 1.387 . S
C1599 H1602 0.950 . S
C1600 C1599 1.387 . S
C1600 C1603 1.387 . S
H1601 C1597 0.950 . S
H1602 C1599 0.950 . S
C1603 C1594 1.390 . S
C1603 H1596 0.950 . S
C1603 C1600 1.387 . S
C1604 C1605 1.387 . S
C1604 H1608 0.950 . S
C1604 C1613 1.390 . S
C1605 C1604 1.387 . S
C1605 C1607 1.387 . S
H1606 C1613 0.950 . S
C1607 C1605 1.387 . S
C1607 C1609 1.390 . S
C1607 H1611 0.950 . S
H1608 C1604 0.950 . S
C1609 C1607 1.390 . S
C1609 C1610 1.387 . S
C1609 H1612 0.950 . S
C1610 C1609 1.387 . S
C1610 C1613 1.387 . S
H1611 C1607 0.950 . S
H1612 C1609 0.950 . S
C1613 C1604 1.390 . S
C1613 H1606 0.950 . S
C1613 C1610 1.387 . S
C1614 C1615 1.387 . S
C1614 H1618 0.950 . S
C1614 C1623 1.390 . S
C1615 C1614 1.387 . S
C1615 C1617 1.387 . S
H1616 C1623 0.950 . S
C1617 C1615 1.387 . S
C1617 C1619 1.390 . S
C1617 H1621 0.950 . S
H1618 C1614 0.950 . S
C1619 C1617 1.390 . S
C1619 C1620 1.387 . S
C1619 H1622 0.950 . S
C1620 C1619 1.387 . S
C1620 C1623 1.387 . S
H1621 C1617 0.950 . S
H1622 C1619 0.950 . S
C1623 C1614 1.390 . S
C1623 H1616 0.950 . S
C1623 C1620 1.387 . S
C1624 C1625 1.387 . S
C1624 H1628 0.950 . S
C1624 C1633 1.390 . S
C1625 C1624 1.387 . S
C1625 C1627 1.387 . S
H1626 C1633 0.950 . S
C1627 C1625 1.387 . S
C1627 C1629 1.390 . S
C1627 H1631 0.950 . S
H1628 C1624 0.950 . S
C1629 C1627 1.390 . S
C1629 C1630 1.387 . S
C1629 H1632 0.950 . S
C1630 C1629 1.387 . S
C1630 C1633 1.387 . S
H1631 C1627 0.950 . S
H1632 C1629 0.950 . S
C1633 C1624 1.390 . S
C1633 H1626 0.950 . S
C1633 C1630 1.387 . S
C1634 C1635 1.387 . S
C1634 H1638 0.950 . S
C1634 C1643 1.390 . S
C1635 C1634 1.387 . S
C1635 C1637 1.387 . S
H1636 C1643 0.950 . S
C1637 C1635 1.387 . S
C1637 C1639 1.390 . S
C1637 H1641 0.950 . S
H1638 C1634 0.950 . S
C1639 C1637 1.390 . S
C1639 C1640 1.387 . S
C1639 H1642 0.950 . S
C1640 C1639 1.387 . S
C1640 C1643 1.387 . S
H1641 C1637 0.950 . S
H1642 C1639 0.950 . S
C1643 C1634 1.390 . S
C1643 H1636 0.950 . S
C1643 C1640 1.387 . S
C1644 C1645 1.387 . S
C1644 H1648 0.950 . S
C1644 C1653 1.390 . S
C1645 C1644 1.387 . S
C1645 C1647 1.387 . S
H1646 C1653 0.950 . S
C1647 C1645 1.387 . S
C1647 C1649 1.390 . S
C1647 H1651 0.950 . S
H1648 C1644 0.950 . S
C1649 C1647 1.390 . S
C1649 C1650 1.387 . S
C1649 H1652 0.950 . S
C1650 C1649 1.387 . S
C1650 C1653 1.387 . S
H1651 C1647 0.950 . S
H1652 C1649 0.950 . S
C1653 C1644 1.390 . S
C1653 H1646 0.950 . S
C1653 C1650 1.387 . S
C1654 C1655 1.387 . S
C1654 H1658 0.950 . S
C1654 C1663 1.390 . S
C1655 C1654 1.387 . S
C1655 C1657 1.387 . S
H1656 C1663 0.950 . S
C1657 C1655 1.387 . S
C1657 C1659 1.390 . S
C1657 H1661 0.950 . S
H1658 C1654 0.950 . S
C1659 C1657 1.390 . S
C1659 C1660 1.387 . S
C1659 H1662 0.950 . S
C1660 C1659 1.387 . S
C1660 C1663 1.387 . S
H1661 C1657 0.950 . S
H1662 C1659 0.950 . S
C1663 C1654 1.390 . S
C1663 H1656 0.950 . S
C1663 C1660 1.387 . S
C1664 C1665 1.387 . S
C1664 H1668 0.950 . S
C1664 C1673 1.390 . S
C1665 C1664 1.387 . S
C1665 C1667 1.387 . S
H1666 C1673 0.950 . S
C1667 C1665 1.387 . S
C1667 C1669 1.390 . S
C1667 H1671 0.950 . S
H1668 C1664 0.950 . S
C1669 C1667 1.390 . S
C1669 C1670 1.387 . S
C1669 H1672 0.950 . S
C1670 C1669 1.387 . S
C1670 C1673 1.387 . S
H1671 C1667 0.950 . S
H1672 C1669 0.950 . S
C1673 C1664 1.390 . S
C1673 H1666 0.950 . S
C1673 C1670 1.387 . S
C1674 C1675 1.387 . S
C1674 H1678 0.950 . S
C1674 C1683 1.390 . S
C1675 C1674 1.387 . S
C1675 C1677 1.387 . S
H1676 C1683 0.950 . S
C1677 C1675 1.387 . S
C1677 C1679 1.390 . S
C1677 H1681 0.950 . S
H1678 C1674 0.950 . S
C1679 C1677 1.390 . S
C1679 C1680 1.387 . S
C1679 H1682 0.950 . S
C1680 C1679 1.387 . S
C1680 C1683 1.387 . S
H1681 C1677 0.950 . S
H1682 C1679 0.950 . S
C1683 C1674 1.390 . S
C1683 H1676 0.950 . S
C1683 C1680 1.387 . S
C1684 C1685 1.387 . S
C1684 H1688 0.950 . S
C1684 C1693 1.390 . S
C1685 C1684 1.387 . S
C1685 C1687 1.387 . S
H1686 C1693 0.950 . S
C1687 C1685 1.387 . S
C1687 C1689 1.390 . S
C1687 H1691 0.950 . S
H1688 C1684 0.950 . S
C1689 C1687 1.390 . S
C1689 C1690 1.387 . S
C1689 H1692 0.950 . S
C1690 C1689 1.387 . S
C1690 C1693 1.387 . S
H1691 C1687 0.950 . S
H1692 C1689 0.950 . S
C1693 C1684 1.390 . S
C1693 H1686 0.950 . S
C1693 C1690 1.387 . S
C1694 C1695 1.387 . S
C1694 H1698 0.950 . S
C1694 C1703 1.390 . S
C1695 C1694 1.387 . S
C1695 C1697 1.387 . S
H1696 C1703 0.950 . S
C1697 C1695 1.387 . S
C1697 C1699 1.390 . S
C1697 H1701 0.950 . S
H1698 C1694 0.950 . S
C1699 C1697 1.390 . S
C1699 C1700 1.387 . S
C1699 H1702 0.950 . S
C1700 C1699 1.387 . S
C1700 C1703 1.387 . S
H1701 C1697 0.950 . S
H1702 C1699 0.950 . S
C1703 C1694 1.390 . S
C1703 H1696 0.950 . S
C1703 C1700 1.387 . S
C1704 C1705 1.387 . S
C1704 H1708 0.950 . S
C1704 C1713 1.390 . S
C1705 C1704 1.387 . S
C1705 C1707 1.387 . S
H1706 C1713 0.950 . S
C1707 C1705 1.387 . S
C1707 C1709 1.390 . S
C1707 H1711 0.950 . S
H1708 C1704 0.950 . S
C1709 C1707 1.390 . S
C1709 C1710 1.387 . S
C1709 H1712 0.950 . S
C1710 C1709 1.387 . S
C1710 C1713 1.387 . S
H1711 C1707 0.950 . S
H1712 C1709 0.950 . S
C1713 C1704 1.390 . S
C1713 H1706 0.950 . S
C1713 C1710 1.387 . S
C1714 C1715 1.387 . S
C1714 H1718 0.950 . S
C1714 C1723 1.390 . S
C1715 C1714 1.387 . S
C1715 C1717 1.387 . S
H1716 C1723 0.950 . S
C1717 C1715 1.387 . S
C1717 C1719 1.390 . S
C1717 H1721 0.950 . S
H1718 C1714 0.950 . S
C1719 C1717 1.390 . S
C1719 C1720 1.387 . S
C1719 H1722 0.950 . S
C1720 C1719 1.387 . S
C1720 C1723 1.387 . S
H1721 C1717 0.950 . S
H1722 C1719 0.950 . S
C1723 C1714 1.390 . S
C1723 H1716 0.950 . S
C1723 C1720 1.387 . S
C1724 C1725 1.387 . S
C1724 H1728 0.950 . S
C1724 C1733 1.390 . S
C1725 C1724 1.387 . S
C1725 C1727 1.387 . S
H1726 C1733 0.950 . S
C1727 C1725 1.387 . S
C1727 C1729 1.390 . S
C1727 H1731 0.950 . S
H1728 C1724 0.950 . S
C1729 C1727 1.390 . S
C1729 C1730 1.387 . S
C1729 H1732 0.950 . S
C1730 C1729 1.387 . S
C1730 C1733 1.387 . S
H1731 C1727 0.950 . S
H1732 C1729 0.950 . S
C1733 C1724 1.390 . S
C1733 H1726 0.950 . S
C1733 C1730 1.387 . S
C1734 C1735 1.387 . S
C1734 H1738 0.950 . S
C1734 C1743 1.390 . S
C1735 C1734 1.387 . S
C1735 C1737 1.387 . S
H1736 C1743 0.950 . S
C1737 C1735 1.387 . S
C1737 C1739 1.390 . S
C1737 H1741 0.950 . S
H1738 C1734 0.950 . S
C1739 C1737 1.390 . S
C1739 C1740 1.387 . S
C1739 H1742 0.950 . S
C1740 C1739 1.387 . S
C1740 C1743 1.387 . S
H1741 C1737 0.950 . S
H1742 C1739 0.950 . S
C1743 C1734 1.390 . S
C1743 H1736 0.950 . S
C1743 C1740 1.387 . S
C1744 C1745 1.387 . S
C1744 H1748 0.950 . S
C1744 C1753 1.390 . S
C1745 C1744 1.387 . S
C1745 C1747 1.387 . S
H1746 C1753 0.950 . S
C1747 C1745 1.387 . S
C1747 C1749 1.390 . S
C1747 H1751 0.950 . S
H1748 C1744 0.950 . S
C1749 C1747 1.390 . S
C1749 C1750 1.387 . S
C1749 H1752 0.950 . S
C1750 C1749 1.387 . S
C1750 C1753 1.387 . S
H1751 C1747 0.950 . S
H1752 C1749 0.950 . S
C1753 C1744 1.390 . S
C1753 H1746 0.950 . S
C1753 C1750 1.387 . S
C1754 C1755 1.387 . S
C1754 H1758 0.950 . S
C1754 C1763 1.390 . S
C1755 C1754 1.387 . S
C1755 C1757 1.387 . S
H1756 C1763 0.950 . S
C1757 C1755 1.387 . S
C1757 C1759 1.390 . S
C1757 H1761 0.950 . S
H1758 C1754 0.950 . S
C1759 C1757 1.390 . S
C1759 C1760 1.387 . S
C1759 H1762 0.950 . S
C1760 C1759 1.387 . S
C1760 C1763 1.387 . S
H1761 C1757 0.950 . S
H1762 C1759 0.950 . S
C1763 C1754 1.390 . S
C1763 H1756 0.950 . S
C1763 C1760 1.387 . S
C1764 C1765 1.387 . S
C1764 H1768 0.950 . S
C1764 C1773 1.390 . S
C1765 C1764 1.387 . S
C1765 C1767 1.387 . S
H1766 C1773 0.950 . S
C1767 C1765 1.387 . S
C1767 C1769 1.390 . S
C1767 H1771 0.950 . S
H1768 C1764 0.950 . S
C1769 C1767 1.390 . S
C1769 C1770 1.387 . S
C1769 H1772 0.950 . S
C1770 C1769 1.387 . S
C1770 C1773 1.387 . S
H1771 C1767 0.950 . S
H1772 C1769 0.950 . S
C1773 C1764 1.390 . S
C1773 H1766 0.950 . S
C1773 C1770 1.387 . S
C1774 C1775 1.387 . S
C1774 H1778 0.950 . S
C1774 C1783 1.390 . S
C1775 C1774 1.387 . S
C1775 C1777 1.387 . S
H1776 C1783 0.950 . S
C1777 C1775 1.387 . S
C1777 C1779 1.390 . S
C1777 H1781 0.950 . S
H1778 C1774 0.950 . S
C1779 C1777 1.390 . S
C1779 C1780 1.387 . S
C1779 H1782 0.950 . S
C1780 C1779 1.387 . S
C1780 C1783 1.387 . S
H1781 C1777 0.950 . S
H1782 C1779 0.950 . S
C1783 C1774 1.390 . S
C1783 H1776 0.950 . S
C1783 C1780 1.387 . S
C1784 C1785 1.387 . S
C1784 H1788 0.950 . S
C1784 C1793 1.390 . S
C1785 C1784 1.387 . S
C1785 C1787 1.387 . S
H1786 C1793 0.950 . S
C1787 C1785 1.387 . S
C1787 C1789 1.390 . S
C1787 H1791 0.950 . S
H1788 C1784 0.950 . S
C1789 C1787 1.390 . S
C1789 C1790 1.387 . S
C1789 H1792 0.950 . S
C1790 C1789 1.387 . S
C1790 C1793 1.387 . S
H1791 C1787 0.950 . S
H1792 C1789 0.950 . S
C1793 C1784 1.390 . S
C1793 H1786 0.950 . S
C1793 C1790 1.387 . S
C1794 C1795 1.387 . S
C1794 H1798 0.950 . S
C1794 C1803 1.390 . S
C1795 C1794 1.387 . S
C1795 C1797 1.387 . S
H1796 C1803 0.950 . S
C1797 C1795 1.387 . S
C1797 C1799 1.390 . S
C1797 H1801 0.950 . S
H1798 C1794 0.950 . S
C1799 C1797 1.390 . S
C1799 C1800 1.387 . S
C1799 H1802 0.950 . S
C1800 C1799 1.387 . S
C1800 C1803 1.387 . S
H1801 C1797 0.950 . S
H1802 C1799 0.950 . S
C1803 C1794 1.390 . S
C1803 H1796 0.950 . S
C1803 C1800 1.387 . S
C1804 C1805 1.387 . S
C1804 H1808 0.950 . S
C1804 C1813 1.390 . S
C1805 C1804 1.387 . S
C1805 C1807 1.387 . S
H1806 C1813 0.950 . S
C1807 C1805 1.387 . S
C1807 C1809 1.390 . S
C1807 H1811 0.950 . S
H1808 C1804 0.950 . S
C1809 C1807 1.390 . S
C1809 C1810 1.387 . S
C1809 H1812 0.950 . S
C1810 C1809 1.387 . S
C1810 C1813 1.387 . S
H1811 C1807 0.950 . S
H1812 C1809 0.950 . S
C1813 C1804 1.390 . S
C1813 H1806 0.950 . S
C1813 C1810 1.387 . S
C1814 C1815 1.387 . S
C1814 H1818 0.950 . S
C1814 C1823 1.390 . S
C1815 C1814 1.387 . S
C1815 C1817 1.387 . S
H1816 C1823 0.950 . S
C1817 C1815 1.387 . S
C1817 C1819 1.390 . S
C1817 H1821 0.950 . S
H1818 C1814 0.950 . S
C1819 C1817 1.390 . S
C1819 C1820 1.387 . S
C1819 H1822 0.950 . S
C1820 C1819 1.387 . S
C1820 C1823 1.387 . S
H1821 C1817 0.950 . S
H1822 C1819 0.950 . S
C1823 C1814 1.390 . S
C1823 H1816 0.950 . S
C1823 C1820 1.387 . S
C1824 C1825 1.387 . S
C1824 H1828 0.950 . S
C1824 C1833 1.390 . S
C1825 C1824 1.387 . S
C1825 C1827 1.387 . S
H1826 C1833 0.950 . S
C1827 C1825 1.387 . S
C1827 C1829 1.390 . S
C1827 H1831 0.950 . S
H1828 C1824 0.950 . S
C1829 C1827 1.390 . S
C1829 C1830 1.387 . S
C1829 H1832 0.950 . S
C1830 C1829 1.387 . S
C1830 C1833 1.387 . S
H1831 C1827 0.950 . S
H1832 C1829 0.950 . S
C1833 C1824 1.390 . S
C1833 H1826 0.950 . S
C1833 C1830 1.387 . S
C1834 C1835 1.387 . S
C1834 H1838 0.950 . S
C1834 C1843 1.390 . S
C1835 C1834 1.387 . S
C1835 C1837 1.387 . S
H1836 C1843 0.950 . S
C1837 C1835 1.387 . S
C1837 C1839 1.390 . S
C1837 H1841 0.950 . S
H1838 C1834 0.950 . S
C1839 C1837 1.390 . S
C1839 C1840 1.387 . S
C1839 H1842 0.950 . S
C1840 C1839 1.387 . S
C1840 C1843 1.387 . S
H1841 C1837 0.950 . S
H1842 C1839 0.950 . S
C1843 C1834 1.390 . S
C1843 H1836 0.950 . S
C1843 C1840 1.387 . S
C1844 C1845 1.387 . S
C1844 H1848 0.950 . S
C1844 C1853 1.390 . S
C1845 C1844 1.387 . S
C1845 C1847 1.387 . S
H1846 C1853 0.950 . S
C1847 C1845 1.387 . S
C1847 C1849 1.390 . S
C1847 H1851 0.950 . S
H1848 C1844 0.950 . S
C1849 C1847 1.390 . S
C1849 C1850 1.387 . S
C1849 H1852 0.950 . S
C1850 C1849 1.387 . S
C1850 C1853 1.387 . S
H1851 C1847 0.950 . S
H1852 C1849 0.950 . S
C1853 C1844 1.390 . S
C1853 H1846 0.950 . S
C1853 C1850 1.387 . S
C1854 C1855 1.387 . S
C1854 H1858 0.950 . S
C1854 C1863 1.390 . S
C1855 C1854 1.387 . S
C1855 C1857 1.387 . S
H1856 C1863 0.950 . S
C1857 C1855 1.387 . S
C1857 C1859 1.390 . S
C1857 H1861 0.950 . S
H1858 C1854 0.950 . S
C1859 C1857 1.390 . S
C1859 C1860 1.387 . S
C1859 H1862 0.950 . S
C1860 C1859 1.387 . S
C1860 C1863 1.387 . S
H1861 C1857 0.950 . S
H1862 C1859 0.950 . S
C1863 C1854 1.390 . S
C1863 H1856 0.950 . S
C1863 C1860 1.387 . S
C1864 C1865 1.387 . S
C1864 H1868 0.950 . S
C1864 C1873 1.390 . S
C1865 C1864 1.387 . S
C1865 C1867 1.387 . S
H1866 C1873 0.950 . S
C1867 C1865 1.387 . S
C1867 C1869 1.390 . S
C1867 H1871 0.950 . S
H1868 C1864 0.950 . S
C1869 C1867 1.390 . S
C1869 C1870 1.387 . S
C1869 H1872 0.950 . S
C1870 C1869 1.387 . S
C1870 C1873 1.387 . S
H1871 C1867 0.950 . S
H1872 C1869 0.950 . S
C1873 C1864 1.390 . S
C1873 H1866 0.950 . S
C1873 C1870 1.387 . S
C1874 C1875 1.387 . S
C1874 H1878 0.950 . S
C1874 C1883 1.390 . S
C1875 C1874 1.387 . S
C1875 C1877 1.387 . S
H1876 C1883 0.950 . S
C1877 C1875 1.387 . S
C1877 C1879 1.390 . S
C1877 H1881 0.950 . S
H1878 C1874 0.950 . S
C1879 C1877 1.390 . S
C1879 C1880 1.387 . S
C1879 H1882 0.950 . S
C1880 C1879 1.387 . S
C1880 C1883 1.387 . S
H1881 C1877 0.950 . S
H1882 C1879 0.950 . S
C1883 C1874 1.390 . S
C1883 H1876 0.950 . S
C1883 C1880 1.387 . S
C1884 C1885 1.387 . S
C1884 H1888 0.950 . S
C1884 C1893 1.390 . S
C1885 C1884 1.387 . S
C1885 C1887 1.387 . S
H1886 C1893 0.950 . S
C1887 C1885 1.387 . S
C1887 C1889 1.390 . S
C1887 H1891 0.950 . S
H1888 C1884 0.950 . S
C1889 C1887 1.390 . S
C1889 C1890 1.387 . S
C1889 H1892 0.950 . S
C1890 C1889 1.387 . S
C1890 C1893 1.387 . S
H1891 C1887 0.950 . S
H1892 C1889 0.950 . S
C1893 C1884 1.390 . S
C1893 H1886 0.950 . S
C1893 C1890 1.387 . S
C1894 C1895 1.387 . S
C1894 H1898 0.950 . S
C1894 C1903 1.390 . S
C1895 C1894 1.387 . S
C1895 C1897 1.387 . S
H1896 C1903 0.950 . S
C1897 C1895 1.387 . S
C1897 C1899 1.390 . S
C1897 H1901 0.950 . S
H1898 C1894 0.950 . S
C1899 C1897 1.390 . S
C1899 C1900 1.387 . S
C1899 H1902 0.950 . S
C1900 C1899 1.387 . S
C1900 C1903 1.387 . S
H1901 C1897 0.950 . S
H1902 C1899 0.950 . S
C1903 C1894 1.390 . S
C1903 H1896 0.950 . S
C1903 C1900 1.387 . S
C1904 C1905 1.387 . S
C1904 H1908 0.950 . S
C1904 C1913 1.390 . S
C1905 C1904 1.387 . S
C1905 C1907 1.387 . S
H1906 C1913 0.950 . S
C1907 C1905 1.387 . S
C1907 C1909 1.390 . S
C1907 H1911 0.950 . S
H1908 C1904 0.950 . S
C1909 C1907 1.390 . S
C1909 C1910 1.387 . S
C1909 H1912 0.950 . S
C1910 C1909 1.387 . S
C1910 C1913 1.387 . S
H1911 C1907 0.950 . S
H1912 C1909 0.950 . S
C1913 C1904 1.390 . S
C1913 H1906 0.950 . S
C1913 C1910 1.387 . S
C1914 C1915 1.387 . S
C1914 H1918 0.950 . S
C1914 C1923 1.390 . S
C1915 C1914 1.387 . S
C1915 C1917 1.387 . S
H1916 C1923 0.950 . S
C1917 C1915 1.387 . S
C1917 C1919 1.390 . S
C1917 H1921 0.950 . S
H1918 C1914 0.950 . S
C1919 C1917 1.390 . S
C1919 C1920 1.387 . S
C1919 H1922 0.950 . S
C1920 C1919 1.387 . S
C1920 C1923 1.387 . S
H1921 C1917 0.950 . S
H1922 C1919 0.950 . S
C1923 C1914 1.390 . S
C1923 H1916 0.950 . S
C1923 C1920 1.387 . S
C1924 C1925 1.387 . S
C1924 H1928 0.950 . S
C1924 C1933 1.390 . S
C1925 C1924 1.387 . S
C1925 C1927 1.387 . S
H1926 C1933 0.950 . S
C1927 C1925 1.387 . S
C1927 C1929 1.390 . S
C1927 H1931 0.950 . S
H1928 C1924 0.950 . S
C1929 C1927 1.390 . S
C1929 C1930 1.387 . S
C1929 H1932 0.950 . S
C1930 C1929 1.387 . S
C1930 C1933 1.387 . S
H1931 C1927 0.950 . S
H1932 C1929 0.950 . S
C1933 C1924 1.390 . S
C1933 H1926 0.950 . S
C1933 C1930 1.387 . S
C1934 C1935 1.387 . S
C1934 H1938 0.950 . S
C1934 C1943 1.390 . S
C1935 C1934 1.387 . S
C1935 C1937 1.387 . S
H1936 C1943 0.950 . S
C1937 C1935 1.387 . S
C1937 C1939 1.390 . S
C1937 H1941 0.950 . S
H1938 C1934 0.950 . S
C1939 C1937 1.390 . S
C1939 C1940 1.387 . S
C1939 H1942 0.950 . S
C1940 C1939 1.387 . S
C1940 C1943 1.387 . S
H1941 C1937 0.950 . S
H1942 C1939 0.950 . S
C1943 C1934 1.390 . S
C1943 H1936 0.950 . S
C1943 C1940 1.387 . S
C1944 C1945 1.387 . S
C1944 H1948 0.950 . S
C1944 C1953 1.390 . S
C1945 C1944 1.387 . S
C1945 C1947 1.387 . S
H1946 C1953 0.950 . S
C1947 C1945 1.387 . S
C1947 C1949 1.390 . S
C1947 H1951 0.950 . S
H1948 C1944 0.950 . S
C1949 C1947 1.390 . S
C1949 C1950 1.387 . S
C1949 H1952 0.950 . S
C1950 C1949 1.387 . S
C1950 C1953 1.387 . S
H1951 C1947 0.950 . S
H1952 C1949 0.950 . S
C1953 C1944 1.390 . S
C1953 H1946 0.950 . S
C1953 C1950 1.387 . S
C1954 C1955 1.387 . S
C1954 H1958 0.950 . S
C1954 C1963 1.390 . S
C1955 C1954 1.387 . S
C1955 C1957 1.387 . S
H1956 C1963 0.950 . S
C1957 C1955 1.387 . S
C1957 C1959 1.390 . S
C1957 H1961 0.950 . S
H1958 C1954 0.950 . S
C1959 C1957 1.390 . S
C1959 C1960 1.387 . S
C1959 H1962 0.950 . S
C1960 C1959 1.387 . S
C1960 C1963 1.387 . S
H1961 C1957 0.950 . S
H1962 C1959 0.950 . S
C1963 C1954 1.390 . S
C1963 H1956 0.950 . S
C1963 C1960 1.387 . S
C1964 C1965 1.387 . S
C1964 H1968 0.950 . S
C1964 C1973 1.390 . S
C1965 C1964 1.387 . S
C1965 C1967 1.387 . S
H1966 C1973 0.950 . S
C1967 C1965 1.387 . S
C1967 C1969 1.390 . S
C1967 H1971 0.950 . S
H1968 C1964 0.950 . S
C1969 C1967 1.390 . S
C1969 C1970 1.387 . S
C1969 H1972 0.950 . S
C1970 C1969 1.387 . S
C1970 C1973 1.387 . S
H1971 C1967 0.950 . S
H1972 C1969 0.950 . S
C1973 C1964 1.390 . S
C1973 H1966 0.950 . S
C1973 C1970 1.387 . S
C1974 C1975 1.387 . S
C1974 H1978 0.950 . S
C1974 C1983 1.390 . S
C1975 C1974 1.387 . S
C1975 C1977 1.387 . S
H1976 C1983 0.950 . S
C1977 C1975 1.387 . S
C1977 C1979 1.390 . S
C1977 H1981 0.950 . S
H1978 C1974 0.950 . S
C1979 C1977 1.390 . S
C1979 C1980 1.387 . S
C1979 H1982 0.950 . S
C1980 C1979 1.387 . S
C1980 C1983 1.387 . S
H1981 C1977 0.950 . S
H1982 C1979 0.950 . S
C1983 C1974 1.390 . S
C1983 H1976 0.950 . S
C1983 C1980 1.387 . S
C1984 C1985 1.387 . S
C1984 H1988 0.950 . S
C1984 C1993 1.390 . S
C1985 C1984 1.387 . S
C1985 C1987 1.387 . S
H1986 C1993 0.950 . S
C1987 C1985 1.387 . S
C1987 C1989 1.390 . S
C1987 H1991 0.950 . S
H1988 C1984 0.950 . S
C1989 C1987 1.390 . S
C1989 C1990 1.387 . S
C1989 H1992 0.950 . S
C1990 C1989 1.387 . S
C1990 C1993 1.387 . S
H1991 C1987 0.950 . S
H1992 C1989 0.950 . S
C1993 C1984 1.390 . S
C1993 H1986 0.950 . S
C1993 C1990 1.387 . S
C1994 C1995 1.387 . S
C1994 H1998 0.950 . S
C1994 C2003 1.390 . S
C1995 C1994 1.387 . S
C1995 C1997 1.387 . S
H1996 C2003 0.950 . S
C1997 C1995 1.387 . S
C1997 C1999 1.390 . S
C1997 H2001 0.950 . S
H1998 C1994 0.950 . S
C1999 C1997 1.390 . S
C1999 C2000 1.387 . S
C1999 H2002 0.950 . S
C2000 C1999 1.387 . S
C2000 C2003 1.387 . S
H2001 C1997 0.950 . S
H2002 C1999 0.950 . S
C2003 C1994 1.390 . S
C2003 H1996 0.950 . S
C2003 C2000 1.387 . S
C2004 C2005 1.387 . S
C2004 H2008 0.950 . S
C2004 C2013 1.390 . S
C2005 C2004 1.387 . S
C2005 C2007 1.387 . S
H2006 C2013 0.950 . S
C2007 C2005 1.387 . S
C2007 C2009 1.390 . S
C2007 H2011 0.950 . S
H2008 C2004 0.950 . S
C2009 C2007 1.390 . S
C2009 C2010 1.387 . S
C2009 H2012 0.950 . S
C2010 C2009 1.387 . S
C2010 C2013 1.387 . S
H2011 C2007 0.950 . S
H2012 C2009 0.950 . S
C2013 C2004 1.390 . S
C2013 H2006 0.950 . S
C2013 C2010 1.387 . S
C2014 C2015 1.387 . S
C2014 H2018 0.950 . S
C2014 C2023 1.390 . S
C2015 C2014 1.387 . S
C2015 C2017 1.387 . S
H2016 C2023 0.950 . S
C2017 C2015 1.387 . S
C2017 C2019 1.390 . S
C2017 H2021 0.950 . S
H2018 C2014 0.950 . S
C2019 C2017 1.390 . S
C2019 C2020 1.387 . S
C2019 H2022 0.950 . S
C2020 C2019 1.387 . S
C2020 C2023 1.387 . S
H2021 C2017 0.950 . S
H2022 C2019 0.950 . S
C2023 C2014 1.390 . S
C2023 H2016 0.950 . S
C2023 C2020 1.387 . S
C2024 C2025 1.387 . S
C2024 H2028 0.950 . S
C2024 C2033 1.390 . S
C2025 C2024 1.387 . S
C2025 C2027 1.387 . S
H2026 C2033 0.950 . S
C2027 C2025 1.387 . S
C2027 C2029 1.390 . S
C2027 H2031 0.950 . S
H2028 C2024 0.950 . S
C2029 C2027 1.390 . S
C2029 C2030 1.387 . S
C2029 H2032 0.950 . S
C2030 C2029 1.387 . S
C2030 C2033 1.387 . S
H2031 C2027 0.950 . S
H2032 C2029 0.950 . S
C2033 C2024 1.390 . S
C2033 H2026 0.950 . S
C2033 C2030 1.387 . S
C2034 C2035 1.387 . S
C2034 H2038 0.950 . S
C2034 C2043 1.390 . S
C2035 C2034 1.387 . S
C2035 C2037 1.387 . S
H2036 C2043 0.950 . S
C2037 C2035 1.387 . S
C2037 C2039 1.390 . S
C2037 H2041 0.950 . S
H2038 C2034 0.950 . S
C2039 C2037 1.390 . S
C2039 C2040 1.387 . S
C2039 H2042 0.950 . S
C2040 C2039 1.387 . S
C2040 C2043 1.387 . S
H2041 C2037 0.950 . S
H2042 C2039 0.950 . S
C2043 C2034 1.390 . S
C2043 H2036 0.950 . S
C2043 C2040 1.387 . S
C2044 C2045 1.387 . S
C2044 H2048 0.950 . S
C2044 C2053 1.390 . S
C2045 C2044 1.387 . S
C2045 C2047 1.387 . S
H2046 C2053 0.950 . S
C2047 C2045 1.387 . S
C2047 C2049 1.390 . S
C2047 H2051 0.950 . S
H2048 C2044 0.950 . S
C2049 C2047 1.390 . S
C2049 C2050 1.387 . S
C2049 H2052 0.950 . S
C2050 C2049 1.387 . S
C2050 C2053 1.387 . S
H2051 C2047 0.950 . S
H2052 C2049 0.950 . S
C2053 C2044 1.390 . S
C2053 H2046 0.950 . S
C2053 C2050 1.387 . S
C2054 C2055 1.387 . S
C2054 H2058 0.950 . S
C2054 C2063 1.390 . S
C2055 C2054 1.387 . S
C2055 C2057 1.387 . S
H2056 C2063 0.950 . S
C2057 C2055 1.387 . S
C2057 C2059 1.390 . S
C2057 H2061 0.950 . S
H2058 C2054 0.950 . S
C2059 C2057 1.390 . S
C2059 C2060 1.387 . S
C2059 H2062 0.950 . S
C2060 C2059 1.387 . S
C2060 C2063 1.387 . S
H2061 C2057 0.950 . S
H2062 C2059 0.950 . S
C2063 C2054 1.390 . S
C2063 H2056 0.950 . S
C2063 C2060 1.387 . S
C1105 N725 1.928 . S
C1110 C7 2.049 . S
C1115 N35 1.930 . S
C1120 C651 2.049 . S
C1125 C53 2.050 . S
C1130 N679 1.930 . S
C1135 C697 2.049 . S
C1140 N81 1.930 . S
C1145 N587 1.927 . S
C1150 C99 2.049 . S
C1155 N127 1.930 . S
C1160 C605 2.050 . S
C1165 N633 1.927 . S
C1170 C145 2.049 . S
C1175 N173 1.930 . S
C1180 C559 2.049 . S
C1185 N196 1.356 . S
C1190 N1024 1.355 . S
C1195 N955 1.928 . S
C1200 C214 2.049 . S
C1205 N978 1.355 . S
C1210 N242 1.356 . S
C1215 C260 2.050 . S
C1220 N1001 1.930 . S
C1225 N288 1.357 . S
C1230 N1093 1.356 . S
C1235 C306 2.050 . S
C1240 N1047 1.930 . S
C1245 N334 1.355 . S
C1250 N1070 1.356 . S
C1255 N932 1.930 . S
C1260 C352 2.050 . S
C1265 C904 2.049 . S
C1270 N380 1.930 . S
C1275 N403 1.927 . S
C1280 C766 2.049 . S
C1285 N794 1.355 . S
C1290 N426 1.355 . S
C1295 N449 1.927 . S
C1300 C812 2.049 . S
C1305 N748 1.359 . S
C1310 N472 1.358 . S
C1315 C858 2.049 . S
C1320 N495 1.927 . S
C1325 N518 1.355 . S
C1330 N886 1.355 . S
C1335 N840 1.355 . S
C1340 N541 1.355 . S
C1345 N219 2.176 . S
C1350 N12 2.176 . S
C1355 C237 2.317 . S
C1360 C30 2.268 1_565 S
C1365 N58 2.177 . S
C1370 N265 2.175 . S
C1375 C191 2.317 . S
C1380 C76 2.268 1_545 S
C1385 N104 2.177 . S
C1390 N357 2.175 . S
C1395 C283 2.316 . S
C1400 C122 2.269 1_565 S
C1405 N311 2.177 . S
C1410 N150 2.175 . S
C1415 C329 2.316 . S
C1420 C168 2.270 1_545 S
C1425 C421 2.316 . S
C1430 C375 2.270 1_556 S
C1435 C513 2.317 . S
C1440 C398 2.268 1_554 S
C1445 C536 2.316 . S
C1450 C444 2.270 1_554 S
C1455 C467 2.317 . S
C1460 C490 2.268 1_556 S
C1465 N771 2.177 . S
C1470 N564 2.175 . S
C1475 C789 2.316 . S
C1480 C582 2.270 . S
C1485 N817 2.175 . S
C1490 N610 2.177 . S
C1495 C628 2.268 . S
C1500 C743 2.317 . S
C1505 N656 2.177 . S
C1510 N909 2.175 . S
C1515 C674 2.268 . S
C1520 C835 2.317 . S
C1525 N863 2.177 . S
C1530 N702 2.175 . S
C1535 C881 2.317 . S
C1540 C720 2.268 . S
C1545 C927 2.270 . S
C1550 C973 2.316 . S
C1555 C1065 2.317 . S
C1560 C950 2.269 . S
C1565 C1088 2.316 . S
C1570 C996 2.270 . S
C1575 C1042 2.270 . S
C1580 C1019 2.316 . S
C1585 N2 1.799 . S
C1590 N416 1.816 . S
C1595 C39 1.882 . S
C1600 N439 1.813 . S
C1605 N48 1.798 . S
C1610 N462 1.820 . S
C1615 N393 1.813 . S
C1620 C85 1.882 . S
C1625 N94 1.797 . S
C1630 N508 1.817 . S
C1635 C131 1.886 . S
C1640 N370 1.814 . S
C1645 N531 1.816 . S
C1650 N140 1.798 . S
C1655 N485 1.815 . S
C1660 C177 1.884 . S
C1665 C200 1.626 . S
C1670 C223 1.678 . S
C1675 N209 1.797 . S
C1680 N232 1.817 . S
C1685 C246 1.626 . S
C1690 C269 1.679 . S
C1695 N186 1.819 . S
C1700 N255 1.802 . S
C1705 C361 1.677 . S
C1710 C292 1.628 . S
C1715 N278 1.820 . S
C1720 N301 1.797 . S
C1725 C315 1.679 . S
C1730 C338 1.627 . S
C1735 N347 1.801 . S
C1740 N324 1.818 . S
C1745 N71 1.813 . S
C1750 C384 1.883 . S
C1755 N117 1.815 . S
C1760 C407 1.884 . S
C1765 C154 1.677 . S
C1770 C430 1.628 . S
C1775 C453 1.885 . S
C1780 N163 1.815 . S
C1785 C108 1.677 . S
C1790 C476 1.628 . S
C1795 N25 1.812 . S
C1800 C499 1.882 . S
C1805 C62 1.678 . S
C1810 C522 1.626 . S
C1815 C16 1.677 . S
C1820 C545 1.628 . S
C1825 N968 1.817 . S
C1830 N554 1.800 . S
C1835 C591 1.885 . S
C1840 N991 1.815 . S
C1845 N1014 1.819 . S
C1850 N600 1.797 . S
C1855 N945 1.812 . S
C1860 C637 1.885 . S
C1865 N646 1.799 . S
C1870 N1060 1.820 . S
C1875 C683 1.885 . S
C1880 N922 1.812 . S
C1885 N1083 1.817 . S
C1890 N692 1.801 . S
C1895 C729 1.885 . S
C1900 N1037 1.815 . S
C1905 C752 1.626 . S
C1910 C775 1.678 . S
C1915 N761 1.797 . S
C1920 N784 1.817 . S
C1925 C798 1.626 . S
C1930 C821 1.679 . S
C1935 N807 1.799 . S
C1940 N738 1.821 . S
C1945 C913 1.678 . S
C1950 C844 1.626 . S
C1955 N830 1.817 . S
C1960 N853 1.801 . S
C1965 C867 1.677 . S
C1970 C890 1.628 . S
C1975 N899 1.799 . S
C1980 N876 1.816 . S
C1985 N623 1.812 . S
C1990 C936 1.882 . S
C1995 N669 1.812 . S
C2000 C959 1.882 . S
C2005 C706 1.679 . S
C2010 C982 1.626 . S
C2015 C1005 1.885 . S
C2020 N715 1.812 . S
C2025 C660 1.678 . S
C2030 C1028 1.626 . S
C2035 N577 1.811 . S
C2040 C1051 1.883 . S
C2045 C1074 1.628 . S
C2050 C614 1.677 . S
C2055 C568 1.677 . S
C2060 C1097 1.628 . S
