# Generated by pormake.
# Topology mmt, (4)-cn, num edge types: 1
# Building blocks:
#     Node 0, Type 0, BuildingBlock: GALJAG_clean_sbu_0, # of connection points: 4
#     Node 1, Type 0, BuildingBlock: GALJAG_clean_sbu_0, # of connection points: 4
#     Node 2, Type 0, BuildingBlock: GALJAG_clean_sbu_0, # of connection points: 4
#     Node 3, Type 0, BuildingBlock: GALJAG_clean_sbu_0, # of connection points: 4
#     Node 4, Type 0, BuildingBlock: GALJAG_clean_sbu_0, # of connection points: 4
#     Node 5, Type 0, BuildingBlock: GALJAG_clean_sbu_0, # of connection points: 4
#     Node 6, Type 0, BuildingBlock: GALJAG_clean_sbu_0, # of connection points: 4
#     Node 7, Type 0, BuildingBlock: GALJAG_clean_sbu_0, # of connection points: 4
#     Edge 8, Type (0, 0), BuildingBlock: XUDNAN_clean_linker_2, # of connection points: 2
#     Edge 9, Type (0, 0), BuildingBlock: XUDNAN_clean_linker_2, # of connection points: 2
#     Edge 10, Type (0, 0), BuildingBlock: XUDNAN_clean_linker_2, # of connection points: 2
#     Edge 11, Type (0, 0), BuildingBlock: XUDNAN_clean_linker_2, # of connection points: 2
#     Edge 12, Type (0, 0), BuildingBlock: XUDNAN_clean_linker_2, # of connection points: 2
#     Edge 13, Type (0, 0), BuildingBlock: XUDNAN_clean_linker_2, # of connection points: 2
#     Edge 14, Type (0, 0), BuildingBlock: XUDNAN_clean_linker_2, # of connection points: 2
#     Edge 15, Type (0, 0), BuildingBlock: XUDNAN_clean_linker_2, # of connection points: 2
#     Edge 16, Type (0, 0), BuildingBlock: XUDNAN_clean_linker_2, # of connection points: 2
#     Edge 17, Type (0, 0), BuildingBlock: XUDNAN_clean_linker_2, # of connection points: 2
#     Edge 18, Type (0, 0), BuildingBlock: XUDNAN_clean_linker_2, # of connection points: 2
#     Edge 19, Type (0, 0), BuildingBlock: XUDNAN_clean_linker_2, # of connection points: 2
#     Edge 20, Type (0, 0), BuildingBlock: XUDNAN_clean_linker_2, # of connection points: 2
#     Edge 21, Type (0, 0), BuildingBlock: XUDNAN_clean_linker_2, # of connection points: 2
#     Edge 22, Type (0, 0), BuildingBlock: XUDNAN_clean_linker_2, # of connection points: 2
#     Edge 23, Type (0, 0), BuildingBlock: XUDNAN_clean_linker_2, # of connection points: 2
# Relax obj value: 0.016
# Max RMSD: 0.061
# Mean RMSD: 0.061
data_MOF--net-mmt--node1-GALJAG_clean_sbu_0--edge1-XUDNAN_clean_linker_2
_symmetry_space_group_name_H-M    P1
_symmetry_Int_Tables_number       1
_symmetry_cell_setting            triclinic
loop_
_symmetry_equiv_pos_as_xyz
'x, y, z'
_cell_length_a     24.579306
_cell_length_b     36.717967
_cell_length_c     40.752804
_cell_angle_alpha  89.935102
_cell_angle_beta   89.985174
_cell_angle_gamma 90.142509
loop_
_atom_site_label
_atom_site_type_symbol
_atom_site_fract_x
_atom_site_fract_y
_atom_site_fract_z
_atom_type_partial_charge
In0 In 0.1344 0.56436 0.35084 0.0
O1 O 0.19604 0.51746 0.3497 0.0
O2 O 0.19981 0.55657 0.31156 0.0
C3 C 0.11223 0.55594 0.41545 0.0
C4 C 0.16492 0.6347 0.34222 0.0
C5 C 0.04497 0.53536 0.32195 0.0
O6 O 0.15868 0.55037 0.40325 0.0
O7 O 0.07718 0.56736 0.39528 0.0
O8 O 0.05266 0.56933 0.32348 0.0
O9 O 0.08243 0.51648 0.33436 0.0
C10 C 0.2195 0.52806 0.32389 0.0
O11 O 0.13721 0.61724 0.32143 0.0
O12 O 0.17521 0.61727 0.36819 0.0
In13 In 0.37162 0.94414 0.34311 0.0
O14 O 0.28022 0.95036 0.35107 0.0
O15 O 0.31486 0.97658 0.30953 0.0
C16 C 0.40077 0.96717 0.40386 0.0
C17 C 0.34831 0.87285 0.33325 0.0
C18 C 0.45388 0.97258 0.30689 0.0
O19 O 0.3604 0.97936 0.38835 0.0
O20 O 0.42635 0.94227 0.38915 0.0
O21 O 0.45154 0.939 0.31355 0.0
O22 O 0.41501 0.99105 0.31817 0.0
C23 C 0.27246 0.96963 0.32587 0.0
O24 O 0.35469 0.89534 0.31014 0.0
O25 O 0.35696 0.88576 0.36147 0.0
In26 In 0.6324 0.43794 0.16524 0.0
O27 O 0.61902 0.37901 0.14852 0.0
O28 O 0.69993 0.39937 0.14874 0.0
C29 C 0.54443 0.44723 0.20438 0.0
C30 C 0.7128 0.45713 0.20704 0.0
C31 C 0.60695 0.47213 0.10834 0.0
O32 O 0.56622 0.41659 0.19986 0.0
O33 O 0.56708 0.47317 0.18934 0.0
O34 O 0.64493 0.48301 0.12681 0.0
O35 O 0.5828 0.4439 0.11832 0.0
C36 C 0.66878 0.37269 0.14358 0.0
O37 O 0.70268 0.4754 0.18143 0.0
O38 O 0.68168 0.43024 0.21166 0.0
In39 In 0.87807 0.06837 0.15968 0.0
O40 O 0.80436 0.0302 0.16764 0.0
O41 O 0.81146 0.07885 0.19607 0.0
C42 C 0.93526 0.04441 0.10737 0.0
C43 C 0.84051 0.13317 0.13852 0.0
C44 C 0.94841 0.05034 0.20769 0.0
O45 O 0.88998 0.03014 0.11503 0.0
O46 O 0.95005 0.07023 0.12565 0.0
O47 O 0.94914 0.08133 0.19415 0.0
O48 O 0.912 0.02895 0.19739 0.0
C49 C 0.78388 0.05079 0.18936 0.0
O50 O 0.87505 0.13066 0.16146 0.0
O51 O 0.82704 0.10323 0.12559 0.0
In52 In 0.90101 0.43509 0.67277 0.0
O53 O 0.89796 0.37431 0.68462 0.0
O54 O 0.87737 0.39086 0.63613 0.0
C55 C 0.96631 0.45956 0.72152 0.0
C56 C 0.79928 0.4514 0.69321 0.0
C57 C 0.95558 0.46232 0.62057 0.0
O58 O 0.97078 0.42786 0.70983 0.0
O59 O 0.92805 0.47803 0.70942 0.0
O60 O 0.90537 0.46837 0.62478 0.0
O61 O 0.97702 0.44227 0.64211 0.0
C62 C 0.88159 0.36503 0.65644 0.0
O63 O 0.8259 0.47285 0.6749 0.0
O64 O 0.82407 0.42273 0.70107 0.0
In65 In 0.62936 0.07049 0.66275 0.0
O66 O 0.68535 0.02045 0.66433 0.0
O67 O 0.69402 0.06063 0.70147 0.0
C68 C 0.57592 0.05449 0.6065 0.0
C69 C 0.68648 0.1322 0.65052 0.0
C70 C 0.54311 0.06589 0.70404 0.0
O71 O 0.61435 0.03484 0.61701 0.0
O72 O 0.56591 0.08207 0.62387 0.0
O73 O 0.55811 0.09538 0.69094 0.0
O74 O 0.57255 0.03887 0.69714 0.0
C75 C 0.71053 0.03092 0.68968 0.0
O76 O 0.66101 0.12686 0.67696 0.0
O77 O 0.68238 0.10674 0.62989 0.0
In78 In 0.39773 0.57076 0.84348 0.0
O79 O 0.32508 0.5309 0.84819 0.0
O80 O 0.32066 0.57356 0.81301 0.0
C81 C 0.44525 0.56221 0.90312 0.0
C82 C 0.37204 0.64199 0.8395 0.0
C83 C 0.46917 0.53783 0.80225 0.0
O84 O 0.40233 0.5455 0.89511 0.0
O85 O 0.46314 0.58364 0.88149 0.0
O86 O 0.47059 0.57149 0.80809 0.0
O87 O 0.43129 0.52103 0.81661 0.0
C88 C 0.29749 0.54676 0.8263 0.0
O89 O 0.39998 0.62573 0.81801 0.0
O90 O 0.35871 0.62258 0.8639 0.0
In91 In 0.13155 0.94139 0.84064 0.0
O92 O 0.22131 0.95587 0.83467 0.0
O93 O 0.16404 0.99093 0.81204 0.0
C94 C 0.10686 0.95878 0.90367 0.0
C95 C 0.17497 0.87452 0.83214 0.0
C96 C 0.0395 0.94912 0.80462 0.0
O97 O 0.14792 0.97102 0.88875 0.0
O98 O 0.0785 0.9368 0.88714 0.0
O99 O 0.06316 0.91891 0.80806 0.0
O100 O 0.06222 0.97529 0.81924 0.0
C101 C 0.21347 0.98367 0.81719 0.0
O102 O 0.168 0.89695 0.80906 0.0
O103 O 0.15766 0.88508 0.85975 0.0
H104 H 0.28838 0.55356 0.27646 0.0
H105 H 0.25766 0.46013 0.33911 0.0
H106 H 0.33724 0.42876 0.31502 0.0
H107 H 0.33251 0.50429 0.20508 0.0
H108 H 0.38443 0.53698 0.19445 0.0
H109 H 0.32444 0.5515 0.21612 0.0
H110 H 0.38474 0.57899 0.26205 0.0
H111 H 0.44492 0.56454 0.24054 0.0
H112 H 0.43399 0.55056 0.28244 0.0
H113 H 0.41946 0.40734 0.28314 0.0
H114 H 0.50036 0.39862 0.24788 0.0
H115 H 0.47909 0.50729 0.20807 0.0
C116 C 0.29824 0.52642 0.285 0.0
C117 C 0.26676 0.50912 0.30949 0.0
C118 C 0.28128 0.47381 0.32032 0.0
C119 C 0.32631 0.45579 0.30675 0.0
C120 C 0.35658 0.47365 0.28265 0.0
C121 C 0.34334 0.50828 0.27203 0.0
C122 C 0.38322 0.52189 0.24646 0.0
C123 C 0.35442 0.52907 0.21358 0.0
C124 C 0.41351 0.55601 0.25861 0.0
C125 C 0.42091 0.48946 0.24421 0.0
C126 C 0.40469 0.46181 0.2651 0.0
C127 C 0.43267 0.42888 0.26681 0.0
C128 C 0.47848 0.42415 0.24669 0.0
C129 C 0.49607 0.45234 0.22541 0.0
C130 C 0.46683 0.48537 0.22429 0.0
H131 H 0.05564 0.06988 0.21142 0.0
H132 H 0.93203 1.00343 0.25834 0.0
H133 H 1.00077 0.97967 0.29711 0.0
H134 H 0.15662 1.00232 0.21315 0.0
H135 H 0.21267 0.03309 0.22013 0.0
H136 H 0.15276 0.04884 0.19915 0.0
H137 H 0.14182 0.10069 0.24172 0.0
H138 H 0.20191 0.08515 0.26279 0.0
H139 H 0.13868 0.08968 0.2848 0.0
H140 H 0.08324 0.96099 0.32888 0.0
H141 H 0.17493 0.94507 0.34897 0.0
H142 H 0.24644 0.02017 0.27878 0.0
C143 C 0.04298 0.05104 0.23044 0.0
C144 C 0.98855 0.03889 0.23243 0.0
C145 C 0.97355 0.01325 0.25675 0.0
C146 C 0.01223 0.99973 0.27888 0.0
C147 C 0.06584 0.01174 0.27599 0.0
C148 C 0.0814 0.0366 0.25223 0.0
C149 C 0.14253 0.0422 0.25229 0.0
C150 C 0.1676 0.03093 0.21922 0.0
C151 C 0.15708 0.08178 0.26092 0.0
C152 C 0.15892 0.01632 0.27952 0.0
C153 C 0.11394 0.99952 0.29323 0.0
C154 C 0.11876 0.97407 0.31844 0.0
C155 C 0.17098 0.96523 0.3297 0.0
C156 C 0.21769 0.98137 0.31541 0.0
C157 C 0.21141 0.00744 0.29017 0.0
H158 H 0.77818 0.51843 0.20944 0.0
H159 H 0.75401 0.41185 0.25342 0.0
H160 H 0.83544 0.42095 0.28763 0.0
H161 H 0.92314 0.51617 0.20649 0.0
H162 H 0.93255 0.56334 0.21737 0.0
H163 H 0.87149 0.54916 0.19652 0.0
H164 H 0.8129 0.57675 0.24307 0.0
H165 H 0.87381 0.59119 0.264 0.0
H166 H 0.82479 0.56288 0.28491 0.0
H167 H 0.92209 0.43916 0.31417 0.0
H168 H 1.00551 0.46801 0.33555 0.0
H169 H 0.97224 0.56474 0.27771 0.0
C170 C 0.78991 0.49719 0.22647 0.0
C171 C 0.75981 0.4644 0.22874 0.0
C172 C 0.77629 0.43724 0.25134 0.0
C173 C 0.8226 0.44209 0.27083 0.0
C174 C 0.8517 0.47448 0.26781 0.0
C175 C 0.83577 0.50183 0.24659 0.0
C176 C 0.87441 0.5341 0.24854 0.0
C177 C 0.90203 0.54109 0.21525 0.0
C178 C 0.8447 0.56825 0.26087 0.0
C179 C 0.91485 0.52028 0.27377 0.0
C180 C 0.90101 0.48569 0.28431 0.0
C181 C 0.93308 0.4664 0.30643 0.0
C182 C 0.98049 0.48295 0.31831 0.0
C183 C 0.99509 0.51863 0.30842 0.0
C184 C 0.96167 0.53758 0.28593 0.0
H185 H 0.73128 0.98534 0.20226 0.0
H186 H 0.7166 0.10257 0.21241 0.0
H187 H 0.62931 0.09469 0.24109 0.0
H188 H 0.58571 0.96568 0.19125 0.0
H189 H 0.5874 0.92469 0.21562 0.0
H190 H 0.64719 0.93912 0.19348 0.0
H191 H 0.70273 0.93824 0.24747 0.0
H192 H 0.64311 0.92392 0.26977 0.0
H193 H 0.67937 0.96437 0.28213 0.0
H194 H 0.54589 0.0753 0.26935 0.0
H195 H 0.47084 0.04494 0.29847 0.0
H196 H 0.5387 0.93942 0.27351 0.0
C197 C 0.70913 0.00922 0.21017 0.0
C198 C 0.73043 0.04459 0.20499 0.0
C199 C 0.701 0.07525 0.21619 0.0
C200 C 0.65129 0.07109 0.23239 0.0
C201 C 0.63161 0.03602 0.23757 0.0
C202 C 0.65947 0.00552 0.22704 0.0
C203 C 0.63008 0.97098 0.23768 0.0
C204 C 0.61149 0.94881 0.20772 0.0
C205 C 0.66597 0.94803 0.26063 0.0
C206 C 0.58179 0.987 0.25593 0.0
C207 C 0.58349 0.0246 0.25512 0.0
C208 C 0.54394 0.04586 0.27016 0.0
C209 C 0.50143 0.02832 0.28665 0.0
C210 C 0.49888 0.98982 0.28832 0.0
C211 C 0.53963 0.96889 0.27266 0.0
H212 H 0.55641 0.56801 0.76962 0.0
H213 H 0.47582 0.46508 0.78986 0.0
H214 H 0.54838 0.43258 0.76019 0.0
H215 H 0.60663 0.5433 0.68688 0.0
H216 H 0.66998 0.56738 0.69231 0.0
H217 H 0.60938 0.58305 0.71277 0.0
H218 H 0.65914 0.57954 0.76871 0.0
H219 H 0.71976 0.56379 0.74848 0.0
H220 H 0.6901 0.53727 0.78118 0.0
H221 H 0.6332 0.41074 0.73381 0.0
H222 H 0.72407 0.40078 0.7099 0.0
H223 H 0.74958 0.51756 0.70419 0.0
C224 C 0.55362 0.53869 0.7673 0.0
C225 C 0.51039 0.51905 0.78198 0.0
C226 C 0.50841 0.48069 0.77871 0.0
C227 C 0.54941 0.46198 0.76188 0.0
C228 C 0.59188 0.48204 0.74816 0.0
C229 C 0.59414 0.51956 0.75036 0.0
C230 C 0.64567 0.53429 0.73457 0.0
C231 C 0.63209 0.55843 0.70486 0.0
C232 C 0.68073 0.55493 0.75974 0.0
C233 C 0.67265 0.4991 0.72396 0.0
C234 C 0.64068 0.46935 0.732 0.0
C235 C 0.65819 0.4338 0.72687 0.0
C236 C 0.70992 0.42843 0.71339 0.0
C237 C 0.74345 0.45841 0.70492 0.0
C238 C 0.72423 0.49422 0.70984 0.0
H239 H 0.78128 0.0556 0.73614 0.0
H240 H 0.74544 0.96173 0.67525 0.0
H241 H 0.82485 0.92956 0.69894 0.0
H242 H 0.92552 0.05098 0.72814 0.0
H243 H 0.93861 0.06552 0.76963 0.0
H244 H 0.87775 0.08013 0.74894 0.0
H245 H 0.81905 0.05382 0.79624 0.0
H246 H 0.87974 0.03915 0.81713 0.0
H247 H 0.82678 0.00672 0.80785 0.0
H248 H 0.90884 0.90793 0.72978 0.0
H249 H 0.99201 0.89961 0.76321 0.0
H250 H 0.97364 0.00891 0.80189 0.0
C251 C 0.78982 0.02815 0.72794 0.0
C252 C 0.75704 0.011 0.70403 0.0
C253 C 0.77 0.97529 0.69363 0.0
C254 C 0.81493 0.95683 0.70698 0.0
C255 C 0.84658 0.97464 0.73047 0.0
C256 C 0.83466 0.00959 0.7407 0.0
C257 C 0.8759 0.02327 0.76538 0.0
C258 C 0.90624 0.05696 0.75222 0.0
C259 C 0.84874 0.0312 0.79862 0.0
C260 C 0.91308 0.99059 0.76749 0.0
C261 C 0.89536 0.96268 0.74739 0.0
C262 C 0.92309 0.92965 0.74553 0.0
C263 C 0.97022 0.92516 0.76461 0.0
C264 C 0.98933 0.95366 0.78502 0.0
C265 C 0.96019 0.9867 0.78639 0.0
H266 H 0.25554 0.4799 0.80907 0.0
H267 H 0.21324 0.59321 0.82367 0.0
H268 H 0.11939 0.58058 0.80525 0.0
H269 H 0.18579 0.4713 0.73483 0.0
H270 H 0.16346 0.425 0.74102 0.0
H271 H 0.22443 0.44107 0.76072 0.0
H272 H 0.18545 0.42221 0.81734 0.0
H273 H 0.12424 0.40603 0.79774 0.0
H274 H 0.12011 0.43935 0.83009 0.0
H275 H 0.03371 0.55769 0.78117 0.0
H276 H 0.96266 0.52712 0.74867 0.0
H277 H 0.06028 0.4288 0.74592 0.0
C278 C 0.22583 0.50163 0.80924 0.0
C279 C 0.24082 0.53736 0.81833 0.0
C280 C 0.20194 0.56561 0.81711 0.0
C281 C 0.14862 0.55866 0.80684 0.0
C282 C 0.13504 0.52334 0.79742 0.0
C283 C 0.17247 0.49527 0.79824 0.0
C284 C 0.1489 0.46097 0.78299 0.0
C285 C 0.18265 0.44889 0.75312 0.0
C286 C 0.14441 0.43033 0.80857 0.0
C287 C 0.09307 0.47449 0.77279 0.0
C288 C 0.08569 0.51033 0.78203 0.0
C289 C 0.03871 0.52951 0.77408 0.0
C290 C 0.99856 0.51189 0.75557 0.0
C291 C 1.00581 0.47555 0.74485 0.0
C292 C 0.05331 0.45644 0.75413 0.0
H293 H 0.31823 0.96121 0.809 0.0
H294 H 0.21045 0.0524 0.79099 0.0
H295 H 0.28588 0.08567 0.76383 0.0
H296 H 0.44318 0.01331 0.82297 0.0
H297 H 0.48501 0.98075 0.80165 0.0
H298 H 0.42419 0.96585 0.82246 0.0
H299 H 0.38887 0.93694 0.7685 0.0
H300 H 0.4495 0.95171 0.74756 0.0
H301 H 0.38362 0.9647 0.73212 0.0
H302 H 0.37267 0.10798 0.73713 0.0
H303 H 0.46125 0.11575 0.7092 0.0
H304 H 0.51024 0.00832 0.7421 0.0
C305 C 0.31076 0.98845 0.79984 0.0
C306 C 0.25878 0.00451 0.80242 0.0
C307 C 0.25014 0.03978 0.78943 0.0
C308 C 0.29275 0.05887 0.77408 0.0
C309 C 0.34349 0.04212 0.7717 0.0
C310 C 0.35251 0.00757 0.78403 0.0
C311 C 0.40941 0.99447 0.77613 0.0
C312 C 0.44239 0.98824 0.80768 0.0
C313 C 0.40772 0.95992 0.7548 0.0
C314 C 0.43089 0.02685 0.75705 0.0
C315 C 0.39261 0.0543 0.75523 0.0
C316 C 0.40298 0.0867 0.73849 0.0
C317 C 0.45344 0.0909 0.72278 0.0
C318 C 0.49255 0.06264 0.72351 0.0
C319 C 0.48116 0.03041 0.74118 0.0
H320 H 0.01144 0.55359 0.44493 0.0
H321 H 0.18317 0.5353 0.46327 0.0
H322 H 0.16138 0.51244 0.51866 0.0
H323 H 0.97546 0.58129 0.52955 0.0
H324 H 0.91061 0.55831 0.52827 0.0
H325 H 0.93991 0.57643 0.49111 0.0
H326 H 0.93268 0.5128 0.46407 0.0
H327 H 0.90384 0.49441 0.50119 0.0
H328 H 0.96404 0.4742 0.48379 0.0
H329 H 0.12134 0.48672 0.56962 0.0
H330 H 0.06561 0.46209 0.61472 0.0
H331 H 0.91894 0.49722 0.56462 0.0
C332 C 0.04449 0.54551 0.46089 0.0
C333 C 0.09909 0.54641 0.44986 0.0
C334 C 0.14113 0.53501 0.47124 0.0
C335 C 0.12915 0.52196 0.50275 0.0
C336 C 0.07492 0.5206 0.51261 0.0
C337 C 0.03322 0.53233 0.49251 0.0
C338 C 0.97825 0.5263 0.5087 0.0
C339 C 0.94936 0.56276 0.51477 0.0
C340 C 0.94262 0.50038 0.48821 0.0
C341 C 0.99561 0.50869 0.54073 0.0
C342 C 0.05161 0.50583 0.5424 0.0
C343 C 0.0775 0.48917 0.56879 0.0
C344 C 0.04541 0.47512 0.59423 0.0
C345 C 0.98794 0.47783 0.59325 0.0
C346 C 0.96279 0.49504 0.56617 0.0
H347 H 0.48898 0.94809 0.44234 0.0
H348 H 0.35154 0.02198 0.4372 0.0
H349 H 0.38157 0.05144 0.4883 0.0
H350 H 0.48799 0.93787 0.5317 0.0
H351 H 0.5611 0.93663 0.53496 0.0
H352 H 0.52819 0.92033 0.49829 0.0
H353 H 0.58633 0.96474 0.46336 0.0
H354 H 0.61917 0.98133 0.49993 0.0
H355 H 0.58548 0.01272 0.47269 0.0
H356 H 0.42757 0.0749 0.53797 0.0
H357 H 0.48484 0.08925 0.58576 0.0
H358 H 0.59257 0.9999 0.56078 0.0
C359 C 0.465 0.97024 0.45219 0.0
C360 C 0.41784 0.98272 0.43576 0.0
C361 C 0.3877 0.01189 0.44933 0.0
C362 C 0.40446 0.02887 0.47835 0.0
C363 C 0.45136 0.0163 0.49371 0.0
C364 C 0.48108 0.9875 0.48138 0.0
C365 C 0.53023 0.97975 0.50287 0.0
C366 C 0.52664 0.94137 0.51785 0.0
C367 C 0.58344 0.98496 0.48355 0.0
C368 C 0.52359 0.00893 0.52895 0.0
C369 C 0.47781 0.02968 0.523 0.0
C370 C 0.46335 0.05873 0.54304 0.0
C371 C 0.4963 0.06673 0.5701 0.0
C372 C 0.54315 0.04569 0.57706 0.0
C373 C 0.55693 0.01639 0.55613 0.0
H374 H 0.52203 0.45544 0.06754 0.0
H375 H 0.65455 0.53236 0.08066 0.0
H376 H 0.62596 0.56489 0.03035 0.0
H377 H 0.5293 0.45029 0.97977 0.0
H378 H 0.45665 0.44725 0.97438 0.0
H379 H 0.4875 0.43037 0.01144 0.0
H380 H 0.4245 0.47186 0.04598 0.0
H381 H 0.3936 0.48901 0.009 0.0
H382 H 0.42346 0.52017 0.03805 0.0
H383 H 0.58368 0.58826 0.97802 0.0
H384 H 0.53144 0.60063 0.92746 0.0
H385 H 0.42534 0.50908 0.94917 0.0
C386 C 0.54512 0.47911 0.05982 0.0
C387 C 0.59064 0.49136 0.07796 0.0
C388 C 0.61963 0.52249 0.0671 0.0
C389 C 0.60363 0.54115 0.0386 0.0
C390 C 0.55843 0.52841 0.02135 0.0
C391 C 0.52958 0.4981 0.03155 0.0
C392 C 0.48269 0.48989 0.00855 0.0
C393 C 0.48947 0.45222 0.99259 0.0
C394 C 0.42782 0.49293 0.02647 0.0
C395 C 0.48977 0.5202 0.98366 0.0
C396 C 0.53369 0.54212 0.9915 0.0
C397 C 0.54908 0.57138 0.97174 0.0
C398 C 0.51914 0.57819 0.94308 0.0
C399 C 0.47418 0.55595 0.93447 0.0
C400 C 0.45917 0.52678 0.95526 0.0
H401 H 0.01227 0.94496 0.93812 0.0
H402 H 0.16732 1.00148 0.94417 0.0
H403 H 0.14108 0.02667 0.99786 0.0
H404 H 0.9326 0.01556 0.97229 0.0
H405 H 0.88763 0.98606 0.99508 0.0
H406 H 0.91966 0.96983 0.95816 0.0
H407 H 0.96027 0.91534 0.99018 0.0
H408 H 0.92811 0.93129 0.02721 0.0
H409 H 1.00053 0.92374 0.02638 0.0
H410 H 0.09716 0.04885 0.04844 0.0
H411 H 0.03839 0.06625 0.09455 0.0
H412 H 0.91038 0.99575 0.05738 0.0
C413 C 0.04097 0.96216 0.95104 0.0
C414 C 0.092 0.97114 0.93703 0.0
C415 C 0.12814 0.99414 0.95445 0.0
C416 C 0.11363 0.00857 0.98498 0.0
C417 C 0.06283 0.99971 0.99788 0.0
C418 C 0.02703 0.97693 0.98167 0.0
C419 C 0.97408 0.97311 1.00067 0.0
C420 C 0.92564 0.98698 0.98033 0.0
C421 C 0.96524 0.93351 0.01177 0.0
C422 C 0.98549 0.99784 0.02973 0.0
C423 C 0.03712 0.01267 0.02753 0.0
C424 C 0.05683 0.03721 0.05061 0.0
C425 C 0.02295 0.047 0.07669 0.0
C426 C 0.96977 0.03233 0.07965 0.0
C427 C 0.95094 0.0072 0.05589 0.0
H428 H 0.21763 0.68113 0.38475 0.0
H429 H 0.1659 0.6701 0.28342 0.0
H430 H 0.21144 0.72814 0.26981 0.0
H431 H 0.19833 0.77901 0.38918 0.0
H432 H 0.25664 0.78623 0.41521 0.0
H433 H 0.22025 0.74363 0.41687 0.0
H434 H 0.3099 0.70911 0.40493 0.0
H435 H 0.34643 0.75165 0.4028 0.0
H436 H 0.34872 0.72039 0.36876 0.0
H437 H 0.26493 0.78607 0.26662 0.0
H438 H 0.31414 0.84389 0.27524 0.0
H439 H 0.32881 0.81908 0.37903 0.0
C440 C 0.21561 0.69109 0.35976 0.0
C441 C 0.18824 0.67108 0.33512 0.0
C442 C 0.18641 0.68503 0.30272 0.0
C443 C 0.21245 0.71787 0.2947 0.0
C444 C 0.2398 0.73663 0.3194 0.0
C445 C 0.24092 0.7241 0.35138 0.0
C446 C 0.2719 0.7502 0.37341 0.0
C447 C 0.23454 0.76569 0.40025 0.0
C448 C 0.32222 0.73173 0.38835 0.0
C449 C 0.28806 0.77929 0.34879 0.0
C450 C 0.26961 0.77066 0.31772 0.0
C451 C 0.27944 0.7932 0.29085 0.0
C452 C 0.30768 0.82592 0.29598 0.0
C453 C 0.32541 0.836 0.32778 0.0
C454 C 0.31603 0.81205 0.35441 0.0
H455 H 0.86717 0.20255 0.15832 0.0
H456 H 0.74994 0.14141 0.10074 0.0
H457 H 0.69609 0.19725 0.09244 0.0
H458 H 0.77457 0.25775 0.19953 0.0
H459 H 0.81552 0.29852 0.19858 0.0
H460 H 0.84769 0.25458 0.19759 0.0
H461 H 0.8974 0.27204 0.14373 0.0
H462 H 0.86564 0.31622 0.14467 0.0
H463 H 0.85842 0.28763 0.109 0.0
H464 H 0.6487 0.2575 0.09679 0.0
H465 H 0.61603 0.31984 0.1088 0.0
H466 H 0.76684 0.34318 0.15984 0.0
C467 C 0.83079 0.20112 0.14339 0.0
C468 C 0.81279 0.16766 0.13013 0.0
C469 C 0.76472 0.16679 0.11096 0.0
C470 C 0.73376 0.19836 0.10616 0.0
C471 C 0.75188 0.23075 0.12019 0.0
C472 C 0.79979 0.23255 0.13791 0.0
C473 C 0.8092 0.27057 0.15123 0.0
C474 C 0.81188 0.27032 0.18896 0.0
C475 C 0.86072 0.28762 0.13625 0.0
C476 C 0.75835 0.28953 0.13905 0.0
C477 C 0.7257 0.26604 0.12129 0.0
C478 C 0.67446 0.27641 0.10998 0.0
C479 C 0.65614 0.31174 0.117 0.0
C480 C 0.68935 0.33633 0.13469 0.0
C481 C 0.74128 0.32515 0.14551 0.0
H482 H 0.72288 0.18121 0.69601 0.0
H483 H 0.7254 0.1574 0.5918 0.0
H484 H 0.78052 0.21288 0.58202 0.0
H485 H 0.71185 0.27747 0.68963 0.0
H486 H 0.7559 0.28665 0.72401 0.0
H487 H 0.71755 0.24486 0.72256 0.0
H488 H 0.80669 0.20798 0.72912 0.0
H489 H 0.84538 0.2497 0.7304 0.0
H490 H 0.86175 0.2152 0.70059 0.0
H491 H 0.82987 0.2734 0.58343 0.0
H492 H 0.87255 0.33289 0.59623 0.0
H493 H 0.84321 0.31455 0.69985 0.0
C494 C 0.73506 0.18768 0.67113 0.0
C495 C 0.71964 0.1652 0.6446 0.0
C496 C 0.73677 0.17432 0.61245 0.0
C497 C 0.7681 0.20573 0.60668 0.0
C498 C 0.78265 0.22734 0.63341 0.0
C499 C 0.76705 0.21854 0.66503 0.0
C500 C 0.7879 0.24629 0.68948 0.0
C501 C 0.74047 0.26492 0.70747 0.0
C502 C 0.82781 0.22874 0.71383 0.0
C503 C 0.81685 0.27248 0.66664 0.0
C504 C 0.81324 0.26116 0.63436 0.0
C505 C 0.83373 0.28222 0.60865 0.0
C506 C 0.8579 0.31591 0.61612 0.0
C507 C 0.862 0.3279 0.64902 0.0
C508 C 0.84191 0.30559 0.67455 0.0
H509 H 0.30785 0.68275 0.88091 0.0
H510 H 0.38767 0.68505 0.78587 0.0
H511 H 0.34505 0.74426 0.77388 0.0
H512 H 0.18259 0.72133 0.85526 0.0
H513 H 0.17247 0.74826 0.8917 0.0
H514 H 0.21095 0.70665 0.89385 0.0
H515 H 0.29293 0.74163 0.9185 0.0
H516 H 0.25448 0.7833 0.9168 0.0
H517 H 0.32 0.78067 0.89708 0.0
H518 H 0.28965 0.80069 0.77041 0.0
H519 H 0.23164 0.85466 0.7778 0.0
H520 H 0.18931 0.81782 0.87584 0.0
C521 C 0.31695 0.696 0.85779 0.0
C522 C 0.35116 0.6793 0.83432 0.0
C523 C 0.3618 0.69737 0.80427 0.0
C524 C 0.3376 0.73095 0.79716 0.0
C525 C 0.30318 0.74629 0.82047 0.0
C526 C 0.29338 0.72977 0.85037 0.0
C527 C 0.25448 0.75224 0.87096 0.0
C528 C 0.20202 0.73084 0.87837 0.0
C529 C 0.28214 0.76524 0.90271 0.0
C530 C 0.24365 0.78377 0.8478 0.0
C531 C 0.27192 0.77955 0.81874 0.0
C532 C 0.26764 0.80449 0.79315 0.0
C533 C 0.23432 0.83496 0.79754 0.0
C534 C 0.20599 0.84046 0.82739 0.0
C535 C 0.21055 0.81435 0.85277 0.0
loop_
_geom_bond_atom_site_label_1
_geom_bond_atom_site_label_2
_geom_bond_distance
_geom_bond_site_symmetry_2
_ccdc_geom_bond_type
In0 O1 2.294 . S
In0 O2 2.326 . S
In0 O6 2.266 . S
In0 O7 2.326 . S
In0 O8 2.266 . S
In0 O9 2.326 . S
In0 O11 2.294 . S
In0 O12 2.326 . S
O1 In0 2.294 . S
O1 C10 1.240 . S
O2 In0 2.326 . S
O2 C10 1.252 . S
C3 O6 1.252 . S
C3 O7 1.260 . S
C4 O11 1.240 . S
C4 O12 1.252 . S
C5 O8 1.252 . S
C5 O9 1.260 . S
O6 In0 2.266 . S
O6 C3 1.252 . S
O7 In0 2.326 . S
O7 C3 1.260 . S
O8 In0 2.266 . S
O8 C5 1.252 . S
O9 In0 2.326 . S
O9 C5 1.260 . S
C10 O1 1.240 . S
C10 O2 1.252 . S
O11 In0 2.294 . S
O11 C4 1.240 . S
O12 In0 2.326 . S
O12 C4 1.252 . S
In13 O14 2.294 . S
In13 O15 2.326 . S
In13 O19 2.266 . S
In13 O20 2.326 . S
In13 O21 2.266 . S
In13 O22 2.326 . S
In13 O24 2.294 . S
In13 O25 2.326 . S
O14 In13 2.294 . S
O14 C23 1.240 . S
O15 In13 2.326 . S
O15 C23 1.252 . S
C16 O19 1.252 . S
C16 O20 1.260 . S
C17 O24 1.240 . S
C17 O25 1.252 . S
C18 O21 1.252 . S
C18 O22 1.260 . S
O19 In13 2.266 . S
O19 C16 1.252 . S
O20 In13 2.326 . S
O20 C16 1.260 . S
O21 In13 2.266 . S
O21 C18 1.252 . S
O22 In13 2.326 . S
O22 C18 1.260 . S
C23 O14 1.240 . S
C23 O15 1.252 . S
O24 In13 2.294 . S
O24 C17 1.240 . S
O25 In13 2.326 . S
O25 C17 1.252 . S
In26 O27 2.294 . S
In26 O28 2.326 . S
In26 O32 2.266 . S
In26 O33 2.326 . S
In26 O34 2.266 . S
In26 O35 2.326 . S
In26 O37 2.294 . S
In26 O38 2.326 . S
O27 In26 2.294 . S
O27 C36 1.240 . S
O28 In26 2.326 . S
O28 C36 1.252 . S
C29 O32 1.252 . S
C29 O33 1.260 . S
C30 O37 1.240 . S
C30 O38 1.252 . S
C31 O34 1.252 . S
C31 O35 1.260 . S
O32 In26 2.266 . S
O32 C29 1.252 . S
O33 In26 2.326 . S
O33 C29 1.260 . S
O34 In26 2.266 . S
O34 C31 1.252 . S
O35 In26 2.326 . S
O35 C31 1.260 . S
C36 O27 1.240 . S
C36 O28 1.252 . S
O37 In26 2.294 . S
O37 C30 1.240 . S
O38 In26 2.326 . S
O38 C30 1.252 . S
In39 O40 2.294 . S
In39 O41 2.326 . S
In39 O45 2.266 . S
In39 O46 2.326 . S
In39 O47 2.266 . S
In39 O48 2.326 . S
In39 O50 2.294 . S
In39 O51 2.326 . S
O40 In39 2.294 . S
O40 C49 1.240 . S
O41 In39 2.326 . S
O41 C49 1.252 . S
C42 O45 1.252 . S
C42 O46 1.260 . S
C43 O50 1.240 . S
C43 O51 1.252 . S
C44 O47 1.252 . S
C44 O48 1.260 . S
O45 In39 2.266 . S
O45 C42 1.252 . S
O46 In39 2.326 . S
O46 C42 1.260 . S
O47 In39 2.266 . S
O47 C44 1.252 . S
O48 In39 2.326 . S
O48 C44 1.260 . S
C49 O40 1.240 . S
C49 O41 1.252 . S
O50 In39 2.294 . S
O50 C43 1.240 . S
O51 In39 2.326 . S
O51 C43 1.252 . S
In52 O53 2.294 . S
In52 O54 2.326 . S
In52 O58 2.266 . S
In52 O59 2.326 . S
In52 O60 2.266 . S
In52 O61 2.326 . S
In52 O63 2.294 . S
In52 O64 2.326 . S
O53 In52 2.294 . S
O53 C62 1.240 . S
O54 In52 2.326 . S
O54 C62 1.252 . S
C55 O58 1.252 . S
C55 O59 1.260 . S
C56 O63 1.240 . S
C56 O64 1.252 . S
C57 O60 1.252 . S
C57 O61 1.260 . S
O58 In52 2.266 . S
O58 C55 1.252 . S
O59 In52 2.326 . S
O59 C55 1.260 . S
O60 In52 2.266 . S
O60 C57 1.252 . S
O61 In52 2.326 . S
O61 C57 1.260 . S
C62 O53 1.240 . S
C62 O54 1.252 . S
O63 In52 2.294 . S
O63 C56 1.240 . S
O64 In52 2.326 . S
O64 C56 1.252 . S
In65 O66 2.294 . S
In65 O67 2.326 . S
In65 O71 2.266 . S
In65 O72 2.326 . S
In65 O73 2.266 . S
In65 O74 2.326 . S
In65 O76 2.294 . S
In65 O77 2.326 . S
O66 In65 2.294 . S
O66 C75 1.240 . S
O67 In65 2.326 . S
O67 C75 1.252 . S
C68 O71 1.252 . S
C68 O72 1.260 . S
C69 O76 1.240 . S
C69 O77 1.252 . S
C70 O73 1.252 . S
C70 O74 1.260 . S
O71 In65 2.266 . S
O71 C68 1.252 . S
O72 In65 2.326 . S
O72 C68 1.260 . S
O73 In65 2.266 . S
O73 C70 1.252 . S
O74 In65 2.326 . S
O74 C70 1.260 . S
C75 O66 1.240 . S
C75 O67 1.252 . S
O76 In65 2.294 . S
O76 C69 1.240 . S
O77 In65 2.326 . S
O77 C69 1.252 . S
In78 O79 2.294 . S
In78 O80 2.326 . S
In78 O84 2.266 . S
In78 O85 2.326 . S
In78 O86 2.266 . S
In78 O87 2.326 . S
In78 O89 2.294 . S
In78 O90 2.326 . S
O79 In78 2.294 . S
O79 C88 1.240 . S
O80 In78 2.326 . S
O80 C88 1.252 . S
C81 O84 1.252 . S
C81 O85 1.260 . S
C82 O89 1.240 . S
C82 O90 1.252 . S
C83 O86 1.252 . S
C83 O87 1.260 . S
O84 In78 2.266 . S
O84 C81 1.252 . S
O85 In78 2.326 . S
O85 C81 1.260 . S
O86 In78 2.266 . S
O86 C83 1.252 . S
O87 In78 2.326 . S
O87 C83 1.260 . S
C88 O79 1.240 . S
C88 O80 1.252 . S
O89 In78 2.294 . S
O89 C82 1.240 . S
O90 In78 2.326 . S
O90 C82 1.252 . S
In91 O92 2.294 . S
In91 O93 2.326 . S
In91 O97 2.266 . S
In91 O98 2.326 . S
In91 O99 2.266 . S
In91 O100 2.326 . S
In91 O102 2.294 . S
In91 O103 2.326 . S
O92 In91 2.294 . S
O92 C101 1.240 . S
O93 In91 2.326 . S
O93 C101 1.252 . S
C94 O97 1.252 . S
C94 O98 1.260 . S
C95 O102 1.240 . S
C95 O103 1.252 . S
C96 O99 1.252 . S
C96 O100 1.260 . S
O97 In91 2.266 . S
O97 C94 1.252 . S
O98 In91 2.326 . S
O98 C94 1.260 . S
O99 In91 2.266 . S
O99 C96 1.252 . S
O100 In91 2.326 . S
O100 C96 1.260 . S
C101 O92 1.240 . S
C101 O93 1.252 . S
O102 In91 2.294 . S
O102 C95 1.240 . S
O103 In91 2.326 . S
O103 C95 1.252 . S
H104 C116 0.930 . S
H105 C118 0.930 . S
H106 C119 0.930 . S
H107 C123 0.959 . S
H108 C123 0.959 . S
H109 C123 0.961 . S
H110 C124 0.960 . S
H111 C124 0.961 . S
H112 C124 0.959 . S
H113 C127 0.929 . S
H114 C128 0.931 . S
H115 C130 0.930 . S
C116 H104 0.930 . S
C116 C117 1.399 . S
C116 C121 1.399 . S
C117 C116 1.399 . S
C117 C118 1.376 . S
C118 H105 0.930 . S
C118 C117 1.376 . S
C118 C119 1.388 . S
C119 H106 0.930 . S
C119 C118 1.388 . S
C119 C120 1.390 . S
C120 C119 1.390 . S
C120 C121 1.394 . S
C120 C126 1.465 . S
C121 C116 1.399 . S
C121 C120 1.394 . S
C121 C122 1.516 . S
C122 C121 1.516 . S
C122 C123 1.502 . S
C122 C124 1.561 . S
C122 C125 1.526 . S
C123 H107 0.959 . S
C123 H108 0.959 . S
C123 H109 0.961 . S
C123 C122 1.502 . S
C124 H110 0.960 . S
C124 H111 0.961 . S
C124 H112 0.959 . S
C124 C122 1.561 . S
C125 C122 1.526 . S
C125 C126 1.396 . S
C125 C130 1.390 . S
C126 C120 1.465 . S
C126 C125 1.396 . S
C126 C127 1.399 . S
C127 H113 0.929 . S
C127 C126 1.399 . S
C127 C128 1.385 . S
C128 H114 0.931 . S
C128 C127 1.385 . S
C128 C129 1.389 . S
C129 C128 1.389 . S
C129 C130 1.387 . S
C130 H115 0.930 . S
C130 C125 1.390 . S
C130 C129 1.387 . S
H131 C143 0.930 . S
H132 C145 0.930 . S
H133 C146 0.930 . S
H134 C150 0.959 1_565 S
H135 C150 0.959 . S
H136 C150 0.961 . S
H137 C151 0.960 . S
H138 C151 0.961 . S
H139 C151 0.959 . S
H140 C154 0.929 . S
H141 C155 0.931 . S
H142 C157 0.930 . S
C143 H131 0.930 . S
C143 C144 1.399 . S
C143 C148 1.399 . S
C144 C143 1.399 . S
C144 C145 1.376 1_455 S
C145 H132 0.930 . S
C145 C144 1.376 1_655 S
C145 C146 1.388 1_645 S
C146 H133 0.930 . S
C146 C145 1.388 1_465 S
C146 C147 1.390 . S
C147 C146 1.390 . S
C147 C148 1.394 1_565 S
C147 C153 1.465 . S
C148 C143 1.399 . S
C148 C147 1.394 1_545 S
C148 C149 1.516 . S
C149 C148 1.516 . S
C149 C150 1.502 . S
C149 C151 1.561 . S
C149 C152 1.526 1_545 S
C150 H134 0.959 1_545 S
C150 H135 0.959 . S
C150 H136 0.961 . S
C150 C149 1.502 . S
C151 H137 0.960 . S
C151 H138 0.961 . S
C151 H139 0.959 . S
C151 C149 1.561 . S
C152 C149 1.526 1_565 S
C152 C153 1.396 . S
C152 C157 1.390 . S
C153 C147 1.465 . S
C153 C152 1.396 . S
C153 C154 1.399 . S
C154 H140 0.929 . S
C154 C153 1.399 . S
C154 C155 1.385 . S
C155 H141 0.931 . S
C155 C154 1.385 . S
C155 C156 1.389 . S
C156 C155 1.389 . S
C156 C157 1.387 . S
C157 H142 0.930 . S
C157 C152 1.390 . S
C157 C156 1.387 . S
H158 C170 0.930 . S
H159 C172 0.930 . S
H160 C173 0.930 . S
H161 C177 0.959 . S
H162 C177 0.959 . S
H163 C177 0.961 . S
H164 C178 0.960 . S
H165 C178 0.961 . S
H166 C178 0.959 . S
H167 C181 0.929 . S
H168 C182 0.931 . S
H169 C184 0.930 . S
C170 H158 0.930 . S
C170 C171 1.399 . S
C170 C175 1.399 . S
C171 C170 1.399 . S
C171 C172 1.376 . S
C172 H159 0.930 . S
C172 C171 1.376 . S
C172 C173 1.388 . S
C173 H160 0.930 . S
C173 C172 1.388 . S
C173 C174 1.390 . S
C174 C173 1.390 . S
C174 C175 1.394 . S
C174 C180 1.465 . S
C175 C170 1.399 . S
C175 C174 1.394 . S
C175 C176 1.516 . S
C176 C175 1.516 . S
C176 C177 1.502 . S
C176 C178 1.561 . S
C176 C179 1.526 . S
C177 H161 0.959 . S
C177 H162 0.959 . S
C177 H163 0.961 . S
C177 C176 1.502 . S
C178 H164 0.960 . S
C178 H165 0.961 . S
C178 H166 0.959 . S
C178 C176 1.561 . S
C179 C176 1.526 . S
C179 C180 1.396 . S
C179 C184 1.390 . S
C180 C174 1.465 . S
C180 C179 1.396 . S
C180 C181 1.399 . S
C181 H167 0.929 . S
C181 C180 1.399 . S
C181 C182 1.385 . S
C182 H168 0.931 . S
C182 C181 1.385 . S
C182 C183 1.389 . S
C183 C182 1.389 . S
C183 C184 1.387 . S
C184 H169 0.930 . S
C184 C179 1.390 . S
C184 C183 1.387 . S
H185 C197 0.930 1_565 S
H186 C199 0.930 . S
H187 C200 0.930 . S
H188 C204 0.959 1_545 S
H189 C204 0.959 . S
H190 C204 0.961 . S
H191 C205 0.960 . S
H192 C205 0.961 . S
H193 C205 0.959 . S
H194 C208 0.929 . S
H195 C209 0.931 . S
H196 C211 0.930 . S
C197 H185 0.930 1_545 S
C197 C198 1.399 . S
C197 C202 1.396 1_545 S
C198 C197 1.399 . S
C198 C199 1.376 . S
C199 H186 0.930 . S
C199 C198 1.376 . S
C199 C200 1.388 . S
C200 H187 0.930 . S
C200 C199 1.388 . S
C200 C201 1.390 . S
C201 C200 1.390 . S
C201 C202 1.386 1_545 S
C201 C207 1.465 . S
C202 C197 1.396 1_565 S
C202 C201 1.386 1_565 S
C202 C203 1.527 . S
C203 C202 1.527 . S
C203 C204 1.502 . S
C203 C205 1.561 . S
C203 C206 1.526 . S
C204 H188 0.959 1_565 S
C204 H189 0.959 . S
C204 H190 0.961 . S
C204 C203 1.502 . S
C205 H191 0.960 . S
C205 H192 0.961 . S
C205 H193 0.959 . S
C205 C203 1.561 . S
C206 C203 1.526 . S
C206 C207 1.396 1_565 S
C206 C211 1.390 . S
C207 C201 1.465 . S
C207 C206 1.396 1_545 S
C207 C208 1.399 . S
C208 H194 0.929 . S
C208 C207 1.399 . S
C208 C209 1.385 . S
C209 H195 0.931 . S
C209 C208 1.385 . S
C209 C210 1.389 1_545 S
C210 C209 1.389 1_565 S
C210 C211 1.387 . S
C211 H196 0.930 . S
C211 C206 1.390 . S
C211 C210 1.387 . S
H212 C224 0.930 . S
H213 C226 0.930 . S
H214 C227 0.930 . S
H215 C231 0.959 . S
H216 C231 0.959 . S
H217 C231 0.961 . S
H218 C232 0.960 . S
H219 C232 0.961 . S
H220 C232 0.959 . S
H221 C235 0.929 . S
H222 C236 0.931 . S
H223 C238 0.930 . S
C224 H212 0.930 . S
C224 C225 1.399 . S
C224 C229 1.399 . S
C225 C224 1.399 . S
C225 C226 1.376 . S
C226 H213 0.930 . S
C226 C225 1.376 . S
C226 C227 1.388 . S
C227 H214 0.930 . S
C227 C226 1.388 . S
C227 C228 1.390 . S
C228 C227 1.390 . S
C228 C229 1.394 . S
C228 C234 1.465 . S
C229 C224 1.399 . S
C229 C228 1.394 . S
C229 C230 1.516 . S
C230 C229 1.516 . S
C230 C231 1.502 . S
C230 C232 1.561 . S
C230 C233 1.526 . S
C231 H215 0.959 . S
C231 H216 0.959 . S
C231 H217 0.961 . S
C231 C230 1.502 . S
C232 H218 0.960 . S
C232 H219 0.961 . S
C232 H220 0.959 . S
C232 C230 1.561 . S
C233 C230 1.526 . S
C233 C234 1.396 . S
C233 C238 1.390 . S
C234 C228 1.465 . S
C234 C233 1.396 . S
C234 C235 1.399 . S
C235 H221 0.929 . S
C235 C234 1.399 . S
C235 C236 1.385 . S
C236 H222 0.931 . S
C236 C235 1.385 . S
C236 C237 1.389 . S
C237 C236 1.389 . S
C237 C238 1.387 . S
C238 H223 0.930 . S
C238 C233 1.390 . S
C238 C237 1.387 . S
H239 C251 0.930 . S
H240 C253 0.930 . S
H241 C254 0.930 . S
H242 C258 0.959 . S
H243 C258 0.959 . S
H244 C258 0.961 . S
H245 C259 0.960 . S
H246 C259 0.961 . S
H247 C259 0.959 . S
H248 C262 0.929 . S
H249 C263 0.931 . S
H250 C265 0.930 . S
C251 H239 0.930 . S
C251 C252 1.399 . S
C251 C256 1.399 . S
C252 C251 1.399 . S
C252 C253 1.376 1_545 S
C253 H240 0.930 . S
C253 C252 1.376 1_565 S
C253 C254 1.388 . S
C254 H241 0.930 . S
C254 C253 1.388 . S
C254 C255 1.390 . S
C255 C254 1.390 . S
C255 C256 1.394 1_565 S
C255 C261 1.465 . S
C256 C251 1.399 . S
C256 C255 1.394 1_545 S
C256 C257 1.516 . S
C257 C256 1.516 . S
C257 C258 1.502 . S
C257 C259 1.561 . S
C257 C260 1.526 . S
C258 H242 0.959 . S
C258 H243 0.959 . S
C258 H244 0.961 . S
C258 C257 1.502 . S
C259 H245 0.960 . S
C259 H246 0.961 . S
C259 H247 0.959 . S
C259 C257 1.561 . S
C260 C257 1.526 . S
C260 C261 1.396 1_545 S
C260 C265 1.390 . S
C261 C255 1.465 . S
C261 C260 1.396 1_565 S
C261 C262 1.399 . S
C262 H248 0.929 . S
C262 C261 1.399 . S
C262 C263 1.385 . S
C263 H249 0.931 . S
C263 C262 1.385 . S
C263 C264 1.389 . S
C264 C263 1.389 . S
C264 C265 1.387 1_565 S
C265 H250 0.930 . S
C265 C260 1.390 . S
C265 C264 1.387 1_545 S
H266 C278 0.930 . S
H267 C280 0.930 . S
H268 C281 0.930 . S
H269 C285 0.959 . S
H270 C285 0.959 . S
H271 C285 0.961 . S
H272 C286 0.960 . S
H273 C286 0.961 . S
H274 C286 0.959 . S
H275 C289 0.929 . S
H276 C290 0.931 1_655 S
H277 C292 0.930 . S
C278 H266 0.930 . S
C278 C279 1.399 . S
C278 C283 1.399 . S
C279 C278 1.399 . S
C279 C280 1.376 . S
C280 H267 0.930 . S
C280 C279 1.376 . S
C280 C281 1.388 . S
C281 H268 0.930 . S
C281 C280 1.388 . S
C281 C282 1.390 . S
C282 C281 1.390 . S
C282 C283 1.394 . S
C282 C288 1.465 . S
C283 C278 1.399 . S
C283 C282 1.394 . S
C283 C284 1.516 . S
C284 C283 1.516 . S
C284 C285 1.502 . S
C284 C286 1.561 . S
C284 C287 1.526 . S
C285 H269 0.959 . S
C285 H270 0.959 . S
C285 H271 0.961 . S
C285 C284 1.502 . S
C286 H272 0.960 . S
C286 H273 0.961 . S
C286 H274 0.959 . S
C286 C284 1.561 . S
C287 C284 1.526 . S
C287 C288 1.396 . S
C287 C292 1.390 . S
C288 C282 1.465 . S
C288 C287 1.396 . S
C288 C289 1.399 . S
C289 H275 0.929 . S
C289 C288 1.399 . S
C289 C290 1.385 . S
C290 H276 0.931 1_455 S
C290 C289 1.385 . S
C290 C291 1.389 . S
C291 C290 1.389 . S
C291 C292 1.387 . S
C292 H277 0.930 . S
C292 C287 1.390 . S
C292 C291 1.387 . S
H293 C305 0.930 1_545 S
H294 C307 0.930 . S
H295 C308 0.930 . S
H296 C312 0.959 . S
H297 C312 0.959 . S
H298 C312 0.961 . S
H299 C313 0.960 . S
H300 C313 0.961 . S
H301 C313 0.959 . S
H302 C316 0.929 . S
H303 C317 0.931 . S
H304 C319 0.930 . S
C305 H293 0.930 1_565 S
C305 C306 1.399 . S
C305 C310 1.398 1_565 S
C306 C305 1.399 . S
C306 C307 1.376 . S
C307 H294 0.930 . S
C307 C306 1.376 . S
C307 C308 1.388 . S
C308 H295 0.930 . S
C308 C307 1.388 . S
C308 C309 1.390 . S
C309 C308 1.390 . S
C309 C310 1.383 1_565 S
C309 C315 1.465 . S
C310 C305 1.398 1_545 S
C310 C309 1.383 1_545 S
C310 C311 1.527 . S
C311 C310 1.527 . S
C311 C312 1.502 . S
C311 C313 1.561 . S
C311 C314 1.526 . S
C312 H296 0.959 . S
C312 H297 0.959 . S
C312 H298 0.961 . S
C312 C311 1.502 . S
C313 H299 0.960 . S
C313 H300 0.961 . S
C313 H301 0.959 . S
C313 C311 1.561 . S
C314 C311 1.526 . S
C314 C315 1.396 1_545 S
C314 C319 1.390 . S
C315 C309 1.465 . S
C315 C314 1.396 1_565 S
C315 C316 1.399 . S
C316 H302 0.929 . S
C316 C315 1.399 . S
C316 C317 1.385 . S
C317 H303 0.931 . S
C317 C316 1.385 . S
C317 C318 1.389 1_565 S
C318 C317 1.389 1_545 S
C318 C319 1.387 . S
C319 H304 0.930 . S
C319 C314 1.390 . S
C319 C318 1.387 . S
H320 C332 0.930 1_655 S
H321 C334 0.930 . S
H322 C335 0.930 . S
H323 C339 0.959 . S
H324 C339 0.959 . S
H325 C339 0.961 . S
H326 C340 0.960 . S
H327 C340 0.961 . S
H328 C340 0.959 . S
H329 C343 0.929 . S
H330 C344 0.938 . S
H331 C346 0.930 . S
C332 H320 0.930 1_455 S
C332 C333 1.399 . S
C332 C337 1.396 1_455 S
C333 C332 1.399 . S
C333 C334 1.376 . S
C334 H321 0.930 . S
C334 C333 1.376 . S
C334 C335 1.388 . S
C335 H322 0.930 . S
C335 C334 1.388 . S
C335 C336 1.390 . S
C336 C335 1.390 . S
C336 C337 1.383 1_455 S
C336 C342 1.465 . S
C337 C332 1.396 1_655 S
C337 C336 1.383 1_655 S
C337 C338 1.529 . S
C338 C337 1.529 . S
C338 C339 1.502 . S
C338 C340 1.561 . S
C338 C341 1.526 . S
C339 H323 0.959 . S
C339 H324 0.959 . S
C339 H325 0.961 . S
C339 C338 1.502 . S
C340 H326 0.960 . S
C340 H327 0.961 . S
C340 H328 0.959 . S
C340 C338 1.561 . S
C341 C338 1.526 . S
C341 C342 1.396 1_655 S
C341 C346 1.390 . S
C342 C336 1.465 . S
C342 C341 1.396 1_455 S
C342 C343 1.399 . S
C343 H329 0.929 . S
C343 C342 1.399 . S
C343 C344 1.398 . S
C344 H330 0.938 . S
C344 C343 1.398 . S
C344 C345 1.370 1_455 S
C345 C344 1.370 1_655 S
C345 C346 1.387 . S
C346 H331 0.930 . S
C346 C341 1.390 . S
C346 C345 1.387 . S
H347 C359 0.930 . S
H348 C361 0.930 . S
H349 C362 0.930 . S
H350 C366 0.959 . S
H351 C366 0.959 . S
H352 C366 0.961 . S
H353 C367 0.969 . S
H354 C367 0.961 . S
H355 C367 0.959 . S
H356 C370 0.929 . S
H357 C371 0.931 . S
H358 C373 0.930 . S
C359 H347 0.930 . S
C359 C360 1.399 . S
C359 C364 1.399 . S
C360 C359 1.399 . S
C360 C361 1.376 . S
C361 H348 0.930 . S
C361 C360 1.376 . S
C361 C362 1.388 1_565 S
C362 H349 0.930 . S
C362 C361 1.388 1_545 S
C362 C363 1.390 . S
C363 C362 1.390 . S
C363 C364 1.394 1_545 S
C363 C369 1.465 . S
C364 C359 1.399 . S
C364 C363 1.394 1_565 S
C364 C365 1.516 . S
C365 C364 1.516 . S
C365 C366 1.502 . S
C365 C367 1.561 1_565 S
C365 C368 1.526 1_565 S
C366 H350 0.959 . S
C366 H351 0.959 . S
C366 H352 0.961 . S
C366 C365 1.502 . S
C367 H353 0.969 . S
C367 H354 0.961 . S
C367 H355 0.959 . S
C367 C365 1.561 1_545 S
C368 C365 1.526 1_545 S
C368 C369 1.396 . S
C368 C373 1.390 . S
C369 C363 1.465 . S
C369 C368 1.396 . S
C369 C370 1.399 . S
C370 H356 0.929 . S
C370 C369 1.399 . S
C370 C371 1.385 . S
C371 H357 0.931 . S
C371 C370 1.385 . S
C371 C372 1.389 . S
C372 C371 1.389 . S
C372 C373 1.387 . S
C373 H358 0.930 . S
C373 C368 1.390 . S
C373 C372 1.387 . S
H374 C386 0.930 . S
H375 C388 0.930 . S
H376 C389 0.930 . S
H377 C393 0.959 1_556 S
H378 C393 0.959 . S
H379 C393 0.961 . S
H380 C394 0.960 . S
H381 C394 0.961 . S
H382 C394 0.959 . S
H383 C397 0.929 . S
H384 C398 0.931 . S
H385 C400 0.930 . S
C386 H374 0.930 . S
C386 C387 1.399 . S
C386 C391 1.399 . S
C387 C386 1.399 . S
C387 C388 1.376 . S
C388 H375 0.930 . S
C388 C387 1.376 . S
C388 C389 1.388 . S
C389 H376 0.930 . S
C389 C388 1.388 . S
C389 C390 1.390 . S
C390 C389 1.390 . S
C390 C391 1.394 . S
C390 C396 1.465 1_554 S
C391 C386 1.399 . S
C391 C390 1.394 . S
C391 C392 1.516 . S
C392 C391 1.516 . S
C392 C393 1.502 . S
C392 C394 1.561 . S
C392 C395 1.526 1_554 S
C393 H377 0.959 1_554 S
C393 H378 0.959 . S
C393 H379 0.961 . S
C393 C392 1.502 . S
C394 H380 0.960 . S
C394 H381 0.961 . S
C394 H382 0.959 . S
C394 C392 1.561 . S
C395 C392 1.526 1_556 S
C395 C396 1.396 . S
C395 C400 1.390 . S
C396 C390 1.465 1_556 S
C396 C395 1.396 . S
C396 C397 1.399 . S
C397 H383 0.929 . S
C397 C396 1.399 . S
C397 C398 1.385 . S
C398 H384 0.931 . S
C398 C397 1.385 . S
C398 C399 1.389 . S
C399 C398 1.389 . S
C399 C400 1.387 . S
C400 H385 0.930 . S
C400 C395 1.390 . S
C400 C399 1.387 . S
H401 C413 0.930 . S
H402 C415 0.930 . S
H403 C416 0.930 . S
H404 C420 0.959 . S
H405 C420 0.959 . S
H406 C420 0.961 . S
H407 C421 0.960 . S
H408 C421 0.961 . S
H409 C421 0.959 . S
H410 C424 0.929 . S
H411 C425 0.931 . S
H412 C427 0.930 1_565 S
C413 H401 0.930 . S
C413 C414 1.399 . S
C413 C418 1.399 . S
C414 C413 1.399 . S
C414 C415 1.376 1_565 S
C415 H402 0.930 . S
C415 C414 1.376 1_545 S
C415 C416 1.388 . S
C416 H403 0.930 . S
C416 C415 1.388 . S
C416 C417 1.390 . S
C417 C416 1.390 . S
C417 C418 1.394 1_545 S
C417 C423 1.465 1_456 S
C418 C413 1.399 . S
C418 C417 1.394 1_565 S
C418 C419 1.516 1_556 S
C419 C418 1.516 1_554 S
C419 C420 1.502 1_455 S
C419 C421 1.561 . S
C419 C422 1.526 1_455 S
C420 H404 0.959 . S
C420 H405 0.959 . S
C420 H406 0.961 . S
C420 C419 1.502 1_655 S
C421 H407 0.960 . S
C421 H408 0.961 . S
C421 H409 0.959 . S
C421 C419 1.561 . S
C422 C419 1.526 1_655 S
C422 C423 1.396 1_565 S
C422 C427 1.390 1_565 S
C423 C417 1.465 1_654 S
C423 C422 1.396 1_545 S
C423 C424 1.399 . S
C424 H410 0.929 . S
C424 C423 1.399 . S
C424 C425 1.385 . S
C425 H411 0.931 . S
C425 C424 1.385 . S
C425 C426 1.389 . S
C426 C425 1.389 . S
C426 C427 1.387 . S
C427 H412 0.930 1_545 S
C427 C422 1.390 1_545 S
C427 C426 1.387 . S
H428 C440 0.930 . S
H429 C442 0.930 . S
H430 C443 0.930 . S
H431 C447 0.959 . S
H432 C447 0.959 . S
H433 C447 0.961 . S
H434 C448 0.960 . S
H435 C448 0.961 . S
H436 C448 0.959 . S
H437 C451 0.929 . S
H438 C452 0.931 . S
H439 C454 0.930 . S
C440 H428 0.930 . S
C440 C441 1.399 . S
C440 C445 1.399 . S
C441 C440 1.399 . S
C441 C442 1.376 . S
C442 H429 0.930 . S
C442 C441 1.376 . S
C442 C443 1.388 . S
C443 H430 0.930 . S
C443 C442 1.388 . S
C443 C444 1.390 . S
C444 C443 1.390 . S
C444 C445 1.394 . S
C444 C450 1.465 . S
C445 C440 1.399 . S
C445 C444 1.394 . S
C445 C446 1.516 . S
C446 C445 1.516 . S
C446 C447 1.502 . S
C446 C448 1.561 . S
C446 C449 1.526 . S
C447 H431 0.959 . S
C447 H432 0.959 . S
C447 H433 0.961 . S
C447 C446 1.502 . S
C448 H434 0.960 . S
C448 H435 0.961 . S
C448 H436 0.959 . S
C448 C446 1.561 . S
C449 C446 1.526 . S
C449 C450 1.396 . S
C449 C454 1.390 . S
C450 C444 1.465 . S
C450 C449 1.396 . S
C450 C451 1.399 . S
C451 H437 0.929 . S
C451 C450 1.399 . S
C451 C452 1.385 . S
C452 H438 0.931 . S
C452 C451 1.385 . S
C452 C453 1.389 . S
C453 C452 1.389 . S
C453 C454 1.387 . S
C454 H439 0.930 . S
C454 C449 1.390 . S
C454 C453 1.387 . S
H455 C467 0.930 . S
H456 C469 0.930 . S
H457 C470 0.930 . S
H458 C474 0.959 . S
H459 C474 0.959 . S
H460 C474 0.961 . S
H461 C475 0.960 . S
H462 C475 0.961 . S
H463 C475 0.959 . S
H464 C478 0.929 . S
H465 C479 0.931 . S
H466 C481 0.930 . S
C467 H455 0.930 . S
C467 C468 1.399 . S
C467 C472 1.399 . S
C468 C467 1.399 . S
C468 C469 1.376 . S
C469 H456 0.930 . S
C469 C468 1.376 . S
C469 C470 1.388 . S
C470 H457 0.930 . S
C470 C469 1.388 . S
C470 C471 1.390 . S
C471 C470 1.390 . S
C471 C472 1.394 . S
C471 C477 1.465 . S
C472 C467 1.399 . S
C472 C471 1.394 . S
C472 C473 1.516 . S
C473 C472 1.516 . S
C473 C474 1.502 . S
C473 C475 1.561 . S
C473 C476 1.526 . S
C474 H458 0.959 . S
C474 H459 0.959 . S
C474 H460 0.961 . S
C474 C473 1.502 . S
C475 H461 0.960 . S
C475 H462 0.961 . S
C475 H463 0.959 . S
C475 C473 1.561 . S
C476 C473 1.526 . S
C476 C477 1.396 . S
C476 C481 1.390 . S
C477 C471 1.465 . S
C477 C476 1.396 . S
C477 C478 1.399 . S
C478 H464 0.929 . S
C478 C477 1.399 . S
C478 C479 1.385 . S
C479 H465 0.931 . S
C479 C478 1.385 . S
C479 C480 1.389 . S
C480 C479 1.389 . S
C480 C481 1.387 . S
C481 H466 0.930 . S
C481 C476 1.390 . S
C481 C480 1.387 . S
H482 C494 0.930 . S
H483 C496 0.930 . S
H484 C497 0.930 . S
H485 C501 0.959 . S
H486 C501 0.959 . S
H487 C501 0.961 . S
H488 C502 0.960 . S
H489 C502 0.961 . S
H490 C502 0.959 . S
H491 C505 0.929 . S
H492 C506 0.931 . S
H493 C508 0.930 . S
C494 H482 0.930 . S
C494 C495 1.399 . S
C494 C499 1.399 . S
C495 C494 1.399 . S
C495 C496 1.376 . S
C496 H483 0.930 . S
C496 C495 1.376 . S
C496 C497 1.388 . S
C497 H484 0.930 . S
C497 C496 1.388 . S
C497 C498 1.390 . S
C498 C497 1.390 . S
C498 C499 1.394 . S
C498 C504 1.465 . S
C499 C494 1.399 . S
C499 C498 1.394 . S
C499 C500 1.516 . S
C500 C499 1.516 . S
C500 C501 1.502 . S
C500 C502 1.561 . S
C500 C503 1.526 . S
C501 H485 0.959 . S
C501 H486 0.959 . S
C501 H487 0.961 . S
C501 C500 1.502 . S
C502 H488 0.960 . S
C502 H489 0.961 . S
C502 H490 0.959 . S
C502 C500 1.561 . S
C503 C500 1.526 . S
C503 C504 1.396 . S
C503 C508 1.390 . S
C504 C498 1.465 . S
C504 C503 1.396 . S
C504 C505 1.399 . S
C505 H491 0.929 . S
C505 C504 1.399 . S
C505 C506 1.385 . S
C506 H492 0.931 . S
C506 C505 1.385 . S
C506 C507 1.389 . S
C507 C506 1.389 . S
C507 C508 1.387 . S
C508 H493 0.930 . S
C508 C503 1.390 . S
C508 C507 1.387 . S
H509 C521 0.930 . S
H510 C523 0.930 . S
H511 C524 0.930 . S
H512 C528 0.959 . S
H513 C528 0.959 . S
H514 C528 0.961 . S
H515 C529 0.960 . S
H516 C529 0.961 . S
H517 C529 0.959 . S
H518 C532 0.929 . S
H519 C533 0.931 . S
H520 C535 0.930 . S
C521 H509 0.930 . S
C521 C522 1.399 . S
C521 C526 1.399 . S
C522 C521 1.399 . S
C522 C523 1.376 . S
C523 H510 0.930 . S
C523 C522 1.376 . S
C523 C524 1.388 . S
C524 H511 0.930 . S
C524 C523 1.388 . S
C524 C525 1.390 . S
C525 C524 1.390 . S
C525 C526 1.394 . S
C525 C531 1.465 . S
C526 C521 1.399 . S
C526 C525 1.394 . S
C526 C527 1.516 . S
C527 C526 1.516 . S
C527 C528 1.502 . S
C527 C529 1.561 . S
C527 C530 1.526 . S
C528 H512 0.959 . S
C528 H513 0.959 . S
C528 H514 0.961 . S
C528 C527 1.502 . S
C529 H515 0.960 . S
C529 H516 0.961 . S
C529 H517 0.959 . S
C529 C527 1.561 . S
C530 C527 1.526 . S
C530 C531 1.396 . S
C530 C535 1.390 . S
C531 C525 1.465 . S
C531 C530 1.396 . S
C531 C532 1.399 . S
C532 H518 0.929 . S
C532 C531 1.399 . S
C532 C533 1.385 . S
C533 H519 0.931 . S
C533 C532 1.385 . S
C533 C534 1.389 . S
C534 C533 1.389 . S
C534 C535 1.387 . S
C535 H520 0.930 . S
C535 C530 1.390 . S
C535 C534 1.387 . S
C117 C10 1.550 . S
C129 C29 1.546 . S
C144 C44 1.549 1_455 S
C156 C23 1.545 . S
C171 C30 1.552 . S
C183 C5 1.552 1_655 S
C198 C49 1.550 . S
C210 C18 1.553 . S
C225 C83 1.553 . S
C237 C56 1.546 . S
C252 C75 1.555 . S
C264 C96 1.546 1_655 S
C279 C88 1.543 . S
C291 C55 1.553 1_455 S
C306 C101 1.544 . S
C318 C70 1.554 . S
C333 C3 1.511 . S
C345 C57 1.508 . S
C360 C16 1.506 . S
C372 C68 1.513 . S
C387 C31 1.507 . S
C399 C81 1.512 . S
C414 C94 1.504 . S
C426 C42 1.518 . S
C441 C4 1.508 . S
C453 C17 1.507 . S
C468 C43 1.513 . S
C480 C36 1.511 . S
C495 C69 1.522 . S
C507 C62 1.523 . S
C522 C82 1.507 . S
C534 C95 1.506 . S
