# Generated by pormake.
# Topology unb, (4)-cn, num edge types: 1
# Building blocks:
#     Node 0, Type 0, BuildingBlock: KUFVIS_clean_sbu_0, # of connection points: 4
#     Node 1, Type 0, BuildingBlock: KUFVIS_clean_sbu_0, # of connection points: 4
#     Node 2, Type 0, BuildingBlock: KUFVIS_clean_sbu_0, # of connection points: 4
#     Node 3, Type 0, BuildingBlock: KUFVIS_clean_sbu_0, # of connection points: 4
#     Node 4, Type 0, BuildingBlock: KUFVIS_clean_sbu_0, # of connection points: 4
#     Node 5, Type 0, BuildingBlock: KUFVIS_clean_sbu_0, # of connection points: 4
#     Node 6, Type 0, BuildingBlock: KUFVIS_clean_sbu_0, # of connection points: 4
#     Node 7, Type 0, BuildingBlock: KUFVIS_clean_sbu_0, # of connection points: 4
#     Node 8, Type 0, BuildingBlock: KUFVIS_clean_sbu_0, # of connection points: 4
#     Node 9, Type 0, BuildingBlock: KUFVIS_clean_sbu_0, # of connection points: 4
#     Node 10, Type 0, BuildingBlock: KUFVIS_clean_sbu_0, # of connection points: 4
#     Node 11, Type 0, BuildingBlock: KUFVIS_clean_sbu_0, # of connection points: 4
#     Node 12, Type 0, BuildingBlock: KUFVIS_clean_sbu_0, # of connection points: 4
#     Node 13, Type 0, BuildingBlock: KUFVIS_clean_sbu_0, # of connection points: 4
#     Node 14, Type 0, BuildingBlock: KUFVIS_clean_sbu_0, # of connection points: 4
#     Node 15, Type 0, BuildingBlock: KUFVIS_clean_sbu_0, # of connection points: 4
#     Node 16, Type 0, BuildingBlock: KUFVIS_clean_sbu_0, # of connection points: 4
#     Node 17, Type 0, BuildingBlock: KUFVIS_clean_sbu_0, # of connection points: 4
#     Edge 18, Type (0, 0), None
#     Edge 19, Type (0, 0), None
#     Edge 20, Type (0, 0), None
#     Edge 21, Type (0, 0), None
#     Edge 22, Type (0, 0), None
#     Edge 23, Type (0, 0), None
#     Edge 24, Type (0, 0), None
#     Edge 25, Type (0, 0), None
#     Edge 26, Type (0, 0), None
#     Edge 27, Type (0, 0), None
#     Edge 28, Type (0, 0), None
#     Edge 29, Type (0, 0), None
#     Edge 30, Type (0, 0), None
#     Edge 31, Type (0, 0), None
#     Edge 32, Type (0, 0), None
#     Edge 33, Type (0, 0), None
#     Edge 34, Type (0, 0), None
#     Edge 35, Type (0, 0), None
#     Edge 36, Type (0, 0), None
#     Edge 37, Type (0, 0), None
#     Edge 38, Type (0, 0), None
#     Edge 39, Type (0, 0), None
#     Edge 40, Type (0, 0), None
#     Edge 41, Type (0, 0), None
#     Edge 42, Type (0, 0), None
#     Edge 43, Type (0, 0), None
#     Edge 44, Type (0, 0), None
#     Edge 45, Type (0, 0), None
#     Edge 46, Type (0, 0), None
#     Edge 47, Type (0, 0), None
#     Edge 48, Type (0, 0), None
#     Edge 49, Type (0, 0), None
#     Edge 50, Type (0, 0), None
#     Edge 51, Type (0, 0), None
#     Edge 52, Type (0, 0), None
#     Edge 53, Type (0, 0), None
# Relax obj value: 0.065
# Max RMSD: 0.070
# Mean RMSD: 0.070
data_MOF--net-unb--node1-KUFVIS_clean_sbu_0--edge1-none
_symmetry_space_group_name_H-M    P1
_symmetry_Int_Tables_number       1
_symmetry_cell_setting            triclinic
loop_
_symmetry_equiv_pos_as_xyz
'x, y, z'
_cell_length_a     29.162341
_cell_length_b     29.164916
_cell_length_c     12.015101
_cell_angle_alpha  89.981186
_cell_angle_beta   90.039797
_cell_angle_gamma 120.00173
loop_
_atom_site_label
_atom_site_type_symbol
_atom_site_fract_x
_atom_site_fract_y
_atom_site_fract_z
_atom_type_partial_charge
Mn0 Mn 0.17283 0.27627 -0.0016 0.0
Mn1 Mn 0.15395 0.3616 0.02734 0.0
C2 C 0.18915 0.32596 0.84005 0.0
C3 C 0.21545 0.2237 -0.02922 0.0
C4 C 0.04559 0.24621 -0.03114 0.0
O5 O 0.20013 0.29644 0.17357 0.0
O6 O 0.17848 0.3559 0.17523 0.0
C7 C 0.24803 0.45706 0.12169 0.0
N8 N 0.20748 0.43436 0.04654 0.0
C9 C 0.21396 0.51774 0.01053 0.0
C10 C 0.25462 0.54193 0.08879 0.0
C11 C 0.27028 0.51065 0.14746 0.0
C12 C 0.1924 0.46367 -0.0099 0.0
H13 H 0.26222 0.43451 0.16593 0.0
C14 C 0.2023 0.33672 0.22379 0.0
O15 O 0.16565 0.20108 -0.0028 0.0
O16 O 0.23949 0.27415 -0.02648 0.0
N17 N 0.13364 0.38467 0.90347 0.0
C18 C 0.09172 0.35449 0.84013 0.0
C19 C 0.05776 0.37255 0.81059 0.0
C20 C 0.07088 0.42336 0.84094 0.0
C21 C 0.12094 0.45841 0.8864 0.0
C22 C 0.15034 0.43625 0.92063 0.0
H23 H 0.0831 0.3157 0.82392 0.0
O24 O 0.16484 0.27508 0.83514 0.0
O25 O 0.20224 0.34813 0.93871 0.0
O26 O 0.09525 0.2767 -0.00016 0.0
O27 O 0.09526 0.27893 0.00055 0.0
C28 C 0.14361 0.51353 0.89881 0.0
C29 C 0.19103 0.54377 0.95738 0.0
H30 H 0.27239 0.58362 0.10766 0.0
H31 H 0.2978 0.52673 0.21554 0.0
H32 H 1.02052 0.34735 0.76926 0.0
H33 H 0.04207 0.43342 0.82123 0.0
H34 H 0.12811 0.53388 0.8562 0.0
H35 H 0.20812 0.5862 -0.03594 0.0
Mn36 Mn 0.77466 0.90651 -0.00174 0.0
Mn37 Mn 0.68932 0.80228 0.02718 0.0
C38 C 0.72498 0.87316 0.83985 0.0
C39 C 0.82723 1.00171 -0.02926 0.0
C40 C 0.80472 0.80934 -0.0311 0.0
O41 O 0.75444 0.91362 0.17334 0.0
O42 O 0.695 0.83251 0.17504 0.0
C43 C 0.59383 0.80086 0.12128 0.0
N44 N 0.61655 0.78304 0.04622 0.0
C45 C 0.53317 0.70614 0.01007 0.0
C46 C 0.50896 0.72259 0.08821 0.0
C47 C 0.54023 0.7695 0.14692 0.0
C48 C 0.58724 0.73866 -0.01023 0.0
H49 H 0.61637 0.83758 0.16553 0.0
C50 C 0.71416 0.87552 0.22352 0.0
O51 O 0.84985 0.97452 -0.00276 0.0
O52 O 0.77677 0.97528 -0.02672 0.0
N53 N 0.66626 0.75892 0.90333 0.0
C54 C 0.69646 0.74722 0.84004 0.0
C55 C 0.6784 0.69521 0.81054 0.0
C56 C 0.62759 0.65751 0.84084 0.0
C57 C 0.59253 0.67249 0.88618 0.0
C58 C 0.61468 0.72404 0.92041 0.0
H59 H 0.73524 0.7774 0.82384 0.0
O60 O 0.77588 0.89975 0.83502 0.0
O61 O 0.7028 0.86406 0.93847 0.0
O62 O 0.77423 0.8285 -0.00017 0.0
O63 O 0.772 0.82628 0.00055 0.0
C64 C 0.5374 0.64003 0.89849 0.0
C65 C 0.50715 0.65719 0.95693 0.0
H66 H 0.46725 0.69865 0.10698 0.0
H67 H 0.52413 0.78091 0.21495 0.0
H68 H 0.70361 0.68319 0.76927 0.0
H69 H 0.61754 0.61864 0.82115 0.0
H70 H 0.51705 0.60419 0.85588 0.0
H71 H 0.46471 0.63185 -0.03649 0.0
Mn72 Mn 0.14443 0.87811 -0.00191 0.0
Mn73 Mn 0.24867 0.89702 0.02722 0.0
C74 C 0.17777 0.86179 0.83979 0.0
C75 C 0.04924 0.83549 -0.02939 0.0
C76 C 0.24159 1.00534 -0.03132 0.0
O77 O 0.13732 0.85079 0.1732 0.0
O78 O 0.21844 0.87248 0.17506 0.0
C79 C 0.25009 0.80296 0.12155 0.0
N80 N 0.26791 0.8435 0.04644 0.0
C81 C 0.34479 0.83699 0.01041 0.0
C82 C 0.32834 0.79633 0.08862 0.0
C83 C 0.28143 0.78069 0.14729 0.0
C84 C 0.31228 0.85856 -0.00998 0.0
H85 H 0.21337 0.78878 0.16577 0.0
C86 C 0.17543 0.84862 0.22349 0.0
O87 O 0.07644 0.88531 -0.00297 0.0
O88 O 0.07566 0.81146 -0.02684 0.0
N89 N 0.29203 0.91732 0.90342 0.0
C90 C 0.30374 0.95922 0.84007 0.0
C91 C 0.35575 0.99316 0.81057 0.0
C92 C 0.39344 0.98003 0.84092 0.0
C93 C 0.37844 0.92998 0.88634 0.0
C94 C 0.3269 0.90062 0.92059 0.0
H95 H 0.27356 0.96783 0.8238 0.0
O96 O 0.15118 0.88608 0.83484 0.0
O97 O 0.18688 0.84871 0.93846 0.0
O98 O 0.22244 0.9557 -0.00035 0.0
O99 O 0.22466 0.95569 0.00037 0.0
C100 C 0.41089 0.90729 0.89872 0.0
C101 C 0.39372 0.85989 0.95726 0.0
H102 H 0.35227 0.77855 0.10746 0.0
H103 H 0.27002 0.75318 0.21534 0.0
H104 H 0.36778 0.03039 0.76925 0.0
H105 H 0.43231 1.00883 0.8212 0.0
H106 H 0.44672 0.92277 0.85611 0.0
H107 H 0.41905 0.84277 -0.03609 0.0
Mn108 Mn 0.30992 0.1673 0.91192 0.0
Mn109 Mn 0.40634 0.16407 0.87749 0.0
C110 C 0.36094 0.18819 0.07 0.0
C111 C 0.24752 0.19841 0.93939 0.0
C112 C 0.30264 0.04844 0.94025 0.0
O113 O 0.32732 0.19315 0.73591 0.0
O114 O 0.39518 0.18306 0.73007 0.0
C115 C 0.48653 0.27269 0.80045 0.0
N116 N 0.47339 0.22984 0.86749 0.0
C117 C 0.55925 0.27633 0.95369 0.0
C118 C 0.57455 0.31799 0.87908 0.0
C119 C 0.53761 0.31652 0.80304 0.0
C120 C 0.5071 0.23328 0.9475 0.0
H121 H 0.45921 0.27418 0.74291 0.0
C122 C 0.36954 0.20114 0.68379 0.0
O123 O 0.23091 0.14947 0.91236 0.0
O124 O 0.29781 0.22813 0.93729 0.0
N125 N 0.44151 0.14726 -0.01263 0.0
C126 C 0.43583 0.09858 -0.02184 0.0
C127 C 0.47567 0.08892 0.01206 0.0
C128 C 0.52272 0.13019 0.05564 0.0
C129 C 0.53095 0.18109 0.05591 0.0
C130 C 0.49106 0.18854 0.00919 0.0
H131 H 0.40077 0.06791 0.94193 0.0
O132 O 0.31011 0.1595 0.07522 0.0
O133 O 0.38253 0.20356 -0.02861 0.0
O134 O 0.32147 0.09755 0.90669 0.0
O135 O 0.32514 0.09787 0.90501 0.0
C136 C 0.58186 0.22463 0.07434 0.0
C137 C 0.5957 0.27321 0.02482 0.0
H138 H 0.61523 0.34996 0.87671 0.0
H139 H 0.54851 0.34818 0.74378 0.0
H140 H 0.46906 0.04956 0.00535 0.0
H141 H 0.55403 0.12375 0.08263 0.0
H142 H 0.61242 0.21971 0.11422 0.0
H143 H 0.63609 0.30569 0.03123 0.0
Mn144 Mn 0.88363 0.1526 0.91203 0.0
Mn145 Mn 0.88685 0.25224 0.87739 0.0
C146 C 0.86273 0.18271 0.07 0.0
C147 C 0.85252 0.05908 0.93948 0.0
C148 C 1.0025 0.26418 0.94035 0.0
O149 O 0.85778 0.14415 0.73598 0.0
O150 O 0.86786 0.2221 0.73 0.0
C151 C 0.77823 0.22382 0.80012 0.0
N152 N 0.82108 0.25353 0.86722 0.0
C153 C 0.7746 0.29289 0.95322 0.0
C154 C 0.73294 0.26654 0.87854 0.0
C155 C 0.73441 0.23108 0.80258 0.0
C156 C 0.81764 0.28378 0.94716 0.0
H157 H 0.77674 0.19502 0.74264 0.0
C158 C 0.84979 0.17838 0.68377 0.0
O159 O 0.90147 0.09144 0.91254 0.0
O160 O 0.8228 0.07965 0.93737 0.0
N161 N 0.90366 0.30421 -0.01279 0.0
C162 C 0.95236 0.34722 -0.02196 0.0
C163 C 0.96201 0.3967 0.01191 0.0
C164 C 0.92074 0.40247 0.05538 0.0
C165 C 0.86984 0.35981 0.05557 0.0
C166 C 0.86238 0.31248 0.00891 0.0
H167 H 0.98302 0.34283 0.9419 0.0
O168 O 0.89142 0.16058 0.07533 0.0
O169 O 0.84737 0.18894 -0.02866 0.0
O170 O 0.95337 0.23389 0.90678 0.0
O171 O 0.95306 0.23725 0.90509 0.0
C172 C 0.82629 0.36717 0.07388 0.0
C173 C 0.77771 0.33245 0.02428 0.0
H174 H 0.70097 0.27525 0.87606 0.0
H175 H 0.70274 0.21033 0.74328 0.0
H176 H 1.00139 0.42946 0.00528 0.0
H177 H 0.92718 0.44021 0.08235 0.0
H178 H 0.83122 0.40265 0.11372 0.0
H179 H 0.74524 0.34037 0.03059 0.0
Mn180 Mn 0.89832 0.74099 0.91218 0.0
Mn181 Mn 0.79866 0.64458 0.87759 0.0
C182 C 0.86824 0.69001 0.07021 0.0
C183 C 0.99184 0.8034 0.93951 0.0
C184 C 0.78675 0.74829 0.94041 0.0
O185 O 0.90675 0.72355 0.73621 0.0
O186 O 0.82878 0.65571 0.73021 0.0
C187 C 0.82706 0.56437 0.80059 0.0
N188 N 0.79737 0.57753 0.8676 0.0
C189 C 0.75805 0.4917 0.95382 0.0
C190 C 0.7844 0.47639 0.87926 0.0
C191 C 0.81982 0.5133 0.8032 0.0
C192 C 0.76714 0.54385 0.94759 0.0
H193 H 0.85584 0.59166 0.74304 0.0
C194 C 0.87252 0.68134 0.68404 0.0
O195 O 0.95947 0.81999 0.9125 0.0
O196 O 0.97126 0.75311 0.93759 0.0
N197 N 0.74671 0.60944 -0.01259 0.0
C198 C 0.70369 0.6151 -0.02184 0.0
C199 C 0.65422 0.57528 0.01206 0.0
C200 C 0.64846 0.52825 0.05563 0.0
C201 C 0.69112 0.52002 0.05592 0.0
C202 C 0.73845 0.55989 0.00923 0.0
H203 H 0.70808 0.65016 0.94197 0.0
O204 O 0.89038 0.74083 0.07547 0.0
O205 O 0.86198 0.6684 -0.0284 0.0
O206 O 0.81702 0.72945 0.90684 0.0
O207 O 0.81366 0.72578 0.90515 0.0
C208 C 0.68378 0.46912 0.07438 0.0
C209 C 0.71851 0.45527 0.02492 0.0
H210 H 0.7757 0.43572 0.87692 0.0
H211 H 0.84055 0.50239 0.74394 0.0
H212 H 0.62146 0.5819 0.00537 0.0
H213 H 0.61073 0.49695 0.08263 0.0
H214 H 0.64831 0.43858 0.11425 0.0
H215 H 0.7106 0.41489 0.03136 0.0
Mn216 Mn 0.8395 0.6096 0.33171 0.0
Mn217 Mn 0.82062 0.69495 0.36064 0.0
C218 C 0.85583 0.6593 0.17337 0.0
C219 C 0.88213 0.55703 0.3041 0.0
C220 C 0.71227 0.57956 0.30217 0.0
O221 O 0.8668 0.62977 0.50688 0.0
O222 O 0.84515 0.68926 0.50855 0.0
C223 C 0.91471 0.7904 0.45499 0.0
N224 N 0.87416 0.7677 0.37983 0.0
C225 C 0.88063 0.85108 0.34384 0.0
C226 C 0.92129 0.87527 0.42211 0.0
C227 C 0.93695 0.84399 0.48078 0.0
C228 C 0.85909 0.79702 0.32339 0.0
H229 H 0.92889 0.76784 0.49923 0.0
C230 C 0.86892 0.67002 0.55709 0.0
O231 O 0.83232 0.53441 0.33051 0.0
O232 O 0.90617 0.60748 0.30684 0.0
N233 N 0.80032 0.71802 0.23676 0.0
C234 C 0.75839 0.68783 0.17343 0.0
C235 C 0.72443 0.70589 0.14392 0.0
C236 C 0.73755 0.75669 0.17429 0.0
C237 C 0.78761 0.79174 0.21972 0.0
C238 C 0.81702 0.76959 0.25392 0.0
H239 H 0.74978 0.64905 0.15723 0.0
O240 O 0.83152 0.60841 0.16845 0.0
O241 O 0.86892 0.68147 0.27203 0.0
O242 O 0.76192 0.61004 0.33314 0.0
O243 O 0.76193 0.61228 0.33386 0.0
C244 C 0.81027 0.84687 0.23216 0.0
C245 C 0.85769 0.87711 0.29072 0.0
H246 H 0.93905 0.91696 0.441 0.0
H247 H 0.96447 0.86006 0.54888 0.0
H248 H 0.68719 0.68068 0.1026 0.0
H249 H 0.70873 0.76675 0.15461 0.0
H250 H 0.79475 0.86721 0.1896 0.0
H251 H 0.87478 0.91954 0.29742 0.0
Mn252 Mn 0.44132 0.23985 0.33159 0.0
Mn253 Mn 0.35597 0.13561 0.3605 0.0
C254 C 0.39165 0.2065 0.17318 0.0
C255 C 0.4939 0.33505 0.30407 0.0
C256 C 0.47137 0.14268 0.30223 0.0
O257 O 0.42111 0.24697 0.50666 0.0
O258 O 0.36164 0.16583 0.50837 0.0
C259 C 0.26048 0.13419 0.45459 0.0
N260 N 0.28321 0.11638 0.37952 0.0
C261 C 0.19982 0.03947 0.34339 0.0
C262 C 0.17562 0.05592 0.42154 0.0
C263 C 0.20689 0.10283 0.48026 0.0
C264 C 0.2539 0.072 0.32307 0.0
H265 H 0.28303 0.17092 0.49886 0.0
C266 C 0.38085 0.20884 0.55685 0.0
O267 O 0.51652 0.30786 0.33057 0.0
O268 O 0.44344 0.30863 0.30661 0.0
N269 N 0.33292 0.09226 0.23663 0.0
C270 C 0.36311 0.08055 0.17336 0.0
C271 C 0.34506 0.02854 0.14388 0.0
C272 C 0.29425 0.99084 0.17419 0.0
C273 C 0.25919 1.00583 0.21952 0.0
C274 C 0.28134 0.05738 0.25371 0.0
H275 H 0.4019 0.11074 0.15717 0.0
O276 O 0.44254 0.23309 0.16835 0.0
O277 O 0.36947 0.1974 0.2718 0.0
O278 O 0.44089 0.16184 0.33316 0.0
O279 O 0.43866 0.15961 0.33387 0.0
C280 C 0.20406 0.97336 0.23184 0.0
C281 C 0.17381 0.99052 0.29027 0.0
H282 H 0.13391 0.03198 0.44033 0.0
H283 H 0.1908 0.11424 0.5483 0.0
H284 H 0.37027 1.01652 0.10262 0.0
H285 H 0.2842 0.95197 0.15453 0.0
H286 H 0.18372 0.93751 0.18927 0.0
H287 H 0.13137 0.96517 0.29687 0.0
Mn288 Mn 0.8111 0.21143 0.33141 0.0
Mn289 Mn 0.91534 0.23034 0.36053 0.0
C290 C 0.84443 0.19511 0.17312 0.0
C291 C 0.7159 0.16883 0.30395 0.0
C292 C 0.90826 0.33866 0.302 0.0
O293 O 0.80398 0.18412 0.50652 0.0
O294 O 0.88513 0.20581 0.50839 0.0
C295 C 0.91676 0.13628 0.45486 0.0
N296 N 0.93458 0.17682 0.37974 0.0
C297 C 1.01146 0.17031 0.34373 0.0
C298 C 0.995 0.12965 0.42195 0.0
C299 C 0.9481 0.11402 0.48062 0.0
C300 C 0.97895 0.19187 0.32332 0.0
H301 H 0.88004 0.1221 0.49909 0.0
C302 C 0.84211 0.182 0.55681 0.0
O303 O 0.7431 0.21864 0.33036 0.0
O304 O 0.74232 0.14479 0.30649 0.0
N305 N 0.95869 0.25064 0.23672 0.0
C306 C 0.97041 0.29255 0.17339 0.0
C307 C 1.02242 0.32649 0.14391 0.0
C308 C 0.06011 0.31336 0.17426 0.0
C309 C 0.04511 0.26331 0.21967 0.0
C310 C 0.99356 0.23393 0.25388 0.0
H311 H 0.94023 0.30116 0.15712 0.0
O312 O 0.81784 0.21941 0.16817 0.0
O313 O 0.85354 0.18204 0.27179 0.0
O314 O 0.88911 0.28902 0.33297 0.0
O315 O 0.89133 0.28901 0.33369 0.0
C316 C 0.07756 0.24062 0.23207 0.0
C317 C 0.06039 0.19321 0.2906 0.0
H318 H 1.01894 0.11188 0.44081 0.0
H319 H 0.93669 0.08652 0.54869 0.0
H320 H 0.03445 0.36372 0.10259 0.0
H321 H 0.09898 0.34216 0.15457 0.0
H322 H 0.1134 0.25612 0.1895 0.0
H323 H 0.08573 0.17611 0.29726 0.0
Mn324 Mn 0.97659 0.50062 0.24525 0.0
Mn325 Mn 0.07301 0.4974 0.21082 0.0
C326 C 1.02761 0.52152 0.40333 0.0
C327 C 0.91419 0.53174 0.27272 0.0
C328 C 0.96931 0.38176 0.27357 0.0
O329 O 0.99399 0.52648 0.06924 0.0
O330 O 0.06185 0.51638 0.06341 0.0
C331 C 0.1532 0.60602 0.13378 0.0
N332 N 0.14006 0.56316 0.20082 0.0
C333 C 0.22592 0.60965 0.28702 0.0
C334 C 0.24122 0.65131 0.21241 0.0
C335 C 0.20428 0.64984 0.13637 0.0
C336 C 0.17377 0.56661 0.28082 0.0
H337 H 0.12588 0.60751 0.07624 0.0
C338 C 0.03621 0.53446 0.01712 0.0
O339 O 0.89758 0.4828 0.24569 0.0
O340 O 0.96449 0.56146 0.27063 0.0
N341 N 0.10818 0.48059 0.32071 0.0
C342 C 0.1025 0.4319 0.3115 0.0
C343 C 0.14234 0.42225 0.34539 0.0
C344 C 0.18939 0.46352 0.38896 0.0
C345 C 0.19762 0.51441 0.38923 0.0
C346 C 0.15773 0.52187 0.34252 0.0
H347 H 0.06744 0.40124 0.27527 0.0
O348 O 0.97678 0.49282 0.40856 0.0
O349 O 0.0492 0.53688 0.30473 0.0
O350 O 0.98814 0.43088 0.24003 0.0
O351 O 0.99181 0.43119 0.23835 0.0
C352 C 0.24853 0.55796 0.40766 0.0
C353 C 0.26238 0.60654 0.35814 0.0
H354 H 0.2819 0.68329 0.21004 0.0
H355 H 0.21518 0.6815 0.07711 0.0
H356 H 0.13572 0.38288 0.33868 0.0
H357 H 0.2207 0.45708 0.41594 0.0
H358 H 0.27909 0.55303 0.44753 0.0
H359 H 0.30277 0.63901 0.36455 0.0
Mn360 Mn 0.5503 0.48594 0.24536 0.0
Mn361 Mn 0.55352 0.58558 0.21072 0.0
C362 C 0.52941 0.51605 0.40333 0.0
C363 C 0.51919 0.39243 0.27281 0.0
C364 C 0.66918 0.59752 0.27366 0.0
O365 O 0.52445 0.47749 0.06931 0.0
O366 O 0.53453 0.55544 0.06333 0.0
C367 C 0.4449 0.55716 0.13345 0.0
N368 N 0.48775 0.58686 0.20055 0.0
C369 C 0.44127 0.62623 0.28655 0.0
C370 C 0.39961 0.59988 0.21187 0.0
C371 C 0.40108 0.56442 0.13591 0.0
C372 C 0.48431 0.61712 0.28049 0.0
H373 H 0.44341 0.52836 0.07596 0.0
C374 C 0.51647 0.51172 0.0171 0.0
O375 O 0.56814 0.42478 0.24587 0.0
O376 O 0.48947 0.413 0.2707 0.0
N377 N 0.57033 0.63754 0.32054 0.0
C378 C 0.61903 0.68056 0.31137 0.0
C379 C 0.62868 0.73004 0.34524 0.0
C380 C 0.58741 0.73581 0.3887 0.0
C381 C 0.53651 0.69315 0.38889 0.0
C382 C 0.52905 0.64582 0.34224 0.0
H383 H 0.64969 0.67616 0.27523 0.0
O384 O 0.5581 0.49392 0.40866 0.0
O385 O 0.51404 0.52228 0.30467 0.0
O386 O 0.62004 0.56724 0.24011 0.0
O387 O 0.61973 0.57059 0.23842 0.0
C388 C 0.49296 0.70051 0.4072 0.0
C389 C 0.44438 0.66579 0.3576 0.0
H390 H 0.36764 0.60859 0.20939 0.0
H391 H 0.36941 0.54367 0.07661 0.0
H392 H 0.66806 0.76279 0.33861 0.0
H393 H 0.59385 0.77355 0.41567 0.0
H394 H 0.49789 0.73599 0.44704 0.0
H395 H 0.41191 0.67371 0.36391 0.0
Mn396 Mn 0.56498 0.07433 0.24552 0.0
Mn397 Mn 0.46533 0.97792 0.21094 0.0
C398 C 0.5349 0.02334 0.40356 0.0
C399 C 0.6585 0.13674 0.27285 0.0
C400 C 0.45341 0.08162 0.27375 0.0
O401 O 0.57341 0.05689 0.06956 0.0
O402 O 0.49544 0.98905 0.06356 0.0
C403 C 0.49373 0.89771 0.13395 0.0
N404 N 0.46404 0.91087 0.20096 0.0
C405 C 0.42471 0.82504 0.28717 0.0
C406 C 0.45106 0.80973 0.21261 0.0
C407 C 0.48648 0.84664 0.13656 0.0
C408 C 0.4338 0.87718 0.28094 0.0
H409 H 0.52251 0.925 0.07641 0.0
C410 C 0.53918 1.01467 0.01739 0.0
O411 O 0.62614 0.15333 0.24585 0.0
O412 O 0.63792 0.08644 0.27093 0.0
N413 N 0.41338 0.94277 0.32076 0.0
C414 C 0.37036 0.94844 0.31151 0.0
C415 C 0.32088 0.90862 0.34539 0.0
C416 C 0.31512 0.86159 0.38896 0.0
C417 C 0.35778 0.85335 0.38926 0.0
C418 C 0.40511 0.89323 0.34258 0.0
H419 H 0.37475 0.98351 0.27533 0.0
O420 O 0.55704 0.07417 0.40882 0.0
O421 O 0.52864 1.00173 0.30495 0.0
O422 O 0.48368 0.06279 0.24018 0.0
O423 O 0.48032 0.05911 0.2385 0.0
C424 C 0.35043 0.80246 0.40771 0.0
C425 C 0.38516 0.78861 0.35826 0.0
H426 H 0.44237 0.76905 0.21027 0.0
H427 H 0.50722 0.83573 0.07731 0.0
H428 H 0.28813 0.91525 0.33871 0.0
H429 H 0.27738 0.83029 0.41595 0.0
H430 H 0.31496 0.77191 0.44757 0.0
H431 H 0.37726 0.74822 0.36469 0.0
Mn432 Mn 0.50616 0.94294 0.66506 0.0
Mn433 Mn 0.48728 0.02829 0.694 0.0
C434 C 0.52249 0.99264 0.50672 0.0
C435 C 0.54879 0.89037 0.63746 0.0
C436 C 0.37893 0.91289 0.63552 0.0
O437 O 0.53346 0.96311 0.84023 0.0
O438 O 0.51181 0.02259 0.8419 0.0
C439 C 0.58137 0.12374 0.78835 0.0
N440 N 0.54082 0.10104 0.71319 0.0
C441 C 0.5473 0.18442 0.67718 0.0
C442 C 0.58796 0.20861 0.75545 0.0
C443 C 0.60362 0.17733 0.81413 0.0
C444 C 0.52575 0.13036 0.65674 0.0
H445 H 0.59555 0.10118 0.83259 0.0
C446 C 0.53558 1.00336 0.89044 0.0
O447 O 0.49898 0.86775 0.66386 0.0
O448 O 0.57283 0.94082 0.64019 0.0
N449 N 0.46698 0.05135 0.57011 0.0
C450 C 0.42506 0.02117 0.50679 0.0
C451 C 0.3911 0.03923 0.47727 0.0
C452 C 0.40422 0.09004 0.50762 0.0
C453 C 0.45428 0.12509 0.55305 0.0
C454 C 0.48368 0.10293 0.58727 0.0
H455 H 0.41644 0.98238 0.49058 0.0
O456 O 0.49818 0.94175 0.50181 0.0
O457 O 0.53558 1.0148 0.60538 0.0
O458 O 0.42858 0.94338 0.6665 0.0
O459 O 0.4286 0.94561 0.66721 0.0
C460 C 0.47695 0.18021 0.56548 0.0
C461 C 0.52437 0.21045 0.62404 0.0
H462 H 0.60572 0.2503 0.77433 0.0
H463 H 0.63113 0.1934 0.88222 0.0
H464 H 0.35385 1.01402 0.43594 0.0
H465 H 0.3754 0.10009 0.48791 0.0
H466 H 0.46144 0.20056 0.52288 0.0
H467 H 0.54146 0.25288 0.63073 0.0
Mn468 Mn 0.10799 0.57318 0.66492 0.0
Mn469 Mn 1.02264 0.46894 0.69383 0.0
C470 C 0.05832 0.53983 0.50652 0.0
C471 C 0.16056 0.66838 0.63741 0.0
C472 C 0.13804 0.476 0.63556 0.0
O473 O 0.08778 0.58029 0.84 0.0
O474 O 1.02831 0.49915 0.84171 0.0
C475 C 0.92715 0.46752 0.78793 0.0
N476 N 0.94988 0.4497 0.71286 0.0
C477 C 0.86649 0.3728 0.67672 0.0
C478 C 0.84229 0.38925 0.75487 0.0
C479 C 0.87356 0.43617 0.81358 0.0
C480 C 0.92057 0.40532 0.6564 0.0
H481 H 0.9497 0.50425 0.83219 0.0
C482 C 0.04752 0.54216 0.89018 0.0
O483 O 0.18319 0.64119 0.66391 0.0
O484 O 0.11011 0.64195 0.63995 0.0
N485 N 0.99959 0.42559 0.56997 0.0
C486 C 1.02978 0.41388 0.5067 0.0
C487 C 1.01173 0.36187 0.47721 0.0
C488 C 0.96092 0.32417 0.50751 0.0
C489 C 0.92586 0.33916 0.55284 0.0
C490 C 0.94801 0.39071 0.58705 0.0
H491 H 0.06857 0.44406 0.49051 0.0
O492 O 0.10921 0.56642 0.50168 0.0
O493 O 0.03614 0.53073 0.60514 0.0
O494 O 0.10756 0.49516 0.66649 0.0
O495 O 0.10533 0.49294 0.6672 0.0
C496 C 0.87073 0.30669 0.56515 0.0
C497 C 0.84047 0.32386 0.62359 0.0
H498 H 0.80058 0.36531 0.77365 0.0
H499 H 0.85747 0.44757 0.88162 0.0
H500 H 0.03694 0.34985 0.43595 0.0
H501 H 0.95087 0.2853 0.48783 0.0
H502 H 0.85038 0.27085 0.52256 0.0
H503 H 0.79803 0.29851 0.63018 0.0
Mn504 Mn 0.47777 0.54477 0.66475 0.0
Mn505 Mn 0.58201 0.56368 0.69386 0.0
C506 C 0.51111 0.52845 0.50645 0.0
C507 C 0.38257 0.50216 0.63729 0.0
C508 C 0.57493 0.672 0.63534 0.0
O509 O 0.47065 0.51745 0.83985 0.0
O510 O 0.5518 0.53915 0.84173 0.0
C511 C 0.58343 0.46962 0.7882 0.0
N512 N 0.60125 0.51016 0.71307 0.0
C513 C 0.67813 0.50365 0.67705 0.0
C514 C 0.66168 0.46299 0.75526 0.0
C515 C 0.61477 0.44736 0.81394 0.0
C516 C 0.64562 0.52521 0.65665 0.0
H517 H 0.54671 0.45545 0.83243 0.0
C518 C 0.50879 0.51534 0.89014 0.0
O519 O 0.40977 0.55197 0.6637 0.0
O520 O 0.40899 0.47812 0.63982 0.0
N521 N 0.62536 0.58398 0.57005 0.0
C522 C 0.63708 0.62589 0.50672 0.0
C523 C 0.68909 0.65982 0.47723 0.0
C524 C 0.72678 0.64669 0.50757 0.0
C525 C 0.71178 0.59664 0.55298 0.0
C526 C 0.66024 0.56727 0.58721 0.0
H527 H 0.6069 0.6345 0.49046 0.0
O528 O 0.48451 0.55274 0.5015 0.0
O529 O 0.52021 0.51538 0.60512 0.0
O530 O 0.55578 0.62236 0.66631 0.0
O531 O 0.558 0.62235 0.66703 0.0
C532 C 0.74422 0.57395 0.56536 0.0
C533 C 0.72706 0.52654 0.6239 0.0
H534 H 0.68561 0.44522 0.77411 0.0
H535 H 0.60337 0.41986 0.88201 0.0
H536 H 0.70112 0.69706 0.43592 0.0
H537 H 0.76565 0.67549 0.48785 0.0
H538 H 0.78006 0.58943 0.52276 0.0
H539 H 0.75239 0.50943 0.63055 0.0
Mn540 Mn 0.64325 0.83396 0.5786 0.0
Mn541 Mn 0.73967 0.83073 0.54415 0.0
C542 C 0.69427 0.85486 0.73667 0.0
C543 C 0.58085 0.86508 0.60608 0.0
C544 C 0.63598 0.7151 0.60691 0.0
O545 O 0.66066 0.85984 0.4026 0.0
O546 O 0.72853 0.84971 0.39672 0.0
C547 C 0.81985 0.93935 0.46712 0.0
N548 N 0.80672 0.8965 0.53415 0.0
C549 C 0.89259 0.94299 0.62034 0.0
C550 C 0.90787 0.98465 0.54573 0.0
C551 C 0.87093 0.98318 0.4697 0.0
C552 C 0.84043 0.89994 0.61415 0.0
H553 H 0.79253 0.94084 0.40959 0.0
C554 C 0.70285 0.86776 0.35046 0.0
O555 O 0.56424 0.81614 0.57904 0.0
O556 O 0.63115 0.8948 0.60399 0.0
N557 N 0.77484 0.81393 0.65403 0.0
C558 C 0.76917 0.76524 0.64483 0.0
C559 C 0.80901 0.75559 0.67872 0.0
C560 C 0.85606 0.79686 0.7223 0.0
C561 C 0.86429 0.84775 0.72256 0.0
C562 C 0.8244 0.85521 0.67584 0.0
H563 H 0.73411 0.73458 0.6086 0.0
O564 O 0.64345 0.82616 0.7419 0.0
O565 O 0.71587 0.87022 0.63806 0.0
O566 O 0.65481 0.76422 0.57336 0.0
O567 O 0.65848 0.76453 0.57168 0.0
C568 C 0.9152 0.8913 0.74099 0.0
C569 C 0.92904 0.93988 0.69146 0.0
H570 H 0.94856 1.01663 0.54335 0.0
H571 H 0.88183 1.01484 0.41044 0.0
H572 H 0.8024 0.71622 0.67201 0.0
H573 H 0.88737 0.79042 0.74928 0.0
H574 H 0.94576 0.88637 0.78086 0.0
H575 H 0.96943 0.97235 0.69787 0.0
Mn576 Mn 0.21696 0.81927 0.57871 0.0
Mn577 Mn 0.22019 0.91891 0.54405 0.0
C578 C 0.19607 0.84938 0.73667 0.0
C579 C 0.18586 0.72575 0.60617 0.0
C580 C 0.33584 0.93085 0.60701 0.0
O581 O 0.1911 0.81081 0.40268 0.0
O582 O 0.2012 0.88879 0.39666 0.0
C583 C 0.11157 0.89049 0.46679 0.0
N584 N 0.15442 0.9202 0.53389 0.0
C585 C 0.10793 0.95956 0.61988 0.0
C586 C 0.06627 0.9332 0.5452 0.0
C587 C 0.06774 0.89774 0.46924 0.0
C588 C 0.15097 0.95045 0.61382 0.0
H589 H 0.11008 0.86168 0.40931 0.0
C590 C 0.18317 0.84506 0.35045 0.0
O591 O 0.23481 0.75811 0.57922 0.0
O592 O 0.15614 0.74632 0.60408 0.0
N593 N 0.237 0.97088 0.65388 0.0
C594 C 0.28569 1.0139 0.64472 0.0
C595 C 0.29534 0.06338 0.67858 0.0
C596 C 0.25406 0.06914 0.72205 0.0
C597 C 0.20316 0.02648 0.72224 0.0
C598 C 0.19571 0.97915 0.67558 0.0
H599 H 0.31635 1.0095 0.60857 0.0
O600 O 0.22476 0.82725 0.74201 0.0
O601 O 0.1807 0.85562 0.63801 0.0
O602 O 0.2867 0.90057 0.57345 0.0
O603 O 0.28639 0.90393 0.57176 0.0
C604 C 0.15961 0.03383 0.74054 0.0
C605 C 0.11104 0.99911 0.69094 0.0
H606 H 0.0343 0.94191 0.54271 0.0
H607 H 0.03608 0.87699 0.40994 0.0
H608 H 0.33472 0.09613 0.67195 0.0
H609 H 0.2605 0.10688 0.74903 0.0
H610 H 0.16454 0.06931 0.78039 0.0
H611 H 0.07856 1.00703 0.69725 0.0
Mn612 Mn 0.23165 0.40765 0.57887 0.0
Mn613 Mn 0.13199 0.31125 0.54427 0.0
C614 C 0.20157 0.35667 0.7369 0.0
C615 C 0.32517 0.47007 0.60621 0.0
C616 C 0.12008 0.41495 0.60708 0.0
O617 O 0.2401 0.39022 0.40292 0.0
O618 O 0.1621 0.32237 0.39687 0.0
C619 C 0.1604 0.23105 0.46727 0.0
N620 N 0.1307 0.2442 0.53428 0.0
C621 C 0.09138 0.15837 0.62049 0.0
C622 C 0.11774 0.14306 0.54593 0.0
C623 C 0.15316 0.17998 0.46989 0.0
C624 C 0.10047 0.21051 0.61427 0.0
H625 H 0.18918 0.25834 0.40974 0.0
C626 C 0.20584 0.34802 0.35073 0.0
O627 O 0.29281 0.48666 0.57919 0.0
O628 O 0.3046 0.41978 0.6043 0.0
N629 N 0.08004 0.2761 0.65409 0.0
C630 C 0.03702 0.28176 0.64484 0.0
C631 C 0.98755 0.24194 0.67873 0.0
C632 C 0.98179 0.19491 0.7223 0.0
C633 C 1.02445 0.18668 0.7226 0.0
C634 C 0.07178 0.22655 0.67591 0.0
H635 H 0.04141 0.31682 0.60865 0.0
O636 O 0.2237 0.4075 0.74216 0.0
O637 O 0.19531 0.33506 0.63828 0.0
O638 O 0.15035 0.39611 0.57351 0.0
O639 O 0.14699 0.39244 0.57183 0.0
C640 C 1.01711 0.13578 0.74105 0.0
C641 C 0.05184 0.12194 0.69159 0.0
H642 H 0.10904 0.10239 0.54358 0.0
H643 H 0.17389 0.16907 0.41063 0.0
H644 H 0.95479 0.24856 0.67204 0.0
H645 H 0.94406 0.16361 0.7493 0.0
H646 H 0.98164 0.10524 0.78092 0.0
H647 H 0.04394 0.08155 0.69802 0.0
loop_
_geom_bond_atom_site_label_1
_geom_bond_atom_site_label_2
_geom_bond_distance
_geom_bond_site_symmetry_2
_ccdc_geom_bond_type
Mn0 O5 2.095 . S
Mn0 O15 2.162 . S
Mn0 O16 2.297 . S
Mn0 O24 2.385 1_554 S
Mn0 O25 2.209 1_554 S
Mn0 O26 2.094 . S
Mn1 O6 2.121 . S
Mn1 N8 2.257 . S
Mn1 N17 2.282 1_554 S
Mn1 O25 2.215 1_554 S
Mn1 O27 2.117 . S
C2 O24 1.234 . S
C2 O25 1.283 . S
C3 O15 1.281 . S
C3 O16 1.236 . S
C4 O26 1.240 . S
C4 O27 1.264 . S
O5 Mn0 2.095 . S
O5 C14 1.250 . S
O6 Mn1 2.121 . S
O6 C14 1.258 . S
C7 N8 1.326 . S
C7 C11 1.460 . S
C7 H13 0.929 . S
N8 Mn1 2.257 . S
N8 C7 1.326 . S
N8 C12 1.362 1_554 S
C9 C10 1.258 . S
C9 C12 1.431 . S
C9 C29 1.449 . S
C10 C9 1.258 . S
C10 C11 1.477 1_556 S
C10 H30 0.931 . S
C11 C7 1.460 . S
C11 C10 1.477 1_554 S
C11 H31 0.930 . S
C12 N8 1.362 1_556 S
C12 C9 1.431 . S
C12 C22 1.476 . S
H13 C7 0.929 . S
C14 O5 1.250 . S
C14 O6 1.258 . S
O15 Mn0 2.162 . S
O15 C3 1.281 . S
O16 Mn0 2.297 . S
O16 C3 1.236 . S
N17 Mn1 2.282 1_556 S
N17 C18 1.328 . S
N17 C22 1.318 . S
C18 N17 1.328 . S
C18 C19 1.457 . S
C18 H23 0.929 . S
C19 C18 1.457 . S
C19 C20 1.291 . S
C19 H32 0.931 . S
C20 C19 1.291 . S
C20 C21 1.373 . S
C20 H33 0.929 . S
C21 C20 1.373 . S
C21 C22 1.396 . S
C21 C28 1.403 . S
C22 C12 1.476 . S
C22 N17 1.318 . S
C22 C21 1.396 . S
H23 C18 0.929 . S
O24 Mn0 2.385 1_556 S
O24 C2 1.234 . S
O25 Mn0 2.209 1_556 S
O25 Mn1 2.215 1_556 S
O25 C2 1.283 . S
O26 Mn0 2.094 . S
O26 C4 1.240 . S
O27 Mn1 2.117 . S
O27 C4 1.264 . S
C28 C21 1.403 . S
C28 C29 1.399 . S
C28 H34 0.929 . S
C29 C9 1.449 . S
C29 C28 1.399 . S
C29 H35 0.930 . S
H30 C10 0.931 . S
H31 C11 0.930 . S
H32 C19 0.931 . S
H33 C20 0.929 . S
H34 C28 0.929 . S
H35 C29 0.930 . S
Mn36 O41 2.095 . S
Mn36 O51 2.162 . S
Mn36 O52 2.297 . S
Mn36 O60 2.385 1_554 S
Mn36 O61 2.209 1_554 S
Mn36 O62 2.094 . S
Mn37 O42 2.121 . S
Mn37 N44 2.257 . S
Mn37 N53 2.282 1_554 S
Mn37 O61 2.215 1_554 S
Mn37 O63 2.117 . S
C38 O60 1.234 . S
C38 O61 1.283 . S
C39 O51 1.281 . S
C39 O52 1.236 . S
C40 O62 1.240 . S
C40 O63 1.264 . S
O41 Mn36 2.095 . S
O41 C50 1.250 . S
O42 Mn37 2.121 . S
O42 C50 1.258 . S
C43 N44 1.326 . S
C43 C47 1.460 . S
C43 H49 0.929 . S
N44 Mn37 2.257 . S
N44 C43 1.326 . S
N44 C48 1.362 1_554 S
C45 C46 1.258 . S
C45 C48 1.431 . S
C45 C65 1.449 . S
C46 C45 1.258 . S
C46 C47 1.477 1_556 S
C46 H66 0.931 . S
C47 C43 1.460 . S
C47 C46 1.477 1_554 S
C47 H67 0.930 . S
C48 N44 1.362 1_556 S
C48 C45 1.431 . S
C48 C58 1.476 . S
H49 C43 0.929 . S
C50 O41 1.250 . S
C50 O42 1.258 . S
O51 Mn36 2.162 . S
O51 C39 1.281 . S
O52 Mn36 2.297 . S
O52 C39 1.236 . S
N53 Mn37 2.282 1_556 S
N53 C54 1.328 . S
N53 C58 1.318 . S
C54 N53 1.328 . S
C54 C55 1.457 . S
C54 H59 0.929 . S
C55 C54 1.457 . S
C55 C56 1.291 . S
C55 H68 0.931 . S
C56 C55 1.291 . S
C56 C57 1.373 . S
C56 H69 0.929 . S
C57 C56 1.373 . S
C57 C58 1.396 . S
C57 C64 1.403 . S
C58 C48 1.476 . S
C58 N53 1.318 . S
C58 C57 1.396 . S
H59 C54 0.929 . S
O60 Mn36 2.385 1_556 S
O60 C38 1.234 . S
O61 Mn36 2.209 1_556 S
O61 Mn37 2.215 1_556 S
O61 C38 1.283 . S
O62 Mn36 2.094 . S
O62 C40 1.240 . S
O63 Mn37 2.117 . S
O63 C40 1.264 . S
C64 C57 1.403 . S
C64 C65 1.399 . S
C64 H70 0.929 . S
C65 C45 1.449 . S
C65 C64 1.399 . S
C65 H71 0.930 . S
H66 C46 0.931 . S
H67 C47 0.930 . S
H68 C55 0.931 . S
H69 C56 0.929 . S
H70 C64 0.929 . S
H71 C65 0.930 . S
Mn72 O77 2.095 . S
Mn72 O87 2.162 . S
Mn72 O88 2.297 . S
Mn72 O96 2.385 1_554 S
Mn72 O97 2.209 1_554 S
Mn72 O98 2.094 . S
Mn73 O78 2.121 . S
Mn73 N80 2.257 . S
Mn73 N89 2.282 1_554 S
Mn73 O97 2.215 1_554 S
Mn73 O99 2.117 . S
C74 O96 1.234 . S
C74 O97 1.283 . S
C75 O87 1.281 . S
C75 O88 1.236 . S
C76 O98 1.240 . S
C76 O99 1.264 . S
O77 Mn72 2.095 . S
O77 C86 1.250 . S
O78 Mn73 2.121 . S
O78 C86 1.258 . S
C79 N80 1.326 . S
C79 C83 1.460 . S
C79 H85 0.929 . S
N80 Mn73 2.257 . S
N80 C79 1.326 . S
N80 C84 1.362 1_554 S
C81 C82 1.258 . S
C81 C84 1.431 . S
C81 C101 1.449 . S
C82 C81 1.258 . S
C82 C83 1.477 1_556 S
C82 H102 0.931 . S
C83 C79 1.460 . S
C83 C82 1.477 1_554 S
C83 H103 0.930 . S
C84 N80 1.362 1_556 S
C84 C81 1.431 . S
C84 C94 1.476 . S
H85 C79 0.929 . S
C86 O77 1.250 . S
C86 O78 1.258 . S
O87 Mn72 2.162 . S
O87 C75 1.281 . S
O88 Mn72 2.297 . S
O88 C75 1.236 . S
N89 Mn73 2.282 1_556 S
N89 C90 1.328 . S
N89 C94 1.318 . S
C90 N89 1.328 . S
C90 C91 1.457 . S
C90 H95 0.929 . S
C91 C90 1.457 . S
C91 C92 1.291 . S
C91 H104 0.931 . S
C92 C91 1.291 . S
C92 C93 1.373 . S
C92 H105 0.929 . S
C93 C92 1.373 . S
C93 C94 1.396 . S
C93 C100 1.403 . S
C94 C84 1.476 . S
C94 N89 1.318 . S
C94 C93 1.396 . S
H95 C90 0.929 . S
O96 Mn72 2.385 1_556 S
O96 C74 1.234 . S
O97 Mn72 2.209 1_556 S
O97 Mn73 2.215 1_556 S
O97 C74 1.283 . S
O98 Mn72 2.094 . S
O98 C76 1.240 . S
O99 Mn73 2.117 . S
O99 C76 1.264 . S
C100 C93 1.403 . S
C100 C101 1.399 . S
C100 H106 0.929 . S
C101 C81 1.449 . S
C101 C100 1.399 . S
C101 H107 0.930 . S
H102 C82 0.931 . S
H103 C83 0.930 . S
H104 C91 0.931 . S
H105 C92 0.929 . S
H106 C100 0.929 . S
H107 C101 0.930 . S
Mn108 O113 2.095 . S
Mn108 O123 2.162 . S
Mn108 O124 2.297 . S
Mn108 O132 2.385 1_556 S
Mn108 O133 2.209 1_556 S
Mn108 O134 2.094 . S
Mn109 O114 2.121 . S
Mn109 N116 2.257 . S
Mn109 N125 2.282 1_556 S
Mn109 O133 2.215 1_556 S
Mn109 O135 2.117 . S
C110 O132 1.234 . S
C110 O133 1.283 . S
C111 O123 1.281 . S
C111 O124 1.236 . S
C112 O134 1.240 . S
C112 O135 1.264 . S
O113 Mn108 2.095 . S
O113 C122 1.250 . S
O114 Mn109 2.121 . S
O114 C122 1.258 . S
C115 N116 1.326 . S
C115 C119 1.460 . S
C115 H121 0.929 . S
N116 Mn109 2.257 . S
N116 C115 1.326 . S
N116 C120 1.362 1_556 S
C117 C118 1.258 . S
C117 C120 1.431 . S
C117 C137 1.449 . S
C118 C117 1.258 . S
C118 C119 1.477 1_554 S
C118 H138 0.931 . S
C119 C115 1.460 . S
C119 C118 1.477 1_556 S
C119 H139 0.930 . S
C120 N116 1.362 1_554 S
C120 C117 1.431 . S
C120 C130 1.476 . S
H121 C115 0.929 . S
C122 O113 1.250 . S
C122 O114 1.258 . S
O123 Mn108 2.162 . S
O123 C111 1.281 . S
O124 Mn108 2.297 . S
O124 C111 1.236 . S
N125 Mn109 2.282 1_554 S
N125 C126 1.328 . S
N125 C130 1.318 . S
C126 N125 1.328 . S
C126 C127 1.457 . S
C126 H131 0.929 . S
C127 C126 1.457 . S
C127 C128 1.291 . S
C127 H140 0.931 . S
C128 C127 1.291 . S
C128 C129 1.373 . S
C128 H141 0.929 . S
C129 C128 1.373 . S
C129 C130 1.396 . S
C129 C136 1.403 . S
C130 C120 1.476 . S
C130 N125 1.318 . S
C130 C129 1.396 . S
H131 C126 0.929 . S
O132 Mn108 2.385 1_554 S
O132 C110 1.234 . S
O133 Mn108 2.209 1_554 S
O133 Mn109 2.215 1_554 S
O133 C110 1.283 . S
O134 Mn108 2.094 . S
O134 C112 1.240 . S
O135 Mn109 2.117 . S
O135 C112 1.264 . S
C136 C129 1.403 . S
C136 C137 1.399 . S
C136 H142 0.929 . S
C137 C117 1.449 . S
C137 C136 1.399 . S
C137 H143 0.930 . S
H138 C118 0.931 . S
H139 C119 0.930 . S
H140 C127 0.931 . S
H141 C128 0.929 . S
H142 C136 0.929 . S
H143 C137 0.930 . S
Mn144 O149 2.095 . S
Mn144 O159 2.162 . S
Mn144 O160 2.297 . S
Mn144 O168 2.385 1_556 S
Mn144 O169 2.209 1_556 S
Mn144 O170 2.094 . S
Mn145 O150 2.121 . S
Mn145 N152 2.257 . S
Mn145 N161 2.282 1_556 S
Mn145 O169 2.215 1_556 S
Mn145 O171 2.117 . S
C146 O168 1.234 . S
C146 O169 1.283 . S
C147 O159 1.281 . S
C147 O160 1.236 . S
C148 O170 1.240 . S
C148 O171 1.264 . S
O149 Mn144 2.095 . S
O149 C158 1.250 . S
O150 Mn145 2.121 . S
O150 C158 1.258 . S
C151 N152 1.326 . S
C151 C155 1.460 . S
C151 H157 0.929 . S
N152 Mn145 2.257 . S
N152 C151 1.326 . S
N152 C156 1.362 1_556 S
C153 C154 1.258 . S
C153 C156 1.431 . S
C153 C173 1.449 . S
C154 C153 1.258 . S
C154 C155 1.477 1_554 S
C154 H174 0.931 . S
C155 C151 1.460 . S
C155 C154 1.477 1_556 S
C155 H175 0.930 . S
C156 N152 1.362 1_554 S
C156 C153 1.431 . S
C156 C166 1.476 . S
H157 C151 0.929 . S
C158 O149 1.250 . S
C158 O150 1.258 . S
O159 Mn144 2.162 . S
O159 C147 1.281 . S
O160 Mn144 2.297 . S
O160 C147 1.236 . S
N161 Mn145 2.282 1_554 S
N161 C162 1.328 . S
N161 C166 1.318 . S
C162 N161 1.328 . S
C162 C163 1.457 . S
C162 H167 0.929 . S
C163 C162 1.457 . S
C163 C164 1.291 . S
C163 H176 0.931 . S
C164 C163 1.291 . S
C164 C165 1.373 . S
C164 H177 0.929 . S
C165 C164 1.373 . S
C165 C166 1.396 . S
C165 C172 1.403 . S
C166 C156 1.476 . S
C166 N161 1.318 . S
C166 C165 1.396 . S
H167 C162 0.929 . S
O168 Mn144 2.385 1_554 S
O168 C146 1.234 . S
O169 Mn144 2.209 1_554 S
O169 Mn145 2.215 1_554 S
O169 C146 1.283 . S
O170 Mn144 2.094 . S
O170 C148 1.240 . S
O171 Mn145 2.117 . S
O171 C148 1.264 . S
C172 C165 1.403 . S
C172 C173 1.399 . S
C172 H178 0.929 . S
C173 C153 1.449 . S
C173 C172 1.399 . S
C173 H179 0.930 . S
H174 C154 0.931 . S
H175 C155 0.930 . S
H176 C163 0.931 . S
H177 C164 0.929 . S
H178 C172 0.929 . S
H179 C173 0.930 . S
Mn180 O185 2.095 . S
Mn180 O195 2.162 . S
Mn180 O196 2.297 . S
Mn180 O204 2.385 1_556 S
Mn180 O205 2.209 1_556 S
Mn180 O206 2.094 . S
Mn181 O186 2.121 . S
Mn181 N188 2.257 . S
Mn181 N197 2.282 1_556 S
Mn181 O205 2.215 1_556 S
Mn181 O207 2.117 . S
C182 O204 1.234 . S
C182 O205 1.283 . S
C183 O195 1.281 . S
C183 O196 1.236 . S
C184 O206 1.240 . S
C184 O207 1.264 . S
O185 Mn180 2.095 . S
O185 C194 1.250 . S
O186 Mn181 2.121 . S
O186 C194 1.258 . S
C187 N188 1.326 . S
C187 C191 1.460 . S
C187 H193 0.929 . S
N188 Mn181 2.257 . S
N188 C187 1.326 . S
N188 C192 1.362 1_556 S
C189 C190 1.258 . S
C189 C192 1.431 . S
C189 C209 1.449 . S
C190 C189 1.258 . S
C190 C191 1.477 1_554 S
C190 H210 0.931 . S
C191 C187 1.460 . S
C191 C190 1.477 1_556 S
C191 H211 0.930 . S
C192 N188 1.362 1_554 S
C192 C189 1.431 . S
C192 C202 1.476 . S
H193 C187 0.929 . S
C194 O185 1.250 . S
C194 O186 1.258 . S
O195 Mn180 2.162 . S
O195 C183 1.281 . S
O196 Mn180 2.297 . S
O196 C183 1.236 . S
N197 Mn181 2.282 1_554 S
N197 C198 1.328 . S
N197 C202 1.318 . S
C198 N197 1.328 . S
C198 C199 1.457 . S
C198 H203 0.929 . S
C199 C198 1.457 . S
C199 C200 1.291 . S
C199 H212 0.931 . S
C200 C199 1.291 . S
C200 C201 1.373 . S
C200 H213 0.929 . S
C201 C200 1.373 . S
C201 C202 1.396 . S
C201 C208 1.403 . S
C202 C192 1.476 . S
C202 N197 1.318 . S
C202 C201 1.396 . S
H203 C198 0.929 . S
O204 Mn180 2.385 1_554 S
O204 C182 1.234 . S
O205 Mn180 2.209 1_554 S
O205 Mn181 2.215 1_554 S
O205 C182 1.283 . S
O206 Mn180 2.094 . S
O206 C184 1.240 . S
O207 Mn181 2.117 . S
O207 C184 1.264 . S
C208 C201 1.403 . S
C208 C209 1.399 . S
C208 H214 0.929 . S
C209 C189 1.449 . S
C209 C208 1.399 . S
C209 H215 0.930 . S
H210 C190 0.931 . S
H211 C191 0.930 . S
H212 C199 0.931 . S
H213 C200 0.929 . S
H214 C208 0.929 . S
H215 C209 0.930 . S
Mn216 O221 2.095 . S
Mn216 O231 2.162 . S
Mn216 O232 2.297 . S
Mn216 O240 2.385 . S
Mn216 O241 2.209 . S
Mn216 O242 2.094 . S
Mn217 O222 2.121 . S
Mn217 N224 2.257 . S
Mn217 N233 2.282 . S
Mn217 O241 2.215 . S
Mn217 O243 2.117 . S
C218 O240 1.234 . S
C218 O241 1.283 . S
C219 O231 1.281 . S
C219 O232 1.236 . S
C220 O242 1.240 . S
C220 O243 1.264 . S
O221 Mn216 2.095 . S
O221 C230 1.250 . S
O222 Mn217 2.121 . S
O222 C230 1.258 . S
C223 N224 1.326 . S
C223 C227 1.460 . S
C223 H229 0.929 . S
N224 Mn217 2.257 . S
N224 C223 1.326 . S
N224 C228 1.362 . S
C225 C226 1.258 . S
C225 C228 1.431 . S
C225 C245 1.449 . S
C226 C225 1.258 . S
C226 C227 1.477 . S
C226 H246 0.931 . S
C227 C223 1.460 . S
C227 C226 1.477 . S
C227 H247 0.930 . S
C228 N224 1.362 . S
C228 C225 1.431 . S
C228 C238 1.476 . S
H229 C223 0.929 . S
C230 O221 1.250 . S
C230 O222 1.258 . S
O231 Mn216 2.162 . S
O231 C219 1.281 . S
O232 Mn216 2.297 . S
O232 C219 1.236 . S
N233 Mn217 2.282 . S
N233 C234 1.328 . S
N233 C238 1.318 . S
C234 N233 1.328 . S
C234 C235 1.457 . S
C234 H239 0.929 . S
C235 C234 1.457 . S
C235 C236 1.291 1_554 S
C235 H248 0.931 1_554 S
C236 C235 1.291 1_556 S
C236 C237 1.373 1_556 S
C236 H249 0.929 . S
C237 C236 1.373 1_554 S
C237 C238 1.396 . S
C237 C244 1.403 . S
C238 C228 1.476 . S
C238 N233 1.318 . S
C238 C237 1.396 . S
H239 C234 0.929 . S
O240 Mn216 2.385 . S
O240 C218 1.234 . S
O241 Mn216 2.209 . S
O241 Mn217 2.215 . S
O241 C218 1.283 . S
O242 Mn216 2.094 . S
O242 C220 1.240 . S
O243 Mn217 2.117 . S
O243 C220 1.264 . S
C244 C237 1.403 . S
C244 C245 1.399 . S
C244 H250 0.929 1_554 S
C245 C225 1.449 . S
C245 C244 1.399 . S
C245 H251 0.930 . S
H246 C226 0.931 . S
H247 C227 0.930 . S
H248 C235 0.931 1_556 S
H249 C236 0.929 . S
H250 C244 0.929 1_556 S
H251 C245 0.930 . S
Mn252 O257 2.095 . S
Mn252 O267 2.162 . S
Mn252 O268 2.297 . S
Mn252 O276 2.385 . S
Mn252 O277 2.209 . S
Mn252 O278 2.094 . S
Mn253 O258 2.121 . S
Mn253 N260 2.257 . S
Mn253 N269 2.282 . S
Mn253 O277 2.215 . S
Mn253 O279 2.117 . S
C254 O276 1.234 . S
C254 O277 1.283 . S
C255 O267 1.281 . S
C255 O268 1.236 . S
C256 O278 1.240 . S
C256 O279 1.264 . S
O257 Mn252 2.095 . S
O257 C266 1.250 . S
O258 Mn253 2.121 . S
O258 C266 1.258 . S
C259 N260 1.326 . S
C259 C263 1.460 . S
C259 H265 0.929 . S
N260 Mn253 2.257 . S
N260 C259 1.326 . S
N260 C264 1.362 . S
C261 C262 1.255 1_565 S
C261 C264 1.431 1_565 S
C261 C281 1.451 . S
C262 C261 1.255 1_545 S
C262 C263 1.477 . S
C262 H282 0.931 1_545 S
C263 C259 1.460 . S
C263 C262 1.477 . S
C263 H283 0.930 . S
C264 N260 1.362 . S
C264 C261 1.431 1_545 S
C264 C274 1.476 . S
H265 C259 0.929 . S
C266 O257 1.250 . S
C266 O258 1.258 . S
O267 Mn252 2.162 . S
O267 C255 1.281 . S
O268 Mn252 2.297 . S
O268 C255 1.236 . S
N269 Mn253 2.282 . S
N269 C270 1.328 . S
N269 C274 1.318 . S
C270 N269 1.328 . S
C270 C271 1.457 . S
C270 H275 0.929 . S
C271 C270 1.457 . S
C271 C272 1.291 1_544 S
C271 H284 0.931 1_554 S
C272 C271 1.291 1_566 S
C272 C273 1.373 1_556 S
C272 H285 0.929 . S
C273 C272 1.373 1_554 S
C273 C274 1.396 1_565 S
C273 C280 1.403 . S
C274 C264 1.476 . S
C274 N269 1.318 . S
C274 C273 1.396 1_545 S
H275 C270 0.929 . S
O276 Mn252 2.385 . S
O276 C254 1.234 . S
O277 Mn252 2.209 . S
O277 Mn253 2.215 . S
O277 C254 1.283 . S
O278 Mn252 2.094 . S
O278 C256 1.240 . S
O279 Mn253 2.117 . S
O279 C256 1.264 . S
C280 C273 1.403 . S
C280 C281 1.399 . S
C280 H286 0.929 1_554 S
C281 C261 1.451 . S
C281 C280 1.399 . S
C281 H287 0.930 . S
H282 C262 0.931 1_565 S
H283 C263 0.930 . S
H284 C271 0.931 1_556 S
H285 C272 0.929 . S
H286 C280 0.929 1_556 S
H287 C281 0.930 . S
Mn288 O293 2.095 . S
Mn288 O303 2.162 . S
Mn288 O304 2.297 . S
Mn288 O312 2.385 . S
Mn288 O313 2.209 . S
Mn288 O314 2.094 . S
Mn289 O294 2.121 . S
Mn289 N296 2.257 . S
Mn289 N305 2.282 . S
Mn289 O313 2.215 . S
Mn289 O315 2.117 . S
C290 O312 1.234 . S
C290 O313 1.283 . S
C291 O303 1.281 . S
C291 O304 1.236 . S
C292 O314 1.240 . S
C292 O315 1.264 . S
O293 Mn288 2.095 . S
O293 C302 1.250 . S
O294 Mn289 2.121 . S
O294 C302 1.258 . S
C295 N296 1.326 . S
C295 C299 1.460 . S
C295 H301 0.929 . S
N296 Mn289 2.257 . S
N296 C295 1.326 . S
N296 C300 1.362 . S
C297 C298 1.255 . S
C297 C300 1.438 . S
C297 C317 1.445 1_655 S
C298 C297 1.255 . S
C298 C299 1.477 . S
C298 H318 0.931 1_655 S
C299 C295 1.460 . S
C299 C298 1.477 . S
C299 H319 0.930 . S
C300 N296 1.362 . S
C300 C297 1.438 . S
C300 C310 1.476 . S
H301 C295 0.929 . S
C302 O293 1.250 . S
C302 O294 1.258 . S
O303 Mn288 2.162 . S
O303 C291 1.281 . S
O304 Mn288 2.297 . S
O304 C291 1.236 . S
N305 Mn289 2.282 . S
N305 C306 1.328 . S
N305 C310 1.318 . S
C306 N305 1.328 . S
C306 C307 1.457 . S
C306 H311 0.929 . S
C307 C306 1.457 . S
C307 C308 1.291 1_654 S
C307 H320 0.931 1_554 S
C308 C307 1.291 1_456 S
C308 C309 1.373 1_556 S
C308 H321 0.929 . S
C309 C308 1.373 1_554 S
C309 C310 1.396 1_455 S
C309 C316 1.403 . S
C310 C300 1.476 . S
C310 N305 1.318 . S
C310 C309 1.396 1_655 S
H311 C306 0.929 . S
O312 Mn288 2.385 . S
O312 C290 1.234 . S
O313 Mn288 2.209 . S
O313 Mn289 2.215 . S
O313 C290 1.283 . S
O314 Mn288 2.094 . S
O314 C292 1.240 . S
O315 Mn289 2.117 . S
O315 C292 1.264 . S
C316 C309 1.403 . S
C316 C317 1.399 . S
C316 H322 0.929 1_554 S
C317 C297 1.445 1_455 S
C317 C316 1.399 . S
C317 H323 0.930 . S
H318 C298 0.931 1_455 S
H319 C299 0.930 . S
H320 C307 0.931 1_556 S
H321 C308 0.929 . S
H322 C316 0.929 1_556 S
H323 C317 0.930 . S
Mn324 O329 2.095 . S
Mn324 O339 2.162 . S
Mn324 O340 2.297 . S
Mn324 O348 2.385 . S
Mn324 O349 2.209 1_655 S
Mn324 O350 2.094 . S
Mn325 O330 2.121 . S
Mn325 N332 2.257 . S
Mn325 N341 2.282 . S
Mn325 O349 2.215 . S
Mn325 O351 2.117 1_455 S
C326 O348 1.234 . S
C326 O349 1.283 1_655 S
C327 O339 1.281 . S
C327 O340 1.236 . S
C328 O350 1.240 . S
C328 O351 1.264 . S
O329 Mn324 2.095 . S
O329 C338 1.250 . S
O330 Mn325 2.121 . S
O330 C338 1.258 1_455 S
C331 N332 1.326 . S
C331 C335 1.460 . S
C331 H337 0.929 . S
N332 Mn325 2.257 . S
N332 C331 1.326 . S
N332 C336 1.362 . S
C333 C334 1.258 . S
C333 C336 1.431 . S
C333 C353 1.449 . S
C334 C333 1.258 . S
C334 C335 1.477 . S
C334 H354 0.931 . S
C335 C331 1.460 . S
C335 C334 1.477 . S
C335 H355 0.930 . S
C336 N332 1.362 . S
C336 C333 1.431 . S
C336 C346 1.476 . S
H337 C331 0.929 . S
C338 O329 1.250 . S
C338 O330 1.258 1_655 S
O339 Mn324 2.162 . S
O339 C327 1.281 . S
O340 Mn324 2.297 . S
O340 C327 1.236 . S
N341 Mn325 2.282 . S
N341 C342 1.328 . S
N341 C346 1.318 . S
C342 N341 1.328 . S
C342 C343 1.457 . S
C342 H347 0.929 1_455 S
C343 C342 1.457 . S
C343 C344 1.291 . S
C343 H356 0.931 . S
C344 C343 1.291 . S
C344 C345 1.373 . S
C344 H357 0.929 . S
C345 C344 1.373 . S
C345 C346 1.396 . S
C345 C352 1.403 . S
C346 C336 1.476 . S
C346 N341 1.318 . S
C346 C345 1.396 . S
H347 C342 0.929 1_655 S
O348 Mn324 2.385 . S
O348 C326 1.234 . S
O349 Mn324 2.209 1_455 S
O349 Mn325 2.215 . S
O349 C326 1.283 1_455 S
O350 Mn324 2.094 . S
O350 C328 1.240 . S
O351 Mn325 2.117 1_655 S
O351 C328 1.264 . S
C352 C345 1.403 . S
C352 C353 1.399 . S
C352 H358 0.929 . S
C353 C333 1.449 . S
C353 C352 1.399 . S
C353 H359 0.930 . S
H354 C334 0.931 . S
H355 C335 0.930 . S
H356 C343 0.931 . S
H357 C344 0.929 . S
H358 C352 0.929 . S
H359 C353 0.930 . S
Mn360 O365 2.095 . S
Mn360 O375 2.162 . S
Mn360 O376 2.297 . S
Mn360 O384 2.385 . S
Mn360 O385 2.209 . S
Mn360 O386 2.094 . S
Mn361 O366 2.121 . S
Mn361 N368 2.257 . S
Mn361 N377 2.282 . S
Mn361 O385 2.215 . S
Mn361 O387 2.117 . S
C362 O384 1.234 . S
C362 O385 1.283 . S
C363 O375 1.281 . S
C363 O376 1.236 . S
C364 O386 1.240 . S
C364 O387 1.264 . S
O365 Mn360 2.095 . S
O365 C374 1.250 . S
O366 Mn361 2.121 . S
O366 C374 1.258 . S
C367 N368 1.326 . S
C367 C371 1.460 . S
C367 H373 0.929 . S
N368 Mn361 2.257 . S
N368 C367 1.326 . S
N368 C372 1.362 . S
C369 C370 1.258 . S
C369 C372 1.431 . S
C369 C389 1.449 . S
C370 C369 1.258 . S
C370 C371 1.477 . S
C370 H390 0.931 . S
C371 C367 1.460 . S
C371 C370 1.477 . S
C371 H391 0.930 . S
C372 N368 1.362 . S
C372 C369 1.431 . S
C372 C382 1.476 . S
H373 C367 0.929 . S
C374 O365 1.250 . S
C374 O366 1.258 . S
O375 Mn360 2.162 . S
O375 C363 1.281 . S
O376 Mn360 2.297 . S
O376 C363 1.236 . S
N377 Mn361 2.282 . S
N377 C378 1.328 . S
N377 C382 1.318 . S
C378 N377 1.328 . S
C378 C379 1.457 . S
C378 H383 0.929 . S
C379 C378 1.457 . S
C379 C380 1.291 . S
C379 H392 0.931 . S
C380 C379 1.291 . S
C380 C381 1.373 . S
C380 H393 0.929 . S
C381 C380 1.373 . S
C381 C382 1.396 . S
C381 C388 1.403 . S
C382 C372 1.476 . S
C382 N377 1.318 . S
C382 C381 1.396 . S
H383 C378 0.929 . S
O384 Mn360 2.385 . S
O384 C362 1.234 . S
O385 Mn360 2.209 . S
O385 Mn361 2.215 . S
O385 C362 1.283 . S
O386 Mn360 2.094 . S
O386 C364 1.240 . S
O387 Mn361 2.117 . S
O387 C364 1.264 . S
C388 C381 1.403 . S
C388 C389 1.399 . S
C388 H394 0.929 . S
C389 C369 1.449 . S
C389 C388 1.399 . S
C389 H395 0.930 . S
H390 C370 0.931 . S
H391 C371 0.930 . S
H392 C379 0.931 . S
H393 C380 0.929 . S
H394 C388 0.929 . S
H395 C389 0.930 . S
Mn396 O401 2.095 . S
Mn396 O411 2.162 . S
Mn396 O412 2.297 . S
Mn396 O420 2.385 . S
Mn396 O421 2.209 1_545 S
Mn396 O422 2.094 . S
Mn397 O402 2.121 . S
Mn397 N404 2.257 . S
Mn397 N413 2.282 . S
Mn397 O421 2.215 . S
Mn397 O423 2.117 1_565 S
C398 O420 1.234 . S
C398 O421 1.283 1_545 S
C399 O411 1.281 . S
C399 O412 1.236 . S
C400 O422 1.240 . S
C400 O423 1.264 . S
O401 Mn396 2.095 . S
O401 C410 1.250 . S
O402 Mn397 2.121 . S
O402 C410 1.258 1_565 S
C403 N404 1.326 . S
C403 C407 1.460 . S
C403 H409 0.929 . S
N404 Mn397 2.257 . S
N404 C403 1.326 . S
N404 C408 1.362 . S
C405 C406 1.258 . S
C405 C408 1.431 . S
C405 C425 1.449 . S
C406 C405 1.258 . S
C406 C407 1.477 . S
C406 H426 0.931 . S
C407 C403 1.460 . S
C407 C406 1.477 . S
C407 H427 0.930 . S
C408 N404 1.362 . S
C408 C405 1.431 . S
C408 C418 1.476 . S
H409 C403 0.929 . S
C410 O401 1.250 . S
C410 O402 1.258 1_545 S
O411 Mn396 2.162 . S
O411 C399 1.281 . S
O412 Mn396 2.297 . S
O412 C399 1.236 . S
N413 Mn397 2.282 . S
N413 C414 1.328 . S
N413 C418 1.318 . S
C414 N413 1.328 . S
C414 C415 1.457 . S
C414 H419 0.929 1_565 S
C415 C414 1.457 . S
C415 C416 1.291 . S
C415 H428 0.931 . S
C416 C415 1.291 . S
C416 C417 1.373 . S
C416 H429 0.929 . S
C417 C416 1.373 . S
C417 C418 1.396 . S
C417 C424 1.403 . S
C418 C408 1.476 . S
C418 N413 1.318 . S
C418 C417 1.396 . S
H419 C414 0.929 1_545 S
O420 Mn396 2.385 . S
O420 C398 1.234 . S
O421 Mn396 2.209 1_565 S
O421 Mn397 2.215 . S
O421 C398 1.283 1_565 S
O422 Mn396 2.094 . S
O422 C400 1.240 . S
O423 Mn397 2.117 1_545 S
O423 C400 1.264 . S
C424 C417 1.403 . S
C424 C425 1.399 . S
C424 H430 0.929 . S
C425 C405 1.449 . S
C425 C424 1.399 . S
C425 H431 0.930 . S
H426 C406 0.931 . S
H427 C407 0.930 . S
H428 C415 0.931 . S
H429 C416 0.929 . S
H430 C424 0.929 . S
H431 C425 0.930 . S
Mn432 O437 2.095 . S
Mn432 O447 2.162 . S
Mn432 O448 2.297 . S
Mn432 O456 2.385 . S
Mn432 O457 2.209 1_565 S
Mn432 O458 2.094 . S
Mn433 O438 2.121 . S
Mn433 N440 2.257 . S
Mn433 N449 2.282 . S
Mn433 O457 2.215 . S
Mn433 O459 2.117 1_545 S
C434 O456 1.234 . S
C434 O457 1.283 1_565 S
C435 O447 1.281 . S
C435 O448 1.236 . S
C436 O458 1.240 . S
C436 O459 1.264 . S
O437 Mn432 2.095 . S
O437 C446 1.250 . S
O438 Mn433 2.121 . S
O438 C446 1.258 1_545 S
C439 N440 1.326 . S
C439 C443 1.460 . S
C439 H445 0.929 . S
N440 Mn433 2.257 . S
N440 C439 1.326 . S
N440 C444 1.362 . S
C441 C442 1.258 . S
C441 C444 1.431 . S
C441 C461 1.449 . S
C442 C441 1.258 . S
C442 C443 1.477 . S
C442 H462 0.931 . S
C443 C439 1.460 . S
C443 C442 1.477 . S
C443 H463 0.930 . S
C444 N440 1.362 . S
C444 C441 1.431 . S
C444 C454 1.476 . S
H445 C439 0.929 . S
C446 O437 1.250 . S
C446 O438 1.258 1_565 S
O447 Mn432 2.162 . S
O447 C435 1.281 . S
O448 Mn432 2.297 . S
O448 C435 1.236 . S
N449 Mn433 2.282 . S
N449 C450 1.328 . S
N449 C454 1.318 . S
C450 N449 1.328 . S
C450 C451 1.457 . S
C450 H455 0.929 1_545 S
C451 C450 1.457 . S
C451 C452 1.291 . S
C451 H464 0.931 . S
C452 C451 1.291 . S
C452 C453 1.373 . S
C452 H465 0.929 . S
C453 C452 1.373 . S
C453 C454 1.396 . S
C453 C460 1.403 . S
C454 C444 1.476 . S
C454 N449 1.318 . S
C454 C453 1.396 . S
H455 C450 0.929 1_565 S
O456 Mn432 2.385 . S
O456 C434 1.234 . S
O457 Mn432 2.209 1_545 S
O457 Mn433 2.215 . S
O457 C434 1.283 1_545 S
O458 Mn432 2.094 . S
O458 C436 1.240 . S
O459 Mn433 2.117 1_565 S
O459 C436 1.264 . S
C460 C453 1.403 . S
C460 C461 1.399 . S
C460 H466 0.929 . S
C461 C441 1.449 . S
C461 C460 1.399 . S
C461 H467 0.930 . S
H462 C442 0.931 . S
H463 C443 0.930 . S
H464 C451 0.931 . S
H465 C452 0.929 . S
H466 C460 0.929 . S
H467 C461 0.930 . S
Mn468 O473 2.095 . S
Mn468 O483 2.162 . S
Mn468 O484 2.297 . S
Mn468 O492 2.385 . S
Mn468 O493 2.209 1_455 S
Mn468 O494 2.094 . S
Mn469 O474 2.121 . S
Mn469 N476 2.257 . S
Mn469 N485 2.282 . S
Mn469 O493 2.215 . S
Mn469 O495 2.117 1_655 S
C470 O492 1.234 . S
C470 O493 1.283 1_455 S
C471 O483 1.281 . S
C471 O484 1.236 . S
C472 O494 1.240 . S
C472 O495 1.264 . S
O473 Mn468 2.095 . S
O473 C482 1.250 . S
O474 Mn469 2.121 . S
O474 C482 1.258 1_655 S
C475 N476 1.326 . S
C475 C479 1.460 . S
C475 H481 0.929 . S
N476 Mn469 2.257 . S
N476 C475 1.326 . S
N476 C480 1.362 . S
C477 C478 1.258 . S
C477 C480 1.431 . S
C477 C497 1.449 . S
C478 C477 1.258 . S
C478 C479 1.477 . S
C478 H498 0.931 . S
C479 C475 1.460 . S
C479 C478 1.477 . S
C479 H499 0.930 . S
C480 N476 1.362 . S
C480 C477 1.431 . S
C480 C490 1.476 . S
H481 C475 0.929 . S
C482 O473 1.250 . S
C482 O474 1.258 1_455 S
O483 Mn468 2.162 . S
O483 C471 1.281 . S
O484 Mn468 2.297 . S
O484 C471 1.236 . S
N485 Mn469 2.282 . S
N485 C486 1.328 . S
N485 C490 1.318 . S
C486 N485 1.328 . S
C486 C487 1.457 . S
C486 H491 0.929 1_655 S
C487 C486 1.457 . S
C487 C488 1.291 . S
C487 H500 0.931 . S
C488 C487 1.291 . S
C488 C489 1.373 . S
C488 H501 0.929 . S
C489 C488 1.373 . S
C489 C490 1.396 . S
C489 C496 1.403 . S
C490 C480 1.476 . S
C490 N485 1.318 . S
C490 C489 1.396 . S
H491 C486 0.929 1_455 S
O492 Mn468 2.385 . S
O492 C470 1.234 . S
O493 Mn468 2.209 1_655 S
O493 Mn469 2.215 . S
O493 C470 1.283 1_655 S
O494 Mn468 2.094 . S
O494 C472 1.240 . S
O495 Mn469 2.117 1_455 S
O495 C472 1.264 . S
C496 C489 1.403 . S
C496 C497 1.399 . S
C496 H502 0.929 . S
C497 C477 1.449 . S
C497 C496 1.399 . S
C497 H503 0.930 . S
H498 C478 0.931 . S
H499 C479 0.930 . S
H500 C487 0.931 . S
H501 C488 0.929 . S
H502 C496 0.929 . S
H503 C497 0.930 . S
Mn504 O509 2.095 . S
Mn504 O519 2.162 . S
Mn504 O520 2.297 . S
Mn504 O528 2.385 . S
Mn504 O529 2.209 . S
Mn504 O530 2.094 . S
Mn505 O510 2.121 . S
Mn505 N512 2.257 . S
Mn505 N521 2.282 . S
Mn505 O529 2.215 . S
Mn505 O531 2.117 . S
C506 O528 1.234 . S
C506 O529 1.283 . S
C507 O519 1.281 . S
C507 O520 1.236 . S
C508 O530 1.240 . S
C508 O531 1.264 . S
O509 Mn504 2.095 . S
O509 C518 1.250 . S
O510 Mn505 2.121 . S
O510 C518 1.258 . S
C511 N512 1.326 . S
C511 C515 1.460 . S
C511 H517 0.929 . S
N512 Mn505 2.257 . S
N512 C511 1.326 . S
N512 C516 1.362 . S
C513 C514 1.258 . S
C513 C516 1.431 . S
C513 C533 1.449 . S
C514 C513 1.258 . S
C514 C515 1.477 . S
C514 H534 0.931 . S
C515 C511 1.460 . S
C515 C514 1.477 . S
C515 H535 0.930 . S
C516 N512 1.362 . S
C516 C513 1.431 . S
C516 C526 1.476 . S
H517 C511 0.929 . S
C518 O509 1.250 . S
C518 O510 1.258 . S
O519 Mn504 2.162 . S
O519 C507 1.281 . S
O520 Mn504 2.297 . S
O520 C507 1.236 . S
N521 Mn505 2.282 . S
N521 C522 1.328 . S
N521 C526 1.318 . S
C522 N521 1.328 . S
C522 C523 1.457 . S
C522 H527 0.929 . S
C523 C522 1.457 . S
C523 C524 1.291 . S
C523 H536 0.931 . S
C524 C523 1.291 . S
C524 C525 1.373 . S
C524 H537 0.929 . S
C525 C524 1.373 . S
C525 C526 1.396 . S
C525 C532 1.403 . S
C526 C516 1.476 . S
C526 N521 1.318 . S
C526 C525 1.396 . S
H527 C522 0.929 . S
O528 Mn504 2.385 . S
O528 C506 1.234 . S
O529 Mn504 2.209 . S
O529 Mn505 2.215 . S
O529 C506 1.283 . S
O530 Mn504 2.094 . S
O530 C508 1.240 . S
O531 Mn505 2.117 . S
O531 C508 1.264 . S
C532 C525 1.403 . S
C532 C533 1.399 . S
C532 H538 0.929 . S
C533 C513 1.449 . S
C533 C532 1.399 . S
C533 H539 0.930 . S
H534 C514 0.931 . S
H535 C515 0.930 . S
H536 C523 0.931 . S
H537 C524 0.929 . S
H538 C532 0.929 . S
H539 C533 0.930 . S
Mn540 O545 2.095 . S
Mn540 O555 2.162 . S
Mn540 O556 2.297 . S
Mn540 O564 2.385 . S
Mn540 O565 2.209 . S
Mn540 O566 2.094 . S
Mn541 O546 2.121 . S
Mn541 N548 2.257 . S
Mn541 N557 2.282 . S
Mn541 O565 2.215 . S
Mn541 O567 2.117 . S
C542 O564 1.234 . S
C542 O565 1.283 . S
C543 O555 1.281 . S
C543 O556 1.236 . S
C544 O566 1.240 . S
C544 O567 1.264 . S
O545 Mn540 2.095 . S
O545 C554 1.250 . S
O546 Mn541 2.121 . S
O546 C554 1.258 . S
C547 N548 1.326 . S
C547 C551 1.460 . S
C547 H553 0.929 . S
N548 Mn541 2.257 . S
N548 C547 1.326 . S
N548 C552 1.362 . S
C549 C550 1.258 . S
C549 C552 1.431 . S
C549 C569 1.449 . S
C550 C549 1.258 . S
C550 C551 1.477 . S
C550 H570 0.931 . S
C551 C547 1.460 . S
C551 C550 1.477 . S
C551 H571 0.930 . S
C552 N548 1.362 . S
C552 C549 1.431 . S
C552 C562 1.476 . S
H553 C547 0.929 . S
C554 O545 1.250 . S
C554 O546 1.258 . S
O555 Mn540 2.162 . S
O555 C543 1.281 . S
O556 Mn540 2.297 . S
O556 C543 1.236 . S
N557 Mn541 2.282 . S
N557 C558 1.328 . S
N557 C562 1.318 . S
C558 N557 1.328 . S
C558 C559 1.457 . S
C558 H563 0.929 . S
C559 C558 1.457 . S
C559 C560 1.291 1_556 S
C559 H572 0.931 1_556 S
C560 C559 1.291 1_554 S
C560 C561 1.373 1_554 S
C560 H573 0.929 . S
C561 C560 1.373 1_556 S
C561 C562 1.396 . S
C561 C568 1.403 . S
C562 C552 1.476 . S
C562 N557 1.318 . S
C562 C561 1.396 . S
H563 C558 0.929 . S
O564 Mn540 2.385 . S
O564 C542 1.234 . S
O565 Mn540 2.209 . S
O565 Mn541 2.215 . S
O565 C542 1.283 . S
O566 Mn540 2.094 . S
O566 C544 1.240 . S
O567 Mn541 2.117 . S
O567 C544 1.264 . S
C568 C561 1.403 . S
C568 C569 1.399 . S
C568 H574 0.929 1_556 S
C569 C549 1.449 . S
C569 C568 1.399 . S
C569 H575 0.930 . S
H570 C550 0.931 . S
H571 C551 0.930 . S
H572 C559 0.931 1_554 S
H573 C560 0.929 . S
H574 C568 0.929 1_554 S
H575 C569 0.930 . S
Mn576 O581 2.095 . S
Mn576 O591 2.162 . S
Mn576 O592 2.297 . S
Mn576 O600 2.385 . S
Mn576 O601 2.209 . S
Mn576 O602 2.094 . S
Mn577 O582 2.121 . S
Mn577 N584 2.257 . S
Mn577 N593 2.282 . S
Mn577 O601 2.215 . S
Mn577 O603 2.117 . S
C578 O600 1.234 . S
C578 O601 1.283 . S
C579 O591 1.281 . S
C579 O592 1.236 . S
C580 O602 1.240 . S
C580 O603 1.264 . S
O581 Mn576 2.095 . S
O581 C590 1.250 . S
O582 Mn577 2.121 . S
O582 C590 1.258 . S
C583 N584 1.326 . S
C583 C587 1.460 . S
C583 H589 0.929 . S
N584 Mn577 2.257 . S
N584 C583 1.326 . S
N584 C588 1.362 . S
C585 C586 1.255 . S
C585 C588 1.438 . S
C585 C605 1.445 1_565 S
C586 C585 1.255 . S
C586 C587 1.477 . S
C586 H606 0.931 1_565 S
C587 C583 1.460 . S
C587 C586 1.477 . S
C587 H607 0.930 . S
C588 N584 1.362 . S
C588 C585 1.438 . S
C588 C598 1.476 . S
H589 C583 0.929 . S
C590 O581 1.250 . S
C590 O582 1.258 . S
O591 Mn576 2.162 . S
O591 C579 1.281 . S
O592 Mn576 2.297 . S
O592 C579 1.236 . S
N593 Mn577 2.282 . S
N593 C594 1.328 . S
N593 C598 1.318 . S
C594 N593 1.328 . S
C594 C595 1.457 . S
C594 H599 0.929 . S
C595 C594 1.457 . S
C595 C596 1.291 1_566 S
C595 H608 0.931 1_556 S
C596 C595 1.291 1_544 S
C596 C597 1.373 1_554 S
C596 H609 0.929 . S
C597 C596 1.373 1_556 S
C597 C598 1.396 1_545 S
C597 C604 1.403 . S
C598 C588 1.476 . S
C598 N593 1.318 . S
C598 C597 1.396 1_565 S
H599 C594 0.929 . S
O600 Mn576 2.385 . S
O600 C578 1.234 . S
O601 Mn576 2.209 . S
O601 Mn577 2.215 . S
O601 C578 1.283 . S
O602 Mn576 2.094 . S
O602 C580 1.240 . S
O603 Mn577 2.117 . S
O603 C580 1.264 . S
C604 C597 1.403 . S
C604 C605 1.399 . S
C604 H610 0.929 1_556 S
C605 C585 1.445 1_545 S
C605 C604 1.399 . S
C605 H611 0.930 . S
H606 C586 0.931 1_545 S
H607 C587 0.930 . S
H608 C595 0.931 1_554 S
H609 C596 0.929 . S
H610 C604 0.929 1_554 S
H611 C605 0.930 . S
Mn612 O617 2.095 . S
Mn612 O627 2.162 . S
Mn612 O628 2.297 . S
Mn612 O636 2.385 . S
Mn612 O637 2.209 . S
Mn612 O638 2.094 . S
Mn613 O618 2.121 . S
Mn613 N620 2.257 . S
Mn613 N629 2.282 . S
Mn613 O637 2.215 . S
Mn613 O639 2.117 . S
C614 O636 1.234 . S
C614 O637 1.283 . S
C615 O627 1.281 . S
C615 O628 1.236 . S
C616 O638 1.240 . S
C616 O639 1.264 . S
O617 Mn612 2.095 . S
O617 C626 1.250 . S
O618 Mn613 2.121 . S
O618 C626 1.258 . S
C619 N620 1.326 . S
C619 C623 1.460 . S
C619 H625 0.929 . S
N620 Mn613 2.257 . S
N620 C619 1.326 . S
N620 C624 1.362 . S
C621 C622 1.255 1_655 S
C621 C624 1.431 1_655 S
C621 C641 1.451 . S
C622 C621 1.255 1_455 S
C622 C623 1.477 . S
C622 H642 0.931 1_455 S
C623 C619 1.460 . S
C623 C622 1.477 . S
C623 H643 0.930 . S
C624 N620 1.362 . S
C624 C621 1.431 1_455 S
C624 C634 1.476 . S
H625 C619 0.929 . S
C626 O617 1.250 . S
C626 O618 1.258 . S
O627 Mn612 2.162 . S
O627 C615 1.281 . S
O628 Mn612 2.297 . S
O628 C615 1.236 . S
N629 Mn613 2.282 . S
N629 C630 1.328 . S
N629 C634 1.318 . S
C630 N629 1.328 . S
C630 C631 1.457 . S
C630 H635 0.929 . S
C631 C630 1.457 . S
C631 C632 1.291 1_456 S
C631 H644 0.931 1_556 S
C632 C631 1.291 1_654 S
C632 C633 1.373 1_554 S
C632 H645 0.929 . S
C633 C632 1.373 1_556 S
C633 C634 1.396 1_655 S
C633 C640 1.403 . S
C634 C624 1.476 . S
C634 N629 1.318 . S
C634 C633 1.396 1_455 S
H635 C630 0.929 . S
O636 Mn612 2.385 . S
O636 C614 1.234 . S
O637 Mn612 2.209 . S
O637 Mn613 2.215 . S
O637 C614 1.283 . S
O638 Mn612 2.094 . S
O638 C616 1.240 . S
O639 Mn613 2.117 . S
O639 C616 1.264 . S
C640 C633 1.403 . S
C640 C641 1.399 . S
C640 H646 0.929 1_556 S
C641 C621 1.451 . S
C641 C640 1.399 . S
C641 H647 0.930 . S
H642 C622 0.931 1_655 S
H643 C623 0.930 . S
H644 C631 0.931 1_554 S
H645 C632 0.929 . S
H646 C640 0.929 1_554 S
H647 C641 0.930 . S
C626 C14 1.552 . S
C554 C50 1.552 . S
C590 C86 1.552 . S
C266 C122 1.552 . S
C302 C158 1.552 . S
C194 C230 1.552 . S
C338 C482 1.552 1_654 S
C374 C518 1.552 1_554 S
C410 C446 1.552 1_544 S
C2 C614 0.660 . S
C542 C38 0.660 . S
C74 C578 0.660 . S
C254 C110 0.660 . S
C146 C290 0.660 . S
C182 C218 0.660 . S
C326 C470 0.660 1_655 S
C506 C362 0.660 . S
C434 C398 0.660 1_565 S
C3 C111 1.726 1_554 S
C147 C39 1.726 1_546 S
C183 C75 1.726 1_656 S
C184 C40 1.732 1_556 S
C76 C112 1.732 1_564 S
C148 C4 1.732 1_656 S
C219 C327 1.726 . S
C363 C255 1.726 . S
C399 C291 1.726 . S
C400 C256 1.732 . S
C292 C328 1.732 . S
C364 C220 1.732 . S
C543 C435 1.726 . S
C579 C471 1.726 . S
C507 C615 1.726 . S
C616 C472 1.732 . S
C508 C544 1.732 . S
C580 C436 1.732 . S
