# Generated by pormake.
# Topology mok, (4)-cn, num edge types: 1
# Building blocks:
#     Node 0, Type 0, BuildingBlock: TATPOV_clean_sbu_0, # of connection points: 4
#     Node 1, Type 0, BuildingBlock: TATPOV_clean_sbu_0, # of connection points: 4
#     Node 2, Type 0, BuildingBlock: TATPOV_clean_sbu_0, # of connection points: 4
#     Node 3, Type 0, BuildingBlock: TATPOV_clean_sbu_0, # of connection points: 4
#     Node 4, Type 0, BuildingBlock: TATPOV_clean_sbu_0, # of connection points: 4
#     Node 5, Type 0, BuildingBlock: TATPOV_clean_sbu_0, # of connection points: 4
#     Node 6, Type 0, BuildingBlock: TATPOV_clean_sbu_0, # of connection points: 4
#     Node 7, Type 0, BuildingBlock: TATPOV_clean_sbu_0, # of connection points: 4
#     Edge 8, Type (0, 0), BuildingBlock: TEMPAE_clean_linker_10, # of connection points: 2
#     Edge 9, Type (0, 0), BuildingBlock: TEMPAE_clean_linker_10, # of connection points: 2
#     Edge 10, Type (0, 0), BuildingBlock: TEMPAE_clean_linker_10, # of connection points: 2
#     Edge 11, Type (0, 0), BuildingBlock: TEMPAE_clean_linker_10, # of connection points: 2
#     Edge 12, Type (0, 0), BuildingBlock: TEMPAE_clean_linker_10, # of connection points: 2
#     Edge 13, Type (0, 0), BuildingBlock: TEMPAE_clean_linker_10, # of connection points: 2
#     Edge 14, Type (0, 0), BuildingBlock: TEMPAE_clean_linker_10, # of connection points: 2
#     Edge 15, Type (0, 0), BuildingBlock: TEMPAE_clean_linker_10, # of connection points: 2
#     Edge 16, Type (0, 0), BuildingBlock: TEMPAE_clean_linker_10, # of connection points: 2
#     Edge 17, Type (0, 0), BuildingBlock: TEMPAE_clean_linker_10, # of connection points: 2
#     Edge 18, Type (0, 0), BuildingBlock: TEMPAE_clean_linker_10, # of connection points: 2
#     Edge 19, Type (0, 0), BuildingBlock: TEMPAE_clean_linker_10, # of connection points: 2
#     Edge 20, Type (0, 0), BuildingBlock: TEMPAE_clean_linker_10, # of connection points: 2
#     Edge 21, Type (0, 0), BuildingBlock: TEMPAE_clean_linker_10, # of connection points: 2
#     Edge 22, Type (0, 0), BuildingBlock: TEMPAE_clean_linker_10, # of connection points: 2
#     Edge 23, Type (0, 0), BuildingBlock: TEMPAE_clean_linker_10, # of connection points: 2
# Relax obj value: 0.024
# Max RMSD: 0.042
# Mean RMSD: 0.042
data_MOF--net-mok--node1-TATPOV_clean_sbu_0--edge1-TEMPAE_clean_linker_10
_symmetry_space_group_name_H-M    P1
_symmetry_Int_Tables_number       1
_symmetry_cell_setting            triclinic
loop_
_symmetry_equiv_pos_as_xyz
'x, y, z'
_cell_length_a     47.138221
_cell_length_b     20.203745
_cell_length_c     26.932801
_cell_angle_alpha  90.056763
_cell_angle_beta   89.996047
_cell_angle_gamma 89.903393
loop_
_atom_site_label
_atom_site_type_symbol
_atom_site_fract_x
_atom_site_fract_y
_atom_site_fract_z
_atom_type_partial_charge
Zn0 Zn 0.63876 0.44063 0.94204 0.0
Zn1 Zn 0.61155 0.32737 0.96767 0.0
O2 O 0.59841 0.39523 0.01952 0.0
O3 O 0.62067 0.4875 0.00023 0.0
O4 O 0.59045 0.24381 0.98789 0.0
O5 O 0.61926 0.43787 0.87621 0.0
O6 O 0.59608 0.34747 0.89751 0.0
C7 C 0.60361 0.45614 0.02783 0.0
C8 C 0.67729 0.33502 0.96341 0.0
O9 O 0.65451 0.30295 0.9724 0.0
O10 O 0.67616 0.39468 0.94933 0.0
C11 C 0.58862 0.19384 0.95927 0.0
O12 O 0.6014 0.19574 0.91593 0.0
C13 C 0.60153 0.39289 0.86613 0.0
Zn14 Zn 0.39767 0.58668 0.03657 0.0
Zn15 Zn 0.4249 0.69599 0.0359 0.0
O16 O 0.44312 0.64459 0.09449 0.0
O17 O 0.42675 0.54457 0.08018 0.0
O18 O 0.44657 0.78313 0.032 0.0
O19 O 0.40061 0.57617 0.96324 0.0
O20 O 0.43306 0.65428 0.9673 0.0
C21 C 0.44304 0.58274 0.10404 0.0
C22 C 0.36106 0.68994 0.06137 0.0
O23 O 0.38254 0.72325 0.04683 0.0
O24 O 0.36286 0.62779 0.06571 0.0
C25 C 0.47298 0.78642 0.04173 0.0
O26 O 0.48628 0.73268 0.05637 0.0
C27 C 0.42 0.60965 0.94294 0.0
Zn28 Zn 0.59311 0.53364 0.47663 0.0
Zn29 Zn 0.56893 0.64555 0.4769 0.0
O30 O 0.56444 0.61571 0.4029 0.0
O31 O 0.59045 0.52538 0.40406 0.0
O32 O 0.54643 0.7317 0.48171 0.0
O33 O 0.56497 0.487 0.51815 0.0
O34 O 0.54994 0.58806 0.53241 0.0
C35 C 0.57588 0.56701 0.3801 0.0
C36 C 0.63156 0.63317 0.50632 0.0
O37 O 0.61082 0.67003 0.49317 0.0
O38 O 0.62869 0.57092 0.50668 0.0
C39 C 0.55562 0.78818 0.46838 0.0
O40 O 0.58129 0.79264 0.44967 0.0
C41 C 0.54934 0.52623 0.54236 0.0
Zn42 Zn 0.39821 0.45485 0.51985 0.0
Zn43 Zn 0.41825 0.33393 0.52662 0.0
O44 O 0.43391 0.36989 0.45941 0.0
O45 O 0.41356 0.46777 0.45264 0.0
O46 O 0.43615 0.24199 0.52959 0.0
O47 O 0.42075 0.4843 0.57814 0.0
O48 O 0.43357 0.38063 0.58988 0.0
C49 C 0.42938 0.42302 0.43513 0.0
C50 C 0.35359 0.36067 0.52824 0.0
O51 O 0.37424 0.31946 0.52805 0.0
O52 O 0.35843 0.4222 0.52665 0.0
C53 C 0.43542 0.20378 0.49197 0.0
O54 O 0.42153 0.22318 0.45225 0.0
C55 C 0.43363 0.44114 0.60354 0.0
Zn56 Zn 0.1265 0.96184 0.01081 0.0
Zn57 Zn 0.09844 0.85167 0.01696 0.0
O58 O 0.07792 0.9125 0.0678 0.0
O59 O 0.09747 0.00878 0.05129 0.0
O60 O 0.07638 0.76483 0.0174 0.0
O61 O 0.12324 0.96509 0.93727 0.0
O62 O 0.09278 0.8833 0.94501 0.0
C63 C 0.07911 0.97509 0.07428 0.0
C64 C 0.16191 0.86063 0.04602 0.0
O65 O 0.14021 0.8258 0.03474 0.0
O66 O 0.16086 0.92299 0.04282 0.0
C67 C 0.06911 0.73318 0.05621 0.0
O68 O 0.07631 0.75665 0.09994 0.0
C69 C 0.10498 0.92691 0.91838 0.0
Zn70 Zn 0.91843 0.05419 0.0135 0.0
Zn71 Zn 0.93963 0.17231 0.01859 0.0
O72 O 0.94944 0.12726 0.08655 0.0
O73 O 0.93246 0.02633 0.07925 0.0
O74 O 0.9609 0.26037 0.02291 0.0
O75 O 0.94013 0.02816 0.95422 0.0
O76 O 0.95486 0.13123 0.95182 0.0
C77 C 0.94537 0.06951 0.10448 0.0
C78 C 0.87559 0.15575 0.0074 0.0
O79 O 0.89671 0.19441 0.01362 0.0
O80 O 0.87939 0.09373 0.00529 0.0
C81 C 0.94967 0.31691 0.03034 0.0
O82 O 0.92201 0.32116 0.03547 0.0
C83 C 0.95369 0.07349 0.93244 0.0
Zn84 Zn 0.11518 0.08844 0.4931 0.0
Zn85 Zn 0.08664 0.1962 0.50697 0.0
O86 O 0.07525 0.16508 0.43527 0.0
O87 O 0.10025 0.07379 0.42626 0.0
O88 O 0.0617 0.27798 0.51738 0.0
O89 O 0.0977 0.04202 0.54987 0.0
O90 O 0.07448 0.13427 0.56529 0.0
C91 C 0.08298 0.11561 0.40893 0.0
C92 C 0.15221 0.19666 0.50828 0.0
O93 O 0.12888 0.22855 0.51293 0.0
O94 O 0.15204 0.13518 0.49964 0.0
C95 C 0.0616 0.32656 0.48728 0.0
O96 O 0.07902 0.32533 0.44919 0.0
C97 C 0.08047 0.07439 0.57642 0.0
Zn98 Zn 0.85979 0.93897 0.52574 0.0
Zn99 Zn 0.89322 0.82877 0.52796 0.0
O100 O 0.90369 0.87241 0.46199 0.0
O101 O 0.87377 0.95632 0.45619 0.0
O102 O 0.91929 0.74782 0.53096 0.0
O103 O 0.88062 0.97649 0.58405 0.0
O104 O 0.90712 0.88624 0.58637 0.0
C105 C 0.89375 0.92179 0.43832 0.0
C106 C 0.82751 0.82106 0.53755 0.0
O107 O 0.85161 0.79268 0.53232 0.0
O108 O 0.82562 0.88348 0.53781 0.0
C109 C 0.91633 0.69719 0.50324 0.0
O110 O 0.89496 0.69544 0.47193 0.0
C111 C 0.90052 0.94321 0.60328 0.0
C112 C 0.83834 0.24202 0.02365 0.0
C113 C 0.84645 0.18202 0.00169 0.0
C114 C 0.81029 0.26532 0.01955 0.0
C115 C 0.79021 0.22863 -0.00836 0.0
C116 C 0.79847 0.16849 0.96888 0.0
C117 C 0.82636 0.14554 0.97473 0.0
C118 C 0.8021 0.32905 0.04515 0.0
C119 C 0.77801 0.12892 0.93755 0.0
C120 C 0.71088 0.25891 0.0077 0.0
C121 C 0.7055 0.304 0.96936 0.0
C122 C 0.73848 0.23461 0.01597 0.0
C123 C 0.7609 0.25448 0.9842 0.0
C124 C 0.75527 0.29842 0.94452 0.0
C125 C 0.72775 0.32333 0.93806 0.0
C126 C 0.74379 0.18888 0.05928 0.0
C127 C 0.77832 0.3192 0.90883 0.0
H128 H 0.85376 0.27004 0.04485 0.0
H129 H 0.8326 0.09934 0.95734 0.0
H130 H 0.79573 0.36648 0.01718 0.0
H131 H 0.78355 0.32063 0.06969 0.0
H132 H 0.81973 0.34966 0.06773 0.0
H133 H 0.78782 0.08316 0.92233 0.0
H134 H 0.7592 0.11486 0.95988 0.0
H135 H 0.77033 0.15958 0.90613 0.0
H136 H 0.69374 0.24452 0.03225 0.0
H137 H 0.72358 0.35795 0.90818 0.0
H138 H 0.75995 0.21085 0.08431 0.0
H139 H 0.7524 0.14098 0.04587 0.0
H140 H 0.72422 0.17915 0.08104 0.0
H141 H 0.79527 0.34596 0.9291 0.0
H142 H 0.77018 0.3518 0.87882 0.0
H143 H 0.78819 0.27486 0.89162 0.0
C144 C 0.20811 0.86251 0.09062 0.0
C145 C 0.18939 0.82971 0.0585 0.0
C146 C 0.23609 0.8403 0.09697 0.0
C147 C 0.2458 0.78513 0.06938 0.0
C148 C 0.22666 0.75037 0.03821 0.0
C149 C 0.19851 0.77262 0.03366 0.0
C150 C 0.25551 0.87736 0.13181 0.0
C151 C 0.23632 0.69184 0.00764 0.0
C152 C 0.3243 0.77333 0.03779 0.0
C153 C 0.33304 0.72134 0.06856 0.0
C154 C 0.29599 0.79531 0.03821 0.0
C155 C 0.27626 0.7657 0.07115 0.0
C156 C 0.28548 0.71592 0.10436 0.0
C157 C 0.31366 0.69367 0.10215 0.0
C158 C 0.28689 0.84794 0.00175 0.0
C159 C 0.26538 0.68467 0.14113 0.0
H160 H 0.20102 0.90659 0.11002 0.0
H161 H 0.18414 0.74772 0.00838 0.0
H162 H 0.26645 0.84236 0.15714 0.0
H163 H 0.27211 0.90335 0.11016 0.0
H164 H 0.24388 0.91452 0.15448 0.0
H165 H 0.21862 0.6689 0.98655 0.0
H166 H 0.25286 0.70792 0.98094 0.0
H167 H 0.24601 0.65368 0.0319 0.0
H168 H 0.33916 0.79422 0.01141 0.0
H169 H 0.32045 0.65358 0.12614 0.0
H170 H 0.27691 0.89004 0.02164 0.0
H171 H 0.27073 0.82734 0.97608 0.0
H172 H 0.30493 0.86699 0.97943 0.0
H173 H 0.25401 0.72351 0.16249 0.0
H174 H 0.27653 0.6515 0.16762 0.0
H175 H 0.24916 0.65533 0.12104 0.0
C176 C 0.79498 0.73195 0.5077 0.0
C177 C 0.80096 0.78293 0.5413 0.0
C178 C 0.7675 0.70514 0.50456 0.0
C179 C 0.74588 0.72888 0.53668 0.0
C180 C 0.75246 0.77729 0.57285 0.0
C181 C 0.7798 0.80444 0.57417 0.0
C182 C 0.7612 0.65427 0.46501 0.0
C183 C 0.73035 0.80245 0.60882 0.0
C184 C 0.66891 0.71957 0.49451 0.0
C185 C 0.65976 0.66137 0.51768 0.0
C186 C 0.69696 0.74186 0.50017 0.0
C187 C 0.71604 0.70596 0.53076 0.0
C188 C 0.70653 0.64861 0.55578 0.0
C189 C 0.67862 0.62654 0.54842 0.0
C190 C 0.70641 0.80281 0.47235 0.0
C191 C 0.72589 0.61018 0.58991 0.0
H192 H 0.81126 0.71604 0.48185 0.0
H193 H 0.78449 0.84391 0.60021 0.0
H194 H 0.7511 0.61002 0.48169 0.0
H195 H 0.74594 0.67524 0.43783 0.0
H196 H 0.7806 0.63844 0.44479 0.0
H197 H 0.73966 0.8347 0.63799 0.0
H198 H 0.71404 0.83127 0.58845 0.0
H199 H 0.7194 0.7604 0.62704 0.0
H200 H 0.65449 0.74619 0.47032 0.0
H201 H 0.67157 0.58162 0.56659 0.0
H202 H 0.7245 0.79025 0.44768 0.0
H203 H 0.71393 0.84098 0.49884 0.0
H204 H 0.68913 0.82444 0.44945 0.0
H205 H 0.74405 0.58985 0.56856 0.0
H206 H 0.71479 0.56858 0.60854 0.0
H207 H 0.73476 0.64348 0.61877 0.0
C208 C 0.20062 0.21363 0.47538 0.0
C209 C 0.18004 0.22972 0.51094 0.0
C210 C 0.2285 0.23689 0.4795 0.0
C211 C 0.23626 0.27569 0.52108 0.0
C212 C 0.21543 0.29284 0.55695 0.0
C213 C 0.18735 0.27028 0.55109 0.0
C214 C 0.24972 0.21919 0.43956 0.0
C215 C 0.22304 0.3331 0.60223 0.0
C216 C 0.31565 0.27723 0.5481 0.0
C217 C 0.32365 0.33831 0.52796 0.0
C218 C 0.28702 0.25736 0.54809 0.0
C219 C 0.26614 0.29875 0.52618 0.0
C220 C 0.27421 0.36034 0.50575 0.0
C221 C 0.30274 0.37963 0.50742 0.0
C222 C 0.27912 0.19184 0.57109 0.0
C223 C 0.25286 0.40504 0.48066 0.0
H224 H 0.1949 0.18211 0.44434 0.0
H225 H 0.17149 0.28172 0.57898 0.0
H226 H 0.25957 0.26476 0.42444 0.0
H227 H 0.26699 0.18858 0.45555 0.0
H228 H 0.23989 0.19132 0.40844 0.0
H229 H 0.2044 0.34261 0.62647 0.0
H230 H 0.23944 0.30659 0.62414 0.0
H231 H 0.23227 0.38125 0.59097 0.0
H232 H 0.33168 0.24542 0.56437 0.0
H233 H 0.3088 0.42675 0.49142 0.0
H234 H 0.2713 0.15763 0.54194 0.0
H235 H 0.26165 0.19883 0.59823 0.0
H236 H 0.29736 0.16811 0.59026 0.0
H237 H 0.24358 0.37931 0.44808 0.0
H238 H 0.26245 0.45224 0.46788 0.0
H239 H 0.23518 0.41668 0.5064 0.0
C240 C 0.56848 0.46098 0.09721 0.0
C241 C 0.59171 0.48868 0.07235 0.0
C242 C 0.5602 0.48462 0.14398 0.0
C243 C 0.57598 0.53587 0.16675 0.0
C244 C 0.59778 0.56792 0.13984 0.0
C245 C 0.60521 0.54427 0.09266 0.0
C246 C 0.53638 0.45032 0.17092 0.0
C247 C 0.61551 0.62194 0.16296 0.0
C248 C 0.55749 0.60114 0.29574 0.0
C249 C 0.57409 0.55928 0.32552 0.0
C250 C 0.55731 0.59374 0.24368 0.0
C251 C 0.57448 0.54431 0.22142 0.0
C252 C 0.59105 0.50195 0.25146 0.0
C253 C 0.59041 0.50955 0.30287 0.0
C254 C 0.53906 0.63881 0.21249 0.0
C255 C 0.61001 0.44903 0.22935 0.0
H256 H 0.55755 0.41889 0.08119 0.0
H257 H 0.62304 0.56633 0.07341 0.0
H258 H 0.52163 0.42574 0.14457 0.0
H259 H 0.54527 0.41189 0.19589 0.0
H260 H 0.52434 0.48594 0.19412 0.0
H261 H 0.62759 0.6501 0.13457 0.0
H262 H 0.60216 0.65698 0.1844 0.0
H263 H 0.6309 0.59935 0.18916 0.0
H264 H 0.54473 0.63946 0.31298 0.0
H265 H 0.60336 0.47683 0.32532 0.0
H266 H 0.52556 0.60906 0.18721 0.0
H267 H 0.55266 0.6705 0.18883 0.0
H268 H 0.52535 0.67135 0.2355 0.0
H269 H 0.59704 0.41249 0.20867 0.0
H270 H 0.62242 0.42208 0.25801 0.0
H271 H 0.62509 0.47151 0.20264 0.0
C272 C 0.46387 0.59644 0.18858 0.0
C273 C 0.45792 0.55576 0.14778 0.0
C274 C 0.46858 0.56861 0.2356 0.0
C275 C 0.46715 0.499 0.24133 0.0
C276 C 0.46573 0.45803 0.19893 0.0
C277 C 0.46108 0.48697 0.15245 0.0
C278 C 0.47123 0.61368 0.28004 0.0
C279 C 0.46569 0.38362 0.20335 0.0
C280 C 0.46874 0.42916 0.37276 0.0
C281 C 0.43979 0.43165 0.38433 0.0
C282 C 0.47841 0.44986 0.32577 0.0
C283 C 0.4584 0.47163 0.28999 0.0
C284 C 0.42902 0.47042 0.30116 0.0
C285 C 0.42019 0.45096 0.34828 0.0
C286 C 0.50982 0.4492 0.31496 0.0
C287 C 0.4068 0.49227 0.26406 0.0
H288 H 0.4621 0.64972 0.18495 0.0
H289 H 0.45748 0.45532 0.12053 0.0
H290 H 0.45108 0.61316 0.30136 0.0
H291 H 0.48833 0.59589 0.30506 0.0
H292 H 0.47579 0.66557 0.26908 0.0
H293 H 0.47012 0.35931 0.16715 0.0
H294 H 0.48174 0.3671 0.2308 0.0
H295 H 0.44457 0.36694 0.21658 0.0
H296 H 0.48382 0.41431 0.40105 0.0
H297 H 0.3978 0.45247 0.35756 0.0
H298 H 0.51609 0.4914 0.29112 0.0
H299 H 0.51526 0.40298 0.29481 0.0
H300 H 0.52255 0.45067 0.34966 0.0
H301 H 0.40997 0.54516 0.25451 0.0
H302 H 0.38486 0.48628 0.27844 0.0
H303 H 0.40876 0.46312 0.2293 0.0
C304 C 0.40681 0.58254 0.8566 0.0
C305 C 0.42804 0.59363 0.89182 0.0
C306 C 0.41357 0.55925 0.80915 0.0
C307 C 0.44217 0.54399 0.79753 0.0
C308 C 0.4638 0.55664 0.83286 0.0
C309 C 0.45646 0.58253 0.87947 0.0
C310 C 0.38998 0.54981 0.77183 0.0
C311 C 0.49462 0.54196 0.82299 0.0
C312 C 0.44186 0.41925 0.69329 0.0
C313 C 0.44479 0.46123 0.65233 0.0
C314 C 0.44361 0.44462 0.7417 0.0
C315 C 0.44858 0.51313 0.74879 0.0
C316 C 0.45502 0.5537 0.70761 0.0
C317 C 0.45299 0.52719 0.65971 0.0
C318 C 0.43772 0.39903 0.78483 0.0
C319 C 0.46089 0.62664 0.71364 0.0
H320 H 0.38483 0.59161 0.86642 0.0
H321 H 0.47283 0.59078 0.90708 0.0
H322 H 0.39558 0.5738 0.7361 0.0
H323 H 0.38694 0.49628 0.76443 0.0
H324 H 0.3695 0.57071 0.78504 0.0
H325 H 0.50683 0.58889 0.824 0.0
H326 H 0.50321 0.50978 0.85286 0.0
H327 H 0.49827 0.51754 0.7868 0.0
H328 H 0.43574 0.36808 0.68769 0.0
H329 H 0.45576 0.55941 0.62789 0.0
H330 H 0.41481 0.40126 0.79415 0.0
H331 H 0.44989 0.41386 0.81831 0.0
H332 H 0.44306 0.34691 0.77543 0.0
H333 H 0.44067 0.65286 0.72152 0.0
H334 H 0.47043 0.64831 0.67962 0.0
H335 H 0.47536 0.63562 0.7454 0.0
C336 C 0.60116 0.42066 0.77681 0.0
C337 C 0.58671 0.39595 0.81813 0.0
C338 C 0.58691 0.43349 0.73237 0.0
C339 C 0.55715 0.42392 0.72976 0.0
C340 C 0.54272 0.39507 0.77056 0.0
C341 C 0.55783 0.38067 0.81426 0.0
C342 C 0.60374 0.45957 0.6888 0.0
C343 C 0.51146 0.37994 0.76933 0.0
C344 C 0.53592 0.54382 0.63048 0.0
C345 C 0.53709 0.50163 0.58931 0.0
C346 C 0.53867 0.51821 0.67861 0.0
C347 C 0.54188 0.44887 0.68521 0.0
C348 C 0.53749 0.40598 0.6444 0.0
C349 C 0.53496 0.43307 0.5967 0.0
C350 C 0.54256 0.56694 0.72056 0.0
C351 C 0.53963 0.33183 0.64994 0.0
H352 H 0.62366 0.43116 0.77955 0.0
H353 H 0.54671 0.3608 0.84617 0.0
H354 H 0.59715 0.43491 0.65382 0.0
H355 H 0.59982 0.51343 0.68465 0.0
H356 H 0.62692 0.452 0.69378 0.0
H357 H 0.50144 0.39406 0.80511 0.0
H358 H 0.5003 0.4052 0.73854 0.0
H359 H 0.50854 0.32575 0.76506 0.0
H360 H 0.53681 0.59698 0.62515 0.0
H361 H 0.53481 0.40031 0.56477 0.0
H362 H 0.54421 0.54318 0.75748 0.0
H363 H 0.52459 0.60248 0.72093 0.0
H364 H 0.56212 0.59622 0.71406 0.0
H365 H 0.56135 0.31812 0.66219 0.0
H366 H 0.53494 0.30542 0.61469 0.0
H367 H 0.52457 0.31449 0.67867 0.0
C368 C 0.06595 0.07647 0.12158 0.0
C369 C 0.06266 0.00809 0.11399 0.0
C370 C 0.05961 0.10515 0.1676 0.0
C371 C 0.04944 0.06442 0.20627 0.0
C372 C 0.04077 0.9989 0.19533 0.0
C373 C 0.0478 0.97093 0.14924 0.0
C374 C 0.06808 0.17603 0.17694 0.0
C375 C 0.02762 0.95586 0.23457 0.0
C376 C 0.09156 0.07125 0.32499 0.0
C377 C 0.07383 0.10714 0.35692 0.0
C378 C 0.08383 0.05847 0.27602 0.0
C379 C 0.05725 0.0811 0.25824 0.0
C380 C 0.03934 0.11873 0.28987 0.0
C381 C 0.04801 0.13196 0.339 0.0
C382 C 0.10433 0.02025 0.24349 0.0
C383 C 0.01128 0.14562 0.27228 0.0
H384 H 0.07624 0.10641 0.09349 0.0
H385 H 0.04407 0.91867 0.14287 0.0
H386 H 0.05159 0.20198 0.19889 0.0
H387 H 0.08808 0.17702 0.19869 0.0
H388 H 0.07154 0.20356 0.14177 0.0
H389 H 0.01099 0.98428 0.25424 0.0
H390 H 0.01812 0.9103 0.21858 0.0
H391 H 0.04394 0.94122 0.26217 0.0
H392 H 0.11184 0.05308 0.33832 0.0
H393 H 0.03436 0.16023 0.36354 0.0
H394 H 0.10858 0.04784 0.20869 0.0
H395 H 0.09498 0.97178 0.23325 0.0
H396 H 0.12494 0.01081 0.2622 0.0
H397 H 0.01444 0.19592 0.25685 0.0
H398 H 0.99611 0.1503 0.30361 0.0
H399 H 1.00184 0.11408 0.24295 0.0
C400 C 0.88961 0.95744 0.35066 0.0
C401 C 0.90673 0.94232 0.39141 0.0
C402 C 0.90159 0.98035 0.30633 0.0
C403 C 0.93129 0.99117 0.30365 0.0
C404 C 0.94854 0.97755 0.34552 0.0
C405 C 0.93608 0.95154 0.38855 0.0
C406 C 0.88244 0.99246 0.26225 0.0
C407 C 0.98004 0.99015 0.34557 0.0
C408 C 0.95565 0.98793 0.17067 0.0
C409 C 0.95133 0.05411 0.15696 0.0
C410 C 0.95185 0.96744 0.21986 0.0
C411 C 0.94375 0.01446 0.25611 0.0
C412 C 0.94267 0.08251 0.24354 0.0
C413 C 0.94651 0.1017 0.19385 0.0
C414 C 0.95358 0.89457 0.23182 0.0
C415 C 0.93495 0.13443 0.28152 0.0
H416 H 0.86685 0.95041 0.35333 0.0
H417 H 0.94917 0.9407 0.42066 0.0
H418 H 0.8832 0.04541 0.25153 0.0
H419 H 0.88988 0.96308 0.22991 0.0
H420 H 0.86002 0.97908 0.27003 0.0
H421 H 0.99117 0.94532 0.33187 0.0
H422 H 0.98566 0.03249 0.32147 0.0
H423 H 0.98794 1.00047 0.38366 0.0
H424 H 0.95979 0.95121 0.14217 0.0
H425 H 0.94326 0.15297 0.18342 0.0
H426 H 0.93192 0.87524 0.23889 0.0
H427 H 0.96627 0.88652 0.26595 0.0
H428 H 0.96321 0.86556 0.20106 0.0
H429 H 0.91155 0.13614 0.28579 0.0
H430 H 0.94226 0.18433 0.26994 0.0
H431 H 0.94424 0.12251 0.31832 0.0
C432 C 0.94529 0.97105 0.64761 0.0
C433 C 0.91564 0.97074 0.64614 0.0
C434 C 0.95973 0.99746 0.68864 0.0
C435 C 0.94402 0.02052 0.73008 0.0
C436 C 0.91396 0.02223 0.72767 0.0
C437 C 0.90018 0.99835 0.68528 0.0
C438 C 0.99164 0.9987 0.68724 0.0
C439 C 0.89619 0.04619 0.77085 0.0
C440 C 0.96299 0.99507 0.86352 0.0
C441 C 0.96278 0.0607 0.88068 0.0
C442 C 0.96006 0.98082 0.81298 0.0
C443 C 0.95788 0.0335 0.7787 0.0
C444 C 0.96273 0.09922 0.7949 0.0
C445 C 0.96478 0.11238 0.84612 0.0
C446 C 0.95575 0.90978 0.7972 0.0
C447 C 0.96275 0.15602 0.75869 0.0
H448 H 0.95721 0.95132 0.61646 0.0
H449 H 0.87719 0.9987 0.68356 0.0
H450 H 0.99909 0.01619 0.6504 0.0
H451 H 1.00074 0.0312 0.71624 0.0
H452 H 0.99979 0.94762 0.69202 0.0
H453 H 0.87316 0.04665 0.76212 0.0
H454 H 0.89966 0.01358 0.80344 0.0
H455 H 0.90262 0.09697 0.78167 0.0
H456 H 0.96244 0.95467 0.88999 0.0
H457 H 0.96529 0.16322 0.85897 0.0
H458 H 0.96784 0.89887 0.76281 0.0
H459 H 0.93293 0.9015 0.7891 0.0
H460 H 0.9624 0.87436 0.82651 0.0
H461 H 0.97426 0.14219 0.72422 0.0
H462 H 0.97272 0.20089 0.77493 0.0
H463 H 0.94059 0.16835 0.74831 0.0
C464 C 0.11475 0.97021 0.83396 0.0
C465 C 0.09642 0.93728 0.86646 0.0
C466 C 0.10606 0.98702 0.78599 0.0
C467 C 0.07814 0.97145 0.77043 0.0
C468 C 0.05978 0.93667 0.80274 0.0
C469 C 0.06922 0.91961 0.85042 0.0
C470 C 0.12671 0.02232 0.75223 0.0
C471 C 0.02989 0.91978 0.78793 0.0
C472 C 0.0614 0.08366 0.66302 0.0
C473 C 0.07085 0.04424 0.6235 0.0
C474 C 0.06022 0.05785 0.7114 0.0
C475 C 0.06896 0.99169 0.72 0.0
C476 C 0.07498 0.94973 0.67933 0.0
C477 C 0.07563 0.97647 0.63147 0.0
C478 C 0.05222 0.10314 0.75373 0.0
C479 C 0.08436 0.87889 0.68662 0.0
H480 H 0.1359 0.9835 0.84626 0.0
H481 H 0.05492 0.89473 0.87579 0.0
H482 H 0.12905 0.99475 0.71681 0.0
H483 H 0.11849 0.07235 0.74314 0.0
H484 H 0.14802 0.02782 0.76932 0.0
H485 H 0.0193 0.88732 0.81551 0.0
H486 H 0.01755 0.96621 0.78471 0.0
H487 H 0.02957 0.8948 0.7513 0.0
H488 H 0.05709 0.13575 0.657 0.0
H489 H 0.08221 0.9452 0.6008 0.0
H490 H 0.07179 0.1213 0.77212 0.0
H491 H 0.0395 0.07637 0.78195 0.0
H492 H 0.0399 0.14664 0.74057 0.0
H493 H 0.10691 0.8783 0.6985 0.0
H494 H 0.08253 0.84966 0.65181 0.0
H495 H 0.07178 0.85422 0.71601 0.0
C496 C 0.51742 0.85375 0.0493 0.0
C497 C 0.48905 0.84884 0.03386 0.0
C498 C 0.5335 0.91087 0.03971 0.0
C499 C 0.52105 0.96439 0.01367 0.0
C500 C 0.49225 0.96032 -0.00116 0.0
C501 C 0.47658 0.90277 0.00928 0.0
C502 C 0.56404 0.91334 0.05658 0.0
C503 C 0.4782 0.01615 0.97084 0.0
C504 C 0.55663 0.13373 0.01885 0.0
C505 C 0.57164 0.13492 0.97381 0.0
C506 C 0.54008 0.07868 0.03235 0.0
C507 C 0.53849 0.02337 0.0001 0.0
C508 C 0.55368 0.02418 0.95473 0.0
C509 C 0.57002 0.07981 0.94216 0.0
C510 C 0.52425 0.07977 0.08107 0.0
C511 C 0.55262 0.96623 0.91931 0.0
H512 H 0.52724 0.81259 0.06858 0.0
H513 H 0.45471 0.89949 -0.00287 0.0
H514 H 0.57823 0.91664 0.02382 0.0
H515 H 0.56772 0.95821 0.07946 0.0
H516 H 0.57014 0.8691 0.07862 0.0
H517 H 0.45536 0.00651 0.9637 0.0
H518 H 0.48016 0.06305 -0.008 0.0
H519 H 0.48904 0.02349 0.9347 0.0
H520 H 0.55769 0.17602 0.04357 0.0
H521 H 0.58151 0.08008 0.9073 0.0
H522 H 0.53107 0.03748 0.10448 0.0
H523 H 0.50117 0.07404 0.0743 0.0
H524 H 0.52776 0.12639 0.10208 0.0
H525 H 0.56041 0.92086 0.9381 0.0
H526 H 0.5656 0.97458 0.88548 0.0
H527 H 0.53037 0.95681 0.90787 0.0
C528 C 0.51017 0.84401 0.49414 0.0
C529 C 0.53757 0.84834 0.47391 0.0
C530 C 0.49287 0.90048 0.49915 0.0
C531 C 0.50314 0.96296 0.48356 0.0
C532 C 0.53083 0.96773 0.46345 0.0
C533 C 0.54767 0.91051 0.45888 0.0
C534 C 0.46349 0.89318 0.52077 0.0
C535 C 0.54261 0.03331 0.44631 0.0
C536 C 0.45075 0.09924 0.44926 0.0
C537 C 0.45157 0.14035 0.49132 0.0
C538 C 0.46705 0.04101 0.44662 0.0
C539 C 0.48471 0.02313 0.487 0.0
C540 C 0.48527 0.06371 0.52995 0.0
C541 C 0.46871 0.12175 0.53162 0.0
C542 C 0.46574 0.99919 0.40017 0.0
C543 C 0.50378 0.04643 0.57382 0.0
H544 H 0.50213 0.79634 0.50597 0.0
H545 H 0.56879 0.91458 0.44328 0.0
H546 H 0.46105 0.92601 0.55355 0.0
H547 H 0.44741 0.90872 0.49305 0.0
H548 H 0.45889 0.84149 0.53224 0.0
H549 H 0.56474 0.02898 0.43247 0.0
H550 H 0.52917 0.05366 0.41613 0.0
H551 H 0.54219 0.06953 0.47729 0.0
H552 H 0.43758 0.11295 0.41792 0.0
H553 H 0.46955 0.15308 0.56427 0.0
H554 H 0.45971 0.94769 0.40969 0.0
H555 H 0.48698 0.99712 0.3825 0.0
H556 H 0.45029 0.01875 0.37268 0.0
H557 H 0.49871 0.99591 0.58723 0.0
H558 H 0.50113 0.08182 0.60508 0.0
H559 H 0.52639 0.04627 0.56238 0.0
C560 C 0.04372 0.64696 0.00555 0.0
C561 C 0.05227 0.67104 0.05214 0.0
C562 C 0.02742 0.58894 0.00126 0.0
C563 C 0.01944 0.55383 0.04457 0.0
C564 C 0.02817 0.57756 0.09166 0.0
C565 C 0.04442 0.63578 0.09488 0.0
C566 C 0.01854 0.56548 0.95035 0.0
C567 C 0.02018 0.54163 0.13876 0.0
C568 C 0.95503 0.44014 0.03866 0.0
C569 C 0.9676 0.37743 0.03363 0.0
C570 C 0.97161 0.49778 0.04208 0.0
C571 C 1.00159 0.49288 0.04066 0.0
C572 C 0.01443 0.42977 0.03563 0.0
C573 C 0.99733 0.37292 0.03207 0.0
C574 C 0.95703 0.56404 0.04723 0.0
C575 C 0.0463 0.42226 0.03416 0.0
H576 H 0.04963 0.67369 0.97226 0.0
H577 H 0.05089 0.65376 0.13106 0.0
H578 H 0.02632 0.51433 0.94392 0.0
H579 H 0.99506 0.56415 0.94786 0.0
H580 H 0.02676 0.59782 0.92029 0.0
H581 H 0.02905 0.56576 0.17242 0.0
H582 H 0.99675 0.5397 0.14237 0.0
H583 H 0.02794 0.48979 0.13725 0.0
H584 H 0.93211 0.44435 0.03984 0.0
H585 H 0.0073 0.3248 0.02831 0.0
H586 H 0.9633 0.59694 0.01617 0.0
H587 H 0.96379 0.58845 0.08219 0.0
H588 H 0.93354 0.55955 0.04744 0.0
H589 H 0.05511 0.451 0.00267 0.0
H590 H 0.05301 0.36979 0.03017 0.0
H591 H 0.05573 0.44259 0.06868 0.0
C592 C 0.01998 0.38035 0.5301 0.0
C593 C 0.04111 0.38228 0.49335 0.0
C594 C 0.99968 0.43128 0.53438 0.0
C595 C 1.00052 0.48577 0.5013 0.0
C596 C 0.02212 0.4886 0.46479 0.0
C597 C 0.04205 0.4369 0.46119 0.0
C598 C 0.97698 0.42615 0.57373 0.0
C599 C 0.02394 0.54585 0.42893 0.0
C600 C 0.93324 0.58507 0.47553 0.0
C601 C 0.93735 0.642 0.50459 0.0
C602 C 0.95334 0.53353 0.47484 0.0
C603 C 0.97836 0.53886 0.50372 0.0
C604 C 0.98249 0.59577 0.53366 0.0
C605 C 0.96195 0.64649 0.53383 0.0
C606 C 0.94797 0.47366 0.44258 0.0
C607 C 0.00887 0.60361 0.56487 0.0
H608 H 0.019 0.33844 0.55512 0.0
H609 H 0.05828 0.43915 0.43275 0.0
H610 H 0.97718 0.47091 0.59762 0.0
H611 H 0.95579 0.42369 0.55591 0.0
H612 H 0.97975 0.3818 0.5976 0.0
H613 H 0.0426 0.54196 0.4039 0.0
H614 H 1.00446 0.54788 0.40587 0.0
H615 H 0.02527 0.59324 0.44964 0.0
H616 H 0.91431 0.58083 0.45291 0.0
H617 H 0.96541 0.69018 0.5564 0.0
H618 H 0.94886 0.42795 0.46532 0.0
H619 H 0.96479 0.46959 0.41391 0.0
H620 H 0.92705 0.47592 0.42369 0.0
H621 H 0.0112 0.56083 0.59034 0.0
H622 H 0.00855 0.64982 0.58726 0.0
H623 H 0.02788 0.60429 0.54057 0.0
loop_
_geom_bond_atom_site_label_1
_geom_bond_atom_site_label_2
_geom_bond_distance
_geom_bond_site_symmetry_2
_ccdc_geom_bond_type
Zn0 O3 2.031 . S
Zn0 O5 2.049 1_554 S
Zn0 O10 2.067 1_554 S
Zn1 O2 1.962 . S
Zn1 O4 1.986 1_554 S
Zn1 O6 1.996 1_554 S
Zn1 O9 1.943 . S
O2 Zn1 1.962 . S
O2 C7 1.254 . S
O3 Zn0 2.031 . S
O3 C7 1.269 . S
O4 Zn1 1.986 1_556 S
O4 C11 1.262 1_556 S
O5 Zn0 2.049 1_556 S
O5 C13 1.260 . S
O6 Zn1 1.996 1_556 S
O6 C13 1.257 . S
C7 O2 1.254 . S
C7 O3 1.269 . S
C8 O9 1.249 . S
C8 O10 1.270 1_554 S
O9 Zn1 1.943 . S
O9 C8 1.249 . S
O10 Zn0 2.067 1_556 S
O10 C8 1.270 1_556 S
C11 O4 1.262 1_554 S
C11 O12 1.232 . S
O12 C11 1.232 . S
C13 O5 1.260 . S
C13 O6 1.257 . S
Zn14 O17 2.031 . S
Zn14 O19 2.049 1_554 S
Zn14 O24 2.067 1_554 S
Zn15 O16 1.962 . S
Zn15 O18 1.986 1_554 S
Zn15 O20 1.996 1_554 S
Zn15 O23 1.943 . S
O16 Zn15 1.962 . S
O16 C21 1.254 . S
O17 Zn14 2.031 . S
O17 C21 1.269 . S
O18 Zn15 1.986 1_556 S
O18 C25 1.262 1_556 S
O19 Zn14 2.049 1_556 S
O19 C27 1.260 . S
O20 Zn15 1.996 1_556 S
O20 C27 1.257 . S
C21 O16 1.254 . S
C21 O17 1.269 . S
C22 O23 1.249 . S
C22 O24 1.270 1_554 S
O23 Zn15 1.943 . S
O23 C22 1.249 . S
O24 Zn14 2.067 1_556 S
O24 C22 1.270 1_556 S
C25 O18 1.262 1_554 S
C25 O26 1.232 . S
O26 C25 1.232 . S
C27 O19 1.260 . S
C27 O20 1.257 . S
Zn28 O31 2.031 . S
Zn28 O33 2.049 . S
Zn28 O38 2.067 . S
Zn29 O30 1.962 . S
Zn29 O32 1.986 . S
Zn29 O34 1.996 . S
Zn29 O37 1.943 . S
O30 Zn29 1.962 . S
O30 C35 1.254 . S
O31 Zn28 2.031 . S
O31 C35 1.269 . S
O32 Zn29 1.986 . S
O32 C39 1.262 . S
O33 Zn28 2.049 . S
O33 C41 1.260 . S
O34 Zn29 1.996 . S
O34 C41 1.257 . S
C35 O30 1.254 . S
C35 O31 1.269 . S
C36 O37 1.249 . S
C36 O38 1.270 . S
O37 Zn29 1.943 . S
O37 C36 1.249 . S
O38 Zn28 2.067 . S
O38 C36 1.270 . S
C39 O32 1.262 . S
C39 O40 1.232 . S
O40 C39 1.232 . S
C41 O33 1.260 . S
C41 O34 1.257 . S
Zn42 O45 2.031 . S
Zn42 O47 2.049 . S
Zn42 O52 2.067 . S
Zn43 O44 1.962 . S
Zn43 O46 1.986 . S
Zn43 O48 1.996 . S
Zn43 O51 1.943 . S
O44 Zn43 1.962 . S
O44 C49 1.254 . S
O45 Zn42 2.031 . S
O45 C49 1.269 . S
O46 Zn43 1.986 . S
O46 C53 1.262 . S
O47 Zn42 2.049 . S
O47 C55 1.260 . S
O48 Zn43 1.996 . S
O48 C55 1.257 . S
C49 O44 1.254 . S
C49 O45 1.269 . S
C50 O51 1.249 . S
C50 O52 1.270 . S
O51 Zn43 1.943 . S
O51 C50 1.249 . S
O52 Zn42 2.067 . S
O52 C50 1.270 . S
C53 O46 1.262 . S
C53 O54 1.232 . S
O54 C53 1.232 . S
C55 O47 1.260 . S
C55 O48 1.257 . S
Zn56 O59 2.031 . S
Zn56 O61 2.049 1_554 S
Zn56 O66 2.067 1_554 S
Zn57 O58 1.962 . S
Zn57 O60 1.986 1_554 S
Zn57 O62 1.996 1_554 S
Zn57 O65 1.943 . S
O58 Zn57 1.962 . S
O58 C63 1.254 . S
O59 Zn56 2.031 . S
O59 C63 1.269 . S
O60 Zn57 1.986 1_556 S
O60 C67 1.262 1_556 S
O61 Zn56 2.049 1_556 S
O61 C69 1.260 . S
O62 Zn57 1.996 1_556 S
O62 C69 1.257 . S
C63 O58 1.254 . S
C63 O59 1.269 . S
C64 O65 1.249 . S
C64 O66 1.270 1_554 S
O65 Zn57 1.943 . S
O65 C64 1.249 . S
O66 Zn56 2.067 1_556 S
O66 C64 1.270 1_556 S
C67 O60 1.262 1_554 S
C67 O68 1.232 . S
O68 C67 1.232 . S
C69 O61 1.260 . S
C69 O62 1.257 . S
Zn70 O73 2.031 . S
Zn70 O75 2.049 1_554 S
Zn70 O80 2.067 1_554 S
Zn71 O72 1.962 . S
Zn71 O74 1.986 1_554 S
Zn71 O76 1.996 1_554 S
Zn71 O79 1.943 . S
O72 Zn71 1.962 . S
O72 C77 1.254 . S
O73 Zn70 2.031 . S
O73 C77 1.269 . S
O74 Zn71 1.986 1_556 S
O74 C81 1.262 1_556 S
O75 Zn70 2.049 1_556 S
O75 C83 1.260 . S
O76 Zn71 1.996 1_556 S
O76 C83 1.257 . S
C77 O72 1.254 . S
C77 O73 1.269 . S
C78 O79 1.249 . S
C78 O80 1.270 1_554 S
O79 Zn71 1.943 . S
O79 C78 1.249 . S
O80 Zn70 2.067 1_556 S
O80 C78 1.270 1_556 S
C81 O74 1.262 1_554 S
C81 O82 1.232 . S
O82 C81 1.232 . S
C83 O75 1.260 . S
C83 O76 1.257 . S
Zn84 O87 2.031 . S
Zn84 O89 2.049 . S
Zn84 O94 2.067 . S
Zn85 O86 1.962 . S
Zn85 O88 1.986 . S
Zn85 O90 1.996 . S
Zn85 O93 1.943 . S
O86 Zn85 1.962 . S
O86 C91 1.254 . S
O87 Zn84 2.031 . S
O87 C91 1.269 . S
O88 Zn85 1.986 . S
O88 C95 1.262 . S
O89 Zn84 2.049 . S
O89 C97 1.260 . S
O90 Zn85 1.996 . S
O90 C97 1.257 . S
C91 O86 1.254 . S
C91 O87 1.269 . S
C92 O93 1.249 . S
C92 O94 1.270 . S
O93 Zn85 1.943 . S
O93 C92 1.249 . S
O94 Zn84 2.067 . S
O94 C92 1.270 . S
C95 O88 1.262 . S
C95 O96 1.232 . S
O96 C95 1.232 . S
C97 O89 1.260 . S
C97 O90 1.257 . S
Zn98 O101 2.031 . S
Zn98 O103 2.049 . S
Zn98 O108 2.067 . S
Zn99 O100 1.962 . S
Zn99 O102 1.986 . S
Zn99 O104 1.996 . S
Zn99 O107 1.943 . S
O100 Zn99 1.962 . S
O100 C105 1.254 . S
O101 Zn98 2.031 . S
O101 C105 1.269 . S
O102 Zn99 1.986 . S
O102 C109 1.262 . S
O103 Zn98 2.049 . S
O103 C111 1.260 . S
O104 Zn99 1.996 . S
O104 C111 1.257 . S
C105 O100 1.254 . S
C105 O101 1.269 . S
C106 O107 1.249 . S
C106 O108 1.270 . S
O107 Zn99 1.943 . S
O107 C106 1.249 . S
O108 Zn98 2.067 . S
O108 C106 1.270 . S
C109 O102 1.262 . S
C109 O110 1.232 . S
O110 C109 1.232 . S
C111 O103 1.260 . S
C111 O104 1.257 . S
C112 C113 1.391 . S
C112 C114 1.394 . S
C112 H128 0.931 . S
C113 C112 1.391 . S
C113 C117 1.376 1_554 S
C114 C112 1.394 . S
C114 C115 1.369 . S
C114 C118 1.531 . S
C115 C114 1.369 . S
C115 C116 1.410 1_554 S
C115 C123 1.503 . S
C116 C115 1.410 1_556 S
C116 C117 1.392 . S
C116 C119 1.511 . S
C117 C113 1.376 1_556 S
C117 C116 1.392 . S
C117 H129 0.929 . S
C118 C114 1.531 . S
C118 H130 0.960 . S
C118 H131 0.962 . S
C118 H132 0.960 . S
C119 C116 1.511 . S
C119 H133 0.961 . S
C119 H134 0.961 . S
C119 H135 0.961 . S
C120 C121 1.370 . S
C120 C122 1.363 . S
C120 H136 0.931 . S
C121 C120 1.370 . S
C121 C125 1.408 1_554 S
C122 C120 1.363 . S
C122 C123 1.370 . S
C122 C126 1.524 . S
C123 C115 1.503 . S
C123 C122 1.370 . S
C123 C124 1.403 1_554 S
C124 C123 1.403 1_556 S
C124 C125 1.404 . S
C124 C127 1.539 . S
C125 C121 1.408 1_556 S
C125 C124 1.404 . S
C125 H137 0.930 . S
C126 C122 1.524 . S
C126 H138 0.956 . S
C126 H139 0.961 . S
C126 H140 0.961 . S
C127 C124 1.539 . S
C127 H141 0.958 . S
C127 H142 0.961 . S
C127 H143 0.960 . S
H128 C112 0.931 . S
H129 C117 0.929 . S
H130 C118 0.960 . S
H131 C118 0.962 . S
H132 C118 0.960 . S
H133 C119 0.961 . S
H134 C119 0.961 . S
H135 C119 0.961 . S
H136 C120 0.931 . S
H137 C125 0.930 . S
H138 C126 0.956 . S
H139 C126 0.961 . S
H140 C126 0.961 . S
H141 C127 0.958 . S
H142 C127 0.961 . S
H143 C127 0.960 . S
C144 C145 1.391 . S
C144 C146 1.394 . S
C144 H160 0.931 . S
C145 C144 1.391 . S
C145 C149 1.376 . S
C146 C144 1.394 . S
C146 C147 1.369 . S
C146 C150 1.531 . S
C147 C146 1.369 . S
C147 C148 1.410 . S
C147 C155 1.503 . S
C148 C147 1.410 . S
C148 C149 1.392 . S
C148 C151 1.511 . S
C149 C145 1.376 . S
C149 C148 1.392 . S
C149 H161 0.929 . S
C150 C146 1.531 . S
C150 H162 0.960 . S
C150 H163 0.962 . S
C150 H164 0.960 . S
C151 C148 1.511 . S
C151 H165 0.961 1_554 S
C151 H166 0.961 1_554 S
C151 H167 0.961 . S
C152 C153 1.370 1_556 S
C152 C154 1.363 . S
C152 H168 0.931 . S
C153 C152 1.370 1_554 S
C153 C157 1.408 . S
C154 C152 1.363 . S
C154 C155 1.370 1_556 S
C154 C158 1.524 . S
C155 C147 1.503 . S
C155 C154 1.370 1_554 S
C155 C156 1.403 . S
C156 C155 1.403 . S
C156 C157 1.404 . S
C156 C159 1.539 . S
C157 C153 1.408 . S
C157 C156 1.404 . S
C157 H169 0.930 . S
C158 C154 1.524 . S
C158 H170 0.956 . S
C158 H171 0.961 . S
C158 H172 0.961 . S
C159 C156 1.539 . S
C159 H173 0.958 . S
C159 H174 0.961 . S
C159 H175 0.960 . S
H160 C144 0.931 . S
H161 C149 0.929 . S
H162 C150 0.960 . S
H163 C150 0.962 . S
H164 C150 0.960 . S
H165 C151 0.961 1_556 S
H166 C151 0.961 1_556 S
H167 C151 0.961 . S
H168 C152 0.931 . S
H169 C157 0.930 . S
H170 C158 0.956 . S
H171 C158 0.961 . S
H172 C158 0.961 . S
H173 C159 0.958 . S
H174 C159 0.961 . S
H175 C159 0.960 . S
C176 C177 1.391 . S
C176 C178 1.394 . S
C176 H192 0.931 . S
C177 C176 1.391 . S
C177 C181 1.376 . S
C178 C176 1.394 . S
C178 C179 1.369 . S
C178 C182 1.531 . S
C179 C178 1.369 . S
C179 C180 1.410 . S
C179 C187 1.503 . S
C180 C179 1.410 . S
C180 C181 1.392 . S
C180 C183 1.511 . S
C181 C177 1.376 . S
C181 C180 1.392 . S
C181 H193 0.929 . S
C182 C178 1.531 . S
C182 H194 0.960 . S
C182 H195 0.962 . S
C182 H196 0.960 . S
C183 C180 1.511 . S
C183 H197 0.961 . S
C183 H198 0.961 . S
C183 H199 0.961 . S
C184 C185 1.370 . S
C184 C186 1.363 . S
C184 H200 0.931 . S
C185 C184 1.370 . S
C185 C189 1.408 . S
C186 C184 1.363 . S
C186 C187 1.370 . S
C186 C190 1.524 . S
C187 C179 1.503 . S
C187 C186 1.370 . S
C187 C188 1.403 . S
C188 C187 1.403 . S
C188 C189 1.404 . S
C188 C191 1.539 . S
C189 C185 1.408 . S
C189 C188 1.404 . S
C189 H201 0.930 . S
C190 C186 1.524 . S
C190 H202 0.956 . S
C190 H203 0.961 . S
C190 H204 0.961 . S
C191 C188 1.539 . S
C191 H205 0.958 . S
C191 H206 0.961 . S
C191 H207 0.960 . S
H192 C176 0.931 . S
H193 C181 0.929 . S
H194 C182 0.960 . S
H195 C182 0.962 . S
H196 C182 0.960 . S
H197 C183 0.961 . S
H198 C183 0.961 . S
H199 C183 0.961 . S
H200 C184 0.931 . S
H201 C189 0.930 . S
H202 C190 0.956 . S
H203 C190 0.961 . S
H204 C190 0.961 . S
H205 C191 0.958 . S
H206 C191 0.961 . S
H207 C191 0.960 . S
C208 C209 1.391 . S
C208 C210 1.394 . S
C208 H224 0.931 . S
C209 C208 1.391 . S
C209 C213 1.376 . S
C210 C208 1.394 . S
C210 C211 1.369 . S
C210 C214 1.531 . S
C211 C210 1.369 . S
C211 C212 1.410 . S
C211 C219 1.503 . S
C212 C211 1.410 . S
C212 C213 1.392 . S
C212 C215 1.511 . S
C213 C209 1.376 . S
C213 C212 1.392 . S
C213 H225 0.929 . S
C214 C210 1.531 . S
C214 H226 0.960 . S
C214 H227 0.962 . S
C214 H228 0.960 . S
C215 C212 1.511 . S
C215 H229 0.961 . S
C215 H230 0.961 . S
C215 H231 0.961 . S
C216 C217 1.370 . S
C216 C218 1.363 . S
C216 H232 0.931 . S
C217 C216 1.370 . S
C217 C221 1.408 . S
C218 C216 1.363 . S
C218 C219 1.370 . S
C218 C222 1.524 . S
C219 C211 1.503 . S
C219 C218 1.370 . S
C219 C220 1.403 . S
C220 C219 1.403 . S
C220 C221 1.404 . S
C220 C223 1.539 . S
C221 C217 1.408 . S
C221 C220 1.404 . S
C221 H233 0.930 . S
C222 C218 1.524 . S
C222 H234 0.956 . S
C222 H235 0.961 . S
C222 H236 0.961 . S
C223 C220 1.539 . S
C223 H237 0.958 . S
C223 H238 0.961 . S
C223 H239 0.960 . S
H224 C208 0.931 . S
H225 C213 0.929 . S
H226 C214 0.960 . S
H227 C214 0.962 . S
H228 C214 0.960 . S
H229 C215 0.961 . S
H230 C215 0.961 . S
H231 C215 0.961 . S
H232 C216 0.931 . S
H233 C221 0.930 . S
H234 C222 0.956 . S
H235 C222 0.961 . S
H236 C222 0.961 . S
H237 C223 0.958 . S
H238 C223 0.961 . S
H239 C223 0.960 . S
C240 C241 1.391 . S
C240 C242 1.394 . S
C240 H256 0.931 . S
C241 C240 1.391 . S
C241 C245 1.376 . S
C242 C240 1.394 . S
C242 C243 1.369 . S
C242 C246 1.531 . S
C243 C242 1.369 . S
C243 C244 1.410 . S
C243 C251 1.503 . S
C244 C243 1.410 . S
C244 C245 1.392 . S
C244 C247 1.511 . S
C245 C241 1.376 . S
C245 C244 1.392 . S
C245 H257 0.929 . S
C246 C242 1.531 . S
C246 H258 0.960 . S
C246 H259 0.962 . S
C246 H260 0.960 . S
C247 C244 1.511 . S
C247 H261 0.961 . S
C247 H262 0.961 . S
C247 H263 0.961 . S
C248 C249 1.370 . S
C248 C250 1.363 . S
C248 H264 0.931 . S
C249 C248 1.370 . S
C249 C253 1.408 . S
C250 C248 1.363 . S
C250 C251 1.370 . S
C250 C254 1.524 . S
C251 C243 1.503 . S
C251 C250 1.370 . S
C251 C252 1.403 . S
C252 C251 1.403 . S
C252 C253 1.404 . S
C252 C255 1.539 . S
C253 C249 1.408 . S
C253 C252 1.404 . S
C253 H265 0.930 . S
C254 C250 1.524 . S
C254 H266 0.956 . S
C254 H267 0.961 . S
C254 H268 0.961 . S
C255 C252 1.539 . S
C255 H269 0.958 . S
C255 H270 0.961 . S
C255 H271 0.960 . S
H256 C240 0.931 . S
H257 C245 0.929 . S
H258 C246 0.960 . S
H259 C246 0.962 . S
H260 C246 0.960 . S
H261 C247 0.961 . S
H262 C247 0.961 . S
H263 C247 0.961 . S
H264 C248 0.931 . S
H265 C253 0.930 . S
H266 C254 0.956 . S
H267 C254 0.961 . S
H268 C254 0.961 . S
H269 C255 0.958 . S
H270 C255 0.961 . S
H271 C255 0.960 . S
C272 C273 1.391 . S
C272 C274 1.394 . S
C272 H288 0.931 . S
C273 C272 1.391 . S
C273 C277 1.376 . S
C274 C272 1.394 . S
C274 C275 1.369 . S
C274 C278 1.531 . S
C275 C274 1.369 . S
C275 C276 1.410 . S
C275 C283 1.503 . S
C276 C275 1.410 . S
C276 C277 1.392 . S
C276 C279 1.511 . S
C277 C273 1.376 . S
C277 C276 1.392 . S
C277 H289 0.929 . S
C278 C274 1.531 . S
C278 H290 0.960 . S
C278 H291 0.962 . S
C278 H292 0.960 . S
C279 C276 1.511 . S
C279 H293 0.961 . S
C279 H294 0.961 . S
C279 H295 0.961 . S
C280 C281 1.370 . S
C280 C282 1.363 . S
C280 H296 0.931 . S
C281 C280 1.370 . S
C281 C285 1.408 . S
C282 C280 1.363 . S
C282 C283 1.370 . S
C282 C286 1.524 . S
C283 C275 1.503 . S
C283 C282 1.370 . S
C283 C284 1.403 . S
C284 C283 1.403 . S
C284 C285 1.404 . S
C284 C287 1.539 . S
C285 C281 1.408 . S
C285 C284 1.404 . S
C285 H297 0.930 . S
C286 C282 1.524 . S
C286 H298 0.956 . S
C286 H299 0.961 . S
C286 H300 0.961 . S
C287 C284 1.539 . S
C287 H301 0.958 . S
C287 H302 0.961 . S
C287 H303 0.960 . S
H288 C272 0.931 . S
H289 C277 0.929 . S
H290 C278 0.960 . S
H291 C278 0.962 . S
H292 C278 0.960 . S
H293 C279 0.961 . S
H294 C279 0.961 . S
H295 C279 0.961 . S
H296 C280 0.931 . S
H297 C285 0.930 . S
H298 C286 0.956 . S
H299 C286 0.961 . S
H300 C286 0.961 . S
H301 C287 0.958 . S
H302 C287 0.961 . S
H303 C287 0.960 . S
C304 C305 1.391 . S
C304 C306 1.394 . S
C304 H320 0.931 . S
C305 C304 1.391 . S
C305 C309 1.376 . S
C306 C304 1.394 . S
C306 C307 1.369 . S
C306 C310 1.531 . S
C307 C306 1.369 . S
C307 C308 1.410 . S
C307 C315 1.503 . S
C308 C307 1.410 . S
C308 C309 1.392 . S
C308 C311 1.511 . S
C309 C305 1.376 . S
C309 C308 1.392 . S
C309 H321 0.929 . S
C310 C306 1.531 . S
C310 H322 0.960 . S
C310 H323 0.962 . S
C310 H324 0.960 . S
C311 C308 1.511 . S
C311 H325 0.961 . S
C311 H326 0.961 . S
C311 H327 0.961 . S
C312 C313 1.370 . S
C312 C314 1.363 . S
C312 H328 0.931 . S
C313 C312 1.370 . S
C313 C317 1.408 . S
C314 C312 1.363 . S
C314 C315 1.370 . S
C314 C318 1.524 . S
C315 C307 1.503 . S
C315 C314 1.370 . S
C315 C316 1.403 . S
C316 C315 1.403 . S
C316 C317 1.404 . S
C316 C319 1.539 . S
C317 C313 1.408 . S
C317 C316 1.404 . S
C317 H329 0.930 . S
C318 C314 1.524 . S
C318 H330 0.956 . S
C318 H331 0.961 . S
C318 H332 0.961 . S
C319 C316 1.539 . S
C319 H333 0.958 . S
C319 H334 0.961 . S
C319 H335 0.960 . S
H320 C304 0.931 . S
H321 C309 0.929 . S
H322 C310 0.960 . S
H323 C310 0.962 . S
H324 C310 0.960 . S
H325 C311 0.961 . S
H326 C311 0.961 . S
H327 C311 0.961 . S
H328 C312 0.931 . S
H329 C317 0.930 . S
H330 C318 0.956 . S
H331 C318 0.961 . S
H332 C318 0.961 . S
H333 C319 0.958 . S
H334 C319 0.961 . S
H335 C319 0.960 . S
C336 C337 1.391 . S
C336 C338 1.394 . S
C336 H352 0.931 . S
C337 C336 1.391 . S
C337 C341 1.376 . S
C338 C336 1.394 . S
C338 C339 1.369 . S
C338 C342 1.531 . S
C339 C338 1.369 . S
C339 C340 1.410 . S
C339 C347 1.503 . S
C340 C339 1.410 . S
C340 C341 1.392 . S
C340 C343 1.511 . S
C341 C337 1.376 . S
C341 C340 1.392 . S
C341 H353 0.929 . S
C342 C338 1.531 . S
C342 H354 0.960 . S
C342 H355 0.962 . S
C342 H356 0.960 . S
C343 C340 1.511 . S
C343 H357 0.961 . S
C343 H358 0.961 . S
C343 H359 0.961 . S
C344 C345 1.370 . S
C344 C346 1.363 . S
C344 H360 0.931 . S
C345 C344 1.370 . S
C345 C349 1.408 . S
C346 C344 1.363 . S
C346 C347 1.370 . S
C346 C350 1.524 . S
C347 C339 1.503 . S
C347 C346 1.370 . S
C347 C348 1.403 . S
C348 C347 1.403 . S
C348 C349 1.404 . S
C348 C351 1.539 . S
C349 C345 1.408 . S
C349 C348 1.404 . S
C349 H361 0.930 . S
C350 C346 1.524 . S
C350 H362 0.956 . S
C350 H363 0.961 . S
C350 H364 0.961 . S
C351 C348 1.539 . S
C351 H365 0.958 . S
C351 H366 0.961 . S
C351 H367 0.960 . S
H352 C336 0.931 . S
H353 C341 0.929 . S
H354 C342 0.960 . S
H355 C342 0.962 . S
H356 C342 0.960 . S
H357 C343 0.961 . S
H358 C343 0.961 . S
H359 C343 0.961 . S
H360 C344 0.931 . S
H361 C349 0.930 . S
H362 C350 0.956 . S
H363 C350 0.961 . S
H364 C350 0.961 . S
H365 C351 0.958 . S
H366 C351 0.961 . S
H367 C351 0.960 . S
C368 C369 1.391 . S
C368 C370 1.394 1_565 S
C368 H384 0.931 . S
C369 C368 1.391 . S
C369 C373 1.376 . S
C370 C368 1.394 1_545 S
C370 C371 1.369 1_545 S
C370 C374 1.531 . S
C371 C370 1.369 1_565 S
C371 C372 1.410 . S
C371 C379 1.503 1_565 S
C372 C371 1.410 . S
C372 C373 1.392 . S
C372 C375 1.511 . S
C373 C369 1.376 . S
C373 C372 1.392 . S
C373 H385 0.929 . S
C374 C370 1.531 . S
C374 H386 0.960 . S
C374 H387 0.962 . S
C374 H388 0.960 . S
C375 C372 1.511 . S
C375 H389 0.961 . S
C375 H390 0.961 . S
C375 H391 0.961 . S
C376 C377 1.370 . S
C376 C378 1.363 1_545 S
C376 H392 0.931 . S
C377 C376 1.370 . S
C377 C381 1.408 . S
C378 C376 1.363 1_565 S
C378 C379 1.370 1_565 S
C378 C382 1.524 . S
C379 C371 1.503 1_545 S
C379 C378 1.370 1_545 S
C379 C380 1.403 . S
C380 C379 1.403 . S
C380 C381 1.404 . S
C380 C383 1.539 . S
C381 C377 1.408 . S
C381 C380 1.404 . S
C381 H393 0.930 . S
C382 C378 1.524 . S
C382 H394 0.956 . S
C382 H395 0.961 . S
C382 H396 0.961 . S
C383 C380 1.539 . S
C383 H397 0.958 . S
C383 H398 0.961 . S
C383 H399 0.960 . S
H384 C368 0.931 . S
H385 C373 0.929 . S
H386 C374 0.960 . S
H387 C374 0.962 . S
H388 C374 0.960 . S
H389 C375 0.961 . S
H390 C375 0.961 . S
H391 C375 0.961 . S
H392 C376 0.931 . S
H393 C381 0.930 . S
H394 C382 0.956 . S
H395 C382 0.961 . S
H396 C382 0.961 . S
H397 C383 0.958 . S
H398 C383 0.961 . S
H399 C383 0.960 . S
C400 C401 1.391 . S
C400 C402 1.394 . S
C400 H416 0.931 . S
C401 C400 1.391 . S
C401 C405 1.376 . S
C402 C400 1.394 . S
C402 C403 1.369 . S
C402 C406 1.531 1_565 S
C403 C402 1.369 . S
C403 C404 1.410 . S
C403 C411 1.503 1_565 S
C404 C403 1.410 . S
C404 C405 1.392 . S
C404 C407 1.511 . S
C405 C401 1.376 . S
C405 C404 1.392 . S
C405 H417 0.929 . S
C406 C402 1.531 1_545 S
C406 H418 0.960 . S
C406 H419 0.962 1_545 S
C406 H420 0.960 . S
C407 C404 1.511 . S
C407 H421 0.961 . S
C407 H422 0.961 . S
C407 H423 0.961 1_565 S
C408 C409 1.370 . S
C408 C410 1.363 1_545 S
C408 H424 0.931 1_545 S
C409 C408 1.370 . S
C409 C413 1.408 . S
C410 C408 1.363 1_565 S
C410 C411 1.370 1_565 S
C410 C414 1.524 . S
C411 C403 1.503 1_545 S
C411 C410 1.370 1_545 S
C411 C412 1.403 . S
C412 C411 1.403 . S
C412 C413 1.404 . S
C412 C415 1.539 . S
C413 C409 1.408 . S
C413 C412 1.404 . S
C413 H425 0.930 . S
C414 C410 1.524 . S
C414 H426 0.956 . S
C414 H427 0.961 . S
C414 H428 0.961 . S
C415 C412 1.539 . S
C415 H429 0.958 . S
C415 H430 0.961 . S
C415 H431 0.960 . S
H416 C400 0.931 . S
H417 C405 0.929 . S
H418 C406 0.960 . S
H419 C406 0.962 1_565 S
H420 C406 0.960 . S
H421 C407 0.961 . S
H422 C407 0.961 . S
H423 C407 0.961 1_545 S
H424 C408 0.931 1_565 S
H425 C413 0.930 . S
H426 C414 0.956 . S
H427 C414 0.961 . S
H428 C414 0.961 . S
H429 C415 0.958 . S
H430 C415 0.961 . S
H431 C415 0.960 . S
C432 C433 1.391 . S
C432 C434 1.394 1_565 S
C432 H448 0.931 . S
C433 C432 1.391 . S
C433 C437 1.376 . S
C434 C432 1.394 1_545 S
C434 C435 1.369 1_545 S
C434 C438 1.531 . S
C435 C434 1.369 1_565 S
C435 C436 1.410 . S
C435 C443 1.503 1_565 S
C436 C435 1.410 . S
C436 C437 1.392 . S
C436 C439 1.511 . S
C437 C433 1.376 . S
C437 C436 1.392 . S
C437 H449 0.929 . S
C438 C434 1.531 . S
C438 H450 0.960 . S
C438 H451 0.962 . S
C438 H452 0.960 . S
C439 C436 1.511 . S
C439 H453 0.961 . S
C439 H454 0.961 . S
C439 H455 0.961 . S
C440 C441 1.370 . S
C440 C442 1.363 1_545 S
C440 H456 0.936 . S
C441 C440 1.370 . S
C441 C445 1.408 . S
C442 C440 1.363 1_565 S
C442 C443 1.370 1_565 S
C442 C446 1.524 . S
C443 C435 1.503 1_545 S
C443 C442 1.370 1_545 S
C443 C444 1.403 . S
C444 C443 1.403 . S
C444 C445 1.404 . S
C444 C447 1.539 . S
C445 C441 1.408 . S
C445 C444 1.404 . S
C445 H457 0.930 . S
C446 C442 1.524 . S
C446 H458 0.956 . S
C446 H459 0.961 . S
C446 H460 0.961 . S
C447 C444 1.539 . S
C447 H461 0.958 . S
C447 H462 0.961 . S
C447 H463 0.960 . S
H448 C432 0.931 . S
H449 C437 0.929 . S
H450 C438 0.960 . S
H451 C438 0.962 . S
H452 C438 0.960 . S
H453 C439 0.961 . S
H454 C439 0.961 . S
H455 C439 0.961 . S
H456 C440 0.936 . S
H457 C445 0.930 . S
H458 C446 0.956 . S
H459 C446 0.961 . S
H460 C446 0.961 . S
H461 C447 0.958 . S
H462 C447 0.961 . S
H463 C447 0.960 . S
C464 C465 1.391 . S
C464 C466 1.394 . S
C464 H480 0.931 . S
C465 C464 1.391 . S
C465 C469 1.376 . S
C466 C464 1.394 . S
C466 C467 1.369 . S
C466 C470 1.531 . S
C467 C466 1.369 . S
C467 C468 1.410 . S
C467 C475 1.503 1_565 S
C468 C467 1.410 . S
C468 C469 1.392 . S
C468 C471 1.511 1_565 S
C469 C465 1.376 . S
C469 C468 1.392 . S
C469 H481 0.929 . S
C470 C466 1.531 . S
C470 H482 0.960 . S
C470 H483 0.962 . S
C470 H484 0.960 . S
C471 C468 1.511 1_545 S
C471 H485 0.961 . S
C471 H486 0.961 . S
C471 H487 0.961 1_545 S
C472 C473 1.370 . S
C472 C474 1.363 . S
C472 H488 0.931 . S
C473 C472 1.370 . S
C473 C477 1.408 . S
C474 C472 1.363 . S
C474 C475 1.370 . S
C474 C478 1.524 . S
C475 C467 1.503 1_545 S
C475 C474 1.370 . S
C475 C476 1.403 1_545 S
C476 C475 1.403 1_565 S
C476 C477 1.404 1_565 S
C476 C479 1.539 . S
C477 C473 1.408 . S
C477 C476 1.404 1_545 S
C477 H489 0.930 1_545 S
C478 C474 1.524 . S
C478 H490 0.956 . S
C478 H491 0.961 . S
C478 H492 0.961 . S
C479 C476 1.539 . S
C479 H493 0.958 . S
C479 H494 0.961 . S
C479 H495 0.960 . S
H480 C464 0.931 . S
H481 C469 0.929 . S
H482 C470 0.960 . S
H483 C470 0.962 . S
H484 C470 0.960 . S
H485 C471 0.961 . S
H486 C471 0.961 . S
H487 C471 0.961 1_565 S
H488 C472 0.931 . S
H489 C477 0.930 1_565 S
H490 C478 0.956 . S
H491 C478 0.961 . S
H492 C478 0.961 . S
H493 C479 0.958 . S
H494 C479 0.961 . S
H495 C479 0.960 . S
C496 C497 1.391 . S
C496 C498 1.394 . S
C496 H512 0.931 . S
C497 C496 1.391 . S
C497 C501 1.376 1_554 S
C498 C496 1.394 . S
C498 C499 1.369 . S
C498 C502 1.531 . S
C499 C498 1.369 . S
C499 C500 1.410 1_554 S
C499 C507 1.503 1_565 S
C500 C499 1.410 1_556 S
C500 C501 1.392 . S
C500 C503 1.511 . S
C501 C497 1.376 1_556 S
C501 C500 1.392 . S
C501 H513 0.929 . S
C502 C498 1.531 . S
C502 H514 0.960 . S
C502 H515 0.962 . S
C502 H516 0.960 . S
C503 C500 1.511 . S
C503 H517 0.961 . S
C503 H518 0.961 1_565 S
C503 H519 0.961 . S
C504 C505 1.370 . S
C504 C506 1.363 . S
C504 H520 0.931 . S
C505 C504 1.370 . S
C505 C509 1.408 . S
C506 C504 1.363 . S
C506 C507 1.370 . S
C506 C510 1.524 . S
C507 C499 1.503 1_545 S
C507 C506 1.370 . S
C507 C508 1.403 . S
C508 C507 1.403 . S
C508 C509 1.404 . S
C508 C511 1.539 1_544 S
C509 C505 1.408 . S
C509 C508 1.404 . S
C509 H521 0.930 1_554 S
C510 C506 1.524 . S
C510 H522 0.956 . S
C510 H523 0.961 . S
C510 H524 0.961 . S
C511 C508 1.539 1_566 S
C511 H525 0.958 1_556 S
C511 H526 0.961 . S
C511 H527 0.960 . S
H512 C496 0.931 . S
H513 C501 0.929 . S
H514 C502 0.960 . S
H515 C502 0.962 . S
H516 C502 0.960 . S
H517 C503 0.961 . S
H518 C503 0.961 1_545 S
H519 C503 0.961 . S
H520 C504 0.931 . S
H521 C509 0.930 1_556 S
H522 C510 0.956 . S
H523 C510 0.961 . S
H524 C510 0.961 . S
H525 C511 0.958 1_554 S
H526 C511 0.961 . S
H527 C511 0.960 . S
C528 C529 1.391 . S
C528 C530 1.394 . S
C528 H544 0.931 . S
C529 C528 1.391 . S
C529 C533 1.376 . S
C530 C528 1.394 . S
C530 C531 1.369 . S
C530 C534 1.531 . S
C531 C530 1.369 . S
C531 C532 1.410 . S
C531 C539 1.503 1_565 S
C532 C531 1.410 . S
C532 C533 1.392 . S
C532 C535 1.511 1_565 S
C533 C529 1.376 . S
C533 C532 1.392 . S
C533 H545 0.929 . S
C534 C530 1.531 . S
C534 H546 0.960 . S
C534 H547 0.962 . S
C534 H548 0.960 . S
C535 C532 1.511 1_545 S
C535 H549 0.961 . S
C535 H550 0.961 . S
C535 H551 0.961 . S
C536 C537 1.370 . S
C536 C538 1.363 . S
C536 H552 0.931 . S
C537 C536 1.370 . S
C537 C541 1.408 . S
C538 C536 1.363 . S
C538 C539 1.370 . S
C538 C542 1.524 1_545 S
C539 C531 1.503 1_545 S
C539 C538 1.370 . S
C539 C540 1.403 . S
C540 C539 1.403 . S
C540 C541 1.404 . S
C540 C543 1.539 . S
C541 C537 1.408 . S
C541 C540 1.404 . S
C541 H553 0.930 . S
C542 C538 1.524 1_565 S
C542 H554 0.956 . S
C542 H555 0.961 . S
C542 H556 0.961 . S
C543 C540 1.539 . S
C543 H557 0.958 . S
C543 H558 0.961 . S
C543 H559 0.960 . S
H544 C528 0.931 . S
H545 C533 0.929 . S
H546 C534 0.960 . S
H547 C534 0.962 . S
H548 C534 0.960 . S
H549 C535 0.961 . S
H550 C535 0.961 . S
H551 C535 0.961 . S
H552 C536 0.931 . S
H553 C541 0.930 . S
H554 C542 0.956 . S
H555 C542 0.961 . S
H556 C542 0.961 . S
H557 C543 0.958 . S
H558 C543 0.961 . S
H559 C543 0.960 . S
C560 C561 1.391 1_556 S
C560 C562 1.394 . S
C560 H576 0.931 . S
C561 C560 1.391 1_554 S
C561 C565 1.376 . S
C562 C560 1.394 . S
C562 C563 1.369 1_556 S
C562 C566 1.531 . S
C563 C562 1.369 1_554 S
C563 C564 1.410 . S
C563 C571 1.503 1_455 S
C564 C563 1.410 . S
C564 C565 1.392 . S
C564 C567 1.511 . S
C565 C561 1.376 . S
C565 C564 1.392 . S
C565 H577 0.929 . S
C566 C562 1.531 . S
C566 H578 0.960 . S
C566 H579 0.962 1_455 S
C566 H580 0.960 . S
C567 C564 1.511 . S
C567 H581 0.961 . S
C567 H582 0.961 . S
C567 H583 0.961 . S
C568 C569 1.370 . S
C568 C570 1.363 . S
C568 H584 0.931 . S
C569 C568 1.370 . S
C569 C573 1.408 . S
C570 C568 1.363 . S
C570 C571 1.370 . S
C570 C574 1.524 . S
C571 C563 1.503 1_655 S
C571 C570 1.370 . S
C571 C572 1.403 1_655 S
C572 C571 1.403 1_455 S
C572 C573 1.404 1_455 S
C572 C575 1.539 1_554 S
C573 C569 1.408 . S
C573 C572 1.404 1_655 S
C573 H585 0.930 1_554 S
C574 C570 1.524 . S
C574 H586 0.956 . S
C574 H587 0.961 . S
C574 H588 0.961 . S
C575 C572 1.539 1_556 S
C575 H589 0.958 . S
C575 H590 0.961 1_556 S
C575 H591 0.960 1_556 S
H576 C560 0.931 . S
H577 C565 0.929 . S
H578 C566 0.960 . S
H579 C566 0.962 1_655 S
H580 C566 0.960 . S
H581 C567 0.961 . S
H582 C567 0.961 . S
H583 C567 0.961 . S
H584 C568 0.931 . S
H585 C573 0.930 1_556 S
H586 C574 0.956 . S
H587 C574 0.961 . S
H588 C574 0.961 . S
H589 C575 0.958 . S
H590 C575 0.961 1_554 S
H591 C575 0.960 1_554 S
C592 C593 1.391 . S
C592 C594 1.394 . S
C592 H608 0.931 . S
C593 C592 1.391 . S
C593 C597 1.376 . S
C594 C592 1.394 . S
C594 C595 1.369 . S
C594 C598 1.531 1_455 S
C595 C594 1.369 . S
C595 C596 1.410 . S
C595 C603 1.503 1_455 S
C596 C595 1.410 . S
C596 C597 1.392 . S
C596 C599 1.511 . S
C597 C593 1.376 . S
C597 C596 1.392 . S
C597 H609 0.929 . S
C598 C594 1.531 1_655 S
C598 H610 0.960 . S
C598 H611 0.962 . S
C598 H612 0.960 . S
C599 C596 1.511 . S
C599 H613 0.961 . S
C599 H614 0.961 . S
C599 H615 0.961 . S
C600 C601 1.370 . S
C600 C602 1.363 . S
C600 H616 0.931 . S
C601 C600 1.370 . S
C601 C605 1.408 . S
C602 C600 1.363 . S
C602 C603 1.370 . S
C602 C606 1.524 . S
C603 C595 1.503 1_655 S
C603 C602 1.370 . S
C603 C604 1.403 1_655 S
C604 C603 1.403 1_455 S
C604 C605 1.404 1_455 S
C604 C607 1.539 . S
C605 C601 1.408 . S
C605 C604 1.404 1_655 S
C605 H617 0.930 . S
C606 C602 1.524 . S
C606 H618 0.956 . S
C606 H619 0.961 . S
C606 H620 0.961 . S
C607 C604 1.539 . S
C607 H621 0.958 . S
C607 H622 0.961 . S
C607 H623 0.960 . S
H608 C592 0.931 . S
H609 C597 0.929 . S
H610 C598 0.960 . S
H611 C598 0.962 . S
H612 C598 0.960 . S
H613 C599 0.961 . S
H614 C599 0.961 . S
H615 C599 0.961 . S
H616 C600 0.931 . S
H617 C605 0.930 . S
H618 C606 0.956 . S
H619 C606 0.961 . S
H620 C606 0.961 . S
H621 C607 0.958 . S
H622 C607 0.961 . S
H623 C607 0.960 . S
C113 C78 1.450 . S
C121 C8 1.448 . S
C145 C64 1.481 . S
C153 C22 1.461 . S
C177 C106 1.437 . S
C185 C36 1.452 . S
C209 C92 1.485 . S
C217 C50 1.456 . S
C241 C7 1.394 . S
C249 C35 1.392 . S
C273 C21 1.387 . S
C281 C49 1.394 . S
C305 C27 1.372 . S
C313 C55 1.329 . S
C337 C13 1.330 . S
C345 C41 1.310 . S
C369 C63 1.392 . S
C377 C91 1.403 . S
C401 C105 1.386 . S
C409 C77 1.402 . S
C433 C111 1.281 . S
C441 C83 1.333 . S
C465 C69 1.370 . S
C473 C97 1.324 . S
C497 C25 1.507 . S
C505 C11 1.508 . S
C529 C39 1.510 . S
C537 C53 1.510 . S
C561 C67 1.504 . S
C569 C81 1.508 . S
C593 C95 1.507 . S
C601 C109 1.509 . S
