# Generated by pormake.
# Topology yfs, (5)-cn, num edge types: 1
# Building blocks:
#     Node 0, Type 0, BuildingBlock: BEQFEK_clean_sbu_0, # of connection points: 5
#     Node 1, Type 0, BuildingBlock: BEQFEK_clean_sbu_0, # of connection points: 5
#     Node 2, Type 0, BuildingBlock: BEQFEK_clean_sbu_0, # of connection points: 5
#     Node 3, Type 0, BuildingBlock: BEQFEK_clean_sbu_0, # of connection points: 5
#     Node 4, Type 0, BuildingBlock: BEQFEK_clean_sbu_0, # of connection points: 5
#     Node 5, Type 0, BuildingBlock: BEQFEK_clean_sbu_0, # of connection points: 5
#     Node 6, Type 0, BuildingBlock: BEQFEK_clean_sbu_0, # of connection points: 5
#     Node 7, Type 0, BuildingBlock: BEQFEK_clean_sbu_0, # of connection points: 5
#     Node 8, Type 0, BuildingBlock: BEQFEK_clean_sbu_0, # of connection points: 5
#     Node 9, Type 0, BuildingBlock: BEQFEK_clean_sbu_0, # of connection points: 5
#     Node 10, Type 0, BuildingBlock: BEQFEK_clean_sbu_0, # of connection points: 5
#     Node 11, Type 0, BuildingBlock: BEQFEK_clean_sbu_0, # of connection points: 5
#     Node 12, Type 0, BuildingBlock: BEQFEK_clean_sbu_0, # of connection points: 5
#     Node 13, Type 0, BuildingBlock: BEQFEK_clean_sbu_0, # of connection points: 5
#     Node 14, Type 0, BuildingBlock: BEQFEK_clean_sbu_0, # of connection points: 5
#     Node 15, Type 0, BuildingBlock: BEQFEK_clean_sbu_0, # of connection points: 5
#     Node 16, Type 0, BuildingBlock: BEQFEK_clean_sbu_0, # of connection points: 5
#     Node 17, Type 0, BuildingBlock: BEQFEK_clean_sbu_0, # of connection points: 5
#     Node 18, Type 0, BuildingBlock: BEQFEK_clean_sbu_0, # of connection points: 5
#     Node 19, Type 0, BuildingBlock: BEQFEK_clean_sbu_0, # of connection points: 5
#     Node 20, Type 0, BuildingBlock: BEQFEK_clean_sbu_0, # of connection points: 5
#     Node 21, Type 0, BuildingBlock: BEQFEK_clean_sbu_0, # of connection points: 5
#     Node 22, Type 0, BuildingBlock: BEQFEK_clean_sbu_0, # of connection points: 5
#     Node 23, Type 0, BuildingBlock: BEQFEK_clean_sbu_0, # of connection points: 5
#     Node 24, Type 0, BuildingBlock: BEQFEK_clean_sbu_0, # of connection points: 5
#     Node 25, Type 0, BuildingBlock: BEQFEK_clean_sbu_0, # of connection points: 5
#     Node 26, Type 0, BuildingBlock: BEQFEK_clean_sbu_0, # of connection points: 5
#     Node 27, Type 0, BuildingBlock: BEQFEK_clean_sbu_0, # of connection points: 5
#     Node 28, Type 0, BuildingBlock: BEQFEK_clean_sbu_0, # of connection points: 5
#     Node 29, Type 0, BuildingBlock: BEQFEK_clean_sbu_0, # of connection points: 5
#     Node 30, Type 0, BuildingBlock: BEQFEK_clean_sbu_0, # of connection points: 5
#     Node 31, Type 0, BuildingBlock: BEQFEK_clean_sbu_0, # of connection points: 5
#     Edge 32, Type (0, 0), BuildingBlock: XIVTED_clean_linker_0, # of connection points: 2
#     Edge 33, Type (0, 0), BuildingBlock: XIVTED_clean_linker_0, # of connection points: 2
#     Edge 34, Type (0, 0), BuildingBlock: XIVTED_clean_linker_0, # of connection points: 2
#     Edge 35, Type (0, 0), BuildingBlock: XIVTED_clean_linker_0, # of connection points: 2
#     Edge 36, Type (0, 0), BuildingBlock: XIVTED_clean_linker_0, # of connection points: 2
#     Edge 37, Type (0, 0), BuildingBlock: XIVTED_clean_linker_0, # of connection points: 2
#     Edge 38, Type (0, 0), BuildingBlock: XIVTED_clean_linker_0, # of connection points: 2
#     Edge 39, Type (0, 0), BuildingBlock: XIVTED_clean_linker_0, # of connection points: 2
#     Edge 40, Type (0, 0), BuildingBlock: XIVTED_clean_linker_0, # of connection points: 2
#     Edge 41, Type (0, 0), BuildingBlock: XIVTED_clean_linker_0, # of connection points: 2
#     Edge 42, Type (0, 0), BuildingBlock: XIVTED_clean_linker_0, # of connection points: 2
#     Edge 43, Type (0, 0), BuildingBlock: XIVTED_clean_linker_0, # of connection points: 2
#     Edge 44, Type (0, 0), BuildingBlock: XIVTED_clean_linker_0, # of connection points: 2
#     Edge 45, Type (0, 0), BuildingBlock: XIVTED_clean_linker_0, # of connection points: 2
#     Edge 46, Type (0, 0), BuildingBlock: XIVTED_clean_linker_0, # of connection points: 2
#     Edge 47, Type (0, 0), BuildingBlock: XIVTED_clean_linker_0, # of connection points: 2
#     Edge 48, Type (0, 0), BuildingBlock: XIVTED_clean_linker_0, # of connection points: 2
#     Edge 49, Type (0, 0), BuildingBlock: XIVTED_clean_linker_0, # of connection points: 2
#     Edge 50, Type (0, 0), BuildingBlock: XIVTED_clean_linker_0, # of connection points: 2
#     Edge 51, Type (0, 0), BuildingBlock: XIVTED_clean_linker_0, # of connection points: 2
#     Edge 52, Type (0, 0), BuildingBlock: XIVTED_clean_linker_0, # of connection points: 2
#     Edge 53, Type (0, 0), BuildingBlock: XIVTED_clean_linker_0, # of connection points: 2
#     Edge 54, Type (0, 0), BuildingBlock: XIVTED_clean_linker_0, # of connection points: 2
#     Edge 55, Type (0, 0), BuildingBlock: XIVTED_clean_linker_0, # of connection points: 2
#     Edge 56, Type (0, 0), BuildingBlock: XIVTED_clean_linker_0, # of connection points: 2
#     Edge 57, Type (0, 0), BuildingBlock: XIVTED_clean_linker_0, # of connection points: 2
#     Edge 58, Type (0, 0), BuildingBlock: XIVTED_clean_linker_0, # of connection points: 2
#     Edge 59, Type (0, 0), BuildingBlock: XIVTED_clean_linker_0, # of connection points: 2
#     Edge 60, Type (0, 0), BuildingBlock: XIVTED_clean_linker_0, # of connection points: 2
#     Edge 61, Type (0, 0), BuildingBlock: XIVTED_clean_linker_0, # of connection points: 2
#     Edge 62, Type (0, 0), BuildingBlock: XIVTED_clean_linker_0, # of connection points: 2
#     Edge 63, Type (0, 0), BuildingBlock: XIVTED_clean_linker_0, # of connection points: 2
#     Edge 64, Type (0, 0), BuildingBlock: XIVTED_clean_linker_0, # of connection points: 2
#     Edge 65, Type (0, 0), BuildingBlock: XIVTED_clean_linker_0, # of connection points: 2
#     Edge 66, Type (0, 0), BuildingBlock: XIVTED_clean_linker_0, # of connection points: 2
#     Edge 67, Type (0, 0), BuildingBlock: XIVTED_clean_linker_0, # of connection points: 2
#     Edge 68, Type (0, 0), BuildingBlock: XIVTED_clean_linker_0, # of connection points: 2
#     Edge 69, Type (0, 0), BuildingBlock: XIVTED_clean_linker_0, # of connection points: 2
#     Edge 70, Type (0, 0), BuildingBlock: XIVTED_clean_linker_0, # of connection points: 2
#     Edge 71, Type (0, 0), BuildingBlock: XIVTED_clean_linker_0, # of connection points: 2
#     Edge 72, Type (0, 0), BuildingBlock: XIVTED_clean_linker_0, # of connection points: 2
#     Edge 73, Type (0, 0), BuildingBlock: XIVTED_clean_linker_0, # of connection points: 2
#     Edge 74, Type (0, 0), BuildingBlock: XIVTED_clean_linker_0, # of connection points: 2
#     Edge 75, Type (0, 0), BuildingBlock: XIVTED_clean_linker_0, # of connection points: 2
#     Edge 76, Type (0, 0), BuildingBlock: XIVTED_clean_linker_0, # of connection points: 2
#     Edge 77, Type (0, 0), BuildingBlock: XIVTED_clean_linker_0, # of connection points: 2
#     Edge 78, Type (0, 0), BuildingBlock: XIVTED_clean_linker_0, # of connection points: 2
#     Edge 79, Type (0, 0), BuildingBlock: XIVTED_clean_linker_0, # of connection points: 2
#     Edge 80, Type (0, 0), BuildingBlock: XIVTED_clean_linker_0, # of connection points: 2
#     Edge 81, Type (0, 0), BuildingBlock: XIVTED_clean_linker_0, # of connection points: 2
#     Edge 82, Type (0, 0), BuildingBlock: XIVTED_clean_linker_0, # of connection points: 2
#     Edge 83, Type (0, 0), BuildingBlock: XIVTED_clean_linker_0, # of connection points: 2
#     Edge 84, Type (0, 0), BuildingBlock: XIVTED_clean_linker_0, # of connection points: 2
#     Edge 85, Type (0, 0), BuildingBlock: XIVTED_clean_linker_0, # of connection points: 2
#     Edge 86, Type (0, 0), BuildingBlock: XIVTED_clean_linker_0, # of connection points: 2
#     Edge 87, Type (0, 0), BuildingBlock: XIVTED_clean_linker_0, # of connection points: 2
#     Edge 88, Type (0, 0), BuildingBlock: XIVTED_clean_linker_0, # of connection points: 2
#     Edge 89, Type (0, 0), BuildingBlock: XIVTED_clean_linker_0, # of connection points: 2
#     Edge 90, Type (0, 0), BuildingBlock: XIVTED_clean_linker_0, # of connection points: 2
#     Edge 91, Type (0, 0), BuildingBlock: XIVTED_clean_linker_0, # of connection points: 2
#     Edge 92, Type (0, 0), BuildingBlock: XIVTED_clean_linker_0, # of connection points: 2
#     Edge 93, Type (0, 0), BuildingBlock: XIVTED_clean_linker_0, # of connection points: 2
#     Edge 94, Type (0, 0), BuildingBlock: XIVTED_clean_linker_0, # of connection points: 2
#     Edge 95, Type (0, 0), BuildingBlock: XIVTED_clean_linker_0, # of connection points: 2
#     Edge 96, Type (0, 0), BuildingBlock: XIVTED_clean_linker_0, # of connection points: 2
#     Edge 97, Type (0, 0), BuildingBlock: XIVTED_clean_linker_0, # of connection points: 2
#     Edge 98, Type (0, 0), BuildingBlock: XIVTED_clean_linker_0, # of connection points: 2
#     Edge 99, Type (0, 0), BuildingBlock: XIVTED_clean_linker_0, # of connection points: 2
#     Edge 100, Type (0, 0), BuildingBlock: XIVTED_clean_linker_0, # of connection points: 2
#     Edge 101, Type (0, 0), BuildingBlock: XIVTED_clean_linker_0, # of connection points: 2
#     Edge 102, Type (0, 0), BuildingBlock: XIVTED_clean_linker_0, # of connection points: 2
#     Edge 103, Type (0, 0), BuildingBlock: XIVTED_clean_linker_0, # of connection points: 2
#     Edge 104, Type (0, 0), BuildingBlock: XIVTED_clean_linker_0, # of connection points: 2
#     Edge 105, Type (0, 0), BuildingBlock: XIVTED_clean_linker_0, # of connection points: 2
#     Edge 106, Type (0, 0), BuildingBlock: XIVTED_clean_linker_0, # of connection points: 2
#     Edge 107, Type (0, 0), BuildingBlock: XIVTED_clean_linker_0, # of connection points: 2
#     Edge 108, Type (0, 0), BuildingBlock: XIVTED_clean_linker_0, # of connection points: 2
#     Edge 109, Type (0, 0), BuildingBlock: XIVTED_clean_linker_0, # of connection points: 2
#     Edge 110, Type (0, 0), BuildingBlock: XIVTED_clean_linker_0, # of connection points: 2
#     Edge 111, Type (0, 0), BuildingBlock: XIVTED_clean_linker_0, # of connection points: 2
# Relax obj value: 0.319
# Max RMSD: 0.166
# Mean RMSD: 0.166
data_MOF--net-yfs--node1-BEQFEK_clean_sbu_0--edge1-XIVTED_clean_linker_0
_symmetry_space_group_name_H-M    P1
_symmetry_Int_Tables_number       1
_symmetry_cell_setting            triclinic
loop_
_symmetry_equiv_pos_as_xyz
'x, y, z'
_cell_length_a     49.744798
_cell_length_b     49.761842
_cell_length_c     85.366022
_cell_angle_alpha  90.006063
_cell_angle_beta   90.016619
_cell_angle_gamma 89.995184
loop_
_atom_site_label
_atom_site_type_symbol
_atom_site_fract_x
_atom_site_fract_y
_atom_site_fract_z
_atom_type_partial_charge
Co0 Co 0.40813 0.12621 0.17645 0.0
Co1 Co 0.3727 0.15342 0.20236 0.0
C2 C 0.36038 0.15925 0.16791 0.0
O3 O 0.37927 0.14342 0.16374 0.0
O4 O 0.35606 0.16446 0.18231 0.0
C5 C 0.42978 0.09669 0.14951 0.0
O6 O 0.40587 0.09874 0.14309 0.0
C7 C 0.32609 0.17306 0.21992 0.0
C8 C 0.34522 0.18469 0.24231 0.0
C9 C 0.32113 0.18537 0.23421 0.0
N10 N 0.352 0.16556 0.21961 0.0
N11 N 0.36319 0.1721 0.23313 0.0
C12 C 0.30786 0.17178 0.206 0.0
H13 H 0.30966 0.1908 0.19931 0.0
H14 H 0.31363 0.15477 0.19831 0.0
H15 H 0.28659 0.16937 0.20952 0.0
C16 C 0.39984 0.07943 0.19738 0.0
N17 N 0.39456 0.10487 0.19297 0.0
N18 N 0.37873 0.11612 0.20342 0.0
C19 C 0.37283 0.09808 0.21461 0.0
C20 C 0.38631 0.07434 0.21132 0.0
C21 C 0.42005 0.06189 0.18936 0.0
H22 H 0.43878 0.07346 0.18733 0.0
H23 H 0.41204 0.05578 0.17776 0.0
H24 H 0.42493 0.04372 0.19631 0.0
O25 O 0.43031 0.1556 0.18473 0.0
O26 O 0.40668 0.17323 0.20416 0.0
H27 H 0.36582 0.1157 0.23707 0.0
H28 H 0.34774 0.08472 0.23381 0.0
C29 C 0.35476 0.10362 0.22826 0.0
H30 H 0.337 0.11525 0.22432 0.0
H31 H 0.38348 0.16921 0.23575 0.0
O32 O 0.43359 0.10586 0.1632 0.0
C33 C 0.42773 0.17249 0.19578 0.0
Co34 Co 0.11798 0.15807 0.42477 0.0
Co35 Co 0.08715 0.12717 0.45104 0.0
C36 C 0.078 0.11631 0.41656 0.0
O37 O 0.0962 0.13262 0.41202 0.0
O38 O 0.07293 0.11299 0.43105 0.0
C39 C 0.1473 0.17701 0.39734 0.0
O40 O 0.14132 0.15384 0.39083 0.0
C41 C 0.06418 0.08134 0.46713 0.0
C42 C 0.05138 0.09916 0.48965 0.0
C43 C 0.05046 0.07575 0.48088 0.0
N44 N 0.07237 0.10697 0.46765 0.0
N45 N 0.06491 0.11749 0.48118 0.0
C46 C 0.07013 0.06272 0.45381 0.0
H47 H 0.0893 0.06855 0.44809 0.0
H48 H 0.07139 0.04162 0.45796 0.0
H49 H 0.05385 0.06422 0.44499 0.0
C50 C 0.1643 0.14062 0.44419 0.0
N51 N 0.13799 0.14033 0.44054 0.0
N52 N 0.12488 0.12706 0.45145 0.0
C53 C 0.14229 0.1184 0.46238 0.0
C54 C 0.1679 0.12672 0.45815 0.0
C55 C 0.18516 0.15539 0.43498 0.0
H56 H 0.1827 0.1508 0.42234 0.0
H57 H 0.20577 0.14986 0.43877 0.0
H58 H 0.1822 0.17733 0.43655 0.0
O59 O 0.09272 0.18428 0.43403 0.0
O60 O 0.07317 0.16346 0.45388 0.0
H61 H 0.15094 0.1019 0.48549 0.0
H62 H 0.12284 0.08708 0.47525 0.0
C63 C 0.13377 0.10608 0.4776 0.0
H64 H 0.11982 0.11998 0.48367 0.0
H65 H 0.06824 0.13745 0.48439 0.0
O66 O 0.1408 0.1812 0.4115 0.0
C67 C 0.07661 0.18429 0.44558 0.0
Co68 Co 0.07352 0.85896 0.67761 0.0
Co69 Co 0.11498 0.83611 0.70183 0.0
C70 C 0.11992 0.82402 0.66766 0.0
O71 O 0.09931 0.83819 0.66427 0.0
O72 O 0.12824 0.82187 0.68171 0.0
C73 C 0.05028 0.88734 0.65092 0.0
O74 O 0.07463 0.88753 0.64495 0.0
C75 C 0.16319 0.81662 0.71802 0.0
C76 C 0.14757 0.81243 0.74216 0.0
C77 C 0.16976 0.80732 0.73286 0.0
N78 N 0.13818 0.82671 0.71858 0.0
N79 N 0.12915 0.82458 0.73308 0.0
C80 C 0.17835 0.81217 0.70311 0.0
H81 H 0.17157 0.793 0.6978 0.0
H82 H 0.1742 0.82876 0.69478 0.0
H83 H 0.20028 0.81085 0.70512 0.0
C84 C 0.08807 0.90961 0.69385 0.0
N85 N 0.09142 0.88319 0.6911 0.0
N86 N 0.10935 0.87362 0.70096 0.0
C87 C 0.11844 0.89373 0.71007 0.0
C88 C 0.10513 0.91718 0.70594 0.0
C89 C 0.06794 0.92682 0.68554 0.0
H90 H 0.07205 0.92628 0.67278 0.0
H91 H 0.06869 0.94797 0.68964 0.0
H92 H 0.04749 0.91853 0.68745 0.0
O93 O 0.05206 0.83303 0.68983 0.0
O94 O 0.08176 0.81661 0.7066 0.0
H95 H 0.12604 0.87909 0.73315 0.0
H96 H 0.14455 0.90898 0.72848 0.0
C97 C 0.13699 0.88974 0.7237 0.0
H98 H 0.15435 0.87723 0.72007 0.0
H99 H 0.10979 0.82999 0.73657 0.0
O100 O 0.04651 0.8773 0.66441 0.0
C101 C 0.05818 0.81723 0.70096 0.0
Co102 Co 0.36976 0.82913 0.92527 0.0
Co103 Co 0.39881 0.86571 0.94979 0.0
C104 C 0.40404 0.87515 0.91509 0.0
O105 O 0.38771 0.85626 0.91169 0.0
O106 O 0.40984 0.88068 0.92927 0.0
C107 C 0.34109 0.80642 0.89863 0.0
O108 O 0.34404 0.82996 0.89187 0.0
C109 C 0.42195 0.91217 0.9657 0.0
C110 C 0.4311 0.89512 0.98902 0.0
C111 C 0.43427 0.91792 0.9799 0.0
N112 N 0.41245 0.88699 0.96633 0.0
N113 N 0.41771 0.87698 0.98033 0.0
C114 C 0.41855 0.93031 0.95188 0.0
H115 H 0.39964 0.92539 0.9456 0.0
H116 H 0.41821 0.95169 0.95558 0.0
H117 H 0.43558 0.92725 0.94371 0.0
C118 C 0.3239 0.84053 0.94637 0.0
N119 N 0.34926 0.84484 0.9415 0.0
N120 N 0.36132 0.86119 0.95136 0.0
C121 C 0.34387 0.86841 0.96261 0.0
C122 C 0.31969 0.85526 0.96 0.0
C123 C 0.30566 0.82001 0.93919 0.0
H124 H 0.31688 0.80099 0.93741 0.0
H125 H 0.29903 0.82724 0.92752 0.0
H126 H 0.2878 0.81593 0.94658 0.0
O127 O 0.39822 0.80639 0.93403 0.0
O128 O 0.41728 0.83119 0.95247 0.0
H129 H 0.36204 0.87611 0.98485 0.0
H130 H 0.33192 0.89536 0.98123 0.0
C131 C 0.35044 0.88712 0.9758 0.0
H132 H 0.36288 0.90401 0.97143 0.0
H133 H 0.41302 0.8574 0.98376 0.0
O134 O 0.34882 0.80331 0.91267 0.0
C135 C 0.41538 0.80934 0.94491 0.0
Co136 Co 0.4092 0.8613 0.31601 0.0
Co137 Co 0.37359 0.83499 0.28986 0.0
C138 C 0.36099 0.82866 0.32423 0.0
O139 O 0.38 0.84425 0.32856 0.0
O140 O 0.35669 0.8238 0.30978 0.0
C141 C 0.43118 0.89252 0.34245 0.0
O142 O 0.40698 0.89286 0.3486 0.0
C143 C 0.32737 0.81553 0.27184 0.0
C144 C 0.34678 0.80578 0.24923 0.0
C145 C 0.32268 0.80415 0.25726 0.0
N146 N 0.35314 0.82347 0.27237 0.0
N147 N 0.36449 0.81804 0.25874 0.0
C148 C 0.30914 0.81545 0.28578 0.0
H149 H 0.31405 0.83255 0.29361 0.0
H150 H 0.28774 0.81676 0.28234 0.0
H151 H 0.31208 0.79642 0.29232 0.0
C152 C 0.40146 0.9086 0.29531 0.0
N153 N 0.39604 0.88309 0.29954 0.0
N154 N 0.38005 0.8722 0.28905 0.0
C155 C 0.37414 0.89055 0.27803 0.0
C156 C 0.38783 0.9141 0.28145 0.0
C157 C 0.42171 0.92593 0.30345 0.0
H158 H 0.44037 0.91425 0.30549 0.0
H159 H 0.41365 0.93197 0.31505 0.0
H160 H 0.42669 0.94416 0.29658 0.0
O161 O 0.43099 0.83155 0.30775 0.0
O162 O 0.40725 0.81469 0.28812 0.0
H163 H 0.36652 0.87396 0.25537 0.0
H164 H 0.34848 0.90471 0.25929 0.0
C165 C 0.35568 0.88557 0.26448 0.0
H166 H 0.33805 0.87373 0.2684 0.0
H167 H 0.38473 0.82147 0.25622 0.0
O168 O 0.43491 0.88124 0.3293 0.0
C169 C 0.42817 0.81483 0.29662 0.0
Co170 Co 0.37567 0.16151 0.56335 0.0
Co171 Co 0.39929 0.12055 0.53915 0.0
C172 C 0.41212 0.11631 0.57321 0.0
O173 O 0.39741 0.13651 0.57663 0.0
O174 O 0.41437 0.10803 0.55917 0.0
C175 C 0.34714 0.18352 0.59024 0.0
O176 O 0.34748 0.15899 0.59593 0.0
C177 C 0.41864 0.07198 0.52337 0.0
C178 C 0.42485 0.0875 0.49936 0.0
C179 C 0.42881 0.06521 0.50877 0.0
N180 N 0.40921 0.09722 0.52259 0.0
N181 N 0.4125 0.10619 0.50815 0.0
C182 C 0.4215 0.05659 0.53833 0.0
H183 H 0.4411 0.06167 0.54377 0.0
H184 H 0.40514 0.06209 0.54655 0.0
H185 H 0.42099 0.03463 0.53628 0.0
C186 C 0.32527 0.14552 0.5473 0.0
N187 N 0.35172 0.14266 0.55012 0.0
N188 N 0.36169 0.12493 0.54028 0.0
C189 C 0.34186 0.11553 0.53108 0.0
C190 C 0.31812 0.12839 0.53515 0.0
C191 C 0.30774 0.16566 0.55536 0.0
H192 H 0.31573 0.18616 0.55321 0.0
H193 H 0.30832 0.16201 0.56816 0.0
H194 H 0.28661 0.16445 0.55125 0.0
O195 O 0.40052 0.18372 0.55078 0.0
O196 O 0.41727 0.15437 0.53392 0.0
H197 H 0.35771 0.1089 0.50817 0.0
H198 H 0.3275 0.09028 0.512 0.0
C199 C 0.3465 0.09759 0.51724 0.0
H200 H 0.35877 0.08005 0.52085 0.0
H201 H 0.40775 0.12566 0.50454 0.0
O202 O 0.35686 0.18789 0.57673 0.0
C203 C 0.41604 0.17801 0.53944 0.0
Co204 Co 0.07697 0.12139 0.81486 0.0
Co205 Co 0.11013 0.15162 0.78921 0.0
C206 C 0.12164 0.1578 0.82382 0.0
O207 O 0.10402 0.14051 0.82782 0.0
O208 O 0.12557 0.16367 0.80947 0.0
C209 C 0.05558 0.09599 0.84258 0.0
O210 O 0.07827 0.10333 0.84919 0.0
C211 C 0.15694 0.17302 0.77309 0.0
C212 C 0.13944 0.18642 0.7506 0.0
C213 C 0.16297 0.18639 0.75928 0.0
N214 N 0.13098 0.16586 0.77267 0.0
N215 N 0.12063 0.17374 0.75917 0.0
C216 C 0.17542 0.16648 0.78638 0.0
H217 H 0.16904 0.14748 0.79209 0.0
H218 H 0.19648 0.16459 0.78222 0.0
H219 H 0.17441 0.18278 0.79522 0.0
C220 C 0.09101 0.07515 0.79451 0.0
N221 N 0.09304 0.10117 0.7986 0.0
N222 N 0.10723 0.11394 0.78794 0.0
C223 C 0.11472 0.09653 0.77671 0.0
C224 C 0.10466 0.07132 0.78049 0.0
C225 C 0.07527 0.05477 0.80355 0.0
H226 H 0.05349 0.05839 0.80167 0.0
H227 H 0.07943 0.05708 0.81624 0.0
H228 H 0.0803 0.03401 0.7998 0.0
O229 O 0.0527 0.14912 0.80632 0.0
O230 O 0.07492 0.16853 0.78692 0.0
H231 H 0.11496 0.11983 0.75572 0.0
H232 H 0.13124 0.08785 0.75361 0.0
C233 C 0.1279 0.1049 0.76171 0.0
H234 H 0.14744 0.11463 0.76435 0.0
H235 H 0.10052 0.1712 0.75602 0.0
O236 O 0.05243 0.09969 0.82798 0.0
C237 C 0.05393 0.16606 0.79521 0.0
Co238 Co 0.1089 0.82167 0.0645 0.0
Co239 Co 0.08319 0.86219 0.04081 0.0
C240 C 0.07404 0.86796 0.07509 0.0
O241 O 0.08863 0.84751 0.07818 0.0
O242 O 0.07066 0.87598 0.06107 0.0
C243 C 0.14 0.80031 0.09073 0.0
O244 O 0.14082 0.82504 0.0961 0.0
C245 C 0.06184 0.9098 0.02519 0.0
C246 C 0.0552 0.89443 0.00121 0.0
C247 C 0.0509 0.91649 0.01077 0.0
N248 N 0.0716 0.88474 0.02428 0.0
N249 N 0.06789 0.87576 0.00987 0.0
C250 C 0.06354 0.92693 0.03955 0.0
H251 H 0.08184 0.9218 0.04636 0.0
H252 H 0.0639 0.94857 0.0364 0.0
H253 H 0.04573 0.92307 0.04701 0.0
C254 C 0.15727 0.83526 0.04571 0.0
N255 N 0.13151 0.83935 0.04996 0.0
N256 N 0.1207 0.85723 0.04052 0.0
C257 C 0.13934 0.86574 0.03029 0.0
C258 C 0.16301 0.85178 0.033 0.0
C259 C 0.17451 0.81342 0.05238 0.0
H260 H 0.16258 0.79468 0.05347 0.0
H261 H 0.18108 0.81935 0.06432 0.0
H262 H 0.19246 0.80949 0.04504 0.0
O263 O 0.08272 0.79917 0.05318 0.0
O264 O 0.06428 0.82831 0.0368 0.0
H265 H 0.12361 0.87679 0.0079 0.0
H266 H 0.15349 0.89499 0.01348 0.0
C267 C 0.13434 0.88633 0.01784 0.0
H268 H 0.12163 0.90274 0.02256 0.0
H269 H 0.07305 0.85646 0.00615 0.0
O270 O 0.12874 0.79568 0.07766 0.0
C271 C 0.066 0.80477 0.04241 0.0
Co272 Co 0.57045 0.85978 0.81214 0.0
Co273 Co 0.61294 0.8353 0.78919 0.0
C274 C 0.61686 0.82572 0.8235 0.0
O275 O 0.59591 0.8398 0.82625 0.0
O276 O 0.62579 0.82276 0.80964 0.0
C277 C 0.54706 0.89058 0.83788 0.0
O278 O 0.57152 0.89211 0.84362 0.0
C279 C 0.66179 0.81502 0.77436 0.0
C280 C 0.64785 0.80889 0.75004 0.0
C281 C 0.66943 0.80459 0.75998 0.0
N282 N 0.63666 0.8245 0.77306 0.0
N283 N 0.62854 0.82111 0.75845 0.0
C284 C 0.67806 0.81647 0.78907 0.0
H285 H 0.67388 0.79846 0.79629 0.0
H286 H 0.67239 0.83456 0.79592 0.0
H287 H 0.69988 0.81707 0.78636 0.0
C288 C 0.58415 0.90868 0.79386 0.0
N289 N 0.58853 0.88297 0.79809 0.0
N290 N 0.60722 0.87267 0.78899 0.0
C291 C 0.61595 0.89163 0.77903 0.0
C292 C 0.6013 0.91493 0.78153 0.0
C293 C 0.56153 0.92537 0.80012 0.0
H294 H 0.54292 0.91312 0.80059 0.0
H295 H 0.56643 0.93167 0.81226 0.0
H296 H 0.55789 0.94348 0.79285 0.0
O297 O 0.54921 0.83336 0.80021 0.0
O298 O 0.57973 0.81574 0.78439 0.0
H299 H 0.62863 0.87658 0.75677 0.0
H300 H 0.64591 0.90665 0.76292 0.0
C301 C 0.63737 0.88726 0.76698 0.0
H302 H 0.65374 0.87478 0.77195 0.0
H303 H 0.60939 0.82612 0.7544 0.0
O304 O 0.54329 0.87895 0.82483 0.0
C305 C 0.55582 0.81693 0.7895 0.0
Co306 Co 0.87631 0.82509 0.56341 0.0
Co307 Co 0.90364 0.86332 0.53914 0.0
C308 C 0.90759 0.87284 0.57391 0.0
O309 O 0.89214 0.85316 0.57719 0.0
O310 O 0.91339 0.87865 0.55977 0.0
C311 C 0.84557 0.80202 0.58916 0.0
O312 O 0.84509 0.82629 0.5952 0.0
C313 C 0.9235 0.91168 0.52382 0.0
C314 C 0.9348 0.89604 0.5005 0.0
C315 C 0.93576 0.91878 0.50984 0.0
N316 N 0.91615 0.88582 0.52288 0.0
N317 N 0.92265 0.87663 0.50886 0.0
C318 C 0.91805 0.92914 0.53772 0.0
H319 H 0.89927 0.92261 0.54363 0.0
H320 H 0.91624 0.95053 0.53419 0.0
H321 H 0.93485 0.92717 0.54617 0.0
C322 C 0.83001 0.83441 0.5422 0.0
N323 N 0.85524 0.83958 0.54705 0.0
N324 N 0.86655 0.85661 0.53729 0.0
C325 C 0.84876 0.86337 0.52612 0.0
C326 C 0.82513 0.84925 0.5287 0.0
C327 C 0.81241 0.81339 0.54942 0.0
H328 H 0.8243 0.79487 0.5515 0.0
H329 H 0.80513 0.82071 0.56094 0.0
H330 H 0.79495 0.80842 0.54188 0.0
O331 O 0.9066 0.8043 0.55499 0.0
O332 O 0.92437 0.83008 0.53656 0.0
H333 H 0.86665 0.87301 0.50407 0.0
H334 H 0.83547 0.89044 0.50784 0.0
C335 C 0.85435 0.88297 0.51322 0.0
H336 H 0.86579 0.90033 0.51788 0.0
H337 H 0.91966 0.85684 0.50522 0.0
O338 O 0.85635 0.79836 0.57586 0.0
C339 C 0.92384 0.8083 0.54427 0.0
Co340 Co 0.90222 0.122 0.31878 0.0
Co341 Co 0.86794 0.15136 0.29318 0.0
C342 C 0.8573 0.15897 0.32756 0.0
O343 O 0.87523 0.14194 0.33153 0.0
O344 O 0.85269 0.16427 0.31321 0.0
C345 C 0.92402 0.0976 0.34685 0.0
O346 O 0.90252 0.10714 0.35384 0.0
C347 C 0.82228 0.17333 0.27582 0.0
C348 C 0.8414 0.18327 0.25315 0.0
C349 C 0.81757 0.18532 0.26142 0.0
N350 N 0.84779 0.1646 0.27602 0.0
N351 N 0.85899 0.1702 0.26236 0.0
C352 C 0.80436 0.17327 0.2899 0.0
H353 H 0.80826 0.1917 0.29684 0.0
H354 H 0.80879 0.15551 0.29732 0.0
H355 H 0.78285 0.17309 0.28661 0.0
C356 C 0.88936 0.07556 0.29838 0.0
N357 N 0.88624 0.1014 0.30269 0.0
N358 N 0.87076 0.11364 0.29245 0.0
C359 C 0.86287 0.09589 0.28152 0.0
C360 C 0.8747 0.07125 0.28473 0.0
C361 C 0.90874 0.05676 0.30612 0.0
H362 H 0.92823 0.06713 0.30794 0.0
H363 H 0.90081 0.05112 0.31782 0.0
H364 H 0.91219 0.03834 0.2991 0.0
O365 O 0.92659 0.14905 0.30989 0.0
O366 O 0.90339 0.1682 0.29078 0.0
H367 H 0.85609 0.11379 0.2591 0.0
H368 H 0.83606 0.08416 0.26274 0.0
C369 C 0.84463 0.10257 0.26812 0.0
H370 H 0.82791 0.11544 0.27228 0.0
H371 H 0.87903 0.16618 0.25961 0.0
O372 O 0.92632 0.10016 0.33212 0.0
C373 C 0.92481 0.16583 0.29873 0.0
Co374 Co 0.61633 0.15491 0.06856 0.0
Co375 Co 0.58777 0.12186 0.04224 0.0
C376 C 0.57948 0.11026 0.07671 0.0
O377 O 0.59656 0.12779 0.08119 0.0
O378 O 0.57461 0.10647 0.06222 0.0
C379 C 0.6438 0.17561 0.09618 0.0
O380 O 0.63815 0.15247 0.10281 0.0
C381 C 0.56681 0.07533 0.02569 0.0
C382 C 0.55466 0.0931 0.00303 0.0
C383 C 0.55388 0.06957 0.01169 0.0
N384 N 0.57444 0.10115 0.02539 0.0
N385 N 0.56737 0.11164 0.01178 0.0
C386 C 0.57236 0.05676 0.03908 0.0
H387 H 0.59127 0.06271 0.04505 0.0
H388 H 0.5739 0.03566 0.03496 0.0
H389 H 0.55574 0.05819 0.04768 0.0
C390 C 0.66367 0.14153 0.04891 0.0
N391 N 0.6375 0.13903 0.05262 0.0
N392 N 0.62542 0.12482 0.0417 0.0
C393 C 0.64342 0.11772 0.03071 0.0
C394 C 0.6683 0.12813 0.03489 0.0
C395 C 0.68336 0.15771 0.05821 0.0
H396 H 0.6787 0.17938 0.05677 0.0
H397 H 0.68133 0.15271 0.07081 0.0
H398 H 0.70432 0.15386 0.05437 0.0
O399 O 0.58884 0.17914 0.05963 0.0
O400 O 0.5709 0.15699 0.03971 0.0
H401 H 0.62153 0.11801 0.0092 0.0
H402 H 0.65338 0.10122 0.00777 0.0
C403 C 0.63585 0.10479 0.01548 0.0
H404 H 0.62565 0.08539 0.01784 0.0
H405 H 0.57033 0.13171 0.0087 0.0
O406 O 0.63769 0.17931 0.08191 0.0
C407 C 0.5726 0.17788 0.04816 0.0
Co408 Co 0.58164 0.1213 0.67389 0.0
Co409 Co 0.61795 0.15049 0.69855 0.0
C410 C 0.62726 0.15658 0.66395 0.0
O411 O 0.60853 0.14004 0.6606 0.0
O412 O 0.63297 0.16232 0.67813 0.0
C413 C 0.56064 0.0922 0.64697 0.0
O414 O 0.58451 0.09536 0.64066 0.0
C415 C 0.66344 0.17407 0.71554 0.0
C416 C 0.64499 0.18104 0.73878 0.0
C417 C 0.66819 0.18519 0.73019 0.0
N418 N 0.63851 0.16377 0.71554 0.0
N419 N 0.62772 0.16771 0.7295 0.0
C420 C 0.68036 0.17645 0.70112 0.0
H421 H 0.67877 0.15775 0.69409 0.0
H422 H 0.70172 0.18048 0.70387 0.0
H423 H 0.67264 0.19333 0.69393 0.0
C424 C 0.59335 0.07538 0.69473 0.0
N425 N 0.59761 0.10079 0.68994 0.0
N426 N 0.61393 0.11282 0.69983 0.0
C427 C 0.6212 0.09525 0.71103 0.0
C428 C 0.60808 0.07109 0.70834 0.0
C429 C 0.57273 0.05726 0.68755 0.0
H430 H 0.55372 0.06854 0.68583 0.0
H431 H 0.57987 0.0507 0.67584 0.0
H432 H 0.56864 0.03936 0.69489 0.0
O433 O 0.55824 0.14899 0.68285 0.0
O434 O 0.58305 0.16834 0.70118 0.0
H435 H 0.62861 0.11273 0.73348 0.0
H436 H 0.64829 0.08308 0.7295 0.0
C437 C 0.63981 0.10167 0.72429 0.0
H438 H 0.65653 0.1145 0.72007 0.0
H439 H 0.6081 0.16229 0.73247 0.0
O440 O 0.55665 0.10007 0.66092 0.0
C441 C 0.56108 0.1661 0.69375 0.0
Co442 Co 0.61292 0.83165 0.42342 0.0
Co443 Co 0.58678 0.86732 0.44956 0.0
C444 C 0.57967 0.87973 0.41532 0.0
O445 O 0.59515 0.86059 0.41109 0.0
O446 O 0.57498 0.8844 0.42975 0.0
C447 C 0.64114 0.81103 0.39587 0.0
O448 O 0.63806 0.83499 0.38967 0.0
C449 C 0.56592 0.91238 0.46803 0.0
C450 C 0.5591 0.89252 0.49088 0.0
C451 C 0.55541 0.91643 0.4829 0.0
N452 N 0.57539 0.88716 0.46731 0.0
N453 N 0.57166 0.87555 0.48106 0.0
C454 C 0.56342 0.93035 0.45405 0.0
H455 H 0.58103 0.92763 0.44624 0.0
H456 H 0.5618 0.95177 0.45738 0.0
H457 H 0.54501 0.92474 0.44749 0.0
C458 C 0.66045 0.83977 0.44378 0.0
N459 N 0.6349 0.84518 0.43964 0.0
N460 N 0.62413 0.86129 0.45011 0.0
C461 C 0.64265 0.86729 0.46103 0.0
C462 C 0.66614 0.85352 0.45756 0.0
C463 C 0.67758 0.8193 0.43569 0.0
H464 H 0.66581 0.80061 0.43391 0.0
H465 H 0.6833 0.82703 0.42396 0.0
H466 H 0.69599 0.8145 0.44244 0.0
O467 O 0.58389 0.80922 0.43194 0.0
O468 O 0.567 0.83336 0.45138 0.0
H469 H 0.62697 0.87463 0.48394 0.0
H470 H 0.65711 0.89326 0.4795 0.0
C471 C 0.63786 0.88569 0.47462 0.0
H472 H 0.62545 0.90304 0.47088 0.0
H473 H 0.57647 0.85556 0.48347 0.0
O474 O 0.63299 0.80675 0.40974 0.0
C475 C 0.56736 0.81215 0.44315 0.0
Co476 Co 0.90791 0.8644 0.17789 0.0
Co477 Co 0.87196 0.83457 0.20239 0.0
C478 C 0.86329 0.82833 0.16768 0.0
O479 O 0.88162 0.84529 0.16427 0.0
O480 O 0.85788 0.8225 0.18186 0.0
C481 C 0.92983 0.8931 0.15114 0.0
O482 O 0.90623 0.88963 0.14454 0.0
C483 C 0.82465 0.81293 0.21829 0.0
C484 C 0.84197 0.80138 0.2412 0.0
C485 C 0.81869 0.80032 0.23234 0.0
N486 N 0.85035 0.82105 0.21884 0.0
N487 N 0.86047 0.8145 0.23264 0.0
C488 C 0.80769 0.8142 0.20383 0.0
H489 H 0.81342 0.83188 0.19666 0.0
H490 H 0.78602 0.81542 0.20666 0.0
H491 H 0.81106 0.79572 0.19684 0.0
C492 C 0.89383 0.91053 0.19829 0.0
N493 N 0.89108 0.88477 0.19376 0.0
N494 N 0.87501 0.87229 0.20358 0.0
C495 C 0.86639 0.88981 0.21445 0.0
C496 C 0.87832 0.91455 0.21164 0.0
C497 C 0.91346 0.92961 0.19102 0.0
H498 H 0.93288 0.9192 0.18904 0.0
H499 H 0.90567 0.93609 0.17943 0.0
H500 H 0.91697 0.94754 0.19845 0.0
O501 O 0.93138 0.83704 0.18716 0.0
O502 O 0.90707 0.81727 0.20554 0.0
H503 H 0.85794 0.8712 0.23648 0.0
H504 H 0.8384 0.90115 0.23273 0.0
C505 C 0.8472 0.88286 0.22734 0.0
H506 H 0.83067 0.8703 0.22264 0.0
H507 H 0.88039 0.8179 0.23593 0.0
O508 O 0.9333 0.88571 0.16522 0.0
C509 C 0.92898 0.81993 0.1981 0.0
Co510 Co 0.87553 0.16854 0.92931 0.0
Co511 Co 0.90074 0.12676 0.95237 0.0
C512 C 0.91023 0.12288 0.91797 0.0
O513 O 0.89569 0.14348 0.9152 0.0
O514 O 0.9135 0.11414 0.93185 0.0
C515 C 0.84483 0.19041 0.90334 0.0
O516 O 0.84462 0.16573 0.89787 0.0
C517 C 0.92039 0.07736 0.96675 0.0
C518 C 0.92847 0.09092 0.99096 0.0
C519 C 0.93123 0.0692 0.98094 0.0
N520 N 0.91205 0.10285 0.96826 0.0
N521 N 0.91669 0.11079 0.98278 0.0
C522 C 0.91743 0.06128 0.95205 0.0
H523 H 0.89915 0.06771 0.9456 0.0
H524 H 0.91616 0.03948 0.95471 0.0
H525 H 0.93511 0.06486 0.94443 0.0
C526 C 0.8263 0.15256 0.94669 0.0
N527 N 0.85255 0.1498 0.9432 0.0
N528 N 0.8632 0.13177 0.95261 0.0
C529 C 0.84406 0.12212 0.96221 0.0
C530 C 0.82005 0.13505 0.95882 0.0
C531 C 0.80805 0.17248 0.939 0.0
H532 H 0.80764 0.16861 0.92621 0.0
H533 H 0.78727 0.17124 0.94365 0.0
H534 H 0.8161 0.19305 0.94081 0.0
O535 O 0.90197 0.19027 0.94115 0.0
O536 O 0.91984 0.16012 0.95712 0.0
H537 H 0.86216 0.11411 0.98439 0.0
H538 H 0.83104 0.09655 0.98146 0.0
C539 C 0.84963 0.1035 0.97561 0.0
H540 H 0.861 0.08579 0.97133 0.0
H541 H 0.9127 0.1301 0.98694 0.0
O542 O 0.85572 0.19508 0.91652 0.0
C543 C 0.91855 0.18392 0.95187 0.0
Co544 Co 0.91494 0.62465 0.67657 0.0
Co545 Co 0.8738 0.64916 0.70028 0.0
C546 C 0.86846 0.65907 0.66603 0.0
O547 O 0.88919 0.64489 0.66298 0.0
O548 O 0.8601 0.66203 0.68001 0.0
C549 C 0.93611 0.59567 0.64979 0.0
O550 O 0.91144 0.59662 0.64431 0.0
C551 C 0.82551 0.66942 0.71562 0.0
C552 C 0.84049 0.67681 0.73961 0.0
C553 C 0.81843 0.68046 0.72995 0.0
N554 N 0.85076 0.66019 0.71669 0.0
N555 N 0.85952 0.66437 0.7311 0.0
C556 C 0.8087 0.66738 0.70114 0.0
H557 H 0.81408 0.64897 0.6945 0.0
H558 H 0.78698 0.66698 0.70413 0.0
H559 H 0.81267 0.68503 0.69358 0.0
C560 C 0.90027 0.57516 0.69395 0.0
N561 N 0.89692 0.60136 0.69057 0.0
N562 N 0.87919 0.61167 0.70029 0.0
C563 C 0.87034 0.59236 0.71002 0.0
C564 C 0.88353 0.56858 0.70638 0.0
C565 C 0.92022 0.55734 0.68596 0.0
H566 H 0.91643 0.55761 0.67316 0.0
H567 H 0.91897 0.53633 0.69025 0.0
H568 H 0.94079 0.56528 0.68796 0.0
O569 O 0.93706 0.6509 0.68828 0.0
O570 O 0.90724 0.66845 0.70458 0.0
H571 H 0.86368 0.60978 0.73253 0.0
H572 H 0.84565 0.57896 0.72957 0.0
C573 C 0.85248 0.59766 0.7238 0.0
H574 H 0.83466 0.60932 0.71998 0.0
H575 H 0.87892 0.6598 0.73492 0.0
O576 O 0.94102 0.60522 0.66329 0.0
C577 C 0.9309 0.66734 0.6991 0.0
Co578 Co 0.61345 0.66018 0.92671 0.0
Co579 Co 0.58296 0.62445 0.95106 0.0
C580 C 0.57898 0.61429 0.91638 0.0
O581 O 0.59537 0.6332 0.9131 0.0
O582 O 0.57276 0.60889 0.93052 0.0
C583 C 0.64226 0.68209 0.90005 0.0
O584 O 0.63856 0.65856 0.89341 0.0
C585 C 0.5597 0.57818 0.96706 0.0
C586 C 0.54854 0.5958 0.98992 0.0
C587 C 0.5466 0.57261 0.98102 0.0
N588 N 0.56846 0.60363 0.96757 0.0
N589 N 0.562 0.614 0.98131 0.0
C590 C 0.56466 0.55959 0.95361 0.0
H591 H 0.58357 0.56515 0.94752 0.0
H592 H 0.5659 0.53844 0.95768 0.0
H593 H 0.54783 0.56135 0.94517 0.0
C594 C 0.65859 0.64789 0.94819 0.0
N595 N 0.63315 0.64435 0.94323 0.0
N596 N 0.62044 0.62857 0.95312 0.0
C597 C 0.63747 0.62104 0.96452 0.0
C598 C 0.66211 0.6333 0.96193 0.0
C599 C 0.6777 0.66744 0.94088 0.0
H600 H 0.66727 0.68683 0.93885 0.0
H601 H 0.68417 0.65959 0.92931 0.0
H602 H 0.69562 0.67104 0.94831 0.0
O603 O 0.58521 0.68355 0.93505 0.0
O604 O 0.56467 0.65923 0.95314 0.0
H605 H 0.61815 0.61401 0.98649 0.0
H606 H 0.64828 0.59438 0.98354 0.0
C607 C 0.63013 0.6027 0.97774 0.0
H608 H 0.61775 0.58583 0.97329 0.0
H609 H 0.566 0.6338 0.9846 0.0
O610 O 0.63508 0.68548 0.91417 0.0
C611 C 0.56739 0.681 0.94558 0.0
Co612 Co 0.58162 0.36566 0.17491 0.0
Co613 Co 0.61258 0.33696 0.20211 0.0
C614 C 0.62467 0.32623 0.16792 0.0
O615 O 0.60808 0.34383 0.16292 0.0
O616 O 0.62767 0.32187 0.18253 0.0
C617 C 0.5618 0.39216 0.14665 0.0
O618 O 0.58468 0.38537 0.14007 0.0
C619 C 0.65805 0.31637 0.22015 0.0
C620 C 0.63787 0.30391 0.24206 0.0
C621 C 0.66233 0.30348 0.23433 0.0
N622 N 0.63219 0.32396 0.21954 0.0
N623 N 0.62035 0.3169 0.23277 0.0
C624 C 0.67693 0.31825 0.20654 0.0
H625 H 0.66994 0.33373 0.19813 0.0
H626 H 0.69749 0.32346 0.21045 0.0
H627 H 0.67783 0.29848 0.20055 0.0
C628 C 0.59769 0.41339 0.1935 0.0
N629 N 0.59841 0.38688 0.19046 0.0
N630 N 0.61181 0.3747 0.20168 0.0
C631 C 0.62025 0.39299 0.21217 0.0
C632 C 0.61158 0.41814 0.20733 0.0
C633 C 0.58261 0.43339 0.18381 0.0
H634 H 0.56071 0.42997 0.18528 0.0
H635 H 0.58753 0.43039 0.17126 0.0
H636 H 0.58755 0.45431 0.18729 0.0
O637 O 0.55586 0.34028 0.18433 0.0
O638 O 0.57644 0.32222 0.20474 0.0
H639 H 0.61938 0.37221 0.23406 0.0
H640 H 0.63707 0.40368 0.2349 0.0
C641 C 0.63297 0.38584 0.22752 0.0
H642 H 0.65209 0.37501 0.22534 0.0
H643 H 0.59996 0.31975 0.23512 0.0
O644 O 0.55814 0.3872 0.16108 0.0
C645 C 0.55583 0.32473 0.19613 0.0
Co646 Co 0.87743 0.32969 0.42727 0.0
Co647 Co 0.90375 0.36565 0.45323 0.0
C648 C 0.91066 0.37725 0.41875 0.0
O649 O 0.89488 0.35834 0.41455 0.0
O650 O 0.91548 0.38188 0.43316 0.0
C651 C 0.84576 0.30819 0.40097 0.0
O652 O 0.8446 0.33272 0.39532 0.0
C653 C 0.92345 0.41228 0.47075 0.0
C654 C 0.93321 0.39353 0.49355 0.0
C655 C 0.93499 0.41734 0.48524 0.0
N656 N 0.9153 0.38658 0.47052 0.0
N657 N 0.92072 0.37562 0.48427 0.0
C658 C 0.9236 0.43006 0.45662 0.0
H659 H 0.94258 0.42677 0.45008 0.0
H660 H 0.90641 0.42505 0.44887 0.0
H661 H 0.92248 0.45156 0.45985 0.0
C662 C 0.82985 0.33849 0.44756 0.0
N663 N 0.8555 0.34353 0.44347 0.0
N664 N 0.86642 0.35953 0.45395 0.0
C665 C 0.84797 0.36571 0.46487 0.0
C666 C 0.82429 0.35232 0.46134 0.0
C667 C 0.81238 0.3184 0.4394 0.0
H668 H 0.82385 0.29956 0.4375 0.0
H669 H 0.80665 0.32641 0.42774 0.0
H670 H 0.79396 0.31375 0.44618 0.0
O671 O 0.90684 0.30785 0.4359 0.0
O672 O 0.92364 0.33184 0.45544 0.0
H673 H 0.86462 0.37298 0.48755 0.0
H674 H 0.83393 0.39119 0.48372 0.0
C675 C 0.85303 0.38397 0.47849 0.0
H676 H 0.86496 0.40158 0.47464 0.0
H677 H 0.91718 0.35549 0.48701 0.0
O678 O 0.8576 0.304 0.41392 0.0
C679 C 0.92338 0.31073 0.44712 0.0
Co680 Co 0.90796 0.36662 0.81694 0.0
Co681 Co 0.87258 0.33767 0.79169 0.0
C682 C 0.86141 0.33266 0.82632 0.0
O683 O 0.88014 0.34899 0.83004 0.0
O684 O 0.85667 0.3267 0.81205 0.0
C685 C 0.93076 0.39395 0.84399 0.0
O686 O 0.90751 0.38977 0.85086 0.0
C687 C 0.82677 0.31516 0.77443 0.0
C688 C 0.8462 0.30531 0.75182 0.0
C689 C 0.82236 0.30292 0.76004 0.0
N690 N 0.85214 0.32435 0.77463 0.0
N691 N 0.86351 0.31872 0.76103 0.0
C692 C 0.80902 0.31463 0.78857 0.0
H693 H 0.81415 0.29672 0.7957 0.0
H694 H 0.81249 0.33285 0.79578 0.0
H695 H 0.78749 0.31339 0.78541 0.0
C696 C 0.89533 0.41328 0.79666 0.0
N697 N 0.89254 0.38731 0.80071 0.0
N698 N 0.87717 0.37521 0.79035 0.0
C699 C 0.86943 0.3931 0.77943 0.0
C700 C 0.88076 0.41781 0.78305 0.0
C701 C 0.91235 0.43297 0.80543 0.0
H702 H 0.93385 0.42775 0.80374 0.0
H703 H 0.9079 0.43154 0.81813 0.0
H704 H 0.9088 0.45385 0.80136 0.0
O705 O 0.93087 0.33778 0.80852 0.0
O706 O 0.90699 0.31904 0.78959 0.0
H707 H 0.86698 0.37236 0.7576 0.0
H708 H 0.84873 0.40342 0.75775 0.0
C709 C 0.85427 0.3857 0.76489 0.0
H710 H 0.83576 0.37459 0.76811 0.0
H711 H 0.88354 0.32289 0.75833 0.0
O712 O 0.93369 0.38747 0.82972 0.0
C713 C 0.92838 0.32064 0.7976 0.0
Co714 Co 0.87518 0.66067 0.06519 0.0
Co715 Co 0.89916 0.6175 0.04238 0.0
C716 C 0.90775 0.61309 0.07669 0.0
O717 O 0.89437 0.63458 0.07917 0.0
O718 O 0.91074 0.60377 0.06291 0.0
C719 C 0.8444 0.68397 0.09095 0.0
O720 O 0.84193 0.65935 0.09631 0.0
C721 C 0.92175 0.57035 0.02646 0.0
C722 C 0.92209 0.58458 0.0019 0.0
C723 C 0.92997 0.56355 0.01145 0.0
N724 N 0.9094 0.59431 0.02576 0.0
N725 N 0.90942 0.60256 0.01104 0.0
C726 C 0.92944 0.557 0.0415 0.0
H727 H 0.94536 0.56917 0.0472 0.0
H728 H 0.9118 0.55632 0.04944 0.0
H729 H 0.93727 0.5364 0.03975 0.0
C730 C 0.8263 0.64833 0.04667 0.0
N731 N 0.85188 0.64335 0.05095 0.0
N732 N 0.86178 0.62428 0.04197 0.0
C733 C 0.84252 0.61577 0.0321 0.0
C734 C 0.8196 0.63107 0.03448 0.0
C735 C 0.81017 0.67143 0.05281 0.0
H736 H 0.82316 0.68945 0.0539 0.0
H737 H 0.80263 0.66632 0.06467 0.0
H738 H 0.79285 0.67619 0.04511 0.0
O739 O 0.90214 0.68143 0.05353 0.0
O740 O 0.91992 0.65035 0.03813 0.0
H741 H 0.85509 0.60152 0.00963 0.0
H742 H 0.82622 0.58442 0.01745 0.0
C743 C 0.84594 0.59347 0.02049 0.0
H744 H 0.85925 0.57767 0.02536 0.0
H745 H 0.90203 0.62116 0.00738 0.0
O746 O 0.8565 0.68791 0.07806 0.0
C747 C 0.91897 0.67434 0.04315 0.0
Co748 Co 0.58199 0.62068 0.31632 0.0
Co749 Co 0.61131 0.65083 0.28906 0.0
C750 C 0.62396 0.66134 0.32318 0.0
O751 O 0.60809 0.6431 0.32817 0.0
O752 O 0.6264 0.66615 0.30859 0.0
C753 C 0.56438 0.59418 0.34489 0.0
O754 O 0.58706 0.60257 0.35107 0.0
C755 C 0.65614 0.6711 0.27026 0.0
C756 C 0.63451 0.68711 0.24964 0.0
C757 C 0.65972 0.68536 0.25645 0.0
N758 N 0.62998 0.66489 0.27155 0.0
N759 N 0.61725 0.67407 0.25906 0.0
C760 C 0.67657 0.66576 0.28276 0.0
H761 H 0.68621 0.68489 0.2864 0.0
H762 H 0.66734 0.65572 0.29299 0.0
H763 H 0.69242 0.65231 0.27811 0.0
C764 C 0.59902 0.57383 0.29726 0.0
N765 N 0.59902 0.60029 0.30048 0.0
N766 N 0.61173 0.6131 0.28922 0.0
C767 C 0.62033 0.5953 0.2785 0.0
C768 C 0.61261 0.5698 0.28325 0.0
C769 C 0.58489 0.55318 0.30695 0.0
H770 H 0.56285 0.55588 0.30568 0.0
H771 H 0.59001 0.55615 0.31948 0.0
H772 H 0.59045 0.5325 0.30332 0.0
O773 O 0.55502 0.64542 0.30735 0.0
O774 O 0.57467 0.66432 0.28689 0.0
H775 H 0.61871 0.61768 0.25714 0.0
H776 H 0.63525 0.58571 0.25517 0.0
C777 C 0.63223 0.60315 0.26304 0.0
H778 H 0.65184 0.61317 0.26505 0.0
H779 H 0.59654 0.67254 0.25733 0.0
O780 O 0.55999 0.59815 0.33042 0.0
C781 C 0.55431 0.6611 0.29562 0.0
Co782 Co 0.6056 0.32253 0.56078 0.0
Co783 Co 0.58246 0.36577 0.53771 0.0
C784 C 0.57371 0.37063 0.57201 0.0
O785 O 0.58691 0.34909 0.57468 0.0
O786 O 0.57087 0.37968 0.55817 0.0
C787 C 0.63743 0.29988 0.58628 0.0
O788 O 0.64086 0.32476 0.59102 0.0
C789 C 0.56424 0.41502 0.52206 0.0
C790 C 0.55759 0.3999 0.498 0.0
C791 C 0.55444 0.42227 0.50745 0.0
N792 N 0.57275 0.38945 0.52125 0.0
N793 N 0.56916 0.38069 0.50679 0.0
C794 C 0.56193 0.43043 0.53705 0.0
H795 H 0.57912 0.42559 0.54483 0.0
H796 H 0.56131 0.45239 0.53501 0.0
H797 H 0.54305 0.42448 0.54301 0.0
C798 C 0.65479 0.33387 0.54227 0.0
N799 N 0.62924 0.33926 0.54645 0.0
N800 N 0.61963 0.35819 0.53727 0.0
C801 C 0.63895 0.36606 0.52727 0.0
C802 C 0.66172 0.35063 0.52989 0.0
C803 C 0.67071 0.31085 0.5487 0.0
H804 H 0.65752 0.29306 0.55014 0.0
H805 H 0.67856 0.31643 0.56042 0.0
H806 H 0.68781 0.30548 0.54098 0.0
O807 O 0.5781 0.30215 0.54917 0.0
O808 O 0.56112 0.33333 0.53349 0.0
H809 H 0.62474 0.37957 0.50499 0.0
H810 H 0.65531 0.39567 0.51138 0.0
C811 C 0.63555 0.38778 0.51529 0.0
H812 H 0.62359 0.40452 0.52027 0.0
H813 H 0.57331 0.36112 0.50313 0.0
O814 O 0.62413 0.29539 0.57385 0.0
C815 C 0.56148 0.30944 0.53868 0.0
Co816 Co 0.07855 0.36103 0.31761 0.0
Co817 Co 0.11126 0.33219 0.29109 0.0
C818 C 0.12487 0.3256 0.32535 0.0
O819 O 0.10705 0.34233 0.32993 0.0
O820 O 0.128 0.32018 0.31088 0.0
C821 C 0.05836 0.39037 0.34507 0.0
O822 O 0.08195 0.38641 0.35159 0.0
C823 C 0.15679 0.31151 0.27305 0.0
C824 C 0.13662 0.29905 0.25113 0.0
C825 C 0.16107 0.29863 0.25887 0.0
N826 N 0.13093 0.31911 0.27367 0.0
N827 N 0.1191 0.31207 0.26042 0.0
C828 C 0.17572 0.31348 0.28664 0.0
H829 H 0.17521 0.29434 0.29328 0.0
H830 H 0.16969 0.33017 0.29449 0.0
H831 H 0.19663 0.31689 0.2827 0.0
C832 C 0.08944 0.40774 0.29696 0.0
N833 N 0.09281 0.38182 0.30103 0.0
N834 N 0.10747 0.36975 0.29031 0.0
C835 C 0.11449 0.38764 0.27927 0.0
C836 C 0.103 0.41224 0.28295 0.0
C837 C 0.07109 0.42662 0.30544 0.0
H838 H 0.05151 0.41659 0.30758 0.0
H839 H 0.07998 0.43157 0.31701 0.0
H840 H 0.06755 0.4454 0.29877 0.0
O841 O 0.05453 0.33295 0.30947 0.0
O842 O 0.07616 0.31443 0.28954 0.0
H843 H 0.1201 0.36948 0.25681 0.0
H844 H 0.13972 0.39965 0.2598 0.0
C845 C 0.13191 0.38118 0.26547 0.0
H846 H 0.14921 0.36878 0.26931 0.0
H847 H 0.09872 0.31495 0.25807 0.0
O848 O 0.05435 0.38242 0.33113 0.0
C849 C 0.05557 0.31621 0.29824 0.0
Co850 Co 0.37351 0.32719 0.06732 0.0
Co851 Co 0.40311 0.35931 0.04102 0.0
C852 C 0.41014 0.37176 0.07557 0.0
O853 O 0.39278 0.35457 0.08014 0.0
O854 O 0.41544 0.37485 0.06109 0.0
C855 C 0.34417 0.30628 0.0944 0.0
O856 O 0.34862 0.32961 0.10113 0.0
C857 C 0.42265 0.4067 0.0249 0.0
C858 C 0.43788 0.38969 0.00269 0.0
C859 C 0.43624 0.41328 0.01126 0.0
N860 N 0.41692 0.3804 0.0245 0.0
N861 N 0.42586 0.37033 0.01116 0.0
C862 C 0.41451 0.42495 0.038 0.0
H863 H 0.39573 0.41751 0.04352 0.0
H864 H 0.41152 0.44578 0.03369 0.0
H865 H 0.4305 0.42507 0.04704 0.0
C866 C 0.32672 0.341 0.04715 0.0
N867 N 0.35291 0.34282 0.051 0.0
N868 N 0.36553 0.35646 0.04005 0.0
C869 C 0.34794 0.36379 0.02889 0.0
C870 C 0.3227 0.35428 0.03302 0.0
C871 C 0.30633 0.32596 0.05657 0.0
H872 H 0.30865 0.33107 0.06915 0.0
H873 H 0.28556 0.33071 0.05272 0.0
H874 H 0.30996 0.30407 0.05526 0.0
O875 O 0.40147 0.30297 0.05884 0.0
O876 O 0.42006 0.3242 0.03879 0.0
H877 H 0.37184 0.3639 0.00811 0.0
H878 H 0.3391 0.37834 0.00537 0.0
C879 C 0.35608 0.3764 0.01368 0.0
H880 H 0.36471 0.39657 0.01598 0.0
H881 H 0.4245 0.35009 0.00807 0.0
O882 O 0.3517 0.30262 0.08036 0.0
C883 C 0.41807 0.30369 0.04753 0.0
Co884 Co 0.41359 0.62694 0.81308 0.0
Co885 Co 0.37081 0.64944 0.78955 0.0
C886 C 0.3662 0.66065 0.8236 0.0
O887 O 0.38746 0.64717 0.82657 0.0
O888 O 0.35722 0.66282 0.80969 0.0
C889 C 0.43606 0.59636 0.83913 0.0
O890 O 0.41117 0.59328 0.84395 0.0
C891 C 0.32286 0.66922 0.77316 0.0
C892 C 0.3381 0.67124 0.74885 0.0
C893 C 0.31621 0.67751 0.75814 0.0
N894 N 0.34761 0.65851 0.77272 0.0
N895 N 0.35643 0.65938 0.75813 0.0
C896 C 0.30815 0.67523 0.78804 0.0
H897 H 0.31675 0.69373 0.79326 0.0
H898 H 0.31083 0.65845 0.79645 0.0
H899 H 0.28643 0.67858 0.78606 0.0
C900 C 0.40113 0.57687 0.79565 0.0
N901 N 0.39622 0.60271 0.79938 0.0
N902 N 0.37726 0.61211 0.79014 0.0
C903 C 0.36876 0.59234 0.78064 0.0
C904 C 0.38395 0.56953 0.78354 0.0
C905 C 0.42416 0.56103 0.80213 0.0
H906 H 0.4422 0.57404 0.80305 0.0
H907 H 0.41893 0.55406 0.81409 0.0
H908 H 0.42895 0.54333 0.79474 0.0
O909 O 0.4346 0.65296 0.80083 0.0
O910 O 0.40383 0.6695 0.78475 0.0
H911 H 0.35507 0.60471 0.75802 0.0
H912 H 0.33817 0.57549 0.76562 0.0
C913 C 0.34681 0.59534 0.76876 0.0
H914 H 0.33063 0.60837 0.77346 0.0
H915 H 0.37558 0.65321 0.75467 0.0
O916 O 0.44055 0.60889 0.82645 0.0
C917 C 0.42774 0.66889 0.78992 0.0
Co918 Co 0.11973 0.65687 0.56541 0.0
Co919 Co 0.08904 0.62496 0.53934 0.0
C920 C 0.08111 0.61371 0.5738 0.0
O921 O 0.09896 0.63062 0.57804 0.0
O922 O 0.07546 0.61011 0.5594 0.0
C923 C 0.1464 0.67643 0.59335 0.0
O924 O 0.13984 0.65324 0.59962 0.0
C925 C 0.06652 0.57934 0.52228 0.0
C926 C 0.05308 0.59896 0.50039 0.0
C927 C 0.0526 0.57483 0.50845 0.0
N928 N 0.07474 0.60501 0.52237 0.0
N929 N 0.06707 0.61651 0.50915 0.0
C930 C 0.0687 0.56106 0.53615 0.0
H931 H 0.08589 0.56713 0.54364 0.0
H932 H 0.07146 0.53989 0.53252 0.0
H933 H 0.04991 0.56238 0.5431 0.0
C934 C 0.16604 0.6409 0.54567 0.0
N935 N 0.13983 0.63985 0.54948 0.0
N936 N 0.12688 0.62601 0.53873 0.0
C937 C 0.14439 0.61765 0.52777 0.0
C938 C 0.1698 0.62685 0.53179 0.0
C939 C 0.18659 0.6565 0.55466 0.0
H940 H 0.18299 0.6783 0.55288 0.0
H941 H 0.18442 0.65222 0.56735 0.0
H942 H 0.20729 0.65144 0.55081 0.0
O943 O 0.09377 0.68244 0.55639 0.0
O944 O 0.07397 0.661 0.53684 0.0
H945 H 0.12221 0.61811 0.50634 0.0
H946 H 0.15343 0.60002 0.50502 0.0
C947 C 0.13611 0.60455 0.51272 0.0
H948 H 0.12519 0.58564 0.51534 0.0
H949 H 0.07018 0.63674 0.50648 0.0
O950 O 0.14178 0.68043 0.57892 0.0
C951 C 0.07725 0.68198 0.54505 0.0
Co952 Co 0.07635 0.62314 0.17828 0.0
Co953 Co 0.1138 0.65111 0.20281 0.0
C954 C 0.12229 0.65726 0.16801 0.0
O955 O 0.10335 0.64098 0.1646 0.0
O956 O 0.12803 0.66279 0.1822 0.0
C957 C 0.0528 0.59269 0.15229 0.0
O958 O 0.07666 0.59283 0.1457 0.0
C959 C 0.16147 0.67234 0.21869 0.0
C960 C 0.14467 0.68188 0.24204 0.0
C961 C 0.16761 0.68414 0.23296 0.0
N962 N 0.13598 0.66356 0.21933 0.0
N963 N 0.12621 0.66889 0.23338 0.0
C964 C 0.17788 0.6727 0.20401 0.0
H965 H 0.17303 0.6549 0.19671 0.0
H966 H 0.1997 0.67289 0.20653 0.0
H967 H 0.17293 0.69111 0.19729 0.0
C968 C 0.08853 0.57627 0.19846 0.0
N969 N 0.09235 0.60195 0.19406 0.0
N970 N 0.10909 0.61356 0.20388 0.0
C971 C 0.11707 0.59549 0.21462 0.0
C972 C 0.10402 0.57135 0.21172 0.0
C973 C 0.06798 0.55818 0.19117 0.0
H974 H 0.04899 0.56944 0.18938 0.0
H975 H 0.0753 0.5516 0.1795 0.0
H976 H 0.0638 0.54028 0.1985 0.0
O977 O 0.05436 0.65167 0.18757 0.0
O978 O 0.0795 0.66989 0.20613 0.0
H979 H 0.12652 0.61268 0.2369 0.0
H980 H 0.14524 0.58254 0.23241 0.0
C981 C 0.13676 0.60132 0.22744 0.0
H982 H 0.15345 0.61378 0.22284 0.0
H983 H 0.10647 0.66486 0.23679 0.0
O984 O 0.04984 0.60292 0.16579 0.0
C985 C 0.05756 0.66846 0.1986 0.0
Co986 Co 0.11221 0.32332 0.92842 0.0
Co987 Co 0.09009 0.36577 0.95232 0.0
C988 C 0.07832 0.37064 0.91823 0.0
O989 O 0.09179 0.34945 0.9151 0.0
O990 O 0.07643 0.37949 0.93219 0.0
C991 C 0.13933 0.30071 0.9013 0.0
O992 O 0.13884 0.32525 0.89562 0.0
C993 C 0.06999 0.41349 0.96884 0.0
C994 C 0.06827 0.39807 0.99312 0.0
C995 C 0.0617 0.41996 0.9839 0.0
N996 N 0.08098 0.38885 0.96921 0.0
N997 N 0.08025 0.37993 0.98379 0.0
C998 C 0.06359 0.42813 0.95399 0.0
H999 H 0.08035 0.42576 0.94554 0.0
H1000 H 0.05988 0.44977 0.95598 0.0
H1001 H 0.04519 0.41922 0.94882 0.0
C1002 C 0.16292 0.33651 0.94499 0.0
N1003 N 0.13671 0.34078 0.94195 0.0
N1004 N 0.12754 0.3593 0.95156 0.0
C1005 C 0.14778 0.368 0.96071 0.0
C1006 C 0.17082 0.35365 0.95696 0.0
C1007 C 0.17948 0.31533 0.93716 0.0
H1008 H 0.1703 0.29534 0.9393 0.0
H1009 H 0.17942 0.31884 0.92433 0.0
H1010 H 0.20054 0.31541 0.94144 0.0
O1011 O 0.08603 0.30225 0.94066 0.0
O1012 O 0.06986 0.33287 0.95694 0.0
H1013 H 0.1348 0.37655 0.98402 0.0
H1014 H 0.16363 0.39563 0.97812 0.0
C1015 C 0.14425 0.38724 0.97405 0.0
H1016 H 0.13101 0.40405 0.97043 0.0
H1017 H 0.08654 0.36079 0.98718 0.0
O1018 O 0.1302 0.2964 0.91496 0.0
C1019 C 0.07012 0.30908 0.9516 0.0
Co1020 Co 0.41026 0.36282 0.67592 0.0
Co1021 Co 0.37547 0.3329 0.70097 0.0
C1022 C 0.36452 0.32805 0.66632 0.0
O1023 O 0.38279 0.34487 0.66262 0.0
O1024 O 0.36003 0.32191 0.68057 0.0
C1025 C 0.43158 0.39274 0.64929 0.0
O1026 O 0.40768 0.39021 0.64291 0.0
C1027 C 0.32864 0.31088 0.7169 0.0
C1028 C 0.34562 0.29976 0.73993 0.0
C1029 C 0.32249 0.29828 0.73093 0.0
N1030 N 0.35433 0.31895 0.71748 0.0
N1031 N 0.36433 0.31249 0.73132 0.0
C1032 C 0.31037 0.31617 0.70332 0.0
H1033 H 0.31629 0.3351 0.69737 0.0
H1034 H 0.28914 0.3176 0.70723 0.0
H1035 H 0.31217 0.29949 0.69478 0.0
C1036 C 0.39856 0.40846 0.69708 0.0
N1037 N 0.39493 0.38289 0.69241 0.0
N1038 N 0.3795 0.37043 0.70259 0.0
C1039 C 0.37229 0.38776 0.71391 0.0
C1040 C 0.3844 0.41234 0.71094 0.0
C1041 C 0.41785 0.4274 0.68938 0.0
H1042 H 0.43728 0.41702 0.68739 0.0
H1043 H 0.40975 0.4333 0.67776 0.0
H1044 H 0.42146 0.44565 0.69652 0.0
O1045 O 0.43356 0.33445 0.68429 0.0
O1046 O 0.41031 0.31482 0.7032 0.0
H1047 H 0.36593 0.36882 0.73606 0.0
H1048 H 0.34639 0.39904 0.7332 0.0
C1049 C 0.35438 0.38076 0.7274 0.0
H1050 H 0.33726 0.36845 0.72321 0.0
H1051 H 0.38418 0.31606 0.73469 0.0
O1052 O 0.43543 0.3842 0.66311 0.0
C1053 C 0.43162 0.31713 0.69515 0.0
Co1054 Co 0.37323 0.6582 0.42307 0.0
Co1055 Co 0.40283 0.62845 0.45041 0.0
C1056 C 0.4131 0.61565 0.41619 0.0
O1057 O 0.39509 0.63171 0.41109 0.0
O1058 O 0.41776 0.61325 0.43081 0.0
C1059 C 0.34501 0.67759 0.39508 0.0
O1060 O 0.35144 0.65476 0.38832 0.0
C1061 C 0.42379 0.58331 0.46856 0.0
C1062 C 0.4371 0.60383 0.4902 0.0
C1063 C 0.4371 0.57921 0.48264 0.0
N1064 N 0.41638 0.6092 0.46785 0.0
N1065 N 0.42396 0.62126 0.48092 0.0
C1066 C 0.42127 0.56417 0.4551 0.0
H1067 H 0.44103 0.56229 0.44917 0.0
H1068 H 0.4061 0.5715 0.4466 0.0
H1069 H 0.41517 0.54397 0.45918 0.0
C1070 C 0.32597 0.64151 0.44188 0.0
N1071 N 0.35251 0.64148 0.43886 0.0
N1072 N 0.36506 0.62867 0.45018 0.0
C1073 C 0.347 0.62 0.46074 0.0
C1074 C 0.3216 0.62781 0.45582 0.0
C1075 C 0.30552 0.65553 0.43198 0.0
H1076 H 0.30819 0.67758 0.43319 0.0
H1077 H 0.30876 0.65026 0.41949 0.0
H1078 H 0.28475 0.65001 0.43547 0.0
O1079 O 0.39864 0.68438 0.4321 0.0
O1080 O 0.41718 0.66478 0.4527 0.0
H1081 H 0.36841 0.62129 0.48243 0.0
H1082 H 0.33677 0.60392 0.4837 0.0
C1083 C 0.35447 0.60766 0.47614 0.0
H1084 H 0.36508 0.58839 0.47403 0.0
H1085 H 0.42132 0.6417 0.48316 0.0
O1086 O 0.35102 0.68129 0.40937 0.0
C1087 C 0.41437 0.68502 0.44382 0.0
H1088 H 0.32115 0.23713 0.24394 0.0
H1089 H 0.16089 0.24663 0.2495 0.0
H1090 H 0.26819 0.17045 0.23463 0.0
H1091 H 0.2139 0.31374 0.25759 0.0
H1092 H 0.19988 0.21842 0.24369 0.0
H1093 H 0.28209 0.26532 0.24959 0.0
C1094 C 0.30122 0.22846 0.24314 0.0
C1095 C 0.29768 0.20169 0.23853 0.0
C1096 C 0.20303 0.23929 0.24677 0.0
C1097 C 0.25303 0.23365 0.24488 0.0
C1098 C 0.18081 0.25539 0.25 0.0
C1099 C 0.1844 0.28229 0.25435 0.0
C1100 C 0.22896 0.25031 0.24781 0.0
C1101 C 0.21047 0.29282 0.25478 0.0
C1102 C 0.27896 0.24455 0.24627 0.0
C1103 C 0.2716 0.19127 0.2377 0.0
N1104 N 0.23183 0.27675 0.25162 0.0
N1105 N 0.25018 0.20733 0.2408 0.0
H1106 H 0.9674 0.94882 0.52945 0.0
H1107 H 0.01914 0.04545 0.46128 0.0
H1108 H 0.94042 0.94327 0.48151 0.0
H1109 H 0.04365 0.05307 0.50956 0.0
H1110 H 0.99075 0.00758 0.46839 0.0
H1111 H -0.00504 0.98733 0.52248 0.0
C1112 C 0.96666 0.95615 0.51754 0.0
C1113 C 0.95096 0.94334 0.50612 0.0
C1114 C 0.00251 0.01735 0.47743 0.0
C1115 C 0.98346 0.98674 0.4979 0.0
C1116 C 0.01909 0.03873 0.47332 0.0
C1117 C 0.0344 0.05186 0.4848 0.0
C1118 C 0.00105 0.0092 0.49313 0.0
C1119 C 0.03237 0.04321 0.50036 0.0
C1120 C 0.98278 0.97793 0.51351 0.0
C1121 C 0.95204 0.95283 0.49068 0.0
N1122 N 0.01603 0.02233 0.50409 0.0
N1123 N 0.96803 0.974 0.48701 0.0
H1124 H 0.26235 0.6699 0.76245 0.0
H1125 H 0.22376 0.81518 0.72884 0.0
H1126 H 0.32017 0.72542 0.7433 0.0
H1127 H 0.16576 0.7586 0.74672 0.0
H1128 H 0.25962 0.78275 0.73427 0.0
H1129 H 0.22646 0.70209 0.75664 0.0
C1130 C 0.26739 0.68896 0.75706 0.0
C1131 C 0.2941 0.69539 0.75359 0.0
C1132 C 0.23904 0.77739 0.73698 0.0
C1133 C 0.25348 0.73205 0.74678 0.0
C1134 C 0.21865 0.79582 0.73381 0.0
C1135 C 0.1919 0.78919 0.73707 0.0
C1136 C 0.23251 0.75231 0.74352 0.0
C1137 C 0.18624 0.76432 0.74401 0.0
C1138 C 0.24699 0.70726 0.7537 0.0
C1139 C 0.29972 0.71988 0.7462 0.0
N1140 N 0.20639 0.74668 0.74693 0.0
N1141 N 0.27957 0.73746 0.74312 0.0
H1142 H 0.46884 0.9462 0.96108 0.0
H1143 H 0.5221 0.03881 0.0308 0.0
H1144 H 0.43956 0.94106 0.00856 0.0
H1145 H 0.54814 0.04722 0.98284 0.0
H1146 H 0.49331 0.00161 0.02307 0.0
H1147 H 0.4985 0.9827 0.96885 0.0
C1148 C 0.4681 0.95322 0.97306 0.0
C1149 C 0.45108 0.94117 0.98411 0.0
C1150 C 0.50553 0.01137 0.01425 0.0
C1151 C 0.48591 0.98218 0.99324 0.0
C1152 C 0.52235 0.03236 0.0187 0.0
C1153 C 0.53812 0.0456 0.00749 0.0
C1154 C 0.50427 0.00374 -0.00156 0.0
C1155 C 0.53648 0.03728 0.99185 0.0
C1156 C 0.4854 0.97381 0.97755 0.0
C1157 C 0.45216 0.95009 -0.00034 0.0
N1158 N 0.51984 0.01683 0.98776 0.0
N1159 N 0.46927 0.97013 0.00377 0.0
H1160 H 0.22092 0.67122 0.23113 0.0
H1161 H 0.2695 0.81809 0.25712 0.0
H1162 H 0.16675 0.73538 0.24359 0.0
H1163 H 0.32373 0.75309 0.24634 0.0
H1164 H 0.23142 0.78856 0.2513 0.0
H1165 H 0.25904 0.70121 0.23604 0.0
C1166 C 0.21714 0.69173 0.23477 0.0
C1167 C 0.19085 0.70115 0.23669 0.0
C1168 C 0.25164 0.78072 0.25022 0.0
C1169 C 0.23402 0.73532 0.24254 0.0
C1170 C 0.27329 0.79751 0.25362 0.0
C1171 C 0.29957 0.78768 0.25254 0.0
C1172 C 0.25646 0.75402 0.24563 0.0
C1173 C 0.30364 0.76127 0.24739 0.0
C1174 C 0.23882 0.70878 0.23766 0.0
C1175 C 0.18684 0.7275 0.24194 0.0
N1176 N 0.28227 0.74525 0.24422 0.0
N1177 N 0.20823 0.74376 0.24462 0.0
H1178 H 0.56645 0.9702 0.48263 0.0
H1179 H 0.41935 0.01138 0.51231 0.0
H1180 H 0.50542 0.91265 0.49526 0.0
H1181 H 0.47877 0.06826 0.49645 0.0
H1182 H 0.45116 0.97478 0.50725 0.0
H1183 H 0.53534 0.00666 0.48909 0.0
C1184 C 0.5464 0.96534 0.48669 0.0
C1185 C 0.53811 0.93859 0.48808 0.0
C1186 C 0.45726 -0.00473 0.50491 0.0
C1187 C 0.50267 0.97985 0.4957 0.0
C1188 C 0.4392 0.01609 0.50787 0.0
C1189 C 0.44676 0.04271 0.50501 0.0
C1190 C 0.48295 0.00129 0.49902 0.0
C1191 C 0.4723 0.04789 0.49881 0.0
C1192 C 0.52872 0.98606 0.49045 0.0
C1193 C 0.51239 0.93314 0.49394 0.0
N1194 N 0.48957 0.02735 0.49608 0.0
N1195 N 0.49544 0.95363 0.49744 0.0
H1196 H 0.1854 0.19175 0.73044 0.0
H1197 H 0.29939 0.29372 0.75967 0.0
H1198 H 0.19512 0.21648 0.77854 0.0
H1199 H 0.29163 0.26643 0.71191 0.0
H1200 H 0.26085 0.26577 0.76685 0.0
H1201 H 0.22417 0.21941 0.72331 0.0
C1202 C 0.19595 0.20273 0.73952 0.0
C1203 C 0.18753 0.20128 0.75515 0.0
C1204 C 0.26742 0.26612 0.75476 0.0
C1205 C 0.23146 0.23324 0.74712 0.0
C1206 C 0.28934 0.28209 0.75067 0.0
C1207 C 0.2982 0.28296 0.73511 0.0
C1208 C 0.25452 0.2507 0.7432 0.0
C1209 C 0.28482 0.26724 0.72392 0.0
C1210 C 0.218 0.21853 0.73546 0.0
C1211 C 0.20155 0.21617 0.76645 0.0
N1212 N 0.26362 0.25176 0.72819 0.0
N1213 N 0.22282 0.23157 0.76221 0.0
H1214 H 0.0134 0.94151 0.02916 0.0
H1215 H 0.96649 0.04238 0.96185 0.0
H1216 H 0.048 0.9426 0.98282 0.0
H1217 H 0.93308 0.04198 0.00849 0.0
H1218 H -0.00484 0.00467 0.96892 0.0
H1219 H 0.98353 0.97796 0.02168 0.0
C1220 C 0.01524 0.9499 0.01752 0.0
C1221 C 0.03384 0.93965 0.00673 0.0
C1222 C 0.98134 0.01259 0.97756 0.0
C1223 C -0.0012 0.98064 -0.00214 0.0
C1224 C 0.96461 0.03388 0.97345 0.0
C1225 C 0.94685 0.04483 0.98449 0.0
C1226 C 0.98049 0.00239 0.99288 0.0
C1227 C 0.94635 0.03389 -0.0004 0.0
C1228 C -0.00218 0.97045 0.01317 0.0
C1229 C 0.03417 0.95026 0.99154 0.0
N1230 N 0.96295 0.01324 0.00337 0.0
N1231 N 0.01693 0.97028 0.98754 0.0
H1232 H 0.69394 0.76699 0.77858 0.0
H1233 H 0.79338 0.71748 0.71122 0.0
H1234 H 0.69666 0.80215 0.73241 0.0
H1235 H 0.79201 0.68362 0.75774 0.0
H1236 H 0.75732 0.74794 0.71859 0.0
H1237 H 0.73014 0.73669 0.77128 0.0
C1238 C 0.70267 0.7689 0.76704 0.0
C1239 C 0.69286 0.7877 0.75622 0.0
C1240 C 0.76467 0.73367 0.72715 0.0
C1241 C 0.73352 0.75214 0.74754 0.0
C1242 C 0.78498 0.71591 0.72287 0.0
C1243 C 0.79511 0.69742 0.73377 0.0
C1244 C 0.75461 0.73312 0.7425 0.0
C1245 C 0.78446 0.69738 0.74896 0.0
C1246 C 0.72307 0.75123 0.76279 0.0
C1247 C 0.70393 0.78814 0.74114 0.0
N1248 N 0.76473 0.71497 0.75288 0.0
N1249 N 0.72372 0.7706 0.73723 0.0
H1250 H 0.76447 0.17134 0.26131 0.0
H1251 H 0.71546 0.31787 0.23506 0.0
H1252 H 0.81854 0.23656 0.25077 0.0
H1253 H 0.66159 0.25188 0.24433 0.0
H1254 H 0.75363 0.28859 0.24102 0.0
H1255 H 0.72634 0.2006 0.25519 0.0
C1256 C 0.76821 0.19193 0.25783 0.0
C1257 C 0.79445 0.20188 0.25685 0.0
C1258 C 0.73347 0.28047 0.2417 0.0
C1259 C 0.75129 0.23523 0.24958 0.0
C1260 C 0.71175 0.29711 0.23817 0.0
C1261 C 0.68554 0.28698 0.23886 0.0
C1262 C 0.72878 0.25362 0.24602 0.0
C1263 C 0.68161 0.26033 0.24362 0.0
C1264 C 0.74653 0.20856 0.25424 0.0
C1265 C 0.79847 0.2283 0.25173 0.0
N1266 N 0.70304 0.24449 0.24695 0.0
N1267 N 0.77706 0.24418 0.24837 0.0
H1268 H 0.82495 0.25234 0.74851 0.0
H1269 H 0.66538 0.23478 0.74315 0.0
H1270 H 0.76865 0.31494 0.76046 0.0
H1271 H 0.72189 0.17396 0.72871 0.0
H1272 H 0.70291 0.26397 0.75046 0.0
H1273 H 0.78741 0.22311 0.74141 0.0
C1274 C 0.8046 0.25986 0.74964 0.0
C1275 C 0.7997 0.28576 0.75538 0.0
C1276 C 0.70714 0.24429 0.74563 0.0
C1277 C 0.75677 0.25262 0.74732 0.0
C1278 C 0.68578 0.22764 0.74153 0.0
C1279 C 0.69075 0.20229 0.73504 0.0
C1280 C 0.73361 0.23533 0.74334 0.0
C1281 C 0.71737 0.19375 0.73326 0.0
C1282 C 0.78321 0.24319 0.74564 0.0
C1283 C 0.77312 0.29473 0.75656 0.0
N1284 N 0.73788 0.2103 0.73736 0.0
N1285 N 0.75256 0.27812 0.7526 0.0
H1286 H 0.76587 0.81532 0.23137 0.0
H1287 H 0.71262 0.66962 0.25613 0.0
H1288 H 0.81797 0.74857 0.24209 0.0
H1289 H 0.66051 0.73648 0.2455 0.0
H1290 H 0.75155 0.69788 0.25046 0.0
H1291 H 0.72682 0.78656 0.23617 0.0
C1292 C 0.76899 0.7945 0.23458 0.0
C1293 C 0.79496 0.784 0.23603 0.0
C1294 C 0.7316 0.70639 0.24939 0.0
C1295 C 0.75073 0.75121 0.24182 0.0
C1296 C 0.70941 0.69032 0.25276 0.0
C1297 C 0.68343 0.70098 0.25166 0.0
C1298 C 0.72768 0.73325 0.24485 0.0
C1299 C 0.68029 0.72756 0.24655 0.0
C1300 C 0.74678 0.77815 0.23742 0.0
C1301 C 0.79813 0.75727 0.2408 0.0
N1302 N 0.70219 0.74288 0.24343 0.0
N1303 N 0.77623 0.7417 0.24346 0.0
H1304 H 0.5142 0.5425 0.96188 0.0
H1305 H 0.46379 0.44695 0.03093 0.0
H1306 H 0.54067 0.55002 0.00981 0.0
H1307 H 0.44208 0.43569 0.98244 0.0
H1308 H 0.48975 0.48646 0.02368 0.0
H1309 H 0.48638 0.5044 0.96931 0.0
C1310 C 0.51471 0.53572 0.97391 0.0
C1311 C 0.53049 0.54884 0.98517 0.0
C1312 C 0.47908 0.47555 0.01463 0.0
C1313 C 0.49773 0.50593 0.9939 0.0
C1314 C 0.46387 0.4532 0.0188 0.0
C1315 C 0.45018 0.43846 0.0073 0.0
C1316 C 0.48081 0.48305 -0.00118 0.0
C1317 C 0.45218 0.44672 0.99166 0.0
C1318 C 0.49846 0.51419 0.9782 0.0
C1319 C 0.52906 0.54016 0.00075 0.0
N1320 N 0.46722 0.46851 0.98786 0.0
N1321 N 0.51301 0.51915 0.00467 0.0
H1322 H 0.0003 0.57612 0.49968 0.0
H1323 H 0.98627 0.41612 0.49582 0.0
H1324 H 0.06609 0.52152 0.50791 0.0
H1325 H 0.92153 0.47064 0.48498 0.0
H1326 H 0.01534 0.45452 0.50146 0.0
H1327 H 0.97088 0.53777 0.49452 0.0
C1328 C 0.0085 0.55598 0.50038 0.0
C1329 C 0.0354 0.55179 0.50456 0.0
C1330 C -0.00519 0.45814 0.49782 0.0
C1331 C 0.00204 0.50796 0.49874 0.0
C1332 C 0.97821 0.43626 0.4947 0.0
C1333 C 0.95175 0.44042 0.48965 0.0
C1334 C 0.98473 0.4843 0.49599 0.0
C1335 C 0.94211 0.46675 0.48841 0.0
C1336 C 0.99172 0.53414 0.49751 0.0
C1337 C 0.0452 0.52546 0.50525 0.0
N1338 N 0.95866 0.48778 0.49151 0.0
N1339 N 0.02847 0.50446 0.50242 0.0
H1340 H 0.06785 0.47402 0.97929 0.0
H1341 H 0.92497 0.50984 0.0172 0.0
H1342 H 0.01453 0.41512 -0.00057 0.0
H1343 H 0.97644 0.56831 0.99512 0.0
H1344 H 0.95779 0.47474 0.011 0.0
H1345 H 0.03512 0.50921 0.98554 0.0
C1346 C 0.04914 0.46857 0.98495 0.0
C1347 C 0.04348 0.44174 0.98858 0.0
C1348 C 0.96194 0.49524 0.00751 0.0
C1349 C 0.00628 0.48161 -0.00404 0.0
C1350 C 0.94328 0.51519 0.01109 0.0
C1351 C 0.94839 0.54187 0.00688 0.0
C1352 C 0.98576 0.50213 -0.00038 0.0
C1353 C 0.97194 0.54787 -0.0014 0.0
C1354 C 0.03055 0.48859 0.98857 0.0
C1355 C 0.01948 0.43566 -0.00361 0.0
N1356 N 0.98989 0.52815 0.99532 0.0
N1357 N 0.00165 0.45544 -0.00025 0.0
H1358 H 0.56754 0.4753 0.51076 0.0
H1359 H 0.42225 0.52622 0.48343 0.0
H1360 H 0.50435 0.42244 0.49511 0.0
H1361 H 0.48869 0.57949 0.49282 0.0
H1362 H 0.45129 0.48781 0.48916 0.0
H1363 H 0.53834 0.51395 0.50552 0.0
C1364 C 0.54743 0.47193 0.5063 0.0
C1365 C 0.53804 0.44585 0.50357 0.0
C1366 C 0.45957 0.50789 0.4899 0.0
C1367 C 0.50477 0.48959 0.49741 0.0
C1368 C 0.44307 0.52975 0.48649 0.0
C1369 C 0.4534 0.55587 0.48722 0.0
C1370 C 0.48648 0.51232 0.4942 0.0
C1371 C 0.48008 0.55955 0.49203 0.0
C1372 C 0.53085 0.4939 0.50324 0.0
C1373 C 0.5122 0.44236 0.49738 0.0
N1374 N 0.4958 0.53797 0.49526 0.0
N1375 N 0.49636 0.46402 0.49459 0.0
H1376 H 0.32515 0.20077 0.17264 0.0
H1377 H 0.34118 0.25371 0.0851 0.0
H1378 H 0.36456 0.15617 0.13581 0.0
H1379 H 0.32799 0.30504 0.12516 0.0
H1380 H 0.33584 0.21444 0.10194 0.0
H1381 H 0.31201 0.23471 0.15355 0.0
C1382 C 0.33048 0.19768 0.16049 0.0
C1383 C 0.34651 0.17576 0.15592 0.0
C1384 C 0.33366 0.2343 0.10697 0.0
C1385 C 0.33158 0.21481 0.13402 0.0
C1386 C 0.33664 0.25679 0.09738 0.0
C1387 C 0.33559 0.28279 0.1038 0.0
C1388 C 0.32938 0.23779 0.12308 0.0
C1389 C 0.32937 0.28541 0.11975 0.0
C1390 C 0.32307 0.21722 0.14961 0.0
C1391 C 0.35258 0.1729 0.13994 0.0
N1392 N 0.32682 0.26318 0.12889 0.0
N1393 N 0.34545 0.19243 0.1296 0.0
H1394 H 0.97435 0.08455 0.33617 0.0
H1395 H 0.08064 0.11858 0.38439 0.0
H1396 H 0.92829 0.09302 0.37875 0.0
H1397 H 0.03288 0.08648 0.42226 0.0
H1398 H 0.04522 0.10593 0.36606 0.0
H1399 H 0.01529 0.08079 0.35179 0.0
C1400 C 0.97278 0.08531 0.34882 0.0
C1401 C 0.94787 0.08978 0.35616 0.0
C1402 C 0.04283 0.1008 0.3783 0.0
C1403 C -0.00521 0.08614 0.37406 0.0
C1404 C 0.06306 0.10822 0.38881 0.0
C1405 C 0.0597 0.10386 0.40493 0.0
C1406 C 0.01901 0.0891 0.38399 0.0
C1407 C 0.0364 0.09039 0.40996 0.0
C1408 C -0.00375 0.08346 0.35772 0.0
C1409 C 0.94707 0.09009 0.37258 0.0
N1410 N 0.01675 0.08401 0.39958 0.0
N1411 N 0.97024 0.08861 0.38097 0.0
H1412 H 0.11253 0.82574 0.63574 0.0
H1413 H 0.1594 0.67647 0.62458 0.0
H1414 H 0.15485 0.78223 0.67189 0.0
H1415 H 0.14678 0.72967 0.58531 0.0
H1416 H 0.16028 0.71552 0.64198 0.0
H1417 H 0.12687 0.79182 0.61673 0.0
C1418 C 0.12521 0.80935 0.63964 0.0
C1419 C 0.13224 0.80673 0.65549 0.0
C1420 C 0.15783 0.71867 0.62951 0.0
C1421 C 0.14834 0.76765 0.63387 0.0
C1422 C 0.15733 0.69637 0.61958 0.0
C1423 C 0.15264 0.69974 0.6035 0.0
C1424 C 0.15308 0.74443 0.62335 0.0
C1425 C 0.15022 0.72605 0.59765 0.0
C1426 C 0.13344 0.79001 0.62878 0.0
C1427 C 0.14883 0.7851 0.65984 0.0
N1428 N 0.14992 0.74734 0.60761 0.0
N1429 N 0.15589 0.76615 0.64916 0.0
H1430 H 0.49384 0.88648 0.83011 0.0
H1431 H 0.44597 0.91054 0.91801 0.0
H1432 H 0.54635 0.91149 0.86767 0.0
H1433 H 0.39932 0.86808 0.88326 0.0
H1434 H 0.47837 0.92269 0.89784 0.0
H1435 H 0.45541 0.89121 0.84764 0.0
C1436 C 0.49729 0.89338 0.84197 0.0
C1437 C 0.52348 0.89807 0.84752 0.0
C1438 C 0.46079 0.91112 0.89458 0.0
C1439 C 0.47944 0.90348 0.86764 0.0
C1440 C 0.44212 0.90428 0.90609 0.0
C1441 C 0.42003 0.88782 0.90243 0.0
C1442 C 0.4574 0.90147 0.87927 0.0
C1443 C 0.41621 0.88047 0.8867 0.0
C1444 C 0.47529 0.89603 0.85197 0.0
C1445 C 0.52659 0.90729 0.86295 0.0
N1446 N 0.43493 0.88701 0.87574 0.0
N1447 N 0.50486 0.90936 0.87253 0.0
H1448 H 0.36436 0.83143 0.35637 0.0
H1449 H 0.33039 0.67863 0.36405 0.0
H1450 H 0.32683 0.78647 0.31904 0.0
H1451 H 0.3401 0.72995 0.40445 0.0
H1452 H 0.3247 0.71862 0.34773 0.0
H1453 H 0.3512 0.79618 0.37476 0.0
C1454 C 0.35279 0.81452 0.35208 0.0
C1455 C 0.34719 0.81173 0.33605 0.0
C1456 C 0.32756 0.7211 0.36023 0.0
C1457 C 0.33257 0.77103 0.35698 0.0
C1458 C 0.33084 0.69825 0.36954 0.0
C1459 C 0.33623 0.70091 0.38559 0.0
C1460 C 0.33016 0.74676 0.36697 0.0
C1461 C 0.33636 0.72689 0.39209 0.0
C1462 C 0.34532 0.79434 0.3626 0.0
C1463 C 0.33195 0.7894 0.33123 0.0
N1464 N 0.33396 0.7488 0.38271 0.0
N1465 N 0.32573 0.76963 0.34157 0.0
H1466 H 0.41052 0.12399 0.60509 0.0
H1467 H 0.55997 0.07655 0.61613 0.0
H1468 H 0.45419 0.0817 0.56899 0.0
H1469 H 0.50753 0.0932 0.65525 0.0
H1470 H 0.52065 0.07488 0.59895 0.0
H1471 H 0.44454 0.10999 0.62409 0.0
C1472 C 0.42698 0.1114 0.6012 0.0
C1473 C 0.42964 0.10431 0.58537 0.0
C1474 C 0.51772 0.07841 0.61135 0.0
C1475 C 0.46883 0.08855 0.60699 0.0
C1476 C 0.54018 0.07935 0.62116 0.0
C1477 C 0.53712 0.08552 0.63709 0.0
C1478 C 0.49212 0.0841 0.61749 0.0
C1479 C 0.51093 0.08876 0.643 0.0
C1480 C 0.44639 0.10337 0.61206 0.0
C1481 C 0.45134 0.0878 0.58103 0.0
N1482 N 0.48951 0.08855 0.63315 0.0
N1483 N 0.47034 0.0809 0.59171 0.0
H1484 H 0.13816 0.24722 0.90877 0.0
H1485 H 0.15409 0.20176 0.81973 0.0
H1486 H 0.15632 0.30139 0.8707 0.0
H1487 H 0.11828 0.15257 0.85581 0.0
H1488 H 0.16673 0.23461 0.83959 0.0
H1489 H 0.14237 0.20935 0.89077 0.0
C1490 C 0.14344 0.25117 0.89668 0.0
C1491 C 0.14637 0.27762 0.89117 0.0
C1492 C 0.15651 0.21641 0.84319 0.0
C1493 C 0.15119 0.23424 0.87052 0.0
C1494 C 0.1494 0.1975 0.83186 0.0
C1495 C 0.13464 0.17451 0.83604 0.0
C1496 C 0.14887 0.21233 0.85883 0.0
C1497 C 0.12929 0.17016 0.85199 0.0
C1498 C 0.1458 0.22949 0.88641 0.0
C1499 C 0.15352 0.2814 0.87542 0.0
N1500 N 0.13607 0.18908 0.86277 0.0
N1501 N 0.15535 0.25996 0.8656 0.0
H1502 H 0.9828 0.89017 0.15969 0.0
H1503 H 0.03454 0.90577 0.07186 0.0
H1504 H 0.93147 0.90974 0.1205 0.0
H1505 H 0.07554 0.8584 0.10687 0.0
H1506 H 0.00217 0.91996 0.09155 0.0
H1507 H 0.02167 0.89132 0.14224 0.0
C1508 C 0.97971 0.89527 0.14748 0.0
C1509 C 0.9537 0.89939 0.14148 0.0
C1510 C 0.01851 0.90681 0.09497 0.0
C1511 C -0.00178 0.90076 0.12153 0.0
C1512 C 0.03716 0.89877 0.08375 0.0
C1513 C 0.05768 0.88051 0.08762 0.0
C1514 C 0.02038 0.89668 0.11023 0.0
C1515 C 0.05989 0.87222 0.10329 0.0
C1516 C 0.00194 0.89579 0.13755 0.0
C1517 C 0.95106 0.90608 0.12559 0.0
N1518 N 0.04126 0.88014 0.114 0.0
N1519 N 0.97303 0.90629 0.11613 0.0
H1520 H 0.63845 0.73503 0.90849 0.0
H1521 H 0.65539 0.78684 0.82076 0.0
H1522 H 0.65928 0.68381 0.86949 0.0
H1523 H 0.60584 0.82682 0.85514 0.0
H1524 H 0.66942 0.75472 0.84062 0.0
H1525 H 0.6392 0.77382 0.89097 0.0
C1526 C 0.64376 0.73196 0.89631 0.0
C1527 C 0.64835 0.706 0.89037 0.0
C1528 C 0.65582 0.77079 0.84386 0.0
C1529 C 0.64928 0.7504 0.87036 0.0
C1530 C 0.64786 0.7893 0.83255 0.0
C1531 C 0.62908 0.80946 0.83619 0.0
C1532 C 0.64509 0.77245 0.85899 0.0
C1533 C 0.6201 0.81146 0.85174 0.0
C1534 C 0.64404 0.75414 0.88633 0.0
C1535 C 0.65527 0.70337 0.87452 0.0
N1536 N 0.62799 0.79297 0.86255 0.0
N1537 N 0.65526 0.72529 0.86502 0.0
H1538 H -0.00291 0.88432 0.65889 0.0
H1539 H 0.94866 0.90922 0.57118 0.0
H1540 H 0.04963 0.90755 0.62098 0.0
H1541 H 0.90255 0.86568 0.60571 0.0
H1542 H 0.98101 0.92132 0.5914 0.0
H1543 H 0.95851 0.88971 0.64151 0.0
C1544 C 0.00053 0.89096 0.64698 0.0
C1545 C 0.02674 0.89496 0.64129 0.0
C1546 C 0.96354 0.90956 0.59461 0.0
C1547 C 0.98255 0.9012 0.62137 0.0
C1548 C 0.94488 0.90276 0.58308 0.0
C1549 C 0.92303 0.88593 0.58665 0.0
C1550 C 0.96034 0.89952 0.60984 0.0
C1551 C 0.91928 0.87833 0.60234 0.0
C1552 C 0.97845 0.894 0.63707 0.0
C1553 C 0.02985 0.90386 0.6258 0.0
N1554 N 0.938 0.88483 0.61332 0.0
N1555 N 0.00803 0.90637 0.61632 0.0
H1556 H 0.86133 0.15454 0.35956 0.0
H1557 H 0.82523 0.30789 0.37106 0.0
H1558 H 0.82573 0.20349 0.3233 0.0
H1559 H 0.8473 0.25508 0.40908 0.0
H1560 H 0.81905 0.2686 0.35422 0.0
H1561 H 0.84993 0.18911 0.37872 0.0
C1562 C 0.85061 0.17227 0.35566 0.0
C1563 C 0.84496 0.17628 0.33972 0.0
C1564 C 0.82483 0.26559 0.36633 0.0
C1565 C 0.83227 0.21622 0.36158 0.0
C1566 C 0.82836 0.28805 0.37595 0.0
C1567 C 0.83734 0.28484 0.39141 0.0
C1568 C 0.83057 0.2398 0.37218 0.0
C1569 C 0.84083 0.25859 0.39715 0.0
C1570 C 0.84415 0.19207 0.36662 0.0
C1571 C 0.8308 0.1996 0.33541 0.0
N1572 N 0.83787 0.23714 0.38747 0.0
N1573 N 0.82544 0.21891 0.34622 0.0
H1574 H 0.53562 0.07831 0.07127 0.0
H1575 H 0.48239 0.09431 0.15878 0.0
H1576 H 0.58193 0.11346 0.10885 0.0
H1577 H 0.43113 0.08039 0.11875 0.0
H1578 H 0.52171 0.08877 0.142 0.0
H1579 H 0.50077 0.06624 0.09003 0.0
C1580 C 0.53884 0.08294 0.08351 0.0
C1581 C 0.56164 0.09738 0.08842 0.0
C1582 C 0.50186 0.08653 0.13695 0.0
C1583 C 0.5215 0.08378 0.10994 0.0
C1584 C 0.47935 0.08965 0.14651 0.0
C1585 C 0.45335 0.08837 0.14009 0.0
C1586 C 0.49841 0.08199 0.12086 0.0
C1587 C 0.45076 0.08193 0.12416 0.0
C1588 C 0.51878 0.07615 0.09421 0.0
C1589 C 0.56458 0.10268 0.10448 0.0
N1590 N 0.47302 0.07932 0.11504 0.0
N1591 N 0.54454 0.09622 0.11464 0.0
H1592 H 0.66094 0.30116 0.61541 0.0
H1593 H 0.62234 0.14935 0.63221 0.0
H1594 H 0.63207 0.24623 0.58005 0.0
H1595 H 0.65885 0.20153 0.66657 0.0
H1596 H 0.63297 0.18218 0.61192 0.0
H1597 H 0.6672 0.26319 0.63323 0.0
C1598 C 0.65629 0.2811 0.6113 0.0
C1599 C 0.64546 0.27697 0.59631 0.0
C1600 C 0.63911 0.18626 0.62385 0.0
C1601 C 0.65239 0.23342 0.61668 0.0
C1602 C 0.6331 0.16744 0.63546 0.0
C1603 C 0.63925 0.17286 0.6512 0.0
C1604 C 0.65106 0.21084 0.62802 0.0
C1605 C 0.65344 0.19656 0.65465 0.0
C1606 C 0.65988 0.2594 0.62149 0.0
C1607 C 0.64005 0.25047 0.59159 0.0
N1608 N 0.65839 0.2149 0.64321 0.0
N1609 N 0.64319 0.22979 0.6018 0.0
H1610 H 0.48374 0.89323 0.33311 0.0
H1611 H 0.53758 0.91437 0.42006 0.0
H1612 H 0.43293 0.91141 0.37273 0.0
H1613 H 0.58266 0.87546 0.38327 0.0
H1614 H 0.50317 0.92655 0.40101 0.0
H1615 H 0.52322 0.89963 0.34963 0.0
C1616 C 0.48084 0.89897 0.34524 0.0
C1617 C 0.45491 0.90119 0.35164 0.0
C1618 C 0.52086 0.91581 0.39706 0.0
C1619 C 0.50017 0.90858 0.37059 0.0
C1620 C 0.54067 0.90896 0.40792 0.0
C1621 C 0.56285 0.89331 0.40336 0.0
C1622 C 0.52328 0.90708 0.38151 0.0
C1623 C 0.56571 0.88712 0.3874 0.0
C1624 C 0.50345 0.90261 0.35465 0.0
C1625 C 0.4525 0.9091 0.36735 0.0
N1626 N 0.54593 0.89366 0.37709 0.0
N1627 N 0.47486 0.91214 0.37636 0.0
H1628 H 0.86918 0.83398 0.13583 0.0
H1629 H 0.82275 0.68411 0.12056 0.0
H1630 H 0.82975 0.78497 0.17068 0.0
H1631 H 0.8506 0.7373 0.08405 0.0
H1632 H 0.81915 0.72263 0.1382 0.0
H1633 H 0.85652 0.80124 0.11584 0.0
C1634 C 0.85742 0.81663 0.13926 0.0
C1635 C 0.85095 0.81204 0.15504 0.0
C1636 C 0.82565 0.72594 0.12625 0.0
C1637 C 0.83675 0.77422 0.13222 0.0
C1638 C 0.8277 0.70392 0.11617 0.0
C1639 C 0.8375 0.70736 0.10089 0.0
C1640 C 0.8337 0.75153 0.12107 0.0
C1641 C 0.84337 0.73358 0.09581 0.0
C1642 C 0.85022 0.79788 0.12782 0.0
C1643 C 0.83547 0.78927 0.15871 0.0
N1644 N 0.8418 0.75456 0.10594 0.0
N1645 N 0.82933 0.77099 0.14745 0.0
H1646 H 0.90682 0.13225 0.88629 0.0
H1647 H 0.00314 0.09053 0.83318 0.0
H1648 H 0.95154 0.08696 0.92068 0.0
H1649 H 0.05357 0.08808 0.87434 0.0
H1650 H 0.96347 0.09021 0.85001 0.0
H1651 H 0.93921 0.11843 0.86636 0.0
C1652 C 0.92305 0.11887 0.88958 0.0
C1653 C 0.9265 0.11091 0.90522 0.0
C1654 C 0.9832 0.08968 0.85535 0.0
C1655 C 0.96363 0.09485 0.88246 0.0
C1656 C 0.00591 0.08954 0.84575 0.0
C1657 C 0.03179 0.08995 0.85238 0.0
C1658 C 0.98642 0.09018 0.87168 0.0
C1659 C 0.03405 0.08825 0.86872 0.0
C1660 C 0.94147 0.11079 0.87815 0.0
C1661 C 0.948 0.09362 0.9088 0.0
N1662 N 0.01164 0.0887 0.87782 0.0
N1663 N 0.96602 0.08663 0.89758 0.0
H1664 H 0.8498 0.74898 0.58109 0.0
H1665 H 0.83136 0.69933 0.66914 0.0
H1666 H 0.82654 0.80076 0.61936 0.0
H1667 H 0.8775 0.65656 0.63429 0.0
H1668 H 0.81742 0.73139 0.64917 0.0
H1669 H 0.84766 0.71045 0.5987 0.0
C1670 C 0.84376 0.75224 0.59313 0.0
C1671 C 0.8389 0.77828 0.59885 0.0
C1672 C 0.83023 0.71473 0.64585 0.0
C1673 C 0.83643 0.73415 0.61902 0.0
C1674 C 0.83811 0.69626 0.65723 0.0
C1675 C 0.85597 0.67535 0.65346 0.0
C1676 C 0.84016 0.71226 0.63055 0.0
C1677 C 0.86401 0.67255 0.63778 0.0
C1678 C 0.84262 0.73019 0.60317 0.0
C1679 C 0.83083 0.78113 0.6145 0.0
N1680 N 0.85628 0.691 0.62693 0.0
N1681 N 0.83018 0.75936 0.62411 0.0
H1682 H 0.43474 0.5746 0.86866 0.0
H1683 H 0.5435 0.57221 0.91844 0.0
H1684 H 0.48971 0.60223 0.83301 0.0
H1685 H 0.57843 0.62728 0.88512 0.0
H1686 H 0.51067 0.55871 0.89884 0.0
H1687 H 0.47229 0.57039 0.88678 0.0
C1688 C 0.45481 0.57917 0.86453 0.0
C1689 C 0.45898 0.58915 0.84936 0.0
C1690 C 0.52541 0.57381 0.89579 0.0
C1691 C 0.50241 0.58402 0.87001 0.0
C1692 C 0.54447 0.5813 0.90696 0.0
C1693 C 0.56336 0.60148 0.90362 0.0
C1694 C 0.52503 0.58684 0.8812 0.0
C1695 C 0.56398 0.612 0.88836 0.0
C1696 C 0.47642 0.57656 0.87488 0.0
C1697 C 0.48546 0.59476 0.84466 0.0
N1698 N 0.5448 0.60486 0.87781 0.0
N1699 N 0.50606 0.59257 0.85502 0.0
H1700 H 0.64939 0.22792 0.0868 0.0
H1701 H 0.65586 0.28233 0.17454 0.0
H1702 H 0.65605 0.17691 0.12755 0.0
H1703 H 0.62335 0.32756 0.13572 0.0
H1704 H 0.66947 0.24708 0.15636 0.0
H1705 H 0.65341 0.26731 0.10368 0.0
C1706 C 0.65222 0.22493 0.09927 0.0
C1707 C 0.65181 0.19901 0.10582 0.0
C1708 C 0.65976 0.26493 0.15181 0.0
C1709 C 0.65645 0.24412 0.12514 0.0
C1710 C 0.65204 0.28517 0.16216 0.0
C1711 C 0.63792 0.30778 0.1567 0.0
C1712 C 0.65349 0.26733 0.13586 0.0
C1713 C 0.63382 0.31033 0.14049 0.0
C1714 C 0.65443 0.24748 0.10888 0.0
C1715 C 0.65585 0.19648 0.12202 0.0
N1716 N 0.64126 0.29016 0.13066 0.0
N1717 N 0.65767 0.21878 0.13116 0.0
H1718 H 0.95334 0.41106 0.42358 0.0
H1719 H 0.00574 0.39407 0.33595 0.0
H1720 H 0.90757 0.37328 0.38665 0.0
H1721 H 0.05757 0.40623 0.37591 0.0
H1722 H 0.96666 0.40003 0.35287 0.0
H1723 H 0.98774 0.42318 0.40453 0.0
C1724 C 0.9501 0.40589 0.41141 0.0
C1725 C 0.92767 0.39062 0.40679 0.0
C1726 C 0.9866 0.40182 0.35788 0.0
C1727 C 0.96725 0.40436 0.38495 0.0
C1728 C 0.00897 0.39847 0.34823 0.0
C1729 C 0.03504 0.3991 0.35458 0.0
C1730 C 0.99026 0.40602 0.37397 0.0
C1731 C 0.03788 0.40519 0.37055 0.0
C1732 C 0.96991 0.4127 0.40056 0.0
C1733 C 0.92467 0.38469 0.39081 0.0
N1734 N 0.01574 0.4081 0.37974 0.0
N1735 N 0.94445 0.39123 0.38049 0.0
H1736 H 0.82399 0.18899 0.87357 0.0
H1737 H 0.86443 0.33996 0.85815 0.0
H1738 H 0.8473 0.24405 0.91023 0.0
H1739 H 0.82844 0.28891 0.82303 0.0
H1740 H 0.85131 0.3076 0.87821 0.0
H1741 H 0.81862 0.22706 0.85577 0.0
C1742 C 0.82755 0.2091 0.87796 0.0
C1743 C 0.83667 0.21326 0.89332 0.0
C1744 C 0.8458 0.30371 0.86615 0.0
C1745 C 0.83084 0.25692 0.87297 0.0
C1746 C 0.85327 0.32225 0.85467 0.0
C1747 C 0.84803 0.31693 0.83882 0.0
C1748 C 0.83336 0.27952 0.86172 0.0
C1749 C 0.83323 0.29375 0.83506 0.0
C1750 C 0.82447 0.23086 0.86778 0.0
C1751 C 0.84067 0.23981 0.8984 0.0
N1752 N 0.82691 0.27564 0.84638 0.0
N1753 N 0.8382 0.26057 0.88818 0.0
H1754 H 0.94434 0.57199 0.07499 0.0
H1755 H 0.00023 0.59826 0.16109 0.0
H1756 H 0.90757 0.62663 0.10792 0.0
H1757 H 0.04978 0.57223 0.12242 0.0
H1758 H 0.96079 0.59568 0.14417 0.0
H1759 H 0.977 0.55923 0.09493 0.0
C1760 C 0.94274 0.58097 0.08647 0.0
C1761 C 0.92349 0.60094 0.08962 0.0
C1762 C 0.98024 0.59012 0.13949 0.0
C1763 C 0.96083 0.58617 0.11254 0.0
C1764 C 0.00282 0.5915 0.14912 0.0
C1765 C 0.02851 0.58597 0.14306 0.0
C1766 C 0.98329 0.58289 0.12373 0.0
C1767 C 0.03045 0.57705 0.12752 0.0
C1768 C 0.96149 0.57368 0.09784 0.0
C1769 C 0.92229 0.61149 0.10486 0.0
N1770 N 0.00815 0.57607 0.11831 0.0
N1771 N 0.94094 0.60421 0.11571 0.0
H1772 H 0.64609 0.75849 0.40483 0.0
H1773 H 0.6542 0.706 0.31674 0.0
H1774 H 0.65425 0.81046 0.3646 0.0
H1775 H 0.62304 0.65934 0.35535 0.0
H1776 H 0.6672 0.74121 0.33514 0.0
H1777 H 0.65067 0.71952 0.3877 0.0
C1778 C 0.64929 0.76177 0.39242 0.0
C1779 C 0.64919 0.78783 0.38609 0.0
C1780 C 0.65791 0.72306 0.33959 0.0
C1781 C 0.65445 0.74319 0.36645 0.0
C1782 C 0.65053 0.70287 0.32911 0.0
C1783 C 0.63694 0.67986 0.33446 0.0
C1784 C 0.65184 0.72019 0.35554 0.0
C1785 C 0.63307 0.67688 0.35065 0.0
C1786 C 0.65186 0.73946 0.38266 0.0
C1787 C 0.65381 0.79076 0.36996 0.0
N1788 N 0.64017 0.69699 0.3606 0.0
N1789 N 0.6559 0.76867 0.36066 0.0
H1790 H 0.53511 0.4096 0.56958 0.0
H1791 H 0.48472 0.38987 0.65743 0.0
H1792 H 0.57585 0.35992 0.6036 0.0
H1793 H 0.43249 0.41084 0.61889 0.0
H1794 H 0.52324 0.39216 0.63978 0.0
H1795 H 0.50312 0.4232 0.5897 0.0
C1796 C 0.53776 0.40198 0.58135 0.0
C1797 C 0.55801 0.38318 0.58481 0.0
C1798 C 0.50339 0.3967 0.63527 0.0
C1799 C 0.5213 0.39876 0.60788 0.0
C1800 C 0.48135 0.3955 0.64533 0.0
C1801 C 0.4552 0.39965 0.63955 0.0
C1802 C 0.49933 0.40237 0.61937 0.0
C1803 C 0.45221 0.40711 0.6238 0.0
C1804 C 0.51935 0.4097 0.59281 0.0
C1805 C 0.56037 0.37415 0.60033 0.0
N1806 N 0.474 0.40794 0.6142 0.0
N1807 N 0.54203 0.3818 0.61127 0.0
H1808 H 0.16141 0.17721 0.36624 0.0
H1809 H 0.12357 0.32919 0.35752 0.0
H1810 H 0.15169 0.22972 0.40611 0.0
H1811 H 0.15823 0.28295 0.31977 0.0
H1812 H 0.13867 0.29485 0.37599 0.0
H1813 H 0.16545 0.21668 0.34938 0.0
C1814 C 0.16065 0.197 0.3715 0.0
C1815 C 0.15564 0.20012 0.38756 0.0
C1816 C 0.14347 0.29252 0.3637 0.0
C1817 C 0.15979 0.24539 0.36832 0.0
C1818 C 0.13485 0.31216 0.35313 0.0
C1819 C 0.13914 0.30875 0.33701 0.0
C1820 C 0.15606 0.26914 0.35806 0.0
C1821 C 0.1541 0.28633 0.33205 0.0
C1822 C 0.16296 0.21957 0.36187 0.0
C1823 C 0.15511 0.22631 0.39375 0.0
N1824 N 0.1615 0.26712 0.34249 0.0
N1825 N 0.15655 0.24792 0.38408 0.0
H1826 H 0.56087 0.40494 0.11537 0.0
H1827 H 0.40769 0.3696 0.10778 0.0
H1828 H 0.50919 0.39641 0.1557 0.0
H1829 H 0.4536 0.40393 0.06979 0.0
H1830 H 0.44307 0.38336 0.12599 0.0
H1831 H 0.52102 0.40878 0.09876 0.0
C1832 C 0.54118 0.40435 0.12078 0.0
C1833 C 0.53841 0.39988 0.13691 0.0
C1834 C 0.44511 0.38837 0.11371 0.0
C1835 C 0.4927 0.4038 0.11796 0.0
C1836 C 0.42487 0.38054 0.1033 0.0
C1837 C 0.42781 0.38518 0.08717 0.0
C1838 C 0.4686 0.40054 0.1079 0.0
C1839 C 0.45051 0.39961 0.08208 0.0
C1840 C 0.5184 0.40656 0.11129 0.0
C1841 C 0.51234 0.39951 0.14328 0.0
N1842 N 0.47024 0.40627 0.09235 0.0
N1843 N 0.4905 0.40087 0.13376 0.0
H1844 H 0.34455 0.75372 0.90755 0.0
H1845 H 0.32698 0.69885 0.82046 0.0
H1846 H 0.32405 0.80394 0.86806 0.0
H1847 H 0.37723 0.66069 0.8552 0.0
H1848 H 0.31299 0.73176 0.83995 0.0
H1849 H 0.34344 0.71444 0.89043 0.0
C1850 C 0.33926 0.75648 0.89535 0.0
C1851 C 0.33487 0.7823 0.88916 0.0
C1852 C 0.32674 0.71591 0.84335 0.0
C1853 C 0.33351 0.73731 0.86958 0.0
C1854 C 0.3347 0.69699 0.83225 0.0
C1855 C 0.35373 0.67717 0.83608 0.0
C1856 C 0.33764 0.7149 0.85847 0.0
C1857 C 0.36283 0.67581 0.85163 0.0
C1858 C 0.33875 0.73401 0.88559 0.0
C1859 C 0.32792 0.7845 0.87328 0.0
N1860 N 0.3549 0.69462 0.86223 0.0
N1861 N 0.32772 0.76231 0.86399 0.0
H1862 H 0.08718 0.61465 0.60577 0.0
H1863 H 0.93431 0.57838 0.61926 0.0
H1864 H 0.03542 0.58396 0.56929 0.0
H1865 H 0.98974 0.59575 0.65686 0.0
H1866 H 0.97238 0.57395 0.60136 0.0
H1867 H 0.05368 0.6015 0.62519 0.0
C1868 C 0.06901 0.60471 0.60185 0.0
C1869 C 0.06393 0.60088 0.58583 0.0
C1870 C 0.97625 0.57829 0.61359 0.0
C1871 C 0.02527 0.58614 0.60801 0.0
C1872 C 0.95449 0.58082 0.62382 0.0
C1873 C 0.95879 0.588 0.63951 0.0
C1874 C 0.00244 0.58326 0.61906 0.0
C1875 C 0.98541 0.59064 0.64479 0.0
C1876 C 0.04985 0.59721 0.61296 0.0
C1877 C 0.04012 0.58763 0.58149 0.0
N1878 N 0.00618 0.58873 0.63454 0.0
N1879 N 0.02146 0.5812 0.59248 0.0
H1880 H 0.11719 0.651 0.13617 0.0
H1881 H 0.16029 0.8014 0.12067 0.0
H1882 H 0.15557 0.7008 0.17103 0.0
H1883 H 0.13654 0.74671 0.08391 0.0
H1884 H 0.16453 0.76325 0.13854 0.0
H1885 H 0.12992 0.68358 0.11611 0.0
C1886 C 0.12876 0.66848 0.13958 0.0
C1887 C 0.13491 0.67333 0.15538 0.0
C1888 C 0.15883 0.75955 0.12649 0.0
C1889 C 0.14916 0.71099 0.1325 0.0
C1890 C 0.1564 0.78136 0.11628 0.0
C1891 C 0.14753 0.77735 0.10085 0.0
C1892 C 0.15203 0.7336 0.12128 0.0
C1893 C 0.14302 0.75085 0.09578 0.0
C1894 C 0.13601 0.68713 0.12811 0.0
C1895 C 0.15015 0.69627 0.15905 0.0
N1896 N 0.14487 0.73007 0.10603 0.0
N1897 N 0.15629 0.71448 0.14776 0.0
H1898 H 0.98343 0.39156 0.83484 0.0
H1899 H 0.03925 0.40891 0.92178 0.0
H1900 H 0.93334 0.41014 0.8747 0.0
H1901 H 0.07813 0.36023 0.88658 0.0
H1902 H 0.00567 0.42236 0.90253 0.0
H1903 H 0.02295 0.39314 0.85179 0.0
C1904 C 0.98074 0.39653 0.84709 0.0
C1905 C 0.95492 0.40027 0.85342 0.0
C1906 C 0.02182 0.40909 0.89898 0.0
C1907 C 0.00016 0.40218 0.87281 0.0
C1908 C 0.04113 0.40146 0.90994 0.0
C1909 C 0.06138 0.38301 0.9059 0.0
C1910 C 0.02286 0.39844 0.88379 0.0
C1911 C 0.06271 0.37419 0.89029 0.0
C1912 C 0.00334 0.39731 0.85675 0.0
C1913 C 0.95279 0.40678 0.86937 0.0
N1914 N 0.04353 0.38178 0.87983 0.0
N1915 N 0.97512 0.40728 0.87856 0.0
H1916 H 0.32771 0.18282 0.62034 0.0
H1917 H 0.36835 0.33419 0.6344 0.0
H1918 H 0.34966 0.237 0.58297 0.0
H1919 H 0.33155 0.2844 0.66984 0.0
H1920 H 0.35553 0.30113 0.61462 0.0
H1921 H 0.32299 0.22133 0.63789 0.0
C1922 C 0.33113 0.20282 0.61576 0.0
C1923 C 0.33961 0.20661 0.60025 0.0
C1924 C 0.34978 0.29769 0.62669 0.0
C1925 C 0.33454 0.25078 0.6203 0.0
C1926 C 0.35706 0.31663 0.638 0.0
C1927 C 0.35147 0.31189 0.65387 0.0
C1928 C 0.33715 0.2737 0.63132 0.0
C1929 C 0.33658 0.28884 0.65779 0.0
C1930 C 0.32841 0.22484 0.62578 0.0
C1931 C 0.34349 0.23305 0.59491 0.0
N1932 N 0.33042 0.27037 0.64664 0.0
N1933 N 0.34138 0.25406 0.60498 0.0
H1934 H 0.41062 0.6148 0.384 0.0
H1935 H 0.56484 0.58461 0.37656 0.0
H1936 H 0.45831 0.58654 0.42295 0.0
H1937 H 0.51188 0.58619 0.33648 0.0
H1938 H 0.5256 0.58109 0.39366 0.0
H1939 H 0.44627 0.6005 0.36615 0.0
C1940 C 0.42833 0.60515 0.38879 0.0
C1941 C 0.43163 0.60234 0.40504 0.0
C1942 C 0.52259 0.58169 0.3811 0.0
C1943 C 0.47269 0.58631 0.38469 0.0
C1944 C 0.54502 0.58369 0.37133 0.0
C1945 C 0.54166 0.58621 0.35508 0.0
C1946 C 0.49665 0.58266 0.37458 0.0
C1947 C 0.51546 0.58468 0.34896 0.0
C1948 C 0.44869 0.59696 0.37859 0.0
C1949 C 0.45497 0.58947 0.41054 0.0
N1950 N 0.49395 0.58357 0.35873 0.0
N1951 N 0.47481 0.58243 0.40042 0.0
H1952 H 0.54288 0.29556 0.22234 0.0
H1953 H 0.46289 0.18988 0.1737 0.0
H1954 H 0.51789 0.31082 0.17469 0.0
H1955 H 0.43764 0.20442 0.22138 0.0
H1956 H 0.49176 0.22937 0.17512 0.0
H1957 H 0.51048 0.25831 0.22362 0.0
C1958 C 0.53027 0.2914 0.21228 0.0
C1959 C 0.53318 0.30612 0.19834 0.0
C1960 C 0.47997 0.22378 0.18528 0.0
C1961 C 0.49711 0.26349 0.19964 0.0
C1962 C 0.46375 0.20112 0.18456 0.0
C1963 C 0.44783 0.19396 0.19745 0.0
C1964 C 0.48069 0.23905 0.19905 0.0
C1965 C 0.44958 0.20941 0.21118 0.0
C1966 C 0.51192 0.27022 0.21303 0.0
C1967 C 0.51636 0.29998 0.18565 0.0
N1968 N 0.4659 0.23131 0.21168 0.0
N1969 N 0.49941 0.27875 0.1865 0.0
H1970 H 0.9538 0.30022 0.47325 0.0
H1971 H 0.06466 0.22362 0.42455 0.0
H1972 H 0.94353 0.27778 0.42473 0.0
H1973 H 0.04664 0.1968 0.47152 0.0
H1974 H 0.02757 0.25559 0.42627 0.0
H1975 H -0.00579 0.27164 0.4744 0.0
C1976 C 0.95988 0.28909 0.46293 0.0
C1977 C 0.94531 0.29118 0.44889 0.0
C1978 C 0.03208 0.24293 0.43626 0.0
C1979 C 0.99153 0.25979 0.45001 0.0
C1980 C 0.05334 0.22488 0.43536 0.0
C1981 C 0.05845 0.2073 0.44784 0.0
C1982 C 0.0162 0.24369 0.4498 0.0
C1983 C 0.04309 0.20982 0.46158 0.0
C1984 C 0.98286 0.273 0.4636 0.0
C1985 C 0.95403 0.27653 0.43582 0.0
N1986 N 0.02242 0.22765 0.46218 0.0
N1987 N 0.97681 0.26172 0.43664 0.0
H1988 H 0.9858 0.66546 0.69673 0.0
H1989 H 0.00333 0.81951 0.69941 0.0
H1990 H 0.92056 0.71577 0.71267 0.0
H1991 H 0.06896 0.76788 0.71321 0.0
H1992 H 0.97218 0.78199 0.70336 0.0
H1993 H 0.01711 0.70251 0.70175 0.0
C1994 C 0.97815 0.68413 0.70149 0.0
C1995 C 0.95058 0.68767 0.70416 0.0
C1996 C 0.99334 0.77911 0.70582 0.0
C1997 C 0.98599 0.72998 0.70963 0.0
C1998 C 0.01108 0.80042 0.70353 0.0
C1999 C 0.0387 0.79667 0.70589 0.0
C2000 C 0.00349 0.7538 0.71004 0.0
C2001 C 0.04777 0.77158 0.71126 0.0
C2002 C -0.00401 0.70517 0.70442 0.0
C2003 C 0.94168 0.71223 0.71041 0.0
N2004 N 0.03025 0.75085 0.71282 0.0
N2005 N 0.95928 0.73269 0.71262 0.0
H2006 H 0.55447 0.71988 0.92459 0.0
H2007 H 0.44579 0.7996 0.97113 0.0
H2008 H 0.53412 0.69023 0.97067 0.0
H2009 H 0.43206 0.7723 0.92376 0.0
H2010 H 0.48421 0.76849 0.97299 0.0
H2011 H 0.51643 0.7507 0.92596 0.0
C2012 C 0.54234 0.72021 0.93513 0.0
C2013 C 0.54727 0.70236 0.9475 0.0
C2014 C 0.47244 0.76926 0.96232 0.0
C2015 C 0.50402 0.73754 0.94907 0.0
C2016 C 0.45066 0.78686 0.96123 0.0
C2017 C 0.43584 0.78845 0.94726 0.0
C2018 C 0.47969 0.75404 0.94919 0.0
C2019 C 0.44287 0.77161 0.93476 0.0
C2020 C 0.52057 0.73761 0.93581 0.0
C2021 C 0.53078 0.70358 0.96084 0.0
N2022 N 0.46464 0.75541 0.93592 0.0
N2023 N 0.50972 0.72098 0.96131 0.0
H2024 H 0.46218 0.79598 0.31893 0.0
H2025 H 0.53979 0.68951 0.26945 0.0
H2026 H 0.43772 0.78299 0.27097 0.0
H2027 H 0.51712 0.67491 0.31754 0.0
H2028 H 0.50746 0.72678 0.26851 0.0
H2029 H 0.48989 0.75564 0.31754 0.0
C2030 C 0.46298 0.78489 0.30802 0.0
C2031 C 0.44766 0.79279 0.29503 0.0
C2032 C 0.50934 0.71501 0.27913 0.0
C2033 C 0.47913 0.74668 0.29346 0.0
C2034 C 0.52766 0.6938 0.27968 0.0
C2035 C 0.53126 0.6793 0.29364 0.0
C2036 C 0.49524 0.722 0.29273 0.0
C2037 C 0.51503 0.68558 0.30656 0.0
C2038 C 0.47849 0.76173 0.30732 0.0
C2039 C 0.44924 0.77748 0.28124 0.0
N2040 N 0.4981 0.70688 0.30589 0.0
N2041 N 0.46489 0.75509 0.28076 0.0
H2042 H 0.51127 0.32156 0.52806 0.0
H2043 H 0.4635 0.16907 0.52437 0.0
H2044 H 0.56371 0.2546 0.53809 0.0
H2045 H 0.41307 0.23276 0.54219 0.0
H2046 H 0.49918 0.20189 0.51965 0.0
H2047 H 0.47424 0.28996 0.52365 0.0
C2048 C 0.51513 0.30019 0.52898 0.0
C2049 C 0.54045 0.29059 0.53362 0.0
C2050 C 0.48008 0.20865 0.52431 0.0
C2051 C 0.49851 0.25469 0.5284 0.0
C2052 C 0.45968 0.19004 0.52694 0.0
C2053 C 0.43545 0.19822 0.5339 0.0
C2054 C 0.47597 0.2356 0.52837 0.0
C2055 C 0.43161 0.22562 0.53701 0.0
C2056 C 0.49402 0.28229 0.52653 0.0
C2057 C 0.54438 0.26277 0.53472 0.0
N2058 N 0.45179 0.24339 0.53431 0.0
N2059 N 0.52354 0.24572 0.53218 0.0
H2060 H 0.04157 0.19653 0.76945 0.0
H2061 H 0.96461 0.30383 0.8193 0.0
H2062 H 0.01813 0.1818 0.8174 0.0
H2063 H 0.93836 0.28943 0.77179 0.0
H2064 H -0.0062 0.26451 0.81754 0.0
H2065 H 0.01076 0.23518 0.76878 0.0
C2066 C 0.02966 0.20117 0.77972 0.0
C2067 C 0.03238 0.18606 0.79351 0.0
C2068 C 0.98176 0.27016 0.80749 0.0
C2069 C -0.00175 0.23028 0.79294 0.0
C2070 C 0.96537 0.29271 0.8084 0.0
C2071 C 0.94901 0.29976 0.79568 0.0
C2072 C 0.98218 0.25495 0.79368 0.0
C2073 C 0.95062 0.28449 0.78187 0.0
C2074 C 0.01224 0.22314 0.77932 0.0
C2075 C 0.01657 0.19286 0.80651 0.0
N2076 N 0.96704 0.2627 0.7812 0.0
N2077 N 0.00051 0.21482 0.806 0.0
H2078 H 0.9156 0.72908 0.04278 0.0
H2079 H 0.06962 0.75013 0.0453 0.0
H2080 H 0.96925 0.66334 0.03221 0.0
H2081 H 0.01721 0.81322 0.02874 0.0
H2082 H 0.0335 0.71759 0.04089 0.0
H2083 H 0.95242 0.76063 0.038 0.0
C2084 C 0.93503 0.72135 0.03923 0.0
C2085 C 0.93954 0.69364 0.03802 0.0
C2086 C 0.03016 0.73849 0.03794 0.0
C2087 C 0.98162 0.72938 0.03283 0.0
C2088 C 0.05067 0.75705 0.04052 0.0
C2089 C 0.04625 0.7844 0.03755 0.0
C2090 C 0.00497 0.74754 0.03274 0.0
C2091 C 0.0214 0.79231 0.03125 0.0
C2092 C 0.95595 0.73932 0.03644 0.0
C2093 C 0.965 0.6846 0.03329 0.0
N2094 N 0.00145 0.77402 0.02937 0.0
N2095 N 0.98532 0.70244 0.03119 0.0
H2096 H 0.48257 0.66605 0.79044 0.0
H2097 H 0.50097 0.81986 0.79073 0.0
H2098 H 0.4168 0.71789 0.77716 0.0
H2099 H 0.56612 0.76806 0.77639 0.0
H2100 H 0.46936 0.78314 0.78577 0.0
H2101 H 0.51392 0.70289 0.7853 0.0
C2102 C 0.47481 0.68505 0.7862 0.0
C2103 C 0.44711 0.6891 0.78439 0.0
C2104 C 0.49052 0.78005 0.78341 0.0
C2105 C 0.48261 0.73121 0.77879 0.0
C2106 C 0.50854 0.80091 0.7863 0.0
C2107 C 0.53617 0.79683 0.78414 0.0
C2108 C 0.50037 0.75486 0.77873 0.0
C2109 C 0.54496 0.77198 0.77828 0.0
C2110 C 0.49267 0.70597 0.7832 0.0
C2111 C 0.43804 0.71401 0.77876 0.0
N2112 N 0.52715 0.75168 0.7761 0.0
N2113 N 0.45573 0.73439 0.77649 0.0
H2114 H 0.95494 0.79931 0.51824 0.0
H2115 H 0.06538 0.72125 0.56611 0.0
H2116 H 0.94362 0.77439 0.56625 0.0
H2117 H 0.04644 0.69398 0.51933 0.0
H2118 H 0.02829 0.75322 0.56452 0.0
H2119 H -0.0048 0.77052 0.51683 0.0
C2120 C 0.96079 0.78762 0.52839 0.0
C2121 C 0.94595 0.78902 0.54235 0.0
C2122 C 0.0326 0.74046 0.55454 0.0
C2123 C 0.99196 0.7574 0.54097 0.0
C2124 C 0.05384 0.7224 0.55536 0.0
C2125 C 0.05872 0.70472 0.54289 0.0
C2126 C 0.01653 0.74118 0.54108 0.0
C2127 C 0.04307 0.70709 0.52926 0.0
C2128 C 0.98365 0.77139 0.52758 0.0
C2129 C 0.95434 0.77367 0.55522 0.0
N2130 N 0.02245 0.72499 0.52871 0.0
N2131 N 0.97703 0.75875 0.55428 0.0
H2132 H 0.93563 0.19639 0.27272 0.0
H2133 H 0.01978 0.30092 0.32054 0.0
H2134 H 0.96256 0.18083 0.31997 0.0
H2135 H 0.04306 0.28522 0.27265 0.0
H2136 H 0.98885 0.26296 0.31934 0.0
H2137 H 0.96752 0.23413 0.27122 0.0
C2138 C 0.94848 0.20067 0.28266 0.0
C2139 C 0.94647 0.18556 0.2965 0.0
C2140 C 0.00062 0.26804 0.30908 0.0
C2141 C 0.98187 0.22874 0.29499 0.0
C2142 C 0.01804 0.28981 0.30968 0.0
C2143 C 0.03409 0.29608 0.29669 0.0
C2144 C -0.00115 0.2528 0.29532 0.0
C2145 C 0.03111 0.28086 0.28294 0.0
C2146 C 0.96652 0.22211 0.28178 0.0
C2147 C 0.96351 0.19189 0.30906 0.0
N2148 N 0.01371 0.2598 0.28258 0.0
N2149 N 0.98018 0.21332 0.3081 0.0
H2150 H 0.54352 0.19011 0.02184 0.0
H2151 H 0.43355 0.26802 0.06992 0.0
H2152 H 0.55483 0.21304 0.07019 0.0
H2153 H 0.44917 0.29131 0.02202 0.0
H2154 H 0.47252 0.23828 0.06899 0.0
H2155 H 0.5044 0.22022 0.02049 0.0
C2156 C 0.53802 0.20177 0.03207 0.0
C2157 C 0.55235 0.19913 0.04616 0.0
C2158 C 0.4672 0.24977 0.05866 0.0
C2159 C 0.50753 0.23247 0.0448 0.0
C2160 C 0.44483 0.26647 0.0591 0.0
C2161 C 0.43826 0.28225 0.04604 0.0
C2162 C 0.48277 0.24848 0.04501 0.0
C2163 C 0.45372 0.27957 0.03236 0.0
C2164 C 0.51576 0.21878 0.03128 0.0
C2165 C 0.54443 0.21458 0.05909 0.0
N2166 N 0.47539 0.26294 0.03218 0.0
N2167 N 0.52223 0.23027 0.05817 0.0
H2168 H 0.46941 0.30351 0.67365 0.0
H2169 H 0.55183 0.19673 0.71994 0.0
H2170 H 0.44207 0.28456 0.72041 0.0
H2171 H 0.52274 0.18165 0.67307 0.0
H2172 H 0.52027 0.23474 0.72198 0.0
H2173 H 0.50027 0.26551 0.67488 0.0
C2174 C 0.47025 0.29169 0.6843 0.0
C2175 C 0.45304 0.29701 0.69692 0.0
C2176 C 0.52074 0.22275 0.71139 0.0
C2177 C 0.48826 0.25378 0.69831 0.0
C2178 C 0.5386 0.20119 0.7102 0.0
C2179 C 0.53986 0.18615 0.6963 0.0
C2180 C 0.5049 0.22954 0.69842 0.0
C2181 C 0.52236 0.19267 0.68401 0.0
C2182 C 0.48766 0.26993 0.6849 0.0
C2183 C 0.45492 0.28091 0.7104 0.0
N2184 N 0.50591 0.21423 0.68525 0.0
N2185 N 0.47233 0.25986 0.71077 0.0
H2186 H 0.53754 0.80182 0.4695 0.0
H2187 H 0.42653 0.72314 0.42209 0.0
H2188 H 0.5472 0.77849 0.42109 0.0
H2189 H 0.44488 0.69848 0.46944 0.0
H2190 H 0.46377 0.75495 0.42317 0.0
H2191 H 0.49753 0.77281 0.47111 0.0
C2192 C 0.5314 0.79041 0.4593 0.0
C2193 C 0.54568 0.79239 0.44516 0.0
C2194 C 0.45934 0.74278 0.43337 0.0
C2195 C 0.4999 0.76043 0.4468 0.0
C2196 C 0.43798 0.72482 0.43284 0.0
C2197 C 0.43285 0.70791 0.44564 0.0
C2198 C 0.47533 0.74415 0.44685 0.0
C2199 C 0.4484 0.71098 0.45927 0.0
C2200 C 0.50866 0.77404 0.46023 0.0
C2201 C 0.53692 0.77734 0.43225 0.0
N2202 N 0.46915 0.72874 0.45951 0.0
N2203 N 0.51434 0.76226 0.43332 0.0
H2204 H 0.96994 0.80814 0.17823 0.0
H2205 H 0.04891 0.6995 0.22478 0.0
H2206 H 0.93716 0.7868 0.22343 0.0
H2207 H 0.01982 0.68498 0.17784 0.0
H2208 H 0.01804 0.73817 0.22672 0.0
H2209 H 0.00117 0.77054 0.18025 0.0
C2210 C 0.96967 0.79593 0.18873 0.0
C2211 C 0.95074 0.80038 0.20062 0.0
C2212 C 0.0184 0.72616 0.21614 0.0
C2213 C 0.98647 0.75767 0.20293 0.0
C2214 C 0.03585 0.70423 0.21501 0.0
C2215 C 0.03688 0.68912 0.20112 0.0
C2216 C 0.00277 0.73321 0.20313 0.0
C2217 C 0.01961 0.69601 0.18878 0.0
C2218 C 0.98735 0.77444 0.18979 0.0
C2219 C 0.95131 0.78381 0.21395 0.0
N2220 N 0.00359 0.71789 0.18997 0.0
N2221 N 0.96894 0.76297 0.21477 0.0
H2222 H 0.91702 0.23881 0.94942 0.0
H2223 H 0.07146 0.25417 0.95067 0.0
H2224 H 0.96702 0.17335 0.96538 0.0
H2225 H 0.02102 0.32106 0.96384 0.0
H2226 H 0.03358 0.22374 0.9553 0.0
H2227 H 0.95453 0.26979 0.95394 0.0
C2228 C 0.93571 0.23105 0.95411 0.0
C2229 C 0.93903 0.20349 0.95689 0.0
C2230 C 0.03104 0.24504 0.95747 0.0
C2231 C 0.98188 0.23852 0.96176 0.0
C2232 C 0.05256 0.26236 0.95478 0.0
C2233 C 0.04925 0.29012 0.95678 0.0
C2234 C 0.00596 0.25571 0.96173 0.0
C2235 C 0.02438 0.29976 0.96216 0.0
C2236 C 0.95702 0.2487 0.95674 0.0
C2237 C 0.96363 0.19446 0.96303 0.0
N2238 N 0.00344 0.28261 0.96413 0.0
N2239 N 0.98435 0.21186 0.96494 0.0
H2240 H 0.39919 0.91477 0.25033 0.0
H2241 H 0.39796 0.07412 0.24246 0.0
H2242 H 0.38254 0.96705 0.28942 0.0
H2243 H 0.38087 0.02133 0.20366 0.0
H2244 H 0.40011 0.03514 0.25988 0.0
H2245 H 0.40045 0.95388 0.23301 0.0
C2246 C 0.39575 0.93455 0.25523 0.0
C2247 C 0.39039 0.93782 0.27124 0.0
C2248 C 0.39591 0.03211 0.24755 0.0
C2249 C 0.39236 0.98248 0.25164 0.0
C2250 C 0.39457 0.05427 0.23764 0.0
C2251 C 0.38891 0.0508 0.22168 0.0
C2252 C 0.39195 0.00631 0.24138 0.0
C2253 C 0.38536 0.02472 0.21591 0.0
C2254 C 0.39655 0.95679 0.24538 0.0
C2255 C 0.38677 0.96382 0.27713 0.0
N2256 N 0.38694 0.00337 0.22578 0.0
N2257 N 0.38779 0.98527 0.2673 0.0
H2258 H 0.29743 0.17165 0.52006 0.0
H2259 H 0.19275 0.08339 0.47102 0.0
H2260 H 0.28438 0.08715 0.52801 0.0
H2261 H 0.19619 0.16982 0.46864 0.0
H2262 H 0.22841 0.08401 0.49083 0.0
H2263 H 0.26103 0.17155 0.50076 0.0
C2264 C 0.28645 0.15321 0.51791 0.0
C2265 C 0.29365 0.12938 0.52553 0.0
C2266 C 0.22149 0.10285 0.48592 0.0
C2267 C 0.25275 0.12884 0.5033 0.0
C2268 C 0.20136 0.10244 0.47458 0.0
C2269 C 0.19176 0.12657 0.4683 0.0
C2270 C 0.23204 0.12759 0.49092 0.0
C2271 C 0.20335 0.1508 0.47317 0.0
C2272 C 0.26591 0.15307 0.50683 0.0
C2273 C 0.27927 0.10588 0.52227 0.0
N2274 N 0.22288 0.15073 0.48427 0.0
N2275 N 0.25958 0.10612 0.51127 0.0
H2276 H 0.14663 0.95121 0.71199 0.0
H2277 H 0.06086 0.04382 0.77011 0.0
H2278 H 0.06231 0.93899 0.721 0.0
H2279 H 0.14735 0.04557 0.76743 0.0
H2280 H 0.06027 0.00718 0.75095 0.0
H2281 H 0.14654 0.98894 0.73046 0.0
C2282 C 0.12805 0.95681 0.71775 0.0
C2283 C 0.10448 0.94218 0.71511 0.0
C2284 C 0.07939 0.01546 0.75461 0.0
C2285 C 0.10414 0.98482 0.73623 0.0
C2286 C 0.07973 0.03615 0.76561 0.0
C2287 C 0.1042 0.04753 0.77026 0.0
C2288 C 0.10373 0.00628 0.7482 0.0
C2289 C 0.1281 0.03729 0.764 0.0
C2290 C 0.128 0.97814 0.72833 0.0
C2291 C 0.08083 0.95002 0.72273 0.0
N2292 N 0.12728 0.0173 0.75319 0.0
N2293 N 0.08127 0.97079 0.73304 0.0
H2294 H 0.1622 0.84425 0.00154 0.0
H2295 H 0.32129 0.84503 0.9913 0.0
H2296 H 0.2164 0.85567 0.0404 0.0
H2297 H 0.26635 0.86116 0.95337 0.0
H2298 H 0.2833 0.84322 0.00945 0.0
H2299 H 0.20043 0.8444 0.98364 0.0
C2300 C 0.18223 0.84694 0.00627 0.0
C2301 C 0.18629 0.85041 0.02238 0.0
C2302 C 0.27957 0.84721 -0.00283 0.0
C2303 C 0.23004 0.85007 0.00206 0.0
C2304 C 0.30118 0.84836 0.98684 0.0
C2305 C 0.29681 0.85353 0.9709 0.0
C2306 C 0.25341 0.8509 0.99144 0.0
C2307 C 0.27043 0.85704 0.9656 0.0
C2308 C 0.204 0.84693 -0.00393 0.0
C2309 C 0.21259 0.85301 0.02801 0.0
N2310 N 0.24964 0.85563 0.97587 0.0
N2311 N 0.23359 0.85283 0.01782 0.0
H2312 H 0.59494 0.91399 0.75001 0.0
H2313 H 0.59701 0.07303 0.73953 0.0
H2314 H 0.60423 0.96834 0.78897 0.0
H2315 H 0.61382 0.01769 0.70192 0.0
H2316 H 0.59408 0.0352 0.75773 0.0
H2317 H 0.59579 0.95213 0.73206 0.0
C2318 C 0.59727 0.93405 0.75475 0.0
C2319 C 0.59999 0.93817 0.77091 0.0
C2320 C 0.59848 0.03134 0.74551 0.0
C2321 C 0.60052 0.98182 0.75053 0.0
C2322 C 0.60029 0.05286 0.73516 0.0
C2323 C 0.60595 0.04832 0.71929 0.0
C2324 C 0.60204 0.00512 0.73988 0.0
C2325 C 0.60936 0.02189 0.71409 0.0
C2326 C 0.59768 0.95576 0.74452 0.0
C2327 C 0.60217 0.96449 0.77654 0.0
N2328 N 0.60731 0.00119 0.72438 0.0
N2329 N 0.60246 0.98544 0.76633 0.0
H2330 H 0.66612 0.8412 0.48854 0.0
H2331 H 0.82555 0.84106 0.4972 0.0
H2332 H 0.71928 0.85855 0.44996 0.0
H2333 H 0.77196 0.85344 0.53623 0.0
H2334 H 0.78688 0.84052 0.4795 0.0
H2335 H 0.70491 0.83859 0.50604 0.0
C2336 C 0.68603 0.84455 0.48379 0.0
C2337 C 0.68965 0.85046 0.46788 0.0
C2338 C 0.78359 0.84335 0.49193 0.0
C2339 C 0.73397 0.84699 0.48769 0.0
C2340 C 0.80559 0.84376 0.502 0.0
C2341 C 0.8018 0.84762 0.51812 0.0
C2342 C 0.75765 0.84647 0.49808 0.0
C2343 C 0.77559 0.85035 0.52386 0.0
C2344 C 0.7081 0.84297 0.49375 0.0
C2345 C 0.7158 0.85393 0.46218 0.0
N2346 N 0.75442 0.84973 0.51382 0.0
N2347 N 0.73707 0.85217 0.47212 0.0
H2348 H 0.86647 0.01852 0.29227 0.0
H2349 H 0.8704 0.96723 0.20391 0.0
H2350 H 0.88527 0.07077 0.25349 0.0
H2351 H 0.88624 0.91502 0.24316 0.0
H2352 H 0.86989 0.00578 0.22186 0.0
H2353 H 0.86774 0.97993 0.27434 0.0
C2354 C 0.8709 0.02178 0.27999 0.0
C2355 C 0.87559 0.04771 0.27427 0.0
C2356 C 0.87347 0.98585 0.22651 0.0
C2357 C 0.87665 0.00416 0.2538 0.0
C2358 C 0.87381 0.96397 0.2163 0.0
C2359 C 0.87818 0.93806 0.22214 0.0
C2360 C 0.8772 0.98158 0.24263 0.0
C2361 C 0.8823 0.9347 0.23827 0.0
C2362 C 0.87158 -0.00012 0.26979 0.0
C2363 C 0.88105 0.05108 0.25828 0.0
N2364 N 0.88156 0.95622 0.248 0.0
N2365 N 0.88129 0.02955 0.24855 0.0
H2366 H 0.78808 0.09216 0.96523 0.0
H2367 H 0.69398 0.17315 0.02476 0.0
H2368 H 0.79748 0.1767 0.97464 0.0
H2369 H 0.69609 0.08671 0.02187 0.0
H2370 H 0.73033 0.17552 0.00546 0.0
H2371 H 0.75137 0.0904 0.98434 0.0
C2372 C 0.78207 0.11039 0.97122 0.0
C2373 C 0.79561 0.13457 0.96849 0.0
C2374 C 0.72299 0.15602 0.00912 0.0
C2375 C 0.75411 0.13282 0.99034 0.0
C2376 C 0.70247 0.15468 0.02021 0.0
C2377 C 0.69223 0.1297 0.02481 0.0
C2378 C 0.7331 0.13217 0.00257 0.0
C2379 C 0.7035 0.10633 0.01848 0.0
C2380 C 0.76133 0.10939 0.98217 0.0
C2381 C 0.78727 0.15773 0.97643 0.0
N2382 N 0.72326 0.10812 0.00757 0.0
N2383 N 0.76707 0.15628 0.98709 0.0
H2384 H 0.92697 0.54712 0.72106 0.0
H2385 H 0.83808 0.44627 0.77213 0.0
H2386 H 0.84188 0.53588 0.71424 0.0
H2387 H 0.92461 0.44281 0.77083 0.0
H2388 H 0.83905 0.4822 0.75253 0.0
H2389 H 0.92686 0.51056 0.74029 0.0
C2390 C 0.90838 0.53655 0.72346 0.0
C2391 C 0.88438 0.54431 0.71618 0.0
C2392 C 0.85784 0.47367 0.75656 0.0
C2393 C 0.88389 0.50326 0.73831 0.0
C2394 C 0.85727 0.45336 0.76777 0.0
C2395 C 0.88128 0.44169 0.77292 0.0
C2396 C 0.88266 0.48242 0.7506 0.0
C2397 C 0.9057 0.45152 0.76712 0.0
C2398 C 0.90825 0.51592 0.73449 0.0
C2399 C 0.86072 0.53042 0.71975 0.0
N2400 N 0.90579 0.47132 0.75619 0.0
N2401 N 0.86099 0.51066 0.73069 0.0
H2402 H 0.82043 0.63565 0.00283 0.0
H2403 H 0.66131 0.64387 0.9932 0.0
H2404 H 0.76614 0.6309 0.0421 0.0
H2405 H 0.715 0.6247 0.95516 0.0
H2406 H 0.69954 0.64399 0.01123 0.0
H2407 H 0.78206 0.63666 0.98506 0.0
C2408 C 0.80034 0.63459 0.00768 0.0
C2409 C 0.79629 0.63273 0.02389 0.0
C2410 C 0.70295 0.63971 -0.00105 0.0
C2411 C 0.75237 0.63445 0.00369 0.0
C2412 C 0.6812 0.63954 0.98869 0.0
C2413 C 0.68515 0.63403 0.97275 0.0
C2414 C 0.72883 0.63463 0.99316 0.0
C2415 C 0.71126 0.62913 0.96739 0.0
C2416 C 0.77848 0.6353 -0.00245 0.0
C2417 C 0.76995 0.63228 0.02964 0.0
N2418 N 0.73219 0.62956 0.97759 0.0
N2419 N 0.74887 0.63311 0.01952 0.0
H2420 H 0.65638 0.54459 0.27123 0.0
H2421 H 0.56821 0.44554 0.2181 0.0
H2422 H 0.56989 0.54101 0.27279 0.0
H2423 H 0.65481 0.44525 0.21865 0.0
H2424 H 0.56836 0.48213 0.23727 0.0
H2425 H 0.65645 0.50832 0.25181 0.0
C2426 C 0.63747 0.53575 0.26761 0.0
C2427 C 0.61312 0.54547 0.27353 0.0
C2428 C 0.58736 0.47424 0.23313 0.0
C2429 C 0.61286 0.50466 0.25126 0.0
C2430 C 0.58724 0.45363 0.22209 0.0
C2431 C 0.61154 0.44266 0.21689 0.0
C2432 C 0.61199 0.4838 0.23896 0.0
C2433 C 0.63571 0.45337 0.22247 0.0
C2434 C 0.63745 0.51527 0.25649 0.0
C2435 C 0.58906 0.53374 0.26853 0.0
N2436 N 0.63536 0.47332 0.2333 0.0
N2437 N 0.5895 0.51399 0.25757 0.0
H2438 H 0.82278 0.34037 0.4924 0.0
H2439 H 0.66283 0.34629 0.49817 0.0
H2440 H 0.77169 0.35891 0.45306 0.0
H2441 H 0.71461 0.35073 0.5386 0.0
H2442 H 0.70237 0.34542 0.48123 0.0
H2443 H 0.78318 0.33862 0.50933 0.0
C2444 C 0.80315 0.34415 0.48737 0.0
C2445 C 0.80035 0.35006 0.4714 0.0
C2446 C 0.70512 0.34663 0.4938 0.0
C2447 C 0.75509 0.34769 0.49055 0.0
C2448 C 0.6826 0.34725 0.50345 0.0
C2449 C 0.68562 0.349 0.51974 0.0
C2450 C 0.73083 0.34748 0.50052 0.0
C2451 C 0.71158 0.34941 0.52606 0.0
C2452 C 0.78061 0.34308 0.497 0.0
C2453 C 0.77455 0.35423 0.46533 0.0
N2454 N 0.73328 0.3487 0.51641 0.0
N2455 N 0.75283 0.35299 0.47494 0.0
H2456 H 0.10942 0.51861 0.20345 0.0
H2457 H 0.11312 0.46437 0.29111 0.0
H2458 H 0.09684 0.57038 0.2433 0.0
H2459 H 0.0907 0.41436 0.25197 0.0
H2460 H 0.11274 0.50364 0.27368 0.0
H2461 H 0.10828 0.47957 0.221 0.0
C2462 C 0.10637 0.52167 0.21589 0.0
C2463 C 0.10337 0.54759 0.222 0.0
C2464 C 0.10786 0.48404 0.26895 0.0
C2465 C 0.10246 0.50348 0.24205 0.0
C2466 C 0.108 0.46176 0.27887 0.0
C2467 C 0.1021 0.43625 0.27288 0.0
C2468 C 0.10211 0.48055 0.25297 0.0
C2469 C 0.09582 0.43371 0.25694 0.0
C2470 C 0.10576 0.49951 0.22587 0.0
C2471 C 0.09972 0.55068 0.23819 0.0
N2472 N 0.09617 0.45559 0.24748 0.0
N2473 N 0.09952 0.52886 0.2477 0.0
H2474 H 0.2978 0.39745 0.0201 0.0
H2475 H 0.18971 0.31041 0.97294 0.0
H2476 H 0.29367 0.31111 0.02307 0.0
H2477 H 0.20659 0.39363 0.9631 0.0
H2478 H 0.22644 0.31005 0.99209 0.0
H2479 H 0.26166 0.39681 0.00063 0.0
C2480 C 0.28897 0.3784 0.01673 0.0
C2481 C 0.29857 0.35431 0.02306 0.0
C2482 C 0.2223 0.32833 0.98565 0.0
C2483 C 0.25761 0.35328 0.00083 0.0
C2484 C 0.20156 0.32845 0.97466 0.0
C2485 C 0.19532 0.3521 0.96656 0.0
C2486 C 0.23661 0.35213 0.98859 0.0
C2487 C 0.21085 0.37508 0.96924 0.0
C2488 C 0.26854 0.37799 0.00558 0.0
C2489 C 0.28657 0.3301 0.01847 0.0
N2490 N 0.23069 0.37461 0.98016 0.0
N2491 N 0.26672 0.33017 0.00754 0.0
H2492 H 0.38329 0.51648 0.79199 0.0
H2493 H 0.37535 0.46486 0.7036 0.0
H2494 H 0.38926 0.56894 0.75195 0.0
H2495 H 0.39579 0.41265 0.74211 0.0
H2496 H 0.37663 0.50332 0.72151 0.0
H2497 H 0.3845 0.47756 0.77425 0.0
C2498 C 0.38492 0.5197 0.77948 0.0
C2499 C 0.38576 0.54575 0.77334 0.0
C2500 C 0.38089 0.48344 0.72604 0.0
C2501 C 0.3869 0.50187 0.75312 0.0
C2502 C 0.38019 0.4616 0.71583 0.0
C2503 C 0.38535 0.43573 0.72147 0.0
C2504 C 0.38655 0.47921 0.74198 0.0
C2505 C 0.39129 0.43234 0.73741 0.0
C2506 C 0.38558 0.49762 0.76939 0.0
C2507 C 0.38789 0.5491 0.75709 0.0
N2508 N 0.39161 0.45386 0.74716 0.0
N2509 N 0.38821 0.5274 0.74752 0.0
H2510 H 0.19585 0.67053 0.52032 0.0
H2511 H 0.29619 0.5837 0.46729 0.0
H2512 H 0.19656 0.58395 0.51972 0.0
H2513 H 0.2921 0.67016 0.4661 0.0
H2514 H 0.25919 0.58313 0.48624 0.0
H2515 H 0.23192 0.67083 0.50083 0.0
C2516 C 0.20399 0.6516 0.51621 0.0
C2517 C 0.19352 0.62717 0.52155 0.0
C2518 C 0.26618 0.60223 0.48173 0.0
C2519 C 0.23414 0.62725 0.49914 0.0
C2520 C 0.2871 0.60251 0.47089 0.0
C2521 C 0.29693 0.62699 0.46524 0.0
C2522 C 0.25522 0.62667 0.48695 0.0
C2523 C 0.2848 0.65089 0.47018 0.0
C2524 C 0.22432 0.65174 0.505 0.0
C2525 C 0.20428 0.60315 0.5158 0.0
N2526 N 0.26464 0.65017 0.48087 0.0
N2527 N 0.22402 0.60376 0.50483 0.0
loop_
_geom_bond_atom_site_label_1
_geom_bond_atom_site_label_2
_geom_bond_distance
_geom_bond_site_symmetry_2
_ccdc_geom_bond_type
Co0 O3 1.970 . S
Co0 N17 1.989 . S
Co0 O25 1.967 . S
Co0 O32 1.920 . S
Co1 O4 1.966 . S
Co1 N10 2.022 . S
Co1 N18 1.993 . S
Co1 O26 1.941 . S
C2 O3 1.258 . S
C2 O4 1.263 . S
O3 Co0 1.970 . S
O3 C2 1.258 . S
O4 Co1 1.966 . S
O4 C2 1.263 . S
C5 O6 1.235 . S
C5 O32 1.289 . S
O6 C5 1.235 . S
C7 C9 1.400 . S
C7 N10 1.351 . S
C7 C12 1.501 . S
C8 C9 1.387 . S
C8 N11 1.341 . S
C9 C7 1.400 . S
C9 C8 1.387 . S
N10 Co1 2.022 . S
N10 C7 1.351 . S
N10 N11 1.365 . S
N11 C8 1.341 . S
N11 N10 1.365 . S
N11 H31 0.862 . S
C12 C7 1.501 . S
C12 H13 0.961 . S
C12 H14 0.961 . S
C12 H15 0.960 . S
H13 C12 0.961 . S
H14 C12 0.961 . S
H15 C12 0.960 . S
C16 N17 1.342 . S
C16 C20 1.401 . S
C16 C21 1.499 . S
N17 Co0 1.989 . S
N17 C16 1.342 . S
N17 N18 1.388 . S
N18 Co1 1.993 . S
N18 N17 1.388 . S
N18 C19 1.346 . S
C19 N18 1.346 . S
C19 C20 1.396 . S
C19 C29 1.510 . S
C20 C16 1.401 . S
C20 C19 1.396 . S
C21 C16 1.499 . S
C21 H22 0.959 . S
C21 H23 0.960 . S
C21 H24 0.961 . S
H22 C21 0.959 . S
H23 C21 0.960 . S
H24 C21 0.961 . S
O25 Co0 1.967 . S
O25 C33 1.258 . S
O26 Co1 1.941 . S
O26 C33 1.266 . S
H27 C29 0.959 . S
H28 C29 0.961 . S
C29 C19 1.510 . S
C29 H27 0.959 . S
C29 H28 0.961 . S
C29 H30 0.960 . S
H30 C29 0.960 . S
H31 N11 0.862 . S
O32 Co0 1.920 . S
O32 C5 1.289 . S
C33 O25 1.258 . S
C33 O26 1.266 . S
Co34 O37 1.970 . S
Co34 N51 1.989 . S
Co34 O59 1.967 . S
Co34 O66 1.920 . S
Co35 O38 1.966 . S
Co35 N44 2.022 . S
Co35 N52 1.993 . S
Co35 O60 1.941 . S
C36 O37 1.258 . S
C36 O38 1.263 . S
O37 Co34 1.970 . S
O37 C36 1.258 . S
O38 Co35 1.966 . S
O38 C36 1.263 . S
C39 O40 1.235 . S
C39 O66 1.289 . S
O40 C39 1.235 . S
C41 C43 1.400 . S
C41 N44 1.351 . S
C41 C46 1.501 . S
C42 C43 1.387 . S
C42 N45 1.341 . S
C43 C41 1.400 . S
C43 C42 1.387 . S
N44 Co35 2.022 . S
N44 C41 1.351 . S
N44 N45 1.365 . S
N45 C42 1.341 . S
N45 N44 1.365 . S
N45 H65 0.862 . S
C46 C41 1.501 . S
C46 H47 0.961 . S
C46 H48 0.961 . S
C46 H49 0.960 . S
H47 C46 0.961 . S
H48 C46 0.961 . S
H49 C46 0.960 . S
C50 N51 1.342 . S
C50 C54 1.401 . S
C50 C55 1.499 . S
N51 Co34 1.989 . S
N51 C50 1.342 . S
N51 N52 1.388 . S
N52 Co35 1.993 . S
N52 N51 1.388 . S
N52 C53 1.346 . S
C53 N52 1.346 . S
C53 C54 1.396 . S
C53 C63 1.510 . S
C54 C50 1.401 . S
C54 C53 1.396 . S
C55 C50 1.499 . S
C55 H56 0.959 . S
C55 H57 0.960 . S
C55 H58 0.961 . S
H56 C55 0.959 . S
H57 C55 0.960 . S
H58 C55 0.961 . S
O59 Co34 1.967 . S
O59 C67 1.258 . S
O60 Co35 1.941 . S
O60 C67 1.266 . S
H61 C63 0.959 . S
H62 C63 0.961 . S
C63 C53 1.510 . S
C63 H61 0.959 . S
C63 H62 0.961 . S
C63 H64 0.960 . S
H64 C63 0.960 . S
H65 N45 0.862 . S
O66 Co34 1.920 . S
O66 C39 1.289 . S
C67 O59 1.258 . S
C67 O60 1.266 . S
Co68 O71 1.970 . S
Co68 N85 1.989 . S
Co68 O93 1.967 . S
Co68 O100 1.920 . S
Co69 O72 1.966 . S
Co69 N78 2.022 . S
Co69 N86 1.993 . S
Co69 O94 1.941 . S
C70 O71 1.258 . S
C70 O72 1.263 . S
O71 Co68 1.970 . S
O71 C70 1.258 . S
O72 Co69 1.966 . S
O72 C70 1.263 . S
C73 O74 1.235 . S
C73 O100 1.289 . S
O74 C73 1.235 . S
C75 C77 1.400 . S
C75 N78 1.351 . S
C75 C80 1.501 . S
C76 C77 1.387 . S
C76 N79 1.341 . S
C77 C75 1.400 . S
C77 C76 1.387 . S
N78 Co69 2.022 . S
N78 C75 1.351 . S
N78 N79 1.365 . S
N79 C76 1.341 . S
N79 N78 1.365 . S
N79 H99 0.862 . S
C80 C75 1.501 . S
C80 H81 0.961 . S
C80 H82 0.961 . S
C80 H83 0.960 . S
H81 C80 0.961 . S
H82 C80 0.961 . S
H83 C80 0.960 . S
C84 N85 1.342 . S
C84 C88 1.401 . S
C84 C89 1.499 . S
N85 Co68 1.989 . S
N85 C84 1.342 . S
N85 N86 1.388 . S
N86 Co69 1.993 . S
N86 N85 1.388 . S
N86 C87 1.346 . S
C87 N86 1.346 . S
C87 C88 1.396 . S
C87 C97 1.510 . S
C88 C84 1.401 . S
C88 C87 1.396 . S
C89 C84 1.499 . S
C89 H90 0.959 . S
C89 H91 0.960 . S
C89 H92 0.961 . S
H90 C89 0.959 . S
H91 C89 0.960 . S
H92 C89 0.961 . S
O93 Co68 1.967 . S
O93 C101 1.258 . S
O94 Co69 1.941 . S
O94 C101 1.266 . S
H95 C97 0.959 . S
H96 C97 0.961 . S
C97 C87 1.510 . S
C97 H95 0.959 . S
C97 H96 0.961 . S
C97 H98 0.960 . S
H98 C97 0.960 . S
H99 N79 0.862 . S
O100 Co68 1.920 . S
O100 C73 1.289 . S
C101 O93 1.258 . S
C101 O94 1.266 . S
Co102 O105 1.970 . S
Co102 N119 1.989 . S
Co102 O127 1.967 . S
Co102 O134 1.920 . S
Co103 O106 1.966 . S
Co103 N112 2.022 . S
Co103 N120 1.993 . S
Co103 O128 1.941 . S
C104 O105 1.258 . S
C104 O106 1.263 . S
O105 Co102 1.970 . S
O105 C104 1.258 . S
O106 Co103 1.966 . S
O106 C104 1.263 . S
C107 O108 1.235 . S
C107 O134 1.289 . S
O108 C107 1.235 . S
C109 C111 1.400 . S
C109 N112 1.351 . S
C109 C114 1.501 . S
C110 C111 1.387 . S
C110 N113 1.341 . S
C111 C109 1.400 . S
C111 C110 1.387 . S
N112 Co103 2.022 . S
N112 C109 1.351 . S
N112 N113 1.365 . S
N113 C110 1.341 . S
N113 N112 1.365 . S
N113 H133 0.862 . S
C114 C109 1.501 . S
C114 H115 0.961 . S
C114 H116 0.961 . S
C114 H117 0.960 . S
H115 C114 0.961 . S
H116 C114 0.961 . S
H117 C114 0.960 . S
C118 N119 1.342 . S
C118 C122 1.401 . S
C118 C123 1.499 . S
N119 Co102 1.989 . S
N119 C118 1.342 . S
N119 N120 1.388 . S
N120 Co103 1.993 . S
N120 N119 1.388 . S
N120 C121 1.346 . S
C121 N120 1.346 . S
C121 C122 1.396 . S
C121 C131 1.510 . S
C122 C118 1.401 . S
C122 C121 1.396 . S
C123 C118 1.499 . S
C123 H124 0.959 . S
C123 H125 0.960 . S
C123 H126 0.961 . S
H124 C123 0.959 . S
H125 C123 0.960 . S
H126 C123 0.961 . S
O127 Co102 1.967 . S
O127 C135 1.258 . S
O128 Co103 1.941 . S
O128 C135 1.266 . S
H129 C131 0.959 . S
H130 C131 0.961 . S
C131 C121 1.510 . S
C131 H129 0.959 . S
C131 H130 0.961 . S
C131 H132 0.960 . S
H132 C131 0.960 . S
H133 N113 0.862 . S
O134 Co102 1.920 . S
O134 C107 1.289 . S
C135 O127 1.258 . S
C135 O128 1.266 . S
Co136 O139 1.970 . S
Co136 N153 1.989 . S
Co136 O161 1.967 . S
Co136 O168 1.920 . S
Co137 O140 1.966 . S
Co137 N146 2.022 . S
Co137 N154 1.993 . S
Co137 O162 1.941 . S
C138 O139 1.258 . S
C138 O140 1.263 . S
O139 Co136 1.970 . S
O139 C138 1.258 . S
O140 Co137 1.966 . S
O140 C138 1.263 . S
C141 O142 1.235 . S
C141 O168 1.289 . S
O142 C141 1.235 . S
C143 C145 1.400 . S
C143 N146 1.351 . S
C143 C148 1.501 . S
C144 C145 1.387 . S
C144 N147 1.341 . S
C145 C143 1.400 . S
C145 C144 1.387 . S
N146 Co137 2.022 . S
N146 C143 1.351 . S
N146 N147 1.365 . S
N147 C144 1.341 . S
N147 N146 1.365 . S
N147 H167 0.862 . S
C148 C143 1.501 . S
C148 H149 0.961 . S
C148 H150 0.961 . S
C148 H151 0.960 . S
H149 C148 0.961 . S
H150 C148 0.961 . S
H151 C148 0.960 . S
C152 N153 1.342 . S
C152 C156 1.401 . S
C152 C157 1.499 . S
N153 Co136 1.989 . S
N153 C152 1.342 . S
N153 N154 1.388 . S
N154 Co137 1.993 . S
N154 N153 1.388 . S
N154 C155 1.346 . S
C155 N154 1.346 . S
C155 C156 1.396 . S
C155 C165 1.510 . S
C156 C152 1.401 . S
C156 C155 1.396 . S
C157 C152 1.499 . S
C157 H158 0.959 . S
C157 H159 0.960 . S
C157 H160 0.961 . S
H158 C157 0.959 . S
H159 C157 0.960 . S
H160 C157 0.961 . S
O161 Co136 1.967 . S
O161 C169 1.258 . S
O162 Co137 1.941 . S
O162 C169 1.266 . S
H163 C165 0.959 . S
H164 C165 0.961 . S
C165 C155 1.510 . S
C165 H163 0.959 . S
C165 H164 0.961 . S
C165 H166 0.960 . S
H166 C165 0.960 . S
H167 N147 0.862 . S
O168 Co136 1.920 . S
O168 C141 1.289 . S
C169 O161 1.258 . S
C169 O162 1.266 . S
Co170 O173 1.970 . S
Co170 N187 1.989 . S
Co170 O195 1.967 . S
Co170 O202 1.920 . S
Co171 O174 1.966 . S
Co171 N180 2.022 . S
Co171 N188 1.993 . S
Co171 O196 1.941 . S
C172 O173 1.258 . S
C172 O174 1.263 . S
O173 Co170 1.970 . S
O173 C172 1.258 . S
O174 Co171 1.966 . S
O174 C172 1.263 . S
C175 O176 1.235 . S
C175 O202 1.289 . S
O176 C175 1.235 . S
C177 C179 1.400 . S
C177 N180 1.351 . S
C177 C182 1.501 . S
C178 C179 1.387 . S
C178 N181 1.341 . S
C179 C177 1.400 . S
C179 C178 1.387 . S
N180 Co171 2.022 . S
N180 C177 1.351 . S
N180 N181 1.365 . S
N181 C178 1.341 . S
N181 N180 1.365 . S
N181 H201 0.862 . S
C182 C177 1.501 . S
C182 H183 0.961 . S
C182 H184 0.961 . S
C182 H185 0.960 . S
H183 C182 0.961 . S
H184 C182 0.961 . S
H185 C182 0.960 . S
C186 N187 1.342 . S
C186 C190 1.401 . S
C186 C191 1.499 . S
N187 Co170 1.989 . S
N187 C186 1.342 . S
N187 N188 1.388 . S
N188 Co171 1.993 . S
N188 N187 1.388 . S
N188 C189 1.346 . S
C189 N188 1.346 . S
C189 C190 1.396 . S
C189 C199 1.510 . S
C190 C186 1.401 . S
C190 C189 1.396 . S
C191 C186 1.499 . S
C191 H192 0.959 . S
C191 H193 0.960 . S
C191 H194 0.961 . S
H192 C191 0.959 . S
H193 C191 0.960 . S
H194 C191 0.961 . S
O195 Co170 1.967 . S
O195 C203 1.258 . S
O196 Co171 1.941 . S
O196 C203 1.266 . S
H197 C199 0.959 . S
H198 C199 0.961 . S
C199 C189 1.510 . S
C199 H197 0.959 . S
C199 H198 0.961 . S
C199 H200 0.960 . S
H200 C199 0.960 . S
H201 N181 0.862 . S
O202 Co170 1.920 . S
O202 C175 1.289 . S
C203 O195 1.258 . S
C203 O196 1.266 . S
Co204 O207 1.970 . S
Co204 N221 1.989 . S
Co204 O229 1.967 . S
Co204 O236 1.920 . S
Co205 O208 1.966 . S
Co205 N214 2.022 . S
Co205 N222 1.993 . S
Co205 O230 1.941 . S
C206 O207 1.258 . S
C206 O208 1.263 . S
O207 Co204 1.970 . S
O207 C206 1.258 . S
O208 Co205 1.966 . S
O208 C206 1.263 . S
C209 O210 1.235 . S
C209 O236 1.289 . S
O210 C209 1.235 . S
C211 C213 1.400 . S
C211 N214 1.351 . S
C211 C216 1.501 . S
C212 C213 1.387 . S
C212 N215 1.341 . S
C213 C211 1.400 . S
C213 C212 1.387 . S
N214 Co205 2.022 . S
N214 C211 1.351 . S
N214 N215 1.365 . S
N215 C212 1.341 . S
N215 N214 1.365 . S
N215 H235 0.862 . S
C216 C211 1.501 . S
C216 H217 0.961 . S
C216 H218 0.961 . S
C216 H219 0.960 . S
H217 C216 0.961 . S
H218 C216 0.961 . S
H219 C216 0.960 . S
C220 N221 1.342 . S
C220 C224 1.401 . S
C220 C225 1.499 . S
N221 Co204 1.989 . S
N221 C220 1.342 . S
N221 N222 1.388 . S
N222 Co205 1.993 . S
N222 N221 1.388 . S
N222 C223 1.346 . S
C223 N222 1.346 . S
C223 C224 1.396 . S
C223 C233 1.510 . S
C224 C220 1.401 . S
C224 C223 1.396 . S
C225 C220 1.499 . S
C225 H226 0.959 . S
C225 H227 0.960 . S
C225 H228 0.961 . S
H226 C225 0.959 . S
H227 C225 0.960 . S
H228 C225 0.961 . S
O229 Co204 1.967 . S
O229 C237 1.258 . S
O230 Co205 1.941 . S
O230 C237 1.266 . S
H231 C233 0.959 . S
H232 C233 0.961 . S
C233 C223 1.510 . S
C233 H231 0.959 . S
C233 H232 0.961 . S
C233 H234 0.960 . S
H234 C233 0.960 . S
H235 N215 0.862 . S
O236 Co204 1.920 . S
O236 C209 1.289 . S
C237 O229 1.258 . S
C237 O230 1.266 . S
Co238 O241 1.970 . S
Co238 N255 1.989 . S
Co238 O263 1.967 . S
Co238 O270 1.920 . S
Co239 O242 1.966 . S
Co239 N248 2.022 . S
Co239 N256 1.993 . S
Co239 O264 1.941 . S
C240 O241 1.258 . S
C240 O242 1.263 . S
O241 Co238 1.970 . S
O241 C240 1.258 . S
O242 Co239 1.966 . S
O242 C240 1.263 . S
C243 O244 1.235 . S
C243 O270 1.289 . S
O244 C243 1.235 . S
C245 C247 1.400 . S
C245 N248 1.351 . S
C245 C250 1.501 . S
C246 C247 1.387 . S
C246 N249 1.341 . S
C247 C245 1.400 . S
C247 C246 1.387 . S
N248 Co239 2.022 . S
N248 C245 1.351 . S
N248 N249 1.365 . S
N249 C246 1.341 . S
N249 N248 1.365 . S
N249 H269 0.862 . S
C250 C245 1.501 . S
C250 H251 0.961 . S
C250 H252 0.961 . S
C250 H253 0.960 . S
H251 C250 0.961 . S
H252 C250 0.961 . S
H253 C250 0.960 . S
C254 N255 1.342 . S
C254 C258 1.401 . S
C254 C259 1.499 . S
N255 Co238 1.989 . S
N255 C254 1.342 . S
N255 N256 1.388 . S
N256 Co239 1.993 . S
N256 N255 1.388 . S
N256 C257 1.346 . S
C257 N256 1.346 . S
C257 C258 1.396 . S
C257 C267 1.510 . S
C258 C254 1.401 . S
C258 C257 1.396 . S
C259 C254 1.499 . S
C259 H260 0.959 . S
C259 H261 0.960 . S
C259 H262 0.961 . S
H260 C259 0.959 . S
H261 C259 0.960 . S
H262 C259 0.961 . S
O263 Co238 1.967 . S
O263 C271 1.258 . S
O264 Co239 1.941 . S
O264 C271 1.266 . S
H265 C267 0.959 . S
H266 C267 0.961 . S
C267 C257 1.510 . S
C267 H265 0.959 . S
C267 H266 0.961 . S
C267 H268 0.960 . S
H268 C267 0.960 . S
H269 N249 0.862 . S
O270 Co238 1.920 . S
O270 C243 1.289 . S
C271 O263 1.258 . S
C271 O264 1.266 . S
Co272 O275 1.970 . S
Co272 N289 1.989 . S
Co272 O297 1.967 . S
Co272 O304 1.920 . S
Co273 O276 1.966 . S
Co273 N282 2.022 . S
Co273 N290 1.993 . S
Co273 O298 1.941 . S
C274 O275 1.258 . S
C274 O276 1.263 . S
O275 Co272 1.970 . S
O275 C274 1.258 . S
O276 Co273 1.966 . S
O276 C274 1.263 . S
C277 O278 1.235 . S
C277 O304 1.289 . S
O278 C277 1.235 . S
C279 C281 1.400 . S
C279 N282 1.351 . S
C279 C284 1.501 . S
C280 C281 1.387 . S
C280 N283 1.341 . S
C281 C279 1.400 . S
C281 C280 1.387 . S
N282 Co273 2.022 . S
N282 C279 1.351 . S
N282 N283 1.365 . S
N283 C280 1.341 . S
N283 N282 1.365 . S
N283 H303 0.862 . S
C284 C279 1.501 . S
C284 H285 0.961 . S
C284 H286 0.961 . S
C284 H287 0.960 . S
H285 C284 0.961 . S
H286 C284 0.961 . S
H287 C284 0.960 . S
C288 N289 1.342 . S
C288 C292 1.401 . S
C288 C293 1.499 . S
N289 Co272 1.989 . S
N289 C288 1.342 . S
N289 N290 1.388 . S
N290 Co273 1.993 . S
N290 N289 1.388 . S
N290 C291 1.346 . S
C291 N290 1.346 . S
C291 C292 1.396 . S
C291 C301 1.510 . S
C292 C288 1.401 . S
C292 C291 1.396 . S
C293 C288 1.499 . S
C293 H294 0.959 . S
C293 H295 0.960 . S
C293 H296 0.961 . S
H294 C293 0.959 . S
H295 C293 0.960 . S
H296 C293 0.961 . S
O297 Co272 1.967 . S
O297 C305 1.258 . S
O298 Co273 1.941 . S
O298 C305 1.266 . S
H299 C301 0.959 . S
H300 C301 0.961 . S
C301 C291 1.510 . S
C301 H299 0.959 . S
C301 H300 0.961 . S
C301 H302 0.960 . S
H302 C301 0.960 . S
H303 N283 0.862 . S
O304 Co272 1.920 . S
O304 C277 1.289 . S
C305 O297 1.258 . S
C305 O298 1.266 . S
Co306 O309 1.970 . S
Co306 N323 1.989 . S
Co306 O331 1.967 . S
Co306 O338 1.920 . S
Co307 O310 1.966 . S
Co307 N316 2.022 . S
Co307 N324 1.993 . S
Co307 O332 1.941 . S
C308 O309 1.258 . S
C308 O310 1.263 . S
O309 Co306 1.970 . S
O309 C308 1.258 . S
O310 Co307 1.966 . S
O310 C308 1.263 . S
C311 O312 1.235 . S
C311 O338 1.289 . S
O312 C311 1.235 . S
C313 C315 1.400 . S
C313 N316 1.351 . S
C313 C318 1.501 . S
C314 C315 1.387 . S
C314 N317 1.341 . S
C315 C313 1.400 . S
C315 C314 1.387 . S
N316 Co307 2.022 . S
N316 C313 1.351 . S
N316 N317 1.365 . S
N317 C314 1.341 . S
N317 N316 1.365 . S
N317 H337 0.862 . S
C318 C313 1.501 . S
C318 H319 0.961 . S
C318 H320 0.961 . S
C318 H321 0.960 . S
H319 C318 0.961 . S
H320 C318 0.961 . S
H321 C318 0.960 . S
C322 N323 1.342 . S
C322 C326 1.401 . S
C322 C327 1.499 . S
N323 Co306 1.989 . S
N323 C322 1.342 . S
N323 N324 1.388 . S
N324 Co307 1.993 . S
N324 N323 1.388 . S
N324 C325 1.346 . S
C325 N324 1.346 . S
C325 C326 1.396 . S
C325 C335 1.510 . S
C326 C322 1.401 . S
C326 C325 1.396 . S
C327 C322 1.499 . S
C327 H328 0.959 . S
C327 H329 0.960 . S
C327 H330 0.961 . S
H328 C327 0.959 . S
H329 C327 0.960 . S
H330 C327 0.961 . S
O331 Co306 1.967 . S
O331 C339 1.258 . S
O332 Co307 1.941 . S
O332 C339 1.266 . S
H333 C335 0.959 . S
H334 C335 0.961 . S
C335 C325 1.510 . S
C335 H333 0.959 . S
C335 H334 0.961 . S
C335 H336 0.960 . S
H336 C335 0.960 . S
H337 N317 0.862 . S
O338 Co306 1.920 . S
O338 C311 1.289 . S
C339 O331 1.258 . S
C339 O332 1.266 . S
Co340 O343 1.970 . S
Co340 N357 1.989 . S
Co340 O365 1.967 . S
Co340 O372 1.920 . S
Co341 O344 1.966 . S
Co341 N350 2.022 . S
Co341 N358 1.993 . S
Co341 O366 1.941 . S
C342 O343 1.258 . S
C342 O344 1.263 . S
O343 Co340 1.970 . S
O343 C342 1.258 . S
O344 Co341 1.966 . S
O344 C342 1.263 . S
C345 O346 1.235 . S
C345 O372 1.289 . S
O346 C345 1.235 . S
C347 C349 1.400 . S
C347 N350 1.351 . S
C347 C352 1.501 . S
C348 C349 1.387 . S
C348 N351 1.341 . S
C349 C347 1.400 . S
C349 C348 1.387 . S
N350 Co341 2.022 . S
N350 C347 1.351 . S
N350 N351 1.365 . S
N351 C348 1.341 . S
N351 N350 1.365 . S
N351 H371 0.862 . S
C352 C347 1.501 . S
C352 H353 0.961 . S
C352 H354 0.961 . S
C352 H355 0.960 . S
H353 C352 0.961 . S
H354 C352 0.961 . S
H355 C352 0.960 . S
C356 N357 1.342 . S
C356 C360 1.401 . S
C356 C361 1.499 . S
N357 Co340 1.989 . S
N357 C356 1.342 . S
N357 N358 1.388 . S
N358 Co341 1.993 . S
N358 N357 1.388 . S
N358 C359 1.346 . S
C359 N358 1.346 . S
C359 C360 1.396 . S
C359 C369 1.510 . S
C360 C356 1.401 . S
C360 C359 1.396 . S
C361 C356 1.499 . S
C361 H362 0.959 . S
C361 H363 0.960 . S
C361 H364 0.961 . S
H362 C361 0.959 . S
H363 C361 0.960 . S
H364 C361 0.961 . S
O365 Co340 1.967 . S
O365 C373 1.258 . S
O366 Co341 1.941 . S
O366 C373 1.266 . S
H367 C369 0.959 . S
H368 C369 0.961 . S
C369 C359 1.510 . S
C369 H367 0.959 . S
C369 H368 0.961 . S
C369 H370 0.960 . S
H370 C369 0.960 . S
H371 N351 0.862 . S
O372 Co340 1.920 . S
O372 C345 1.289 . S
C373 O365 1.258 . S
C373 O366 1.266 . S
Co374 O377 1.970 . S
Co374 N391 1.989 . S
Co374 O399 1.967 . S
Co374 O406 1.920 . S
Co375 O378 1.966 . S
Co375 N384 2.022 . S
Co375 N392 1.993 . S
Co375 O400 1.941 . S
C376 O377 1.258 . S
C376 O378 1.263 . S
O377 Co374 1.970 . S
O377 C376 1.258 . S
O378 Co375 1.966 . S
O378 C376 1.263 . S
C379 O380 1.235 . S
C379 O406 1.289 . S
O380 C379 1.235 . S
C381 C383 1.400 . S
C381 N384 1.351 . S
C381 C386 1.501 . S
C382 C383 1.387 . S
C382 N385 1.341 . S
C383 C381 1.400 . S
C383 C382 1.387 . S
N384 Co375 2.022 . S
N384 C381 1.351 . S
N384 N385 1.365 . S
N385 C382 1.341 . S
N385 N384 1.365 . S
N385 H405 0.862 . S
C386 C381 1.501 . S
C386 H387 0.961 . S
C386 H388 0.961 . S
C386 H389 0.960 . S
H387 C386 0.961 . S
H388 C386 0.961 . S
H389 C386 0.960 . S
C390 N391 1.342 . S
C390 C394 1.401 . S
C390 C395 1.499 . S
N391 Co374 1.989 . S
N391 C390 1.342 . S
N391 N392 1.388 . S
N392 Co375 1.993 . S
N392 N391 1.388 . S
N392 C393 1.346 . S
C393 N392 1.346 . S
C393 C394 1.396 . S
C393 C403 1.510 . S
C394 C390 1.401 . S
C394 C393 1.396 . S
C395 C390 1.499 . S
C395 H396 0.959 . S
C395 H397 0.960 . S
C395 H398 0.961 . S
H396 C395 0.959 . S
H397 C395 0.960 . S
H398 C395 0.961 . S
O399 Co374 1.967 . S
O399 C407 1.258 . S
O400 Co375 1.941 . S
O400 C407 1.266 . S
H401 C403 0.959 . S
H402 C403 0.961 . S
C403 C393 1.510 . S
C403 H401 0.959 . S
C403 H402 0.961 . S
C403 H404 0.960 . S
H404 C403 0.960 . S
H405 N385 0.862 . S
O406 Co374 1.920 . S
O406 C379 1.289 . S
C407 O399 1.258 . S
C407 O400 1.266 . S
Co408 O411 1.970 . S
Co408 N425 1.989 . S
Co408 O433 1.967 . S
Co408 O440 1.920 . S
Co409 O412 1.966 . S
Co409 N418 2.022 . S
Co409 N426 1.993 . S
Co409 O434 1.941 . S
C410 O411 1.258 . S
C410 O412 1.263 . S
O411 Co408 1.970 . S
O411 C410 1.258 . S
O412 Co409 1.966 . S
O412 C410 1.263 . S
C413 O414 1.235 . S
C413 O440 1.289 . S
O414 C413 1.235 . S
C415 C417 1.400 . S
C415 N418 1.351 . S
C415 C420 1.501 . S
C416 C417 1.387 . S
C416 N419 1.341 . S
C417 C415 1.400 . S
C417 C416 1.387 . S
N418 Co409 2.022 . S
N418 C415 1.351 . S
N418 N419 1.365 . S
N419 C416 1.341 . S
N419 N418 1.365 . S
N419 H439 0.862 . S
C420 C415 1.501 . S
C420 H421 0.961 . S
C420 H422 0.961 . S
C420 H423 0.960 . S
H421 C420 0.961 . S
H422 C420 0.961 . S
H423 C420 0.960 . S
C424 N425 1.342 . S
C424 C428 1.401 . S
C424 C429 1.499 . S
N425 Co408 1.989 . S
N425 C424 1.342 . S
N425 N426 1.388 . S
N426 Co409 1.993 . S
N426 N425 1.388 . S
N426 C427 1.346 . S
C427 N426 1.346 . S
C427 C428 1.396 . S
C427 C437 1.510 . S
C428 C424 1.401 . S
C428 C427 1.396 . S
C429 C424 1.499 . S
C429 H430 0.959 . S
C429 H431 0.960 . S
C429 H432 0.961 . S
H430 C429 0.959 . S
H431 C429 0.960 . S
H432 C429 0.961 . S
O433 Co408 1.967 . S
O433 C441 1.258 . S
O434 Co409 1.941 . S
O434 C441 1.266 . S
H435 C437 0.959 . S
H436 C437 0.961 . S
C437 C427 1.510 . S
C437 H435 0.959 . S
C437 H436 0.961 . S
C437 H438 0.960 . S
H438 C437 0.960 . S
H439 N419 0.862 . S
O440 Co408 1.920 . S
O440 C413 1.289 . S
C441 O433 1.258 . S
C441 O434 1.266 . S
Co442 O445 1.970 . S
Co442 N459 1.989 . S
Co442 O467 1.967 . S
Co442 O474 1.920 . S
Co443 O446 1.966 . S
Co443 N452 2.022 . S
Co443 N460 1.993 . S
Co443 O468 1.941 . S
C444 O445 1.258 . S
C444 O446 1.263 . S
O445 Co442 1.970 . S
O445 C444 1.258 . S
O446 Co443 1.966 . S
O446 C444 1.263 . S
C447 O448 1.235 . S
C447 O474 1.289 . S
O448 C447 1.235 . S
C449 C451 1.400 . S
C449 N452 1.351 . S
C449 C454 1.501 . S
C450 C451 1.387 . S
C450 N453 1.341 . S
C451 C449 1.400 . S
C451 C450 1.387 . S
N452 Co443 2.022 . S
N452 C449 1.351 . S
N452 N453 1.365 . S
N453 C450 1.341 . S
N453 N452 1.365 . S
N453 H473 0.862 . S
C454 C449 1.501 . S
C454 H455 0.961 . S
C454 H456 0.961 . S
C454 H457 0.960 . S
H455 C454 0.961 . S
H456 C454 0.961 . S
H457 C454 0.960 . S
C458 N459 1.342 . S
C458 C462 1.401 . S
C458 C463 1.499 . S
N459 Co442 1.989 . S
N459 C458 1.342 . S
N459 N460 1.388 . S
N460 Co443 1.993 . S
N460 N459 1.388 . S
N460 C461 1.346 . S
C461 N460 1.346 . S
C461 C462 1.396 . S
C461 C471 1.510 . S
C462 C458 1.401 . S
C462 C461 1.396 . S
C463 C458 1.499 . S
C463 H464 0.959 . S
C463 H465 0.960 . S
C463 H466 0.961 . S
H464 C463 0.959 . S
H465 C463 0.960 . S
H466 C463 0.961 . S
O467 Co442 1.967 . S
O467 C475 1.258 . S
O468 Co443 1.941 . S
O468 C475 1.266 . S
H469 C471 0.959 . S
H470 C471 0.961 . S
C471 C461 1.510 . S
C471 H469 0.959 . S
C471 H470 0.961 . S
C471 H472 0.960 . S
H472 C471 0.960 . S
H473 N453 0.862 . S
O474 Co442 1.920 . S
O474 C447 1.289 . S
C475 O467 1.258 . S
C475 O468 1.266 . S
Co476 O479 1.970 . S
Co476 N493 1.989 . S
Co476 O501 1.967 . S
Co476 O508 1.920 . S
Co477 O480 1.966 . S
Co477 N486 2.022 . S
Co477 N494 1.993 . S
Co477 O502 1.941 . S
C478 O479 1.258 . S
C478 O480 1.263 . S
O479 Co476 1.970 . S
O479 C478 1.258 . S
O480 Co477 1.966 . S
O480 C478 1.263 . S
C481 O482 1.235 . S
C481 O508 1.289 . S
O482 C481 1.235 . S
C483 C485 1.400 . S
C483 N486 1.351 . S
C483 C488 1.501 . S
C484 C485 1.387 . S
C484 N487 1.341 . S
C485 C483 1.400 . S
C485 C484 1.387 . S
N486 Co477 2.022 . S
N486 C483 1.351 . S
N486 N487 1.365 . S
N487 C484 1.341 . S
N487 N486 1.365 . S
N487 H507 0.862 . S
C488 C483 1.501 . S
C488 H489 0.961 . S
C488 H490 0.961 . S
C488 H491 0.960 . S
H489 C488 0.961 . S
H490 C488 0.961 . S
H491 C488 0.960 . S
C492 N493 1.342 . S
C492 C496 1.401 . S
C492 C497 1.499 . S
N493 Co476 1.989 . S
N493 C492 1.342 . S
N493 N494 1.388 . S
N494 Co477 1.993 . S
N494 N493 1.388 . S
N494 C495 1.346 . S
C495 N494 1.346 . S
C495 C496 1.396 . S
C495 C505 1.510 . S
C496 C492 1.401 . S
C496 C495 1.396 . S
C497 C492 1.499 . S
C497 H498 0.959 . S
C497 H499 0.960 . S
C497 H500 0.961 . S
H498 C497 0.959 . S
H499 C497 0.960 . S
H500 C497 0.961 . S
O501 Co476 1.967 . S
O501 C509 1.258 . S
O502 Co477 1.941 . S
O502 C509 1.266 . S
H503 C505 0.959 . S
H504 C505 0.961 . S
C505 C495 1.510 . S
C505 H503 0.959 . S
C505 H504 0.961 . S
C505 H506 0.960 . S
H506 C505 0.960 . S
H507 N487 0.862 . S
O508 Co476 1.920 . S
O508 C481 1.289 . S
C509 O501 1.258 . S
C509 O502 1.266 . S
Co510 O513 1.970 . S
Co510 N527 1.989 . S
Co510 O535 1.967 . S
Co510 O542 1.920 . S
Co511 O514 1.966 . S
Co511 N520 2.022 . S
Co511 N528 1.993 . S
Co511 O536 1.941 . S
C512 O513 1.258 . S
C512 O514 1.263 . S
O513 Co510 1.970 . S
O513 C512 1.258 . S
O514 Co511 1.966 . S
O514 C512 1.263 . S
C515 O516 1.235 . S
C515 O542 1.289 . S
O516 C515 1.235 . S
C517 C519 1.400 . S
C517 N520 1.351 . S
C517 C522 1.501 . S
C518 C519 1.387 . S
C518 N521 1.341 . S
C519 C517 1.400 . S
C519 C518 1.387 . S
N520 Co511 2.022 . S
N520 C517 1.351 . S
N520 N521 1.365 . S
N521 C518 1.341 . S
N521 N520 1.365 . S
N521 H541 0.862 . S
C522 C517 1.501 . S
C522 H523 0.961 . S
C522 H524 0.961 . S
C522 H525 0.960 . S
H523 C522 0.961 . S
H524 C522 0.961 . S
H525 C522 0.960 . S
C526 N527 1.342 . S
C526 C530 1.401 . S
C526 C531 1.499 . S
N527 Co510 1.989 . S
N527 C526 1.342 . S
N527 N528 1.388 . S
N528 Co511 1.993 . S
N528 N527 1.388 . S
N528 C529 1.346 . S
C529 N528 1.346 . S
C529 C530 1.396 . S
C529 C539 1.510 . S
C530 C526 1.401 . S
C530 C529 1.396 . S
C531 C526 1.499 . S
C531 H532 0.959 . S
C531 H533 0.960 . S
C531 H534 0.961 . S
H532 C531 0.959 . S
H533 C531 0.960 . S
H534 C531 0.961 . S
O535 Co510 1.967 . S
O535 C543 1.258 . S
O536 Co511 1.941 . S
O536 C543 1.266 . S
H537 C539 0.959 . S
H538 C539 0.961 . S
C539 C529 1.510 . S
C539 H537 0.959 . S
C539 H538 0.961 . S
C539 H540 0.960 . S
H540 C539 0.960 . S
H541 N521 0.862 . S
O542 Co510 1.920 . S
O542 C515 1.289 . S
C543 O535 1.258 . S
C543 O536 1.266 . S
Co544 O547 1.970 . S
Co544 N561 1.989 . S
Co544 O569 1.967 . S
Co544 O576 1.920 . S
Co545 O548 1.966 . S
Co545 N554 2.022 . S
Co545 N562 1.993 . S
Co545 O570 1.941 . S
C546 O547 1.258 . S
C546 O548 1.263 . S
O547 Co544 1.970 . S
O547 C546 1.258 . S
O548 Co545 1.966 . S
O548 C546 1.263 . S
C549 O550 1.235 . S
C549 O576 1.289 . S
O550 C549 1.235 . S
C551 C553 1.400 . S
C551 N554 1.351 . S
C551 C556 1.501 . S
C552 C553 1.387 . S
C552 N555 1.341 . S
C553 C551 1.400 . S
C553 C552 1.387 . S
N554 Co545 2.022 . S
N554 C551 1.351 . S
N554 N555 1.365 . S
N555 C552 1.341 . S
N555 N554 1.365 . S
N555 H575 0.862 . S
C556 C551 1.501 . S
C556 H557 0.961 . S
C556 H558 0.961 . S
C556 H559 0.960 . S
H557 C556 0.961 . S
H558 C556 0.961 . S
H559 C556 0.960 . S
C560 N561 1.342 . S
C560 C564 1.401 . S
C560 C565 1.499 . S
N561 Co544 1.989 . S
N561 C560 1.342 . S
N561 N562 1.388 . S
N562 Co545 1.993 . S
N562 N561 1.388 . S
N562 C563 1.346 . S
C563 N562 1.346 . S
C563 C564 1.396 . S
C563 C573 1.510 . S
C564 C560 1.401 . S
C564 C563 1.396 . S
C565 C560 1.499 . S
C565 H566 0.959 . S
C565 H567 0.960 . S
C565 H568 0.961 . S
H566 C565 0.959 . S
H567 C565 0.960 . S
H568 C565 0.961 . S
O569 Co544 1.967 . S
O569 C577 1.258 . S
O570 Co545 1.941 . S
O570 C577 1.266 . S
H571 C573 0.959 . S
H572 C573 0.961 . S
C573 C563 1.510 . S
C573 H571 0.959 . S
C573 H572 0.961 . S
C573 H574 0.960 . S
H574 C573 0.960 . S
H575 N555 0.862 . S
O576 Co544 1.920 . S
O576 C549 1.289 . S
C577 O569 1.258 . S
C577 O570 1.266 . S
Co578 O581 1.970 . S
Co578 N595 1.989 . S
Co578 O603 1.967 . S
Co578 O610 1.920 . S
Co579 O582 1.966 . S
Co579 N588 2.022 . S
Co579 N596 1.993 . S
Co579 O604 1.941 . S
C580 O581 1.258 . S
C580 O582 1.263 . S
O581 Co578 1.970 . S
O581 C580 1.258 . S
O582 Co579 1.966 . S
O582 C580 1.263 . S
C583 O584 1.235 . S
C583 O610 1.289 . S
O584 C583 1.235 . S
C585 C587 1.400 . S
C585 N588 1.351 . S
C585 C590 1.501 . S
C586 C587 1.387 . S
C586 N589 1.341 . S
C587 C585 1.400 . S
C587 C586 1.387 . S
N588 Co579 2.022 . S
N588 C585 1.351 . S
N588 N589 1.365 . S
N589 C586 1.341 . S
N589 N588 1.365 . S
N589 H609 0.862 . S
C590 C585 1.501 . S
C590 H591 0.961 . S
C590 H592 0.961 . S
C590 H593 0.960 . S
H591 C590 0.961 . S
H592 C590 0.961 . S
H593 C590 0.960 . S
C594 N595 1.342 . S
C594 C598 1.401 . S
C594 C599 1.499 . S
N595 Co578 1.989 . S
N595 C594 1.342 . S
N595 N596 1.388 . S
N596 Co579 1.993 . S
N596 N595 1.388 . S
N596 C597 1.346 . S
C597 N596 1.346 . S
C597 C598 1.396 . S
C597 C607 1.510 . S
C598 C594 1.401 . S
C598 C597 1.396 . S
C599 C594 1.499 . S
C599 H600 0.959 . S
C599 H601 0.960 . S
C599 H602 0.961 . S
H600 C599 0.959 . S
H601 C599 0.960 . S
H602 C599 0.961 . S
O603 Co578 1.967 . S
O603 C611 1.258 . S
O604 Co579 1.941 . S
O604 C611 1.266 . S
H605 C607 0.959 . S
H606 C607 0.961 . S
C607 C597 1.510 . S
C607 H605 0.959 . S
C607 H606 0.961 . S
C607 H608 0.960 . S
H608 C607 0.960 . S
H609 N589 0.862 . S
O610 Co578 1.920 . S
O610 C583 1.289 . S
C611 O603 1.258 . S
C611 O604 1.266 . S
Co612 O615 1.970 . S
Co612 N629 1.989 . S
Co612 O637 1.967 . S
Co612 O644 1.920 . S
Co613 O616 1.966 . S
Co613 N622 2.022 . S
Co613 N630 1.993 . S
Co613 O638 1.941 . S
C614 O615 1.258 . S
C614 O616 1.263 . S
O615 Co612 1.970 . S
O615 C614 1.258 . S
O616 Co613 1.966 . S
O616 C614 1.263 . S
C617 O618 1.235 . S
C617 O644 1.289 . S
O618 C617 1.235 . S
C619 C621 1.400 . S
C619 N622 1.351 . S
C619 C624 1.501 . S
C620 C621 1.387 . S
C620 N623 1.341 . S
C621 C619 1.400 . S
C621 C620 1.387 . S
N622 Co613 2.022 . S
N622 C619 1.351 . S
N622 N623 1.365 . S
N623 C620 1.341 . S
N623 N622 1.365 . S
N623 H643 0.862 . S
C624 C619 1.501 . S
C624 H625 0.961 . S
C624 H626 0.961 . S
C624 H627 0.960 . S
H625 C624 0.961 . S
H626 C624 0.961 . S
H627 C624 0.960 . S
C628 N629 1.342 . S
C628 C632 1.401 . S
C628 C633 1.499 . S
N629 Co612 1.989 . S
N629 C628 1.342 . S
N629 N630 1.388 . S
N630 Co613 1.993 . S
N630 N629 1.388 . S
N630 C631 1.346 . S
C631 N630 1.346 . S
C631 C632 1.396 . S
C631 C641 1.510 . S
C632 C628 1.401 . S
C632 C631 1.396 . S
C633 C628 1.499 . S
C633 H634 0.959 . S
C633 H635 0.960 . S
C633 H636 0.961 . S
H634 C633 0.959 . S
H635 C633 0.960 . S
H636 C633 0.961 . S
O637 Co612 1.967 . S
O637 C645 1.258 . S
O638 Co613 1.941 . S
O638 C645 1.266 . S
H639 C641 0.959 . S
H640 C641 0.961 . S
C641 C631 1.510 . S
C641 H639 0.959 . S
C641 H640 0.961 . S
C641 H642 0.960 . S
H642 C641 0.960 . S
H643 N623 0.862 . S
O644 Co612 1.920 . S
O644 C617 1.289 . S
C645 O637 1.258 . S
C645 O638 1.266 . S
Co646 O649 1.970 . S
Co646 N663 1.989 . S
Co646 O671 1.967 . S
Co646 O678 1.920 . S
Co647 O650 1.966 . S
Co647 N656 2.022 . S
Co647 N664 1.993 . S
Co647 O672 1.941 . S
C648 O649 1.258 . S
C648 O650 1.263 . S
O649 Co646 1.970 . S
O649 C648 1.258 . S
O650 Co647 1.966 . S
O650 C648 1.263 . S
C651 O652 1.235 . S
C651 O678 1.289 . S
O652 C651 1.235 . S
C653 C655 1.400 . S
C653 N656 1.351 . S
C653 C658 1.501 . S
C654 C655 1.387 . S
C654 N657 1.341 . S
C655 C653 1.400 . S
C655 C654 1.387 . S
N656 Co647 2.022 . S
N656 C653 1.351 . S
N656 N657 1.365 . S
N657 C654 1.341 . S
N657 N656 1.365 . S
N657 H677 0.862 . S
C658 C653 1.501 . S
C658 H659 0.961 . S
C658 H660 0.961 . S
C658 H661 0.960 . S
H659 C658 0.961 . S
H660 C658 0.961 . S
H661 C658 0.960 . S
C662 N663 1.342 . S
C662 C666 1.401 . S
C662 C667 1.499 . S
N663 Co646 1.989 . S
N663 C662 1.342 . S
N663 N664 1.388 . S
N664 Co647 1.993 . S
N664 N663 1.388 . S
N664 C665 1.346 . S
C665 N664 1.346 . S
C665 C666 1.396 . S
C665 C675 1.510 . S
C666 C662 1.401 . S
C666 C665 1.396 . S
C667 C662 1.499 . S
C667 H668 0.959 . S
C667 H669 0.960 . S
C667 H670 0.961 . S
H668 C667 0.959 . S
H669 C667 0.960 . S
H670 C667 0.961 . S
O671 Co646 1.967 . S
O671 C679 1.258 . S
O672 Co647 1.941 . S
O672 C679 1.266 . S
H673 C675 0.959 . S
H674 C675 0.961 . S
C675 C665 1.510 . S
C675 H673 0.959 . S
C675 H674 0.961 . S
C675 H676 0.960 . S
H676 C675 0.960 . S
H677 N657 0.862 . S
O678 Co646 1.920 . S
O678 C651 1.289 . S
C679 O671 1.258 . S
C679 O672 1.266 . S
Co680 O683 1.970 . S
Co680 N697 1.989 . S
Co680 O705 1.967 . S
Co680 O712 1.920 . S
Co681 O684 1.966 . S
Co681 N690 2.022 . S
Co681 N698 1.993 . S
Co681 O706 1.941 . S
C682 O683 1.258 . S
C682 O684 1.263 . S
O683 Co680 1.970 . S
O683 C682 1.258 . S
O684 Co681 1.966 . S
O684 C682 1.263 . S
C685 O686 1.235 . S
C685 O712 1.289 . S
O686 C685 1.235 . S
C687 C689 1.400 . S
C687 N690 1.351 . S
C687 C692 1.501 . S
C688 C689 1.387 . S
C688 N691 1.341 . S
C689 C687 1.400 . S
C689 C688 1.387 . S
N690 Co681 2.022 . S
N690 C687 1.351 . S
N690 N691 1.365 . S
N691 C688 1.341 . S
N691 N690 1.365 . S
N691 H711 0.862 . S
C692 C687 1.501 . S
C692 H693 0.961 . S
C692 H694 0.961 . S
C692 H695 0.960 . S
H693 C692 0.961 . S
H694 C692 0.961 . S
H695 C692 0.960 . S
C696 N697 1.342 . S
C696 C700 1.401 . S
C696 C701 1.499 . S
N697 Co680 1.989 . S
N697 C696 1.342 . S
N697 N698 1.388 . S
N698 Co681 1.993 . S
N698 N697 1.388 . S
N698 C699 1.346 . S
C699 N698 1.346 . S
C699 C700 1.396 . S
C699 C709 1.510 . S
C700 C696 1.401 . S
C700 C699 1.396 . S
C701 C696 1.499 . S
C701 H702 0.959 . S
C701 H703 0.960 . S
C701 H704 0.961 . S
H702 C701 0.959 . S
H703 C701 0.960 . S
H704 C701 0.961 . S
O705 Co680 1.967 . S
O705 C713 1.258 . S
O706 Co681 1.941 . S
O706 C713 1.266 . S
H707 C709 0.959 . S
H708 C709 0.961 . S
C709 C699 1.510 . S
C709 H707 0.959 . S
C709 H708 0.961 . S
C709 H710 0.960 . S
H710 C709 0.960 . S
H711 N691 0.862 . S
O712 Co680 1.920 . S
O712 C685 1.289 . S
C713 O705 1.258 . S
C713 O706 1.266 . S
Co714 O717 1.970 . S
Co714 N731 1.989 . S
Co714 O739 1.967 . S
Co714 O746 1.920 . S
Co715 O718 1.966 . S
Co715 N724 2.022 . S
Co715 N732 1.993 . S
Co715 O740 1.941 . S
C716 O717 1.258 . S
C716 O718 1.263 . S
O717 Co714 1.970 . S
O717 C716 1.258 . S
O718 Co715 1.966 . S
O718 C716 1.263 . S
C719 O720 1.235 . S
C719 O746 1.289 . S
O720 C719 1.235 . S
C721 C723 1.400 . S
C721 N724 1.351 . S
C721 C726 1.501 . S
C722 C723 1.387 . S
C722 N725 1.341 . S
C723 C721 1.400 . S
C723 C722 1.387 . S
N724 Co715 2.022 . S
N724 C721 1.351 . S
N724 N725 1.365 . S
N725 C722 1.341 . S
N725 N724 1.365 . S
N725 H745 0.862 . S
C726 C721 1.501 . S
C726 H727 0.961 . S
C726 H728 0.961 . S
C726 H729 0.960 . S
H727 C726 0.961 . S
H728 C726 0.961 . S
H729 C726 0.960 . S
C730 N731 1.342 . S
C730 C734 1.401 . S
C730 C735 1.499 . S
N731 Co714 1.989 . S
N731 C730 1.342 . S
N731 N732 1.388 . S
N732 Co715 1.993 . S
N732 N731 1.388 . S
N732 C733 1.346 . S
C733 N732 1.346 . S
C733 C734 1.396 . S
C733 C743 1.510 . S
C734 C730 1.401 . S
C734 C733 1.396 . S
C735 C730 1.499 . S
C735 H736 0.959 . S
C735 H737 0.960 . S
C735 H738 0.961 . S
H736 C735 0.959 . S
H737 C735 0.960 . S
H738 C735 0.961 . S
O739 Co714 1.967 . S
O739 C747 1.258 . S
O740 Co715 1.941 . S
O740 C747 1.266 . S
H741 C743 0.959 . S
H742 C743 0.961 . S
C743 C733 1.510 . S
C743 H741 0.959 . S
C743 H742 0.961 . S
C743 H744 0.960 . S
H744 C743 0.960 . S
H745 N725 0.862 . S
O746 Co714 1.920 . S
O746 C719 1.289 . S
C747 O739 1.258 . S
C747 O740 1.266 . S
Co748 O751 1.970 . S
Co748 N765 1.989 . S
Co748 O773 1.967 . S
Co748 O780 1.920 . S
Co749 O752 1.966 . S
Co749 N758 2.022 . S
Co749 N766 1.993 . S
Co749 O774 1.941 . S
C750 O751 1.258 . S
C750 O752 1.263 . S
O751 Co748 1.970 . S
O751 C750 1.258 . S
O752 Co749 1.966 . S
O752 C750 1.263 . S
C753 O754 1.235 . S
C753 O780 1.289 . S
O754 C753 1.235 . S
C755 C757 1.400 . S
C755 N758 1.351 . S
C755 C760 1.501 . S
C756 C757 1.387 . S
C756 N759 1.341 . S
C757 C755 1.400 . S
C757 C756 1.387 . S
N758 Co749 2.022 . S
N758 C755 1.351 . S
N758 N759 1.365 . S
N759 C756 1.341 . S
N759 N758 1.365 . S
N759 H779 0.862 . S
C760 C755 1.501 . S
C760 H761 0.961 . S
C760 H762 0.961 . S
C760 H763 0.960 . S
H761 C760 0.961 . S
H762 C760 0.961 . S
H763 C760 0.960 . S
C764 N765 1.342 . S
C764 C768 1.401 . S
C764 C769 1.499 . S
N765 Co748 1.989 . S
N765 C764 1.342 . S
N765 N766 1.388 . S
N766 Co749 1.993 . S
N766 N765 1.388 . S
N766 C767 1.346 . S
C767 N766 1.346 . S
C767 C768 1.396 . S
C767 C777 1.510 . S
C768 C764 1.401 . S
C768 C767 1.396 . S
C769 C764 1.499 . S
C769 H770 0.959 . S
C769 H771 0.960 . S
C769 H772 0.961 . S
H770 C769 0.959 . S
H771 C769 0.960 . S
H772 C769 0.961 . S
O773 Co748 1.967 . S
O773 C781 1.258 . S
O774 Co749 1.941 . S
O774 C781 1.266 . S
H775 C777 0.959 . S
H776 C777 0.961 . S
C777 C767 1.510 . S
C777 H775 0.959 . S
C777 H776 0.961 . S
C777 H778 0.960 . S
H778 C777 0.960 . S
H779 N759 0.862 . S
O780 Co748 1.920 . S
O780 C753 1.289 . S
C781 O773 1.258 . S
C781 O774 1.266 . S
Co782 O785 1.970 . S
Co782 N799 1.989 . S
Co782 O807 1.967 . S
Co782 O814 1.920 . S
Co783 O786 1.966 . S
Co783 N792 2.022 . S
Co783 N800 1.993 . S
Co783 O808 1.941 . S
C784 O785 1.258 . S
C784 O786 1.263 . S
O785 Co782 1.970 . S
O785 C784 1.258 . S
O786 Co783 1.966 . S
O786 C784 1.263 . S
C787 O788 1.235 . S
C787 O814 1.289 . S
O788 C787 1.235 . S
C789 C791 1.400 . S
C789 N792 1.351 . S
C789 C794 1.501 . S
C790 C791 1.387 . S
C790 N793 1.341 . S
C791 C789 1.400 . S
C791 C790 1.387 . S
N792 Co783 2.022 . S
N792 C789 1.351 . S
N792 N793 1.365 . S
N793 C790 1.341 . S
N793 N792 1.365 . S
N793 H813 0.862 . S
C794 C789 1.501 . S
C794 H795 0.961 . S
C794 H796 0.961 . S
C794 H797 0.960 . S
H795 C794 0.961 . S
H796 C794 0.961 . S
H797 C794 0.960 . S
C798 N799 1.342 . S
C798 C802 1.401 . S
C798 C803 1.499 . S
N799 Co782 1.989 . S
N799 C798 1.342 . S
N799 N800 1.388 . S
N800 Co783 1.993 . S
N800 N799 1.388 . S
N800 C801 1.346 . S
C801 N800 1.346 . S
C801 C802 1.396 . S
C801 C811 1.510 . S
C802 C798 1.401 . S
C802 C801 1.396 . S
C803 C798 1.499 . S
C803 H804 0.959 . S
C803 H805 0.960 . S
C803 H806 0.961 . S
H804 C803 0.959 . S
H805 C803 0.960 . S
H806 C803 0.961 . S
O807 Co782 1.967 . S
O807 C815 1.258 . S
O808 Co783 1.941 . S
O808 C815 1.266 . S
H809 C811 0.959 . S
H810 C811 0.961 . S
C811 C801 1.510 . S
C811 H809 0.959 . S
C811 H810 0.961 . S
C811 H812 0.960 . S
H812 C811 0.960 . S
H813 N793 0.862 . S
O814 Co782 1.920 . S
O814 C787 1.289 . S
C815 O807 1.258 . S
C815 O808 1.266 . S
Co816 O819 1.970 . S
Co816 N833 1.989 . S
Co816 O841 1.967 . S
Co816 O848 1.920 . S
Co817 O820 1.966 . S
Co817 N826 2.022 . S
Co817 N834 1.993 . S
Co817 O842 1.941 . S
C818 O819 1.258 . S
C818 O820 1.263 . S
O819 Co816 1.970 . S
O819 C818 1.258 . S
O820 Co817 1.966 . S
O820 C818 1.263 . S
C821 O822 1.235 . S
C821 O848 1.289 . S
O822 C821 1.235 . S
C823 C825 1.400 . S
C823 N826 1.351 . S
C823 C828 1.501 . S
C824 C825 1.387 . S
C824 N827 1.341 . S
C825 C823 1.400 . S
C825 C824 1.387 . S
N826 Co817 2.022 . S
N826 C823 1.351 . S
N826 N827 1.365 . S
N827 C824 1.341 . S
N827 N826 1.365 . S
N827 H847 0.862 . S
C828 C823 1.501 . S
C828 H829 0.961 . S
C828 H830 0.961 . S
C828 H831 0.960 . S
H829 C828 0.961 . S
H830 C828 0.961 . S
H831 C828 0.960 . S
C832 N833 1.342 . S
C832 C836 1.401 . S
C832 C837 1.499 . S
N833 Co816 1.989 . S
N833 C832 1.342 . S
N833 N834 1.388 . S
N834 Co817 1.993 . S
N834 N833 1.388 . S
N834 C835 1.346 . S
C835 N834 1.346 . S
C835 C836 1.396 . S
C835 C845 1.510 . S
C836 C832 1.401 . S
C836 C835 1.396 . S
C837 C832 1.499 . S
C837 H838 0.959 . S
C837 H839 0.960 . S
C837 H840 0.961 . S
H838 C837 0.959 . S
H839 C837 0.960 . S
H840 C837 0.961 . S
O841 Co816 1.967 . S
O841 C849 1.258 . S
O842 Co817 1.941 . S
O842 C849 1.266 . S
H843 C845 0.959 . S
H844 C845 0.961 . S
C845 C835 1.510 . S
C845 H843 0.959 . S
C845 H844 0.961 . S
C845 H846 0.960 . S
H846 C845 0.960 . S
H847 N827 0.862 . S
O848 Co816 1.920 . S
O848 C821 1.289 . S
C849 O841 1.258 . S
C849 O842 1.266 . S
Co850 O853 1.970 . S
Co850 N867 1.989 . S
Co850 O875 1.967 . S
Co850 O882 1.920 . S
Co851 O854 1.966 . S
Co851 N860 2.022 . S
Co851 N868 1.993 . S
Co851 O876 1.941 . S
C852 O853 1.258 . S
C852 O854 1.263 . S
O853 Co850 1.970 . S
O853 C852 1.258 . S
O854 Co851 1.966 . S
O854 C852 1.263 . S
C855 O856 1.235 . S
C855 O882 1.289 . S
O856 C855 1.235 . S
C857 C859 1.400 . S
C857 N860 1.351 . S
C857 C862 1.501 . S
C858 C859 1.387 . S
C858 N861 1.341 . S
C859 C857 1.400 . S
C859 C858 1.387 . S
N860 Co851 2.022 . S
N860 C857 1.351 . S
N860 N861 1.365 . S
N861 C858 1.341 . S
N861 N860 1.365 . S
N861 H881 0.862 . S
C862 C857 1.501 . S
C862 H863 0.961 . S
C862 H864 0.961 . S
C862 H865 0.960 . S
H863 C862 0.961 . S
H864 C862 0.961 . S
H865 C862 0.960 . S
C866 N867 1.342 . S
C866 C870 1.401 . S
C866 C871 1.499 . S
N867 Co850 1.989 . S
N867 C866 1.342 . S
N867 N868 1.388 . S
N868 Co851 1.993 . S
N868 N867 1.388 . S
N868 C869 1.346 . S
C869 N868 1.346 . S
C869 C870 1.396 . S
C869 C879 1.510 . S
C870 C866 1.401 . S
C870 C869 1.396 . S
C871 C866 1.499 . S
C871 H872 0.959 . S
C871 H873 0.960 . S
C871 H874 0.961 . S
H872 C871 0.959 . S
H873 C871 0.960 . S
H874 C871 0.961 . S
O875 Co850 1.967 . S
O875 C883 1.258 . S
O876 Co851 1.941 . S
O876 C883 1.266 . S
H877 C879 0.959 . S
H878 C879 0.961 . S
C879 C869 1.510 . S
C879 H877 0.959 . S
C879 H878 0.961 . S
C879 H880 0.960 . S
H880 C879 0.960 . S
H881 N861 0.862 . S
O882 Co850 1.920 . S
O882 C855 1.289 . S
C883 O875 1.258 . S
C883 O876 1.266 . S
Co884 O887 1.970 . S
Co884 N901 1.989 . S
Co884 O909 1.967 . S
Co884 O916 1.920 . S
Co885 O888 1.966 . S
Co885 N894 2.022 . S
Co885 N902 1.993 . S
Co885 O910 1.941 . S
C886 O887 1.258 . S
C886 O888 1.263 . S
O887 Co884 1.970 . S
O887 C886 1.258 . S
O888 Co885 1.966 . S
O888 C886 1.263 . S
C889 O890 1.235 . S
C889 O916 1.289 . S
O890 C889 1.235 . S
C891 C893 1.400 . S
C891 N894 1.351 . S
C891 C896 1.501 . S
C892 C893 1.387 . S
C892 N895 1.341 . S
C893 C891 1.400 . S
C893 C892 1.387 . S
N894 Co885 2.022 . S
N894 C891 1.351 . S
N894 N895 1.365 . S
N895 C892 1.341 . S
N895 N894 1.365 . S
N895 H915 0.862 . S
C896 C891 1.501 . S
C896 H897 0.961 . S
C896 H898 0.961 . S
C896 H899 0.960 . S
H897 C896 0.961 . S
H898 C896 0.961 . S
H899 C896 0.960 . S
C900 N901 1.342 . S
C900 C904 1.401 . S
C900 C905 1.499 . S
N901 Co884 1.989 . S
N901 C900 1.342 . S
N901 N902 1.388 . S
N902 Co885 1.993 . S
N902 N901 1.388 . S
N902 C903 1.346 . S
C903 N902 1.346 . S
C903 C904 1.396 . S
C903 C913 1.510 . S
C904 C900 1.401 . S
C904 C903 1.396 . S
C905 C900 1.499 . S
C905 H906 0.959 . S
C905 H907 0.960 . S
C905 H908 0.961 . S
H906 C905 0.959 . S
H907 C905 0.960 . S
H908 C905 0.961 . S
O909 Co884 1.967 . S
O909 C917 1.258 . S
O910 Co885 1.941 . S
O910 C917 1.266 . S
H911 C913 0.959 . S
H912 C913 0.961 . S
C913 C903 1.510 . S
C913 H911 0.959 . S
C913 H912 0.961 . S
C913 H914 0.960 . S
H914 C913 0.960 . S
H915 N895 0.862 . S
O916 Co884 1.920 . S
O916 C889 1.289 . S
C917 O909 1.258 . S
C917 O910 1.266 . S
Co918 O921 1.970 . S
Co918 N935 1.989 . S
Co918 O943 1.967 . S
Co918 O950 1.920 . S
Co919 O922 1.966 . S
Co919 N928 2.022 . S
Co919 N936 1.993 . S
Co919 O944 1.941 . S
C920 O921 1.258 . S
C920 O922 1.263 . S
O921 Co918 1.970 . S
O921 C920 1.258 . S
O922 Co919 1.966 . S
O922 C920 1.263 . S
C923 O924 1.235 . S
C923 O950 1.289 . S
O924 C923 1.235 . S
C925 C927 1.400 . S
C925 N928 1.351 . S
C925 C930 1.501 . S
C926 C927 1.387 . S
C926 N929 1.341 . S
C927 C925 1.400 . S
C927 C926 1.387 . S
N928 Co919 2.022 . S
N928 C925 1.351 . S
N928 N929 1.365 . S
N929 C926 1.341 . S
N929 N928 1.365 . S
N929 H949 0.862 . S
C930 C925 1.501 . S
C930 H931 0.961 . S
C930 H932 0.961 . S
C930 H933 0.960 . S
H931 C930 0.961 . S
H932 C930 0.961 . S
H933 C930 0.960 . S
C934 N935 1.342 . S
C934 C938 1.401 . S
C934 C939 1.499 . S
N935 Co918 1.989 . S
N935 C934 1.342 . S
N935 N936 1.388 . S
N936 Co919 1.993 . S
N936 N935 1.388 . S
N936 C937 1.346 . S
C937 N936 1.346 . S
C937 C938 1.396 . S
C937 C947 1.510 . S
C938 C934 1.401 . S
C938 C937 1.396 . S
C939 C934 1.499 . S
C939 H940 0.959 . S
C939 H941 0.960 . S
C939 H942 0.961 . S
H940 C939 0.959 . S
H941 C939 0.960 . S
H942 C939 0.961 . S
O943 Co918 1.967 . S
O943 C951 1.258 . S
O944 Co919 1.941 . S
O944 C951 1.266 . S
H945 C947 0.959 . S
H946 C947 0.961 . S
C947 C937 1.510 . S
C947 H945 0.959 . S
C947 H946 0.961 . S
C947 H948 0.960 . S
H948 C947 0.960 . S
H949 N929 0.862 . S
O950 Co918 1.920 . S
O950 C923 1.289 . S
C951 O943 1.258 . S
C951 O944 1.266 . S
Co952 O955 1.970 . S
Co952 N969 1.989 . S
Co952 O977 1.967 . S
Co952 O984 1.920 . S
Co953 O956 1.966 . S
Co953 N962 2.022 . S
Co953 N970 1.993 . S
Co953 O978 1.941 . S
C954 O955 1.258 . S
C954 O956 1.263 . S
O955 Co952 1.970 . S
O955 C954 1.258 . S
O956 Co953 1.966 . S
O956 C954 1.263 . S
C957 O958 1.235 . S
C957 O984 1.289 . S
O958 C957 1.235 . S
C959 C961 1.400 . S
C959 N962 1.351 . S
C959 C964 1.501 . S
C960 C961 1.387 . S
C960 N963 1.341 . S
C961 C959 1.400 . S
C961 C960 1.387 . S
N962 Co953 2.022 . S
N962 C959 1.351 . S
N962 N963 1.365 . S
N963 C960 1.341 . S
N963 N962 1.365 . S
N963 H983 0.862 . S
C964 C959 1.501 . S
C964 H965 0.961 . S
C964 H966 0.961 . S
C964 H967 0.960 . S
H965 C964 0.961 . S
H966 C964 0.961 . S
H967 C964 0.960 . S
C968 N969 1.342 . S
C968 C972 1.401 . S
C968 C973 1.499 . S
N969 Co952 1.989 . S
N969 C968 1.342 . S
N969 N970 1.388 . S
N970 Co953 1.993 . S
N970 N969 1.388 . S
N970 C971 1.346 . S
C971 N970 1.346 . S
C971 C972 1.396 . S
C971 C981 1.510 . S
C972 C968 1.401 . S
C972 C971 1.396 . S
C973 C968 1.499 . S
C973 H974 0.959 . S
C973 H975 0.960 . S
C973 H976 0.961 . S
H974 C973 0.959 . S
H975 C973 0.960 . S
H976 C973 0.961 . S
O977 Co952 1.967 . S
O977 C985 1.258 . S
O978 Co953 1.941 . S
O978 C985 1.266 . S
H979 C981 0.959 . S
H980 C981 0.961 . S
C981 C971 1.510 . S
C981 H979 0.959 . S
C981 H980 0.961 . S
C981 H982 0.960 . S
H982 C981 0.960 . S
H983 N963 0.862 . S
O984 Co952 1.920 . S
O984 C957 1.289 . S
C985 O977 1.258 . S
C985 O978 1.266 . S
Co986 O989 1.970 . S
Co986 N1003 1.989 . S
Co986 O1011 1.967 . S
Co986 O1018 1.920 . S
Co987 O990 1.966 . S
Co987 N996 2.022 . S
Co987 N1004 1.993 . S
Co987 O1012 1.941 . S
C988 O989 1.258 . S
C988 O990 1.263 . S
O989 Co986 1.970 . S
O989 C988 1.258 . S
O990 Co987 1.966 . S
O990 C988 1.263 . S
C991 O992 1.235 . S
C991 O1018 1.289 . S
O992 C991 1.235 . S
C993 C995 1.400 . S
C993 N996 1.351 . S
C993 C998 1.501 . S
C994 C995 1.387 . S
C994 N997 1.341 . S
C995 C993 1.400 . S
C995 C994 1.387 . S
N996 Co987 2.022 . S
N996 C993 1.351 . S
N996 N997 1.365 . S
N997 C994 1.341 . S
N997 N996 1.365 . S
N997 H1017 0.862 . S
C998 C993 1.501 . S
C998 H999 0.961 . S
C998 H1000 0.961 . S
C998 H1001 0.960 . S
H999 C998 0.961 . S
H1000 C998 0.961 . S
H1001 C998 0.960 . S
C1002 N1003 1.342 . S
C1002 C1006 1.401 . S
C1002 C1007 1.499 . S
N1003 Co986 1.989 . S
N1003 C1002 1.342 . S
N1003 N1004 1.388 . S
N1004 Co987 1.993 . S
N1004 N1003 1.388 . S
N1004 C1005 1.346 . S
C1005 N1004 1.346 . S
C1005 C1006 1.396 . S
C1005 C1015 1.510 . S
C1006 C1002 1.401 . S
C1006 C1005 1.396 . S
C1007 C1002 1.499 . S
C1007 H1008 0.959 . S
C1007 H1009 0.960 . S
C1007 H1010 0.961 . S
H1008 C1007 0.959 . S
H1009 C1007 0.960 . S
H1010 C1007 0.961 . S
O1011 Co986 1.967 . S
O1011 C1019 1.258 . S
O1012 Co987 1.941 . S
O1012 C1019 1.266 . S
H1013 C1015 0.959 . S
H1014 C1015 0.961 . S
C1015 C1005 1.510 . S
C1015 H1013 0.959 . S
C1015 H1014 0.961 . S
C1015 H1016 0.960 . S
H1016 C1015 0.960 . S
H1017 N997 0.862 . S
O1018 Co986 1.920 . S
O1018 C991 1.289 . S
C1019 O1011 1.258 . S
C1019 O1012 1.266 . S
Co1020 O1023 1.970 . S
Co1020 N1037 1.989 . S
Co1020 O1045 1.967 . S
Co1020 O1052 1.920 . S
Co1021 O1024 1.966 . S
Co1021 N1030 2.022 . S
Co1021 N1038 1.993 . S
Co1021 O1046 1.941 . S
C1022 O1023 1.258 . S
C1022 O1024 1.263 . S
O1023 Co1020 1.970 . S
O1023 C1022 1.258 . S
O1024 Co1021 1.966 . S
O1024 C1022 1.263 . S
C1025 O1026 1.235 . S
C1025 O1052 1.289 . S
O1026 C1025 1.235 . S
C1027 C1029 1.400 . S
C1027 N1030 1.351 . S
C1027 C1032 1.501 . S
C1028 C1029 1.387 . S
C1028 N1031 1.341 . S
C1029 C1027 1.400 . S
C1029 C1028 1.387 . S
N1030 Co1021 2.022 . S
N1030 C1027 1.351 . S
N1030 N1031 1.365 . S
N1031 C1028 1.341 . S
N1031 N1030 1.365 . S
N1031 H1051 0.862 . S
C1032 C1027 1.501 . S
C1032 H1033 0.961 . S
C1032 H1034 0.961 . S
C1032 H1035 0.960 . S
H1033 C1032 0.961 . S
H1034 C1032 0.961 . S
H1035 C1032 0.960 . S
C1036 N1037 1.342 . S
C1036 C1040 1.401 . S
C1036 C1041 1.499 . S
N1037 Co1020 1.989 . S
N1037 C1036 1.342 . S
N1037 N1038 1.388 . S
N1038 Co1021 1.993 . S
N1038 N1037 1.388 . S
N1038 C1039 1.346 . S
C1039 N1038 1.346 . S
C1039 C1040 1.396 . S
C1039 C1049 1.510 . S
C1040 C1036 1.401 . S
C1040 C1039 1.396 . S
C1041 C1036 1.499 . S
C1041 H1042 0.959 . S
C1041 H1043 0.960 . S
C1041 H1044 0.961 . S
H1042 C1041 0.959 . S
H1043 C1041 0.960 . S
H1044 C1041 0.961 . S
O1045 Co1020 1.967 . S
O1045 C1053 1.258 . S
O1046 Co1021 1.941 . S
O1046 C1053 1.266 . S
H1047 C1049 0.959 . S
H1048 C1049 0.961 . S
C1049 C1039 1.510 . S
C1049 H1047 0.959 . S
C1049 H1048 0.961 . S
C1049 H1050 0.960 . S
H1050 C1049 0.960 . S
H1051 N1031 0.862 . S
O1052 Co1020 1.920 . S
O1052 C1025 1.289 . S
C1053 O1045 1.258 . S
C1053 O1046 1.266 . S
Co1054 O1057 1.970 . S
Co1054 N1071 1.989 . S
Co1054 O1079 1.967 . S
Co1054 O1086 1.920 . S
Co1055 O1058 1.966 . S
Co1055 N1064 2.022 . S
Co1055 N1072 1.993 . S
Co1055 O1080 1.941 . S
C1056 O1057 1.258 . S
C1056 O1058 1.263 . S
O1057 Co1054 1.970 . S
O1057 C1056 1.258 . S
O1058 Co1055 1.966 . S
O1058 C1056 1.263 . S
C1059 O1060 1.235 . S
C1059 O1086 1.289 . S
O1060 C1059 1.235 . S
C1061 C1063 1.400 . S
C1061 N1064 1.351 . S
C1061 C1066 1.501 . S
C1062 C1063 1.387 . S
C1062 N1065 1.341 . S
C1063 C1061 1.400 . S
C1063 C1062 1.387 . S
N1064 Co1055 2.022 . S
N1064 C1061 1.351 . S
N1064 N1065 1.365 . S
N1065 C1062 1.341 . S
N1065 N1064 1.365 . S
N1065 H1085 0.862 . S
C1066 C1061 1.501 . S
C1066 H1067 0.961 . S
C1066 H1068 0.961 . S
C1066 H1069 0.960 . S
H1067 C1066 0.961 . S
H1068 C1066 0.961 . S
H1069 C1066 0.960 . S
C1070 N1071 1.342 . S
C1070 C1074 1.401 . S
C1070 C1075 1.499 . S
N1071 Co1054 1.989 . S
N1071 C1070 1.342 . S
N1071 N1072 1.388 . S
N1072 Co1055 1.993 . S
N1072 N1071 1.388 . S
N1072 C1073 1.346 . S
C1073 N1072 1.346 . S
C1073 C1074 1.396 . S
C1073 C1083 1.510 . S
C1074 C1070 1.401 . S
C1074 C1073 1.396 . S
C1075 C1070 1.499 . S
C1075 H1076 0.959 . S
C1075 H1077 0.960 . S
C1075 H1078 0.961 . S
H1076 C1075 0.959 . S
H1077 C1075 0.960 . S
H1078 C1075 0.961 . S
O1079 Co1054 1.967 . S
O1079 C1087 1.258 . S
O1080 Co1055 1.941 . S
O1080 C1087 1.266 . S
H1081 C1083 0.959 . S
H1082 C1083 0.961 . S
C1083 C1073 1.510 . S
C1083 H1081 0.959 . S
C1083 H1082 0.961 . S
C1083 H1084 0.960 . S
H1084 C1083 0.960 . S
H1085 N1065 0.862 . S
O1086 Co1054 1.920 . S
O1086 C1059 1.289 . S
C1087 O1079 1.258 . S
C1087 O1080 1.266 . S
H1088 C1094 0.930 . S
H1089 C1098 0.930 . S
H1090 C1103 0.929 . S
H1091 C1101 0.929 . S
H1092 C1096 0.929 . S
H1093 C1102 0.929 . S
C1094 H1088 0.930 . S
C1094 C1095 1.367 . S
C1094 C1102 1.378 . S
C1095 C1094 1.367 . S
C1095 C1103 1.433 . S
C1096 H1092 0.929 . S
C1096 C1098 1.378 . S
C1096 C1100 1.350 . S
C1097 C1100 1.463 . S
C1097 C1102 1.350 . S
C1097 N1105 1.427 . S
C1098 H1089 0.930 . S
C1098 C1096 1.378 . S
C1098 C1099 1.367 . S
C1099 C1098 1.367 . S
C1099 C1101 1.433 . S
C1100 C1096 1.350 . S
C1100 C1097 1.463 . S
C1100 N1104 1.427 . S
C1101 H1091 0.929 . S
C1101 C1099 1.433 . S
C1101 N1104 1.384 . S
C1102 H1093 0.929 . S
C1102 C1094 1.378 . S
C1102 C1097 1.350 . S
C1103 H1090 0.929 . S
C1103 C1095 1.433 . S
C1103 N1105 1.384 . S
N1104 C1100 1.427 . S
N1104 C1101 1.384 . S
N1105 C1097 1.427 . S
N1105 C1103 1.384 . S
H1106 C1112 0.930 . S
H1107 C1116 0.930 . S
H1108 C1121 0.929 . S
H1109 C1119 0.929 . S
H1110 C1114 0.931 1_655 S
H1111 C1120 0.931 1_455 S
C1112 H1106 0.930 . S
C1112 C1113 1.367 . S
C1112 C1120 1.378 . S
C1113 C1112 1.367 . S
C1113 C1121 1.433 . S
C1114 H1110 0.931 1_455 S
C1114 C1116 1.378 . S
C1114 C1118 1.350 . S
C1115 C1118 1.463 1_665 S
C1115 C1120 1.350 . S
C1115 N1123 1.427 . S
C1116 H1107 0.930 . S
C1116 C1114 1.378 . S
C1116 C1117 1.367 . S
C1117 C1116 1.367 . S
C1117 C1119 1.433 . S
C1118 C1114 1.350 . S
C1118 C1115 1.463 1_445 S
C1118 N1122 1.427 . S
C1119 H1109 0.929 . S
C1119 C1117 1.433 . S
C1119 N1122 1.384 . S
C1120 H1111 0.931 1_655 S
C1120 C1112 1.378 . S
C1120 C1115 1.350 . S
C1121 H1108 0.929 . S
C1121 C1113 1.433 . S
C1121 N1123 1.384 . S
N1122 C1118 1.427 . S
N1122 C1119 1.384 . S
N1123 C1115 1.427 . S
N1123 C1121 1.384 . S
H1124 C1130 0.930 . S
H1125 C1134 0.930 . S
H1126 C1139 0.929 . S
H1127 C1137 0.929 . S
H1128 C1132 0.929 . S
H1129 C1138 0.929 . S
C1130 H1124 0.930 . S
C1130 C1131 1.367 . S
C1130 C1138 1.378 . S
C1131 C1130 1.367 . S
C1131 C1139 1.433 . S
C1132 H1128 0.929 . S
C1132 C1134 1.378 . S
C1132 C1136 1.350 . S
C1133 C1136 1.463 . S
C1133 C1138 1.350 . S
C1133 N1141 1.427 . S
C1134 H1125 0.930 . S
C1134 C1132 1.378 . S
C1134 C1135 1.367 . S
C1135 C1134 1.367 . S
C1135 C1137 1.433 . S
C1136 C1132 1.350 . S
C1136 C1133 1.463 . S
C1136 N1140 1.427 . S
C1137 H1127 0.929 . S
C1137 C1135 1.433 . S
C1137 N1140 1.384 . S
C1138 H1129 0.929 . S
C1138 C1130 1.378 . S
C1138 C1133 1.350 . S
C1139 H1126 0.929 . S
C1139 C1131 1.433 . S
C1139 N1141 1.384 . S
N1140 C1136 1.427 . S
N1140 C1137 1.384 . S
N1141 C1133 1.427 . S
N1141 C1139 1.384 . S
H1142 C1148 0.930 . S
H1143 C1152 0.930 . S
H1144 C1157 0.929 1_554 S
H1145 C1155 0.929 1_556 S
H1146 C1150 0.929 . S
H1147 C1156 0.929 . S
C1148 H1142 0.930 . S
C1148 C1149 1.367 . S
C1148 C1156 1.378 . S
C1149 C1148 1.367 . S
C1149 C1157 1.433 . S
C1150 H1146 0.929 . S
C1150 C1152 1.378 . S
C1150 C1154 1.350 . S
C1151 C1154 1.463 1_566 S
C1151 C1156 1.350 . S
C1151 N1159 1.427 1_556 S
C1152 H1143 0.930 . S
C1152 C1150 1.378 . S
C1152 C1153 1.367 . S
C1153 C1152 1.367 . S
C1153 C1155 1.433 . S
C1154 C1150 1.350 . S
C1154 C1151 1.463 1_544 S
C1154 N1158 1.427 1_554 S
C1155 H1145 0.929 1_554 S
C1155 C1153 1.433 . S
C1155 N1158 1.384 1_554 S
C1156 H1147 0.929 . S
C1156 C1148 1.378 . S
C1156 C1151 1.350 . S
C1157 H1144 0.929 1_556 S
C1157 C1149 1.433 . S
C1157 N1159 1.384 1_556 S
N1158 C1154 1.427 1_556 S
N1158 C1155 1.384 1_556 S
N1159 C1151 1.427 1_554 S
N1159 C1157 1.384 1_554 S
H1160 C1166 0.930 . S
H1161 C1170 0.930 . S
H1162 C1175 0.929 . S
H1163 C1173 0.929 . S
H1164 C1168 0.929 . S
H1165 C1174 0.929 . S
C1166 H1160 0.930 . S
C1166 C1167 1.367 . S
C1166 C1174 1.378 . S
C1167 C1166 1.367 . S
C1167 C1175 1.433 . S
C1168 H1164 0.929 . S
C1168 C1170 1.378 . S
C1168 C1172 1.350 . S
C1169 C1172 1.463 . S
C1169 C1174 1.350 . S
C1169 N1177 1.427 . S
C1170 H1161 0.930 . S
C1170 C1168 1.378 . S
C1170 C1171 1.367 . S
C1171 C1170 1.367 . S
C1171 C1173 1.433 . S
C1172 C1168 1.350 . S
C1172 C1169 1.463 . S
C1172 N1176 1.427 . S
C1173 H1163 0.929 . S
C1173 C1171 1.433 . S
C1173 N1176 1.384 . S
C1174 H1165 0.929 . S
C1174 C1166 1.378 . S
C1174 C1169 1.350 . S
C1175 H1162 0.929 . S
C1175 C1167 1.433 . S
C1175 N1177 1.384 . S
N1176 C1172 1.427 . S
N1176 C1173 1.384 . S
N1177 C1169 1.427 . S
N1177 C1175 1.384 . S
H1178 C1184 0.930 . S
H1179 C1188 0.930 . S
H1180 C1193 0.929 . S
H1181 C1191 0.929 . S
H1182 C1186 0.929 . S
H1183 C1192 0.929 . S
C1184 H1178 0.930 . S
C1184 C1185 1.367 . S
C1184 C1192 1.378 1_565 S
C1185 C1184 1.367 . S
C1185 C1193 1.433 . S
C1186 H1182 0.929 . S
C1186 C1188 1.378 1_565 S
C1186 C1190 1.350 1_565 S
C1187 C1190 1.463 1_565 S
C1187 C1192 1.350 1_565 S
C1187 N1195 1.427 . S
C1188 H1179 0.930 . S
C1188 C1186 1.378 1_545 S
C1188 C1189 1.367 . S
C1189 C1188 1.367 . S
C1189 C1191 1.433 . S
C1190 C1186 1.350 1_545 S
C1190 C1187 1.463 1_545 S
C1190 N1194 1.427 . S
C1191 H1181 0.929 . S
C1191 C1189 1.433 . S
C1191 N1194 1.384 . S
C1192 H1183 0.929 . S
C1192 C1184 1.378 1_545 S
C1192 C1187 1.350 1_545 S
C1193 H1180 0.929 . S
C1193 C1185 1.433 . S
C1193 N1195 1.384 . S
N1194 C1190 1.427 . S
N1194 C1191 1.384 . S
N1195 C1187 1.427 . S
N1195 C1193 1.384 . S
H1196 C1202 0.930 . S
H1197 C1206 0.930 . S
H1198 C1211 0.929 . S
H1199 C1209 0.929 . S
H1200 C1204 0.929 . S
H1201 C1210 0.929 . S
C1202 H1196 0.930 . S
C1202 C1203 1.367 . S
C1202 C1210 1.378 . S
C1203 C1202 1.367 . S
C1203 C1211 1.433 . S
C1204 H1200 0.929 . S
C1204 C1206 1.378 . S
C1204 C1208 1.350 . S
C1205 C1208 1.463 . S
C1205 C1210 1.350 . S
C1205 N1213 1.427 . S
C1206 H1197 0.930 . S
C1206 C1204 1.378 . S
C1206 C1207 1.367 . S
C1207 C1206 1.367 . S
C1207 C1209 1.433 . S
C1208 C1204 1.350 . S
C1208 C1205 1.463 . S
C1208 N1212 1.427 . S
C1209 H1199 0.929 . S
C1209 C1207 1.433 . S
C1209 N1212 1.384 . S
C1210 H1201 0.929 . S
C1210 C1202 1.378 . S
C1210 C1205 1.350 . S
C1211 H1198 0.929 . S
C1211 C1203 1.433 . S
C1211 N1213 1.384 . S
N1212 C1208 1.427 . S
N1212 C1209 1.384 . S
N1213 C1205 1.427 . S
N1213 C1211 1.384 . S
H1214 C1220 0.930 . S
H1215 C1224 0.930 . S
H1216 C1229 0.929 1_556 S
H1217 C1227 0.929 1_554 S
H1218 C1222 0.929 1_565 S
H1219 C1228 0.929 1_545 S
C1220 H1214 0.930 . S
C1220 C1221 1.367 . S
C1220 C1228 1.378 . S
C1221 C1220 1.367 . S
C1221 C1229 1.433 . S
C1222 H1218 0.929 1_545 S
C1222 C1224 1.378 . S
C1222 C1226 1.350 . S
C1223 C1226 1.463 1_464 S
C1223 C1228 1.350 . S
C1223 N1231 1.427 1_554 S
C1224 H1215 0.930 . S
C1224 C1222 1.378 . S
C1224 C1225 1.367 . S
C1225 C1224 1.367 . S
C1225 C1227 1.433 . S
C1226 C1222 1.350 . S
C1226 C1223 1.463 1_646 S
C1226 N1230 1.427 1_556 S
C1227 H1217 0.929 1_556 S
C1227 C1225 1.433 . S
C1227 N1230 1.384 1_556 S
C1228 H1219 0.929 1_565 S
C1228 C1220 1.378 . S
C1228 C1223 1.350 . S
C1229 H1216 0.929 1_554 S
C1229 C1221 1.433 . S
C1229 N1231 1.384 1_554 S
N1230 C1226 1.427 1_554 S
N1230 C1227 1.384 1_554 S
N1231 C1223 1.427 1_556 S
N1231 C1229 1.384 1_556 S
H1232 C1238 0.930 . S
H1233 C1242 0.930 . S
H1234 C1247 0.929 . S
H1235 C1245 0.929 . S
H1236 C1240 0.929 . S
H1237 C1246 0.929 . S
C1238 H1232 0.930 . S
C1238 C1239 1.367 . S
C1238 C1246 1.378 . S
C1239 C1238 1.367 . S
C1239 C1247 1.433 . S
C1240 H1236 0.929 . S
C1240 C1242 1.378 . S
C1240 C1244 1.350 . S
C1241 C1244 1.463 . S
C1241 C1246 1.350 . S
C1241 N1249 1.427 . S
C1242 H1233 0.930 . S
C1242 C1240 1.378 . S
C1242 C1243 1.367 . S
C1243 C1242 1.367 . S
C1243 C1245 1.433 . S
C1244 C1240 1.350 . S
C1244 C1241 1.463 . S
C1244 N1248 1.427 . S
C1245 H1235 0.929 . S
C1245 C1243 1.433 . S
C1245 N1248 1.384 . S
C1246 H1237 0.929 . S
C1246 C1238 1.378 . S
C1246 C1241 1.350 . S
C1247 H1234 0.929 . S
C1247 C1239 1.433 . S
C1247 N1249 1.384 . S
N1248 C1244 1.427 . S
N1248 C1245 1.384 . S
N1249 C1241 1.427 . S
N1249 C1247 1.384 . S
H1250 C1256 0.930 . S
H1251 C1260 0.930 . S
H1252 C1265 0.929 . S
H1253 C1263 0.929 . S
H1254 C1258 0.929 . S
H1255 C1264 0.929 . S
C1256 H1250 0.930 . S
C1256 C1257 1.367 . S
C1256 C1264 1.378 . S
C1257 C1256 1.367 . S
C1257 C1265 1.433 . S
C1258 H1254 0.929 . S
C1258 C1260 1.378 . S
C1258 C1262 1.350 . S
C1259 C1262 1.463 . S
C1259 C1264 1.350 . S
C1259 N1267 1.427 . S
C1260 H1251 0.930 . S
C1260 C1258 1.378 . S
C1260 C1261 1.367 . S
C1261 C1260 1.367 . S
C1261 C1263 1.433 . S
C1262 C1258 1.350 . S
C1262 C1259 1.463 . S
C1262 N1266 1.427 . S
C1263 H1253 0.929 . S
C1263 C1261 1.433 . S
C1263 N1266 1.384 . S
C1264 H1255 0.929 . S
C1264 C1256 1.378 . S
C1264 C1259 1.350 . S
C1265 H1252 0.929 . S
C1265 C1257 1.433 . S
C1265 N1267 1.384 . S
N1266 C1262 1.427 . S
N1266 C1263 1.384 . S
N1267 C1259 1.427 . S
N1267 C1265 1.384 . S
H1268 C1274 0.930 . S
H1269 C1278 0.930 . S
H1270 C1283 0.929 . S
H1271 C1281 0.929 . S
H1272 C1276 0.929 . S
H1273 C1282 0.929 . S
C1274 H1268 0.930 . S
C1274 C1275 1.367 . S
C1274 C1282 1.378 . S
C1275 C1274 1.367 . S
C1275 C1283 1.433 . S
C1276 H1272 0.929 . S
C1276 C1278 1.378 . S
C1276 C1280 1.350 . S
C1277 C1280 1.463 . S
C1277 C1282 1.350 . S
C1277 N1285 1.427 . S
C1278 H1269 0.930 . S
C1278 C1276 1.378 . S
C1278 C1279 1.367 . S
C1279 C1278 1.367 . S
C1279 C1281 1.433 . S
C1280 C1276 1.350 . S
C1280 C1277 1.463 . S
C1280 N1284 1.427 . S
C1281 H1271 0.929 . S
C1281 C1279 1.433 . S
C1281 N1284 1.384 . S
C1282 H1273 0.929 . S
C1282 C1274 1.378 . S
C1282 C1277 1.350 . S
C1283 H1270 0.929 . S
C1283 C1275 1.433 . S
C1283 N1285 1.384 . S
N1284 C1280 1.427 . S
N1284 C1281 1.384 . S
N1285 C1277 1.427 . S
N1285 C1283 1.384 . S
H1286 C1292 0.930 . S
H1287 C1296 0.930 . S
H1288 C1301 0.929 . S
H1289 C1299 0.929 . S
H1290 C1294 0.929 . S
H1291 C1300 0.929 . S
C1292 H1286 0.930 . S
C1292 C1293 1.367 . S
C1292 C1300 1.378 . S
C1293 C1292 1.367 . S
C1293 C1301 1.433 . S
C1294 H1290 0.929 . S
C1294 C1296 1.378 . S
C1294 C1298 1.350 . S
C1295 C1298 1.463 . S
C1295 C1300 1.350 . S
C1295 N1303 1.427 . S
C1296 H1287 0.930 . S
C1296 C1294 1.378 . S
C1296 C1297 1.367 . S
C1297 C1296 1.367 . S
C1297 C1299 1.433 . S
C1298 C1294 1.350 . S
C1298 C1295 1.463 . S
C1298 N1302 1.427 . S
C1299 H1289 0.929 . S
C1299 C1297 1.433 . S
C1299 N1302 1.384 . S
C1300 H1291 0.929 . S
C1300 C1292 1.378 . S
C1300 C1295 1.350 . S
C1301 H1288 0.929 . S
C1301 C1293 1.433 . S
C1301 N1303 1.384 . S
N1302 C1298 1.427 . S
N1302 C1299 1.384 . S
N1303 C1295 1.427 . S
N1303 C1301 1.384 . S
H1304 C1310 0.930 . S
H1305 C1314 0.930 . S
H1306 C1319 0.929 1_554 S
H1307 C1317 0.929 1_556 S
H1308 C1312 0.929 . S
H1309 C1318 0.929 . S
C1310 H1304 0.930 . S
C1310 C1311 1.367 . S
C1310 C1318 1.378 . S
C1311 C1310 1.367 . S
C1311 C1319 1.433 . S
C1312 H1308 0.929 . S
C1312 C1314 1.378 . S
C1312 C1316 1.350 . S
C1313 C1316 1.463 1_556 S
C1313 C1318 1.350 . S
C1313 N1321 1.427 1_556 S
C1314 H1305 0.930 . S
C1314 C1312 1.378 . S
C1314 C1315 1.367 . S
C1315 C1314 1.367 . S
C1315 C1317 1.433 . S
C1316 C1312 1.350 . S
C1316 C1313 1.463 1_554 S
C1316 N1320 1.427 1_554 S
C1317 H1307 0.929 1_554 S
C1317 C1315 1.433 . S
C1317 N1320 1.384 1_554 S
C1318 H1309 0.929 . S
C1318 C1310 1.378 . S
C1318 C1313 1.350 . S
C1319 H1306 0.929 1_556 S
C1319 C1311 1.433 . S
C1319 N1321 1.384 1_556 S
N1320 C1316 1.427 1_556 S
N1320 C1317 1.384 1_556 S
N1321 C1313 1.427 1_554 S
N1321 C1319 1.384 1_554 S
H1322 C1328 0.930 . S
H1323 C1332 0.930 . S
H1324 C1337 0.929 . S
H1325 C1335 0.929 . S
H1326 C1330 0.929 1_455 S
H1327 C1336 0.929 1_655 S
C1328 H1322 0.930 . S
C1328 C1329 1.367 . S
C1328 C1336 1.378 . S
C1329 C1328 1.367 . S
C1329 C1337 1.433 . S
C1330 H1326 0.929 1_655 S
C1330 C1332 1.378 . S
C1330 C1334 1.350 . S
C1331 C1334 1.463 1_455 S
C1331 C1336 1.350 . S
C1331 N1339 1.427 . S
C1332 H1323 0.930 . S
C1332 C1330 1.378 . S
C1332 C1333 1.367 . S
C1333 C1332 1.367 . S
C1333 C1335 1.433 . S
C1334 C1330 1.350 . S
C1334 C1331 1.463 1_655 S
C1334 N1338 1.427 . S
C1335 H1325 0.929 . S
C1335 C1333 1.433 . S
C1335 N1338 1.384 . S
C1336 H1327 0.929 1_455 S
C1336 C1328 1.378 . S
C1336 C1331 1.350 . S
C1337 H1324 0.929 . S
C1337 C1329 1.433 . S
C1337 N1339 1.384 . S
N1338 C1334 1.427 . S
N1338 C1335 1.384 . S
N1339 C1331 1.427 . S
N1339 C1337 1.384 . S
H1340 C1346 0.930 . S
H1341 C1350 0.930 . S
H1342 C1355 0.929 1_554 S
H1343 C1353 0.929 1_556 S
H1344 C1348 0.929 . S
H1345 C1354 0.929 . S
C1346 H1340 0.930 . S
C1346 C1347 1.367 . S
C1346 C1354 1.378 . S
C1347 C1346 1.367 . S
C1347 C1355 1.433 . S
C1348 H1344 0.929 . S
C1348 C1350 1.378 . S
C1348 C1352 1.350 . S
C1349 C1352 1.463 1_456 S
C1349 C1354 1.350 . S
C1349 N1357 1.427 1_556 S
C1350 H1341 0.930 . S
C1350 C1348 1.378 . S
C1350 C1351 1.367 . S
C1351 C1350 1.367 . S
C1351 C1353 1.433 . S
C1352 C1348 1.350 . S
C1352 C1349 1.463 1_654 S
C1352 N1356 1.427 1_554 S
C1353 H1343 0.929 1_554 S
C1353 C1351 1.433 . S
C1353 N1356 1.384 1_554 S
C1354 H1345 0.929 . S
C1354 C1346 1.378 . S
C1354 C1349 1.350 . S
C1355 H1342 0.929 1_556 S
C1355 C1347 1.433 . S
C1355 N1357 1.384 1_556 S
N1356 C1352 1.427 1_556 S
N1356 C1353 1.384 1_556 S
N1357 C1349 1.427 1_554 S
N1357 C1355 1.384 1_554 S
H1358 C1364 0.930 . S
H1359 C1368 0.930 . S
H1360 C1373 0.929 . S
H1361 C1371 0.929 . S
H1362 C1366 0.929 . S
H1363 C1372 0.929 . S
C1364 H1358 0.930 . S
C1364 C1365 1.367 . S
C1364 C1372 1.378 . S
C1365 C1364 1.367 . S
C1365 C1373 1.433 . S
C1366 H1362 0.929 . S
C1366 C1368 1.378 . S
C1366 C1370 1.350 . S
C1367 C1370 1.463 . S
C1367 C1372 1.350 . S
C1367 N1375 1.427 . S
C1368 H1359 0.930 . S
C1368 C1366 1.378 . S
C1368 C1369 1.367 . S
C1369 C1368 1.367 . S
C1369 C1371 1.433 . S
C1370 C1366 1.350 . S
C1370 C1367 1.463 . S
C1370 N1374 1.427 . S
C1371 H1361 0.929 . S
C1371 C1369 1.433 . S
C1371 N1374 1.384 . S
C1372 H1363 0.929 . S
C1372 C1364 1.378 . S
C1372 C1367 1.350 . S
C1373 H1360 0.929 . S
C1373 C1365 1.433 . S
C1373 N1375 1.384 . S
N1374 C1370 1.427 . S
N1374 C1371 1.384 . S
N1375 C1367 1.427 . S
N1375 C1373 1.384 . S
H1376 C1382 0.930 . S
H1377 C1386 0.930 . S
H1378 C1391 0.929 . S
H1379 C1389 0.929 . S
H1380 C1384 0.929 . S
H1381 C1390 0.929 . S
C1382 H1376 0.930 . S
C1382 C1383 1.367 . S
C1382 C1390 1.378 . S
C1383 C1382 1.367 . S
C1383 C1391 1.433 . S
C1384 H1380 0.929 . S
C1384 C1386 1.378 . S
C1384 C1388 1.350 . S
C1385 C1388 1.463 . S
C1385 C1390 1.350 . S
C1385 N1393 1.427 . S
C1386 H1377 0.930 . S
C1386 C1384 1.378 . S
C1386 C1387 1.367 . S
C1387 C1386 1.367 . S
C1387 C1389 1.433 . S
C1388 C1384 1.350 . S
C1388 C1385 1.463 . S
C1388 N1392 1.427 . S
C1389 H1379 0.929 . S
C1389 C1387 1.433 . S
C1389 N1392 1.384 . S
C1390 H1381 0.929 . S
C1390 C1382 1.378 . S
C1390 C1385 1.350 . S
C1391 H1378 0.929 . S
C1391 C1383 1.433 . S
C1391 N1393 1.384 . S
N1392 C1388 1.427 . S
N1392 C1389 1.384 . S
N1393 C1385 1.427 . S
N1393 C1391 1.384 . S
H1394 C1400 0.930 . S
H1395 C1404 0.930 . S
H1396 C1409 0.929 . S
H1397 C1407 0.929 . S
H1398 C1402 0.929 . S
H1399 C1408 0.917 1_455 S
C1400 H1394 0.930 . S
C1400 C1401 1.367 . S
C1400 C1408 1.378 . S
C1401 C1400 1.367 . S
C1401 C1409 1.433 . S
C1402 H1398 0.929 . S
C1402 C1404 1.378 . S
C1402 C1406 1.350 . S
C1403 C1406 1.463 1_655 S
C1403 C1408 1.350 . S
C1403 N1411 1.427 . S
C1404 H1395 0.930 . S
C1404 C1402 1.378 . S
C1404 C1405 1.367 . S
C1405 C1404 1.367 . S
C1405 C1407 1.433 . S
C1406 C1402 1.350 . S
C1406 C1403 1.463 1_455 S
C1406 N1410 1.427 . S
C1407 H1397 0.929 . S
C1407 C1405 1.433 . S
C1407 N1410 1.384 . S
C1408 H1399 0.917 1_655 S
C1408 C1400 1.378 . S
C1408 C1403 1.350 . S
C1409 H1396 0.929 . S
C1409 C1401 1.433 . S
C1409 N1411 1.384 . S
N1410 C1406 1.427 . S
N1410 C1407 1.384 . S
N1411 C1403 1.427 . S
N1411 C1409 1.384 . S
H1412 C1418 0.930 . S
H1413 C1422 0.930 . S
H1414 C1427 0.929 . S
H1415 C1425 0.929 . S
H1416 C1420 0.929 . S
H1417 C1426 0.929 . S
C1418 H1412 0.930 . S
C1418 C1419 1.367 . S
C1418 C1426 1.378 . S
C1419 C1418 1.367 . S
C1419 C1427 1.433 . S
C1420 H1416 0.929 . S
C1420 C1422 1.378 . S
C1420 C1424 1.350 . S
C1421 C1424 1.463 . S
C1421 C1426 1.350 . S
C1421 N1429 1.427 . S
C1422 H1413 0.930 . S
C1422 C1420 1.378 . S
C1422 C1423 1.367 . S
C1423 C1422 1.367 . S
C1423 C1425 1.433 . S
C1424 C1420 1.350 . S
C1424 C1421 1.463 . S
C1424 N1428 1.427 . S
C1425 H1415 0.929 . S
C1425 C1423 1.433 . S
C1425 N1428 1.384 . S
C1426 H1417 0.929 . S
C1426 C1418 1.378 . S
C1426 C1421 1.350 . S
C1427 H1414 0.929 . S
C1427 C1419 1.433 . S
C1427 N1429 1.384 . S
N1428 C1424 1.427 . S
N1428 C1425 1.384 . S
N1429 C1421 1.427 . S
N1429 C1427 1.384 . S
H1430 C1436 0.930 . S
H1431 C1440 0.930 . S
H1432 C1445 0.929 . S
H1433 C1443 0.929 . S
H1434 C1438 0.929 . S
H1435 C1444 0.929 . S
C1436 H1430 0.930 . S
C1436 C1437 1.367 . S
C1436 C1444 1.378 . S
C1437 C1436 1.367 . S
C1437 C1445 1.433 . S
C1438 H1434 0.929 . S
C1438 C1440 1.378 . S
C1438 C1442 1.350 . S
C1439 C1442 1.463 . S
C1439 C1444 1.350 . S
C1439 N1447 1.427 . S
C1440 H1431 0.930 . S
C1440 C1438 1.378 . S
C1440 C1441 1.367 . S
C1441 C1440 1.367 . S
C1441 C1443 1.433 . S
C1442 C1438 1.350 . S
C1442 C1439 1.463 . S
C1442 N1446 1.427 . S
C1443 H1433 0.929 . S
C1443 C1441 1.433 . S
C1443 N1446 1.384 . S
C1444 H1435 0.929 . S
C1444 C1436 1.378 . S
C1444 C1439 1.350 . S
C1445 H1432 0.929 . S
C1445 C1437 1.433 . S
C1445 N1447 1.384 . S
N1446 C1442 1.427 . S
N1446 C1443 1.384 . S
N1447 C1439 1.427 . S
N1447 C1445 1.384 . S
H1448 C1454 0.930 . S
H1449 C1458 0.930 . S
H1450 C1463 0.929 . S
H1451 C1461 0.929 . S
H1452 C1456 0.929 . S
H1453 C1462 0.929 . S
C1454 H1448 0.930 . S
C1454 C1455 1.367 . S
C1454 C1462 1.378 . S
C1455 C1454 1.367 . S
C1455 C1463 1.433 . S
C1456 H1452 0.929 . S
C1456 C1458 1.378 . S
C1456 C1460 1.350 . S
C1457 C1460 1.463 . S
C1457 C1462 1.350 . S
C1457 N1465 1.427 . S
C1458 H1449 0.930 . S
C1458 C1456 1.378 . S
C1458 C1459 1.367 . S
C1459 C1458 1.367 . S
C1459 C1461 1.433 . S
C1460 C1456 1.350 . S
C1460 C1457 1.463 . S
C1460 N1464 1.427 . S
C1461 H1451 0.929 . S
C1461 C1459 1.433 . S
C1461 N1464 1.384 . S
C1462 H1453 0.929 . S
C1462 C1454 1.378 . S
C1462 C1457 1.350 . S
C1463 H1450 0.929 . S
C1463 C1455 1.433 . S
C1463 N1465 1.384 . S
N1464 C1460 1.427 . S
N1464 C1461 1.384 . S
N1465 C1457 1.427 . S
N1465 C1463 1.384 . S
H1466 C1472 0.930 . S
H1467 C1476 0.930 . S
H1468 C1481 0.929 . S
H1469 C1479 0.929 . S
H1470 C1474 0.929 . S
H1471 C1480 0.929 . S
C1472 H1466 0.930 . S
C1472 C1473 1.367 . S
C1472 C1480 1.378 . S
C1473 C1472 1.367 . S
C1473 C1481 1.433 . S
C1474 H1470 0.929 . S
C1474 C1476 1.378 . S
C1474 C1478 1.350 . S
C1475 C1478 1.463 . S
C1475 C1480 1.350 . S
C1475 N1483 1.427 . S
C1476 H1467 0.930 . S
C1476 C1474 1.378 . S
C1476 C1477 1.367 . S
C1477 C1476 1.367 . S
C1477 C1479 1.433 . S
C1478 C1474 1.350 . S
C1478 C1475 1.463 . S
C1478 N1482 1.427 . S
C1479 H1469 0.929 . S
C1479 C1477 1.433 . S
C1479 N1482 1.384 . S
C1480 H1471 0.929 . S
C1480 C1472 1.378 . S
C1480 C1475 1.350 . S
C1481 H1468 0.929 . S
C1481 C1473 1.433 . S
C1481 N1483 1.384 . S
N1482 C1478 1.427 . S
N1482 C1479 1.384 . S
N1483 C1475 1.427 . S
N1483 C1481 1.384 . S
H1484 C1490 0.930 . S
H1485 C1494 0.930 . S
H1486 C1499 0.929 . S
H1487 C1497 0.929 . S
H1488 C1492 0.929 . S
H1489 C1498 0.929 . S
C1490 H1484 0.930 . S
C1490 C1491 1.367 . S
C1490 C1498 1.378 . S
C1491 C1490 1.367 . S
C1491 C1499 1.433 . S
C1492 H1488 0.929 . S
C1492 C1494 1.378 . S
C1492 C1496 1.350 . S
C1493 C1496 1.463 . S
C1493 C1498 1.350 . S
C1493 N1501 1.427 . S
C1494 H1485 0.930 . S
C1494 C1492 1.378 . S
C1494 C1495 1.367 . S
C1495 C1494 1.367 . S
C1495 C1497 1.433 . S
C1496 C1492 1.350 . S
C1496 C1493 1.463 . S
C1496 N1500 1.427 . S
C1497 H1487 0.929 . S
C1497 C1495 1.433 . S
C1497 N1500 1.384 . S
C1498 H1489 0.929 . S
C1498 C1490 1.378 . S
C1498 C1493 1.350 . S
C1499 H1486 0.929 . S
C1499 C1491 1.433 . S
C1499 N1501 1.384 . S
N1500 C1496 1.427 . S
N1500 C1497 1.384 . S
N1501 C1493 1.427 . S
N1501 C1499 1.384 . S
H1502 C1508 0.930 . S
H1503 C1512 0.930 . S
H1504 C1517 0.929 . S
H1505 C1515 0.929 . S
H1506 C1510 0.929 . S
H1507 C1516 0.929 1_455 S
C1508 H1502 0.930 . S
C1508 C1509 1.367 . S
C1508 C1516 1.378 . S
C1509 C1508 1.367 . S
C1509 C1517 1.433 . S
C1510 H1506 0.929 . S
C1510 C1512 1.378 . S
C1510 C1514 1.350 . S
C1511 C1514 1.463 1_655 S
C1511 C1516 1.350 . S
C1511 N1519 1.427 . S
C1512 H1503 0.930 . S
C1512 C1510 1.378 . S
C1512 C1513 1.367 . S
C1513 C1512 1.367 . S
C1513 C1515 1.433 . S
C1514 C1510 1.350 . S
C1514 C1511 1.463 1_455 S
C1514 N1518 1.427 . S
C1515 H1505 0.929 . S
C1515 C1513 1.433 . S
C1515 N1518 1.384 . S
C1516 H1507 0.929 1_655 S
C1516 C1508 1.378 . S
C1516 C1511 1.350 . S
C1517 H1504 0.929 . S
C1517 C1509 1.433 . S
C1517 N1519 1.384 . S
N1518 C1514 1.427 . S
N1518 C1515 1.384 . S
N1519 C1511 1.427 . S
N1519 C1517 1.384 . S
H1520 C1526 0.930 . S
H1521 C1530 0.930 . S
H1522 C1535 0.929 . S
H1523 C1533 0.929 . S
H1524 C1528 0.929 . S
H1525 C1534 0.929 . S
C1526 H1520 0.930 . S
C1526 C1527 1.367 . S
C1526 C1534 1.378 . S
C1527 C1526 1.367 . S
C1527 C1535 1.433 . S
C1528 H1524 0.929 . S
C1528 C1530 1.378 . S
C1528 C1532 1.350 . S
C1529 C1532 1.463 . S
C1529 C1534 1.350 . S
C1529 N1537 1.427 . S
C1530 H1521 0.930 . S
C1530 C1528 1.378 . S
C1530 C1531 1.367 . S
C1531 C1530 1.367 . S
C1531 C1533 1.433 . S
C1532 C1528 1.350 . S
C1532 C1529 1.463 . S
C1532 N1536 1.427 . S
C1533 H1523 0.929 . S
C1533 C1531 1.433 . S
C1533 N1536 1.384 . S
C1534 H1525 0.929 . S
C1534 C1526 1.378 . S
C1534 C1529 1.350 . S
C1535 H1522 0.929 . S
C1535 C1527 1.433 . S
C1535 N1537 1.384 . S
N1536 C1532 1.427 . S
N1536 C1533 1.384 . S
N1537 C1529 1.427 . S
N1537 C1535 1.384 . S
H1538 C1544 0.930 . S
H1539 C1548 0.930 . S
H1540 C1553 0.929 . S
H1541 C1551 0.929 . S
H1542 C1546 0.929 . S
H1543 C1552 0.929 . S
C1544 H1538 0.930 . S
C1544 C1545 1.367 . S
C1544 C1552 1.378 . S
C1545 C1544 1.367 . S
C1545 C1553 1.433 . S
C1546 H1542 0.929 . S
C1546 C1548 1.378 . S
C1546 C1550 1.350 . S
C1547 C1550 1.463 1_455 S
C1547 C1552 1.350 . S
C1547 N1555 1.427 . S
C1548 H1539 0.930 . S
C1548 C1546 1.378 . S
C1548 C1549 1.367 . S
C1549 C1548 1.367 . S
C1549 C1551 1.433 . S
C1550 C1546 1.350 . S
C1550 C1547 1.463 1_655 S
C1550 N1554 1.427 . S
C1551 H1541 0.929 . S
C1551 C1549 1.433 . S
C1551 N1554 1.384 . S
C1552 H1543 0.929 . S
C1552 C1544 1.378 . S
C1552 C1547 1.350 . S
C1553 H1540 0.929 . S
C1553 C1545 1.433 . S
C1553 N1555 1.384 . S
N1554 C1550 1.427 . S
N1554 C1551 1.384 . S
N1555 C1547 1.427 . S
N1555 C1553 1.384 . S
H1556 C1562 0.930 . S
H1557 C1566 0.930 . S
H1558 C1571 0.929 . S
H1559 C1569 0.929 . S
H1560 C1564 0.929 . S
H1561 C1570 0.929 . S
C1562 H1556 0.930 . S
C1562 C1563 1.367 . S
C1562 C1570 1.378 . S
C1563 C1562 1.367 . S
C1563 C1571 1.433 . S
C1564 H1560 0.929 . S
C1564 C1566 1.378 . S
C1564 C1568 1.350 . S
C1565 C1568 1.463 . S
C1565 C1570 1.350 . S
C1565 N1573 1.427 . S
C1566 H1557 0.930 . S
C1566 C1564 1.378 . S
C1566 C1567 1.367 . S
C1567 C1566 1.367 . S
C1567 C1569 1.433 . S
C1568 C1564 1.350 . S
C1568 C1565 1.463 . S
C1568 N1572 1.427 . S
C1569 H1559 0.929 . S
C1569 C1567 1.433 . S
C1569 N1572 1.384 . S
C1570 H1561 0.929 . S
C1570 C1562 1.378 . S
C1570 C1565 1.350 . S
C1571 H1558 0.929 . S
C1571 C1563 1.433 . S
C1571 N1573 1.384 . S
N1572 C1568 1.427 . S
N1572 C1569 1.384 . S
N1573 C1565 1.427 . S
N1573 C1571 1.384 . S
H1574 C1580 0.930 . S
H1575 C1584 0.930 . S
H1576 C1589 0.929 . S
H1577 C1587 0.929 . S
H1578 C1582 0.929 . S
H1579 C1588 0.929 . S
C1580 H1574 0.930 . S
C1580 C1581 1.367 . S
C1580 C1588 1.378 . S
C1581 C1580 1.367 . S
C1581 C1589 1.433 . S
C1582 H1578 0.929 . S
C1582 C1584 1.378 . S
C1582 C1586 1.350 . S
C1583 C1586 1.463 . S
C1583 C1588 1.350 . S
C1583 N1591 1.427 . S
C1584 H1575 0.930 . S
C1584 C1582 1.378 . S
C1584 C1585 1.367 . S
C1585 C1584 1.367 . S
C1585 C1587 1.433 . S
C1586 C1582 1.350 . S
C1586 C1583 1.463 . S
C1586 N1590 1.427 . S
C1587 H1577 0.929 . S
C1587 C1585 1.433 . S
C1587 N1590 1.384 . S
C1588 H1579 0.929 . S
C1588 C1580 1.378 . S
C1588 C1583 1.350 . S
C1589 H1576 0.929 . S
C1589 C1581 1.433 . S
C1589 N1591 1.384 . S
N1590 C1586 1.427 . S
N1590 C1587 1.384 . S
N1591 C1583 1.427 . S
N1591 C1589 1.384 . S
H1592 C1598 0.930 . S
H1593 C1602 0.930 . S
H1594 C1607 0.929 . S
H1595 C1605 0.929 . S
H1596 C1600 0.929 . S
H1597 C1606 0.929 . S
C1598 H1592 0.930 . S
C1598 C1599 1.367 . S
C1598 C1606 1.378 . S
C1599 C1598 1.367 . S
C1599 C1607 1.433 . S
C1600 H1596 0.929 . S
C1600 C1602 1.378 . S
C1600 C1604 1.350 . S
C1601 C1604 1.463 . S
C1601 C1606 1.350 . S
C1601 N1609 1.427 . S
C1602 H1593 0.930 . S
C1602 C1600 1.378 . S
C1602 C1603 1.367 . S
C1603 C1602 1.367 . S
C1603 C1605 1.433 . S
C1604 C1600 1.350 . S
C1604 C1601 1.463 . S
C1604 N1608 1.427 . S
C1605 H1595 0.929 . S
C1605 C1603 1.433 . S
C1605 N1608 1.384 . S
C1606 H1597 0.929 . S
C1606 C1598 1.378 . S
C1606 C1601 1.350 . S
C1607 H1594 0.929 . S
C1607 C1599 1.433 . S
C1607 N1609 1.384 . S
N1608 C1604 1.427 . S
N1608 C1605 1.384 . S
N1609 C1601 1.427 . S
N1609 C1607 1.384 . S
H1610 C1616 0.930 . S
H1611 C1620 0.930 . S
H1612 C1625 0.929 . S
H1613 C1623 0.929 . S
H1614 C1618 0.929 . S
H1615 C1624 0.929 . S
C1616 H1610 0.930 . S
C1616 C1617 1.367 . S
C1616 C1624 1.378 . S
C1617 C1616 1.367 . S
C1617 C1625 1.433 . S
C1618 H1614 0.929 . S
C1618 C1620 1.378 . S
C1618 C1622 1.350 . S
C1619 C1622 1.463 . S
C1619 C1624 1.350 . S
C1619 N1627 1.427 . S
C1620 H1611 0.930 . S
C1620 C1618 1.378 . S
C1620 C1621 1.367 . S
C1621 C1620 1.367 . S
C1621 C1623 1.433 . S
C1622 C1618 1.350 . S
C1622 C1619 1.463 . S
C1622 N1626 1.427 . S
C1623 H1613 0.929 . S
C1623 C1621 1.433 . S
C1623 N1626 1.384 . S
C1624 H1615 0.929 . S
C1624 C1616 1.378 . S
C1624 C1619 1.350 . S
C1625 H1612 0.929 . S
C1625 C1617 1.433 . S
C1625 N1627 1.384 . S
N1626 C1622 1.427 . S
N1626 C1623 1.384 . S
N1627 C1619 1.427 . S
N1627 C1625 1.384 . S
H1628 C1634 0.930 . S
H1629 C1638 0.930 . S
H1630 C1643 0.929 . S
H1631 C1641 0.929 . S
H1632 C1636 0.929 . S
H1633 C1642 0.929 . S
C1634 H1628 0.930 . S
C1634 C1635 1.367 . S
C1634 C1642 1.378 . S
C1635 C1634 1.367 . S
C1635 C1643 1.433 . S
C1636 H1632 0.929 . S
C1636 C1638 1.378 . S
C1636 C1640 1.350 . S
C1637 C1640 1.463 . S
C1637 C1642 1.350 . S
C1637 N1645 1.427 . S
C1638 H1629 0.930 . S
C1638 C1636 1.378 . S
C1638 C1639 1.367 . S
C1639 C1638 1.367 . S
C1639 C1641 1.433 . S
C1640 C1636 1.350 . S
C1640 C1637 1.463 . S
C1640 N1644 1.427 . S
C1641 H1631 0.929 . S
C1641 C1639 1.433 . S
C1641 N1644 1.384 . S
C1642 H1633 0.929 . S
C1642 C1634 1.378 . S
C1642 C1637 1.350 . S
C1643 H1630 0.929 . S
C1643 C1635 1.433 . S
C1643 N1645 1.384 . S
N1644 C1640 1.427 . S
N1644 C1641 1.384 . S
N1645 C1637 1.427 . S
N1645 C1643 1.384 . S
H1646 C1652 0.930 . S
H1647 C1656 0.930 . S
H1648 C1661 0.929 . S
H1649 C1659 0.929 . S
H1650 C1654 0.925 . S
H1651 C1660 0.897 1_455 S
C1652 H1646 0.930 . S
C1652 C1653 1.367 . S
C1652 C1660 1.378 . S
C1653 C1652 1.367 . S
C1653 C1661 1.433 . S
C1654 H1650 0.925 . S
C1654 C1656 1.380 1_655 S
C1654 C1658 1.350 1_655 S
C1655 C1658 1.463 1_655 S
C1655 C1660 1.350 . S
C1655 N1663 1.427 . S
C1656 H1647 0.930 . S
C1656 C1654 1.380 1_455 S
C1656 C1657 1.367 . S
C1657 C1656 1.367 . S
C1657 C1659 1.433 . S
C1658 C1654 1.350 1_455 S
C1658 C1655 1.463 1_455 S
C1658 N1662 1.427 . S
C1659 H1649 0.929 . S
C1659 C1657 1.433 . S
C1659 N1662 1.384 . S
C1660 H1651 0.897 1_655 S
C1660 C1652 1.378 . S
C1660 C1655 1.350 . S
C1661 H1648 0.929 . S
C1661 C1653 1.433 . S
C1661 N1663 1.384 . S
N1662 C1658 1.427 . S
N1662 C1659 1.384 . S
N1663 C1655 1.427 . S
N1663 C1661 1.384 . S
H1664 C1670 0.930 . S
H1665 C1674 0.930 . S
H1666 C1679 0.929 . S
H1667 C1677 0.929 . S
H1668 C1672 0.929 . S
H1669 C1678 0.929 . S
C1670 H1664 0.930 . S
C1670 C1671 1.367 . S
C1670 C1678 1.378 . S
C1671 C1670 1.367 . S
C1671 C1679 1.433 . S
C1672 H1668 0.929 . S
C1672 C1674 1.378 . S
C1672 C1676 1.350 . S
C1673 C1676 1.463 . S
C1673 C1678 1.350 . S
C1673 N1681 1.427 . S
C1674 H1665 0.930 . S
C1674 C1672 1.378 . S
C1674 C1675 1.367 . S
C1675 C1674 1.367 . S
C1675 C1677 1.433 . S
C1676 C1672 1.350 . S
C1676 C1673 1.463 . S
C1676 N1680 1.427 . S
C1677 H1667 0.929 . S
C1677 C1675 1.433 . S
C1677 N1680 1.384 . S
C1678 H1669 0.929 . S
C1678 C1670 1.378 . S
C1678 C1673 1.350 . S
C1679 H1666 0.929 . S
C1679 C1671 1.433 . S
C1679 N1681 1.384 . S
N1680 C1676 1.427 . S
N1680 C1677 1.384 . S
N1681 C1673 1.427 . S
N1681 C1679 1.384 . S
H1682 C1688 0.930 . S
H1683 C1692 0.930 . S
H1684 C1697 0.929 . S
H1685 C1695 0.929 . S
H1686 C1690 0.929 . S
H1687 C1696 0.929 . S
C1688 H1682 0.930 . S
C1688 C1689 1.367 . S
C1688 C1696 1.378 . S
C1689 C1688 1.367 . S
C1689 C1697 1.433 . S
C1690 H1686 0.929 . S
C1690 C1692 1.378 . S
C1690 C1694 1.350 . S
C1691 C1694 1.463 . S
C1691 C1696 1.350 . S
C1691 N1699 1.427 . S
C1692 H1683 0.930 . S
C1692 C1690 1.378 . S
C1692 C1693 1.367 . S
C1693 C1692 1.367 . S
C1693 C1695 1.433 . S
C1694 C1690 1.350 . S
C1694 C1691 1.463 . S
C1694 N1698 1.427 . S
C1695 H1685 0.929 . S
C1695 C1693 1.433 . S
C1695 N1698 1.384 . S
C1696 H1687 0.929 . S
C1696 C1688 1.378 . S
C1696 C1691 1.350 . S
C1697 H1684 0.929 . S
C1697 C1689 1.433 . S
C1697 N1699 1.384 . S
N1698 C1694 1.427 . S
N1698 C1695 1.384 . S
N1699 C1691 1.427 . S
N1699 C1697 1.384 . S
H1700 C1706 0.930 . S
H1701 C1710 0.930 . S
H1702 C1715 0.929 . S
H1703 C1713 0.929 . S
H1704 C1708 0.929 . S
H1705 C1714 0.929 . S
C1706 H1700 0.930 . S
C1706 C1707 1.367 . S
C1706 C1714 1.378 . S
C1707 C1706 1.367 . S
C1707 C1715 1.433 . S
C1708 H1704 0.929 . S
C1708 C1710 1.378 . S
C1708 C1712 1.350 . S
C1709 C1712 1.463 . S
C1709 C1714 1.350 . S
C1709 N1717 1.427 . S
C1710 H1701 0.930 . S
C1710 C1708 1.378 . S
C1710 C1711 1.367 . S
C1711 C1710 1.367 . S
C1711 C1713 1.433 . S
C1712 C1708 1.350 . S
C1712 C1709 1.463 . S
C1712 N1716 1.427 . S
C1713 H1703 0.929 . S
C1713 C1711 1.433 . S
C1713 N1716 1.384 . S
C1714 H1705 0.929 . S
C1714 C1706 1.378 . S
C1714 C1709 1.350 . S
C1715 H1702 0.929 . S
C1715 C1707 1.433 . S
C1715 N1717 1.384 . S
N1716 C1712 1.427 . S
N1716 C1713 1.384 . S
N1717 C1709 1.427 . S
N1717 C1715 1.384 . S
H1718 C1724 0.930 . S
H1719 C1728 0.930 . S
H1720 C1733 0.929 . S
H1721 C1731 0.929 . S
H1722 C1726 0.912 1_655 S
H1723 C1732 0.925 . S
C1724 H1718 0.930 . S
C1724 C1725 1.367 . S
C1724 C1732 1.378 . S
C1725 C1724 1.367 . S
C1725 C1733 1.433 . S
C1726 H1722 0.912 1_455 S
C1726 C1728 1.393 . S
C1726 C1730 1.352 . S
C1727 C1730 1.463 1_655 S
C1727 C1732 1.350 . S
C1727 N1735 1.427 . S
C1728 H1719 0.930 . S
C1728 C1726 1.393 . S
C1728 C1729 1.367 . S
C1729 C1728 1.367 . S
C1729 C1731 1.433 . S
C1730 C1726 1.352 . S
C1730 C1727 1.463 1_455 S
C1730 N1734 1.427 . S
C1731 H1721 0.929 . S
C1731 C1729 1.433 . S
C1731 N1734 1.384 . S
C1732 H1723 0.925 . S
C1732 C1724 1.378 . S
C1732 C1727 1.350 . S
C1733 H1720 0.929 . S
C1733 C1725 1.433 . S
C1733 N1735 1.384 . S
N1734 C1730 1.427 . S
N1734 C1731 1.384 . S
N1735 C1727 1.427 . S
N1735 C1733 1.384 . S
H1736 C1742 0.930 . S
H1737 C1746 0.930 . S
H1738 C1751 0.929 . S
H1739 C1749 0.929 . S
H1740 C1744 0.929 . S
H1741 C1750 0.929 . S
C1742 H1736 0.930 . S
C1742 C1743 1.367 . S
C1742 C1750 1.378 . S
C1743 C1742 1.367 . S
C1743 C1751 1.433 . S
C1744 H1740 0.929 . S
C1744 C1746 1.378 . S
C1744 C1748 1.350 . S
C1745 C1748 1.463 . S
C1745 C1750 1.350 . S
C1745 N1753 1.427 . S
C1746 H1737 0.930 . S
C1746 C1744 1.378 . S
C1746 C1747 1.367 . S
C1747 C1746 1.367 . S
C1747 C1749 1.433 . S
C1748 C1744 1.350 . S
C1748 C1745 1.463 . S
C1748 N1752 1.427 . S
C1749 H1739 0.929 . S
C1749 C1747 1.433 . S
C1749 N1752 1.384 . S
C1750 H1741 0.929 . S
C1750 C1742 1.378 . S
C1750 C1745 1.350 . S
C1751 H1738 0.929 . S
C1751 C1743 1.433 . S
C1751 N1753 1.384 . S
N1752 C1748 1.427 . S
N1752 C1749 1.384 . S
N1753 C1745 1.427 . S
N1753 C1751 1.384 . S
H1754 C1760 0.930 . S
H1755 C1764 0.930 . S
H1756 C1769 0.929 . S
H1757 C1767 0.929 . S
H1758 C1762 0.929 1_655 S
H1759 C1768 0.929 . S
C1760 H1754 0.930 . S
C1760 C1761 1.367 . S
C1760 C1768 1.378 . S
C1761 C1760 1.367 . S
C1761 C1769 1.433 . S
C1762 H1758 0.929 1_455 S
C1762 C1764 1.378 . S
C1762 C1766 1.350 . S
C1763 C1766 1.463 1_655 S
C1763 C1768 1.350 . S
C1763 N1771 1.427 . S
C1764 H1755 0.930 . S
C1764 C1762 1.378 . S
C1764 C1765 1.367 . S
C1765 C1764 1.367 . S
C1765 C1767 1.433 . S
C1766 C1762 1.350 . S
C1766 C1763 1.463 1_455 S
C1766 N1770 1.427 . S
C1767 H1757 0.929 . S
C1767 C1765 1.433 . S
C1767 N1770 1.384 . S
C1768 H1759 0.929 . S
C1768 C1760 1.378 . S
C1768 C1763 1.350 . S
C1769 H1756 0.929 . S
C1769 C1761 1.433 . S
C1769 N1771 1.384 . S
N1770 C1766 1.427 . S
N1770 C1767 1.384 . S
N1771 C1763 1.427 . S
N1771 C1769 1.384 . S
H1772 C1778 0.930 . S
H1773 C1782 0.930 . S
H1774 C1787 0.929 . S
H1775 C1785 0.929 . S
H1776 C1780 0.929 . S
H1777 C1786 0.929 . S
C1778 H1772 0.930 . S
C1778 C1779 1.367 . S
C1778 C1786 1.378 . S
C1779 C1778 1.367 . S
C1779 C1787 1.433 . S
C1780 H1776 0.929 . S
C1780 C1782 1.378 . S
C1780 C1784 1.350 . S
C1781 C1784 1.463 . S
C1781 C1786 1.350 . S
C1781 N1789 1.427 . S
C1782 H1773 0.930 . S
C1782 C1780 1.378 . S
C1782 C1783 1.367 . S
C1783 C1782 1.367 . S
C1783 C1785 1.433 . S
C1784 C1780 1.350 . S
C1784 C1781 1.463 . S
C1784 N1788 1.427 . S
C1785 H1775 0.929 . S
C1785 C1783 1.433 . S
C1785 N1788 1.384 . S
C1786 H1777 0.929 . S
C1786 C1778 1.378 . S
C1786 C1781 1.350 . S
C1787 H1774 0.929 . S
C1787 C1779 1.433 . S
C1787 N1789 1.384 . S
N1788 C1784 1.427 . S
N1788 C1785 1.384 . S
N1789 C1781 1.427 . S
N1789 C1787 1.384 . S
H1790 C1796 0.930 . S
H1791 C1800 0.930 . S
H1792 C1805 0.929 . S
H1793 C1803 0.929 . S
H1794 C1798 0.929 . S
H1795 C1804 0.929 . S
C1796 H1790 0.930 . S
C1796 C1797 1.367 . S
C1796 C1804 1.378 . S
C1797 C1796 1.367 . S
C1797 C1805 1.433 . S
C1798 H1794 0.929 . S
C1798 C1800 1.378 . S
C1798 C1802 1.350 . S
C1799 C1802 1.463 . S
C1799 C1804 1.350 . S
C1799 N1807 1.427 . S
C1800 H1791 0.930 . S
C1800 C1798 1.378 . S
C1800 C1801 1.367 . S
C1801 C1800 1.367 . S
C1801 C1803 1.433 . S
C1802 C1798 1.350 . S
C1802 C1799 1.463 . S
C1802 N1806 1.427 . S
C1803 H1793 0.929 . S
C1803 C1801 1.433 . S
C1803 N1806 1.384 . S
C1804 H1795 0.929 . S
C1804 C1796 1.378 . S
C1804 C1799 1.350 . S
C1805 H1792 0.929 . S
C1805 C1797 1.433 . S
C1805 N1807 1.384 . S
N1806 C1802 1.427 . S
N1806 C1803 1.384 . S
N1807 C1799 1.427 . S
N1807 C1805 1.384 . S
H1808 C1814 0.930 . S
H1809 C1818 0.930 . S
H1810 C1823 0.929 . S
H1811 C1821 0.929 . S
H1812 C1816 0.929 . S
H1813 C1822 0.929 . S
C1814 H1808 0.930 . S
C1814 C1815 1.367 . S
C1814 C1822 1.378 . S
C1815 C1814 1.367 . S
C1815 C1823 1.433 . S
C1816 H1812 0.929 . S
C1816 C1818 1.378 . S
C1816 C1820 1.350 . S
C1817 C1820 1.463 . S
C1817 C1822 1.350 . S
C1817 N1825 1.427 . S
C1818 H1809 0.930 . S
C1818 C1816 1.378 . S
C1818 C1819 1.367 . S
C1819 C1818 1.367 . S
C1819 C1821 1.433 . S
C1820 C1816 1.350 . S
C1820 C1817 1.463 . S
C1820 N1824 1.427 . S
C1821 H1811 0.929 . S
C1821 C1819 1.433 . S
C1821 N1824 1.384 . S
C1822 H1813 0.929 . S
C1822 C1814 1.378 . S
C1822 C1817 1.350 . S
C1823 H1810 0.929 . S
C1823 C1815 1.433 . S
C1823 N1825 1.384 . S
N1824 C1820 1.427 . S
N1824 C1821 1.384 . S
N1825 C1817 1.427 . S
N1825 C1823 1.384 . S
H1826 C1832 0.930 . S
H1827 C1836 0.930 . S
H1828 C1841 0.929 . S
H1829 C1839 0.929 . S
H1830 C1834 0.929 . S
H1831 C1840 0.929 . S
C1832 H1826 0.930 . S
C1832 C1833 1.367 . S
C1832 C1840 1.378 . S
C1833 C1832 1.367 . S
C1833 C1841 1.433 . S
C1834 H1830 0.929 . S
C1834 C1836 1.378 . S
C1834 C1838 1.350 . S
C1835 C1838 1.463 . S
C1835 C1840 1.350 . S
C1835 N1843 1.427 . S
C1836 H1827 0.930 . S
C1836 C1834 1.378 . S
C1836 C1837 1.367 . S
C1837 C1836 1.367 . S
C1837 C1839 1.433 . S
C1838 C1834 1.350 . S
C1838 C1835 1.463 . S
C1838 N1842 1.427 . S
C1839 H1829 0.929 . S
C1839 C1837 1.433 . S
C1839 N1842 1.384 . S
C1840 H1831 0.929 . S
C1840 C1832 1.378 . S
C1840 C1835 1.350 . S
C1841 H1828 0.929 . S
C1841 C1833 1.433 . S
C1841 N1843 1.384 . S
N1842 C1838 1.427 . S
N1842 C1839 1.384 . S
N1843 C1835 1.427 . S
N1843 C1841 1.384 . S
H1844 C1850 0.930 . S
H1845 C1854 0.930 . S
H1846 C1859 0.929 . S
H1847 C1857 0.929 . S
H1848 C1852 0.929 . S
H1849 C1858 0.929 . S
C1850 H1844 0.930 . S
C1850 C1851 1.367 . S
C1850 C1858 1.378 . S
C1851 C1850 1.367 . S
C1851 C1859 1.433 . S
C1852 H1848 0.929 . S
C1852 C1854 1.378 . S
C1852 C1856 1.350 . S
C1853 C1856 1.463 . S
C1853 C1858 1.350 . S
C1853 N1861 1.427 . S
C1854 H1845 0.930 . S
C1854 C1852 1.378 . S
C1854 C1855 1.367 . S
C1855 C1854 1.367 . S
C1855 C1857 1.433 . S
C1856 C1852 1.350 . S
C1856 C1853 1.463 . S
C1856 N1860 1.427 . S
C1857 H1847 0.929 . S
C1857 C1855 1.433 . S
C1857 N1860 1.384 . S
C1858 H1849 0.929 . S
C1858 C1850 1.378 . S
C1858 C1853 1.350 . S
C1859 H1846 0.929 . S
C1859 C1851 1.433 . S
C1859 N1861 1.384 . S
N1860 C1856 1.427 . S
N1860 C1857 1.384 . S
N1861 C1853 1.427 . S
N1861 C1859 1.384 . S
H1862 C1868 0.930 . S
H1863 C1872 0.930 . S
H1864 C1877 0.929 . S
H1865 C1875 0.929 . S
H1866 C1870 0.929 . S
H1867 C1876 0.929 . S
C1868 H1862 0.930 . S
C1868 C1869 1.367 . S
C1868 C1876 1.378 . S
C1869 C1868 1.367 . S
C1869 C1877 1.433 . S
C1870 H1866 0.929 . S
C1870 C1872 1.378 . S
C1870 C1874 1.350 . S
C1871 C1874 1.463 1_455 S
C1871 C1876 1.350 . S
C1871 N1879 1.427 . S
C1872 H1863 0.930 . S
C1872 C1870 1.378 . S
C1872 C1873 1.367 . S
C1873 C1872 1.367 . S
C1873 C1875 1.433 . S
C1874 C1870 1.350 . S
C1874 C1871 1.463 1_655 S
C1874 N1878 1.427 1_655 S
C1875 H1865 0.929 . S
C1875 C1873 1.433 . S
C1875 N1878 1.384 1_655 S
C1876 H1867 0.929 . S
C1876 C1868 1.378 . S
C1876 C1871 1.350 . S
C1877 H1864 0.929 . S
C1877 C1869 1.433 . S
C1877 N1879 1.384 . S
N1878 C1874 1.427 1_455 S
N1878 C1875 1.384 1_455 S
N1879 C1871 1.427 . S
N1879 C1877 1.384 . S
H1880 C1886 0.930 . S
H1881 C1890 0.930 . S
H1882 C1895 0.929 . S
H1883 C1893 0.929 . S
H1884 C1888 0.929 . S
H1885 C1894 0.929 . S
C1886 H1880 0.930 . S
C1886 C1887 1.367 . S
C1886 C1894 1.378 . S
C1887 C1886 1.367 . S
C1887 C1895 1.433 . S
C1888 H1884 0.929 . S
C1888 C1890 1.378 . S
C1888 C1892 1.350 . S
C1889 C1892 1.463 . S
C1889 C1894 1.350 . S
C1889 N1897 1.427 . S
C1890 H1881 0.930 . S
C1890 C1888 1.378 . S
C1890 C1891 1.367 . S
C1891 C1890 1.367 . S
C1891 C1893 1.433 . S
C1892 C1888 1.350 . S
C1892 C1889 1.463 . S
C1892 N1896 1.427 . S
C1893 H1883 0.929 . S
C1893 C1891 1.433 . S
C1893 N1896 1.384 . S
C1894 H1885 0.929 . S
C1894 C1886 1.378 . S
C1894 C1889 1.350 . S
C1895 H1882 0.929 . S
C1895 C1887 1.433 . S
C1895 N1897 1.384 . S
N1896 C1892 1.427 . S
N1896 C1893 1.384 . S
N1897 C1889 1.427 . S
N1897 C1895 1.384 . S
H1898 C1904 0.930 . S
H1899 C1908 0.930 . S
H1900 C1913 0.929 . S
H1901 C1911 0.929 . S
H1902 C1906 0.929 . S
H1903 C1912 0.929 1_455 S
C1904 H1898 0.930 . S
C1904 C1905 1.367 . S
C1904 C1912 1.378 . S
C1905 C1904 1.367 . S
C1905 C1913 1.433 . S
C1906 H1902 0.929 . S
C1906 C1908 1.378 . S
C1906 C1910 1.350 . S
C1907 C1910 1.463 1_655 S
C1907 C1912 1.350 . S
C1907 N1915 1.427 . S
C1908 H1899 0.930 . S
C1908 C1906 1.378 . S
C1908 C1909 1.367 . S
C1909 C1908 1.367 . S
C1909 C1911 1.433 . S
C1910 C1906 1.350 . S
C1910 C1907 1.463 1_455 S
C1910 N1914 1.427 . S
C1911 H1901 0.929 . S
C1911 C1909 1.433 . S
C1911 N1914 1.384 . S
C1912 H1903 0.929 1_655 S
C1912 C1904 1.378 . S
C1912 C1907 1.350 . S
C1913 H1900 0.929 . S
C1913 C1905 1.433 . S
C1913 N1915 1.384 . S
N1914 C1910 1.427 . S
N1914 C1911 1.384 . S
N1915 C1907 1.427 . S
N1915 C1913 1.384 . S
H1916 C1922 0.930 . S
H1917 C1926 0.930 . S
H1918 C1931 0.929 . S
H1919 C1929 0.929 . S
H1920 C1924 0.929 . S
H1921 C1930 0.929 . S
C1922 H1916 0.930 . S
C1922 C1923 1.367 . S
C1922 C1930 1.378 . S
C1923 C1922 1.367 . S
C1923 C1931 1.433 . S
C1924 H1920 0.929 . S
C1924 C1926 1.378 . S
C1924 C1928 1.350 . S
C1925 C1928 1.463 . S
C1925 C1930 1.350 . S
C1925 N1933 1.427 . S
C1926 H1917 0.930 . S
C1926 C1924 1.378 . S
C1926 C1927 1.367 . S
C1927 C1926 1.367 . S
C1927 C1929 1.433 . S
C1928 C1924 1.350 . S
C1928 C1925 1.463 . S
C1928 N1932 1.427 . S
C1929 H1919 0.929 . S
C1929 C1927 1.433 . S
C1929 N1932 1.384 . S
C1930 H1921 0.929 . S
C1930 C1922 1.378 . S
C1930 C1925 1.350 . S
C1931 H1918 0.929 . S
C1931 C1923 1.433 . S
C1931 N1933 1.384 . S
N1932 C1928 1.427 . S
N1932 C1929 1.384 . S
N1933 C1925 1.427 . S
N1933 C1931 1.384 . S
H1934 C1940 0.930 . S
H1935 C1944 0.930 . S
H1936 C1949 0.929 . S
H1937 C1947 0.929 . S
H1938 C1942 0.929 . S
H1939 C1948 0.929 . S
C1940 H1934 0.930 . S
C1940 C1941 1.367 . S
C1940 C1948 1.378 . S
C1941 C1940 1.367 . S
C1941 C1949 1.433 . S
C1942 H1938 0.929 . S
C1942 C1944 1.378 . S
C1942 C1946 1.350 . S
C1943 C1946 1.463 . S
C1943 C1948 1.350 . S
C1943 N1951 1.427 . S
C1944 H1935 0.930 . S
C1944 C1942 1.378 . S
C1944 C1945 1.367 . S
C1945 C1944 1.367 . S
C1945 C1947 1.433 . S
C1946 C1942 1.350 . S
C1946 C1943 1.463 . S
C1946 N1950 1.427 . S
C1947 H1937 0.929 . S
C1947 C1945 1.433 . S
C1947 N1950 1.384 . S
C1948 H1939 0.929 . S
C1948 C1940 1.378 . S
C1948 C1943 1.350 . S
C1949 H1936 0.929 . S
C1949 C1941 1.433 . S
C1949 N1951 1.384 . S
N1950 C1946 1.427 . S
N1950 C1947 1.384 . S
N1951 C1943 1.427 . S
N1951 C1949 1.384 . S
H1952 C1958 0.930 . S
H1953 C1962 0.930 . S
H1954 C1967 0.929 . S
H1955 C1965 0.929 . S
H1956 C1960 0.929 . S
H1957 C1966 0.929 . S
C1958 H1952 0.930 . S
C1958 C1959 1.367 . S
C1958 C1966 1.378 . S
C1959 C1958 1.367 . S
C1959 C1967 1.433 . S
C1960 H1956 0.929 . S
C1960 C1962 1.378 . S
C1960 C1964 1.350 . S
C1961 C1964 1.463 . S
C1961 C1966 1.350 . S
C1961 N1969 1.427 . S
C1962 H1953 0.930 . S
C1962 C1960 1.378 . S
C1962 C1963 1.367 . S
C1963 C1962 1.367 . S
C1963 C1965 1.433 . S
C1964 C1960 1.350 . S
C1964 C1961 1.463 . S
C1964 N1968 1.427 . S
C1965 H1955 0.929 . S
C1965 C1963 1.433 . S
C1965 N1968 1.384 . S
C1966 H1957 0.929 . S
C1966 C1958 1.378 . S
C1966 C1961 1.350 . S
C1967 H1954 0.929 . S
C1967 C1959 1.433 . S
C1967 N1969 1.384 . S
N1968 C1964 1.427 . S
N1968 C1965 1.384 . S
N1969 C1961 1.427 . S
N1969 C1967 1.384 . S
H1970 C1976 0.930 . S
H1971 C1980 0.930 . S
H1972 C1985 0.929 . S
H1973 C1983 0.929 . S
H1974 C1978 0.929 . S
H1975 C1984 0.929 . S
C1976 H1970 0.930 . S
C1976 C1977 1.367 . S
C1976 C1984 1.378 . S
C1977 C1976 1.367 . S
C1977 C1985 1.433 . S
C1978 H1974 0.929 . S
C1978 C1980 1.378 . S
C1978 C1982 1.350 . S
C1979 C1982 1.463 1_655 S
C1979 C1984 1.350 . S
C1979 N1987 1.427 . S
C1980 H1971 0.930 . S
C1980 C1978 1.378 . S
C1980 C1981 1.367 . S
C1981 C1980 1.367 . S
C1981 C1983 1.433 . S
C1982 C1978 1.350 . S
C1982 C1979 1.463 1_455 S
C1982 N1986 1.427 . S
C1983 H1973 0.929 . S
C1983 C1981 1.433 . S
C1983 N1986 1.384 . S
C1984 H1975 0.929 . S
C1984 C1976 1.378 . S
C1984 C1979 1.350 . S
C1985 H1972 0.929 . S
C1985 C1977 1.433 . S
C1985 N1987 1.384 . S
N1986 C1982 1.427 . S
N1986 C1983 1.384 . S
N1987 C1979 1.427 . S
N1987 C1985 1.384 . S
H1988 C1994 0.930 . S
H1989 C1998 0.930 . S
H1990 C2003 0.929 . S
H1991 C2001 0.929 . S
H1992 C1996 0.929 1_655 S
H1993 C2002 0.929 1_455 S
C1994 H1988 0.930 . S
C1994 C1995 1.367 . S
C1994 C2002 1.378 . S
C1995 C1994 1.367 . S
C1995 C2003 1.433 . S
C1996 H1992 0.929 1_455 S
C1996 C1998 1.378 . S
C1996 C2000 1.350 . S
C1997 C2000 1.463 1_655 S
C1997 C2002 1.350 . S
C1997 N2005 1.427 . S
C1998 H1989 0.930 . S
C1998 C1996 1.378 . S
C1998 C1999 1.367 . S
C1999 C1998 1.367 . S
C1999 C2001 1.433 . S
C2000 C1996 1.350 . S
C2000 C1997 1.463 1_455 S
C2000 N2004 1.427 . S
C2001 H1991 0.929 . S
C2001 C1999 1.433 . S
C2001 N2004 1.384 . S
C2002 H1993 0.929 1_655 S
C2002 C1994 1.378 . S
C2002 C1997 1.350 . S
C2003 H1990 0.929 . S
C2003 C1995 1.433 . S
C2003 N2005 1.384 . S
N2004 C2000 1.427 . S
N2004 C2001 1.384 . S
N2005 C1997 1.427 . S
N2005 C2003 1.384 . S
H2006 C2012 0.930 . S
H2007 C2016 0.930 . S
H2008 C2021 0.929 . S
H2009 C2019 0.929 . S
H2010 C2014 0.929 . S
H2011 C2020 0.929 . S
C2012 H2006 0.930 . S
C2012 C2013 1.367 . S
C2012 C2020 1.378 . S
C2013 C2012 1.367 . S
C2013 C2021 1.433 . S
C2014 H2010 0.929 . S
C2014 C2016 1.378 . S
C2014 C2018 1.350 . S
C2015 C2018 1.463 . S
C2015 C2020 1.350 . S
C2015 N2023 1.427 . S
C2016 H2007 0.930 . S
C2016 C2014 1.378 . S
C2016 C2017 1.367 . S
C2017 C2016 1.367 . S
C2017 C2019 1.433 . S
C2018 C2014 1.350 . S
C2018 C2015 1.463 . S
C2018 N2022 1.427 . S
C2019 H2009 0.929 . S
C2019 C2017 1.433 . S
C2019 N2022 1.384 . S
C2020 H2011 0.929 . S
C2020 C2012 1.378 . S
C2020 C2015 1.350 . S
C2021 H2008 0.929 . S
C2021 C2013 1.433 . S
C2021 N2023 1.384 . S
N2022 C2018 1.427 . S
N2022 C2019 1.384 . S
N2023 C2015 1.427 . S
N2023 C2021 1.384 . S
H2024 C2030 0.930 . S
H2025 C2034 0.930 . S
H2026 C2039 0.929 . S
H2027 C2037 0.929 . S
H2028 C2032 0.929 . S
H2029 C2038 0.929 . S
C2030 H2024 0.930 . S
C2030 C2031 1.367 . S
C2030 C2038 1.378 . S
C2031 C2030 1.367 . S
C2031 C2039 1.433 . S
C2032 H2028 0.929 . S
C2032 C2034 1.378 . S
C2032 C2036 1.350 . S
C2033 C2036 1.463 . S
C2033 C2038 1.350 . S
C2033 N2041 1.427 . S
C2034 H2025 0.930 . S
C2034 C2032 1.378 . S
C2034 C2035 1.367 . S
C2035 C2034 1.367 . S
C2035 C2037 1.433 . S
C2036 C2032 1.350 . S
C2036 C2033 1.463 . S
C2036 N2040 1.427 . S
C2037 H2027 0.929 . S
C2037 C2035 1.433 . S
C2037 N2040 1.384 . S
C2038 H2029 0.929 . S
C2038 C2030 1.378 . S
C2038 C2033 1.350 . S
C2039 H2026 0.929 . S
C2039 C2031 1.433 . S
C2039 N2041 1.384 . S
N2040 C2036 1.427 . S
N2040 C2037 1.384 . S
N2041 C2033 1.427 . S
N2041 C2039 1.384 . S
H2042 C2048 0.930 . S
H2043 C2052 0.930 . S
H2044 C2057 0.929 . S
H2045 C2055 0.929 . S
H2046 C2050 0.929 . S
H2047 C2056 0.929 . S
C2048 H2042 0.930 . S
C2048 C2049 1.367 . S
C2048 C2056 1.378 . S
C2049 C2048 1.367 . S
C2049 C2057 1.433 . S
C2050 H2046 0.929 . S
C2050 C2052 1.378 . S
C2050 C2054 1.350 . S
C2051 C2054 1.463 . S
C2051 C2056 1.350 . S
C2051 N2059 1.427 . S
C2052 H2043 0.930 . S
C2052 C2050 1.378 . S
C2052 C2053 1.367 . S
C2053 C2052 1.367 . S
C2053 C2055 1.433 . S
C2054 C2050 1.350 . S
C2054 C2051 1.463 . S
C2054 N2058 1.427 . S
C2055 H2045 0.929 . S
C2055 C2053 1.433 . S
C2055 N2058 1.384 . S
C2056 H2047 0.929 . S
C2056 C2048 1.378 . S
C2056 C2051 1.350 . S
C2057 H2044 0.929 . S
C2057 C2049 1.433 . S
C2057 N2059 1.384 . S
N2058 C2054 1.427 . S
N2058 C2055 1.384 . S
N2059 C2051 1.427 . S
N2059 C2057 1.384 . S
H2060 C2066 0.930 . S
H2061 C2070 0.930 . S
H2062 C2075 0.929 . S
H2063 C2073 0.929 . S
H2064 C2068 0.929 1_455 S
H2065 C2074 0.929 1_655 S
C2066 H2060 0.930 . S
C2066 C2067 1.367 . S
C2066 C2074 1.378 . S
C2067 C2066 1.367 . S
C2067 C2075 1.433 . S
C2068 H2064 0.929 1_655 S
C2068 C2070 1.378 . S
C2068 C2072 1.350 . S
C2069 C2072 1.463 1_455 S
C2069 C2074 1.350 . S
C2069 N2077 1.427 . S
C2070 H2061 0.930 . S
C2070 C2068 1.378 . S
C2070 C2071 1.367 . S
C2071 C2070 1.367 . S
C2071 C2073 1.433 . S
C2072 C2068 1.350 . S
C2072 C2069 1.463 1_655 S
C2072 N2076 1.427 . S
C2073 H2063 0.929 . S
C2073 C2071 1.433 . S
C2073 N2076 1.384 . S
C2074 H2065 0.929 1_455 S
C2074 C2066 1.378 . S
C2074 C2069 1.350 . S
C2075 H2062 0.929 . S
C2075 C2067 1.433 . S
C2075 N2077 1.384 . S
N2076 C2072 1.427 . S
N2076 C2073 1.384 . S
N2077 C2069 1.427 . S
N2077 C2075 1.384 . S
H2078 C2084 0.930 . S
H2079 C2088 0.930 . S
H2080 C2093 0.929 . S
H2081 C2091 0.929 . S
H2082 C2086 0.929 . S
H2083 C2092 0.929 . S
C2084 H2078 0.930 . S
C2084 C2085 1.367 . S
C2084 C2092 1.378 . S
C2085 C2084 1.367 . S
C2085 C2093 1.433 . S
C2086 H2082 0.929 . S
C2086 C2088 1.378 . S
C2086 C2090 1.350 . S
C2087 C2090 1.463 1_655 S
C2087 C2092 1.350 . S
C2087 N2095 1.427 . S
C2088 H2079 0.930 . S
C2088 C2086 1.378 . S
C2088 C2089 1.367 . S
C2089 C2088 1.367 . S
C2089 C2091 1.433 . S
C2090 C2086 1.350 . S
C2090 C2087 1.463 1_455 S
C2090 N2094 1.427 . S
C2091 H2081 0.929 . S
C2091 C2089 1.433 . S
C2091 N2094 1.384 . S
C2092 H2083 0.929 . S
C2092 C2084 1.378 . S
C2092 C2087 1.350 . S
C2093 H2080 0.929 . S
C2093 C2085 1.433 . S
C2093 N2095 1.384 . S
N2094 C2090 1.427 . S
N2094 C2091 1.384 . S
N2095 C2087 1.427 . S
N2095 C2093 1.384 . S
H2096 C2102 0.930 . S
H2097 C2106 0.930 . S
H2098 C2111 0.929 . S
H2099 C2109 0.929 . S
H2100 C2104 0.929 . S
H2101 C2110 0.929 . S
C2102 H2096 0.930 . S
C2102 C2103 1.367 . S
C2102 C2110 1.378 . S
C2103 C2102 1.367 . S
C2103 C2111 1.433 . S
C2104 H2100 0.929 . S
C2104 C2106 1.378 . S
C2104 C2108 1.350 . S
C2105 C2108 1.463 . S
C2105 C2110 1.350 . S
C2105 N2113 1.427 . S
C2106 H2097 0.930 . S
C2106 C2104 1.378 . S
C2106 C2107 1.367 . S
C2107 C2106 1.367 . S
C2107 C2109 1.433 . S
C2108 C2104 1.350 . S
C2108 C2105 1.463 . S
C2108 N2112 1.427 . S
C2109 H2099 0.929 . S
C2109 C2107 1.433 . S
C2109 N2112 1.384 . S
C2110 H2101 0.929 . S
C2110 C2102 1.378 . S
C2110 C2105 1.350 . S
C2111 H2098 0.929 . S
C2111 C2103 1.433 . S
C2111 N2113 1.384 . S
N2112 C2108 1.427 . S
N2112 C2109 1.384 . S
N2113 C2105 1.427 . S
N2113 C2111 1.384 . S
H2114 C2120 0.930 . S
H2115 C2124 0.930 . S
H2116 C2129 0.929 . S
H2117 C2127 0.929 . S
H2118 C2122 0.929 . S
H2119 C2128 0.929 . S
C2120 H2114 0.930 . S
C2120 C2121 1.367 . S
C2120 C2128 1.378 . S
C2121 C2120 1.367 . S
C2121 C2129 1.433 . S
C2122 H2118 0.929 . S
C2122 C2124 1.378 . S
C2122 C2126 1.350 . S
C2123 C2126 1.463 1_655 S
C2123 C2128 1.350 . S
C2123 N2131 1.427 . S
C2124 H2115 0.930 . S
C2124 C2122 1.378 . S
C2124 C2125 1.367 . S
C2125 C2124 1.367 . S
C2125 C2127 1.433 . S
C2126 C2122 1.350 . S
C2126 C2123 1.463 1_455 S
C2126 N2130 1.427 . S
C2127 H2117 0.929 . S
C2127 C2125 1.433 . S
C2127 N2130 1.384 . S
C2128 H2119 0.929 . S
C2128 C2120 1.378 . S
C2128 C2123 1.350 . S
C2129 H2116 0.929 . S
C2129 C2121 1.433 . S
C2129 N2131 1.384 . S
N2130 C2126 1.427 . S
N2130 C2127 1.384 . S
N2131 C2123 1.427 . S
N2131 C2129 1.384 . S
H2132 C2138 0.930 . S
H2133 C2142 0.930 . S
H2134 C2147 0.929 . S
H2135 C2145 0.929 . S
H2136 C2140 0.929 . S
H2137 C2146 0.929 . S
C2138 H2132 0.930 . S
C2138 C2139 1.367 . S
C2138 C2146 1.378 . S
C2139 C2138 1.367 . S
C2139 C2147 1.433 . S
C2140 H2136 0.929 . S
C2140 C2142 1.378 . S
C2140 C2144 1.350 . S
C2141 C2144 1.463 1_655 S
C2141 C2146 1.350 . S
C2141 N2149 1.427 . S
C2142 H2133 0.930 . S
C2142 C2140 1.378 . S
C2142 C2143 1.367 . S
C2143 C2142 1.367 . S
C2143 C2145 1.433 . S
C2144 C2140 1.350 . S
C2144 C2141 1.463 1_455 S
C2144 N2148 1.427 . S
C2145 H2135 0.929 . S
C2145 C2143 1.433 . S
C2145 N2148 1.384 . S
C2146 H2137 0.929 . S
C2146 C2138 1.378 . S
C2146 C2141 1.350 . S
C2147 H2134 0.929 . S
C2147 C2139 1.433 . S
C2147 N2149 1.384 . S
N2148 C2144 1.427 . S
N2148 C2145 1.384 . S
N2149 C2141 1.427 . S
N2149 C2147 1.384 . S
H2150 C2156 0.930 . S
H2151 C2160 0.930 . S
H2152 C2165 0.929 . S
H2153 C2163 0.929 . S
H2154 C2158 0.929 . S
H2155 C2164 0.929 . S
C2156 H2150 0.930 . S
C2156 C2157 1.367 . S
C2156 C2164 1.378 . S
C2157 C2156 1.367 . S
C2157 C2165 1.433 . S
C2158 H2154 0.929 . S
C2158 C2160 1.378 . S
C2158 C2162 1.350 . S
C2159 C2162 1.463 . S
C2159 C2164 1.350 . S
C2159 N2167 1.427 . S
C2160 H2151 0.930 . S
C2160 C2158 1.378 . S
C2160 C2161 1.367 . S
C2161 C2160 1.367 . S
C2161 C2163 1.433 . S
C2162 C2158 1.350 . S
C2162 C2159 1.463 . S
C2162 N2166 1.427 . S
C2163 H2153 0.929 . S
C2163 C2161 1.433 . S
C2163 N2166 1.384 . S
C2164 H2155 0.929 . S
C2164 C2156 1.378 . S
C2164 C2159 1.350 . S
C2165 H2152 0.929 . S
C2165 C2157 1.433 . S
C2165 N2167 1.384 . S
N2166 C2162 1.427 . S
N2166 C2163 1.384 . S
N2167 C2159 1.427 . S
N2167 C2165 1.384 . S
H2168 C2174 0.930 . S
H2169 C2178 0.930 . S
H2170 C2183 0.929 . S
H2171 C2181 0.929 . S
H2172 C2176 0.929 . S
H2173 C2182 0.929 . S
C2174 H2168 0.930 . S
C2174 C2175 1.367 . S
C2174 C2182 1.378 . S
C2175 C2174 1.367 . S
C2175 C2183 1.433 . S
C2176 H2172 0.929 . S
C2176 C2178 1.378 . S
C2176 C2180 1.350 . S
C2177 C2180 1.463 . S
C2177 C2182 1.350 . S
C2177 N2185 1.427 . S
C2178 H2169 0.930 . S
C2178 C2176 1.378 . S
C2178 C2179 1.367 . S
C2179 C2178 1.367 . S
C2179 C2181 1.433 . S
C2180 C2176 1.350 . S
C2180 C2177 1.463 . S
C2180 N2184 1.427 . S
C2181 H2171 0.929 . S
C2181 C2179 1.433 . S
C2181 N2184 1.384 . S
C2182 H2173 0.929 . S
C2182 C2174 1.378 . S
C2182 C2177 1.350 . S
C2183 H2170 0.929 . S
C2183 C2175 1.433 . S
C2183 N2185 1.384 . S
N2184 C2180 1.427 . S
N2184 C2181 1.384 . S
N2185 C2177 1.427 . S
N2185 C2183 1.384 . S
H2186 C2192 0.930 . S
H2187 C2196 0.930 . S
H2188 C2201 0.929 . S
H2189 C2199 0.929 . S
H2190 C2194 0.929 . S
H2191 C2200 0.929 . S
C2192 H2186 0.930 . S
C2192 C2193 1.367 . S
C2192 C2200 1.378 . S
C2193 C2192 1.367 . S
C2193 C2201 1.433 . S
C2194 H2190 0.929 . S
C2194 C2196 1.378 . S
C2194 C2198 1.350 . S
C2195 C2198 1.463 . S
C2195 C2200 1.350 . S
C2195 N2203 1.427 . S
C2196 H2187 0.930 . S
C2196 C2194 1.378 . S
C2196 C2197 1.367 . S
C2197 C2196 1.367 . S
C2197 C2199 1.433 . S
C2198 C2194 1.350 . S
C2198 C2195 1.463 . S
C2198 N2202 1.427 . S
C2199 H2189 0.929 . S
C2199 C2197 1.433 . S
C2199 N2202 1.384 . S
C2200 H2191 0.929 . S
C2200 C2192 1.378 . S
C2200 C2195 1.350 . S
C2201 H2188 0.929 . S
C2201 C2193 1.433 . S
C2201 N2203 1.384 . S
N2202 C2198 1.427 . S
N2202 C2199 1.384 . S
N2203 C2195 1.427 . S
N2203 C2201 1.384 . S
H2204 C2210 0.930 . S
H2205 C2214 0.930 . S
H2206 C2219 0.929 . S
H2207 C2217 0.929 . S
H2208 C2212 0.929 . S
H2209 C2218 0.929 . S
C2210 H2204 0.930 . S
C2210 C2211 1.367 . S
C2210 C2218 1.378 . S
C2211 C2210 1.367 . S
C2211 C2219 1.433 . S
C2212 H2208 0.929 . S
C2212 C2214 1.378 . S
C2212 C2216 1.350 . S
C2213 C2216 1.463 1_655 S
C2213 C2218 1.350 . S
C2213 N2221 1.427 . S
C2214 H2205 0.930 . S
C2214 C2212 1.378 . S
C2214 C2215 1.367 . S
C2215 C2214 1.367 . S
C2215 C2217 1.433 . S
C2216 C2212 1.350 . S
C2216 C2213 1.463 1_455 S
C2216 N2220 1.427 . S
C2217 H2207 0.929 . S
C2217 C2215 1.433 . S
C2217 N2220 1.384 . S
C2218 H2209 0.929 . S
C2218 C2210 1.378 . S
C2218 C2213 1.350 . S
C2219 H2206 0.929 . S
C2219 C2211 1.433 . S
C2219 N2221 1.384 . S
N2220 C2216 1.427 . S
N2220 C2217 1.384 . S
N2221 C2213 1.427 . S
N2221 C2219 1.384 . S
H2222 C2228 0.930 . S
H2223 C2232 0.930 . S
H2224 C2237 0.929 . S
H2225 C2235 0.929 . S
H2226 C2230 0.929 . S
H2227 C2236 0.929 . S
C2228 H2222 0.930 . S
C2228 C2229 1.367 . S
C2228 C2236 1.378 . S
C2229 C2228 1.367 . S
C2229 C2237 1.433 . S
C2230 H2226 0.929 . S
C2230 C2232 1.378 . S
C2230 C2234 1.350 . S
C2231 C2234 1.463 1_655 S
C2231 C2236 1.350 . S
C2231 N2239 1.427 . S
C2232 H2223 0.930 . S
C2232 C2230 1.378 . S
C2232 C2233 1.367 . S
C2233 C2232 1.367 . S
C2233 C2235 1.433 . S
C2234 C2230 1.350 . S
C2234 C2231 1.463 1_455 S
C2234 N2238 1.427 . S
C2235 H2225 0.929 . S
C2235 C2233 1.433 . S
C2235 N2238 1.384 . S
C2236 H2227 0.929 . S
C2236 C2228 1.378 . S
C2236 C2231 1.350 . S
C2237 H2224 0.929 . S
C2237 C2229 1.433 . S
C2237 N2239 1.384 . S
N2238 C2234 1.427 . S
N2238 C2235 1.384 . S
N2239 C2231 1.427 . S
N2239 C2237 1.384 . S
H2240 C2246 0.930 . S
H2241 C2250 0.930 . S
H2242 C2255 0.929 . S
H2243 C2253 0.929 . S
H2244 C2248 0.929 . S
H2245 C2254 0.929 . S
C2246 H2240 0.930 . S
C2246 C2247 1.367 . S
C2246 C2254 1.378 . S
C2247 C2246 1.367 . S
C2247 C2255 1.433 . S
C2248 H2244 0.929 . S
C2248 C2250 1.378 . S
C2248 C2252 1.350 . S
C2249 C2252 1.463 1_565 S
C2249 C2254 1.350 . S
C2249 N2257 1.427 . S
C2250 H2241 0.930 . S
C2250 C2248 1.378 . S
C2250 C2251 1.367 . S
C2251 C2250 1.367 . S
C2251 C2253 1.433 . S
C2252 C2248 1.350 . S
C2252 C2249 1.463 1_545 S
C2252 N2256 1.427 . S
C2253 H2243 0.929 . S
C2253 C2251 1.433 . S
C2253 N2256 1.384 . S
C2254 H2245 0.929 . S
C2254 C2246 1.378 . S
C2254 C2249 1.350 . S
C2255 H2242 0.929 . S
C2255 C2247 1.433 . S
C2255 N2257 1.384 . S
N2256 C2252 1.427 . S
N2256 C2253 1.384 . S
N2257 C2249 1.427 . S
N2257 C2255 1.384 . S
H2258 C2264 0.930 . S
H2259 C2268 0.930 . S
H2260 C2273 0.929 . S
H2261 C2271 0.929 . S
H2262 C2266 0.929 . S
H2263 C2272 0.929 . S
C2264 H2258 0.930 . S
C2264 C2265 1.367 . S
C2264 C2272 1.378 . S
C2265 C2264 1.367 . S
C2265 C2273 1.433 . S
C2266 H2262 0.929 . S
C2266 C2268 1.378 . S
C2266 C2270 1.350 . S
C2267 C2270 1.463 . S
C2267 C2272 1.350 . S
C2267 N2275 1.427 . S
C2268 H2259 0.930 . S
C2268 C2266 1.378 . S
C2268 C2269 1.367 . S
C2269 C2268 1.367 . S
C2269 C2271 1.433 . S
C2270 C2266 1.350 . S
C2270 C2267 1.463 . S
C2270 N2274 1.427 . S
C2271 H2261 0.929 . S
C2271 C2269 1.433 . S
C2271 N2274 1.384 . S
C2272 H2263 0.929 . S
C2272 C2264 1.378 . S
C2272 C2267 1.350 . S
C2273 H2260 0.929 . S
C2273 C2265 1.433 . S
C2273 N2275 1.384 . S
N2274 C2270 1.427 . S
N2274 C2271 1.384 . S
N2275 C2267 1.427 . S
N2275 C2273 1.384 . S
H2276 C2282 0.930 . S
H2277 C2286 0.930 . S
H2278 C2291 0.929 . S
H2279 C2289 0.929 . S
H2280 C2284 0.929 . S
H2281 C2290 0.929 . S
C2282 H2276 0.930 . S
C2282 C2283 1.367 . S
C2282 C2290 1.378 . S
C2283 C2282 1.367 . S
C2283 C2291 1.433 . S
C2284 H2280 0.929 . S
C2284 C2286 1.378 . S
C2284 C2288 1.350 . S
C2285 C2288 1.463 1_565 S
C2285 C2290 1.350 . S
C2285 N2293 1.427 . S
C2286 H2277 0.930 . S
C2286 C2284 1.378 . S
C2286 C2287 1.367 . S
C2287 C2286 1.367 . S
C2287 C2289 1.433 . S
C2288 C2284 1.350 . S
C2288 C2285 1.463 1_545 S
C2288 N2292 1.427 . S
C2289 H2279 0.929 . S
C2289 C2287 1.433 . S
C2289 N2292 1.384 . S
C2290 H2281 0.929 . S
C2290 C2282 1.378 . S
C2290 C2285 1.350 . S
C2291 H2278 0.929 . S
C2291 C2283 1.433 . S
C2291 N2293 1.384 . S
N2292 C2288 1.427 . S
N2292 C2289 1.384 . S
N2293 C2285 1.427 . S
N2293 C2291 1.384 . S
H2294 C2300 0.930 . S
H2295 C2304 0.930 . S
H2296 C2309 0.929 . S
H2297 C2307 0.929 . S
H2298 C2302 0.929 1_554 S
H2299 C2308 0.929 1_556 S
C2300 H2294 0.930 . S
C2300 C2301 1.367 . S
C2300 C2308 1.378 . S
C2301 C2300 1.367 . S
C2301 C2309 1.433 . S
C2302 H2298 0.929 1_556 S
C2302 C2304 1.378 . S
C2302 C2306 1.350 . S
C2303 C2306 1.463 1_554 S
C2303 C2308 1.350 . S
C2303 N2311 1.427 . S
C2304 H2295 0.930 . S
C2304 C2302 1.378 . S
C2304 C2305 1.367 . S
C2305 C2304 1.367 . S
C2305 C2307 1.433 . S
C2306 C2302 1.350 . S
C2306 C2303 1.463 1_556 S
C2306 N2310 1.427 . S
C2307 H2297 0.929 . S
C2307 C2305 1.433 . S
C2307 N2310 1.384 . S
C2308 H2299 0.929 1_554 S
C2308 C2300 1.378 . S
C2308 C2303 1.350 . S
C2309 H2296 0.929 . S
C2309 C2301 1.433 . S
C2309 N2311 1.384 . S
N2310 C2306 1.427 . S
N2310 C2307 1.384 . S
N2311 C2303 1.427 . S
N2311 C2309 1.384 . S
H2312 C2318 0.930 . S
H2313 C2322 0.930 . S
H2314 C2327 0.929 . S
H2315 C2325 0.929 . S
H2316 C2320 0.929 . S
H2317 C2326 0.929 . S
C2318 H2312 0.930 . S
C2318 C2319 1.367 . S
C2318 C2326 1.378 . S
C2319 C2318 1.367 . S
C2319 C2327 1.433 . S
C2320 H2316 0.929 . S
C2320 C2322 1.378 . S
C2320 C2324 1.350 . S
C2321 C2324 1.463 1_565 S
C2321 C2326 1.350 . S
C2321 N2329 1.427 . S
C2322 H2313 0.930 . S
C2322 C2320 1.378 . S
C2322 C2323 1.367 . S
C2323 C2322 1.367 . S
C2323 C2325 1.433 . S
C2324 C2320 1.350 . S
C2324 C2321 1.463 1_545 S
C2324 N2328 1.427 . S
C2325 H2315 0.929 . S
C2325 C2323 1.433 . S
C2325 N2328 1.384 . S
C2326 H2317 0.929 . S
C2326 C2318 1.378 . S
C2326 C2321 1.350 . S
C2327 H2314 0.929 . S
C2327 C2319 1.433 . S
C2327 N2329 1.384 . S
N2328 C2324 1.427 . S
N2328 C2325 1.384 . S
N2329 C2321 1.427 . S
N2329 C2327 1.384 . S
H2330 C2336 0.930 . S
H2331 C2340 0.930 . S
H2332 C2345 0.929 . S
H2333 C2343 0.929 . S
H2334 C2338 0.929 . S
H2335 C2344 0.929 . S
C2336 H2330 0.930 . S
C2336 C2337 1.367 . S
C2336 C2344 1.378 . S
C2337 C2336 1.367 . S
C2337 C2345 1.433 . S
C2338 H2334 0.929 . S
C2338 C2340 1.378 . S
C2338 C2342 1.350 . S
C2339 C2342 1.463 . S
C2339 C2344 1.350 . S
C2339 N2347 1.427 . S
C2340 H2331 0.930 . S
C2340 C2338 1.378 . S
C2340 C2341 1.367 . S
C2341 C2340 1.367 . S
C2341 C2343 1.433 . S
C2342 C2338 1.350 . S
C2342 C2339 1.463 . S
C2342 N2346 1.427 . S
C2343 H2333 0.929 . S
C2343 C2341 1.433 . S
C2343 N2346 1.384 . S
C2344 H2335 0.929 . S
C2344 C2336 1.378 . S
C2344 C2339 1.350 . S
C2345 H2332 0.929 . S
C2345 C2337 1.433 . S
C2345 N2347 1.384 . S
N2346 C2342 1.427 . S
N2346 C2343 1.384 . S
N2347 C2339 1.427 . S
N2347 C2345 1.384 . S
H2348 C2354 0.930 . S
H2349 C2358 0.930 . S
H2350 C2363 0.929 . S
H2351 C2361 0.929 . S
H2352 C2356 0.929 1_545 S
H2353 C2362 0.929 1_565 S
C2354 H2348 0.930 . S
C2354 C2355 1.367 . S
C2354 C2362 1.378 . S
C2355 C2354 1.367 . S
C2355 C2363 1.433 . S
C2356 H2352 0.929 1_565 S
C2356 C2358 1.378 . S
C2356 C2360 1.350 . S
C2357 C2360 1.463 1_545 S
C2357 C2362 1.350 . S
C2357 N2365 1.427 . S
C2358 H2349 0.930 . S
C2358 C2356 1.378 . S
C2358 C2359 1.367 . S
C2359 C2358 1.367 . S
C2359 C2361 1.433 . S
C2360 C2356 1.350 . S
C2360 C2357 1.463 1_565 S
C2360 N2364 1.427 . S
C2361 H2351 0.929 . S
C2361 C2359 1.433 . S
C2361 N2364 1.384 . S
C2362 H2353 0.929 1_545 S
C2362 C2354 1.378 . S
C2362 C2357 1.350 . S
C2363 H2350 0.929 . S
C2363 C2355 1.433 . S
C2363 N2365 1.384 . S
N2364 C2360 1.427 . S
N2364 C2361 1.384 . S
N2365 C2357 1.427 . S
N2365 C2363 1.384 . S
H2366 C2372 0.930 . S
H2367 C2376 0.930 . S
H2368 C2381 0.929 . S
H2369 C2379 0.929 . S
H2370 C2374 0.953 . S
H2371 C2380 0.953 . S
C2372 H2366 0.930 . S
C2372 C2373 1.367 . S
C2372 C2380 1.378 . S
C2373 C2372 1.367 . S
C2373 C2381 1.433 . S
C2374 H2370 0.953 . S
C2374 C2376 1.378 . S
C2374 C2378 1.350 . S
C2375 C2378 1.463 1_556 S
C2375 C2380 1.350 . S
C2375 N2383 1.427 . S
C2376 H2367 0.930 . S
C2376 C2374 1.378 . S
C2376 C2377 1.367 . S
C2377 C2376 1.367 . S
C2377 C2379 1.433 . S
C2378 C2374 1.350 . S
C2378 C2375 1.463 1_554 S
C2378 N2382 1.427 . S
C2379 H2369 0.929 . S
C2379 C2377 1.433 . S
C2379 N2382 1.384 . S
C2380 H2371 0.953 . S
C2380 C2372 1.378 . S
C2380 C2375 1.350 . S
C2381 H2368 0.929 . S
C2381 C2373 1.433 . S
C2381 N2383 1.384 . S
N2382 C2378 1.427 . S
N2382 C2379 1.384 . S
N2383 C2375 1.427 . S
N2383 C2381 1.384 . S
H2384 C2390 0.930 . S
H2385 C2394 0.930 . S
H2386 C2399 0.929 . S
H2387 C2397 0.929 . S
H2388 C2392 0.929 . S
H2389 C2398 0.929 . S
C2390 H2384 0.930 . S
C2390 C2391 1.367 . S
C2390 C2398 1.378 . S
C2391 C2390 1.367 . S
C2391 C2399 1.433 . S
C2392 H2388 0.929 . S
C2392 C2394 1.378 . S
C2392 C2396 1.350 . S
C2393 C2396 1.463 . S
C2393 C2398 1.350 . S
C2393 N2401 1.427 . S
C2394 H2385 0.930 . S
C2394 C2392 1.378 . S
C2394 C2395 1.367 . S
C2395 C2394 1.367 . S
C2395 C2397 1.433 . S
C2396 C2392 1.350 . S
C2396 C2393 1.463 . S
C2396 N2400 1.427 . S
C2397 H2387 0.929 . S
C2397 C2395 1.433 . S
C2397 N2400 1.384 . S
C2398 H2389 0.929 . S
C2398 C2390 1.378 . S
C2398 C2393 1.350 . S
C2399 H2386 0.929 . S
C2399 C2391 1.433 . S
C2399 N2401 1.384 . S
N2400 C2396 1.427 . S
N2400 C2397 1.384 . S
N2401 C2393 1.427 . S
N2401 C2399 1.384 . S
H2402 C2408 0.930 . S
H2403 C2412 0.930 . S
H2404 C2417 0.929 . S
H2405 C2415 0.929 . S
H2406 C2410 0.936 . S
H2407 C2416 0.936 . S
C2408 H2402 0.930 . S
C2408 C2409 1.367 . S
C2408 C2416 1.373 1_554 S
C2409 C2408 1.367 . S
C2409 C2417 1.433 . S
C2410 H2406 0.936 . S
C2410 C2412 1.373 1_554 S
C2410 C2414 1.347 1_554 S
C2411 C2414 1.463 1_554 S
C2411 C2416 1.347 1_554 S
C2411 N2419 1.427 . S
C2412 H2403 0.930 . S
C2412 C2410 1.373 1_556 S
C2412 C2413 1.367 . S
C2413 C2412 1.367 . S
C2413 C2415 1.433 . S
C2414 C2410 1.347 1_556 S
C2414 C2411 1.463 1_556 S
C2414 N2418 1.427 . S
C2415 H2405 0.929 . S
C2415 C2413 1.433 . S
C2415 N2418 1.384 . S
C2416 H2407 0.936 . S
C2416 C2408 1.373 1_556 S
C2416 C2411 1.347 1_556 S
C2417 H2404 0.929 . S
C2417 C2409 1.433 . S
C2417 N2419 1.384 . S
N2418 C2414 1.427 . S
N2418 C2415 1.384 . S
N2419 C2411 1.427 . S
N2419 C2417 1.384 . S
H2420 C2426 0.930 . S
H2421 C2430 0.930 . S
H2422 C2435 0.929 . S
H2423 C2433 0.929 . S
H2424 C2428 0.929 . S
H2425 C2434 0.929 . S
C2426 H2420 0.930 . S
C2426 C2427 1.367 . S
C2426 C2434 1.378 . S
C2427 C2426 1.367 . S
C2427 C2435 1.433 . S
C2428 H2424 0.929 . S
C2428 C2430 1.378 . S
C2428 C2432 1.350 . S
C2429 C2432 1.463 . S
C2429 C2434 1.350 . S
C2429 N2437 1.427 . S
C2430 H2421 0.930 . S
C2430 C2428 1.378 . S
C2430 C2431 1.367 . S
C2431 C2430 1.367 . S
C2431 C2433 1.433 . S
C2432 C2428 1.350 . S
C2432 C2429 1.463 . S
C2432 N2436 1.427 . S
C2433 H2423 0.929 . S
C2433 C2431 1.433 . S
C2433 N2436 1.384 . S
C2434 H2425 0.929 . S
C2434 C2426 1.378 . S
C2434 C2429 1.350 . S
C2435 H2422 0.929 . S
C2435 C2427 1.433 . S
C2435 N2437 1.384 . S
N2436 C2432 1.427 . S
N2436 C2433 1.384 . S
N2437 C2429 1.427 . S
N2437 C2435 1.384 . S
H2438 C2444 0.930 . S
H2439 C2448 0.930 . S
H2440 C2453 0.929 . S
H2441 C2451 0.929 . S
H2442 C2446 0.929 . S
H2443 C2452 0.929 . S
C2444 H2438 0.930 . S
C2444 C2445 1.367 . S
C2444 C2452 1.378 . S
C2445 C2444 1.367 . S
C2445 C2453 1.433 . S
C2446 H2442 0.929 . S
C2446 C2448 1.378 . S
C2446 C2450 1.350 . S
C2447 C2450 1.463 . S
C2447 C2452 1.350 . S
C2447 N2455 1.427 . S
C2448 H2439 0.930 . S
C2448 C2446 1.378 . S
C2448 C2449 1.367 . S
C2449 C2448 1.367 . S
C2449 C2451 1.433 . S
C2450 C2446 1.350 . S
C2450 C2447 1.463 . S
C2450 N2454 1.427 . S
C2451 H2441 0.929 . S
C2451 C2449 1.433 . S
C2451 N2454 1.384 . S
C2452 H2443 0.929 . S
C2452 C2444 1.378 . S
C2452 C2447 1.350 . S
C2453 H2440 0.929 . S
C2453 C2445 1.433 . S
C2453 N2455 1.384 . S
N2454 C2450 1.427 . S
N2454 C2451 1.384 . S
N2455 C2447 1.427 . S
N2455 C2453 1.384 . S
H2456 C2462 0.930 . S
H2457 C2466 0.930 . S
H2458 C2471 0.929 . S
H2459 C2469 0.929 . S
H2460 C2464 0.929 . S
H2461 C2470 0.929 . S
C2462 H2456 0.930 . S
C2462 C2463 1.367 . S
C2462 C2470 1.378 . S
C2463 C2462 1.367 . S
C2463 C2471 1.433 . S
C2464 H2460 0.929 . S
C2464 C2466 1.378 . S
C2464 C2468 1.350 . S
C2465 C2468 1.463 . S
C2465 C2470 1.350 . S
C2465 N2473 1.427 . S
C2466 H2457 0.930 . S
C2466 C2464 1.378 . S
C2466 C2467 1.367 . S
C2467 C2466 1.367 . S
C2467 C2469 1.433 . S
C2468 C2464 1.350 . S
C2468 C2465 1.463 . S
C2468 N2472 1.427 . S
C2469 H2459 0.929 . S
C2469 C2467 1.433 . S
C2469 N2472 1.384 . S
C2470 H2461 0.929 . S
C2470 C2462 1.378 . S
C2470 C2465 1.350 . S
C2471 H2458 0.929 . S
C2471 C2463 1.433 . S
C2471 N2473 1.384 . S
N2472 C2468 1.427 . S
N2472 C2469 1.384 . S
N2473 C2465 1.427 . S
N2473 C2471 1.384 . S
H2474 C2480 0.930 . S
H2475 C2484 0.930 . S
H2476 C2489 0.929 . S
H2477 C2487 0.929 . S
H2478 C2482 0.929 . S
H2479 C2488 0.929 . S
C2480 H2474 0.930 . S
C2480 C2481 1.367 . S
C2480 C2488 1.378 . S
C2481 C2480 1.367 . S
C2481 C2489 1.433 . S
C2482 H2478 0.929 . S
C2482 C2484 1.378 . S
C2482 C2486 1.350 . S
C2483 C2486 1.463 1_554 S
C2483 C2488 1.350 . S
C2483 N2491 1.427 . S
C2484 H2475 0.930 . S
C2484 C2482 1.378 . S
C2484 C2485 1.367 . S
C2485 C2484 1.367 . S
C2485 C2487 1.433 . S
C2486 C2482 1.350 . S
C2486 C2483 1.463 1_556 S
C2486 N2490 1.427 . S
C2487 H2477 0.929 . S
C2487 C2485 1.433 . S
C2487 N2490 1.384 . S
C2488 H2479 0.929 . S
C2488 C2480 1.378 . S
C2488 C2483 1.350 . S
C2489 H2476 0.929 . S
C2489 C2481 1.433 . S
C2489 N2491 1.384 . S
N2490 C2486 1.427 . S
N2490 C2487 1.384 . S
N2491 C2483 1.427 . S
N2491 C2489 1.384 . S
H2492 C2498 0.930 . S
H2493 C2502 0.930 . S
H2494 C2507 0.929 . S
H2495 C2505 0.929 . S
H2496 C2500 0.929 . S
H2497 C2506 0.929 . S
C2498 H2492 0.930 . S
C2498 C2499 1.367 . S
C2498 C2506 1.378 . S
C2499 C2498 1.367 . S
C2499 C2507 1.433 . S
C2500 H2496 0.929 . S
C2500 C2502 1.378 . S
C2500 C2504 1.350 . S
C2501 C2504 1.463 . S
C2501 C2506 1.350 . S
C2501 N2509 1.427 . S
C2502 H2493 0.930 . S
C2502 C2500 1.378 . S
C2502 C2503 1.367 . S
C2503 C2502 1.367 . S
C2503 C2505 1.433 . S
C2504 C2500 1.350 . S
C2504 C2501 1.463 . S
C2504 N2508 1.427 . S
C2505 H2495 0.929 . S
C2505 C2503 1.433 . S
C2505 N2508 1.384 . S
C2506 H2497 0.929 . S
C2506 C2498 1.378 . S
C2506 C2501 1.350 . S
C2507 H2494 0.929 . S
C2507 C2499 1.433 . S
C2507 N2509 1.384 . S
N2508 C2504 1.427 . S
N2508 C2505 1.384 . S
N2509 C2501 1.427 . S
N2509 C2507 1.384 . S
H2510 C2516 0.930 . S
H2511 C2520 0.930 . S
H2512 C2525 0.929 . S
H2513 C2523 0.929 . S
H2514 C2518 0.929 . S
H2515 C2524 0.929 . S
C2516 H2510 0.930 . S
C2516 C2517 1.367 . S
C2516 C2524 1.378 . S
C2517 C2516 1.367 . S
C2517 C2525 1.433 . S
C2518 H2514 0.929 . S
C2518 C2520 1.378 . S
C2518 C2522 1.350 . S
C2519 C2522 1.463 . S
C2519 C2524 1.350 . S
C2519 N2527 1.427 . S
C2520 H2511 0.930 . S
C2520 C2518 1.378 . S
C2520 C2521 1.367 . S
C2521 C2520 1.367 . S
C2521 C2523 1.433 . S
C2522 C2518 1.350 . S
C2522 C2519 1.463 . S
C2522 N2526 1.427 . S
C2523 H2513 0.929 . S
C2523 C2521 1.433 . S
C2523 N2526 1.384 . S
C2524 H2515 0.929 . S
C2524 C2516 1.378 . S
C2524 C2519 1.350 . S
C2525 H2512 0.929 . S
C2525 C2517 1.433 . S
C2525 N2527 1.384 . S
N2526 C2522 1.427 . S
N2526 C2523 1.384 . S
N2527 C2519 1.427 . S
N2527 C2525 1.384 . S
C1095 C9 1.280 . S
C1099 C825 1.280 . S
C1113 C315 1.294 . S
C1117 C43 1.294 . S
C1131 C893 1.301 . S
C1135 C77 1.301 . S
C1149 C111 1.291 . S
C1153 C383 1.291 . S
C1167 C961 1.303 . S
C1171 C145 1.303 . S
C1185 C451 1.302 . S
C1189 C179 1.302 . S
C1203 C213 1.288 . S
C1207 C1029 1.288 . S
C1221 C247 1.296 . S
C1225 C519 1.296 . S
C1239 C281 1.282 . S
C1243 C553 1.282 . S
C1257 C349 1.302 . S
C1261 C621 1.302 . S
C1275 C689 1.283 . S
C1279 C417 1.283 . S
C1293 C485 1.301 . S
C1297 C757 1.301 . S
C1311 C587 1.295 . S
C1315 C859 1.295 . S
C1329 C927 1.280 . S
C1333 C655 1.280 . S
C1347 C995 1.298 . S
C1351 C723 1.298 . S
C1365 C791 1.303 . S
C1369 C1063 1.303 . S
C1383 C2 0.935 . S
C1387 C855 0.931 . S
C1401 C345 0.936 . S
C1405 C36 0.934 . S
C1419 C70 0.945 . S
C1423 C923 0.916 . S
C1437 C277 0.914 . S
C1441 C104 0.945 . S
C1455 C138 0.939 . S
C1459 C1059 0.928 . S
C1473 C172 0.943 . S
C1477 C413 0.921 . S
C1491 C991 0.917 . S
C1495 C206 0.942 . S
C1509 C481 0.919 . S
C1513 C240 0.942 . S
C1527 C583 0.933 . S
C1531 C274 0.934 . S
C1545 C73 0.914 . S
C1549 C308 0.944 . S
C1563 C342 0.936 . S
C1567 C651 0.933 . S
C1581 C376 0.934 . S
C1585 C5 0.933 . S
C1599 C787 0.921 . S
C1603 C410 0.943 . S
C1617 C141 0.918 . S
C1621 C444 0.942 . S
C1635 C478 0.938 . S
C1639 C719 0.930 . S
C1653 C512 0.934 . S
C1657 C209 0.935 . S
C1671 C311 0.921 . S
C1675 C546 0.940 . S
C1689 C889 0.912 . S
C1693 C580 0.947 . S
C1707 C379 0.924 . S
C1711 C614 0.939 . S
C1725 C648 0.933 . S
C1729 C821 0.935 . S
C1743 C515 0.933 . S
C1747 C682 0.936 . S
C1761 C716 0.944 . S
C1765 C957 0.915 . S
C1779 C447 0.932 . S
C1783 C750 0.935 . S
C1797 C784 0.939 . S
C1801 C1025 0.923 . S
C1815 C39 0.914 . S
C1819 C818 0.946 . S
C1833 C617 0.918 . S
C1837 C852 0.945 . S
C1851 C107 0.929 . S
C1855 C886 0.936 . S
C1869 C920 0.941 . S
C1873 C549 0.925 . S
C1887 C954 0.941 . S
C1891 C243 0.926 . S
C1905 C685 0.915 . S
C1909 C988 0.944 . S
C1923 C175 0.926 . S
C1927 C1022 0.941 . S
C1941 C1056 0.946 . S
C1945 C753 0.913 . S
C1959 C645 0.989 . S
C1963 C33 0.979 . S
C1977 C679 0.986 . S
C1981 C67 0.976 . S
C1995 C577 0.989 . S
C1999 C101 0.983 . S
C2013 C611 0.977 . S
C2017 C135 0.988 . S
C2031 C169 0.975 . S
C2035 C781 0.985 . S
C2049 C815 0.976 . S
C2053 C203 0.980 . S
C2067 C237 0.989 . S
C2071 C713 0.981 . S
C2085 C747 0.988 . S
C2089 C271 0.985 . S
C2103 C917 0.986 . S
C2107 C305 0.987 . S
C2121 C339 0.988 . S
C2125 C951 0.977 . S
C2139 C373 0.987 . S
C2143 C849 0.977 . S
C2157 C407 0.983 . S
C2161 C883 0.975 . S
C2175 C1053 0.977 . S
C2179 C441 0.988 . S
C2193 C475 0.988 . S
C2197 C1087 0.977 . S
C2211 C509 0.976 . S
C2215 C985 0.985 . S
C2229 C543 0.988 . S
C2233 C1019 0.984 . S
C2247 C156 2.078 . S
C2251 C20 2.077 . S
C2265 C190 2.077 . S
C2269 C54 2.079 . S
C2283 C88 2.079 . S
C2287 C224 2.077 . S
C2301 C258 2.077 . S
C2305 C122 2.078 . S
C2319 C292 2.077 . S
C2323 C428 2.078 . S
C2337 C462 2.078 . S
C2341 C326 2.077 . S
C2355 C360 2.080 . S
C2359 C496 2.080 . S
C2373 C530 2.079 . S
C2377 C394 2.078 . S
C2391 C564 2.078 . S
C2395 C700 2.080 . S
C2409 C734 2.078 . S
C2413 C598 2.078 . S
C2427 C768 2.080 . S
C2431 C632 2.078 . S
C2445 C666 2.078 . S
C2449 C802 2.077 . S
C2463 C972 2.080 . S
C2467 C836 2.079 . S
C2481 C870 2.079 . S
C2485 C1006 2.078 . S
C2499 C904 2.080 . S
C2503 C1040 2.080 . S
C2517 C938 2.078 . S
C2521 C1074 2.080 . S
