# Generated by pormake.
# Topology wkf, (6)-cn, num edge types: 1
# Building blocks:
#     Node 0, Type 0, BuildingBlock: IZENUY_clean_sbu_0, # of connection points: 6
#     Node 1, Type 0, BuildingBlock: IZENUY_clean_sbu_0, # of connection points: 6
#     Node 2, Type 0, BuildingBlock: IZENUY_clean_sbu_0, # of connection points: 6
#     Node 3, Type 0, BuildingBlock: IZENUY_clean_sbu_0, # of connection points: 6
#     Node 4, Type 0, BuildingBlock: IZENUY_clean_sbu_0, # of connection points: 6
#     Node 5, Type 0, BuildingBlock: IZENUY_clean_sbu_0, # of connection points: 6
#     Node 6, Type 0, BuildingBlock: IZENUY_clean_sbu_0, # of connection points: 6
#     Node 7, Type 0, BuildingBlock: IZENUY_clean_sbu_0, # of connection points: 6
#     Node 8, Type 0, BuildingBlock: IZENUY_clean_sbu_0, # of connection points: 6
#     Node 9, Type 0, BuildingBlock: IZENUY_clean_sbu_0, # of connection points: 6
#     Node 10, Type 0, BuildingBlock: IZENUY_clean_sbu_0, # of connection points: 6
#     Node 11, Type 0, BuildingBlock: IZENUY_clean_sbu_0, # of connection points: 6
#     Edge 12, Type (0, 0), BuildingBlock: XIVTED_clean_linker_0, # of connection points: 2
#     Edge 13, Type (0, 0), BuildingBlock: XIVTED_clean_linker_0, # of connection points: 2
#     Edge 14, Type (0, 0), BuildingBlock: XIVTED_clean_linker_0, # of connection points: 2
#     Edge 15, Type (0, 0), BuildingBlock: XIVTED_clean_linker_0, # of connection points: 2
#     Edge 16, Type (0, 0), BuildingBlock: XIVTED_clean_linker_0, # of connection points: 2
#     Edge 17, Type (0, 0), BuildingBlock: XIVTED_clean_linker_0, # of connection points: 2
#     Edge 18, Type (0, 0), BuildingBlock: XIVTED_clean_linker_0, # of connection points: 2
#     Edge 19, Type (0, 0), BuildingBlock: XIVTED_clean_linker_0, # of connection points: 2
#     Edge 20, Type (0, 0), BuildingBlock: XIVTED_clean_linker_0, # of connection points: 2
#     Edge 21, Type (0, 0), BuildingBlock: XIVTED_clean_linker_0, # of connection points: 2
#     Edge 22, Type (0, 0), BuildingBlock: XIVTED_clean_linker_0, # of connection points: 2
#     Edge 23, Type (0, 0), BuildingBlock: XIVTED_clean_linker_0, # of connection points: 2
#     Edge 24, Type (0, 0), BuildingBlock: XIVTED_clean_linker_0, # of connection points: 2
#     Edge 25, Type (0, 0), BuildingBlock: XIVTED_clean_linker_0, # of connection points: 2
#     Edge 26, Type (0, 0), BuildingBlock: XIVTED_clean_linker_0, # of connection points: 2
#     Edge 27, Type (0, 0), BuildingBlock: XIVTED_clean_linker_0, # of connection points: 2
#     Edge 28, Type (0, 0), BuildingBlock: XIVTED_clean_linker_0, # of connection points: 2
#     Edge 29, Type (0, 0), BuildingBlock: XIVTED_clean_linker_0, # of connection points: 2
#     Edge 30, Type (0, 0), BuildingBlock: XIVTED_clean_linker_0, # of connection points: 2
#     Edge 31, Type (0, 0), BuildingBlock: XIVTED_clean_linker_0, # of connection points: 2
#     Edge 32, Type (0, 0), BuildingBlock: XIVTED_clean_linker_0, # of connection points: 2
#     Edge 33, Type (0, 0), BuildingBlock: XIVTED_clean_linker_0, # of connection points: 2
#     Edge 34, Type (0, 0), BuildingBlock: XIVTED_clean_linker_0, # of connection points: 2
#     Edge 35, Type (0, 0), BuildingBlock: XIVTED_clean_linker_0, # of connection points: 2
#     Edge 36, Type (0, 0), BuildingBlock: XIVTED_clean_linker_0, # of connection points: 2
#     Edge 37, Type (0, 0), BuildingBlock: XIVTED_clean_linker_0, # of connection points: 2
#     Edge 38, Type (0, 0), BuildingBlock: XIVTED_clean_linker_0, # of connection points: 2
#     Edge 39, Type (0, 0), BuildingBlock: XIVTED_clean_linker_0, # of connection points: 2
#     Edge 40, Type (0, 0), BuildingBlock: XIVTED_clean_linker_0, # of connection points: 2
#     Edge 41, Type (0, 0), BuildingBlock: XIVTED_clean_linker_0, # of connection points: 2
#     Edge 42, Type (0, 0), BuildingBlock: XIVTED_clean_linker_0, # of connection points: 2
#     Edge 43, Type (0, 0), BuildingBlock: XIVTED_clean_linker_0, # of connection points: 2
#     Edge 44, Type (0, 0), BuildingBlock: XIVTED_clean_linker_0, # of connection points: 2
#     Edge 45, Type (0, 0), BuildingBlock: XIVTED_clean_linker_0, # of connection points: 2
#     Edge 46, Type (0, 0), BuildingBlock: XIVTED_clean_linker_0, # of connection points: 2
#     Edge 47, Type (0, 0), BuildingBlock: XIVTED_clean_linker_0, # of connection points: 2
# Relax obj value: 0.283
# Max RMSD: 0.255
# Mean RMSD: 0.255
data_MOF--net-wkf--node1-IZENUY_clean_sbu_0--edge1-XIVTED_clean_linker_0
_symmetry_space_group_name_H-M    P1
_symmetry_Int_Tables_number       1
_symmetry_cell_setting            triclinic
loop_
_symmetry_equiv_pos_as_xyz
'x, y, z'
_cell_length_a     27.449858
_cell_length_b     27.591331
_cell_length_c     74.456089
_cell_angle_alpha  90.382896
_cell_angle_beta   89.984695
_cell_angle_gamma 120.56219
loop_
_atom_site_label
_atom_site_type_symbol
_atom_site_fract_x
_atom_site_fract_y
_atom_site_fract_z
_atom_type_partial_charge
Fe0 Fe 0.42357 0.12882 0.35092 0.0
Fe1 Fe 0.31215 0.11354 0.36511 0.0
O2 O 0.37261 0.10725 0.36809 0.0
Fe3 Fe 0.38105 0.07861 0.38815 0.0
O4 O 0.44633 0.14163 0.39326 0.0
O5 O 0.48437 0.15349 0.36642 0.0
O6 O 0.43627 0.19939 0.35163 0.0
C7 C 0.3988 0.21135 0.34834 0.0
C8 C 0.42202 0.03417 0.36141 0.0
O9 O 0.34698 0.17497 0.35029 0.0
C10 C 0.26874 0.01038 0.38345 0.0
O11 O 0.37136 0.10722 0.33249 0.0
O12 O 0.28919 0.06533 0.34632 0.0
O13 O 0.41827 0.04553 0.3777 0.0
O14 O 0.41426 0.05992 0.34897 0.0
C15 C 0.33899 0.14909 0.39962 0.0
O16 O 0.26559 0.05312 0.3793 0.0
O17 O 0.31597 0.01342 0.38416 0.0
C18 C 0.31862 0.07162 0.33258 0.0
O19 O 0.33255 0.16186 0.38391 0.0
O20 O 0.34631 0.1077 0.40229 0.0
C21 C 0.4888 0.16401 0.38317 0.0
Fe22 Fe 0.28903 0.38135 0.55931 0.0
Fe23 Fe 0.29499 0.42955 0.522 0.0
O24 O 0.25818 0.37669 0.53811 0.0
Fe25 Fe 0.19077 0.31818 0.53279 0.0
O26 O 0.15792 0.33602 0.55066 0.0
O27 O 0.22091 0.34753 0.57123 0.0
O28 O 0.29323 0.44684 0.56438 0.0
C29 C 0.31832 0.49038 0.55499 0.0
C30 C 0.24209 0.26969 0.55291 0.0
O31 O 0.3297 0.48771 0.5386 0.0
C32 C 0.24918 0.32838 0.50207 0.0
O33 O 0.3626 0.41678 0.55118 0.0
O34 O 0.35271 0.41661 0.52191 0.0
O35 O 0.19791 0.26826 0.54725 0.0
O36 O 0.28689 0.31589 0.55552 0.0
C37 C 0.18913 0.40971 0.51647 0.0
O38 O 0.26725 0.38085 0.50257 0.0
O39 O 0.22071 0.2972 0.51489 0.0
C40 C 0.3805 0.41783 0.53545 0.0
O41 O 0.23895 0.44505 0.52107 0.0
O42 O 0.17092 0.35734 0.51732 0.0
C43 C 0.17348 0.34174 0.56688 0.0
Fe44 Fe 0.87832 0.29744 0.72642 0.0
Fe45 Fe 0.84681 0.31117 0.68827 0.0
O46 O 0.86116 0.27241 0.7041 0.0
Fe47 Fe 0.85803 0.20913 0.69753 0.0
O48 O 0.83117 0.17414 0.7192 0.0
O49 O 0.81816 0.23419 0.73514 0.0
O50 O 0.83402 0.32926 0.72668 0.0
C51 C 0.7908 0.31769 0.7174 0.0
C52 C 0.9508 0.25556 0.71936 0.0
O53 O 0.7866 0.30176 0.70123 0.0
C54 C 0.91277 0.28334 0.66859 0.0
O55 O 0.94009 0.36221 0.71912 0.0
O56 O 0.8932 0.37953 0.69878 0.0
O57 O 0.93082 0.2351 0.7041 0.0
O58 O 0.92493 0.26993 0.73014 0.0
C59 C 0.7679 0.19936 0.67915 0.0
O60 O 0.90648 0.32253 0.67475 0.0
O61 O 0.88444 0.23369 0.67468 0.0
C62 C 0.93649 0.39545 0.70847 0.0
O63 O 0.79766 0.25022 0.67464 0.0
O64 O 0.78511 0.17855 0.69073 0.0
C65 C 0.80798 0.1848 0.73214 0.0
Fe66 Fe 0.54076 0.84329 0.84987 0.0
Fe67 Fe 0.65529 0.85958 0.86123 0.0
O68 O 0.59579 0.86656 0.86578 0.0
Fe69 Fe 0.59229 0.89737 0.88619 0.0
O70 O 0.52837 0.83466 0.89263 0.0
O71 O 0.48401 0.82031 0.86675 0.0
O72 O 0.52834 0.77312 0.85069 0.0
C73 C 0.56431 0.75957 0.84689 0.0
C74 C 0.54479 0.93862 0.86109 0.0
O75 O 0.61661 0.79607 0.84686 0.0
C76 C 0.70307 0.96514 0.87903 0.0
O77 O 0.58851 0.86287 0.83029 0.0
O78 O 0.67367 0.90611 0.84237 0.0
O79 O 0.5526 0.92893 0.87709 0.0
O80 O 0.54915 0.9118 0.84815 0.0
C81 C 0.63555 0.8277 0.89604 0.0
O82 O 0.70536 0.9218 0.87469 0.0
O83 O 0.65602 0.96203 0.8808 0.0
C84 C 0.64082 0.89977 0.82958 0.0
O85 O 0.63903 0.81316 0.88019 0.0
O86 O 0.63058 0.87032 0.89906 0.0
C87 C 0.48363 0.81068 0.88343 0.0
Fe88 Fe 0.66069 0.53839 0.01928 0.0
Fe89 Fe 0.76501 0.65296 0.02916 0.0
O90 O 0.7003 0.59261 0.03514 0.0
Fe91 Fe 0.67432 0.58476 0.05734 0.0
O92 O 0.63719 0.50823 0.05698 0.0
O93 O 0.66883 0.48832 0.03286 0.0
O94 O 0.72093 0.54794 0.00628 0.0
C95 C 0.77262 0.5713 0.01024 0.0
C96 C 0.57795 0.5486 0.03838 0.0
O97 O 0.79501 0.61138 0.02135 0.0
C98 C 0.72501 0.70143 0.05227 0.0
O99 O 0.65189 0.58598 0.00493 0.0
O100 O 0.74038 0.65691 0.00664 0.0
O101 O 0.61185 0.58524 0.0494 0.0
O102 O 0.59227 0.519 0.02924 0.0
C103 C 0.78624 0.62184 0.06334 0.0
O104 O 0.74121 0.70059 0.03652 0.0
O105 O 0.70699 0.6592 0.06223 0.0
C106 C 0.69145 0.63304 0.99956 0.0
O107 O 0.79929 0.65754 0.05085 0.0
O108 O 0.7354 0.58416 0.06615 0.0
C109 C 0.65277 0.47816 0.04896 0.0
Fe110 Fe 0.10496 0.79072 0.193 0.0
Fe111 Fe 0.07127 0.69478 0.21938 0.0
O112 O 0.10167 0.727 0.19877 0.0
Fe113 Fe 0.12782 0.69583 0.18387 0.0
O114 O 0.19677 0.75761 0.18398 0.0
O115 O 0.16834 0.81715 0.17866 0.0
O116 O 0.15149 0.82673 0.21183 0.0
C117 C 0.1372 0.81114 0.22785 0.0
C118 C 0.06606 0.72922 0.16215 0.0
O119 O 0.09564 0.76235 0.23124 0.0
C120 C 0.0352 0.60118 0.19574 0.0
O121 O 0.04195 0.77655 0.20609 0.0
O122 O 0.00464 0.68771 0.21298 0.0
O123 O 0.10472 0.71695 0.1635 0.0
O124 O 0.05822 0.75648 0.17432 0.0
C125 C 0.1634 0.6825 0.21844 0.0
O126 O 0.04302 0.62161 0.21146 0.0
O127 O 0.06101 0.63178 0.18264 0.0
C128 C -0.00047 0.73001 0.21071 0.0
O129 O 0.13576 0.70031 0.22676 0.0
O130 O 0.15453 0.66937 0.20187 0.0
C131 C 0.20673 0.80453 0.17843 0.0
Fe132 Fe 0.84594 0.53067 0.47949 0.0
Fe133 Fe 0.85301 0.64083 0.4688 0.0
O134 O 0.86377 0.58431 0.46368 0.0
Fe135 Fe 0.89356 0.58256 0.44286 0.0
O136 O 0.83233 0.51692 0.43683 0.0
O137 O 0.82466 0.47428 0.46248 0.0
O138 O 0.7732 0.51298 0.47967 0.0
C139 C 0.75781 0.54703 0.48427 0.0
C140 C 0.94574 0.54528 0.4672 0.0
O141 O 0.79187 0.59963 0.48357 0.0
C142 C 0.95708 0.69358 0.45029 0.0
O143 O 0.8646 0.57795 0.49917 0.0
O144 O 0.90207 0.66221 0.48731 0.0
O145 O 0.93065 0.54727 0.45132 0.0
O146 O 0.91754 0.54544 0.48042 0.0
C147 C 0.81757 0.62015 0.43419 0.0
O148 O 0.91243 0.69282 0.45511 0.0
O149 O 0.95684 0.64834 0.44786 0.0
C150 C 0.89859 0.63072 0.50003 0.0
O151 O 0.8038 0.62189 0.45026 0.0
O152 O 0.86111 0.61697 0.43058 0.0
C153 C 0.81237 0.47273 0.44595 0.0
Fe154 Fe 0.29104 0.84406 0.64751 0.0
Fe155 Fe 0.1889 0.85064 0.6346 0.0
O156 O 0.25711 0.86104 0.63069 0.0
Fe157 Fe 0.29132 0.88967 0.61011 0.0
O158 O 0.29667 0.82905 0.60504 0.0
O159 O 0.32757 0.82148 0.63157 0.0
O160 O 0.23474 0.77182 0.64776 0.0
C161 C 0.18489 0.75743 0.65191 0.0
C162 C 0.37897 0.94337 0.63561 0.0
O163 O 0.1669 0.79121 0.64997 0.0
C164 C 0.24287 0.95263 0.6155 0.0
O165 O 0.2609 0.86449 0.66633 0.0
O166 O 0.21547 0.9008 0.65288 0.0
O167 O 0.36345 0.92817 0.61954 0.0
O168 O 0.34886 0.9149 0.6485 0.0
C169 C 0.17703 0.81269 0.60036 0.0
O170 O 0.19791 0.90846 0.62009 0.0
O171 O 0.28835 0.95248 0.614 0.0
C172 C 0.24178 0.8979 0.66632 0.0
O173 O 0.15971 0.80035 0.61631 0.0
O174 O 0.22499 0.85563 0.59699 0.0
C175 C 0.3194 0.80934 0.61494 0.0
Fe176 Fe 0.40955 0.27647 0.81594 0.0
Fe177 Fe 0.29467 0.17572 0.805 0.0
O178 O 0.35447 0.24197 0.80008 0.0
Fe179 Fe 0.35809 0.27402 0.77934 0.0
O180 O 0.4208 0.27377 0.77329 0.0
O181 O 0.46614 0.30857 0.79884 0.0
O182 O 0.42211 0.21877 0.81632 0.0
C183 C 0.38534 0.16954 0.82057 0.0
C184 C 0.40379 0.36574 0.80362 0.0
O185 O 0.33309 0.15272 0.81951 0.0
C186 C 0.24797 0.23211 0.7868 0.0
O187 O 0.36234 0.25042 0.83559 0.0
O188 O 0.27687 0.20554 0.82372 0.0
O189 O 0.39903 0.3472 0.78775 0.0
O190 O 0.4002 0.33619 0.81682 0.0
C191 C 0.31276 0.15891 0.77032 0.0
O192 O 0.245 0.18656 0.79138 0.0
O193 O 0.29516 0.27592 0.78453 0.0
C194 C 0.30977 0.23291 0.83652 0.0
O195 O 0.30987 0.14308 0.78635 0.0
O196 O 0.31877 0.20672 0.7669 0.0
C197 C 0.4658 0.29652 0.7823 0.0
Fe198 Fe 0.10793 0.33366 0.97005 0.0
Fe199 Fe 0.07372 0.39455 0.94318 0.0
O200 O 0.1001 0.3917 0.96454 0.0
Fe201 Fe 0.11775 0.44621 0.98035 0.0
O202 O 0.18959 0.46142 0.98206 0.0
O203 O 0.16857 0.37385 0.98522 0.0
O204 O 0.15804 0.34972 0.95193 0.0
C205 C 0.14561 0.35101 0.9357 0.0
C206 C 0.06232 0.3465 0.00103 0.0
O207 O 0.10432 0.35727 0.93161 0.0
C208 C 0.02194 0.4363 0.96612 0.0
O209 O 0.04826 0.28269 0.95592 0.0
O210 O 0.00812 0.33015 0.94736 0.0
O211 O 0.0948 0.39942 0.99997 0.0
O212 O 0.05841 0.31418 0.98835 0.0
C213 C 0.15833 0.5031 0.94712 0.0
O214 O 0.03886 0.43308 0.95064 0.0
O215 O 0.04697 0.43438 0.97993 0.0
C216 C 0.0057 0.28387 0.94983 0.0
O217 O 0.13757 0.45861 0.93789 0.0
O218 O 0.14379 0.50256 0.96336 0.0
C219 C 0.20313 0.42622 0.9868 0.0
Fe220 Fe 0.77606 0.10845 0.13788 0.0
Fe221 Fe 0.6867 0.0987 0.11104 0.0
O222 O 0.71598 0.11369 0.13287 0.0
Fe223 Fe 0.68477 0.13504 0.14964 0.0
O224 O 0.74961 0.17801 0.16248 0.0
O225 O 0.81582 0.18137 0.14525 0.0
O226 O 0.80924 0.13337 0.11574 0.0
C227 C 0.79998 0.15966 0.10356 0.0
C228 C 0.7034 0.06058 0.16793 0.0
O229 O 0.75189 0.15444 0.1016 0.0
C230 C 0.59072 0.05127 0.13069 0.0
O231 O 0.74148 0.03528 0.13066 0.0
O232 O 0.70627 0.04666 0.10569 0.0
O233 O 0.6676 0.07369 0.16292 0.0
O234 O 0.75211 0.08253 0.16079 0.0
C235 C 0.68578 0.19515 0.12079 0.0
O236 O 0.61947 0.04199 0.11942 0.0
O237 O 0.61341 0.09557 0.14019 0.0
C238 C 0.72059 0.01838 0.11522 0.0
O239 O 0.66288 0.14906 0.1123 0.0
O240 O 0.70125 0.19784 0.13692 0.0
C241 C 0.80041 0.2024 0.15747 0.0
Fe242 Fe 0.57203 0.68005 0.27744 0.0
Fe243 Fe 0.5346 0.68194 0.31587 0.0
O244 O 0.58681 0.7121 0.29891 0.0
Fe245 Fe 0.65243 0.77388 0.30338 0.0
O246 O 0.65904 0.80324 0.28085 0.0
O247 O 0.57986 0.7427 0.26699 0.0
O248 O 0.49631 0.65384 0.27843 0.0
C249 C 0.46992 0.67295 0.28702 0.0
C250 C 0.68766 0.71646 0.28219 0.0
O251 O 0.48569 0.69347 0.30261 0.0
C252 C 0.63041 0.7063 0.33435 0.0
O253 O 0.56344 0.61547 0.28673 0.0
O254 O 0.50396 0.60994 0.30745 0.0
O255 O 0.69276 0.74094 0.297 0.0
O256 O 0.64471 0.70066 0.27238 0.0
C257 C 0.58122 0.79752 0.32213 0.0
O258 O 0.58081 0.66921 0.32978 0.0
O259 O 0.65638 0.7538 0.32663 0.0
C260 C 0.52638 0.58764 0.29836 0.0
O261 O 0.55548 0.74768 0.32774 0.0
O262 O 0.61764 0.81233 0.30991 0.0
C263 C 0.62284 0.79134 0.26847 0.0
H264 H 0.23572 0.91345 0.22701 0.0
H265 H 0.20882 0.98693 0.32913 0.0
H266 H 0.10073 0.80216 0.26244 0.0
H267 H 0.36455 0.07719 0.29926 0.0
H268 H 0.16441 0.92587 0.30323 0.0
H269 H 0.27979 0.98027 0.25198 0.0
C270 C 0.21528 0.90315 0.24 0.0
C271 C 0.16448 0.85215 0.24265 0.0
C272 C 0.20825 0.95912 0.3023 0.0
C273 C 0.21442 0.92833 0.27113 0.0
C274 C 0.23365 -0.00574 0.31708 0.0
C275 C 0.29064 0.03726 0.3164 0.0
C276 C 0.23983 0.96699 0.28666 0.0
C277 C 0.32057 0.04452 0.30039 0.0
C278 C 0.24053 0.9412 0.25423 0.0
C279 C 0.13998 0.84083 0.25978 0.0
N280 N 0.29479 0.00961 0.28612 0.0
N281 N 0.1651 0.87869 0.27334 0.0
H282 H 0.29444 0.37678 0.46949 0.0
H283 H 0.31991 0.1157 0.43476 0.0
H284 H 0.23294 0.22249 0.49911 0.0
H285 H 0.33556 0.24658 0.39955 0.0
H286 H 0.29832 0.16006 0.45957 0.0
H287 H 0.31868 0.33463 0.44453 0.0
C288 C 0.28575 0.33401 0.47072 0.0
C289 C 0.26131 0.30304 0.48638 0.0
C290 C 0.30654 0.17909 0.44641 0.0
C291 C 0.2897 0.25499 0.45803 0.0
C292 C 0.31918 0.15396 0.43226 0.0
C293 C 0.32928 0.17728 0.41502 0.0
C294 C 0.30453 0.22824 0.44337 0.0
C295 C 0.32766 0.22692 0.41259 0.0
C296 C 0.29963 0.31002 0.45648 0.0
C297 C 0.25128 0.24785 0.48725 0.0
N298 N 0.31554 0.25077 0.42661 0.0
N299 N 0.26575 0.22574 0.47332 0.0
H300 H 0.00944 0.38123 0.66048 0.0
H301 H 0.05803 0.27851 0.56603 0.0
H302 H 0.90126 0.21072 0.64164 0.0
H303 H 0.19847 0.39063 0.60006 0.0
H304 H -0.00708 0.26569 0.59059 0.0
H305 H 0.07304 0.39786 0.63506 0.0
C306 C -0.00106 0.34752 0.65091 0.0
C307 C 0.95031 0.29449 0.65312 0.0
C308 C 0.03801 0.2932 0.59259 0.0
C309 C 0.02187 0.31348 0.6241 0.0
C310 C 0.07504 0.30074 0.57862 0.0
C311 C 0.13357 0.33541 0.58114 0.0
C312 C 0.05973 0.32166 0.60894 0.0
C313 C 0.15357 0.36314 0.5977 0.0
C314 C 0.03524 0.35695 0.63653 0.0
C315 C 0.93862 0.25206 0.64045 0.0
N316 N 0.11662 0.35596 0.61098 0.0
N317 N 0.97401 0.26258 0.62636 0.0
H318 H 0.75025 0.07047 0.72707 0.0
H319 H 0.73237 0.00492 0.82995 0.0
H320 H 0.79272 0.19859 0.7676 0.0
H321 H 0.60048 0.8847 0.79479 0.0
H322 H 0.76743 0.07315 0.8057 0.0
H323 H 0.70467 -0.00195 0.7503 0.0
C324 C 0.7496 0.08328 0.74081 0.0
C325 C 0.77553 0.14056 0.74547 0.0
C326 C 0.73088 0.0318 0.80329 0.0
C327 C 0.72482 0.05852 0.7719 0.0
C328 C 0.71115 -0.0074 0.81704 0.0
C329 C 0.66359 0.93892 0.81433 0.0
C330 C 0.70371 0.01705 0.78654 0.0
C331 C 0.63731 0.92565 0.79738 0.0
C332 C 0.72349 0.04205 0.75397 0.0
C333 C 0.77324 0.15497 0.76342 0.0
N334 N 0.6581 0.96443 0.78399 0.0
N335 N 0.74915 0.11423 0.77604 0.0
H336 H 0.67616 0.87082 0.92931 0.0
H337 H 0.61295 0.58312 0.97264 0.0
H338 H 0.61325 0.71934 0.89735 0.0
H339 H 0.74768 0.74443 0.99153 0.0
H340 H 0.59886 0.63011 0.94697 0.0
H341 H 0.68903 0.82236 0.9546 0.0
C342 C 0.66494 0.8273 0.92765 0.0
C343 C 0.64381 0.79895 0.91125 0.0
C344 C 0.63153 0.65496 0.95676 0.0
C345 C 0.6578 0.74342 0.94009 0.0
C346 C 0.63939 0.62836 0.9714 0.0
C347 C 0.68168 0.66004 0.98413 0.0
C348 C 0.66537 0.71357 0.95514 0.0
C349 C 0.71493 0.71846 0.98191 0.0
C350 C 0.67252 0.79985 0.94203 0.0
C351 C 0.6301 0.74268 0.90977 0.0
N352 N 0.70579 0.74346 0.96774 0.0
N353 N 0.63695 0.71647 0.9241 0.0
H354 H 0.95547 0.69602 0.16296 0.0
H355 H 0.90161 0.68481 0.0598 0.0
H356 H 0.08686 0.71506 0.12679 0.0
H357 H 0.77035 0.57624 0.09677 0.0
H358 H 0.9725 0.70487 0.08324 0.0
H359 H 0.88846 0.66209 0.13806 0.0
C360 C 0.97022 0.69327 0.1497 0.0
C361 C 0.02676 0.70878 0.14682 0.0
C362 C 0.92819 0.67606 0.08603 0.0
C363 C 0.95031 0.67014 0.1183 0.0
C364 C 0.88776 0.66484 0.07276 0.0
C365 C 0.82995 0.62948 0.07645 0.0
C366 C 0.91035 0.65264 0.10312 0.0
C367 C 0.81435 0.60415 0.09337 0.0
C368 C 0.93186 0.6734 0.13556 0.0
C369 C 0.04353 0.70357 0.12946 0.0
N370 N 0.85428 0.61702 0.10618 0.0
N371 N 0.00546 0.68537 0.11568 0.0
H372 H 0.18902 0.84306 0.5651 0.0
H373 H 0.89668 0.58068 0.53208 0.0
H374 H 0.07441 0.71441 0.60163 0.0
H375 H -0.01306 0.73802 0.50359 0.0
H376 H 0.96518 0.6228 0.5568 0.0
H377 H 0.12001 0.79736 0.54104 0.0
C378 C 0.14949 0.80497 0.56805 0.0
C379 C 0.13728 0.78277 0.58544 0.0
C380 C 0.96955 0.648 0.54515 0.0
C381 C 0.058 0.73035 0.55793 0.0
C382 C 0.93053 0.6241 0.53108 0.0
C383 C 0.93598 0.65594 0.51578 0.0
C384 C 0.0146 0.70369 0.54372 0.0
C385 C 0.98079 0.71193 0.51515 0.0
C386 C 0.10996 0.7791 0.55432 0.0
C387 C 0.08533 0.73319 0.58844 0.0
N388 N 0.01852 0.73384 0.52885 0.0
N389 N 0.04746 0.70858 0.57479 0.0
H390 H 0.21696 0.98158 0.66906 0.0
H391 H 0.31222 0.0592 0.77153 0.0
H392 H 0.28456 0.8965 0.69969 0.0
H393 H 0.28956 0.16756 0.73519 0.0
H394 H 0.29369 -0.0065 0.74659 0.0
H395 H 0.23367 0.04375 0.69454 0.0
C396 C 0.23498 0.97563 0.6812 0.0
C397 C 0.24929 0.93357 0.68222 0.0
C398 C 0.29289 0.03172 0.74412 0.0
C399 C 0.26884 0.00523 0.71153 0.0
C400 C 0.30328 0.06915 0.75833 0.0
C401 C 0.30234 0.11894 0.75545 0.0
C402 C 0.28085 0.04391 0.72698 0.0
C403 C 0.29084 0.1298 0.73806 0.0
C404 C 0.2448 0.01146 0.69573 0.0
C405 C 0.27286 0.92831 0.69831 0.0
N406 N 0.2803 0.0925 0.72452 0.0
N407 N 0.28185 0.96373 0.71238 0.0
H408 H 0.11129 0.32449 0.90091 0.0
H409 H 0.36412 0.28414 0.86817 0.0
H410 H 0.24058 0.34132 0.9378 0.0
H411 H 0.20253 0.21253 0.84114 0.0
H412 H 0.32567 0.31315 0.89307 0.0
H413 H 0.15168 0.29358 0.87767 0.0
C414 C 0.14844 0.32199 0.90413 0.0
C415 C 0.17247 0.33536 0.92139 0.0
C416 C 0.29871 0.29062 0.88173 0.0
C417 C 0.21893 0.29965 0.89469 0.0
C418 C 0.32051 0.27402 0.86754 0.0
C419 C 0.28652 0.24592 0.85253 0.0
C420 C 0.24295 0.2797 0.8807 0.0
C421 C 0.23038 0.23402 0.85241 0.0
C422 C 0.17126 0.30393 0.89085 0.0
C423 C 0.22059 0.33117 0.92469 0.0
N424 N 0.21059 0.25139 0.86619 0.0
N425 N 0.24245 0.31376 0.91142 0.0
H426 H 0.81489 0.25009 0.08441 0.0
H427 H 0.02614 0.24189 0.01456 0.0
H428 H 0.88475 0.14256 0.0921 0.0
H429 H 0.02398 0.39483 0.02497 0.0
H430 H 0.9672 0.19974 0.04113 0.0
H431 H 0.8843 0.29947 0.06067 0.0
C432 C 0.84497 0.23704 0.08112 0.0
C433 C 0.84401 0.19207 0.09013 0.0
C434 C 0.98012 0.24269 0.03767 0.0
C435 C 0.92277 0.24776 0.06296 0.0
C436 C 0.01345 0.26664 0.0225 0.0
C437 C 0.02986 0.32188 0.0176 0.0
C438 C 0.96197 0.27373 0.04773 0.0
C439 C 0.01246 0.35221 0.02837 0.0
C440 C 0.88468 0.26539 0.06768 0.0
C441 C 0.88423 0.17713 0.08549 0.0
N442 N 0.97874 0.32745 0.04283 0.0
N443 N 0.92156 0.20444 0.07202 0.0
H444 H 0.72241 0.88828 0.2616 0.0
H445 H 0.59922 0.98734 0.18196 0.0
H446 H 0.54895 0.79038 0.24352 0.0
H447 H 0.77711 0.04659 0.18882 0.0
H448 H 0.57833 0.92306 0.20715 0.0
H449 H 0.74131 0.95554 0.23765 0.0
C450 C 0.6882 0.88106 0.25265 0.0
C451 C 0.63408 0.83345 0.25449 0.0
C452 C 0.62188 0.95023 0.20312 0.0
C453 C 0.65549 0.9104 0.2271 0.0
C454 C 0.63387 0.98704 0.18881 0.0
C455 C 0.69 0.02231 0.18328 0.0
C456 C 0.6664 0.94931 0.21207 0.0
C457 C 0.73322 0.01996 0.19257 0.0
C458 C 0.69912 0.91935 0.23894 0.0
C459 C 0.59141 0.82628 0.24249 0.0
N460 N 0.72052 0.98421 0.20655 0.0
N461 N 0.60301 0.86443 0.2293 0.0
H462 H 0.70979 0.60171 0.4342 0.0
H463 H 0.74329 0.75731 0.34169 0.0
H464 H 0.85862 0.66355 0.4011 0.0
H465 H 0.58003 0.62939 0.36125 0.0
H466 H 0.78847 0.73562 0.36616 0.0
H467 H 0.66306 0.62297 0.40998 0.0
C468 C 0.73254 0.6197 0.42184 0.0
C469 C 0.78804 0.63081 0.4196 0.0
C470 C 0.74276 0.7124 0.36507 0.0
C471 C 0.73541 0.65585 0.39214 0.0
C472 C 0.71696 0.72497 0.35121 0.0
C473 C 0.65787 0.69508 0.34947 0.0
C474 C 0.70918 0.67036 0.37743 0.0
C475 C 0.62576 0.65327 0.36209 0.0
C476 C 0.70587 0.63162 0.40806 0.0
C477 C 0.81564 0.65399 0.40333 0.0
N478 N 0.65185 0.64232 0.37564 0.0
N479 N 0.78919 0.6662 0.39026 0.0
H480 H 0.53146 0.79072 0.35446 0.0
H481 H 0.45076 0.01712 0.328 0.0
H482 H 0.59693 0.89481 0.30739 0.0
H483 H 0.44723 0.96963 0.38341 0.0
H484 H 0.49629 0.96461 0.31983 0.0
H485 H 0.49531 0.85035 0.36527 0.0
C486 C 0.5388 0.82655 0.34651 0.0
C487 C 0.56679 0.83772 0.32993 0.0
C488 C 0.48578 0.96578 0.33379 0.0
C489 C 0.52491 0.90513 0.34209 0.0
C490 C 0.45923 -0.00462 0.3385 0.0
C491 C 0.44519 -0.00203 0.3565 0.0
C492 C 0.4978 0.93767 0.34706 0.0
C493 C 0.45735 0.96876 0.36941 0.0
C494 C 0.51826 0.86049 0.35272 0.0
C495 C 0.57556 0.88477 0.32023 0.0
N496 N 0.48285 0.93946 0.36442 0.0
N497 N 0.55391 0.91635 0.32635 0.0
H498 H 0.47907 0.4948 0.55199 0.0
H499 H 0.66765 0.44031 0.48229 0.0
H500 H 0.4103 0.36519 0.51114 0.0
H501 H 0.72353 0.60253 0.50691 0.0
H502 H 0.57789 0.40243 0.49815 0.0
H503 H 0.57496 0.52387 0.54131 0.0
C504 C 0.48444 0.47157 0.54114 0.0
C505 C 0.43741 0.42788 0.53231 0.0
C506 C 0.6099 0.44627 0.5001 0.0
C507 C 0.54537 0.46066 0.52008 0.0
C508 C 0.66098 0.46796 0.49103 0.0
C509 C 0.70276 0.52475 0.49318 0.0
C510 C 0.60076 0.48147 0.51152 0.0
C511 C 0.69205 0.55867 0.50471 0.0
C512 C 0.53878 0.48845 0.53494 0.0
C513 C 0.44591 0.39932 0.51817 0.0
N514 N 0.64193 0.53644 0.51351 0.0
N515 N 0.49896 0.41641 0.51241 0.0
H516 H 0.21259 0.67781 0.66009 0.0
H517 H 0.92273 0.48509 0.7107 0.0
H518 H 0.08298 0.72059 0.6682 0.0
H519 H 0.04901 0.43818 0.70302 0.0
H520 H -0.0105 0.57949 0.70015 0.0
H521 H 0.15987 0.59579 0.6792 0.0
C522 C 0.17295 0.66988 0.66584 0.0
C523 C 0.15184 0.70583 0.66242 0.0
C524 C 0.00324 0.5491 0.70108 0.0
C525 C 0.09193 0.61263 0.68447 0.0
C526 C 0.96533 0.4955 0.70724 0.0
C527 C 0.98079 0.45442 0.70755 0.0
C528 C 0.05636 0.56097 0.69478 0.0
C529 C 0.03603 0.46926 0.70297 0.0
C530 C 0.14318 0.62332 0.67686 0.0
C531 C 0.10058 0.69376 0.67032 0.0
N532 N 0.07176 0.52134 0.69636 0.0
N533 N 0.07231 0.64805 0.68093 0.0
H534 H 0.32863 0.05499 0.8218 0.0
H535 H 0.56552 0.03601 0.87786 0.0
H536 H 0.48396 0.20329 0.83847 0.0
H537 H 0.46378 0.91634 0.83658 0.0
H538 H 0.52117 0.0919 0.87046 0.0
H539 H 0.36333 -0.00354 0.83462 0.0
C540 C 0.36973 0.07508 0.82829 0.0
C541 C 0.40396 0.13375 0.82888 0.0
C542 C 0.50861 0.05315 0.86317 0.0
C543 C 0.44306 0.06778 0.84367 0.0
C544 C 0.53373 0.02155 0.86736 0.0
C545 C 0.51876 0.97243 0.85756 0.0
C546 C 0.46754 0.03418 0.84952 0.0
C547 C 0.47716 0.95475 0.84417 0.0
C548 C 0.38941 0.04187 0.83555 0.0
C549 C 0.4568 0.15803 0.83748 0.0
N550 N 0.45284 0.98561 0.84055 0.0
N551 N 0.47491 0.12483 0.84456 0.0
H552 H 0.28657 0.53533 0.99325 0.0
H553 H 0.48667 0.4449 0.04131 0.0
H554 H 0.24126 0.36327 0.00316 0.0
H555 H 0.5361 0.61797 0.03212 0.0
H556 H 0.39077 0.41575 0.0317 0.0
H557 H 0.37357 0.56763 0.01046 0.0
C558 C 0.29489 0.50431 0.99903 0.0
C559 C 0.25674 0.44642 0.99663 0.0
C560 C 0.4221 0.46023 0.03205 0.0
C561 C 0.35588 0.48323 0.01649 0.0
C562 C 0.47664 0.47682 0.03766 0.0
C563 C 0.51879 0.53373 0.0374 0.0
C564 C 0.41007 0.50084 0.02574 0.0
C565 C 0.50427 0.57368 0.03256 0.0
C566 C 0.34441 0.52284 0.00895 0.0
C567 C 0.26959 0.40824 0.00451 0.0
N568 N 0.45104 0.55636 0.02656 0.0
N569 N 0.31816 0.42737 0.01403 0.0
H570 H 0.95293 0.51773 0.21684 0.0
H571 H 0.9093 0.27609 0.14725 0.0
H572 H 0.04537 0.54518 0.16736 0.0
H573 H 0.78418 0.25229 0.18689 0.0
H574 H 0.97113 0.37093 0.15907 0.0
H575 H 0.90027 0.41606 0.21002 0.0
C576 C 0.96221 0.50241 0.20464 0.0
C577 C 0.00287 0.53991 0.19254 0.0
C578 C 0.9303 0.34471 0.16527 0.0
C579 C 0.94424 0.42476 0.18489 0.0
C580 C 0.89513 0.29051 0.15858 0.0
C581 C 0.84123 0.25661 0.16591 0.0
C582 C 0.91142 0.36505 0.17939 0.0
C583 C 0.82516 0.27739 0.18066 0.0
C584 C 0.93236 0.44465 0.20077 0.0
C585 C 0.0137 0.518 0.17696 0.0
N586 N 0.85993 0.33057 0.18683 0.0
N587 N -0.01542 0.46202 0.1736 0.0
H588 H 0.02726 0.59624 0.49224 0.0
H589 H 0.09692 0.35224 0.49427 0.0
H590 H 0.96558 0.46783 0.45104 0.0
H591 H 0.20527 0.51514 0.51871 0.0
H592 H 0.04434 0.39056 0.47924 0.0
H593 H 0.09157 0.56571 0.50268 0.0
C594 C 0.02835 0.56231 0.48518 0.0
C595 C -0.00836 0.53446 0.47079 0.0
C596 C 0.07992 0.41782 0.4878 0.0
C597 C 0.06328 0.49813 0.48293 0.0
C598 C 0.10945 0.3959 0.49652 0.0
C599 C 0.15526 0.43056 0.5078 0.0
C600 C 0.09594 0.47437 0.49067 0.0
C601 C 0.1702 0.48695 0.51012 0.0
C602 C 0.06479 0.54479 0.49114 0.0
C603 C -0.00609 0.4905 0.4621 0.0
N604 N 0.14035 0.50698 0.50173 0.0
N605 N 0.02859 0.47284 0.46853 0.0
H606 H 0.41392 -0.00358 0.66768 0.0
H607 H 0.73245 0.21133 0.64596 0.0
H608 H 0.4724 -0.00159 0.61363 0.0
H609 H 0.67761 0.10796 0.69342 0.0
H610 H 0.63646 0.1541 0.63333 0.0
H611 H 0.51033 0.06314 0.67683 0.0
C612 C 0.44703 0.01127 0.65767 0.0
C613 C 0.43553 -0.00929 0.63996 0.0
C614 C 0.64601 0.14415 0.64644 0.0
C615 C 0.54557 0.06731 0.65042 0.0
C616 C 0.70028 0.17655 0.65365 0.0
C617 C 0.71251 0.16405 0.67073 0.0
C618 C 0.6041 0.10054 0.65669 0.0
C619 C 0.66984 0.11867 0.68018 0.0
C620 C 0.5019 0.04924 0.66294 0.0
C621 C 0.47984 0.01274 0.62746 0.0
N622 N 0.61721 0.0889 0.6731 0.0
N623 N 0.53359 0.04979 0.63299 0.0
H624 H 0.46705 0.66773 0.85684 0.0
H625 H 0.47917 0.45915 0.78469 0.0
H626 H 0.61167 0.72018 0.8224 0.0
H627 H 0.37131 0.40576 0.8313 0.0
H628 H 0.52043 0.55765 0.79479 0.0
H629 H 0.42474 0.57317 0.8445 0.0
C630 C 0.49009 0.65908 0.84672 0.0
C631 C 0.54292 0.70161 0.84062 0.0
C632 C 0.48736 0.52423 0.80265 0.0
C633 C 0.49434 0.59339 0.82626 0.0
C634 C 0.46341 0.46839 0.7968 0.0
C635 C 0.42196 0.42479 0.80724 0.0
C636 C 0.46884 0.53584 0.81884 0.0
C637 C 0.40336 0.43839 0.82294 0.0
C638 C 0.46586 0.60512 0.83966 0.0
C639 C 0.57104 0.68821 0.82753 0.0
N640 N 0.42701 0.4927 0.82828 0.0
N641 N 0.54613 0.63501 0.82064 0.0
H642 H 0.73743 0.46417 1.00003 0.0
H643 H 0.02144 0.52691 0.95226 0.0
H644 H 0.88425 0.63147 0.00055 0.0
H645 H 0.9271 0.38208 0.98598 0.0
H646 H 0.95723 0.56081 0.96107 0.0
H647 H 0.79412 0.42869 0.98608 0.0
C648 C 0.78149 0.49346 0.99702 0.0
C649 C 0.80655 0.5507 0.00148 0.0
C650 C 0.95026 0.52116 0.96623 0.0
C651 C 0.8706 0.51069 0.98529 0.0
C652 C -0.01378 0.50167 0.96111 0.0
C653 C 0.97879 0.45173 0.96841 0.0
C654 C 0.90627 0.48953 0.9783 0.0
C655 C 0.93361 0.42071 0.98008 0.0
C656 C 0.81358 0.4732 0.98912 0.0
C657 C 0.86375 0.58696 0.99743 0.0
N658 N 0.89872 0.44006 0.98466 0.0
N659 N 0.89406 0.56633 0.98944 0.0
H660 H 0.51266 0.08141 0.13704 0.0
H661 H 0.28604 0.77715 0.16948 0.0
H662 H 0.53016 0.93629 0.12834 0.0
H663 H 0.24982 0.91191 0.16554 0.0
H664 H 0.3741 0.83428 0.15353 0.0
H665 H 0.41436 0.01958 0.14567 0.0
C666 C 0.49531 0.03627 0.13667 0.0
C667 C 0.52939 0.01365 0.1322 0.0
C668 C 0.34679 0.85129 0.15602 0.0
C669 C 0.41752 0.9429 0.14239 0.0
C670 C 0.2966 0.81891 0.16529 0.0
C671 C 0.26063 0.84004 0.16902 0.0
C672 C 0.36176 0.90562 0.1506 0.0
C673 C 0.27646 0.89415 0.16306 0.0
C674 C 0.43924 0.00106 0.14159 0.0
C675 C 0.50505 0.95515 0.13174 0.0
N676 N 0.32623 0.92536 0.15426 0.0
N677 N 0.45063 0.92164 0.13713 0.0
H678 H 0.58403 0.53127 0.29485 0.0
H679 H 0.3308 0.25233 0.33834 0.0
H680 H 0.42038 0.50833 0.30782 0.0
H681 H 0.50439 0.29097 0.3372 0.0
H682 H 0.35908 0.33921 0.32212 0.0
H683 H 0.55053 0.43448 0.30461 0.0
C684 C 0.5408 0.50541 0.29939 0.0
C685 C 0.50506 0.52759 0.30083 0.0
C686 C 0.39089 0.32851 0.3254 0.0
C687 C 0.46689 0.41824 0.31204 0.0
C688 C 0.37483 0.27911 0.33472 0.0
C689 C 0.41535 0.26466 0.33925 0.0
C690 C 0.44779 0.36353 0.32056 0.0
C691 C 0.47178 0.30071 0.33411 0.0
C692 C 0.52186 0.45057 0.30508 0.0
C693 C 0.44948 0.49283 0.30682 0.0
N694 N 0.48637 0.34862 0.32505 0.0
N695 N 0.4322 0.43994 0.31235 0.0
H696 H 0.96091 0.79153 0.44108 0.0
H697 H 0.25985 0.91095 0.3928 0.0
H698 H 0.06223 0.71259 0.44282 0.0
H699 H 0.16746 -0.00066 0.39339 0.0
H700 H 0.18544 0.83656 0.41054 0.0
H701 H 0.03624 0.8695 0.42423 0.0
C702 C -0.00064 0.79108 0.43819 0.0
C703 C 0.00519 0.74532 0.44315 0.0
C704 C 0.18125 0.8721 0.40676 0.0
C705 C 0.09059 0.8334 0.42371 0.0
C706 C 0.22358 0.91444 0.39652 0.0
C707 C 0.22002 0.96159 0.39174 0.0
C708 C 0.13493 0.87684 0.41227 0.0
C709 C 0.17189 0.9637 0.39682 0.0
C710 C 0.04205 0.83528 0.42845 0.0
C711 C 0.05573 0.74673 0.43905 0.0
N712 N 0.13124 0.92198 0.40694 0.0
N713 N 0.09627 0.78983 0.42943 0.0
H714 H 0.14753 0.16837 0.56086 0.0
H715 H 0.33171 0.05699 0.6089 0.0
H716 H 0.33019 0.25574 0.56155 0.0
H717 H 0.14956 0.9573 0.6049 0.0
H718 H 0.33001 0.13212 0.5927 0.0
H719 H 0.14552 0.09018 0.57696 0.0
C720 C 0.18711 0.17073 0.56416 0.0
C721 C 0.23912 0.21875 0.56005 0.0
C722 C 0.29028 0.09395 0.59538 0.0
C723 C 0.23711 0.13043 0.57859 0.0
C724 C 0.29123 0.05113 0.60472 0.0
C725 C 0.24074 0.00072 0.60809 0.0
C726 C 0.23846 0.08642 0.58932 0.0
C727 C 0.18946 -0.0044 0.60254 0.0
C728 C 0.18593 0.12638 0.57345 0.0
C729 C 0.28914 0.21981 0.56465 0.0
N730 N 0.18962 0.03793 0.59327 0.0
N731 N 0.28685 0.17649 0.57378 0.0
H732 H 0.15505 0.14377 0.77099 0.0
H733 H 0.03402 0.33745 0.73906 0.0
H734 H 0.23067 0.31999 0.78454 0.0
H735 H 0.97765 0.17306 0.71632 0.0
H736 H 0.10482 0.33024 0.75656 0.0
H737 H 0.08408 0.15014 0.75284 0.0
C738 C 0.15585 0.1834 0.77047 0.0
C739 C 0.1986 0.23154 0.77917 0.0
C740 C 0.0776 0.29593 0.7476 0.0
C741 C 0.11909 0.23935 0.75827 0.0
C742 C 0.0376 0.30028 0.73753 0.0
C743 C 0.00052 0.25582 0.72631 0.0
C744 C 0.07989 0.24635 0.74661 0.0
C745 C 0.00619 0.20836 0.72475 0.0
C746 C 0.116 0.1872 0.75991 0.0
C747 C 0.19843 0.28203 0.77792 0.0
N748 N 0.04492 0.20447 0.73504 0.0
N749 N 0.15943 0.28469 0.76756 0.0
H750 H 0.71753 0.06925 0.88408 0.0
H751 H -0.00107 0.18275 0.94292 0.0
H752 H 0.80088 0.97392 0.89198 0.0
H753 H 0.90701 0.27038 0.93649 0.0
H754 H 0.92822 0.10593 0.92418 0.0
H755 H 0.79094 0.14584 0.90188 0.0
C756 C 0.75182 0.0648 0.88937 0.0
C757 C 0.75293 0.01504 0.88668 0.0
C758 C 0.92345 0.14187 0.92698 0.0
C759 C 0.83667 0.1022 0.90738 0.0
C760 C 0.96347 0.18548 0.93781 0.0
C761 C 0.95904 0.23323 0.94119 0.0
C762 C 0.87884 0.14617 0.91951 0.0
C763 C 0.91238 0.2346 0.93414 0.0
C764 C 0.79354 0.1084 0.89965 0.0
C765 C 0.79851 0.01165 0.89372 0.0
N766 N 0.87435 0.19191 0.92356 0.0
N767 N 0.8384 0.05453 0.90394 0.0
H768 H 0.75674 0.95008 0.12935 0.0
H769 H 0.72104 0.7886 0.03606 0.0
H770 H 0.68798 0.97916 0.0811 0.0
H771 H 0.74648 0.73171 0.08719 0.0
H772 H 0.72335 0.8688 0.05151 0.0
H773 H 0.76501 0.87688 0.11328 0.0
C774 C 0.74305 0.94085 0.11547 0.0
C775 C 0.72158 0.9707 0.10659 0.0
C776 C 0.72871 0.83877 0.05927 0.0
C777 C 0.73178 0.88812 0.08812 0.0
C778 C 0.72777 0.79346 0.05045 0.0
C779 C 0.7327 0.75338 0.06043 0.0
C780 C 0.73527 0.84385 0.07807 0.0
C781 C 0.74144 0.76129 0.07906 0.0
C782 C 0.74804 0.89937 0.10628 0.0
C783 C 0.70475 0.95724 0.08853 0.0
N784 N 0.74222 0.8055 0.08729 0.0
N785 N 0.71041 0.91709 0.07988 0.0
H786 H 0.80067 0.79318 0.28599 0.0
H787 H 0.89359 0.63958 0.21433 0.0
H788 H 0.68267 0.63661 0.2598 0.0
H789 H -0.00498 0.8169 0.22674 0.0
H790 H 0.81812 0.634 0.23321 0.0
H791 H 0.87704 0.79739 0.26762 0.0
C792 C 0.79121 0.75914 0.27668 0.0
C793 C 0.7356 0.71456 0.2743 0.0
C794 C 0.85666 0.67426 0.23164 0.0
C795 C 0.8217 0.7195 0.25321 0.0
C796 C 0.89946 0.67751 0.22079 0.0
C797 C 0.95033 0.72877 0.21896 0.0
C798 C 0.86522 0.72244 0.24093 0.0
C799 C 0.95613 0.77668 0.22767 0.0
C800 C 0.83445 0.76193 0.26605 0.0
C801 C 0.72513 0.67182 0.26192 0.0
N802 N 0.91423 0.77223 0.23849 0.0
N803 N 0.76779 0.67541 0.25178 0.0
H804 H 0.73886 0.37071 0.46106 0.0
H805 H 0.58831 0.24019 0.36688 0.0
H806 H 0.8007 0.45224 0.40995 0.0
H807 H 0.51593 0.17084 0.41858 0.0
H808 H 0.67681 0.30762 0.38198 0.0
H809 H 0.66752 0.28622 0.44517 0.0
C810 C 0.73801 0.3705 0.44652 0.0
C811 C 0.77488 0.41878 0.43682 0.0
C812 C 0.64167 0.27714 0.38997 0.0
C813 C 0.69361 0.32293 0.41861 0.0
C814 C 0.59129 0.23871 0.38135 0.0
C815 C 0.54448 0.20076 0.39152 0.0
C816 C 0.64499 0.27726 0.40882 0.0
C817 C 0.55064 0.20024 0.41023 0.0
C818 C 0.69725 0.32242 0.43745 0.0
C819 C 0.77224 0.41625 0.41798 0.0
N820 N 0.59975 0.2383 0.41829 0.0
N821 N 0.73182 0.36935 0.40949 0.0
H822 H 0.34028 0.80314 0.57954 0.0
H823 H 0.33135 0.51349 0.59081 0.0
H824 H 0.3386 0.73117 0.63099 0.0
H825 H 0.34484 0.59098 0.53945 0.0
H826 H 0.34756 0.59901 0.6058 0.0
H827 H 0.35576 0.73304 0.56489 0.0
C828 C 0.34377 0.77284 0.58779 0.0
C829 C 0.3372 0.77233 0.60651 0.0
C830 C 0.34771 0.59775 0.59126 0.0
C831 C 0.35452 0.69157 0.58974 0.0
C832 C 0.33828 0.54881 0.58266 0.0
C833 C 0.33584 0.54485 0.56383 0.0
C834 C 0.35409 0.64299 0.58099 0.0
C835 C 0.34604 0.59219 0.55399 0.0
C836 C 0.35276 0.7329 0.57939 0.0
C837 C 0.34307 0.73279 0.61653 0.0
N838 N 0.35388 0.63912 0.56271 0.0
N839 N 0.35052 0.69334 0.60798 0.0
H840 H 0.57213 0.33487 0.79634 0.0
H841 H 0.69062 0.29772 0.70261 0.0
H842 H 0.47921 0.29258 0.74628 0.0
H843 H 0.79072 0.35572 0.75125 0.0
H844 H 0.61514 0.30355 0.71798 0.0
H845 H 0.65601 0.3509 0.77968 0.0
C846 C 0.56953 0.3295 0.78188 0.0
C847 C 0.5185 0.31156 0.77274 0.0
C848 C 0.6539 0.31551 0.72523 0.0
C849 C 0.61357 0.32952 0.75368 0.0
C850 C 0.69692 0.31215 0.71644 0.0
C851 C 0.74668 0.32563 0.7257 0.0
C852 C 0.66069 0.33202 0.7434 0.0
C853 C 0.75278 0.34435 0.74361 0.0
C854 C 0.61729 0.33862 0.77238 0.0
C855 C 0.51742 0.3055 0.75396 0.0
N856 N 0.71003 0.34647 0.75193 0.0
N857 N 0.56408 0.31398 0.7451 0.0
H858 H 0.38024 0.73767 0.86836 0.0
H859 H 0.23862 0.60222 0.96284 0.0
H860 H 0.46488 0.79717 0.91955 0.0
H861 H 0.1703 0.52454 0.91131 0.0
H862 H 0.31324 0.68496 0.94732 0.0
H863 H 0.29437 0.66975 0.88416 0.0
C864 C 0.38062 0.73685 0.8829 0.0
C865 C 0.42997 0.77261 0.89263 0.0
C866 C 0.28145 0.64997 0.93945 0.0
C867 C 0.33215 0.69525 0.91075 0.0
C868 C 0.23881 0.60299 0.9483 0.0
C869 C 0.19884 0.55629 0.93834 0.0
C870 C 0.28362 0.65012 0.92057 0.0
C871 C 0.20091 0.55933 0.91951 0.0
C872 C 0.33167 0.69807 0.89191 0.0
C873 C 0.42801 0.76987 0.91148 0.0
N874 N 0.24284 0.60523 0.91125 0.0
N875 N 0.38002 0.73159 0.91992 0.0
H876 H 0.70894 0.21699 0.08583 0.0
H877 H 0.62162 0.44927 0.0837 0.0
H878 H 0.67496 0.28276 0.13393 0.0
H879 H 0.69487 0.41133 0.03824 0.0
H880 H 0.63843 0.38689 0.10212 0.0
H881 H 0.70511 0.2887 0.0683 0.0
C882 C 0.70132 0.24721 0.09272 0.0
C883 C 0.69164 0.24393 0.11128 0.0
C884 C 0.65085 0.39222 0.08813 0.0
C885 C 0.68609 0.32536 0.09124 0.0
C886 C 0.64077 0.42735 0.07752 0.0
C887 C 0.65663 0.43521 0.05935 0.0
C888 C 0.67655 0.36436 0.08051 0.0
C889 C 0.68154 0.40604 0.05213 0.0
C890 C 0.6991 0.28808 0.08269 0.0
C891 C 0.68247 0.2841 0.11962 0.0
N892 N 0.6907 0.37171 0.06277 0.0
N893 N 0.67901 0.32296 0.10943 0.0
H894 H 0.40392 0.71527 0.29897 0.0
H895 H 0.22768 0.63747 0.20721 0.0
H896 H 0.4208 0.61992 0.25561 0.0
H897 H 0.19406 0.71182 0.25335 0.0
H898 H 0.29842 0.62969 0.22496 0.0
H899 H 0.32505 0.71285 0.28274 0.0
C900 C 0.3907 0.6934 0.28616 0.0
C901 C 0.41914 0.66813 0.27859 0.0
C902 C 0.27519 0.64739 0.23119 0.0
C903 C 0.32986 0.6656 0.25994 0.0
C904 C 0.23498 0.6519 0.22105 0.0
C905 C 0.20503 0.67535 0.22877 0.0
C906 C 0.2856 0.66684 0.24909 0.0
C907 C 0.21611 0.69339 0.2468 0.0
C908 C 0.34588 0.6921 0.27689 0.0
C909 C 0.40042 0.64042 0.26193 0.0
N910 N 0.25566 0.68898 0.2563 0.0
N911 N 0.35725 0.64024 0.25312 0.0
loop_
_geom_bond_atom_site_label_1
_geom_bond_atom_site_label_2
_geom_bond_distance
_geom_bond_site_symmetry_2
_ccdc_geom_bond_type
Fe0 O2 1.918 . S
Fe0 O5 1.997 . S
Fe0 O6 2.002 . S
Fe0 O11 1.976 . S
Fe0 O14 1.996 . S
Fe1 O2 1.918 . S
Fe1 O9 1.997 . S
Fe1 O12 1.996 . S
Fe1 O16 1.976 . S
Fe1 O19 2.002 . S
O2 Fe0 1.918 . S
O2 Fe1 1.918 . S
O2 Fe3 1.918 . S
Fe3 O2 1.918 . S
Fe3 O4 2.002 . S
Fe3 O13 1.976 . S
Fe3 O17 1.996 . S
Fe3 O20 1.997 . S
O4 Fe3 2.002 . S
O4 C21 1.295 . S
O5 Fe0 1.997 . S
O5 C21 1.235 . S
O6 Fe0 2.002 . S
O6 C7 1.295 . S
C7 O6 1.295 . S
C7 O9 1.235 . S
C8 O13 1.287 . S
C8 O14 1.255 . S
O9 Fe1 1.997 . S
O9 C7 1.235 . S
C10 O16 1.287 . S
C10 O17 1.255 . S
O11 Fe0 1.976 . S
O11 C18 1.287 . S
O12 Fe1 1.996 . S
O12 C18 1.255 . S
O13 Fe3 1.976 . S
O13 C8 1.287 . S
O14 Fe0 1.996 . S
O14 C8 1.255 . S
C15 O19 1.295 . S
C15 O20 1.235 . S
O16 Fe1 1.976 . S
O16 C10 1.287 . S
O17 Fe3 1.996 . S
O17 C10 1.255 . S
C18 O11 1.287 . S
C18 O12 1.255 . S
O19 Fe1 2.002 . S
O19 C15 1.295 . S
O20 Fe3 1.997 . S
O20 C15 1.235 . S
C21 O4 1.295 . S
C21 O5 1.235 . S
Fe22 O24 1.918 . S
Fe22 O27 1.997 . S
Fe22 O28 2.002 . S
Fe22 O33 1.976 . S
Fe22 O36 1.996 . S
Fe23 O24 1.918 . S
Fe23 O31 1.997 . S
Fe23 O34 1.996 . S
Fe23 O38 1.976 . S
Fe23 O41 2.002 . S
O24 Fe22 1.918 . S
O24 Fe23 1.918 . S
O24 Fe25 1.918 . S
Fe25 O24 1.918 . S
Fe25 O26 2.002 . S
Fe25 O35 1.976 . S
Fe25 O39 1.996 . S
Fe25 O42 1.997 . S
O26 Fe25 2.002 . S
O26 C43 1.295 . S
O27 Fe22 1.997 . S
O27 C43 1.235 . S
O28 Fe22 2.002 . S
O28 C29 1.295 . S
C29 O28 1.295 . S
C29 O31 1.235 . S
C30 O35 1.287 . S
C30 O36 1.255 . S
O31 Fe23 1.997 . S
O31 C29 1.235 . S
C32 O38 1.287 . S
C32 O39 1.255 . S
O33 Fe22 1.976 . S
O33 C40 1.287 . S
O34 Fe23 1.996 . S
O34 C40 1.255 . S
O35 Fe25 1.976 . S
O35 C30 1.287 . S
O36 Fe22 1.996 . S
O36 C30 1.255 . S
C37 O41 1.295 . S
C37 O42 1.235 . S
O38 Fe23 1.976 . S
O38 C32 1.287 . S
O39 Fe25 1.996 . S
O39 C32 1.255 . S
C40 O33 1.287 . S
C40 O34 1.255 . S
O41 Fe23 2.002 . S
O41 C37 1.295 . S
O42 Fe25 1.997 . S
O42 C37 1.235 . S
C43 O26 1.295 . S
C43 O27 1.235 . S
Fe44 O46 1.918 . S
Fe44 O49 1.997 . S
Fe44 O50 2.002 . S
Fe44 O55 1.976 . S
Fe44 O58 1.996 . S
Fe45 O46 1.918 . S
Fe45 O53 1.997 . S
Fe45 O56 1.996 . S
Fe45 O60 1.976 . S
Fe45 O63 2.002 . S
O46 Fe44 1.918 . S
O46 Fe45 1.918 . S
O46 Fe47 1.918 . S
Fe47 O46 1.918 . S
Fe47 O48 2.002 . S
Fe47 O57 1.976 . S
Fe47 O61 1.996 . S
Fe47 O64 1.997 . S
O48 Fe47 2.002 . S
O48 C65 1.295 . S
O49 Fe44 1.997 . S
O49 C65 1.235 . S
O50 Fe44 2.002 . S
O50 C51 1.295 . S
C51 O50 1.295 . S
C51 O53 1.235 . S
C52 O57 1.287 . S
C52 O58 1.255 . S
O53 Fe45 1.997 . S
O53 C51 1.235 . S
C54 O60 1.287 . S
C54 O61 1.255 . S
O55 Fe44 1.976 . S
O55 C62 1.287 . S
O56 Fe45 1.996 . S
O56 C62 1.255 . S
O57 Fe47 1.976 . S
O57 C52 1.287 . S
O58 Fe44 1.996 . S
O58 C52 1.255 . S
C59 O63 1.295 . S
C59 O64 1.235 . S
O60 Fe45 1.976 . S
O60 C54 1.287 . S
O61 Fe47 1.996 . S
O61 C54 1.255 . S
C62 O55 1.287 . S
C62 O56 1.255 . S
O63 Fe45 2.002 . S
O63 C59 1.295 . S
O64 Fe47 1.997 . S
O64 C59 1.235 . S
C65 O48 1.295 . S
C65 O49 1.235 . S
Fe66 O68 1.918 . S
Fe66 O71 1.997 . S
Fe66 O72 2.002 . S
Fe66 O77 1.976 . S
Fe66 O80 1.996 . S
Fe67 O68 1.918 . S
Fe67 O75 1.997 . S
Fe67 O78 1.996 . S
Fe67 O82 1.976 . S
Fe67 O85 2.002 . S
O68 Fe66 1.918 . S
O68 Fe67 1.918 . S
O68 Fe69 1.918 . S
Fe69 O68 1.918 . S
Fe69 O70 2.002 . S
Fe69 O79 1.976 . S
Fe69 O83 1.996 . S
Fe69 O86 1.997 . S
O70 Fe69 2.002 . S
O70 C87 1.295 . S
O71 Fe66 1.997 . S
O71 C87 1.235 . S
O72 Fe66 2.002 . S
O72 C73 1.295 . S
C73 O72 1.295 . S
C73 O75 1.235 . S
C74 O79 1.287 . S
C74 O80 1.255 . S
O75 Fe67 1.997 . S
O75 C73 1.235 . S
C76 O82 1.287 . S
C76 O83 1.255 . S
O77 Fe66 1.976 . S
O77 C84 1.287 . S
O78 Fe67 1.996 . S
O78 C84 1.255 . S
O79 Fe69 1.976 . S
O79 C74 1.287 . S
O80 Fe66 1.996 . S
O80 C74 1.255 . S
C81 O85 1.295 . S
C81 O86 1.235 . S
O82 Fe67 1.976 . S
O82 C76 1.287 . S
O83 Fe69 1.996 . S
O83 C76 1.255 . S
C84 O77 1.287 . S
C84 O78 1.255 . S
O85 Fe67 2.002 . S
O85 C81 1.295 . S
O86 Fe69 1.997 . S
O86 C81 1.235 . S
C87 O70 1.295 . S
C87 O71 1.235 . S
Fe88 O90 1.918 . S
Fe88 O93 1.997 . S
Fe88 O94 2.002 . S
Fe88 O99 1.952 1_554 S
Fe88 O102 1.996 . S
Fe89 O90 1.918 . S
Fe89 O97 1.997 . S
Fe89 O100 1.996 . S
Fe89 O104 1.976 . S
Fe89 O107 2.002 . S
O90 Fe88 1.918 . S
O90 Fe89 1.918 . S
O90 Fe91 1.918 . S
Fe91 O90 1.918 . S
Fe91 O92 2.002 . S
Fe91 O101 1.976 . S
Fe91 O105 1.996 . S
Fe91 O108 1.997 . S
O92 Fe91 2.002 . S
O92 C109 1.295 . S
O93 Fe88 1.997 . S
O93 C109 1.235 . S
O94 Fe88 2.002 . S
O94 C95 1.295 . S
C95 O94 1.295 . S
C95 O97 1.235 . S
C96 O101 1.287 . S
C96 O102 1.255 . S
O97 Fe89 1.997 . S
O97 C95 1.235 . S
C98 O104 1.287 . S
C98 O105 1.255 . S
O99 Fe88 1.952 1_556 S
O99 C106 1.292 . S
O100 Fe89 1.996 . S
O100 C106 1.255 1_554 S
O101 Fe91 1.976 . S
O101 C96 1.287 . S
O102 Fe88 1.996 . S
O102 C96 1.255 . S
C103 O107 1.295 . S
C103 O108 1.235 . S
O104 Fe89 1.976 . S
O104 C98 1.287 . S
O105 Fe91 1.996 . S
O105 C98 1.255 . S
C106 O99 1.292 . S
C106 O100 1.255 1_556 S
O107 Fe89 2.002 . S
O107 C103 1.295 . S
O108 Fe91 1.997 . S
O108 C103 1.235 . S
C109 O92 1.295 . S
C109 O93 1.235 . S
Fe110 O112 1.918 . S
Fe110 O115 1.997 . S
Fe110 O116 2.002 . S
Fe110 O121 1.976 . S
Fe110 O124 1.996 . S
Fe111 O112 1.918 . S
Fe111 O119 1.997 . S
Fe111 O122 1.996 . S
Fe111 O126 1.976 . S
Fe111 O129 2.002 . S
O112 Fe110 1.918 . S
O112 Fe111 1.918 . S
O112 Fe113 1.918 . S
Fe113 O112 1.918 . S
Fe113 O114 2.002 . S
Fe113 O123 1.976 . S
Fe113 O127 1.996 . S
Fe113 O130 1.997 . S
O114 Fe113 2.002 . S
O114 C131 1.295 . S
O115 Fe110 1.997 . S
O115 C131 1.235 . S
O116 Fe110 2.002 . S
O116 C117 1.295 . S
C117 O116 1.295 . S
C117 O119 1.235 . S
C118 O123 1.287 . S
C118 O124 1.255 . S
O119 Fe111 1.997 . S
O119 C117 1.235 . S
C120 O126 1.287 . S
C120 O127 1.255 . S
O121 Fe110 1.976 . S
O121 C128 1.287 . S
O122 Fe111 1.996 . S
O122 C128 1.255 . S
O123 Fe113 1.976 . S
O123 C118 1.287 . S
O124 Fe110 1.996 . S
O124 C118 1.255 . S
C125 O129 1.295 . S
C125 O130 1.235 . S
O126 Fe111 1.976 . S
O126 C120 1.287 . S
O127 Fe113 1.996 . S
O127 C120 1.255 . S
C128 O121 1.287 . S
C128 O122 1.255 . S
O129 Fe111 2.002 . S
O129 C125 1.295 . S
O130 Fe113 1.997 . S
O130 C125 1.235 . S
C131 O114 1.295 . S
C131 O115 1.235 . S
Fe132 O134 1.918 . S
Fe132 O137 1.997 . S
Fe132 O138 2.002 . S
Fe132 O143 1.976 . S
Fe132 O146 1.996 . S
Fe133 O134 1.918 . S
Fe133 O141 1.997 . S
Fe133 O144 1.996 . S
Fe133 O148 1.976 . S
Fe133 O151 2.002 . S
O134 Fe132 1.918 . S
O134 Fe133 1.918 . S
O134 Fe135 1.918 . S
Fe135 O134 1.918 . S
Fe135 O136 2.002 . S
Fe135 O145 1.976 . S
Fe135 O149 1.996 . S
Fe135 O152 1.997 . S
O136 Fe135 2.002 . S
O136 C153 1.295 . S
O137 Fe132 1.997 . S
O137 C153 1.235 . S
O138 Fe132 2.002 . S
O138 C139 1.295 . S
C139 O138 1.295 . S
C139 O141 1.235 . S
C140 O145 1.287 . S
C140 O146 1.255 . S
O141 Fe133 1.997 . S
O141 C139 1.235 . S
C142 O148 1.287 . S
C142 O149 1.255 . S
O143 Fe132 1.976 . S
O143 C150 1.287 . S
O144 Fe133 1.996 . S
O144 C150 1.255 . S
O145 Fe135 1.976 . S
O145 C140 1.287 . S
O146 Fe132 1.996 . S
O146 C140 1.255 . S
C147 O151 1.295 . S
C147 O152 1.235 . S
O148 Fe133 1.976 . S
O148 C142 1.287 . S
O149 Fe135 1.996 . S
O149 C142 1.255 . S
C150 O143 1.287 . S
C150 O144 1.255 . S
O151 Fe133 2.002 . S
O151 C147 1.295 . S
O152 Fe135 1.997 . S
O152 C147 1.235 . S
C153 O136 1.295 . S
C153 O137 1.235 . S
Fe154 O156 1.918 . S
Fe154 O159 1.997 . S
Fe154 O160 2.002 . S
Fe154 O165 1.976 . S
Fe154 O168 1.996 . S
Fe155 O156 1.918 . S
Fe155 O163 1.997 . S
Fe155 O166 1.996 . S
Fe155 O170 1.976 . S
Fe155 O173 2.002 . S
O156 Fe154 1.918 . S
O156 Fe155 1.918 . S
O156 Fe157 1.918 . S
Fe157 O156 1.918 . S
Fe157 O158 2.002 . S
Fe157 O167 1.976 . S
Fe157 O171 1.996 . S
Fe157 O174 1.997 . S
O158 Fe157 2.002 . S
O158 C175 1.295 . S
O159 Fe154 1.997 . S
O159 C175 1.235 . S
O160 Fe154 2.002 . S
O160 C161 1.295 . S
C161 O160 1.295 . S
C161 O163 1.235 . S
C162 O167 1.287 . S
C162 O168 1.255 . S
O163 Fe155 1.997 . S
O163 C161 1.235 . S
C164 O170 1.287 . S
C164 O171 1.255 . S
O165 Fe154 1.976 . S
O165 C172 1.287 . S
O166 Fe155 1.996 . S
O166 C172 1.255 . S
O167 Fe157 1.976 . S
O167 C162 1.287 . S
O168 Fe154 1.996 . S
O168 C162 1.255 . S
C169 O173 1.295 . S
C169 O174 1.235 . S
O170 Fe155 1.976 . S
O170 C164 1.287 . S
O171 Fe157 1.996 . S
O171 C164 1.255 . S
C172 O165 1.287 . S
C172 O166 1.255 . S
O173 Fe155 2.002 . S
O173 C169 1.295 . S
O174 Fe157 1.997 . S
O174 C169 1.235 . S
C175 O158 1.295 . S
C175 O159 1.235 . S
Fe176 O178 1.918 . S
Fe176 O181 1.997 . S
Fe176 O182 2.002 . S
Fe176 O187 1.976 . S
Fe176 O190 1.996 . S
Fe177 O178 1.918 . S
Fe177 O185 1.997 . S
Fe177 O188 1.996 . S
Fe177 O192 1.976 . S
Fe177 O195 2.002 . S
O178 Fe176 1.918 . S
O178 Fe177 1.918 . S
O178 Fe179 1.918 . S
Fe179 O178 1.918 . S
Fe179 O180 2.002 . S
Fe179 O189 1.976 . S
Fe179 O193 1.996 . S
Fe179 O196 1.997 . S
O180 Fe179 2.002 . S
O180 C197 1.295 . S
O181 Fe176 1.997 . S
O181 C197 1.235 . S
O182 Fe176 2.002 . S
O182 C183 1.295 . S
C183 O182 1.295 . S
C183 O185 1.235 . S
C184 O189 1.287 . S
C184 O190 1.255 . S
O185 Fe177 1.997 . S
O185 C183 1.235 . S
C186 O192 1.287 . S
C186 O193 1.255 . S
O187 Fe176 1.976 . S
O187 C194 1.287 . S
O188 Fe177 1.996 . S
O188 C194 1.255 . S
O189 Fe179 1.976 . S
O189 C184 1.287 . S
O190 Fe176 1.996 . S
O190 C184 1.255 . S
C191 O195 1.295 . S
C191 O196 1.235 . S
O192 Fe177 1.976 . S
O192 C186 1.287 . S
O193 Fe179 1.996 . S
O193 C186 1.255 . S
C194 O187 1.287 . S
C194 O188 1.255 . S
O195 Fe177 2.002 . S
O195 C191 1.295 . S
O196 Fe179 1.997 . S
O196 C191 1.235 . S
C197 O180 1.295 . S
C197 O181 1.235 . S
Fe198 O200 1.918 . S
Fe198 O203 1.997 . S
Fe198 O204 2.002 . S
Fe198 O209 1.976 . S
Fe198 O212 1.996 . S
Fe199 O200 1.918 . S
Fe199 O207 1.997 . S
Fe199 O210 1.996 . S
Fe199 O214 1.976 . S
Fe199 O217 2.002 . S
O200 Fe198 1.918 . S
O200 Fe199 1.918 . S
O200 Fe201 1.918 . S
Fe201 O200 1.918 . S
Fe201 O202 2.002 . S
Fe201 O211 1.952 1_556 S
Fe201 O215 1.996 . S
Fe201 O218 1.997 . S
O202 Fe201 2.002 . S
O202 C219 1.295 . S
O203 Fe198 1.997 . S
O203 C219 1.235 . S
O204 Fe198 2.002 . S
O204 C205 1.295 . S
C205 O204 1.295 . S
C205 O207 1.235 . S
C206 O211 1.292 . S
C206 O212 1.255 1_554 S
O207 Fe199 1.997 . S
O207 C205 1.235 . S
C208 O214 1.287 . S
C208 O215 1.255 . S
O209 Fe198 1.976 . S
O209 C216 1.287 . S
O210 Fe199 1.996 . S
O210 C216 1.255 . S
O211 Fe201 1.952 1_554 S
O211 C206 1.292 . S
O212 Fe198 1.996 . S
O212 C206 1.255 1_556 S
C213 O217 1.295 . S
C213 O218 1.235 . S
O214 Fe199 1.976 . S
O214 C208 1.287 . S
O215 Fe201 1.996 . S
O215 C208 1.255 . S
C216 O209 1.287 . S
C216 O210 1.255 . S
O217 Fe199 2.002 . S
O217 C213 1.295 . S
O218 Fe201 1.997 . S
O218 C213 1.235 . S
C219 O202 1.295 . S
C219 O203 1.235 . S
Fe220 O222 1.918 . S
Fe220 O225 1.997 . S
Fe220 O226 2.002 . S
Fe220 O231 1.976 . S
Fe220 O234 1.996 . S
Fe221 O222 1.918 . S
Fe221 O229 1.997 . S
Fe221 O232 1.996 . S
Fe221 O236 1.976 . S
Fe221 O239 2.002 . S
O222 Fe220 1.918 . S
O222 Fe221 1.918 . S
O222 Fe223 1.918 . S
Fe223 O222 1.918 . S
Fe223 O224 2.002 . S
Fe223 O233 1.976 . S
Fe223 O237 1.996 . S
Fe223 O240 1.997 . S
O224 Fe223 2.002 . S
O224 C241 1.295 . S
O225 Fe220 1.997 . S
O225 C241 1.235 . S
O226 Fe220 2.002 . S
O226 C227 1.295 . S
C227 O226 1.295 . S
C227 O229 1.235 . S
C228 O233 1.287 . S
C228 O234 1.255 . S
O229 Fe221 1.997 . S
O229 C227 1.235 . S
C230 O236 1.287 . S
C230 O237 1.255 . S
O231 Fe220 1.976 . S
O231 C238 1.287 . S
O232 Fe221 1.996 . S
O232 C238 1.255 . S
O233 Fe223 1.976 . S
O233 C228 1.287 . S
O234 Fe220 1.996 . S
O234 C228 1.255 . S
C235 O239 1.295 . S
C235 O240 1.235 . S
O236 Fe221 1.976 . S
O236 C230 1.287 . S
O237 Fe223 1.996 . S
O237 C230 1.255 . S
C238 O231 1.287 . S
C238 O232 1.255 . S
O239 Fe221 2.002 . S
O239 C235 1.295 . S
O240 Fe223 1.997 . S
O240 C235 1.235 . S
C241 O224 1.295 . S
C241 O225 1.235 . S
Fe242 O244 1.918 . S
Fe242 O247 1.997 . S
Fe242 O248 2.002 . S
Fe242 O253 1.976 . S
Fe242 O256 1.996 . S
Fe243 O244 1.918 . S
Fe243 O251 1.997 . S
Fe243 O254 1.996 . S
Fe243 O258 1.976 . S
Fe243 O261 2.002 . S
O244 Fe242 1.918 . S
O244 Fe243 1.918 . S
O244 Fe245 1.918 . S
Fe245 O244 1.918 . S
Fe245 O246 2.002 . S
Fe245 O255 1.976 . S
Fe245 O259 1.996 . S
Fe245 O262 1.997 . S
O246 Fe245 2.002 . S
O246 C263 1.295 . S
O247 Fe242 1.997 . S
O247 C263 1.235 . S
O248 Fe242 2.002 . S
O248 C249 1.295 . S
C249 O248 1.295 . S
C249 O251 1.235 . S
C250 O255 1.287 . S
C250 O256 1.255 . S
O251 Fe243 1.997 . S
O251 C249 1.235 . S
C252 O258 1.287 . S
C252 O259 1.255 . S
O253 Fe242 1.976 . S
O253 C260 1.287 . S
O254 Fe243 1.996 . S
O254 C260 1.255 . S
O255 Fe245 1.976 . S
O255 C250 1.287 . S
O256 Fe242 1.996 . S
O256 C250 1.255 . S
C257 O261 1.295 . S
C257 O262 1.235 . S
O258 Fe243 1.976 . S
O258 C252 1.287 . S
O259 Fe245 1.996 . S
O259 C252 1.255 . S
C260 O253 1.287 . S
C260 O254 1.255 . S
O261 Fe243 2.002 . S
O261 C257 1.295 . S
O262 Fe245 1.997 . S
O262 C257 1.235 . S
C263 O246 1.295 . S
C263 O247 1.235 . S
H264 C270 0.930 . S
H265 C274 0.930 . S
H266 C279 0.929 . S
H267 C277 0.929 . S
H268 C272 0.929 . S
H269 C278 0.929 . S
C270 H264 0.930 . S
C270 C271 1.367 . S
C270 C278 1.378 . S
C271 C270 1.367 . S
C271 C279 1.433 . S
C272 H268 0.929 . S
C272 C274 1.378 . S
C272 C276 1.350 . S
C273 C276 1.463 1_565 S
C273 C278 1.350 . S
C273 N281 1.427 . S
C274 H265 0.930 . S
C274 C272 1.378 . S
C274 C275 1.367 . S
C275 C274 1.367 . S
C275 C277 1.433 . S
C276 C272 1.350 . S
C276 C273 1.463 1_545 S
C276 N280 1.427 . S
C277 H267 0.929 . S
C277 C275 1.433 . S
C277 N280 1.384 . S
C278 H269 0.929 . S
C278 C270 1.378 . S
C278 C273 1.350 . S
C279 H266 0.929 . S
C279 C271 1.433 . S
C279 N281 1.384 . S
N280 C276 1.427 . S
N280 C277 1.384 . S
N281 C273 1.427 . S
N281 C279 1.384 . S
H282 C288 0.930 . S
H283 C292 0.930 . S
H284 C297 0.929 . S
H285 C295 0.929 . S
H286 C290 0.929 . S
H287 C296 0.929 . S
C288 H282 0.930 . S
C288 C289 1.367 . S
C288 C296 1.378 . S
C289 C288 1.367 . S
C289 C297 1.433 . S
C290 H286 0.929 . S
C290 C292 1.378 . S
C290 C294 1.350 . S
C291 C294 1.463 . S
C291 C296 1.350 . S
C291 N299 1.427 . S
C292 H283 0.930 . S
C292 C290 1.378 . S
C292 C293 1.367 . S
C293 C292 1.367 . S
C293 C295 1.433 . S
C294 C290 1.350 . S
C294 C291 1.463 . S
C294 N298 1.427 . S
C295 H285 0.929 . S
C295 C293 1.433 . S
C295 N298 1.384 . S
C296 H287 0.929 . S
C296 C288 1.378 . S
C296 C291 1.350 . S
C297 H284 0.929 . S
C297 C289 1.433 . S
C297 N299 1.384 . S
N298 C294 1.427 . S
N298 C295 1.384 . S
N299 C291 1.427 . S
N299 C297 1.384 . S
H300 C306 0.930 . S
H301 C310 0.930 . S
H302 C315 0.929 . S
H303 C313 0.929 . S
H304 C308 0.929 1_655 S
H305 C314 0.929 . S
C306 H300 0.930 . S
C306 C307 1.367 . S
C306 C314 1.378 1_655 S
C307 C306 1.367 . S
C307 C315 1.433 . S
C308 H304 0.929 1_455 S
C308 C310 1.378 . S
C308 C312 1.350 . S
C309 C312 1.463 1_655 S
C309 C314 1.350 1_655 S
C309 N317 1.427 . S
C310 H301 0.930 . S
C310 C308 1.378 . S
C310 C311 1.367 . S
C311 C310 1.367 . S
C311 C313 1.433 . S
C312 C308 1.350 . S
C312 C309 1.463 1_455 S
C312 N316 1.427 . S
C313 H303 0.929 . S
C313 C311 1.433 . S
C313 N316 1.384 . S
C314 H305 0.929 . S
C314 C306 1.378 1_455 S
C314 C309 1.350 1_455 S
C315 H302 0.929 . S
C315 C307 1.433 . S
C315 N317 1.384 . S
N316 C312 1.427 . S
N316 C313 1.384 . S
N317 C309 1.427 . S
N317 C315 1.384 . S
H318 C324 0.930 . S
H319 C328 0.930 . S
H320 C333 0.929 . S
H321 C331 0.929 . S
H322 C326 0.929 . S
H323 C332 0.929 1_565 S
C324 H318 0.930 . S
C324 C325 1.367 . S
C324 C332 1.378 . S
C325 C324 1.367 . S
C325 C333 1.433 . S
C326 H322 0.929 . S
C326 C328 1.378 1_545 S
C326 C330 1.350 1_545 S
C327 C330 1.463 1_545 S
C327 C332 1.350 . S
C327 N335 1.427 . S
C328 H319 0.930 . S
C328 C326 1.378 1_565 S
C328 C329 1.367 . S
C329 C328 1.367 . S
C329 C331 1.433 . S
C330 C326 1.350 1_565 S
C330 C327 1.463 1_565 S
C330 N334 1.427 . S
C331 H321 0.929 . S
C331 C329 1.433 . S
C331 N334 1.384 . S
C332 H323 0.929 1_545 S
C332 C324 1.378 . S
C332 C327 1.350 . S
C333 H320 0.929 . S
C333 C325 1.433 . S
C333 N335 1.384 . S
N334 C330 1.427 . S
N334 C331 1.384 . S
N335 C327 1.427 . S
N335 C333 1.384 . S
H336 C342 0.930 . S
H337 C346 0.930 . S
H338 C351 0.929 . S
H339 C349 0.974 . S
H340 C344 0.929 . S
H341 C350 0.929 . S
C342 H336 0.930 . S
C342 C343 1.367 . S
C342 C350 1.378 . S
C343 C342 1.367 . S
C343 C351 1.433 . S
C344 H340 0.929 . S
C344 C346 1.378 . S
C344 C348 1.350 . S
C345 C348 1.463 . S
C345 C350 1.350 . S
C345 N353 1.427 . S
C346 H337 0.930 . S
C346 C344 1.378 . S
C346 C347 1.367 . S
C347 C346 1.367 . S
C347 C349 1.433 . S
C348 C344 1.350 . S
C348 C345 1.463 . S
C348 N352 1.427 . S
C349 H339 0.974 . S
C349 C347 1.433 . S
C349 N352 1.384 . S
C350 H341 0.929 . S
C350 C342 1.378 . S
C350 C345 1.350 . S
C351 H338 0.929 . S
C351 C343 1.433 . S
C351 N353 1.384 . S
N352 C348 1.427 . S
N352 C349 1.384 . S
N353 C345 1.427 . S
N353 C351 1.384 . S
H354 C360 0.930 . S
H355 C364 0.930 . S
H356 C369 0.929 . S
H357 C367 0.929 . S
H358 C362 0.929 1_455 S
H359 C368 0.929 . S
C360 H354 0.930 . S
C360 C361 1.367 . S
C360 C368 1.378 1_455 S
C361 C360 1.367 . S
C361 C369 1.433 . S
C362 H358 0.929 1_655 S
C362 C364 1.378 . S
C362 C366 1.350 . S
C363 C366 1.463 1_455 S
C363 C368 1.350 1_455 S
C363 N371 1.427 . S
C364 H355 0.930 . S
C364 C362 1.378 . S
C364 C365 1.367 . S
C365 C364 1.367 . S
C365 C367 1.433 . S
C366 C362 1.350 . S
C366 C363 1.463 1_655 S
C366 N370 1.427 . S
C367 H357 0.929 . S
C367 C365 1.433 . S
C367 N370 1.384 . S
C368 H359 0.929 . S
C368 C360 1.378 1_655 S
C368 C363 1.350 1_655 S
C369 H356 0.929 . S
C369 C361 1.433 . S
C369 N371 1.384 . S
N370 C366 1.427 . S
N370 C367 1.384 . S
N371 C363 1.427 . S
N371 C369 1.384 . S
H372 C378 0.930 . S
H373 C382 0.930 . S
H374 C387 0.929 . S
H375 C385 0.929 . S
H376 C380 0.929 . S
H377 C386 0.929 . S
C378 H372 0.930 . S
C378 C379 1.367 . S
C378 C386 1.378 . S
C379 C378 1.367 . S
C379 C387 1.433 . S
C380 H376 0.929 . S
C380 C382 1.378 . S
C380 C384 1.350 . S
C381 C384 1.463 1_455 S
C381 C386 1.350 . S
C381 N389 1.427 . S
C382 H373 0.930 . S
C382 C380 1.378 . S
C382 C383 1.367 . S
C383 C382 1.367 . S
C383 C385 1.433 . S
C384 C380 1.350 . S
C384 C381 1.463 1_655 S
C384 N388 1.427 1_655 S
C385 H375 0.929 . S
C385 C383 1.433 . S
C385 N388 1.384 1_655 S
C386 H377 0.929 . S
C386 C378 1.378 . S
C386 C381 1.350 . S
C387 H374 0.929 . S
C387 C379 1.433 . S
C387 N389 1.384 . S
N388 C384 1.427 1_455 S
N388 C385 1.384 1_455 S
N389 C381 1.427 . S
N389 C387 1.384 . S
H390 C396 0.930 . S
H391 C400 0.930 . S
H392 C405 0.929 . S
H393 C403 0.929 . S
H394 C398 0.929 1_565 S
H395 C404 0.929 . S
C396 H390 0.930 . S
C396 C397 1.367 . S
C396 C404 1.378 1_565 S
C397 C396 1.367 . S
C397 C405 1.433 . S
C398 H394 0.929 1_545 S
C398 C400 1.378 . S
C398 C402 1.350 . S
C399 C402 1.463 1_565 S
C399 C404 1.350 1_565 S
C399 N407 1.427 . S
C400 H391 0.930 . S
C400 C398 1.378 . S
C400 C401 1.367 . S
C401 C400 1.367 . S
C401 C403 1.433 . S
C402 C398 1.350 . S
C402 C399 1.463 1_545 S
C402 N406 1.427 . S
C403 H393 0.929 . S
C403 C401 1.433 . S
C403 N406 1.384 . S
C404 H395 0.929 . S
C404 C396 1.378 1_545 S
C404 C399 1.350 1_545 S
C405 H392 0.929 . S
C405 C397 1.433 . S
C405 N407 1.384 . S
N406 C402 1.427 . S
N406 C403 1.384 . S
N407 C399 1.427 . S
N407 C405 1.384 . S
H408 C414 0.930 . S
H409 C418 0.930 . S
H410 C423 0.929 . S
H411 C421 0.929 . S
H412 C416 0.929 . S
H413 C422 0.929 . S
C414 H408 0.930 . S
C414 C415 1.367 . S
C414 C422 1.378 . S
C415 C414 1.367 . S
C415 C423 1.433 . S
C416 H412 0.929 . S
C416 C418 1.378 . S
C416 C420 1.350 . S
C417 C420 1.463 . S
C417 C422 1.350 . S
C417 N425 1.427 . S
C418 H409 0.930 . S
C418 C416 1.378 . S
C418 C419 1.367 . S
C419 C418 1.367 . S
C419 C421 1.433 . S
C420 C416 1.350 . S
C420 C417 1.463 . S
C420 N424 1.427 . S
C421 H411 0.929 . S
C421 C419 1.433 . S
C421 N424 1.384 . S
C422 H413 0.929 . S
C422 C414 1.378 . S
C422 C417 1.350 . S
C423 H410 0.929 . S
C423 C415 1.433 . S
C423 N425 1.384 . S
N424 C420 1.427 . S
N424 C421 1.384 . S
N425 C417 1.427 . S
N425 C423 1.384 . S
H426 C432 0.930 . S
H427 C436 0.930 . S
H428 C441 0.929 . S
H429 C439 0.929 . S
H430 C434 0.929 . S
H431 C440 0.929 . S
C432 H426 0.930 . S
C432 C433 1.367 . S
C432 C440 1.378 . S
C433 C432 1.367 . S
C433 C441 1.433 . S
C434 H430 0.929 . S
C434 C436 1.378 . S
C434 C438 1.350 . S
C435 C438 1.463 1_655 S
C435 C440 1.350 . S
C435 N443 1.427 . S
C436 H427 0.930 . S
C436 C434 1.378 . S
C436 C437 1.367 . S
C437 C436 1.367 . S
C437 C439 1.433 . S
C438 C434 1.350 . S
C438 C435 1.463 1_455 S
C438 N442 1.427 . S
C439 H429 0.929 . S
C439 C437 1.433 . S
C439 N442 1.384 . S
C440 H431 0.929 . S
C440 C432 1.378 . S
C440 C435 1.350 . S
C441 H428 0.929 . S
C441 C433 1.433 . S
C441 N443 1.384 . S
N442 C438 1.427 . S
N442 C439 1.384 . S
N443 C435 1.427 . S
N443 C441 1.384 . S
H444 C450 0.930 . S
H445 C454 0.930 . S
H446 C459 0.929 . S
H447 C457 0.929 . S
H448 C452 0.929 . S
H449 C458 0.929 1_545 S
C450 H444 0.930 . S
C450 C451 1.367 . S
C450 C458 1.378 . S
C451 C450 1.367 . S
C451 C459 1.433 . S
C452 H448 0.929 . S
C452 C454 1.378 1_565 S
C452 C456 1.350 1_565 S
C453 C456 1.463 1_565 S
C453 C458 1.350 . S
C453 N461 1.427 . S
C454 H445 0.930 . S
C454 C452 1.378 1_545 S
C454 C455 1.367 . S
C455 C454 1.367 . S
C455 C457 1.433 . S
C456 C452 1.350 1_545 S
C456 C453 1.463 1_545 S
C456 N460 1.427 . S
C457 H447 0.929 . S
C457 C455 1.433 . S
C457 N460 1.384 . S
C458 H449 0.929 1_565 S
C458 C450 1.378 . S
C458 C453 1.350 . S
C459 H446 0.929 . S
C459 C451 1.433 . S
C459 N461 1.384 . S
N460 C456 1.427 . S
N460 C457 1.384 . S
N461 C453 1.427 . S
N461 C459 1.384 . S
H462 C468 0.930 . S
H463 C472 0.930 . S
H464 C477 0.929 . S
H465 C475 0.929 . S
H466 C470 0.929 . S
H467 C476 0.929 . S
C468 H462 0.930 . S
C468 C469 1.367 . S
C468 C476 1.378 . S
C469 C468 1.367 . S
C469 C477 1.433 . S
C470 H466 0.929 . S
C470 C472 1.378 . S
C470 C474 1.350 . S
C471 C474 1.463 . S
C471 C476 1.350 . S
C471 N479 1.427 . S
C472 H463 0.930 . S
C472 C470 1.378 . S
C472 C473 1.367 . S
C473 C472 1.367 . S
C473 C475 1.433 . S
C474 C470 1.350 . S
C474 C471 1.463 . S
C474 N478 1.427 . S
C475 H465 0.929 . S
C475 C473 1.433 . S
C475 N478 1.384 . S
C476 H467 0.929 . S
C476 C468 1.378 . S
C476 C471 1.350 . S
C477 H464 0.929 . S
C477 C469 1.433 . S
C477 N479 1.384 . S
N478 C474 1.427 . S
N478 C475 1.384 . S
N479 C471 1.427 . S
N479 C477 1.384 . S
H480 C486 0.930 . S
H481 C490 0.930 . S
H482 C495 0.929 . S
H483 C493 0.929 . S
H484 C488 0.929 . S
H485 C494 0.929 . S
C486 H480 0.930 . S
C486 C487 1.367 . S
C486 C494 1.378 . S
C487 C486 1.367 . S
C487 C495 1.433 . S
C488 H484 0.929 . S
C488 C490 1.378 . S
C488 C492 1.350 1_545 S
C489 C492 1.463 . S
C489 C494 1.350 . S
C489 N497 1.427 . S
C490 H481 0.930 . S
C490 C488 1.378 . S
C490 C491 1.367 . S
C491 C490 1.367 . S
C491 C493 1.433 1_545 S
C492 C488 1.350 1_565 S
C492 C489 1.463 . S
C492 N496 1.427 . S
C493 H483 0.929 . S
C493 C491 1.433 1_565 S
C493 N496 1.384 . S
C494 H485 0.929 . S
C494 C486 1.378 . S
C494 C489 1.350 . S
C495 H482 0.929 . S
C495 C487 1.433 . S
C495 N497 1.384 . S
N496 C492 1.427 . S
N496 C493 1.384 . S
N497 C489 1.427 . S
N497 C495 1.384 . S
H498 C504 0.930 . S
H499 C508 0.930 . S
H500 C513 0.929 . S
H501 C511 0.929 . S
H502 C506 0.929 . S
H503 C512 0.929 . S
C504 H498 0.930 . S
C504 C505 1.367 . S
C504 C512 1.378 . S
C505 C504 1.367 . S
C505 C513 1.433 . S
C506 H502 0.929 . S
C506 C508 1.378 . S
C506 C510 1.350 . S
C507 C510 1.463 . S
C507 C512 1.350 . S
C507 N515 1.427 . S
C508 H499 0.930 . S
C508 C506 1.378 . S
C508 C509 1.367 . S
C509 C508 1.367 . S
C509 C511 1.433 . S
C510 C506 1.350 . S
C510 C507 1.463 . S
C510 N514 1.427 . S
C511 H501 0.929 . S
C511 C509 1.433 . S
C511 N514 1.384 . S
C512 H503 0.929 . S
C512 C504 1.378 . S
C512 C507 1.350 . S
C513 H500 0.929 . S
C513 C505 1.433 . S
C513 N515 1.384 . S
N514 C510 1.427 . S
N514 C511 1.384 . S
N515 C507 1.427 . S
N515 C513 1.384 . S
H516 C522 0.930 . S
H517 C526 0.930 . S
H518 C531 0.929 . S
H519 C529 0.929 . S
H520 C524 0.929 1_455 S
H521 C530 0.929 . S
C522 H516 0.930 . S
C522 C523 1.367 . S
C522 C530 1.378 . S
C523 C522 1.367 . S
C523 C531 1.433 . S
C524 H520 0.929 1_655 S
C524 C526 1.378 . S
C524 C528 1.350 1_655 S
C525 C528 1.463 . S
C525 C530 1.350 . S
C525 N533 1.427 . S
C526 H517 0.930 . S
C526 C524 1.378 . S
C526 C527 1.367 . S
C527 C526 1.367 . S
C527 C529 1.433 . S
C528 C524 1.350 1_455 S
C528 C525 1.463 . S
C528 N532 1.427 . S
C529 H519 0.929 . S
C529 C527 1.433 . S
C529 N532 1.384 1_655 S
C530 H521 0.929 . S
C530 C522 1.378 . S
C530 C525 1.350 . S
C531 H518 0.929 . S
C531 C523 1.433 . S
C531 N533 1.384 . S
N532 C528 1.427 . S
N532 C529 1.384 1_455 S
N533 C525 1.427 . S
N533 C531 1.384 . S
H534 C540 0.930 . S
H535 C544 0.930 1_545 S
H536 C549 0.929 . S
H537 C547 0.929 . S
H538 C542 0.929 . S
H539 C548 0.929 . S
C540 H534 0.930 . S
C540 C541 1.367 . S
C540 C548 1.378 . S
C541 C540 1.367 . S
C541 C549 1.433 . S
C542 H538 0.929 . S
C542 C544 1.378 1_545 S
C542 C546 1.350 . S
C543 C546 1.463 . S
C543 C548 1.350 . S
C543 N551 1.427 . S
C544 H535 0.930 1_565 S
C544 C542 1.378 1_565 S
C544 C545 1.367 . S
C545 C544 1.367 . S
C545 C547 1.433 . S
C546 C542 1.350 . S
C546 C543 1.463 . S
C546 N550 1.427 1_545 S
C547 H537 0.929 . S
C547 C545 1.433 . S
C547 N550 1.384 . S
C548 H539 0.929 . S
C548 C540 1.378 . S
C548 C543 1.350 . S
C549 H536 0.929 . S
C549 C541 1.433 . S
C549 N551 1.384 . S
N550 C546 1.427 1_565 S
N550 C547 1.384 . S
N551 C543 1.427 . S
N551 C549 1.384 . S
H552 C558 0.930 . S
H553 C562 0.930 . S
H554 C567 0.929 . S
H555 C565 0.929 . S
H556 C560 0.929 . S
H557 C566 0.929 . S
C558 H552 0.930 . S
C558 C559 1.367 . S
C558 C566 1.378 . S
C559 C558 1.367 . S
C559 C567 1.433 1_556 S
C560 H556 0.929 . S
C560 C562 1.378 . S
C560 C564 1.350 . S
C561 C564 1.463 . S
C561 C566 1.350 1_554 S
C561 N569 1.427 . S
C562 H553 0.930 . S
C562 C560 1.378 . S
C562 C563 1.367 . S
C563 C562 1.367 . S
C563 C565 1.433 . S
C564 C560 1.350 . S
C564 C561 1.463 . S
C564 N568 1.427 . S
C565 H555 0.929 . S
C565 C563 1.433 . S
C565 N568 1.384 . S
C566 H557 0.929 . S
C566 C558 1.378 . S
C566 C561 1.350 1_556 S
C567 H554 0.929 . S
C567 C559 1.433 1_554 S
C567 N569 1.384 . S
N568 C564 1.427 . S
N568 C565 1.384 . S
N569 C561 1.427 . S
N569 C567 1.384 . S
H570 C576 0.930 . S
H571 C580 0.930 . S
H572 C585 0.929 . S
H573 C583 0.929 . S
H574 C578 0.929 1_455 S
H575 C584 0.929 . S
C576 H570 0.930 . S
C576 C577 1.367 1_655 S
C576 C584 1.378 . S
C577 C576 1.367 1_455 S
C577 C585 1.433 . S
C578 H574 0.929 1_655 S
C578 C580 1.378 . S
C578 C582 1.350 . S
C579 C582 1.463 . S
C579 C584 1.350 . S
C579 N587 1.427 1_655 S
C580 H571 0.930 . S
C580 C578 1.378 . S
C580 C581 1.367 . S
C581 C580 1.367 . S
C581 C583 1.433 . S
C582 C578 1.350 . S
C582 C579 1.463 . S
C582 N586 1.427 . S
C583 H573 0.929 . S
C583 C581 1.433 . S
C583 N586 1.384 . S
C584 H575 0.929 . S
C584 C576 1.378 . S
C584 C579 1.350 . S
C585 H572 0.929 . S
C585 C577 1.433 . S
C585 N587 1.384 . S
N586 C582 1.427 . S
N586 C583 1.384 . S
N587 C579 1.427 1_455 S
N587 C585 1.384 . S
H588 C594 0.930 . S
H589 C598 0.930 . S
H590 C603 0.929 . S
H591 C601 0.929 . S
H592 C596 0.929 1_655 S
H593 C602 0.929 . S
C594 H588 0.930 . S
C594 C595 1.367 1_455 S
C594 C602 1.378 . S
C595 C594 1.367 1_655 S
C595 C603 1.433 . S
C596 H592 0.929 1_455 S
C596 C598 1.378 . S
C596 C600 1.350 . S
C597 C600 1.463 . S
C597 C602 1.350 . S
C597 N605 1.427 1_455 S
C598 H589 0.930 . S
C598 C596 1.378 . S
C598 C599 1.367 . S
C599 C598 1.367 . S
C599 C601 1.433 . S
C600 C596 1.350 . S
C600 C597 1.463 . S
C600 N604 1.427 . S
C601 H591 0.929 . S
C601 C599 1.433 . S
C601 N604 1.384 . S
C602 H593 0.929 . S
C602 C594 1.378 . S
C602 C597 1.350 . S
C603 H590 0.929 . S
C603 C595 1.433 . S
C603 N605 1.384 . S
N604 C600 1.427 . S
N604 C601 1.384 . S
N605 C597 1.427 1_655 S
N605 C603 1.384 . S
H606 C612 0.930 . S
H607 C616 0.930 . S
H608 C621 0.929 . S
H609 C619 0.929 . S
H610 C614 0.929 . S
H611 C620 0.929 . S
C612 H606 0.930 . S
C612 C613 1.367 . S
C612 C620 1.378 . S
C613 C612 1.367 . S
C613 C621 1.433 1_565 S
C614 H610 0.929 . S
C614 C616 1.378 . S
C614 C618 1.350 . S
C615 C618 1.463 . S
C615 C620 1.350 1_545 S
C615 N623 1.427 . S
C616 H607 0.930 . S
C616 C614 1.378 . S
C616 C617 1.367 . S
C617 C616 1.367 . S
C617 C619 1.433 . S
C618 C614 1.350 . S
C618 C615 1.463 . S
C618 N622 1.427 . S
C619 H609 0.929 . S
C619 C617 1.433 . S
C619 N622 1.384 . S
C620 H611 0.929 . S
C620 C612 1.378 . S
C620 C615 1.350 1_565 S
C621 H608 0.929 . S
C621 C613 1.433 1_545 S
C621 N623 1.384 . S
N622 C618 1.427 . S
N622 C619 1.384 . S
N623 C615 1.427 . S
N623 C621 1.384 . S
H624 C630 0.930 . S
H625 C634 0.930 . S
H626 C639 0.929 . S
H627 C637 0.929 . S
H628 C632 0.929 . S
H629 C638 0.929 . S
C630 H624 0.930 . S
C630 C631 1.367 . S
C630 C638 1.378 . S
C631 C630 1.367 . S
C631 C639 1.433 . S
C632 H628 0.929 . S
C632 C634 1.378 . S
C632 C636 1.350 . S
C633 C636 1.463 . S
C633 C638 1.350 . S
C633 N641 1.427 . S
C634 H625 0.930 . S
C634 C632 1.378 . S
C634 C635 1.367 . S
C635 C634 1.367 . S
C635 C637 1.433 . S
C636 C632 1.350 . S
C636 C633 1.463 . S
C636 N640 1.427 . S
C637 H627 0.929 . S
C637 C635 1.433 . S
C637 N640 1.384 . S
C638 H629 0.929 . S
C638 C630 1.378 . S
C638 C633 1.350 . S
C639 H626 0.929 . S
C639 C631 1.433 . S
C639 N641 1.384 . S
N640 C636 1.427 . S
N640 C637 1.384 . S
N641 C633 1.427 . S
N641 C639 1.384 . S
H642 C648 0.930 . S
H643 C652 0.930 . S
H644 C657 0.929 . S
H645 C655 0.929 . S
H646 C650 0.929 . S
H647 C656 0.928 . S
C648 H642 0.930 . S
C648 C649 1.367 . S
C648 C656 1.391 . S
C649 C648 1.367 . S
C649 C657 1.433 . S
C650 H646 0.929 . S
C650 C652 1.378 . S
C650 C654 1.350 1_455 S
C651 C654 1.463 . S
C651 C656 1.338 1_556 S
C651 N659 1.427 . S
C652 H643 0.930 . S
C652 C650 1.378 . S
C652 C653 1.367 . S
C653 C652 1.367 . S
C653 C655 1.433 1_455 S
C654 C650 1.350 1_655 S
C654 C651 1.463 . S
C654 N658 1.427 . S
C655 H645 0.929 . S
C655 C653 1.433 1_655 S
C655 N658 1.384 . S
C656 H647 0.928 . S
C656 C648 1.391 . S
C656 C651 1.338 1_554 S
C657 H644 0.929 . S
C657 C649 1.433 . S
C657 N659 1.384 1_554 S
N658 C654 1.427 . S
N658 C655 1.384 . S
N659 C651 1.427 . S
N659 C657 1.384 1_556 S
H660 C666 0.930 . S
H661 C670 0.930 . S
H662 C675 0.929 . S
H663 C673 0.929 . S
H664 C668 0.929 . S
H665 C674 0.929 . S
C666 H660 0.930 . S
C666 C667 1.367 . S
C666 C674 1.378 . S
C667 C666 1.367 . S
C667 C675 1.433 1_545 S
C668 H664 0.929 . S
C668 C670 1.378 . S
C668 C672 1.350 . S
C669 C672 1.463 . S
C669 C674 1.350 1_565 S
C669 N677 1.427 . S
C670 H661 0.930 . S
C670 C668 1.378 . S
C670 C671 1.367 . S
C671 C670 1.367 . S
C671 C673 1.433 . S
C672 C668 1.350 . S
C672 C669 1.463 . S
C672 N676 1.427 . S
C673 H663 0.929 . S
C673 C671 1.433 . S
C673 N676 1.384 . S
C674 H665 0.929 . S
C674 C666 1.378 . S
C674 C669 1.350 1_545 S
C675 H662 0.929 . S
C675 C667 1.433 1_565 S
C675 N677 1.384 . S
N676 C672 1.427 . S
N676 C673 1.384 . S
N677 C669 1.427 . S
N677 C675 1.384 . S
H678 C684 0.930 . S
H679 C688 0.930 . S
H680 C693 0.929 . S
H681 C691 0.929 . S
H682 C686 0.929 . S
H683 C692 0.929 . S
C684 H678 0.930 . S
C684 C685 1.367 . S
C684 C692 1.378 . S
C685 C684 1.367 . S
C685 C693 1.433 . S
C686 H682 0.929 . S
C686 C688 1.378 . S
C686 C690 1.350 . S
C687 C690 1.463 . S
C687 C692 1.350 . S
C687 N695 1.427 . S
C688 H679 0.930 . S
C688 C686 1.378 . S
C688 C689 1.367 . S
C689 C688 1.367 . S
C689 C691 1.433 . S
C690 C686 1.350 . S
C690 C687 1.463 . S
C690 N694 1.427 . S
C691 H681 0.929 . S
C691 C689 1.433 . S
C691 N694 1.384 . S
C692 H683 0.929 . S
C692 C684 1.378 . S
C692 C687 1.350 . S
C693 H680 0.929 . S
C693 C685 1.433 . S
C693 N695 1.384 . S
N694 C690 1.427 . S
N694 C691 1.384 . S
N695 C687 1.427 . S
N695 C693 1.384 . S
H696 C702 0.930 . S
H697 C706 0.930 . S
H698 C711 0.929 1_655 S
H699 C709 0.929 1_545 S
H700 C704 0.929 . S
H701 C710 0.929 . S
C702 H696 0.930 . S
C702 C703 1.367 . S
C702 C710 1.378 . S
C703 C702 1.367 . S
C703 C711 1.433 . S
C704 H700 0.929 . S
C704 C706 1.378 . S
C704 C708 1.350 . S
C705 C708 1.463 . S
C705 C710 1.350 . S
C705 N713 1.427 . S
C706 H697 0.930 . S
C706 C704 1.378 . S
C706 C707 1.367 . S
C707 C706 1.367 . S
C707 C709 1.433 . S
C708 C704 1.350 . S
C708 C705 1.463 . S
C708 N712 1.427 . S
C709 H699 0.929 1_565 S
C709 C707 1.433 . S
C709 N712 1.384 . S
C710 H701 0.929 . S
C710 C702 1.378 . S
C710 C705 1.350 . S
C711 H698 0.929 1_455 S
C711 C703 1.433 . S
C711 N713 1.384 . S
N712 C708 1.427 . S
N712 C709 1.384 . S
N713 C705 1.427 . S
N713 C711 1.384 . S
H714 C720 0.930 . S
H715 C724 0.930 . S
H716 C729 0.929 . S
H717 C727 0.929 . S
H718 C722 0.929 . S
H719 C728 0.929 . S
C720 H714 0.930 . S
C720 C721 1.367 . S
C720 C728 1.378 . S
C721 C720 1.367 . S
C721 C729 1.433 . S
C722 H718 0.929 . S
C722 C724 1.378 . S
C722 C726 1.350 . S
C723 C726 1.463 . S
C723 C728 1.350 . S
C723 N731 1.427 . S
C724 H715 0.930 . S
C724 C722 1.378 . S
C724 C725 1.367 . S
C725 C724 1.367 . S
C725 C727 1.433 1_545 S
C726 C722 1.350 . S
C726 C723 1.463 . S
C726 N730 1.427 . S
C727 H717 0.929 . S
C727 C725 1.433 1_565 S
C727 N730 1.384 1_565 S
C728 H719 0.929 . S
C728 C720 1.378 . S
C728 C723 1.350 . S
C729 H716 0.929 . S
C729 C721 1.433 . S
C729 N731 1.384 . S
N730 C726 1.427 . S
N730 C727 1.384 1_545 S
N731 C723 1.427 . S
N731 C729 1.384 . S
H732 C738 0.930 . S
H733 C742 0.930 . S
H734 C747 0.929 . S
H735 C745 0.929 1_655 S
H736 C740 0.929 . S
H737 C746 0.929 . S
C738 H732 0.930 . S
C738 C739 1.367 . S
C738 C746 1.378 . S
C739 C738 1.367 . S
C739 C747 1.433 . S
C740 H736 0.929 . S
C740 C742 1.378 . S
C740 C744 1.350 . S
C741 C744 1.463 . S
C741 C746 1.350 . S
C741 N749 1.427 . S
C742 H733 0.930 . S
C742 C740 1.378 . S
C742 C743 1.367 . S
C743 C742 1.367 . S
C743 C745 1.433 . S
C744 C740 1.350 . S
C744 C741 1.463 . S
C744 N748 1.427 . S
C745 H735 0.929 1_455 S
C745 C743 1.433 . S
C745 N748 1.384 . S
C746 H737 0.929 . S
C746 C738 1.378 . S
C746 C741 1.350 . S
C747 H734 0.929 . S
C747 C739 1.433 . S
C747 N749 1.384 . S
N748 C744 1.427 . S
N748 C745 1.384 . S
N749 C741 1.427 . S
N749 C747 1.384 . S
H750 C756 0.930 . S
H751 C760 0.930 1_455 S
H752 C765 0.929 . S
H753 C763 0.929 . S
H754 C758 0.929 . S
H755 C764 0.929 . S
C756 H750 0.930 . S
C756 C757 1.367 . S
C756 C764 1.378 . S
C757 C756 1.367 . S
C757 C765 1.433 1_545 S
C758 H754 0.929 . S
C758 C760 1.378 . S
C758 C762 1.350 . S
C759 C762 1.463 . S
C759 C764 1.350 . S
C759 N767 1.427 . S
C760 H751 0.930 1_655 S
C760 C758 1.378 . S
C760 C761 1.367 . S
C761 C760 1.367 . S
C761 C763 1.433 . S
C762 C758 1.350 . S
C762 C759 1.463 . S
C762 N766 1.427 . S
C763 H753 0.929 . S
C763 C761 1.433 . S
C763 N766 1.384 . S
C764 H755 0.929 . S
C764 C756 1.378 . S
C764 C759 1.350 . S
C765 H752 0.929 . S
C765 C757 1.433 1_565 S
C765 N767 1.384 1_565 S
N766 C762 1.427 . S
N766 C763 1.384 . S
N767 C759 1.427 . S
N767 C765 1.384 1_545 S
H768 C774 0.930 . S
H769 C778 0.930 . S
H770 C783 0.929 . S
H771 C781 0.929 . S
H772 C776 0.929 . S
H773 C782 0.929 . S
C774 H768 0.930 . S
C774 C775 1.367 1_545 S
C774 C782 1.378 1_545 S
C775 C774 1.367 1_565 S
C775 C783 1.433 . S
C776 H772 0.929 . S
C776 C778 1.378 . S
C776 C780 1.350 . S
C777 C780 1.463 . S
C777 C782 1.350 . S
C777 N785 1.427 . S
C778 H769 0.930 . S
C778 C776 1.378 . S
C778 C779 1.367 . S
C779 C778 1.367 . S
C779 C781 1.433 . S
C780 C776 1.350 . S
C780 C777 1.463 . S
C780 N784 1.427 . S
C781 H771 0.929 . S
C781 C779 1.433 . S
C781 N784 1.384 . S
C782 H773 0.929 . S
C782 C774 1.378 1_565 S
C782 C777 1.350 . S
C783 H770 0.929 . S
C783 C775 1.433 . S
C783 N785 1.384 . S
N784 C780 1.427 . S
N784 C781 1.384 . S
N785 C777 1.427 . S
N785 C783 1.384 . S
H786 C792 0.930 . S
H787 C796 0.930 . S
H788 C801 0.929 . S
H789 C799 0.929 . S
H790 C794 0.929 . S
H791 C800 0.929 . S
C792 H786 0.930 . S
C792 C793 1.367 . S
C792 C800 1.378 . S
C793 C792 1.367 . S
C793 C801 1.433 . S
C794 H790 0.929 . S
C794 C796 1.378 . S
C794 C798 1.350 . S
C795 C798 1.463 . S
C795 C800 1.350 . S
C795 N803 1.427 . S
C796 H787 0.930 . S
C796 C794 1.378 . S
C796 C797 1.367 . S
C797 C796 1.367 . S
C797 C799 1.433 1_655 S
C798 C794 1.350 . S
C798 C795 1.463 . S
C798 N802 1.427 . S
C799 H789 0.929 . S
C799 C797 1.433 1_455 S
C799 N802 1.384 1_455 S
C800 H791 0.929 . S
C800 C792 1.378 . S
C800 C795 1.350 . S
C801 H788 0.929 . S
C801 C793 1.433 . S
C801 N803 1.384 . S
N802 C798 1.427 . S
N802 C799 1.384 1_655 S
N803 C795 1.427 . S
N803 C801 1.384 . S
H804 C810 0.930 . S
H805 C814 0.930 . S
H806 C819 0.929 . S
H807 C817 0.929 . S
H808 C812 0.929 . S
H809 C818 0.929 . S
C810 H804 0.930 . S
C810 C811 1.367 . S
C810 C818 1.378 . S
C811 C810 1.367 . S
C811 C819 1.433 . S
C812 H808 0.929 . S
C812 C814 1.378 . S
C812 C816 1.350 . S
C813 C816 1.463 . S
C813 C818 1.350 . S
C813 N821 1.427 . S
C814 H805 0.930 . S
C814 C812 1.378 . S
C814 C815 1.367 . S
C815 C814 1.367 . S
C815 C817 1.433 . S
C816 C812 1.350 . S
C816 C813 1.463 . S
C816 N820 1.427 . S
C817 H807 0.929 . S
C817 C815 1.433 . S
C817 N820 1.384 . S
C818 H809 0.929 . S
C818 C810 1.378 . S
C818 C813 1.350 . S
C819 H806 0.929 . S
C819 C811 1.433 . S
C819 N821 1.384 . S
N820 C816 1.427 . S
N820 C817 1.384 . S
N821 C813 1.427 . S
N821 C819 1.384 . S
H822 C828 0.930 . S
H823 C832 0.930 . S
H824 C837 0.929 . S
H825 C835 0.929 . S
H826 C830 0.929 . S
H827 C836 0.929 . S
C828 H822 0.930 . S
C828 C829 1.367 . S
C828 C836 1.378 . S
C829 C828 1.367 . S
C829 C837 1.433 . S
C830 H826 0.929 . S
C830 C832 1.378 . S
C830 C834 1.350 . S
C831 C834 1.463 . S
C831 C836 1.350 . S
C831 N839 1.427 . S
C832 H823 0.930 . S
C832 C830 1.378 . S
C832 C833 1.367 . S
C833 C832 1.367 . S
C833 C835 1.433 . S
C834 C830 1.350 . S
C834 C831 1.463 . S
C834 N838 1.427 . S
C835 H825 0.929 . S
C835 C833 1.433 . S
C835 N838 1.384 . S
C836 H827 0.929 . S
C836 C828 1.378 . S
C836 C831 1.350 . S
C837 H824 0.929 . S
C837 C829 1.433 . S
C837 N839 1.384 . S
N838 C834 1.427 . S
N838 C835 1.384 . S
N839 C831 1.427 . S
N839 C837 1.384 . S
H840 C846 0.930 . S
H841 C850 0.930 . S
H842 C855 0.929 . S
H843 C853 0.929 . S
H844 C848 0.929 . S
H845 C854 0.929 . S
C846 H840 0.930 . S
C846 C847 1.367 . S
C846 C854 1.378 . S
C847 C846 1.367 . S
C847 C855 1.433 . S
C848 H844 0.929 . S
C848 C850 1.378 . S
C848 C852 1.350 . S
C849 C852 1.463 . S
C849 C854 1.350 . S
C849 N857 1.427 . S
C850 H841 0.930 . S
C850 C848 1.378 . S
C850 C851 1.367 . S
C851 C850 1.367 . S
C851 C853 1.433 . S
C852 C848 1.350 . S
C852 C849 1.463 . S
C852 N856 1.427 . S
C853 H843 0.929 . S
C853 C851 1.433 . S
C853 N856 1.384 . S
C854 H845 0.929 . S
C854 C846 1.378 . S
C854 C849 1.350 . S
C855 H842 0.929 . S
C855 C847 1.433 . S
C855 N857 1.384 . S
N856 C852 1.427 . S
N856 C853 1.384 . S
N857 C849 1.427 . S
N857 C855 1.384 . S
H858 C864 0.930 . S
H859 C868 0.930 . S
H860 C873 0.929 . S
H861 C871 0.929 . S
H862 C866 0.929 . S
H863 C872 0.929 . S
C864 H858 0.930 . S
C864 C865 1.367 . S
C864 C872 1.378 . S
C865 C864 1.367 . S
C865 C873 1.433 . S
C866 H862 0.929 . S
C866 C868 1.378 . S
C866 C870 1.350 . S
C867 C870 1.463 . S
C867 C872 1.350 . S
C867 N875 1.427 . S
C868 H859 0.930 . S
C868 C866 1.378 . S
C868 C869 1.367 . S
C869 C868 1.367 . S
C869 C871 1.433 . S
C870 C866 1.350 . S
C870 C867 1.463 . S
C870 N874 1.427 . S
C871 H861 0.929 . S
C871 C869 1.433 . S
C871 N874 1.384 . S
C872 H863 0.929 . S
C872 C864 1.378 . S
C872 C867 1.350 . S
C873 H860 0.929 . S
C873 C865 1.433 . S
C873 N875 1.384 . S
N874 C870 1.427 . S
N874 C871 1.384 . S
N875 C867 1.427 . S
N875 C873 1.384 . S
H876 C882 0.930 . S
H877 C886 0.930 . S
H878 C891 0.929 . S
H879 C889 0.929 . S
H880 C884 0.929 . S
H881 C890 0.929 . S
C882 H876 0.930 . S
C882 C883 1.367 . S
C882 C890 1.378 . S
C883 C882 1.367 . S
C883 C891 1.433 . S
C884 H880 0.929 . S
C884 C886 1.378 . S
C884 C888 1.350 . S
C885 C888 1.463 . S
C885 C890 1.350 . S
C885 N893 1.427 . S
C886 H877 0.930 . S
C886 C884 1.378 . S
C886 C887 1.367 . S
C887 C886 1.367 . S
C887 C889 1.433 . S
C888 C884 1.350 . S
C888 C885 1.463 . S
C888 N892 1.427 . S
C889 H879 0.929 . S
C889 C887 1.433 . S
C889 N892 1.384 . S
C890 H881 0.929 . S
C890 C882 1.378 . S
C890 C885 1.350 . S
C891 H878 0.929 . S
C891 C883 1.433 . S
C891 N893 1.384 . S
N892 C888 1.427 . S
N892 C889 1.384 . S
N893 C885 1.427 . S
N893 C891 1.384 . S
H894 C900 0.930 . S
H895 C904 0.930 . S
H896 C909 0.929 . S
H897 C907 0.929 . S
H898 C902 0.929 . S
H899 C908 0.929 . S
C900 H894 0.930 . S
C900 C901 1.367 . S
C900 C908 1.378 . S
C901 C900 1.367 . S
C901 C909 1.433 . S
C902 H898 0.929 . S
C902 C904 1.378 . S
C902 C906 1.350 . S
C903 C906 1.463 . S
C903 C908 1.350 . S
C903 N911 1.427 . S
C904 H895 0.930 . S
C904 C902 1.378 . S
C904 C905 1.367 . S
C905 C904 1.367 . S
C905 C907 1.433 . S
C906 C902 1.350 . S
C906 C903 1.463 . S
C906 N910 1.427 . S
C907 H897 0.929 . S
C907 C905 1.433 . S
C907 N910 1.384 . S
C908 H899 0.929 . S
C908 C900 1.378 . S
C908 C903 1.350 . S
C909 H896 0.929 . S
C909 C901 1.433 . S
C909 N911 1.384 . S
N910 C906 1.427 . S
N910 C907 1.384 . S
N911 C903 1.427 . S
N911 C909 1.384 . S
C271 C117 1.058 . S
C275 C18 1.053 . S
C289 C32 1.047 . S
C293 C15 1.049 . S
C307 C54 1.044 . S
C311 C43 1.053 . S
C325 C65 1.056 . S
C329 C84 1.047 . S
C343 C81 1.051 . S
C347 C106 1.053 . S
C361 C118 1.044 . S
C365 C103 1.052 . S
C379 C169 1.052 . S
C383 C150 1.054 . S
C397 C172 1.048 . S
C401 C191 1.057 . S
C415 C205 1.049 . S
C419 C194 1.048 . S
C433 C227 1.058 . S
C437 C206 1.052 . S
C451 C263 1.054 . S
C455 C228 1.044 . S
C469 C147 1.058 . S
C473 C252 1.050 . S
C487 C257 1.341 . S
C491 C8 1.337 . S
C505 C40 1.348 . S
C509 C139 1.347 . S
C523 C161 1.346 . S
C527 C62 1.347 . S
C541 C183 1.349 . S
C545 C74 1.349 . S
C559 C219 1.346 . S
C563 C96 1.347 . S
C577 C120 1.346 . S
C581 C241 1.351 . S
C595 C140 1.342 . S
C599 C37 1.349 . S
C613 C162 1.340 . S
C617 C59 1.341 . S
C631 C73 1.344 . S
C635 C184 1.346 . S
C649 C95 1.342 . S
C653 C208 1.342 . S
C667 C230 1.342 . S
C671 C131 1.342 . S
C685 C260 1.346 . S
C689 C7 1.351 . S
C703 C142 1.085 1_455 S
C707 C10 1.085 1_565 S
C721 C30 1.084 . S
C725 C164 1.085 1_545 S
C739 C186 1.077 . S
C743 C52 1.081 1_455 S
C757 C76 1.083 1_545 S
C761 C216 1.081 1_655 S
C775 C238 1.076 1_565 S
C779 C98 1.079 . S
C793 C250 1.082 . S
C797 C128 1.084 1_655 S
C811 C153 0.925 . S
C815 C21 0.922 . S
C829 C175 0.920 . S
C833 C29 0.917 . S
C847 C197 0.922 . S
C851 C51 0.919 . S
C865 C87 0.923 . S
C869 C213 0.925 . S
C883 C235 0.915 . S
C887 C109 0.915 . S
C901 C249 0.925 . S
C905 C125 0.923 . S
