# Generated by pormake.
# Topology lcs, (4)-cn, num edge types: 1
# Building blocks:
#     Node 0, Type 0, BuildingBlock: GALJAG_clean_sbu_0, # of connection points: 4
#     Node 1, Type 0, BuildingBlock: GALJAG_clean_sbu_0, # of connection points: 4
#     Node 2, Type 0, BuildingBlock: GALJAG_clean_sbu_0, # of connection points: 4
#     Node 3, Type 0, BuildingBlock: GALJAG_clean_sbu_0, # of connection points: 4
#     Node 4, Type 0, BuildingBlock: GALJAG_clean_sbu_0, # of connection points: 4
#     Node 5, Type 0, BuildingBlock: GALJAG_clean_sbu_0, # of connection points: 4
#     Node 6, Type 0, BuildingBlock: GALJAG_clean_sbu_0, # of connection points: 4
#     Node 7, Type 0, BuildingBlock: GALJAG_clean_sbu_0, # of connection points: 4
#     Node 8, Type 0, BuildingBlock: GALJAG_clean_sbu_0, # of connection points: 4
#     Node 9, Type 0, BuildingBlock: GALJAG_clean_sbu_0, # of connection points: 4
#     Node 10, Type 0, BuildingBlock: GALJAG_clean_sbu_0, # of connection points: 4
#     Node 11, Type 0, BuildingBlock: GALJAG_clean_sbu_0, # of connection points: 4
#     Node 12, Type 0, BuildingBlock: GALJAG_clean_sbu_0, # of connection points: 4
#     Node 13, Type 0, BuildingBlock: GALJAG_clean_sbu_0, # of connection points: 4
#     Node 14, Type 0, BuildingBlock: GALJAG_clean_sbu_0, # of connection points: 4
#     Node 15, Type 0, BuildingBlock: GALJAG_clean_sbu_0, # of connection points: 4
#     Node 16, Type 0, BuildingBlock: GALJAG_clean_sbu_0, # of connection points: 4
#     Node 17, Type 0, BuildingBlock: GALJAG_clean_sbu_0, # of connection points: 4
#     Node 18, Type 0, BuildingBlock: GALJAG_clean_sbu_0, # of connection points: 4
#     Node 19, Type 0, BuildingBlock: GALJAG_clean_sbu_0, # of connection points: 4
#     Node 20, Type 0, BuildingBlock: GALJAG_clean_sbu_0, # of connection points: 4
#     Node 21, Type 0, BuildingBlock: GALJAG_clean_sbu_0, # of connection points: 4
#     Node 22, Type 0, BuildingBlock: GALJAG_clean_sbu_0, # of connection points: 4
#     Node 23, Type 0, BuildingBlock: GALJAG_clean_sbu_0, # of connection points: 4
#     Edge 24, Type (0, 0), BuildingBlock: EZIPEK_clean_linker_0, # of connection points: 2
#     Edge 25, Type (0, 0), BuildingBlock: EZIPEK_clean_linker_0, # of connection points: 2
#     Edge 26, Type (0, 0), BuildingBlock: EZIPEK_clean_linker_0, # of connection points: 2
#     Edge 27, Type (0, 0), BuildingBlock: EZIPEK_clean_linker_0, # of connection points: 2
#     Edge 28, Type (0, 0), BuildingBlock: EZIPEK_clean_linker_0, # of connection points: 2
#     Edge 29, Type (0, 0), BuildingBlock: EZIPEK_clean_linker_0, # of connection points: 2
#     Edge 30, Type (0, 0), BuildingBlock: EZIPEK_clean_linker_0, # of connection points: 2
#     Edge 31, Type (0, 0), BuildingBlock: EZIPEK_clean_linker_0, # of connection points: 2
#     Edge 32, Type (0, 0), BuildingBlock: EZIPEK_clean_linker_0, # of connection points: 2
#     Edge 33, Type (0, 0), BuildingBlock: EZIPEK_clean_linker_0, # of connection points: 2
#     Edge 34, Type (0, 0), BuildingBlock: EZIPEK_clean_linker_0, # of connection points: 2
#     Edge 35, Type (0, 0), BuildingBlock: EZIPEK_clean_linker_0, # of connection points: 2
#     Edge 36, Type (0, 0), BuildingBlock: EZIPEK_clean_linker_0, # of connection points: 2
#     Edge 37, Type (0, 0), BuildingBlock: EZIPEK_clean_linker_0, # of connection points: 2
#     Edge 38, Type (0, 0), BuildingBlock: EZIPEK_clean_linker_0, # of connection points: 2
#     Edge 39, Type (0, 0), BuildingBlock: EZIPEK_clean_linker_0, # of connection points: 2
#     Edge 40, Type (0, 0), BuildingBlock: EZIPEK_clean_linker_0, # of connection points: 2
#     Edge 41, Type (0, 0), BuildingBlock: EZIPEK_clean_linker_0, # of connection points: 2
#     Edge 42, Type (0, 0), BuildingBlock: EZIPEK_clean_linker_0, # of connection points: 2
#     Edge 43, Type (0, 0), BuildingBlock: EZIPEK_clean_linker_0, # of connection points: 2
#     Edge 44, Type (0, 0), BuildingBlock: EZIPEK_clean_linker_0, # of connection points: 2
#     Edge 45, Type (0, 0), BuildingBlock: EZIPEK_clean_linker_0, # of connection points: 2
#     Edge 46, Type (0, 0), BuildingBlock: EZIPEK_clean_linker_0, # of connection points: 2
#     Edge 47, Type (0, 0), BuildingBlock: EZIPEK_clean_linker_0, # of connection points: 2
#     Edge 48, Type (0, 0), BuildingBlock: EZIPEK_clean_linker_0, # of connection points: 2
#     Edge 49, Type (0, 0), BuildingBlock: EZIPEK_clean_linker_0, # of connection points: 2
#     Edge 50, Type (0, 0), BuildingBlock: EZIPEK_clean_linker_0, # of connection points: 2
#     Edge 51, Type (0, 0), BuildingBlock: EZIPEK_clean_linker_0, # of connection points: 2
#     Edge 52, Type (0, 0), BuildingBlock: EZIPEK_clean_linker_0, # of connection points: 2
#     Edge 53, Type (0, 0), BuildingBlock: EZIPEK_clean_linker_0, # of connection points: 2
#     Edge 54, Type (0, 0), BuildingBlock: EZIPEK_clean_linker_0, # of connection points: 2
#     Edge 55, Type (0, 0), BuildingBlock: EZIPEK_clean_linker_0, # of connection points: 2
#     Edge 56, Type (0, 0), BuildingBlock: EZIPEK_clean_linker_0, # of connection points: 2
#     Edge 57, Type (0, 0), BuildingBlock: EZIPEK_clean_linker_0, # of connection points: 2
#     Edge 58, Type (0, 0), BuildingBlock: EZIPEK_clean_linker_0, # of connection points: 2
#     Edge 59, Type (0, 0), BuildingBlock: EZIPEK_clean_linker_0, # of connection points: 2
#     Edge 60, Type (0, 0), BuildingBlock: EZIPEK_clean_linker_0, # of connection points: 2
#     Edge 61, Type (0, 0), BuildingBlock: EZIPEK_clean_linker_0, # of connection points: 2
#     Edge 62, Type (0, 0), BuildingBlock: EZIPEK_clean_linker_0, # of connection points: 2
#     Edge 63, Type (0, 0), BuildingBlock: EZIPEK_clean_linker_0, # of connection points: 2
#     Edge 64, Type (0, 0), BuildingBlock: EZIPEK_clean_linker_0, # of connection points: 2
#     Edge 65, Type (0, 0), BuildingBlock: EZIPEK_clean_linker_0, # of connection points: 2
#     Edge 66, Type (0, 0), BuildingBlock: EZIPEK_clean_linker_0, # of connection points: 2
#     Edge 67, Type (0, 0), BuildingBlock: EZIPEK_clean_linker_0, # of connection points: 2
#     Edge 68, Type (0, 0), BuildingBlock: EZIPEK_clean_linker_0, # of connection points: 2
#     Edge 69, Type (0, 0), BuildingBlock: EZIPEK_clean_linker_0, # of connection points: 2
#     Edge 70, Type (0, 0), BuildingBlock: EZIPEK_clean_linker_0, # of connection points: 2
#     Edge 71, Type (0, 0), BuildingBlock: EZIPEK_clean_linker_0, # of connection points: 2
# Relax obj value: 0.033
# Max RMSD: 0.061
# Mean RMSD: 0.060
data_MOF--net-lcs--node1-GALJAG_clean_sbu_0--edge1-EZIPEK_clean_linker_0
_symmetry_space_group_name_H-M    P1
_symmetry_Int_Tables_number       1
_symmetry_cell_setting            triclinic
loop_
_symmetry_equiv_pos_as_xyz
'x, y, z'
_cell_length_a     36.463387
_cell_length_b     36.458529
_cell_length_c     36.46411
_cell_angle_alpha  90.143054
_cell_angle_beta   90.122313
_cell_angle_gamma 90.132882
loop_
_atom_site_label
_atom_site_type_symbol
_atom_site_fract_x
_atom_site_fract_y
_atom_site_fract_z
_atom_type_partial_charge
In0 In 0.00199 0.25164 0.37668 0.0
O1 O 0.03284 0.2264 0.42522 0.0
O2 O 0.06245 0.23672 0.37619 0.0
C3 C 0.94183 0.27952 0.40869 0.0
C4 C 0.02755 0.31335 0.34571 0.0
C5 C 0.97595 0.19146 0.34229 0.0
O6 O 0.97021 0.27146 0.42687 0.0
O7 O 0.94378 0.27339 0.37471 0.0
O8 O 0.98853 0.21862 0.32493 0.0
O9 O 0.97681 0.19452 0.37671 0.0
C10 C 0.06309 0.2247 0.40854 0.0
O11 O 0.01793 0.2858 0.32687 0.0
O12 O 0.02392 0.30988 0.37995 0.0
In13 In 0.00035 0.75098 0.62756 0.0
O14 O 0.03381 0.73626 0.57664 0.0
O15 O 0.05729 0.72582 0.62915 0.0
C16 C 0.94008 0.77867 0.5949 0.0
C17 C 0.971 0.69123 0.65995 0.0
C18 C 0.03049 0.81025 0.65994 0.0
O19 O 0.96545 0.76351 0.57691 0.0
O20 O 0.94506 0.77973 0.6291 0.0
O21 O 0.02341 0.78126 0.67749 0.0
O22 O 0.02247 0.80926 0.62629 0.0
C23 C 0.06072 0.72411 0.59476 0.0
O24 O 0.97569 0.72109 0.67693 0.0
O25 O 0.98128 0.69151 0.62699 0.0
In26 In 0.50131 0.75068 0.8742 0.0
O27 O 0.53379 0.73935 0.92651 0.0
O28 O 0.55795 0.72457 0.87533 0.0
C29 C 0.44037 0.77896 0.90513 0.0
C30 C 0.53151 0.80893 0.84035 0.0
C31 C 0.47309 0.68952 0.84301 0.0
O32 O 0.46405 0.76155 0.9233 0.0
O33 O 0.44755 0.78248 0.87155 0.0
O34 O 0.48105 0.71763 0.82453 0.0
O35 O 0.47981 0.69209 0.87679 0.0
C36 C 0.56072 0.72554 0.90981 0.0
O37 O 0.51966 0.78145 0.82277 0.0
O38 O 0.52854 0.80687 0.87475 0.0
In39 In 0.49861 0.24817 0.12768 0.0
O40 O 0.53305 0.23071 0.07813 0.0
O41 O 0.5569 0.2258 0.13101 0.0
C42 C 0.44026 0.27778 0.09354 0.0
C43 C 0.46808 0.18764 0.15756 0.0
C44 C 0.5245 0.30764 0.16325 0.0
O45 O 0.46689 0.26427 0.07604 0.0
O46 O 0.44323 0.27679 0.12801 0.0
O47 O 0.51422 0.27917 0.18001 0.0
O48 O 0.52141 0.30636 0.1288 0.0
C49 C 0.56053 0.22138 0.09696 0.0
O50 O 0.4831 0.21233 0.1767 0.0
O51 O 0.46833 0.19349 0.12354 0.0
In52 In 0.00171 0.75177 0.12742 0.0
O53 O 0.01456 0.71592 0.17697 0.0
O54 O 0.03137 0.69703 0.12427 0.0
C55 C 0.97456 0.81086 0.16249 0.0
C56 C 0.06176 0.77893 0.09428 0.0
C57 C 0.94076 0.7259 0.09421 0.0
O58 O 0.98942 0.78469 0.17952 0.0
O59 O 0.97345 0.80722 0.12815 0.0
O60 O 0.9634 0.74648 0.0781 0.0
O61 O 0.94891 0.71823 0.12691 0.0
C62 C 0.03017 0.69124 0.15834 0.0
O63 O 0.03693 0.76215 0.07682 0.0
O64 O 0.05643 0.78195 0.12831 0.0
In65 In 0.50021 0.74936 0.37586 0.0
O66 O 0.47015 0.72489 0.42503 0.0
O67 O 0.43998 0.73355 0.3757 0.0
C68 C 0.56113 0.77554 0.40932 0.0
C69 C 0.52448 0.68859 0.34145 0.0
C70 C 0.47355 0.80963 0.34252 0.0
O71 O 0.5307 0.77346 0.4256 0.0
O72 O 0.56092 0.76381 0.37684 0.0
O73 O 0.48421 0.78186 0.32474 0.0
O74 O 0.47664 0.80705 0.37686 0.0
C75 C 0.43975 0.72244 0.40845 0.0
O76 O 0.5223 0.71921 0.32548 0.0
O77 O 0.51367 0.68856 0.37429 0.0
In78 In 0.50258 0.25045 0.62593 0.0
O79 O 0.51908 0.21727 0.67648 0.0
O80 O 0.52548 0.19261 0.62387 0.0
C81 C 0.47434 0.31059 0.65843 0.0
C82 C 0.56266 0.27932 0.5939 0.0
C83 C 0.44331 0.22083 0.59321 0.0
O84 O 0.48884 0.28493 0.67657 0.0
O85 O 0.47422 0.30594 0.62416 0.0
O86 O 0.47241 0.22788 0.57583 0.0
O87 O 0.44415 0.22869 0.62692 0.0
C88 C 0.52922 0.18966 0.65813 0.0
O89 O 0.53309 0.27414 0.57658 0.0
O90 O 0.56195 0.26985 0.62708 0.0
In91 In 0.99916 0.25271 0.87225 0.0
O92 O 0.96203 0.24742 0.92224 0.0
O93 O 0.94424 0.2229 0.87217 0.0
C94 C 0.06002 0.2779 0.9063 0.0
C95 C 0.02717 0.19201 0.84072 0.0
C96 C 0.97063 0.31105 0.83737 0.0
O97 O 0.03551 0.26011 0.923 0.0
O98 O 0.05394 0.28283 0.87265 0.0
O99 O 0.97959 0.28216 0.82048 0.0
O100 O 0.97609 0.31046 0.8715 0.0
C101 C 0.93774 0.22901 0.90561 0.0
O102 O 0.02338 0.2217 0.82337 0.0
O103 O 0.01668 0.19297 0.87362 0.0
In104 In 0.37269 0.99728 0.25034 0.0
O105 O 0.32365 0.00673 0.28781 0.0
O106 O 0.37538 0.02833 0.30447 0.0
C107 C 0.33935 0.96999 0.19035 0.0
C108 C 0.40303 0.05782 0.22144 0.0
C109 C 0.40687 0.938 0.27775 0.0
O110 O 0.32155 0.98368 0.21665 0.0
O111 O 0.3737 0.97011 0.19423 0.0
O112 O 0.42428 0.96486 0.26459 0.0
O113 O 0.37246 0.94102 0.27708 0.0
C114 C 0.34176 0.02441 0.31155 0.0
O115 O 0.42207 0.03127 0.23279 0.0
O116 O 0.3688 0.05394 0.22466 0.0
In117 In 0.25204 0.12555 0.50019 0.0
O118 O 0.22889 0.07653 0.53151 0.0
O119 O 0.2299 0.12833 0.55844 0.0
C120 C 0.27945 0.09009 0.44154 0.0
C121 C 0.19338 0.16061 0.47226 0.0
C122 C 0.31375 0.15629 0.5272 0.0
O123 O 0.27146 0.07371 0.4709 0.0
O124 O 0.27347 0.12417 0.44159 0.0
O125 O 0.28698 0.17521 0.51618 0.0
O126 O 0.30961 0.12209 0.52413 0.0
C127 C 0.22184 0.09477 0.56005 0.0
O128 O 0.2204 0.17772 0.48566 0.0
O129 O 0.19608 0.12615 0.47257 0.0
In130 In 0.12661 0.00234 0.75037 0.0
O131 O 0.07489 0.03402 0.76627 0.0
O132 O 0.12674 0.05918 0.77622 0.0
C133 C 0.09531 0.94064 0.72396 0.0
C134 C 0.15737 0.03154 0.69004 0.0
C135 C 0.16197 0.97475 0.80894 0.0
O136 O 0.07662 0.96794 0.73409 0.0
O137 O 0.1295 0.94433 0.72752 0.0
O138 O 0.17824 0.98195 0.77931 0.0
O139 O 0.12813 0.98182 0.80927 0.0
C140 C 0.0923 0.06161 0.77806 0.0
O141 O 0.17558 0.02508 0.71874 0.0
O142 O 0.12383 0.02338 0.69172 0.0
In143 In 0.25044 0.87415 0.99838 0.0
O144 O 0.21785 0.82368 0.0159 0.0
O145 O 0.19367 0.87627 0.02392 0.0
C146 C 0.3098 0.84087 0.97001 0.0
C147 C 0.22468 0.90782 0.93792 0.0
C148 C 0.2764 0.90658 0.0594 0.0
O149 O 0.28148 0.82319 0.97917 0.0
O150 O 0.30823 0.87499 0.97528 0.0
O151 O 0.26076 0.92443 0.03426 0.0
O152 O 0.27885 0.87252 0.0539 0.0
C153 C 0.19078 0.84196 0.02731 0.0
O154 O 0.24372 0.92432 0.96174 0.0
O155 O 0.21863 0.87443 0.94455 0.0
In156 In 0.24919 0.37406 0.00206 0.0
O157 O 0.23613 0.426 0.03489 0.0
O158 O 0.22318 0.37443 0.05878 0.0
C159 C 0.2752 0.40609 0.94112 0.0
C160 C 0.31002 0.34228 0.02992 0.0
C161 C 0.18976 0.34069 0.97324 0.0
O162 O 0.26412 0.42446 0.96834 0.0
O163 O 0.27279 0.37172 0.94443 0.0
O164 O 0.2184 0.32323 0.98169 0.0
O165 O 0.19104 0.37471 0.97938 0.0
C166 C 0.22293 0.40886 0.06186 0.0
O167 O 0.27958 0.3258 0.02831 0.0
O168 O 0.30971 0.37446 0.01745 0.0
In169 In 0.75138 0.12894 0.00136 0.0
O170 O 0.76508 0.07753 0.0346 0.0
O171 O 0.77978 0.12942 0.05712 0.0
C172 C 0.72586 0.09498 0.94066 0.0
C173 C 0.69134 0.15993 0.03139 0.0
C174 C 0.80901 0.16502 0.97227 0.0
O175 O 0.73992 0.07762 0.96705 0.0
O176 O 0.72487 0.12931 0.94468 0.0
O177 O 0.779 0.18071 0.97911 0.0
O178 O 0.81011 0.13143 0.98031 0.0
C179 C 0.77941 0.09505 0.06087 0.0
O180 O 0.7202 0.17793 0.02504 0.0
O181 O 0.69271 0.1265 0.02268 0.0
In182 In 0.12633 0.50158 0.25147 0.0
O183 O 0.17707 0.49021 0.21676 0.0
O184 O 0.12496 0.47413 0.1954 0.0
C185 C 0.15955 0.52771 0.31242 0.0
C186 C 0.0946 0.56103 0.22174 0.0
C187 C 0.09239 0.44251 0.28029 0.0
O188 O 0.1761 0.508 0.2893 0.0
O189 O 0.12654 0.53434 0.30472 0.0
O190 O 0.07571 0.47221 0.27435 0.0
O191 O 0.12574 0.44257 0.2714 0.0
C192 C 0.15924 0.47544 0.1909 0.0
O193 O 0.07625 0.53338 0.23173 0.0
O194 O 0.12879 0.55862 0.22656 0.0
In195 In 0.75131 0.87551 0.50027 0.0
O196 O 0.73486 0.92678 0.53254 0.0
O197 O 0.72844 0.87483 0.5582 0.0
C198 C 0.78042 0.90608 0.4394 0.0
C199 C 0.81095 0.84377 0.52955 0.0
C200 C 0.69051 0.84266 0.47319 0.0
O201 O 0.76347 0.92459 0.46323 0.0
O202 O 0.78281 0.87232 0.44633 0.0
O203 O 0.71808 0.82461 0.48363 0.0
O204 O 0.69357 0.87692 0.47643 0.0
C205 C 0.7247 0.90913 0.56051 0.0
O206 O 0.78392 0.82534 0.51792 0.0
O207 O 0.8079 0.87813 0.52653 0.0
In208 In 0.87683 0.00172 0.25069 0.0
O209 O 0.82792 0.02697 0.22038 0.0
O210 O 0.87678 0.0174 0.19028 0.0
C211 C 0.84445 0.97251 0.31021 0.0
C212 C 0.91057 0.94109 0.22595 0.0
C213 C 0.91033 0.0624 0.27677 0.0
O214 O 0.82676 0.9797 0.2813 0.0
O215 O 0.87815 0.98016 0.30915 0.0
O216 O 0.92792 0.03627 0.26247 0.0
O217 O 0.87605 0.05808 0.2777 0.0
C218 C 0.84436 0.0293 0.19005 0.0
O219 O 0.92816 0.96851 0.23797 0.0
O220 O 0.87611 0.94416 0.22657 0.0
In221 In 0.25066 0.62549 0.50268 0.0
O222 O 0.26588 0.57449 0.5359 0.0
O223 O 0.27815 0.62657 0.559 0.0
C224 C 0.22444 0.5904 0.44308 0.0
C225 C 0.1897 0.65818 0.52969 0.0
C226 C 0.30943 0.65942 0.47334 0.0
O227 O 0.23217 0.57377 0.47241 0.0
O228 O 0.23018 0.62456 0.44357 0.0
O229 O 0.2818 0.67694 0.48455 0.0
O230 O 0.30731 0.62504 0.4765 0.0
C231 C 0.27915 0.59223 0.56252 0.0
O232 O 0.21962 0.67513 0.52583 0.0
O233 O 0.19041 0.62516 0.51956 0.0
In234 In 0.37457 0.49841 0.75229 0.0
O235 O 0.32422 0.51187 0.71764 0.0
O236 O 0.37692 0.52444 0.69573 0.0
C237 C 0.34187 0.47023 0.81235 0.0
C238 C 0.40759 0.43925 0.72316 0.0
C239 C 0.40615 0.55928 0.78056 0.0
O240 O 0.32398 0.48579 0.78715 0.0
O241 O 0.37602 0.46894 0.8073 0.0
O242 O 0.42421 0.53062 0.77356 0.0
O243 O 0.3724 0.55723 0.77334 0.0
C244 C 0.34259 0.52507 0.69146 0.0
O245 O 0.42543 0.46685 0.7343 0.0
O246 O 0.37325 0.44151 0.72655 0.0
In247 In 0.62812 0.00099 0.75107 0.0
O248 O 0.6784 0.98367 0.71798 0.0
O249 O 0.62599 0.98047 0.69222 0.0
C250 C 0.66171 0.02839 0.81124 0.0
C251 C 0.59495 0.06059 0.72294 0.0
C252 C 0.59662 0.93956 0.77804 0.0
O253 O 0.67942 0.01609 0.78417 0.0
O254 O 0.62732 0.02662 0.80805 0.0
O255 O 0.57936 0.9694 0.77513 0.0
O256 O 0.6294 0.94076 0.76733 0.0
C257 C 0.66009 0.9753 0.6897 0.0
O258 O 0.57761 0.03139 0.72985 0.0
O259 O 0.62875 0.05972 0.73032 0.0
In260 In 0.75083 0.62929 0.00176 0.0
O261 O 0.73724 0.5777 0.03489 0.0
O262 O 0.72162 0.62937 0.05687 0.0
C263 C 0.77921 0.59597 0.9422 0.0
C264 C 0.69029 0.66158 0.97422 0.0
C265 C 0.81025 0.6645 0.02844 0.0
O266 O 0.76542 0.57819 0.96848 0.0
O267 O 0.77905 0.63039 0.94611 0.0
O268 O 0.78484 0.68116 0.01202 0.0
O269 O 0.80598 0.63033 0.0313 0.0
C270 C 0.72209 0.59506 0.06068 0.0
O271 O 0.71201 0.67794 0.9957 0.0
O272 O 0.69913 0.62906 0.96651 0.0
In273 In 0.87125 0.50179 0.75042 0.0
O274 O 0.92226 0.53574 0.73717 0.0
O275 O 0.86984 0.55908 0.7262 0.0
C276 C 0.90489 0.44087 0.77489 0.0
C277 C 0.84025 0.53052 0.81097 0.0
C278 C 0.83808 0.47336 0.69052 0.0
O279 O 0.92217 0.46652 0.75932 0.0
O280 O 0.87084 0.44596 0.77806 0.0
O281 O 0.82174 0.47631 0.72087 0.0
O282 O 0.87059 0.48506 0.69042 0.0
C283 C 0.90423 0.56269 0.72504 0.0
O284 O 0.82251 0.52598 0.78149 0.0
O285 O 0.8733 0.52047 0.80984 0.0
In286 In 0.75052 0.37627 0.49791 0.0
O287 O 0.71858 0.32576 0.51637 0.0
O288 O 0.69332 0.37817 0.52227 0.0
C289 C 0.81128 0.34447 0.47063 0.0
C290 C 0.72462 0.40891 0.4369 0.0
C291 C 0.77545 0.40801 0.55974 0.0
O292 O 0.78219 0.32658 0.47643 0.0
O293 O 0.80972 0.37804 0.47869 0.0
O294 O 0.76208 0.4265 0.5337 0.0
O295 O 0.77597 0.37378 0.55466 0.0
C296 C 0.69099 0.34393 0.5267 0.0
O297 O 0.74229 0.42628 0.46119 0.0
O298 O 0.7199 0.37531 0.44346 0.0
In299 In 0.62403 0.49991 0.2486 0.0
O300 O 0.5729 0.53481 0.25872 0.0
O301 O 0.6242 0.555 0.27812 0.0
C302 C 0.59015 0.43845 0.22436 0.0
C303 C 0.6559 0.52925 0.1888 0.0
C304 C 0.66083 0.47278 0.30678 0.0
O305 O 0.57409 0.46209 0.2438 0.0
O306 O 0.62315 0.44571 0.21717 0.0
O307 O 0.67665 0.48088 0.27716 0.0
O308 O 0.62678 0.47858 0.3072 0.0
C309 C 0.5901 0.56001 0.27523 0.0
O310 O 0.67414 0.51807 0.21598 0.0
O311 O 0.6216 0.52573 0.19169 0.0
C312 C 0.09181 0.39354 0.32834 0.0
C313 C 0.07478 0.41023 0.29759 0.0
C314 C 0.02423 0.36593 0.30142 0.0
C315 C 0.0436 0.34671 0.32912 0.0
N316 N 0.09956 0.33807 0.36365 0.0
N317 N 0.02806 0.40826 0.25052 0.0
C318 C 0.07842 0.35937 0.3412 0.0
C319 C 0.04179 0.39542 0.28295 0.0
N320 N 0.1199 0.41092 0.34626 0.0
N321 N 0.98863 0.35695 0.29365 0.0
H322 H 0.04056 0.42912 0.23552 0.0
H323 H 0.00628 0.39582 0.23672 0.0
H324 H 0.97455 0.33601 0.30709 0.0
H325 H 0.97201 0.37254 0.27646 0.0
H326 H 0.13061 0.40174 0.37111 0.0
H327 H 0.13 0.43651 0.3385 0.0
H328 H 0.12673 0.34433 0.37005 0.0
H329 H 0.09143 0.31226 0.37286 0.0
C330 C 0.87161 0.78411 0.58982 0.0
C331 C 0.90701 0.79454 0.57737 0.0
C332 C 0.87897 0.83374 0.53055 0.0
C333 C 0.84389 0.82641 0.54567 0.0
N334 N 0.80733 0.80001 0.59405 0.0
N335 N 0.94456 0.83496 0.54072 0.0
C336 C 0.84029 0.80298 0.57646 0.0
C337 C 0.9108 0.82084 0.54896 0.0
N338 N 0.8677 0.75532 0.61344 0.0
N339 N 0.88189 0.85193 0.49794 0.0
H340 H 0.96852 0.82719 0.55424 0.0
H341 H 0.94834 0.85702 0.52302 0.0
H342 H 0.85922 0.86127 0.48321 0.0
H343 H 0.9065 0.8546 0.48373 0.0
H344 H 0.84237 0.74393 0.62017 0.0
H345 H 0.88983 0.74047 0.62368 0.0
H346 H 0.80413 0.78653 0.619 0.0
H347 H 0.78383 0.81395 0.58569 0.0
C348 C 0.45405 0.60893 0.77898 0.0
C349 C 0.42314 0.59281 0.79628 0.0
C350 C 0.42267 0.6426 0.84161 0.0
C351 C 0.4559 0.65638 0.82672 0.0
N352 N 0.50705 0.64857 0.78552 0.0
N353 N 0.38164 0.59085 0.84786 0.0
C354 C 0.47266 0.63847 0.79652 0.0
C355 C 0.40837 0.60873 0.82861 0.0
N356 N 0.46472 0.59716 0.74501 0.0
N357 N 0.40384 0.66252 0.86719 0.0
H358 H 0.37014 0.56607 0.83944 0.0
H359 H 0.37314 0.59892 0.87391 0.0
H360 H 0.41311 0.68749 0.8776 0.0
H361 H 0.37735 0.65599 0.87563 0.0
H362 H 0.48461 0.61051 0.72948 0.0
H363 H 0.4512 0.57635 0.73067 0.0
H364 H 0.52214 0.63387 0.76624 0.0
H365 H 0.52203 0.66947 0.79817 0.0
C366 C 0.60931 0.17278 0.09411 0.0
C367 C 0.59442 0.20608 0.0805 0.0
C368 C 0.64173 0.20772 0.03281 0.0
C369 C 0.65852 0.17643 0.04863 0.0
N370 N 0.66299 0.13425 0.09937 0.0
N371 N 0.60151 0.2596 0.04221 0.0
C372 C 0.64365 0.16036 0.08072 0.0
C373 C 0.61202 0.22482 0.0513 0.0
N374 N 0.59006 0.15208 0.11867 0.0
N375 N 0.65306 0.22029 0.9994 0.0
H376 H 0.58075 0.27368 0.05588 0.0
H377 H 0.6159 0.2759 0.02372 0.0
H378 H 0.6742 0.20813 0.98452 0.0
H379 H 0.63919 0.24054 0.98486 0.0
H380 H 0.59776 0.12565 0.12621 0.0
H381 H 0.56455 0.15968 0.12891 0.0
H382 H 0.65518 0.12437 0.12498 0.0
H383 H 0.68884 0.1252 0.0912 0.0
C384 C 0.05428 0.59117 0.17476 0.0
C385 C 0.07736 0.5942 0.206 0.0
C386 C 0.07211 0.66116 0.20387 0.0
C387 C 0.04601 0.65788 0.17513 0.0
N388 N 0.00649 0.61927 0.1383 0.0
N389 N 0.10199 0.63149 0.2551 0.0
C390 C 0.03544 0.62273 0.16195 0.0
C391 C 0.08454 0.62905 0.22196 0.0
N392 N 0.05156 0.5586 0.15626 0.0
N393 N 0.08636 0.69473 0.21286 0.0
H394 H 0.11065 0.6086 0.26984 0.0
H395 H 0.10452 0.65597 0.26972 0.0
H396 H 0.07888 0.71889 0.19958 0.0
H397 H 0.10829 0.69813 0.23091 0.0
H398 H 0.03825 0.55594 0.13109 0.0
H399 H 0.06561 0.53501 0.16414 0.0
H400 H 0.99528 0.59401 0.13081 0.0
H401 H 0.99124 0.64157 0.12902 0.0
C402 C 0.61209 0.82179 0.40747 0.0
C403 C 0.59416 0.79259 0.42599 0.0
C404 C 0.63751 0.79862 0.47723 0.0
C405 C 0.65745 0.82524 0.45705 0.0
N406 N 0.66734 0.85775 0.40028 0.0
N407 N 0.59359 0.74865 0.47538 0.0
C408 C 0.64571 0.83565 0.42145 0.0
C409 C 0.60784 0.77976 0.46009 0.0
N410 N 0.59628 0.83747 0.37731 0.0
N411 N 0.64588 0.79244 0.51325 0.0
H412 H 0.57238 0.73361 0.46332 0.0
H413 H 0.60504 0.73582 0.49816 0.0
H414 H 0.66698 0.80615 0.52699 0.0
H415 H 0.62979 0.77631 0.53045 0.0
H416 H 0.60577 0.86169 0.36551 0.0
H417 H 0.57172 0.82836 0.36586 0.0
H418 H 0.66249 0.86243 0.37253 0.0
H419 H 0.69198 0.86896 0.40947 0.0
C420 C 0.46829 0.37906 0.66342 0.0
C421 C 0.45811 0.34357 0.67586 0.0
C422 C 0.41857 0.37138 0.72251 0.0
C423 C 0.42552 0.40649 0.70728 0.0
N424 N 0.45143 0.44304 0.65863 0.0
N425 N 0.41762 0.30582 0.71226 0.0
C426 C 0.44893 0.41021 0.67651 0.0
C427 C 0.43169 0.33963 0.70414 0.0
N428 N 0.4973 0.38326 0.64012 0.0
N429 N 0.4005 0.36836 0.75519 0.0
H430 H 0.42538 0.28191 0.69862 0.0
H431 H 0.39551 0.30198 0.7299 0.0
H432 H 0.39109 0.39098 0.76997 0.0
H433 H 0.39807 0.34372 0.76941 0.0
H434 H 0.50836 0.40874 0.63339 0.0
H435 H 0.51265 0.36131 0.63026 0.0
H436 H 0.46493 0.44621 0.63369 0.0
H437 H 0.43704 0.46638 0.66672 0.0
C438 C 0.90729 0.19503 0.95727 0.0
C439 C 0.90431 0.21494 0.92397 0.0
C440 C 0.83834 0.20176 0.92183 0.0
C441 C 0.84099 0.18445 0.95652 0.0
N442 N 0.8759 0.17394 0.01167 0.0
N443 N 0.86554 0.24499 0.87949 0.0
C444 C 0.87487 0.18389 0.97559 0.0
C445 C 0.86938 0.22059 0.90764 0.0
N446 N 0.94088 0.18498 0.97051 0.0
N447 N 0.8068 0.19901 0.90168 0.0
H448 H 0.88733 0.26049 0.86936 0.0
H449 H 0.84016 0.25273 0.86891 0.0
H450 H 0.78347 0.1853 0.91092 0.0
H451 H 0.80485 0.20759 0.87452 0.0
H452 H 0.94414 0.16727 0.99267 0.0
H453 H 0.96544 0.19104 0.95725 0.0
H454 H 0.89938 0.17616 0.02787 0.0
H455 H 0.85226 0.1676 0.02644 0.0
C456 C 0.27506 0.07277 0.37535 0.0
C457 C 0.29429 0.07085 0.40907 0.0
C458 C 0.34129 0.03289 0.37992 0.0
C459 C 0.3249 0.03963 0.3452 0.0
N460 N 0.27972 0.07229 0.3093 0.0
N461 N 0.34861 0.05346 0.44271 0.0
C462 C 0.29265 0.06122 0.34269 0.0
C463 C 0.32819 0.052 0.41126 0.0
N464 N 0.23944 0.08426 0.37472 0.0
N465 N 0.36833 0.00719 0.38329 0.0
H466 H 0.34015 0.06738 0.46621 0.0
H467 H 0.37535 0.04358 0.44441 0.0
H468 H 0.37772 0.9915 0.36129 0.0
H469 H 0.37869 0.99869 0.40851 0.0
H470 H 0.22306 0.08319 0.35129 0.0
H471 H 0.22508 0.09066 0.39858 0.0
H472 H 0.25842 0.09108 0.30639 0.0
H473 H 0.29259 0.06589 0.28461 0.0
C474 C 0.1591 0.08025 0.64174 0.0
C475 C 0.17399 0.04767 0.65682 0.0
C476 C 0.22237 0.04793 0.61033 0.0
C477 C 0.20517 0.07819 0.59302 0.0
N478 N 0.15298 0.11854 0.58796 0.0
N479 N 0.21524 0.99623 0.65122 0.0
C480 C 0.17234 0.09312 0.60752 0.0
C481 C 0.20441 0.03028 0.63998 0.0
N482 N 0.13337 0.09977 0.66076 0.0
N483 N 0.25653 0.03698 0.59955 0.0
H484 H 0.20227 0.98191 0.67227 0.0
H485 H 0.23474 0.98069 0.63732 0.0
H486 H 0.27108 0.04972 0.57852 0.0
H487 H 0.27191 0.01763 0.61381 0.0
H488 H 0.12442 0.12567 0.6528 0.0
H489 H 0.1236 0.09185 0.68641 0.0
H490 H 0.12695 0.12752 0.5955 0.0
H491 H 0.16116 0.12797 0.56227 0.0
C492 C 0.19754 0.92385 0.83856 0.0
C493 C 0.18094 0.95888 0.84105 0.0
C494 C 0.19142 0.95979 0.90731 0.0
C495 C 0.21064 0.92608 0.90449 0.0
N496 N 0.24015 0.88105 0.86588 0.0
N497 N 0.17157 0.01446 0.87555 0.0
C498 C 0.21609 0.9095 0.86964 0.0
C499 C 0.1807 0.97816 0.87479 0.0
N500 N 0.19448 0.90362 0.80709 0.0
N501 N 0.18173 0.97347 0.94084 0.0
H502 H 0.16584 0.02917 0.85174 0.0
H503 H 0.17397 0.03076 0.89895 0.0
H504 H 0.18758 0.9602 0.96545 0.0
H505 H 0.16456 0.99606 0.94402 0.0
H506 H 0.20259 0.87629 0.80527 0.0
H507 H 0.18095 0.913 0.78371 0.0
H508 H 0.24773 0.87026 0.84053 0.0
H509 H 0.25563 0.87092 0.88765 0.0
C510 C 0.31816 0.95202 0.09006 0.0
C511 C 0.29107 0.92418 0.09292 0.0
C512 C 0.29665 0.92529 0.15987 0.0
C513 C 0.32152 0.95512 0.15707 0.0
N514 N 0.35016 0.00199 0.12024 0.0
N515 N 0.2489 0.88954 0.13029 0.0
C516 C 0.33061 0.97001 0.12235 0.0
C517 C 0.27866 0.91229 0.12778 0.0
N518 N 0.33334 0.96008 0.05677 0.0
N519 N 0.29147 0.90824 0.19282 0.0
H520 H 0.23449 0.88002 0.10741 0.0
H521 H 0.23633 0.88297 0.15505 0.0
H522 H 0.3045 0.91656 0.21694 0.0
H523 H 0.27684 0.88384 0.19564 0.0
H524 H 0.35601 0.97722 0.0537 0.0
H525 H 0.32557 0.94706 0.03246 0.0
H526 H 0.35433 0.01612 0.09581 0.0
H527 H 0.35922 0.01636 0.14333 0.0
C528 C 0.35476 0.28984 0.03449 0.0
C529 C 0.34361 0.32552 0.04561 0.0
C530 C 0.39976 0.33169 0.08208 0.0
C531 C 0.40811 0.29442 0.07523 0.0
N532 N 0.39073 0.23601 0.04914 0.0
N533 N 0.35224 0.37745 0.08626 0.0
C534 C 0.38487 0.27287 0.05254 0.0
C535 C 0.36522 0.34571 0.07113 0.0
N536 N 0.33785 0.27282 0.00559 0.0
N537 N 0.42546 0.35416 0.0977 0.0
H538 H 0.32645 0.38815 0.08029 0.0
H539 H 0.36547 0.39107 0.1077 0.0
H540 H 0.45188 0.34517 0.10389 0.0
H541 H 0.42205 0.38241 0.10037 0.0
H542 H 0.34733 0.24843 0.99409 0.0
H543 H 0.31673 0.28483 0.99055 0.0
H544 H 0.37226 0.21834 0.03623 0.0
H545 H 0.41246 0.22253 0.06193 0.0
C546 C 0.93269 0.84084 0.2083 0.0
C547 C 0.96018 0.844 0.18099 0.0
C548 C 0.95428 0.91091 0.18222 0.0
C549 C 0.92888 0.90789 0.2115 0.0
N550 N 0.90021 0.87063 0.25798 0.0
N551 N 0.00331 0.88199 0.1482 0.0
C552 C 0.91992 0.87301 0.22622 0.0
C553 C 0.97284 0.87905 0.1698 0.0
N554 N 0.91745 0.80743 0.21592 0.0
N555 N 0.95935 0.94378 0.16495 0.0
H556 H 0.01827 0.85932 0.13927 0.0
H557 H 0.01591 0.90695 0.14228 0.0
H558 H 0.94568 0.96771 0.17248 0.0
H559 H 0.97447 0.94656 0.1409 0.0
H560 H 0.89454 0.80418 0.23262 0.0
H561 H 0.92547 0.78322 0.20297 0.0
H562 H 0.89596 0.84609 0.27192 0.0
H563 H 0.89123 0.89364 0.27244 0.0
C564 C 0.14336 0.7093 0.53258 0.0
C565 C 0.15653 0.67521 0.54599 0.0
C566 C 0.1038 0.67124 0.58741 0.0
C567 C 0.09322 0.70722 0.57724 0.0
N568 N 0.10673 0.76329 0.54486 0.0
N569 N 0.15315 0.6274 0.59176 0.0
C570 C 0.114 0.72707 0.55107 0.0
C571 C 0.13781 0.65713 0.57494 0.0
N572 N 0.1577 0.72398 0.50126 0.0
N573 N 0.08074 0.64984 0.60779 0.0
H574 H 0.17844 0.6165 0.5843 0.0
H575 H 0.14254 0.61581 0.61559 0.0
H576 H 0.055 0.65859 0.61658 0.0
H577 H 0.08545 0.62209 0.61266 0.0
H578 H 0.14656 0.74679 0.48823 0.0
H579 H 0.17836 0.7113 0.48614 0.0
H580 H 0.12354 0.78008 0.52902 0.0
H581 H 0.08589 0.77751 0.55827 0.0
C582 C 0.96721 0.64504 0.71108 0.0
C583 C 0.954 0.65843 0.67697 0.0
C584 C 0.91192 0.6061 0.67253 0.0
C585 C 0.92192 0.59529 0.70853 0.0
N586 N 0.95439 0.60833 0.76484 0.0
N587 N 0.90825 0.65566 0.62888 0.0
C588 C 0.9483 0.6158 0.72863 0.0
C589 C 0.92481 0.64007 0.65867 0.0
N590 N 0.99876 0.65896 0.72594 0.0
N591 N 0.8914 0.58325 0.65084 0.0
H592 H 0.9161 0.6809 0.61811 0.0
H593 H 0.88429 0.64531 0.61712 0.0
H594 H 0.88238 0.55748 0.65935 0.0
H595 H 0.88665 0.58815 0.6231 0.0
H596 H 0.0116 0.6476 0.74878 0.0
H597 H 0.01424 0.67945 0.7134 0.0
H598 H 0.97039 0.62496 0.78179 0.0
H599 H 0.94073 0.58751 0.77889 0.0
C600 C 0.13859 0.20215 0.47748 0.0
C601 C 0.16137 0.17929 0.45583 0.0
C602 C 0.11796 0.1834 0.40485 0.0
C603 C 0.09678 0.20904 0.42511 0.0
N604 N 0.09192 0.24926 0.4777 0.0
N605 N 0.17793 0.15677 0.39598 0.0
C606 C 0.10842 0.22025 0.46066 0.0
C607 C 0.15257 0.17244 0.41863 0.0
N608 N 0.14493 0.20565 0.51427 0.0
N609 N 0.10449 0.16811 0.3733 0.0
H610 H 0.20442 0.15059 0.40477 0.0
H611 H 0.17417 0.1541 0.36777 0.0
H612 H 0.07861 0.17403 0.36278 0.0
H613 H 0.11744 0.14656 0.3597 0.0
H614 H 0.12676 0.21868 0.53204 0.0
H615 H 0.16677 0.1929 0.5276 0.0
H616 H 0.10174 0.26079 0.50199 0.0
H617 H 0.07078 0.26432 0.46577 0.0
C618 C 0.53821 0.40659 0.19169 0.0
C619 C 0.5719 0.40452 0.21117 0.0
C620 C 0.57441 0.33825 0.19972 0.0
C621 C 0.53967 0.34014 0.18233 0.0
N622 N 0.48413 0.37381 0.17102 0.0
N623 N 0.61718 0.36717 0.24172 0.0
C624 C 0.52022 0.37366 0.1811 0.0
C625 C 0.58865 0.36996 0.21752 0.0
N626 N 0.52424 0.43985 0.18161 0.0
N627 N 0.59441 0.30661 0.19819 0.0
H628 H 0.62735 0.38953 0.25647 0.0
H629 H 0.62816 0.34218 0.25007 0.0
H630 H 0.58478 0.28266 0.18573 0.0
H631 H 0.62163 0.30498 0.20673 0.0
H632 H 0.50178 0.44258 0.16413 0.0
H633 H 0.53708 0.46472 0.18764 0.0
H634 H 0.46757 0.39701 0.17265 0.0
H635 H 0.46978 0.34973 0.1651 0.0
C636 C 0.34006 0.80329 0.92094 0.0
C637 C 0.34269 0.82321 0.95431 0.0
C638 C 0.40954 0.81693 0.95353 0.0
C639 C 0.40672 0.79421 0.92197 0.0
N640 N 0.36863 0.76028 0.87934 0.0
N641 N 0.37875 0.84254 0.00646 0.0
C642 C 0.37179 0.78586 0.90665 0.0
C643 C 0.37711 0.82816 0.97182 0.0
N644 N 0.30767 0.80232 0.90199 0.0
N645 N 0.44307 0.82941 0.965 0.0
H646 H 0.35551 0.85049 0.02108 0.0
H647 H 0.4027 0.8432 0.02207 0.0
H648 H 0.46749 0.82304 0.95162 0.0
H649 H 0.44635 0.84912 0.98548 0.0
H650 H 0.3053 0.79209 0.87539 0.0
H651 H 0.28366 0.81449 0.91149 0.0
H652 H 0.34355 0.74994 0.87025 0.0
H653 H 0.39102 0.74688 0.86783 0.0
C654 C 0.95371 0.41057 0.81292 0.0
C655 C 0.92307 0.40742 0.78902 0.0
C656 C 0.92289 0.34068 0.79744 0.0
C657 C 0.95532 0.34368 0.81881 0.0
N658 N 0.00648 0.38045 0.83951 0.0
N659 N 0.88343 0.36888 0.75219 0.0
C660 C 0.97222 0.37834 0.82433 0.0
C661 C 0.90908 0.37228 0.7794 0.0
N662 N 0.96399 0.44407 0.82645 0.0
N663 N 0.90417 0.30817 0.79576 0.0
H664 H 0.87291 0.39122 0.73789 0.0
H665 H 0.87523 0.34368 0.74137 0.0
H666 H 0.913 0.28438 0.80885 0.0
H667 H 0.87818 0.30562 0.78413 0.0
H668 H 0.98363 0.44732 0.847 0.0
H669 H 0.95041 0.46836 0.82006 0.0
H670 H 0.02161 0.4047 0.84075 0.0
H671 H 0.0214 0.35737 0.84736 0.0
C672 C 0.35983 0.16009 0.57827 0.0
C673 C 0.34706 0.17282 0.54377 0.0
C674 C 0.3955 0.21951 0.54334 0.0
C675 C 0.41067 0.20398 0.57564 0.0
N676 N 0.41186 0.15393 0.61897 0.0
N677 N 0.35749 0.20955 0.48973 0.0
C678 C 0.39416 0.17266 0.59176 0.0
C679 C 0.36621 0.20113 0.5252 0.0
N680 N 0.33852 0.13731 0.59905 0.0
N681 N 0.40782 0.25262 0.53081 0.0
H682 H 0.33697 0.196 0.47501 0.0
H683 H 0.37308 0.22736 0.47375 0.0
H684 H 0.42837 0.2677 0.54391 0.0
H685 H 0.39508 0.26687 0.5096 0.0
H686 H 0.34504 0.13029 0.62596 0.0
H687 H 0.31244 0.12858 0.59104 0.0
H688 H 0.4026 0.12885 0.62905 0.0
H689 H 0.43778 0.16125 0.62871 0.0
C690 C 0.56713 0.63477 0.34356 0.0
C691 C 0.54073 0.65561 0.32399 0.0
C692 C 0.54857 0.61511 0.27073 0.0
C693 C 0.57164 0.5921 0.29198 0.0
N694 N 0.59389 0.57488 0.35185 0.0
N695 N 0.50049 0.66081 0.27149 0.0
C696 C 0.57831 0.60042 0.32937 0.0
C697 C 0.52976 0.64449 0.28822 0.0
N698 N 0.58299 0.64838 0.37477 0.0
N699 N 0.54565 0.6099 0.23372 0.0
H700 H 0.48507 0.68144 0.28386 0.0
H701 H 0.4892 0.65127 0.24698 0.0
H702 H 0.55949 0.58915 0.21975 0.0
H703 H 0.53225 0.62826 0.21645 0.0
H704 H 0.60479 0.63544 0.38795 0.0
H705 H 0.57753 0.6745 0.38507 0.0
H706 H 0.59644 0.57853 0.3801 0.0
H707 H 0.60001 0.54839 0.343 0.0
C708 C 0.1301 0.78332 0.08861 0.0
C709 C 0.09479 0.79406 0.07628 0.0
C710 C 0.12281 0.83197 0.02852 0.0
C711 C 0.15793 0.8246 0.04358 0.0
N712 N 0.19467 0.79853 0.09213 0.0
N713 N 0.05731 0.83378 0.03892 0.0
C714 C 0.16157 0.80161 0.07473 0.0
C715 C 0.09102 0.81973 0.04735 0.0
N716 N 0.13371 0.75478 0.1126 0.0
N717 N 0.11981 0.84952 0.99556 0.0
H718 H 0.03337 0.82623 0.05258 0.0
H719 H 0.05355 0.85551 0.02081 0.0
H720 H 0.14247 0.85823 0.98047 0.0
H721 H 0.09509 0.85222 0.98147 0.0
H722 H 0.15892 0.74332 0.11954 0.0
H723 H 0.11138 0.74013 0.12286 0.0
H724 H 0.19793 0.78541 0.11727 0.0
H725 H 0.21831 0.81199 0.08333 0.0
C726 C 0.6748 0.9128 0.60755 0.0
C727 C 0.70805 0.92694 0.59307 0.0
C728 C 0.70738 0.97579 0.63946 0.0
C729 C 0.67692 0.95872 0.65662 0.0
N730 N 0.63707 0.90584 0.66145 0.0
N731 N 0.75992 0.96784 0.59979 0.0
C732 C 0.66211 0.92577 0.64193 0.0
C733 C 0.72547 0.9574 0.61021 0.0
N734 N 0.65438 0.88815 0.58783 0.0
N735 N 0.71823 0.01014 0.65003 0.0
H736 H 0.77472 0.95439 0.57938 0.0
H737 H 0.77525 0.98747 0.61393 0.0
H738 H 0.70508 0.02499 0.67062 0.0
H739 H 0.73786 0.02531 0.63588 0.0
H740 H 0.62822 0.8798 0.59572 0.0
H741 H 0.66159 0.87922 0.56164 0.0
H742 H 0.62829 0.87979 0.65347 0.0
H743 H 0.62811 0.91334 0.68754 0.0
C744 C 0.8088 0.92168 0.33989 0.0
C745 C 0.82727 0.95582 0.34294 0.0
C746 C 0.81918 0.95466 0.40962 0.0
C747 C 0.79691 0.92282 0.40615 0.0
N748 N 0.76549 0.87937 0.36676 0.0
N749 N 0.84408 0.0084 0.37971 0.0
C750 C 0.79035 0.90718 0.37095 0.0
C751 C 0.83078 0.97336 0.37753 0.0
N752 N 0.81021 0.90219 0.30784 0.0
N753 N 0.83097 0.96601 0.44342 0.0
H754 H 0.85219 0.02338 0.35677 0.0
H755 H 0.84363 0.02386 0.40377 0.0
H756 H 0.82471 0.95212 0.46757 0.0
H757 H 0.85027 0.98682 0.44714 0.0
H758 H 0.80091 0.87524 0.30543 0.0
H759 H 0.82378 0.91148 0.2845 0.0
H760 H 0.75649 0.87005 0.34125 0.0
H761 H 0.75131 0.86768 0.38853 0.0
C762 C 0.83309 0.08429 0.10226 0.0
C763 C 0.79604 0.07678 0.09312 0.0
C764 C 0.79208 0.03424 0.14494 0.0
C765 C 0.82746 0.04567 0.15683 0.0
N766 N 0.87843 0.08782 0.15046 0.0
N767 N 0.73808 0.04904 0.10913 0.0
C768 C 0.84713 0.07243 0.13651 0.0
C769 C 0.77486 0.05292 0.11535 0.0
N770 N 0.85543 0.10133 0.07752 0.0
N771 N 0.77556 0.00451 0.16068 0.0
H772 H 0.72435 0.06245 0.08796 0.0
H773 H 0.72064 0.03516 0.12697 0.0
H774 H 0.78774 0.98915 0.18146 0.0
H775 H 0.75148 0.99281 0.15055 0.0
H776 H 0.88359 0.10444 0.08144 0.0
H777 H 0.84663 0.10841 0.05127 0.0
H778 H 0.89153 0.11014 0.13834 0.0
H779 H 0.88921 0.08106 0.17603 0.0
C780 C 0.70588 0.07281 0.8407 0.0
C781 C 0.67968 0.04414 0.84429 0.0
C782 C 0.68232 0.05027 0.91125 0.0
C783 C 0.71085 0.07653 0.90765 0.0
N784 N 0.75517 0.10719 0.86938 0.0
N785 N 0.64874 0.00029 0.88305 0.0
C786 C 0.72424 0.08616 0.87247 0.0
C787 C 0.66955 0.03132 0.87961 0.0
N788 N 0.71188 0.0887 0.80731 0.0
N789 N 0.66614 0.04461 0.94457 0.0
H790 H 0.63934 0.98518 0.86062 0.0
H791 H 0.64385 0.98752 0.90809 0.0
H792 H 0.67412 0.05837 0.96839 0.0
H793 H 0.64251 0.02886 0.94793 0.0
H794 H 0.72772 0.11225 0.80391 0.0
H795 H 0.69821 0.0807 0.78346 0.0
H796 H 0.76834 0.11193 0.84451 0.0
H797 H 0.7698 0.1169 0.89204 0.0
C798 C 0.62511 0.73158 0.93244 0.0
C799 C 0.59278 0.71031 0.92918 0.0
C800 C 0.62261 0.65971 0.96145 0.0
C801 C 0.65654 0.67889 0.95962 0.0
N802 N 0.6912 0.73093 0.93732 0.0
N803 N 0.56116 0.65271 0.93692 0.0
C804 C 0.65814 0.71439 0.94367 0.0
C805 C 0.59161 0.67392 0.94265 0.0
N806 N 0.62404 0.76838 0.9256 0.0
N807 N 0.61946 0.62893 0.98259 0.0
H808 H 0.53747 0.66256 0.92426 0.0
H809 H 0.56038 0.62467 0.94234 0.0
H810 H 0.64096 0.61862 0.99836 0.0
H811 H 0.59454 0.6159 0.98765 0.0
H812 H 0.64605 0.78594 0.93072 0.0
H813 H 0.59983 0.78188 0.9186 0.0
H814 H 0.69388 0.75515 0.92246 0.0
H815 H 0.71627 0.7187 0.94343 0.0
C816 C 0.08323 0.105 0.83036 0.0
C817 C 0.07402 0.09404 0.79421 0.0
C818 C 0.03052 0.145 0.79001 0.0
C819 C 0.04351 0.15863 0.82422 0.0
N820 N 0.08838 0.15541 0.8731 0.0
N821 N 0.04326 0.10693 0.73701 0.0
C822 C 0.0716 0.13971 0.84337 0.0
C823 C 0.04881 0.11492 0.77324 0.0
N824 N 0.10172 0.08155 0.85291 0.0
N825 N 0.99978 0.15956 0.7743 0.0
H826 H 0.05635 0.08531 0.72362 0.0
H827 H 0.02824 0.12372 0.71948 0.0
H828 H 0.98474 0.1807 0.78626 0.0
H829 H 0.98708 0.14817 0.75131 0.0
H830 H 0.1063 0.08685 0.88064 0.0
H831 H 0.10851 0.05495 0.84494 0.0
H832 H 0.11148 0.14419 0.88563 0.0
H833 H 0.08187 0.18148 0.88284 0.0
C834 C 0.89045 0.27845 0.45451 0.0
C835 C 0.90906 0.2964 0.42549 0.0
C836 C 0.86146 0.34361 0.42373 0.0
C837 C 0.84476 0.32768 0.45504 0.0
N838 N 0.84783 0.28439 0.50499 0.0
N839 N 0.91685 0.35032 0.38794 0.0
C840 C 0.86045 0.29628 0.47179 0.0
C841 C 0.89586 0.33021 0.41161 0.0
N842 N 0.90041 0.24379 0.46464 0.0
N843 N 0.84385 0.37056 0.40457 0.0
H844 H 0.94276 0.34206 0.37917 0.0
H845 H 0.91025 0.37693 0.37999 0.0
H846 H 0.81828 0.38085 0.41198 0.0
H847 H 0.85294 0.3802 0.37929 0.0
H848 H 0.88525 0.22792 0.48289 0.0
H849 H 0.92187 0.22952 0.45232 0.0
H850 H 0.86079 0.26403 0.52021 0.0
H851 H 0.8266 0.29727 0.51912 0.0
C852 C 0.59875 0.88571 0.82086 0.0
C853 C 0.57997 0.90565 0.79318 0.0
C854 C 0.52837 0.8625 0.79702 0.0
C855 C 0.54862 0.84101 0.8223 0.0
N856 N 0.60671 0.82696 0.85045 0.0
N857 N 0.53074 0.90794 0.74877 0.0
C858 C 0.5849 0.85111 0.83196 0.0
C859 C 0.5458 0.89266 0.77949 0.0
N860 N 0.62891 0.90034 0.83779 0.0
N861 N 0.49215 0.85502 0.79069 0.0
H862 H 0.54324 0.92915 0.73425 0.0
H863 H 0.50781 0.89709 0.73552 0.0
H864 H 0.4783 0.83329 0.80309 0.0
H865 H 0.47508 0.87224 0.77564 0.0
H866 H 0.64114 0.88855 0.86075 0.0
H867 H 0.63957 0.92607 0.83141 0.0
H868 H 0.63452 0.83153 0.85533 0.0
H869 H 0.59803 0.80053 0.85706 0.0
C870 C 0.97404 0.12332 0.33313 0.0
C871 C 0.96052 0.15859 0.3239 0.0
C872 C 0.91784 0.13072 0.27985 0.0
C873 C 0.92844 0.09541 0.29218 0.0
N874 N 0.96177 0.05812 0.33555 0.0
N875 N 0.91487 0.19565 0.29345 0.0
C876 C 0.95535 0.09164 0.32008 0.0
C877 C 0.93125 0.16232 0.29846 0.0
N878 N 0.00538 0.12002 0.35348 0.0
N879 N 0.89579 0.13418 0.2497 0.0
H880 H 0.92311 0.2194 0.30717 0.0
H881 H 0.89085 0.19909 0.27835 0.0
H882 H 0.88553 0.11173 0.23516 0.0
H883 H 0.89048 0.15922 0.23707 0.0
H884 H 0.01868 0.09511 0.35767 0.0
H885 H 0.02012 0.14254 0.36326 0.0
H886 H 0.9781 0.05453 0.35873 0.0
H887 H 0.94804 0.03428 0.32755 0.0
C888 C 0.59321 0.10923 0.67453 0.0
C889 C 0.57741 0.09318 0.70621 0.0
C890 C 0.52753 0.13817 0.704 0.0
C891 C 0.54584 0.15675 0.67516 0.0
N892 N 0.60058 0.16437 0.63864 0.0
N893 N 0.53331 0.09673 0.75545 0.0
C894 C 0.57995 0.14353 0.66196 0.0
C895 C 0.54554 0.10879 0.72218 0.0
N896 N 0.61986 0.09108 0.65544 0.0
N897 N 0.49241 0.14747 0.71308 0.0
H898 H 0.54624 0.07599 0.77023 0.0
H899 H 0.51251 0.10975 0.77004 0.0
H900 H 0.47784 0.16813 0.69978 0.0
H901 H 0.47649 0.13229 0.73127 0.0
H902 H 0.62961 0.09996 0.63013 0.0
H903 H 0.6294 0.06516 0.66276 0.0
H904 H 0.62729 0.15755 0.63119 0.0
H905 H 0.59274 0.1904 0.62985 0.0
C906 C 0.15986 0.30257 0.92406 0.0
C907 C 0.15693 0.32283 0.95719 0.0
C908 C 0.09012 0.31539 0.95592 0.0
C909 C 0.09337 0.29235 0.92465 0.0
N910 N 0.13202 0.2577 0.88358 0.0
N911 N 0.12038 0.34192 0.00891 0.0
C912 C 0.12846 0.28409 0.91004 0.0
C913 C 0.12236 0.32731 0.9744 0.0
N914 N 0.19208 0.3024 0.90495 0.0
N915 N 0.05642 0.32751 0.96692 0.0
H916 H 0.14344 0.3503 0.02371 0.0
H917 H 0.09632 0.34233 0.02426 0.0
H918 H 0.0321 0.32039 0.95359 0.0
H919 H 0.05287 0.3475 0.98705 0.0
H920 H 0.19452 0.2915 0.87864 0.0
H921 H 0.21559 0.3162 0.91377 0.0
H922 H 0.15731 0.24785 0.87475 0.0
H923 H 0.10981 0.24304 0.87297 0.0
C924 C 0.3858 0.67972 0.40626 0.0
C925 C 0.40636 0.70671 0.42554 0.0
C926 C 0.36396 0.70168 0.4775 0.0
C927 C 0.34165 0.67752 0.45657 0.0
N928 N 0.32624 0.65173 0.39766 0.0
N929 N 0.4105 0.74916 0.47644 0.0
C930 C 0.35109 0.66891 0.41993 0.0
C931 C 0.39427 0.71933 0.4604 0.0
N932 N 0.39999 0.66309 0.3758 0.0
N933 N 0.35699 0.70692 0.51395 0.0
H934 H 0.43188 0.76374 0.4643 0.0
H935 H 0.40035 0.7617 0.50002 0.0
H936 H 0.335 0.69458 0.52743 0.0
H937 H 0.37476 0.72102 0.53143 0.0
H938 H 0.38741 0.64083 0.3629 0.0
H939 H 0.42619 0.66866 0.36582 0.0
H940 H 0.33046 0.64764 0.36969 0.0
H941 H 0.29968 0.64564 0.40629 0.0
C942 C 0.79012 0.53414 0.85837 0.0
C943 C 0.82401 0.54722 0.84431 0.0
C944 C 0.8308 0.58729 0.89783 0.0
C945 C 0.79485 0.578 0.90925 0.0
N946 N 0.73737 0.54742 0.89631 0.0
N947 N 0.87231 0.59276 0.84663 0.0
C948 C 0.77362 0.55271 0.88843 0.0
C949 C 0.84319 0.57567 0.86288 0.0
N950 N 0.77441 0.50309 0.84423 0.0
N951 N 0.85382 0.60574 0.92104 0.0
H952 H 0.88119 0.5865 0.82018 0.0
H953 H 0.88496 0.61592 0.85776 0.0
H954 H 0.84649 0.61231 0.94787 0.0
H955 H 0.88141 0.61043 0.91524 0.0
H956 H 0.75169 0.49039 0.85601 0.0
H957 H 0.78617 0.48784 0.82311 0.0
H958 H 0.71982 0.53218 0.87958 0.0
H959 H 0.72392 0.56108 0.91751 0.0
C960 C 0.66539 0.53106 0.12061 0.0
C961 C 0.67347 0.5454 0.15596 0.0
C962 C 0.71773 0.58802 0.12883 0.0
C963 C 0.70627 0.57686 0.0933 0.0
N964 N 0.66423 0.54234 0.05523 0.0
N965 N 0.70208 0.59244 0.19311 0.0
C966 C 0.67879 0.54954 0.08907 0.0
C967 C 0.69829 0.5752 0.15997 0.0
N968 N 0.64613 0.49902 0.1171 0.0
N969 N 0.74803 0.60983 0.13296 0.0
H970 H 0.68748 0.58477 0.21642 0.0
H971 H 0.71689 0.61669 0.19656 0.0
H972 H 0.76377 0.61884 0.11088 0.0
H973 H 0.75975 0.61578 0.15837 0.0
H974 H 0.64277 0.48539 0.09217 0.0
H975 H 0.63665 0.48404 0.13951 0.0
H976 H 0.64137 0.52559 0.05123 0.0
H977 H 0.67265 0.55576 0.03146 0.0
C978 C 0.71751 0.41034 0.36835 0.0
C979 C 0.71037 0.42648 0.40314 0.0
C980 C 0.67822 0.47697 0.37293 0.0
C981 C 0.6805 0.45804 0.33905 0.0
N982 N 0.69864 0.40425 0.30492 0.0
N983 N 0.678 0.47194 0.43897 0.0
C984 C 0.69932 0.42412 0.33675 0.0
C985 C 0.68925 0.45906 0.40561 0.0
N986 N 0.74265 0.38276 0.36519 0.0
N987 N 0.66672 0.5126 0.3737 0.0
H988 H 0.68406 0.45892 0.46365 0.0
H989 H 0.65944 0.49344 0.44186 0.0
H990 H 0.66046 0.5271 0.34989 0.0
H991 H 0.66757 0.52886 0.39723 0.0
H992 H 0.75176 0.37272 0.34004 0.0
H993 H 0.75719 0.37232 0.38745 0.0
H994 H 0.70808 0.37736 0.30305 0.0
H995 H 0.686 0.41344 0.281 0.0
C996 C 0.78643 0.46808 0.64473 0.0
C997 C 0.82122 0.45623 0.65762 0.0
C998 C 0.8275 0.41642 0.6038 0.0
C999 C 0.79112 0.4251 0.59315 0.0
N1000 N 0.73323 0.45375 0.60743 0.0
N1001 N 0.87112 0.41281 0.65355 0.0
C1002 C 0.76975 0.44944 0.6147 0.0
C1003 C 0.84072 0.42859 0.63834 0.0
N1004 N 0.77003 0.49815 0.65992 0.0
N1005 N 0.8501 0.39791 0.58031 0.0
H1006 H 0.88136 0.42004 0.67927 0.0
H1007 H 0.88393 0.38985 0.64235 0.0
H1008 H 0.84206 0.38957 0.55412 0.0
H1009 H 0.87801 0.39429 0.58527 0.0
H1010 H 0.74654 0.51018 0.64902 0.0
H1011 H 0.78177 0.51335 0.68119 0.0
H1012 H 0.71556 0.46811 0.62466 0.0
H1013 H 0.71979 0.44009 0.58612 0.0
C1014 C 0.41269 0.1259 0.22083 0.0
C1015 C 0.41959 0.09099 0.20509 0.0
C1016 C 0.46082 0.11906 0.16023 0.0
C1017 C 0.45122 0.15436 0.17374 0.0
N1018 N 0.4116 0.19158 0.21158 0.0
N1019 N 0.44398 0.05497 0.15521 0.0
C1020 C 0.4254 0.15789 0.20264 0.0
C1021 C 0.44193 0.0877 0.1735 0.0
N1022 N 0.39511 0.12851 0.25382 0.0
N1023 N 0.489 0.11519 0.13587 0.0
H1024 H 0.43009 0.03143 0.16366 0.0
H1025 H 0.45655 0.05206 0.12975 0.0
H1026 H 0.50398 0.13725 0.12569 0.0
H1027 H 0.4998 0.08983 0.12838 0.0
H1028 H 0.39288 0.15298 0.26845 0.0
H1029 H 0.38576 0.10571 0.26831 0.0
H1030 H 0.38995 0.19522 0.22981 0.0
H1031 H 0.41903 0.21561 0.19802 0.0
C1032 C 0.03174 0.85889 0.70904 0.0
C1033 C 0.0475 0.84296 0.6772 0.0
C1034 C 0.09168 0.89351 0.67387 0.0
C1035 C 0.07862 0.90716 0.70791 0.0
N1036 N 0.04122 0.89825 0.76178 0.0
N1037 N 0.09785 0.84058 0.6343 0.0
C1038 C 0.05002 0.88858 0.72664 0.0
C1039 C 0.07904 0.85896 0.661 0.0
N1040 N 0.99853 0.84687 0.72159 0.0
N1041 N 0.11487 0.91418 0.65291 0.0
H1042 H 0.09039 0.81452 0.62502 0.0
H1043 H 0.12306 0.84943 0.62421 0.0
H1044 H 0.1237 0.94036 0.66046 0.0
H1045 H 0.1222 0.90702 0.62624 0.0
H1046 H 0.98409 0.86013 0.74236 0.0
H1047 H 0.98362 0.82592 0.70895 0.0
H1048 H 0.02321 0.88312 0.77796 0.0
H1049 H 0.05463 0.91914 0.7761 0.0
C1050 C 0.47057 0.878 0.33437 0.0
C1051 C 0.45756 0.84248 0.32473 0.0
C1052 C 0.41539 0.8699 0.28019 0.0
C1053 C 0.42524 0.90532 0.2931 0.0
N1054 N 0.45714 0.94287 0.33761 0.0
N1055 N 0.4119 0.80518 0.294 0.0
C1056 C 0.45155 0.90939 0.32152 0.0
C1057 C 0.42849 0.8385 0.29903 0.0
N1058 N 0.50177 0.88191 0.35484 0.0
N1059 N 0.39443 0.86616 0.24926 0.0
H1060 H 0.41943 0.78166 0.30832 0.0
H1061 H 0.38811 0.80171 0.27849 0.0
H1062 H 0.38501 0.88847 0.2341 0.0
H1063 H 0.38958 0.84096 0.23657 0.0
H1064 H 0.51467 0.90709 0.35917 0.0
H1065 H 0.5168 0.85973 0.36454 0.0
H1066 H 0.47302 0.94652 0.36112 0.0
H1067 H 0.44312 0.96649 0.32979 0.0
C1068 C 0.84109 0.69811 0.07993 0.0
C1069 C 0.84252 0.68354 0.04393 0.0
C1070 C 0.90848 0.69533 0.04127 0.0
C1071 C 0.9068 0.71221 0.07638 0.0
N1072 N 0.86976 0.73781 0.125 0.0
N1073 N 0.87482 0.67714 0.98682 0.0
C1074 C 0.87259 0.71589 0.09465 0.0
C1075 C 0.87539 0.68496 0.02346 0.0
N1076 N 0.80984 0.69449 0.10027 0.0
N1077 N 0.9416 0.68727 0.02573 0.0
H1078 H 0.85062 0.67084 0.97286 0.0
H1079 H 0.89738 0.68085 0.96972 0.0
H1080 H 0.96663 0.69278 0.03847 0.0
H1081 H 0.94421 0.67168 0.0019 0.0
H1082 H 0.8086 0.70063 0.12815 0.0
H1083 H 0.78574 0.68299 0.08982 0.0
H1084 H 0.84483 0.74424 0.13732 0.0
H1085 H 0.89175 0.75276 0.13568 0.0
C1086 C 0.61356 0.32586 0.5937 0.0
C1087 C 0.59575 0.29552 0.57676 0.0
C1088 C 0.63891 0.29872 0.52539 0.0
C1089 C 0.65868 0.32665 0.54407 0.0
N1090 N 0.66956 0.36112 0.59968 0.0
N1091 N 0.59642 0.2479 0.53056 0.0
C1092 C 0.64735 0.33866 0.57928 0.0
C1093 C 0.60976 0.28048 0.54368 0.0
N1094 N 0.59757 0.34352 0.62264 0.0
N1095 N 0.64696 0.29054 0.4897 0.0
H1096 H 0.57596 0.23295 0.54377 0.0
H1097 H 0.60824 0.23385 0.50868 0.0
H1098 H 0.66771 0.30367 0.47507 0.0
H1099 H 0.63083 0.27322 0.47356 0.0
H1100 H 0.60737 0.36823 0.63326 0.0
H1101 H 0.57257 0.33555 0.63388 0.0
H1102 H 0.66442 0.36759 0.62703 0.0
H1103 H 0.69509 0.3703 0.59062 0.0
C1104 C 0.17958 0.45379 0.09104 0.0
C1105 C 0.20804 0.42752 0.09475 0.0
C1106 C 0.20333 0.43147 0.16171 0.0
C1107 C 0.17711 0.45993 0.15795 0.0
N1108 N 0.14577 0.50347 0.11936 0.0
N1109 N 0.25231 0.39696 0.1333 0.0
C1110 C 0.16683 0.47267 0.12268 0.0
C1111 C 0.22148 0.41798 0.13002 0.0
N1112 N 0.16335 0.45939 0.05769 0.0
N1113 N 0.20964 0.41602 0.19527 0.0
H1114 H 0.26675 0.38694 0.11077 0.0
H1115 H 0.2656 0.39245 0.15819 0.0
H1116 H 0.19649 0.42457 0.21916 0.0
H1117 H 0.22534 0.39247 0.19889 0.0
H1118 H 0.13986 0.47523 0.05421 0.0
H1119 H 0.17112 0.4455 0.03393 0.0
H1120 H 0.1406 0.51623 0.09436 0.0
H1121 H 0.13638 0.5184 0.1419 0.0
C1122 C 0.33683 0.46465 0.88081 0.0
C1123 C 0.32423 0.45438 0.84534 0.0
C1124 C 0.27647 0.41602 0.87312 0.0
C1125 C 0.29147 0.42341 0.90829 0.0
N1126 N 0.34039 0.44898 0.94516 0.0
N1127 N 0.28691 0.41447 0.80759 0.0
C1128 C 0.32282 0.44624 0.91208 0.0
C1129 C 0.29527 0.42854 0.84139 0.0
N1130 N 0.36132 0.49282 0.88486 0.0
N1131 N 0.24367 0.39801 0.87001 0.0
H1132 H 0.30078 0.42192 0.78376 0.0
H1133 H 0.26875 0.39272 0.80366 0.0
H1134 H 0.22879 0.38885 0.89263 0.0
H1135 H 0.22954 0.39522 0.8453 0.0
H1136 H 0.36807 0.5043 0.91018 0.0
H1137 H 0.37247 0.50703 0.86279 0.0
H1138 H 0.36571 0.46187 0.94849 0.0
H1139 H 0.3316 0.43539 0.96868 0.0
C1140 C 0.32227 0.54708 0.59167 0.0
C1141 C 0.29468 0.57426 0.59549 0.0
C1142 C 0.30046 0.57092 0.66242 0.0
C1143 C 0.32528 0.54127 0.65855 0.0
N1144 N 0.35449 0.49632 0.61978 0.0
N1145 N 0.25221 0.60678 0.63454 0.0
C1146 C 0.33467 0.52793 0.62323 0.0
C1147 C 0.28225 0.58472 0.63089 0.0
N1148 N 0.33801 0.54079 0.55824 0.0
N1149 N 0.29551 0.58714 0.69589 0.0
H1150 H 0.23768 0.61712 0.61224 0.0
H1151 H 0.23957 0.61193 0.65962 0.0
H1152 H 0.30885 0.57848 0.71965 0.0
H1153 H 0.28092 0.61142 0.69948 0.0
H1154 H 0.36088 0.52411 0.55466 0.0
H1155 H 0.33067 0.55502 0.53458 0.0
H1156 H 0.35885 0.48324 0.59474 0.0
H1157 H 0.36358 0.48116 0.64224 0.0
C1158 C 0.21144 0.56036 0.34443 0.0
C1159 C 0.17723 0.54179 0.34632 0.0
C1160 C 0.17364 0.55543 0.41214 0.0
C1161 C 0.20904 0.57147 0.41058 0.0
N1162 N 0.26562 0.5798 0.37773 0.0
N1163 N 0.1301 0.51397 0.3837 0.0
C1164 C 0.22917 0.57114 0.37743 0.0
C1165 C 0.15952 0.53708 0.3807 0.0
N1166 N 0.22624 0.56943 0.31125 0.0
N1167 N 0.1529 0.55881 0.44315 0.0
H1168 H 0.11948 0.49913 0.36164 0.0
H1169 H 0.11859 0.50662 0.40876 0.0
H1170 H 0.16227 0.57188 0.46686 0.0
H1171 H 0.12534 0.55131 0.44433 0.0
H1172 H 0.24925 0.58621 0.30861 0.0
H1173 H 0.21354 0.56348 0.28629 0.0
H1174 H 0.28249 0.577 0.35487 0.0
H1175 H 0.27978 0.58556 0.40196 0.0
loop_
_geom_bond_atom_site_label_1
_geom_bond_atom_site_label_2
_geom_bond_distance
_geom_bond_site_symmetry_2
_ccdc_geom_bond_type
In0 O1 2.307 . S
In0 O2 2.345 . S
In0 O6 2.253 1_455 S
In0 O7 2.307 1_455 S
In0 O8 2.258 1_455 S
In0 O9 2.315 1_455 S
In0 O11 2.302 . S
In0 O12 2.337 . S
O1 In0 2.307 . S
O1 C10 1.240 . S
O2 In0 2.345 . S
O2 C10 1.252 . S
C3 O6 1.252 . S
C3 O7 1.260 . S
C4 O11 1.240 . S
C4 O12 1.252 . S
C5 O8 1.252 . S
C5 O9 1.260 . S
O6 In0 2.253 1_655 S
O6 C3 1.252 . S
O7 In0 2.307 1_655 S
O7 C3 1.260 . S
O8 In0 2.258 1_655 S
O8 C5 1.252 . S
O9 In0 2.315 1_655 S
O9 C5 1.260 . S
C10 O1 1.240 . S
C10 O2 1.252 . S
O11 In0 2.302 . S
O11 C4 1.240 . S
O12 In0 2.337 . S
O12 C4 1.252 . S
In13 O14 2.308 . S
In13 O15 2.348 . S
In13 O19 2.253 1_455 S
In13 O20 2.303 1_455 S
In13 O21 2.271 . S
In13 O22 2.336 . S
In13 O24 2.289 1_455 S
In13 O25 2.317 1_455 S
O14 In13 2.308 . S
O14 C23 1.240 . S
O15 In13 2.348 . S
O15 C23 1.252 . S
C16 O19 1.252 . S
C16 O20 1.260 . S
C17 O24 1.240 . S
C17 O25 1.252 . S
C18 O21 1.252 . S
C18 O22 1.260 . S
O19 In13 2.253 1_655 S
O19 C16 1.252 . S
O20 In13 2.303 1_655 S
O20 C16 1.260 . S
O21 In13 2.271 . S
O21 C18 1.252 . S
O22 In13 2.336 . S
O22 C18 1.260 . S
C23 O14 1.240 . S
C23 O15 1.252 . S
O24 In13 2.289 1_655 S
O24 C17 1.240 . S
O25 In13 2.317 1_655 S
O25 C17 1.252 . S
In26 O27 2.294 . S
In26 O28 2.326 . S
In26 O32 2.266 . S
In26 O33 2.326 . S
In26 O34 2.266 . S
In26 O35 2.326 . S
In26 O37 2.294 . S
In26 O38 2.326 . S
O27 In26 2.294 . S
O27 C36 1.240 . S
O28 In26 2.326 . S
O28 C36 1.252 . S
C29 O32 1.252 . S
C29 O33 1.260 . S
C30 O37 1.240 . S
C30 O38 1.252 . S
C31 O34 1.252 . S
C31 O35 1.260 . S
O32 In26 2.266 . S
O32 C29 1.252 . S
O33 In26 2.326 . S
O33 C29 1.260 . S
O34 In26 2.266 . S
O34 C31 1.252 . S
O35 In26 2.326 . S
O35 C31 1.260 . S
C36 O27 1.240 . S
C36 O28 1.252 . S
O37 In26 2.294 . S
O37 C30 1.240 . S
O38 In26 2.326 . S
O38 C30 1.252 . S
In39 O40 2.294 . S
In39 O41 2.326 . S
In39 O45 2.266 . S
In39 O46 2.326 . S
In39 O47 2.266 . S
In39 O48 2.326 . S
In39 O50 2.294 . S
In39 O51 2.326 . S
O40 In39 2.294 . S
O40 C49 1.240 . S
O41 In39 2.326 . S
O41 C49 1.252 . S
C42 O45 1.252 . S
C42 O46 1.260 . S
C43 O50 1.240 . S
C43 O51 1.252 . S
C44 O47 1.252 . S
C44 O48 1.260 . S
O45 In39 2.266 . S
O45 C42 1.252 . S
O46 In39 2.326 . S
O46 C42 1.260 . S
O47 In39 2.266 . S
O47 C44 1.252 . S
O48 In39 2.326 . S
O48 C44 1.260 . S
C49 O40 1.240 . S
C49 O41 1.252 . S
O50 In39 2.294 . S
O50 C43 1.240 . S
O51 In39 2.326 . S
O51 C43 1.252 . S
In52 O53 2.302 . S
In52 O54 2.337 . S
In52 O58 2.258 1_455 S
In52 O59 2.315 1_455 S
In52 O60 2.253 1_455 S
In52 O61 2.306 1_455 S
In52 O63 2.307 . S
In52 O64 2.346 . S
O53 In52 2.302 . S
O53 C62 1.240 . S
O54 In52 2.337 . S
O54 C62 1.252 . S
C55 O58 1.252 . S
C55 O59 1.260 . S
C56 O63 1.240 . S
C56 O64 1.252 . S
C57 O60 1.252 . S
C57 O61 1.260 . S
O58 In52 2.258 1_655 S
O58 C55 1.252 . S
O59 In52 2.315 1_655 S
O59 C55 1.260 . S
O60 In52 2.253 1_655 S
O60 C57 1.252 . S
O61 In52 2.306 1_655 S
O61 C57 1.260 . S
C62 O53 1.240 . S
C62 O54 1.252 . S
O63 In52 2.307 . S
O63 C56 1.240 . S
O64 In52 2.346 . S
O64 C56 1.252 . S
In65 O66 2.294 . S
In65 O67 2.326 . S
In65 O71 2.266 . S
In65 O72 2.326 . S
In65 O73 2.266 . S
In65 O74 2.326 . S
In65 O76 2.294 . S
In65 O77 2.326 . S
O66 In65 2.294 . S
O66 C75 1.240 . S
O67 In65 2.326 . S
O67 C75 1.252 . S
C68 O71 1.252 . S
C68 O72 1.260 . S
C69 O76 1.240 . S
C69 O77 1.252 . S
C70 O73 1.252 . S
C70 O74 1.260 . S
O71 In65 2.266 . S
O71 C68 1.252 . S
O72 In65 2.326 . S
O72 C68 1.260 . S
O73 In65 2.266 . S
O73 C70 1.252 . S
O74 In65 2.326 . S
O74 C70 1.260 . S
C75 O66 1.240 . S
C75 O67 1.252 . S
O76 In65 2.294 . S
O76 C69 1.240 . S
O77 In65 2.326 . S
O77 C69 1.252 . S
In78 O79 2.294 . S
In78 O80 2.326 . S
In78 O84 2.266 . S
In78 O85 2.326 . S
In78 O86 2.266 . S
In78 O87 2.326 . S
In78 O89 2.294 . S
In78 O90 2.326 . S
O79 In78 2.294 . S
O79 C88 1.240 . S
O80 In78 2.326 . S
O80 C88 1.252 . S
C81 O84 1.252 . S
C81 O85 1.260 . S
C82 O89 1.240 . S
C82 O90 1.252 . S
C83 O86 1.252 . S
C83 O87 1.260 . S
O84 In78 2.266 . S
O84 C81 1.252 . S
O85 In78 2.326 . S
O85 C81 1.260 . S
O86 In78 2.266 . S
O86 C83 1.252 . S
O87 In78 2.326 . S
O87 C83 1.260 . S
C88 O79 1.240 . S
C88 O80 1.252 . S
O89 In78 2.294 . S
O89 C82 1.240 . S
O90 In78 2.326 . S
O90 C82 1.252 . S
In91 O92 2.289 1_455 S
In91 O93 2.318 1_455 S
In91 O97 2.271 . S
In91 O98 2.334 . S
In91 O99 2.265 1_455 S
In91 O100 2.322 1_455 S
In91 O102 2.296 . S
In91 O103 2.330 . S
O92 In91 2.289 1_655 S
O92 C101 1.240 . S
O93 In91 2.318 1_655 S
O93 C101 1.252 . S
C94 O97 1.252 . S
C94 O98 1.260 . S
C95 O102 1.240 . S
C95 O103 1.252 . S
C96 O99 1.252 . S
C96 O100 1.260 . S
O97 In91 2.271 . S
O97 C94 1.252 . S
O98 In91 2.334 . S
O98 C94 1.260 . S
O99 In91 2.265 1_655 S
O99 C96 1.252 . S
O100 In91 2.322 1_655 S
O100 C96 1.260 . S
C101 O92 1.240 . S
C101 O93 1.252 . S
O102 In91 2.296 . S
O102 C95 1.240 . S
O103 In91 2.330 . S
O103 C95 1.252 . S
In104 O105 2.302 . S
In104 O106 2.337 . S
In104 O110 2.258 1_545 S
In104 O111 2.315 1_545 S
In104 O112 2.253 1_545 S
In104 O113 2.307 1_545 S
In104 O115 2.307 . S
In104 O116 2.345 . S
O105 In104 2.302 . S
O105 C114 1.240 . S
O106 In104 2.337 . S
O106 C114 1.252 . S
C107 O110 1.252 . S
C107 O111 1.260 . S
C108 O115 1.240 . S
C108 O116 1.252 . S
C109 O112 1.252 . S
C109 O113 1.260 . S
O110 In104 2.258 1_565 S
O110 C107 1.252 . S
O111 In104 2.315 1_565 S
O111 C107 1.260 . S
O112 In104 2.253 1_565 S
O112 C109 1.252 . S
O113 In104 2.307 1_565 S
O113 C109 1.260 . S
C114 O105 1.240 . S
C114 O106 1.252 . S
O115 In104 2.307 . S
O115 C108 1.240 . S
O116 In104 2.345 . S
O116 C108 1.252 . S
In117 O118 2.294 . S
In117 O119 2.326 . S
In117 O123 2.266 . S
In117 O124 2.326 . S
In117 O125 2.266 . S
In117 O126 2.326 . S
In117 O128 2.294 . S
In117 O129 2.326 . S
O118 In117 2.294 . S
O118 C127 1.240 . S
O119 In117 2.326 . S
O119 C127 1.252 . S
C120 O123 1.252 . S
C120 O124 1.260 . S
C121 O128 1.240 . S
C121 O129 1.252 . S
C122 O125 1.252 . S
C122 O126 1.260 . S
O123 In117 2.266 . S
O123 C120 1.252 . S
O124 In117 2.326 . S
O124 C120 1.260 . S
O125 In117 2.266 . S
O125 C122 1.252 . S
O126 In117 2.326 . S
O126 C122 1.260 . S
C127 O118 1.240 . S
C127 O119 1.252 . S
O128 In117 2.294 . S
O128 C121 1.240 . S
O129 In117 2.326 . S
O129 C121 1.252 . S
In130 O131 2.307 . S
In130 O132 2.346 . S
In130 O136 2.253 1_545 S
In130 O137 2.306 1_545 S
In130 O138 2.258 1_545 S
In130 O139 2.315 1_545 S
In130 O141 2.302 . S
In130 O142 2.337 . S
O131 In130 2.307 . S
O131 C140 1.240 . S
O132 In130 2.346 . S
O132 C140 1.252 . S
C133 O136 1.252 . S
C133 O137 1.260 . S
C134 O141 1.240 . S
C134 O142 1.252 . S
C135 O138 1.252 . S
C135 O139 1.260 . S
O136 In130 2.253 1_565 S
O136 C133 1.252 . S
O137 In130 2.306 1_565 S
O137 C133 1.260 . S
O138 In130 2.258 1_565 S
O138 C135 1.252 . S
O139 In130 2.315 1_565 S
O139 C135 1.260 . S
C140 O131 1.240 . S
C140 O132 1.252 . S
O141 In130 2.302 . S
O141 C134 1.240 . S
O142 In130 2.337 . S
O142 C134 1.252 . S
In143 O144 2.296 . S
In143 O145 2.330 . S
In143 O149 2.265 1_554 S
In143 O150 2.322 1_554 S
In143 O151 2.271 . S
In143 O152 2.334 . S
In143 O154 2.289 1_554 S
In143 O155 2.318 1_554 S
O144 In143 2.296 . S
O144 C153 1.240 . S
O145 In143 2.330 . S
O145 C153 1.252 . S
C146 O149 1.252 . S
C146 O150 1.260 . S
C147 O154 1.240 . S
C147 O155 1.252 . S
C148 O151 1.252 . S
C148 O152 1.260 . S
O149 In143 2.265 1_556 S
O149 C146 1.252 . S
O150 In143 2.322 1_556 S
O150 C146 1.260 . S
O151 In143 2.271 . S
O151 C148 1.252 . S
O152 In143 2.334 . S
O152 C148 1.260 . S
C153 O144 1.240 . S
C153 O145 1.252 . S
O154 In143 2.289 1_556 S
O154 C147 1.240 . S
O155 In143 2.318 1_556 S
O155 C147 1.252 . S
In156 O157 2.307 . S
In156 O158 2.345 . S
In156 O162 2.253 1_554 S
In156 O163 2.307 1_554 S
In156 O164 2.258 1_554 S
In156 O165 2.315 1_554 S
In156 O167 2.302 . S
In156 O168 2.337 . S
O157 In156 2.307 . S
O157 C166 1.240 . S
O158 In156 2.345 . S
O158 C166 1.252 . S
C159 O162 1.252 . S
C159 O163 1.260 . S
C160 O167 1.240 . S
C160 O168 1.252 . S
C161 O164 1.252 . S
C161 O165 1.260 . S
O162 In156 2.253 1_556 S
O162 C159 1.252 . S
O163 In156 2.307 1_556 S
O163 C159 1.260 . S
O164 In156 2.258 1_556 S
O164 C161 1.252 . S
O165 In156 2.315 1_556 S
O165 C161 1.260 . S
C166 O157 1.240 . S
C166 O158 1.252 . S
O167 In156 2.302 . S
O167 C160 1.240 . S
O168 In156 2.337 . S
O168 C160 1.252 . S
In169 O170 2.307 . S
In169 O171 2.346 . S
In169 O175 2.253 1_554 S
In169 O176 2.306 1_554 S
In169 O177 2.258 1_554 S
In169 O178 2.315 1_554 S
In169 O180 2.302 . S
In169 O181 2.337 . S
O170 In169 2.307 . S
O170 C179 1.240 . S
O171 In169 2.346 . S
O171 C179 1.252 . S
C172 O175 1.252 . S
C172 O176 1.260 . S
C173 O180 1.240 . S
C173 O181 1.252 . S
C174 O177 1.252 . S
C174 O178 1.260 . S
O175 In169 2.253 1_556 S
O175 C172 1.252 . S
O176 In169 2.306 1_556 S
O176 C172 1.260 . S
O177 In169 2.258 1_556 S
O177 C174 1.252 . S
O178 In169 2.315 1_556 S
O178 C174 1.260 . S
C179 O170 1.240 . S
C179 O171 1.252 . S
O180 In169 2.302 . S
O180 C173 1.240 . S
O181 In169 2.337 . S
O181 C173 1.252 . S
In182 O183 2.294 . S
In182 O184 2.326 . S
In182 O188 2.266 . S
In182 O189 2.326 . S
In182 O190 2.266 . S
In182 O191 2.326 . S
In182 O193 2.294 . S
In182 O194 2.326 . S
O183 In182 2.294 . S
O183 C192 1.240 . S
O184 In182 2.326 . S
O184 C192 1.252 . S
C185 O188 1.252 . S
C185 O189 1.260 . S
C186 O193 1.240 . S
C186 O194 1.252 . S
C187 O190 1.252 . S
C187 O191 1.260 . S
O188 In182 2.266 . S
O188 C185 1.252 . S
O189 In182 2.326 . S
O189 C185 1.260 . S
O190 In182 2.266 . S
O190 C187 1.252 . S
O191 In182 2.326 . S
O191 C187 1.260 . S
C192 O183 1.240 . S
C192 O184 1.252 . S
O193 In182 2.294 . S
O193 C186 1.240 . S
O194 In182 2.326 . S
O194 C186 1.252 . S
In195 O196 2.294 . S
In195 O197 2.326 . S
In195 O201 2.266 . S
In195 O202 2.326 . S
In195 O203 2.266 . S
In195 O204 2.326 . S
In195 O206 2.294 . S
In195 O207 2.326 . S
O196 In195 2.294 . S
O196 C205 1.240 . S
O197 In195 2.326 . S
O197 C205 1.252 . S
C198 O201 1.252 . S
C198 O202 1.260 . S
C199 O206 1.240 . S
C199 O207 1.252 . S
C200 O203 1.252 . S
C200 O204 1.260 . S
O201 In195 2.266 . S
O201 C198 1.252 . S
O202 In195 2.326 . S
O202 C198 1.260 . S
O203 In195 2.266 . S
O203 C200 1.252 . S
O204 In195 2.326 . S
O204 C200 1.260 . S
C205 O196 1.240 . S
C205 O197 1.252 . S
O206 In195 2.294 . S
O206 C199 1.240 . S
O207 In195 2.326 . S
O207 C199 1.252 . S
In208 O209 2.296 . S
In208 O210 2.330 . S
In208 O214 2.265 1_545 S
In208 O215 2.322 1_545 S
In208 O216 2.271 . S
In208 O217 2.334 . S
In208 O219 2.289 1_545 S
In208 O220 2.318 1_545 S
O209 In208 2.296 . S
O209 C218 1.240 . S
O210 In208 2.330 . S
O210 C218 1.252 . S
C211 O214 1.252 . S
C211 O215 1.260 . S
C212 O219 1.240 . S
C212 O220 1.252 . S
C213 O216 1.252 . S
C213 O217 1.260 . S
O214 In208 2.265 1_565 S
O214 C211 1.252 . S
O215 In208 2.322 1_565 S
O215 C211 1.260 . S
O216 In208 2.271 . S
O216 C213 1.252 . S
O217 In208 2.334 . S
O217 C213 1.260 . S
C218 O209 1.240 . S
C218 O210 1.252 . S
O219 In208 2.289 1_565 S
O219 C212 1.240 . S
O220 In208 2.318 1_565 S
O220 C212 1.252 . S
In221 O222 2.294 . S
In221 O223 2.326 . S
In221 O227 2.266 . S
In221 O228 2.326 . S
In221 O229 2.266 . S
In221 O230 2.326 . S
In221 O232 2.294 . S
In221 O233 2.326 . S
O222 In221 2.294 . S
O222 C231 1.240 . S
O223 In221 2.326 . S
O223 C231 1.252 . S
C224 O227 1.252 . S
C224 O228 1.260 . S
C225 O232 1.240 . S
C225 O233 1.252 . S
C226 O229 1.252 . S
C226 O230 1.260 . S
O227 In221 2.266 . S
O227 C224 1.252 . S
O228 In221 2.326 . S
O228 C224 1.260 . S
O229 In221 2.266 . S
O229 C226 1.252 . S
O230 In221 2.326 . S
O230 C226 1.260 . S
C231 O222 1.240 . S
C231 O223 1.252 . S
O232 In221 2.294 . S
O232 C225 1.240 . S
O233 In221 2.326 . S
O233 C225 1.252 . S
In234 O235 2.294 . S
In234 O236 2.326 . S
In234 O240 2.266 . S
In234 O241 2.326 . S
In234 O242 2.266 . S
In234 O243 2.326 . S
In234 O245 2.294 . S
In234 O246 2.326 . S
O235 In234 2.294 . S
O235 C244 1.240 . S
O236 In234 2.326 . S
O236 C244 1.252 . S
C237 O240 1.252 . S
C237 O241 1.260 . S
C238 O245 1.240 . S
C238 O246 1.252 . S
C239 O242 1.252 . S
C239 O243 1.260 . S
O240 In234 2.266 . S
O240 C237 1.252 . S
O241 In234 2.326 . S
O241 C237 1.260 . S
O242 In234 2.266 . S
O242 C239 1.252 . S
O243 In234 2.326 . S
O243 C239 1.260 . S
C244 O235 1.240 . S
C244 O236 1.252 . S
O245 In234 2.294 . S
O245 C238 1.240 . S
O246 In234 2.326 . S
O246 C238 1.252 . S
In247 O248 2.289 1_545 S
In247 O249 2.317 1_545 S
In247 O253 2.271 . S
In247 O254 2.336 . S
In247 O255 2.253 1_545 S
In247 O256 2.303 1_545 S
In247 O258 2.308 . S
In247 O259 2.348 . S
O248 In247 2.289 1_565 S
O248 C257 1.240 . S
O249 In247 2.317 1_565 S
O249 C257 1.252 . S
C250 O253 1.252 . S
C250 O254 1.260 . S
C251 O258 1.240 . S
C251 O259 1.252 . S
C252 O255 1.252 . S
C252 O256 1.260 . S
O253 In247 2.271 . S
O253 C250 1.252 . S
O254 In247 2.336 . S
O254 C250 1.260 . S
O255 In247 2.253 1_565 S
O255 C252 1.252 . S
O256 In247 2.303 1_565 S
O256 C252 1.260 . S
C257 O248 1.240 . S
C257 O249 1.252 . S
O258 In247 2.308 . S
O258 C251 1.240 . S
O259 In247 2.348 . S
O259 C251 1.252 . S
In260 O261 2.308 . S
In260 O262 2.348 . S
In260 O266 2.253 1_554 S
In260 O267 2.303 1_554 S
In260 O268 2.271 . S
In260 O269 2.336 . S
In260 O271 2.289 1_554 S
In260 O272 2.317 1_554 S
O261 In260 2.308 . S
O261 C270 1.240 . S
O262 In260 2.348 . S
O262 C270 1.252 . S
C263 O266 1.252 . S
C263 O267 1.260 . S
C264 O271 1.240 . S
C264 O272 1.252 . S
C265 O268 1.252 . S
C265 O269 1.260 . S
O266 In260 2.253 1_556 S
O266 C263 1.252 . S
O267 In260 2.303 1_556 S
O267 C263 1.260 . S
O268 In260 2.271 . S
O268 C265 1.252 . S
O269 In260 2.336 . S
O269 C265 1.260 . S
C270 O261 1.240 . S
C270 O262 1.252 . S
O271 In260 2.289 1_556 S
O271 C264 1.240 . S
O272 In260 2.317 1_556 S
O272 C264 1.252 . S
In273 O274 2.294 . S
In273 O275 2.326 . S
In273 O279 2.266 . S
In273 O280 2.326 . S
In273 O281 2.266 . S
In273 O282 2.326 . S
In273 O284 2.294 . S
In273 O285 2.326 . S
O274 In273 2.294 . S
O274 C283 1.240 . S
O275 In273 2.326 . S
O275 C283 1.252 . S
C276 O279 1.252 . S
C276 O280 1.260 . S
C277 O284 1.240 . S
C277 O285 1.252 . S
C278 O281 1.252 . S
C278 O282 1.260 . S
O279 In273 2.266 . S
O279 C276 1.252 . S
O280 In273 2.326 . S
O280 C276 1.260 . S
O281 In273 2.266 . S
O281 C278 1.252 . S
O282 In273 2.326 . S
O282 C278 1.260 . S
C283 O274 1.240 . S
C283 O275 1.252 . S
O284 In273 2.294 . S
O284 C277 1.240 . S
O285 In273 2.326 . S
O285 C277 1.252 . S
In286 O287 2.294 . S
In286 O288 2.326 . S
In286 O292 2.266 . S
In286 O293 2.326 . S
In286 O294 2.266 . S
In286 O295 2.326 . S
In286 O297 2.294 . S
In286 O298 2.326 . S
O287 In286 2.294 . S
O287 C296 1.240 . S
O288 In286 2.326 . S
O288 C296 1.252 . S
C289 O292 1.252 . S
C289 O293 1.260 . S
C290 O297 1.240 . S
C290 O298 1.252 . S
C291 O294 1.252 . S
C291 O295 1.260 . S
O292 In286 2.266 . S
O292 C289 1.252 . S
O293 In286 2.326 . S
O293 C289 1.260 . S
O294 In286 2.266 . S
O294 C291 1.252 . S
O295 In286 2.326 . S
O295 C291 1.260 . S
C296 O287 1.240 . S
C296 O288 1.252 . S
O297 In286 2.294 . S
O297 C290 1.240 . S
O298 In286 2.326 . S
O298 C290 1.252 . S
In299 O300 2.294 . S
In299 O301 2.326 . S
In299 O305 2.266 . S
In299 O306 2.326 . S
In299 O307 2.266 . S
In299 O308 2.326 . S
In299 O310 2.294 . S
In299 O311 2.326 . S
O300 In299 2.294 . S
O300 C309 1.240 . S
O301 In299 2.326 . S
O301 C309 1.252 . S
C302 O305 1.252 . S
C302 O306 1.260 . S
C303 O310 1.240 . S
C303 O311 1.252 . S
C304 O307 1.252 . S
C304 O308 1.260 . S
O305 In299 2.266 . S
O305 C302 1.252 . S
O306 In299 2.326 . S
O306 C302 1.260 . S
O307 In299 2.266 . S
O307 C304 1.252 . S
O308 In299 2.326 . S
O308 C304 1.260 . S
C309 O300 1.240 . S
C309 O301 1.252 . S
O310 In299 2.294 . S
O310 C303 1.240 . S
O311 In299 2.326 . S
O311 C303 1.252 . S
C312 C313 1.363 . S
C312 C318 1.379 . S
C312 N320 1.356 . S
C313 C312 1.363 . S
C313 C319 1.363 . S
C314 C315 1.363 . S
C314 C319 1.379 . S
C314 N321 1.356 . S
C315 C314 1.363 . S
C315 C318 1.363 . S
N316 C318 1.356 . S
N316 H328 0.984 . S
N316 H329 0.985 . S
N317 C319 1.356 . S
N317 H322 0.984 . S
N317 H323 0.985 . S
C318 C312 1.379 . S
C318 C315 1.363 . S
C318 N316 1.356 . S
C319 C313 1.363 . S
C319 C314 1.379 . S
C319 N317 1.356 . S
N320 C312 1.356 . S
N320 H326 0.984 . S
N320 H327 0.984 . S
N321 C314 1.356 . S
N321 H324 0.984 . S
N321 H325 0.985 1_455 S
H322 N317 0.984 . S
H323 N317 0.985 . S
H324 N321 0.984 . S
H325 N321 0.985 1_655 S
H326 N320 0.984 . S
H327 N320 0.984 . S
H328 N316 0.984 . S
H329 N316 0.985 . S
C330 C331 1.363 . S
C330 C336 1.379 . S
C330 N338 1.356 . S
C331 C330 1.363 . S
C331 C337 1.363 . S
C332 C333 1.363 . S
C332 C337 1.379 . S
C332 N339 1.356 . S
C333 C332 1.363 . S
C333 C336 1.363 . S
N334 C336 1.356 . S
N334 H346 0.984 . S
N334 H347 0.985 . S
N335 C337 1.356 . S
N335 H340 0.984 . S
N335 H341 0.985 . S
C336 C330 1.379 . S
C336 C333 1.363 . S
C336 N334 1.356 . S
C337 C331 1.363 . S
C337 C332 1.379 . S
C337 N335 1.356 . S
N338 C330 1.356 . S
N338 H344 0.984 . S
N338 H345 0.984 . S
N339 C332 1.356 . S
N339 H342 0.984 . S
N339 H343 0.985 . S
H340 N335 0.984 . S
H341 N335 0.985 . S
H342 N339 0.984 . S
H343 N339 0.985 . S
H344 N338 0.984 . S
H345 N338 0.984 . S
H346 N334 0.984 . S
H347 N334 0.985 . S
C348 C349 1.363 . S
C348 C354 1.379 . S
C348 N356 1.356 . S
C349 C348 1.363 . S
C349 C355 1.363 . S
C350 C351 1.363 . S
C350 C355 1.379 . S
C350 N357 1.356 . S
C351 C350 1.363 . S
C351 C354 1.363 . S
N352 C354 1.356 . S
N352 H364 0.984 . S
N352 H365 0.985 . S
N353 C355 1.356 . S
N353 H358 0.984 . S
N353 H359 0.985 . S
C354 C348 1.379 . S
C354 C351 1.363 . S
C354 N352 1.356 . S
C355 C349 1.363 . S
C355 C350 1.379 . S
C355 N353 1.356 . S
N356 C348 1.356 . S
N356 H362 0.984 . S
N356 H363 0.984 . S
N357 C350 1.356 . S
N357 H360 0.984 . S
N357 H361 0.985 . S
H358 N353 0.984 . S
H359 N353 0.985 . S
H360 N357 0.984 . S
H361 N357 0.985 . S
H362 N356 0.984 . S
H363 N356 0.984 . S
H364 N352 0.984 . S
H365 N352 0.985 . S
C366 C367 1.363 . S
C366 C372 1.379 . S
C366 N374 1.356 . S
C367 C366 1.363 . S
C367 C373 1.363 . S
C368 C369 1.363 . S
C368 C373 1.379 . S
C368 N375 1.356 . S
C369 C368 1.363 . S
C369 C372 1.363 . S
N370 C372 1.356 . S
N370 H382 0.984 . S
N370 H383 0.985 . S
N371 C373 1.356 . S
N371 H376 0.984 . S
N371 H377 0.985 . S
C372 C366 1.379 . S
C372 C369 1.363 . S
C372 N370 1.356 . S
C373 C367 1.363 . S
C373 C368 1.379 . S
C373 N371 1.356 . S
N374 C366 1.356 . S
N374 H380 0.984 . S
N374 H381 0.984 . S
N375 C368 1.356 . S
N375 H378 0.984 . S
N375 H379 0.985 . S
H376 N371 0.984 . S
H377 N371 0.985 . S
H378 N375 0.984 . S
H379 N375 0.985 . S
H380 N374 0.984 . S
H381 N374 0.984 . S
H382 N370 0.984 . S
H383 N370 0.985 . S
C384 C385 1.363 . S
C384 C390 1.379 . S
C384 N392 1.356 . S
C385 C384 1.363 . S
C385 C391 1.363 . S
C386 C387 1.363 . S
C386 C391 1.379 . S
C386 N393 1.356 . S
C387 C386 1.363 . S
C387 C390 1.363 . S
N388 C390 1.356 . S
N388 H400 0.984 . S
N388 H401 0.985 . S
N389 C391 1.356 . S
N389 H394 0.984 . S
N389 H395 0.985 . S
C390 C384 1.379 . S
C390 C387 1.363 . S
C390 N388 1.356 . S
C391 C385 1.363 . S
C391 C386 1.379 . S
C391 N389 1.356 . S
N392 C384 1.356 . S
N392 H398 0.984 . S
N392 H399 0.984 . S
N393 C386 1.356 . S
N393 H396 0.984 . S
N393 H397 0.985 . S
H394 N389 0.984 . S
H395 N389 0.985 . S
H396 N393 0.984 . S
H397 N393 0.985 . S
H398 N392 0.984 . S
H399 N392 0.984 . S
H400 N388 0.984 . S
H401 N388 0.985 . S
C402 C403 1.363 . S
C402 C408 1.379 . S
C402 N410 1.356 . S
C403 C402 1.363 . S
C403 C409 1.363 . S
C404 C405 1.363 . S
C404 C409 1.379 . S
C404 N411 1.356 . S
C405 C404 1.363 . S
C405 C408 1.363 . S
N406 C408 1.356 . S
N406 H418 0.984 . S
N406 H419 0.985 . S
N407 C409 1.356 . S
N407 H412 0.984 . S
N407 H413 0.985 . S
C408 C402 1.379 . S
C408 C405 1.363 . S
C408 N406 1.356 . S
C409 C403 1.363 . S
C409 C404 1.379 . S
C409 N407 1.356 . S
N410 C402 1.356 . S
N410 H416 0.984 . S
N410 H417 0.984 . S
N411 C404 1.356 . S
N411 H414 0.984 . S
N411 H415 0.985 . S
H412 N407 0.984 . S
H413 N407 0.985 . S
H414 N411 0.984 . S
H415 N411 0.985 . S
H416 N410 0.984 . S
H417 N410 0.984 . S
H418 N406 0.984 . S
H419 N406 0.985 . S
C420 C421 1.363 . S
C420 C426 1.379 . S
C420 N428 1.356 . S
C421 C420 1.363 . S
C421 C427 1.363 . S
C422 C423 1.363 . S
C422 C427 1.379 . S
C422 N429 1.356 . S
C423 C422 1.363 . S
C423 C426 1.363 . S
N424 C426 1.356 . S
N424 H436 0.984 . S
N424 H437 0.985 . S
N425 C427 1.356 . S
N425 H430 0.984 . S
N425 H431 0.985 . S
C426 C420 1.379 . S
C426 C423 1.363 . S
C426 N424 1.356 . S
C427 C421 1.363 . S
C427 C422 1.379 . S
C427 N425 1.356 . S
N428 C420 1.356 . S
N428 H434 0.984 . S
N428 H435 0.984 . S
N429 C422 1.356 . S
N429 H432 0.984 . S
N429 H433 0.985 . S
H430 N425 0.984 . S
H431 N425 0.985 . S
H432 N429 0.984 . S
H433 N429 0.985 . S
H434 N428 0.984 . S
H435 N428 0.984 . S
H436 N424 0.984 . S
H437 N424 0.985 . S
C438 C439 1.363 . S
C438 C444 1.379 . S
C438 N446 1.356 . S
C439 C438 1.363 . S
C439 C445 1.363 . S
C440 C441 1.363 . S
C440 C445 1.379 . S
C440 N447 1.356 . S
C441 C440 1.363 . S
C441 C444 1.363 . S
N442 C444 1.356 . S
N442 H454 0.984 1_556 S
N442 H455 0.985 . S
N443 C445 1.356 . S
N443 H448 0.984 . S
N443 H449 0.985 . S
C444 C438 1.379 . S
C444 C441 1.363 . S
C444 N442 1.356 . S
C445 C439 1.363 . S
C445 C440 1.379 . S
C445 N443 1.356 . S
N446 C438 1.356 . S
N446 H452 0.984 . S
N446 H453 0.984 . S
N447 C440 1.356 . S
N447 H450 0.984 . S
N447 H451 0.985 . S
H448 N443 0.984 . S
H449 N443 0.985 . S
H450 N447 0.984 . S
H451 N447 0.985 . S
H452 N446 0.984 . S
H453 N446 0.984 . S
H454 N442 0.984 1_554 S
H455 N442 0.985 . S
C456 C457 1.363 . S
C456 C462 1.379 . S
C456 N464 1.356 . S
C457 C456 1.363 . S
C457 C463 1.363 . S
C458 C459 1.363 . S
C458 C463 1.379 . S
C458 N465 1.356 . S
C459 C458 1.363 . S
C459 C462 1.363 . S
N460 C462 1.356 . S
N460 H472 0.984 . S
N460 H473 0.985 . S
N461 C463 1.356 . S
N461 H466 0.984 . S
N461 H467 0.985 . S
C462 C456 1.379 . S
C462 C459 1.363 . S
C462 N460 1.356 . S
C463 C457 1.363 . S
C463 C458 1.379 . S
C463 N461 1.356 . S
N464 C456 1.356 . S
N464 H470 0.984 . S
N464 H471 0.984 . S
N465 C458 1.356 . S
N465 H468 0.984 . S
N465 H469 0.985 . S
H466 N461 0.984 . S
H467 N461 0.985 . S
H468 N465 0.984 . S
H469 N465 0.985 . S
H470 N464 0.984 . S
H471 N464 0.984 . S
H472 N460 0.984 . S
H473 N460 0.985 . S
C474 C475 1.363 . S
C474 C480 1.379 . S
C474 N482 1.356 . S
C475 C474 1.363 . S
C475 C481 1.363 . S
C476 C477 1.363 . S
C476 C481 1.379 . S
C476 N483 1.356 . S
C477 C476 1.363 . S
C477 C480 1.363 . S
N478 C480 1.356 . S
N478 H490 0.984 . S
N478 H491 0.985 . S
N479 C481 1.356 . S
N479 H484 0.984 . S
N479 H485 0.985 1_545 S
C480 C474 1.379 . S
C480 C477 1.363 . S
C480 N478 1.356 . S
C481 C475 1.363 . S
C481 C476 1.379 . S
C481 N479 1.356 . S
N482 C474 1.356 . S
N482 H488 0.984 . S
N482 H489 0.984 . S
N483 C476 1.356 . S
N483 H486 0.984 . S
N483 H487 0.985 . S
H484 N479 0.984 . S
H485 N479 0.985 1_565 S
H486 N483 0.984 . S
H487 N483 0.985 . S
H488 N482 0.984 . S
H489 N482 0.984 . S
H490 N478 0.984 . S
H491 N478 0.985 . S
C492 C493 1.363 . S
C492 C498 1.379 . S
C492 N500 1.356 . S
C493 C492 1.363 . S
C493 C499 1.363 . S
C494 C495 1.363 . S
C494 C499 1.379 . S
C494 N501 1.356 . S
C495 C494 1.363 . S
C495 C498 1.363 . S
N496 C498 1.356 . S
N496 H508 0.984 . S
N496 H509 0.985 . S
N497 C499 1.356 . S
N497 H502 0.990 . S
N497 H503 0.985 1_565 S
C498 C492 1.379 . S
C498 C495 1.363 . S
C498 N496 1.356 . S
C499 C493 1.363 . S
C499 C494 1.379 . S
C499 N497 1.356 . S
N500 C492 1.356 . S
N500 H506 0.984 . S
N500 H507 0.984 . S
N501 C494 1.356 . S
N501 H504 0.984 . S
N501 H505 0.985 . S
H502 N497 0.990 . S
H503 N497 0.985 1_545 S
H504 N501 0.984 . S
H505 N501 0.985 . S
H506 N500 0.984 . S
H507 N500 0.984 . S
H508 N496 0.984 . S
H509 N496 0.985 . S
C510 C511 1.363 . S
C510 C516 1.379 . S
C510 N518 1.356 . S
C511 C510 1.363 . S
C511 C517 1.363 . S
C512 C513 1.363 . S
C512 C517 1.379 . S
C512 N519 1.356 . S
C513 C512 1.363 . S
C513 C516 1.363 . S
N514 C516 1.356 . S
N514 H526 0.984 1_565 S
N514 H527 0.985 . S
N515 C517 1.356 . S
N515 H520 0.984 . S
N515 H521 0.985 . S
C516 C510 1.379 . S
C516 C513 1.363 . S
C516 N514 1.356 . S
C517 C511 1.363 . S
C517 C512 1.379 . S
C517 N515 1.356 . S
N518 C510 1.356 . S
N518 H524 0.984 . S
N518 H525 0.984 . S
N519 C512 1.356 . S
N519 H522 0.984 . S
N519 H523 0.985 . S
H520 N515 0.984 . S
H521 N515 0.985 . S
H522 N519 0.984 . S
H523 N519 0.985 . S
H524 N518 0.984 . S
H525 N518 0.984 . S
H526 N514 0.984 1_545 S
H527 N514 0.985 . S
C528 C529 1.363 . S
C528 C534 1.379 . S
C528 N536 1.356 . S
C529 C528 1.363 . S
C529 C535 1.363 . S
C530 C531 1.363 . S
C530 C535 1.379 . S
C530 N537 1.356 . S
C531 C530 1.363 . S
C531 C534 1.363 . S
N532 C534 1.356 . S
N532 H544 0.984 . S
N532 H545 0.985 . S
N533 C535 1.356 . S
N533 H538 0.984 . S
N533 H539 0.985 . S
C534 C528 1.379 . S
C534 C531 1.363 . S
C534 N532 1.356 . S
C535 C529 1.363 . S
C535 C530 1.379 . S
C535 N533 1.356 . S
N536 C528 1.356 . S
N536 H542 0.984 . S
N536 H543 0.984 . S
N537 C530 1.356 . S
N537 H540 0.984 . S
N537 H541 0.985 . S
H538 N533 0.984 . S
H539 N533 0.985 . S
H540 N537 0.984 . S
H541 N537 0.985 . S
H542 N536 0.984 . S
H543 N536 0.984 . S
H544 N532 0.984 . S
H545 N532 0.985 . S
C546 C547 1.363 . S
C546 C552 1.379 . S
C546 N554 1.356 . S
C547 C546 1.363 . S
C547 C553 1.363 . S
C548 C549 1.363 . S
C548 C553 1.379 . S
C548 N555 1.356 . S
C549 C548 1.363 . S
C549 C552 1.363 . S
N550 C552 1.356 . S
N550 H562 0.984 . S
N550 H563 0.985 . S
N551 C553 1.356 . S
N551 H556 0.984 . S
N551 H557 0.985 . S
C552 C546 1.379 . S
C552 C549 1.363 . S
C552 N550 1.356 . S
C553 C547 1.363 . S
C553 C548 1.379 . S
C553 N551 1.356 . S
N554 C546 1.356 . S
N554 H560 0.984 . S
N554 H561 0.984 . S
N555 C548 1.356 . S
N555 H558 0.984 . S
N555 H559 0.985 . S
H556 N551 0.984 . S
H557 N551 0.985 . S
H558 N555 0.984 . S
H559 N555 0.985 . S
H560 N554 0.984 . S
H561 N554 0.984 . S
H562 N550 0.984 . S
H563 N550 0.985 . S
C564 C565 1.363 . S
C564 C570 1.379 . S
C564 N572 1.356 . S
C565 C564 1.363 . S
C565 C571 1.363 . S
C566 C567 1.363 . S
C566 C571 1.379 . S
C566 N573 1.356 . S
C567 C566 1.363 . S
C567 C570 1.363 . S
N568 C570 1.356 . S
N568 H580 0.984 . S
N568 H581 0.985 . S
N569 C571 1.356 . S
N569 H574 0.984 . S
N569 H575 0.985 . S
C570 C564 1.379 . S
C570 C567 1.363 . S
C570 N568 1.356 . S
C571 C565 1.363 . S
C571 C566 1.379 . S
C571 N569 1.356 . S
N572 C564 1.356 . S
N572 H578 0.984 . S
N572 H579 0.984 . S
N573 C566 1.356 . S
N573 H576 0.984 . S
N573 H577 0.985 . S
H574 N569 0.984 . S
H575 N569 0.985 . S
H576 N573 0.984 . S
H577 N573 0.985 . S
H578 N572 0.984 . S
H579 N572 0.984 . S
H580 N568 0.984 . S
H581 N568 0.985 . S
C582 C583 1.363 . S
C582 C588 1.379 . S
C582 N590 1.356 . S
C583 C582 1.363 . S
C583 C589 1.363 . S
C584 C585 1.363 . S
C584 C589 1.379 . S
C584 N591 1.356 . S
C585 C584 1.363 . S
C585 C588 1.363 . S
N586 C588 1.356 . S
N586 H598 0.984 . S
N586 H599 0.985 . S
N587 C589 1.356 . S
N587 H592 0.984 . S
N587 H593 0.985 . S
C588 C582 1.379 . S
C588 C585 1.363 . S
C588 N586 1.356 . S
C589 C583 1.363 . S
C589 C584 1.379 . S
C589 N587 1.356 . S
N590 C582 1.356 . S
N590 H596 0.984 1_655 S
N590 H597 0.984 1_655 S
N591 C584 1.356 . S
N591 H594 0.984 . S
N591 H595 0.985 . S
H592 N587 0.984 . S
H593 N587 0.985 . S
H594 N591 0.984 . S
H595 N591 0.985 . S
H596 N590 0.984 1_455 S
H597 N590 0.984 1_455 S
H598 N586 0.984 . S
H599 N586 0.985 . S
C600 C601 1.363 . S
C600 C606 1.379 . S
C600 N608 1.356 . S
C601 C600 1.363 . S
C601 C607 1.363 . S
C602 C603 1.363 . S
C602 C607 1.379 . S
C602 N609 1.356 . S
C603 C602 1.363 . S
C603 C606 1.363 . S
N604 C606 1.356 . S
N604 H616 0.984 . S
N604 H617 0.985 . S
N605 C607 1.356 . S
N605 H610 0.984 . S
N605 H611 0.985 . S
C606 C600 1.379 . S
C606 C603 1.363 . S
C606 N604 1.356 . S
C607 C601 1.363 . S
C607 C602 1.379 . S
C607 N605 1.356 . S
N608 C600 1.356 . S
N608 H614 0.984 . S
N608 H615 0.984 . S
N609 C602 1.356 . S
N609 H612 0.984 . S
N609 H613 0.985 . S
H610 N605 0.984 . S
H611 N605 0.985 . S
H612 N609 0.984 . S
H613 N609 0.985 . S
H614 N608 0.984 . S
H615 N608 0.984 . S
H616 N604 0.984 . S
H617 N604 0.985 . S
C618 C619 1.363 . S
C618 C624 1.379 . S
C618 N626 1.356 . S
C619 C618 1.363 . S
C619 C625 1.363 . S
C620 C621 1.363 . S
C620 C625 1.379 . S
C620 N627 1.356 . S
C621 C620 1.363 . S
C621 C624 1.363 . S
N622 C624 1.356 . S
N622 H634 0.984 . S
N622 H635 0.985 . S
N623 C625 1.356 . S
N623 H628 0.984 . S
N623 H629 0.985 . S
C624 C618 1.379 . S
C624 C621 1.363 . S
C624 N622 1.356 . S
C625 C619 1.363 . S
C625 C620 1.379 . S
C625 N623 1.356 . S
N626 C618 1.356 . S
N626 H632 0.984 . S
N626 H633 0.984 . S
N627 C620 1.356 . S
N627 H630 0.984 . S
N627 H631 0.985 . S
H628 N623 0.984 . S
H629 N623 0.985 . S
H630 N627 0.984 . S
H631 N627 0.985 . S
H632 N626 0.984 . S
H633 N626 0.984 . S
H634 N622 0.984 . S
H635 N622 0.985 . S
C636 C637 1.363 . S
C636 C642 1.379 . S
C636 N644 1.356 . S
C637 C636 1.363 . S
C637 C643 1.363 . S
C638 C639 1.363 . S
C638 C643 1.379 . S
C638 N645 1.356 . S
C639 C638 1.363 . S
C639 C642 1.363 . S
N640 C642 1.356 . S
N640 H652 0.984 . S
N640 H653 0.985 . S
N641 C643 1.356 1_554 S
N641 H646 0.984 . S
N641 H647 0.985 . S
C642 C636 1.379 . S
C642 C639 1.363 . S
C642 N640 1.356 . S
C643 C637 1.363 . S
C643 C638 1.379 . S
C643 N641 1.356 1_556 S
N644 C636 1.356 . S
N644 H650 0.984 . S
N644 H651 0.984 . S
N645 C638 1.356 . S
N645 H648 0.984 . S
N645 H649 0.985 1_556 S
H646 N641 0.984 . S
H647 N641 0.985 . S
H648 N645 0.984 . S
H649 N645 0.985 1_554 S
H650 N644 0.984 . S
H651 N644 0.984 . S
H652 N640 0.984 . S
H653 N640 0.985 . S
C654 C655 1.363 . S
C654 C660 1.379 . S
C654 N662 1.356 . S
C655 C654 1.363 . S
C655 C661 1.363 . S
C656 C657 1.363 . S
C656 C661 1.379 . S
C656 N663 1.356 . S
C657 C656 1.363 . S
C657 C660 1.363 . S
N658 C660 1.356 1_455 S
N658 H670 0.984 . S
N658 H671 0.985 . S
N659 C661 1.356 . S
N659 H664 0.984 . S
N659 H665 0.985 . S
C660 C654 1.379 . S
C660 C657 1.363 . S
C660 N658 1.356 1_655 S
C661 C655 1.363 . S
C661 C656 1.379 . S
C661 N659 1.356 . S
N662 C654 1.356 . S
N662 H668 0.984 1_655 S
N662 H669 0.984 . S
N663 C656 1.356 . S
N663 H666 0.984 . S
N663 H667 0.985 . S
H664 N659 0.984 . S
H665 N659 0.985 . S
H666 N663 0.984 . S
H667 N663 0.985 . S
H668 N662 0.984 1_455 S
H669 N662 0.984 . S
H670 N658 0.984 . S
H671 N658 0.985 . S
C672 C673 1.363 . S
C672 C678 1.379 . S
C672 N680 1.356 . S
C673 C672 1.363 . S
C673 C679 1.363 . S
C674 C675 1.363 . S
C674 C679 1.379 . S
C674 N681 1.356 . S
C675 C674 1.363 . S
C675 C678 1.363 . S
N676 C678 1.356 . S
N676 H688 0.984 . S
N676 H689 0.985 . S
N677 C679 1.356 . S
N677 H682 0.984 . S
N677 H683 0.985 . S
C678 C672 1.379 . S
C678 C675 1.363 . S
C678 N676 1.356 . S
C679 C673 1.363 . S
C679 C674 1.379 . S
C679 N677 1.356 . S
N680 C672 1.356 . S
N680 H686 0.984 . S
N680 H687 0.984 . S
N681 C674 1.356 . S
N681 H684 0.984 . S
N681 H685 0.985 . S
H682 N677 0.984 . S
H683 N677 0.985 . S
H684 N681 0.984 . S
H685 N681 0.985 . S
H686 N680 0.984 . S
H687 N680 0.984 . S
H688 N676 0.984 . S
H689 N676 0.985 . S
C690 C691 1.363 . S
C690 C696 1.379 . S
C690 N698 1.356 . S
C691 C690 1.363 . S
C691 C697 1.363 . S
C692 C693 1.363 . S
C692 C697 1.379 . S
C692 N699 1.356 . S
C693 C692 1.363 . S
C693 C696 1.363 . S
N694 C696 1.356 . S
N694 H706 0.984 . S
N694 H707 0.985 . S
N695 C697 1.356 . S
N695 H700 0.984 . S
N695 H701 0.985 . S
C696 C690 1.379 . S
C696 C693 1.363 . S
C696 N694 1.356 . S
C697 C691 1.363 . S
C697 C692 1.379 . S
C697 N695 1.356 . S
N698 C690 1.356 . S
N698 H704 0.984 . S
N698 H705 0.984 . S
N699 C692 1.356 . S
N699 H702 0.984 . S
N699 H703 0.985 . S
H700 N695 0.984 . S
H701 N695 0.985 . S
H702 N699 0.984 . S
H703 N699 0.985 . S
H704 N698 0.984 . S
H705 N698 0.984 . S
H706 N694 0.984 . S
H707 N694 0.985 . S
C708 C709 1.363 . S
C708 C714 1.379 . S
C708 N716 1.356 . S
C709 C708 1.363 . S
C709 C715 1.363 . S
C710 C711 1.363 . S
C710 C715 1.379 . S
C710 N717 1.356 . S
C711 C710 1.363 . S
C711 C714 1.363 . S
N712 C714 1.356 . S
N712 H724 0.984 . S
N712 H725 0.985 . S
N713 C715 1.356 . S
N713 H718 0.984 . S
N713 H719 0.985 . S
C714 C708 1.379 . S
C714 C711 1.363 . S
C714 N712 1.356 . S
C715 C709 1.363 . S
C715 C710 1.379 . S
C715 N713 1.356 . S
N716 C708 1.356 . S
N716 H722 0.984 . S
N716 H723 0.984 . S
N717 C710 1.356 . S
N717 H720 0.984 . S
N717 H721 0.985 . S
H718 N713 0.984 . S
H719 N713 0.985 . S
H720 N717 0.984 . S
H721 N717 0.985 . S
H722 N716 0.984 . S
H723 N716 0.984 . S
H724 N712 0.984 . S
H725 N712 0.985 . S
C726 C727 1.363 . S
C726 C732 1.379 . S
C726 N734 1.356 . S
C727 C726 1.363 . S
C727 C733 1.363 . S
C728 C729 1.363 . S
C728 C733 1.379 . S
C728 N735 1.356 1_565 S
C729 C728 1.363 . S
C729 C732 1.363 . S
N730 C732 1.356 . S
N730 H742 0.984 . S
N730 H743 0.985 . S
N731 C733 1.356 . S
N731 H736 0.984 . S
N731 H737 0.985 1_565 S
C732 C726 1.379 . S
C732 C729 1.363 . S
C732 N730 1.356 . S
C733 C727 1.363 . S
C733 C728 1.379 . S
C733 N731 1.356 . S
N734 C726 1.356 . S
N734 H740 0.984 . S
N734 H741 0.984 . S
N735 C728 1.356 1_545 S
N735 H738 0.984 . S
N735 H739 0.985 . S
H736 N731 0.984 . S
H737 N731 0.985 1_545 S
H738 N735 0.984 . S
H739 N735 0.985 . S
H740 N734 0.984 . S
H741 N734 0.984 . S
H742 N730 0.984 . S
H743 N730 0.985 . S
C744 C745 1.363 . S
C744 C750 1.379 . S
C744 N752 1.356 . S
C745 C744 1.363 . S
C745 C751 1.363 . S
C746 C747 1.363 . S
C746 C751 1.379 . S
C746 N753 1.356 . S
C747 C746 1.363 . S
C747 C750 1.363 . S
N748 C750 1.356 . S
N748 H760 0.984 . S
N748 H761 0.985 . S
N749 C751 1.356 1_545 S
N749 H754 0.984 . S
N749 H755 0.985 . S
C750 C744 1.379 . S
C750 C747 1.363 . S
C750 N748 1.356 . S
C751 C745 1.363 . S
C751 C746 1.379 . S
C751 N749 1.356 1_565 S
N752 C744 1.356 . S
N752 H758 0.984 . S
N752 H759 0.984 . S
N753 C746 1.356 . S
N753 H756 0.984 . S
N753 H757 0.985 . S
H754 N749 0.984 . S
H755 N749 0.985 . S
H756 N753 0.984 . S
H757 N753 0.985 . S
H758 N752 0.984 . S
H759 N752 0.984 . S
H760 N748 0.984 . S
H761 N748 0.985 . S
C762 C763 1.363 . S
C762 C768 1.379 . S
C762 N770 1.356 . S
C763 C762 1.363 . S
C763 C769 1.363 . S
C764 C765 1.363 . S
C764 C769 1.379 . S
C764 N771 1.356 1_545 S
C765 C764 1.363 . S
C765 C768 1.363 . S
N766 C768 1.356 . S
N766 H778 0.984 . S
N766 H779 0.985 . S
N767 C769 1.356 . S
N767 H772 0.984 . S
N767 H773 0.992 . S
C768 C762 1.379 . S
C768 C765 1.363 . S
C768 N766 1.356 . S
C769 C763 1.363 . S
C769 C764 1.379 . S
C769 N767 1.356 . S
N770 C762 1.356 . S
N770 H776 0.984 . S
N770 H777 0.984 . S
N771 C764 1.356 1_565 S
N771 H774 0.984 . S
N771 H775 0.985 . S
H772 N767 0.984 . S
H773 N767 0.992 . S
H774 N771 0.984 . S
H775 N771 0.985 . S
H776 N770 0.984 . S
H777 N770 0.984 . S
H778 N766 0.984 . S
H779 N766 0.985 . S
C780 C781 1.363 . S
C780 C786 1.379 . S
C780 N788 1.356 . S
C781 C780 1.363 . S
C781 C787 1.363 . S
C782 C783 1.363 . S
C782 C787 1.379 . S
C782 N789 1.356 . S
C783 C782 1.363 . S
C783 C786 1.363 . S
N784 C786 1.356 . S
N784 H796 0.984 . S
N784 H797 0.985 . S
N785 C787 1.356 . S
N785 H790 0.984 . S
N785 H791 0.990 . S
C786 C780 1.379 . S
C786 C783 1.363 . S
C786 N784 1.356 . S
C787 C781 1.363 . S
C787 C782 1.379 . S
C787 N785 1.356 . S
N788 C780 1.356 . S
N788 H794 0.984 . S
N788 H795 0.984 . S
N789 C782 1.356 . S
N789 H792 0.984 . S
N789 H793 0.985 . S
H790 N785 0.984 . S
H791 N785 0.990 . S
H792 N789 0.984 . S
H793 N789 0.985 . S
H794 N788 0.984 . S
H795 N788 0.984 . S
H796 N784 0.984 . S
H797 N784 0.985 . S
C798 C799 1.363 . S
C798 C804 1.379 . S
C798 N806 1.356 . S
C799 C798 1.363 . S
C799 C805 1.363 . S
C800 C801 1.363 . S
C800 C805 1.379 . S
C800 N807 1.356 . S
C801 C800 1.363 . S
C801 C804 1.363 . S
N802 C804 1.356 . S
N802 H814 0.984 . S
N802 H815 0.985 . S
N803 C805 1.356 . S
N803 H808 0.984 . S
N803 H809 0.985 . S
C804 C798 1.379 . S
C804 C801 1.363 . S
C804 N802 1.356 . S
C805 C799 1.363 . S
C805 C800 1.379 . S
C805 N803 1.356 . S
N806 C798 1.356 . S
N806 H812 0.984 . S
N806 H813 0.984 . S
N807 C800 1.356 . S
N807 H810 0.984 . S
N807 H811 0.985 . S
H808 N803 0.984 . S
H809 N803 0.985 . S
H810 N807 0.984 . S
H811 N807 0.985 . S
H812 N806 0.984 . S
H813 N806 0.984 . S
H814 N802 0.984 . S
H815 N802 0.985 . S
C816 C817 1.363 . S
C816 C822 1.379 . S
C816 N824 1.356 . S
C817 C816 1.363 . S
C817 C823 1.363 . S
C818 C819 1.363 . S
C818 C823 1.379 . S
C818 N825 1.356 1_455 S
C819 C818 1.363 . S
C819 C822 1.363 . S
N820 C822 1.356 . S
N820 H832 0.984 . S
N820 H833 0.985 . S
N821 C823 1.356 . S
N821 H826 0.984 . S
N821 H827 0.974 1_455 S
C822 C816 1.379 . S
C822 C819 1.363 . S
C822 N820 1.356 . S
C823 C817 1.363 . S
C823 C818 1.379 . S
C823 N821 1.356 . S
N824 C816 1.356 . S
N824 H830 0.984 . S
N824 H831 0.984 . S
N825 C818 1.356 1_655 S
N825 H828 0.984 . S
N825 H829 0.985 . S
H826 N821 0.984 . S
H827 N821 0.974 1_655 S
H828 N825 0.984 . S
H829 N825 0.985 . S
H830 N824 0.984 . S
H831 N824 0.984 . S
H832 N820 0.984 . S
H833 N820 0.985 . S
C834 C835 1.363 . S
C834 C840 1.379 . S
C834 N842 1.356 . S
C835 C834 1.363 . S
C835 C841 1.363 . S
C836 C837 1.363 . S
C836 C841 1.379 . S
C836 N843 1.356 . S
C837 C836 1.363 . S
C837 C840 1.363 . S
N838 C840 1.356 . S
N838 H850 0.984 . S
N838 H851 0.985 . S
N839 C841 1.356 . S
N839 H844 0.984 . S
N839 H845 0.985 . S
C840 C834 1.379 . S
C840 C837 1.363 . S
C840 N838 1.356 . S
C841 C835 1.363 . S
C841 C836 1.379 . S
C841 N839 1.356 . S
N842 C834 1.356 . S
N842 H848 0.984 . S
N842 H849 0.984 . S
N843 C836 1.356 . S
N843 H846 0.984 . S
N843 H847 0.985 . S
H844 N839 0.984 . S
H845 N839 0.985 . S
H846 N843 0.984 . S
H847 N843 0.985 . S
H848 N842 0.984 . S
H849 N842 0.984 . S
H850 N838 0.984 . S
H851 N838 0.985 . S
C852 C853 1.363 . S
C852 C858 1.379 . S
C852 N860 1.356 . S
C853 C852 1.363 . S
C853 C859 1.363 . S
C854 C855 1.363 . S
C854 C859 1.379 . S
C854 N861 1.356 . S
C855 C854 1.363 . S
C855 C858 1.363 . S
N856 C858 1.356 . S
N856 H868 0.984 . S
N856 H869 0.985 . S
N857 C859 1.356 . S
N857 H862 0.984 . S
N857 H863 0.985 . S
C858 C852 1.379 . S
C858 C855 1.363 . S
C858 N856 1.356 . S
C859 C853 1.363 . S
C859 C854 1.379 . S
C859 N857 1.356 . S
N860 C852 1.356 . S
N860 H866 0.984 . S
N860 H867 0.984 . S
N861 C854 1.356 . S
N861 H864 0.984 . S
N861 H865 0.985 . S
H862 N857 0.984 . S
H863 N857 0.985 . S
H864 N861 0.984 . S
H865 N861 0.985 . S
H866 N860 0.984 . S
H867 N860 0.984 . S
H868 N856 0.984 . S
H869 N856 0.985 . S
C870 C871 1.363 . S
C870 C876 1.379 . S
C870 N878 1.356 . S
C871 C870 1.363 . S
C871 C877 1.363 . S
C872 C873 1.363 . S
C872 C877 1.379 . S
C872 N879 1.356 . S
C873 C872 1.363 . S
C873 C876 1.363 . S
N874 C876 1.356 . S
N874 H886 0.984 . S
N874 H887 0.985 . S
N875 C877 1.356 . S
N875 H880 0.984 . S
N875 H881 0.985 . S
C876 C870 1.379 . S
C876 C873 1.363 . S
C876 N874 1.356 . S
C877 C871 1.363 . S
C877 C872 1.379 . S
C877 N875 1.356 . S
N878 C870 1.356 . S
N878 H884 0.984 . S
N878 H885 0.984 . S
N879 C872 1.356 . S
N879 H882 0.984 . S
N879 H883 0.985 . S
H880 N875 0.984 . S
H881 N875 0.985 . S
H882 N879 0.984 . S
H883 N879 0.985 . S
H884 N878 0.984 . S
H885 N878 0.984 . S
H886 N874 0.984 . S
H887 N874 0.985 . S
C888 C889 1.363 . S
C888 C894 1.379 . S
C888 N896 1.356 . S
C889 C888 1.363 . S
C889 C895 1.363 . S
C890 C891 1.363 . S
C890 C895 1.379 . S
C890 N897 1.356 . S
C891 C890 1.363 . S
C891 C894 1.363 . S
N892 C894 1.356 . S
N892 H904 0.984 . S
N892 H905 0.985 . S
N893 C895 1.356 . S
N893 H898 0.984 . S
N893 H899 0.985 . S
C894 C888 1.379 . S
C894 C891 1.363 . S
C894 N892 1.356 . S
C895 C889 1.363 . S
C895 C890 1.379 . S
C895 N893 1.356 . S
N896 C888 1.356 . S
N896 H902 0.984 . S
N896 H903 0.984 . S
N897 C890 1.356 . S
N897 H900 0.984 . S
N897 H901 0.985 . S
H898 N893 0.984 . S
H899 N893 0.985 . S
H900 N897 0.984 . S
H901 N897 0.985 . S
H902 N896 0.984 . S
H903 N896 0.984 . S
H904 N892 0.984 . S
H905 N892 0.985 . S
C906 C907 1.363 . S
C906 C912 1.379 . S
C906 N914 1.356 . S
C907 C906 1.363 . S
C907 C913 1.363 . S
C908 C909 1.363 . S
C908 C913 1.379 . S
C908 N915 1.356 . S
C909 C908 1.363 . S
C909 C912 1.363 . S
N910 C912 1.356 . S
N910 H922 0.984 . S
N910 H923 0.985 . S
N911 C913 1.356 . S
N911 H916 0.984 . S
N911 H917 0.985 . S
C912 C906 1.379 . S
C912 C909 1.363 . S
C912 N910 1.356 . S
C913 C907 1.363 . S
C913 C908 1.379 . S
C913 N911 1.356 . S
N914 C906 1.356 . S
N914 H920 0.984 . S
N914 H921 0.984 . S
N915 C908 1.356 . S
N915 H918 0.984 . S
N915 H919 0.985 . S
H916 N911 0.984 . S
H917 N911 0.985 . S
H918 N915 0.984 . S
H919 N915 0.985 . S
H920 N914 0.984 . S
H921 N914 0.984 . S
H922 N910 0.984 . S
H923 N910 0.985 . S
C924 C925 1.363 . S
C924 C930 1.379 . S
C924 N932 1.356 . S
C925 C924 1.363 . S
C925 C931 1.363 . S
C926 C927 1.363 . S
C926 C931 1.379 . S
C926 N933 1.356 . S
C927 C926 1.363 . S
C927 C930 1.363 . S
N928 C930 1.356 . S
N928 H940 0.984 . S
N928 H941 0.985 . S
N929 C931 1.356 . S
N929 H934 0.984 . S
N929 H935 0.985 . S
C930 C924 1.379 . S
C930 C927 1.363 . S
C930 N928 1.356 . S
C931 C925 1.363 . S
C931 C926 1.379 . S
C931 N929 1.356 . S
N932 C924 1.356 . S
N932 H938 0.984 . S
N932 H939 0.984 . S
N933 C926 1.356 . S
N933 H936 0.984 . S
N933 H937 0.985 . S
H934 N929 0.984 . S
H935 N929 0.985 . S
H936 N933 0.984 . S
H937 N933 0.985 . S
H938 N932 0.984 . S
H939 N932 0.984 . S
H940 N928 0.984 . S
H941 N928 0.985 . S
C942 C943 1.363 . S
C942 C948 1.379 . S
C942 N950 1.356 . S
C943 C942 1.363 . S
C943 C949 1.363 . S
C944 C945 1.363 . S
C944 C949 1.379 . S
C944 N951 1.356 . S
C945 C944 1.363 . S
C945 C948 1.363 . S
N946 C948 1.356 . S
N946 H958 0.984 . S
N946 H959 0.985 . S
N947 C949 1.356 . S
N947 H952 0.984 . S
N947 H953 0.985 . S
C948 C942 1.379 . S
C948 C945 1.363 . S
C948 N946 1.356 . S
C949 C943 1.363 . S
C949 C944 1.379 . S
C949 N947 1.356 . S
N950 C942 1.356 . S
N950 H956 0.984 . S
N950 H957 0.984 . S
N951 C944 1.356 . S
N951 H954 0.984 . S
N951 H955 0.985 . S
H952 N947 0.984 . S
H953 N947 0.985 . S
H954 N951 0.984 . S
H955 N951 0.985 . S
H956 N950 0.984 . S
H957 N950 0.984 . S
H958 N946 0.984 . S
H959 N946 0.985 . S
C960 C961 1.363 . S
C960 C966 1.379 . S
C960 N968 1.356 . S
C961 C960 1.363 . S
C961 C967 1.363 . S
C962 C963 1.363 . S
C962 C967 1.379 . S
C962 N969 1.356 . S
C963 C962 1.363 . S
C963 C966 1.363 . S
N964 C966 1.356 . S
N964 H976 0.984 . S
N964 H977 0.985 . S
N965 C967 1.356 . S
N965 H970 0.984 . S
N965 H971 0.985 . S
C966 C960 1.379 . S
C966 C963 1.363 . S
C966 N964 1.356 . S
C967 C961 1.363 . S
C967 C962 1.379 . S
C967 N965 1.356 . S
N968 C960 1.356 . S
N968 H974 0.984 . S
N968 H975 0.984 . S
N969 C962 1.356 . S
N969 H972 0.984 . S
N969 H973 0.985 . S
H970 N965 0.984 . S
H971 N965 0.985 . S
H972 N969 0.984 . S
H973 N969 0.985 . S
H974 N968 0.984 . S
H975 N968 0.984 . S
H976 N964 0.984 . S
H977 N964 0.985 . S
C978 C979 1.363 . S
C978 C984 1.379 . S
C978 N986 1.356 . S
C979 C978 1.363 . S
C979 C985 1.363 . S
C980 C981 1.363 . S
C980 C985 1.379 . S
C980 N987 1.356 . S
C981 C980 1.363 . S
C981 C984 1.363 . S
N982 C984 1.356 . S
N982 H994 0.984 . S
N982 H995 0.985 . S
N983 C985 1.356 . S
N983 H988 0.984 . S
N983 H989 0.985 . S
C984 C978 1.379 . S
C984 C981 1.363 . S
C984 N982 1.356 . S
C985 C979 1.363 . S
C985 C980 1.379 . S
C985 N983 1.356 . S
N986 C978 1.356 . S
N986 H992 0.984 . S
N986 H993 0.984 . S
N987 C980 1.356 . S
N987 H990 0.984 . S
N987 H991 0.985 . S
H988 N983 0.984 . S
H989 N983 0.985 . S
H990 N987 0.984 . S
H991 N987 0.985 . S
H992 N986 0.984 . S
H993 N986 0.984 . S
H994 N982 0.984 . S
H995 N982 0.985 . S
C996 C997 1.363 . S
C996 C1002 1.379 . S
C996 N1004 1.356 . S
C997 C996 1.363 . S
C997 C1003 1.363 . S
C998 C999 1.363 . S
C998 C1003 1.379 . S
C998 N1005 1.356 . S
C999 C998 1.363 . S
C999 C1002 1.363 . S
N1000 C1002 1.356 . S
N1000 H1012 0.984 . S
N1000 H1013 0.985 . S
N1001 C1003 1.356 . S
N1001 H1006 0.984 . S
N1001 H1007 0.985 . S
C1002 C996 1.379 . S
C1002 C999 1.363 . S
C1002 N1000 1.356 . S
C1003 C997 1.363 . S
C1003 C998 1.379 . S
C1003 N1001 1.356 . S
N1004 C996 1.356 . S
N1004 H1010 0.984 . S
N1004 H1011 0.984 . S
N1005 C998 1.356 . S
N1005 H1008 0.984 . S
N1005 H1009 0.985 . S
H1006 N1001 0.984 . S
H1007 N1001 0.985 . S
H1008 N1005 0.984 . S
H1009 N1005 0.985 . S
H1010 N1004 0.984 . S
H1011 N1004 0.984 . S
H1012 N1000 0.984 . S
H1013 N1000 0.985 . S
C1014 C1015 1.363 . S
C1014 C1020 1.379 . S
C1014 N1022 1.356 . S
C1015 C1014 1.363 . S
C1015 C1021 1.363 . S
C1016 C1017 1.363 . S
C1016 C1021 1.379 . S
C1016 N1023 1.356 . S
C1017 C1016 1.363 . S
C1017 C1020 1.363 . S
N1018 C1020 1.356 . S
N1018 H1030 0.984 . S
N1018 H1031 0.985 . S
N1019 C1021 1.356 . S
N1019 H1024 0.984 . S
N1019 H1025 0.985 . S
C1020 C1014 1.379 . S
C1020 C1017 1.363 . S
C1020 N1018 1.356 . S
C1021 C1015 1.363 . S
C1021 C1016 1.379 . S
C1021 N1019 1.356 . S
N1022 C1014 1.356 . S
N1022 H1028 0.984 . S
N1022 H1029 0.984 . S
N1023 C1016 1.356 . S
N1023 H1026 0.984 . S
N1023 H1027 0.985 . S
H1024 N1019 0.984 . S
H1025 N1019 0.985 . S
H1026 N1023 0.984 . S
H1027 N1023 0.985 . S
H1028 N1022 0.984 . S
H1029 N1022 0.984 . S
H1030 N1018 0.984 . S
H1031 N1018 0.985 . S
C1032 C1033 1.363 . S
C1032 C1038 1.379 . S
C1032 N1040 1.356 . S
C1033 C1032 1.363 . S
C1033 C1039 1.363 . S
C1034 C1035 1.363 . S
C1034 C1039 1.379 . S
C1034 N1041 1.356 . S
C1035 C1034 1.363 . S
C1035 C1038 1.363 . S
N1036 C1038 1.356 . S
N1036 H1048 0.984 . S
N1036 H1049 0.985 . S
N1037 C1039 1.356 . S
N1037 H1042 0.984 . S
N1037 H1043 0.985 . S
C1038 C1032 1.379 . S
C1038 C1035 1.363 . S
C1038 N1036 1.356 . S
C1039 C1033 1.363 . S
C1039 C1034 1.379 . S
C1039 N1037 1.356 . S
N1040 C1032 1.356 . S
N1040 H1046 0.984 1_455 S
N1040 H1047 0.982 1_455 S
N1041 C1034 1.356 . S
N1041 H1044 0.984 . S
N1041 H1045 0.985 . S
H1042 N1037 0.984 . S
H1043 N1037 0.985 . S
H1044 N1041 0.984 . S
H1045 N1041 0.985 . S
H1046 N1040 0.984 1_655 S
H1047 N1040 0.982 1_655 S
H1048 N1036 0.984 . S
H1049 N1036 0.985 . S
C1050 C1051 1.363 . S
C1050 C1056 1.379 . S
C1050 N1058 1.356 . S
C1051 C1050 1.363 . S
C1051 C1057 1.363 . S
C1052 C1053 1.363 . S
C1052 C1057 1.379 . S
C1052 N1059 1.356 . S
C1053 C1052 1.363 . S
C1053 C1056 1.363 . S
N1054 C1056 1.356 . S
N1054 H1066 0.984 . S
N1054 H1067 0.985 . S
N1055 C1057 1.356 . S
N1055 H1060 0.984 . S
N1055 H1061 0.985 . S
C1056 C1050 1.379 . S
C1056 C1053 1.363 . S
C1056 N1054 1.356 . S
C1057 C1051 1.363 . S
C1057 C1052 1.379 . S
C1057 N1055 1.356 . S
N1058 C1050 1.356 . S
N1058 H1064 0.984 . S
N1058 H1065 0.984 . S
N1059 C1052 1.356 . S
N1059 H1062 0.984 . S
N1059 H1063 0.985 . S
H1060 N1055 0.984 . S
H1061 N1055 0.985 . S
H1062 N1059 0.984 . S
H1063 N1059 0.985 . S
H1064 N1058 0.984 . S
H1065 N1058 0.984 . S
H1066 N1054 0.984 . S
H1067 N1054 0.985 . S
C1068 C1069 1.363 . S
C1068 C1074 1.379 . S
C1068 N1076 1.356 . S
C1069 C1068 1.363 . S
C1069 C1075 1.363 . S
C1070 C1071 1.363 . S
C1070 C1075 1.379 . S
C1070 N1077 1.356 . S
C1071 C1070 1.363 . S
C1071 C1074 1.363 . S
N1072 C1074 1.356 . S
N1072 H1084 0.984 . S
N1072 H1085 0.985 . S
N1073 C1075 1.356 1_556 S
N1073 H1078 0.984 . S
N1073 H1079 0.985 . S
C1074 C1068 1.379 . S
C1074 C1071 1.363 . S
C1074 N1072 1.356 . S
C1075 C1069 1.363 . S
C1075 C1070 1.379 . S
C1075 N1073 1.356 1_554 S
N1076 C1068 1.356 . S
N1076 H1082 0.984 . S
N1076 H1083 0.984 . S
N1077 C1070 1.356 . S
N1077 H1080 0.984 . S
N1077 H1081 0.985 1_554 S
H1078 N1073 0.984 . S
H1079 N1073 0.985 . S
H1080 N1077 0.984 . S
H1081 N1077 0.985 1_556 S
H1082 N1076 0.984 . S
H1083 N1076 0.984 . S
H1084 N1072 0.984 . S
H1085 N1072 0.985 . S
C1086 C1087 1.363 . S
C1086 C1092 1.379 . S
C1086 N1094 1.356 . S
C1087 C1086 1.363 . S
C1087 C1093 1.363 . S
C1088 C1089 1.363 . S
C1088 C1093 1.379 . S
C1088 N1095 1.356 . S
C1089 C1088 1.363 . S
C1089 C1092 1.363 . S
N1090 C1092 1.356 . S
N1090 H1102 0.984 . S
N1090 H1103 0.985 . S
N1091 C1093 1.356 . S
N1091 H1096 0.984 . S
N1091 H1097 0.985 . S
C1092 C1086 1.379 . S
C1092 C1089 1.363 . S
C1092 N1090 1.356 . S
C1093 C1087 1.363 . S
C1093 C1088 1.379 . S
C1093 N1091 1.356 . S
N1094 C1086 1.356 . S
N1094 H1100 0.984 . S
N1094 H1101 0.984 . S
N1095 C1088 1.356 . S
N1095 H1098 0.984 . S
N1095 H1099 0.985 . S
H1096 N1091 0.984 . S
H1097 N1091 0.985 . S
H1098 N1095 0.984 . S
H1099 N1095 0.985 . S
H1100 N1094 0.984 . S
H1101 N1094 0.984 . S
H1102 N1090 0.984 . S
H1103 N1090 0.985 . S
C1104 C1105 1.363 . S
C1104 C1110 1.379 . S
C1104 N1112 1.356 . S
C1105 C1104 1.363 . S
C1105 C1111 1.363 . S
C1106 C1107 1.363 . S
C1106 C1111 1.379 . S
C1106 N1113 1.356 . S
C1107 C1106 1.363 . S
C1107 C1110 1.363 . S
N1108 C1110 1.356 . S
N1108 H1120 0.984 . S
N1108 H1121 0.985 . S
N1109 C1111 1.356 . S
N1109 H1114 0.984 . S
N1109 H1115 0.985 . S
C1110 C1104 1.379 . S
C1110 C1107 1.363 . S
C1110 N1108 1.356 . S
C1111 C1105 1.363 . S
C1111 C1106 1.379 . S
C1111 N1109 1.356 . S
N1112 C1104 1.356 . S
N1112 H1118 0.984 . S
N1112 H1119 0.984 . S
N1113 C1106 1.356 . S
N1113 H1116 0.984 . S
N1113 H1117 0.985 . S
H1114 N1109 0.984 . S
H1115 N1109 0.985 . S
H1116 N1113 0.984 . S
H1117 N1113 0.985 . S
H1118 N1112 0.984 . S
H1119 N1112 0.984 . S
H1120 N1108 0.984 . S
H1121 N1108 0.985 . S
C1122 C1123 1.363 . S
C1122 C1128 1.379 . S
C1122 N1130 1.356 . S
C1123 C1122 1.363 . S
C1123 C1129 1.363 . S
C1124 C1125 1.363 . S
C1124 C1129 1.379 . S
C1124 N1131 1.356 . S
C1125 C1124 1.363 . S
C1125 C1128 1.363 . S
N1126 C1128 1.356 . S
N1126 H1138 0.984 . S
N1126 H1139 0.985 . S
N1127 C1129 1.356 . S
N1127 H1132 0.984 . S
N1127 H1133 0.985 . S
C1128 C1122 1.379 . S
C1128 C1125 1.363 . S
C1128 N1126 1.356 . S
C1129 C1123 1.363 . S
C1129 C1124 1.379 . S
C1129 N1127 1.356 . S
N1130 C1122 1.356 . S
N1130 H1136 0.984 . S
N1130 H1137 0.984 . S
N1131 C1124 1.356 . S
N1131 H1134 0.984 . S
N1131 H1135 0.985 . S
H1132 N1127 0.984 . S
H1133 N1127 0.985 . S
H1134 N1131 0.984 . S
H1135 N1131 0.985 . S
H1136 N1130 0.984 . S
H1137 N1130 0.984 . S
H1138 N1126 0.984 . S
H1139 N1126 0.985 . S
C1140 C1141 1.363 . S
C1140 C1146 1.379 . S
C1140 N1148 1.356 . S
C1141 C1140 1.363 . S
C1141 C1147 1.363 . S
C1142 C1143 1.363 . S
C1142 C1147 1.379 . S
C1142 N1149 1.356 . S
C1143 C1142 1.363 . S
C1143 C1146 1.363 . S
N1144 C1146 1.356 . S
N1144 H1156 0.984 . S
N1144 H1157 0.985 . S
N1145 C1147 1.356 . S
N1145 H1150 0.984 . S
N1145 H1151 0.985 . S
C1146 C1140 1.379 . S
C1146 C1143 1.363 . S
C1146 N1144 1.356 . S
C1147 C1141 1.363 . S
C1147 C1142 1.379 . S
C1147 N1145 1.356 . S
N1148 C1140 1.356 . S
N1148 H1154 0.984 . S
N1148 H1155 0.984 . S
N1149 C1142 1.356 . S
N1149 H1152 0.984 . S
N1149 H1153 0.985 . S
H1150 N1145 0.984 . S
H1151 N1145 0.985 . S
H1152 N1149 0.984 . S
H1153 N1149 0.985 . S
H1154 N1148 0.984 . S
H1155 N1148 0.984 . S
H1156 N1144 0.984 . S
H1157 N1144 0.985 . S
C1158 C1159 1.363 . S
C1158 C1164 1.379 . S
C1158 N1166 1.356 . S
C1159 C1158 1.363 . S
C1159 C1165 1.363 . S
C1160 C1161 1.363 . S
C1160 C1165 1.379 . S
C1160 N1167 1.356 . S
C1161 C1160 1.363 . S
C1161 C1164 1.363 . S
N1162 C1164 1.356 . S
N1162 H1174 0.984 . S
N1162 H1175 0.985 . S
N1163 C1165 1.356 . S
N1163 H1168 0.984 . S
N1163 H1169 0.985 . S
C1164 C1158 1.379 . S
C1164 C1161 1.363 . S
C1164 N1162 1.356 . S
C1165 C1159 1.363 . S
C1165 C1160 1.379 . S
C1165 N1163 1.356 . S
N1166 C1158 1.356 . S
N1166 H1172 0.984 . S
N1166 H1173 0.984 . S
N1167 C1160 1.356 . S
N1167 H1170 0.984 . S
N1167 H1171 0.985 . S
H1168 N1163 0.984 . S
H1169 N1163 0.985 . S
H1170 N1167 0.984 . S
H1171 N1167 0.985 . S
H1172 N1166 0.984 . S
H1173 N1166 0.984 . S
H1174 N1162 0.984 . S
H1175 N1162 0.985 . S
C313 C187 1.787 . S
C315 C4 1.787 . S
C331 C16 1.787 . S
C333 C199 1.787 . S
C349 C239 1.792 . S
C351 C31 1.792 . S
C367 C49 1.774 . S
C369 C173 1.774 . S
C385 C186 1.774 . S
C387 C62 1.774 . S
C403 C68 1.792 . S
C405 C200 1.792 . S
C421 C81 1.787 . S
C423 C238 1.787 . S
C439 C101 1.787 . S
C441 C174 1.787 . S
C457 C120 1.787 . S
C459 C114 1.787 . S
C475 C134 1.774 . S
C477 C127 1.774 . S
C493 C135 1.787 . S
C495 C147 1.787 . S
C511 C148 1.792 . S
C513 C107 1.792 . S
C529 C160 1.787 . S
C531 C42 1.787 . S
C547 C55 1.787 . S
C549 C212 1.787 . S
C565 C225 1.774 . S
C567 C23 1.774 . S
C583 C17 1.288 . S
C585 C283 1.288 . S
C601 C121 1.288 . S
C603 C10 1.288 . S
C619 C302 1.291 . S
C621 C44 1.291 . S
C637 C146 1.300 . S
C639 C29 1.300 . S
C655 C276 1.300 . S
C657 C96 1.300 . S
C673 C122 1.291 . S
C675 C83 1.291 . S
C691 C69 1.288 . S
C693 C309 1.288 . S
C709 C56 1.288 . S
C711 C153 1.288 . S
C727 C205 1.288 . S
C729 C257 1.288 . S
C745 C211 1.300 . S
C747 C198 1.300 . S
C763 C179 1.288 . S
C765 C218 1.288 . S
C781 C250 1.291 . S
C783 C172 1.291 . S
C799 C36 1.288 . S
C801 C264 1.288 . S
C817 C140 1.288 . S
C819 C95 1.288 . S
C835 C3 1.300 . S
C837 C289 1.300 . S
C853 C252 1.787 . S
C855 C30 1.787 . S
C871 C5 1.792 . S
C873 C213 1.792 . S
C889 C251 1.774 . S
C891 C88 1.774 . S
C907 C161 1.792 . S
C909 C94 1.792 . S
C925 C75 1.787 . S
C927 C226 1.787 . S
C943 C277 1.787 . S
C945 C263 1.787 . S
C961 C303 1.774 . S
C963 C270 1.774 . S
C979 C290 1.787 . S
C981 C304 1.787 . S
C997 C278 1.792 . S
C999 C291 1.792 . S
C1015 C108 1.288 . S
C1017 C43 1.288 . S
C1033 C18 1.291 . S
C1035 C133 1.291 . S
C1051 C70 1.300 . S
C1053 C109 1.300 . S
C1069 C265 1.291 . S
C1071 C57 1.291 . S
C1087 C82 1.288 . S
C1089 C296 1.288 . S
C1105 C166 1.288 . S
C1107 C192 1.288 . S
C1123 C237 1.300 . S
C1125 C159 1.300 . S
C1141 C231 1.288 . S
C1143 C244 1.288 . S
C1159 C185 1.291 . S
C1161 C224 1.291 . S
