# Generated by pormake.
# Topology hbo, (4)-cn, num edge types: 1
# Building blocks:
#     Node 0, Type 0, BuildingBlock: CEKHIL_clean_sbu_0, # of connection points: 4
#     Node 1, Type 0, BuildingBlock: CEKHIL_clean_sbu_0, # of connection points: 4
#     Node 2, Type 0, BuildingBlock: CEKHIL_clean_sbu_0, # of connection points: 4
#     Node 3, Type 0, BuildingBlock: CEKHIL_clean_sbu_0, # of connection points: 4
#     Node 4, Type 0, BuildingBlock: CEKHIL_clean_sbu_0, # of connection points: 4
#     Node 5, Type 0, BuildingBlock: CEKHIL_clean_sbu_0, # of connection points: 4
#     Node 6, Type 0, BuildingBlock: CEKHIL_clean_sbu_0, # of connection points: 4
#     Node 7, Type 0, BuildingBlock: CEKHIL_clean_sbu_0, # of connection points: 4
#     Node 8, Type 0, BuildingBlock: CEKHIL_clean_sbu_0, # of connection points: 4
#     Node 9, Type 0, BuildingBlock: CEKHIL_clean_sbu_0, # of connection points: 4
#     Node 10, Type 0, BuildingBlock: CEKHIL_clean_sbu_0, # of connection points: 4
#     Node 11, Type 0, BuildingBlock: CEKHIL_clean_sbu_0, # of connection points: 4
#     Node 12, Type 0, BuildingBlock: CEKHIL_clean_sbu_0, # of connection points: 4
#     Node 13, Type 0, BuildingBlock: CEKHIL_clean_sbu_0, # of connection points: 4
#     Node 14, Type 0, BuildingBlock: CEKHIL_clean_sbu_0, # of connection points: 4
#     Node 15, Type 0, BuildingBlock: CEKHIL_clean_sbu_0, # of connection points: 4
#     Node 16, Type 0, BuildingBlock: CEKHIL_clean_sbu_0, # of connection points: 4
#     Node 17, Type 0, BuildingBlock: CEKHIL_clean_sbu_0, # of connection points: 4
#     Node 18, Type 0, BuildingBlock: CEKHIL_clean_sbu_0, # of connection points: 4
#     Node 19, Type 0, BuildingBlock: CEKHIL_clean_sbu_0, # of connection points: 4
#     Node 20, Type 0, BuildingBlock: CEKHIL_clean_sbu_0, # of connection points: 4
#     Node 21, Type 0, BuildingBlock: CEKHIL_clean_sbu_0, # of connection points: 4
#     Node 22, Type 0, BuildingBlock: CEKHIL_clean_sbu_0, # of connection points: 4
#     Node 23, Type 0, BuildingBlock: CEKHIL_clean_sbu_0, # of connection points: 4
#     Edge 24, Type (0, 0), BuildingBlock: TEMPAE_clean_linker_10, # of connection points: 2
#     Edge 25, Type (0, 0), BuildingBlock: TEMPAE_clean_linker_10, # of connection points: 2
#     Edge 26, Type (0, 0), BuildingBlock: TEMPAE_clean_linker_10, # of connection points: 2
#     Edge 27, Type (0, 0), BuildingBlock: TEMPAE_clean_linker_10, # of connection points: 2
#     Edge 28, Type (0, 0), BuildingBlock: TEMPAE_clean_linker_10, # of connection points: 2
#     Edge 29, Type (0, 0), BuildingBlock: TEMPAE_clean_linker_10, # of connection points: 2
#     Edge 30, Type (0, 0), BuildingBlock: TEMPAE_clean_linker_10, # of connection points: 2
#     Edge 31, Type (0, 0), BuildingBlock: TEMPAE_clean_linker_10, # of connection points: 2
#     Edge 32, Type (0, 0), BuildingBlock: TEMPAE_clean_linker_10, # of connection points: 2
#     Edge 33, Type (0, 0), BuildingBlock: TEMPAE_clean_linker_10, # of connection points: 2
#     Edge 34, Type (0, 0), BuildingBlock: TEMPAE_clean_linker_10, # of connection points: 2
#     Edge 35, Type (0, 0), BuildingBlock: TEMPAE_clean_linker_10, # of connection points: 2
#     Edge 36, Type (0, 0), BuildingBlock: TEMPAE_clean_linker_10, # of connection points: 2
#     Edge 37, Type (0, 0), BuildingBlock: TEMPAE_clean_linker_10, # of connection points: 2
#     Edge 38, Type (0, 0), BuildingBlock: TEMPAE_clean_linker_10, # of connection points: 2
#     Edge 39, Type (0, 0), BuildingBlock: TEMPAE_clean_linker_10, # of connection points: 2
#     Edge 40, Type (0, 0), BuildingBlock: TEMPAE_clean_linker_10, # of connection points: 2
#     Edge 41, Type (0, 0), BuildingBlock: TEMPAE_clean_linker_10, # of connection points: 2
#     Edge 42, Type (0, 0), BuildingBlock: TEMPAE_clean_linker_10, # of connection points: 2
#     Edge 43, Type (0, 0), BuildingBlock: TEMPAE_clean_linker_10, # of connection points: 2
#     Edge 44, Type (0, 0), BuildingBlock: TEMPAE_clean_linker_10, # of connection points: 2
#     Edge 45, Type (0, 0), BuildingBlock: TEMPAE_clean_linker_10, # of connection points: 2
#     Edge 46, Type (0, 0), BuildingBlock: TEMPAE_clean_linker_10, # of connection points: 2
#     Edge 47, Type (0, 0), BuildingBlock: TEMPAE_clean_linker_10, # of connection points: 2
#     Edge 48, Type (0, 0), BuildingBlock: TEMPAE_clean_linker_10, # of connection points: 2
#     Edge 49, Type (0, 0), BuildingBlock: TEMPAE_clean_linker_10, # of connection points: 2
#     Edge 50, Type (0, 0), BuildingBlock: TEMPAE_clean_linker_10, # of connection points: 2
#     Edge 51, Type (0, 0), BuildingBlock: TEMPAE_clean_linker_10, # of connection points: 2
#     Edge 52, Type (0, 0), BuildingBlock: TEMPAE_clean_linker_10, # of connection points: 2
#     Edge 53, Type (0, 0), BuildingBlock: TEMPAE_clean_linker_10, # of connection points: 2
#     Edge 54, Type (0, 0), BuildingBlock: TEMPAE_clean_linker_10, # of connection points: 2
#     Edge 55, Type (0, 0), BuildingBlock: TEMPAE_clean_linker_10, # of connection points: 2
#     Edge 56, Type (0, 0), BuildingBlock: TEMPAE_clean_linker_10, # of connection points: 2
#     Edge 57, Type (0, 0), BuildingBlock: TEMPAE_clean_linker_10, # of connection points: 2
#     Edge 58, Type (0, 0), BuildingBlock: TEMPAE_clean_linker_10, # of connection points: 2
#     Edge 59, Type (0, 0), BuildingBlock: TEMPAE_clean_linker_10, # of connection points: 2
#     Edge 60, Type (0, 0), BuildingBlock: TEMPAE_clean_linker_10, # of connection points: 2
#     Edge 61, Type (0, 0), BuildingBlock: TEMPAE_clean_linker_10, # of connection points: 2
#     Edge 62, Type (0, 0), BuildingBlock: TEMPAE_clean_linker_10, # of connection points: 2
#     Edge 63, Type (0, 0), BuildingBlock: TEMPAE_clean_linker_10, # of connection points: 2
#     Edge 64, Type (0, 0), BuildingBlock: TEMPAE_clean_linker_10, # of connection points: 2
#     Edge 65, Type (0, 0), BuildingBlock: TEMPAE_clean_linker_10, # of connection points: 2
#     Edge 66, Type (0, 0), BuildingBlock: TEMPAE_clean_linker_10, # of connection points: 2
#     Edge 67, Type (0, 0), BuildingBlock: TEMPAE_clean_linker_10, # of connection points: 2
#     Edge 68, Type (0, 0), BuildingBlock: TEMPAE_clean_linker_10, # of connection points: 2
#     Edge 69, Type (0, 0), BuildingBlock: TEMPAE_clean_linker_10, # of connection points: 2
#     Edge 70, Type (0, 0), BuildingBlock: TEMPAE_clean_linker_10, # of connection points: 2
#     Edge 71, Type (0, 0), BuildingBlock: TEMPAE_clean_linker_10, # of connection points: 2
# Relax obj value: 0.228
# Max RMSD: 0.244
# Mean RMSD: 0.240
data_MOF--net-hbo--node1-CEKHIL_clean_sbu_0--edge1-TEMPAE_clean_linker_10
_symmetry_space_group_name_H-M    P1
_symmetry_Int_Tables_number       1
_symmetry_cell_setting            triclinic
loop_
_symmetry_equiv_pos_as_xyz
'x, y, z'
_cell_length_a     53.020202
_cell_length_b     52.216045
_cell_length_c     52.063767
_cell_angle_alpha  89.883914
_cell_angle_beta   89.846031
_cell_angle_gamma 89.022744
loop_
_atom_site_label
_atom_site_type_symbol
_atom_site_fract_x
_atom_site_fract_y
_atom_site_fract_z
_atom_type_partial_charge
Co0 Co 0.13275 0.3585 0.2448 0.0
O1 O 0.09812 0.36788 0.25005 0.0
O2 O 0.1169 0.36554 0.21195 0.0
C3 C 0.13399 0.3241 0.27048 0.0
O4 O 0.16794 0.34831 0.23239 0.0
Co5 Co 0.1698 0.36114 0.29091 0.0
O6 O 0.19188 0.34086 0.26734 0.0
C7 C 0.1497 0.4083 0.26795 0.0
C8 C 0.09654 0.37019 0.22529 0.0
C9 C 0.18813 0.33944 0.24318 0.0
O10 O 0.14208 0.3954 0.24858 0.0
O11 O 0.1591 0.39815 0.28822 0.0
O12 O 0.12517 0.32229 0.2473 0.0
O13 O 0.13859 0.34703 0.27828 0.0
Co14 Co 0.11553 0.66186 0.72735 0.0
O15 O 0.07958 0.66205 0.72308 0.0
O16 O 0.09965 0.65302 0.75941 0.0
C17 C 0.12395 0.69881 0.7075 0.0
O18 O 0.15204 0.66125 0.73944 0.0
Co19 Co 0.15097 0.65688 0.68024 0.0
O20 O 0.17657 0.66871 0.70506 0.0
C21 C 0.12587 0.61117 0.69918 0.0
C22 C 0.07842 0.65551 0.74715 0.0
C23 C 0.17338 0.66706 0.72928 0.0
O24 O 0.11708 0.62461 0.71788 0.0
O25 O 0.13925 0.62048 0.68106 0.0
O26 O 0.11536 0.69876 0.73091 0.0
O27 O 0.12356 0.67695 0.69572 0.0
Co28 Co 0.87304 0.63839 0.25156 0.0
O29 O 0.90873 0.63703 0.25671 0.0
O30 O 0.88994 0.63554 0.21873 0.0
C31 C 0.86496 0.67124 0.27807 0.0
O32 O 0.83691 0.64112 0.2389 0.0
Co33 Co 0.83626 0.62778 0.29675 0.0
O34 O 0.81166 0.64511 0.27344 0.0
C35 C 0.86526 0.58538 0.27338 0.0
C36 C 0.91076 0.63597 0.23189 0.0
C37 C 0.81556 0.64702 0.24932 0.0
O38 O 0.87144 0.60001 0.25459 0.0
O39 O 0.85335 0.59334 0.29332 0.0
O40 O 0.87293 0.67549 0.25485 0.0
O41 O 0.86475 0.64755 0.28523 0.0
Co42 Co 0.87108 0.33927 0.71801 0.0
O43 O 0.907 0.33582 0.71403 0.0
O44 O 0.88732 0.34818 0.74969 0.0
C45 C 0.85962 0.30247 0.70002 0.0
O46 O 0.83464 0.34359 0.72984 0.0
Co47 Co 0.83632 0.34514 0.67063 0.0
O48 O 0.80985 0.33595 0.69589 0.0
C49 C 0.86495 0.38928 0.68747 0.0
C50 C 0.90844 0.34336 0.73776 0.0
C51 C 0.81303 0.33857 0.72 0.0
O52 O 0.87268 0.37594 0.7067 0.0
O53 O 0.85077 0.38046 0.66986 0.0
O54 O 0.86809 0.30279 0.72343 0.0
O55 O 0.862 0.32358 0.68712 0.0
Co56 Co 0.22962 0.13489 0.37001 0.0
O57 O 0.21959 0.13123 0.40522 0.0
O58 O 0.2589 0.12709 0.39089 0.0
C59 C 0.20803 0.17123 0.3619 0.0
O60 O 0.24726 0.13848 0.33536 0.0
Co61 Co 0.19034 0.13266 0.32604 0.0
O62 O 0.21798 0.14774 0.30549 0.0
C63 C 0.20662 0.08501 0.35185 0.0
C64 C 0.24328 0.12701 0.41019 0.0
C65 C 0.24091 0.14607 0.31268 0.0
O66 O 0.22338 0.09744 0.36428 0.0
O67 O 0.19065 0.09568 0.33665 0.0
O68 O 0.2298 0.17195 0.37323 0.0
O69 O 0.1989 0.14871 0.35836 0.0
Co70 Co 0.36042 0.7621 0.84376 0.0
O71 O 0.39555 0.76881 0.84794 0.0
O72 O 0.37906 0.73006 0.84664 0.0
C73 C 0.35375 0.78999 0.81187 0.0
O74 O 0.32527 0.74792 0.83803 0.0
Co75 Co 0.31993 0.80478 0.85363 0.0
O76 O 0.29824 0.78131 0.83408 0.0
C77 C 0.34461 0.77899 0.89731 0.0
C78 C 0.39897 0.74416 0.84863 0.0
C79 C 0.30361 0.75755 0.8317 0.0
O80 O 0.35564 0.76314 0.88196 0.0
O81 O 0.33064 0.79778 0.88984 0.0
O82 O 0.36321 0.76739 0.80691 0.0
O83 O 0.35097 0.79571 0.83582 0.0
Co84 Co 0.76418 0.85227 0.38206 0.0
O85 O 0.77103 0.85807 0.41763 0.0
O86 O 0.73315 0.86134 0.39971 0.0
C87 C 0.78616 0.81556 0.37791 0.0
O88 O 0.74988 0.84679 0.34627 0.0
Co89 Co 0.80759 0.85191 0.34178 0.0
O90 O 0.78174 0.83628 0.31949 0.0
C91 C 0.7887 0.90095 0.36262 0.0
C92 C 0.74703 0.86271 0.42021 0.0
C93 C 0.75826 0.83842 0.32455 0.0
O94 O 0.77101 0.8892 0.37449 0.0
O95 O 0.80605 0.88951 0.34965 0.0
O96 O 0.76352 0.81545 0.38751 0.0
O97 O 0.79568 0.83785 0.374 0.0
Co98 Co 0.63003 0.24458 0.84215 0.0
O99 O 0.59528 0.2364 0.84658 0.0
O100 O 0.61005 0.27587 0.84409 0.0
C101 C 0.63789 0.21618 0.81099 0.0
O102 O 0.66454 0.26008 0.83584 0.0
Co103 Co 0.67204 0.20394 0.85328 0.0
O104 O 0.6927 0.2276 0.8326 0.0
C105 C 0.64648 0.2301 0.89628 0.0
C106 C 0.5908 0.26089 0.84645 0.0
C107 C 0.68645 0.25108 0.82948 0.0
O108 O 0.63469 0.24485 0.88042 0.0
O109 O 0.66124 0.21172 0.88935 0.0
O110 O 0.62762 0.23828 0.80546 0.0
O111 O 0.64083 0.21112 0.8351 0.0
Co112 Co 0.25165 0.89203 0.63403 0.0
O113 O 0.2597 0.92637 0.62452 0.0
O114 O 0.22113 0.91057 0.62476 0.0
C115 C 0.27474 0.89064 0.66991 0.0
O116 O 0.23617 0.85783 0.64367 0.0
Co117 Co 0.29343 0.84952 0.63756 0.0
O118 O 0.26696 0.83034 0.65592 0.0
C119 C 0.27301 0.86501 0.58703 0.0
C120 C 0.23568 0.93007 0.6211 0.0
C121 C 0.2437 0.83646 0.65369 0.0
O122 O 0.25704 0.88046 0.59768 0.0
O123 O 0.28965 0.85192 0.59937 0.0
O124 O 0.25233 0.90107 0.67024 0.0
O125 O 0.28328 0.8838 0.64768 0.0
Co126 Co 0.6304 0.75994 0.15008 0.0
O127 O 0.59456 0.76537 0.15066 0.0
O128 O 0.61396 0.72814 0.14296 0.0
C129 C 0.63998 0.7811 0.18603 0.0
O130 O 0.66657 0.74648 0.14948 0.0
Co131 Co 0.66702 0.80482 0.14271 0.0
O132 O 0.69183 0.77968 0.15696 0.0
C133 C 0.63949 0.78598 0.09814 0.0
C134 C 0.59296 0.74113 0.14531 0.0
C135 C 0.68796 0.75567 0.15604 0.0
O136 O 0.6309 0.76796 0.11232 0.0
O137 O 0.65366 0.80364 0.10663 0.0
O138 O 0.63126 0.75801 0.18722 0.0
O139 O 0.63935 0.7918 0.16352 0.0
Co140 Co 0.74081 0.10326 0.63818 0.0
O141 O 0.73655 0.06716 0.63422 0.0
O142 O 0.77317 0.0871 0.63126 0.0
C143 C 0.71767 0.10798 0.67393 0.0
O144 O 0.7524 0.13988 0.64239 0.0
Co145 Co 0.69458 0.14073 0.63509 0.0
O146 O 0.71871 0.16574 0.64932 0.0
C147 C 0.71567 0.11787 0.5879 0.0
C148 C 0.76078 0.06584 0.63089 0.0
C149 C 0.74249 0.16169 0.64861 0.0
O150 O 0.73467 0.10891 0.60053 0.0
O151 O 0.69657 0.12893 0.59846 0.0
O152 O 0.74085 0.09964 0.67536 0.0
O153 O 0.70853 0.11017 0.65105 0.0
Co154 Co 0.3756 0.22778 0.14598 0.0
O155 O 0.41172 0.22393 0.14574 0.0
O156 O 0.39071 0.2603 0.13855 0.0
C157 C 0.36729 0.20618 0.18227 0.0
O158 O 0.33891 0.23979 0.14616 0.0
Co159 Co 0.34054 0.18134 0.14006 0.0
O160 O 0.31472 0.20572 0.1538 0.0
C161 C 0.36626 0.20126 0.09447 0.0
C162 C 0.41229 0.24828 0.14051 0.0
C163 C 0.31775 0.22986 0.15263 0.0
O164 O 0.37465 0.21969 0.10819 0.0
O165 O 0.35311 0.18307 0.10368 0.0
O166 O 0.37518 0.2296 0.18323 0.0
O167 O 0.36813 0.19556 0.1598 0.0
Co168 Co 0.85655 0.59916 0.77846 0.0
O169 O 0.86313 0.56312 0.78254 0.0
O170 O 0.86692 0.58473 0.74603 0.0
C171 C 0.81975 0.6011 0.79958 0.0
O172 O 0.85 0.63555 0.76618 0.0
Co173 Co 0.85391 0.63642 0.8246 0.0
O174 O 0.83671 0.65948 0.79948 0.0
C175 C 0.90352 0.61935 0.80498 0.0
C176 C 0.86813 0.56293 0.75808 0.0
C177 C 0.83969 0.65602 0.77543 0.0
O178 O 0.89251 0.60699 0.787 0.0
O179 O 0.89155 0.63149 0.82269 0.0
O180 O 0.82066 0.59312 0.77596 0.0
O181 O 0.8413 0.60465 0.81055 0.0
Co182 Co 0.88148 0.34341 0.24493 0.0
O183 O 0.91711 0.34333 0.25008 0.0
O184 O 0.89833 0.35147 0.21282 0.0
C185 C 0.87363 0.30689 0.26601 0.0
O186 O 0.84492 0.34337 0.23262 0.0
Co187 Co 0.84578 0.3478 0.29241 0.0
O188 O 0.82072 0.33566 0.26729 0.0
C189 C 0.86944 0.3941 0.2721 0.0
C190 C 0.91913 0.34881 0.22587 0.0
C191 C 0.82369 0.33739 0.24304 0.0
O192 O 0.87928 0.38102 0.2536 0.0
O193 O 0.8565 0.38425 0.29026 0.0
O194 O 0.88191 0.30617 0.24249 0.0
O195 O 0.87369 0.32915 0.27679 0.0
Co196 Co 0.13315 0.39248 0.77645 0.0
O197 O 0.12706 0.42814 0.78339 0.0
O198 O 0.12499 0.41013 0.74491 0.0
C199 C 0.1686 0.38769 0.79928 0.0
O200 O 0.13977 0.35707 0.76152 0.0
Co201 Co 0.13223 0.35152 0.81964 0.0
O202 O 0.15054 0.33037 0.79369 0.0
C203 C 0.08424 0.37144 0.79869 0.0
C204 C 0.12355 0.43076 0.75883 0.0
C205 C 0.14916 0.33573 0.76984 0.0
O206 O 0.09656 0.38478 0.78226 0.0
O207 O 0.09491 0.35782 0.81616 0.0
O208 O 0.16924 0.39781 0.77647 0.0
O209 O 0.14638 0.38384 0.80871 0.0
Co210 Co 0.13789 0.63122 0.20878 0.0
O211 O 0.13569 0.59539 0.20121 0.0
O212 O 0.1283 0.61304 0.23938 0.0
C213 C 0.17514 0.63878 0.19045 0.0
O214 O 0.13972 0.66701 0.22409 0.0
Co215 Co 0.13644 0.6714 0.165 0.0
O216 O 0.15029 0.69375 0.19212 0.0
C217 C 0.08968 0.64655 0.17999 0.0
C218 C 0.12988 0.59255 0.2253 0.0
C219 C 0.14799 0.68863 0.21595 0.0
O220 O 0.10158 0.63605 0.19882 0.0
O221 O 0.10027 0.66071 0.16318 0.0
O222 O 0.17394 0.62807 0.21294 0.0
O223 O 0.15391 0.64096 0.17818 0.0
Co224 Co 0.75716 0.8292 0.64256 0.0
O225 O 0.76536 0.82889 0.60679 0.0
O226 O 0.72719 0.83717 0.62273 0.0
C227 C 0.77754 0.79298 0.65371 0.0
O228 O 0.7417 0.82934 0.67838 0.0
Co229 Co 0.79994 0.83525 0.6826 0.0
O230 O 0.77347 0.8222 0.70617 0.0
C231 C 0.7841 0.87944 0.65184 0.0
C232 C 0.7418 0.83464 0.60274 0.0
C233 C 0.75 0.82297 0.70079 0.0
O234 O 0.76491 0.86675 0.64436 0.0
O235 O 0.80189 0.86961 0.66539 0.0
O236 O 0.75543 0.792 0.64301 0.0
O237 O 0.78775 0.81529 0.65388 0.0
Co238 Co 0.62085 0.2663 0.1379 0.0
O239 O 0.58541 0.26364 0.13323 0.0
O240 O 0.60629 0.30016 0.13146 0.0
C241 C 0.6235 0.24153 0.17292 0.0
O242 O 0.65777 0.27537 0.143 0.0
Co243 Co 0.65337 0.21618 0.13284 0.0
O244 O 0.67968 0.23829 0.14766 0.0
C245 C 0.63125 0.24026 0.08707 0.0
C246 C 0.58497 0.28822 0.13004 0.0
C247 C 0.67814 0.26269 0.14859 0.0
O248 O 0.62617 0.2606 0.10008 0.0
O249 O 0.63964 0.21943 0.09715 0.0
O250 O 0.61695 0.26552 0.17515 0.0
O251 O 0.6252 0.23294 0.14977 0.0
Co252 Co 0.2318 0.16485 0.63453 0.0
O253 O 0.22327 0.1657 0.59883 0.0
O254 O 0.2614 0.15641 0.61415 0.0
C255 C 0.21213 0.20135 0.64606 0.0
O256 O 0.24773 0.16408 0.67022 0.0
Co257 Co 0.18955 0.1595 0.67557 0.0
O258 O 0.21644 0.17234 0.6984 0.0
C259 C 0.20483 0.11471 0.64548 0.0
C260 C 0.24664 0.15936 0.5944 0.0
C261 C 0.23983 0.17083 0.69271 0.0
O262 O 0.22318 0.12745 0.63604 0.0
O263 O 0.18819 0.1242 0.66068 0.0
O264 O 0.23424 0.202 0.63518 0.0
O265 O 0.20155 0.17923 0.6464 0.0
Co266 Co 0.38438 0.74148 0.13569 0.0
O267 O 0.4195 0.74378 0.12843 0.0
O268 O 0.39759 0.70787 0.12654 0.0
C269 C 0.38432 0.76412 0.17211 0.0
O270 O 0.34795 0.73232 0.14252 0.0
Co271 Co 0.35118 0.7914 0.13669 0.0
O272 O 0.32525 0.7682 0.15088 0.0
C273 C 0.3689 0.76998 0.08755 0.0
C274 C 0.41904 0.71937 0.12403 0.0
C275 C 0.32742 0.74386 0.14954 0.0
O276 O 0.37641 0.74941 0.09893 0.0
O277 O 0.36073 0.78994 0.09938 0.0
O278 O 0.3908 0.74001 0.17248 0.0
O279 O 0.38106 0.77415 0.14968 0.0
Co280 Co 0.73353 0.12807 0.34424 0.0
O281 O 0.72334 0.09307 0.34669 0.0
O282 O 0.76291 0.10634 0.34799 0.0
C283 C 0.70878 0.13913 0.31125 0.0
O284 O 0.75161 0.16183 0.34077 0.0
Co285 Co 0.69661 0.17384 0.35319 0.0
O286 O 0.72294 0.19334 0.33476 0.0
C287 C 0.71614 0.14446 0.39745 0.0
C288 C 0.74725 0.08747 0.34862 0.0
C289 C 0.74557 0.18479 0.33394 0.0
O290 O 0.73086 0.13158 0.3825 0.0
O291 O 0.70021 0.16138 0.38951 0.0
O292 O 0.73014 0.12719 0.30711 0.0
O293 O 0.70211 0.14176 0.33499 0.0
Co294 Co 0.35808 0.27468 0.8735 0.0
O295 O 0.36238 0.28105 0.90942 0.0
O296 O 0.36691 0.24302 0.89099 0.0
C297 C 0.32199 0.29706 0.86921 0.0
O298 O 0.35332 0.26061 0.8373 0.0
Co299 Co 0.35882 0.31932 0.83416 0.0
O300 O 0.34264 0.29373 0.81172 0.0
C301 C 0.40657 0.30045 0.85626 0.0
C302 C 0.36691 0.25668 0.91188 0.0
C303 C 0.34438 0.26974 0.8161 0.0
O304 O 0.39476 0.28201 0.86715 0.0
O305 O 0.3955 0.31825 0.84339 0.0
O306 O 0.3217 0.27375 0.87796 0.0
O307 O 0.34399 0.30682 0.86581 0.0
Co308 Co 0.25959 0.8573 0.34424 0.0
O309 O 0.26898 0.8919 0.35067 0.0
O310 O 0.22958 0.87861 0.34773 0.0
C311 C 0.28706 0.85031 0.31229 0.0
O312 O 0.24302 0.82341 0.33618 0.0
Co313 Co 0.29847 0.81261 0.35199 0.0
O314 O 0.27347 0.79322 0.33178 0.0
C315 C 0.27668 0.83959 0.39648 0.0
C316 C 0.24504 0.89743 0.35093 0.0
C317 C 0.25067 0.80095 0.32916 0.0
O318 O 0.25971 0.84994 0.38208 0.0
O319 O 0.29528 0.82619 0.38788 0.0
O320 O 0.26566 0.8619 0.30761 0.0
O321 O 0.29195 0.8456 0.33609 0.0
Co322 Co 0.6307 0.71267 0.87779 0.0
O323 O 0.62639 0.70559 0.91369 0.0
O324 O 0.62402 0.74425 0.89607 0.0
C325 C 0.66549 0.68841 0.87217 0.0
O326 O 0.63595 0.72767 0.84205 0.0
Co327 Co 0.62714 0.66997 0.83684 0.0
O328 O 0.64546 0.69513 0.81544 0.0
C329 C 0.58052 0.6913 0.85961 0.0
C330 C 0.62354 0.73015 0.91669 0.0
C331 C 0.64486 0.71896 0.82069 0.0
O332 O 0.59356 0.70796 0.87172 0.0
O333 O 0.59041 0.67362 0.84566 0.0
O334 O 0.66708 0.71128 0.88176 0.0
O335 O 0.64292 0.68001 0.86882 0.0
C336 C 0.13958 0.56119 0.25983 0.0
C337 C 0.12778 0.56688 0.23645 0.0
C338 C 0.1421 0.53576 0.26831 0.0
C339 C 0.13182 0.5159 0.25335 0.0
C340 C 0.11805 0.52192 0.2308 0.0
C341 C 0.11665 0.54737 0.22231 0.0
C342 C 0.15738 0.53005 0.29213 0.0
C343 C 0.10601 0.50135 0.21486 0.0
C344 C 0.1628 0.45018 0.25082 0.0
C345 C 0.14688 0.43614 0.26669 0.0
C346 C 0.15874 0.47652 0.24732 0.0
C347 C 0.13783 0.48874 0.25946 0.0
C348 C 0.12199 0.47459 0.27596 0.0
C349 C 0.12686 0.44834 0.27954 0.0
C350 C 0.17634 0.49109 0.22998 0.0
C351 C 0.09925 0.48684 0.28877 0.0
H352 H 0.14838 0.57639 0.27058 0.0
H353 H 0.10737 0.55197 0.2043 0.0
H354 H 0.14738 0.5165 0.30485 0.0
H355 H 0.17555 0.52076 0.28651 0.0
H356 H 0.1615 0.54767 0.30317 0.0
H357 H 0.09304 0.50952 0.20012 0.0
H358 H 0.12089 0.48989 0.20494 0.0
H359 H 0.09529 0.4881 0.2273 0.0
H360 H 0.17817 0.44044 0.24086 0.0
H361 H 0.11446 0.43712 0.29155 0.0
H362 H 0.1831 0.50848 0.23985 0.0
H363 H 0.16609 0.49748 0.21249 0.0
H364 H 0.19295 0.47928 0.22397 0.0
H365 H 0.10458 0.50463 0.29886 0.0
H366 H 0.09023 0.47378 0.30279 0.0
H367 H 0.08513 0.49231 0.27395 0.0
C368 C 0.94315 0.64298 0.81384 0.0
C369 C 0.93124 0.62158 0.80346 0.0
C370 C 0.96852 0.64787 0.80827 0.0
C371 C 0.98229 0.63075 0.79227 0.0
C372 C 0.97096 0.60802 0.78357 0.0
C373 C 0.94549 0.60381 0.7891 0.0
C374 C 0.97993 0.67237 0.81782 0.0
C375 C 0.98519 0.58903 0.7669 0.0
C376 C 0.03152 0.65738 0.74726 0.0
C377 C 0.05401 0.65032 0.75961 0.0
C378 C 0.00809 0.65163 0.75809 0.0
C379 C 0.00715 0.63821 0.78172 0.0
C380 C 0.02979 0.63132 0.79451 0.0
C381 C 0.05303 0.6376 0.78334 0.0
C382 C 0.98433 0.65955 0.74397 0.0
C383 C 0.02946 0.61679 0.8196 0.0
H384 H 0.93224 0.6568 0.82495 0.0
H385 H 0.93647 0.58704 0.78133 0.0
H386 H -0.00095 0.66866 0.82572 0.0
H387 H 0.98192 0.68592 0.80153 0.0
H388 H 0.9681 0.68173 0.83287 0.0
H389 H 0.97496 0.57076 0.76482 0.0
H390 H 0.98797 0.59736 0.7475 0.0
H391 H 0.00414 0.58479 0.775 0.0
H392 H 0.03219 0.66733 0.72898 0.0
H393 H 0.07041 0.63201 0.7929 0.0
H394 H 0.97187 0.67116 0.75673 0.0
H395 H 0.97375 0.6423 0.73834 0.0
H396 H 0.98834 0.67088 0.72639 0.0
H397 H 0.01744 0.62704 0.83385 0.0
H398 H 0.04866 0.61408 0.82778 0.0
H399 H 0.02113 0.59769 0.8166 0.0
C400 C 0.85135 0.43754 0.27954 0.0
C401 C 0.87178 0.42214 0.27163 0.0
C402 C 0.85256 0.46425 0.27847 0.0
C403 C 0.87508 0.47584 0.27007 0.0
C404 C 0.89597 0.46038 0.2624 0.0
C405 C 0.89391 0.43359 0.26285 0.0
C406 C 0.82962 0.48006 0.28614 0.0
C407 C 0.92052 0.47211 0.25412 0.0
C408 C 0.86712 0.5448 0.24843 0.0
C409 C 0.87101 0.5578 0.27152 0.0
C410 C 0.86938 0.51801 0.24733 0.0
C411 C 0.8765 0.50419 0.26967 0.0
C412 C 0.88215 0.51749 0.29255 0.0
C413 C 0.87886 0.54416 0.29333 0.0
C414 C 0.8625 0.50446 0.2228 0.0
C415 C 0.89056 0.50348 0.31652 0.0
H416 H 0.83411 0.42864 0.28599 0.0
H417 H 0.90973 0.4216 0.25682 0.0
H418 H 0.83402 0.49196 0.30311 0.0
H419 H 0.8242 0.4933 0.27031 0.0
H420 H 0.81318 0.46801 0.2909 0.0
H421 H 0.93507 0.45739 0.24908 0.0
H422 H 0.9174 0.48475 0.23725 0.0
H423 H 0.9279 0.48423 0.2698 0.0
H424 H 0.86092 0.55543 0.23161 0.0
H425 H 0.88215 0.55435 0.31111 0.0
H426 H 0.84492 0.49361 0.22587 0.0
H427 H 0.87747 0.49043 0.2173 0.0
H428 H 0.85944 0.51802 0.20659 0.0
H429 H 0.87449 0.49287 0.32476 0.0
H430 H 0.89766 0.51676 0.33139 0.0
H431 H 0.90565 0.48923 0.31189 0.0
C432 C 0.04369 0.38803 0.78022 0.0
C433 C 0.05655 0.37005 0.79563 0.0
C434 C 0.01829 0.38479 0.77382 0.0
C435 C 0.00555 0.36292 0.78281 0.0
C436 C 0.01795 0.34553 0.79964 0.0
C437 C 0.0433 0.34939 0.80597 0.0
C438 C 0.00555 0.404 0.75617 0.0
C439 C 0.00499 0.32195 0.80956 0.0
C440 C 0.9346 0.36051 0.7735 0.0
C441 C 0.93305 0.34721 0.75019 0.0
C442 C 0.95809 0.36552 0.78464 0.0
C443 C 0.9804 0.35679 0.77226 0.0
C444 C 0.97886 0.3428 0.74906 0.0
C445 C 0.9552 0.3383 0.73824 0.0
C446 C 0.95906 0.38066 0.80929 0.0
C447 C 0.00225 0.33294 0.73541 0.0
H448 H 0.0537 0.40424 0.77243 0.0
H449 H 0.05308 0.3354 0.8179 0.0
H450 H 0.00246 0.3951 0.73713 0.0
H451 H 0.98679 0.4098 0.7639 0.0
H452 H 0.01698 0.42143 0.7534 0.0
H453 H 0.01607 0.31209 0.82485 0.0
H454 H 0.98603 0.32698 0.81728 0.0
H455 H 0.0023 0.30832 0.79351 0.0
H456 H 0.9175 0.36751 0.78275 0.0
H457 H 0.95408 0.3279 0.7203 0.0
H458 H 0.96879 0.39899 0.80582 0.0
H459 H 0.97011 0.36995 0.82398 0.0
H460 H 0.93996 0.38498 0.81715 0.0
H461 H 0.01403 0.34927 0.72939 0.0
H462 H -0.00228 0.32146 0.71813 0.0
H463 H 0.01377 0.32087 0.74862 0.0
C464 C 0.11139 0.45916 0.72191 0.0
C465 C 0.12022 0.45634 0.74714 0.0
C466 C 0.10976 0.48347 0.7103 0.0
C467 C 0.11776 0.50519 0.72411 0.0
C468 C 0.1265 0.50237 0.74965 0.0
C469 C 0.12733 0.47803 0.76094 0.0
C470 C 0.09972 0.48588 0.6833 0.0
C471 C 0.13552 0.52501 0.76494 0.0
C472 C 0.14092 0.56607 0.69316 0.0
C473 C 0.12165 0.58336 0.70018 0.0
C474 C 0.13919 0.53996 0.69927 0.0
C475 C 0.11744 0.53103 0.71214 0.0
C476 C 0.09696 0.54807 0.71701 0.0
C477 C 0.09946 0.57414 0.7113 0.0
C478 C 0.16158 0.52246 0.69406 0.0
C479 C 0.07317 0.53919 0.73002 0.0
H480 H 0.10579 0.4424 0.71124 0.0
H481 H 0.13434 0.4759 0.78038 0.0
H482 H 0.08402 0.50021 0.68269 0.0
H483 H 0.11473 0.49284 0.6703 0.0
H484 H 0.09282 0.46738 0.6758 0.0
H485 H 0.14225 0.51942 0.78439 0.0
H486 H 0.15116 0.53445 0.75459 0.0
H487 H 0.12002 0.53938 0.76712 0.0
H488 H 0.15811 0.57321 0.68464 0.0
H489 H 0.08441 0.5875 0.71645 0.0
H490 H 0.15545 0.5042 0.68542 0.0
H491 H 0.17108 0.5177 0.71248 0.0
H492 H 0.17554 0.53143 0.68105 0.0
H493 H 0.06693 0.52081 0.7217 0.0
H494 H 0.05756 0.55355 0.72831 0.0
H495 H 0.07691 0.53586 0.75073 0.0
C496 C 0.93919 0.62966 0.19375 0.0
C497 C 0.93577 0.63666 0.21952 0.0
C498 C 0.96324 0.63031 0.18231 0.0
C499 C 0.98403 0.63858 0.19696 0.0
C500 C 0.98045 0.64618 0.22281 0.0
C501 C 0.95644 0.6449 0.2338 0.0
C502 C 0.96651 0.62168 0.15484 0.0
C503 C 0.00205 0.65545 0.23905 0.0
C504 C 0.05221 0.61978 0.18791 0.0
C505 C 0.06224 0.64275 0.17882 0.0
C506 C 0.02619 0.61721 0.19136 0.0
C507 C 0.00995 0.63836 0.18617 0.0
C508 C 0.01979 0.66089 0.17504 0.0
C509 C 0.04593 0.66274 0.17126 0.0
C510 C 0.0164 0.59265 0.20269 0.0
C511 C 0.0031 0.68391 0.16941 0.0
H512 H 0.92319 0.62328 0.18268 0.0
H513 H 0.95383 0.65063 0.25365 0.0
H514 H 0.97596 0.63669 0.1434 0.0
H515 H 0.97883 0.6043 0.15421 0.0
H516 H 0.94823 0.61722 0.14563 0.0
H517 H 0.99576 0.66198 0.25836 0.0
H518 H 0.01625 0.63979 0.24157 0.0
H519 H 0.01159 0.67154 0.22929 0.0
H520 H 0.06483 0.60413 0.19333 0.0
H521 H 0.0537 0.68048 0.16417 0.0
H522 H -0.00113 0.58683 0.19287 0.0
H523 H 0.01176 0.59568 0.22327 0.0
H524 H 0.03052 0.57674 0.20131 0.0
H525 H 0.98529 0.67809 0.16015 0.0
H526 H 0.01265 0.69796 0.15681 0.0
H527 H -0.00195 0.69357 0.18773 0.0
C528 C 0.88207 0.53859 0.71902 0.0
C529 C 0.87273 0.53868 0.74425 0.0
C530 C 0.88437 0.51563 0.70511 0.0
C531 C 0.87652 0.4925 0.71658 0.0
C532 C 0.86758 0.49249 0.74225 0.0
C533 C 0.86608 0.51555 0.75584 0.0
C534 C 0.89466 0.51622 0.67806 0.0
C535 C 0.85884 0.46824 0.75517 0.0
C536 C 0.85209 0.43494 0.68158 0.0
C537 C 0.87079 0.41673 0.68776 0.0
C538 C 0.85469 0.46063 0.6888 0.0
C539 C 0.87672 0.46814 0.70196 0.0
C540 C 0.89689 0.45039 0.70534 0.0
C541 C 0.89354 0.42474 0.69852 0.0
C542 C 0.83268 0.47895 0.68495 0.0
C543 C 0.92103 0.45783 0.71846 0.0
H544 H 0.88735 0.55648 0.71005 0.0
H545 H 0.85876 0.51554 0.77531 0.0
H546 H 0.90923 0.50094 0.67538 0.0
H547 H 0.87927 0.51251 0.66425 0.0
H548 H 0.90304 0.53499 0.67325 0.0
H549 H 0.85213 0.47164 0.77512 0.0
H550 H 0.84324 0.45981 0.744 0.0
H551 H 0.87447 0.45387 0.75575 0.0
H552 H 0.83448 0.42872 0.67329 0.0
H553 H 0.90816 0.41066 0.70298 0.0
H554 H 0.83921 0.49781 0.67804 0.0
H555 H 0.82297 0.4821 0.70362 0.0
H556 H 0.81878 0.47144 0.67105 0.0
H557 H 0.92712 0.47703 0.71201 0.0
H558 H 0.93652 0.44371 0.71471 0.0
H559 H 0.91785 0.45875 0.73951 0.0
C560 C 0.94913 0.37095 0.1962 0.0
C561 C 0.94433 0.35193 0.2145 0.0
C562 C 0.97412 0.37703 0.18959 0.0
C563 C 0.99438 0.3636 0.20154 0.0
C564 C 0.98931 0.34279 0.21818 0.0
C565 C 0.96436 0.33738 0.22456 0.0
C566 C 0.97863 0.399 0.17141 0.0
C567 C 0.01023 0.32751 0.23105 0.0
C568 C 0.06453 0.36286 0.19113 0.0
C569 C 0.07186 0.37563 0.21346 0.0
C570 C 0.03886 0.36156 0.18455 0.0
C571 C 0.02055 0.37332 0.20074 0.0
C572 C 0.02841 0.38937 0.22098 0.0
C573 C 0.05402 0.39011 0.22725 0.0
C574 C 0.03127 0.34513 0.16219 0.0
C575 C 0.00962 0.40301 0.23823 0.0
H576 H 0.93356 0.38217 0.18836 0.0
H577 H 0.96055 0.32236 0.23839 0.0
H578 H 0.98004 0.41698 0.18259 0.0
H579 H 0.99644 0.39627 0.16044 0.0
H580 H 0.96275 0.40141 0.15769 0.0
H581 H 0.00306 0.31055 0.24151 0.0
H582 H 0.0243 0.32083 0.21666 0.0
H583 H 0.02012 0.33984 0.245 0.0
H584 H 0.07841 0.35189 0.18025 0.0
H585 H 0.05985 0.4005 0.2442 0.0
H586 H 0.01425 0.35318 0.15253 0.0
H587 H 0.02667 0.3257 0.16928 0.0
H588 H 0.04679 0.3432 0.1479 0.0
H589 H 0.99436 0.41219 0.22676 0.0
H590 H 0.01869 0.4179 0.25012 0.0
H591 H 0.00083 0.38889 0.25132 0.0
C592 C 0.27062 0.13342 0.56195 0.0
C593 C 0.25517 0.15463 0.56791 0.0
C594 C 0.2745 0.12604 0.53624 0.0
C595 C 0.26299 0.14058 0.51632 0.0
C596 C 0.24917 0.16324 0.52239 0.0
C597 C 0.24513 0.16975 0.54813 0.0
C598 C 0.28919 0.1017 0.53063 0.0
C599 C 0.23709 0.1797 0.50176 0.0
C600 C 0.2745 0.13562 0.44475 0.0
C601 C 0.25183 0.12465 0.43698 0.0
C602 C 0.27975 0.139 0.47097 0.0
C603 C 0.26206 0.13078 0.48956 0.0
C604 C 0.24058 0.11713 0.48168 0.0
C605 C 0.23554 0.11455 0.45544 0.0
C606 C 0.30291 0.15351 0.47858 0.0
C607 C 0.22164 0.1073 0.50088 0.0
H608 H 0.27823 0.12164 0.57736 0.0
H609 H 0.23335 0.18628 0.55284 0.0
H610 H 0.2758 0.08599 0.52712 0.0
H611 H 0.30099 0.10373 0.51315 0.0
H612 H 0.3015 0.09602 0.54699 0.0
H613 H 0.22965 0.19817 0.50946 0.0
H614 H 0.2509 0.18383 0.48631 0.0
H615 H 0.22123 0.16929 0.49295 0.0
H616 H 0.28713 0.14339 0.43042 0.0
H617 H 0.21819 0.1057 0.44936 0.0
H618 H 0.31172 0.14508 0.49602 0.0
H619 H 0.2974 0.1736 0.48312 0.0
H620 H 0.31714 0.15377 0.46287 0.0
H621 H 0.23136 0.09757 0.51713 0.0
H622 H 0.20834 0.0937 0.49202 0.0
H623 H 0.21054 0.12367 0.50886 0.0
C624 C 0.37229 0.76698 0.93396 0.0
C625 C 0.34881 0.77577 0.92497 0.0
C626 C 0.3771 0.76531 0.96034 0.0
C627 C 0.35769 0.7719 0.97794 0.0
C628 C 0.33369 0.78002 0.96891 0.0
C629 C 0.32965 0.78223 0.94245 0.0
C630 C 0.40308 0.75718 0.96938 0.0
C631 C 0.31236 0.78651 0.98719 0.0
C632 C 0.36182 0.74764 0.04626 0.0
C633 C 0.36807 0.77003 0.0594 0.0
C634 C 0.35863 0.74787 0.01959 0.0
C635 C 0.36253 0.77086 0.00585 0.0
C636 C 0.36991 0.79325 0.01893 0.0
C637 C 0.37221 0.79266 0.0457 0.0
C638 C 0.3501 0.72385 0.00629 0.0
C639 C 0.37487 0.81791 0.00473 0.0
H640 H 0.38715 0.7622 0.92035 0.0
H641 H 0.31144 0.78882 0.9354 0.0
H642 H 0.41143 0.77277 0.98085 0.0
H643 H 0.40185 0.74017 0.98208 0.0
H644 H 0.41599 0.7525 0.95315 0.0
H645 H 0.29445 0.79104 0.97698 0.0
H646 H 0.30914 0.77024 0.00048 0.0
H647 H 0.31738 0.80326 -0.00093 0.0
H648 H 0.35839 0.73021 0.05697 0.0
H649 H 0.37724 0.80989 0.05594 0.0
H650 H 0.36337 0.71858 0.9906 0.0
H651 H 0.33135 0.72738 -0.00258 0.0
H652 H 0.34868 0.70736 0.01971 0.0
H653 H 0.38847 0.81441 0.98883 0.0
H654 H 0.3825 0.8329 0.01752 0.0
H655 H 0.35712 0.82533 0.99604 0.0
C656 C 0.75054 0.87948 0.46438 0.0
C657 C 0.73626 0.86687 0.44592 0.0
C658 C 0.74439 0.87782 0.49047 0.0
C659 C 0.72393 0.86248 0.49819 0.0
C660 C 0.70776 0.85216 0.47938 0.0
C661 C 0.71406 0.85464 0.45326 0.0
C662 C 0.76159 0.88997 0.50985 0.0
C663 C 0.68553 0.83608 0.48681 0.0
C664 C 0.74397 0.82475 0.55648 0.0
C665 C 0.73282 0.8389 0.57637 0.0
C666 C 0.73936 0.83103 0.53081 0.0
C667 C 0.72364 0.85244 0.52489 0.0
C668 C 0.71094 0.86579 0.54491 0.0
C669 C 0.71558 0.8587 0.57058 0.0
C670 C 0.75287 0.81583 0.51009 0.0
C671 C 0.69404 0.88867 0.53946 0.0
H672 H 0.76748 0.88933 0.45855 0.0
H673 H 0.70294 0.84499 0.43889 0.0
H674 H 0.75049 0.8989 0.52565 0.0
H675 H 0.7741 0.875 0.5184 0.0
H676 H 0.77362 0.90479 0.50092 0.0
H677 H 0.67173 0.83474 0.47087 0.0
H678 H 0.69231 0.81642 0.49161 0.0
H679 H 0.67581 0.84398 0.50402 0.0
H680 H 0.75708 0.80923 0.56105 0.0
H681 H 0.70702 0.86969 0.58606 0.0
H682 H 0.76758 0.8278 0.50109 0.0
H683 H 0.73949 0.81032 0.49481 0.0
H684 H 0.76211 0.79817 0.51776 0.0
H685 H 0.7058 0.9059 0.53719 0.0
H686 H 0.68055 0.89226 0.55548 0.0
H687 H 0.68329 0.88617 0.52142 0.0
C688 C 0.63419 0.26382 0.0456 0.0
C689 C 0.62886 0.24124 0.05897 0.0
C690 C 0.6352 0.26403 0.01869 0.0
C691 C 0.63011 0.24129 0.00505 0.0
C692 C 0.62308 0.21892 0.01848 0.0
C693 C 0.62288 0.21907 0.04536 0.0
C694 C 0.64321 0.28809 0.005 0.0
C695 C 0.61687 0.1945 0.00452 0.0
C696 C 0.61938 0.24379 0.93314 0.0
C697 C 0.6426 0.23434 0.92394 0.0
C698 C 0.61501 0.24641 0.95958 0.0
C699 C 0.63457 0.24002 0.97701 0.0
C700 C 0.65832 0.23131 0.96772 0.0
C701 C 0.66194 0.22826 0.94128 0.0
C702 C 0.58929 0.25517 0.96888 0.0
C703 C 0.6798 0.22484 0.98575 0.0
H704 H 0.63889 0.28095 0.05618 0.0
H705 H 0.61842 0.20171 0.05576 0.0
H706 H 0.6621 0.28486 0.99622 0.0
H707 H 0.62995 0.29292 0.98921 0.0
H708 H 0.64422 0.30474 0.01819 0.0
H709 H 0.60881 0.17989 0.01758 0.0
H710 H 0.60322 0.19849 0.98884 0.0
H711 H 0.63424 0.18631 0.99562 0.0
H712 H 0.60436 0.24832 0.91969 0.0
H713 H 0.67998 0.22121 0.93413 0.0
H714 H 0.59099 0.27194 0.98175 0.0
H715 H 0.58053 0.23966 0.98026 0.0
H716 H 0.57647 0.2604 0.95279 0.0
H717 H 0.68331 0.24121 -0.00126 0.0
H718 H 0.69755 0.22003 0.97532 0.0
H719 H 0.67474 0.20825 -0.00205 0.0
C720 C 0.25151 0.84406 0.43667 0.0
C721 C 0.27498 0.84371 0.42429 0.0
C722 C 0.24986 0.84755 0.46331 0.0
C723 C 0.27215 0.85165 0.47751 0.0
C724 C 0.29583 0.85192 0.46492 0.0
C725 C 0.29699 0.84752 0.43846 0.0
C726 C 0.22441 0.84633 0.4763 0.0
C727 C 0.31991 0.85691 0.47939 0.0
C728 C 0.26711 0.88266 0.54303 0.0
C729 C 0.27182 0.86163 0.55912 0.0
C730 C 0.26703 0.8797 0.51629 0.0
C731 C 0.27092 0.855 0.50568 0.0
C732 C 0.27479 0.83358 0.52196 0.0
C733 C 0.27561 0.83724 0.54855 0.0
C734 C 0.26358 0.90304 0.49941 0.0
C735 C 0.27828 0.80686 0.51131 0.0
H736 H 0.23454 0.84096 0.4256 0.0
H737 H 0.31509 0.84754 0.42872 0.0
H738 H 0.2246 0.83079 0.49088 0.0
H739 H 0.22024 0.86451 0.48656 0.0
H740 H 0.20894 0.84278 0.46247 0.0
H741 H 0.33655 0.85796 0.46644 0.0
H742 H 0.31813 0.87518 0.49016 0.0
H743 H 0.32341 0.84146 0.49365 0.0
H744 H 0.26428 0.90152 0.55135 0.0
H745 H 0.27893 0.82096 0.56114 0.0
H746 H 0.24731 0.90054 0.48636 0.0
H747 H 0.28055 0.90547 0.48718 0.0
H748 H 0.26043 0.92082 0.51074 0.0
H749 H 0.26256 0.80235 0.49812 0.0
H750 H 0.2791 0.79208 0.52669 0.0
H751 H 0.29601 0.80561 0.5 0.0
C752 C 0.65173 0.79174 0.05218 0.0
C753 C 0.6336 0.78504 0.07049 0.0
C754 C 0.64804 0.78636 0.02605 0.0
C755 C 0.62546 0.77459 0.01816 0.0
C756 C 0.60618 0.76998 0.03636 0.0
C757 C 0.61064 0.77491 0.06238 0.0
C758 C 0.66921 0.79123 0.00731 0.0
C759 C 0.58154 0.75816 0.02864 0.0
C760 C 0.61414 0.76687 0.94641 0.0
C761 C 0.62224 0.74145 0.94263 0.0
C762 C 0.61445 0.77791 0.97103 0.0
C763 C 0.62372 0.76332 0.99205 0.0
C764 C 0.63176 0.73761 0.98826 0.0
C765 C 0.63063 0.72693 0.96368 0.0
C766 C 0.60506 0.80512 0.97454 0.0
C767 C 0.64212 0.72148 0.01008 0.0
H768 H 0.6695 0.79955 0.05844 0.0
H769 H 0.59643 0.77008 0.07653 0.0
H770 H 0.67801 0.77266 0.00155 0.0
H771 H 0.66193 0.80062 0.98965 0.0
H772 H 0.68404 0.8034 0.01573 0.0
H773 H 0.56704 0.76001 0.044 0.0
H774 H 0.57412 0.76722 0.01085 0.0
H775 H 0.58466 0.73749 0.0246 0.0
H776 H 0.60757 0.77811 0.93015 0.0
H777 H 0.6371 0.70733 0.96083 0.0
H778 H 0.62076 0.81734 0.98089 0.0
H779 H 0.5904 0.80594 0.98977 0.0
H780 H 0.59703 0.81332 0.95657 0.0
H781 H 0.65855 0.73102 0.01883 0.0
H782 H 0.64816 0.70202 0.00373 0.0
H783 H 0.62761 0.71946 0.0253 0.0
C784 C 0.73981 0.12094 0.54706 0.0
C785 C 0.71676 0.11742 0.55968 0.0
C786 C 0.74075 0.12404 0.52034 0.0
C787 C 0.71818 0.12283 0.50599 0.0
C788 C 0.69505 0.11785 0.51853 0.0
C789 C 0.69456 0.1156 0.54534 0.0
C790 C 0.76565 0.12994 0.50766 0.0
C791 C 0.67072 0.11572 0.50373 0.0
C792 C 0.71261 0.15866 0.44294 0.0
C793 C 0.71739 0.13909 0.42517 0.0
C794 C 0.71345 0.15371 0.46937 0.0
C795 C 0.71843 0.12842 0.47809 0.0
C796 C 0.72318 0.10856 0.4602 0.0
C797 C 0.72295 0.11422 0.43388 0.0
C798 C 0.70896 0.17551 0.48795 0.0
C799 C 0.72792 0.08127 0.46883 0.0
H800 H 0.75695 0.1226 0.55821 0.0
H801 H 0.67677 0.11269 0.55514 0.0
H802 H 0.76951 0.11644 0.49166 0.0
H803 H 0.76477 0.14951 0.49931 0.0
H804 H 0.78165 0.12887 0.52138 0.0
H805 H 0.65491 0.10925 0.51605 0.0
H806 H 0.66547 0.13461 0.49535 0.0
H807 H 0.67316 0.10206 0.48757 0.0
H808 H 0.70853 0.17794 0.43616 0.0
H809 H 0.72644 0.09904 0.42008 0.0
H810 H 0.72493 0.17666 0.50161 0.0
H811 H 0.69168 0.17204 0.49941 0.0
H812 H 0.70675 0.19427 0.47802 0.0
H813 H 0.74439 0.08026 0.4819 0.0
H814 H 0.73147 0.0681 0.45243 0.0
H815 H 0.71138 0.07439 0.4798 0.0
C816 C 0.39189 0.21468 0.05667 0.0
C817 C 0.37062 0.20237 0.06646 0.0
C818 C 0.3944 0.21942 0.03027 0.0
C819 C 0.37479 0.21236 0.01343 0.0
C820 C 0.3541 0.1984 0.02302 0.0
C821 C 0.35241 0.19331 0.04944 0.0
C822 C 0.41714 0.23364 0.02071 0.0
C823 C 0.3326 0.19086 0.00581 0.0
C824 C 0.36132 0.25876 0.95912 0.0
C825 C 0.37007 0.24516 0.93762 0.0
C826 C 0.3627 0.24814 0.98376 0.0
C827 C 0.37369 0.22348 0.98715 0.0
C828 C 0.38312 0.20979 0.9656 0.0
C829 C 0.38089 0.2207 0.94093 0.0
C830 C 0.35202 0.26325 0.00614 0.0
C831 C 0.39553 0.18374 0.96861 0.0
H832 H 0.40623 0.22134 0.06976 0.0
H833 H 0.33594 0.18377 0.05695 0.0
H834 H 0.42433 0.22515 0.00253 0.0
H835 H 0.41171 0.25386 0.01668 0.0
H836 H 0.43263 0.23348 0.03505 0.0
H837 H 0.31983 0.1771 0.01534 0.0
H838 H 0.32142 0.20824 0.00053 0.0
H839 H 0.3398 0.18219 0.98775 0.0
H840 H 0.35274 0.2776 0.95664 0.0
H841 H 0.38777 0.21019 0.92432 0.0
H842 H 0.36712 0.26711 0.02025 0.0
H843 H 0.3374 0.25197 0.01615 0.0
H844 H 0.34345 0.28185 8e-05 0.0
H845 H 0.41135 0.18479 0.98246 0.0
H846 H 0.40289 0.17612 0.9501 0.0
H847 H 0.38182 0.17 0.97657 0.0
C848 C 0.54749 0.29587 0.10362 0.0
C849 C 0.56052 0.30101 0.1263 0.0
C850 C 0.52108 0.29491 0.10355 0.0
C851 C 0.50775 0.29872 0.12686 0.0
C852 C 0.52068 0.30788 0.14869 0.0
C853 C 0.54712 0.3089 0.14814 0.0
C854 C 0.50799 0.28589 0.0796 0.0
C855 C 0.50717 0.31268 0.17379 0.0
C856 C 0.43695 0.28752 0.12978 0.0
C857 C 0.43644 0.26159 0.13694 0.0
C858 C 0.45997 0.30009 0.12627 0.0
C859 C 0.48289 0.28641 0.13031 0.0
C860 C 0.48238 0.26023 0.13759 0.0
C861 C 0.4592 0.24818 0.14073 0.0
C862 C 0.45974 0.32794 0.11848 0.0
C863 C 0.50638 0.24479 0.14207 0.0
H864 H 0.55798 0.28956 0.0868 0.0
H865 H 0.5573 0.3126 0.16575 0.0
H866 H 0.50506 0.26494 0.08099 0.0
H867 H 0.48924 0.29537 0.07742 0.0
H868 H 0.51945 0.28965 0.06213 0.0
H869 H 0.51835 0.32497 0.18674 0.0
H870 H 0.48844 0.32189 0.17058 0.0
H871 H 0.5041 0.2941 0.18362 0.0
H872 H 0.41937 0.298 0.12683 0.0
H873 H 0.45895 0.22816 0.14628 0.0
H874 H 0.47323 0.33124 0.10253 0.0
H875 H 0.46582 0.33978 0.13493 0.0
H876 H 0.44069 0.33471 0.11242 0.0
H877 H 0.51793 0.24433 0.12427 0.0
H878 H 0.50263 0.22475 0.14794 0.0
H879 H 0.51778 0.25388 0.15727 0.0
C880 C 0.53809 0.68471 0.84027 0.0
C881 C 0.55272 0.69368 0.86066 0.0
C882 C 0.51204 0.68975 0.83936 0.0
C883 C 0.50034 0.70363 0.85958 0.0
C884 C 0.51472 0.71112 0.88108 0.0
C885 C 0.54083 0.70633 0.88122 0.0
C886 C 0.49743 0.68181 0.8159 0.0
C887 C 0.50279 0.72543 0.9033 0.0
C888 C 0.44522 0.74754 0.84323 0.0
C889 C 0.42458 0.73308 0.85109 0.0
C890 C 0.46988 0.7379 0.84555 0.0
C891 C 0.47405 0.71341 0.85659 0.0
C892 C 0.45328 0.6987 0.8647 0.0
C893 C 0.42865 0.70861 0.86154 0.0
C894 C 0.49148 0.75399 0.83615 0.0
C895 C 0.4571 0.67277 0.87708 0.0
H896 H 0.54718 0.67494 0.8243 0.0
H897 H 0.55201 0.71296 0.89722 0.0
H898 H 0.47976 0.67221 0.82155 0.0
H899 H 0.49204 0.6991 0.80462 0.0
H900 H 0.50859 0.6687 0.80331 0.0
H901 H 0.51565 0.72648 0.92007 0.0
H902 H 0.4978 0.74524 0.8972 0.0
H903 H 0.4851 0.71611 0.90942 0.0
H904 H 0.44207 0.76639 0.83494 0.0
H905 H 0.41265 0.69752 0.86779 0.0
H906 H 0.50296 0.74307 0.82193 0.0
H907 H 0.50402 0.75871 0.85243 0.0
H908 H 0.48489 0.77218 0.82708 0.0
H909 H 0.46777 0.65982 0.86397 0.0
H910 H 0.43896 0.66368 0.88216 0.0
H911 H 0.46851 0.67471 0.89479 0.0
C912 C 0.77645 0.94227 0.3833 0.0
C913 C 0.78794 0.92915 0.36282 0.0
C914 C 0.77289 0.96889 0.38242 0.0
C915 C 0.78048 0.9825 0.36026 0.0
C916 C 0.7932 0.96951 0.34006 0.0
C917 C 0.79702 0.94294 0.34171 0.0
C918 C 0.75983 0.98222 0.4046 0.0
C919 C 0.80124 0.98336 0.31598 0.0
C920 C 0.74039 0.04082 0.34405 0.0
C921 C 0.75611 0.06078 0.35135 0.0
C922 C 0.74837 0.01526 0.34646 0.0
C923 C 0.77244 0.00959 0.35694 0.0
C924 C 0.78838 0.02967 0.36447 0.0
C925 C 0.7801 0.05514 0.36132 0.0
C926 C 0.73102 0.99432 0.33781 0.0
C927 C 0.81395 0.02424 0.37617 0.0
H928 H 0.76975 0.93165 0.39982 0.0
H929 H 0.80587 0.93281 0.32583 0.0
H930 H 0.77016 -0.00034 0.41014 0.0
H931 H 0.74057 0.9884 0.39872 0.0
H932 H 0.75823 0.96957 0.42169 0.0
H933 H 0.81323 0.97107 0.30334 0.0
H934 H 0.78426 0.98956 0.30505 0.0
H935 H 0.8118 0.00084 0.32086 0.0
H936 H 0.72191 0.04518 0.33616 0.0
H937 H 0.7922 0.07062 0.36711 0.0
H938 H 0.72595 0.98205 0.35439 0.0
H939 H 0.74076 0.98189 0.3235 0.0
H940 H 0.71335 0.00205 0.3291 0.0
H941 H 0.81174 0.01292 0.39407 0.0
H942 H 0.82415 0.04206 0.38076 0.0
H943 H 0.82571 0.01255 0.36283 0.0
C944 C 0.44696 0.28725 0.87743 0.0
C945 C 0.43439 0.30031 0.85756 0.0
C946 C 0.47332 0.28472 0.87744 0.0
C947 C 0.48733 0.29497 0.85676 0.0
C948 C 0.47486 0.30935 0.83738 0.0
C949 C 0.44852 0.31204 0.83814 0.0
C950 C 0.48602 0.26977 0.89879 0.0
C951 C 0.4891 0.32025 0.81482 0.0
C952 C 0.55905 0.29429 0.85992 0.0
C953 C 0.56472 0.27075 0.84824 0.0
C954 C 0.53385 0.30262 0.86292 0.0
C955 C 0.51419 0.28727 0.85338 0.0
C956 C 0.52004 0.26389 0.84084 0.0
C957 C 0.54521 0.25577 0.83875 0.0
C958 C 0.52822 0.32737 0.87689 0.0
C959 C 0.49969 0.24724 0.82984 0.0
H960 H 0.43614 0.27851 0.89273 0.0
H961 H 0.4389 0.32221 0.82275 0.0
H962 H 0.49254 0.25087 0.89141 0.0
H963 H 0.50287 0.27996 0.90576 0.0
H964 H 0.4731 0.26652 0.91526 0.0
H965 H 0.47722 0.33365 0.80326 0.0
H966 H 0.50606 0.33047 0.82139 0.0
H967 H 0.49565 0.30437 0.80219 0.0
H968 H 0.57421 0.30575 0.8674 0.0
H969 H 0.54966 0.23766 0.82949 0.0
H970 H 0.51747 0.32332 0.89472 0.0
H971 H 0.51622 0.34019 0.86488 0.0
H972 H 0.54566 0.33763 0.8821 0.0
H973 H 0.48732 0.24031 0.8455 0.0
H974 H 0.50757 0.23036 0.81942 0.0
H975 H 0.48769 0.25855 0.81639 0.0
C976 C 0.25308 0.94392 0.34768 0.0
C977 C 0.23629 0.92426 0.35334 0.0
C978 C 0.24537 0.96962 0.34875 0.0
C979 C 0.22036 0.97589 0.35628 0.0
C980 C 0.20339 0.95616 0.36259 0.0
C981 C 0.21149 0.93045 0.36071 0.0
C982 C 0.26393 0.99006 0.34141 0.0
C983 C 0.17679 0.96225 0.3713 0.0
C984 C 0.21524 0.04509 0.37696 0.0
C985 C 0.20666 0.05686 0.35433 0.0
C986 C 0.21775 0.01836 0.37864 0.0
C987 C 0.21225 0.00322 0.35691 0.0
C988 C 0.20242 0.01495 0.33444 0.0
C989 C 0.19945 0.04167 0.33354 0.0
C990 C 0.22762 0.00648 0.40317 0.0
C991 C 0.19681 -0.00048 0.31069 0.0
H992 H 0.27223 0.9392 0.34178 0.0
H993 H 0.19854 0.91523 0.36523 0.0
H994 H 0.25625 0.00181 0.32537 0.0
H995 H 0.26695 0.00309 0.35787 0.0
H996 H 0.2825 0.98187 0.33542 0.0
H997 H 0.16633 0.94476 0.37664 0.0
H998 H 0.1771 0.97528 0.3881 0.0
H999 H 0.16632 0.97237 0.35579 0.0
H1000 H 0.22043 0.05681 0.39322 0.0
H1001 H 0.19281 0.05074 0.31601 0.0
H1002 H 0.24747 3e-05 0.40032 0.0
H1003 H 0.21654 0.98941 0.40843 0.0
H1004 H 0.227 0.02023 0.41944 0.0
H1005 H 0.21477 0.99218 0.30227 0.0
H1006 H 0.18673 0.01108 0.29587 0.0
H1007 H 0.18525 0.9827 0.31559 0.0
C1008 C 0.56641 0.7054 0.12911 0.0
C1009 C 0.56828 0.72926 0.14126 0.0
C1010 C 0.54273 0.69509 0.12353 0.0
C1011 C 0.52061 0.70902 0.13037 0.0
C1012 C 0.52253 0.73263 0.1436 0.0
C1013 C 0.54633 0.74247 0.14875 0.0
C1014 C 0.54157 0.66997 0.10935 0.0
C1015 C 0.49943 0.74807 0.15161 0.0
C1016 C 0.45805 0.71478 0.09901 0.0
C1017 C 0.44283 0.70578 0.11892 0.0
C1018 C 0.48431 0.71196 0.10028 0.0
C1019 C 0.49524 0.7006 0.12239 0.0
C1020 C 0.47973 0.68783 0.14033 0.0
C1021 C 0.45343 0.69056 0.13834 0.0
C1022 C 0.50021 0.72484 0.08012 0.0
C1023 C 0.49073 0.67481 0.16373 0.0
H1024 H 0.58341 0.69514 0.12324 0.0
H1025 H 0.54771 0.76078 0.15838 0.0
H1026 H 0.52521 0.65854 0.11565 0.0
H1027 H 0.53941 0.67386 0.08851 0.0
H1028 H 0.55911 0.65835 0.11206 0.0
H1029 H 0.50428 0.76529 0.16296 0.0
H1030 H 0.48884 0.75447 0.13433 0.0
H1031 H 0.48667 0.73612 0.16333 0.0
H1032 H 0.44965 0.72648 0.08394 0.0
H1033 H 0.44151 0.68367 0.15376 0.0
H1034 H 0.51759 0.71343 0.07608 0.0
H1035 H 0.50594 0.7439 0.08725 0.0
H1036 H 0.48962 0.7277 0.06192 0.0
H1037 H 0.50879 0.66482 0.15904 0.0
H1038 H 0.47744 0.66079 0.17205 0.0
H1039 H 0.49464 0.68946 0.17855 0.0
C1040 C 0.8079 0.91946 0.64263 0.0
C1041 C 0.78485 0.90697 0.64553 0.0
C1042 C 0.80854 0.94584 0.63736 0.0
C1043 C 0.78561 0.96004 0.63583 0.0
C1044 C 0.76232 0.94739 0.63839 0.0
C1045 C 0.76224 0.92095 0.64284 0.0
C1046 C 0.83366 0.95857 0.63388 0.0
C1047 C 0.73743 0.96191 0.63742 0.0
C1048 C 0.77947 0.02957 0.65448 0.0
C1049 C 0.77353 0.04083 0.63086 0.0
C1050 C 0.78542 0.0034 0.65615 0.0
C1051 C 0.78559 0.98837 0.63354 0.0
C1052 C 0.7817 0.00025 0.60933 0.0
C1053 C 0.77527 0.02643 0.60831 0.0
C1054 C 0.78906 0.99149 0.68237 0.0
C1055 C 0.78238 0.98498 0.58476 0.0
H1056 H 0.82541 0.90858 0.64436 0.0
H1057 H 0.74439 0.91136 0.64515 0.0
H1058 H 0.83357 0.97031 0.61608 0.0
H1059 H 0.83709 0.97171 0.65017 0.0
H1060 H 0.84952 0.94444 0.63284 0.0
H1061 H 0.72102 0.94913 0.63958 0.0
H1062 H 0.73665 0.97639 0.653 0.0
H1063 H 0.7356 0.97233 0.61892 0.0
H1064 H 0.7777 0.04088 0.67187 0.0
H1065 H 0.77035 0.03531 0.59011 0.0
H1066 H 0.80591 0.97863 0.68256 0.0
H1067 H 0.77247 0.97969 0.68714 0.0
H1068 H 0.7912 0.00615 0.69761 0.0
H1069 H 0.79841 0.97103 0.58484 0.0
H1070 H 0.78402 -0.00246 0.56761 0.0
H1071 H 0.76476 0.97396 0.58302 0.0
C1072 C 0.19517 0.07918 0.61564 0.0
C1073 C 0.20389 0.08739 0.63953 0.0
C1074 C 0.19613 0.05311 0.60908 0.0
C1075 C 0.20669 0.03522 0.62665 0.0
C1076 C 0.21502 0.04357 0.65105 0.0
C1077 C 0.21331 0.06962 0.65727 0.0
C1078 C 0.18667 0.04487 0.58311 0.0
C1079 C 0.22678 0.02517 0.67019 0.0
C1080 C 0.20129 0.96312 0.62466 0.0
C1081 C 0.22563 0.95613 0.61645 0.0
C1082 C 0.1939 0.98904 0.62615 0.0
C1083 C 0.21126 0.00814 0.61909 0.0
C1084 C 0.23489 0.00096 0.60836 0.0
C1085 C 0.24182 0.97501 0.60728 0.0
C1086 C 0.16841 0.99597 0.63733 0.0
C1087 C 0.25381 0.02071 0.60019 0.0
H1088 H 0.18793 0.0932 0.60201 0.0
H1089 H 0.22018 0.07626 0.67565 0.0
H1090 H 0.20289 0.03924 0.57074 0.0
H1091 H 0.17449 0.02789 0.58504 0.0
H1092 H 0.17583 0.06041 0.57329 0.0
H1093 H 0.23129 0.0346 0.68868 0.0
H1094 H 0.21386 0.00912 0.67409 0.0
H1095 H 0.24446 0.01682 0.66207 0.0
H1096 H 0.18869 0.94853 0.6317 0.0
H1097 H 0.26053 0.96958 0.60055 0.0
H1098 H 0.15939 0.01188 0.62637 0.0
H1099 H 0.17078 0.00259 0.6574 0.0
H1100 H 0.15557 0.97937 0.63748 0.0
H1101 H 0.24466 0.03585 0.58831 0.0
H1102 H 0.26971 0.01207 0.58908 0.0
H1103 H 0.26161 0.03009 0.61749 0.0
C1104 C 0.15029 0.27924 0.27141 0.0
C1105 C 0.14291 0.30141 0.28474 0.0
C1106 C 0.16077 0.25813 0.28444 0.0
C1107 C 0.16324 0.25907 0.31148 0.0
C1108 C 0.15527 0.28123 0.32509 0.0
C1109 C 0.14551 0.30235 0.31146 0.0
C1110 C 0.16975 0.2351 0.26922 0.0
C1111 C 0.15725 0.28269 0.35397 0.0
C1112 C 0.17043 0.19514 0.3455 0.0
C1113 C 0.19639 0.19419 0.35026 0.0
C1114 C 0.15924 0.21651 0.33348 0.0
C1115 C 0.17458 0.23697 0.32544 0.0
C1116 C 0.20086 0.23603 0.33014 0.0
C1117 C 0.21142 0.21474 0.34284 0.0
C1118 C 0.13108 0.21711 0.32918 0.0
C1119 C 0.2179 0.25718 0.32118 0.0
H1120 H 0.14867 0.27871 0.25066 0.0
H1121 H 0.13983 0.31957 0.3217 0.0
H1122 H 0.19021 0.2317 0.27249 0.0
H1123 H 0.15984 0.21773 0.27578 0.0
H1124 H 0.16656 0.23752 0.24826 0.0
H1125 H 0.14912 0.30085 0.36172 0.0
H1126 H 0.14732 0.26638 0.36291 0.0
H1127 H 0.17732 0.28117 0.35982 0.0
H1128 H 0.15885 0.17921 0.3513 0.0
H1129 H 0.23159 0.21382 0.34623 0.0
H1130 H 0.12703 0.21746 0.30829 0.0
H1131 H 0.12264 0.23481 0.33756 0.0
H1132 H 0.12169 0.20028 0.33782 0.0
H1133 H 0.21665 0.25923 0.3 0.0
H1134 H 0.23794 0.25351 0.32643 0.0
H1135 H 0.2117 0.27571 0.32966 0.0
C1136 C 0.28882 0.71437 0.81738 0.0
C1137 C 0.28438 0.74081 0.82017 0.0
C1138 C 0.27145 0.69893 0.80453 0.0
C1139 C 0.2493 0.71027 0.7941 0.0
C1140 C 0.24437 0.73676 0.79751 0.0
C1141 C 0.2619 0.75165 0.81055 0.0
C1142 C 0.27718 0.6707 0.8014 0.0
C1143 C 0.22104 0.74964 0.78648 0.0
C1144 C 0.21673 0.68401 0.73554 0.0
C1145 C 0.19452 0.67425 0.74624 0.0
C1146 C 0.23542 0.69449 0.7511 0.0
C1147 C 0.23192 0.69512 0.77804 0.0
C1148 C 0.21034 0.6839 0.78911 0.0
C1149 C 0.19183 0.67364 0.77306 0.0
C1150 C 0.25824 0.70621 0.73859 0.0
C1151 C 0.20606 0.68408 0.81778 0.0
H1152 H 0.30607 0.70578 0.82479 0.0
H1153 H 0.25821 0.77203 0.81254 0.0
H1154 H 0.26066 0.65926 0.80718 0.0
H1155 H 0.28111 0.66644 0.78089 0.0
H1156 H 0.29375 0.66435 0.81293 0.0
H1157 H 0.21935 0.77014 0.79199 0.0
H1158 H 0.22153 0.74843 0.76521 0.0
H1159 H 0.20387 0.73968 0.79309 0.0
H1160 H 0.21912 0.68452 0.71487 0.0
H1161 H 0.17484 0.66601 0.78155 0.0
H1162 H 0.27577 0.6979 0.74696 0.0
H1163 H 0.25832 0.72712 0.74238 0.0
H1164 H 0.25866 0.70319 0.71747 0.0
H1165 H 0.2234 0.67773 0.82803 0.0
H1166 H 0.1903 0.67154 0.82357 0.0
H1167 H 0.20152 0.7039 0.82414 0.0
C1168 C 0.8509 0.68815 0.32045 0.0
C1169 C 0.85363 0.69166 0.29393 0.0
C1170 C 0.83984 0.70732 0.33579 0.0
C1171 C 0.83091 0.73021 0.32412 0.0
C1172 C 0.83317 0.73362 0.29724 0.0
C1173 C 0.8448 0.71436 0.28247 0.0
C1174 C 0.83793 0.7032 0.36444 0.0
C1175 C 0.82328 0.75757 0.28409 0.0
C1176 C 0.78284 0.77219 0.3587 0.0
C1177 C 0.79788 0.79241 0.36682 0.0
C1178 C 0.79341 0.7515 0.34508 0.0
C1179 C 0.81965 0.75092 0.34005 0.0
C1180 C 0.83505 0.77079 0.34919 0.0
C1181 C 0.82389 0.7915 0.36224 0.0
C1182 C 0.77636 0.7309 0.33512 0.0
C1183 C 0.86318 0.77055 0.34453 0.0
H1184 H 0.8577 0.67052 0.32927 0.0
H1185 H 0.84657 0.7169 0.26187 0.0
H1186 H 0.84826 0.71841 0.37465 0.0
H1187 H 0.81793 0.7046 0.37065 0.0
H1188 H 0.84577 0.68426 0.37047 0.0
H1189 H 0.82563 0.75674 0.26289 0.0
H1190 H 0.80296 0.76051 0.28854 0.0
H1191 H 0.83334 0.77453 0.29138 0.0
H1192 H 0.76264 0.77308 0.36197 0.0
H1193 H 0.83547 0.80719 0.36857 0.0
H1194 H 0.7834 0.71172 0.34122 0.0
H1195 H 0.7764 0.73118 0.31381 0.0
H1196 H 0.7566 0.73346 0.34193 0.0
H1197 H 0.87168 0.75211 0.3511 0.0
H1198 H 0.87267 0.78645 0.35459 0.0
H1199 H 0.86703 0.77226 0.32365 0.0
C1200 C 0.79403 0.33601 0.76405 0.0
C1201 C 0.79167 0.33293 0.7374 0.0
C1202 C 0.77572 0.32657 0.78094 0.0
C1203 C 0.75469 0.31363 0.77091 0.0
C1204 C 0.75134 0.312 0.74402 0.0
C1205 C 0.76982 0.32175 0.72758 0.0
C1206 C 0.77979 0.32887 0.80952 0.0
C1207 C 0.72916 0.29832 0.73257 0.0
C1208 C 0.72787 0.25789 0.8078 0.0
C1209 C 0.70484 0.26811 0.81684 0.0
C1210 C 0.74452 0.2728 0.7935 0.0
C1211 C 0.73816 0.29869 0.78821 0.0
C1212 C 0.71548 0.30951 0.79806 0.0
C1213 C 0.699 0.29405 0.81222 0.0
C1214 C 0.7685 0.26049 0.78319 0.0
C1215 C 0.7082 0.3371 0.79288 0.0
H1216 H 0.81072 0.34482 0.77183 0.0
H1217 H 0.76772 0.31931 0.70704 0.0
H1218 H 0.76206 0.33484 0.81935 0.0
H1219 H 0.78557 0.30992 0.81743 0.0
H1220 H 0.79468 0.34284 0.81417 0.0
H1221 H 0.72804 0.30084 0.7114 0.0
H1222 H 0.73082 0.27752 0.73682 0.0
H1223 H 0.71126 0.30539 0.74128 0.0
H1224 H 0.73265 0.23792 0.81124 0.0
H1225 H 0.68131 0.30216 0.81914 0.0
H1226 H 0.78509 0.2718 0.78893 0.0
H1227 H 0.768 0.26024 0.76188 0.0
H1228 H 0.77127 0.24052 0.79014 0.0
H1229 H 0.7241 0.34984 0.79746 0.0
H1230 H 0.6914 0.34335 0.80419 0.0
H1231 H 0.70391 0.33962 0.77218 0.0
C1232 C 0.23224 0.79574 0.67594 0.0
C1233 C 0.22476 0.81752 0.66185 0.0
C1234 C 0.21484 0.77699 0.68279 0.0
C1235 C 0.18933 0.78003 0.67531 0.0
C1236 C 0.18154 0.80207 0.66138 0.0
C1237 C 0.19934 0.82061 0.65487 0.0
C1238 C 0.22381 0.75383 0.69788 0.0
C1239 C 0.15444 0.80596 0.65319 0.0
C1240 C 0.15064 0.71952 0.67391 0.0
C1241 C 0.1384 0.72075 0.69776 0.0
C1242 C 0.16682 0.73905 0.66601 0.0
C1243 C 0.17078 0.76022 0.6824 0.0
C1244 C 0.15784 0.76192 0.70613 0.0
C1245 C 0.14175 0.7422 0.71349 0.0
C1246 C 0.18033 0.73662 0.64055 0.0
C1247 C 0.16174 0.78408 0.72423 0.0
H1248 H 0.25179 0.79325 0.68161 0.0
H1249 H 0.19338 0.83732 0.64394 0.0
H1250 H 0.21292 0.7522 0.71601 0.0
H1251 H 0.22054 0.73614 0.68669 0.0
H1252 H 0.24419 0.75466 0.70266 0.0
H1253 H 0.15142 0.82417 0.64249 0.0
H1254 H 0.14863 0.78984 0.64081 0.0
H1255 H 0.14191 0.80604 0.67029 0.0
H1256 H 0.14814 0.70296 0.66171 0.0
H1257 H 0.13239 0.74327 0.732 0.0
H1258 H 0.20095 0.73464 0.64383 0.0
H1259 H 0.17717 0.75417 0.62886 0.0
H1260 H 0.17403 0.71981 0.62937 0.0
H1261 H 0.18149 0.78373 0.73124 0.0
H1262 H 0.1489 0.78345 0.74111 0.0
H1263 H 0.15864 0.80255 0.71405 0.0
C1264 C 0.70448 0.71124 0.16453 0.0
C1265 C 0.7081 0.73781 0.16498 0.0
C1266 C 0.72186 0.69432 0.17613 0.0
C1267 C 0.74334 0.70421 0.18844 0.0
C1268 C 0.74768 0.73088 0.18802 0.0
C1269 C 0.73002 0.74735 0.1763 0.0
C1270 C 0.71664 0.66598 0.17621 0.0
C1271 C 0.77042 0.74215 0.20095 0.0
C1272 C 0.77345 0.66879 0.24432 0.0
C1273 C 0.7955 0.6586 0.23303 0.0
C1274 C 0.75591 0.68298 0.22979 0.0
C1275 C 0.76044 0.687 0.2033 0.0
C1276 C 0.78203 0.67585 0.19151 0.0
C1277 C 0.79932 0.66179 0.20651 0.0
C1278 C 0.73307 0.69461 0.24305 0.0
C1279 C 0.78743 0.67974 0.16329 0.0
H1280 H 0.68764 0.70365 0.15582 0.0
H1281 H 0.733 0.76783 0.17686 0.0
H1282 H 0.73347 0.65497 0.1695 0.0
H1283 H 0.71253 0.65961 0.1961 0.0
H1284 H 0.70036 0.66115 0.16384 0.0
H1285 H 0.7721 0.76299 0.19709 0.0
H1286 H 0.76906 0.73926 0.22203 0.0
H1287 H 0.78794 0.73227 0.19434 0.0
H1288 H 0.77028 0.66651 0.26476 0.0
H1289 H 0.81625 0.65399 0.19756 0.0
H1290 H 0.71561 0.68945 0.23272 0.0
H1291 H 0.73424 0.71581 0.24274 0.0
H1292 H 0.73141 0.68825 0.26335 0.0
H1293 H 0.77071 0.67481 0.15165 0.0
H1294 H 0.80383 0.66801 0.15659 0.0
H1295 H 0.79143 0.70022 0.15963 0.0
C1296 C 0.74976 0.20579 0.66579 0.0
C1297 C 0.75947 0.18294 0.65519 0.0
C1298 C 0.76579 0.22579 0.67258 0.0
C1299 C 0.79209 0.22288 0.66855 0.0
C1300 C 0.80198 0.19999 0.65773 0.0
C1301 C 0.78557 0.18029 0.65122 0.0
C1302 C 0.75462 0.2499 0.68431 0.0
C1303 C 0.82996 0.19616 0.65335 0.0
C1304 C 0.83315 0.28174 0.66651 0.0
C1305 C 0.84336 0.28155 0.6913 0.0
C1306 C 0.81626 0.26281 0.65884 0.0
C1307 C 0.80946 0.24339 0.67644 0.0
C1308 C 0.8197 0.24316 0.7015 0.0
C1309 C 0.83661 0.26218 0.70858 0.0
C1310 C 0.8056 0.26366 0.63199 0.0
C1311 C 0.81267 0.22292 0.7209 0.0
H1312 H 0.72965 0.20799 0.66909 0.0
H1313 H 0.79327 0.16276 0.64303 0.0
H1314 H 0.76277 0.25303 0.70364 0.0
H1315 H 0.75947 0.26674 0.67237 0.0
H1316 H 0.73377 0.24913 0.6862 0.0
H1317 H 0.83457 0.17746 0.64418 0.0
H1318 H 0.83724 0.2117 0.64096 0.0
H1319 H 0.84009 0.19715 0.67194 0.0
H1320 H 0.83817 0.2968 0.65318 0.0
H1321 H 0.84422 0.26208 0.72788 0.0
H1322 H 0.78471 0.26503 0.63284 0.0
H1323 H 0.81059 0.24569 0.62169 0.0
H1324 H 0.81269 0.28012 0.62069 0.0
H1325 H 0.79199 0.22339 0.72421 0.0
H1326 H 0.82225 0.22555 0.73964 0.0
H1327 H 0.81771 0.20362 0.7134 0.0
C1328 C 0.20369 0.32251 0.20076 0.0
C1329 C 0.20727 0.32572 0.22727 0.0
C1330 C 0.22077 0.30781 0.18602 0.0
C1331 C 0.24189 0.29606 0.19809 0.0
C1332 C 0.24586 0.29958 0.2247 0.0
C1333 C 0.22855 0.31437 0.23893 0.0
C1334 C 0.21592 0.30431 0.1577 0.0
C1335 C 0.26815 0.28728 0.23828 0.0
C1336 C 0.27452 0.23686 0.17106 0.0
C1337 C 0.29678 0.24708 0.16095 0.0
C1338 C 0.25589 0.25276 0.18212 0.0
C1339 C 0.25965 0.2795 0.18321 0.0
C1340 C 0.28148 0.29007 0.17199 0.0
C1341 C 0.29977 0.27374 0.16097 0.0
C1342 C 0.23281 0.24076 0.19382 0.0
C1343 C 0.28613 0.31851 0.17279 0.0
H1344 H 0.18729 0.33109 0.19155 0.0
H1345 H 0.23152 0.3166 0.25939 0.0
H1346 H 0.23264 0.31013 0.14638 0.0
H1347 H 0.21275 0.28378 0.15358 0.0
H1348 H 0.19924 0.3156 0.151 0.0
H1349 H 0.26894 0.29256 0.25891 0.0
H1350 H 0.26713 0.26612 0.23686 0.0
H1351 H 0.28599 0.29306 0.2289 0.0
H1352 H 0.27196 0.21631 0.17119 0.0
H1353 H 0.31684 0.28188 0.15316 0.0
H1354 H 0.21545 0.25121 0.1877 0.0
H1355 H 0.23383 0.24202 0.21506 0.0
H1356 H 0.23112 0.22028 0.18843 0.0
H1357 H 0.26936 0.32936 0.16575 0.0
H1358 H 0.30276 0.32394 0.16108 0.0
H1359 H 0.28939 0.32448 0.19294 0.0
C1360 C 0.34319 0.17035 0.20197 0.0
C1361 C 0.35241 0.19529 0.20359 0.0
C1362 C 0.32638 0.16102 0.22051 0.0
C1363 C 0.31851 0.17709 0.24099 0.0
C1364 C 0.32842 0.20199 0.24317 0.0
C1365 C 0.34535 0.21074 0.2245 0.0
C1366 C 0.31625 0.13434 0.21759 0.0
C1367 C 0.32028 0.21983 0.26456 0.0
C1368 C 0.25441 0.16586 0.27112 0.0
C1369 C 0.26089 0.15338 0.29417 0.0
C1370 C 0.27298 0.17354 0.25364 0.0
C1371 C 0.29871 0.16853 0.25922 0.0
C1372 C 0.30543 0.15582 0.28231 0.0
C1373 C 0.28644 0.14846 0.29956 0.0
C1374 C 0.26507 0.18733 0.22933 0.0
C1375 C 0.33268 0.1502 0.28888 0.0
H1376 H 0.34859 0.15835 0.18584 0.0
H1377 H 0.35228 0.2301 0.2258 0.0
H1378 H 0.31871 0.1234 0.23573 0.0
H1379 H 0.29573 0.13546 0.21353 0.0
H1380 H 0.32572 0.12358 0.20179 0.0
H1381 H 0.33133 0.23771 0.26477 0.0
H1382 H 0.30004 0.22507 0.26223 0.0
H1383 H 0.32234 0.21018 0.28345 0.0
H1384 H 0.23476 0.16997 0.26682 0.0
H1385 H 0.29166 0.13884 0.31728 0.0
H1386 H 0.27259 0.17703 0.21227 0.0
H1387 H 0.27306 0.20684 0.22902 0.0
H1388 H 0.24424 0.1891 0.22753 0.0
H1389 H 0.3417 0.13865 0.2734 0.0
H1390 H 0.33475 0.13967 0.30734 0.0
H1391 H 0.34313 0.16837 0.29022 0.0
C1392 C 0.34097 0.83309 0.7961 0.0
C1393 C 0.34351 0.80673 0.7917 0.0
C1394 C 0.33029 0.84928 0.77747 0.0
C1395 C 0.32143 0.8386 0.75433 0.0
C1396 C 0.32375 0.81191 0.74992 0.0
C1397 C 0.33511 0.79628 0.7686 0.0
C1398 C 0.32848 0.87772 0.78253 0.0
C1399 C 0.31393 0.79984 0.72564 0.0
C1400 C 0.27237 0.87347 0.71428 0.0
C1401 C 0.28699 0.88131 0.69337 0.0
C1402 C 0.28349 0.86016 0.73482 0.0
C1403 C 0.30982 0.85526 0.73451 0.0
C1404 C 0.32483 0.86464 0.71417 0.0
C1405 C 0.31313 0.87729 0.6936 0.0
C1406 C 0.26687 0.84995 0.75597 0.0
C1407 C 0.35306 0.86024 0.71354 0.0
H1408 H 0.34751 0.84107 0.81405 0.0
H1409 H 0.33678 0.7758 0.76545 0.0
H1410 H 0.33835 0.88831 0.7671 0.0
H1411 H 0.30845 0.88419 0.78229 0.0
H1412 H 0.33681 0.88298 0.80131 0.0
H1413 H 0.31659 0.77869 0.72556 0.0
H1414 H 0.29352 0.80437 0.72343 0.0
H1415 H 0.32374 0.80786 0.70867 0.0
H1416 H 0.25207 0.87633 0.71385 0.0
H1417 H 0.32434 0.88346 0.67734 0.0
H1418 H 0.27437 0.85524 0.77506 0.0
H1419 H 0.26674 0.82872 0.75505 0.0
H1420 H 0.24711 0.85723 0.75444 0.0
H1421 H 0.36154 0.8658 0.73213 0.0
H1422 H 0.36223 0.8712 0.69789 0.0
H1423 H 0.35731 0.83957 0.71062 0.0
C1424 C 0.71451 0.83858 0.30647 0.0
C1425 C 0.73999 0.83115 0.30448 0.0
C1426 C 0.69708 0.83176 0.28755 0.0
C1427 C 0.7053 0.81698 0.26626 0.0
C1428 C 0.73096 0.80934 0.26414 0.0
C1429 C 0.74801 0.81659 0.28323 0.0
C1430 C 0.66984 0.84021 0.2904 0.0
C1431 C 0.74037 0.79327 0.24186 0.0
C1432 C 0.65841 0.77702 0.22983 0.0
C1433 C 0.65462 0.79168 0.20752 0.0
C1434 C 0.67449 0.78529 0.24932 0.0
C1435 C 0.68697 0.80886 0.2465 0.0
C1436 C 0.68262 0.82415 0.22439 0.0
C1437 C 0.66646 0.81535 0.20512 0.0
C1438 C 0.67875 0.76839 0.27255 0.0
C1439 C 0.69562 0.8494 0.22076 0.0
H1440 H 0.70817 0.84988 0.32277 0.0
H1441 H 0.76762 0.81055 0.28164 0.0
H1442 H 0.66381 0.8514 0.27328 0.0
H1443 H 0.65763 0.8232 0.29157 0.0
H1444 H 0.6666 0.85212 0.3078 0.0
H1445 H 0.76101 0.78938 0.24282 0.0
H1446 H 0.73053 0.77469 0.24162 0.0
H1447 H 0.73606 0.80309 0.22343 0.0
H1448 H 0.64936 0.75866 0.23179 0.0
H1449 H 0.66361 0.82673 0.18791 0.0
H1450 H 0.67514 0.77939 0.29043 0.0
H1451 H 0.69872 0.76169 0.27304 0.0
H1452 H 0.66647 0.75137 0.27252 0.0
H1453 H 0.69214 0.86195 0.23761 0.0
H1454 H 0.68916 0.85963 0.20318 0.0
H1455 H 0.71631 0.84608 0.21935 0.0
C1456 C 0.67904 0.12557 0.69493 0.0
C1457 C 0.70496 0.1201 0.69597 0.0
C1458 C 0.66716 0.13991 0.71433 0.0
C1459 C 0.68173 0.14932 0.73486 0.0
C1460 C 0.7078 0.14328 0.73633 0.0
C1461 C 0.71909 0.12847 0.71693 0.0
C1462 C 0.63921 0.14564 0.71243 0.0
C1463 C 0.72398 0.1534 0.75776 0.0
C1464 C 0.65748 0.20923 0.76817 0.0
C1465 C 0.64821 0.1991 0.79115 0.0
C1466 C 0.66872 0.1932 0.74971 0.0
C1467 C 0.66992 0.16645 0.7542 0.0
C1468 C 0.6601 0.15613 0.77721 0.0
C1469 C 0.64967 0.1727 0.79565 0.0
C1470 C 0.67966 0.2049 0.72566 0.0
C1471 C 0.66064 0.12765 0.78235 0.0
H1472 H 0.66813 0.11904 0.6787 0.0
H1473 H 0.7392 0.12446 0.7176 0.0
H1474 H 0.62962 0.14041 0.73062 0.0
H1475 H 0.63601 0.16649 0.70942 0.0
H1476 H 0.63028 0.13519 0.69637 0.0
H1477 H 0.74373 0.14602 0.75668 0.0
H1478 H 0.72422 0.17464 0.75685 0.0
H1479 H 0.71595 0.14809 0.77669 0.0
H1480 H 0.65663 0.22975 0.76496 0.0
H1481 H 0.64241 0.16498 0.8135 0.0
H1482 H 0.67021 0.19711 0.70845 0.0
H1483 H 0.70001 0.19978 0.72407 0.0
H1484 H 0.6776 0.22611 0.72539 0.0
H1485 H 0.651 0.11746 0.76658 0.0
H1486 H 0.65137 0.12269 0.80082 0.0
H1487 H 0.68043 0.12043 0.78284 0.0
C1488 C 0.77275 0.75017 0.67434 0.0
C1489 C 0.78746 0.77176 0.66966 0.0
C1490 C 0.7809 0.73104 0.69148 0.0
C1491 C 0.80432 0.73359 0.70411 0.0
C1492 C 0.81942 0.75514 0.69914 0.0
C1493 C 0.8108 0.77397 0.68192 0.0
C1494 C 0.76427 0.70834 0.69641 0.0
C1495 C 0.84448 0.75851 0.71234 0.0
C1496 C 0.81588 0.69683 0.766 0.0
C1497 C 0.83085 0.67614 0.75735 0.0
C1498 C 0.80692 0.71561 0.74884 0.0
C1499 C 0.81317 0.71365 0.72246 0.0
C1500 C 0.82817 0.69283 0.71359 0.0
C1501 C 0.83682 0.67432 0.73113 0.0
C1502 C 0.79079 0.73754 0.75891 0.0
C1503 C 0.83509 0.69009 0.68555 0.0
H1504 H 0.75458 0.74849 0.66505 0.0
H1505 H 0.82219 0.79067 0.67841 0.0
H1506 H 0.77485 0.69026 0.69243 0.0
H1507 H 0.75857 0.70791 0.71692 0.0
H1508 H 0.74697 0.70886 0.68442 0.0
H1509 H 0.85403 0.77627 0.70615 0.0
H1510 H 0.84166 0.75923 0.73345 0.0
H1511 H 0.85714 0.74188 0.70822 0.0
H1512 H 0.81096 0.69827 0.78617 0.0
H1513 H 0.84832 0.6584 0.72422 0.0
H1514 H 0.77237 0.73817 0.74885 0.0
H1515 H 0.80013 0.756 0.75499 0.0
H1516 H 0.78724 0.73599 0.77989 0.0
H1517 H 0.81774 0.68935 0.67373 0.0
H1518 H 0.84669 0.67259 0.68173 0.0
H1519 H 0.84579 0.70702 0.6791 0.0
C1520 C 0.72243 0.26275 0.1649 0.0
C1521 C 0.70056 0.27659 0.15782 0.0
C1522 C 0.74291 0.2749 0.17626 0.0
C1523 C 0.74166 0.30162 0.18056 0.0
C1524 C 0.72023 0.31596 0.17238 0.0
C1525 C 0.69987 0.30326 0.16114 0.0
C1526 C 0.76536 0.25886 0.18487 0.0
C1527 C 0.71829 0.34451 0.17665 0.0
C1528 C 0.77951 0.32246 0.23803 0.0
C1529 C 0.80191 0.33092 0.22658 0.0
C1530 C 0.75941 0.31389 0.22317 0.0
C1531 C 0.76161 0.3138 0.19609 0.0
C1532 C 0.7837 0.32324 0.18428 0.0
C1533 C 0.80366 0.33164 0.19969 0.0
C1534 C 0.73629 0.30375 0.23658 0.0
C1535 C 0.78663 0.32347 0.15545 0.0
H1536 H 0.72333 0.24216 0.16236 0.0
H1537 H 0.68315 0.31416 0.15567 0.0
H1538 H 0.78312 0.26716 0.17757 0.0
H1539 H 0.76638 0.25882 0.20616 0.0
H1540 H 0.76431 0.23871 0.17821 0.0
H1541 H 0.70185 0.35329 0.16656 0.0
H1542 H 0.71632 0.34843 0.19751 0.0
H1543 H 0.73572 0.35395 0.16998 0.0
H1544 H 0.77784 0.32176 0.25877 0.0
H1545 H 0.82084 0.33816 0.19065 0.0
H1546 H 0.73545 0.2827 0.23387 0.0
H1547 H 0.71888 0.3123 0.22819 0.0
H1548 H 0.73638 0.30776 0.25753 0.0
H1549 H 0.78814 0.30351 0.14828 0.0
H1550 H 0.80367 0.33392 0.14919 0.0
H1551 H 0.76979 0.33248 0.14632 0.0
C1552 C 0.17317 0.29542 0.75913 0.0
C1553 C 0.15874 0.31672 0.75098 0.0
C1554 C 0.18248 0.27736 0.74144 0.0
C1555 C 0.17712 0.28063 0.71501 0.0
C1556 C 0.16286 0.30219 0.70661 0.0
C1557 C 0.15388 0.32001 0.72469 0.0
C1558 C 0.19785 0.25467 0.75105 0.0
C1559 C 0.1569 0.3063 0.67854 0.0
C1560 C 0.21764 0.2438 0.66708 0.0
C1561 C 0.20242 0.22276 0.66186 0.0
C1562 C 0.20957 0.26297 0.68421 0.0
C1563 C 0.1857 0.26101 0.69623 0.0
C1564 C 0.17005 0.24008 0.69058 0.0
C1565 C 0.17862 0.22119 0.67344 0.0
C1566 C 0.22681 0.28495 0.68993 0.0
C1567 C 0.14449 0.23734 0.70307 0.0
H1568 H 0.1773 0.29288 0.77937 0.0
H1569 H 0.14284 0.33642 0.71819 0.0
H1570 H 0.18799 0.23665 0.74656 0.0
H1571 H 0.21639 0.25377 0.74115 0.0
H1572 H 0.20115 0.25546 0.7721 0.0
H1573 H 0.14618 0.32444 0.67508 0.0
H1574 H 0.17461 0.30666 0.66715 0.0
H1575 H 0.14564 0.29014 0.67127 0.0
H1576 H 0.23616 0.24497 0.65833 0.0
H1577 H 0.16683 0.20491 0.66947 0.0
H1578 H 0.23241 0.28438 0.71044 0.0
H1579 H 0.2168 0.30349 0.6866 0.0
H1580 H 0.24418 0.28436 0.67794 0.0
H1581 H 0.1467 0.23575 0.72421 0.0
H1582 H 0.13439 0.22025 0.6961 0.0
H1583 H 0.13262 0.25462 0.69923 0.0
C1584 C 0.21776 0.65492 0.20047 0.0
C1585 C 0.1979 0.65279 0.18289 0.0
C1586 C 0.23867 0.66996 0.19498 0.0
C1587 C 0.23992 0.68291 0.17117 0.0
C1588 C 0.22013 0.68057 0.15313 0.0
C1589 C 0.19923 0.66556 0.15927 0.0
C1590 C 0.25924 0.67227 0.21485 0.0
C1591 C 0.22096 0.69414 0.12753 0.0
C1592 C 0.28367 0.73942 0.16706 0.0
C1593 C 0.30508 0.72827 0.15539 0.0
C1594 C 0.2622 0.72492 0.17213 0.0
C1595 C 0.26211 0.69874 0.1652 0.0
C1596 C 0.28361 0.68736 0.15346 0.0
C1597 C 0.30487 0.70224 0.14877 0.0
C1598 C 0.23967 0.73756 0.18505 0.0
C1599 C 0.28419 0.65942 0.14598 0.0
H1600 H 0.21676 0.64528 0.21889 0.0
H1601 H 0.18383 0.66407 0.14573 0.0
H1602 H 0.27756 0.66565 0.20667 0.0
H1603 H 0.26134 0.69262 0.2204 0.0
H1604 H 0.25533 0.66094 0.23245 0.0
H1605 H 0.20425 0.69001 0.11548 0.0
H1606 H 0.22182 0.71514 0.13055 0.0
H1607 H 0.23824 0.68828 0.11685 0.0
H1608 H 0.28372 0.75948 0.17239 0.0
H1609 H 0.32126 0.69348 0.13966 0.0
H1610 H 0.2353 0.72753 0.20329 0.0
H1611 H 0.22281 0.73611 0.17259 0.0
H1612 H 0.24283 0.75809 0.18933 0.0
H1613 H 0.28172 0.6473 0.1633 0.0
H1614 H 0.30215 0.65367 0.13639 0.0
H1615 H 0.26833 0.65537 0.13282 0.0
C1616 C 0.85096 0.28706 0.30262 0.0
C1617 C 0.8589 0.28584 0.27697 0.0
C1618 C 0.83372 0.26949 0.3124 0.0
C1619 C 0.82417 0.25036 0.29604 0.0
C1620 C 0.83293 0.24837 0.2704 0.0
C1621 C 0.85032 0.26613 0.26118 0.0
C1622 C 0.8249 0.27209 0.33989 0.0
C1623 C 0.82304 0.22829 0.25237 0.0
C1624 C 0.79116 0.19429 0.3269 0.0
C1625 C 0.7657 0.20176 0.32456 0.0
C1626 C 0.81042 0.20984 0.31752 0.0
C1627 C 0.80405 0.23334 0.30545 0.0
C1628 C 0.77843 0.24094 0.30282 0.0
C1629 C 0.75955 0.22508 0.31248 0.0
C1630 C 0.83756 0.20115 0.32055 0.0
C1631 C 0.77096 0.2658 0.28977 0.0
H1632 H 0.85762 0.30228 0.31487 0.0
H1633 H 0.85629 0.26524 0.24127 0.0
H1634 H 0.80455 0.27739 0.34026 0.0
H1635 H 0.8271 0.25353 0.35012 0.0
H1636 H 0.83544 0.28688 0.35054 0.0
H1637 H 0.83359 0.2277 0.23391 0.0
H1638 H 0.82418 0.20906 0.26144 0.0
H1639 H 0.80288 0.23243 0.24816 0.0
H1640 H 0.7961 0.17628 0.33613 0.0
H1641 H 0.73994 0.23086 0.31031 0.0
H1642 H 0.84799 0.21535 0.33205 0.0
H1643 H 0.84686 0.19999 0.30146 0.0
H1644 H 0.83932 0.18216 0.33009 0.0
H1645 H 0.77962 0.28216 0.29983 0.0
H1646 H 0.75019 0.26893 0.28937 0.0
H1647 H 0.77811 0.26592 0.26972 0.0
C1648 C 0.19142 0.36864 0.83667 0.0
C1649 C 0.19134 0.37599 0.8108 0.0
C1650 C 0.21243 0.35596 0.84736 0.0
C1651 C 0.23353 0.35012 0.83158 0.0
C1652 C 0.23349 0.35744 0.8054 0.0
C1653 C 0.21246 0.37056 0.79539 0.0
C1654 C 0.21204 0.34871 0.87544 0.0
C1655 C 0.25544 0.35101 0.78787 0.0
C1656 C 0.29781 0.33727 0.86075 0.0
C1657 C 0.29892 0.31048 0.86078 0.0
C1658 C 0.27626 0.35043 0.85199 0.0
C1659 C 0.25575 0.33638 0.84238 0.0
C1660 C 0.25685 0.30927 0.84228 0.0
C1661 C 0.27837 0.2966 0.85186 0.0
C1662 C 0.27554 0.37934 0.85276 0.0
C1663 C 0.23562 0.29369 0.83144 0.0
H1664 H 0.17502 0.37277 0.84854 0.0
H1665 H 0.21229 0.37589 0.77525 0.0
H1666 H 0.21373 0.3276 0.87751 0.0
H1667 H 0.22844 0.35709 0.88538 0.0
H1668 H 0.19447 0.35533 0.88523 0.0
H1669 H 0.25226 0.35781 0.76789 0.0
H1670 H 0.27289 0.35978 0.79525 0.0
H1671 H 0.25875 0.32997 0.78748 0.0
H1672 H 0.31377 0.34792 0.86774 0.0
H1673 H 0.27946 0.27584 0.85161 0.0
H1674 H 0.25851 0.38619 0.86329 0.0
H1675 H 0.27431 0.38711 0.83294 0.0
H1676 H 0.29249 0.3873 0.86214 0.0
H1677 H 0.21777 0.29828 0.84173 0.0
H1678 H 0.23943 0.27275 0.8329 0.0
H1679 H 0.23266 0.29868 0.81093 0.0
C1680 C 0.20703 0.79073 0.31414 0.0
C1681 C 0.23267 0.78386 0.31617 0.0
C1682 C 0.19037 0.77583 0.2998 0.0
C1683 C 0.19963 0.75366 0.28706 0.0
C1684 C 0.22529 0.7462 0.28964 0.0
C1685 C 0.24145 0.76132 0.30422 0.0
C1686 C 0.1631 0.78428 0.29753 0.0
C1687 C 0.23593 0.72278 0.27614 0.0
C1688 C 0.15736 0.70186 0.26119 0.0
C1689 C 0.15764 0.70732 0.23478 0.0
C1690 C 0.16993 0.71754 0.27872 0.0
C1691 C 0.18311 0.73908 0.26958 0.0
C1692 C 0.18237 0.74543 0.24317 0.0
C1693 C 0.1696 0.72953 0.22611 0.0
C1694 C 0.17024 0.71026 0.30679 0.0
C1695 C 0.19615 0.76831 0.2327 0.0
H1696 H 0.20002 0.80805 0.32334 0.0
H1697 H 0.26122 0.75583 0.30555 0.0
H1698 H 0.15908 0.79021 0.27746 0.0
H1699 H 0.15049 0.76815 0.30213 0.0
H1700 H 0.15837 0.80058 0.31046 0.0
H1701 H 0.25596 0.71882 0.28123 0.0
H1702 H 0.22471 0.7057 0.28108 0.0
H1703 H 0.2347 0.72548 0.25504 0.0
H1704 H 0.14815 0.6848 0.26812 0.0
H1705 H 0.16993 0.73401 0.20578 0.0
H1706 H 0.16559 0.72715 0.31892 0.0
H1707 H 0.18946 0.7035 0.31219 0.0
H1708 H 0.15673 0.69483 0.31124 0.0
H1709 H 0.19022 0.78591 0.24314 0.0
H1710 H 0.19272 0.7713 0.21185 0.0
H1711 H 0.21674 0.76566 0.23571 0.0
C1712 C 0.79422 0.61512 0.83737 0.0
C1713 C 0.79608 0.611 0.81088 0.0
C1714 C 0.77248 0.6265 0.84807 0.0
C1715 C 0.75251 0.63443 0.83173 0.0
C1716 C 0.75423 0.63007 0.80497 0.0
C1717 C 0.77593 0.61813 0.79488 0.0
C1718 C 0.7711 0.63054 0.87675 0.0
C1719 C 0.73356 0.63883 0.78689 0.0
C1720 C 0.68744 0.64787 0.85946 0.0
C1721 C 0.68785 0.67449 0.86244 0.0
C1722 C 0.70857 0.63446 0.84985 0.0
C1723 C 0.73023 0.64819 0.8425 0.0
C1724 C 0.73056 0.67515 0.84515 0.0
C1725 C 0.70943 0.68797 0.85543 0.0
C1726 C 0.70773 0.60567 0.84757 0.0
C1727 C 0.75308 0.69049 0.83683 0.0
H1728 H 0.80984 0.60961 0.84971 0.0
H1729 H 0.77748 0.61527 0.77432 0.0
H1730 H 0.77042 0.65134 0.88103 0.0
H1731 H 0.75355 0.62219 0.88456 0.0
H1732 H 0.78751 0.62179 0.88691 0.0
H1733 H 0.73752 0.63331 0.76667 0.0
H1734 H 0.71529 0.63057 0.79276 0.0
H1735 H 0.73133 0.65998 0.78782 0.0
H1736 H 0.6707 0.6375 0.8649 0.0
H1737 H 0.70957 0.70863 0.8574 0.0
H1738 H 0.72354 0.59677 0.8585 0.0
H1739 H 0.71013 0.59994 0.82719 0.0
H1740 H 0.6897 0.59783 0.85483 0.0
H1741 H 0.77004 0.68424 0.84776 0.0
H1742 H 0.75009 0.7114 0.83975 0.0
H1743 H 0.75714 0.68705 0.81619 0.0
C1744 C 0.7061 0.81205 0.71473 0.0
C1745 C 0.73195 0.81336 0.72025 0.0
C1746 C 0.68957 0.7992 0.73126 0.0
C1747 C 0.69914 0.78734 0.75377 0.0
C1748 C 0.72492 0.78972 0.76011 0.0
C1749 C 0.74098 0.80274 0.74334 0.0
C1750 C 0.66216 0.7971 0.7239 0.0
C1751 C 0.73587 0.77733 0.78395 0.0
C1752 C 0.65641 0.76345 0.80708 0.0
C1753 C 0.65627 0.73703 0.80211 0.0
C1754 C 0.66953 0.78029 0.79098 0.0
C1755 C 0.68289 0.77044 0.7695 0.0
C1756 C 0.68212 0.74396 0.76388 0.0
C1757 C 0.66878 0.72762 0.78018 0.0
C1758 C 0.66991 0.80843 0.79752 0.0
C1759 C 0.69625 0.73269 0.74119 0.0
H1760 H 0.69889 0.8202 0.697 0.0
H1761 H 0.76089 0.80357 0.74786 0.0
H1762 H 0.6582 0.77704 0.71844 0.0
H1763 H 0.64979 0.80201 0.74045 0.0
H1764 H 0.65709 0.80979 0.7075 0.0
H1765 H 0.75583 0.78258 0.78712 0.0
H1766 H 0.72467 0.78297 0.80111 0.0
H1767 H 0.73496 0.75618 0.78226 0.0
H1768 H 0.6468 0.77096 0.82393 0.0
H1769 H 0.66887 0.70727 0.77612 0.0
H1770 H 0.66481 0.82016 0.78046 0.0
H1771 H 0.68926 0.81377 0.80326 0.0
H1772 H 0.65676 0.81339 0.81346 0.0
H1773 H 0.69095 0.74302 0.7233 0.0
H1774 H 0.69249 0.712 0.73857 0.0
H1775 H 0.71684 0.73502 0.7439 0.0
C1776 C 0.66989 0.16028 0.29461 0.0
C1777 C 0.69503 0.1526 0.29071 0.0
C1778 C 0.65685 0.17451 0.27594 0.0
C1779 C 0.66951 0.18155 0.25312 0.0
C1780 C 0.69492 0.17381 0.24906 0.0
C1781 C 0.70735 0.15914 0.26786 0.0
C1782 C 0.62963 0.18214 0.28068 0.0
C1783 C 0.70911 0.18142 0.2251 0.0
C1784 C 0.63254 0.19967 0.19365 0.0
C1785 C 0.63305 0.22643 0.19467 0.0
C1786 C 0.6437 0.18479 0.21304 0.0
C1787 C 0.65618 0.19707 0.23345 0.0
C1788 C 0.65651 0.22415 0.2347 0.0
C1789 C 0.64461 0.23857 0.21537 0.0
C1790 C 0.64259 0.15595 0.2114 0.0
C1791 C 0.67017 0.23784 0.25593 0.0
H1792 H 0.66039 0.15517 0.31232 0.0
H1793 H 0.72691 0.15345 0.26501 0.0
H1794 H 0.62766 0.20332 0.28108 0.0
H1795 H 0.61767 0.1752 0.26478 0.0
H1796 H 0.62233 0.17438 0.29908 0.0
H1797 H 0.72885 0.17394 0.225 0.0
H1798 H 0.69936 0.17416 0.20783 0.0
H1799 H 0.70945 0.20261 0.22348 0.0
H1800 H 0.62355 0.19039 0.17755 0.0
H1801 H 0.6453 0.2593 0.21587 0.0
H1802 H 0.63482 0.14801 0.22949 0.0
H1803 H 0.6619 0.14779 0.20897 0.0
H1804 H 0.6308 0.14949 0.19511 0.0
H1805 H 0.66291 0.23171 0.27493 0.0
H1806 H 0.66812 0.259 0.2544 0.0
H1807 H 0.69056 0.23269 0.25529 0.0
C1808 C 0.2842 0.17965 0.70692 0.0
C1809 C 0.25821 0.17962 0.71216 0.0
C1810 C 0.30113 0.19139 0.72379 0.0
C1811 C 0.29182 0.20354 0.74628 0.0
C1812 C 0.26581 0.20251 0.75226 0.0
C1813 C 0.24939 0.19051 0.73523 0.0
C1814 C 0.32878 0.19196 0.71687 0.0
C1815 C 0.25502 0.21537 0.77594 0.0
C1816 C 0.33316 0.22552 0.8013 0.0
C1817 C 0.33411 0.25198 0.79661 0.0
C1818 C 0.32055 0.20917 0.78436 0.0
C1819 C 0.30854 0.21955 0.76233 0.0
C1820 C 0.31045 0.24601 0.75688 0.0
C1821 C 0.32324 0.26184 0.774 0.0
C1822 C 0.319 0.18103 0.79074 0.0
C1823 C 0.29781 0.25789 0.73364 0.0
H1824 H 0.29125 0.17128 0.68921 0.0
H1825 H 0.22938 0.19068 0.73958 0.0
H1826 H 0.3339 0.21172 0.71128 0.0
H1827 H 0.34054 0.18651 0.73367 0.0
H1828 H 0.3335 0.17891 0.70067 0.0
H1829 H 0.23482 0.21088 0.779 0.0
H1830 H 0.26578 0.2094 0.79325 0.0
H1831 H 0.25668 0.23645 0.77407 0.0
H1832 H 0.34152 0.21764 0.81863 0.0
H1833 H 0.32391 0.28221 0.77004 0.0
H1834 H 0.32371 0.16923 0.77363 0.0
H1835 H 0.29941 0.17648 0.79648 0.0
H1836 H 0.33186 0.17541 0.80667 0.0
H1837 H 0.3032 0.24722 0.71601 0.0
H1838 H 0.30278 0.27831 0.73102 0.0
H1839 H 0.27702 0.25674 0.7357 0.0
C1840 C 0.29296 0.83331 0.26812 0.0
C1841 C 0.30326 0.83994 0.29185 0.0
C1842 C 0.3079 0.82121 0.24938 0.0
C1843 C 0.33378 0.81632 0.25442 0.0
C1844 C 0.3444 0.82371 0.27809 0.0
C1845 C 0.32887 0.83517 0.29671 0.0
C1846 C 0.29588 0.81307 0.22448 0.0
C1847 C 0.37202 0.8192 0.28386 0.0
C1848 C 0.36473 0.76343 0.21546 0.0
C1849 C 0.37502 0.7774 0.19512 0.0
C1850 C 0.35172 0.77595 0.23536 0.0
C1851 C 0.34957 0.80301 0.23502 0.0
C1852 C 0.36125 0.81723 0.21529 0.0
C1853 C 0.37363 0.80419 0.19535 0.0
C1854 C 0.33911 0.76019 0.25592 0.0
C1855 C 0.35976 0.84613 0.21467 0.0
H1856 H 0.27304 0.83675 0.26458 0.0
H1857 H 0.33676 0.8404 0.31513 0.0
H1858 H 0.3056 0.82209 0.20797 0.0
H1859 H 0.29793 0.79201 0.22215 0.0
H1860 H 0.2755 0.81832 0.22361 0.0
H1861 H 0.37755 0.82734 0.30268 0.0
H1862 H 0.37637 0.79835 0.28403 0.0
H1863 H 0.38379 0.82788 0.2686 0.0
H1864 H 0.36557 0.74267 0.21507 0.0
H1865 H 0.38169 0.81492 0.17957 0.0
H1866 H 0.31833 0.76269 0.2545 0.0
H1867 H 0.34471 0.76684 0.27527 0.0
H1868 H 0.34386 0.73946 0.25424 0.0
H1869 H 0.34001 0.8525 0.21108 0.0
H1870 H 0.37197 0.85432 0.19946 0.0
H1871 H 0.36542 0.8541 0.2335 0.0
loop_
_geom_bond_atom_site_label_1
_geom_bond_atom_site_label_2
_geom_bond_distance
_geom_bond_site_symmetry_2
_ccdc_geom_bond_type
Co0 O1 2.216 . S
Co0 O2 2.091 . S
Co0 O4 2.004 . S
Co0 O10 2.021 . S
Co0 O12 2.137 . S
Co0 O13 2.244 . S
O1 Co0 2.216 . S
O1 C8 1.247 . S
O2 Co0 2.091 . S
O2 C8 1.261 . S
C3 O12 1.247 . S
C3 O13 1.272 . S
O4 Co0 2.004 . S
O4 C9 1.259 . S
Co5 O6 2.061 . S
Co5 O11 2.052 . S
Co5 O13 2.135 . S
O6 Co5 2.061 . S
O6 C9 1.235 . S
C7 O10 1.238 . S
C7 O11 1.241 . S
C8 O1 1.247 . S
C8 O2 1.261 . S
C9 O4 1.259 . S
C9 O6 1.235 . S
O10 Co0 2.021 . S
O10 C7 1.238 . S
O11 Co5 2.052 . S
O11 C7 1.241 . S
O12 Co0 2.137 . S
O12 C3 1.247 . S
O13 Co0 2.244 . S
O13 C3 1.272 . S
O13 Co5 2.135 . S
Co14 O15 2.216 . S
Co14 O16 2.091 . S
Co14 O18 2.004 . S
Co14 O24 2.021 . S
Co14 O26 2.137 . S
Co14 O27 2.244 . S
O15 Co14 2.216 . S
O15 C22 1.247 . S
O16 Co14 2.091 . S
O16 C22 1.261 . S
C17 O26 1.247 . S
C17 O27 1.272 . S
O18 Co14 2.004 . S
O18 C23 1.259 . S
Co19 O20 2.061 . S
Co19 O25 2.052 . S
Co19 O27 2.135 . S
O20 Co19 2.061 . S
O20 C23 1.235 . S
C21 O24 1.238 . S
C21 O25 1.241 . S
C22 O15 1.247 . S
C22 O16 1.261 . S
C23 O18 1.259 . S
C23 O20 1.235 . S
O24 Co14 2.021 . S
O24 C21 1.238 . S
O25 Co19 2.052 . S
O25 C21 1.241 . S
O26 Co14 2.137 . S
O26 C17 1.247 . S
O27 Co14 2.244 . S
O27 C17 1.272 . S
O27 Co19 2.135 . S
Co28 O29 2.216 . S
Co28 O30 2.091 . S
Co28 O32 2.004 . S
Co28 O38 2.021 . S
Co28 O40 2.137 . S
Co28 O41 2.244 . S
O29 Co28 2.216 . S
O29 C36 1.247 . S
O30 Co28 2.091 . S
O30 C36 1.261 . S
C31 O40 1.247 . S
C31 O41 1.272 . S
O32 Co28 2.004 . S
O32 C37 1.259 . S
Co33 O34 2.061 . S
Co33 O39 2.052 . S
Co33 O41 2.135 . S
O34 Co33 2.061 . S
O34 C37 1.235 . S
C35 O38 1.238 . S
C35 O39 1.241 . S
C36 O29 1.247 . S
C36 O30 1.261 . S
C37 O32 1.259 . S
C37 O34 1.235 . S
O38 Co28 2.021 . S
O38 C35 1.238 . S
O39 Co33 2.052 . S
O39 C35 1.241 . S
O40 Co28 2.137 . S
O40 C31 1.247 . S
O41 Co28 2.244 . S
O41 C31 1.272 . S
O41 Co33 2.135 . S
Co42 O43 2.216 . S
Co42 O44 2.091 . S
Co42 O46 2.004 . S
Co42 O52 2.021 . S
Co42 O54 2.137 . S
Co42 O55 2.244 . S
O43 Co42 2.216 . S
O43 C50 1.247 . S
O44 Co42 2.091 . S
O44 C50 1.261 . S
C45 O54 1.247 . S
C45 O55 1.272 . S
O46 Co42 2.004 . S
O46 C51 1.259 . S
Co47 O48 2.061 . S
Co47 O53 2.052 . S
Co47 O55 2.135 . S
O48 Co47 2.061 . S
O48 C51 1.235 . S
C49 O52 1.238 . S
C49 O53 1.241 . S
C50 O43 1.247 . S
C50 O44 1.261 . S
C51 O46 1.259 . S
C51 O48 1.235 . S
O52 Co42 2.021 . S
O52 C49 1.238 . S
O53 Co47 2.052 . S
O53 C49 1.241 . S
O54 Co42 2.137 . S
O54 C45 1.247 . S
O55 Co42 2.244 . S
O55 C45 1.272 . S
O55 Co47 2.135 . S
Co56 O57 2.216 . S
Co56 O58 2.091 . S
Co56 O60 2.004 . S
Co56 O66 2.021 . S
Co56 O68 2.137 . S
Co56 O69 2.244 . S
O57 Co56 2.216 . S
O57 C64 1.247 . S
O58 Co56 2.091 . S
O58 C64 1.261 . S
C59 O68 1.247 . S
C59 O69 1.272 . S
O60 Co56 2.004 . S
O60 C65 1.259 . S
Co61 O62 2.061 . S
Co61 O67 2.052 . S
Co61 O69 2.135 . S
O62 Co61 2.061 . S
O62 C65 1.235 . S
C63 O66 1.238 . S
C63 O67 1.241 . S
C64 O57 1.247 . S
C64 O58 1.261 . S
C65 O60 1.259 . S
C65 O62 1.235 . S
O66 Co56 2.021 . S
O66 C63 1.238 . S
O67 Co61 2.052 . S
O67 C63 1.241 . S
O68 Co56 2.137 . S
O68 C59 1.247 . S
O69 Co56 2.244 . S
O69 C59 1.272 . S
O69 Co61 2.135 . S
Co70 O71 2.216 . S
Co70 O72 2.091 . S
Co70 O74 2.004 . S
Co70 O80 2.021 . S
Co70 O82 2.137 . S
Co70 O83 2.244 . S
O71 Co70 2.216 . S
O71 C78 1.247 . S
O72 Co70 2.091 . S
O72 C78 1.261 . S
C73 O82 1.247 . S
C73 O83 1.272 . S
O74 Co70 2.004 . S
O74 C79 1.259 . S
Co75 O76 2.061 . S
Co75 O81 2.052 . S
Co75 O83 2.135 . S
O76 Co75 2.061 . S
O76 C79 1.235 . S
C77 O80 1.238 . S
C77 O81 1.241 . S
C78 O71 1.247 . S
C78 O72 1.261 . S
C79 O74 1.259 . S
C79 O76 1.235 . S
O80 Co70 2.021 . S
O80 C77 1.238 . S
O81 Co75 2.052 . S
O81 C77 1.241 . S
O82 Co70 2.137 . S
O82 C73 1.247 . S
O83 Co70 2.244 . S
O83 C73 1.272 . S
O83 Co75 2.135 . S
Co84 O85 2.216 . S
Co84 O86 2.091 . S
Co84 O88 2.004 . S
Co84 O94 2.021 . S
Co84 O96 2.137 . S
Co84 O97 2.244 . S
O85 Co84 2.216 . S
O85 C92 1.247 . S
O86 Co84 2.091 . S
O86 C92 1.261 . S
C87 O96 1.247 . S
C87 O97 1.272 . S
O88 Co84 2.004 . S
O88 C93 1.259 . S
Co89 O90 2.061 . S
Co89 O95 2.052 . S
Co89 O97 2.135 . S
O90 Co89 2.061 . S
O90 C93 1.235 . S
C91 O94 1.238 . S
C91 O95 1.241 . S
C92 O85 1.247 . S
C92 O86 1.261 . S
C93 O88 1.259 . S
C93 O90 1.235 . S
O94 Co84 2.021 . S
O94 C91 1.238 . S
O95 Co89 2.052 . S
O95 C91 1.241 . S
O96 Co84 2.137 . S
O96 C87 1.247 . S
O97 Co84 2.244 . S
O97 C87 1.272 . S
O97 Co89 2.135 . S
Co98 O99 2.216 . S
Co98 O100 2.091 . S
Co98 O102 2.004 . S
Co98 O108 2.021 . S
Co98 O110 2.137 . S
Co98 O111 2.244 . S
O99 Co98 2.216 . S
O99 C106 1.247 . S
O100 Co98 2.091 . S
O100 C106 1.261 . S
C101 O110 1.247 . S
C101 O111 1.272 . S
O102 Co98 2.004 . S
O102 C107 1.259 . S
Co103 O104 2.061 . S
Co103 O109 2.052 . S
Co103 O111 2.135 . S
O104 Co103 2.061 . S
O104 C107 1.235 . S
C105 O108 1.238 . S
C105 O109 1.241 . S
C106 O99 1.247 . S
C106 O100 1.261 . S
C107 O102 1.259 . S
C107 O104 1.235 . S
O108 Co98 2.021 . S
O108 C105 1.238 . S
O109 Co103 2.052 . S
O109 C105 1.241 . S
O110 Co98 2.137 . S
O110 C101 1.247 . S
O111 Co98 2.244 . S
O111 C101 1.272 . S
O111 Co103 2.135 . S
Co112 O113 2.216 . S
Co112 O114 2.091 . S
Co112 O116 2.004 . S
Co112 O122 2.021 . S
Co112 O124 2.137 . S
Co112 O125 2.244 . S
O113 Co112 2.216 . S
O113 C120 1.247 . S
O114 Co112 2.091 . S
O114 C120 1.261 . S
C115 O124 1.247 . S
C115 O125 1.272 . S
O116 Co112 2.004 . S
O116 C121 1.259 . S
Co117 O118 2.061 . S
Co117 O123 2.052 . S
Co117 O125 2.135 . S
O118 Co117 2.061 . S
O118 C121 1.235 . S
C119 O122 1.238 . S
C119 O123 1.241 . S
C120 O113 1.247 . S
C120 O114 1.261 . S
C121 O116 1.259 . S
C121 O118 1.235 . S
O122 Co112 2.021 . S
O122 C119 1.238 . S
O123 Co117 2.052 . S
O123 C119 1.241 . S
O124 Co112 2.137 . S
O124 C115 1.247 . S
O125 Co112 2.244 . S
O125 C115 1.272 . S
O125 Co117 2.135 . S
Co126 O127 2.216 . S
Co126 O128 2.091 . S
Co126 O130 2.004 . S
Co126 O136 2.021 . S
Co126 O138 2.137 . S
Co126 O139 2.244 . S
O127 Co126 2.216 . S
O127 C134 1.247 . S
O128 Co126 2.091 . S
O128 C134 1.261 . S
C129 O138 1.247 . S
C129 O139 1.272 . S
O130 Co126 2.004 . S
O130 C135 1.259 . S
Co131 O132 2.061 . S
Co131 O137 2.052 . S
Co131 O139 2.135 . S
O132 Co131 2.061 . S
O132 C135 1.235 . S
C133 O136 1.238 . S
C133 O137 1.241 . S
C134 O127 1.247 . S
C134 O128 1.261 . S
C135 O130 1.259 . S
C135 O132 1.235 . S
O136 Co126 2.021 . S
O136 C133 1.238 . S
O137 Co131 2.052 . S
O137 C133 1.241 . S
O138 Co126 2.137 . S
O138 C129 1.247 . S
O139 Co126 2.244 . S
O139 C129 1.272 . S
O139 Co131 2.135 . S
Co140 O141 2.216 . S
Co140 O142 2.091 . S
Co140 O144 2.004 . S
Co140 O150 2.021 . S
Co140 O152 2.137 . S
Co140 O153 2.244 . S
O141 Co140 2.216 . S
O141 C148 1.247 . S
O142 Co140 2.091 . S
O142 C148 1.261 . S
C143 O152 1.247 . S
C143 O153 1.272 . S
O144 Co140 2.004 . S
O144 C149 1.259 . S
Co145 O146 2.061 . S
Co145 O151 2.052 . S
Co145 O153 2.135 . S
O146 Co145 2.061 . S
O146 C149 1.235 . S
C147 O150 1.238 . S
C147 O151 1.241 . S
C148 O141 1.247 . S
C148 O142 1.261 . S
C149 O144 1.259 . S
C149 O146 1.235 . S
O150 Co140 2.021 . S
O150 C147 1.238 . S
O151 Co145 2.052 . S
O151 C147 1.241 . S
O152 Co140 2.137 . S
O152 C143 1.247 . S
O153 Co140 2.244 . S
O153 C143 1.272 . S
O153 Co145 2.135 . S
Co154 O155 2.216 . S
Co154 O156 2.091 . S
Co154 O158 2.004 . S
Co154 O164 2.021 . S
Co154 O166 2.137 . S
Co154 O167 2.244 . S
O155 Co154 2.216 . S
O155 C162 1.247 . S
O156 Co154 2.091 . S
O156 C162 1.261 . S
C157 O166 1.247 . S
C157 O167 1.272 . S
O158 Co154 2.004 . S
O158 C163 1.259 . S
Co159 O160 2.061 . S
Co159 O165 2.052 . S
Co159 O167 2.135 . S
O160 Co159 2.061 . S
O160 C163 1.235 . S
C161 O164 1.238 . S
C161 O165 1.241 . S
C162 O155 1.247 . S
C162 O156 1.261 . S
C163 O158 1.259 . S
C163 O160 1.235 . S
O164 Co154 2.021 . S
O164 C161 1.238 . S
O165 Co159 2.052 . S
O165 C161 1.241 . S
O166 Co154 2.137 . S
O166 C157 1.247 . S
O167 Co154 2.244 . S
O167 C157 1.272 . S
O167 Co159 2.135 . S
Co168 O169 2.216 . S
Co168 O170 2.091 . S
Co168 O172 2.004 . S
Co168 O178 2.021 . S
Co168 O180 2.137 . S
Co168 O181 2.244 . S
O169 Co168 2.216 . S
O169 C176 1.247 . S
O170 Co168 2.091 . S
O170 C176 1.261 . S
C171 O180 1.247 . S
C171 O181 1.272 . S
O172 Co168 2.004 . S
O172 C177 1.259 . S
Co173 O174 2.061 . S
Co173 O179 2.052 . S
Co173 O181 2.135 . S
O174 Co173 2.061 . S
O174 C177 1.235 . S
C175 O178 1.238 . S
C175 O179 1.241 . S
C176 O169 1.247 . S
C176 O170 1.261 . S
C177 O172 1.259 . S
C177 O174 1.235 . S
O178 Co168 2.021 . S
O178 C175 1.238 . S
O179 Co173 2.052 . S
O179 C175 1.241 . S
O180 Co168 2.137 . S
O180 C171 1.247 . S
O181 Co168 2.244 . S
O181 C171 1.272 . S
O181 Co173 2.135 . S
Co182 O183 2.216 . S
Co182 O184 2.091 . S
Co182 O186 2.004 . S
Co182 O192 2.021 . S
Co182 O194 2.137 . S
Co182 O195 2.244 . S
O183 Co182 2.216 . S
O183 C190 1.247 . S
O184 Co182 2.091 . S
O184 C190 1.261 . S
C185 O194 1.247 . S
C185 O195 1.272 . S
O186 Co182 2.004 . S
O186 C191 1.259 . S
Co187 O188 2.061 . S
Co187 O193 2.052 . S
Co187 O195 2.135 . S
O188 Co187 2.061 . S
O188 C191 1.235 . S
C189 O192 1.238 . S
C189 O193 1.241 . S
C190 O183 1.247 . S
C190 O184 1.261 . S
C191 O186 1.259 . S
C191 O188 1.235 . S
O192 Co182 2.021 . S
O192 C189 1.238 . S
O193 Co187 2.052 . S
O193 C189 1.241 . S
O194 Co182 2.137 . S
O194 C185 1.247 . S
O195 Co182 2.244 . S
O195 C185 1.272 . S
O195 Co187 2.135 . S
Co196 O197 2.216 . S
Co196 O198 2.091 . S
Co196 O200 2.004 . S
Co196 O206 2.021 . S
Co196 O208 2.137 . S
Co196 O209 2.244 . S
O197 Co196 2.216 . S
O197 C204 1.247 . S
O198 Co196 2.091 . S
O198 C204 1.261 . S
C199 O208 1.247 . S
C199 O209 1.272 . S
O200 Co196 2.004 . S
O200 C205 1.259 . S
Co201 O202 2.061 . S
Co201 O207 2.052 . S
Co201 O209 2.135 . S
O202 Co201 2.061 . S
O202 C205 1.235 . S
C203 O206 1.238 . S
C203 O207 1.241 . S
C204 O197 1.247 . S
C204 O198 1.261 . S
C205 O200 1.259 . S
C205 O202 1.235 . S
O206 Co196 2.021 . S
O206 C203 1.238 . S
O207 Co201 2.052 . S
O207 C203 1.241 . S
O208 Co196 2.137 . S
O208 C199 1.247 . S
O209 Co196 2.244 . S
O209 C199 1.272 . S
O209 Co201 2.135 . S
Co210 O211 2.216 . S
Co210 O212 2.091 . S
Co210 O214 2.004 . S
Co210 O220 2.021 . S
Co210 O222 2.137 . S
Co210 O223 2.244 . S
O211 Co210 2.216 . S
O211 C218 1.247 . S
O212 Co210 2.091 . S
O212 C218 1.261 . S
C213 O222 1.247 . S
C213 O223 1.272 . S
O214 Co210 2.004 . S
O214 C219 1.259 . S
Co215 O216 2.061 . S
Co215 O221 2.052 . S
Co215 O223 2.135 . S
O216 Co215 2.061 . S
O216 C219 1.235 . S
C217 O220 1.238 . S
C217 O221 1.241 . S
C218 O211 1.247 . S
C218 O212 1.261 . S
C219 O214 1.259 . S
C219 O216 1.235 . S
O220 Co210 2.021 . S
O220 C217 1.238 . S
O221 Co215 2.052 . S
O221 C217 1.241 . S
O222 Co210 2.137 . S
O222 C213 1.247 . S
O223 Co210 2.244 . S
O223 C213 1.272 . S
O223 Co215 2.135 . S
Co224 O225 2.216 . S
Co224 O226 2.091 . S
Co224 O228 2.004 . S
Co224 O234 2.021 . S
Co224 O236 2.137 . S
Co224 O237 2.244 . S
O225 Co224 2.216 . S
O225 C232 1.247 . S
O226 Co224 2.091 . S
O226 C232 1.261 . S
C227 O236 1.247 . S
C227 O237 1.272 . S
O228 Co224 2.004 . S
O228 C233 1.259 . S
Co229 O230 2.061 . S
Co229 O235 2.052 . S
Co229 O237 2.135 . S
O230 Co229 2.061 . S
O230 C233 1.235 . S
C231 O234 1.238 . S
C231 O235 1.241 . S
C232 O225 1.247 . S
C232 O226 1.261 . S
C233 O228 1.259 . S
C233 O230 1.235 . S
O234 Co224 2.021 . S
O234 C231 1.238 . S
O235 Co229 2.052 . S
O235 C231 1.241 . S
O236 Co224 2.137 . S
O236 C227 1.247 . S
O237 Co224 2.244 . S
O237 C227 1.272 . S
O237 Co229 2.135 . S
Co238 O239 2.216 . S
Co238 O240 2.091 . S
Co238 O242 2.004 . S
Co238 O248 2.021 . S
Co238 O250 2.137 . S
Co238 O251 2.244 . S
O239 Co238 2.216 . S
O239 C246 1.247 . S
O240 Co238 2.091 . S
O240 C246 1.261 . S
C241 O250 1.247 . S
C241 O251 1.272 . S
O242 Co238 2.004 . S
O242 C247 1.259 . S
Co243 O244 2.061 . S
Co243 O249 2.052 . S
Co243 O251 2.135 . S
O244 Co243 2.061 . S
O244 C247 1.235 . S
C245 O248 1.238 . S
C245 O249 1.241 . S
C246 O239 1.247 . S
C246 O240 1.261 . S
C247 O242 1.259 . S
C247 O244 1.235 . S
O248 Co238 2.021 . S
O248 C245 1.238 . S
O249 Co243 2.052 . S
O249 C245 1.241 . S
O250 Co238 2.137 . S
O250 C241 1.247 . S
O251 Co238 2.244 . S
O251 C241 1.272 . S
O251 Co243 2.135 . S
Co252 O253 2.216 . S
Co252 O254 2.091 . S
Co252 O256 2.004 . S
Co252 O262 2.021 . S
Co252 O264 2.137 . S
Co252 O265 2.244 . S
O253 Co252 2.216 . S
O253 C260 1.247 . S
O254 Co252 2.091 . S
O254 C260 1.261 . S
C255 O264 1.247 . S
C255 O265 1.272 . S
O256 Co252 2.004 . S
O256 C261 1.259 . S
Co257 O258 2.061 . S
Co257 O263 2.052 . S
Co257 O265 2.135 . S
O258 Co257 2.061 . S
O258 C261 1.235 . S
C259 O262 1.238 . S
C259 O263 1.241 . S
C260 O253 1.247 . S
C260 O254 1.261 . S
C261 O256 1.259 . S
C261 O258 1.235 . S
O262 Co252 2.021 . S
O262 C259 1.238 . S
O263 Co257 2.052 . S
O263 C259 1.241 . S
O264 Co252 2.137 . S
O264 C255 1.247 . S
O265 Co252 2.244 . S
O265 C255 1.272 . S
O265 Co257 2.135 . S
Co266 O267 2.216 . S
Co266 O268 2.091 . S
Co266 O270 2.004 . S
Co266 O276 2.021 . S
Co266 O278 2.137 . S
Co266 O279 2.244 . S
O267 Co266 2.216 . S
O267 C274 1.247 . S
O268 Co266 2.091 . S
O268 C274 1.261 . S
C269 O278 1.247 . S
C269 O279 1.272 . S
O270 Co266 2.004 . S
O270 C275 1.259 . S
Co271 O272 2.061 . S
Co271 O277 2.052 . S
Co271 O279 2.135 . S
O272 Co271 2.061 . S
O272 C275 1.235 . S
C273 O276 1.238 . S
C273 O277 1.241 . S
C274 O267 1.247 . S
C274 O268 1.261 . S
C275 O270 1.259 . S
C275 O272 1.235 . S
O276 Co266 2.021 . S
O276 C273 1.238 . S
O277 Co271 2.052 . S
O277 C273 1.241 . S
O278 Co266 2.137 . S
O278 C269 1.247 . S
O279 Co266 2.244 . S
O279 C269 1.272 . S
O279 Co271 2.135 . S
Co280 O281 2.216 . S
Co280 O282 2.091 . S
Co280 O284 2.004 . S
Co280 O290 2.021 . S
Co280 O292 2.137 . S
Co280 O293 2.244 . S
O281 Co280 2.216 . S
O281 C288 1.247 . S
O282 Co280 2.091 . S
O282 C288 1.261 . S
C283 O292 1.247 . S
C283 O293 1.272 . S
O284 Co280 2.004 . S
O284 C289 1.259 . S
Co285 O286 2.061 . S
Co285 O291 2.052 . S
Co285 O293 2.135 . S
O286 Co285 2.061 . S
O286 C289 1.235 . S
C287 O290 1.238 . S
C287 O291 1.241 . S
C288 O281 1.247 . S
C288 O282 1.261 . S
C289 O284 1.259 . S
C289 O286 1.235 . S
O290 Co280 2.021 . S
O290 C287 1.238 . S
O291 Co285 2.052 . S
O291 C287 1.241 . S
O292 Co280 2.137 . S
O292 C283 1.247 . S
O293 Co280 2.244 . S
O293 C283 1.272 . S
O293 Co285 2.135 . S
Co294 O295 2.216 . S
Co294 O296 2.091 . S
Co294 O298 2.004 . S
Co294 O304 2.021 . S
Co294 O306 2.137 . S
Co294 O307 2.244 . S
O295 Co294 2.216 . S
O295 C302 1.247 . S
O296 Co294 2.091 . S
O296 C302 1.261 . S
C297 O306 1.247 . S
C297 O307 1.272 . S
O298 Co294 2.004 . S
O298 C303 1.259 . S
Co299 O300 2.061 . S
Co299 O305 2.052 . S
Co299 O307 2.135 . S
O300 Co299 2.061 . S
O300 C303 1.235 . S
C301 O304 1.238 . S
C301 O305 1.241 . S
C302 O295 1.247 . S
C302 O296 1.261 . S
C303 O298 1.259 . S
C303 O300 1.235 . S
O304 Co294 2.021 . S
O304 C301 1.238 . S
O305 Co299 2.052 . S
O305 C301 1.241 . S
O306 Co294 2.137 . S
O306 C297 1.247 . S
O307 Co294 2.244 . S
O307 C297 1.272 . S
O307 Co299 2.135 . S
Co308 O309 2.216 . S
Co308 O310 2.091 . S
Co308 O312 2.004 . S
Co308 O318 2.021 . S
Co308 O320 2.137 . S
Co308 O321 2.244 . S
O309 Co308 2.216 . S
O309 C316 1.247 . S
O310 Co308 2.091 . S
O310 C316 1.261 . S
C311 O320 1.247 . S
C311 O321 1.272 . S
O312 Co308 2.004 . S
O312 C317 1.259 . S
Co313 O314 2.061 . S
Co313 O319 2.052 . S
Co313 O321 2.135 . S
O314 Co313 2.061 . S
O314 C317 1.235 . S
C315 O318 1.238 . S
C315 O319 1.241 . S
C316 O309 1.247 . S
C316 O310 1.261 . S
C317 O312 1.259 . S
C317 O314 1.235 . S
O318 Co308 2.021 . S
O318 C315 1.238 . S
O319 Co313 2.052 . S
O319 C315 1.241 . S
O320 Co308 2.137 . S
O320 C311 1.247 . S
O321 Co308 2.244 . S
O321 C311 1.272 . S
O321 Co313 2.135 . S
Co322 O323 2.216 . S
Co322 O324 2.091 . S
Co322 O326 2.004 . S
Co322 O332 2.021 . S
Co322 O334 2.137 . S
Co322 O335 2.244 . S
O323 Co322 2.216 . S
O323 C330 1.247 . S
O324 Co322 2.091 . S
O324 C330 1.261 . S
C325 O334 1.247 . S
C325 O335 1.272 . S
O326 Co322 2.004 . S
O326 C331 1.259 . S
Co327 O328 2.061 . S
Co327 O333 2.052 . S
Co327 O335 2.135 . S
O328 Co327 2.061 . S
O328 C331 1.235 . S
C329 O332 1.238 . S
C329 O333 1.241 . S
C330 O323 1.247 . S
C330 O324 1.261 . S
C331 O326 1.259 . S
C331 O328 1.235 . S
O332 Co322 2.021 . S
O332 C329 1.238 . S
O333 Co327 2.052 . S
O333 C329 1.241 . S
O334 Co322 2.137 . S
O334 C325 1.247 . S
O335 Co322 2.244 . S
O335 C325 1.272 . S
O335 Co327 2.135 . S
C336 C337 1.391 . S
C336 C338 1.394 . S
C336 H352 0.931 . S
C337 C336 1.391 . S
C337 C341 1.376 . S
C338 C336 1.394 . S
C338 C339 1.369 . S
C338 C342 1.531 . S
C339 C338 1.369 . S
C339 C340 1.410 . S
C339 C347 1.503 . S
C340 C339 1.410 . S
C340 C341 1.392 . S
C340 C343 1.511 . S
C341 C337 1.376 . S
C341 C340 1.392 . S
C341 H353 0.929 . S
C342 C338 1.531 . S
C342 H354 0.960 . S
C342 H355 0.962 . S
C342 H356 0.960 . S
C343 C340 1.511 . S
C343 H357 0.961 . S
C343 H358 0.961 . S
C343 H359 0.961 . S
C344 C345 1.370 . S
C344 C346 1.363 . S
C344 H360 0.931 . S
C345 C344 1.370 . S
C345 C349 1.408 . S
C346 C344 1.363 . S
C346 C347 1.370 . S
C346 C350 1.524 . S
C347 C339 1.503 . S
C347 C346 1.370 . S
C347 C348 1.403 . S
C348 C347 1.403 . S
C348 C349 1.404 . S
C348 C351 1.539 . S
C349 C345 1.408 . S
C349 C348 1.404 . S
C349 H361 0.930 . S
C350 C346 1.524 . S
C350 H362 0.956 . S
C350 H363 0.961 . S
C350 H364 0.961 . S
C351 C348 1.539 . S
C351 H365 0.958 . S
C351 H366 0.961 . S
C351 H367 0.960 . S
H352 C336 0.931 . S
H353 C341 0.929 . S
H354 C342 0.960 . S
H355 C342 0.962 . S
H356 C342 0.960 . S
H357 C343 0.961 . S
H358 C343 0.961 . S
H359 C343 0.961 . S
H360 C344 0.931 . S
H361 C349 0.930 . S
H362 C350 0.956 . S
H363 C350 0.961 . S
H364 C350 0.961 . S
H365 C351 0.958 . S
H366 C351 0.961 . S
H367 C351 0.960 . S
C368 C369 1.391 . S
C368 C370 1.394 . S
C368 H384 0.931 . S
C369 C368 1.391 . S
C369 C373 1.376 . S
C370 C368 1.394 . S
C370 C371 1.369 . S
C370 C374 1.531 . S
C371 C370 1.369 . S
C371 C372 1.410 . S
C371 C379 1.503 1_655 S
C372 C371 1.410 . S
C372 C373 1.392 . S
C372 C375 1.511 . S
C373 C369 1.376 . S
C373 C372 1.392 . S
C373 H385 0.929 . S
C374 C370 1.531 . S
C374 H386 0.960 . S
C374 H387 0.962 . S
C374 H388 0.960 . S
C375 C372 1.511 . S
C375 H389 0.961 . S
C375 H390 0.961 . S
C375 H391 0.961 . S
C376 C377 1.370 . S
C376 C378 1.363 . S
C376 H392 0.931 . S
C377 C376 1.370 . S
C377 C381 1.408 . S
C378 C376 1.363 . S
C378 C379 1.370 . S
C378 C382 1.524 . S
C379 C371 1.503 1_455 S
C379 C378 1.370 . S
C379 C380 1.403 . S
C380 C379 1.403 . S
C380 C381 1.404 . S
C380 C383 1.539 . S
C381 C377 1.408 . S
C381 C380 1.404 . S
C381 H393 0.930 . S
C382 C378 1.524 . S
C382 H394 0.956 1_455 S
C382 H395 0.961 1_455 S
C382 H396 0.961 . S
C383 C380 1.539 . S
C383 H397 0.958 . S
C383 H398 0.961 . S
C383 H399 0.960 1_455 S
H384 C368 0.931 . S
H385 C373 0.929 . S
H386 C374 0.960 . S
H387 C374 0.962 . S
H388 C374 0.960 . S
H389 C375 0.961 . S
H390 C375 0.961 . S
H391 C375 0.961 . S
H392 C376 0.931 . S
H393 C381 0.930 . S
H394 C382 0.956 1_655 S
H395 C382 0.961 1_655 S
H396 C382 0.961 . S
H397 C383 0.958 . S
H398 C383 0.961 . S
H399 C383 0.960 1_655 S
C400 C401 1.391 . S
C400 C402 1.394 . S
C400 H416 0.931 . S
C401 C400 1.391 . S
C401 C405 1.376 . S
C402 C400 1.394 . S
C402 C403 1.369 . S
C402 C406 1.531 . S
C403 C402 1.369 . S
C403 C404 1.410 . S
C403 C411 1.503 . S
C404 C403 1.410 . S
C404 C405 1.392 . S
C404 C407 1.511 . S
C405 C401 1.376 . S
C405 C404 1.392 . S
C405 H417 0.929 . S
C406 C402 1.531 . S
C406 H418 0.960 . S
C406 H419 0.962 . S
C406 H420 0.960 . S
C407 C404 1.511 . S
C407 H421 0.961 . S
C407 H422 0.961 . S
C407 H423 0.961 . S
C408 C409 1.370 . S
C408 C410 1.363 . S
C408 H424 0.931 . S
C409 C408 1.370 . S
C409 C413 1.408 . S
C410 C408 1.363 . S
C410 C411 1.370 . S
C410 C414 1.524 . S
C411 C403 1.503 . S
C411 C410 1.370 . S
C411 C412 1.403 . S
C412 C411 1.403 . S
C412 C413 1.404 . S
C412 C415 1.539 . S
C413 C409 1.408 . S
C413 C412 1.404 . S
C413 H425 0.930 . S
C414 C410 1.524 . S
C414 H426 0.956 . S
C414 H427 0.961 . S
C414 H428 0.961 . S
C415 C412 1.539 . S
C415 H429 0.958 . S
C415 H430 0.961 . S
C415 H431 0.960 . S
H416 C400 0.931 . S
H417 C405 0.929 . S
H418 C406 0.960 . S
H419 C406 0.962 . S
H420 C406 0.960 . S
H421 C407 0.961 . S
H422 C407 0.961 . S
H423 C407 0.961 . S
H424 C408 0.931 . S
H425 C413 0.930 . S
H426 C414 0.956 . S
H427 C414 0.961 . S
H428 C414 0.961 . S
H429 C415 0.958 . S
H430 C415 0.961 . S
H431 C415 0.960 . S
C432 C433 1.391 . S
C432 C434 1.394 . S
C432 H448 0.931 . S
C433 C432 1.391 . S
C433 C437 1.376 . S
C434 C432 1.394 . S
C434 C435 1.369 . S
C434 C438 1.531 . S
C435 C434 1.369 . S
C435 C436 1.410 . S
C435 C443 1.503 1_455 S
C436 C435 1.410 . S
C436 C437 1.392 . S
C436 C439 1.511 . S
C437 C433 1.376 . S
C437 C436 1.392 . S
C437 H449 0.929 . S
C438 C434 1.531 . S
C438 H450 0.960 . S
C438 H451 0.962 . S
C438 H452 0.960 . S
C439 C436 1.511 . S
C439 H453 0.961 . S
C439 H454 0.961 . S
C439 H455 0.961 . S
C440 C441 1.370 . S
C440 C442 1.363 . S
C440 H456 0.931 . S
C441 C440 1.370 . S
C441 C445 1.408 . S
C442 C440 1.363 . S
C442 C443 1.370 . S
C442 C446 1.524 . S
C443 C435 1.503 1_655 S
C443 C442 1.370 . S
C443 C444 1.403 . S
C444 C443 1.403 . S
C444 C445 1.404 . S
C444 C447 1.539 . S
C445 C441 1.408 . S
C445 C444 1.404 . S
C445 H457 0.930 . S
C446 C442 1.524 . S
C446 H458 0.956 1_655 S
C446 H459 0.961 1_655 S
C446 H460 0.961 . S
C447 C444 1.539 . S
C447 H461 0.958 . S
C447 H462 0.961 . S
C447 H463 0.960 1_655 S
H448 C432 0.931 . S
H449 C437 0.929 . S
H450 C438 0.960 . S
H451 C438 0.962 . S
H452 C438 0.960 . S
H453 C439 0.961 . S
H454 C439 0.961 . S
H455 C439 0.961 . S
H456 C440 0.931 . S
H457 C445 0.930 . S
H458 C446 0.956 1_455 S
H459 C446 0.961 1_455 S
H460 C446 0.961 . S
H461 C447 0.958 . S
H462 C447 0.961 . S
H463 C447 0.960 1_455 S
C464 C465 1.391 . S
C464 C466 1.394 . S
C464 H480 0.931 . S
C465 C464 1.391 . S
C465 C469 1.376 . S
C466 C464 1.394 . S
C466 C467 1.369 . S
C466 C470 1.531 . S
C467 C466 1.369 . S
C467 C468 1.410 . S
C467 C475 1.503 . S
C468 C467 1.410 . S
C468 C469 1.392 . S
C468 C471 1.511 . S
C469 C465 1.376 . S
C469 C468 1.392 . S
C469 H481 0.929 . S
C470 C466 1.531 . S
C470 H482 0.960 . S
C470 H483 0.962 . S
C470 H484 0.960 . S
C471 C468 1.511 . S
C471 H485 0.961 . S
C471 H486 0.961 . S
C471 H487 0.961 . S
C472 C473 1.370 . S
C472 C474 1.363 . S
C472 H488 0.931 . S
C473 C472 1.370 . S
C473 C477 1.408 . S
C474 C472 1.363 . S
C474 C475 1.370 . S
C474 C478 1.524 . S
C475 C467 1.503 . S
C475 C474 1.370 . S
C475 C476 1.403 . S
C476 C475 1.403 . S
C476 C477 1.404 . S
C476 C479 1.539 . S
C477 C473 1.408 . S
C477 C476 1.404 . S
C477 H489 0.930 . S
C478 C474 1.524 . S
C478 H490 0.956 . S
C478 H491 0.961 . S
C478 H492 0.961 . S
C479 C476 1.539 . S
C479 H493 0.958 . S
C479 H494 0.961 . S
C479 H495 0.960 . S
H480 C464 0.931 . S
H481 C469 0.929 . S
H482 C470 0.960 . S
H483 C470 0.962 . S
H484 C470 0.960 . S
H485 C471 0.961 . S
H486 C471 0.961 . S
H487 C471 0.961 . S
H488 C472 0.931 . S
H489 C477 0.930 . S
H490 C478 0.956 . S
H491 C478 0.961 . S
H492 C478 0.961 . S
H493 C479 0.958 . S
H494 C479 0.961 . S
H495 C479 0.960 . S
C496 C497 1.391 . S
C496 C498 1.394 . S
C496 H512 0.931 . S
C497 C496 1.391 . S
C497 C501 1.376 . S
C498 C496 1.394 . S
C498 C499 1.369 . S
C498 C502 1.531 . S
C499 C498 1.369 . S
C499 C500 1.410 . S
C499 C507 1.503 1_655 S
C500 C499 1.410 . S
C500 C501 1.392 . S
C500 C503 1.511 . S
C501 C497 1.376 . S
C501 C500 1.392 . S
C501 H513 0.929 . S
C502 C498 1.531 . S
C502 H514 0.960 1_655 S
C502 H515 0.962 . S
C502 H516 0.960 . S
C503 C500 1.511 . S
C503 H517 0.961 . S
C503 H518 0.961 1_655 S
C503 H519 0.961 . S
C504 C505 1.370 . S
C504 C506 1.363 . S
C504 H520 0.931 . S
C505 C504 1.370 . S
C505 C509 1.408 . S
C506 C504 1.363 . S
C506 C507 1.370 . S
C506 C510 1.524 . S
C507 C499 1.503 1_455 S
C507 C506 1.370 . S
C507 C508 1.403 . S
C508 C507 1.403 . S
C508 C509 1.404 . S
C508 C511 1.539 . S
C509 C505 1.408 . S
C509 C508 1.404 . S
C509 H521 0.930 . S
C510 C506 1.524 . S
C510 H522 0.956 . S
C510 H523 0.961 . S
C510 H524 0.961 . S
C511 C508 1.539 . S
C511 H525 0.958 . S
C511 H526 0.961 . S
C511 H527 0.960 . S
H512 C496 0.931 . S
H513 C501 0.929 . S
H514 C502 0.960 1_455 S
H515 C502 0.962 . S
H516 C502 0.960 . S
H517 C503 0.961 . S
H518 C503 0.961 1_455 S
H519 C503 0.961 . S
H520 C504 0.931 . S
H521 C509 0.930 . S
H522 C510 0.956 . S
H523 C510 0.961 . S
H524 C510 0.961 . S
H525 C511 0.958 . S
H526 C511 0.961 . S
H527 C511 0.960 . S
C528 C529 1.391 . S
C528 C530 1.394 . S
C528 H544 0.931 . S
C529 C528 1.391 . S
C529 C533 1.376 . S
C530 C528 1.394 . S
C530 C531 1.369 . S
C530 C534 1.531 . S
C531 C530 1.369 . S
C531 C532 1.410 . S
C531 C539 1.503 . S
C532 C531 1.410 . S
C532 C533 1.392 . S
C532 C535 1.511 . S
C533 C529 1.376 . S
C533 C532 1.392 . S
C533 H545 0.929 . S
C534 C530 1.531 . S
C534 H546 0.960 . S
C534 H547 0.962 . S
C534 H548 0.960 . S
C535 C532 1.511 . S
C535 H549 0.961 . S
C535 H550 0.961 . S
C535 H551 0.961 . S
C536 C537 1.370 . S
C536 C538 1.363 . S
C536 H552 0.931 . S
C537 C536 1.370 . S
C537 C541 1.408 . S
C538 C536 1.363 . S
C538 C539 1.370 . S
C538 C542 1.524 . S
C539 C531 1.503 . S
C539 C538 1.370 . S
C539 C540 1.403 . S
C540 C539 1.403 . S
C540 C541 1.404 . S
C540 C543 1.539 . S
C541 C537 1.408 . S
C541 C540 1.404 . S
C541 H553 0.930 . S
C542 C538 1.524 . S
C542 H554 0.956 . S
C542 H555 0.961 . S
C542 H556 0.961 . S
C543 C540 1.539 . S
C543 H557 0.958 . S
C543 H558 0.961 . S
C543 H559 0.960 . S
H544 C528 0.931 . S
H545 C533 0.929 . S
H546 C534 0.960 . S
H547 C534 0.962 . S
H548 C534 0.960 . S
H549 C535 0.961 . S
H550 C535 0.961 . S
H551 C535 0.961 . S
H552 C536 0.931 . S
H553 C541 0.930 . S
H554 C542 0.956 . S
H555 C542 0.961 . S
H556 C542 0.961 . S
H557 C543 0.958 . S
H558 C543 0.961 . S
H559 C543 0.960 . S
C560 C561 1.391 . S
C560 C562 1.394 . S
C560 H576 0.931 . S
C561 C560 1.391 . S
C561 C565 1.376 . S
C562 C560 1.394 . S
C562 C563 1.369 . S
C562 C566 1.531 . S
C563 C562 1.369 . S
C563 C564 1.410 . S
C563 C571 1.503 1_655 S
C564 C563 1.410 . S
C564 C565 1.392 . S
C564 C567 1.511 . S
C565 C561 1.376 . S
C565 C564 1.392 . S
C565 H577 0.929 . S
C566 C562 1.531 . S
C566 H578 0.960 1_655 S
C566 H579 0.962 . S
C566 H580 0.960 . S
C567 C564 1.511 . S
C567 H581 0.961 . S
C567 H582 0.961 1_655 S
C567 H583 0.961 . S
C568 C569 1.370 . S
C568 C570 1.363 . S
C568 H584 0.931 . S
C569 C568 1.370 . S
C569 C573 1.408 . S
C570 C568 1.363 . S
C570 C571 1.370 . S
C570 C574 1.524 . S
C571 C563 1.503 1_455 S
C571 C570 1.370 . S
C571 C572 1.403 . S
C572 C571 1.403 . S
C572 C573 1.404 . S
C572 C575 1.539 . S
C573 C569 1.408 . S
C573 C572 1.404 . S
C573 H585 0.930 . S
C574 C570 1.524 . S
C574 H586 0.949 1_455 S
C574 H587 0.961 1_455 S
C574 H588 0.961 . S
C575 C572 1.539 . S
C575 H589 0.958 . S
C575 H590 0.961 . S
C575 H591 0.960 . S
H576 C560 0.931 . S
H577 C565 0.929 . S
H578 C566 0.960 1_455 S
H579 C566 0.962 . S
H580 C566 0.960 . S
H581 C567 0.961 . S
H582 C567 0.961 1_455 S
H583 C567 0.961 . S
H584 C568 0.931 . S
H585 C573 0.930 . S
H586 C574 0.949 1_655 S
H587 C574 0.961 1_655 S
H588 C574 0.961 . S
H589 C575 0.958 . S
H590 C575 0.961 . S
H591 C575 0.960 . S
C592 C593 1.391 . S
C592 C594 1.394 . S
C592 H608 0.931 . S
C593 C592 1.391 . S
C593 C597 1.376 . S
C594 C592 1.394 . S
C594 C595 1.369 . S
C594 C598 1.531 . S
C595 C594 1.369 . S
C595 C596 1.410 . S
C595 C603 1.503 . S
C596 C595 1.410 . S
C596 C597 1.392 . S
C596 C599 1.511 . S
C597 C593 1.376 . S
C597 C596 1.392 . S
C597 H609 0.929 . S
C598 C594 1.531 . S
C598 H610 0.960 . S
C598 H611 0.962 . S
C598 H612 0.960 . S
C599 C596 1.511 . S
C599 H613 0.961 . S
C599 H614 0.961 . S
C599 H615 0.961 . S
C600 C601 1.370 . S
C600 C602 1.363 . S
C600 H616 0.931 . S
C601 C600 1.370 . S
C601 C605 1.408 . S
C602 C600 1.363 . S
C602 C603 1.370 . S
C602 C606 1.524 . S
C603 C595 1.503 . S
C603 C602 1.370 . S
C603 C604 1.403 . S
C604 C603 1.403 . S
C604 C605 1.404 . S
C604 C607 1.539 . S
C605 C601 1.408 . S
C605 C604 1.404 . S
C605 H617 0.930 . S
C606 C602 1.524 . S
C606 H618 0.956 . S
C606 H619 0.961 . S
C606 H620 0.961 . S
C607 C604 1.539 . S
C607 H621 0.958 . S
C607 H622 0.961 . S
C607 H623 0.960 . S
H608 C592 0.931 . S
H609 C597 0.929 . S
H610 C598 0.960 . S
H611 C598 0.962 . S
H612 C598 0.960 . S
H613 C599 0.961 . S
H614 C599 0.961 . S
H615 C599 0.961 . S
H616 C600 0.931 . S
H617 C605 0.930 . S
H618 C606 0.956 . S
H619 C606 0.961 . S
H620 C606 0.961 . S
H621 C607 0.958 . S
H622 C607 0.961 . S
H623 C607 0.960 . S
C624 C625 1.391 . S
C624 C626 1.394 . S
C624 H640 0.931 . S
C625 C624 1.391 . S
C625 C629 1.376 . S
C626 C624 1.394 . S
C626 C627 1.369 . S
C626 C630 1.531 . S
C627 C626 1.369 . S
C627 C628 1.410 . S
C627 C635 1.503 1_556 S
C628 C627 1.410 . S
C628 C629 1.392 . S
C628 C631 1.511 . S
C629 C625 1.376 . S
C629 C628 1.392 . S
C629 H641 0.929 . S
C630 C626 1.531 . S
C630 H642 0.960 1_556 S
C630 H643 0.962 . S
C630 H644 0.960 . S
C631 C628 1.511 . S
C631 H645 0.961 . S
C631 H646 0.961 1_556 S
C631 H647 0.961 . S
C632 C633 1.370 . S
C632 C634 1.363 . S
C632 H648 0.931 . S
C633 C632 1.370 . S
C633 C637 1.408 . S
C634 C632 1.363 . S
C634 C635 1.370 . S
C634 C638 1.524 . S
C635 C627 1.503 1_554 S
C635 C634 1.370 . S
C635 C636 1.403 . S
C636 C635 1.403 . S
C636 C637 1.404 . S
C636 C639 1.539 . S
C637 C633 1.408 . S
C637 C636 1.404 . S
C637 H649 0.930 . S
C638 C634 1.524 . S
C638 H650 0.956 . S
C638 H651 0.961 1_554 S
C638 H652 0.961 . S
C639 C636 1.539 . S
C639 H653 0.958 . S
C639 H654 0.961 . S
C639 H655 0.992 . S
H640 C624 0.931 . S
H641 C629 0.929 . S
H642 C630 0.960 1_554 S
H643 C630 0.962 . S
H644 C630 0.960 . S
H645 C631 0.961 . S
H646 C631 0.961 1_554 S
H647 C631 0.961 . S
H648 C632 0.931 . S
H649 C637 0.930 . S
H650 C638 0.956 . S
H651 C638 0.961 1_556 S
H652 C638 0.961 . S
H653 C639 0.958 . S
H654 C639 0.961 . S
H655 C639 0.992 . S
C656 C657 1.391 . S
C656 C658 1.394 . S
C656 H672 0.931 . S
C657 C656 1.391 . S
C657 C661 1.376 . S
C658 C656 1.394 . S
C658 C659 1.369 . S
C658 C662 1.531 . S
C659 C658 1.369 . S
C659 C660 1.410 . S
C659 C667 1.503 . S
C660 C659 1.410 . S
C660 C661 1.392 . S
C660 C663 1.511 . S
C661 C657 1.376 . S
C661 C660 1.392 . S
C661 H673 0.929 . S
C662 C658 1.531 . S
C662 H674 0.960 . S
C662 H675 0.962 . S
C662 H676 0.960 . S
C663 C660 1.511 . S
C663 H677 0.961 . S
C663 H678 0.961 . S
C663 H679 0.961 . S
C664 C665 1.370 . S
C664 C666 1.363 . S
C664 H680 0.931 . S
C665 C664 1.370 . S
C665 C669 1.408 . S
C666 C664 1.363 . S
C666 C667 1.370 . S
C666 C670 1.524 . S
C667 C659 1.503 . S
C667 C666 1.370 . S
C667 C668 1.403 . S
C668 C667 1.403 . S
C668 C669 1.404 . S
C668 C671 1.539 . S
C669 C665 1.408 . S
C669 C668 1.404 . S
C669 H681 0.930 . S
C670 C666 1.524 . S
C670 H682 0.956 . S
C670 H683 0.961 . S
C670 H684 0.961 . S
C671 C668 1.539 . S
C671 H685 0.958 . S
C671 H686 0.961 . S
C671 H687 0.960 . S
H672 C656 0.931 . S
H673 C661 0.929 . S
H674 C662 0.960 . S
H675 C662 0.962 . S
H676 C662 0.960 . S
H677 C663 0.961 . S
H678 C663 0.961 . S
H679 C663 0.961 . S
H680 C664 0.931 . S
H681 C669 0.930 . S
H682 C670 0.956 . S
H683 C670 0.961 . S
H684 C670 0.961 . S
H685 C671 0.958 . S
H686 C671 0.961 . S
H687 C671 0.960 . S
C688 C689 1.391 . S
C688 C690 1.394 . S
C688 H704 0.931 . S
C689 C688 1.391 . S
C689 C693 1.376 . S
C690 C688 1.394 . S
C690 C691 1.369 . S
C690 C694 1.531 . S
C691 C690 1.369 . S
C691 C692 1.410 . S
C691 C699 1.503 1_554 S
C692 C691 1.410 . S
C692 C693 1.392 . S
C692 C695 1.511 . S
C693 C689 1.376 . S
C693 C692 1.392 . S
C693 H705 0.929 . S
C694 C690 1.531 . S
C694 H706 0.960 1_554 S
C694 H707 0.962 . S
C694 H708 0.960 . S
C695 C692 1.511 . S
C695 H709 0.961 . S
C695 H710 0.961 1_554 S
C695 H711 0.961 . S
C696 C697 1.370 . S
C696 C698 1.363 . S
C696 H712 0.931 . S
C697 C696 1.370 . S
C697 C701 1.408 . S
C698 C696 1.363 . S
C698 C699 1.370 . S
C698 C702 1.524 . S
C699 C691 1.503 1_556 S
C699 C698 1.370 . S
C699 C700 1.403 . S
C700 C699 1.403 . S
C700 C701 1.404 . S
C700 C703 1.539 . S
C701 C697 1.408 . S
C701 C700 1.404 . S
C701 H713 0.930 . S
C702 C698 1.524 . S
C702 H714 0.956 . S
C702 H715 0.938 1_556 S
C702 H716 0.961 . S
C703 C700 1.539 . S
C703 H717 0.958 . S
C703 H718 0.961 . S
C703 H719 0.960 . S
H704 C688 0.931 . S
H705 C693 0.929 . S
H706 C694 0.960 1_556 S
H707 C694 0.962 . S
H708 C694 0.960 . S
H709 C695 0.961 . S
H710 C695 0.961 1_556 S
H711 C695 0.961 . S
H712 C696 0.931 . S
H713 C701 0.930 . S
H714 C702 0.956 . S
H715 C702 0.938 1_554 S
H716 C702 0.961 . S
H717 C703 0.958 . S
H718 C703 0.961 . S
H719 C703 0.960 . S
C720 C721 1.391 . S
C720 C722 1.394 . S
C720 H736 0.931 . S
C721 C720 1.391 . S
C721 C725 1.376 . S
C722 C720 1.394 . S
C722 C723 1.369 . S
C722 C726 1.531 . S
C723 C722 1.369 . S
C723 C724 1.410 . S
C723 C731 1.503 . S
C724 C723 1.410 . S
C724 C725 1.392 . S
C724 C727 1.511 . S
C725 C721 1.376 . S
C725 C724 1.392 . S
C725 H737 0.929 . S
C726 C722 1.531 . S
C726 H738 0.960 . S
C726 H739 0.962 . S
C726 H740 0.960 . S
C727 C724 1.511 . S
C727 H741 0.961 . S
C727 H742 0.961 . S
C727 H743 0.961 . S
C728 C729 1.370 . S
C728 C730 1.363 . S
C728 H744 0.931 . S
C729 C728 1.370 . S
C729 C733 1.408 . S
C730 C728 1.363 . S
C730 C731 1.370 . S
C730 C734 1.524 . S
C731 C723 1.503 . S
C731 C730 1.370 . S
C731 C732 1.403 . S
C732 C731 1.403 . S
C732 C733 1.404 . S
C732 C735 1.539 . S
C733 C729 1.408 . S
C733 C732 1.404 . S
C733 H745 0.930 . S
C734 C730 1.524 . S
C734 H746 0.956 . S
C734 H747 0.961 . S
C734 H748 0.961 . S
C735 C732 1.539 . S
C735 H749 0.958 . S
C735 H750 0.961 . S
C735 H751 0.960 . S
H736 C720 0.931 . S
H737 C725 0.929 . S
H738 C726 0.960 . S
H739 C726 0.962 . S
H740 C726 0.960 . S
H741 C727 0.961 . S
H742 C727 0.961 . S
H743 C727 0.961 . S
H744 C728 0.931 . S
H745 C733 0.930 . S
H746 C734 0.956 . S
H747 C734 0.961 . S
H748 C734 0.961 . S
H749 C735 0.958 . S
H750 C735 0.961 . S
H751 C735 0.960 . S
C752 C753 1.391 . S
C752 C754 1.394 . S
C752 H768 0.931 . S
C753 C752 1.391 . S
C753 C757 1.376 . S
C754 C752 1.394 . S
C754 C755 1.369 . S
C754 C758 1.531 . S
C755 C754 1.369 . S
C755 C756 1.410 . S
C755 C763 1.503 1_554 S
C756 C755 1.410 . S
C756 C757 1.392 . S
C756 C759 1.511 . S
C757 C753 1.376 . S
C757 C756 1.392 . S
C757 H769 0.929 . S
C758 C754 1.531 . S
C758 H770 0.960 . S
C758 H771 0.962 . S
C758 H772 0.960 . S
C759 C756 1.511 . S
C759 H773 0.961 . S
C759 H774 0.961 . S
C759 H775 0.961 . S
C760 C761 1.370 . S
C760 C762 1.363 . S
C760 H776 0.931 . S
C761 C760 1.370 . S
C761 C765 1.408 . S
C762 C760 1.363 . S
C762 C763 1.370 . S
C762 C766 1.524 . S
C763 C755 1.503 1_556 S
C763 C762 1.370 . S
C763 C764 1.403 . S
C764 C763 1.403 . S
C764 C765 1.404 . S
C764 C767 1.539 . S
C765 C761 1.408 . S
C765 C764 1.404 . S
C765 H777 0.930 . S
C766 C762 1.524 . S
C766 H778 0.956 1_556 S
C766 H779 0.961 1_556 S
C766 H780 0.961 . S
C767 C764 1.539 . S
C767 H781 0.958 . S
C767 H782 0.961 . S
C767 H783 0.960 1_556 S
H768 C752 0.931 . S
H769 C757 0.929 . S
H770 C758 0.960 . S
H771 C758 0.962 . S
H772 C758 0.960 . S
H773 C759 0.961 . S
H774 C759 0.961 . S
H775 C759 0.961 . S
H776 C760 0.931 . S
H777 C765 0.930 . S
H778 C766 0.956 1_554 S
H779 C766 0.961 1_554 S
H780 C766 0.961 . S
H781 C767 0.958 . S
H782 C767 0.961 . S
H783 C767 0.960 1_554 S
C784 C785 1.391 . S
C784 C786 1.394 . S
C784 H800 0.931 . S
C785 C784 1.391 . S
C785 C789 1.376 . S
C786 C784 1.394 . S
C786 C787 1.369 . S
C786 C790 1.531 . S
C787 C786 1.369 . S
C787 C788 1.410 . S
C787 C795 1.503 . S
C788 C787 1.410 . S
C788 C789 1.392 . S
C788 C791 1.511 . S
C789 C785 1.376 . S
C789 C788 1.392 . S
C789 H801 0.929 . S
C790 C786 1.531 . S
C790 H802 0.960 . S
C790 H803 0.962 . S
C790 H804 0.960 . S
C791 C788 1.511 . S
C791 H805 0.961 . S
C791 H806 0.961 . S
C791 H807 0.961 . S
C792 C793 1.370 . S
C792 C794 1.363 . S
C792 H808 0.931 . S
C793 C792 1.370 . S
C793 C797 1.408 . S
C794 C792 1.363 . S
C794 C795 1.370 . S
C794 C798 1.524 . S
C795 C787 1.503 . S
C795 C794 1.370 . S
C795 C796 1.403 . S
C796 C795 1.403 . S
C796 C797 1.404 . S
C796 C799 1.539 . S
C797 C793 1.408 . S
C797 C796 1.404 . S
C797 H809 0.930 . S
C798 C794 1.524 . S
C798 H810 0.956 . S
C798 H811 0.961 . S
C798 H812 0.961 . S
C799 C796 1.539 . S
C799 H813 0.958 . S
C799 H814 0.961 . S
C799 H815 0.960 . S
H800 C784 0.931 . S
H801 C789 0.929 . S
H802 C790 0.960 . S
H803 C790 0.962 . S
H804 C790 0.960 . S
H805 C791 0.961 . S
H806 C791 0.961 . S
H807 C791 0.961 . S
H808 C792 0.931 . S
H809 C797 0.930 . S
H810 C798 0.956 . S
H811 C798 0.961 . S
H812 C798 0.961 . S
H813 C799 0.958 . S
H814 C799 0.961 . S
H815 C799 0.960 . S
C816 C817 1.391 . S
C816 C818 1.394 . S
C816 H832 0.931 . S
C817 C816 1.391 . S
C817 C821 1.376 . S
C818 C816 1.394 . S
C818 C819 1.369 . S
C818 C822 1.531 . S
C819 C818 1.369 . S
C819 C820 1.410 . S
C819 C827 1.503 1_554 S
C820 C819 1.410 . S
C820 C821 1.392 . S
C820 C823 1.511 . S
C821 C817 1.376 . S
C821 C820 1.392 . S
C821 H833 0.929 . S
C822 C818 1.531 . S
C822 H834 0.960 . S
C822 H835 0.962 . S
C822 H836 0.960 . S
C823 C820 1.511 . S
C823 H837 0.961 . S
C823 H838 0.961 . S
C823 H839 0.961 . S
C824 C825 1.370 . S
C824 C826 1.363 . S
C824 H840 0.931 . S
C825 C824 1.370 . S
C825 C829 1.408 . S
C826 C824 1.363 . S
C826 C827 1.370 . S
C826 C830 1.524 . S
C827 C819 1.503 1_556 S
C827 C826 1.370 . S
C827 C828 1.403 . S
C828 C827 1.403 . S
C828 C829 1.404 . S
C828 C831 1.539 . S
C829 C825 1.408 . S
C829 C828 1.404 . S
C829 H841 0.930 . S
C830 C826 1.524 . S
C830 H842 0.956 1_556 S
C830 H843 0.961 1_556 S
C830 H844 0.961 . S
C831 C828 1.539 . S
C831 H845 0.958 . S
C831 H846 0.961 . S
C831 H847 0.960 1_556 S
H832 C816 0.931 . S
H833 C821 0.929 . S
H834 C822 0.960 . S
H835 C822 0.962 . S
H836 C822 0.960 . S
H837 C823 0.961 . S
H838 C823 0.961 . S
H839 C823 0.961 . S
H840 C824 0.931 . S
H841 C829 0.930 . S
H842 C830 0.956 1_554 S
H843 C830 0.961 1_554 S
H844 C830 0.961 . S
H845 C831 0.958 . S
H846 C831 0.961 . S
H847 C831 0.960 1_554 S
C848 C849 1.391 . S
C848 C850 1.394 . S
C848 H864 0.931 . S
C849 C848 1.391 . S
C849 C853 1.376 . S
C850 C848 1.394 . S
C850 C851 1.369 . S
C850 C854 1.531 . S
C851 C850 1.369 . S
C851 C852 1.410 . S
C851 C859 1.503 . S
C852 C851 1.410 . S
C852 C853 1.392 . S
C852 C855 1.511 . S
C853 C849 1.376 . S
C853 C852 1.392 . S
C853 H865 0.929 . S
C854 C850 1.531 . S
C854 H866 0.960 . S
C854 H867 0.962 . S
C854 H868 0.960 . S
C855 C852 1.511 . S
C855 H869 0.961 . S
C855 H870 0.961 . S
C855 H871 0.961 . S
C856 C857 1.370 . S
C856 C858 1.363 . S
C856 H872 0.931 . S
C857 C856 1.370 . S
C857 C861 1.408 . S
C858 C856 1.363 . S
C858 C859 1.370 . S
C858 C862 1.524 . S
C859 C851 1.503 . S
C859 C858 1.370 . S
C859 C860 1.403 . S
C860 C859 1.403 . S
C860 C861 1.404 . S
C860 C863 1.539 . S
C861 C857 1.408 . S
C861 C860 1.404 . S
C861 H873 0.930 . S
C862 C858 1.524 . S
C862 H874 0.956 . S
C862 H875 0.961 . S
C862 H876 0.961 . S
C863 C860 1.539 . S
C863 H877 0.958 . S
C863 H878 0.961 . S
C863 H879 0.960 . S
H864 C848 0.931 . S
H865 C853 0.929 . S
H866 C854 0.960 . S
H867 C854 0.962 . S
H868 C854 0.960 . S
H869 C855 0.961 . S
H870 C855 0.961 . S
H871 C855 0.961 . S
H872 C856 0.931 . S
H873 C861 0.930 . S
H874 C862 0.956 . S
H875 C862 0.961 . S
H876 C862 0.961 . S
H877 C863 0.958 . S
H878 C863 0.961 . S
H879 C863 0.960 . S
C880 C881 1.391 . S
C880 C882 1.394 . S
C880 H896 0.931 . S
C881 C880 1.391 . S
C881 C885 1.376 . S
C882 C880 1.394 . S
C882 C883 1.369 . S
C882 C886 1.531 . S
C883 C882 1.369 . S
C883 C884 1.410 . S
C883 C891 1.503 . S
C884 C883 1.410 . S
C884 C885 1.392 . S
C884 C887 1.511 . S
C885 C881 1.376 . S
C885 C884 1.392 . S
C885 H897 0.929 . S
C886 C882 1.531 . S
C886 H898 0.960 . S
C886 H899 0.962 . S
C886 H900 0.960 . S
C887 C884 1.511 . S
C887 H901 0.961 . S
C887 H902 0.961 . S
C887 H903 0.961 . S
C888 C889 1.370 . S
C888 C890 1.363 . S
C888 H904 0.931 . S
C889 C888 1.370 . S
C889 C893 1.408 . S
C890 C888 1.363 . S
C890 C891 1.370 . S
C890 C894 1.524 . S
C891 C883 1.503 . S
C891 C890 1.370 . S
C891 C892 1.403 . S
C892 C891 1.403 . S
C892 C893 1.404 . S
C892 C895 1.539 . S
C893 C889 1.408 . S
C893 C892 1.404 . S
C893 H905 0.930 . S
C894 C890 1.524 . S
C894 H906 0.956 . S
C894 H907 0.961 . S
C894 H908 0.961 . S
C895 C892 1.539 . S
C895 H909 0.958 . S
C895 H910 0.961 . S
C895 H911 0.960 . S
H896 C880 0.931 . S
H897 C885 0.929 . S
H898 C886 0.960 . S
H899 C886 0.962 . S
H900 C886 0.960 . S
H901 C887 0.961 . S
H902 C887 0.961 . S
H903 C887 0.961 . S
H904 C888 0.931 . S
H905 C893 0.930 . S
H906 C894 0.956 . S
H907 C894 0.961 . S
H908 C894 0.961 . S
H909 C895 0.958 . S
H910 C895 0.961 . S
H911 C895 0.960 . S
C912 C913 1.391 . S
C912 C914 1.394 . S
C912 H928 0.931 . S
C913 C912 1.391 . S
C913 C917 1.376 . S
C914 C912 1.394 . S
C914 C915 1.369 . S
C914 C918 1.531 . S
C915 C914 1.369 . S
C915 C916 1.410 . S
C915 C923 1.503 1_565 S
C916 C915 1.410 . S
C916 C917 1.392 . S
C916 C919 1.511 . S
C917 C913 1.376 . S
C917 C916 1.392 . S
C917 H929 0.929 . S
C918 C914 1.531 . S
C918 H930 0.960 . S
C918 H931 0.962 . S
C918 H932 0.960 . S
C919 C916 1.511 . S
C919 H933 0.961 . S
C919 H934 0.978 . S
C919 H935 0.961 . S
C920 C921 1.370 . S
C920 C922 1.363 . S
C920 H936 0.931 . S
C921 C920 1.370 . S
C921 C925 1.408 . S
C922 C920 1.363 . S
C922 C923 1.370 . S
C922 C926 1.524 . S
C923 C915 1.503 1_545 S
C923 C922 1.370 . S
C923 C924 1.403 . S
C924 C923 1.403 . S
C924 C925 1.404 . S
C924 C927 1.539 . S
C925 C921 1.408 . S
C925 C924 1.404 . S
C925 H937 0.930 . S
C926 C922 1.524 . S
C926 H938 0.949 1_545 S
C926 H939 0.961 1_545 S
C926 H940 0.961 . S
C927 C924 1.539 . S
C927 H941 0.958 . S
C927 H942 0.961 . S
C927 H943 0.960 1_545 S
H928 C912 0.931 . S
H929 C917 0.929 . S
H930 C918 0.960 . S
H931 C918 0.962 . S
H932 C918 0.960 . S
H933 C919 0.961 . S
H934 C919 0.978 . S
H935 C919 0.961 . S
H936 C920 0.931 . S
H937 C925 0.930 . S
H938 C926 0.949 1_565 S
H939 C926 0.961 1_565 S
H940 C926 0.961 . S
H941 C927 0.958 . S
H942 C927 0.961 . S
H943 C927 0.960 1_565 S
C944 C945 1.391 . S
C944 C946 1.394 . S
C944 H960 0.931 . S
C945 C944 1.391 . S
C945 C949 1.376 . S
C946 C944 1.394 . S
C946 C947 1.369 . S
C946 C950 1.531 . S
C947 C946 1.369 . S
C947 C948 1.410 . S
C947 C955 1.503 . S
C948 C947 1.410 . S
C948 C949 1.392 . S
C948 C951 1.511 . S
C949 C945 1.376 . S
C949 C948 1.392 . S
C949 H961 0.929 . S
C950 C946 1.531 . S
C950 H962 0.960 . S
C950 H963 0.962 . S
C950 H964 0.960 . S
C951 C948 1.511 . S
C951 H965 0.961 . S
C951 H966 0.961 . S
C951 H967 0.961 . S
C952 C953 1.370 . S
C952 C954 1.363 . S
C952 H968 0.931 . S
C953 C952 1.370 . S
C953 C957 1.408 . S
C954 C952 1.363 . S
C954 C955 1.370 . S
C954 C958 1.524 . S
C955 C947 1.503 . S
C955 C954 1.370 . S
C955 C956 1.403 . S
C956 C955 1.403 . S
C956 C957 1.404 . S
C956 C959 1.539 . S
C957 C953 1.408 . S
C957 C956 1.404 . S
C957 H969 0.930 . S
C958 C954 1.524 . S
C958 H970 0.956 . S
C958 H971 0.961 . S
C958 H972 0.961 . S
C959 C956 1.539 . S
C959 H973 0.958 . S
C959 H974 0.961 . S
C959 H975 0.960 . S
H960 C944 0.931 . S
H961 C949 0.929 . S
H962 C950 0.960 . S
H963 C950 0.962 . S
H964 C950 0.960 . S
H965 C951 0.961 . S
H966 C951 0.961 . S
H967 C951 0.961 . S
H968 C952 0.931 . S
H969 C957 0.930 . S
H970 C958 0.956 . S
H971 C958 0.961 . S
H972 C958 0.961 . S
H973 C959 0.958 . S
H974 C959 0.961 . S
H975 C959 0.960 . S
C976 C977 1.391 . S
C976 C978 1.394 . S
C976 H992 0.931 . S
C977 C976 1.391 . S
C977 C981 1.376 . S
C978 C976 1.394 . S
C978 C979 1.369 . S
C978 C982 1.531 . S
C979 C978 1.369 . S
C979 C980 1.410 . S
C979 C987 1.503 1_565 S
C980 C979 1.410 . S
C980 C981 1.392 . S
C980 C983 1.511 . S
C981 C977 1.376 . S
C981 C980 1.392 . S
C981 H993 0.929 . S
C982 C978 1.531 . S
C982 H994 0.960 1_565 S
C982 H995 0.962 . S
C982 H996 0.960 . S
C983 C980 1.511 . S
C983 H997 0.961 . S
C983 H998 0.961 1_565 S
C983 H999 0.961 . S
C984 C985 1.370 . S
C984 C986 1.363 . S
C984 H1000 0.931 . S
C985 C984 1.370 . S
C985 C989 1.408 . S
C986 C984 1.363 . S
C986 C987 1.370 . S
C986 C990 1.524 . S
C987 C979 1.503 1_545 S
C987 C986 1.370 . S
C987 C988 1.403 . S
C988 C987 1.403 . S
C988 C989 1.404 . S
C988 C991 1.539 . S
C989 C985 1.408 . S
C989 C988 1.404 . S
C989 H1001 0.930 . S
C990 C986 1.524 . S
C990 H1002 0.956 . S
C990 H1003 0.961 . S
C990 H1004 0.961 . S
C991 C988 1.539 . S
C991 H1005 0.958 . S
C991 H1006 0.961 . S
C991 H1007 0.960 . S
H992 C976 0.931 . S
H993 C981 0.929 . S
H994 C982 0.960 1_545 S
H995 C982 0.962 . S
H996 C982 0.960 . S
H997 C983 0.961 . S
H998 C983 0.961 1_545 S
H999 C983 0.961 . S
H1000 C984 0.931 . S
H1001 C989 0.930 . S
H1002 C990 0.956 . S
H1003 C990 0.961 . S
H1004 C990 0.961 . S
H1005 C991 0.958 . S
H1006 C991 0.961 . S
H1007 C991 0.960 . S
C1008 C1009 1.391 . S
C1008 C1010 1.394 . S
C1008 H1024 0.931 . S
C1009 C1008 1.391 . S
C1009 C1013 1.376 . S
C1010 C1008 1.394 . S
C1010 C1011 1.369 . S
C1010 C1014 1.531 . S
C1011 C1010 1.369 . S
C1011 C1012 1.410 . S
C1011 C1019 1.503 . S
C1012 C1011 1.410 . S
C1012 C1013 1.392 . S
C1012 C1015 1.511 . S
C1013 C1009 1.376 . S
C1013 C1012 1.392 . S
C1013 H1025 0.929 . S
C1014 C1010 1.531 . S
C1014 H1026 0.960 . S
C1014 H1027 0.962 . S
C1014 H1028 0.960 . S
C1015 C1012 1.511 . S
C1015 H1029 0.961 . S
C1015 H1030 0.961 . S
C1015 H1031 0.961 . S
C1016 C1017 1.370 . S
C1016 C1018 1.363 . S
C1016 H1032 0.931 . S
C1017 C1016 1.370 . S
C1017 C1021 1.408 . S
C1018 C1016 1.363 . S
C1018 C1019 1.370 . S
C1018 C1022 1.524 . S
C1019 C1011 1.503 . S
C1019 C1018 1.370 . S
C1019 C1020 1.403 . S
C1020 C1019 1.403 . S
C1020 C1021 1.404 . S
C1020 C1023 1.539 . S
C1021 C1017 1.408 . S
C1021 C1020 1.404 . S
C1021 H1033 0.930 . S
C1022 C1018 1.524 . S
C1022 H1034 0.956 . S
C1022 H1035 0.961 . S
C1022 H1036 0.961 . S
C1023 C1020 1.539 . S
C1023 H1037 0.958 . S
C1023 H1038 0.961 . S
C1023 H1039 0.960 . S
H1024 C1008 0.931 . S
H1025 C1013 0.929 . S
H1026 C1014 0.960 . S
H1027 C1014 0.962 . S
H1028 C1014 0.960 . S
H1029 C1015 0.961 . S
H1030 C1015 0.961 . S
H1031 C1015 0.961 . S
H1032 C1016 0.931 . S
H1033 C1021 0.930 . S
H1034 C1022 0.956 . S
H1035 C1022 0.961 . S
H1036 C1022 0.961 . S
H1037 C1023 0.958 . S
H1038 C1023 0.961 . S
H1039 C1023 0.960 . S
C1040 C1041 1.391 . S
C1040 C1042 1.394 . S
C1040 H1056 0.931 . S
C1041 C1040 1.391 . S
C1041 C1045 1.376 . S
C1042 C1040 1.394 . S
C1042 C1043 1.369 . S
C1042 C1046 1.531 . S
C1043 C1042 1.369 . S
C1043 C1044 1.410 . S
C1043 C1051 1.503 1_565 S
C1044 C1043 1.410 . S
C1044 C1045 1.392 . S
C1044 C1047 1.511 . S
C1045 C1041 1.376 . S
C1045 C1044 1.392 . S
C1045 H1057 0.929 . S
C1046 C1042 1.531 . S
C1046 H1058 0.960 . S
C1046 H1059 0.962 . S
C1046 H1060 0.960 . S
C1047 C1044 1.511 . S
C1047 H1061 0.961 . S
C1047 H1062 0.961 1_565 S
C1047 H1063 0.961 . S
C1048 C1049 1.370 . S
C1048 C1050 1.363 . S
C1048 H1064 0.931 . S
C1049 C1048 1.370 . S
C1049 C1053 1.408 . S
C1050 C1048 1.363 . S
C1050 C1051 1.370 . S
C1050 C1054 1.524 . S
C1051 C1043 1.503 1_545 S
C1051 C1050 1.370 . S
C1051 C1052 1.403 . S
C1052 C1051 1.403 . S
C1052 C1053 1.404 . S
C1052 C1055 1.539 . S
C1053 C1049 1.408 . S
C1053 C1052 1.404 . S
C1053 H1065 0.930 . S
C1054 C1050 1.524 . S
C1054 H1066 0.956 1_545 S
C1054 H1067 0.961 1_545 S
C1054 H1068 0.961 . S
C1055 C1052 1.539 . S
C1055 H1069 0.958 . S
C1055 H1070 0.961 . S
C1055 H1071 0.960 1_545 S
H1056 C1040 0.931 . S
H1057 C1045 0.929 . S
H1058 C1046 0.960 . S
H1059 C1046 0.962 . S
H1060 C1046 0.960 . S
H1061 C1047 0.961 . S
H1062 C1047 0.961 1_545 S
H1063 C1047 0.961 . S
H1064 C1048 0.931 . S
H1065 C1053 0.930 . S
H1066 C1054 0.956 1_565 S
H1067 C1054 0.961 1_565 S
H1068 C1054 0.961 . S
H1069 C1055 0.958 . S
H1070 C1055 0.961 . S
H1071 C1055 0.960 1_565 S
C1072 C1073 1.391 . S
C1072 C1074 1.394 . S
C1072 H1088 0.931 . S
C1073 C1072 1.391 . S
C1073 C1077 1.376 . S
C1074 C1072 1.394 . S
C1074 C1075 1.369 . S
C1074 C1078 1.531 . S
C1075 C1074 1.369 . S
C1075 C1076 1.410 . S
C1075 C1083 1.503 1_545 S
C1076 C1075 1.410 . S
C1076 C1077 1.392 . S
C1076 C1079 1.511 . S
C1077 C1073 1.376 . S
C1077 C1076 1.392 . S
C1077 H1089 0.929 . S
C1078 C1074 1.531 . S
C1078 H1090 0.960 . S
C1078 H1091 0.962 . S
C1078 H1092 0.960 . S
C1079 C1076 1.511 . S
C1079 H1093 0.961 . S
C1079 H1094 0.926 1_545 S
C1079 H1095 0.961 . S
C1080 C1081 1.370 . S
C1080 C1082 1.363 . S
C1080 H1096 0.931 . S
C1081 C1080 1.370 . S
C1081 C1085 1.408 . S
C1082 C1080 1.363 . S
C1082 C1083 1.370 . S
C1082 C1086 1.524 . S
C1083 C1075 1.503 1_565 S
C1083 C1082 1.370 . S
C1083 C1084 1.403 . S
C1084 C1083 1.403 . S
C1084 C1085 1.404 . S
C1084 C1087 1.539 . S
C1085 C1081 1.408 . S
C1085 C1084 1.404 . S
C1085 H1097 0.930 . S
C1086 C1082 1.524 . S
C1086 H1098 0.956 1_565 S
C1086 H1099 0.961 1_565 S
C1086 H1100 0.961 . S
C1087 C1084 1.539 . S
C1087 H1101 0.958 . S
C1087 H1102 0.961 . S
C1087 H1103 0.960 1_565 S
H1088 C1072 0.931 . S
H1089 C1077 0.929 . S
H1090 C1078 0.960 . S
H1091 C1078 0.962 . S
H1092 C1078 0.960 . S
H1093 C1079 0.961 . S
H1094 C1079 0.926 1_565 S
H1095 C1079 0.961 . S
H1096 C1080 0.931 . S
H1097 C1085 0.930 . S
H1098 C1086 0.956 1_545 S
H1099 C1086 0.961 1_545 S
H1100 C1086 0.961 . S
H1101 C1087 0.958 . S
H1102 C1087 0.961 . S
H1103 C1087 0.960 1_545 S
C1104 C1105 1.391 . S
C1104 C1106 1.394 . S
C1104 H1120 0.931 . S
C1105 C1104 1.391 . S
C1105 C1109 1.376 . S
C1106 C1104 1.394 . S
C1106 C1107 1.369 . S
C1106 C1110 1.531 . S
C1107 C1106 1.369 . S
C1107 C1108 1.410 . S
C1107 C1115 1.503 . S
C1108 C1107 1.410 . S
C1108 C1109 1.392 . S
C1108 C1111 1.511 . S
C1109 C1105 1.376 . S
C1109 C1108 1.392 . S
C1109 H1121 0.929 . S
C1110 C1106 1.531 . S
C1110 H1122 0.960 . S
C1110 H1123 0.962 . S
C1110 H1124 0.960 . S
C1111 C1108 1.511 . S
C1111 H1125 0.961 . S
C1111 H1126 0.961 . S
C1111 H1127 0.961 . S
C1112 C1113 1.370 . S
C1112 C1114 1.363 . S
C1112 H1128 0.931 . S
C1113 C1112 1.370 . S
C1113 C1117 1.408 . S
C1114 C1112 1.363 . S
C1114 C1115 1.370 . S
C1114 C1118 1.524 . S
C1115 C1107 1.503 . S
C1115 C1114 1.370 . S
C1115 C1116 1.403 . S
C1116 C1115 1.403 . S
C1116 C1117 1.404 . S
C1116 C1119 1.539 . S
C1117 C1113 1.408 . S
C1117 C1116 1.404 . S
C1117 H1129 0.930 . S
C1118 C1114 1.524 . S
C1118 H1130 0.956 . S
C1118 H1131 0.961 . S
C1118 H1132 0.961 . S
C1119 C1116 1.539 . S
C1119 H1133 0.958 . S
C1119 H1134 0.961 . S
C1119 H1135 0.960 . S
H1120 C1104 0.931 . S
H1121 C1109 0.929 . S
H1122 C1110 0.960 . S
H1123 C1110 0.962 . S
H1124 C1110 0.960 . S
H1125 C1111 0.961 . S
H1126 C1111 0.961 . S
H1127 C1111 0.961 . S
H1128 C1112 0.931 . S
H1129 C1117 0.930 . S
H1130 C1118 0.956 . S
H1131 C1118 0.961 . S
H1132 C1118 0.961 . S
H1133 C1119 0.958 . S
H1134 C1119 0.961 . S
H1135 C1119 0.960 . S
C1136 C1137 1.391 . S
C1136 C1138 1.394 . S
C1136 H1152 0.931 . S
C1137 C1136 1.391 . S
C1137 C1141 1.376 . S
C1138 C1136 1.394 . S
C1138 C1139 1.369 . S
C1138 C1142 1.531 . S
C1139 C1138 1.369 . S
C1139 C1140 1.410 . S
C1139 C1147 1.503 . S
C1140 C1139 1.410 . S
C1140 C1141 1.392 . S
C1140 C1143 1.511 . S
C1141 C1137 1.376 . S
C1141 C1140 1.392 . S
C1141 H1153 0.929 . S
C1142 C1138 1.531 . S
C1142 H1154 0.960 . S
C1142 H1155 0.962 . S
C1142 H1156 0.960 . S
C1143 C1140 1.511 . S
C1143 H1157 0.961 . S
C1143 H1158 0.961 . S
C1143 H1159 0.961 . S
C1144 C1145 1.370 . S
C1144 C1146 1.363 . S
C1144 H1160 0.931 . S
C1145 C1144 1.370 . S
C1145 C1149 1.408 . S
C1146 C1144 1.363 . S
C1146 C1147 1.370 . S
C1146 C1150 1.524 . S
C1147 C1139 1.503 . S
C1147 C1146 1.370 . S
C1147 C1148 1.403 . S
C1148 C1147 1.403 . S
C1148 C1149 1.404 . S
C1148 C1151 1.539 . S
C1149 C1145 1.408 . S
C1149 C1148 1.404 . S
C1149 H1161 0.930 . S
C1150 C1146 1.524 . S
C1150 H1162 0.956 . S
C1150 H1163 0.961 . S
C1150 H1164 0.961 . S
C1151 C1148 1.539 . S
C1151 H1165 0.958 . S
C1151 H1166 0.961 . S
C1151 H1167 0.960 . S
H1152 C1136 0.931 . S
H1153 C1141 0.929 . S
H1154 C1142 0.960 . S
H1155 C1142 0.962 . S
H1156 C1142 0.960 . S
H1157 C1143 0.961 . S
H1158 C1143 0.961 . S
H1159 C1143 0.961 . S
H1160 C1144 0.931 . S
H1161 C1149 0.930 . S
H1162 C1150 0.956 . S
H1163 C1150 0.961 . S
H1164 C1150 0.961 . S
H1165 C1151 0.958 . S
H1166 C1151 0.961 . S
H1167 C1151 0.960 . S
C1168 C1169 1.391 . S
C1168 C1170 1.394 . S
C1168 H1184 0.931 . S
C1169 C1168 1.391 . S
C1169 C1173 1.376 . S
C1170 C1168 1.394 . S
C1170 C1171 1.369 . S
C1170 C1174 1.531 . S
C1171 C1170 1.369 . S
C1171 C1172 1.410 . S
C1171 C1179 1.503 . S
C1172 C1171 1.410 . S
C1172 C1173 1.392 . S
C1172 C1175 1.511 . S
C1173 C1169 1.376 . S
C1173 C1172 1.392 . S
C1173 H1185 0.929 . S
C1174 C1170 1.531 . S
C1174 H1186 0.960 . S
C1174 H1187 0.962 . S
C1174 H1188 0.960 . S
C1175 C1172 1.511 . S
C1175 H1189 0.961 . S
C1175 H1190 0.961 . S
C1175 H1191 0.961 . S
C1176 C1177 1.370 . S
C1176 C1178 1.363 . S
C1176 H1192 0.931 . S
C1177 C1176 1.370 . S
C1177 C1181 1.408 . S
C1178 C1176 1.363 . S
C1178 C1179 1.370 . S
C1178 C1182 1.524 . S
C1179 C1171 1.503 . S
C1179 C1178 1.370 . S
C1179 C1180 1.403 . S
C1180 C1179 1.403 . S
C1180 C1181 1.404 . S
C1180 C1183 1.539 . S
C1181 C1177 1.408 . S
C1181 C1180 1.404 . S
C1181 H1193 0.930 . S
C1182 C1178 1.524 . S
C1182 H1194 0.956 . S
C1182 H1195 0.961 . S
C1182 H1196 0.961 . S
C1183 C1180 1.539 . S
C1183 H1197 0.958 . S
C1183 H1198 0.961 . S
C1183 H1199 0.960 . S
H1184 C1168 0.931 . S
H1185 C1173 0.929 . S
H1186 C1174 0.960 . S
H1187 C1174 0.962 . S
H1188 C1174 0.960 . S
H1189 C1175 0.961 . S
H1190 C1175 0.961 . S
H1191 C1175 0.961 . S
H1192 C1176 0.931 . S
H1193 C1181 0.930 . S
H1194 C1182 0.956 . S
H1195 C1182 0.961 . S
H1196 C1182 0.961 . S
H1197 C1183 0.958 . S
H1198 C1183 0.961 . S
H1199 C1183 0.960 . S
C1200 C1201 1.391 . S
C1200 C1202 1.394 . S
C1200 H1216 0.931 . S
C1201 C1200 1.391 . S
C1201 C1205 1.376 . S
C1202 C1200 1.394 . S
C1202 C1203 1.369 . S
C1202 C1206 1.531 . S
C1203 C1202 1.369 . S
C1203 C1204 1.410 . S
C1203 C1211 1.503 . S
C1204 C1203 1.410 . S
C1204 C1205 1.392 . S
C1204 C1207 1.511 . S
C1205 C1201 1.376 . S
C1205 C1204 1.392 . S
C1205 H1217 0.929 . S
C1206 C1202 1.531 . S
C1206 H1218 0.960 . S
C1206 H1219 0.962 . S
C1206 H1220 0.960 . S
C1207 C1204 1.511 . S
C1207 H1221 0.961 . S
C1207 H1222 0.961 . S
C1207 H1223 0.961 . S
C1208 C1209 1.370 . S
C1208 C1210 1.363 . S
C1208 H1224 0.931 . S
C1209 C1208 1.370 . S
C1209 C1213 1.408 . S
C1210 C1208 1.363 . S
C1210 C1211 1.370 . S
C1210 C1214 1.524 . S
C1211 C1203 1.503 . S
C1211 C1210 1.370 . S
C1211 C1212 1.403 . S
C1212 C1211 1.403 . S
C1212 C1213 1.404 . S
C1212 C1215 1.539 . S
C1213 C1209 1.408 . S
C1213 C1212 1.404 . S
C1213 H1225 0.930 . S
C1214 C1210 1.524 . S
C1214 H1226 0.956 . S
C1214 H1227 0.961 . S
C1214 H1228 0.961 . S
C1215 C1212 1.539 . S
C1215 H1229 0.958 . S
C1215 H1230 0.961 . S
C1215 H1231 0.960 . S
H1216 C1200 0.931 . S
H1217 C1205 0.929 . S
H1218 C1206 0.960 . S
H1219 C1206 0.962 . S
H1220 C1206 0.960 . S
H1221 C1207 0.961 . S
H1222 C1207 0.961 . S
H1223 C1207 0.961 . S
H1224 C1208 0.931 . S
H1225 C1213 0.930 . S
H1226 C1214 0.956 . S
H1227 C1214 0.961 . S
H1228 C1214 0.961 . S
H1229 C1215 0.958 . S
H1230 C1215 0.961 . S
H1231 C1215 0.960 . S
C1232 C1233 1.391 . S
C1232 C1234 1.394 . S
C1232 H1248 0.931 . S
C1233 C1232 1.391 . S
C1233 C1237 1.376 . S
C1234 C1232 1.394 . S
C1234 C1235 1.369 . S
C1234 C1238 1.531 . S
C1235 C1234 1.369 . S
C1235 C1236 1.410 . S
C1235 C1243 1.503 . S
C1236 C1235 1.410 . S
C1236 C1237 1.392 . S
C1236 C1239 1.511 . S
C1237 C1233 1.376 . S
C1237 C1236 1.392 . S
C1237 H1249 0.929 . S
C1238 C1234 1.531 . S
C1238 H1250 0.960 . S
C1238 H1251 0.962 . S
C1238 H1252 0.960 . S
C1239 C1236 1.511 . S
C1239 H1253 0.961 . S
C1239 H1254 0.961 . S
C1239 H1255 0.961 . S
C1240 C1241 1.370 . S
C1240 C1242 1.363 . S
C1240 H1256 0.931 . S
C1241 C1240 1.370 . S
C1241 C1245 1.408 . S
C1242 C1240 1.363 . S
C1242 C1243 1.370 . S
C1242 C1246 1.524 . S
C1243 C1235 1.503 . S
C1243 C1242 1.370 . S
C1243 C1244 1.403 . S
C1244 C1243 1.403 . S
C1244 C1245 1.404 . S
C1244 C1247 1.539 . S
C1245 C1241 1.408 . S
C1245 C1244 1.404 . S
C1245 H1257 0.930 . S
C1246 C1242 1.524 . S
C1246 H1258 0.956 . S
C1246 H1259 0.961 . S
C1246 H1260 0.961 . S
C1247 C1244 1.539 . S
C1247 H1261 0.958 . S
C1247 H1262 0.961 . S
C1247 H1263 0.960 . S
H1248 C1232 0.931 . S
H1249 C1237 0.929 . S
H1250 C1238 0.960 . S
H1251 C1238 0.962 . S
H1252 C1238 0.960 . S
H1253 C1239 0.961 . S
H1254 C1239 0.961 . S
H1255 C1239 0.961 . S
H1256 C1240 0.931 . S
H1257 C1245 0.930 . S
H1258 C1246 0.956 . S
H1259 C1246 0.961 . S
H1260 C1246 0.961 . S
H1261 C1247 0.958 . S
H1262 C1247 0.961 . S
H1263 C1247 0.960 . S
C1264 C1265 1.391 . S
C1264 C1266 1.394 . S
C1264 H1280 0.931 . S
C1265 C1264 1.391 . S
C1265 C1269 1.376 . S
C1266 C1264 1.394 . S
C1266 C1267 1.369 . S
C1266 C1270 1.531 . S
C1267 C1266 1.369 . S
C1267 C1268 1.410 . S
C1267 C1275 1.503 . S
C1268 C1267 1.410 . S
C1268 C1269 1.392 . S
C1268 C1271 1.511 . S
C1269 C1265 1.376 . S
C1269 C1268 1.392 . S
C1269 H1281 0.929 . S
C1270 C1266 1.531 . S
C1270 H1282 0.960 . S
C1270 H1283 0.962 . S
C1270 H1284 0.960 . S
C1271 C1268 1.511 . S
C1271 H1285 0.961 . S
C1271 H1286 0.961 . S
C1271 H1287 0.961 . S
C1272 C1273 1.370 . S
C1272 C1274 1.363 . S
C1272 H1288 0.931 . S
C1273 C1272 1.370 . S
C1273 C1277 1.408 . S
C1274 C1272 1.363 . S
C1274 C1275 1.370 . S
C1274 C1278 1.524 . S
C1275 C1267 1.503 . S
C1275 C1274 1.370 . S
C1275 C1276 1.403 . S
C1276 C1275 1.403 . S
C1276 C1277 1.404 . S
C1276 C1279 1.539 . S
C1277 C1273 1.408 . S
C1277 C1276 1.404 . S
C1277 H1289 0.930 . S
C1278 C1274 1.524 . S
C1278 H1290 0.956 . S
C1278 H1291 0.961 . S
C1278 H1292 0.961 . S
C1279 C1276 1.539 . S
C1279 H1293 0.958 . S
C1279 H1294 0.961 . S
C1279 H1295 0.960 . S
H1280 C1264 0.931 . S
H1281 C1269 0.929 . S
H1282 C1270 0.960 . S
H1283 C1270 0.962 . S
H1284 C1270 0.960 . S
H1285 C1271 0.961 . S
H1286 C1271 0.961 . S
H1287 C1271 0.961 . S
H1288 C1272 0.931 . S
H1289 C1277 0.930 . S
H1290 C1278 0.956 . S
H1291 C1278 0.961 . S
H1292 C1278 0.961 . S
H1293 C1279 0.958 . S
H1294 C1279 0.961 . S
H1295 C1279 0.960 . S
C1296 C1297 1.391 . S
C1296 C1298 1.394 . S
C1296 H1312 0.931 . S
C1297 C1296 1.391 . S
C1297 C1301 1.376 . S
C1298 C1296 1.394 . S
C1298 C1299 1.369 . S
C1298 C1302 1.531 . S
C1299 C1298 1.369 . S
C1299 C1300 1.410 . S
C1299 C1307 1.503 . S
C1300 C1299 1.410 . S
C1300 C1301 1.392 . S
C1300 C1303 1.511 . S
C1301 C1297 1.376 . S
C1301 C1300 1.392 . S
C1301 H1313 0.929 . S
C1302 C1298 1.531 . S
C1302 H1314 0.960 . S
C1302 H1315 0.962 . S
C1302 H1316 0.960 . S
C1303 C1300 1.511 . S
C1303 H1317 0.961 . S
C1303 H1318 0.961 . S
C1303 H1319 0.961 . S
C1304 C1305 1.370 . S
C1304 C1306 1.363 . S
C1304 H1320 0.931 . S
C1305 C1304 1.370 . S
C1305 C1309 1.408 . S
C1306 C1304 1.363 . S
C1306 C1307 1.370 . S
C1306 C1310 1.524 . S
C1307 C1299 1.503 . S
C1307 C1306 1.370 . S
C1307 C1308 1.403 . S
C1308 C1307 1.403 . S
C1308 C1309 1.404 . S
C1308 C1311 1.539 . S
C1309 C1305 1.408 . S
C1309 C1308 1.404 . S
C1309 H1321 0.930 . S
C1310 C1306 1.524 . S
C1310 H1322 0.956 . S
C1310 H1323 0.961 . S
C1310 H1324 0.961 . S
C1311 C1308 1.539 . S
C1311 H1325 0.958 . S
C1311 H1326 0.961 . S
C1311 H1327 0.960 . S
H1312 C1296 0.931 . S
H1313 C1301 0.929 . S
H1314 C1302 0.960 . S
H1315 C1302 0.962 . S
H1316 C1302 0.960 . S
H1317 C1303 0.961 . S
H1318 C1303 0.961 . S
H1319 C1303 0.961 . S
H1320 C1304 0.931 . S
H1321 C1309 0.930 . S
H1322 C1310 0.956 . S
H1323 C1310 0.961 . S
H1324 C1310 0.961 . S
H1325 C1311 0.958 . S
H1326 C1311 0.961 . S
H1327 C1311 0.960 . S
C1328 C1329 1.391 . S
C1328 C1330 1.394 . S
C1328 H1344 0.931 . S
C1329 C1328 1.391 . S
C1329 C1333 1.376 . S
C1330 C1328 1.394 . S
C1330 C1331 1.369 . S
C1330 C1334 1.531 . S
C1331 C1330 1.369 . S
C1331 C1332 1.410 . S
C1331 C1339 1.503 . S
C1332 C1331 1.410 . S
C1332 C1333 1.392 . S
C1332 C1335 1.511 . S
C1333 C1329 1.376 . S
C1333 C1332 1.392 . S
C1333 H1345 0.929 . S
C1334 C1330 1.531 . S
C1334 H1346 0.960 . S
C1334 H1347 0.962 . S
C1334 H1348 0.960 . S
C1335 C1332 1.511 . S
C1335 H1349 0.961 . S
C1335 H1350 0.961 . S
C1335 H1351 0.961 . S
C1336 C1337 1.370 . S
C1336 C1338 1.363 . S
C1336 H1352 0.931 . S
C1337 C1336 1.370 . S
C1337 C1341 1.408 . S
C1338 C1336 1.363 . S
C1338 C1339 1.370 . S
C1338 C1342 1.524 . S
C1339 C1331 1.503 . S
C1339 C1338 1.370 . S
C1339 C1340 1.403 . S
C1340 C1339 1.403 . S
C1340 C1341 1.404 . S
C1340 C1343 1.539 . S
C1341 C1337 1.408 . S
C1341 C1340 1.404 . S
C1341 H1353 0.930 . S
C1342 C1338 1.524 . S
C1342 H1354 0.956 . S
C1342 H1355 0.961 . S
C1342 H1356 0.961 . S
C1343 C1340 1.539 . S
C1343 H1357 0.958 . S
C1343 H1358 0.961 . S
C1343 H1359 0.960 . S
H1344 C1328 0.931 . S
H1345 C1333 0.929 . S
H1346 C1334 0.960 . S
H1347 C1334 0.962 . S
H1348 C1334 0.960 . S
H1349 C1335 0.961 . S
H1350 C1335 0.961 . S
H1351 C1335 0.961 . S
H1352 C1336 0.931 . S
H1353 C1341 0.930 . S
H1354 C1342 0.956 . S
H1355 C1342 0.961 . S
H1356 C1342 0.961 . S
H1357 C1343 0.958 . S
H1358 C1343 0.961 . S
H1359 C1343 0.960 . S
C1360 C1361 1.391 . S
C1360 C1362 1.394 . S
C1360 H1376 0.931 . S
C1361 C1360 1.391 . S
C1361 C1365 1.376 . S
C1362 C1360 1.394 . S
C1362 C1363 1.369 . S
C1362 C1366 1.531 . S
C1363 C1362 1.369 . S
C1363 C1364 1.410 . S
C1363 C1371 1.503 . S
C1364 C1363 1.410 . S
C1364 C1365 1.392 . S
C1364 C1367 1.511 . S
C1365 C1361 1.376 . S
C1365 C1364 1.392 . S
C1365 H1377 0.929 . S
C1366 C1362 1.531 . S
C1366 H1378 0.960 . S
C1366 H1379 0.962 . S
C1366 H1380 0.960 . S
C1367 C1364 1.511 . S
C1367 H1381 0.961 . S
C1367 H1382 0.961 . S
C1367 H1383 0.961 . S
C1368 C1369 1.370 . S
C1368 C1370 1.363 . S
C1368 H1384 0.931 . S
C1369 C1368 1.370 . S
C1369 C1373 1.408 . S
C1370 C1368 1.363 . S
C1370 C1371 1.370 . S
C1370 C1374 1.524 . S
C1371 C1363 1.503 . S
C1371 C1370 1.370 . S
C1371 C1372 1.403 . S
C1372 C1371 1.403 . S
C1372 C1373 1.404 . S
C1372 C1375 1.539 . S
C1373 C1369 1.408 . S
C1373 C1372 1.404 . S
C1373 H1385 0.930 . S
C1374 C1370 1.524 . S
C1374 H1386 0.956 . S
C1374 H1387 0.961 . S
C1374 H1388 0.961 . S
C1375 C1372 1.539 . S
C1375 H1389 0.958 . S
C1375 H1390 0.961 . S
C1375 H1391 0.960 . S
H1376 C1360 0.931 . S
H1377 C1365 0.929 . S
H1378 C1366 0.960 . S
H1379 C1366 0.962 . S
H1380 C1366 0.960 . S
H1381 C1367 0.961 . S
H1382 C1367 0.961 . S
H1383 C1367 0.961 . S
H1384 C1368 0.931 . S
H1385 C1373 0.930 . S
H1386 C1374 0.956 . S
H1387 C1374 0.961 . S
H1388 C1374 0.961 . S
H1389 C1375 0.958 . S
H1390 C1375 0.961 . S
H1391 C1375 0.960 . S
C1392 C1393 1.391 . S
C1392 C1394 1.394 . S
C1392 H1408 0.931 . S
C1393 C1392 1.391 . S
C1393 C1397 1.376 . S
C1394 C1392 1.394 . S
C1394 C1395 1.369 . S
C1394 C1398 1.531 . S
C1395 C1394 1.369 . S
C1395 C1396 1.410 . S
C1395 C1403 1.503 . S
C1396 C1395 1.410 . S
C1396 C1397 1.392 . S
C1396 C1399 1.511 . S
C1397 C1393 1.376 . S
C1397 C1396 1.392 . S
C1397 H1409 0.929 . S
C1398 C1394 1.531 . S
C1398 H1410 0.960 . S
C1398 H1411 0.962 . S
C1398 H1412 0.960 . S
C1399 C1396 1.511 . S
C1399 H1413 0.961 . S
C1399 H1414 0.961 . S
C1399 H1415 0.961 . S
C1400 C1401 1.370 . S
C1400 C1402 1.363 . S
C1400 H1416 0.931 . S
C1401 C1400 1.370 . S
C1401 C1405 1.408 . S
C1402 C1400 1.363 . S
C1402 C1403 1.370 . S
C1402 C1406 1.524 . S
C1403 C1395 1.503 . S
C1403 C1402 1.370 . S
C1403 C1404 1.403 . S
C1404 C1403 1.403 . S
C1404 C1405 1.404 . S
C1404 C1407 1.539 . S
C1405 C1401 1.408 . S
C1405 C1404 1.404 . S
C1405 H1417 0.930 . S
C1406 C1402 1.524 . S
C1406 H1418 0.956 . S
C1406 H1419 0.961 . S
C1406 H1420 0.961 . S
C1407 C1404 1.539 . S
C1407 H1421 0.958 . S
C1407 H1422 0.961 . S
C1407 H1423 0.960 . S
H1408 C1392 0.931 . S
H1409 C1397 0.929 . S
H1410 C1398 0.960 . S
H1411 C1398 0.962 . S
H1412 C1398 0.960 . S
H1413 C1399 0.961 . S
H1414 C1399 0.961 . S
H1415 C1399 0.961 . S
H1416 C1400 0.931 . S
H1417 C1405 0.930 . S
H1418 C1406 0.956 . S
H1419 C1406 0.961 . S
H1420 C1406 0.961 . S
H1421 C1407 0.958 . S
H1422 C1407 0.961 . S
H1423 C1407 0.960 . S
C1424 C1425 1.391 . S
C1424 C1426 1.394 . S
C1424 H1440 0.931 . S
C1425 C1424 1.391 . S
C1425 C1429 1.376 . S
C1426 C1424 1.394 . S
C1426 C1427 1.369 . S
C1426 C1430 1.531 . S
C1427 C1426 1.369 . S
C1427 C1428 1.410 . S
C1427 C1435 1.503 . S
C1428 C1427 1.410 . S
C1428 C1429 1.392 . S
C1428 C1431 1.511 . S
C1429 C1425 1.376 . S
C1429 C1428 1.392 . S
C1429 H1441 0.929 . S
C1430 C1426 1.531 . S
C1430 H1442 0.960 . S
C1430 H1443 0.962 . S
C1430 H1444 0.960 . S
C1431 C1428 1.511 . S
C1431 H1445 0.961 . S
C1431 H1446 0.961 . S
C1431 H1447 0.961 . S
C1432 C1433 1.370 . S
C1432 C1434 1.363 . S
C1432 H1448 0.931 . S
C1433 C1432 1.370 . S
C1433 C1437 1.408 . S
C1434 C1432 1.363 . S
C1434 C1435 1.370 . S
C1434 C1438 1.524 . S
C1435 C1427 1.503 . S
C1435 C1434 1.370 . S
C1435 C1436 1.403 . S
C1436 C1435 1.403 . S
C1436 C1437 1.404 . S
C1436 C1439 1.539 . S
C1437 C1433 1.408 . S
C1437 C1436 1.404 . S
C1437 H1449 0.930 . S
C1438 C1434 1.524 . S
C1438 H1450 0.956 . S
C1438 H1451 0.961 . S
C1438 H1452 0.961 . S
C1439 C1436 1.539 . S
C1439 H1453 0.958 . S
C1439 H1454 0.961 . S
C1439 H1455 0.960 . S
H1440 C1424 0.931 . S
H1441 C1429 0.929 . S
H1442 C1430 0.960 . S
H1443 C1430 0.962 . S
H1444 C1430 0.960 . S
H1445 C1431 0.961 . S
H1446 C1431 0.961 . S
H1447 C1431 0.961 . S
H1448 C1432 0.931 . S
H1449 C1437 0.930 . S
H1450 C1438 0.956 . S
H1451 C1438 0.961 . S
H1452 C1438 0.961 . S
H1453 C1439 0.958 . S
H1454 C1439 0.961 . S
H1455 C1439 0.960 . S
C1456 C1457 1.391 . S
C1456 C1458 1.394 . S
C1456 H1472 0.931 . S
C1457 C1456 1.391 . S
C1457 C1461 1.376 . S
C1458 C1456 1.394 . S
C1458 C1459 1.369 . S
C1458 C1462 1.531 . S
C1459 C1458 1.369 . S
C1459 C1460 1.410 . S
C1459 C1467 1.503 . S
C1460 C1459 1.410 . S
C1460 C1461 1.392 . S
C1460 C1463 1.511 . S
C1461 C1457 1.376 . S
C1461 C1460 1.392 . S
C1461 H1473 0.929 . S
C1462 C1458 1.531 . S
C1462 H1474 0.960 . S
C1462 H1475 0.962 . S
C1462 H1476 0.960 . S
C1463 C1460 1.511 . S
C1463 H1477 0.961 . S
C1463 H1478 0.961 . S
C1463 H1479 0.961 . S
C1464 C1465 1.370 . S
C1464 C1466 1.363 . S
C1464 H1480 0.931 . S
C1465 C1464 1.370 . S
C1465 C1469 1.408 . S
C1466 C1464 1.363 . S
C1466 C1467 1.370 . S
C1466 C1470 1.524 . S
C1467 C1459 1.503 . S
C1467 C1466 1.370 . S
C1467 C1468 1.403 . S
C1468 C1467 1.403 . S
C1468 C1469 1.404 . S
C1468 C1471 1.539 . S
C1469 C1465 1.408 . S
C1469 C1468 1.404 . S
C1469 H1481 0.930 . S
C1470 C1466 1.524 . S
C1470 H1482 0.956 . S
C1470 H1483 0.961 . S
C1470 H1484 0.961 . S
C1471 C1468 1.539 . S
C1471 H1485 0.958 . S
C1471 H1486 0.961 . S
C1471 H1487 0.960 . S
H1472 C1456 0.931 . S
H1473 C1461 0.929 . S
H1474 C1462 0.960 . S
H1475 C1462 0.962 . S
H1476 C1462 0.960 . S
H1477 C1463 0.961 . S
H1478 C1463 0.961 . S
H1479 C1463 0.961 . S
H1480 C1464 0.931 . S
H1481 C1469 0.930 . S
H1482 C1470 0.956 . S
H1483 C1470 0.961 . S
H1484 C1470 0.961 . S
H1485 C1471 0.958 . S
H1486 C1471 0.961 . S
H1487 C1471 0.960 . S
C1488 C1489 1.391 . S
C1488 C1490 1.394 . S
C1488 H1504 0.931 . S
C1489 C1488 1.391 . S
C1489 C1493 1.376 . S
C1490 C1488 1.394 . S
C1490 C1491 1.369 . S
C1490 C1494 1.531 . S
C1491 C1490 1.369 . S
C1491 C1492 1.410 . S
C1491 C1499 1.503 . S
C1492 C1491 1.410 . S
C1492 C1493 1.392 . S
C1492 C1495 1.511 . S
C1493 C1489 1.376 . S
C1493 C1492 1.392 . S
C1493 H1505 0.929 . S
C1494 C1490 1.531 . S
C1494 H1506 0.960 . S
C1494 H1507 0.962 . S
C1494 H1508 0.960 . S
C1495 C1492 1.511 . S
C1495 H1509 0.961 . S
C1495 H1510 0.961 . S
C1495 H1511 0.961 . S
C1496 C1497 1.370 . S
C1496 C1498 1.363 . S
C1496 H1512 0.931 . S
C1497 C1496 1.370 . S
C1497 C1501 1.408 . S
C1498 C1496 1.363 . S
C1498 C1499 1.370 . S
C1498 C1502 1.524 . S
C1499 C1491 1.503 . S
C1499 C1498 1.370 . S
C1499 C1500 1.403 . S
C1500 C1499 1.403 . S
C1500 C1501 1.404 . S
C1500 C1503 1.539 . S
C1501 C1497 1.408 . S
C1501 C1500 1.404 . S
C1501 H1513 0.930 . S
C1502 C1498 1.524 . S
C1502 H1514 0.956 . S
C1502 H1515 0.961 . S
C1502 H1516 0.961 . S
C1503 C1500 1.539 . S
C1503 H1517 0.958 . S
C1503 H1518 0.961 . S
C1503 H1519 0.960 . S
H1504 C1488 0.931 . S
H1505 C1493 0.929 . S
H1506 C1494 0.960 . S
H1507 C1494 0.962 . S
H1508 C1494 0.960 . S
H1509 C1495 0.961 . S
H1510 C1495 0.961 . S
H1511 C1495 0.961 . S
H1512 C1496 0.931 . S
H1513 C1501 0.930 . S
H1514 C1502 0.956 . S
H1515 C1502 0.961 . S
H1516 C1502 0.961 . S
H1517 C1503 0.958 . S
H1518 C1503 0.961 . S
H1519 C1503 0.960 . S
C1520 C1521 1.391 . S
C1520 C1522 1.394 . S
C1520 H1536 0.931 . S
C1521 C1520 1.391 . S
C1521 C1525 1.376 . S
C1522 C1520 1.394 . S
C1522 C1523 1.369 . S
C1522 C1526 1.531 . S
C1523 C1522 1.369 . S
C1523 C1524 1.410 . S
C1523 C1531 1.503 . S
C1524 C1523 1.410 . S
C1524 C1525 1.392 . S
C1524 C1527 1.511 . S
C1525 C1521 1.376 . S
C1525 C1524 1.392 . S
C1525 H1537 0.929 . S
C1526 C1522 1.531 . S
C1526 H1538 0.960 . S
C1526 H1539 0.962 . S
C1526 H1540 0.960 . S
C1527 C1524 1.511 . S
C1527 H1541 0.961 . S
C1527 H1542 0.961 . S
C1527 H1543 0.961 . S
C1528 C1529 1.370 . S
C1528 C1530 1.363 . S
C1528 H1544 0.931 . S
C1529 C1528 1.370 . S
C1529 C1533 1.408 . S
C1530 C1528 1.363 . S
C1530 C1531 1.370 . S
C1530 C1534 1.524 . S
C1531 C1523 1.503 . S
C1531 C1530 1.370 . S
C1531 C1532 1.403 . S
C1532 C1531 1.403 . S
C1532 C1533 1.404 . S
C1532 C1535 1.539 . S
C1533 C1529 1.408 . S
C1533 C1532 1.404 . S
C1533 H1545 0.930 . S
C1534 C1530 1.524 . S
C1534 H1546 0.956 . S
C1534 H1547 0.961 . S
C1534 H1548 0.961 . S
C1535 C1532 1.539 . S
C1535 H1549 0.958 . S
C1535 H1550 0.961 . S
C1535 H1551 0.960 . S
H1536 C1520 0.931 . S
H1537 C1525 0.929 . S
H1538 C1526 0.960 . S
H1539 C1526 0.962 . S
H1540 C1526 0.960 . S
H1541 C1527 0.961 . S
H1542 C1527 0.961 . S
H1543 C1527 0.961 . S
H1544 C1528 0.931 . S
H1545 C1533 0.930 . S
H1546 C1534 0.956 . S
H1547 C1534 0.961 . S
H1548 C1534 0.961 . S
H1549 C1535 0.958 . S
H1550 C1535 0.961 . S
H1551 C1535 0.960 . S
C1552 C1553 1.391 . S
C1552 C1554 1.394 . S
C1552 H1568 0.931 . S
C1553 C1552 1.391 . S
C1553 C1557 1.376 . S
C1554 C1552 1.394 . S
C1554 C1555 1.369 . S
C1554 C1558 1.531 . S
C1555 C1554 1.369 . S
C1555 C1556 1.410 . S
C1555 C1563 1.503 . S
C1556 C1555 1.410 . S
C1556 C1557 1.392 . S
C1556 C1559 1.511 . S
C1557 C1553 1.376 . S
C1557 C1556 1.392 . S
C1557 H1569 0.929 . S
C1558 C1554 1.531 . S
C1558 H1570 0.960 . S
C1558 H1571 0.962 . S
C1558 H1572 0.960 . S
C1559 C1556 1.511 . S
C1559 H1573 0.961 . S
C1559 H1574 0.961 . S
C1559 H1575 0.961 . S
C1560 C1561 1.370 . S
C1560 C1562 1.363 . S
C1560 H1576 0.931 . S
C1561 C1560 1.370 . S
C1561 C1565 1.408 . S
C1562 C1560 1.363 . S
C1562 C1563 1.370 . S
C1562 C1566 1.524 . S
C1563 C1555 1.503 . S
C1563 C1562 1.370 . S
C1563 C1564 1.403 . S
C1564 C1563 1.403 . S
C1564 C1565 1.404 . S
C1564 C1567 1.539 . S
C1565 C1561 1.408 . S
C1565 C1564 1.404 . S
C1565 H1577 0.930 . S
C1566 C1562 1.524 . S
C1566 H1578 0.956 . S
C1566 H1579 0.961 . S
C1566 H1580 0.961 . S
C1567 C1564 1.539 . S
C1567 H1581 0.958 . S
C1567 H1582 0.961 . S
C1567 H1583 0.960 . S
H1568 C1552 0.931 . S
H1569 C1557 0.929 . S
H1570 C1558 0.960 . S
H1571 C1558 0.962 . S
H1572 C1558 0.960 . S
H1573 C1559 0.961 . S
H1574 C1559 0.961 . S
H1575 C1559 0.961 . S
H1576 C1560 0.931 . S
H1577 C1565 0.930 . S
H1578 C1566 0.956 . S
H1579 C1566 0.961 . S
H1580 C1566 0.961 . S
H1581 C1567 0.958 . S
H1582 C1567 0.961 . S
H1583 C1567 0.960 . S
C1584 C1585 1.391 . S
C1584 C1586 1.394 . S
C1584 H1600 0.931 . S
C1585 C1584 1.391 . S
C1585 C1589 1.376 . S
C1586 C1584 1.394 . S
C1586 C1587 1.369 . S
C1586 C1590 1.531 . S
C1587 C1586 1.369 . S
C1587 C1588 1.410 . S
C1587 C1595 1.503 . S
C1588 C1587 1.410 . S
C1588 C1589 1.392 . S
C1588 C1591 1.511 . S
C1589 C1585 1.376 . S
C1589 C1588 1.392 . S
C1589 H1601 0.929 . S
C1590 C1586 1.531 . S
C1590 H1602 0.960 . S
C1590 H1603 0.962 . S
C1590 H1604 0.960 . S
C1591 C1588 1.511 . S
C1591 H1605 0.961 . S
C1591 H1606 0.961 . S
C1591 H1607 0.961 . S
C1592 C1593 1.370 . S
C1592 C1594 1.363 . S
C1592 H1608 0.931 . S
C1593 C1592 1.370 . S
C1593 C1597 1.408 . S
C1594 C1592 1.363 . S
C1594 C1595 1.370 . S
C1594 C1598 1.524 . S
C1595 C1587 1.503 . S
C1595 C1594 1.370 . S
C1595 C1596 1.403 . S
C1596 C1595 1.403 . S
C1596 C1597 1.404 . S
C1596 C1599 1.539 . S
C1597 C1593 1.408 . S
C1597 C1596 1.404 . S
C1597 H1609 0.930 . S
C1598 C1594 1.524 . S
C1598 H1610 0.956 . S
C1598 H1611 0.961 . S
C1598 H1612 0.961 . S
C1599 C1596 1.539 . S
C1599 H1613 0.958 . S
C1599 H1614 0.961 . S
C1599 H1615 0.960 . S
H1600 C1584 0.931 . S
H1601 C1589 0.929 . S
H1602 C1590 0.960 . S
H1603 C1590 0.962 . S
H1604 C1590 0.960 . S
H1605 C1591 0.961 . S
H1606 C1591 0.961 . S
H1607 C1591 0.961 . S
H1608 C1592 0.931 . S
H1609 C1597 0.930 . S
H1610 C1598 0.956 . S
H1611 C1598 0.961 . S
H1612 C1598 0.961 . S
H1613 C1599 0.958 . S
H1614 C1599 0.961 . S
H1615 C1599 0.960 . S
C1616 C1617 1.391 . S
C1616 C1618 1.394 . S
C1616 H1632 0.931 . S
C1617 C1616 1.391 . S
C1617 C1621 1.376 . S
C1618 C1616 1.394 . S
C1618 C1619 1.369 . S
C1618 C1622 1.531 . S
C1619 C1618 1.369 . S
C1619 C1620 1.410 . S
C1619 C1627 1.503 . S
C1620 C1619 1.410 . S
C1620 C1621 1.392 . S
C1620 C1623 1.511 . S
C1621 C1617 1.376 . S
C1621 C1620 1.392 . S
C1621 H1633 0.929 . S
C1622 C1618 1.531 . S
C1622 H1634 0.960 . S
C1622 H1635 0.962 . S
C1622 H1636 0.960 . S
C1623 C1620 1.511 . S
C1623 H1637 0.961 . S
C1623 H1638 0.961 . S
C1623 H1639 0.961 . S
C1624 C1625 1.370 . S
C1624 C1626 1.363 . S
C1624 H1640 0.931 . S
C1625 C1624 1.370 . S
C1625 C1629 1.408 . S
C1626 C1624 1.363 . S
C1626 C1627 1.370 . S
C1626 C1630 1.524 . S
C1627 C1619 1.503 . S
C1627 C1626 1.370 . S
C1627 C1628 1.403 . S
C1628 C1627 1.403 . S
C1628 C1629 1.404 . S
C1628 C1631 1.539 . S
C1629 C1625 1.408 . S
C1629 C1628 1.404 . S
C1629 H1641 0.930 . S
C1630 C1626 1.524 . S
C1630 H1642 0.956 . S
C1630 H1643 0.961 . S
C1630 H1644 0.961 . S
C1631 C1628 1.539 . S
C1631 H1645 0.958 . S
C1631 H1646 0.961 . S
C1631 H1647 0.960 . S
H1632 C1616 0.931 . S
H1633 C1621 0.929 . S
H1634 C1622 0.960 . S
H1635 C1622 0.962 . S
H1636 C1622 0.960 . S
H1637 C1623 0.961 . S
H1638 C1623 0.961 . S
H1639 C1623 0.961 . S
H1640 C1624 0.931 . S
H1641 C1629 0.930 . S
H1642 C1630 0.956 . S
H1643 C1630 0.961 . S
H1644 C1630 0.961 . S
H1645 C1631 0.958 . S
H1646 C1631 0.961 . S
H1647 C1631 0.960 . S
C1648 C1649 1.391 . S
C1648 C1650 1.394 . S
C1648 H1664 0.931 . S
C1649 C1648 1.391 . S
C1649 C1653 1.376 . S
C1650 C1648 1.394 . S
C1650 C1651 1.369 . S
C1650 C1654 1.531 . S
C1651 C1650 1.369 . S
C1651 C1652 1.410 . S
C1651 C1659 1.503 . S
C1652 C1651 1.410 . S
C1652 C1653 1.392 . S
C1652 C1655 1.511 . S
C1653 C1649 1.376 . S
C1653 C1652 1.392 . S
C1653 H1665 0.929 . S
C1654 C1650 1.531 . S
C1654 H1666 0.960 . S
C1654 H1667 0.962 . S
C1654 H1668 0.960 . S
C1655 C1652 1.511 . S
C1655 H1669 0.961 . S
C1655 H1670 0.961 . S
C1655 H1671 0.961 . S
C1656 C1657 1.370 . S
C1656 C1658 1.363 . S
C1656 H1672 0.931 . S
C1657 C1656 1.370 . S
C1657 C1661 1.408 . S
C1658 C1656 1.363 . S
C1658 C1659 1.370 . S
C1658 C1662 1.524 . S
C1659 C1651 1.503 . S
C1659 C1658 1.370 . S
C1659 C1660 1.403 . S
C1660 C1659 1.403 . S
C1660 C1661 1.404 . S
C1660 C1663 1.539 . S
C1661 C1657 1.408 . S
C1661 C1660 1.404 . S
C1661 H1673 0.930 . S
C1662 C1658 1.524 . S
C1662 H1674 0.956 . S
C1662 H1675 0.961 . S
C1662 H1676 0.961 . S
C1663 C1660 1.539 . S
C1663 H1677 0.958 . S
C1663 H1678 0.961 . S
C1663 H1679 0.960 . S
H1664 C1648 0.931 . S
H1665 C1653 0.929 . S
H1666 C1654 0.960 . S
H1667 C1654 0.962 . S
H1668 C1654 0.960 . S
H1669 C1655 0.961 . S
H1670 C1655 0.961 . S
H1671 C1655 0.961 . S
H1672 C1656 0.931 . S
H1673 C1661 0.930 . S
H1674 C1662 0.956 . S
H1675 C1662 0.961 . S
H1676 C1662 0.961 . S
H1677 C1663 0.958 . S
H1678 C1663 0.961 . S
H1679 C1663 0.960 . S
C1680 C1681 1.391 . S
C1680 C1682 1.394 . S
C1680 H1696 0.931 . S
C1681 C1680 1.391 . S
C1681 C1685 1.376 . S
C1682 C1680 1.394 . S
C1682 C1683 1.369 . S
C1682 C1686 1.531 . S
C1683 C1682 1.369 . S
C1683 C1684 1.410 . S
C1683 C1691 1.503 . S
C1684 C1683 1.410 . S
C1684 C1685 1.392 . S
C1684 C1687 1.511 . S
C1685 C1681 1.376 . S
C1685 C1684 1.392 . S
C1685 H1697 0.929 . S
C1686 C1682 1.531 . S
C1686 H1698 0.960 . S
C1686 H1699 0.962 . S
C1686 H1700 0.960 . S
C1687 C1684 1.511 . S
C1687 H1701 0.961 . S
C1687 H1702 0.961 . S
C1687 H1703 0.961 . S
C1688 C1689 1.370 . S
C1688 C1690 1.363 . S
C1688 H1704 0.931 . S
C1689 C1688 1.370 . S
C1689 C1693 1.408 . S
C1690 C1688 1.363 . S
C1690 C1691 1.370 . S
C1690 C1694 1.524 . S
C1691 C1683 1.503 . S
C1691 C1690 1.370 . S
C1691 C1692 1.403 . S
C1692 C1691 1.403 . S
C1692 C1693 1.404 . S
C1692 C1695 1.539 . S
C1693 C1689 1.408 . S
C1693 C1692 1.404 . S
C1693 H1705 0.930 . S
C1694 C1690 1.524 . S
C1694 H1706 0.956 . S
C1694 H1707 0.961 . S
C1694 H1708 0.961 . S
C1695 C1692 1.539 . S
C1695 H1709 0.958 . S
C1695 H1710 0.961 . S
C1695 H1711 0.960 . S
H1696 C1680 0.931 . S
H1697 C1685 0.929 . S
H1698 C1686 0.960 . S
H1699 C1686 0.962 . S
H1700 C1686 0.960 . S
H1701 C1687 0.961 . S
H1702 C1687 0.961 . S
H1703 C1687 0.961 . S
H1704 C1688 0.931 . S
H1705 C1693 0.930 . S
H1706 C1694 0.956 . S
H1707 C1694 0.961 . S
H1708 C1694 0.961 . S
H1709 C1695 0.958 . S
H1710 C1695 0.961 . S
H1711 C1695 0.960 . S
C1712 C1713 1.391 . S
C1712 C1714 1.394 . S
C1712 H1728 0.931 . S
C1713 C1712 1.391 . S
C1713 C1717 1.376 . S
C1714 C1712 1.394 . S
C1714 C1715 1.369 . S
C1714 C1718 1.531 . S
C1715 C1714 1.369 . S
C1715 C1716 1.410 . S
C1715 C1723 1.503 . S
C1716 C1715 1.410 . S
C1716 C1717 1.392 . S
C1716 C1719 1.511 . S
C1717 C1713 1.376 . S
C1717 C1716 1.392 . S
C1717 H1729 0.929 . S
C1718 C1714 1.531 . S
C1718 H1730 0.960 . S
C1718 H1731 0.962 . S
C1718 H1732 0.960 . S
C1719 C1716 1.511 . S
C1719 H1733 0.961 . S
C1719 H1734 0.961 . S
C1719 H1735 0.961 . S
C1720 C1721 1.370 . S
C1720 C1722 1.363 . S
C1720 H1736 0.931 . S
C1721 C1720 1.370 . S
C1721 C1725 1.408 . S
C1722 C1720 1.363 . S
C1722 C1723 1.370 . S
C1722 C1726 1.524 . S
C1723 C1715 1.503 . S
C1723 C1722 1.370 . S
C1723 C1724 1.403 . S
C1724 C1723 1.403 . S
C1724 C1725 1.404 . S
C1724 C1727 1.539 . S
C1725 C1721 1.408 . S
C1725 C1724 1.404 . S
C1725 H1737 0.930 . S
C1726 C1722 1.524 . S
C1726 H1738 0.956 . S
C1726 H1739 0.961 . S
C1726 H1740 0.961 . S
C1727 C1724 1.539 . S
C1727 H1741 0.958 . S
C1727 H1742 0.961 . S
C1727 H1743 0.960 . S
H1728 C1712 0.931 . S
H1729 C1717 0.929 . S
H1730 C1718 0.960 . S
H1731 C1718 0.962 . S
H1732 C1718 0.960 . S
H1733 C1719 0.961 . S
H1734 C1719 0.961 . S
H1735 C1719 0.961 . S
H1736 C1720 0.931 . S
H1737 C1725 0.930 . S
H1738 C1726 0.956 . S
H1739 C1726 0.961 . S
H1740 C1726 0.961 . S
H1741 C1727 0.958 . S
H1742 C1727 0.961 . S
H1743 C1727 0.960 . S
C1744 C1745 1.391 . S
C1744 C1746 1.394 . S
C1744 H1760 0.931 . S
C1745 C1744 1.391 . S
C1745 C1749 1.376 . S
C1746 C1744 1.394 . S
C1746 C1747 1.369 . S
C1746 C1750 1.531 . S
C1747 C1746 1.369 . S
C1747 C1748 1.410 . S
C1747 C1755 1.503 . S
C1748 C1747 1.410 . S
C1748 C1749 1.392 . S
C1748 C1751 1.511 . S
C1749 C1745 1.376 . S
C1749 C1748 1.392 . S
C1749 H1761 0.929 . S
C1750 C1746 1.531 . S
C1750 H1762 0.960 . S
C1750 H1763 0.962 . S
C1750 H1764 0.960 . S
C1751 C1748 1.511 . S
C1751 H1765 0.961 . S
C1751 H1766 0.961 . S
C1751 H1767 0.961 . S
C1752 C1753 1.370 . S
C1752 C1754 1.363 . S
C1752 H1768 0.931 . S
C1753 C1752 1.370 . S
C1753 C1757 1.408 . S
C1754 C1752 1.363 . S
C1754 C1755 1.370 . S
C1754 C1758 1.524 . S
C1755 C1747 1.503 . S
C1755 C1754 1.370 . S
C1755 C1756 1.403 . S
C1756 C1755 1.403 . S
C1756 C1757 1.404 . S
C1756 C1759 1.539 . S
C1757 C1753 1.408 . S
C1757 C1756 1.404 . S
C1757 H1769 0.930 . S
C1758 C1754 1.524 . S
C1758 H1770 0.956 . S
C1758 H1771 0.961 . S
C1758 H1772 0.961 . S
C1759 C1756 1.539 . S
C1759 H1773 0.958 . S
C1759 H1774 0.961 . S
C1759 H1775 0.960 . S
H1760 C1744 0.931 . S
H1761 C1749 0.929 . S
H1762 C1750 0.960 . S
H1763 C1750 0.962 . S
H1764 C1750 0.960 . S
H1765 C1751 0.961 . S
H1766 C1751 0.961 . S
H1767 C1751 0.961 . S
H1768 C1752 0.931 . S
H1769 C1757 0.930 . S
H1770 C1758 0.956 . S
H1771 C1758 0.961 . S
H1772 C1758 0.961 . S
H1773 C1759 0.958 . S
H1774 C1759 0.961 . S
H1775 C1759 0.960 . S
C1776 C1777 1.391 . S
C1776 C1778 1.394 . S
C1776 H1792 0.931 . S
C1777 C1776 1.391 . S
C1777 C1781 1.376 . S
C1778 C1776 1.394 . S
C1778 C1779 1.369 . S
C1778 C1782 1.531 . S
C1779 C1778 1.369 . S
C1779 C1780 1.410 . S
C1779 C1787 1.503 . S
C1780 C1779 1.410 . S
C1780 C1781 1.392 . S
C1780 C1783 1.511 . S
C1781 C1777 1.376 . S
C1781 C1780 1.392 . S
C1781 H1793 0.929 . S
C1782 C1778 1.531 . S
C1782 H1794 0.960 . S
C1782 H1795 0.962 . S
C1782 H1796 0.960 . S
C1783 C1780 1.511 . S
C1783 H1797 0.961 . S
C1783 H1798 0.961 . S
C1783 H1799 0.961 . S
C1784 C1785 1.370 . S
C1784 C1786 1.363 . S
C1784 H1800 0.931 . S
C1785 C1784 1.370 . S
C1785 C1789 1.408 . S
C1786 C1784 1.363 . S
C1786 C1787 1.370 . S
C1786 C1790 1.524 . S
C1787 C1779 1.503 . S
C1787 C1786 1.370 . S
C1787 C1788 1.403 . S
C1788 C1787 1.403 . S
C1788 C1789 1.404 . S
C1788 C1791 1.539 . S
C1789 C1785 1.408 . S
C1789 C1788 1.404 . S
C1789 H1801 0.930 . S
C1790 C1786 1.524 . S
C1790 H1802 0.956 . S
C1790 H1803 0.961 . S
C1790 H1804 0.961 . S
C1791 C1788 1.539 . S
C1791 H1805 0.958 . S
C1791 H1806 0.961 . S
C1791 H1807 0.960 . S
H1792 C1776 0.931 . S
H1793 C1781 0.929 . S
H1794 C1782 0.960 . S
H1795 C1782 0.962 . S
H1796 C1782 0.960 . S
H1797 C1783 0.961 . S
H1798 C1783 0.961 . S
H1799 C1783 0.961 . S
H1800 C1784 0.931 . S
H1801 C1789 0.930 . S
H1802 C1790 0.956 . S
H1803 C1790 0.961 . S
H1804 C1790 0.961 . S
H1805 C1791 0.958 . S
H1806 C1791 0.961 . S
H1807 C1791 0.960 . S
C1808 C1809 1.391 . S
C1808 C1810 1.394 . S
C1808 H1824 0.931 . S
C1809 C1808 1.391 . S
C1809 C1813 1.376 . S
C1810 C1808 1.394 . S
C1810 C1811 1.369 . S
C1810 C1814 1.531 . S
C1811 C1810 1.369 . S
C1811 C1812 1.410 . S
C1811 C1819 1.503 . S
C1812 C1811 1.410 . S
C1812 C1813 1.392 . S
C1812 C1815 1.511 . S
C1813 C1809 1.376 . S
C1813 C1812 1.392 . S
C1813 H1825 0.929 . S
C1814 C1810 1.531 . S
C1814 H1826 0.960 . S
C1814 H1827 0.962 . S
C1814 H1828 0.960 . S
C1815 C1812 1.511 . S
C1815 H1829 0.961 . S
C1815 H1830 0.961 . S
C1815 H1831 0.961 . S
C1816 C1817 1.370 . S
C1816 C1818 1.363 . S
C1816 H1832 0.931 . S
C1817 C1816 1.370 . S
C1817 C1821 1.408 . S
C1818 C1816 1.363 . S
C1818 C1819 1.370 . S
C1818 C1822 1.524 . S
C1819 C1811 1.503 . S
C1819 C1818 1.370 . S
C1819 C1820 1.403 . S
C1820 C1819 1.403 . S
C1820 C1821 1.404 . S
C1820 C1823 1.539 . S
C1821 C1817 1.408 . S
C1821 C1820 1.404 . S
C1821 H1833 0.930 . S
C1822 C1818 1.524 . S
C1822 H1834 0.956 . S
C1822 H1835 0.961 . S
C1822 H1836 0.961 . S
C1823 C1820 1.539 . S
C1823 H1837 0.958 . S
C1823 H1838 0.961 . S
C1823 H1839 0.960 . S
H1824 C1808 0.931 . S
H1825 C1813 0.929 . S
H1826 C1814 0.960 . S
H1827 C1814 0.962 . S
H1828 C1814 0.960 . S
H1829 C1815 0.961 . S
H1830 C1815 0.961 . S
H1831 C1815 0.961 . S
H1832 C1816 0.931 . S
H1833 C1821 0.930 . S
H1834 C1822 0.956 . S
H1835 C1822 0.961 . S
H1836 C1822 0.961 . S
H1837 C1823 0.958 . S
H1838 C1823 0.961 . S
H1839 C1823 0.960 . S
C1840 C1841 1.391 . S
C1840 C1842 1.394 . S
C1840 H1856 0.931 . S
C1841 C1840 1.391 . S
C1841 C1845 1.376 . S
C1842 C1840 1.394 . S
C1842 C1843 1.369 . S
C1842 C1846 1.531 . S
C1843 C1842 1.369 . S
C1843 C1844 1.410 . S
C1843 C1851 1.503 . S
C1844 C1843 1.410 . S
C1844 C1845 1.392 . S
C1844 C1847 1.511 . S
C1845 C1841 1.376 . S
C1845 C1844 1.392 . S
C1845 H1857 0.929 . S
C1846 C1842 1.531 . S
C1846 H1858 0.960 . S
C1846 H1859 0.962 . S
C1846 H1860 0.960 . S
C1847 C1844 1.511 . S
C1847 H1861 0.961 . S
C1847 H1862 0.961 . S
C1847 H1863 0.961 . S
C1848 C1849 1.370 . S
C1848 C1850 1.363 . S
C1848 H1864 0.931 . S
C1849 C1848 1.370 . S
C1849 C1853 1.408 . S
C1850 C1848 1.363 . S
C1850 C1851 1.370 . S
C1850 C1854 1.524 . S
C1851 C1843 1.503 . S
C1851 C1850 1.370 . S
C1851 C1852 1.403 . S
C1852 C1851 1.403 . S
C1852 C1853 1.404 . S
C1852 C1855 1.539 . S
C1853 C1849 1.408 . S
C1853 C1852 1.404 . S
C1853 H1865 0.930 . S
C1854 C1850 1.524 . S
C1854 H1866 0.956 . S
C1854 H1867 0.961 . S
C1854 H1868 0.961 . S
C1855 C1852 1.539 . S
C1855 H1869 0.958 . S
C1855 H1870 0.961 . S
C1855 H1871 0.960 . S
H1856 C1840 0.931 . S
H1857 C1845 0.929 . S
H1858 C1846 0.960 . S
H1859 C1846 0.962 . S
H1860 C1846 0.960 . S
H1861 C1847 0.961 . S
H1862 C1847 0.961 . S
H1863 C1847 0.961 . S
H1864 C1848 0.931 . S
H1865 C1853 0.930 . S
H1866 C1854 0.956 . S
H1867 C1854 0.961 . S
H1868 C1854 0.961 . S
H1869 C1855 0.958 . S
H1870 C1855 0.961 . S
H1871 C1855 0.960 . S
C337 C218 1.241 . S
C345 C7 1.235 . S
C369 C175 1.317 . S
C377 C22 1.351 . S
C401 C189 1.346 . S
C409 C35 1.342 . S
C433 C203 1.322 . S
C441 C50 1.353 . S
C465 C204 1.335 . S
C473 C21 1.330 . S
C497 C36 1.334 . S
C505 C217 1.320 . S
C529 C176 1.332 . S
C537 C49 1.328 . S
C561 C190 1.229 . S
C569 C8 1.228 . S
C593 C260 1.169 . S
C601 C64 1.174 . S
C625 C77 1.422 . S
C633 C273 1.423 . S
C657 C92 1.193 . S
C665 C232 1.198 . S
C689 C245 1.389 . S
C697 C105 1.396 . S
C721 C315 1.430 . S
C729 C119 1.447 . S
C753 C133 1.199 . S
C761 C330 1.208 . S
C785 C147 1.476 . S
C793 C287 1.470 . S
C817 C161 1.162 . S
C825 C302 1.186 . S
C849 C246 1.228 . S
C857 C162 1.231 . S
C881 C329 1.392 . S
C889 C78 1.395 . S
C913 C91 1.354 . S
C921 C288 1.359 . S
C945 C301 1.354 . S
C953 C106 1.386 . S
C977 C316 1.293 . S
C985 C63 1.280 . S
C1009 C134 1.294 . S
C1017 C274 1.295 . S
C1041 C231 1.323 . S
C1049 C148 1.321 . S
C1073 C259 1.316 . S
C1081 C120 1.313 . S
C1105 C3 0.830 . S
C1113 C59 0.851 . S
C1137 C79 0.853 . S
C1145 C23 0.912 . S
C1169 C31 0.970 . S
C1177 C87 0.938 . S
C1201 C51 0.882 . S
C1209 C107 0.919 . S
C1233 C121 0.966 . S
C1241 C17 0.930 . S
C1265 C135 0.913 . S
C1273 C37 0.888 . S
C1297 C149 0.870 . S
C1305 C45 0.919 . S
C1329 C9 0.858 . S
C1337 C163 0.831 . S
C1361 C157 0.814 . S
C1369 C65 0.839 . S
C1393 C73 1.027 . S
C1401 C115 1.004 . S
C1425 C93 0.820 . S
C1433 C129 0.848 . S
C1457 C143 1.029 . S
C1465 C101 0.993 . S
C1489 C227 0.894 . S
C1497 C177 0.885 . S
C1521 C247 0.904 . S
C1529 C191 0.873 . S
C1553 C205 0.821 . S
C1561 C255 0.892 . S
C1585 C213 0.874 . S
C1593 C275 0.910 . S
C1617 C185 0.957 . S
C1625 C289 0.895 . S
C1649 C199 0.916 . S
C1657 C297 0.959 . S
C1681 C317 0.918 . S
C1689 C219 0.858 . S
C1713 C171 0.955 . S
C1721 C325 0.937 . S
C1745 C233 0.770 . S
C1753 C331 0.816 . S
C1777 C283 0.935 . S
C1785 C241 0.963 . S
C1809 C261 0.816 . S
C1817 C303 0.783 . S
C1841 C311 0.997 . S
C1849 C269 0.979 . S
