# Generated by pormake.
# Topology ato, (4)-cn, num edge types: 1
# Building blocks:
#     Node 0, Type 0, BuildingBlock: KUFVIS_clean_sbu_0, # of connection points: 4
#     Node 1, Type 0, BuildingBlock: KUFVIS_clean_sbu_0, # of connection points: 4
#     Node 2, Type 0, BuildingBlock: KUFVIS_clean_sbu_0, # of connection points: 4
#     Node 3, Type 0, BuildingBlock: KUFVIS_clean_sbu_0, # of connection points: 4
#     Node 4, Type 0, BuildingBlock: KUFVIS_clean_sbu_0, # of connection points: 4
#     Node 5, Type 0, BuildingBlock: KUFVIS_clean_sbu_0, # of connection points: 4
#     Node 6, Type 0, BuildingBlock: KUFVIS_clean_sbu_0, # of connection points: 4
#     Node 7, Type 0, BuildingBlock: KUFVIS_clean_sbu_0, # of connection points: 4
#     Node 8, Type 0, BuildingBlock: KUFVIS_clean_sbu_0, # of connection points: 4
#     Node 9, Type 0, BuildingBlock: KUFVIS_clean_sbu_0, # of connection points: 4
#     Node 10, Type 0, BuildingBlock: KUFVIS_clean_sbu_0, # of connection points: 4
#     Node 11, Type 0, BuildingBlock: KUFVIS_clean_sbu_0, # of connection points: 4
#     Node 12, Type 0, BuildingBlock: KUFVIS_clean_sbu_0, # of connection points: 4
#     Node 13, Type 0, BuildingBlock: KUFVIS_clean_sbu_0, # of connection points: 4
#     Node 14, Type 0, BuildingBlock: KUFVIS_clean_sbu_0, # of connection points: 4
#     Node 15, Type 0, BuildingBlock: KUFVIS_clean_sbu_0, # of connection points: 4
#     Node 16, Type 0, BuildingBlock: KUFVIS_clean_sbu_0, # of connection points: 4
#     Node 17, Type 0, BuildingBlock: KUFVIS_clean_sbu_0, # of connection points: 4
#     Node 18, Type 0, BuildingBlock: KUFVIS_clean_sbu_0, # of connection points: 4
#     Node 19, Type 0, BuildingBlock: KUFVIS_clean_sbu_0, # of connection points: 4
#     Node 20, Type 0, BuildingBlock: KUFVIS_clean_sbu_0, # of connection points: 4
#     Node 21, Type 0, BuildingBlock: KUFVIS_clean_sbu_0, # of connection points: 4
#     Node 22, Type 0, BuildingBlock: KUFVIS_clean_sbu_0, # of connection points: 4
#     Node 23, Type 0, BuildingBlock: KUFVIS_clean_sbu_0, # of connection points: 4
#     Node 24, Type 0, BuildingBlock: KUFVIS_clean_sbu_0, # of connection points: 4
#     Node 25, Type 0, BuildingBlock: KUFVIS_clean_sbu_0, # of connection points: 4
#     Node 26, Type 0, BuildingBlock: KUFVIS_clean_sbu_0, # of connection points: 4
#     Node 27, Type 0, BuildingBlock: KUFVIS_clean_sbu_0, # of connection points: 4
#     Node 28, Type 0, BuildingBlock: KUFVIS_clean_sbu_0, # of connection points: 4
#     Node 29, Type 0, BuildingBlock: KUFVIS_clean_sbu_0, # of connection points: 4
#     Node 30, Type 0, BuildingBlock: KUFVIS_clean_sbu_0, # of connection points: 4
#     Node 31, Type 0, BuildingBlock: KUFVIS_clean_sbu_0, # of connection points: 4
#     Node 32, Type 0, BuildingBlock: KUFVIS_clean_sbu_0, # of connection points: 4
#     Node 33, Type 0, BuildingBlock: KUFVIS_clean_sbu_0, # of connection points: 4
#     Node 34, Type 0, BuildingBlock: KUFVIS_clean_sbu_0, # of connection points: 4
#     Node 35, Type 0, BuildingBlock: KUFVIS_clean_sbu_0, # of connection points: 4
#     Edge 36, Type (0, 0), BuildingBlock: XIVTED_clean_linker_0, # of connection points: 2
#     Edge 37, Type (0, 0), BuildingBlock: XIVTED_clean_linker_0, # of connection points: 2
#     Edge 38, Type (0, 0), BuildingBlock: XIVTED_clean_linker_0, # of connection points: 2
#     Edge 39, Type (0, 0), BuildingBlock: XIVTED_clean_linker_0, # of connection points: 2
#     Edge 40, Type (0, 0), BuildingBlock: XIVTED_clean_linker_0, # of connection points: 2
#     Edge 41, Type (0, 0), BuildingBlock: XIVTED_clean_linker_0, # of connection points: 2
#     Edge 42, Type (0, 0), BuildingBlock: XIVTED_clean_linker_0, # of connection points: 2
#     Edge 43, Type (0, 0), BuildingBlock: XIVTED_clean_linker_0, # of connection points: 2
#     Edge 44, Type (0, 0), BuildingBlock: XIVTED_clean_linker_0, # of connection points: 2
#     Edge 45, Type (0, 0), BuildingBlock: XIVTED_clean_linker_0, # of connection points: 2
#     Edge 46, Type (0, 0), BuildingBlock: XIVTED_clean_linker_0, # of connection points: 2
#     Edge 47, Type (0, 0), BuildingBlock: XIVTED_clean_linker_0, # of connection points: 2
#     Edge 48, Type (0, 0), BuildingBlock: XIVTED_clean_linker_0, # of connection points: 2
#     Edge 49, Type (0, 0), BuildingBlock: XIVTED_clean_linker_0, # of connection points: 2
#     Edge 50, Type (0, 0), BuildingBlock: XIVTED_clean_linker_0, # of connection points: 2
#     Edge 51, Type (0, 0), BuildingBlock: XIVTED_clean_linker_0, # of connection points: 2
#     Edge 52, Type (0, 0), BuildingBlock: XIVTED_clean_linker_0, # of connection points: 2
#     Edge 53, Type (0, 0), BuildingBlock: XIVTED_clean_linker_0, # of connection points: 2
#     Edge 54, Type (0, 0), BuildingBlock: XIVTED_clean_linker_0, # of connection points: 2
#     Edge 55, Type (0, 0), BuildingBlock: XIVTED_clean_linker_0, # of connection points: 2
#     Edge 56, Type (0, 0), BuildingBlock: XIVTED_clean_linker_0, # of connection points: 2
#     Edge 57, Type (0, 0), BuildingBlock: XIVTED_clean_linker_0, # of connection points: 2
#     Edge 58, Type (0, 0), BuildingBlock: XIVTED_clean_linker_0, # of connection points: 2
#     Edge 59, Type (0, 0), BuildingBlock: XIVTED_clean_linker_0, # of connection points: 2
#     Edge 60, Type (0, 0), BuildingBlock: XIVTED_clean_linker_0, # of connection points: 2
#     Edge 61, Type (0, 0), BuildingBlock: XIVTED_clean_linker_0, # of connection points: 2
#     Edge 62, Type (0, 0), BuildingBlock: XIVTED_clean_linker_0, # of connection points: 2
#     Edge 63, Type (0, 0), BuildingBlock: XIVTED_clean_linker_0, # of connection points: 2
#     Edge 64, Type (0, 0), BuildingBlock: XIVTED_clean_linker_0, # of connection points: 2
#     Edge 65, Type (0, 0), BuildingBlock: XIVTED_clean_linker_0, # of connection points: 2
#     Edge 66, Type (0, 0), BuildingBlock: XIVTED_clean_linker_0, # of connection points: 2
#     Edge 67, Type (0, 0), BuildingBlock: XIVTED_clean_linker_0, # of connection points: 2
#     Edge 68, Type (0, 0), BuildingBlock: XIVTED_clean_linker_0, # of connection points: 2
#     Edge 69, Type (0, 0), BuildingBlock: XIVTED_clean_linker_0, # of connection points: 2
#     Edge 70, Type (0, 0), BuildingBlock: XIVTED_clean_linker_0, # of connection points: 2
#     Edge 71, Type (0, 0), BuildingBlock: XIVTED_clean_linker_0, # of connection points: 2
#     Edge 72, Type (0, 0), BuildingBlock: XIVTED_clean_linker_0, # of connection points: 2
#     Edge 73, Type (0, 0), BuildingBlock: XIVTED_clean_linker_0, # of connection points: 2
#     Edge 74, Type (0, 0), BuildingBlock: XIVTED_clean_linker_0, # of connection points: 2
#     Edge 75, Type (0, 0), BuildingBlock: XIVTED_clean_linker_0, # of connection points: 2
#     Edge 76, Type (0, 0), BuildingBlock: XIVTED_clean_linker_0, # of connection points: 2
#     Edge 77, Type (0, 0), BuildingBlock: XIVTED_clean_linker_0, # of connection points: 2
#     Edge 78, Type (0, 0), BuildingBlock: XIVTED_clean_linker_0, # of connection points: 2
#     Edge 79, Type (0, 0), BuildingBlock: XIVTED_clean_linker_0, # of connection points: 2
#     Edge 80, Type (0, 0), BuildingBlock: XIVTED_clean_linker_0, # of connection points: 2
#     Edge 81, Type (0, 0), BuildingBlock: XIVTED_clean_linker_0, # of connection points: 2
#     Edge 82, Type (0, 0), BuildingBlock: XIVTED_clean_linker_0, # of connection points: 2
#     Edge 83, Type (0, 0), BuildingBlock: XIVTED_clean_linker_0, # of connection points: 2
#     Edge 84, Type (0, 0), BuildingBlock: XIVTED_clean_linker_0, # of connection points: 2
#     Edge 85, Type (0, 0), BuildingBlock: XIVTED_clean_linker_0, # of connection points: 2
#     Edge 86, Type (0, 0), BuildingBlock: XIVTED_clean_linker_0, # of connection points: 2
#     Edge 87, Type (0, 0), BuildingBlock: XIVTED_clean_linker_0, # of connection points: 2
#     Edge 88, Type (0, 0), BuildingBlock: XIVTED_clean_linker_0, # of connection points: 2
#     Edge 89, Type (0, 0), BuildingBlock: XIVTED_clean_linker_0, # of connection points: 2
#     Edge 90, Type (0, 0), BuildingBlock: XIVTED_clean_linker_0, # of connection points: 2
#     Edge 91, Type (0, 0), BuildingBlock: XIVTED_clean_linker_0, # of connection points: 2
#     Edge 92, Type (0, 0), BuildingBlock: XIVTED_clean_linker_0, # of connection points: 2
#     Edge 93, Type (0, 0), BuildingBlock: XIVTED_clean_linker_0, # of connection points: 2
#     Edge 94, Type (0, 0), BuildingBlock: XIVTED_clean_linker_0, # of connection points: 2
#     Edge 95, Type (0, 0), BuildingBlock: XIVTED_clean_linker_0, # of connection points: 2
#     Edge 96, Type (0, 0), BuildingBlock: XIVTED_clean_linker_0, # of connection points: 2
#     Edge 97, Type (0, 0), BuildingBlock: XIVTED_clean_linker_0, # of connection points: 2
#     Edge 98, Type (0, 0), BuildingBlock: XIVTED_clean_linker_0, # of connection points: 2
#     Edge 99, Type (0, 0), BuildingBlock: XIVTED_clean_linker_0, # of connection points: 2
#     Edge 100, Type (0, 0), BuildingBlock: XIVTED_clean_linker_0, # of connection points: 2
#     Edge 101, Type (0, 0), BuildingBlock: XIVTED_clean_linker_0, # of connection points: 2
#     Edge 102, Type (0, 0), BuildingBlock: XIVTED_clean_linker_0, # of connection points: 2
#     Edge 103, Type (0, 0), BuildingBlock: XIVTED_clean_linker_0, # of connection points: 2
#     Edge 104, Type (0, 0), BuildingBlock: XIVTED_clean_linker_0, # of connection points: 2
#     Edge 105, Type (0, 0), BuildingBlock: XIVTED_clean_linker_0, # of connection points: 2
#     Edge 106, Type (0, 0), BuildingBlock: XIVTED_clean_linker_0, # of connection points: 2
#     Edge 107, Type (0, 0), BuildingBlock: XIVTED_clean_linker_0, # of connection points: 2
# Relax obj value: 0.077
# Max RMSD: 0.071
# Mean RMSD: 0.071
data_MOF--net-ato--node1-KUFVIS_clean_sbu_0--edge1-XIVTED_clean_linker_0
_symmetry_space_group_name_H-M    P1
_symmetry_Int_Tables_number       1
_symmetry_cell_setting            triclinic
loop_
_symmetry_equiv_pos_as_xyz
'x, y, z'
_cell_length_a     102.95037
_cell_length_b     102.9718
_cell_length_c     23.560373
_cell_angle_alpha  89.994886
_cell_angle_beta   90.006174
_cell_angle_gamma 119.97154
loop_
_atom_site_label
_atom_site_type_symbol
_atom_site_fract_x
_atom_site_fract_y
_atom_site_fract_z
_atom_type_partial_charge
Mn0 Mn 0.26063 0.06024 0.25099 0.0
Mn1 Mn 0.27435 0.03692 0.27413 0.0
C2 C 0.2845 0.06668 0.21905 0.0
C3 C 0.25639 0.07982 0.27684 0.0
C4 C 0.25226 0.03195 0.18065 0.0
O5 O 0.24664 0.04624 0.31313 0.0
O6 O 0.257 0.03163 0.32444 0.0
C7 C 0.28573 0.04716 0.39047 0.0
N8 N 0.28815 0.04449 0.33599 0.0
C9 C 0.3135 0.05088 0.35748 0.0
C10 C 0.31128 0.05367 0.41392 0.0
C11 C 0.29737 0.0519 0.43037 0.0
C12 C 0.30159 0.0465 0.31941 0.0
H13 H 0.27499 0.04563 0.40337 0.0
C14 C 0.24719 0.03533 0.33653 0.0
O15 O 0.24795 0.06963 0.24042 0.0
O16 O 0.26702 0.07834 0.30014 0.0
N17 N 0.29117 0.04033 0.22896 0.0
C18 C 0.29144 0.03726 0.17288 0.0
C19 C 0.30436 0.038 0.14987 0.0
C20 C 0.31675 0.04166 0.18492 0.0
C21 C 0.31632 0.04503 0.24234 0.0
C22 C 0.3031 0.04403 0.26292 0.0
H23 H 0.28177 0.03398 0.14614 0.0
O24 O 0.27719 0.07266 0.19685 0.0
O25 O 0.27779 0.05727 0.26043 0.0
O26 O 0.25109 0.04347 0.19138 0.0
O27 O 0.26052 0.02835 0.20921 0.0
C28 C 0.32832 0.04899 0.28031 0.0
C29 C 0.32699 0.05214 0.33762 0.0
H30 H 0.32018 0.05715 0.44495 0.0
H31 H 0.29557 0.05404 0.47382 0.0
H32 H 0.30465 0.03542 0.10552 0.0
H33 H 0.3264 0.04156 0.16735 0.0
H34 H 0.33861 0.04963 0.26609 0.0
H35 H 0.33635 0.05534 0.36621 0.0
Mn36 Mn 0.94837 0.20078 0.25227 0.0
Mn37 Mn 0.97043 0.23823 0.26927 0.0
C38 C 0.94036 0.21686 0.21913 0.0
C39 C 0.9297 0.17704 0.28259 0.0
C40 C 0.97593 0.22072 0.17879 0.0
O41 O 0.9633 0.20236 0.31353 0.0
O42 O 0.9768 0.22754 0.32245 0.0
C43 C 0.96065 0.24075 0.38491 0.0
N44 N 0.96255 0.24477 0.32916 0.0
C45 C 0.95252 0.26119 0.34383 0.0
C46 C 0.95057 0.25732 0.40152 0.0
C47 C 0.95464 0.24704 0.42212 0.0
C48 C 0.9587 0.25467 0.30892 0.0
H49 H 0.96367 0.23277 0.40079 0.0
C50 C 0.97387 0.2143 0.3359 0.0
O51 O 0.93974 0.17871 0.24554 0.0
O52 O 0.93092 0.1892 0.30423 0.0
N53 N 0.96563 0.25003 0.22055 0.0
C54 C 0.96756 0.25196 0.16333 0.0
C55 C 0.96341 0.26138 0.13555 0.0
C56 C 0.95748 0.26878 0.16698 0.0
C57 C 0.95609 0.26705 0.22606 0.0
C58 C 0.96045 0.25754 0.25144 0.0
H59 H 0.97195 0.24614 0.13893 0.0
O60 O 0.93482 0.20344 0.19858 0.0
O61 O 0.95039 0.22049 0.25896 0.0
O62 O 0.96466 0.20797 0.19063 0.0
O63 O 0.97928 0.23268 0.20615 0.0
C64 C 0.95001 0.27389 0.26049 0.0
C65 C 0.94826 0.27099 0.31934 0.0
H66 H 0.94582 0.26205 0.43026 0.0
H67 H 0.95309 0.24393 0.46652 0.0
H68 H 0.96452 0.26272 0.08993 0.0
H69 H 0.95369 0.27542 0.14499 0.0
H70 H 0.94638 0.28117 0.24207 0.0
H71 H 0.94339 0.27617 0.34522 0.0
Mn72 Mn 0.80762 0.74849 0.25238 0.0
Mn73 Mn 0.77059 0.73523 0.27329 0.0
C74 C 0.79015 0.72465 0.22075 0.0
C75 C 0.83117 0.75237 0.28009 0.0
C76 C 0.7882 0.75707 0.17987 0.0
O77 O 0.8076 0.76269 0.31347 0.0
O78 O 0.78263 0.75267 0.32324 0.0
C79 C 0.76887 0.72408 0.39044 0.0
N80 N 0.76398 0.72158 0.33569 0.0
C81 C 0.74475 0.69638 0.35746 0.0
C82 C 0.74954 0.69868 0.41416 0.0
C83 C 0.76172 0.71257 0.43063 0.0
C84 C 0.7525 0.70818 0.31915 0.0
H85 H 0.77812 0.7348 0.40332 0.0
C86 C 0.79614 0.76238 0.33577 0.0
O87 O 0.82975 0.76088 0.24295 0.0
O88 O 0.81889 0.74192 0.30303 0.0
N89 N 0.75724 0.71837 0.22825 0.0
C90 C 0.75419 0.71796 0.17179 0.0
C91 C 0.74207 0.70503 0.14862 0.0
C92 C 0.73309 0.69278 0.18386 0.0
C93 C 0.73658 0.69335 0.24168 0.0
C94 C 0.74875 0.70657 0.2624 0.0
H95 H 0.7608 0.72752 0.14485 0.0
O96 O 0.8035 0.73181 0.19905 0.0
O97 O 0.78739 0.73152 0.26139 0.0
O98 O 0.80079 0.75812 0.19152 0.0
O99 O 0.77622 0.74892 0.20786 0.0
C100 C 0.72833 0.68147 0.27983 0.0
C101 C 0.73254 0.6829 0.33748 0.0
H102 H 0.74395 0.68988 0.4454 0.0
H103 H 0.76549 0.71442 0.47429 0.0
H104 H 0.73944 0.70463 0.10395 0.0
H105 H 0.7234 0.6831 0.16609 0.0
H106 H 0.71871 0.67116 0.26542 0.0
H107 H 0.72622 0.67363 0.36622 0.0
Mn108 Mn 0.06335 0.25867 0.75152 0.0
Mn109 Mn 0.03999 0.27236 0.72889 0.0
C110 C 0.06975 0.28248 0.78391 0.0
C111 C 0.08302 0.2546 0.72529 0.0
C112 C 0.03502 0.25014 0.82185 0.0
O113 O 0.04942 0.24479 0.68901 0.0
O114 O 0.03475 0.2551 0.67814 0.0
C115 C 0.05021 0.28391 0.6127 0.0
N116 N 0.04754 0.28625 0.66729 0.0
C117 C 0.05385 0.31159 0.64635 0.0
C118 C 0.05663 0.30946 0.58981 0.0
C119 C 0.0549 0.29558 0.57302 0.0
C120 C 0.04951 0.29965 0.68419 0.0
H121 H 0.04871 0.27319 0.59954 0.0
C122 C 0.0385 0.24535 0.66569 0.0
O123 O 0.07285 0.24606 0.76161 0.0
O124 O 0.08146 0.26521 0.70232 0.0
N125 N 0.04339 0.28911 0.77446 0.0
C126 C 0.04037 0.28932 0.83065 0.0
C127 C 0.04114 0.30221 0.85403 0.0
C128 C 0.04474 0.31463 0.81924 0.0
C129 C 0.04804 0.31426 0.7617 0.0
C130 C 0.04705 0.30108 0.74077 0.0
H131 H 0.03714 0.27963 0.8572 0.0
O132 O 0.07572 0.27515 0.80598 0.0
O133 O 0.06035 0.27581 0.74246 0.0
O134 O 0.04655 0.24899 0.81104 0.0
O135 O 0.03143 0.25844 0.79352 0.0
C136 C 0.05194 0.32628 0.72395 0.0
C137 C 0.05507 0.32503 0.66654 0.0
H138 H 0.06008 0.31838 0.55895 0.0
H139 H 0.05703 0.29385 0.52949 0.0
H140 H 0.03862 0.30246 0.89848 0.0
H141 H 0.04471 0.32428 0.83714 0.0
H142 H 0.05255 0.33654 0.73843 0.0
H143 H 0.05823 0.33442 0.63814 0.0
Mn144 Mn 0.75075 0.80584 0.74979 0.0
Mn145 Mn 0.73706 0.7688 0.72791 0.0
C146 C 0.72692 0.78852 0.78208 0.0
C147 C 0.75491 0.82953 0.72296 0.0
C148 C 0.75918 0.78609 0.82098 0.0
O149 O 0.76473 0.80573 0.68793 0.0
O150 O 0.75445 0.78075 0.67765 0.0
C151 C 0.72574 0.76743 0.61127 0.0
N152 N 0.72329 0.76246 0.66591 0.0
C153 C 0.69796 0.74348 0.64448 0.0
C154 C 0.70021 0.74835 0.58789 0.0
C155 C 0.71414 0.76045 0.57131 0.0
C156 C 0.70984 0.75107 0.68259 0.0
H157 H 0.7365 0.77661 0.59829 0.0
C158 C 0.76425 0.79424 0.6652 0.0
O159 O 0.76341 0.82792 0.75955 0.0
O160 O 0.74427 0.81737 0.70009 0.0
N161 N 0.72021 0.75551 0.77316 0.0
C162 C 0.7199 0.75228 0.8294 0.0
C163 C 0.70697 0.74017 0.85257 0.0
C164 C 0.69461 0.73137 0.81752 0.0
C165 C 0.69508 0.73504 0.75993 0.0
C166 C 0.7083 0.74721 0.73922 0.0
H167 H 0.72955 0.75873 0.85614 0.0
O168 O 0.73425 0.80185 0.80392 0.0
O169 O 0.7336 0.78572 0.74086 0.0
O170 O 0.76037 0.79876 0.80971 0.0
O171 O 0.75085 0.77417 0.79294 0.0
C172 C 0.68311 0.72693 0.72194 0.0
C173 C 0.68447 0.73129 0.66447 0.0
H174 H 0.69134 0.74288 0.55681 0.0
H175 H 0.71596 0.76429 0.52774 0.0
H176 H 0.70665 0.73741 0.89706 0.0
H177 H 0.68491 0.72169 0.83528 0.0
H178 H 0.67281 0.71731 0.73631 0.0
H179 H 0.67513 0.72507 0.63586 0.0
Mn180 Mn 0.20216 0.94544 0.75043 0.0
Mn181 Mn 0.23961 0.96738 0.7318 0.0
C182 C 0.2183 0.93759 0.78421 0.0
C183 C 0.17833 0.92663 0.72146 0.0
C184 C 0.22247 0.97313 0.823 0.0
O185 O 0.20354 0.96014 0.68854 0.0
O186 O 0.2287 0.97376 0.67983 0.0
C187 C 0.24125 0.95727 0.61575 0.0
N188 N 0.24568 0.9593 0.67107 0.0
C189 C 0.26177 0.94896 0.65455 0.0
C190 C 0.25748 0.94687 0.59728 0.0
C191 C 0.24717 0.95103 0.57783 0.0
C192 C 0.2556 0.95536 0.69021 0.0
H193 H 0.23324 0.96034 0.60076 0.0
C194 C 0.21546 0.97079 0.66639 0.0
O195 O 0.18009 0.93682 0.75793 0.0
O196 O 0.19044 0.92779 0.69954 0.0
N197 N 0.25173 0.96268 0.77912 0.0
C198 C 0.25433 0.96505 0.83591 0.0
C199 C 0.26405 0.9611 0.86245 0.0
C200 C 0.27107 0.9549 0.8302 0.0
C201 C 0.26865 0.95305 0.7715 0.0
C202 C 0.25893 0.9573 0.74733 0.0
H203 H 0.24883 0.96968 0.86095 0.0
O204 O 0.2049 0.93212 0.80489 0.0
O205 O 0.22187 0.9474 0.74356 0.0
O206 O 0.2096 0.962 0.8111 0.0
O207 O 0.2344 0.9763 0.7957 0.0
C208 C 0.27509 0.9467 0.73635 0.0
C209 C 0.27167 0.94468 0.6779 0.0
H210 H 0.26193 0.94195 0.56799 0.0
H211 H 0.24374 0.94937 0.53376 0.0
H212 H 0.26593 0.96257 0.90778 0.0
H213 H 0.27799 0.95128 0.85122 0.0
H214 H 0.2825 0.94311 0.75389 0.0
H215 H 0.27656 0.93964 0.65143 0.0
Mn216 Mn 0.75122 0.9462 0.75199 0.0
Mn217 Mn 0.73787 0.97001 0.73495 0.0
C218 C 0.72763 0.93987 0.78672 0.0
C219 C 0.75494 0.92656 0.7226 0.0
C220 C 0.76057 0.97423 0.82479 0.0
O221 O 0.76494 0.96042 0.68987 0.0
O222 O 0.75467 0.97522 0.68181 0.0
C223 C 0.72523 0.9604 0.61967 0.0
N224 N 0.72345 0.96292 0.67509 0.0
C225 C 0.69813 0.95731 0.65833 0.0
C226 C 0.69967 0.95467 0.60099 0.0
C227 C 0.71325 0.95612 0.58167 0.0
C228 C 0.71033 0.96121 0.69438 0.0
H229 H 0.73573 0.96171 0.60461 0.0
C230 C 0.76434 0.97146 0.66785 0.0
O231 O 0.76371 0.93653 0.75905 0.0
O232 O 0.74429 0.92832 0.70116 0.0
N233 N 0.72163 0.96669 0.78338 0.0
C234 C 0.72198 0.96949 0.84005 0.0
C235 C 0.70949 0.96906 0.86587 0.0
C236 C 0.6969 0.96599 0.83304 0.0
C237 C 0.69666 0.96283 0.77498 0.0
C238 C 0.70946 0.96348 0.75158 0.0
H239 H 0.73182 0.97234 0.86514 0.0
O240 O 0.73494 0.93364 0.80684 0.0
O241 O 0.7342 0.94948 0.74582 0.0
O242 O 0.76133 0.96257 0.81257 0.0
O243 O 0.75234 0.97819 0.79802 0.0
C244 C 0.68439 0.95938 0.73911 0.0
C245 C 0.68503 0.95638 0.68104 0.0
H246 H 0.69052 0.95156 0.57142 0.0
H247 H 0.71453 0.9541 0.5375 0.0
H248 H 0.70971 0.97143 0.91072 0.0
H249 H 0.68756 0.96625 0.85291 0.0
H250 H 0.67438 0.95898 0.75566 0.0
H251 H 0.67545 0.95356 0.65409 0.0
Mn252 Mn 0.0625 0.80556 0.75293 0.0
Mn253 Mn 0.03871 0.76851 0.73291 0.0
C254 C 0.06911 0.78814 0.78336 0.0
C255 C 0.08192 0.82917 0.72468 0.0
C256 C 0.03485 0.78621 0.82695 0.0
O257 O 0.04803 0.80544 0.69267 0.0
O258 O 0.0331 0.78046 0.6833 0.0
C259 C 0.04762 0.76655 0.61515 0.0
N260 N 0.04546 0.76176 0.67002 0.0
C261 C 0.0513 0.74244 0.64779 0.0
C262 C 0.05355 0.74712 0.59095 0.0
C263 C 0.05179 0.75929 0.57465 0.0
C264 C 0.0474 0.75027 0.68636 0.0
H265 H 0.04613 0.77579 0.60241 0.0
C266 C 0.03683 0.79395 0.67069 0.0
O267 O 0.07211 0.82766 0.76248 0.0
O268 O 0.08015 0.81694 0.70145 0.0
N269 N 0.04245 0.75526 0.77766 0.0
C270 C 0.04017 0.75239 0.83434 0.0
C271 C 0.04109 0.74032 0.85743 0.0
C272 C 0.04415 0.73123 0.82192 0.0
C273 C 0.04675 0.73456 0.76389 0.0
C274 C 0.04556 0.74666 0.74325 0.0
H275 H 0.03739 0.75909 0.86153 0.0
O276 O 0.07533 0.80149 0.80518 0.0
O277 O 0.05928 0.78536 0.74349 0.0
O278 O 0.04633 0.79877 0.81472 0.0
O279 O 0.03089 0.77421 0.79893 0.0
C280 C 0.05021 0.72622 0.72551 0.0
C281 C 0.05269 0.73029 0.66766 0.0
H282 H 0.05663 0.74147 0.55951 0.0
H283 H 0.05353 0.76298 0.5309 0.0
H284 H 0.03913 0.73783 0.90228 0.0
H285 H 0.04428 0.7216 0.83968 0.0
H286 H 0.05103 0.71667 0.73993 0.0
H287 H 0.05554 0.72392 0.63874 0.0
Mn288 Mn 0.20381 0.25879 0.75112 0.0
Mn289 Mn 0.24112 0.27411 0.72938 0.0
C290 C 0.22022 0.28289 0.7832 0.0
C291 C 0.17982 0.25382 0.72407 0.0
C292 C 0.22445 0.25142 0.8218 0.0
O293 O 0.20481 0.24533 0.68884 0.0
O294 O 0.22992 0.25679 0.6778 0.0
C295 C 0.24232 0.28573 0.61341 0.0
N296 N 0.24697 0.28818 0.66846 0.0
C297 C 0.26322 0.31452 0.65104 0.0
C298 C 0.25869 0.31227 0.59404 0.0
C299 C 0.24818 0.29781 0.57518 0.0
C300 C 0.25708 0.30203 0.68704 0.0
H301 H 0.23416 0.27466 0.59885 0.0
C302 C 0.21658 0.24655 0.66537 0.0
O303 O 0.18174 0.24546 0.76041 0.0
O304 O 0.19184 0.26465 0.70122 0.0
N305 N 0.25347 0.29098 0.77614 0.0
C306 C 0.25616 0.29131 0.83288 0.0
C307 C 0.26602 0.305 0.85894 0.0
C308 C 0.27309 0.31814 0.82624 0.0
C309 C 0.27052 0.31747 0.76763 0.0
C310 C 0.26063 0.30348 0.74398 0.0
H311 H 0.25064 0.28124 0.85824 0.0
O312 O 0.20697 0.27507 0.80528 0.0
O313 O 0.22348 0.27644 0.74242 0.0
O314 O 0.21154 0.24975 0.81118 0.0
O315 O 0.23621 0.26006 0.7934 0.0
C316 C 0.27698 0.33017 0.73207 0.0
C317 C 0.27334 0.3287 0.67381 0.0
H318 H 0.2631 0.32157 0.56452 0.0
H319 H 0.24456 0.296 0.53133 0.0
H320 H 0.26801 0.30548 0.9042 0.0
H321 H 0.28021 0.32868 0.84684 0.0
H322 H 0.28455 0.34117 0.74917 0.0
H323 H 0.27824 0.33857 0.64706 0.0
Mn324 Mn 0.94814 0.74869 0.25597 0.0
Mn325 Mn 0.97188 0.73542 0.27786 0.0
C326 C 0.94192 0.72493 0.22379 0.0
C327 C 0.92844 0.75268 0.28219 0.0
C328 C 0.97638 0.75743 0.18483 0.0
O329 O 0.96209 0.76271 0.31808 0.0
O330 O 0.97704 0.75269 0.32844 0.0
C331 C 0.96199 0.72389 0.39433 0.0
N332 N 0.96462 0.72157 0.33965 0.0
C333 C 0.95859 0.69631 0.36056 0.0
C334 C 0.95586 0.69842 0.41718 0.0
C335 C 0.95748 0.71225 0.43404 0.0
C336 C 0.96279 0.70823 0.32273 0.0
H337 H 0.96339 0.73456 0.40751 0.0
C338 C 0.97315 0.76235 0.341 0.0
O339 O 0.93859 0.76121 0.2458 0.0
O340 O 0.93003 0.7421 0.30531 0.0
N341 N 0.96859 0.7187 0.23232 0.0
C342 C 0.97146 0.71848 0.17599 0.0
C343 C 0.9708 0.70564 0.15252 0.0
C344 C 0.9674 0.69328 0.18732 0.0
C345 C 0.96421 0.69365 0.24499 0.0
C346 C 0.96516 0.7068 0.26606 0.0
H347 H 0.97451 0.72812 0.14938 0.0
O348 O 0.9358 0.73214 0.20181 0.0
O349 O 0.95137 0.73169 0.26502 0.0
O350 O 0.9648 0.75844 0.19614 0.0
O351 O 0.98018 0.74928 0.21297 0.0
C352 C 0.96042 0.68164 0.28267 0.0
C353 C 0.9574 0.68289 0.34022 0.0
H354 H 0.95252 0.68951 0.44805 0.0
H355 H 0.95537 0.71396 0.47764 0.0
H356 H 0.97323 0.7054 0.10797 0.0
H357 H 0.96755 0.6837 0.16936 0.0
H358 H 0.95979 0.67138 0.26799 0.0
H359 H 0.95433 0.67351 0.36859 0.0
Mn360 Mn 0.26132 0.20088 0.25179 0.0
Mn361 Mn 0.27618 0.23819 0.27139 0.0
C362 C 0.28553 0.21742 0.22089 0.0
C363 C 0.25653 0.17704 0.28012 0.0
C364 C 0.25402 0.22109 0.17796 0.0
O365 O 0.24756 0.20187 0.31279 0.0
O366 O 0.2586 0.227 0.3218 0.0
C367 C 0.28716 0.23982 0.38881 0.0
N368 N 0.2899 0.24431 0.33361 0.0
C369 C 0.31614 0.26063 0.35278 0.0
C370 C 0.31358 0.25627 0.40994 0.0
C371 C 0.29902 0.24581 0.428 0.0
C372 C 0.30385 0.25438 0.3158 0.0
H373 H 0.27601 0.23169 0.40279 0.0
C374 C 0.24848 0.21366 0.33486 0.0
O375 O 0.24822 0.17877 0.24291 0.0
O376 O 0.26718 0.18916 0.30313 0.0
N377 N 0.2933 0.2505 0.22566 0.0
C378 C 0.29393 0.25302 0.16869 0.0
C379 C 0.30777 0.26281 0.14342 0.0
C380 C 0.32072 0.26995 0.17709 0.0
C381 C 0.31973 0.26757 0.23586 0.0
C382 C 0.30562 0.25776 0.2587 0.0
H383 H 0.28401 0.24742 0.14258 0.0
O384 O 0.27792 0.20414 0.19895 0.0
O385 O 0.27879 0.22065 0.26062 0.0
O386 O 0.25235 0.20827 0.19026 0.0
O387 O 0.26251 0.233 0.20587 0.0
C388 C 0.33225 0.27414 0.27237 0.0
C389 C 0.33045 0.27069 0.3308 0.0
H390 H 0.32272 0.26078 0.4402 0.0
H391 H 0.29697 0.24232 0.47198 0.0
H392 H 0.30851 0.26465 0.09802 0.0
H393 H 0.33138 0.27697 0.15715 0.0
H394 H 0.34334 0.28165 0.25589 0.0
H395 H 0.34018 0.27565 0.35832 0.0
Mn396 Mn 0.80932 0.0609 0.25362 0.0
Mn397 Mn 0.77211 0.03734 0.27062 0.0
C398 C 0.79223 0.06758 0.21978 0.0
C399 C 0.83277 0.08029 0.28331 0.0
C400 C 0.79044 0.03304 0.1803 0.0
O401 O 0.80866 0.04646 0.31518 0.0
O402 O 0.78358 0.03192 0.3236 0.0
C403 C 0.76912 0.04686 0.38614 0.0
N404 N 0.76484 0.04443 0.33069 0.0
C405 C 0.74526 0.05024 0.34763 0.0
C406 C 0.74943 0.05278 0.40501 0.0
C407 C 0.76148 0.05118 0.42425 0.0
C408 C 0.75349 0.04626 0.31149 0.0
H409 H 0.77826 0.04544 0.40112 0.0
C410 C 0.79697 0.03551 0.3373 0.0
O411 O 0.83146 0.07037 0.24642 0.0
O412 O 0.82042 0.07862 0.30498 0.0
N413 N 0.75933 0.04091 0.22231 0.0
C414 C 0.75696 0.03831 0.16551 0.0
C415 C 0.74502 0.03895 0.13968 0.0
C416 C 0.73554 0.04205 0.17262 0.0
C417 C 0.73838 0.04502 0.23081 0.0
C418 C 0.7504 0.04413 0.25423 0.0
H419 H 0.76394 0.03546 0.14032 0.0
O420 O 0.80573 0.0737 0.19948 0.0
O421 O 0.7891 0.05783 0.26022 0.0
O422 O 0.8029 0.04464 0.19246 0.0
O423 O 0.77831 0.02914 0.20733 0.0
C424 C 0.72963 0.04855 0.26675 0.0
C425 C 0.73321 0.05139 0.32492 0.0
H426 H 0.74346 0.05595 0.43465 0.0
H427 H 0.76477 0.05312 0.46844 0.0
H428 H 0.74293 0.03673 0.09473 0.0
H429 H 0.72602 0.04196 0.15271 0.0
H430 H 0.72014 0.04916 0.25016 0.0
H431 H 0.72653 0.05429 0.35193 0.0
Mn432 Mn 0.9282 0.3955 0.58608 0.0
Mn433 Mn 0.94565 0.37556 0.60966 0.0
C434 C 0.95273 0.40469 0.55545 0.0
C435 C 0.92188 0.41356 0.61285 0.0
C436 C 0.9233 0.36837 0.51461 0.0
O437 O 0.91501 0.38065 0.64748 0.0
O438 O 0.92754 0.36805 0.65818 0.0
C439 C 0.95553 0.38576 0.72745 0.0
N440 N 0.95886 0.3841 0.67295 0.0
C441 C 0.98513 0.39539 0.69502 0.0
C442 C 0.98196 0.39712 0.7515 0.0
C443 C 0.9671 0.3923 0.76775 0.0
C444 C 0.97311 0.38869 0.65688 0.0
H445 H 0.94413 0.38215 0.74001 0.0
C446 C 0.91671 0.37032 0.67009 0.0
O447 O 0.91399 0.40321 0.57598 0.0
O448 O 0.93299 0.41296 0.63616 0.0
N449 N 0.96332 0.38135 0.56599 0.0
C450 C 0.96451 0.37939 0.50941 0.0
C451 C 0.97868 0.38415 0.48582 0.0
C452 C 0.9914 0.39068 0.52079 0.0
C453 C 0.98987 0.39203 0.57923 0.0
C454 C 0.97544 0.38707 0.60034 0.0
H455 H 0.95478 0.37462 0.48221 0.0
O456 O 0.94429 0.40929 0.53254 0.0
O457 O 0.94665 0.3949 0.59622 0.0
O458 O 0.92012 0.3786 0.52608 0.0
O459 O 0.93268 0.36636 0.54328 0.0
C460 C 1.00212 0.39864 0.61693 0.0
C461 C 0.99975 0.4003 0.67482 0.0
H462 H 0.99087 0.40225 0.78263 0.0
H463 H 0.96458 0.39367 0.81119 0.0
H464 H 0.97984 0.3831 0.44066 0.0
H465 H 1.00231 0.39508 0.50197 0.0
H466 H 0.01343 0.40271 0.60169 0.0
H467 H 0.00927 0.40556 0.70329 0.0
Mn468 Mn 0.61475 0.53462 0.58833 0.0
Mn469 Mn 0.63708 0.57202 0.6063 0.0
C470 C 0.60706 0.55094 0.55526 0.0
C471 C 0.59585 0.51091 0.61797 0.0
C472 C 0.64235 0.5546 0.51483 0.0
O473 O 0.6295 0.53589 0.64971 0.0
O474 O 0.64338 0.56104 0.65826 0.0
C475 C 0.62738 0.57406 0.72266 0.0
N476 N 0.6293 0.57836 0.66722 0.0
C477 C 0.61946 0.59486 0.68401 0.0
C478 C 0.61748 0.59069 0.7414 0.0
C479 C 0.62145 0.58023 0.76078 0.0
C480 C 0.62553 0.58842 0.64814 0.0
H481 H 0.63032 0.56594 0.73763 0.0
C482 C 0.64025 0.54775 0.67176 0.0
O483 O 0.60589 0.51252 0.58101 0.0
O484 O 0.59721 0.5231 0.6399 0.0
N485 N 0.63241 0.58418 0.55897 0.0
C486 C 0.63452 0.58654 0.50198 0.0
C487 C 0.63063 0.59631 0.47546 0.0
C488 C 0.6248 0.60364 0.50794 0.0
C489 C 0.6232 0.60144 0.56679 0.0
C490 C 0.62732 0.59161 0.59089 0.0
H491 H 0.63888 0.58082 0.47679 0.0
O492 O 0.6014 0.53753 0.53452 0.0
O493 O 0.61697 0.55442 0.59543 0.0
O494 O 0.63112 0.54183 0.52701 0.0
O495 O 0.64574 0.56658 0.54215 0.0
C496 C 0.61722 0.60819 0.60219 0.0
C497 C 0.61536 0.60491 0.66077 0.0
H498 H 0.6128 0.59534 0.77085 0.0
H499 H 0.61988 0.57689 0.80494 0.0
H500 H 0.63191 0.59803 0.43002 0.0
H501 H 0.62131 0.61068 0.487 0.0
H502 H 0.61376 0.61571 0.58475 0.0
H503 H 0.61058 0.61003 0.68741 0.0
Mn504 Mn 0.47657 0.08318 0.58199 0.0
Mn505 Mn 0.43922 0.06786 0.60301 0.0
C506 C 0.4602 0.05911 0.54948 0.0
C507 C 0.50052 0.08813 0.60949 0.0
C508 C 0.45601 0.09054 0.51074 0.0
O509 O 0.47549 0.09661 0.64421 0.0
O510 O 0.45037 0.08517 0.65458 0.0
C511 C 0.43796 0.05626 0.71908 0.0
N512 N 0.43334 0.0538 0.66399 0.0
C513 C 0.41723 0.02743 0.6813 0.0
C514 C 0.42173 0.0297 0.73834 0.0
C515 C 0.43215 0.04418 0.75728 0.0
C516 C 0.4233 0.03993 0.64535 0.0
H517 H 0.44606 0.06735 0.73369 0.0
C518 C 0.46369 0.09539 0.66733 0.0
O519 O 0.49865 0.09651 0.57306 0.0
O520 O 0.48846 0.0773 0.63217 0.0
N521 N 0.42689 0.05098 0.55626 0.0
C522 C 0.42414 0.05066 0.49956 0.0
C523 C 0.4143 0.03696 0.4735 0.0
C524 C 0.40734 0.02381 0.50612 0.0
C525 C 0.40995 0.02447 0.5647 0.0
C526 C 0.41977 0.03847 0.5884 0.0
H527 H 0.4296 0.06074 0.47424 0.0
O528 O 0.47349 0.06694 0.52777 0.0
O529 O 0.45687 0.06551 0.59024 0.0
O530 O 0.46891 0.09222 0.52176 0.0
O531 O 0.4442 0.08189 0.53888 0.0
C532 C 0.4036 0.01174 0.60017 0.0
C533 C 0.40722 0.01323 0.65843 0.0
H534 H 0.41736 0.02039 0.76783 0.0
H535 H 0.43574 0.046 0.80116 0.0
H536 H 0.41228 0.03649 0.42826 0.0
H537 H 0.40029 0.01326 0.48548 0.0
H538 H 0.39612 1.00073 0.583 0.0
H539 H 0.4024 1.00334 0.68513 0.0
Mn540 Mn 0.73005 0.5914 0.08682 0.0
Mn541 Mn 0.70804 0.60681 0.06748 0.0
C542 C 0.73802 0.61556 0.11858 0.0
C543 C 0.74874 0.58617 0.05792 0.0
C544 C 0.70259 0.58437 0.16021 0.0
O545 O 0.71521 0.57784 0.02583 0.0
O546 O 0.70152 0.5893 0.01655 0.0
C547 C 0.71774 0.61799 0.95053 0.0
N548 N 0.7159 0.62065 0.00574 0.0
C549 C 0.72599 0.64694 0.98726 0.0
C550 C 0.72789 0.64447 0.93009 0.0
C551 C 0.72376 0.62993 0.91168 0.0
C552 C 0.71983 0.63459 0.0239 0.0
H553 H 0.71468 0.60685 0.9363 0.0
C554 C 0.70452 0.57902 0.00359 0.0
O555 O 0.73867 0.57796 0.09517 0.0
O556 O 0.74753 0.59702 0.03535 0.0
N557 N 0.71294 0.62387 0.1137 0.0
C558 C 0.71088 0.6244 0.1706 0.0
C559 C 0.71493 0.63821 0.19619 0.0
C560 C 0.72086 0.65123 0.16289 0.0
C561 C 0.72239 0.65034 0.10414 0.0
C562 C 0.71811 0.63626 0.08098 0.0
H563 H 0.70644 0.61442 0.19641 0.0
O564 O 0.74354 0.60775 0.13997 0.0
O565 O 0.72806 0.60908 0.0786 0.0
O566 O 0.71369 0.58259 0.14823 0.0
O567 O 0.69932 0.59299 0.13242 0.0
C568 C 0.72847 0.66292 0.06796 0.0
C569 C 0.73025 0.66122 0.00955 0.0
H570 H 0.73263 0.65367 0.90008 0.0
H571 H 0.72527 0.62795 0.86771 0.0
H572 H 0.7137 0.63885 0.24155 0.0
H573 H 0.72449 0.66186 0.18311 0.0
H574 H 0.73205 0.67399 0.08467 0.0
H575 H 0.7351 0.671 0.9823 0.0
Mn576 Mn 0.41752 0.13949 0.082 0.0
Mn577 Mn 0.40234 0.10211 0.06301 0.0
C578 C 0.39357 0.12319 0.11564 0.0
C579 C 0.42228 0.16326 0.05313 0.0
C580 C 0.42517 0.11931 0.15435 0.0
O581 O 0.43088 0.13828 0.01983 0.0
O582 O 0.41961 0.11315 0.01103 0.0
C583 C 0.39059 0.10046 0.94693 0.0
N584 N 0.3882 0.096 0.00222 0.0
C585 C 0.36181 0.07986 0.98556 0.0
C586 C 0.364 0.08418 0.92833 0.0
C587 C 0.37845 0.09453 0.90896 0.0
C588 C 0.37436 0.08603 0.02127 0.0
H589 H 0.40166 0.10851 0.93198 0.0
C590 C 0.42975 0.12644 0.99752 0.0
O591 O 0.43079 0.1616 0.08959 0.0
O592 O 0.41142 0.1511 0.03124 0.0
N593 N 0.38553 0.08989 0.11022 0.0
C594 C 0.3853 0.08731 0.16703 0.0
C595 C 0.37163 0.07754 0.19349 0.0
C596 C 0.35843 0.07049 0.16115 0.0
C597 C 0.359 0.07293 0.10247 0.0
C598 C 0.37297 0.08268 0.07837 0.0
H599 H 0.39541 0.09284 0.19212 0.0
O600 O 0.40141 0.13656 0.13654 0.0
O601 O 0.3999 0.11973 0.07495 0.0
O602 O 0.42679 0.13214 0.14252 0.0
O603 O 0.41647 0.10737 0.12699 0.0
C604 C 0.34623 0.06648 0.06726 0.0
C605 C 0.34763 0.06992 0.00884 0.0
H606 H 0.35464 0.07972 0.89901 0.0
H607 H 0.38022 0.09799 0.86492 0.0
H608 H 0.37122 0.07565 0.2388 0.0
H609 H 0.34791 0.06349 0.18206 0.0
H610 H 0.33524 0.05904 0.08473 0.0
H611 H 0.33771 0.06502 0.98234 0.0
Mn612 Mn 0.87126 0.28135 0.08675 0.0
Mn613 Mn 0.90813 0.30308 0.05678 0.0
C614 C 0.88834 0.27415 0.11654 0.0
C615 C 0.84699 0.26209 0.06441 0.0
C616 C 0.89286 0.30988 0.15266 0.0
O617 O 0.8711 0.29503 0.02386 0.0
O618 O 0.89598 0.3086 0.00792 0.0
C619 C 0.90743 0.2916 0.94091 0.0
N620 N 0.91321 0.29463 0.99439 0.0
C621 C 0.93156 0.28761 0.9701 0.0
C622 C 0.92584 0.28443 0.91466 0.0
C623 C 0.91365 0.28634 0.90013 0.0
C624 C 0.9247 0.29251 0.00916 0.0
H625 H 0.89819 0.29325 0.92947 0.0
C626 C 0.88249 0.30537 0.99806 0.0
O627 O 0.84931 0.27259 0.10032 0.0
O628 O 0.85874 0.26307 0.0399 0.0
N629 N 0.92165 0.29941 0.10005 0.0
C630 C 0.92561 0.30271 0.1556 0.0
C631 C 0.938 0.30202 0.17656 0.0
C632 C 0.94624 0.29807 0.14012 0.0
C633 C 0.9417 0.29426 0.08351 0.0
C634 C 0.92936 0.29534 0.06488 0.0
H635 H 0.91955 0.30613 0.18344 0.0
O636 O 0.87541 0.26896 0.14114 0.0
O637 O 0.8909 0.28326 0.07426 0.0
O638 O 0.8797 0.29882 0.14414 0.0
O639 O 0.90413 0.31244 0.12211 0.0
C640 C 0.94908 0.28978 0.04448 0.0
C641 C 0.94387 0.28623 0.98806 0.0
H642 H 0.93071 0.28054 0.88292 0.0
H643 H 0.90916 0.2839 0.85746 0.0
H644 H 0.94139 0.30486 0.22038 0.0
H645 H 0.95618 0.29823 0.15604 0.0
H646 H 0.95876 0.28899 0.05731 0.0
H647 H 0.94952 0.28261 0.95867 0.0
Mn648 Mn 0.4184 0.27991 0.08491 0.0
Mn649 Mn 0.40473 0.30336 0.06428 0.0
C650 C 0.39467 0.27347 0.11823 0.0
C651 C 0.4226 0.26042 0.05753 0.0
C652 C 0.42687 0.30796 0.15692 0.0
O653 O 0.4323 0.29403 0.023 0.0
O654 O 0.42208 0.30881 0.01377 0.0
C655 C 0.39333 0.29349 0.94769 0.0
N656 N 0.39091 0.29597 0.00242 0.0
C657 C 0.36557 0.28965 0.98135 0.0
C658 C 0.36778 0.28706 0.92467 0.0
C659 C 0.38169 0.28888 0.90787 0.0
C660 C 0.37746 0.29388 0.01934 0.0
H661 H 0.40408 0.29507 0.93452 0.0
C662 C 0.43183 0.3051 1.00076 0.0
O663 O 0.43111 0.27052 0.0941 0.0
O664 O 0.4119 0.26193 0.03499 0.0
N665 N 0.38793 0.29986 0.10975 0.0
C666 C 0.38773 0.30296 0.16587 0.0
C667 C 0.37485 0.30224 0.18915 0.0
C668 C 0.36244 0.29864 0.15431 0.0
C669 C 0.36281 0.29528 0.09681 0.0
C670 C 0.37598 0.29622 0.07599 0.0
H671 H 0.39742 0.30622 0.19245 0.0
O672 O 0.402 0.26738 0.13929 0.0
O673 O 0.40124 0.28295 0.07689 0.0
O674 O 0.42806 0.29652 0.14502 0.0
O675 O 0.41856 0.31166 0.12927 0.0
C676 C 0.35082 0.29146 0.05896 0.0
C677 C 0.35211 0.28841 1.00149 0.0
H678 H 0.35889 0.2837 0.89368 0.0
H679 H 0.38349 0.2869 0.86423 0.0
H680 H 0.37462 0.30482 0.23353 0.0
H681 H 0.35284 0.29879 0.17207 0.0
H682 H 0.34056 0.29089 0.07336 0.0
H683 H 0.34276 0.28535 0.97297 0.0
Mn684 Mn 0.7316 0.14064 0.08613 0.0
Mn685 Mn 0.71137 0.1033 0.06226 0.0
C686 C 0.74052 0.12507 0.1169 0.0
C687 C 0.74998 0.16496 0.06002 0.0
C688 C 0.70431 0.11855 0.15732 0.0
O689 O 0.71693 0.1392 0.02427 0.0
O690 O 0.70403 0.11408 0.01389 0.0
C691 C 0.72153 0.10362 0.9444 0.0
N692 N 0.71983 0.09857 0.99883 0.0
C693 C 0.73097 0.08347 0.97645 0.0
C694 C 0.73273 0.08842 0.92003 0.0
C695 C 0.72801 0.09855 0.90398 0.0
C696 C 0.72433 0.08882 0.01472 0.0
H697 H 0.718 0.11147 0.93196 0.0
C698 C 0.70648 0.12723 1.00175 0.0
O699 O 0.73958 0.1626 0.09655 0.0
O700 O 0.74922 0.15321 0.03653 0.0
N701 N 0.717 0.09125 0.10569 0.0
C702 C 0.715 0.08803 0.16221 0.0
C703 C 0.71965 0.0785 0.1856 0.0
C704 C 0.72612 0.07228 0.1505 0.0
C705 C 0.72752 0.07524 0.09211 0.0
C706 C 0.72267 0.08481 0.07119 0.0
H707 H 0.71027 0.09301 0.18951 0.0
O708 O 0.74519 0.13808 0.13999 0.0
O709 O 0.7308 0.12149 0.07592 0.0
O710 O 0.71459 0.13193 0.14575 0.0
O711 O 0.70224 0.10713 0.12878 0.0
C712 C 0.73407 0.06957 0.05428 0.0
C713 C 0.73578 0.07367 0.99646 0.0
H714 H 0.73782 0.08461 0.88882 0.0
H715 H 0.72941 0.10248 0.86059 0.0
H716 H 0.71855 0.07622 0.23072 0.0
H717 H 0.73041 0.06565 0.16915 0.0
H718 H 0.73807 0.06225 0.06936 0.0
H719 H 0.74099 0.06938 0.96789 0.0
Mn720 Mn 0.86998 0.59211 0.08339 0.0
Mn721 Mn 0.90736 0.60747 0.06334 0.0
C722 C 0.88625 0.61617 0.11601 0.0
C723 C 0.84609 0.58704 0.0549 0.0
C724 C 0.89039 0.58471 0.15515 0.0
O725 O 0.8712 0.57871 0.02157 0.0
O726 O 0.89633 0.59024 0.01122 0.0
C727 C 0.90896 0.61931 0.94745 0.0
N728 N 0.91342 0.62165 0.00273 0.0
C729 C 0.92974 0.64802 0.98616 0.0
C730 C 0.92541 0.64587 0.92893 0.0
C731 C 0.91497 0.63145 0.90953 0.0
C732 C 0.92347 0.63547 0.02184 0.0
H733 H 0.90086 0.60826 0.93248 0.0
C734 C 0.88303 0.57999 0.99846 0.0
O735 O 0.84792 0.57871 0.09169 0.0
O736 O 0.85816 0.59793 0.03258 0.0
N737 N 0.91953 0.62426 0.11073 0.0
C738 C 0.92204 0.62448 0.1676 0.0
C739 C 0.93181 0.63812 0.19416 0.0
C740 C 0.939 0.65131 0.16184 0.0
C741 C 0.93663 0.65076 0.1031 0.0
C742 C 0.92681 0.63682 0.07895 0.0
H743 H 0.91643 0.61437 0.19267 0.0
O744 O 0.87292 0.60834 0.13738 0.0
O745 O 0.88967 0.60978 0.07549 0.0
O746 O 0.87753 0.5831 0.14404 0.0
O747 O 0.90223 0.59332 0.12712 0.0
C748 C 0.94323 0.66353 0.06788 0.0
C749 C 0.93979 0.66215 0.00944 0.0
H750 H 0.92994 0.65523 0.89963 0.0
H751 H 0.91151 0.62972 0.8655 0.0
H752 H 0.93365 0.63851 0.23951 0.0
H753 H 0.94607 0.66181 0.18283 0.0
H754 H 0.95075 0.67449 0.08536 0.0
H755 H 0.94479 0.67208 0.98294 0.0
Mn756 Mn 0.61713 0.08335 0.585 0.0
Mn757 Mn 0.63886 0.0681 0.61322 0.0
C758 C 0.60999 0.05924 0.55351 0.0
C759 C 0.59774 0.08814 0.60815 0.0
C760 C 0.6458 0.0907 0.51916 0.0
O761 O 0.63074 0.09687 0.64876 0.0
O762 O 0.64423 0.08542 0.66394 0.0
C763 C 0.62715 0.05646 0.72807 0.0
N764 N 0.63029 0.05412 0.67416 0.0
C765 C 0.62331 0.02861 0.69553 0.0
C766 C 0.62001 0.03072 0.75137 0.0
C767 C 0.62184 0.04468 0.76758 0.0
C768 C 0.62823 0.04064 0.65776 0.0
H769 H 0.62876 0.06724 0.7408 0.0
C770 C 0.64099 0.09564 0.67456 0.0
O771 O 0.6083 0.09654 0.57278 0.0
O772 O 0.59877 0.07731 0.63182 0.0
N773 N 0.63531 0.05127 0.56794 0.0
C774 C 0.63877 0.05105 0.51225 0.0
C775 C 0.6382 0.03818 0.48972 0.0
C776 C 0.63424 0.02574 0.52478 0.0
C777 C 0.63027 0.02602 0.58156 0.0
C778 C 0.63118 0.03923 0.60175 0.0
H779 H 0.64221 0.06073 0.48547 0.0
O780 O 0.60481 0.06707 0.5296 0.0
O781 O 0.61907 0.06561 0.59603 0.0
O782 O 0.63465 0.09267 0.52776 0.0
O783 O 0.64837 0.08194 0.54927 0.0
C784 C 0.62576 0.01388 0.61928 0.0
C785 C 0.62205 0.01509 0.67597 0.0
H786 H 0.6161 0.02173 0.78216 0.0
H787 H 0.61932 0.0464 0.81058 0.0
H788 H 0.64115 0.03797 0.44577 0.0
H789 H 0.63448 0.01611 0.50762 0.0
H790 H 0.62507 1.00355 0.6052 0.0
H791 H 0.61843 0.00562 0.70434 0.0
Mn792 Mn 0.92747 0.53449 0.5835 0.0
Mn793 Mn 0.94313 0.57188 0.60409 0.0
C794 C 0.95163 0.5506 0.5513 0.0
C795 C 0.9221 0.51051 0.61182 0.0
C796 C 0.92051 0.5552 0.5115 0.0
O797 O 0.91404 0.53578 0.64504 0.0
O798 O 0.92568 0.56089 0.65528 0.0
C799 C 0.95445 0.573 0.72054 0.0
N800 N 0.95706 0.57762 0.66546 0.0
C801 C 0.98344 0.59346 0.68339 0.0
C802 C 0.98103 0.58897 0.74043 0.0
C803 C 0.96647 0.57869 0.75906 0.0
C804 C 0.97101 0.58752 0.64712 0.0
H805 H 0.9433 0.56501 0.73492 0.0
C806 C 0.91534 0.54762 0.66792 0.0
O807 O 0.91391 0.51247 0.57479 0.0
O808 O 0.93304 0.52251 0.63438 0.0
N809 N 0.96014 0.58406 0.55772 0.0
C810 C 0.96059 0.58684 0.501 0.0
C811 C 0.97438 0.59655 0.47524 0.0
C812 C 0.98748 0.60336 0.5082 0.0
C813 C 0.98669 0.60075 0.56679 0.0
C814 C 0.97261 0.59105 0.59016 0.0
H815 H 0.95055 0.58149 0.47544 0.0
O816 O 0.94371 0.5373 0.5298 0.0
O817 O 0.94526 0.55409 0.59177 0.0
O818 O 0.91868 0.54226 0.5228 0.0
O819 O 0.92922 0.567 0.53956 0.0
C820 C 0.99936 0.60696 0.60257 0.0
C821 C 0.99773 0.60333 0.66084 0.0
H822 H 0.99028 0.59323 0.77016 0.0
H823 H 0.96453 0.5751 0.80294 0.0
H824 H 0.97497 0.59858 0.42999 0.0
H825 H 0.99811 0.61028 0.48781 0.0
H826 H 0.01043 0.61434 0.58563 0.0
H827 H 0.00757 0.60805 0.68779 0.0
Mn828 Mn 0.4755 0.39432 0.58752 0.0
Mn829 Mn 0.43841 0.37078 0.60804 0.0
C830 C 0.45817 0.4009 0.55566 0.0
C831 C 0.49918 0.41374 0.61511 0.0
C832 C 0.45597 0.36647 0.51466 0.0
O833 O 0.47532 0.38002 0.64865 0.0
O834 O 0.45032 0.36523 0.65808 0.0
C835 C 0.43675 0.38027 0.72517 0.0
N836 N 0.43186 0.3779 0.67041 0.0
C837 C 0.41273 0.38404 0.69208 0.0
C838 C 0.41752 0.38651 0.74879 0.0
C839 C 0.42964 0.38471 0.76531 0.0
C840 C 0.42043 0.37991 0.65382 0.0
H841 H 0.44595 0.37873 0.73808 0.0
C842 C 0.4638 0.36892 0.67082 0.0
O843 O 0.49758 0.40374 0.57801 0.0
O844 O 0.48699 0.41215 0.63808 0.0
N845 N 0.42514 0.37442 0.56295 0.0
C846 C 0.42206 0.37175 0.50652 0.0
C847 C 0.40994 0.37257 0.48336 0.0
C848 C 0.40101 0.37591 0.51857 0.0
C849 C 0.40455 0.3789 0.57633 0.0
C850 C 0.41669 0.3778 0.59707 0.0
H851 H 0.42863 0.36872 0.4796 0.0
O852 O 0.47155 0.40701 0.53415 0.0
O853 O 0.45532 0.39125 0.59633 0.0
O854 O 0.46858 0.37791 0.52666 0.0
O855 O 0.44397 0.36266 0.54254 0.0
C856 C 0.39634 0.38262 0.61442 0.0
C857 C 0.40057 0.3854 0.67206 0.0
H858 H 0.41197 0.38979 0.77998 0.0
H859 H 0.43342 0.38661 0.80897 0.0
H860 H 0.40728 0.37029 0.43873 0.0
H861 H 0.3913 0.37588 0.50084 0.0
H862 H 0.38675 0.38336 0.59998 0.0
H863 H 0.39429 0.38842 0.70076 0.0
Mn864 Mn 0.59352 0.72895 0.9149 0.0
Mn865 Mn 0.60934 0.70728 0.93416 0.0
C866 C 0.61772 0.73718 0.88277 0.0
C867 C 0.58784 0.74731 0.94378 0.0
C868 C 0.58682 0.7016 0.84151 0.0
O869 O 0.58009 0.71402 0.97586 0.0
O870 O 0.59181 0.7006 0.98515 0.0
C871 C 0.62052 0.71713 0.05102 0.0
N872 N 0.6232 0.7153 0.99582 0.0
C873 C 0.64956 0.72578 0.01409 0.0
C874 C 0.64707 0.72767 0.07124 0.0
C875 C 0.63249 0.72333 0.08976 0.0
C876 C 0.63717 0.71941 0.97758 0.0
H877 H 0.60935 0.71392 0.06532 0.0
C878 C 0.58141 0.70342 0.9981 0.0
O879 O 0.57978 0.7372 0.90648 0.0
O880 O 0.59886 0.74637 0.96634 0.0
N881 N 0.62642 0.7123 0.8879 0.0
C882 C 0.62694 0.71011 0.8311 0.0
C883 C 0.64076 0.71427 0.80546 0.0
C884 C 0.65382 0.72046 0.83861 0.0
C885 C 0.65296 0.7221 0.89729 0.0
C886 C 0.63885 0.71766 0.92053 0.0
H887 H 0.61693 0.70549 0.80537 0.0
O888 O 0.60976 0.74257 0.86166 0.0
O889 O 0.61138 0.72722 0.92289 0.0
O890 O 0.5849 0.7126 0.85359 0.0
O891 O 0.59553 0.69843 0.86925 0.0
C892 C 0.66558 0.72843 0.93329 0.0
C893 C 0.66388 0.73025 0.99167 0.0
H894 H 0.65629 0.73256 0.10116 0.0
H895 H 0.63049 0.72484 0.13373 0.0
H896 H 0.6414 0.71296 0.76014 0.0
H897 H 0.66448 0.72426 0.81831 0.0
H898 H 0.67667 0.73216 0.91645 0.0
H899 H 0.67368 0.73528 0.0188 0.0
Mn900 Mn 0.28218 0.86884 0.92398 0.0
Mn901 Mn 0.30547 0.90593 0.94531 0.0
C902 C 0.27557 0.88608 0.89147 0.0
C903 C 0.26277 0.84516 0.95153 0.0
C904 C 0.31022 0.88854 0.85241 0.0
O905 O 0.2964 0.86907 0.98551 0.0
O906 O 0.31094 0.89407 0.99599 0.0
C907 C 0.29551 0.90747 0.06172 0.0
N908 N 0.29802 0.91236 0.00697 0.0
C909 C 0.29161 0.93134 0.02765 0.0
C910 C 0.28898 0.92655 0.08435 0.0
C911 C 0.29084 0.9145 0.10135 0.0
C912 C 0.29593 0.9237 0.98988 0.0
H913 H 0.29711 0.89833 0.07502 0.0
C914 C 0.30734 0.8806 0.00837 0.0
O915 O 0.27281 0.84675 0.91461 0.0
O916 O 0.2643 0.85734 0.97424 0.0
N917 N 0.30191 0.91915 0.89958 0.0
C918 C 0.30488 0.92232 0.84333 0.0
C919 C 0.30408 0.93441 0.8198 0.0
C920 C 0.30047 0.94324 0.85448 0.0
C921 C 0.2972 0.93962 0.91207 0.0
C922 C 0.29826 0.92748 0.93318 0.0
H923 H 0.30812 0.91585 0.81686 0.0
O924 O 0.26953 0.87271 0.87007 0.0
O925 O 0.28511 0.88896 0.93257 0.0
O926 O 0.29874 0.87589 0.86363 0.0
O927 O 0.31389 0.90046 0.88057 0.0
C928 C 0.29329 0.94776 0.9497 0.0
C929 C 0.29027 0.94348 0.00723 0.0
H930 H 0.28556 0.93206 0.11518 0.0
H931 H 0.28883 0.91073 0.14501 0.0
H932 H 0.30658 0.93714 0.77531 0.0
H933 H 0.30052 0.95292 0.83647 0.0
H934 H 0.29258 0.95735 0.935 0.0
H935 H 0.28712 0.94972 0.03557 0.0
Mn936 Mn 0.14307 0.41568 0.91876 0.0
Mn937 Mn 0.10565 0.40014 0.93827 0.0
C938 C 0.1269 0.39166 0.88538 0.0
C939 C 0.16699 0.42071 0.94693 0.0
C940 C 0.12259 0.42299 0.84674 0.0
O941 O 0.14177 0.42897 0.98101 0.0
O942 O 0.11662 0.41752 0.98975 0.0
C943 C 0.10432 0.38864 0.05458 0.0
N944 N 0.09978 0.38612 0.99941 0.0
C945 C 0.08384 0.35974 0.01682 0.0
C946 C 0.08826 0.36206 0.07394 0.0
C947 C 0.09855 0.37658 0.09287 0.0
C948 C 0.08986 0.37221 0.98077 0.0
H949 H 0.11233 0.39976 0.06919 0.0
C950 C 0.12987 0.42776 0.00319 0.0
O951 O 0.16514 0.42913 0.91067 0.0
O952 O 0.15493 0.40977 0.96911 0.0
N953 N 0.09347 0.3832 0.89155 0.0
C954 C 0.09076 0.38284 0.83481 0.0
C955 C 0.08103 0.36909 0.80877 0.0
C956 C 0.07414 0.35595 0.84148 0.0
C957 C 0.07669 0.35666 0.9001 0.0
C958 C 0.0864 0.3707 0.92376 0.0
H959 H 0.09617 0.39291 0.80945 0.0
O960 O 0.14024 0.3996 0.86417 0.0
O961 O 0.12341 0.39793 0.92614 0.0
O962 O 0.1355 0.4248 0.85854 0.0
O963 O 0.11068 0.41414 0.87402 0.0
C964 C 0.07039 0.34395 0.93564 0.0
C965 C 0.07395 0.34549 0.99397 0.0
H966 H 0.08392 0.35277 0.1035 0.0
H967 H 0.10209 0.37845 0.13682 0.0
H968 H 0.07905 0.36858 0.7635 0.0
H969 H 0.0672 0.34536 0.8209 0.0
H970 H 0.06299 0.33291 0.91848 0.0
H971 H 0.06916 0.33562 0.02074 0.0
Mn972 Mn 0.39622 0.92564 0.4222 0.0
Mn973 Mn 0.373 0.93942 0.39823 0.0
C974 C 0.40286 0.94967 0.45261 0.0
C975 C 0.41559 0.92111 0.39658 0.0
C976 C 0.36813 0.91771 0.49296 0.0
O977 O 0.38206 0.91141 0.36107 0.0
O978 O 0.36751 0.92183 0.34909 0.0
C979 C 0.383 0.95024 0.28115 0.0
N980 N 0.38048 0.95294 0.33547 0.0
C981 C 0.38695 0.97821 0.31234 0.0
C982 C 0.38958 0.97572 0.25605 0.0
C983 C 0.38769 0.9617 0.2405 0.0
C984 C 0.38259 0.96647 0.35118 0.0
H985 H 0.38138 0.93942 0.26895 0.0
C986 C 0.37112 0.91191 0.33768 0.0
O987 O 0.40549 0.91289 0.43365 0.0
O988 O 0.41415 0.93169 0.3726 0.0
N989 N 0.3766 0.95647 0.44229 0.0
C990 C 0.37365 0.95701 0.49834 0.0
C991 C 0.3745 0.97005 0.5205 0.0
C992 C 0.37814 0.98229 0.48465 0.0
C993 C 0.38138 0.98159 0.42728 0.0
C994 C 0.38027 0.96825 0.40757 0.0
H995 H 0.3704 0.94746 0.5257 0.0
O996 O 0.40883 0.94239 0.47527 0.0
O997 O 0.39335 0.94282 0.41165 0.0
O998 O 0.37959 0.91643 0.48228 0.0
O999 O 0.36452 0.92589 0.46401 0.0
C1000 C 0.38532 0.99342 0.38854 0.0
C1001 C 0.38832 0.99181 0.33133 0.0
H1002 H 0.39303 0.98447 0.22444 0.0
H1003 H 0.38971 0.95969 0.19717 0.0
H1004 H 0.37203 0.97056 0.56482 0.0
H1005 H 0.37814 0.99205 0.50159 0.0
H1006 H 0.38604 1.0038 0.4021 0.0
H1007 H 0.3915 1.00105 0.30214 0.0
Mn1008 Mn 0.0856 0.47353 0.41851 0.0
Mn1009 Mn 0.07191 0.43636 0.39985 0.0
C1010 C 0.06189 0.45635 0.45258 0.0
C1011 C 0.08942 0.49706 0.39053 0.0
C1012 C 0.0946 0.45436 0.49054 0.0
O1013 O 0.09921 0.47302 0.35571 0.0
O1014 O 0.08875 0.44796 0.3468 0.0
C1015 C 0.05934 0.43376 0.28465 0.0
N1016 N 0.05751 0.4293 0.33989 0.0
C1017 C 0.03209 0.40986 0.32277 0.0
C1018 C 0.03369 0.4142 0.26561 0.0
C1019 C 0.04734 0.42627 0.24657 0.0
C1020 C 0.04434 0.41793 0.35891 0.0
H1021 H 0.06988 0.44291 0.2698 0.0
C1022 C 0.09846 0.46138 0.33301 0.0
O1023 O 0.09819 0.49569 0.42651 0.0
O1024 O 0.07878 0.48475 0.36854 0.0
N1025 N 0.05559 0.42345 0.44799 0.0
C1026 C 0.05586 0.4209 0.50462 0.0
C1027 C 0.04328 0.4089 0.53018 0.0
C1028 C 0.03067 0.39956 0.49717 0.0
C1029 C 0.0305 0.4026 0.43918 0.0
C1030 C 0.04341 0.41465 0.416 0.0
H1031 H 0.0657 0.42777 0.52987 0.0
O1032 O 0.06933 0.46977 0.47351 0.0
O1033 O 0.06844 0.45333 0.41151 0.0
O1034 O 0.09558 0.46691 0.47869 0.0
O1035 O 0.08631 0.44233 0.4631 0.0
C1036 C 0.01818 0.39401 0.40323 0.0
C1037 C 0.01889 0.39778 0.34527 0.0
H1038 H 0.02451 0.40836 0.23599 0.0
H1039 H 0.04865 0.42971 0.20254 0.0
H1040 H 0.04343 0.40666 0.57499 0.0
H1041 H 0.02124 0.39 0.51685 0.0
H1042 H 0.00807 0.38452 0.41967 0.0
H1043 H 0.00927 0.39122 0.31826 0.0
Mn1044 Mn 0.5378 0.61416 0.41358 0.0
Mn1045 Mn 0.57486 0.6376 0.39197 0.0
C1046 C 0.55514 0.60769 0.44598 0.0
C1047 C 0.51408 0.59467 0.38684 0.0
C1048 C 0.55745 0.64229 0.48492 0.0
O1049 O 0.53793 0.6282 0.3515 0.0
O1050 O 0.56291 0.64292 0.3411 0.0
C1051 C 0.57644 0.6276 0.27563 0.0
N1052 N 0.58136 0.6302 0.33033 0.0
C1053 C 0.60044 0.62392 0.30971 0.0
C1054 C 0.59562 0.62121 0.25305 0.0
C1055 C 0.5835 0.62296 0.23604 0.0
C1056 C 0.59279 0.62824 0.34741 0.0
H1057 H 0.56723 0.6291 0.26232 0.0
C1058 C 0.54941 0.63916 0.32847 0.0
O1059 O 0.51574 0.6048 0.42339 0.0
O1060 O 0.52623 0.59615 0.36395 0.0
N1061 N 0.58815 0.63413 0.43772 0.0
C1062 C 0.59123 0.63699 0.49406 0.0
C1063 C 0.60332 0.6362 0.51768 0.0
C1064 C 0.61223 0.63269 0.483 0.0
C1065 C 0.60868 0.62951 0.42532 0.0
C1066 C 0.59656 0.63058 0.40411 0.0
H1067 H 0.58469 0.64014 0.52057 0.0
O1068 O 0.5418 0.60167 0.46775 0.0
O1069 O 0.55795 0.61718 0.40478 0.0
O1070 O 0.54482 0.63079 0.47359 0.0
O1071 O 0.56938 0.64601 0.45674 0.0
C1072 C 0.61684 0.62561 0.38775 0.0
C1073 C 0.61259 0.6226 0.33019 0.0
H1074 H 0.60113 0.61778 0.22228 0.0
H1075 H 0.5797 0.62087 0.19243 0.0
H1076 H 0.60599 0.63862 0.56224 0.0
H1077 H 0.6219 0.63272 0.50107 0.0
H1078 H 0.62641 0.62488 0.40254 0.0
H1079 H 0.61884 0.61943 0.30192 0.0
Mn1080 Mn 0.08483 0.61372 0.42039 0.0
Mn1081 Mn 0.07129 0.63722 0.39815 0.0
C1082 C 0.06098 0.60733 0.45229 0.0
C1083 C 0.08895 0.59407 0.39413 0.0
C1084 C 0.09326 0.64188 0.49171 0.0
O1085 O 0.09886 0.62775 0.35837 0.0
O1086 O 0.08867 0.64254 0.34796 0.0
C1087 C 0.06003 0.62732 0.28142 0.0
N1088 N 0.05756 0.62987 0.33601 0.0
C1089 C 0.03231 0.62375 0.31421 0.0
C1090 C 0.03458 0.62109 0.25767 0.0
C1091 C 0.04847 0.62278 0.24132 0.0
C1092 C 0.04414 0.62793 0.35249 0.0
H1093 H 0.07076 0.62879 0.26859 0.0
C1094 C 0.0984 0.63876 0.33545 0.0
O1095 O 0.09743 0.60421 0.43064 0.0
O1096 O 0.07837 0.59564 0.37093 0.0
N1097 N 0.05444 0.63377 0.44319 0.0
C1098 C 0.0541 0.63669 0.49941 0.0
C1099 C 0.04119 0.63598 0.52237 0.0
C1100 C 0.02889 0.63253 0.48714 0.0
C1101 C 0.02938 0.62932 0.42958 0.0
C1102 C 0.04258 0.63026 0.40907 0.0
H1103 H 0.06371 0.63981 0.5263 0.0
O1104 O 0.06824 0.60128 0.47436 0.0
O1105 O 0.06774 0.6168 0.41111 0.0
O1106 O 0.09442 0.63039 0.48041 0.0
O1107 O 0.08504 0.64558 0.46339 0.0
C1108 C 0.01747 0.62558 0.39141 0.0
C1109 C 0.01885 0.62257 0.33399 0.0
H1110 H 0.02574 0.61776 0.22648 0.0
H1111 H 0.0503 0.62074 0.19779 0.0
H1112 H 0.04085 0.63843 0.56684 0.0
H1113 H 0.01923 0.63263 0.50473 0.0
H1114 H 0.0072 0.62502 0.40557 0.0
H1115 H 0.00955 0.61953 0.30524 0.0
Mn1116 Mn 0.39834 0.47393 0.41579 0.0
Mn1117 Mn 0.37587 0.43655 0.3981 0.0
C1118 C 0.40599 0.45756 0.44855 0.0
C1119 C 0.41726 0.49761 0.38593 0.0
C1120 C 0.37083 0.45405 0.4899 0.0
O1121 O 0.38354 0.47272 0.35468 0.0
O1122 O 0.36952 0.44758 0.34656 0.0
C1123 C 0.38531 0.43448 0.28134 0.0
N1124 N 0.38349 0.43018 0.33678 0.0
C1125 C 0.39328 0.41366 0.31932 0.0
C1126 C 0.39514 0.41783 0.26193 0.0
C1127 C 0.39115 0.42829 0.24289 0.0
C1128 C 0.38728 0.42011 0.35554 0.0
H1129 H 0.38235 0.4426 0.26662 0.0
C1130 C 0.37269 0.46087 0.33297 0.0
O1131 O 0.40728 0.49605 0.42309 0.0
O1132 O 0.41583 0.4854 0.36394 0.0
N1133 N 0.38058 0.42436 0.44502 0.0
C1134 C 0.37858 0.42199 0.50205 0.0
C1135 C 0.3825 0.4122 0.52824 0.0
C1136 C 0.38826 0.40487 0.49543 0.0
C1137 C 0.38975 0.40708 0.43656 0.0
C1138 C 0.3856 0.41692 0.41279 0.0
H1139 H 0.37427 0.42772 0.52749 0.0
O1140 O 0.41171 0.47098 0.46929 0.0
O1141 O 0.39603 0.45411 0.40858 0.0
O1142 O 0.38204 0.46681 0.4774 0.0
O1143 O 0.36737 0.44204 0.46267 0.0
C1144 C 0.39566 0.40033 0.40081 0.0
C1145 C 0.39741 0.4036 0.34223 0.0
H1146 H 0.39975 0.41316 0.23223 0.0
H1147 H 0.39264 0.43163 0.19873 0.0
H1148 H 0.3813 0.41048 0.57369 0.0
H1149 H 0.39177 0.39782 0.51612 0.0
H1150 H 0.39915 0.3928 0.41797 0.0
H1151 H 0.40213 0.39847 0.31532 0.0
Mn1152 Mn 0.53619 0.92547 0.42356 0.0
Mn1153 Mn 0.57351 0.94244 0.39931 0.0
C1154 C 0.55186 0.94972 0.45627 0.0
C1155 C 0.51199 0.91986 0.39713 0.0
C1156 C 0.558 0.91929 0.49187 0.0
O1157 O 0.53761 0.91255 0.36037 0.0
O1158 O 0.56268 0.92507 0.34751 0.0
C1159 C 0.57374 0.95405 0.2841 0.0
N1160 N 0.5786 0.95654 0.3389 0.0
C1161 C 0.59391 0.98304 0.32206 0.0
C1162 C 0.58917 0.98075 0.2653 0.0
C1163 C 0.57904 0.96618 0.24627 0.0
C1164 C 0.58839 0.9705 0.3576 0.0
H1165 H 0.56586 0.94289 0.26945 0.0
C1166 C 0.54949 0.91441 0.33581 0.0
O1167 O 0.51418 0.91156 0.43295 0.0
O1168 O 0.52384 0.93096 0.37466 0.0
N1169 N 0.58551 0.95939 0.44618 0.0
C1170 C 0.58837 0.95973 0.50279 0.0
C1171 C 0.59779 0.9735 0.52911 0.0
C1172 C 0.60421 0.9867 0.49682 0.0
C1173 C 0.60159 0.98604 0.43826 0.0
C1174 C 0.59215 0.97197 0.41432 0.0
H1175 H 0.58322 0.94963 0.52798 0.0
O1176 O 0.53879 0.94133 0.47892 0.0
O1177 O 0.5554 0.94373 0.41461 0.0
O1178 O 0.5447 0.91671 0.48211 0.0
O1179 O 0.56936 0.92851 0.46282 0.0
C1180 C 0.60744 0.99883 0.4032 0.0
C1181 C 0.60363 0.99732 0.34509 0.0
H1182 H 0.59313 0.99009 0.23611 0.0
H1183 H 0.57526 0.96433 0.20262 0.0
H1184 H 0.59979 0.974 0.57436 0.0
H1185 H 0.61068 0.99729 0.51787 0.0
H1186 H 0.61466 0.00988 0.42065 0.0
H1187 H 0.60804 0.00725 0.31871 0.0
Mn1188 Mn 0.28332 0.41586 0.91802 0.0
Mn1189 Mn 0.30694 0.40243 0.93954 0.0
C1190 C 0.2769 0.39199 0.88629 0.0
C1191 C 0.26371 0.41993 0.94506 0.0
C1192 C 0.31141 0.42437 0.84614 0.0
O1193 O 0.29743 0.42991 0.97974 0.0
O1194 O 0.31227 0.41977 0.98997 0.0
C1195 C 0.2972 0.39108 0.05629 0.0
N1196 N 0.29972 0.38867 1.00159 0.0
C1197 C 0.29358 0.36339 0.02284 0.0
C1198 C 0.29096 0.36559 0.0795 0.0
C1199 C 0.29269 0.37947 0.09619 0.0
C1200 C 0.29779 0.37527 0.98482 0.0
H1201 H 0.29867 0.40179 0.06934 0.0
C1202 C 0.30847 0.42948 0.00258 0.0
O1203 O 0.27374 0.42839 0.90819 0.0
O1204 O 0.26538 0.40938 0.96809 0.0
N1205 N 0.30346 0.38562 0.89419 0.0
C1206 C 0.30619 0.38529 0.83778 0.0
C1207 C 0.30537 0.37237 0.81441 0.0
C1208 C 0.30197 0.36003 0.8494 0.0
C1209 C 0.29894 0.36052 0.90717 0.0
C1210 C 0.30002 0.37374 0.92811 0.0
H1211 H 0.30924 0.3949 0.81103 0.0
O1212 O 0.2708 0.39923 0.86437 0.0
O1213 O 0.28646 0.39881 0.92714 0.0
O1214 O 0.29987 0.42545 0.85758 0.0
O1215 O 0.31519 0.41622 0.87437 0.0
C1216 C 0.29516 0.34855 0.94505 0.0
C1217 C 0.29227 0.3499 0.00265 0.0
H1218 H 0.28762 0.35672 0.11051 0.0
H1219 H 0.29066 0.38126 0.1398 0.0
H1220 H 0.30768 0.37203 0.76979 0.0
H1221 H 0.30197 0.35037 0.83149 0.0
H1222 H 0.29444 0.33824 0.9305 0.0
H1223 H 0.28919 0.34056 0.03117 0.0
Mn1224 Mn 0.59414 0.86843 0.92235 0.0
Mn1225 Mn 0.61181 0.90581 0.94542 0.0
C1226 C 0.61851 0.88359 0.89006 0.0
C1227 C 0.58797 0.84413 0.94966 0.0
C1228 C 0.58913 0.89069 0.85131 0.0
O1229 O 0.58123 0.87022 0.98461 0.0
O1230 O 0.59382 0.89535 0.99454 0.0
C1231 C 0.62189 0.90534 0.06275 0.0
N1232 N 0.62514 0.91035 0.00825 0.0
C1233 C 0.6515 0.92487 0.02935 0.0
C1234 C 0.64842 0.91996 0.08583 0.0
C1235 C 0.63355 0.91014 0.10257 0.0
C1236 C 0.6394 0.91981 0.99172 0.0
H1237 H 0.6105 0.8977 0.07568 0.0
C1238 C 0.58302 0.8823 0.00706 0.0
O1239 O 0.57989 0.84647 0.91321 0.0
O1240 O 0.59915 0.8559 0.97219 0.0
N1241 N 0.62941 0.91761 0.9013 0.0
C1242 C 0.63048 0.92089 0.84487 0.0
C1243 C 0.64463 0.93018 0.82088 0.0
C1244 C 0.65745 0.93607 0.8553 0.0
C1245 C 0.65604 0.93307 0.91364 0.0
C1246 C 0.64163 0.9238 0.93522 0.0
H1247 H 0.62068 0.91614 0.81807 0.0
O1248 O 0.60993 0.87054 0.86771 0.0
O1249 O 0.61267 0.88742 0.93136 0.0
O1250 O 0.58586 0.87725 0.86293 0.0
O1251 O 0.59869 0.90207 0.87951 0.0
C1252 C 0.66839 0.93841 0.95078 0.0
C1253 C 0.66611 0.93433 0.00863 0.0
H1254 H 0.6574 0.92355 0.11657 0.0
H1255 H 0.6311 0.90623 0.146 0.0
H1256 H 0.6457 0.9325 0.77579 0.0
H1257 H 0.66832 0.94245 0.83614 0.0
H1258 H 0.67969 0.94547 0.93515 0.0
H1259 H 0.6757 0.93838 0.03667 0.0
Mn1260 Mn 0.14284 0.72885 0.92219 0.0
Mn1261 Mn 0.1053 0.70696 0.93858 0.0
C1262 C 0.12693 0.73688 0.88752 0.0
C1263 C 0.1666 0.74754 0.95235 0.0
C1264 C 0.12267 0.70148 0.84766 0.0
O1265 O 0.1412 0.71401 0.98387 0.0
O1266 O 0.11602 0.70024 0.99013 0.0
C1267 C 0.10353 0.71659 0.05535 0.0
N1268 N 0.0992 0.71483 0.99994 0.0
C1269 C 0.0832 0.72522 0.01742 0.0
C1270 C 0.08739 0.72703 0.07478 0.0
C1271 C 0.09761 0.72271 0.09379 0.0
C1272 C 0.08937 0.71894 0.98121 0.0
H1273 H 0.11148 0.71339 0.07004 0.0
C1274 C 0.12919 0.70319 0.00466 0.0
O1275 O 0.16492 0.73739 0.91579 0.0
O1276 O 0.15443 0.74638 0.97372 0.0
N1277 N 0.09329 0.71194 0.89175 0.0
C1278 C 0.09069 0.70974 0.8349 0.0
C1279 C 0.08102 0.71383 0.80882 0.0
C1280 C 0.07403 0.71997 0.84158 0.0
C1281 C 0.07643 0.72162 0.90034 0.0
C1282 C 0.0861 0.71724 0.92403 0.0
H1283 H 0.09616 0.70514 0.80949 0.0
O1284 O 0.14041 0.74232 0.8677 0.0
O1285 O 0.12313 0.72697 0.928 0.0
O1286 O 0.13554 0.71241 0.86099 0.0
O1287 O 0.11061 0.69833 0.87399 0.0
C1288 C 0.07001 0.72789 0.93604 0.0
C1289 C 0.07337 0.72966 0.99454 0.0
H1290 H 0.08294 0.73185 0.10447 0.0
H1291 H 0.10097 0.72416 0.13792 0.0
H1292 H 0.07915 0.7125 0.76346 0.0
H1293 H 0.06712 0.72367 0.82092 0.0
H1294 H 0.06266 0.73159 0.91891 0.0
H1295 H 0.06848 0.73462 0.02144 0.0
H1296 H 0.22952 1.00107 0.66624 0.0
H1297 H 0.2277 0.00547 0.33554 0.0
H1298 H 0.20007 0.96255 0.56545 0.0
H1299 H 0.24342 0.04468 0.44071 0.0
H1300 H 0.21531 0.98962 0.41811 0.0
H1301 H 0.23273 0.01735 0.58556 0.0
C1302 C 0.22343 0.9961 0.62735 0.0
C1303 C 0.21448 0.98049 0.62239 0.0
C1304 C 0.22109 1.00169 0.42302 0.0
C1305 C 0.21849 0.999 0.5291 0.0
C1306 C 0.22809 0.01073 0.37583 0.0
C1307 C 0.23643 0.02637 0.3814 0.0
C1308 C 0.22284 0.00833 0.47663 0.0
C1309 C 0.2369 0.03266 0.43462 0.0
C1310 C 0.22527 0.00539 0.58126 0.0
C1311 C 0.20695 0.97456 0.57103 0.0
N1312 N 0.23047 0.02361 0.48048 0.0
N1313 N 0.20937 0.9838 0.52592 0.0
H1314 H 0.04851 0.24174 0.56276 0.0
H1315 H 0.96525 0.19758 0.43375 0.0
H1316 H 0.00852 0.22618 0.6634 0.0
H1317 H 1.00422 0.2295 0.34035 0.0
H1318 H 0.9815 0.20077 0.51563 0.0
H1319 H 0.03276 0.22982 0.47879 0.0
C1320 C 0.03643 0.2353 0.56753 0.0
C1321 C 0.02975 0.23482 0.61988 0.0
C1322 C 0.9865 0.20679 0.47667 0.0
C1323 C 0.01174 0.22141 0.52448 0.0
C1324 C 0.97727 0.20489 0.42996 0.0
C1325 C 0.98344 0.21333 0.38052 0.0
C1326 C 1.002 0.21701 0.4733 0.0
C1327 C 0.99904 0.22284 0.37793 0.0
C1328 C 0.02746 0.22866 0.51963 0.0
C1329 C 0.01405 0.2267 0.62367 0.0
N1330 N 0.00777 0.22448 0.42371 0.0
N1331 N 1.00556 0.2204 0.57656 0.0
H1332 H 0.7845 0.78082 0.33497 0.0
H1333 H 0.78263 0.78255 0.6658 0.0
H1334 H 0.81077 0.76788 0.43767 0.0
H1335 H 0.76969 0.80883 0.56321 0.0
H1336 H 0.79562 0.77965 0.58411 0.0
H1337 H 0.78157 0.79378 0.41666 0.0
C1338 C 0.79004 0.78112 0.37449 0.0
C1339 C 0.79795 0.77336 0.37973 0.0
C1340 C 0.79031 0.7864 0.57961 0.0
C1341 C 0.79417 0.78767 0.47407 0.0
C1342 C 0.78294 0.78809 0.6263 0.0
C1343 C 0.77518 0.796 0.6211 0.0
C1344 C 0.78952 0.79227 0.52675 0.0
C1345 C 0.77569 0.80278 0.56897 0.0
C1346 C 0.78832 0.78848 0.42118 0.0
C1347 C 0.80473 0.77388 0.43188 0.0
N1348 N 0.78247 0.8005 0.52339 0.0
N1349 N 0.80241 0.78063 0.47746 0.0
H1350 H 0.78236 1.00156 0.668 0.0
H1351 H 0.78493 0.0054 0.33692 0.0
H1352 H 0.7698 0.96241 0.56549 0.0
H1353 H 0.81115 0.04448 0.44014 0.0
H1354 H 0.7816 0.98943 0.41884 0.0
H1355 H 0.7953 0.01748 0.58637 0.0
C1356 C 0.78271 0.99635 0.6285 0.0
C1357 C 0.77508 0.98069 0.62333 0.0
C1358 C 0.78842 1.00148 0.42344 0.0
C1359 C 0.7894 0.99881 0.52907 0.0
C1360 C 0.79036 0.01059 0.37664 0.0
C1361 C 0.79839 0.02624 0.38192 0.0
C1362 C 0.79417 0.00808 0.47647 0.0
C1363 C 0.80502 0.03245 0.43432 0.0
C1364 C 0.79006 0.00543 0.58187 0.0
C1365 C 0.77569 0.97446 0.57122 0.0
N1366 N 0.8025 0.02334 0.47997 0.0
N1367 N 0.78245 0.98354 0.52568 0.0
H1368 H 0.04632 0.80993 0.57161 0.0
H1369 H 0.96321 0.76756 0.44152 0.0
H1370 H 0.00658 0.78106 0.66778 0.0
H1371 H 1.00327 0.7806 0.34407 0.0
H1372 H 0.9789 0.78018 0.52495 0.0
H1373 H 0.03044 0.8069 0.48884 0.0
C1374 C 0.03424 0.80342 0.57582 0.0
C1375 C 0.02771 0.79573 0.62633 0.0
C1376 C 0.98424 0.78063 0.48484 0.0
C1377 C 0.00955 0.79212 0.53235 0.0
C1378 C 0.9753 0.77356 0.43724 0.0
C1379 C 0.982 0.7731 0.3861 0.0
C1380 C 0.99994 0.78736 0.48082 0.0
C1381 C 0.99772 0.78075 0.3829 0.0
C1382 C 0.02519 0.80157 0.52857 0.0
C1383 C 0.01201 0.78716 0.62941 0.0
N1384 N 1.00616 0.78747 0.42969 0.0
N1385 N 1.00347 0.78549 0.58298 0.0
H1386 H 0.24252 0.19849 0.43566 0.0
H1387 H 0.20134 0.24067 0.5647 0.0
H1388 H 0.23153 0.22704 0.33783 0.0
H1389 H 0.22986 0.22953 0.66194 0.0
H1390 H 0.20481 0.22818 0.48162 0.0
H1391 H 0.23029 0.2023 0.5188 0.0
C1392 C 0.23705 0.2051 0.43122 0.0
C1393 C 0.23795 0.21243 0.37998 0.0
C1394 C 0.20998 0.22815 0.52161 0.0
C1395 C 0.22411 0.21691 0.47442 0.0
C1396 C 0.20789 0.23514 0.56902 0.0
C1397 C 0.21529 0.23605 0.62006 0.0
C1398 C 0.21938 0.2219 0.52574 0.0
C1399 C 0.22394 0.22901 0.62323 0.0
C1400 C 0.23022 0.20739 0.47867 0.0
C1401 C 0.23101 0.22117 0.37668 0.0
N1402 N 0.22582 0.2223 0.5767 0.0
N1403 N 0.22446 0.22325 0.42328 0.0
H1404 H 0.90229 0.34002 0.67077 0.0
H1405 H 0.8914 0.33495 0.99919 0.0
H1406 H 0.90738 0.37774 0.76781 0.0
H1407 H 0.87073 0.29578 0.89262 0.0
H1408 H 0.89515 0.3507 0.91588 0.0
H1409 H 0.8887 0.32343 0.75 0.0
C1410 C 0.90022 0.34474 0.7085 0.0
C1411 C 0.90591 0.36023 0.71292 0.0
C1412 C 0.88938 0.33864 0.91079 0.0
C1413 C 0.89078 0.34139 0.80459 0.0
C1414 C 0.88716 0.32966 0.95838 0.0
C1415 C 0.88056 0.31408 0.95262 0.0
C1416 C 0.88542 0.33201 0.8568 0.0
C1417 C 0.87562 0.30774 0.89879 0.0
C1418 C 0.89246 0.33527 0.75373 0.0
C1419 C 0.90305 0.36582 0.76272 0.0
N1420 N 0.87842 0.31676 0.85271 0.0
N1421 N 0.89594 0.35644 0.80719 0.0
H1422 H 0.67053 0.56115 0.67294 0.0
H1423 H 0.67426 0.56181 0.00303 0.0
H1424 H 0.63147 0.53277 0.77317 0.0
H1425 H 0.71331 0.57341 0.90128 0.0
H1426 H 0.6583 0.54948 0.92063 0.0
H1427 H 0.68646 0.56428 0.75485 0.0
C1428 C 0.66536 0.55526 0.71196 0.0
C1429 C 0.6497 0.54663 0.71641 0.0
C1430 C 0.67033 0.55435 0.91652 0.0
C1431 C 0.6678 0.55058 0.81095 0.0
C1432 C 0.67942 0.56135 0.96357 0.0
C1433 C 0.69508 0.5685 0.95885 0.0
C1434 C 0.67696 0.55495 0.8638 0.0
C1435 C 0.70126 0.56784 0.9067 0.0
C1436 C 0.67444 0.55705 0.75872 0.0
C1437 C 0.64351 0.53938 0.76798 0.0
N1438 N 0.6922 0.56147 0.86079 0.0
N1439 N 0.65257 0.54177 0.81369 0.0
H1440 H 0.47803 0.10035 0.76951 0.0
H1441 H 0.43657 0.14231 0.89793 0.0
H1442 H 0.45097 0.11293 0.66993 0.0
H1443 H 0.44599 0.11233 0.99376 0.0
H1444 H 0.44937 0.13901 0.81545 0.0
H1445 H 0.47394 0.11226 0.85298 0.0
C1446 C 0.47171 0.10611 0.76483 0.0
C1447 C 0.46488 0.10576 0.71295 0.0
C1448 C 0.44894 0.13346 0.85503 0.0
C1449 C 0.46004 0.11921 0.80775 0.0
C1450 C 0.44176 0.13544 0.90209 0.0
C1451 C 0.44026 0.12758 0.95249 0.0
C1452 C 0.45481 0.12374 0.85894 0.0
C1453 C 0.44693 0.11857 0.9555 0.0
C1454 C 0.46924 0.11275 0.81245 0.0
C1455 C 0.45646 0.11304 0.70929 0.0
N1456 N 0.45384 0.11684 0.90935 0.0
N1457 N 0.4542 0.1194 0.75608 0.0
H1458 H 0.45195 0.33883 0.67026 0.0
H1459 H 0.45003 0.33519 1.0011 0.0
H1460 H 0.47838 0.37799 0.77283 0.0
H1461 H 0.43733 0.296 0.89871 0.0
H1462 H 0.46294 0.35108 0.91934 0.0
H1463 H 0.44892 0.32292 0.75205 0.0
C1464 C 0.4575 0.34404 0.70978 0.0
C1465 C 0.46549 0.3597 0.71493 0.0
C1466 C 0.4577 0.33903 0.9149 0.0
C1467 C 0.46161 0.34161 0.80938 0.0
C1468 C 0.45036 0.32996 0.96162 0.0
C1469 C 0.4427 0.3143 0.95651 0.0
C1470 C 0.45696 0.33237 0.86209 0.0
C1471 C 0.44326 0.30805 0.9044 0.0
C1472 C 0.45573 0.33497 0.75652 0.0
C1473 C 0.47228 0.36595 0.76709 0.0
N1474 N 0.44999 0.3171 0.85879 0.0
N1475 N 0.46992 0.35688 0.81271 0.0
H1476 H 0.71444 0.14425 0.90476 0.0
H1477 H 0.631 0.09831 0.77868 0.0
H1478 H 0.67614 0.11137 0.9986 0.0
H1479 H 0.67081 0.11552 0.676 0.0
H1480 H 0.64681 0.11029 0.8624 0.0
H1481 H 0.69783 0.14082 0.82386 0.0
C1482 C 0.70249 0.13669 0.9089 0.0
C1483 C 0.69661 0.12806 0.95815 0.0
C1484 C 0.65205 0.1118 0.82123 0.0
C1485 C 0.67765 0.12407 0.86645 0.0
C1486 C 0.64303 0.10512 0.7735 0.0
C1487 C 0.64966 0.1061 0.72059 0.0
C1488 C 0.66776 0.11955 0.81568 0.0
C1489 C 0.66533 0.11466 0.71617 0.0
C1490 C 0.69305 0.13464 0.86273 0.0
C1491 C 0.68108 0.11819 0.96117 0.0
N1492 N 0.67387 0.12098 0.76316 0.0
N1493 N 0.67215 0.11641 0.9159 0.0
H1494 H 0.90898 0.53211 0.76796 0.0
H1495 H 0.86785 0.5742 0.89781 0.0
H1496 H 0.89886 0.56149 0.67147 0.0
H1497 H 0.8964 0.56306 0.9949 0.0
H1498 H 0.87142 0.56184 0.81454 0.0
H1499 H 0.89659 0.53573 0.85102 0.0
C1500 C 0.90369 0.53888 0.7638 0.0
C1501 C 0.90488 0.5465 0.71304 0.0
C1502 C 0.87657 0.56177 0.85454 0.0
C1503 C 0.89083 0.55073 0.80723 0.0
C1504 C 0.87442 0.56869 0.90203 0.0
C1505 C 0.88182 0.56957 0.95305 0.0
C1506 C 0.886 0.55556 0.8586 0.0
C1507 C 0.8905 0.56256 0.95617 0.0
C1508 C 0.89676 0.54106 0.81117 0.0
C1509 C 0.89813 0.55542 0.71 0.0
N1510 N 0.89242 0.55591 0.90954 0.0
N1511 N 0.89146 0.55736 0.7565 0.0
H1512 H 0.53503 0.6291 0.2268 0.0
H1513 H 0.57366 0.71213 0.09632 0.0
H1514 H 0.56079 0.66923 0.32538 0.0
H1515 H 0.56607 0.67307 0.00229 0.0
H1516 H 0.561 0.69598 0.17877 0.0
H1517 H 0.53835 0.64473 0.14291 0.0
C1518 C 0.54088 0.64119 0.23118 0.0
C1519 C 0.5476 0.64794 0.28284 0.0
C1520 C 0.56179 0.69093 0.13955 0.0
C1521 C 0.55155 0.6658 0.18762 0.0
C1522 C 0.56888 0.70011 0.09251 0.0
C1523 C 0.57088 0.69388 0.04271 0.0
C1524 C 0.5565 0.67544 0.13619 0.0
C1525 C 0.56475 0.67827 0.04011 0.0
C1526 C 0.5429 0.65009 0.18333 0.0
C1527 C 0.5554 0.66365 0.28616 0.0
N1528 N 0.55791 0.6696 0.08626 0.0
N1529 N 0.55725 0.67206 0.23913 0.0
H1530 H 0.34111 0.89317 0.33872 0.0
H1531 H 0.33745 0.89268 0.0079 0.0
H1532 H 0.38033 0.90684 0.23532 0.0
H1533 H 0.29831 0.8657 0.10986 0.0
H1534 H 0.35338 0.89544 0.08927 0.0
H1535 H 0.32524 0.8804 0.25673 0.0
C1536 C 0.34635 0.89304 0.29898 0.0
C1537 C 0.36201 0.90094 0.29365 0.0
C1538 C 0.34133 0.88857 0.09369 0.0
C1539 C 0.34395 0.88689 0.19899 0.0
C1540 C 0.33225 0.88697 0.04719 0.0
C1541 C 0.31659 0.8789 0.05232 0.0
C1542 C 0.3347 0.88245 0.14633 0.0
C1543 C 0.31036 0.87188 0.10417 0.0
C1544 C 0.3373 0.88581 0.25211 0.0
C1545 C 0.36829 0.9007 0.24119 0.0
N1546 N 0.31943 0.87408 0.14961 0.0
N1547 N 0.35923 0.89406 0.1955 0.0
H1548 H 0.10219 0.47493 0.22967 0.0
H1549 H 0.14617 0.43542 0.10204 0.0
H1550 H 0.11719 0.45004 0.3305 0.0
H1551 H 0.11508 0.44333 0.00664 0.0
H1552 H 0.14273 0.4483 0.18394 0.0
H1553 H 0.11414 0.47101 0.1459 0.0
C1554 C 0.10848 0.46914 0.23451 0.0
C1555 C 0.10882 0.46286 0.28688 0.0
C1556 C 0.13696 0.44752 0.14456 0.0
C1557 C 0.12229 0.45819 0.19173 0.0
C1558 C 0.13902 0.4403 0.09782 0.0
C1559 C 0.13088 0.43834 0.04774 0.0
C1560 C 0.12688 0.45297 0.14067 0.0
C1561 C 0.12153 0.44461 0.04466 0.0
C1562 C 0.11515 0.46677 0.18673 0.0
C1563 C 0.11678 0.45511 0.29076 0.0
N1564 N 0.11972 0.45157 0.09051 0.0
N1565 N 0.12312 0.45291 0.2438 0.0
H1566 H 0.11816 0.66859 0.33582 0.0
H1567 H 0.11409 0.67286 0.00612 0.0
H1568 H 0.10155 0.62926 0.23079 0.0
H1569 H 0.1453 0.71117 0.10411 0.0
H1570 H 0.11106 0.65656 0.08652 0.0
H1571 H 0.13016 0.68432 0.25255 0.0
C1572 C 0.1175 0.66327 0.29539 0.0
C1573 C 0.10903 0.64763 0.29008 0.0
C1574 C 0.11884 0.66848 0.09024 0.0
C1575 C 0.12214 0.66555 0.19415 0.0
C1576 C 0.12057 0.67778 0.04433 0.0
C1577 C 0.12997 0.69335 0.0486 0.0
C1578 C 0.12622 0.67483 0.14159 0.0
C1579 C 0.13803 0.6992 0.09907 0.0
C1580 C 0.12428 0.67225 0.24782 0.0
C1581 C 0.1082 0.64127 0.23668 0.0
N1582 N 0.13573 0.68996 0.1441 0.0
N1583 N 0.1144 0.65027 0.1905 0.0
H1584 H 0.38158 0.47737 0.23474 0.0
H1585 H 0.29846 0.43375 0.10448 0.0
H1586 H 0.34233 0.44622 0.32869 0.0
H1587 H 0.33854 0.44821 0.00541 0.0
H1588 H 0.31414 0.44589 0.1884 0.0
H1589 H 0.36548 0.47417 0.15238 0.0
C1590 C 0.36954 0.47026 0.23856 0.0
C1591 C 0.36323 0.46202 0.28831 0.0
C1592 C 0.31948 0.44676 0.14788 0.0
C1593 C 0.34485 0.4583 0.19491 0.0
C1594 C 0.31055 0.43998 0.09999 0.0
C1595 C 0.31726 0.44008 0.04815 0.0
C1596 C 0.33519 0.45377 0.14349 0.0
C1597 C 0.33298 0.44797 0.04475 0.0
C1598 C 0.36039 0.46834 0.19156 0.0
C1599 C 0.3476 0.45273 0.29089 0.0
N1600 N 0.34142 0.45441 0.09182 0.0
N1601 N 0.33895 0.45105 0.24479 0.0
H1602 H 0.56121 0.89603 0.33668 0.0
H1603 H 0.56775 0.89737 0.00693 0.0
H1604 H 0.53662 0.91043 0.23117 0.0
H1605 H 0.57525 0.86679 0.10749 0.0
H1606 H 0.55482 0.90095 0.08733 0.0
H1607 H 0.56499 0.88373 0.25438 0.0
C1608 C 0.55623 0.89619 0.29635 0.0
C1609 C 0.54847 0.90407 0.29054 0.0
C1610 C 0.55895 0.89317 0.09158 0.0
C1611 C 0.55324 0.89059 0.19582 0.0
C1612 C 0.56631 0.89112 0.04569 0.0
C1613 C 0.57247 0.88172 0.05072 0.0
C1614 C 0.55817 0.88615 0.14357 0.0
C1615 C 0.5705 0.87401 0.10189 0.0
C1616 C 0.55842 0.88922 0.24939 0.0
C1617 C 0.54248 0.90426 0.23735 0.0
N1618 N 0.56378 0.87663 0.14684 0.0
N1619 N 0.54524 0.89787 0.1917 0.0
H1620 H 0.24091 1.00325 0.83662 0.0
H1621 H 0.24002 1.00173 0.16711 0.0
H1622 H 0.20803 0.96368 0.9248 0.0
H1623 H 0.24769 0.04161 0.07855 0.0
H1624 H 0.23014 0.98734 0.07908 0.0
H1625 H 0.24565 0.01768 0.92465 0.0
C1626 C 0.23456 0.99766 0.87438 0.0
C1627 C 0.22403 0.98228 0.87355 0.0
C1628 C 0.23378 0.9992 0.07925 0.0
C1629 C 0.22968 0.99858 0.97429 0.0
C1630 C 0.23945 0.0074 0.12927 0.0
C1631 C 0.24463 0.02285 0.13001 0.0
C1632 C 0.23375 0.0066 0.02928 0.0
C1633 C 0.24369 0.02969 0.07982 0.0
C1634 C 0.23724 0.00589 0.9244 0.0
C1635 C 0.21614 0.97555 0.92363 0.0
N1636 N 0.23862 0.02157 0.03112 0.0
N1637 N 0.21933 0.98368 0.97236 0.0
H1638 H 1.0061 0.23891 0.1654 0.0
H1639 H 1.00476 0.23775 0.83485 0.0
H1640 H 0.96646 0.20622 0.07704 0.0
H1641 H 0.0446 0.24558 0.92418 0.0
H1642 H 0.99029 0.22789 0.92272 0.0
H1643 H 0.02058 0.24347 0.07762 0.0
C1644 C 1.00051 0.23257 0.12765 0.0
C1645 C 0.98509 0.22215 0.12837 0.0
C1646 C 1.00215 0.23155 0.92276 0.0
C1647 C 1.00145 0.22758 0.02785 0.0
C1648 C 0.0104 0.23721 0.87282 0.0
C1649 C 0.02587 0.24243 0.87234 0.0
C1650 C 0.00952 0.23158 0.97292 0.0
C1651 C 0.03267 0.24153 0.9227 0.0
C1652 C 0.00876 0.23514 0.07776 0.0
C1653 C 0.97835 0.21425 0.0783 0.0
N1654 N 0.0245 0.23648 0.97132 0.0
N1655 N 0.98652 0.21733 0.02968 0.0
H1656 H 0.77112 0.76787 0.83531 0.0
H1657 H 0.77076 0.76987 0.16565 0.0
H1658 H 0.76426 0.80083 0.92217 0.0
H1659 H 0.80243 0.76121 0.07794 0.0
H1660 H 0.76642 0.77968 0.07717 0.0
H1661 H 0.78102 0.76348 0.92349 0.0
C1662 C 0.77188 0.77431 0.8728 0.0
C1663 C 0.76689 0.78474 0.87157 0.0
C1664 C 0.77449 0.77585 0.0776 0.0
C1665 C 0.77782 0.77951 0.97249 0.0
C1666 C 0.77693 0.77022 0.12788 0.0
C1667 C 0.78698 0.76476 0.12897 0.0
C1668 C 0.78179 0.77557 0.02772 0.0
C1669 C 0.79467 0.76543 0.0789 0.0
C1670 C 0.77756 0.77184 0.92291 0.0
C1671 C 0.76809 0.79277 0.9213 0.0
N1672 N 0.79171 0.77047 0.02991 0.0
N1673 N 0.77317 0.78979 0.97012 0.0
H1674 H 0.76546 0.96391 0.92469 0.0
H1675 H 0.80539 0.04337 0.07994 0.0
H1676 H 0.77344 0.00445 0.8405 0.0
H1677 H 0.77306 1.00283 0.16467 0.0
H1678 H 0.80083 0.02906 0.9915 0.0
H1679 H 0.77544 0.97822 0.01295 0.0
C1680 C 0.76963 0.97588 0.92449 0.0
C1681 C 0.76859 0.98304 0.87544 0.0
C1682 C 0.79495 0.02331 0.02981 0.0
C1683 C 0.7801 0.99937 0.97552 0.0
C1684 C 0.7976 0.03141 0.08021 0.0
C1685 C 0.78953 0.02425 0.12947 0.0
C1686 C 0.78445 0.00792 0.02921 0.0
C1687 C 0.77943 0.00876 0.12743 0.0
C1688 C 0.77521 0.98398 0.9748 0.0
C1689 C 0.77398 0.99852 0.87757 0.0
N1690 N 0.77717 1.00109 0.07806 0.0
N1691 N 0.77952 0.0062 0.92685 0.0
H1692 H 0.04545 0.80089 0.92771 0.0
H1693 H 0.96622 0.76217 0.08424 0.0
H1694 H 1.0047 0.76868 0.84381 0.0
H1695 H 0.00653 0.76952 0.16863 0.0
H1696 H 0.98051 0.77158 0.99564 0.0
H1697 H 0.03131 0.79634 0.01663 0.0
C1698 C 0.03348 0.79311 0.92776 0.0
C1699 C 0.02621 0.7851 0.87854 0.0
C1700 C 0.98622 0.77132 0.03388 0.0
C1701 C 0.01007 0.78004 0.97934 0.0
C1702 C 0.97813 0.76607 0.0844 0.0
C1703 C 0.98522 0.76504 0.13367 0.0
C1704 C 1.00154 0.7759 0.03312 0.0
C1705 C 1.00065 0.77007 0.13142 0.0
C1706 C 0.02548 0.79046 0.97843 0.0
C1707 C 0.01072 0.77501 0.88099 0.0
N1708 N 0.00832 0.77531 0.08193 0.0
N1709 N 1.00314 0.77278 0.93058 0.0
H1710 H 0.24699 0.20453 0.08023 0.0
H1711 H 0.24273 0.23945 0.83201 0.0
H1712 H 0.24469 0.24132 0.1575 0.0
H1713 H 0.21085 0.24661 0.92551 0.0
H1714 H 0.2478 0.22937 0.91823 0.0
H1715 H 0.23785 0.20939 0.99094 0.0
C1716 C 0.24434 0.21347 0.07869 0.0
C1717 C 0.2467 0.22261 0.12622 0.0
C1718 C 0.23947 0.23286 0.91953 0.0
C1719 C 0.23629 0.22819 0.02452 0.0
C1720 C 0.23664 0.23868 0.87053 0.0
C1721 C 0.22627 0.24374 0.87164 0.0
C1722 C 0.23217 0.23248 0.97036 0.0
C1723 C 0.21878 0.24263 0.92277 0.0
C1724 C 0.23926 0.2163 0.02766 0.0
C1725 C 0.24316 0.23409 0.1217 0.0
N1726 N 0.22209 0.23739 0.97048 0.0
N1727 N 0.23809 0.23654 0.07176 0.0
H1728 H 0.93206 0.35005 0.46513 0.0
H1729 H 0.87251 0.31118 0.22638 0.0
H1730 H 0.89989 0.36508 0.44611 0.0
H1731 H 0.92003 0.33072 0.19523 0.0
H1732 H 0.87846 0.32562 0.31562 0.0
H1733 H 0.92344 0.33649 0.37618 0.0
C1734 C 0.92309 0.35045 0.44265 0.0
C1735 C 0.91686 0.35897 0.46308 0.0
C1736 C 0.88747 0.32677 0.28854 0.0
C1737 C 0.90678 0.34309 0.3611 0.0
C1738 C 0.88413 0.31854 0.23784 0.0
C1739 C 0.89577 0.31957 0.20331 0.0
C1740 C 0.90249 0.3357 0.30511 0.0
C1741 C 0.91063 0.32937 0.22032 0.0
C1742 C 0.91823 0.3427 0.39171 0.0
C1743 C 0.90512 0.3588 0.43173 0.0
N1744 N 0.91353 0.33681 0.27032 0.0
N1745 N 0.9004 0.35094 0.38211 0.0
H1746 H 0.71233 0.5796 0.26175 0.0
H1747 H 0.63248 0.54011 0.41333 0.0
H1748 H 0.67247 0.57273 0.17516 0.0
H1749 H 0.67253 0.57263 0.50015 0.0
H1750 H 0.64711 0.54519 0.32538 0.0
H1751 H 0.69769 0.57017 0.34971 0.0
C1752 C 0.70044 0.57582 0.26101 0.0
C1753 C 0.69357 0.57695 0.21128 0.0
C1754 C 0.65268 0.55102 0.364 0.0
C1755 C 0.67684 0.56604 0.31101 0.0
C1756 C 0.6444 0.54807 0.41413 0.0
C1757 C 0.65133 0.556 0.46391 0.0
C1758 C 0.66804 0.56166 0.36419 0.0
C1759 C 0.66677 0.56634 0.46254 0.0
C1760 C 0.69216 0.57055 0.31114 0.0
C1761 C 0.67818 0.57208 0.21273 0.0
N1762 N 0.67464 0.56885 0.41347 0.0
N1763 N 0.6703 0.56678 0.2618 0.0
H1764 H 0.4371 0.10105 0.16752 0.0
H1765 H 0.43757 0.1023 0.49816 0.0
H1766 H 0.43021 0.13374 0.25627 0.0
H1767 H 0.46997 0.09524 0.40797 0.0
H1768 H 0.43251 0.11186 0.41041 0.0
H1769 H 0.44717 0.09654 0.25509 0.0
C1770 C 0.43788 0.10739 0.20531 0.0
C1771 C 0.43288 0.11782 0.20474 0.0
C1772 C 0.44089 0.10842 0.41014 0.0
C1773 C 0.44396 0.11243 0.30501 0.0
C1774 C 0.44375 0.10295 0.46002 0.0
C1775 C 0.45424 0.09804 0.46023 0.0
C1776 C 0.44822 0.10853 0.35979 0.0
C1777 C 0.4619 0.09905 0.40964 0.0
C1778 C 0.44365 0.10485 0.25507 0.0
C1779 C 0.43408 0.12571 0.25487 0.0
N1780 N 0.45853 0.10392 0.36111 0.0
N1781 N 0.43924 0.12265 0.30336 0.0
H1782 H 0.43148 0.2977 0.25745 0.0
H1783 H 0.47076 0.37687 0.41405 0.0
H1784 H 0.43902 0.33809 0.17331 0.0
H1785 H 0.43814 0.33633 0.49799 0.0
H1786 H 0.46608 0.36268 0.32525 0.0
H1787 H 0.44092 0.31194 0.34617 0.0
C1788 C 0.43543 0.30962 0.25739 0.0
C1789 C 0.43445 0.31675 0.20815 0.0
C1790 C 0.46014 0.3569 0.36343 0.0
C1791 C 0.44535 0.33301 0.30878 0.0
C1792 C 0.46286 0.36493 0.41404 0.0
C1793 C 0.45478 0.35774 0.46325 0.0
C1794 C 0.44957 0.34154 0.36255 0.0
C1795 C 0.44453 0.34229 0.46084 0.0
C1796 C 0.4407 0.31767 0.30796 0.0
C1797 C 0.43953 0.33218 0.21049 0.0
N1798 N 0.44223 0.33467 0.41128 0.0
N1799 N 0.4448 0.33983 0.26001 0.0
H1800 H 0.68595 0.09157 0.20731 0.0
H1801 H 0.64665 0.112 0.44451 0.0
H1802 H 0.70104 0.13878 0.22526 0.0
H1803 H 0.6672 0.08501 0.47782 0.0
H1804 H 0.6611 0.12051 0.35524 0.0
H1805 H 0.67241 0.08678 0.29627 0.0
C1806 C 0.68637 0.10097 0.22954 0.0
C1807 C 0.6949 0.11568 0.20882 0.0
C1808 C 0.66247 0.11287 0.38283 0.0
C1809 C 0.67903 0.11005 0.31077 0.0
C1810 C 0.65425 0.10798 0.43357 0.0
C1811 C 0.65554 0.09762 0.4687 0.0
C1812 C 0.67167 0.10704 0.36684 0.0
C1813 C 0.66563 0.09286 0.45228 0.0
C1814 C 0.67862 0.09817 0.28047 0.0
C1815 C 0.69475 0.12729 0.23987 0.0
N1816 N 0.67306 0.09738 0.40224 0.0
N1817 N 0.68689 0.12424 0.28949 0.0
H1818 H 0.90913 0.57394 0.49827 0.0
H1819 H 0.90862 0.57272 0.16768 0.0
H1820 H 0.91538 0.54084 0.40944 0.0
H1821 H 0.87646 0.58015 0.25788 0.0
H1822 H 0.91356 0.56307 0.25544 0.0
H1823 H 0.89926 0.57869 0.41067 0.0
C1824 C 0.90826 0.56757 0.46045 0.0
C1825 C 0.91302 0.55696 0.46099 0.0
C1826 C 0.90527 0.56661 0.2557 0.0
C1827 C 0.90215 0.5626 0.36076 0.0
C1828 C 0.90248 0.57214 0.20583 0.0
C1829 C 0.89208 0.57717 0.20563 0.0
C1830 C 0.89797 0.56658 0.30604 0.0
C1831 C 0.88446 0.57624 0.25621 0.0
C1832 C 0.9026 0.57025 0.41069 0.0
C1833 C 0.9117 0.54903 0.41084 0.0
N1834 N 0.88776 0.57132 0.30474 0.0
N1835 N 0.90665 0.5522 0.36237 0.0
H1836 H 0.5432 0.63202 0.58649 0.0
H1837 H 0.58163 0.71138 0.74094 0.0
H1838 H 0.57508 0.67251 0.50033 0.0
H1839 H 0.57583 0.67162 0.82517 0.0
H1840 H 0.57228 0.69693 0.65258 0.0
H1841 H 0.5482 0.64638 0.67503 0.0
C1842 C 0.55099 0.64398 0.58597 0.0
C1843 C 0.55877 0.65112 0.53618 0.0
C1844 C 0.57288 0.69138 0.69072 0.0
C1845 C 0.56435 0.6675 0.63661 0.0
C1846 C 0.5781 0.69955 0.74108 0.0
C1847 C 0.57951 0.69266 0.79025 0.0
C1848 C 0.56869 0.67616 0.69008 0.0
C1849 C 0.57497 0.67735 0.78804 0.0
C1850 C 0.5539 0.6521 0.63643 0.0
C1851 C 0.56891 0.6666 0.53793 0.0
N1852 N 0.5697 0.66957 0.73875 0.0
N1853 N 0.57139 0.67431 0.58736 0.0
H1854 H 0.34043 0.90629 0.83822 0.0
H1855 H 0.33802 0.90608 0.50781 0.0
H1856 H 0.30026 0.87437 0.75046 0.0
H1857 H 0.37785 0.9128 0.5943 0.0
H1858 H 0.3238 0.89628 0.5962 0.0
H1859 H 0.35458 0.91086 0.74958 0.0
C1860 C 0.33465 0.90011 0.80041 0.0
C1861 C 0.31919 0.88992 0.80152 0.0
C1862 C 0.3356 0.8997 0.59548 0.0
C1863 C 0.33516 0.89537 0.70016 0.0
C1864 C 0.34372 0.90533 0.54527 0.0
C1865 C 0.35911 0.91022 0.54387 0.0
C1866 C 0.34304 0.89941 0.64494 0.0
C1867 C 0.36597 0.90904 0.59356 0.0
C1868 C 0.34272 0.90269 0.75005 0.0
C1869 C 0.3122 0.88223 0.7514 0.0
N1870 N 0.35795 0.904 0.64246 0.0
N1871 N 0.32019 0.88532 0.70237 0.0
H1872 H 0.10381 0.43434 0.83471 0.0
H1873 H 0.10085 0.47055 0.58888 0.0
H1874 H 0.13734 0.42895 0.74511 0.0
H1875 H 0.10521 0.43513 0.5098 0.0
H1876 H 0.10973 0.46557 0.67854 0.0
H1877 H 0.09943 0.44497 0.74861 0.0
C1878 C 0.11039 0.4356 0.79709 0.0
C1879 C 0.12102 0.43086 0.79702 0.0
C1880 C 0.10886 0.45901 0.64132 0.0
C1881 C 0.11595 0.44282 0.69845 0.0
C1882 C 0.10396 0.46194 0.59008 0.0
C1883 C 0.1022 0.45317 0.54196 0.0
C1884 C 0.11225 0.4474 0.64409 0.0
C1885 C 0.10629 0.44206 0.54605 0.0
C1886 C 0.10796 0.44175 0.74819 0.0
C1887 C 0.12917 0.43264 0.74704 0.0
N1888 N 0.11114 0.4395 0.59626 0.0
N1889 N 0.12625 0.4382 0.69932 0.0
H1890 H 0.13775 0.71133 0.74725 0.0
H1891 H 0.09739 0.63177 0.5935 0.0
H1892 H 0.10416 0.67143 0.83166 0.0
H1893 H 0.10573 0.67211 0.50681 0.0
H1894 H 0.10675 0.64623 0.68184 0.0
H1895 H 0.13285 0.69685 0.65899 0.0
C1896 C 0.12959 0.69946 0.74747 0.0
C1897 C 0.12132 0.69254 0.79664 0.0
C1898 C 0.10672 0.6519 0.64317 0.0
C1899 C 0.11585 0.67599 0.69661 0.0
C1900 C 0.10149 0.64372 0.59281 0.0
C1901 C 0.10078 0.65078 0.54292 0.0
C1902 C 0.1116 0.66729 0.64316 0.0
C1903 C 0.10605 0.66625 0.54448 0.0
C1904 C 0.12674 0.69127 0.69717 0.0
C1905 C 0.11072 0.67718 0.79453 0.0
N1906 N 0.11128 0.67402 0.59381 0.0
N1907 N 0.10831 0.66939 0.74533 0.0
H1908 H 0.30123 0.42863 0.74467 0.0
H1909 H 0.38083 0.4689 0.59072 0.0
H1910 H 0.34163 0.43686 0.83075 0.0
H1911 H 0.34072 0.43583 0.50574 0.0
H1912 H 0.36637 0.46397 0.67906 0.0
H1913 H 0.31566 0.43812 0.65632 0.0
C1914 C 0.31318 0.43274 0.74523 0.0
C1915 C 0.32027 0.43195 0.79494 0.0
C1916 C 0.36075 0.45799 0.64075 0.0
C1917 C 0.33675 0.44291 0.69468 0.0
C1918 C 0.36893 0.46085 0.5904 0.0
C1919 C 0.36193 0.45272 0.54103 0.0
C1920 C 0.34543 0.44723 0.6412 0.0
C1921 C 0.34653 0.44227 0.54302 0.0
C1922 C 0.32135 0.43803 0.69486 0.0
C1923 C 0.33575 0.43723 0.79321 0.0
N1924 N 0.33876 0.43984 0.5923 0.0
N1925 N 0.3435 0.44253 0.74388 0.0
H1926 H 0.59766 0.91779 0.80262 0.0
H1927 H 0.53774 0.89717 0.56462 0.0
H1928 H 0.5656 0.87062 0.78296 0.0
H1929 H 0.58521 0.92587 0.53474 0.0
H1930 H 0.54381 0.8885 0.65327 0.0
H1931 H 0.58881 0.92284 0.71451 0.0
C1932 C 0.58867 0.90845 0.78018 0.0
C1933 C 0.58254 0.89368 0.80021 0.0
C1934 C 0.55279 0.89657 0.62658 0.0
C1935 C 0.57219 0.8996 0.69906 0.0
C1936 C 0.54938 0.90155 0.5762 0.0
C1937 C 0.56096 0.91241 0.5422 0.0
C1938 C 0.56782 0.9028 0.64334 0.0
C1939 C 0.57584 0.91762 0.55939 0.0
C1940 C 0.58366 0.91139 0.7297 0.0
C1941 C 0.57077 0.88215 0.76889 0.0
N1942 N 0.5788 0.91297 0.60901 0.0
N1943 N 0.56592 0.88535 0.71966 0.0
H1944 H 0.38178 0.11536 0.222 0.0
H1945 H 0.29643 0.07115 0.11308 0.0
H1946 H 0.36917 0.11115 0.04587 0.0
H1947 H 0.30867 0.07682 0.28984 0.0
H1948 H 0.32308 0.08423 0.08748 0.0
H1949 H 0.35517 0.10039 0.248 0.0
C1950 C 0.37336 0.11116 0.18885 0.0
C1951 C 0.37762 0.11389 0.13164 0.0
C1952 C 0.31998 0.08249 0.1319 0.0
C1953 C 0.34719 0.09713 0.16084 0.0
C1954 C 0.30478 0.07496 0.14644 0.0
C1955 C 0.3004 0.07261 0.20356 0.0
C1956 C 0.33092 0.08806 0.17488 0.0
C1957 C 0.31161 0.07803 0.24528 0.0
C1958 C 0.3582 0.10264 0.20362 0.0
C1959 C 0.36633 0.10872 0.09032 0.0
N1960 N 0.32636 0.08553 0.23015 0.0
N1961 N 0.35164 0.10051 0.10567 0.0
H1962 H 0.90146 0.26352 0.04337 0.0
H1963 H 0.92834 0.2287 0.29133 0.0
H1964 H 0.89566 0.26866 0.22134 0.0
H1965 H 0.93528 0.2244 0.11374 0.0
H1966 H 0.91636 0.2434 0.26651 0.0
H1967 H 0.91479 0.2501 0.06781 0.0
C1968 C 0.90333 0.26213 0.08762 0.0
C1969 C 0.89788 0.26759 0.13045 0.0
C1970 C 0.92058 0.23935 0.23285 0.0
C1971 C 0.91238 0.25154 0.15894 0.0
C1972 C 0.9275 0.23105 0.24709 0.0
C1973 C 0.93335 0.22593 0.20456 0.0
C1974 C 0.9194 0.24245 0.17552 0.0
C1975 C 0.93129 0.22858 0.14777 0.0
C1976 C 0.91074 0.25428 0.10162 0.0
C1977 C 0.89992 0.26483 0.18711 0.0
N1978 N 0.92465 0.23681 0.13487 0.0
N1979 N 0.907 0.25701 0.19972 0.0
H1980 H 0.75025 0.63934 0.04612 0.0
H1981 H 0.7754 0.70101 0.2933 0.0
H1982 H 0.74253 0.62821 0.22366 0.0
H1983 H 0.78369 0.71199 0.11577 0.0
H1984 H 0.76187 0.67429 0.26867 0.0
H1985 H 0.76202 0.66601 0.07057 0.0
C1986 C 0.75088 0.64256 0.09024 0.0
C1987 C 0.74489 0.63163 0.13285 0.0
C1988 C 0.7665 0.68252 0.23497 0.0
C1989 C 0.75857 0.66206 0.16147 0.0
C1990 C 0.77401 0.69777 0.24903 0.0
C1991 C 0.78026 0.70867 0.20635 0.0
C1992 C 0.76554 0.67816 0.17784 0.0
C1993 C 0.77881 0.70389 0.14981 0.0
C1994 C 0.75768 0.65777 0.10428 0.0
C1995 C 0.74665 0.63634 0.18955 0.0
N1996 N 0.77161 0.68901 0.13718 0.0
N1997 N 0.75316 0.6512 0.20223 0.0
H1998 H 0.07458 0.29456 0.8897 0.0
H1999 H 0.11901 0.37974 0.77917 0.0
H2000 H 0.07982 0.30657 0.71273 0.0
H2001 H 0.11516 0.36733 0.95543 0.0
H2002 H 0.10398 0.35311 0.75364 0.0
H2003 H 0.08798 0.32124 0.91478 0.0
C2004 C 0.07836 0.30287 0.85619 0.0
C2005 C 0.0758 0.29841 0.79917 0.0
C2006 C 0.10634 0.35618 0.79795 0.0
C2007 C 0.09163 0.32896 0.82723 0.0
C2008 C 0.11489 0.37136 0.81245 0.0
C2009 C 0.11771 0.37568 0.86957 0.0
C2010 C 0.10087 0.34523 0.84091 0.0
C2011 C 0.11264 0.36444 0.91105 0.0
C2012 C 0.08608 0.31808 0.87043 0.0
C2013 C 0.08118 0.30957 0.75724 0.0
N2014 N 0.10439 0.34974 0.89597 0.0
N2015 N 0.08888 0.32433 0.77207 0.0
H2016 H 0.71481 0.78148 0.88781 0.0
H2017 H 0.62969 0.74141 0.77666 0.0
H2018 H 0.70286 0.77447 0.7108 0.0
H2019 H 0.64201 0.74964 0.95308 0.0
H2020 H 0.65633 0.75291 0.75132 0.0
H2021 H 0.68812 0.76849 0.91273 0.0
C2022 C 0.70651 0.77695 0.85426 0.0
C2023 C 0.71098 0.77872 0.79728 0.0
C2024 C 0.65324 0.75215 0.79562 0.0
C2025 C 0.68043 0.76435 0.82514 0.0
C2026 C 0.63806 0.74559 0.81001 0.0
C2027 C 0.63371 0.74401 0.86711 0.0
C2028 C 0.66416 0.75749 0.83869 0.0
C2029 C 0.64493 0.75008 0.9087 0.0
C2030 C 0.69129 0.76963 0.86841 0.0
C2031 C 0.69984 0.77295 0.7553 0.0
N2032 N 0.65963 0.75647 0.89373 0.0
N2033 N 0.68508 0.76606 0.77003 0.0
H2034 H 0.22598 0.93376 0.891 0.0
H2035 H 0.27092 0.8931 0.78509 0.0
H2036 H 0.2304 0.92511 0.71537 0.0
H2037 H 0.26549 0.90035 0.96138 0.0
H2038 H 0.25752 0.90629 0.75856 0.0
H2039 H 0.24109 0.92234 0.91797 0.0
C2040 C 0.23025 0.92952 0.85817 0.0
C2041 C 0.22756 0.93094 0.80081 0.0
C2042 C 0.25938 0.90516 0.80307 0.0
C2043 C 0.24449 0.91753 0.8311 0.0
C2044 C 0.2671 0.89771 0.81814 0.0
C2045 C 0.26959 0.89596 0.8754 0.0
C2046 C 0.25376 0.91058 0.84567 0.0
C2047 C 0.26416 0.90186 0.91671 0.0
C2048 C 0.23885 0.923 0.87349 0.0
C2049 C 0.2328 0.92478 0.75992 0.0
N2050 N 0.25647 0.90886 0.90108 0.0
N2051 N 0.2411 0.91843 0.77579 0.0
H2052 H 0.71572 0.93401 0.89292 0.0
H2053 H 0.63038 0.89129 0.78381 0.0
H2054 H 0.70346 0.93065 0.71658 0.0
H2055 H 0.64289 0.89396 0.95956 0.0
H2056 H 0.65702 0.9057 0.75793 0.0
H2057 H 0.68907 0.92027 0.91847 0.0
C2058 C 0.70737 0.93058 0.8597 0.0
C2059 C 0.71174 0.93375 0.80273 0.0
C2060 C 0.65398 0.90319 0.8022 0.0
C2061 C 0.68124 0.91753 0.83122 0.0
C2062 C 0.63879 0.89499 0.8169 0.0
C2063 C 0.63452 0.89212 0.87406 0.0
C2064 C 0.66497 0.90824 0.84498 0.0
C2065 C 0.64578 0.89658 0.91523 0.0
C2066 C 0.69217 0.92265 0.87419 0.0
C2067 C 0.70052 0.92881 0.76112 0.0
N2068 N 0.66049 0.90453 0.89997 0.0
N2069 N 0.68579 0.92091 0.77615 0.0
H2070 H 0.07708 0.7733 0.70785 0.0
H2071 H 0.12024 0.74067 0.77955 0.0
H2072 H 0.077 0.78213 0.88633 0.0
H2073 H 0.11406 0.74926 0.95328 0.0
H2074 H 0.10566 0.75204 0.74857 0.0
H2075 H 0.09018 0.75967 0.7275 0.0
C2076 C 0.07958 0.77205 0.75148 0.0
C2077 C 0.07554 0.77841 0.79567 0.0
C2078 C 0.10716 0.75134 0.79356 0.0
C2079 C 0.09174 0.76372 0.81902 0.0
C2080 C 0.1156 0.74484 0.81117 0.0
C2081 C 0.11771 0.74341 0.86903 0.0
C2082 C 0.101 0.75676 0.83431 0.0
C2083 C 0.11206 0.74955 0.9083 0.0
C2084 C 0.08742 0.76449 0.76287 0.0
C2085 C 0.07971 0.77714 0.85113 0.0
N2086 N 0.10389 0.75586 0.89027 0.0
N2087 N 0.08757 0.76997 0.86119 0.0
H2088 H 0.23155 0.30673 0.71104 0.0
H2089 H 0.26782 0.36829 0.95872 0.0
H2090 H 0.2287 0.29547 0.88829 0.0
H2091 H 0.27084 0.37936 0.78118 0.0
H2092 H 0.25479 0.34159 0.93389 0.0
H2093 H 0.24642 0.33339 0.73571 0.0
C2094 C 0.23426 0.30992 0.75514 0.0
C2095 C 0.22947 0.29895 0.79758 0.0
C2096 C 0.25844 0.34983 0.90023 0.0
C2097 C 0.24617 0.32939 0.82648 0.0
C2098 C 0.26606 0.36507 0.91441 0.0
C2099 C 0.27079 0.37601 0.8718 0.0
C2100 C 0.25519 0.34549 0.84302 0.0
C2101 C 0.26758 0.37125 0.8152 0.0
C2102 C 0.24266 0.32512 0.76931 0.0
C2103 C 0.23259 0.30363 0.85428 0.0
N2104 N 0.25999 0.35637 0.80243 0.0
N2105 N 0.24089 0.31849 0.8671 0.0
H2106 H 0.93281 0.70104 0.29526 0.0
H2107 H 0.89792 0.6402 0.04469 0.0
H2108 H 0.93635 0.71264 0.11815 0.0
H2109 H 0.89432 0.62846 0.22163 0.0
H2110 H 0.91262 0.6668 0.07051 0.0
H2111 H 0.92012 0.67442 0.26924 0.0
C2112 C 0.93123 0.69796 0.25081 0.0
C2113 C 0.936 0.70901 0.20867 0.0
C2114 C 0.90874 0.65844 0.10379 0.0
C2115 C 0.92081 0.6786 0.17849 0.0
C2116 C 0.90044 0.64328 0.08897 0.0
C2117 C 0.89547 0.63219 0.13101 0.0
C2118 C 0.91197 0.66254 0.16122 0.0
C2119 C 0.89835 0.63671 0.18794 0.0
C2120 C 0.92381 0.68277 0.23594 0.0
C2121 C 0.93304 0.70443 0.15182 0.0
N2122 N 0.90655 0.65153 0.20139 0.0
N2123 N 0.92564 0.68959 0.13837 0.0
H2124 H 0.38412 0.27043 0.22563 0.0
H2125 H 0.30839 0.22834 0.2969 0.0
H2126 H 0.36964 0.26282 0.05142 0.0
H2127 H 0.29945 0.22619 0.11775 0.0
H2128 H 0.33509 0.243 0.2778 0.0
H2129 H 0.35813 0.25795 0.25619 0.0
C2130 C 0.37534 0.26619 0.19383 0.0
C2131 C 0.37899 0.26786 0.13606 0.0
C2132 C 0.32752 0.23966 0.24215 0.0
C2133 C 0.34883 0.25262 0.17035 0.0
C2134 C 0.31215 0.23124 0.2534 0.0
C2135 C 0.30175 0.22663 0.20902 0.0
C2136 C 0.33258 0.24351 0.18572 0.0
C2137 C 0.30716 0.22995 0.15324 0.0
C2138 C 0.36037 0.25885 0.2112 0.0
C2139 C 0.36726 0.26203 0.09644 0.0
N2140 N 0.32218 0.23833 0.14322 0.0
N2141 N 0.35272 0.25462 0.11431 0.0
H2142 H 0.75406 0.11476 0.04484 0.0
H2143 H 0.77709 0.0762 0.29152 0.0
H2144 H 0.74493 0.11682 0.2219 0.0
H2145 H 0.78691 0.07488 0.11468 0.0
H2146 H 0.76419 0.09002 0.26674 0.0
H2147 H 0.76621 0.1002 0.06944 0.0
C2148 C 0.7545 0.11198 0.08888 0.0
C2149 C 0.74793 0.11637 0.13124 0.0
C2150 C 0.76903 0.08659 0.2332 0.0
C2151 C 0.76197 0.09994 0.16002 0.0
C2152 C 0.77616 0.07848 0.24729 0.0
C2153 C 0.78265 0.07401 0.20487 0.0
C2154 C 0.76869 0.09056 0.17631 0.0
C2155 C 0.78182 0.07792 0.14851 0.0
C2156 C 0.7615 0.10376 0.10301 0.0
C2157 C 0.74946 0.1132 0.18792 0.0
N2158 N 0.77498 0.08596 0.13585 0.0
N2159 N 0.75612 0.10498 0.20064 0.0
H2160 H 0.03813 0.44153 0.38061 0.0
H2161 H 0.97658 0.41834 0.62741 0.0
H2162 H 0.04926 0.45083 0.55767 0.0
H2163 H 0.96536 0.40925 0.45036 0.0
H2164 H 1.00328 0.43057 0.60272 0.0
H2165 H 0.01143 0.42876 0.40529 0.0
C2166 C 0.03492 0.44051 0.42485 0.0
C2167 C 0.04587 0.44681 0.46736 0.0
C2168 C 0.99501 0.42586 0.56917 0.0
C2169 C 0.01537 0.43301 0.49584 0.0
C2170 C 0.97979 0.41881 0.58335 0.0
C2171 C 0.96884 0.41222 0.54103 0.0
C2172 C 0.99929 0.42634 0.51214 0.0
C2173 C 0.97352 0.41379 0.48432 0.0
C2174 C 0.01968 0.43345 0.4389 0.0
C2175 C 0.04113 0.44588 0.52377 0.0
N2176 N 0.98839 0.42049 0.47154 0.0
N2177 N 0.02626 0.43912 0.53639 0.0
H2178 H 0.59503 0.563 0.62629 0.0
H2179 H 0.56978 0.59834 0.37484 0.0
H2180 H 0.60272 0.55877 0.4494 0.0
H2181 H 0.56165 0.602 0.55177 0.0
H2182 H 0.58336 0.58529 0.40122 0.0
H2183 H 0.58337 0.57792 0.60009 0.0
C2184 C 0.59442 0.56542 0.58194 0.0
C2185 C 0.60036 0.56023 0.54 0.0
C2186 C 0.57876 0.58908 0.4344 0.0
C2187 C 0.58679 0.57698 0.50938 0.0
C2188 C 0.5712 0.59671 0.41933 0.0
C2189 C 0.565 0.60162 0.46132 0.0
C2190 C 0.57979 0.58602 0.49189 0.0
C2191 C 0.5665 0.5986 0.51822 0.0
C2192 C 0.58769 0.57384 0.5669 0.0
C2193 C 0.59864 0.56298 0.48299 0.0
N2194 N 0.57373 0.591 0.53186 0.0
N2195 N 0.59217 0.57131 0.46933 0.0
H2196 H 0.45197 0.04693 0.44378 0.0
H2197 H 0.40769 0.96207 0.5578 0.0
H2198 H 0.44854 0.03498 0.62045 0.0
H2199 H 0.41293 0.97353 0.38029 0.0
H2200 H 0.42105 0.98882 0.58171 0.0
H2201 H 0.43683 0.02023 0.41931 0.0
C2202 C 0.44792 0.03864 0.47737 0.0
C2203 C 0.4509 0.04311 0.53431 0.0
C2204 C 0.41916 0.98553 0.53749 0.0
C2205 C 0.43393 0.01259 0.50686 0.0
C2206 C 0.41147 0.97027 0.52391 0.0
C2207 C 0.40892 0.96564 0.46708 0.0
C2208 C 0.4247 0.99627 0.49383 0.0
C2209 C 0.4143 0.97667 0.42466 0.0
C2210 C 0.4393 0.02342 0.46348 0.0
C2211 C 0.44591 0.03197 0.5762 0.0
N2212 N 0.42196 0.99147 0.43886 0.0
N2213 N 0.43759 0.01724 0.56171 0.0
H2214 H 0.60484 0.04674 0.44833 0.0
H2215 H 0.5599 0.96187 0.56212 0.0
H2216 H 0.59888 0.03531 0.62588 0.0
H2217 H 0.56246 0.97392 0.38585 0.0
H2218 H 0.57468 0.98858 0.58684 0.0
H2219 H 0.59066 0.01999 0.42453 0.0
C2220 C 0.60073 0.03854 0.48226 0.0
C2221 C 0.60333 0.04317 0.53909 0.0
C2222 C 0.57206 0.98541 0.54271 0.0
C2223 C 0.58665 0.01257 0.51244 0.0
C2224 C 0.56365 0.97019 0.52867 0.0
C2225 C 0.56063 0.96575 0.4717 0.0
C2226 C 0.57719 0.99628 0.49945 0.0
C2227 C 0.56519 0.97691 0.43005 0.0
C2228 C 0.59256 0.02329 0.46874 0.0
C2229 C 0.59752 0.03215 0.58154 0.0
N2230 N 0.57336 0.99165 0.44465 0.0
N2231 N 0.58944 0.01737 0.56739 0.0
H2232 H 0.96373 0.55863 0.44548 0.0
H2233 H 0.04877 0.60238 0.55789 0.0
H2234 H 0.97583 0.56218 0.62201 0.0
H2235 H 0.03701 0.59754 0.38071 0.0
H2236 H 0.02205 0.58912 0.58245 0.0
H2237 H 0.99042 0.57358 0.42061 0.0
C2238 C 0.97206 0.56267 0.47896 0.0
C2239 C 0.96763 0.55979 0.53596 0.0
C2240 C 0.02527 0.59108 0.53817 0.0
C2241 C 0.99814 0.57653 0.50806 0.0
C2242 C 0.04051 0.59871 0.52423 0.0
C2243 C 0.04505 0.60134 0.4673 0.0
C2244 C 0.01445 0.58568 0.49475 0.0
C2245 C 0.03395 0.59611 0.42516 0.0
C2246 C 0.98726 0.57118 0.46484 0.0
C2247 C 0.9788 0.56475 0.57771 0.0
N2248 N 0.01916 0.5885 0.43969 0.0
N2249 N 0.99354 0.57295 0.563 0.0
H2250 H 0.41788 0.44545 0.37698 0.0
H2251 H 0.44335 0.40996 0.62718 0.0
H2252 H 0.41049 0.44971 0.55416 0.0
H2253 H 0.45177 0.40684 0.45011 0.0
H2254 H 0.4297 0.42296 0.60129 0.0
H2255 H 0.42958 0.43055 0.40262 0.0
C2256 C 0.41856 0.44304 0.42129 0.0
C2257 C 0.41269 0.44824 0.46347 0.0
C2258 C 0.43438 0.4193 0.56797 0.0
C2259 C 0.42633 0.4315 0.49345 0.0
C2260 C 0.44198 0.4117 0.58275 0.0
C2261 C 0.4483 0.40696 0.54058 0.0
C2262 C 0.43339 0.4225 0.5106 0.0
C2263 C 0.44684 0.41012 0.48379 0.0
C2264 C 0.42532 0.43463 0.436 0.0
C2265 C 0.41451 0.44549 0.52039 0.0
N2266 N 0.43955 0.41768 0.47044 0.0
N2267 N 0.42101 0.43717 0.53374 0.0
H2268 H 0.23458 0.0851 0.23622 0.0
H2269 H 0.27433 0.17011 0.3457 0.0
H2270 H 0.27439 0.10499 0.34025 0.0
H2271 H 0.23521 0.14987 0.23801 0.0
H2272 H 0.27315 0.14579 0.35282 0.0
H2273 H 0.23326 0.10802 0.24497 0.0
C2274 C 0.24298 0.09424 0.26142 0.0
C2275 C 0.25466 0.09311 0.2873 0.0
C2276 C 0.26474 0.14664 0.3281 0.0
C2277 C 0.2533 0.11959 0.29714 0.0
C2278 C 0.26537 0.16052 0.32418 0.0
C2279 C 0.25489 0.16208 0.29097 0.0
C2280 C 0.25355 0.1342 0.29856 0.0
C2281 C 0.24356 0.14924 0.26393 0.0
C2282 C 0.24223 0.10737 0.26633 0.0
C2283 C 0.2652 0.10535 0.3195 0.0
N2284 N 0.24326 0.13592 0.26801 0.0
N2285 N 0.26433 0.11811 0.32314 0.0
H2286 H 0.83912 0.10523 0.34673 0.0
H2287 H 0.92492 0.14977 0.24645 0.0
H2288 H 0.86026 0.08584 0.2467 0.0
H2289 H 0.90447 0.17012 0.34494 0.0
H2290 H 0.90201 0.12555 0.25572 0.0
H2291 H 0.86347 0.12827 0.35595 0.0
C2292 C 0.8489 0.10573 0.32737 0.0
C2293 C 0.84761 0.0936 0.29558 0.0
C2294 C 0.90254 0.13526 0.27584 0.0
C2295 C 0.8755 0.11997 0.30561 0.0
C2296 C 0.91567 0.14912 0.27066 0.0
C2297 C 0.91661 0.16204 0.29466 0.0
C2298 C 0.89015 0.13426 0.30494 0.0
C2299 C 0.90424 0.16046 0.32565 0.0
C2300 C 0.8628 0.11891 0.3325 0.0
C2301 C 0.86068 0.09491 0.27134 0.0
N2302 N 0.89148 0.14686 0.32943 0.0
N2303 N 0.874 0.10787 0.27652 0.0
H2304 H 0.92339 0.77482 0.24418 0.0
H2305 H 0.83753 0.73391 0.34422 0.0
H2306 H 0.9029 0.73405 0.34271 0.0
H2307 H 0.8586 0.77386 0.24111 0.0
H2308 H 0.86182 0.73503 0.35313 0.0
H2309 H 0.90036 0.77594 0.25182 0.0
C2310 C 0.91409 0.76616 0.26796 0.0
C2311 C 0.91508 0.75427 0.29256 0.0
C2312 C 0.86115 0.74363 0.32902 0.0
C2313 C 0.88846 0.7554 0.30106 0.0
C2314 C 0.84729 0.74302 0.32406 0.0
C2315 C 0.84599 0.75376 0.2916 0.0
C2316 C 0.87381 0.75506 0.30133 0.0
C2317 C 0.85902 0.76529 0.26632 0.0
C2318 C 0.90089 0.76679 0.27222 0.0
C2319 C 0.90263 0.74341 0.323 0.0
N2320 N 0.87231 0.76557 0.27145 0.0
N2321 N 0.8898 0.74416 0.32598 0.0
H2322 H 0.1078 0.2725 0.66009 0.0
H2323 H 0.1528 0.23204 0.76566 0.0
H2324 H 0.08888 0.23325 0.76703 0.0
H2325 H 0.17251 0.27166 0.66062 0.0
H2326 H 0.12861 0.23095 0.75838 0.0
H2327 H 0.1308 0.27108 0.65176 0.0
C2328 C 0.1084 0.26348 0.68127 0.0
C2329 C 0.09639 0.25303 0.71456 0.0
C2330 C 0.13817 0.23982 0.73645 0.0
C2331 C 0.12275 0.25138 0.70551 0.0
C2332 C 0.15201 0.24043 0.74047 0.0
C2333 C 0.16476 0.25201 0.71394 0.0
C2334 C 0.13701 0.25092 0.70588 0.0
C2335 C 0.16301 0.26254 0.68186 0.0
C2336 C 0.12156 0.2627 0.67662 0.0
C2337 C 0.09785 0.2416 0.74111 0.0
N2338 N 0.14944 0.26182 0.67912 0.0
N2339 N 0.11078 0.24115 0.73631 0.0
H2340 H 0.77722 0.85679 0.75966 0.0
H2341 H 0.73595 0.90146 0.66065 0.0
H2342 H 0.73626 0.83636 0.66221 0.0
H2343 H 0.77685 0.92088 0.75839 0.0
H2344 H 0.73702 0.87826 0.65196 0.0
H2345 H 0.77844 0.88097 0.7508 0.0
C2346 C 0.76854 0.85741 0.73587 0.0
C2347 C 0.75657 0.84448 0.71194 0.0
C2348 C 0.74583 0.88766 0.6748 0.0
C2349 C 0.75781 0.87225 0.70205 0.0
C2350 C 0.74526 0.90093 0.67961 0.0
C2351 C 0.75628 0.91312 0.7106 0.0
C2352 C 0.75751 0.88657 0.70119 0.0
C2353 C 0.76805 0.91176 0.73438 0.0
C2354 C 0.76923 0.87125 0.73088 0.0
C2355 C 0.74569 0.84603 0.68143 0.0
N2356 N 0.76829 0.89873 0.72951 0.0
N2357 N 0.74649 0.85962 0.67779 0.0
H2358 H 0.15115 0.92161 0.76012 0.0
H2359 H 0.10658 0.83586 0.65888 0.0
H2360 H 0.17128 0.90139 0.65903 0.0
H2361 H 0.08761 0.85648 0.76414 0.0
H2362 H 0.12948 0.8603 0.64915 0.0
H2363 H 0.127 0.89854 0.75242 0.0
C2364 C 0.15046 0.91238 0.73567 0.0
C2365 C 0.16331 0.91344 0.71046 0.0
C2366 C 0.12024 0.8595 0.67391 0.0
C2367 C 0.1356 0.8868 0.70197 0.0
C2368 C 0.10714 0.84554 0.67934 0.0
C2369 C 0.09517 0.84408 0.71266 0.0
C2370 C 0.12139 0.87208 0.702 0.0
C2371 C 0.09656 0.85703 0.73828 0.0
C2372 C 0.13664 0.89916 0.73141 0.0
C2373 C 0.16168 0.90108 0.67925 0.0
N2374 N 0.10943 0.87042 0.73271 0.0
N2375 N 0.14813 0.88824 0.67632 0.0
H2376 H 0.90039 0.41865 0.56646 0.0
H2377 H 0.93863 0.50298 0.68182 0.0
H2378 H 0.938 0.43792 0.68164 0.0
H2379 H 0.90097 0.48362 0.56684 0.0
H2380 H 0.93685 0.47846 0.69054 0.0
H2381 H 0.89868 0.44144 0.57436 0.0
C2382 C 0.90817 0.42759 0.59402 0.0
C2383 C 0.91942 0.42639 0.62315 0.0
C2384 C 0.92888 0.47953 0.66385 0.0
C2385 C 0.91762 0.45263 0.63196 0.0
C2386 C 0.92986 0.49354 0.65897 0.0
C2387 C 0.91999 0.4954 0.62326 0.0
C2388 C 0.91798 0.46728 0.63263 0.0
C2389 C 0.90886 0.48274 0.59468 0.0
C2390 C 0.90721 0.44063 0.5984 0.0
C2391 C 0.92918 0.43835 0.65823 0.0
N2392 N 0.90824 0.46927 0.59961 0.0
N2393 N 0.92814 0.451 0.66125 0.0
H2394 H 0.5264 0.41885 0.57709 0.0
H2395 H 0.57104 0.50416 0.68271 0.0
H2396 H 0.50608 0.43891 0.67803 0.0
H2397 H 0.59031 0.48361 0.57873 0.0
H2398 H 0.54801 0.4798 0.69078 0.0
H2399 H 0.55059 0.44177 0.58655 0.0
C2400 C 0.52704 0.42803 0.60179 0.0
C2401 C 0.51414 0.42696 0.62651 0.0
C2402 C 0.55734 0.48059 0.6667 0.0
C2403 C 0.54192 0.45342 0.63712 0.0
C2404 C 0.57052 0.4945 0.66224 0.0
C2405 C 0.58262 0.49597 0.6297 0.0
C2406 C 0.55623 0.46806 0.63838 0.0
C2407 C 0.58127 0.48304 0.60403 0.0
C2408 C 0.54089 0.44115 0.6071 0.0
C2409 C 0.51572 0.43923 0.65816 0.0
N2410 N 0.5683 0.4697 0.60858 0.0
N2411 N 0.52932 0.452 0.66214 0.0
H2412 H 0.5924 0.10957 0.56303 0.0
H2413 H 0.50775 0.07082 0.67647 0.0
H2414 H 0.57277 0.07092 0.67314 0.0
H2415 H 0.52752 0.1092 0.56501 0.0
H2416 H 0.5321 0.07211 0.68339 0.0
H2417 H 0.56948 0.11101 0.57069 0.0
C2418 C 0.58333 0.10147 0.58932 0.0
C2419 C 0.58452 0.09006 0.61727 0.0
C2420 C 0.53115 0.08034 0.65785 0.0
C2421 C 0.55809 0.09158 0.62591 0.0
C2422 C 0.51725 0.07964 0.65403 0.0
C2423 C 0.51554 0.08988 0.61989 0.0
C2424 C 0.54348 0.09133 0.6272 0.0
C2425 C 0.52827 0.10104 0.5917 0.0
C2426 C 0.57021 0.10228 0.59359 0.0
C2427 C 0.57236 0.07989 0.65074 0.0
N2428 N 0.54164 0.10139 0.59566 0.0
N2429 N 0.55964 0.08082 0.65379 0.0
H2430 H 0.75395 0.56429 0.09858 0.0
H2431 H 0.83886 0.60442 0.98837 0.0
H2432 H 0.77351 0.60367 0.99228 0.0
H2433 H 0.81902 0.56544 0.09676 0.0
H2434 H 0.81436 0.60278 0.98034 0.0
H2435 H 0.77688 0.56296 0.08935 0.0
C2436 C 0.763 0.57256 0.07269 0.0
C2437 C 0.76181 0.58416 0.04644 0.0
C2438 C 0.81533 0.59449 0.0054 0.0
C2439 C 0.78826 0.5828 0.03612 0.0
C2440 C 0.82932 0.5954 0.00986 0.0
C2441 C 0.83104 0.5851 0.04357 0.0
C2442 C 0.80295 0.58323 0.03494 0.0
C2443 C 0.81826 0.57366 0.07051 0.0
C2444 C 0.77613 0.57182 0.06754 0.0
C2445 C 0.77393 0.59455 0.01337 0.0
N2446 N 0.80482 0.57311 0.06596 0.0
N2447 N 0.78669 0.59371 0.00958 0.0
H2448 H 0.4042 0.17006 0.98885 0.0
H2449 H 0.44472 0.2553 0.09547 0.0
H2450 H 0.44398 0.19052 0.09309 0.0
H2451 H 0.4043 0.23522 0.99485 0.0
H2452 H 0.44602 0.23239 0.0859 0.0
H2453 H 0.40546 0.19441 0.98141 0.0
C2454 C 0.41332 0.17971 0.00952 0.0
C2455 C 0.42396 0.17821 0.04192 0.0
C2456 C 0.43692 0.233 0.06545 0.0
C2457 C 0.42539 0.20611 0.03395 0.0
C2458 C 0.43618 0.24612 0.07083 0.0
C2459 C 0.42433 0.24718 0.04621 0.0
C2460 C 0.42568 0.22073 0.03545 0.0
C2461 C 0.41362 0.2349 0.01464 0.0
C2462 C 0.414 0.1936 0.00542 0.0
C2463 C 0.43549 0.19111 0.06786 0.0
N2464 N 0.41448 0.22215 0.01057 0.0
N2465 N 0.43583 0.20445 0.06365 0.0
H2466 H 0.77399 0.17301 0.98956 0.0
H2467 H 0.82048 0.25656 0.11279 0.0
H2468 H 0.75595 0.19152 0.10959 0.0
H2469 H 0.83884 0.23761 0.99616 0.0
H2470 H 0.79602 0.23377 0.10463 0.0
H2471 H 0.79689 0.19743 0.98363 0.0
C2472 C 0.77475 0.18226 0.01413 0.0
C2473 C 0.76303 0.18016 0.05037 0.0
C2474 C 0.80536 0.23463 0.08043 0.0
C2475 C 0.78936 0.20819 0.04421 0.0
C2476 C 0.81935 0.24767 0.08499 0.0
C2477 C 0.83178 0.24899 0.05534 0.0
C2478 C 0.80374 0.22276 0.04606 0.0
C2479 C 0.8296 0.23709 0.01995 0.0
C2480 C 0.78788 0.19621 0.01087 0.0
C2481 C 0.76469 0.19258 0.08119 0.0
N2482 N 0.8159 0.22445 0.01661 0.0
N2483 N 0.77765 0.20601 0.07776 0.0
H2484 H 0.56603 0.75232 0.90078 0.0
H2485 H 0.60399 0.8362 0.02023 0.0
H2486 H 0.60443 0.77172 0.01222 0.0
H2487 H 0.56695 0.81743 0.90243 0.0
H2488 H 0.60227 0.81171 0.02748 0.0
H2489 H 0.56419 0.77497 0.91057 0.0
C2490 C 0.57398 0.76127 0.92791 0.0
C2491 C 0.58547 0.76014 0.95543 0.0
C2492 C 0.59441 0.81289 1.00049 0.0
C2493 C 0.58349 0.78623 0.96644 0.0
C2494 C 0.59535 0.82688 0.99645 0.0
C2495 C 0.58566 0.82892 0.96035 0.0
C2496 C 0.58372 0.80081 0.96809 0.0
C2497 C 0.57469 0.81641 0.93063 0.0
C2498 C 0.57293 0.77423 0.93336 0.0
C2499 C 0.59542 0.7721 0.99007 0.0
N2500 N 0.5741 0.80293 0.93479 0.0
N2501 N 0.59428 0.78469 0.9942 0.0
H2502 H 0.19387 0.75263 0.9145 0.0
H2503 H 0.23797 0.83831 0.01655 0.0
H2504 H 0.17349 0.77266 0.01519 0.0
H2505 H 0.25731 0.81792 0.91203 0.0
H2506 H 0.21514 0.8138 0.02584 0.0
H2507 H 0.21798 0.77573 0.92281 0.0
C2508 C 0.19449 0.76182 0.93901 0.0
C2509 C 0.18159 0.76071 0.9639 0.0
C2510 C 0.22444 0.81467 1.00134 0.0
C2511 C 0.20924 0.78737 0.97308 0.0
C2512 C 0.2375 0.82865 0.99615 0.0
C2513 C 0.24955 0.83021 0.96316 0.0
C2514 C 0.22342 0.80213 0.97333 0.0
C2515 C 0.24828 0.8173 0.93763 0.0
C2516 C 0.20828 0.77506 0.94361 0.0
C2517 C 0.18313 0.77302 0.9952 0.0
N2518 N 0.23544 0.80387 0.94294 0.0
N2519 N 0.19666 0.78588 0.99846 0.0
H2520 H 0.19409 0.44269 0.90682 0.0
H2521 H 0.23897 0.40196 0.01041 0.0
H2522 H 0.17421 0.40271 0.00986 0.0
H2523 H 0.25789 0.44137 0.90428 0.0
H2524 H 0.21599 0.4034 0.0193 0.0
H2525 H 0.21828 0.44381 0.9143 0.0
C2526 C 0.19483 0.43423 0.93163 0.0
C2527 C 0.18205 0.42254 0.9575 0.0
C2528 C 0.22523 0.41181 0.99451 0.0
C2529 C 0.2098 0.42365 0.96577 0.0
C2530 C 0.23838 0.41102 0.98955 0.0
C2531 C 0.25037 0.42151 0.95629 0.0
C2532 C 0.22405 0.42318 0.96598 0.0
C2533 C 0.24892 0.43299 0.93015 0.0
C2534 C 0.20867 0.43485 0.93577 0.0
C2535 C 0.18375 0.41191 0.98913 0.0
N2536 N 0.236 0.43345 0.93526 0.0
N2537 N 0.19732 0.41265 0.99197 0.0
H2538 H 0.4401 0.93816 0.32902 0.0
H2539 H 0.48514 0.89842 0.44179 0.0
H2540 H 0.42128 0.89992 0.44121 0.0
H2541 H 0.50435 0.93683 0.33045 0.0
H2542 H 0.46088 0.89723 0.43399 0.0
H2543 H 0.46288 0.93635 0.32108 0.0
C2544 C 0.44068 0.92928 0.35145 0.0
C2545 C 0.42878 0.91923 0.38609 0.0
C2546 C 0.47036 0.90584 0.4108 0.0
C2547 C 0.45488 0.91716 0.37755 0.0
C2548 C 0.48422 0.90649 0.41511 0.0
C2549 C 0.49684 0.91779 0.38699 0.0
C2550 C 0.46907 0.9166 0.37831 0.0
C2551 C 0.49495 0.92795 0.35304 0.0
C2552 C 0.45371 0.92827 0.34702 0.0
C2553 C 0.43018 0.90796 0.41421 0.0
N2554 N 0.48138 0.92719 0.35004 0.0
N2555 N 0.44301 0.9073 0.40964 0.0
H2556 H 0.111 0.58891 0.43276 0.0
H2557 H 0.0706 0.50341 0.32845 0.0
H2558 H 0.07053 0.56868 0.33243 0.0
H2559 H 0.11095 0.5245 0.42938 0.0
H2560 H 0.07147 0.52761 0.3214 0.0
H2561 H 0.11227 0.56597 0.42397 0.0
C2562 C 0.10244 0.57969 0.40836 0.0
C2563 C 0.0906 0.58073 0.38353 0.0
C2564 C 0.08021 0.52696 0.34462 0.0
C2565 C 0.0919 0.55421 0.37367 0.0
C2566 C 0.07975 0.51315 0.34849 0.0
C2567 C 0.09068 0.51188 0.37979 0.0
C2568 C 0.09168 0.53961 0.37228 0.0
C2569 C 0.10224 0.5249 0.405 0.0
C2570 C 0.10315 0.56654 0.40342 0.0
C2571 C 0.07986 0.56838 0.35233 0.0
N2572 N 0.10237 0.53815 0.401 0.0
N2573 N 0.08069 0.5556 0.34868 0.0
H2574 H 0.48692 0.58966 0.42528 0.0
H2575 H 0.44197 0.50425 0.32079 0.0
H2576 H 0.50706 0.56938 0.32453 0.0
H2577 H 0.42293 0.52496 0.4252 0.0
H2578 H 0.46504 0.52857 0.31237 0.0
H2579 H 0.4627 0.56676 0.4164 0.0
C2580 C 0.48623 0.58043 0.40075 0.0
C2581 C 0.49909 0.58143 0.3759 0.0
C2582 C 0.45575 0.52782 0.33662 0.0
C2583 C 0.47127 0.555 0.36594 0.0
C2584 C 0.44255 0.51394 0.34128 0.0
C2585 C 0.4305 0.51252 0.37404 0.0
C2586 C 0.45694 0.54039 0.36495 0.0
C2587 C 0.43193 0.52548 0.39973 0.0
C2588 C 0.47236 0.56732 0.39577 0.0
C2589 C 0.49745 0.5691 0.34449 0.0
N2590 N 0.44492 0.5388 0.39497 0.0
N2591 N 0.48383 0.55635 0.34081 0.0
loop_
_geom_bond_atom_site_label_1
_geom_bond_atom_site_label_2
_geom_bond_distance
_geom_bond_site_symmetry_2
_ccdc_geom_bond_type
Mn0 O5 2.095 . S
Mn0 O15 2.162 . S
Mn0 O16 2.297 . S
Mn0 O24 2.385 . S
Mn0 O25 2.209 . S
Mn0 O26 2.094 . S
Mn1 O6 2.121 . S
Mn1 N8 2.257 . S
Mn1 N17 2.282 . S
Mn1 O25 2.215 . S
Mn1 O27 2.117 . S
C2 O24 1.234 . S
C2 O25 1.283 . S
C3 O15 1.281 . S
C3 O16 1.236 . S
C4 O26 1.240 . S
C4 O27 1.264 . S
O5 Mn0 2.095 . S
O5 C14 1.250 . S
O6 Mn1 2.121 . S
O6 C14 1.258 . S
C7 N8 1.326 . S
C7 C11 1.460 . S
C7 H13 0.929 . S
N8 Mn1 2.257 . S
N8 C7 1.326 . S
N8 C12 1.362 . S
C9 C10 1.258 . S
C9 C12 1.431 . S
C9 C29 1.449 . S
C10 C9 1.258 . S
C10 C11 1.477 . S
C10 H30 0.931 . S
C11 C7 1.460 . S
C11 C10 1.477 . S
C11 H31 0.930 . S
C12 N8 1.362 . S
C12 C9 1.431 . S
C12 C22 1.476 . S
H13 C7 0.929 . S
C14 O5 1.250 . S
C14 O6 1.258 . S
O15 Mn0 2.162 . S
O15 C3 1.281 . S
O16 Mn0 2.297 . S
O16 C3 1.236 . S
N17 Mn1 2.282 . S
N17 C18 1.328 . S
N17 C22 1.318 . S
C18 N17 1.328 . S
C18 C19 1.457 . S
C18 H23 0.929 . S
C19 C18 1.457 . S
C19 C20 1.291 . S
C19 H32 0.931 . S
C20 C19 1.291 . S
C20 C21 1.373 . S
C20 H33 0.929 . S
C21 C20 1.373 . S
C21 C22 1.396 . S
C21 C28 1.403 . S
C22 C12 1.476 . S
C22 N17 1.318 . S
C22 C21 1.396 . S
H23 C18 0.929 . S
O24 Mn0 2.385 . S
O24 C2 1.234 . S
O25 Mn0 2.209 . S
O25 Mn1 2.215 . S
O25 C2 1.283 . S
O26 Mn0 2.094 . S
O26 C4 1.240 . S
O27 Mn1 2.117 . S
O27 C4 1.264 . S
C28 C21 1.403 . S
C28 C29 1.399 . S
C28 H34 0.929 . S
C29 C9 1.449 . S
C29 C28 1.399 . S
C29 H35 0.930 . S
H30 C10 0.931 . S
H31 C11 0.930 . S
H32 C19 0.931 . S
H33 C20 0.929 . S
H34 C28 0.929 . S
H35 C29 0.930 . S
Mn36 O41 2.095 . S
Mn36 O51 2.162 . S
Mn36 O52 2.297 . S
Mn36 O60 2.385 . S
Mn36 O61 2.209 . S
Mn36 O62 2.094 . S
Mn37 O42 2.121 . S
Mn37 N44 2.257 . S
Mn37 N53 2.282 . S
Mn37 O61 2.215 . S
Mn37 O63 2.117 . S
C38 O60 1.234 . S
C38 O61 1.283 . S
C39 O51 1.281 . S
C39 O52 1.236 . S
C40 O62 1.240 . S
C40 O63 1.264 . S
O41 Mn36 2.095 . S
O41 C50 1.250 . S
O42 Mn37 2.121 . S
O42 C50 1.258 . S
C43 N44 1.326 . S
C43 C47 1.460 . S
C43 H49 0.929 . S
N44 Mn37 2.257 . S
N44 C43 1.326 . S
N44 C48 1.362 . S
C45 C46 1.258 . S
C45 C48 1.431 . S
C45 C65 1.449 . S
C46 C45 1.258 . S
C46 C47 1.477 . S
C46 H66 0.931 . S
C47 C43 1.460 . S
C47 C46 1.477 . S
C47 H67 0.930 . S
C48 N44 1.362 . S
C48 C45 1.431 . S
C48 C58 1.476 . S
H49 C43 0.929 . S
C50 O41 1.250 . S
C50 O42 1.258 . S
O51 Mn36 2.162 . S
O51 C39 1.281 . S
O52 Mn36 2.297 . S
O52 C39 1.236 . S
N53 Mn37 2.282 . S
N53 C54 1.328 . S
N53 C58 1.318 . S
C54 N53 1.328 . S
C54 C55 1.457 . S
C54 H59 0.929 . S
C55 C54 1.457 . S
C55 C56 1.291 . S
C55 H68 0.931 . S
C56 C55 1.291 . S
C56 C57 1.373 . S
C56 H69 0.929 . S
C57 C56 1.373 . S
C57 C58 1.396 . S
C57 C64 1.403 . S
C58 C48 1.476 . S
C58 N53 1.318 . S
C58 C57 1.396 . S
H59 C54 0.929 . S
O60 Mn36 2.385 . S
O60 C38 1.234 . S
O61 Mn36 2.209 . S
O61 Mn37 2.215 . S
O61 C38 1.283 . S
O62 Mn36 2.094 . S
O62 C40 1.240 . S
O63 Mn37 2.117 . S
O63 C40 1.264 . S
C64 C57 1.403 . S
C64 C65 1.399 . S
C64 H70 0.929 . S
C65 C45 1.449 . S
C65 C64 1.399 . S
C65 H71 0.930 . S
H66 C46 0.931 . S
H67 C47 0.930 . S
H68 C55 0.931 . S
H69 C56 0.929 . S
H70 C64 0.929 . S
H71 C65 0.930 . S
Mn72 O77 2.095 . S
Mn72 O87 2.162 . S
Mn72 O88 2.297 . S
Mn72 O96 2.385 . S
Mn72 O97 2.209 . S
Mn72 O98 2.094 . S
Mn73 O78 2.121 . S
Mn73 N80 2.257 . S
Mn73 N89 2.282 . S
Mn73 O97 2.215 . S
Mn73 O99 2.117 . S
C74 O96 1.234 . S
C74 O97 1.283 . S
C75 O87 1.281 . S
C75 O88 1.236 . S
C76 O98 1.240 . S
C76 O99 1.264 . S
O77 Mn72 2.095 . S
O77 C86 1.250 . S
O78 Mn73 2.121 . S
O78 C86 1.258 . S
C79 N80 1.326 . S
C79 C83 1.460 . S
C79 H85 0.929 . S
N80 Mn73 2.257 . S
N80 C79 1.326 . S
N80 C84 1.362 . S
C81 C82 1.258 . S
C81 C84 1.431 . S
C81 C101 1.449 . S
C82 C81 1.258 . S
C82 C83 1.477 . S
C82 H102 0.931 . S
C83 C79 1.460 . S
C83 C82 1.477 . S
C83 H103 0.930 . S
C84 N80 1.362 . S
C84 C81 1.431 . S
C84 C94 1.476 . S
H85 C79 0.929 . S
C86 O77 1.250 . S
C86 O78 1.258 . S
O87 Mn72 2.162 . S
O87 C75 1.281 . S
O88 Mn72 2.297 . S
O88 C75 1.236 . S
N89 Mn73 2.282 . S
N89 C90 1.328 . S
N89 C94 1.318 . S
C90 N89 1.328 . S
C90 C91 1.457 . S
C90 H95 0.929 . S
C91 C90 1.457 . S
C91 C92 1.291 . S
C91 H104 0.931 . S
C92 C91 1.291 . S
C92 C93 1.373 . S
C92 H105 0.929 . S
C93 C92 1.373 . S
C93 C94 1.396 . S
C93 C100 1.403 . S
C94 C84 1.476 . S
C94 N89 1.318 . S
C94 C93 1.396 . S
H95 C90 0.929 . S
O96 Mn72 2.385 . S
O96 C74 1.234 . S
O97 Mn72 2.209 . S
O97 Mn73 2.215 . S
O97 C74 1.283 . S
O98 Mn72 2.094 . S
O98 C76 1.240 . S
O99 Mn73 2.117 . S
O99 C76 1.264 . S
C100 C93 1.403 . S
C100 C101 1.399 . S
C100 H106 0.929 . S
C101 C81 1.449 . S
C101 C100 1.399 . S
C101 H107 0.930 . S
H102 C82 0.931 . S
H103 C83 0.930 . S
H104 C91 0.931 . S
H105 C92 0.929 . S
H106 C100 0.929 . S
H107 C101 0.930 . S
Mn108 O113 2.095 . S
Mn108 O123 2.162 . S
Mn108 O124 2.297 . S
Mn108 O132 2.385 . S
Mn108 O133 2.209 . S
Mn108 O134 2.094 . S
Mn109 O114 2.121 . S
Mn109 N116 2.257 . S
Mn109 N125 2.282 . S
Mn109 O133 2.215 . S
Mn109 O135 2.117 . S
C110 O132 1.234 . S
C110 O133 1.283 . S
C111 O123 1.281 . S
C111 O124 1.236 . S
C112 O134 1.240 . S
C112 O135 1.264 . S
O113 Mn108 2.095 . S
O113 C122 1.250 . S
O114 Mn109 2.121 . S
O114 C122 1.258 . S
C115 N116 1.326 . S
C115 C119 1.460 . S
C115 H121 0.929 . S
N116 Mn109 2.257 . S
N116 C115 1.326 . S
N116 C120 1.362 . S
C117 C118 1.258 . S
C117 C120 1.431 . S
C117 C137 1.449 . S
C118 C117 1.258 . S
C118 C119 1.477 . S
C118 H138 0.931 . S
C119 C115 1.460 . S
C119 C118 1.477 . S
C119 H139 0.930 . S
C120 N116 1.362 . S
C120 C117 1.431 . S
C120 C130 1.476 . S
H121 C115 0.929 . S
C122 O113 1.250 . S
C122 O114 1.258 . S
O123 Mn108 2.162 . S
O123 C111 1.281 . S
O124 Mn108 2.297 . S
O124 C111 1.236 . S
N125 Mn109 2.282 . S
N125 C126 1.328 . S
N125 C130 1.318 . S
C126 N125 1.328 . S
C126 C127 1.457 . S
C126 H131 0.929 . S
C127 C126 1.457 . S
C127 C128 1.291 . S
C127 H140 0.931 . S
C128 C127 1.291 . S
C128 C129 1.373 . S
C128 H141 0.929 . S
C129 C128 1.373 . S
C129 C130 1.396 . S
C129 C136 1.403 . S
C130 C120 1.476 . S
C130 N125 1.318 . S
C130 C129 1.396 . S
H131 C126 0.929 . S
O132 Mn108 2.385 . S
O132 C110 1.234 . S
O133 Mn108 2.209 . S
O133 Mn109 2.215 . S
O133 C110 1.283 . S
O134 Mn108 2.094 . S
O134 C112 1.240 . S
O135 Mn109 2.117 . S
O135 C112 1.264 . S
C136 C129 1.403 . S
C136 C137 1.399 . S
C136 H142 0.929 . S
C137 C117 1.449 . S
C137 C136 1.399 . S
C137 H143 0.930 . S
H138 C118 0.931 . S
H139 C119 0.930 . S
H140 C127 0.931 . S
H141 C128 0.929 . S
H142 C136 0.929 . S
H143 C137 0.930 . S
Mn144 O149 2.095 . S
Mn144 O159 2.162 . S
Mn144 O160 2.297 . S
Mn144 O168 2.385 . S
Mn144 O169 2.209 . S
Mn144 O170 2.094 . S
Mn145 O150 2.121 . S
Mn145 N152 2.257 . S
Mn145 N161 2.282 . S
Mn145 O169 2.215 . S
Mn145 O171 2.117 . S
C146 O168 1.234 . S
C146 O169 1.283 . S
C147 O159 1.281 . S
C147 O160 1.236 . S
C148 O170 1.240 . S
C148 O171 1.264 . S
O149 Mn144 2.095 . S
O149 C158 1.250 . S
O150 Mn145 2.121 . S
O150 C158 1.258 . S
C151 N152 1.326 . S
C151 C155 1.460 . S
C151 H157 0.929 . S
N152 Mn145 2.257 . S
N152 C151 1.326 . S
N152 C156 1.362 . S
C153 C154 1.258 . S
C153 C156 1.431 . S
C153 C173 1.449 . S
C154 C153 1.258 . S
C154 C155 1.477 . S
C154 H174 0.931 . S
C155 C151 1.460 . S
C155 C154 1.477 . S
C155 H175 0.930 . S
C156 N152 1.362 . S
C156 C153 1.431 . S
C156 C166 1.476 . S
H157 C151 0.929 . S
C158 O149 1.250 . S
C158 O150 1.258 . S
O159 Mn144 2.162 . S
O159 C147 1.281 . S
O160 Mn144 2.297 . S
O160 C147 1.236 . S
N161 Mn145 2.282 . S
N161 C162 1.328 . S
N161 C166 1.318 . S
C162 N161 1.328 . S
C162 C163 1.457 . S
C162 H167 0.929 . S
C163 C162 1.457 . S
C163 C164 1.291 . S
C163 H176 0.931 . S
C164 C163 1.291 . S
C164 C165 1.373 . S
C164 H177 0.929 . S
C165 C164 1.373 . S
C165 C166 1.396 . S
C165 C172 1.403 . S
C166 C156 1.476 . S
C166 N161 1.318 . S
C166 C165 1.396 . S
H167 C162 0.929 . S
O168 Mn144 2.385 . S
O168 C146 1.234 . S
O169 Mn144 2.209 . S
O169 Mn145 2.215 . S
O169 C146 1.283 . S
O170 Mn144 2.094 . S
O170 C148 1.240 . S
O171 Mn145 2.117 . S
O171 C148 1.264 . S
C172 C165 1.403 . S
C172 C173 1.399 . S
C172 H178 0.929 . S
C173 C153 1.449 . S
C173 C172 1.399 . S
C173 H179 0.930 . S
H174 C154 0.931 . S
H175 C155 0.930 . S
H176 C163 0.931 . S
H177 C164 0.929 . S
H178 C172 0.929 . S
H179 C173 0.930 . S
Mn180 O185 2.095 . S
Mn180 O195 2.162 . S
Mn180 O196 2.297 . S
Mn180 O204 2.385 . S
Mn180 O205 2.209 . S
Mn180 O206 2.094 . S
Mn181 O186 2.121 . S
Mn181 N188 2.257 . S
Mn181 N197 2.282 . S
Mn181 O205 2.215 . S
Mn181 O207 2.117 . S
C182 O204 1.234 . S
C182 O205 1.283 . S
C183 O195 1.281 . S
C183 O196 1.236 . S
C184 O206 1.240 . S
C184 O207 1.264 . S
O185 Mn180 2.095 . S
O185 C194 1.250 . S
O186 Mn181 2.121 . S
O186 C194 1.258 . S
C187 N188 1.326 . S
C187 C191 1.460 . S
C187 H193 0.929 . S
N188 Mn181 2.257 . S
N188 C187 1.326 . S
N188 C192 1.362 . S
C189 C190 1.258 . S
C189 C192 1.431 . S
C189 C209 1.449 . S
C190 C189 1.258 . S
C190 C191 1.477 . S
C190 H210 0.931 . S
C191 C187 1.460 . S
C191 C190 1.477 . S
C191 H211 0.930 . S
C192 N188 1.362 . S
C192 C189 1.431 . S
C192 C202 1.476 . S
H193 C187 0.929 . S
C194 O185 1.250 . S
C194 O186 1.258 . S
O195 Mn180 2.162 . S
O195 C183 1.281 . S
O196 Mn180 2.297 . S
O196 C183 1.236 . S
N197 Mn181 2.282 . S
N197 C198 1.328 . S
N197 C202 1.318 . S
C198 N197 1.328 . S
C198 C199 1.457 . S
C198 H203 0.929 . S
C199 C198 1.457 . S
C199 C200 1.291 . S
C199 H212 0.931 . S
C200 C199 1.291 . S
C200 C201 1.373 . S
C200 H213 0.929 . S
C201 C200 1.373 . S
C201 C202 1.396 . S
C201 C208 1.403 . S
C202 C192 1.476 . S
C202 N197 1.318 . S
C202 C201 1.396 . S
H203 C198 0.929 . S
O204 Mn180 2.385 . S
O204 C182 1.234 . S
O205 Mn180 2.209 . S
O205 Mn181 2.215 . S
O205 C182 1.283 . S
O206 Mn180 2.094 . S
O206 C184 1.240 . S
O207 Mn181 2.117 . S
O207 C184 1.264 . S
C208 C201 1.403 . S
C208 C209 1.399 . S
C208 H214 0.929 . S
C209 C189 1.449 . S
C209 C208 1.399 . S
C209 H215 0.930 . S
H210 C190 0.931 . S
H211 C191 0.930 . S
H212 C199 0.931 . S
H213 C200 0.929 . S
H214 C208 0.929 . S
H215 C209 0.930 . S
Mn216 O221 2.095 . S
Mn216 O231 2.162 . S
Mn216 O232 2.297 . S
Mn216 O240 2.385 . S
Mn216 O241 2.209 . S
Mn216 O242 2.094 . S
Mn217 O222 2.121 . S
Mn217 N224 2.257 . S
Mn217 N233 2.282 . S
Mn217 O241 2.215 . S
Mn217 O243 2.117 . S
C218 O240 1.234 . S
C218 O241 1.283 . S
C219 O231 1.281 . S
C219 O232 1.236 . S
C220 O242 1.240 . S
C220 O243 1.264 . S
O221 Mn216 2.095 . S
O221 C230 1.250 . S
O222 Mn217 2.121 . S
O222 C230 1.258 . S
C223 N224 1.326 . S
C223 C227 1.460 . S
C223 H229 0.929 . S
N224 Mn217 2.257 . S
N224 C223 1.326 . S
N224 C228 1.362 . S
C225 C226 1.258 . S
C225 C228 1.431 . S
C225 C245 1.449 . S
C226 C225 1.258 . S
C226 C227 1.477 . S
C226 H246 0.931 . S
C227 C223 1.460 . S
C227 C226 1.477 . S
C227 H247 0.930 . S
C228 N224 1.362 . S
C228 C225 1.431 . S
C228 C238 1.476 . S
H229 C223 0.929 . S
C230 O221 1.250 . S
C230 O222 1.258 . S
O231 Mn216 2.162 . S
O231 C219 1.281 . S
O232 Mn216 2.297 . S
O232 C219 1.236 . S
N233 Mn217 2.282 . S
N233 C234 1.328 . S
N233 C238 1.318 . S
C234 N233 1.328 . S
C234 C235 1.457 . S
C234 H239 0.929 . S
C235 C234 1.457 . S
C235 C236 1.291 . S
C235 H248 0.931 . S
C236 C235 1.291 . S
C236 C237 1.373 . S
C236 H249 0.929 . S
C237 C236 1.373 . S
C237 C238 1.396 . S
C237 C244 1.403 . S
C238 C228 1.476 . S
C238 N233 1.318 . S
C238 C237 1.396 . S
H239 C234 0.929 . S
O240 Mn216 2.385 . S
O240 C218 1.234 . S
O241 Mn216 2.209 . S
O241 Mn217 2.215 . S
O241 C218 1.283 . S
O242 Mn216 2.094 . S
O242 C220 1.240 . S
O243 Mn217 2.117 . S
O243 C220 1.264 . S
C244 C237 1.403 . S
C244 C245 1.399 . S
C244 H250 0.929 . S
C245 C225 1.449 . S
C245 C244 1.399 . S
C245 H251 0.930 . S
H246 C226 0.931 . S
H247 C227 0.930 . S
H248 C235 0.931 . S
H249 C236 0.929 . S
H250 C244 0.929 . S
H251 C245 0.930 . S
Mn252 O257 2.095 . S
Mn252 O267 2.162 . S
Mn252 O268 2.297 . S
Mn252 O276 2.385 . S
Mn252 O277 2.209 . S
Mn252 O278 2.094 . S
Mn253 O258 2.121 . S
Mn253 N260 2.257 . S
Mn253 N269 2.282 . S
Mn253 O277 2.215 . S
Mn253 O279 2.117 . S
C254 O276 1.234 . S
C254 O277 1.283 . S
C255 O267 1.281 . S
C255 O268 1.236 . S
C256 O278 1.240 . S
C256 O279 1.264 . S
O257 Mn252 2.095 . S
O257 C266 1.250 . S
O258 Mn253 2.121 . S
O258 C266 1.258 . S
C259 N260 1.326 . S
C259 C263 1.460 . S
C259 H265 0.929 . S
N260 Mn253 2.257 . S
N260 C259 1.326 . S
N260 C264 1.362 . S
C261 C262 1.258 . S
C261 C264 1.431 . S
C261 C281 1.449 . S
C262 C261 1.258 . S
C262 C263 1.477 . S
C262 H282 0.931 . S
C263 C259 1.460 . S
C263 C262 1.477 . S
C263 H283 0.930 . S
C264 N260 1.362 . S
C264 C261 1.431 . S
C264 C274 1.476 . S
H265 C259 0.929 . S
C266 O257 1.250 . S
C266 O258 1.258 . S
O267 Mn252 2.162 . S
O267 C255 1.281 . S
O268 Mn252 2.297 . S
O268 C255 1.236 . S
N269 Mn253 2.282 . S
N269 C270 1.328 . S
N269 C274 1.318 . S
C270 N269 1.328 . S
C270 C271 1.457 . S
C270 H275 0.929 . S
C271 C270 1.457 . S
C271 C272 1.291 . S
C271 H284 0.931 . S
C272 C271 1.291 . S
C272 C273 1.373 . S
C272 H285 0.929 . S
C273 C272 1.373 . S
C273 C274 1.396 . S
C273 C280 1.403 . S
C274 C264 1.476 . S
C274 N269 1.318 . S
C274 C273 1.396 . S
H275 C270 0.929 . S
O276 Mn252 2.385 . S
O276 C254 1.234 . S
O277 Mn252 2.209 . S
O277 Mn253 2.215 . S
O277 C254 1.283 . S
O278 Mn252 2.094 . S
O278 C256 1.240 . S
O279 Mn253 2.117 . S
O279 C256 1.264 . S
C280 C273 1.403 . S
C280 C281 1.399 . S
C280 H286 0.929 . S
C281 C261 1.449 . S
C281 C280 1.399 . S
C281 H287 0.930 . S
H282 C262 0.931 . S
H283 C263 0.930 . S
H284 C271 0.931 . S
H285 C272 0.929 . S
H286 C280 0.929 . S
H287 C281 0.930 . S
Mn288 O293 2.095 . S
Mn288 O303 2.162 . S
Mn288 O304 2.297 . S
Mn288 O312 2.385 . S
Mn288 O313 2.209 . S
Mn288 O314 2.094 . S
Mn289 O294 2.121 . S
Mn289 N296 2.257 . S
Mn289 N305 2.282 . S
Mn289 O313 2.215 . S
Mn289 O315 2.117 . S
C290 O312 1.234 . S
C290 O313 1.283 . S
C291 O303 1.281 . S
C291 O304 1.236 . S
C292 O314 1.240 . S
C292 O315 1.264 . S
O293 Mn288 2.095 . S
O293 C302 1.250 . S
O294 Mn289 2.121 . S
O294 C302 1.258 . S
C295 N296 1.326 . S
C295 C299 1.460 . S
C295 H301 0.929 . S
N296 Mn289 2.257 . S
N296 C295 1.326 . S
N296 C300 1.362 . S
C297 C298 1.258 . S
C297 C300 1.431 . S
C297 C317 1.449 . S
C298 C297 1.258 . S
C298 C299 1.477 . S
C298 H318 0.931 . S
C299 C295 1.460 . S
C299 C298 1.477 . S
C299 H319 0.930 . S
C300 N296 1.362 . S
C300 C297 1.431 . S
C300 C310 1.476 . S
H301 C295 0.929 . S
C302 O293 1.250 . S
C302 O294 1.258 . S
O303 Mn288 2.162 . S
O303 C291 1.281 . S
O304 Mn288 2.297 . S
O304 C291 1.236 . S
N305 Mn289 2.282 . S
N305 C306 1.328 . S
N305 C310 1.318 . S
C306 N305 1.328 . S
C306 C307 1.457 . S
C306 H311 0.929 . S
C307 C306 1.457 . S
C307 C308 1.291 . S
C307 H320 0.931 . S
C308 C307 1.291 . S
C308 C309 1.373 . S
C308 H321 0.929 . S
C309 C308 1.373 . S
C309 C310 1.396 . S
C309 C316 1.403 . S
C310 C300 1.476 . S
C310 N305 1.318 . S
C310 C309 1.396 . S
H311 C306 0.929 . S
O312 Mn288 2.385 . S
O312 C290 1.234 . S
O313 Mn288 2.209 . S
O313 Mn289 2.215 . S
O313 C290 1.283 . S
O314 Mn288 2.094 . S
O314 C292 1.240 . S
O315 Mn289 2.117 . S
O315 C292 1.264 . S
C316 C309 1.403 . S
C316 C317 1.399 . S
C316 H322 0.929 . S
C317 C297 1.449 . S
C317 C316 1.399 . S
C317 H323 0.930 . S
H318 C298 0.931 . S
H319 C299 0.930 . S
H320 C307 0.931 . S
H321 C308 0.929 . S
H322 C316 0.929 . S
H323 C317 0.930 . S
Mn324 O329 2.095 . S
Mn324 O339 2.162 . S
Mn324 O340 2.297 . S
Mn324 O348 2.385 . S
Mn324 O349 2.209 . S
Mn324 O350 2.094 . S
Mn325 O330 2.121 . S
Mn325 N332 2.257 . S
Mn325 N341 2.282 . S
Mn325 O349 2.215 . S
Mn325 O351 2.117 . S
C326 O348 1.234 . S
C326 O349 1.283 . S
C327 O339 1.281 . S
C327 O340 1.236 . S
C328 O350 1.240 . S
C328 O351 1.264 . S
O329 Mn324 2.095 . S
O329 C338 1.250 . S
O330 Mn325 2.121 . S
O330 C338 1.258 . S
C331 N332 1.326 . S
C331 C335 1.460 . S
C331 H337 0.929 . S
N332 Mn325 2.257 . S
N332 C331 1.326 . S
N332 C336 1.362 . S
C333 C334 1.258 . S
C333 C336 1.431 . S
C333 C353 1.449 . S
C334 C333 1.258 . S
C334 C335 1.477 . S
C334 H354 0.931 . S
C335 C331 1.460 . S
C335 C334 1.477 . S
C335 H355 0.930 . S
C336 N332 1.362 . S
C336 C333 1.431 . S
C336 C346 1.476 . S
H337 C331 0.929 . S
C338 O329 1.250 . S
C338 O330 1.258 . S
O339 Mn324 2.162 . S
O339 C327 1.281 . S
O340 Mn324 2.297 . S
O340 C327 1.236 . S
N341 Mn325 2.282 . S
N341 C342 1.328 . S
N341 C346 1.318 . S
C342 N341 1.328 . S
C342 C343 1.457 . S
C342 H347 0.929 . S
C343 C342 1.457 . S
C343 C344 1.291 . S
C343 H356 0.931 . S
C344 C343 1.291 . S
C344 C345 1.373 . S
C344 H357 0.929 . S
C345 C344 1.373 . S
C345 C346 1.396 . S
C345 C352 1.403 . S
C346 C336 1.476 . S
C346 N341 1.318 . S
C346 C345 1.396 . S
H347 C342 0.929 . S
O348 Mn324 2.385 . S
O348 C326 1.234 . S
O349 Mn324 2.209 . S
O349 Mn325 2.215 . S
O349 C326 1.283 . S
O350 Mn324 2.094 . S
O350 C328 1.240 . S
O351 Mn325 2.117 . S
O351 C328 1.264 . S
C352 C345 1.403 . S
C352 C353 1.399 . S
C352 H358 0.929 . S
C353 C333 1.449 . S
C353 C352 1.399 . S
C353 H359 0.930 . S
H354 C334 0.931 . S
H355 C335 0.930 . S
H356 C343 0.931 . S
H357 C344 0.929 . S
H358 C352 0.929 . S
H359 C353 0.930 . S
Mn360 O365 2.095 . S
Mn360 O375 2.162 . S
Mn360 O376 2.297 . S
Mn360 O384 2.385 . S
Mn360 O385 2.209 . S
Mn360 O386 2.094 . S
Mn361 O366 2.121 . S
Mn361 N368 2.257 . S
Mn361 N377 2.282 . S
Mn361 O385 2.215 . S
Mn361 O387 2.117 . S
C362 O384 1.234 . S
C362 O385 1.283 . S
C363 O375 1.281 . S
C363 O376 1.236 . S
C364 O386 1.240 . S
C364 O387 1.264 . S
O365 Mn360 2.095 . S
O365 C374 1.250 . S
O366 Mn361 2.121 . S
O366 C374 1.258 . S
C367 N368 1.326 . S
C367 C371 1.460 . S
C367 H373 0.929 . S
N368 Mn361 2.257 . S
N368 C367 1.326 . S
N368 C372 1.362 . S
C369 C370 1.258 . S
C369 C372 1.431 . S
C369 C389 1.449 . S
C370 C369 1.258 . S
C370 C371 1.477 . S
C370 H390 0.931 . S
C371 C367 1.460 . S
C371 C370 1.477 . S
C371 H391 0.930 . S
C372 N368 1.362 . S
C372 C369 1.431 . S
C372 C382 1.476 . S
H373 C367 0.929 . S
C374 O365 1.250 . S
C374 O366 1.258 . S
O375 Mn360 2.162 . S
O375 C363 1.281 . S
O376 Mn360 2.297 . S
O376 C363 1.236 . S
N377 Mn361 2.282 . S
N377 C378 1.328 . S
N377 C382 1.318 . S
C378 N377 1.328 . S
C378 C379 1.457 . S
C378 H383 0.929 . S
C379 C378 1.457 . S
C379 C380 1.291 . S
C379 H392 0.931 . S
C380 C379 1.291 . S
C380 C381 1.373 . S
C380 H393 0.929 . S
C381 C380 1.373 . S
C381 C382 1.396 . S
C381 C388 1.403 . S
C382 C372 1.476 . S
C382 N377 1.318 . S
C382 C381 1.396 . S
H383 C378 0.929 . S
O384 Mn360 2.385 . S
O384 C362 1.234 . S
O385 Mn360 2.209 . S
O385 Mn361 2.215 . S
O385 C362 1.283 . S
O386 Mn360 2.094 . S
O386 C364 1.240 . S
O387 Mn361 2.117 . S
O387 C364 1.264 . S
C388 C381 1.403 . S
C388 C389 1.399 . S
C388 H394 0.929 . S
C389 C369 1.449 . S
C389 C388 1.399 . S
C389 H395 0.930 . S
H390 C370 0.931 . S
H391 C371 0.930 . S
H392 C379 0.931 . S
H393 C380 0.929 . S
H394 C388 0.929 . S
H395 C389 0.930 . S
Mn396 O401 2.095 . S
Mn396 O411 2.162 . S
Mn396 O412 2.297 . S
Mn396 O420 2.385 . S
Mn396 O421 2.209 . S
Mn396 O422 2.094 . S
Mn397 O402 2.121 . S
Mn397 N404 2.257 . S
Mn397 N413 2.282 . S
Mn397 O421 2.215 . S
Mn397 O423 2.117 . S
C398 O420 1.234 . S
C398 O421 1.283 . S
C399 O411 1.281 . S
C399 O412 1.236 . S
C400 O422 1.240 . S
C400 O423 1.264 . S
O401 Mn396 2.095 . S
O401 C410 1.250 . S
O402 Mn397 2.121 . S
O402 C410 1.258 . S
C403 N404 1.326 . S
C403 C407 1.460 . S
C403 H409 0.929 . S
N404 Mn397 2.257 . S
N404 C403 1.326 . S
N404 C408 1.362 . S
C405 C406 1.258 . S
C405 C408 1.431 . S
C405 C425 1.449 . S
C406 C405 1.258 . S
C406 C407 1.477 . S
C406 H426 0.931 . S
C407 C403 1.460 . S
C407 C406 1.477 . S
C407 H427 0.930 . S
C408 N404 1.362 . S
C408 C405 1.431 . S
C408 C418 1.476 . S
H409 C403 0.929 . S
C410 O401 1.250 . S
C410 O402 1.258 . S
O411 Mn396 2.162 . S
O411 C399 1.281 . S
O412 Mn396 2.297 . S
O412 C399 1.236 . S
N413 Mn397 2.282 . S
N413 C414 1.328 . S
N413 C418 1.318 . S
C414 N413 1.328 . S
C414 C415 1.457 . S
C414 H419 0.929 . S
C415 C414 1.457 . S
C415 C416 1.291 . S
C415 H428 0.931 . S
C416 C415 1.291 . S
C416 C417 1.373 . S
C416 H429 0.929 . S
C417 C416 1.373 . S
C417 C418 1.396 . S
C417 C424 1.403 . S
C418 C408 1.476 . S
C418 N413 1.318 . S
C418 C417 1.396 . S
H419 C414 0.929 . S
O420 Mn396 2.385 . S
O420 C398 1.234 . S
O421 Mn396 2.209 . S
O421 Mn397 2.215 . S
O421 C398 1.283 . S
O422 Mn396 2.094 . S
O422 C400 1.240 . S
O423 Mn397 2.117 . S
O423 C400 1.264 . S
C424 C417 1.403 . S
C424 C425 1.399 . S
C424 H430 0.929 . S
C425 C405 1.449 . S
C425 C424 1.399 . S
C425 H431 0.930 . S
H426 C406 0.931 . S
H427 C407 0.930 . S
H428 C415 0.931 . S
H429 C416 0.929 . S
H430 C424 0.929 . S
H431 C425 0.930 . S
Mn432 O437 2.095 . S
Mn432 O447 2.162 . S
Mn432 O448 2.297 . S
Mn432 O456 2.385 . S
Mn432 O457 2.209 . S
Mn432 O458 2.094 . S
Mn433 O438 2.121 . S
Mn433 N440 2.257 . S
Mn433 N449 2.282 . S
Mn433 O457 2.215 . S
Mn433 O459 2.117 . S
C434 O456 1.234 . S
C434 O457 1.283 . S
C435 O447 1.281 . S
C435 O448 1.236 . S
C436 O458 1.240 . S
C436 O459 1.264 . S
O437 Mn432 2.095 . S
O437 C446 1.250 . S
O438 Mn433 2.121 . S
O438 C446 1.258 . S
C439 N440 1.326 . S
C439 C443 1.460 . S
C439 H445 0.929 . S
N440 Mn433 2.257 . S
N440 C439 1.326 . S
N440 C444 1.362 . S
C441 C442 1.258 . S
C441 C444 1.431 . S
C441 C461 1.449 . S
C442 C441 1.258 . S
C442 C443 1.477 . S
C442 H462 0.931 . S
C443 C439 1.460 . S
C443 C442 1.477 . S
C443 H463 0.930 . S
C444 N440 1.362 . S
C444 C441 1.431 . S
C444 C454 1.476 . S
H445 C439 0.929 . S
C446 O437 1.250 . S
C446 O438 1.258 . S
O447 Mn432 2.162 . S
O447 C435 1.281 . S
O448 Mn432 2.297 . S
O448 C435 1.236 . S
N449 Mn433 2.282 . S
N449 C450 1.328 . S
N449 C454 1.318 . S
C450 N449 1.328 . S
C450 C451 1.457 . S
C450 H455 0.929 . S
C451 C450 1.457 . S
C451 C452 1.291 . S
C451 H464 0.931 . S
C452 C451 1.291 . S
C452 C453 1.373 . S
C452 H465 0.929 . S
C453 C452 1.373 . S
C453 C454 1.396 . S
C453 C460 1.403 . S
C454 C444 1.476 . S
C454 N449 1.318 . S
C454 C453 1.396 . S
H455 C450 0.929 . S
O456 Mn432 2.385 . S
O456 C434 1.234 . S
O457 Mn432 2.209 . S
O457 Mn433 2.215 . S
O457 C434 1.283 . S
O458 Mn432 2.094 . S
O458 C436 1.240 . S
O459 Mn433 2.117 . S
O459 C436 1.264 . S
C460 C453 1.403 . S
C460 C461 1.399 . S
C460 H466 0.929 . S
C461 C441 1.449 . S
C461 C460 1.399 . S
C461 H467 0.930 . S
H462 C442 0.931 . S
H463 C443 0.930 . S
H464 C451 0.931 . S
H465 C452 0.929 . S
H466 C460 0.929 . S
H467 C461 0.930 . S
Mn468 O473 2.095 . S
Mn468 O483 2.162 . S
Mn468 O484 2.297 . S
Mn468 O492 2.385 . S
Mn468 O493 2.209 . S
Mn468 O494 2.094 . S
Mn469 O474 2.121 . S
Mn469 N476 2.257 . S
Mn469 N485 2.282 . S
Mn469 O493 2.215 . S
Mn469 O495 2.117 . S
C470 O492 1.234 . S
C470 O493 1.283 . S
C471 O483 1.281 . S
C471 O484 1.236 . S
C472 O494 1.240 . S
C472 O495 1.264 . S
O473 Mn468 2.095 . S
O473 C482 1.250 . S
O474 Mn469 2.121 . S
O474 C482 1.258 . S
C475 N476 1.326 . S
C475 C479 1.460 . S
C475 H481 0.929 . S
N476 Mn469 2.257 . S
N476 C475 1.326 . S
N476 C480 1.362 . S
C477 C478 1.258 . S
C477 C480 1.431 . S
C477 C497 1.449 . S
C478 C477 1.258 . S
C478 C479 1.477 . S
C478 H498 0.931 . S
C479 C475 1.460 . S
C479 C478 1.477 . S
C479 H499 0.930 . S
C480 N476 1.362 . S
C480 C477 1.431 . S
C480 C490 1.476 . S
H481 C475 0.929 . S
C482 O473 1.250 . S
C482 O474 1.258 . S
O483 Mn468 2.162 . S
O483 C471 1.281 . S
O484 Mn468 2.297 . S
O484 C471 1.236 . S
N485 Mn469 2.282 . S
N485 C486 1.328 . S
N485 C490 1.318 . S
C486 N485 1.328 . S
C486 C487 1.457 . S
C486 H491 0.929 . S
C487 C486 1.457 . S
C487 C488 1.291 . S
C487 H500 0.931 . S
C488 C487 1.291 . S
C488 C489 1.373 . S
C488 H501 0.929 . S
C489 C488 1.373 . S
C489 C490 1.396 . S
C489 C496 1.403 . S
C490 C480 1.476 . S
C490 N485 1.318 . S
C490 C489 1.396 . S
H491 C486 0.929 . S
O492 Mn468 2.385 . S
O492 C470 1.234 . S
O493 Mn468 2.209 . S
O493 Mn469 2.215 . S
O493 C470 1.283 . S
O494 Mn468 2.094 . S
O494 C472 1.240 . S
O495 Mn469 2.117 . S
O495 C472 1.264 . S
C496 C489 1.403 . S
C496 C497 1.399 . S
C496 H502 0.929 . S
C497 C477 1.449 . S
C497 C496 1.399 . S
C497 H503 0.930 . S
H498 C478 0.931 . S
H499 C479 0.930 . S
H500 C487 0.931 . S
H501 C488 0.929 . S
H502 C496 0.929 . S
H503 C497 0.930 . S
Mn504 O509 2.095 . S
Mn504 O519 2.162 . S
Mn504 O520 2.297 . S
Mn504 O528 2.385 . S
Mn504 O529 2.209 . S
Mn504 O530 2.094 . S
Mn505 O510 2.121 . S
Mn505 N512 2.257 . S
Mn505 N521 2.282 . S
Mn505 O529 2.215 . S
Mn505 O531 2.117 . S
C506 O528 1.234 . S
C506 O529 1.283 . S
C507 O519 1.281 . S
C507 O520 1.236 . S
C508 O530 1.240 . S
C508 O531 1.264 . S
O509 Mn504 2.095 . S
O509 C518 1.250 . S
O510 Mn505 2.121 . S
O510 C518 1.258 . S
C511 N512 1.326 . S
C511 C515 1.460 . S
C511 H517 0.929 . S
N512 Mn505 2.257 . S
N512 C511 1.326 . S
N512 C516 1.362 . S
C513 C514 1.258 . S
C513 C516 1.431 . S
C513 C533 1.449 . S
C514 C513 1.258 . S
C514 C515 1.477 . S
C514 H534 0.931 . S
C515 C511 1.460 . S
C515 C514 1.477 . S
C515 H535 0.930 . S
C516 N512 1.362 . S
C516 C513 1.431 . S
C516 C526 1.476 . S
H517 C511 0.929 . S
C518 O509 1.250 . S
C518 O510 1.258 . S
O519 Mn504 2.162 . S
O519 C507 1.281 . S
O520 Mn504 2.297 . S
O520 C507 1.236 . S
N521 Mn505 2.282 . S
N521 C522 1.328 . S
N521 C526 1.318 . S
C522 N521 1.328 . S
C522 C523 1.457 . S
C522 H527 0.929 . S
C523 C522 1.457 . S
C523 C524 1.291 . S
C523 H536 0.931 . S
C524 C523 1.291 . S
C524 C525 1.373 . S
C524 H537 0.929 . S
C525 C524 1.373 . S
C525 C526 1.396 . S
C525 C532 1.403 . S
C526 C516 1.476 . S
C526 N521 1.318 . S
C526 C525 1.396 . S
H527 C522 0.929 . S
O528 Mn504 2.385 . S
O528 C506 1.234 . S
O529 Mn504 2.209 . S
O529 Mn505 2.215 . S
O529 C506 1.283 . S
O530 Mn504 2.094 . S
O530 C508 1.240 . S
O531 Mn505 2.117 . S
O531 C508 1.264 . S
C532 C525 1.403 . S
C532 C533 1.399 . S
C532 H538 0.929 . S
C533 C513 1.449 . S
C533 C532 1.399 . S
C533 H539 0.930 . S
H534 C514 0.931 . S
H535 C515 0.930 . S
H536 C523 0.931 . S
H537 C524 0.929 . S
H538 C532 0.929 . S
H539 C533 0.930 . S
Mn540 O545 2.095 . S
Mn540 O555 2.162 . S
Mn540 O556 2.297 . S
Mn540 O564 2.385 . S
Mn540 O565 2.209 . S
Mn540 O566 2.094 . S
Mn541 O546 2.119 . S
Mn541 N548 2.257 . S
Mn541 N557 2.282 . S
Mn541 O565 2.215 . S
Mn541 O567 2.117 . S
C542 O564 1.234 . S
C542 O565 1.283 . S
C543 O555 1.281 . S
C543 O556 1.236 . S
C544 O566 1.240 . S
C544 O567 1.264 . S
O545 Mn540 2.095 . S
O545 C554 1.250 1_554 S
O546 Mn541 2.119 . S
O546 C554 1.258 1_554 S
C547 N548 1.326 1_556 S
C547 C551 1.460 . S
C547 H553 0.929 . S
N548 Mn541 2.257 . S
N548 C547 1.326 1_554 S
N548 C552 1.362 . S
C549 C550 1.258 1_554 S
C549 C552 1.431 . S
C549 C569 1.449 . S
C550 C549 1.258 1_556 S
C550 C551 1.477 . S
C550 H570 0.931 . S
C551 C547 1.460 . S
C551 C550 1.477 . S
C551 H571 0.930 . S
C552 N548 1.362 . S
C552 C549 1.431 . S
C552 C562 1.476 . S
H553 C547 0.929 . S
C554 O545 1.250 1_556 S
C554 O546 1.258 1_556 S
O555 Mn540 2.162 . S
O555 C543 1.281 . S
O556 Mn540 2.297 . S
O556 C543 1.236 . S
N557 Mn541 2.282 . S
N557 C558 1.328 . S
N557 C562 1.318 . S
C558 N557 1.328 . S
C558 C559 1.457 . S
C558 H563 0.929 . S
C559 C558 1.457 . S
C559 C560 1.291 . S
C559 H572 0.931 . S
C560 C559 1.291 . S
C560 C561 1.373 . S
C560 H573 0.929 . S
C561 C560 1.373 . S
C561 C562 1.396 . S
C561 C568 1.403 . S
C562 C552 1.476 . S
C562 N557 1.318 . S
C562 C561 1.396 . S
H563 C558 0.929 . S
O564 Mn540 2.385 . S
O564 C542 1.234 . S
O565 Mn540 2.209 . S
O565 Mn541 2.215 . S
O565 C542 1.283 . S
O566 Mn540 2.094 . S
O566 C544 1.240 . S
O567 Mn541 2.117 . S
O567 C544 1.264 . S
C568 C561 1.403 . S
C568 C569 1.399 . S
C568 H574 0.929 . S
C569 C549 1.449 . S
C569 C568 1.399 . S
C569 H575 0.930 . S
H570 C550 0.931 . S
H571 C551 0.930 . S
H572 C559 0.931 . S
H573 C560 0.929 . S
H574 C568 0.929 . S
H575 C569 0.930 . S
Mn576 O581 2.095 . S
Mn576 O591 2.162 . S
Mn576 O592 2.297 . S
Mn576 O600 2.385 . S
Mn576 O601 2.209 . S
Mn576 O602 2.094 . S
Mn577 O582 2.123 1_554 S
Mn577 N584 2.257 . S
Mn577 N593 2.282 . S
Mn577 O601 2.215 . S
Mn577 O603 2.117 . S
C578 O600 1.234 . S
C578 O601 1.283 . S
C579 O591 1.281 . S
C579 O592 1.236 . S
C580 O602 1.240 . S
C580 O603 1.264 . S
O581 Mn576 2.095 . S
O581 C590 1.250 1_554 S
O582 Mn577 2.123 1_556 S
O582 C590 1.258 . S
C583 N584 1.326 1_556 S
C583 C587 1.460 . S
C583 H589 0.929 . S
N584 Mn577 2.257 . S
N584 C583 1.326 1_554 S
N584 C588 1.362 . S
C585 C586 1.258 1_554 S
C585 C588 1.431 . S
C585 C605 1.449 . S
C586 C585 1.258 1_556 S
C586 C587 1.477 . S
C586 H606 0.931 . S
C587 C583 1.460 . S
C587 C586 1.477 . S
C587 H607 0.930 . S
C588 N584 1.362 . S
C588 C585 1.431 . S
C588 C598 1.476 . S
H589 C583 0.929 . S
C590 O581 1.250 1_556 S
C590 O582 1.258 . S
O591 Mn576 2.162 . S
O591 C579 1.281 . S
O592 Mn576 2.297 . S
O592 C579 1.236 . S
N593 Mn577 2.282 . S
N593 C594 1.328 . S
N593 C598 1.318 . S
C594 N593 1.328 . S
C594 C595 1.457 . S
C594 H599 0.929 . S
C595 C594 1.457 . S
C595 C596 1.291 . S
C595 H608 0.931 . S
C596 C595 1.291 . S
C596 C597 1.373 . S
C596 H609 0.929 . S
C597 C596 1.373 . S
C597 C598 1.396 . S
C597 C604 1.403 . S
C598 C588 1.476 . S
C598 N593 1.318 . S
C598 C597 1.396 . S
H599 C594 0.929 . S
O600 Mn576 2.385 . S
O600 C578 1.234 . S
O601 Mn576 2.209 . S
O601 Mn577 2.215 . S
O601 C578 1.283 . S
O602 Mn576 2.094 . S
O602 C580 1.240 . S
O603 Mn577 2.117 . S
O603 C580 1.264 . S
C604 C597 1.403 . S
C604 C605 1.399 . S
C604 H610 0.929 . S
C605 C585 1.449 . S
C605 C604 1.399 . S
C605 H611 0.930 . S
H606 C586 0.931 . S
H607 C587 0.930 . S
H608 C595 0.931 . S
H609 C596 0.929 . S
H610 C604 0.929 . S
H611 C605 0.930 . S
Mn612 O617 2.095 . S
Mn612 O627 2.162 . S
Mn612 O628 2.297 . S
Mn612 O636 2.385 . S
Mn612 O637 2.209 . S
Mn612 O638 2.094 . S
Mn613 O618 2.122 1_554 S
Mn613 N620 2.257 . S
Mn613 N629 2.282 . S
Mn613 O637 2.215 . S
Mn613 O639 2.117 . S
C614 O636 1.234 . S
C614 O637 1.283 . S
C615 O627 1.281 . S
C615 O628 1.236 . S
C616 O638 1.240 . S
C616 O639 1.264 . S
O617 Mn612 2.095 . S
O617 C626 1.250 1_554 S
O618 Mn613 2.122 1_556 S
O618 C626 1.258 . S
C619 N620 1.326 1_556 S
C619 C623 1.460 . S
C619 H625 0.929 . S
N620 Mn613 2.257 . S
N620 C619 1.326 1_554 S
N620 C624 1.362 . S
C621 C622 1.258 1_554 S
C621 C624 1.431 . S
C621 C641 1.449 . S
C622 C621 1.258 1_556 S
C622 C623 1.477 . S
C622 H642 0.931 . S
C623 C619 1.460 . S
C623 C622 1.477 . S
C623 H643 0.930 . S
C624 N620 1.362 . S
C624 C621 1.431 . S
C624 C634 1.476 . S
H625 C619 0.929 . S
C626 O617 1.250 1_556 S
C626 O618 1.258 . S
O627 Mn612 2.162 . S
O627 C615 1.281 . S
O628 Mn612 2.297 . S
O628 C615 1.236 . S
N629 Mn613 2.282 . S
N629 C630 1.328 . S
N629 C634 1.318 . S
C630 N629 1.328 . S
C630 C631 1.457 . S
C630 H635 0.929 . S
C631 C630 1.457 . S
C631 C632 1.291 . S
C631 H644 0.931 . S
C632 C631 1.291 . S
C632 C633 1.373 . S
C632 H645 0.929 . S
C633 C632 1.373 . S
C633 C634 1.396 . S
C633 C640 1.403 . S
C634 C624 1.476 . S
C634 N629 1.318 . S
C634 C633 1.396 . S
H635 C630 0.929 . S
O636 Mn612 2.385 . S
O636 C614 1.234 . S
O637 Mn612 2.209 . S
O637 Mn613 2.215 . S
O637 C614 1.283 . S
O638 Mn612 2.094 . S
O638 C616 1.240 . S
O639 Mn613 2.117 . S
O639 C616 1.264 . S
C640 C633 1.403 . S
C640 C641 1.399 . S
C640 H646 0.929 . S
C641 C621 1.449 . S
C641 C640 1.399 . S
C641 H647 0.930 . S
H642 C622 0.931 . S
H643 C623 0.930 . S
H644 C631 0.931 . S
H645 C632 0.929 . S
H646 C640 0.929 . S
H647 C641 0.930 . S
Mn648 O653 2.095 . S
Mn648 O663 2.162 . S
Mn648 O664 2.297 . S
Mn648 O672 2.385 . S
Mn648 O673 2.209 . S
Mn648 O674 2.094 . S
Mn649 O654 2.119 . S
Mn649 N656 2.257 . S
Mn649 N665 2.282 . S
Mn649 O673 2.215 . S
Mn649 O675 2.117 . S
C650 O672 1.234 . S
C650 O673 1.283 . S
C651 O663 1.281 . S
C651 O664 1.236 . S
C652 O674 1.240 . S
C652 O675 1.264 . S
O653 Mn648 2.095 . S
O653 C662 1.250 1_554 S
O654 Mn649 2.119 . S
O654 C662 1.258 1_554 S
C655 N656 1.326 1_556 S
C655 C659 1.460 . S
C655 H661 0.929 . S
N656 Mn649 2.257 . S
N656 C655 1.326 1_554 S
N656 C660 1.362 . S
C657 C658 1.258 1_554 S
C657 C660 1.431 . S
C657 C677 1.449 . S
C658 C657 1.258 1_556 S
C658 C659 1.477 . S
C658 H678 0.931 . S
C659 C655 1.460 . S
C659 C658 1.477 . S
C659 H679 0.930 . S
C660 N656 1.362 . S
C660 C657 1.431 . S
C660 C670 1.476 . S
H661 C655 0.929 . S
C662 O653 1.250 1_556 S
C662 O654 1.258 1_556 S
O663 Mn648 2.162 . S
O663 C651 1.281 . S
O664 Mn648 2.297 . S
O664 C651 1.236 . S
N665 Mn649 2.282 . S
N665 C666 1.328 . S
N665 C670 1.318 . S
C666 N665 1.328 . S
C666 C667 1.457 . S
C666 H671 0.929 . S
C667 C666 1.457 . S
C667 C668 1.291 . S
C667 H680 0.931 . S
C668 C667 1.291 . S
C668 C669 1.373 . S
C668 H681 0.929 . S
C669 C668 1.373 . S
C669 C670 1.396 . S
C669 C676 1.403 . S
C670 C660 1.476 . S
C670 N665 1.318 . S
C670 C669 1.396 . S
H671 C666 0.929 . S
O672 Mn648 2.385 . S
O672 C650 1.234 . S
O673 Mn648 2.209 . S
O673 Mn649 2.215 . S
O673 C650 1.283 . S
O674 Mn648 2.094 . S
O674 C652 1.240 . S
O675 Mn649 2.117 . S
O675 C652 1.264 . S
C676 C669 1.403 . S
C676 C677 1.399 . S
C676 H682 0.929 . S
C677 C657 1.449 . S
C677 C676 1.399 . S
C677 H683 0.930 . S
H678 C658 0.931 . S
H679 C659 0.930 . S
H680 C667 0.931 . S
H681 C668 0.929 . S
H682 C676 0.929 . S
H683 C677 0.930 . S
Mn684 O689 2.095 . S
Mn684 O699 2.162 . S
Mn684 O700 2.297 . S
Mn684 O708 2.385 . S
Mn684 O709 2.209 . S
Mn684 O710 2.094 . S
Mn685 O690 2.122 1_554 S
Mn685 N692 2.257 . S
Mn685 N701 2.282 . S
Mn685 O709 2.215 . S
Mn685 O711 2.117 . S
C686 O708 1.234 . S
C686 O709 1.283 . S
C687 O699 1.281 . S
C687 O700 1.236 . S
C688 O710 1.240 . S
C688 O711 1.264 . S
O689 Mn684 2.095 . S
O689 C698 1.250 1_554 S
O690 Mn685 2.122 1_556 S
O690 C698 1.258 . S
C691 N692 1.326 1_556 S
C691 C695 1.460 . S
C691 H697 0.929 . S
N692 Mn685 2.257 . S
N692 C691 1.326 1_554 S
N692 C696 1.362 . S
C693 C694 1.258 1_554 S
C693 C696 1.431 . S
C693 C713 1.449 . S
C694 C693 1.258 1_556 S
C694 C695 1.477 . S
C694 H714 0.931 . S
C695 C691 1.460 . S
C695 C694 1.477 . S
C695 H715 0.930 . S
C696 N692 1.362 . S
C696 C693 1.431 . S
C696 C706 1.476 . S
H697 C691 0.929 . S
C698 O689 1.250 1_556 S
C698 O690 1.258 . S
O699 Mn684 2.162 . S
O699 C687 1.281 . S
O700 Mn684 2.297 . S
O700 C687 1.236 . S
N701 Mn685 2.282 . S
N701 C702 1.328 . S
N701 C706 1.318 . S
C702 N701 1.328 . S
C702 C703 1.457 . S
C702 H707 0.929 . S
C703 C702 1.457 . S
C703 C704 1.291 . S
C703 H716 0.931 . S
C704 C703 1.291 . S
C704 C705 1.373 . S
C704 H717 0.929 . S
C705 C704 1.373 . S
C705 C706 1.396 . S
C705 C712 1.403 . S
C706 C696 1.476 . S
C706 N701 1.318 . S
C706 C705 1.396 . S
H707 C702 0.929 . S
O708 Mn684 2.385 . S
O708 C686 1.234 . S
O709 Mn684 2.209 . S
O709 Mn685 2.215 . S
O709 C686 1.283 . S
O710 Mn684 2.094 . S
O710 C688 1.240 . S
O711 Mn685 2.117 . S
O711 C688 1.264 . S
C712 C705 1.403 . S
C712 C713 1.399 . S
C712 H718 0.929 . S
C713 C693 1.449 . S
C713 C712 1.399 . S
C713 H719 0.930 . S
H714 C694 0.931 . S
H715 C695 0.930 . S
H716 C703 0.931 . S
H717 C704 0.929 . S
H718 C712 0.929 . S
H719 C713 0.930 . S
Mn720 O725 2.095 . S
Mn720 O735 2.162 . S
Mn720 O736 2.297 . S
Mn720 O744 2.385 . S
Mn720 O745 2.209 . S
Mn720 O746 2.094 . S
Mn721 O726 2.123 1_554 S
Mn721 N728 2.257 . S
Mn721 N737 2.282 . S
Mn721 O745 2.215 . S
Mn721 O747 2.117 . S
C722 O744 1.234 . S
C722 O745 1.283 . S
C723 O735 1.281 . S
C723 O736 1.236 . S
C724 O746 1.240 . S
C724 O747 1.264 . S
O725 Mn720 2.095 . S
O725 C734 1.250 1_554 S
O726 Mn721 2.123 1_556 S
O726 C734 1.258 . S
C727 N728 1.326 1_556 S
C727 C731 1.460 . S
C727 H733 0.929 . S
N728 Mn721 2.257 . S
N728 C727 1.326 1_554 S
N728 C732 1.362 . S
C729 C730 1.258 1_554 S
C729 C732 1.431 . S
C729 C749 1.449 . S
C730 C729 1.258 1_556 S
C730 C731 1.477 . S
C730 H750 0.931 . S
C731 C727 1.460 . S
C731 C730 1.477 . S
C731 H751 0.930 . S
C732 N728 1.362 . S
C732 C729 1.431 . S
C732 C742 1.476 . S
H733 C727 0.929 . S
C734 O725 1.250 1_556 S
C734 O726 1.258 . S
O735 Mn720 2.162 . S
O735 C723 1.281 . S
O736 Mn720 2.297 . S
O736 C723 1.236 . S
N737 Mn721 2.282 . S
N737 C738 1.328 . S
N737 C742 1.318 . S
C738 N737 1.328 . S
C738 C739 1.457 . S
C738 H743 0.929 . S
C739 C738 1.457 . S
C739 C740 1.291 . S
C739 H752 0.931 . S
C740 C739 1.291 . S
C740 C741 1.373 . S
C740 H753 0.929 . S
C741 C740 1.373 . S
C741 C742 1.396 . S
C741 C748 1.403 . S
C742 C732 1.476 . S
C742 N737 1.318 . S
C742 C741 1.396 . S
H743 C738 0.929 . S
O744 Mn720 2.385 . S
O744 C722 1.234 . S
O745 Mn720 2.209 . S
O745 Mn721 2.215 . S
O745 C722 1.283 . S
O746 Mn720 2.094 . S
O746 C724 1.240 . S
O747 Mn721 2.117 . S
O747 C724 1.264 . S
C748 C741 1.403 . S
C748 C749 1.399 . S
C748 H754 0.929 . S
C749 C729 1.449 . S
C749 C748 1.399 . S
C749 H755 0.930 . S
H750 C730 0.931 . S
H751 C731 0.930 . S
H752 C739 0.931 . S
H753 C740 0.929 . S
H754 C748 0.929 . S
H755 C749 0.930 . S
Mn756 O761 2.095 . S
Mn756 O771 2.162 . S
Mn756 O772 2.297 . S
Mn756 O780 2.385 . S
Mn756 O781 2.209 . S
Mn756 O782 2.094 . S
Mn757 O762 2.121 . S
Mn757 N764 2.257 . S
Mn757 N773 2.282 . S
Mn757 O781 2.215 . S
Mn757 O783 2.117 . S
C758 O780 1.234 . S
C758 O781 1.283 . S
C759 O771 1.281 . S
C759 O772 1.236 . S
C760 O782 1.240 . S
C760 O783 1.264 . S
O761 Mn756 2.095 . S
O761 C770 1.250 . S
O762 Mn757 2.121 . S
O762 C770 1.258 . S
C763 N764 1.326 . S
C763 C767 1.460 . S
C763 H769 0.929 . S
N764 Mn757 2.257 . S
N764 C763 1.326 . S
N764 C768 1.362 . S
C765 C766 1.258 . S
C765 C768 1.431 . S
C765 C785 1.449 . S
C766 C765 1.258 . S
C766 C767 1.477 . S
C766 H786 0.931 . S
C767 C763 1.460 . S
C767 C766 1.477 . S
C767 H787 0.930 . S
C768 N764 1.362 . S
C768 C765 1.431 . S
C768 C778 1.476 . S
H769 C763 0.929 . S
C770 O761 1.250 . S
C770 O762 1.258 . S
O771 Mn756 2.162 . S
O771 C759 1.281 . S
O772 Mn756 2.297 . S
O772 C759 1.236 . S
N773 Mn757 2.282 . S
N773 C774 1.328 . S
N773 C778 1.318 . S
C774 N773 1.328 . S
C774 C775 1.457 . S
C774 H779 0.929 . S
C775 C774 1.457 . S
C775 C776 1.291 . S
C775 H788 0.931 . S
C776 C775 1.291 . S
C776 C777 1.373 . S
C776 H789 0.929 . S
C777 C776 1.373 . S
C777 C778 1.396 . S
C777 C784 1.403 . S
C778 C768 1.476 . S
C778 N773 1.318 . S
C778 C777 1.396 . S
H779 C774 0.929 . S
O780 Mn756 2.385 . S
O780 C758 1.234 . S
O781 Mn756 2.209 . S
O781 Mn757 2.215 . S
O781 C758 1.283 . S
O782 Mn756 2.094 . S
O782 C760 1.240 . S
O783 Mn757 2.117 . S
O783 C760 1.264 . S
C784 C777 1.403 . S
C784 C785 1.399 . S
C784 H790 0.929 . S
C785 C765 1.449 . S
C785 C784 1.399 . S
C785 H791 0.930 . S
H786 C766 0.931 . S
H787 C767 0.930 . S
H788 C775 0.931 . S
H789 C776 0.929 . S
H790 C784 0.929 . S
H791 C785 0.930 . S
Mn792 O797 2.095 . S
Mn792 O807 2.162 . S
Mn792 O808 2.297 . S
Mn792 O816 2.385 . S
Mn792 O817 2.209 . S
Mn792 O818 2.094 . S
Mn793 O798 2.121 . S
Mn793 N800 2.257 . S
Mn793 N809 2.282 . S
Mn793 O817 2.215 . S
Mn793 O819 2.117 . S
C794 O816 1.234 . S
C794 O817 1.283 . S
C795 O807 1.281 . S
C795 O808 1.236 . S
C796 O818 1.240 . S
C796 O819 1.264 . S
O797 Mn792 2.095 . S
O797 C806 1.250 . S
O798 Mn793 2.121 . S
O798 C806 1.258 . S
C799 N800 1.326 . S
C799 C803 1.460 . S
C799 H805 0.929 . S
N800 Mn793 2.257 . S
N800 C799 1.326 . S
N800 C804 1.362 . S
C801 C802 1.258 . S
C801 C804 1.431 . S
C801 C821 1.449 . S
C802 C801 1.258 . S
C802 C803 1.477 . S
C802 H822 0.931 . S
C803 C799 1.460 . S
C803 C802 1.477 . S
C803 H823 0.930 . S
C804 N800 1.362 . S
C804 C801 1.431 . S
C804 C814 1.476 . S
H805 C799 0.929 . S
C806 O797 1.250 . S
C806 O798 1.258 . S
O807 Mn792 2.162 . S
O807 C795 1.281 . S
O808 Mn792 2.297 . S
O808 C795 1.236 . S
N809 Mn793 2.282 . S
N809 C810 1.328 . S
N809 C814 1.318 . S
C810 N809 1.328 . S
C810 C811 1.457 . S
C810 H815 0.929 . S
C811 C810 1.457 . S
C811 C812 1.291 . S
C811 H824 0.931 . S
C812 C811 1.291 . S
C812 C813 1.373 . S
C812 H825 0.929 . S
C813 C812 1.373 . S
C813 C814 1.396 . S
C813 C820 1.403 . S
C814 C804 1.476 . S
C814 N809 1.318 . S
C814 C813 1.396 . S
H815 C810 0.929 . S
O816 Mn792 2.385 . S
O816 C794 1.234 . S
O817 Mn792 2.209 . S
O817 Mn793 2.215 . S
O817 C794 1.283 . S
O818 Mn792 2.094 . S
O818 C796 1.240 . S
O819 Mn793 2.117 . S
O819 C796 1.264 . S
C820 C813 1.403 . S
C820 C821 1.399 . S
C820 H826 0.929 . S
C821 C801 1.449 . S
C821 C820 1.399 . S
C821 H827 0.930 . S
H822 C802 0.931 . S
H823 C803 0.930 . S
H824 C811 0.931 . S
H825 C812 0.929 . S
H826 C820 0.929 . S
H827 C821 0.930 . S
Mn828 O833 2.095 . S
Mn828 O843 2.162 . S
Mn828 O844 2.297 . S
Mn828 O852 2.385 . S
Mn828 O853 2.209 . S
Mn828 O854 2.094 . S
Mn829 O834 2.121 . S
Mn829 N836 2.257 . S
Mn829 N845 2.282 . S
Mn829 O853 2.215 . S
Mn829 O855 2.117 . S
C830 O852 1.234 . S
C830 O853 1.283 . S
C831 O843 1.281 . S
C831 O844 1.236 . S
C832 O854 1.240 . S
C832 O855 1.264 . S
O833 Mn828 2.095 . S
O833 C842 1.250 . S
O834 Mn829 2.121 . S
O834 C842 1.258 . S
C835 N836 1.326 . S
C835 C839 1.460 . S
C835 H841 0.929 . S
N836 Mn829 2.257 . S
N836 C835 1.326 . S
N836 C840 1.362 . S
C837 C838 1.258 . S
C837 C840 1.431 . S
C837 C857 1.449 . S
C838 C837 1.258 . S
C838 C839 1.477 . S
C838 H858 0.931 . S
C839 C835 1.460 . S
C839 C838 1.477 . S
C839 H859 0.930 . S
C840 N836 1.362 . S
C840 C837 1.431 . S
C840 C850 1.476 . S
H841 C835 0.929 . S
C842 O833 1.250 . S
C842 O834 1.258 . S
O843 Mn828 2.162 . S
O843 C831 1.281 . S
O844 Mn828 2.297 . S
O844 C831 1.236 . S
N845 Mn829 2.282 . S
N845 C846 1.328 . S
N845 C850 1.318 . S
C846 N845 1.328 . S
C846 C847 1.457 . S
C846 H851 0.929 . S
C847 C846 1.457 . S
C847 C848 1.291 . S
C847 H860 0.931 . S
C848 C847 1.291 . S
C848 C849 1.373 . S
C848 H861 0.929 . S
C849 C848 1.373 . S
C849 C850 1.396 . S
C849 C856 1.403 . S
C850 C840 1.476 . S
C850 N845 1.318 . S
C850 C849 1.396 . S
H851 C846 0.929 . S
O852 Mn828 2.385 . S
O852 C830 1.234 . S
O853 Mn828 2.209 . S
O853 Mn829 2.215 . S
O853 C830 1.283 . S
O854 Mn828 2.094 . S
O854 C832 1.240 . S
O855 Mn829 2.117 . S
O855 C832 1.264 . S
C856 C849 1.403 . S
C856 C857 1.399 . S
C856 H862 0.929 . S
C857 C837 1.449 . S
C857 C856 1.399 . S
C857 H863 0.930 . S
H858 C838 0.931 . S
H859 C839 0.930 . S
H860 C847 0.931 . S
H861 C848 0.929 . S
H862 C856 0.929 . S
H863 C857 0.930 . S
Mn864 O869 2.095 . S
Mn864 O879 2.162 . S
Mn864 O880 2.297 . S
Mn864 O888 2.385 . S
Mn864 O889 2.209 . S
Mn864 O890 2.094 . S
Mn865 O870 2.119 . S
Mn865 N872 2.257 . S
Mn865 N881 2.282 . S
Mn865 O889 2.215 . S
Mn865 O891 2.117 . S
C866 O888 1.234 . S
C866 O889 1.283 . S
C867 O879 1.281 . S
C867 O880 1.236 . S
C868 O890 1.240 . S
C868 O891 1.264 . S
O869 Mn864 2.095 . S
O869 C878 1.250 1_556 S
O870 Mn865 2.119 . S
O870 C878 1.258 1_556 S
C871 N872 1.326 1_554 S
C871 C875 1.460 . S
C871 H877 0.929 . S
N872 Mn865 2.257 . S
N872 C871 1.326 1_556 S
N872 C876 1.362 . S
C873 C874 1.258 1_556 S
C873 C876 1.431 . S
C873 C893 1.449 . S
C874 C873 1.258 1_554 S
C874 C875 1.477 . S
C874 H894 0.931 . S
C875 C871 1.460 . S
C875 C874 1.477 . S
C875 H895 0.930 . S
C876 N872 1.362 . S
C876 C873 1.431 . S
C876 C886 1.476 . S
H877 C871 0.929 . S
C878 O869 1.250 1_554 S
C878 O870 1.258 1_554 S
O879 Mn864 2.162 . S
O879 C867 1.281 . S
O880 Mn864 2.297 . S
O880 C867 1.236 . S
N881 Mn865 2.282 . S
N881 C882 1.328 . S
N881 C886 1.318 . S
C882 N881 1.328 . S
C882 C883 1.457 . S
C882 H887 0.929 . S
C883 C882 1.457 . S
C883 C884 1.291 . S
C883 H896 0.931 . S
C884 C883 1.291 . S
C884 C885 1.373 . S
C884 H897 0.929 . S
C885 C884 1.373 . S
C885 C886 1.396 . S
C885 C892 1.403 . S
C886 C876 1.476 . S
C886 N881 1.318 . S
C886 C885 1.396 . S
H887 C882 0.929 . S
O888 Mn864 2.385 . S
O888 C866 1.234 . S
O889 Mn864 2.209 . S
O889 Mn865 2.215 . S
O889 C866 1.283 . S
O890 Mn864 2.094 . S
O890 C868 1.240 . S
O891 Mn865 2.117 . S
O891 C868 1.264 . S
C892 C885 1.403 . S
C892 C893 1.399 . S
C892 H898 0.929 . S
C893 C873 1.449 . S
C893 C892 1.399 . S
C893 H899 0.930 . S
H894 C874 0.931 . S
H895 C875 0.930 . S
H896 C883 0.931 . S
H897 C884 0.929 . S
H898 C892 0.929 . S
H899 C893 0.930 . S
Mn900 O905 2.095 . S
Mn900 O915 2.162 . S
Mn900 O916 2.297 . S
Mn900 O924 2.385 . S
Mn900 O925 2.209 . S
Mn900 O926 2.094 . S
Mn901 O906 2.122 1_556 S
Mn901 N908 2.257 . S
Mn901 N917 2.282 . S
Mn901 O925 2.215 . S
Mn901 O927 2.117 . S
C902 O924 1.234 . S
C902 O925 1.283 . S
C903 O915 1.281 . S
C903 O916 1.236 . S
C904 O926 1.240 . S
C904 O927 1.264 . S
O905 Mn900 2.095 . S
O905 C914 1.250 1_556 S
O906 Mn901 2.122 1_554 S
O906 C914 1.258 . S
C907 N908 1.326 1_554 S
C907 C911 1.460 . S
C907 H913 0.929 . S
N908 Mn901 2.257 . S
N908 C907 1.326 1_556 S
N908 C912 1.362 . S
C909 C910 1.258 1_556 S
C909 C912 1.431 . S
C909 C929 1.449 . S
C910 C909 1.258 1_554 S
C910 C911 1.477 . S
C910 H930 0.931 . S
C911 C907 1.460 . S
C911 C910 1.477 . S
C911 H931 0.930 . S
C912 N908 1.362 . S
C912 C909 1.431 . S
C912 C922 1.476 . S
H913 C907 0.929 . S
C914 O905 1.250 1_554 S
C914 O906 1.258 . S
O915 Mn900 2.162 . S
O915 C903 1.281 . S
O916 Mn900 2.297 . S
O916 C903 1.236 . S
N917 Mn901 2.282 . S
N917 C918 1.328 . S
N917 C922 1.318 . S
C918 N917 1.328 . S
C918 C919 1.457 . S
C918 H923 0.929 . S
C919 C918 1.457 . S
C919 C920 1.291 . S
C919 H932 0.931 . S
C920 C919 1.291 . S
C920 C921 1.373 . S
C920 H933 0.929 . S
C921 C920 1.373 . S
C921 C922 1.396 . S
C921 C928 1.403 . S
C922 C912 1.476 . S
C922 N917 1.318 . S
C922 C921 1.396 . S
H923 C918 0.929 . S
O924 Mn900 2.385 . S
O924 C902 1.234 . S
O925 Mn900 2.209 . S
O925 Mn901 2.215 . S
O925 C902 1.283 . S
O926 Mn900 2.094 . S
O926 C904 1.240 . S
O927 Mn901 2.117 . S
O927 C904 1.264 . S
C928 C921 1.403 . S
C928 C929 1.399 . S
C928 H934 0.929 . S
C929 C909 1.449 . S
C929 C928 1.399 . S
C929 H935 0.930 . S
H930 C910 0.931 . S
H931 C911 0.930 . S
H932 C919 0.931 . S
H933 C920 0.929 . S
H934 C928 0.929 . S
H935 C929 0.930 . S
Mn936 O941 2.095 . S
Mn936 O951 2.162 . S
Mn936 O952 2.297 . S
Mn936 O960 2.385 . S
Mn936 O961 2.209 . S
Mn936 O962 2.094 . S
Mn937 O942 2.123 1_556 S
Mn937 N944 2.257 . S
Mn937 N953 2.282 . S
Mn937 O961 2.215 . S
Mn937 O963 2.117 . S
C938 O960 1.234 . S
C938 O961 1.283 . S
C939 O951 1.281 . S
C939 O952 1.236 . S
C940 O962 1.240 . S
C940 O963 1.264 . S
O941 Mn936 2.095 . S
O941 C950 1.250 1_556 S
O942 Mn937 2.123 1_554 S
O942 C950 1.258 . S
C943 N944 1.326 1_554 S
C943 C947 1.460 . S
C943 H949 0.929 . S
N944 Mn937 2.257 . S
N944 C943 1.326 1_556 S
N944 C948 1.362 . S
C945 C946 1.258 1_556 S
C945 C948 1.431 . S
C945 C965 1.449 . S
C946 C945 1.258 1_554 S
C946 C947 1.477 . S
C946 H966 0.931 . S
C947 C943 1.460 . S
C947 C946 1.477 . S
C947 H967 0.930 . S
C948 N944 1.362 . S
C948 C945 1.431 . S
C948 C958 1.476 . S
H949 C943 0.929 . S
C950 O941 1.250 1_554 S
C950 O942 1.258 . S
O951 Mn936 2.162 . S
O951 C939 1.281 . S
O952 Mn936 2.297 . S
O952 C939 1.236 . S
N953 Mn937 2.282 . S
N953 C954 1.328 . S
N953 C958 1.318 . S
C954 N953 1.328 . S
C954 C955 1.457 . S
C954 H959 0.929 . S
C955 C954 1.457 . S
C955 C956 1.291 . S
C955 H968 0.931 . S
C956 C955 1.291 . S
C956 C957 1.373 . S
C956 H969 0.929 . S
C957 C956 1.373 . S
C957 C958 1.396 . S
C957 C964 1.403 . S
C958 C948 1.476 . S
C958 N953 1.318 . S
C958 C957 1.396 . S
H959 C954 0.929 . S
O960 Mn936 2.385 . S
O960 C938 1.234 . S
O961 Mn936 2.209 . S
O961 Mn937 2.215 . S
O961 C938 1.283 . S
O962 Mn936 2.094 . S
O962 C940 1.240 . S
O963 Mn937 2.117 . S
O963 C940 1.264 . S
C964 C957 1.403 . S
C964 C965 1.399 . S
C964 H970 0.929 . S
C965 C945 1.449 . S
C965 C964 1.399 . S
C965 H971 0.930 . S
H966 C946 0.931 . S
H967 C947 0.930 . S
H968 C955 0.931 . S
H969 C956 0.929 . S
H970 C964 0.929 . S
H971 C965 0.930 . S
Mn972 O977 2.095 . S
Mn972 O987 2.162 . S
Mn972 O988 2.297 . S
Mn972 O996 2.385 . S
Mn972 O997 2.209 . S
Mn972 O998 2.094 . S
Mn973 O978 2.121 . S
Mn973 N980 2.257 . S
Mn973 N989 2.282 . S
Mn973 O997 2.215 . S
Mn973 O999 2.117 . S
C974 O996 1.234 . S
C974 O997 1.283 . S
C975 O987 1.281 . S
C975 O988 1.236 . S
C976 O998 1.240 . S
C976 O999 1.264 . S
O977 Mn972 2.095 . S
O977 C986 1.250 . S
O978 Mn973 2.121 . S
O978 C986 1.258 . S
C979 N980 1.326 . S
C979 C983 1.460 . S
C979 H985 0.929 . S
N980 Mn973 2.257 . S
N980 C979 1.326 . S
N980 C984 1.362 . S
C981 C982 1.258 . S
C981 C984 1.431 . S
C981 C1001 1.449 . S
C982 C981 1.258 . S
C982 C983 1.477 . S
C982 H1002 0.931 . S
C983 C979 1.460 . S
C983 C982 1.477 . S
C983 H1003 0.930 . S
C984 N980 1.362 . S
C984 C981 1.431 . S
C984 C994 1.476 . S
H985 C979 0.929 . S
C986 O977 1.250 . S
C986 O978 1.258 . S
O987 Mn972 2.162 . S
O987 C975 1.281 . S
O988 Mn972 2.297 . S
O988 C975 1.236 . S
N989 Mn973 2.282 . S
N989 C990 1.328 . S
N989 C994 1.318 . S
C990 N989 1.328 . S
C990 C991 1.457 . S
C990 H995 0.929 . S
C991 C990 1.457 . S
C991 C992 1.291 . S
C991 H1004 0.931 . S
C992 C991 1.291 . S
C992 C993 1.373 . S
C992 H1005 0.929 . S
C993 C992 1.373 . S
C993 C994 1.396 . S
C993 C1000 1.403 . S
C994 C984 1.476 . S
C994 N989 1.318 . S
C994 C993 1.396 . S
H995 C990 0.929 . S
O996 Mn972 2.385 . S
O996 C974 1.234 . S
O997 Mn972 2.209 . S
O997 Mn973 2.215 . S
O997 C974 1.283 . S
O998 Mn972 2.094 . S
O998 C976 1.240 . S
O999 Mn973 2.117 . S
O999 C976 1.264 . S
C1000 C993 1.403 . S
C1000 C1001 1.399 . S
C1000 H1006 0.929 . S
C1001 C981 1.449 . S
C1001 C1000 1.399 . S
C1001 H1007 0.930 . S
H1002 C982 0.931 . S
H1003 C983 0.930 . S
H1004 C991 0.931 . S
H1005 C992 0.929 . S
H1006 C1000 0.929 . S
H1007 C1001 0.930 . S
Mn1008 O1013 2.095 . S
Mn1008 O1023 2.162 . S
Mn1008 O1024 2.297 . S
Mn1008 O1032 2.385 . S
Mn1008 O1033 2.209 . S
Mn1008 O1034 2.094 . S
Mn1009 O1014 2.121 . S
Mn1009 N1016 2.257 . S
Mn1009 N1025 2.282 . S
Mn1009 O1033 2.215 . S
Mn1009 O1035 2.117 . S
C1010 O1032 1.234 . S
C1010 O1033 1.283 . S
C1011 O1023 1.281 . S
C1011 O1024 1.236 . S
C1012 O1034 1.240 . S
C1012 O1035 1.264 . S
O1013 Mn1008 2.095 . S
O1013 C1022 1.250 . S
O1014 Mn1009 2.121 . S
O1014 C1022 1.258 . S
C1015 N1016 1.326 . S
C1015 C1019 1.460 . S
C1015 H1021 0.929 . S
N1016 Mn1009 2.257 . S
N1016 C1015 1.326 . S
N1016 C1020 1.362 . S
C1017 C1018 1.258 . S
C1017 C1020 1.431 . S
C1017 C1037 1.449 . S
C1018 C1017 1.258 . S
C1018 C1019 1.477 . S
C1018 H1038 0.931 . S
C1019 C1015 1.460 . S
C1019 C1018 1.477 . S
C1019 H1039 0.930 . S
C1020 N1016 1.362 . S
C1020 C1017 1.431 . S
C1020 C1030 1.476 . S
H1021 C1015 0.929 . S
C1022 O1013 1.250 . S
C1022 O1014 1.258 . S
O1023 Mn1008 2.162 . S
O1023 C1011 1.281 . S
O1024 Mn1008 2.297 . S
O1024 C1011 1.236 . S
N1025 Mn1009 2.282 . S
N1025 C1026 1.328 . S
N1025 C1030 1.318 . S
C1026 N1025 1.328 . S
C1026 C1027 1.457 . S
C1026 H1031 0.929 . S
C1027 C1026 1.457 . S
C1027 C1028 1.291 . S
C1027 H1040 0.931 . S
C1028 C1027 1.291 . S
C1028 C1029 1.373 . S
C1028 H1041 0.929 . S
C1029 C1028 1.373 . S
C1029 C1030 1.396 . S
C1029 C1036 1.403 . S
C1030 C1020 1.476 . S
C1030 N1025 1.318 . S
C1030 C1029 1.396 . S
H1031 C1026 0.929 . S
O1032 Mn1008 2.385 . S
O1032 C1010 1.234 . S
O1033 Mn1008 2.209 . S
O1033 Mn1009 2.215 . S
O1033 C1010 1.283 . S
O1034 Mn1008 2.094 . S
O1034 C1012 1.240 . S
O1035 Mn1009 2.117 . S
O1035 C1012 1.264 . S
C1036 C1029 1.403 . S
C1036 C1037 1.399 . S
C1036 H1042 0.929 . S
C1037 C1017 1.449 . S
C1037 C1036 1.399 . S
C1037 H1043 0.930 . S
H1038 C1018 0.931 . S
H1039 C1019 0.930 . S
H1040 C1027 0.931 . S
H1041 C1028 0.929 . S
H1042 C1036 0.929 . S
H1043 C1037 0.930 . S
Mn1044 O1049 2.095 . S
Mn1044 O1059 2.162 . S
Mn1044 O1060 2.297 . S
Mn1044 O1068 2.385 . S
Mn1044 O1069 2.209 . S
Mn1044 O1070 2.094 . S
Mn1045 O1050 2.121 . S
Mn1045 N1052 2.257 . S
Mn1045 N1061 2.282 . S
Mn1045 O1069 2.215 . S
Mn1045 O1071 2.117 . S
C1046 O1068 1.234 . S
C1046 O1069 1.283 . S
C1047 O1059 1.281 . S
C1047 O1060 1.236 . S
C1048 O1070 1.240 . S
C1048 O1071 1.264 . S
O1049 Mn1044 2.095 . S
O1049 C1058 1.250 . S
O1050 Mn1045 2.121 . S
O1050 C1058 1.258 . S
C1051 N1052 1.326 . S
C1051 C1055 1.460 . S
C1051 H1057 0.929 . S
N1052 Mn1045 2.257 . S
N1052 C1051 1.326 . S
N1052 C1056 1.362 . S
C1053 C1054 1.258 . S
C1053 C1056 1.431 . S
C1053 C1073 1.449 . S
C1054 C1053 1.258 . S
C1054 C1055 1.477 . S
C1054 H1074 0.931 . S
C1055 C1051 1.460 . S
C1055 C1054 1.477 . S
C1055 H1075 0.930 . S
C1056 N1052 1.362 . S
C1056 C1053 1.431 . S
C1056 C1066 1.476 . S
H1057 C1051 0.929 . S
C1058 O1049 1.250 . S
C1058 O1050 1.258 . S
O1059 Mn1044 2.162 . S
O1059 C1047 1.281 . S
O1060 Mn1044 2.297 . S
O1060 C1047 1.236 . S
N1061 Mn1045 2.282 . S
N1061 C1062 1.328 . S
N1061 C1066 1.318 . S
C1062 N1061 1.328 . S
C1062 C1063 1.457 . S
C1062 H1067 0.929 . S
C1063 C1062 1.457 . S
C1063 C1064 1.291 . S
C1063 H1076 0.931 . S
C1064 C1063 1.291 . S
C1064 C1065 1.373 . S
C1064 H1077 0.929 . S
C1065 C1064 1.373 . S
C1065 C1066 1.396 . S
C1065 C1072 1.403 . S
C1066 C1056 1.476 . S
C1066 N1061 1.318 . S
C1066 C1065 1.396 . S
H1067 C1062 0.929 . S
O1068 Mn1044 2.385 . S
O1068 C1046 1.234 . S
O1069 Mn1044 2.209 . S
O1069 Mn1045 2.215 . S
O1069 C1046 1.283 . S
O1070 Mn1044 2.094 . S
O1070 C1048 1.240 . S
O1071 Mn1045 2.117 . S
O1071 C1048 1.264 . S
C1072 C1065 1.403 . S
C1072 C1073 1.399 . S
C1072 H1078 0.929 . S
C1073 C1053 1.449 . S
C1073 C1072 1.399 . S
C1073 H1079 0.930 . S
H1074 C1054 0.931 . S
H1075 C1055 0.930 . S
H1076 C1063 0.931 . S
H1077 C1064 0.929 . S
H1078 C1072 0.929 . S
H1079 C1073 0.930 . S
Mn1080 O1085 2.095 . S
Mn1080 O1095 2.162 . S
Mn1080 O1096 2.297 . S
Mn1080 O1104 2.385 . S
Mn1080 O1105 2.209 . S
Mn1080 O1106 2.094 . S
Mn1081 O1086 2.121 . S
Mn1081 N1088 2.257 . S
Mn1081 N1097 2.282 . S
Mn1081 O1105 2.215 . S
Mn1081 O1107 2.117 . S
C1082 O1104 1.234 . S
C1082 O1105 1.283 . S
C1083 O1095 1.281 . S
C1083 O1096 1.236 . S
C1084 O1106 1.240 . S
C1084 O1107 1.264 . S
O1085 Mn1080 2.095 . S
O1085 C1094 1.250 . S
O1086 Mn1081 2.121 . S
O1086 C1094 1.258 . S
C1087 N1088 1.326 . S
C1087 C1091 1.460 . S
C1087 H1093 0.929 . S
N1088 Mn1081 2.257 . S
N1088 C1087 1.326 . S
N1088 C1092 1.362 . S
C1089 C1090 1.258 . S
C1089 C1092 1.431 . S
C1089 C1109 1.449 . S
C1090 C1089 1.258 . S
C1090 C1091 1.477 . S
C1090 H1110 0.931 . S
C1091 C1087 1.460 . S
C1091 C1090 1.477 . S
C1091 H1111 0.930 . S
C1092 N1088 1.362 . S
C1092 C1089 1.431 . S
C1092 C1102 1.476 . S
H1093 C1087 0.929 . S
C1094 O1085 1.250 . S
C1094 O1086 1.258 . S
O1095 Mn1080 2.162 . S
O1095 C1083 1.281 . S
O1096 Mn1080 2.297 . S
O1096 C1083 1.236 . S
N1097 Mn1081 2.282 . S
N1097 C1098 1.328 . S
N1097 C1102 1.318 . S
C1098 N1097 1.328 . S
C1098 C1099 1.457 . S
C1098 H1103 0.929 . S
C1099 C1098 1.457 . S
C1099 C1100 1.291 . S
C1099 H1112 0.931 . S
C1100 C1099 1.291 . S
C1100 C1101 1.373 . S
C1100 H1113 0.929 . S
C1101 C1100 1.373 . S
C1101 C1102 1.396 . S
C1101 C1108 1.403 . S
C1102 C1092 1.476 . S
C1102 N1097 1.318 . S
C1102 C1101 1.396 . S
H1103 C1098 0.929 . S
O1104 Mn1080 2.385 . S
O1104 C1082 1.234 . S
O1105 Mn1080 2.209 . S
O1105 Mn1081 2.215 . S
O1105 C1082 1.283 . S
O1106 Mn1080 2.094 . S
O1106 C1084 1.240 . S
O1107 Mn1081 2.117 . S
O1107 C1084 1.264 . S
C1108 C1101 1.403 . S
C1108 C1109 1.399 . S
C1108 H1114 0.929 . S
C1109 C1089 1.449 . S
C1109 C1108 1.399 . S
C1109 H1115 0.930 . S
H1110 C1090 0.931 . S
H1111 C1091 0.930 . S
H1112 C1099 0.931 . S
H1113 C1100 0.929 . S
H1114 C1108 0.929 . S
H1115 C1109 0.930 . S
Mn1116 O1121 2.095 . S
Mn1116 O1131 2.162 . S
Mn1116 O1132 2.297 . S
Mn1116 O1140 2.385 . S
Mn1116 O1141 2.209 . S
Mn1116 O1142 2.094 . S
Mn1117 O1122 2.121 . S
Mn1117 N1124 2.257 . S
Mn1117 N1133 2.282 . S
Mn1117 O1141 2.215 . S
Mn1117 O1143 2.117 . S
C1118 O1140 1.234 . S
C1118 O1141 1.283 . S
C1119 O1131 1.281 . S
C1119 O1132 1.236 . S
C1120 O1142 1.240 . S
C1120 O1143 1.264 . S
O1121 Mn1116 2.095 . S
O1121 C1130 1.250 . S
O1122 Mn1117 2.121 . S
O1122 C1130 1.258 . S
C1123 N1124 1.326 . S
C1123 C1127 1.460 . S
C1123 H1129 0.929 . S
N1124 Mn1117 2.257 . S
N1124 C1123 1.326 . S
N1124 C1128 1.362 . S
C1125 C1126 1.258 . S
C1125 C1128 1.431 . S
C1125 C1145 1.449 . S
C1126 C1125 1.258 . S
C1126 C1127 1.477 . S
C1126 H1146 0.931 . S
C1127 C1123 1.460 . S
C1127 C1126 1.477 . S
C1127 H1147 0.930 . S
C1128 N1124 1.362 . S
C1128 C1125 1.431 . S
C1128 C1138 1.476 . S
H1129 C1123 0.929 . S
C1130 O1121 1.250 . S
C1130 O1122 1.258 . S
O1131 Mn1116 2.162 . S
O1131 C1119 1.281 . S
O1132 Mn1116 2.297 . S
O1132 C1119 1.236 . S
N1133 Mn1117 2.282 . S
N1133 C1134 1.328 . S
N1133 C1138 1.318 . S
C1134 N1133 1.328 . S
C1134 C1135 1.457 . S
C1134 H1139 0.929 . S
C1135 C1134 1.457 . S
C1135 C1136 1.291 . S
C1135 H1148 0.931 . S
C1136 C1135 1.291 . S
C1136 C1137 1.373 . S
C1136 H1149 0.929 . S
C1137 C1136 1.373 . S
C1137 C1138 1.396 . S
C1137 C1144 1.403 . S
C1138 C1128 1.476 . S
C1138 N1133 1.318 . S
C1138 C1137 1.396 . S
H1139 C1134 0.929 . S
O1140 Mn1116 2.385 . S
O1140 C1118 1.234 . S
O1141 Mn1116 2.209 . S
O1141 Mn1117 2.215 . S
O1141 C1118 1.283 . S
O1142 Mn1116 2.094 . S
O1142 C1120 1.240 . S
O1143 Mn1117 2.117 . S
O1143 C1120 1.264 . S
C1144 C1137 1.403 . S
C1144 C1145 1.399 . S
C1144 H1150 0.929 . S
C1145 C1125 1.449 . S
C1145 C1144 1.399 . S
C1145 H1151 0.930 . S
H1146 C1126 0.931 . S
H1147 C1127 0.930 . S
H1148 C1135 0.931 . S
H1149 C1136 0.929 . S
H1150 C1144 0.929 . S
H1151 C1145 0.930 . S
Mn1152 O1157 2.095 . S
Mn1152 O1167 2.162 . S
Mn1152 O1168 2.297 . S
Mn1152 O1176 2.385 . S
Mn1152 O1177 2.209 . S
Mn1152 O1178 2.094 . S
Mn1153 O1158 2.121 . S
Mn1153 N1160 2.257 . S
Mn1153 N1169 2.282 . S
Mn1153 O1177 2.215 . S
Mn1153 O1179 2.117 . S
C1154 O1176 1.234 . S
C1154 O1177 1.283 . S
C1155 O1167 1.281 . S
C1155 O1168 1.236 . S
C1156 O1178 1.240 . S
C1156 O1179 1.264 . S
O1157 Mn1152 2.095 . S
O1157 C1166 1.250 . S
O1158 Mn1153 2.121 . S
O1158 C1166 1.258 . S
C1159 N1160 1.326 . S
C1159 C1163 1.460 . S
C1159 H1165 0.929 . S
N1160 Mn1153 2.257 . S
N1160 C1159 1.326 . S
N1160 C1164 1.362 . S
C1161 C1162 1.258 . S
C1161 C1164 1.431 . S
C1161 C1181 1.449 . S
C1162 C1161 1.258 . S
C1162 C1163 1.477 . S
C1162 H1182 0.931 . S
C1163 C1159 1.460 . S
C1163 C1162 1.477 . S
C1163 H1183 0.930 . S
C1164 N1160 1.362 . S
C1164 C1161 1.431 . S
C1164 C1174 1.476 . S
H1165 C1159 0.929 . S
C1166 O1157 1.250 . S
C1166 O1158 1.258 . S
O1167 Mn1152 2.162 . S
O1167 C1155 1.281 . S
O1168 Mn1152 2.297 . S
O1168 C1155 1.236 . S
N1169 Mn1153 2.282 . S
N1169 C1170 1.328 . S
N1169 C1174 1.318 . S
C1170 N1169 1.328 . S
C1170 C1171 1.457 . S
C1170 H1175 0.929 . S
C1171 C1170 1.457 . S
C1171 C1172 1.291 . S
C1171 H1184 0.931 . S
C1172 C1171 1.291 . S
C1172 C1173 1.373 . S
C1172 H1185 0.929 . S
C1173 C1172 1.373 . S
C1173 C1174 1.396 . S
C1173 C1180 1.403 . S
C1174 C1164 1.476 . S
C1174 N1169 1.318 . S
C1174 C1173 1.396 . S
H1175 C1170 0.929 . S
O1176 Mn1152 2.385 . S
O1176 C1154 1.234 . S
O1177 Mn1152 2.209 . S
O1177 Mn1153 2.215 . S
O1177 C1154 1.283 . S
O1178 Mn1152 2.094 . S
O1178 C1156 1.240 . S
O1179 Mn1153 2.117 . S
O1179 C1156 1.264 . S
C1180 C1173 1.403 . S
C1180 C1181 1.399 . S
C1180 H1186 0.929 . S
C1181 C1161 1.449 . S
C1181 C1180 1.399 . S
C1181 H1187 0.930 . S
H1182 C1162 0.931 . S
H1183 C1163 0.930 . S
H1184 C1171 0.931 . S
H1185 C1172 0.929 . S
H1186 C1180 0.929 . S
H1187 C1181 0.930 . S
Mn1188 O1193 2.095 . S
Mn1188 O1203 2.162 . S
Mn1188 O1204 2.297 . S
Mn1188 O1212 2.385 . S
Mn1188 O1213 2.209 . S
Mn1188 O1214 2.094 . S
Mn1189 O1194 2.119 . S
Mn1189 N1196 2.257 . S
Mn1189 N1205 2.282 . S
Mn1189 O1213 2.215 . S
Mn1189 O1215 2.117 . S
C1190 O1212 1.234 . S
C1190 O1213 1.283 . S
C1191 O1203 1.281 . S
C1191 O1204 1.236 . S
C1192 O1214 1.240 . S
C1192 O1215 1.264 . S
O1193 Mn1188 2.095 . S
O1193 C1202 1.250 1_556 S
O1194 Mn1189 2.119 . S
O1194 C1202 1.258 1_556 S
C1195 N1196 1.326 1_554 S
C1195 C1199 1.460 . S
C1195 H1201 0.929 . S
N1196 Mn1189 2.257 . S
N1196 C1195 1.326 1_556 S
N1196 C1200 1.362 . S
C1197 C1198 1.258 1_556 S
C1197 C1200 1.431 . S
C1197 C1217 1.449 . S
C1198 C1197 1.258 1_554 S
C1198 C1199 1.477 . S
C1198 H1218 0.931 . S
C1199 C1195 1.460 . S
C1199 C1198 1.477 . S
C1199 H1219 0.930 . S
C1200 N1196 1.362 . S
C1200 C1197 1.431 . S
C1200 C1210 1.476 . S
H1201 C1195 0.929 . S
C1202 O1193 1.250 1_554 S
C1202 O1194 1.258 1_554 S
O1203 Mn1188 2.162 . S
O1203 C1191 1.281 . S
O1204 Mn1188 2.297 . S
O1204 C1191 1.236 . S
N1205 Mn1189 2.282 . S
N1205 C1206 1.328 . S
N1205 C1210 1.318 . S
C1206 N1205 1.328 . S
C1206 C1207 1.457 . S
C1206 H1211 0.929 . S
C1207 C1206 1.457 . S
C1207 C1208 1.291 . S
C1207 H1220 0.931 . S
C1208 C1207 1.291 . S
C1208 C1209 1.373 . S
C1208 H1221 0.929 . S
C1209 C1208 1.373 . S
C1209 C1210 1.396 . S
C1209 C1216 1.403 . S
C1210 C1200 1.476 . S
C1210 N1205 1.318 . S
C1210 C1209 1.396 . S
H1211 C1206 0.929 . S
O1212 Mn1188 2.385 . S
O1212 C1190 1.234 . S
O1213 Mn1188 2.209 . S
O1213 Mn1189 2.215 . S
O1213 C1190 1.283 . S
O1214 Mn1188 2.094 . S
O1214 C1192 1.240 . S
O1215 Mn1189 2.117 . S
O1215 C1192 1.264 . S
C1216 C1209 1.403 . S
C1216 C1217 1.399 . S
C1216 H1222 0.929 . S
C1217 C1197 1.449 . S
C1217 C1216 1.399 . S
C1217 H1223 0.930 . S
H1218 C1198 0.931 . S
H1219 C1199 0.930 . S
H1220 C1207 0.931 . S
H1221 C1208 0.929 . S
H1222 C1216 0.929 . S
H1223 C1217 0.930 . S
Mn1224 O1229 2.095 . S
Mn1224 O1239 2.162 . S
Mn1224 O1240 2.297 . S
Mn1224 O1248 2.385 . S
Mn1224 O1249 2.209 . S
Mn1224 O1250 2.094 . S
Mn1225 O1230 2.123 1_556 S
Mn1225 N1232 2.257 . S
Mn1225 N1241 2.282 . S
Mn1225 O1249 2.215 . S
Mn1225 O1251 2.117 . S
C1226 O1248 1.234 . S
C1226 O1249 1.283 . S
C1227 O1239 1.281 . S
C1227 O1240 1.236 . S
C1228 O1250 1.240 . S
C1228 O1251 1.264 . S
O1229 Mn1224 2.095 . S
O1229 C1238 1.250 1_556 S
O1230 Mn1225 2.123 1_554 S
O1230 C1238 1.258 . S
C1231 N1232 1.326 1_554 S
C1231 C1235 1.460 . S
C1231 H1237 0.929 . S
N1232 Mn1225 2.257 . S
N1232 C1231 1.326 1_556 S
N1232 C1236 1.362 . S
C1233 C1234 1.258 1_556 S
C1233 C1236 1.431 . S
C1233 C1253 1.449 . S
C1234 C1233 1.258 1_554 S
C1234 C1235 1.477 . S
C1234 H1254 0.931 . S
C1235 C1231 1.460 . S
C1235 C1234 1.477 . S
C1235 H1255 0.930 . S
C1236 N1232 1.362 . S
C1236 C1233 1.431 . S
C1236 C1246 1.476 . S
H1237 C1231 0.929 . S
C1238 O1229 1.250 1_554 S
C1238 O1230 1.258 . S
O1239 Mn1224 2.162 . S
O1239 C1227 1.281 . S
O1240 Mn1224 2.297 . S
O1240 C1227 1.236 . S
N1241 Mn1225 2.282 . S
N1241 C1242 1.328 . S
N1241 C1246 1.318 . S
C1242 N1241 1.328 . S
C1242 C1243 1.457 . S
C1242 H1247 0.929 . S
C1243 C1242 1.457 . S
C1243 C1244 1.291 . S
C1243 H1256 0.931 . S
C1244 C1243 1.291 . S
C1244 C1245 1.373 . S
C1244 H1257 0.929 . S
C1245 C1244 1.373 . S
C1245 C1246 1.396 . S
C1245 C1252 1.403 . S
C1246 C1236 1.476 . S
C1246 N1241 1.318 . S
C1246 C1245 1.396 . S
H1247 C1242 0.929 . S
O1248 Mn1224 2.385 . S
O1248 C1226 1.234 . S
O1249 Mn1224 2.209 . S
O1249 Mn1225 2.215 . S
O1249 C1226 1.283 . S
O1250 Mn1224 2.094 . S
O1250 C1228 1.240 . S
O1251 Mn1225 2.117 . S
O1251 C1228 1.264 . S
C1252 C1245 1.403 . S
C1252 C1253 1.399 . S
C1252 H1258 0.929 . S
C1253 C1233 1.449 . S
C1253 C1252 1.399 . S
C1253 H1259 0.930 . S
H1254 C1234 0.931 . S
H1255 C1235 0.930 . S
H1256 C1243 0.931 . S
H1257 C1244 0.929 . S
H1258 C1252 0.929 . S
H1259 C1253 0.930 . S
Mn1260 O1265 2.095 . S
Mn1260 O1275 2.162 . S
Mn1260 O1276 2.297 . S
Mn1260 O1284 2.385 . S
Mn1260 O1285 2.209 . S
Mn1260 O1286 2.094 . S
Mn1261 O1266 2.122 1_556 S
Mn1261 N1268 2.257 . S
Mn1261 N1277 2.282 . S
Mn1261 O1285 2.215 . S
Mn1261 O1287 2.117 . S
C1262 O1284 1.234 . S
C1262 O1285 1.283 . S
C1263 O1275 1.281 . S
C1263 O1276 1.236 . S
C1264 O1286 1.240 . S
C1264 O1287 1.264 . S
O1265 Mn1260 2.095 . S
O1265 C1274 1.250 1_556 S
O1266 Mn1261 2.122 1_554 S
O1266 C1274 1.258 . S
C1267 N1268 1.326 1_554 S
C1267 C1271 1.460 . S
C1267 H1273 0.929 . S
N1268 Mn1261 2.257 . S
N1268 C1267 1.326 1_556 S
N1268 C1272 1.362 . S
C1269 C1270 1.258 1_556 S
C1269 C1272 1.431 . S
C1269 C1289 1.449 . S
C1270 C1269 1.258 1_554 S
C1270 C1271 1.477 . S
C1270 H1290 0.931 . S
C1271 C1267 1.460 . S
C1271 C1270 1.477 . S
C1271 H1291 0.930 . S
C1272 N1268 1.362 . S
C1272 C1269 1.431 . S
C1272 C1282 1.476 . S
H1273 C1267 0.929 . S
C1274 O1265 1.250 1_554 S
C1274 O1266 1.258 . S
O1275 Mn1260 2.162 . S
O1275 C1263 1.281 . S
O1276 Mn1260 2.297 . S
O1276 C1263 1.236 . S
N1277 Mn1261 2.282 . S
N1277 C1278 1.328 . S
N1277 C1282 1.318 . S
C1278 N1277 1.328 . S
C1278 C1279 1.457 . S
C1278 H1283 0.929 . S
C1279 C1278 1.457 . S
C1279 C1280 1.291 . S
C1279 H1292 0.931 . S
C1280 C1279 1.291 . S
C1280 C1281 1.373 . S
C1280 H1293 0.929 . S
C1281 C1280 1.373 . S
C1281 C1282 1.396 . S
C1281 C1288 1.403 . S
C1282 C1272 1.476 . S
C1282 N1277 1.318 . S
C1282 C1281 1.396 . S
H1283 C1278 0.929 . S
O1284 Mn1260 2.385 . S
O1284 C1262 1.234 . S
O1285 Mn1260 2.209 . S
O1285 Mn1261 2.215 . S
O1285 C1262 1.283 . S
O1286 Mn1260 2.094 . S
O1286 C1264 1.240 . S
O1287 Mn1261 2.117 . S
O1287 C1264 1.264 . S
C1288 C1281 1.403 . S
C1288 C1289 1.399 . S
C1288 H1294 0.929 . S
C1289 C1269 1.449 . S
C1289 C1288 1.399 . S
C1289 H1295 0.930 . S
H1290 C1270 0.931 . S
H1291 C1271 0.930 . S
H1292 C1279 0.931 . S
H1293 C1280 0.929 . S
H1294 C1288 0.929 . S
H1295 C1289 0.930 . S
H1296 C1302 0.930 . S
H1297 C1306 0.930 . S
H1298 C1311 0.929 . S
H1299 C1309 0.929 . S
H1300 C1304 0.929 1_565 S
H1301 C1310 0.929 1_545 S
C1302 H1296 0.930 . S
C1302 C1303 1.367 . S
C1302 C1310 1.378 . S
C1303 C1302 1.367 . S
C1303 C1311 1.433 . S
C1304 H1300 0.929 1_545 S
C1304 C1306 1.378 . S
C1304 C1308 1.350 . S
C1305 C1308 1.463 1_565 S
C1305 C1310 1.350 . S
C1305 N1313 1.427 . S
C1306 H1297 0.930 . S
C1306 C1304 1.378 . S
C1306 C1307 1.367 . S
C1307 C1306 1.367 . S
C1307 C1309 1.433 . S
C1308 C1304 1.350 . S
C1308 C1305 1.463 1_545 S
C1308 N1312 1.427 . S
C1309 H1299 0.929 . S
C1309 C1307 1.433 . S
C1309 N1312 1.384 . S
C1310 H1301 0.929 1_565 S
C1310 C1302 1.378 . S
C1310 C1305 1.350 . S
C1311 H1298 0.929 . S
C1311 C1303 1.433 . S
C1311 N1313 1.384 . S
N1312 C1308 1.427 . S
N1312 C1309 1.384 . S
N1313 C1305 1.427 . S
N1313 C1311 1.384 . S
H1314 C1320 0.930 . S
H1315 C1324 0.930 . S
H1316 C1329 0.929 . S
H1317 C1327 0.929 . S
H1318 C1322 0.929 . S
H1319 C1328 0.929 . S
C1320 H1314 0.930 . S
C1320 C1321 1.367 . S
C1320 C1328 1.378 . S
C1321 C1320 1.367 . S
C1321 C1329 1.433 . S
C1322 H1318 0.929 . S
C1322 C1324 1.378 . S
C1322 C1326 1.350 . S
C1323 C1326 1.463 1_455 S
C1323 C1328 1.350 . S
C1323 N1331 1.427 . S
C1324 H1315 0.930 . S
C1324 C1322 1.378 . S
C1324 C1325 1.367 . S
C1325 C1324 1.367 . S
C1325 C1327 1.433 . S
C1326 C1322 1.350 . S
C1326 C1323 1.463 1_655 S
C1326 N1330 1.427 . S
C1327 H1317 0.929 . S
C1327 C1325 1.433 . S
C1327 N1330 1.384 . S
C1328 H1319 0.929 . S
C1328 C1320 1.378 . S
C1328 C1323 1.350 . S
C1329 H1316 0.929 . S
C1329 C1321 1.433 . S
C1329 N1331 1.384 . S
N1330 C1326 1.427 . S
N1330 C1327 1.384 . S
N1331 C1323 1.427 . S
N1331 C1329 1.384 . S
H1332 C1338 0.930 . S
H1333 C1342 0.930 . S
H1334 C1347 0.929 . S
H1335 C1345 0.929 . S
H1336 C1340 0.929 . S
H1337 C1346 0.929 . S
C1338 H1332 0.930 . S
C1338 C1339 1.367 . S
C1338 C1346 1.378 . S
C1339 C1338 1.367 . S
C1339 C1347 1.433 . S
C1340 H1336 0.929 . S
C1340 C1342 1.378 . S
C1340 C1344 1.350 . S
C1341 C1344 1.463 . S
C1341 C1346 1.350 . S
C1341 N1349 1.427 . S
C1342 H1333 0.930 . S
C1342 C1340 1.378 . S
C1342 C1343 1.367 . S
C1343 C1342 1.367 . S
C1343 C1345 1.433 . S
C1344 C1340 1.350 . S
C1344 C1341 1.463 . S
C1344 N1348 1.427 . S
C1345 H1335 0.929 . S
C1345 C1343 1.433 . S
C1345 N1348 1.384 . S
C1346 H1337 0.929 . S
C1346 C1338 1.378 . S
C1346 C1341 1.350 . S
C1347 H1334 0.929 . S
C1347 C1339 1.433 . S
C1347 N1349 1.384 . S
N1348 C1344 1.427 . S
N1348 C1345 1.384 . S
N1349 C1341 1.427 . S
N1349 C1347 1.384 . S
H1350 C1356 0.930 . S
H1351 C1360 0.930 . S
H1352 C1365 0.929 . S
H1353 C1363 0.929 . S
H1354 C1358 0.929 . S
H1355 C1364 0.929 . S
C1356 H1350 0.930 . S
C1356 C1357 1.367 . S
C1356 C1364 1.378 . S
C1357 C1356 1.367 . S
C1357 C1365 1.433 . S
C1358 H1354 0.929 . S
C1358 C1360 1.378 . S
C1358 C1362 1.350 . S
C1359 C1362 1.463 1_565 S
C1359 C1364 1.350 . S
C1359 N1367 1.427 . S
C1360 H1351 0.930 . S
C1360 C1358 1.378 . S
C1360 C1361 1.367 . S
C1361 C1360 1.367 . S
C1361 C1363 1.433 . S
C1362 C1358 1.350 . S
C1362 C1359 1.463 1_545 S
C1362 N1366 1.427 . S
C1363 H1353 0.929 . S
C1363 C1361 1.433 . S
C1363 N1366 1.384 . S
C1364 H1355 0.929 . S
C1364 C1356 1.378 . S
C1364 C1359 1.350 . S
C1365 H1352 0.929 . S
C1365 C1357 1.433 . S
C1365 N1367 1.384 . S
N1366 C1362 1.427 . S
N1366 C1363 1.384 . S
N1367 C1359 1.427 . S
N1367 C1365 1.384 . S
H1368 C1374 0.930 . S
H1369 C1378 0.930 . S
H1370 C1383 0.929 . S
H1371 C1381 0.929 . S
H1372 C1376 0.929 . S
H1373 C1382 0.929 . S
C1374 H1368 0.930 . S
C1374 C1375 1.367 . S
C1374 C1382 1.378 . S
C1375 C1374 1.367 . S
C1375 C1383 1.433 . S
C1376 H1372 0.929 . S
C1376 C1378 1.378 . S
C1376 C1380 1.350 . S
C1377 C1380 1.463 1_455 S
C1377 C1382 1.350 . S
C1377 N1385 1.427 . S
C1378 H1369 0.930 . S
C1378 C1376 1.378 . S
C1378 C1379 1.367 . S
C1379 C1378 1.367 . S
C1379 C1381 1.433 . S
C1380 C1376 1.350 . S
C1380 C1377 1.463 1_655 S
C1380 N1384 1.427 . S
C1381 H1371 0.929 . S
C1381 C1379 1.433 . S
C1381 N1384 1.384 . S
C1382 H1373 0.929 . S
C1382 C1374 1.378 . S
C1382 C1377 1.350 . S
C1383 H1370 0.929 . S
C1383 C1375 1.433 . S
C1383 N1385 1.384 . S
N1384 C1380 1.427 . S
N1384 C1381 1.384 . S
N1385 C1377 1.427 . S
N1385 C1383 1.384 . S
H1386 C1392 0.930 . S
H1387 C1396 0.930 . S
H1388 C1401 0.929 . S
H1389 C1399 0.929 . S
H1390 C1394 0.929 . S
H1391 C1400 0.929 . S
C1392 H1386 0.930 . S
C1392 C1393 1.367 . S
C1392 C1400 1.378 . S
C1393 C1392 1.367 . S
C1393 C1401 1.433 . S
C1394 H1390 0.929 . S
C1394 C1396 1.378 . S
C1394 C1398 1.350 . S
C1395 C1398 1.463 . S
C1395 C1400 1.350 . S
C1395 N1403 1.427 . S
C1396 H1387 0.930 . S
C1396 C1394 1.378 . S
C1396 C1397 1.367 . S
C1397 C1396 1.367 . S
C1397 C1399 1.433 . S
C1398 C1394 1.350 . S
C1398 C1395 1.463 . S
C1398 N1402 1.427 . S
C1399 H1389 0.929 . S
C1399 C1397 1.433 . S
C1399 N1402 1.384 . S
C1400 H1391 0.929 . S
C1400 C1392 1.378 . S
C1400 C1395 1.350 . S
C1401 H1388 0.929 . S
C1401 C1393 1.433 . S
C1401 N1403 1.384 . S
N1402 C1398 1.427 . S
N1402 C1399 1.384 . S
N1403 C1395 1.427 . S
N1403 C1401 1.384 . S
H1404 C1410 0.930 . S
H1405 C1414 0.930 . S
H1406 C1419 0.929 . S
H1407 C1417 0.929 . S
H1408 C1412 0.929 . S
H1409 C1418 0.929 . S
C1410 H1404 0.930 . S
C1410 C1411 1.367 . S
C1410 C1418 1.378 . S
C1411 C1410 1.367 . S
C1411 C1419 1.433 . S
C1412 H1408 0.929 . S
C1412 C1414 1.378 . S
C1412 C1416 1.350 . S
C1413 C1416 1.463 . S
C1413 C1418 1.350 . S
C1413 N1421 1.427 . S
C1414 H1405 0.930 . S
C1414 C1412 1.378 . S
C1414 C1415 1.367 . S
C1415 C1414 1.367 . S
C1415 C1417 1.433 . S
C1416 C1412 1.350 . S
C1416 C1413 1.463 . S
C1416 N1420 1.427 . S
C1417 H1407 0.929 . S
C1417 C1415 1.433 . S
C1417 N1420 1.384 . S
C1418 H1409 0.929 . S
C1418 C1410 1.378 . S
C1418 C1413 1.350 . S
C1419 H1406 0.929 . S
C1419 C1411 1.433 . S
C1419 N1421 1.384 . S
N1420 C1416 1.427 . S
N1420 C1417 1.384 . S
N1421 C1413 1.427 . S
N1421 C1419 1.384 . S
H1422 C1428 0.930 . S
H1423 C1432 0.930 . S
H1424 C1437 0.929 . S
H1425 C1435 0.929 . S
H1426 C1430 0.929 . S
H1427 C1436 0.929 . S
C1428 H1422 0.930 . S
C1428 C1429 1.367 . S
C1428 C1436 1.378 . S
C1429 C1428 1.367 . S
C1429 C1437 1.433 . S
C1430 H1426 0.929 . S
C1430 C1432 1.378 . S
C1430 C1434 1.350 . S
C1431 C1434 1.463 . S
C1431 C1436 1.350 . S
C1431 N1439 1.427 . S
C1432 H1423 0.930 . S
C1432 C1430 1.378 . S
C1432 C1433 1.367 . S
C1433 C1432 1.367 . S
C1433 C1435 1.433 . S
C1434 C1430 1.350 . S
C1434 C1431 1.463 . S
C1434 N1438 1.427 . S
C1435 H1425 0.929 . S
C1435 C1433 1.433 . S
C1435 N1438 1.384 . S
C1436 H1427 0.929 . S
C1436 C1428 1.378 . S
C1436 C1431 1.350 . S
C1437 H1424 0.929 . S
C1437 C1429 1.433 . S
C1437 N1439 1.384 . S
N1438 C1434 1.427 . S
N1438 C1435 1.384 . S
N1439 C1431 1.427 . S
N1439 C1437 1.384 . S
H1440 C1446 0.930 . S
H1441 C1450 0.930 . S
H1442 C1455 0.929 . S
H1443 C1453 0.929 . S
H1444 C1448 0.929 . S
H1445 C1454 0.929 . S
C1446 H1440 0.930 . S
C1446 C1447 1.367 . S
C1446 C1454 1.378 . S
C1447 C1446 1.367 . S
C1447 C1455 1.433 . S
C1448 H1444 0.929 . S
C1448 C1450 1.378 . S
C1448 C1452 1.350 . S
C1449 C1452 1.463 . S
C1449 C1454 1.350 . S
C1449 N1457 1.427 . S
C1450 H1441 0.930 . S
C1450 C1448 1.378 . S
C1450 C1451 1.367 . S
C1451 C1450 1.367 . S
C1451 C1453 1.433 . S
C1452 C1448 1.350 . S
C1452 C1449 1.463 . S
C1452 N1456 1.427 . S
C1453 H1443 0.929 . S
C1453 C1451 1.433 . S
C1453 N1456 1.384 . S
C1454 H1445 0.929 . S
C1454 C1446 1.378 . S
C1454 C1449 1.350 . S
C1455 H1442 0.929 . S
C1455 C1447 1.433 . S
C1455 N1457 1.384 . S
N1456 C1452 1.427 . S
N1456 C1453 1.384 . S
N1457 C1449 1.427 . S
N1457 C1455 1.384 . S
H1458 C1464 0.930 . S
H1459 C1468 0.930 . S
H1460 C1473 0.929 . S
H1461 C1471 0.929 . S
H1462 C1466 0.929 . S
H1463 C1472 0.929 . S
C1464 H1458 0.930 . S
C1464 C1465 1.367 . S
C1464 C1472 1.378 . S
C1465 C1464 1.367 . S
C1465 C1473 1.433 . S
C1466 H1462 0.929 . S
C1466 C1468 1.378 . S
C1466 C1470 1.350 . S
C1467 C1470 1.463 . S
C1467 C1472 1.350 . S
C1467 N1475 1.427 . S
C1468 H1459 0.930 . S
C1468 C1466 1.378 . S
C1468 C1469 1.367 . S
C1469 C1468 1.367 . S
C1469 C1471 1.433 . S
C1470 C1466 1.350 . S
C1470 C1467 1.463 . S
C1470 N1474 1.427 . S
C1471 H1461 0.929 . S
C1471 C1469 1.433 . S
C1471 N1474 1.384 . S
C1472 H1463 0.929 . S
C1472 C1464 1.378 . S
C1472 C1467 1.350 . S
C1473 H1460 0.929 . S
C1473 C1465 1.433 . S
C1473 N1475 1.384 . S
N1474 C1470 1.427 . S
N1474 C1471 1.384 . S
N1475 C1467 1.427 . S
N1475 C1473 1.384 . S
H1476 C1482 0.930 . S
H1477 C1486 0.930 . S
H1478 C1491 0.929 . S
H1479 C1489 0.929 . S
H1480 C1484 0.929 . S
H1481 C1490 0.929 . S
C1482 H1476 0.930 . S
C1482 C1483 1.367 . S
C1482 C1490 1.378 . S
C1483 C1482 1.367 . S
C1483 C1491 1.433 . S
C1484 H1480 0.929 . S
C1484 C1486 1.378 . S
C1484 C1488 1.350 . S
C1485 C1488 1.463 . S
C1485 C1490 1.350 . S
C1485 N1493 1.427 . S
C1486 H1477 0.930 . S
C1486 C1484 1.378 . S
C1486 C1487 1.367 . S
C1487 C1486 1.367 . S
C1487 C1489 1.433 . S
C1488 C1484 1.350 . S
C1488 C1485 1.463 . S
C1488 N1492 1.427 . S
C1489 H1479 0.929 . S
C1489 C1487 1.433 . S
C1489 N1492 1.384 . S
C1490 H1481 0.929 . S
C1490 C1482 1.378 . S
C1490 C1485 1.350 . S
C1491 H1478 0.929 . S
C1491 C1483 1.433 . S
C1491 N1493 1.384 . S
N1492 C1488 1.427 . S
N1492 C1489 1.384 . S
N1493 C1485 1.427 . S
N1493 C1491 1.384 . S
H1494 C1500 0.930 . S
H1495 C1504 0.930 . S
H1496 C1509 0.929 . S
H1497 C1507 0.929 . S
H1498 C1502 0.929 . S
H1499 C1508 0.929 . S
C1500 H1494 0.930 . S
C1500 C1501 1.367 . S
C1500 C1508 1.378 . S
C1501 C1500 1.367 . S
C1501 C1509 1.433 . S
C1502 H1498 0.929 . S
C1502 C1504 1.378 . S
C1502 C1506 1.350 . S
C1503 C1506 1.463 . S
C1503 C1508 1.350 . S
C1503 N1511 1.427 . S
C1504 H1495 0.930 . S
C1504 C1502 1.378 . S
C1504 C1505 1.367 . S
C1505 C1504 1.367 . S
C1505 C1507 1.433 . S
C1506 C1502 1.350 . S
C1506 C1503 1.463 . S
C1506 N1510 1.427 . S
C1507 H1497 0.929 . S
C1507 C1505 1.433 . S
C1507 N1510 1.384 . S
C1508 H1499 0.929 . S
C1508 C1500 1.378 . S
C1508 C1503 1.350 . S
C1509 H1496 0.929 . S
C1509 C1501 1.433 . S
C1509 N1511 1.384 . S
N1510 C1506 1.427 . S
N1510 C1507 1.384 . S
N1511 C1503 1.427 . S
N1511 C1509 1.384 . S
H1512 C1518 0.930 . S
H1513 C1522 0.930 . S
H1514 C1527 0.929 . S
H1515 C1525 0.929 . S
H1516 C1520 0.929 . S
H1517 C1526 0.929 . S
C1518 H1512 0.930 . S
C1518 C1519 1.367 . S
C1518 C1526 1.378 . S
C1519 C1518 1.367 . S
C1519 C1527 1.433 . S
C1520 H1516 0.929 . S
C1520 C1522 1.378 . S
C1520 C1524 1.350 . S
C1521 C1524 1.463 . S
C1521 C1526 1.350 . S
C1521 N1529 1.427 . S
C1522 H1513 0.930 . S
C1522 C1520 1.378 . S
C1522 C1523 1.367 . S
C1523 C1522 1.367 . S
C1523 C1525 1.433 . S
C1524 C1520 1.350 . S
C1524 C1521 1.463 . S
C1524 N1528 1.427 . S
C1525 H1515 0.929 . S
C1525 C1523 1.433 . S
C1525 N1528 1.384 . S
C1526 H1517 0.929 . S
C1526 C1518 1.378 . S
C1526 C1521 1.350 . S
C1527 H1514 0.929 . S
C1527 C1519 1.433 . S
C1527 N1529 1.384 . S
N1528 C1524 1.427 . S
N1528 C1525 1.384 . S
N1529 C1521 1.427 . S
N1529 C1527 1.384 . S
H1530 C1536 0.930 . S
H1531 C1540 0.930 . S
H1532 C1545 0.929 . S
H1533 C1543 0.929 . S
H1534 C1538 0.929 . S
H1535 C1544 0.929 . S
C1536 H1530 0.930 . S
C1536 C1537 1.367 . S
C1536 C1544 1.378 . S
C1537 C1536 1.367 . S
C1537 C1545 1.433 . S
C1538 H1534 0.929 . S
C1538 C1540 1.378 . S
C1538 C1542 1.350 . S
C1539 C1542 1.463 . S
C1539 C1544 1.350 . S
C1539 N1547 1.427 . S
C1540 H1531 0.930 . S
C1540 C1538 1.378 . S
C1540 C1541 1.367 . S
C1541 C1540 1.367 . S
C1541 C1543 1.433 . S
C1542 C1538 1.350 . S
C1542 C1539 1.463 . S
C1542 N1546 1.427 . S
C1543 H1533 0.929 . S
C1543 C1541 1.433 . S
C1543 N1546 1.384 . S
C1544 H1535 0.929 . S
C1544 C1536 1.378 . S
C1544 C1539 1.350 . S
C1545 H1532 0.929 . S
C1545 C1537 1.433 . S
C1545 N1547 1.384 . S
N1546 C1542 1.427 . S
N1546 C1543 1.384 . S
N1547 C1539 1.427 . S
N1547 C1545 1.384 . S
H1548 C1554 0.930 . S
H1549 C1558 0.930 . S
H1550 C1563 0.929 . S
H1551 C1561 0.929 . S
H1552 C1556 0.929 . S
H1553 C1562 0.929 . S
C1554 H1548 0.930 . S
C1554 C1555 1.367 . S
C1554 C1562 1.378 . S
C1555 C1554 1.367 . S
C1555 C1563 1.433 . S
C1556 H1552 0.929 . S
C1556 C1558 1.378 . S
C1556 C1560 1.350 . S
C1557 C1560 1.463 . S
C1557 C1562 1.350 . S
C1557 N1565 1.427 . S
C1558 H1549 0.930 . S
C1558 C1556 1.378 . S
C1558 C1559 1.367 . S
C1559 C1558 1.367 . S
C1559 C1561 1.433 . S
C1560 C1556 1.350 . S
C1560 C1557 1.463 . S
C1560 N1564 1.427 . S
C1561 H1551 0.929 . S
C1561 C1559 1.433 . S
C1561 N1564 1.384 . S
C1562 H1553 0.929 . S
C1562 C1554 1.378 . S
C1562 C1557 1.350 . S
C1563 H1550 0.929 . S
C1563 C1555 1.433 . S
C1563 N1565 1.384 . S
N1564 C1560 1.427 . S
N1564 C1561 1.384 . S
N1565 C1557 1.427 . S
N1565 C1563 1.384 . S
H1566 C1572 0.930 . S
H1567 C1576 0.930 . S
H1568 C1581 0.929 . S
H1569 C1579 0.929 . S
H1570 C1574 0.929 . S
H1571 C1580 0.929 . S
C1572 H1566 0.930 . S
C1572 C1573 1.367 . S
C1572 C1580 1.378 . S
C1573 C1572 1.367 . S
C1573 C1581 1.433 . S
C1574 H1570 0.929 . S
C1574 C1576 1.378 . S
C1574 C1578 1.350 . S
C1575 C1578 1.463 . S
C1575 C1580 1.350 . S
C1575 N1583 1.427 . S
C1576 H1567 0.930 . S
C1576 C1574 1.378 . S
C1576 C1577 1.367 . S
C1577 C1576 1.367 . S
C1577 C1579 1.433 . S
C1578 C1574 1.350 . S
C1578 C1575 1.463 . S
C1578 N1582 1.427 . S
C1579 H1569 0.929 . S
C1579 C1577 1.433 . S
C1579 N1582 1.384 . S
C1580 H1571 0.929 . S
C1580 C1572 1.378 . S
C1580 C1575 1.350 . S
C1581 H1568 0.929 . S
C1581 C1573 1.433 . S
C1581 N1583 1.384 . S
N1582 C1578 1.427 . S
N1582 C1579 1.384 . S
N1583 C1575 1.427 . S
N1583 C1581 1.384 . S
H1584 C1590 0.930 . S
H1585 C1594 0.930 . S
H1586 C1599 0.929 . S
H1587 C1597 0.929 . S
H1588 C1592 0.929 . S
H1589 C1598 0.929 . S
C1590 H1584 0.930 . S
C1590 C1591 1.367 . S
C1590 C1598 1.378 . S
C1591 C1590 1.367 . S
C1591 C1599 1.433 . S
C1592 H1588 0.929 . S
C1592 C1594 1.378 . S
C1592 C1596 1.350 . S
C1593 C1596 1.463 . S
C1593 C1598 1.350 . S
C1593 N1601 1.427 . S
C1594 H1585 0.930 . S
C1594 C1592 1.378 . S
C1594 C1595 1.367 . S
C1595 C1594 1.367 . S
C1595 C1597 1.433 . S
C1596 C1592 1.350 . S
C1596 C1593 1.463 . S
C1596 N1600 1.427 . S
C1597 H1587 0.929 . S
C1597 C1595 1.433 . S
C1597 N1600 1.384 . S
C1598 H1589 0.929 . S
C1598 C1590 1.378 . S
C1598 C1593 1.350 . S
C1599 H1586 0.929 . S
C1599 C1591 1.433 . S
C1599 N1601 1.384 . S
N1600 C1596 1.427 . S
N1600 C1597 1.384 . S
N1601 C1593 1.427 . S
N1601 C1599 1.384 . S
H1602 C1608 0.930 . S
H1603 C1612 0.930 . S
H1604 C1617 0.929 . S
H1605 C1615 0.929 . S
H1606 C1610 0.929 . S
H1607 C1616 0.929 . S
C1608 H1602 0.930 . S
C1608 C1609 1.367 . S
C1608 C1616 1.378 . S
C1609 C1608 1.367 . S
C1609 C1617 1.433 . S
C1610 H1606 0.929 . S
C1610 C1612 1.378 . S
C1610 C1614 1.350 . S
C1611 C1614 1.463 . S
C1611 C1616 1.350 . S
C1611 N1619 1.427 . S
C1612 H1603 0.930 . S
C1612 C1610 1.378 . S
C1612 C1613 1.367 . S
C1613 C1612 1.367 . S
C1613 C1615 1.433 . S
C1614 C1610 1.350 . S
C1614 C1611 1.463 . S
C1614 N1618 1.427 . S
C1615 H1605 0.929 . S
C1615 C1613 1.433 . S
C1615 N1618 1.384 . S
C1616 H1607 0.929 . S
C1616 C1608 1.378 . S
C1616 C1611 1.350 . S
C1617 H1604 0.929 . S
C1617 C1609 1.433 . S
C1617 N1619 1.384 . S
N1618 C1614 1.427 . S
N1618 C1615 1.384 . S
N1619 C1611 1.427 . S
N1619 C1617 1.384 . S
H1620 C1626 0.930 . S
H1621 C1630 0.930 . S
H1622 C1635 0.929 . S
H1623 C1633 0.929 . S
H1624 C1628 0.929 . S
H1625 C1634 0.929 . S
C1626 H1620 0.930 . S
C1626 C1627 1.367 . S
C1626 C1634 1.378 1_565 S
C1627 C1626 1.367 . S
C1627 C1635 1.433 . S
C1628 H1624 0.929 . S
C1628 C1630 1.378 1_565 S
C1628 C1632 1.350 1_565 S
C1629 C1632 1.463 1_566 S
C1629 C1634 1.350 1_565 S
C1629 N1637 1.427 . S
C1630 H1621 0.930 . S
C1630 C1628 1.378 1_545 S
C1630 C1631 1.367 . S
C1631 C1630 1.367 . S
C1631 C1633 1.433 . S
C1632 C1628 1.350 1_545 S
C1632 C1629 1.463 1_544 S
C1632 N1636 1.427 . S
C1633 H1623 0.929 . S
C1633 C1631 1.433 . S
C1633 N1636 1.384 . S
C1634 H1625 0.929 . S
C1634 C1626 1.378 1_545 S
C1634 C1629 1.350 1_545 S
C1635 H1622 0.929 . S
C1635 C1627 1.433 . S
C1635 N1637 1.384 . S
N1636 C1632 1.427 . S
N1636 C1633 1.384 . S
N1637 C1629 1.427 . S
N1637 C1635 1.384 . S
H1638 C1644 0.930 . S
H1639 C1648 0.930 . S
H1640 C1653 0.929 . S
H1641 C1651 0.929 . S
H1642 C1646 0.936 . S
H1643 C1652 0.936 . S
C1644 H1638 0.930 . S
C1644 C1645 1.367 . S
C1644 C1652 1.371 1_655 S
C1645 C1644 1.367 . S
C1645 C1653 1.433 . S
C1646 H1642 0.936 . S
C1646 C1648 1.371 1_655 S
C1646 C1650 1.350 1_655 S
C1647 C1650 1.463 1_654 S
C1647 C1652 1.350 1_655 S
C1647 N1655 1.427 . S
C1648 H1639 0.930 . S
C1648 C1646 1.371 1_455 S
C1648 C1649 1.367 . S
C1649 C1648 1.367 . S
C1649 C1651 1.433 . S
C1650 C1646 1.350 1_455 S
C1650 C1647 1.463 1_456 S
C1650 N1654 1.427 . S
C1651 H1641 0.929 . S
C1651 C1649 1.433 . S
C1651 N1654 1.384 . S
C1652 H1643 0.936 . S
C1652 C1644 1.371 1_455 S
C1652 C1647 1.350 1_455 S
C1653 H1640 0.929 . S
C1653 C1645 1.433 . S
C1653 N1655 1.384 . S
N1654 C1650 1.427 . S
N1654 C1651 1.384 . S
N1655 C1647 1.427 . S
N1655 C1653 1.384 . S
H1656 C1662 0.930 . S
H1657 C1666 0.930 . S
H1658 C1671 0.929 . S
H1659 C1669 0.929 . S
H1660 C1664 0.929 . S
H1661 C1670 0.929 . S
C1662 H1656 0.930 . S
C1662 C1663 1.367 . S
C1662 C1670 1.378 . S
C1663 C1662 1.367 . S
C1663 C1671 1.433 . S
C1664 H1660 0.929 . S
C1664 C1666 1.378 . S
C1664 C1668 1.350 . S
C1665 C1668 1.463 1_556 S
C1665 C1670 1.350 . S
C1665 N1673 1.427 . S
C1666 H1657 0.930 . S
C1666 C1664 1.378 . S
C1666 C1667 1.367 . S
C1667 C1666 1.367 . S
C1667 C1669 1.433 . S
C1668 C1664 1.350 . S
C1668 C1665 1.463 1_554 S
C1668 N1672 1.427 . S
C1669 H1659 0.929 . S
C1669 C1667 1.433 . S
C1669 N1672 1.384 . S
C1670 H1661 0.929 . S
C1670 C1662 1.378 . S
C1670 C1665 1.350 . S
C1671 H1658 0.929 . S
C1671 C1663 1.433 . S
C1671 N1673 1.384 . S
N1672 C1668 1.427 . S
N1672 C1669 1.384 . S
N1673 C1665 1.427 . S
N1673 C1671 1.384 . S
H1674 C1680 0.930 . S
H1675 C1684 0.930 . S
H1676 C1689 0.929 . S
H1677 C1687 0.929 . S
H1678 C1682 0.929 1_556 S
H1679 C1688 0.929 1_554 S
C1680 H1674 0.930 . S
C1680 C1681 1.367 . S
C1680 C1688 1.378 . S
C1681 C1680 1.367 . S
C1681 C1689 1.433 . S
C1682 H1678 0.929 1_554 S
C1682 C1684 1.378 . S
C1682 C1686 1.350 . S
C1683 C1686 1.463 1_566 S
C1683 C1688 1.350 . S
C1683 N1691 1.427 1_565 S
C1684 H1675 0.930 . S
C1684 C1682 1.378 . S
C1684 C1685 1.367 . S
C1685 C1684 1.367 . S
C1685 C1687 1.433 . S
C1686 C1682 1.350 . S
C1686 C1683 1.463 1_544 S
C1686 N1690 1.427 1_545 S
C1687 H1677 0.929 . S
C1687 C1685 1.433 . S
C1687 N1690 1.384 1_545 S
C1688 H1679 0.929 1_556 S
C1688 C1680 1.378 . S
C1688 C1683 1.350 . S
C1689 H1676 0.929 . S
C1689 C1681 1.433 . S
C1689 N1691 1.384 1_565 S
N1690 C1686 1.427 1_565 S
N1690 C1687 1.384 1_565 S
N1691 C1683 1.427 1_545 S
N1691 C1689 1.384 1_545 S
H1692 C1698 0.930 . S
H1693 C1702 0.930 . S
H1694 C1707 0.929 . S
H1695 C1705 0.929 . S
H1696 C1700 0.929 . S
H1697 C1706 0.929 . S
C1698 H1692 0.930 . S
C1698 C1699 1.367 . S
C1698 C1706 1.378 . S
C1699 C1698 1.367 . S
C1699 C1707 1.433 . S
C1700 H1696 0.929 . S
C1700 C1702 1.378 . S
C1700 C1704 1.350 . S
C1701 C1704 1.463 1_456 S
C1701 C1706 1.350 . S
C1701 N1709 1.427 . S
C1702 H1693 0.930 . S
C1702 C1700 1.378 . S
C1702 C1703 1.367 . S
C1703 C1702 1.367 . S
C1703 C1705 1.433 . S
C1704 C1700 1.350 . S
C1704 C1701 1.463 1_654 S
C1704 N1708 1.427 . S
C1705 H1695 0.929 . S
C1705 C1703 1.433 . S
C1705 N1708 1.384 . S
C1706 H1697 0.929 . S
C1706 C1698 1.378 . S
C1706 C1701 1.350 . S
C1707 H1694 0.929 . S
C1707 C1699 1.433 . S
C1707 N1709 1.384 . S
N1708 C1704 1.427 . S
N1708 C1705 1.384 . S
N1709 C1701 1.427 . S
N1709 C1707 1.384 . S
H1710 C1716 0.930 . S
H1711 C1720 0.930 . S
H1712 C1725 0.929 . S
H1713 C1723 0.929 . S
H1714 C1718 0.929 . S
H1715 C1724 0.929 . S
C1716 H1710 0.930 . S
C1716 C1717 1.367 . S
C1716 C1724 1.378 . S
C1717 C1716 1.367 . S
C1717 C1725 1.433 . S
C1718 H1714 0.929 . S
C1718 C1720 1.378 . S
C1718 C1722 1.350 . S
C1719 C1722 1.463 1_554 S
C1719 C1724 1.350 . S
C1719 N1727 1.427 . S
C1720 H1711 0.930 . S
C1720 C1718 1.378 . S
C1720 C1721 1.367 . S
C1721 C1720 1.367 . S
C1721 C1723 1.433 . S
C1722 C1718 1.350 . S
C1722 C1719 1.463 1_556 S
C1722 N1726 1.427 . S
C1723 H1713 0.929 . S
C1723 C1721 1.433 . S
C1723 N1726 1.384 . S
C1724 H1715 0.929 . S
C1724 C1716 1.378 . S
C1724 C1719 1.350 . S
C1725 H1712 0.929 . S
C1725 C1717 1.433 . S
C1725 N1727 1.384 . S
N1726 C1722 1.427 . S
N1726 C1723 1.384 . S
N1727 C1719 1.427 . S
N1727 C1725 1.384 . S
H1728 C1734 0.930 . S
H1729 C1738 0.930 . S
H1730 C1743 0.929 . S
H1731 C1741 0.929 . S
H1732 C1736 0.929 . S
H1733 C1742 0.929 . S
C1734 H1728 0.930 . S
C1734 C1735 1.367 . S
C1734 C1742 1.378 . S
C1735 C1734 1.367 . S
C1735 C1743 1.433 . S
C1736 H1732 0.929 . S
C1736 C1738 1.378 . S
C1736 C1740 1.350 . S
C1737 C1740 1.463 . S
C1737 C1742 1.350 . S
C1737 N1745 1.427 . S
C1738 H1729 0.930 . S
C1738 C1736 1.378 . S
C1738 C1739 1.367 . S
C1739 C1738 1.367 . S
C1739 C1741 1.433 . S
C1740 C1736 1.350 . S
C1740 C1737 1.463 . S
C1740 N1744 1.427 . S
C1741 H1731 0.929 . S
C1741 C1739 1.433 . S
C1741 N1744 1.384 . S
C1742 H1733 0.929 . S
C1742 C1734 1.378 . S
C1742 C1737 1.350 . S
C1743 H1730 0.929 . S
C1743 C1735 1.433 . S
C1743 N1745 1.384 . S
N1744 C1740 1.427 . S
N1744 C1741 1.384 . S
N1745 C1737 1.427 . S
N1745 C1743 1.384 . S
H1746 C1752 0.930 . S
H1747 C1756 0.930 . S
H1748 C1761 0.929 . S
H1749 C1759 0.929 . S
H1750 C1754 0.929 . S
H1751 C1760 0.929 . S
C1752 H1746 0.930 . S
C1752 C1753 1.367 . S
C1752 C1760 1.378 . S
C1753 C1752 1.367 . S
C1753 C1761 1.433 . S
C1754 H1750 0.929 . S
C1754 C1756 1.378 . S
C1754 C1758 1.350 . S
C1755 C1758 1.463 . S
C1755 C1760 1.350 . S
C1755 N1763 1.427 . S
C1756 H1747 0.930 . S
C1756 C1754 1.378 . S
C1756 C1757 1.367 . S
C1757 C1756 1.367 . S
C1757 C1759 1.433 . S
C1758 C1754 1.350 . S
C1758 C1755 1.463 . S
C1758 N1762 1.427 . S
C1759 H1749 0.929 . S
C1759 C1757 1.433 . S
C1759 N1762 1.384 . S
C1760 H1751 0.929 . S
C1760 C1752 1.378 . S
C1760 C1755 1.350 . S
C1761 H1748 0.929 . S
C1761 C1753 1.433 . S
C1761 N1763 1.384 . S
N1762 C1758 1.427 . S
N1762 C1759 1.384 . S
N1763 C1755 1.427 . S
N1763 C1761 1.384 . S
H1764 C1770 0.930 . S
H1765 C1774 0.930 . S
H1766 C1779 0.929 . S
H1767 C1777 0.929 . S
H1768 C1772 0.929 . S
H1769 C1778 0.929 . S
C1770 H1764 0.930 . S
C1770 C1771 1.367 . S
C1770 C1778 1.378 . S
C1771 C1770 1.367 . S
C1771 C1779 1.433 . S
C1772 H1768 0.929 . S
C1772 C1774 1.378 . S
C1772 C1776 1.350 . S
C1773 C1776 1.463 . S
C1773 C1778 1.350 . S
C1773 N1781 1.427 . S
C1774 H1765 0.930 . S
C1774 C1772 1.378 . S
C1774 C1775 1.367 . S
C1775 C1774 1.367 . S
C1775 C1777 1.433 . S
C1776 C1772 1.350 . S
C1776 C1773 1.463 . S
C1776 N1780 1.427 . S
C1777 H1767 0.929 . S
C1777 C1775 1.433 . S
C1777 N1780 1.384 . S
C1778 H1769 0.929 . S
C1778 C1770 1.378 . S
C1778 C1773 1.350 . S
C1779 H1766 0.929 . S
C1779 C1771 1.433 . S
C1779 N1781 1.384 . S
N1780 C1776 1.427 . S
N1780 C1777 1.384 . S
N1781 C1773 1.427 . S
N1781 C1779 1.384 . S
H1782 C1788 0.930 . S
H1783 C1792 0.930 . S
H1784 C1797 0.929 . S
H1785 C1795 0.929 . S
H1786 C1790 0.929 . S
H1787 C1796 0.929 . S
C1788 H1782 0.930 . S
C1788 C1789 1.367 . S
C1788 C1796 1.378 . S
C1789 C1788 1.367 . S
C1789 C1797 1.433 . S
C1790 H1786 0.929 . S
C1790 C1792 1.378 . S
C1790 C1794 1.350 . S
C1791 C1794 1.463 . S
C1791 C1796 1.350 . S
C1791 N1799 1.427 . S
C1792 H1783 0.930 . S
C1792 C1790 1.378 . S
C1792 C1793 1.367 . S
C1793 C1792 1.367 . S
C1793 C1795 1.433 . S
C1794 C1790 1.350 . S
C1794 C1791 1.463 . S
C1794 N1798 1.427 . S
C1795 H1785 0.929 . S
C1795 C1793 1.433 . S
C1795 N1798 1.384 . S
C1796 H1787 0.929 . S
C1796 C1788 1.378 . S
C1796 C1791 1.350 . S
C1797 H1784 0.929 . S
C1797 C1789 1.433 . S
C1797 N1799 1.384 . S
N1798 C1794 1.427 . S
N1798 C1795 1.384 . S
N1799 C1791 1.427 . S
N1799 C1797 1.384 . S
H1800 C1806 0.930 . S
H1801 C1810 0.930 . S
H1802 C1815 0.929 . S
H1803 C1813 0.929 . S
H1804 C1808 0.929 . S
H1805 C1814 0.929 . S
C1806 H1800 0.930 . S
C1806 C1807 1.367 . S
C1806 C1814 1.378 . S
C1807 C1806 1.367 . S
C1807 C1815 1.433 . S
C1808 H1804 0.929 . S
C1808 C1810 1.378 . S
C1808 C1812 1.350 . S
C1809 C1812 1.463 . S
C1809 C1814 1.350 . S
C1809 N1817 1.427 . S
C1810 H1801 0.930 . S
C1810 C1808 1.378 . S
C1810 C1811 1.367 . S
C1811 C1810 1.367 . S
C1811 C1813 1.433 . S
C1812 C1808 1.350 . S
C1812 C1809 1.463 . S
C1812 N1816 1.427 . S
C1813 H1803 0.929 . S
C1813 C1811 1.433 . S
C1813 N1816 1.384 . S
C1814 H1805 0.929 . S
C1814 C1806 1.378 . S
C1814 C1809 1.350 . S
C1815 H1802 0.929 . S
C1815 C1807 1.433 . S
C1815 N1817 1.384 . S
N1816 C1812 1.427 . S
N1816 C1813 1.384 . S
N1817 C1809 1.427 . S
N1817 C1815 1.384 . S
H1818 C1824 0.930 . S
H1819 C1828 0.930 . S
H1820 C1833 0.929 . S
H1821 C1831 0.929 . S
H1822 C1826 0.929 . S
H1823 C1832 0.929 . S
C1824 H1818 0.930 . S
C1824 C1825 1.367 . S
C1824 C1832 1.378 . S
C1825 C1824 1.367 . S
C1825 C1833 1.433 . S
C1826 H1822 0.929 . S
C1826 C1828 1.378 . S
C1826 C1830 1.350 . S
C1827 C1830 1.463 . S
C1827 C1832 1.350 . S
C1827 N1835 1.427 . S
C1828 H1819 0.930 . S
C1828 C1826 1.378 . S
C1828 C1829 1.367 . S
C1829 C1828 1.367 . S
C1829 C1831 1.433 . S
C1830 C1826 1.350 . S
C1830 C1827 1.463 . S
C1830 N1834 1.427 . S
C1831 H1821 0.929 . S
C1831 C1829 1.433 . S
C1831 N1834 1.384 . S
C1832 H1823 0.929 . S
C1832 C1824 1.378 . S
C1832 C1827 1.350 . S
C1833 H1820 0.929 . S
C1833 C1825 1.433 . S
C1833 N1835 1.384 . S
N1834 C1830 1.427 . S
N1834 C1831 1.384 . S
N1835 C1827 1.427 . S
N1835 C1833 1.384 . S
H1836 C1842 0.930 . S
H1837 C1846 0.930 . S
H1838 C1851 0.929 . S
H1839 C1849 0.929 . S
H1840 C1844 0.929 . S
H1841 C1850 0.929 . S
C1842 H1836 0.930 . S
C1842 C1843 1.367 . S
C1842 C1850 1.378 . S
C1843 C1842 1.367 . S
C1843 C1851 1.433 . S
C1844 H1840 0.929 . S
C1844 C1846 1.378 . S
C1844 C1848 1.350 . S
C1845 C1848 1.463 . S
C1845 C1850 1.350 . S
C1845 N1853 1.427 . S
C1846 H1837 0.930 . S
C1846 C1844 1.378 . S
C1846 C1847 1.367 . S
C1847 C1846 1.367 . S
C1847 C1849 1.433 . S
C1848 C1844 1.350 . S
C1848 C1845 1.463 . S
C1848 N1852 1.427 . S
C1849 H1839 0.929 . S
C1849 C1847 1.433 . S
C1849 N1852 1.384 . S
C1850 H1841 0.929 . S
C1850 C1842 1.378 . S
C1850 C1845 1.350 . S
C1851 H1838 0.929 . S
C1851 C1843 1.433 . S
C1851 N1853 1.384 . S
N1852 C1848 1.427 . S
N1852 C1849 1.384 . S
N1853 C1845 1.427 . S
N1853 C1851 1.384 . S
H1854 C1860 0.930 . S
H1855 C1864 0.930 . S
H1856 C1869 0.929 . S
H1857 C1867 0.929 . S
H1858 C1862 0.929 . S
H1859 C1868 0.929 . S
C1860 H1854 0.930 . S
C1860 C1861 1.367 . S
C1860 C1868 1.378 . S
C1861 C1860 1.367 . S
C1861 C1869 1.433 . S
C1862 H1858 0.929 . S
C1862 C1864 1.378 . S
C1862 C1866 1.350 . S
C1863 C1866 1.463 . S
C1863 C1868 1.350 . S
C1863 N1871 1.427 . S
C1864 H1855 0.930 . S
C1864 C1862 1.378 . S
C1864 C1865 1.367 . S
C1865 C1864 1.367 . S
C1865 C1867 1.433 . S
C1866 C1862 1.350 . S
C1866 C1863 1.463 . S
C1866 N1870 1.427 . S
C1867 H1857 0.929 . S
C1867 C1865 1.433 . S
C1867 N1870 1.384 . S
C1868 H1859 0.929 . S
C1868 C1860 1.378 . S
C1868 C1863 1.350 . S
C1869 H1856 0.929 . S
C1869 C1861 1.433 . S
C1869 N1871 1.384 . S
N1870 C1866 1.427 . S
N1870 C1867 1.384 . S
N1871 C1863 1.427 . S
N1871 C1869 1.384 . S
H1872 C1878 0.930 . S
H1873 C1882 0.930 . S
H1874 C1887 0.929 . S
H1875 C1885 0.929 . S
H1876 C1880 0.929 . S
H1877 C1886 0.929 . S
C1878 H1872 0.930 . S
C1878 C1879 1.367 . S
C1878 C1886 1.378 . S
C1879 C1878 1.367 . S
C1879 C1887 1.433 . S
C1880 H1876 0.929 . S
C1880 C1882 1.378 . S
C1880 C1884 1.350 . S
C1881 C1884 1.463 . S
C1881 C1886 1.350 . S
C1881 N1889 1.427 . S
C1882 H1873 0.930 . S
C1882 C1880 1.378 . S
C1882 C1883 1.367 . S
C1883 C1882 1.367 . S
C1883 C1885 1.433 . S
C1884 C1880 1.350 . S
C1884 C1881 1.463 . S
C1884 N1888 1.427 . S
C1885 H1875 0.929 . S
C1885 C1883 1.433 . S
C1885 N1888 1.384 . S
C1886 H1877 0.929 . S
C1886 C1878 1.378 . S
C1886 C1881 1.350 . S
C1887 H1874 0.929 . S
C1887 C1879 1.433 . S
C1887 N1889 1.384 . S
N1888 C1884 1.427 . S
N1888 C1885 1.384 . S
N1889 C1881 1.427 . S
N1889 C1887 1.384 . S
H1890 C1896 0.930 . S
H1891 C1900 0.930 . S
H1892 C1905 0.929 . S
H1893 C1903 0.929 . S
H1894 C1898 0.929 . S
H1895 C1904 0.929 . S
C1896 H1890 0.930 . S
C1896 C1897 1.367 . S
C1896 C1904 1.378 . S
C1897 C1896 1.367 . S
C1897 C1905 1.433 . S
C1898 H1894 0.929 . S
C1898 C1900 1.378 . S
C1898 C1902 1.350 . S
C1899 C1902 1.463 . S
C1899 C1904 1.350 . S
C1899 N1907 1.427 . S
C1900 H1891 0.930 . S
C1900 C1898 1.378 . S
C1900 C1901 1.367 . S
C1901 C1900 1.367 . S
C1901 C1903 1.433 . S
C1902 C1898 1.350 . S
C1902 C1899 1.463 . S
C1902 N1906 1.427 . S
C1903 H1893 0.929 . S
C1903 C1901 1.433 . S
C1903 N1906 1.384 . S
C1904 H1895 0.929 . S
C1904 C1896 1.378 . S
C1904 C1899 1.350 . S
C1905 H1892 0.929 . S
C1905 C1897 1.433 . S
C1905 N1907 1.384 . S
N1906 C1902 1.427 . S
N1906 C1903 1.384 . S
N1907 C1899 1.427 . S
N1907 C1905 1.384 . S
H1908 C1914 0.930 . S
H1909 C1918 0.930 . S
H1910 C1923 0.929 . S
H1911 C1921 0.929 . S
H1912 C1916 0.929 . S
H1913 C1922 0.929 . S
C1914 H1908 0.930 . S
C1914 C1915 1.367 . S
C1914 C1922 1.378 . S
C1915 C1914 1.367 . S
C1915 C1923 1.433 . S
C1916 H1912 0.929 . S
C1916 C1918 1.378 . S
C1916 C1920 1.350 . S
C1917 C1920 1.463 . S
C1917 C1922 1.350 . S
C1917 N1925 1.427 . S
C1918 H1909 0.930 . S
C1918 C1916 1.378 . S
C1918 C1919 1.367 . S
C1919 C1918 1.367 . S
C1919 C1921 1.433 . S
C1920 C1916 1.350 . S
C1920 C1917 1.463 . S
C1920 N1924 1.427 . S
C1921 H1911 0.929 . S
C1921 C1919 1.433 . S
C1921 N1924 1.384 . S
C1922 H1913 0.929 . S
C1922 C1914 1.378 . S
C1922 C1917 1.350 . S
C1923 H1910 0.929 . S
C1923 C1915 1.433 . S
C1923 N1925 1.384 . S
N1924 C1920 1.427 . S
N1924 C1921 1.384 . S
N1925 C1917 1.427 . S
N1925 C1923 1.384 . S
H1926 C1932 0.930 . S
H1927 C1936 0.930 . S
H1928 C1941 0.929 . S
H1929 C1939 0.929 . S
H1930 C1934 0.929 . S
H1931 C1940 0.929 . S
C1932 H1926 0.930 . S
C1932 C1933 1.367 . S
C1932 C1940 1.378 . S
C1933 C1932 1.367 . S
C1933 C1941 1.433 . S
C1934 H1930 0.929 . S
C1934 C1936 1.378 . S
C1934 C1938 1.350 . S
C1935 C1938 1.463 . S
C1935 C1940 1.350 . S
C1935 N1943 1.427 . S
C1936 H1927 0.930 . S
C1936 C1934 1.378 . S
C1936 C1937 1.367 . S
C1937 C1936 1.367 . S
C1937 C1939 1.433 . S
C1938 C1934 1.350 . S
C1938 C1935 1.463 . S
C1938 N1942 1.427 . S
C1939 H1929 0.929 . S
C1939 C1937 1.433 . S
C1939 N1942 1.384 . S
C1940 H1931 0.929 . S
C1940 C1932 1.378 . S
C1940 C1935 1.350 . S
C1941 H1928 0.929 . S
C1941 C1933 1.433 . S
C1941 N1943 1.384 . S
N1942 C1938 1.427 . S
N1942 C1939 1.384 . S
N1943 C1935 1.427 . S
N1943 C1941 1.384 . S
H1944 C1950 0.930 . S
H1945 C1954 0.930 . S
H1946 C1959 0.929 . S
H1947 C1957 0.929 . S
H1948 C1952 0.929 . S
H1949 C1958 0.929 . S
C1950 H1944 0.930 . S
C1950 C1951 1.367 . S
C1950 C1958 1.378 . S
C1951 C1950 1.367 . S
C1951 C1959 1.433 . S
C1952 H1948 0.929 . S
C1952 C1954 1.378 . S
C1952 C1956 1.350 . S
C1953 C1956 1.463 . S
C1953 C1958 1.350 . S
C1953 N1961 1.427 . S
C1954 H1945 0.930 . S
C1954 C1952 1.378 . S
C1954 C1955 1.367 . S
C1955 C1954 1.367 . S
C1955 C1957 1.433 . S
C1956 C1952 1.350 . S
C1956 C1953 1.463 . S
C1956 N1960 1.427 . S
C1957 H1947 0.929 . S
C1957 C1955 1.433 . S
C1957 N1960 1.384 . S
C1958 H1949 0.929 . S
C1958 C1950 1.378 . S
C1958 C1953 1.350 . S
C1959 H1946 0.929 . S
C1959 C1951 1.433 . S
C1959 N1961 1.384 . S
N1960 C1956 1.427 . S
N1960 C1957 1.384 . S
N1961 C1953 1.427 . S
N1961 C1959 1.384 . S
H1962 C1968 0.930 . S
H1963 C1972 0.930 . S
H1964 C1977 0.929 . S
H1965 C1975 0.929 . S
H1966 C1970 0.929 . S
H1967 C1976 0.929 . S
C1968 H1962 0.930 . S
C1968 C1969 1.367 . S
C1968 C1976 1.378 . S
C1969 C1968 1.367 . S
C1969 C1977 1.433 . S
C1970 H1966 0.929 . S
C1970 C1972 1.378 . S
C1970 C1974 1.350 . S
C1971 C1974 1.463 . S
C1971 C1976 1.350 . S
C1971 N1979 1.427 . S
C1972 H1963 0.930 . S
C1972 C1970 1.378 . S
C1972 C1973 1.367 . S
C1973 C1972 1.367 . S
C1973 C1975 1.433 . S
C1974 C1970 1.350 . S
C1974 C1971 1.463 . S
C1974 N1978 1.427 . S
C1975 H1965 0.929 . S
C1975 C1973 1.433 . S
C1975 N1978 1.384 . S
C1976 H1967 0.929 . S
C1976 C1968 1.378 . S
C1976 C1971 1.350 . S
C1977 H1964 0.929 . S
C1977 C1969 1.433 . S
C1977 N1979 1.384 . S
N1978 C1974 1.427 . S
N1978 C1975 1.384 . S
N1979 C1971 1.427 . S
N1979 C1977 1.384 . S
H1980 C1986 0.930 . S
H1981 C1990 0.930 . S
H1982 C1995 0.929 . S
H1983 C1993 0.929 . S
H1984 C1988 0.929 . S
H1985 C1994 0.929 . S
C1986 H1980 0.930 . S
C1986 C1987 1.367 . S
C1986 C1994 1.378 . S
C1987 C1986 1.367 . S
C1987 C1995 1.433 . S
C1988 H1984 0.929 . S
C1988 C1990 1.378 . S
C1988 C1992 1.350 . S
C1989 C1992 1.463 . S
C1989 C1994 1.350 . S
C1989 N1997 1.427 . S
C1990 H1981 0.930 . S
C1990 C1988 1.378 . S
C1990 C1991 1.367 . S
C1991 C1990 1.367 . S
C1991 C1993 1.433 . S
C1992 C1988 1.350 . S
C1992 C1989 1.463 . S
C1992 N1996 1.427 . S
C1993 H1983 0.929 . S
C1993 C1991 1.433 . S
C1993 N1996 1.384 . S
C1994 H1985 0.929 . S
C1994 C1986 1.378 . S
C1994 C1989 1.350 . S
C1995 H1982 0.929 . S
C1995 C1987 1.433 . S
C1995 N1997 1.384 . S
N1996 C1992 1.427 . S
N1996 C1993 1.384 . S
N1997 C1989 1.427 . S
N1997 C1995 1.384 . S
H1998 C2004 0.930 . S
H1999 C2008 0.930 . S
H2000 C2013 0.929 . S
H2001 C2011 0.929 . S
H2002 C2006 0.929 . S
H2003 C2012 0.929 . S
C2004 H1998 0.930 . S
C2004 C2005 1.367 . S
C2004 C2012 1.378 . S
C2005 C2004 1.367 . S
C2005 C2013 1.433 . S
C2006 H2002 0.929 . S
C2006 C2008 1.378 . S
C2006 C2010 1.350 . S
C2007 C2010 1.463 . S
C2007 C2012 1.350 . S
C2007 N2015 1.427 . S
C2008 H1999 0.930 . S
C2008 C2006 1.378 . S
C2008 C2009 1.367 . S
C2009 C2008 1.367 . S
C2009 C2011 1.433 . S
C2010 C2006 1.350 . S
C2010 C2007 1.463 . S
C2010 N2014 1.427 . S
C2011 H2001 0.929 . S
C2011 C2009 1.433 . S
C2011 N2014 1.384 . S
C2012 H2003 0.929 . S
C2012 C2004 1.378 . S
C2012 C2007 1.350 . S
C2013 H2000 0.929 . S
C2013 C2005 1.433 . S
C2013 N2015 1.384 . S
N2014 C2010 1.427 . S
N2014 C2011 1.384 . S
N2015 C2007 1.427 . S
N2015 C2013 1.384 . S
H2016 C2022 0.930 . S
H2017 C2026 0.930 . S
H2018 C2031 0.929 . S
H2019 C2029 0.929 . S
H2020 C2024 0.929 . S
H2021 C2030 0.929 . S
C2022 H2016 0.930 . S
C2022 C2023 1.367 . S
C2022 C2030 1.378 . S
C2023 C2022 1.367 . S
C2023 C2031 1.433 . S
C2024 H2020 0.929 . S
C2024 C2026 1.378 . S
C2024 C2028 1.350 . S
C2025 C2028 1.463 . S
C2025 C2030 1.350 . S
C2025 N2033 1.427 . S
C2026 H2017 0.930 . S
C2026 C2024 1.378 . S
C2026 C2027 1.367 . S
C2027 C2026 1.367 . S
C2027 C2029 1.433 . S
C2028 C2024 1.350 . S
C2028 C2025 1.463 . S
C2028 N2032 1.427 . S
C2029 H2019 0.929 . S
C2029 C2027 1.433 . S
C2029 N2032 1.384 . S
C2030 H2021 0.929 . S
C2030 C2022 1.378 . S
C2030 C2025 1.350 . S
C2031 H2018 0.929 . S
C2031 C2023 1.433 . S
C2031 N2033 1.384 . S
N2032 C2028 1.427 . S
N2032 C2029 1.384 . S
N2033 C2025 1.427 . S
N2033 C2031 1.384 . S
H2034 C2040 0.930 . S
H2035 C2044 0.930 . S
H2036 C2049 0.929 . S
H2037 C2047 0.929 . S
H2038 C2042 0.929 . S
H2039 C2048 0.929 . S
C2040 H2034 0.930 . S
C2040 C2041 1.367 . S
C2040 C2048 1.378 . S
C2041 C2040 1.367 . S
C2041 C2049 1.433 . S
C2042 H2038 0.929 . S
C2042 C2044 1.378 . S
C2042 C2046 1.350 . S
C2043 C2046 1.463 . S
C2043 C2048 1.350 . S
C2043 N2051 1.427 . S
C2044 H2035 0.930 . S
C2044 C2042 1.378 . S
C2044 C2045 1.367 . S
C2045 C2044 1.367 . S
C2045 C2047 1.433 . S
C2046 C2042 1.350 . S
C2046 C2043 1.463 . S
C2046 N2050 1.427 . S
C2047 H2037 0.929 . S
C2047 C2045 1.433 . S
C2047 N2050 1.384 . S
C2048 H2039 0.929 . S
C2048 C2040 1.378 . S
C2048 C2043 1.350 . S
C2049 H2036 0.929 . S
C2049 C2041 1.433 . S
C2049 N2051 1.384 . S
N2050 C2046 1.427 . S
N2050 C2047 1.384 . S
N2051 C2043 1.427 . S
N2051 C2049 1.384 . S
H2052 C2058 0.930 . S
H2053 C2062 0.930 . S
H2054 C2067 0.929 . S
H2055 C2065 0.929 . S
H2056 C2060 0.929 . S
H2057 C2066 0.929 . S
C2058 H2052 0.930 . S
C2058 C2059 1.367 . S
C2058 C2066 1.378 . S
C2059 C2058 1.367 . S
C2059 C2067 1.433 . S
C2060 H2056 0.929 . S
C2060 C2062 1.378 . S
C2060 C2064 1.350 . S
C2061 C2064 1.463 . S
C2061 C2066 1.350 . S
C2061 N2069 1.427 . S
C2062 H2053 0.930 . S
C2062 C2060 1.378 . S
C2062 C2063 1.367 . S
C2063 C2062 1.367 . S
C2063 C2065 1.433 . S
C2064 C2060 1.350 . S
C2064 C2061 1.463 . S
C2064 N2068 1.427 . S
C2065 H2055 0.929 . S
C2065 C2063 1.433 . S
C2065 N2068 1.384 . S
C2066 H2057 0.929 . S
C2066 C2058 1.378 . S
C2066 C2061 1.350 . S
C2067 H2054 0.929 . S
C2067 C2059 1.433 . S
C2067 N2069 1.384 . S
N2068 C2064 1.427 . S
N2068 C2065 1.384 . S
N2069 C2061 1.427 . S
N2069 C2067 1.384 . S
H2070 C2076 0.930 . S
H2071 C2080 0.930 . S
H2072 C2085 0.929 . S
H2073 C2083 0.929 . S
H2074 C2078 0.929 . S
H2075 C2084 0.929 . S
C2076 H2070 0.930 . S
C2076 C2077 1.367 . S
C2076 C2084 1.378 . S
C2077 C2076 1.367 . S
C2077 C2085 1.433 . S
C2078 H2074 0.929 . S
C2078 C2080 1.378 . S
C2078 C2082 1.350 . S
C2079 C2082 1.463 . S
C2079 C2084 1.350 . S
C2079 N2087 1.427 . S
C2080 H2071 0.930 . S
C2080 C2078 1.378 . S
C2080 C2081 1.367 . S
C2081 C2080 1.367 . S
C2081 C2083 1.433 . S
C2082 C2078 1.350 . S
C2082 C2079 1.463 . S
C2082 N2086 1.427 . S
C2083 H2073 0.929 . S
C2083 C2081 1.433 . S
C2083 N2086 1.384 . S
C2084 H2075 0.929 . S
C2084 C2076 1.378 . S
C2084 C2079 1.350 . S
C2085 H2072 0.929 . S
C2085 C2077 1.433 . S
C2085 N2087 1.384 . S
N2086 C2082 1.427 . S
N2086 C2083 1.384 . S
N2087 C2079 1.427 . S
N2087 C2085 1.384 . S
H2088 C2094 0.930 . S
H2089 C2098 0.930 . S
H2090 C2103 0.929 . S
H2091 C2101 0.929 . S
H2092 C2096 0.929 . S
H2093 C2102 0.929 . S
C2094 H2088 0.930 . S
C2094 C2095 1.367 . S
C2094 C2102 1.378 . S
C2095 C2094 1.367 . S
C2095 C2103 1.433 . S
C2096 H2092 0.929 . S
C2096 C2098 1.378 . S
C2096 C2100 1.350 . S
C2097 C2100 1.463 . S
C2097 C2102 1.350 . S
C2097 N2105 1.427 . S
C2098 H2089 0.930 . S
C2098 C2096 1.378 . S
C2098 C2099 1.367 . S
C2099 C2098 1.367 . S
C2099 C2101 1.433 . S
C2100 C2096 1.350 . S
C2100 C2097 1.463 . S
C2100 N2104 1.427 . S
C2101 H2091 0.929 . S
C2101 C2099 1.433 . S
C2101 N2104 1.384 . S
C2102 H2093 0.929 . S
C2102 C2094 1.378 . S
C2102 C2097 1.350 . S
C2103 H2090 0.929 . S
C2103 C2095 1.433 . S
C2103 N2105 1.384 . S
N2104 C2100 1.427 . S
N2104 C2101 1.384 . S
N2105 C2097 1.427 . S
N2105 C2103 1.384 . S
H2106 C2112 0.930 . S
H2107 C2116 0.930 . S
H2108 C2121 0.929 . S
H2109 C2119 0.929 . S
H2110 C2114 0.929 . S
H2111 C2120 0.929 . S
C2112 H2106 0.930 . S
C2112 C2113 1.367 . S
C2112 C2120 1.378 . S
C2113 C2112 1.367 . S
C2113 C2121 1.433 . S
C2114 H2110 0.929 . S
C2114 C2116 1.378 . S
C2114 C2118 1.350 . S
C2115 C2118 1.463 . S
C2115 C2120 1.350 . S
C2115 N2123 1.427 . S
C2116 H2107 0.930 . S
C2116 C2114 1.378 . S
C2116 C2117 1.367 . S
C2117 C2116 1.367 . S
C2117 C2119 1.433 . S
C2118 C2114 1.350 . S
C2118 C2115 1.463 . S
C2118 N2122 1.427 . S
C2119 H2109 0.929 . S
C2119 C2117 1.433 . S
C2119 N2122 1.384 . S
C2120 H2111 0.929 . S
C2120 C2112 1.378 . S
C2120 C2115 1.350 . S
C2121 H2108 0.929 . S
C2121 C2113 1.433 . S
C2121 N2123 1.384 . S
N2122 C2118 1.427 . S
N2122 C2119 1.384 . S
N2123 C2115 1.427 . S
N2123 C2121 1.384 . S
H2124 C2130 0.930 . S
H2125 C2134 0.930 . S
H2126 C2139 0.929 . S
H2127 C2137 0.929 . S
H2128 C2132 0.929 . S
H2129 C2138 0.929 . S
C2130 H2124 0.930 . S
C2130 C2131 1.367 . S
C2130 C2138 1.378 . S
C2131 C2130 1.367 . S
C2131 C2139 1.433 . S
C2132 H2128 0.929 . S
C2132 C2134 1.378 . S
C2132 C2136 1.350 . S
C2133 C2136 1.463 . S
C2133 C2138 1.350 . S
C2133 N2141 1.427 . S
C2134 H2125 0.930 . S
C2134 C2132 1.378 . S
C2134 C2135 1.367 . S
C2135 C2134 1.367 . S
C2135 C2137 1.433 . S
C2136 C2132 1.350 . S
C2136 C2133 1.463 . S
C2136 N2140 1.427 . S
C2137 H2127 0.929 . S
C2137 C2135 1.433 . S
C2137 N2140 1.384 . S
C2138 H2129 0.929 . S
C2138 C2130 1.378 . S
C2138 C2133 1.350 . S
C2139 H2126 0.929 . S
C2139 C2131 1.433 . S
C2139 N2141 1.384 . S
N2140 C2136 1.427 . S
N2140 C2137 1.384 . S
N2141 C2133 1.427 . S
N2141 C2139 1.384 . S
H2142 C2148 0.930 . S
H2143 C2152 0.930 . S
H2144 C2157 0.929 . S
H2145 C2155 0.929 . S
H2146 C2150 0.929 . S
H2147 C2156 0.929 . S
C2148 H2142 0.930 . S
C2148 C2149 1.367 . S
C2148 C2156 1.378 . S
C2149 C2148 1.367 . S
C2149 C2157 1.433 . S
C2150 H2146 0.929 . S
C2150 C2152 1.378 . S
C2150 C2154 1.350 . S
C2151 C2154 1.463 . S
C2151 C2156 1.350 . S
C2151 N2159 1.427 . S
C2152 H2143 0.930 . S
C2152 C2150 1.378 . S
C2152 C2153 1.367 . S
C2153 C2152 1.367 . S
C2153 C2155 1.433 . S
C2154 C2150 1.350 . S
C2154 C2151 1.463 . S
C2154 N2158 1.427 . S
C2155 H2145 0.929 . S
C2155 C2153 1.433 . S
C2155 N2158 1.384 . S
C2156 H2147 0.929 . S
C2156 C2148 1.378 . S
C2156 C2151 1.350 . S
C2157 H2144 0.929 . S
C2157 C2149 1.433 . S
C2157 N2159 1.384 . S
N2158 C2154 1.427 . S
N2158 C2155 1.384 . S
N2159 C2151 1.427 . S
N2159 C2157 1.384 . S
H2160 C2166 0.930 . S
H2161 C2170 0.930 . S
H2162 C2175 0.929 . S
H2163 C2173 0.929 . S
H2164 C2168 0.929 . S
H2165 C2174 0.929 . S
C2166 H2160 0.930 . S
C2166 C2167 1.367 . S
C2166 C2174 1.378 . S
C2167 C2166 1.367 . S
C2167 C2175 1.433 . S
C2168 H2164 0.929 . S
C2168 C2170 1.378 . S
C2168 C2172 1.350 . S
C2169 C2172 1.463 1_455 S
C2169 C2174 1.350 . S
C2169 N2177 1.427 . S
C2170 H2161 0.930 . S
C2170 C2168 1.378 . S
C2170 C2171 1.367 . S
C2171 C2170 1.367 . S
C2171 C2173 1.433 . S
C2172 C2168 1.350 . S
C2172 C2169 1.463 1_655 S
C2172 N2176 1.427 . S
C2173 H2163 0.929 . S
C2173 C2171 1.433 . S
C2173 N2176 1.384 . S
C2174 H2165 0.929 . S
C2174 C2166 1.378 . S
C2174 C2169 1.350 . S
C2175 H2162 0.929 . S
C2175 C2167 1.433 . S
C2175 N2177 1.384 . S
N2176 C2172 1.427 . S
N2176 C2173 1.384 . S
N2177 C2169 1.427 . S
N2177 C2175 1.384 . S
H2178 C2184 0.930 . S
H2179 C2188 0.930 . S
H2180 C2193 0.929 . S
H2181 C2191 0.929 . S
H2182 C2186 0.929 . S
H2183 C2192 0.929 . S
C2184 H2178 0.930 . S
C2184 C2185 1.367 . S
C2184 C2192 1.378 . S
C2185 C2184 1.367 . S
C2185 C2193 1.433 . S
C2186 H2182 0.929 . S
C2186 C2188 1.378 . S
C2186 C2190 1.350 . S
C2187 C2190 1.463 . S
C2187 C2192 1.350 . S
C2187 N2195 1.427 . S
C2188 H2179 0.930 . S
C2188 C2186 1.378 . S
C2188 C2189 1.367 . S
C2189 C2188 1.367 . S
C2189 C2191 1.433 . S
C2190 C2186 1.350 . S
C2190 C2187 1.463 . S
C2190 N2194 1.427 . S
C2191 H2181 0.929 . S
C2191 C2189 1.433 . S
C2191 N2194 1.384 . S
C2192 H2183 0.929 . S
C2192 C2184 1.378 . S
C2192 C2187 1.350 . S
C2193 H2180 0.929 . S
C2193 C2185 1.433 . S
C2193 N2195 1.384 . S
N2194 C2190 1.427 . S
N2194 C2191 1.384 . S
N2195 C2187 1.427 . S
N2195 C2193 1.384 . S
H2196 C2202 0.930 . S
H2197 C2206 0.930 . S
H2198 C2211 0.929 . S
H2199 C2209 0.929 . S
H2200 C2204 0.929 . S
H2201 C2210 0.929 . S
C2202 H2196 0.930 . S
C2202 C2203 1.367 . S
C2202 C2210 1.378 . S
C2203 C2202 1.367 . S
C2203 C2211 1.433 . S
C2204 H2200 0.929 . S
C2204 C2206 1.378 . S
C2204 C2208 1.350 . S
C2205 C2208 1.463 1_545 S
C2205 C2210 1.350 . S
C2205 N2213 1.427 . S
C2206 H2197 0.930 . S
C2206 C2204 1.378 . S
C2206 C2207 1.367 . S
C2207 C2206 1.367 . S
C2207 C2209 1.433 . S
C2208 C2204 1.350 . S
C2208 C2205 1.463 1_565 S
C2208 N2212 1.427 . S
C2209 H2199 0.929 . S
C2209 C2207 1.433 . S
C2209 N2212 1.384 . S
C2210 H2201 0.929 . S
C2210 C2202 1.378 . S
C2210 C2205 1.350 . S
C2211 H2198 0.929 . S
C2211 C2203 1.433 . S
C2211 N2213 1.384 . S
N2212 C2208 1.427 . S
N2212 C2209 1.384 . S
N2213 C2205 1.427 . S
N2213 C2211 1.384 . S
H2214 C2220 0.930 . S
H2215 C2224 0.930 . S
H2216 C2229 0.929 . S
H2217 C2227 0.929 . S
H2218 C2222 0.929 . S
H2219 C2228 0.929 . S
C2220 H2214 0.930 . S
C2220 C2221 1.367 . S
C2220 C2228 1.378 . S
C2221 C2220 1.367 . S
C2221 C2229 1.433 . S
C2222 H2218 0.929 . S
C2222 C2224 1.378 . S
C2222 C2226 1.350 . S
C2223 C2226 1.463 1_545 S
C2223 C2228 1.350 . S
C2223 N2231 1.427 . S
C2224 H2215 0.930 . S
C2224 C2222 1.378 . S
C2224 C2225 1.367 . S
C2225 C2224 1.367 . S
C2225 C2227 1.433 . S
C2226 C2222 1.350 . S
C2226 C2223 1.463 1_565 S
C2226 N2230 1.427 . S
C2227 H2217 0.929 . S
C2227 C2225 1.433 . S
C2227 N2230 1.384 . S
C2228 H2219 0.929 . S
C2228 C2220 1.378 . S
C2228 C2223 1.350 . S
C2229 H2216 0.929 . S
C2229 C2221 1.433 . S
C2229 N2231 1.384 . S
N2230 C2226 1.427 . S
N2230 C2227 1.384 . S
N2231 C2223 1.427 . S
N2231 C2229 1.384 . S
H2232 C2238 0.930 . S
H2233 C2242 0.930 . S
H2234 C2247 0.929 . S
H2235 C2245 0.929 . S
H2236 C2240 0.929 . S
H2237 C2246 0.929 . S
C2238 H2232 0.930 . S
C2238 C2239 1.367 . S
C2238 C2246 1.378 . S
C2239 C2238 1.367 . S
C2239 C2247 1.433 . S
C2240 H2236 0.929 . S
C2240 C2242 1.378 . S
C2240 C2244 1.350 . S
C2241 C2244 1.463 1_655 S
C2241 C2246 1.350 . S
C2241 N2249 1.427 . S
C2242 H2233 0.930 . S
C2242 C2240 1.378 . S
C2242 C2243 1.367 . S
C2243 C2242 1.367 . S
C2243 C2245 1.433 . S
C2244 C2240 1.350 . S
C2244 C2241 1.463 1_455 S
C2244 N2248 1.427 . S
C2245 H2235 0.929 . S
C2245 C2243 1.433 . S
C2245 N2248 1.384 . S
C2246 H2237 0.929 . S
C2246 C2238 1.378 . S
C2246 C2241 1.350 . S
C2247 H2234 0.929 . S
C2247 C2239 1.433 . S
C2247 N2249 1.384 . S
N2248 C2244 1.427 . S
N2248 C2245 1.384 . S
N2249 C2241 1.427 . S
N2249 C2247 1.384 . S
H2250 C2256 0.930 . S
H2251 C2260 0.930 . S
H2252 C2265 0.929 . S
H2253 C2263 0.929 . S
H2254 C2258 0.929 . S
H2255 C2264 0.929 . S
C2256 H2250 0.930 . S
C2256 C2257 1.367 . S
C2256 C2264 1.378 . S
C2257 C2256 1.367 . S
C2257 C2265 1.433 . S
C2258 H2254 0.929 . S
C2258 C2260 1.378 . S
C2258 C2262 1.350 . S
C2259 C2262 1.463 . S
C2259 C2264 1.350 . S
C2259 N2267 1.427 . S
C2260 H2251 0.930 . S
C2260 C2258 1.378 . S
C2260 C2261 1.367 . S
C2261 C2260 1.367 . S
C2261 C2263 1.433 . S
C2262 C2258 1.350 . S
C2262 C2259 1.463 . S
C2262 N2266 1.427 . S
C2263 H2253 0.929 . S
C2263 C2261 1.433 . S
C2263 N2266 1.384 . S
C2264 H2255 0.929 . S
C2264 C2256 1.378 . S
C2264 C2259 1.350 . S
C2265 H2252 0.929 . S
C2265 C2257 1.433 . S
C2265 N2267 1.384 . S
N2266 C2262 1.427 . S
N2266 C2263 1.384 . S
N2267 C2259 1.427 . S
N2267 C2265 1.384 . S
H2268 C2274 0.930 . S
H2269 C2278 0.930 . S
H2270 C2283 0.929 . S
H2271 C2281 0.929 . S
H2272 C2276 0.929 . S
H2273 C2282 0.929 . S
C2274 H2268 0.930 . S
C2274 C2275 1.367 . S
C2274 C2282 1.378 . S
C2275 C2274 1.367 . S
C2275 C2283 1.433 . S
C2276 H2272 0.929 . S
C2276 C2278 1.378 . S
C2276 C2280 1.350 . S
C2277 C2280 1.463 . S
C2277 C2282 1.350 . S
C2277 N2285 1.427 . S
C2278 H2269 0.930 . S
C2278 C2276 1.378 . S
C2278 C2279 1.367 . S
C2279 C2278 1.367 . S
C2279 C2281 1.433 . S
C2280 C2276 1.350 . S
C2280 C2277 1.463 . S
C2280 N2284 1.427 . S
C2281 H2271 0.929 . S
C2281 C2279 1.433 . S
C2281 N2284 1.384 . S
C2282 H2273 0.929 . S
C2282 C2274 1.378 . S
C2282 C2277 1.350 . S
C2283 H2270 0.929 . S
C2283 C2275 1.433 . S
C2283 N2285 1.384 . S
N2284 C2280 1.427 . S
N2284 C2281 1.384 . S
N2285 C2277 1.427 . S
N2285 C2283 1.384 . S
H2286 C2292 0.930 . S
H2287 C2296 0.930 . S
H2288 C2301 0.929 . S
H2289 C2299 0.929 . S
H2290 C2294 0.929 . S
H2291 C2300 0.929 . S
C2292 H2286 0.930 . S
C2292 C2293 1.367 . S
C2292 C2300 1.378 . S
C2293 C2292 1.367 . S
C2293 C2301 1.433 . S
C2294 H2290 0.929 . S
C2294 C2296 1.378 . S
C2294 C2298 1.350 . S
C2295 C2298 1.463 . S
C2295 C2300 1.350 . S
C2295 N2303 1.427 . S
C2296 H2287 0.930 . S
C2296 C2294 1.378 . S
C2296 C2297 1.367 . S
C2297 C2296 1.367 . S
C2297 C2299 1.433 . S
C2298 C2294 1.350 . S
C2298 C2295 1.463 . S
C2298 N2302 1.427 . S
C2299 H2289 0.929 . S
C2299 C2297 1.433 . S
C2299 N2302 1.384 . S
C2300 H2291 0.929 . S
C2300 C2292 1.378 . S
C2300 C2295 1.350 . S
C2301 H2288 0.929 . S
C2301 C2293 1.433 . S
C2301 N2303 1.384 . S
N2302 C2298 1.427 . S
N2302 C2299 1.384 . S
N2303 C2295 1.427 . S
N2303 C2301 1.384 . S
H2304 C2310 0.930 . S
H2305 C2314 0.930 . S
H2306 C2319 0.929 . S
H2307 C2317 0.929 . S
H2308 C2312 0.929 . S
H2309 C2318 0.929 . S
C2310 H2304 0.930 . S
C2310 C2311 1.367 . S
C2310 C2318 1.378 . S
C2311 C2310 1.367 . S
C2311 C2319 1.433 . S
C2312 H2308 0.929 . S
C2312 C2314 1.378 . S
C2312 C2316 1.350 . S
C2313 C2316 1.463 . S
C2313 C2318 1.350 . S
C2313 N2321 1.427 . S
C2314 H2305 0.930 . S
C2314 C2312 1.378 . S
C2314 C2315 1.367 . S
C2315 C2314 1.367 . S
C2315 C2317 1.433 . S
C2316 C2312 1.350 . S
C2316 C2313 1.463 . S
C2316 N2320 1.427 . S
C2317 H2307 0.929 . S
C2317 C2315 1.433 . S
C2317 N2320 1.384 . S
C2318 H2309 0.929 . S
C2318 C2310 1.378 . S
C2318 C2313 1.350 . S
C2319 H2306 0.929 . S
C2319 C2311 1.433 . S
C2319 N2321 1.384 . S
N2320 C2316 1.427 . S
N2320 C2317 1.384 . S
N2321 C2313 1.427 . S
N2321 C2319 1.384 . S
H2322 C2328 0.930 . S
H2323 C2332 0.930 . S
H2324 C2337 0.929 . S
H2325 C2335 0.929 . S
H2326 C2330 0.929 . S
H2327 C2336 0.929 . S
C2328 H2322 0.930 . S
C2328 C2329 1.367 . S
C2328 C2336 1.378 . S
C2329 C2328 1.367 . S
C2329 C2337 1.433 . S
C2330 H2326 0.929 . S
C2330 C2332 1.378 . S
C2330 C2334 1.350 . S
C2331 C2334 1.463 . S
C2331 C2336 1.350 . S
C2331 N2339 1.427 . S
C2332 H2323 0.930 . S
C2332 C2330 1.378 . S
C2332 C2333 1.367 . S
C2333 C2332 1.367 . S
C2333 C2335 1.433 . S
C2334 C2330 1.350 . S
C2334 C2331 1.463 . S
C2334 N2338 1.427 . S
C2335 H2325 0.929 . S
C2335 C2333 1.433 . S
C2335 N2338 1.384 . S
C2336 H2327 0.929 . S
C2336 C2328 1.378 . S
C2336 C2331 1.350 . S
C2337 H2324 0.929 . S
C2337 C2329 1.433 . S
C2337 N2339 1.384 . S
N2338 C2334 1.427 . S
N2338 C2335 1.384 . S
N2339 C2331 1.427 . S
N2339 C2337 1.384 . S
H2340 C2346 0.930 . S
H2341 C2350 0.930 . S
H2342 C2355 0.929 . S
H2343 C2353 0.929 . S
H2344 C2348 0.929 . S
H2345 C2354 0.929 . S
C2346 H2340 0.930 . S
C2346 C2347 1.367 . S
C2346 C2354 1.378 . S
C2347 C2346 1.367 . S
C2347 C2355 1.433 . S
C2348 H2344 0.929 . S
C2348 C2350 1.378 . S
C2348 C2352 1.350 . S
C2349 C2352 1.463 . S
C2349 C2354 1.350 . S
C2349 N2357 1.427 . S
C2350 H2341 0.930 . S
C2350 C2348 1.378 . S
C2350 C2351 1.367 . S
C2351 C2350 1.367 . S
C2351 C2353 1.433 . S
C2352 C2348 1.350 . S
C2352 C2349 1.463 . S
C2352 N2356 1.427 . S
C2353 H2343 0.929 . S
C2353 C2351 1.433 . S
C2353 N2356 1.384 . S
C2354 H2345 0.929 . S
C2354 C2346 1.378 . S
C2354 C2349 1.350 . S
C2355 H2342 0.929 . S
C2355 C2347 1.433 . S
C2355 N2357 1.384 . S
N2356 C2352 1.427 . S
N2356 C2353 1.384 . S
N2357 C2349 1.427 . S
N2357 C2355 1.384 . S
H2358 C2364 0.930 . S
H2359 C2368 0.930 . S
H2360 C2373 0.929 . S
H2361 C2371 0.929 . S
H2362 C2366 0.929 . S
H2363 C2372 0.929 . S
C2364 H2358 0.930 . S
C2364 C2365 1.367 . S
C2364 C2372 1.378 . S
C2365 C2364 1.367 . S
C2365 C2373 1.433 . S
C2366 H2362 0.929 . S
C2366 C2368 1.378 . S
C2366 C2370 1.350 . S
C2367 C2370 1.463 . S
C2367 C2372 1.350 . S
C2367 N2375 1.427 . S
C2368 H2359 0.930 . S
C2368 C2366 1.378 . S
C2368 C2369 1.367 . S
C2369 C2368 1.367 . S
C2369 C2371 1.433 . S
C2370 C2366 1.350 . S
C2370 C2367 1.463 . S
C2370 N2374 1.427 . S
C2371 H2361 0.929 . S
C2371 C2369 1.433 . S
C2371 N2374 1.384 . S
C2372 H2363 0.929 . S
C2372 C2364 1.378 . S
C2372 C2367 1.350 . S
C2373 H2360 0.929 . S
C2373 C2365 1.433 . S
C2373 N2375 1.384 . S
N2374 C2370 1.427 . S
N2374 C2371 1.384 . S
N2375 C2367 1.427 . S
N2375 C2373 1.384 . S
H2376 C2382 0.930 . S
H2377 C2386 0.930 . S
H2378 C2391 0.929 . S
H2379 C2389 0.929 . S
H2380 C2384 0.929 . S
H2381 C2390 0.929 . S
C2382 H2376 0.930 . S
C2382 C2383 1.367 . S
C2382 C2390 1.378 . S
C2383 C2382 1.367 . S
C2383 C2391 1.433 . S
C2384 H2380 0.929 . S
C2384 C2386 1.378 . S
C2384 C2388 1.350 . S
C2385 C2388 1.463 . S
C2385 C2390 1.350 . S
C2385 N2393 1.427 . S
C2386 H2377 0.930 . S
C2386 C2384 1.378 . S
C2386 C2387 1.367 . S
C2387 C2386 1.367 . S
C2387 C2389 1.433 . S
C2388 C2384 1.350 . S
C2388 C2385 1.463 . S
C2388 N2392 1.427 . S
C2389 H2379 0.929 . S
C2389 C2387 1.433 . S
C2389 N2392 1.384 . S
C2390 H2381 0.929 . S
C2390 C2382 1.378 . S
C2390 C2385 1.350 . S
C2391 H2378 0.929 . S
C2391 C2383 1.433 . S
C2391 N2393 1.384 . S
N2392 C2388 1.427 . S
N2392 C2389 1.384 . S
N2393 C2385 1.427 . S
N2393 C2391 1.384 . S
H2394 C2400 0.930 . S
H2395 C2404 0.930 . S
H2396 C2409 0.929 . S
H2397 C2407 0.929 . S
H2398 C2402 0.929 . S
H2399 C2408 0.929 . S
C2400 H2394 0.930 . S
C2400 C2401 1.367 . S
C2400 C2408 1.378 . S
C2401 C2400 1.367 . S
C2401 C2409 1.433 . S
C2402 H2398 0.929 . S
C2402 C2404 1.378 . S
C2402 C2406 1.350 . S
C2403 C2406 1.463 . S
C2403 C2408 1.350 . S
C2403 N2411 1.427 . S
C2404 H2395 0.930 . S
C2404 C2402 1.378 . S
C2404 C2405 1.367 . S
C2405 C2404 1.367 . S
C2405 C2407 1.433 . S
C2406 C2402 1.350 . S
C2406 C2403 1.463 . S
C2406 N2410 1.427 . S
C2407 H2397 0.929 . S
C2407 C2405 1.433 . S
C2407 N2410 1.384 . S
C2408 H2399 0.929 . S
C2408 C2400 1.378 . S
C2408 C2403 1.350 . S
C2409 H2396 0.929 . S
C2409 C2401 1.433 . S
C2409 N2411 1.384 . S
N2410 C2406 1.427 . S
N2410 C2407 1.384 . S
N2411 C2403 1.427 . S
N2411 C2409 1.384 . S
H2412 C2418 0.930 . S
H2413 C2422 0.930 . S
H2414 C2427 0.929 . S
H2415 C2425 0.929 . S
H2416 C2420 0.929 . S
H2417 C2426 0.929 . S
C2418 H2412 0.930 . S
C2418 C2419 1.367 . S
C2418 C2426 1.378 . S
C2419 C2418 1.367 . S
C2419 C2427 1.433 . S
C2420 H2416 0.929 . S
C2420 C2422 1.378 . S
C2420 C2424 1.350 . S
C2421 C2424 1.463 . S
C2421 C2426 1.350 . S
C2421 N2429 1.427 . S
C2422 H2413 0.930 . S
C2422 C2420 1.378 . S
C2422 C2423 1.367 . S
C2423 C2422 1.367 . S
C2423 C2425 1.433 . S
C2424 C2420 1.350 . S
C2424 C2421 1.463 . S
C2424 N2428 1.427 . S
C2425 H2415 0.929 . S
C2425 C2423 1.433 . S
C2425 N2428 1.384 . S
C2426 H2417 0.929 . S
C2426 C2418 1.378 . S
C2426 C2421 1.350 . S
C2427 H2414 0.929 . S
C2427 C2419 1.433 . S
C2427 N2429 1.384 . S
N2428 C2424 1.427 . S
N2428 C2425 1.384 . S
N2429 C2421 1.427 . S
N2429 C2427 1.384 . S
H2430 C2436 0.930 . S
H2431 C2440 0.930 . S
H2432 C2445 0.929 . S
H2433 C2443 0.929 . S
H2434 C2438 0.929 . S
H2435 C2444 0.929 . S
C2436 H2430 0.930 . S
C2436 C2437 1.367 . S
C2436 C2444 1.378 . S
C2437 C2436 1.367 . S
C2437 C2445 1.433 . S
C2438 H2434 0.929 . S
C2438 C2440 1.378 . S
C2438 C2442 1.350 . S
C2439 C2442 1.463 . S
C2439 C2444 1.350 . S
C2439 N2447 1.427 . S
C2440 H2431 0.930 . S
C2440 C2438 1.378 . S
C2440 C2441 1.367 . S
C2441 C2440 1.367 . S
C2441 C2443 1.433 . S
C2442 C2438 1.350 . S
C2442 C2439 1.463 . S
C2442 N2446 1.427 . S
C2443 H2433 0.929 . S
C2443 C2441 1.433 . S
C2443 N2446 1.384 . S
C2444 H2435 0.929 . S
C2444 C2436 1.378 . S
C2444 C2439 1.350 . S
C2445 H2432 0.929 . S
C2445 C2437 1.433 . S
C2445 N2447 1.384 . S
N2446 C2442 1.427 . S
N2446 C2443 1.384 . S
N2447 C2439 1.427 . S
N2447 C2445 1.384 . S
H2448 C2454 0.930 1_556 S
H2449 C2458 0.930 . S
H2450 C2463 0.929 . S
H2451 C2461 0.929 1_556 S
H2452 C2456 0.929 . S
H2453 C2462 0.929 1_556 S
C2454 H2448 0.930 1_554 S
C2454 C2455 1.367 . S
C2454 C2462 1.378 . S
C2455 C2454 1.367 . S
C2455 C2463 1.433 . S
C2456 H2452 0.929 . S
C2456 C2458 1.378 . S
C2456 C2460 1.350 . S
C2457 C2460 1.463 . S
C2457 C2462 1.350 . S
C2457 N2465 1.427 . S
C2458 H2449 0.930 . S
C2458 C2456 1.378 . S
C2458 C2459 1.367 . S
C2459 C2458 1.367 . S
C2459 C2461 1.433 . S
C2460 C2456 1.350 . S
C2460 C2457 1.463 . S
C2460 N2464 1.427 . S
C2461 H2451 0.929 1_554 S
C2461 C2459 1.433 . S
C2461 N2464 1.384 . S
C2462 H2453 0.929 1_554 S
C2462 C2454 1.378 . S
C2462 C2457 1.350 . S
C2463 H2450 0.929 . S
C2463 C2455 1.433 . S
C2463 N2465 1.384 . S
N2464 C2460 1.427 . S
N2464 C2461 1.384 . S
N2465 C2457 1.427 . S
N2465 C2463 1.384 . S
H2466 C2472 0.930 . S
H2467 C2476 0.930 . S
H2468 C2481 0.929 . S
H2469 C2479 0.929 . S
H2470 C2474 0.929 . S
H2471 C2480 0.929 . S
C2472 H2466 0.930 . S
C2472 C2473 1.367 . S
C2472 C2480 1.378 . S
C2473 C2472 1.367 . S
C2473 C2481 1.433 . S
C2474 H2470 0.929 . S
C2474 C2476 1.378 . S
C2474 C2478 1.350 . S
C2475 C2478 1.463 . S
C2475 C2480 1.350 . S
C2475 N2483 1.427 . S
C2476 H2467 0.930 . S
C2476 C2474 1.378 . S
C2476 C2477 1.367 . S
C2477 C2476 1.367 . S
C2477 C2479 1.433 . S
C2478 C2474 1.350 . S
C2478 C2475 1.463 . S
C2478 N2482 1.427 . S
C2479 H2469 0.929 . S
C2479 C2477 1.433 . S
C2479 N2482 1.384 . S
C2480 H2471 0.929 . S
C2480 C2472 1.378 . S
C2480 C2475 1.350 . S
C2481 H2468 0.929 . S
C2481 C2473 1.433 . S
C2481 N2483 1.384 . S
N2482 C2478 1.427 . S
N2482 C2479 1.384 . S
N2483 C2475 1.427 . S
N2483 C2481 1.384 . S
H2484 C2490 0.930 . S
H2485 C2494 0.930 . S
H2486 C2499 0.929 . S
H2487 C2497 0.929 . S
H2488 C2492 0.929 . S
H2489 C2498 0.929 . S
C2490 H2484 0.930 . S
C2490 C2491 1.367 . S
C2490 C2498 1.378 . S
C2491 C2490 1.367 . S
C2491 C2499 1.433 . S
C2492 H2488 0.929 . S
C2492 C2494 1.378 . S
C2492 C2496 1.350 . S
C2493 C2496 1.463 . S
C2493 C2498 1.350 . S
C2493 N2501 1.427 . S
C2494 H2485 0.930 . S
C2494 C2492 1.378 . S
C2494 C2495 1.367 . S
C2495 C2494 1.367 . S
C2495 C2497 1.433 . S
C2496 C2492 1.350 . S
C2496 C2493 1.463 . S
C2496 N2500 1.427 . S
C2497 H2487 0.929 . S
C2497 C2495 1.433 . S
C2497 N2500 1.384 . S
C2498 H2489 0.929 . S
C2498 C2490 1.378 . S
C2498 C2493 1.350 . S
C2499 H2486 0.929 . S
C2499 C2491 1.433 . S
C2499 N2501 1.384 . S
N2500 C2496 1.427 . S
N2500 C2497 1.384 . S
N2501 C2493 1.427 . S
N2501 C2499 1.384 . S
H2502 C2508 0.930 . S
H2503 C2512 0.930 1_554 S
H2504 C2517 0.929 1_554 S
H2505 C2515 0.929 . S
H2506 C2510 0.929 1_554 S
H2507 C2516 0.929 . S
C2508 H2502 0.930 . S
C2508 C2509 1.367 . S
C2508 C2516 1.378 . S
C2509 C2508 1.367 . S
C2509 C2517 1.433 . S
C2510 H2506 0.929 1_556 S
C2510 C2512 1.378 . S
C2510 C2514 1.350 . S
C2511 C2514 1.463 . S
C2511 C2516 1.350 . S
C2511 N2519 1.427 . S
C2512 H2503 0.930 1_556 S
C2512 C2510 1.378 . S
C2512 C2513 1.367 . S
C2513 C2512 1.367 . S
C2513 C2515 1.433 . S
C2514 C2510 1.350 . S
C2514 C2511 1.463 . S
C2514 N2518 1.427 . S
C2515 H2505 0.929 . S
C2515 C2513 1.433 . S
C2515 N2518 1.384 . S
C2516 H2507 0.929 . S
C2516 C2508 1.378 . S
C2516 C2511 1.350 . S
C2517 H2504 0.929 1_556 S
C2517 C2509 1.433 . S
C2517 N2519 1.384 . S
N2518 C2514 1.427 . S
N2518 C2515 1.384 . S
N2519 C2511 1.427 . S
N2519 C2517 1.384 . S
H2520 C2526 0.930 . S
H2521 C2530 0.930 1_554 S
H2522 C2535 0.929 1_554 S
H2523 C2533 0.929 . S
H2524 C2528 0.929 1_554 S
H2525 C2534 0.929 . S
C2526 H2520 0.930 . S
C2526 C2527 1.367 . S
C2526 C2534 1.378 . S
C2527 C2526 1.367 . S
C2527 C2535 1.433 . S
C2528 H2524 0.929 1_556 S
C2528 C2530 1.378 . S
C2528 C2532 1.350 . S
C2529 C2532 1.463 . S
C2529 C2534 1.350 . S
C2529 N2537 1.427 . S
C2530 H2521 0.930 1_556 S
C2530 C2528 1.378 . S
C2530 C2531 1.367 . S
C2531 C2530 1.367 . S
C2531 C2533 1.433 . S
C2532 C2528 1.350 . S
C2532 C2529 1.463 . S
C2532 N2536 1.427 . S
C2533 H2523 0.929 . S
C2533 C2531 1.433 . S
C2533 N2536 1.384 . S
C2534 H2525 0.929 . S
C2534 C2526 1.378 . S
C2534 C2529 1.350 . S
C2535 H2522 0.929 1_556 S
C2535 C2527 1.433 . S
C2535 N2537 1.384 . S
N2536 C2532 1.427 . S
N2536 C2533 1.384 . S
N2537 C2529 1.427 . S
N2537 C2535 1.384 . S
H2538 C2544 0.930 . S
H2539 C2548 0.930 . S
H2540 C2553 0.929 . S
H2541 C2551 0.929 . S
H2542 C2546 0.929 . S
H2543 C2552 0.929 . S
C2544 H2538 0.930 . S
C2544 C2545 1.367 . S
C2544 C2552 1.378 . S
C2545 C2544 1.367 . S
C2545 C2553 1.433 . S
C2546 H2542 0.929 . S
C2546 C2548 1.378 . S
C2546 C2550 1.350 . S
C2547 C2550 1.463 . S
C2547 C2552 1.350 . S
C2547 N2555 1.427 . S
C2548 H2539 0.930 . S
C2548 C2546 1.378 . S
C2548 C2549 1.367 . S
C2549 C2548 1.367 . S
C2549 C2551 1.433 . S
C2550 C2546 1.350 . S
C2550 C2547 1.463 . S
C2550 N2554 1.427 . S
C2551 H2541 0.929 . S
C2551 C2549 1.433 . S
C2551 N2554 1.384 . S
C2552 H2543 0.929 . S
C2552 C2544 1.378 . S
C2552 C2547 1.350 . S
C2553 H2540 0.929 . S
C2553 C2545 1.433 . S
C2553 N2555 1.384 . S
N2554 C2550 1.427 . S
N2554 C2551 1.384 . S
N2555 C2547 1.427 . S
N2555 C2553 1.384 . S
H2556 C2562 0.930 . S
H2557 C2566 0.930 . S
H2558 C2571 0.929 . S
H2559 C2569 0.929 . S
H2560 C2564 0.929 . S
H2561 C2570 0.929 . S
C2562 H2556 0.930 . S
C2562 C2563 1.367 . S
C2562 C2570 1.378 . S
C2563 C2562 1.367 . S
C2563 C2571 1.433 . S
C2564 H2560 0.929 . S
C2564 C2566 1.378 . S
C2564 C2568 1.350 . S
C2565 C2568 1.463 . S
C2565 C2570 1.350 . S
C2565 N2573 1.427 . S
C2566 H2557 0.930 . S
C2566 C2564 1.378 . S
C2566 C2567 1.367 . S
C2567 C2566 1.367 . S
C2567 C2569 1.433 . S
C2568 C2564 1.350 . S
C2568 C2565 1.463 . S
C2568 N2572 1.427 . S
C2569 H2559 0.929 . S
C2569 C2567 1.433 . S
C2569 N2572 1.384 . S
C2570 H2561 0.929 . S
C2570 C2562 1.378 . S
C2570 C2565 1.350 . S
C2571 H2558 0.929 . S
C2571 C2563 1.433 . S
C2571 N2573 1.384 . S
N2572 C2568 1.427 . S
N2572 C2569 1.384 . S
N2573 C2565 1.427 . S
N2573 C2571 1.384 . S
H2574 C2580 0.930 . S
H2575 C2584 0.930 . S
H2576 C2589 0.929 . S
H2577 C2587 0.929 . S
H2578 C2582 0.929 . S
H2579 C2588 0.929 . S
C2580 H2574 0.930 . S
C2580 C2581 1.367 . S
C2580 C2588 1.378 . S
C2581 C2580 1.367 . S
C2581 C2589 1.433 . S
C2582 H2578 0.929 . S
C2582 C2584 1.378 . S
C2582 C2586 1.350 . S
C2583 C2586 1.463 . S
C2583 C2588 1.350 . S
C2583 N2591 1.427 . S
C2584 H2575 0.930 . S
C2584 C2582 1.378 . S
C2584 C2585 1.367 . S
C2585 C2584 1.367 . S
C2585 C2587 1.433 . S
C2586 C2582 1.350 . S
C2586 C2583 1.463 . S
C2586 N2590 1.427 . S
C2587 H2577 0.929 . S
C2587 C2585 1.433 . S
C2587 N2590 1.384 . S
C2588 H2579 0.929 . S
C2588 C2580 1.378 . S
C2588 C2583 1.350 . S
C2589 H2576 0.929 . S
C2589 C2581 1.433 . S
C2589 N2591 1.384 . S
N2590 C2586 1.427 . S
N2590 C2587 1.384 . S
N2591 C2583 1.427 . S
N2591 C2589 1.384 . S
C1303 C194 1.493 . S
C1307 C14 1.503 . S
C1321 C122 1.498 . S
C1325 C50 1.510 . S
C1339 C86 1.493 . S
C1343 C158 1.499 . S
C1357 C230 1.495 . S
C1361 C410 1.507 . S
C1375 C266 1.511 . S
C1379 C338 1.503 . S
C1393 C374 1.511 . S
C1397 C302 1.502 . S
C1411 C446 1.493 . S
C1415 C626 1.503 . S
C1429 C482 1.494 . S
C1433 C554 1.506 . S
C1447 C518 1.500 . S
C1451 C590 1.511 . S
C1465 C842 1.502 . S
C1469 C662 1.493 . S
C1483 C698 1.511 . S
C1487 C770 1.501 . S
C1501 C806 1.510 . S
C1505 C734 1.507 . S
C1519 C1058 1.498 . S
C1523 C878 1.510 . S
C1537 C986 1.503 . S
C1541 C914 1.493 . S
C1555 C1022 1.496 . S
C1559 C950 1.509 . S
C1573 C1094 1.500 . S
C1577 C1274 1.493 . S
C1591 C1130 1.511 . S
C1595 C1202 1.503 . S
C1609 C1166 1.499 . S
C1613 C1238 1.493 . S
C1627 C184 1.288 . S
C1631 C4 1.286 . S
C1645 C40 1.284 . S
C1649 C112 1.289 . S
C1663 C148 1.286 . S
C1667 C76 1.288 . S
C1681 C220 1.285 . S
C1685 C400 1.282 . S
C1699 C256 1.281 . S
C1703 C328 1.288 . S
C1717 C364 1.288 . S
C1721 C292 1.281 . S
C1735 C436 1.281 . S
C1739 C616 1.289 . S
C1753 C544 1.281 . S
C1757 C472 1.288 . S
C1771 C580 1.285 . S
C1775 C508 1.289 . S
C1789 C652 1.286 . S
C1793 C832 1.282 . S
C1807 C688 1.281 . S
C1811 C760 1.289 . S
C1825 C796 1.290 . S
C1829 C724 1.283 . S
C1843 C1048 1.282 . S
C1847 C868 1.286 . S
C1861 C904 1.288 . S
C1865 C976 1.286 . S
C1879 C940 1.281 . S
C1883 C1012 1.288 . S
C1897 C1264 1.286 . S
C1901 C1084 1.282 . S
C1915 C1192 1.281 . S
C1919 C1120 1.287 . S
C1933 C1228 1.281 . S
C1937 C1156 1.288 . S
C1951 C578 1.576 . S
C1955 C2 1.576 . S
C1969 C614 1.582 . S
C1973 C38 1.584 . S
C1987 C542 1.583 . S
C1991 C74 1.580 . S
C2005 C110 1.576 . S
C2009 C938 1.578 . S
C2023 C146 1.577 . S
C2027 C866 1.576 . S
C2041 C182 1.576 . S
C2045 C902 1.578 . S
C2059 C218 1.579 . S
C2063 C1226 1.576 . S
C2077 C254 1.581 . S
C2081 C1262 1.578 . S
C2095 C290 1.583 . S
C2099 C1190 1.581 . S
C2113 C326 1.583 . S
C2117 C722 1.583 . S
C2131 C650 1.578 . S
C2135 C362 1.582 . S
C2149 C686 1.583 . S
C2153 C398 1.581 . S
C2167 C1010 1.579 . S
C2171 C434 1.582 . S
C2185 C470 1.583 . S
C2189 C1046 1.581 . S
C2203 C506 1.576 . S
C2207 C974 1.578 . S
C2221 C758 1.578 . S
C2225 C1154 1.576 . S
C2239 C794 1.576 . S
C2243 C1082 1.576 . S
C2257 C1118 1.582 . S
C2261 C830 1.579 . S
C2275 C3 1.402 . S
C2279 C363 1.403 . S
C2293 C399 1.401 . S
C2297 C39 1.405 . S
C2311 C327 1.402 . S
C2315 C75 1.403 . S
C2329 C111 1.401 . S
C2333 C291 1.405 . S
C2347 C147 1.403 . S
C2351 C219 1.403 . S
C2365 C183 1.402 . S
C2369 C255 1.404 . S
C2383 C435 1.404 . S
C2387 C795 1.401 . S
C2401 C831 1.404 . S
C2405 C471 1.401 . S
C2419 C759 1.400 . S
C2423 C507 1.405 . S
C2437 C543 1.402 . S
C2441 C723 1.403 . S
C2455 C579 1.405 . S
C2459 C651 1.400 . S
C2473 C687 1.403 . S
C2477 C615 1.402 . S
C2491 C867 1.402 . S
C2495 C1227 1.403 . S
C2509 C1263 1.400 . S
C2513 C903 1.405 . S
C2527 C939 1.401 . S
C2531 C1191 1.405 . S
C2545 C975 1.405 . S
C2549 C1155 1.400 . S
C2563 C1083 1.401 . S
C2567 C1011 1.404 . S
C2581 C1047 1.402 . S
C2585 C1119 1.403 . S
