# Generated by pormake.
# Topology whw, (6)-cn, num edge types: 1
# Building blocks:
#     Node 0, Type 0, BuildingBlock: INOVEN_clean_sbu_0, # of connection points: 6
#     Node 1, Type 0, BuildingBlock: INOVEN_clean_sbu_0, # of connection points: 6
#     Node 2, Type 0, BuildingBlock: INOVEN_clean_sbu_0, # of connection points: 6
#     Node 3, Type 0, BuildingBlock: INOVEN_clean_sbu_0, # of connection points: 6
#     Node 4, Type 0, BuildingBlock: INOVEN_clean_sbu_0, # of connection points: 6
#     Node 5, Type 0, BuildingBlock: INOVEN_clean_sbu_0, # of connection points: 6
#     Node 6, Type 0, BuildingBlock: INOVEN_clean_sbu_0, # of connection points: 6
#     Node 7, Type 0, BuildingBlock: INOVEN_clean_sbu_0, # of connection points: 6
#     Node 8, Type 0, BuildingBlock: INOVEN_clean_sbu_0, # of connection points: 6
#     Node 9, Type 0, BuildingBlock: INOVEN_clean_sbu_0, # of connection points: 6
#     Node 10, Type 0, BuildingBlock: INOVEN_clean_sbu_0, # of connection points: 6
#     Node 11, Type 0, BuildingBlock: INOVEN_clean_sbu_0, # of connection points: 6
#     Node 12, Type 0, BuildingBlock: INOVEN_clean_sbu_0, # of connection points: 6
#     Node 13, Type 0, BuildingBlock: INOVEN_clean_sbu_0, # of connection points: 6
#     Node 14, Type 0, BuildingBlock: INOVEN_clean_sbu_0, # of connection points: 6
#     Node 15, Type 0, BuildingBlock: INOVEN_clean_sbu_0, # of connection points: 6
#     Edge 16, Type (0, 0), BuildingBlock: TEMPAE_clean_linker_10, # of connection points: 2
#     Edge 17, Type (0, 0), BuildingBlock: TEMPAE_clean_linker_10, # of connection points: 2
#     Edge 18, Type (0, 0), BuildingBlock: TEMPAE_clean_linker_10, # of connection points: 2
#     Edge 19, Type (0, 0), BuildingBlock: TEMPAE_clean_linker_10, # of connection points: 2
#     Edge 20, Type (0, 0), BuildingBlock: TEMPAE_clean_linker_10, # of connection points: 2
#     Edge 21, Type (0, 0), BuildingBlock: TEMPAE_clean_linker_10, # of connection points: 2
#     Edge 22, Type (0, 0), BuildingBlock: TEMPAE_clean_linker_10, # of connection points: 2
#     Edge 23, Type (0, 0), BuildingBlock: TEMPAE_clean_linker_10, # of connection points: 2
#     Edge 24, Type (0, 0), BuildingBlock: TEMPAE_clean_linker_10, # of connection points: 2
#     Edge 25, Type (0, 0), BuildingBlock: TEMPAE_clean_linker_10, # of connection points: 2
#     Edge 26, Type (0, 0), BuildingBlock: TEMPAE_clean_linker_10, # of connection points: 2
#     Edge 27, Type (0, 0), BuildingBlock: TEMPAE_clean_linker_10, # of connection points: 2
#     Edge 28, Type (0, 0), BuildingBlock: TEMPAE_clean_linker_10, # of connection points: 2
#     Edge 29, Type (0, 0), BuildingBlock: TEMPAE_clean_linker_10, # of connection points: 2
#     Edge 30, Type (0, 0), BuildingBlock: TEMPAE_clean_linker_10, # of connection points: 2
#     Edge 31, Type (0, 0), BuildingBlock: TEMPAE_clean_linker_10, # of connection points: 2
#     Edge 32, Type (0, 0), BuildingBlock: TEMPAE_clean_linker_10, # of connection points: 2
#     Edge 33, Type (0, 0), BuildingBlock: TEMPAE_clean_linker_10, # of connection points: 2
#     Edge 34, Type (0, 0), BuildingBlock: TEMPAE_clean_linker_10, # of connection points: 2
#     Edge 35, Type (0, 0), BuildingBlock: TEMPAE_clean_linker_10, # of connection points: 2
#     Edge 36, Type (0, 0), BuildingBlock: TEMPAE_clean_linker_10, # of connection points: 2
#     Edge 37, Type (0, 0), BuildingBlock: TEMPAE_clean_linker_10, # of connection points: 2
#     Edge 38, Type (0, 0), BuildingBlock: TEMPAE_clean_linker_10, # of connection points: 2
#     Edge 39, Type (0, 0), BuildingBlock: TEMPAE_clean_linker_10, # of connection points: 2
#     Edge 40, Type (0, 0), BuildingBlock: TEMPAE_clean_linker_10, # of connection points: 2
#     Edge 41, Type (0, 0), BuildingBlock: TEMPAE_clean_linker_10, # of connection points: 2
#     Edge 42, Type (0, 0), BuildingBlock: TEMPAE_clean_linker_10, # of connection points: 2
#     Edge 43, Type (0, 0), BuildingBlock: TEMPAE_clean_linker_10, # of connection points: 2
#     Edge 44, Type (0, 0), BuildingBlock: TEMPAE_clean_linker_10, # of connection points: 2
#     Edge 45, Type (0, 0), BuildingBlock: TEMPAE_clean_linker_10, # of connection points: 2
#     Edge 46, Type (0, 0), BuildingBlock: TEMPAE_clean_linker_10, # of connection points: 2
#     Edge 47, Type (0, 0), BuildingBlock: TEMPAE_clean_linker_10, # of connection points: 2
#     Edge 48, Type (0, 0), BuildingBlock: TEMPAE_clean_linker_10, # of connection points: 2
#     Edge 49, Type (0, 0), BuildingBlock: TEMPAE_clean_linker_10, # of connection points: 2
#     Edge 50, Type (0, 0), BuildingBlock: TEMPAE_clean_linker_10, # of connection points: 2
#     Edge 51, Type (0, 0), BuildingBlock: TEMPAE_clean_linker_10, # of connection points: 2
#     Edge 52, Type (0, 0), BuildingBlock: TEMPAE_clean_linker_10, # of connection points: 2
#     Edge 53, Type (0, 0), BuildingBlock: TEMPAE_clean_linker_10, # of connection points: 2
#     Edge 54, Type (0, 0), BuildingBlock: TEMPAE_clean_linker_10, # of connection points: 2
#     Edge 55, Type (0, 0), BuildingBlock: TEMPAE_clean_linker_10, # of connection points: 2
#     Edge 56, Type (0, 0), BuildingBlock: TEMPAE_clean_linker_10, # of connection points: 2
#     Edge 57, Type (0, 0), BuildingBlock: TEMPAE_clean_linker_10, # of connection points: 2
#     Edge 58, Type (0, 0), BuildingBlock: TEMPAE_clean_linker_10, # of connection points: 2
#     Edge 59, Type (0, 0), BuildingBlock: TEMPAE_clean_linker_10, # of connection points: 2
#     Edge 60, Type (0, 0), BuildingBlock: TEMPAE_clean_linker_10, # of connection points: 2
#     Edge 61, Type (0, 0), BuildingBlock: TEMPAE_clean_linker_10, # of connection points: 2
#     Edge 62, Type (0, 0), BuildingBlock: TEMPAE_clean_linker_10, # of connection points: 2
#     Edge 63, Type (0, 0), BuildingBlock: TEMPAE_clean_linker_10, # of connection points: 2
# Relax obj value: 0.407
# Max RMSD: 0.232
# Mean RMSD: 0.210
data_MOF--net-whw--node1-INOVEN_clean_sbu_0--edge1-TEMPAE_clean_linker_10
_symmetry_space_group_name_H-M    P1
_symmetry_Int_Tables_number       1
_symmetry_cell_setting            triclinic
loop_
_symmetry_equiv_pos_as_xyz
'x, y, z'
_cell_length_a     47.286909
_cell_length_b     46.512615
_cell_length_c     34.15011
_cell_angle_alpha  90.327594
_cell_angle_beta   77.899836
_cell_angle_gamma 99.936278
loop_
_atom_site_label
_atom_site_type_symbol
_atom_site_fract_x
_atom_site_fract_y
_atom_site_fract_z
_atom_type_partial_charge
Gd0 Gd 0.05558 0.10235 0.18513 0.0
Gd1 Gd 0.02868 0.11382 0.10858 0.0
C2 C -0.01336 0.10282 0.19796 0.0
C3 C 0.0689 0.11453 0.25476 0.0
C4 C 0.07499 0.12303 0.29556 0.0
C5 C 0.09689 0.11293 0.31136 0.0
C6 C 0.05938 0.14274 0.31868 0.0
C7 C 0.08761 0.14249 0.37179 0.0
C8 C 0.06563 0.15237 0.35569 0.0
C9 C 0.10309 0.12247 0.34873 0.0
C10 C 0.04046 0.05491 0.14296 0.0
C11 C 0.09605 0.10606 0.09727 0.0
C12 C -0.0014 0.11588 0.05286 0.0
C13 C -0.00395 0.12776 1.01305 0.0
C14 C 0.00356 0.15781 1.00251 0.0
C15 C 0.98195 0.10929 0.98753 0.0
C16 C 0.9813 0.15066 0.94326 0.0
C17 C 0.97471 0.12048 0.95332 0.0
C18 C -0.00353 0.16902 0.96809 0.0
C19 C 0.06546 0.15868 0.13111 0.0
O20 O 0.00742 0.09254 0.21112 0.0
O21 O -0.00957 0.11393 0.16119 0.0
O22 O 0.07872 0.09348 0.23302 0.0
O23 O 0.0519 0.12797 0.23853 0.0
O24 O 0.06123 0.05724 0.16337 0.0
O25 O 0.02698 0.07632 0.14909 0.0
O26 O 0.07165 0.09974 0.08297 0.0
O27 O 0.09579 0.11285 0.13526 0.0
O28 O -0.00129 0.13392 0.08244 0.0
O29 O 0.01458 0.0956 0.05471 0.0
O30 O 0.06152 0.15612 0.09468 0.0
O31 O 0.04713 0.13975 0.15346 0.0
H32 H 0.10949 0.0978 0.29468 0.0
H33 H 0.04235 0.15118 0.30791 0.0
H34 H 0.05336 0.16813 0.37129 0.0
H35 H 0.11991 0.11381 0.35966 0.0
H36 H 0.01412 0.17285 1.02157 0.0
H37 H 0.97557 0.08611 0.9948 0.0
H38 H 0.96359 0.10536 0.93491 0.0
H39 H 0.00191 0.19232 0.96187 0.0
Gd40 Gd 0.12689 0.74156 0.47846 0.0
Gd41 Gd 0.13436 0.68365 0.4493 0.0
C42 C 0.12528 0.68967 0.54522 0.0
C43 C 0.12132 0.78827 0.51812 0.0
C44 C 0.11914 0.79352 0.56088 0.0
C45 C 0.13151 0.77622 0.58386 0.0
C46 C 0.10395 0.8149 0.57935 0.0
C47 C 0.11084 0.79941 0.64436 0.0
C48 C 0.10018 0.81813 0.62072 0.0
C49 C 0.12706 0.77881 0.62517 0.0
C50 C 0.17792 0.74144 0.42457 0.0
C51 C 0.11122 0.72999 0.39326 0.0
C52 C 0.15401 0.64151 0.40881 0.0
C53 C 0.17041 0.63954 0.36781 0.0
C54 C 0.18203 0.61437 0.35585 0.0
C55 C 0.17399 0.66269 0.3401 0.0
C56 C 0.19952 0.63498 0.28812 0.0
C57 C 0.18851 0.66046 0.30058 0.0
C58 C 0.1964 0.612 0.31608 0.0
C59 C 0.07845 0.68342 0.48847 0.0
O60 O 0.12048 0.716 0.53753 0.0
O61 O 0.13462 0.67322 0.51493 0.0
O62 O 0.14663 0.78233 0.49952 0.0
O63 O 0.09893 0.771 0.50865 0.0
O64 O 0.16153 0.76108 0.42626 0.0
O65 O 0.16716 0.72255 0.45306 0.0
O66 O 0.1246 0.7069 0.39418 0.0
O67 O 0.10587 0.74554 0.42579 0.0
O68 O 0.12728 0.64654 0.41199 0.0
O69 O 0.16836 0.65738 0.4325 0.0
O70 O 0.09291 0.6624 0.49072 0.0
O71 O 0.09524 0.70385 0.46636 0.0
H72 H 0.14404 0.76006 0.57007 0.0
H73 H 0.0947 0.82879 0.56191 0.0
H74 H 0.08847 0.835 0.63414 0.0
H75 H 0.13543 0.76376 0.64198 0.0
H76 H 0.1794 0.59633 0.377 0.0
H77 H 0.16524 0.68233 0.34886 0.0
H78 H 0.19002 0.67816 0.27935 0.0
H79 H 0.20436 0.59201 0.30687 0.0
Gd80 Gd 0.45437 0.88582 0.6633 0.0
Gd81 Gd 0.51414 0.88804 0.67661 0.0
C82 C 0.50222 0.85871 0.59517 0.0
C83 C 0.4059 0.89858 0.65067 0.0
C84 C 0.38576 0.88749 0.62468 0.0
C85 C 0.38692 0.86031 0.60705 0.0
C86 C 0.36605 0.90458 0.61609 0.0
C87 C 0.35007 0.86825 0.57015 0.0
C88 C 0.34828 0.89503 0.589 0.0
C89 C 0.3691 0.85069 0.58014 0.0
C90 C 0.46491 0.83354 0.68067 0.0
C91 C 0.4604 0.88551 0.75794 0.0
C92 C 0.56325 0.89331 0.699 0.0
C93 C 0.5731 0.88943 0.73596 0.0
C94 C 0.59764 0.90852 0.74312 0.0
C95 C 0.55707 0.86857 0.76539 0.0
C96 C 0.58996 0.88642 0.80951 0.0
C97 C 0.56559 0.86693 0.80186 0.0
C98 C 0.60598 0.90712 0.77969 0.0
C99 C 0.50831 0.93192 0.62866 0.0
O100 O 0.47825 0.87124 0.60184 0.0
O101 O 0.51774 0.85864 0.62336 0.0
O102 O 0.40705 0.88055 0.67925 0.0
O103 O 0.43185 0.91219 0.6323 0.0
O104 O 0.4486 0.83721 0.65538 0.0
O105 O 0.47373 0.85721 0.69525 0.0
O106 O 0.48873 0.88508 0.74285 0.0
O107 O 0.44299 0.88845 0.73263 0.0
O108 O 0.54873 0.9149 0.69902 0.0
O109 O 0.55183 0.86953 0.68294 0.0
O110 O 0.52869 0.91636 0.62104 0.0
O111 O 0.49071 0.92313 0.66145 0.0
H112 H 0.40206 0.84684 0.61342 0.0
H113 H 0.365 0.92566 0.62947 0.0
H114 H 0.33414 0.9092 0.58148 0.0
H115 H 0.37074 0.82984 0.56638 0.0
H116 H 0.60992 0.92499 0.72075 0.0
H117 H 0.53779 0.85388 0.76044 0.0
H118 H 0.55305 0.85048 0.82405 0.0
H119 H 0.62454 0.92272 0.78493 0.0
Gd120 Gd 0.37684 0.24099 0.8654 0.0
Gd121 Gd 0.40104 0.30333 0.83613 0.0
C122 C 0.38937 0.29162 0.93289 0.0
C123 C 0.35861 0.19118 0.9027 0.0
C124 C 0.36356 0.18034 0.94029 0.0
C125 C 0.34676 0.15435 0.95884 0.0
C126 C 0.38459 0.19682 0.9586 0.0
C127 C 0.37172 0.16179 1.01449 0.0
C128 C 0.38876 0.18757 0.99524 0.0
C129 C 0.35084 0.14506 0.99582 0.0
C130 C 0.34316 0.26475 0.82356 0.0
C131 C 0.41092 0.25157 0.77371 0.0
C132 C 0.40137 0.35727 0.81775 0.0
C133 C 0.38844 0.37275 0.79016 0.0
C134 C 0.40711 0.38954 0.7581 0.0
C135 C 0.35784 0.37002 0.79415 0.0
C136 C 0.36504 0.39739 0.73111 0.0
C137 C 0.34627 0.38241 0.76509 0.0
C138 C 0.39566 0.4015 0.72883 0.0
C139 C 0.44203 0.27319 0.84859 0.0
O140 O 0.37909 0.26395 0.9256 0.0
O141 O 0.39963 0.31099 0.90261 0.0
O142 O 0.343 0.21214 0.9065 0.0
O143 O 0.38195 0.19627 0.87352 0.0
O144 O 0.34688 0.23797 0.82202 0.0
O145 O 0.35603 0.27745 0.84935 0.0
O146 O 0.40456 0.27845 0.77758 0.0
O147 O 0.40624 0.23393 0.80576 0.0
O148 O 0.4221 0.34293 0.80113 0.0
O149 O 0.3831 0.34294 0.84827 0.0
O150 O 0.44839 0.29578 0.82404 0.0
O151 O 0.41634 0.27126 0.86837 0.0
H152 H 0.33029 0.14154 0.94506 0.0
H153 H 0.39777 0.21694 0.94465 0.0
H154 H 0.40538 0.20067 1.00848 0.0
H155 H 0.33723 0.12524 1.0102 0.0
H156 H 0.43075 0.39222 0.75455 0.0
H157 H 0.34278 0.35747 0.81892 0.0
H158 H 0.32265 0.37912 0.76853 0.0
H159 H 0.4112 0.41222 0.70307 0.0
Gd160 Gd 0.98151 0.84591 0.99221 0.0
Gd161 Gd 0.96792 0.85996 0.90465 0.0
C162 C 0.93267 0.88419 0.98608 0.0
C163 C 0.00183 0.83049 0.053 0.0
C164 C 0.01318 0.81977 0.08767 0.0
C165 C 0.01202 0.78962 0.09443 0.0
C166 C 0.02591 0.83906 0.11377 0.0
C167 C 0.03548 0.79831 0.15235 0.0
C168 C 0.03713 0.82854 0.14525 0.0
C169 C 0.02256 0.7791 0.12638 0.0
C170 C 0.9337 0.8134 0.97021 0.0
C171 C 0.01902 0.82434 0.91182 0.0
C172 C 0.95429 0.85708 0.8336 0.0
C173 C 0.94953 0.84113 0.79561 0.0
C174 C 0.92251 0.82328 0.79352 0.0
C175 C 0.97052 0.84691 0.7592 0.0
C176 C 0.93737 0.81845 0.71994 0.0
C177 C 0.96468 0.83575 0.72237 0.0
C178 C 0.91661 0.81217 0.75666 0.0
C179 C 0.00105 0.904 0.93719 0.0
O180 O 0.95415 0.881 1.00464 0.0
O181 O 0.93065 0.87328 0.95033 0.0
O182 O -0.00595 0.81256 1.02588 0.0
O183 O -0.00199 0.85745 0.04751 0.0
O184 O 0.93539 0.81892 1.00699 0.0
O185 O 0.9582 0.82338 0.94823 0.0
O186 O -0.00187 0.82731 0.89267 0.0
O187 O 0.02013 0.83517 0.94737 0.0
O188 O 0.93499 0.85084 0.86756 0.0
O189 O 0.98103 0.86607 0.83926 0.0
O190 O -0.01472 0.90806 0.9114 0.0
O191 O 0.00088 0.87697 0.94079 0.0
H192 H 0.00286 0.77397 0.07485 0.0
H193 H 0.02747 0.86239 0.10966 0.0
H194 H 0.0468 0.84415 0.16446 0.0
H195 H 0.02109 0.75578 0.13025 0.0
H196 H 0.90545 0.81838 0.82037 0.0
H197 H -0.00864 0.86099 0.75886 0.0
H198 H 0.98142 0.84171 0.69546 0.0
H199 H 0.89548 0.79865 0.75712 0.0
Gd200 Gd 0.36904 0.79555 0.14187 0.0
Gd201 Gd 0.3807 0.73916 0.11007 0.0
C202 C 0.39442 0.75061 0.19742 0.0
C203 C 0.34455 0.8344 0.18408 0.0
C204 C 0.33001 0.83581 0.22619 0.0
C205 C 0.31292 0.85736 0.23843 0.0
C206 C 0.33385 0.81608 0.25464 0.0
C207 C 0.30525 0.8405 0.30774 0.0
C208 C 0.32175 0.81852 0.29504 0.0
C209 C 0.30063 0.85976 0.27907 0.0
C210 C 0.42506 0.80015 0.10137 0.0
C211 C 0.37806 0.7915 1.04551 0.0
C212 C 0.38882 0.69146 0.07321 0.0
C213 C 0.39037 0.67797 1.0339 0.0
C214 C 0.37807 0.64837 1.03296 0.0
C215 C 0.4019 0.69405 0.99773 0.0
C216 C 0.38886 0.65067 0.96015 0.0
C217 C 0.4013 0.68043 0.96109 0.0
C218 C 0.37725 0.63485 0.99653 0.0
C219 C 0.32876 0.73677 0.16409 0.0
O220 O 0.38123 0.77374 0.19604 0.0
O221 O 0.40018 0.73505 0.16484 0.0
O222 O 0.37276 0.834 0.17752 0.0
O223 O 0.33068 0.8155 0.16301 0.0
O224 O 0.40859 0.81966 0.10031 0.0
O225 O 0.41034 0.77849 0.12341 0.0
O226 O 0.38426 0.76525 0.05137 0.0
O227 O 0.36807 0.80666 0.07694 0.0
O228 O 0.36305 0.69721 0.08997 0.0
O229 O 0.41057 0.71173 0.07854 0.0
O230 O 0.34657 0.71855 0.16296 0.0
O231 O 0.33911 0.75543 0.1354 0.0
H232 H 0.30966 0.87268 0.21672 0.0
H233 H 0.34698 0.79936 0.24586 0.0
H234 H 0.32645 0.80407 0.31662 0.0
H235 H 0.2881 0.87698 0.2882 0.0
H236 H 0.36884 0.63567 0.0606 0.0
H237 H 0.41108 0.71705 0.99782 0.0
H238 H 0.41027 0.69322 0.9335 0.0
H239 H 0.36792 0.61186 0.99683 0.0
Gd240 Gd 0.49258 0.14663 0.41389 0.0
Gd241 Gd 0.55334 0.16881 0.42227 0.0
C242 C 0.54642 0.15466 0.33257 0.0
C243 C 0.44279 0.13033 0.39388 0.0
C244 C 0.43295 0.13096 0.35622 0.0
C245 C 0.40924 0.11021 0.35002 0.0
C246 C 0.44857 0.15074 0.32519 0.0
C247 C 0.417 0.12872 0.28153 0.0
C248 C 0.44052 0.14979 0.28823 0.0
C249 C 0.40129 0.10906 0.31287 0.0
C250 C 0.51307 0.11034 0.45859 0.0
C251 C 0.49895 0.17695 0.497 0.0
C252 C 0.60531 0.17639 0.43736 0.0
C253 C 0.62054 0.16711 0.46674 0.0
C254 C 0.60527 0.15729 0.5053 0.0
C255 C 0.65048 0.16585 0.45473 0.0
C256 C 0.65032 0.14598 0.52031 0.0
C257 C 0.6653 0.15535 0.48129 0.0
C258 C 0.62009 0.14691 0.53199 0.0
C259 C 0.52855 0.20696 0.38652 0.0
O260 O 0.51767 0.1517 0.34744 0.0
O261 O 0.56469 0.15728 0.35725 0.0
O262 O 0.46146 0.11274 0.39482 0.0
O263 O 0.45011 0.15574 0.40912 0.0
O264 O 0.48666 0.11569 0.46552 0.0
O265 O 0.52793 0.12353 0.42635 0.0
O266 O 0.52719 0.17435 0.48623 0.0
O267 O 0.48133 0.17064 0.47141 0.0
O268 O 0.58696 0.19447 0.44883 0.0
O269 O 0.5953 0.15534 0.41577 0.0
O270 O 0.55625 0.20558 0.37662 0.0
O271 O 0.51695 0.19021 0.41604 0.0
H272 H 0.39727 0.09455 0.37364 0.0
H273 H 0.46722 0.16663 0.32935 0.0
H274 H 0.45272 0.16557 0.26492 0.0
H275 H 0.38327 0.09242 0.30843 0.0
H276 H 0.582 0.15772 0.51474 0.0
H277 H 0.66236 0.17284 0.42466 0.0
H278 H 0.68849 0.1547 0.4714 0.0
H279 H 0.60804 0.14038 0.56211 0.0
Gd280 Gd 0.12404 0.20275 0.74536 0.0
Gd281 Gd 0.09917 0.25519 0.72411 0.0
C282 C 0.09144 0.24227 0.81666 0.0
C283 C 0.15787 0.17125 0.76853 0.0
C284 C 0.1744 0.17306 0.80064 0.0
C285 C 0.16368 0.18531 0.83707 0.0
C286 C 0.20074 0.16208 0.79536 0.0
C287 C 0.20353 0.17234 0.86462 0.0
C288 C 0.21525 0.16172 0.82712 0.0
C289 C 0.17792 0.18479 0.86873 0.0
C290 C 0.0684 0.18907 0.73684 0.0
C291 C 0.11868 0.21073 0.65188 0.0
C292 C 0.07469 0.29432 0.6978 0.0
C293 C 0.08332 0.31133 0.66026 0.0
C294 C 0.10967 0.3085 0.63394 0.0
C295 C 0.06452 0.32833 0.64893 0.0
C296 C 0.09772 0.33828 0.58389 0.0
C297 C 0.0717 0.3418 0.61086 0.0
C298 C 0.11682 0.32185 0.59601 0.0
C299 C 0.15592 0.26687 0.73205 0.0
O300 O 0.11209 0.22567 0.80597 0.0
O301 O 0.07885 0.25183 0.7895 0.0
O302 O 0.12917 0.16583 0.77985 0.0
O303 O 0.16723 0.19155 0.74032 0.0
O304 O 0.08693 0.17103 0.73049 0.0
O305 O 0.07945 0.212 0.75219 0.0
O306 O 0.1077 0.23458 0.6631 0.0
O307 O 0.12785 0.19503 0.67783 0.0
O308 O 0.09277 0.30005 0.72208 0.0
O309 O 0.06665 0.26634 0.69378 0.0
O310 O 0.13718 0.28402 0.74334 0.0
O311 O 0.14413 0.24514 0.71544 0.0
H312 H 0.14361 0.19426 0.84168 0.0
H313 H 0.20961 0.15302 0.76706 0.0
H314 H 0.23501 0.15225 0.82274 0.0
H315 H 0.16768 0.1927 0.89714 0.0
H316 H 0.12424 0.29513 0.64229 0.0
H317 H 0.04399 0.33043 0.66898 0.0
H318 H 0.05669 0.35447 0.6022 0.0
H319 H 0.13669 0.31827 0.57561 0.0
Gd320 Gd 0.90863 0.28422 0.64684 0.0
Gd321 Gd 0.88652 0.22336 0.62296 0.0
C322 C 0.91214 0.22833 0.70338 0.0
C323 C 0.9112 0.33299 0.68308 0.0
C324 C 0.89822 0.3403 0.72375 0.0
C325 C 0.89792 0.36946 0.734 0.0
C326 C 0.88536 0.31785 0.75242 0.0
C327 C 0.8741 0.35366 0.80241 0.0
C328 C 0.87338 0.32446 0.79143 0.0
C329 C 0.88586 0.37615 0.77325 0.0
C330 C 0.95009 0.25842 0.59936 0.0
C331 C 0.90527 0.27819 0.55482 0.0
C332 C 0.87127 0.17608 0.58704 0.0
C333 C 0.87929 0.1675 0.5454 0.0
C334 C 0.86257 0.14341 0.53133 0.0
C335 C 0.90279 0.18448 0.51887 0.0
C336 C 0.89278 0.15347 0.46408 0.0
C337 C 0.90934 0.17769 0.47858 0.0
C338 C 0.86934 0.13632 0.49097 0.0
C339 C 0.8479 0.24315 0.6822 0.0
O340 O 0.90944 0.25633 0.70184 0.0
O341 O 0.90808 0.21117 0.67292 0.0
O342 O 0.93151 0.31667 0.68015 0.0
O343 O 0.89212 0.32437 0.66081 0.0
O344 O 0.9524 0.28666 0.60113 0.0
O345 O 0.92904 0.2471 0.62635 0.0
O346 O 0.9 0.24959 0.56279 0.0
O347 O 0.90549 0.29672 0.58428 0.0
O348 O 0.85594 0.19722 0.59237 0.0
O349 O 0.89233 0.1793 0.60706 0.0
O350 O 0.85177 0.21645 0.67816 0.0
O351 O 0.86331 0.25883 0.65206 0.0
H352 H 0.90747 0.38698 0.71192 0.0
H353 H 0.88482 0.29519 0.74475 0.0
H354 H 0.86411 0.30675 0.81332 0.0
H355 H 0.88686 0.39883 0.7812 0.0
H356 H 0.84426 0.13016 0.55149 0.0
H357 H 0.91595 0.20318 0.52919 0.0
H358 H 0.92725 0.19165 0.45874 0.0
H359 H 0.85644 0.11725 0.48098 0.0
Gd360 Gd 0.59277 0.71784 0.26197 0.0
Gd361 Gd 0.61859 0.77994 0.23214 0.0
C362 C 0.58373 0.77083 0.3239 0.0
C363 C 0.59224 0.66448 0.2826 0.0
C364 C 0.60689 0.65147 0.31035 0.0
C365 C 0.58968 0.63414 0.34291 0.0
C366 C 0.63745 0.65866 0.30732 0.0
C367 C 0.63257 0.63506 0.3724 0.0
C368 C 0.65019 0.65026 0.33788 0.0
C369 C 0.60227 0.62619 0.3737 0.0
C370 C 0.55323 0.74931 0.24948 0.0
C371 C 0.60352 0.72885 0.16514 0.0
C372 C 0.63949 0.82914 0.19431 0.0
C373 C 0.63628 0.83992 0.15583 0.0
C374 C 0.65584 0.86404 0.13602 0.0
C375 C 0.61453 0.82473 0.13754 0.0
C376 C 0.63269 0.85679 0.07883 0.0
C377 C 0.61268 0.83315 0.09939 0.0
C378 C 0.65398 0.87257 0.0976 0.0
C379 C 0.65119 0.75437 0.27368 0.0
O380 O 0.58865 0.74336 0.32048 0.0
O381 O 0.58989 0.78854 0.29168 0.0
O382 O 0.57193 0.67927 0.29927 0.0
O383 O 0.60928 0.67744 0.25011 0.0
O384 O 0.54567 0.72597 0.27269 0.0
O385 O 0.5788 0.7506 0.22993 0.0
O386 O 0.61392 0.75666 0.17223 0.0
O387 O 0.59375 0.70954 0.19561 0.0
O388 O 0.65419 0.8075 0.19202 0.0
O389 O 0.61538 0.82496 0.22229 0.0
O390 O 0.64746 0.78112 0.27696 0.0
O391 O 0.63821 0.74268 0.24747 0.0
H392 H 0.56611 0.62833 0.34584 0.0
H393 H 0.6514 0.67195 0.28235 0.0
H394 H 0.67356 0.65702 0.33532 0.0
H395 H 0.58757 0.61501 0.39984 0.0
H396 H 0.67284 0.87582 0.14986 0.0
H397 H 0.59915 0.80614 0.15261 0.0
H398 H 0.59572 0.82105 0.08578 0.0
H399 H 0.66963 0.89085 0.08215 0.0
Gd400 Gd 0.63492 0.27477 0.96789 0.0
Gd401 Gd 0.6453 0.21561 0.94269 0.0
C402 C 0.63318 0.22513 1.03789 0.0
C403 C 0.62303 0.32253 1.00071 0.0
C404 C 0.62133 0.33367 1.04105 0.0
C405 C 0.63721 0.32338 0.0668 0.0
C406 C 0.60434 0.35514 0.05374 0.0
C407 C 0.6193 0.35621 0.11762 0.0
C408 C 0.60322 0.3663 0.09193 0.0
C409 C 0.63632 0.33471 0.10479 0.0
C410 C 0.68894 0.27359 0.92198 0.0
C411 C 0.62516 0.25921 0.88016 0.0
C412 C 0.66837 0.17341 0.90731 0.0
C413 C 0.68101 0.1689 0.86545 0.0
C414 C 0.68345 0.14073 0.85212 0.0
C415 C 0.68706 0.19236 0.83777 0.0
C416 C 0.69444 0.1591 0.78319 0.0
C417 C 0.69391 0.18755 0.79697 0.0
C418 C 0.69025 0.13583 0.81106 0.0
C419 C 0.58837 0.21676 0.97561 0.0
O420 O 0.62888 0.25147 1.02871 0.0
O421 O 0.64316 0.20784 1.00914 0.0
O422 O 0.64932 0.31932 0.98198 0.0
O423 O 0.60262 0.30053 0.99651 0.0
O424 O 0.67308 0.29308 0.91887 0.0
O425 O 0.67567 0.25555 0.95053 0.0
O426 O 0.63828 0.23637 0.88411 0.0
O427 O 0.61776 0.27543 0.91137 0.0
O428 O 0.64019 0.17384 0.91469 0.0
O429 O 0.68311 0.19443 0.92448 0.0
O430 O 0.60152 0.19503 0.98001 0.0
O431 O 0.60627 0.23605 0.9531 0.0
H432 H 0.65035 0.30665 0.05749 0.0
H433 H 0.59201 0.36327 1.03412 0.0
H434 H 0.58991 0.38287 0.10138 0.0
H435 H 0.64846 0.32628 0.12442 0.0
H436 H 0.67855 0.12237 0.87329 0.0
H437 H 0.68512 0.21417 0.84766 0.0
H438 H 0.69743 0.20593 0.77612 0.0
H439 H 0.69023 0.11365 0.80121 0.0
Gd440 Gd 0.88097 0.70257 0.3757 0.0
Gd441 Gd 0.89586 0.76618 0.34718 0.0
C442 C 0.89182 0.75374 0.44317 0.0
C443 C 0.87072 0.65172 0.40991 0.0
C444 C 0.87768 0.6401 0.4455 0.0
C445 C 0.86136 0.6138 0.46354 0.0
C446 C 0.89969 0.65597 0.46272 0.0
C447 C 0.88839 0.61966 0.51697 0.0
C448 C 0.90524 0.64564 0.49797 0.0
C449 C 0.86662 0.60362 0.4992 0.0
C450 C 0.83998 0.72055 0.34171 0.0
C451 C 0.9089 0.71615 0.28201 0.0
C452 C 0.88701 0.81728 0.32937 0.0
C453 C 0.87139 0.82577 0.29974 0.0
C454 C 0.87085 0.85517 0.292 0.0
C455 C 0.85814 0.80411 0.27738 0.0
C456 C 0.84731 0.84129 0.23609 0.0
C457 C 0.84571 0.81176 0.24631 0.0
C458 C 0.8589 0.86294 0.26021 0.0
C459 C 0.94223 0.74199 0.35172 0.0
O460 O 0.88469 0.72546 0.43554 0.0
O461 O 0.89745 0.7738 0.41347 0.0
O462 O 0.85204 0.66991 0.4169 0.0
O463 O 0.8933 0.66048 0.38051 0.0
O464 O 0.84773 0.69534 0.33713 0.0
O465 O 0.85385 0.73514 0.36515 0.0
O466 O 0.89978 0.7418 0.28779 0.0
O467 O 0.90753 0.69857 0.31308 0.0
O468 O 0.91132 0.80762 0.31443 0.0
O469 O 0.87045 0.80093 0.35934 0.0
O470 O 0.94488 0.76491 0.32871 0.0
O471 O 0.91751 0.73733 0.37454 0.0
H472 H 0.84412 0.60153 0.45056 0.0
H473 H 0.91237 0.67646 0.44912 0.0
H474 H 0.92243 0.65819 0.51065 0.0
H475 H 0.85305 0.58375 0.51347 0.0
H476 H 0.88095 0.87212 0.30913 0.0
H477 H 0.8586 0.78129 0.28281 0.0
H478 H 0.83681 0.79465 0.22834 0.0
H479 H 0.86079 0.88587 0.25265 0.0
Gd480 Gd 0.51995 0.62012 0.70528 0.0
Gd481 Gd 0.48608 0.62961 0.63109 0.0
C482 C 0.45155 0.58872 0.70713 0.0
C483 C 0.53616 0.63318 0.77311 0.0
C484 C 0.54379 0.64245 0.81323 0.0
C485 C 0.56715 0.63362 0.82717 0.0
C486 C 0.52779 0.66119 0.83803 0.0
C487 C 0.55793 0.66176 0.88933 0.0
C488 C 0.53461 0.67054 0.87505 0.0
C489 C 0.57407 0.64306 0.86432 0.0
C490 C 0.51407 0.57601 0.65386 0.0
C491 C 0.55783 0.65328 0.6244 0.0
C492 C 0.47206 0.64431 0.56445 0.0
C493 C 0.46227 0.65407 0.52755 0.0
C494 C 0.44086 0.67224 0.53072 0.0
C495 C 0.47559 0.64722 0.48842 0.0
C496 C 0.44655 0.67646 0.45708 0.0
C497 C 0.46817 0.65845 0.45396 0.0
C498 C 0.43287 0.68282 0.49634 0.0
C499 C 0.47568 0.65839 0.69918 0.0
O500 O 0.47282 0.59882 0.72634 0.0
O501 O 0.45294 0.59398 0.66829 0.0
O502 O 0.55148 0.61881 0.74532 0.0
O503 O 0.5122 0.63902 0.76383 0.0
O504 O 0.51727 0.57211 0.6906 0.0
O505 O 0.51725 0.60292 0.64544 0.0
O506 O 0.53411 0.64841 0.60844 0.0
O507 O 0.55793 0.64548 0.66161 0.0
O508 O 0.47708 0.66263 0.59254 0.0
O509 O 0.47417 0.6172 0.57295 0.0
O510 O 0.45585 0.65072 0.6782 0.0
O511 O 0.50004 0.65304 0.68133 0.0
H512 H 0.58019 0.61933 0.80934 0.0
H513 H 0.50994 0.66907 0.82861 0.0
H514 H 0.52173 0.68526 0.89214 0.0
H515 H 0.59199 0.63526 0.87362 0.0
H516 H 0.43022 0.67839 0.56004 0.0
H517 H 0.49238 0.63366 0.48435 0.0
H518 H 0.47931 0.65277 0.42466 0.0
H519 H 0.41635 0.69669 0.50056 0.0
Gd520 Gd 0.96849 0.33296 0.17251 0.0
Gd521 Gd 0.03112 0.35391 0.1742 0.0
C522 C 0.01953 0.31858 0.09676 0.0
C523 C 0.91593 0.32885 0.16003 0.0
C524 C 0.90217 0.33988 0.13011 0.0
C525 C 0.91913 0.35036 0.09269 0.0
C526 C 0.87243 0.34243 0.14032 0.0
C527 C 0.8765 0.36565 0.07541 0.0
C528 C 0.85959 0.35512 0.11304 0.0
C529 C 0.90639 0.3631 0.06552 0.0
C530 C -0.0078 0.29539 0.20966 0.0
C531 C 0.98097 0.34841 0.25927 0.0
C532 C 0.08286 0.37126 0.18771 0.0
C533 C 0.09416 0.37462 0.22452 0.0
C534 C 0.12142 0.36712 0.22583 0.0
C535 C 0.0771 0.38422 0.25916 0.0
C536 C 0.11417 0.37842 0.29636 0.0
C537 C 0.08706 0.3862 0.29468 0.0
C538 C 0.13135 0.36886 0.2617 0.0
C539 C 0.00878 0.3891 0.12989 0.0
O540 O -0.00826 0.32244 0.10891 0.0
O541 O 0.03877 0.32618 0.11979 0.0
O542 O 0.9325 0.30917 0.14862 0.0
O543 O 0.92771 0.34918 0.18119 0.0
O544 O 0.96422 0.2957 0.21786 0.0
O545 O 0.00447 0.31096 0.17903 0.0
O546 O 0.00924 0.3516 0.24164 0.0
O547 O 0.96081 0.34521 0.23735 0.0
O548 O 0.06509 0.38906 0.18308 0.0
O549 O 0.07375 0.3444 0.17849 0.0
O550 O 0.03414 0.38134 0.11977 0.0
O551 O -0.00428 0.37766 0.16406 0.0
H552 H 0.9422 0.34875 0.08456 0.0
H553 H 0.85923 0.3348 0.16947 0.0
H554 H 0.83651 0.35669 0.12128 0.0
H555 H 0.91982 0.37027 1.03633 0.0
H556 H 0.13469 0.35942 0.19939 0.0
H557 H 0.05579 0.38976 0.25904 0.0
H558 H 0.07304 0.39286 0.32125 0.0
H559 H 0.15219 0.36248 0.26253 0.0
Gd560 Gd 0.50384 0.36192 0.46689 0.0
Gd561 Gd 0.47308 0.38017 0.3962 0.0
C562 C 0.43353 0.36342 0.4826 0.0
C563 C 0.5221 0.34849 0.5302 0.0
C564 C 0.532 0.33944 0.56687 0.0
C565 C 0.52243 0.31088 0.58349 0.0
C566 C 0.55238 0.35826 0.58424 0.0
C567 C 0.55324 0.32 0.63355 0.0
C568 C 0.56297 0.34864 0.61681 0.0
C569 C 0.53248 0.30149 0.61647 0.0
C570 C 0.49157 0.32274 0.41151 0.0
C571 C 0.54571 0.38945 0.38578 0.0
C572 C 0.4592 0.37306 0.32599 0.0
C573 C 0.45272 0.36702 0.28468 0.0
C574 C 0.43088 0.37869 0.27081 0.0
C575 C 0.46745 0.34776 0.25926 0.0
C576 C 0.43815 0.35127 0.208 0.0
C577 C 0.46022 0.3399 0.22206 0.0
C578 C 0.42384 0.37111 0.23323 0.0
C579 C 0.484 0.42245 0.44805 0.0
O580 O 0.45798 0.36703 0.49677 0.0
O581 O 0.43334 0.36267 0.44379 0.0
O582 O 0.50446 0.33022 0.51301 0.0
O583 O 0.52891 0.37498 0.5138 0.0
O584 O 0.51489 0.32495 0.42644 0.0
O585 O 0.47589 0.34042 0.42749 0.0
O586 O 0.52211 0.39099 0.371 0.0
O587 O 0.54476 0.38022 0.42266 0.0
O588 O 0.44572 0.38903 0.3533 0.0
O589 O 0.48061 0.36287 0.33674 0.0
O590 O 0.46491 0.42264 0.42528 0.0
O591 O 0.49915 0.40272 0.43739 0.0
H592 H 0.50736 0.29547 0.57054 0.0
H593 H 0.56055 0.38033 0.57225 0.0
H594 H 0.57869 0.36381 0.62909 0.0
H595 H 0.52445 0.27936 0.62797 0.0
H596 H 0.41895 0.39358 0.28919 0.0
H597 H 0.48424 0.33795 0.26858 0.0
H598 H 0.47168 0.3242 0.20488 0.0
H599 H 0.40715 0.38109 0.22403 0.0
Gd600 Gd -0.00704 0.60882 0.92401 0.0
Gd601 Gd 0.05376 0.62805 0.93538 0.0
C602 C 0.04709 0.61859 0.84246 0.0
C603 C 0.9444 0.58933 0.90263 0.0
C604 C 0.93477 0.58927 0.86483 0.0
C605 C 0.91158 0.56786 0.85851 0.0
C606 C 0.95074 0.60851 0.83343 0.0
C607 C 0.92131 0.5841 0.78886 0.0
C608 C 0.94397 0.60606 0.79578 0.0
C609 C 0.90479 0.56531 0.82066 0.0
C610 C 0.00986 0.57321 0.97371 0.0
C611 C -0.00024 0.64215 1.00557 0.0
C612 C 0.10708 0.62761 0.94235 0.0
C613 C 0.12749 0.63355 0.96959 0.0
C614 C 0.13329 0.6609 0.98663 0.0
C615 C 0.14172 0.61108 0.97829 0.0
C616 C 0.16583 0.64238 1.02308 0.0
C617 C 0.1606 0.61537 1.00489 0.0
C618 C 0.15242 0.66529 1.01309 0.0
C619 C 0.02742 0.67168 0.91847 0.0
O620 O 0.01823 0.61262 0.85752 0.0
O621 O 0.06536 0.62359 0.86734 0.0
O622 O 0.96469 0.57343 0.90301 0.0
O623 O 0.94961 0.61486 0.91876 0.0
O624 O -0.0148 0.58235 0.98054 0.0
O625 O 0.02555 0.58394 0.94044 0.0
O626 O 0.02712 0.63631 0.99797 0.0
O627 O 0.9833 0.63711 0.97818 0.0
O628 O 0.09904 0.6498 0.92695 0.0
O629 O 0.08571 0.60527 0.95233 0.0
O630 O 0.04536 0.67444 0.94307 0.0
O631 O 0.02596 0.64697 0.9035 0.0
H632 H 0.89935 0.55262 0.8825 0.0
H633 H 0.96892 0.62495 0.83766 0.0
H634 H 0.95664 0.62122 0.77196 0.0
H635 H 0.88725 0.5482 0.81597 0.0
H636 H 0.12279 0.67869 0.98004 0.0
H637 H 0.1377 0.5899 0.96513 0.0
H638 H 0.1701 0.5971 1.01242 0.0
H639 H 0.15626 0.68644 1.02634 0.0
C640 C 0.12383 0.10812 1.02708 0.0
C641 C 0.12431 0.10938 0.06787 0.0
C642 C 0.14914 0.11743 0.99786 0.0
C643 C 0.1763 0.12694 1.00955 0.0
C644 C 0.17758 0.12502 0.05053 0.0
C645 C 0.15138 0.11679 0.0794 0.0
C646 C 0.14588 0.11922 0.95479 0.0
C647 C 0.20603 0.13268 0.06463 0.0
C648 C 0.22031 0.13844 0.90807 0.0
C649 C 0.21419 0.16629 0.90128 0.0
C650 C 0.2147 0.12673 0.94732 0.0
C651 C 0.20127 0.14269 0.97905 0.0
C652 C 0.20263 0.17301 0.97311 0.0
C653 C 0.20979 0.18472 0.93389 0.0
C654 C 0.21778 0.09553 0.95389 0.0
C655 C 0.19126 0.19177 1.00693 0.0
H656 H 0.10316 0.10175 1.01773 0.0
H657 H 0.15209 0.1171 0.11093 0.0
H658 H 0.15332 0.14196 0.94271 0.0
H659 H 0.15941 0.10502 0.93599 0.0
H660 H 0.12282 0.11228 0.95154 0.0
H661 H 0.20781 0.1152 0.08555 0.0
H662 H 0.22566 0.13564 1.03971 0.0
H663 H 0.20595 0.15303 0.08177 0.0
H664 H 0.22542 0.12427 0.88327 0.0
H665 H 0.20728 0.20703 0.92884 0.0
H666 H 0.19755 0.0807 0.95006 0.0
H667 H 0.221 0.09186 0.98465 0.0
H668 H 0.23656 0.08974 0.93169 0.0
H669 H 0.16703 0.18541 1.0164 0.0
H670 H 0.19649 0.21535 0.99807 0.0
H671 H 0.20095 0.18849 1.03308 0.0
C672 C 0.10502 0.72293 0.32049 0.0
C673 C 0.10138 0.73873 0.356 0.0
C674 C 0.09524 0.73133 0.28618 0.0
C675 C 0.08083 0.75591 0.28703 0.0
C676 C 0.07717 0.77183 0.3228 0.0
C677 C 0.08783 0.76346 0.35607 0.0
C678 C 0.10036 0.71379 0.24891 0.0
C679 C 0.06123 0.7975 0.32636 0.0
C680 C 0.07541 0.79872 0.19263 0.0
C681 C 0.04733 0.78683 0.18627 0.0
C682 C 0.08691 0.78802 0.22382 0.0
C683 C 0.06973 0.7654 0.25095 0.0
C684 C 0.04129 0.7533 0.24466 0.0
C685 C 0.03079 0.76369 0.21226 0.0
C686 C 0.11771 0.80096 0.22761 0.0
C687 C 0.02168 0.72918 0.27193 0.0
H688 H 0.11558 0.70395 0.3194 0.0
H689 H 0.08515 0.77638 0.38265 0.0
H690 H 0.07899 0.70206 0.24387 0.0
H691 H 0.1106 0.72849 0.22236 0.0
H692 H 0.11467 0.69752 0.25106 0.0
H693 H 0.06098 0.80842 0.35539 0.0
H694 H 0.07161 0.81389 0.30185 0.0
H695 H 0.03822 0.78992 0.32336 0.0
H696 H 0.08876 0.81618 0.17259 0.0
H697 H 0.00915 0.75405 0.20789 0.0
H698 H 0.13063 0.7833 0.22872 0.0
H699 H 0.11709 0.81277 0.256 0.0
H700 H 0.1293 0.81641 0.20234 0.0
H701 H 0.02766 0.70792 0.26179 0.0
H702 H -0.00183 0.72838 0.27118 0.0
H703 H 0.0243 0.73171 0.30335 0.0
C704 C 0.28495 0.821 0.37778 0.0
C705 C 0.29638 0.84503 0.35112 0.0
C706 C 0.285 0.82348 0.41865 0.0
C707 C 0.29728 0.85047 0.43269 0.0
C708 C 0.30525 0.87557 0.40681 0.0
C709 C 0.30459 0.87255 0.36619 0.0
C710 C 0.27517 0.79644 0.44556 0.0
C711 C 0.31813 0.90486 0.4207 0.0
C712 C 0.3056 0.86432 0.53968 0.0
C713 C 0.33464 0.86018 0.53709 0.0
C714 C 0.29223 0.85962 0.50658 0.0
C715 C 0.30855 0.8511 0.4701 0.0
C716 C 0.33739 0.84563 0.46798 0.0
C717 C 0.35003 0.85024 0.50148 0.0
C718 C 0.26123 0.865 0.51023 0.0
C719 C 0.35559 0.83638 0.42964 0.0
H720 H 0.2781 0.79977 0.36622 0.0
H721 H 0.31336 0.89118 0.34565 0.0
H722 H 0.29458 0.78654 0.44757 0.0
H723 H 0.26469 0.80177 0.47631 0.0
H724 H 0.25948 0.77991 0.43358 0.0
H725 H 0.31856 0.92288 0.39924 0.0
H726 H 0.30547 0.90957 0.45049 0.0
H727 H 0.34101 0.90452 0.42364 0.0
H728 H 0.29352 0.87169 0.56736 0.0
H729 H 0.37259 0.84737 0.49911 0.0
H730 H 0.24858 0.84844 0.49406 0.0
H731 H 0.26179 0.88672 0.49657 0.0
H732 H 0.24946 0.86471 0.54204 0.0
H733 H 0.3436 0.81642 0.41858 0.0
H734 H 0.37716 0.83187 0.43361 0.0
H735 H 0.35963 0.85384 0.4061 0.0
C736 C 0.43091 0.25909 0.69833 0.0
C737 C 0.42388 0.24086 0.73298 0.0
C738 C 0.4435 0.24931 0.66026 0.0
C739 C 0.44933 0.22025 0.65593 0.0
C740 C 0.44188 0.20167 0.69081 0.0
C741 C 0.42963 0.21216 0.72853 0.0
C742 C 0.44985 0.27057 0.62506 0.0
C743 C 0.44651 0.17036 0.68829 0.0
C744 C 0.45649 0.18917 0.54982 0.0
C745 C 0.48659 0.1877 0.53802 0.0
C746 C 0.4443 0.19933 0.58776 0.0
C747 C 0.46245 0.20897 0.61526 0.0
C748 C 0.49292 0.20744 0.60362 0.0
C749 C 0.50445 0.19679 0.56557 0.0
C750 C 0.41172 0.19954 0.59853 0.0
C751 C 0.51384 0.21642 0.63111 0.0
H752 H 0.42665 0.28127 0.70079 0.0
H753 H 0.42437 0.1976 0.75469 0.0
H754 H 0.46297 0.26288 0.59751 0.0
H755 H 0.42874 0.27448 0.61862 0.0
H756 H 0.46158 0.29194 0.63279 0.0
H757 H 0.43642 0.15768 0.71673 0.0
H758 H 0.43705 0.15948 0.66375 0.0
H759 H 0.47038 0.16978 0.68133 0.0
H760 H 0.44217 0.1822 0.52932 0.0
H761 H 0.52766 0.19574 0.55744 0.0
H762 H 0.4079 0.22243 0.60029 0.0
H763 H 0.40204 0.18875 0.6284 0.0
H764 H 0.4 0.18832 0.57619 0.0
H765 H 0.50507 0.23005 0.65592 0.0
H766 H 0.53507 0.22856 0.61386 0.0
H767 H 0.51864 0.1965 0.64426 0.0
C768 C 0.8588 0.83623 0.1628 0.0
C769 C 0.84379 0.8494 0.19579 0.0
C770 C 0.86287 0.84783 0.12407 0.0
C771 C 0.85093 0.87305 0.11795 0.0
C772 C 0.83259 0.88423 0.15059 0.0
C773 C 0.82975 0.87264 0.18947 0.0
C774 C 0.88275 0.83474 0.09066 0.0
C775 C 0.81732 0.90941 0.14543 0.0
C776 C 0.91201 0.91221 1.04332 0.0
C777 C 0.9074 0.89496 1.01073 0.0
C778 C 0.89016 0.91012 0.07834 0.0
C779 C 0.86349 0.89043 0.08003 0.0
C780 C 0.8563 0.87948 1.044 0.0
C781 C 0.87874 0.88138 1.00937 0.0
C782 C 0.89782 0.92443 0.11539 0.0
C783 C 0.8266 0.86156 1.04378 0.0
H784 H 0.86979 0.81833 0.16756 0.0
H785 H 0.81758 0.8825 0.21495 0.0
H786 H 0.87138 0.82843 0.06586 0.0
H787 H 0.90278 0.85097 0.07856 0.0
H788 H 0.88982 0.81498 0.10082 0.0
H789 H 0.79391 0.90404 0.16115 0.0
H790 H 0.82734 0.92894 0.15976 0.0
H791 H 0.81834 0.9149 0.11353 0.0
H792 H 0.93388 0.924 1.04355 0.0
H793 H 0.87467 0.86898 0.98353 0.0
H794 H 0.90267 0.90787 0.13515 0.0
H795 H 0.87915 0.93393 0.13234 0.0
H796 H 0.91729 0.94205 0.10791 0.0
H797 H 0.82693 0.83823 0.04984 0.0
H798 H 0.8209 0.86337 1.01405 0.0
H799 H 0.80933 0.86863 0.06727 0.0
C800 C 0.93593 0.19241 0.73588 0.0
C801 C 0.92175 0.21681 0.73891 0.0
C802 C 0.94708 0.18284 0.76804 0.0
C803 C 0.94274 0.19685 0.80541 0.0
C804 C 0.92809 0.22127 0.80877 0.0
C805 C 0.91826 0.23114 0.77558 0.0
C806 C 0.96411 0.158 0.76164 0.0
C807 C 0.92296 0.23719 0.84751 0.0
C808 C 0.94435 0.15113 0.89861 0.0
C809 C 0.9716 0.16282 0.90795 0.0
C810 C 0.93477 0.16223 0.86604 0.0
C811 C 0.95283 0.18557 0.84108 0.0
C812 C 0.9802 0.19782 0.85074 0.0
C813 C -0.01088 0.1864 0.88372 0.0
C814 C 0.90481 0.14928 0.85888 0.0
C815 C 0.0008 0.22299 0.82678 0.0
H816 H 0.93937 0.18139 0.70771 0.0
H817 H 0.90752 0.25007 0.77856 0.0
H818 H -0.01522 0.16367 0.77274 0.0
H819 H 0.95095 0.13832 0.77892 0.0
H820 H 0.9697 0.15251 0.72955 0.0
H821 H 0.90995 0.25478 0.84626 0.0
H822 H 0.91125 0.22159 0.87251 0.0
H823 H 0.9444 0.24705 0.8544 0.0
H824 H 0.93004 0.13351 0.91739 0.0
H825 H 0.01024 0.19586 0.89005 0.0
H826 H 0.90703 0.13923 0.82911 0.0
H827 H 0.89155 0.16677 0.85869 0.0
H828 H 0.89266 0.13239 0.88203 0.0
H829 H 0.02193 0.21588 0.81372 0.0
H830 H 0.0058 0.24104 0.84706 0.0
H831 H -0.00791 0.2316 0.8024 0.0
C832 C 0.71171 0.1339 0.7196 0.0
C833 C 0.69498 0.15345 0.74049 0.0
C834 C 0.71053 0.12755 0.67964 0.0
C835 C 0.69187 0.14082 0.66081 0.0
C836 C 0.67522 0.1608 0.68181 0.0
C837 C 0.67696 0.16677 0.72133 0.0
C838 C 0.72859 0.10619 0.65816 0.0
C839 C 0.655 0.17554 0.6629 0.0
C840 C 0.69306 0.15567 0.55355 0.0
C841 C 0.66646 0.13809 0.55021 0.0
C842 C 0.70451 0.1537 0.58785 0.0
C843 C 0.68866 0.13404 0.61945 0.0
C844 C 0.66428 0.1134 0.61365 0.0
C845 C 0.65341 0.11568 0.57891 0.0
C846 C 0.73117 0.17543 0.59249 0.0
C847 C 0.64731 0.09153 0.64627 0.0
H848 H 0.72562 0.12356 0.73451 0.0
H849 H 0.66344 0.18134 0.7377 0.0
H850 H 0.71426 0.08464 0.65809 0.0
H851 H 0.73809 0.11335 0.62649 0.0
H852 H 0.74668 0.10329 0.6731 0.0
H853 H 0.64405 0.19088 0.68331 0.0
H854 H 0.66754 0.18794 0.63524 0.0
H855 H 0.63774 0.15887 0.65436 0.0
H856 H 0.7035 0.17286 0.53127 0.0
H857 H 0.63342 0.10135 0.57567 0.0
H858 H 0.74507 0.16541 0.60898 0.0
H859 H 0.72392 0.19402 0.60998 0.0
H860 H 0.74466 0.18416 0.56295 0.0
H861 H 0.66239 0.08216 0.66138 0.0
H862 H 0.63315 0.07349 0.63436 0.0
H863 H 0.63301 0.10269 0.66917 0.0
C864 C 0.54078 0.8369 0.54623 0.0
C865 C 0.51262 0.84464 0.55554 0.0
C866 C 0.55154 0.82412 0.50948 0.0
C867 C 0.53383 0.81819 0.48054 0.0
C868 C 0.50515 0.82549 0.48993 0.0
C869 C 0.49507 0.83873 0.52681 0.0
C870 C 0.58229 0.81736 0.50138 0.0
C871 C 0.48502 0.81933 0.46085 0.0
C872 C 0.57268 0.81276 0.36964 0.0
C873 C 0.571 0.78247 0.36433 0.0
C874 C 0.56072 0.82441 0.40672 0.0
C875 C 0.54589 0.8056 0.4401 0.0
C876 C 0.54369 0.77493 0.43483 0.0
C877 C 0.5564 0.76385 0.3975 0.0
C878 C 0.56431 0.85714 0.41026 0.0
C879 C 0.52777 0.75368 0.46873 0.0
H880 H 0.55487 0.84123 0.56763 0.0
H881 H 0.47326 0.84428 0.53323 0.0
H882 H 0.58173 0.7938 0.49555 0.0
H883 H 0.59569 0.82972 0.47413 0.0
H884 H 0.59337 0.82298 0.52676 0.0
H885 H 0.46296 0.82479 0.473 0.0
H886 H 0.49483 0.83218 0.43253 0.0
H887 H 0.48241 0.79591 0.4533 0.0
H888 H 0.58378 0.82762 0.34468 0.0
H889 H 0.55448 0.74045 0.39415 0.0
H890 H 0.57651 0.86414 0.43411 0.0
H891 H 0.54246 0.86374 0.41906 0.0
H892 H 0.57628 0.86895 0.38181 0.0
H893 H 0.53938 0.75649 0.49393 0.0
H894 H 0.5262 0.73061 0.45949 0.0
H895 H 0.50525 0.75816 0.48016 0.0
C896 C 0.62966 0.61149 0.43913 0.0
C897 C 0.64384 0.63317 0.40979 0.0
C898 C 0.6284 0.61698 0.47974 0.0
C899 C 0.64325 0.64401 0.49055 0.0
C900 C 0.66395 0.66185 0.46083 0.0
C901 C 0.66349 0.65674 0.42041 0.0
C902 C 0.60739 0.59607 0.5106 0.0
C903 C 0.6834 0.68861 0.47156 0.0
C904 C 0.58563 0.67609 0.5597 0.0
C905 C 0.586 0.66237 0.59586 0.0
C906 C 0.60676 0.67336 0.52524 0.0
C907 C 0.62938 0.65735 0.52765 0.0
C908 C 0.63299 0.6486 0.56566 0.0
C909 C 0.61089 0.65087 0.5996 0.0
C910 C 0.60225 0.68416 0.48565 0.0
C911 C 0.65838 0.63426 0.57039 0.0
H912 H 0.61636 0.59197 0.43084 0.0
H913 H 0.67601 0.67302 0.39808 0.0
H914 H 0.6183 0.59112 0.53484 0.0
H915 H 0.58817 0.6062 0.52429 0.0
H916 H 0.5992 0.57518 0.49742 0.0
H917 H 0.70521 0.69191 0.45069 0.0
H918 H 0.67344 0.70819 0.46865 0.0
H919 H 0.68653 0.68687 0.50273 0.0
H920 H 0.56689 0.68599 0.55726 0.0
H921 H 0.61176 0.64095 0.62788 0.0
H922 H 0.59738 0.66537 0.46648 0.0
H923 H 0.62243 0.69856 0.46948 0.0
H924 H 0.58386 0.69662 0.48946 0.0
H925 H 0.65052 0.61058 0.57727 0.0
H926 H 0.66739 0.64352 0.5962 0.0
H927 H 0.67631 0.63713 0.54318 0.0
C928 C 0.60805 0.29361 0.83681 0.0
C929 C 0.61717 0.26675 0.84125 0.0
C930 C 0.59826 0.30099 0.80244 0.0
C931 C 0.59791 0.28143 0.77047 0.0
C932 C 0.60791 0.25457 0.77408 0.0
C933 C 0.61733 0.24755 0.80925 0.0
C934 C 0.58753 0.32963 0.80087 0.0
C935 C 0.60856 0.23312 0.74079 0.0
C936 C 0.54619 0.29138 0.69958 0.0
C937 C 0.56485 0.30929 0.66809 0.0
C938 C 0.55665 0.28171 0.73233 0.0
C939 C 0.58684 0.2894 0.73384 0.0
C940 C 0.60592 0.30677 0.70162 0.0
C941 C 0.59477 0.31664 0.66964 0.0
C942 C 0.53518 0.26359 0.7658 0.0
C943 C 0.63828 0.31524 0.70109 0.0
H944 H 0.60791 0.30892 0.86085 0.0
H945 H 0.62441 0.22682 0.81188 0.0
H946 H 0.60081 0.34316 0.77459 0.0
H947 H 0.56441 0.32552 0.79722 0.0
H948 H 0.58871 0.34232 0.82832 0.0
H949 H 0.61715 0.2134 0.74773 0.0
H950 H 0.58612 0.22621 0.73528 0.0
H951 H 0.62253 0.24373 0.71262 0.0
H952 H 0.52305 0.28547 0.69921 0.0
H953 H 0.60969 0.32993 0.64544 0.0
H954 H 0.53719 0.27319 0.79509 0.0
H955 H 0.54041 0.24127 0.76638 0.0
H956 H 0.51206 0.26187 0.76252 0.0
H957 H 0.64146 0.32971 0.72631 0.0
H958 H 0.6507 0.32679 0.67267 0.0
H959 H 0.64773 0.29552 0.70529 0.0
C960 C 0.83749 0.3596 1.03554 0.0
C961 C 0.86288 0.37631 1.04439 0.0
C962 C 0.83065 0.36265 0.99796 0.0
C963 C 0.85013 0.38225 0.96895 0.0
C964 C 0.87226 0.40289 0.98062 0.0
C965 C 0.8784 0.39968 1.01852 0.0
C966 C 0.80559 0.34161 0.98723 0.0
C967 C 0.89259 0.42511 0.95106 0.0
C968 C 0.87811 0.34692 0.87248 0.0
C969 C 0.86602 0.3604 0.84507 0.0
C970 C 0.8726 0.35369 0.91284 0.0
C971 C 0.85417 0.37436 0.92633 0.0
C972 C 0.84118 0.38758 0.89898 0.0
C973 C 0.84763 0.38069 0.8583 0.0
C974 C 0.88717 0.33905 0.94075 0.0
C975 C 0.82118 0.40941 0.91203 0.0
H976 H 0.8249 0.34194 0.05587 0.0
H977 H 0.89728 0.41348 1.02617 0.0
H978 H 0.79543 0.35202 0.9658 0.0
H979 H 0.81405 0.32249 0.97268 0.0
H980 H 0.78848 0.3336 1.0143 0.0
H981 H 0.90449 0.44291 0.96642 0.0
H982 H 0.90908 0.41419 0.93132 0.0
H983 H 0.88023 0.43477 0.93185 0.0
H984 H 0.89271 0.33158 0.86204 0.0
H985 H 0.83827 0.39107 0.83692 0.0
H986 H 0.87027 0.32643 0.96488 0.0
H987 H 0.90112 0.35573 0.95508 0.0
H988 H 0.90119 0.32386 0.92502 0.0
H989 H 0.80914 0.40543 0.94363 0.0
H990 H 0.80498 0.40892 0.89259 0.0
H991 H 0.83452 0.43168 0.90924 0.0
C992 C 0.92837 0.72548 0.20634 0.0
C993 C 0.92159 0.70656 0.24032 0.0
C994 C 0.94139 0.71659 0.16777 0.0
C995 C 0.9476 0.68772 0.16218 0.0
C996 C 0.9403 0.66846 0.19634 0.0
C997 C 0.92784 0.67808 0.23453 0.0
C998 C 0.94805 0.73839 0.13317 0.0
C999 C 0.9454 0.63733 0.19255 0.0
C1000 C 0.95672 0.65603 0.05598 0.0
C1001 C -0.0131 0.65459 1.04531 0.0
C1002 C 0.94389 0.6668 0.09328 0.0
C1003 C 0.96148 0.67736 0.12112 0.0
C1004 C -0.00782 0.67685 0.10998 0.0
C1005 C 0.0043 0.66519 0.07285 0.0
C1006 C 0.91121 0.66646 0.10308 0.0
C1007 C 0.01263 0.68819 0.13727 0.0
H1008 H 0.92383 0.74752 0.20983 0.0
H1009 H 0.92281 0.66296 0.26007 0.0
H1010 H 0.96595 0.73367 0.10871 0.0
H1011 H 0.92803 0.73779 0.12087 0.0
H1012 H 0.95414 0.76092 0.1433 0.0
H1013 H 0.93604 0.62419 0.2208 0.0
H1014 H 0.93544 0.6267 0.16826 0.0
H1015 H 0.96932 0.63708 0.1844 0.0
H1016 H 0.94278 0.6482 1.03532 0.0
H1017 H 0.02763 0.66461 0.06536 0.0
H1018 H 0.90696 0.68918 0.10454 0.0
H1019 H 0.90127 0.65564 0.13287 0.0
H1020 H 0.90006 0.65499 0.08036 0.0
H1021 H 0.03471 0.69788 0.1196 0.0
H1022 H 0.01536 0.66973 0.15573 0.0
H1023 H 0.0042 0.70484 0.15773 0.0
C1024 C 0.40439 0.35146 0.55063 0.0
C1025 C 0.40617 0.36318 0.51247 0.0
C1026 C 0.38497 0.35948 0.58382 0.0
C1027 C 0.36629 0.37934 0.5784 0.0
C1028 C 0.36498 0.38772 0.53906 0.0
C1029 C 0.3853 0.37975 0.5063 0.0
C1030 C 0.38711 0.34914 0.6249 0.0
C1031 C 0.34391 0.40682 0.53126 0.0
C1032 C 0.33097 0.38406 0.68382 0.0
C1033 C 0.35391 0.40376 0.69479 0.0
C1034 C 0.33037 0.37988 0.64325 0.0
C1035 C 0.35362 0.39512 0.61394 0.0
C1036 C 0.37163 0.42004 0.62509 0.0
C1037 C 0.37105 0.42449 0.66583 0.0
C1038 C 0.30805 0.35585 0.63198 0.0
C1039 C 0.39512 0.43882 0.59453 0.0
H1040 H 0.42016 0.33802 0.55503 0.0
H1041 H 0.3864 0.38852 0.47656 0.0
H1042 H 0.39475 0.36805 0.64228 0.0
H1043 H 0.36532 0.33811 0.64169 0.0
H1044 H 0.40264 0.33354 0.62337 0.0
H1045 H 0.33328 0.3978 0.50667 0.0
H1046 H 0.32656 0.4088 0.55809 0.0
H1047 H 0.35626 0.42891 0.52094 0.0
H1048 H 0.31574 0.3694 0.70598 0.0
H1049 H 0.38695 0.44173 0.67438 0.0
H1050 H 0.31616 0.33482 0.63154 0.0
H1051 H 0.30421 0.36024 0.60176 0.0
H1052 H 0.2869 0.35342 0.65424 0.0
H1053 H 0.41333 0.42669 0.58334 0.0
H1054 H 0.40426 0.45942 0.60749 0.0
H1055 H 0.38616 0.44436 0.56861 0.0
C1056 C 0.40917 0.68831 0.417 0.0
C1057 C 0.43861 0.68872 0.41985 0.0
C1058 C 0.40159 0.69897 0.3821 0.0
C1059 C 0.42378 0.71138 0.34869 0.0
C1060 C 0.45352 0.71273 0.35208 0.0
C1061 C 0.46046 0.70106 0.38673 0.0
C1062 C 0.36959 0.69642 0.38072 0.0
C1063 C 0.47846 0.72609 0.31878 0.0
C1064 C 0.40659 0.71231 0.24195 0.0
C1065 C 0.40177 0.74099 0.23645 0.0
C1066 C 0.41356 0.70263 0.27773 0.0
C1067 C 0.41593 0.72176 0.31001 0.0
C1068 C 0.41099 0.75077 0.30473 0.0
C1069 C 0.40383 0.75986 0.26862 0.0
C1070 C 0.41857 0.67166 0.28085 0.0
C1071 C 0.41382 0.77255 0.33714 0.0
H1072 H 0.39182 0.67889 0.44186 0.0
H1073 H 0.48331 0.70206 0.38808 0.0
H1074 H 0.36453 0.71824 0.37507 0.0
H1075 H 0.36477 0.68256 0.35553 0.0
H1076 H 0.3548 0.68679 0.40896 0.0
H1077 H 0.47292 0.74465 0.3034 0.0
H1078 H 0.4987 0.73395 0.33013 0.0
H1079 H 0.48317 0.7092 0.29646 0.0
H1080 H 0.40496 0.69717 0.21797 0.0
H1081 H 0.40022 0.78203 0.26541 0.0
H1082 H 0.4038 0.66043 0.30806 0.0
H1083 H 0.44149 0.67176 0.2839 0.0
H1084 H 0.41473 0.65891 0.25427 0.0
H1085 H 0.39823 0.7643 0.3654 0.0
H1086 H 0.40949 0.79421 0.32894 0.0
H1087 H 0.4363 0.77533 0.34314 0.0
C1088 C 0.19462 0.6081 0.22662 0.0
C1089 C 0.20969 0.63108 0.24493 0.0
C1090 C 0.19627 0.60906 0.18526 0.0
C1091 C 0.21371 0.63339 0.16204 0.0
C1092 C 0.23258 0.65406 0.1795 0.0
C1093 C 0.22991 0.65307 0.22116 0.0
C1094 C 0.17637 0.58609 0.16752 0.0
C1095 C 0.25318 0.67894 0.155 0.0
C1096 C 0.207 0.63167 0.05353 0.0
C1097 C 0.1824 0.64524 0.05566 0.0
C1098 C 0.21916 0.62939 0.08726 0.0
C1099 C 0.20625 0.64086 0.12378 0.0
C1100 C 0.18307 0.65676 0.1251 0.0
C1101 C 0.17139 0.65866 0.09105 0.0
C1102 C 0.24443 0.61305 0.08421 0.0
C1103 C 0.16907 0.66996 0.16334 0.0
H1104 H 0.17912 0.591 0.24503 0.0
H1105 H 0.24203 0.67056 0.23534 0.0
H1106 H 0.15737 0.59536 0.16204 0.0
H1107 H 0.18813 0.57921 0.13836 0.0
H1108 H 0.16784 0.56651 0.18779 0.0
H1109 H 0.27243 0.68636 0.16861 0.0
H1110 H 0.26114 0.67261 0.12379 0.0
H1111 H 0.24143 0.69749 0.15383 0.0
H1112 H 0.21605 0.62182 1.02593 0.0
H1113 H 0.15231 0.66902 0.09308 0.0
H1114 H 0.23563 0.58965 0.09208 0.0
H1115 H 0.25887 0.62143 0.10501 0.0
H1116 H 0.25786 0.61449 0.05318 0.0
H1117 H 0.15814 0.65235 0.18604 0.0
H1118 H 0.15244 0.68306 0.15862 0.0
H1119 H 0.18608 0.68427 0.17589 0.0
C1120 C 0.08088 0.23393 0.89284 0.0
C1121 C 0.08209 0.25165 0.85911 0.0
C1122 C 0.06988 0.24269 0.93231 0.0
C1123 C 0.06092 0.27039 0.93864 0.0
C1124 C 0.0627 0.28842 0.90456 0.0
C1125 C 0.07271 0.27873 0.86567 0.0
C1126 C 0.06765 0.22207 0.96717 0.0
C1127 C 0.05405 0.31822 0.90909 0.0
C1128 C 0.00976 0.29063 1.03498 0.0
C1129 C 0.02971 0.30544 0.05673 0.0
C1130 C 0.01947 0.27809 0.99762 0.0
C1131 C 0.05003 0.28096 0.98048 0.0
C1132 C 0.0702 0.29589 1.00239 0.0
C1133 C 0.05991 0.30749 1.04009 0.0
C1134 C -0.00336 0.26238 0.97636 0.0
C1135 C 0.10285 0.30045 0.98543 0.0
H1136 H 0.08768 0.21285 0.88839 0.0
H1137 H 0.07352 0.29275 0.84006 0.0
H1138 H 0.08625 0.22924 0.98211 0.0
H1139 H 0.04699 0.22215 0.98968 0.0
H1140 H 0.06847 0.19935 0.95739 0.0
H1141 H 0.05866 0.33053 0.88001 0.0
H1142 H 0.03024 0.3159 0.92238 0.0
H1143 H 0.06605 0.33125 0.92978 0.0
H1144 H -0.0136 0.2886 0.04723 0.0
H1145 H 0.07573 0.31882 0.05622 0.0
H1146 H 0.00496 0.24525 0.95674 0.0
H1147 H -0.0098 0.27838 0.95745 0.0
H1148 H 0.97657 0.25214 0.99817 0.0
H1149 H 0.11007 0.27906 0.98 0.0
H1150 H 0.11575 0.31285 1.00567 0.0
H1151 H 0.108 0.31251 0.95612 0.0
C1152 C -0.00016 0.24762 0.2318 0.0
C1153 C 0.00796 0.27789 0.22996 0.0
C1154 C 0.02133 0.23019 0.23077 0.0
C1155 C 0.05116 0.244 0.22666 0.0
C1156 C 0.05746 0.27372 0.2355 0.0
C1157 C 0.0356 0.29062 0.23656 0.0
C1158 C 0.01285 0.19772 0.22627 0.0
C1159 C 0.08811 0.28864 0.23703 0.0
C1160 C 0.08697 0.18396 0.18443 0.0
C1161 C 0.0796 0.18532 0.14695 0.0
C1162 C 0.08397 0.20709 0.21054 0.0
C1163 C 0.07338 0.23125 0.19802 0.0
C1164 C 0.07419 0.23563 0.15656 0.0
C1165 C 0.07712 0.21214 0.13124 0.0
C1166 C 0.08773 0.20388 0.25294 0.0
C1167 C 0.06615 0.2626 0.14044 0.0
H1168 H 0.978 0.23778 0.22832 0.0
H1169 H 0.04126 0.31404 0.23804 0.0
H1170 H 0.01803 0.19247 0.1941 0.0
H1171 H 0.02509 0.18536 0.24255 0.0
H1172 H -0.01101 0.19016 0.2379 0.0
H1173 H 0.09918 0.29915 0.20744 0.0
H1174 H 0.08736 0.30607 0.25942 0.0
H1175 H 0.10147 0.27298 0.24471 0.0
H1176 H 0.09164 0.16374 0.19488 0.0
H1177 H 0.07293 0.21353 0.10132 0.0
H1178 H 0.06604 0.20097 0.27397 0.0
H1179 H 0.1012 0.22399 0.26127 0.0
H1180 H 0.0985 0.185 0.25685 0.0
H1181 H 0.042 0.26149 0.14883 0.0
H1182 H 0.07282 0.26458 0.10723 0.0
H1183 H 0.07679 0.28257 0.15305 0.0
C1184 C 0.96079 0.69833 0.3644 0.0
C1185 C 0.96564 0.72877 0.361 0.0
C1186 C 0.97419 0.68416 0.38932 0.0
C1187 C -0.00561 0.70106 0.40914 0.0
C1188 C 0.00135 0.73187 0.40281 0.0
C1189 C -0.01356 0.74546 0.37907 0.0
C1190 C 0.96576 0.65136 0.39508 0.0
C1191 C 0.02302 0.75085 0.42293 0.0
C1192 C 0.02596 0.68679 0.49743 0.0
C1193 C 0.05008 0.67495 0.47799 0.0
C1194 C 0.00451 0.69123 0.47651 0.0
C1195 C 0.00964 0.68668 0.4346 0.0
C1196 C 0.03266 0.6721 0.41622 0.0
C1197 C 0.05121 0.66436 0.43937 0.0
C1198 C 0.97814 0.7032 0.49879 0.0
C1199 C 0.04029 0.66729 0.3716 0.0
H1200 H 0.94483 0.68561 0.34986 0.0
H1201 H -0.01057 0.7691 0.37712 0.0
H1202 H 0.96851 0.64353 0.42446 0.0
H1203 H 0.94264 0.64382 0.39266 0.0
H1204 H 0.97954 0.64085 0.37087 0.0
H1205 H 0.03121 0.77239 0.40714 0.0
H1206 H 0.01197 0.75513 0.4538 0.0
H1207 H 0.04196 0.74014 0.42473 0.0
H1208 H 0.02496 0.69448 0.52765 0.0
H1209 H 0.06993 0.65478 0.42484 0.0
H1210 H 0.96782 0.68955 0.52634 0.0
H1211 H 0.96132 0.70382 0.48066 0.0
H1212 H -0.01475 0.7255 0.50887 0.0
H1213 H 0.03016 0.64482 0.36561 0.0
H1214 H 0.06439 0.66897 0.36082 0.0
H1215 H 0.03286 0.68304 0.35346 0.0
C1216 C 0.49597 0.69558 0.74117 0.0
C1217 C 0.47179 0.67554 0.735 0.0
C1218 C 0.49155 0.72251 0.75691 0.0
C1219 C 0.4625 0.72819 0.76585 0.0
C1220 C 0.43891 0.70452 0.77342 0.0
C1221 C 0.44354 0.67813 0.75561 0.0
C1222 C 0.51786 0.74626 0.75583 0.0
C1223 C 0.40813 0.70894 0.7913 0.0
C1224 C 0.46547 0.80736 0.74296 0.0
C1225 C 0.46164 0.80648 0.70334 0.0
C1226 C 0.46282 0.78183 0.76539 0.0
C1227 C 0.45769 0.75482 0.74694 0.0
C1228 C 0.45274 0.75399 0.70692 0.0
C1229 C 0.4543 0.78004 0.68605 0.0
C1230 C 0.46697 0.78454 0.80791 0.0
C1231 C 0.44792 0.72623 0.68419 0.0
H1232 H 0.51808 0.69248 0.7276 0.0
H1233 H 0.42493 0.66162 0.75304 0.0
H1234 H 0.5182 0.76394 0.73394 0.0
H1235 H 0.51662 0.75578 0.78583 0.0
H1236 H 0.53889 0.73791 0.74751 0.0
H1237 H 0.39781 0.69192 0.81507 0.0
H1238 H 0.40779 0.73078 0.80455 0.0
H1239 H 0.39474 0.70646 0.76799 0.0
H1240 H 0.4708 0.828 0.7567 0.0
H1241 H 0.45113 0.77983 0.65548 0.0
H1242 H 0.49037 0.79325 0.80778 0.0
H1243 H 0.46011 0.76357 0.82542 0.0
H1244 H 0.4543 0.80086 0.82315 0.0
H1245 H 0.46756 0.71574 0.68048 0.0
H1246 H 0.44437 0.73022 0.65368 0.0
H1247 H 0.42831 0.71102 0.70019 0.0
C1248 C 0.55685 0.19789 0.93057 0.0
C1249 C 0.55908 0.21045 0.96738 0.0
C1250 C 0.53541 0.20359 0.9107 0.0
C1251 C 0.51486 0.22074 0.92954 0.0
C1252 C 0.51442 0.22973 0.96935 0.0
C1253 C 0.53731 0.22521 0.98753 0.0
C1254 C 0.53749 0.1948 0.86764 0.0
C1255 C 0.49169 0.24671 0.99101 0.0
C1256 C 0.49074 0.2734 0.86483 0.0
C1257 C 0.46299 0.25836 0.86254 0.0
C1258 C 0.5081 0.26104 0.88625 0.0
C1259 C 0.49724 0.23318 0.90544 0.0
C1260 C 0.4698 0.21743 0.90148 0.0
C1261 C 0.45302 0.23031 0.87992 0.0
C1262 C 0.53754 0.27822 0.88967 0.0
C1263 C 0.45758 0.18772 0.92156 0.0
H1264 H 0.57429 0.18702 0.91486 0.0
H1265 H 0.53946 0.23515 1.0158 0.0
H1266 H 0.51546 0.1865 0.86154 0.0
H1267 H 0.54735 0.21426 0.84758 0.0
H1268 H 0.55144 0.17782 0.85976 0.0
H1269 H 0.49711 0.26963 0.97925 0.0
H1270 H 0.46956 0.23732 0.98595 0.0
H1271 H 0.49088 0.24692 1.02376 0.0
H1272 H 0.49818 0.29528 0.85172 0.0
H1273 H 0.43157 0.21888 0.87784 0.0
H1274 H 0.55463 0.26433 0.88218 0.0
H1275 H 0.53681 0.28504 0.92099 0.0
H1276 H 0.54397 0.29809 0.86978 0.0
H1277 H 0.47396 0.173 0.91468 0.0
H1278 H 0.43721 0.17721 0.9122 0.0
H1279 H 0.45263 0.19 0.95454 0.0
C1280 C 0.90712 0.76329 0.98616 0.0
C1281 C 0.91581 0.787 0.95864 0.0
C1282 C 0.91444 0.73614 0.9742 0.0
C1283 C 0.93129 0.73423 0.93509 0.0
C1284 C 0.93167 0.75546 0.90537 0.0
C1285 C 0.92171 0.78131 0.91771 0.0
C1286 C 0.90949 0.71175 1.00507 0.0
C1287 C 0.94759 0.75363 0.86242 0.0
C1288 C 0.00429 0.71416 0.94205 0.0
C1289 C 0.00452 0.68931 0.91929 0.0
C1290 C 0.98068 0.72912 0.94682 0.0
C1291 C 0.956 0.71797 0.92992 0.0
C1292 C 0.95637 0.69284 0.90655 0.0
C1293 C 0.98117 0.67946 0.90042 0.0
C1294 C 0.98277 0.75714 0.96941 0.0
C1295 C 0.93082 0.67924 0.88852 0.0
H1296 H 0.90004 0.767 1.01781 0.0
H1297 H 0.92581 0.7993 0.89619 0.0
H1298 H 0.90859 0.6902 0.99073 0.0
H1299 H 0.92776 0.71471 1.0213 0.0
H1300 H 0.88877 0.71186 1.0275 0.0
H1301 H 0.97116 0.75314 0.86111 0.0
H1302 H 0.93813 0.73329 0.84937 0.0
H1303 H 0.94613 0.77242 0.84342 0.0
H1304 H 0.02256 0.72188 0.95624 0.0
H1305 H 0.98179 0.66053 0.88198 0.0
H1306 H 0.96769 0.75385 0.99921 0.0
H1307 H 0.97653 0.77443 0.95261 0.0
H1308 H 0.00533 0.76503 0.97415 0.0
H1309 H 0.92307 0.65636 0.89998 0.0
H1310 H 0.93829 0.67836 0.85553 0.0
H1311 H 0.91186 0.69086 0.89521 0.0
C1312 C 0.54394 0.79474 0.22417 0.0
C1313 C 0.53369 0.76519 0.23464 0.0
C1314 C 0.53277 0.8087 0.19631 0.0
C1315 C 0.50975 0.79287 0.18046 0.0
C1316 C 0.49784 0.76347 0.19342 0.0
C1317 C 0.51036 0.7498 0.22007 0.0
C1318 C 0.54629 0.83982 0.18279 0.0
C1319 C 0.47293 0.7458 0.17774 0.0
C1320 C 0.45458 0.82692 0.1436 0.0
C1321 C 0.45407 0.81108 0.10872 0.0
C1322 C 0.47473 0.82362 0.16686 0.0
C1323 C 0.4968 0.80698 0.15186 0.0
C1324 C 0.50055 0.79741 0.11189 0.0
C1325 C 0.47796 0.79807 0.09136 0.0
C1326 C 0.46939 0.83482 0.20903 0.0
C1327 C 0.52618 0.78308 0.09288 0.0
H1328 H 0.56202 0.80637 0.23589 0.0
H1329 H 0.5033 0.72664 0.22716 0.0
H1330 H 0.55062 0.84213 0.14962 0.0
H1331 H 0.53086 0.8546 0.19529 0.0
H1332 H 0.56713 0.84718 0.19292 0.0
H1333 H 0.46274 0.72592 0.19675 0.0
H1334 H 0.45594 0.75911 0.17591 0.0
H1335 H 0.48132 0.73854 0.14722 0.0
H1336 H 0.43619 0.83758 0.15633 0.0
H1337 H 0.4778 0.7864 0.0638 0.0
H1338 H 0.47892 0.85841 0.20793 0.0
H1339 H 0.47906 0.82341 0.22997 0.0
H1340 H 0.44547 0.83277 0.22185 0.0
H1341 H 0.54492 0.7886 0.10808 0.0
H1342 H 0.53375 0.78999 0.06076 0.0
H1343 H 0.51924 0.75903 0.09406 0.0
C1344 C 0.48202 0.21969 0.37658 0.0
C1345 C 0.51113 0.21706 0.36022 0.0
C1346 C 0.46472 0.22888 0.35228 0.0
C1347 C 0.47861 0.24089 0.3135 0.0
C1348 C 0.50286 0.22841 0.29458 0.0
C1349 C 0.52087 0.21932 0.31839 0.0
C1350 C 0.43211 0.22531 0.36804 0.0
C1351 C 0.51025 0.22661 0.24986 0.0
C1352 C 0.46087 0.3021 0.36331 0.0
C1353 C 0.48842 0.3087 0.37382 0.0
C1354 C 0.4581 0.28637 0.32863 0.0
C1355 C 0.4821 0.27368 0.30895 0.0
C1356 C 0.51027 0.28963 0.31093 0.0
C1357 C 0.51341 0.30462 0.34577 0.0
C1358 C 0.42933 0.28107 0.31528 0.0
C1359 C 0.53693 0.29028 0.27766 0.0
H1360 H 0.47252 0.21394 0.40788 0.0
H1361 H 0.5419 0.21383 0.30444 0.0
H1362 H 0.42699 0.24357 0.38776 0.0
H1363 H 0.4202 0.22427 0.3432 0.0
H1364 H 0.42404 0.20485 0.38664 0.0
H1365 H 0.50046 0.20454 0.2419 0.0
H1366 H 0.50074 0.24263 0.23494 0.0
H1367 H 0.53432 0.2295 0.2386 0.0
H1368 H 0.44175 0.30882 0.382 0.0
H1369 H 0.53515 0.31373 0.35036 0.0
H1370 H 0.41071 0.27474 0.3412 0.0
H1371 H 0.42895 0.26428 0.29204 0.0
H1372 H 0.42591 0.30173 0.30248 0.0
H1373 H 0.55006 0.27398 0.28402 0.0
H1374 H 0.55149 0.31186 0.27561 0.0
H1375 H 0.53067 0.28618 0.24835 0.0
C1376 C 0.02866 0.20991 0.71638 0.0
C1377 C 0.04662 0.18879 0.71194 0.0
C1378 C 0.01402 0.2151 0.68627 0.0
C1379 C 0.01826 0.19918 0.65049 0.0
C1380 C 0.0338 0.17564 0.64811 0.0
C1381 C 0.04746 0.17045 0.67925 0.0
C1382 C -0.00399 0.23927 0.69189 0.0
C1383 C 0.0391 0.15802 0.61117 0.0
C1384 C 0.96552 0.21156 0.58791 0.0
C1385 C 0.97378 0.24195 0.58441 0.0
C1386 C 0.98091 0.19524 0.60739 0.0
C1387 C 0.0081 0.20907 0.61541 0.0
C1388 C 0.02089 0.23725 0.59795 0.0
C1389 C 0.00285 0.25426 0.58437 0.0
C1390 C 0.96553 0.16516 0.62379 0.0
C1391 C 0.05172 0.25133 0.59967 0.0
H1392 H 0.02774 0.22382 0.74195 0.0
H1393 H 0.06103 0.15367 0.67611 0.0
H1394 H 0.00998 0.26003 0.67885 0.0
H1395 H 0.9772 0.2346 0.67676 0.0
H1396 H -0.01243 0.24268 0.72416 0.0
H1397 H 0.04758 0.13788 0.61649 0.0
H1398 H 0.0191 0.15184 0.59903 0.0
H1399 H 0.05567 0.17185 0.58834 0.0
H1400 H 0.94388 0.20182 0.58413 0.0
H1401 H 0.01024 0.27758 0.5791 0.0
H1402 H 0.97442 0.15713 0.64837 0.0
H1403 H 0.96753 0.14955 0.59908 0.0
H1404 H 0.94168 0.16491 0.63511 0.0
H1405 H 0.05088 0.26966 0.62038 0.0
H1406 H 0.06351 0.26071 0.56966 0.0
H1407 H 0.06426 0.23577 0.60965 0.0
C1408 C 0.00814 0.0176 0.1116 0.0
C1409 C 0.03625 0.03281 0.11239 0.0
C1410 C 0.00389 -0.00374 0.08297 0.0
C1411 C 0.0281 0.99113 0.05304 0.0
C1412 C 0.05646 0.00719 0.05313 0.0
C1413 C 0.0603 0.02722 0.08348 0.0
C1414 C 0.97353 0.97889 0.08515 0.0
C1415 C 0.08265 0.00365 1.02075 0.0
C1416 C 0.0222 0.91953 0.99721 0.0
C1417 C 0.01085 0.9268 0.96461 0.0
C1418 C 0.02787 0.94011 1.02629 0.0
C1419 C 0.02357 0.96923 1.0215 0.0
C1420 C 0.01403 0.97717 0.98704 0.0
C1421 C 0.00726 0.95577 0.95948 0.0
C1422 C 0.03707 0.93026 0.06303 0.0
C1423 C 0.01055 0.0082 0.97952 0.0
H1424 H -0.01042 0.02189 0.13408 0.0
H1425 H 0.08203 0.03924 0.08386 0.0
H1426 H 0.96571 0.98291 0.0576 0.0
H1427 H 0.97416 0.95519 0.08702 0.0
H1428 H 0.9574 0.98448 0.11144 0.0
H1429 H 0.10279 0.01909 1.02363 0.0
H1430 H 0.08707 0.98105 1.02194 0.0
H1431 H 0.07795 0.00729 0.99084 0.0
H1432 H 0.02599 0.8975 1.00047 0.0
H1433 H -0.0011 0.96173 0.934 0.0
H1434 H 0.01902 0.93062 0.08959 0.0
H1435 H 0.0566 0.94531 0.0686 0.0
H1436 H 0.04219 0.90781 0.06043 0.0
H1437 H -0.008 0.01389 1.00213 0.0
H1438 H 0.00626 0.01154 0.94925 0.0
H1439 H 0.03064 0.0236 0.98258 0.0
C1440 C 0.21179 0.76514 0.36303 0.0
C1441 C 0.20289 0.74077 0.38963 0.0
C1442 C 0.23292 0.76525 0.32732 0.0
C1443 C 0.24532 0.73987 0.31661 0.0
C1444 C 0.23708 0.71533 0.34408 0.0
C1445 C 0.21643 0.71635 0.3805 0.0
C1446 C 0.24106 0.79274 0.30112 0.0
C1447 C 0.24965 0.68768 0.33561 0.0
C1448 C 0.2783 0.74224 0.20309 0.0
C1449 C 0.3077 0.74064 0.20216 0.0
C1450 C 0.25747 0.7403 0.23984 0.0
C1451 C 0.26672 0.73942 0.277 0.0
C1452 C 0.29692 0.73941 0.27578 0.0
C1453 C 0.31636 0.73848 0.23873 0.0
C1454 C 0.22562 0.73846 0.23783 0.0
C1455 C 0.30954 0.74017 0.313 0.0
H1456 H 0.20192 0.78446 0.36987 0.0
H1457 H 0.21033 0.6977 0.40113 0.0
H1458 H 0.24095 0.81242 0.3197 0.0
H1459 H 0.2629 0.79455 0.28073 0.0
H1460 H 0.2243 0.793 0.28282 0.0
H1461 H 0.23367 0.66827 0.34948 0.0
H1462 H 0.25654 0.6843 0.30307 0.0
H1463 H 0.26889 0.68872 0.34964 0.0
H1464 H 0.27114 0.74319 0.17505 0.0
H1465 H 0.33868 0.73615 0.23871 0.0
H1466 H 0.22233 0.7598 0.22687 0.0
H1467 H 0.21018 0.73239 0.26693 0.0
H1468 H 0.21982 0.72207 0.21575 0.0
H1469 H 0.33173 0.75396 0.30742 0.0
H1470 H 0.31269 0.71788 0.32024 0.0
H1471 H 0.29555 0.74851 0.33929 0.0
C1472 C 0.53717 0.08519 0.50378 0.0
C1473 C 0.51861 0.08353 0.47652 0.0
C1474 C 0.53642 0.061 0.52905 0.0
C1475 C 0.51653 0.03463 0.52704 0.0
C1476 C 0.49863 0.03269 0.49832 0.0
C1477 C 0.49977 0.05715 0.47371 0.0
C1478 C 0.556 0.06406 0.55903 0.0
C1479 C 0.47746 0.00504 0.49449 0.0
C1480 C 0.52955 0.96277 0.56673 0.0
C1481 C 0.5091 0.9582 0.60346 0.0
C1482 C 0.53246 0.98764 0.54212 0.0
C1483 C 0.51454 0.00883 0.55431 0.0
C1484 C 0.49376 0.00443 0.5914 0.0
C1485 C 0.49119 0.97908 0.61552 0.0
C1486 C 0.5546 0.99105 0.50276 0.0
C1487 C 0.47421 0.02649 0.60553 0.0
H1488 H 0.5511 0.10582 0.50683 0.0
H1489 H 0.48493 0.05606 0.45324 0.0
H1490 H 0.5423 0.06217 0.58985 0.0
H1491 H 0.56904 0.04619 0.55595 0.0
H1492 H 0.57132 0.08532 0.55539 0.0
H1493 H 0.46586 0.00672 0.4697 0.0
H1494 H 0.48933 0.98632 0.4891 0.0
H1495 H 0.46084 9e-05 0.52287 0.0
H1496 H 0.54346 0.94673 0.55698 0.0
H1497 H 0.47546 0.97578 0.64387 0.0
H1498 H 0.57011 0.01202 0.50151 0.0
H1499 H 0.5432 0.9917 0.47759 0.0
H1500 H 0.56743 0.97298 0.49808 0.0
H1501 H 0.48781 0.04831 0.60679 0.0
H1502 H 0.45994 0.02049 0.63557 0.0
H1503 H 0.46005 0.02841 0.58389 0.0
C1504 C 0.28925 0.25981 0.83361 0.0
C1505 C 0.31711 0.27282 0.81241 0.0
C1506 C 0.264 0.2617 0.81903 0.0
C1507 C 0.26669 0.27687 0.78222 0.0
C1508 C 0.29482 0.29093 0.76139 0.0
C1509 C 0.3198 0.28871 0.77677 0.0
C1510 C 0.23456 0.24626 0.84206 0.0
C1511 C 0.29866 0.30718 0.72205 0.0
C1512 C 0.20522 0.25226 0.72663 0.0
C1513 C 0.18571 0.27125 0.74099 0.0
C1514 C 0.23191 0.25407 0.73928 0.0
C1515 C 0.24009 0.27659 0.76501 0.0
C1516 C 0.22151 0.2973 0.77693 0.0
C1517 C 0.19434 0.29412 0.7653 0.0
C1518 C 0.25056 0.23096 0.72678 0.0
C1519 C 0.22986 0.32225 0.80309 0.0
H1520 H 0.28739 0.24705 0.86081 0.0
H1521 H 0.34151 0.29825 0.76006 0.0
H1522 H 0.2241 0.23055 0.82256 0.0
H1523 H 0.23646 0.23434 0.86917 0.0
H1524 H 0.21974 0.26226 0.8514 0.0
H1525 H 0.32156 0.31884 0.71131 0.0
H1526 H 0.29306 0.29167 0.69893 0.0
H1527 H 0.2834 0.32308 0.72507 0.0
H1528 H 0.19937 0.23558 0.70612 0.0
H1529 H 0.17961 0.30929 0.77589 0.0
H1530 H 0.25153 0.21813 0.75364 0.0
H1531 H 0.27339 0.24122 0.71283 0.0
H1532 H 0.24177 0.21568 0.70533 0.0
H1533 H 0.22938 0.31366 0.8335 0.0
H1534 H 0.21474 0.33832 0.80589 0.0
H1535 H 0.25259 0.3337 0.79073 0.0
C1536 C 0.74043 0.26422 0.89431 0.0
C1537 C 0.71321 0.26904 0.88822 0.0
C1538 C 0.7642 0.26352 0.86146 0.0
C1539 C 0.76029 0.26643 0.82157 0.0
C1540 C 0.73249 0.27057 0.81558 0.0
C1541 C 0.70981 0.27284 0.84881 0.0
C1542 C 0.79343 0.25931 0.86939 0.0
C1543 C 0.72628 0.27184 0.77405 0.0
C1544 C 0.82291 0.27964 0.72746 0.0
C1545 C 0.82538 0.25096 0.7164 0.0
C1546 C 0.80258 0.28515 0.76246 0.0
C1547 C 0.78375 0.26147 0.78619 0.0
C1548 C 0.78628 0.23258 0.7747 0.0
C1549 C 0.80694 0.22785 0.74049 0.0
C1550 C 0.80184 0.31625 0.77475 0.0
C1551 C 0.76788 0.20595 0.79828 0.0
H1552 H 0.74342 0.26195 0.92468 0.0
H1553 H 0.68892 0.27692 0.84384 0.0
H1554 H 0.79722 0.237 0.86096 0.0
H1555 H 0.8115 0.27508 0.85077 0.0
H1556 H 0.79444 0.26208 0.90143 0.0
H1557 H 0.70255 0.27106 0.77476 0.0
H1558 H 0.73871 0.29231 0.75809 0.0
H1559 H 0.73357 0.25334 0.75637 0.0
H1560 H 0.83723 0.29764 0.70947 0.0
H1561 H 0.80855 0.20545 0.73277 0.0
H1562 H 0.8048 0.31864 0.80608 0.0
H1563 H 0.78016 0.32193 0.77389 0.0
H1564 H 0.81918 0.33207 0.755 0.0
H1565 H 0.74924 0.21078 0.82134 0.0
H1566 H 0.7821 0.19523 0.81341 0.0
H1567 H 0.75922 0.18986 0.77763 0.0
C1568 C 0.8046 0.75389 0.33488 0.0
C1569 C 0.81233 0.72612 0.33204 0.0
C1570 C 0.77863 0.75884 0.32419 0.0
C1571 C 0.7592 0.73505 0.31284 0.0
C1572 C 0.76651 0.70679 0.31137 0.0
C1573 C 0.79321 0.70281 0.32017 0.0
C1574 C 0.77222 0.78953 0.32449 0.0
C1575 C 0.74578 0.68057 0.30155 0.0
C1576 C 0.67901 0.74188 0.32312 0.0
C1577 C 0.67749 0.74586 0.28313 0.0
C1578 C 0.70544 0.7381 0.33326 0.0
C1579 C 0.73107 0.73936 0.30268 0.0
C1580 C 0.72955 0.74356 0.26216 0.0
C1581 C 0.7026 0.74639 0.25282 0.0
C1582 C 0.70603 0.73339 0.37674 0.0
C1583 C 0.75653 0.74578 0.22883 0.0
H1584 H 0.81904 0.77179 0.34477 0.0
H1585 H 0.79879 0.68112 0.31856 0.0
H1586 H 0.76847 0.7955 0.2948 0.0
H1587 H 0.75186 0.79085 0.34694 0.0
H1588 H 0.79044 0.80582 0.33158 0.0
H1589 H 0.75524 0.66023 0.30019 0.0
H1590 H 0.72519 0.67736 0.32485 0.0
H1591 H 0.73987 0.6842 0.27243 0.0
H1592 H 0.65958 0.7421 0.34648 0.0
H1593 H 0.70142 0.75032 0.22198 0.0
H1594 H 0.71843 0.75316 0.38761 0.0
H1595 H 0.71744 0.71495 0.38033 0.0
H1596 H 0.68358 0.72891 0.39595 0.0
H1597 H 0.77403 0.76333 0.23497 0.0
H1598 H 0.75192 0.75049 0.19916 0.0
H1599 H 0.76526 0.72506 0.22734 0.0
C1600 C 0.51806 0.5593 0.5836 0.0
C1601 C 0.50981 0.55266 0.62486 0.0
C1602 C 0.51456 0.53751 0.55542 0.0
C1603 C 0.50169 0.50847 0.56878 0.0
C1604 C 0.49299 0.50175 0.61052 0.0
C1605 C 0.49757 0.52386 0.63806 0.0
C1606 C 0.52475 0.54561 0.51134 0.0
C1607 C 0.47843 0.47131 0.62605 0.0
C1608 C 0.46689 0.46076 0.4942 0.0
C1609 C 0.48824 0.44356 0.47993 0.0
C1610 C 0.47067 0.48143 0.52374 0.0
C1611 C 0.49669 0.48537 0.53901 0.0
C1612 C 0.51821 0.4678 0.52494 0.0
C1613 C 0.51362 0.44694 0.4958 0.0
C1614 C 0.44704 0.49948 0.5379 0.0
C1615 C 0.54641 0.47151 0.53996 0.0
H1616 H 0.52773 0.58153 0.57328 0.0
H1617 H 0.49101 0.51873 0.66996 0.0
H1618 H 0.50579 0.54166 0.49644 0.0
H1619 H 0.53547 0.56887 0.50594 0.0
H1620 H 0.54056 0.53166 0.49693 0.0
H1621 H 0.47202 0.46984 0.65928 0.0
H1622 H 0.45851 0.46431 0.61369 0.0
H1623 H 0.49351 0.45568 0.61587 0.0
H1624 H 0.44712 0.45808 0.48224 0.0
H1625 H 0.53021 0.43373 0.48478 0.0
H1626 H 0.45479 0.52214 0.52555 0.0
H1627 H 0.44225 0.50059 0.57104 0.0
H1628 H 0.42634 0.4906 0.52817 0.0
H1629 H 0.55879 0.49402 0.53262 0.0
H1630 H 0.56068 0.45578 0.52664 0.0
H1631 H 0.54153 0.4685 0.57303 0.0
C1632 C 0.03024 0.52714 0.9821 0.0
C1633 C 0.01377 0.54838 0.99812 0.0
C1634 C 0.02915 0.50133 1.00456 0.0
C1635 C 0.01133 0.49683 1.04388 0.0
C1636 C -0.00435 0.51885 0.06047 0.0
C1637 C -0.00294 0.54417 1.03748 0.0
C1638 C 0.04637 0.47848 0.98582 0.0
C1639 C 0.97672 0.51539 0.10228 0.0
C1640 C -0.01475 0.41922 0.08967 0.0
C1641 C 0.00537 0.41759 0.11401 0.0
C1642 C -0.01318 0.44486 0.06674 0.0
C1643 C 0.00915 0.46937 0.0681 0.0
C1644 C 0.02893 0.46795 0.09366 0.0
C1645 C 0.02687 0.44212 0.11606 0.0
C1646 C 0.96512 0.44541 1.04017 0.0
C1647 C 0.05286 0.49347 0.09654 0.0
H1648 H 0.04294 0.53011 0.95161 0.0
H1649 H -0.01568 0.56056 0.05014 0.0
H1650 H 0.06112 0.47349 1.00523 0.0
H1651 H 0.03108 0.45794 0.98322 0.0
H1652 H 0.05981 0.48551 0.95559 0.0
H1653 H 0.9665 0.53488 0.1112 0.0
H1654 H 0.959 0.49609 0.10414 0.0
H1655 H -0.00997 0.5115 0.12426 0.0
H1656 H 0.96916 0.40006 0.08717 0.0
H1657 H 0.04287 0.44067 0.13423 0.0
H1658 H 0.97698 0.44929 1.00849 0.0
H1659 H 0.95289 0.46366 0.04826 0.0
H1660 H 0.94908 0.42469 1.04255 0.0
H1661 H 0.06777 0.49854 0.06677 0.0
H1662 H 0.06609 0.48911 0.11845 0.0
H1663 H 0.04315 0.5132 0.10555 0.0
C1664 C 0.07153 0.16044 0.44268 0.0
C1665 C 0.09394 0.15298 0.41223 0.0
C1666 C 0.07677 0.17099 0.48001 0.0
C1667 C 0.1052 0.17341 0.48898 0.0
C1668 C 0.12812 0.1664 0.45813 0.0
C1669 C 0.12228 0.15629 0.42068 0.0
C1670 C 0.05104 0.17895 0.50953 0.0
C1671 C 0.15925 0.17051 0.46419 0.0
C1672 C 0.11956 0.22157 0.57851 0.0
C1673 C 0.11877 0.20106 0.60916 0.0
C1674 C 0.11624 0.21309 0.53945 0.0
C1675 C 0.11104 0.18304 0.5301 0.0
C1676 C 0.11096 0.16222 0.56065 0.0
C1677 C 0.1152 0.17141 0.59924 0.0
C1678 C 0.11772 0.23651 0.50832 0.0
C1679 C 0.10423 0.12997 0.55353 0.0
H1680 H 0.04936 0.15778 0.43771 0.0
H1681 H 0.14024 0.15151 0.39765 0.0
H1682 H 0.0578 0.19605 0.53003 0.0
H1683 H 0.0354 0.18696 0.49387 0.0
H1684 H 0.03901 0.15901 0.52719 0.0
H1685 H 0.17499 0.16588 0.43685 0.0
H1686 H 0.16614 0.19329 0.47281 0.0
H1687 H 0.1606 0.15591 0.48903 0.0
H1688 H 0.12245 0.24457 0.58522 0.0
H1689 H 0.11408 0.15517 0.62239 0.0
H1690 H 0.0956 0.23606 0.50192 0.0
H1691 H 0.13258 0.23244 0.47986 0.0
H1692 H 0.12554 0.25869 0.51831 0.0
H1693 H 0.0826 0.12464 0.54487 0.0
H1694 H 0.10366 0.11643 0.58046 0.0
H1695 H 0.12091 0.12394 0.52839 0.0
C1696 C 0.07657 0.80688 0.7085 0.0
C1697 C 0.1036 0.80007 0.68885 0.0
C1698 C 0.06895 0.80728 0.75023 0.0
C1699 C 0.08824 0.79925 0.77324 0.0
C1700 C 0.11509 0.79125 0.75388 0.0
C1701 C 0.12282 0.79254 0.7119 0.0
C1702 C 0.04011 0.81639 0.76953 0.0
C1703 C 0.13596 0.78159 0.77694 0.0
C1704 C 0.06918 0.83312 0.87191 0.0
C1705 C 0.04405 0.81305 0.88871 0.0
C1706 C 0.08721 0.8272 0.83581 0.0
C1707 C 0.07992 0.80039 0.81737 0.0
C1708 C 0.05795 0.77808 0.83855 0.0
C1709 C 0.03951 0.78503 0.87364 0.0
C1710 C 0.11091 0.8513 0.81452 0.0
C1711 C 0.05115 0.74839 0.82128 0.0
H1712 H 0.06101 0.81167 0.69134 0.0
H1713 H 0.144 0.7876 0.69733 0.0
H1714 H 0.02499 0.79762 0.78665 0.0
H1715 H 0.04373 0.83404 0.79087 0.0
H1716 H 0.02902 0.8243 0.74713 0.0
H1717 H 0.1475 0.76488 0.76035 0.0
H1718 H 0.15293 0.80058 0.7803 0.0
H1719 H 0.12463 0.77242 0.80721 0.0
H1720 H 0.07245 0.85481 0.88388 0.0
H1721 H 0.02 0.76957 0.88688 0.0
H1722 H 0.10326 0.86076 0.78966 0.0
H1723 H 0.13108 0.8426 0.80133 0.0
H1724 H 0.11647 0.86906 0.83496 0.0
H1725 H 0.03647 0.74932 0.80005 0.0
H1726 H 0.03978 0.73172 0.84516 0.0
H1727 H 0.07154 0.74145 0.80461 0.0
C1728 C 0.39123 0.83631 0.99689 0.0
C1729 C 0.3867 0.80572 1.00322 0.0
C1730 C 0.40245 0.85002 0.95807 0.0
C1731 C 0.40917 0.83316 0.9234 0.0
C1732 C 0.40364 0.80218 0.92959 0.0
C1733 C 0.39316 0.78912 0.96883 0.0
C1734 C 0.40775 0.88289 0.95429 0.0
C1735 C 0.40959 0.78226 0.89508 0.0
C1736 C 0.41655 0.86788 0.81663 0.0
C1737 C 0.4472 0.87511 0.80176 0.0
C1738 C 0.40411 0.85457 0.85549 0.0
C1739 C 0.42232 0.84794 0.8814 0.0
C1740 C 0.45327 0.85545 0.8667 0.0
C1741 C 0.46513 0.86868 0.82772 0.0
C1742 C 0.37117 0.84672 0.86842 0.0
C1743 C 0.47411 0.84862 0.89182 0.0
H1744 H 0.38689 0.84981 1.02266 0.0
H1745 H 0.39019 0.76558 0.97251 0.0
H1746 H 0.43143 0.89116 0.94221 0.0
H1747 H 0.39546 0.88992 0.9328 0.0
H1748 H 0.40101 0.89313 0.98345 0.0
H1749 H 0.39551 0.76038 0.90156 0.0
H1750 H 0.40593 0.79141 0.867 0.0
H1751 H 0.43278 0.77919 0.89047 0.0
H1752 H 0.40204 0.87191 0.79736 0.0
H1753 H 0.48876 0.87334 0.81717 0.0
H1754 H 0.36354 0.85714 0.89711 0.0
H1755 H 0.36471 0.82274 0.87376 0.0
H1756 H 0.35973 0.85359 0.84572 0.0
H1757 H 0.46925 0.85858 0.92155 0.0
H1758 H 0.49746 0.85666 0.87735 0.0
H1759 H 0.47097 0.82464 0.89702 0.0
C1760 C 0.37931 0.12357 0.23926 0.0
C1761 C 0.4089 0.12755 0.24196 0.0
C1762 C 0.37151 0.12507 0.20207 0.0
C1763 C 0.39388 0.13103 0.16702 0.0
C1764 C 0.42373 0.13368 0.16936 0.0
C1765 C 0.43087 0.13172 0.20685 0.0
C1766 C 0.33944 0.12194 0.20055 0.0
C1767 C 0.44819 0.14022 0.13257 0.0
C1768 C 0.37634 0.12398 0.06369 0.0
C1769 C 0.37549 0.15309 0.05438 0.0
C1770 C 0.38164 0.11618 0.10078 0.0
C1771 C 0.38636 0.13811 0.12875 0.0
C1772 C 0.38486 0.16738 0.11981 0.0
C1773 C 0.3792 0.17442 0.08286 0.0
C1774 C 0.38282 0.08472 0.1097 0.0
C1775 C 0.3899 0.19142 0.14885 0.0
H1776 H 0.36225 0.12049 0.26633 0.0
H1777 H 0.45375 0.1341 0.20877 0.0
H1778 H 0.33451 0.14352 0.19328 0.0
H1779 H 0.33427 0.10697 0.17662 0.0
H1780 H 0.32478 0.11356 0.22951 0.0
H1781 H 0.47004 0.13913 0.13912 0.0
H1782 H 0.4442 0.12463 0.10881 0.0
H1783 H 0.44879 0.16245 0.12043 0.0
H1784 H 0.37363 0.10745 1.04162 0.0
H1785 H 0.37789 0.19678 0.07609 0.0
H1786 H 0.3678 0.07713 0.13868 0.0
H1787 H 0.40534 0.08274 0.11264 0.0
H1788 H 0.37672 0.07005 0.08589 0.0
H1789 H 0.37431 0.18606 0.17804 0.0
H1790 H 0.38722 0.21293 0.13758 0.0
H1791 H 0.41243 0.19342 0.15446 0.0
C1792 C 0.89589 0.74179 0.51502 0.0
C1793 C 0.89722 0.7627 0.48458 0.0
C1794 C 0.90213 0.74982 0.55309 0.0
C1795 C 0.91031 0.77972 0.56189 0.0
C1796 C 0.91172 0.8009 0.53125 0.0
C1797 C 0.90526 0.79226 0.49352 0.0
C1798 C 0.90047 0.72597 0.58364 0.0
C1799 C 0.92036 0.83297 0.53823 0.0
C1800 C 0.90162 0.80436 0.67244 0.0
C1801 C 0.93039 0.80779 0.67958 0.0
C1802 C 0.89489 0.79512 0.63505 0.0
C1803 C 0.91723 0.78893 0.60279 0.0
C1804 C 0.94623 0.79203 0.60977 0.0
C1805 C 0.95239 0.80132 0.64748 0.0
C1806 C 0.86358 0.79204 0.63004 0.0
C1807 C 0.97099 0.78545 0.5772 0.0
H1808 H 0.89022 0.71884 0.50901 0.0
H1809 H 0.90674 0.8089 0.47075 0.0
H1810 H 0.92305 0.72303 0.58496 0.0
H1811 H 0.88959 0.73178 0.61396 0.0
H1812 H 0.88833 0.70481 0.57592 0.0
H1813 H 0.92051 0.8469 0.51184 0.0
H1814 H 0.90488 0.83954 0.56446 0.0
H1815 H 0.94256 0.83722 0.54522 0.0
H1816 H 0.88414 0.80946 0.69596 0.0
H1817 H 0.97465 0.80315 0.65184 0.0
H1818 H 0.85583 0.76944 0.62152 0.0
H1819 H 0.86237 0.80696 0.60544 0.0
H1820 H 0.84845 0.79702 0.65779 0.0
H1821 H -0.00758 0.78926 0.58658 0.0
H1822 H 0.97294 0.79925 0.55004 0.0
H1823 H 0.96617 0.76234 0.56868 0.0
C1824 C 0.93014 0.14892 0.40172 0.0
C1825 C 0.90054 0.14583 0.42131 0.0
C1826 C 0.93812 0.14144 0.3617 0.0
C1827 C 0.91596 0.13001 0.3408 0.0
C1828 C 0.88602 0.1272 0.36003 0.0
C1829 C 0.87864 0.13525 0.4001 0.0
C1830 C 0.97041 0.14507 0.34215 0.0
C1831 C 0.86185 0.1149 0.33878 0.0
C1832 C 0.94928 0.13173 0.23046 0.0
C1833 C 0.96003 0.1054 0.22793 0.0
C1834 C 0.93188 0.1391 0.26641 0.0
C1835 C 0.92483 0.11933 0.29983 0.0
C1836 C 0.93223 0.09111 0.29533 0.0
C1837 C 0.95006 0.08458 0.25943 0.0
C1838 C 0.92413 0.16929 0.27002 0.0
C1839 C 0.92452 0.06912 0.32992 0.0
H1840 H 0.94723 0.15657 0.41796 0.0
H1841 H 0.85571 0.1332 0.41482 0.0
H1842 H 0.97644 0.12338 0.33454 0.0
H1843 H 0.97508 0.15823 0.3138 0.0
H1844 H -0.01524 0.15589 0.36182 0.0
H1845 H 0.83993 0.11826 0.35561 0.0
H1846 H 0.86594 0.12501 0.30832 0.0
H1847 H 0.86135 0.09111 0.33523 0.0
H1848 H 0.95704 0.14783 0.20602 0.0
H1849 H 0.95818 0.06407 0.25719 0.0
H1850 H 0.93835 0.18284 0.28767 0.0
H1851 H 0.90103 0.16832 0.28618 0.0
H1852 H 0.92727 0.18031 0.24025 0.0
H1853 H 0.93949 0.07538 0.35079 0.0
H1854 H 0.92679 0.04677 0.31964 0.0
H1855 H 0.90173 0.06873 0.3469 0.0
C1856 C 0.62081 0.1841 0.09184 0.0
C1857 C 0.62308 0.21379 0.08122 0.0
C1858 C 0.60848 0.17289 0.13162 0.0
C1859 C 0.59791 0.19154 0.16244 0.0
C1860 C 0.60092 0.22171 0.15202 0.0
C1861 C 0.61303 0.23221 0.11201 0.0
C1862 C 0.60666 0.14084 0.14064 0.0
C1863 C 0.5908 0.24346 0.1824 0.0
C1864 C 0.54166 0.15994 0.25921 0.0
C1865 C 0.5593 0.16058 0.2879 0.0
C1866 C 0.55384 0.16911 0.21846 0.0
C1867 C 0.58453 0.1797 0.20539 0.0
C1868 C 0.6024 0.17982 0.23403 0.0
C1869 C 0.58979 0.17025 0.27427 0.0
C1870 C 0.53371 0.16813 0.1894 0.0
C1871 C 0.635 0.19113 0.22248 0.0
H1872 H 0.62814 0.16933 0.06878 0.0
H1873 H 0.61427 0.25514 0.10486 0.0
H1874 H 0.61861 0.13806 0.16469 0.0
H1875 H 0.58341 0.13044 0.15179 0.0
H1876 H 0.61605 0.12914 0.11391 0.0
H1877 H 0.6061 0.26473 0.17693 0.0
H1878 H 0.56903 0.24747 0.17873 0.0
H1879 H 0.58893 0.23599 0.21375 0.0
H1880 H 0.51813 0.15293 0.26878 0.0
H1881 H 0.60399 0.17133 0.29553 0.0
H1882 H 0.54091 0.15443 0.16379 0.0
H1883 H 0.53498 0.19045 0.17704 0.0
H1884 H 0.5105 0.15921 0.20359 0.0
H1885 H 0.64508 0.17955 0.19611 0.0
H1886 H 0.64633 0.1885 0.24728 0.0
H1887 H 0.63882 0.21467 0.21377 0.0
C1888 C 0.57674 0.88065 0.88401 0.0
C1889 C 0.59842 0.88542 0.84865 0.0
C1890 C 0.58434 0.87843 0.92115 0.0
C1891 C 0.61434 0.88158 0.92287 0.0
C1892 C 0.63639 0.88749 0.88753 0.0
C1893 C 0.62814 0.88908 0.8507 0.0
C1894 C 0.56024 0.87182 0.95835 0.0
C1895 C 0.66859 0.89107 0.88848 0.0
C1896 C 0.63084 0.89284 1.02605 0.0
C1897 C 0.63143 0.86414 1.0375 0.0
C1898 C 0.6264 0.89918 0.98797 0.0
C1899 C 0.62239 0.87618 0.96127 0.0
C1900 C 0.62434 0.84742 0.97213 0.0
C1901 C 0.62903 0.8418 1.01013 0.0
C1902 C 0.62484 0.93015 0.9769 0.0
C1903 C 0.62008 0.82231 0.94444 0.0
H1904 H 0.55378 0.87848 0.88266 0.0
H1905 H 0.64498 0.89248 0.8234 0.0
H1906 H 0.56093 0.85035 0.9718 0.0
H1907 H 0.56363 0.88849 0.98106 0.0
H1908 H 0.53805 0.87123 0.95197 0.0
H1909 H 0.68298 0.89843 0.85893 0.0
H1910 H 0.67398 0.90709 0.91116 0.0
H1911 H 0.67369 0.86994 0.89735 0.0
H1912 H 0.63273 0.91006 0.04737 0.0
H1913 H 0.63024 0.81975 1.01884 0.0
H1914 H 0.60212 0.93155 0.97431 0.0
H1915 H 0.63942 0.93684 0.9473 0.0
H1916 H 0.63121 0.94586 0.99948 0.0
H1917 H 0.5968 0.81772 0.94153 0.0
H1918 H 0.62565 0.80208 0.95562 0.0
H1919 H 0.63381 0.82797 0.91405 0.0
C1920 C 0.59425 0.67675 0.93596 0.0
C1921 C 0.56523 0.67214 0.92964 0.0
C1922 C 0.60122 0.68659 0.97303 0.0
C1923 C 0.57887 0.69211 1.00575 0.0
C1924 C 0.54959 0.68769 0.9996 0.0
C1925 C 0.54321 0.67788 0.96225 0.0
C1926 C 0.63282 0.69127 0.97709 0.0
C1927 C 0.52476 0.69341 1.03272 0.0
C1928 C 0.59159 0.69008 0.11465 0.0
C1929 C 0.59879 0.71979 0.12349 0.0
C1930 C 0.58545 0.681 0.07695 0.0
C1931 C 0.58592 0.70187 1.04639 0.0
C1932 C 0.5929 0.73194 0.05524 0.0
C1933 C 0.59951 0.74043 0.09301 0.0
C1934 C 0.57812 0.64877 0.06997 0.0
C1935 C 0.59361 0.75547 1.0247 0.0
H1936 H 0.61188 0.67314 0.91157 0.0
H1937 H 0.5206 0.67429 0.95896 0.0
H1938 H 0.63504 0.67745 1.00227 0.0
H1939 H 0.64782 0.68605 0.94937 0.0
H1940 H 0.63989 0.71435 0.98425 0.0
H1941 H 0.52335 0.67936 0.05945 0.0
H1942 H 0.5291 0.71644 1.04178 0.0
H1943 H 0.50322 0.68924 1.02366 0.0
H1944 H 0.59069 0.67365 0.13745 0.0
H1945 H 0.60467 0.76344 0.09889 0.0
H1946 H 0.59374 0.64283 1.04341 0.0
H1947 H 0.55579 0.64347 0.06351 0.0
H1948 H 0.57893 0.63512 0.09615 0.0
H1949 H 0.61459 0.7577 1.00223 0.0
H1950 H 0.59205 0.77688 1.03875 0.0
H1951 H 0.57541 0.74987 1.00859 0.0
C1952 C 0.58067 0.41894 0.33106 0.0
C1953 C 0.57377 0.39449 0.35713 0.0
C1954 C 0.59872 0.4181 0.29312 0.0
C1955 C 0.60835 0.3917 0.28094 0.0
C1956 C 0.60548 0.36893 0.30961 0.0
C1957 C 0.58834 0.37081 0.34798 0.0
C1958 C 0.60377 0.44377 0.26423 0.0
C1959 C 0.61655 0.34087 0.29804 0.0
C1960 C 0.58931 0.36624 0.18315 0.0
C1961 C 0.61705 0.36691 0.15859 0.0
C1962 C 0.58638 0.37462 0.2229 0.0
C1963 C 0.61199 0.38449 0.23816 0.0
C1964 C 0.64013 0.3862 0.21299 0.0
C1965 C 0.64232 0.37688 0.1735 0.0
C1966 C 0.5557 0.37292 0.24823 0.0
C1967 C 0.66799 0.39737 0.22732 0.0
H1968 H 0.56965 0.43746 0.33869 0.0
H1969 H 0.58301 0.35203 0.36856 0.0
H1970 H 0.62554 0.44573 0.24348 0.0
H1971 H 0.58665 0.44061 0.24604 0.0
H1972 H 0.60246 0.46447 0.28038 0.0
H1973 H 0.61419 0.32611 0.32443 0.0
H1974 H 0.60411 0.32922 0.27677 0.0
H1975 H 0.64001 0.34568 0.28266 0.0
H1976 H 0.56983 0.3584 0.17149 0.0
H1977 H 0.66381 0.37758 0.15419 0.0
H1978 H 0.5503 0.3952 0.25148 0.0
H1979 H 0.55394 0.3638 0.27874 0.0
H1980 H 0.53886 0.35933 0.23446 0.0
H1981 H 0.66439 0.41196 0.25304 0.0
H1982 H 0.68499 0.40943 0.20268 0.0
H1983 H 0.67687 0.37855 0.23664 0.0
C1984 C -0.00958 0.3374 0.3283 0.0
C1985 C 0.97092 0.3427 0.30421 0.0
C1986 C 0.98027 0.32789 0.36915 0.0
C1987 C 0.94974 0.32336 0.38703 0.0
C1988 C 0.93013 0.3295 0.36313 0.0
C1989 C 0.94083 0.33893 0.3225 0.0
C1990 C 0.00229 0.32191 0.3929 0.0
C1991 C 0.89752 0.32537 0.38024 0.0
C1992 C 0.91818 0.27073 0.47937 0.0
C1993 C 0.915 0.28975 0.51167 0.0
C1994 C 0.92949 0.28124 0.43918 0.0
C1995 C 0.93809 0.31173 0.43021 0.0
C1996 C 0.93471 0.33104 0.46261 0.0
C1997 C 0.92337 0.31994 0.50251 0.0
C1998 C 0.93254 0.25954 0.40621 0.0
C1999 C 0.9433 0.36363 0.45516 0.0
H2000 H 0.01363 0.33978 0.31491 0.0
H2001 H 0.92529 0.3427 0.30469 0.0
H2002 H -0.0003 0.33402 0.42115 0.0
H2003 H -0.00177 0.29831 0.40126 0.0
H2004 H 0.02531 0.32816 0.37586 0.0
H2005 H 0.88518 0.33213 0.35858 0.0
H2006 H 0.88894 0.30206 0.38906 0.0
H2007 H 0.89313 0.3382 0.40766 0.0
H2008 H 0.91215 0.24741 0.48548 0.0
H2009 H 0.92139 0.33511 0.52673 0.0
H2010 H 0.95602 0.26128 0.3913 0.0
H2011 H 0.92059 0.26452 0.38309 0.0
H2012 H 0.92396 0.23669 0.41752 0.0
H2013 H 0.96691 0.36925 0.44058 0.0
H2014 H 0.93934 0.37589 0.48322 0.0
H2015 H 0.93067 0.37104 0.43436 0.0
C2016 C 0.88633 0.57848 0.74283 0.0
C2017 C 0.91517 0.58122 0.74836 0.0
C2018 C 0.88079 0.58013 0.7043 0.0
C2019 C 0.90473 0.58487 0.67097 0.0
C2020 C 0.9337 0.58558 0.67625 0.0
C2021 C 0.93854 0.58352 0.71501 0.0
C2022 C 0.84958 0.57898 0.69956 0.0
C2023 C 0.95978 0.59074 0.64138 0.0
C2024 C 0.89167 0.58077 0.56535 0.0
C2025 C 0.89252 0.61031 0.5563 0.0
C2026 C 0.89523 0.57194 0.60291 0.0
C2027 C 0.90001 0.59326 0.63159 0.0
C2028 C 0.90088 0.62308 0.6226 0.0
C2029 C 0.89691 0.63119 0.58514 0.0
C2030 C 0.89404 0.53995 0.61185 0.0
C2031 C 0.90612 0.64649 0.65245 0.0
H2032 H 0.86826 0.57666 0.76866 0.0
H2033 H 0.96078 0.58484 0.71936 0.0
H2034 H 0.8464 0.60121 0.69201 0.0
H2035 H 0.84501 0.56473 0.67466 0.0
H2036 H 0.83334 0.57084 0.72739 0.0
H2037 H 0.98035 0.58731 0.65008 0.0
H2038 H 0.95585 0.57606 0.61665 0.0
H2039 H 0.96303 0.61353 0.62958 0.0
H2040 H 0.88852 0.56461 0.54295 0.0
H2041 H 0.89696 0.65396 0.57857 0.0
H2042 H 0.87698 0.53262 0.63919 0.0
H2043 H 0.91536 0.53647 0.61795 0.0
H2044 H 0.88913 0.52605 0.58672 0.0
H2045 H 0.88874 0.64214 0.68016 0.0
H2046 H 0.90633 0.6687 0.64046 0.0
H2047 H 0.92746 0.6462 0.66097 0.0
C2048 C 0.45066 0.33332 0.13584 0.0
C2049 C 0.43008 0.34228 0.16778 0.0
C2050 C 0.44333 0.32443 0.09876 0.0
C2051 C 0.41474 0.32481 0.09208 0.0
C2052 C 0.39383 0.33373 0.12397 0.0
C2053 C 0.40158 0.34211 0.161 0.0
C2054 C 0.46632 0.31437 0.06658 0.0
C2055 C 0.3629 0.33404 0.11914 0.0
C2056 C 0.4051 0.32925 0.98242 0.0
C2057 C 0.39381 0.3002 0.97458 0.0
C2058 C 0.41154 0.33742 1.02017 0.0
C2059 C 0.40685 0.31623 0.05179 0.0
C2060 C 0.39497 0.28693 1.0443 0.0
C2061 C 0.38878 0.27934 1.00617 0.0
C2062 C 0.42378 0.36893 1.02608 0.0
C2063 C 0.38945 0.26296 0.07592 0.0
H2064 H 0.47289 0.33349 0.13939 0.0
H2065 H 0.38488 0.3481 0.18492 0.0
H2066 H 0.4582 0.29177 0.05842 0.0
H2067 H 0.47048 0.32848 1.03917 0.0
H2068 H 0.48743 0.31478 0.07618 0.0
H2069 H 0.34914 0.34185 0.14617 0.0
H2070 H 0.36329 0.34834 0.09305 0.0
H2071 H 0.35244 0.31169 0.11302 0.0
H2072 H 0.4093 0.34579 0.95872 0.0
H2073 H 0.38041 0.25676 1.00103 0.0
H2074 H 0.44594 0.37062 1.03286 0.0
H2075 H 0.4096 0.3774 0.05209 0.0
H2076 H 0.42547 0.38305 0.99927 0.0
H2077 H 0.409 0.25215 0.07179 0.0
H2078 H 0.3703 0.24621 0.07287 0.0
H2079 H 0.38534 0.2712 0.10677 0.0
C2080 C 0.41473 0.63966 0.89168 0.0
C2081 C 0.38904 0.63571 0.92152 0.0
C2082 C 0.41612 0.62459 0.85589 0.0
C2083 C 0.391 0.60499 0.84943 0.0
C2084 C 0.36494 0.60079 0.87958 0.0
C2085 C 0.36423 0.61632 0.91518 0.0
C2086 C 0.44526 0.62896 0.82628 0.0
C2087 C 0.33775 0.57997 0.87473 0.0
C2088 C 0.40228 0.5967 0.73868 0.0
C2089 C 0.42314 0.57823 0.73431 0.0
C2090 C 0.38719 0.60266 0.77712 0.0
C2091 C 0.39291 0.58919 0.81107 0.0
C2092 C 0.40834 0.56549 0.8056 0.0
C2093 C 0.42335 0.56019 0.76697 0.0
C2094 C 0.3681 0.62582 0.7816 0.0
C2095 C 0.4128 0.5488 0.84086 0.0
H2096 H 0.43421 0.65398 0.8968 0.0
H2097 H 0.34421 0.61324 0.93815 0.0
H2098 H 0.45877 0.61355 0.83435 0.0
H2099 H 0.44293 0.62496 0.79507 0.0
H2100 H 0.45758 0.65143 0.82748 0.0
H2101 H 0.32418 0.57136 0.90427 0.0
H2102 H 0.32419 0.59182 0.85997 0.0
H2103 H 0.34319 0.56126 0.85605 0.0
H2104 H 0.4014 0.61008 0.71321 0.0
H2105 H 0.43895 0.54529 0.76348 0.0
H2106 H 0.37537 0.64295 0.80181 0.0
H2107 H 0.34517 0.61576 0.79537 0.0
H2108 H 0.36826 0.63631 0.75239 0.0
H2109 H 0.43146 0.56112 0.85241 0.0
H2110 H 0.418 0.52695 0.83214 0.0
H2111 H 0.39294 0.54607 0.86546 0.0
C2112 C 0.11567 0.6484 0.59922 0.0
C2113 C 0.11609 0.67776 0.58861 0.0
C2114 C 0.10464 0.63709 0.63936 0.0
C2115 C 0.09368 0.65532 0.6706 0.0
C2116 C 0.09438 0.68501 0.66008 0.0
C2117 C 0.10519 0.69559 0.61981 0.0
C2118 C 0.10441 0.60535 0.64829 0.0
C2119 C 0.08353 0.70584 0.69149 0.0
C2120 C 0.0405 0.62357 0.76996 0.0
C2121 C 0.05907 0.62516 0.7976 0.0
C2122 C 0.05138 0.63255 0.72889 0.0
C2123 C 0.0818 0.64372 0.71412 0.0
C2124 C 0.10065 0.64491 0.74175 0.0
C2125 C 0.08924 0.63569 0.78252 0.0
C2126 C 0.03008 0.63057 0.70132 0.0
C2127 C 0.13304 0.65677 0.72849 0.0
H2128 H 0.12348 0.63399 0.57595 0.0
H2129 H 0.10462 0.71807 0.61272 0.0
H2130 H 0.11725 0.60336 0.67155 0.0
H2131 H 0.08156 0.59417 0.66048 0.0
H2132 H 0.1137 0.59388 0.62127 0.0
H2133 H 0.08425 0.72789 0.6786 0.0
H2134 H 0.06062 0.69712 0.70707 0.0
H2135 H 0.09721 0.70805 0.71443 0.0
H2136 H 0.01719 0.61577 0.78057 0.0
H2137 H 0.10412 0.63745 0.80295 0.0
H2138 H 0.03676 0.6165 0.6759 0.0
H2139 H 0.03047 0.65254 0.68851 0.0
H2140 H 0.00722 0.62154 0.71691 0.0
H2141 H 0.14277 0.64479 0.70232 0.0
H2142 H 0.1452 0.6551 0.75268 0.0
H2143 H 0.13627 0.68006 0.71883 0.0
C2144 C 0.11927 0.40117 0.36109 0.0
C2145 C 0.12257 0.37781 0.33545 0.0
C2146 C 0.11979 0.39815 0.40164 0.0
C2147 C 0.12372 0.37115 0.41651 0.0
C2148 C 0.12987 0.34847 0.38993 0.0
C2149 C 0.12921 0.3521 0.3495 0.0
C2150 C 0.11339 0.42287 0.42907 0.0
C2151 C 0.1344 0.31944 0.4048 0.0
C2152 C 0.13258 0.36245 0.52313 0.0
C2153 C 0.10397 0.34956 0.54212 0.0
C2154 C 0.13937 0.37023 0.48224 0.0
C2155 C 0.11694 0.36501 0.46017 0.0
C2156 C 0.08781 0.35288 0.47948 0.0
C2157 C 0.0817 0.34522 0.52028 0.0
C2158 C 0.17061 0.38315 0.46246 0.0
C2159 C 0.06327 0.34708 0.45679 0.0
H2160 H 0.1145 0.42119 0.34992 0.0
H2161 H 0.13161 0.33399 0.32964 0.0
H2162 H 0.09056 0.41743 0.44688 0.0
H2163 H 0.12828 0.42605 0.45047 0.0
H2164 H 0.11567 0.44375 0.4121 0.0
H2165 H 0.1432 0.30589 0.3798 0.0
H2166 H 0.1497 0.32264 0.42565 0.0
H2167 H 0.1131 0.30718 0.42159 0.0
H2168 H 0.14976 0.36602 0.54015 0.0
H2169 H 0.05969 0.3348 0.53475 0.0
H2170 H 0.17124 0.40377 0.44587 0.0
H2171 H 0.17975 0.36782 0.4403 0.0
H2172 H 0.185 0.38767 0.48445 0.0
H2173 H 0.06162 0.36739 0.4412 0.0
H2174 H 0.04164 0.33867 0.47669 0.0
H2175 H 0.06804 0.33081 0.43353 0.0
loop_
_geom_bond_atom_site_label_1
_geom_bond_atom_site_label_2
_geom_bond_distance
_geom_bond_site_symmetry_2
_ccdc_geom_bond_type
Gd0 C3 2.818 . S
Gd0 O20 2.377 . S
Gd0 O22 2.448 . S
Gd0 O23 2.506 . S
Gd0 O24 2.435 . S
Gd0 O25 2.717 . S
Gd0 O27 2.395 . S
Gd0 O31 2.327 . S
Gd1 C12 2.818 . S
Gd1 O21 2.395 . S
Gd1 O25 2.327 1_655 S
Gd1 O26 2.377 1_655 S
Gd1 O28 2.448 . S
Gd1 O29 2.506 . S
Gd1 O30 2.435 1_655 S
Gd1 O31 2.717 1_655 S
C2 O20 1.240 1_655 S
C2 O21 1.240 . S
C3 Gd0 2.818 . S
C3 C4 1.510 . S
C3 O22 1.249 . S
C3 O23 1.252 . S
C4 C3 1.510 . S
C4 C5 1.404 . S
C4 C6 1.352 . S
C5 C4 1.404 . S
C5 C9 1.389 . S
C5 H32 0.930 . S
C6 C4 1.352 . S
C6 C8 1.374 . S
C6 H33 0.931 . S
C7 C8 1.359 . S
C7 C9 1.364 . S
C8 C6 1.374 . S
C8 C7 1.359 . S
C8 H34 0.931 . S
C9 C5 1.389 . S
C9 C7 1.364 . S
C9 H35 0.931 . S
C10 O24 1.256 . S
C10 O25 1.257 . S
C11 O26 1.240 . S
C11 O27 1.240 . S
C12 Gd1 2.818 . S
C12 C13 1.510 1_554 S
C12 O28 1.249 . S
C12 O29 1.252 . S
C13 C12 1.510 1_556 S
C13 C14 1.404 . S
C13 C15 1.352 . S
C14 C13 1.404 . S
C14 C18 1.389 . S
C14 H36 0.930 . S
C15 C13 1.352 . S
C15 C17 1.374 . S
C15 H37 0.931 . S
C16 C17 1.359 . S
C16 C18 1.364 . S
C17 C15 1.374 . S
C17 C16 1.359 . S
C17 H38 0.931 . S
C18 C14 1.389 . S
C18 C16 1.364 . S
C18 H39 0.931 . S
C19 O30 1.256 . S
C19 O31 1.257 . S
O20 Gd0 2.377 . S
O20 C2 1.240 1_455 S
O21 Gd1 2.395 . S
O21 C2 1.240 . S
O22 Gd0 2.448 . S
O22 C3 1.249 . S
O23 Gd0 2.506 . S
O23 C3 1.252 . S
O24 Gd0 2.435 . S
O24 C10 1.256 . S
O25 Gd0 2.717 . S
O25 Gd1 2.327 1_455 S
O25 C10 1.257 . S
O26 Gd1 2.377 1_455 S
O26 C11 1.240 . S
O27 Gd0 2.395 . S
O27 C11 1.240 . S
O28 Gd1 2.448 . S
O28 C12 1.249 . S
O29 Gd1 2.506 . S
O29 C12 1.252 . S
O30 Gd1 2.435 1_455 S
O30 C19 1.256 . S
O31 Gd0 2.327 . S
O31 Gd1 2.717 1_455 S
O31 C19 1.257 . S
H32 C5 0.930 . S
H33 C6 0.931 . S
H34 C8 0.931 . S
H35 C9 0.931 . S
H36 C14 0.930 . S
H37 C15 0.931 . S
H38 C17 0.931 . S
H39 C18 0.931 . S
Gd40 C43 2.818 . S
Gd40 O60 2.377 . S
Gd40 O62 2.448 . S
Gd40 O63 2.506 . S
Gd40 O64 2.435 . S
Gd40 O65 2.717 . S
Gd40 O67 2.395 . S
Gd40 O71 2.327 . S
Gd41 C52 2.818 . S
Gd41 O61 2.395 . S
Gd41 O65 2.327 . S
Gd41 O66 2.377 . S
Gd41 O68 2.448 . S
Gd41 O69 2.506 . S
Gd41 O70 2.435 . S
Gd41 O71 2.717 . S
C42 O60 1.240 . S
C42 O61 1.240 . S
C43 Gd40 2.818 . S
C43 C44 1.510 . S
C43 O62 1.249 . S
C43 O63 1.252 . S
C44 C43 1.510 . S
C44 C45 1.404 . S
C44 C46 1.352 . S
C45 C44 1.404 . S
C45 C49 1.389 . S
C45 H72 0.930 . S
C46 C44 1.352 . S
C46 C48 1.374 . S
C46 H73 0.931 . S
C47 C48 1.359 . S
C47 C49 1.364 . S
C48 C46 1.374 . S
C48 C47 1.359 . S
C48 H74 0.931 . S
C49 C45 1.389 . S
C49 C47 1.364 . S
C49 H75 0.931 . S
C50 O64 1.256 . S
C50 O65 1.257 . S
C51 O66 1.240 . S
C51 O67 1.240 . S
C52 Gd41 2.818 . S
C52 C53 1.510 . S
C52 O68 1.249 . S
C52 O69 1.252 . S
C53 C52 1.510 . S
C53 C54 1.404 . S
C53 C55 1.352 . S
C54 C53 1.404 . S
C54 C58 1.389 . S
C54 H76 0.930 . S
C55 C53 1.352 . S
C55 C57 1.374 . S
C55 H77 0.931 . S
C56 C57 1.359 . S
C56 C58 1.364 . S
C57 C55 1.374 . S
C57 C56 1.359 . S
C57 H78 0.931 . S
C58 C54 1.389 . S
C58 C56 1.364 . S
C58 H79 0.931 . S
C59 O70 1.256 . S
C59 O71 1.257 . S
O60 Gd40 2.377 . S
O60 C42 1.240 . S
O61 Gd41 2.395 . S
O61 C42 1.240 . S
O62 Gd40 2.448 . S
O62 C43 1.249 . S
O63 Gd40 2.506 . S
O63 C43 1.252 . S
O64 Gd40 2.435 . S
O64 C50 1.256 . S
O65 Gd40 2.717 . S
O65 Gd41 2.327 . S
O65 C50 1.257 . S
O66 Gd41 2.377 . S
O66 C51 1.240 . S
O67 Gd40 2.395 . S
O67 C51 1.240 . S
O68 Gd41 2.448 . S
O68 C52 1.249 . S
O69 Gd41 2.506 . S
O69 C52 1.252 . S
O70 Gd41 2.435 . S
O70 C59 1.256 . S
O71 Gd40 2.327 . S
O71 Gd41 2.717 . S
O71 C59 1.257 . S
H72 C45 0.930 . S
H73 C46 0.931 . S
H74 C48 0.931 . S
H75 C49 0.931 . S
H76 C54 0.930 . S
H77 C55 0.931 . S
H78 C57 0.931 . S
H79 C58 0.931 . S
Gd80 C83 2.818 . S
Gd80 O100 2.377 . S
Gd80 O102 2.448 . S
Gd80 O103 2.506 . S
Gd80 O104 2.435 . S
Gd80 O105 2.717 . S
Gd80 O107 2.395 . S
Gd80 O111 2.327 . S
Gd81 C92 2.818 . S
Gd81 O101 2.395 . S
Gd81 O105 2.327 . S
Gd81 O106 2.377 . S
Gd81 O108 2.448 . S
Gd81 O109 2.506 . S
Gd81 O110 2.435 . S
Gd81 O111 2.717 . S
C82 O100 1.240 . S
C82 O101 1.240 . S
C83 Gd80 2.818 . S
C83 C84 1.510 . S
C83 O102 1.249 . S
C83 O103 1.252 . S
C84 C83 1.510 . S
C84 C85 1.404 . S
C84 C86 1.352 . S
C85 C84 1.404 . S
C85 C89 1.389 . S
C85 H112 0.930 . S
C86 C84 1.352 . S
C86 C88 1.374 . S
C86 H113 0.931 . S
C87 C88 1.359 . S
C87 C89 1.364 . S
C88 C86 1.374 . S
C88 C87 1.359 . S
C88 H114 0.931 . S
C89 C85 1.389 . S
C89 C87 1.364 . S
C89 H115 0.931 . S
C90 O104 1.256 . S
C90 O105 1.257 . S
C91 O106 1.240 . S
C91 O107 1.240 . S
C92 Gd81 2.818 . S
C92 C93 1.510 . S
C92 O108 1.249 . S
C92 O109 1.252 . S
C93 C92 1.510 . S
C93 C94 1.404 . S
C93 C95 1.352 . S
C94 C93 1.404 . S
C94 C98 1.389 . S
C94 H116 0.930 . S
C95 C93 1.352 . S
C95 C97 1.374 . S
C95 H117 0.931 . S
C96 C97 1.359 . S
C96 C98 1.364 . S
C97 C95 1.374 . S
C97 C96 1.359 . S
C97 H118 0.931 . S
C98 C94 1.389 . S
C98 C96 1.364 . S
C98 H119 0.931 . S
C99 O110 1.256 . S
C99 O111 1.257 . S
O100 Gd80 2.377 . S
O100 C82 1.240 . S
O101 Gd81 2.395 . S
O101 C82 1.240 . S
O102 Gd80 2.448 . S
O102 C83 1.249 . S
O103 Gd80 2.506 . S
O103 C83 1.252 . S
O104 Gd80 2.435 . S
O104 C90 1.256 . S
O105 Gd80 2.717 . S
O105 Gd81 2.327 . S
O105 C90 1.257 . S
O106 Gd81 2.377 . S
O106 C91 1.240 . S
O107 Gd80 2.395 . S
O107 C91 1.240 . S
O108 Gd81 2.448 . S
O108 C92 1.249 . S
O109 Gd81 2.506 . S
O109 C92 1.252 . S
O110 Gd81 2.435 . S
O110 C99 1.256 . S
O111 Gd80 2.327 . S
O111 Gd81 2.717 . S
O111 C99 1.257 . S
H112 C85 0.930 . S
H113 C86 0.931 . S
H114 C88 0.931 . S
H115 C89 0.931 . S
H116 C94 0.930 . S
H117 C95 0.931 . S
H118 C97 0.931 . S
H119 C98 0.931 . S
Gd120 C123 2.818 . S
Gd120 O140 2.377 . S
Gd120 O142 2.448 . S
Gd120 O143 2.506 . S
Gd120 O144 2.435 . S
Gd120 O145 2.717 . S
Gd120 O147 2.395 . S
Gd120 O151 2.327 . S
Gd121 C132 2.818 . S
Gd121 O141 2.395 . S
Gd121 O145 2.327 . S
Gd121 O146 2.377 . S
Gd121 O148 2.448 . S
Gd121 O149 2.506 . S
Gd121 O150 2.435 . S
Gd121 O151 2.717 . S
C122 O140 1.240 . S
C122 O141 1.240 . S
C123 Gd120 2.818 . S
C123 C124 1.510 . S
C123 O142 1.249 . S
C123 O143 1.252 . S
C124 C123 1.510 . S
C124 C125 1.404 . S
C124 C126 1.352 . S
C125 C124 1.404 . S
C125 C129 1.389 1_556 S
C125 H152 0.930 . S
C126 C124 1.352 . S
C126 C128 1.374 1_556 S
C126 H153 0.931 . S
C127 C128 1.359 . S
C127 C129 1.364 . S
C128 C126 1.374 1_554 S
C128 C127 1.359 . S
C128 H154 0.931 . S
C129 C125 1.389 1_554 S
C129 C127 1.364 . S
C129 H155 0.931 . S
C130 O144 1.256 . S
C130 O145 1.257 . S
C131 O146 1.240 . S
C131 O147 1.240 . S
C132 Gd121 2.818 . S
C132 C133 1.510 . S
C132 O148 1.249 . S
C132 O149 1.252 . S
C133 C132 1.510 . S
C133 C134 1.404 . S
C133 C135 1.352 . S
C134 C133 1.404 . S
C134 C138 1.389 . S
C134 H156 0.930 . S
C135 C133 1.352 . S
C135 C137 1.374 . S
C135 H157 0.931 . S
C136 C137 1.359 . S
C136 C138 1.364 . S
C137 C135 1.374 . S
C137 C136 1.359 . S
C137 H158 0.931 . S
C138 C134 1.389 . S
C138 C136 1.364 . S
C138 H159 0.931 . S
C139 O150 1.256 . S
C139 O151 1.257 . S
O140 Gd120 2.377 . S
O140 C122 1.240 . S
O141 Gd121 2.395 . S
O141 C122 1.240 . S
O142 Gd120 2.448 . S
O142 C123 1.249 . S
O143 Gd120 2.506 . S
O143 C123 1.252 . S
O144 Gd120 2.435 . S
O144 C130 1.256 . S
O145 Gd120 2.717 . S
O145 Gd121 2.327 . S
O145 C130 1.257 . S
O146 Gd121 2.377 . S
O146 C131 1.240 . S
O147 Gd120 2.395 . S
O147 C131 1.240 . S
O148 Gd121 2.448 . S
O148 C132 1.249 . S
O149 Gd121 2.506 . S
O149 C132 1.252 . S
O150 Gd121 2.435 . S
O150 C139 1.256 . S
O151 Gd120 2.327 . S
O151 Gd121 2.717 . S
O151 C139 1.257 . S
H152 C125 0.930 . S
H153 C126 0.931 . S
H154 C128 0.931 . S
H155 C129 0.931 . S
H156 C134 0.930 . S
H157 C135 0.931 . S
H158 C137 0.931 . S
H159 C138 0.931 . S
Gd160 C163 2.818 . S
Gd160 O180 2.377 . S
Gd160 O182 2.448 . S
Gd160 O183 2.506 . S
Gd160 O184 2.435 . S
Gd160 O185 2.717 . S
Gd160 O187 2.395 . S
Gd160 O191 2.327 . S
Gd161 C172 2.818 . S
Gd161 O181 2.395 . S
Gd161 O185 2.327 1_655 S
Gd161 O186 2.377 1_655 S
Gd161 O188 2.448 . S
Gd161 O189 2.506 . S
Gd161 O190 2.435 . S
Gd161 O191 2.717 1_655 S
C162 O180 1.240 1_655 S
C162 O181 1.240 . S
C163 Gd160 2.818 . S
C163 C164 1.510 1_556 S
C163 O182 1.249 . S
C163 O183 1.252 . S
C164 C163 1.510 1_554 S
C164 C165 1.404 . S
C164 C166 1.352 . S
C165 C164 1.404 . S
C165 C169 1.389 . S
C165 H192 0.930 . S
C166 C164 1.352 . S
C166 C168 1.374 . S
C166 H193 0.931 . S
C167 C168 1.359 . S
C167 C169 1.364 . S
C168 C166 1.374 . S
C168 C167 1.359 . S
C168 H194 0.931 . S
C169 C165 1.389 . S
C169 C167 1.364 . S
C169 H195 0.931 . S
C170 O184 1.256 . S
C170 O185 1.257 . S
C171 O186 1.240 . S
C171 O187 1.240 . S
C172 Gd161 2.818 . S
C172 C173 1.510 . S
C172 O188 1.249 . S
C172 O189 1.252 . S
C173 C172 1.510 . S
C173 C174 1.404 . S
C173 C175 1.352 . S
C174 C173 1.404 . S
C174 C178 1.389 . S
C174 H196 0.930 . S
C175 C173 1.352 . S
C175 C177 1.374 . S
C175 H197 0.931 . S
C176 C177 1.359 . S
C176 C178 1.364 . S
C177 C175 1.374 . S
C177 C176 1.359 . S
C177 H198 0.931 . S
C178 C174 1.389 . S
C178 C176 1.364 . S
C178 H199 0.931 . S
C179 O190 1.256 1_455 S
C179 O191 1.257 . S
O180 Gd160 2.377 . S
O180 C162 1.240 1_455 S
O181 Gd161 2.395 . S
O181 C162 1.240 . S
O182 Gd160 2.448 . S
O182 C163 1.249 . S
O183 Gd160 2.506 . S
O183 C163 1.252 . S
O184 Gd160 2.435 . S
O184 C170 1.256 . S
O185 Gd160 2.717 . S
O185 Gd161 2.327 1_455 S
O185 C170 1.257 . S
O186 Gd161 2.377 1_455 S
O186 C171 1.240 . S
O187 Gd160 2.395 . S
O187 C171 1.240 . S
O188 Gd161 2.448 . S
O188 C172 1.249 . S
O189 Gd161 2.506 . S
O189 C172 1.252 . S
O190 Gd161 2.435 . S
O190 C179 1.256 1_655 S
O191 Gd160 2.327 . S
O191 Gd161 2.717 1_455 S
O191 C179 1.257 . S
H192 C165 0.930 . S
H193 C166 0.931 . S
H194 C168 0.931 . S
H195 C169 0.931 . S
H196 C174 0.930 . S
H197 C175 0.931 . S
H198 C177 0.931 . S
H199 C178 0.931 . S
Gd200 C203 2.818 . S
Gd200 O220 2.377 . S
Gd200 O222 2.448 . S
Gd200 O223 2.506 . S
Gd200 O224 2.435 . S
Gd200 O225 2.717 . S
Gd200 O227 2.395 . S
Gd200 O231 2.327 . S
Gd201 C212 2.818 . S
Gd201 O221 2.395 . S
Gd201 O225 2.327 . S
Gd201 O226 2.377 . S
Gd201 O228 2.448 . S
Gd201 O229 2.506 . S
Gd201 O230 2.435 . S
Gd201 O231 2.717 . S
C202 O220 1.240 . S
C202 O221 1.240 . S
C203 Gd200 2.818 . S
C203 C204 1.510 . S
C203 O222 1.249 . S
C203 O223 1.252 . S
C204 C203 1.510 . S
C204 C205 1.404 . S
C204 C206 1.352 . S
C205 C204 1.404 . S
C205 C209 1.389 . S
C205 H232 0.930 . S
C206 C204 1.352 . S
C206 C208 1.374 . S
C206 H233 0.931 . S
C207 C208 1.359 . S
C207 C209 1.364 . S
C208 C206 1.374 . S
C208 C207 1.359 . S
C208 H234 0.931 . S
C209 C205 1.389 . S
C209 C207 1.364 . S
C209 H235 0.931 . S
C210 O224 1.256 . S
C210 O225 1.257 . S
C211 O226 1.240 . S
C211 O227 1.240 . S
C212 Gd201 2.818 . S
C212 C213 1.510 1_554 S
C212 O228 1.249 . S
C212 O229 1.252 . S
C213 C212 1.510 1_556 S
C213 C214 1.404 . S
C213 C215 1.352 . S
C214 C213 1.404 . S
C214 C218 1.389 . S
C214 H236 0.930 . S
C215 C213 1.352 . S
C215 C217 1.374 . S
C215 H237 0.931 . S
C216 C217 1.359 . S
C216 C218 1.364 . S
C217 C215 1.374 . S
C217 C216 1.359 . S
C217 H238 0.931 . S
C218 C214 1.389 . S
C218 C216 1.364 . S
C218 H239 0.931 . S
C219 O230 1.256 . S
C219 O231 1.257 . S
O220 Gd200 2.377 . S
O220 C202 1.240 . S
O221 Gd201 2.395 . S
O221 C202 1.240 . S
O222 Gd200 2.448 . S
O222 C203 1.249 . S
O223 Gd200 2.506 . S
O223 C203 1.252 . S
O224 Gd200 2.435 . S
O224 C210 1.256 . S
O225 Gd200 2.717 . S
O225 Gd201 2.327 . S
O225 C210 1.257 . S
O226 Gd201 2.377 . S
O226 C211 1.240 . S
O227 Gd200 2.395 . S
O227 C211 1.240 . S
O228 Gd201 2.448 . S
O228 C212 1.249 . S
O229 Gd201 2.506 . S
O229 C212 1.252 . S
O230 Gd201 2.435 . S
O230 C219 1.256 . S
O231 Gd200 2.327 . S
O231 Gd201 2.717 . S
O231 C219 1.257 . S
H232 C205 0.930 . S
H233 C206 0.931 . S
H234 C208 0.931 . S
H235 C209 0.931 . S
H236 C214 0.930 . S
H237 C215 0.931 . S
H238 C217 0.931 . S
H239 C218 0.931 . S
Gd240 C243 2.818 . S
Gd240 O260 2.377 . S
Gd240 O262 2.448 . S
Gd240 O263 2.506 . S
Gd240 O264 2.435 . S
Gd240 O265 2.717 . S
Gd240 O267 2.395 . S
Gd240 O271 2.327 . S
Gd241 C252 2.818 . S
Gd241 O261 2.395 . S
Gd241 O265 2.327 . S
Gd241 O266 2.377 . S
Gd241 O268 2.448 . S
Gd241 O269 2.506 . S
Gd241 O270 2.435 . S
Gd241 O271 2.717 . S
C242 O260 1.240 . S
C242 O261 1.240 . S
C243 Gd240 2.818 . S
C243 C244 1.510 . S
C243 O262 1.249 . S
C243 O263 1.252 . S
C244 C243 1.510 . S
C244 C245 1.404 . S
C244 C246 1.352 . S
C245 C244 1.404 . S
C245 C249 1.389 . S
C245 H272 0.930 . S
C246 C244 1.352 . S
C246 C248 1.374 . S
C246 H273 0.931 . S
C247 C248 1.359 . S
C247 C249 1.364 . S
C248 C246 1.374 . S
C248 C247 1.359 . S
C248 H274 0.931 . S
C249 C245 1.389 . S
C249 C247 1.364 . S
C249 H275 0.931 . S
C250 O264 1.256 . S
C250 O265 1.257 . S
C251 O266 1.240 . S
C251 O267 1.240 . S
C252 Gd241 2.818 . S
C252 C253 1.510 . S
C252 O268 1.249 . S
C252 O269 1.252 . S
C253 C252 1.510 . S
C253 C254 1.404 . S
C253 C255 1.352 . S
C254 C253 1.404 . S
C254 C258 1.389 . S
C254 H276 0.930 . S
C255 C253 1.352 . S
C255 C257 1.374 . S
C255 H277 0.931 . S
C256 C257 1.359 . S
C256 C258 1.364 . S
C257 C255 1.374 . S
C257 C256 1.359 . S
C257 H278 0.931 . S
C258 C254 1.389 . S
C258 C256 1.364 . S
C258 H279 0.931 . S
C259 O270 1.256 . S
C259 O271 1.257 . S
O260 Gd240 2.377 . S
O260 C242 1.240 . S
O261 Gd241 2.395 . S
O261 C242 1.240 . S
O262 Gd240 2.448 . S
O262 C243 1.249 . S
O263 Gd240 2.506 . S
O263 C243 1.252 . S
O264 Gd240 2.435 . S
O264 C250 1.256 . S
O265 Gd240 2.717 . S
O265 Gd241 2.327 . S
O265 C250 1.257 . S
O266 Gd241 2.377 . S
O266 C251 1.240 . S
O267 Gd240 2.395 . S
O267 C251 1.240 . S
O268 Gd241 2.448 . S
O268 C252 1.249 . S
O269 Gd241 2.506 . S
O269 C252 1.252 . S
O270 Gd241 2.435 . S
O270 C259 1.256 . S
O271 Gd240 2.327 . S
O271 Gd241 2.717 . S
O271 C259 1.257 . S
H272 C245 0.930 . S
H273 C246 0.931 . S
H274 C248 0.931 . S
H275 C249 0.931 . S
H276 C254 0.930 . S
H277 C255 0.931 . S
H278 C257 0.931 . S
H279 C258 0.931 . S
Gd280 C283 2.818 . S
Gd280 O300 2.377 . S
Gd280 O302 2.448 . S
Gd280 O303 2.506 . S
Gd280 O304 2.435 . S
Gd280 O305 2.717 . S
Gd280 O307 2.395 . S
Gd280 O311 2.327 . S
Gd281 C292 2.818 . S
Gd281 O301 2.395 . S
Gd281 O305 2.327 . S
Gd281 O306 2.377 . S
Gd281 O308 2.448 . S
Gd281 O309 2.506 . S
Gd281 O310 2.435 . S
Gd281 O311 2.717 . S
C282 O300 1.240 . S
C282 O301 1.240 . S
C283 Gd280 2.818 . S
C283 C284 1.510 . S
C283 O302 1.249 . S
C283 O303 1.252 . S
C284 C283 1.510 . S
C284 C285 1.404 . S
C284 C286 1.352 . S
C285 C284 1.404 . S
C285 C289 1.389 . S
C285 H312 0.930 . S
C286 C284 1.352 . S
C286 C288 1.374 . S
C286 H313 0.931 . S
C287 C288 1.359 . S
C287 C289 1.364 . S
C288 C286 1.374 . S
C288 C287 1.359 . S
C288 H314 0.931 . S
C289 C285 1.389 . S
C289 C287 1.364 . S
C289 H315 0.931 . S
C290 O304 1.256 . S
C290 O305 1.257 . S
C291 O306 1.240 . S
C291 O307 1.240 . S
C292 Gd281 2.818 . S
C292 C293 1.510 . S
C292 O308 1.249 . S
C292 O309 1.252 . S
C293 C292 1.510 . S
C293 C294 1.404 . S
C293 C295 1.352 . S
C294 C293 1.404 . S
C294 C298 1.389 . S
C294 H316 0.930 . S
C295 C293 1.352 . S
C295 C297 1.374 . S
C295 H317 0.931 . S
C296 C297 1.359 . S
C296 C298 1.364 . S
C297 C295 1.374 . S
C297 C296 1.359 . S
C297 H318 0.931 . S
C298 C294 1.389 . S
C298 C296 1.364 . S
C298 H319 0.931 . S
C299 O310 1.256 . S
C299 O311 1.257 . S
O300 Gd280 2.377 . S
O300 C282 1.240 . S
O301 Gd281 2.395 . S
O301 C282 1.240 . S
O302 Gd280 2.448 . S
O302 C283 1.249 . S
O303 Gd280 2.506 . S
O303 C283 1.252 . S
O304 Gd280 2.435 . S
O304 C290 1.256 . S
O305 Gd280 2.717 . S
O305 Gd281 2.327 . S
O305 C290 1.257 . S
O306 Gd281 2.377 . S
O306 C291 1.240 . S
O307 Gd280 2.395 . S
O307 C291 1.240 . S
O308 Gd281 2.448 . S
O308 C292 1.249 . S
O309 Gd281 2.506 . S
O309 C292 1.252 . S
O310 Gd281 2.435 . S
O310 C299 1.256 . S
O311 Gd280 2.327 . S
O311 Gd281 2.717 . S
O311 C299 1.257 . S
H312 C285 0.930 . S
H313 C286 0.931 . S
H314 C288 0.931 . S
H315 C289 0.931 . S
H316 C294 0.930 . S
H317 C295 0.931 . S
H318 C297 0.931 . S
H319 C298 0.931 . S
Gd320 C323 2.818 . S
Gd320 O340 2.377 . S
Gd320 O342 2.448 . S
Gd320 O343 2.506 . S
Gd320 O344 2.435 . S
Gd320 O345 2.717 . S
Gd320 O347 2.395 . S
Gd320 O351 2.327 . S
Gd321 C332 2.818 . S
Gd321 O341 2.395 . S
Gd321 O345 2.327 . S
Gd321 O346 2.377 . S
Gd321 O348 2.448 . S
Gd321 O349 2.506 . S
Gd321 O350 2.435 . S
Gd321 O351 2.717 . S
C322 O340 1.240 . S
C322 O341 1.240 . S
C323 Gd320 2.818 . S
C323 C324 1.510 . S
C323 O342 1.249 . S
C323 O343 1.252 . S
C324 C323 1.510 . S
C324 C325 1.404 . S
C324 C326 1.352 . S
C325 C324 1.404 . S
C325 C329 1.389 . S
C325 H352 0.930 . S
C326 C324 1.352 . S
C326 C328 1.374 . S
C326 H353 0.931 . S
C327 C328 1.359 . S
C327 C329 1.364 . S
C328 C326 1.374 . S
C328 C327 1.359 . S
C328 H354 0.931 . S
C329 C325 1.389 . S
C329 C327 1.364 . S
C329 H355 0.931 . S
C330 O344 1.256 . S
C330 O345 1.257 . S
C331 O346 1.240 . S
C331 O347 1.240 . S
C332 Gd321 2.818 . S
C332 C333 1.510 . S
C332 O348 1.249 . S
C332 O349 1.252 . S
C333 C332 1.510 . S
C333 C334 1.404 . S
C333 C335 1.352 . S
C334 C333 1.404 . S
C334 C338 1.389 . S
C334 H356 0.930 . S
C335 C333 1.352 . S
C335 C337 1.374 . S
C335 H357 0.931 . S
C336 C337 1.359 . S
C336 C338 1.364 . S
C337 C335 1.374 . S
C337 C336 1.359 . S
C337 H358 0.931 . S
C338 C334 1.389 . S
C338 C336 1.364 . S
C338 H359 0.931 . S
C339 O350 1.256 . S
C339 O351 1.257 . S
O340 Gd320 2.377 . S
O340 C322 1.240 . S
O341 Gd321 2.395 . S
O341 C322 1.240 . S
O342 Gd320 2.448 . S
O342 C323 1.249 . S
O343 Gd320 2.506 . S
O343 C323 1.252 . S
O344 Gd320 2.435 . S
O344 C330 1.256 . S
O345 Gd320 2.717 . S
O345 Gd321 2.327 . S
O345 C330 1.257 . S
O346 Gd321 2.377 . S
O346 C331 1.240 . S
O347 Gd320 2.395 . S
O347 C331 1.240 . S
O348 Gd321 2.448 . S
O348 C332 1.249 . S
O349 Gd321 2.506 . S
O349 C332 1.252 . S
O350 Gd321 2.435 . S
O350 C339 1.256 . S
O351 Gd320 2.327 . S
O351 Gd321 2.717 . S
O351 C339 1.257 . S
H352 C325 0.930 . S
H353 C326 0.931 . S
H354 C328 0.931 . S
H355 C329 0.931 . S
H356 C334 0.930 . S
H357 C335 0.931 . S
H358 C337 0.931 . S
H359 C338 0.931 . S
Gd360 C363 2.818 . S
Gd360 O380 2.377 . S
Gd360 O382 2.448 . S
Gd360 O383 2.506 . S
Gd360 O384 2.435 . S
Gd360 O385 2.717 . S
Gd360 O387 2.395 . S
Gd360 O391 2.327 . S
Gd361 C372 2.818 . S
Gd361 O381 2.395 . S
Gd361 O385 2.327 . S
Gd361 O386 2.377 . S
Gd361 O388 2.448 . S
Gd361 O389 2.506 . S
Gd361 O390 2.435 . S
Gd361 O391 2.717 . S
C362 O380 1.240 . S
C362 O381 1.240 . S
C363 Gd360 2.818 . S
C363 C364 1.510 . S
C363 O382 1.249 . S
C363 O383 1.252 . S
C364 C363 1.510 . S
C364 C365 1.404 . S
C364 C366 1.352 . S
C365 C364 1.404 . S
C365 C369 1.389 . S
C365 H392 0.930 . S
C366 C364 1.352 . S
C366 C368 1.374 . S
C366 H393 0.931 . S
C367 C368 1.359 . S
C367 C369 1.364 . S
C368 C366 1.374 . S
C368 C367 1.359 . S
C368 H394 0.931 . S
C369 C365 1.389 . S
C369 C367 1.364 . S
C369 H395 0.931 . S
C370 O384 1.256 . S
C370 O385 1.257 . S
C371 O386 1.240 . S
C371 O387 1.240 . S
C372 Gd361 2.818 . S
C372 C373 1.510 . S
C372 O388 1.249 . S
C372 O389 1.252 . S
C373 C372 1.510 . S
C373 C374 1.404 . S
C373 C375 1.352 . S
C374 C373 1.404 . S
C374 C378 1.389 1_554 S
C374 H396 0.930 . S
C375 C373 1.352 . S
C375 C377 1.374 1_554 S
C375 H397 0.931 . S
C376 C377 1.359 . S
C376 C378 1.364 . S
C377 C375 1.374 1_556 S
C377 C376 1.359 . S
C377 H398 0.931 . S
C378 C374 1.389 1_556 S
C378 C376 1.364 . S
C378 H399 0.931 . S
C379 O390 1.256 . S
C379 O391 1.257 . S
O380 Gd360 2.377 . S
O380 C362 1.240 . S
O381 Gd361 2.395 . S
O381 C362 1.240 . S
O382 Gd360 2.448 . S
O382 C363 1.249 . S
O383 Gd360 2.506 . S
O383 C363 1.252 . S
O384 Gd360 2.435 . S
O384 C370 1.256 . S
O385 Gd360 2.717 . S
O385 Gd361 2.327 . S
O385 C370 1.257 . S
O386 Gd361 2.377 . S
O386 C371 1.240 . S
O387 Gd360 2.395 . S
O387 C371 1.240 . S
O388 Gd361 2.448 . S
O388 C372 1.249 . S
O389 Gd361 2.506 . S
O389 C372 1.252 . S
O390 Gd361 2.435 . S
O390 C379 1.256 . S
O391 Gd360 2.327 . S
O391 Gd361 2.717 . S
O391 C379 1.257 . S
H392 C365 0.930 . S
H393 C366 0.931 . S
H394 C368 0.931 . S
H395 C369 0.931 . S
H396 C374 0.930 . S
H397 C375 0.931 . S
H398 C377 0.931 . S
H399 C378 0.931 . S
Gd400 C403 2.818 . S
Gd400 O420 2.377 . S
Gd400 O422 2.448 . S
Gd400 O423 2.506 . S
Gd400 O424 2.435 . S
Gd400 O425 2.717 . S
Gd400 O427 2.395 . S
Gd400 O431 2.327 . S
Gd401 C412 2.818 . S
Gd401 O421 2.395 . S
Gd401 O425 2.327 . S
Gd401 O426 2.377 . S
Gd401 O428 2.448 . S
Gd401 O429 2.506 . S
Gd401 O430 2.435 . S
Gd401 O431 2.717 . S
C402 O420 1.240 . S
C402 O421 1.240 . S
C403 Gd400 2.818 . S
C403 C404 1.510 1_556 S
C403 O422 1.249 . S
C403 O423 1.252 . S
C404 C403 1.510 1_554 S
C404 C405 1.404 . S
C404 C406 1.352 . S
C405 C404 1.404 . S
C405 C409 1.389 . S
C405 H432 0.930 . S
C406 C404 1.352 . S
C406 C408 1.374 . S
C406 H433 0.931 . S
C407 C408 1.359 . S
C407 C409 1.364 . S
C408 C406 1.374 . S
C408 C407 1.359 . S
C408 H434 0.931 . S
C409 C405 1.389 . S
C409 C407 1.364 . S
C409 H435 0.931 . S
C410 O424 1.256 . S
C410 O425 1.257 . S
C411 O426 1.240 . S
C411 O427 1.240 . S
C412 Gd401 2.818 . S
C412 C413 1.510 . S
C412 O428 1.249 . S
C412 O429 1.252 . S
C413 C412 1.510 . S
C413 C414 1.404 . S
C413 C415 1.352 . S
C414 C413 1.404 . S
C414 C418 1.389 . S
C414 H436 0.930 . S
C415 C413 1.352 . S
C415 C417 1.374 . S
C415 H437 0.931 . S
C416 C417 1.359 . S
C416 C418 1.364 . S
C417 C415 1.374 . S
C417 C416 1.359 . S
C417 H438 0.931 . S
C418 C414 1.389 . S
C418 C416 1.364 . S
C418 H439 0.931 . S
C419 O430 1.256 . S
C419 O431 1.257 . S
O420 Gd400 2.377 . S
O420 C402 1.240 . S
O421 Gd401 2.395 . S
O421 C402 1.240 . S
O422 Gd400 2.448 . S
O422 C403 1.249 . S
O423 Gd400 2.506 . S
O423 C403 1.252 . S
O424 Gd400 2.435 . S
O424 C410 1.256 . S
O425 Gd400 2.717 . S
O425 Gd401 2.327 . S
O425 C410 1.257 . S
O426 Gd401 2.377 . S
O426 C411 1.240 . S
O427 Gd400 2.395 . S
O427 C411 1.240 . S
O428 Gd401 2.448 . S
O428 C412 1.249 . S
O429 Gd401 2.506 . S
O429 C412 1.252 . S
O430 Gd401 2.435 . S
O430 C419 1.256 . S
O431 Gd400 2.327 . S
O431 Gd401 2.717 . S
O431 C419 1.257 . S
H432 C405 0.930 . S
H433 C406 0.931 . S
H434 C408 0.931 . S
H435 C409 0.931 . S
H436 C414 0.930 . S
H437 C415 0.931 . S
H438 C417 0.931 . S
H439 C418 0.931 . S
Gd440 C443 2.818 . S
Gd440 O460 2.377 . S
Gd440 O462 2.448 . S
Gd440 O463 2.506 . S
Gd440 O464 2.435 . S
Gd440 O465 2.717 . S
Gd440 O467 2.395 . S
Gd440 O471 2.327 . S
Gd441 C452 2.818 . S
Gd441 O461 2.395 . S
Gd441 O465 2.327 . S
Gd441 O466 2.377 . S
Gd441 O468 2.448 . S
Gd441 O469 2.506 . S
Gd441 O470 2.435 . S
Gd441 O471 2.717 . S
C442 O460 1.240 . S
C442 O461 1.240 . S
C443 Gd440 2.818 . S
C443 C444 1.510 . S
C443 O462 1.249 . S
C443 O463 1.252 . S
C444 C443 1.510 . S
C444 C445 1.404 . S
C444 C446 1.352 . S
C445 C444 1.404 . S
C445 C449 1.389 . S
C445 H472 0.930 . S
C446 C444 1.352 . S
C446 C448 1.374 . S
C446 H473 0.931 . S
C447 C448 1.359 . S
C447 C449 1.364 . S
C448 C446 1.374 . S
C448 C447 1.359 . S
C448 H474 0.931 . S
C449 C445 1.389 . S
C449 C447 1.364 . S
C449 H475 0.931 . S
C450 O464 1.256 . S
C450 O465 1.257 . S
C451 O466 1.240 . S
C451 O467 1.240 . S
C452 Gd441 2.818 . S
C452 C453 1.510 . S
C452 O468 1.249 . S
C452 O469 1.252 . S
C453 C452 1.510 . S
C453 C454 1.404 . S
C453 C455 1.352 . S
C454 C453 1.404 . S
C454 C458 1.389 . S
C454 H476 0.930 . S
C455 C453 1.352 . S
C455 C457 1.374 . S
C455 H477 0.931 . S
C456 C457 1.359 . S
C456 C458 1.364 . S
C457 C455 1.374 . S
C457 C456 1.359 . S
C457 H478 0.931 . S
C458 C454 1.389 . S
C458 C456 1.364 . S
C458 H479 0.931 . S
C459 O470 1.256 . S
C459 O471 1.257 . S
O460 Gd440 2.377 . S
O460 C442 1.240 . S
O461 Gd441 2.395 . S
O461 C442 1.240 . S
O462 Gd440 2.448 . S
O462 C443 1.249 . S
O463 Gd440 2.506 . S
O463 C443 1.252 . S
O464 Gd440 2.435 . S
O464 C450 1.256 . S
O465 Gd440 2.717 . S
O465 Gd441 2.327 . S
O465 C450 1.257 . S
O466 Gd441 2.377 . S
O466 C451 1.240 . S
O467 Gd440 2.395 . S
O467 C451 1.240 . S
O468 Gd441 2.448 . S
O468 C452 1.249 . S
O469 Gd441 2.506 . S
O469 C452 1.252 . S
O470 Gd441 2.435 . S
O470 C459 1.256 . S
O471 Gd440 2.327 . S
O471 Gd441 2.717 . S
O471 C459 1.257 . S
H472 C445 0.930 . S
H473 C446 0.931 . S
H474 C448 0.931 . S
H475 C449 0.931 . S
H476 C454 0.930 . S
H477 C455 0.931 . S
H478 C457 0.931 . S
H479 C458 0.931 . S
Gd480 C483 2.818 . S
Gd480 O500 2.377 . S
Gd480 O502 2.448 . S
Gd480 O503 2.506 . S
Gd480 O504 2.435 . S
Gd480 O505 2.717 . S
Gd480 O507 2.395 . S
Gd480 O511 2.327 . S
Gd481 C492 2.818 . S
Gd481 O501 2.395 . S
Gd481 O505 2.327 . S
Gd481 O506 2.377 . S
Gd481 O508 2.448 . S
Gd481 O509 2.506 . S
Gd481 O510 2.435 . S
Gd481 O511 2.717 . S
C482 O500 1.240 . S
C482 O501 1.240 . S
C483 Gd480 2.818 . S
C483 C484 1.510 . S
C483 O502 1.249 . S
C483 O503 1.252 . S
C484 C483 1.510 . S
C484 C485 1.404 . S
C484 C486 1.352 . S
C485 C484 1.404 . S
C485 C489 1.389 . S
C485 H512 0.930 . S
C486 C484 1.352 . S
C486 C488 1.374 . S
C486 H513 0.931 . S
C487 C488 1.359 . S
C487 C489 1.364 . S
C488 C486 1.374 . S
C488 C487 1.359 . S
C488 H514 0.931 . S
C489 C485 1.389 . S
C489 C487 1.364 . S
C489 H515 0.931 . S
C490 O504 1.256 . S
C490 O505 1.257 . S
C491 O506 1.240 . S
C491 O507 1.240 . S
C492 Gd481 2.818 . S
C492 C493 1.510 . S
C492 O508 1.249 . S
C492 O509 1.252 . S
C493 C492 1.510 . S
C493 C494 1.404 . S
C493 C495 1.352 . S
C494 C493 1.404 . S
C494 C498 1.389 . S
C494 H516 0.930 . S
C495 C493 1.352 . S
C495 C497 1.374 . S
C495 H517 0.931 . S
C496 C497 1.359 . S
C496 C498 1.364 . S
C497 C495 1.374 . S
C497 C496 1.359 . S
C497 H518 0.931 . S
C498 C494 1.389 . S
C498 C496 1.364 . S
C498 H519 0.931 . S
C499 O510 1.256 . S
C499 O511 1.257 . S
O500 Gd480 2.377 . S
O500 C482 1.240 . S
O501 Gd481 2.395 . S
O501 C482 1.240 . S
O502 Gd480 2.448 . S
O502 C483 1.249 . S
O503 Gd480 2.506 . S
O503 C483 1.252 . S
O504 Gd480 2.435 . S
O504 C490 1.256 . S
O505 Gd480 2.717 . S
O505 Gd481 2.327 . S
O505 C490 1.257 . S
O506 Gd481 2.377 . S
O506 C491 1.240 . S
O507 Gd480 2.395 . S
O507 C491 1.240 . S
O508 Gd481 2.448 . S
O508 C492 1.249 . S
O509 Gd481 2.506 . S
O509 C492 1.252 . S
O510 Gd481 2.435 . S
O510 C499 1.256 . S
O511 Gd480 2.327 . S
O511 Gd481 2.717 . S
O511 C499 1.257 . S
H512 C485 0.930 . S
H513 C486 0.931 . S
H514 C488 0.931 . S
H515 C489 0.931 . S
H516 C494 0.930 . S
H517 C495 0.931 . S
H518 C497 0.931 . S
H519 C498 0.931 . S
Gd520 C523 2.818 1_455 S
Gd520 O540 2.377 . S
Gd520 O542 2.448 1_455 S
Gd520 O543 2.506 1_455 S
Gd520 O544 2.435 . S
Gd520 O545 2.717 . S
Gd520 O547 2.395 1_455 S
Gd520 O551 2.327 . S
Gd521 C532 2.818 . S
Gd521 O541 2.395 . S
Gd521 O545 2.327 . S
Gd521 O546 2.377 . S
Gd521 O548 2.448 . S
Gd521 O549 2.506 . S
Gd521 O550 2.435 . S
Gd521 O551 2.717 . S
C522 O540 1.240 . S
C522 O541 1.240 . S
C523 Gd520 2.818 1_655 S
C523 C524 1.510 1_554 S
C523 O542 1.249 . S
C523 O543 1.252 . S
C524 C523 1.510 1_556 S
C524 C525 1.404 . S
C524 C526 1.352 . S
C525 C524 1.404 . S
C525 C529 1.389 . S
C525 H552 0.930 . S
C526 C524 1.352 . S
C526 C528 1.374 . S
C526 H553 0.931 . S
C527 C528 1.359 . S
C527 C529 1.364 . S
C528 C526 1.374 . S
C528 C527 1.359 . S
C528 H554 0.931 . S
C529 C525 1.389 . S
C529 C527 1.364 . S
C529 H555 0.931 . S
C530 O544 1.256 . S
C530 O545 1.257 . S
C531 O546 1.240 . S
C531 O547 1.240 1_455 S
C532 Gd521 2.818 . S
C532 C533 1.510 . S
C532 O548 1.249 . S
C532 O549 1.252 . S
C533 C532 1.510 . S
C533 C534 1.404 . S
C533 C535 1.352 . S
C534 C533 1.404 . S
C534 C538 1.389 . S
C534 H556 0.930 . S
C535 C533 1.352 . S
C535 C537 1.374 . S
C535 H557 0.931 . S
C536 C537 1.359 . S
C536 C538 1.364 . S
C537 C535 1.374 . S
C537 C536 1.359 . S
C537 H558 0.931 . S
C538 C534 1.389 . S
C538 C536 1.364 . S
C538 H559 0.931 . S
C539 O550 1.256 . S
C539 O551 1.257 . S
O540 Gd520 2.377 . S
O540 C522 1.240 . S
O541 Gd521 2.395 . S
O541 C522 1.240 . S
O542 Gd520 2.448 1_655 S
O542 C523 1.249 . S
O543 Gd520 2.506 1_655 S
O543 C523 1.252 . S
O544 Gd520 2.435 . S
O544 C530 1.256 . S
O545 Gd520 2.717 . S
O545 Gd521 2.327 . S
O545 C530 1.257 . S
O546 Gd521 2.377 . S
O546 C531 1.240 . S
O547 Gd520 2.395 1_655 S
O547 C531 1.240 1_655 S
O548 Gd521 2.448 . S
O548 C532 1.249 . S
O549 Gd521 2.506 . S
O549 C532 1.252 . S
O550 Gd521 2.435 . S
O550 C539 1.256 . S
O551 Gd520 2.327 . S
O551 Gd521 2.717 . S
O551 C539 1.257 . S
H552 C525 0.930 . S
H553 C526 0.931 . S
H554 C528 0.931 . S
H555 C529 0.931 . S
H556 C534 0.930 . S
H557 C535 0.931 . S
H558 C537 0.931 . S
H559 C538 0.931 . S
Gd560 C563 2.818 . S
Gd560 O580 2.377 . S
Gd560 O582 2.448 . S
Gd560 O583 2.506 . S
Gd560 O584 2.435 . S
Gd560 O585 2.717 . S
Gd560 O587 2.395 . S
Gd560 O591 2.327 . S
Gd561 C572 2.818 . S
Gd561 O581 2.395 . S
Gd561 O585 2.327 . S
Gd561 O586 2.377 . S
Gd561 O588 2.448 . S
Gd561 O589 2.506 . S
Gd561 O590 2.435 . S
Gd561 O591 2.717 . S
C562 O580 1.240 . S
C562 O581 1.240 . S
C563 Gd560 2.818 . S
C563 C564 1.510 . S
C563 O582 1.249 . S
C563 O583 1.252 . S
C564 C563 1.510 . S
C564 C565 1.404 . S
C564 C566 1.352 . S
C565 C564 1.404 . S
C565 C569 1.389 . S
C565 H592 0.930 . S
C566 C564 1.352 . S
C566 C568 1.374 . S
C566 H593 0.931 . S
C567 C568 1.359 . S
C567 C569 1.364 . S
C568 C566 1.374 . S
C568 C567 1.359 . S
C568 H594 0.931 . S
C569 C565 1.389 . S
C569 C567 1.364 . S
C569 H595 0.931 . S
C570 O584 1.256 . S
C570 O585 1.257 . S
C571 O586 1.240 . S
C571 O587 1.240 . S
C572 Gd561 2.818 . S
C572 C573 1.510 . S
C572 O588 1.249 . S
C572 O589 1.252 . S
C573 C572 1.510 . S
C573 C574 1.404 . S
C573 C575 1.352 . S
C574 C573 1.404 . S
C574 C578 1.389 . S
C574 H596 0.930 . S
C575 C573 1.352 . S
C575 C577 1.374 . S
C575 H597 0.931 . S
C576 C577 1.359 . S
C576 C578 1.364 . S
C577 C575 1.374 . S
C577 C576 1.359 . S
C577 H598 0.931 . S
C578 C574 1.389 . S
C578 C576 1.364 . S
C578 H599 0.931 . S
C579 O590 1.256 . S
C579 O591 1.257 . S
O580 Gd560 2.377 . S
O580 C562 1.240 . S
O581 Gd561 2.395 . S
O581 C562 1.240 . S
O582 Gd560 2.448 . S
O582 C563 1.249 . S
O583 Gd560 2.506 . S
O583 C563 1.252 . S
O584 Gd560 2.435 . S
O584 C570 1.256 . S
O585 Gd560 2.717 . S
O585 Gd561 2.327 . S
O585 C570 1.257 . S
O586 Gd561 2.377 . S
O586 C571 1.240 . S
O587 Gd560 2.395 . S
O587 C571 1.240 . S
O588 Gd561 2.448 . S
O588 C572 1.249 . S
O589 Gd561 2.506 . S
O589 C572 1.252 . S
O590 Gd561 2.435 . S
O590 C579 1.256 . S
O591 Gd560 2.327 . S
O591 Gd561 2.717 . S
O591 C579 1.257 . S
H592 C565 0.930 . S
H593 C566 0.931 . S
H594 C568 0.931 . S
H595 C569 0.931 . S
H596 C574 0.930 . S
H597 C575 0.931 . S
H598 C577 0.931 . S
H599 C578 0.931 . S
Gd600 C603 2.818 . S
Gd600 O620 2.377 1_655 S
Gd600 O622 2.448 . S
Gd600 O623 2.506 . S
Gd600 O624 2.435 . S
Gd600 O625 2.717 1_655 S
Gd600 O627 2.395 . S
Gd600 O631 2.327 . S
Gd601 C612 2.818 . S
Gd601 O621 2.395 . S
Gd601 O625 2.327 . S
Gd601 O626 2.377 1_455 S
Gd601 O628 2.448 . S
Gd601 O629 2.506 . S
Gd601 O630 2.435 . S
Gd601 O631 2.717 1_455 S
C602 O620 1.240 . S
C602 O621 1.240 . S
C603 Gd600 2.818 . S
C603 C604 1.510 . S
C603 O622 1.249 . S
C603 O623 1.252 . S
C604 C603 1.510 . S
C604 C605 1.404 . S
C604 C606 1.352 . S
C605 C604 1.404 . S
C605 C609 1.389 . S
C605 H632 0.930 . S
C606 C604 1.352 . S
C606 C608 1.374 . S
C606 H633 0.931 . S
C607 C608 1.359 . S
C607 C609 1.364 . S
C608 C606 1.374 . S
C608 C607 1.359 . S
C608 H634 0.931 . S
C609 C605 1.389 . S
C609 C607 1.364 . S
C609 H635 0.931 . S
C610 O624 1.256 . S
C610 O625 1.257 1_655 S
C611 O626 1.240 . S
C611 O627 1.240 . S
C612 Gd601 2.818 . S
C612 C613 1.510 1_556 S
C612 O628 1.249 . S
C612 O629 1.252 . S
C613 C612 1.510 1_554 S
C613 C614 1.404 . S
C613 C615 1.352 . S
C614 C613 1.404 . S
C614 C618 1.389 . S
C614 H636 0.930 . S
C615 C613 1.352 . S
C615 C617 1.374 . S
C615 H637 0.931 . S
C616 C617 1.359 . S
C616 C618 1.364 . S
C617 C615 1.374 . S
C617 C616 1.359 . S
C617 H638 0.931 . S
C618 C614 1.389 . S
C618 C616 1.364 . S
C618 H639 0.931 . S
C619 O630 1.256 . S
C619 O631 1.257 1_455 S
O620 Gd600 2.377 1_455 S
O620 C602 1.240 . S
O621 Gd601 2.395 . S
O621 C602 1.240 . S
O622 Gd600 2.448 . S
O622 C603 1.249 . S
O623 Gd600 2.506 . S
O623 C603 1.252 . S
O624 Gd600 2.435 . S
O624 C610 1.256 . S
O625 Gd600 2.717 1_455 S
O625 Gd601 2.327 . S
O625 C610 1.257 1_455 S
O626 Gd601 2.377 1_655 S
O626 C611 1.240 . S
O627 Gd600 2.395 . S
O627 C611 1.240 . S
O628 Gd601 2.448 . S
O628 C612 1.249 . S
O629 Gd601 2.506 . S
O629 C612 1.252 . S
O630 Gd601 2.435 . S
O630 C619 1.256 . S
O631 Gd600 2.327 . S
O631 Gd601 2.717 1_655 S
O631 C619 1.257 1_655 S
H632 C605 0.930 . S
H633 C606 0.931 . S
H634 C608 0.931 . S
H635 C609 0.931 . S
H636 C614 0.930 . S
H637 C615 0.931 . S
H638 C617 0.931 . S
H639 C618 0.931 . S
C640 C641 1.391 . S
C640 C642 1.394 1_554 S
C640 H656 0.931 . S
C641 C640 1.391 . S
C641 C645 1.376 . S
C642 C640 1.394 1_556 S
C642 C643 1.369 . S
C642 C646 1.531 . S
C643 C642 1.369 . S
C643 C644 1.410 1_556 S
C643 C651 1.503 . S
C644 C643 1.410 1_554 S
C644 C645 1.392 . S
C644 C647 1.512 1_554 S
C645 C641 1.376 . S
C645 C644 1.392 . S
C645 H657 0.929 . S
C646 C642 1.531 . S
C646 H658 0.960 . S
C646 H659 0.962 . S
C646 H660 0.960 . S
C647 C644 1.512 1_556 S
C647 H661 0.953 1_556 S
C647 H662 0.972 . S
C647 H663 0.957 1_556 S
C648 C649 1.370 . S
C648 C650 1.363 . S
C648 H664 0.931 . S
C649 C648 1.370 . S
C649 C653 1.408 . S
C650 C648 1.363 . S
C650 C651 1.370 . S
C650 C654 1.524 . S
C651 C643 1.503 . S
C651 C650 1.370 . S
C651 C652 1.403 . S
C652 C651 1.403 . S
C652 C653 1.404 . S
C652 C655 1.539 . S
C653 C649 1.408 . S
C653 C652 1.404 . S
C653 H665 0.930 . S
C654 C650 1.524 . S
C654 H666 0.956 . S
C654 H667 0.961 . S
C654 H668 0.961 . S
C655 C652 1.539 . S
C655 H669 0.958 . S
C655 H670 0.961 . S
C655 H671 0.960 . S
H656 C640 0.931 . S
H657 C645 0.929 . S
H658 C646 0.960 . S
H659 C646 0.962 . S
H660 C646 0.960 . S
H661 C647 0.953 1_554 S
H662 C647 0.972 . S
H663 C647 0.957 1_554 S
H664 C648 0.931 . S
H665 C653 0.930 . S
H666 C654 0.956 . S
H667 C654 0.961 . S
H668 C654 0.961 . S
H669 C655 0.958 . S
H670 C655 0.961 . S
H671 C655 0.960 . S
C672 C673 1.391 . S
C672 C674 1.394 . S
C672 H688 0.931 . S
C673 C672 1.391 . S
C673 C677 1.376 . S
C674 C672 1.394 . S
C674 C675 1.369 . S
C674 C678 1.531 . S
C675 C674 1.369 . S
C675 C676 1.410 . S
C675 C683 1.503 . S
C676 C675 1.410 . S
C676 C677 1.392 . S
C676 C679 1.511 . S
C677 C673 1.376 . S
C677 C676 1.392 . S
C677 H689 0.929 . S
C678 C674 1.531 . S
C678 H690 0.960 . S
C678 H691 0.962 . S
C678 H692 0.960 . S
C679 C676 1.511 . S
C679 H693 0.961 . S
C679 H694 0.961 . S
C679 H695 0.961 . S
C680 C681 1.370 . S
C680 C682 1.363 . S
C680 H696 0.931 . S
C681 C680 1.370 . S
C681 C685 1.408 . S
C682 C680 1.363 . S
C682 C683 1.370 . S
C682 C686 1.524 . S
C683 C675 1.503 . S
C683 C682 1.370 . S
C683 C684 1.403 . S
C684 C683 1.403 . S
C684 C685 1.404 . S
C684 C687 1.539 . S
C685 C681 1.408 . S
C685 C684 1.404 . S
C685 H697 0.930 . S
C686 C682 1.524 . S
C686 H698 0.956 . S
C686 H699 0.961 . S
C686 H700 0.961 . S
C687 C684 1.539 . S
C687 H701 0.958 . S
C687 H702 0.961 . S
C687 H703 0.960 . S
H688 C672 0.931 . S
H689 C677 0.929 . S
H690 C678 0.960 . S
H691 C678 0.962 . S
H692 C678 0.960 . S
H693 C679 0.961 . S
H694 C679 0.961 . S
H695 C679 0.961 . S
H696 C680 0.931 . S
H697 C685 0.930 . S
H698 C686 0.956 . S
H699 C686 0.961 . S
H700 C686 0.961 . S
H701 C687 0.958 . S
H702 C687 0.961 . S
H703 C687 0.960 . S
C704 C705 1.391 . S
C704 C706 1.394 . S
C704 H720 0.931 . S
C705 C704 1.391 . S
C705 C709 1.376 . S
C706 C704 1.394 . S
C706 C707 1.369 . S
C706 C710 1.531 . S
C707 C706 1.369 . S
C707 C708 1.410 . S
C707 C715 1.503 . S
C708 C707 1.410 . S
C708 C709 1.392 . S
C708 C711 1.511 . S
C709 C705 1.376 . S
C709 C708 1.392 . S
C709 H721 0.929 . S
C710 C706 1.531 . S
C710 H722 0.960 . S
C710 H723 0.962 . S
C710 H724 0.960 . S
C711 C708 1.511 . S
C711 H725 0.961 . S
C711 H726 0.961 . S
C711 H727 0.961 . S
C712 C713 1.370 . S
C712 C714 1.363 . S
C712 H728 0.931 . S
C713 C712 1.370 . S
C713 C717 1.408 . S
C714 C712 1.363 . S
C714 C715 1.370 . S
C714 C718 1.524 . S
C715 C707 1.503 . S
C715 C714 1.370 . S
C715 C716 1.403 . S
C716 C715 1.403 . S
C716 C717 1.404 . S
C716 C719 1.539 . S
C717 C713 1.408 . S
C717 C716 1.404 . S
C717 H729 0.930 . S
C718 C714 1.524 . S
C718 H730 0.956 . S
C718 H731 0.961 . S
C718 H732 0.961 . S
C719 C716 1.539 . S
C719 H733 0.958 . S
C719 H734 0.961 . S
C719 H735 0.960 . S
H720 C704 0.931 . S
H721 C709 0.929 . S
H722 C710 0.960 . S
H723 C710 0.962 . S
H724 C710 0.960 . S
H725 C711 0.961 . S
H726 C711 0.961 . S
H727 C711 0.961 . S
H728 C712 0.931 . S
H729 C717 0.930 . S
H730 C718 0.956 . S
H731 C718 0.961 . S
H732 C718 0.961 . S
H733 C719 0.958 . S
H734 C719 0.961 . S
H735 C719 0.960 . S
C736 C737 1.391 . S
C736 C738 1.394 . S
C736 H752 0.931 . S
C737 C736 1.391 . S
C737 C741 1.376 . S
C738 C736 1.394 . S
C738 C739 1.369 . S
C738 C742 1.531 . S
C739 C738 1.369 . S
C739 C740 1.410 . S
C739 C747 1.503 . S
C740 C739 1.410 . S
C740 C741 1.392 . S
C740 C743 1.511 . S
C741 C737 1.376 . S
C741 C740 1.392 . S
C741 H753 0.929 . S
C742 C738 1.531 . S
C742 H754 0.960 . S
C742 H755 0.962 . S
C742 H756 0.960 . S
C743 C740 1.511 . S
C743 H757 0.961 . S
C743 H758 0.961 . S
C743 H759 0.961 . S
C744 C745 1.370 . S
C744 C746 1.363 . S
C744 H760 0.931 . S
C745 C744 1.370 . S
C745 C749 1.408 . S
C746 C744 1.363 . S
C746 C747 1.370 . S
C746 C750 1.524 . S
C747 C739 1.503 . S
C747 C746 1.370 . S
C747 C748 1.403 . S
C748 C747 1.403 . S
C748 C749 1.404 . S
C748 C751 1.539 . S
C749 C745 1.408 . S
C749 C748 1.404 . S
C749 H761 0.930 . S
C750 C746 1.524 . S
C750 H762 0.956 . S
C750 H763 0.961 . S
C750 H764 0.961 . S
C751 C748 1.539 . S
C751 H765 0.958 . S
C751 H766 0.961 . S
C751 H767 0.960 . S
H752 C736 0.931 . S
H753 C741 0.929 . S
H754 C742 0.960 . S
H755 C742 0.962 . S
H756 C742 0.960 . S
H757 C743 0.961 . S
H758 C743 0.961 . S
H759 C743 0.961 . S
H760 C744 0.931 . S
H761 C749 0.930 . S
H762 C750 0.956 . S
H763 C750 0.961 . S
H764 C750 0.961 . S
H765 C751 0.958 . S
H766 C751 0.961 . S
H767 C751 0.960 . S
C768 C769 1.391 . S
C768 C770 1.394 . S
C768 H784 0.931 . S
C769 C768 1.391 . S
C769 C773 1.376 . S
C770 C768 1.394 . S
C770 C771 1.369 . S
C770 C774 1.531 . S
C771 C770 1.369 . S
C771 C772 1.410 . S
C771 C779 1.503 . S
C772 C771 1.410 . S
C772 C773 1.392 . S
C772 C775 1.511 . S
C773 C769 1.376 . S
C773 C772 1.392 . S
C773 H785 0.929 . S
C774 C770 1.531 . S
C774 H786 0.960 . S
C774 H787 0.962 . S
C774 H788 0.960 . S
C775 C772 1.511 . S
C775 H789 0.961 . S
C775 H790 0.961 . S
C775 H791 0.961 . S
C776 C777 1.381 . S
C776 C778 1.370 1_556 S
C776 H792 0.913 1_655 S
C777 C776 1.381 . S
C777 C781 1.408 . S
C778 C776 1.370 1_554 S
C778 C779 1.370 . S
C778 C782 1.524 . S
C779 C771 1.503 . S
C779 C778 1.370 . S
C779 C780 1.403 1_554 S
C780 C779 1.403 1_556 S
C780 C781 1.404 . S
C780 C783 1.539 . S
C781 C777 1.408 . S
C781 C780 1.404 . S
C781 H793 0.930 . S
C782 C778 1.524 . S
C782 H794 0.956 . S
C782 H795 0.961 . S
C782 H796 0.961 1_655 S
C783 C780 1.539 . S
C783 H797 0.958 . S
C783 H798 0.961 . S
C783 H799 0.960 1_556 S
H784 C768 0.931 . S
H785 C773 0.929 . S
H786 C774 0.960 . S
H787 C774 0.962 . S
H788 C774 0.960 . S
H789 C775 0.961 . S
H790 C775 0.961 . S
H791 C775 0.961 . S
H792 C776 0.913 1_455 S
H793 C781 0.930 . S
H794 C782 0.956 . S
H795 C782 0.961 . S
H796 C782 0.961 1_455 S
H797 C783 0.958 . S
H798 C783 0.961 . S
H799 C783 0.960 1_554 S
C800 C801 1.391 . S
C800 C802 1.394 . S
C800 H816 0.931 . S
C801 C800 1.391 . S
C801 C805 1.376 . S
C802 C800 1.394 . S
C802 C803 1.369 . S
C802 C806 1.531 . S
C803 C802 1.369 . S
C803 C804 1.410 . S
C803 C811 1.503 . S
C804 C803 1.410 . S
C804 C805 1.392 . S
C804 C807 1.511 . S
C805 C801 1.376 . S
C805 C804 1.392 . S
C805 H817 0.929 . S
C806 C802 1.531 . S
C806 H818 0.960 . S
C806 H819 0.962 . S
C806 H820 0.960 . S
C807 C804 1.511 . S
C807 H821 0.961 . S
C807 H822 0.961 . S
C807 H823 0.961 . S
C808 C809 1.370 . S
C808 C810 1.363 . S
C808 H824 0.931 . S
C809 C808 1.370 . S
C809 C813 1.408 . S
C810 C808 1.363 . S
C810 C811 1.370 . S
C810 C814 1.524 . S
C811 C803 1.503 . S
C811 C810 1.370 . S
C811 C812 1.403 . S
C812 C811 1.403 . S
C812 C813 1.404 . S
C812 C815 1.539 . S
C813 C809 1.408 . S
C813 C812 1.404 . S
C813 H825 0.930 . S
C814 C810 1.524 . S
C814 H826 0.956 . S
C814 H827 0.961 . S
C814 H828 0.961 . S
C815 C812 1.539 . S
C815 H829 0.958 . S
C815 H830 0.961 . S
C815 H831 0.960 . S
H816 C800 0.931 . S
H817 C805 0.929 . S
H818 C806 0.960 . S
H819 C806 0.962 . S
H820 C806 0.960 . S
H821 C807 0.961 . S
H822 C807 0.961 . S
H823 C807 0.961 . S
H824 C808 0.931 . S
H825 C813 0.930 . S
H826 C814 0.956 . S
H827 C814 0.961 . S
H828 C814 0.961 . S
H829 C815 0.958 . S
H830 C815 0.961 . S
H831 C815 0.960 . S
C832 C833 1.391 . S
C832 C834 1.394 . S
C832 H848 0.931 . S
C833 C832 1.391 . S
C833 C837 1.376 . S
C834 C832 1.394 . S
C834 C835 1.369 . S
C834 C838 1.531 . S
C835 C834 1.369 . S
C835 C836 1.410 . S
C835 C843 1.503 . S
C836 C835 1.410 . S
C836 C837 1.392 . S
C836 C839 1.511 . S
C837 C833 1.376 . S
C837 C836 1.392 . S
C837 H849 0.929 . S
C838 C834 1.531 . S
C838 H850 0.960 . S
C838 H851 0.962 . S
C838 H852 0.960 . S
C839 C836 1.511 . S
C839 H853 0.961 . S
C839 H854 0.961 . S
C839 H855 0.961 . S
C840 C841 1.370 . S
C840 C842 1.363 . S
C840 H856 0.931 . S
C841 C840 1.370 . S
C841 C845 1.408 . S
C842 C840 1.363 . S
C842 C843 1.370 . S
C842 C846 1.524 . S
C843 C835 1.503 . S
C843 C842 1.370 . S
C843 C844 1.403 . S
C844 C843 1.403 . S
C844 C845 1.404 . S
C844 C847 1.539 . S
C845 C841 1.408 . S
C845 C844 1.404 . S
C845 H857 0.930 . S
C846 C842 1.524 . S
C846 H858 0.956 . S
C846 H859 0.961 . S
C846 H860 0.961 . S
C847 C844 1.539 . S
C847 H861 0.958 . S
C847 H862 0.961 . S
C847 H863 0.960 . S
H848 C832 0.931 . S
H849 C837 0.929 . S
H850 C838 0.960 . S
H851 C838 0.962 . S
H852 C838 0.960 . S
H853 C839 0.961 . S
H854 C839 0.961 . S
H855 C839 0.961 . S
H856 C840 0.931 . S
H857 C845 0.930 . S
H858 C846 0.956 . S
H859 C846 0.961 . S
H860 C846 0.961 . S
H861 C847 0.958 . S
H862 C847 0.961 . S
H863 C847 0.960 . S
C864 C865 1.391 . S
C864 C866 1.394 . S
C864 H880 0.931 . S
C865 C864 1.391 . S
C865 C869 1.376 . S
C866 C864 1.394 . S
C866 C867 1.369 . S
C866 C870 1.531 . S
C867 C866 1.369 . S
C867 C868 1.410 . S
C867 C875 1.503 . S
C868 C867 1.410 . S
C868 C869 1.392 . S
C868 C871 1.511 . S
C869 C865 1.376 . S
C869 C868 1.392 . S
C869 H881 0.929 . S
C870 C866 1.531 . S
C870 H882 0.960 . S
C870 H883 0.962 . S
C870 H884 0.960 . S
C871 C868 1.511 . S
C871 H885 0.961 . S
C871 H886 0.961 . S
C871 H887 0.961 . S
C872 C873 1.370 . S
C872 C874 1.363 . S
C872 H888 0.931 . S
C873 C872 1.370 . S
C873 C877 1.408 . S
C874 C872 1.363 . S
C874 C875 1.370 . S
C874 C878 1.524 . S
C875 C867 1.503 . S
C875 C874 1.370 . S
C875 C876 1.403 . S
C876 C875 1.403 . S
C876 C877 1.404 . S
C876 C879 1.539 . S
C877 C873 1.408 . S
C877 C876 1.404 . S
C877 H889 0.930 . S
C878 C874 1.524 . S
C878 H890 0.956 . S
C878 H891 0.961 . S
C878 H892 0.961 . S
C879 C876 1.539 . S
C879 H893 0.958 . S
C879 H894 0.961 . S
C879 H895 0.960 . S
H880 C864 0.931 . S
H881 C869 0.929 . S
H882 C870 0.960 . S
H883 C870 0.962 . S
H884 C870 0.960 . S
H885 C871 0.961 . S
H886 C871 0.961 . S
H887 C871 0.961 . S
H888 C872 0.931 . S
H889 C877 0.930 . S
H890 C878 0.956 . S
H891 C878 0.961 . S
H892 C878 0.961 . S
H893 C879 0.958 . S
H894 C879 0.961 . S
H895 C879 0.960 . S
C896 C897 1.391 . S
C896 C898 1.394 . S
C896 H912 0.931 . S
C897 C896 1.391 . S
C897 C901 1.376 . S
C898 C896 1.394 . S
C898 C899 1.369 . S
C898 C902 1.531 . S
C899 C898 1.369 . S
C899 C900 1.410 . S
C899 C907 1.503 . S
C900 C899 1.410 . S
C900 C901 1.392 . S
C900 C903 1.511 . S
C901 C897 1.376 . S
C901 C900 1.392 . S
C901 H913 0.929 . S
C902 C898 1.531 . S
C902 H914 0.960 . S
C902 H915 0.962 . S
C902 H916 0.960 . S
C903 C900 1.511 . S
C903 H917 0.961 . S
C903 H918 0.961 . S
C903 H919 0.961 . S
C904 C905 1.370 . S
C904 C906 1.363 . S
C904 H920 0.931 . S
C905 C904 1.370 . S
C905 C909 1.408 . S
C906 C904 1.363 . S
C906 C907 1.370 . S
C906 C910 1.524 . S
C907 C899 1.503 . S
C907 C906 1.370 . S
C907 C908 1.403 . S
C908 C907 1.403 . S
C908 C909 1.404 . S
C908 C911 1.539 . S
C909 C905 1.408 . S
C909 C908 1.404 . S
C909 H921 0.930 . S
C910 C906 1.524 . S
C910 H922 0.956 . S
C910 H923 0.961 . S
C910 H924 0.961 . S
C911 C908 1.539 . S
C911 H925 0.958 . S
C911 H926 0.961 . S
C911 H927 0.960 . S
H912 C896 0.931 . S
H913 C901 0.929 . S
H914 C902 0.960 . S
H915 C902 0.962 . S
H916 C902 0.960 . S
H917 C903 0.961 . S
H918 C903 0.961 . S
H919 C903 0.961 . S
H920 C904 0.931 . S
H921 C909 0.930 . S
H922 C910 0.956 . S
H923 C910 0.961 . S
H924 C910 0.961 . S
H925 C911 0.958 . S
H926 C911 0.961 . S
H927 C911 0.960 . S
C928 C929 1.391 . S
C928 C930 1.394 . S
C928 H944 0.931 . S
C929 C928 1.391 . S
C929 C933 1.376 . S
C930 C928 1.394 . S
C930 C931 1.369 . S
C930 C934 1.531 . S
C931 C930 1.369 . S
C931 C932 1.410 . S
C931 C939 1.503 . S
C932 C931 1.410 . S
C932 C933 1.392 . S
C932 C935 1.511 . S
C933 C929 1.376 . S
C933 C932 1.392 . S
C933 H945 0.929 . S
C934 C930 1.531 . S
C934 H946 0.960 . S
C934 H947 0.962 . S
C934 H948 0.960 . S
C935 C932 1.511 . S
C935 H949 0.961 . S
C935 H950 0.961 . S
C935 H951 0.961 . S
C936 C937 1.370 . S
C936 C938 1.363 . S
C936 H952 0.931 . S
C937 C936 1.370 . S
C937 C941 1.408 . S
C938 C936 1.363 . S
C938 C939 1.370 . S
C938 C942 1.524 . S
C939 C931 1.503 . S
C939 C938 1.370 . S
C939 C940 1.403 . S
C940 C939 1.403 . S
C940 C941 1.404 . S
C940 C943 1.539 . S
C941 C937 1.408 . S
C941 C940 1.404 . S
C941 H953 0.930 . S
C942 C938 1.524 . S
C942 H954 0.956 . S
C942 H955 0.961 . S
C942 H956 0.961 . S
C943 C940 1.539 . S
C943 H957 0.958 . S
C943 H958 0.961 . S
C943 H959 0.960 . S
H944 C928 0.931 . S
H945 C933 0.929 . S
H946 C934 0.960 . S
H947 C934 0.962 . S
H948 C934 0.960 . S
H949 C935 0.961 . S
H950 C935 0.961 . S
H951 C935 0.961 . S
H952 C936 0.931 . S
H953 C941 0.930 . S
H954 C942 0.956 . S
H955 C942 0.961 . S
H956 C942 0.961 . S
H957 C943 0.958 . S
H958 C943 0.961 . S
H959 C943 0.960 . S
C960 C961 1.391 . S
C960 C962 1.394 . S
C960 H976 0.931 . S
C961 C960 1.391 . S
C961 C965 1.376 . S
C962 C960 1.394 . S
C962 C963 1.369 . S
C962 C966 1.531 . S
C963 C962 1.369 . S
C963 C964 1.410 . S
C963 C971 1.503 . S
C964 C963 1.410 . S
C964 C965 1.392 . S
C964 C967 1.511 . S
C965 C961 1.376 . S
C965 C964 1.392 . S
C965 H977 0.929 . S
C966 C962 1.531 . S
C966 H978 0.960 . S
C966 H979 0.962 . S
C966 H980 0.960 . S
C967 C964 1.511 . S
C967 H981 0.961 . S
C967 H982 0.961 . S
C967 H983 0.961 . S
C968 C969 1.370 . S
C968 C970 1.363 . S
C968 H984 0.931 . S
C969 C968 1.370 . S
C969 C973 1.408 . S
C970 C968 1.363 . S
C970 C971 1.370 . S
C970 C974 1.524 . S
C971 C963 1.503 . S
C971 C970 1.370 . S
C971 C972 1.403 . S
C972 C971 1.403 . S
C972 C973 1.404 . S
C972 C975 1.539 . S
C973 C969 1.408 . S
C973 C972 1.404 . S
C973 H985 0.930 . S
C974 C970 1.524 . S
C974 H986 0.956 . S
C974 H987 0.961 . S
C974 H988 0.961 . S
C975 C972 1.539 . S
C975 H989 0.958 . S
C975 H990 0.961 . S
C975 H991 0.960 . S
H976 C960 0.931 . S
H977 C965 0.929 . S
H978 C966 0.960 . S
H979 C966 0.962 . S
H980 C966 0.960 . S
H981 C967 0.961 . S
H982 C967 0.961 . S
H983 C967 0.961 . S
H984 C968 0.931 . S
H985 C973 0.930 . S
H986 C974 0.956 . S
H987 C974 0.961 . S
H988 C974 0.961 . S
H989 C975 0.958 . S
H990 C975 0.961 . S
H991 C975 0.960 . S
C992 C993 1.391 . S
C992 C994 1.394 . S
C992 H1008 0.931 . S
C993 C992 1.391 . S
C993 C997 1.376 . S
C994 C992 1.394 . S
C994 C995 1.369 . S
C994 C998 1.531 . S
C995 C994 1.369 . S
C995 C996 1.410 . S
C995 C1003 1.503 . S
C996 C995 1.410 . S
C996 C997 1.392 . S
C996 C999 1.511 . S
C997 C993 1.376 . S
C997 C996 1.392 . S
C997 H1009 0.929 . S
C998 C994 1.531 . S
C998 H1010 0.960 . S
C998 H1011 0.962 . S
C998 H1012 0.960 . S
C999 C996 1.511 . S
C999 H1013 0.961 . S
C999 H1014 0.961 . S
C999 H1015 0.961 . S
C1000 C1001 1.370 . S
C1000 C1002 1.363 . S
C1000 H1016 0.931 . S
C1001 C1000 1.370 . S
C1001 C1005 1.408 . S
C1002 C1000 1.363 . S
C1002 C1003 1.370 . S
C1002 C1006 1.524 . S
C1003 C995 1.503 . S
C1003 C1002 1.370 . S
C1003 C1004 1.403 . S
C1004 C1003 1.403 . S
C1004 C1005 1.404 . S
C1004 C1007 1.539 . S
C1005 C1001 1.408 . S
C1005 C1004 1.404 . S
C1005 H1017 0.930 . S
C1006 C1002 1.524 . S
C1006 H1018 0.956 . S
C1006 H1019 0.961 . S
C1006 H1020 0.961 . S
C1007 C1004 1.539 . S
C1007 H1021 0.958 . S
C1007 H1022 0.961 . S
C1007 H1023 0.960 . S
H1008 C992 0.931 . S
H1009 C997 0.929 . S
H1010 C998 0.960 . S
H1011 C998 0.962 . S
H1012 C998 0.960 . S
H1013 C999 0.961 . S
H1014 C999 0.961 . S
H1015 C999 0.961 . S
H1016 C1000 0.931 . S
H1017 C1005 0.930 . S
H1018 C1006 0.956 . S
H1019 C1006 0.961 . S
H1020 C1006 0.961 . S
H1021 C1007 0.958 . S
H1022 C1007 0.961 . S
H1023 C1007 0.960 . S
C1024 C1025 1.391 . S
C1024 C1026 1.394 . S
C1024 H1040 0.931 . S
C1025 C1024 1.391 . S
C1025 C1029 1.376 . S
C1026 C1024 1.394 . S
C1026 C1027 1.369 . S
C1026 C1030 1.531 . S
C1027 C1026 1.369 . S
C1027 C1028 1.410 . S
C1027 C1035 1.503 . S
C1028 C1027 1.410 . S
C1028 C1029 1.392 . S
C1028 C1031 1.511 . S
C1029 C1025 1.376 . S
C1029 C1028 1.392 . S
C1029 H1041 0.929 . S
C1030 C1026 1.531 . S
C1030 H1042 0.960 . S
C1030 H1043 0.962 . S
C1030 H1044 0.960 . S
C1031 C1028 1.511 . S
C1031 H1045 0.961 . S
C1031 H1046 0.961 . S
C1031 H1047 0.961 . S
C1032 C1033 1.370 . S
C1032 C1034 1.363 . S
C1032 H1048 0.931 . S
C1033 C1032 1.370 . S
C1033 C1037 1.408 . S
C1034 C1032 1.363 . S
C1034 C1035 1.370 . S
C1034 C1038 1.524 . S
C1035 C1027 1.503 . S
C1035 C1034 1.370 . S
C1035 C1036 1.403 . S
C1036 C1035 1.403 . S
C1036 C1037 1.404 . S
C1036 C1039 1.539 . S
C1037 C1033 1.408 . S
C1037 C1036 1.404 . S
C1037 H1049 0.930 . S
C1038 C1034 1.524 . S
C1038 H1050 0.956 . S
C1038 H1051 0.961 . S
C1038 H1052 0.961 . S
C1039 C1036 1.539 . S
C1039 H1053 0.958 . S
C1039 H1054 0.961 . S
C1039 H1055 0.960 . S
H1040 C1024 0.931 . S
H1041 C1029 0.929 . S
H1042 C1030 0.960 . S
H1043 C1030 0.962 . S
H1044 C1030 0.960 . S
H1045 C1031 0.961 . S
H1046 C1031 0.961 . S
H1047 C1031 0.961 . S
H1048 C1032 0.931 . S
H1049 C1037 0.930 . S
H1050 C1038 0.956 . S
H1051 C1038 0.961 . S
H1052 C1038 0.961 . S
H1053 C1039 0.958 . S
H1054 C1039 0.961 . S
H1055 C1039 0.960 . S
C1056 C1057 1.391 . S
C1056 C1058 1.394 . S
C1056 H1072 0.931 . S
C1057 C1056 1.391 . S
C1057 C1061 1.376 . S
C1058 C1056 1.394 . S
C1058 C1059 1.369 . S
C1058 C1062 1.531 . S
C1059 C1058 1.369 . S
C1059 C1060 1.410 . S
C1059 C1067 1.503 . S
C1060 C1059 1.410 . S
C1060 C1061 1.392 . S
C1060 C1063 1.511 . S
C1061 C1057 1.376 . S
C1061 C1060 1.392 . S
C1061 H1073 0.929 . S
C1062 C1058 1.531 . S
C1062 H1074 0.960 . S
C1062 H1075 0.962 . S
C1062 H1076 0.960 . S
C1063 C1060 1.511 . S
C1063 H1077 0.961 . S
C1063 H1078 0.961 . S
C1063 H1079 0.961 . S
C1064 C1065 1.370 . S
C1064 C1066 1.363 . S
C1064 H1080 0.931 . S
C1065 C1064 1.370 . S
C1065 C1069 1.408 . S
C1066 C1064 1.363 . S
C1066 C1067 1.370 . S
C1066 C1070 1.524 . S
C1067 C1059 1.503 . S
C1067 C1066 1.370 . S
C1067 C1068 1.403 . S
C1068 C1067 1.403 . S
C1068 C1069 1.404 . S
C1068 C1071 1.539 . S
C1069 C1065 1.408 . S
C1069 C1068 1.404 . S
C1069 H1081 0.930 . S
C1070 C1066 1.524 . S
C1070 H1082 0.956 . S
C1070 H1083 0.961 . S
C1070 H1084 0.961 . S
C1071 C1068 1.539 . S
C1071 H1085 0.958 . S
C1071 H1086 0.961 . S
C1071 H1087 0.960 . S
H1072 C1056 0.931 . S
H1073 C1061 0.929 . S
H1074 C1062 0.960 . S
H1075 C1062 0.962 . S
H1076 C1062 0.960 . S
H1077 C1063 0.961 . S
H1078 C1063 0.961 . S
H1079 C1063 0.961 . S
H1080 C1064 0.931 . S
H1081 C1069 0.930 . S
H1082 C1070 0.956 . S
H1083 C1070 0.961 . S
H1084 C1070 0.961 . S
H1085 C1071 0.958 . S
H1086 C1071 0.961 . S
H1087 C1071 0.960 . S
C1088 C1089 1.391 . S
C1088 C1090 1.394 . S
C1088 H1104 0.931 . S
C1089 C1088 1.391 . S
C1089 C1093 1.376 . S
C1090 C1088 1.394 . S
C1090 C1091 1.369 . S
C1090 C1094 1.531 . S
C1091 C1090 1.369 . S
C1091 C1092 1.410 . S
C1091 C1099 1.503 . S
C1092 C1091 1.410 . S
C1092 C1093 1.392 . S
C1092 C1095 1.511 . S
C1093 C1089 1.376 . S
C1093 C1092 1.392 . S
C1093 H1105 0.929 . S
C1094 C1090 1.531 . S
C1094 H1106 0.960 . S
C1094 H1107 0.962 . S
C1094 H1108 0.960 . S
C1095 C1092 1.511 . S
C1095 H1109 0.961 . S
C1095 H1110 0.961 . S
C1095 H1111 0.961 . S
C1096 C1097 1.370 . S
C1096 C1098 1.363 . S
C1096 H1112 0.931 . S
C1097 C1096 1.370 . S
C1097 C1101 1.408 . S
C1098 C1096 1.363 . S
C1098 C1099 1.370 . S
C1098 C1102 1.524 . S
C1099 C1091 1.503 . S
C1099 C1098 1.370 . S
C1099 C1100 1.403 . S
C1100 C1099 1.403 . S
C1100 C1101 1.404 . S
C1100 C1103 1.539 . S
C1101 C1097 1.408 . S
C1101 C1100 1.404 . S
C1101 H1113 0.930 . S
C1102 C1098 1.524 . S
C1102 H1114 0.956 . S
C1102 H1115 0.961 . S
C1102 H1116 0.961 . S
C1103 C1100 1.539 . S
C1103 H1117 0.958 . S
C1103 H1118 0.961 . S
C1103 H1119 0.960 . S
H1104 C1088 0.931 . S
H1105 C1093 0.929 . S
H1106 C1094 0.960 . S
H1107 C1094 0.962 . S
H1108 C1094 0.960 . S
H1109 C1095 0.961 . S
H1110 C1095 0.961 . S
H1111 C1095 0.961 . S
H1112 C1096 0.931 . S
H1113 C1101 0.930 . S
H1114 C1102 0.956 . S
H1115 C1102 0.961 . S
H1116 C1102 0.961 . S
H1117 C1103 0.958 . S
H1118 C1103 0.961 . S
H1119 C1103 0.960 . S
C1120 C1121 1.391 . S
C1120 C1122 1.394 . S
C1120 H1136 0.931 . S
C1121 C1120 1.391 . S
C1121 C1125 1.376 . S
C1122 C1120 1.394 . S
C1122 C1123 1.369 . S
C1122 C1126 1.531 . S
C1123 C1122 1.369 . S
C1123 C1124 1.410 . S
C1123 C1131 1.503 . S
C1124 C1123 1.410 . S
C1124 C1125 1.392 . S
C1124 C1127 1.511 . S
C1125 C1121 1.376 . S
C1125 C1124 1.392 . S
C1125 H1137 0.929 . S
C1126 C1122 1.531 . S
C1126 H1138 0.960 . S
C1126 H1139 0.962 . S
C1126 H1140 0.960 . S
C1127 C1124 1.511 . S
C1127 H1141 0.961 . S
C1127 H1142 0.961 . S
C1127 H1143 0.961 . S
C1128 C1129 1.370 . S
C1128 C1130 1.363 . S
C1128 H1144 0.931 . S
C1129 C1128 1.370 . S
C1129 C1133 1.408 . S
C1130 C1128 1.363 . S
C1130 C1131 1.370 . S
C1130 C1134 1.524 . S
C1131 C1123 1.503 . S
C1131 C1130 1.370 . S
C1131 C1132 1.403 . S
C1132 C1131 1.403 . S
C1132 C1133 1.404 . S
C1132 C1135 1.539 . S
C1133 C1129 1.408 . S
C1133 C1132 1.404 . S
C1133 H1145 0.930 . S
C1134 C1130 1.524 . S
C1134 H1146 0.956 . S
C1134 H1147 0.961 . S
C1134 H1148 0.961 . S
C1135 C1132 1.539 . S
C1135 H1149 0.958 . S
C1135 H1150 0.961 . S
C1135 H1151 0.960 . S
H1136 C1120 0.931 . S
H1137 C1125 0.929 . S
H1138 C1126 0.960 . S
H1139 C1126 0.962 . S
H1140 C1126 0.960 . S
H1141 C1127 0.961 . S
H1142 C1127 0.961 . S
H1143 C1127 0.961 . S
H1144 C1128 0.931 . S
H1145 C1133 0.930 . S
H1146 C1134 0.956 . S
H1147 C1134 0.961 . S
H1148 C1134 0.961 . S
H1149 C1135 0.958 . S
H1150 C1135 0.961 . S
H1151 C1135 0.960 . S
C1152 C1153 1.391 . S
C1152 C1154 1.394 . S
C1152 H1168 0.931 . S
C1153 C1152 1.391 . S
C1153 C1157 1.376 . S
C1154 C1152 1.394 . S
C1154 C1155 1.369 . S
C1154 C1158 1.531 1_455 S
C1155 C1154 1.369 . S
C1155 C1156 1.410 . S
C1155 C1163 1.503 . S
C1156 C1155 1.410 . S
C1156 C1157 1.392 . S
C1156 C1159 1.511 . S
C1157 C1153 1.376 . S
C1157 C1156 1.392 . S
C1157 H1169 0.929 . S
C1158 C1154 1.531 1_655 S
C1158 H1170 0.960 . S
C1158 H1171 0.962 . S
C1158 H1172 0.960 . S
C1159 C1156 1.511 . S
C1159 H1173 0.961 . S
C1159 H1174 0.961 . S
C1159 H1175 0.961 . S
C1160 C1161 1.370 . S
C1160 C1162 1.363 . S
C1160 H1176 0.931 . S
C1161 C1160 1.370 . S
C1161 C1165 1.408 . S
C1162 C1160 1.363 . S
C1162 C1163 1.370 . S
C1162 C1166 1.524 . S
C1163 C1155 1.503 . S
C1163 C1162 1.370 . S
C1163 C1164 1.403 . S
C1164 C1163 1.403 . S
C1164 C1165 1.404 . S
C1164 C1167 1.539 . S
C1165 C1161 1.408 . S
C1165 C1164 1.404 . S
C1165 H1177 0.930 . S
C1166 C1162 1.524 . S
C1166 H1178 0.956 . S
C1166 H1179 0.961 . S
C1166 H1180 0.961 . S
C1167 C1164 1.539 . S
C1167 H1181 0.958 1_455 S
C1167 H1182 0.961 . S
C1167 H1183 0.960 . S
H1168 C1152 0.931 . S
H1169 C1157 0.929 . S
H1170 C1158 0.960 . S
H1171 C1158 0.962 . S
H1172 C1158 0.960 . S
H1173 C1159 0.961 . S
H1174 C1159 0.961 . S
H1175 C1159 0.961 . S
H1176 C1160 0.931 . S
H1177 C1165 0.930 . S
H1178 C1166 0.956 . S
H1179 C1166 0.961 . S
H1180 C1166 0.961 . S
H1181 C1167 0.958 1_655 S
H1182 C1167 0.961 . S
H1183 C1167 0.960 . S
C1184 C1185 1.391 . S
C1184 C1186 1.394 . S
C1184 H1200 0.931 . S
C1185 C1184 1.391 . S
C1185 C1189 1.376 . S
C1186 C1184 1.394 . S
C1186 C1187 1.369 1_655 S
C1186 C1190 1.531 . S
C1187 C1186 1.369 1_455 S
C1187 C1188 1.410 1_455 S
C1187 C1195 1.503 . S
C1188 C1187 1.410 1_655 S
C1188 C1189 1.392 . S
C1188 C1191 1.511 1_655 S
C1189 C1185 1.376 . S
C1189 C1188 1.392 . S
C1189 H1201 0.929 . S
C1190 C1186 1.531 . S
C1190 H1202 0.960 1_655 S
C1190 H1203 0.962 . S
C1190 H1204 0.960 . S
C1191 C1188 1.511 1_455 S
C1191 H1205 0.961 . S
C1191 H1206 0.961 . S
C1191 H1207 0.961 . S
C1192 C1193 1.370 . S
C1192 C1194 1.363 . S
C1192 H1208 0.931 . S
C1193 C1192 1.370 . S
C1193 C1197 1.408 . S
C1194 C1192 1.363 . S
C1194 C1195 1.370 . S
C1194 C1198 1.524 1_455 S
C1195 C1187 1.503 . S
C1195 C1194 1.370 . S
C1195 C1196 1.403 . S
C1196 C1195 1.403 . S
C1196 C1197 1.404 . S
C1196 C1199 1.539 . S
C1197 C1193 1.408 . S
C1197 C1196 1.404 . S
C1197 H1209 0.930 . S
C1198 C1194 1.524 1_655 S
C1198 H1210 0.956 . S
C1198 H1211 0.961 . S
C1198 H1212 0.961 . S
C1199 C1196 1.539 . S
C1199 H1213 0.958 . S
C1199 H1214 0.961 . S
C1199 H1215 0.960 . S
H1200 C1184 0.931 . S
H1201 C1189 0.929 . S
H1202 C1190 0.960 1_455 S
H1203 C1190 0.962 . S
H1204 C1190 0.960 . S
H1205 C1191 0.961 . S
H1206 C1191 0.961 . S
H1207 C1191 0.961 . S
H1208 C1192 0.931 . S
H1209 C1197 0.930 . S
H1210 C1198 0.956 . S
H1211 C1198 0.961 . S
H1212 C1198 0.961 . S
H1213 C1199 0.958 . S
H1214 C1199 0.961 . S
H1215 C1199 0.960 . S
C1216 C1217 1.391 . S
C1216 C1218 1.394 . S
C1216 H1232 0.931 . S
C1217 C1216 1.391 . S
C1217 C1221 1.376 . S
C1218 C1216 1.394 . S
C1218 C1219 1.369 . S
C1218 C1222 1.531 . S
C1219 C1218 1.369 . S
C1219 C1220 1.410 . S
C1219 C1227 1.503 . S
C1220 C1219 1.410 . S
C1220 C1221 1.392 . S
C1220 C1223 1.511 . S
C1221 C1217 1.376 . S
C1221 C1220 1.392 . S
C1221 H1233 0.929 . S
C1222 C1218 1.531 . S
C1222 H1234 0.960 . S
C1222 H1235 0.962 . S
C1222 H1236 0.960 . S
C1223 C1220 1.511 . S
C1223 H1237 0.961 . S
C1223 H1238 0.961 . S
C1223 H1239 0.961 . S
C1224 C1225 1.370 . S
C1224 C1226 1.363 . S
C1224 H1240 0.931 . S
C1225 C1224 1.370 . S
C1225 C1229 1.408 . S
C1226 C1224 1.363 . S
C1226 C1227 1.370 . S
C1226 C1230 1.524 . S
C1227 C1219 1.503 . S
C1227 C1226 1.370 . S
C1227 C1228 1.403 . S
C1228 C1227 1.403 . S
C1228 C1229 1.404 . S
C1228 C1231 1.539 . S
C1229 C1225 1.408 . S
C1229 C1228 1.404 . S
C1229 H1241 0.930 . S
C1230 C1226 1.524 . S
C1230 H1242 0.956 . S
C1230 H1243 0.961 . S
C1230 H1244 0.961 . S
C1231 C1228 1.539 . S
C1231 H1245 0.958 . S
C1231 H1246 0.961 . S
C1231 H1247 0.960 . S
H1232 C1216 0.931 . S
H1233 C1221 0.929 . S
H1234 C1222 0.960 . S
H1235 C1222 0.962 . S
H1236 C1222 0.960 . S
H1237 C1223 0.961 . S
H1238 C1223 0.961 . S
H1239 C1223 0.961 . S
H1240 C1224 0.931 . S
H1241 C1229 0.930 . S
H1242 C1230 0.956 . S
H1243 C1230 0.961 . S
H1244 C1230 0.961 . S
H1245 C1231 0.958 . S
H1246 C1231 0.961 . S
H1247 C1231 0.960 . S
C1248 C1249 1.391 . S
C1248 C1250 1.394 . S
C1248 H1264 0.931 . S
C1249 C1248 1.391 . S
C1249 C1253 1.376 . S
C1250 C1248 1.394 . S
C1250 C1251 1.369 . S
C1250 C1254 1.531 . S
C1251 C1250 1.369 . S
C1251 C1252 1.410 . S
C1251 C1259 1.503 . S
C1252 C1251 1.410 . S
C1252 C1253 1.392 . S
C1252 C1255 1.511 . S
C1253 C1249 1.376 . S
C1253 C1252 1.392 . S
C1253 H1265 0.929 . S
C1254 C1250 1.531 . S
C1254 H1266 0.960 . S
C1254 H1267 0.962 . S
C1254 H1268 0.960 . S
C1255 C1252 1.511 . S
C1255 H1269 0.961 . S
C1255 H1270 0.961 . S
C1255 H1271 0.961 . S
C1256 C1257 1.370 . S
C1256 C1258 1.363 . S
C1256 H1272 0.931 . S
C1257 C1256 1.370 . S
C1257 C1261 1.408 . S
C1258 C1256 1.363 . S
C1258 C1259 1.370 . S
C1258 C1262 1.524 . S
C1259 C1251 1.503 . S
C1259 C1258 1.370 . S
C1259 C1260 1.403 . S
C1260 C1259 1.403 . S
C1260 C1261 1.404 . S
C1260 C1263 1.539 . S
C1261 C1257 1.408 . S
C1261 C1260 1.404 . S
C1261 H1273 0.930 . S
C1262 C1258 1.524 . S
C1262 H1274 0.956 . S
C1262 H1275 0.961 . S
C1262 H1276 0.961 . S
C1263 C1260 1.539 . S
C1263 H1277 0.958 . S
C1263 H1278 0.961 . S
C1263 H1279 0.960 . S
H1264 C1248 0.931 . S
H1265 C1253 0.929 . S
H1266 C1254 0.960 . S
H1267 C1254 0.962 . S
H1268 C1254 0.960 . S
H1269 C1255 0.961 . S
H1270 C1255 0.961 . S
H1271 C1255 0.961 . S
H1272 C1256 0.931 . S
H1273 C1261 0.930 . S
H1274 C1262 0.956 . S
H1275 C1262 0.961 . S
H1276 C1262 0.961 . S
H1277 C1263 0.958 . S
H1278 C1263 0.961 . S
H1279 C1263 0.960 . S
C1280 C1281 1.391 1_655 S
C1280 C1282 1.394 . S
C1280 H1296 0.931 . S
C1281 C1280 1.391 1_455 S
C1281 C1285 1.376 . S
C1282 C1280 1.394 . S
C1282 C1283 1.367 1_655 S
C1282 C1286 1.531 . S
C1283 C1282 1.367 1_455 S
C1283 C1284 1.411 . S
C1283 C1291 1.505 1_455 S
C1284 C1283 1.411 . S
C1284 C1285 1.392 . S
C1284 C1287 1.511 . S
C1285 C1281 1.376 . S
C1285 C1284 1.392 . S
C1285 H1297 0.929 . S
C1286 C1282 1.531 . S
C1286 H1298 0.960 . S
C1286 H1299 0.962 . S
C1286 H1300 0.960 . S
C1287 C1284 1.511 . S
C1287 H1301 0.961 . S
C1287 H1302 0.961 . S
C1287 H1303 0.961 . S
C1288 C1289 1.351 1_455 S
C1288 C1290 1.363 . S
C1288 H1304 0.931 . S
C1289 C1288 1.351 1_655 S
C1289 C1293 1.433 . S
C1290 C1288 1.363 . S
C1290 C1291 1.369 1_455 S
C1290 C1294 1.524 . S
C1291 C1283 1.505 1_655 S
C1291 C1290 1.369 1_655 S
C1291 C1292 1.403 . S
C1292 C1291 1.403 . S
C1292 C1293 1.404 . S
C1292 C1295 1.539 . S
C1293 C1289 1.433 . S
C1293 C1292 1.404 . S
C1293 H1305 0.930 . S
C1294 C1290 1.524 . S
C1294 H1306 0.956 . S
C1294 H1307 0.961 . S
C1294 H1308 0.961 . S
C1295 C1292 1.539 . S
C1295 H1309 0.958 . S
C1295 H1310 0.961 . S
C1295 H1311 0.960 . S
H1296 C1280 0.931 . S
H1297 C1285 0.929 . S
H1298 C1286 0.960 . S
H1299 C1286 0.962 . S
H1300 C1286 0.960 . S
H1301 C1287 0.961 . S
H1302 C1287 0.961 . S
H1303 C1287 0.961 . S
H1304 C1288 0.931 . S
H1305 C1293 0.930 . S
H1306 C1294 0.956 . S
H1307 C1294 0.961 . S
H1308 C1294 0.961 . S
H1309 C1295 0.958 . S
H1310 C1295 0.961 . S
H1311 C1295 0.960 . S
C1312 C1313 1.391 . S
C1312 C1314 1.394 . S
C1312 H1328 0.931 . S
C1313 C1312 1.391 . S
C1313 C1317 1.376 . S
C1314 C1312 1.394 . S
C1314 C1315 1.369 . S
C1314 C1318 1.531 . S
C1315 C1314 1.369 . S
C1315 C1316 1.410 . S
C1315 C1323 1.503 . S
C1316 C1315 1.410 . S
C1316 C1317 1.392 . S
C1316 C1319 1.511 . S
C1317 C1313 1.376 . S
C1317 C1316 1.392 . S
C1317 H1329 0.929 . S
C1318 C1314 1.531 . S
C1318 H1330 0.960 . S
C1318 H1331 0.962 . S
C1318 H1332 0.960 . S
C1319 C1316 1.511 . S
C1319 H1333 0.961 . S
C1319 H1334 0.961 . S
C1319 H1335 0.961 . S
C1320 C1321 1.370 . S
C1320 C1322 1.363 . S
C1320 H1336 0.931 . S
C1321 C1320 1.370 . S
C1321 C1325 1.408 . S
C1322 C1320 1.363 . S
C1322 C1323 1.370 . S
C1322 C1326 1.524 . S
C1323 C1315 1.503 . S
C1323 C1322 1.370 . S
C1323 C1324 1.403 . S
C1324 C1323 1.403 . S
C1324 C1325 1.404 . S
C1324 C1327 1.539 . S
C1325 C1321 1.408 . S
C1325 C1324 1.404 . S
C1325 H1337 0.930 . S
C1326 C1322 1.524 . S
C1326 H1338 0.956 . S
C1326 H1339 0.961 . S
C1326 H1340 0.961 . S
C1327 C1324 1.539 . S
C1327 H1341 0.958 . S
C1327 H1342 0.961 . S
C1327 H1343 0.960 . S
H1328 C1312 0.931 . S
H1329 C1317 0.929 . S
H1330 C1318 0.960 . S
H1331 C1318 0.962 . S
H1332 C1318 0.960 . S
H1333 C1319 0.961 . S
H1334 C1319 0.961 . S
H1335 C1319 0.961 . S
H1336 C1320 0.931 . S
H1337 C1325 0.930 . S
H1338 C1326 0.956 . S
H1339 C1326 0.961 . S
H1340 C1326 0.961 . S
H1341 C1327 0.958 . S
H1342 C1327 0.961 . S
H1343 C1327 0.960 . S
C1344 C1345 1.391 . S
C1344 C1346 1.394 . S
C1344 H1360 0.931 . S
C1345 C1344 1.391 . S
C1345 C1349 1.376 . S
C1346 C1344 1.394 . S
C1346 C1347 1.369 . S
C1346 C1350 1.531 . S
C1347 C1346 1.369 . S
C1347 C1348 1.410 . S
C1347 C1355 1.503 . S
C1348 C1347 1.410 . S
C1348 C1349 1.392 . S
C1348 C1351 1.511 . S
C1349 C1345 1.376 . S
C1349 C1348 1.392 . S
C1349 H1361 0.929 . S
C1350 C1346 1.531 . S
C1350 H1362 0.960 . S
C1350 H1363 0.962 . S
C1350 H1364 0.960 . S
C1351 C1348 1.511 . S
C1351 H1365 0.961 . S
C1351 H1366 0.961 . S
C1351 H1367 0.961 . S
C1352 C1353 1.370 . S
C1352 C1354 1.363 . S
C1352 H1368 0.931 . S
C1353 C1352 1.370 . S
C1353 C1357 1.408 . S
C1354 C1352 1.363 . S
C1354 C1355 1.370 . S
C1354 C1358 1.524 . S
C1355 C1347 1.503 . S
C1355 C1354 1.370 . S
C1355 C1356 1.403 . S
C1356 C1355 1.403 . S
C1356 C1357 1.404 . S
C1356 C1359 1.539 . S
C1357 C1353 1.408 . S
C1357 C1356 1.404 . S
C1357 H1369 0.930 . S
C1358 C1354 1.524 . S
C1358 H1370 0.956 . S
C1358 H1371 0.961 . S
C1358 H1372 0.961 . S
C1359 C1356 1.539 . S
C1359 H1373 0.958 . S
C1359 H1374 0.961 . S
C1359 H1375 0.960 . S
H1360 C1344 0.931 . S
H1361 C1349 0.929 . S
H1362 C1350 0.960 . S
H1363 C1350 0.962 . S
H1364 C1350 0.960 . S
H1365 C1351 0.961 . S
H1366 C1351 0.961 . S
H1367 C1351 0.961 . S
H1368 C1352 0.931 . S
H1369 C1357 0.930 . S
H1370 C1358 0.956 . S
H1371 C1358 0.961 . S
H1372 C1358 0.961 . S
H1373 C1359 0.958 . S
H1374 C1359 0.961 . S
H1375 C1359 0.960 . S
C1376 C1377 1.391 . S
C1376 C1378 1.394 . S
C1376 H1392 0.931 . S
C1377 C1376 1.391 . S
C1377 C1381 1.376 . S
C1378 C1376 1.394 . S
C1378 C1379 1.369 . S
C1378 C1382 1.531 . S
C1379 C1378 1.369 . S
C1379 C1380 1.410 . S
C1379 C1387 1.503 . S
C1380 C1379 1.410 . S
C1380 C1381 1.392 . S
C1380 C1383 1.511 . S
C1381 C1377 1.376 . S
C1381 C1380 1.392 . S
C1381 H1393 0.929 . S
C1382 C1378 1.531 . S
C1382 H1394 0.960 . S
C1382 H1395 0.962 . S
C1382 H1396 0.960 . S
C1383 C1380 1.511 . S
C1383 H1397 0.961 . S
C1383 H1398 0.961 . S
C1383 H1399 0.961 . S
C1384 C1385 1.370 . S
C1384 C1386 1.363 . S
C1384 H1400 0.931 . S
C1385 C1384 1.370 . S
C1385 C1389 1.408 . S
C1386 C1384 1.363 . S
C1386 C1387 1.370 1_655 S
C1386 C1390 1.524 . S
C1387 C1379 1.503 . S
C1387 C1386 1.370 1_455 S
C1387 C1388 1.403 . S
C1388 C1387 1.403 . S
C1388 C1389 1.404 1_455 S
C1388 C1391 1.539 . S
C1389 C1385 1.408 . S
C1389 C1388 1.404 1_655 S
C1389 H1401 0.930 . S
C1390 C1386 1.524 . S
C1390 H1402 0.956 . S
C1390 H1403 0.961 1_655 S
C1390 H1404 0.961 . S
C1391 C1388 1.539 . S
C1391 H1405 0.958 . S
C1391 H1406 0.961 . S
C1391 H1407 0.960 . S
H1392 C1376 0.931 . S
H1393 C1381 0.929 . S
H1394 C1382 0.960 . S
H1395 C1382 0.962 . S
H1396 C1382 0.960 . S
H1397 C1383 0.961 . S
H1398 C1383 0.961 . S
H1399 C1383 0.961 . S
H1400 C1384 0.931 . S
H1401 C1389 0.930 . S
H1402 C1390 0.956 . S
H1403 C1390 0.961 1_455 S
H1404 C1390 0.961 . S
H1405 C1391 0.958 . S
H1406 C1391 0.961 . S
H1407 C1391 0.960 . S
C1408 C1409 1.391 . S
C1408 C1410 1.394 . S
C1408 H1424 0.931 . S
C1409 C1408 1.391 . S
C1409 C1413 1.376 1_455 S
C1410 C1408 1.394 . S
C1410 C1411 1.369 . S
C1410 C1414 1.531 1_545 S
C1411 C1410 1.369 . S
C1411 C1412 1.410 1_455 S
C1411 C1419 1.503 1_544 S
C1412 C1411 1.410 1_655 S
C1412 C1413 1.392 . S
C1412 C1415 1.511 . S
C1413 C1409 1.376 1_655 S
C1413 C1412 1.392 . S
C1413 H1425 0.929 . S
C1414 C1410 1.531 1_565 S
C1414 H1426 0.960 . S
C1414 H1427 0.954 1_565 S
C1414 H1428 0.960 . S
C1415 C1412 1.511 . S
C1415 H1429 0.961 . S
C1415 H1430 0.961 1_554 S
C1415 H1431 0.945 1_545 S
C1416 C1417 1.370 . S
C1416 C1418 1.347 1_565 S
C1416 H1432 0.931 . S
C1417 C1416 1.370 . S
C1417 C1421 1.408 . S
C1418 C1416 1.347 1_545 S
C1418 C1419 1.357 1_545 S
C1418 C1422 1.554 . S
C1419 C1411 1.503 1_566 S
C1419 C1418 1.357 1_565 S
C1419 C1420 1.403 . S
C1420 C1419 1.403 . S
C1420 C1421 1.404 . S
C1420 C1423 1.539 1_456 S
C1421 C1417 1.408 . S
C1421 C1420 1.404 . S
C1421 H1433 0.930 1_455 S
C1422 C1418 1.554 . S
C1422 H1434 0.956 . S
C1422 H1435 0.961 . S
C1422 H1436 0.961 . S
C1423 C1420 1.539 1_654 S
C1423 H1437 0.958 1_655 S
C1423 H1438 0.961 . S
C1423 H1439 0.960 . S
H1424 C1408 0.931 . S
H1425 C1413 0.929 . S
H1426 C1414 0.960 . S
H1427 C1414 0.954 1_545 S
H1428 C1414 0.960 . S
H1429 C1415 0.961 . S
H1430 C1415 0.961 1_556 S
H1431 C1415 0.945 1_565 S
H1432 C1416 0.931 . S
H1433 C1421 0.930 1_655 S
H1434 C1422 0.956 . S
H1435 C1422 0.961 . S
H1436 C1422 0.961 . S
H1437 C1423 0.958 1_455 S
H1438 C1423 0.961 . S
H1439 C1423 0.960 . S
C1440 C1441 1.391 . S
C1440 C1442 1.394 . S
C1440 H1456 0.931 . S
C1441 C1440 1.391 . S
C1441 C1445 1.376 . S
C1442 C1440 1.394 . S
C1442 C1443 1.369 . S
C1442 C1446 1.531 . S
C1443 C1442 1.369 . S
C1443 C1444 1.410 . S
C1443 C1451 1.503 . S
C1444 C1443 1.410 . S
C1444 C1445 1.392 . S
C1444 C1447 1.511 . S
C1445 C1441 1.376 . S
C1445 C1444 1.392 . S
C1445 H1457 0.929 . S
C1446 C1442 1.531 . S
C1446 H1458 0.960 . S
C1446 H1459 0.962 . S
C1446 H1460 0.960 . S
C1447 C1444 1.511 . S
C1447 H1461 0.961 . S
C1447 H1462 0.961 . S
C1447 H1463 0.961 . S
C1448 C1449 1.370 . S
C1448 C1450 1.363 . S
C1448 H1464 0.931 . S
C1449 C1448 1.370 . S
C1449 C1453 1.408 . S
C1450 C1448 1.363 . S
C1450 C1451 1.370 . S
C1450 C1454 1.524 . S
C1451 C1443 1.503 . S
C1451 C1450 1.370 . S
C1451 C1452 1.403 . S
C1452 C1451 1.403 . S
C1452 C1453 1.404 . S
C1452 C1455 1.539 . S
C1453 C1449 1.408 . S
C1453 C1452 1.404 . S
C1453 H1465 0.930 . S
C1454 C1450 1.524 . S
C1454 H1466 0.956 . S
C1454 H1467 0.961 . S
C1454 H1468 0.961 . S
C1455 C1452 1.539 . S
C1455 H1469 0.958 . S
C1455 H1470 0.961 . S
C1455 H1471 0.960 . S
H1456 C1440 0.931 . S
H1457 C1445 0.929 . S
H1458 C1446 0.960 . S
H1459 C1446 0.962 . S
H1460 C1446 0.960 . S
H1461 C1447 0.961 . S
H1462 C1447 0.961 . S
H1463 C1447 0.961 . S
H1464 C1448 0.931 . S
H1465 C1453 0.930 . S
H1466 C1454 0.956 . S
H1467 C1454 0.961 . S
H1468 C1454 0.961 . S
H1469 C1455 0.958 . S
H1470 C1455 0.961 . S
H1471 C1455 0.960 . S
C1472 C1473 1.391 . S
C1472 C1474 1.394 . S
C1472 H1488 0.931 . S
C1473 C1472 1.391 . S
C1473 C1477 1.376 . S
C1474 C1472 1.394 . S
C1474 C1475 1.369 . S
C1474 C1478 1.531 . S
C1475 C1474 1.369 . S
C1475 C1476 1.410 . S
C1475 C1483 1.503 1_545 S
C1476 C1475 1.410 . S
C1476 C1477 1.392 . S
C1476 C1479 1.511 1_545 S
C1477 C1473 1.376 . S
C1477 C1476 1.392 . S
C1477 H1489 0.929 . S
C1478 C1474 1.531 . S
C1478 H1490 0.960 . S
C1478 H1491 0.962 . S
C1478 H1492 0.960 . S
C1479 C1476 1.511 1_565 S
C1479 H1493 0.961 . S
C1479 H1494 0.961 . S
C1479 H1495 0.961 1_565 S
C1480 C1481 1.370 . S
C1480 C1482 1.363 . S
C1480 H1496 0.931 . S
C1481 C1480 1.370 . S
C1481 C1485 1.408 . S
C1482 C1480 1.363 . S
C1482 C1483 1.370 . S
C1482 C1486 1.524 . S
C1483 C1475 1.503 1_565 S
C1483 C1482 1.370 . S
C1483 C1484 1.403 1_565 S
C1484 C1483 1.403 1_545 S
C1484 C1485 1.404 1_545 S
C1484 C1487 1.539 . S
C1485 C1481 1.408 . S
C1485 C1484 1.404 1_565 S
C1485 H1497 0.930 1_565 S
C1486 C1482 1.524 . S
C1486 H1498 0.956 . S
C1486 H1499 0.961 . S
C1486 H1500 0.961 . S
C1487 C1484 1.539 . S
C1487 H1501 0.958 . S
C1487 H1502 0.961 . S
C1487 H1503 0.960 . S
H1488 C1472 0.931 . S
H1489 C1477 0.929 . S
H1490 C1478 0.960 . S
H1491 C1478 0.962 . S
H1492 C1478 0.960 . S
H1493 C1479 0.961 . S
H1494 C1479 0.961 . S
H1495 C1479 0.961 1_545 S
H1496 C1480 0.931 . S
H1497 C1485 0.930 1_545 S
H1498 C1486 0.956 . S
H1499 C1486 0.961 . S
H1500 C1486 0.961 . S
H1501 C1487 0.958 . S
H1502 C1487 0.961 . S
H1503 C1487 0.960 . S
C1504 C1505 1.391 . S
C1504 C1506 1.394 . S
C1504 H1520 0.931 . S
C1505 C1504 1.391 . S
C1505 C1509 1.376 . S
C1506 C1504 1.394 . S
C1506 C1507 1.369 . S
C1506 C1510 1.531 . S
C1507 C1506 1.369 . S
C1507 C1508 1.410 . S
C1507 C1515 1.503 . S
C1508 C1507 1.410 . S
C1508 C1509 1.392 . S
C1508 C1511 1.511 . S
C1509 C1505 1.376 . S
C1509 C1508 1.392 . S
C1509 H1521 0.929 . S
C1510 C1506 1.531 . S
C1510 H1522 0.960 . S
C1510 H1523 0.962 . S
C1510 H1524 0.960 . S
C1511 C1508 1.511 . S
C1511 H1525 0.961 . S
C1511 H1526 0.961 . S
C1511 H1527 0.961 . S
C1512 C1513 1.370 . S
C1512 C1514 1.363 . S
C1512 H1528 0.931 . S
C1513 C1512 1.370 . S
C1513 C1517 1.408 . S
C1514 C1512 1.363 . S
C1514 C1515 1.370 . S
C1514 C1518 1.524 . S
C1515 C1507 1.503 . S
C1515 C1514 1.370 . S
C1515 C1516 1.403 . S
C1516 C1515 1.403 . S
C1516 C1517 1.404 . S
C1516 C1519 1.539 . S
C1517 C1513 1.408 . S
C1517 C1516 1.404 . S
C1517 H1529 0.930 . S
C1518 C1514 1.524 . S
C1518 H1530 0.956 . S
C1518 H1531 0.961 . S
C1518 H1532 0.961 . S
C1519 C1516 1.539 . S
C1519 H1533 0.958 . S
C1519 H1534 0.961 . S
C1519 H1535 0.960 . S
H1520 C1504 0.931 . S
H1521 C1509 0.929 . S
H1522 C1510 0.960 . S
H1523 C1510 0.962 . S
H1524 C1510 0.960 . S
H1525 C1511 0.961 . S
H1526 C1511 0.961 . S
H1527 C1511 0.961 . S
H1528 C1512 0.931 . S
H1529 C1517 0.930 . S
H1530 C1518 0.956 . S
H1531 C1518 0.961 . S
H1532 C1518 0.961 . S
H1533 C1519 0.958 . S
H1534 C1519 0.961 . S
H1535 C1519 0.960 . S
C1536 C1537 1.391 . S
C1536 C1538 1.394 . S
C1536 H1552 0.931 . S
C1537 C1536 1.391 . S
C1537 C1541 1.376 . S
C1538 C1536 1.394 . S
C1538 C1539 1.369 . S
C1538 C1542 1.531 . S
C1539 C1538 1.369 . S
C1539 C1540 1.410 . S
C1539 C1547 1.503 . S
C1540 C1539 1.410 . S
C1540 C1541 1.392 . S
C1540 C1543 1.511 . S
C1541 C1537 1.376 . S
C1541 C1540 1.392 . S
C1541 H1553 0.929 . S
C1542 C1538 1.531 . S
C1542 H1554 0.960 . S
C1542 H1555 0.962 . S
C1542 H1556 0.960 . S
C1543 C1540 1.511 . S
C1543 H1557 0.961 . S
C1543 H1558 0.961 . S
C1543 H1559 0.961 . S
C1544 C1545 1.370 . S
C1544 C1546 1.363 . S
C1544 H1560 0.931 . S
C1545 C1544 1.370 . S
C1545 C1549 1.408 . S
C1546 C1544 1.363 . S
C1546 C1547 1.370 . S
C1546 C1550 1.524 . S
C1547 C1539 1.503 . S
C1547 C1546 1.370 . S
C1547 C1548 1.403 . S
C1548 C1547 1.403 . S
C1548 C1549 1.404 . S
C1548 C1551 1.539 . S
C1549 C1545 1.408 . S
C1549 C1548 1.404 . S
C1549 H1561 0.930 . S
C1550 C1546 1.524 . S
C1550 H1562 0.956 . S
C1550 H1563 0.961 . S
C1550 H1564 0.961 . S
C1551 C1548 1.539 . S
C1551 H1565 0.958 . S
C1551 H1566 0.961 . S
C1551 H1567 0.960 . S
H1552 C1536 0.931 . S
H1553 C1541 0.929 . S
H1554 C1542 0.960 . S
H1555 C1542 0.962 . S
H1556 C1542 0.960 . S
H1557 C1543 0.961 . S
H1558 C1543 0.961 . S
H1559 C1543 0.961 . S
H1560 C1544 0.931 . S
H1561 C1549 0.930 . S
H1562 C1550 0.956 . S
H1563 C1550 0.961 . S
H1564 C1550 0.961 . S
H1565 C1551 0.958 . S
H1566 C1551 0.961 . S
H1567 C1551 0.960 . S
C1568 C1569 1.391 . S
C1568 C1570 1.394 . S
C1568 H1584 0.931 . S
C1569 C1568 1.391 . S
C1569 C1573 1.376 . S
C1570 C1568 1.394 . S
C1570 C1571 1.369 . S
C1570 C1574 1.531 . S
C1571 C1570 1.369 . S
C1571 C1572 1.410 . S
C1571 C1579 1.503 . S
C1572 C1571 1.410 . S
C1572 C1573 1.392 . S
C1572 C1575 1.511 . S
C1573 C1569 1.376 . S
C1573 C1572 1.392 . S
C1573 H1585 0.929 . S
C1574 C1570 1.531 . S
C1574 H1586 0.960 . S
C1574 H1587 0.962 . S
C1574 H1588 0.960 . S
C1575 C1572 1.511 . S
C1575 H1589 0.961 . S
C1575 H1590 0.961 . S
C1575 H1591 0.961 . S
C1576 C1577 1.370 . S
C1576 C1578 1.363 . S
C1576 H1592 0.931 . S
C1577 C1576 1.370 . S
C1577 C1581 1.408 . S
C1578 C1576 1.363 . S
C1578 C1579 1.370 . S
C1578 C1582 1.524 . S
C1579 C1571 1.503 . S
C1579 C1578 1.370 . S
C1579 C1580 1.403 . S
C1580 C1579 1.403 . S
C1580 C1581 1.404 . S
C1580 C1583 1.539 . S
C1581 C1577 1.408 . S
C1581 C1580 1.404 . S
C1581 H1593 0.930 . S
C1582 C1578 1.524 . S
C1582 H1594 0.956 . S
C1582 H1595 0.961 . S
C1582 H1596 0.961 . S
C1583 C1580 1.539 . S
C1583 H1597 0.958 . S
C1583 H1598 0.961 . S
C1583 H1599 0.960 . S
H1584 C1568 0.931 . S
H1585 C1573 0.929 . S
H1586 C1574 0.960 . S
H1587 C1574 0.962 . S
H1588 C1574 0.960 . S
H1589 C1575 0.961 . S
H1590 C1575 0.961 . S
H1591 C1575 0.961 . S
H1592 C1576 0.931 . S
H1593 C1581 0.930 . S
H1594 C1582 0.956 . S
H1595 C1582 0.961 . S
H1596 C1582 0.961 . S
H1597 C1583 0.958 . S
H1598 C1583 0.961 . S
H1599 C1583 0.960 . S
C1600 C1601 1.391 . S
C1600 C1602 1.394 . S
C1600 H1616 0.931 . S
C1601 C1600 1.391 . S
C1601 C1605 1.376 . S
C1602 C1600 1.394 . S
C1602 C1603 1.369 . S
C1602 C1606 1.531 . S
C1603 C1602 1.369 . S
C1603 C1604 1.410 . S
C1603 C1611 1.503 . S
C1604 C1603 1.410 . S
C1604 C1605 1.392 . S
C1604 C1607 1.511 . S
C1605 C1601 1.376 . S
C1605 C1604 1.392 . S
C1605 H1617 0.929 . S
C1606 C1602 1.531 . S
C1606 H1618 0.960 . S
C1606 H1619 0.962 . S
C1606 H1620 0.960 . S
C1607 C1604 1.511 . S
C1607 H1621 0.961 . S
C1607 H1622 0.961 . S
C1607 H1623 0.961 . S
C1608 C1609 1.370 . S
C1608 C1610 1.363 . S
C1608 H1624 0.931 . S
C1609 C1608 1.370 . S
C1609 C1613 1.408 . S
C1610 C1608 1.363 . S
C1610 C1611 1.370 . S
C1610 C1614 1.524 . S
C1611 C1603 1.503 . S
C1611 C1610 1.370 . S
C1611 C1612 1.403 . S
C1612 C1611 1.403 . S
C1612 C1613 1.404 . S
C1612 C1615 1.539 . S
C1613 C1609 1.408 . S
C1613 C1612 1.404 . S
C1613 H1625 0.930 . S
C1614 C1610 1.524 . S
C1614 H1626 0.956 . S
C1614 H1627 0.961 . S
C1614 H1628 0.961 . S
C1615 C1612 1.539 . S
C1615 H1629 0.958 . S
C1615 H1630 0.961 . S
C1615 H1631 0.960 . S
H1616 C1600 0.931 . S
H1617 C1605 0.929 . S
H1618 C1606 0.960 . S
H1619 C1606 0.962 . S
H1620 C1606 0.960 . S
H1621 C1607 0.961 . S
H1622 C1607 0.961 . S
H1623 C1607 0.961 . S
H1624 C1608 0.931 . S
H1625 C1613 0.930 . S
H1626 C1614 0.956 . S
H1627 C1614 0.961 . S
H1628 C1614 0.961 . S
H1629 C1615 0.958 . S
H1630 C1615 0.961 . S
H1631 C1615 0.960 . S
C1632 C1633 1.391 . S
C1632 C1634 1.394 . S
C1632 H1648 0.931 . S
C1633 C1632 1.391 . S
C1633 C1637 1.376 1_455 S
C1634 C1632 1.394 . S
C1634 C1635 1.369 . S
C1634 C1638 1.531 . S
C1635 C1634 1.369 . S
C1635 C1636 1.410 1_455 S
C1635 C1643 1.503 1_556 S
C1636 C1635 1.410 1_655 S
C1636 C1637 1.392 . S
C1636 C1639 1.505 1_556 S
C1637 C1633 1.376 1_655 S
C1637 C1636 1.392 . S
C1637 H1649 0.929 . S
C1638 C1634 1.531 . S
C1638 H1650 0.960 1_556 S
C1638 H1651 0.962 . S
C1638 H1652 0.960 . S
C1639 C1636 1.505 1_554 S
C1639 H1653 0.949 1_554 S
C1639 H1654 0.970 . S
C1639 H1655 0.970 . S
C1640 C1641 1.370 . S
C1640 C1642 1.363 . S
C1640 H1656 0.931 . S
C1641 C1640 1.370 . S
C1641 C1645 1.408 . S
C1642 C1640 1.363 . S
C1642 C1643 1.370 . S
C1642 C1646 1.524 1_554 S
C1643 C1635 1.503 1_554 S
C1643 C1642 1.370 . S
C1643 C1644 1.403 . S
C1644 C1643 1.403 . S
C1644 C1645 1.404 . S
C1644 C1647 1.539 . S
C1645 C1641 1.408 . S
C1645 C1644 1.404 . S
C1645 H1657 0.930 . S
C1646 C1642 1.524 1_556 S
C1646 H1658 0.956 . S
C1646 H1659 0.961 . S
C1646 H1660 0.961 . S
C1647 C1644 1.539 . S
C1647 H1661 0.958 . S
C1647 H1662 0.961 1_455 S
C1647 H1663 0.960 1_455 S
H1648 C1632 0.931 . S
H1649 C1637 0.929 . S
H1650 C1638 0.960 1_554 S
H1651 C1638 0.962 . S
H1652 C1638 0.960 . S
H1653 C1639 0.949 1_556 S
H1654 C1639 0.970 . S
H1655 C1639 0.970 . S
H1656 C1640 0.931 . S
H1657 C1645 0.930 . S
H1658 C1646 0.956 . S
H1659 C1646 0.961 . S
H1660 C1646 0.961 . S
H1661 C1647 0.958 . S
H1662 C1647 0.961 1_655 S
H1663 C1647 0.960 1_655 S
C1664 C1665 1.391 . S
C1664 C1666 1.394 . S
C1664 H1680 0.931 . S
C1665 C1664 1.391 . S
C1665 C1669 1.376 . S
C1666 C1664 1.394 . S
C1666 C1667 1.369 . S
C1666 C1670 1.531 . S
C1667 C1666 1.369 . S
C1667 C1668 1.410 . S
C1667 C1675 1.503 . S
C1668 C1667 1.410 . S
C1668 C1669 1.392 . S
C1668 C1671 1.511 . S
C1669 C1665 1.376 . S
C1669 C1668 1.392 . S
C1669 H1681 0.929 . S
C1670 C1666 1.531 . S
C1670 H1682 0.960 . S
C1670 H1683 0.962 . S
C1670 H1684 0.960 . S
C1671 C1668 1.511 . S
C1671 H1685 0.961 . S
C1671 H1686 0.961 . S
C1671 H1687 0.961 . S
C1672 C1673 1.370 . S
C1672 C1674 1.363 . S
C1672 H1688 0.931 . S
C1673 C1672 1.370 . S
C1673 C1677 1.408 . S
C1674 C1672 1.363 . S
C1674 C1675 1.370 . S
C1674 C1678 1.524 . S
C1675 C1667 1.503 . S
C1675 C1674 1.370 . S
C1675 C1676 1.403 . S
C1676 C1675 1.403 . S
C1676 C1677 1.404 . S
C1676 C1679 1.539 . S
C1677 C1673 1.408 . S
C1677 C1676 1.404 . S
C1677 H1689 0.930 . S
C1678 C1674 1.524 . S
C1678 H1690 0.956 . S
C1678 H1691 0.961 . S
C1678 H1692 0.961 . S
C1679 C1676 1.539 . S
C1679 H1693 0.958 . S
C1679 H1694 0.961 . S
C1679 H1695 0.960 . S
H1680 C1664 0.931 . S
H1681 C1669 0.929 . S
H1682 C1670 0.960 . S
H1683 C1670 0.962 . S
H1684 C1670 0.960 . S
H1685 C1671 0.961 . S
H1686 C1671 0.961 . S
H1687 C1671 0.961 . S
H1688 C1672 0.931 . S
H1689 C1677 0.930 . S
H1690 C1678 0.956 . S
H1691 C1678 0.961 . S
H1692 C1678 0.961 . S
H1693 C1679 0.958 . S
H1694 C1679 0.961 . S
H1695 C1679 0.960 . S
C1696 C1697 1.391 . S
C1696 C1698 1.394 . S
C1696 H1712 0.931 . S
C1697 C1696 1.391 . S
C1697 C1701 1.376 . S
C1698 C1696 1.394 . S
C1698 C1699 1.369 . S
C1698 C1702 1.531 . S
C1699 C1698 1.369 . S
C1699 C1700 1.410 . S
C1699 C1707 1.503 . S
C1700 C1699 1.410 . S
C1700 C1701 1.392 . S
C1700 C1703 1.511 . S
C1701 C1697 1.376 . S
C1701 C1700 1.392 . S
C1701 H1713 0.929 . S
C1702 C1698 1.531 . S
C1702 H1714 0.960 . S
C1702 H1715 0.962 . S
C1702 H1716 0.960 . S
C1703 C1700 1.511 . S
C1703 H1717 0.961 . S
C1703 H1718 0.961 . S
C1703 H1719 0.961 . S
C1704 C1705 1.370 . S
C1704 C1706 1.363 . S
C1704 H1720 0.931 . S
C1705 C1704 1.370 . S
C1705 C1709 1.408 . S
C1706 C1704 1.363 . S
C1706 C1707 1.370 . S
C1706 C1710 1.524 . S
C1707 C1699 1.503 . S
C1707 C1706 1.370 . S
C1707 C1708 1.403 . S
C1708 C1707 1.403 . S
C1708 C1709 1.404 . S
C1708 C1711 1.539 . S
C1709 C1705 1.408 . S
C1709 C1708 1.404 . S
C1709 H1721 0.930 . S
C1710 C1706 1.524 . S
C1710 H1722 0.956 . S
C1710 H1723 0.961 . S
C1710 H1724 0.961 . S
C1711 C1708 1.539 . S
C1711 H1725 0.958 . S
C1711 H1726 0.961 . S
C1711 H1727 0.960 . S
H1712 C1696 0.931 . S
H1713 C1701 0.929 . S
H1714 C1702 0.960 . S
H1715 C1702 0.962 . S
H1716 C1702 0.960 . S
H1717 C1703 0.961 . S
H1718 C1703 0.961 . S
H1719 C1703 0.961 . S
H1720 C1704 0.931 . S
H1721 C1709 0.930 . S
H1722 C1710 0.956 . S
H1723 C1710 0.961 . S
H1724 C1710 0.961 . S
H1725 C1711 0.958 . S
H1726 C1711 0.961 . S
H1727 C1711 0.960 . S
C1728 C1729 1.391 . S
C1728 C1730 1.394 . S
C1728 H1744 0.931 . S
C1729 C1728 1.391 . S
C1729 C1733 1.376 . S
C1730 C1728 1.394 . S
C1730 C1731 1.369 . S
C1730 C1734 1.531 . S
C1731 C1730 1.369 . S
C1731 C1732 1.410 . S
C1731 C1739 1.503 . S
C1732 C1731 1.410 . S
C1732 C1733 1.392 . S
C1732 C1735 1.511 . S
C1733 C1729 1.376 . S
C1733 C1732 1.392 . S
C1733 H1745 0.929 . S
C1734 C1730 1.531 . S
C1734 H1746 0.960 . S
C1734 H1747 0.962 . S
C1734 H1748 0.960 . S
C1735 C1732 1.511 . S
C1735 H1749 0.961 . S
C1735 H1750 0.961 . S
C1735 H1751 0.961 . S
C1736 C1737 1.370 . S
C1736 C1738 1.363 . S
C1736 H1752 0.931 . S
C1737 C1736 1.370 . S
C1737 C1741 1.408 . S
C1738 C1736 1.363 . S
C1738 C1739 1.370 . S
C1738 C1742 1.524 . S
C1739 C1731 1.503 . S
C1739 C1738 1.370 . S
C1739 C1740 1.403 . S
C1740 C1739 1.403 . S
C1740 C1741 1.404 . S
C1740 C1743 1.539 . S
C1741 C1737 1.408 . S
C1741 C1740 1.404 . S
C1741 H1753 0.930 . S
C1742 C1738 1.524 . S
C1742 H1754 0.956 . S
C1742 H1755 0.961 . S
C1742 H1756 0.961 . S
C1743 C1740 1.539 . S
C1743 H1757 0.958 . S
C1743 H1758 0.961 . S
C1743 H1759 0.960 . S
H1744 C1728 0.931 . S
H1745 C1733 0.929 . S
H1746 C1734 0.960 . S
H1747 C1734 0.962 . S
H1748 C1734 0.960 . S
H1749 C1735 0.961 . S
H1750 C1735 0.961 . S
H1751 C1735 0.961 . S
H1752 C1736 0.931 . S
H1753 C1741 0.930 . S
H1754 C1742 0.956 . S
H1755 C1742 0.961 . S
H1756 C1742 0.961 . S
H1757 C1743 0.958 . S
H1758 C1743 0.961 . S
H1759 C1743 0.960 . S
C1760 C1761 1.391 . S
C1760 C1762 1.394 . S
C1760 H1776 0.931 . S
C1761 C1760 1.391 . S
C1761 C1765 1.376 . S
C1762 C1760 1.394 . S
C1762 C1763 1.369 . S
C1762 C1766 1.531 . S
C1763 C1762 1.369 . S
C1763 C1764 1.410 . S
C1763 C1771 1.503 . S
C1764 C1763 1.410 . S
C1764 C1765 1.392 . S
C1764 C1767 1.511 . S
C1765 C1761 1.376 . S
C1765 C1764 1.392 . S
C1765 H1777 0.929 . S
C1766 C1762 1.531 . S
C1766 H1778 0.960 . S
C1766 H1779 0.962 . S
C1766 H1780 0.960 . S
C1767 C1764 1.511 . S
C1767 H1781 0.961 . S
C1767 H1782 0.961 . S
C1767 H1783 0.961 . S
C1768 C1769 1.370 . S
C1768 C1770 1.363 . S
C1768 H1784 0.931 . S
C1769 C1768 1.370 . S
C1769 C1773 1.408 . S
C1770 C1768 1.363 . S
C1770 C1771 1.370 . S
C1770 C1774 1.524 . S
C1771 C1763 1.503 . S
C1771 C1770 1.370 . S
C1771 C1772 1.403 . S
C1772 C1771 1.403 . S
C1772 C1773 1.404 . S
C1772 C1775 1.539 . S
C1773 C1769 1.408 . S
C1773 C1772 1.404 . S
C1773 H1785 0.930 . S
C1774 C1770 1.524 . S
C1774 H1786 0.956 . S
C1774 H1787 0.961 . S
C1774 H1788 0.961 . S
C1775 C1772 1.539 . S
C1775 H1789 0.958 . S
C1775 H1790 0.961 . S
C1775 H1791 0.960 . S
H1776 C1760 0.931 . S
H1777 C1765 0.929 . S
H1778 C1766 0.960 . S
H1779 C1766 0.962 . S
H1780 C1766 0.960 . S
H1781 C1767 0.961 . S
H1782 C1767 0.961 . S
H1783 C1767 0.961 . S
H1784 C1768 0.931 . S
H1785 C1773 0.930 . S
H1786 C1774 0.956 . S
H1787 C1774 0.961 . S
H1788 C1774 0.961 . S
H1789 C1775 0.958 . S
H1790 C1775 0.961 . S
H1791 C1775 0.960 . S
C1792 C1793 1.391 . S
C1792 C1794 1.394 . S
C1792 H1808 0.931 . S
C1793 C1792 1.391 . S
C1793 C1797 1.376 . S
C1794 C1792 1.394 . S
C1794 C1795 1.369 . S
C1794 C1798 1.531 . S
C1795 C1794 1.369 . S
C1795 C1796 1.410 . S
C1795 C1803 1.503 . S
C1796 C1795 1.410 . S
C1796 C1797 1.392 . S
C1796 C1799 1.511 . S
C1797 C1793 1.376 . S
C1797 C1796 1.392 . S
C1797 H1809 0.929 . S
C1798 C1794 1.531 . S
C1798 H1810 0.960 . S
C1798 H1811 0.962 . S
C1798 H1812 0.960 . S
C1799 C1796 1.511 . S
C1799 H1813 0.961 . S
C1799 H1814 0.961 . S
C1799 H1815 0.961 . S
C1800 C1801 1.370 . S
C1800 C1802 1.363 . S
C1800 H1816 0.931 . S
C1801 C1800 1.370 . S
C1801 C1805 1.408 . S
C1802 C1800 1.363 . S
C1802 C1803 1.370 . S
C1802 C1806 1.524 . S
C1803 C1795 1.503 . S
C1803 C1802 1.370 . S
C1803 C1804 1.403 . S
C1804 C1803 1.403 . S
C1804 C1805 1.404 . S
C1804 C1807 1.539 . S
C1805 C1801 1.408 . S
C1805 C1804 1.404 . S
C1805 H1817 0.930 . S
C1806 C1802 1.524 . S
C1806 H1818 0.956 . S
C1806 H1819 0.961 . S
C1806 H1820 0.961 . S
C1807 C1804 1.539 . S
C1807 H1821 0.958 . S
C1807 H1822 0.961 . S
C1807 H1823 0.960 . S
H1808 C1792 0.931 . S
H1809 C1797 0.929 . S
H1810 C1798 0.960 . S
H1811 C1798 0.962 . S
H1812 C1798 0.960 . S
H1813 C1799 0.961 . S
H1814 C1799 0.961 . S
H1815 C1799 0.961 . S
H1816 C1800 0.931 . S
H1817 C1805 0.930 . S
H1818 C1806 0.956 . S
H1819 C1806 0.961 . S
H1820 C1806 0.961 . S
H1821 C1807 0.958 . S
H1822 C1807 0.961 . S
H1823 C1807 0.960 . S
C1824 C1825 1.391 . S
C1824 C1826 1.394 . S
C1824 H1840 0.931 . S
C1825 C1824 1.391 . S
C1825 C1829 1.376 . S
C1826 C1824 1.394 . S
C1826 C1827 1.369 . S
C1826 C1830 1.531 . S
C1827 C1826 1.369 . S
C1827 C1828 1.410 . S
C1827 C1835 1.503 . S
C1828 C1827 1.410 . S
C1828 C1829 1.392 . S
C1828 C1831 1.511 . S
C1829 C1825 1.376 . S
C1829 C1828 1.392 . S
C1829 H1841 0.929 . S
C1830 C1826 1.531 . S
C1830 H1842 0.960 . S
C1830 H1843 0.962 . S
C1830 H1844 0.960 . S
C1831 C1828 1.511 . S
C1831 H1845 0.961 . S
C1831 H1846 0.961 . S
C1831 H1847 0.961 . S
C1832 C1833 1.370 . S
C1832 C1834 1.363 . S
C1832 H1848 0.931 1_655 S
C1833 C1832 1.370 . S
C1833 C1837 1.408 . S
C1834 C1832 1.363 . S
C1834 C1835 1.370 . S
C1834 C1838 1.524 . S
C1835 C1827 1.503 . S
C1835 C1834 1.370 . S
C1835 C1836 1.403 . S
C1836 C1835 1.403 . S
C1836 C1837 1.404 . S
C1836 C1839 1.539 . S
C1837 C1833 1.408 . S
C1837 C1836 1.404 . S
C1837 H1849 0.930 . S
C1838 C1834 1.524 . S
C1838 H1850 0.956 . S
C1838 H1851 0.961 . S
C1838 H1852 0.961 . S
C1839 C1836 1.539 . S
C1839 H1853 0.958 . S
C1839 H1854 0.961 . S
C1839 H1855 0.960 . S
H1840 C1824 0.931 . S
H1841 C1829 0.929 . S
H1842 C1830 0.960 . S
H1843 C1830 0.962 . S
H1844 C1830 0.960 . S
H1845 C1831 0.961 . S
H1846 C1831 0.961 . S
H1847 C1831 0.961 . S
H1848 C1832 0.931 1_455 S
H1849 C1837 0.930 . S
H1850 C1838 0.956 . S
H1851 C1838 0.961 . S
H1852 C1838 0.961 . S
H1853 C1839 0.958 . S
H1854 C1839 0.961 . S
H1855 C1839 0.960 . S
C1856 C1857 1.391 . S
C1856 C1858 1.394 . S
C1856 H1872 0.931 . S
C1857 C1856 1.391 . S
C1857 C1861 1.376 . S
C1858 C1856 1.394 . S
C1858 C1859 1.369 . S
C1858 C1862 1.531 . S
C1859 C1858 1.369 . S
C1859 C1860 1.410 . S
C1859 C1867 1.503 . S
C1860 C1859 1.410 . S
C1860 C1861 1.392 . S
C1860 C1863 1.511 . S
C1861 C1857 1.376 . S
C1861 C1860 1.392 . S
C1861 H1873 0.929 . S
C1862 C1858 1.531 . S
C1862 H1874 0.960 . S
C1862 H1875 0.962 . S
C1862 H1876 0.960 . S
C1863 C1860 1.511 . S
C1863 H1877 0.961 . S
C1863 H1878 0.961 . S
C1863 H1879 0.961 . S
C1864 C1865 1.370 . S
C1864 C1866 1.363 . S
C1864 H1880 0.931 . S
C1865 C1864 1.370 . S
C1865 C1869 1.408 . S
C1866 C1864 1.363 . S
C1866 C1867 1.370 . S
C1866 C1870 1.524 . S
C1867 C1859 1.503 . S
C1867 C1866 1.370 . S
C1867 C1868 1.403 . S
C1868 C1867 1.403 . S
C1868 C1869 1.404 . S
C1868 C1871 1.539 . S
C1869 C1865 1.408 . S
C1869 C1868 1.404 . S
C1869 H1881 0.930 . S
C1870 C1866 1.524 . S
C1870 H1882 0.956 . S
C1870 H1883 0.961 . S
C1870 H1884 0.961 . S
C1871 C1868 1.539 . S
C1871 H1885 0.958 . S
C1871 H1886 0.961 . S
C1871 H1887 0.960 . S
H1872 C1856 0.931 . S
H1873 C1861 0.929 . S
H1874 C1862 0.960 . S
H1875 C1862 0.962 . S
H1876 C1862 0.960 . S
H1877 C1863 0.961 . S
H1878 C1863 0.961 . S
H1879 C1863 0.961 . S
H1880 C1864 0.931 . S
H1881 C1869 0.930 . S
H1882 C1870 0.956 . S
H1883 C1870 0.961 . S
H1884 C1870 0.961 . S
H1885 C1871 0.958 . S
H1886 C1871 0.961 . S
H1887 C1871 0.960 . S
C1888 C1889 1.391 . S
C1888 C1890 1.394 . S
C1888 H1904 0.931 . S
C1889 C1888 1.391 . S
C1889 C1893 1.376 . S
C1890 C1888 1.394 . S
C1890 C1891 1.369 . S
C1890 C1894 1.531 . S
C1891 C1890 1.369 . S
C1891 C1892 1.410 . S
C1891 C1899 1.503 . S
C1892 C1891 1.410 . S
C1892 C1893 1.392 . S
C1892 C1895 1.511 . S
C1893 C1889 1.376 . S
C1893 C1892 1.392 . S
C1893 H1905 0.929 . S
C1894 C1890 1.531 . S
C1894 H1906 0.960 . S
C1894 H1907 0.962 . S
C1894 H1908 0.960 . S
C1895 C1892 1.511 . S
C1895 H1909 0.961 . S
C1895 H1910 0.961 . S
C1895 H1911 0.961 . S
C1896 C1897 1.370 . S
C1896 C1898 1.363 . S
C1896 H1912 0.931 . S
C1897 C1896 1.370 . S
C1897 C1901 1.408 . S
C1898 C1896 1.363 . S
C1898 C1899 1.370 . S
C1898 C1902 1.524 . S
C1899 C1891 1.503 . S
C1899 C1898 1.370 . S
C1899 C1900 1.403 . S
C1900 C1899 1.403 . S
C1900 C1901 1.404 . S
C1900 C1903 1.539 . S
C1901 C1897 1.408 . S
C1901 C1900 1.404 . S
C1901 H1913 0.930 . S
C1902 C1898 1.524 . S
C1902 H1914 0.956 . S
C1902 H1915 0.961 . S
C1902 H1916 0.961 . S
C1903 C1900 1.539 . S
C1903 H1917 0.958 . S
C1903 H1918 0.961 . S
C1903 H1919 0.960 . S
H1904 C1888 0.931 . S
H1905 C1893 0.929 . S
H1906 C1894 0.960 . S
H1907 C1894 0.962 . S
H1908 C1894 0.960 . S
H1909 C1895 0.961 . S
H1910 C1895 0.961 . S
H1911 C1895 0.961 . S
H1912 C1896 0.931 . S
H1913 C1901 0.930 . S
H1914 C1902 0.956 . S
H1915 C1902 0.961 . S
H1916 C1902 0.961 . S
H1917 C1903 0.958 . S
H1918 C1903 0.961 . S
H1919 C1903 0.960 . S
C1920 C1921 1.391 . S
C1920 C1922 1.394 . S
C1920 H1936 0.931 . S
C1921 C1920 1.391 . S
C1921 C1925 1.376 . S
C1922 C1920 1.394 . S
C1922 C1923 1.369 . S
C1922 C1926 1.531 . S
C1923 C1922 1.369 . S
C1923 C1924 1.410 . S
C1923 C1931 1.503 . S
C1924 C1923 1.410 . S
C1924 C1925 1.392 . S
C1924 C1927 1.511 . S
C1925 C1921 1.376 . S
C1925 C1924 1.392 . S
C1925 H1937 0.929 . S
C1926 C1922 1.531 . S
C1926 H1938 0.960 . S
C1926 H1939 0.962 . S
C1926 H1940 0.960 . S
C1927 C1924 1.511 . S
C1927 H1941 0.961 . S
C1927 H1942 0.961 . S
C1927 H1943 0.961 . S
C1928 C1929 1.370 . S
C1928 C1930 1.363 1_554 S
C1928 H1944 0.931 . S
C1929 C1928 1.370 . S
C1929 C1933 1.408 . S
C1930 C1928 1.363 1_556 S
C1930 C1931 1.370 . S
C1930 C1934 1.524 . S
C1931 C1923 1.503 . S
C1931 C1930 1.370 . S
C1931 C1932 1.403 . S
C1932 C1931 1.403 . S
C1932 C1933 1.404 1_556 S
C1932 C1935 1.539 . S
C1933 C1929 1.408 . S
C1933 C1932 1.404 1_554 S
C1933 H1945 0.930 . S
C1934 C1930 1.524 . S
C1934 H1946 0.956 . S
C1934 H1947 0.961 . S
C1934 H1948 0.961 . S
C1935 C1932 1.539 . S
C1935 H1949 0.958 . S
C1935 H1950 0.961 . S
C1935 H1951 0.960 . S
H1936 C1920 0.931 . S
H1937 C1925 0.929 . S
H1938 C1926 0.960 . S
H1939 C1926 0.962 . S
H1940 C1926 0.960 . S
H1941 C1927 0.961 . S
H1942 C1927 0.961 . S
H1943 C1927 0.961 . S
H1944 C1928 0.931 . S
H1945 C1933 0.930 . S
H1946 C1934 0.956 . S
H1947 C1934 0.961 . S
H1948 C1934 0.961 . S
H1949 C1935 0.958 . S
H1950 C1935 0.961 . S
H1951 C1935 0.960 . S
C1952 C1953 1.391 . S
C1952 C1954 1.394 . S
C1952 H1968 0.931 . S
C1953 C1952 1.391 . S
C1953 C1957 1.376 . S
C1954 C1952 1.394 . S
C1954 C1955 1.369 . S
C1954 C1958 1.531 . S
C1955 C1954 1.369 . S
C1955 C1956 1.410 . S
C1955 C1963 1.503 . S
C1956 C1955 1.410 . S
C1956 C1957 1.392 . S
C1956 C1959 1.511 . S
C1957 C1953 1.376 . S
C1957 C1956 1.392 . S
C1957 H1969 0.929 . S
C1958 C1954 1.531 . S
C1958 H1970 0.960 . S
C1958 H1971 0.962 . S
C1958 H1972 0.960 . S
C1959 C1956 1.511 . S
C1959 H1973 0.961 . S
C1959 H1974 0.961 . S
C1959 H1975 0.961 . S
C1960 C1961 1.370 . S
C1960 C1962 1.363 . S
C1960 H1976 0.931 . S
C1961 C1960 1.370 . S
C1961 C1965 1.408 . S
C1962 C1960 1.363 . S
C1962 C1963 1.370 . S
C1962 C1966 1.524 . S
C1963 C1955 1.503 . S
C1963 C1962 1.370 . S
C1963 C1964 1.403 . S
C1964 C1963 1.403 . S
C1964 C1965 1.404 . S
C1964 C1967 1.539 . S
C1965 C1961 1.408 . S
C1965 C1964 1.404 . S
C1965 H1977 0.930 . S
C1966 C1962 1.524 . S
C1966 H1978 0.956 . S
C1966 H1979 0.961 . S
C1966 H1980 0.961 . S
C1967 C1964 1.539 . S
C1967 H1981 0.958 . S
C1967 H1982 0.961 . S
C1967 H1983 0.960 . S
H1968 C1952 0.931 . S
H1969 C1957 0.929 . S
H1970 C1958 0.960 . S
H1971 C1958 0.962 . S
H1972 C1958 0.960 . S
H1973 C1959 0.961 . S
H1974 C1959 0.961 . S
H1975 C1959 0.961 . S
H1976 C1960 0.931 . S
H1977 C1965 0.930 . S
H1978 C1966 0.956 . S
H1979 C1966 0.961 . S
H1980 C1966 0.961 . S
H1981 C1967 0.958 . S
H1982 C1967 0.961 . S
H1983 C1967 0.960 . S
C1984 C1985 1.367 1_455 S
C1984 C1986 1.391 1_455 S
C1984 H2000 0.958 . S
C1985 C1984 1.367 1_655 S
C1985 C1989 1.376 . S
C1986 C1984 1.391 1_655 S
C1986 C1987 1.369 . S
C1986 C1990 1.531 1_655 S
C1987 C1986 1.369 . S
C1987 C1988 1.410 . S
C1987 C1995 1.503 . S
C1988 C1987 1.410 . S
C1988 C1989 1.392 . S
C1988 C1991 1.511 . S
C1989 C1985 1.376 . S
C1989 C1988 1.392 . S
C1989 H2001 0.929 . S
C1990 C1986 1.531 1_455 S
C1990 H2002 0.960 . S
C1990 H2003 0.962 . S
C1990 H2004 0.960 . S
C1991 C1988 1.511 . S
C1991 H2005 0.961 . S
C1991 H2006 0.961 . S
C1991 H2007 0.961 . S
C1992 C1993 1.370 . S
C1992 C1994 1.363 . S
C1992 H2008 0.931 . S
C1993 C1992 1.370 . S
C1993 C1997 1.408 . S
C1994 C1992 1.363 . S
C1994 C1995 1.370 . S
C1994 C1998 1.524 . S
C1995 C1987 1.503 . S
C1995 C1994 1.370 . S
C1995 C1996 1.403 . S
C1996 C1995 1.403 . S
C1996 C1997 1.404 . S
C1996 C1999 1.539 . S
C1997 C1993 1.408 . S
C1997 C1996 1.404 . S
C1997 H2009 0.930 . S
C1998 C1994 1.524 . S
C1998 H2010 0.956 . S
C1998 H2011 0.961 . S
C1998 H2012 0.961 . S
C1999 C1996 1.539 . S
C1999 H2013 0.958 . S
C1999 H2014 0.961 . S
C1999 H2015 0.960 . S
H2000 C1984 0.958 . S
H2001 C1989 0.929 . S
H2002 C1990 0.960 . S
H2003 C1990 0.962 . S
H2004 C1990 0.960 . S
H2005 C1991 0.961 . S
H2006 C1991 0.961 . S
H2007 C1991 0.961 . S
H2008 C1992 0.931 . S
H2009 C1997 0.930 . S
H2010 C1998 0.956 . S
H2011 C1998 0.961 . S
H2012 C1998 0.961 . S
H2013 C1999 0.958 . S
H2014 C1999 0.961 . S
H2015 C1999 0.960 . S
C2016 C2017 1.391 . S
C2016 C2018 1.394 . S
C2016 H2032 0.931 . S
C2017 C2016 1.391 . S
C2017 C2021 1.376 . S
C2018 C2016 1.394 . S
C2018 C2019 1.369 . S
C2018 C2022 1.531 . S
C2019 C2018 1.369 . S
C2019 C2020 1.410 . S
C2019 C2027 1.503 . S
C2020 C2019 1.410 . S
C2020 C2021 1.392 . S
C2020 C2023 1.511 . S
C2021 C2017 1.376 . S
C2021 C2020 1.392 . S
C2021 H2033 0.929 . S
C2022 C2018 1.531 . S
C2022 H2034 0.960 . S
C2022 H2035 0.962 . S
C2022 H2036 0.960 . S
C2023 C2020 1.511 . S
C2023 H2037 0.961 . S
C2023 H2038 0.961 . S
C2023 H2039 0.961 . S
C2024 C2025 1.370 . S
C2024 C2026 1.363 . S
C2024 H2040 0.931 . S
C2025 C2024 1.370 . S
C2025 C2029 1.408 . S
C2026 C2024 1.363 . S
C2026 C2027 1.370 . S
C2026 C2030 1.524 . S
C2027 C2019 1.503 . S
C2027 C2026 1.370 . S
C2027 C2028 1.403 . S
C2028 C2027 1.403 . S
C2028 C2029 1.404 . S
C2028 C2031 1.539 . S
C2029 C2025 1.408 . S
C2029 C2028 1.404 . S
C2029 H2041 0.930 . S
C2030 C2026 1.524 . S
C2030 H2042 0.956 . S
C2030 H2043 0.961 . S
C2030 H2044 0.961 . S
C2031 C2028 1.539 . S
C2031 H2045 0.958 . S
C2031 H2046 0.961 . S
C2031 H2047 0.960 . S
H2032 C2016 0.931 . S
H2033 C2021 0.929 . S
H2034 C2022 0.960 . S
H2035 C2022 0.962 . S
H2036 C2022 0.960 . S
H2037 C2023 0.961 . S
H2038 C2023 0.961 . S
H2039 C2023 0.961 . S
H2040 C2024 0.931 . S
H2041 C2029 0.930 . S
H2042 C2030 0.956 . S
H2043 C2030 0.961 . S
H2044 C2030 0.961 . S
H2045 C2031 0.958 . S
H2046 C2031 0.961 . S
H2047 C2031 0.960 . S
C2048 C2049 1.391 . S
C2048 C2050 1.394 . S
C2048 H2064 0.931 . S
C2049 C2048 1.391 . S
C2049 C2053 1.376 . S
C2050 C2048 1.394 . S
C2050 C2051 1.369 . S
C2050 C2054 1.531 . S
C2051 C2050 1.369 . S
C2051 C2052 1.410 . S
C2051 C2059 1.503 . S
C2052 C2051 1.410 . S
C2052 C2053 1.392 . S
C2052 C2055 1.511 . S
C2053 C2049 1.376 . S
C2053 C2052 1.392 . S
C2053 H2065 0.929 . S
C2054 C2050 1.531 . S
C2054 H2066 0.960 . S
C2054 H2067 0.962 . S
C2054 H2068 0.960 . S
C2055 C2052 1.511 . S
C2055 H2069 0.961 . S
C2055 H2070 0.961 . S
C2055 H2071 0.961 . S
C2056 C2057 1.370 . S
C2056 C2058 1.363 1_556 S
C2056 H2072 0.931 . S
C2057 C2056 1.370 . S
C2057 C2061 1.397 1_556 S
C2058 C2056 1.363 1_554 S
C2058 C2059 1.370 . S
C2058 C2062 1.524 . S
C2059 C2051 1.503 . S
C2059 C2058 1.370 . S
C2059 C2060 1.403 . S
C2060 C2059 1.403 . S
C2060 C2061 1.417 . S
C2060 C2063 1.539 . S
C2061 C2057 1.397 1_554 S
C2061 C2060 1.417 . S
C2061 H2073 0.928 1_554 S
C2062 C2058 1.524 . S
C2062 H2074 0.956 . S
C2062 H2075 0.961 . S
C2062 H2076 0.961 1_554 S
C2063 C2060 1.539 . S
C2063 H2077 0.958 . S
C2063 H2078 0.961 . S
C2063 H2079 0.960 . S
H2064 C2048 0.931 . S
H2065 C2053 0.929 . S
H2066 C2054 0.960 . S
H2067 C2054 0.962 . S
H2068 C2054 0.960 . S
H2069 C2055 0.961 . S
H2070 C2055 0.961 . S
H2071 C2055 0.961 . S
H2072 C2056 0.931 . S
H2073 C2061 0.928 1_556 S
H2074 C2062 0.956 . S
H2075 C2062 0.961 . S
H2076 C2062 0.961 1_556 S
H2077 C2063 0.958 . S
H2078 C2063 0.961 . S
H2079 C2063 0.960 . S
C2080 C2081 1.391 . S
C2080 C2082 1.394 . S
C2080 H2096 0.931 . S
C2081 C2080 1.391 . S
C2081 C2085 1.376 . S
C2082 C2080 1.394 . S
C2082 C2083 1.369 . S
C2082 C2086 1.531 . S
C2083 C2082 1.369 . S
C2083 C2084 1.410 . S
C2083 C2091 1.503 . S
C2084 C2083 1.410 . S
C2084 C2085 1.392 . S
C2084 C2087 1.511 . S
C2085 C2081 1.376 . S
C2085 C2084 1.392 . S
C2085 H2097 0.929 . S
C2086 C2082 1.531 . S
C2086 H2098 0.960 . S
C2086 H2099 0.962 . S
C2086 H2100 0.960 . S
C2087 C2084 1.511 . S
C2087 H2101 0.961 . S
C2087 H2102 0.961 . S
C2087 H2103 0.961 . S
C2088 C2089 1.370 . S
C2088 C2090 1.363 . S
C2088 H2104 0.931 . S
C2089 C2088 1.370 . S
C2089 C2093 1.408 . S
C2090 C2088 1.363 . S
C2090 C2091 1.370 . S
C2090 C2094 1.524 . S
C2091 C2083 1.503 . S
C2091 C2090 1.370 . S
C2091 C2092 1.403 . S
C2092 C2091 1.403 . S
C2092 C2093 1.404 . S
C2092 C2095 1.539 . S
C2093 C2089 1.408 . S
C2093 C2092 1.404 . S
C2093 H2105 0.930 . S
C2094 C2090 1.524 . S
C2094 H2106 0.956 . S
C2094 H2107 0.961 . S
C2094 H2108 0.961 . S
C2095 C2092 1.539 . S
C2095 H2109 0.958 . S
C2095 H2110 0.961 . S
C2095 H2111 0.960 . S
H2096 C2080 0.931 . S
H2097 C2085 0.929 . S
H2098 C2086 0.960 . S
H2099 C2086 0.962 . S
H2100 C2086 0.960 . S
H2101 C2087 0.961 . S
H2102 C2087 0.961 . S
H2103 C2087 0.961 . S
H2104 C2088 0.931 . S
H2105 C2093 0.930 . S
H2106 C2094 0.956 . S
H2107 C2094 0.961 . S
H2108 C2094 0.961 . S
H2109 C2095 0.958 . S
H2110 C2095 0.961 . S
H2111 C2095 0.960 . S
C2112 C2113 1.391 . S
C2112 C2114 1.394 . S
C2112 H2128 0.931 . S
C2113 C2112 1.391 . S
C2113 C2117 1.376 . S
C2114 C2112 1.394 . S
C2114 C2115 1.369 . S
C2114 C2118 1.531 . S
C2115 C2114 1.369 . S
C2115 C2116 1.410 . S
C2115 C2123 1.503 . S
C2116 C2115 1.410 . S
C2116 C2117 1.392 . S
C2116 C2119 1.511 . S
C2117 C2113 1.376 . S
C2117 C2116 1.392 . S
C2117 H2129 0.929 . S
C2118 C2114 1.531 . S
C2118 H2130 0.960 . S
C2118 H2131 0.962 . S
C2118 H2132 0.960 . S
C2119 C2116 1.511 . S
C2119 H2133 0.961 . S
C2119 H2134 0.961 . S
C2119 H2135 0.961 . S
C2120 C2121 1.370 . S
C2120 C2122 1.363 . S
C2120 H2136 0.931 . S
C2121 C2120 1.370 . S
C2121 C2125 1.408 . S
C2122 C2120 1.363 . S
C2122 C2123 1.370 . S
C2122 C2126 1.524 . S
C2123 C2115 1.503 . S
C2123 C2122 1.370 . S
C2123 C2124 1.403 . S
C2124 C2123 1.403 . S
C2124 C2125 1.404 . S
C2124 C2127 1.539 . S
C2125 C2121 1.408 . S
C2125 C2124 1.404 . S
C2125 H2137 0.930 . S
C2126 C2122 1.524 . S
C2126 H2138 0.956 . S
C2126 H2139 0.961 . S
C2126 H2140 0.961 . S
C2127 C2124 1.539 . S
C2127 H2141 0.958 . S
C2127 H2142 0.961 . S
C2127 H2143 0.960 . S
H2128 C2112 0.931 . S
H2129 C2117 0.929 . S
H2130 C2118 0.960 . S
H2131 C2118 0.962 . S
H2132 C2118 0.960 . S
H2133 C2119 0.961 . S
H2134 C2119 0.961 . S
H2135 C2119 0.961 . S
H2136 C2120 0.931 . S
H2137 C2125 0.930 . S
H2138 C2126 0.956 . S
H2139 C2126 0.961 . S
H2140 C2126 0.961 . S
H2141 C2127 0.958 . S
H2142 C2127 0.961 . S
H2143 C2127 0.960 . S
C2144 C2145 1.391 . S
C2144 C2146 1.394 . S
C2144 H2160 0.931 . S
C2145 C2144 1.391 . S
C2145 C2149 1.376 . S
C2146 C2144 1.394 . S
C2146 C2147 1.369 . S
C2146 C2150 1.531 . S
C2147 C2146 1.369 . S
C2147 C2148 1.410 . S
C2147 C2155 1.503 . S
C2148 C2147 1.410 . S
C2148 C2149 1.392 . S
C2148 C2151 1.511 . S
C2149 C2145 1.376 . S
C2149 C2148 1.392 . S
C2149 H2161 0.929 . S
C2150 C2146 1.531 . S
C2150 H2162 0.960 . S
C2150 H2163 0.962 . S
C2150 H2164 0.960 . S
C2151 C2148 1.511 . S
C2151 H2165 0.961 . S
C2151 H2166 0.961 . S
C2151 H2167 0.961 . S
C2152 C2153 1.370 . S
C2152 C2154 1.363 . S
C2152 H2168 0.931 . S
C2153 C2152 1.370 . S
C2153 C2157 1.408 . S
C2154 C2152 1.363 . S
C2154 C2155 1.370 . S
C2154 C2158 1.524 . S
C2155 C2147 1.503 . S
C2155 C2154 1.370 . S
C2155 C2156 1.403 . S
C2156 C2155 1.403 . S
C2156 C2157 1.404 . S
C2156 C2159 1.539 . S
C2157 C2153 1.408 . S
C2157 C2156 1.404 . S
C2157 H2169 0.930 . S
C2158 C2154 1.524 . S
C2158 H2170 0.956 . S
C2158 H2171 0.961 . S
C2158 H2172 0.961 . S
C2159 C2156 1.539 . S
C2159 H2173 0.958 . S
C2159 H2174 0.961 . S
C2159 H2175 0.960 . S
H2160 C2144 0.931 . S
H2161 C2149 0.929 . S
H2162 C2150 0.960 . S
H2163 C2150 0.962 . S
H2164 C2150 0.960 . S
H2165 C2151 0.961 . S
H2166 C2151 0.961 . S
H2167 C2151 0.961 . S
H2168 C2152 0.931 . S
H2169 C2157 0.930 . S
H2170 C2158 0.956 . S
H2171 C2158 0.961 . S
H2172 C2158 0.961 . S
H2173 C2159 0.958 . S
H2174 C2159 0.961 . S
H2175 C2159 0.960 . S
C641 C11 0.271 . S
C649 C287 0.374 . S
C673 C51 2.035 . S
C681 C167 2.051 . S
C705 C207 0.833 . S
C713 C87 0.741 . S
C737 C131 2.811 . S
C745 C251 2.773 . S
C769 C456 0.461 . S
C777 C162 0.322 . S
C801 C322 2.030 . S
C809 C16 2.051 . S
C833 C416 0.800 . S
C841 C256 0.750 . S
C865 C82 2.758 . S
C873 C362 2.821 . S
C897 C367 0.388 . S
C905 C491 0.300 . S
C929 C411 2.043 . S
C937 C567 2.063 . S
C961 C527 0.765 . S
C969 C327 0.849 . S
C993 C451 2.812 . S
C1001 C611 2.783 1_554 S
C1025 C562 0.412 . S
C1033 C136 0.362 . S
C1057 C496 2.042 . S
C1065 C202 2.035 . S
C1089 C56 0.851 . S
C1097 C616 0.735 . S
C1121 C282 2.827 . S
C1129 C522 2.775 1_556 S
C1153 C530 0.353 . S
C1161 C19 0.380 . S
C1185 C459 0.698 . S
C1193 C59 0.671 . S
C1217 C499 0.349 . S
C1225 C90 0.434 . S
C1249 C419 0.714 . S
C1257 C139 0.684 . S
C1281 C170 0.533 . S
C1289 C619 0.492 1_655 S
C1313 C370 0.648 . S
C1321 C210 0.760 . S
C1345 C259 0.393 . S
C1353 C570 0.404 . S
C1377 C290 0.692 . S
C1385 C330 0.742 . S
C1409 C10 1.601 . S
C1417 C179 1.559 . S
C1441 C50 1.975 . S
C1449 C219 1.948 . S
C1473 C250 1.468 . S
C1481 C99 1.516 . S
C1505 C130 1.262 . S
C1513 C299 1.232 . S
C1537 C410 1.942 . S
C1545 C339 1.962 . S
C1569 C450 1.212 . S
C1577 C379 1.252 . S
C1601 C490 1.559 . S
C1609 C579 1.574 . S
C1633 C610 1.465 1_455 S
C1641 C539 1.516 . S
C1665 C7 2.785 . S
C1673 C291 2.853 . S
C1697 C47 0.992 . S
C1705 C171 0.982 . S
C1729 C211 3.608 1_556 S
C1737 C91 3.597 . S
C1761 C247 0.572 . S
C1769 C127 0.609 . S
C1793 C442 2.847 . S
C1801 C176 2.785 . S
C1825 C336 1.004 . S
C1833 C2 0.991 . S
C1857 C402 3.616 1_554 S
C1865 C242 3.594 . S
C1889 C96 0.543 . S
C1897 C376 0.643 . S
C1921 C487 2.771 . S
C1929 C371 2.853 . S
C1953 C571 1.004 . S
C1961 C407 0.971 . S
C1985 C531 3.597 1_655 S
C1993 C331 3.618 . S
C2017 C607 0.541 . S
C2025 C447 0.640 . S
C2049 C576 2.775 . S
C2057 C122 2.856 . S
C2081 C216 1.000 . S
C2089 C482 0.993 . S
C2113 C42 3.612 . S
C2121 C602 3.599 . S
C2145 C536 0.558 . S
C2153 C296 0.628 . S
