# Generated by pormake.
# Topology vmi, (6)-cn, num edge types: 1
# Building blocks:
#     Node 0, Type 0, BuildingBlock: IZENUY_clean_sbu_0, # of connection points: 6
#     Node 1, Type 0, BuildingBlock: IZENUY_clean_sbu_0, # of connection points: 6
#     Node 2, Type 0, BuildingBlock: IZENUY_clean_sbu_0, # of connection points: 6
#     Node 3, Type 0, BuildingBlock: IZENUY_clean_sbu_0, # of connection points: 6
#     Node 4, Type 0, BuildingBlock: IZENUY_clean_sbu_0, # of connection points: 6
#     Node 5, Type 0, BuildingBlock: IZENUY_clean_sbu_0, # of connection points: 6
#     Node 6, Type 0, BuildingBlock: IZENUY_clean_sbu_0, # of connection points: 6
#     Node 7, Type 0, BuildingBlock: IZENUY_clean_sbu_0, # of connection points: 6
#     Edge 8, Type (0, 0), BuildingBlock: UVAHIK_clean_linker_0, # of connection points: 2
#     Edge 9, Type (0, 0), BuildingBlock: UVAHIK_clean_linker_0, # of connection points: 2
#     Edge 10, Type (0, 0), BuildingBlock: UVAHIK_clean_linker_0, # of connection points: 2
#     Edge 11, Type (0, 0), BuildingBlock: UVAHIK_clean_linker_0, # of connection points: 2
#     Edge 12, Type (0, 0), BuildingBlock: UVAHIK_clean_linker_0, # of connection points: 2
#     Edge 13, Type (0, 0), BuildingBlock: UVAHIK_clean_linker_0, # of connection points: 2
#     Edge 14, Type (0, 0), BuildingBlock: UVAHIK_clean_linker_0, # of connection points: 2
#     Edge 15, Type (0, 0), BuildingBlock: UVAHIK_clean_linker_0, # of connection points: 2
#     Edge 16, Type (0, 0), BuildingBlock: UVAHIK_clean_linker_0, # of connection points: 2
#     Edge 17, Type (0, 0), BuildingBlock: UVAHIK_clean_linker_0, # of connection points: 2
#     Edge 18, Type (0, 0), BuildingBlock: UVAHIK_clean_linker_0, # of connection points: 2
#     Edge 19, Type (0, 0), BuildingBlock: UVAHIK_clean_linker_0, # of connection points: 2
#     Edge 20, Type (0, 0), BuildingBlock: UVAHIK_clean_linker_0, # of connection points: 2
#     Edge 21, Type (0, 0), BuildingBlock: UVAHIK_clean_linker_0, # of connection points: 2
#     Edge 22, Type (0, 0), BuildingBlock: UVAHIK_clean_linker_0, # of connection points: 2
#     Edge 23, Type (0, 0), BuildingBlock: UVAHIK_clean_linker_0, # of connection points: 2
#     Edge 24, Type (0, 0), BuildingBlock: UVAHIK_clean_linker_0, # of connection points: 2
#     Edge 25, Type (0, 0), BuildingBlock: UVAHIK_clean_linker_0, # of connection points: 2
#     Edge 26, Type (0, 0), BuildingBlock: UVAHIK_clean_linker_0, # of connection points: 2
#     Edge 27, Type (0, 0), BuildingBlock: UVAHIK_clean_linker_0, # of connection points: 2
#     Edge 28, Type (0, 0), BuildingBlock: UVAHIK_clean_linker_0, # of connection points: 2
#     Edge 29, Type (0, 0), BuildingBlock: UVAHIK_clean_linker_0, # of connection points: 2
#     Edge 30, Type (0, 0), BuildingBlock: UVAHIK_clean_linker_0, # of connection points: 2
#     Edge 31, Type (0, 0), BuildingBlock: UVAHIK_clean_linker_0, # of connection points: 2
# Relax obj value: 0.332
# Max RMSD: 0.290
# Mean RMSD: 0.290
data_MOF--net-vmi--node1-IZENUY_clean_sbu_0--edge1-UVAHIK_clean_linker_0
_symmetry_space_group_name_H-M    P1
_symmetry_Int_Tables_number       1
_symmetry_cell_setting            triclinic
loop_
_symmetry_equiv_pos_as_xyz
'x, y, z'
_cell_length_a     34.969307
_cell_length_b     57.780659
_cell_length_c     38.075874
_cell_angle_alpha  89.973626
_cell_angle_beta   110.1456
_cell_angle_gamma 89.822983
loop_
_atom_site_label
_atom_site_type_symbol
_atom_site_fract_x
_atom_site_fract_y
_atom_site_fract_z
_atom_type_partial_charge
Fe0 Fe 0.18133 0.05418 0.23587 0.0
Fe1 Fe 0.14608 0.10014 0.19817 0.0
O2 O 0.18902 0.08301 0.22374 0.0
Fe3 Fe 0.239 0.09439 0.23653 0.0
O4 O 0.25646 0.07106 0.21405 0.0
O5 O 0.22988 0.04246 0.23522 0.0
O6 O 0.1587 0.04623 0.1869 0.0
C7 C 0.12761 0.05622 0.16461 0.0
C8 C 0.23738 0.06994 0.30092 0.0
O9 O 0.11605 0.07559 0.17291 0.0
C10 C 0.19947 0.1336 0.24505 0.0
O11 O 0.13153 0.06023 0.23978 0.0
O12 O 0.12404 0.098 0.23493 0.0
O13 O 0.25678 0.08007 0.28264 0.0
O14 O 0.20328 0.06058 0.28492 0.0
C15 C 0.19946 0.10965 0.1616 0.0
O16 O 0.1685 0.12804 0.21749 0.0
O17 O 0.22676 0.11893 0.26017 0.0
C18 C 0.11507 0.07871 0.24562 0.0
O19 O 0.16453 0.10308 0.1598 0.0
O20 O 0.22896 0.1105 0.19246 0.0
C21 C 0.25496 0.04986 0.22075 0.0
Fe22 Fe 0.33567 0.09541 0.79789 0.0
Fe23 Fe 0.24981 0.08855 0.74128 0.0
O24 O 0.30007 0.07826 0.76342 0.0
Fe25 Fe 0.31402 0.05083 0.75082 0.0
O26 O 0.34972 0.04386 0.79768 0.0
O27 O 0.34368 0.07287 0.83283 0.0
O28 O 0.29748 0.10764 0.81574 0.0
C29 C 0.2627 0.10019 0.81366 0.0
C30 C 0.38377 0.07473 0.75877 0.0
O31 O 0.24087 0.08879 0.78559 0.0
C32 C 0.26817 0.07152 0.68229 0.0
O33 O 0.33009 0.11967 0.76579 0.0
O34 O 0.26334 0.11912 0.74559 0.0
O35 O 0.35441 0.06324 0.73728 0.0
O36 O 0.38017 0.08566 0.78636 0.0
C37 C 0.2372 0.0408 0.74878 0.0
O38 O 0.25721 0.08893 0.6965 0.0
O39 O 0.28127 0.05337 0.70145 0.0
C40 C 0.29627 0.12953 0.74959 0.0
O41 O 0.22605 0.05994 0.73232 0.0
O42 O 0.27459 0.03615 0.76363 0.0
C43 C 0.35501 0.05251 0.82954 0.0
Fe44 Fe 0.81944 0.95177 0.75367 0.0
Fe45 Fe 0.7591 0.91228 0.74958 0.0
O46 O 0.80971 0.92296 0.76445 0.0
Fe47 Fe 0.85131 0.90517 0.79081 0.0
O48 O 0.88172 0.92917 0.81749 0.0
O49 O 0.84049 0.95915 0.80298 0.0
O50 O 0.77074 0.96414 0.75275 0.0
C51 C 0.74415 0.95699 0.76561 0.0
C52 C 0.88577 0.92641 0.74569 0.0
O53 O 0.74127 0.93578 0.77148 0.0
C54 C 0.79782 0.8725 0.74199 0.0
O55 O 0.79913 0.94598 0.70438 0.0
O56 O 0.744 0.92695 0.70376 0.0
O57 O 0.87528 0.90722 0.75542 0.0
O58 O 0.86989 0.94512 0.75146 0.0
C59 C 0.79513 0.89604 0.82451 0.0
O60 O 0.77145 0.88755 0.72632 0.0
O61 O 0.82831 0.87766 0.77025 0.0
C62 C 0.76493 0.93713 0.68696 0.0
O63 O 0.76647 0.89594 0.79303 0.0
O64 O 0.83075 0.90219 0.82784 0.0
C65 C 0.87056 0.94864 0.8258 0.0
Fe66 Fe 0.74565 0.91118 0.24417 0.0
Fe67 Fe 0.65855 0.90453 0.18983 0.0
O68 O 0.69581 0.92213 0.22213 0.0
Fe69 Fe 0.68421 0.95056 0.23281 0.0
O70 O 0.7241 0.96328 0.2183 0.0
O71 O 0.77112 0.93923 0.25104 0.0
O72 O 0.75311 0.90921 0.19938 0.0
C73 C 0.72993 0.89775 0.17202 0.0
C74 C 0.72989 0.93097 0.30257 0.0
O75 O 0.69529 0.89082 0.17144 0.0
C76 C 0.61354 0.92844 0.22875 0.0
O77 O 0.73084 0.88091 0.24205 0.0
O78 O 0.66431 0.88142 0.22396 0.0
O79 O 0.71744 0.94876 0.28219 0.0
O80 O 0.73939 0.91266 0.28936 0.0
C81 C 0.6407 0.94668 0.15458 0.0
O82 O 0.61551 0.91584 0.20216 0.0
O83 O 0.64358 0.94035 0.24797 0.0
C84 C 0.69784 0.87127 0.23991 0.0
O85 O 0.64967 0.92567 0.15291 0.0
O86 O 0.64855 0.95692 0.18565 0.0
C87 C 0.76116 0.95797 0.23314 0.0
Fe88 Fe 0.6545 0.60117 0.68748 0.0
Fe89 Fe 0.74198 0.59674 0.74241 0.0
O90 O 0.69314 0.5846 0.72054 0.0
Fe91 Fe 0.68379 0.55594 0.73195 0.0
O92 O 0.64862 0.54884 0.68511 0.0
O93 O 0.64818 0.57974 0.65126 0.0
O94 O 0.69001 0.61592 0.6691 0.0
C95 C 0.72552 0.6103 0.67029 0.0
C96 C 0.61133 0.5765 0.72708 0.0
O97 O 0.7495 0.59921 0.69775 0.0
C98 C 0.72834 0.57627 0.80126 0.0
O99 O 0.65771 0.6244 0.72075 0.0
O100 O 0.72425 0.6266 0.73977 0.0
O101 O 0.64224 0.56523 0.74679 0.0
O102 O 0.6124 0.58883 0.69988 0.0
C103 C 0.76135 0.55032 0.73236 0.0
O104 O 0.73599 0.59485 0.78758 0.0
O105 O 0.71688 0.55834 0.78119 0.0
C106 C 0.69018 0.63541 0.73669 0.0
O107 O 0.76991 0.56929 0.74969 0.0
O108 O 0.72471 0.5442 0.7177 0.0
C109 C 0.64071 0.55859 0.65363 0.0
Fe110 Fe 0.84644 0.60141 0.29501 0.0
Fe111 Fe 0.75633 0.59493 0.24856 0.0
O112 O 0.80665 0.58387 0.26564 0.0
Fe113 Fe 0.81654 0.55539 0.25343 0.0
O114 O 0.85633 0.54921 0.29856 0.0
O115 O 0.85846 0.58037 0.33247 0.0
O116 O 0.81411 0.61584 0.31739 0.0
C117 C 0.78113 0.60925 0.32098 0.0
C118 C 0.88492 0.57721 0.25073 0.0
O119 O 0.75547 0.59759 0.2957 0.0
C120 C 0.76236 0.57446 0.18625 0.0
O121 O 0.83721 0.62421 0.25986 0.0
O122 O 0.77122 0.62504 0.24783 0.0
O123 O 0.85364 0.56556 0.23349 0.0
O124 O 0.88605 0.58966 0.27843 0.0
C125 C 0.74337 0.54826 0.26276 0.0
O126 O 0.75528 0.59279 0.20097 0.0
O127 O 0.77856 0.55698 0.20602 0.0
C128 C 0.80317 0.63428 0.24608 0.0
O129 O 0.7311 0.56705 0.24568 0.0
O130 O 0.78036 0.54254 0.27253 0.0
C131 C 0.86638 0.55925 0.33 0.0
Fe132 Fe 0.317 0.44972 0.2531 0.0
Fe133 Fe 0.25676 0.40997 0.24322 0.0
O134 O 0.30614 0.42145 0.26491 0.0
Fe135 Fe 0.344 0.40461 0.29822 0.0
O136 O 0.35077 0.42628 0.33416 0.0
O137 O 0.35262 0.45661 0.29991 0.0
O138 O 0.27683 0.46249 0.26726 0.0
C139 C 0.23984 0.45694 0.25291 0.0
C140 C 0.38833 0.42782 0.25839 0.0
O141 O 0.23013 0.43786 0.23602 0.0
C142 C 0.30717 0.37063 0.24898 0.0
O143 O 0.28364 0.44751 0.20398 0.0
O144 O 0.26257 0.41138 0.19796 0.0
O145 O 0.38676 0.41627 0.28614 0.0
O146 O 0.3579 0.43925 0.23818 0.0
C147 C 0.2726 0.39647 0.31522 0.0
O148 O 0.27338 0.37987 0.24588 0.0
O149 O 0.34006 0.38125 0.26504 0.0
C150 C 0.27107 0.42965 0.18408 0.0
O151 O 0.24919 0.40792 0.28792 0.0
O152 O 0.3079 0.39042 0.31643 0.0
C153 C 0.35949 0.44721 0.33153 0.0
Fe154 Fe 0.24587 0.40754 0.73818 0.0
Fe155 Fe 0.15571 0.40149 0.6914 0.0
O156 O 0.19577 0.41889 0.72069 0.0
Fe157 Fe 0.18649 0.4475 0.73239 0.0
O158 O 0.22323 0.45973 0.71335 0.0
O159 O 0.27188 0.43531 0.74168 0.0
O160 O 0.24697 0.4048 0.69111 0.0
C161 C 0.2211 0.39321 0.66581 0.0
C162 C 0.23959 0.4283 0.80002 0.0
O163 O 0.18814 0.38666 0.66952 0.0
C164 C 0.11733 0.42659 0.7349 0.0
O165 O 0.2303 0.37751 0.73871 0.0
O166 O 0.16438 0.37892 0.72689 0.0
O167 O 0.2241 0.44584 0.78002 0.0
O168 O 0.24638 0.40979 0.78557 0.0
C169 C 0.13691 0.44352 0.65578 0.0
O170 O 0.11603 0.41381 0.70749 0.0
O171 O 0.14901 0.43789 0.75219 0.0
C172 C 0.19819 0.36861 0.74071 0.0
O173 O 0.14428 0.4223 0.65362 0.0
O174 O 0.14712 0.45374 0.68707 0.0
C175 C 0.26041 0.45429 0.72494 0.0
C176 C 0.53707 0.92845 0.20292 0.0
C177 C 0.57344 0.93338 0.23244 0.0
C178 C 0.49995 0.93776 0.2027 0.0
C179 C 0.46358 0.98881 0.23906 0.0
H180 H 0.35754 0.9597 0.19974 0.0
C181 C 0.28902 0.01087 0.22837 0.0
C182 C 0.28676 0.0341 0.21663 0.0
C183 C 0.32171 0.99679 0.22849 0.0
C184 C 0.38698 0.96802 0.21092 0.0
H185 H 0.5987 0.95011 0.2865 0.0
H186 H 0.53405 0.96594 0.28637 0.0
H187 H 0.41904 0.93695 0.20688 0.0
H188 H 0.31605 0.06028 0.19383 0.0
H189 H 0.37274 0.0357 0.19386 0.0
H190 H 0.43193 0.01977 0.24336 0.0
C191 C 0.53433 0.95544 0.2629 0.0
C192 C 0.42214 0.95503 0.2148 0.0
C193 C 0.57136 0.94621 0.26309 0.0
C194 C 0.31697 0.04257 0.20342 0.0
C195 C 0.34963 0.02851 0.20362 0.0
C196 C 0.42857 1.00176 0.235 0.0
C197 C 0.49849 0.95211 0.23204 0.0
C198 C 0.46086 0.9653 0.229 0.0
C199 C 0.35289 0.00563 0.21696 0.0
C200 C 0.38983 0.99158 0.22077 0.0
H201 H 0.53756 0.91867 0.17881 0.0
H202 H 0.47291 0.93488 0.17847 0.0
H203 H 0.49283 0.99739 0.24949 0.0
H204 H 0.26624 0.00375 0.23863 0.0
H205 H 0.3234 0.97927 0.23906 0.0
C206 C 0.92638 0.94655 0.71289 0.0
C207 C 0.92298 0.92824 0.73585 0.0
C208 C 0.96392 0.95202 0.70983 0.0
C209 C 0.0715 0.95068 0.76619 0.0
H210 H 0.08305 0.97632 0.67629 0.0
C211 C 0.21524 1.00195 0.76584 0.0
C212 C 0.20571 0.02304 0.74621 0.0
C213 C 0.18465 0.98556 0.76276 0.0
C214 C 0.08039 0.96916 0.70164 0.0
H215 H 0.95581 0.90053 0.77226 0.0
H216 H 0.02198 0.91024 0.76712 0.0
H217 H 0.02168 0.95488 0.67211 0.0
H218 H 0.15645 0.04332 0.70791 0.0
H219 H 0.10387 0.01506 0.70271 0.0
H220 H 0.12953 0.96591 0.79591 0.0
C221 C 0.9954 0.9203 0.75141 0.0
C222 C 0.04528 0.95684 0.69922 0.0
C223 C 0.9575 0.91459 0.75403 0.0
C224 C 0.1651 0.02729 0.72342 0.0
C225 C 0.13486 0.01095 0.72012 0.0
C226 C 0.10673 0.96305 0.76862 0.0
C227 C 0.99917 0.93949 0.73006 0.0
C228 C 0.03973 0.94819 0.73162 0.0
C229 C 0.14415 0.98987 0.73963 0.0
C230 C 0.11082 0.97317 0.73653 0.0
H231 H 0.90027 0.95741 0.69871 0.0
H232 H 0.96573 0.96705 0.69345 0.0
H233 H 0.06804 0.94438 0.79172 0.0
H234 H 0.24619 0.99816 0.78369 0.0
H235 H 0.19271 0.96947 0.7782 0.0
C236 C 0.68424 0.96585 0.78547 0.0
C237 C 0.71279 0.97322 0.76937 0.0
C238 C 0.65255 0.98049 0.78611 0.0
C239 C 0.59122 0.02968 0.73569 0.0
H240 H 0.55415 0.03184 0.82059 0.0
C241 C 0.45996 0.07578 0.78774 0.0
C242 C 0.42495 0.07073 0.75682 0.0
C243 C 0.49825 0.0677 0.78922 0.0
C244 C 0.5644 0.0317 0.79679 0.0
H245 H 0.73095 0.00212 0.74227 0.0
H246 H 0.6756 0.02761 0.74339 0.0
H247 H 0.61572 0.01017 0.82531 0.0
H248 H 0.40333 0.05467 0.702 0.0
H249 H 0.47008 0.04076 0.70451 0.0
H250 H 0.53948 0.05092 0.70698 0.0
C251 C 0.67762 0.01042 0.75525 0.0
C252 C 0.59944 0.01906 0.79937 0.0
C253 C 0.7095 0.99584 0.75486 0.0
C254 C 0.4296 0.05883 0.7263 0.0
C255 C 0.46793 0.0509 0.72769 0.0
C256 C 0.55599 0.04219 0.73301 0.0
C257 C 0.64849 0.00282 0.77048 0.0
C258 C 0.61299 0.01766 0.76871 0.0
C259 C 0.50249 0.05458 0.75968 0.0
C260 C 0.5419 0.04314 0.76339 0.0
H261 H 0.68586 0.94857 0.79697 0.0
H262 H 0.63043 0.97402 0.79776 0.0
H263 H 0.60066 0.0288 0.71145 0.0
H264 H 0.45759 0.08489 0.81177 0.0
H265 H 0.5244 0.07113 0.81402 0.0
C266 C 0.7855 0.99619 0.21602 0.0
C267 C 0.79387 0.97444 0.23377 0.0
C268 C 0.81745 0.01127 0.21739 0.0
C269 C 0.9278 0.00974 0.23314 0.0
H270 H 0.92813 0.0752 0.25595 0.0
C271 C 0.07609 0.05779 0.2788 0.0
C272 C 0.07783 0.07605 0.2551 0.0
C273 C 0.03866 0.04953 0.27866 0.0
C274 C 0.92819 0.05697 0.24937 0.0
H275 H 0.84246 0.95178 0.26739 0.0
H276 H 0.89716 0.97783 0.27006 0.0
H277 H 0.86669 0.05198 0.24783 0.0
H278 H 0.0421 0.10149 0.21535 0.0
H279 H 0.97611 0.08695 0.21524 0.0
H280 H 0.98915 0.01437 0.23547 0.0
C281 C 0.86623 0.98321 0.25449 0.0
C282 C 0.89309 0.04373 0.24452 0.0
C283 C 0.83466 0.96827 0.25309 0.0
C284 C 0.04159 0.08753 0.23418 0.0
C285 C 0.00386 0.07914 0.23395 0.0
C286 C 0.96265 0.02281 0.23829 0.0
C287 C 0.85821 0.00477 0.23636 0.0
C288 C 0.89297 0.01982 0.23725 0.0
C289 C 0.00217 0.05927 0.25466 0.0
C290 C 0.96361 0.0464 0.24732 0.0
H291 H 0.75441 1.00149 0.20099 0.0
H292 H 0.81035 0.02778 0.20308 0.0
H293 H 0.92839 0.99155 0.2265 0.0
H294 H 0.1036 0.0487 0.29524 0.0
H295 H 0.03816 0.03442 0.29537 0.0
C296 C 0.04101 0.42503 0.71642 0.0
C297 C 0.07891 0.4326 0.74132 0.0
C298 C 0.00463 0.4347 0.71751 0.0
C299 C 0.96949 0.4897 0.74228 0.0
H300 H 0.86798 0.4583 0.7305 0.0
C301 C 0.83489 0.53937 0.75768 0.0
C302 C 0.79524 0.53447 0.73341 0.0
C303 C 0.86757 0.52519 0.75882 0.0
C304 C 0.89597 0.46733 0.73331 0.0
H305 H 0.10786 0.45476 0.78908 0.0
H306 H 0.04461 0.47145 0.79096 0.0
H307 H 0.92871 0.43565 0.73415 0.0
H308 H 0.75886 0.51044 0.6916 0.0
H309 H 0.81659 0.48574 0.69296 0.0
H310 H 0.93724 0.5213 0.74059 0.0
C311 C 0.04309 0.45838 0.77013 0.0
C312 C 0.93075 0.45435 0.73559 0.0
C313 C 0.07935 0.44869 0.76917 0.0
C314 C 0.78904 0.5147 0.71059 0.0
C315 C 0.82208 0.50051 0.71152 0.0
C316 C 0.93488 0.50261 0.73968 0.0
C317 C 0.00546 0.45215 0.74345 0.0
C318 C 0.96803 0.46543 0.74067 0.0
C319 C 0.86186 0.50578 0.73539 0.0
C320 C 0.89778 0.49165 0.73577 0.0
H321 H 0.03946 0.41263 0.69465 0.0
H322 H 0.97609 0.42953 0.69662 0.0
H323 H 0.99744 0.4988 0.74511 0.0
H324 H 0.84087 0.55424 0.77609 0.0
H325 H 0.89748 0.5295 0.77829 0.0
C326 C 0.71719 0.50799 0.26582 0.0
C327 C 0.71246 0.53211 0.26685 0.0
C328 C 0.68477 0.49326 0.26425 0.0
C329 C 0.57224 0.49522 0.23646 0.0
H330 H 0.58384 0.43618 0.28741 0.0
C331 C 0.46445 0.42948 0.28524 0.0
C332 C 0.42834 0.43207 0.25431 0.0
C333 C 0.50145 0.43775 0.28386 0.0
C334 C 0.58005 0.45266 0.27306 0.0
H335 H 0.67156 0.55966 0.26998 0.0
H336 H 0.616 0.5342 0.26857 0.0
H337 H 0.64435 0.45926 0.2938 0.0
H338 H 0.40338 0.44341 0.1966 0.0
H339 H 0.46811 0.45694 0.19359 0.0
H340 H 0.5082 0.48948 0.21723 0.0
C341 C 0.64384 0.52653 0.26742 0.0
C342 C 0.61481 0.46578 0.27644 0.0
C343 C 0.67583 0.54114 0.26853 0.0
C344 C 0.43059 0.44144 0.22105 0.0
C345 C 0.4677 0.44938 0.21947 0.0
C346 C 0.53765 0.48226 0.23331 0.0
C347 C 0.64732 0.50246 0.26401 0.0
C348 C 0.61119 0.48745 0.25876 0.0
C349 C 0.50332 0.44853 0.25135 0.0
C350 C 0.54091 0.46094 0.25193 0.0
H351 H 0.74512 0.50058 0.26442 0.0
H352 H 0.6885 0.4748 0.26169 0.0
H353 H 0.56829 0.51157 0.2217 0.0
H354 H 0.46377 0.42241 0.31137 0.0
H355 H 0.52801 0.43691 0.30907 0.0
C356 C 0.92446 0.55564 0.2172 0.0
C357 C 0.92335 0.57245 0.24353 0.0
C358 C 0.96163 0.54792 0.21531 0.0
C359 C 0.06926 0.54223 0.27563 0.0
H360 H 0.08182 0.51981 0.18427 0.0
C361 C 0.21505 0.49426 0.27238 0.0
C362 C 0.20702 0.47369 0.2514 0.0
C363 C 0.18335 0.50976 0.27031 0.0
C364 C 0.07878 0.526 0.21004 0.0
H365 H 0.9606 0.59555 0.28664 0.0
H366 H 0.02534 0.58237 0.28282 0.0
H367 H 0.02103 0.54177 0.18104 0.0
H368 H 0.15928 0.45342 0.21165 0.0
H369 H 0.10467 0.48027 0.20808 0.0
H370 H 0.12679 0.52603 0.30459 0.0
C371 C 0.99745 0.57475 0.26425 0.0
C372 C 0.0439 0.53855 0.2082 0.0
C373 C 0.96025 0.58245 0.26619 0.0
C374 C 0.16674 0.46907 0.22824 0.0
C375 C 0.13535 0.48458 0.2259 0.0
C376 C 0.10429 0.52977 0.27743 0.0
C377 C 0.99869 0.5569 0.23957 0.0
C378 C 0.03817 0.54632 0.24103 0.0
C379 C 0.14318 0.50511 0.24684 0.0
C380 C 0.10891 0.52099 0.24473 0.0
H381 H 0.89672 0.54754 0.19925 0.0
H382 H 0.9613 0.53402 0.19614 0.0
H383 H 0.06573 0.54768 0.30155 0.0
H384 H 0.24571 0.49832 0.29052 0.0
H385 H 0.19028 0.52547 0.28678 0.0
C386 C 0.53509 0.58054 0.7058 0.0
C387 C 0.57156 0.57178 0.73162 0.0
C388 C 0.49731 0.57302 0.70645 0.0
C389 C 0.4482 0.54009 0.7639 0.0
H390 H 0.37033 0.52246 0.66753 0.0
C391 C 0.33254 0.46773 0.7474 0.0
C392 C 0.29181 0.47135 0.72438 0.0
C393 C 0.36254 0.4838 0.74849 0.0
C394 C 0.39143 0.52766 0.69458 0.0
H395 H 0.59668 0.54922 0.77975 0.0
H396 H 0.53128 0.53595 0.78056 0.0
H397 H 0.43078 0.54452 0.67032 0.0
H398 H 0.25086 0.49464 0.68392 0.0
H399 H 0.3041 0.52269 0.68519 0.0
H400 H 0.40981 0.52215 0.7881 0.0
C401 C 0.53161 0.5488 0.75996 0.0
C402 C 0.42606 0.54035 0.69625 0.0
C403 C 0.56929 0.55634 0.75937 0.0
C404 C 0.28193 0.49139 0.70199 0.0
C405 C 0.31232 0.50739 0.70267 0.0
C406 C 0.41384 0.52725 0.76221 0.0
C407 C 0.49512 0.55658 0.73295 0.0
C408 C 0.45547 0.54617 0.73099 0.0
C409 C 0.35285 0.50382 0.72627 0.0
C410 C 0.38568 0.52036 0.72759 0.0
H411 H 0.53564 0.59254 0.68412 0.0
H412 H 0.46983 0.57968 0.68563 0.0
H413 H 0.46965 0.54472 0.79109 0.0
H414 H 0.34136 0.45255 0.76509 0.0
H415 H 0.39361 0.48038 0.76648 0.0
C416 C 0.0675 0.05614 0.10566 0.0
C417 C 0.1018 0.04457 0.13012 0.0
C418 C 0.04253 0.04547 0.07313 0.0
C419 C 0.04089 0.99935 0.00656 0.0
H420 H 0.92362 0.00588 0.97819 0.0
C421 C 0.92965 0.94795 0.88555 0.0
C422 C 0.89594 0.95987 0.86088 0.0
C423 C 0.9544 0.9583 0.9185 0.0
C424 C 0.9563 0.00414 0.98555 0.0
H425 H 0.137 0.01275 0.13935 0.0
H426 H 0.09288 0.99394 0.08231 0.0
H427 H 0.96801 0.02331 0.03618 0.0
H428 H 0.86144 0.99194 0.85178 0.0
H429 H 0.90513 0.01017 0.90958 0.0
H430 H 0.02917 0.98019 0.95592 0.0
C431 C 0.08565 0.01139 0.0884 0.0
C432 C 0.98172 0.01406 0.01875 0.0
C433 C 0.11077 0.0221 0.1211 0.0
C434 C 0.88723 0.98233 0.87017 0.0
C435 C 0.9121 0.99271 0.90331 0.0
C436 C 0.01548 0.98942 0.97338 0.0
C437 C 0.05118 0.02297 0.0642 0.0
C438 C 0.02427 0.01182 0.02954 0.0
C439 C 0.94607 0.98081 0.92765 0.0
C440 C 0.97293 0.99172 0.96254 0.0
H441 H 0.05986 0.07355 0.11152 0.0
H442 H 0.01664 0.055 0.0547 0.0
H443 H 0.07357 0.99765 0.01386 0.0
H444 H 0.93707 0.93053 0.87948 0.0
H445 H 0.97991 0.94855 0.93702 0.0
C446 C 0.61258 0.98263 0.11777 0.0
C447 C 0.61484 0.95835 0.12004 0.0
C448 C 0.58513 0.99347 0.08624 0.0
C449 C 0.4865 0.987 0.01753 0.0
H450 H 0.52002 0.02631 0.9508 0.0
C451 C 0.37904 0.0451 0.89856 0.0
C452 C 0.38152 0.04034 0.86321 0.0
C453 C 0.40682 0.03505 0.93072 0.0
C454 C 0.51039 0.01544 0.96939 0.0
H455 H 0.59041 0.92641 0.09104 0.0
H456 H 0.54177 0.94546 0.03657 0.0
H457 H 0.5717 0.00937 0.00622 0.0
H458 H 0.41488 0.02142 0.83373 0.0
H459 H 0.46395 0.00439 0.89008 0.0
H460 H 0.42517 0.99334 0.98105 0.0
C461 C 0.56162 0.95598 0.05898 0.0
C462 C 0.53978 0.00588 0.00096 0.0
C463 C 0.58963 0.94515 0.09 0.0
C464 C 0.41194 0.0252 0.86055 0.0
C465 C 0.4402 0.01562 0.89272 0.0
C466 C 0.45706 0.99699 0.98644 0.0
C467 C 0.55895 0.98017 0.05705 0.0
C468 C 0.52802 0.99137 0.02492 0.0
C469 C 0.43802 0.0206 0.92801 0.0
C470 C 0.46885 0.01102 0.96191 0.0
H471 H 0.63166 0.9932 0.14052 0.0
H472 H 0.58344 0.0122 0.08514 0.0
H473 H 0.47693 0.97586 0.03584 0.0
H474 H 0.35591 0.05675 0.90134 0.0
H475 H 0.4047 0.03909 0.95777 0.0
C476 C 0.60394 0.52313 0.62183 0.0
C477 C 0.61662 0.54596 0.6194 0.0
C478 C 0.57695 0.51217 0.59044 0.0
C479 C 0.53296 0.51474 0.48738 0.0
H480 H 0.4428 0.48212 0.50206 0.0
C481 C 0.39704 0.48253 0.36307 0.0
C482 C 0.38394 0.45981 0.36566 0.0
C483 C 0.42417 0.49347 0.3944 0.0
C484 C 0.46798 0.49098 0.49757 0.0
H485 H 0.61236 0.57476 0.58156 0.0
H486 H 0.56513 0.55562 0.52687 0.0
H487 H 0.49508 0.4995 0.55553 0.0
H488 H 0.3877 0.43118 0.40368 0.0
H489 H 0.43525 0.45025 0.45824 0.0
H490 H 0.50589 0.50621 0.42942 0.0
C491 C 0.57618 0.5462 0.55306 0.0
C492 C 0.49798 0.50088 0.52819 0.0
C493 C 0.60316 0.55719 0.58446 0.0
C494 C 0.3972 0.44867 0.40066 0.0
C495 C 0.42437 0.45963 0.432 0.0
C496 C 0.50297 0.50483 0.45676 0.0
C497 C 0.56211 0.52376 0.55592 0.0
C498 C 0.5308 0.51286 0.52342 0.0
C499 C 0.43879 0.48196 0.42902 0.0
C500 C 0.47013 0.49286 0.46151 0.0
H501 H 0.61391 0.5139 0.64823 0.0
H502 H 0.56726 0.4947 0.59333 0.0
H503 H 0.55812 0.52363 0.48289 0.0
H504 H 0.3872 0.49169 0.33661 0.0
H505 H 0.43411 0.51086 0.3914 0.0
C506 C 0.09977 0.47904 0.62382 0.0
C507 C 0.11188 0.45601 0.62163 0.0
C508 C 0.07374 0.49031 0.59212 0.0
C509 C 0.03406 0.48822 0.48898 0.0
H510 H 0.94479 0.52409 0.49973 0.0
C511 C 0.90404 0.52376 0.36157 0.0
C512 C 0.89174 0.54672 0.36397 0.0
C513 C 0.9302 0.51244 0.39315 0.0
C514 C 0.96978 0.51433 0.49635 0.0
H515 H 0.10705 0.42702 0.58409 0.0
H516 H 0.06141 0.44668 0.52888 0.0
H517 H 0.99332 0.50528 0.55437 0.0
H518 H 0.89648 0.57557 0.40176 0.0
H519 H 0.94236 0.55585 0.45674 0.0
H520 H 0.01053 0.49728 0.43095 0.0
C521 C 0.07226 0.45604 0.55509 0.0
C522 C 0.99761 0.50359 0.52764 0.0
C523 C 0.09827 0.44474 0.5868 0.0
C524 C 0.90538 0.55789 0.39888 0.0
C525 C 0.93153 0.54656 0.43046 0.0
C526 C 0.00623 0.49897 0.45768 0.0
C527 C 0.05931 0.47884 0.55752 0.0
C528 C 0.03007 0.49043 0.5243 0.0
C529 C 0.94459 0.5238 0.42785 0.0
C530 C 0.97379 0.51214 0.46103 0.0
H531 H 0.10984 0.48829 0.65015 0.0
H532 H 0.06483 0.50802 0.59473 0.0
H533 H 0.05905 0.47845 0.48561 0.0
H534 H 0.89396 0.51459 0.33517 0.0
H535 H 0.9392 0.49477 0.39039 0.0
C536 C 0.22261 0.09079 0.8549 0.0
C537 C 0.24754 0.10612 0.8441 0.0
C538 C 0.21375 0.09495 0.88747 0.0
C539 C 0.18782 0.11117 0.95162 0.0
H540 H 0.27769 0.13529 0.03498 0.0
C541 C 0.1724 0.12316 0.09548 0.0
C542 C 0.20568 0.11591 0.12647 0.0
C543 C 0.17648 0.12593 0.06058 0.0
C544 C 0.25235 0.12843 0.01208 0.0
H545 H 0.28014 0.13865 0.85685 0.0
H546 H 0.26331 0.14643 0.91258 0.0
H547 H 0.28465 0.13172 0.97395 0.0
H548 H 0.26968 0.10672 0.14574 0.0
H549 H 0.27668 0.11085 0.08452 0.0
H550 H 0.1565 0.10654 0.99031 0.0
C551 C 0.25191 0.13073 0.89702 0.0
C552 C 0.25607 0.12671 0.97685 0.0
C553 C 0.26131 0.12637 0.86493 0.0
C554 C 0.24363 0.1125 0.12234 0.0
C555 C 0.24759 0.11492 0.08723 0.0
C556 C 0.18427 0.11266 0.98696 0.0
C557 C 0.22918 0.11471 0.90941 0.0
C558 C 0.22398 0.11787 0.94623 0.0
C559 C 0.21377 0.12113 0.05575 0.0
C560 C 0.21665 0.12111 0.01771 0.0
H561 H 0.21185 0.07499 0.83936 0.0
H562 H 0.19644 0.08213 0.89632 0.0
H563 H 0.16233 0.10456 0.92862 0.0
H564 H 0.14286 0.12617 0.09801 0.0
H565 H 0.15011 0.13133 0.03721 0.0
C566 C 0.74959 0.89357 0.86251 0.0
C567 C 0.78726 0.88894 0.85851 0.0
C568 C 0.74448 0.89001 0.89694 0.0
C569 C 0.80651 0.88591 -0.00244 0.0
H570 H 0.70228 0.87166 0.0069 0.0
C571 C 0.72506 0.87324 0.11679 0.0
C572 C 0.74304 0.8919 0.14023 0.0
C573 C 0.73355 0.86926 0.08409 0.0
C574 C 0.73186 0.87526 0.00499 0.0
H575 H 0.84811 0.87535 0.88614 0.0
H576 H 0.8387 0.8681 0.94557 0.0
H577 H 0.70977 0.86964 0.94589 0.0
H578 H 0.78493 0.9206 0.14859 0.0
H579 H 0.7988 0.91421 0.09089 0.0
H580 H 0.8289 0.89096 0.05675 0.0
C581 C 0.81357 0.87538 0.92282 0.0
C582 C 0.73596 0.87446 0.9698 0.0
C583 C 0.81889 0.87936 0.88869 0.0
C584 C 0.77088 0.90599 0.13114 0.0
C585 C 0.7789 0.90224 0.09809 0.0
C586 C 0.80256 0.88642 0.03278 0.0
C587 C 0.77677 0.88137 0.92779 0.0
C588 C 0.77314 0.88016 0.96553 0.0
C589 C 0.75969 0.88409 0.07378 0.0
C590 C 0.765 0.88152 0.03687 0.0
H591 H 0.72485 0.90114 0.83969 0.0
H592 H 0.71585 0.89507 0.89976 0.0
H593 H 0.83551 0.89074 -0.00459 0.0
H594 H 0.70381 0.86192 0.12336 0.0
H595 H 0.71902 0.85478 0.06657 0.0
C596 C 0.74097 0.60538 0.36375 0.0
C597 C 0.77289 0.61575 0.35511 0.0
C598 C 0.73634 0.60964 0.39814 0.0
C599 C 0.72335 0.62902 0.46709 0.0
H600 H 0.82255 0.6255 0.5537 0.0
C601 C 0.71714 0.63482 0.61444 0.0
C602 C 0.73847 0.61724 0.63895 0.0
C603 C 0.72475 0.63917 0.58151 0.0
C604 C 0.79464 0.62656 0.52978 0.0
H605 H 0.82361 0.63969 0.37477 0.0
H606 H 0.81509 0.6473 0.43445 0.0
H607 H 0.8265 0.62434 0.49103 0.0
H608 H 0.78617 0.59139 0.64952 0.0
H609 H 0.799 0.59868 0.59141 0.0
H610 H 0.69131 0.6301 0.50569 0.0
C611 C 0.79421 0.63554 0.41501 0.0
C612 C 0.79689 0.62614 0.49392 0.0
C613 C 0.79893 0.63124 0.38075 0.0
C614 C 0.76935 0.60505 0.6311 0.0
C615 C 0.77675 0.60929 0.5979 0.0
C616 C 0.72109 0.62941 0.50291 0.0
C617 C 0.76345 0.62439 0.42438 0.0
C618 C 0.7612 0.62699 0.46224 0.0
C619 C 0.75358 0.6259 0.57226 0.0
C620 C 0.75667 0.62783 0.53461 0.0
H621 H 0.72053 0.5933 0.3446 0.0
H622 H 0.71256 0.60062 0.40476 0.0
H623 H 0.6954 0.62993 0.44318 0.0
H624 H 0.69359 0.64476 0.62011 0.0
H625 H 0.7071 0.65243 0.56269 0.0
C626 C 0.20187 0.37204 0.60523 0.0
C627 C 0.22882 0.38693 0.63135 0.0
C628 C 0.2058 0.36823 0.57053 0.0
C629 C 0.2755 0.37467 0.51747 0.0
H630 H 0.17568 0.38146 0.43215 0.0
C631 C 0.22954 0.40212 0.35502 0.0
C632 C 0.25911 0.38933 0.34611 0.0
C633 C 0.22208 0.39751 0.38809 0.0
C634 C 0.20373 0.37948 0.45571 0.0
H635 H 0.2821 0.40868 0.64228 0.0
H636 H 0.28879 0.40214 0.5814 0.0
H637 H 0.17292 0.3816 0.49532 0.0
H638 H 0.30131 0.36039 0.36265 0.0
H639 H 0.28768 0.35211 0.41983 0.0
H640 H 0.30656 0.37362 0.47811 0.0
C641 C 0.26484 0.39328 0.58797 0.0
C642 C 0.20215 0.37932 0.49182 0.0
C643 C 0.26095 0.39708 0.62277 0.0
C644 C 0.27885 0.37081 0.36923 0.0
C645 C 0.27117 0.3661 0.402 0.0
C646 C 0.27708 0.37482 0.48142 0.0
C647 C 0.23672 0.37923 0.56125 0.0
C648 C 0.23811 0.37727 0.52303 0.0
C649 C 0.24388 0.37995 0.41247 0.0
C650 C 0.24128 0.37756 0.45022 0.0
H651 H 0.17697 0.36377 0.61112 0.0
H652 H 0.18415 0.35701 0.55069 0.0
H653 H 0.30361 0.37286 0.54103 0.0
H654 H 0.21395 0.41649 0.33763 0.0
H655 H 0.201 0.40855 0.39556 0.0
C656 C 0.24599 0.05036 0.36126 0.0
C657 C 0.25412 0.06937 0.34199 0.0
C658 C 0.25582 0.05116 0.39994 0.0
C659 C 0.25745 0.09138 0.47104 0.0
H660 H 0.31135 0.04266 0.54069 0.0
C661 C 0.26848 0.0935 0.62597 0.0
C662 C 0.2663 0.07225 0.64305 0.0
C663 C 0.27119 0.0941 0.59023 0.0
C664 C 0.29574 0.05628 0.52153 0.0
H665 H 0.28004 0.10377 0.34778 0.0
H666 H 0.29622 0.10543 0.41582 0.0
H667 H 0.31191 0.04163 0.47681 0.0
H668 H 0.26366 0.03502 0.6358 0.0
H669 H 0.26621 0.03603 0.5728 0.0
H670 H 0.23899 0.10538 0.51461 0.0
C671 C 0.28284 0.08984 0.40087 0.0
C672 C 0.29653 0.05579 0.48514 0.0
C673 C 0.27384 0.08883 0.36216 0.0
C674 C 0.26556 0.05165 0.62335 0.0
C675 C 0.26752 0.05225 0.58739 0.0
C676 C 0.25599 0.09168 0.50722 0.0
C677 C 0.27315 0.07117 0.41987 0.0
C678 C 0.277 0.07319 0.45954 0.0
C679 C 0.27109 0.07345 0.57059 0.0
C680 C 0.2746 0.07393 0.53277 0.0
H681 H 0.23078 0.03517 0.34623 0.0
H682 H 0.24781 0.03663 0.414 0.0
H683 H 0.24163 0.10481 0.4515 0.0
H684 H 0.26964 0.10965 0.64075 0.0
H685 H 0.27441 0.11073 0.57846 0.0
C686 C 0.73255 0.91919 0.62422 0.0
C687 C 0.74992 0.93856 0.64596 0.0
C688 C 0.72611 0.9191 0.58587 0.0
C689 C 0.76526 0.94874 0.51884 0.0
H690 H 0.68095 0.91383 0.44476 0.0
C691 C 0.73579 0.9533 0.36033 0.0
C692 C 0.73374 0.93188 0.34232 0.0
C693 C 0.73665 0.95423 0.3972 0.0
C694 C 0.70472 0.92354 0.46532 0.0
H695 H 0.77097 0.97365 0.64478 0.0
H696 H 0.75753 0.97411 0.5777 0.0
H697 H 0.68061 0.9164 0.50876 0.0
H698 H 0.73079 0.89468 0.3486 0.0
H699 H 0.73166 0.89641 0.41311 0.0
H700 H 0.78868 0.95629 0.47506 0.0
C701 C 0.75063 0.95855 0.59018 0.0
C702 C 0.70463 0.92499 0.50194 0.0
C703 C 0.75791 0.95842 0.62852 0.0
C704 C 0.73274 0.91141 0.36193 0.0
C705 C 0.73285 0.91238 0.39861 0.0
C706 C 0.76491 0.9476 0.48218 0.0
C707 C 0.7363 0.93857 0.56863 0.0
C708 C 0.73498 0.93759 0.5292 0.0
C709 C 0.73472 0.9338 0.41646 0.0
C710 C 0.73478 0.93493 0.45519 0.0
H711 H 0.72653 0.9036 0.63725 0.0
H712 H 0.71528 0.90335 0.57028 0.0
H713 H 0.78982 0.95805 0.53918 0.0
H714 H 0.73653 0.96935 0.34587 0.0
H715 H 0.73798 0.97095 0.41044 0.0
C716 C 0.73639 0.5957 0.86188 0.0
C717 C 0.73338 0.57521 0.84124 0.0
C718 C 0.73768 0.59481 0.89885 0.0
C719 C 0.76296 0.55749 0.98079 0.0
H720 H 0.68961 0.59737 0.00996 0.0
C721 C 0.75271 0.55214 0.12768 0.0
C722 C 0.75177 0.57335 0.14535 0.0
C723 C 0.74668 0.55143 0.08954 0.0
C724 C 0.71052 0.58628 0.00234 0.0
H725 H 0.73045 0.53773 0.84337 0.0
H726 H 0.73334 0.53625 0.90828 0.0
H727 H 0.689 0.59838 0.94571 0.0
H728 H 0.7427 0.6104 0.13683 0.0
H729 H 0.73317 0.60924 0.07057 0.0
H730 H 0.78542 0.54582 0.03747 0.0
C731 C 0.73452 0.55293 0.89569 0.0
C732 C 0.71013 0.58686 0.96562 0.0
C733 C 0.73277 0.55381 0.85858 0.0
C734 C 0.74337 0.59376 0.12395 0.0
C735 C 0.73774 0.59308 0.0859 0.0
C736 C 0.76367 0.55706 0.01761 0.0
C737 C 0.73642 0.57343 0.91593 0.0
C738 C 0.73649 0.57256 0.95463 0.0
C739 C 0.74001 0.57195 0.06842 0.0
C740 C 0.73759 0.57154 0.02883 0.0
H741 H 0.73674 0.61246 0.84921 0.0
H742 H 0.73959 0.61084 0.91411 0.0
H743 H 0.7838 0.54644 0.97297 0.0
H744 H 0.75879 0.5361 0.14341 0.0
H745 H 0.7478 0.53484 0.07671 0.0
C746 C 0.25735 0.40929 0.86239 0.0
C747 C 0.24993 0.42962 0.84084 0.0
C748 C 0.26273 0.41023 0.90036 0.0
C749 C 0.23744 0.44723 0.96782 0.0
H750 H 0.31019 0.40554 0.04054 0.0
C751 C 0.26751 0.45159 0.12657 0.0
C752 C 0.26597 0.43038 0.14409 0.0
C753 C 0.26592 0.45213 0.08951 0.0
C754 C 0.28959 0.41716 0.02039 0.0
H755 H 0.24443 0.467 0.8424 0.0
H756 H 0.25498 0.4687 0.90898 0.0
H757 H 0.31027 0.40597 0.97648 0.0
H758 H 0.26104 0.39313 0.13651 0.0
H759 H 0.25846 0.39413 0.07166 0.0
H760 H 0.21716 0.45854 0.01202 0.0
C761 C 0.25552 0.45198 0.89633 0.0
C762 C 0.2896 0.41742 0.98379 0.0
C763 C 0.24973 0.45101 0.85827 0.0
C764 C 0.2621 0.40974 0.12368 0.0
C765 C 0.26098 0.41028 0.08675 0.0
C766 C 0.23775 0.44713 0.00451 0.0
C767 C 0.26118 0.43155 0.91758 0.0
C768 C 0.26323 0.43229 0.95703 0.0
C769 C 0.26324 0.43145 0.06952 0.0
C770 C 0.26353 0.43193 0.03095 0.0
H771 H 0.25743 0.39253 0.84968 0.0
H772 H 0.26652 0.39415 0.91583 0.0
H773 H 0.21621 0.45858 0.94771 0.0
H774 H 0.27048 0.46778 0.14162 0.0
H775 H 0.26788 0.46865 0.07677 0.0
C776 C 0.2458 0.16521 0.28059 0.0
C777 C 0.20863 0.15844 0.25359 0.0
C778 C 0.25852 0.18827 0.28304 0.0
C779 C 0.22321 0.24804 0.25167 0.0
H780 H 0.33553 0.25763 0.25903 0.0
C781 C 0.27304 0.33558 0.21545 0.0
C782 C 0.30695 0.34542 0.24285 0.0
C783 C 0.26494 0.31203 0.21632 0.0
C784 C 0.3042 0.2552 0.2572 0.0
H785 H 0.15449 0.17103 0.2098 0.0
H786 H 0.17666 0.21101 0.21394 0.0
H787 H 0.3118 0.21856 0.26522 0.0
H788 H 0.36094 0.33807 0.29075 0.0
H789 H 0.34691 0.2966 0.29212 0.0
H790 H 0.21538 0.28454 0.24302 0.0
C791 C 0.19602 0.19858 0.23335 0.0
C792 C 0.29061 0.23287 0.26097 0.0
C793 C 0.18327 0.17556 0.23094 0.0
C794 C 0.3348 0.33087 0.26905 0.0
C795 C 0.32659 0.30718 0.26999 0.0
C796 C 0.23669 0.27026 0.24767 0.0
C797 C 0.23435 0.20509 0.25864 0.0
C798 C 0.24978 0.229 0.2578 0.0
C799 C 0.2905 0.29781 0.24472 0.0
C800 C 0.27715 0.27406 0.24984 0.0
H801 H 0.26602 0.15252 0.2987 0.0
H802 H 0.2878 0.19279 0.30341 0.0
H803 H 0.19184 0.24579 0.24983 0.0
H804 H 0.2512 0.34641 0.19484 0.0
H805 H 0.23746 0.30516 0.19588 0.0
C806 C 0.32049 0.1699 0.76914 0.0
C807 C 0.29351 0.15482 0.74351 0.0
C808 C 0.31084 0.19347 0.76932 0.0
C809 C 0.21959 0.23091 0.74298 0.0
H810 H 0.29682 0.28134 0.76323 0.0
C811 C 0.17313 0.32798 0.72712 0.0
C812 C 0.20042 0.34385 0.75059 0.0
C813 C 0.18284 0.30433 0.72942 0.0
C814 C 0.27493 0.26741 0.75818 0.0
H815 H 0.23739 0.15278 0.696 0.0
H816 H 0.22125 0.19382 0.69559 0.0
H817 H 0.31972 0.242 0.75817 0.0
H818 H 0.25713 0.34746 0.79699 0.0
H819 H 0.27326 0.30626 0.80209 0.0
H820 H 0.17478 0.2563 0.74294 0.0
C821 C 0.24911 0.18747 0.71628 0.0
C822 C 0.2881 0.24487 0.7551 0.0
C823 C 0.25862 0.16402 0.71622 0.0
C824 C 0.23561 0.33552 0.77854 0.0
C825 C 0.24511 0.31198 0.78107 0.0
C826 C 0.20643 0.25345 0.74613 0.0
C827 C 0.27416 0.2023 0.7438 0.0
C828 C 0.26053 0.22636 0.7472 0.0
C829 C 0.21987 0.29623 0.75539 0.0
C830 C 0.23391 0.27201 0.75368 0.0
H831 H 0.34733 0.16323 0.79078 0.0
H832 H 0.33083 0.20445 0.79087 0.0
H833 H 0.19769 0.21698 0.73766 0.0
H834 H 0.14614 0.334 0.70494 0.0
H835 H 0.1627 0.2927 0.70915 0.0
C836 C 0.66173 0.67497 0.71615 0.0
C837 C 0.68956 0.66061 0.74273 0.0
C838 C 0.66955 0.69873 0.71512 0.0
C839 C 0.75893 0.73593 0.73763 0.0
H840 H 0.68389 0.78763 0.72045 0.0
C841 C 0.81316 0.83039 0.75534 0.0
C842 C 0.78799 0.84773 0.73309 0.0
C843 C 0.80004 0.80744 0.75263 0.0
C844 C 0.70506 0.77332 0.72457 0.0
H845 H 0.74481 0.66001 0.79127 0.0
H846 H 0.75789 0.70133 0.79002 0.0
H847 H 0.66009 0.7485 0.72627 0.0
H848 H 0.7304 0.85411 0.68849 0.0
H849 H 0.70799 0.81392 0.6832 0.0
H850 H 0.80381 0.7604 0.73562 0.0
C851 C 0.7307 0.69429 0.76941 0.0
C852 C 0.69143 0.75095 0.72815 0.0
C853 C 0.72297 0.6707 0.77039 0.0
C854 C 0.75053 0.84125 0.70624 0.0
C855 C 0.73744 0.81823 0.70348 0.0
C856 C 0.77243 0.75816 0.73377 0.0
C857 C 0.70526 0.70833 0.74066 0.0
C858 C 0.71849 0.7321 0.73544 0.0
C859 C 0.76152 0.80117 0.72742 0.0
C860 C 0.74592 0.77723 0.72785 0.0
H861 H 0.63599 0.66759 0.69424 0.0
H862 H 0.64933 0.70918 0.69273 0.0
H863 H 0.78025 0.72164 0.74223 0.0
H864 H 0.84215 0.83469 0.77637 0.0
H865 H 0.81935 0.79485 0.77174 0.0
C866 C 0.76528 0.66734 0.20866 0.0
C867 C 0.80043 0.65911 0.23675 0.0
C868 C 0.75483 0.69074 0.20684 0.0
C869 C 0.79056 0.74917 0.24464 0.0
H870 H 0.67636 0.75852 0.23117 0.0
C871 C 0.73409 0.83709 0.27523 0.0
C872 C 0.69978 0.84613 0.24705 0.0
C873 C 0.74411 0.8137 0.27546 0.0
C874 C 0.70823 0.75623 0.23471 0.0
H875 H 0.85374 0.66901 0.28338 0.0
H876 H 0.83553 0.71004 0.28042 0.0
H877 H 0.7012 0.7198 0.22502 0.0
H878 H 0.64728 0.83753 0.19867 0.0
H879 H 0.66461 0.79642 0.19912 0.0
H880 H 0.7976 0.78559 0.25463 0.0
C881 C 0.81615 0.69847 0.25949 0.0
C882 C 0.72251 0.73405 0.23098 0.0
C883 C 0.82682 0.67499 0.26107 0.0
C884 C 0.67359 0.83095 0.22101 0.0
C885 C 0.68375 0.80744 0.22113 0.0
C886 C 0.7763 0.77132 0.24847 0.0
C887 C 0.77906 0.7064 0.23341 0.0
C888 C 0.76387 0.73024 0.2359 0.0
C889 C 0.72015 0.79883 0.24735 0.0
C890 C 0.73501 0.7751 0.24374 0.0
H891 H 0.74444 0.65538 0.18959 0.0
H892 H 0.72668 0.69635 0.18573 0.0
H893 H 0.82244 0.74692 0.24821 0.0
H894 H 0.75474 0.84845 0.29567 0.0
H895 H 0.77172 0.80748 0.29665 0.0
loop_
_geom_bond_atom_site_label_1
_geom_bond_atom_site_label_2
_geom_bond_distance
_geom_bond_site_symmetry_2
_ccdc_geom_bond_type
Fe0 O2 1.918 . S
Fe0 O5 1.997 . S
Fe0 O6 2.002 . S
Fe0 O11 1.976 . S
Fe0 O14 1.996 . S
Fe1 O2 1.918 . S
Fe1 O9 1.997 . S
Fe1 O12 1.996 . S
Fe1 O16 1.976 . S
Fe1 O19 2.002 . S
O2 Fe0 1.918 . S
O2 Fe1 1.918 . S
O2 Fe3 1.918 . S
Fe3 O2 1.918 . S
Fe3 O4 2.002 . S
Fe3 O13 1.976 . S
Fe3 O17 1.996 . S
Fe3 O20 1.997 . S
O4 Fe3 2.002 . S
O4 C21 1.295 . S
O5 Fe0 1.997 . S
O5 C21 1.235 . S
O6 Fe0 2.002 . S
O6 C7 1.295 . S
C7 O6 1.295 . S
C7 O9 1.235 . S
C8 O13 1.287 . S
C8 O14 1.255 . S
O9 Fe1 1.997 . S
O9 C7 1.235 . S
C10 O16 1.287 . S
C10 O17 1.255 . S
O11 Fe0 1.976 . S
O11 C18 1.287 . S
O12 Fe1 1.996 . S
O12 C18 1.255 . S
O13 Fe3 1.976 . S
O13 C8 1.287 . S
O14 Fe0 1.996 . S
O14 C8 1.255 . S
C15 O19 1.295 . S
C15 O20 1.235 . S
O16 Fe1 1.976 . S
O16 C10 1.287 . S
O17 Fe3 1.996 . S
O17 C10 1.255 . S
C18 O11 1.287 . S
C18 O12 1.255 . S
O19 Fe1 2.002 . S
O19 C15 1.295 . S
O20 Fe3 1.997 . S
O20 C15 1.235 . S
C21 O4 1.295 . S
C21 O5 1.235 . S
Fe22 O24 1.918 . S
Fe22 O27 1.997 . S
Fe22 O28 2.002 . S
Fe22 O33 1.976 . S
Fe22 O36 1.996 . S
Fe23 O24 1.918 . S
Fe23 O31 1.997 . S
Fe23 O34 1.996 . S
Fe23 O38 1.976 . S
Fe23 O41 2.002 . S
O24 Fe22 1.918 . S
O24 Fe23 1.918 . S
O24 Fe25 1.918 . S
Fe25 O24 1.918 . S
Fe25 O26 2.002 . S
Fe25 O35 1.976 . S
Fe25 O39 1.996 . S
Fe25 O42 1.997 . S
O26 Fe25 2.002 . S
O26 C43 1.295 . S
O27 Fe22 1.997 . S
O27 C43 1.235 . S
O28 Fe22 2.002 . S
O28 C29 1.295 . S
C29 O28 1.295 . S
C29 O31 1.235 . S
C30 O35 1.287 . S
C30 O36 1.255 . S
O31 Fe23 1.997 . S
O31 C29 1.235 . S
C32 O38 1.287 . S
C32 O39 1.255 . S
O33 Fe22 1.976 . S
O33 C40 1.287 . S
O34 Fe23 1.996 . S
O34 C40 1.255 . S
O35 Fe25 1.976 . S
O35 C30 1.287 . S
O36 Fe22 1.996 . S
O36 C30 1.255 . S
C37 O41 1.295 . S
C37 O42 1.235 . S
O38 Fe23 1.976 . S
O38 C32 1.287 . S
O39 Fe25 1.996 . S
O39 C32 1.255 . S
C40 O33 1.287 . S
C40 O34 1.255 . S
O41 Fe23 2.002 . S
O41 C37 1.295 . S
O42 Fe25 1.997 . S
O42 C37 1.235 . S
C43 O26 1.295 . S
C43 O27 1.235 . S
Fe44 O46 1.918 . S
Fe44 O49 1.997 . S
Fe44 O50 2.002 . S
Fe44 O55 1.976 . S
Fe44 O58 1.996 . S
Fe45 O46 1.918 . S
Fe45 O53 1.997 . S
Fe45 O56 1.996 . S
Fe45 O60 1.976 . S
Fe45 O63 2.002 . S
O46 Fe44 1.918 . S
O46 Fe45 1.918 . S
O46 Fe47 1.918 . S
Fe47 O46 1.918 . S
Fe47 O48 2.002 . S
Fe47 O57 1.976 . S
Fe47 O61 1.996 . S
Fe47 O64 1.997 . S
O48 Fe47 2.002 . S
O48 C65 1.295 . S
O49 Fe44 1.997 . S
O49 C65 1.235 . S
O50 Fe44 2.002 . S
O50 C51 1.295 . S
C51 O50 1.295 . S
C51 O53 1.235 . S
C52 O57 1.287 . S
C52 O58 1.255 . S
O53 Fe45 1.997 . S
O53 C51 1.235 . S
C54 O60 1.287 . S
C54 O61 1.255 . S
O55 Fe44 1.976 . S
O55 C62 1.287 . S
O56 Fe45 1.996 . S
O56 C62 1.255 . S
O57 Fe47 1.976 . S
O57 C52 1.287 . S
O58 Fe44 1.996 . S
O58 C52 1.255 . S
C59 O63 1.295 . S
C59 O64 1.235 . S
O60 Fe45 1.976 . S
O60 C54 1.287 . S
O61 Fe47 1.996 . S
O61 C54 1.255 . S
C62 O55 1.287 . S
C62 O56 1.255 . S
O63 Fe45 2.002 . S
O63 C59 1.295 . S
O64 Fe47 1.997 . S
O64 C59 1.235 . S
C65 O48 1.295 . S
C65 O49 1.235 . S
Fe66 O68 1.918 . S
Fe66 O71 1.997 . S
Fe66 O72 2.002 . S
Fe66 O77 1.976 . S
Fe66 O80 1.996 . S
Fe67 O68 1.918 . S
Fe67 O75 1.997 . S
Fe67 O78 1.996 . S
Fe67 O82 1.976 . S
Fe67 O85 2.002 . S
O68 Fe66 1.918 . S
O68 Fe67 1.918 . S
O68 Fe69 1.918 . S
Fe69 O68 1.918 . S
Fe69 O70 2.002 . S
Fe69 O79 1.976 . S
Fe69 O83 1.996 . S
Fe69 O86 1.997 . S
O70 Fe69 2.002 . S
O70 C87 1.295 . S
O71 Fe66 1.997 . S
O71 C87 1.235 . S
O72 Fe66 2.002 . S
O72 C73 1.295 . S
C73 O72 1.295 . S
C73 O75 1.235 . S
C74 O79 1.287 . S
C74 O80 1.255 . S
O75 Fe67 1.997 . S
O75 C73 1.235 . S
C76 O82 1.287 . S
C76 O83 1.255 . S
O77 Fe66 1.976 . S
O77 C84 1.287 . S
O78 Fe67 1.996 . S
O78 C84 1.255 . S
O79 Fe69 1.976 . S
O79 C74 1.287 . S
O80 Fe66 1.996 . S
O80 C74 1.255 . S
C81 O85 1.295 . S
C81 O86 1.235 . S
O82 Fe67 1.976 . S
O82 C76 1.287 . S
O83 Fe69 1.996 . S
O83 C76 1.255 . S
C84 O77 1.287 . S
C84 O78 1.255 . S
O85 Fe67 2.002 . S
O85 C81 1.295 . S
O86 Fe69 1.997 . S
O86 C81 1.235 . S
C87 O70 1.295 . S
C87 O71 1.235 . S
Fe88 O90 1.918 . S
Fe88 O93 1.997 . S
Fe88 O94 2.002 . S
Fe88 O99 1.976 . S
Fe88 O102 1.996 . S
Fe89 O90 1.918 . S
Fe89 O97 1.997 . S
Fe89 O100 1.996 . S
Fe89 O104 1.976 . S
Fe89 O107 2.002 . S
O90 Fe88 1.918 . S
O90 Fe89 1.918 . S
O90 Fe91 1.918 . S
Fe91 O90 1.918 . S
Fe91 O92 2.002 . S
Fe91 O101 1.976 . S
Fe91 O105 1.996 . S
Fe91 O108 1.997 . S
O92 Fe91 2.002 . S
O92 C109 1.295 . S
O93 Fe88 1.997 . S
O93 C109 1.235 . S
O94 Fe88 2.002 . S
O94 C95 1.295 . S
C95 O94 1.295 . S
C95 O97 1.235 . S
C96 O101 1.287 . S
C96 O102 1.255 . S
O97 Fe89 1.997 . S
O97 C95 1.235 . S
C98 O104 1.287 . S
C98 O105 1.255 . S
O99 Fe88 1.976 . S
O99 C106 1.287 . S
O100 Fe89 1.996 . S
O100 C106 1.255 . S
O101 Fe91 1.976 . S
O101 C96 1.287 . S
O102 Fe88 1.996 . S
O102 C96 1.255 . S
C103 O107 1.295 . S
C103 O108 1.235 . S
O104 Fe89 1.976 . S
O104 C98 1.287 . S
O105 Fe91 1.996 . S
O105 C98 1.255 . S
C106 O99 1.287 . S
C106 O100 1.255 . S
O107 Fe89 2.002 . S
O107 C103 1.295 . S
O108 Fe91 1.997 . S
O108 C103 1.235 . S
C109 O92 1.295 . S
C109 O93 1.235 . S
Fe110 O112 1.918 . S
Fe110 O115 1.997 . S
Fe110 O116 2.002 . S
Fe110 O121 1.976 . S
Fe110 O124 1.996 . S
Fe111 O112 1.918 . S
Fe111 O119 1.997 . S
Fe111 O122 1.996 . S
Fe111 O126 1.976 . S
Fe111 O129 2.002 . S
O112 Fe110 1.918 . S
O112 Fe111 1.918 . S
O112 Fe113 1.918 . S
Fe113 O112 1.918 . S
Fe113 O114 2.002 . S
Fe113 O123 1.976 . S
Fe113 O127 1.996 . S
Fe113 O130 1.997 . S
O114 Fe113 2.002 . S
O114 C131 1.295 . S
O115 Fe110 1.997 . S
O115 C131 1.235 . S
O116 Fe110 2.002 . S
O116 C117 1.295 . S
C117 O116 1.295 . S
C117 O119 1.235 . S
C118 O123 1.287 . S
C118 O124 1.255 . S
O119 Fe111 1.997 . S
O119 C117 1.235 . S
C120 O126 1.287 . S
C120 O127 1.255 . S
O121 Fe110 1.976 . S
O121 C128 1.287 . S
O122 Fe111 1.996 . S
O122 C128 1.255 . S
O123 Fe113 1.976 . S
O123 C118 1.287 . S
O124 Fe110 1.996 . S
O124 C118 1.255 . S
C125 O129 1.295 . S
C125 O130 1.235 . S
O126 Fe111 1.976 . S
O126 C120 1.287 . S
O127 Fe113 1.996 . S
O127 C120 1.255 . S
C128 O121 1.287 . S
C128 O122 1.255 . S
O129 Fe111 2.002 . S
O129 C125 1.295 . S
O130 Fe113 1.997 . S
O130 C125 1.235 . S
C131 O114 1.295 . S
C131 O115 1.235 . S
Fe132 O134 1.918 . S
Fe132 O137 1.997 . S
Fe132 O138 2.002 . S
Fe132 O143 1.976 . S
Fe132 O146 1.996 . S
Fe133 O134 1.918 . S
Fe133 O141 1.997 . S
Fe133 O144 1.996 . S
Fe133 O148 1.976 . S
Fe133 O151 2.002 . S
O134 Fe132 1.918 . S
O134 Fe133 1.918 . S
O134 Fe135 1.918 . S
Fe135 O134 1.918 . S
Fe135 O136 2.002 . S
Fe135 O145 1.976 . S
Fe135 O149 1.996 . S
Fe135 O152 1.997 . S
O136 Fe135 2.002 . S
O136 C153 1.295 . S
O137 Fe132 1.997 . S
O137 C153 1.235 . S
O138 Fe132 2.002 . S
O138 C139 1.295 . S
C139 O138 1.295 . S
C139 O141 1.235 . S
C140 O145 1.287 . S
C140 O146 1.255 . S
O141 Fe133 1.997 . S
O141 C139 1.235 . S
C142 O148 1.287 . S
C142 O149 1.255 . S
O143 Fe132 1.976 . S
O143 C150 1.287 . S
O144 Fe133 1.996 . S
O144 C150 1.255 . S
O145 Fe135 1.976 . S
O145 C140 1.287 . S
O146 Fe132 1.996 . S
O146 C140 1.255 . S
C147 O151 1.295 . S
C147 O152 1.235 . S
O148 Fe133 1.976 . S
O148 C142 1.287 . S
O149 Fe135 1.996 . S
O149 C142 1.255 . S
C150 O143 1.287 . S
C150 O144 1.255 . S
O151 Fe133 2.002 . S
O151 C147 1.295 . S
O152 Fe135 1.997 . S
O152 C147 1.235 . S
C153 O136 1.295 . S
C153 O137 1.235 . S
Fe154 O156 1.918 . S
Fe154 O159 1.997 . S
Fe154 O160 2.002 . S
Fe154 O165 1.976 . S
Fe154 O168 1.996 . S
Fe155 O156 1.918 . S
Fe155 O163 1.997 . S
Fe155 O166 1.996 . S
Fe155 O170 1.976 . S
Fe155 O173 2.002 . S
O156 Fe154 1.918 . S
O156 Fe155 1.918 . S
O156 Fe157 1.918 . S
Fe157 O156 1.918 . S
Fe157 O158 2.002 . S
Fe157 O167 1.976 . S
Fe157 O171 1.996 . S
Fe157 O174 1.997 . S
O158 Fe157 2.002 . S
O158 C175 1.295 . S
O159 Fe154 1.997 . S
O159 C175 1.235 . S
O160 Fe154 2.002 . S
O160 C161 1.295 . S
C161 O160 1.295 . S
C161 O163 1.235 . S
C162 O167 1.287 . S
C162 O168 1.255 . S
O163 Fe155 1.997 . S
O163 C161 1.235 . S
C164 O170 1.287 . S
C164 O171 1.255 . S
O165 Fe154 1.976 . S
O165 C172 1.287 . S
O166 Fe155 1.996 . S
O166 C172 1.255 . S
O167 Fe157 1.976 . S
O167 C162 1.287 . S
O168 Fe154 1.996 . S
O168 C162 1.255 . S
C169 O173 1.295 . S
C169 O174 1.235 . S
O170 Fe155 1.976 . S
O170 C164 1.287 . S
O171 Fe157 1.996 . S
O171 C164 1.255 . S
C172 O165 1.287 . S
C172 O166 1.255 . S
O173 Fe155 2.002 . S
O173 C169 1.295 . S
O174 Fe157 1.997 . S
O174 C169 1.235 . S
C175 O158 1.295 . S
C175 O159 1.235 . S
C176 C177 1.349 . S
C176 C178 1.327 . S
C176 H201 0.950 . S
C177 C176 1.349 . S
C177 C193 1.349 . S
C178 C176 1.327 . S
C178 C197 1.429 . S
C178 H202 0.950 . S
C179 C196 1.574 . S
C179 C198 1.368 . S
C179 H203 0.949 . S
H180 C184 0.949 1_545 S
C181 C182 1.349 . S
C181 C183 1.327 . S
C181 H204 0.950 . S
C182 C181 1.349 . S
C182 C194 1.349 . S
C183 C181 1.327 . S
C183 C199 1.429 . S
C183 H205 0.950 1_545 S
C184 H180 0.949 1_565 S
C184 C192 1.574 . S
C184 C200 1.368 . S
H185 C193 0.950 . S
H186 C191 0.950 . S
H187 C192 0.949 . S
H188 C194 0.950 . S
H189 C195 0.950 . S
H190 C196 0.949 . S
C191 H186 0.950 . S
C191 C193 1.327 . S
C191 C197 1.429 . S
C192 C184 1.574 . S
C192 H187 0.949 . S
C192 C198 1.368 . S
C193 C177 1.349 . S
C193 H185 0.950 . S
C193 C191 1.327 . S
C194 C182 1.349 . S
C194 H188 0.950 . S
C194 C195 1.327 . S
C195 H189 0.950 . S
C195 C194 1.327 . S
C195 C199 1.429 . S
C196 C179 1.574 . S
C196 H190 0.949 . S
C196 C200 1.368 . S
C197 C178 1.429 . S
C197 C191 1.429 . S
C197 C198 1.523 . S
C198 C179 1.368 . S
C198 C192 1.368 . S
C198 C197 1.523 . S
C199 C183 1.429 . S
C199 C195 1.429 . S
C199 C200 1.523 1_545 S
C200 C184 1.368 . S
C200 C196 1.368 . S
C200 C199 1.523 1_565 S
H201 C176 0.950 . S
H202 C178 0.950 . S
H203 C179 0.949 . S
H204 C181 0.950 . S
H205 C183 0.950 1_565 S
C206 C207 1.349 . S
C206 C208 1.327 . S
C206 H231 0.950 . S
C207 C206 1.349 . S
C207 C223 1.349 . S
C208 C206 1.327 . S
C208 C227 1.429 1_655 S
C208 H232 0.950 . S
C209 C226 1.574 . S
C209 C228 1.368 . S
C209 H233 0.949 . S
H210 C214 0.949 . S
C211 C212 1.349 . S
C211 C213 1.327 . S
C211 H234 0.950 . S
C212 C211 1.349 . S
C212 C224 1.349 . S
C213 C211 1.327 . S
C213 C229 1.429 . S
C213 H235 0.950 . S
C214 H210 0.949 . S
C214 C222 1.574 . S
C214 C230 1.368 . S
H215 C223 0.950 . S
H216 C221 0.950 1_455 S
H217 C222 0.949 . S
H218 C224 0.950 . S
H219 C225 0.950 . S
H220 C226 0.949 . S
C221 H216 0.950 1_655 S
C221 C223 1.327 . S
C221 C227 1.429 1_655 S
C222 C214 1.574 . S
C222 H217 0.949 . S
C222 C228 1.368 . S
C223 C207 1.349 . S
C223 H215 0.950 . S
C223 C221 1.327 . S
C224 C212 1.349 . S
C224 H218 0.950 . S
C224 C225 1.327 . S
C225 H219 0.950 . S
C225 C224 1.327 . S
C225 C229 1.429 . S
C226 C209 1.574 . S
C226 H220 0.949 . S
C226 C230 1.368 . S
C227 C208 1.429 1_455 S
C227 C221 1.429 1_455 S
C227 C228 1.523 . S
C228 C209 1.368 . S
C228 C222 1.368 . S
C228 C227 1.523 . S
C229 C213 1.429 . S
C229 C225 1.429 . S
C229 C230 1.523 1_545 S
C230 C214 1.368 . S
C230 C226 1.368 . S
C230 C229 1.523 1_565 S
H231 C206 0.950 . S
H232 C208 0.950 . S
H233 C209 0.949 . S
H234 C211 0.950 . S
H235 C213 0.950 . S
C236 C237 1.349 . S
C236 C238 1.327 . S
C236 H261 0.950 . S
C237 C236 1.349 . S
C237 C253 1.349 . S
C238 C236 1.327 . S
C238 C257 1.429 . S
C238 H262 0.950 . S
C239 C256 1.574 . S
C239 C258 1.368 . S
C239 H263 0.949 . S
H240 C244 0.949 . S
C241 C242 1.349 . S
C241 C243 1.327 . S
C241 H264 0.950 . S
C242 C241 1.349 . S
C242 C254 1.349 . S
C243 C241 1.327 . S
C243 C259 1.429 . S
C243 H265 0.950 . S
C244 H240 0.949 . S
C244 C252 1.567 1_545 S
C244 C260 1.368 . S
H245 C253 0.950 . S
H246 C251 0.946 1_545 S
H247 C252 0.959 . S
H248 C254 0.950 . S
H249 C255 0.950 . S
H250 C256 0.949 . S
C251 H246 0.946 1_565 S
C251 C253 1.329 . S
C251 C257 1.430 . S
C252 C244 1.567 1_565 S
C252 H247 0.959 . S
C252 C258 1.364 1_565 S
C253 C237 1.349 . S
C253 H245 0.950 . S
C253 C251 1.329 . S
C254 C242 1.349 . S
C254 H248 0.950 . S
C254 C255 1.327 . S
C255 H249 0.950 . S
C255 C254 1.327 . S
C255 C259 1.429 . S
C256 C239 1.574 . S
C256 H250 0.949 . S
C256 C260 1.368 . S
C257 C238 1.429 . S
C257 C251 1.430 . S
C257 C258 1.523 1_565 S
C258 C239 1.368 . S
C258 C252 1.364 1_545 S
C258 C257 1.523 1_545 S
C259 C243 1.429 . S
C259 C255 1.429 . S
C259 C260 1.523 . S
C260 C244 1.368 . S
C260 C256 1.368 . S
C260 C259 1.523 . S
H261 C236 0.950 . S
H262 C238 0.950 . S
H263 C239 0.949 . S
H264 C241 0.950 . S
H265 C243 0.950 . S
C266 C267 1.349 . S
C266 C268 1.327 1_565 S
C266 H291 0.950 . S
C267 C266 1.349 . S
C267 C283 1.349 . S
C268 C266 1.327 1_545 S
C268 C287 1.429 1_545 S
C268 H292 0.950 . S
C269 C286 1.574 1_565 S
C269 C288 1.368 1_565 S
C269 H293 0.949 . S
H270 C274 0.949 . S
C271 C272 1.349 . S
C271 C273 1.327 . S
C271 H294 0.950 . S
C272 C271 1.349 . S
C272 C284 1.349 . S
C273 C271 1.327 . S
C273 C289 1.429 1_455 S
C273 H295 0.950 . S
C274 H270 0.949 . S
C274 C282 1.574 . S
C274 C290 1.368 . S
H275 C283 0.950 . S
H276 C281 0.950 . S
H277 C282 0.949 . S
H278 C284 0.950 . S
H279 C285 0.950 . S
H280 C286 0.949 . S
C281 H276 0.950 . S
C281 C283 1.327 . S
C281 C287 1.429 . S
C282 C274 1.574 . S
C282 H277 0.949 . S
C282 C288 1.368 . S
C283 C267 1.349 . S
C283 H275 0.950 . S
C283 C281 1.327 . S
C284 C272 1.349 . S
C284 H278 0.950 . S
C284 C285 1.327 1_455 S
C285 H279 0.950 . S
C285 C284 1.327 1_655 S
C285 C289 1.429 . S
C286 C269 1.574 1_545 S
C286 H280 0.949 . S
C286 C290 1.368 . S
C287 C268 1.429 1_565 S
C287 C281 1.429 . S
C287 C288 1.523 1_565 S
C288 C269 1.368 1_545 S
C288 C282 1.368 . S
C288 C287 1.523 1_545 S
C289 C273 1.429 1_655 S
C289 C285 1.429 . S
C289 C290 1.523 . S
C290 C274 1.368 . S
C290 C286 1.368 . S
C290 C289 1.523 . S
H291 C266 0.950 . S
H292 C268 0.950 . S
H293 C269 0.949 . S
H294 C271 0.950 . S
H295 C273 0.950 . S
C296 C297 1.349 . S
C296 C298 1.327 1_455 S
C296 H321 0.950 . S
C297 C296 1.349 . S
C297 C313 1.349 . S
C298 C296 1.327 1_655 S
C298 C317 1.429 . S
C298 H322 0.950 . S
C299 C316 1.574 . S
C299 C318 1.368 . S
C299 H323 0.949 . S
H300 C304 0.949 . S
C301 C302 1.349 . S
C301 C303 1.327 . S
C301 H324 0.950 . S
C302 C301 1.349 . S
C302 C314 1.349 . S
C303 C301 1.327 . S
C303 C319 1.429 . S
C303 H325 0.950 . S
C304 H300 0.949 . S
C304 C312 1.574 . S
C304 C320 1.368 . S
H305 C313 0.950 . S
H306 C311 0.950 . S
H307 C312 0.949 . S
H308 C314 0.950 . S
H309 C315 0.950 . S
H310 C316 0.949 . S
C311 H306 0.950 . S
C311 C313 1.327 . S
C311 C317 1.429 1_455 S
C312 C304 1.574 . S
C312 H307 0.949 . S
C312 C318 1.368 . S
C313 C297 1.349 . S
C313 H305 0.950 . S
C313 C311 1.327 . S
C314 C302 1.349 . S
C314 H308 0.950 . S
C314 C315 1.327 . S
C315 H309 0.950 . S
C315 C314 1.327 . S
C315 C319 1.429 . S
C316 C299 1.574 . S
C316 H310 0.949 . S
C316 C320 1.368 . S
C317 C298 1.429 . S
C317 C311 1.429 1_655 S
C317 C318 1.523 . S
C318 C299 1.368 . S
C318 C312 1.368 . S
C318 C317 1.523 . S
C319 C303 1.429 . S
C319 C315 1.429 . S
C319 C320 1.523 . S
C320 C304 1.368 . S
C320 C316 1.368 . S
C320 C319 1.523 . S
H321 C296 0.950 . S
H322 C298 0.950 . S
H323 C299 0.949 . S
H324 C301 0.950 . S
H325 C303 0.950 . S
C326 C327 1.349 . S
C326 C328 1.327 . S
C326 H351 0.950 . S
C327 C326 1.349 . S
C327 C343 1.349 . S
C328 C326 1.327 . S
C328 C347 1.429 . S
C328 H352 0.950 . S
C329 C346 1.574 . S
C329 C348 1.368 . S
C329 H353 0.949 . S
H330 C334 0.949 . S
C331 C332 1.349 . S
C331 C333 1.327 . S
C331 H354 0.950 . S
C332 C331 1.349 . S
C332 C344 1.349 . S
C333 C331 1.327 . S
C333 C349 1.429 . S
C333 H355 0.950 . S
C334 H330 0.949 . S
C334 C342 1.574 . S
C334 C350 1.368 . S
H335 C343 0.950 . S
H336 C341 0.950 . S
H337 C342 0.949 . S
H338 C344 0.950 . S
H339 C345 0.950 . S
H340 C346 0.949 . S
C341 H336 0.950 . S
C341 C343 1.327 . S
C341 C347 1.429 . S
C342 C334 1.574 . S
C342 H337 0.949 . S
C342 C348 1.368 . S
C343 C327 1.349 . S
C343 H335 0.950 . S
C343 C341 1.327 . S
C344 C332 1.349 . S
C344 H338 0.950 . S
C344 C345 1.327 . S
C345 H339 0.950 . S
C345 C344 1.327 . S
C345 C349 1.429 . S
C346 C329 1.574 . S
C346 H340 0.949 . S
C346 C350 1.368 . S
C347 C328 1.429 . S
C347 C341 1.429 . S
C347 C348 1.523 . S
C348 C329 1.368 . S
C348 C342 1.368 . S
C348 C347 1.523 . S
C349 C333 1.429 . S
C349 C345 1.429 . S
C349 C350 1.523 . S
C350 C334 1.368 . S
C350 C346 1.368 . S
C350 C349 1.523 . S
H351 C326 0.950 . S
H352 C328 0.950 . S
H353 C329 0.949 . S
H354 C331 0.950 . S
H355 C333 0.950 . S
C356 C357 1.349 . S
C356 C358 1.327 . S
C356 H381 0.950 . S
C357 C356 1.349 . S
C357 C373 1.349 . S
C358 C356 1.327 . S
C358 C377 1.429 1_655 S
C358 H382 0.950 1_655 S
C359 C376 1.574 . S
C359 C378 1.368 . S
C359 H383 0.949 . S
H360 C364 0.949 . S
C361 C362 1.349 . S
C361 C363 1.327 . S
C361 H384 0.950 . S
C362 C361 1.349 . S
C362 C374 1.349 . S
C363 C361 1.327 . S
C363 C379 1.429 . S
C363 H385 0.950 . S
C364 H360 0.949 . S
C364 C372 1.574 . S
C364 C380 1.368 . S
H365 C373 0.950 . S
H366 C371 0.950 . S
H367 C372 0.949 . S
H368 C374 0.950 . S
H369 C375 0.950 . S
H370 C376 0.949 . S
C371 H366 0.950 . S
C371 C373 1.327 . S
C371 C377 1.429 1_655 S
C372 C364 1.574 . S
C372 H367 0.949 . S
C372 C378 1.368 . S
C373 C357 1.349 . S
C373 H365 0.950 . S
C373 C371 1.327 . S
C374 C362 1.349 . S
C374 H368 0.950 . S
C374 C375 1.327 . S
C375 H369 0.950 . S
C375 C374 1.327 . S
C375 C379 1.429 . S
C376 C359 1.574 . S
C376 H370 0.949 . S
C376 C380 1.368 . S
C377 C358 1.429 1_455 S
C377 C371 1.429 1_455 S
C377 C378 1.523 . S
C378 C359 1.368 . S
C378 C372 1.368 . S
C378 C377 1.523 . S
C379 C363 1.429 . S
C379 C375 1.429 . S
C379 C380 1.523 . S
C380 C364 1.368 . S
C380 C376 1.368 . S
C380 C379 1.523 . S
H381 C356 0.950 . S
H382 C358 0.950 1_455 S
H383 C359 0.949 . S
H384 C361 0.950 . S
H385 C363 0.950 . S
C386 C387 1.349 . S
C386 C388 1.327 . S
C386 H411 0.950 . S
C387 C386 1.349 . S
C387 C403 1.349 . S
C388 C386 1.327 . S
C388 C407 1.429 . S
C388 H412 0.950 . S
C389 C406 1.574 . S
C389 C408 1.368 . S
C389 H413 0.949 . S
H390 C394 0.949 . S
C391 C392 1.349 . S
C391 C393 1.327 . S
C391 H414 0.950 . S
C392 C391 1.349 . S
C392 C404 1.349 . S
C393 C391 1.327 . S
C393 C409 1.429 . S
C393 H415 0.950 . S
C394 H390 0.949 . S
C394 C402 1.574 . S
C394 C410 1.368 . S
H395 C403 0.950 . S
H396 C401 0.950 . S
H397 C402 0.949 . S
H398 C404 0.950 . S
H399 C405 0.950 . S
H400 C406 0.949 . S
C401 H396 0.950 . S
C401 C403 1.327 . S
C401 C407 1.429 . S
C402 C394 1.574 . S
C402 H397 0.949 . S
C402 C408 1.368 . S
C403 C387 1.349 . S
C403 H395 0.950 . S
C403 C401 1.327 . S
C404 C392 1.349 . S
C404 H398 0.950 . S
C404 C405 1.327 . S
C405 H399 0.950 . S
C405 C404 1.327 . S
C405 C409 1.429 . S
C406 C389 1.574 . S
C406 H400 0.949 . S
C406 C410 1.368 . S
C407 C388 1.429 . S
C407 C401 1.429 . S
C407 C408 1.523 . S
C408 C389 1.368 . S
C408 C402 1.368 . S
C408 C407 1.523 . S
C409 C393 1.429 . S
C409 C405 1.429 . S
C409 C410 1.523 . S
C410 C394 1.368 . S
C410 C406 1.368 . S
C410 C409 1.523 . S
H411 C386 0.950 . S
H412 C388 0.950 . S
H413 C389 0.949 . S
H414 C391 0.950 . S
H415 C393 0.950 . S
C416 C417 1.349 . S
C416 C418 1.327 . S
C416 H441 0.950 . S
C417 C416 1.349 . S
C417 C433 1.349 . S
C418 C416 1.327 . S
C418 C437 1.429 . S
C418 H442 0.950 . S
C419 C436 1.574 1_454 S
C419 C438 1.368 1_565 S
C419 H443 0.949 . S
H420 C424 0.949 . S
C421 C422 1.349 . S
C421 C423 1.327 . S
C421 H444 0.950 . S
C422 C421 1.349 . S
C422 C434 1.349 . S
C423 C421 1.327 . S
C423 C439 1.429 . S
C423 H445 0.950 . S
C424 H420 0.949 . S
C424 C432 1.574 1_656 S
C424 C440 1.368 1_545 S
H425 C433 0.950 1_565 S
H426 C431 0.905 1_565 S
H427 C432 0.949 . S
H428 C434 0.950 1_545 S
H429 C435 0.950 1_545 S
H430 C436 0.949 . S
C431 H426 0.905 1_545 S
C431 C433 1.344 . S
C431 C437 1.457 . S
C432 C424 1.574 1_454 S
C432 H427 0.949 . S
C432 C438 1.368 . S
C433 C417 1.349 . S
C433 H425 0.950 1_545 S
C433 C431 1.344 . S
C434 C422 1.349 . S
C434 H428 0.950 1_565 S
C434 C435 1.327 . S
C435 H429 0.950 1_565 S
C435 C434 1.327 . S
C435 C439 1.429 . S
C436 C419 1.574 1_656 S
C436 H430 0.949 . S
C436 C440 1.368 . S
C437 C418 1.429 . S
C437 C431 1.457 . S
C437 C438 1.523 . S
C438 C419 1.368 1_545 S
C438 C432 1.368 . S
C438 C437 1.523 . S
C439 C423 1.429 . S
C439 C435 1.429 . S
C439 C440 1.523 . S
C440 C424 1.368 1_565 S
C440 C436 1.368 . S
C440 C439 1.523 . S
H441 C416 0.950 . S
H442 C418 0.950 . S
H443 C419 0.949 . S
H444 C421 0.950 . S
H445 C423 0.950 . S
C446 C447 1.349 . S
C446 C448 1.327 . S
C446 H471 0.950 . S
C447 C446 1.349 . S
C447 C463 1.349 . S
C448 C446 1.327 . S
C448 C467 1.429 . S
C448 H472 0.950 . S
C449 C466 1.574 1_554 S
C449 C468 1.368 . S
C449 H473 0.949 . S
H450 C454 0.949 . S
C451 C452 1.349 . S
C451 C453 1.327 . S
C451 H474 0.950 . S
C452 C451 1.349 . S
C452 C464 1.349 . S
C453 C451 1.327 . S
C453 C469 1.429 . S
C453 H475 0.950 . S
C454 H450 0.949 . S
C454 C462 1.574 1_556 S
C454 C470 1.368 . S
H455 C463 0.950 . S
H456 C461 0.950 . S
H457 C462 0.949 . S
H458 C464 0.950 . S
H459 C465 0.950 . S
H460 C466 0.949 . S
C461 H456 0.950 . S
C461 C463 1.327 . S
C461 C467 1.429 . S
C462 C454 1.574 1_554 S
C462 H457 0.949 . S
C462 C468 1.368 1_545 S
C463 C447 1.349 . S
C463 H455 0.950 . S
C463 C461 1.327 . S
C464 C452 1.349 . S
C464 H458 0.950 . S
C464 C465 1.327 . S
C465 H459 0.950 . S
C465 C464 1.327 . S
C465 C469 1.429 . S
C466 C449 1.574 1_556 S
C466 H460 0.949 . S
C466 C470 1.368 1_565 S
C467 C448 1.429 . S
C467 C461 1.429 . S
C467 C468 1.523 . S
C468 C449 1.368 . S
C468 C462 1.368 1_565 S
C468 C467 1.523 . S
C469 C453 1.429 . S
C469 C465 1.429 . S
C469 C470 1.523 . S
C470 C454 1.368 . S
C470 C466 1.368 1_545 S
C470 C469 1.523 . S
H471 C446 0.950 . S
H472 C448 0.950 . S
H473 C449 0.949 . S
H474 C451 0.950 . S
H475 C453 0.950 . S
C476 C477 1.349 . S
C476 C478 1.327 . S
C476 H501 0.950 . S
C477 C476 1.349 . S
C477 C493 1.349 . S
C478 C476 1.327 . S
C478 C497 1.429 . S
C478 H502 0.950 . S
C479 C496 1.574 . S
C479 C498 1.368 . S
C479 H503 0.949 . S
H480 C484 0.949 . S
C481 C482 1.349 . S
C481 C483 1.327 . S
C481 H504 0.950 . S
C482 C481 1.349 . S
C482 C494 1.349 . S
C483 C481 1.327 . S
C483 C499 1.429 . S
C483 H505 0.950 . S
C484 H480 0.949 . S
C484 C492 1.574 . S
C484 C500 1.368 . S
H485 C493 0.950 . S
H486 C491 0.950 . S
H487 C492 0.949 . S
H488 C494 0.950 . S
H489 C495 0.950 . S
H490 C496 0.949 . S
C491 H486 0.950 . S
C491 C493 1.327 . S
C491 C497 1.429 . S
C492 C484 1.574 . S
C492 H487 0.949 . S
C492 C498 1.368 . S
C493 C477 1.349 . S
C493 H485 0.950 . S
C493 C491 1.327 . S
C494 C482 1.349 . S
C494 H488 0.950 . S
C494 C495 1.327 . S
C495 H489 0.950 . S
C495 C494 1.327 . S
C495 C499 1.429 . S
C496 C479 1.574 . S
C496 H490 0.949 . S
C496 C500 1.368 . S
C497 C478 1.429 . S
C497 C491 1.429 . S
C497 C498 1.523 . S
C498 C479 1.368 . S
C498 C492 1.368 . S
C498 C497 1.523 . S
C499 C483 1.429 . S
C499 C495 1.429 . S
C499 C500 1.523 . S
C500 C484 1.368 . S
C500 C496 1.368 . S
C500 C499 1.523 . S
H501 C476 0.950 . S
H502 C478 0.950 . S
H503 C479 0.949 . S
H504 C481 0.950 . S
H505 C483 0.950 . S
C506 C507 1.349 . S
C506 C508 1.327 . S
C506 H531 0.950 . S
C507 C506 1.349 . S
C507 C523 1.349 . S
C508 C506 1.327 . S
C508 C527 1.429 . S
C508 H532 0.950 . S
C509 C526 1.574 . S
C509 C528 1.368 . S
C509 H533 0.949 . S
H510 C514 0.949 . S
C511 C512 1.349 . S
C511 C513 1.327 . S
C511 H534 0.950 . S
C512 C511 1.349 . S
C512 C524 1.349 . S
C513 C511 1.327 . S
C513 C529 1.429 . S
C513 H535 0.950 . S
C514 H510 0.949 . S
C514 C522 1.574 . S
C514 C530 1.368 . S
H515 C523 0.950 . S
H516 C521 0.950 . S
H517 C522 0.949 . S
H518 C524 0.950 . S
H519 C525 0.950 . S
H520 C526 0.949 . S
C521 H516 0.950 . S
C521 C523 1.327 . S
C521 C527 1.429 . S
C522 C514 1.574 . S
C522 H517 0.949 . S
C522 C528 1.368 1_655 S
C523 C507 1.349 . S
C523 H515 0.950 . S
C523 C521 1.327 . S
C524 C512 1.349 . S
C524 H518 0.950 . S
C524 C525 1.327 . S
C525 H519 0.950 . S
C525 C524 1.327 . S
C525 C529 1.429 . S
C526 C509 1.574 . S
C526 H520 0.949 . S
C526 C530 1.368 1_455 S
C527 C508 1.429 . S
C527 C521 1.429 . S
C527 C528 1.523 . S
C528 C509 1.368 . S
C528 C522 1.368 1_455 S
C528 C527 1.523 . S
C529 C513 1.429 . S
C529 C525 1.429 . S
C529 C530 1.523 . S
C530 C514 1.368 . S
C530 C526 1.368 1_655 S
C530 C529 1.523 . S
H531 C506 0.950 . S
H532 C508 0.950 . S
H533 C509 0.949 . S
H534 C511 0.950 . S
H535 C513 0.950 . S
C536 C537 1.349 . S
C536 C538 1.327 . S
C536 H561 0.950 . S
C537 C536 1.349 . S
C537 C553 1.349 . S
C538 C536 1.327 . S
C538 C557 1.429 . S
C538 H562 0.950 . S
C539 C556 1.574 1_556 S
C539 C558 1.368 . S
C539 H563 0.949 . S
H540 C544 0.949 . S
C541 C542 1.349 . S
C541 C543 1.327 . S
C541 H564 0.950 . S
C542 C541 1.349 . S
C542 C554 1.349 . S
C543 C541 1.327 . S
C543 C559 1.429 . S
C543 H565 0.950 . S
C544 H540 0.949 . S
C544 C552 1.574 1_554 S
C544 C560 1.368 . S
H545 C553 0.950 . S
H546 C551 0.950 . S
H547 C552 0.949 . S
H548 C554 0.950 . S
H549 C555 0.950 . S
H550 C556 0.949 . S
C551 H546 0.950 . S
C551 C553 1.327 . S
C551 C557 1.429 . S
C552 C544 1.574 1_556 S
C552 H547 0.949 . S
C552 C558 1.368 . S
C553 C537 1.349 . S
C553 H545 0.950 . S
C553 C551 1.327 . S
C554 C542 1.349 . S
C554 H548 0.950 . S
C554 C555 1.327 . S
C555 H549 0.950 . S
C555 C554 1.327 . S
C555 C559 1.429 . S
C556 C539 1.574 1_554 S
C556 H550 0.949 . S
C556 C560 1.368 . S
C557 C538 1.429 . S
C557 C551 1.429 . S
C557 C558 1.523 . S
C558 C539 1.368 . S
C558 C552 1.368 . S
C558 C557 1.523 . S
C559 C543 1.429 . S
C559 C555 1.429 . S
C559 C560 1.523 . S
C560 C544 1.368 . S
C560 C556 1.368 . S
C560 C559 1.523 . S
H561 C536 0.950 . S
H562 C538 0.950 . S
H563 C539 0.949 . S
H564 C541 0.950 . S
H565 C543 0.950 . S
C566 C567 1.349 . S
C566 C568 1.327 . S
C566 H591 0.950 . S
C567 C566 1.349 . S
C567 C583 1.349 . S
C568 C566 1.327 . S
C568 C587 1.429 . S
C568 H592 0.950 . S
C569 C586 1.574 1_556 S
C569 C588 1.368 . S
C569 H593 0.949 . S
H570 C574 0.949 . S
C571 C572 1.349 . S
C571 C573 1.327 . S
C571 H594 0.950 . S
C572 C571 1.349 . S
C572 C584 1.349 . S
C573 C571 1.327 . S
C573 C589 1.429 . S
C573 H595 0.950 . S
C574 H570 0.949 . S
C574 C582 1.574 1_554 S
C574 C590 1.368 . S
H575 C583 0.950 . S
H576 C581 0.950 . S
H577 C582 0.949 . S
H578 C584 0.950 . S
H579 C585 0.950 . S
H580 C586 0.949 . S
C581 H576 0.950 . S
C581 C583 1.327 . S
C581 C587 1.429 . S
C582 C574 1.574 1_556 S
C582 H577 0.949 . S
C582 C588 1.368 . S
C583 C567 1.349 . S
C583 H575 0.950 . S
C583 C581 1.327 . S
C584 C572 1.349 . S
C584 H578 0.950 . S
C584 C585 1.327 . S
C585 H579 0.950 . S
C585 C584 1.327 . S
C585 C589 1.429 . S
C586 C569 1.574 1_554 S
C586 H580 0.949 . S
C586 C590 1.368 . S
C587 C568 1.429 . S
C587 C581 1.429 . S
C587 C588 1.523 . S
C588 C569 1.368 . S
C588 C582 1.368 . S
C588 C587 1.523 . S
C589 C573 1.429 . S
C589 C585 1.429 . S
C589 C590 1.523 . S
C590 C574 1.368 . S
C590 C586 1.368 . S
C590 C589 1.523 . S
H591 C566 0.950 . S
H592 C568 0.950 . S
H593 C569 0.949 . S
H594 C571 0.950 . S
H595 C573 0.950 . S
C596 C597 1.349 . S
C596 C598 1.327 . S
C596 H621 0.950 . S
C597 C596 1.349 . S
C597 C613 1.349 . S
C598 C596 1.327 . S
C598 C617 1.429 . S
C598 H622 0.950 . S
C599 C616 1.574 . S
C599 C618 1.368 . S
C599 H623 0.949 . S
H600 C604 0.949 . S
C601 C602 1.349 . S
C601 C603 1.327 . S
C601 H624 0.950 . S
C602 C601 1.349 . S
C602 C614 1.349 . S
C603 C601 1.327 . S
C603 C619 1.429 . S
C603 H625 0.950 . S
C604 H600 0.949 . S
C604 C612 1.574 . S
C604 C620 1.368 . S
H605 C613 0.950 . S
H606 C611 0.950 . S
H607 C612 0.949 . S
H608 C614 0.950 . S
H609 C615 0.950 . S
H610 C616 0.949 . S
C611 H606 0.950 . S
C611 C613 1.327 . S
C611 C617 1.429 . S
C612 C604 1.574 . S
C612 H607 0.949 . S
C612 C618 1.368 . S
C613 C597 1.349 . S
C613 H605 0.950 . S
C613 C611 1.327 . S
C614 C602 1.349 . S
C614 H608 0.950 . S
C614 C615 1.327 . S
C615 H609 0.950 . S
C615 C614 1.327 . S
C615 C619 1.429 . S
C616 C599 1.574 . S
C616 H610 0.949 . S
C616 C620 1.368 . S
C617 C598 1.429 . S
C617 C611 1.429 . S
C617 C618 1.523 . S
C618 C599 1.368 . S
C618 C612 1.368 . S
C618 C617 1.523 . S
C619 C603 1.429 . S
C619 C615 1.429 . S
C619 C620 1.523 . S
C620 C604 1.368 . S
C620 C616 1.368 . S
C620 C619 1.523 . S
H621 C596 0.950 . S
H622 C598 0.950 . S
H623 C599 0.949 . S
H624 C601 0.950 . S
H625 C603 0.950 . S
C626 C627 1.349 . S
C626 C628 1.327 . S
C626 H651 0.950 . S
C627 C626 1.349 . S
C627 C643 1.349 . S
C628 C626 1.327 . S
C628 C647 1.429 . S
C628 H652 0.950 . S
C629 C646 1.574 . S
C629 C648 1.368 . S
C629 H653 0.949 . S
H630 C634 0.949 . S
C631 C632 1.349 . S
C631 C633 1.327 . S
C631 H654 0.950 . S
C632 C631 1.349 . S
C632 C644 1.349 . S
C633 C631 1.327 . S
C633 C649 1.429 . S
C633 H655 0.950 . S
C634 H630 0.949 . S
C634 C642 1.574 . S
C634 C650 1.368 . S
H635 C643 0.950 . S
H636 C641 0.950 . S
H637 C642 0.949 . S
H638 C644 0.950 . S
H639 C645 0.950 . S
H640 C646 0.949 . S
C641 H636 0.950 . S
C641 C643 1.327 . S
C641 C647 1.429 . S
C642 C634 1.574 . S
C642 H637 0.949 . S
C642 C648 1.368 . S
C643 C627 1.349 . S
C643 H635 0.950 . S
C643 C641 1.327 . S
C644 C632 1.349 . S
C644 H638 0.950 . S
C644 C645 1.327 . S
C645 H639 0.950 . S
C645 C644 1.327 . S
C645 C649 1.429 . S
C646 C629 1.574 . S
C646 H640 0.949 . S
C646 C650 1.368 . S
C647 C628 1.429 . S
C647 C641 1.429 . S
C647 C648 1.523 . S
C648 C629 1.368 . S
C648 C642 1.368 . S
C648 C647 1.523 . S
C649 C633 1.429 . S
C649 C645 1.429 . S
C649 C650 1.523 . S
C650 C634 1.368 . S
C650 C646 1.368 . S
C650 C649 1.523 . S
H651 C626 0.950 . S
H652 C628 0.950 . S
H653 C629 0.949 . S
H654 C631 0.950 . S
H655 C633 0.950 . S
C656 C657 1.349 . S
C656 C658 1.327 . S
C656 H681 0.950 . S
C657 C656 1.349 . S
C657 C673 1.349 . S
C658 C656 1.327 . S
C658 C677 1.429 . S
C658 H682 0.950 . S
C659 C676 1.574 . S
C659 C678 1.368 . S
C659 H683 0.949 . S
H660 C664 0.949 . S
C661 C662 1.349 . S
C661 C663 1.327 . S
C661 H684 0.950 . S
C662 C661 1.349 . S
C662 C674 1.349 . S
C663 C661 1.327 . S
C663 C679 1.429 . S
C663 H685 0.950 . S
C664 H660 0.949 . S
C664 C672 1.574 . S
C664 C680 1.368 . S
H665 C673 0.950 . S
H666 C671 0.950 . S
H667 C672 0.949 . S
H668 C674 0.950 . S
H669 C675 0.950 . S
H670 C676 0.949 . S
C671 H666 0.950 . S
C671 C673 1.327 . S
C671 C677 1.429 . S
C672 C664 1.574 . S
C672 H667 0.949 . S
C672 C678 1.368 . S
C673 C657 1.349 . S
C673 H665 0.950 . S
C673 C671 1.327 . S
C674 C662 1.349 . S
C674 H668 0.950 . S
C674 C675 1.327 . S
C675 H669 0.950 . S
C675 C674 1.327 . S
C675 C679 1.429 . S
C676 C659 1.574 . S
C676 H670 0.949 . S
C676 C680 1.368 . S
C677 C658 1.429 . S
C677 C671 1.429 . S
C677 C678 1.523 . S
C678 C659 1.368 . S
C678 C672 1.368 . S
C678 C677 1.523 . S
C679 C663 1.429 . S
C679 C675 1.429 . S
C679 C680 1.523 . S
C680 C664 1.368 . S
C680 C676 1.368 . S
C680 C679 1.523 . S
H681 C656 0.950 . S
H682 C658 0.950 . S
H683 C659 0.949 . S
H684 C661 0.950 . S
H685 C663 0.950 . S
C686 C687 1.349 . S
C686 C688 1.327 . S
C686 H711 0.950 . S
C687 C686 1.349 . S
C687 C703 1.349 . S
C688 C686 1.327 . S
C688 C707 1.429 . S
C688 H712 0.950 . S
C689 C706 1.574 . S
C689 C708 1.368 . S
C689 H713 0.949 . S
H690 C694 0.949 . S
C691 C692 1.349 . S
C691 C693 1.327 . S
C691 H714 0.950 . S
C692 C691 1.349 . S
C692 C704 1.349 . S
C693 C691 1.327 . S
C693 C709 1.429 . S
C693 H715 0.950 . S
C694 H690 0.949 . S
C694 C702 1.574 . S
C694 C710 1.368 . S
H695 C703 0.950 . S
H696 C701 0.950 . S
H697 C702 0.949 . S
H698 C704 0.950 . S
H699 C705 0.950 . S
H700 C706 0.949 . S
C701 H696 0.950 . S
C701 C703 1.327 . S
C701 C707 1.429 . S
C702 C694 1.574 . S
C702 H697 0.949 . S
C702 C708 1.368 . S
C703 C687 1.349 . S
C703 H695 0.950 . S
C703 C701 1.327 . S
C704 C692 1.349 . S
C704 H698 0.950 . S
C704 C705 1.327 . S
C705 H699 0.950 . S
C705 C704 1.327 . S
C705 C709 1.429 . S
C706 C689 1.574 . S
C706 H700 0.949 . S
C706 C710 1.368 . S
C707 C688 1.429 . S
C707 C701 1.429 . S
C707 C708 1.523 . S
C708 C689 1.368 . S
C708 C702 1.368 . S
C708 C707 1.523 . S
C709 C693 1.429 . S
C709 C705 1.429 . S
C709 C710 1.523 . S
C710 C694 1.368 . S
C710 C706 1.368 . S
C710 C709 1.523 . S
H711 C686 0.950 . S
H712 C688 0.950 . S
H713 C689 0.949 . S
H714 C691 0.950 . S
H715 C693 0.950 . S
C716 C717 1.349 . S
C716 C718 1.327 . S
C716 H741 0.950 . S
C717 C716 1.349 . S
C717 C733 1.349 . S
C718 C716 1.327 . S
C718 C737 1.429 . S
C718 H742 0.950 . S
C719 C736 1.574 1_556 S
C719 C738 1.368 . S
C719 H743 0.949 . S
H720 C724 0.949 . S
C721 C722 1.349 . S
C721 C723 1.327 . S
C721 H744 0.950 . S
C722 C721 1.349 . S
C722 C734 1.349 . S
C723 C721 1.327 . S
C723 C739 1.429 . S
C723 H745 0.950 . S
C724 H720 0.949 . S
C724 C732 1.574 1_554 S
C724 C740 1.368 . S
H725 C733 0.950 . S
H726 C731 0.950 . S
H727 C732 0.949 . S
H728 C734 0.950 . S
H729 C735 0.950 . S
H730 C736 0.949 . S
C731 H726 0.950 . S
C731 C733 1.327 . S
C731 C737 1.429 . S
C732 C724 1.574 1_556 S
C732 H727 0.949 . S
C732 C738 1.368 . S
C733 C717 1.349 . S
C733 H725 0.950 . S
C733 C731 1.327 . S
C734 C722 1.349 . S
C734 H728 0.950 . S
C734 C735 1.327 . S
C735 H729 0.950 . S
C735 C734 1.327 . S
C735 C739 1.429 . S
C736 C719 1.574 1_554 S
C736 H730 0.949 . S
C736 C740 1.368 . S
C737 C718 1.429 . S
C737 C731 1.429 . S
C737 C738 1.523 . S
C738 C719 1.368 . S
C738 C732 1.368 . S
C738 C737 1.523 . S
C739 C723 1.429 . S
C739 C735 1.429 . S
C739 C740 1.523 . S
C740 C724 1.368 . S
C740 C736 1.368 . S
C740 C739 1.523 . S
H741 C716 0.950 . S
H742 C718 0.950 . S
H743 C719 0.949 . S
H744 C721 0.950 . S
H745 C723 0.950 . S
C746 C747 1.349 . S
C746 C748 1.327 . S
C746 H771 0.950 . S
C747 C746 1.349 . S
C747 C763 1.349 . S
C748 C746 1.327 . S
C748 C767 1.429 . S
C748 H772 0.950 . S
C749 C766 1.574 1_556 S
C749 C768 1.368 . S
C749 H773 0.949 . S
H750 C754 0.949 . S
C751 C752 1.349 . S
C751 C753 1.327 . S
C751 H774 0.950 . S
C752 C751 1.349 . S
C752 C764 1.349 . S
C753 C751 1.327 . S
C753 C769 1.429 . S
C753 H775 0.950 . S
C754 H750 0.949 . S
C754 C762 1.574 1_554 S
C754 C770 1.368 . S
H755 C763 0.950 . S
H756 C761 0.950 . S
H757 C762 0.949 . S
H758 C764 0.950 . S
H759 C765 0.950 . S
H760 C766 0.949 . S
C761 H756 0.950 . S
C761 C763 1.327 . S
C761 C767 1.429 . S
C762 C754 1.574 1_556 S
C762 H757 0.949 . S
C762 C768 1.368 . S
C763 C747 1.349 . S
C763 H755 0.950 . S
C763 C761 1.327 . S
C764 C752 1.349 . S
C764 H758 0.950 . S
C764 C765 1.327 . S
C765 H759 0.950 . S
C765 C764 1.327 . S
C765 C769 1.429 . S
C766 C749 1.574 1_554 S
C766 H760 0.949 . S
C766 C770 1.368 . S
C767 C748 1.429 . S
C767 C761 1.429 . S
C767 C768 1.523 . S
C768 C749 1.368 . S
C768 C762 1.368 . S
C768 C767 1.523 . S
C769 C753 1.429 . S
C769 C765 1.429 . S
C769 C770 1.523 . S
C770 C754 1.368 . S
C770 C766 1.368 . S
C770 C769 1.523 . S
H771 C746 0.950 . S
H772 C748 0.950 . S
H773 C749 0.949 . S
H774 C751 0.950 . S
H775 C753 0.950 . S
C776 C777 1.349 . S
C776 C778 1.327 . S
C776 H801 0.950 . S
C777 C776 1.349 . S
C777 C793 1.349 . S
C778 C776 1.327 . S
C778 C797 1.429 . S
C778 H802 0.950 . S
C779 C796 1.574 . S
C779 C798 1.368 . S
C779 H803 0.949 . S
H780 C784 0.949 . S
C781 C782 1.349 . S
C781 C783 1.327 . S
C781 H804 0.950 . S
C782 C781 1.349 . S
C782 C794 1.349 . S
C783 C781 1.327 . S
C783 C799 1.429 . S
C783 H805 0.950 . S
C784 H780 0.949 . S
C784 C792 1.574 . S
C784 C800 1.368 . S
H785 C793 0.950 . S
H786 C791 0.950 . S
H787 C792 0.949 . S
H788 C794 0.950 . S
H789 C795 0.950 . S
H790 C796 0.949 . S
C791 H786 0.950 . S
C791 C793 1.327 . S
C791 C797 1.429 . S
C792 C784 1.574 . S
C792 H787 0.949 . S
C792 C798 1.368 . S
C793 C777 1.349 . S
C793 H785 0.950 . S
C793 C791 1.327 . S
C794 C782 1.349 . S
C794 H788 0.950 . S
C794 C795 1.327 . S
C795 H789 0.950 . S
C795 C794 1.327 . S
C795 C799 1.429 . S
C796 C779 1.574 . S
C796 H790 0.949 . S
C796 C800 1.368 . S
C797 C778 1.429 . S
C797 C791 1.429 . S
C797 C798 1.523 . S
C798 C779 1.368 . S
C798 C792 1.368 . S
C798 C797 1.523 . S
C799 C783 1.429 . S
C799 C795 1.429 . S
C799 C800 1.523 . S
C800 C784 1.368 . S
C800 C796 1.368 . S
C800 C799 1.523 . S
H801 C776 0.950 . S
H802 C778 0.950 . S
H803 C779 0.949 . S
H804 C781 0.950 . S
H805 C783 0.950 . S
C806 C807 1.349 . S
C806 C808 1.327 . S
C806 H831 0.950 . S
C807 C806 1.349 . S
C807 C823 1.349 . S
C808 C806 1.327 . S
C808 C827 1.429 . S
C808 H832 0.950 . S
C809 C826 1.574 . S
C809 C828 1.368 . S
C809 H833 0.949 . S
H810 C814 0.949 . S
C811 C812 1.349 . S
C811 C813 1.327 . S
C811 H834 0.950 . S
C812 C811 1.349 . S
C812 C824 1.349 . S
C813 C811 1.327 . S
C813 C829 1.429 . S
C813 H835 0.950 . S
C814 H810 0.949 . S
C814 C822 1.574 . S
C814 C830 1.368 . S
H815 C823 0.950 . S
H816 C821 0.950 . S
H817 C822 0.949 . S
H818 C824 0.950 . S
H819 C825 0.950 . S
H820 C826 0.949 . S
C821 H816 0.950 . S
C821 C823 1.327 . S
C821 C827 1.429 . S
C822 C814 1.574 . S
C822 H817 0.949 . S
C822 C828 1.368 . S
C823 C807 1.349 . S
C823 H815 0.950 . S
C823 C821 1.327 . S
C824 C812 1.349 . S
C824 H818 0.950 . S
C824 C825 1.327 . S
C825 H819 0.950 . S
C825 C824 1.327 . S
C825 C829 1.429 . S
C826 C809 1.574 . S
C826 H820 0.949 . S
C826 C830 1.368 . S
C827 C808 1.429 . S
C827 C821 1.429 . S
C827 C828 1.523 . S
C828 C809 1.368 . S
C828 C822 1.368 . S
C828 C827 1.523 . S
C829 C813 1.429 . S
C829 C825 1.429 . S
C829 C830 1.523 . S
C830 C814 1.368 . S
C830 C826 1.368 . S
C830 C829 1.523 . S
H831 C806 0.950 . S
H832 C808 0.950 . S
H833 C809 0.949 . S
H834 C811 0.950 . S
H835 C813 0.950 . S
C836 C837 1.349 . S
C836 C838 1.327 . S
C836 H861 0.950 . S
C837 C836 1.349 . S
C837 C853 1.349 . S
C838 C836 1.327 . S
C838 C857 1.429 . S
C838 H862 0.950 . S
C839 C856 1.574 . S
C839 C858 1.368 . S
C839 H863 0.949 . S
H840 C844 0.949 . S
C841 C842 1.349 . S
C841 C843 1.327 . S
C841 H864 0.950 . S
C842 C841 1.349 . S
C842 C854 1.349 . S
C843 C841 1.327 . S
C843 C859 1.429 . S
C843 H865 0.950 . S
C844 H840 0.949 . S
C844 C852 1.574 . S
C844 C860 1.368 . S
H845 C853 0.950 . S
H846 C851 0.950 . S
H847 C852 0.949 . S
H848 C854 0.950 . S
H849 C855 0.950 . S
H850 C856 0.949 . S
C851 H846 0.950 . S
C851 C853 1.327 . S
C851 C857 1.429 . S
C852 C844 1.574 . S
C852 H847 0.949 . S
C852 C858 1.368 . S
C853 C837 1.349 . S
C853 H845 0.950 . S
C853 C851 1.327 . S
C854 C842 1.349 . S
C854 H848 0.950 . S
C854 C855 1.327 . S
C855 H849 0.950 . S
C855 C854 1.327 . S
C855 C859 1.429 . S
C856 C839 1.574 . S
C856 H850 0.949 . S
C856 C860 1.368 . S
C857 C838 1.429 . S
C857 C851 1.429 . S
C857 C858 1.523 . S
C858 C839 1.368 . S
C858 C852 1.368 . S
C858 C857 1.523 . S
C859 C843 1.429 . S
C859 C855 1.429 . S
C859 C860 1.523 . S
C860 C844 1.368 . S
C860 C856 1.368 . S
C860 C859 1.523 . S
H861 C836 0.950 . S
H862 C838 0.950 . S
H863 C839 0.949 . S
H864 C841 0.950 . S
H865 C843 0.950 . S
C866 C867 1.349 . S
C866 C868 1.327 . S
C866 H891 0.950 . S
C867 C866 1.349 . S
C867 C883 1.349 . S
C868 C866 1.327 . S
C868 C887 1.429 . S
C868 H892 0.950 . S
C869 C886 1.574 . S
C869 C888 1.368 . S
C869 H893 0.949 . S
H870 C874 0.949 . S
C871 C872 1.349 . S
C871 C873 1.327 . S
C871 H894 0.950 . S
C872 C871 1.349 . S
C872 C884 1.349 . S
C873 C871 1.327 . S
C873 C889 1.429 . S
C873 H895 0.950 . S
C874 H870 0.949 . S
C874 C882 1.574 . S
C874 C890 1.368 . S
H875 C883 0.950 . S
H876 C881 0.950 . S
H877 C882 0.949 . S
H878 C884 0.950 . S
H879 C885 0.950 . S
H880 C886 0.949 . S
C881 H876 0.950 . S
C881 C883 1.327 . S
C881 C887 1.429 . S
C882 C874 1.574 . S
C882 H877 0.949 . S
C882 C888 1.368 . S
C883 C867 1.349 . S
C883 H875 0.950 . S
C883 C881 1.327 . S
C884 C872 1.349 . S
C884 H878 0.950 . S
C884 C885 1.327 . S
C885 H879 0.950 . S
C885 C884 1.327 . S
C885 C889 1.429 . S
C886 C869 1.574 . S
C886 H880 0.949 . S
C886 C890 1.368 . S
C887 C868 1.429 . S
C887 C881 1.429 . S
C887 C888 1.523 . S
C888 C869 1.368 . S
C888 C882 1.368 . S
C888 C887 1.523 . S
C889 C873 1.429 . S
C889 C885 1.429 . S
C889 C890 1.523 . S
C890 C874 1.368 . S
C890 C886 1.368 . S
C890 C889 1.523 . S
H891 C866 0.950 . S
H892 C868 0.950 . S
H893 C869 0.949 . S
H894 C871 0.950 . S
H895 C873 0.950 . S
C177 C76 1.248 . S
C182 C21 1.295 . S
C207 C52 1.248 . S
C212 C37 1.295 . S
C237 C51 1.312 . S
C242 C30 1.268 . S
C267 C87 1.312 . S
C272 C18 1.268 . S
C297 C164 1.248 . S
C302 C103 1.295 . S
C327 C125 1.295 . S
C332 C140 1.248 . S
C357 C118 1.268 . S
C362 C139 1.312 . S
C387 C96 1.268 . S
C392 C175 1.312 . S
C417 C7 0.993 . S
C422 C65 0.989 . S
C447 C81 0.989 . S
C452 C43 0.993 . S
C477 C109 0.993 . S
C482 C153 0.989 . S
C507 C169 0.989 . S
C512 C131 0.993 . S
C537 C29 0.766 . S
C542 C15 0.766 . S
C567 C59 0.764 . S
C572 C73 0.764 . S
C597 C117 0.766 . S
C602 C95 0.766 . S
C627 C161 0.764 . S
C632 C147 0.764 . S
C657 C8 1.270 . S
C662 C32 1.270 . S
C687 C62 1.291 . S
C692 C74 1.291 . S
C717 C98 1.270 . S
C722 C120 1.270 . S
C747 C162 1.291 . S
C752 C150 1.291 . S
C777 C10 1.611 . S
C782 C142 1.622 . S
C807 C40 1.611 . S
C812 C172 1.622 . S
C837 C106 1.611 . S
C842 C54 1.622 . S
C867 C128 1.611 . S
C872 C84 1.622 . S
