# Generated by pormake.
# Topology ske, (6)-cn, num edge types: 1
# Building blocks:
#     Node 0, Type 0, BuildingBlock: VOLQOD_clean_sbu_1, # of connection points: 6
#     Node 1, Type 0, BuildingBlock: VOLQOD_clean_sbu_1, # of connection points: 6
#     Node 2, Type 0, BuildingBlock: VOLQOD_clean_sbu_1, # of connection points: 6
#     Node 3, Type 0, BuildingBlock: VOLQOD_clean_sbu_1, # of connection points: 6
#     Node 4, Type 0, BuildingBlock: VOLQOD_clean_sbu_1, # of connection points: 6
#     Node 5, Type 0, BuildingBlock: VOLQOD_clean_sbu_1, # of connection points: 6
#     Node 6, Type 0, BuildingBlock: VOLQOD_clean_sbu_1, # of connection points: 6
#     Node 7, Type 0, BuildingBlock: VOLQOD_clean_sbu_1, # of connection points: 6
#     Edge 8, Type (0, 0), BuildingBlock: OJICUG_clean_linker_0, # of connection points: 2
#     Edge 9, Type (0, 0), BuildingBlock: OJICUG_clean_linker_0, # of connection points: 2
#     Edge 10, Type (0, 0), BuildingBlock: OJICUG_clean_linker_0, # of connection points: 2
#     Edge 11, Type (0, 0), BuildingBlock: OJICUG_clean_linker_0, # of connection points: 2
#     Edge 12, Type (0, 0), BuildingBlock: OJICUG_clean_linker_0, # of connection points: 2
#     Edge 13, Type (0, 0), BuildingBlock: OJICUG_clean_linker_0, # of connection points: 2
#     Edge 14, Type (0, 0), BuildingBlock: OJICUG_clean_linker_0, # of connection points: 2
#     Edge 15, Type (0, 0), BuildingBlock: OJICUG_clean_linker_0, # of connection points: 2
#     Edge 16, Type (0, 0), BuildingBlock: OJICUG_clean_linker_0, # of connection points: 2
#     Edge 17, Type (0, 0), BuildingBlock: OJICUG_clean_linker_0, # of connection points: 2
#     Edge 18, Type (0, 0), BuildingBlock: OJICUG_clean_linker_0, # of connection points: 2
#     Edge 19, Type (0, 0), BuildingBlock: OJICUG_clean_linker_0, # of connection points: 2
#     Edge 20, Type (0, 0), BuildingBlock: OJICUG_clean_linker_0, # of connection points: 2
#     Edge 21, Type (0, 0), BuildingBlock: OJICUG_clean_linker_0, # of connection points: 2
#     Edge 22, Type (0, 0), BuildingBlock: OJICUG_clean_linker_0, # of connection points: 2
#     Edge 23, Type (0, 0), BuildingBlock: OJICUG_clean_linker_0, # of connection points: 2
#     Edge 24, Type (0, 0), BuildingBlock: OJICUG_clean_linker_0, # of connection points: 2
#     Edge 25, Type (0, 0), BuildingBlock: OJICUG_clean_linker_0, # of connection points: 2
#     Edge 26, Type (0, 0), BuildingBlock: OJICUG_clean_linker_0, # of connection points: 2
#     Edge 27, Type (0, 0), BuildingBlock: OJICUG_clean_linker_0, # of connection points: 2
#     Edge 28, Type (0, 0), BuildingBlock: OJICUG_clean_linker_0, # of connection points: 2
#     Edge 29, Type (0, 0), BuildingBlock: OJICUG_clean_linker_0, # of connection points: 2
#     Edge 30, Type (0, 0), BuildingBlock: OJICUG_clean_linker_0, # of connection points: 2
#     Edge 31, Type (0, 0), BuildingBlock: OJICUG_clean_linker_0, # of connection points: 2
# Relax obj value: 0.031
# Max RMSD: 0.058
# Mean RMSD: 0.058
data_MOF--net-ske--node1-VOLQOD_clean_sbu_1--edge1-OJICUG_clean_linker_0
_symmetry_space_group_name_H-M    P1
_symmetry_Int_Tables_number       1
_symmetry_cell_setting            triclinic
loop_
_symmetry_equiv_pos_as_xyz
'x, y, z'
_cell_length_a     50.91905
_cell_length_b     25.703211
_cell_length_c     13.010712
_cell_angle_alpha  89.998909
_cell_angle_beta   90.002373
_cell_angle_gamma 90.003051
loop_
_atom_site_label
_atom_site_type_symbol
_atom_site_fract_x
_atom_site_fract_y
_atom_site_fract_z
_atom_type_partial_charge
O0 O 0.10657 0.27846 0.81114 0.0
Zn1 Zn 0.09476 0.28563 0.66261 0.0
O2 O 0.1153 0.23775 0.57923 0.0
Zn3 Zn 0.14268 0.27534 0.50515 0.0
Zn4 Zn 0.13118 0.18588 0.66673 0.0
Zn5 Zn 0.09212 0.20249 0.48578 0.0
O6 O 0.1409 0.25827 0.35153 0.0
O7 O 0.10169 0.21974 0.34257 0.0
O8 O 0.09959 0.35995 0.60962 0.0
O9 O 0.13501 0.35137 0.51093 0.0
O10 O 0.17865 0.26407 0.5729 0.0
O11 O 0.16963 0.19797 0.67731 0.0
O12 O 0.12577 0.11256 0.61476 0.0
O13 O 0.05572 0.268 0.65413 0.0
O14 O 0.09547 0.12519 0.49467 0.0
O15 O 0.05462 0.21979 0.51235 0.0
C16 C 0.1134 0.23728 0.85919 0.0
C17 C 0.12193 0.2389 0.29969 0.0
C18 C 0.18572 0.23076 0.64034 0.0
C19 C 0.11711 0.37937 0.55082 0.0
C20 C 0.1102 0.09514 0.54637 0.0
C21 C 0.04296 0.24338 0.58514 0.0
O22 O 0.11886 0.19517 0.81195 0.0
O23 O 0.86624 0.1961 0.81109 0.0
Zn24 Zn 0.87805 0.18893 0.66256 0.0
O25 O 0.85752 0.23682 0.57917 0.0
Zn26 Zn 0.83014 0.19923 0.50507 0.0
Zn27 Zn 0.84164 0.28868 0.66667 0.0
Zn28 Zn 0.8807 0.27208 0.48573 0.0
O29 O 0.83192 0.21631 0.35146 0.0
O30 O 0.87113 0.25483 0.34252 0.0
O31 O 0.87323 0.11461 0.60956 0.0
O32 O 0.83782 0.1232 0.51084 0.0
O33 O 0.79417 0.21048 0.57284 0.0
O34 O 0.80319 0.27657 0.67726 0.0
O35 O 0.84704 0.36201 0.61468 0.0
O36 O 0.91709 0.20657 0.6541 0.0
O37 O 0.87734 0.34938 0.49463 0.0
O38 O 0.9182 0.25478 0.51232 0.0
C39 C 0.85942 0.23729 0.85913 0.0
C40 C 0.85089 0.23568 0.29962 0.0
C41 C 0.7871 0.24377 0.6403 0.0
C42 C 0.85571 0.0952 0.55075 0.0
C43 C 0.86261 0.37943 0.54631 0.0
C44 C 0.92985 0.23119 0.58511 0.0
O45 O 0.85397 0.27941 0.81188 0.0
O46 O 0.10656 0.69593 0.16715 0.0
Zn47 Zn 0.09475 0.68878 0.31569 0.0
O48 O 0.1153 0.73666 0.39906 0.0
Zn49 Zn 0.14268 0.69906 0.47312 0.0
Zn50 Zn 0.13117 0.78854 0.31156 0.0
Zn51 Zn 0.09213 0.77191 0.49255 0.0
O52 O 0.1409 0.7161 0.62675 0.0
O53 O 0.1017 0.75462 0.63574 0.0
O54 O 0.09957 0.61446 0.36868 0.0
O55 O 0.13501 0.62302 0.46727 0.0
O56 O 0.17865 0.71037 0.40539 0.0
O57 O 0.16962 0.77648 0.30104 0.0
O58 O 0.12575 0.86186 0.3635 0.0
O59 O 0.05571 0.70644 0.32415 0.0
O60 O 0.09549 0.8492 0.4837 0.0
O61 O 0.05462 0.75463 0.46596 0.0
C62 C 0.1134 0.73711 0.1191 0.0
C63 C 0.12194 0.73546 0.67861 0.0
C64 C 0.18572 0.7437 0.338 0.0
C65 C 0.11711 0.59503 0.42741 0.0
C66 C 0.11021 0.87926 0.43195 0.0
C67 C 0.04296 0.73106 0.39315 0.0
O68 O 0.11886 0.77922 0.16633 0.0
O69 O 0.86627 0.77864 0.16708 0.0
Zn70 Zn 0.87807 0.78579 0.31563 0.0
O71 O 0.85752 0.73792 0.39899 0.0
Zn72 Zn 0.83014 0.77551 0.47303 0.0
Zn73 Zn 0.84165 0.68604 0.31148 0.0
Zn74 Zn 0.88069 0.70266 0.49249 0.0
O75 O 0.83192 0.75848 0.62667 0.0
O76 O 0.87112 0.71995 0.63567 0.0
O77 O 0.87325 0.86011 0.36862 0.0
O78 O 0.83781 0.85155 0.46717 0.0
O79 O 0.79416 0.76419 0.40531 0.0
O80 O 0.8032 0.69809 0.30097 0.0
O81 O 0.84707 0.61271 0.36342 0.0
O82 O 0.91711 0.76813 0.32411 0.0
O83 O 0.87732 0.62537 0.48365 0.0
O84 O 0.9182 0.71993 0.46592 0.0
C85 C 0.85943 0.73747 0.11902 0.0
C86 C 0.85089 0.73912 0.67854 0.0
C87 C 0.7871 0.73086 0.33792 0.0
C88 C 0.85571 0.87954 0.42732 0.0
C89 C 0.86261 0.59531 0.43189 0.0
C90 C 0.92986 0.7435 0.39312 0.0
O91 O 0.85396 0.69536 0.16626 0.0
O92 O 0.60656 0.77835 0.31114 0.0
Zn93 Zn 0.59476 0.78553 0.16261 0.0
O94 O 0.61529 0.73764 0.07923 0.0
Zn95 Zn 0.64267 0.77523 0.00512 0.0
Zn96 Zn 0.63118 0.68578 0.16673 0.0
Zn97 Zn 0.59211 0.70237 0.9858 0.0
O98 O 0.64088 0.75815 0.85151 0.0
O99 O 0.60168 0.71962 0.84258 0.0
O100 O 0.59958 0.85985 0.10961 0.0
O101 O 0.63499 0.85126 0.01087 0.0
O102 O 0.67864 0.76398 0.07286 0.0
O103 O 0.66963 0.6979 0.17731 0.0
O104 O 0.62578 0.61246 0.11476 0.0
O105 O 0.55572 0.76789 0.15414 0.0
O106 O 0.59547 0.62507 -0.00529 0.0
O107 O 0.55461 0.71966 0.01238 0.0
C108 C 0.61339 0.73717 0.35919 0.0
C109 C 0.62191 0.73877 0.79968 0.0
C110 C 0.68571 0.73069 0.14032 0.0
C111 C 0.6171 0.87926 0.05079 0.0
C112 C 0.61021 0.59503 0.04639 0.0
C113 C 0.54296 0.74327 0.08517 0.0
O114 O 0.61885 0.69506 0.31194 0.0
O115 O 0.36623 0.69609 0.31117 0.0
Zn116 Zn 0.37804 0.68892 0.16264 0.0
O117 O 0.35751 0.73681 0.07925 0.0
Zn118 Zn 0.33013 0.69923 0.00515 0.0
Zn119 Zn 0.34164 0.78868 0.16674 0.0
Zn120 Zn 0.3807 0.77206 0.98581 0.0
O121 O 0.33191 0.71631 0.85154 0.0
O122 O 0.37112 0.75482 0.8426 0.0
O123 O 0.37321 0.6146 0.10965 0.0
O124 O 0.3378 0.62319 0.01092 0.0
O125 O 0.29416 0.7105 0.0729 0.0
O126 O 0.30319 0.77659 0.17732 0.0
O127 O 0.34705 0.862 0.11476 0.0
O128 O 0.41708 0.70653 0.15418 0.0
O129 O 0.37735 0.84936 -0.00529 0.0
O130 O 0.4182 0.75473 0.01239 0.0
C131 C 0.35942 0.73728 0.35921 0.0
C132 C 0.35088 0.73568 0.7997 0.0
C133 C 0.28709 0.7438 0.14035 0.0
C134 C 0.35569 0.59519 0.05084 0.0
C135 C 0.36262 0.87942 0.0464 0.0
C136 C 0.42985 0.73114 0.08519 0.0
O137 O 0.35396 0.7794 0.31196 0.0
O138 O 0.60654 0.19583 0.66715 0.0
Zn139 Zn 0.59474 0.18869 0.8157 0.0
O140 O 0.6153 0.23655 0.89906 0.0
Zn141 Zn 0.64269 0.19893 0.97308 0.0
Zn142 Zn 0.63118 0.28843 0.81156 0.0
Zn143 Zn 0.59214 0.27179 -0.00741 0.0
O144 O 0.64091 0.21594 0.12673 0.0
O145 O 0.60172 0.25449 0.13577 0.0
O146 O 0.59955 0.11436 0.86869 0.0
O147 O 0.63501 0.1229 0.96719 0.0
O148 O 0.67866 0.21024 0.90535 0.0
O149 O 0.66963 0.27638 0.80107 0.0
O150 O 0.62575 0.36175 0.86349 0.0
O151 O 0.5557 0.20638 0.8242 0.0
O152 O 0.59552 0.34908 0.98377 0.0
O153 O 0.55463 0.25456 0.96602 0.0
C154 C 0.6134 0.23699 0.61909 0.0
C155 C 0.62195 0.23531 0.17861 0.0
C156 C 0.68573 0.24359 0.83799 0.0
C157 C 0.6171 0.09492 0.92737 0.0
C158 C 0.61022 0.37915 0.93198 0.0
C159 C 0.54296 0.231 0.89322 0.0
O160 O 0.61888 0.2791 0.66632 0.0
O161 O 0.36626 0.27863 0.66718 0.0
Zn162 Zn 0.37807 0.28578 0.81572 0.0
O163 O 0.35752 0.2379 0.89909 0.0
Zn164 Zn 0.33013 0.27549 0.97313 0.0
Zn165 Zn 0.34165 0.18602 0.81158 0.0
Zn166 Zn 0.38069 0.20266 -0.00742 0.0
O167 O 0.33192 0.25846 0.12677 0.0
O168 O 0.37112 0.21994 0.13577 0.0
O169 O 0.37325 0.3601 0.8687 0.0
O170 O 0.3378 0.35153 0.96728 0.0
O171 O 0.29417 0.26418 0.9054 0.0
O172 O 0.3032 0.19808 0.80104 0.0
O173 O 0.34707 0.1127 0.86353 0.0
O174 O 0.41711 0.26813 0.8242 0.0
O175 O 0.37733 0.12536 0.98373 0.0
O176 O 0.4182 0.21994 0.96602 0.0
C177 C 0.35943 0.23745 0.61912 0.0
C178 C 0.35088 0.2391 0.17863 0.0
C179 C 0.2871 0.23085 0.83799 0.0
C180 C 0.3557 0.37953 0.92742 0.0
C181 C 0.36262 0.0953 0.93198 0.0
C182 C 0.42986 0.24351 0.89321 0.0
O183 O 0.35396 0.19534 0.66636 0.0
C184 C 0.22445 0.18476 0.71311 0.0
C185 C 0.21239 0.23177 0.68491 0.0
H186 H 0.25749 0.14787 0.784 0.0
C187 C 0.22454 0.27898 0.71163 0.0
H188 H 0.21533 0.14783 0.69454 0.0
C189 C 0.24827 0.27901 0.76663 0.0
C190 C 0.26043 0.23181 0.79344 0.0
H191 H 0.21535 0.31574 0.69253 0.0
H192 H 0.25745 0.31579 0.78564 0.0
C193 C 0.24838 0.18478 0.76535 0.0
C194 C 0.72445 0.28969 0.76546 0.0
C195 C 0.7124 0.24265 0.79345 0.0
H196 H 0.75749 0.32668 0.69471 0.0
C197 C 0.72455 0.19547 0.76652 0.0
H198 H 0.71534 0.32659 0.78419 0.0
C199 C 0.74828 0.19552 0.71151 0.0
C200 C 0.76043 0.24275 0.6849 0.0
H201 H 0.71537 0.15868 0.78545 0.0
H202 H 0.75746 0.15877 0.69232 0.0
C203 C 0.74838 0.28974 0.71321 0.0
C204 C 0.24827 0.69558 0.2116 0.0
C205 C 0.26043 0.7428 0.18492 0.0
H206 H 0.21536 0.65877 0.28558 0.0
C207 C 0.24837 0.7898 0.21316 0.0
H208 H 0.25746 0.65882 0.19247 0.0
C209 C 0.22445 0.78977 0.2654 0.0
C210 C 0.21239 0.74274 0.29346 0.0
H211 H 0.25749 0.82673 0.19462 0.0
H212 H 0.21533 0.82668 0.28408 0.0
C213 C 0.22455 0.69555 0.2666 0.0
C214 C 0.72444 0.68472 0.21314 0.0
C215 C 0.71238 0.73171 0.18489 0.0
H216 H 0.7575 0.64786 0.28404 0.0
C217 C 0.72453 0.77894 0.21156 0.0
H218 H 0.71533 0.64779 0.1946 0.0
C219 C 0.74826 0.77899 0.26654 0.0
C220 C 0.76042 0.7318 0.29339 0.0
H221 H 0.71534 0.8157 0.19243 0.0
H222 H 0.75744 0.81577 0.28551 0.0
C223 C 0.74838 0.68476 0.26535 0.0
C224 C 0.13406 0.96133 0.47258 0.0
C225 C 0.11024 0.93492 0.45753 0.0
H226 H 0.15263 0.03286 0.51695 0.0
C227 C 0.08644 0.96107 0.47451 0.0
H228 H 0.15263 0.94157 0.46119 0.0
C229 C 0.08644 0.01332 0.50392 0.0
C230 C 0.11024 0.03948 0.52079 0.0
H231 H 0.06786 0.9412 0.46397 0.0
H232 H 0.06787 0.03316 0.51454 0.0
C233 C 0.13406 0.01309 0.50565 0.0
C234 C 0.88637 0.46125 0.5039 0.0
C235 C 0.86257 0.43509 0.52073 0.0
H236 H 0.90495 0.53337 0.46399 0.0
C237 C 0.83875 0.46148 0.50553 0.0
H238 H 0.90495 0.44141 0.51457 0.0
C239 C 0.83876 0.51323 0.47246 0.0
C240 C 0.86258 0.53965 0.45747 0.0
H241 H 0.82018 0.4417 0.5168 0.0
H242 H 0.82019 0.53299 0.46104 0.0
C243 C 0.88637 0.5135 0.4745 0.0
C244 C 0.88009 0.96157 0.47143 0.0
C245 C 0.85626 0.93528 0.45474 0.0
H246 H 0.89865 0.03281 0.51889 0.0
C247 C 0.83252 0.96154 0.47266 0.0
H248 H 0.89866 0.94191 0.45948 0.0
C249 C 0.83252 0.01322 0.50519 0.0
C250 C 0.85625 0.03946 0.5233 0.0
H251 H 0.81387 0.94212 0.46091 0.0
H252 H 0.81387 0.03265 0.5168 0.0
C253 C 0.88009 0.01316 0.5068 0.0
C254 C 0.1403 0.51304 0.47278 0.0
C255 C 0.11656 0.53929 0.45483 0.0
H256 H 0.15895 0.44192 0.51693 0.0
C257 C 0.09273 0.513 0.47149 0.0
H258 H 0.15895 0.53246 0.46106 0.0
C259 C 0.09273 0.46141 0.50685 0.0
C260 C 0.11657 0.43511 0.52338 0.0
H261 H 0.07416 0.53266 0.45952 0.0
H262 H 0.07417 0.44176 0.51893 0.0
C263 C 0.1403 0.46135 0.5053 0.0
C264 C 0.58645 0.51319 0.00406 0.0
C265 C 0.61025 0.53937 0.02081 0.0
H266 H 0.56788 0.44106 0.9642 0.0
C267 C 0.63407 0.513 0.00555 0.0
H268 H 0.56788 0.53302 0.01478 0.0
C269 C 0.63407 0.46124 0.97248 0.0
C270 C 0.61025 0.43481 0.95756 0.0
H271 H 0.65264 0.53279 0.01676 0.0
H272 H 0.65264 0.4415 0.96101 0.0
C273 C 0.58645 0.46094 0.97466 0.0
C274 C 0.38638 0.96124 0.00395 0.0
C275 C 0.36258 0.93508 0.02081 0.0
H276 H 0.40496 0.03336 0.96401 0.0
C277 C 0.33877 0.96147 0.00566 0.0
H278 H 0.40496 0.94139 0.01458 0.0
C279 C 0.33877 0.01323 0.97259 0.0
C280 C 0.36259 0.03964 0.95756 0.0
H281 H 0.3202 0.9417 0.01695 0.0
H282 H 0.3202 0.03299 0.96121 0.0
C283 C 0.38638 0.01349 0.97455 0.0
C284 C 0.33251 0.46152 0.97275 0.0
C285 C 0.35625 0.43527 0.95483 0.0
H286 H 0.31385 0.53264 0.01688 0.0
C287 C 0.38008 0.46156 0.97152 0.0
H288 H 0.31386 0.4421 0.961 0.0
C289 C 0.38008 0.51315 0.00689 0.0
C290 C 0.35624 0.53945 0.02339 0.0
H291 H 0.39865 0.4419 0.95958 0.0
H292 H 0.39864 0.5328 0.01899 0.0
C293 C 0.3325 0.51321 0.00527 0.0
C294 C 0.59271 0.0129 0.97152 0.0
C295 C 0.61655 0.03918 0.95477 0.0
H296 H 0.57415 0.94167 0.01904 0.0
C297 C 0.64029 0.01291 0.97263 0.0
H298 H 0.57415 0.03257 0.95962 0.0
C299 C 0.64029 0.96123 0.00516 0.0
C300 C 0.61655 0.935 0.02334 0.0
H301 H 0.65894 0.03232 0.96083 0.0
H302 H 0.65894 0.94179 0.01672 0.0
C303 C 0.59272 0.96131 0.00689 0.0
C304 C 0.11461 0.19277 0.13526 0.0
C305 C 0.12261 0.23802 0.18684 0.0
H306 H 0.10561 0.15711 -0.00898 0.0
C307 C 0.12785 0.2833 0.13024 0.0
H308 H 0.11024 0.15753 0.17772 0.0
C309 C 0.12433 0.28359 0.02341 0.0
C310 C 0.11617 0.23823 0.97197 0.0
H311 H 0.13363 0.31883 0.16892 0.0
H312 H 0.12817 0.31905 0.98102 0.0
C313 C 0.11179 0.19264 0.02875 0.0
C314 C 0.84496 0.19129 0.13018 0.0
C315 C 0.85021 0.23656 0.18677 0.0
H316 H 0.84462 0.15553 0.98096 0.0
C317 C 0.85822 0.2818 0.1352 0.0
H318 H 0.83916 0.15577 0.16886 0.0
C319 C 0.86104 0.28193 0.02868 0.0
C320 C 0.85665 0.23634 0.97191 0.0
H321 H 0.8626 0.31704 0.17765 0.0
H322 H 0.86723 0.31745 -0.00905 0.0
C323 C 0.84848 0.19099 0.02335 0.0
C324 C 0.12429 0.69076 0.95488 0.0
C325 C 0.11617 0.73615 0.00632 0.0
H326 H 0.13357 0.65549 0.80938 0.0
C327 C 0.11184 0.78175 0.94953 0.0
H328 H 0.1281 0.65528 -0.00273 0.0
C329 C 0.11466 0.78161 0.84302 0.0
C330 C 0.12262 0.73633 0.79145 0.0
H331 H 0.10569 0.8173 0.98726 0.0
H332 H 0.11033 0.81687 0.80056 0.0
C333 C 0.12782 0.69104 0.84805 0.0
C334 C 0.85815 0.69296 0.84295 0.0
C335 C 0.8502 0.73825 0.79138 0.0
H336 H 0.86712 0.65727 0.98719 0.0
C337 C 0.84501 0.78355 0.84797 0.0
H338 H 0.86248 0.65771 0.8005 0.0
C339 C 0.84854 0.78383 0.9548 0.0
C340 C 0.85665 0.73843 0.00624 0.0
H341 H 0.83927 0.8191 0.80929 0.0
H342 H 0.84474 0.81931 -0.00281 0.0
C343 C 0.86098 0.69283 0.94946 0.0
C344 C 0.61176 0.69253 0.52874 0.0
C345 C 0.61616 0.73811 0.47197 0.0
H346 H 0.6102 0.65741 0.67771 0.0
C347 C 0.62433 0.78346 0.52341 0.0
H348 H 0.60558 0.657 0.491 0.0
C349 C 0.62784 0.78317 0.63025 0.0
C350 C 0.62259 0.73789 0.68683 0.0
H351 H 0.62818 0.81893 0.48103 0.0
H352 H 0.63364 0.81869 0.66893 0.0
C353 C 0.61458 0.69265 0.63525 0.0
C354 C 0.35823 0.78179 0.63528 0.0
C355 C 0.35021 0.73655 0.68685 0.0
H356 H 0.36725 0.81743 0.49103 0.0
C357 C 0.34494 0.69129 0.63026 0.0
H358 H 0.36261 0.81702 0.67774 0.0
C359 C 0.34846 0.69099 0.52343 0.0
C360 C 0.35664 0.73633 0.47199 0.0
H361 H 0.33914 0.65577 0.66894 0.0
H362 H 0.3446 0.65553 0.48104 0.0
C363 C 0.36105 0.78191 0.52877 0.0
C364 C 0.62775 0.19084 0.34804 0.0
C365 C 0.62264 0.23618 0.29145 0.0
H366 H 0.62796 0.15506 0.49724 0.0
C367 C 0.61477 0.28151 0.34302 0.0
H368 H 0.63344 0.15525 0.30935 0.0
C369 C 0.61194 0.28166 0.44953 0.0
C370 C 0.61619 0.23602 0.50631 0.0
H371 H 0.61051 0.3168 0.30056 0.0
H372 H 0.60586 0.31726 0.48725 0.0
C373 C 0.62422 0.19058 0.45486 0.0
C374 C 0.35817 0.19295 0.34305 0.0
C375 C 0.3502 0.23822 0.29148 0.0
H376 H 0.36714 0.15726 0.48729 0.0
C377 C 0.345 0.28352 0.34807 0.0
H378 H 0.3625 0.1577 0.30059 0.0
C379 C 0.34852 0.2838 0.4549 0.0
C380 C 0.35665 0.23841 0.50634 0.0
H381 H 0.33924 0.31906 0.30939 0.0
H382 H 0.34471 0.31927 0.49729 0.0
C383 C 0.36099 0.19281 0.44956 0.0
C384 C 0.00013 0.23978 0.68104 0.0
C385 C 0.01401 0.24156 0.58771 0.0
H386 H 0.96231 0.2334 0.75367 0.0
C387 C 5e-05 0.23907 0.49481 0.0
H388 H 0.0105 0.24118 0.75368 0.0
C389 C 0.97276 0.2355 0.49481 0.0
C390 C 0.95881 0.23301 0.5877 0.0
H391 H 0.01026 0.24036 0.42176 0.0
H392 H 0.96256 0.23421 0.42175 0.0
C393 C 0.97269 0.23479 0.68103 0.0
C394 C 0.97277 0.7391 0.48344 0.0
C395 C 0.95881 0.74163 0.39054 0.0
H396 H 0.01025 0.73414 0.5565 0.0
C397 C 0.97269 0.73981 0.29721 0.0
H398 H 0.96256 0.74041 0.55649 0.0
C399 C 0.00013 0.73476 0.29722 0.0
C400 C 0.01401 0.73294 0.39056 0.0
H401 H 0.96232 0.74124 0.22457 0.0
H402 H 0.0105 0.73334 0.22459 0.0
C403 C 5e-05 0.73546 0.48345 0.0
C404 C 0.50005 0.73893 -0.00514 0.0
C405 C 0.514 0.74145 0.08775 0.0
H406 H 0.46255 0.73407 0.92182 0.0
C407 C 0.50012 0.73971 0.18109 0.0
H408 H 0.51025 0.74019 0.92181 0.0
C409 C 0.47268 0.73474 0.18109 0.0
C410 C 0.4588 0.73294 0.08776 0.0
H411 H 0.5105 0.74112 0.25372 0.0
H412 H 0.46231 0.73337 0.25373 0.0
C413 C 0.47276 0.73538 -0.00513 0.0
C414 C 0.47277 0.23915 0.98352 0.0
C415 C 0.45881 0.24163 0.89062 0.0
H416 H 0.51026 0.23421 0.05658 0.0
C417 C 0.47269 0.23976 0.79729 0.0
H418 H 0.46257 0.24051 0.05657 0.0
C419 C 0.50013 0.23469 0.7973 0.0
C420 C 0.51401 0.23291 0.89063 0.0
H421 H 0.46232 0.24115 0.72466 0.0
H422 H 0.5105 0.23322 0.72466 0.0
C423 C 0.50006 0.2355 0.98352 0.0
loop_
_geom_bond_atom_site_label_1
_geom_bond_atom_site_label_2
_geom_bond_distance
_geom_bond_site_symmetry_2
_ccdc_geom_bond_type
O0 Zn1 1.953 . S
O0 C16 1.225 . S
Zn1 O0 1.953 . S
Zn1 O2 1.949 . S
Zn1 O8 1.919 . S
Zn1 O13 1.924 . S
O2 Zn1 1.949 . S
O2 Zn3 1.923 . S
O2 Zn4 1.950 . S
O2 Zn5 1.945 . S
Zn3 O2 1.923 . S
Zn3 O6 1.933 . S
Zn3 O9 1.941 . S
Zn3 O10 1.965 . S
Zn4 O2 1.950 . S
Zn4 O11 1.938 . S
Zn4 O12 1.906 . S
Zn4 O22 1.953 . S
Zn5 O2 1.945 . S
Zn5 O7 1.932 . S
Zn5 O14 1.977 . S
Zn5 O15 1.910 . S
O6 Zn3 1.933 . S
O6 C17 1.226 . S
O7 Zn5 1.932 . S
O7 C17 1.307 . S
O8 Zn1 1.919 . S
O8 C19 1.253 . S
O9 Zn3 1.941 . S
O9 C19 1.283 . S
O10 Zn3 1.965 . S
O10 C18 1.303 . S
O11 Zn4 1.938 . S
O11 C18 1.247 . S
O12 Zn4 1.906 . S
O12 C20 1.304 . S
O13 Zn1 1.924 . S
O13 C21 1.311 . S
O14 Zn5 1.977 . S
O14 C20 1.272 . S
O15 Zn5 1.910 . S
O15 C21 1.231 . S
C16 O0 1.225 . S
C16 O22 1.298 . S
C17 O6 1.226 . S
C17 O7 1.307 . S
C18 O10 1.303 . S
C18 O11 1.247 . S
C19 O8 1.253 . S
C19 O9 1.283 . S
C20 O12 1.304 . S
C20 O14 1.272 . S
C21 O13 1.311 . S
C21 O15 1.231 . S
O22 Zn4 1.953 . S
O22 C16 1.298 . S
O23 Zn24 1.953 . S
O23 C39 1.225 . S
Zn24 O23 1.953 . S
Zn24 O25 1.949 . S
Zn24 O31 1.919 . S
Zn24 O36 1.924 . S
O25 Zn24 1.949 . S
O25 Zn26 1.923 . S
O25 Zn27 1.950 . S
O25 Zn28 1.945 . S
Zn26 O25 1.923 . S
Zn26 O29 1.933 . S
Zn26 O32 1.941 . S
Zn26 O33 1.965 . S
Zn27 O25 1.950 . S
Zn27 O34 1.938 . S
Zn27 O35 1.906 . S
Zn27 O45 1.953 . S
Zn28 O25 1.945 . S
Zn28 O30 1.932 . S
Zn28 O37 1.977 . S
Zn28 O38 1.910 . S
O29 Zn26 1.933 . S
O29 C40 1.226 . S
O30 Zn28 1.932 . S
O30 C40 1.307 . S
O31 Zn24 1.919 . S
O31 C42 1.253 . S
O32 Zn26 1.941 . S
O32 C42 1.283 . S
O33 Zn26 1.965 . S
O33 C41 1.303 . S
O34 Zn27 1.938 . S
O34 C41 1.247 . S
O35 Zn27 1.906 . S
O35 C43 1.304 . S
O36 Zn24 1.924 . S
O36 C44 1.311 . S
O37 Zn28 1.977 . S
O37 C43 1.272 . S
O38 Zn28 1.910 . S
O38 C44 1.231 . S
C39 O23 1.225 . S
C39 O45 1.298 . S
C40 O29 1.226 . S
C40 O30 1.307 . S
C41 O33 1.303 . S
C41 O34 1.247 . S
C42 O31 1.253 . S
C42 O32 1.283 . S
C43 O35 1.304 . S
C43 O37 1.272 . S
C44 O36 1.311 . S
C44 O38 1.231 . S
O45 Zn27 1.953 . S
O45 C39 1.298 . S
O46 Zn47 1.953 . S
O46 C62 1.225 . S
Zn47 O46 1.953 . S
Zn47 O48 1.949 . S
Zn47 O54 1.919 . S
Zn47 O59 1.924 . S
O48 Zn47 1.949 . S
O48 Zn49 1.923 . S
O48 Zn50 1.950 . S
O48 Zn51 1.945 . S
Zn49 O48 1.923 . S
Zn49 O52 1.933 . S
Zn49 O55 1.941 . S
Zn49 O56 1.965 . S
Zn50 O48 1.950 . S
Zn50 O57 1.938 . S
Zn50 O58 1.906 . S
Zn50 O68 1.953 . S
Zn51 O48 1.945 . S
Zn51 O53 1.932 . S
Zn51 O60 1.977 . S
Zn51 O61 1.910 . S
O52 Zn49 1.933 . S
O52 C63 1.226 . S
O53 Zn51 1.932 . S
O53 C63 1.307 . S
O54 Zn47 1.919 . S
O54 C65 1.253 . S
O55 Zn49 1.941 . S
O55 C65 1.283 . S
O56 Zn49 1.965 . S
O56 C64 1.303 . S
O57 Zn50 1.938 . S
O57 C64 1.247 . S
O58 Zn50 1.906 . S
O58 C66 1.304 . S
O59 Zn47 1.924 . S
O59 C67 1.311 . S
O60 Zn51 1.977 . S
O60 C66 1.272 . S
O61 Zn51 1.910 . S
O61 C67 1.231 . S
C62 O46 1.225 . S
C62 O68 1.298 . S
C63 O52 1.226 . S
C63 O53 1.307 . S
C64 O56 1.303 . S
C64 O57 1.247 . S
C65 O54 1.253 . S
C65 O55 1.283 . S
C66 O58 1.304 . S
C66 O60 1.272 . S
C67 O59 1.311 . S
C67 O61 1.231 . S
O68 Zn50 1.953 . S
O68 C62 1.298 . S
O69 Zn70 1.953 . S
O69 C85 1.225 . S
Zn70 O69 1.953 . S
Zn70 O71 1.949 . S
Zn70 O77 1.919 . S
Zn70 O82 1.924 . S
O71 Zn70 1.949 . S
O71 Zn72 1.923 . S
O71 Zn73 1.950 . S
O71 Zn74 1.945 . S
Zn72 O71 1.923 . S
Zn72 O75 1.933 . S
Zn72 O78 1.941 . S
Zn72 O79 1.965 . S
Zn73 O71 1.950 . S
Zn73 O80 1.938 . S
Zn73 O81 1.906 . S
Zn73 O91 1.953 . S
Zn74 O71 1.945 . S
Zn74 O76 1.932 . S
Zn74 O83 1.977 . S
Zn74 O84 1.910 . S
O75 Zn72 1.933 . S
O75 C86 1.226 . S
O76 Zn74 1.932 . S
O76 C86 1.307 . S
O77 Zn70 1.919 . S
O77 C88 1.253 . S
O78 Zn72 1.941 . S
O78 C88 1.283 . S
O79 Zn72 1.965 . S
O79 C87 1.303 . S
O80 Zn73 1.938 . S
O80 C87 1.247 . S
O81 Zn73 1.906 . S
O81 C89 1.304 . S
O82 Zn70 1.924 . S
O82 C90 1.311 . S
O83 Zn74 1.977 . S
O83 C89 1.272 . S
O84 Zn74 1.910 . S
O84 C90 1.231 . S
C85 O69 1.225 . S
C85 O91 1.298 . S
C86 O75 1.226 . S
C86 O76 1.307 . S
C87 O79 1.303 . S
C87 O80 1.247 . S
C88 O77 1.253 . S
C88 O78 1.283 . S
C89 O81 1.304 . S
C89 O83 1.272 . S
C90 O82 1.311 . S
C90 O84 1.231 . S
O91 Zn73 1.953 . S
O91 C85 1.298 . S
O92 Zn93 1.953 . S
O92 C108 1.225 . S
Zn93 O92 1.953 . S
Zn93 O94 1.949 . S
Zn93 O100 1.919 . S
Zn93 O105 1.924 . S
O94 Zn93 1.949 . S
O94 Zn95 1.923 . S
O94 Zn96 1.950 . S
O94 Zn97 1.945 . S
Zn95 O94 1.923 . S
Zn95 O98 1.933 1_554 S
Zn95 O101 1.941 . S
Zn95 O102 1.965 . S
Zn96 O94 1.950 . S
Zn96 O103 1.938 . S
Zn96 O104 1.906 . S
Zn96 O114 1.953 . S
Zn97 O94 1.945 . S
Zn97 O99 1.932 1_554 S
Zn97 O106 1.977 . S
Zn97 O107 1.910 . S
O98 Zn95 1.933 1_556 S
O98 C109 1.226 . S
O99 Zn97 1.932 1_556 S
O99 C109 1.307 . S
O100 Zn93 1.919 . S
O100 C111 1.253 . S
O101 Zn95 1.941 . S
O101 C111 1.283 . S
O102 Zn95 1.965 . S
O102 C110 1.303 . S
O103 Zn96 1.938 . S
O103 C110 1.247 . S
O104 Zn96 1.906 . S
O104 C112 1.304 . S
O105 Zn93 1.924 . S
O105 C113 1.311 . S
O106 Zn97 1.977 . S
O106 C112 1.272 . S
O107 Zn97 1.910 . S
O107 C113 1.231 . S
C108 O92 1.225 . S
C108 O114 1.298 . S
C109 O98 1.226 . S
C109 O99 1.307 . S
C110 O102 1.303 . S
C110 O103 1.247 . S
C111 O100 1.253 . S
C111 O101 1.283 . S
C112 O104 1.304 . S
C112 O106 1.272 . S
C113 O105 1.311 . S
C113 O107 1.231 . S
O114 Zn96 1.953 . S
O114 C108 1.298 . S
O115 Zn116 1.953 . S
O115 C131 1.225 . S
Zn116 O115 1.953 . S
Zn116 O117 1.949 . S
Zn116 O123 1.919 . S
Zn116 O128 1.924 . S
O117 Zn116 1.949 . S
O117 Zn118 1.923 . S
O117 Zn119 1.950 . S
O117 Zn120 1.945 . S
Zn118 O117 1.923 . S
Zn118 O121 1.933 1_554 S
Zn118 O124 1.941 . S
Zn118 O125 1.965 . S
Zn119 O117 1.950 . S
Zn119 O126 1.938 . S
Zn119 O127 1.906 . S
Zn119 O137 1.953 . S
Zn120 O117 1.945 . S
Zn120 O122 1.932 1_554 S
Zn120 O129 1.977 . S
Zn120 O130 1.910 . S
O121 Zn118 1.933 1_556 S
O121 C132 1.226 . S
O122 Zn120 1.932 1_556 S
O122 C132 1.307 . S
O123 Zn116 1.919 . S
O123 C134 1.253 . S
O124 Zn118 1.941 . S
O124 C134 1.283 . S
O125 Zn118 1.965 . S
O125 C133 1.303 . S
O126 Zn119 1.938 . S
O126 C133 1.247 . S
O127 Zn119 1.906 . S
O127 C135 1.304 . S
O128 Zn116 1.924 . S
O128 C136 1.311 . S
O129 Zn120 1.977 . S
O129 C135 1.272 . S
O130 Zn120 1.910 . S
O130 C136 1.231 . S
C131 O115 1.225 . S
C131 O137 1.298 . S
C132 O121 1.226 . S
C132 O122 1.307 . S
C133 O125 1.303 . S
C133 O126 1.247 . S
C134 O123 1.253 . S
C134 O124 1.283 . S
C135 O127 1.304 . S
C135 O129 1.272 . S
C136 O128 1.311 . S
C136 O130 1.231 . S
O137 Zn119 1.953 . S
O137 C131 1.298 . S
O138 Zn139 1.953 . S
O138 C154 1.225 . S
Zn139 O138 1.953 . S
Zn139 O140 1.949 . S
Zn139 O146 1.919 . S
Zn139 O151 1.924 . S
O140 Zn139 1.949 . S
O140 Zn141 1.923 . S
O140 Zn142 1.950 . S
O140 Zn143 1.945 . S
Zn141 O140 1.923 . S
Zn141 O144 1.933 1_556 S
Zn141 O147 1.941 . S
Zn141 O148 1.965 . S
Zn142 O140 1.950 . S
Zn142 O149 1.938 . S
Zn142 O150 1.906 . S
Zn142 O160 1.953 . S
Zn143 O140 1.945 . S
Zn143 O145 1.932 1_556 S
Zn143 O152 1.977 . S
Zn143 O153 1.910 . S
O144 Zn141 1.933 1_554 S
O144 C155 1.226 . S
O145 Zn143 1.932 1_554 S
O145 C155 1.307 . S
O146 Zn139 1.919 . S
O146 C157 1.253 . S
O147 Zn141 1.941 . S
O147 C157 1.283 . S
O148 Zn141 1.965 . S
O148 C156 1.303 . S
O149 Zn142 1.938 . S
O149 C156 1.247 . S
O150 Zn142 1.906 . S
O150 C158 1.304 . S
O151 Zn139 1.924 . S
O151 C159 1.311 . S
O152 Zn143 1.977 . S
O152 C158 1.272 . S
O153 Zn143 1.910 . S
O153 C159 1.231 . S
C154 O138 1.225 . S
C154 O160 1.298 . S
C155 O144 1.226 . S
C155 O145 1.307 . S
C156 O148 1.303 . S
C156 O149 1.247 . S
C157 O146 1.253 . S
C157 O147 1.283 . S
C158 O150 1.304 . S
C158 O152 1.272 . S
C159 O151 1.311 . S
C159 O153 1.231 . S
O160 Zn142 1.953 . S
O160 C154 1.298 . S
O161 Zn162 1.953 . S
O161 C177 1.225 . S
Zn162 O161 1.953 . S
Zn162 O163 1.949 . S
Zn162 O169 1.919 . S
Zn162 O174 1.924 . S
O163 Zn162 1.949 . S
O163 Zn164 1.923 . S
O163 Zn165 1.950 . S
O163 Zn166 1.945 . S
Zn164 O163 1.923 . S
Zn164 O167 1.933 1_556 S
Zn164 O170 1.941 . S
Zn164 O171 1.965 . S
Zn165 O163 1.950 . S
Zn165 O172 1.938 . S
Zn165 O173 1.906 . S
Zn165 O183 1.953 . S
Zn166 O163 1.945 . S
Zn166 O168 1.932 1_556 S
Zn166 O175 1.977 . S
Zn166 O176 1.910 . S
O167 Zn164 1.933 1_554 S
O167 C178 1.226 . S
O168 Zn166 1.932 1_554 S
O168 C178 1.307 . S
O169 Zn162 1.919 . S
O169 C180 1.253 . S
O170 Zn164 1.941 . S
O170 C180 1.283 . S
O171 Zn164 1.965 . S
O171 C179 1.303 . S
O172 Zn165 1.938 . S
O172 C179 1.247 . S
O173 Zn165 1.906 . S
O173 C181 1.304 . S
O174 Zn162 1.924 . S
O174 C182 1.311 . S
O175 Zn166 1.977 . S
O175 C181 1.272 . S
O176 Zn166 1.910 . S
O176 C182 1.231 . S
C177 O161 1.225 . S
C177 O183 1.298 . S
C178 O167 1.226 . S
C178 O168 1.307 . S
C179 O171 1.303 . S
C179 O172 1.247 . S
C180 O169 1.253 . S
C180 O170 1.283 . S
C181 O173 1.304 . S
C181 O175 1.272 . S
C182 O174 1.311 . S
C182 O176 1.231 . S
O183 Zn165 1.953 . S
O183 C177 1.298 . S
C184 C185 1.387 . S
C184 H188 0.950 . S
C184 C193 1.390 . S
C185 C184 1.387 . S
C185 C187 1.387 . S
H186 C193 0.950 . S
C187 C185 1.387 . S
C187 C189 1.390 . S
C187 H191 0.950 . S
H188 C184 0.950 . S
C189 C187 1.390 . S
C189 C190 1.387 . S
C189 H192 0.950 . S
C190 C189 1.387 . S
C190 C193 1.387 . S
H191 C187 0.950 . S
H192 C189 0.950 . S
C193 C184 1.390 . S
C193 H186 0.950 . S
C193 C190 1.387 . S
C194 C195 1.387 . S
C194 H198 0.950 . S
C194 C203 1.390 . S
C195 C194 1.387 . S
C195 C197 1.387 . S
H196 C203 0.950 . S
C197 C195 1.387 . S
C197 C199 1.390 . S
C197 H201 0.950 . S
H198 C194 0.950 . S
C199 C197 1.390 . S
C199 C200 1.387 . S
C199 H202 0.950 . S
C200 C199 1.387 . S
C200 C203 1.387 . S
H201 C197 0.950 . S
H202 C199 0.950 . S
C203 C194 1.390 . S
C203 H196 0.950 . S
C203 C200 1.387 . S
C204 C205 1.387 . S
C204 H208 0.950 . S
C204 C213 1.390 . S
C205 C204 1.387 . S
C205 C207 1.387 . S
H206 C213 0.950 . S
C207 C205 1.387 . S
C207 C209 1.390 . S
C207 H211 0.950 . S
H208 C204 0.950 . S
C209 C207 1.390 . S
C209 C210 1.387 . S
C209 H212 0.950 . S
C210 C209 1.387 . S
C210 C213 1.387 . S
H211 C207 0.950 . S
H212 C209 0.950 . S
C213 C204 1.390 . S
C213 H206 0.950 . S
C213 C210 1.387 . S
C214 C215 1.387 . S
C214 H218 0.950 . S
C214 C223 1.390 . S
C215 C214 1.387 . S
C215 C217 1.387 . S
H216 C223 0.950 . S
C217 C215 1.387 . S
C217 C219 1.390 . S
C217 H221 0.950 . S
H218 C214 0.950 . S
C219 C217 1.390 . S
C219 C220 1.387 . S
C219 H222 0.950 . S
C220 C219 1.387 . S
C220 C223 1.387 . S
H221 C217 0.950 . S
H222 C219 0.950 . S
C223 C214 1.390 . S
C223 H216 0.950 . S
C223 C220 1.387 . S
C224 C225 1.387 . S
C224 H228 0.950 . S
C224 C233 1.390 1_565 S
C225 C224 1.387 . S
C225 C227 1.387 . S
H226 C233 0.950 . S
C227 C225 1.387 . S
C227 C229 1.390 1_565 S
C227 H231 0.950 . S
H228 C224 0.950 . S
C229 C227 1.390 1_545 S
C229 C230 1.387 . S
C229 H232 0.950 . S
C230 C229 1.387 . S
C230 C233 1.387 . S
H231 C227 0.950 . S
H232 C229 0.950 . S
C233 C224 1.390 1_545 S
C233 H226 0.950 . S
C233 C230 1.387 . S
C234 C235 1.387 . S
C234 H238 0.950 . S
C234 C243 1.390 . S
C235 C234 1.387 . S
C235 C237 1.387 . S
H236 C243 0.950 . S
C237 C235 1.387 . S
C237 C239 1.390 . S
C237 H241 0.950 . S
H238 C234 0.950 . S
C239 C237 1.390 . S
C239 C240 1.387 . S
C239 H242 0.950 . S
C240 C239 1.387 . S
C240 C243 1.387 . S
H241 C237 0.950 . S
H242 C239 0.950 . S
C243 C234 1.390 . S
C243 H236 0.950 . S
C243 C240 1.387 . S
C244 C245 1.387 . S
C244 H248 0.950 . S
C244 C253 1.390 1_565 S
C245 C244 1.387 . S
C245 C247 1.387 . S
H246 C253 0.950 . S
C247 C245 1.387 . S
C247 C249 1.390 1_565 S
C247 H251 0.950 . S
H248 C244 0.950 . S
C249 C247 1.390 1_545 S
C249 C250 1.387 . S
C249 H252 0.950 . S
C250 C249 1.387 . S
C250 C253 1.387 . S
H251 C247 0.950 . S
H252 C249 0.950 . S
C253 C244 1.390 1_545 S
C253 H246 0.950 . S
C253 C250 1.387 . S
C254 C255 1.387 . S
C254 H258 0.950 . S
C254 C263 1.390 . S
C255 C254 1.387 . S
C255 C257 1.387 . S
H256 C263 0.950 . S
C257 C255 1.387 . S
C257 C259 1.390 . S
C257 H261 0.950 . S
H258 C254 0.950 . S
C259 C257 1.390 . S
C259 C260 1.387 . S
C259 H262 0.950 . S
C260 C259 1.387 . S
C260 C263 1.387 . S
H261 C257 0.950 . S
H262 C259 0.950 . S
C263 C254 1.390 . S
C263 H256 0.950 . S
C263 C260 1.387 . S
C264 C265 1.387 . S
C264 H268 0.950 . S
C264 C273 1.390 1_554 S
C265 C264 1.387 . S
C265 C267 1.387 . S
H266 C273 0.950 . S
C267 C265 1.387 . S
C267 C269 1.390 1_554 S
C267 H271 0.950 . S
H268 C264 0.950 . S
C269 C267 1.390 1_556 S
C269 C270 1.387 . S
C269 H272 0.950 . S
C270 C269 1.387 . S
C270 C273 1.387 . S
H271 C267 0.950 . S
H272 C269 0.950 . S
C273 C264 1.390 1_556 S
C273 H266 0.950 . S
C273 C270 1.387 . S
C274 C275 1.387 . S
C274 H278 0.950 . S
C274 C283 1.390 1_564 S
C275 C274 1.387 . S
C275 C277 1.387 . S
H276 C283 0.950 . S
C277 C275 1.387 . S
C277 C279 1.390 1_564 S
C277 H281 0.950 . S
H278 C274 0.950 . S
C279 C277 1.390 1_546 S
C279 C280 1.387 . S
C279 H282 0.950 . S
C280 C279 1.387 . S
C280 C283 1.387 . S
H281 C277 0.950 . S
H282 C279 0.950 . S
C283 C274 1.390 1_546 S
C283 H276 0.950 . S
C283 C280 1.387 . S
C284 C285 1.387 . S
C284 H288 0.950 . S
C284 C293 1.390 1_556 S
C285 C284 1.387 . S
C285 C287 1.387 . S
H286 C293 0.950 . S
C287 C285 1.387 . S
C287 C289 1.390 1_556 S
C287 H291 0.950 . S
H288 C284 0.950 . S
C289 C287 1.390 1_554 S
C289 C290 1.387 . S
C289 H292 0.950 . S
C290 C289 1.387 . S
C290 C293 1.387 . S
H291 C287 0.950 . S
H292 C289 0.950 . S
C293 C284 1.390 1_554 S
C293 H286 0.950 . S
C293 C290 1.387 . S
C294 C295 1.387 . S
C294 H298 0.950 . S
C294 C303 1.390 1_546 S
C295 C294 1.387 . S
C295 C297 1.387 . S
H296 C303 0.950 . S
C297 C295 1.387 . S
C297 C299 1.390 1_546 S
C297 H301 0.950 . S
H298 C294 0.950 . S
C299 C297 1.390 1_564 S
C299 C300 1.387 . S
C299 H302 0.950 . S
C300 C299 1.387 . S
C300 C303 1.387 . S
H301 C297 0.950 . S
H302 C299 0.950 . S
C303 C294 1.390 1_564 S
C303 H296 0.950 . S
C303 C300 1.387 . S
C304 C305 1.387 . S
C304 H308 0.950 . S
C304 C313 1.390 . S
C305 C304 1.387 . S
C305 C307 1.387 . S
H306 C313 0.950 . S
C307 C305 1.387 . S
C307 C309 1.390 . S
C307 H311 0.950 . S
H308 C304 0.950 . S
C309 C307 1.390 . S
C309 C310 1.387 1_554 S
C309 H312 0.950 . S
C310 C309 1.387 1_556 S
C310 C313 1.387 1_556 S
H311 C307 0.950 . S
H312 C309 0.950 . S
C313 C304 1.390 . S
C313 H306 0.950 . S
C313 C310 1.387 1_554 S
C314 C315 1.387 . S
C314 H318 0.950 . S
C314 C323 1.390 . S
C315 C314 1.387 . S
C315 C317 1.387 . S
H316 C323 0.950 . S
C317 C315 1.387 . S
C317 C319 1.390 . S
C317 H321 0.950 . S
H318 C314 0.950 . S
C319 C317 1.390 . S
C319 C320 1.387 1_554 S
C319 H322 0.950 . S
C320 C319 1.387 1_556 S
C320 C323 1.387 1_556 S
H321 C317 0.950 . S
H322 C319 0.950 . S
C323 C314 1.390 . S
C323 H316 0.950 . S
C323 C320 1.387 1_554 S
C324 C325 1.387 1_556 S
C324 H328 0.950 . S
C324 C333 1.390 . S
C325 C324 1.387 1_554 S
C325 C327 1.387 1_554 S
H326 C333 0.950 . S
C327 C325 1.387 1_556 S
C327 C329 1.390 . S
C327 H331 0.950 . S
H328 C324 0.950 . S
C329 C327 1.390 . S
C329 C330 1.387 . S
C329 H332 0.950 . S
C330 C329 1.387 . S
C330 C333 1.387 . S
H331 C327 0.950 . S
H332 C329 0.950 . S
C333 C324 1.390 . S
C333 H326 0.950 . S
C333 C330 1.387 . S
C334 C335 1.387 . S
C334 H338 0.950 . S
C334 C343 1.390 . S
C335 C334 1.387 . S
C335 C337 1.387 . S
H336 C343 0.950 . S
C337 C335 1.387 . S
C337 C339 1.390 . S
C337 H341 0.950 . S
H338 C334 0.950 . S
C339 C337 1.390 . S
C339 C340 1.387 1_556 S
C339 H342 0.950 . S
C340 C339 1.387 1_554 S
C340 C343 1.387 1_554 S
H341 C337 0.950 . S
H342 C339 0.950 . S
C343 C334 1.390 . S
C343 H336 0.950 . S
C343 C340 1.387 1_556 S
C344 C345 1.387 . S
C344 H348 0.950 . S
C344 C353 1.390 . S
C345 C344 1.387 . S
C345 C347 1.387 . S
H346 C353 0.950 . S
C347 C345 1.387 . S
C347 C349 1.390 . S
C347 H351 0.950 . S
H348 C344 0.950 . S
C349 C347 1.390 . S
C349 C350 1.387 . S
C349 H352 0.950 . S
C350 C349 1.387 . S
C350 C353 1.387 . S
H351 C347 0.950 . S
H352 C349 0.950 . S
C353 C344 1.390 . S
C353 H346 0.950 . S
C353 C350 1.387 . S
C354 C355 1.387 . S
C354 H358 0.950 . S
C354 C363 1.390 . S
C355 C354 1.387 . S
C355 C357 1.387 . S
H356 C363 0.950 . S
C357 C355 1.387 . S
C357 C359 1.390 . S
C357 H361 0.950 . S
H358 C354 0.950 . S
C359 C357 1.390 . S
C359 C360 1.387 . S
C359 H362 0.950 . S
C360 C359 1.387 . S
C360 C363 1.387 . S
H361 C357 0.950 . S
H362 C359 0.950 . S
C363 C354 1.390 . S
C363 H356 0.950 . S
C363 C360 1.387 . S
C364 C365 1.387 . S
C364 H368 0.950 . S
C364 C373 1.390 . S
C365 C364 1.387 . S
C365 C367 1.387 . S
H366 C373 0.950 . S
C367 C365 1.387 . S
C367 C369 1.390 . S
C367 H371 0.950 . S
H368 C364 0.950 . S
C369 C367 1.390 . S
C369 C370 1.387 . S
C369 H372 0.950 . S
C370 C369 1.387 . S
C370 C373 1.387 . S
H371 C367 0.950 . S
H372 C369 0.950 . S
C373 C364 1.390 . S
C373 H366 0.950 . S
C373 C370 1.387 . S
C374 C375 1.387 . S
C374 H378 0.950 . S
C374 C383 1.390 . S
C375 C374 1.387 . S
C375 C377 1.387 . S
H376 C383 0.950 . S
C377 C375 1.387 . S
C377 C379 1.390 . S
C377 H381 0.950 . S
H378 C374 0.950 . S
C379 C377 1.390 . S
C379 C380 1.387 . S
C379 H382 0.950 . S
C380 C379 1.387 . S
C380 C383 1.387 . S
H381 C377 0.950 . S
H382 C379 0.950 . S
C383 C374 1.390 . S
C383 H376 0.950 . S
C383 C380 1.387 . S
C384 C385 1.387 . S
C384 H388 0.950 . S
C384 C393 1.390 1_455 S
C385 C384 1.387 . S
C385 C387 1.387 . S
H386 C393 0.950 . S
C387 C385 1.387 . S
C387 C389 1.390 1_455 S
C387 H391 0.950 . S
H388 C384 0.950 . S
C389 C387 1.390 1_655 S
C389 C390 1.387 . S
C389 H392 0.950 . S
C390 C389 1.387 . S
C390 C393 1.387 . S
H391 C387 0.950 . S
H392 C389 0.950 . S
C393 C384 1.390 1_655 S
C393 H386 0.950 . S
C393 C390 1.387 . S
C394 C395 1.387 . S
C394 H398 0.950 . S
C394 C403 1.390 1_655 S
C395 C394 1.387 . S
C395 C397 1.387 . S
H396 C403 0.950 . S
C397 C395 1.387 . S
C397 C399 1.390 1_655 S
C397 H401 0.950 . S
H398 C394 0.950 . S
C399 C397 1.390 1_455 S
C399 C400 1.387 . S
C399 H402 0.950 . S
C400 C399 1.387 . S
C400 C403 1.387 . S
H401 C397 0.950 . S
H402 C399 0.950 . S
C403 C394 1.390 1_455 S
C403 H396 0.950 . S
C403 C400 1.387 . S
C404 C405 1.387 . S
C404 H408 0.950 1_554 S
C404 C413 1.390 . S
C405 C404 1.387 . S
C405 C407 1.387 . S
H406 C413 0.950 1_556 S
C407 C405 1.387 . S
C407 C409 1.390 . S
C407 H411 0.950 . S
H408 C404 0.950 1_556 S
C409 C407 1.390 . S
C409 C410 1.387 . S
C409 H412 0.950 . S
C410 C409 1.387 . S
C410 C413 1.387 . S
H411 C407 0.950 . S
H412 C409 0.950 . S
C413 C404 1.390 . S
C413 H406 0.950 1_554 S
C413 C410 1.387 . S
C414 C415 1.387 . S
C414 H418 0.950 1_556 S
C414 C423 1.390 . S
C415 C414 1.387 . S
C415 C417 1.387 . S
H416 C423 0.950 1_554 S
C417 C415 1.387 . S
C417 C419 1.390 . S
C417 H421 0.950 . S
H418 C414 0.950 1_554 S
C419 C417 1.390 . S
C419 C420 1.387 . S
C419 H422 0.950 . S
C420 C419 1.387 . S
C420 C423 1.387 . S
H421 C417 0.950 . S
H422 C419 0.950 . S
C423 C414 1.390 . S
C423 H416 0.950 1_556 S
C423 C420 1.387 . S
C185 C18 1.467 . S
C190 C179 1.467 . S
C195 C156 1.467 . S
C200 C41 1.467 . S
C205 C133 1.467 . S
C210 C64 1.467 . S
C215 C110 1.467 . S
C220 C87 1.467 . S
C225 C66 1.552 . S
C230 C20 1.552 . S
C235 C43 1.552 . S
C240 C89 1.552 . S
C245 C88 1.528 . S
C250 C42 1.528 . S
C255 C65 1.527 . S
C260 C19 1.527 . S
C265 C112 1.552 . S
C270 C158 1.552 . S
C275 C135 1.552 . S
C280 C181 1.552 . S
C285 C180 1.527 . S
C290 C134 1.527 . S
C295 C157 1.528 . S
C300 C111 1.528 . S
C305 C17 1.423 . S
C310 C16 1.421 . S
C315 C40 1.422 . S
C320 C39 1.420 . S
C325 C62 1.420 . S
C330 C63 1.422 . S
C335 C86 1.423 . S
C340 C85 1.421 . S
C345 C108 1.421 . S
C350 C109 1.423 . S
C355 C132 1.423 . S
C360 C131 1.421 . S
C365 C155 1.422 . S
C370 C154 1.420 . S
C375 C178 1.423 . S
C380 C177 1.421 . S
C385 C21 1.475 . S
C390 C44 1.475 . S
C395 C90 1.474 . S
C400 C67 1.474 . S
C405 C113 1.474 . S
C410 C136 1.474 . S
C415 C182 1.474 . S
C420 C159 1.474 . S
