# Generated by pormake.
# Topology cag, (4)-cn, num edge types: 1
# Building blocks:
#     Node 0, Type 0, BuildingBlock: AZAVOO_clean_sbu_0, # of connection points: 4
#     Node 1, Type 0, BuildingBlock: AZAVOO_clean_sbu_0, # of connection points: 4
#     Node 2, Type 0, BuildingBlock: AZAVOO_clean_sbu_0, # of connection points: 4
#     Node 3, Type 0, BuildingBlock: AZAVOO_clean_sbu_0, # of connection points: 4
#     Node 4, Type 0, BuildingBlock: AZAVOO_clean_sbu_0, # of connection points: 4
#     Node 5, Type 0, BuildingBlock: AZAVOO_clean_sbu_0, # of connection points: 4
#     Node 6, Type 0, BuildingBlock: AZAVOO_clean_sbu_0, # of connection points: 4
#     Node 7, Type 0, BuildingBlock: AZAVOO_clean_sbu_0, # of connection points: 4
#     Node 8, Type 0, BuildingBlock: AZAVOO_clean_sbu_0, # of connection points: 4
#     Node 9, Type 0, BuildingBlock: AZAVOO_clean_sbu_0, # of connection points: 4
#     Node 10, Type 0, BuildingBlock: AZAVOO_clean_sbu_0, # of connection points: 4
#     Node 11, Type 0, BuildingBlock: AZAVOO_clean_sbu_0, # of connection points: 4
#     Node 12, Type 0, BuildingBlock: AZAVOO_clean_sbu_0, # of connection points: 4
#     Node 13, Type 0, BuildingBlock: AZAVOO_clean_sbu_0, # of connection points: 4
#     Node 14, Type 0, BuildingBlock: AZAVOO_clean_sbu_0, # of connection points: 4
#     Node 15, Type 0, BuildingBlock: AZAVOO_clean_sbu_0, # of connection points: 4
#     Edge 16, Type (0, 0), BuildingBlock: XIVTED_clean_linker_0, # of connection points: 2
#     Edge 17, Type (0, 0), BuildingBlock: XIVTED_clean_linker_0, # of connection points: 2
#     Edge 18, Type (0, 0), BuildingBlock: XIVTED_clean_linker_0, # of connection points: 2
#     Edge 19, Type (0, 0), BuildingBlock: XIVTED_clean_linker_0, # of connection points: 2
#     Edge 20, Type (0, 0), BuildingBlock: XIVTED_clean_linker_0, # of connection points: 2
#     Edge 21, Type (0, 0), BuildingBlock: XIVTED_clean_linker_0, # of connection points: 2
#     Edge 22, Type (0, 0), BuildingBlock: XIVTED_clean_linker_0, # of connection points: 2
#     Edge 23, Type (0, 0), BuildingBlock: XIVTED_clean_linker_0, # of connection points: 2
#     Edge 24, Type (0, 0), BuildingBlock: XIVTED_clean_linker_0, # of connection points: 2
#     Edge 25, Type (0, 0), BuildingBlock: XIVTED_clean_linker_0, # of connection points: 2
#     Edge 26, Type (0, 0), BuildingBlock: XIVTED_clean_linker_0, # of connection points: 2
#     Edge 27, Type (0, 0), BuildingBlock: XIVTED_clean_linker_0, # of connection points: 2
#     Edge 28, Type (0, 0), BuildingBlock: XIVTED_clean_linker_0, # of connection points: 2
#     Edge 29, Type (0, 0), BuildingBlock: XIVTED_clean_linker_0, # of connection points: 2
#     Edge 30, Type (0, 0), BuildingBlock: XIVTED_clean_linker_0, # of connection points: 2
#     Edge 31, Type (0, 0), BuildingBlock: XIVTED_clean_linker_0, # of connection points: 2
#     Edge 32, Type (0, 0), BuildingBlock: XIVTED_clean_linker_0, # of connection points: 2
#     Edge 33, Type (0, 0), BuildingBlock: XIVTED_clean_linker_0, # of connection points: 2
#     Edge 34, Type (0, 0), BuildingBlock: XIVTED_clean_linker_0, # of connection points: 2
#     Edge 35, Type (0, 0), BuildingBlock: XIVTED_clean_linker_0, # of connection points: 2
#     Edge 36, Type (0, 0), BuildingBlock: XIVTED_clean_linker_0, # of connection points: 2
#     Edge 37, Type (0, 0), BuildingBlock: XIVTED_clean_linker_0, # of connection points: 2
#     Edge 38, Type (0, 0), BuildingBlock: XIVTED_clean_linker_0, # of connection points: 2
#     Edge 39, Type (0, 0), BuildingBlock: XIVTED_clean_linker_0, # of connection points: 2
#     Edge 40, Type (0, 0), BuildingBlock: XIVTED_clean_linker_0, # of connection points: 2
#     Edge 41, Type (0, 0), BuildingBlock: XIVTED_clean_linker_0, # of connection points: 2
#     Edge 42, Type (0, 0), BuildingBlock: XIVTED_clean_linker_0, # of connection points: 2
#     Edge 43, Type (0, 0), BuildingBlock: XIVTED_clean_linker_0, # of connection points: 2
#     Edge 44, Type (0, 0), BuildingBlock: XIVTED_clean_linker_0, # of connection points: 2
#     Edge 45, Type (0, 0), BuildingBlock: XIVTED_clean_linker_0, # of connection points: 2
#     Edge 46, Type (0, 0), BuildingBlock: XIVTED_clean_linker_0, # of connection points: 2
#     Edge 47, Type (0, 0), BuildingBlock: XIVTED_clean_linker_0, # of connection points: 2
# Relax obj value: 0.058
# Max RMSD: 0.099
# Mean RMSD: 0.096
data_MOF--net-cag--node1-AZAVOO_clean_sbu_0--edge1-XIVTED_clean_linker_0
_symmetry_space_group_name_H-M    P1
_symmetry_Int_Tables_number       1
_symmetry_cell_setting            triclinic
loop_
_symmetry_equiv_pos_as_xyz
'x, y, z'
_cell_length_a     44.660455
_cell_length_b     46.059747
_cell_length_c     43.190859
_cell_angle_alpha  90.004548
_cell_angle_beta   89.994741
_cell_angle_gamma 89.988761
loop_
_atom_site_label
_atom_site_type_symbol
_atom_site_fract_x
_atom_site_fract_y
_atom_site_fract_z
_atom_type_partial_charge
Mg0 Mg 0.34866 0.12142 0.1312 0.0
O1 O 0.33421 0.09104 0.09194 0.0
O2 O 0.28427 0.08729 0.09404 0.0
Mg3 Mg 0.26675 0.11404 0.13486 0.0
C4 C 0.30946 0.08094 0.0817 0.0
C5 C 0.41714 0.12096 0.12979 0.0
O6 O 0.41074 0.11472 0.15873 0.0
O7 O 0.33132 0.16092 0.10374 0.0
O8 O 0.28203 0.15575 0.11133 0.0
O9 O 0.35161 0.0833 0.16405 0.0
O10 O 0.31086 0.10925 0.15572 0.0
C11 C 0.30439 0.17004 0.10102 0.0
C12 C 0.32326 0.08717 0.16856 0.0
O13 O 0.39573 0.12546 0.11097 0.0
Mg14 Mg 0.15939 0.88457 0.62764 0.0
O15 O 0.17352 0.91574 0.58891 0.0
O16 O 0.22344 0.91964 0.59098 0.0
Mg17 Mg 0.24132 0.8923 0.63115 0.0
C18 C 0.19821 0.92612 0.57884 0.0
C19 C 0.09108 0.88463 0.62724 0.0
O20 O 0.09807 0.88975 0.65628 0.0
O21 O 0.1768 0.84557 0.5993 0.0
O22 O 0.22607 0.85094 0.60689 0.0
O23 O 0.15645 0.92204 0.6613 0.0
O24 O 0.19728 0.89644 0.65224 0.0
C25 C 0.2038 0.83666 0.59636 0.0
C26 C 0.18482 0.9182 0.66561 0.0
O27 O 0.11211 0.88085 0.60778 0.0
Mg28 Mg 0.34693 0.89067 0.86319 0.0
O29 O 0.33269 0.9229 0.90099 0.0
O30 O 0.28276 0.92672 0.89833 0.0
Mg31 Mg 0.26508 0.89859 0.85875 0.0
C32 C 0.30787 0.93348 0.91056 0.0
C33 C 0.40827 0.86338 0.8773 0.0
O34 O 0.39435 0.84252 0.86236 0.0
O35 O 0.32909 0.85254 0.89253 0.0
O36 O 0.2799 0.85781 0.8844 0.0
O37 O 0.35038 0.92705 0.82824 0.0
O38 O 0.30932 0.90206 0.8381 0.0
C39 C 0.30206 0.84376 0.89555 0.0
C40 C 0.32199 0.92323 0.82393 0.0
O41 O 0.39416 0.88673 0.88306 0.0
Mg42 Mg 0.15612 0.11671 0.36025 0.0
O43 O 0.16976 0.0851 0.3989 0.0
O44 O 0.21979 0.08188 0.3973 0.0
Mg45 Mg 0.23808 0.10977 0.35785 0.0
C46 C 0.19453 0.07494 0.4091 0.0
C47 C 0.0928 0.14024 0.36545 0.0
O48 O 0.10564 0.15667 0.34441 0.0
O49 O 0.17277 0.15535 0.3895 0.0
O50 O 0.22219 0.1506 0.38271 0.0
O51 O 0.15373 0.07979 0.32588 0.0
O52 O 0.19437 0.10523 0.33624 0.0
C53 C 0.1996 0.16447 0.39314 0.0
C54 C 0.18219 0.08372 0.32217 0.0
O55 O 0.10841 0.12079 0.3787 0.0
Mg56 Mg 0.69619 0.85229 0.9206 0.0
O57 O 0.70975 0.89628 0.94181 0.0
O58 O 0.75977 0.8963 0.94413 0.0
Mg59 Mg 0.77804 0.85334 0.92564 0.0
C60 C 0.73453 0.90866 0.9486 0.0
C61 C 0.63047 0.84569 0.90849 0.0
O62 O 0.64207 0.81947 0.90782 0.0
O63 O 0.71099 0.86765 0.87283 0.0
O64 O 0.76086 0.86531 0.877 0.0
O65 O 0.69532 0.83189 0.96727 0.0
O66 O 0.73522 0.83284 0.93712 0.0
C67 C 0.73717 0.87013 0.86118 0.0
C68 C 0.72335 0.82575 0.96319 0.0
O69 O 0.64788 0.86711 0.91311 0.0
Mg70 Mg 0.80675 0.15318 0.42009 0.0
O71 O 0.79409 0.10897 0.44108 0.0
O72 O 0.74412 0.10775 0.44369 0.0
Mg73 Mg 0.72503 0.15057 0.42556 0.0
C74 C 0.76969 0.09598 0.44795 0.0
C75 C 0.8705 0.1569 0.39675 0.0
O76 O 0.85731 0.18054 0.38653 0.0
O77 O 0.79193 0.13792 0.37239 0.0
O78 O 0.74204 0.13934 0.37658 0.0
O79 O 0.80761 0.17322 0.46689 0.0
O80 O 0.76752 0.17193 0.437 0.0
C81 C 0.76581 0.13508 0.36071 0.0
C82 C 0.77946 0.17898 0.46305 0.0
O83 O 0.85498 0.13863 0.41189 0.0
Mg84 Mg 0.69873 0.16322 0.07572 0.0
O85 O 0.71143 0.12047 0.05168 0.0
O86 O 0.76125 0.12019 0.04687 0.0
Mg87 Mg 0.78021 0.16257 0.06641 0.0
C88 C 0.73571 0.10821 0.04308 0.0
C89 C 0.63135 0.14662 0.06511 0.0
O90 O 0.63817 0.15549 0.03708 0.0
O91 O 0.71622 0.14584 0.1215 0.0
O92 O 0.76588 0.14855 0.11557 0.0
O93 O 0.69541 0.18565 0.03023 0.0
O94 O 0.73681 0.18364 0.05806 0.0
C95 C 0.74278 0.14294 0.13202 0.0
C96 C 0.72361 0.19169 0.033 0.0
O97 O 0.65163 0.14622 0.08578 0.0
Mg98 Mg 0.80905 0.84371 0.57732 0.0
O99 O 0.79494 0.88583 0.55279 0.0
O100 O 0.74518 0.88416 0.5475 0.0
Mg101 Mg 0.72765 0.84134 0.56728 0.0
C102 C 0.77025 0.89707 0.54384 0.0
C103 C 0.87542 0.86299 0.56625 0.0
O104 O 0.86809 0.85521 0.538 0.0
O105 O 0.79055 0.86084 0.62284 0.0
O106 O 0.74109 0.85627 0.61637 0.0
O107 O 0.81361 0.82111 0.53206 0.0
O108 O 0.77191 0.82189 0.55947 0.0
C109 C 0.76378 0.86285 0.63303 0.0
C110 C 0.78563 0.81418 0.53459 0.0
O111 O 0.85563 0.86204 0.58742 0.0
Mg112 Mg 0.84878 0.62089 0.12538 0.0
O113 O 0.83406 0.59077 0.08593 0.0
O114 O 0.78405 0.58795 0.08775 0.0
Mg115 Mg 0.76671 0.61488 0.1285 0.0
C116 C 0.80917 0.58116 0.07554 0.0
C117 C 0.91736 0.6195 0.12431 0.0
O118 O 0.91084 0.6132 0.1532 0.0
O119 O 0.83231 0.66076 0.0979 0.0
O120 O 0.78292 0.65632 0.10516 0.0
O121 O 0.85082 0.58272 0.15825 0.0
O122 O 0.81058 0.60931 0.14966 0.0
C123 C 0.80555 0.67031 0.09504 0.0
C124 C 0.82252 0.58707 0.16264 0.0
O125 O 0.89605 0.62429 0.10546 0.0
Mg126 Mg 0.65491 0.3832 0.62654 0.0
O127 O 0.6696 0.41315 0.58694 0.0
O128 O 0.71963 0.41586 0.58853 0.0
Mg129 Mg 0.73703 0.38895 0.62925 0.0
C130 C 0.69448 0.42268 0.57641 0.0
C131 C 0.5864 0.38493 0.62597 0.0
O132 O 0.59322 0.39114 0.65482 0.0
O133 O 0.67109 0.34323 0.59907 0.0
O134 O 0.72054 0.34752 0.60602 0.0
O135 O 0.65322 0.42149 0.65929 0.0
O136 O 0.69327 0.39464 0.65054 0.0
C137 C 0.6978 0.3336 0.59604 0.0
C138 C 0.68153 0.41701 0.66344 0.0
O139 O 0.60752 0.38002 0.60692 0.0
Mg140 Mg 0.84709 0.38889 0.85769 0.0
O141 O 0.83419 0.42183 0.89537 0.0
O142 O 0.7843 0.42646 0.89334 0.0
Mg143 Mg 0.76536 0.39826 0.85448 0.0
C144 C 0.80968 0.43293 0.90514 0.0
C145 C 0.91133 0.36801 0.85992 0.0
O146 O 0.89952 0.35516 0.83565 0.0
O147 O 0.82903 0.35143 0.88783 0.0
O148 O 0.77984 0.35751 0.8804 0.0
O149 O 0.85067 0.4248 0.82215 0.0
O150 O 0.80931 0.40072 0.83313 0.0
C151 C 0.80188 0.34319 0.89138 0.0
C152 C 0.82214 0.42146 0.81842 0.0
O153 O 0.89467 0.38414 0.87647 0.0
Mg154 Mg 0.66056 0.61638 0.36076 0.0
O155 O 0.67416 0.58284 0.39749 0.0
O156 O 0.72394 0.57774 0.39436 0.0
Mg157 Mg 0.74215 0.60653 0.35559 0.0
C158 C 0.69871 0.57134 0.40656 0.0
C159 C 0.59411 0.602 0.37841 0.0
O160 O 0.60129 0.57793 0.36386 0.0
O161 O 0.6797 0.65317 0.39097 0.0
O162 O 0.72873 0.64685 0.38287 0.0
O163 O 0.65593 0.58094 0.32476 0.0
O164 O 0.69769 0.60461 0.33501 0.0
C165 C 0.70694 0.66111 0.39447 0.0
C166 C 0.68439 0.58409 0.32036 0.0
O167 O 0.61392 0.62157 0.38192 0.0
Mg168 Mg 0.19561 0.34934 0.92231 0.0
O169 O 0.2099 0.39331 0.94295 0.0
O170 O 0.25994 0.393 0.94457 0.0
Mg171 Mg 0.2775 0.34961 0.92641 0.0
C172 C 0.23484 0.40558 0.94926 0.0
C173 C 0.13294 0.3495 0.89547 0.0
O174 O 0.14673 0.32789 0.88163 0.0
O175 O 0.21026 0.36412 0.87436 0.0
O176 O 0.26014 0.36119 0.87768 0.0
O177 O 0.19486 0.32928 0.96919 0.0
O178 O 0.23453 0.3297 0.93871 0.0
C179 C 0.23626 0.36615 0.86222 0.0
C180 C 0.22281 0.32289 0.96494 0.0
O181 O 0.14766 0.36502 0.91446 0.0
Mg182 Mg 0.31088 0.65301 0.41988 0.0
O183 O 0.2958 0.61022 0.4423 0.0
O184 O 0.24584 0.61095 0.44483 0.0
Mg185 Mg 0.22899 0.65394 0.42482 0.0
C186 C 0.27091 0.59839 0.44959 0.0
C187 C 0.37941 0.65181 0.42174 0.0
O188 O 0.37266 0.67724 0.43361 0.0
O189 O 0.29568 0.63684 0.37258 0.0
O190 O 0.24587 0.64028 0.37652 0.0
O191 O 0.31205 0.67455 0.466 0.0
O192 O 0.27233 0.67408 0.4356 0.0
C193 C 0.26949 0.63458 0.36092 0.0
C194 C 0.28426 0.68142 0.46156 0.0
O195 O 0.35823 0.63517 0.41319 0.0
Mg196 Mg 0.20088 0.66008 0.07665 0.0
O197 O 0.21347 0.61752 0.05222 0.0
O198 O 0.26326 0.61712 0.04719 0.0
Mg199 Mg 0.28234 0.65936 0.06699 0.0
C200 C 0.23767 0.60524 0.04343 0.0
C201 C 0.13342 0.64403 0.06596 0.0
O202 O 0.14028 0.65351 0.03817 0.0
O203 O 0.2185 0.64236 0.12225 0.0
O204 O 0.26814 0.64508 0.1161 0.0
O205 O 0.19749 0.68292 0.03138 0.0
O206 O 0.23895 0.68064 0.05908 0.0
C207 C 0.24511 0.63939 0.13262 0.0
C208 C 0.22568 0.68896 0.03416 0.0
O209 O 0.15373 0.64304 0.08659 0.0
Mg210 Mg 0.30404 0.34403 0.57547 0.0
O211 O 0.29027 0.3872 0.55306 0.0
O212 O 0.24038 0.38707 0.54916 0.0
Mg213 Mg 0.22238 0.34397 0.5679 0.0
C214 C 0.26571 0.39941 0.54526 0.0
C215 C 0.37123 0.36084 0.56414 0.0
O216 O 0.3641 0.35189 0.53622 0.0
O217 O 0.28728 0.35992 0.62215 0.0
O218 O 0.23755 0.35684 0.61714 0.0
O219 O 0.30672 0.32304 0.52918 0.0
O220 O 0.26587 0.32363 0.55795 0.0
C221 C 0.2609 0.36225 0.63329 0.0
C222 C 0.27867 0.31659 0.53233 0.0
O223 O 0.35117 0.36128 0.58505 0.0
H224 H 0.25852 0.20655 0.11351 0.0
H225 H 0.27924 0.29974 0.95989 0.0
H226 H 0.33502 0.19688 0.05339 0.0
H227 H 0.20547 0.30897 0.0237 0.0
H228 H 0.30394 0.26714 -0.00332 0.0
H229 H 0.24299 0.24894 0.08421 0.0
C230 C 0.27221 0.21354 0.09418 0.0
C231 C 0.29786 0.19793 0.08555 0.0
C232 C 0.28256 0.27665 0.0028 0.0
C233 C 0.27991 0.24648 0.05145 0.0
C234 C 0.26846 0.29533 0.98185 0.0
C235 C 0.24006 0.30684 0.9886 0.0
C236 C 0.2681 0.26943 0.03062 0.0
C237 C 0.22718 0.30036 0.01736 0.0
C238 C 0.26334 0.23783 0.07745 0.0
C239 C 0.31501 0.20826 0.06067 0.0
N240 N 0.24115 0.28189 0.03713 0.0
N241 N 0.30545 0.2317 0.04411 0.0
H242 H 0.22825 0.70547 0.45602 0.0
H243 H 0.25013 0.80057 0.60828 0.0
H244 H 0.30205 0.69653 0.51982 0.0
H245 H 0.17308 0.80965 0.54882 0.0
H246 H 0.26562 0.75816 0.57905 0.0
H247 H 0.2041 0.73911 0.49217 0.0
C248 C 0.23915 0.71019 0.47783 0.0
C249 C 0.26738 0.6984 0.48478 0.0
C250 C 0.24517 0.76915 0.5724 0.0
C251 C 0.23998 0.73698 0.52606 0.0
C252 C 0.23632 0.79347 0.58908 0.0
C253 C 0.2105 0.8089 0.58066 0.0
C254 C 0.22839 0.76025 0.54665 0.0
C255 C 0.19322 0.79841 0.55595 0.0
C256 C 0.22537 0.72947 0.49841 0.0
C257 C 0.28045 0.7053 0.51334 0.0
N258 N 0.20273 0.77491 0.53944 0.0
N259 N 0.26678 0.72431 0.53275 0.0
H260 H 0.25408 0.80885 0.88669 0.0
H261 H 0.28231 0.7121 0.03681 0.0
H262 H 0.33423 0.81643 0.9419 0.0
H263 H 0.20492 0.70533 0.97741 0.0
H264 H 0.30495 0.74599 -0.00016 0.0
H265 H 0.23918 0.76687 0.91683 0.0
C266 C 0.26867 0.80157 0.90517 0.0
C267 C 0.29524 0.81646 0.91211 0.0
C268 C 0.2832 0.73677 -0.00526 0.0
C269 C 0.27807 0.76818 0.94714 0.0
C270 C 0.27028 0.71737 0.01578 0.0
C271 C 0.24153 0.7061 0.01032 0.0
C272 C 0.2672 0.74493 0.96814 0.0
C273 C 0.22698 0.71368 0.98274 0.0
C274 C 0.26015 0.77747 0.92238 0.0
C275 C 0.31348 0.80565 0.93593 0.0
N276 N 0.23986 0.73277 0.96287 0.0
N277 N 0.30434 0.78234 0.95295 0.0
H278 H 0.29763 0.30465 0.4737 0.0
H279 H 0.16617 0.1911 0.43894 0.0
H280 H 0.22299 0.29149 0.5356 0.0
H281 H 0.24719 0.20009 0.38534 0.0
H282 H 0.18139 0.23344 0.47003 0.0
H283 H 0.274 0.27243 0.43628 0.0
C284 C 0.27608 0.29522 0.47929 0.0
C285 C 0.26246 0.30047 0.50796 0.0
C286 C 0.19559 0.22626 0.4512 0.0
C287 C 0.23534 0.26312 0.46532 0.0
C288 C 0.18687 0.20221 0.43344 0.0
C289 C 0.20569 0.19182 0.4099 0.0
C290 C 0.2231 0.24 0.44502 0.0
C291 C 0.23225 0.20701 0.40366 0.0
C292 C 0.26258 0.27675 0.45792 0.0
C293 C 0.23436 0.28787 0.51381 0.0
N294 N 0.2402 0.23013 0.42119 0.0
N295 N 0.22187 0.26944 0.49282 0.0
H296 H 0.83786 0.69778 0.04897 0.0
H297 H 0.70653 0.81331 0.02244 0.0
H298 H 0.75928 0.70669 0.10632 0.0
H299 H 0.77898 0.80102 0.95761 0.0
H300 H 0.73142 0.78049 0.0584 0.0
H301 H 0.82229 0.74129 0.01998 0.0
C302 C 0.81766 0.70913 0.05574 0.0
C303 C 0.79955 0.69838 0.07969 0.0
C304 C 0.74211 0.78516 0.03645 0.0
C305 C 0.78174 0.74787 0.04696 0.0
C306 C 0.72789 0.80397 0.01592 0.0
C307 C 0.74049 0.8096 0.98683 0.0
C308 C 0.76901 0.77156 0.02775 0.0
C309 C 0.76838 0.79711 0.97975 0.0
C310 C 0.80873 0.73385 0.03918 0.0
C311 C 0.77362 0.71389 0.08761 0.0
N312 N 0.78154 0.77831 -0.0001 0.0
N313 N 0.76542 0.73764 0.07119 0.0
H314 H 0.79632 0.19084 0.52241 0.0
H315 H 0.66525 0.30638 0.55 0.0
H316 H 0.72369 0.20351 0.45789 0.0
H317 H 0.7439 0.29696 0.60715 0.0
H318 H 0.68059 0.26291 0.5208 0.0
H319 H 0.77146 0.22333 0.55874 0.0
C320 C 0.77493 0.20019 0.51604 0.0
C321 C 0.76228 0.19479 0.48693 0.0
C322 C 0.69421 0.27022 0.54001 0.0
C323 C 0.73379 0.23247 0.52826 0.0
C324 C 0.68541 0.29491 0.55669 0.0
C325 C 0.70361 0.30552 0.58063 0.0
C326 C 0.72116 0.25608 0.54766 0.0
C327 C 0.72949 0.28987 0.58845 0.0
C328 C 0.76072 0.21881 0.53678 0.0
C329 C 0.73434 0.20727 0.48005 0.0
N330 N 0.73756 0.26615 0.57191 0.0
N331 N 0.72121 0.2259 0.50039 0.0
H332 H 0.75343 0.30877 0.88322 0.0
H333 H 0.78045 0.21438 0.03526 0.0
H334 H 0.83379 0.31618 0.93812 0.0
H335 H 0.70297 0.20743 0.976 0.0
H336 H 0.80349 0.24734 -0.00239 0.0
H337 H 0.73796 0.26754 0.91423 0.0
C338 C 0.76794 0.30159 0.90181 0.0
C339 C 0.79475 0.31622 0.9084 0.0
C340 C 0.78163 0.23829 0.99271 0.0
C341 C 0.77692 0.26884 0.94443 0.0
C342 C 0.76847 0.21941 0.01413 0.0
C343 C 0.73959 0.20837 0.00889 0.0
C344 C 0.76573 0.24613 0.96593 0.0
C345 C 0.72513 0.21563 0.98117 0.0
C346 C 0.7591 0.27792 0.91951 0.0
C347 C 0.81288 0.30558 0.9324 0.0
N348 N 0.73824 0.23421 0.96091 0.0
N349 N 0.80341 0.28271 0.94991 0.0
H350 H 0.80733 0.79916 0.47781 0.0
H351 H 0.67315 0.68971 0.43863 0.0
H352 H 0.72954 0.78979 0.53627 0.0
H353 H 0.75781 0.69305 0.39049 0.0
H354 H 0.68913 0.73145 0.47015 0.0
H355 H 0.78488 0.76584 0.44071 0.0
C356 C 0.78536 0.79031 0.4827 0.0
C357 C 0.77044 0.79703 0.51032 0.0
C358 C 0.70402 0.7231 0.45248 0.0
C359 C 0.74464 0.75848 0.46804 0.0
C360 C 0.69489 0.69936 0.43448 0.0
C361 C 0.71434 0.68763 0.41222 0.0
C362 C 0.73259 0.73521 0.44783 0.0
C363 C 0.74224 0.70101 0.40773 0.0
C364 C 0.77254 0.77121 0.46152 0.0
C365 C 0.74188 0.78508 0.5153 0.0
N366 N 0.75052 0.72392 0.42542 0.0
N367 N 0.73001 0.76611 0.4945 0.0
H368 H 0.35836 0.05841 0.05146 0.0
H369 H 0.25974 0.95918 0.93865 0.0
H370 H 0.26166 0.05598 0.05222 0.0
H371 H 0.35643 0.95703 0.94059 0.0
H372 H 0.26034 0.99555 0.97951 0.0
H373 H 0.35837 0.02253 0.00977 0.0
C374 C 0.33713 0.05047 0.04281 0.0
C375 C 0.30996 0.06024 0.05547 0.0
C376 C 0.28145 0.98712 0.97106 0.0
C377 C 0.30987 0.01907 0.00781 0.0
C378 C 0.28114 0.96628 0.94768 0.0
C379 C 0.30809 0.95495 0.93608 0.0
C380 C 0.3089 0.99685 0.983 0.0
C381 C 0.3351 0.96508 0.94881 0.0
C382 C 0.33717 0.02991 0.01905 0.0
C383 C 0.28316 0.0491 0.04329 0.0
N384 N 0.33481 0.98549 0.97155 0.0
N385 N 0.28382 0.02911 0.02021 0.0
H386 H 0.24593 0.95155 0.54976 0.0
H387 H 0.14576 0.05108 0.43857 0.0
H388 H 0.14922 0.94922 0.54918 0.0
H389 H 0.24249 0.04987 0.43803 0.0
H390 H 0.14619 0.01443 0.47957 0.0
H391 H 0.24468 0.98787 0.50888 0.0
C392 C 0.22439 0.95858 0.54099 0.0
C393 C 0.19762 0.94727 0.55302 0.0
C394 C 0.16729 0.02224 0.47046 0.0
C395 C 0.19607 0.98913 0.50611 0.0
C396 C 0.16708 0.04323 0.4471 0.0
C397 C 0.19413 0.0536 0.43475 0.0
C398 C 0.19474 0.01159 0.48156 0.0
C399 C 0.22106 0.04255 0.44673 0.0
C400 C 0.22371 0.9794 0.51762 0.0
C401 C 0.17042 0.95728 0.54063 0.0
N402 N 0.22065 0.02217 0.4694 0.0
N403 N 0.17034 0.9777 0.51789 0.0
H404 H 0.78272 0.9425 0.96352 0.0
H405 H 0.68601 0.07509 0.02973 0.0
H406 H 0.686 0.94253 0.96459 0.0
H407 H 0.78253 0.07465 0.02327 0.0
H408 H 0.68501 0.02667 0.00634 0.0
H409 H 0.78249 0.99091 0.98589 0.0
C410 C 0.76136 0.95265 0.96844 0.0
C411 C 0.73432 0.93828 0.96212 0.0
C412 C 0.70637 0.03723 0.01003 0.0
C413 C 0.73394 0.9941 0.98793 0.0
C414 C 0.70699 0.06489 0.02339 0.0
C415 C 0.73442 0.07905 0.02855 0.0
C416 C 0.73337 0.0236 0.00182 0.0
C417 C 0.76084 0.06469 0.0198 0.0
C418 C 0.76127 0.98041 0.98124 0.0
C419 C 0.7074 0.95273 0.96904 0.0
N420 N 0.75963 0.03782 0.00695 0.0
N421 N 0.7079 0.97983 0.98162 0.0
H422 H 0.81931 0.06373 0.46391 0.0
H423 H 0.72222 0.92851 0.5232 0.0
H424 H 0.72264 0.06058 0.46287 0.0
H425 H 0.81862 0.93198 0.53048 0.0
H426 H 0.72257 0.97637 0.49941 0.0
H427 H 0.82007 0.01506 0.48669 0.0
C428 C 0.79825 0.05285 0.4684 0.0
C429 C 0.77086 0.06639 0.46146 0.0
C430 C 0.74369 0.96671 0.50618 0.0
C431 C 0.77163 0.01066 0.48751 0.0
C432 C 0.74352 0.93929 0.51979 0.0
C433 C 0.77044 0.9261 0.52896 0.0
C434 C 0.77096 0.98124 0.50159 0.0
C435 C 0.79731 0.94127 0.52385 0.0
C436 C 0.79873 0.02506 0.48144 0.0
C437 C 0.74432 0.05115 0.46784 0.0
N438 N 0.79688 0.96805 0.51051 0.0
N439 N 0.7454 0.02419 0.48046 0.0
H440 H 0.85893 0.45538 0.93504 0.0
H441 H 0.76098 0.55802 0.04514 0.0
H442 H 0.76234 0.46029 0.93279 0.0
H443 H 0.85771 0.55688 0.04613 0.0
H444 H 0.76147 0.52225 0.00369 0.0
H445 H 0.85932 0.49223 0.97585 0.0
C446 C 0.83781 0.46411 0.94313 0.0
C447 C 0.81056 0.45466 0.93041 0.0
C448 C 0.78262 0.52985 0.01289 0.0
C449 C 0.81089 0.49689 0.97702 0.0
C450 C 0.78237 0.55035 0.0366 0.0
C451 C 0.80935 0.56049 0.04927 0.0
C452 C 0.81004 0.51925 0.0017 0.0
C453 C 0.83634 0.54971 0.0371 0.0
C454 C 0.83807 0.48521 0.96638 0.0
C455 C 0.78392 0.46684 0.94182 0.0
N456 N 0.836 0.5296 0.01406 0.0
N457 N 0.78478 0.48727 0.96442 0.0
H458 H 0.64587 0.44656 0.5468 0.0
H459 H 0.74624 0.54352 0.43336 0.0
H460 H 0.7426 0.4461 0.54612 0.0
H461 H 0.64969 0.54869 0.43662 0.0
H462 H 0.74489 0.50662 0.47364 0.0
H463 H 0.64643 0.48247 0.50512 0.0
C464 C 0.66722 0.45386 0.53783 0.0
C465 C 0.69424 0.4433 0.55011 0.0
C466 C 0.72398 0.51582 0.4656 0.0
C467 C 0.69499 0.48448 0.50246 0.0
C468 C 0.72471 0.53696 0.44255 0.0
C469 C 0.69803 0.54933 0.43154 0.0
C470 C 0.69636 0.50683 0.4778 0.0
C471 C 0.67084 0.53984 0.44442 0.0
C472 C 0.66751 0.47444 0.51407 0.0
C473 C 0.7212 0.45363 0.53752 0.0
N474 N 0.67071 0.51913 0.46686 0.0
N475 N 0.72087 0.47365 0.51447 0.0
H476 H 0.1878 0.57229 0.03037 0.0
H477 H 0.2834 0.43937 0.96318 0.0
H478 H 0.28427 0.57165 0.02302 0.0
H479 H 0.1867 0.43973 0.96568 0.0
H480 H 0.28362 0.4879 0.98533 0.0
H481 H 0.18648 0.52393 0.00691 0.0
C482 C 0.2087 0.56206 0.02381 0.0
C483 C 0.23621 0.57615 0.02876 0.0
C484 C 0.26232 0.47743 0.98103 0.0
C485 C 0.2348 0.52074 0.00194 0.0
C486 C 0.26215 0.44961 0.96836 0.0
C487 C 0.23497 0.43529 0.96253 0.0
C488 C 0.23512 0.49122 0.98808 0.0
C489 C 0.2082 0.44987 0.96976 0.0
C490 C 0.20791 0.53444 0.01041 0.0
C491 C 0.26252 0.56174 0.01973 0.0
N492 N 0.20896 0.47702 0.9822 0.0
N493 N 0.26114 0.53489 0.00685 0.0
H494 H 0.31932 0.56445 0.46522 0.0
H495 H 0.21825 0.43324 0.52754 0.0
H496 H 0.22261 0.56539 0.46665 0.0
H497 H 0.31492 0.43276 0.53092 0.0
H498 H 0.21978 0.48146 0.5045 0.0
H499 H 0.31848 0.51608 0.48859 0.0
C500 C 0.29791 0.55454 0.47043 0.0
C501 C 0.27098 0.56911 0.4639 0.0
C502 C 0.24069 0.47085 0.51028 0.0
C503 C 0.26992 0.51368 0.49066 0.0
C504 C 0.23984 0.44323 0.52345 0.0
C505 C 0.2665 0.4288 0.53124 0.0
C506 C 0.26839 0.48429 0.50472 0.0
C507 C 0.29378 0.443 0.52535 0.0
C508 C 0.29747 0.52691 0.4838 0.0
C509 C 0.24395 0.5551 0.47122 0.0
N510 N 0.29401 0.46994 0.51243 0.0
N511 N 0.24413 0.52823 0.48415 0.0
H512 H 0.58194 0.14841 0.02748 0.0
H513 H 0.46731 0.11237 0.16476 0.0
H514 H 0.60894 0.12945 0.1213 0.0
H515 H 0.43918 0.1337 0.07187 0.0
H516 H 0.51937 0.11622 0.14837 0.0
H517 H 0.52976 0.14046 0.04234 0.0
C518 C 0.57695 0.14239 0.05116 0.0
C519 C 0.5999 0.13974 0.07321 0.0
C520 C 0.50186 0.12001 0.13152 0.0
C521 C 0.54012 0.13073 0.0904 0.0
C522 C 0.47206 0.11784 0.14087 0.0
C523 C 0.44878 0.12283 0.11969 0.0
C524 C 0.50858 0.12726 0.10072 0.0
C525 C 0.45639 0.12975 0.08901 0.0
C526 C 0.54711 0.13791 0.05963 0.0
C527 C 0.59203 0.13184 0.10353 0.0
N528 N 0.48564 0.13183 0.08047 0.0
N529 N 0.56283 0.12774 0.11124 0.0
H530 H 0.92392 0.86338 0.52735 0.0
H531 H 0.04172 0.89187 0.66373 0.0
H532 H 0.89907 0.87757 0.62276 0.0
H533 H 0.06772 0.87465 0.56922 0.0
H534 H 0.9893 0.88927 0.64835 0.0
H535 H 0.97644 0.87044 0.54138 0.0
C536 C 0.92945 0.86821 0.55122 0.0
C537 C 0.907 0.86973 0.57394 0.0
C538 C 0.00642 0.88611 0.63092 0.0
C539 C 0.96719 0.87768 0.59018 0.0
C540 C 0.03643 0.88756 0.63969 0.0
C541 C 0.05922 0.88336 0.61776 0.0
C542 C 0.99898 0.88038 0.59994 0.0
C543 C 0.05091 0.87794 0.58694 0.0
C544 C 0.95948 0.87216 0.55921 0.0
C545 C 0.91558 0.87609 0.60447 0.0
N546 N 0.02146 0.87654 0.57896 0.0
N547 N 0.94497 0.87969 0.6117 0.0
H548 H 0.44324 0.81507 0.87186 0.0
H549 H 0.59702 0.89588 0.91331 0.0
H550 H 0.44701 0.9052 0.89898 0.0
H551 H 0.58916 0.80404 0.89514 0.0
H552 H 0.54251 0.90053 0.9076 0.0
H553 H 0.49701 0.81121 0.88026 0.0
C554 C 0.45535 0.83405 0.87975 0.0
C555 C 0.44055 0.86052 0.88464 0.0
C556 C 0.55279 0.87938 0.90492 0.0
C557 C 0.50247 0.85632 0.89412 0.0
C558 C 0.58389 0.87674 0.90807 0.0
C559 C 0.59772 0.84954 0.90467 0.0
C560 C 0.53548 0.85467 0.89819 0.0
C561 C 0.57957 0.82545 0.89798 0.0
C562 C 0.48614 0.83184 0.88453 0.0
C563 C 0.4575 0.88435 0.89495 0.0
N564 N 0.54951 0.82861 0.89493 0.0
N565 N 0.4876 0.88174 0.89918 0.0
H566 H 0.0547 0.18122 0.34259 0.0
H567 H 0.90701 0.11363 0.41954 0.0
H568 H 0.05672 0.10588 0.402 0.0
H569 H 0.90844 0.19131 0.36363 0.0
H570 H 0.96143 0.1094 0.41304 0.0
H571 H 1.00084 0.18462 0.35023 0.0
C572 C 0.04383 0.16542 0.35738 0.0
C573 C 0.06031 0.1432 0.37164 0.0
C574 C 0.94977 0.12733 0.4022 0.0
C575 C 0.99827 0.14687 0.38039 0.0
C576 C 0.91871 0.1297 0.4058 0.0
C577 C 0.90311 0.15288 0.39213 0.0
C578 C 0.96528 0.14824 0.38475 0.0
C579 C 0.91945 0.1731 0.37466 0.0
C580 C 0.01299 0.16735 0.36171 0.0
C581 C 0.04491 0.12339 0.39058 0.0
N582 N 0.94955 0.17031 0.37151 0.0
N583 N 0.01472 0.12563 0.39433 0.0
H584 H 0.11092 0.62533 0.12157 0.0
H585 H 0.93962 0.63255 0.06659 0.0
H586 H 0.08402 0.64726 0.02845 0.0
H587 H 0.96742 0.61039 0.15935 0.0
H588 H 0.99233 0.63618 0.05143 0.0
H589 H 0.05844 0.61752 0.13503 0.0
C590 C 0.09401 0.62833 0.10388 0.0
C591 C 0.10193 0.63711 0.07386 0.0
C592 C 0.98687 0.63044 0.07507 0.0
C593 C 0.04164 0.62835 0.08919 0.0
C594 C 0.95677 0.62839 0.08375 0.0
C595 C 0.94905 0.62126 0.11432 0.0
C596 C 0.00941 0.62535 0.09714 0.0
C597 C 0.97226 0.61604 0.13555 0.0
C598 C 0.064 0.62391 0.11161 0.0
C599 C 0.07899 0.64059 0.05191 0.0
N600 N 1.00132 0.61825 0.12658 0.0
N601 N 0.0499 0.63635 0.06005 0.0
H602 H 0.53674 0.39423 0.66155 0.0
H603 H 0.42015 0.35896 0.52584 0.0
H604 H 0.56351 0.37234 0.56838 0.0
H605 H 0.3944 0.37793 0.62005 0.0
H606 H 0.47253 0.36665 0.54 0.0
H607 H 0.48444 0.3909 0.64586 0.0
C608 C 0.53165 0.38876 0.63774 0.0
C609 C 0.55462 0.38344 0.61628 0.0
C610 C 0.45542 0.36926 0.55754 0.0
C611 C 0.49453 0.3796 0.59811 0.0
C612 C 0.42546 0.36494 0.54947 0.0
C613 C 0.4028 0.36766 0.57183 0.0
C614 C 0.46283 0.37636 0.58822 0.0
C615 C 0.41108 0.37549 0.60205 0.0
C616 C 0.50171 0.38688 0.62879 0.0
C617 C 0.54656 0.37653 0.58573 0.0
N618 N 0.44041 0.37944 0.60937 0.0
N619 N 0.51718 0.37474 0.57757 0.0
H620 H 0.09492 0.38781 0.92485 0.0
H621 H 0.95125 0.33296 0.83027 0.0
H622 H 0.09681 0.32131 0.85445 0.0
H623 H 0.9455 0.39615 0.90384 0.0
H624 H 0.00493 0.32936 0.83886 0.0
H625 H 0.04068 0.39259 0.91713 0.0
C626 C 0.084 0.37434 0.90768 0.0
C627 C 0.10047 0.35409 0.8903 0.0
C628 C 0.99202 0.344 0.85323 0.0
C629 C 0.03851 0.35935 0.88148 0.0
C630 C 0.96126 0.34605 0.84834 0.0
C631 C 0.94377 0.36491 0.86634 0.0
C632 C 0.00565 0.361 0.87625 0.0
C633 C 0.9581 0.38129 0.88945 0.0
C634 C 0.05304 0.37701 0.90337 0.0
C635 C 0.08511 0.33716 0.86845 0.0
N636 N 0.98825 0.37902 0.8937 0.0
N637 N 0.0551 0.34016 0.86472 0.0
H638 H 0.54548 0.56638 0.37081 0.0
H639 H 0.42915 0.6829 0.4377 0.0
H640 H 0.57107 0.64988 0.4077 0.0
H641 H 0.40224 0.60141 0.39692 0.0
H642 H 0.48141 0.66961 0.42982 0.0
H643 H 0.49327 0.57717 0.38337 0.0
C644 C 0.54018 0.58691 0.38174 0.0
C645 C 0.56274 0.60732 0.38805 0.0
C646 C 0.46413 0.65456 0.42265 0.0
C647 C 0.50291 0.61985 0.40238 0.0
C648 C 0.4342 0.66214 0.42714 0.0
C649 C 0.4112 0.6433 0.41783 0.0
C650 C 0.47126 0.62791 0.40871 0.0
C651 C 0.41922 0.61665 0.40437 0.0
C652 C 0.51033 0.59307 0.38885 0.0
C653 C 0.55447 0.63352 0.4023 0.0
N654 N 0.44858 0.60979 0.40012 0.0
N655 N 0.52525 0.63907 0.40885 0.0
H656 H 0.33847 0.06449 0.22473 0.0
H657 H 0.16735 0.06255 0.2652 0.0
H658 H 0.26724 0.06627 0.15755 0.0
H659 H 0.23854 0.06325 0.33247 0.0
H660 H 0.20313 0.04627 0.22586 0.0
H661 H 0.30297 0.04645 0.26348 0.0
C662 C 0.31553 0.06024 0.21794 0.0
C663 C 0.30534 0.06796 0.18843 0.0
C664 C 0.21084 0.04932 0.24941 0.0
C665 C 0.26463 0.048 0.23241 0.0
C666 C 0.19035 0.05843 0.27187 0.0
C667 C 0.20041 0.06537 0.30164 0.0
C668 C 0.24145 0.04742 0.25698 0.0
C669 C 0.23029 0.05947 0.30929 0.0
C670 C 0.29521 0.05012 0.24005 0.0
C671 C 0.27556 0.06187 0.18057 0.0
N672 N 0.24995 0.05146 0.28694 0.0
N673 N 0.25604 0.05286 0.20263 0.0
H674 H 0.26663 0.94612 0.83373 0.0
H675 H 0.24035 0.94021 0.65443 0.0
H676 H 0.33694 0.94084 0.76571 0.0
H677 H 0.17008 0.93896 0.72271 0.0
H678 H 0.27525 0.95783 0.69363 0.0
H679 H 0.23166 0.96108 0.79334 0.0
C680 C 0.27479 0.94869 0.8103 0.0
C681 C 0.30431 0.94129 0.80267 0.0
C682 C 0.25207 0.95436 0.69998 0.0
C683 C 0.26453 0.95804 0.75634 0.0
C684 C 0.2322 0.94413 0.67764 0.0
C685 C 0.20271 0.93713 0.6858 0.0
C686 C 0.2424 0.95707 0.73077 0.0
C687 C 0.19284 0.94371 0.71573 0.0
C688 C 0.25488 0.95735 0.78726 0.0
C689 C 0.31417 0.946 0.77234 0.0
N690 N 0.21289 0.9526 0.73745 0.0
N691 N 0.29408 0.95334 0.75002 0.0
H692 H 0.78873 0.88183 0.82924 0.0
H693 H 0.71035 0.86856 0.66386 0.0
H694 H 0.69323 0.87292 0.81667 0.0
H695 H 0.80592 0.87568 0.67724 0.0
H696 H 0.70305 0.87656 0.71919 0.0
H697 H 0.79466 0.88619 0.77338 0.0
C698 C 0.76893 0.88105 0.81479 0.0
C699 C 0.74045 0.87659 0.82774 0.0
C700 C 0.72559 0.87665 0.70997 0.0
C701 C 0.74719 0.8814 0.76351 0.0
C702 C 0.72982 0.87209 0.67832 0.0
C703 C 0.75885 0.87105 0.66583 0.0
C704 C 0.75057 0.88013 0.72936 0.0
C705 C 0.78314 0.87601 0.68579 0.0
C706 C 0.77237 0.88355 0.78282 0.0
C707 C 0.71564 0.87612 0.80776 0.0
N708 N 0.77845 0.88005 0.71657 0.0
N709 N 0.71963 0.87814 0.77662 0.0
H710 H 0.71438 0.12464 0.32797 0.0
H711 H 0.79555 0.13601 0.16375 0.0
H712 H 0.81022 0.13169 0.31678 0.0
H713 H 0.69962 0.13148 0.1756 0.0
H714 H 0.80177 0.12801 0.21922 0.0
H715 H 0.70913 0.12057 0.27198 0.0
C716 C 0.73439 0.12506 0.3138 0.0
C717 C 0.76278 0.12891 0.32718 0.0
C718 C 0.77937 0.12851 0.20964 0.0
C719 C 0.75684 0.12442 0.26283 0.0
C720 C 0.77577 0.13306 0.17791 0.0
C721 C 0.74698 0.13481 0.16494 0.0
C722 C 0.75401 0.12575 0.22863 0.0
C723 C 0.72225 0.13058 0.18453 0.0
C724 C 0.73134 0.12274 0.28177 0.0
C725 C 0.78786 0.12898 0.30755 0.0
N726 N 0.72634 0.12652 0.21539 0.0
N727 N 0.78427 0.1271 0.27635 0.0
H728 H 0.66767 0.56611 0.2627 0.0
H729 H 0.83788 0.56336 0.21831 0.0
H730 H 0.74 0.56102 0.32843 0.0
H731 H 0.76554 0.56812 0.15255 0.0
H732 H 0.80252 0.54588 0.25746 0.0
H733 H 0.70204 0.55023 0.22186 0.0
C734 C 0.69059 0.56081 0.26867 0.0
C735 C 0.70145 0.56598 0.29856 0.0
C736 C 0.79444 0.55013 0.23426 0.0
C737 C 0.74092 0.54848 0.2522 0.0
C738 C 0.81469 0.55993 0.2119 0.0
C739 C 0.80424 0.56831 0.18269 0.0
C740 C 0.76368 0.549 0.22719 0.0
C741 C 0.77413 0.56325 0.17535 0.0
C742 C 0.71029 0.55193 0.24536 0.0
C743 C 0.73119 0.55861 0.30527 0.0
N744 N 0.75472 0.55454 0.19766 0.0
N745 N 0.75011 0.55086 0.28214 0.0
H746 H 0.73715 0.43786 0.65056 0.0
H747 H 0.76757 0.44571 0.82911 0.0
H748 H 0.66844 0.43888 0.72051 0.0
H749 H 0.83619 0.43785 0.75955 0.0
H750 H 0.73206 0.46083 0.78929 0.0
H751 H 0.7733 0.45529 0.68864 0.0
C752 C 0.72961 0.44226 0.67389 0.0
C753 C 0.70017 0.43597 0.68286 0.0
C754 C 0.75504 0.4565 0.78274 0.0
C755 C 0.74129 0.45566 0.72657 0.0
C756 C 0.77527 0.44775 0.80545 0.0
C757 C 0.80443 0.43959 0.79726 0.0
C758 C 0.76401 0.45651 0.75159 0.0
C759 C 0.8137 0.44361 0.76662 0.0
C760 C 0.75019 0.45237 0.6956 0.0
C761 C 0.69113 0.44311 0.71292 0.0
N762 N 0.79329 0.45105 0.74465 0.0
N763 N 0.71184 0.45187 0.73401 0.0
H764 H 0.30474 0.37373 0.67613 0.0
H765 H 0.19123 0.37188 0.81926 0.0
H766 H 0.20871 0.36713 0.66645 0.0
H767 H 0.28751 0.37437 0.82848 0.0
H768 H 0.19679 0.37659 0.7632 0.0
H769 H 0.29837 0.38043 0.73177 0.0
C770 C 0.28228 0.37395 0.68561 0.0
C771 C 0.25725 0.36949 0.66652 0.0
C772 C 0.21668 0.37637 0.77754 0.0
C773 C 0.24983 0.37702 0.73039 0.0
C774 C 0.21352 0.37374 0.80959 0.0
C775 C 0.23895 0.37237 0.82867 0.0
C776 C 0.24545 0.37762 0.76444 0.0
C777 C 0.26725 0.37501 0.81474 0.0
C778 C 0.27867 0.37775 0.71744 0.0
C779 C 0.2287 0.37021 0.68021 0.0
N780 N 0.26973 0.37725 0.7835 0.0
N781 N 0.2258 0.37362 0.71132 0.0
H782 H 0.21778 0.62393 0.32878 0.0
H783 H 0.29803 0.63203 0.16398 0.0
H784 H 0.31365 0.62931 0.31691 0.0
H785 H 0.20215 0.6283 0.17653 0.0
H786 H 0.30455 0.62437 0.21947 0.0
H787 H 0.21216 0.61871 0.27295 0.0
C788 C 0.23771 0.62372 0.3145 0.0
C789 C 0.26623 0.62748 0.32762 0.0
C790 C 0.28209 0.62494 0.21004 0.0
C791 C 0.25987 0.62169 0.26344 0.0
C792 C 0.27832 0.6293 0.1783 0.0
C793 C 0.24945 0.63122 0.16552 0.0
C794 C 0.25684 0.62256 0.22923 0.0
C795 C 0.22482 0.62728 0.1853 0.0
C796 C 0.23446 0.62074 0.28255 0.0
C797 C 0.29121 0.62671 0.30786 0.0
N798 N 0.22909 0.62343 0.21618 0.0
N799 N 0.28741 0.62424 0.27674 0.0
loop_
_geom_bond_atom_site_label_1
_geom_bond_atom_site_label_2
_geom_bond_distance
_geom_bond_site_symmetry_2
_ccdc_geom_bond_type
Mg0 O1 2.028 . S
Mg0 O7 1.986 . S
Mg0 O9 2.114 . S
Mg0 O10 2.251 . S
Mg0 O13 2.010 . S
O1 Mg0 2.028 . S
O1 C4 1.250 . S
O2 Mg3 2.028 . S
O2 C4 1.248 . S
Mg3 O2 2.028 . S
Mg3 O8 2.032 . S
Mg3 O10 2.079 . S
C4 O1 1.250 . S
C4 O2 1.248 . S
C5 O6 1.264 . S
C5 O13 1.249 . S
O6 C5 1.264 . S
O7 Mg0 1.986 . S
O7 C11 1.246 . S
O8 Mg3 2.032 . S
O8 C11 1.259 . S
O9 Mg0 2.114 . S
O9 C12 1.252 . S
O10 Mg0 2.251 . S
O10 Mg3 2.079 . S
O10 C12 1.273 . S
C11 O7 1.246 . S
C11 O8 1.259 . S
C12 O9 1.252 . S
C12 O10 1.273 . S
O13 Mg0 2.010 . S
O13 C5 1.249 . S
Mg14 O15 2.028 . S
Mg14 O21 1.986 . S
Mg14 O23 2.114 . S
Mg14 O24 2.251 . S
Mg14 O27 2.010 . S
O15 Mg14 2.028 . S
O15 C18 1.250 . S
O16 Mg17 2.028 . S
O16 C18 1.248 . S
Mg17 O16 2.028 . S
Mg17 O22 2.032 . S
Mg17 O24 2.079 . S
C18 O15 1.250 . S
C18 O16 1.248 . S
C19 O20 1.264 . S
C19 O27 1.249 . S
O20 C19 1.264 . S
O21 Mg14 1.986 . S
O21 C25 1.246 . S
O22 Mg17 2.032 . S
O22 C25 1.259 . S
O23 Mg14 2.114 . S
O23 C26 1.252 . S
O24 Mg14 2.251 . S
O24 Mg17 2.079 . S
O24 C26 1.273 . S
C25 O21 1.246 . S
C25 O22 1.259 . S
C26 O23 1.252 . S
C26 O24 1.273 . S
O27 Mg14 2.010 . S
O27 C19 1.249 . S
Mg28 O29 2.028 . S
Mg28 O35 1.986 . S
Mg28 O37 2.114 . S
Mg28 O38 2.251 . S
Mg28 O41 2.010 . S
O29 Mg28 2.028 . S
O29 C32 1.250 . S
O30 Mg31 2.028 . S
O30 C32 1.248 . S
Mg31 O30 2.028 . S
Mg31 O36 2.032 . S
Mg31 O38 2.079 . S
C32 O29 1.250 . S
C32 O30 1.248 . S
C33 O34 1.264 . S
C33 O41 1.249 . S
O34 C33 1.264 . S
O35 Mg28 1.986 . S
O35 C39 1.246 . S
O36 Mg31 2.032 . S
O36 C39 1.259 . S
O37 Mg28 2.114 . S
O37 C40 1.252 . S
O38 Mg28 2.251 . S
O38 Mg31 2.079 . S
O38 C40 1.273 . S
C39 O35 1.246 . S
C39 O36 1.259 . S
C40 O37 1.252 . S
C40 O38 1.273 . S
O41 Mg28 2.010 . S
O41 C33 1.249 . S
Mg42 O43 2.028 . S
Mg42 O49 1.986 . S
Mg42 O51 2.114 . S
Mg42 O52 2.251 . S
Mg42 O55 2.010 . S
O43 Mg42 2.028 . S
O43 C46 1.250 . S
O44 Mg45 2.028 . S
O44 C46 1.248 . S
Mg45 O44 2.028 . S
Mg45 O50 2.032 . S
Mg45 O52 2.079 . S
C46 O43 1.250 . S
C46 O44 1.248 . S
C47 O48 1.264 . S
C47 O55 1.249 . S
O48 C47 1.264 . S
O49 Mg42 1.986 . S
O49 C53 1.246 . S
O50 Mg45 2.032 . S
O50 C53 1.259 . S
O51 Mg42 2.114 . S
O51 C54 1.252 . S
O52 Mg42 2.251 . S
O52 Mg45 2.079 . S
O52 C54 1.273 . S
C53 O49 1.246 . S
C53 O50 1.259 . S
C54 O51 1.252 . S
C54 O52 1.273 . S
O55 Mg42 2.010 . S
O55 C47 1.249 . S
Mg56 O57 2.028 . S
Mg56 O63 1.986 . S
Mg56 O65 2.114 . S
Mg56 O66 2.251 . S
Mg56 O69 2.010 . S
O57 Mg56 2.028 . S
O57 C60 1.250 . S
O58 Mg59 2.028 . S
O58 C60 1.248 . S
Mg59 O58 2.028 . S
Mg59 O64 2.032 . S
Mg59 O66 2.079 . S
C60 O57 1.250 . S
C60 O58 1.248 . S
C61 O62 1.264 . S
C61 O69 1.249 . S
O62 C61 1.264 . S
O63 Mg56 1.986 . S
O63 C67 1.246 . S
O64 Mg59 2.032 . S
O64 C67 1.259 . S
O65 Mg56 2.114 . S
O65 C68 1.252 . S
O66 Mg56 2.251 . S
O66 Mg59 2.079 . S
O66 C68 1.273 . S
C67 O63 1.246 . S
C67 O64 1.259 . S
C68 O65 1.252 . S
C68 O66 1.273 . S
O69 Mg56 2.010 . S
O69 C61 1.249 . S
Mg70 O71 2.028 . S
Mg70 O77 1.986 . S
Mg70 O79 2.114 . S
Mg70 O80 2.251 . S
Mg70 O83 2.010 . S
O71 Mg70 2.028 . S
O71 C74 1.250 . S
O72 Mg73 2.028 . S
O72 C74 1.248 . S
Mg73 O72 2.028 . S
Mg73 O78 2.032 . S
Mg73 O80 2.079 . S
C74 O71 1.250 . S
C74 O72 1.248 . S
C75 O76 1.264 . S
C75 O83 1.249 . S
O76 C75 1.264 . S
O77 Mg70 1.986 . S
O77 C81 1.246 . S
O78 Mg73 2.032 . S
O78 C81 1.259 . S
O79 Mg70 2.114 . S
O79 C82 1.252 . S
O80 Mg70 2.251 . S
O80 Mg73 2.079 . S
O80 C82 1.273 . S
C81 O77 1.246 . S
C81 O78 1.259 . S
C82 O79 1.252 . S
C82 O80 1.273 . S
O83 Mg70 2.010 . S
O83 C75 1.249 . S
Mg84 O85 2.028 . S
Mg84 O91 1.986 . S
Mg84 O93 2.114 . S
Mg84 O94 2.251 . S
Mg84 O97 2.010 . S
O85 Mg84 2.028 . S
O85 C88 1.250 . S
O86 Mg87 2.028 . S
O86 C88 1.248 . S
Mg87 O86 2.028 . S
Mg87 O92 2.032 . S
Mg87 O94 2.079 . S
C88 O85 1.250 . S
C88 O86 1.248 . S
C89 O90 1.264 . S
C89 O97 1.249 . S
O90 C89 1.264 . S
O91 Mg84 1.986 . S
O91 C95 1.246 . S
O92 Mg87 2.032 . S
O92 C95 1.259 . S
O93 Mg84 2.114 . S
O93 C96 1.252 . S
O94 Mg84 2.251 . S
O94 Mg87 2.079 . S
O94 C96 1.273 . S
C95 O91 1.246 . S
C95 O92 1.259 . S
C96 O93 1.252 . S
C96 O94 1.273 . S
O97 Mg84 2.010 . S
O97 C89 1.249 . S
Mg98 O99 2.028 . S
Mg98 O105 1.986 . S
Mg98 O107 2.114 . S
Mg98 O108 2.251 . S
Mg98 O111 2.010 . S
O99 Mg98 2.028 . S
O99 C102 1.250 . S
O100 Mg101 2.028 . S
O100 C102 1.248 . S
Mg101 O100 2.028 . S
Mg101 O106 2.032 . S
Mg101 O108 2.079 . S
C102 O99 1.250 . S
C102 O100 1.248 . S
C103 O104 1.264 . S
C103 O111 1.249 . S
O104 C103 1.264 . S
O105 Mg98 1.986 . S
O105 C109 1.246 . S
O106 Mg101 2.032 . S
O106 C109 1.259 . S
O107 Mg98 2.114 . S
O107 C110 1.252 . S
O108 Mg98 2.251 . S
O108 Mg101 2.079 . S
O108 C110 1.273 . S
C109 O105 1.246 . S
C109 O106 1.259 . S
C110 O107 1.252 . S
C110 O108 1.273 . S
O111 Mg98 2.010 . S
O111 C103 1.249 . S
Mg112 O113 2.028 . S
Mg112 O119 1.986 . S
Mg112 O121 2.114 . S
Mg112 O122 2.251 . S
Mg112 O125 2.010 . S
O113 Mg112 2.028 . S
O113 C116 1.250 . S
O114 Mg115 2.028 . S
O114 C116 1.248 . S
Mg115 O114 2.028 . S
Mg115 O120 2.032 . S
Mg115 O122 2.079 . S
C116 O113 1.250 . S
C116 O114 1.248 . S
C117 O118 1.264 . S
C117 O125 1.249 . S
O118 C117 1.264 . S
O119 Mg112 1.986 . S
O119 C123 1.246 . S
O120 Mg115 2.032 . S
O120 C123 1.259 . S
O121 Mg112 2.114 . S
O121 C124 1.252 . S
O122 Mg112 2.251 . S
O122 Mg115 2.079 . S
O122 C124 1.273 . S
C123 O119 1.246 . S
C123 O120 1.259 . S
C124 O121 1.252 . S
C124 O122 1.273 . S
O125 Mg112 2.010 . S
O125 C117 1.249 . S
Mg126 O127 2.028 . S
Mg126 O133 1.986 . S
Mg126 O135 2.114 . S
Mg126 O136 2.251 . S
Mg126 O139 2.010 . S
O127 Mg126 2.028 . S
O127 C130 1.250 . S
O128 Mg129 2.028 . S
O128 C130 1.248 . S
Mg129 O128 2.028 . S
Mg129 O134 2.032 . S
Mg129 O136 2.079 . S
C130 O127 1.250 . S
C130 O128 1.248 . S
C131 O132 1.264 . S
C131 O139 1.249 . S
O132 C131 1.264 . S
O133 Mg126 1.986 . S
O133 C137 1.246 . S
O134 Mg129 2.032 . S
O134 C137 1.259 . S
O135 Mg126 2.114 . S
O135 C138 1.252 . S
O136 Mg126 2.251 . S
O136 Mg129 2.079 . S
O136 C138 1.273 . S
C137 O133 1.246 . S
C137 O134 1.259 . S
C138 O135 1.252 . S
C138 O136 1.273 . S
O139 Mg126 2.010 . S
O139 C131 1.249 . S
Mg140 O141 2.028 . S
Mg140 O147 1.986 . S
Mg140 O149 2.114 . S
Mg140 O150 2.251 . S
Mg140 O153 2.010 . S
O141 Mg140 2.028 . S
O141 C144 1.250 . S
O142 Mg143 2.028 . S
O142 C144 1.248 . S
Mg143 O142 2.028 . S
Mg143 O148 2.032 . S
Mg143 O150 2.079 . S
C144 O141 1.250 . S
C144 O142 1.248 . S
C145 O146 1.264 . S
C145 O153 1.249 . S
O146 C145 1.264 . S
O147 Mg140 1.986 . S
O147 C151 1.246 . S
O148 Mg143 2.032 . S
O148 C151 1.259 . S
O149 Mg140 2.114 . S
O149 C152 1.252 . S
O150 Mg140 2.251 . S
O150 Mg143 2.079 . S
O150 C152 1.273 . S
C151 O147 1.246 . S
C151 O148 1.259 . S
C152 O149 1.252 . S
C152 O150 1.273 . S
O153 Mg140 2.010 . S
O153 C145 1.249 . S
Mg154 O155 2.028 . S
Mg154 O161 1.986 . S
Mg154 O163 2.114 . S
Mg154 O164 2.251 . S
Mg154 O167 2.010 . S
O155 Mg154 2.028 . S
O155 C158 1.250 . S
O156 Mg157 2.028 . S
O156 C158 1.248 . S
Mg157 O156 2.028 . S
Mg157 O162 2.032 . S
Mg157 O164 2.079 . S
C158 O155 1.250 . S
C158 O156 1.248 . S
C159 O160 1.264 . S
C159 O167 1.249 . S
O160 C159 1.264 . S
O161 Mg154 1.986 . S
O161 C165 1.246 . S
O162 Mg157 2.032 . S
O162 C165 1.259 . S
O163 Mg154 2.114 . S
O163 C166 1.252 . S
O164 Mg154 2.251 . S
O164 Mg157 2.079 . S
O164 C166 1.273 . S
C165 O161 1.246 . S
C165 O162 1.259 . S
C166 O163 1.252 . S
C166 O164 1.273 . S
O167 Mg154 2.010 . S
O167 C159 1.249 . S
Mg168 O169 2.028 . S
Mg168 O175 1.986 . S
Mg168 O177 2.114 . S
Mg168 O178 2.251 . S
Mg168 O181 2.010 . S
O169 Mg168 2.028 . S
O169 C172 1.250 . S
O170 Mg171 2.028 . S
O170 C172 1.248 . S
Mg171 O170 2.028 . S
Mg171 O176 2.032 . S
Mg171 O178 2.079 . S
C172 O169 1.250 . S
C172 O170 1.248 . S
C173 O174 1.264 . S
C173 O181 1.249 . S
O174 C173 1.264 . S
O175 Mg168 1.986 . S
O175 C179 1.246 . S
O176 Mg171 2.032 . S
O176 C179 1.259 . S
O177 Mg168 2.114 . S
O177 C180 1.252 . S
O178 Mg168 2.251 . S
O178 Mg171 2.079 . S
O178 C180 1.273 . S
C179 O175 1.246 . S
C179 O176 1.259 . S
C180 O177 1.252 . S
C180 O178 1.273 . S
O181 Mg168 2.010 . S
O181 C173 1.249 . S
Mg182 O183 2.028 . S
Mg182 O189 1.986 . S
Mg182 O191 2.114 . S
Mg182 O192 2.251 . S
Mg182 O195 2.010 . S
O183 Mg182 2.028 . S
O183 C186 1.250 . S
O184 Mg185 2.028 . S
O184 C186 1.248 . S
Mg185 O184 2.028 . S
Mg185 O190 2.032 . S
Mg185 O192 2.079 . S
C186 O183 1.250 . S
C186 O184 1.248 . S
C187 O188 1.264 . S
C187 O195 1.249 . S
O188 C187 1.264 . S
O189 Mg182 1.986 . S
O189 C193 1.246 . S
O190 Mg185 2.032 . S
O190 C193 1.259 . S
O191 Mg182 2.114 . S
O191 C194 1.252 . S
O192 Mg182 2.251 . S
O192 Mg185 2.079 . S
O192 C194 1.273 . S
C193 O189 1.246 . S
C193 O190 1.259 . S
C194 O191 1.252 . S
C194 O192 1.273 . S
O195 Mg182 2.010 . S
O195 C187 1.249 . S
Mg196 O197 2.028 . S
Mg196 O203 1.986 . S
Mg196 O205 2.114 . S
Mg196 O206 2.251 . S
Mg196 O209 2.010 . S
O197 Mg196 2.028 . S
O197 C200 1.250 . S
O198 Mg199 2.028 . S
O198 C200 1.248 . S
Mg199 O198 2.028 . S
Mg199 O204 2.032 . S
Mg199 O206 2.079 . S
C200 O197 1.250 . S
C200 O198 1.248 . S
C201 O202 1.264 . S
C201 O209 1.249 . S
O202 C201 1.264 . S
O203 Mg196 1.986 . S
O203 C207 1.246 . S
O204 Mg199 2.032 . S
O204 C207 1.259 . S
O205 Mg196 2.114 . S
O205 C208 1.252 . S
O206 Mg196 2.251 . S
O206 Mg199 2.079 . S
O206 C208 1.273 . S
C207 O203 1.246 . S
C207 O204 1.259 . S
C208 O205 1.252 . S
C208 O206 1.273 . S
O209 Mg196 2.010 . S
O209 C201 1.249 . S
Mg210 O211 2.028 . S
Mg210 O217 1.986 . S
Mg210 O219 2.114 . S
Mg210 O220 2.251 . S
Mg210 O223 2.010 . S
O211 Mg210 2.028 . S
O211 C214 1.250 . S
O212 Mg213 2.028 . S
O212 C214 1.248 . S
Mg213 O212 2.028 . S
Mg213 O218 2.032 . S
Mg213 O220 2.079 . S
C214 O211 1.250 . S
C214 O212 1.248 . S
C215 O216 1.264 . S
C215 O223 1.249 . S
O216 C215 1.264 . S
O217 Mg210 1.986 . S
O217 C221 1.246 . S
O218 Mg213 2.032 . S
O218 C221 1.259 . S
O219 Mg210 2.114 . S
O219 C222 1.252 . S
O220 Mg210 2.251 . S
O220 Mg213 2.079 . S
O220 C222 1.273 . S
C221 O217 1.246 . S
C221 O218 1.259 . S
C222 O219 1.252 . S
C222 O220 1.273 . S
O223 Mg210 2.010 . S
O223 C215 1.249 . S
H224 C230 0.930 . S
H225 C234 0.930 . S
H226 C239 0.929 1_556 S
H227 C237 0.929 1_554 S
H228 C232 0.929 . S
H229 C238 0.929 . S
C230 H224 0.930 . S
C230 C231 1.367 . S
C230 C238 1.378 . S
C231 C230 1.367 . S
C231 C239 1.433 . S
C232 H228 0.929 . S
C232 C234 1.378 . S
C232 C236 1.350 . S
C233 C236 1.463 1_554 S
C233 C238 1.350 . S
C233 N241 1.427 1_554 S
C234 H225 0.930 . S
C234 C232 1.378 . S
C234 C235 1.367 . S
C235 C234 1.367 . S
C235 C237 1.433 . S
C236 C232 1.350 . S
C236 C233 1.463 1_556 S
C236 N240 1.427 1_556 S
C237 H227 0.929 1_556 S
C237 C235 1.433 . S
C237 N240 1.384 1_556 S
C238 H229 0.929 . S
C238 C230 1.378 . S
C238 C233 1.350 . S
C239 H226 0.929 1_554 S
C239 C231 1.433 . S
C239 N241 1.384 1_554 S
N240 C236 1.427 1_554 S
N240 C237 1.384 1_554 S
N241 C233 1.427 1_556 S
N241 C239 1.384 1_556 S
H242 C248 0.930 . S
H243 C252 0.930 . S
H244 C257 0.929 . S
H245 C255 0.929 . S
H246 C250 0.929 . S
H247 C256 0.929 . S
C248 H242 0.930 . S
C248 C249 1.367 . S
C248 C256 1.378 . S
C249 C248 1.367 . S
C249 C257 1.433 . S
C250 H246 0.929 . S
C250 C252 1.378 . S
C250 C254 1.350 . S
C251 C254 1.463 . S
C251 C256 1.350 . S
C251 N259 1.427 . S
C252 H243 0.930 . S
C252 C250 1.378 . S
C252 C253 1.367 . S
C253 C252 1.367 . S
C253 C255 1.433 . S
C254 C250 1.350 . S
C254 C251 1.463 . S
C254 N258 1.427 . S
C255 H245 0.929 . S
C255 C253 1.433 . S
C255 N258 1.384 . S
C256 H247 0.929 . S
C256 C248 1.378 . S
C256 C251 1.350 . S
C257 H244 0.929 . S
C257 C249 1.433 . S
C257 N259 1.384 . S
N258 C254 1.427 . S
N258 C255 1.384 . S
N259 C251 1.427 . S
N259 C257 1.384 . S
H260 C266 0.930 . S
H261 C270 0.930 . S
H262 C275 0.929 . S
H263 C273 0.929 . S
H264 C268 0.929 . S
H265 C274 0.929 . S
C266 H260 0.930 . S
C266 C267 1.367 . S
C266 C274 1.378 1_556 S
C267 C266 1.367 . S
C267 C275 1.433 . S
C268 H264 0.929 . S
C268 C270 1.378 1_556 S
C268 C272 1.350 1_556 S
C269 C272 1.463 1_556 S
C269 C274 1.350 1_556 S
C269 N277 1.427 . S
C270 H261 0.930 . S
C270 C268 1.378 1_554 S
C270 C271 1.367 . S
C271 C270 1.367 . S
C271 C273 1.433 . S
C272 C268 1.350 1_554 S
C272 C269 1.463 1_554 S
C272 N276 1.427 . S
C273 H263 0.929 . S
C273 C271 1.433 . S
C273 N276 1.384 . S
C274 H265 0.929 . S
C274 C266 1.378 1_554 S
C274 C269 1.350 1_554 S
C275 H262 0.929 . S
C275 C267 1.433 . S
C275 N277 1.384 . S
N276 C272 1.427 . S
N276 C273 1.384 . S
N277 C269 1.427 . S
N277 C275 1.384 . S
H278 C284 0.930 . S
H279 C288 0.930 . S
H280 C293 0.929 . S
H281 C291 0.929 . S
H282 C286 0.929 . S
H283 C292 0.929 . S
C284 H278 0.930 . S
C284 C285 1.367 . S
C284 C292 1.378 . S
C285 C284 1.367 . S
C285 C293 1.433 . S
C286 H282 0.929 . S
C286 C288 1.378 . S
C286 C290 1.350 . S
C287 C290 1.463 . S
C287 C292 1.350 . S
C287 N295 1.427 . S
C288 H279 0.930 . S
C288 C286 1.378 . S
C288 C289 1.367 . S
C289 C288 1.367 . S
C289 C291 1.433 . S
C290 C286 1.350 . S
C290 C287 1.463 . S
C290 N294 1.427 . S
C291 H281 0.929 . S
C291 C289 1.433 . S
C291 N294 1.384 . S
C292 H283 0.929 . S
C292 C284 1.378 . S
C292 C287 1.350 . S
C293 H280 0.929 . S
C293 C285 1.433 . S
C293 N295 1.384 . S
N294 C290 1.427 . S
N294 C291 1.384 . S
N295 C287 1.427 . S
N295 C293 1.384 . S
H296 C302 0.930 . S
H297 C306 0.930 . S
H298 C311 0.929 . S
H299 C309 0.929 . S
H300 C304 0.929 . S
H301 C310 0.929 . S
C302 H296 0.930 . S
C302 C303 1.367 . S
C302 C310 1.378 1_554 S
C303 C302 1.367 . S
C303 C311 1.433 . S
C304 H300 0.929 . S
C304 C306 1.378 1_554 S
C304 C308 1.350 1_554 S
C305 C308 1.463 1_554 S
C305 C310 1.350 1_554 S
C305 N313 1.427 . S
C306 H297 0.930 . S
C306 C304 1.378 1_556 S
C306 C307 1.367 . S
C307 C306 1.367 . S
C307 C309 1.433 . S
C308 C304 1.350 1_556 S
C308 C305 1.463 1_556 S
C308 N312 1.427 . S
C309 H299 0.929 . S
C309 C307 1.433 . S
C309 N312 1.384 . S
C310 H301 0.929 . S
C310 C302 1.378 1_556 S
C310 C305 1.350 1_556 S
C311 H298 0.929 . S
C311 C303 1.433 . S
C311 N313 1.384 . S
N312 C308 1.427 . S
N312 C309 1.384 . S
N313 C305 1.427 . S
N313 C311 1.384 . S
H314 C320 0.930 . S
H315 C324 0.930 . S
H316 C329 0.929 . S
H317 C327 0.929 . S
H318 C322 0.929 . S
H319 C328 0.929 . S
C320 H314 0.930 . S
C320 C321 1.367 . S
C320 C328 1.378 . S
C321 C320 1.367 . S
C321 C329 1.433 . S
C322 H318 0.929 . S
C322 C324 1.378 . S
C322 C326 1.350 . S
C323 C326 1.463 . S
C323 C328 1.350 . S
C323 N331 1.427 . S
C324 H315 0.930 . S
C324 C322 1.378 . S
C324 C325 1.367 . S
C325 C324 1.367 . S
C325 C327 1.433 . S
C326 C322 1.350 . S
C326 C323 1.463 . S
C326 N330 1.427 . S
C327 H317 0.929 . S
C327 C325 1.433 . S
C327 N330 1.384 . S
C328 H319 0.929 . S
C328 C320 1.378 . S
C328 C323 1.350 . S
C329 H316 0.929 . S
C329 C321 1.433 . S
C329 N331 1.384 . S
N330 C326 1.427 . S
N330 C327 1.384 . S
N331 C323 1.427 . S
N331 C329 1.384 . S
H332 C338 0.935 . S
H333 C342 0.945 . S
H334 C347 0.929 . S
H335 C345 0.929 . S
H336 C340 0.929 . S
H337 C346 0.929 . S
C338 H332 0.935 . S
C338 C339 1.367 . S
C338 C346 1.378 1_556 S
C339 C338 1.367 . S
C339 C347 1.433 . S
C340 H336 0.929 . S
C340 C342 1.378 1_556 S
C340 C344 1.350 1_556 S
C341 C344 1.463 1_556 S
C341 C346 1.350 1_556 S
C341 N349 1.427 . S
C342 H333 0.945 . S
C342 C340 1.378 1_554 S
C342 C343 1.367 . S
C343 C342 1.367 . S
C343 C345 1.433 . S
C344 C340 1.350 1_554 S
C344 C341 1.463 1_554 S
C344 N348 1.427 . S
C345 H335 0.929 . S
C345 C343 1.433 . S
C345 N348 1.384 . S
C346 H337 0.929 . S
C346 C338 1.378 1_554 S
C346 C341 1.350 1_554 S
C347 H334 0.929 . S
C347 C339 1.433 . S
C347 N349 1.384 . S
N348 C344 1.427 . S
N348 C345 1.384 . S
N349 C341 1.427 . S
N349 C347 1.384 . S
H350 C356 0.930 . S
H351 C360 0.930 . S
H352 C365 0.929 . S
H353 C363 0.929 . S
H354 C358 0.929 . S
H355 C364 0.929 . S
C356 H350 0.930 . S
C356 C357 1.367 . S
C356 C364 1.378 . S
C357 C356 1.367 . S
C357 C365 1.433 . S
C358 H354 0.929 . S
C358 C360 1.378 . S
C358 C362 1.350 . S
C359 C362 1.463 . S
C359 C364 1.350 . S
C359 N367 1.427 . S
C360 H351 0.930 . S
C360 C358 1.378 . S
C360 C361 1.367 . S
C361 C360 1.367 . S
C361 C363 1.433 . S
C362 C358 1.350 . S
C362 C359 1.463 . S
C362 N366 1.427 . S
C363 H353 0.929 . S
C363 C361 1.433 . S
C363 N366 1.384 . S
C364 H355 0.929 . S
C364 C356 1.378 . S
C364 C359 1.350 . S
C365 H352 0.929 . S
C365 C357 1.433 . S
C365 N367 1.384 . S
N366 C362 1.427 . S
N366 C363 1.384 . S
N367 C359 1.427 . S
N367 C365 1.384 . S
H368 C374 0.930 . S
H369 C378 0.930 . S
H370 C383 0.929 . S
H371 C381 0.929 . S
H372 C376 0.929 1_554 S
H373 C382 0.929 1_556 S
C374 H368 0.930 . S
C374 C375 1.367 . S
C374 C382 1.378 . S
C375 C374 1.367 . S
C375 C383 1.433 . S
C376 H372 0.929 1_556 S
C376 C378 1.378 . S
C376 C380 1.350 . S
C377 C380 1.463 1_544 S
C377 C382 1.350 . S
C377 N385 1.427 . S
C378 H369 0.930 . S
C378 C376 1.378 . S
C378 C379 1.367 . S
C379 C378 1.367 . S
C379 C381 1.433 . S
C380 C376 1.350 . S
C380 C377 1.463 1_566 S
C380 N384 1.427 . S
C381 H371 0.929 . S
C381 C379 1.433 . S
C381 N384 1.384 . S
C382 H373 0.929 1_554 S
C382 C374 1.378 . S
C382 C377 1.350 . S
C383 H370 0.929 . S
C383 C375 1.433 . S
C383 N385 1.384 . S
N384 C380 1.427 . S
N384 C381 1.384 . S
N385 C377 1.427 . S
N385 C383 1.384 . S
H386 C392 0.930 . S
H387 C396 0.930 . S
H388 C401 0.929 . S
H389 C399 0.929 . S
H390 C394 0.929 1_565 S
H391 C400 0.929 1_545 S
C392 H386 0.930 . S
C392 C393 1.367 . S
C392 C400 1.378 . S
C393 C392 1.367 . S
C393 C401 1.433 . S
C394 H390 0.929 1_545 S
C394 C396 1.378 . S
C394 C398 1.350 . S
C395 C398 1.463 1_565 S
C395 C400 1.350 . S
C395 N403 1.427 . S
C396 H387 0.930 . S
C396 C394 1.378 . S
C396 C397 1.367 . S
C397 C396 1.367 . S
C397 C399 1.433 . S
C398 C394 1.350 . S
C398 C395 1.463 1_545 S
C398 N402 1.427 . S
C399 H389 0.929 . S
C399 C397 1.433 . S
C399 N402 1.384 . S
C400 H391 0.929 1_565 S
C400 C392 1.378 . S
C400 C395 1.350 . S
C401 H388 0.929 . S
C401 C393 1.433 . S
C401 N403 1.384 . S
N402 C398 1.427 . S
N402 C399 1.384 . S
N403 C395 1.427 . S
N403 C401 1.384 . S
H404 C410 0.930 . S
H405 C414 0.930 . S
H406 C419 0.929 . S
H407 C417 0.929 . S
H408 C412 0.929 . S
H409 C418 0.929 . S
C410 H404 0.930 . S
C410 C411 1.367 . S
C410 C418 1.378 1_556 S
C411 C410 1.367 . S
C411 C419 1.433 . S
C412 H408 0.929 . S
C412 C414 1.378 1_556 S
C412 C416 1.350 1_556 S
C413 C416 1.463 1_566 S
C413 C418 1.350 1_556 S
C413 N421 1.427 . S
C414 H405 0.930 . S
C414 C412 1.378 1_554 S
C414 C415 1.367 . S
C415 C414 1.367 . S
C415 C417 1.433 . S
C416 C412 1.350 1_554 S
C416 C413 1.463 1_544 S
C416 N420 1.427 . S
C417 H407 0.929 . S
C417 C415 1.433 . S
C417 N420 1.384 . S
C418 H409 0.929 . S
C418 C410 1.378 1_554 S
C418 C413 1.350 1_554 S
C419 H406 0.929 . S
C419 C411 1.433 . S
C419 N421 1.384 . S
N420 C416 1.427 . S
N420 C417 1.384 . S
N421 C413 1.427 . S
N421 C419 1.384 . S
H422 C428 0.930 . S
H423 C432 0.930 . S
H424 C437 0.929 . S
H425 C435 0.929 . S
H426 C430 0.929 . S
H427 C436 0.929 . S
C428 H422 0.930 . S
C428 C429 1.367 . S
C428 C436 1.378 . S
C429 C428 1.367 . S
C429 C437 1.433 . S
C430 H426 0.929 . S
C430 C432 1.378 . S
C430 C434 1.350 . S
C431 C434 1.463 1_545 S
C431 C436 1.350 . S
C431 N439 1.427 . S
C432 H423 0.930 . S
C432 C430 1.378 . S
C432 C433 1.367 . S
C433 C432 1.367 . S
C433 C435 1.433 . S
C434 C430 1.350 . S
C434 C431 1.463 1_565 S
C434 N438 1.427 . S
C435 H425 0.929 . S
C435 C433 1.433 . S
C435 N438 1.384 . S
C436 H427 0.929 . S
C436 C428 1.378 . S
C436 C431 1.350 . S
C437 H424 0.929 . S
C437 C429 1.433 . S
C437 N439 1.384 . S
N438 C434 1.427 . S
N438 C435 1.384 . S
N439 C431 1.427 . S
N439 C437 1.384 . S
H440 C446 0.930 . S
H441 C450 0.930 . S
H442 C455 0.929 . S
H443 C453 0.929 . S
H444 C448 0.929 . S
H445 C454 0.929 . S
C446 H440 0.930 . S
C446 C447 1.367 . S
C446 C454 1.378 1_556 S
C447 C446 1.367 . S
C447 C455 1.433 . S
C448 H444 0.929 . S
C448 C450 1.378 1_556 S
C448 C452 1.350 1_556 S
C449 C452 1.463 1_556 S
C449 C454 1.350 1_556 S
C449 N457 1.427 . S
C450 H441 0.930 . S
C450 C448 1.378 1_554 S
C450 C451 1.367 . S
C451 C450 1.367 . S
C451 C453 1.433 . S
C452 C448 1.350 1_554 S
C452 C449 1.463 1_554 S
C452 N456 1.427 . S
C453 H443 0.929 . S
C453 C451 1.433 . S
C453 N456 1.384 . S
C454 H445 0.929 . S
C454 C446 1.378 1_554 S
C454 C449 1.350 1_554 S
C455 H442 0.929 . S
C455 C447 1.433 . S
C455 N457 1.384 . S
N456 C452 1.427 . S
N456 C453 1.384 . S
N457 C449 1.427 . S
N457 C455 1.384 . S
H458 C464 0.930 . S
H459 C468 0.930 . S
H460 C473 0.929 . S
H461 C471 0.929 . S
H462 C466 0.929 . S
H463 C472 0.929 . S
C464 H458 0.930 . S
C464 C465 1.367 . S
C464 C472 1.378 . S
C465 C464 1.367 . S
C465 C473 1.433 . S
C466 H462 0.929 . S
C466 C468 1.378 . S
C466 C470 1.350 . S
C467 C470 1.463 . S
C467 C472 1.350 . S
C467 N475 1.427 . S
C468 H459 0.930 . S
C468 C466 1.378 . S
C468 C469 1.367 . S
C469 C468 1.367 . S
C469 C471 1.433 . S
C470 C466 1.350 . S
C470 C467 1.463 . S
C470 N474 1.427 . S
C471 H461 0.929 . S
C471 C469 1.433 . S
C471 N474 1.384 . S
C472 H463 0.929 . S
C472 C464 1.378 . S
C472 C467 1.350 . S
C473 H460 0.929 . S
C473 C465 1.433 . S
C473 N475 1.384 . S
N474 C470 1.427 . S
N474 C471 1.384 . S
N475 C467 1.427 . S
N475 C473 1.384 . S
H476 C482 0.930 . S
H477 C486 0.930 . S
H478 C491 0.929 . S
H479 C489 0.929 . S
H480 C484 0.929 . S
H481 C490 0.929 . S
C482 H476 0.930 . S
C482 C483 1.367 . S
C482 C490 1.378 . S
C483 C482 1.367 . S
C483 C491 1.433 . S
C484 H480 0.929 . S
C484 C486 1.378 . S
C484 C488 1.350 . S
C485 C488 1.463 1_554 S
C485 C490 1.350 . S
C485 N493 1.427 . S
C486 H477 0.930 . S
C486 C484 1.378 . S
C486 C487 1.367 . S
C487 C486 1.367 . S
C487 C489 1.433 . S
C488 C484 1.350 . S
C488 C485 1.463 1_556 S
C488 N492 1.427 . S
C489 H479 0.929 . S
C489 C487 1.433 . S
C489 N492 1.384 . S
C490 H481 0.929 . S
C490 C482 1.378 . S
C490 C485 1.350 . S
C491 H478 0.929 . S
C491 C483 1.433 . S
C491 N493 1.384 . S
N492 C488 1.427 . S
N492 C489 1.384 . S
N493 C485 1.427 . S
N493 C491 1.384 . S
H494 C500 0.930 . S
H495 C504 0.930 . S
H496 C509 0.929 . S
H497 C507 0.929 . S
H498 C502 0.929 . S
H499 C508 0.929 . S
C500 H494 0.930 . S
C500 C501 1.367 . S
C500 C508 1.378 . S
C501 C500 1.367 . S
C501 C509 1.433 . S
C502 H498 0.929 . S
C502 C504 1.378 . S
C502 C506 1.350 . S
C503 C506 1.463 . S
C503 C508 1.350 . S
C503 N511 1.427 . S
C504 H495 0.930 . S
C504 C502 1.378 . S
C504 C505 1.367 . S
C505 C504 1.367 . S
C505 C507 1.433 . S
C506 C502 1.350 . S
C506 C503 1.463 . S
C506 N510 1.427 . S
C507 H497 0.929 . S
C507 C505 1.433 . S
C507 N510 1.384 . S
C508 H499 0.929 . S
C508 C500 1.378 . S
C508 C503 1.350 . S
C509 H496 0.929 . S
C509 C501 1.433 . S
C509 N511 1.384 . S
N510 C506 1.427 . S
N510 C507 1.384 . S
N511 C503 1.427 . S
N511 C509 1.384 . S
H512 C518 0.930 . S
H513 C522 0.930 . S
H514 C527 0.929 . S
H515 C525 0.929 . S
H516 C520 0.929 . S
H517 C526 0.929 . S
C518 H512 0.930 . S
C518 C519 1.367 . S
C518 C526 1.378 . S
C519 C518 1.367 . S
C519 C527 1.433 . S
C520 H516 0.929 . S
C520 C522 1.378 . S
C520 C524 1.350 . S
C521 C524 1.463 . S
C521 C526 1.350 . S
C521 N529 1.427 . S
C522 H513 0.930 . S
C522 C520 1.378 . S
C522 C523 1.367 . S
C523 C522 1.367 . S
C523 C525 1.433 . S
C524 C520 1.350 . S
C524 C521 1.463 . S
C524 N528 1.427 . S
C525 H515 0.929 . S
C525 C523 1.433 . S
C525 N528 1.384 . S
C526 H517 0.929 . S
C526 C518 1.378 . S
C526 C521 1.350 . S
C527 H514 0.929 . S
C527 C519 1.433 . S
C527 N529 1.384 . S
N528 C524 1.427 . S
N528 C525 1.384 . S
N529 C521 1.427 . S
N529 C527 1.384 . S
H530 C536 0.930 . S
H531 C540 0.930 . S
H532 C545 0.929 . S
H533 C543 0.929 . S
H534 C538 0.929 . S
H535 C544 0.929 . S
C536 H530 0.930 . S
C536 C537 1.367 . S
C536 C544 1.378 . S
C537 C536 1.367 . S
C537 C545 1.433 . S
C538 H534 0.929 . S
C538 C540 1.378 . S
C538 C542 1.350 . S
C539 C542 1.463 1_655 S
C539 C544 1.350 . S
C539 N547 1.427 . S
C540 H531 0.930 . S
C540 C538 1.378 . S
C540 C541 1.367 . S
C541 C540 1.367 . S
C541 C543 1.433 . S
C542 C538 1.350 . S
C542 C539 1.463 1_455 S
C542 N546 1.427 . S
C543 H533 0.929 . S
C543 C541 1.433 . S
C543 N546 1.384 . S
C544 H535 0.929 . S
C544 C536 1.378 . S
C544 C539 1.350 . S
C545 H532 0.929 . S
C545 C537 1.433 . S
C545 N547 1.384 . S
N546 C542 1.427 . S
N546 C543 1.384 . S
N547 C539 1.427 . S
N547 C545 1.384 . S
H548 C554 0.930 . S
H549 C558 0.930 . S
H550 C563 0.929 . S
H551 C561 0.929 . S
H552 C556 0.929 . S
H553 C562 0.929 . S
C554 H548 0.930 . S
C554 C555 1.367 . S
C554 C562 1.378 . S
C555 C554 1.367 . S
C555 C563 1.433 . S
C556 H552 0.929 . S
C556 C558 1.378 . S
C556 C560 1.350 . S
C557 C560 1.463 . S
C557 C562 1.350 . S
C557 N565 1.427 . S
C558 H549 0.930 . S
C558 C556 1.378 . S
C558 C559 1.367 . S
C559 C558 1.367 . S
C559 C561 1.433 . S
C560 C556 1.350 . S
C560 C557 1.463 . S
C560 N564 1.427 . S
C561 H551 0.929 . S
C561 C559 1.433 . S
C561 N564 1.384 . S
C562 H553 0.929 . S
C562 C554 1.378 . S
C562 C557 1.350 . S
C563 H550 0.929 . S
C563 C555 1.433 . S
C563 N565 1.384 . S
N564 C560 1.427 . S
N564 C561 1.384 . S
N565 C557 1.427 . S
N565 C563 1.384 . S
H566 C572 0.930 . S
H567 C576 0.930 . S
H568 C581 0.929 . S
H569 C579 0.929 . S
H570 C574 0.929 . S
H571 C580 0.929 . S
C572 H566 0.930 . S
C572 C573 1.367 . S
C572 C580 1.378 . S
C573 C572 1.367 . S
C573 C581 1.433 . S
C574 H570 0.929 . S
C574 C576 1.378 . S
C574 C578 1.350 . S
C575 C578 1.463 1_455 S
C575 C580 1.350 . S
C575 N583 1.427 . S
C576 H567 0.930 . S
C576 C574 1.378 . S
C576 C577 1.367 . S
C577 C576 1.367 . S
C577 C579 1.433 . S
C578 C574 1.350 . S
C578 C575 1.463 1_655 S
C578 N582 1.427 . S
C579 H569 0.929 . S
C579 C577 1.433 . S
C579 N582 1.384 . S
C580 H571 0.929 . S
C580 C572 1.378 . S
C580 C575 1.350 . S
C581 H568 0.929 . S
C581 C573 1.433 . S
C581 N583 1.384 . S
N582 C578 1.427 . S
N582 C579 1.384 . S
N583 C575 1.427 . S
N583 C581 1.384 . S
H584 C590 0.930 . S
H585 C594 0.930 . S
H586 C599 0.929 . S
H587 C597 0.929 . S
H588 C592 0.929 . S
H589 C598 0.929 . S
C590 H584 0.930 . S
C590 C591 1.367 . S
C590 C598 1.378 . S
C591 C590 1.367 . S
C591 C599 1.433 . S
C592 H588 0.929 . S
C592 C594 1.378 . S
C592 C596 1.350 . S
C593 C596 1.463 1_455 S
C593 C598 1.350 . S
C593 N601 1.427 . S
C594 H585 0.930 . S
C594 C592 1.378 . S
C594 C595 1.367 . S
C595 C594 1.367 . S
C595 C597 1.433 . S
C596 C592 1.350 . S
C596 C593 1.463 1_655 S
C596 N600 1.427 . S
C597 H587 0.929 . S
C597 C595 1.433 . S
C597 N600 1.384 . S
C598 H589 0.929 . S
C598 C590 1.378 . S
C598 C593 1.350 . S
C599 H586 0.929 . S
C599 C591 1.433 . S
C599 N601 1.384 . S
N600 C596 1.427 . S
N600 C597 1.384 . S
N601 C593 1.427 . S
N601 C599 1.384 . S
H602 C608 0.930 . S
H603 C612 0.930 . S
H604 C617 0.929 . S
H605 C615 0.929 . S
H606 C610 0.929 . S
H607 C616 0.929 . S
C608 H602 0.930 . S
C608 C609 1.367 . S
C608 C616 1.378 . S
C609 C608 1.367 . S
C609 C617 1.433 . S
C610 H606 0.929 . S
C610 C612 1.378 . S
C610 C614 1.350 . S
C611 C614 1.463 . S
C611 C616 1.350 . S
C611 N619 1.427 . S
C612 H603 0.930 . S
C612 C610 1.378 . S
C612 C613 1.367 . S
C613 C612 1.367 . S
C613 C615 1.433 . S
C614 C610 1.350 . S
C614 C611 1.463 . S
C614 N618 1.427 . S
C615 H605 0.929 . S
C615 C613 1.433 . S
C615 N618 1.384 . S
C616 H607 0.929 . S
C616 C608 1.378 . S
C616 C611 1.350 . S
C617 H604 0.929 . S
C617 C609 1.433 . S
C617 N619 1.384 . S
N618 C614 1.427 . S
N618 C615 1.384 . S
N619 C611 1.427 . S
N619 C617 1.384 . S
H620 C626 0.930 . S
H621 C630 0.930 . S
H622 C635 0.929 . S
H623 C633 0.929 . S
H624 C628 0.929 . S
H625 C634 0.929 . S
C626 H620 0.930 . S
C626 C627 1.367 . S
C626 C634 1.378 . S
C627 C626 1.367 . S
C627 C635 1.433 . S
C628 H624 0.929 . S
C628 C630 1.378 . S
C628 C632 1.350 . S
C629 C632 1.463 1_455 S
C629 C634 1.350 . S
C629 N637 1.427 . S
C630 H621 0.930 . S
C630 C628 1.378 . S
C630 C631 1.367 . S
C631 C630 1.367 . S
C631 C633 1.433 . S
C632 C628 1.350 . S
C632 C629 1.463 1_655 S
C632 N636 1.427 . S
C633 H623 0.929 . S
C633 C631 1.433 . S
C633 N636 1.384 . S
C634 H625 0.929 . S
C634 C626 1.378 . S
C634 C629 1.350 . S
C635 H622 0.929 . S
C635 C627 1.433 . S
C635 N637 1.384 . S
N636 C632 1.427 . S
N636 C633 1.384 . S
N637 C629 1.427 . S
N637 C635 1.384 . S
H638 C644 0.930 . S
H639 C648 0.930 . S
H640 C653 0.929 . S
H641 C651 0.929 . S
H642 C646 0.929 . S
H643 C652 0.929 . S
C644 H638 0.930 . S
C644 C645 1.367 . S
C644 C652 1.378 . S
C645 C644 1.367 . S
C645 C653 1.433 . S
C646 H642 0.929 . S
C646 C648 1.378 . S
C646 C650 1.350 . S
C647 C650 1.463 . S
C647 C652 1.350 . S
C647 N655 1.427 . S
C648 H639 0.930 . S
C648 C646 1.378 . S
C648 C649 1.367 . S
C649 C648 1.367 . S
C649 C651 1.433 . S
C650 C646 1.350 . S
C650 C647 1.463 . S
C650 N654 1.427 . S
C651 H641 0.929 . S
C651 C649 1.433 . S
C651 N654 1.384 . S
C652 H643 0.929 . S
C652 C644 1.378 . S
C652 C647 1.350 . S
C653 H640 0.929 . S
C653 C645 1.433 . S
C653 N655 1.384 . S
N654 C650 1.427 . S
N654 C651 1.384 . S
N655 C647 1.427 . S
N655 C653 1.384 . S
H656 C662 0.930 . S
H657 C666 0.930 . S
H658 C671 0.929 . S
H659 C669 0.929 . S
H660 C664 0.929 . S
H661 C670 0.929 . S
C662 H656 0.930 . S
C662 C663 1.367 . S
C662 C670 1.378 . S
C663 C662 1.367 . S
C663 C671 1.433 . S
C664 H660 0.929 . S
C664 C666 1.378 . S
C664 C668 1.350 . S
C665 C668 1.463 . S
C665 C670 1.350 . S
C665 N673 1.427 . S
C666 H657 0.930 . S
C666 C664 1.378 . S
C666 C667 1.367 . S
C667 C666 1.367 . S
C667 C669 1.433 . S
C668 C664 1.350 . S
C668 C665 1.463 . S
C668 N672 1.427 . S
C669 H659 0.929 . S
C669 C667 1.433 . S
C669 N672 1.384 . S
C670 H661 0.929 . S
C670 C662 1.378 . S
C670 C665 1.350 . S
C671 H658 0.929 . S
C671 C663 1.433 . S
C671 N673 1.384 . S
N672 C668 1.427 . S
N672 C669 1.384 . S
N673 C665 1.427 . S
N673 C671 1.384 . S
H674 C680 0.930 . S
H675 C684 0.930 . S
H676 C689 0.929 . S
H677 C687 0.929 . S
H678 C682 0.929 . S
H679 C688 0.929 . S
C680 H674 0.930 . S
C680 C681 1.367 . S
C680 C688 1.378 . S
C681 C680 1.367 . S
C681 C689 1.433 . S
C682 H678 0.929 . S
C682 C684 1.378 . S
C682 C686 1.350 . S
C683 C686 1.463 . S
C683 C688 1.350 . S
C683 N691 1.427 . S
C684 H675 0.930 . S
C684 C682 1.378 . S
C684 C685 1.367 . S
C685 C684 1.367 . S
C685 C687 1.433 . S
C686 C682 1.350 . S
C686 C683 1.463 . S
C686 N690 1.427 . S
C687 H677 0.929 . S
C687 C685 1.433 . S
C687 N690 1.384 . S
C688 H679 0.929 . S
C688 C680 1.378 . S
C688 C683 1.350 . S
C689 H676 0.929 . S
C689 C681 1.433 . S
C689 N691 1.384 . S
N690 C686 1.427 . S
N690 C687 1.384 . S
N691 C683 1.427 . S
N691 C689 1.384 . S
H692 C698 0.930 . S
H693 C702 0.930 . S
H694 C707 0.929 . S
H695 C705 0.929 . S
H696 C700 0.929 . S
H697 C706 0.929 . S
C698 H692 0.930 . S
C698 C699 1.367 . S
C698 C706 1.378 . S
C699 C698 1.367 . S
C699 C707 1.433 . S
C700 H696 0.929 . S
C700 C702 1.378 . S
C700 C704 1.350 . S
C701 C704 1.463 . S
C701 C706 1.350 . S
C701 N709 1.427 . S
C702 H693 0.930 . S
C702 C700 1.378 . S
C702 C703 1.367 . S
C703 C702 1.367 . S
C703 C705 1.433 . S
C704 C700 1.350 . S
C704 C701 1.463 . S
C704 N708 1.427 . S
C705 H695 0.929 . S
C705 C703 1.433 . S
C705 N708 1.384 . S
C706 H697 0.929 . S
C706 C698 1.378 . S
C706 C701 1.350 . S
C707 H694 0.929 . S
C707 C699 1.433 . S
C707 N709 1.384 . S
N708 C704 1.427 . S
N708 C705 1.384 . S
N709 C701 1.427 . S
N709 C707 1.384 . S
H710 C716 0.930 . S
H711 C720 0.930 . S
H712 C725 0.929 . S
H713 C723 0.929 . S
H714 C718 0.929 . S
H715 C724 0.929 . S
C716 H710 0.930 . S
C716 C717 1.367 . S
C716 C724 1.378 . S
C717 C716 1.367 . S
C717 C725 1.433 . S
C718 H714 0.929 . S
C718 C720 1.378 . S
C718 C722 1.350 . S
C719 C722 1.463 . S
C719 C724 1.350 . S
C719 N727 1.427 . S
C720 H711 0.930 . S
C720 C718 1.378 . S
C720 C721 1.367 . S
C721 C720 1.367 . S
C721 C723 1.433 . S
C722 C718 1.350 . S
C722 C719 1.463 . S
C722 N726 1.427 . S
C723 H713 0.929 . S
C723 C721 1.433 . S
C723 N726 1.384 . S
C724 H715 0.929 . S
C724 C716 1.378 . S
C724 C719 1.350 . S
C725 H712 0.929 . S
C725 C717 1.433 . S
C725 N727 1.384 . S
N726 C722 1.427 . S
N726 C723 1.384 . S
N727 C719 1.427 . S
N727 C725 1.384 . S
H728 C734 0.930 . S
H729 C738 0.930 . S
H730 C743 0.929 . S
H731 C741 0.929 . S
H732 C736 0.929 . S
H733 C742 0.929 . S
C734 H728 0.930 . S
C734 C735 1.367 . S
C734 C742 1.378 . S
C735 C734 1.367 . S
C735 C743 1.433 . S
C736 H732 0.929 . S
C736 C738 1.378 . S
C736 C740 1.350 . S
C737 C740 1.463 . S
C737 C742 1.350 . S
C737 N745 1.427 . S
C738 H729 0.930 . S
C738 C736 1.378 . S
C738 C739 1.367 . S
C739 C738 1.367 . S
C739 C741 1.433 . S
C740 C736 1.350 . S
C740 C737 1.463 . S
C740 N744 1.427 . S
C741 H731 0.929 . S
C741 C739 1.433 . S
C741 N744 1.384 . S
C742 H733 0.929 . S
C742 C734 1.378 . S
C742 C737 1.350 . S
C743 H730 0.929 . S
C743 C735 1.433 . S
C743 N745 1.384 . S
N744 C740 1.427 . S
N744 C741 1.384 . S
N745 C737 1.427 . S
N745 C743 1.384 . S
H746 C752 0.930 . S
H747 C756 0.930 . S
H748 C761 0.929 . S
H749 C759 0.929 . S
H750 C754 0.929 . S
H751 C760 0.929 . S
C752 H746 0.930 . S
C752 C753 1.367 . S
C752 C760 1.378 . S
C753 C752 1.367 . S
C753 C761 1.433 . S
C754 H750 0.929 . S
C754 C756 1.378 . S
C754 C758 1.350 . S
C755 C758 1.463 . S
C755 C760 1.350 . S
C755 N763 1.427 . S
C756 H747 0.930 . S
C756 C754 1.378 . S
C756 C757 1.367 . S
C757 C756 1.367 . S
C757 C759 1.433 . S
C758 C754 1.350 . S
C758 C755 1.463 . S
C758 N762 1.427 . S
C759 H749 0.929 . S
C759 C757 1.433 . S
C759 N762 1.384 . S
C760 H751 0.929 . S
C760 C752 1.378 . S
C760 C755 1.350 . S
C761 H748 0.929 . S
C761 C753 1.433 . S
C761 N763 1.384 . S
N762 C758 1.427 . S
N762 C759 1.384 . S
N763 C755 1.427 . S
N763 C761 1.384 . S
H764 C770 0.930 . S
H765 C774 0.930 . S
H766 C779 0.929 . S
H767 C777 0.929 . S
H768 C772 0.929 . S
H769 C778 0.929 . S
C770 H764 0.930 . S
C770 C771 1.367 . S
C770 C778 1.378 . S
C771 C770 1.367 . S
C771 C779 1.433 . S
C772 H768 0.929 . S
C772 C774 1.378 . S
C772 C776 1.350 . S
C773 C776 1.463 . S
C773 C778 1.350 . S
C773 N781 1.427 . S
C774 H765 0.930 . S
C774 C772 1.378 . S
C774 C775 1.367 . S
C775 C774 1.367 . S
C775 C777 1.433 . S
C776 C772 1.350 . S
C776 C773 1.463 . S
C776 N780 1.427 . S
C777 H767 0.929 . S
C777 C775 1.433 . S
C777 N780 1.384 . S
C778 H769 0.929 . S
C778 C770 1.378 . S
C778 C773 1.350 . S
C779 H766 0.929 . S
C779 C771 1.433 . S
C779 N781 1.384 . S
N780 C776 1.427 . S
N780 C777 1.384 . S
N781 C773 1.427 . S
N781 C779 1.384 . S
H782 C788 0.930 . S
H783 C792 0.930 . S
H784 C797 0.929 . S
H785 C795 0.929 . S
H786 C790 0.929 . S
H787 C796 0.929 . S
C788 H782 0.930 . S
C788 C789 1.367 . S
C788 C796 1.378 . S
C789 C788 1.367 . S
C789 C797 1.433 . S
C790 H786 0.929 . S
C790 C792 1.378 . S
C790 C794 1.350 . S
C791 C794 1.463 . S
C791 C796 1.350 . S
C791 N799 1.427 . S
C792 H783 0.930 . S
C792 C790 1.378 . S
C792 C793 1.367 . S
C793 C792 1.367 . S
C793 C795 1.433 . S
C794 C790 1.350 . S
C794 C791 1.463 . S
C794 N798 1.427 . S
C795 H785 0.929 . S
C795 C793 1.433 . S
C795 N798 1.384 . S
C796 H787 0.929 . S
C796 C788 1.378 . S
C796 C791 1.350 . S
C797 H784 0.929 . S
C797 C789 1.433 . S
C797 N799 1.384 . S
N798 C794 1.427 . S
N798 C795 1.384 . S
N799 C791 1.427 . S
N799 C797 1.384 . S
C231 C11 1.371 . S
C235 C180 1.389 . S
C249 C194 1.390 . S
C253 C25 1.368 . S
C267 C39 1.371 . S
C271 C208 1.391 . S
C285 C222 1.390 . S
C289 C53 1.376 . S
C303 C123 1.376 . S
C307 C68 1.389 . S
C321 C82 1.388 . S
C325 C137 1.375 . S
C339 C151 1.372 . S
C343 C96 1.391 . S
C357 C110 1.388 . S
C361 C165 1.373 . S
C375 C4 1.462 . S
C379 C32 1.455 . S
C393 C18 1.458 . S
C397 C46 1.463 . S
C411 C60 1.385 . S
C415 C88 1.389 . S
C429 C74 1.393 . S
C433 C102 1.386 . S
C447 C144 1.458 . S
C451 C116 1.458 . S
C465 C130 1.462 . S
C469 C158 1.460 . S
C483 C200 1.393 . S
C487 C172 1.385 . S
C501 C186 1.390 . S
C505 C214 1.389 . S
C519 C89 1.312 . S
C523 C5 1.304 . S
C537 C103 1.308 . S
C541 C19 1.309 . S
C555 C33 1.296 . S
C559 C61 1.321 . S
C573 C47 1.296 . S
C577 C75 1.320 . S
C591 C201 1.313 . S
C595 C117 1.305 . S
C609 C131 1.303 . S
C613 C215 1.313 . S
C627 C173 1.320 . S
C631 C145 1.296 . S
C645 C159 1.312 . S
C649 C187 1.304 . S
C663 C12 1.421 . S
C667 C54 1.424 . S
C681 C40 1.423 . S
C685 C26 1.425 . S
C699 C67 1.310 . S
C703 C109 1.310 . S
C717 C81 1.312 . S
C721 C95 1.311 . S
C735 C166 1.422 . S
C739 C124 1.421 . S
C753 C138 1.425 . S
C757 C152 1.424 . S
C771 C221 1.317 . S
C775 C179 1.318 . S
C789 C193 1.315 . S
C793 C207 1.314 . S
