# Generated by pormake.
# Topology hbo, (4)-cn, num edge types: 1
# Building blocks:
#     Node 0, Type 0, BuildingBlock: GALJAG_clean_sbu_0, # of connection points: 4
#     Node 1, Type 0, BuildingBlock: GALJAG_clean_sbu_0, # of connection points: 4
#     Node 2, Type 0, BuildingBlock: GALJAG_clean_sbu_0, # of connection points: 4
#     Node 3, Type 0, BuildingBlock: GALJAG_clean_sbu_0, # of connection points: 4
#     Node 4, Type 0, BuildingBlock: GALJAG_clean_sbu_0, # of connection points: 4
#     Node 5, Type 0, BuildingBlock: GALJAG_clean_sbu_0, # of connection points: 4
#     Node 6, Type 0, BuildingBlock: GALJAG_clean_sbu_0, # of connection points: 4
#     Node 7, Type 0, BuildingBlock: GALJAG_clean_sbu_0, # of connection points: 4
#     Node 8, Type 0, BuildingBlock: GALJAG_clean_sbu_0, # of connection points: 4
#     Node 9, Type 0, BuildingBlock: GALJAG_clean_sbu_0, # of connection points: 4
#     Node 10, Type 0, BuildingBlock: GALJAG_clean_sbu_0, # of connection points: 4
#     Node 11, Type 0, BuildingBlock: GALJAG_clean_sbu_0, # of connection points: 4
#     Node 12, Type 0, BuildingBlock: GALJAG_clean_sbu_0, # of connection points: 4
#     Node 13, Type 0, BuildingBlock: GALJAG_clean_sbu_0, # of connection points: 4
#     Node 14, Type 0, BuildingBlock: GALJAG_clean_sbu_0, # of connection points: 4
#     Node 15, Type 0, BuildingBlock: GALJAG_clean_sbu_0, # of connection points: 4
#     Node 16, Type 0, BuildingBlock: GALJAG_clean_sbu_0, # of connection points: 4
#     Node 17, Type 0, BuildingBlock: GALJAG_clean_sbu_0, # of connection points: 4
#     Node 18, Type 0, BuildingBlock: GALJAG_clean_sbu_0, # of connection points: 4
#     Node 19, Type 0, BuildingBlock: GALJAG_clean_sbu_0, # of connection points: 4
#     Node 20, Type 0, BuildingBlock: GALJAG_clean_sbu_0, # of connection points: 4
#     Node 21, Type 0, BuildingBlock: GALJAG_clean_sbu_0, # of connection points: 4
#     Node 22, Type 0, BuildingBlock: GALJAG_clean_sbu_0, # of connection points: 4
#     Node 23, Type 0, BuildingBlock: GALJAG_clean_sbu_0, # of connection points: 4
#     Edge 24, Type (0, 0), BuildingBlock: OJICUG_clean_linker_0, # of connection points: 2
#     Edge 25, Type (0, 0), BuildingBlock: OJICUG_clean_linker_0, # of connection points: 2
#     Edge 26, Type (0, 0), BuildingBlock: OJICUG_clean_linker_0, # of connection points: 2
#     Edge 27, Type (0, 0), BuildingBlock: OJICUG_clean_linker_0, # of connection points: 2
#     Edge 28, Type (0, 0), BuildingBlock: OJICUG_clean_linker_0, # of connection points: 2
#     Edge 29, Type (0, 0), BuildingBlock: OJICUG_clean_linker_0, # of connection points: 2
#     Edge 30, Type (0, 0), BuildingBlock: OJICUG_clean_linker_0, # of connection points: 2
#     Edge 31, Type (0, 0), BuildingBlock: OJICUG_clean_linker_0, # of connection points: 2
#     Edge 32, Type (0, 0), BuildingBlock: OJICUG_clean_linker_0, # of connection points: 2
#     Edge 33, Type (0, 0), BuildingBlock: OJICUG_clean_linker_0, # of connection points: 2
#     Edge 34, Type (0, 0), BuildingBlock: OJICUG_clean_linker_0, # of connection points: 2
#     Edge 35, Type (0, 0), BuildingBlock: OJICUG_clean_linker_0, # of connection points: 2
#     Edge 36, Type (0, 0), BuildingBlock: OJICUG_clean_linker_0, # of connection points: 2
#     Edge 37, Type (0, 0), BuildingBlock: OJICUG_clean_linker_0, # of connection points: 2
#     Edge 38, Type (0, 0), BuildingBlock: OJICUG_clean_linker_0, # of connection points: 2
#     Edge 39, Type (0, 0), BuildingBlock: OJICUG_clean_linker_0, # of connection points: 2
#     Edge 40, Type (0, 0), BuildingBlock: OJICUG_clean_linker_0, # of connection points: 2
#     Edge 41, Type (0, 0), BuildingBlock: OJICUG_clean_linker_0, # of connection points: 2
#     Edge 42, Type (0, 0), BuildingBlock: OJICUG_clean_linker_0, # of connection points: 2
#     Edge 43, Type (0, 0), BuildingBlock: OJICUG_clean_linker_0, # of connection points: 2
#     Edge 44, Type (0, 0), BuildingBlock: OJICUG_clean_linker_0, # of connection points: 2
#     Edge 45, Type (0, 0), BuildingBlock: OJICUG_clean_linker_0, # of connection points: 2
#     Edge 46, Type (0, 0), BuildingBlock: OJICUG_clean_linker_0, # of connection points: 2
#     Edge 47, Type (0, 0), BuildingBlock: OJICUG_clean_linker_0, # of connection points: 2
#     Edge 48, Type (0, 0), BuildingBlock: OJICUG_clean_linker_0, # of connection points: 2
#     Edge 49, Type (0, 0), BuildingBlock: OJICUG_clean_linker_0, # of connection points: 2
#     Edge 50, Type (0, 0), BuildingBlock: OJICUG_clean_linker_0, # of connection points: 2
#     Edge 51, Type (0, 0), BuildingBlock: OJICUG_clean_linker_0, # of connection points: 2
#     Edge 52, Type (0, 0), BuildingBlock: OJICUG_clean_linker_0, # of connection points: 2
#     Edge 53, Type (0, 0), BuildingBlock: OJICUG_clean_linker_0, # of connection points: 2
#     Edge 54, Type (0, 0), BuildingBlock: OJICUG_clean_linker_0, # of connection points: 2
#     Edge 55, Type (0, 0), BuildingBlock: OJICUG_clean_linker_0, # of connection points: 2
#     Edge 56, Type (0, 0), BuildingBlock: OJICUG_clean_linker_0, # of connection points: 2
#     Edge 57, Type (0, 0), BuildingBlock: OJICUG_clean_linker_0, # of connection points: 2
#     Edge 58, Type (0, 0), BuildingBlock: OJICUG_clean_linker_0, # of connection points: 2
#     Edge 59, Type (0, 0), BuildingBlock: OJICUG_clean_linker_0, # of connection points: 2
#     Edge 60, Type (0, 0), BuildingBlock: OJICUG_clean_linker_0, # of connection points: 2
#     Edge 61, Type (0, 0), BuildingBlock: OJICUG_clean_linker_0, # of connection points: 2
#     Edge 62, Type (0, 0), BuildingBlock: OJICUG_clean_linker_0, # of connection points: 2
#     Edge 63, Type (0, 0), BuildingBlock: OJICUG_clean_linker_0, # of connection points: 2
#     Edge 64, Type (0, 0), BuildingBlock: OJICUG_clean_linker_0, # of connection points: 2
#     Edge 65, Type (0, 0), BuildingBlock: OJICUG_clean_linker_0, # of connection points: 2
#     Edge 66, Type (0, 0), BuildingBlock: OJICUG_clean_linker_0, # of connection points: 2
#     Edge 67, Type (0, 0), BuildingBlock: OJICUG_clean_linker_0, # of connection points: 2
#     Edge 68, Type (0, 0), BuildingBlock: OJICUG_clean_linker_0, # of connection points: 2
#     Edge 69, Type (0, 0), BuildingBlock: OJICUG_clean_linker_0, # of connection points: 2
#     Edge 70, Type (0, 0), BuildingBlock: OJICUG_clean_linker_0, # of connection points: 2
#     Edge 71, Type (0, 0), BuildingBlock: OJICUG_clean_linker_0, # of connection points: 2
# Relax obj value: 0.092
# Max RMSD: 0.160
# Mean RMSD: 0.160
data_MOF--net-hbo--node1-GALJAG_clean_sbu_0--edge1-OJICUG_clean_linker_0
_symmetry_space_group_name_H-M    P1
_symmetry_Int_Tables_number       1
_symmetry_cell_setting            triclinic
loop_
_symmetry_equiv_pos_as_xyz
'x, y, z'
_cell_length_a     39.648215
_cell_length_b     39.486689
_cell_length_c     40.091986
_cell_angle_alpha  89.979473
_cell_angle_beta   89.961601
_cell_angle_gamma 89.955357
loop_
_atom_site_label
_atom_site_type_symbol
_atom_site_fract_x
_atom_site_fract_y
_atom_site_fract_z
_atom_type_partial_charge
In0 In 0.12886 0.35131 0.24298 0.0
O1 O 0.13636 0.40043 0.27244 0.0
O2 O 0.12235 0.40303 0.22105 0.0
C3 C 0.14584 0.29958 0.28284 0.0
C4 C 0.06186 0.34432 0.2403 0.0
C5 C 0.1795 0.3418 0.19968 0.0
O6 O 0.15217 0.33 0.29069 0.0
O7 O 0.13024 0.29579 0.2557 0.0
O8 O 0.1497 0.33227 0.19333 0.0
O9 O 0.1832 0.35666 0.22727 0.0
C10 C 0.12938 0.41887 0.2475 0.0
O11 O 0.0801 0.34101 0.21456 0.0
O12 O 0.07761 0.35078 0.26693 0.0
In13 In 0.1306 0.63013 0.72953 0.0
O14 O 0.13865 0.58093 0.70047 0.0
O15 O 0.12626 0.5785 0.7523 0.0
C16 C 0.14462 0.68179 0.68849 0.0
C17 C 0.06349 0.63545 0.73309 0.0
C18 C 0.1821 0.6415 0.77125 0.0
O19 O 0.1518 0.65148 0.6809 0.0
O20 O 0.12983 0.6855 0.71611 0.0
O21 O 0.15214 0.64978 0.77862 0.0
O22 O 0.18557 0.627 0.74344 0.0
C23 C 0.13291 0.56259 0.72579 0.0
O24 O 0.08192 0.64003 0.75849 0.0
O25 O 0.0791 0.62845 0.7065 0.0
In26 In 0.85014 0.63364 0.24051 0.0
O27 O 0.84205 0.58464 0.26999 0.0
O28 O 0.8561 0.58182 0.21861 0.0
C29 C 0.83438 0.68575 0.28033 0.0
C30 C 0.91719 0.63986 0.23806 0.0
C31 C 0.79934 0.64388 0.19764 0.0
O32 O 0.82765 0.65546 0.28836 0.0
O33 O 0.84965 0.68922 0.25294 0.0
O34 O 0.82928 0.65276 0.1909 0.0
O35 O 0.79559 0.62927 0.22537 0.0
C36 C 0.84891 0.56609 0.24509 0.0
O37 O 0.89916 0.6434 0.21222 0.0
O38 O 0.90121 0.63348 0.26459 0.0
In39 In 0.84999 0.35161 0.73027 0.0
O40 O 0.84192 0.40098 0.70153 0.0
O41 O 0.85404 0.40314 0.7534 0.0
C42 C 0.835 0.30066 0.68877 0.0
C43 C 0.91714 0.34608 0.73322 0.0
C44 C 0.79903 0.33912 0.77242 0.0
O45 O 0.8276 0.33108 0.68187 0.0
O46 O 0.85063 0.2965 0.71585 0.0
O47 O 0.82907 0.33055 0.77912 0.0
O48 O 0.79527 0.35461 0.74517 0.0
C49 C 0.84742 0.41919 0.72696 0.0
O50 O 0.8989 0.34174 0.75882 0.0
O51 O 0.90134 0.35299 0.70674 0.0
In52 In 0.25824 0.13332 0.34703 0.0
O53 O 0.22897 0.08441 0.33818 0.0
O54 O 0.28108 0.08146 0.35152 0.0
C55 C 0.21542 0.18451 0.33548 0.0
C56 C 0.26207 0.13801 0.41336 0.0
C57 C 0.29852 0.1453 0.29473 0.0
O58 O 0.20774 0.1541 0.32895 0.0
O59 O 0.24433 0.18869 0.34794 0.0
O60 O 0.30668 0.1543 0.32396 0.0
O61 O 0.27081 0.12983 0.29249 0.0
C62 C 0.25429 0.06582 0.34424 0.0
O63 O 0.28797 0.14218 0.39526 0.0
O64 O 0.23516 0.13161 0.3978 0.0
In65 In 0.35127 0.73973 0.84578 0.0
O66 O 0.40062 0.71056 0.83866 0.0
O67 O 0.40225 0.76248 0.85377 0.0
C68 C 0.29893 0.69956 0.83165 0.0
C69 C 0.34354 0.7423 0.91181 0.0
C70 C 0.34319 0.78102 0.79345 0.0
O71 O 0.32904 0.69036 0.82594 0.0
O72 O 0.29576 0.72846 0.8447 0.0
O73 O 0.33405 0.78961 0.82255 0.0
O74 O 0.35679 0.75221 0.79132 0.0
C75 C 0.41849 0.73595 0.84655 0.0
O76 O 0.34012 0.76857 0.89392 0.0
O77 O 0.35067 0.71546 0.89617 0.0
In78 In 0.72543 0.85327 0.34643 0.0
O79 O 0.6964 0.84282 0.39469 0.0
O80 O 0.74903 0.85451 0.39693 0.0
C81 C 0.68536 0.84213 0.29391 0.0
C82 C 0.72793 0.92084 0.34509 0.0
C83 C 0.76771 0.80185 0.3343 0.0
O84 O 0.6768 0.83331 0.32311 0.0
O85 O 0.71342 0.857 0.29179 0.0
O86 O 0.77575 0.83225 0.32798 0.0
O87 O 0.73878 0.79788 0.34682 0.0
C88 C 0.72239 0.84716 0.41261 0.0
O89 O 0.75359 0.903 0.33822 0.0
O90 O 0.70161 0.90442 0.35241 0.0
In91 In 0.62968 0.2398 0.84703 0.0
O92 O 0.64048 0.21073 0.89514 0.0
O93 O 0.63296 0.26438 0.89708 0.0
C94 C 0.63579 0.19789 0.79493 0.0
C95 C 0.56263 0.24581 0.84937 0.0
C96 C 0.68246 0.27902 0.83183 0.0
O97 O 0.64569 0.18949 0.82382 0.0
O98 O 0.6224 0.2268 0.79291 0.0
O99 O 0.65241 0.28889 0.82706 0.0
O100 O 0.68541 0.24982 0.84429 0.0
C101 C 0.63903 0.23733 0.91281 0.0
O102 O 0.58109 0.27027 0.84012 0.0
O103 O 0.5782 0.21904 0.85715 0.0
In104 In 0.25084 0.84966 0.62096 0.0
O105 O 0.28124 0.83992 0.57337 0.0
O106 O 0.22879 0.85204 0.56975 0.0
C107 C 0.2903 0.83869 0.67403 0.0
C108 C 0.24765 0.91717 0.62298 0.0
C109 C 0.20867 0.79798 0.6322 0.0
O110 O 0.29936 0.83012 0.6449 0.0
O111 O 0.26197 0.85312 0.67585 0.0
O112 O 0.20044 0.8283 0.63866 0.0
O113 O 0.23768 0.79422 0.61978 0.0
C114 C 0.25591 0.84498 0.55474 0.0
O115 O 0.22189 0.89909 0.62874 0.0
O116 O 0.27434 0.901 0.61646 0.0
In117 In 0.62933 0.74039 0.12233 0.0
O118 O 0.63964 0.77129 0.07523 0.0
O119 O 0.63194 0.71785 0.07119 0.0
C120 C 0.63528 0.78199 0.17476 0.0
C121 C 0.56235 0.7333 0.12062 0.0
C122 C 0.68242 0.70106 0.13655 0.0
O123 O 0.64463 0.79072 0.1458 0.0
O124 O 0.62261 0.75277 0.17679 0.0
O125 O 0.65246 0.69121 0.14173 0.0
O126 O 0.68514 0.73024 0.12402 0.0
C127 C 0.63782 0.74552 0.05649 0.0
O128 O 0.58133 0.70879 0.12869 0.0
O129 O 0.57737 0.76059 0.11373 0.0
In130 In 0.72733 0.13323 0.62125 0.0
O131 O 0.69578 0.1433 0.57449 0.0
O132 O 0.74872 0.13421 0.5697 0.0
C133 C 0.68766 0.14182 0.67468 0.0
C134 C 0.73286 0.0658 0.62115 0.0
C135 C 0.76889 0.18522 0.63334 0.0
O136 O 0.67851 0.15113 0.64583 0.0
O137 O 0.71623 0.12785 0.67606 0.0
O138 O 0.77771 0.15484 0.6386 0.0
O139 O 0.7395 0.18895 0.62187 0.0
C140 C 0.72108 0.1405 0.55536 0.0
O141 O 0.75785 0.08455 0.62791 0.0
O142 O 0.70577 0.08126 0.61464 0.0
In143 In 0.35044 0.24831 0.12262 0.0
O144 O 0.39835 0.28031 0.12824 0.0
O145 O 0.40219 0.22907 0.11149 0.0
C146 C 0.29685 0.28671 0.13747 0.0
C147 C 0.34044 0.24258 0.05709 0.0
C148 C 0.34647 0.20675 0.17534 0.0
O149 O 0.3267 0.29727 0.14193 0.0
O150 O 0.29452 0.25732 0.12538 0.0
O151 O 0.33682 0.19774 0.14658 0.0
O152 O 0.35849 0.23625 0.17705 0.0
C153 C 0.41721 0.25628 0.11861 0.0
O154 O 0.33952 0.21694 0.07609 0.0
O155 O 0.34608 0.2705 0.07141 0.0
In156 In 0.85103 0.63262 0.73125 0.0
O157 O 0.90018 0.64153 0.75968 0.0
O158 O 0.90222 0.63036 0.70757 0.0
C159 C 0.80012 0.64515 0.77345 0.0
C160 C 0.84774 0.5651 0.72751 0.0
C161 C 0.83688 0.6842 0.69014 0.0
O162 O 0.83021 0.65341 0.78026 0.0
O163 O 0.79629 0.62999 0.74603 0.0
O164 O 0.82929 0.65393 0.68287 0.0
O165 O 0.85222 0.68791 0.71744 0.0
C166 C 0.91824 0.63686 0.734 0.0
O167 O 0.84222 0.58357 0.70224 0.0
O168 O 0.85466 0.58088 0.75403 0.0
In169 In 0.84967 0.35258 0.24096 0.0
O170 O 0.84189 0.4017 0.27031 0.0
O171 O 0.85617 0.40431 0.21898 0.0
C172 C 0.8324 0.30088 0.28069 0.0
C173 C 0.91669 0.34535 0.23913 0.0
C174 C 0.79937 0.34272 0.19746 0.0
O175 O 0.82591 0.3313 0.28846 0.0
O176 O 0.84829 0.29708 0.25369 0.0
O177 O 0.82927 0.3333 0.19125 0.0
O178 O 0.79544 0.35772 0.22495 0.0
C179 C 0.84895 0.42014 0.2454 0.0
O180 O 0.89883 0.34219 0.21313 0.0
O181 O 0.90056 0.35189 0.26554 0.0
In182 In 0.12959 0.34918 0.73005 0.0
O183 O 0.08057 0.33995 0.75864 0.0
O184 O 0.07831 0.35072 0.70646 0.0
C185 C 0.18045 0.33745 0.77248 0.0
C186 C 0.13226 0.41669 0.72606 0.0
C187 C 0.14477 0.29771 0.68918 0.0
O188 O 0.15046 0.32872 0.77916 0.0
O189 O 0.18422 0.35265 0.74506 0.0
O190 O 0.15195 0.32807 0.68185 0.0
O191 O 0.12922 0.29385 0.71636 0.0
C192 C 0.0624 0.34429 0.73301 0.0
O193 O 0.13793 0.39822 0.70083 0.0
O194 O 0.12546 0.40091 0.75262 0.0
In195 In 0.12933 0.6323 0.24131 0.0
O196 O 0.13701 0.58349 0.27126 0.0
O197 O 0.12278 0.58037 0.21996 0.0
C198 C 0.14504 0.68482 0.28058 0.0
C199 C 0.06235 0.63918 0.2385 0.0
C200 C 0.18042 0.64126 0.19843 0.0
O201 O 0.15147 0.65458 0.28908 0.0
O202 O 0.13015 0.68805 0.25298 0.0
O203 O 0.15055 0.6501 0.19138 0.0
O204 O 0.184 0.6274 0.22656 0.0
C205 C 0.12989 0.5648 0.24656 0.0
O206 O 0.08059 0.6425 0.21275 0.0
O207 O 0.07809 0.63269 0.26513 0.0
In208 In 0.73096 0.85246 0.62201 0.0
O209 O 0.76027 0.90185 0.6287 0.0
O210 O 0.70805 0.90384 0.61557 0.0
C211 C 0.77263 0.80052 0.63405 0.0
C212 C 0.72557 0.84587 0.55602 0.0
C213 C 0.69132 0.84324 0.67532 0.0
O214 O 0.78125 0.83085 0.63984 0.0
O215 O 0.74347 0.79687 0.62201 0.0
O216 O 0.68221 0.83421 0.64637 0.0
O217 O 0.71984 0.85726 0.67687 0.0
C218 C 0.73476 0.91997 0.62195 0.0
O219 O 0.70022 0.84194 0.57491 0.0
O220 O 0.75289 0.85281 0.57067 0.0
In221 In 0.62894 0.24763 0.12138 0.0
O222 O 0.63981 0.21609 0.07491 0.0
O223 O 0.63355 0.26968 0.07014 0.0
C224 C 0.63272 0.20592 0.174 0.0
C225 C 0.56217 0.25601 0.11762 0.0
C226 C 0.68242 0.28612 0.13614 0.0
O227 O 0.64254 0.197 0.14526 0.0
O228 O 0.62068 0.23544 0.17574 0.0
O229 O 0.65254 0.29672 0.14038 0.0
O230 O 0.68486 0.25659 0.12438 0.0
C231 C 0.63913 0.24171 0.05588 0.0
O232 O 0.58116 0.27983 0.12736 0.0
O233 O 0.57707 0.2288 0.11015 0.0
In234 In 0.25389 0.13049 0.62295 0.0
O235 O 0.28498 0.1405 0.57579 0.0
O236 O 0.23227 0.12999 0.57152 0.0
C237 C 0.29337 0.1404 0.67624 0.0
C238 C 0.2493 0.06301 0.62391 0.0
C239 C 0.21168 0.18215 0.6346 0.0
O240 O 0.30246 0.14937 0.64725 0.0
O241 O 0.265 0.12607 0.67781 0.0
O242 O 0.20337 0.15176 0.6405 0.0
O243 O 0.24088 0.18605 0.62269 0.0
C244 C 0.25966 0.13672 0.55687 0.0
O245 O 0.22396 0.08159 0.62996 0.0
O246 O 0.27633 0.07867 0.6176 0.0
In247 In 0.35001 0.73602 0.1212 0.0
O248 O 0.3989 0.70583 0.12798 0.0
O249 O 0.40133 0.75772 0.11294 0.0
C250 C 0.29735 0.69625 0.13558 0.0
C251 C 0.34233 0.74011 0.05521 0.0
C252 C 0.34305 0.77786 0.17331 0.0
O253 O 0.32739 0.68685 0.14123 0.0
O254 O 0.29439 0.72511 0.12239 0.0
O255 O 0.33379 0.7863 0.14424 0.0
O256 O 0.35607 0.7488 0.17562 0.0
C257 C 0.41716 0.73092 0.12001 0.0
O258 O 0.33914 0.76596 0.07369 0.0
O259 O 0.34905 0.71281 0.07026 0.0
In260 In 0.72098 0.13425 0.34587 0.0
O261 O 0.75052 0.08531 0.33769 0.0
O262 O 0.69869 0.0824 0.3521 0.0
C263 C 0.76315 0.18567 0.3334 0.0
C264 C 0.71753 0.14061 0.41203 0.0
C265 C 0.68046 0.145 0.29354 0.0
O266 O 0.77124 0.15523 0.32738 0.0
O267 O 0.73414 0.18975 0.34572 0.0
O268 O 0.67225 0.15432 0.32268 0.0
O269 O 0.70834 0.12976 0.29142 0.0
C270 C 0.72546 0.06674 0.34473 0.0
O271 O 0.6914 0.14376 0.39408 0.0
O272 O 0.74446 0.13431 0.39641 0.0
In273 In 0.35035 0.24021 0.84812 0.0
O274 O 0.33953 0.2114 0.89638 0.0
O275 O 0.34736 0.265 0.89813 0.0
C276 C 0.34434 0.19822 0.79608 0.0
C277 C 0.41741 0.24609 0.85008 0.0
C278 C 0.29731 0.27913 0.83294 0.0
O279 O 0.33471 0.18975 0.82505 0.0
O280 O 0.35741 0.22725 0.79394 0.0
O281 O 0.3273 0.28914 0.82808 0.0
O282 O 0.29457 0.24997 0.84553 0.0
C283 C 0.34118 0.23804 0.91396 0.0
O284 O 0.39892 0.27059 0.84091 0.0
O285 O 0.40186 0.21937 0.85801 0.0
In286 In 0.25429 0.85235 0.34493 0.0
O287 O 0.22627 0.90219 0.33679 0.0
O288 O 0.27862 0.90339 0.34952 0.0
C289 C 0.21151 0.80117 0.33384 0.0
C290 C 0.25798 0.84723 0.41118 0.0
C291 C 0.29364 0.83995 0.29207 0.0
O292 O 0.20376 0.83153 0.32696 0.0
O293 O 0.24037 0.79714 0.34648 0.0
O294 O 0.30253 0.83165 0.32133 0.0
O295 O 0.26565 0.85502 0.29007 0.0
C296 C 0.2522 0.91993 0.34275 0.0
O297 O 0.28368 0.84207 0.39302 0.0
O298 O 0.23131 0.85487 0.3957 0.0
In299 In 0.63082 0.74504 0.84713 0.0
O300 O 0.6405 0.77452 0.89526 0.0
O301 O 0.63252 0.72101 0.89757 0.0
C302 C 0.63823 0.78685 0.79506 0.0
C303 C 0.56374 0.73878 0.84746 0.0
C304 C 0.68362 0.70534 0.83291 0.0
O305 O 0.64763 0.79521 0.82412 0.0
O306 O 0.62471 0.75804 0.79285 0.0
O307 O 0.65359 0.69581 0.82757 0.0
O308 O 0.68657 0.73443 0.84557 0.0
C309 C 0.63833 0.74815 0.91317 0.0
O310 O 0.58266 0.71418 0.83952 0.0
O311 O 0.57887 0.76584 0.85502 0.0
C312 C 0.13817 0.50974 0.27711 0.0
C313 C 0.12974 0.5275 0.24789 0.0
H314 H 0.14469 0.46097 0.30006 0.0
C315 C 0.12105 0.50929 0.21911 0.0
H316 H 0.14494 0.52323 0.29965 0.0
C317 C 0.1209 0.47411 0.21934 0.0
C318 C 0.12943 0.45618 0.24836 0.0
H319 H 0.11437 0.5222 0.19619 0.0
H320 H 0.11412 0.46097 0.1966 0.0
C321 C 0.13802 0.47423 0.27735 0.0
C322 C 0.97314 0.63307 0.70449 0.0
C323 C 0.95538 0.63802 0.73438 0.0
H324 H 0.02104 0.6285 0.68077 0.0
C325 C 0.97344 0.64318 0.7641 0.0
H326 H 0.95995 0.62911 0.68115 0.0
C327 C 0.00877 0.64283 0.76388 0.0
C328 C 0.02639 0.63731 0.73394 0.0
H329 H 0.96031 0.64707 0.78749 0.0
H330 H 0.02223 0.64647 0.7871 0.0
C331 C 0.0082 0.63271 0.70427 0.0
C332 C 0.84057 0.47542 0.27547 0.0
C333 C 0.84881 0.45745 0.24631 0.0
H334 H 0.83409 0.52434 0.29808 0.0
C335 C 0.85703 0.47547 0.21725 0.0
H336 H 0.83413 0.4621 0.29821 0.0
C337 C 0.85699 0.51066 0.21717 0.0
C338 C 0.84874 0.52878 0.24615 0.0
H339 H 0.86352 0.46239 0.19437 0.0
H340 H 0.86346 0.52365 0.19424 0.0
C341 C 0.84054 0.51093 0.27539 0.0
C342 C 0.00739 0.33826 0.76355 0.0
C343 C 0.02526 0.34304 0.73363 0.0
H344 H 0.95875 0.33544 0.78698 0.0
C345 C 0.00732 0.34767 0.70382 0.0
H346 H 0.02065 0.33463 0.78688 0.0
C347 C 0.97224 0.34816 0.70388 0.0
C348 C 0.95425 0.34401 0.73375 0.0
H349 H 0.02036 0.35131 0.68033 0.0
H350 H 0.95925 0.35214 0.68044 0.0
C351 C 0.97206 0.33874 0.7636 0.0
C352 C 0.12699 0.47211 0.75468 0.0
C353 C 0.13316 0.45398 0.7252 0.0
H354 H 0.12217 0.52042 0.77784 0.0
C355 C 0.13976 0.47181 0.69556 0.0
H356 H 0.12187 0.45913 0.77794 0.0
C357 C 0.13993 0.5073 0.69549 0.0
C358 C 0.1335 0.52529 0.72507 0.0
H359 H 0.1446 0.45838 0.67249 0.0
H360 H 0.14489 0.52059 0.67238 0.0
C361 C 0.12716 0.50731 0.75461 0.0
C362 C 0.97212 0.63847 0.26771 0.0
C363 C 0.95428 0.64182 0.23767 0.0
H364 H 0.02013 0.63519 0.29142 0.0
C365 C 0.97225 0.64583 0.2077 0.0
H366 H 0.95898 0.63548 0.29123 0.0
C367 C 0.00757 0.64566 0.20781 0.0
C368 C 0.02528 0.64149 0.23788 0.0
H369 H 0.95907 0.64849 0.18419 0.0
H370 H 0.02095 0.6482 0.18438 0.0
C371 C 0.00719 0.6383 0.26782 0.0
C372 C 0.84042 0.51004 0.69695 0.0
C373 C 0.84673 0.52781 0.72667 0.0
H374 H 0.83567 0.46132 0.67362 0.0
C375 C 0.85265 0.50961 0.75616 0.0
H376 H 0.83578 0.52351 0.67387 0.0
C377 C 0.8526 0.47441 0.75603 0.0
C378 C 0.84662 0.4565 0.72639 0.0
H379 H 0.85753 0.52256 0.77949 0.0
H380 H 0.85743 0.46123 0.77924 0.0
C381 C 0.84037 0.47456 0.69682 0.0
C382 C 0.97185 0.33864 0.20913 0.0
C383 C 0.95376 0.34282 0.239 0.0
H384 H 0.02062 0.33574 0.18605 0.0
C385 C 0.97147 0.34583 0.26915 0.0
H386 H 0.95877 0.33622 0.18553 0.0
C387 C 0.00656 0.34555 0.26944 0.0
C388 C 0.02477 0.34225 0.23958 0.0
H389 H 0.95824 0.34893 0.2926 0.0
H390 H 0.01942 0.34845 0.2931 0.0
C391 C 0.00716 0.33835 0.20942 0.0
C392 C 0.29202 0.1426 0.50315 0.0
C393 C 0.26124 0.1391 0.52024 0.0
H394 H 0.31659 0.14504 0.45538 0.0
C395 C 0.23119 0.13675 0.50196 0.0
H396 H 0.31554 0.1445 0.51673 0.0
C397 C 0.23178 0.13705 0.46734 0.0
C398 C 0.26244 0.1397 0.45006 0.0
H399 H 0.20703 0.13425 0.51437 0.0
H400 H 0.20806 0.13478 0.45414 0.0
C401 C 0.29261 0.1429 0.46817 0.0
C402 C 0.34271 0.71162 0.96575 0.0
C403 C 0.34061 0.74243 0.94842 0.0
H404 H 0.34463 0.68686 0.01294 0.0
C405 C 0.3371 0.77273 0.96645 0.0
H406 H 0.3452 0.68782 0.95256 0.0
C407 C 0.33677 0.77219 0.00139 0.0
C408 C 0.33993 0.74133 0.01859 0.0
H409 H 0.33538 0.79684 0.95363 0.0
H410 H 0.33482 0.79586 0.01487 0.0
C411 C 0.34237 0.71108 0.0004 0.0
C412 C 0.75309 0.84711 0.46635 0.0
C413 C 0.72234 0.84458 0.44924 0.0
H414 H 0.77807 0.8492 0.51328 0.0
C415 C 0.69231 0.84071 0.46749 0.0
H416 H 0.7767 0.84986 0.45301 0.0
C417 C 0.6931 0.84033 0.50244 0.0
C418 C 0.72393 0.8438 0.51939 0.0
H419 H 0.66828 0.83864 0.45482 0.0
H420 H 0.66966 0.83802 0.51613 0.0
C421 C 0.75388 0.84671 0.50097 0.0
C422 C 0.64269 0.20826 0.00276 0.0
C423 C 0.64272 0.23958 0.01941 0.0
H424 H 0.64156 0.18285 0.9554 0.0
C425 C 0.64419 0.26959 0.00076 0.0
H426 H 0.64162 0.18475 0.01663 0.0
C427 C 0.64413 0.26851 0.96613 0.0
C428 C 0.64262 0.23739 0.94933 0.0
H429 H 0.64456 0.2941 0.0129 0.0
H430 H 0.64448 0.29223 0.95254 0.0
C431 C 0.64265 0.20717 0.96783 0.0
C432 C 0.22793 0.84926 0.4653 0.0
C433 C 0.25833 0.84504 0.44785 0.0
H434 H 0.20348 0.85233 0.51247 0.0
C435 C 0.28828 0.8395 0.46579 0.0
H436 H 0.20438 0.85339 0.45222 0.0
C437 C 0.28776 0.83889 0.50076 0.0
C438 C 0.25727 0.84378 0.51804 0.0
H439 H 0.31205 0.83612 0.45288 0.0
H440 H 0.31114 0.83508 0.5142 0.0
C441 C 0.22741 0.84863 0.49992 0.0
C442 C 0.6409 0.71683 0.00164 0.0
C443 C 0.64088 0.7471 0.01993 0.0
H444 H 0.64039 0.6936 0.95373 0.0
C445 C 0.64216 0.77819 0.00287 0.0
H446 H 0.64019 0.69247 0.01408 0.0
C447 C 0.64227 0.77883 0.96793 0.0
C448 C 0.64109 0.74842 0.94978 0.0
H449 H 0.64221 0.80188 0.01645 0.0
H450 H 0.64241 0.80304 0.95518 0.0
C451 C 0.64101 0.71748 0.967 0.0
C452 C 0.68809 0.14493 0.50197 0.0
C453 C 0.71914 0.1432 0.51879 0.0
H454 H 0.66305 0.14549 0.45442 0.0
C455 C 0.74915 0.14259 0.50027 0.0
H456 H 0.66459 0.14547 0.51575 0.0
C457 C 0.74828 0.14258 0.46566 0.0
C458 C 0.71738 0.14319 0.44866 0.0
H459 H 0.7735 0.14155 0.51249 0.0
H460 H 0.77199 0.14155 0.45224 0.0
C461 C 0.68721 0.14493 0.46701 0.0
C462 C 0.33626 0.27051 0.0019 0.0
C463 C 0.33711 0.24049 0.02059 0.0
H464 H 0.33661 0.29309 0.95365 0.0
C465 C 0.33677 0.20917 0.00396 0.0
H466 H 0.33622 0.29504 0.01402 0.0
C467 C 0.33699 0.20804 0.96904 0.0
C468 C 0.33759 0.23823 0.95049 0.0
H469 H 0.33736 0.18565 0.01786 0.0
H470 H 0.33773 0.18368 0.95664 0.0
C471 C 0.33651 0.2694 0.96727 0.0
C472 C 0.50749 0.28605 0.12963 0.0
C473 C 0.52516 0.25855 0.1158 0.0
H474 H 0.45886 0.30705 0.14143 0.0
C475 C 0.50706 0.23191 0.10118 0.0
H476 H 0.52093 0.30694 0.14099 0.0
C477 C 0.47205 0.23197 0.10145 0.0
C478 C 0.4542 0.25867 0.11633 0.0
H479 H 0.51994 0.21053 0.09 0.0
H480 H 0.45899 0.21063 0.09045 0.0
C481 C 0.47211 0.28611 0.12989 0.0
C482 C 0.508 0.76537 0.85758 0.0
C483 C 0.52663 0.73687 0.84769 0.0
H484 H 0.45947 0.78725 0.86498 0.0
C485 C 0.50947 0.70739 0.83785 0.0
H486 H 0.52047 0.78845 0.86538 0.0
C487 C 0.47412 0.70669 0.83762 0.0
C488 C 0.45564 0.73547 0.84722 0.0
H489 H 0.52328 0.68505 0.83013 0.0
H490 H 0.46133 0.68383 0.82973 0.0
C491 C 0.47297 0.76468 0.85734 0.0
C492 C 0.69843 0.97574 0.353 0.0
C493 C 0.72806 0.95815 0.34476 0.0
H494 H 0.67451 0.02366 0.3594 0.0
C495 C 0.75721 0.97653 0.33641 0.0
H496 H 0.67554 0.9623 0.35957 0.0
C497 C 0.75659 0.012 0.33631 0.0
C498 C 0.72684 0.02945 0.34457 0.0
H499 H 0.78038 0.96356 0.32997 0.0
H500 H 0.77933 0.0257 0.3298 0.0
C501 C 0.69782 0.01095 0.3529 0.0
C502 C 0.47252 0.21954 0.86306 0.0
C503 C 0.45452 0.24759 0.851 0.0
H504 H 0.52057 0.1972 0.87207 0.0
C505 C 0.47233 0.27599 0.83933 0.0
H506 H 0.45955 0.19733 0.87239 0.0
C507 C 0.50769 0.27591 0.83914 0.0
C508 C 0.52553 0.24743 0.85063 0.0
H509 H 0.459 0.29796 0.82993 0.0
H510 H 0.52098 0.29783 0.82961 0.0
C511 C 0.50756 0.21946 0.86287 0.0
C512 C 0.22264 0.97569 0.33545 0.0
C513 C 0.25213 0.95724 0.3424 0.0
H514 H 0.20012 0.0249 0.33053 0.0
C515 C 0.28206 0.97475 0.34953 0.0
H516 H 0.19923 0.96278 0.32987 0.0
C517 C 0.28256 0.00997 0.34993 0.0
C518 C 0.25315 0.02854 0.34319 0.0
H519 H 0.30521 0.96125 0.35498 0.0
H520 H 0.30608 0.02264 0.35566 0.0
C521 C 0.22315 0.01115 0.33583 0.0
C522 C 0.50791 0.70194 0.12987 0.0
C523 C 0.52528 0.73115 0.11956 0.0
H524 H 0.45956 0.67879 0.13815 0.0
C525 C 0.50686 0.75937 0.10858 0.0
H526 H 0.52158 0.67982 0.13841 0.0
C527 C 0.47185 0.75879 0.10843 0.0
C528 C 0.45429 0.72997 0.11925 0.0
H529 H 0.51947 0.78221 0.10031 0.0
H530 H 0.45854 0.7812 0.10004 0.0
C531 C 0.47254 0.70135 0.12972 0.0
C532 C 0.76455 0.97556 0.62981 0.0
C533 C 0.73537 0.95726 0.62147 0.0
H534 H 0.78676 0.02473 0.63627 0.0
C535 C 0.70596 0.9749 0.61265 0.0
H536 H 0.78757 0.96252 0.63666 0.0
C537 C 0.7055 0.01008 0.61242 0.0
C538 C 0.73445 0.02853 0.621 0.0
H539 H 0.68308 0.96153 0.60599 0.0
H540 H 0.68229 0.0228 0.6056 0.0
C541 C 0.76409 0.01105 0.62958 0.0
C542 C 0.21805 0.00815 0.63095 0.0
C543 C 0.24805 0.02574 0.62398 0.0
H544 H 0.19428 0.95957 0.63614 0.0
C545 C 0.2775 0.00738 0.61686 0.0
H546 H 0.19499 0.02175 0.63652 0.0
C547 C 0.27709 0.97219 0.61664 0.0
C548 C 0.24723 0.95446 0.62355 0.0
H549 H 0.30101 0.02019 0.61137 0.0
H550 H 0.30031 0.95888 0.611 0.0
C551 C 0.21764 0.97268 0.63074 0.0
C552 C 0.18543 0.27452 0.32447 0.0
C553 C 0.15937 0.27026 0.30122 0.0
H554 H 0.22373 0.25042 0.35362 0.0
C555 C 0.14918 0.23733 0.29251 0.0
H556 H 0.19378 0.29961 0.3316 0.0
C557 C 0.16618 0.20917 0.30521 0.0
C558 C 0.19383 0.21352 0.32657 0.0
H559 H 0.12901 0.23333 0.27473 0.0
H560 H 0.15877 0.18414 0.29694 0.0
C561 C 0.20264 0.24636 0.33692 0.0
C562 C 0.23683 0.69015 0.83109 0.0
C563 C 0.26924 0.68008 0.82083 0.0
H564 H 0.18358 0.6853 0.82376 0.0
C565 C 0.27255 0.65389 0.79744 0.0
H566 H 0.23357 0.71014 0.84932 0.0
C567 C 0.24391 0.63985 0.78266 0.0
C568 C 0.21155 0.65156 0.7913 0.0
H569 H 0.29723 0.64561 0.78916 0.0
H570 H 0.24718 0.62092 0.76338 0.0
C571 C 0.2082 0.67588 0.81656 0.0
C572 C 0.79626 0.71149 0.32289 0.0
C573 C 0.82174 0.71532 0.29892 0.0
H574 H 0.7591 0.73619 0.35298 0.0
C575 C 0.83221 0.74809 0.28988 0.0
H576 H 0.78773 0.68654 0.33032 0.0
C577 C 0.81597 0.77653 0.30297 0.0
C578 C 0.78881 0.77261 0.32505 0.0
H579 H 0.85197 0.75176 0.27156 0.0
H580 H 0.8235 0.80144 0.29443 0.0
C581 C 0.77981 0.73991 0.33573 0.0
C582 C 0.77325 0.30248 0.81621 0.0
C583 C 0.76977 0.32819 0.79233 0.0
H584 H 0.74803 0.2667 0.84754 0.0
C585 C 0.73739 0.34049 0.78467 0.0
H586 H 0.7979 0.29254 0.82258 0.0
C587 C 0.70883 0.32585 0.79908 0.0
C588 C 0.71224 0.29846 0.82109 0.0
H589 H 0.73402 0.36046 0.76643 0.0
H590 H 0.68412 0.33477 0.79162 0.0
C591 C 0.7447 0.28762 0.83036 0.0
C592 C 0.1973 0.7359 0.63134 0.0
C593 C 0.18788 0.7686 0.64167 0.0
H594 H 0.19043 0.6825 0.63773 0.0
C595 C 0.16087 0.77243 0.66395 0.0
H596 H 0.21791 0.73225 0.61396 0.0
C597 C 0.14531 0.74394 0.67768 0.0
C598 C 0.15631 0.71122 0.6691 0.0
H599 H 0.15303 0.79733 0.67223 0.0
H600 H 0.12572 0.74758 0.6962 0.0
C601 C 0.18151 0.70742 0.64483 0.0
C602 C 0.7447 0.69276 0.13785 0.0
C603 C 0.71234 0.68188 0.14739 0.0
H604 H 0.79792 0.6887 0.14594 0.0
C605 C 0.70918 0.65505 0.17009 0.0
H606 H 0.74785 0.71326 0.12015 0.0
C607 C 0.73785 0.64115 0.18499 0.0
C608 C 0.7701 0.65367 0.17715 0.0
H609 H 0.68454 0.64611 0.17778 0.0
H610 H 0.73464 0.62172 0.2038 0.0
C611 C 0.77338 0.67864 0.15249 0.0
C612 C 0.8178 0.21042 0.6636 0.0
C613 C 0.78976 0.21456 0.64269 0.0
H614 H 0.8544 0.23482 0.69451 0.0
C615 C 0.77975 0.2474 0.63339 0.0
H616 H 0.82611 0.1854 0.67105 0.0
C617 C 0.79613 0.27569 0.64654 0.0
C618 C 0.82251 0.27154 0.66946 0.0
H619 H 0.75835 0.25129 0.61704 0.0
H620 H 0.78683 0.3007 0.64028 0.0
C621 C 0.83394 0.23871 0.67702 0.0
C622 C 0.20569 0.3074 0.1544 0.0
C623 C 0.20874 0.33252 0.17892 0.0
H624 H 0.23154 0.2732 0.12188 0.0
C625 C 0.24081 0.34571 0.18633 0.0
H626 H 0.18128 0.29684 0.14817 0.0
C627 C 0.26959 0.33234 0.17113 0.0
C628 C 0.26671 0.30537 0.14858 0.0
H629 H 0.24383 0.36527 0.20502 0.0
H630 H 0.29413 0.34178 0.17849 0.0
C631 C 0.23447 0.29381 0.13947 0.0
C632 C 0.35162 0.19795 0.23675 0.0
C633 C 0.34023 0.18643 0.20554 0.0
H634 H 0.34769 0.19341 0.28987 0.0
C635 C 0.31946 0.15775 0.20406 0.0
H636 H 0.36794 0.21986 0.23858 0.0
C637 C 0.30781 0.14274 0.23339 0.0
C638 C 0.31696 0.15602 0.26463 0.0
H639 H 0.31048 0.1482 0.18035 0.0
H640 H 0.29015 0.12189 0.23156 0.0
C641 C 0.34016 0.18276 0.26611 0.0
C642 C 0.34739 0.79049 0.73213 0.0
C643 C 0.3349 0.80076 0.76337 0.0
H644 H 0.34334 0.79494 0.67904 0.0
C645 C 0.31132 0.82719 0.76493 0.0
H646 H 0.36583 0.77032 0.73024 0.0
C647 C 0.29834 0.84112 0.73562 0.0
C648 C 0.30896 0.82902 0.70433 0.0
H649 H 0.30137 0.83568 0.78867 0.0
H650 H 0.27876 0.86019 0.73748 0.0
C651 C 0.33461 0.80461 0.70281 0.0
C652 C 0.64245 0.80621 0.26536 0.0
C653 C 0.6668 0.83189 0.26376 0.0
H654 H 0.61313 0.77024 0.23802 0.0
C655 C 0.67669 0.84452 0.23245 0.0
H656 H 0.63432 0.79608 0.28916 0.0
C657 C 0.66448 0.82986 0.20319 0.0
C658 C 0.64241 0.80219 0.20482 0.0
H659 H 0.69525 0.86455 0.23053 0.0
H660 H 0.67396 0.83884 0.17943 0.0
C661 C 0.63043 0.79137 0.23608 0.0
C662 C 0.64283 0.17448 0.70422 0.0
C663 C 0.66894 0.15054 0.70523 0.0
H664 H 0.61152 0.20816 0.73228 0.0
C665 C 0.68006 0.13828 0.73628 0.0
H666 H 0.63367 0.18422 0.68064 0.0
C667 C 0.66728 0.15183 0.76586 0.0
C668 C 0.64339 0.17801 0.76477 0.0
H669 H 0.69998 0.11955 0.73774 0.0
H670 H 0.67774 0.1434 0.7894 0.0
C671 C 0.63023 0.18821 0.73379 0.0
C672 C 0.82062 0.77484 0.66546 0.0
C673 C 0.79329 0.77105 0.6436 0.0
H674 H 0.85613 0.74995 0.6973 0.0
C675 C 0.78357 0.73835 0.63362 0.0
H676 H 0.8287 0.79975 0.67346 0.0
C677 C 0.79942 0.70985 0.64701 0.0
C678 C 0.82502 0.71363 0.67084 0.0
H679 H 0.76271 0.73473 0.61655 0.0
H680 H 0.7903 0.68496 0.64016 0.0
C681 C 0.83626 0.74634 0.6791 0.0
C682 C 0.74478 0.29338 0.13812 0.0
C683 C 0.71247 0.30501 0.14699 0.0
H684 H 0.79795 0.29679 0.14677 0.0
C685 C 0.70942 0.33244 0.16899 0.0
H686 H 0.74785 0.27243 0.12095 0.0
C687 C 0.73811 0.34622 0.18392 0.0
C688 C 0.77026 0.33301 0.17678 0.0
H689 H 0.68482 0.34195 0.17615 0.0
H690 H 0.73496 0.36615 0.20223 0.0
C691 C 0.77348 0.3074 0.15277 0.0
C692 C 0.18342 0.27249 0.64681 0.0
C693 C 0.15741 0.26841 0.67018 0.0
H694 H 0.2211 0.24806 0.61712 0.0
C695 C 0.14651 0.23557 0.67841 0.0
H696 H 0.1923 0.2975 0.64002 0.0
C697 C 0.16285 0.20726 0.66519 0.0
C698 C 0.19054 0.21138 0.64379 0.0
H699 H 0.12635 0.23173 0.69626 0.0
H700 H 0.15497 0.18227 0.67315 0.0
C701 C 0.19998 0.24419 0.63384 0.0
C702 C 0.24203 0.63816 0.18616 0.0
C703 C 0.20976 0.6502 0.17767 0.0
H704 H 0.29535 0.64301 0.17896 0.0
C705 C 0.20649 0.67395 0.15186 0.0
H706 H 0.24523 0.61964 0.20585 0.0
C707 C 0.23517 0.68746 0.13669 0.0
C708 C 0.26753 0.67719 0.14686 0.0
H709 H 0.18194 0.68359 0.14475 0.0
H710 H 0.23202 0.70711 0.11808 0.0
C711 C 0.27071 0.65144 0.17074 0.0
C712 C 0.7925 0.27579 0.32201 0.0
C713 C 0.81882 0.27156 0.29899 0.0
H714 H 0.75412 0.25162 0.35099 0.0
C715 C 0.82927 0.23864 0.29047 0.0
H716 H 0.78394 0.30087 0.32899 0.0
C717 C 0.81235 0.21045 0.30316 0.0
C718 C 0.7845 0.21476 0.32432 0.0
H719 H 0.84964 0.23467 0.27287 0.0
H720 H 0.82001 0.18542 0.29508 0.0
C721 C 0.77537 0.2476 0.33445 0.0
C722 C 0.20637 0.30164 0.81685 0.0
C723 C 0.20971 0.32706 0.79266 0.0
H724 H 0.23181 0.26648 0.8487 0.0
C725 C 0.24199 0.33961 0.78502 0.0
H726 H 0.1818 0.29153 0.82323 0.0
C727 C 0.27063 0.32543 0.79972 0.0
C728 C 0.2674 0.29827 0.82202 0.0
H729 H 0.24524 0.35939 0.76656 0.0
H730 H 0.29528 0.33449 0.79224 0.0
C731 C 0.23501 0.28723 0.8313 0.0
C732 C 0.19899 0.73936 0.33607 0.0
C733 C 0.19029 0.77197 0.32487 0.0
H734 H 0.19094 0.68597 0.33119 0.0
C735 C 0.16345 0.77577 0.30241 0.0
H736 H 0.21945 0.73574 0.35362 0.0
C737 C 0.1473 0.74726 0.28945 0.0
C738 C 0.15752 0.71455 0.299 0.0
H739 H 0.15617 0.8006 0.29346 0.0
H740 H 0.12783 0.75081 0.27083 0.0
C741 C 0.18262 0.71087 0.32336 0.0
C742 C 0.73851 0.64384 0.78575 0.0
C743 C 0.7709 0.65603 0.79345 0.0
H744 H 0.68526 0.64969 0.79266 0.0
C745 C 0.77441 0.68158 0.81748 0.0
H746 H 0.73512 0.62398 0.76742 0.0
C747 C 0.74586 0.69645 0.83168 0.0
C748 C 0.71339 0.68577 0.82232 0.0
H749 H 0.79907 0.69141 0.8239 0.0
H750 H 0.74921 0.71729 0.84893 0.0
C751 C 0.70997 0.65849 0.8002 0.0
C752 C 0.68356 0.84623 0.73695 0.0
C753 C 0.67252 0.8343 0.70576 0.0
H754 H 0.68083 0.84084 0.79003 0.0
C755 C 0.64628 0.81055 0.70448 0.0
H756 H 0.70358 0.8648 0.73863 0.0
C757 C 0.6334 0.79675 0.7339 0.0
C758 C 0.64638 0.80669 0.76502 0.0
H759 H 0.63718 0.80105 0.68079 0.0
H760 H 0.61454 0.77699 0.73217 0.0
C761 C 0.67048 0.83262 0.76638 0.0
C762 C 0.67144 0.14211 0.23219 0.0
C763 C 0.66196 0.15533 0.26338 0.0
H764 H 0.66911 0.14757 0.17914 0.0
C765 C 0.63843 0.18183 0.26474 0.0
H766 H 0.68935 0.12144 0.23047 0.0
C767 C 0.62703 0.19692 0.23532 0.0
C768 C 0.6388 0.18554 0.20418 0.0
H769 H 0.63064 0.19243 0.28844 0.0
H770 H 0.61048 0.2187 0.23706 0.0
C771 C 0.65985 0.15702 0.2028 0.0
C772 C 0.33745 0.17426 0.70546 0.0
C773 C 0.31188 0.14978 0.70669 0.0
H774 H 0.36807 0.20874 0.73323 0.0
C775 C 0.30105 0.13754 0.73785 0.0
H776 H 0.34636 0.18402 0.6818 0.0
C777 C 0.31358 0.15153 0.76731 0.0
C778 C 0.33692 0.17815 0.76601 0.0
H779 H 0.28154 0.11841 0.73949 0.0
H780 H 0.30336 0.14302 0.79094 0.0
C781 C 0.34979 0.18844 0.73492 0.0
C782 C 0.30154 0.84104 0.23045 0.0
C783 C 0.31178 0.82901 0.26187 0.0
H784 H 0.30387 0.83448 0.1775 0.0
C785 C 0.33617 0.80334 0.26365 0.0
H786 H 0.28292 0.86103 0.22838 0.0
C787 C 0.34797 0.78801 0.2345 0.0
C788 C 0.33576 0.79833 0.20317 0.0
H789 H 0.34455 0.79365 0.28753 0.0
H790 H 0.3654 0.76697 0.23662 0.0
C791 C 0.31354 0.8259 0.20131 0.0
loop_
_geom_bond_atom_site_label_1
_geom_bond_atom_site_label_2
_geom_bond_distance
_geom_bond_site_symmetry_2
_ccdc_geom_bond_type
In0 O1 2.294 . S
In0 O2 2.326 . S
In0 O6 2.266 . S
In0 O7 2.326 . S
In0 O8 2.266 . S
In0 O9 2.326 . S
In0 O11 2.294 . S
In0 O12 2.326 . S
O1 In0 2.294 . S
O1 C10 1.240 . S
O2 In0 2.326 . S
O2 C10 1.252 . S
C3 O6 1.252 . S
C3 O7 1.260 . S
C4 O11 1.240 . S
C4 O12 1.252 . S
C5 O8 1.252 . S
C5 O9 1.260 . S
O6 In0 2.266 . S
O6 C3 1.252 . S
O7 In0 2.326 . S
O7 C3 1.260 . S
O8 In0 2.266 . S
O8 C5 1.252 . S
O9 In0 2.326 . S
O9 C5 1.260 . S
C10 O1 1.240 . S
C10 O2 1.252 . S
O11 In0 2.294 . S
O11 C4 1.240 . S
O12 In0 2.326 . S
O12 C4 1.252 . S
In13 O14 2.294 . S
In13 O15 2.326 . S
In13 O19 2.266 . S
In13 O20 2.326 . S
In13 O21 2.266 . S
In13 O22 2.326 . S
In13 O24 2.294 . S
In13 O25 2.326 . S
O14 In13 2.294 . S
O14 C23 1.240 . S
O15 In13 2.326 . S
O15 C23 1.252 . S
C16 O19 1.252 . S
C16 O20 1.260 . S
C17 O24 1.240 . S
C17 O25 1.252 . S
C18 O21 1.252 . S
C18 O22 1.260 . S
O19 In13 2.266 . S
O19 C16 1.252 . S
O20 In13 2.326 . S
O20 C16 1.260 . S
O21 In13 2.266 . S
O21 C18 1.252 . S
O22 In13 2.326 . S
O22 C18 1.260 . S
C23 O14 1.240 . S
C23 O15 1.252 . S
O24 In13 2.294 . S
O24 C17 1.240 . S
O25 In13 2.326 . S
O25 C17 1.252 . S
In26 O27 2.294 . S
In26 O28 2.326 . S
In26 O32 2.266 . S
In26 O33 2.326 . S
In26 O34 2.266 . S
In26 O35 2.326 . S
In26 O37 2.294 . S
In26 O38 2.326 . S
O27 In26 2.294 . S
O27 C36 1.240 . S
O28 In26 2.326 . S
O28 C36 1.252 . S
C29 O32 1.252 . S
C29 O33 1.260 . S
C30 O37 1.240 . S
C30 O38 1.252 . S
C31 O34 1.252 . S
C31 O35 1.260 . S
O32 In26 2.266 . S
O32 C29 1.252 . S
O33 In26 2.326 . S
O33 C29 1.260 . S
O34 In26 2.266 . S
O34 C31 1.252 . S
O35 In26 2.326 . S
O35 C31 1.260 . S
C36 O27 1.240 . S
C36 O28 1.252 . S
O37 In26 2.294 . S
O37 C30 1.240 . S
O38 In26 2.326 . S
O38 C30 1.252 . S
In39 O40 2.294 . S
In39 O41 2.326 . S
In39 O45 2.266 . S
In39 O46 2.326 . S
In39 O47 2.266 . S
In39 O48 2.326 . S
In39 O50 2.294 . S
In39 O51 2.326 . S
O40 In39 2.294 . S
O40 C49 1.240 . S
O41 In39 2.326 . S
O41 C49 1.252 . S
C42 O45 1.252 . S
C42 O46 1.260 . S
C43 O50 1.240 . S
C43 O51 1.252 . S
C44 O47 1.252 . S
C44 O48 1.260 . S
O45 In39 2.266 . S
O45 C42 1.252 . S
O46 In39 2.326 . S
O46 C42 1.260 . S
O47 In39 2.266 . S
O47 C44 1.252 . S
O48 In39 2.326 . S
O48 C44 1.260 . S
C49 O40 1.240 . S
C49 O41 1.252 . S
O50 In39 2.294 . S
O50 C43 1.240 . S
O51 In39 2.326 . S
O51 C43 1.252 . S
In52 O53 2.294 . S
In52 O54 2.326 . S
In52 O58 2.266 . S
In52 O59 2.326 . S
In52 O60 2.266 . S
In52 O61 2.326 . S
In52 O63 2.294 . S
In52 O64 2.326 . S
O53 In52 2.294 . S
O53 C62 1.240 . S
O54 In52 2.326 . S
O54 C62 1.252 . S
C55 O58 1.252 . S
C55 O59 1.260 . S
C56 O63 1.240 . S
C56 O64 1.252 . S
C57 O60 1.252 . S
C57 O61 1.260 . S
O58 In52 2.266 . S
O58 C55 1.252 . S
O59 In52 2.326 . S
O59 C55 1.260 . S
O60 In52 2.266 . S
O60 C57 1.252 . S
O61 In52 2.326 . S
O61 C57 1.260 . S
C62 O53 1.240 . S
C62 O54 1.252 . S
O63 In52 2.294 . S
O63 C56 1.240 . S
O64 In52 2.326 . S
O64 C56 1.252 . S
In65 O66 2.294 . S
In65 O67 2.326 . S
In65 O71 2.266 . S
In65 O72 2.326 . S
In65 O73 2.266 . S
In65 O74 2.326 . S
In65 O76 2.294 . S
In65 O77 2.326 . S
O66 In65 2.294 . S
O66 C75 1.240 . S
O67 In65 2.326 . S
O67 C75 1.252 . S
C68 O71 1.252 . S
C68 O72 1.260 . S
C69 O76 1.240 . S
C69 O77 1.252 . S
C70 O73 1.252 . S
C70 O74 1.260 . S
O71 In65 2.266 . S
O71 C68 1.252 . S
O72 In65 2.326 . S
O72 C68 1.260 . S
O73 In65 2.266 . S
O73 C70 1.252 . S
O74 In65 2.326 . S
O74 C70 1.260 . S
C75 O66 1.240 . S
C75 O67 1.252 . S
O76 In65 2.294 . S
O76 C69 1.240 . S
O77 In65 2.326 . S
O77 C69 1.252 . S
In78 O79 2.294 . S
In78 O80 2.326 . S
In78 O84 2.266 . S
In78 O85 2.326 . S
In78 O86 2.266 . S
In78 O87 2.326 . S
In78 O89 2.294 . S
In78 O90 2.326 . S
O79 In78 2.294 . S
O79 C88 1.240 . S
O80 In78 2.326 . S
O80 C88 1.252 . S
C81 O84 1.252 . S
C81 O85 1.260 . S
C82 O89 1.240 . S
C82 O90 1.252 . S
C83 O86 1.252 . S
C83 O87 1.260 . S
O84 In78 2.266 . S
O84 C81 1.252 . S
O85 In78 2.326 . S
O85 C81 1.260 . S
O86 In78 2.266 . S
O86 C83 1.252 . S
O87 In78 2.326 . S
O87 C83 1.260 . S
C88 O79 1.240 . S
C88 O80 1.252 . S
O89 In78 2.294 . S
O89 C82 1.240 . S
O90 In78 2.326 . S
O90 C82 1.252 . S
In91 O92 2.294 . S
In91 O93 2.326 . S
In91 O97 2.266 . S
In91 O98 2.326 . S
In91 O99 2.266 . S
In91 O100 2.326 . S
In91 O102 2.294 . S
In91 O103 2.326 . S
O92 In91 2.294 . S
O92 C101 1.240 . S
O93 In91 2.326 . S
O93 C101 1.252 . S
C94 O97 1.252 . S
C94 O98 1.260 . S
C95 O102 1.240 . S
C95 O103 1.252 . S
C96 O99 1.252 . S
C96 O100 1.260 . S
O97 In91 2.266 . S
O97 C94 1.252 . S
O98 In91 2.326 . S
O98 C94 1.260 . S
O99 In91 2.266 . S
O99 C96 1.252 . S
O100 In91 2.326 . S
O100 C96 1.260 . S
C101 O92 1.240 . S
C101 O93 1.252 . S
O102 In91 2.294 . S
O102 C95 1.240 . S
O103 In91 2.326 . S
O103 C95 1.252 . S
In104 O105 2.294 . S
In104 O106 2.326 . S
In104 O110 2.266 . S
In104 O111 2.326 . S
In104 O112 2.266 . S
In104 O113 2.326 . S
In104 O115 2.294 . S
In104 O116 2.326 . S
O105 In104 2.294 . S
O105 C114 1.240 . S
O106 In104 2.326 . S
O106 C114 1.252 . S
C107 O110 1.252 . S
C107 O111 1.260 . S
C108 O115 1.240 . S
C108 O116 1.252 . S
C109 O112 1.252 . S
C109 O113 1.260 . S
O110 In104 2.266 . S
O110 C107 1.252 . S
O111 In104 2.326 . S
O111 C107 1.260 . S
O112 In104 2.266 . S
O112 C109 1.252 . S
O113 In104 2.326 . S
O113 C109 1.260 . S
C114 O105 1.240 . S
C114 O106 1.252 . S
O115 In104 2.294 . S
O115 C108 1.240 . S
O116 In104 2.326 . S
O116 C108 1.252 . S
In117 O118 2.294 . S
In117 O119 2.326 . S
In117 O123 2.266 . S
In117 O124 2.326 . S
In117 O125 2.266 . S
In117 O126 2.326 . S
In117 O128 2.294 . S
In117 O129 2.326 . S
O118 In117 2.294 . S
O118 C127 1.240 . S
O119 In117 2.326 . S
O119 C127 1.252 . S
C120 O123 1.252 . S
C120 O124 1.260 . S
C121 O128 1.240 . S
C121 O129 1.252 . S
C122 O125 1.252 . S
C122 O126 1.260 . S
O123 In117 2.266 . S
O123 C120 1.252 . S
O124 In117 2.326 . S
O124 C120 1.260 . S
O125 In117 2.266 . S
O125 C122 1.252 . S
O126 In117 2.326 . S
O126 C122 1.260 . S
C127 O118 1.240 . S
C127 O119 1.252 . S
O128 In117 2.294 . S
O128 C121 1.240 . S
O129 In117 2.326 . S
O129 C121 1.252 . S
In130 O131 2.294 . S
In130 O132 2.326 . S
In130 O136 2.266 . S
In130 O137 2.326 . S
In130 O138 2.266 . S
In130 O139 2.326 . S
In130 O141 2.294 . S
In130 O142 2.326 . S
O131 In130 2.294 . S
O131 C140 1.240 . S
O132 In130 2.326 . S
O132 C140 1.252 . S
C133 O136 1.252 . S
C133 O137 1.260 . S
C134 O141 1.240 . S
C134 O142 1.252 . S
C135 O138 1.252 . S
C135 O139 1.260 . S
O136 In130 2.266 . S
O136 C133 1.252 . S
O137 In130 2.326 . S
O137 C133 1.260 . S
O138 In130 2.266 . S
O138 C135 1.252 . S
O139 In130 2.326 . S
O139 C135 1.260 . S
C140 O131 1.240 . S
C140 O132 1.252 . S
O141 In130 2.294 . S
O141 C134 1.240 . S
O142 In130 2.326 . S
O142 C134 1.252 . S
In143 O144 2.294 . S
In143 O145 2.326 . S
In143 O149 2.266 . S
In143 O150 2.326 . S
In143 O151 2.266 . S
In143 O152 2.326 . S
In143 O154 2.294 . S
In143 O155 2.326 . S
O144 In143 2.294 . S
O144 C153 1.240 . S
O145 In143 2.326 . S
O145 C153 1.252 . S
C146 O149 1.252 . S
C146 O150 1.260 . S
C147 O154 1.240 . S
C147 O155 1.252 . S
C148 O151 1.252 . S
C148 O152 1.260 . S
O149 In143 2.266 . S
O149 C146 1.252 . S
O150 In143 2.326 . S
O150 C146 1.260 . S
O151 In143 2.266 . S
O151 C148 1.252 . S
O152 In143 2.326 . S
O152 C148 1.260 . S
C153 O144 1.240 . S
C153 O145 1.252 . S
O154 In143 2.294 . S
O154 C147 1.240 . S
O155 In143 2.326 . S
O155 C147 1.252 . S
In156 O157 2.294 . S
In156 O158 2.326 . S
In156 O162 2.266 . S
In156 O163 2.326 . S
In156 O164 2.266 . S
In156 O165 2.326 . S
In156 O167 2.294 . S
In156 O168 2.326 . S
O157 In156 2.294 . S
O157 C166 1.240 . S
O158 In156 2.326 . S
O158 C166 1.252 . S
C159 O162 1.252 . S
C159 O163 1.260 . S
C160 O167 1.240 . S
C160 O168 1.252 . S
C161 O164 1.252 . S
C161 O165 1.260 . S
O162 In156 2.266 . S
O162 C159 1.252 . S
O163 In156 2.326 . S
O163 C159 1.260 . S
O164 In156 2.266 . S
O164 C161 1.252 . S
O165 In156 2.326 . S
O165 C161 1.260 . S
C166 O157 1.240 . S
C166 O158 1.252 . S
O167 In156 2.294 . S
O167 C160 1.240 . S
O168 In156 2.326 . S
O168 C160 1.252 . S
In169 O170 2.294 . S
In169 O171 2.326 . S
In169 O175 2.266 . S
In169 O176 2.326 . S
In169 O177 2.266 . S
In169 O178 2.326 . S
In169 O180 2.294 . S
In169 O181 2.326 . S
O170 In169 2.294 . S
O170 C179 1.240 . S
O171 In169 2.326 . S
O171 C179 1.252 . S
C172 O175 1.252 . S
C172 O176 1.260 . S
C173 O180 1.240 . S
C173 O181 1.252 . S
C174 O177 1.252 . S
C174 O178 1.260 . S
O175 In169 2.266 . S
O175 C172 1.252 . S
O176 In169 2.326 . S
O176 C172 1.260 . S
O177 In169 2.266 . S
O177 C174 1.252 . S
O178 In169 2.326 . S
O178 C174 1.260 . S
C179 O170 1.240 . S
C179 O171 1.252 . S
O180 In169 2.294 . S
O180 C173 1.240 . S
O181 In169 2.326 . S
O181 C173 1.252 . S
In182 O183 2.294 . S
In182 O184 2.326 . S
In182 O188 2.266 . S
In182 O189 2.326 . S
In182 O190 2.266 . S
In182 O191 2.326 . S
In182 O193 2.294 . S
In182 O194 2.326 . S
O183 In182 2.294 . S
O183 C192 1.240 . S
O184 In182 2.326 . S
O184 C192 1.252 . S
C185 O188 1.252 . S
C185 O189 1.260 . S
C186 O193 1.240 . S
C186 O194 1.252 . S
C187 O190 1.252 . S
C187 O191 1.260 . S
O188 In182 2.266 . S
O188 C185 1.252 . S
O189 In182 2.326 . S
O189 C185 1.260 . S
O190 In182 2.266 . S
O190 C187 1.252 . S
O191 In182 2.326 . S
O191 C187 1.260 . S
C192 O183 1.240 . S
C192 O184 1.252 . S
O193 In182 2.294 . S
O193 C186 1.240 . S
O194 In182 2.326 . S
O194 C186 1.252 . S
In195 O196 2.294 . S
In195 O197 2.326 . S
In195 O201 2.266 . S
In195 O202 2.326 . S
In195 O203 2.266 . S
In195 O204 2.326 . S
In195 O206 2.294 . S
In195 O207 2.326 . S
O196 In195 2.294 . S
O196 C205 1.240 . S
O197 In195 2.326 . S
O197 C205 1.252 . S
C198 O201 1.252 . S
C198 O202 1.260 . S
C199 O206 1.240 . S
C199 O207 1.252 . S
C200 O203 1.252 . S
C200 O204 1.260 . S
O201 In195 2.266 . S
O201 C198 1.252 . S
O202 In195 2.326 . S
O202 C198 1.260 . S
O203 In195 2.266 . S
O203 C200 1.252 . S
O204 In195 2.326 . S
O204 C200 1.260 . S
C205 O196 1.240 . S
C205 O197 1.252 . S
O206 In195 2.294 . S
O206 C199 1.240 . S
O207 In195 2.326 . S
O207 C199 1.252 . S
In208 O209 2.294 . S
In208 O210 2.326 . S
In208 O214 2.266 . S
In208 O215 2.326 . S
In208 O216 2.266 . S
In208 O217 2.326 . S
In208 O219 2.294 . S
In208 O220 2.326 . S
O209 In208 2.294 . S
O209 C218 1.240 . S
O210 In208 2.326 . S
O210 C218 1.252 . S
C211 O214 1.252 . S
C211 O215 1.260 . S
C212 O219 1.240 . S
C212 O220 1.252 . S
C213 O216 1.252 . S
C213 O217 1.260 . S
O214 In208 2.266 . S
O214 C211 1.252 . S
O215 In208 2.326 . S
O215 C211 1.260 . S
O216 In208 2.266 . S
O216 C213 1.252 . S
O217 In208 2.326 . S
O217 C213 1.260 . S
C218 O209 1.240 . S
C218 O210 1.252 . S
O219 In208 2.294 . S
O219 C212 1.240 . S
O220 In208 2.326 . S
O220 C212 1.252 . S
In221 O222 2.294 . S
In221 O223 2.326 . S
In221 O227 2.266 . S
In221 O228 2.326 . S
In221 O229 2.266 . S
In221 O230 2.326 . S
In221 O232 2.294 . S
In221 O233 2.326 . S
O222 In221 2.294 . S
O222 C231 1.240 . S
O223 In221 2.326 . S
O223 C231 1.252 . S
C224 O227 1.252 . S
C224 O228 1.260 . S
C225 O232 1.240 . S
C225 O233 1.252 . S
C226 O229 1.252 . S
C226 O230 1.260 . S
O227 In221 2.266 . S
O227 C224 1.252 . S
O228 In221 2.326 . S
O228 C224 1.260 . S
O229 In221 2.266 . S
O229 C226 1.252 . S
O230 In221 2.326 . S
O230 C226 1.260 . S
C231 O222 1.240 . S
C231 O223 1.252 . S
O232 In221 2.294 . S
O232 C225 1.240 . S
O233 In221 2.326 . S
O233 C225 1.252 . S
In234 O235 2.294 . S
In234 O236 2.326 . S
In234 O240 2.266 . S
In234 O241 2.326 . S
In234 O242 2.266 . S
In234 O243 2.326 . S
In234 O245 2.294 . S
In234 O246 2.326 . S
O235 In234 2.294 . S
O235 C244 1.240 . S
O236 In234 2.326 . S
O236 C244 1.252 . S
C237 O240 1.252 . S
C237 O241 1.260 . S
C238 O245 1.240 . S
C238 O246 1.252 . S
C239 O242 1.252 . S
C239 O243 1.260 . S
O240 In234 2.266 . S
O240 C237 1.252 . S
O241 In234 2.326 . S
O241 C237 1.260 . S
O242 In234 2.266 . S
O242 C239 1.252 . S
O243 In234 2.326 . S
O243 C239 1.260 . S
C244 O235 1.240 . S
C244 O236 1.252 . S
O245 In234 2.294 . S
O245 C238 1.240 . S
O246 In234 2.326 . S
O246 C238 1.252 . S
In247 O248 2.294 . S
In247 O249 2.326 . S
In247 O253 2.266 . S
In247 O254 2.326 . S
In247 O255 2.266 . S
In247 O256 2.326 . S
In247 O258 2.294 . S
In247 O259 2.326 . S
O248 In247 2.294 . S
O248 C257 1.240 . S
O249 In247 2.326 . S
O249 C257 1.252 . S
C250 O253 1.252 . S
C250 O254 1.260 . S
C251 O258 1.240 . S
C251 O259 1.252 . S
C252 O255 1.252 . S
C252 O256 1.260 . S
O253 In247 2.266 . S
O253 C250 1.252 . S
O254 In247 2.326 . S
O254 C250 1.260 . S
O255 In247 2.266 . S
O255 C252 1.252 . S
O256 In247 2.326 . S
O256 C252 1.260 . S
C257 O248 1.240 . S
C257 O249 1.252 . S
O258 In247 2.294 . S
O258 C251 1.240 . S
O259 In247 2.326 . S
O259 C251 1.252 . S
In260 O261 2.294 . S
In260 O262 2.326 . S
In260 O266 2.266 . S
In260 O267 2.326 . S
In260 O268 2.266 . S
In260 O269 2.326 . S
In260 O271 2.294 . S
In260 O272 2.326 . S
O261 In260 2.294 . S
O261 C270 1.240 . S
O262 In260 2.326 . S
O262 C270 1.252 . S
C263 O266 1.252 . S
C263 O267 1.260 . S
C264 O271 1.240 . S
C264 O272 1.252 . S
C265 O268 1.252 . S
C265 O269 1.260 . S
O266 In260 2.266 . S
O266 C263 1.252 . S
O267 In260 2.326 . S
O267 C263 1.260 . S
O268 In260 2.266 . S
O268 C265 1.252 . S
O269 In260 2.326 . S
O269 C265 1.260 . S
C270 O261 1.240 . S
C270 O262 1.252 . S
O271 In260 2.294 . S
O271 C264 1.240 . S
O272 In260 2.326 . S
O272 C264 1.252 . S
In273 O274 2.294 . S
In273 O275 2.326 . S
In273 O279 2.266 . S
In273 O280 2.326 . S
In273 O281 2.266 . S
In273 O282 2.326 . S
In273 O284 2.294 . S
In273 O285 2.326 . S
O274 In273 2.294 . S
O274 C283 1.240 . S
O275 In273 2.326 . S
O275 C283 1.252 . S
C276 O279 1.252 . S
C276 O280 1.260 . S
C277 O284 1.240 . S
C277 O285 1.252 . S
C278 O281 1.252 . S
C278 O282 1.260 . S
O279 In273 2.266 . S
O279 C276 1.252 . S
O280 In273 2.326 . S
O280 C276 1.260 . S
O281 In273 2.266 . S
O281 C278 1.252 . S
O282 In273 2.326 . S
O282 C278 1.260 . S
C283 O274 1.240 . S
C283 O275 1.252 . S
O284 In273 2.294 . S
O284 C277 1.240 . S
O285 In273 2.326 . S
O285 C277 1.252 . S
In286 O287 2.294 . S
In286 O288 2.326 . S
In286 O292 2.266 . S
In286 O293 2.326 . S
In286 O294 2.266 . S
In286 O295 2.326 . S
In286 O297 2.294 . S
In286 O298 2.326 . S
O287 In286 2.294 . S
O287 C296 1.240 . S
O288 In286 2.326 . S
O288 C296 1.252 . S
C289 O292 1.252 . S
C289 O293 1.260 . S
C290 O297 1.240 . S
C290 O298 1.252 . S
C291 O294 1.252 . S
C291 O295 1.260 . S
O292 In286 2.266 . S
O292 C289 1.252 . S
O293 In286 2.326 . S
O293 C289 1.260 . S
O294 In286 2.266 . S
O294 C291 1.252 . S
O295 In286 2.326 . S
O295 C291 1.260 . S
C296 O287 1.240 . S
C296 O288 1.252 . S
O297 In286 2.294 . S
O297 C290 1.240 . S
O298 In286 2.326 . S
O298 C290 1.252 . S
In299 O300 2.294 . S
In299 O301 2.326 . S
In299 O305 2.266 . S
In299 O306 2.326 . S
In299 O307 2.266 . S
In299 O308 2.326 . S
In299 O310 2.294 . S
In299 O311 2.326 . S
O300 In299 2.294 . S
O300 C309 1.240 . S
O301 In299 2.326 . S
O301 C309 1.252 . S
C302 O305 1.252 . S
C302 O306 1.260 . S
C303 O310 1.240 . S
C303 O311 1.252 . S
C304 O307 1.252 . S
C304 O308 1.260 . S
O305 In299 2.266 . S
O305 C302 1.252 . S
O306 In299 2.326 . S
O306 C302 1.260 . S
O307 In299 2.266 . S
O307 C304 1.252 . S
O308 In299 2.326 . S
O308 C304 1.260 . S
C309 O300 1.240 . S
C309 O301 1.252 . S
O310 In299 2.294 . S
O310 C303 1.240 . S
O311 In299 2.326 . S
O311 C303 1.252 . S
C312 C313 1.387 . S
C312 H316 0.950 . S
C312 C321 1.390 . S
C313 C312 1.387 . S
C313 C315 1.387 . S
H314 C321 0.950 . S
C315 C313 1.387 . S
C315 C317 1.390 . S
C315 H319 0.950 . S
H316 C312 0.950 . S
C317 C315 1.390 . S
C317 C318 1.387 . S
C317 H320 0.950 . S
C318 C317 1.387 . S
C318 C321 1.387 . S
H319 C315 0.950 . S
H320 C317 0.950 . S
C321 C312 1.390 . S
C321 H314 0.950 . S
C321 C318 1.387 . S
C322 C323 1.387 . S
C322 H326 0.950 . S
C322 C331 1.390 1_655 S
C323 C322 1.387 . S
C323 C325 1.387 . S
H324 C331 0.950 . S
C325 C323 1.387 . S
C325 C327 1.390 1_655 S
C325 H329 0.950 . S
H326 C322 0.950 . S
C327 C325 1.390 1_455 S
C327 C328 1.387 . S
C327 H330 0.950 . S
C328 C327 1.387 . S
C328 C331 1.387 . S
H329 C325 0.950 . S
H330 C327 0.950 . S
C331 C322 1.390 1_455 S
C331 H324 0.950 . S
C331 C328 1.387 . S
C332 C333 1.387 . S
C332 H336 0.950 . S
C332 C341 1.390 . S
C333 C332 1.387 . S
C333 C335 1.387 . S
H334 C341 0.950 . S
C335 C333 1.387 . S
C335 C337 1.390 . S
C335 H339 0.950 . S
H336 C332 0.950 . S
C337 C335 1.390 . S
C337 C338 1.387 . S
C337 H340 0.950 . S
C338 C337 1.387 . S
C338 C341 1.387 . S
H339 C335 0.950 . S
H340 C337 0.950 . S
C341 C332 1.390 . S
C341 H334 0.950 . S
C341 C338 1.387 . S
C342 C343 1.387 . S
C342 H346 0.950 . S
C342 C351 1.390 1_455 S
C343 C342 1.387 . S
C343 C345 1.387 . S
H344 C351 0.950 . S
C345 C343 1.387 . S
C345 C347 1.390 1_455 S
C345 H349 0.950 . S
H346 C342 0.950 . S
C347 C345 1.390 1_655 S
C347 C348 1.387 . S
C347 H350 0.950 . S
C348 C347 1.387 . S
C348 C351 1.387 . S
H349 C345 0.950 . S
H350 C347 0.950 . S
C351 C342 1.390 1_655 S
C351 H344 0.950 . S
C351 C348 1.387 . S
C352 C353 1.387 . S
C352 H356 0.950 . S
C352 C361 1.390 . S
C353 C352 1.387 . S
C353 C355 1.387 . S
H354 C361 0.950 . S
C355 C353 1.387 . S
C355 C357 1.390 . S
C355 H359 0.950 . S
H356 C352 0.950 . S
C357 C355 1.390 . S
C357 C358 1.387 . S
C357 H360 0.950 . S
C358 C357 1.387 . S
C358 C361 1.387 . S
H359 C355 0.950 . S
H360 C357 0.950 . S
C361 C352 1.390 . S
C361 H354 0.950 . S
C361 C358 1.387 . S
C362 C363 1.387 . S
C362 H366 0.950 . S
C362 C371 1.390 1_655 S
C363 C362 1.387 . S
C363 C365 1.387 . S
H364 C371 0.950 . S
C365 C363 1.387 . S
C365 C367 1.390 1_655 S
C365 H369 0.950 . S
H366 C362 0.950 . S
C367 C365 1.390 1_455 S
C367 C368 1.387 . S
C367 H370 0.950 . S
C368 C367 1.387 . S
C368 C371 1.387 . S
H369 C365 0.950 . S
H370 C367 0.950 . S
C371 C362 1.390 1_455 S
C371 H364 0.950 . S
C371 C368 1.387 . S
C372 C373 1.387 . S
C372 H376 0.950 . S
C372 C381 1.390 . S
C373 C372 1.387 . S
C373 C375 1.387 . S
H374 C381 0.950 . S
C375 C373 1.387 . S
C375 C377 1.390 . S
C375 H379 0.950 . S
H376 C372 0.950 . S
C377 C375 1.390 . S
C377 C378 1.387 . S
C377 H380 0.950 . S
C378 C377 1.387 . S
C378 C381 1.387 . S
H379 C375 0.950 . S
H380 C377 0.950 . S
C381 C372 1.390 . S
C381 H374 0.950 . S
C381 C378 1.387 . S
C382 C383 1.387 . S
C382 H386 0.950 . S
C382 C391 1.390 1_655 S
C383 C382 1.387 . S
C383 C385 1.387 . S
H384 C391 0.950 . S
C385 C383 1.387 . S
C385 C387 1.390 1_655 S
C385 H389 0.950 . S
H386 C382 0.950 . S
C387 C385 1.390 1_455 S
C387 C388 1.387 . S
C387 H390 0.950 . S
C388 C387 1.387 . S
C388 C391 1.387 . S
H389 C385 0.950 . S
H390 C387 0.950 . S
C391 C382 1.390 1_455 S
C391 H384 0.950 . S
C391 C388 1.387 . S
C392 C393 1.387 . S
C392 H396 0.950 . S
C392 C401 1.390 . S
C393 C392 1.387 . S
C393 C395 1.387 . S
H394 C401 0.950 . S
C395 C393 1.387 . S
C395 C397 1.390 . S
C395 H399 0.950 . S
H396 C392 0.950 . S
C397 C395 1.390 . S
C397 C398 1.387 . S
C397 H400 0.950 . S
C398 C397 1.387 . S
C398 C401 1.387 . S
H399 C395 0.950 . S
H400 C397 0.950 . S
C401 C392 1.390 . S
C401 H394 0.950 . S
C401 C398 1.387 . S
C402 C403 1.387 . S
C402 H406 0.950 . S
C402 C411 1.390 1_556 S
C403 C402 1.387 . S
C403 C405 1.387 . S
H404 C411 0.950 . S
C405 C403 1.387 . S
C405 C407 1.390 1_556 S
C405 H409 0.950 . S
H406 C402 0.950 . S
C407 C405 1.390 1_554 S
C407 C408 1.387 . S
C407 H410 0.950 . S
C408 C407 1.387 . S
C408 C411 1.387 . S
H409 C405 0.950 . S
H410 C407 0.950 . S
C411 C402 1.390 1_554 S
C411 H404 0.950 . S
C411 C408 1.387 . S
C412 C413 1.387 . S
C412 H416 0.950 . S
C412 C421 1.390 . S
C413 C412 1.387 . S
C413 C415 1.387 . S
H414 C421 0.950 . S
C415 C413 1.387 . S
C415 C417 1.390 . S
C415 H419 0.950 . S
H416 C412 0.950 . S
C417 C415 1.390 . S
C417 C418 1.387 . S
C417 H420 0.950 . S
C418 C417 1.387 . S
C418 C421 1.387 . S
H419 C415 0.950 . S
H420 C417 0.950 . S
C421 C412 1.390 . S
C421 H414 0.950 . S
C421 C418 1.387 . S
C422 C423 1.387 . S
C422 H426 0.950 . S
C422 C431 1.390 1_554 S
C423 C422 1.387 . S
C423 C425 1.387 . S
H424 C431 0.950 . S
C425 C423 1.387 . S
C425 C427 1.390 1_554 S
C425 H429 0.950 . S
H426 C422 0.950 . S
C427 C425 1.390 1_556 S
C427 C428 1.387 . S
C427 H430 0.950 . S
C428 C427 1.387 . S
C428 C431 1.387 . S
H429 C425 0.950 . S
H430 C427 0.950 . S
C431 C422 1.390 1_556 S
C431 H424 0.950 . S
C431 C428 1.387 . S
C432 C433 1.387 . S
C432 H436 0.950 . S
C432 C441 1.390 . S
C433 C432 1.387 . S
C433 C435 1.387 . S
H434 C441 0.950 . S
C435 C433 1.387 . S
C435 C437 1.390 . S
C435 H439 0.950 . S
H436 C432 0.950 . S
C437 C435 1.390 . S
C437 C438 1.387 . S
C437 H440 0.950 . S
C438 C437 1.387 . S
C438 C441 1.387 . S
H439 C435 0.950 . S
H440 C437 0.950 . S
C441 C432 1.390 . S
C441 H434 0.950 . S
C441 C438 1.387 . S
C442 C443 1.387 . S
C442 H446 0.950 . S
C442 C451 1.390 1_554 S
C443 C442 1.387 . S
C443 C445 1.387 . S
H444 C451 0.950 . S
C445 C443 1.387 . S
C445 C447 1.390 1_554 S
C445 H449 0.950 . S
H446 C442 0.950 . S
C447 C445 1.390 1_556 S
C447 C448 1.387 . S
C447 H450 0.950 . S
C448 C447 1.387 . S
C448 C451 1.387 . S
H449 C445 0.950 . S
H450 C447 0.950 . S
C451 C442 1.390 1_556 S
C451 H444 0.950 . S
C451 C448 1.387 . S
C452 C453 1.387 . S
C452 H456 0.950 . S
C452 C461 1.390 . S
C453 C452 1.387 . S
C453 C455 1.387 . S
H454 C461 0.950 . S
C455 C453 1.387 . S
C455 C457 1.390 . S
C455 H459 0.950 . S
H456 C452 0.950 . S
C457 C455 1.390 . S
C457 C458 1.387 . S
C457 H460 0.950 . S
C458 C457 1.387 . S
C458 C461 1.387 . S
H459 C455 0.950 . S
H460 C457 0.950 . S
C461 C452 1.390 . S
C461 H454 0.950 . S
C461 C458 1.387 . S
C462 C463 1.387 . S
C462 H466 0.950 . S
C462 C471 1.390 1_554 S
C463 C462 1.387 . S
C463 C465 1.387 . S
H464 C471 0.950 . S
C465 C463 1.387 . S
C465 C467 1.390 1_554 S
C465 H469 0.950 . S
H466 C462 0.950 . S
C467 C465 1.390 1_556 S
C467 C468 1.387 . S
C467 H470 0.950 . S
C468 C467 1.387 . S
C468 C471 1.387 . S
H469 C465 0.950 . S
H470 C467 0.950 . S
C471 C462 1.390 1_556 S
C471 H464 0.950 . S
C471 C468 1.387 . S
C472 C473 1.387 . S
C472 H476 0.950 . S
C472 C481 1.390 . S
C473 C472 1.387 . S
C473 C475 1.387 . S
H474 C481 0.950 . S
C475 C473 1.387 . S
C475 C477 1.390 . S
C475 H479 0.950 . S
H476 C472 0.950 . S
C477 C475 1.390 . S
C477 C478 1.387 . S
C477 H480 0.950 . S
C478 C477 1.387 . S
C478 C481 1.387 . S
H479 C475 0.950 . S
H480 C477 0.950 . S
C481 C472 1.390 . S
C481 H474 0.950 . S
C481 C478 1.387 . S
C482 C483 1.387 . S
C482 H486 0.950 . S
C482 C491 1.390 . S
C483 C482 1.387 . S
C483 C485 1.387 . S
H484 C491 0.950 . S
C485 C483 1.387 . S
C485 C487 1.390 . S
C485 H489 0.950 . S
H486 C482 0.950 . S
C487 C485 1.390 . S
C487 C488 1.387 . S
C487 H490 0.950 . S
C488 C487 1.387 . S
C488 C491 1.387 . S
H489 C485 0.950 . S
H490 C487 0.950 . S
C491 C482 1.390 . S
C491 H484 0.950 . S
C491 C488 1.387 . S
C492 C493 1.387 . S
C492 H496 0.950 . S
C492 C501 1.390 1_565 S
C493 C492 1.387 . S
C493 C495 1.387 . S
H494 C501 0.950 . S
C495 C493 1.387 . S
C495 C497 1.390 1_565 S
C495 H499 0.950 . S
H496 C492 0.950 . S
C497 C495 1.390 1_545 S
C497 C498 1.387 . S
C497 H500 0.950 . S
C498 C497 1.387 . S
C498 C501 1.387 . S
H499 C495 0.950 . S
H500 C497 0.950 . S
C501 C492 1.390 1_545 S
C501 H494 0.950 . S
C501 C498 1.387 . S
C502 C503 1.387 . S
C502 H506 0.950 . S
C502 C511 1.390 . S
C503 C502 1.387 . S
C503 C505 1.387 . S
H504 C511 0.950 . S
C505 C503 1.387 . S
C505 C507 1.390 . S
C505 H509 0.950 . S
H506 C502 0.950 . S
C507 C505 1.390 . S
C507 C508 1.387 . S
C507 H510 0.950 . S
C508 C507 1.387 . S
C508 C511 1.387 . S
H509 C505 0.950 . S
H510 C507 0.950 . S
C511 C502 1.390 . S
C511 H504 0.950 . S
C511 C508 1.387 . S
C512 C513 1.387 . S
C512 H516 0.950 . S
C512 C521 1.390 1_565 S
C513 C512 1.387 . S
C513 C515 1.387 . S
H514 C521 0.950 . S
C515 C513 1.387 . S
C515 C517 1.390 1_565 S
C515 H519 0.950 . S
H516 C512 0.950 . S
C517 C515 1.390 1_545 S
C517 C518 1.387 . S
C517 H520 0.950 . S
C518 C517 1.387 . S
C518 C521 1.387 . S
H519 C515 0.950 . S
H520 C517 0.950 . S
C521 C512 1.390 1_545 S
C521 H514 0.950 . S
C521 C518 1.387 . S
C522 C523 1.387 . S
C522 H526 0.950 . S
C522 C531 1.390 . S
C523 C522 1.387 . S
C523 C525 1.387 . S
H524 C531 0.950 . S
C525 C523 1.387 . S
C525 C527 1.390 . S
C525 H529 0.950 . S
H526 C522 0.950 . S
C527 C525 1.390 . S
C527 C528 1.387 . S
C527 H530 0.950 . S
C528 C527 1.387 . S
C528 C531 1.387 . S
H529 C525 0.950 . S
H530 C527 0.950 . S
C531 C522 1.390 . S
C531 H524 0.950 . S
C531 C528 1.387 . S
C532 C533 1.387 . S
C532 H536 0.950 . S
C532 C541 1.390 1_565 S
C533 C532 1.387 . S
C533 C535 1.387 . S
H534 C541 0.950 . S
C535 C533 1.387 . S
C535 C537 1.390 1_565 S
C535 H539 0.950 . S
H536 C532 0.950 . S
C537 C535 1.390 1_545 S
C537 C538 1.387 . S
C537 H540 0.950 . S
C538 C537 1.387 . S
C538 C541 1.387 . S
H539 C535 0.950 . S
H540 C537 0.950 . S
C541 C532 1.390 1_545 S
C541 H534 0.950 . S
C541 C538 1.387 . S
C542 C543 1.387 . S
C542 H546 0.950 . S
C542 C551 1.390 1_545 S
C543 C542 1.387 . S
C543 C545 1.387 . S
H544 C551 0.950 . S
C545 C543 1.387 . S
C545 C547 1.390 1_545 S
C545 H549 0.950 . S
H546 C542 0.950 . S
C547 C545 1.390 1_565 S
C547 C548 1.387 . S
C547 H550 0.950 . S
C548 C547 1.387 . S
C548 C551 1.387 . S
H549 C545 0.950 . S
H550 C547 0.950 . S
C551 C542 1.390 1_565 S
C551 H544 0.950 . S
C551 C548 1.387 . S
C552 C553 1.387 . S
C552 H556 0.950 . S
C552 C561 1.390 . S
C553 C552 1.387 . S
C553 C555 1.387 . S
H554 C561 0.950 . S
C555 C553 1.387 . S
C555 C557 1.390 . S
C555 H559 0.950 . S
H556 C552 0.950 . S
C557 C555 1.390 . S
C557 C558 1.387 . S
C557 H560 0.950 . S
C558 C557 1.387 . S
C558 C561 1.387 . S
H559 C555 0.950 . S
H560 C557 0.950 . S
C561 C552 1.390 . S
C561 H554 0.950 . S
C561 C558 1.387 . S
C562 C563 1.387 . S
C562 H566 0.950 . S
C562 C571 1.390 . S
C563 C562 1.387 . S
C563 C565 1.387 . S
H564 C571 0.950 . S
C565 C563 1.387 . S
C565 C567 1.390 . S
C565 H569 0.950 . S
H566 C562 0.950 . S
C567 C565 1.390 . S
C567 C568 1.387 . S
C567 H570 0.950 . S
C568 C567 1.387 . S
C568 C571 1.387 . S
H569 C565 0.950 . S
H570 C567 0.950 . S
C571 C562 1.390 . S
C571 H564 0.950 . S
C571 C568 1.387 . S
C572 C573 1.387 . S
C572 H576 0.950 . S
C572 C581 1.390 . S
C573 C572 1.387 . S
C573 C575 1.387 . S
H574 C581 0.950 . S
C575 C573 1.387 . S
C575 C577 1.390 . S
C575 H579 0.950 . S
H576 C572 0.950 . S
C577 C575 1.390 . S
C577 C578 1.387 . S
C577 H580 0.950 . S
C578 C577 1.387 . S
C578 C581 1.387 . S
H579 C575 0.950 . S
H580 C577 0.950 . S
C581 C572 1.390 . S
C581 H574 0.950 . S
C581 C578 1.387 . S
C582 C583 1.387 . S
C582 H586 0.950 . S
C582 C591 1.390 . S
C583 C582 1.387 . S
C583 C585 1.387 . S
H584 C591 0.950 . S
C585 C583 1.387 . S
C585 C587 1.390 . S
C585 H589 0.950 . S
H586 C582 0.950 . S
C587 C585 1.390 . S
C587 C588 1.387 . S
C587 H590 0.950 . S
C588 C587 1.387 . S
C588 C591 1.387 . S
H589 C585 0.950 . S
H590 C587 0.950 . S
C591 C582 1.390 . S
C591 H584 0.950 . S
C591 C588 1.387 . S
C592 C593 1.387 . S
C592 H596 0.950 . S
C592 C601 1.390 . S
C593 C592 1.387 . S
C593 C595 1.387 . S
H594 C601 0.950 . S
C595 C593 1.387 . S
C595 C597 1.390 . S
C595 H599 0.950 . S
H596 C592 0.950 . S
C597 C595 1.390 . S
C597 C598 1.387 . S
C597 H600 0.950 . S
C598 C597 1.387 . S
C598 C601 1.387 . S
H599 C595 0.950 . S
H600 C597 0.950 . S
C601 C592 1.390 . S
C601 H594 0.950 . S
C601 C598 1.387 . S
C602 C603 1.387 . S
C602 H606 0.950 . S
C602 C611 1.390 . S
C603 C602 1.387 . S
C603 C605 1.387 . S
H604 C611 0.950 . S
C605 C603 1.387 . S
C605 C607 1.390 . S
C605 H609 0.950 . S
H606 C602 0.950 . S
C607 C605 1.390 . S
C607 C608 1.387 . S
C607 H610 0.950 . S
C608 C607 1.387 . S
C608 C611 1.387 . S
H609 C605 0.950 . S
H610 C607 0.950 . S
C611 C602 1.390 . S
C611 H604 0.950 . S
C611 C608 1.387 . S
C612 C613 1.387 . S
C612 H616 0.950 . S
C612 C621 1.390 . S
C613 C612 1.387 . S
C613 C615 1.387 . S
H614 C621 0.950 . S
C615 C613 1.387 . S
C615 C617 1.390 . S
C615 H619 0.950 . S
H616 C612 0.950 . S
C617 C615 1.390 . S
C617 C618 1.387 . S
C617 H620 0.950 . S
C618 C617 1.387 . S
C618 C621 1.387 . S
H619 C615 0.950 . S
H620 C617 0.950 . S
C621 C612 1.390 . S
C621 H614 0.950 . S
C621 C618 1.387 . S
C622 C623 1.387 . S
C622 H626 0.950 . S
C622 C631 1.390 . S
C623 C622 1.387 . S
C623 C625 1.387 . S
H624 C631 0.950 . S
C625 C623 1.387 . S
C625 C627 1.390 . S
C625 H629 0.950 . S
H626 C622 0.950 . S
C627 C625 1.390 . S
C627 C628 1.387 . S
C627 H630 0.950 . S
C628 C627 1.387 . S
C628 C631 1.387 . S
H629 C625 0.950 . S
H630 C627 0.950 . S
C631 C622 1.390 . S
C631 H624 0.950 . S
C631 C628 1.387 . S
C632 C633 1.387 . S
C632 H636 0.950 . S
C632 C641 1.390 . S
C633 C632 1.387 . S
C633 C635 1.387 . S
H634 C641 0.950 . S
C635 C633 1.387 . S
C635 C637 1.390 . S
C635 H639 0.950 . S
H636 C632 0.950 . S
C637 C635 1.390 . S
C637 C638 1.387 . S
C637 H640 0.950 . S
C638 C637 1.387 . S
C638 C641 1.387 . S
H639 C635 0.950 . S
H640 C637 0.950 . S
C641 C632 1.390 . S
C641 H634 0.950 . S
C641 C638 1.387 . S
C642 C643 1.387 . S
C642 H646 0.950 . S
C642 C651 1.390 . S
C643 C642 1.387 . S
C643 C645 1.387 . S
H644 C651 0.950 . S
C645 C643 1.387 . S
C645 C647 1.390 . S
C645 H649 0.950 . S
H646 C642 0.950 . S
C647 C645 1.390 . S
C647 C648 1.387 . S
C647 H650 0.950 . S
C648 C647 1.387 . S
C648 C651 1.387 . S
H649 C645 0.950 . S
H650 C647 0.950 . S
C651 C642 1.390 . S
C651 H644 0.950 . S
C651 C648 1.387 . S
C652 C653 1.387 . S
C652 H656 0.950 . S
C652 C661 1.390 . S
C653 C652 1.387 . S
C653 C655 1.387 . S
H654 C661 0.950 . S
C655 C653 1.387 . S
C655 C657 1.390 . S
C655 H659 0.950 . S
H656 C652 0.950 . S
C657 C655 1.390 . S
C657 C658 1.387 . S
C657 H660 0.950 . S
C658 C657 1.387 . S
C658 C661 1.387 . S
H659 C655 0.950 . S
H660 C657 0.950 . S
C661 C652 1.390 . S
C661 H654 0.950 . S
C661 C658 1.387 . S
C662 C663 1.387 . S
C662 H666 0.950 . S
C662 C671 1.390 . S
C663 C662 1.387 . S
C663 C665 1.387 . S
H664 C671 0.950 . S
C665 C663 1.387 . S
C665 C667 1.390 . S
C665 H669 0.950 . S
H666 C662 0.950 . S
C667 C665 1.390 . S
C667 C668 1.387 . S
C667 H670 0.950 . S
C668 C667 1.387 . S
C668 C671 1.387 . S
H669 C665 0.950 . S
H670 C667 0.950 . S
C671 C662 1.390 . S
C671 H664 0.950 . S
C671 C668 1.387 . S
C672 C673 1.387 . S
C672 H676 0.950 . S
C672 C681 1.390 . S
C673 C672 1.387 . S
C673 C675 1.387 . S
H674 C681 0.950 . S
C675 C673 1.387 . S
C675 C677 1.390 . S
C675 H679 0.950 . S
H676 C672 0.950 . S
C677 C675 1.390 . S
C677 C678 1.387 . S
C677 H680 0.950 . S
C678 C677 1.387 . S
C678 C681 1.387 . S
H679 C675 0.950 . S
H680 C677 0.950 . S
C681 C672 1.390 . S
C681 H674 0.950 . S
C681 C678 1.387 . S
C682 C683 1.387 . S
C682 H686 0.950 . S
C682 C691 1.390 . S
C683 C682 1.387 . S
C683 C685 1.387 . S
H684 C691 0.950 . S
C685 C683 1.387 . S
C685 C687 1.390 . S
C685 H689 0.950 . S
H686 C682 0.950 . S
C687 C685 1.390 . S
C687 C688 1.387 . S
C687 H690 0.950 . S
C688 C687 1.387 . S
C688 C691 1.387 . S
H689 C685 0.950 . S
H690 C687 0.950 . S
C691 C682 1.390 . S
C691 H684 0.950 . S
C691 C688 1.387 . S
C692 C693 1.387 . S
C692 H696 0.950 . S
C692 C701 1.390 . S
C693 C692 1.387 . S
C693 C695 1.387 . S
H694 C701 0.950 . S
C695 C693 1.387 . S
C695 C697 1.390 . S
C695 H699 0.950 . S
H696 C692 0.950 . S
C697 C695 1.390 . S
C697 C698 1.387 . S
C697 H700 0.950 . S
C698 C697 1.387 . S
C698 C701 1.387 . S
H699 C695 0.950 . S
H700 C697 0.950 . S
C701 C692 1.390 . S
C701 H694 0.950 . S
C701 C698 1.387 . S
C702 C703 1.387 . S
C702 H706 0.950 . S
C702 C711 1.390 . S
C703 C702 1.387 . S
C703 C705 1.387 . S
H704 C711 0.950 . S
C705 C703 1.387 . S
C705 C707 1.390 . S
C705 H709 0.950 . S
H706 C702 0.950 . S
C707 C705 1.390 . S
C707 C708 1.387 . S
C707 H710 0.950 . S
C708 C707 1.387 . S
C708 C711 1.387 . S
H709 C705 0.950 . S
H710 C707 0.950 . S
C711 C702 1.390 . S
C711 H704 0.950 . S
C711 C708 1.387 . S
C712 C713 1.387 . S
C712 H716 0.950 . S
C712 C721 1.390 . S
C713 C712 1.387 . S
C713 C715 1.387 . S
H714 C721 0.950 . S
C715 C713 1.387 . S
C715 C717 1.390 . S
C715 H719 0.950 . S
H716 C712 0.950 . S
C717 C715 1.390 . S
C717 C718 1.387 . S
C717 H720 0.950 . S
C718 C717 1.387 . S
C718 C721 1.387 . S
H719 C715 0.950 . S
H720 C717 0.950 . S
C721 C712 1.390 . S
C721 H714 0.950 . S
C721 C718 1.387 . S
C722 C723 1.387 . S
C722 H726 0.950 . S
C722 C731 1.390 . S
C723 C722 1.387 . S
C723 C725 1.387 . S
H724 C731 0.950 . S
C725 C723 1.387 . S
C725 C727 1.390 . S
C725 H729 0.950 . S
H726 C722 0.950 . S
C727 C725 1.390 . S
C727 C728 1.387 . S
C727 H730 0.950 . S
C728 C727 1.387 . S
C728 C731 1.387 . S
H729 C725 0.950 . S
H730 C727 0.950 . S
C731 C722 1.390 . S
C731 H724 0.950 . S
C731 C728 1.387 . S
C732 C733 1.387 . S
C732 H736 0.950 . S
C732 C741 1.390 . S
C733 C732 1.387 . S
C733 C735 1.387 . S
H734 C741 0.950 . S
C735 C733 1.387 . S
C735 C737 1.390 . S
C735 H739 0.950 . S
H736 C732 0.950 . S
C737 C735 1.390 . S
C737 C738 1.387 . S
C737 H740 0.950 . S
C738 C737 1.387 . S
C738 C741 1.387 . S
H739 C735 0.950 . S
H740 C737 0.950 . S
C741 C732 1.390 . S
C741 H734 0.950 . S
C741 C738 1.387 . S
C742 C743 1.387 . S
C742 H746 0.950 . S
C742 C751 1.390 . S
C743 C742 1.387 . S
C743 C745 1.387 . S
H744 C751 0.950 . S
C745 C743 1.387 . S
C745 C747 1.390 . S
C745 H749 0.950 . S
H746 C742 0.950 . S
C747 C745 1.390 . S
C747 C748 1.387 . S
C747 H750 0.950 . S
C748 C747 1.387 . S
C748 C751 1.387 . S
H749 C745 0.950 . S
H750 C747 0.950 . S
C751 C742 1.390 . S
C751 H744 0.950 . S
C751 C748 1.387 . S
C752 C753 1.387 . S
C752 H756 0.950 . S
C752 C761 1.390 . S
C753 C752 1.387 . S
C753 C755 1.387 . S
H754 C761 0.950 . S
C755 C753 1.387 . S
C755 C757 1.390 . S
C755 H759 0.950 . S
H756 C752 0.950 . S
C757 C755 1.390 . S
C757 C758 1.387 . S
C757 H760 0.950 . S
C758 C757 1.387 . S
C758 C761 1.387 . S
H759 C755 0.950 . S
H760 C757 0.950 . S
C761 C752 1.390 . S
C761 H754 0.950 . S
C761 C758 1.387 . S
C762 C763 1.387 . S
C762 H766 0.950 . S
C762 C771 1.390 . S
C763 C762 1.387 . S
C763 C765 1.387 . S
H764 C771 0.950 . S
C765 C763 1.387 . S
C765 C767 1.390 . S
C765 H769 0.950 . S
H766 C762 0.950 . S
C767 C765 1.390 . S
C767 C768 1.387 . S
C767 H770 0.950 . S
C768 C767 1.387 . S
C768 C771 1.387 . S
H769 C765 0.950 . S
H770 C767 0.950 . S
C771 C762 1.390 . S
C771 H764 0.950 . S
C771 C768 1.387 . S
C772 C773 1.387 . S
C772 H776 0.950 . S
C772 C781 1.390 . S
C773 C772 1.387 . S
C773 C775 1.387 . S
H774 C781 0.950 . S
C775 C773 1.387 . S
C775 C777 1.390 . S
C775 H779 0.950 . S
H776 C772 0.950 . S
C777 C775 1.390 . S
C777 C778 1.387 . S
C777 H780 0.950 . S
C778 C777 1.387 . S
C778 C781 1.387 . S
H779 C775 0.950 . S
H780 C777 0.950 . S
C781 C772 1.390 . S
C781 H774 0.950 . S
C781 C778 1.387 . S
C782 C783 1.387 . S
C782 H786 0.950 . S
C782 C791 1.390 . S
C783 C782 1.387 . S
C783 C785 1.387 . S
H784 C791 0.950 . S
C785 C783 1.387 . S
C785 C787 1.390 . S
C785 H789 0.950 . S
H786 C782 0.950 . S
C787 C785 1.390 . S
C787 C788 1.387 . S
C787 H790 0.950 . S
C788 C787 1.387 . S
C788 C791 1.387 . S
H789 C785 0.950 . S
H790 C787 0.950 . S
C791 C782 1.390 . S
C791 H784 0.950 . S
C791 C788 1.387 . S
C313 C205 1.436 . S
C318 C10 1.437 . S
C323 C166 1.436 . S
C328 C17 1.436 . S
C333 C179 1.436 . S
C338 C36 1.437 . S
C343 C192 1.437 . S
C348 C43 1.436 . S
C353 C186 1.436 . S
C358 C23 1.436 . S
C363 C30 1.437 . S
C368 C199 1.436 . S
C373 C160 1.436 . S
C378 C49 1.436 . S
C383 C173 1.436 . S
C388 C4 1.436 . S
C393 C244 1.436 . S
C398 C56 1.436 . S
C403 C69 1.437 . S
C408 C251 1.436 . S
C413 C88 1.436 . S
C418 C212 1.437 . S
C423 C231 1.436 . S
C428 C101 1.436 . S
C433 C290 1.437 . S
C438 C114 1.436 . S
C443 C127 1.437 . S
C448 C309 1.436 . S
C453 C140 1.436 . S
C458 C264 1.437 . S
C463 C147 1.437 . S
C468 C283 1.436 . S
C473 C225 1.436 . S
C478 C153 1.437 . S
C483 C303 1.437 . S
C488 C75 1.436 . S
C493 C82 1.436 . S
C498 C270 1.437 . S
C503 C277 1.437 . S
C508 C95 1.436 . S
C513 C296 1.436 . S
C518 C62 1.437 . S
C523 C121 1.436 . S
C528 C257 1.437 . S
C533 C218 1.436 . S
C538 C134 1.437 . S
C543 C238 1.436 . S
C548 C108 1.437 . S
C553 C3 1.240 . S
C558 C55 1.240 . S
C563 C68 1.240 . S
C568 C18 1.239 . S
C573 C29 1.238 . S
C578 C83 1.240 . S
C583 C44 1.240 . S
C588 C96 1.240 . S
C593 C109 1.240 . S
C598 C16 1.239 . S
C603 C122 1.240 . S
C608 C31 1.240 . S
C613 C135 1.239 . S
C618 C42 1.240 . S
C623 C5 1.238 . S
C628 C146 1.239 . S
C633 C148 1.238 . S
C638 C57 1.238 . S
C643 C70 1.240 . S
C648 C107 1.238 . S
C653 C81 1.238 . S
C658 C120 1.239 . S
C663 C133 1.238 . S
C668 C94 1.239 . S
C673 C211 1.239 . S
C678 C161 1.238 . S
C683 C226 1.240 . S
C688 C174 1.240 . S
C693 C187 1.239 . S
C698 C239 1.238 . S
C703 C200 1.240 . S
C708 C250 1.240 . S
C713 C172 1.239 . S
C718 C263 1.238 . S
C723 C185 1.240 . S
C728 C278 1.240 . S
C733 C289 1.239 . S
C738 C198 1.240 . S
C743 C159 1.238 . S
C748 C304 1.240 . S
C753 C213 1.238 . S
C758 C302 1.239 . S
C763 C265 1.238 . S
C768 C224 1.239 . S
C773 C237 1.240 . S
C778 C276 1.238 . S
C783 C291 1.238 . S
C788 C252 1.240 . S
