# Generated by pormake.
# Topology sml, (6)-cn, num edge types: 1
# Building blocks:
#     Node 0, Type 0, BuildingBlock: IZENUY_clean_sbu_0, # of connection points: 6
#     Node 1, Type 0, BuildingBlock: IZENUY_clean_sbu_0, # of connection points: 6
#     Node 2, Type 0, BuildingBlock: IZENUY_clean_sbu_0, # of connection points: 6
#     Node 3, Type 0, BuildingBlock: IZENUY_clean_sbu_0, # of connection points: 6
#     Node 4, Type 0, BuildingBlock: IZENUY_clean_sbu_0, # of connection points: 6
#     Node 5, Type 0, BuildingBlock: IZENUY_clean_sbu_0, # of connection points: 6
#     Edge 6, Type (0, 0), BuildingBlock: KIFKEQ_clean_linker_1, # of connection points: 2
#     Edge 7, Type (0, 0), BuildingBlock: KIFKEQ_clean_linker_1, # of connection points: 2
#     Edge 8, Type (0, 0), BuildingBlock: KIFKEQ_clean_linker_1, # of connection points: 2
#     Edge 9, Type (0, 0), BuildingBlock: KIFKEQ_clean_linker_1, # of connection points: 2
#     Edge 10, Type (0, 0), BuildingBlock: KIFKEQ_clean_linker_1, # of connection points: 2
#     Edge 11, Type (0, 0), BuildingBlock: KIFKEQ_clean_linker_1, # of connection points: 2
#     Edge 12, Type (0, 0), BuildingBlock: KIFKEQ_clean_linker_1, # of connection points: 2
#     Edge 13, Type (0, 0), BuildingBlock: KIFKEQ_clean_linker_1, # of connection points: 2
#     Edge 14, Type (0, 0), BuildingBlock: KIFKEQ_clean_linker_1, # of connection points: 2
#     Edge 15, Type (0, 0), BuildingBlock: KIFKEQ_clean_linker_1, # of connection points: 2
#     Edge 16, Type (0, 0), BuildingBlock: KIFKEQ_clean_linker_1, # of connection points: 2
#     Edge 17, Type (0, 0), BuildingBlock: KIFKEQ_clean_linker_1, # of connection points: 2
#     Edge 18, Type (0, 0), BuildingBlock: KIFKEQ_clean_linker_1, # of connection points: 2
#     Edge 19, Type (0, 0), BuildingBlock: KIFKEQ_clean_linker_1, # of connection points: 2
#     Edge 20, Type (0, 0), BuildingBlock: KIFKEQ_clean_linker_1, # of connection points: 2
#     Edge 21, Type (0, 0), BuildingBlock: KIFKEQ_clean_linker_1, # of connection points: 2
#     Edge 22, Type (0, 0), BuildingBlock: KIFKEQ_clean_linker_1, # of connection points: 2
#     Edge 23, Type (0, 0), BuildingBlock: KIFKEQ_clean_linker_1, # of connection points: 2
# Relax obj value: 0.327
# Max RMSD: 0.283
# Mean RMSD: 0.283
data_MOF--net-sml--node1-IZENUY_clean_sbu_0--edge1-KIFKEQ_clean_linker_1
_symmetry_space_group_name_H-M    P1
_symmetry_Int_Tables_number       1
_symmetry_cell_setting            triclinic
loop_
_symmetry_equiv_pos_as_xyz
'x, y, z'
_cell_length_a     40.890032
_cell_length_b     40.852998
_cell_length_c     14.984815
_cell_angle_alpha  90.194251
_cell_angle_beta   89.844152
_cell_angle_gamma 119.99841
loop_
_atom_site_label
_atom_site_type_symbol
_atom_site_fract_x
_atom_site_fract_y
_atom_site_fract_z
_atom_type_partial_charge
Fe0 Fe 0.28235 0.46537 0.05993 0.0
Fe1 Fe 0.21085 0.39114 0.00946 0.0
O2 O 0.23714 0.44111 0.00962 0.0
Fe3 Fe 0.21832 0.46727 0.95926 0.0
O4 O 0.21897 0.48912 0.06478 0.0
O5 O 0.27807 0.50681 0.09452 0.0
O6 O 0.26306 0.4451 0.16693 0.0
C7 C 0.24225 0.41049 0.18399 0.0
C8 C 0.297 0.51044 0.91737 0.0
O9 O 0.22692 0.38626 0.12172 0.0
C10 C 0.20131 0.41213 0.83455 0.0
O11 O 0.29518 0.4288 0.03422 0.0
O12 O 0.24791 0.38804 0.95209 0.0
O13 O 0.26482 0.50761 0.92715 0.0
O14 O 0.30414 0.48725 0.95516 0.0
C15 C 0.15446 0.4071 0.04167 0.0
O16 O 0.19049 0.38769 0.89676 0.0
O17 O 0.21709 0.44694 0.852 0.0
C18 C 0.28196 0.40322 0.97479 0.0
O19 O 0.17185 0.39074 0.06701 0.0
O20 O 0.16832 0.43226 0.98181 0.0
C21 C 0.24943 0.51098 0.10434 0.0
Fe22 Fe 0.82509 0.26409 0.36205 0.0
Fe23 Fe 0.83562 0.19789 0.30397 0.0
O24 O 0.808 0.22021 0.30633 0.0
Fe25 Fe 0.76353 0.19931 0.25282 0.0
O26 O 0.74021 0.19733 0.35617 0.0
O27 O 0.77765 0.2565 0.39234 0.0
O28 O 0.82546 0.24321 0.46684 0.0
C29 C 0.84274 0.22548 0.48172 0.0
C30 C 0.79608 0.27838 0.21576 0.0
O31 O 0.85478 0.2136 0.41803 0.0
C32 C 0.8054 0.18668 0.12887 0.0
O33 O 0.87572 0.28067 0.34213 0.0
O34 O 0.87416 0.23818 0.25031 0.0
O35 O 0.76745 0.24526 0.22093 0.0
O36 O 0.82554 0.28688 0.2594 0.0
C37 C 0.7653 0.13678 0.33115 0.0
O38 O 0.82103 0.17818 0.19054 0.0
O39 O 0.78413 0.19992 0.14631 0.0
C40 C 0.89055 0.27136 0.28 0.0
O41 O 0.79904 0.15597 0.35623 0.0
O42 O 0.75136 0.14997 0.27589 0.0
C43 C 0.7457 0.22649 0.39718 0.0
Fe44 Fe 0.57118 0.76133 0.61006 0.0
Fe45 Fe 0.5786 0.82445 0.73492 0.0
O46 O 0.59957 0.80379 0.66953 0.0
Fe47 Fe 0.64944 0.82585 0.66406 0.0
O48 O 0.65039 0.78166 0.65048 0.0
O49 O 0.5916 0.73737 0.67149 0.0
O50 O 0.53319 0.74227 0.69209 0.0
C51 C 0.53209 0.74986 0.77346 0.0
C52 C 0.63113 0.80551 0.49112 0.0
O53 O 0.55388 0.78246 0.80483 0.0
C54 C 0.63609 0.88678 0.6543 0.0
O55 O 0.54791 0.78219 0.54661 0.0
O56 O 0.5375 0.80843 0.66372 0.0
O57 O 0.64895 0.83208 0.5456 0.0
O58 O 0.6047 0.77357 0.51685 0.0
C59 C 0.63951 0.83356 0.84002 0.0
O60 O 0.60101 0.86707 0.66733 0.0
O61 O 0.65772 0.87428 0.67603 0.0
C62 C 0.53139 0.79801 0.58312 0.0
O63 O 0.61638 0.84424 0.81856 0.0
O64 O 0.65242 0.82051 0.78257 0.0
C65 C 0.62646 0.74871 0.67598 0.0
Fe66 Fe 0.82683 0.56765 0.94833 0.0
Fe67 Fe 0.76072 0.56404 0.05254 0.0
O68 O 0.80567 0.59113 0.00169 0.0
Fe69 Fe 0.82948 0.64109 0.00516 0.0
O70 O 0.86988 0.6437 0.0595 0.0
O71 O 0.87619 0.60415 0.97248 0.0
O72 O 0.82739 0.54589 0.05192 0.0
C73 C 0.79736 0.521 0.08761 0.0
C74 C 0.84123 0.62326 0.82804 0.0
O75 O 0.76759 0.52346 0.08211 0.0
C76 C 0.75727 0.62612 0.97728 0.0
O77 O 0.78133 0.52605 0.91405 0.0
O78 O 0.73962 0.54297 0.94674 0.0
O79 O 0.8499 0.64695 0.89161 0.0
O80 O 0.82728 0.58846 0.8429 0.0
C81 C 0.79875 0.61842 0.17951 0.0
O82 O 0.74495 0.59876 0.03176 0.0
O83 O 0.79102 0.64253 0.95179 0.0
C84 C 0.7484 0.52153 0.90576 0.0
O85 O 0.77962 0.58375 0.16041 0.0
O86 O 0.81285 0.64341 0.11877 0.0
C87 C 0.88908 0.62948 0.03231 0.0
Fe88 Fe 0.28511 0.834 0.23971 0.0
Fe89 Fe 0.22105 0.76791 0.34029 0.0
O90 O 0.23987 0.81305 0.29004 0.0
Fe91 Fe 0.21367 0.83685 0.28987 0.0
O92 O 0.25063 0.87753 0.34526 0.0
O93 O 0.29808 0.88345 0.2645 0.0
O94 O 0.3065 0.83434 0.34457 0.0
C95 C 0.29971 0.80443 0.38383 0.0
C96 C 0.24497 0.84827 0.11501 0.0
O97 O 0.26782 0.77457 0.37404 0.0
C98 C 0.1567 0.76449 0.25935 0.0
O99 O 0.28125 0.78832 0.20629 0.0
O100 O 0.22213 0.74687 0.23503 0.0
O101 O 0.22943 0.85713 0.17692 0.0
O102 O 0.26592 0.83468 0.13247 0.0
C103 C 0.2037 0.80605 0.46493 0.0
O104 O 0.17092 0.75237 0.3164 0.0
O105 O 0.17455 0.79824 0.2342 0.0
C106 C 0.25269 0.75554 0.19605 0.0
O107 O 0.2191 0.78666 0.44744 0.0
O108 O 0.19366 0.82045 0.40303 0.0
C109 C 0.28447 0.89648 0.32123 0.0
Fe110 Fe 0.46882 0.20429 0.74871 0.0
Fe111 Fe 0.39485 0.19765 0.68447 0.0
O112 O 0.44489 0.22259 0.6865 0.0
Fe113 Fe 0.47035 0.26528 0.62605 0.0
O114 O 0.50918 0.2868 0.70544 0.0
O115 O 0.49273 0.24673 0.81774 0.0
O116 O 0.43232 0.18321 0.83555 0.0
C117 C 0.40768 0.19168 0.85911 0.0
C118 C 0.5134 0.23218 0.59336 0.0
O119 O 0.39275 0.20307 0.80319 0.0
C120 C 0.41053 0.21774 0.51069 0.0
O121 O 0.4476 0.16132 0.68144 0.0
O122 O 0.38982 0.15059 0.696 0.0
O123 O 0.49522 0.24671 0.55969 0.0
O124 O 0.50907 0.22207 0.67401 0.0
C125 C 0.41283 0.27344 0.69722 0.0
O126 O 0.39453 0.19113 0.56574 0.0
O127 O 0.43551 0.25058 0.53546 0.0
C128 C 0.41258 0.13993 0.67097 0.0
O129 O 0.39046 0.23989 0.67237 0.0
O130 O 0.44805 0.28711 0.68972 0.0
C131 C 0.51232 0.27964 0.78591 0.0
H132 H 0.33858 0.2522 0.71305 0.0
H133 H 0.45027 0.34584 0.7673 0.0
H134 H 0.31082 0.28657 0.7798 0.0
H135 H 0.42197 0.38107 0.8332 0.0
H136 H 0.34894 0.40917 0.03339 0.0
H137 H 0.38368 0.38102 0.96365 0.0
H138 H 0.30338 0.3397 0.74687 0.0
H139 H 0.26862 0.36651 0.81674 0.0
C140 C 0.35735 0.2804 0.73824 0.0
C141 C 0.39676 0.29631 0.7338 0.0
C142 C 0.34132 0.30026 0.77639 0.0
C143 C 0.3641 0.33683 0.81113 0.0
C144 C 0.40361 0.35291 0.80733 0.0
C145 C 0.4198 0.33286 0.76885 0.0
C146 C 0.33895 0.39419 0.97067 0.0
C147 C 0.30555 0.38937 0.93174 0.0
C148 C 0.35892 0.37824 0.93047 0.0
C149 C 0.34593 0.35746 0.85041 0.0
C150 C 0.31365 0.35452 0.80971 0.0
C151 C 0.2937 0.37001 0.8499 0.0
H152 H 0.12813 0.37615 0.2046 0.0
H153 H 0.09487 0.40915 0.9631 0.0
H154 H 0.06422 0.35013 0.26347 0.0
H155 H 0.03039 0.3823 0.02185 0.0
H156 H 0.91688 0.2723 0.11351 0.0
H157 H 0.98085 0.31188 0.05678 0.0
H158 H 1.01464 0.3699 0.3101 0.0
H159 H 0.94997 0.33054 0.36684 0.0
C160 C 0.10718 0.37808 0.16435 0.0
C161 C 0.11638 0.39436 0.07883 0.0
C162 C 0.0707 0.36348 0.19847 0.0
C163 C 0.04239 0.36422 0.14726 0.0
C164 C 0.05174 0.38136 0.06262 0.0
C165 C 0.08857 0.39674 0.02911 0.0
C166 C 0.93783 0.29385 0.15683 0.0
C167 C 0.92856 0.29816 0.24489 0.0
C168 C 0.97435 0.31668 0.12403 0.0
C169 C 1.00267 0.34392 0.17902 0.0
C170 C 0.99327 0.34902 0.26642 0.0
C171 C 0.95635 0.32663 0.29876 0.0
H172 H 0.69024 0.09839 0.37755 0.0
H173 H 0.79014 0.0881 0.36707 0.0
H174 H 0.65701 0.03846 0.45894 0.0
H175 H 0.75693 0.02781 0.44332 0.0
H176 H 0.70832 0.94551 0.66635 0.0
H177 H 0.73675 1.00507 0.58618 0.0
H178 H 0.62953 0.97187 0.46027 0.0
H179 H 0.60068 0.91289 0.54478 0.0
C180 C 0.70472 0.0828 0.39068 0.0
C181 C 0.74278 0.09794 0.36651 0.0
C182 C 0.68576 0.04847 0.43744 0.0
C183 C 0.70443 0.02844 0.45976 0.0
C184 C 0.74189 0.04286 0.43057 0.0
C185 C 0.76089 0.07728 0.38566 0.0
C186 C 0.69072 0.95111 0.62231 0.0
C187 C 0.65229 0.92447 0.61186 0.0
C188 C 0.70711 0.98516 0.57532 0.0
C189 C 0.68574 0.99321 0.51481 0.0
C190 C 0.64693 0.96693 0.50641 0.0
C191 C 0.63035 0.93305 0.55483 0.0
H192 H 0.69334 0.75231 0.64086 0.0
H193 H 0.59129 0.69038 0.79585 0.0
H194 H 0.72081 0.71927 0.71619 0.0
H195 H 0.61948 0.65783 0.87424 0.0
H196 H 0.68055 0.58815 0.94338 0.0
H197 H 0.64487 0.61367 0.8669 0.0
H198 H 0.74508 0.72413 0.8634 0.0
H199 H 0.78032 0.69873 0.93627 0.0
C200 C 0.67665 0.73139 0.69076 0.0
C201 C 0.64027 0.7242 0.71284 0.0
C202 C 0.69251 0.71261 0.73462 0.0
C203 C 0.67276 0.68655 0.80306 0.0
C204 C 0.6355 0.67775 0.822 0.0
C205 C 0.61934 0.69636 0.77706 0.0
C206 C 0.69458 0.61796 0.92722 0.0
C207 C 0.73331 0.64134 0.94482 0.0
C208 C 0.67425 0.63257 0.88328 0.0
C209 C 0.69236 0.67077 0.85681 0.0
C210 C 0.73047 0.69433 0.87979 0.0
C211 C 0.75066 0.67981 0.92244 0.0
H212 H 0.10745 0.68786 0.28435 0.0
H213 H 0.11732 0.78702 0.15542 0.0
H214 H 0.04208 0.65064 0.2289 0.0
H215 H 0.05306 0.75028 0.1022 0.0
H216 H 0.92608 0.68916 0.14518 0.0
H217 H 0.99013 0.71704 0.2009 0.0
H218 H 1.00507 0.63327 0.05964 0.0
H219 H 0.94011 0.60487 0.00197 0.0
C220 C 0.09587 0.70166 0.24434 0.0
C221 C 0.1176 0.74055 0.22536 0.0
C222 C 0.05866 0.68034 0.21224 0.0
C223 C 0.04265 0.69777 0.16184 0.0
C224 C 0.06465 0.73626 0.1415 0.0
C225 C 0.10157 0.75728 0.17232 0.0
C226 C 0.94271 0.67637 0.1257 0.0
C227 C 0.92799 0.645 0.0678 0.0
C228 C 0.97944 0.69238 0.15805 0.0
C229 C 1.00248 0.67736 0.13431 0.0
C230 C 0.98768 0.64521 0.07914 0.0
C231 C 0.95071 0.62923 0.04567 0.0
H232 H 0.34208 0.0788 0.68599 0.0
H233 H 0.4489 0.11747 0.55277 0.0
H234 H 0.31444 0.02085 0.59892 0.0
H235 H 0.42073 0.05984 0.462 0.0
H236 H 0.3599 0.9338 0.36521 0.0
H237 H 0.39368 0.99216 0.45337 0.0
H238 H 0.29397 1.00333 0.45149 0.0
H239 H 0.26034 0.94485 0.36774 0.0
C240 C 0.35972 0.07481 0.63818 0.0
C241 C 0.39761 0.10278 0.62609 0.0
C242 C 0.34377 0.0417 0.58735 0.0
C243 C 0.36503 0.0359 0.52152 0.0
C244 C 0.40348 0.06322 0.51202 0.0
C245 C 0.41965 0.09625 0.5641 0.0
C246 C 0.3456 0.94922 0.38269 0.0
C247 C 0.30746 0.9347 0.36019 0.0
C248 C 0.36485 0.98258 0.43338 0.0
C249 C 0.34633 1.00211 0.46163 0.0
C250 C 0.30886 0.9885 0.434 0.0
C251 C 0.28963 0.95514 0.38489 0.0
H252 H 0.19709 0.34847 0.75835 0.0
H253 H 0.19676 0.45134 0.69434 0.0
H254 H 0.20384 0.33869 0.59832 0.0
H255 H 0.2036 0.44157 0.53678 0.0
H256 H 0.18031 0.34932 0.25969 0.0
H257 H 0.16393 0.34046 0.41969 0.0
H258 H 0.2711 0.43861 0.48195 0.0
H259 H 0.2876 0.44745 0.32433 0.0
C260 C 0.19725 0.36827 0.71023 0.0
C261 C 0.19674 0.40086 0.73909 0.0
C262 C 0.20118 0.36269 0.61894 0.0
C263 C 0.20448 0.38957 0.55585 0.0
C264 C 0.20127 0.42056 0.58432 0.0
C265 C 0.1974 0.42612 0.67463 0.0
C266 C 0.20082 0.36818 0.30795 0.0
C267 C 0.23513 0.39927 0.2793 0.0
C268 C 0.19139 0.36314 0.39922 0.0
C269 C 0.21624 0.38904 0.46253 0.0
C270 C 0.25147 0.41837 0.43424 0.0
C271 C 0.26083 0.42341 0.34391 0.0
H272 H 0.7598 0.17701 0.9885 0.0
H273 H 0.86772 0.18812 0.05461 0.0
H274 H 0.77617 0.18323 0.83076 0.0
H275 H 0.88403 0.19441 0.89476 0.0
H276 H 0.85247 0.27141 0.62147 0.0
H277 H 0.8474 0.25564 0.77932 0.0
H278 H 0.83967 0.14908 0.71464 0.0
H279 H 0.8449 0.16489 0.55459 0.0
C280 C 0.78668 0.17989 0.96921 0.0
C281 C 0.81263 0.18244 0.03398 0.0
C282 C 0.79592 0.18331 0.87897 0.0
C283 C 0.83129 0.18936 0.85136 0.0
C284 C 0.85645 0.18941 0.91497 0.0
C285 C 0.84709 0.1858 0.00605 0.0
C286 C 0.85071 0.24502 0.64071 0.0
C287 C 0.84872 0.21919 0.57582 0.0
C288 C 0.84791 0.23611 0.73096 0.0
C289 C 0.843 0.20118 0.75838 0.0
C290 C 0.84376 0.17632 0.69454 0.0
C291 C 0.8468 0.18539 0.60339 0.0
H292 H 0.60926 0.7524 0.35924 0.0
H293 H 0.67836 0.8724 0.40982 0.0
H294 H 0.62275 0.76369 0.2002 0.0
H295 H 0.69179 0.88344 0.25077 0.0
H296 H 0.63627 0.87856 0.96946 0.0
H297 H 0.64455 0.87464 0.12908 0.0
H298 H 0.6756 0.78932 0.08205 0.0
H299 H 0.66743 0.79326 0.92157 0.0
C300 C 0.62775 0.78106 0.3366 0.0
C301 C 0.64235 0.81155 0.39667 0.0
C302 C 0.63579 0.78745 0.24584 0.0
C303 C 0.65827 0.82442 0.21383 0.0
C304 C 0.6743 0.85471 0.27421 0.0
C305 C 0.66655 0.84833 0.36502 0.0
C306 C 0.64563 0.85956 -0.00697 0.0
C307 C 0.65082 0.83592 0.93364 0.0
C308 C 0.65066 0.85754 0.08417 0.0
C309 C 0.66053 0.83155 0.11731 0.0
C310 C 0.66783 0.80944 0.05764 0.0
C311 C 0.66329 0.81182 0.96616 0.0
H312 H 0.83483 0.68122 0.75301 0.0
H313 H 0.85743 0.59119 0.68962 0.0
H314 H 0.82736 0.68918 0.59263 0.0
H315 H 0.84995 0.59915 0.53147 0.0
H316 H 0.75854 0.57592 0.32098 0.0
H317 H 0.77557 0.58721 0.47792 0.0
H318 H 0.87149 0.69578 0.41419 0.0
H319 H 0.85465 0.68455 0.25482 0.0
C320 C 0.83957 0.66418 0.70488 0.0
C321 C 0.84635 0.63535 0.73368 0.0
C322 C 0.8352 0.66867 0.61348 0.0
C323 C 0.83783 0.64453 0.55049 0.0
C324 C 0.84768 0.61797 0.57905 0.0
C325 C 0.85191 0.61343 0.66953 0.0
C326 C 0.7829 0.60257 0.34 0.0
C327 C 0.80547 0.62917 0.27514 0.0
C328 C 0.79254 0.609 0.42995 0.0
C329 C 0.82488 0.64219 0.45751 0.0
C330 C 0.84629 0.67007 0.39412 0.0
C331 C 0.83661 0.66361 0.30325 0.0
H332 H 0.2003 0.86583 0.54155 0.0
H333 H 0.19804 0.76159 0.60464 0.0
H334 H 0.20705 0.88208 0.70166 0.0
H335 H 0.20496 0.77798 0.76231 0.0
H336 H 0.18366 0.84869 0.03971 0.0
H337 H 0.16713 0.84119 0.87993 0.0
H338 H 0.27302 0.84743 0.81686 0.0
H339 H 0.2897 0.85509 0.97423 0.0
C340 C 0.20002 0.84591 0.5895 0.0
C341 C 0.19901 0.8126 0.56038 0.0
C342 C 0.20397 0.85527 0.68081 0.0
C343 C 0.2068 0.83134 0.74362 0.0
C344 C 0.20301 0.79692 0.71493 0.0
C345 C 0.1991 0.78762 0.62458 0.0
C346 C 0.20386 0.84968 -0.00869 0.0
C347 C 0.23784 0.85213 0.01967 0.0
C348 C 0.19435 0.84532 0.90018 0.0
C349 C 0.21876 0.84349 0.83678 0.0
C350 C 0.25371 0.84861 0.86472 0.0
C351 C 0.26317 0.85293 0.9549 0.0
H352 H 0.42593 0.26981 0.38012 0.0
H353 H 0.37002 0.1494 0.42869 0.0
H354 H 0.41395 0.25769 0.22086 0.0
H355 H 0.3581 0.13749 0.26915 0.0
H356 H 0.41829 0.15131 0.98837 0.0
H357 H 0.40815 0.15322 0.14802 0.0
H358 H 0.36187 0.22637 0.1021 0.0
H359 H 0.3719 0.22448 0.94182 0.0
C360 C 0.41057 0.2408 0.35694 0.0
C361 C 0.39932 0.21058 0.41647 0.0
C362 C 0.40338 0.23388 0.26605 0.0
C363 C 0.38517 0.19668 0.23336 0.0
C364 C 0.37228 0.1664 0.29319 0.0
C365 C 0.37911 0.17328 0.38422 0.0
C366 C 0.4053 0.16721 0.01216 0.0
C367 C 0.39631 0.18812 0.95312 0.0
C368 C 0.39918 0.16802 0.10331 0.0
C369 C 0.38437 0.19005 0.13676 0.0
C370 C 0.37346 0.20931 0.07744 0.0
C371 C 0.37914 0.20814 0.98604 0.0
H372 H 0.19599 0.52479 0.17378 0.0
H373 H 0.31371 0.58025 0.09927 0.0
H374 H 0.20014 0.58599 0.19148 0.0
H375 H 0.31757 0.64161 0.11253 0.0
H376 H 0.31464 0.74752 0.21685 0.0
H377 H 0.31656 0.68893 0.20345 0.0
H378 H 0.20332 0.63301 0.09577 0.0
H379 H 0.201 0.69109 0.11326 0.0
C380 C 0.22293 0.55016 0.16251 0.0
C381 C 0.25446 0.54768 0.13507 0.0
C382 C 0.22521 0.58529 0.1711 0.0
C383 C 0.25892 0.61887 0.15085 0.0
C384 C 0.29114 0.61647 0.12869 0.0
C385 C 0.28898 0.58123 0.12149 0.0
C386 C 0.2906 0.72294 0.18798 0.0
C387 C 0.25766 0.72383 0.16584 0.0
C388 C 0.29157 0.68922 0.18085 0.0
C389 C 0.25975 0.65584 0.15056 0.0
C390 C 0.22791 0.65772 0.12231 0.0
C391 C 0.22674 0.69118 0.13073 0.0
H392 H 0.74029 0.28784 0.45515 0.0
H393 H 0.67386 0.16751 0.40726 0.0
H394 H 0.68235 0.28915 0.48994 0.0
H395 H 0.6167 0.16923 0.43667 0.0
H396 H 0.52796 0.17543 0.60412 0.0
H397 H 0.58449 0.17531 0.55768 0.0
H398 H 0.62427 0.28293 0.42687 0.0
H399 H 0.56727 0.28355 0.47784 0.0
C400 C 0.71349 0.26169 0.45276 0.0
C401 C 0.71187 0.22753 0.42929 0.0
C402 C 0.68023 0.26255 0.47107 0.0
C403 C 0.64475 0.22932 0.46587 0.0
C404 C 0.64342 0.1953 0.44284 0.0
C405 C 0.6764 0.19434 0.4258 0.0
C406 C 0.5484 0.19876 0.56386 0.0
C407 C 0.54323 0.22944 0.54433 0.0
C408 C 0.5809 0.19869 0.53693 0.0
C409 C 0.60918 0.22918 0.48867 0.0
C410 C 0.60326 0.25923 0.46507 0.0
C411 C 0.5704 0.25932 0.49261 0.0
H412 H 0.36625 0.52396 0.86238 0.0
H413 H 0.30174 0.57954 0.91314 0.0
H414 H 0.42301 0.58518 0.84255 0.0
H415 H 0.35873 0.64081 0.89753 0.0
H416 H 0.46263 0.74047 0.7605 0.0
H417 H 0.40395 0.68285 0.7953 0.0
H418 H 0.46748 0.63818 0.9262 0.0
H419 H 0.52631 0.69564 0.88717 0.0
C420 C 0.36416 0.54929 0.86843 0.0
C421 C 0.32949 0.54687 0.88892 0.0
C422 C 0.39683 0.58445 0.85871 0.0
C423 C 0.39574 0.61809 0.87044 0.0
C424 C 0.36071 0.61559 0.88766 0.0
C425 C 0.32791 0.58038 0.89609 0.0
C426 C 0.46376 0.71887 0.8 0.0
C427 C 0.49867 0.72253 0.82295 0.0
C428 C 0.43018 0.68569 0.81945 0.0
C429 C 0.4309 0.65547 0.86222 0.0
C430 C 0.46591 0.66051 0.89126 0.0
C431 C 0.49957 0.69367 0.87094 0.0
H432 H 0.73189 0.28252 0.18121 0.0
H433 H 0.85372 0.34727 0.17123 0.0
H434 H 0.72924 0.33985 0.14647 0.0
H435 H 0.85131 0.40397 0.1424 0.0
H436 H 0.74485 0.4609 0.18925 0.0
H437 H 0.74138 0.39953 0.21054 0.0
H438 H 0.83773 0.43562 0.03609 0.0
H439 H 0.84266 0.49637 0.02039 0.0
C440 C 0.75801 0.30874 0.16992 0.0
C441 C 0.79302 0.31029 0.17846 0.0
C442 C 0.75653 0.34172 0.15167 0.0
C443 C 0.79003 0.37675 0.14171 0.0
C444 C 0.82481 0.37765 0.14767 0.0
C445 C 0.82625 0.34496 0.16476 0.0
C446 C 0.76554 0.45568 0.157 0.0
C447 C 0.7947 0.48403 0.10561 0.0
C448 C 0.76329 0.42039 0.16802 0.0
C449 C 0.7897 0.41268 0.12623 0.0
C450 C 0.8177 0.44071 0.0721 0.0
C451 C 0.82051 0.47585 0.06309 0.0
H452 H 0.30496 0.74156 0.4265 0.0
H453 H 0.36966 0.86359 0.41689 0.0
H454 H 0.36244 0.74009 0.46517 0.0
H455 H 0.42658 0.86203 0.45011 0.0
H456 H 0.51205 0.85076 0.6145 0.0
H457 H 0.45526 0.8504 0.56992 0.0
H458 H 0.42341 0.75155 0.40641 0.0
H459 H 0.48053 0.75098 0.45563 0.0
C460 C 0.33125 0.76801 0.43366 0.0
C461 C 0.33258 0.80269 0.41945 0.0
C462 C 0.3643 0.76715 0.4541 0.0
C463 C 0.39925 0.80094 0.46051 0.0
C464 C 0.40022 0.83545 0.44723 0.0
C465 C 0.36741 0.83633 0.42794 0.0
C466 C 0.49324 0.82914 0.56808 0.0
C467 C 0.50072 0.80086 0.53865 0.0
C468 C 0.46061 0.82902 0.54207 0.0
C469 C 0.43457 0.80092 0.48455 0.0
C470 C 0.44267 0.77332 0.4518 0.0
C471 C 0.47562 0.77333 0.47856 0.0
H472 H 0.74306 0.4525 0.92052 0.0
H473 H 0.68178 0.50716 0.83264 0.0
H474 H 0.68572 0.39109 0.90874 0.0
H475 H 0.62482 0.44579 0.81656 0.0
H476 H 0.51927 0.34012 0.8767 0.0
H477 H 0.57867 0.39815 0.90723 0.0
H478 H 0.64043 0.34411 0.81446 0.0
H479 H 0.58089 0.28583 0.78881 0.0
C480 C 0.71762 0.45125 0.89554 0.0
C481 C 0.71688 0.48459 0.87696 0.0
C482 C 0.6846 0.41603 0.88947 0.0
C483 C 0.65028 0.41338 0.86363 0.0
C484 C 0.65032 0.44671 0.8397 0.0
C485 C 0.68313 0.48189 0.84711 0.0
C486 C 0.54566 0.34033 0.86724 0.0
C487 C 0.54576 0.30848 0.83283 0.0
C488 C 0.57972 0.37376 0.88248 0.0
C489 C 0.61449 0.37622 0.86116 0.0
C490 C 0.61438 0.34336 0.83223 0.0
C491 C 0.5803 0.3098 0.81828 0.0
loop_
_geom_bond_atom_site_label_1
_geom_bond_atom_site_label_2
_geom_bond_distance
_geom_bond_site_symmetry_2
_ccdc_geom_bond_type
Fe0 O2 1.918 1_554 S
Fe0 O5 1.997 . S
Fe0 O6 2.002 . S
Fe0 O11 1.976 . S
Fe0 O14 1.996 1_554 S
Fe1 O2 1.918 1_554 S
Fe1 O9 1.999 . S
Fe1 O12 1.995 1_554 S
Fe1 O16 1.973 1_554 S
Fe1 O19 2.003 . S
O2 Fe0 1.918 1_556 S
O2 Fe1 1.918 1_556 S
O2 Fe3 1.918 . S
Fe3 O2 1.918 . S
Fe3 O4 2.002 1_556 S
Fe3 O13 1.976 . S
Fe3 O17 1.996 . S
Fe3 O20 1.997 . S
O4 Fe3 2.002 1_554 S
O4 C21 1.295 . S
O5 Fe0 1.997 . S
O5 C21 1.235 . S
O6 Fe0 2.002 . S
O6 C7 1.295 . S
C7 O6 1.295 . S
C7 O9 1.235 . S
C8 O13 1.287 . S
C8 O14 1.255 . S
O9 Fe1 1.999 . S
O9 C7 1.235 . S
C10 O16 1.287 . S
C10 O17 1.255 . S
O11 Fe0 1.976 . S
O11 C18 1.287 . S
O12 Fe1 1.995 1_556 S
O12 C18 1.255 1_556 S
O13 Fe3 1.976 . S
O13 C8 1.287 . S
O14 Fe0 1.996 1_556 S
O14 C8 1.255 . S
C15 O19 1.297 . S
C15 O20 1.231 1_554 S
O16 Fe1 1.973 1_556 S
O16 C10 1.287 . S
O17 Fe3 1.996 . S
O17 C10 1.255 . S
C18 O11 1.287 . S
C18 O12 1.255 1_554 S
O19 Fe1 2.003 . S
O19 C15 1.297 . S
O20 Fe3 1.997 . S
O20 C15 1.231 1_556 S
C21 O4 1.295 . S
C21 O5 1.235 . S
Fe22 O24 1.918 . S
Fe22 O27 1.997 . S
Fe22 O28 2.002 . S
Fe22 O33 1.976 . S
Fe22 O36 1.996 . S
Fe23 O24 1.918 . S
Fe23 O31 1.997 . S
Fe23 O34 1.996 . S
Fe23 O38 1.976 . S
Fe23 O41 2.002 . S
O24 Fe22 1.918 . S
O24 Fe23 1.918 . S
O24 Fe25 1.918 . S
Fe25 O24 1.918 . S
Fe25 O26 2.002 . S
Fe25 O35 1.976 . S
Fe25 O39 1.996 . S
Fe25 O42 1.997 . S
O26 Fe25 2.002 . S
O26 C43 1.295 . S
O27 Fe22 1.997 . S
O27 C43 1.235 . S
O28 Fe22 2.002 . S
O28 C29 1.295 . S
C29 O28 1.295 . S
C29 O31 1.235 . S
C30 O35 1.287 . S
C30 O36 1.255 . S
O31 Fe23 1.997 . S
O31 C29 1.235 . S
C32 O38 1.287 . S
C32 O39 1.255 . S
O33 Fe22 1.976 . S
O33 C40 1.287 . S
O34 Fe23 1.996 . S
O34 C40 1.255 . S
O35 Fe25 1.976 . S
O35 C30 1.287 . S
O36 Fe22 1.996 . S
O36 C30 1.255 . S
C37 O41 1.295 . S
C37 O42 1.235 . S
O38 Fe23 1.976 . S
O38 C32 1.287 . S
O39 Fe25 1.996 . S
O39 C32 1.255 . S
C40 O33 1.287 . S
C40 O34 1.255 . S
O41 Fe23 2.002 . S
O41 C37 1.295 . S
O42 Fe25 1.997 . S
O42 C37 1.235 . S
C43 O26 1.295 . S
C43 O27 1.235 . S
Fe44 O46 1.918 . S
Fe44 O49 1.997 . S
Fe44 O50 2.002 . S
Fe44 O55 1.976 . S
Fe44 O58 1.996 . S
Fe45 O46 1.918 . S
Fe45 O53 1.997 . S
Fe45 O56 1.996 . S
Fe45 O60 1.976 . S
Fe45 O63 2.002 . S
O46 Fe44 1.918 . S
O46 Fe45 1.918 . S
O46 Fe47 1.918 . S
Fe47 O46 1.918 . S
Fe47 O48 2.002 . S
Fe47 O57 1.976 . S
Fe47 O61 1.996 . S
Fe47 O64 1.997 . S
O48 Fe47 2.002 . S
O48 C65 1.295 . S
O49 Fe44 1.997 . S
O49 C65 1.235 . S
O50 Fe44 2.002 . S
O50 C51 1.295 . S
C51 O50 1.295 . S
C51 O53 1.235 . S
C52 O57 1.287 . S
C52 O58 1.255 . S
O53 Fe45 1.997 . S
O53 C51 1.235 . S
C54 O60 1.287 . S
C54 O61 1.255 . S
O55 Fe44 1.976 . S
O55 C62 1.287 . S
O56 Fe45 1.996 . S
O56 C62 1.255 . S
O57 Fe47 1.976 . S
O57 C52 1.287 . S
O58 Fe44 1.996 . S
O58 C52 1.255 . S
C59 O63 1.295 . S
C59 O64 1.235 . S
O60 Fe45 1.976 . S
O60 C54 1.287 . S
O61 Fe47 1.996 . S
O61 C54 1.255 . S
C62 O55 1.287 . S
C62 O56 1.255 . S
O63 Fe45 2.002 . S
O63 C59 1.295 . S
O64 Fe47 1.997 . S
O64 C59 1.235 . S
C65 O48 1.295 . S
C65 O49 1.235 . S
Fe66 O68 1.918 . S
Fe66 O71 1.997 . S
Fe66 O72 2.002 1_556 S
Fe66 O77 1.976 . S
Fe66 O80 1.996 . S
Fe67 O68 1.918 1_554 S
Fe67 O75 1.997 . S
Fe67 O78 1.996 1_554 S
Fe67 O82 1.976 . S
Fe67 O85 2.002 . S
O68 Fe66 1.918 . S
O68 Fe67 1.918 1_556 S
O68 Fe69 1.918 1_556 S
Fe69 O68 1.918 1_554 S
Fe69 O70 2.003 . S
Fe69 O79 1.973 1_554 S
Fe69 O83 1.995 1_554 S
Fe69 O86 1.999 . S
O70 Fe69 2.003 . S
O70 C87 1.297 . S
O71 Fe66 1.997 . S
O71 C87 1.231 1_556 S
O72 Fe66 2.002 1_554 S
O72 C73 1.295 . S
C73 O72 1.295 . S
C73 O75 1.235 . S
C74 O79 1.287 . S
C74 O80 1.255 . S
O75 Fe67 1.997 . S
O75 C73 1.235 . S
C76 O82 1.287 . S
C76 O83 1.255 1_554 S
O77 Fe66 1.976 . S
O77 C84 1.287 . S
O78 Fe67 1.996 1_556 S
O78 C84 1.255 . S
O79 Fe69 1.973 1_556 S
O79 C74 1.287 . S
O80 Fe66 1.996 . S
O80 C74 1.255 . S
C81 O85 1.295 . S
C81 O86 1.235 . S
O82 Fe67 1.976 . S
O82 C76 1.287 . S
O83 Fe69 1.995 1_556 S
O83 C76 1.255 1_556 S
C84 O77 1.287 . S
C84 O78 1.255 . S
O85 Fe67 2.002 . S
O85 C81 1.295 . S
O86 Fe69 1.999 . S
O86 C81 1.235 . S
C87 O70 1.297 . S
C87 O71 1.231 1_554 S
Fe88 O90 1.918 . S
Fe88 O93 1.997 . S
Fe88 O94 2.002 . S
Fe88 O99 1.976 . S
Fe88 O102 1.996 . S
Fe89 O90 1.918 . S
Fe89 O97 1.997 . S
Fe89 O100 1.996 . S
Fe89 O104 1.976 . S
Fe89 O107 2.002 . S
O90 Fe88 1.918 . S
O90 Fe89 1.918 . S
O90 Fe91 1.918 . S
Fe91 O90 1.918 . S
Fe91 O92 2.002 . S
Fe91 O101 1.976 . S
Fe91 O105 1.996 . S
Fe91 O108 1.997 . S
O92 Fe91 2.002 . S
O92 C109 1.295 . S
O93 Fe88 1.997 . S
O93 C109 1.235 . S
O94 Fe88 2.002 . S
O94 C95 1.295 . S
C95 O94 1.295 . S
C95 O97 1.235 . S
C96 O101 1.287 . S
C96 O102 1.255 . S
O97 Fe89 1.997 . S
O97 C95 1.235 . S
C98 O104 1.287 . S
C98 O105 1.255 . S
O99 Fe88 1.976 . S
O99 C106 1.287 . S
O100 Fe89 1.996 . S
O100 C106 1.255 . S
O101 Fe91 1.976 . S
O101 C96 1.287 . S
O102 Fe88 1.996 . S
O102 C96 1.255 . S
C103 O107 1.295 . S
C103 O108 1.235 . S
O104 Fe89 1.976 . S
O104 C98 1.287 . S
O105 Fe91 1.996 . S
O105 C98 1.255 . S
C106 O99 1.287 . S
C106 O100 1.255 . S
O107 Fe89 2.002 . S
O107 C103 1.295 . S
O108 Fe91 1.997 . S
O108 C103 1.235 . S
C109 O92 1.295 . S
C109 O93 1.235 . S
Fe110 O112 1.918 . S
Fe110 O115 1.997 . S
Fe110 O116 2.002 . S
Fe110 O121 1.976 . S
Fe110 O124 1.996 . S
Fe111 O112 1.918 . S
Fe111 O119 1.997 . S
Fe111 O122 1.996 . S
Fe111 O126 1.976 . S
Fe111 O129 2.002 . S
O112 Fe110 1.918 . S
O112 Fe111 1.918 . S
O112 Fe113 1.918 . S
Fe113 O112 1.918 . S
Fe113 O114 2.002 . S
Fe113 O123 1.976 . S
Fe113 O127 1.996 . S
Fe113 O130 1.997 . S
O114 Fe113 2.002 . S
O114 C131 1.295 . S
O115 Fe110 1.997 . S
O115 C131 1.235 . S
O116 Fe110 2.002 . S
O116 C117 1.295 . S
C117 O116 1.295 . S
C117 O119 1.235 . S
C118 O123 1.287 . S
C118 O124 1.255 . S
O119 Fe111 1.997 . S
O119 C117 1.235 . S
C120 O126 1.287 . S
C120 O127 1.255 . S
O121 Fe110 1.976 . S
O121 C128 1.287 . S
O122 Fe111 1.996 . S
O122 C128 1.255 . S
O123 Fe113 1.976 . S
O123 C118 1.287 . S
O124 Fe110 1.996 . S
O124 C118 1.255 . S
C125 O129 1.295 . S
C125 O130 1.235 . S
O126 Fe111 1.976 . S
O126 C120 1.287 . S
O127 Fe113 1.996 . S
O127 C120 1.255 . S
C128 O121 1.287 . S
C128 O122 1.255 . S
O129 Fe111 2.002 . S
O129 C125 1.295 . S
O130 Fe113 1.997 . S
O130 C125 1.235 . S
C131 O114 1.295 . S
C131 O115 1.235 . S
H132 C140 0.950 . S
H133 C145 0.950 . S
H134 C142 0.950 . S
H135 C144 0.950 . S
H136 C146 0.950 . S
H137 C148 0.950 . S
H138 C150 0.950 . S
H139 C151 0.950 . S
C140 H132 0.950 . S
C140 C141 1.386 . S
C140 C142 1.391 . S
C141 C140 1.386 . S
C141 C145 1.393 . S
C142 H134 0.950 . S
C142 C140 1.391 . S
C142 C143 1.400 . S
C143 C142 1.400 . S
C143 C144 1.398 . S
C143 C149 1.491 . S
C144 H135 0.950 . S
C144 C143 1.398 . S
C144 C145 1.391 . S
C145 H133 0.950 . S
C145 C141 1.393 . S
C145 C144 1.391 . S
C146 H136 0.950 . S
C146 C147 1.386 1_554 S
C146 C148 1.391 1_554 S
C147 C146 1.386 1_556 S
C147 C151 1.393 . S
C148 H137 0.950 . S
C148 C146 1.391 1_556 S
C148 C149 1.400 . S
C149 C143 1.491 . S
C149 C148 1.400 . S
C149 C150 1.398 . S
C150 H138 0.950 . S
C150 C149 1.398 . S
C150 C151 1.391 . S
C151 H139 0.950 . S
C151 C147 1.393 . S
C151 C150 1.391 . S
H152 C160 0.950 . S
H153 C165 0.950 1_556 S
H154 C162 0.950 . S
H155 C164 0.950 . S
H156 C166 0.950 . S
H157 C168 0.950 . S
H158 C170 0.950 1_455 S
H159 C171 0.950 . S
C160 H152 0.950 . S
C160 C161 1.386 . S
C160 C162 1.391 . S
C161 C160 1.386 . S
C161 C165 1.393 . S
C162 H154 0.950 . S
C162 C160 1.391 . S
C162 C163 1.400 . S
C163 C162 1.400 . S
C163 C164 1.398 . S
C163 C169 1.491 1_455 S
C164 H155 0.950 . S
C164 C163 1.398 . S
C164 C165 1.391 . S
C165 H153 0.950 1_554 S
C165 C161 1.393 . S
C165 C164 1.391 . S
C166 H156 0.950 . S
C166 C167 1.386 . S
C166 C168 1.391 . S
C167 C166 1.386 . S
C167 C171 1.393 . S
C168 H157 0.950 . S
C168 C166 1.391 . S
C168 C169 1.400 . S
C169 C163 1.491 1_655 S
C169 C168 1.400 . S
C169 C170 1.398 . S
C170 H158 0.950 1_655 S
C170 C169 1.398 . S
C170 C171 1.391 . S
C171 H159 0.950 . S
C171 C167 1.393 . S
C171 C170 1.391 . S
H172 C180 0.950 . S
H173 C185 0.950 . S
H174 C182 0.950 . S
H175 C184 0.950 . S
H176 C186 0.950 . S
H177 C188 0.950 . S
H178 C190 0.950 . S
H179 C191 0.950 . S
C180 H172 0.950 . S
C180 C181 1.386 . S
C180 C182 1.391 . S
C181 C180 1.386 . S
C181 C185 1.393 . S
C182 H174 0.950 . S
C182 C180 1.391 . S
C182 C183 1.400 . S
C183 C182 1.400 . S
C183 C184 1.398 . S
C183 C189 1.491 1_545 S
C184 H175 0.950 . S
C184 C183 1.398 . S
C184 C185 1.391 . S
C185 H173 0.950 . S
C185 C181 1.393 . S
C185 C184 1.391 . S
C186 H176 0.950 . S
C186 C187 1.386 . S
C186 C188 1.391 . S
C187 C186 1.386 . S
C187 C191 1.393 . S
C188 H177 0.950 . S
C188 C186 1.391 . S
C188 C189 1.400 . S
C189 C183 1.491 1_565 S
C189 C188 1.400 . S
C189 C190 1.398 . S
C190 H178 0.950 . S
C190 C189 1.398 . S
C190 C191 1.391 . S
C191 H179 0.950 . S
C191 C187 1.393 . S
C191 C190 1.391 . S
H192 C200 0.950 . S
H193 C205 0.950 . S
H194 C202 0.950 . S
H195 C204 0.950 . S
H196 C206 0.950 . S
H197 C208 0.950 . S
H198 C210 0.950 . S
H199 C211 0.950 1_554 S
C200 H192 0.950 . S
C200 C201 1.386 . S
C200 C202 1.391 . S
C201 C200 1.386 . S
C201 C205 1.393 . S
C202 H194 0.950 . S
C202 C200 1.391 . S
C202 C203 1.400 . S
C203 C202 1.400 . S
C203 C204 1.398 . S
C203 C209 1.491 . S
C204 H195 0.950 . S
C204 C203 1.398 . S
C204 C205 1.391 . S
C205 H193 0.950 . S
C205 C201 1.393 . S
C205 C204 1.391 . S
C206 H196 0.950 . S
C206 C207 1.386 . S
C206 C208 1.391 . S
C207 C206 1.386 . S
C207 C211 1.393 . S
C208 H197 0.950 . S
C208 C206 1.391 . S
C208 C209 1.400 . S
C209 C203 1.491 . S
C209 C208 1.400 . S
C209 C210 1.398 . S
C210 H198 0.950 . S
C210 C209 1.398 . S
C210 C211 1.391 . S
C211 H199 0.950 1_556 S
C211 C207 1.393 . S
C211 C210 1.391 . S
H212 C220 0.950 . S
H213 C225 0.950 . S
H214 C222 0.950 . S
H215 C224 0.950 . S
H216 C226 0.950 . S
H217 C228 0.950 . S
H218 C230 0.950 . S
H219 C231 0.950 . S
C220 H212 0.950 . S
C220 C221 1.386 . S
C220 C222 1.391 . S
C221 C220 1.386 . S
C221 C225 1.393 . S
C222 H214 0.950 . S
C222 C220 1.391 . S
C222 C223 1.400 . S
C223 C222 1.400 . S
C223 C224 1.398 . S
C223 C229 1.491 1_455 S
C224 H215 0.950 . S
C224 C223 1.398 . S
C224 C225 1.391 . S
C225 H213 0.950 . S
C225 C221 1.393 . S
C225 C224 1.391 . S
C226 H216 0.950 . S
C226 C227 1.386 . S
C226 C228 1.391 . S
C227 C226 1.386 . S
C227 C231 1.393 . S
C228 H217 0.950 . S
C228 C226 1.391 . S
C228 C229 1.400 . S
C229 C223 1.491 1_655 S
C229 C228 1.400 . S
C229 C230 1.398 . S
C230 H218 0.950 . S
C230 C229 1.398 . S
C230 C231 1.391 . S
C231 H219 0.950 . S
C231 C227 1.393 . S
C231 C230 1.391 . S
H232 C240 0.950 . S
H233 C245 0.950 . S
H234 C242 0.950 . S
H235 C244 0.950 . S
H236 C246 0.950 . S
H237 C248 0.950 . S
H238 C250 0.950 . S
H239 C251 0.950 . S
C240 H232 0.950 . S
C240 C241 1.386 . S
C240 C242 1.391 . S
C241 C240 1.386 . S
C241 C245 1.393 . S
C242 H234 0.950 . S
C242 C240 1.391 . S
C242 C243 1.400 . S
C243 C242 1.400 . S
C243 C244 1.398 . S
C243 C249 1.491 1_545 S
C244 H235 0.950 . S
C244 C243 1.398 . S
C244 C245 1.391 . S
C245 H233 0.950 . S
C245 C241 1.393 . S
C245 C244 1.391 . S
C246 H236 0.950 . S
C246 C247 1.386 . S
C246 C248 1.391 . S
C247 C246 1.386 . S
C247 C251 1.393 . S
C248 H237 0.950 . S
C248 C246 1.391 . S
C248 C249 1.400 . S
C249 C243 1.491 1_565 S
C249 C248 1.400 . S
C249 C250 1.398 . S
C250 H238 0.950 . S
C250 C249 1.398 . S
C250 C251 1.391 . S
C251 H239 0.950 . S
C251 C247 1.393 . S
C251 C250 1.391 . S
H252 C260 0.950 . S
H253 C265 0.950 . S
H254 C262 0.950 . S
H255 C264 0.950 . S
H256 C266 0.950 . S
H257 C268 0.950 . S
H258 C270 0.950 . S
H259 C271 0.950 . S
C260 H252 0.950 . S
C260 C261 1.386 . S
C260 C262 1.391 . S
C261 C260 1.386 . S
C261 C265 1.393 . S
C262 H254 0.950 . S
C262 C260 1.391 . S
C262 C263 1.400 . S
C263 C262 1.400 . S
C263 C264 1.398 . S
C263 C269 1.491 . S
C264 H255 0.950 . S
C264 C263 1.398 . S
C264 C265 1.391 . S
C265 H253 0.950 . S
C265 C261 1.393 . S
C265 C264 1.391 . S
C266 H256 0.950 . S
C266 C267 1.386 . S
C266 C268 1.391 . S
C267 C266 1.386 . S
C267 C271 1.393 . S
C268 H257 0.950 . S
C268 C266 1.391 . S
C268 C269 1.400 . S
C269 C263 1.491 . S
C269 C268 1.400 . S
C269 C270 1.398 . S
C270 H258 0.950 . S
C270 C269 1.398 . S
C270 C271 1.391 . S
C271 H259 0.950 . S
C271 C267 1.393 . S
C271 C270 1.391 . S
H272 C280 0.950 . S
H273 C285 0.950 . S
H274 C282 0.950 . S
H275 C284 0.950 . S
H276 C286 0.950 . S
H277 C288 0.950 . S
H278 C290 0.950 . S
H279 C291 0.950 . S
C280 H272 0.950 . S
C280 C281 1.386 . S
C280 C282 1.391 1_554 S
C281 C280 1.386 . S
C281 C285 1.393 . S
C282 H274 0.950 . S
C282 C280 1.391 1_556 S
C282 C283 1.400 . S
C283 C282 1.400 . S
C283 C284 1.398 . S
C283 C289 1.491 . S
C284 H275 0.950 . S
C284 C283 1.398 . S
C284 C285 1.391 1_556 S
C285 H273 0.950 . S
C285 C281 1.393 . S
C285 C284 1.391 1_554 S
C286 H276 0.950 . S
C286 C287 1.386 . S
C286 C288 1.391 . S
C287 C286 1.386 . S
C287 C291 1.393 . S
C288 H277 0.950 . S
C288 C286 1.391 . S
C288 C289 1.400 . S
C289 C283 1.491 . S
C289 C288 1.400 . S
C289 C290 1.398 . S
C290 H278 0.950 . S
C290 C289 1.398 . S
C290 C291 1.391 . S
C291 H279 0.950 . S
C291 C287 1.393 . S
C291 C290 1.391 . S
H292 C300 0.950 . S
H293 C305 0.950 . S
H294 C302 0.950 . S
H295 C304 0.950 . S
H296 C306 0.950 . S
H297 C308 0.950 . S
H298 C310 0.950 . S
H299 C311 0.950 . S
C300 H292 0.950 . S
C300 C301 1.386 . S
C300 C302 1.391 . S
C301 C300 1.386 . S
C301 C305 1.393 . S
C302 H294 0.950 . S
C302 C300 1.391 . S
C302 C303 1.400 . S
C303 C302 1.400 . S
C303 C304 1.398 . S
C303 C309 1.491 . S
C304 H295 0.950 . S
C304 C303 1.398 . S
C304 C305 1.391 . S
C305 H293 0.950 . S
C305 C301 1.393 . S
C305 C304 1.391 . S
C306 H296 0.950 . S
C306 C307 1.386 . S
C306 C308 1.391 1_556 S
C307 C306 1.386 . S
C307 C311 1.393 . S
C308 H297 0.950 . S
C308 C306 1.391 1_554 S
C308 C309 1.400 . S
C309 C303 1.491 . S
C309 C308 1.400 . S
C309 C310 1.398 . S
C310 H298 0.950 . S
C310 C309 1.398 . S
C310 C311 1.391 1_554 S
C311 H299 0.950 . S
C311 C307 1.393 . S
C311 C310 1.391 1_556 S
H312 C320 0.950 . S
H313 C325 0.950 . S
H314 C322 0.950 . S
H315 C324 0.950 . S
H316 C326 0.950 . S
H317 C328 0.950 . S
H318 C330 0.950 . S
H319 C331 0.950 . S
C320 H312 0.950 . S
C320 C321 1.386 . S
C320 C322 1.391 . S
C321 C320 1.386 . S
C321 C325 1.393 . S
C322 H314 0.950 . S
C322 C320 1.391 . S
C322 C323 1.400 . S
C323 C322 1.400 . S
C323 C324 1.398 . S
C323 C329 1.491 . S
C324 H315 0.950 . S
C324 C323 1.398 . S
C324 C325 1.391 . S
C325 H313 0.950 . S
C325 C321 1.393 . S
C325 C324 1.391 . S
C326 H316 0.950 . S
C326 C327 1.386 . S
C326 C328 1.391 . S
C327 C326 1.386 . S
C327 C331 1.393 . S
C328 H317 0.950 . S
C328 C326 1.391 . S
C328 C329 1.400 . S
C329 C323 1.491 . S
C329 C328 1.400 . S
C329 C330 1.398 . S
C330 H318 0.950 . S
C330 C329 1.398 . S
C330 C331 1.391 . S
C331 H319 0.950 . S
C331 C327 1.393 . S
C331 C330 1.391 . S
H332 C340 0.950 . S
H333 C345 0.950 . S
H334 C342 0.950 . S
H335 C344 0.950 . S
H336 C346 0.950 . S
H337 C348 0.950 . S
H338 C350 0.950 . S
H339 C351 0.950 . S
C340 H332 0.950 . S
C340 C341 1.386 . S
C340 C342 1.391 . S
C341 C340 1.386 . S
C341 C345 1.393 . S
C342 H334 0.950 . S
C342 C340 1.391 . S
C342 C343 1.400 . S
C343 C342 1.400 . S
C343 C344 1.398 . S
C343 C349 1.491 . S
C344 H335 0.950 . S
C344 C343 1.398 . S
C344 C345 1.391 . S
C345 H333 0.950 . S
C345 C341 1.393 . S
C345 C344 1.391 . S
C346 H336 0.950 . S
C346 C347 1.386 . S
C346 C348 1.391 1_554 S
C347 C346 1.386 . S
C347 C351 1.393 . S
C348 H337 0.950 . S
C348 C346 1.391 1_556 S
C348 C349 1.400 . S
C349 C343 1.491 . S
C349 C348 1.400 . S
C349 C350 1.398 . S
C350 H338 0.950 . S
C350 C349 1.398 . S
C350 C351 1.391 1_556 S
C351 H339 0.950 . S
C351 C347 1.393 . S
C351 C350 1.391 1_554 S
H352 C360 0.950 . S
H353 C365 0.950 . S
H354 C362 0.950 . S
H355 C364 0.950 . S
H356 C366 0.950 . S
H357 C368 0.950 . S
H358 C370 0.950 . S
H359 C371 0.950 . S
C360 H352 0.950 . S
C360 C361 1.386 . S
C360 C362 1.391 . S
C361 C360 1.386 . S
C361 C365 1.393 . S
C362 H354 0.950 . S
C362 C360 1.391 . S
C362 C363 1.400 . S
C363 C362 1.400 . S
C363 C364 1.398 . S
C363 C369 1.491 . S
C364 H355 0.950 . S
C364 C363 1.398 . S
C364 C365 1.391 . S
C365 H353 0.950 . S
C365 C361 1.393 . S
C365 C364 1.391 . S
C366 H356 0.950 . S
C366 C367 1.386 . S
C366 C368 1.391 1_556 S
C367 C366 1.386 . S
C367 C371 1.393 . S
C368 H357 0.950 . S
C368 C366 1.391 1_554 S
C368 C369 1.400 . S
C369 C363 1.491 . S
C369 C368 1.400 . S
C369 C370 1.398 . S
C370 H358 0.950 . S
C370 C369 1.398 . S
C370 C371 1.391 1_554 S
C371 H359 0.950 . S
C371 C367 1.393 . S
C371 C370 1.391 1_556 S
H372 C380 0.950 . S
H373 C385 0.950 . S
H374 C382 0.950 . S
H375 C384 0.950 . S
H376 C386 0.950 . S
H377 C388 0.950 . S
H378 C390 0.950 . S
H379 C391 0.950 . S
C380 H372 0.950 . S
C380 C381 1.386 . S
C380 C382 1.391 . S
C381 C380 1.386 . S
C381 C385 1.393 . S
C382 H374 0.950 . S
C382 C380 1.391 . S
C382 C383 1.400 . S
C383 C382 1.400 . S
C383 C384 1.398 . S
C383 C389 1.491 . S
C384 H375 0.950 . S
C384 C383 1.398 . S
C384 C385 1.391 . S
C385 H373 0.950 . S
C385 C381 1.393 . S
C385 C384 1.391 . S
C386 H376 0.950 . S
C386 C387 1.386 . S
C386 C388 1.391 . S
C387 C386 1.386 . S
C387 C391 1.393 . S
C388 H377 0.950 . S
C388 C386 1.391 . S
C388 C389 1.400 . S
C389 C383 1.491 . S
C389 C388 1.400 . S
C389 C390 1.398 . S
C390 H378 0.950 . S
C390 C389 1.398 . S
C390 C391 1.391 . S
C391 H379 0.950 . S
C391 C387 1.393 . S
C391 C390 1.391 . S
H392 C400 0.950 . S
H393 C405 0.950 . S
H394 C402 0.950 . S
H395 C404 0.950 . S
H396 C406 0.950 . S
H397 C408 0.950 . S
H398 C410 0.950 . S
H399 C411 0.950 . S
C400 H392 0.950 . S
C400 C401 1.386 . S
C400 C402 1.391 . S
C401 C400 1.386 . S
C401 C405 1.393 . S
C402 H394 0.950 . S
C402 C400 1.391 . S
C402 C403 1.400 . S
C403 C402 1.400 . S
C403 C404 1.398 . S
C403 C409 1.491 . S
C404 H395 0.950 . S
C404 C403 1.398 . S
C404 C405 1.391 . S
C405 H393 0.950 . S
C405 C401 1.393 . S
C405 C404 1.391 . S
C406 H396 0.950 . S
C406 C407 1.386 . S
C406 C408 1.391 . S
C407 C406 1.386 . S
C407 C411 1.393 . S
C408 H397 0.950 . S
C408 C406 1.391 . S
C408 C409 1.400 . S
C409 C403 1.491 . S
C409 C408 1.400 . S
C409 C410 1.398 . S
C410 H398 0.950 . S
C410 C409 1.398 . S
C410 C411 1.391 . S
C411 H399 0.950 . S
C411 C407 1.393 . S
C411 C410 1.391 . S
H412 C420 0.950 . S
H413 C425 0.950 . S
H414 C422 0.950 . S
H415 C424 0.950 . S
H416 C426 0.950 . S
H417 C428 0.950 . S
H418 C430 0.950 . S
H419 C431 0.950 . S
C420 H412 0.950 . S
C420 C421 1.386 . S
C420 C422 1.391 . S
C421 C420 1.386 . S
C421 C425 1.393 . S
C422 H414 0.950 . S
C422 C420 1.391 . S
C422 C423 1.400 . S
C423 C422 1.400 . S
C423 C424 1.398 . S
C423 C429 1.491 . S
C424 H415 0.950 . S
C424 C423 1.398 . S
C424 C425 1.391 . S
C425 H413 0.950 . S
C425 C421 1.393 . S
C425 C424 1.391 . S
C426 H416 0.950 . S
C426 C427 1.386 . S
C426 C428 1.391 . S
C427 C426 1.386 . S
C427 C431 1.393 . S
C428 H417 0.950 . S
C428 C426 1.391 . S
C428 C429 1.400 . S
C429 C423 1.491 . S
C429 C428 1.400 . S
C429 C430 1.398 . S
C430 H418 0.950 . S
C430 C429 1.398 . S
C430 C431 1.391 . S
C431 H419 0.950 . S
C431 C427 1.393 . S
C431 C430 1.391 . S
H432 C440 0.950 . S
H433 C445 0.950 . S
H434 C442 0.950 . S
H435 C444 0.950 . S
H436 C446 0.950 . S
H437 C448 0.950 . S
H438 C450 0.950 . S
H439 C451 0.950 . S
C440 H432 0.950 . S
C440 C441 1.386 . S
C440 C442 1.391 . S
C441 C440 1.386 . S
C441 C445 1.393 . S
C442 H434 0.950 . S
C442 C440 1.391 . S
C442 C443 1.400 . S
C443 C442 1.400 . S
C443 C444 1.398 . S
C443 C449 1.491 . S
C444 H435 0.950 . S
C444 C443 1.398 . S
C444 C445 1.391 . S
C445 H433 0.950 . S
C445 C441 1.393 . S
C445 C444 1.391 . S
C446 H436 0.950 . S
C446 C447 1.386 . S
C446 C448 1.391 . S
C447 C446 1.386 . S
C447 C451 1.393 . S
C448 H437 0.950 . S
C448 C446 1.391 . S
C448 C449 1.400 . S
C449 C443 1.491 . S
C449 C448 1.400 . S
C449 C450 1.398 . S
C450 H438 0.950 . S
C450 C449 1.398 . S
C450 C451 1.391 . S
C451 H439 0.950 . S
C451 C447 1.393 . S
C451 C450 1.391 . S
H452 C460 0.950 . S
H453 C465 0.950 . S
H454 C462 0.950 . S
H455 C464 0.950 . S
H456 C466 0.950 . S
H457 C468 0.950 . S
H458 C470 0.950 . S
H459 C471 0.950 . S
C460 H452 0.950 . S
C460 C461 1.386 . S
C460 C462 1.391 . S
C461 C460 1.386 . S
C461 C465 1.393 . S
C462 H454 0.950 . S
C462 C460 1.391 . S
C462 C463 1.400 . S
C463 C462 1.400 . S
C463 C464 1.398 . S
C463 C469 1.491 . S
C464 H455 0.950 . S
C464 C463 1.398 . S
C464 C465 1.391 . S
C465 H453 0.950 . S
C465 C461 1.393 . S
C465 C464 1.391 . S
C466 H456 0.950 . S
C466 C467 1.386 . S
C466 C468 1.391 . S
C467 C466 1.386 . S
C467 C471 1.393 . S
C468 H457 0.950 . S
C468 C466 1.391 . S
C468 C469 1.400 . S
C469 C463 1.491 . S
C469 C468 1.400 . S
C469 C470 1.398 . S
C470 H458 0.950 . S
C470 C469 1.398 . S
C470 C471 1.391 . S
C471 H459 0.950 . S
C471 C467 1.393 . S
C471 C470 1.391 . S
H472 C480 0.950 . S
H473 C485 0.950 . S
H474 C482 0.950 . S
H475 C484 0.950 . S
H476 C486 0.950 . S
H477 C488 0.950 . S
H478 C490 0.950 . S
H479 C491 0.950 . S
C480 H472 0.950 . S
C480 C481 1.386 . S
C480 C482 1.391 . S
C481 C480 1.386 . S
C481 C485 1.393 . S
C482 H474 0.950 . S
C482 C480 1.391 . S
C482 C483 1.400 . S
C483 C482 1.400 . S
C483 C484 1.398 . S
C483 C489 1.491 . S
C484 H475 0.950 . S
C484 C483 1.398 . S
C484 C485 1.391 . S
C485 H473 0.950 . S
C485 C481 1.393 . S
C485 C484 1.391 . S
C486 H476 0.950 . S
C486 C487 1.386 . S
C486 C488 1.391 . S
C487 C486 1.386 . S
C487 C491 1.393 . S
C488 H477 0.950 . S
C488 C486 1.391 . S
C488 C489 1.400 . S
C489 C483 1.491 . S
C489 C488 1.400 . S
C489 C490 1.398 . S
C490 H478 0.950 . S
C490 C489 1.398 . S
C490 C491 1.391 . S
C491 H479 0.950 . S
C491 C487 1.393 . S
C491 C490 1.391 . S
C141 C125 1.681 . S
C147 C18 1.666 1_556 S
C161 C15 1.699 . S
C167 C40 1.669 . S
C181 C37 1.695 . S
C187 C54 1.675 . S
C201 C65 1.686 . S
C207 C76 1.658 1_556 S
C221 C98 1.675 . S
C227 C87 1.699 . S
C241 C128 1.657 . S
C247 C109 1.684 . S
C261 C10 0.962 . S
C267 C7 0.943 . S
C281 C32 0.936 . S
C287 C29 0.962 . S
C301 C52 0.942 . S
C307 C59 0.956 . S
C321 C74 0.960 . S
C327 C81 0.953 . S
C341 C103 0.968 . S
C347 C96 0.933 . S
C361 C120 0.944 . S
C367 C117 0.954 . S
C381 C21 1.226 . S
C387 C106 1.241 . S
C401 C43 1.230 . S
C407 C118 1.243 . S
C421 C8 1.254 . S
C427 C51 1.241 . S
C441 C30 1.236 . S
C447 C73 1.220 . S
C461 C95 1.218 . S
C467 C62 1.239 . S
C481 C84 1.239 . S
C487 C131 1.218 . S
