# Generated by pormake.
# Topology ukp, (4)-cn, num edge types: 1
# Building blocks:
#     Node 0, Type 0, BuildingBlock: NAWXER_clean_sbu_0, # of connection points: 4
#     Node 1, Type 0, BuildingBlock: NAWXER_clean_sbu_0, # of connection points: 4
#     Node 2, Type 0, BuildingBlock: NAWXER_clean_sbu_0, # of connection points: 4
#     Node 3, Type 0, BuildingBlock: NAWXER_clean_sbu_0, # of connection points: 4
#     Node 4, Type 0, BuildingBlock: NAWXER_clean_sbu_0, # of connection points: 4
#     Node 5, Type 0, BuildingBlock: NAWXER_clean_sbu_0, # of connection points: 4
#     Node 6, Type 0, BuildingBlock: NAWXER_clean_sbu_0, # of connection points: 4
#     Node 7, Type 0, BuildingBlock: NAWXER_clean_sbu_0, # of connection points: 4
#     Node 8, Type 0, BuildingBlock: NAWXER_clean_sbu_0, # of connection points: 4
#     Node 9, Type 0, BuildingBlock: NAWXER_clean_sbu_0, # of connection points: 4
#     Node 10, Type 0, BuildingBlock: NAWXER_clean_sbu_0, # of connection points: 4
#     Node 11, Type 0, BuildingBlock: NAWXER_clean_sbu_0, # of connection points: 4
#     Node 12, Type 0, BuildingBlock: NAWXER_clean_sbu_0, # of connection points: 4
#     Node 13, Type 0, BuildingBlock: NAWXER_clean_sbu_0, # of connection points: 4
#     Node 14, Type 0, BuildingBlock: NAWXER_clean_sbu_0, # of connection points: 4
#     Node 15, Type 0, BuildingBlock: NAWXER_clean_sbu_0, # of connection points: 4
#     Node 16, Type 0, BuildingBlock: NAWXER_clean_sbu_0, # of connection points: 4
#     Node 17, Type 0, BuildingBlock: NAWXER_clean_sbu_0, # of connection points: 4
#     Node 18, Type 0, BuildingBlock: NAWXER_clean_sbu_0, # of connection points: 4
#     Node 19, Type 0, BuildingBlock: NAWXER_clean_sbu_0, # of connection points: 4
#     Node 20, Type 0, BuildingBlock: NAWXER_clean_sbu_0, # of connection points: 4
#     Node 21, Type 0, BuildingBlock: NAWXER_clean_sbu_0, # of connection points: 4
#     Node 22, Type 0, BuildingBlock: NAWXER_clean_sbu_0, # of connection points: 4
#     Node 23, Type 0, BuildingBlock: NAWXER_clean_sbu_0, # of connection points: 4
#     Node 24, Type 0, BuildingBlock: NAWXER_clean_sbu_0, # of connection points: 4
#     Node 25, Type 0, BuildingBlock: NAWXER_clean_sbu_0, # of connection points: 4
#     Node 26, Type 0, BuildingBlock: NAWXER_clean_sbu_0, # of connection points: 4
#     Node 27, Type 0, BuildingBlock: NAWXER_clean_sbu_0, # of connection points: 4
#     Node 28, Type 0, BuildingBlock: NAWXER_clean_sbu_0, # of connection points: 4
#     Node 29, Type 0, BuildingBlock: NAWXER_clean_sbu_0, # of connection points: 4
#     Node 30, Type 0, BuildingBlock: NAWXER_clean_sbu_0, # of connection points: 4
#     Node 31, Type 0, BuildingBlock: NAWXER_clean_sbu_0, # of connection points: 4
#     Node 32, Type 0, BuildingBlock: NAWXER_clean_sbu_0, # of connection points: 4
#     Node 33, Type 0, BuildingBlock: NAWXER_clean_sbu_0, # of connection points: 4
#     Node 34, Type 0, BuildingBlock: NAWXER_clean_sbu_0, # of connection points: 4
#     Node 35, Type 0, BuildingBlock: NAWXER_clean_sbu_0, # of connection points: 4
#     Node 36, Type 0, BuildingBlock: NAWXER_clean_sbu_0, # of connection points: 4
#     Node 37, Type 0, BuildingBlock: NAWXER_clean_sbu_0, # of connection points: 4
#     Node 38, Type 0, BuildingBlock: NAWXER_clean_sbu_0, # of connection points: 4
#     Node 39, Type 0, BuildingBlock: NAWXER_clean_sbu_0, # of connection points: 4
#     Node 40, Type 0, BuildingBlock: NAWXER_clean_sbu_0, # of connection points: 4
#     Node 41, Type 0, BuildingBlock: NAWXER_clean_sbu_0, # of connection points: 4
#     Node 42, Type 0, BuildingBlock: NAWXER_clean_sbu_0, # of connection points: 4
#     Node 43, Type 0, BuildingBlock: NAWXER_clean_sbu_0, # of connection points: 4
#     Node 44, Type 0, BuildingBlock: NAWXER_clean_sbu_0, # of connection points: 4
#     Node 45, Type 0, BuildingBlock: NAWXER_clean_sbu_0, # of connection points: 4
#     Node 46, Type 0, BuildingBlock: NAWXER_clean_sbu_0, # of connection points: 4
#     Node 47, Type 0, BuildingBlock: NAWXER_clean_sbu_0, # of connection points: 4
#     Edge 48, Type (0, 0), BuildingBlock: EZIPEK_clean_linker_0, # of connection points: 2
#     Edge 49, Type (0, 0), BuildingBlock: EZIPEK_clean_linker_0, # of connection points: 2
#     Edge 50, Type (0, 0), BuildingBlock: EZIPEK_clean_linker_0, # of connection points: 2
#     Edge 51, Type (0, 0), BuildingBlock: EZIPEK_clean_linker_0, # of connection points: 2
#     Edge 52, Type (0, 0), BuildingBlock: EZIPEK_clean_linker_0, # of connection points: 2
#     Edge 53, Type (0, 0), BuildingBlock: EZIPEK_clean_linker_0, # of connection points: 2
#     Edge 54, Type (0, 0), BuildingBlock: EZIPEK_clean_linker_0, # of connection points: 2
#     Edge 55, Type (0, 0), BuildingBlock: EZIPEK_clean_linker_0, # of connection points: 2
#     Edge 56, Type (0, 0), BuildingBlock: EZIPEK_clean_linker_0, # of connection points: 2
#     Edge 57, Type (0, 0), BuildingBlock: EZIPEK_clean_linker_0, # of connection points: 2
#     Edge 58, Type (0, 0), BuildingBlock: EZIPEK_clean_linker_0, # of connection points: 2
#     Edge 59, Type (0, 0), BuildingBlock: EZIPEK_clean_linker_0, # of connection points: 2
#     Edge 60, Type (0, 0), BuildingBlock: EZIPEK_clean_linker_0, # of connection points: 2
#     Edge 61, Type (0, 0), BuildingBlock: EZIPEK_clean_linker_0, # of connection points: 2
#     Edge 62, Type (0, 0), BuildingBlock: EZIPEK_clean_linker_0, # of connection points: 2
#     Edge 63, Type (0, 0), BuildingBlock: EZIPEK_clean_linker_0, # of connection points: 2
#     Edge 64, Type (0, 0), BuildingBlock: EZIPEK_clean_linker_0, # of connection points: 2
#     Edge 65, Type (0, 0), BuildingBlock: EZIPEK_clean_linker_0, # of connection points: 2
#     Edge 66, Type (0, 0), BuildingBlock: EZIPEK_clean_linker_0, # of connection points: 2
#     Edge 67, Type (0, 0), BuildingBlock: EZIPEK_clean_linker_0, # of connection points: 2
#     Edge 68, Type (0, 0), BuildingBlock: EZIPEK_clean_linker_0, # of connection points: 2
#     Edge 69, Type (0, 0), BuildingBlock: EZIPEK_clean_linker_0, # of connection points: 2
#     Edge 70, Type (0, 0), BuildingBlock: EZIPEK_clean_linker_0, # of connection points: 2
#     Edge 71, Type (0, 0), BuildingBlock: EZIPEK_clean_linker_0, # of connection points: 2
#     Edge 72, Type (0, 0), BuildingBlock: EZIPEK_clean_linker_0, # of connection points: 2
#     Edge 73, Type (0, 0), BuildingBlock: EZIPEK_clean_linker_0, # of connection points: 2
#     Edge 74, Type (0, 0), BuildingBlock: EZIPEK_clean_linker_0, # of connection points: 2
#     Edge 75, Type (0, 0), BuildingBlock: EZIPEK_clean_linker_0, # of connection points: 2
#     Edge 76, Type (0, 0), BuildingBlock: EZIPEK_clean_linker_0, # of connection points: 2
#     Edge 77, Type (0, 0), BuildingBlock: EZIPEK_clean_linker_0, # of connection points: 2
#     Edge 78, Type (0, 0), BuildingBlock: EZIPEK_clean_linker_0, # of connection points: 2
#     Edge 79, Type (0, 0), BuildingBlock: EZIPEK_clean_linker_0, # of connection points: 2
#     Edge 80, Type (0, 0), BuildingBlock: EZIPEK_clean_linker_0, # of connection points: 2
#     Edge 81, Type (0, 0), BuildingBlock: EZIPEK_clean_linker_0, # of connection points: 2
#     Edge 82, Type (0, 0), BuildingBlock: EZIPEK_clean_linker_0, # of connection points: 2
#     Edge 83, Type (0, 0), BuildingBlock: EZIPEK_clean_linker_0, # of connection points: 2
#     Edge 84, Type (0, 0), BuildingBlock: EZIPEK_clean_linker_0, # of connection points: 2
#     Edge 85, Type (0, 0), BuildingBlock: EZIPEK_clean_linker_0, # of connection points: 2
#     Edge 86, Type (0, 0), BuildingBlock: EZIPEK_clean_linker_0, # of connection points: 2
#     Edge 87, Type (0, 0), BuildingBlock: EZIPEK_clean_linker_0, # of connection points: 2
#     Edge 88, Type (0, 0), BuildingBlock: EZIPEK_clean_linker_0, # of connection points: 2
#     Edge 89, Type (0, 0), BuildingBlock: EZIPEK_clean_linker_0, # of connection points: 2
#     Edge 90, Type (0, 0), BuildingBlock: EZIPEK_clean_linker_0, # of connection points: 2
#     Edge 91, Type (0, 0), BuildingBlock: EZIPEK_clean_linker_0, # of connection points: 2
#     Edge 92, Type (0, 0), BuildingBlock: EZIPEK_clean_linker_0, # of connection points: 2
#     Edge 93, Type (0, 0), BuildingBlock: EZIPEK_clean_linker_0, # of connection points: 2
#     Edge 94, Type (0, 0), BuildingBlock: EZIPEK_clean_linker_0, # of connection points: 2
#     Edge 95, Type (0, 0), BuildingBlock: EZIPEK_clean_linker_0, # of connection points: 2
#     Edge 96, Type (0, 0), BuildingBlock: EZIPEK_clean_linker_0, # of connection points: 2
#     Edge 97, Type (0, 0), BuildingBlock: EZIPEK_clean_linker_0, # of connection points: 2
#     Edge 98, Type (0, 0), BuildingBlock: EZIPEK_clean_linker_0, # of connection points: 2
#     Edge 99, Type (0, 0), BuildingBlock: EZIPEK_clean_linker_0, # of connection points: 2
#     Edge 100, Type (0, 0), BuildingBlock: EZIPEK_clean_linker_0, # of connection points: 2
#     Edge 101, Type (0, 0), BuildingBlock: EZIPEK_clean_linker_0, # of connection points: 2
#     Edge 102, Type (0, 0), BuildingBlock: EZIPEK_clean_linker_0, # of connection points: 2
#     Edge 103, Type (0, 0), BuildingBlock: EZIPEK_clean_linker_0, # of connection points: 2
#     Edge 104, Type (0, 0), BuildingBlock: EZIPEK_clean_linker_0, # of connection points: 2
#     Edge 105, Type (0, 0), BuildingBlock: EZIPEK_clean_linker_0, # of connection points: 2
#     Edge 106, Type (0, 0), BuildingBlock: EZIPEK_clean_linker_0, # of connection points: 2
#     Edge 107, Type (0, 0), BuildingBlock: EZIPEK_clean_linker_0, # of connection points: 2
#     Edge 108, Type (0, 0), BuildingBlock: EZIPEK_clean_linker_0, # of connection points: 2
#     Edge 109, Type (0, 0), BuildingBlock: EZIPEK_clean_linker_0, # of connection points: 2
#     Edge 110, Type (0, 0), BuildingBlock: EZIPEK_clean_linker_0, # of connection points: 2
#     Edge 111, Type (0, 0), BuildingBlock: EZIPEK_clean_linker_0, # of connection points: 2
#     Edge 112, Type (0, 0), BuildingBlock: EZIPEK_clean_linker_0, # of connection points: 2
#     Edge 113, Type (0, 0), BuildingBlock: EZIPEK_clean_linker_0, # of connection points: 2
#     Edge 114, Type (0, 0), BuildingBlock: EZIPEK_clean_linker_0, # of connection points: 2
#     Edge 115, Type (0, 0), BuildingBlock: EZIPEK_clean_linker_0, # of connection points: 2
#     Edge 116, Type (0, 0), BuildingBlock: EZIPEK_clean_linker_0, # of connection points: 2
#     Edge 117, Type (0, 0), BuildingBlock: EZIPEK_clean_linker_0, # of connection points: 2
#     Edge 118, Type (0, 0), BuildingBlock: EZIPEK_clean_linker_0, # of connection points: 2
#     Edge 119, Type (0, 0), BuildingBlock: EZIPEK_clean_linker_0, # of connection points: 2
#     Edge 120, Type (0, 0), BuildingBlock: EZIPEK_clean_linker_0, # of connection points: 2
#     Edge 121, Type (0, 0), BuildingBlock: EZIPEK_clean_linker_0, # of connection points: 2
#     Edge 122, Type (0, 0), BuildingBlock: EZIPEK_clean_linker_0, # of connection points: 2
#     Edge 123, Type (0, 0), BuildingBlock: EZIPEK_clean_linker_0, # of connection points: 2
#     Edge 124, Type (0, 0), BuildingBlock: EZIPEK_clean_linker_0, # of connection points: 2
#     Edge 125, Type (0, 0), BuildingBlock: EZIPEK_clean_linker_0, # of connection points: 2
#     Edge 126, Type (0, 0), BuildingBlock: EZIPEK_clean_linker_0, # of connection points: 2
#     Edge 127, Type (0, 0), BuildingBlock: EZIPEK_clean_linker_0, # of connection points: 2
#     Edge 128, Type (0, 0), BuildingBlock: EZIPEK_clean_linker_0, # of connection points: 2
#     Edge 129, Type (0, 0), BuildingBlock: EZIPEK_clean_linker_0, # of connection points: 2
#     Edge 130, Type (0, 0), BuildingBlock: EZIPEK_clean_linker_0, # of connection points: 2
#     Edge 131, Type (0, 0), BuildingBlock: EZIPEK_clean_linker_0, # of connection points: 2
#     Edge 132, Type (0, 0), BuildingBlock: EZIPEK_clean_linker_0, # of connection points: 2
#     Edge 133, Type (0, 0), BuildingBlock: EZIPEK_clean_linker_0, # of connection points: 2
#     Edge 134, Type (0, 0), BuildingBlock: EZIPEK_clean_linker_0, # of connection points: 2
#     Edge 135, Type (0, 0), BuildingBlock: EZIPEK_clean_linker_0, # of connection points: 2
#     Edge 136, Type (0, 0), BuildingBlock: EZIPEK_clean_linker_0, # of connection points: 2
#     Edge 137, Type (0, 0), BuildingBlock: EZIPEK_clean_linker_0, # of connection points: 2
#     Edge 138, Type (0, 0), BuildingBlock: EZIPEK_clean_linker_0, # of connection points: 2
#     Edge 139, Type (0, 0), BuildingBlock: EZIPEK_clean_linker_0, # of connection points: 2
#     Edge 140, Type (0, 0), BuildingBlock: EZIPEK_clean_linker_0, # of connection points: 2
#     Edge 141, Type (0, 0), BuildingBlock: EZIPEK_clean_linker_0, # of connection points: 2
#     Edge 142, Type (0, 0), BuildingBlock: EZIPEK_clean_linker_0, # of connection points: 2
#     Edge 143, Type (0, 0), BuildingBlock: EZIPEK_clean_linker_0, # of connection points: 2
# Relax obj value: 0.179
# Max RMSD: 0.216
# Mean RMSD: 0.216
data_MOF--net-ukp--node1-NAWXER_clean_sbu_0--edge1-EZIPEK_clean_linker_0
_symmetry_space_group_name_H-M    P1
_symmetry_Int_Tables_number       1
_symmetry_cell_setting            triclinic
loop_
_symmetry_equiv_pos_as_xyz
'x, y, z'
_cell_length_a     45.942
_cell_length_b     46.02346
_cell_length_c     46.03115
_cell_angle_alpha  90.058663
_cell_angle_beta   89.743148
_cell_angle_gamma 90.05824
loop_
_atom_site_label
_atom_site_type_symbol
_atom_site_fract_x
_atom_site_fract_y
_atom_site_fract_z
_atom_type_partial_charge
C0 C 0.18046 0.30183 0.32914 0.0
C1 C 0.14653 0.23567 0.40532 0.0
O2 O 0.19923 0.29665 0.34891 0.0
Zn3 Zn 0.20255 0.27459 0.38946 0.0
O4 O 0.15541 0.29016 0.331 0.0
Zn5 Zn 0.16291 0.26895 0.36712 0.0
O6 O 0.16373 0.30518 0.39647 0.0
O7 O 0.20789 0.30845 0.41387 0.0
O8 O 0.13319 0.24396 0.3827 0.0
O9 O 0.17214 0.24553 0.41064 0.0
O10 O 0.23565 0.25066 0.38158 0.0
O11 O 0.1977 0.23944 0.35441 0.0
C12 C 0.18266 0.31932 0.41113 0.0
C13 C 0.22449 0.23559 0.36134 0.0
C14 C 0.01347 0.91732 0.66251 0.0
C15 C 0.93865 0.97226 0.60898 0.0
O16 O 0.99941 0.93942 0.67145 0.0
Zn17 Zn 0.97656 0.94761 0.6365 0.0
O18 O 0.00937 0.90821 0.63659 0.0
Zn19 Zn 0.98524 0.92051 0.59943 0.0
O20 O 0.01485 0.93386 0.57189 0.0
O21 O 0.00707 0.96583 0.60675 0.0
O22 O 0.95167 0.95255 0.59421 0.0
O23 O 0.94624 0.97747 0.63512 0.0
O24 O 0.94855 0.91085 0.63145 0.0
O25 O 0.96168 0.88602 0.59234 0.0
C26 C 0.01982 0.95869 0.58304 0.0
C27 C 0.94428 0.88991 0.61364 0.0
C28 C 0.27533 0.78076 0.8565 0.0
C29 C 0.31186 0.69439 0.90307 0.0
O30 O 0.3017 0.77575 0.84859 0.0
Zn31 Zn 0.33557 0.74462 0.86036 0.0
O32 O 0.26381 0.76449 0.87558 0.0
Zn33 Zn 0.29581 0.73933 0.88173 0.0
O34 O 0.32609 0.76644 0.90527 0.0
O35 O 0.36569 0.76802 0.8782 0.0
O36 O 0.28781 0.70729 0.90687 0.0
O37 O 0.33163 0.70575 0.88685 0.0
O38 O 0.34451 0.72721 0.82306 0.0
O39 O 0.29998 0.71829 0.83929 0.0
C40 C 0.35213 0.77562 0.90102 0.0
C41 C 0.31983 0.71518 0.81979 0.0
C42 C 0.4831 0.03125 0.11292 0.0
C43 C 0.56808 0.07795 0.15428 0.0
O44 O 0.48599 0.05738 0.10361 0.0
Zn45 Zn 0.51384 0.09448 0.11328 0.0
O46 O 0.49997 0.02267 0.13293 0.0
Zn47 Zn 0.52282 0.05692 0.13732 0.0
O48 O 0.4943 0.0863 0.15977 0.0
O49 O 0.48831 0.1235 0.13036 0.0
O50 O 0.55696 0.05362 0.161 0.0
O51 O 0.55429 0.09544 0.13758 0.0
O52 O 0.52946 0.10177 0.07484 0.0
O53 O 0.5422 0.05967 0.0944 0.0
C54 C 0.48267 0.11097 0.15425 0.0
C55 C 0.5432 0.07781 0.07332 0.0
C56 C 0.19448 0.71446 0.18685 0.0
C57 C 0.16268 0.77796 0.10743 0.0
O58 O 0.20999 0.71199 0.16378 0.0
Zn59 Zn 0.21143 0.72996 0.12031 0.0
O60 O 0.17241 0.7312 0.18697 0.0
Zn61 Zn 0.17795 0.7455 0.14759 0.0
O62 O 0.16714 0.70692 0.123 0.0
O63 O 0.20625 0.69547 0.09761 0.0
O64 O 0.15284 0.77604 0.13317 0.0
O65 O 0.18404 0.76169 0.09976 0.0
O66 O 0.24968 0.74756 0.12066 0.0
O67 O 0.2196 0.76637 0.15317 0.0
C68 C 0.18033 0.6897 0.10543 0.0
C69 C 0.24501 0.76483 0.1417 0.0
C70 C 0.48271 0.96242 0.42586 0.0
C71 C 0.55958 0.90008 0.38441 0.0
O72 O 0.48842 0.93664 0.43414 0.0
Zn73 Zn 0.5176 0.92737 0.40453 0.0
O74 O 0.4949 0.97251 0.40292 0.0
Zn75 Zn 0.52602 0.95974 0.37109 0.0
O76 O 0.50445 0.95474 0.33447 0.0
O77 O 0.49247 0.92161 0.36682 0.0
O78 O 0.55437 0.92379 0.371 0.0
O79 O 0.54223 0.89212 0.40459 0.0
O80 O 0.55064 0.95847 0.41414 0.0
O81 O 0.55627 0.9892 0.37747 0.0
C82 C 0.48943 0.93254 0.34148 0.0
C83 C 0.56376 0.9801 0.40256 0.0
C84 C 0.35614 0.32415 0.62985 0.0
C85 C 0.29766 0.23905 0.65602 0.0
O86 O 0.36999 0.30659 0.64632 0.0
Zn87 Zn 0.36296 0.26422 0.66459 0.0
O88 O 0.33217 0.31626 0.61857 0.0
Zn89 Zn 0.32837 0.27911 0.6381 0.0
O90 O 0.3284 0.29387 0.68242 0.0
O91 O 0.36635 0.27514 0.70536 0.0
O92 O 0.29129 0.25903 0.63805 0.0
O93 O 0.32332 0.23891 0.66684 0.0
O94 O 0.39151 0.23841 0.64676 0.0
O95 O 0.35678 0.24943 0.61588 0.0
C96 C 0.34375 0.2912 0.70538 0.0
C97 C 0.38008 0.23539 0.62187 0.0
C98 C 0.02889 0.10883 0.85204 0.0
C99 C 0.96669 0.07371 0.93087 0.0
O100 O 0.01783 0.08397 0.8461 0.0
Zn101 Zn 0.98882 0.05409 0.86714 0.0
O102 O 0.02199 0.12148 0.87557 0.0
Zn103 Zn 0.99647 0.0919 0.8917 0.0
O104 O 0.02524 0.05572 0.9011 0.0
O105 O 0.01248 0.02038 0.87183 0.0
O106 O 0.97983 0.09806 0.92998 0.0
O107 O 0.96859 0.0559 0.90954 0.0
O108 O 0.95533 0.05073 0.84233 0.0
O109 O 0.95692 0.09236 0.86627 0.0
C110 C 0.02912 0.02975 0.89175 0.0
C111 C 0.94382 0.07492 0.84891 0.0
C112 C 0.35596 0.234 0.24993 0.0
C113 C 0.39572 0.17663 0.32845 0.0
O114 O 0.34768 0.2074 0.24826 0.0
Zn115 Zn 0.35754 0.16697 0.27084 0.0
O116 O 0.37542 0.24127 0.26805 0.0
Zn117 Zn 0.38017 0.2037 0.28562 0.0
O118 O 0.40422 0.17963 0.25346 0.0
O119 O 0.37656 0.14217 0.24255 0.0
O120 O 0.40257 0.20221 0.32077 0.0
O121 O 0.37982 0.16091 0.31181 0.0
O122 O 0.31844 0.15688 0.28303 0.0
O123 O 0.3364 0.19706 0.30263 0.0
C124 C 0.4 0.15628 0.23885 0.0
C125 C 0.31554 0.17879 0.2997 0.0
C126 C 0.07457 0.06007 0.53584 0.0
C127 C 0.09744 0.14775 0.4815 0.0
O128 O 0.05745 0.08114 0.54249 0.0
Zn129 Zn 0.05159 0.12697 0.52936 0.0
O130 O 0.09563 0.06422 0.51835 0.0
Zn131 Zn 0.08557 0.10412 0.51053 0.0
O132 O 0.09545 0.12507 0.55229 0.0
O133 O 0.05474 0.14748 0.56483 0.0
O134 O 0.10911 0.12287 0.48127 0.0
O135 O 0.07581 0.15263 0.49849 0.0
O136 O 0.01283 0.12658 0.51473 0.0
O137 O 0.0424 0.09671 0.49147 0.0
C138 C 0.08084 0.14082 0.57028 0.0
C139 C 0.0167 0.10675 0.49604 0.0
C140 C 0.13897 0.77494 0.73652 0.0
C141 C 0.10246 0.82595 0.82044 0.0
O142 O 0.1502 0.80045 0.7379 0.0
Zn143 Zn 0.14089 0.83954 0.76291 0.0
O144 O 0.11663 0.76928 0.75177 0.0
Zn145 Zn 0.11559 0.80411 0.77449 0.0
O146 O 0.09191 0.83386 0.74806 0.0
O147 O 0.12326 0.86838 0.73779 0.0
O148 O 0.09266 0.80259 0.8095 0.0
O149 O 0.11951 0.84212 0.80523 0.0
O150 O 0.1795 0.84779 0.77564 0.0
O151 O 0.16037 0.80687 0.79285 0.0
C152 C 0.09792 0.85788 0.73543 0.0
C153 C 0.18167 0.82507 0.79122 0.0
C154 C 0.44509 0.93665 0.04081 0.0
C155 C 0.40702 0.8569 0.98082 0.0
O156 O 0.46255 0.91506 0.03882 0.0
Zn157 Zn 0.46266 0.87196 0.02032 0.0
O158 O 0.42106 0.93582 0.02717 0.0
Zn159 Zn 0.42578 0.89723 0.01062 0.0
O160 O 0.42204 0.87225 0.04984 0.0
O161 O 0.4635 0.84922 0.05575 0.0
O162 O 0.39576 0.88164 0.98565 0.0
O163 O 0.43151 0.85044 0.99246 0.0
O164 O 0.49709 0.87384 0.99637 0.0
O165 O 0.46259 0.90314 0.98172 0.0
C166 C 0.43842 0.85602 0.06531 0.0
C167 C 0.48824 0.89263 0.97823 0.0
C168 C 0.40983 0.86814 0.26702 0.0
C169 C 0.33551 0.81802 0.20993 0.0
O170 O 0.41901 0.844 0.25672 0.0
Zn171 Zn 0.40151 0.80843 0.23337 0.0
O172 O 0.38363 0.87546 0.26259 0.0
Zn173 Zn 0.3712 0.84211 0.23914 0.0
O174 O 0.36481 0.8058 0.26829 0.0
O175 O 0.40227 0.77707 0.26129 0.0
O176 O 0.33302 0.84271 0.22226 0.0
O177 O 0.35901 0.80313 0.21257 0.0
O178 O 0.42662 0.80611 0.19965 0.0
O179 O 0.39572 0.84284 0.19874 0.0
C180 C 0.37834 0.7822 0.27419 0.0
C181 C 0.41538 0.82741 0.18617 0.0
C182 C 0.49482 0.10492 0.51653 0.0
C183 C 0.43019 0.14235 0.44396 0.0
O184 O 0.46854 0.09708 0.52223 0.0
Zn185 Zn 0.42531 0.10716 0.50427 0.0
O186 O 0.49971 0.12377 0.49705 0.0
Zn187 Zn 0.46034 0.12779 0.48464 0.0
O188 O 0.44088 0.15418 0.51836 0.0
O189 O 0.40411 0.12804 0.53418 0.0
O190 O 0.45644 0.14868 0.44918 0.0
O191 O 0.41545 0.12738 0.46244 0.0
O192 O 0.41279 0.06768 0.49683 0.0
O193 O 0.45104 0.0826 0.47147 0.0
C194 C 0.41903 0.15115 0.53553 0.0
C195 C 0.4329 0.0625 0.47846 0.0
C196 C 0.11379 0.15803 0.77174 0.0
C197 C 0.19595 0.1926 0.71254 0.0
O198 O 0.10705 0.18061 0.7571 0.0
Zn199 Zn 0.12825 0.20851 0.7268 0.0
O200 O 0.13911 0.14741 0.76895 0.0
Zn201 Zn 0.1554 0.17518 0.74113 0.0
O202 O 0.15977 0.21618 0.76415 0.0
O203 O 0.12561 0.24472 0.74701 0.0
O204 O 0.19512 0.17036 0.72896 0.0
O205 O 0.17317 0.20859 0.70968 0.0
O206 O 0.10592 0.20463 0.69197 0.0
O207 O 0.1344 0.16691 0.70001 0.0
C208 C 0.14687 0.24093 0.76405 0.0
C209 C 0.11621 0.18037 0.6838 0.0
C210 C 0.08167 0.85726 0.94086 0.0
C211 C 0.03041 0.89393 0.02684 0.0
O212 O 0.09751 0.87415 0.95626 0.0
Zn213 Zn 0.09273 0.89973 0.99501 0.0
O214 O 0.05656 0.85008 0.95009 0.0
Zn215 Zn 0.05637 0.8734 0.98505 0.0
O216 O 0.05562 0.91605 0.96624 0.0
O217 O 0.0965 0.93818 0.97779 0.0
O218 O 0.02202 0.87459 0.00896 0.0
O219 O 0.05569 0.9052 0.02329 0.0
O220 O 0.12217 0.88496 0.02132 0.0
O221 O 0.08731 0.85308 0.01325 0.0
C222 C 0.07249 0.93808 0.96406 0.0
C223 C 0.11112 0.86004 0.02592 0.0
C224 C 0.23259 0.37124 0.23802 0.0
C225 C 0.31702 0.40773 0.18714 0.0
O226 O 0.23567 0.35886 0.21321 0.0
Zn227 Zn 0.26271 0.36528 0.1749 0.0
O228 O 0.24711 0.39406 0.24352 0.0
Zn229 Zn 0.27136 0.39336 0.20971 0.0
O230 O 0.24353 0.41262 0.17851 0.0
O231 O 0.23677 0.37965 0.14462 0.0
O232 O 0.30566 0.41717 0.21047 0.0
O233 O 0.30333 0.38913 0.17151 0.0
O234 O 0.27808 0.32622 0.17172 0.0
O235 O 0.29035 0.34979 0.2119 0.0
C236 C 0.23154 0.40475 0.15476 0.0
C237 C 0.2913 0.32685 0.19599 0.0
C238 C 0.80171 0.19252 0.82709 0.0
C239 C 0.74296 0.10891 0.85664 0.0
O240 O 0.80145 0.17252 0.8076 0.0
Zn241 Zn 0.7818 0.12965 0.80213 0.0
O242 O 0.78774 0.18888 0.8507 0.0
Zn243 Zn 0.77287 0.15069 0.84137 0.0
O244 O 0.8132 0.12562 0.83999 0.0
O245 O 0.81531 0.10583 0.79623 0.0
O246 O 0.74811 0.13249 0.86994 0.0
O247 O 0.75462 0.10475 0.83157 0.0
O248 O 0.75802 0.13522 0.76853 0.0
O249 O 0.74303 0.16054 0.80642 0.0
C250 C 0.82666 0.11018 0.82091 0.0
C251 C 0.7404 0.15333 0.77961 0.0
C252 C 0.11862 0.48725 0.01937 0.0
C253 C 0.15167 0.57242 0.07173 0.0
O254 O 0.10642 0.48934 0.04442 0.0
Zn255 Zn 0.11063 0.51663 0.08253 0.0
O256 O 0.13855 0.50528 0.01283 0.0
Zn257 Zn 0.13867 0.52716 0.04793 0.0
O258 O 0.15798 0.49781 0.07781 0.0
O259 O 0.1259 0.49127 0.11281 0.0
O260 O 0.16306 0.56112 0.04924 0.0
O261 O 0.13264 0.55799 0.08627 0.0
O262 O 0.07095 0.53054 0.08557 0.0
O263 O 0.09516 0.54595 0.04675 0.0
C264 C 0.15067 0.4858 0.1018 0.0
C265 C 0.07194 0.54565 0.0624 0.0
C266 C 0.76769 0.85034 0.29866 0.0
C267 C 0.68024 0.87573 0.35495 0.0
O268 O 0.76826 0.84002 0.32453 0.0
Zn269 Zn 0.74221 0.84355 0.36403 0.0
O270 O 0.7473 0.8678 0.29225 0.0
Zn271 Zn 0.72612 0.86705 0.32848 0.0
O272 O 0.75076 0.8935 0.35821 0.0
O273 O 0.76666 0.86377 0.39202 0.0
O274 O 0.68764 0.88274 0.32927 0.0
O275 O 0.69902 0.86212 0.37024 0.0
O276 O 0.73279 0.80255 0.37001 0.0
O277 O 0.71405 0.8223 0.33045 0.0
C278 C 0.76533 0.88925 0.38156 0.0
C279 C 0.71759 0.80037 0.34704 0.0
C280 C 0.90043 0.01495 0.01888 0.0
C281 C 0.85346 0.93673 0.07358 0.0
O282 O 0.90792 0.01463 0.04565 0.0
Zn283 Zn 0.8958 0.99137 0.08419 0.0
O284 O 0.88035 0.99813 0.0101 0.0
Zn285 Zn 0.87367 0.9778 0.04643 0.0
O286 O 0.84944 0.00794 0.07332 0.0
O287 O 0.879 0.02081 0.10865 0.0
O288 O 0.85093 0.94254 0.04669 0.0
O289 O 0.86766 0.95434 0.08976 0.0
O290 O 0.93272 0.97389 0.09494 0.0
O291 O 0.9153 0.95803 0.05325 0.0
C292 C 0.8545 0.0231 0.0962 0.0
C293 C 0.93528 0.95787 0.07252 0.0
C294 C 0.27113 0.6485 0.72591 0.0
C295 C 0.18832 0.59762 0.68417 0.0
O296 O 0.26668 0.65649 0.69954 0.0
Zn297 Zn 0.23792 0.64305 0.66429 0.0
O298 O 0.25822 0.62608 0.7356 0.0
Zn299 Zn 0.23331 0.61877 0.70277 0.0
O300 O 0.25951 0.59736 0.67035 0.0
O301 O 0.2634 0.62785 0.63381 0.0
O302 O 0.20051 0.59327 0.7085 0.0
O303 O 0.20086 0.61397 0.66536 0.0
O304 O 0.21577 0.67903 0.65817 0.0
O305 O 0.21043 0.65951 0.70136 0.0
C306 C 0.26958 0.60342 0.64501 0.0
C307 C 0.20469 0.68008 0.68358 0.0
C308 C 0.1646 0.52742 0.41234 0.0
C309 C 0.07986 0.47058 0.44378 0.0
O310 O 0.16965 0.51425 0.43639 0.0
Zn311 Zn 0.14512 0.48629 0.46544 0.0
O312 O 0.14046 0.52314 0.39976 0.0
Zn313 Zn 0.1224 0.49746 0.42765 0.0
O314 O 0.11496 0.52559 0.46449 0.0
O315 O 0.14181 0.50928 0.50013 0.0
O316 O 0.0826 0.48489 0.42029 0.0
O317 O 0.101 0.46978 0.46189 0.0
O318 O 0.16609 0.45027 0.46869 0.0
O319 O 0.14528 0.45603 0.42606 0.0
C320 C 0.12383 0.52795 0.49074 0.0
C321 C 0.15997 0.44022 0.44377 0.0
C322 C 0.3946 0.50104 0.98668 0.0
C323 C 0.34254 0.58024 0.94239 0.0
O324 O 0.40255 0.50434 0.96014 0.0
Zn325 Zn 0.38915 0.53088 0.92405 0.0
O326 O 0.37306 0.51525 0.99651 0.0
Zn327 Zn 0.36542 0.5379 0.96251 0.0
O328 O 0.34397 0.509 0.93299 0.0
O329 O 0.37396 0.5032 0.89625 0.0
O330 O 0.33778 0.56865 0.96697 0.0
O331 O 0.36001 0.56806 0.92422 0.0
O332 O 0.42518 0.55105 0.9149 0.0
O333 O 0.40585 0.56231 0.95749 0.0
C334 C 0.34999 0.49702 0.90855 0.0
C335 C 0.42625 0.56541 0.93852 0.0
C336 C 0.68807 0.82816 0.89589 0.0
C337 C 0.73053 0.74058 0.85404 0.0
O338 O 0.66934 0.81357 0.88139 0.0
Zn339 Zn 0.66892 0.77431 0.8561 0.0
O340 O 0.71337 0.81775 0.8995 0.0
Zn341 Zn 0.70875 0.78279 0.87699 0.0
O342 O 0.70545 0.79993 0.83349 0.0
O343 O 0.66152 0.79001 0.8173 0.0
O344 O 0.74206 0.75812 0.87198 0.0
O345 O 0.70371 0.7437 0.84694 0.0
O346 O 0.63992 0.75017 0.8751 0.0
O347 O 0.67939 0.75554 0.90172 0.0
C348 C 0.6865 0.80129 0.8132 0.0
C349 C 0.6539 0.74469 0.89821 0.0
C350 C 0.52226 0.41274 0.15504 0.0
C351 C 0.45913 0.44497 0.07656 0.0
O352 O 0.50769 0.4352 0.16268 0.0
Zn353 Zn 0.47872 0.4644 0.14156 0.0
O354 O 0.51915 0.40285 0.12956 0.0
Zn355 Zn 0.49017 0.42961 0.11493 0.0
O356 O 0.51267 0.46982 0.10487 0.0
O357 O 0.4999 0.50029 0.13949 0.0
O358 O 0.47483 0.42219 0.07689 0.0
O359 O 0.45847 0.46222 0.0985 0.0
O360 O 0.44478 0.46455 0.16549 0.0
O361 O 0.44994 0.42419 0.13977 0.0
C362 C 0.51364 0.49532 0.11605 0.0
C363 C 0.43509 0.44001 0.15745 0.0
C364 C 0.78359 0.27229 0.34875 0.0
C365 C 0.82994 0.18992 0.39581 0.0
O366 O 0.81025 0.2695 0.34067 0.0
Zn367 Zn 0.84658 0.24144 0.35166 0.0
O368 O 0.77365 0.25659 0.3692 0.0
Zn369 Zn 0.80784 0.23347 0.37496 0.0
O370 O 0.83754 0.2621 0.3969 0.0
O371 O 0.87549 0.26742 0.36784 0.0
O372 O 0.80462 0.20022 0.39996 0.0
O373 O 0.84784 0.20361 0.37934 0.0
O374 O 0.8542 0.22285 0.31449 0.0
O375 O 0.81112 0.21253 0.33326 0.0
C376 C 0.86256 0.27331 0.39155 0.0
C377 C 0.82982 0.2098 0.31271 0.0
C378 C 0.98797 0.58959 0.66367 0.0
C379 C 0.05133 0.56527 0.58238 0.0
O380 O 1.0005 0.565 0.66756 0.0
Zn381 Zn 0.02847 0.53668 0.64225 0.0
O382 O 0.99262 0.60331 0.6402 0.0
Zn383 Zn 0.01889 0.57661 0.62222 0.0
O384 O 0.99053 0.54217 0.61015 0.0
O385 O 1.00426 0.50329 0.63367 0.0
O386 O 0.03582 0.58787 0.58572 0.0
O387 O 0.05049 0.54488 0.60135 0.0
O388 O 0.06168 0.53182 0.66733 0.0
O389 O 0.05683 0.57588 0.64975 0.0
C390 C 0.98672 0.51536 0.61617 0.0
C391 C 0.07089 0.5578 0.66565 0.0
C392 C 0.68317 0.18693 0.60983 0.0
C393 C 0.72257 0.27233 0.6549 0.0
O394 O 0.66362 0.19851 0.62624 0.0
Zn395 Zn 0.66046 0.23906 0.65152 0.0
O396 O 0.70636 0.20065 0.60395 0.0
Zn397 Zn 0.69849 0.2334 0.62795 0.0
O398 O 0.69492 0.21192 0.67067 0.0
O399 O 0.65145 0.22259 0.68892 0.0
O400 O 0.73152 0.25847 0.63286 0.0
O401 O 0.69654 0.26794 0.66436 0.0
O402 O 0.62972 0.26227 0.63467 0.0
O403 O 0.66644 0.25817 0.60425 0.0
C404 C 0.67593 0.20995 0.69116 0.0
C405 C 0.64084 0.26772 0.6101 0.0
C406 C 0.98926 0.49738 0.88749 0.0
C407 C 0.07182 0.44804 0.84093 0.0
O408 O 0.99113 0.47051 0.89478 0.0
Zn409 Zn 0.01841 0.43358 0.88365 0.0
O410 O 0.00555 0.50711 0.86729 0.0
Zn411 Zn 0.02771 0.47201 0.86046 0.0
O412 O 0.99768 0.44316 0.83861 0.0
O413 O 0.992 0.40536 0.86756 0.0
O414 O 0.06249 0.47355 0.83599 0.0
O415 O 0.0566 0.43095 0.85681 0.0
O416 O 0.03692 0.42553 0.92064 0.0
O417 O 0.04795 0.46833 0.90242 0.0
C418 C 0.986 0.41838 0.84405 0.0
C419 C 0.05062 0.44952 0.92267 0.0
C420 C 0.81203 0.79394 0.19556 0.0
C421 C 0.84891 0.73903 0.1107 0.0
O422 O 0.79394 0.7931 0.17448 0.0
Zn423 Zn 0.79309 0.77722 0.13045 0.0
O424 O 0.83652 0.78134 0.1927 0.0
Zn425 Zn 0.83122 0.7666 0.15321 0.0
O426 O 0.83348 0.80616 0.12828 0.0
O427 O 0.78998 0.8135 0.10993 0.0
O428 O 0.86065 0.74196 0.13551 0.0
O429 O 0.82447 0.75165 0.10583 0.0
O430 O 0.75983 0.75195 0.13135 0.0
O431 O 0.79584 0.73635 0.15825 0.0
C432 C 0.81587 0.82228 0.11397 0.0
C433 C 0.77015 0.73269 0.14818 0.0
C434 C 0.48248 0.56515 0.45244 0.0
C435 C 0.52471 0.59457 0.35951 0.0
O436 O 0.47721 0.54652 0.43234 0.0
Zn437 Zn 0.48614 0.54227 0.38608 0.0
O438 O 0.49688 0.58791 0.44641 0.0
Zn439 Zn 0.50292 0.57942 0.40558 0.0
O440 O 0.45963 0.58384 0.38667 0.0
O441 O 0.44789 0.5402 0.37072 0.0
O442 O 0.52645 0.60637 0.38436 0.0
O443 O 0.50976 0.57112 0.35666 0.0
O444 O 0.50782 0.50698 0.38376 0.0
O445 O 0.53078 0.54157 0.40714 0.0
C446 C 0.44119 0.56663 0.37457 0.0
C447 C 0.53016 0.51543 0.39747 0.0
C448 C 0.9021 0.64066 0.74195 0.0
C449 C 0.81664 0.67435 0.79542 0.0
O450 O 0.90416 0.66729 0.74986 0.0
Zn451 Zn 0.87731 0.69907 0.77076 0.0
O452 O 0.87933 0.62644 0.74865 0.0
Zn453 Zn 0.85853 0.65698 0.76871 0.0
O454 O 0.84691 0.68504 0.73337 0.0
O455 O 0.86899 0.72668 0.74025 0.0
O456 O 0.82079 0.64872 0.78591 0.0
O457 O 0.8355 0.69432 0.79084 0.0
O458 O 0.90015 0.71135 0.80351 0.0
O459 O 0.88333 0.66639 0.80744 0.0
C460 C 0.85234 0.71093 0.72485 0.0
C461 C 0.89734 0.68805 0.81807 0.0
C462 C 0.51752 0.63638 0.98738 0.0
C463 C 0.57114 0.67173 0.07147 0.0
O464 O 0.54203 0.62337 0.9906 0.0
Zn465 Zn 0.58112 0.62953 0.01688 0.0
O466 O 0.513 0.65973 1.00139 0.0
Zn467 Zn 0.54702 0.65844 0.02553 0.0
O468 O 0.57879 0.67661 0.99692 0.0
O469 O 0.61161 0.64252 0.99011 0.0
O470 O 0.54762 0.68156 0.06093 0.0
O471 O 0.58632 0.65369 0.05657 0.0
O472 O 0.58355 0.59138 0.03461 0.0
O473 O 0.54305 0.61492 0.04406 0.0
C474 C 0.60222 0.66784 0.98463 0.0
C475 C 0.55853 0.59192 0.04668 0.0
C476 C 0.60732 0.3592 0.23171 0.0
C477 C 0.69167 0.32824 0.28751 0.0
O478 O 0.60339 0.33398 0.24292 0.0
Zn479 Zn 0.62884 0.30399 0.26814 0.0
O480 O 0.63117 0.37237 0.23614 0.0
Zn481 Zn 0.6499 0.34354 0.25987 0.0
O482 O 0.65965 0.30917 0.22919 0.0
O483 O 0.634 0.27133 0.24282 0.0
O484 O 0.68822 0.35247 0.27476 0.0
O485 O 0.67177 0.30875 0.28641 0.0
O486 O 0.6063 0.29781 0.30246 0.0
O487 O 0.62492 0.34161 0.30005 0.0
C488 C 0.65189 0.28274 0.22508 0.0
C489 C 0.60957 0.32276 0.31379 0.0
C490 C 0.93476 0.42851 0.54675 0.0
C491 C 0.91148 0.35095 0.47815 0.0
O492 O 0.95379 0.40819 0.54634 0.0
Zn493 Zn 0.9612 0.36744 0.52344 0.0
O494 O 0.91244 0.42715 0.53046 0.0
Zn495 Zn 0.92309 0.3904 0.51323 0.0
O496 O 0.92017 0.36387 0.55202 0.0
O497 O 0.96228 0.34116 0.55605 0.0
O498 O 0.89732 0.37373 0.48447 0.0
O499 O 0.93563 0.34587 0.49101 0.0
O500 O 0.99756 0.37645 0.50418 0.0
O501 O 0.96163 0.40495 0.49019 0.0
C502 C 0.9372 0.34703 0.5662 0.0
C503 C 0.9886 0.39785 0.48931 0.0
C504 C 0.90325 0.36376 0.76601 0.0
C505 C 0.81959 0.32565 0.71318 0.0
O506 O 0.90826 0.33794 0.75675 0.0
Zn507 Zn 0.88473 0.30605 0.73162 0.0
O508 O 0.87935 0.376 0.75988 0.0
Zn509 Zn 0.8616 0.34462 0.73831 0.0
O510 O 0.85457 0.31069 0.77086 0.0
O511 O 0.88203 0.27394 0.75781 0.0
O512 O 0.8223 0.3507 0.7245 0.0
O513 O 0.84062 0.30734 0.71462 0.0
O514 O 0.90771 0.29977 0.69726 0.0
O515 O 0.88513 0.34214 0.69734 0.0
C516 C 0.86402 0.2849 0.77572 0.0
C517 C 0.90154 0.32342 0.68464 0.0
C518 C 0.93225 0.66806 0.93654 0.0
C519 C 0.98245 0.61916 0.01435 0.0
O520 O 0.91522 0.65039 0.94995 0.0
Zn521 Zn 0.91763 0.62346 0.98872 0.0
O522 O 0.95667 0.67481 0.94749 0.0
Zn523 Zn 0.95472 0.64846 0.97972 0.0
O524 O 0.95026 0.60713 0.95642 0.0
O525 O 0.90898 0.58642 0.97054 0.0
O526 O 0.99054 0.64162 1.00053 0.0
O527 O 0.95608 0.61031 0.01232 0.0
O528 O 0.8906 0.63874 0.01766 0.0
O529 O 0.92617 0.66962 0.01017 0.0
C530 C 0.9321 0.58598 0.95512 0.0
C531 C 0.90241 0.663 0.02329 0.0
C532 C 0.59862 0.64918 0.27235 0.0
C533 C 0.68076 0.67885 0.2116 0.0
O534 O 0.59554 0.67532 0.26322 0.0
Zn535 Zn 0.62132 0.70585 0.23872 0.0
O536 O 0.62135 0.63528 0.26514 0.0
Zn537 Zn 0.64072 0.66468 0.2422 0.0
O538 O 0.65637 0.69567 0.2735 0.0
O539 O 0.63153 0.73596 0.26623 0.0
O540 O 0.67673 0.6542 0.22346 0.0
O541 O 0.66236 0.69949 0.21556 0.0
O542 O 0.59639 0.71633 0.20665 0.0
O543 O 0.6148 0.6721 0.20357 0.0
C544 C 0.65104 0.72223 0.27999 0.0
C545 C 0.60009 0.69298 0.19235 0.0
C546 C 0.57487 0.33323 0.43341 0.0
C547 C 0.50262 0.3795 0.49374 0.0
O548 O 0.587 0.35136 0.4508 0.0
Zn549 Zn 0.57303 0.37743 0.48804 0.0
O550 O 0.54828 0.32706 0.43755 0.0
Zn551 Zn 0.54122 0.35242 0.46942 0.0
O552 O 0.55122 0.39522 0.44927 0.0
O553 O 0.5875 0.41371 0.47484 0.0
O554 O 0.50067 0.35655 0.47869 0.0
O555 O 0.52795 0.38977 0.49988 0.0
O556 O 0.59321 0.36335 0.52149 0.0
O557 O 0.56197 0.33083 0.50598 0.0
C558 C 0.56927 0.41605 0.45434 0.0
C559 C 0.58217 0.33832 0.52369 0.0
C560 C 0.78953 0.79043 0.65911 0.0
C561 C 0.7426 0.88058 0.62604 0.0
O562 O 0.7954 0.81274 0.67468 0.0
Zn563 Zn 0.78441 0.85823 0.67684 0.0
O564 O 0.77196 0.79261 0.63788 0.0
Zn565 Zn 0.76494 0.8342 0.64297 0.0
O566 O 0.80893 0.84908 0.63433 0.0
O567 O 0.82275 0.8747 0.67243 0.0
O568 O 0.74048 0.85518 0.61545 0.0
O569 O 0.75815 0.88452 0.64877 0.0
O570 O 0.76609 0.85981 0.71465 0.0
O571 O 0.74073 0.83382 0.68354 0.0
C572 C 0.82845 0.8639 0.64761 0.0
C573 C 0.74429 0.84365 0.70941 0.0
C574 C 0.25023 0.65627 0.28281 0.0
C575 C 0.32858 0.61051 0.33706 0.0
O576 O 0.25074 0.6649 0.30932 0.0
Zn577 Zn 0.27566 0.65513 0.34781 0.0
O578 O 0.2668 0.63566 0.27478 0.0
Zn579 Zn 0.28734 0.63055 0.3106 0.0
O580 O 0.25752 0.60851 0.33929 0.0
O581 O 0.24663 0.63923 0.3744 0.0
O582 O 0.32172 0.60701 0.31056 0.0
O583 O 0.31226 0.6263 0.35327 0.0
O584 O 0.29545 0.69272 0.35515 0.0
O585 O 0.30805 0.67162 0.31417 0.0
C586 C 0.24338 0.61439 0.36267 0.0
C587 C 0.31027 0.69306 0.33169 0.0
C588 C 0.64281 0.00559 0.49304 0.0
C589 C 0.67397 0.06884 0.5681 0.0
O590 O 0.63019 0.99836 0.51695 0.0
Zn591 Zn 0.63582 0.01028 0.56292 0.0
O592 O 0.66547 0.02124 0.49362 0.0
Zn593 Zn 0.664 0.03 0.53432 0.0
O594 O 0.68486 0.99415 0.55652 0.0
O595 O 0.64999 0.97724 0.58437 0.0
O596 O 0.6861 0.06354 0.54392 0.0
O597 O 0.65574 0.05056 0.57888 0.0
O598 O 0.59619 0.02024 0.57137 0.0
O599 O 0.61857 0.0473 0.53819 0.0
C600 C 0.67597 0.97563 0.57541 0.0
C601 C 0.59581 0.04117 0.55335 0.0
C602 C 0.2069 0.3349 0.82084 0.0
C603 C 0.27059 0.41339 0.85497 0.0
O604 O 0.21289 0.35416 0.80155 0.0
Zn605 Zn 0.23688 0.39434 0.79736 0.0
O606 O 0.21744 0.33736 0.84628 0.0
Zn607 Zn 0.23883 0.3729 0.83823 0.0
O608 O 0.20177 0.40062 0.83151 0.0
O609 O 0.20545 0.42138 0.78855 0.0
O610 O 0.26248 0.39062 0.86831 0.0
O611 O 0.26194 0.41736 0.82886 0.0
O612 O 0.26454 0.38357 0.76732 0.0
O613 O 0.27005 0.35745 0.8071 0.0
C614 C 0.19105 0.41714 0.81182 0.0
C615 C 0.27718 0.36304 0.78075 0.0
C616 C 0.34476 0.51875 0.58606 0.0
C617 C 0.4064 0.44808 0.53238 0.0
O618 O 0.33764 0.50431 0.56359 0.0
Zn619 Zn 0.37386 0.4822 0.55708 0.0
O620 O 0.37001 0.51473 0.59698 0.0
Zn621 Zn 0.40715 0.48832 0.58963 0.0
O622 O 0.43797 0.51663 0.58225 0.0
O623 O 0.40656 0.51327 0.54612 0.0
O624 O 0.41749 0.45886 0.55537 0.0
O625 O 0.3809 0.45557 0.52428 0.0
O626 O 0.37383 0.45018 0.58992 0.0
O627 O 0.40799 0.46043 0.62194 0.0
C628 C 0.4301 0.52367 0.55668 0.0
C629 C 0.38809 0.44351 0.61269 0.0
C630 C 0.7152 0.19 0.17552 0.0
C631 C 0.77076 0.10523 0.14449 0.0
O632 O 0.7147 0.16966 0.19454 0.0
Zn633 Zn 0.73261 0.12635 0.19896 0.0
O634 O 0.72928 0.1867 0.15192 0.0
Zn635 Zn 0.74248 0.14787 0.16014 0.0
O636 O 0.70118 0.12439 0.16101 0.0
O637 O 0.69811 0.10393 0.20443 0.0
O638 O 0.76658 0.12905 0.13133 0.0
O639 O 0.75864 0.10115 0.16931 0.0
O640 O 0.75723 0.13014 0.23194 0.0
O641 O 0.77278 0.15592 0.19502 0.0
C642 C 0.68706 0.10919 0.17979 0.0
C643 C 0.77616 0.14718 0.22119 0.0
C644 C 0.61139 0.02192 0.98523 0.0
C645 C 0.66453 0.9446 0.93574 0.0
O646 O 0.60424 0.02009 0.95843 0.0
Zn647 Zn 0.61821 0.99568 0.92124 0.0
O648 O 0.63222 0.00664 0.99482 0.0
Zn649 Zn 0.64047 0.98512 0.95965 0.0
O650 O 0.66402 0.01467 0.93174 0.0
O651 O 0.6348 0.02433 0.89535 0.0
O652 O 0.66674 0.9527 0.96202 0.0
O653 O 0.64726 0.9587 0.91899 0.0
O654 O 0.58215 0.97722 0.91024 0.0
O655 O 0.59989 0.96204 0.95219 0.0
C656 C 0.65902 0.02821 0.90793 0.0
C657 C 0.58004 0.9612 0.93266 0.0
C658 C 0.83237 0.98161 0.43668 0.0
C659 C 0.91363 0.04439 0.46221 0.0
O660 O 0.82343 1.00007 0.45563 0.0
Zn661 Zn 0.84447 0.03527 0.47885 0.0
O662 O 0.85866 0.98259 0.42862 0.0
Zn663 Zn 0.87312 0.0147 0.45129 0.0
O664 O 0.87636 1.0021 0.49713 0.0
O665 O 0.84141 0.0263 0.5196 0.0
O666 O 0.91314 0.02331 0.44435 0.0
O667 O 0.89064 0.05136 0.47674 0.0
O668 O 0.82336 0.06929 0.46778 0.0
O669 O 0.85581 0.05581 0.43512 0.0
C670 C 0.86317 0.00945 0.5207 0.0
C671 C 0.83765 0.07472 0.44481 0.0
C672 C 0.10865 0.16663 0.43155 0.0
C673 C 0.10887 0.17089 0.46206 0.0
C674 C 0.13026 0.2193 0.45504 0.0
C675 C 0.13313 0.21361 0.42484 0.0
N676 N 0.13056 0.17906 0.38532 0.0
N677 N 0.12519 0.1988 0.50326 0.0
C678 C 0.12374 0.18653 0.41329 0.0
C679 C 0.12105 0.19661 0.47397 0.0
N680 N 0.09335 0.14398 0.41988 0.0
N681 N 0.13539 0.24659 0.46559 0.0
H682 H 0.11981 0.18213 0.51761 0.0
H683 H 0.13661 0.21579 0.51293 0.0
H684 H 0.14154 0.26396 0.45236 0.0
H685 H 0.13081 0.25267 0.48693 0.0
H686 H 0.08991 0.1416 0.39765 0.0
H687 H 0.08168 0.12915 0.43251 0.0
H688 H 0.12692 0.15839 0.37682 0.0
H689 H 0.14258 0.19241 0.37146 0.0
C690 C 0.08211 0.87729 0.68715 0.0
C691 C 0.07591 0.87255 0.71694 0.0
C692 C 0.02729 0.89377 0.71026 0.0
C693 C 0.03498 0.90204 0.68146 0.0
N694 N 0.07226 0.90536 0.64413 0.0
N695 N 0.04415 0.88001 0.75814 0.0
C696 C 0.06308 0.89477 0.67034 0.0
C697 C 0.04891 0.88182 0.72888 0.0
N698 N 0.10556 0.86401 0.67445 0.0
N699 N 0.99901 0.89573 0.7194 0.0
H700 H 0.05934 0.87133 0.77246 0.0
H701 H 0.02626 0.88941 0.76847 0.0
H702 H 0.98221 0.90297 0.7061 0.0
H703 H 0.99166 0.88725 0.73908 0.0
H704 H 0.10925 0.86395 0.6521 0.0
H705 H 0.11973 0.85046 0.68576 0.0
H706 H 0.09371 0.90379 0.63685 0.0
H707 H 0.05934 0.91797 0.63067 0.0
C708 C 0.38847 0.84385 0.9311 0.0
C709 C 0.39264 0.83603 0.96064 0.0
C710 C 0.3722 0.78759 0.95062 0.0
C711 C 0.36576 0.79638 0.92178 0.0
N712 N 0.36261 0.83471 0.88623 0.0
N713 N 0.38453 0.80217 0.99979 0.0
C714 C 0.37247 0.82504 0.91248 0.0
C715 C 0.38345 0.80832 0.97076 0.0
N716 N 0.4009 0.86868 0.92043 0.0
N717 N 0.36857 0.75917 0.95845 0.0
H718 H 0.39248 0.8168 0.01516 0.0
H719 H 0.37533 0.78363 0.00898 0.0
H720 H 0.36052 0.74343 0.94427 0.0
H721 H 0.37575 0.75064 0.97809 0.0
H722 H 0.40138 0.87385 0.89841 0.0
H723 H 0.4132 0.88284 0.93313 0.0
H724 H 0.364 0.85632 0.87967 0.0
H725 H 0.35056 0.82178 0.87206 0.0
C726 C 0.41297 0.14179 0.18766 0.0
C727 C 0.42179 0.14634 0.21686 0.0
C728 C 0.47175 0.13239 0.20342 0.0
C729 C 0.46197 0.12423 0.17538 0.0
N730 N 0.42219 0.11704 0.14206 0.0
N731 N 0.45902 0.14252 0.25353 0.0
C732 C 0.43228 0.12789 0.16778 0.0
C733 C 0.4511 0.14085 0.22501 0.0
N734 N 0.38656 0.15186 0.17852 0.0
N735 N 0.50091 0.133 0.20912 0.0
H736 H 0.44468 0.14865 0.26999 0.0
H737 H 0.47911 0.13552 0.26122 0.0
H738 H 0.51657 0.12758 0.19357 0.0
H739 H 0.50967 0.14154 0.22813 0.0
H740 H 0.38023 0.15185 0.15682 0.0
H741 H 0.37217 0.16302 0.1921 0.0
H742 H 0.40016 0.11615 0.13686 0.0
H743 H 0.4355 0.10654 0.12695 0.0
C744 C 0.11892 0.80182 0.08436 0.0
C745 C 0.14964 0.79894 0.08634 0.0
C746 C 0.15498 0.83353 0.04593 0.0
C747 C 0.12465 0.83937 0.04689 0.0
N748 N 0.07914 0.83409 0.07309 0.0
N749 N 0.197 0.81799 0.07311 0.0
C750 C 0.10698 0.82496 0.06785 0.0
C751 C 0.16775 0.81645 0.06825 0.0
N752 N 0.10097 0.78179 0.09705 0.0
N753 N 0.17153 0.84319 0.02317 0.0
H754 H 0.20711 0.80724 0.09018 0.0
H755 H 0.21062 0.83257 0.06229 0.0
H756 H 0.16292 0.85465 0.00569 0.0
H757 H 0.19317 0.83704 0.02014 0.0
H758 H 0.07851 0.78163 0.09388 0.0
H759 H 0.10864 0.76341 0.10777 0.0
H760 H 0.06643 0.82586 0.09 0.0
H761 H 0.06999 0.85214 0.06299 0.0
C762 C 0.46985 0.88629 0.32028 0.0
C763 C 0.46997 0.91719 0.32045 0.0
C764 C 0.4324 0.91636 0.28249 0.0
C765 C 0.42944 0.88577 0.28592 0.0
N766 N 0.44002 0.84355 0.31532 0.0
N767 N 0.44652 0.96169 0.30532 0.0
C768 C 0.4466 0.87129 0.30693 0.0
C769 C 0.44994 0.93235 0.30249 0.0
N770 N 0.49245 0.871 0.33191 0.0
N771 N 0.41951 0.9301 0.25964 0.0
H772 H 0.45795 0.97409 0.32039 0.0
H773 H 0.43018 0.97318 0.29472 0.0
H774 H 0.40741 0.91913 0.24397 0.0
H775 H 0.42336 0.95185 0.25466 0.0
H776 H 0.49427 0.8485 0.32992 0.0
H777 H 0.51102 0.88088 0.34026 0.0
H778 H 0.45058 0.83318 0.33241 0.0
H779 H 0.42177 0.83233 0.30788 0.0
C780 C 0.39935 0.2239 0.57165 0.0
C781 C 0.39244 0.21447 0.60026 0.0
C782 C 0.40891 0.16528 0.58743 0.0
C783 C 0.41177 0.17368 0.55787 0.0
N784 N 0.40608 0.21059 0.5211 0.0
N785 N 0.38562 0.17458 0.63374 0.0
C786 C 0.40621 0.20296 0.54977 0.0
C787 C 0.396 0.18474 0.60778 0.0
N788 N 0.4002 0.25295 0.56556 0.0
N789 N 0.41942 0.13901 0.59637 0.0
H790 H 0.37511 0.18768 0.64899 0.0
H791 H 0.3848 0.15255 0.63889 0.0
H792 H 0.42996 0.12455 0.58239 0.0
H793 H 0.42056 0.13299 0.61815 0.0
H794 H 0.408 0.2613 0.54599 0.0
H795 H 0.3958 0.26888 0.5811 0.0
H796 H 0.39892 0.23072 0.51369 0.0
H797 H 0.41078 0.19601 0.50442 0.0
C798 C 0.09958 0.14095 0.82201 0.0
C799 C 0.09217 0.14513 0.79235 0.0
C800 C 0.04209 0.12928 0.80309 0.0
C801 C 0.05046 0.1221 0.83181 0.0
N802 N 0.08862 0.1161 0.86714 0.0
N803 N 0.05742 0.13862 0.75361 0.0
C804 C 0.07961 0.12656 0.84089 0.0
C805 C 0.06367 0.13806 0.7826 0.0
N806 N 0.12504 0.15201 0.83263 0.0
N807 N 0.01332 0.12874 0.79566 0.0
H808 H 0.07256 0.14462 0.73784 0.0
H809 H 0.03811 0.13059 0.74495 0.0
H810 H 0.9969 0.12299 0.81028 0.0
H811 H 0.00547 0.13668 0.77602 0.0
H812 H 0.13004 0.15236 0.85468 0.0
H813 H 0.13991 0.1635 0.81991 0.0
H814 H 0.11036 0.11583 0.87347 0.0
H815 H 0.07481 0.10524 0.88155 0.0
C816 C 0.18144 0.4167 0.13596 0.0
C817 C 0.21098 0.42486 0.14003 0.0
C818 C 0.19977 0.47404 0.12271 0.0
C819 C 0.17102 0.46504 0.11591 0.0
N820 N 0.13635 0.42592 0.11054 0.0
N821 N 0.24957 0.4595 0.13197 0.0
C822 C 0.16232 0.43584 0.12103 0.0
C823 C 0.22052 0.45307 0.13191 0.0
N824 N 0.17122 0.39125 0.14743 0.0
N825 N 0.20701 0.50284 0.12143 0.0
H826 H 0.26544 0.44441 0.13773 0.0
H827 H 0.25813 0.4787 0.12354 0.0
H828 H 0.19228 0.51896 0.11545 0.0
H829 H 0.2267 0.51106 0.129 0.0
H830 H 0.14921 0.38581 0.14796 0.0
H831 H 0.1843 0.37674 0.15884 0.0
H832 H 0.13038 0.40408 0.11087 0.0
H833 H 0.12192 0.43896 0.09897 0.0
C834 C 0.7225 0.0818 0.90004 0.0
C835 C 0.72259 0.08698 0.86959 0.0
C836 C 0.68547 0.04901 0.86428 0.0
C837 C 0.68149 0.04795 0.89491 0.0
N838 N 0.69246 0.06996 0.94149 0.0
N839 N 0.69725 0.08026 0.82395 0.0
C840 C 0.69898 0.06616 0.91276 0.0
C841 C 0.70218 0.07189 0.85195 0.0
N842 N 0.74523 0.09081 0.91682 0.0
N843 N 0.67438 0.02772 0.84685 0.0
H844 H 0.70668 0.09865 0.81472 0.0
H845 H 0.68085 0.07112 0.81128 0.0
H846 H 0.66407 0.00923 0.85498 0.0
H847 H 0.67882 0.02669 0.82463 0.0
H848 H 0.74701 0.08536 0.93873 0.0
H849 H 0.7639 0.10043 0.90818 0.0
H850 H 0.70333 0.08496 0.95453 0.0
H851 H 0.67407 0.06107 0.95137 0.0
C852 C 0.79958 0.93223 0.37914 0.0
C853 C 0.78104 0.91392 0.39583 0.0
C854 C 0.79583 0.94013 0.44013 0.0
C855 C 0.81243 0.95985 0.42301 0.0
N856 N 0.823 0.9792 0.37539 0.0
N857 N 0.75611 0.9054 0.44135 0.0
C858 C 0.8121 0.95727 0.39225 0.0
C859 C 0.77756 0.91932 0.42611 0.0
N860 N 0.80663 0.92501 0.35116 0.0
N861 N 0.79844 0.94021 0.46968 0.0
H862 H 0.74166 0.89082 0.43176 0.0
H863 H 0.75072 0.91063 0.46274 0.0
H864 H 0.81188 0.95462 0.48084 0.0
H865 H 0.78929 0.92427 0.48294 0.0
H866 H 0.82237 0.93608 0.33912 0.0
H867 H 0.79925 0.90616 0.34099 0.0
H868 H 0.82078 0.97969 0.35288 0.0
H869 H 0.83125 0.99845 0.3841 0.0
C870 C 0.82783 0.04513 0.13887 0.0
C871 C 0.83182 0.04301 0.10832 0.0
C872 C 0.79124 0.07703 0.10188 0.0
C873 C 0.79104 0.08304 0.13216 0.0
N874 N 0.81592 0.07756 0.17825 0.0
N875 N 0.82107 0.06308 0.0609 0.0
C876 C 0.81118 0.06841 0.15041 0.0
C877 C 0.81452 0.0606 0.08977 0.0
N878 N 0.83898 0.02449 0.15698 0.0
N879 N 0.76885 0.08608 0.08471 0.0
H880 H 0.8392 0.05335 0.05137 0.0
H881 H 0.81049 0.07768 0.04725 0.0
H882 H 0.75048 0.09659 0.09294 0.0
H883 H 0.76699 0.08002 0.06296 0.0
H884 H 0.83447 0.02411 0.1792 0.0
H885 H 0.84949 0.00587 0.14943 0.0
H886 H 0.83222 0.06881 0.19126 0.0
H887 H 0.80641 0.09613 0.18709 0.0
C888 C 0.28549 0.57668 0.599 0.0
C889 C 0.28866 0.58199 0.62931 0.0
C890 C 0.32373 0.54189 0.63144 0.0
C891 C 0.32422 0.53976 0.60057 0.0
N892 N 0.30976 0.56129 0.55486 0.0
N893 N 0.31785 0.57428 0.67227 0.0
C894 C 0.30625 0.55886 0.58423 0.0
C895 C 0.30982 0.56595 0.64495 0.0
N896 N 0.26209 0.58744 0.58433 0.0
N897 N 0.3354 0.52041 0.64818 0.0
H898 H 0.31007 0.59308 0.68228 0.0
H899 H 0.33498 0.56454 0.68338 0.0
H900 H 0.34383 0.50127 0.63951 0.0
H901 H 0.33327 0.52004 0.67074 0.0
H902 H 0.25761 0.58189 0.56285 0.0
H903 H 0.24537 0.599 0.59443 0.0
H904 H 0.29891 0.5769 0.5426 0.0
H905 H 0.32582 0.55025 0.54326 0.0
C906 C 0.20547 0.57468 0.35748 0.0
C907 C 0.2234 0.59208 0.37569 0.0
C908 C 0.20055 0.56912 0.41825 0.0
C909 C 0.18595 0.54884 0.39998 0.0
N910 N 0.18161 0.52821 0.35185 0.0
N911 N 0.24323 0.59929 0.4238 0.0
C912 C 0.19053 0.55037 0.36947 0.0
C913 C 0.22252 0.5874 0.40621 0.0
N914 N 0.20137 0.58202 0.32904 0.0
N915 N 0.19256 0.57234 0.4467 0.0
H916 H 0.26084 0.61123 0.41591 0.0
H917 H 0.24478 0.59427 0.44583 0.0
H918 H 0.17514 0.5613 0.45615 0.0
H919 H 0.201 0.58869 0.45992 0.0
H920 H 0.18652 0.5713 0.31572 0.0
H921 H 0.20988 0.60089 0.31979 0.0
H922 H 0.18674 0.52735 0.32978 0.0
H923 H 0.17229 0.50914 0.35983 0.0
C924 C 0.32678 0.47394 0.86428 0.0
C925 C 0.32923 0.47588 0.89499 0.0
C926 C 0.28925 0.44067 0.89924 0.0
C927 C 0.29071 0.43489 0.86892 0.0
N928 N 0.31896 0.44079 0.82462 0.0
N929 N 0.31766 0.45329 0.94128 0.0
C930 C 0.31181 0.44999 0.85194 0.0
C931 C 0.31187 0.45703 0.91246 0.0
N932 N 0.33753 0.49533 0.8467 0.0
N933 N 0.26592 0.43177 0.91543 0.0
H934 H 0.33578 0.46226 0.95143 0.0
H935 H 0.30667 0.43806 0.95403 0.0
H936 H 0.24759 0.422 0.9064 0.0
H937 H 0.26327 0.43759 0.93718 0.0
H938 H 0.33418 0.49539 0.8243 0.0
H939 H 0.34616 0.51469 0.85466 0.0
H940 H 0.33575 0.45023 0.81255 0.0
H941 H 0.31119 0.42148 0.81576 0.0
C942 C 0.61991 0.6776 0.93356 0.0
C943 C 0.61711 0.68685 0.96291 0.0
C944 C 0.63654 0.73487 0.94941 0.0
C945 C 0.64142 0.72481 0.92061 0.0
N946 N 0.64366 0.68461 0.88698 0.0
N947 N 0.6276 0.7224 0.99992 0.0
C948 C 0.63478 0.69559 0.91317 0.0
C949 C 0.62682 0.71499 0.97116 0.0
N950 N 0.60714 0.65227 0.92471 0.0
N951 N 0.64007 0.76369 0.95576 0.0
H952 H 0.62104 0.7083 0.01644 0.0
H953 H 0.63723 0.74138 0.00762 0.0
H954 H 0.64688 0.77895 0.94042 0.0
H955 H 0.63385 0.77296 0.97547 0.0
H956 H 0.60557 0.64615 0.90298 0.0
H957 H 0.5957 0.63855 0.9387 0.0
H958 H 0.6423 0.66265 0.88166 0.0
H959 H 0.655 0.69687 0.8716 0.0
C960 C 0.56913 0.35559 0.1923 0.0
C961 C 0.58451 0.3726 0.21302 0.0
C962 C 0.56152 0.41634 0.19331 0.0
C963 C 0.54317 0.39893 0.17556 0.0
N964 N 0.52452 0.35086 0.16514 0.0
N965 N 0.5882 0.41857 0.23832 0.0
C966 C 0.54543 0.36819 0.17713 0.0
C967 C 0.57856 0.40282 0.2151 0.0
N968 N 0.5779 0.32799 0.18572 0.0
N969 N 0.56412 0.44553 0.18854 0.0
H970 H 0.59908 0.40923 0.2558 0.0
H971 H 0.58221 0.44015 0.2418 0.0
H972 H 0.55404 0.45621 0.17136 0.0
H973 H 0.5792 0.45842 0.19948 0.0
H974 H 0.56869 0.31592 0.16892 0.0
H975 H 0.59651 0.31847 0.19436 0.0
H976 H 0.52415 0.32839 0.16799 0.0
H977 H 0.50577 0.35909 0.15548 0.0
C978 C 0.89602 0.34061 0.4268 0.0
C979 C 0.90029 0.33058 0.45564 0.0
C980 C 0.88359 0.28192 0.44113 0.0
C981 C 0.87631 0.29286 0.41327 0.0
N982 N 0.87145 0.33367 0.38081 0.0
N983 N 0.89474 0.29269 0.49142 0.0
C984 C 0.8815 0.32249 0.40637 0.0
C985 C 0.89328 0.30144 0.4631 0.0
N986 N 0.90684 0.36706 0.4186 0.0
N987 N 0.88216 0.25269 0.44631 0.0
H988 H 0.90192 0.3062 0.50807 0.0
H989 H 0.88667 0.27287 0.49882 0.0
H990 H 0.87537 0.23769 0.43074 0.0
H991 H 0.89012 0.24298 0.46508 0.0
H992 H 0.90718 0.37425 0.39716 0.0
H993 H 0.91807 0.38074 0.43276 0.0
H994 H 0.87163 0.35578 0.37602 0.0
H995 H 0.86058 0.3212 0.36534 0.0
C996 C 0.94105 0.64465 0.70304 0.0
C997 C 0.92537 0.62737 0.72342 0.0
C998 C 0.9491 0.58417 0.70311 0.0
C999 C 0.96781 0.60206 0.68599 0.0
N1000 N 0.98745 0.65048 0.67923 0.0
N1001 N 0.92251 0.58112 0.74838 0.0
C1002 C 0.96574 0.63268 0.68901 0.0
C1003 C 0.93186 0.59723 0.72527 0.0
N1004 N 0.93162 0.67167 0.69526 0.0
N1005 N 0.94612 0.55519 0.69744 0.0
H1006 H 0.91189 0.5902 0.76626 0.0
H1007 H 0.92873 0.55954 0.75137 0.0
H1008 H 0.9558 0.54485 0.67976 0.0
H1009 H 0.93089 0.54223 0.70821 0.0
H1010 H 0.9418 0.6838 0.679 0.0
H1011 H 0.91159 0.68013 0.70168 0.0
H1012 H 0.98725 0.67286 0.68285 0.0
H1013 H 0.00716 0.64259 0.67116 0.0
C1014 C 0.59601 0.32834 0.57541 0.0
C1015 C 0.59362 0.31821 0.54636 0.0
C1016 C 0.61766 0.27278 0.56071 0.0
C1017 C 0.62412 0.2849 0.58833 0.0
N1018 N 0.62286 0.32633 0.62052 0.0
N1019 N 0.60639 0.28213 0.51026 0.0
C1020 C 0.61408 0.31322 0.59537 0.0
C1021 C 0.60541 0.29069 0.53869 0.0
N1022 N 0.58038 0.35206 0.58417 0.0
N1023 N 0.62217 0.24386 0.55585 0.0
H1024 H 0.59823 0.29461 0.49328 0.0
H1025 H 0.61766 0.26376 0.50325 0.0
H1026 H 0.62976 0.22993 0.57196 0.0
H1027 H 0.61536 0.23321 0.53708 0.0
H1028 H 0.57906 0.35881 0.60575 0.0
H1029 H 0.5662 0.3631 0.57041 0.0
H1030 H 0.61875 0.34809 0.62525 0.0
H1031 H 0.63666 0.31637 0.63542 0.0
C1032 C 0.91647 0.38405 0.81489 0.0
C1033 C 0.92439 0.3784 0.78557 0.0
C1034 C 0.97344 0.39761 0.79487 0.0
C1035 C 0.96471 0.40536 0.82351 0.0
N1036 N 0.92618 0.41144 0.85877 0.0
N1037 N 0.95856 0.38406 0.74612 0.0
C1038 C 0.93572 0.40011 0.83296 0.0
C1039 C 0.9524 0.38637 0.77511 0.0
N1040 N 0.89106 0.37302 0.82589 0.0
N1041 N 1.00206 0.3999 0.7869 0.0
H1042 H 0.94358 0.37615 0.73109 0.0
H1043 H 0.97744 0.39228 0.7366 0.0
H1044 H 0.01811 0.4079 0.80074 0.0
H1045 H 0.01036 0.39169 0.76748 0.0
H1046 H 0.88572 0.3736 0.8479 0.0
H1047 H 0.87645 0.36089 0.81354 0.0
H1048 H 0.90446 0.41104 0.86533 0.0
H1049 H 0.93941 0.42377 0.87242 0.0
C1050 C 0.89335 0.72059 0.08324 0.0
C1051 C 0.86271 0.72021 0.08781 0.0
C1052 C 0.85817 0.68678 0.04636 0.0
C1053 C 0.88891 0.68336 0.04506 0.0
N1054 N 0.93523 0.69251 0.06841 0.0
N1055 N 0.81703 0.69583 0.07784 0.0
C1056 C 0.90643 0.69903 0.06519 0.0
C1057 C 0.84536 0.70132 0.07053 0.0
N1058 N 0.91002 0.74209 0.0951 0.0
N1059 N 0.84107 0.67729 0.02408 0.0
H1060 H 0.8072 0.70388 0.09664 0.0
H1061 H 0.80447 0.68029 0.06716 0.0
H1062 H 0.84954 0.66848 0.00496 0.0
H1063 H 0.81881 0.68158 0.02314 0.0
H1064 H 0.93206 0.7446 0.0902 0.0
H1065 H 0.90126 0.75937 0.1069 0.0
H1066 H 0.94804 0.70166 0.08467 0.0
H1067 H 0.94546 0.67557 0.05738 0.0
C1068 C 0.54093 0.63881 0.33197 0.0
C1069 C 0.54023 0.60809 0.33432 0.0
C1070 C 0.57065 0.60533 0.29043 0.0
C1071 C 0.57664 0.6356 0.29233 0.0
N1072 N 0.57133 0.67983 0.32072 0.0
N1073 N 0.55979 0.56193 0.31782 0.0
C1074 C 0.56267 0.65213 0.31453 0.0
C1075 C 0.55637 0.59116 0.31399 0.0
N1076 N 0.52062 0.6554 0.34601 0.0
N1077 N 0.57778 0.59014 0.26592 0.0
H1078 H 0.55159 0.55063 0.33564 0.0
H1079 H 0.57367 0.5495 0.30485 0.0
H1080 H 0.58635 0.60005 0.2474 0.0
H1081 H 0.57172 0.56852 0.26278 0.0
H1082 H 0.51904 0.6778 0.343 0.0
H1083 H 0.50328 0.64639 0.35763 0.0
H1084 H 0.5632 0.69148 0.33842 0.0
H1085 H 0.5891 0.68975 0.31084 0.0
C1086 C 0.72926 0.91164 0.58254 0.0
C1087 C 0.72665 0.9056 0.61276 0.0
C1088 C 0.69681 0.94952 0.61851 0.0
C1089 C 0.69562 0.95294 0.58786 0.0
N1090 N 0.7075 0.93409 0.54026 0.0
N1091 N 0.70279 0.91609 0.65851 0.0
C1092 C 0.7111 0.93323 0.56969 0.0
C1093 C 0.70909 0.92386 0.63051 0.0
N1094 N 0.74981 0.89759 0.56623 0.0
N1095 N 0.68704 0.97125 0.63631 0.0
H1096 H 0.71006 0.89683 0.66791 0.0
H1097 H 0.68773 0.92718 0.67136 0.0
H1098 H 0.67907 0.99093 0.62842 0.0
H1099 H 0.68995 0.97107 0.65875 0.0
H1100 H 0.75467 0.90326 0.54484 0.0
H1101 H 0.7641 0.88233 0.57491 0.0
H1102 H 0.7158 0.91826 0.5263 0.0
H1103 H 0.69404 0.94904 0.52993 0.0
C1104 C 0.19091 0.3393 0.25507 0.0
C1105 C 0.21593 0.35634 0.26154 0.0
C1106 C 0.20882 0.34507 0.31272 0.0
C1107 C 0.18874 0.3227 0.30568 0.0
N1108 N 0.16422 0.29577 0.26753 0.0
N1109 N 0.25375 0.36629 0.29712 0.0
C1110 C 0.18043 0.31908 0.27613 0.0
C1111 C 0.2263 0.35696 0.29054 0.0
N1112 N 0.17684 0.34264 0.22924 0.0
N1113 N 0.21152 0.35505 0.34051 0.0
H1114 H 0.26955 0.37105 0.28155 0.0
H1115 H 0.26218 0.36496 0.31809 0.0
H1116 H 0.19794 0.34826 0.35734 0.0
H1117 H 0.22482 0.37267 0.34579 0.0
H1118 H 0.15726 0.33218 0.22459 0.0
H1119 H 0.18279 0.35843 0.2141 0.0
H1120 H 0.16025 0.29115 0.24573 0.0
H1121 H 0.15728 0.27946 0.28157 0.0
C1122 C 0.89813 0.02368 0.55988 0.0
C1123 C 0.87722 1.00357 0.54904 0.0
C1124 C 0.88876 0.97027 0.58864 0.0
C1125 C 0.91379 0.98704 0.59496 0.0
N1126 N 0.94074 0.03146 0.59034 0.0
N1127 N 0.85041 0.95898 0.55425 0.0
C1128 C 0.91772 0.01461 0.58203 0.0
C1129 C 0.87151 0.97741 0.56409 0.0
N1130 N 0.89931 0.05116 0.54868 0.0
N1131 N 0.88144 0.94783 0.60658 0.0
H1132 H 0.83687 0.96418 0.53687 0.0
H1133 H 0.84706 0.93822 0.56252 0.0
H1134 H 0.89388 0.94248 0.62474 0.0
H1135 H 0.86169 0.93683 0.60533 0.0
H1136 H 0.91293 0.06749 0.55631 0.0
H1137 H 0.88491 0.05848 0.53287 0.0
H1138 H 0.94616 0.05125 0.58094 0.0
H1139 H 0.95479 0.02535 0.60699 0.0
C1140 C 0.29549 0.71369 0.77167 0.0
C1141 C 0.31271 0.69946 0.79259 0.0
C1142 C 0.30971 0.65429 0.76429 0.0
C1143 C 0.2882 0.66717 0.7463 0.0
N1144 N 0.25818 0.70922 0.73549 0.0
N1145 N 0.33676 0.65633 0.80956 0.0
C1146 C 0.28076 0.69704 0.75033 0.0
C1147 C 0.32026 0.66982 0.78897 0.0
N1148 N 0.29334 0.7433 0.77212 0.0
N1149 N 0.32049 0.6275 0.75731 0.0
H1150 H 0.34567 0.66742 0.82719 0.0
H1151 H 0.34025 0.63399 0.8101 0.0
H1152 H 0.31376 0.61604 0.73895 0.0
H1153 H 0.33793 0.61788 0.76797 0.0
H1154 H 0.28357 0.75529 0.75566 0.0
H1155 H 0.30416 0.75602 0.78742 0.0
H1156 H 0.24944 0.72949 0.74055 0.0
H1157 H 0.24636 0.6984 0.71975 0.0
C1158 C 0.56329 0.03225 0.00905 0.0
C1159 C 0.59325 0.03932 0.00548 0.0
C1160 C 0.58925 0.07591 0.04409 0.0
C1161 C 0.55924 0.06924 0.04689 0.0
N1162 N 0.5161 0.04681 0.02777 0.0
N1163 N 0.63344 0.07154 0.01527 0.0
C1164 C 0.54575 0.0494 0.02777 0.0
C1165 C 0.60586 0.06234 0.0217 0.0
N1166 N 0.55202 0.00788 0.99633 0.0
N1167 N 0.60199 0.09441 0.0635 0.0
H1168 H 0.6461 0.06206 0.99897 0.0
H1169 H 0.6429 0.08996 0.02439 0.0
H1170 H 0.59009 0.10558 0.07933 0.0
H1171 H 0.62438 0.09751 0.06497 0.0
H1172 H 0.53123 0.99994 1.00072 0.0
H1173 H 0.56433 0.99382 0.98357 0.0
H1174 H 0.50468 0.0347 0.01246 0.0
H1175 H 0.50274 0.05919 0.04136 0.0
C1176 C 0.2053 0.66904 0.21526 0.0
C1177 C 0.2046 0.69985 0.21372 0.0
C1178 C 0.23382 0.70257 0.25813 0.0
C1179 C 0.23226 0.67176 0.26091 0.0
N1180 N 0.20958 0.62684 0.24625 0.0
N1181 N 0.21435 0.74626 0.23628 0.0
C1182 C 0.21576 0.65537 0.24077 0.0
C1183 C 0.21718 0.71669 0.23628 0.0
N1184 N 0.19716 0.65269 0.19193 0.0
N1185 N 0.25299 0.71826 0.27455 0.0
H1186 H 0.20431 0.7578 0.21965 0.0
H1187 H 0.22007 0.75925 0.25391 0.0
H1188 H 0.26719 0.709 0.2894 0.0
H1189 H 0.25709 0.74029 0.27142 0.0
H1190 H 0.20003 0.63025 0.19083 0.0
H1191 H 0.19028 0.66191 0.17256 0.0
H1192 H 0.19537 0.61461 0.23356 0.0
H1193 H 0.21608 0.61635 0.26522 0.0
C1194 C 0.60815 0.02435 0.45561 0.0
C1195 C 0.6271 1.00185 0.46524 0.0
C1196 C 0.61244 0.97197 0.42397 0.0
C1197 C 0.58935 0.99158 0.4183 0.0
N1198 N 0.56548 0.03714 0.42726 0.0
N1199 N 0.64803 0.95439 0.45855 0.0
C1200 C 0.58758 0.01829 0.43335 0.0
C1201 C 0.62973 0.97578 0.4492 0.0
N1202 N 0.60985 0.05141 0.46778 0.0
N1203 N 0.61787 0.94996 0.40481 0.0
H1204 H 0.66171 0.95704 0.47641 0.0
H1205 H 0.6485 0.93359 0.44963 0.0
H1206 H 0.60613 0.9478 0.38557 0.0
H1207 H 0.63572 0.93613 0.40629 0.0
H1208 H 0.59828 0.06931 0.46032 0.0
H1209 H 0.62492 0.05677 0.48375 0.0
H1210 H 0.56106 0.05577 0.43931 0.0
H1211 H 0.55072 0.03351 0.41049 0.0
C1212 C 0.31335 0.29508 0.74954 0.0
C1213 C 0.33436 0.30782 0.73114 0.0
C1214 C 0.32272 0.35596 0.7509 0.0
C1215 C 0.29819 0.34381 0.76535 0.0
N1216 N 0.26797 0.30167 0.77524 0.0
N1217 N 0.3599 0.35 0.71369 0.0
C1218 C 0.29318 0.31322 0.76434 0.0
C1219 C 0.33958 0.33816 0.73195 0.0
N1220 N 0.31224 0.26554 0.75215 0.0
N1221 N 0.33016 0.38432 0.75569 0.0
H1222 H 0.37367 0.33725 0.70086 0.0
H1223 H 0.36226 0.37224 0.71031 0.0
H1224 H 0.31836 0.39787 0.76954 0.0
H1225 H 0.34929 0.39372 0.74796 0.0
H1226 H 0.29917 0.25487 0.7673 0.0
H1227 H 0.32674 0.25192 0.74116 0.0
H1228 H 0.26182 0.28009 0.77227 0.0
H1229 H 0.2516 0.3141 0.7847 0.0
C1230 C 0.90432 0.0552 0.98195 0.0
C1231 C 0.91766 0.03245 0.99791 0.0
C1232 C 0.96486 0.04425 0.97573 0.0
C1233 C 0.95082 0.06409 0.95706 0.0
N1234 N 0.90753 0.08861 0.94116 0.0
N1235 N 0.95982 1.00232 0.00677 0.0
C1236 C 0.92064 0.06984 0.95999 0.0
C1237 C 0.94782 0.02637 0.99422 0.0
N1238 N 0.87633 0.06312 0.98823 0.0
N1239 N 0.99457 0.04247 0.9756 0.0
H1240 H 0.9479 0.9878 0.01938 0.0
H1241 H 0.98084 0.99504 1.00239 0.0
H1242 H 0.00759 0.0554 0.9622 0.0
H1243 H 0.00638 0.03043 0.99063 0.0
H1244 H 0.86622 0.08132 0.97947 0.0
H1245 H 0.86376 0.05261 1.00394 0.0
H1246 H 0.88509 0.09132 0.93975 0.0
H1247 H 0.91921 0.10055 0.92575 0.0
C1248 C 0.26641 0.2011 0.2983 0.0
C1249 C 0.28756 0.18546 0.31411 0.0
C1250 C 0.26102 0.19521 0.35932 0.0
C1251 C 0.24329 0.21546 0.34434 0.0
N1252 N 0.2308 0.23965 0.29928 0.0
N1253 N 0.30574 0.16717 0.35946 0.0
C1254 C 0.24592 0.21852 0.31362 0.0
C1255 C 0.28489 0.18209 0.34457 0.0
N1256 N 0.26657 0.20003 0.26862 0.0
N1257 N 0.25464 0.18819 0.38749 0.0
H1258 H 0.32261 0.15605 0.34902 0.0
H1259 H 0.30714 0.16698 0.38203 0.0
H1260 H 0.23677 0.19686 0.39855 0.0
H1261 H 0.26521 0.1718 0.39888 0.0
H1262 H 0.25005 0.2086 0.25581 0.0
H1263 H 0.28186 0.1881 0.2568 0.0
H1264 H 0.23402 0.24465 0.27747 0.0
H1265 H 0.21666 0.25411 0.30941 0.0
C1266 C 0.06116 0.99463 0.58424 0.0
C1267 C 0.03857 0.98069 0.56827 0.0
C1268 C 0.04761 0.0138 0.52735 0.0
C1269 C 0.06659 0.03028 0.54511 0.0
N1270 N 0.09406 0.03587 0.58892 0.0
N1271 N 0.00874 0.97832 0.52511 0.0
C1272 C 0.07437 0.02033 0.57303 0.0
C1273 C 0.03177 0.99021 0.53967 0.0
N1274 N 0.07017 0.98297 0.60995 0.0
N1275 N 0.04455 0.02099 0.4987 0.0
H1276 H 0.99555 0.96196 0.53354 0.0
H1277 H 1.00101 0.98614 0.5054 0.0
H1278 H 0.05558 0.03836 0.48915 0.0
H1279 H 0.03336 0.00831 0.48371 0.0
H1280 H 0.08815 0.99021 0.62155 0.0
H1281 H 0.06073 0.9645 0.61893 0.0
H1282 H 0.09834 0.03228 0.61079 0.0
H1283 H 0.10581 0.05319 0.58011 0.0
C1284 C 0.20643 0.82076 0.83944 0.0
C1285 C 0.20823 0.82015 0.8086 0.0
C1286 C 0.26016 0.80859 0.81154 0.0
C1287 C 0.25655 0.80262 0.84152 0.0
N1288 N 0.2317 0.81568 0.88554 0.0
N1289 N 0.23657 0.81288 0.76486 0.0
C1290 C 0.23119 0.81264 0.856 0.0
C1291 C 0.23516 0.81443 0.79449 0.0
N1292 N 0.18089 0.82846 0.85271 0.0
N1293 N 0.28739 0.8106 0.79976 0.0
H1294 H 0.21876 0.81688 0.75149 0.0
H1295 H 0.25483 0.80537 0.75366 0.0
H1296 H 0.30613 0.81025 0.81241 0.0
H1297 H 0.29129 0.81693 0.77837 0.0
H1298 H 0.17673 0.82612 0.87481 0.0
H1299 H 0.16325 0.83682 0.84132 0.0
H1300 H 0.21479 0.82431 0.89789 0.0
H1301 H 0.25063 0.81206 0.89748 0.0
C1302 C 0.4624 0.98109 0.10883 0.0
C1303 C 0.46445 0.00942 0.09732 0.0
C1304 C 0.45 0.9907 0.04948 0.0
C1305 C 0.45228 0.96175 0.06015 0.0
N1306 N 0.46622 0.92989 0.10001 0.0
N1307 N 0.44524 0.0419 0.06119 0.0
C1308 C 0.4599 0.95702 0.08983 0.0
C1309 C 0.45386 0.0146 0.06888 0.0
N1310 N 0.46084 0.9774 0.13825 0.0
N1311 N 0.44641 0.99545 0.0204 0.0
H1312 H 0.44384 0.05881 0.0762 0.0
H1313 H 0.43532 0.04674 0.0415 0.0
H1314 H 0.44499 0.97868 0.00522 0.0
H1315 H 0.44794 0.01591 0.01087 0.0
H1316 H 0.45649 0.95745 0.14804 0.0
H1317 H 0.45974 0.99503 0.15251 0.0
H1318 H 0.47545 0.92634 0.12034 0.0
H1319 H 0.46457 0.91094 0.08791 0.0
C1320 C 0.30189 0.81958 0.16696 0.0
C1321 C 0.31141 0.80563 0.19274 0.0
C1322 C 0.28161 0.76314 0.18128 0.0
C1323 C 0.26963 0.77827 0.15731 0.0
N1324 N 0.26596 0.82172 0.12853 0.0
N1325 N 0.30636 0.76666 0.22743 0.0
C1326 C 0.27903 0.8068 0.15051 0.0
C1327 C 0.30013 0.77809 0.20075 0.0
N1328 N 0.31561 0.84418 0.15743 0.0
N1329 N 0.27591 0.73422 0.18499 0.0
H1330 H 0.319 0.7775 0.24276 0.0
H1331 H 0.29675 0.74784 0.23553 0.0
H1332 H 0.2634 0.72222 0.17047 0.0
H1333 H 0.28606 0.72139 0.20056 0.0
H1334 H 0.31177 0.85354 0.13722 0.0
H1335 H 0.33261 0.85405 0.16869 0.0
H1336 H 0.26936 0.84376 0.12466 0.0
H1337 H 0.25038 0.81228 0.11512 0.0
C1338 C 0.44187 0.99816 0.42738 0.0
C1339 C 0.46338 0.98228 0.44274 0.0
C1340 C 0.45525 0.01354 0.48533 0.0
C1341 C 0.43844 0.03255 0.4679 0.0
N1342 N 0.41493 0.04329 0.42262 0.0
N1343 N 0.49151 0.97542 0.48654 0.0
C1344 C 0.4312 0.02476 0.43908 0.0
C1345 C 0.46985 0.98962 0.47206 0.0
N1346 N 0.43156 0.98751 0.40168 0.0
N1347 N 0.45788 0.01887 0.51443 0.0
H1348 H 0.50324 0.95815 0.47783 0.0
H1349 H 0.49934 0.98188 0.50672 0.0
H1350 H 0.44822 0.03666 0.52464 0.0
H1351 H 0.46735 1.00438 0.52893 0.0
H1352 H 0.41426 0.9967 0.39042 0.0
H1353 H 0.43853 0.96769 0.39306 0.0
H1354 H 0.41186 0.04075 0.40037 0.0
H1355 H 0.4056 0.06216 0.43113 0.0
C1356 C 0.24942 0.20427 0.71232 0.0
C1357 C 0.22319 0.20029 0.69674 0.0
C1358 C 0.24843 0.21401 0.6515 0.0
C1359 C 0.27439 0.21896 0.66757 0.0
N1360 N 0.30168 0.2022 0.70933 0.0
N1361 N 0.19967 0.1933 0.65056 0.0
C1362 C 0.27569 0.20898 0.69678 0.0
C1363 C 0.22321 0.20282 0.66596 0.0
N1364 N 0.24929 0.20472 0.742 0.0
N1365 N 0.24818 0.21921 0.62231 0.0
H1366 H 0.1815 0.1839 0.66044 0.0
H1367 H 0.19898 0.19228 0.62799 0.0
H1368 H 0.26727 0.22237 0.61035 0.0
H1369 H 0.22927 0.22028 0.60999 0.0
H1370 H 0.26754 0.21045 0.75412 0.0
H1371 H 0.23041 0.20233 0.75443 0.0
H1372 H 0.3032 0.19342 0.73014 0.0
H1373 H 0.32095 0.20035 0.6975 0.0
C1374 C 0.06549 0.99174 0.95476 0.0
C1375 C 0.06448 0.96259 0.94441 0.0
C1376 C 0.05239 0.98073 0.89575 0.0
C1377 C 0.04906 0.00901 0.9071 0.0
N1378 N 0.0677 0.04289 0.94236 0.0
N1379 N 0.05188 0.92948 0.90501 0.0
C1380 C 0.06011 0.01512 0.9352 0.0
C1381 C 0.05669 0.95708 0.91489 0.0
N1382 N 0.06928 0.9971 0.98372 0.0
N1383 N 0.05352 0.97681 0.86634 0.0
H1384 H 0.05503 0.91082 0.91719 0.0
H1385 H 0.04247 0.92512 0.88492 0.0
H1386 H 0.05339 0.99431 0.85193 0.0
H1387 H 0.05875 0.95704 0.85658 0.0
H1388 H 0.06677 0.01759 0.99301 0.0
H1389 H 0.07186 0.98068 0.99908 0.0
H1390 H 0.07788 0.04843 0.96176 0.0
H1391 H 0.06807 0.05963 0.92714 0.0
C1392 C 0.29678 0.28926 0.23445 0.0
C1393 C 0.30629 0.30078 0.20748 0.0
C1394 C 0.34652 0.26564 0.20638 0.0
C1395 C 0.339 0.25679 0.23494 0.0
N1396 N 0.30943 0.26298 0.27805 0.0
N1397 N 0.34208 0.30257 0.16902 0.0
C1398 C 0.3148 0.2694 0.24952 0.0
C1399 C 0.33155 0.28953 0.19357 0.0
N1400 N 0.27001 0.29669 0.24522 0.0
N1401 N 0.36783 0.25113 0.1915 0.0
H1402 H 0.33172 0.32005 0.15905 0.0
H1403 H 0.36215 0.29752 0.15973 0.0
H1404 H 0.37963 0.23408 0.20061 0.0
H1405 H 0.37232 0.25454 0.16957 0.0
H1406 H 0.2608 0.28753 0.26376 0.0
H1407 H 0.25558 0.30991 0.23393 0.0
H1408 H 0.29406 0.27382 0.29072 0.0
H1409 H 0.32206 0.24856 0.28997 0.0
C1410 C 0.80605 0.2467 0.81949 0.0
C1411 C 0.81953 0.21907 0.82222 0.0
C1412 C 0.86635 0.24035 0.80746 0.0
C1413 C 0.85154 0.26613 0.79944 0.0
N1414 N 0.81305 0.29862 0.81426 0.0
N1415 N 0.8633 0.19046 0.82473 0.0
C1416 C 0.82307 0.27095 0.81049 0.0
C1417 C 0.8501 0.21627 0.81833 0.0
N1418 N 0.77681 0.2496 0.82413 0.0
N1419 N 0.89607 0.23982 0.80605 0.0
H1420 H 0.8523 0.17336 0.83482 0.0
H1421 H 0.88492 0.18567 0.82002 0.0
H1422 H 0.90816 0.25838 0.80104 0.0
H1423 H 0.9089 0.22236 0.81236 0.0
H1424 H 0.76519 0.26817 0.81853 0.0
H1425 H 0.76373 0.23279 0.83191 0.0
H1426 H 0.79314 0.30349 0.82398 0.0
H1427 H 0.82646 0.31674 0.81194 0.0
C1428 C 0.01797 0.57825 0.01025 0.0
C1429 C 1.00447 0.5999 0.02771 0.0
C1430 C 0.0344 0.58527 0.06921 0.0
C1431 C 0.04637 0.56237 0.0522 0.0
N1432 N 0.04455 0.53282 0.009 0.0
N1433 N 0.9959 0.62104 0.07483 0.0
C1434 C 0.03655 0.55757 0.02345 0.0
C1435 C 0.01138 0.6024 0.05759 0.0
N1436 N 0.01378 0.57797 0.98086 0.0
N1437 N 0.04609 0.59179 0.09568 0.0
H1438 H 0.9795 0.63439 0.06674 0.0
H1439 H 0.9978 0.62166 0.09736 0.0
H1440 H 0.06312 0.58005 0.10484 0.0
H1441 H 0.04048 0.61023 0.10757 0.0
H1442 H 0.02526 0.56457 0.96664 0.0
H1443 H 1.00084 0.59309 0.9702 0.0
H1444 H 0.03668 0.52703 0.98865 0.0
H1445 H 0.05699 0.51651 0.01857 0.0
C1446 C 0.65644 0.75052 0.3265 0.0
C1447 C 0.66944 0.73761 0.30158 0.0
C1448 C 0.71714 0.75629 0.31665 0.0
C1449 C 0.70326 0.7731 0.33827 0.0
N1450 N 0.66036 0.78638 0.36509 0.0
N1451 N 0.71199 0.73068 0.27113 0.0
C1452 C 0.67314 0.76981 0.34394 0.0
C1453 C 0.69991 0.7406 0.29646 0.0
N1454 N 0.62822 0.74418 0.33351 0.0
N1455 N 0.74684 0.75619 0.31504 0.0
H1456 H 0.70004 0.7203 0.25503 0.0
H1457 H 0.73332 0.73507 0.26477 0.0
H1458 H 0.75966 0.76782 0.32969 0.0
H1459 H 0.75865 0.74255 0.30132 0.0
H1460 H 0.61827 0.75055 0.35285 0.0
H1461 H 0.6153 0.73064 0.32083 0.0
H1462 H 0.63796 0.78815 0.36803 0.0
H1463 H 0.67253 0.7993 0.37919 0.0
C1464 C 0.98252 0.89228 0.0535 0.0
C1465 C 0.00949 0.90625 0.04871 0.0
C1466 C 0.98962 0.95188 0.06751 0.0
C1467 C 0.96132 0.93929 0.06771 0.0
N1468 N 0.93066 0.89692 0.06072 0.0
N1469 N 0.04148 0.94294 0.06813 0.0
C1470 C 0.95776 0.90917 0.06111 0.0
C1471 C 0.01406 0.93415 0.06094 0.0
N1472 N 0.98124 0.86263 0.05266 0.0
N1473 N 0.99316 0.98116 0.07112 0.0
H1474 H 0.05922 0.92885 0.06754 0.0
H1475 H 0.0458 0.96231 0.07904 0.0
H1476 H 0.97599 0.99545 0.0749 0.0
H1477 H 0.01292 0.99172 0.0675 0.0
H1478 H 0.96289 0.85063 0.05841 0.0
H1479 H 0.99989 0.84996 0.04989 0.0
H1480 H 0.92639 0.87632 0.05238 0.0
H1481 H 0.9119 0.90788 0.06699 0.0
C1482 C 0.18843 0.7337 0.68348 0.0
C1483 C 0.18564 0.70459 0.69398 0.0
C1484 C 0.15584 0.72307 0.7341 0.0
C1485 C 0.15446 0.75093 0.72108 0.0
N1486 N 0.16433 0.78025 0.67864 0.0
N1487 N 0.15664 0.67203 0.72433 0.0
C1488 C 0.16907 0.7555 0.69421 0.0
C1489 C 0.16606 0.69937 0.71755 0.0
N1490 N 0.21048 0.74144 0.66506 0.0
N1491 N 0.14947 0.71914 0.76287 0.0
H1492 H 0.16171 0.6537 0.71216 0.0
H1493 H 0.14071 0.66827 0.74011 0.0
H1494 H 0.14546 0.73622 0.7772 0.0
H1495 H 0.15243 0.69923 0.77328 0.0
H1496 H 0.21436 0.76296 0.65914 0.0
H1497 H 0.22706 0.72748 0.6586 0.0
H1498 H 0.17277 0.78333 0.6578 0.0
H1499 H 0.14939 0.79607 0.68509 0.0
C1500 C 0.0175 0.41531 0.44603 0.0
C1501 C 0.00984 0.41802 0.47578 0.0
C1502 C 0.04049 0.46139 0.4797 0.0
C1503 C 0.05226 0.45562 0.45182 0.0
N1504 N 0.05197 0.42716 0.40768 0.0
N1505 N 0.01595 0.44223 0.522 0.0
C1506 C 0.04046 0.43287 0.43449 0.0
C1507 C 0.02171 0.4408 0.49287 0.0
N1508 N 1.00277 0.39605 0.42889 0.0
N1509 N 0.04681 0.48705 0.49328 0.0
H1510 H 1.00264 0.42738 0.53273 0.0
H1511 H 0.02642 0.45655 0.53604 0.0
H1512 H 0.05968 0.50303 0.48356 0.0
H1513 H 0.03673 0.49388 0.51242 0.0
H1514 H 1.00515 0.395 0.40641 0.0
H1515 H 0.98644 0.38247 0.43698 0.0
H1516 H 0.04675 0.40883 0.3955 0.0
H1517 H 0.06816 0.43986 0.39815 0.0
C1518 C 0.4799 0.58038 0.93975 0.0
C1519 C 0.45002 0.58661 0.9447 0.0
C1520 C 0.46368 0.62663 0.97659 0.0
C1521 C 0.49379 0.62209 0.97012 0.0
N1522 N 0.52788 0.60155 0.93541 0.0
N1523 N 0.4154 0.62415 0.9565 0.0
C1524 C 0.50112 0.60119 0.9484 0.0
C1525 C 0.44259 0.61268 0.9592 0.0
N1526 N 0.48846 0.55436 0.92835 0.0
N1527 N 0.45452 0.64173 1.00052 0.0
H1528 H 0.39991 0.61517 0.9426 0.0
H1529 H 0.40993 0.64444 0.96508 0.0
H1530 H 0.46807 0.64881 0.01707 0.0
H1531 H 0.43255 0.64338 0.00611 0.0
H1532 H 0.51029 0.54825 0.92709 0.0
H1533 H 0.47401 0.53785 0.92281 0.0
H1534 H 0.53331 0.58778 0.91822 0.0
H1535 H 0.54295 0.6181 0.93903 0.0
C1536 C 0.69747 0.7959 0.75971 0.0
C1537 C 0.69533 0.81404 0.7846 0.0
C1538 C 0.71708 0.85382 0.75611 0.0
C1539 C 0.72483 0.83398 0.7338 0.0
N1540 N 0.72761 0.78358 0.71863 0.0
N1541 N 0.70702 0.86004 0.80725 0.0
C1542 C 0.71604 0.80438 0.73641 0.0
C1543 C 0.70619 0.84299 0.783 0.0
N1544 N 0.68305 0.76995 0.75859 0.0
N1545 N 0.71946 0.88304 0.75148 0.0
H1546 H 0.69949 0.85304 0.82738 0.0
H1547 H 0.71747 0.88014 0.80784 0.0
H1548 H 0.72594 0.89173 0.73155 0.0
H1549 H 0.71177 0.89848 0.76619 0.0
H1550 H 0.68177 0.75758 0.73965 0.0
H1551 H 0.6704 0.76185 0.77555 0.0
H1552 H 0.72384 0.76144 0.72154 0.0
H1553 H 0.74395 0.78777 0.70354 0.0
C1554 C 0.41338 0.44897 0.04767 0.0
C1555 C 0.44371 0.45379 0.05007 0.0
C1556 C 0.44236 0.4885 0.01002 0.0
C1557 C 0.41207 0.4829 0.00666 0.0
N1558 N 0.37031 0.45301 0.01772 0.0
N1559 N 0.48839 0.47245 0.02981 0.0
C1560 C 0.39804 0.4616 0.0241 0.0
C1561 C 0.45864 0.47147 0.02978 0.0
N1562 N 0.39913 0.43311 0.06842 0.0
N1563 N 0.4552 0.51157 0.99629 0.0
H1564 H 0.501 0.46065 0.04443 0.0
H1565 H 0.50059 0.48271 0.01368 0.0
H1566 H 0.44409 0.52571 0.9827 0.0
H1567 H 0.4763 0.51859 1.00065 0.0
H1568 H 0.37654 0.43183 0.06992 0.0
H1569 H 0.40997 0.42255 0.08525 0.0
H1570 H 0.35989 0.43569 0.02797 0.0
H1571 H 0.35868 0.46143 1.00024 0.0
C1572 C 0.81307 0.16221 0.29143 0.0
C1573 C 0.82236 0.19148 0.28713 0.0
C1574 C 0.81317 0.18623 0.23474 0.0
C1575 C 0.79965 0.15907 0.24032 0.0
N1576 N 0.80272 0.11575 0.26899 0.0
N1577 N 0.82989 0.23206 0.25448 0.0
C1578 C 0.80466 0.14531 0.26718 0.0
C1579 C 0.8227 0.20351 0.2586 0.0
N1580 N 0.81058 0.15085 0.31872 0.0
N1581 N 0.81881 0.19453 0.2068 0.0
H1582 H 0.83663 0.24579 0.27114 0.0
H1583 H 0.8267 0.24298 0.23495 0.0
H1584 H 0.81599 0.18056 0.18922 0.0
H1585 H 0.83048 0.21315 0.20134 0.0
H1586 H 0.8006 0.13097 0.32306 0.0
H1587 H 0.81616 0.16211 0.33741 0.0
H1588 H 0.80874 0.10398 0.28733 0.0
H1589 H 0.79883 0.10287 0.25072 0.0
C1590 C 0.061 0.56215 0.52876 0.0
C1591 C 0.07172 0.5629 0.55756 0.0
C1592 C 0.12112 0.55301 0.5396 0.0
C1593 C 0.10942 0.54871 0.51142 0.0
N1594 N 0.07344 0.56685 0.47796 0.0
N1595 N 0.11265 0.56755 0.58984 0.0
C1596 C 0.08098 0.55894 0.50547 0.0
C1597 C 0.10213 0.56105 0.56284 0.0
N1598 N 0.03174 0.56295 0.52359 0.0
N1599 N 0.15038 0.54988 0.5437 0.0
H1600 H 0.09927 0.57457 0.60681 0.0
H1601 H 0.13459 0.56791 0.59523 0.0
H1602 H 0.16487 0.54837 0.52623 0.0
H1603 H 0.16042 0.54944 0.56389 0.0
H1604 H 0.0229 0.5591 0.50313 0.0
H1605 H 0.01621 0.56499 0.54006 0.0
H1606 H 0.05336 0.57604 0.47293 0.0
H1607 H 0.08876 0.56855 0.46126 0.0
C1608 C 0.69721 0.21211 0.74047 0.0
C1609 C 0.68435 0.19526 0.71831 0.0
C1610 C 0.70061 0.15074 0.74233 0.0
C1611 C 0.71855 0.16779 0.76081 0.0
N1612 N 0.73631 0.21527 0.77508 0.0
N1613 N 0.67145 0.14877 0.69841 0.0
C1614 C 0.71703 0.19867 0.75978 0.0
C1615 C 0.68509 0.16456 0.7195 0.0
N1616 N 0.6913 0.24116 0.74229 0.0
N1617 N 0.69806 0.12153 0.74698 0.0
H1618 H 0.65858 0.15846 0.6825 0.0
H1619 H 0.67382 0.12642 0.6959 0.0
H1620 H 0.70875 0.1109 0.76382 0.0
H1621 H 0.68346 0.10826 0.73592 0.0
H1622 H 0.69782 0.25416 0.75962 0.0
H1623 H 0.67741 0.25169 0.72787 0.0
H1624 H 0.7374 0.23779 0.77358 0.0
H1625 H 0.7534 0.20663 0.78699 0.0
C1626 C 0.09857 0.46711 0.94384 0.0
C1627 C 0.06981 0.4558 0.94806 0.0
C1628 C 0.07896 0.45378 1.00073 0.0
C1629 C 0.10584 0.46819 0.99628 0.0
N1630 N 0.14685 0.47138 0.96408 0.0
N1631 N 0.03125 0.44276 0.98175 0.0
C1632 C 0.11741 0.4696 0.96794 0.0
C1633 C 0.05978 0.44977 0.97683 0.0
N1634 N 0.10791 0.47706 0.91743 0.0
N1635 N 0.07275 0.4421 0.02729 0.0
H1636 H 0.01577 0.44133 0.96535 0.0
H1637 H 0.02209 0.44153 1.00244 0.0
H1638 H 0.08804 0.44165 0.04397 0.0
H1639 H 0.05455 0.42921 0.0314 0.0
H1640 H 0.12717 0.4888 0.91484 0.0
H1641 H 0.09615 0.47587 0.8983 0.0
H1642 H 0.15691 0.46967 0.94381 0.0
H1643 H 0.16125 0.47022 0.98153 0.0
C1644 C 0.79995 0.81077 0.27636 0.0
C1645 C 0.78741 0.83896 0.27492 0.0
C1646 C 0.79566 0.83956 0.22209 0.0
C1647 C 0.80429 0.80977 0.22298 0.0
N1648 N 0.81024 0.76582 0.25096 0.0
N1649 N 0.7875 0.88418 0.24911 0.0
C1650 C 0.80563 0.79515 0.25016 0.0
C1651 C 0.78943 0.85455 0.24849 0.0
N1652 N 0.80861 0.79969 0.30243 0.0
N1653 N 0.79219 0.85342 0.19609 0.0
H1654 H 0.78568 0.89572 0.26857 0.0
H1655 H 0.79157 0.89742 0.23121 0.0
H1656 H 0.79691 0.84403 0.1761 0.0
H1657 H 0.78234 0.87368 0.19407 0.0
H1658 H 0.81976 0.78011 0.30446 0.0
H1659 H 0.80915 0.81205 0.32136 0.0
H1660 H 0.80786 0.75346 0.26977 0.0
H1661 H 0.81343 0.75321 0.23238 0.0
C1662 C 0.43882 0.56558 0.52318 0.0
C1663 C 0.44944 0.53986 0.53639 0.0
C1664 C 0.48517 0.53394 0.497 0.0
C1665 C 0.47349 0.55874 0.48291 0.0
N1666 N 0.44343 0.60164 0.48483 0.0
N1667 N 0.48688 0.50329 0.53979 0.0
C1668 C 0.45186 0.57588 0.49692 0.0
C1669 C 0.47416 0.52543 0.52467 0.0
N1670 N 0.41534 0.57934 0.53529 0.0
N1671 N 0.50614 0.51783 0.48332 0.0
H1672 H 0.4792 0.49589 0.55975 0.0
H1673 H 0.50653 0.49368 0.5339 0.0
H1674 H 0.51665 0.52469 0.46443 0.0
H1675 H 0.51208 0.497 0.4897 0.0
H1676 H 0.40388 0.59603 0.52532 0.0
H1677 H 0.40668 0.57326 0.5554 0.0
H1678 H 0.42976 0.61651 0.49506 0.0
H1679 H 0.45151 0.60921 0.46505 0.0
C1680 C 0.74971 0.71705 0.8083 0.0
C1681 C 0.74881 0.71839 0.83922 0.0
C1682 C 0.78957 0.68413 0.84155 0.0
C1683 C 0.78974 0.68257 0.81082 0.0
N1684 N 0.76508 0.69016 0.76563 0.0
N1685 N 0.76269 0.6973 0.88508 0.0
C1686 C 0.76782 0.69627 0.79453 0.0
C1687 C 0.76709 0.69997 0.85583 0.0
N1688 N 0.73565 0.73734 0.79193 0.0
N1689 N 0.81157 0.67156 0.85693 0.0
H1690 H 0.74588 0.70802 0.89599 0.0
H1691 H 0.77379 0.68238 0.89791 0.0
H1692 H 0.82758 0.65879 0.84706 0.0
H1693 H 0.81474 0.67502 0.87906 0.0
H1694 H 0.73837 0.73913 0.76953 0.0
H1695 H 0.724 0.75451 0.80084 0.0
H1696 H 0.74792 0.69774 0.753 0.0
H1697 H 0.77835 0.67497 0.75517 0.0
C1698 C 0.51049 0.54648 0.0974 0.0
C1699 C 0.52595 0.5199 0.09895 0.0
C1700 C 0.55889 0.53829 0.06128 0.0
C1701 C 0.54737 0.56694 0.06469 0.0
N1702 N 0.51602 0.59799 0.09494 0.0
N1703 N 0.56927 0.49308 0.0859 0.0
C1704 C 0.52441 0.5711 0.08544 0.0
C1705 C 0.55163 0.5166 0.08209 0.0
N1706 N 0.48191 0.54822 0.10561 0.0
N1707 N 0.57486 0.53079 0.03733 0.0
H1708 H 0.56537 0.47739 0.10179 0.0
H1709 H 0.58937 0.4911 0.07547 0.0
H1710 H 0.57729 0.54424 0.01932 0.0
H1711 H 0.58181 0.50956 0.03351 0.0
H1712 H 0.46956 0.56697 0.10249 0.0
H1713 H 0.46948 0.5302 0.1115 0.0
H1714 H 0.50079 0.60065 0.11163 0.0
H1715 H 0.52636 0.61734 0.08972 0.0
C1716 C 0.7404 0.30548 0.28646 0.0
C1717 C 0.71916 0.32105 0.30226 0.0
C1718 C 0.74547 0.31144 0.34742 0.0
C1719 C 0.76348 0.29138 0.33227 0.0
N1720 N 0.77455 0.2659 0.28741 0.0
N1721 N 0.70036 0.33891 0.34774 0.0
C1722 C 0.76043 0.28782 0.30168 0.0
C1723 C 0.72152 0.32432 0.33276 0.0
N1724 N 0.741 0.30713 0.25684 0.0
N1725 N 0.75162 0.31852 0.37556 0.0
H1726 H 0.68343 0.34976 0.33733 0.0
H1727 H 0.69882 0.33907 0.37032 0.0
H1728 H 0.76945 0.30996 0.3866 0.0
H1729 H 0.7408 0.33482 0.387 0.0
H1730 H 0.75764 0.29829 0.24418 0.0
H1731 H 0.72647 0.32004 0.24524 0.0
H1732 H 0.77049 0.26044 0.26583 0.0
H1733 H 0.78795 0.25105 0.29774 0.0
C1734 C 0.95308 0.47194 0.61402 0.0
C1735 C 0.9639 0.49778 0.60092 0.0
C1736 C 0.94844 0.48068 0.55311 0.0
C1737 C 0.94011 0.45384 0.56563 0.0
N1738 N 0.92795 0.42563 0.60793 0.0
N1739 N 0.95602 0.53178 0.56143 0.0
C1740 C 0.94024 0.45007 0.59621 0.0
C1741 C 0.95663 0.5039 0.57154 0.0
N1742 N 0.95472 0.46881 0.64349 0.0
N1743 N 0.95006 0.48365 0.5236 0.0
H1744 H 0.95719 0.54983 0.57499 0.0
H1745 H 0.94928 0.5371 0.54052 0.0
H1746 H 0.94397 0.46731 0.50915 0.0
H1747 H 0.95972 0.50155 0.51357 0.0
H1748 H 0.95027 0.44965 0.65459 0.0
H1749 H 0.96008 0.48613 0.65711 0.0
H1750 H 0.92621 0.42148 0.63006 0.0
H1751 H 0.91782 0.40982 0.59523 0.0
C1752 C 0.77775 0.29152 0.71338 0.0
C1753 C 0.79147 0.31596 0.70076 0.0
C1754 C 0.75479 0.31611 0.66202 0.0
C1755 C 0.74408 0.28906 0.67229 0.0
N1756 N 0.75 0.24814 0.70465 0.0
N1757 N 0.7948 0.35074 0.66177 0.0
C1758 C 0.75657 0.2761 0.69732 0.0
C1759 C 0.78027 0.32837 0.67488 0.0
N1760 N 0.78491 0.28309 0.74089 0.0
N1761 N 0.74061 0.33 0.64004 0.0
H1762 H 0.81337 0.36023 0.67064 0.0
H1763 H 0.78965 0.35858 0.64122 0.0
H1764 H 0.72208 0.32135 0.6302 0.0
H1765 H 0.74566 0.35099 0.63326 0.0
H1766 H 0.77389 0.26682 0.75216 0.0
H1767 H 0.7998 0.29447 0.7536 0.0
H1768 H 0.76125 0.23653 0.72043 0.0
H1769 H 0.73552 0.23551 0.69291 0.0
C1770 C 0.95387 0.5366 0.95206 0.0
C1771 C 0.94032 0.56013 0.93776 0.0
C1772 C 0.95276 0.53841 0.89056 0.0
C1773 C 0.97063 0.51769 0.90483 0.0
N1774 N 0.99206 0.50084 0.94983 0.0
N1775 N 0.92779 0.58482 0.89347 0.0
C1776 C 0.97186 0.51742 0.9358 0.0
C1777 C 0.93992 0.56138 0.90698 0.0
N1778 N 0.95044 0.5332 0.98139 0.0
N1779 N 0.94731 0.53561 0.86154 0.0
H1780 H 0.91679 0.60113 0.90482 0.0
H1781 H 0.93 0.58885 0.8713 0.0
H1782 H 0.95542 0.51843 0.84912 0.0
H1783 H 0.93245 0.54853 0.85046 0.0
H1784 H 0.95721 0.51475 0.99255 0.0
H1785 H 0.93835 0.5475 0.9942 0.0
H1786 H 0.99524 0.50131 0.97219 0.0
H1787 H 0.00807 0.48904 0.93911 0.0
C1788 C 0.70071 0.69173 0.16268 0.0
C1789 C 0.7059 0.68402 0.1921 0.0
C1790 C 0.75779 0.69388 0.18531 0.0
C1791 C 0.75115 0.70851 0.15905 0.0
N1792 N 0.72124 0.7074 0.11646 0.0
N1793 N 0.7396 0.67667 0.23158 0.0
C1794 C 0.72396 0.7032 0.14569 0.0
C1795 C 0.73461 0.68414 0.20331 0.0
N1796 N 0.6734 0.68873 0.15138 0.0
N1797 N 0.78598 0.68756 0.19205 0.0
H1798 H 0.72336 0.66897 0.24546 0.0
H1799 H 0.75947 0.6801 0.24185 0.0
H1800 H 0.80296 0.69046 0.17725 0.0
H1801 H 0.7919 0.67527 0.21007 0.0
H1802 H 0.667 0.69722 0.13147 0.0
H1803 H 0.65671 0.67797 0.16242 0.0
H1804 H 0.7026 0.70257 0.10465 0.0
H1805 H 0.73909 0.71273 0.10339 0.0
C1806 C 0.5547 0.46685 0.39134 0.0
C1807 C 0.55243 0.49364 0.40644 0.0
C1808 C 0.56798 0.47083 0.45125 0.0
C1809 C 0.56756 0.44325 0.43721 0.0
N1810 N 0.57133 0.41672 0.39209 0.0
N1811 N 0.57483 0.52238 0.44404 0.0
C1812 C 0.56439 0.44176 0.40654 0.0
C1813 C 0.5652 0.49615 0.43415 0.0
N1814 N 0.54747 0.46563 0.36264 0.0
N1815 N 0.56867 0.4732 0.48084 0.0
H1816 H 0.57579 0.54064 0.43067 0.0
H1817 H 0.58579 0.52476 0.46368 0.0
H1818 H 0.56774 0.45553 0.4949 0.0
H1819 H 0.56679 0.49308 0.49156 0.0
H1820 H 0.54507 0.44633 0.35107 0.0
H1821 H 0.54368 0.48441 0.35053 0.0
H1822 H 0.57144 0.41479 0.36957 0.0
H1823 H 0.57977 0.39856 0.40264 0.0
C1824 C 0.83646 0.76437 0.66432 0.0
C1825 C 0.80569 0.76332 0.6654 0.0
C1826 C 0.80835 0.71733 0.69186 0.0
C1827 C 0.83806 0.72343 0.69836 0.0
N1828 N 0.88237 0.74772 0.68414 0.0
N1829 N 0.76183 0.73702 0.67673 0.0
C1830 C 0.85281 0.74527 0.68219 0.0
C1831 C 0.79145 0.73897 0.67768 0.0
N1832 N 0.84973 0.7835 0.64583 0.0
N1833 N 0.79654 0.69077 0.69793 0.0
H1834 H 0.74911 0.75146 0.66484 0.0
H1835 H 0.74987 0.72197 0.68875 0.0
H1836 H 0.80883 0.6731 0.70467 0.0
H1837 H 0.77549 0.68484 0.69209 0.0
H1838 H 0.87209 0.78439 0.64224 0.0
H1839 H 0.83783 0.79692 0.63201 0.0
H1840 H 0.89422 0.76528 0.67615 0.0
H1841 H 0.89513 0.73184 0.69402 0.0
C1842 C 0.35584 0.70907 0.30673 0.0
C1843 C 0.33103 0.71689 0.3235 0.0
C1844 C 0.34461 0.76796 0.31577 0.0
C1845 C 0.36415 0.75967 0.29309 0.0
N1846 N 0.38074 0.71985 0.26225 0.0
N1847 N 0.29985 0.75584 0.3408 0.0
C1848 C 0.36802 0.72954 0.28734 0.0
C1849 C 0.32491 0.74695 0.32749 0.0
N1850 N 0.36763 0.68194 0.30883 0.0
N1851 N 0.3452 0.79554 0.32668 0.0
H1852 H 0.28423 0.74164 0.34898 0.0
H1853 H 0.29343 0.77756 0.34131 0.0
H1854 H 0.3607 0.81085 0.32026 0.0
H1855 H 0.33279 0.80187 0.34462 0.0
H1856 H 0.38689 0.6762 0.2982 0.0
H1857 H 0.3602 0.66665 0.3238 0.0
H1858 H 0.38183 0.69782 0.25699 0.0
H1859 H 0.3861 0.73322 0.24483 0.0
C1860 C 0.52855 0.0626 0.51223 0.0
C1861 C 0.51953 0.08777 0.52778 0.0
C1862 C 0.56055 0.08212 0.56115 0.0
C1863 C 0.56824 0.05599 0.54667 0.0
N1864 N 0.55697 0.01824 0.51219 0.0
N1865 N 0.52397 0.11947 0.56915 0.0
C1866 C 0.55122 0.04515 0.52351 0.0
C1867 C 0.53461 0.0969 0.55299 0.0
N1868 N 0.51639 0.05616 0.48595 0.0
N1869 N 0.57854 0.09319 0.582 0.0
H1870 H 0.5053 0.13095 0.56334 0.0
H1871 H 0.53232 0.12546 0.58927 0.0
H1872 H 0.59724 0.08243 0.58895 0.0
H1873 H 0.57596 0.11374 0.59112 0.0
H1874 H 0.52297 0.03906 0.47269 0.0
H1875 H 0.5014 0.06959 0.47585 0.0
H1876 H 0.54426 0.0081 0.49653 0.0
H1877 H 0.5733 0.00475 0.52015 0.0
C1878 C 0.1922 0.28126 0.82007 0.0
C1879 C 0.18715 0.31071 0.81233 0.0
C1880 C 0.15543 0.29482 0.77315 0.0
C1881 C 0.15827 0.26536 0.78219 0.0
N1882 N 0.17064 0.2334 0.82211 0.0
N1883 N 0.15352 0.34431 0.79019 0.0
C1884 C 0.17385 0.2594 0.8082 0.0
C1885 C 0.16503 0.31704 0.79197 0.0
N1886 N 0.21513 0.27359 0.83717 0.0
N1887 N 0.14626 0.3021 0.74591 0.0
H1888 H 0.159 0.36072 0.80486 0.0
H1889 H 0.13609 0.34926 0.77661 0.0
H1890 H 0.14326 0.2872 0.72921 0.0
H1891 H 0.14596 0.32356 0.73864 0.0
H1892 H 0.22083 0.25196 0.84071 0.0
H1893 H 0.23004 0.28838 0.84552 0.0
H1894 H 0.18024 0.22909 0.84213 0.0
H1895 H 0.15537 0.21791 0.81572 0.0
C1896 C 0.44566 0.43994 0.49599 0.0
C1897 C 0.42512 0.42799 0.51562 0.0
C1898 C 0.45442 0.38358 0.51991 0.0
C1899 C 0.47559 0.39593 0.501 0.0
N1900 N 0.48742 0.43204 0.46473 0.0
N1901 N 0.40589 0.38691 0.54132 0.0
C1902 C 0.47003 0.42302 0.48713 0.0
C1903 C 0.42817 0.39913 0.5258 0.0
N1904 N 0.44226 0.46792 0.48665 0.0
N1905 N 0.46004 0.35762 0.53315 0.0
H1906 H 0.38664 0.39814 0.54578 0.0
H1907 H 0.40527 0.36525 0.54769 0.0
H1908 H 0.47923 0.34599 0.52978 0.0
H1909 H 0.44658 0.34815 0.54867 0.0
H1910 H 0.45798 0.47933 0.47499 0.0
H1911 H 0.42383 0.48025 0.49155 0.0
H1912 H 0.4832 0.4502 0.45198 0.0
H1913 H 0.50472 0.41977 0.45693 0.0
C1914 C 0.65103 0.23904 0.19208 0.0
C1915 C 0.6659 0.26416 0.20219 0.0
C1916 C 0.71263 0.24295 0.18803 0.0
C1917 C 0.69822 0.21669 0.18096 0.0
N1918 N 0.65394 0.19166 0.16857 0.0
N1919 N 0.70785 0.29487 0.19373 0.0
C1920 C 0.66736 0.21538 0.18045 0.0
C1921 C 0.69581 0.2678 0.19517 0.0
N1922 N 0.62133 0.23822 0.19348 0.0
N1923 N 0.74234 0.2439 0.1892 0.0
H1924 H 0.69545 0.31376 0.19474 0.0
H1925 H 0.7292 0.29859 0.18695 0.0
H1926 H 0.7555 0.22625 0.18372 0.0
H1927 H 0.75375 0.26153 0.1977 0.0
H1928 H 0.60883 0.21976 0.1897 0.0
H1929 H 0.60902 0.2567 0.19821 0.0
H1930 H 0.63156 0.18953 0.16609 0.0
H1931 H 0.66553 0.17442 0.15942 0.0
C1932 C 0.50279 0.93319 0.94404 0.0
C1933 C 0.50888 0.90559 0.95625 0.0
C1934 C 0.55996 0.91114 0.9409 0.0
C1935 C 0.5549 0.94133 0.93678 0.0
N1936 N 0.52105 0.98157 0.93528 0.0
N1937 N 0.54083 0.86419 0.95624 0.0
C1938 C 0.52614 0.95246 0.93808 0.0
C1939 C 0.53685 0.8932 0.95148 0.0
N1940 N 0.475 0.94041 0.93658 0.0
N1941 N 0.58665 0.89979 0.93405 0.0
H1942 H 0.5233 0.84998 0.95888 0.0
H1943 H 0.56098 0.85394 0.95661 0.0
H1944 H 0.60339 0.91229 0.92511 0.0
H1945 H 0.59196 0.87789 0.93537 0.0
H1946 H 0.4698 0.95968 0.92592 0.0
H1947 H 0.45812 0.92525 0.9367 0.0
H1948 H 0.50079 0.99088 0.9395 0.0
H1949 H 0.53743 0.99674 0.93129 0.0
C1950 C 0.97996 0.06763 0.50391 0.0
C1951 C 0.99108 0.09022 0.48592 0.0
C1952 C 0.9512 0.08265 0.4516 0.0
C1953 C 0.94139 0.05895 0.46875 0.0
N1954 N 0.94948 0.02474 0.50743 0.0
N1955 N 0.99024 0.11682 0.44097 0.0
C1956 C 0.9569 0.05004 0.49365 0.0
C1957 C 0.97764 0.09696 0.45914 0.0
N1958 N 0.99063 0.0638 0.53131 0.0
N1959 N 0.93477 0.09196 0.42874 0.0
H1960 H 0.00926 0.12801 0.44632 0.0
H1961 H 0.9831 0.12075 0.41991 0.0
H1962 H 0.91568 0.0815 0.42233 0.0
H1963 H 0.93901 0.11099 0.41726 0.0
H1964 H 0.98296 0.04837 0.5459 0.0
H1965 H 0.00542 0.07796 0.54078 0.0
H1966 H 0.96097 0.01594 0.52471 0.0
H1967 H 0.93299 0.01106 0.50009 0.0
C1968 C 0.19116 0.39433 0.44665 0.0
C1969 C 0.16595 0.40904 0.4366 0.0
C1970 C 0.1537 0.36648 0.40755 0.0
C1971 C 0.17615 0.34982 0.42103 0.0
N1972 N 0.20997 0.34766 0.46138 0.0
N1973 N 0.1172 0.40214 0.41793 0.0
C1974 C 0.19311 0.36361 0.44301 0.0
C1975 C 0.14532 0.39305 0.42029 0.0
N1976 N 0.21364 0.40937 0.4588 0.0
N1977 N 0.14117 0.3586 0.38184 0.0
H1978 H 0.10897 0.41948 0.4299 0.0
H1979 H 0.10133 0.38963 0.40764 0.0
H1980 H 0.14862 0.34197 0.36851 0.0
H1981 H 0.12597 0.3718 0.37145 0.0
H1982 H 0.23327 0.39948 0.46431 0.0
H1983 H 0.21403 0.43197 0.46016 0.0
H1984 H 0.22106 0.35697 0.47879 0.0
H1985 H 0.20957 0.32504 0.46189 0.0
C1986 C 0.91118 0.8604 0.64447 0.0
C1987 C 0.91675 0.8733 0.61708 0.0
C1988 C 0.86419 0.87465 0.60693 0.0
C1989 C 0.85868 0.8651 0.63582 0.0
N1990 N 0.87623 0.83899 0.67773 0.0
N1991 N 0.89969 0.88954 0.57041 0.0
C1992 C 0.88201 0.85497 0.65332 0.0
C1993 C 0.89359 0.87846 0.59734 0.0
N1994 N 0.934 0.85464 0.66254 0.0
N1995 N 0.84136 0.88078 0.58897 0.0
H1996 H 0.92076 0.89144 0.56225 0.0
H1997 H 0.88423 0.89711 0.55588 0.0
H1998 H 0.81984 0.88196 0.59607 0.0
H1999 H 0.84328 0.88415 0.56672 0.0
H2000 H 0.93168 0.8492 0.68437 0.0
H2001 H 0.95564 0.85643 0.65571 0.0
H2002 H 0.89213 0.82853 0.68986 0.0
H2003 H 0.8552 0.83351 0.68436 0.0
C2004 C 0.32605 0.66146 0.94373 0.0
C2005 C 0.31599 0.66495 0.91495 0.0
C2006 C 0.31534 0.61213 0.90821 0.0
C2007 C 0.32993 0.60891 0.93508 0.0
N2008 N 0.35099 0.63074 0.97814 0.0
N2009 N 0.30049 0.64432 0.86938 0.0
C2010 C 0.33533 0.63355 0.95309 0.0
C2011 C 0.31031 0.64045 0.8971 0.0
N2012 N 0.32673 0.68486 0.96205 0.0
N2013 N 0.30552 0.58803 0.89385 0.0
H2014 H 0.29492 0.66461 0.86106 0.0
H2015 H 0.29926 0.62771 0.85407 0.0
H2016 H 0.30814 0.56702 0.90194 0.0
H2017 H 0.29239 0.58881 0.8755 0.0
H2018 H 0.33078 0.68327 0.98422 0.0
H2019 H 0.32071 0.70572 0.95557 0.0
H2020 H 0.35838 0.64832 0.99028 0.0
H2021 H 0.35904 0.61106 0.98575 0.0
C2022 C 0.65094 0.07947 0.1519 0.0
C2023 C 0.65672 0.10025 0.17385 0.0
C2024 C 0.60466 0.10294 0.18583 0.0
C2025 C 0.59862 0.08438 0.1621 0.0
N2026 N 0.61521 0.0564 0.12085 0.0
N2027 N 0.63918 0.13519 0.209 0.0
C2028 C 0.62156 0.07296 0.14468 0.0
C2029 C 0.63362 0.11285 0.1902 0.0
N2030 N 0.67355 0.06526 0.13867 0.0
N2031 N 0.5828 0.11044 0.20461 0.0
H2032 H 0.66003 0.14329 0.21277 0.0
H2033 H 0.62294 0.14748 0.21897 0.0
H2034 H 0.56146 0.10315 0.2021 0.0
H2035 H 0.58623 0.12153 0.22403 0.0
H2036 H 0.67088 0.04765 0.12474 0.0
H2037 H 0.69532 0.06961 0.14336 0.0
H2038 H 0.63054 0.05044 0.10522 0.0
H2039 H 0.59413 0.04997 0.1156 0.0
C2040 C 0.15724 0.64132 0.11659 0.0
C2041 C 0.16671 0.66198 0.09573 0.0
C2042 C 0.15967 0.62515 0.05787 0.0
C2043 C 0.1577 0.60321 0.07965 0.0
N2044 N 0.1609 0.59113 0.13072 0.0
N2045 N 0.17631 0.67356 0.04548 0.0
C2046 C 0.15819 0.61148 0.10932 0.0
C2047 C 0.16799 0.6538 0.06602 0.0
N2048 N 0.14646 0.64972 0.14293 0.0
N2049 N 0.15157 0.61945 0.02989 0.0
H2050 H 0.17935 0.69554 0.05015 0.0
H2051 H 0.18115 0.66778 0.02409 0.0
H2052 H 0.14252 0.59977 0.02333 0.0
H2053 H 0.15032 0.63545 0.01395 0.0
H2054 H 0.13737 0.63498 0.1576 0.0
H2055 H 0.14338 0.67131 0.14885 0.0
H2056 H 0.16363 0.59675 0.15251 0.0
H2057 H 0.16408 0.56911 0.12645 0.0
C2058 C 0.62993 0.89568 0.34657 0.0
C2059 C 0.64929 0.88087 0.36547 0.0
C2060 C 0.60739 0.87506 0.39924 0.0
C2061 C 0.5881 0.88564 0.37753 0.0
N2062 N 0.58192 0.89427 0.3262 0.0
N2063 N 0.65258 0.85102 0.4097 0.0
C2064 C 0.59975 0.89128 0.3496 0.0
C2065 C 0.63702 0.86868 0.39167 0.0
N2066 N 0.63966 0.91613 0.32737 0.0
N2067 N 0.59859 0.87251 0.42751 0.0
H2068 H 0.67465 0.84684 0.40841 0.0
H2069 H 0.64256 0.83875 0.42597 0.0
H2070 H 0.5773 0.87515 0.43463 0.0
H2071 H 0.61322 0.8693 0.44447 0.0
H2072 H 0.62549 0.92802 0.31431 0.0
H2073 H 0.66065 0.92471 0.32815 0.0
H2074 H 0.59005 0.89742 0.30522 0.0
H2075 H 0.55958 0.8904 0.32758 0.0
C2076 C 0.35564 0.40674 0.63607 0.0
C2077 C 0.38339 0.41385 0.62453 0.0
C2078 C 0.39409 0.36186 0.61745 0.0
C2079 C 0.36588 0.35495 0.62817 0.0
N2080 N 0.32358 0.36986 0.65578 0.0
N2081 N 0.4311 0.39881 0.60859 0.0
C2082 C 0.34772 0.37712 0.63985 0.0
C2083 C 0.40346 0.3915 0.61704 0.0
N2084 N 0.33646 0.42847 0.64263 0.0
N2085 N 0.41134 0.34014 0.60664 0.0
H2086 H 0.43843 0.4202 0.6075 0.0
H2087 H 0.44759 0.38396 0.60429 0.0
H2088 H 0.40466 0.31852 0.60551 0.0
H2089 H 0.43183 0.34323 0.59757 0.0
H2090 H 0.31451 0.42496 0.64717 0.0
H2091 H 0.34238 0.45034 0.64224 0.0
H2092 H 0.31138 0.38486 0.66761 0.0
H2093 H 0.31722 0.34847 0.65969 0.0
C2094 C 0.89001 0.07159 0.85732 0.0
C2095 C 0.91365 0.08144 0.83988 0.0
C2096 C 0.88026 0.10976 0.80983 0.0
C2097 C 0.85645 0.09939 0.82681 0.0
N2098 N 0.83763 0.06658 0.86305 0.0
N2099 N 0.93116 0.10446 0.79633 0.0
C2100 C 0.86104 0.07921 0.84957 0.0
C2101 C 0.9087 0.09885 0.8151 0.0
N2102 N 0.89534 0.05538 0.88159 0.0
N2103 N 0.87593 0.13108 0.78961 0.0
H2104 H 0.95216 0.09659 0.79965 0.0
H2105 H 0.92853 0.11453 0.77628 0.0
H2106 H 0.85559 0.14001 0.78522 0.0
H2107 H 0.89279 0.14182 0.77892 0.0
H2108 H 0.87962 0.05038 0.89715 0.0
H2109 H 0.91605 0.04805 0.88711 0.0
H2110 H 0.83926 0.04952 0.87775 0.0
H2111 H 0.81614 0.07157 0.85778 0.0
C2112 C 0.39952 0.17313 0.41102 0.0
C2113 C 0.41831 0.14909 0.41487 0.0
C2114 C 0.42195 0.1425 0.362 0.0
C2115 C 0.40287 0.16636 0.35811 0.0
N2116 N 0.36824 0.20021 0.37854 0.0
N2117 N 0.44286 0.10722 0.395 0.0
C2118 C 0.39012 0.1805 0.38254 0.0
C2119 C 0.42811 0.13264 0.3906 0.0
N2120 N 0.39142 0.18946 0.43451 0.0
N2121 N 0.4351 0.13004 0.33839 0.0
H2122 H 0.44802 0.0995 0.41563 0.0
H2123 H 0.44785 0.09253 0.37852 0.0
H2124 H 0.43055 0.13625 0.31715 0.0
H2125 H 0.45188 0.11493 0.33979 0.0
H2126 H 0.38077 0.20935 0.43291 0.0
H2127 H 0.3969 0.18387 0.45573 0.0
H2128 H 0.35588 0.20889 0.39544 0.0
H2129 H 0.36055 0.20603 0.35808 0.0
C2130 C 0.10293 0.17868 0.60243 0.0
C2131 C 0.09315 0.14976 0.59851 0.0
C2132 C 0.09815 0.14053 0.65076 0.0
C2133 C 0.1094 0.16906 0.6544 0.0
N2134 N 0.12974 0.21235 0.63253 0.0
N2135 N 0.08439 0.10185 0.61769 0.0
C2136 C 0.1139 0.18731 0.62988 0.0
C2137 C 0.09195 0.13021 0.6223 0.0
N2138 N 0.10083 0.19824 0.58022 0.0
N2139 N 0.09184 0.12388 0.67456 0.0
H2140 H 0.07779 0.09405 0.59752 0.0
H2141 H 0.0864 0.08564 0.63331 0.0
H2142 H 0.09621 0.13044 0.69573 0.0
H2143 H 0.08035 0.1044 0.67365 0.0
H2144 H 0.1045 0.22043 0.5828 0.0
H2145 H 0.09302 0.19269 0.55972 0.0
H2146 H 0.13632 0.22483 0.61481 0.0
H2147 H 0.13904 0.21911 0.65202 0.0
C2148 C 0.09746 0.87003 0.88984 0.0
C2149 C 0.09123 0.84849 0.91113 0.0
C2150 C 0.09783 0.81127 0.8735 0.0
C2151 C 0.09717 0.8332 0.85161 0.0
N2152 N 0.0892 0.88383 0.84013 0.0
N2153 N 0.08462 0.79774 0.92267 0.0
C2154 C 0.09496 0.8627 0.86011 0.0
C2155 C 0.09077 0.81883 0.90271 0.0
N2156 N 0.10637 0.89731 0.89738 0.0
N2157 N 0.10747 0.78388 0.8672 0.0
H2158 H 0.08227 0.80204 0.94481 0.0
H2159 H 0.08061 0.7762 0.91688 0.0
H2160 H 0.11592 0.77792 0.84704 0.0
H2161 H 0.11069 0.76807 0.88305 0.0
H2162 H 0.11349 0.91241 0.88202 0.0
H2163 H 0.10942 0.90422 0.91863 0.0
H2164 H 0.08505 0.90533 0.84601 0.0
H2165 H 0.08497 0.87931 0.81837 0.0
C2166 C 0.42233 0.86954 0.1162 0.0
C2167 C 0.42947 0.84769 0.09542 0.0
C2168 C 0.42414 0.81108 0.13397 0.0
C2169 C 0.42279 0.83362 0.15522 0.0
N2170 N 0.42862 0.88465 0.16592 0.0
N2171 N 0.4383 0.79697 0.08515 0.0
C2172 C 0.42429 0.86293 0.14612 0.0
C2173 C 0.43112 0.81826 0.1046 0.0
N2174 N 0.41292 0.89644 0.10799 0.0
N2175 N 0.41662 0.78322 0.14106 0.0
H2176 H 0.44035 0.80074 0.0629 0.0
H2177 H 0.4434 0.77583 0.09141 0.0
H2178 H 0.40924 0.77709 0.16157 0.0
H2179 H 0.41449 0.76672 0.1257 0.0
H2180 H 0.40495 0.91158 0.12291 0.0
H2181 H 0.41035 0.90304 0.08661 0.0
H2182 H 0.43233 0.90617 0.15983 0.0
H2183 H 0.43208 0.88066 0.18795 0.0
C2184 C 0.3814 0.44896 0.1554 0.0
C2185 C 0.40496 0.43155 0.16518 0.0
C2186 C 0.37055 0.39709 0.18689 0.0
C2187 C 0.34722 0.41597 0.1795 0.0
N2188 N 0.33046 0.46175 0.16062 0.0
N2189 N 0.42266 0.39113 0.19315 0.0
C2190 C 0.35267 0.44251 0.16497 0.0
C2191 C 0.39974 0.40607 0.18161 0.0
N2192 N 0.38625 0.47075 0.13577 0.0
N2193 N 0.36479 0.37048 0.19876 0.0
H2194 H 0.44431 0.39713 0.18971 0.0
H2195 H 0.42031 0.37422 0.20798 0.0
H2196 H 0.3439 0.36374 0.20442 0.0
H2197 H 0.38041 0.35432 0.20129 0.0
H2198 H 0.36961 0.48196 0.12537 0.0
H2199 H 0.40684 0.47587 0.12764 0.0
H2200 H 0.33364 0.48284 0.15306 0.0
H2201 H 0.30901 0.45745 0.16678 0.0
C2202 C 0.85724 0.89416 0.10902 0.0
C2203 C 0.84263 0.90843 0.08565 0.0
C2204 C 0.81375 0.86419 0.07827 0.0
C2205 C 0.82522 0.85181 0.10408 0.0
N2206 N 0.85159 0.86111 0.14895 0.0
N2207 N 0.79971 0.90905 0.05525 0.0
C2208 C 0.84496 0.86857 0.121 0.0
C2209 C 0.81864 0.8941 0.07245 0.0
N2210 N 0.88354 0.9035 0.11931 0.0
N2211 N 0.79935 0.84743 0.05849 0.0
H2212 H 0.80068 0.93153 0.05266 0.0
H2213 H 0.78082 0.89965 0.04695 0.0
H2214 H 0.79752 0.82494 0.06033 0.0
H2215 H 0.79264 0.85546 0.03842 0.0
H2216 H 0.89572 0.89132 0.13398 0.0
H2217 H 0.89533 0.92098 0.11133 0.0
H2218 H 0.86332 0.87482 0.16267 0.0
H2219 H 0.84292 0.84333 0.15982 0.0
C2220 C 0.13511 0.60651 0.67404 0.0
C2221 C 0.1582 0.58657 0.67925 0.0
C2222 C 0.12211 0.54721 0.68506 0.0
C2223 C 0.09958 0.56719 0.67812 0.0
N2224 N 0.08441 0.61692 0.68285 0.0
N2225 N 0.1741 0.53717 0.68581 0.0
C2226 C 0.10604 0.59719 0.6777 0.0
C2227 C 0.15176 0.55669 0.68401 0.0
N2228 N 0.14036 0.63415 0.66456 0.0
N2229 N 0.11519 0.52015 0.69513 0.0
H2230 H 0.19592 0.54327 0.68412 0.0
H2231 H 0.17119 0.51475 0.68611 0.0
H2232 H 0.09401 0.51417 0.70058 0.0
H2233 H 0.13045 0.50516 0.70236 0.0
H2234 H 0.12382 0.6479 0.65748 0.0
H2235 H 0.16091 0.64283 0.66108 0.0
H2236 H 0.08831 0.63908 0.68551 0.0
H2237 H 0.06332 0.61054 0.68855 0.0
C2238 C 0.67416 0.90938 0.89541 0.0
C2239 C 0.67775 0.91672 0.92499 0.0
C2240 C 0.68878 0.86559 0.93574 0.0
C2241 C 0.68133 0.85795 0.90676 0.0
N2242 N 0.65943 0.87305 0.86113 0.0
N2243 N 0.70223 0.90384 0.9694 0.0
C2244 C 0.67182 0.87988 0.88718 0.0
C2245 C 0.68894 0.89542 0.94428 0.0
N2246 N 0.67533 0.93064 0.87473 0.0
N2247 N 0.69393 0.84414 0.95559 0.0
H2248 H 0.70693 0.9255 0.97397 0.0
H2249 H 0.7127 0.88955 0.98339 0.0
H2250 H 0.69263 0.8221 0.95043 0.0
H2251 H 0.69637 0.84796 0.97774 0.0
H2252 H 0.67549 0.92625 0.85251 0.0
H2253 H 0.68058 0.95213 0.87982 0.0
H2254 H 0.6495 0.88857 0.848 0.0
H2255 H 0.65616 0.85204 0.85365 0.0
C2256 C 0.83394 0.15745 0.43948 0.0
C2257 C 0.8379 0.16162 0.40923 0.0
C2258 C 0.84023 0.10901 0.40212 0.0
C2259 C 0.83749 0.10464 0.43248 0.0
N2260 N 0.8441 0.12616 0.4802 0.0
N2261 N 0.85838 0.14121 0.36505 0.0
C2262 C 0.83778 0.12924 0.45137 0.0
C2263 C 0.84543 0.13745 0.3915 0.0
N2264 N 0.82744 0.1805 0.45707 0.0
N2265 N 0.83667 0.08645 0.38317 0.0
H2266 H 0.86418 0.16145 0.35682 0.0
H2267 H 0.86624 0.12387 0.35272 0.0
H2268 H 0.83098 0.06554 0.38983 0.0
H2269 H 0.83606 0.0894 0.36072 0.0
H2270 H 0.82082 0.17803 0.47862 0.0
H2271 H 0.82759 0.20195 0.44977 0.0
H2272 H 0.84692 0.14377 0.49416 0.0
H2273 H 0.8505 0.10654 0.48945 0.0
C2274 C 0.6677 0.15103 0.57226 0.0
C2275 C 0.68007 0.15659 0.59976 0.0
C2276 C 0.68848 0.10428 0.60716 0.0
C2277 C 0.67561 0.09878 0.57979 0.0
N2278 N 0.64741 0.11595 0.53897 0.0
N2279 N 0.70674 0.13994 0.64154 0.0
C2280 C 0.66373 0.12189 0.56305 0.0
C2281 C 0.69148 0.13356 0.61689 0.0
N2282 N 0.6613 0.1737 0.55419 0.0
N2283 N 0.6974 0.08145 0.62391 0.0
H2284 H 0.7095 0.16107 0.6492 0.0
H2285 H 0.7182 0.12477 0.65367 0.0
H2286 H 0.69664 0.05993 0.61679 0.0
H2287 H 0.70409 0.08338 0.64538 0.0
H2288 H 0.65546 0.17119 0.53251 0.0
H2289 H 0.66452 0.19535 0.56001 0.0
H2290 H 0.63493 0.13143 0.52824 0.0
H2291 H 0.64415 0.09508 0.53091 0.0
C2292 C 0.11051 0.43923 0.80226 0.0
C2293 C 0.10191 0.43946 0.83196 0.0
C2294 C 0.15289 0.43487 0.84581 0.0
C2295 C 0.1612 0.4293 0.81673 0.0
N2296 N 0.14511 0.42039 0.76723 0.0
N2297 N 0.11568 0.42601 0.88116 0.0
C2298 C 0.13937 0.43018 0.79469 0.0
C2299 C 0.12319 0.43375 0.85352 0.0
N2300 N 0.09099 0.4465 0.78121 0.0
N2301 N 0.17328 0.44162 0.86626 0.0
H2302 H 0.09439 0.42339 0.8883 0.0
H2303 H 0.1311 0.41938 0.89636 0.0
H2304 H 0.1952 0.4447 0.86104 0.0
H2305 H 0.16765 0.44768 0.8874 0.0
H2306 H 0.09701 0.44976 0.7596 0.0
H2307 H 0.06915 0.45089 0.78569 0.0
H2308 H 0.12898 0.41783 0.75159 0.0
H2309 H 0.16507 0.41201 0.76068 0.0
C2310 C 0.36854 0.5729 0.33547 0.0
C2311 C 0.35637 0.59814 0.34855 0.0
C2312 C 0.39696 0.59803 0.38298 0.0
C2313 C 0.41193 0.57726 0.36574 0.0
N2314 N 0.41348 0.55064 0.32023 0.0
N2315 N 0.36527 0.63932 0.38102 0.0
C2316 C 0.39821 0.56626 0.3404 0.0
C2317 C 0.37221 0.6121 0.37133 0.0
N2318 N 0.35178 0.5545 0.31934 0.0
N2319 N 0.40543 0.60372 0.41082 0.0
H2320 H 0.34948 0.6525 0.37181 0.0
H2321 H 0.37814 0.65044 0.39597 0.0
H2322 H 0.42182 0.59212 0.42123 0.0
H2323 H 0.39352 0.61721 0.42466 0.0
H2324 H 0.35974 0.5349 0.31112 0.0
H2325 H 0.32927 0.55668 0.31769 0.0
H2326 H 0.40439 0.54418 0.30052 0.0
H2327 H 0.4359 0.54745 0.32135 0.0
C2328 C 0.94167 0.66342 0.88309 0.0
C2329 C 0.92545 0.67629 0.90619 0.0
C2330 C 0.89364 0.70052 0.87099 0.0
C2331 C 0.90861 0.68604 0.84807 0.0
N2332 N 0.94537 0.65261 0.8315 0.0
N2333 N 0.8855 0.70569 0.92303 0.0
C2334 C 0.93237 0.66736 0.85391 0.0
C2335 C 0.90136 0.6946 0.90037 0.0
N2336 N 0.96585 0.64716 0.88906 0.0
N2337 N 0.87189 0.71974 0.86458 0.0
H2338 H 0.89156 0.7031 0.9447 0.0
H2339 H 0.86574 0.71641 0.92076 0.0
H2340 H 0.8646 0.72352 0.8435 0.0
H2341 H 0.86188 0.7332 0.87978 0.0
H2342 H 0.98066 0.64017 0.87339 0.0
H2343 H 0.97221 0.64151 0.90999 0.0
H2344 H 0.96011 0.63571 0.83424 0.0
H2345 H 0.94035 0.6563 0.80973 0.0
C2346 C 0.57735 0.65555 0.1234 0.0
C2347 C 0.57904 0.67804 0.10225 0.0
C2348 C 0.59548 0.71152 0.1404 0.0
C2349 C 0.58969 0.68989 0.16187 0.0
N2350 N 0.56689 0.64414 0.17354 0.0
N2351 N 0.58625 0.72882 0.09148 0.0
C2352 C 0.57799 0.66283 0.15325 0.0
C2353 C 0.58662 0.70658 0.11111 0.0
N2354 N 0.57627 0.62704 0.11538 0.0
N2355 N 0.61139 0.73569 0.14717 0.0
H2356 H 0.58189 0.72569 0.06948 0.0
H2357 H 0.58846 0.75055 0.09749 0.0
H2358 H 0.61996 0.73963 0.16769 0.0
H2359 H 0.61876 0.7504 0.1316 0.0
H2360 H 0.57771 0.61004 0.13026 0.0
H2361 H 0.57727 0.62019 0.09395 0.0
H2362 H 0.55577 0.62518 0.16799 0.0
H2363 H 0.56576 0.64929 0.1956 0.0
C2364 C 0.61421 0.34673 0.36355 0.0
C2365 C 0.59884 0.32803 0.34424 0.0
C2366 C 0.57397 0.30595 0.38616 0.0
C2367 C 0.58892 0.32502 0.4051 0.0
N2368 N 0.6333 0.35201 0.41207 0.0
N2369 N 0.55671 0.29747 0.33741 0.0
C2370 C 0.61214 0.34194 0.39394 0.0
C2371 C 0.57674 0.30957 0.35565 0.0
N2372 N 0.62873 0.37063 0.35354 0.0
N2373 N 0.5585 0.28325 0.39747 0.0
H2374 H 0.55597 0.30246 0.31531 0.0
H2375 H 0.53861 0.28589 0.3447 0.0
H2376 H 0.5585 0.27865 0.41968 0.0
H2377 H 0.54914 0.26703 0.38477 0.0
H2378 H 0.6384 0.38575 0.36736 0.0
H2379 H 0.62694 0.37831 0.3324 0.0
H2380 H 0.65195 0.3626 0.40457 0.0
H2381 H 0.63452 0.34564 0.43376 0.0
C2382 C 0.89252 0.32101 0.63103 0.0
C2383 C 0.9113 0.3283 0.65435 0.0
C2384 C 0.94685 0.34829 0.61999 0.0
C2385 C 0.92925 0.33874 0.59642 0.0
N2386 N 0.8876 0.31198 0.57937 0.0
N2387 N 0.95834 0.34393 0.67116 0.0
C2388 C 0.90267 0.32398 0.60193 0.0
C2389 C 0.93915 0.34028 0.64884 0.0
N2390 N 0.86479 0.3117 0.63669 0.0
N2391 N 0.96976 0.3667 0.61516 0.0
H2392 H 0.9532 0.33887 0.69267 0.0
H2393 H 0.98009 0.34962 0.66802 0.0
H2394 H 0.97568 0.37425 0.59464 0.0
H2395 H 0.98111 0.37695 0.63182 0.0
H2396 H 0.84893 0.3094 0.62077 0.0
H2397 H 0.85691 0.3082 0.65767 0.0
H2398 H 0.86967 0.29838 0.58209 0.0
H2399 H 0.89463 0.31349 0.55788 0.0
loop_
_geom_bond_atom_site_label_1
_geom_bond_atom_site_label_2
_geom_bond_distance
_geom_bond_site_symmetry_2
_ccdc_geom_bond_type
C0 O2 1.247 . S
C0 O4 1.258 . S
C1 O8 1.247 . S
C1 O9 1.258 . S
O2 C0 1.247 . S
O2 Zn3 2.028 . S
Zn3 O2 2.028 . S
Zn3 O7 2.035 . S
Zn3 O9 2.035 . S
Zn3 O10 2.028 . S
O4 C0 1.258 . S
O4 Zn5 2.035 . S
Zn5 O4 2.035 . S
Zn5 O6 2.028 . S
Zn5 O8 2.028 . S
Zn5 O11 2.035 . S
O6 Zn5 2.028 . S
O6 C12 1.247 . S
O7 Zn3 2.035 . S
O7 C12 1.258 . S
O8 C1 1.247 . S
O8 Zn5 2.028 . S
O9 C1 1.258 . S
O9 Zn3 2.035 . S
O10 Zn3 2.028 . S
O10 C13 1.247 . S
O11 Zn5 2.035 . S
O11 C13 1.258 . S
C12 O6 1.247 . S
C12 O7 1.258 . S
C13 O10 1.247 . S
C13 O11 1.258 . S
C14 O16 1.247 1_455 S
C14 O18 1.258 . S
C15 O22 1.247 . S
C15 O23 1.258 . S
O16 C14 1.247 1_655 S
O16 Zn17 2.028 . S
Zn17 O16 2.028 . S
Zn17 O21 2.035 1_655 S
Zn17 O23 2.035 . S
Zn17 O24 2.028 . S
O18 C14 1.258 . S
O18 Zn19 2.035 1_455 S
Zn19 O18 2.035 1_655 S
Zn19 O20 2.028 1_655 S
Zn19 O22 2.028 . S
Zn19 O25 2.035 . S
O20 Zn19 2.028 1_455 S
O20 C26 1.247 . S
O21 Zn17 2.035 1_455 S
O21 C26 1.258 . S
O22 C15 1.247 . S
O22 Zn19 2.028 . S
O23 C15 1.258 . S
O23 Zn17 2.035 . S
O24 Zn17 2.028 . S
O24 C27 1.247 . S
O25 Zn19 2.035 . S
O25 C27 1.258 . S
C26 O20 1.247 . S
C26 O21 1.258 . S
C27 O24 1.247 . S
C27 O25 1.258 . S
C28 O30 1.247 . S
C28 O32 1.258 . S
C29 O36 1.247 . S
C29 O37 1.258 . S
O30 C28 1.247 . S
O30 Zn31 2.028 . S
Zn31 O30 2.028 . S
Zn31 O35 2.035 . S
Zn31 O37 2.035 . S
Zn31 O38 2.028 . S
O32 C28 1.258 . S
O32 Zn33 2.035 . S
Zn33 O32 2.035 . S
Zn33 O34 2.028 . S
Zn33 O36 2.028 . S
Zn33 O39 2.035 . S
O34 Zn33 2.028 . S
O34 C40 1.247 . S
O35 Zn31 2.035 . S
O35 C40 1.258 . S
O36 C29 1.247 . S
O36 Zn33 2.028 . S
O37 C29 1.258 . S
O37 Zn31 2.035 . S
O38 Zn31 2.028 . S
O38 C41 1.247 . S
O39 Zn33 2.035 . S
O39 C41 1.258 . S
C40 O34 1.247 . S
C40 O35 1.258 . S
C41 O38 1.247 . S
C41 O39 1.258 . S
C42 O44 1.247 . S
C42 O46 1.258 . S
C43 O50 1.247 . S
C43 O51 1.258 . S
O44 C42 1.247 . S
O44 Zn45 2.028 . S
Zn45 O44 2.028 . S
Zn45 O49 2.035 . S
Zn45 O51 2.035 . S
Zn45 O52 2.028 . S
O46 C42 1.258 . S
O46 Zn47 2.035 . S
Zn47 O46 2.035 . S
Zn47 O48 2.028 . S
Zn47 O50 2.028 . S
Zn47 O53 2.035 . S
O48 Zn47 2.028 . S
O48 C54 1.247 . S
O49 Zn45 2.035 . S
O49 C54 1.258 . S
O50 C43 1.247 . S
O50 Zn47 2.028 . S
O51 C43 1.258 . S
O51 Zn45 2.035 . S
O52 Zn45 2.028 . S
O52 C55 1.247 . S
O53 Zn47 2.035 . S
O53 C55 1.258 . S
C54 O48 1.247 . S
C54 O49 1.258 . S
C55 O52 1.247 . S
C55 O53 1.258 . S
C56 O58 1.247 . S
C56 O60 1.258 . S
C57 O64 1.247 . S
C57 O65 1.258 . S
O58 C56 1.247 . S
O58 Zn59 2.028 . S
Zn59 O58 2.028 . S
Zn59 O63 2.035 . S
Zn59 O65 2.035 . S
Zn59 O66 2.028 . S
O60 C56 1.258 . S
O60 Zn61 2.035 . S
Zn61 O60 2.035 . S
Zn61 O62 2.028 . S
Zn61 O64 2.028 . S
Zn61 O67 2.035 . S
O62 Zn61 2.028 . S
O62 C68 1.247 . S
O63 Zn59 2.035 . S
O63 C68 1.258 . S
O64 C57 1.247 . S
O64 Zn61 2.028 . S
O65 C57 1.258 . S
O65 Zn59 2.035 . S
O66 Zn59 2.028 . S
O66 C69 1.247 . S
O67 Zn61 2.035 . S
O67 C69 1.258 . S
C68 O62 1.247 . S
C68 O63 1.258 . S
C69 O66 1.247 . S
C69 O67 1.258 . S
C70 O72 1.247 . S
C70 O74 1.258 . S
C71 O78 1.247 . S
C71 O79 1.258 . S
O72 C70 1.247 . S
O72 Zn73 2.028 . S
Zn73 O72 2.028 . S
Zn73 O77 2.035 . S
Zn73 O79 2.035 . S
Zn73 O80 2.028 . S
O74 C70 1.258 . S
O74 Zn75 2.035 . S
Zn75 O74 2.035 . S
Zn75 O76 2.028 . S
Zn75 O78 2.028 . S
Zn75 O81 2.035 . S
O76 Zn75 2.028 . S
O76 C82 1.247 . S
O77 Zn73 2.035 . S
O77 C82 1.258 . S
O78 C71 1.247 . S
O78 Zn75 2.028 . S
O79 C71 1.258 . S
O79 Zn73 2.035 . S
O80 Zn73 2.028 . S
O80 C83 1.247 . S
O81 Zn75 2.035 . S
O81 C83 1.258 . S
C82 O76 1.247 . S
C82 O77 1.258 . S
C83 O80 1.247 . S
C83 O81 1.258 . S
C84 O86 1.247 . S
C84 O88 1.258 . S
C85 O92 1.247 . S
C85 O93 1.258 . S
O86 C84 1.247 . S
O86 Zn87 2.028 . S
Zn87 O86 2.028 . S
Zn87 O91 2.035 . S
Zn87 O93 2.035 . S
Zn87 O94 2.028 . S
O88 C84 1.258 . S
O88 Zn89 2.035 . S
Zn89 O88 2.035 . S
Zn89 O90 2.028 . S
Zn89 O92 2.028 . S
Zn89 O95 2.035 . S
O90 Zn89 2.028 . S
O90 C96 1.247 . S
O91 Zn87 2.035 . S
O91 C96 1.258 . S
O92 C85 1.247 . S
O92 Zn89 2.028 . S
O93 C85 1.258 . S
O93 Zn87 2.035 . S
O94 Zn87 2.028 . S
O94 C97 1.247 . S
O95 Zn89 2.035 . S
O95 C97 1.258 . S
C96 O90 1.247 . S
C96 O91 1.258 . S
C97 O94 1.247 . S
C97 O95 1.258 . S
C98 O100 1.247 1_455 S
C98 O102 1.258 . S
C99 O106 1.247 . S
C99 O107 1.258 . S
O100 C98 1.247 1_655 S
O100 Zn101 2.028 . S
Zn101 O100 2.028 . S
Zn101 O105 2.035 1_655 S
Zn101 O107 2.035 . S
Zn101 O108 2.028 . S
O102 C98 1.258 . S
O102 Zn103 2.035 1_455 S
Zn103 O102 2.035 1_655 S
Zn103 O104 2.028 1_655 S
Zn103 O106 2.028 . S
Zn103 O109 2.035 . S
O104 Zn103 2.028 1_455 S
O104 C110 1.247 . S
O105 Zn101 2.035 1_455 S
O105 C110 1.258 . S
O106 C99 1.247 . S
O106 Zn103 2.028 . S
O107 C99 1.258 . S
O107 Zn101 2.035 . S
O108 Zn101 2.028 . S
O108 C111 1.247 . S
O109 Zn103 2.035 . S
O109 C111 1.258 . S
C110 O104 1.247 . S
C110 O105 1.258 . S
C111 O108 1.247 . S
C111 O109 1.258 . S
C112 O114 1.247 . S
C112 O116 1.258 . S
C113 O120 1.247 . S
C113 O121 1.258 . S
O114 C112 1.247 . S
O114 Zn115 2.028 . S
Zn115 O114 2.028 . S
Zn115 O119 2.035 . S
Zn115 O121 2.035 . S
Zn115 O122 2.028 . S
O116 C112 1.258 . S
O116 Zn117 2.035 . S
Zn117 O116 2.035 . S
Zn117 O118 2.028 . S
Zn117 O120 2.028 . S
Zn117 O123 2.035 . S
O118 Zn117 2.028 . S
O118 C124 1.247 . S
O119 Zn115 2.035 . S
O119 C124 1.258 . S
O120 C113 1.247 . S
O120 Zn117 2.028 . S
O121 C113 1.258 . S
O121 Zn115 2.035 . S
O122 Zn115 2.028 . S
O122 C125 1.247 . S
O123 Zn117 2.035 . S
O123 C125 1.258 . S
C124 O118 1.247 . S
C124 O119 1.258 . S
C125 O122 1.247 . S
C125 O123 1.258 . S
C126 O128 1.247 . S
C126 O130 1.258 . S
C127 O134 1.247 . S
C127 O135 1.258 . S
O128 C126 1.247 . S
O128 Zn129 2.028 . S
Zn129 O128 2.028 . S
Zn129 O133 2.035 . S
Zn129 O135 2.035 . S
Zn129 O136 2.028 . S
O130 C126 1.258 . S
O130 Zn131 2.035 . S
Zn131 O130 2.035 . S
Zn131 O132 2.028 . S
Zn131 O134 2.028 . S
Zn131 O137 2.035 . S
O132 Zn131 2.028 . S
O132 C138 1.247 . S
O133 Zn129 2.035 . S
O133 C138 1.258 . S
O134 C127 1.247 . S
O134 Zn131 2.028 . S
O135 C127 1.258 . S
O135 Zn129 2.035 . S
O136 Zn129 2.028 . S
O136 C139 1.247 . S
O137 Zn131 2.035 . S
O137 C139 1.258 . S
C138 O132 1.247 . S
C138 O133 1.258 . S
C139 O136 1.247 . S
C139 O137 1.258 . S
C140 O142 1.247 . S
C140 O144 1.258 . S
C141 O148 1.247 . S
C141 O149 1.258 . S
O142 C140 1.247 . S
O142 Zn143 2.028 . S
Zn143 O142 2.028 . S
Zn143 O147 2.035 . S
Zn143 O149 2.035 . S
Zn143 O150 2.028 . S
O144 C140 1.258 . S
O144 Zn145 2.035 . S
Zn145 O144 2.035 . S
Zn145 O146 2.028 . S
Zn145 O148 2.028 . S
Zn145 O151 2.035 . S
O146 Zn145 2.028 . S
O146 C152 1.247 . S
O147 Zn143 2.035 . S
O147 C152 1.258 . S
O148 C141 1.247 . S
O148 Zn145 2.028 . S
O149 C141 1.258 . S
O149 Zn143 2.035 . S
O150 Zn143 2.028 . S
O150 C153 1.247 . S
O151 Zn145 2.035 . S
O151 C153 1.258 . S
C152 O146 1.247 . S
C152 O147 1.258 . S
C153 O150 1.247 . S
C153 O151 1.258 . S
C154 O156 1.247 . S
C154 O158 1.258 . S
C155 O162 1.247 . S
C155 O163 1.258 1_556 S
O156 C154 1.247 . S
O156 Zn157 2.028 . S
Zn157 O156 2.028 . S
Zn157 O161 2.035 . S
Zn157 O163 2.035 . S
Zn157 O164 2.028 1_554 S
O158 C154 1.258 . S
O158 Zn159 2.035 . S
Zn159 O158 2.035 . S
Zn159 O160 2.028 . S
Zn159 O162 2.028 1_554 S
Zn159 O165 2.035 1_554 S
O160 Zn159 2.028 . S
O160 C166 1.247 . S
O161 Zn157 2.035 . S
O161 C166 1.258 . S
O162 C155 1.247 . S
O162 Zn159 2.028 1_556 S
O163 C155 1.258 1_554 S
O163 Zn157 2.035 . S
O164 Zn157 2.028 1_556 S
O164 C167 1.247 . S
O165 Zn159 2.035 1_556 S
O165 C167 1.258 . S
C166 O160 1.247 . S
C166 O161 1.258 . S
C167 O164 1.247 . S
C167 O165 1.258 . S
C168 O170 1.247 . S
C168 O172 1.258 . S
C169 O176 1.247 . S
C169 O177 1.258 . S
O170 C168 1.247 . S
O170 Zn171 2.028 . S
Zn171 O170 2.028 . S
Zn171 O175 2.035 . S
Zn171 O177 2.035 . S
Zn171 O178 2.028 . S
O172 C168 1.258 . S
O172 Zn173 2.035 . S
Zn173 O172 2.035 . S
Zn173 O174 2.028 . S
Zn173 O176 2.028 . S
Zn173 O179 2.035 . S
O174 Zn173 2.028 . S
O174 C180 1.247 . S
O175 Zn171 2.035 . S
O175 C180 1.258 . S
O176 C169 1.247 . S
O176 Zn173 2.028 . S
O177 C169 1.258 . S
O177 Zn171 2.035 . S
O178 Zn171 2.028 . S
O178 C181 1.247 . S
O179 Zn173 2.035 . S
O179 C181 1.258 . S
C180 O174 1.247 . S
C180 O175 1.258 . S
C181 O178 1.247 . S
C181 O179 1.258 . S
C182 O184 1.247 . S
C182 O186 1.258 . S
C183 O190 1.247 . S
C183 O191 1.258 . S
O184 C182 1.247 . S
O184 Zn185 2.028 . S
Zn185 O184 2.028 . S
Zn185 O189 2.035 . S
Zn185 O191 2.035 . S
Zn185 O192 2.028 . S
O186 C182 1.258 . S
O186 Zn187 2.035 . S
Zn187 O186 2.035 . S
Zn187 O188 2.028 . S
Zn187 O190 2.028 . S
Zn187 O193 2.035 . S
O188 Zn187 2.028 . S
O188 C194 1.247 . S
O189 Zn185 2.035 . S
O189 C194 1.258 . S
O190 C183 1.247 . S
O190 Zn187 2.028 . S
O191 C183 1.258 . S
O191 Zn185 2.035 . S
O192 Zn185 2.028 . S
O192 C195 1.247 . S
O193 Zn187 2.035 . S
O193 C195 1.258 . S
C194 O188 1.247 . S
C194 O189 1.258 . S
C195 O192 1.247 . S
C195 O193 1.258 . S
C196 O198 1.247 . S
C196 O200 1.258 . S
C197 O204 1.247 . S
C197 O205 1.258 . S
O198 C196 1.247 . S
O198 Zn199 2.028 . S
Zn199 O198 2.028 . S
Zn199 O203 2.035 . S
Zn199 O205 2.035 . S
Zn199 O206 2.028 . S
O200 C196 1.258 . S
O200 Zn201 2.035 . S
Zn201 O200 2.035 . S
Zn201 O202 2.028 . S
Zn201 O204 2.028 . S
Zn201 O207 2.035 . S
O202 Zn201 2.028 . S
O202 C208 1.247 . S
O203 Zn199 2.035 . S
O203 C208 1.258 . S
O204 C197 1.247 . S
O204 Zn201 2.028 . S
O205 C197 1.258 . S
O205 Zn199 2.035 . S
O206 Zn199 2.028 . S
O206 C209 1.247 . S
O207 Zn201 2.035 . S
O207 C209 1.258 . S
C208 O202 1.247 . S
C208 O203 1.258 . S
C209 O206 1.247 . S
C209 O207 1.258 . S
C210 O212 1.247 . S
C210 O214 1.258 . S
C211 O218 1.247 . S
C211 O219 1.258 . S
O212 C210 1.247 . S
O212 Zn213 2.028 . S
Zn213 O212 2.028 . S
Zn213 O217 2.035 . S
Zn213 O219 2.035 1_556 S
Zn213 O220 2.028 1_556 S
O214 C210 1.258 . S
O214 Zn215 2.035 . S
Zn215 O214 2.035 . S
Zn215 O216 2.028 . S
Zn215 O218 2.028 1_556 S
Zn215 O221 2.035 . S
O216 Zn215 2.028 . S
O216 C222 1.247 . S
O217 Zn213 2.035 . S
O217 C222 1.258 . S
O218 C211 1.247 . S
O218 Zn215 2.028 1_554 S
O219 C211 1.258 . S
O219 Zn213 2.035 1_554 S
O220 Zn213 2.028 1_554 S
O220 C223 1.247 . S
O221 Zn215 2.035 . S
O221 C223 1.258 1_556 S
C222 O216 1.247 . S
C222 O217 1.258 . S
C223 O220 1.247 . S
C223 O221 1.258 1_554 S
C224 O226 1.247 . S
C224 O228 1.258 . S
C225 O232 1.247 . S
C225 O233 1.258 . S
O226 C224 1.247 . S
O226 Zn227 2.028 . S
Zn227 O226 2.028 . S
Zn227 O231 2.035 . S
Zn227 O233 2.035 . S
Zn227 O234 2.028 . S
O228 C224 1.258 . S
O228 Zn229 2.035 . S
Zn229 O228 2.035 . S
Zn229 O230 2.028 . S
Zn229 O232 2.028 . S
Zn229 O235 2.035 . S
O230 Zn229 2.028 . S
O230 C236 1.247 . S
O231 Zn227 2.035 . S
O231 C236 1.258 . S
O232 C225 1.247 . S
O232 Zn229 2.028 . S
O233 C225 1.258 . S
O233 Zn227 2.035 . S
O234 Zn227 2.028 . S
O234 C237 1.247 . S
O235 Zn229 2.035 . S
O235 C237 1.258 . S
C236 O230 1.247 . S
C236 O231 1.258 . S
C237 O234 1.247 . S
C237 O235 1.258 . S
C238 O240 1.247 . S
C238 O242 1.258 . S
C239 O246 1.247 . S
C239 O247 1.258 . S
O240 C238 1.247 . S
O240 Zn241 2.028 . S
Zn241 O240 2.028 . S
Zn241 O245 2.035 . S
Zn241 O247 2.035 . S
Zn241 O248 2.028 . S
O242 C238 1.258 . S
O242 Zn243 2.035 . S
Zn243 O242 2.035 . S
Zn243 O244 2.028 . S
Zn243 O246 2.028 . S
Zn243 O249 2.035 . S
O244 Zn243 2.028 . S
O244 C250 1.247 . S
O245 Zn241 2.035 . S
O245 C250 1.258 . S
O246 C239 1.247 . S
O246 Zn243 2.028 . S
O247 C239 1.258 . S
O247 Zn241 2.035 . S
O248 Zn241 2.028 . S
O248 C251 1.247 . S
O249 Zn243 2.035 . S
O249 C251 1.258 . S
C250 O244 1.247 . S
C250 O245 1.258 . S
C251 O248 1.247 . S
C251 O249 1.258 . S
C252 O254 1.247 . S
C252 O256 1.258 . S
C253 O260 1.247 . S
C253 O261 1.258 . S
O254 C252 1.247 . S
O254 Zn255 2.028 . S
Zn255 O254 2.028 . S
Zn255 O259 2.035 . S
Zn255 O261 2.035 . S
Zn255 O262 2.028 . S
O256 C252 1.258 . S
O256 Zn257 2.035 . S
Zn257 O256 2.035 . S
Zn257 O258 2.028 . S
Zn257 O260 2.028 . S
Zn257 O263 2.035 . S
O258 Zn257 2.028 . S
O258 C264 1.247 . S
O259 Zn255 2.035 . S
O259 C264 1.258 . S
O260 C253 1.247 . S
O260 Zn257 2.028 . S
O261 C253 1.258 . S
O261 Zn255 2.035 . S
O262 Zn255 2.028 . S
O262 C265 1.247 . S
O263 Zn257 2.035 . S
O263 C265 1.258 . S
C264 O258 1.247 . S
C264 O259 1.258 . S
C265 O262 1.247 . S
C265 O263 1.258 . S
C266 O268 1.247 . S
C266 O270 1.258 . S
C267 O274 1.247 . S
C267 O275 1.258 . S
O268 C266 1.247 . S
O268 Zn269 2.028 . S
Zn269 O268 2.028 . S
Zn269 O273 2.035 . S
Zn269 O275 2.035 . S
Zn269 O276 2.028 . S
O270 C266 1.258 . S
O270 Zn271 2.035 . S
Zn271 O270 2.035 . S
Zn271 O272 2.028 . S
Zn271 O274 2.028 . S
Zn271 O277 2.035 . S
O272 Zn271 2.028 . S
O272 C278 1.247 . S
O273 Zn269 2.035 . S
O273 C278 1.258 . S
O274 C267 1.247 . S
O274 Zn271 2.028 . S
O275 C267 1.258 . S
O275 Zn269 2.035 . S
O276 Zn269 2.028 . S
O276 C279 1.247 . S
O277 Zn271 2.035 . S
O277 C279 1.258 . S
C278 O272 1.247 . S
C278 O273 1.258 . S
C279 O276 1.247 . S
C279 O277 1.258 . S
C280 O282 1.247 . S
C280 O284 1.258 . S
C281 O288 1.247 . S
C281 O289 1.258 . S
O282 C280 1.247 . S
O282 Zn283 2.028 1_545 S
Zn283 O282 2.028 1_565 S
Zn283 O287 2.035 1_565 S
Zn283 O289 2.035 . S
Zn283 O290 2.028 . S
O284 C280 1.258 . S
O284 Zn285 2.035 1_545 S
Zn285 O284 2.035 1_565 S
Zn285 O286 2.028 . S
Zn285 O288 2.028 . S
Zn285 O291 2.035 . S
O286 Zn285 2.028 . S
O286 C292 1.247 1_565 S
O287 Zn283 2.035 1_545 S
O287 C292 1.258 . S
O288 C281 1.247 . S
O288 Zn285 2.028 . S
O289 C281 1.258 . S
O289 Zn283 2.035 . S
O290 Zn283 2.028 . S
O290 C293 1.247 . S
O291 Zn285 2.035 . S
O291 C293 1.258 . S
C292 O286 1.247 1_545 S
C292 O287 1.258 . S
C293 O290 1.247 . S
C293 O291 1.258 . S
C294 O296 1.247 . S
C294 O298 1.258 . S
C295 O302 1.247 . S
C295 O303 1.258 . S
O296 C294 1.247 . S
O296 Zn297 2.028 . S
Zn297 O296 2.028 . S
Zn297 O301 2.035 . S
Zn297 O303 2.035 . S
Zn297 O304 2.028 . S
O298 C294 1.258 . S
O298 Zn299 2.035 . S
Zn299 O298 2.035 . S
Zn299 O300 2.028 . S
Zn299 O302 2.028 . S
Zn299 O305 2.035 . S
O300 Zn299 2.028 . S
O300 C306 1.247 . S
O301 Zn297 2.035 . S
O301 C306 1.258 . S
O302 C295 1.247 . S
O302 Zn299 2.028 . S
O303 C295 1.258 . S
O303 Zn297 2.035 . S
O304 Zn297 2.028 . S
O304 C307 1.247 . S
O305 Zn299 2.035 . S
O305 C307 1.258 . S
C306 O300 1.247 . S
C306 O301 1.258 . S
C307 O304 1.247 . S
C307 O305 1.258 . S
C308 O310 1.247 . S
C308 O312 1.258 . S
C309 O316 1.247 . S
C309 O317 1.258 . S
O310 C308 1.247 . S
O310 Zn311 2.028 . S
Zn311 O310 2.028 . S
Zn311 O315 2.035 . S
Zn311 O317 2.035 . S
Zn311 O318 2.028 . S
O312 C308 1.258 . S
O312 Zn313 2.035 . S
Zn313 O312 2.035 . S
Zn313 O314 2.028 . S
Zn313 O316 2.028 . S
Zn313 O319 2.035 . S
O314 Zn313 2.028 . S
O314 C320 1.247 . S
O315 Zn311 2.035 . S
O315 C320 1.258 . S
O316 C309 1.247 . S
O316 Zn313 2.028 . S
O317 C309 1.258 . S
O317 Zn311 2.035 . S
O318 Zn311 2.028 . S
O318 C321 1.247 . S
O319 Zn313 2.035 . S
O319 C321 1.258 . S
C320 O314 1.247 . S
C320 O315 1.258 . S
C321 O318 1.247 . S
C321 O319 1.258 . S
C322 O324 1.247 . S
C322 O326 1.258 . S
C323 O330 1.247 . S
C323 O331 1.258 . S
O324 C322 1.247 . S
O324 Zn325 2.028 . S
Zn325 O324 2.028 . S
Zn325 O329 2.035 . S
Zn325 O331 2.035 . S
Zn325 O332 2.028 . S
O326 C322 1.258 . S
O326 Zn327 2.035 . S
Zn327 O326 2.035 . S
Zn327 O328 2.028 . S
Zn327 O330 2.028 . S
Zn327 O333 2.035 . S
O328 Zn327 2.028 . S
O328 C334 1.247 . S
O329 Zn325 2.035 . S
O329 C334 1.258 . S
O330 C323 1.247 . S
O330 Zn327 2.028 . S
O331 C323 1.258 . S
O331 Zn325 2.035 . S
O332 Zn325 2.028 . S
O332 C335 1.247 . S
O333 Zn327 2.035 . S
O333 C335 1.258 . S
C334 O328 1.247 . S
C334 O329 1.258 . S
C335 O332 1.247 . S
C335 O333 1.258 . S
C336 O338 1.247 . S
C336 O340 1.258 . S
C337 O344 1.247 . S
C337 O345 1.258 . S
O338 C336 1.247 . S
O338 Zn339 2.028 . S
Zn339 O338 2.028 . S
Zn339 O343 2.035 . S
Zn339 O345 2.035 . S
Zn339 O346 2.028 . S
O340 C336 1.258 . S
O340 Zn341 2.035 . S
Zn341 O340 2.035 . S
Zn341 O342 2.028 . S
Zn341 O344 2.028 . S
Zn341 O347 2.035 . S
O342 Zn341 2.028 . S
O342 C348 1.247 . S
O343 Zn339 2.035 . S
O343 C348 1.258 . S
O344 C337 1.247 . S
O344 Zn341 2.028 . S
O345 C337 1.258 . S
O345 Zn339 2.035 . S
O346 Zn339 2.028 . S
O346 C349 1.247 . S
O347 Zn341 2.035 . S
O347 C349 1.258 . S
C348 O342 1.247 . S
C348 O343 1.258 . S
C349 O346 1.247 . S
C349 O347 1.258 . S
C350 O352 1.247 . S
C350 O354 1.258 . S
C351 O358 1.247 . S
C351 O359 1.258 . S
O352 C350 1.247 . S
O352 Zn353 2.028 . S
Zn353 O352 2.028 . S
Zn353 O357 2.035 . S
Zn353 O359 2.035 . S
Zn353 O360 2.028 . S
O354 C350 1.258 . S
O354 Zn355 2.035 . S
Zn355 O354 2.035 . S
Zn355 O356 2.028 . S
Zn355 O358 2.028 . S
Zn355 O361 2.035 . S
O356 Zn355 2.028 . S
O356 C362 1.247 . S
O357 Zn353 2.035 . S
O357 C362 1.258 . S
O358 C351 1.247 . S
O358 Zn355 2.028 . S
O359 C351 1.258 . S
O359 Zn353 2.035 . S
O360 Zn353 2.028 . S
O360 C363 1.247 . S
O361 Zn355 2.035 . S
O361 C363 1.258 . S
C362 O356 1.247 . S
C362 O357 1.258 . S
C363 O360 1.247 . S
C363 O361 1.258 . S
C364 O366 1.247 . S
C364 O368 1.258 . S
C365 O372 1.247 . S
C365 O373 1.258 . S
O366 C364 1.247 . S
O366 Zn367 2.028 . S
Zn367 O366 2.028 . S
Zn367 O371 2.035 . S
Zn367 O373 2.035 . S
Zn367 O374 2.028 . S
O368 C364 1.258 . S
O368 Zn369 2.035 . S
Zn369 O368 2.035 . S
Zn369 O370 2.028 . S
Zn369 O372 2.028 . S
Zn369 O375 2.035 . S
O370 Zn369 2.028 . S
O370 C376 1.247 . S
O371 Zn367 2.035 . S
O371 C376 1.258 . S
O372 C365 1.247 . S
O372 Zn369 2.028 . S
O373 C365 1.258 . S
O373 Zn367 2.035 . S
O374 Zn367 2.028 . S
O374 C377 1.247 . S
O375 Zn369 2.035 . S
O375 C377 1.258 . S
C376 O370 1.247 . S
C376 O371 1.258 . S
C377 O374 1.247 . S
C377 O375 1.258 . S
C378 O380 1.247 1_655 S
C378 O382 1.258 . S
C379 O386 1.247 . S
C379 O387 1.258 . S
O380 C378 1.247 1_455 S
O380 Zn381 2.028 . S
Zn381 O380 2.028 . S
Zn381 O385 2.035 1_455 S
Zn381 O387 2.035 . S
Zn381 O388 2.028 . S
O382 C378 1.258 . S
O382 Zn383 2.035 1_655 S
Zn383 O382 2.035 1_455 S
Zn383 O384 2.028 1_455 S
Zn383 O386 2.028 . S
Zn383 O389 2.035 . S
O384 Zn383 2.028 1_655 S
O384 C390 1.247 . S
O385 Zn381 2.035 1_655 S
O385 C390 1.258 . S
O386 C379 1.247 . S
O386 Zn383 2.028 . S
O387 C379 1.258 . S
O387 Zn381 2.035 . S
O388 Zn381 2.028 . S
O388 C391 1.247 . S
O389 Zn383 2.035 . S
O389 C391 1.258 . S
C390 O384 1.247 . S
C390 O385 1.258 . S
C391 O388 1.247 . S
C391 O389 1.258 . S
C392 O394 1.247 . S
C392 O396 1.258 . S
C393 O400 1.247 . S
C393 O401 1.258 . S
O394 C392 1.247 . S
O394 Zn395 2.028 . S
Zn395 O394 2.028 . S
Zn395 O399 2.035 . S
Zn395 O401 2.035 . S
Zn395 O402 2.028 . S
O396 C392 1.258 . S
O396 Zn397 2.035 . S
Zn397 O396 2.035 . S
Zn397 O398 2.028 . S
Zn397 O400 2.028 . S
Zn397 O403 2.035 . S
O398 Zn397 2.028 . S
O398 C404 1.247 . S
O399 Zn395 2.035 . S
O399 C404 1.258 . S
O400 C393 1.247 . S
O400 Zn397 2.028 . S
O401 C393 1.258 . S
O401 Zn395 2.035 . S
O402 Zn395 2.028 . S
O402 C405 1.247 . S
O403 Zn397 2.035 . S
O403 C405 1.258 . S
C404 O398 1.247 . S
C404 O399 1.258 . S
C405 O402 1.247 . S
C405 O403 1.258 . S
C406 O408 1.247 . S
C406 O410 1.258 . S
C407 O414 1.247 . S
C407 O415 1.258 . S
O408 C406 1.247 . S
O408 Zn409 2.028 1_655 S
Zn409 O408 2.028 1_455 S
Zn409 O413 2.035 1_455 S
Zn409 O415 2.035 . S
Zn409 O416 2.028 . S
O410 C406 1.258 . S
O410 Zn411 2.035 1_655 S
Zn411 O410 2.035 1_455 S
Zn411 O412 2.028 . S
Zn411 O414 2.028 . S
Zn411 O417 2.035 . S
O412 Zn411 2.028 . S
O412 C418 1.247 1_455 S
O413 Zn409 2.035 1_655 S
O413 C418 1.258 . S
O414 C407 1.247 . S
O414 Zn411 2.028 . S
O415 C407 1.258 . S
O415 Zn409 2.035 . S
O416 Zn409 2.028 . S
O416 C419 1.247 . S
O417 Zn411 2.035 . S
O417 C419 1.258 . S
C418 O412 1.247 1_655 S
C418 O413 1.258 . S
C419 O416 1.247 . S
C419 O417 1.258 . S
C420 O422 1.247 . S
C420 O424 1.258 . S
C421 O428 1.247 . S
C421 O429 1.258 . S
O422 C420 1.247 . S
O422 Zn423 2.028 . S
Zn423 O422 2.028 . S
Zn423 O427 2.035 . S
Zn423 O429 2.035 . S
Zn423 O430 2.028 . S
O424 C420 1.258 . S
O424 Zn425 2.035 . S
Zn425 O424 2.035 . S
Zn425 O426 2.028 . S
Zn425 O428 2.028 . S
Zn425 O431 2.035 . S
O426 Zn425 2.028 . S
O426 C432 1.247 . S
O427 Zn423 2.035 . S
O427 C432 1.258 . S
O428 C421 1.247 . S
O428 Zn425 2.028 . S
O429 C421 1.258 . S
O429 Zn423 2.035 . S
O430 Zn423 2.028 . S
O430 C433 1.247 . S
O431 Zn425 2.035 . S
O431 C433 1.258 . S
C432 O426 1.247 . S
C432 O427 1.258 . S
C433 O430 1.247 . S
C433 O431 1.258 . S
C434 O436 1.247 . S
C434 O438 1.258 . S
C435 O442 1.247 . S
C435 O443 1.258 . S
O436 C434 1.247 . S
O436 Zn437 2.028 . S
Zn437 O436 2.028 . S
Zn437 O441 2.035 . S
Zn437 O443 2.035 . S
Zn437 O444 2.028 . S
O438 C434 1.258 . S
O438 Zn439 2.035 . S
Zn439 O438 2.035 . S
Zn439 O440 2.028 . S
Zn439 O442 2.028 . S
Zn439 O445 2.035 . S
O440 Zn439 2.028 . S
O440 C446 1.247 . S
O441 Zn437 2.035 . S
O441 C446 1.258 . S
O442 C435 1.247 . S
O442 Zn439 2.028 . S
O443 C435 1.258 . S
O443 Zn437 2.035 . S
O444 Zn437 2.028 . S
O444 C447 1.247 . S
O445 Zn439 2.035 . S
O445 C447 1.258 . S
C446 O440 1.247 . S
C446 O441 1.258 . S
C447 O444 1.247 . S
C447 O445 1.258 . S
C448 O450 1.247 . S
C448 O452 1.258 . S
C449 O456 1.247 . S
C449 O457 1.258 . S
O450 C448 1.247 . S
O450 Zn451 2.028 . S
Zn451 O450 2.028 . S
Zn451 O455 2.035 . S
Zn451 O457 2.035 . S
Zn451 O458 2.028 . S
O452 C448 1.258 . S
O452 Zn453 2.035 . S
Zn453 O452 2.035 . S
Zn453 O454 2.028 . S
Zn453 O456 2.028 . S
Zn453 O459 2.035 . S
O454 Zn453 2.028 . S
O454 C460 1.247 . S
O455 Zn451 2.035 . S
O455 C460 1.258 . S
O456 C449 1.247 . S
O456 Zn453 2.028 . S
O457 C449 1.258 . S
O457 Zn451 2.035 . S
O458 Zn451 2.028 . S
O458 C461 1.247 . S
O459 Zn453 2.035 . S
O459 C461 1.258 . S
C460 O454 1.247 . S
C460 O455 1.258 . S
C461 O458 1.247 . S
C461 O459 1.258 . S
C462 O464 1.247 . S
C462 O466 1.258 . S
C463 O470 1.247 . S
C463 O471 1.258 . S
O464 C462 1.247 . S
O464 Zn465 2.028 1_556 S
Zn465 O464 2.028 1_554 S
Zn465 O469 2.035 1_554 S
Zn465 O471 2.035 . S
Zn465 O472 2.028 . S
O466 C462 1.258 . S
O466 Zn467 2.035 1_556 S
Zn467 O466 2.035 1_554 S
Zn467 O468 2.028 . S
Zn467 O470 2.028 . S
Zn467 O473 2.035 . S
O468 Zn467 2.028 . S
O468 C474 1.247 1_554 S
O469 Zn465 2.035 1_556 S
O469 C474 1.258 . S
O470 C463 1.247 . S
O470 Zn467 2.028 . S
O471 C463 1.258 . S
O471 Zn465 2.035 . S
O472 Zn465 2.028 . S
O472 C475 1.247 . S
O473 Zn467 2.035 . S
O473 C475 1.258 . S
C474 O468 1.247 1_556 S
C474 O469 1.258 . S
C475 O472 1.247 . S
C475 O473 1.258 . S
C476 O478 1.247 . S
C476 O480 1.258 . S
C477 O484 1.247 . S
C477 O485 1.258 . S
O478 C476 1.247 . S
O478 Zn479 2.028 . S
Zn479 O478 2.028 . S
Zn479 O483 2.035 . S
Zn479 O485 2.035 . S
Zn479 O486 2.028 . S
O480 C476 1.258 . S
O480 Zn481 2.035 . S
Zn481 O480 2.035 . S
Zn481 O482 2.028 . S
Zn481 O484 2.028 . S
Zn481 O487 2.035 . S
O482 Zn481 2.028 . S
O482 C488 1.247 . S
O483 Zn479 2.035 . S
O483 C488 1.258 . S
O484 C477 1.247 . S
O484 Zn481 2.028 . S
O485 C477 1.258 . S
O485 Zn479 2.035 . S
O486 Zn479 2.028 . S
O486 C489 1.247 . S
O487 Zn481 2.035 . S
O487 C489 1.258 . S
C488 O482 1.247 . S
C488 O483 1.258 . S
C489 O486 1.247 . S
C489 O487 1.258 . S
C490 O492 1.247 . S
C490 O494 1.258 . S
C491 O498 1.247 . S
C491 O499 1.258 . S
O492 C490 1.247 . S
O492 Zn493 2.028 . S
Zn493 O492 2.028 . S
Zn493 O497 2.035 . S
Zn493 O499 2.035 . S
Zn493 O500 2.028 . S
O494 C490 1.258 . S
O494 Zn495 2.035 . S
Zn495 O494 2.035 . S
Zn495 O496 2.028 . S
Zn495 O498 2.028 . S
Zn495 O501 2.035 . S
O496 Zn495 2.028 . S
O496 C502 1.247 . S
O497 Zn493 2.035 . S
O497 C502 1.258 . S
O498 C491 1.247 . S
O498 Zn495 2.028 . S
O499 C491 1.258 . S
O499 Zn493 2.035 . S
O500 Zn493 2.028 . S
O500 C503 1.247 . S
O501 Zn495 2.035 . S
O501 C503 1.258 . S
C502 O496 1.247 . S
C502 O497 1.258 . S
C503 O500 1.247 . S
C503 O501 1.258 . S
C504 O506 1.247 . S
C504 O508 1.258 . S
C505 O512 1.247 . S
C505 O513 1.258 . S
O506 C504 1.247 . S
O506 Zn507 2.028 . S
Zn507 O506 2.028 . S
Zn507 O511 2.035 . S
Zn507 O513 2.035 . S
Zn507 O514 2.028 . S
O508 C504 1.258 . S
O508 Zn509 2.035 . S
Zn509 O508 2.035 . S
Zn509 O510 2.028 . S
Zn509 O512 2.028 . S
Zn509 O515 2.035 . S
O510 Zn509 2.028 . S
O510 C516 1.247 . S
O511 Zn507 2.035 . S
O511 C516 1.258 . S
O512 C505 1.247 . S
O512 Zn509 2.028 . S
O513 C505 1.258 . S
O513 Zn507 2.035 . S
O514 Zn507 2.028 . S
O514 C517 1.247 . S
O515 Zn509 2.035 . S
O515 C517 1.258 . S
C516 O510 1.247 . S
C516 O511 1.258 . S
C517 O514 1.247 . S
C517 O515 1.258 . S
C518 O520 1.247 . S
C518 O522 1.258 . S
C519 O526 1.247 . S
C519 O527 1.258 . S
O520 C518 1.247 . S
O520 Zn521 2.028 . S
Zn521 O520 2.028 . S
Zn521 O525 2.035 . S
Zn521 O527 2.035 1_556 S
Zn521 O528 2.028 1_556 S
O522 C518 1.258 . S
O522 Zn523 2.035 . S
Zn523 O522 2.035 . S
Zn523 O524 2.028 . S
Zn523 O526 2.028 1_556 S
Zn523 O529 2.035 . S
O524 Zn523 2.028 . S
O524 C530 1.247 . S
O525 Zn521 2.035 . S
O525 C530 1.258 . S
O526 C519 1.247 . S
O526 Zn523 2.028 1_554 S
O527 C519 1.258 . S
O527 Zn521 2.035 1_554 S
O528 Zn521 2.028 1_554 S
O528 C531 1.247 . S
O529 Zn523 2.035 . S
O529 C531 1.258 1_556 S
C530 O524 1.247 . S
C530 O525 1.258 . S
C531 O528 1.247 . S
C531 O529 1.258 1_554 S
C532 O534 1.247 . S
C532 O536 1.258 . S
C533 O540 1.247 . S
C533 O541 1.258 . S
O534 C532 1.247 . S
O534 Zn535 2.028 . S
Zn535 O534 2.028 . S
Zn535 O539 2.035 . S
Zn535 O541 2.035 . S
Zn535 O542 2.028 . S
O536 C532 1.258 . S
O536 Zn537 2.035 . S
Zn537 O536 2.035 . S
Zn537 O538 2.028 . S
Zn537 O540 2.028 . S
Zn537 O543 2.035 . S
O538 Zn537 2.028 . S
O538 C544 1.247 . S
O539 Zn535 2.035 . S
O539 C544 1.258 . S
O540 C533 1.247 . S
O540 Zn537 2.028 . S
O541 C533 1.258 . S
O541 Zn535 2.035 . S
O542 Zn535 2.028 . S
O542 C545 1.247 . S
O543 Zn537 2.035 . S
O543 C545 1.258 . S
C544 O538 1.247 . S
C544 O539 1.258 . S
C545 O542 1.247 . S
C545 O543 1.258 . S
C546 O548 1.247 . S
C546 O550 1.258 . S
C547 O554 1.247 . S
C547 O555 1.258 . S
O548 C546 1.247 . S
O548 Zn549 2.028 . S
Zn549 O548 2.028 . S
Zn549 O553 2.035 . S
Zn549 O555 2.035 . S
Zn549 O556 2.028 . S
O550 C546 1.258 . S
O550 Zn551 2.035 . S
Zn551 O550 2.035 . S
Zn551 O552 2.028 . S
Zn551 O554 2.028 . S
Zn551 O557 2.035 . S
O552 Zn551 2.028 . S
O552 C558 1.247 . S
O553 Zn549 2.035 . S
O553 C558 1.258 . S
O554 C547 1.247 . S
O554 Zn551 2.028 . S
O555 C547 1.258 . S
O555 Zn549 2.035 . S
O556 Zn549 2.028 . S
O556 C559 1.247 . S
O557 Zn551 2.035 . S
O557 C559 1.258 . S
C558 O552 1.247 . S
C558 O553 1.258 . S
C559 O556 1.247 . S
C559 O557 1.258 . S
C560 O562 1.247 . S
C560 O564 1.258 . S
C561 O568 1.247 . S
C561 O569 1.258 . S
O562 C560 1.247 . S
O562 Zn563 2.028 . S
Zn563 O562 2.028 . S
Zn563 O567 2.035 . S
Zn563 O569 2.035 . S
Zn563 O570 2.028 . S
O564 C560 1.258 . S
O564 Zn565 2.035 . S
Zn565 O564 2.035 . S
Zn565 O566 2.028 . S
Zn565 O568 2.028 . S
Zn565 O571 2.035 . S
O566 Zn565 2.028 . S
O566 C572 1.247 . S
O567 Zn563 2.035 . S
O567 C572 1.258 . S
O568 C561 1.247 . S
O568 Zn565 2.028 . S
O569 C561 1.258 . S
O569 Zn563 2.035 . S
O570 Zn563 2.028 . S
O570 C573 1.247 . S
O571 Zn565 2.035 . S
O571 C573 1.258 . S
C572 O566 1.247 . S
C572 O567 1.258 . S
C573 O570 1.247 . S
C573 O571 1.258 . S
C574 O576 1.247 . S
C574 O578 1.258 . S
C575 O582 1.247 . S
C575 O583 1.258 . S
O576 C574 1.247 . S
O576 Zn577 2.028 . S
Zn577 O576 2.028 . S
Zn577 O581 2.035 . S
Zn577 O583 2.035 . S
Zn577 O584 2.028 . S
O578 C574 1.258 . S
O578 Zn579 2.035 . S
Zn579 O578 2.035 . S
Zn579 O580 2.028 . S
Zn579 O582 2.028 . S
Zn579 O585 2.035 . S
O580 Zn579 2.028 . S
O580 C586 1.247 . S
O581 Zn577 2.035 . S
O581 C586 1.258 . S
O582 C575 1.247 . S
O582 Zn579 2.028 . S
O583 C575 1.258 . S
O583 Zn577 2.035 . S
O584 Zn577 2.028 . S
O584 C587 1.247 . S
O585 Zn579 2.035 . S
O585 C587 1.258 . S
C586 O580 1.247 . S
C586 O581 1.258 . S
C587 O584 1.247 . S
C587 O585 1.258 . S
C588 O590 1.247 . S
C588 O592 1.258 . S
C589 O596 1.247 . S
C589 O597 1.258 . S
O590 C588 1.247 . S
O590 Zn591 2.028 1_565 S
Zn591 O590 2.028 1_545 S
Zn591 O595 2.035 1_545 S
Zn591 O597 2.035 . S
Zn591 O598 2.028 . S
O592 C588 1.258 . S
O592 Zn593 2.035 1_565 S
Zn593 O592 2.035 1_545 S
Zn593 O594 2.028 . S
Zn593 O596 2.028 . S
Zn593 O599 2.035 . S
O594 Zn593 2.028 . S
O594 C600 1.247 1_545 S
O595 Zn591 2.035 1_565 S
O595 C600 1.258 . S
O596 C589 1.247 . S
O596 Zn593 2.028 . S
O597 C589 1.258 . S
O597 Zn591 2.035 . S
O598 Zn591 2.028 . S
O598 C601 1.247 . S
O599 Zn593 2.035 . S
O599 C601 1.258 . S
C600 O594 1.247 1_565 S
C600 O595 1.258 . S
C601 O598 1.247 . S
C601 O599 1.258 . S
C602 O604 1.247 . S
C602 O606 1.258 . S
C603 O610 1.247 . S
C603 O611 1.258 . S
O604 C602 1.247 . S
O604 Zn605 2.028 . S
Zn605 O604 2.028 . S
Zn605 O609 2.035 . S
Zn605 O611 2.035 . S
Zn605 O612 2.028 . S
O606 C602 1.258 . S
O606 Zn607 2.035 . S
Zn607 O606 2.035 . S
Zn607 O608 2.028 . S
Zn607 O610 2.028 . S
Zn607 O613 2.035 . S
O608 Zn607 2.028 . S
O608 C614 1.247 . S
O609 Zn605 2.035 . S
O609 C614 1.258 . S
O610 C603 1.247 . S
O610 Zn607 2.028 . S
O611 C603 1.258 . S
O611 Zn605 2.035 . S
O612 Zn605 2.028 . S
O612 C615 1.247 . S
O613 Zn607 2.035 . S
O613 C615 1.258 . S
C614 O608 1.247 . S
C614 O609 1.258 . S
C615 O612 1.247 . S
C615 O613 1.258 . S
C616 O618 1.247 . S
C616 O620 1.258 . S
C617 O624 1.247 . S
C617 O625 1.258 . S
O618 C616 1.247 . S
O618 Zn619 2.028 . S
Zn619 O618 2.028 . S
Zn619 O623 2.035 . S
Zn619 O625 2.035 . S
Zn619 O626 2.028 . S
O620 C616 1.258 . S
O620 Zn621 2.035 . S
Zn621 O620 2.035 . S
Zn621 O622 2.028 . S
Zn621 O624 2.028 . S
Zn621 O627 2.035 . S
O622 Zn621 2.028 . S
O622 C628 1.247 . S
O623 Zn619 2.035 . S
O623 C628 1.258 . S
O624 C617 1.247 . S
O624 Zn621 2.028 . S
O625 C617 1.258 . S
O625 Zn619 2.035 . S
O626 Zn619 2.028 . S
O626 C629 1.247 . S
O627 Zn621 2.035 . S
O627 C629 1.258 . S
C628 O622 1.247 . S
C628 O623 1.258 . S
C629 O626 1.247 . S
C629 O627 1.258 . S
C630 O632 1.247 . S
C630 O634 1.258 . S
C631 O638 1.247 . S
C631 O639 1.258 . S
O632 C630 1.247 . S
O632 Zn633 2.028 . S
Zn633 O632 2.028 . S
Zn633 O637 2.035 . S
Zn633 O639 2.035 . S
Zn633 O640 2.028 . S
O634 C630 1.258 . S
O634 Zn635 2.035 . S
Zn635 O634 2.035 . S
Zn635 O636 2.028 . S
Zn635 O638 2.028 . S
Zn635 O641 2.035 . S
O636 Zn635 2.028 . S
O636 C642 1.247 . S
O637 Zn633 2.035 . S
O637 C642 1.258 . S
O638 C631 1.247 . S
O638 Zn635 2.028 . S
O639 C631 1.258 . S
O639 Zn633 2.035 . S
O640 Zn633 2.028 . S
O640 C643 1.247 . S
O641 Zn635 2.035 . S
O641 C643 1.258 . S
C642 O636 1.247 . S
C642 O637 1.258 . S
C643 O640 1.247 . S
C643 O641 1.258 . S
C644 O646 1.247 . S
C644 O648 1.258 . S
C645 O652 1.247 . S
C645 O653 1.258 . S
O646 C644 1.247 . S
O646 Zn647 2.028 1_545 S
Zn647 O646 2.028 1_565 S
Zn647 O651 2.035 1_565 S
Zn647 O653 2.035 . S
Zn647 O654 2.028 . S
O648 C644 1.258 . S
O648 Zn649 2.035 1_545 S
Zn649 O648 2.035 1_565 S
Zn649 O650 2.028 . S
Zn649 O652 2.028 . S
Zn649 O655 2.035 . S
O650 Zn649 2.028 . S
O650 C656 1.247 1_565 S
O651 Zn647 2.035 1_545 S
O651 C656 1.258 . S
O652 C645 1.247 . S
O652 Zn649 2.028 . S
O653 C645 1.258 . S
O653 Zn647 2.035 . S
O654 Zn647 2.028 . S
O654 C657 1.247 . S
O655 Zn649 2.035 . S
O655 C657 1.258 . S
C656 O650 1.247 1_545 S
C656 O651 1.258 . S
C657 O654 1.247 . S
C657 O655 1.258 . S
C658 O660 1.247 1_565 S
C658 O662 1.258 . S
C659 O666 1.247 . S
C659 O667 1.258 . S
O660 C658 1.247 1_545 S
O660 Zn661 2.028 . S
Zn661 O660 2.028 . S
Zn661 O665 2.035 1_545 S
Zn661 O667 2.035 . S
Zn661 O668 2.028 . S
O662 C658 1.258 . S
O662 Zn663 2.035 1_565 S
Zn663 O662 2.035 1_545 S
Zn663 O664 2.028 1_545 S
Zn663 O666 2.028 . S
Zn663 O669 2.035 . S
O664 Zn663 2.028 1_565 S
O664 C670 1.247 . S
O665 Zn661 2.035 1_565 S
O665 C670 1.258 . S
O666 C659 1.247 . S
O666 Zn663 2.028 . S
O667 C659 1.258 . S
O667 Zn661 2.035 . S
O668 Zn661 2.028 . S
O668 C671 1.247 . S
O669 Zn663 2.035 . S
O669 C671 1.258 . S
C670 O664 1.247 . S
C670 O665 1.258 . S
C671 O668 1.247 . S
C671 O669 1.258 . S
C672 C673 1.363 . S
C672 C678 1.379 . S
C672 N680 1.356 . S
C673 C672 1.363 . S
C673 C679 1.363 . S
C674 C675 1.363 . S
C674 C679 1.379 . S
C674 N681 1.356 . S
C675 C674 1.363 . S
C675 C678 1.363 . S
N676 C678 1.356 . S
N676 H688 0.984 . S
N676 H689 0.985 . S
N677 C679 1.356 . S
N677 H682 0.984 . S
N677 H683 0.985 . S
C678 C672 1.379 . S
C678 C675 1.363 . S
C678 N676 1.356 . S
C679 C673 1.363 . S
C679 C674 1.379 . S
C679 N677 1.356 . S
N680 C672 1.356 . S
N680 H686 0.984 . S
N680 H687 0.984 . S
N681 C674 1.356 . S
N681 H684 0.984 . S
N681 H685 0.985 . S
H682 N677 0.984 . S
H683 N677 0.985 . S
H684 N681 0.984 . S
H685 N681 0.985 . S
H686 N680 0.984 . S
H687 N680 0.984 . S
H688 N676 0.984 . S
H689 N676 0.985 . S
C690 C691 1.363 . S
C690 C696 1.379 . S
C690 N698 1.356 . S
C691 C690 1.363 . S
C691 C697 1.363 . S
C692 C693 1.363 . S
C692 C697 1.379 . S
C692 N699 1.356 . S
C693 C692 1.363 . S
C693 C696 1.363 . S
N694 C696 1.356 . S
N694 H706 0.984 . S
N694 H707 0.985 . S
N695 C697 1.356 . S
N695 H700 0.984 . S
N695 H701 0.985 . S
C696 C690 1.379 . S
C696 C693 1.363 . S
C696 N694 1.356 . S
C697 C691 1.363 . S
C697 C692 1.379 . S
C697 N695 1.356 . S
N698 C690 1.356 . S
N698 H704 0.984 . S
N698 H705 0.984 . S
N699 C692 1.356 . S
N699 H702 0.984 1_455 S
N699 H703 0.985 . S
H700 N695 0.984 . S
H701 N695 0.985 . S
H702 N699 0.984 1_655 S
H703 N699 0.985 . S
H704 N698 0.984 . S
H705 N698 0.984 . S
H706 N694 0.984 . S
H707 N694 0.985 . S
C708 C709 1.363 . S
C708 C714 1.379 . S
C708 N716 1.356 . S
C709 C708 1.363 . S
C709 C715 1.363 . S
C710 C711 1.363 . S
C710 C715 1.379 . S
C710 N717 1.356 . S
C711 C710 1.363 . S
C711 C714 1.363 . S
N712 C714 1.356 . S
N712 H724 0.984 . S
N712 H725 0.985 . S
N713 C715 1.337 1_554 S
N713 H718 0.993 . S
N713 H719 0.996 . S
C714 C708 1.379 . S
C714 C711 1.363 . S
C714 N712 1.356 . S
C715 C709 1.363 . S
C715 C710 1.379 . S
C715 N713 1.337 1_556 S
N716 C708 1.356 . S
N716 H722 0.984 . S
N716 H723 0.984 . S
N717 C710 1.356 . S
N717 H720 0.984 . S
N717 H721 0.985 . S
H718 N713 0.993 . S
H719 N713 0.996 . S
H720 N717 0.984 . S
H721 N717 0.985 . S
H722 N716 0.984 . S
H723 N716 0.984 . S
H724 N712 0.984 . S
H725 N712 0.985 . S
C726 C727 1.363 . S
C726 C732 1.379 . S
C726 N734 1.356 . S
C727 C726 1.363 . S
C727 C733 1.363 . S
C728 C729 1.363 . S
C728 C733 1.379 . S
C728 N735 1.356 . S
C729 C728 1.363 . S
C729 C732 1.363 . S
N730 C732 1.356 . S
N730 H742 0.984 . S
N730 H743 0.985 . S
N731 C733 1.356 . S
N731 H736 0.984 . S
N731 H737 0.985 . S
C732 C726 1.379 . S
C732 C729 1.363 . S
C732 N730 1.356 . S
C733 C727 1.363 . S
C733 C728 1.379 . S
C733 N731 1.356 . S
N734 C726 1.356 . S
N734 H740 0.984 . S
N734 H741 0.984 . S
N735 C728 1.356 . S
N735 H738 0.984 . S
N735 H739 0.985 . S
H736 N731 0.984 . S
H737 N731 0.985 . S
H738 N735 0.984 . S
H739 N735 0.985 . S
H740 N734 0.984 . S
H741 N734 0.984 . S
H742 N730 0.984 . S
H743 N730 0.985 . S
C744 C745 1.363 . S
C744 C750 1.379 . S
C744 N752 1.356 . S
C745 C744 1.363 . S
C745 C751 1.363 . S
C746 C747 1.363 . S
C746 C751 1.379 . S
C746 N753 1.356 . S
C747 C746 1.363 . S
C747 C750 1.363 . S
N748 C750 1.356 . S
N748 H760 0.984 . S
N748 H761 0.985 . S
N749 C751 1.356 . S
N749 H754 0.984 . S
N749 H755 0.985 . S
C750 C744 1.379 . S
C750 C747 1.363 . S
C750 N748 1.356 . S
C751 C745 1.363 . S
C751 C746 1.379 . S
C751 N749 1.356 . S
N752 C744 1.356 . S
N752 H758 0.984 . S
N752 H759 0.984 . S
N753 C746 1.356 . S
N753 H756 0.984 . S
N753 H757 0.985 . S
H754 N749 0.984 . S
H755 N749 0.985 . S
H756 N753 0.984 . S
H757 N753 0.985 . S
H758 N752 0.984 . S
H759 N752 0.984 . S
H760 N748 0.984 . S
H761 N748 0.985 . S
C762 C763 1.363 . S
C762 C768 1.379 . S
C762 N770 1.356 . S
C763 C762 1.363 . S
C763 C769 1.363 . S
C764 C765 1.363 . S
C764 C769 1.379 . S
C764 N771 1.356 . S
C765 C764 1.363 . S
C765 C768 1.363 . S
N766 C768 1.356 . S
N766 H778 0.984 . S
N766 H779 0.985 . S
N767 C769 1.356 . S
N767 H772 0.984 . S
N767 H773 0.985 . S
C768 C762 1.379 . S
C768 C765 1.363 . S
C768 N766 1.356 . S
C769 C763 1.363 . S
C769 C764 1.379 . S
C769 N767 1.356 . S
N770 C762 1.356 . S
N770 H776 0.984 . S
N770 H777 0.984 . S
N771 C764 1.356 . S
N771 H774 0.984 . S
N771 H775 0.985 . S
H772 N767 0.984 . S
H773 N767 0.985 . S
H774 N771 0.984 . S
H775 N771 0.985 . S
H776 N770 0.984 . S
H777 N770 0.984 . S
H778 N766 0.984 . S
H779 N766 0.985 . S
C780 C781 1.363 . S
C780 C786 1.379 . S
C780 N788 1.356 . S
C781 C780 1.363 . S
C781 C787 1.363 . S
C782 C783 1.363 . S
C782 C787 1.379 . S
C782 N789 1.356 . S
C783 C782 1.363 . S
C783 C786 1.363 . S
N784 C786 1.356 . S
N784 H796 0.984 . S
N784 H797 0.985 . S
N785 C787 1.356 . S
N785 H790 0.984 . S
N785 H791 0.985 . S
C786 C780 1.379 . S
C786 C783 1.363 . S
C786 N784 1.356 . S
C787 C781 1.363 . S
C787 C782 1.379 . S
C787 N785 1.356 . S
N788 C780 1.356 . S
N788 H794 0.984 . S
N788 H795 0.984 . S
N789 C782 1.356 . S
N789 H792 0.984 . S
N789 H793 0.985 . S
H790 N785 0.984 . S
H791 N785 0.985 . S
H792 N789 0.984 . S
H793 N789 0.985 . S
H794 N788 0.984 . S
H795 N788 0.984 . S
H796 N784 0.984 . S
H797 N784 0.985 . S
C798 C799 1.363 . S
C798 C804 1.379 . S
C798 N806 1.356 . S
C799 C798 1.363 . S
C799 C805 1.363 . S
C800 C801 1.363 . S
C800 C805 1.379 . S
C800 N807 1.356 . S
C801 C800 1.363 . S
C801 C804 1.363 . S
N802 C804 1.356 . S
N802 H814 0.984 . S
N802 H815 0.985 . S
N803 C805 1.356 . S
N803 H808 0.984 . S
N803 H809 0.985 . S
C804 C798 1.379 . S
C804 C801 1.363 . S
C804 N802 1.356 . S
C805 C799 1.363 . S
C805 C800 1.379 . S
C805 N803 1.356 . S
N806 C798 1.356 . S
N806 H812 0.984 . S
N806 H813 0.984 . S
N807 C800 1.356 . S
N807 H810 0.984 1_455 S
N807 H811 0.985 1_455 S
H808 N803 0.984 . S
H809 N803 0.985 . S
H810 N807 0.984 1_655 S
H811 N807 0.985 1_655 S
H812 N806 0.984 . S
H813 N806 0.984 . S
H814 N802 0.984 . S
H815 N802 0.985 . S
C816 C817 1.363 . S
C816 C822 1.379 . S
C816 N824 1.356 . S
C817 C816 1.363 . S
C817 C823 1.363 . S
C818 C819 1.363 . S
C818 C823 1.379 . S
C818 N825 1.356 . S
C819 C818 1.363 . S
C819 C822 1.363 . S
N820 C822 1.356 . S
N820 H832 0.984 . S
N820 H833 0.985 . S
N821 C823 1.356 . S
N821 H826 0.984 . S
N821 H827 0.985 . S
C822 C816 1.379 . S
C822 C819 1.363 . S
C822 N820 1.356 . S
C823 C817 1.363 . S
C823 C818 1.379 . S
C823 N821 1.356 . S
N824 C816 1.356 . S
N824 H830 0.984 . S
N824 H831 0.984 . S
N825 C818 1.356 . S
N825 H828 0.984 . S
N825 H829 0.985 . S
H826 N821 0.984 . S
H827 N821 0.985 . S
H828 N825 0.984 . S
H829 N825 0.985 . S
H830 N824 0.984 . S
H831 N824 0.984 . S
H832 N820 0.984 . S
H833 N820 0.985 . S
C834 C835 1.363 . S
C834 C840 1.379 . S
C834 N842 1.356 . S
C835 C834 1.363 . S
C835 C841 1.363 . S
C836 C837 1.363 . S
C836 C841 1.379 . S
C836 N843 1.356 . S
C837 C836 1.363 . S
C837 C840 1.363 . S
N838 C840 1.356 . S
N838 H850 0.984 . S
N838 H851 0.985 . S
N839 C841 1.356 . S
N839 H844 0.984 . S
N839 H845 0.985 . S
C840 C834 1.379 . S
C840 C837 1.363 . S
C840 N838 1.356 . S
C841 C835 1.363 . S
C841 C836 1.379 . S
C841 N839 1.356 . S
N842 C834 1.356 . S
N842 H848 0.984 . S
N842 H849 0.984 . S
N843 C836 1.356 . S
N843 H846 0.984 . S
N843 H847 0.985 . S
H844 N839 0.984 . S
H845 N839 0.985 . S
H846 N843 0.984 . S
H847 N843 0.985 . S
H848 N842 0.984 . S
H849 N842 0.984 . S
H850 N838 0.984 . S
H851 N838 0.985 . S
C852 C853 1.363 . S
C852 C858 1.379 . S
C852 N860 1.356 . S
C853 C852 1.363 . S
C853 C859 1.363 . S
C854 C855 1.363 . S
C854 C859 1.379 . S
C854 N861 1.356 . S
C855 C854 1.363 . S
C855 C858 1.363 . S
N856 C858 1.356 . S
N856 H868 0.984 . S
N856 H869 0.985 . S
N857 C859 1.356 . S
N857 H862 0.984 . S
N857 H863 0.985 . S
C858 C852 1.379 . S
C858 C855 1.363 . S
C858 N856 1.356 . S
C859 C853 1.363 . S
C859 C854 1.379 . S
C859 N857 1.356 . S
N860 C852 1.356 . S
N860 H866 0.984 . S
N860 H867 0.984 . S
N861 C854 1.356 . S
N861 H864 0.984 . S
N861 H865 0.985 . S
H862 N857 0.984 . S
H863 N857 0.985 . S
H864 N861 0.984 . S
H865 N861 0.985 . S
H866 N860 0.984 . S
H867 N860 0.984 . S
H868 N856 0.984 . S
H869 N856 0.985 . S
C870 C871 1.363 . S
C870 C876 1.379 . S
C870 N878 1.356 . S
C871 C870 1.363 . S
C871 C877 1.363 . S
C872 C873 1.363 . S
C872 C877 1.379 . S
C872 N879 1.356 . S
C873 C872 1.363 . S
C873 C876 1.363 . S
N874 C876 1.356 . S
N874 H886 0.984 . S
N874 H887 0.985 . S
N875 C877 1.356 . S
N875 H880 0.984 . S
N875 H881 0.985 . S
C876 C870 1.379 . S
C876 C873 1.363 . S
C876 N874 1.356 . S
C877 C871 1.363 . S
C877 C872 1.379 . S
C877 N875 1.356 . S
N878 C870 1.356 . S
N878 H884 0.984 . S
N878 H885 0.984 . S
N879 C872 1.356 . S
N879 H882 0.984 . S
N879 H883 0.985 . S
H880 N875 0.984 . S
H881 N875 0.985 . S
H882 N879 0.984 . S
H883 N879 0.985 . S
H884 N878 0.984 . S
H885 N878 0.984 . S
H886 N874 0.984 . S
H887 N874 0.985 . S
C888 C889 1.363 . S
C888 C894 1.379 . S
C888 N896 1.356 . S
C889 C888 1.363 . S
C889 C895 1.363 . S
C890 C891 1.363 . S
C890 C895 1.379 . S
C890 N897 1.356 . S
C891 C890 1.363 . S
C891 C894 1.363 . S
N892 C894 1.356 . S
N892 H904 0.984 . S
N892 H905 0.985 . S
N893 C895 1.356 . S
N893 H898 0.984 . S
N893 H899 0.985 . S
C894 C888 1.379 . S
C894 C891 1.363 . S
C894 N892 1.356 . S
C895 C889 1.363 . S
C895 C890 1.379 . S
C895 N893 1.356 . S
N896 C888 1.356 . S
N896 H902 0.984 . S
N896 H903 0.984 . S
N897 C890 1.356 . S
N897 H900 0.984 . S
N897 H901 0.985 . S
H898 N893 0.984 . S
H899 N893 0.985 . S
H900 N897 0.984 . S
H901 N897 0.985 . S
H902 N896 0.984 . S
H903 N896 0.984 . S
H904 N892 0.984 . S
H905 N892 0.985 . S
C906 C907 1.363 . S
C906 C912 1.379 . S
C906 N914 1.356 . S
C907 C906 1.363 . S
C907 C913 1.363 . S
C908 C909 1.363 . S
C908 C913 1.379 . S
C908 N915 1.356 . S
C909 C908 1.363 . S
C909 C912 1.363 . S
N910 C912 1.356 . S
N910 H922 0.984 . S
N910 H923 0.985 . S
N911 C913 1.356 . S
N911 H916 0.984 . S
N911 H917 0.985 . S
C912 C906 1.379 . S
C912 C909 1.363 . S
C912 N910 1.356 . S
C913 C907 1.363 . S
C913 C908 1.379 . S
C913 N911 1.356 . S
N914 C906 1.356 . S
N914 H920 0.984 . S
N914 H921 0.984 . S
N915 C908 1.356 . S
N915 H918 0.984 . S
N915 H919 0.985 . S
H916 N911 0.984 . S
H917 N911 0.985 . S
H918 N915 0.984 . S
H919 N915 0.985 . S
H920 N914 0.984 . S
H921 N914 0.984 . S
H922 N910 0.984 . S
H923 N910 0.985 . S
C924 C925 1.363 . S
C924 C930 1.379 . S
C924 N932 1.356 . S
C925 C924 1.363 . S
C925 C931 1.363 . S
C926 C927 1.363 . S
C926 C931 1.379 . S
C926 N933 1.356 . S
C927 C926 1.363 . S
C927 C930 1.363 . S
N928 C930 1.356 . S
N928 H940 0.984 . S
N928 H941 0.985 . S
N929 C931 1.356 . S
N929 H934 0.984 . S
N929 H935 0.985 . S
C930 C924 1.379 . S
C930 C927 1.363 . S
C930 N928 1.356 . S
C931 C925 1.363 . S
C931 C926 1.379 . S
C931 N929 1.356 . S
N932 C924 1.356 . S
N932 H938 0.984 . S
N932 H939 0.984 . S
N933 C926 1.356 . S
N933 H936 0.984 . S
N933 H937 0.985 . S
H934 N929 0.984 . S
H935 N929 0.985 . S
H936 N933 0.984 . S
H937 N933 0.985 . S
H938 N932 0.984 . S
H939 N932 0.984 . S
H940 N928 0.984 . S
H941 N928 0.985 . S
C942 C943 1.363 . S
C942 C948 1.379 . S
C942 N950 1.356 . S
C943 C942 1.363 . S
C943 C949 1.363 . S
C944 C945 1.363 . S
C944 C949 1.379 . S
C944 N951 1.356 . S
C945 C944 1.363 . S
C945 C948 1.363 . S
N946 C948 1.356 . S
N946 H958 0.984 . S
N946 H959 0.985 . S
N947 C949 1.356 . S
N947 H952 0.984 1_556 S
N947 H953 0.985 1_556 S
C948 C942 1.379 . S
C948 C945 1.363 . S
C948 N946 1.356 . S
C949 C943 1.363 . S
C949 C944 1.379 . S
C949 N947 1.356 . S
N950 C942 1.356 . S
N950 H956 0.984 . S
N950 H957 0.984 . S
N951 C944 1.356 . S
N951 H954 0.984 . S
N951 H955 0.985 . S
H952 N947 0.984 1_554 S
H953 N947 0.985 1_554 S
H954 N951 0.984 . S
H955 N951 0.985 . S
H956 N950 0.984 . S
H957 N950 0.984 . S
H958 N946 0.984 . S
H959 N946 0.985 . S
C960 C961 1.363 . S
C960 C966 1.379 . S
C960 N968 1.356 . S
C961 C960 1.363 . S
C961 C967 1.363 . S
C962 C963 1.363 . S
C962 C967 1.379 . S
C962 N969 1.356 . S
C963 C962 1.363 . S
C963 C966 1.363 . S
N964 C966 1.356 . S
N964 H976 0.984 . S
N964 H977 0.985 . S
N965 C967 1.356 . S
N965 H970 0.984 . S
N965 H971 0.985 . S
C966 C960 1.379 . S
C966 C963 1.363 . S
C966 N964 1.356 . S
C967 C961 1.363 . S
C967 C962 1.379 . S
C967 N965 1.356 . S
N968 C960 1.356 . S
N968 H974 0.984 . S
N968 H975 0.984 . S
N969 C962 1.356 . S
N969 H972 0.984 . S
N969 H973 0.985 . S
H970 N965 0.984 . S
H971 N965 0.985 . S
H972 N969 0.984 . S
H973 N969 0.985 . S
H974 N968 0.984 . S
H975 N968 0.984 . S
H976 N964 0.984 . S
H977 N964 0.985 . S
C978 C979 1.363 . S
C978 C984 1.379 . S
C978 N986 1.356 . S
C979 C978 1.363 . S
C979 C985 1.363 . S
C980 C981 1.363 . S
C980 C985 1.379 . S
C980 N987 1.356 . S
C981 C980 1.363 . S
C981 C984 1.363 . S
N982 C984 1.356 . S
N982 H994 0.984 . S
N982 H995 0.985 . S
N983 C985 1.356 . S
N983 H988 0.984 . S
N983 H989 0.985 . S
C984 C978 1.379 . S
C984 C981 1.363 . S
C984 N982 1.356 . S
C985 C979 1.363 . S
C985 C980 1.379 . S
C985 N983 1.356 . S
N986 C978 1.356 . S
N986 H992 0.984 . S
N986 H993 0.984 . S
N987 C980 1.356 . S
N987 H990 0.984 . S
N987 H991 0.985 . S
H988 N983 0.984 . S
H989 N983 0.985 . S
H990 N987 0.984 . S
H991 N987 0.985 . S
H992 N986 0.984 . S
H993 N986 0.984 . S
H994 N982 0.984 . S
H995 N982 0.985 . S
C996 C997 1.363 . S
C996 C1002 1.379 . S
C996 N1004 1.356 . S
C997 C996 1.363 . S
C997 C1003 1.363 . S
C998 C999 1.363 . S
C998 C1003 1.379 . S
C998 N1005 1.356 . S
C999 C998 1.363 . S
C999 C1002 1.363 . S
N1000 C1002 1.356 . S
N1000 H1012 0.984 . S
N1000 H1013 0.985 . S
N1001 C1003 1.356 . S
N1001 H1006 0.984 . S
N1001 H1007 0.985 . S
C1002 C996 1.379 . S
C1002 C999 1.363 . S
C1002 N1000 1.356 . S
C1003 C997 1.363 . S
C1003 C998 1.379 . S
C1003 N1001 1.356 . S
N1004 C996 1.356 . S
N1004 H1010 0.984 . S
N1004 H1011 0.984 . S
N1005 C998 1.356 . S
N1005 H1008 0.984 . S
N1005 H1009 0.985 . S
H1006 N1001 0.984 . S
H1007 N1001 0.985 . S
H1008 N1005 0.984 . S
H1009 N1005 0.985 . S
H1010 N1004 0.984 . S
H1011 N1004 0.984 . S
H1012 N1000 0.984 . S
H1013 N1000 0.985 . S
C1014 C1015 1.363 . S
C1014 C1020 1.379 . S
C1014 N1022 1.356 . S
C1015 C1014 1.363 . S
C1015 C1021 1.363 . S
C1016 C1017 1.363 . S
C1016 C1021 1.379 . S
C1016 N1023 1.356 . S
C1017 C1016 1.363 . S
C1017 C1020 1.363 . S
N1018 C1020 1.356 . S
N1018 H1030 0.984 . S
N1018 H1031 0.985 . S
N1019 C1021 1.356 . S
N1019 H1024 0.984 . S
N1019 H1025 0.985 . S
C1020 C1014 1.379 . S
C1020 C1017 1.363 . S
C1020 N1018 1.356 . S
C1021 C1015 1.363 . S
C1021 C1016 1.379 . S
C1021 N1019 1.356 . S
N1022 C1014 1.356 . S
N1022 H1028 0.984 . S
N1022 H1029 0.984 . S
N1023 C1016 1.356 . S
N1023 H1026 0.984 . S
N1023 H1027 0.985 . S
H1024 N1019 0.984 . S
H1025 N1019 0.985 . S
H1026 N1023 0.984 . S
H1027 N1023 0.985 . S
H1028 N1022 0.984 . S
H1029 N1022 0.984 . S
H1030 N1018 0.984 . S
H1031 N1018 0.985 . S
C1032 C1033 1.363 . S
C1032 C1038 1.379 . S
C1032 N1040 1.356 . S
C1033 C1032 1.363 . S
C1033 C1039 1.363 . S
C1034 C1035 1.363 . S
C1034 C1039 1.379 . S
C1034 N1041 1.330 1_655 S
C1035 C1034 1.363 . S
C1035 C1038 1.363 . S
N1036 C1038 1.356 . S
N1036 H1048 0.984 . S
N1036 H1049 0.985 . S
N1037 C1039 1.356 . S
N1037 H1042 0.984 . S
N1037 H1043 0.985 . S
C1038 C1032 1.379 . S
C1038 C1035 1.363 . S
C1038 N1036 1.356 . S
C1039 C1033 1.363 . S
C1039 C1034 1.379 . S
C1039 N1037 1.356 . S
N1040 C1032 1.356 . S
N1040 H1046 0.984 . S
N1040 H1047 0.984 . S
N1041 C1034 1.330 1_455 S
N1041 H1044 0.997 . S
N1041 H1045 1.000 . S
H1042 N1037 0.984 . S
H1043 N1037 0.985 . S
H1044 N1041 0.997 . S
H1045 N1041 1.000 . S
H1046 N1040 0.984 . S
H1047 N1040 0.984 . S
H1048 N1036 0.984 . S
H1049 N1036 0.985 . S
C1050 C1051 1.363 . S
C1050 C1056 1.379 . S
C1050 N1058 1.356 . S
C1051 C1050 1.363 . S
C1051 C1057 1.363 . S
C1052 C1053 1.363 . S
C1052 C1057 1.379 . S
C1052 N1059 1.356 . S
C1053 C1052 1.363 . S
C1053 C1056 1.363 . S
N1054 C1056 1.356 . S
N1054 H1066 0.984 . S
N1054 H1067 0.985 . S
N1055 C1057 1.356 . S
N1055 H1060 0.984 . S
N1055 H1061 0.985 . S
C1056 C1050 1.379 . S
C1056 C1053 1.363 . S
C1056 N1054 1.356 . S
C1057 C1051 1.363 . S
C1057 C1052 1.379 . S
C1057 N1055 1.356 . S
N1058 C1050 1.356 . S
N1058 H1064 0.984 . S
N1058 H1065 0.984 . S
N1059 C1052 1.356 . S
N1059 H1062 1.003 . S
N1059 H1063 0.985 . S
H1060 N1055 0.984 . S
H1061 N1055 0.985 . S
H1062 N1059 1.003 . S
H1063 N1059 0.985 . S
H1064 N1058 0.984 . S
H1065 N1058 0.984 . S
H1066 N1054 0.984 . S
H1067 N1054 0.985 . S
C1068 C1069 1.363 . S
C1068 C1074 1.379 . S
C1068 N1076 1.356 . S
C1069 C1068 1.363 . S
C1069 C1075 1.363 . S
C1070 C1071 1.363 . S
C1070 C1075 1.379 . S
C1070 N1077 1.356 . S
C1071 C1070 1.363 . S
C1071 C1074 1.363 . S
N1072 C1074 1.356 . S
N1072 H1084 0.984 . S
N1072 H1085 0.985 . S
N1073 C1075 1.356 . S
N1073 H1078 0.984 . S
N1073 H1079 0.985 . S
C1074 C1068 1.379 . S
C1074 C1071 1.363 . S
C1074 N1072 1.356 . S
C1075 C1069 1.363 . S
C1075 C1070 1.379 . S
C1075 N1073 1.356 . S
N1076 C1068 1.356 . S
N1076 H1082 0.984 . S
N1076 H1083 0.984 . S
N1077 C1070 1.356 . S
N1077 H1080 0.984 . S
N1077 H1081 0.985 . S
H1078 N1073 0.984 . S
H1079 N1073 0.985 . S
H1080 N1077 0.984 . S
H1081 N1077 0.985 . S
H1082 N1076 0.984 . S
H1083 N1076 0.984 . S
H1084 N1072 0.984 . S
H1085 N1072 0.985 . S
C1086 C1087 1.363 . S
C1086 C1092 1.379 . S
C1086 N1094 1.356 . S
C1087 C1086 1.363 . S
C1087 C1093 1.363 . S
C1088 C1089 1.363 . S
C1088 C1093 1.379 . S
C1088 N1095 1.356 . S
C1089 C1088 1.363 . S
C1089 C1092 1.363 . S
N1090 C1092 1.356 . S
N1090 H1102 0.984 . S
N1090 H1103 0.985 . S
N1091 C1093 1.356 . S
N1091 H1096 0.984 . S
N1091 H1097 0.985 . S
C1092 C1086 1.379 . S
C1092 C1089 1.363 . S
C1092 N1090 1.356 . S
C1093 C1087 1.363 . S
C1093 C1088 1.379 . S
C1093 N1091 1.356 . S
N1094 C1086 1.356 . S
N1094 H1100 0.984 . S
N1094 H1101 0.984 . S
N1095 C1088 1.356 . S
N1095 H1098 0.984 . S
N1095 H1099 0.985 . S
H1096 N1091 0.984 . S
H1097 N1091 0.985 . S
H1098 N1095 0.984 . S
H1099 N1095 0.985 . S
H1100 N1094 0.984 . S
H1101 N1094 0.984 . S
H1102 N1090 0.984 . S
H1103 N1090 0.985 . S
C1104 C1105 1.363 . S
C1104 C1110 1.379 . S
C1104 N1112 1.356 . S
C1105 C1104 1.363 . S
C1105 C1111 1.363 . S
C1106 C1107 1.363 . S
C1106 C1111 1.379 . S
C1106 N1113 1.356 . S
C1107 C1106 1.363 . S
C1107 C1110 1.363 . S
N1108 C1110 1.356 . S
N1108 H1120 0.984 . S
N1108 H1121 0.985 . S
N1109 C1111 1.356 . S
N1109 H1114 0.984 . S
N1109 H1115 0.985 . S
C1110 C1104 1.379 . S
C1110 C1107 1.363 . S
C1110 N1108 1.356 . S
C1111 C1105 1.363 . S
C1111 C1106 1.379 . S
C1111 N1109 1.356 . S
N1112 C1104 1.356 . S
N1112 H1118 0.984 . S
N1112 H1119 0.984 . S
N1113 C1106 1.356 . S
N1113 H1116 0.984 . S
N1113 H1117 0.985 . S
H1114 N1109 0.984 . S
H1115 N1109 0.985 . S
H1116 N1113 0.984 . S
H1117 N1113 0.985 . S
H1118 N1112 0.984 . S
H1119 N1112 0.984 . S
H1120 N1108 0.984 . S
H1121 N1108 0.985 . S
C1122 C1123 1.363 . S
C1122 C1128 1.379 . S
C1122 N1130 1.338 1_565 S
C1123 C1122 1.363 . S
C1123 C1129 1.363 . S
C1124 C1125 1.363 . S
C1124 C1129 1.379 . S
C1124 N1131 1.356 . S
C1125 C1124 1.363 . S
C1125 C1128 1.363 . S
N1126 C1128 1.356 . S
N1126 H1138 0.984 1_565 S
N1126 H1139 0.985 . S
N1127 C1129 1.356 . S
N1127 H1132 0.984 . S
N1127 H1133 0.985 . S
C1128 C1122 1.379 . S
C1128 C1125 1.363 . S
C1128 N1126 1.356 . S
C1129 C1123 1.363 . S
C1129 C1124 1.379 . S
C1129 N1127 1.356 . S
N1130 C1122 1.338 1_545 S
N1130 H1136 1.004 . S
N1130 H1137 0.984 . S
N1131 C1124 1.356 . S
N1131 H1134 0.984 . S
N1131 H1135 0.985 . S
H1132 N1127 0.984 . S
H1133 N1127 0.985 . S
H1134 N1131 0.984 . S
H1135 N1131 0.985 . S
H1136 N1130 1.004 . S
H1137 N1130 0.984 . S
H1138 N1126 0.984 1_545 S
H1139 N1126 0.985 . S
C1140 C1141 1.363 . S
C1140 C1146 1.379 . S
C1140 N1148 1.356 . S
C1141 C1140 1.363 . S
C1141 C1147 1.363 . S
C1142 C1143 1.363 . S
C1142 C1147 1.379 . S
C1142 N1149 1.356 . S
C1143 C1142 1.363 . S
C1143 C1146 1.363 . S
N1144 C1146 1.356 . S
N1144 H1156 0.984 . S
N1144 H1157 0.985 . S
N1145 C1147 1.356 . S
N1145 H1150 0.984 . S
N1145 H1151 0.985 . S
C1146 C1140 1.379 . S
C1146 C1143 1.363 . S
C1146 N1144 1.356 . S
C1147 C1141 1.363 . S
C1147 C1142 1.379 . S
C1147 N1145 1.356 . S
N1148 C1140 1.356 . S
N1148 H1154 0.984 . S
N1148 H1155 0.984 . S
N1149 C1142 1.356 . S
N1149 H1152 0.984 . S
N1149 H1153 0.985 . S
H1150 N1145 0.984 . S
H1151 N1145 0.985 . S
H1152 N1149 0.984 . S
H1153 N1149 0.985 . S
H1154 N1148 0.984 . S
H1155 N1148 0.984 . S
H1156 N1144 0.984 . S
H1157 N1144 0.985 . S
C1158 C1159 1.363 . S
C1158 C1164 1.379 1_556 S
C1158 N1166 1.356 1_545 S
C1159 C1158 1.363 . S
C1159 C1165 1.363 . S
C1160 C1161 1.363 . S
C1160 C1165 1.379 1_554 S
C1160 N1167 1.356 . S
C1161 C1160 1.363 . S
C1161 C1164 1.363 . S
N1162 C1164 1.356 . S
N1162 H1174 0.984 1_545 S
N1162 H1175 0.985 . S
N1163 C1165 1.356 . S
N1163 H1168 0.984 . S
N1163 H1169 0.985 . S
C1164 C1158 1.379 1_554 S
C1164 C1161 1.363 . S
C1164 N1162 1.356 . S
C1165 C1159 1.363 . S
C1165 C1160 1.379 1_556 S
C1165 N1163 1.356 . S
N1166 C1158 1.356 1_565 S
N1166 H1172 0.984 . S
N1166 H1173 0.984 . S
N1167 C1160 1.356 . S
N1167 H1170 0.984 . S
N1167 H1171 0.985 . S
H1168 N1163 0.984 . S
H1169 N1163 0.985 . S
H1170 N1167 0.984 . S
H1171 N1167 0.985 . S
H1172 N1166 0.984 . S
H1173 N1166 0.984 . S
H1174 N1162 0.984 1_565 S
H1175 N1162 0.985 . S
C1176 C1177 1.363 . S
C1176 C1182 1.379 . S
C1176 N1184 1.356 . S
C1177 C1176 1.363 . S
C1177 C1183 1.363 . S
C1178 C1179 1.363 . S
C1178 C1183 1.379 . S
C1178 N1185 1.356 . S
C1179 C1178 1.363 . S
C1179 C1182 1.363 . S
N1180 C1182 1.356 . S
N1180 H1192 0.984 . S
N1180 H1193 0.985 . S
N1181 C1183 1.356 . S
N1181 H1186 0.984 . S
N1181 H1187 0.985 . S
C1182 C1176 1.379 . S
C1182 C1179 1.363 . S
C1182 N1180 1.356 . S
C1183 C1177 1.363 . S
C1183 C1178 1.379 . S
C1183 N1181 1.356 . S
N1184 C1176 1.356 . S
N1184 H1190 0.984 . S
N1184 H1191 0.984 . S
N1185 C1178 1.356 . S
N1185 H1188 0.984 . S
N1185 H1189 0.985 . S
H1186 N1181 0.984 . S
H1187 N1181 0.985 . S
H1188 N1185 0.984 . S
H1189 N1185 0.985 . S
H1190 N1184 0.984 . S
H1191 N1184 0.984 . S
H1192 N1180 0.984 . S
H1193 N1180 0.985 . S
C1194 C1195 1.363 . S
C1194 C1200 1.379 . S
C1194 N1202 1.356 1_565 S
C1195 C1194 1.363 . S
C1195 C1201 1.363 . S
C1196 C1197 1.363 . S
C1196 C1201 1.379 . S
C1196 N1203 1.356 . S
C1197 C1196 1.363 . S
C1197 C1200 1.363 . S
N1198 C1200 1.356 . S
N1198 H1210 0.984 1_565 S
N1198 H1211 0.985 . S
N1199 C1201 1.356 . S
N1199 H1204 0.984 . S
N1199 H1205 0.985 . S
C1200 C1194 1.379 . S
C1200 C1197 1.363 . S
C1200 N1198 1.356 . S
C1201 C1195 1.363 . S
C1201 C1196 1.379 . S
C1201 N1199 1.356 . S
N1202 C1194 1.356 1_545 S
N1202 H1208 0.984 . S
N1202 H1209 0.984 . S
N1203 C1196 1.356 . S
N1203 H1206 0.984 . S
N1203 H1207 0.985 . S
H1204 N1199 0.984 . S
H1205 N1199 0.985 . S
H1206 N1203 0.984 . S
H1207 N1203 0.985 . S
H1208 N1202 0.984 . S
H1209 N1202 0.984 . S
H1210 N1198 0.984 1_545 S
H1211 N1198 0.985 . S
C1212 C1213 1.363 . S
C1212 C1218 1.379 . S
C1212 N1220 1.356 . S
C1213 C1212 1.363 . S
C1213 C1219 1.363 . S
C1214 C1215 1.363 . S
C1214 C1219 1.379 . S
C1214 N1221 1.356 . S
C1215 C1214 1.363 . S
C1215 C1218 1.363 . S
N1216 C1218 1.356 . S
N1216 H1228 0.984 . S
N1216 H1229 0.985 . S
N1217 C1219 1.356 . S
N1217 H1222 0.984 . S
N1217 H1223 0.985 . S
C1218 C1212 1.379 . S
C1218 C1215 1.363 . S
C1218 N1216 1.356 . S
C1219 C1213 1.363 . S
C1219 C1214 1.379 . S
C1219 N1217 1.356 . S
N1220 C1212 1.356 . S
N1220 H1226 0.984 . S
N1220 H1227 0.984 . S
N1221 C1214 1.356 . S
N1221 H1224 0.984 . S
N1221 H1225 0.985 . S
H1222 N1217 0.984 . S
H1223 N1217 0.985 . S
H1224 N1221 0.984 . S
H1225 N1221 0.985 . S
H1226 N1220 0.984 . S
H1227 N1220 0.984 . S
H1228 N1216 0.984 . S
H1229 N1216 0.985 . S
C1230 C1231 1.363 . S
C1230 C1236 1.379 1_554 S
C1230 N1238 1.356 . S
C1231 C1230 1.363 . S
C1231 C1237 1.386 . S
C1232 C1233 1.363 . S
C1232 C1237 1.345 1_556 S
C1232 N1239 1.356 . S
C1233 C1232 1.363 . S
C1233 C1236 1.363 . S
N1234 C1236 1.356 . S
N1234 H1246 0.984 . S
N1234 H1247 0.985 . S
N1235 C1237 1.377 1_565 S
N1235 H1240 0.984 . S
N1235 H1241 0.985 . S
C1236 C1230 1.379 1_556 S
C1236 C1233 1.363 . S
C1236 N1234 1.356 . S
C1237 C1231 1.386 . S
C1237 C1232 1.345 1_554 S
C1237 N1235 1.377 1_545 S
N1238 C1230 1.356 . S
N1238 H1244 0.984 . S
N1238 H1245 0.984 . S
N1239 C1232 1.356 . S
N1239 H1242 0.984 . S
N1239 H1243 0.985 1_545 S
H1240 N1235 0.984 . S
H1241 N1235 0.985 . S
H1242 N1239 0.984 . S
H1243 N1239 0.985 1_565 S
H1244 N1238 0.984 . S
H1245 N1238 0.984 . S
H1246 N1234 0.984 . S
H1247 N1234 0.985 . S
C1248 C1249 1.363 . S
C1248 C1254 1.379 . S
C1248 N1256 1.356 . S
C1249 C1248 1.363 . S
C1249 C1255 1.363 . S
C1250 C1251 1.363 . S
C1250 C1255 1.379 . S
C1250 N1257 1.356 . S
C1251 C1250 1.363 . S
C1251 C1254 1.363 . S
N1252 C1254 1.356 . S
N1252 H1264 0.984 . S
N1252 H1265 0.985 . S
N1253 C1255 1.356 . S
N1253 H1258 0.984 . S
N1253 H1259 0.985 . S
C1254 C1248 1.379 . S
C1254 C1251 1.363 . S
C1254 N1252 1.356 . S
C1255 C1249 1.363 . S
C1255 C1250 1.379 . S
C1255 N1253 1.356 . S
N1256 C1248 1.356 . S
N1256 H1262 0.984 . S
N1256 H1263 0.984 . S
N1257 C1250 1.356 . S
N1257 H1260 0.984 . S
N1257 H1261 0.985 . S
H1258 N1253 0.984 . S
H1259 N1253 0.985 . S
H1260 N1257 0.984 . S
H1261 N1257 0.985 . S
H1262 N1256 0.984 . S
H1263 N1256 0.984 . S
H1264 N1252 0.984 . S
H1265 N1252 0.985 . S
C1266 C1267 1.363 1_545 S
C1266 C1272 1.379 . S
C1266 N1274 1.356 1_545 S
C1267 C1266 1.363 1_565 S
C1267 C1273 1.363 . S
C1268 C1269 1.363 . S
C1268 C1273 1.379 1_545 S
C1268 N1275 1.356 . S
C1269 C1268 1.363 . S
C1269 C1272 1.363 . S
N1270 C1272 1.356 . S
N1270 H1282 0.984 . S
N1270 H1283 0.985 . S
N1271 C1273 1.356 . S
N1271 H1276 0.984 . S
N1271 H1277 0.985 . S
C1272 C1266 1.379 . S
C1272 C1269 1.363 . S
C1272 N1270 1.356 . S
C1273 C1267 1.363 . S
C1273 C1268 1.379 1_565 S
C1273 N1271 1.356 . S
N1274 C1266 1.356 1_565 S
N1274 H1280 0.984 . S
N1274 H1281 0.984 . S
N1275 C1268 1.356 . S
N1275 H1278 0.984 . S
N1275 H1279 0.985 . S
H1276 N1271 0.984 . S
H1277 N1271 0.985 . S
H1278 N1275 0.984 . S
H1279 N1275 0.985 . S
H1280 N1274 0.984 . S
H1281 N1274 0.984 . S
H1282 N1270 0.984 . S
H1283 N1270 0.985 . S
C1284 C1285 1.363 . S
C1284 C1290 1.379 . S
C1284 N1292 1.356 . S
C1285 C1284 1.363 . S
C1285 C1291 1.363 . S
C1286 C1287 1.363 . S
C1286 C1291 1.379 . S
C1286 N1293 1.356 . S
C1287 C1286 1.363 . S
C1287 C1290 1.363 . S
N1288 C1290 1.356 . S
N1288 H1300 0.984 . S
N1288 H1301 0.985 . S
N1289 C1291 1.356 . S
N1289 H1294 0.984 . S
N1289 H1295 0.985 . S
C1290 C1284 1.379 . S
C1290 C1287 1.363 . S
C1290 N1288 1.356 . S
C1291 C1285 1.363 . S
C1291 C1286 1.379 . S
C1291 N1289 1.356 . S
N1292 C1284 1.356 . S
N1292 H1298 0.984 . S
N1292 H1299 0.984 . S
N1293 C1286 1.356 . S
N1293 H1296 0.984 . S
N1293 H1297 0.985 . S
H1294 N1289 0.984 . S
H1295 N1289 0.985 . S
H1296 N1293 0.984 . S
H1297 N1293 0.985 . S
H1298 N1292 0.984 . S
H1299 N1292 0.984 . S
H1300 N1288 0.984 . S
H1301 N1288 0.985 . S
C1302 C1303 1.363 . S
C1302 C1308 1.379 1_545 S
C1302 N1310 1.356 . S
C1303 C1302 1.363 . S
C1303 C1309 1.363 . S
C1304 C1305 1.363 . S
C1304 C1309 1.379 1_565 S
C1304 N1311 1.356 . S
C1305 C1304 1.363 . S
C1305 C1308 1.363 . S
N1306 C1308 1.356 . S
N1306 H1318 0.984 . S
N1306 H1319 0.985 . S
N1307 C1309 1.356 . S
N1307 H1312 0.984 . S
N1307 H1313 0.985 . S
C1308 C1302 1.379 1_565 S
C1308 C1305 1.363 . S
C1308 N1306 1.356 . S
C1309 C1303 1.363 . S
C1309 C1304 1.379 1_545 S
C1309 N1307 1.356 . S
N1310 C1302 1.356 . S
N1310 H1316 0.984 . S
N1310 H1317 0.984 . S
N1311 C1304 1.356 . S
N1311 H1314 0.984 . S
N1311 H1315 0.985 . S
H1312 N1307 0.984 . S
H1313 N1307 0.985 . S
H1314 N1311 0.984 . S
H1315 N1311 0.985 . S
H1316 N1310 0.984 . S
H1317 N1310 0.984 . S
H1318 N1306 0.984 . S
H1319 N1306 0.985 . S
C1320 C1321 1.363 . S
C1320 C1326 1.379 . S
C1320 N1328 1.356 . S
C1321 C1320 1.363 . S
C1321 C1327 1.363 . S
C1322 C1323 1.363 . S
C1322 C1327 1.379 . S
C1322 N1329 1.356 . S
C1323 C1322 1.363 . S
C1323 C1326 1.363 . S
N1324 C1326 1.356 . S
N1324 H1336 0.984 . S
N1324 H1337 0.985 . S
N1325 C1327 1.356 . S
N1325 H1330 0.984 . S
N1325 H1331 0.985 . S
C1326 C1320 1.379 . S
C1326 C1323 1.363 . S
C1326 N1324 1.356 . S
C1327 C1321 1.363 . S
C1327 C1322 1.379 . S
C1327 N1325 1.356 . S
N1328 C1320 1.356 . S
N1328 H1334 0.984 . S
N1328 H1335 0.984 . S
N1329 C1322 1.356 . S
N1329 H1332 0.984 . S
N1329 H1333 0.985 . S
H1330 N1325 0.984 . S
H1331 N1325 0.985 . S
H1332 N1329 0.984 . S
H1333 N1329 0.985 . S
H1334 N1328 0.984 . S
H1335 N1328 0.984 . S
H1336 N1324 0.984 . S
H1337 N1324 0.985 . S
C1338 C1339 1.363 1_545 S
C1338 C1344 1.379 . S
C1338 N1346 1.356 1_545 S
C1339 C1338 1.363 1_565 S
C1339 C1345 1.363 . S
C1340 C1341 1.363 . S
C1340 C1345 1.379 1_545 S
C1340 N1347 1.356 . S
C1341 C1340 1.363 . S
C1341 C1344 1.363 . S
N1342 C1344 1.356 . S
N1342 H1354 0.984 . S
N1342 H1355 0.985 . S
N1343 C1345 1.356 . S
N1343 H1348 0.984 . S
N1343 H1349 0.985 . S
C1344 C1338 1.379 . S
C1344 C1341 1.363 . S
C1344 N1342 1.356 . S
C1345 C1339 1.363 . S
C1345 C1340 1.379 1_565 S
C1345 N1343 1.356 . S
N1346 C1338 1.356 1_565 S
N1346 H1352 0.984 . S
N1346 H1353 0.984 . S
N1347 C1340 1.356 . S
N1347 H1350 0.984 . S
N1347 H1351 0.985 . S
H1348 N1343 0.984 . S
H1349 N1343 0.985 . S
H1350 N1347 0.984 . S
H1351 N1347 0.985 . S
H1352 N1346 0.984 . S
H1353 N1346 0.984 . S
H1354 N1342 0.984 . S
H1355 N1342 0.985 . S
C1356 C1357 1.363 . S
C1356 C1362 1.379 . S
C1356 N1364 1.356 . S
C1357 C1356 1.363 . S
C1357 C1363 1.363 . S
C1358 C1359 1.363 . S
C1358 C1363 1.379 . S
C1358 N1365 1.356 . S
C1359 C1358 1.363 . S
C1359 C1362 1.363 . S
N1360 C1362 1.356 . S
N1360 H1372 0.984 . S
N1360 H1373 0.985 . S
N1361 C1363 1.356 . S
N1361 H1366 0.984 . S
N1361 H1367 0.985 . S
C1362 C1356 1.379 . S
C1362 C1359 1.363 . S
C1362 N1360 1.356 . S
C1363 C1357 1.363 . S
C1363 C1358 1.379 . S
C1363 N1361 1.356 . S
N1364 C1356 1.356 . S
N1364 H1370 0.984 . S
N1364 H1371 0.984 . S
N1365 C1358 1.356 . S
N1365 H1368 0.984 . S
N1365 H1369 0.985 . S
H1366 N1361 0.984 . S
H1367 N1361 0.985 . S
H1368 N1365 0.984 . S
H1369 N1365 0.985 . S
H1370 N1364 0.984 . S
H1371 N1364 0.984 . S
H1372 N1360 0.984 . S
H1373 N1360 0.985 . S
C1374 C1375 1.363 . S
C1374 C1380 1.379 1_565 S
C1374 N1382 1.356 . S
C1375 C1374 1.363 . S
C1375 C1381 1.363 . S
C1376 C1377 1.363 . S
C1376 C1381 1.379 1_545 S
C1376 N1383 1.356 . S
C1377 C1376 1.363 . S
C1377 C1380 1.363 . S
N1378 C1380 1.356 . S
N1378 H1390 0.984 1_455 S
N1378 H1391 0.985 . S
N1379 C1381 1.356 . S
N1379 H1384 0.984 . S
N1379 H1385 0.985 . S
C1380 C1374 1.379 1_545 S
C1380 C1377 1.363 . S
C1380 N1378 1.356 . S
C1381 C1375 1.363 . S
C1381 C1376 1.379 1_565 S
C1381 N1379 1.356 . S
N1382 C1374 1.356 . S
N1382 H1388 0.984 . S
N1382 H1389 0.984 . S
N1383 C1376 1.356 . S
N1383 H1386 0.984 . S
N1383 H1387 0.985 . S
H1384 N1379 0.984 . S
H1385 N1379 0.985 . S
H1386 N1383 0.984 . S
H1387 N1383 0.985 . S
H1388 N1382 0.984 . S
H1389 N1382 0.984 . S
H1390 N1378 0.984 1_655 S
H1391 N1378 0.985 . S
C1392 C1393 1.363 . S
C1392 C1398 1.379 . S
C1392 N1400 1.356 . S
C1393 C1392 1.363 . S
C1393 C1399 1.363 . S
C1394 C1395 1.363 . S
C1394 C1399 1.379 . S
C1394 N1401 1.356 . S
C1395 C1394 1.363 . S
C1395 C1398 1.363 . S
N1396 C1398 1.356 . S
N1396 H1408 0.984 . S
N1396 H1409 0.985 . S
N1397 C1399 1.356 . S
N1397 H1402 0.984 . S
N1397 H1403 0.985 . S
C1398 C1392 1.379 . S
C1398 C1395 1.363 . S
C1398 N1396 1.356 . S
C1399 C1393 1.363 . S
C1399 C1394 1.379 . S
C1399 N1397 1.356 . S
N1400 C1392 1.356 . S
N1400 H1406 0.984 . S
N1400 H1407 0.984 . S
N1401 C1394 1.356 . S
N1401 H1404 0.984 . S
N1401 H1405 0.985 . S
H1402 N1397 0.984 . S
H1403 N1397 0.985 . S
H1404 N1401 0.984 . S
H1405 N1401 0.985 . S
H1406 N1400 0.984 . S
H1407 N1400 0.984 . S
H1408 N1396 0.984 . S
H1409 N1396 0.985 . S
C1410 C1411 1.363 . S
C1410 C1416 1.379 . S
C1410 N1418 1.356 . S
C1411 C1410 1.363 . S
C1411 C1417 1.363 . S
C1412 C1413 1.363 . S
C1412 C1417 1.379 . S
C1412 N1419 1.356 . S
C1413 C1412 1.363 . S
C1413 C1416 1.363 . S
N1414 C1416 1.356 . S
N1414 H1426 0.984 . S
N1414 H1427 0.985 . S
N1415 C1417 1.356 . S
N1415 H1420 0.984 . S
N1415 H1421 0.985 . S
C1416 C1410 1.379 . S
C1416 C1413 1.363 . S
C1416 N1414 1.356 . S
C1417 C1411 1.363 . S
C1417 C1412 1.379 . S
C1417 N1415 1.356 . S
N1418 C1410 1.356 . S
N1418 H1424 0.984 . S
N1418 H1425 0.984 . S
N1419 C1412 1.356 . S
N1419 H1422 0.984 . S
N1419 H1423 0.985 . S
H1420 N1415 0.984 . S
H1421 N1415 0.985 . S
H1422 N1419 0.984 . S
H1423 N1419 0.985 . S
H1424 N1418 0.984 . S
H1425 N1418 0.984 . S
H1426 N1414 0.984 . S
H1427 N1414 0.985 . S
C1428 C1429 1.363 . S
C1428 C1434 1.379 1_655 S
C1428 N1436 1.356 1_554 S
C1429 C1428 1.363 . S
C1429 C1435 1.363 . S
C1430 C1431 1.363 . S
C1430 C1435 1.379 1_455 S
C1430 N1437 1.356 . S
C1431 C1430 1.363 . S
C1431 C1434 1.363 . S
N1432 C1434 1.356 . S
N1432 H1444 0.984 1_554 S
N1432 H1445 0.985 . S
N1433 C1435 1.356 . S
N1433 H1438 0.984 . S
N1433 H1439 0.985 . S
C1434 C1428 1.379 1_455 S
C1434 C1431 1.363 . S
C1434 N1432 1.356 . S
C1435 C1429 1.363 . S
C1435 C1430 1.379 1_655 S
C1435 N1433 1.356 . S
N1436 C1428 1.356 1_556 S
N1436 H1442 0.984 . S
N1436 H1443 0.984 . S
N1437 C1430 1.356 . S
N1437 H1440 0.984 . S
N1437 H1441 0.985 . S
H1438 N1433 0.984 . S
H1439 N1433 0.985 . S
H1440 N1437 0.984 . S
H1441 N1437 0.985 . S
H1442 N1436 0.984 . S
H1443 N1436 0.984 . S
H1444 N1432 0.984 1_556 S
H1445 N1432 0.985 . S
C1446 C1447 1.363 . S
C1446 C1452 1.379 . S
C1446 N1454 1.356 . S
C1447 C1446 1.363 . S
C1447 C1453 1.363 . S
C1448 C1449 1.363 . S
C1448 C1453 1.379 . S
C1448 N1455 1.356 . S
C1449 C1448 1.363 . S
C1449 C1452 1.363 . S
N1450 C1452 1.356 . S
N1450 H1462 0.984 . S
N1450 H1463 0.985 . S
N1451 C1453 1.356 . S
N1451 H1456 0.984 . S
N1451 H1457 0.985 . S
C1452 C1446 1.379 . S
C1452 C1449 1.363 . S
C1452 N1450 1.356 . S
C1453 C1447 1.363 . S
C1453 C1448 1.379 . S
C1453 N1451 1.356 . S
N1454 C1446 1.356 . S
N1454 H1460 0.984 . S
N1454 H1461 0.984 . S
N1455 C1448 1.356 . S
N1455 H1458 0.984 . S
N1455 H1459 0.985 . S
H1456 N1451 0.984 . S
H1457 N1451 0.985 . S
H1458 N1455 0.984 . S
H1459 N1455 0.985 . S
H1460 N1454 0.984 . S
H1461 N1454 0.984 . S
H1462 N1450 0.984 . S
H1463 N1450 0.985 . S
C1464 C1465 1.381 . S
C1464 C1470 1.353 1_455 S
C1464 N1472 1.372 . S
C1465 C1464 1.381 . S
C1465 C1471 1.363 . S
C1466 C1467 1.363 . S
C1466 C1471 1.379 1_655 S
C1466 N1473 1.356 . S
C1467 C1466 1.363 . S
C1467 C1470 1.363 . S
N1468 C1470 1.356 . S
N1468 H1480 0.984 . S
N1468 H1481 0.985 . S
N1469 C1471 1.356 . S
N1469 H1474 0.984 . S
N1469 H1475 0.985 . S
C1470 C1464 1.353 1_655 S
C1470 C1467 1.363 . S
C1470 N1468 1.356 . S
C1471 C1465 1.363 . S
C1471 C1466 1.379 1_455 S
C1471 N1469 1.356 . S
N1472 C1464 1.372 . S
N1472 H1478 0.984 . S
N1472 H1479 0.984 . S
N1473 C1466 1.356 . S
N1473 H1476 0.984 . S
N1473 H1477 0.985 1_565 S
H1474 N1469 0.984 . S
H1475 N1469 0.985 . S
H1476 N1473 0.984 . S
H1477 N1473 0.985 1_545 S
H1478 N1472 0.984 . S
H1479 N1472 0.984 . S
H1480 N1468 0.984 . S
H1481 N1468 0.985 . S
C1482 C1483 1.363 . S
C1482 C1488 1.379 . S
C1482 N1490 1.356 . S
C1483 C1482 1.363 . S
C1483 C1489 1.363 . S
C1484 C1485 1.363 . S
C1484 C1489 1.379 . S
C1484 N1491 1.356 . S
C1485 C1484 1.363 . S
C1485 C1488 1.363 . S
N1486 C1488 1.356 . S
N1486 H1498 0.984 . S
N1486 H1499 0.985 . S
N1487 C1489 1.356 . S
N1487 H1492 0.984 . S
N1487 H1493 0.985 . S
C1488 C1482 1.379 . S
C1488 C1485 1.363 . S
C1488 N1486 1.356 . S
C1489 C1483 1.363 . S
C1489 C1484 1.379 . S
C1489 N1487 1.356 . S
N1490 C1482 1.356 . S
N1490 H1496 0.984 . S
N1490 H1497 0.984 . S
N1491 C1484 1.356 . S
N1491 H1494 0.984 . S
N1491 H1495 0.985 . S
H1492 N1487 0.984 . S
H1493 N1487 0.985 . S
H1494 N1491 0.984 . S
H1495 N1491 0.985 . S
H1496 N1490 0.984 . S
H1497 N1490 0.984 . S
H1498 N1486 0.984 . S
H1499 N1486 0.985 . S
C1500 C1501 1.363 . S
C1500 C1506 1.379 1_655 S
C1500 N1508 1.356 . S
C1501 C1500 1.363 . S
C1501 C1507 1.363 . S
C1502 C1503 1.363 . S
C1502 C1507 1.379 1_455 S
C1502 N1509 1.356 . S
C1503 C1502 1.363 . S
C1503 C1506 1.363 . S
N1504 C1506 1.356 . S
N1504 H1516 0.984 . S
N1504 H1517 0.985 . S
N1505 C1507 1.356 . S
N1505 H1510 0.984 . S
N1505 H1511 0.985 . S
C1506 C1500 1.379 1_455 S
C1506 C1503 1.363 . S
C1506 N1504 1.356 . S
C1507 C1501 1.363 . S
C1507 C1502 1.379 1_655 S
C1507 N1505 1.356 . S
N1508 C1500 1.356 . S
N1508 H1514 0.984 . S
N1508 H1515 0.984 . S
N1509 C1502 1.356 . S
N1509 H1512 0.984 . S
N1509 H1513 0.985 . S
H1510 N1505 0.984 . S
H1511 N1505 0.985 . S
H1512 N1509 0.984 . S
H1513 N1509 0.985 . S
H1514 N1508 0.984 . S
H1515 N1508 0.984 . S
H1516 N1504 0.984 . S
H1517 N1504 0.985 . S
C1518 C1519 1.363 . S
C1518 C1524 1.379 . S
C1518 N1526 1.356 . S
C1519 C1518 1.363 . S
C1519 C1525 1.363 . S
C1520 C1521 1.363 . S
C1520 C1525 1.379 . S
C1520 N1527 1.356 1_556 S
C1521 C1520 1.363 . S
C1521 C1524 1.363 . S
N1522 C1524 1.356 . S
N1522 H1534 0.984 . S
N1522 H1535 0.985 . S
N1523 C1525 1.356 . S
N1523 H1528 0.984 . S
N1523 H1529 0.985 1_556 S
C1524 C1518 1.379 . S
C1524 C1521 1.363 . S
C1524 N1522 1.356 . S
C1525 C1519 1.363 . S
C1525 C1520 1.379 . S
C1525 N1523 1.356 . S
N1526 C1518 1.356 . S
N1526 H1532 0.984 . S
N1526 H1533 0.984 . S
N1527 C1520 1.356 1_554 S
N1527 H1530 0.984 . S
N1527 H1531 0.985 . S
H1528 N1523 0.984 . S
H1529 N1523 0.985 1_554 S
H1530 N1527 0.984 . S
H1531 N1527 0.985 . S
H1532 N1526 0.984 . S
H1533 N1526 0.984 . S
H1534 N1522 0.984 . S
H1535 N1522 0.985 . S
C1536 C1537 1.363 . S
C1536 C1542 1.379 . S
C1536 N1544 1.356 . S
C1537 C1536 1.363 . S
C1537 C1543 1.363 . S
C1538 C1539 1.363 . S
C1538 C1543 1.379 . S
C1538 N1545 1.356 . S
C1539 C1538 1.363 . S
C1539 C1542 1.363 . S
N1540 C1542 1.356 . S
N1540 H1552 0.984 . S
N1540 H1553 0.985 . S
N1541 C1543 1.356 . S
N1541 H1546 0.984 . S
N1541 H1547 0.985 . S
C1542 C1536 1.379 . S
C1542 C1539 1.363 . S
C1542 N1540 1.356 . S
C1543 C1537 1.363 . S
C1543 C1538 1.379 . S
C1543 N1541 1.356 . S
N1544 C1536 1.356 . S
N1544 H1550 0.984 . S
N1544 H1551 0.984 . S
N1545 C1538 1.356 . S
N1545 H1548 0.984 . S
N1545 H1549 0.985 . S
H1546 N1541 0.984 . S
H1547 N1541 0.985 . S
H1548 N1545 0.984 . S
H1549 N1545 0.985 . S
H1550 N1544 0.984 . S
H1551 N1544 0.984 . S
H1552 N1540 0.984 . S
H1553 N1540 0.985 . S
C1554 C1555 1.363 . S
C1554 C1560 1.379 1_554 S
C1554 N1562 1.356 . S
C1555 C1554 1.363 . S
C1555 C1561 1.363 . S
C1556 C1557 1.363 . S
C1556 C1561 1.379 1_556 S
C1556 N1563 1.356 . S
C1557 C1556 1.363 . S
C1557 C1560 1.363 . S
N1558 C1560 1.356 . S
N1558 H1570 0.984 . S
N1558 H1571 0.985 . S
N1559 C1561 1.356 . S
N1559 H1564 0.984 . S
N1559 H1565 0.985 . S
C1560 C1554 1.379 1_556 S
C1560 C1557 1.363 . S
C1560 N1558 1.356 . S
C1561 C1555 1.363 . S
C1561 C1556 1.379 1_554 S
C1561 N1559 1.356 . S
N1562 C1554 1.356 . S
N1562 H1568 0.984 . S
N1562 H1569 0.984 . S
N1563 C1556 1.356 . S
N1563 H1566 0.984 . S
N1563 H1567 0.985 . S
H1564 N1559 0.984 . S
H1565 N1559 0.985 . S
H1566 N1563 0.984 . S
H1567 N1563 0.985 . S
H1568 N1562 0.984 . S
H1569 N1562 0.984 . S
H1570 N1558 0.984 . S
H1571 N1558 0.985 . S
C1572 C1573 1.363 . S
C1572 C1578 1.379 . S
C1572 N1580 1.356 . S
C1573 C1572 1.363 . S
C1573 C1579 1.363 . S
C1574 C1575 1.363 . S
C1574 C1579 1.379 . S
C1574 N1581 1.356 . S
C1575 C1574 1.363 . S
C1575 C1578 1.363 . S
N1576 C1578 1.356 . S
N1576 H1588 0.984 . S
N1576 H1589 0.985 . S
N1577 C1579 1.356 . S
N1577 H1582 0.984 . S
N1577 H1583 0.985 . S
C1578 C1572 1.379 . S
C1578 C1575 1.363 . S
C1578 N1576 1.356 . S
C1579 C1573 1.363 . S
C1579 C1574 1.379 . S
C1579 N1577 1.356 . S
N1580 C1572 1.356 . S
N1580 H1586 0.984 . S
N1580 H1587 0.984 . S
N1581 C1574 1.356 . S
N1581 H1584 0.984 . S
N1581 H1585 0.985 . S
H1582 N1577 0.984 . S
H1583 N1577 0.985 . S
H1584 N1581 0.984 . S
H1585 N1581 0.985 . S
H1586 N1580 0.984 . S
H1587 N1580 0.984 . S
H1588 N1576 0.984 . S
H1589 N1576 0.985 . S
C1590 C1591 1.363 . S
C1590 C1596 1.379 . S
C1590 N1598 1.356 . S
C1591 C1590 1.363 . S
C1591 C1597 1.363 . S
C1592 C1593 1.363 . S
C1592 C1597 1.379 . S
C1592 N1599 1.356 . S
C1593 C1592 1.363 . S
C1593 C1596 1.363 . S
N1594 C1596 1.356 . S
N1594 H1606 0.984 . S
N1594 H1607 0.985 . S
N1595 C1597 1.356 . S
N1595 H1600 0.984 . S
N1595 H1601 0.985 . S
C1596 C1590 1.379 . S
C1596 C1593 1.363 . S
C1596 N1594 1.356 . S
C1597 C1591 1.363 . S
C1597 C1592 1.379 . S
C1597 N1595 1.356 . S
N1598 C1590 1.356 . S
N1598 H1604 0.984 . S
N1598 H1605 0.984 . S
N1599 C1592 1.356 . S
N1599 H1602 0.984 . S
N1599 H1603 0.985 . S
H1600 N1595 0.984 . S
H1601 N1595 0.985 . S
H1602 N1599 0.984 . S
H1603 N1599 0.985 . S
H1604 N1598 0.984 . S
H1605 N1598 0.984 . S
H1606 N1594 0.984 . S
H1607 N1594 0.985 . S
C1608 C1609 1.363 . S
C1608 C1614 1.379 . S
C1608 N1616 1.356 . S
C1609 C1608 1.363 . S
C1609 C1615 1.363 . S
C1610 C1611 1.363 . S
C1610 C1615 1.379 . S
C1610 N1617 1.356 . S
C1611 C1610 1.363 . S
C1611 C1614 1.363 . S
N1612 C1614 1.356 . S
N1612 H1624 0.984 . S
N1612 H1625 0.985 . S
N1613 C1615 1.356 . S
N1613 H1618 0.984 . S
N1613 H1619 0.985 . S
C1614 C1608 1.379 . S
C1614 C1611 1.363 . S
C1614 N1612 1.356 . S
C1615 C1609 1.363 . S
C1615 C1610 1.379 . S
C1615 N1613 1.356 . S
N1616 C1608 1.356 . S
N1616 H1622 0.984 . S
N1616 H1623 0.984 . S
N1617 C1610 1.356 . S
N1617 H1620 0.984 . S
N1617 H1621 0.985 . S
H1618 N1613 0.984 . S
H1619 N1613 0.985 . S
H1620 N1617 0.984 . S
H1621 N1617 0.985 . S
H1622 N1616 0.984 . S
H1623 N1616 0.984 . S
H1624 N1612 0.984 . S
H1625 N1612 0.985 . S
C1626 C1627 1.363 . S
C1626 C1632 1.379 . S
C1626 N1634 1.356 . S
C1627 C1626 1.363 . S
C1627 C1633 1.363 . S
C1628 C1629 1.363 . S
C1628 C1633 1.379 1_554 S
C1628 N1635 1.356 . S
C1629 C1628 1.363 . S
C1629 C1632 1.363 1_554 S
N1630 C1632 1.356 1_554 S
N1630 H1642 0.984 . S
N1630 H1643 0.985 . S
N1631 C1633 1.356 . S
N1631 H1636 0.984 . S
N1631 H1637 0.985 . S
C1632 C1626 1.379 . S
C1632 C1629 1.363 1_556 S
C1632 N1630 1.356 1_556 S
C1633 C1627 1.363 . S
C1633 C1628 1.379 1_556 S
C1633 N1631 1.356 . S
N1634 C1626 1.356 . S
N1634 H1640 0.984 . S
N1634 H1641 0.984 . S
N1635 C1628 1.356 . S
N1635 H1638 0.984 . S
N1635 H1639 0.985 . S
H1636 N1631 0.984 . S
H1637 N1631 0.985 . S
H1638 N1635 0.984 . S
H1639 N1635 0.985 . S
H1640 N1634 0.984 . S
H1641 N1634 0.984 . S
H1642 N1630 0.984 . S
H1643 N1630 0.985 . S
C1644 C1645 1.363 . S
C1644 C1650 1.379 . S
C1644 N1652 1.356 . S
C1645 C1644 1.363 . S
C1645 C1651 1.363 . S
C1646 C1647 1.363 . S
C1646 C1651 1.379 . S
C1646 N1653 1.356 . S
C1647 C1646 1.363 . S
C1647 C1650 1.363 . S
N1648 C1650 1.356 . S
N1648 H1660 0.984 . S
N1648 H1661 0.985 . S
N1649 C1651 1.356 . S
N1649 H1654 0.984 . S
N1649 H1655 0.985 . S
C1650 C1644 1.379 . S
C1650 C1647 1.363 . S
C1650 N1648 1.356 . S
C1651 C1645 1.363 . S
C1651 C1646 1.379 . S
C1651 N1649 1.356 . S
N1652 C1644 1.356 . S
N1652 H1658 0.984 . S
N1652 H1659 0.984 . S
N1653 C1646 1.356 . S
N1653 H1656 0.984 . S
N1653 H1657 0.985 . S
H1654 N1649 0.984 . S
H1655 N1649 0.985 . S
H1656 N1653 0.984 . S
H1657 N1653 0.985 . S
H1658 N1652 0.984 . S
H1659 N1652 0.984 . S
H1660 N1648 0.984 . S
H1661 N1648 0.985 . S
C1662 C1663 1.363 . S
C1662 C1668 1.379 . S
C1662 N1670 1.356 . S
C1663 C1662 1.363 . S
C1663 C1669 1.363 . S
C1664 C1665 1.363 . S
C1664 C1669 1.379 . S
C1664 N1671 1.356 . S
C1665 C1664 1.363 . S
C1665 C1668 1.363 . S
N1666 C1668 1.356 . S
N1666 H1678 0.984 . S
N1666 H1679 0.985 . S
N1667 C1669 1.356 . S
N1667 H1672 0.984 . S
N1667 H1673 0.985 . S
C1668 C1662 1.379 . S
C1668 C1665 1.363 . S
C1668 N1666 1.356 . S
C1669 C1663 1.363 . S
C1669 C1664 1.379 . S
C1669 N1667 1.356 . S
N1670 C1662 1.356 . S
N1670 H1676 0.984 . S
N1670 H1677 0.984 . S
N1671 C1664 1.356 . S
N1671 H1674 0.984 . S
N1671 H1675 0.985 . S
H1672 N1667 0.984 . S
H1673 N1667 0.985 . S
H1674 N1671 0.984 . S
H1675 N1671 0.985 . S
H1676 N1670 0.984 . S
H1677 N1670 0.984 . S
H1678 N1666 0.984 . S
H1679 N1666 0.985 . S
C1680 C1681 1.363 . S
C1680 C1686 1.379 . S
C1680 N1688 1.356 . S
C1681 C1680 1.363 . S
C1681 C1687 1.363 . S
C1682 C1683 1.363 . S
C1682 C1687 1.379 . S
C1682 N1689 1.356 . S
C1683 C1682 1.363 . S
C1683 C1686 1.363 . S
N1684 C1686 1.356 . S
N1684 H1696 0.984 . S
N1684 H1697 0.985 . S
N1685 C1687 1.356 . S
N1685 H1690 0.984 . S
N1685 H1691 0.985 . S
C1686 C1680 1.379 . S
C1686 C1683 1.363 . S
C1686 N1684 1.356 . S
C1687 C1681 1.363 . S
C1687 C1682 1.379 . S
C1687 N1685 1.356 . S
N1688 C1680 1.356 . S
N1688 H1694 0.984 . S
N1688 H1695 0.984 . S
N1689 C1682 1.356 . S
N1689 H1692 0.984 . S
N1689 H1693 0.985 . S
H1690 N1685 0.984 . S
H1691 N1685 0.985 . S
H1692 N1689 0.984 . S
H1693 N1689 0.985 . S
H1694 N1688 0.984 . S
H1695 N1688 0.984 . S
H1696 N1684 0.984 . S
H1697 N1684 0.985 . S
C1698 C1699 1.363 . S
C1698 C1704 1.379 . S
C1698 N1706 1.356 . S
C1699 C1698 1.363 . S
C1699 C1705 1.363 . S
C1700 C1701 1.363 . S
C1700 C1705 1.379 . S
C1700 N1707 1.356 . S
C1701 C1700 1.363 . S
C1701 C1704 1.363 . S
N1702 C1704 1.356 . S
N1702 H1714 0.984 . S
N1702 H1715 0.985 . S
N1703 C1705 1.356 . S
N1703 H1708 0.984 . S
N1703 H1709 0.985 . S
C1704 C1698 1.379 . S
C1704 C1701 1.363 . S
C1704 N1702 1.356 . S
C1705 C1699 1.363 . S
C1705 C1700 1.379 . S
C1705 N1703 1.356 . S
N1706 C1698 1.356 . S
N1706 H1712 0.984 . S
N1706 H1713 0.984 . S
N1707 C1700 1.356 . S
N1707 H1710 0.984 . S
N1707 H1711 0.985 . S
H1708 N1703 0.984 . S
H1709 N1703 0.985 . S
H1710 N1707 0.984 . S
H1711 N1707 0.985 . S
H1712 N1706 0.984 . S
H1713 N1706 0.984 . S
H1714 N1702 0.984 . S
H1715 N1702 0.985 . S
C1716 C1717 1.363 . S
C1716 C1722 1.379 . S
C1716 N1724 1.356 . S
C1717 C1716 1.363 . S
C1717 C1723 1.363 . S
C1718 C1719 1.363 . S
C1718 C1723 1.379 . S
C1718 N1725 1.356 . S
C1719 C1718 1.363 . S
C1719 C1722 1.363 . S
N1720 C1722 1.356 . S
N1720 H1732 0.984 . S
N1720 H1733 0.985 . S
N1721 C1723 1.356 . S
N1721 H1726 0.984 . S
N1721 H1727 0.985 . S
C1722 C1716 1.379 . S
C1722 C1719 1.363 . S
C1722 N1720 1.356 . S
C1723 C1717 1.363 . S
C1723 C1718 1.379 . S
C1723 N1721 1.356 . S
N1724 C1716 1.356 . S
N1724 H1730 0.984 . S
N1724 H1731 0.984 . S
N1725 C1718 1.356 . S
N1725 H1728 0.984 . S
N1725 H1729 0.985 . S
H1726 N1721 0.984 . S
H1727 N1721 0.985 . S
H1728 N1725 0.984 . S
H1729 N1725 0.985 . S
H1730 N1724 0.984 . S
H1731 N1724 0.984 . S
H1732 N1720 0.984 . S
H1733 N1720 0.985 . S
C1734 C1735 1.363 . S
C1734 C1740 1.379 . S
C1734 N1742 1.356 . S
C1735 C1734 1.363 . S
C1735 C1741 1.363 . S
C1736 C1737 1.363 . S
C1736 C1741 1.379 . S
C1736 N1743 1.356 . S
C1737 C1736 1.363 . S
C1737 C1740 1.363 . S
N1738 C1740 1.356 . S
N1738 H1750 0.984 . S
N1738 H1751 0.985 . S
N1739 C1741 1.356 . S
N1739 H1744 0.984 . S
N1739 H1745 0.985 . S
C1740 C1734 1.379 . S
C1740 C1737 1.363 . S
C1740 N1738 1.356 . S
C1741 C1735 1.363 . S
C1741 C1736 1.379 . S
C1741 N1739 1.356 . S
N1742 C1734 1.356 . S
N1742 H1748 0.984 1_655 S
N1742 H1749 0.984 . S
N1743 C1736 1.356 . S
N1743 H1746 0.984 . S
N1743 H1747 0.985 . S
H1744 N1739 0.984 . S
H1745 N1739 0.985 . S
H1746 N1743 0.984 . S
H1747 N1743 0.985 . S
H1748 N1742 0.984 1_455 S
H1749 N1742 0.984 . S
H1750 N1738 0.984 . S
H1751 N1738 0.985 . S
C1752 C1753 1.363 . S
C1752 C1758 1.379 . S
C1752 N1760 1.356 . S
C1753 C1752 1.363 . S
C1753 C1759 1.363 . S
C1754 C1755 1.363 . S
C1754 C1759 1.379 . S
C1754 N1761 1.356 . S
C1755 C1754 1.363 . S
C1755 C1758 1.363 . S
N1756 C1758 1.356 . S
N1756 H1768 0.984 . S
N1756 H1769 0.985 . S
N1757 C1759 1.356 . S
N1757 H1762 0.984 . S
N1757 H1763 0.985 . S
C1758 C1752 1.379 . S
C1758 C1755 1.363 . S
C1758 N1756 1.356 . S
C1759 C1753 1.363 . S
C1759 C1754 1.379 . S
C1759 N1757 1.356 . S
N1760 C1752 1.356 . S
N1760 H1766 0.984 . S
N1760 H1767 0.984 . S
N1761 C1754 1.356 . S
N1761 H1764 0.984 . S
N1761 H1765 0.985 . S
H1762 N1757 0.984 . S
H1763 N1757 0.985 . S
H1764 N1761 0.984 . S
H1765 N1761 0.985 . S
H1766 N1760 0.984 . S
H1767 N1760 0.984 . S
H1768 N1756 0.984 . S
H1769 N1756 0.985 . S
C1770 C1771 1.363 . S
C1770 C1776 1.379 . S
C1770 N1778 1.356 . S
C1771 C1770 1.363 . S
C1771 C1777 1.363 . S
C1772 C1773 1.363 . S
C1772 C1777 1.379 . S
C1772 N1779 1.356 . S
C1773 C1772 1.363 . S
C1773 C1776 1.363 . S
N1774 C1776 1.356 1_455 S
N1774 H1786 0.984 . S
N1774 H1787 0.985 . S
N1775 C1777 1.356 . S
N1775 H1780 0.984 . S
N1775 H1781 0.985 . S
C1776 C1770 1.379 . S
C1776 C1773 1.363 . S
C1776 N1774 1.356 1_655 S
C1777 C1771 1.363 . S
C1777 C1772 1.379 . S
C1777 N1775 1.356 . S
N1778 C1770 1.356 . S
N1778 H1784 0.984 1_655 S
N1778 H1785 0.984 . S
N1779 C1772 1.356 . S
N1779 H1782 0.984 . S
N1779 H1783 0.985 . S
H1780 N1775 0.984 . S
H1781 N1775 0.985 . S
H1782 N1779 0.984 . S
H1783 N1779 0.985 . S
H1784 N1778 0.984 1_455 S
H1785 N1778 0.984 . S
H1786 N1774 0.984 . S
H1787 N1774 0.985 . S
C1788 C1789 1.363 . S
C1788 C1794 1.379 . S
C1788 N1796 1.356 . S
C1789 C1788 1.363 . S
C1789 C1795 1.363 . S
C1790 C1791 1.363 . S
C1790 C1795 1.379 . S
C1790 N1797 1.356 . S
C1791 C1790 1.363 . S
C1791 C1794 1.363 . S
N1792 C1794 1.356 . S
N1792 H1804 0.984 . S
N1792 H1805 0.985 . S
N1793 C1795 1.356 . S
N1793 H1798 0.984 . S
N1793 H1799 0.985 . S
C1794 C1788 1.379 . S
C1794 C1791 1.363 . S
C1794 N1792 1.356 . S
C1795 C1789 1.363 . S
C1795 C1790 1.379 . S
C1795 N1793 1.356 . S
N1796 C1788 1.356 . S
N1796 H1802 0.984 . S
N1796 H1803 0.984 . S
N1797 C1790 1.356 . S
N1797 H1800 0.984 . S
N1797 H1801 0.985 . S
H1798 N1793 0.984 . S
H1799 N1793 0.985 . S
H1800 N1797 0.984 . S
H1801 N1797 0.985 . S
H1802 N1796 0.984 . S
H1803 N1796 0.984 . S
H1804 N1792 0.984 . S
H1805 N1792 0.985 . S
C1806 C1807 1.363 . S
C1806 C1812 1.379 . S
C1806 N1814 1.356 . S
C1807 C1806 1.363 . S
C1807 C1813 1.363 . S
C1808 C1809 1.363 . S
C1808 C1813 1.379 . S
C1808 N1815 1.356 . S
C1809 C1808 1.363 . S
C1809 C1812 1.363 . S
N1810 C1812 1.356 . S
N1810 H1822 0.984 . S
N1810 H1823 0.985 . S
N1811 C1813 1.356 . S
N1811 H1816 0.984 . S
N1811 H1817 0.985 . S
C1812 C1806 1.379 . S
C1812 C1809 1.363 . S
C1812 N1810 1.356 . S
C1813 C1807 1.363 . S
C1813 C1808 1.379 . S
C1813 N1811 1.356 . S
N1814 C1806 1.356 . S
N1814 H1820 0.984 . S
N1814 H1821 0.984 . S
N1815 C1808 1.356 . S
N1815 H1818 0.984 . S
N1815 H1819 0.985 . S
H1816 N1811 0.984 . S
H1817 N1811 0.985 . S
H1818 N1815 0.984 . S
H1819 N1815 0.985 . S
H1820 N1814 0.984 . S
H1821 N1814 0.984 . S
H1822 N1810 0.984 . S
H1823 N1810 0.985 . S
C1824 C1825 1.363 . S
C1824 C1830 1.379 . S
C1824 N1832 1.356 . S
C1825 C1824 1.363 . S
C1825 C1831 1.363 . S
C1826 C1827 1.363 . S
C1826 C1831 1.379 . S
C1826 N1833 1.356 . S
C1827 C1826 1.363 . S
C1827 C1830 1.363 . S
N1828 C1830 1.356 . S
N1828 H1840 0.984 . S
N1828 H1841 0.985 . S
N1829 C1831 1.356 . S
N1829 H1834 0.984 . S
N1829 H1835 0.985 . S
C1830 C1824 1.379 . S
C1830 C1827 1.363 . S
C1830 N1828 1.356 . S
C1831 C1825 1.363 . S
C1831 C1826 1.379 . S
C1831 N1829 1.356 . S
N1832 C1824 1.356 . S
N1832 H1838 0.984 . S
N1832 H1839 0.984 . S
N1833 C1826 1.356 . S
N1833 H1836 0.984 . S
N1833 H1837 0.985 . S
H1834 N1829 0.984 . S
H1835 N1829 0.985 . S
H1836 N1833 0.984 . S
H1837 N1833 0.985 . S
H1838 N1832 0.984 . S
H1839 N1832 0.984 . S
H1840 N1828 0.984 . S
H1841 N1828 0.985 . S
C1842 C1843 1.363 . S
C1842 C1848 1.379 . S
C1842 N1850 1.356 . S
C1843 C1842 1.363 . S
C1843 C1849 1.363 . S
C1844 C1845 1.363 . S
C1844 C1849 1.379 . S
C1844 N1851 1.356 . S
C1845 C1844 1.363 . S
C1845 C1848 1.363 . S
N1846 C1848 1.356 . S
N1846 H1858 0.984 . S
N1846 H1859 0.985 . S
N1847 C1849 1.356 . S
N1847 H1852 0.984 . S
N1847 H1853 0.985 . S
C1848 C1842 1.379 . S
C1848 C1845 1.363 . S
C1848 N1846 1.356 . S
C1849 C1843 1.363 . S
C1849 C1844 1.379 . S
C1849 N1847 1.356 . S
N1850 C1842 1.356 . S
N1850 H1856 0.984 . S
N1850 H1857 0.984 . S
N1851 C1844 1.356 . S
N1851 H1854 0.984 . S
N1851 H1855 0.985 . S
H1852 N1847 0.984 . S
H1853 N1847 0.985 . S
H1854 N1851 0.984 . S
H1855 N1851 0.985 . S
H1856 N1850 0.984 . S
H1857 N1850 0.984 . S
H1858 N1846 0.984 . S
H1859 N1846 0.985 . S
C1860 C1861 1.363 . S
C1860 C1866 1.379 . S
C1860 N1868 1.356 . S
C1861 C1860 1.363 . S
C1861 C1867 1.363 . S
C1862 C1863 1.363 . S
C1862 C1867 1.379 . S
C1862 N1869 1.356 . S
C1863 C1862 1.363 . S
C1863 C1866 1.363 . S
N1864 C1866 1.356 . S
N1864 H1876 0.984 1_545 S
N1864 H1877 0.985 . S
N1865 C1867 1.356 . S
N1865 H1870 0.984 . S
N1865 H1871 0.985 . S
C1866 C1860 1.379 . S
C1866 C1863 1.363 . S
C1866 N1864 1.356 . S
C1867 C1861 1.363 . S
C1867 C1862 1.379 . S
C1867 N1865 1.356 . S
N1868 C1860 1.356 . S
N1868 H1874 0.984 . S
N1868 H1875 0.984 . S
N1869 C1862 1.356 . S
N1869 H1872 0.984 . S
N1869 H1873 0.985 . S
H1870 N1865 0.984 . S
H1871 N1865 0.985 . S
H1872 N1869 0.984 . S
H1873 N1869 0.985 . S
H1874 N1868 0.984 . S
H1875 N1868 0.984 . S
H1876 N1864 0.984 1_565 S
H1877 N1864 0.985 . S
C1878 C1879 1.363 . S
C1878 C1884 1.379 . S
C1878 N1886 1.356 . S
C1879 C1878 1.363 . S
C1879 C1885 1.363 . S
C1880 C1881 1.363 . S
C1880 C1885 1.379 . S
C1880 N1887 1.356 . S
C1881 C1880 1.363 . S
C1881 C1884 1.363 . S
N1882 C1884 1.356 . S
N1882 H1894 0.984 . S
N1882 H1895 0.985 . S
N1883 C1885 1.356 . S
N1883 H1888 0.984 . S
N1883 H1889 0.985 . S
C1884 C1878 1.379 . S
C1884 C1881 1.363 . S
C1884 N1882 1.356 . S
C1885 C1879 1.363 . S
C1885 C1880 1.379 . S
C1885 N1883 1.356 . S
N1886 C1878 1.356 . S
N1886 H1892 0.984 . S
N1886 H1893 0.984 . S
N1887 C1880 1.356 . S
N1887 H1890 0.984 . S
N1887 H1891 0.985 . S
H1888 N1883 0.984 . S
H1889 N1883 0.985 . S
H1890 N1887 0.984 . S
H1891 N1887 0.985 . S
H1892 N1886 0.984 . S
H1893 N1886 0.984 . S
H1894 N1882 0.984 . S
H1895 N1882 0.985 . S
C1896 C1897 1.363 . S
C1896 C1902 1.379 . S
C1896 N1904 1.356 . S
C1897 C1896 1.363 . S
C1897 C1903 1.363 . S
C1898 C1899 1.363 . S
C1898 C1903 1.379 . S
C1898 N1905 1.356 . S
C1899 C1898 1.363 . S
C1899 C1902 1.363 . S
N1900 C1902 1.356 . S
N1900 H1912 0.984 . S
N1900 H1913 0.985 . S
N1901 C1903 1.356 . S
N1901 H1906 0.984 . S
N1901 H1907 0.985 . S
C1902 C1896 1.379 . S
C1902 C1899 1.363 . S
C1902 N1900 1.356 . S
C1903 C1897 1.363 . S
C1903 C1898 1.379 . S
C1903 N1901 1.356 . S
N1904 C1896 1.356 . S
N1904 H1910 0.984 . S
N1904 H1911 0.984 . S
N1905 C1898 1.356 . S
N1905 H1908 0.984 . S
N1905 H1909 0.985 . S
H1906 N1901 0.984 . S
H1907 N1901 0.985 . S
H1908 N1905 0.984 . S
H1909 N1905 0.985 . S
H1910 N1904 0.984 . S
H1911 N1904 0.984 . S
H1912 N1900 0.984 . S
H1913 N1900 0.985 . S
C1914 C1915 1.363 . S
C1914 C1920 1.379 . S
C1914 N1922 1.356 . S
C1915 C1914 1.363 . S
C1915 C1921 1.363 . S
C1916 C1917 1.363 . S
C1916 C1921 1.379 . S
C1916 N1923 1.356 . S
C1917 C1916 1.363 . S
C1917 C1920 1.363 . S
N1918 C1920 1.356 . S
N1918 H1930 0.984 . S
N1918 H1931 0.985 . S
N1919 C1921 1.356 . S
N1919 H1924 0.984 . S
N1919 H1925 0.985 . S
C1920 C1914 1.379 . S
C1920 C1917 1.363 . S
C1920 N1918 1.356 . S
C1921 C1915 1.363 . S
C1921 C1916 1.379 . S
C1921 N1919 1.356 . S
N1922 C1914 1.356 . S
N1922 H1928 0.984 . S
N1922 H1929 0.984 . S
N1923 C1916 1.356 . S
N1923 H1926 0.984 . S
N1923 H1927 0.985 . S
H1924 N1919 0.984 . S
H1925 N1919 0.985 . S
H1926 N1923 0.984 . S
H1927 N1923 0.985 . S
H1928 N1922 0.984 . S
H1929 N1922 0.984 . S
H1930 N1918 0.984 . S
H1931 N1918 0.985 . S
C1932 C1933 1.363 . S
C1932 C1938 1.379 . S
C1932 N1940 1.356 . S
C1933 C1932 1.363 . S
C1933 C1939 1.363 . S
C1934 C1935 1.363 . S
C1934 C1939 1.379 . S
C1934 N1941 1.356 . S
C1935 C1934 1.363 . S
C1935 C1938 1.363 . S
N1936 C1938 1.356 . S
N1936 H1948 0.964 1_565 S
N1936 H1949 0.985 . S
N1937 C1939 1.356 . S
N1937 H1942 0.984 . S
N1937 H1943 0.985 . S
C1938 C1932 1.379 . S
C1938 C1935 1.363 . S
C1938 N1936 1.356 . S
C1939 C1933 1.363 . S
C1939 C1934 1.379 . S
C1939 N1937 1.356 . S
N1940 C1932 1.356 . S
N1940 H1946 0.984 . S
N1940 H1947 0.984 . S
N1941 C1934 1.356 . S
N1941 H1944 0.984 . S
N1941 H1945 0.985 . S
H1942 N1937 0.984 . S
H1943 N1937 0.985 . S
H1944 N1941 0.984 . S
H1945 N1941 0.985 . S
H1946 N1940 0.984 . S
H1947 N1940 0.984 . S
H1948 N1936 0.964 1_545 S
H1949 N1936 0.985 . S
C1950 C1951 1.363 . S
C1950 C1956 1.379 1_455 S
C1950 N1958 1.356 . S
C1951 C1950 1.363 . S
C1951 C1957 1.363 . S
C1952 C1953 1.363 . S
C1952 C1957 1.379 1_655 S
C1952 N1959 1.356 . S
C1953 C1952 1.363 . S
C1953 C1956 1.363 . S
N1954 C1956 1.356 . S
N1954 H1966 0.984 1_545 S
N1954 H1967 0.985 . S
N1955 C1957 1.356 . S
N1955 H1960 0.984 . S
N1955 H1961 0.985 . S
C1956 C1950 1.379 1_655 S
C1956 C1953 1.363 . S
C1956 N1954 1.356 . S
C1957 C1951 1.363 . S
C1957 C1952 1.379 1_455 S
C1957 N1955 1.356 . S
N1958 C1950 1.356 . S
N1958 H1964 0.984 . S
N1958 H1965 0.984 . S
N1959 C1952 1.356 . S
N1959 H1962 0.984 . S
N1959 H1963 0.985 . S
H1960 N1955 0.984 . S
H1961 N1955 0.985 . S
H1962 N1959 0.984 . S
H1963 N1959 0.985 . S
H1964 N1958 0.984 . S
H1965 N1958 0.984 . S
H1966 N1954 0.984 1_565 S
H1967 N1954 0.985 . S
C1968 C1969 1.363 . S
C1968 C1974 1.379 . S
C1968 N1976 1.356 . S
C1969 C1968 1.363 . S
C1969 C1975 1.363 . S
C1970 C1971 1.363 . S
C1970 C1975 1.379 . S
C1970 N1977 1.356 . S
C1971 C1970 1.363 . S
C1971 C1974 1.363 . S
N1972 C1974 1.356 . S
N1972 H1984 0.984 . S
N1972 H1985 0.985 . S
N1973 C1975 1.356 . S
N1973 H1978 0.984 . S
N1973 H1979 0.985 . S
C1974 C1968 1.379 . S
C1974 C1971 1.363 . S
C1974 N1972 1.356 . S
C1975 C1969 1.363 . S
C1975 C1970 1.379 . S
C1975 N1973 1.356 . S
N1976 C1968 1.356 . S
N1976 H1982 0.984 . S
N1976 H1983 0.984 . S
N1977 C1970 1.356 . S
N1977 H1980 0.984 . S
N1977 H1981 0.985 . S
H1978 N1973 0.984 . S
H1979 N1973 0.985 . S
H1980 N1977 0.984 . S
H1981 N1977 0.985 . S
H1982 N1976 0.984 . S
H1983 N1976 0.984 . S
H1984 N1972 0.984 . S
H1985 N1972 0.985 . S
C1986 C1987 1.363 . S
C1986 C1992 1.379 . S
C1986 N1994 1.356 . S
C1987 C1986 1.363 . S
C1987 C1993 1.363 . S
C1988 C1989 1.363 . S
C1988 C1993 1.379 . S
C1988 N1995 1.356 . S
C1989 C1988 1.363 . S
C1989 C1992 1.363 . S
N1990 C1992 1.356 . S
N1990 H2002 0.984 . S
N1990 H2003 0.985 . S
N1991 C1993 1.356 . S
N1991 H1996 0.984 . S
N1991 H1997 0.985 . S
C1992 C1986 1.379 . S
C1992 C1989 1.363 . S
C1992 N1990 1.356 . S
C1993 C1987 1.363 . S
C1993 C1988 1.379 . S
C1993 N1991 1.356 . S
N1994 C1986 1.356 . S
N1994 H2000 0.984 . S
N1994 H2001 0.984 . S
N1995 C1988 1.356 . S
N1995 H1998 0.984 . S
N1995 H1999 0.985 . S
H1996 N1991 0.984 . S
H1997 N1991 0.985 . S
H1998 N1995 0.984 . S
H1999 N1995 0.985 . S
H2000 N1994 0.984 . S
H2001 N1994 0.984 . S
H2002 N1990 0.984 . S
H2003 N1990 0.985 . S
C2004 C2005 1.363 . S
C2004 C2010 1.379 . S
C2004 N2012 1.356 . S
C2005 C2004 1.363 . S
C2005 C2011 1.363 . S
C2006 C2007 1.363 . S
C2006 C2011 1.379 . S
C2006 N2013 1.356 . S
C2007 C2006 1.363 . S
C2007 C2010 1.363 . S
N2008 C2010 1.356 . S
N2008 H2020 0.984 . S
N2008 H2021 0.985 . S
N2009 C2011 1.356 . S
N2009 H2014 0.984 . S
N2009 H2015 0.985 . S
C2010 C2004 1.379 . S
C2010 C2007 1.363 . S
C2010 N2008 1.356 . S
C2011 C2005 1.363 . S
C2011 C2006 1.379 . S
C2011 N2009 1.356 . S
N2012 C2004 1.356 . S
N2012 H2018 0.984 . S
N2012 H2019 0.984 . S
N2013 C2006 1.356 . S
N2013 H2016 0.984 . S
N2013 H2017 0.985 . S
H2014 N2009 0.984 . S
H2015 N2009 0.985 . S
H2016 N2013 0.984 . S
H2017 N2013 0.985 . S
H2018 N2012 0.984 . S
H2019 N2012 0.984 . S
H2020 N2008 0.984 . S
H2021 N2008 0.985 . S
C2022 C2023 1.363 . S
C2022 C2028 1.379 . S
C2022 N2030 1.356 . S
C2023 C2022 1.363 . S
C2023 C2029 1.363 . S
C2024 C2025 1.363 . S
C2024 C2029 1.379 . S
C2024 N2031 1.356 . S
C2025 C2024 1.363 . S
C2025 C2028 1.363 . S
N2026 C2028 1.356 . S
N2026 H2038 0.984 . S
N2026 H2039 0.985 . S
N2027 C2029 1.356 . S
N2027 H2032 0.984 . S
N2027 H2033 0.985 . S
C2028 C2022 1.379 . S
C2028 C2025 1.363 . S
C2028 N2026 1.356 . S
C2029 C2023 1.363 . S
C2029 C2024 1.379 . S
C2029 N2027 1.356 . S
N2030 C2022 1.356 . S
N2030 H2036 0.984 . S
N2030 H2037 0.984 . S
N2031 C2024 1.356 . S
N2031 H2034 0.984 . S
N2031 H2035 0.985 . S
H2032 N2027 0.984 . S
H2033 N2027 0.985 . S
H2034 N2031 0.984 . S
H2035 N2031 0.985 . S
H2036 N2030 0.984 . S
H2037 N2030 0.984 . S
H2038 N2026 0.984 . S
H2039 N2026 0.985 . S
C2040 C2041 1.363 . S
C2040 C2046 1.379 . S
C2040 N2048 1.356 . S
C2041 C2040 1.363 . S
C2041 C2047 1.363 . S
C2042 C2043 1.363 . S
C2042 C2047 1.379 . S
C2042 N2049 1.356 . S
C2043 C2042 1.363 . S
C2043 C2046 1.363 . S
N2044 C2046 1.356 . S
N2044 H2056 0.984 . S
N2044 H2057 0.985 . S
N2045 C2047 1.356 . S
N2045 H2050 0.984 . S
N2045 H2051 0.985 . S
C2046 C2040 1.379 . S
C2046 C2043 1.363 . S
C2046 N2044 1.356 . S
C2047 C2041 1.363 . S
C2047 C2042 1.379 . S
C2047 N2045 1.356 . S
N2048 C2040 1.356 . S
N2048 H2054 0.984 . S
N2048 H2055 0.984 . S
N2049 C2042 1.356 . S
N2049 H2052 0.984 . S
N2049 H2053 0.985 . S
H2050 N2045 0.984 . S
H2051 N2045 0.985 . S
H2052 N2049 0.984 . S
H2053 N2049 0.985 . S
H2054 N2048 0.984 . S
H2055 N2048 0.984 . S
H2056 N2044 0.984 . S
H2057 N2044 0.985 . S
C2058 C2059 1.363 . S
C2058 C2064 1.379 . S
C2058 N2066 1.356 . S
C2059 C2058 1.363 . S
C2059 C2065 1.363 . S
C2060 C2061 1.363 . S
C2060 C2065 1.379 . S
C2060 N2067 1.356 . S
C2061 C2060 1.363 . S
C2061 C2064 1.363 . S
N2062 C2064 1.356 . S
N2062 H2074 0.984 . S
N2062 H2075 0.985 . S
N2063 C2065 1.356 . S
N2063 H2068 0.984 . S
N2063 H2069 0.985 . S
C2064 C2058 1.379 . S
C2064 C2061 1.363 . S
C2064 N2062 1.356 . S
C2065 C2059 1.363 . S
C2065 C2060 1.379 . S
C2065 N2063 1.356 . S
N2066 C2058 1.356 . S
N2066 H2072 0.984 . S
N2066 H2073 0.984 . S
N2067 C2060 1.356 . S
N2067 H2070 0.984 . S
N2067 H2071 0.985 . S
H2068 N2063 0.984 . S
H2069 N2063 0.985 . S
H2070 N2067 0.984 . S
H2071 N2067 0.985 . S
H2072 N2066 0.984 . S
H2073 N2066 0.984 . S
H2074 N2062 0.984 . S
H2075 N2062 0.985 . S
C2076 C2077 1.363 . S
C2076 C2082 1.379 . S
C2076 N2084 1.356 . S
C2077 C2076 1.363 . S
C2077 C2083 1.363 . S
C2078 C2079 1.363 . S
C2078 C2083 1.379 . S
C2078 N2085 1.356 . S
C2079 C2078 1.363 . S
C2079 C2082 1.363 . S
N2080 C2082 1.356 . S
N2080 H2092 0.984 . S
N2080 H2093 0.985 . S
N2081 C2083 1.356 . S
N2081 H2086 0.984 . S
N2081 H2087 0.985 . S
C2082 C2076 1.379 . S
C2082 C2079 1.363 . S
C2082 N2080 1.356 . S
C2083 C2077 1.363 . S
C2083 C2078 1.379 . S
C2083 N2081 1.356 . S
N2084 C2076 1.356 . S
N2084 H2090 0.984 . S
N2084 H2091 0.984 . S
N2085 C2078 1.356 . S
N2085 H2088 0.984 . S
N2085 H2089 0.985 . S
H2086 N2081 0.984 . S
H2087 N2081 0.985 . S
H2088 N2085 0.984 . S
H2089 N2085 0.985 . S
H2090 N2084 0.984 . S
H2091 N2084 0.984 . S
H2092 N2080 0.984 . S
H2093 N2080 0.985 . S
C2094 C2095 1.363 . S
C2094 C2100 1.379 . S
C2094 N2102 1.356 . S
C2095 C2094 1.363 . S
C2095 C2101 1.363 . S
C2096 C2097 1.363 . S
C2096 C2101 1.379 . S
C2096 N2103 1.356 . S
C2097 C2096 1.363 . S
C2097 C2100 1.363 . S
N2098 C2100 1.356 . S
N2098 H2110 0.984 . S
N2098 H2111 0.985 . S
N2099 C2101 1.356 . S
N2099 H2104 0.984 . S
N2099 H2105 0.985 . S
C2100 C2094 1.379 . S
C2100 C2097 1.363 . S
C2100 N2098 1.356 . S
C2101 C2095 1.363 . S
C2101 C2096 1.379 . S
C2101 N2099 1.356 . S
N2102 C2094 1.356 . S
N2102 H2108 0.984 . S
N2102 H2109 0.984 . S
N2103 C2096 1.356 . S
N2103 H2106 0.984 . S
N2103 H2107 0.985 . S
H2104 N2099 0.984 . S
H2105 N2099 0.985 . S
H2106 N2103 0.984 . S
H2107 N2103 0.985 . S
H2108 N2102 0.984 . S
H2109 N2102 0.984 . S
H2110 N2098 0.984 . S
H2111 N2098 0.985 . S
C2112 C2113 1.363 . S
C2112 C2118 1.379 . S
C2112 N2120 1.356 . S
C2113 C2112 1.363 . S
C2113 C2119 1.363 . S
C2114 C2115 1.363 . S
C2114 C2119 1.379 . S
C2114 N2121 1.356 . S
C2115 C2114 1.363 . S
C2115 C2118 1.363 . S
N2116 C2118 1.356 . S
N2116 H2128 0.984 . S
N2116 H2129 0.985 . S
N2117 C2119 1.356 . S
N2117 H2122 0.984 . S
N2117 H2123 0.985 . S
C2118 C2112 1.379 . S
C2118 C2115 1.363 . S
C2118 N2116 1.356 . S
C2119 C2113 1.363 . S
C2119 C2114 1.379 . S
C2119 N2117 1.356 . S
N2120 C2112 1.356 . S
N2120 H2126 0.984 . S
N2120 H2127 0.984 . S
N2121 C2114 1.356 . S
N2121 H2124 0.984 . S
N2121 H2125 0.985 . S
H2122 N2117 0.984 . S
H2123 N2117 0.985 . S
H2124 N2121 0.984 . S
H2125 N2121 0.985 . S
H2126 N2120 0.984 . S
H2127 N2120 0.984 . S
H2128 N2116 0.984 . S
H2129 N2116 0.985 . S
C2130 C2131 1.363 . S
C2130 C2136 1.379 . S
C2130 N2138 1.356 . S
C2131 C2130 1.363 . S
C2131 C2137 1.363 . S
C2132 C2133 1.363 . S
C2132 C2137 1.379 . S
C2132 N2139 1.356 . S
C2133 C2132 1.363 . S
C2133 C2136 1.363 . S
N2134 C2136 1.356 . S
N2134 H2146 0.984 . S
N2134 H2147 0.985 . S
N2135 C2137 1.356 . S
N2135 H2140 0.984 . S
N2135 H2141 0.985 . S
C2136 C2130 1.379 . S
C2136 C2133 1.363 . S
C2136 N2134 1.356 . S
C2137 C2131 1.363 . S
C2137 C2132 1.379 . S
C2137 N2135 1.356 . S
N2138 C2130 1.356 . S
N2138 H2144 0.984 . S
N2138 H2145 0.984 . S
N2139 C2132 1.356 . S
N2139 H2142 0.984 . S
N2139 H2143 0.985 . S
H2140 N2135 0.984 . S
H2141 N2135 0.985 . S
H2142 N2139 0.984 . S
H2143 N2139 0.985 . S
H2144 N2138 0.984 . S
H2145 N2138 0.984 . S
H2146 N2134 0.984 . S
H2147 N2134 0.985 . S
C2148 C2149 1.363 . S
C2148 C2154 1.379 . S
C2148 N2156 1.356 . S
C2149 C2148 1.363 . S
C2149 C2155 1.363 . S
C2150 C2151 1.363 . S
C2150 C2155 1.379 . S
C2150 N2157 1.356 . S
C2151 C2150 1.363 . S
C2151 C2154 1.363 . S
N2152 C2154 1.356 . S
N2152 H2164 0.984 . S
N2152 H2165 0.985 . S
N2153 C2155 1.356 . S
N2153 H2158 0.984 . S
N2153 H2159 0.985 . S
C2154 C2148 1.379 . S
C2154 C2151 1.363 . S
C2154 N2152 1.356 . S
C2155 C2149 1.363 . S
C2155 C2150 1.379 . S
C2155 N2153 1.356 . S
N2156 C2148 1.356 . S
N2156 H2162 0.984 . S
N2156 H2163 0.984 . S
N2157 C2150 1.356 . S
N2157 H2160 0.984 . S
N2157 H2161 0.985 . S
H2158 N2153 0.984 . S
H2159 N2153 0.985 . S
H2160 N2157 0.984 . S
H2161 N2157 0.985 . S
H2162 N2156 0.984 . S
H2163 N2156 0.984 . S
H2164 N2152 0.984 . S
H2165 N2152 0.985 . S
C2166 C2167 1.363 . S
C2166 C2172 1.379 . S
C2166 N2174 1.356 . S
C2167 C2166 1.363 . S
C2167 C2173 1.363 . S
C2168 C2169 1.363 . S
C2168 C2173 1.379 . S
C2168 N2175 1.356 . S
C2169 C2168 1.363 . S
C2169 C2172 1.363 . S
N2170 C2172 1.356 . S
N2170 H2182 0.984 . S
N2170 H2183 0.985 . S
N2171 C2173 1.356 . S
N2171 H2176 0.984 . S
N2171 H2177 0.985 . S
C2172 C2166 1.379 . S
C2172 C2169 1.363 . S
C2172 N2170 1.356 . S
C2173 C2167 1.363 . S
C2173 C2168 1.379 . S
C2173 N2171 1.356 . S
N2174 C2166 1.356 . S
N2174 H2180 0.984 . S
N2174 H2181 0.984 . S
N2175 C2168 1.356 . S
N2175 H2178 0.984 . S
N2175 H2179 0.985 . S
H2176 N2171 0.984 . S
H2177 N2171 0.985 . S
H2178 N2175 0.984 . S
H2179 N2175 0.985 . S
H2180 N2174 0.984 . S
H2181 N2174 0.984 . S
H2182 N2170 0.984 . S
H2183 N2170 0.985 . S
C2184 C2185 1.363 . S
C2184 C2190 1.379 . S
C2184 N2192 1.356 . S
C2185 C2184 1.363 . S
C2185 C2191 1.363 . S
C2186 C2187 1.363 . S
C2186 C2191 1.379 . S
C2186 N2193 1.356 . S
C2187 C2186 1.363 . S
C2187 C2190 1.363 . S
N2188 C2190 1.356 . S
N2188 H2200 0.984 . S
N2188 H2201 0.985 . S
N2189 C2191 1.356 . S
N2189 H2194 0.984 . S
N2189 H2195 0.985 . S
C2190 C2184 1.379 . S
C2190 C2187 1.363 . S
C2190 N2188 1.356 . S
C2191 C2185 1.363 . S
C2191 C2186 1.379 . S
C2191 N2189 1.356 . S
N2192 C2184 1.356 . S
N2192 H2198 0.984 . S
N2192 H2199 0.984 . S
N2193 C2186 1.356 . S
N2193 H2196 0.984 . S
N2193 H2197 0.985 . S
H2194 N2189 0.984 . S
H2195 N2189 0.985 . S
H2196 N2193 0.984 . S
H2197 N2193 0.985 . S
H2198 N2192 0.984 . S
H2199 N2192 0.984 . S
H2200 N2188 0.984 . S
H2201 N2188 0.985 . S
C2202 C2203 1.363 . S
C2202 C2208 1.379 . S
C2202 N2210 1.356 . S
C2203 C2202 1.363 . S
C2203 C2209 1.363 . S
C2204 C2205 1.363 . S
C2204 C2209 1.379 . S
C2204 N2211 1.356 . S
C2205 C2204 1.363 . S
C2205 C2208 1.363 . S
N2206 C2208 1.356 . S
N2206 H2218 0.984 . S
N2206 H2219 0.985 . S
N2207 C2209 1.356 . S
N2207 H2212 0.984 . S
N2207 H2213 0.985 . S
C2208 C2202 1.379 . S
C2208 C2205 1.363 . S
C2208 N2206 1.356 . S
C2209 C2203 1.363 . S
C2209 C2204 1.379 . S
C2209 N2207 1.356 . S
N2210 C2202 1.356 . S
N2210 H2216 0.984 . S
N2210 H2217 0.984 . S
N2211 C2204 1.356 . S
N2211 H2214 0.984 . S
N2211 H2215 0.985 . S
H2212 N2207 0.984 . S
H2213 N2207 0.985 . S
H2214 N2211 0.984 . S
H2215 N2211 0.985 . S
H2216 N2210 0.984 . S
H2217 N2210 0.984 . S
H2218 N2206 0.984 . S
H2219 N2206 0.985 . S
C2220 C2221 1.363 . S
C2220 C2226 1.379 . S
C2220 N2228 1.356 . S
C2221 C2220 1.363 . S
C2221 C2227 1.363 . S
C2222 C2223 1.363 . S
C2222 C2227 1.379 . S
C2222 N2229 1.356 . S
C2223 C2222 1.363 . S
C2223 C2226 1.363 . S
N2224 C2226 1.356 . S
N2224 H2236 0.984 . S
N2224 H2237 0.985 . S
N2225 C2227 1.356 . S
N2225 H2230 0.984 . S
N2225 H2231 0.985 . S
C2226 C2220 1.379 . S
C2226 C2223 1.363 . S
C2226 N2224 1.356 . S
C2227 C2221 1.363 . S
C2227 C2222 1.379 . S
C2227 N2225 1.356 . S
N2228 C2220 1.356 . S
N2228 H2234 0.984 . S
N2228 H2235 0.984 . S
N2229 C2222 1.356 . S
N2229 H2232 0.984 . S
N2229 H2233 0.985 . S
H2230 N2225 0.984 . S
H2231 N2225 0.985 . S
H2232 N2229 0.984 . S
H2233 N2229 0.985 . S
H2234 N2228 0.984 . S
H2235 N2228 0.984 . S
H2236 N2224 0.984 . S
H2237 N2224 0.985 . S
C2238 C2239 1.363 . S
C2238 C2244 1.379 . S
C2238 N2246 1.356 . S
C2239 C2238 1.363 . S
C2239 C2245 1.363 . S
C2240 C2241 1.363 . S
C2240 C2245 1.379 . S
C2240 N2247 1.356 . S
C2241 C2240 1.363 . S
C2241 C2244 1.363 . S
N2242 C2244 1.356 . S
N2242 H2254 0.984 . S
N2242 H2255 0.985 . S
N2243 C2245 1.356 . S
N2243 H2248 0.984 . S
N2243 H2249 0.985 . S
C2244 C2238 1.379 . S
C2244 C2241 1.363 . S
C2244 N2242 1.356 . S
C2245 C2239 1.363 . S
C2245 C2240 1.379 . S
C2245 N2243 1.356 . S
N2246 C2238 1.356 . S
N2246 H2252 0.984 . S
N2246 H2253 0.984 . S
N2247 C2240 1.356 . S
N2247 H2250 0.984 . S
N2247 H2251 0.985 . S
H2248 N2243 0.984 . S
H2249 N2243 0.985 . S
H2250 N2247 0.984 . S
H2251 N2247 0.985 . S
H2252 N2246 0.984 . S
H2253 N2246 0.984 . S
H2254 N2242 0.984 . S
H2255 N2242 0.985 . S
C2256 C2257 1.363 . S
C2256 C2262 1.379 . S
C2256 N2264 1.356 . S
C2257 C2256 1.363 . S
C2257 C2263 1.363 . S
C2258 C2259 1.363 . S
C2258 C2263 1.379 . S
C2258 N2265 1.356 . S
C2259 C2258 1.363 . S
C2259 C2262 1.363 . S
N2260 C2262 1.356 . S
N2260 H2272 0.984 . S
N2260 H2273 0.985 . S
N2261 C2263 1.356 . S
N2261 H2266 0.984 . S
N2261 H2267 0.985 . S
C2262 C2256 1.379 . S
C2262 C2259 1.363 . S
C2262 N2260 1.356 . S
C2263 C2257 1.363 . S
C2263 C2258 1.379 . S
C2263 N2261 1.356 . S
N2264 C2256 1.356 . S
N2264 H2270 0.984 . S
N2264 H2271 0.984 . S
N2265 C2258 1.356 . S
N2265 H2268 0.984 . S
N2265 H2269 0.985 . S
H2266 N2261 0.984 . S
H2267 N2261 0.985 . S
H2268 N2265 0.984 . S
H2269 N2265 0.985 . S
H2270 N2264 0.984 . S
H2271 N2264 0.984 . S
H2272 N2260 0.984 . S
H2273 N2260 0.985 . S
C2274 C2275 1.363 . S
C2274 C2280 1.379 . S
C2274 N2282 1.356 . S
C2275 C2274 1.363 . S
C2275 C2281 1.363 . S
C2276 C2277 1.363 . S
C2276 C2281 1.379 . S
C2276 N2283 1.356 . S
C2277 C2276 1.363 . S
C2277 C2280 1.363 . S
N2278 C2280 1.356 . S
N2278 H2290 0.984 . S
N2278 H2291 0.985 . S
N2279 C2281 1.356 . S
N2279 H2284 0.984 . S
N2279 H2285 0.985 . S
C2280 C2274 1.379 . S
C2280 C2277 1.363 . S
C2280 N2278 1.356 . S
C2281 C2275 1.363 . S
C2281 C2276 1.379 . S
C2281 N2279 1.356 . S
N2282 C2274 1.356 . S
N2282 H2288 0.984 . S
N2282 H2289 0.984 . S
N2283 C2276 1.356 . S
N2283 H2286 0.984 . S
N2283 H2287 0.985 . S
H2284 N2279 0.984 . S
H2285 N2279 0.985 . S
H2286 N2283 0.984 . S
H2287 N2283 0.985 . S
H2288 N2282 0.984 . S
H2289 N2282 0.984 . S
H2290 N2278 0.984 . S
H2291 N2278 0.985 . S
C2292 C2293 1.363 . S
C2292 C2298 1.379 . S
C2292 N2300 1.356 . S
C2293 C2292 1.363 . S
C2293 C2299 1.363 . S
C2294 C2295 1.363 . S
C2294 C2299 1.379 . S
C2294 N2301 1.356 . S
C2295 C2294 1.363 . S
C2295 C2298 1.363 . S
N2296 C2298 1.356 . S
N2296 H2308 0.984 . S
N2296 H2309 0.985 . S
N2297 C2299 1.356 . S
N2297 H2302 0.984 . S
N2297 H2303 0.985 . S
C2298 C2292 1.379 . S
C2298 C2295 1.363 . S
C2298 N2296 1.356 . S
C2299 C2293 1.363 . S
C2299 C2294 1.379 . S
C2299 N2297 1.356 . S
N2300 C2292 1.356 . S
N2300 H2306 0.984 . S
N2300 H2307 0.984 . S
N2301 C2294 1.356 . S
N2301 H2304 0.984 . S
N2301 H2305 0.985 . S
H2302 N2297 0.984 . S
H2303 N2297 0.985 . S
H2304 N2301 0.984 . S
H2305 N2301 0.985 . S
H2306 N2300 0.984 . S
H2307 N2300 0.984 . S
H2308 N2296 0.984 . S
H2309 N2296 0.985 . S
C2310 C2311 1.363 . S
C2310 C2316 1.379 . S
C2310 N2318 1.356 . S
C2311 C2310 1.363 . S
C2311 C2317 1.363 . S
C2312 C2313 1.363 . S
C2312 C2317 1.379 . S
C2312 N2319 1.356 . S
C2313 C2312 1.363 . S
C2313 C2316 1.363 . S
N2314 C2316 1.356 . S
N2314 H2326 0.984 . S
N2314 H2327 0.985 . S
N2315 C2317 1.356 . S
N2315 H2320 0.984 . S
N2315 H2321 0.985 . S
C2316 C2310 1.379 . S
C2316 C2313 1.363 . S
C2316 N2314 1.356 . S
C2317 C2311 1.363 . S
C2317 C2312 1.379 . S
C2317 N2315 1.356 . S
N2318 C2310 1.356 . S
N2318 H2324 0.984 . S
N2318 H2325 0.984 . S
N2319 C2312 1.356 . S
N2319 H2322 0.984 . S
N2319 H2323 0.985 . S
H2320 N2315 0.984 . S
H2321 N2315 0.985 . S
H2322 N2319 0.984 . S
H2323 N2319 0.985 . S
H2324 N2318 0.984 . S
H2325 N2318 0.984 . S
H2326 N2314 0.984 . S
H2327 N2314 0.985 . S
C2328 C2329 1.363 . S
C2328 C2334 1.379 . S
C2328 N2336 1.356 . S
C2329 C2328 1.363 . S
C2329 C2335 1.363 . S
C2330 C2331 1.363 . S
C2330 C2335 1.379 . S
C2330 N2337 1.356 . S
C2331 C2330 1.363 . S
C2331 C2334 1.363 . S
N2332 C2334 1.356 . S
N2332 H2344 0.984 . S
N2332 H2345 0.985 . S
N2333 C2335 1.356 . S
N2333 H2338 0.984 . S
N2333 H2339 0.985 . S
C2334 C2328 1.379 . S
C2334 C2331 1.363 . S
C2334 N2332 1.356 . S
C2335 C2329 1.363 . S
C2335 C2330 1.379 . S
C2335 N2333 1.356 . S
N2336 C2328 1.356 . S
N2336 H2342 0.984 . S
N2336 H2343 0.984 . S
N2337 C2330 1.356 . S
N2337 H2340 0.984 . S
N2337 H2341 0.985 . S
H2338 N2333 0.984 . S
H2339 N2333 0.985 . S
H2340 N2337 0.984 . S
H2341 N2337 0.985 . S
H2342 N2336 0.984 . S
H2343 N2336 0.984 . S
H2344 N2332 0.984 . S
H2345 N2332 0.985 . S
C2346 C2347 1.363 . S
C2346 C2352 1.379 . S
C2346 N2354 1.356 . S
C2347 C2346 1.363 . S
C2347 C2353 1.363 . S
C2348 C2349 1.363 . S
C2348 C2353 1.379 . S
C2348 N2355 1.356 . S
C2349 C2348 1.363 . S
C2349 C2352 1.363 . S
N2350 C2352 1.356 . S
N2350 H2362 0.984 . S
N2350 H2363 0.985 . S
N2351 C2353 1.356 . S
N2351 H2356 0.984 . S
N2351 H2357 0.985 . S
C2352 C2346 1.379 . S
C2352 C2349 1.363 . S
C2352 N2350 1.356 . S
C2353 C2347 1.363 . S
C2353 C2348 1.379 . S
C2353 N2351 1.356 . S
N2354 C2346 1.356 . S
N2354 H2360 0.984 . S
N2354 H2361 0.984 . S
N2355 C2348 1.356 . S
N2355 H2358 0.984 . S
N2355 H2359 0.985 . S
H2356 N2351 0.984 . S
H2357 N2351 0.985 . S
H2358 N2355 0.984 . S
H2359 N2355 0.985 . S
H2360 N2354 0.984 . S
H2361 N2354 0.984 . S
H2362 N2350 0.984 . S
H2363 N2350 0.985 . S
C2364 C2365 1.363 . S
C2364 C2370 1.379 . S
C2364 N2372 1.356 . S
C2365 C2364 1.363 . S
C2365 C2371 1.363 . S
C2366 C2367 1.363 . S
C2366 C2371 1.379 . S
C2366 N2373 1.356 . S
C2367 C2366 1.363 . S
C2367 C2370 1.363 . S
N2368 C2370 1.356 . S
N2368 H2380 0.984 . S
N2368 H2381 0.985 . S
N2369 C2371 1.356 . S
N2369 H2374 0.984 . S
N2369 H2375 0.985 . S
C2370 C2364 1.379 . S
C2370 C2367 1.363 . S
C2370 N2368 1.356 . S
C2371 C2365 1.363 . S
C2371 C2366 1.379 . S
C2371 N2369 1.356 . S
N2372 C2364 1.356 . S
N2372 H2378 0.984 . S
N2372 H2379 0.984 . S
N2373 C2366 1.356 . S
N2373 H2376 0.984 . S
N2373 H2377 0.985 . S
H2374 N2369 0.984 . S
H2375 N2369 0.985 . S
H2376 N2373 0.984 . S
H2377 N2373 0.985 . S
H2378 N2372 0.984 . S
H2379 N2372 0.984 . S
H2380 N2368 0.984 . S
H2381 N2368 0.985 . S
C2382 C2383 1.363 . S
C2382 C2388 1.379 . S
C2382 N2390 1.356 . S
C2383 C2382 1.363 . S
C2383 C2389 1.363 . S
C2384 C2385 1.363 . S
C2384 C2389 1.379 . S
C2384 N2391 1.356 . S
C2385 C2384 1.363 . S
C2385 C2388 1.363 . S
N2386 C2388 1.356 . S
N2386 H2398 0.984 . S
N2386 H2399 0.985 . S
N2387 C2389 1.356 . S
N2387 H2392 0.984 . S
N2387 H2393 0.985 . S
C2388 C2382 1.379 . S
C2388 C2385 1.363 . S
C2388 N2386 1.356 . S
C2389 C2383 1.363 . S
C2389 C2384 1.379 . S
C2389 N2387 1.356 . S
N2390 C2382 1.356 . S
N2390 H2396 0.984 . S
N2390 H2397 0.984 . S
N2391 C2384 1.356 . S
N2391 H2394 0.984 . S
N2391 H2395 0.985 . S
H2392 N2387 0.984 . S
H2393 N2387 0.985 . S
H2394 N2391 0.984 . S
H2395 N2391 0.985 . S
H2396 N2390 0.984 . S
H2397 N2390 0.984 . S
H2398 N2386 0.984 . S
H2399 N2386 0.985 . S
C673 C127 2.021 . S
C675 C1 2.021 . S
C691 C152 2.022 . S
C693 C14 2.022 . S
C709 C155 2.021 . S
C711 C40 2.022 . S
C727 C124 2.022 . S
C729 C54 2.022 . S
C745 C57 2.021 . S
C747 C223 2.021 . S
C763 C82 2.022 . S
C765 C168 2.022 . S
C781 C97 2.021 . S
C783 C194 2.022 . S
C799 C196 2.022 . S
C801 C98 2.022 . S
C817 C236 2.022 . S
C819 C264 2.022 . S
C835 C239 2.021 . S
C837 C656 2.022 . S
C853 C278 2.022 . S
C855 C658 2.022 . S
C871 C292 2.022 . S
C873 C631 2.021 . S
C889 C306 2.022 . S
C891 C616 2.022 . S
C907 C586 2.022 . S
C909 C308 2.022 . S
C925 C334 2.022 . S
C927 C603 2.021 . S
C943 C474 2.022 . S
C945 C349 2.021 . S
C961 C476 2.022 . S
C963 C350 2.022 . S
C979 C491 2.021 . S
C981 C376 2.022 . S
C997 C448 2.022 . S
C999 C378 2.022 . S
C1015 C559 2.021 . S
C1017 C405 2.021 . S
C1033 C504 2.022 . S
C1035 C418 2.022 . S
C1051 C421 2.021 . S
C1053 C531 2.021 . S
C1069 C435 2.021 . S
C1071 C532 2.022 . S
C1087 C561 2.021 . S
C1089 C600 2.022 . S
C1105 C224 1.306 . S
C1107 C0 1.342 . S
C1123 C670 1.306 . S
C1125 C15 1.340 . S
C1141 C41 1.340 . S
C1143 C294 1.306 . S
C1159 C644 1.306 . S
C1161 C55 1.340 . S
C1177 C56 1.341 . S
C1179 C574 1.306 . S
C1195 C588 1.306 . S
C1197 C83 1.340 . S
C1213 C96 1.341 . S
C1215 C615 1.304 . S
C1231 C280 1.306 . S
C1233 C99 1.340 . S
C1249 C125 1.340 . S
C1251 C13 1.304 . S
C1267 C26 1.306 . S
C1269 C126 1.341 . S
C1285 C153 1.340 . S
C1287 C28 1.306 . S
C1303 C42 1.306 . S
C1305 C154 1.342 . S
C1321 C169 1.340 . S
C1323 C69 1.304 . S
C1339 C70 1.306 . S
C1341 C195 1.340 . S
C1357 C197 1.340 . S
C1359 C85 1.304 . S
C1375 C222 1.341 . S
C1377 C110 1.306 . S
C1393 C237 1.340 . S
C1395 C112 1.306 . S
C1411 C238 1.341 . S
C1413 C516 1.306 . S
C1429 C519 1.304 . S
C1431 C265 1.340 . S
C1447 C544 1.306 . S
C1449 C279 1.340 . S
C1465 C211 1.304 . S
C1467 C293 1.340 . S
C1483 C307 1.340 . S
C1485 C140 1.306 . S
C1501 C503 1.304 . S
C1503 C309 1.340 . S
C1519 C335 1.340 . S
C1521 C462 1.306 . S
C1537 C348 1.341 . S
C1539 C573 1.304 . S
C1555 C351 1.340 . S
C1557 C322 1.306 . S
C1573 C377 1.340 . S
C1575 C643 1.304 . S
C1591 C379 1.340 . S
C1593 C320 1.306 . S
C1609 C404 1.341 . S
C1611 C251 1.304 . S
C1627 C419 1.340 . S
C1629 C252 1.306 . S
C1645 C266 1.306 . S
C1647 C420 1.341 . S
C1663 C628 1.306 . S
C1665 C434 1.341 . S
C1681 C337 1.304 . S
C1683 C449 1.340 . S
C1699 C362 1.306 . S
C1701 C475 1.340 . S
C1717 C477 1.340 . S
C1719 C364 1.306 . S
C1735 C390 1.306 . S
C1737 C490 1.341 . S
C1753 C505 1.340 . S
C1755 C393 1.304 . S
C1771 C530 1.341 . S
C1773 C406 1.306 . S
C1789 C533 1.340 . S
C1791 C433 1.304 . S
C1807 C447 1.304 . S
C1809 C558 1.341 . S
C1825 C560 1.341 . S
C1827 C460 1.306 . S
C1843 C587 1.340 . S
C1845 C180 1.306 . S
C1861 C182 1.306 . S
C1863 C601 1.340 . S
C1879 C602 1.342 . S
C1881 C208 1.306 . S
C1897 C617 1.340 . S
C1899 C547 1.304 . S
C1915 C488 1.306 . S
C1917 C630 1.341 . S
C1933 C167 1.304 . S
C1935 C657 1.340 . S
C1951 C139 1.304 . S
C1953 C659 1.340 . S
C1969 C321 1.640 . S
C1971 C12 1.641 . S
C1987 C27 1.639 . S
C1989 C572 1.641 . S
C2005 C29 1.639 . S
C2007 C323 1.639 . S
C2023 C642 1.641 . S
C2025 C43 1.640 . S
C2041 C68 1.641 . S
C2043 C253 1.640 . S
C2059 C267 1.639 . S
C2061 C71 1.639 . S
C2077 C629 1.639 . S
C2079 C84 1.641 . S
C2095 C111 1.640 . S
C2097 C250 1.641 . S
C2113 C183 1.640 . S
C2115 C113 1.640 . S
C2131 C138 1.641 . S
C2133 C209 1.640 . S
C2149 C210 1.641 . S
C2151 C141 1.640 . S
C2167 C166 1.641 . S
C2169 C181 1.640 . S
C2185 C363 1.640 . S
C2187 C225 1.640 . S
C2203 C281 1.640 . S
C2205 C432 1.641 . S
C2221 C295 1.639 . S
C2223 C391 1.639 . S
C2239 C645 1.639 . S
C2241 C336 1.641 . S
C2257 C365 1.640 . S
C2259 C671 1.640 . S
C2275 C392 1.641 . S
C2277 C589 1.639 . S
C2293 C407 1.640 . S
C2295 C614 1.641 . S
C2311 C575 1.640 . S
C2313 C446 1.641 . S
C2329 C518 1.641 . S
C2331 C461 1.639 . S
C2347 C463 1.639 . S
C2349 C545 1.639 . S
C2365 C489 1.640 . S
C2367 C546 1.641 . S
C2383 C517 1.639 . S
C2385 C502 1.641 . S
