# Generated by pormake.
# Topology umm, (4)-cn, num edge types: 1
# Building blocks:
#     Node 0, Type 0, BuildingBlock: NAWXER_clean_sbu_0, # of connection points: 4
#     Node 1, Type 0, BuildingBlock: NAWXER_clean_sbu_0, # of connection points: 4
#     Node 2, Type 0, BuildingBlock: NAWXER_clean_sbu_0, # of connection points: 4
#     Node 3, Type 0, BuildingBlock: NAWXER_clean_sbu_0, # of connection points: 4
#     Node 4, Type 0, BuildingBlock: NAWXER_clean_sbu_0, # of connection points: 4
#     Node 5, Type 0, BuildingBlock: NAWXER_clean_sbu_0, # of connection points: 4
#     Node 6, Type 0, BuildingBlock: NAWXER_clean_sbu_0, # of connection points: 4
#     Node 7, Type 0, BuildingBlock: NAWXER_clean_sbu_0, # of connection points: 4
#     Node 8, Type 0, BuildingBlock: NAWXER_clean_sbu_0, # of connection points: 4
#     Node 9, Type 0, BuildingBlock: NAWXER_clean_sbu_0, # of connection points: 4
#     Node 10, Type 0, BuildingBlock: NAWXER_clean_sbu_0, # of connection points: 4
#     Node 11, Type 0, BuildingBlock: NAWXER_clean_sbu_0, # of connection points: 4
#     Edge 12, Type (0, 0), BuildingBlock: EZIPEK_clean_linker_0, # of connection points: 2
#     Edge 13, Type (0, 0), BuildingBlock: EZIPEK_clean_linker_0, # of connection points: 2
#     Edge 14, Type (0, 0), BuildingBlock: EZIPEK_clean_linker_0, # of connection points: 2
#     Edge 15, Type (0, 0), BuildingBlock: EZIPEK_clean_linker_0, # of connection points: 2
#     Edge 16, Type (0, 0), BuildingBlock: EZIPEK_clean_linker_0, # of connection points: 2
#     Edge 17, Type (0, 0), BuildingBlock: EZIPEK_clean_linker_0, # of connection points: 2
#     Edge 18, Type (0, 0), BuildingBlock: EZIPEK_clean_linker_0, # of connection points: 2
#     Edge 19, Type (0, 0), BuildingBlock: EZIPEK_clean_linker_0, # of connection points: 2
#     Edge 20, Type (0, 0), BuildingBlock: EZIPEK_clean_linker_0, # of connection points: 2
#     Edge 21, Type (0, 0), BuildingBlock: EZIPEK_clean_linker_0, # of connection points: 2
#     Edge 22, Type (0, 0), BuildingBlock: EZIPEK_clean_linker_0, # of connection points: 2
#     Edge 23, Type (0, 0), BuildingBlock: EZIPEK_clean_linker_0, # of connection points: 2
#     Edge 24, Type (0, 0), BuildingBlock: EZIPEK_clean_linker_0, # of connection points: 2
#     Edge 25, Type (0, 0), BuildingBlock: EZIPEK_clean_linker_0, # of connection points: 2
#     Edge 26, Type (0, 0), BuildingBlock: EZIPEK_clean_linker_0, # of connection points: 2
#     Edge 27, Type (0, 0), BuildingBlock: EZIPEK_clean_linker_0, # of connection points: 2
#     Edge 28, Type (0, 0), BuildingBlock: EZIPEK_clean_linker_0, # of connection points: 2
#     Edge 29, Type (0, 0), BuildingBlock: EZIPEK_clean_linker_0, # of connection points: 2
#     Edge 30, Type (0, 0), BuildingBlock: EZIPEK_clean_linker_0, # of connection points: 2
#     Edge 31, Type (0, 0), BuildingBlock: EZIPEK_clean_linker_0, # of connection points: 2
#     Edge 32, Type (0, 0), BuildingBlock: EZIPEK_clean_linker_0, # of connection points: 2
#     Edge 33, Type (0, 0), BuildingBlock: EZIPEK_clean_linker_0, # of connection points: 2
#     Edge 34, Type (0, 0), BuildingBlock: EZIPEK_clean_linker_0, # of connection points: 2
#     Edge 35, Type (0, 0), BuildingBlock: EZIPEK_clean_linker_0, # of connection points: 2
# Relax obj value: 0.044
# Max RMSD: 0.162
# Mean RMSD: 0.161
data_MOF--net-umm--node1-NAWXER_clean_sbu_0--edge1-EZIPEK_clean_linker_0
_symmetry_space_group_name_H-M    P1
_symmetry_Int_Tables_number       1
_symmetry_cell_setting            triclinic
loop_
_symmetry_equiv_pos_as_xyz
'x, y, z'
_cell_length_a     41.229451
_cell_length_b     41.159417
_cell_length_c     21.128966
_cell_angle_alpha  89.992226
_cell_angle_beta   90.107111
_cell_angle_gamma 120.05749
loop_
_atom_site_label
_atom_site_type_symbol
_atom_site_fract_x
_atom_site_fract_y
_atom_site_fract_z
_atom_type_partial_charge
C0 C 0.31582 0.50916 0.05875 0.0
C1 C 0.43562 0.51699 0.09954 0.0
O2 O 0.34254 0.54324 0.06197 0.0
Zn3 Zn 0.40104 0.57196 0.08605 0.0
O4 O 0.32169 0.48278 0.07446 0.0
Zn5 Zn 0.37543 0.51321 0.08919 0.0
O6 O 0.38381 0.53903 0.18089 0.0
O7 O 0.40583 0.5991 0.16324 0.0
O8 O 0.40335 0.48772 0.09818 0.0
O9 O 0.43885 0.54966 0.09619 0.0
O10 O 0.42061 0.60078 0.01024 0.0
O11 O 0.39507 0.53929 0.99725 0.0
C12 C 0.39582 0.57233 0.20215 0.0
C13 C 0.41123 0.57262 0.97433 0.0
C14 C 0.85905 0.42097 0.32648 0.0
C15 C 0.84023 0.40265 0.55746 0.0
O16 O 0.873 0.40239 0.35133 0.0
Zn17 Zn 0.87453 0.37899 0.44113 0.0
O18 O 0.84165 0.43238 0.3617 0.0
Zn19 Zn 0.84834 0.41198 0.44077 0.0
O20 O 0.90855 0.44386 0.44825 0.0
O21 O 0.92885 0.40342 0.45188 0.0
O22 O 0.83205 0.42212 0.52112 0.0
O23 O 0.85433 0.38392 0.53299 0.0
O24 O 0.84523 0.32612 0.41747 0.0
O25 O 0.81103 0.35344 0.42001 0.0
C26 C 0.93569 0.43719 0.45176 0.0
C27 C 0.81386 0.32437 0.40846 0.0
C28 C 0.43525 0.84615 0.86505 0.0
C29 C 0.4324 0.85933 0.63671 0.0
O30 O 0.46791 0.85911 0.84043 0.0
Zn31 Zn 0.49234 0.874 0.74691 0.0
O32 O 0.40749 0.83893 0.82978 0.0
Zn33 Zn 0.43398 0.85348 0.75034 0.0
O34 O 0.44977 0.81148 0.73399 0.0
O35 O 0.51094 0.8395 0.73166 0.0
O36 O 0.40513 0.84775 0.67507 0.0
O37 O 0.46554 0.87002 0.65717 0.0
O38 O 0.52765 0.92777 0.75353 0.0
O39 O 0.4685 0.91377 0.75724 0.0
C40 C 0.4795 0.80929 0.72765 0.0
C41 C 0.50354 0.93829 0.75794 0.0
C42 C 0.59078 0.44432 0.97599 0.0
C43 C 0.60075 0.44101 0.20503 0.0
O44 O 0.60763 0.47733 1.00043 0.0
Zn45 Zn 0.62671 0.50201 0.09364 0.0
O46 O 0.57961 0.41573 0.01153 0.0
Zn47 Zn 0.59718 0.44285 0.08914 0.0
O48 O 0.56276 0.46886 0.09634 0.0
O49 O 0.60122 0.53031 0.10144 0.0
O50 O 0.58761 0.41398 0.166 0.0
O51 O 0.61593 0.47485 0.18456 0.0
O52 O 0.68111 0.52924 0.08323 0.0
O53 O 0.6558 0.46813 0.07127 0.0
C54 C 0.56809 0.50232 0.10063 0.0
C55 C 0.68451 0.50113 0.06884 0.0
C56 C 0.17837 0.58322 0.51919 0.0
C57 C 0.16359 0.57765 0.29074 0.0
O58 O 0.16337 0.60233 0.50025 0.0
Zn59 Zn 0.14877 0.61685 0.41045 0.0
O60 O 0.18874 0.56731 0.47917 0.0
Zn61 Zn 0.17199 0.58144 0.40433 0.0
O62 O 0.21149 0.64015 0.39242 0.0
O63 O 0.18118 0.67081 0.40166 0.0
O64 O 0.17715 0.56185 0.32472 0.0
O65 O 0.15174 0.59798 0.31642 0.0
O66 O 0.09546 0.59672 0.42067 0.0
O67 O 0.11172 0.55305 0.4161 0.0
C68 C 0.2119 0.67144 0.39203 0.0
C69 C 0.08644 0.56233 0.42183 0.0
C70 C 0.59048 0.18178 0.88211 0.0
C71 C 0.59374 0.17232 0.65421 0.0
O72 O 0.55721 0.16452 0.85883 0.0
Zn73 Zn 0.53269 0.15067 0.765 0.0
O74 O 0.61856 0.19492 0.8456 0.0
Zn75 Zn 0.59168 0.17796 0.76687 0.0
O76 O 0.56925 0.21439 0.7493 0.0
O77 O 0.50823 0.18022 0.75103 0.0
O78 O 0.62141 0.18734 0.69208 0.0
O79 O 0.5601 0.15768 0.67493 0.0
O80 O 0.50211 0.09643 0.76788 0.0
O81 O 0.56298 0.11689 0.77081 0.0
C82 C 0.53731 0.21223 0.74377 0.0
C83 C 0.52897 0.08964 0.77007 0.0
C84 C 0.42404 0.58452 0.70271 0.0
C85 C 0.41845 0.59465 0.47428 0.0
O86 O 0.45685 0.60372 0.67843 0.0
Zn87 Zn 0.48027 0.62293 0.58433 0.0
O88 O 0.395 0.57085 0.66769 0.0
Zn89 Zn 0.42148 0.59124 0.59045 0.0
O90 O 0.44946 0.55876 0.58093 0.0
O91 O 0.5103 0.59935 0.57562 0.0
O92 O 0.39205 0.58217 0.51428 0.0
O93 O 0.45238 0.61032 0.49417 0.0
O94 O 0.50539 0.67757 0.59419 0.0
O95 O 0.44477 0.64962 0.61215 0.0
C96 C 0.48336 0.56559 0.57637 0.0
C97 C 0.47707 0.6794 0.61289 0.0
C98 C 0.82986 0.4259 0.82704 0.0
C99 C 0.85535 0.4417 0.05547 0.0
O100 O 0.84832 0.46057 0.84342 0.0
Zn101 Zn 0.86723 0.49182 0.93109 0.0
O102 O 0.81742 0.40065 0.86943 0.0
Zn103 Zn 0.83858 0.43303 0.94293 0.0
O104 O 0.80397 0.45693 0.96061 0.0
O105 O 0.83904 0.51775 0.94577 0.0
O106 O 0.83524 0.4112 0.02533 0.0
O107 O 0.86918 0.47282 0.02548 0.0
O108 O 0.92057 0.52053 0.91532 0.0
O109 O 0.89853 0.4595 0.92694 0.0
C110 C 0.80804 0.48984 0.96286 0.0
C111 C 0.9261 0.49275 0.91752 0.0
C112 C 0.43703 0.93116 0.23599 0.0
C113 C 0.33104 0.80549 0.27385 0.0
O114 O 0.4469 0.90627 0.24102 0.0
Zn115 Zn 0.41997 0.84625 0.25222 0.0
O116 O 0.40244 0.9213 0.23513 0.0
Zn117 Zn 0.38296 0.86787 0.24485 0.0
O118 O 0.40318 0.86673 0.33879 0.0
O119 O 0.44121 0.84334 0.33163 0.0
O120 O 0.32919 0.8341 0.25641 0.0
O121 O 0.36257 0.80649 0.2721 0.0
O122 O 0.43278 0.82856 0.17667 0.0
O123 O 0.39676 0.85274 0.15585 0.0
C124 C 0.42468 0.85646 0.36491 0.0
C125 C 0.4159 0.8379 0.1368 0.0
C126 C 0.52215 0.32931 0.616 0.0
C127 C 0.51018 0.44013 0.57863 0.0
O128 O 0.55366 0.35989 0.61298 0.0
Zn129 Zn 0.57454 0.41756 0.59088 0.0
O130 O 0.49268 0.32944 0.59868 0.0
Zn131 Zn 0.51562 0.38398 0.58653 0.0
O132 O 0.54245 0.39655 0.49551 0.0
O133 O 0.60327 0.42834 0.51359 0.0
O134 O 0.48393 0.40603 0.57841 0.0
O135 O 0.54446 0.44807 0.58279 0.0
O136 O 0.60146 0.43784 0.66805 0.0
O137 O 0.53989 0.40547 0.67941 0.0
C138 C 0.57619 0.41377 0.47475 0.0
C139 C 0.57277 0.4248 0.70365 0.0
C140 C 0.16822 0.5591 0.7902 0.0
C141 C 0.15752 0.56797 0.01869 0.0
O142 O 0.15109 0.52669 0.8164 0.0
Zn143 Zn 0.13138 0.50506 0.9092 0.0
O144 O 0.18007 0.58819 0.82447 0.0
Zn145 Zn 0.1626 0.56435 0.90597 0.0
O146 O 0.19446 0.53718 0.92964 0.0
O147 O 0.15507 0.4759 0.92945 0.0
O148 O 0.17419 0.59536 0.98041 0.0
O149 O 0.14036 0.53412 0.99817 0.0
O150 O 0.07733 0.47978 0.90098 0.0
O151 O 0.10297 0.5414 0.90207 0.0
C152 C 0.1878 0.50358 0.93879 0.0
C153 C 0.07374 0.5087 0.90025 0.0
C154 C 0.59589 0.16209 0.38324 0.0
C155 C 0.60688 0.17679 0.1539 0.0
O156 O 0.61267 0.14636 0.35799 0.0
Zn157 Zn 0.6281 0.1377 0.26612 0.0
O158 O 0.58259 0.17798 0.34857 0.0
Zn159 Zn 0.60049 0.16982 0.26897 0.0
O160 O 0.56367 0.11101 0.25543 0.0
O161 O 0.59747 0.08322 0.25913 0.0
O162 O 0.59325 0.19071 0.19193 0.0
O163 O 0.62092 0.15732 0.17558 0.0
O164 O 0.68226 0.16248 0.27937 0.0
O165 O 0.65971 0.20104 0.28694 0.0
C166 C 0.56562 0.08095 0.25413 0.0
C167 C 0.68719 0.19493 0.29182 0.0
C168 C 0.43238 0.61138 0.29698 0.0
C169 C 0.39998 0.5796 0.27178 0.0
C170 C 0.38084 0.55591 0.37969 0.0
C171 C 0.41044 0.59005 0.40488 0.0
N172 N 0.45714 0.65477 0.38465 0.0
N173 N 0.33789 0.5274 0.29218 0.0
C174 C 0.43394 0.61925 0.36267 0.0
C175 C 0.37244 0.55365 0.31404 0.0
N176 N 0.46284 0.63283 0.25978 0.0
N177 N 0.36217 0.52475 0.41685 0.0
H178 H 0.32974 0.52621 0.24509 0.0
H179 H 0.31602 0.50995 0.32231 0.0
H180 H 0.36922 0.52369 0.46385 0.0
H181 H 0.3427 0.49857 0.39856 0.0
H182 H 0.48804 0.65424 0.27811 0.0
H183 H 0.46484 0.62643 0.21278 0.0
H184 H 0.47253 0.67746 0.35454 0.0
H185 H 0.45745 0.66237 0.43183 0.0
C186 C 0.86399 0.40778 0.6711 0.0
C187 C 0.83522 0.40332 0.62804 0.0
C188 C 0.80179 0.41256 0.71693 0.0
C189 C 0.82978 0.4156 0.75943 0.0
N190 N 0.88274 0.40736 0.77978 0.0
N191 N 0.7717 0.39053 0.61477 0.0
C192 C 0.85922 0.41028 0.73732 0.0
C193 C 0.80263 0.40259 0.65242 0.0
N194 N 0.89708 0.41197 0.6494 0.0
N195 N 0.77465 0.41968 0.73794 0.0
H196 H 0.77035 0.3807 0.5688 0.0
H197 H 0.74604 0.38617 0.63129 0.0
H198 H 0.77253 0.42571 0.78522 0.0
H199 H 0.75594 0.42213 0.70786 0.0
H200 H 0.92079 0.4212 0.67778 0.0
H201 H 0.90244 0.40912 0.60248 0.0
H202 H 0.90173 0.39878 0.76728 0.0
H203 H 0.88107 0.41013 0.82852 0.0
C204 C 0.40297 0.80824 0.96302 0.0
C205 C 0.43063 0.8424 0.93501 0.0
C206 C 0.45341 0.8687 0.04047 0.0
C207 C 0.42259 0.83703 0.06817 0.0
N208 N 0.3659 0.77745 0.05646 0.0
N209 N 0.47538 0.9083 0.9483 0.0
C210 C 0.39666 0.80696 0.0296 0.0
C211 C 0.45425 0.87344 0.97405 0.0
N212 N 0.38383 0.77676 0.92663 0.0
N213 N 0.48202 0.89433 0.07746 0.0
H214 H 0.47403 0.91361 0.90044 0.0
H215 H 0.49032 0.93248 0.97556 0.0
H216 H 0.4823 0.89206 0.12661 0.0
H217 H 0.5069 0.91589 0.05867 0.0
H218 H 0.3659 0.75028 0.94532 0.0
H219 H 0.38848 0.7764 0.8782 0.0
H220 H 0.3438 0.7567 0.03025 0.0
H221 H 0.36155 0.77501 0.10526 0.0
C222 C 0.57183 0.44448 0.30695 0.0
C223 C 0.59471 0.43346 0.27398 0.0
C224 C 0.60302 0.40623 0.37202 0.0
C225 C 0.58322 0.42066 0.4058 0.0
N226 N 0.55667 0.4613 0.40758 0.0
N227 N 0.63642 0.40834 0.27603 0.0
C228 C 0.56982 0.44197 0.37387 0.0
C229 C 0.6115 0.41548 0.30674 0.0
N230 N 0.5506 0.45582 0.27421 0.0
N231 N 0.61264 0.38276 0.40175 0.0
H232 H 0.64317 0.41469 0.22835 0.0
H233 H 0.6526 0.39894 0.29882 0.0
H234 H 0.60688 0.37549 0.44939 0.0
H235 H 0.6236 0.36818 0.37821 0.0
H236 H 0.53045 0.46037 0.29556 0.0
H237 H 0.55023 0.45691 0.22495 0.0
H238 H 0.55026 0.48042 0.38699 0.0
H239 H 0.55589 0.46134 0.45686 0.0
C240 C 0.14569 0.54374 0.61304 0.0
C241 C 0.17794 0.57495 0.58743 0.0
C242 C 0.2069 0.58998 0.69272 0.0
C243 C 0.17227 0.56262 0.71988 0.0
N244 N 0.10627 0.51712 0.70439 0.0
N245 N 0.23856 0.62982 0.60238 0.0
C246 C 0.14107 0.54017 0.67969 0.0
C247 C 0.20842 0.59869 0.62712 0.0
N248 N 0.11942 0.51721 0.57364 0.0
N249 N 0.23871 0.60634 0.72885 0.0
H250 H 0.24103 0.63621 0.55419 0.0
H251 H 0.25976 0.65051 0.63011 0.0
H252 H 0.23915 0.59914 0.77605 0.0
H253 H 0.2653 0.62391 0.71037 0.0
H254 H 0.09746 0.49172 0.58974 0.0
H255 H 0.12137 0.5191 0.52443 0.0
H256 H 0.08205 0.50411 0.67683 0.0
H257 H 0.1005 0.51349 0.75251 0.0
C258 C 0.58703 0.14568 0.04781 0.0
C259 C 0.60292 0.17917 0.08429 0.0
C260 C 0.60834 0.21495 0.98776 0.0
C261 C 0.59607 0.18184 0.95137 0.0
N262 N 0.58496 0.11859 0.94568 0.0
N263 N 0.63503 0.2469 0.0872 0.0
C264 C 0.5888 0.14808 0.98105 0.0
C265 C 0.61528 0.21427 0.05384 0.0
N266 N 0.56824 0.11137 0.07648 0.0
N267 N 0.6128 0.24677 0.95945 0.0
H268 H 0.64156 0.24752 0.13504 0.0
H269 H 0.64788 0.27334 0.06621 0.0
H270 H 0.60865 0.24827 0.91103 0.0
H271 H 0.6179 0.27065 0.98457 0.0
H272 H 0.55338 0.08636 0.05122 0.0
H273 H 0.56358 0.10815 0.12509 0.0
H274 H 0.58356 0.09478 0.96578 0.0
H275 H 0.58722 0.11965 0.89646 0.0
C276 C 0.25 0.49713 0.06596 0.0
C277 C 0.28006 0.50098 0.02827 0.0
C278 C 0.24522 0.4976 0.93137 0.0
C279 C 0.21716 0.49807 0.96914 0.0
N280 N 0.1921 0.49888 0.07185 0.0
N281 N 0.30721 0.50459 0.92567 0.0
C282 C 0.21912 0.49754 0.03637 0.0
C283 C 0.27776 0.50077 0.96103 0.0
N284 N 0.25098 0.49278 0.12998 0.0
N285 N 0.24033 0.49359 0.86722 0.0
H286 H 0.33003 0.50392 0.94543 0.0
H287 H 0.30988 0.5097 0.87721 0.0
H288 H 0.21684 0.49143 0.84449 0.0
H289 H 0.25789 0.48966 0.83679 0.0
H290 H 0.2286 0.48632 0.16006 0.0
H291 H 0.27351 0.49291 0.15282 0.0
H292 H 0.1942 0.50375 0.12041 0.0
H293 H 0.16788 0.49665 0.05218 0.0
C294 C 0.76801 0.25415 0.40587 0.0
C295 C 0.78173 0.29033 0.37852 0.0
C296 C 0.73992 0.2608 0.28698 0.0
C297 C 0.72323 0.22562 0.31758 0.0
N298 N 0.71726 0.18952 0.41134 0.0
N299 N 0.77368 0.32794 0.29759 0.0
C300 C 0.73642 0.2223 0.37815 0.0
C301 C 0.76566 0.29366 0.32051 0.0
N302 N 0.78434 0.2502 0.45945 0.0
N303 N 0.73164 0.26273 0.22486 0.0
H304 H 0.79269 0.35337 0.318 0.0
H305 H 0.75896 0.33118 0.26031 0.0
H306 H 0.71321 0.23904 0.1987 0.0
H307 H 0.74601 0.28695 0.1976 0.0
H308 H 0.77895 0.22425 0.47668 0.0
H309 H 0.80463 0.27289 0.4853 0.0
H310 H 0.72251 0.18682 0.45871 0.0
H311 H 0.69407 0.1656 0.39328 0.0
C312 C 0.5076 0.76626 0.71871 0.0
C313 C 0.47714 0.77279 0.70819 0.0
C314 C 0.45176 0.72268 0.62889 0.0
C315 C 0.48052 0.7143 0.6413 0.0
N316 N 0.53002 0.72198 0.71256 0.0
N317 N 0.41118 0.74077 0.67914 0.0
C318 C 0.50718 0.73457 0.6899 0.0
C319 C 0.44641 0.74629 0.67096 0.0
N320 N 0.53594 0.78891 0.75898 0.0
N321 N 0.42924 0.70804 0.57696 0.0
H322 H 0.40377 0.75167 0.71726 0.0
H323 H 0.38801 0.72004 0.65471 0.0
H324 H 0.43341 0.69207 0.54304 0.0
H325 H 0.40934 0.71546 0.56434 0.0
H326 H 0.56148 0.78947 0.76061 0.0
H327 H 0.53384 0.80707 0.79089 0.0
H328 H 0.54701 0.73324 0.75233 0.0
H329 H 0.52946 0.69788 0.69615 0.0
C330 C 0.73408 0.48364 0.07988 0.0
C331 C 0.72081 0.50504 0.04813 0.0
C332 C 0.76428 0.51631 0.96006 0.0
C333 C 0.77806 0.49533 0.99216 0.0
N334 N 0.78016 0.46412 0.08812 0.0
N335 N 0.72862 0.54852 0.96468 0.0
C336 C 0.76404 0.48037 0.05355 0.0
C337 C 0.73784 0.52379 0.99063 0.0
N338 N 0.71751 0.46588 0.13531 0.0
N339 N 0.77436 0.52679 0.89854 0.0
H340 H 0.70839 0.55375 0.98358 0.0
H341 H 0.74311 0.56618 0.92706 0.0
H342 H 0.79258 0.52079 0.87376 0.0
H343 H 0.76199 0.53818 0.86993 0.0
H344 H 0.7211 0.44488 0.15575 0.0
H345 H 0.69877 0.47119 0.16008 0.0
H346 H 0.77503 0.45758 0.13597 0.0
H347 H 0.80089 0.45938 0.07074 0.0
C348 C 0.27171 0.70555 0.3277 0.0
C349 C 0.24645 0.70714 0.3717 0.0
C350 C 0.28003 0.77593 0.3572 0.0
C351 C 0.29861 0.77212 0.30328 0.0
N352 N 0.30546 0.73089 0.23038 0.0
N353 N 0.23015 0.74597 0.43437 0.0
C354 C 0.29209 0.73611 0.28625 0.0
C355 C 0.25141 0.743 0.38774 0.0
N356 N 0.27915 0.67676 0.32849 0.0
N357 N 0.29153 0.81063 0.38247 0.0
H358 H 0.21455 0.72433 0.46621 0.0
H359 H 0.22809 0.76993 0.44129 0.0
H360 H 0.31322 0.8354 0.36378 0.0
H361 H 0.28195 0.81477 0.4256 0.0
H362 H 0.2991 0.67616 0.29899 0.0
H363 H 0.27092 0.65738 0.36517 0.0
H364 H 0.29878 0.70434 0.21397 0.0
H365 H 0.31952 0.75247 0.19766 0.0
C366 C 0.5013 0.24758 0.72929 0.0
C367 C 0.53435 0.24528 0.7197 0.0
C368 C 0.55217 0.29056 0.63322 0.0
C369 C 0.52143 0.29585 0.64558 0.0
N370 N 0.47059 0.28434 0.71665 0.0
N371 N 0.59899 0.28169 0.68438 0.0
C372 C 0.49665 0.27544 0.6963 0.0
C373 C 0.56219 0.27165 0.67811 0.0
N374 N 0.47519 0.22464 0.77236 0.0
N375 N 0.57238 0.30405 0.57879 0.0
H376 H 0.60952 0.27474 0.72366 0.0
H377 H 0.61999 0.30246 0.65646 0.0
H378 H 0.56489 0.31671 0.54327 0.0
H379 H 0.59371 0.29867 0.56634 0.0
H380 H 0.44814 0.22054 0.77409 0.0
H381 H 0.48064 0.20967 0.80644 0.0
H382 H 0.45511 0.27363 0.75797 0.0
H383 H 0.46646 0.30492 0.6961 0.0
C384 C 0.49434 0.52682 0.15327 0.0
C385 C 0.46972 0.51356 0.10034 0.0
C386 C 0.51238 0.49779 0.04515 0.0
C387 C 0.53532 0.50798 0.10005 0.0
N388 N 0.54726 0.52913 0.20838 0.0
N389 N 0.45327 0.48381 0.99754 0.0
C390 C 0.52625 0.52197 0.15456 0.0
C391 C 0.47808 0.49812 0.04688 0.0
N392 N 0.48719 0.54403 0.20228 0.0
N393 N 0.52442 0.48965 0.99024 0.0
H394 H 0.4293 0.48614 0.99407 0.0
H395 H 0.45525 0.46774 0.96133 0.0
H396 H 0.54974 0.48988 0.98667 0.0
H397 H 0.51124 0.48603 0.94664 0.0
H398 H 0.50612 0.55833 0.23861 0.0
H399 H 0.46288 0.54582 0.20516 0.0
H400 H 0.53977 0.53504 0.25206 0.0
H401 H 0.57128 0.52679 0.21058 0.0
C402 C 0.99514 0.48982 0.49939 0.0
C403 C 0.97465 0.4691 0.44539 0.0
C404 C 0.02435 0.51514 0.37657 0.0
C405 C 0.04689 0.53255 0.43044 0.0
N406 N 0.05526 0.53593 0.54359 0.0
N407 N 0.97144 0.45957 0.33225 0.0
C408 C 0.03271 0.51971 0.49209 0.0
C409 C 0.98978 0.48106 0.38383 0.0
N410 N 0.97825 0.4818 0.55725 0.0
N411 N 0.03535 0.532 0.31876 0.0
H412 H 0.946 0.43449 0.33544 0.0
H413 H 0.98298 0.46488 0.28702 0.0
H414 H 0.06006 0.55755 0.3124 0.0
H415 H 0.01841 0.52273 0.27858 0.0
H416 H 0.99019 0.49814 0.59748 0.0
H417 H 0.95073 0.46047 0.56364 0.0
H418 H 0.04818 0.52512 0.58924 0.0
H419 H 0.0822 0.55914 0.54012 0.0
C420 C 0.5159 0.03244 0.70737 0.0
C421 C 0.52161 0.05045 0.76702 0.0
C422 C 0.52265 0.99763 0.81888 0.0
C423 C 0.51502 0.97876 0.76001 0.0
N424 N 0.51398 0.98135 0.64656 0.0
N425 N 0.52178 0.04683 0.88057 0.0
C426 C 0.51418 0.99702 0.70367 0.0
C427 C 0.52285 0.03222 0.82312 0.0
N428 N 0.51041 0.04848 0.65477 0.0
N429 N 0.53167 0.98339 0.86995 0.0
H430 H 0.5199 0.07109 0.88494 0.0
H431 H 0.51888 0.03306 0.92334 0.0
H432 H 0.53395 0.95932 0.86681 0.0
H433 H 0.54085 0.99744 0.91299 0.0
H434 H 0.50209 0.03518 0.61103 0.0
H435 H 0.51172 0.07445 0.65572 0.0
H436 H 0.51742 0.99476 0.6033 0.0
H437 H 0.51366 0.95591 0.64272 0.0
C438 C 0.47825 0.50826 0.52408 0.0
C439 C 0.4908 0.53383 0.57579 0.0
C440 C 0.51138 0.49503 0.63192 0.0
C441 C 0.50166 0.47117 0.57824 0.0
N442 N 0.47946 0.45659 0.47067 0.0
N443 N 0.52248 0.55396 0.67663 0.0
C444 C 0.48581 0.47802 0.52372 0.0
C445 C 0.5085 0.52802 0.62886 0.0
N446 N 0.45905 0.51289 0.47533 0.0
N447 N 0.52151 0.48503 0.68711 0.0
H448 H 0.51863 0.57709 0.67899 0.0
H449 H 0.53988 0.55389 0.71233 0.0
H450 H 0.52304 0.46063 0.69175 0.0
H451 H 0.52498 0.49881 0.73003 0.0
H452 H 0.44511 0.49291 0.44019 0.0
H453 H 0.45532 0.53608 0.47152 0.0
H454 H 0.47225 0.46274 0.42689 0.0
H455 H 0.48388 0.43378 0.46908 0.0
C456 C 0.02252 0.51812 0.85409 0.0
C457 C 0.03605 0.50501 0.90423 0.0
C458 C 0.97978 0.48941 0.96624 0.0
C459 C 0.96451 0.49844 0.91333 0.0
N460 N 0.96848 0.51566 0.80343 0.0
N461 N 0.02666 0.47585 1.00705 0.0
C462 C 0.98514 0.51138 0.85631 0.0
C463 C 0.01426 0.48971 0.95983 0.0
N464 N 0.04548 0.53754 0.80476 0.0
N465 N 0.96226 0.48244 0.02366 0.0
H466 H 0.05315 0.47848 1.00742 0.0
H467 H 0.00992 0.45991 0.04458 0.0
H468 H 0.93759 0.48307 0.03073 0.0
H469 H 0.97385 0.47965 0.06569 0.0
H470 H 0.03849 0.55115 0.7704 0.0
H471 H 0.07289 0.54294 0.80101 0.0
H472 H 0.9805 0.52073 0.7586 0.0
H473 H 0.94114 0.51092 0.8032 0.0
C474 C 0.47067 0.99425 0.28904 0.0
C475 C 0.46652 0.97137 0.23608 0.0
C476 C 0.5268 0.0204 0.19392 0.0
C477 C 0.53064 0.0439 0.24619 0.0
N478 N 0.5005 0.05653 0.33388 0.0
N479 N 0.48462 0.9664 0.13021 0.0
C480 C 0.50073 0.032 0.29053 0.0
C481 C 0.4929 0.98555 0.18618 0.0
N482 N 0.44705 0.97948 0.33963 0.0
N483 N 0.55532 0.03133 0.15135 0.0
H484 H 0.45922 0.94167 0.12266 0.0
H485 H 0.50082 0.97685 0.08952 0.0
H486 H 0.57942 0.05771 0.152 0.0
H487 H 0.55593 0.01346 0.11706 0.0
H488 H 0.45181 0.99322 0.38297 0.0
H489 H 0.42432 0.95217 0.34046 0.0
H490 H 0.47737 0.05031 0.36197 0.0
H491 H 0.52168 0.0843 0.33823 0.0
C492 C 0.40171 0.5971 0.80476 0.0
C493 C 0.4203 0.581 0.77214 0.0
C494 C 0.43801 0.56499 0.87311 0.0
C495 C 0.41601 0.57741 0.9052 0.0
N496 N 0.37052 0.59806 0.90087 0.0
N497 N 0.45098 0.54418 0.77391 0.0
C498 C 0.3961 0.59154 0.87092 0.0
C499 C 0.43711 0.56345 0.80593 0.0
N500 N 0.3908 0.61906 0.77318 0.0
N501 N 0.46057 0.55575 0.90681 0.0
H502 H 0.44996 0.54177 0.7247 0.0
H503 H 0.46029 0.52775 0.79611 0.0
H504 H 0.46244 0.55733 0.95609 0.0
H505 H 0.47995 0.5499 0.88594 0.0
H506 H 0.38089 0.63479 0.79607 0.0
H507 H 0.39495 0.62453 0.72479 0.0
H508 H 0.35217 0.60418 0.87669 0.0
H509 H 0.36502 0.59389 0.94924 0.0
C510 C 0.86114 0.40141 0.21266 0.0
C511 C 0.86317 0.42862 0.25692 0.0
C512 C 0.86494 0.46823 0.16855 0.0
C513 C 0.86314 0.44095 0.12454 0.0
N514 N 0.87782 0.3918 0.10765 0.0
N515 N 0.88302 0.49393 0.27415 0.0
C516 C 0.86694 0.41072 0.14753 0.0
C517 C 0.86986 0.46386 0.23406 0.0
N518 N 0.85223 0.36604 0.23105 0.0
N519 N 0.86104 0.49783 0.14955 0.0
H520 H 0.88972 0.4927 0.32137 0.0
H521 H 0.89192 0.52116 0.25863 0.0
H522 H 0.85947 0.50471 0.10288 0.0
H523 H 0.85678 0.51465 0.18146 0.0
H524 H 0.84621 0.34465 0.19863 0.0
H525 H 0.84716 0.3564 0.27735 0.0
H526 H 0.88432 0.37173 0.12345 0.0
H527 H 0.88525 0.39974 0.06061 0.0
C528 C 0.43927 0.89178 0.53383 0.0
C529 C 0.42615 0.85786 0.56773 0.0
C530 C 0.40911 0.82247 0.46828 0.0
C531 C 0.42696 0.8569 0.43454 0.0
N532 N 0.46295 0.92452 0.43442 0.0
N533 N 0.40034 0.79081 0.56872 0.0
C534 C 0.44303 0.89167 0.4671 0.0
C535 C 0.41138 0.82311 0.53537 0.0
N536 N 0.44676 0.92376 0.56538 0.0
N537 N 0.38865 0.7893 0.43644 0.0
H538 H 0.3996 0.78993 0.61799 0.0
H539 H 0.39374 0.76535 0.54773 0.0
H540 H 0.38635 0.78754 0.38725 0.0
H541 H 0.37144 0.76378 0.45878 0.0
H542 H 0.45297 0.94869 0.54272 0.0
H543 H 0.44294 0.92414 0.61415 0.0
H544 H 0.47834 0.9506 0.45626 0.0
H545 H 0.46683 0.92535 0.38554 0.0
C546 C 0.55234 0.40118 0.81497 0.0
C547 C 0.57698 0.4303 0.77335 0.0
C548 C 0.61393 0.46585 0.86476 0.0
C549 C 0.58569 0.43985 0.90626 0.0
N550 N 0.52192 0.38834 0.91651 0.0
N551 N 0.62503 0.49565 0.7627 0.0
C552 C 0.55294 0.40918 0.8802 0.0
C553 C 0.60592 0.46435 0.79932 0.0
N554 N 0.53 0.36534 0.79371 0.0
N555 N 0.64908 0.49046 0.88643 0.0
H556 H 0.61809 0.49684 0.71562 0.0
H557 H 0.64451 0.52164 0.78165 0.0
H558 H 0.6577 0.4898 0.9325 0.0
H559 H 0.67096 0.50788 0.85626 0.0
H560 H 0.51375 0.34305 0.82408 0.0
H561 H 0.53168 0.35693 0.74797 0.0
H562 H 0.49669 0.36742 0.8974 0.0
H563 H 0.51988 0.39503 0.96337 0.0
C564 C 0.12627 0.5592 0.12307 0.0
C565 C 0.15991 0.57385 0.08779 0.0
C566 C 0.19647 0.59173 0.18604 0.0
C567 C 0.16261 0.57415 0.2211 0.0
N568 N 0.09571 0.53351 0.22322 0.0
N569 N 0.2266 0.59699 0.08539 0.0
C570 C 0.12757 0.55577 0.18968 0.0
C571 C 0.195 0.58838 0.11908 0.0
N572 N 0.09321 0.54928 0.09296 0.0
N573 N 0.22999 0.61233 0.21651 0.0
H574 H 0.22689 0.59468 0.0363 0.0
H575 H 0.25194 0.60333 0.10658 0.0
H576 H 0.23233 0.61431 0.26563 0.0
H577 H 0.25507 0.62951 0.19301 0.0
H578 H 0.06832 0.5416 0.11685 0.0
H579 H 0.09146 0.5522 0.0442 0.0
H580 H 0.06971 0.51646 0.20213 0.0
H581 H 0.09614 0.52905 0.27176 0.0
C582 C 0.58873 0.13614 0.5573 0.0
C583 C 0.59951 0.17115 0.58579 0.0
C584 C 0.6132 0.20118 0.4818 0.0
C585 C 0.59639 0.16513 0.45298 0.0
N586 N 0.56628 0.09757 0.46357 0.0
N587 N 0.62101 0.2372 0.57692 0.0
C588 C 0.58386 0.13238 0.49079 0.0
C589 C 0.61162 0.2038 0.54856 0.0
N590 N 0.5845 0.10686 0.59385 0.0
N591 N 0.63266 0.23287 0.44596 0.0
H592 H 0.62245 0.24058 0.62589 0.0
H593 H 0.62551 0.26093 0.55201 0.0
H594 H 0.63609 0.23234 0.39719 0.0
H595 H 0.64876 0.2596 0.46526 0.0
H596 H 0.58054 0.08168 0.5753 0.0
H597 H 0.58858 0.1091 0.64278 0.0
H598 H 0.5524 0.07276 0.48943 0.0
H599 H 0.56314 0.09332 0.41495 0.0
loop_
_geom_bond_atom_site_label_1
_geom_bond_atom_site_label_2
_geom_bond_distance
_geom_bond_site_symmetry_2
_ccdc_geom_bond_type
C0 O2 1.247 . S
C0 O4 1.258 . S
C1 O8 1.247 . S
C1 O9 1.258 . S
O2 C0 1.247 . S
O2 Zn3 2.028 . S
Zn3 O2 2.028 . S
Zn3 O7 2.035 . S
Zn3 O9 2.035 . S
Zn3 O10 2.028 1_554 S
O4 C0 1.258 . S
O4 Zn5 2.035 . S
Zn5 O4 2.035 . S
Zn5 O6 2.028 . S
Zn5 O8 2.028 . S
Zn5 O11 2.035 1_554 S
O6 Zn5 2.028 . S
O6 C12 1.247 . S
O7 Zn3 2.035 . S
O7 C12 1.258 . S
O8 C1 1.247 . S
O8 Zn5 2.028 . S
O9 C1 1.258 . S
O9 Zn3 2.035 . S
O10 Zn3 2.028 1_556 S
O10 C13 1.247 . S
O11 Zn5 2.035 1_556 S
O11 C13 1.258 . S
C12 O6 1.247 . S
C12 O7 1.258 . S
C13 O10 1.247 . S
C13 O11 1.258 . S
C14 O16 1.247 . S
C14 O18 1.258 . S
C15 O22 1.247 . S
C15 O23 1.258 . S
O16 C14 1.247 . S
O16 Zn17 2.028 . S
Zn17 O16 2.028 . S
Zn17 O21 2.035 . S
Zn17 O23 2.035 . S
Zn17 O24 2.028 . S
O18 C14 1.258 . S
O18 Zn19 2.035 . S
Zn19 O18 2.035 . S
Zn19 O20 2.028 . S
Zn19 O22 2.028 . S
Zn19 O25 2.035 . S
O20 Zn19 2.028 . S
O20 C26 1.247 . S
O21 Zn17 2.035 . S
O21 C26 1.258 . S
O22 C15 1.247 . S
O22 Zn19 2.028 . S
O23 C15 1.258 . S
O23 Zn17 2.035 . S
O24 Zn17 2.028 . S
O24 C27 1.247 . S
O25 Zn19 2.035 . S
O25 C27 1.258 . S
C26 O20 1.247 . S
C26 O21 1.258 . S
C27 O24 1.247 . S
C27 O25 1.258 . S
C28 O30 1.247 . S
C28 O32 1.258 . S
C29 O36 1.247 . S
C29 O37 1.258 . S
O30 C28 1.247 . S
O30 Zn31 2.028 . S
Zn31 O30 2.028 . S
Zn31 O35 2.035 . S
Zn31 O37 2.035 . S
Zn31 O38 2.028 . S
O32 C28 1.258 . S
O32 Zn33 2.035 . S
Zn33 O32 2.035 . S
Zn33 O34 2.028 . S
Zn33 O36 2.028 . S
Zn33 O39 2.035 . S
O34 Zn33 2.028 . S
O34 C40 1.247 . S
O35 Zn31 2.035 . S
O35 C40 1.258 . S
O36 C29 1.247 . S
O36 Zn33 2.028 . S
O37 C29 1.258 . S
O37 Zn31 2.035 . S
O38 Zn31 2.028 . S
O38 C41 1.247 . S
O39 Zn33 2.035 . S
O39 C41 1.258 . S
C40 O34 1.247 . S
C40 O35 1.258 . S
C41 O38 1.247 . S
C41 O39 1.258 . S
C42 O44 1.247 . S
C42 O46 1.258 . S
C43 O50 1.247 . S
C43 O51 1.258 . S
O44 C42 1.247 . S
O44 Zn45 2.028 1_556 S
Zn45 O44 2.028 1_554 S
Zn45 O49 2.035 . S
Zn45 O51 2.035 . S
Zn45 O52 2.028 . S
O46 C42 1.258 . S
O46 Zn47 2.035 1_556 S
Zn47 O46 2.035 1_554 S
Zn47 O48 2.028 . S
Zn47 O50 2.028 . S
Zn47 O53 2.035 . S
O48 Zn47 2.028 . S
O48 C54 1.247 . S
O49 Zn45 2.035 . S
O49 C54 1.258 . S
O50 C43 1.247 . S
O50 Zn47 2.028 . S
O51 C43 1.258 . S
O51 Zn45 2.035 . S
O52 Zn45 2.028 . S
O52 C55 1.247 . S
O53 Zn47 2.035 . S
O53 C55 1.258 . S
C54 O48 1.247 . S
C54 O49 1.258 . S
C55 O52 1.247 . S
C55 O53 1.258 . S
C56 O58 1.247 . S
C56 O60 1.258 . S
C57 O64 1.247 . S
C57 O65 1.258 . S
O58 C56 1.247 . S
O58 Zn59 2.028 . S
Zn59 O58 2.028 . S
Zn59 O63 2.035 . S
Zn59 O65 2.035 . S
Zn59 O66 2.028 . S
O60 C56 1.258 . S
O60 Zn61 2.035 . S
Zn61 O60 2.035 . S
Zn61 O62 2.028 . S
Zn61 O64 2.028 . S
Zn61 O67 2.035 . S
O62 Zn61 2.028 . S
O62 C68 1.247 . S
O63 Zn59 2.035 . S
O63 C68 1.258 . S
O64 C57 1.247 . S
O64 Zn61 2.028 . S
O65 C57 1.258 . S
O65 Zn59 2.035 . S
O66 Zn59 2.028 . S
O66 C69 1.247 . S
O67 Zn61 2.035 . S
O67 C69 1.258 . S
C68 O62 1.247 . S
C68 O63 1.258 . S
C69 O66 1.247 . S
C69 O67 1.258 . S
C70 O72 1.247 . S
C70 O74 1.258 . S
C71 O78 1.247 . S
C71 O79 1.258 . S
O72 C70 1.247 . S
O72 Zn73 2.028 . S
Zn73 O72 2.028 . S
Zn73 O77 2.035 . S
Zn73 O79 2.035 . S
Zn73 O80 2.028 . S
O74 C70 1.258 . S
O74 Zn75 2.035 . S
Zn75 O74 2.035 . S
Zn75 O76 2.028 . S
Zn75 O78 2.028 . S
Zn75 O81 2.035 . S
O76 Zn75 2.028 . S
O76 C82 1.247 . S
O77 Zn73 2.035 . S
O77 C82 1.258 . S
O78 C71 1.247 . S
O78 Zn75 2.028 . S
O79 C71 1.258 . S
O79 Zn73 2.035 . S
O80 Zn73 2.028 . S
O80 C83 1.247 . S
O81 Zn75 2.035 . S
O81 C83 1.258 . S
C82 O76 1.247 . S
C82 O77 1.258 . S
C83 O80 1.247 . S
C83 O81 1.258 . S
C84 O86 1.247 . S
C84 O88 1.258 . S
C85 O92 1.247 . S
C85 O93 1.258 . S
O86 C84 1.247 . S
O86 Zn87 2.028 . S
Zn87 O86 2.028 . S
Zn87 O91 2.035 . S
Zn87 O93 2.035 . S
Zn87 O94 2.028 . S
O88 C84 1.258 . S
O88 Zn89 2.035 . S
Zn89 O88 2.035 . S
Zn89 O90 2.028 . S
Zn89 O92 2.028 . S
Zn89 O95 2.035 . S
O90 Zn89 2.028 . S
O90 C96 1.247 . S
O91 Zn87 2.035 . S
O91 C96 1.258 . S
O92 C85 1.247 . S
O92 Zn89 2.028 . S
O93 C85 1.258 . S
O93 Zn87 2.035 . S
O94 Zn87 2.028 . S
O94 C97 1.247 . S
O95 Zn89 2.035 . S
O95 C97 1.258 . S
C96 O90 1.247 . S
C96 O91 1.258 . S
C97 O94 1.247 . S
C97 O95 1.258 . S
C98 O100 1.247 . S
C98 O102 1.258 . S
C99 O106 1.247 . S
C99 O107 1.258 . S
O100 C98 1.247 . S
O100 Zn101 2.028 . S
Zn101 O100 2.028 . S
Zn101 O105 2.035 . S
Zn101 O107 2.035 1_556 S
Zn101 O108 2.028 . S
O102 C98 1.258 . S
O102 Zn103 2.035 . S
Zn103 O102 2.035 . S
Zn103 O104 2.028 . S
Zn103 O106 2.028 1_556 S
Zn103 O109 2.035 . S
O104 Zn103 2.028 . S
O104 C110 1.247 . S
O105 Zn101 2.035 . S
O105 C110 1.258 . S
O106 C99 1.247 . S
O106 Zn103 2.028 1_554 S
O107 C99 1.258 . S
O107 Zn101 2.035 1_554 S
O108 Zn101 2.028 . S
O108 C111 1.247 . S
O109 Zn103 2.035 . S
O109 C111 1.258 . S
C110 O104 1.247 . S
C110 O105 1.258 . S
C111 O108 1.247 . S
C111 O109 1.258 . S
C112 O114 1.247 . S
C112 O116 1.258 . S
C113 O120 1.247 . S
C113 O121 1.258 . S
O114 C112 1.247 . S
O114 Zn115 2.028 . S
Zn115 O114 2.028 . S
Zn115 O119 2.035 . S
Zn115 O121 2.035 . S
Zn115 O122 2.028 . S
O116 C112 1.258 . S
O116 Zn117 2.035 . S
Zn117 O116 2.035 . S
Zn117 O118 2.028 . S
Zn117 O120 2.028 . S
Zn117 O123 2.035 . S
O118 Zn117 2.028 . S
O118 C124 1.247 . S
O119 Zn115 2.035 . S
O119 C124 1.258 . S
O120 C113 1.247 . S
O120 Zn117 2.028 . S
O121 C113 1.258 . S
O121 Zn115 2.035 . S
O122 Zn115 2.028 . S
O122 C125 1.247 . S
O123 Zn117 2.035 . S
O123 C125 1.258 . S
C124 O118 1.247 . S
C124 O119 1.258 . S
C125 O122 1.247 . S
C125 O123 1.258 . S
C126 O128 1.247 . S
C126 O130 1.258 . S
C127 O134 1.247 . S
C127 O135 1.258 . S
O128 C126 1.247 . S
O128 Zn129 2.028 . S
Zn129 O128 2.028 . S
Zn129 O133 2.035 . S
Zn129 O135 2.035 . S
Zn129 O136 2.028 . S
O130 C126 1.258 . S
O130 Zn131 2.035 . S
Zn131 O130 2.035 . S
Zn131 O132 2.028 . S
Zn131 O134 2.028 . S
Zn131 O137 2.035 . S
O132 Zn131 2.028 . S
O132 C138 1.247 . S
O133 Zn129 2.035 . S
O133 C138 1.258 . S
O134 C127 1.247 . S
O134 Zn131 2.028 . S
O135 C127 1.258 . S
O135 Zn129 2.035 . S
O136 Zn129 2.028 . S
O136 C139 1.247 . S
O137 Zn131 2.035 . S
O137 C139 1.258 . S
C138 O132 1.247 . S
C138 O133 1.258 . S
C139 O136 1.247 . S
C139 O137 1.258 . S
C140 O142 1.247 . S
C140 O144 1.258 . S
C141 O148 1.247 . S
C141 O149 1.258 . S
O142 C140 1.247 . S
O142 Zn143 2.028 . S
Zn143 O142 2.028 . S
Zn143 O147 2.035 . S
Zn143 O149 2.035 1_556 S
Zn143 O150 2.028 . S
O144 C140 1.258 . S
O144 Zn145 2.035 . S
Zn145 O144 2.035 . S
Zn145 O146 2.028 . S
Zn145 O148 2.028 1_556 S
Zn145 O151 2.035 . S
O146 Zn145 2.028 . S
O146 C152 1.247 . S
O147 Zn143 2.035 . S
O147 C152 1.258 . S
O148 C141 1.247 . S
O148 Zn145 2.028 1_554 S
O149 C141 1.258 . S
O149 Zn143 2.035 1_554 S
O150 Zn143 2.028 . S
O150 C153 1.247 . S
O151 Zn145 2.035 . S
O151 C153 1.258 . S
C152 O146 1.247 . S
C152 O147 1.258 . S
C153 O150 1.247 . S
C153 O151 1.258 . S
C154 O156 1.247 . S
C154 O158 1.258 . S
C155 O162 1.247 . S
C155 O163 1.258 . S
O156 C154 1.247 . S
O156 Zn157 2.028 . S
Zn157 O156 2.028 . S
Zn157 O161 2.035 . S
Zn157 O163 2.035 . S
Zn157 O164 2.028 . S
O158 C154 1.258 . S
O158 Zn159 2.035 . S
Zn159 O158 2.035 . S
Zn159 O160 2.028 . S
Zn159 O162 2.028 . S
Zn159 O165 2.035 . S
O160 Zn159 2.028 . S
O160 C166 1.247 . S
O161 Zn157 2.035 . S
O161 C166 1.258 . S
O162 C155 1.247 . S
O162 Zn159 2.028 . S
O163 C155 1.258 . S
O163 Zn157 2.035 . S
O164 Zn157 2.028 . S
O164 C167 1.247 . S
O165 Zn159 2.035 . S
O165 C167 1.258 . S
C166 O160 1.247 . S
C166 O161 1.258 . S
C167 O164 1.247 . S
C167 O165 1.258 . S
C168 C169 1.363 . S
C168 C174 1.379 . S
C168 N176 1.356 . S
C169 C168 1.363 . S
C169 C175 1.363 . S
C170 C171 1.363 . S
C170 C175 1.379 . S
C170 N177 1.356 . S
C171 C170 1.363 . S
C171 C174 1.363 . S
N172 C174 1.356 . S
N172 H184 0.984 . S
N172 H185 0.985 . S
N173 C175 1.356 . S
N173 H178 0.984 . S
N173 H179 0.985 . S
C174 C168 1.379 . S
C174 C171 1.363 . S
C174 N172 1.356 . S
C175 C169 1.363 . S
C175 C170 1.379 . S
C175 N173 1.356 . S
N176 C168 1.356 . S
N176 H182 0.984 . S
N176 H183 0.984 . S
N177 C170 1.356 . S
N177 H180 0.984 . S
N177 H181 0.985 . S
H178 N173 0.984 . S
H179 N173 0.985 . S
H180 N177 0.984 . S
H181 N177 0.985 . S
H182 N176 0.984 . S
H183 N176 0.984 . S
H184 N172 0.984 . S
H185 N172 0.985 . S
C186 C187 1.363 . S
C186 C192 1.379 . S
C186 N194 1.356 . S
C187 C186 1.363 . S
C187 C193 1.363 . S
C188 C189 1.363 . S
C188 C193 1.379 . S
C188 N195 1.356 . S
C189 C188 1.363 . S
C189 C192 1.363 . S
N190 C192 1.356 . S
N190 H202 0.984 . S
N190 H203 0.985 . S
N191 C193 1.356 . S
N191 H196 0.984 . S
N191 H197 0.985 . S
C192 C186 1.379 . S
C192 C189 1.363 . S
C192 N190 1.356 . S
C193 C187 1.363 . S
C193 C188 1.379 . S
C193 N191 1.356 . S
N194 C186 1.356 . S
N194 H200 0.984 . S
N194 H201 0.984 . S
N195 C188 1.356 . S
N195 H198 0.984 . S
N195 H199 0.985 . S
H196 N191 0.984 . S
H197 N191 0.985 . S
H198 N195 0.984 . S
H199 N195 0.985 . S
H200 N194 0.984 . S
H201 N194 0.984 . S
H202 N190 0.984 . S
H203 N190 0.985 . S
C204 C205 1.363 . S
C204 C210 1.379 1_556 S
C204 N212 1.356 . S
C205 C204 1.363 . S
C205 C211 1.363 . S
C206 C207 1.363 . S
C206 C211 1.379 1_554 S
C206 N213 1.356 . S
C207 C206 1.363 . S
C207 C210 1.363 . S
N208 C210 1.356 . S
N208 H220 0.984 . S
N208 H221 0.985 . S
N209 C211 1.356 . S
N209 H214 0.984 . S
N209 H215 0.985 . S
C210 C204 1.379 1_554 S
C210 C207 1.363 . S
C210 N208 1.356 . S
C211 C205 1.363 . S
C211 C206 1.379 1_556 S
C211 N209 1.356 . S
N212 C204 1.356 . S
N212 H218 0.984 . S
N212 H219 0.984 . S
N213 C206 1.356 . S
N213 H216 0.984 . S
N213 H217 0.985 . S
H214 N209 0.984 . S
H215 N209 0.985 . S
H216 N213 0.984 . S
H217 N213 0.985 . S
H218 N212 0.984 . S
H219 N212 0.984 . S
H220 N208 0.984 . S
H221 N208 0.985 . S
C222 C223 1.363 . S
C222 C228 1.379 . S
C222 N230 1.356 . S
C223 C222 1.363 . S
C223 C229 1.363 . S
C224 C225 1.363 . S
C224 C229 1.379 . S
C224 N231 1.356 . S
C225 C224 1.363 . S
C225 C228 1.363 . S
N226 C228 1.356 . S
N226 H238 0.984 . S
N226 H239 0.985 . S
N227 C229 1.356 . S
N227 H232 0.984 . S
N227 H233 0.985 . S
C228 C222 1.379 . S
C228 C225 1.363 . S
C228 N226 1.356 . S
C229 C223 1.363 . S
C229 C224 1.379 . S
C229 N227 1.356 . S
N230 C222 1.356 . S
N230 H236 0.984 . S
N230 H237 0.984 . S
N231 C224 1.356 . S
N231 H234 0.984 . S
N231 H235 0.985 . S
H232 N227 0.984 . S
H233 N227 0.985 . S
H234 N231 0.984 . S
H235 N231 0.985 . S
H236 N230 0.984 . S
H237 N230 0.984 . S
H238 N226 0.984 . S
H239 N226 0.985 . S
C240 C241 1.363 . S
C240 C246 1.379 . S
C240 N248 1.356 . S
C241 C240 1.363 . S
C241 C247 1.363 . S
C242 C243 1.363 . S
C242 C247 1.379 . S
C242 N249 1.356 . S
C243 C242 1.363 . S
C243 C246 1.363 . S
N244 C246 1.356 . S
N244 H256 0.984 . S
N244 H257 0.985 . S
N245 C247 1.356 . S
N245 H250 0.984 . S
N245 H251 0.985 . S
C246 C240 1.379 . S
C246 C243 1.363 . S
C246 N244 1.356 . S
C247 C241 1.363 . S
C247 C242 1.379 . S
C247 N245 1.356 . S
N248 C240 1.356 . S
N248 H254 0.984 . S
N248 H255 0.984 . S
N249 C242 1.356 . S
N249 H252 0.984 . S
N249 H253 0.985 . S
H250 N245 0.984 . S
H251 N245 0.985 . S
H252 N249 0.984 . S
H253 N249 0.985 . S
H254 N248 0.984 . S
H255 N248 0.984 . S
H256 N244 0.984 . S
H257 N244 0.985 . S
C258 C259 1.363 . S
C258 C264 1.379 1_554 S
C258 N266 1.356 . S
C259 C258 1.363 . S
C259 C265 1.363 . S
C260 C261 1.363 . S
C260 C265 1.379 1_556 S
C260 N267 1.356 . S
C261 C260 1.363 . S
C261 C264 1.363 . S
N262 C264 1.356 . S
N262 H274 0.984 . S
N262 H275 0.985 . S
N263 C265 1.356 . S
N263 H268 0.984 . S
N263 H269 0.985 . S
C264 C258 1.379 1_556 S
C264 C261 1.363 . S
C264 N262 1.356 . S
C265 C259 1.363 . S
C265 C260 1.379 1_554 S
C265 N263 1.356 . S
N266 C258 1.356 . S
N266 H272 0.984 . S
N266 H273 0.984 . S
N267 C260 1.356 . S
N267 H270 0.984 . S
N267 H271 0.985 . S
H268 N263 0.984 . S
H269 N263 0.985 . S
H270 N267 0.984 . S
H271 N267 0.985 . S
H272 N266 0.984 . S
H273 N266 0.984 . S
H274 N262 0.984 . S
H275 N262 0.985 . S
C276 C277 1.363 . S
C276 C282 1.379 . S
C276 N284 1.356 . S
C277 C276 1.363 . S
C277 C283 1.363 1_554 S
C278 C279 1.363 . S
C278 C283 1.379 . S
C278 N285 1.356 . S
C279 C278 1.363 . S
C279 C282 1.363 1_556 S
N280 C282 1.356 . S
N280 H292 0.984 . S
N280 H293 0.985 1_554 S
N281 C283 1.356 . S
N281 H286 0.984 1_556 S
N281 H287 0.985 . S
C282 C276 1.379 . S
C282 C279 1.363 1_554 S
C282 N280 1.356 . S
C283 C277 1.363 1_556 S
C283 C278 1.379 . S
C283 N281 1.356 . S
N284 C276 1.356 . S
N284 H290 0.984 . S
N284 H291 0.984 . S
N285 C278 1.356 . S
N285 H288 0.984 . S
N285 H289 0.985 . S
H286 N281 0.984 1_554 S
H287 N281 0.985 . S
H288 N285 0.984 . S
H289 N285 0.985 . S
H290 N284 0.984 . S
H291 N284 0.984 . S
H292 N280 0.984 . S
H293 N280 0.985 1_556 S
C294 C295 1.363 . S
C294 C300 1.379 . S
C294 N302 1.356 . S
C295 C294 1.363 . S
C295 C301 1.363 . S
C296 C297 1.363 . S
C296 C301 1.379 . S
C296 N303 1.356 . S
C297 C296 1.363 . S
C297 C300 1.363 . S
N298 C300 1.356 . S
N298 H310 0.984 . S
N298 H311 0.985 . S
N299 C301 1.356 . S
N299 H304 0.984 . S
N299 H305 0.985 . S
C300 C294 1.379 . S
C300 C297 1.363 . S
C300 N298 1.356 . S
C301 C295 1.363 . S
C301 C296 1.379 . S
C301 N299 1.356 . S
N302 C294 1.356 . S
N302 H308 0.984 . S
N302 H309 0.984 . S
N303 C296 1.356 . S
N303 H306 0.984 . S
N303 H307 0.985 . S
H304 N299 0.984 . S
H305 N299 0.985 . S
H306 N303 0.984 . S
H307 N303 0.985 . S
H308 N302 0.984 . S
H309 N302 0.984 . S
H310 N298 0.984 . S
H311 N298 0.985 . S
C312 C313 1.363 . S
C312 C318 1.379 . S
C312 N320 1.356 . S
C313 C312 1.363 . S
C313 C319 1.363 . S
C314 C315 1.363 . S
C314 C319 1.379 . S
C314 N321 1.356 . S
C315 C314 1.363 . S
C315 C318 1.363 . S
N316 C318 1.356 . S
N316 H328 0.984 . S
N316 H329 0.985 . S
N317 C319 1.356 . S
N317 H322 0.984 . S
N317 H323 0.985 . S
C318 C312 1.379 . S
C318 C315 1.363 . S
C318 N316 1.356 . S
C319 C313 1.363 . S
C319 C314 1.379 . S
C319 N317 1.356 . S
N320 C312 1.356 . S
N320 H326 0.984 . S
N320 H327 0.984 . S
N321 C314 1.356 . S
N321 H324 0.984 . S
N321 H325 0.985 . S
H322 N317 0.984 . S
H323 N317 0.985 . S
H324 N321 0.984 . S
H325 N321 0.985 . S
H326 N320 0.984 . S
H327 N320 0.984 . S
H328 N316 0.984 . S
H329 N316 0.985 . S
C330 C331 1.363 . S
C330 C336 1.379 . S
C330 N338 1.356 . S
C331 C330 1.363 . S
C331 C337 1.363 1_554 S
C332 C333 1.363 . S
C332 C337 1.379 . S
C332 N339 1.356 . S
C333 C332 1.363 . S
C333 C336 1.363 1_556 S
N334 C336 1.356 . S
N334 H346 0.984 . S
N334 H347 0.985 1_554 S
N335 C337 1.356 . S
N335 H340 0.984 1_556 S
N335 H341 0.985 . S
C336 C330 1.379 . S
C336 C333 1.363 1_554 S
C336 N334 1.356 . S
C337 C331 1.363 1_556 S
C337 C332 1.379 . S
C337 N335 1.356 . S
N338 C330 1.356 . S
N338 H344 0.984 . S
N338 H345 0.984 . S
N339 C332 1.356 . S
N339 H342 0.984 . S
N339 H343 0.985 . S
H340 N335 0.984 1_554 S
H341 N335 0.985 . S
H342 N339 0.984 . S
H343 N339 0.985 . S
H344 N338 0.984 . S
H345 N338 0.984 . S
H346 N334 0.984 . S
H347 N334 0.985 1_556 S
C348 C349 1.363 . S
C348 C354 1.379 . S
C348 N356 1.356 . S
C349 C348 1.363 . S
C349 C355 1.363 . S
C350 C351 1.363 . S
C350 C355 1.379 . S
C350 N357 1.356 . S
C351 C350 1.363 . S
C351 C354 1.363 . S
N352 C354 1.356 . S
N352 H364 0.984 . S
N352 H365 0.985 . S
N353 C355 1.356 . S
N353 H358 0.984 . S
N353 H359 0.985 . S
C354 C348 1.379 . S
C354 C351 1.363 . S
C354 N352 1.356 . S
C355 C349 1.363 . S
C355 C350 1.379 . S
C355 N353 1.356 . S
N356 C348 1.356 . S
N356 H362 0.984 . S
N356 H363 0.984 . S
N357 C350 1.356 . S
N357 H360 0.984 . S
N357 H361 0.985 . S
H358 N353 0.984 . S
H359 N353 0.985 . S
H360 N357 0.984 . S
H361 N357 0.985 . S
H362 N356 0.984 . S
H363 N356 0.984 . S
H364 N352 0.984 . S
H365 N352 0.985 . S
C366 C367 1.363 . S
C366 C372 1.379 . S
C366 N374 1.356 . S
C367 C366 1.363 . S
C367 C373 1.363 . S
C368 C369 1.363 . S
C368 C373 1.379 . S
C368 N375 1.356 . S
C369 C368 1.363 . S
C369 C372 1.363 . S
N370 C372 1.356 . S
N370 H382 0.984 . S
N370 H383 0.985 . S
N371 C373 1.356 . S
N371 H376 0.984 . S
N371 H377 0.985 . S
C372 C366 1.379 . S
C372 C369 1.363 . S
C372 N370 1.356 . S
C373 C367 1.363 . S
C373 C368 1.379 . S
C373 N371 1.356 . S
N374 C366 1.356 . S
N374 H380 0.984 . S
N374 H381 0.984 . S
N375 C368 1.356 . S
N375 H378 0.984 . S
N375 H379 0.985 . S
H376 N371 0.984 . S
H377 N371 0.985 . S
H378 N375 0.984 . S
H379 N375 0.985 . S
H380 N374 0.984 . S
H381 N374 0.984 . S
H382 N370 0.984 . S
H383 N370 0.985 . S
C384 C385 1.363 . S
C384 C390 1.379 . S
C384 N392 1.356 . S
C385 C384 1.363 . S
C385 C391 1.363 . S
C386 C387 1.363 . S
C386 C391 1.379 . S
C386 N393 1.356 . S
C387 C386 1.363 . S
C387 C390 1.363 . S
N388 C390 1.356 . S
N388 H400 0.984 . S
N388 H401 0.985 . S
N389 C391 1.356 . S
N389 H394 0.984 . S
N389 H395 0.985 1_554 S
C390 C384 1.379 . S
C390 C387 1.363 . S
C390 N388 1.356 . S
C391 C385 1.363 . S
C391 C386 1.379 . S
C391 N389 1.356 . S
N392 C384 1.356 . S
N392 H398 0.984 . S
N392 H399 0.984 . S
N393 C386 1.356 . S
N393 H396 0.984 . S
N393 H397 0.985 1_554 S
H394 N389 0.984 . S
H395 N389 0.985 1_556 S
H396 N393 0.984 . S
H397 N393 0.985 1_556 S
H398 N392 0.984 . S
H399 N392 0.984 . S
H400 N388 0.984 . S
H401 N388 0.985 . S
C402 C403 1.363 . S
C402 C408 1.379 1_655 S
C402 N410 1.356 . S
C403 C402 1.363 . S
C403 C409 1.363 . S
C404 C405 1.363 . S
C404 C409 1.379 1_455 S
C404 N411 1.356 . S
C405 C404 1.363 . S
C405 C408 1.363 . S
N406 C408 1.356 . S
N406 H418 0.984 . S
N406 H419 0.985 . S
N407 C409 1.356 . S
N407 H412 0.984 . S
N407 H413 0.985 . S
C408 C402 1.379 1_455 S
C408 C405 1.363 . S
C408 N406 1.356 . S
C409 C403 1.363 . S
C409 C404 1.379 1_655 S
C409 N407 1.356 . S
N410 C402 1.356 . S
N410 H416 0.984 . S
N410 H417 0.984 . S
N411 C404 1.356 . S
N411 H414 0.984 . S
N411 H415 0.985 . S
H412 N407 0.984 . S
H413 N407 0.985 . S
H414 N411 0.984 . S
H415 N411 0.985 . S
H416 N410 0.984 . S
H417 N410 0.984 . S
H418 N406 0.984 . S
H419 N406 0.985 . S
C420 C421 1.363 . S
C420 C426 1.379 1_545 S
C420 N428 1.356 . S
C421 C420 1.363 . S
C421 C427 1.363 . S
C422 C423 1.363 . S
C422 C427 1.379 1_565 S
C422 N429 1.356 . S
C423 C422 1.363 . S
C423 C426 1.363 . S
N424 C426 1.356 . S
N424 H436 0.984 . S
N424 H437 0.985 . S
N425 C427 1.356 . S
N425 H430 0.984 . S
N425 H431 0.985 . S
C426 C420 1.379 1_565 S
C426 C423 1.363 . S
C426 N424 1.356 . S
C427 C421 1.363 . S
C427 C422 1.379 1_545 S
C427 N425 1.356 . S
N428 C420 1.356 . S
N428 H434 0.984 . S
N428 H435 0.984 . S
N429 C422 1.356 . S
N429 H432 0.984 . S
N429 H433 0.985 . S
H430 N425 0.984 . S
H431 N425 0.985 . S
H432 N429 0.984 . S
H433 N429 0.985 . S
H434 N428 0.984 . S
H435 N428 0.984 . S
H436 N424 0.984 . S
H437 N424 0.985 . S
C438 C439 1.363 . S
C438 C444 1.379 . S
C438 N446 1.356 . S
C439 C438 1.363 . S
C439 C445 1.363 . S
C440 C441 1.363 . S
C440 C445 1.379 . S
C440 N447 1.356 . S
C441 C440 1.363 . S
C441 C444 1.363 . S
N442 C444 1.356 . S
N442 H454 0.984 . S
N442 H455 0.985 . S
N443 C445 1.356 . S
N443 H448 0.984 . S
N443 H449 0.985 . S
C444 C438 1.379 . S
C444 C441 1.363 . S
C444 N442 1.356 . S
C445 C439 1.363 . S
C445 C440 1.379 . S
C445 N443 1.356 . S
N446 C438 1.356 . S
N446 H452 0.984 . S
N446 H453 0.984 . S
N447 C440 1.356 . S
N447 H450 0.984 . S
N447 H451 0.985 . S
H448 N443 0.984 . S
H449 N443 0.985 . S
H450 N447 0.984 . S
H451 N447 0.985 . S
H452 N446 0.984 . S
H453 N446 0.984 . S
H454 N442 0.984 . S
H455 N442 0.985 . S
C456 C457 1.363 . S
C456 C462 1.379 1_455 S
C456 N464 1.356 . S
C457 C456 1.363 . S
C457 C463 1.363 . S
C458 C459 1.363 . S
C458 C463 1.379 1_655 S
C458 N465 1.356 . S
C459 C458 1.363 . S
C459 C462 1.363 . S
N460 C462 1.356 . S
N460 H472 0.984 . S
N460 H473 0.985 . S
N461 C463 1.356 . S
N461 H466 0.984 . S
N461 H467 0.985 1_556 S
C462 C456 1.379 1_655 S
C462 C459 1.363 . S
C462 N460 1.356 . S
C463 C457 1.363 . S
C463 C458 1.379 1_455 S
C463 N461 1.356 . S
N464 C456 1.356 . S
N464 H470 0.984 . S
N464 H471 0.984 . S
N465 C458 1.356 . S
N465 H468 0.984 . S
N465 H469 0.985 1_556 S
H466 N461 0.984 . S
H467 N461 0.985 1_554 S
H468 N465 0.984 . S
H469 N465 0.985 1_554 S
H470 N464 0.984 . S
H471 N464 0.984 . S
H472 N460 0.984 . S
H473 N460 0.985 . S
C474 C475 1.363 . S
C474 C480 1.379 1_565 S
C474 N482 1.356 . S
C475 C474 1.363 . S
C475 C481 1.363 . S
C476 C477 1.363 . S
C476 C481 1.379 1_545 S
C476 N483 1.356 . S
C477 C476 1.363 . S
C477 C480 1.363 . S
N478 C480 1.356 . S
N478 H490 0.984 . S
N478 H491 0.985 . S
N479 C481 1.356 . S
N479 H484 0.984 . S
N479 H485 0.985 . S
C480 C474 1.379 1_545 S
C480 C477 1.363 . S
C480 N478 1.356 . S
C481 C475 1.363 . S
C481 C476 1.379 1_565 S
C481 N479 1.356 . S
N482 C474 1.356 . S
N482 H488 0.984 . S
N482 H489 0.984 . S
N483 C476 1.356 . S
N483 H486 0.984 . S
N483 H487 0.985 . S
H484 N479 0.984 . S
H485 N479 0.985 . S
H486 N483 0.984 . S
H487 N483 0.985 . S
H488 N482 0.984 . S
H489 N482 0.984 . S
H490 N478 0.984 . S
H491 N478 0.985 . S
C492 C493 1.363 . S
C492 C498 1.379 . S
C492 N500 1.356 . S
C493 C492 1.363 . S
C493 C499 1.363 . S
C494 C495 1.363 . S
C494 C499 1.379 . S
C494 N501 1.356 . S
C495 C494 1.363 . S
C495 C498 1.363 . S
N496 C498 1.356 . S
N496 H508 0.984 . S
N496 H509 0.985 . S
N497 C499 1.356 . S
N497 H502 0.984 . S
N497 H503 0.985 . S
C498 C492 1.379 . S
C498 C495 1.363 . S
C498 N496 1.356 . S
C499 C493 1.363 . S
C499 C494 1.379 . S
C499 N497 1.356 . S
N500 C492 1.356 . S
N500 H506 0.984 . S
N500 H507 0.984 . S
N501 C494 1.356 . S
N501 H504 0.984 . S
N501 H505 0.985 . S
H502 N497 0.984 . S
H503 N497 0.985 . S
H504 N501 0.984 . S
H505 N501 0.985 . S
H506 N500 0.984 . S
H507 N500 0.984 . S
H508 N496 0.984 . S
H509 N496 0.985 . S
C510 C511 1.363 . S
C510 C516 1.379 . S
C510 N518 1.356 . S
C511 C510 1.363 . S
C511 C517 1.363 . S
C512 C513 1.363 . S
C512 C517 1.379 . S
C512 N519 1.356 . S
C513 C512 1.363 . S
C513 C516 1.363 . S
N514 C516 1.356 . S
N514 H526 0.984 . S
N514 H527 0.985 . S
N515 C517 1.356 . S
N515 H520 0.984 . S
N515 H521 0.985 . S
C516 C510 1.379 . S
C516 C513 1.363 . S
C516 N514 1.356 . S
C517 C511 1.363 . S
C517 C512 1.379 . S
C517 N515 1.356 . S
N518 C510 1.356 . S
N518 H524 0.984 . S
N518 H525 0.984 . S
N519 C512 1.356 . S
N519 H522 0.984 . S
N519 H523 0.985 . S
H520 N515 0.984 . S
H521 N515 0.985 . S
H522 N519 0.984 . S
H523 N519 0.985 . S
H524 N518 0.984 . S
H525 N518 0.984 . S
H526 N514 0.984 . S
H527 N514 0.985 . S
C528 C529 1.363 . S
C528 C534 1.379 . S
C528 N536 1.356 . S
C529 C528 1.363 . S
C529 C535 1.363 . S
C530 C531 1.363 . S
C530 C535 1.379 . S
C530 N537 1.356 . S
C531 C530 1.363 . S
C531 C534 1.363 . S
N532 C534 1.356 . S
N532 H544 0.984 . S
N532 H545 0.985 . S
N533 C535 1.356 . S
N533 H538 0.984 . S
N533 H539 0.985 . S
C534 C528 1.379 . S
C534 C531 1.363 . S
C534 N532 1.356 . S
C535 C529 1.363 . S
C535 C530 1.379 . S
C535 N533 1.356 . S
N536 C528 1.356 . S
N536 H542 0.984 . S
N536 H543 0.984 . S
N537 C530 1.356 . S
N537 H540 0.984 . S
N537 H541 0.985 . S
H538 N533 0.984 . S
H539 N533 0.985 . S
H540 N537 0.984 . S
H541 N537 0.985 . S
H542 N536 0.984 . S
H543 N536 0.984 . S
H544 N532 0.984 . S
H545 N532 0.985 . S
C546 C547 1.363 . S
C546 C552 1.379 . S
C546 N554 1.356 . S
C547 C546 1.363 . S
C547 C553 1.363 . S
C548 C549 1.363 . S
C548 C553 1.379 . S
C548 N555 1.356 . S
C549 C548 1.363 . S
C549 C552 1.363 . S
N550 C552 1.356 . S
N550 H562 0.984 . S
N550 H563 0.985 . S
N551 C553 1.356 . S
N551 H556 0.984 . S
N551 H557 0.985 . S
C552 C546 1.379 . S
C552 C549 1.363 . S
C552 N550 1.356 . S
C553 C547 1.363 . S
C553 C548 1.379 . S
C553 N551 1.356 . S
N554 C546 1.356 . S
N554 H560 0.984 . S
N554 H561 0.984 . S
N555 C548 1.356 . S
N555 H558 0.984 . S
N555 H559 0.985 . S
H556 N551 0.984 . S
H557 N551 0.985 . S
H558 N555 0.984 . S
H559 N555 0.985 . S
H560 N554 0.984 . S
H561 N554 0.984 . S
H562 N550 0.984 . S
H563 N550 0.985 . S
C564 C565 1.363 . S
C564 C570 1.379 . S
C564 N572 1.356 . S
C565 C564 1.363 . S
C565 C571 1.363 . S
C566 C567 1.363 . S
C566 C571 1.379 . S
C566 N573 1.356 . S
C567 C566 1.363 . S
C567 C570 1.363 . S
N568 C570 1.356 . S
N568 H580 0.984 . S
N568 H581 0.985 . S
N569 C571 1.356 . S
N569 H574 0.984 . S
N569 H575 0.985 . S
C570 C564 1.379 . S
C570 C567 1.363 . S
C570 N568 1.356 . S
C571 C565 1.363 . S
C571 C566 1.379 . S
C571 N569 1.356 . S
N572 C564 1.356 . S
N572 H578 0.984 . S
N572 H579 0.984 . S
N573 C566 1.356 . S
N573 H576 0.984 . S
N573 H577 0.985 . S
H574 N569 0.984 . S
H575 N569 0.985 . S
H576 N573 0.984 . S
H577 N573 0.985 . S
H578 N572 0.984 . S
H579 N572 0.984 . S
H580 N568 0.984 . S
H581 N568 0.985 . S
C582 C583 1.363 . S
C582 C588 1.379 . S
C582 N590 1.356 . S
C583 C582 1.363 . S
C583 C589 1.363 . S
C584 C585 1.363 . S
C584 C589 1.379 . S
C584 N591 1.356 . S
C585 C584 1.363 . S
C585 C588 1.363 . S
N586 C588 1.356 . S
N586 H598 0.984 . S
N586 H599 0.985 . S
N587 C589 1.356 . S
N587 H592 0.984 . S
N587 H593 0.985 . S
C588 C582 1.379 . S
C588 C585 1.363 . S
C588 N586 1.356 . S
C589 C583 1.363 . S
C589 C584 1.379 . S
C589 N587 1.356 . S
N590 C582 1.356 . S
N590 H596 0.984 . S
N590 H597 0.984 . S
N591 C584 1.356 . S
N591 H594 0.984 . S
N591 H595 0.985 . S
H592 N587 0.984 . S
H593 N587 0.985 . S
H594 N591 0.984 . S
H595 N591 0.985 . S
H596 N590 0.984 . S
H597 N590 0.984 . S
H598 N586 0.984 . S
H599 N586 0.985 . S
C169 C12 1.643 . S
C171 C85 1.642 . S
C187 C15 1.642 . S
C189 C98 1.643 . S
C205 C28 1.643 . S
C207 C125 1.642 . S
C223 C43 1.642 . S
C225 C138 1.643 . S
C241 C56 1.643 . S
C243 C140 1.643 . S
C259 C155 1.642 . S
C261 C70 1.643 . S
C277 C0 1.764 . S
C279 C152 1.764 . S
C295 C27 1.763 . S
C297 C167 1.763 . S
C313 C40 1.764 . S
C315 C97 1.763 . S
C331 C55 1.763 . S
C333 C110 1.764 . S
C349 C68 1.764 . S
C351 C113 1.763 . S
C367 C82 1.764 . S
C369 C126 1.764 . S
C385 C1 1.762 . S
C387 C54 1.765 . S
C403 C26 1.764 . S
C405 C69 1.761 . S
C421 C83 1.762 . S
C423 C41 1.762 . S
C439 C96 1.765 . S
C441 C127 1.762 . S
C457 C153 1.762 . S
C459 C111 1.762 . S
C475 C112 1.765 . S
C477 C166 1.765 . S
C493 C84 1.210 . S
C495 C13 1.209 . S
C511 C14 1.210 . S
C513 C99 1.209 . S
C529 C29 1.209 . S
C531 C124 1.210 . S
C547 C139 1.209 . S
C549 C42 1.210 . S
C565 C141 1.209 . S
C567 C57 1.209 . S
C583 C71 1.209 . S
C585 C154 1.210 . S
