# Generated by pormake.
# Topology umy, (4)-cn, num edge types: 1
# Building blocks:
#     Node 0, Type 0, BuildingBlock: KUFVIS_clean_sbu_0, # of connection points: 4
#     Node 1, Type 0, BuildingBlock: KUFVIS_clean_sbu_0, # of connection points: 4
#     Node 2, Type 0, BuildingBlock: KUFVIS_clean_sbu_0, # of connection points: 4
#     Node 3, Type 0, BuildingBlock: KUFVIS_clean_sbu_0, # of connection points: 4
#     Node 4, Type 0, BuildingBlock: KUFVIS_clean_sbu_0, # of connection points: 4
#     Node 5, Type 0, BuildingBlock: KUFVIS_clean_sbu_0, # of connection points: 4
#     Node 6, Type 0, BuildingBlock: KUFVIS_clean_sbu_0, # of connection points: 4
#     Node 7, Type 0, BuildingBlock: KUFVIS_clean_sbu_0, # of connection points: 4
#     Node 8, Type 0, BuildingBlock: KUFVIS_clean_sbu_0, # of connection points: 4
#     Node 9, Type 0, BuildingBlock: KUFVIS_clean_sbu_0, # of connection points: 4
#     Node 10, Type 0, BuildingBlock: KUFVIS_clean_sbu_0, # of connection points: 4
#     Node 11, Type 0, BuildingBlock: KUFVIS_clean_sbu_0, # of connection points: 4
#     Edge 12, Type (0, 0), BuildingBlock: XUDNAN_clean_linker_2, # of connection points: 2
#     Edge 13, Type (0, 0), BuildingBlock: XUDNAN_clean_linker_2, # of connection points: 2
#     Edge 14, Type (0, 0), BuildingBlock: XUDNAN_clean_linker_2, # of connection points: 2
#     Edge 15, Type (0, 0), BuildingBlock: XUDNAN_clean_linker_2, # of connection points: 2
#     Edge 16, Type (0, 0), BuildingBlock: XUDNAN_clean_linker_2, # of connection points: 2
#     Edge 17, Type (0, 0), BuildingBlock: XUDNAN_clean_linker_2, # of connection points: 2
#     Edge 18, Type (0, 0), BuildingBlock: XUDNAN_clean_linker_2, # of connection points: 2
#     Edge 19, Type (0, 0), BuildingBlock: XUDNAN_clean_linker_2, # of connection points: 2
#     Edge 20, Type (0, 0), BuildingBlock: XUDNAN_clean_linker_2, # of connection points: 2
#     Edge 21, Type (0, 0), BuildingBlock: XUDNAN_clean_linker_2, # of connection points: 2
#     Edge 22, Type (0, 0), BuildingBlock: XUDNAN_clean_linker_2, # of connection points: 2
#     Edge 23, Type (0, 0), BuildingBlock: XUDNAN_clean_linker_2, # of connection points: 2
#     Edge 24, Type (0, 0), BuildingBlock: XUDNAN_clean_linker_2, # of connection points: 2
#     Edge 25, Type (0, 0), BuildingBlock: XUDNAN_clean_linker_2, # of connection points: 2
#     Edge 26, Type (0, 0), BuildingBlock: XUDNAN_clean_linker_2, # of connection points: 2
#     Edge 27, Type (0, 0), BuildingBlock: XUDNAN_clean_linker_2, # of connection points: 2
#     Edge 28, Type (0, 0), BuildingBlock: XUDNAN_clean_linker_2, # of connection points: 2
#     Edge 29, Type (0, 0), BuildingBlock: XUDNAN_clean_linker_2, # of connection points: 2
#     Edge 30, Type (0, 0), BuildingBlock: XUDNAN_clean_linker_2, # of connection points: 2
#     Edge 31, Type (0, 0), BuildingBlock: XUDNAN_clean_linker_2, # of connection points: 2
#     Edge 32, Type (0, 0), BuildingBlock: XUDNAN_clean_linker_2, # of connection points: 2
#     Edge 33, Type (0, 0), BuildingBlock: XUDNAN_clean_linker_2, # of connection points: 2
#     Edge 34, Type (0, 0), BuildingBlock: XUDNAN_clean_linker_2, # of connection points: 2
#     Edge 35, Type (0, 0), BuildingBlock: XUDNAN_clean_linker_2, # of connection points: 2
# Relax obj value: 0.092
# Max RMSD: 0.078
# Mean RMSD: 0.078
data_MOF--net-umy--node1-KUFVIS_clean_sbu_0--edge1-XUDNAN_clean_linker_2
_symmetry_space_group_name_H-M    P1
_symmetry_Int_Tables_number       1
_symmetry_cell_setting            triclinic
loop_
_symmetry_equiv_pos_as_xyz
'x, y, z'
_cell_length_a     38.250991
_cell_length_b     38.254744
_cell_length_c     51.278657
_cell_angle_alpha  89.966342
_cell_angle_beta   90.011326
_cell_angle_gamma 119.94586
loop_
_atom_site_label
_atom_site_type_symbol
_atom_site_fract_x
_atom_site_fract_y
_atom_site_fract_z
_atom_type_partial_charge
Mn0 Mn 0.08527 0.3459 0.13249 0.0
Mn1 Mn 0.1767 0.42967 0.13833 0.0
C2 C 0.13276 0.34745 0.16168 0.0
C3 C 0.01783 0.30658 0.14528 0.0
C4 C 0.1539 0.37164 0.09275 0.0
O5 O 0.07601 0.38955 0.11581 0.0
O6 O 0.13699 0.44349 0.12403 0.0
C7 C 0.15603 0.47061 0.17946 0.0
N8 N 0.17929 0.45526 0.1708 0.0
C9 C 0.21896 0.47571 0.21003 0.0
C10 C 0.19562 0.49197 0.21933 0.0
C11 C 0.16387 0.48921 0.20403 0.0
C12 C 0.20941 0.45709 0.18559 0.0
H13 H 0.1317 0.46867 0.1677 0.0
C14 C 0.10062 0.42764 0.11574 0.0
O15 O 0.03022 0.30157 0.12276 0.0
O16 O 0.04411 0.33555 0.15979 0.0
N17 N 0.21821 0.421 0.15226 0.0
C18 C 0.23818 0.40413 0.14046 0.0
C19 C 0.27141 0.40527 0.15294 0.0
C20 C 0.28391 0.42385 0.1774 0.0
C21 C 0.26308 0.44121 0.1891 0.0
C22 C 0.23048 0.4396 0.17558 0.0
H23 H 0.22851 0.38933 0.12189 0.0
O24 O 0.10353 0.31332 0.15338 0.0
O25 O 0.13326 0.37935 0.1527 0.0
O26 O 0.1185 0.34626 0.1008 0.0
O27 O 0.17726 0.40438 0.10481 0.0
C28 C 0.2734 0.46004 0.21366 0.0
C29 C 0.25126 0.47713 0.22407 0.0
H30 H 0.20166 0.50645 0.23824 0.0
H31 H 0.1456 0.50152 0.21111 0.0
H32 H 0.28718 0.39163 0.14378 0.0
H33 H 0.30934 0.42439 0.1871 0.0
H34 H 0.29819 0.46146 0.22473 0.0
H35 H 0.25934 0.49128 0.24288 0.0
Mn36 Mn 0.73904 0.08462 0.29868 0.0
Mn37 Mn 0.74441 0.175 0.30028 0.0
C38 C 0.783 0.1348 0.32806 0.0
C39 C 0.71369 0.01855 0.3138 0.0
C40 C 0.78425 0.15156 0.2582 0.0
O41 O 0.68537 0.07139 0.28135 0.0
O42 O 0.6941 0.1338 0.28365 0.0
C43 C 0.67558 0.1539 0.33574 0.0
N44 N 0.71526 0.17796 0.32957 0.0
C45 C 0.72334 0.2262 0.36235 0.0
C46 C 0.68256 0.20204 0.3691 0.0
C47 C 0.65871 0.16543 0.35596 0.0
C48 C 0.73891 0.2122 0.3429 0.0
H49 H 0.65682 0.12642 0.3251 0.0
C50 C 0.67304 0.0965 0.27766 0.0
O51 O 0.73035 0.02947 0.29097 0.0
O52 O 0.71004 0.04528 0.32715 0.0
N53 N 0.79093 0.21848 0.31619 0.0
C54 C 0.82948 0.23861 0.30699 0.0
C55 C 0.85713 0.2762 0.31769 0.0
C56 C 0.84455 0.29315 0.33727 0.0
C57 C 0.80484 0.2717 0.34661 0.0
C58 C 0.77888 0.234 0.33557 0.0
H59 H 0.83899 0.22619 0.2915 0.0
O60 O 0.7899 0.10681 0.3197 0.0
O61 O 0.75121 0.1335 0.31804 0.0
O62 O 0.77139 0.11556 0.26616 0.0
O63 O 0.77601 0.17606 0.2697 0.0
C64 C 0.78952 0.28698 0.36566 0.0
C65 C 0.74877 0.26422 0.37351 0.0
H66 H 0.6692 0.21145 0.38419 0.0
H67 H 0.62718 0.14665 0.36096 0.0
H68 H 0.88781 0.29244 0.3105 0.0
H69 H 0.8657 0.32257 0.34508 0.0
H70 H 0.80874 0.31634 0.37428 0.0
H71 H 0.73712 0.27642 0.38795 0.0
Mn72 Mn 0.67143 0.74386 0.46772 0.0
Mn73 Mn 0.58676 0.75031 0.46924 0.0
C74 C 0.66539 0.78777 0.4972 0.0
C75 C 0.7118 0.71807 0.48309 0.0
C76 C 0.6501 0.78816 0.42675 0.0
O77 O 0.63051 0.69073 0.44995 0.0
O78 O 0.57615 0.69836 0.45422 0.0
C79 C 0.53898 0.6848 0.50695 0.0
N80 N 0.55535 0.72406 0.49948 0.0
C81 C 0.51881 0.7367 0.53277 0.0
C82 C 0.50136 0.69635 0.54078 0.0
C83 C 0.51192 0.67043 0.52802 0.0
C84 C 0.54689 0.7497 0.51242 0.0
H85 H 0.54621 0.66454 0.49675 0.0
C86 C 0.59264 0.67765 0.44765 0.0
O87 O 0.71808 0.73539 0.46045 0.0
O88 O 0.68069 0.71355 0.496 0.0
N89 N 0.59186 0.79869 0.48376 0.0
C90 C 0.61045 0.83644 0.47326 0.0
C91 C 0.60336 0.86615 0.48383 0.0
C92 C 0.57604 0.85636 0.50452 0.0
C93 C 0.55682 0.8172 0.51484 0.0
C94 C 0.56594 0.78914 0.50394 0.0
H95 H 0.62975 0.84358 0.45655 0.0
O96 O 0.70022 0.79425 0.48906 0.0
O97 O 0.63489 0.75647 0.48687 0.0
O98 O 0.67419 0.77715 0.43557 0.0
O99 O 0.61674 0.7793 0.43762 0.0
C100 C 0.52782 0.80452 0.53486 0.0
C101 C 0.50872 0.76427 0.54374 0.0
H102 H 0.47974 0.68494 0.55661 0.0
H103 H 0.49861 0.63925 0.53407 0.0
H104 H 0.61808 0.89622 0.47558 0.0
H105 H 0.56987 0.87909 0.51225 0.0
H106 H 0.51976 0.82543 0.54338 0.0
H107 H 0.48634 0.75484 0.55908 0.0
Mn108 Mn 0.94251 0.66405 0.63696 0.0
Mn109 Mn 0.84836 0.58224 0.63889 0.0
C110 C 0.89867 0.65797 0.6703 0.0
C111 C 1.01065 0.70068 0.64863 0.0
C112 C 0.87262 0.65134 0.60112 0.0
O113 O 0.94926 0.6233 0.61487 0.0
O114 O 0.8855 0.57143 0.61787 0.0
C115 C 0.86403 0.52377 0.66707 0.0
N116 N 0.84281 0.54346 0.66446 0.0
C117 C 0.79731 0.50425 0.69894 0.0
C118 C 0.8186 0.48344 0.70193 0.0
C119 C 0.85215 0.49332 0.68597 0.0
C120 C 0.81017 0.53387 0.67952 0.0
H121 H 0.88972 0.53113 0.65478 0.0
C122 C 0.92217 0.58683 0.61017 0.0
O123 O 0.99712 0.70917 0.62779 0.0
O124 O 0.98513 0.66919 0.66179 0.0
N125 N 0.80932 0.58773 0.65902 0.0
C126 C 0.79636 0.61486 0.65639 0.0
C127 C 0.76493 0.6114 0.67233 0.0
C128 C 0.74705 0.57999 0.69068 0.0
C129 C 0.76109 0.55257 0.69314 0.0
C130 C 0.7924 0.55743 0.67665 0.0
H131 H 0.81018 0.63911 0.64239 0.0
O132 O 0.92716 0.69309 0.6627 0.0
O133 O 0.89495 0.62693 0.65729 0.0
O134 O 0.90954 0.67181 0.60791 0.0
O135 O 0.84779 0.61808 0.61178 0.0
C136 C 0.74662 0.52184 0.71214 0.0
C137 C 0.76468 0.49767 0.71501 0.0
H138 H 0.80982 0.46024 0.71666 0.0
H139 H 0.86881 0.47749 0.68823 0.0
H140 H 0.75456 0.63294 0.67052 0.0
H141 H 0.72316 0.57774 0.70316 0.0
H142 H 0.72244 0.51735 0.72518 0.0
H143 H 0.75399 0.47482 0.7301 0.0
Mn144 Mn 0.28444 0.92844 0.80339 0.0
Mn145 Mn 0.28624 0.84138 0.8046 0.0
C146 C 0.2461 0.87822 0.83413 0.0
C147 C 0.30759 0.99484 0.81714 0.0
C148 C 0.23947 0.85914 0.76432 0.0
O149 O 0.33646 0.94386 0.78327 0.0
O150 O 0.33364 0.88369 0.78568 0.0
C151 C 0.3585 0.86874 0.83795 0.0
N152 N 0.31882 0.84237 0.83311 0.0
C153 C 0.31508 0.79997 0.86886 0.0
C154 C 0.3559 0.82666 0.87431 0.0
C155 C 0.37759 0.86142 0.85893 0.0
C156 C 0.2973 0.80971 0.84837 0.0
H157 H 0.37549 0.89494 0.82577 0.0
C158 C 0.3507 0.9206 0.77843 0.0
O159 O 0.28773 0.98115 0.79551 0.0
O160 O 0.31538 0.97052 0.83025 0.0
N161 N 0.24252 0.79734 0.82231 0.0
C162 C 0.20355 0.77442 0.81425 0.0
C163 C 0.17819 0.73763 0.82674 0.0
C164 C 0.19338 0.72447 0.84708 0.0
C165 C 0.23336 0.74888 0.85532 0.0
C166 C 0.2571 0.7854 0.84229 0.0
H167 H 0.19197 0.78398 0.79829 0.0
O168 O 0.2361 0.90453 0.82687 0.0
O169 O 0.27785 0.88163 0.82261 0.0
O170 O 0.24986 0.89451 0.77248 0.0
O171 O 0.25119 0.83668 0.77501 0.0
C172 C 0.25097 0.73767 0.87533 0.0
C173 C 0.29161 0.76353 0.88244 0.0
H174 H 0.37095 0.8206 0.89009 0.0
H175 H 0.40913 0.88211 0.86296 0.0
H176 H 0.14724 0.71915 0.82042 0.0
H177 H 0.17397 0.6957 0.85637 0.0
H178 H 0.23349 0.70901 0.88519 0.0
H179 H 0.30476 0.75472 0.89802 0.0
Mn180 Mn 0.35718 0.27547 0.96751 0.0
Mn181 Mn 0.44274 0.271 0.97078 0.0
C182 C 0.36391 0.23336 0.99828 0.0
C183 C 0.3156 0.30109 0.9805 0.0
C184 C 0.38007 0.22932 0.92853 0.0
O185 O 0.39752 0.32825 0.94906 0.0
O186 O 0.45192 0.32102 0.95377 0.0
C187 C 0.48899 0.33996 0.0064 0.0
N188 N 0.4738 0.30031 1.00035 0.0
C189 C 0.51227 0.29221 0.03439 0.0
C190 C 0.52839 0.33295 0.04107 0.0
C191 C 0.51628 0.35681 0.0272 0.0
C192 C 0.4838 0.27667 0.0143 0.0
H193 H 0.48074 0.3587 0.99525 0.0
C194 C 0.43533 0.34129 0.94655 0.0
O195 O 0.31016 0.28233 0.95851 0.0
O196 O 0.34625 0.3066 0.99444 0.0
N197 N 0.43931 0.22459 0.98718 0.0
C198 C 0.42146 0.18606 0.978 0.0
C199 C 0.43131 0.15857 0.98913 0.0
C200 C 0.46011 0.17126 0.00916 0.0
C201 C 0.47763 0.21088 0.01856 0.0
C202 C 0.46612 0.23673 0.00701 0.0
H203 H 0.40013 0.17646 0.96216 0.0
O204 O 0.32888 0.22597 0.9899 0.0
O205 O 0.39413 0.2647 0.98776 0.0
O206 O 0.35605 0.24119 0.93627 0.0
O207 O 0.41329 0.23913 0.93995 0.0
C208 C 0.50728 0.2262 0.0382 0.0
C209 C 0.52436 0.26677 0.04626 0.0
H210 H 0.5503 0.34629 0.05663 0.0
H211 H 0.52867 0.38831 0.03214 0.0
H212 H 0.41738 0.12793 0.98192 0.0
H213 H 0.46833 0.15023 0.01733 0.0
H214 H 0.51735 0.20707 0.04709 0.0
H215 H 0.54733 0.27837 0.06128 0.0
Mn216 Mn 0.67569 0.94414 0.70001 0.0
Mn217 Mn 0.59445 0.85146 0.6925 0.0
C218 C 0.6779 0.8979 0.6716 0.0
C219 C 0.71376 0.01153 0.68679 0.0
C220 C 0.64882 0.87617 0.74011 0.0
O221 O 0.62965 0.95107 0.71492 0.0
O222 O 0.57736 0.8897 0.70486 0.0
C223 C 0.55316 0.86726 0.64914 0.0
N224 N 0.57077 0.84671 0.65898 0.0
C225 C 0.55377 0.8052 0.62064 0.0
C226 C 0.53504 0.82561 0.61021 0.0
C227 C 0.53504 0.85699 0.62442 0.0
C228 C 0.57153 0.81692 0.64527 0.0
H229 H 0.5527 0.89107 0.66017 0.0
C230 C 0.59176 0.92574 0.71355 0.0
O231 O 0.71818 1.00015 0.70985 0.0
O232 O 0.68586 0.98433 0.67214 0.0
N233 N 0.60713 0.81173 0.68038 0.0
C234 C 0.62579 0.79448 0.69338 0.0
C235 C 0.62824 0.76249 0.68185 0.0
C236 C 0.61139 0.74845 0.6571 0.0
C237 C 0.5922 0.76654 0.64415 0.0
C238 C 0.59045 0.79816 0.65669 0.0
H239 H 0.63919 0.80529 0.71224 0.0
O240 O 0.71099 0.9277 0.6807 0.0
O241 O 0.64488 0.89611 0.67945 0.0
O242 O 0.67469 0.9116 0.73236 0.0
O243 O 0.61722 0.85262 0.72715 0.0
C244 C 0.57473 0.75441 0.6193 0.0
C245 C 0.55551 0.77367 0.60761 0.0
H246 H 0.52066 0.81755 0.5913 0.0
H247 H 0.5208 0.87299 0.61643 0.0
H248 H 0.64324 0.74882 0.69198 0.0
H249 H 0.61352 0.72393 0.64818 0.0
H250 H 0.57585 0.73027 0.609 0.0
H251 H 0.54227 0.7639 0.5886 0.0
Mn252 Mn 0.73178 0.66873 0.86788 0.0
Mn253 Mn 0.73928 0.58406 0.86493 0.0
C254 C 0.76798 0.66093 0.83424 0.0
C255 C 0.70381 0.70894 0.85701 0.0
C256 C 0.78674 0.65158 0.90307 0.0
O257 O 0.68317 0.62903 0.8896 0.0
O258 O 0.69277 0.57556 0.88667 0.0
C259 C 0.66348 0.5289 0.83714 0.0
N260 N 0.7043 0.54656 0.8394 0.0
C261 C 0.70736 0.50637 0.80432 0.0
C262 C 0.66533 0.48765 0.80168 0.0
C263 C 0.64333 0.49905 0.81811 0.0
C264 C 0.72574 0.53553 0.82385 0.0
H265 H 0.64644 0.53742 0.84982 0.0
C266 C 0.67287 0.59236 0.89454 0.0
O267 O 0.72549 0.71559 0.87782 0.0
O268 O 0.69604 0.67725 0.84339 0.0
N269 N 0.78232 0.58724 0.84421 0.0
C270 C 0.82281 0.61249 0.84669 0.0
C271 C 0.84936 0.60734 0.83035 0.0
C272 C 0.83401 0.57616 0.81178 0.0
C273 C 0.79218 0.55064 0.80954 0.0
C274 C 0.7672 0.55713 0.82642 0.0
H275 H 0.83466 0.63652 0.8609 0.0
O276 O 0.77662 0.69651 0.84225 0.0
O277 O 0.73967 0.63036 0.84705 0.0
O278 O 0.77146 0.67337 0.89683 0.0
O279 O 0.77715 0.61839 0.89187 0.0
C280 C 0.77423 0.52029 0.7904 0.0
C281 C 0.73185 0.49816 0.78782 0.0
H282 H 0.64969 0.4649 0.78686 0.0
H283 H 0.6109 0.48484 0.81611 0.0
H284 H 0.88158 0.6274 0.83202 0.0
H285 H 0.85457 0.57261 0.79901 0.0
H286 H 0.79277 0.51457 0.77706 0.0
H287 H 0.71843 0.47563 0.77262 0.0
Mn288 Mn 0.07815 0.7301 0.0342 0.0
Mn289 Mn 0.16804 0.73372 0.03082 0.0
C290 C 0.12808 0.77461 0.00591 0.0
C291 C 1.01201 0.70638 0.01979 0.0
C292 C 0.14735 0.77429 0.07382 0.0
O293 O 0.06503 0.67631 0.0513 0.0
O294 O 0.12744 0.68445 0.04907 0.0
C295 C 0.14156 0.66381 0.99547 0.0
N296 N 0.16675 0.70362 0.00077 0.0
C297 C 0.2039 0.71251 0.96121 0.0
C298 C 0.1785 0.67161 0.95533 0.0
C299 C 0.14699 0.64722 0.97246 0.0
C300 C 0.19642 0.7276 0.98407 0.0
H301 H 0.11759 0.6448 0.00872 0.0
C302 C 0.09029 0.66437 0.05575 0.0
O303 O 0.02384 0.72281 0.04262 0.0
O304 O 0.03781 0.70157 0.00611 0.0
N305 N 0.21083 0.77937 0.01347 0.0
C306 C 0.23479 0.81735 0.02295 0.0
C307 C 0.26817 0.84537 0.00835 0.0
C308 C 0.27716 0.8338 0.98443 0.0
C309 C 0.25299 0.79416 0.97553 0.0
C310 C 0.22003 0.76759 0.9909 0.0
H311 H 0.22821 0.82641 0.04133 0.0
O312 O 0.09978 0.78138 0.01367 0.0
O313 O 0.12635 0.74199 0.01479 0.0
O314 O 0.11101 0.76169 0.06647 0.0
O315 O 0.17164 0.76625 0.06163 0.0
C316 C 0.26116 0.77956 0.95248 0.0
C317 C 0.23681 0.73869 0.94552 0.0
H318 H 0.18297 0.65862 0.93776 0.0
H319 H 0.1272 0.61563 0.96807 0.0
H320 H 0.28694 0.87577 0.01554 0.0
H321 H 0.30298 0.85544 0.97324 0.0
H322 H 0.28655 0.79927 0.94025 0.0
H323 H 0.24407 0.72735 0.92839 0.0
Mn324 Mn 0.34488 0.07016 0.20157 0.0
Mn325 Mn 0.43085 0.15952 0.19541 0.0
C326 C 0.3494 0.11737 0.17127 0.0
C327 C 0.30375 1.00268 0.18956 0.0
C328 C 0.37008 0.14324 0.238 0.0
O329 O 0.38566 0.0586 0.21989 0.0
O330 O 0.43948 0.12077 0.216 0.0
C331 C 0.47384 0.12897 0.16297 0.0
N332 N 0.45941 0.15482 0.16635 0.0
C333 C 0.48816 0.18791 0.12574 0.0
C334 C 0.50346 0.1618 0.12181 0.0
C335 C 0.49599 0.13197 0.14043 0.0
C336 C 0.46541 0.18283 0.1482 0.0
H337 H 0.46869 0.10631 0.17737 0.0
C338 C 0.42275 0.08422 0.22391 0.0
O339 O 0.29844 0.01627 0.21154 0.0
O340 O 0.33375 0.02777 0.17523 0.0
N341 N 0.42834 0.20064 0.17561 0.0
C342 C 0.41481 0.2259 0.18335 0.0
C343 C 0.42042 0.25777 0.16701 0.0
C344 C 0.44084 0.26405 0.14319 0.0
C345 C 0.45606 0.23879 0.13617 0.0
C346 C 0.44928 0.20732 0.15317 0.0
H347 H 0.39938 0.22145 0.20167 0.0
O348 O 0.31458 0.08953 0.17966 0.0
O349 O 0.38062 0.11661 0.18053 0.0
O350 O 0.34647 0.10606 0.23227 0.0
O351 O 0.40209 0.16633 0.22512 0.0
C352 C 0.47905 0.24456 0.11348 0.0
C353 C 0.49534 0.21931 0.10848 0.0
H354 H 0.52107 0.16446 0.10461 0.0
H355 H 0.50766 0.11165 0.13757 0.0
H356 H 0.40911 0.2775 0.17279 0.0
H357 H 0.44529 0.28877 0.13069 0.0
H358 H 0.48505 0.26877 0.10002 0.0
H359 H 0.51397 0.22446 0.09159 0.0
Mn360 Mn 0.29001 0.35822 0.3653 0.0
Mn361 Mn 0.29061 0.44637 0.36331 0.0
C362 C 0.2508 0.36884 0.33462 0.0
C363 C 0.31222 0.31416 0.35168 0.0
C364 C 0.24386 0.38236 0.40369 0.0
O365 O 0.34271 0.39548 0.38449 0.0
O366 O 0.33717 0.45135 0.38336 0.0
C367 C 0.36494 0.49233 0.33191 0.0
N368 N 0.32486 0.47857 0.33556 0.0
C369 C 0.32351 0.51882 0.29999 0.0
C370 C 0.36474 0.53342 0.2958 0.0
C371 C 0.38544 0.51976 0.31167 0.0
C372 C 0.30434 0.4903 0.31978 0.0
H373 H 0.38123 0.48279 0.34451 0.0
C374 C 0.35555 0.43249 0.39002 0.0
O375 O 0.2934 0.30898 0.37365 0.0
O376 O 0.31984 0.34595 0.33827 0.0
N377 N 0.24792 0.44702 0.34434 0.0
C378 C 0.2084 0.43055 0.35123 0.0
C379 C 0.18355 0.44153 0.33754 0.0
C380 C 0.19984 0.47007 0.31735 0.0
C381 C 0.2406 0.48669 0.31066 0.0
C382 C 0.2637 0.474 0.32465 0.0
H383 H 0.19596 0.40934 0.36711 0.0
O384 O 0.24091 0.33293 0.34267 0.0
O385 O 0.28291 0.39779 0.34547 0.0
O386 O 0.2563 0.3585 0.39655 0.0
O387 O 0.25393 0.41556 0.39213 0.0
C388 C 0.25956 0.51642 0.29129 0.0
C389 C 0.3009 0.5322 0.28578 0.0
H390 H 0.38086 0.55531 0.28059 0.0
H391 H 0.4173 0.53096 0.30862 0.0
H392 H 0.15208 0.42851 0.3428 0.0
H393 H 0.18077 0.47904 0.30714 0.0
H394 H 0.24258 0.52724 0.28041 0.0
H395 H 0.31503 0.55475 0.27063 0.0
Mn396 Mn 0.94568 0.28381 0.53059 0.0
Mn397 Mn 0.85436 0.27615 0.52409 0.0
C398 C 0.89912 0.23903 0.50075 0.0
C399 C 0.01331 0.31164 0.51825 0.0
C400 C 0.87377 0.23567 0.56784 0.0
O401 O 0.95518 0.33613 0.54798 0.0
O402 O 0.89205 0.32515 0.54365 0.0
C403 C 0.8815 0.34758 0.49003 0.0
N404 N 0.85703 0.30729 0.4943 0.0
C405 C 0.82273 0.2994 0.45369 0.0
C406 C 0.84742 0.34076 0.44883 0.0
C407 C 0.87715 0.36492 0.46703 0.0
C408 C 0.82911 0.2836 0.4766 0.0
H409 H 0.90409 0.36643 0.50408 0.0
C410 C 0.92852 0.34648 0.55142 0.0
O411 O 1.0005 0.29371 0.5406 0.0
O412 O 0.98739 0.31503 0.50379 0.0
N413 N 0.81419 0.23066 0.50516 0.0
C414 C 0.79068 0.19195 0.51359 0.0
C415 C 0.75914 0.16399 0.49773 0.0
C416 C 0.75146 0.17632 0.47365 0.0
C417 C 0.77501 0.21666 0.46585 0.0
C418 C 0.80617 0.24311 0.48242 0.0
H419 H 0.79627 0.18233 0.5321 0.0
O420 O 0.92783 0.2336 0.50948 0.0
O421 O 0.89851 0.27054 0.50956 0.0
O422 O 0.911 0.2501 0.56187 0.0
O423 O 0.84956 0.24268 0.55465 0.0
C424 C 0.76793 0.23199 0.44271 0.0
C425 C 0.79162 0.2734 0.43686 0.0
H426 H 0.84373 0.35429 0.43123 0.0
H427 H 0.89637 0.39688 0.46345 0.0
H428 H 0.74078 0.13303 0.50408 0.0
H429 H 0.72704 0.15473 0.46149 0.0
H430 H 0.74399 0.2124 0.42951 0.0
H431 H 0.78567 0.28533 0.41952 0.0
H432 H 0.13523 0.64602 0.08731 0.0
H433 H 0.01761 0.59287 0.05073 0.0
H434 H 1.00409 0.52474 0.06431 0.0
H435 H 0.15925 0.57554 0.06648 0.0
H436 H 0.18581 0.57611 0.09566 0.0
H437 H 0.18306 0.62007 0.08662 0.0
H438 H 0.15167 0.61978 0.13149 0.0
H439 H 0.15497 0.57615 0.14092 0.0
H440 H 0.1072 0.57472 0.1424 0.0
H441 H 1.00823 0.461 0.07831 0.0
H442 H 0.02786 0.41112 0.09278 0.0
H443 H 0.14331 0.50962 0.11862 0.0
C444 C 0.10612 0.62018 0.08271 0.0
C445 C 0.07737 0.6247 0.0681 0.0
C446 C 0.03981 0.5901 0.06229 0.0
C447 C 0.03207 0.55131 0.06977 0.0
C448 C 0.06205 0.54788 0.08324 0.0
C449 C 0.09808 0.58173 0.08994 0.0
C450 C 0.12681 0.57081 0.10283 0.0
C451 C 0.16602 0.58656 0.08694 0.0
C452 C 0.13566 0.58627 0.13109 0.0
C453 C 0.10194 0.52541 0.1019 0.0
C454 C 0.06453 0.51232 0.09077 0.0
C455 C 0.03735 0.47115 0.08727 0.0
C456 C 0.0488 0.44299 0.09545 0.0
C457 C 0.08723 0.45619 0.10678 0.0
C458 C 0.11372 0.49806 0.11 0.0
H459 H 0.63667 0.14174 0.27597 0.0
H460 H 0.61359 0.0206 0.25991 0.0
H461 H 0.54291 1.00051 0.24776 0.0
H462 H 0.54158 0.11327 0.30515 0.0
H463 H 0.54019 0.15612 0.29172 0.0
H464 H 0.58792 0.15958 0.29886 0.0
H465 H 0.61119 0.18092 0.25103 0.0
H466 H 0.56387 0.17815 0.24391 0.0
H467 H 0.58022 0.1495 0.2247 0.0
H468 H 0.4739 0.99642 0.23541 0.0
H469 H 0.41863 0.00969 0.22308 0.0
H470 H 0.49029 0.13242 0.25107 0.0
C471 C 0.61722 0.11084 0.26983 0.0
C472 C 0.6311 0.08286 0.26872 0.0
C473 C 0.60386 0.04274 0.26076 0.0
C474 C 0.56361 0.03105 0.25399 0.0
C475 C 0.55108 0.0597 0.25569 0.0
C476 C 0.57747 0.09874 0.26352 0.0
C477 C 0.55806 0.12465 0.26375 0.0
C478 C 0.55687 0.13925 0.29152 0.0
C479 C 0.5796 0.16038 0.24471 0.0
C480 C 0.51645 0.09452 0.25431 0.0
C481 C 0.51243 0.05705 0.24975 0.0
C482 C 0.47679 0.02556 0.23928 0.0
C483 C 0.44538 0.0332 0.23254 0.0
C484 C 0.45009 0.07204 0.23625 0.0
C485 C 0.48559 0.10233 0.24811 0.0
H486 H 0.51132 0.63698 0.45316 0.0
H487 H 0.60932 0.62221 0.42328 0.0
H488 H 0.55924 0.55225 0.40958 0.0
H489 H 0.44988 0.53544 0.47802 0.0
H490 H 0.40374 0.53445 0.4693 0.0
H491 H 0.44785 0.58152 0.4778 0.0
H492 H 0.44379 0.61249 0.43362 0.0
H493 H 0.39954 0.5658 0.42518 0.0
H494 H 0.44257 0.58719 0.40369 0.0
H495 H 0.49488 0.48443 0.39605 0.0
H496 H 0.42623 0.43056 0.38298 0.0
H497 H 0.37444 0.49255 0.42434 0.0
C498 C 0.5228 0.61935 0.44386 0.0
C499 C 0.56448 0.63546 0.43915 0.0
C500 C 0.57757 0.61067 0.42705 0.0
C501 C 0.54931 0.57085 0.41933 0.0
C502 C 0.50829 0.55618 0.42432 0.0
C503 C 0.49545 0.57999 0.43648 0.0
C504 C 0.45016 0.55897 0.43893 0.0
C505 C 0.43716 0.55219 0.46772 0.0
C506 C 0.43304 0.5825 0.42449 0.0
C507 C 0.43886 0.5197 0.42551 0.0
C508 C 0.47249 0.51803 0.41736 0.0
C509 C 0.46853 0.48534 0.40277 0.0
C510 C 0.42944 0.45466 0.39562 0.0
C511 C 0.39508 0.45727 0.4029 0.0
C512 C 0.40012 0.48951 0.41877 0.0
H513 H 0.8717 0.508 0.59795 0.0
H514 H 0.99826 0.60034 0.5963 0.0
H515 H 0.01574 0.54872 0.58242 0.0
H516 H 0.88601 0.43223 0.62582 0.0
H517 H 0.84558 0.39203 0.60767 0.0
H518 H 0.84355 0.43689 0.61532 0.0
H519 H 0.8356 0.4481 0.56623 0.0
H520 H 0.83676 0.40282 0.55849 0.0
H521 H 0.87198 0.44982 0.54315 0.0
H522 H 0.01802 0.48354 0.56946 0.0
H523 H 1.00415 0.41499 0.5568 0.0
H524 H 0.87663 0.36864 0.57091 0.0
C525 C 0.90319 0.51791 0.59437 0.0
C526 C 0.93354 0.55849 0.59814 0.0
C527 C 0.97432 0.56955 0.59332 0.0
C528 C 0.98455 0.54034 0.58563 0.0
C529 C 0.9537 0.50026 0.58301 0.0
C530 C 0.91384 0.48939 0.58716 0.0
C531 C 0.88594 0.44465 0.58401 0.0
C532 C 0.86399 0.42533 0.60973 0.0
C533 C 0.85582 0.43585 0.56164 0.0
C534 C 0.91608 0.43165 0.57721 0.0
C535 C 0.95511 0.46379 0.57663 0.0
C536 C 0.98751 0.45826 0.56998 0.0
C537 C 0.97944 0.41918 0.56303 0.0
C538 C 0.93932 0.38631 0.56285 0.0
C539 C 0.90771 0.39292 0.57074 0.0
H540 H 0.51003 0.8807 0.70952 0.0
H541 H 0.60508 0.99696 0.737 0.0
H542 H 0.55306 0.0131 0.75219 0.0
H543 H 0.43986 0.91265 0.68789 0.0
H544 H 0.39674 0.86637 0.69875 0.0
H545 H 0.44167 0.86645 0.68809 0.0
H546 H 0.44528 0.83521 0.73225 0.0
H547 H 0.40028 0.8347 0.74289 0.0
H548 H 0.44559 0.85999 0.76222 0.0
H549 H 0.48814 0.01316 0.76741 0.0
H550 H 0.41957 0.99525 0.78295 0.0
H551 H 0.37038 0.87926 0.74466 0.0
C552 C 0.52035 0.90986 0.71848 0.0
C553 C 0.56186 0.93753 0.72206 0.0
C554 C 0.57349 0.97522 0.73398 0.0
C555 C 0.54412 0.98468 0.74258 0.0
C556 C 0.50336 0.95628 0.7389 0.0
C557 C 0.49176 0.91964 0.72708 0.0
C558 C 0.44651 0.89275 0.72679 0.0
C559 C 0.43025 0.88407 0.69871 0.0
C560 C 0.43369 0.85337 0.74194 0.0
C561 C 0.43408 0.91946 0.74082 0.0
C562 C 0.46696 0.95627 0.74746 0.0
C563 C 0.46226 0.98461 0.76198 0.0
C564 C 0.42323 0.97438 0.77056 0.0
C565 C 0.38976 0.936 0.76483 0.0
C566 C 0.39539 0.90896 0.74915 0.0
H567 H 0.51699 0.37822 0.94599 0.0
H568 H 0.41881 0.40038 0.92789 0.0
H569 H 0.46932 0.47135 0.91641 0.0
H570 H 0.58152 0.47325 0.97606 0.0
H571 H 0.62655 0.47528 0.96359 0.0
H572 H 0.58236 0.42724 0.97012 0.0
H573 H 0.5827 0.40452 0.92243 0.0
H574 H 0.62722 0.4521 0.91596 0.0
H575 H 0.58307 0.43562 0.89588 0.0
H576 H 0.53405 0.54062 0.90508 0.0
H577 H 0.60251 0.59616 0.89332 0.0
H578 H 0.65402 0.52541 0.92256 0.0
C579 C 0.50547 0.39751 0.93954 0.0
C580 C 0.4636 0.38328 0.93769 0.0
C581 C 0.45067 0.41034 0.92931 0.0
C582 C 0.47919 0.45077 0.92294 0.0
C583 C 0.52034 0.46364 0.92547 0.0
C584 C 0.53306 0.43742 0.93364 0.0
C585 C 0.57838 0.45721 0.93469 0.0
C586 C 0.59305 0.45831 0.96279 0.0
C587 C 0.59372 0.43612 0.91613 0.0
C588 C 0.58983 0.49882 0.92521 0.0
C589 C 0.55629 0.5025 0.92005 0.0
C590 C 0.56034 0.53801 0.90942 0.0
C591 C 0.59937 0.56959 0.90304 0.0
C592 C 0.63363 0.5652 0.90722 0.0
C593 C 0.62853 0.52988 0.91933 0.0
H594 H 0.2334 0.40451 0.07853 0.0
H595 H 0.11239 0.31428 0.05503 0.0
H596 H 0.14126 0.29196 0.01997 0.0
H597 H 0.28324 0.42646 0.0149 0.0
H598 H 0.32823 0.42923 0.02812 0.0
H599 H 0.29807 0.44285 0.04806 0.0
H600 H 0.29153 0.39101 0.08305 0.0
H601 H 0.32165 0.37726 0.06329 0.0
H602 H 0.27213 0.33909 0.0738 0.0
H603 H 0.18399 0.27715 0.98892 0.0
H604 H 0.23576 0.26578 0.96807 0.0
H605 H 0.32805 0.3596 0.01624 0.0
C606 C 0.21273 0.38029 0.06595 0.0
C607 C 0.17046 0.36114 0.06969 0.0
C608 C 0.14482 0.32956 0.05258 0.0
C609 C 0.16098 0.31675 0.03255 0.0
C610 C 0.20286 0.33536 0.03013 0.0
C611 C 0.22834 0.36617 0.0466 0.0
C612 C 0.27202 0.37782 0.04223 0.0
C613 C 0.29685 0.4217 0.03276 0.0
C614 C 0.29039 0.37086 0.06706 0.0
C615 C 0.26723 0.34842 0.02088 0.0
C616 C 0.22722 0.32492 0.01367 0.0
C617 C 0.21537 0.29545 0.9944 0.0
C618 C 0.24502 0.28931 0.9826 0.0
C619 C 0.28587 0.31181 0.99055 0.0
C620 C 0.29705 0.342 0.00975 0.0
H621 H 0.83706 0.23048 0.24625 0.0
H622 H 0.79686 0.10847 0.21977 0.0
H623 H 0.84801 0.13582 0.18451 0.0
H624 H 0.8647 0.28194 0.18359 0.0
H625 H 0.90895 0.3251 0.19663 0.0
H626 H 0.86566 0.29621 0.21719 0.0
H627 H 0.9104 0.2852 0.25036 0.0
H628 H 0.95381 0.31415 0.23 0.0
H629 H 0.94018 0.26349 0.23937 0.0
H630 H 0.90579 0.17738 0.15289 0.0
H631 H 0.96927 0.22761 0.13151 0.0
H632 H 0.97513 0.32084 0.1824 0.0
C633 C 0.83851 0.20931 0.23295 0.0
C634 C 0.81265 0.16721 0.23577 0.0
C635 C 0.81615 0.14082 0.21796 0.0
C636 C 0.84504 0.15612 0.19782 0.0
C637 C 0.87056 0.19782 0.19601 0.0
C638 C 0.8678 0.22393 0.21336 0.0
C639 C 0.9013 0.26699 0.20921 0.0
C640 C 0.88411 0.29416 0.20117 0.0
C641 C 0.92799 0.2834 0.23368 0.0
C642 C 0.92375 0.26117 0.1869 0.0
C643 C 0.90507 0.22125 0.1791 0.0
C644 C 0.92057 0.20868 0.15886 0.0
C645 C 0.95652 0.23745 0.14674 0.0
C646 C 0.97703 0.27806 0.15531 0.0
C647 C 0.96004 0.29001 0.17542 0.0
H648 H 0.68407 0.86907 0.43031 0.0
H649 H 0.64464 0.77202 0.37429 0.0
H650 H 0.6589 0.82093 0.33821 0.0
H651 H 0.63518 0.91578 0.3997 0.0
H652 H 0.67371 0.96637 0.40797 0.0
H653 H 0.66547 0.92479 0.42854 0.0
H654 H 0.74062 0.9447 0.42375 0.0
H655 H 0.74919 0.98657 0.40332 0.0
H656 H 0.76188 0.94984 0.39165 0.0
H657 H 0.67641 0.8819 0.3085 0.0
H658 H 0.69242 0.94733 0.28839 0.0
H659 H 0.71206 1.00101 0.36527 0.0
C660 C 0.67842 0.85812 0.41045 0.0
C661 C 0.66323 0.81698 0.40492 0.0
C662 C 0.65676 0.80368 0.37873 0.0
C663 C 0.6646 0.83119 0.35823 0.0
C664 C 0.67835 0.87159 0.36444 0.0
C665 C 0.68503 0.88485 0.39 0.0
C666 C 0.697 0.92887 0.39195 0.0
C667 C 0.66598 0.93425 0.40798 0.0
C668 C 0.73971 0.95397 0.40333 0.0
C669 C 0.69589 0.93855 0.36348 0.0
C670 C 0.68575 0.90544 0.34778 0.0
C671 C 0.68411 0.90786 0.32067 0.0
C672 C 0.69318 0.94505 0.30941 0.0
C673 C 0.70283 0.97894 0.32531 0.0
C674 C 0.704 0.97538 0.35265 0.0
H675 H 0.7008 0.67132 0.52617 0.0
H676 H 0.78972 0.74417 0.46784 0.0
H677 H 0.84134 0.73551 0.49146 0.0
H678 H 0.76451 0.7076 0.58101 0.0
H679 H 0.74285 0.65951 0.59734 0.0
H680 H 0.71261 0.66993 0.57523 0.0
H681 H 0.69634 0.60627 0.54827 0.0
H682 H 0.7261 0.59536 0.57051 0.0
H683 H 0.7371 0.60002 0.53609 0.0
H684 H 0.88488 0.72346 0.52423 0.0
H685 H 0.91381 0.7021 0.56005 0.0
H686 H 0.79489 0.63438 0.59487 0.0
C687 C 0.73097 0.68494 0.51812 0.0
C688 C 0.7412 0.70837 0.49512 0.0
C689 C 0.78108 0.7258 0.48531 0.0
C690 C 0.81068 0.72126 0.49869 0.0
C691 C 0.7998 0.69874 0.52167 0.0
C692 C 0.76066 0.68025 0.531 0.0
C693 C 0.75653 0.65755 0.55605 0.0
C694 C 0.74336 0.67469 0.57874 0.0
C695 C 0.72729 0.61211 0.5525 0.0
C696 C 0.79952 0.66651 0.55956 0.0
C697 C 0.82426 0.69063 0.53975 0.0
C698 C 0.86561 0.70412 0.53966 0.0
C699 C 0.88186 0.69207 0.56013 0.0
C700 C 0.85665 0.66636 0.58017 0.0
C701 C 0.81501 0.6537 0.57974 0.0
H702 H 0.05277 0.68649 0.68662 0.0
H703 H 0.05952 0.77942 0.63486 0.0
H704 H 0.12161 0.82997 0.65704 0.0
H705 H 0.08347 0.74335 0.74327 0.0
H706 H 0.11361 0.72291 0.75573 0.0
H707 H 0.0719 0.69313 0.7343 0.0
H708 H 0.11946 0.68385 0.70265 0.0
H709 H 0.1613 0.71321 0.72419 0.0
H710 H 0.16402 0.72764 0.69046 0.0
H711 H 0.17694 0.87203 0.68923 0.0
H712 H 0.22641 0.9006 0.7253 0.0
H713 H 0.18756 0.77948 0.75313 0.0
C714 C 0.06789 0.71728 0.67955 0.0
C715 C 0.05133 0.72899 0.65898 0.0
C716 C 0.07182 0.76965 0.65042 0.0
C717 C 0.10705 0.79866 0.66298 0.0
C718 C 0.12194 0.7864 0.68371 0.0
C719 C 0.10357 0.74648 0.69152 0.0
C720 C 0.12518 0.74139 0.71471 0.0
C721 C 0.09685 0.72419 0.73839 0.0
C722 C 0.14359 0.71496 0.70757 0.0
C723 C 0.15766 0.78479 0.71924 0.0
C724 C 0.15519 0.81038 0.70129 0.0
C725 C 0.17977 0.85218 0.70305 0.0
C726 C 0.20763 0.86816 0.72366 0.0
C727 C 0.21109 0.84237 0.74201 0.0
C728 C 0.18605 0.80013 0.73939 0.0
H729 H 0.36439 0.0395 0.85404 0.0
H730 H 0.27283 0.04004 0.80443 0.0
H731 H 0.28396 0.1029 0.82558 0.0
H732 H 0.34137 0.07359 0.91122 0.0
H733 H 0.39289 0.10515 0.92158 0.0
H734 H 0.37957 0.06178 0.90143 0.0
H735 H 0.4332 0.10707 0.86733 0.0
H736 H 0.44691 0.15059 0.8875 0.0
H737 H 0.43205 0.15015 0.85409 0.0
H738 H 0.29942 0.16116 0.85626 0.0
H739 H 0.32282 0.21347 0.89068 0.0
H740 H 0.40883 0.17833 0.91685 0.0
C741 C 0.34717 0.05323 0.84734 0.0
C742 C 0.31774 0.03491 0.8276 0.0
C743 C 0.29575 0.05373 0.81939 0.0
C744 C 0.30176 0.08936 0.83136 0.0
C745 C 0.3305 0.10628 0.85112 0.0
C746 C 0.35341 0.08923 0.85868 0.0
C747 C 0.382 0.11304 0.88058 0.0
C748 C 0.37343 0.08682 0.90515 0.0
C749 C 0.42616 0.1313 0.87184 0.0
C750 C 0.37084 0.14546 0.88467 0.0
C751 C 0.34089 0.14098 0.86766 0.0
C752 C 0.32346 0.16544 0.86933 0.0
C753 C 0.33687 0.19502 0.88898 0.0
C754 C 0.3678 0.20028 0.90649 0.0
C755 C 0.38535 0.1755 0.90379 0.0
H756 H 0.64676 0.6984 0.8206 0.0
H757 H 0.73982 0.78851 0.87031 0.0
H758 H 0.73195 0.84179 0.84856 0.0
H759 H 0.67366 0.75378 0.76366 0.0
H760 H 0.62311 0.73667 0.75224 0.0
H761 H 0.63288 0.70517 0.77354 0.0
H762 H 0.57949 0.7015 0.80626 0.0
H763 H 0.56923 0.73273 0.78489 0.0
H764 H 0.58328 0.74753 0.81834 0.0
H765 H 0.72183 0.88623 0.81609 0.0
H766 H 0.70435 0.91662 0.77923 0.0
H767 H 0.61269 0.79684 0.75457 0.0
C768 C 0.66469 0.7292 0.82737 0.0
C769 C 0.69381 0.73929 0.84717 0.0
C770 C 0.717 0.78001 0.85534 0.0
C771 C 0.71288 0.81055 0.84303 0.0
C772 C 0.68471 0.79978 0.82301 0.0
C773 C 0.6603 0.75993 0.81569 0.0
C774 C 0.63333 0.75644 0.79307 0.0
C775 C 0.64124 0.73687 0.76923 0.0
C776 C 0.58868 0.73318 0.80113 0.0
C777 C 0.64741 0.80054 0.78821 0.0
C778 C 0.67722 0.82522 0.80551 0.0
C779 C 0.69775 0.86717 0.80285 0.0
C780 C 0.68771 0.8842 0.78182 0.0
C781 C 0.65706 0.85931 0.76395 0.0
C782 C 0.63611 0.81701 0.76783 0.0
H783 H 0.84461 0.63044 0.90894 0.0
H784 H 0.79877 0.70244 0.94454 0.0
H785 H 0.84866 0.72084 0.98033 0.0
H786 H 0.86506 0.59275 0.96746 0.0
H787 H 0.91082 0.59637 0.955 0.0
H788 H 0.87072 0.58803 0.93295 0.0
H789 H 0.92003 0.65123 0.90627 0.0
H790 H 0.96038 0.65948 0.92803 0.0
H791 H 0.94861 0.69904 0.92264 0.0
H792 H 0.90347 0.72974 0.01286 0.0
H793 H 0.96295 0.7354 0.03594 0.0
H794 H 0.97394 0.66008 0.97708 0.0
C795 C 0.84487 0.65004 0.92425 0.0
C796 C 0.81753 0.66479 0.92403 0.0
C797 C 0.81942 0.69082 0.9443 0.0
C798 C 0.84748 0.70119 0.96476 0.0
C799 C 0.87369 0.68565 0.96446 0.0
C800 C 0.87292 0.66112 0.94446 0.0
C801 C 0.90543 0.6499 0.94774 0.0
C802 C 0.88688 0.60404 0.95098 0.0
C803 C 0.93539 0.66588 0.92482 0.0
C804 C 0.92482 0.67193 0.97278 0.0
C805 C 0.9058 0.69192 0.9824 0.0
C806 C 0.91857 0.71427 0.00542 0.0
C807 C 0.95222 0.71708 0.0185 0.0
C808 C 0.97304 0.69813 0.00833 0.0
C809 C 0.95864 0.67484 0.98538 0.0
H810 H 0.31765 0.95961 0.15277 0.0
H811 H 0.22434 0.9548 0.20315 0.0
H812 H 0.17374 0.89207 0.18119 0.0
H813 H 0.26196 0.92878 0.09587 0.0
H814 H 0.28273 0.89861 0.08403 0.0
H815 H 0.31201 0.94048 0.10543 0.0
H816 H 0.32069 0.89321 0.13773 0.0
H817 H 0.29179 0.85118 0.11624 0.0
H818 H 0.27668 0.84875 0.1498 0.0
H819 H 0.13209 0.8355 0.14893 0.0
H820 H 0.10456 0.7862 0.11271 0.0
H821 H 0.22651 0.82534 0.08651 0.0
C822 C 0.28673 0.94483 0.1596 0.0
C823 C 0.27486 0.96194 0.17968 0.0
C824 C 0.23411 0.94191 0.18798 0.0
C825 C 0.20516 0.90639 0.17553 0.0
C826 C 0.21768 0.8909 0.15523 0.0
C827 C 0.25772 0.90906 0.14775 0.0
C828 C 0.26337 0.88732 0.12492 0.0
C829 C 0.28105 0.91548 0.10117 0.0
C830 C 0.28968 0.86902 0.13264 0.0
C831 C 0.22013 0.85484 0.12014 0.0
C832 C 0.19408 0.85738 0.13768 0.0
C833 C 0.15233 0.83269 0.13547 0.0
C834 C 0.13694 0.80487 0.11477 0.0
C835 C 0.16326 0.80165 0.09672 0.0
C836 C 0.20539 0.82662 0.09993 0.0
H837 H 0.3987 0.22359 0.24712 0.0
H838 H 0.31661 0.10469 0.27831 0.0
H839 H 0.29736 0.13619 0.3135 0.0
H840 H 0.43038 0.27861 0.30809 0.0
H841 H 0.43048 0.32231 0.29484 0.0
H842 H 0.4407 0.29061 0.27395 0.0
H843 H 0.38276 0.28071 0.24311 0.0
H844 H 0.3725 0.31251 0.26379 0.0
H845 H 0.33283 0.26213 0.25622 0.0
H846 H 0.28617 0.18148 0.34481 0.0
H847 H 0.27861 0.2351 0.36649 0.0
H848 H 0.36418 0.32311 0.31213 0.0
C849 C 0.37688 0.20397 0.26138 0.0
C850 C 0.3593 0.16154 0.25991 0.0
C851 C 0.33059 0.13724 0.27901 0.0
C852 C 0.31959 0.15489 0.29913 0.0
C853 C 0.33724 0.19684 0.29971 0.0
C854 C 0.36495 0.22096 0.28112 0.0
C855 C 0.37708 0.26489 0.28462 0.0
C856 C 0.42235 0.29061 0.29074 0.0
C857 C 0.36559 0.28099 0.26051 0.0
C858 C 0.35163 0.26186 0.30803 0.0
C859 C 0.32941 0.2225 0.31679 0.0
C860 C 0.30347 0.21236 0.3381 0.0
C861 C 0.29951 0.24306 0.35037 0.0
C862 C 0.32083 0.28327 0.34101 0.0
C863 C 0.34756 0.29268 0.31976 0.0
H864 H 0.18903 0.40702 0.41308 0.0
H865 H 0.23264 0.33018 0.44398 0.0
H866 H 0.18264 0.30908 0.47979 0.0
H867 H 0.16425 0.43715 0.47448 0.0
H868 H 0.11899 0.43422 0.46164 0.0
H869 H 0.16109 0.44658 0.44035 0.0
H870 H 0.11481 0.38712 0.40997 0.0
H871 H 0.07258 0.37477 0.43103 0.0
H872 H 0.08608 0.33703 0.42341 0.0
H873 H 0.12609 0.29524 0.51173 0.0
H874 H 0.06339 0.28349 0.53358 0.0
H875 H 0.05422 0.3654 0.4792 0.0
C876 C 0.1885 0.3861 0.42749 0.0
C877 C 0.21503 0.37048 0.42579 0.0
C878 C 0.21272 0.34264 0.44491 0.0
C879 C 0.18455 0.33066 0.46539 0.0
C880 C 0.15859 0.3464 0.46629 0.0
C881 C 0.16005 0.37315 0.44761 0.0
C882 C 0.12652 0.38281 0.4514 0.0
C883 C 0.14376 0.42787 0.45732 0.0
C884 C 0.09833 0.36963 0.42754 0.0
C885 C 0.10561 0.35706 0.47503 0.0
C886 C 0.125 0.33691 0.48371 0.0
C887 C 0.11076 0.31094 0.50511 0.0
C888 C 0.07526 0.30462 0.51749 0.0
C889 C 0.05401 0.32357 0.50811 0.0
C890 C 0.06989 0.35059 0.48687 0.0
H891 H 0.7945 0.18049 0.57731 0.0
H892 H 0.91448 0.22767 0.60979 0.0
H893 H 0.88532 0.17993 0.64681 0.0
H894 H 0.73825 0.15915 0.63769 0.0
H895 H 0.69665 0.1128 0.62552 0.0
H896 H 0.7265 0.15356 0.60336 0.0
H897 H 0.74131 0.1059 0.57551 0.0
H898 H 0.71126 0.06497 0.59741 0.0
H899 H 0.76282 0.07857 0.5909 0.0
H900 H 0.84214 0.12511 0.67994 0.0
H901 H 0.79114 0.0635 0.70275 0.0
H902 H 0.70121 0.04973 0.64591 0.0
C903 C 0.81481 0.18119 0.59221 0.0
C904 C 0.85687 0.20809 0.59061 0.0
C905 C 0.88218 0.20744 0.61057 0.0
C906 C 0.86583 0.18056 0.63174 0.0
C907 C 0.8242 0.1542 0.6325 0.0
C908 C 0.79919 0.15404 0.61301 0.0
C909 C 0.75611 0.12044 0.61687 0.0
C910 C 0.72771 0.13753 0.62112 0.0
C911 C 0.74207 0.09072 0.59381 0.0
C912 C 0.76066 0.10134 0.64152 0.0
C913 C 0.79994 0.12168 0.65061 0.0
C914 C 0.81132 0.10907 0.67298 0.0
C915 C 0.7821 0.07419 0.68592 0.0
C916 C 0.74223 0.05193 0.67613 0.0
C917 C 0.7314 0.06623 0.65391 0.0
H918 H 0.18483 0.37113 0.31392 0.0
H919 H 0.29445 0.37051 0.29349 0.0
H920 H 0.27457 0.36158 0.24708 0.0
H921 H 0.12028 0.30104 0.26599 0.0
H922 H 0.09365 0.32761 0.25854 0.0
H923 H 0.11525 0.33206 0.29043 0.0
H924 H 0.15033 0.40717 0.28473 0.0
H925 H 0.1365 0.40725 0.2513 0.0
H926 H 0.18901 0.43213 0.26049 0.0
H927 H 0.23499 0.33793 0.20488 0.0
H928 H 0.19301 0.32912 0.1658 0.0
H929 H 0.11963 0.36368 0.21102 0.0
C930 C 0.20535 0.3708 0.29957 0.0
C931 C 0.24156 0.37225 0.30715 0.0
C932 C 0.26688 0.37001 0.28792 0.0
C933 C 0.25566 0.3645 0.2616 0.0
C934 C 0.21948 0.3624 0.25473 0.0
C935 C 0.19554 0.36727 0.27292 0.0
C936 C 0.15936 0.36613 0.25984 0.0
C937 C 0.11981 0.32953 0.26926 0.0
C938 C 0.15886 0.40557 0.26429 0.0
C939 C 0.16752 0.36098 0.23155 0.0
C940 C 0.20086 0.35622 0.22932 0.0
C941 C 0.21017 0.34386 0.20602 0.0
C942 C 0.18638 0.33901 0.18397 0.0
C943 C 0.15543 0.34881 0.18518 0.0
C944 C 0.145 0.35862 0.20941 0.0
H945 H 0.90914 0.26766 0.45133 0.0
H946 H 0.84157 0.15962 0.49759 0.0
H947 H 0.80134 0.12334 0.45859 0.0
H948 H 0.83586 0.25842 0.40123 0.0
H949 H 0.87654 0.27649 0.37808 0.0
H950 H 0.88737 0.29016 0.41173 0.0
H951 H 0.93726 0.26079 0.40452 0.0
H952 H 0.91695 0.24184 0.3726 0.0
H953 H 0.91544 0.20778 0.39743 0.0
H954 H 0.76417 0.10224 0.41579 0.0
H955 H 0.74454 0.08939 0.36948 0.0
H956 H 0.84625 0.2058 0.34879 0.0
C957 C 0.88532 0.23654 0.45317 0.0
C958 C 0.87621 0.21688 0.47757 0.0
C959 C 0.84734 0.17544 0.47917 0.0
C960 C 0.82451 0.15475 0.45718 0.0
C961 C 0.83286 0.17549 0.43354 0.0
C962 C 0.86392 0.2148 0.43112 0.0
C963 C 0.8712 0.22779 0.40275 0.0
C964 C 0.86742 0.26543 0.39827 0.0
C965 C 0.91267 0.23496 0.39381 0.0
C966 C 0.83721 0.19073 0.38975 0.0
C967 C 0.81523 0.16121 0.40806 0.0
C968 C 0.78149 0.12483 0.40122 0.0
C969 C 0.77045 0.11794 0.37491 0.0
C970 C 0.79341 0.14685 0.3556 0.0
C971 C 0.82741 0.18369 0.36311 0.0
H972 H 0.66116 0.91103 0.62257 0.0
H973 H 0.70119 0.84131 0.66704 0.0
H974 H 0.6972 0.80256 0.62722 0.0
H975 H 0.59669 0.84016 0.57244 0.0
H976 H 0.61893 0.88067 0.54923 0.0
H977 H 0.61735 0.8918 0.58301 0.0
H978 H 0.6964 0.94068 0.57555 0.0
H979 H 0.69403 0.92092 0.5433 0.0
H980 H 0.72687 0.91838 0.56747 0.0
H981 H 0.67958 0.76625 0.58422 0.0
H982 H 0.67154 0.74748 0.53778 0.0
H983 H 0.65757 0.85033 0.51889 0.0
C984 C 0.66861 0.88722 0.62381 0.0
C985 C 0.67889 0.87694 0.64792 0.0
C986 C 0.69131 0.84791 0.64884 0.0
C987 C 0.68923 0.82599 0.62638 0.0
C988 C 0.67685 0.83533 0.60308 0.0
C989 C 0.66885 0.86665 0.60134 0.0
C990 C 0.66263 0.87469 0.57322 0.0
C991 C 0.6214 0.87158 0.56933 0.0
C992 C 0.69704 0.91612 0.56437 0.0
C993 C 0.66492 0.84069 0.55961 0.0
C994 C 0.67266 0.81816 0.5774 0.0
C995 C 0.67436 0.78411 0.57003 0.0
C996 C 0.66943 0.77353 0.54365 0.0
C997 C 0.66357 0.79722 0.52483 0.0
C998 C 0.66121 0.83126 0.53289 0.0
H999 H 0.89715 0.7174 0.70092 0.0
H1000 H 0.86895 0.5937 0.70288 0.0
H1001 H 0.82289 0.58001 0.74021 0.0
H1002 H 0.91187 0.71462 0.77306 0.0
H1003 H 0.90152 0.75477 0.77998 0.0
H1004 H 0.92398 0.75378 0.74928 0.0
H1005 H 0.86611 0.75654 0.72483 0.0
H1006 H 0.84312 0.75687 0.75545 0.0
H1007 H 0.81453 0.7187 0.73146 0.0
H1008 H 0.76035 0.58211 0.76342 0.0
H1009 H 0.7302 0.59769 0.80117 0.0
H1010 H 0.83091 0.71873 0.80393 0.0
C1011 C 0.88012 0.68714 0.70875 0.0
C1012 C 0.87915 0.65382 0.6959 0.0
C1013 C 0.86259 0.61675 0.70924 0.0
C1014 C 0.83759 0.60926 0.73081 0.0
C1015 C 0.83398 0.64106 0.74061 0.0
C1016 C 0.85878 0.6801 0.7323 0.0
C1017 C 0.85951 0.70981 0.75234 0.0
C1018 C 0.90174 0.73472 0.76438 0.0
C1019 C 0.84495 0.7371 0.74029 0.0
C1020 C 0.82931 0.68077 0.77213 0.0
C1021 C 0.81278 0.64162 0.76343 0.0
C1022 C 0.77639 0.61111 0.77304 0.0
C1023 C 0.76008 0.61964 0.79481 0.0
C1024 C 0.78245 0.65619 0.80845 0.0
C1025 C 0.81599 0.68859 0.79581 0.0
H1026 H 0.18162 0.80817 0.85432 0.0
H1027 H 0.28959 0.91928 0.87548 0.0
H1028 H 0.27097 0.90567 0.922 0.0
H1029 H 0.117 0.80978 0.9029 0.0
H1030 H 0.09149 0.75646 0.9098 0.0
H1031 H 0.1128 0.77468 0.87798 0.0
H1032 H 0.14953 0.73599 0.883 0.0
H1033 H 0.13584 0.72118 0.91627 0.0
H1034 H 0.18838 0.74991 0.90735 0.0
H1035 H 0.23265 0.88681 0.96463 0.0
H1036 H 0.18989 0.85249 0.00322 0.0
H1037 H 0.11691 0.74641 0.95648 0.0
C1038 C 0.2021 0.82867 0.86881 0.0
C1039 C 0.23744 0.86444 0.86143 0.0
C1040 C 0.26269 0.89147 0.88089 0.0
C1041 C 0.25224 0.88417 0.90729 0.0
C1042 C 0.21694 0.84905 0.91399 0.0
C1043 C 0.19306 0.82085 0.89549 0.0
C1044 C 0.15736 0.78502 0.90833 0.0
C1045 C 0.1173 0.78129 0.89921 0.0
C1046 C 0.15796 0.74574 0.90348 0.0
C1047 C 0.16536 0.79744 0.93672 0.0
C1048 C 0.19866 0.83541 0.93941 0.0
C1049 C 0.20785 0.85616 0.96306 0.0
C1050 C 0.18359 0.83658 0.98482 0.0
C1051 C 0.15241 0.79602 0.983 0.0
C1052 C 0.14248 0.77659 0.95855 0.0
H1053 H 0.36756 0.10642 0.12202 0.0
H1054 H 0.33096 0.17745 0.16799 0.0
H1055 H 0.33679 0.21839 0.12892 0.0
H1056 H 0.43344 0.17845 0.0723 0.0
H1057 H 0.4099 0.13822 0.04882 0.0
H1058 H 0.41187 0.12655 0.08241 0.0
H1059 H 0.33258 0.07911 0.07546 0.0
H1060 H 0.33465 0.09944 0.04343 0.0
H1061 H 0.30281 0.10248 0.06815 0.0
H1062 H 0.35377 0.25528 0.08593 0.0
H1063 H 0.36 0.27403 0.0394 0.0
H1064 H 0.37007 0.16938 0.01928 0.0
C1065 C 0.36159 0.13117 0.12379 0.0
C1066 C 0.35163 0.14101 0.14813 0.0
C1067 C 0.34064 0.17111 0.14962 0.0
C1068 C 0.34385 0.19435 0.1276 0.0
C1069 C 0.35562 0.18519 0.10402 0.0
C1070 C 0.36225 0.15301 0.1017 0.0
C1071 C 0.36743 0.14511 0.0734 0.0
C1072 C 0.40817 0.14733 0.06904 0.0
C1073 C 0.33227 0.10411 0.0646 0.0
C1074 C 0.36566 0.17976 0.06024 0.0
C1075 C 0.35947 0.2028 0.07846 0.0
C1076 C 0.358 0.23716 0.07144 0.0
C1077 C 0.36182 0.24769 0.04502 0.0
C1078 C 0.36619 0.22357 0.02584 0.0
C1079 C 0.36798 0.18902 0.03353 0.0
loop_
_geom_bond_atom_site_label_1
_geom_bond_atom_site_label_2
_geom_bond_distance
_geom_bond_site_symmetry_2
_ccdc_geom_bond_type
Mn0 O5 2.095 . S
Mn0 O15 2.162 . S
Mn0 O16 2.297 . S
Mn0 O24 2.385 . S
Mn0 O25 2.209 . S
Mn0 O26 2.094 . S
Mn1 O6 2.121 . S
Mn1 N8 2.257 . S
Mn1 N17 2.282 . S
Mn1 O25 2.215 . S
Mn1 O27 2.117 . S
C2 O24 1.234 . S
C2 O25 1.283 . S
C3 O15 1.281 . S
C3 O16 1.236 . S
C4 O26 1.240 . S
C4 O27 1.264 . S
O5 Mn0 2.095 . S
O5 C14 1.250 . S
O6 Mn1 2.121 . S
O6 C14 1.258 . S
C7 N8 1.326 . S
C7 C11 1.460 . S
C7 H13 0.929 . S
N8 Mn1 2.257 . S
N8 C7 1.326 . S
N8 C12 1.362 . S
C9 C10 1.258 . S
C9 C12 1.431 . S
C9 C29 1.449 . S
C10 C9 1.258 . S
C10 C11 1.477 . S
C10 H30 0.931 . S
C11 C7 1.460 . S
C11 C10 1.477 . S
C11 H31 0.930 . S
C12 N8 1.362 . S
C12 C9 1.431 . S
C12 C22 1.476 . S
H13 C7 0.929 . S
C14 O5 1.250 . S
C14 O6 1.258 . S
O15 Mn0 2.162 . S
O15 C3 1.281 . S
O16 Mn0 2.297 . S
O16 C3 1.236 . S
N17 Mn1 2.282 . S
N17 C18 1.328 . S
N17 C22 1.318 . S
C18 N17 1.328 . S
C18 C19 1.457 . S
C18 H23 0.929 . S
C19 C18 1.457 . S
C19 C20 1.291 . S
C19 H32 0.931 . S
C20 C19 1.291 . S
C20 C21 1.373 . S
C20 H33 0.929 . S
C21 C20 1.373 . S
C21 C22 1.396 . S
C21 C28 1.403 . S
C22 C12 1.476 . S
C22 N17 1.318 . S
C22 C21 1.396 . S
H23 C18 0.929 . S
O24 Mn0 2.385 . S
O24 C2 1.234 . S
O25 Mn0 2.209 . S
O25 Mn1 2.215 . S
O25 C2 1.283 . S
O26 Mn0 2.094 . S
O26 C4 1.240 . S
O27 Mn1 2.117 . S
O27 C4 1.264 . S
C28 C21 1.403 . S
C28 C29 1.399 . S
C28 H34 0.929 . S
C29 C9 1.449 . S
C29 C28 1.399 . S
C29 H35 0.930 . S
H30 C10 0.931 . S
H31 C11 0.930 . S
H32 C19 0.931 . S
H33 C20 0.929 . S
H34 C28 0.929 . S
H35 C29 0.930 . S
Mn36 O41 2.095 . S
Mn36 O51 2.162 . S
Mn36 O52 2.297 . S
Mn36 O60 2.385 . S
Mn36 O61 2.209 . S
Mn36 O62 2.094 . S
Mn37 O42 2.121 . S
Mn37 N44 2.257 . S
Mn37 N53 2.282 . S
Mn37 O61 2.215 . S
Mn37 O63 2.117 . S
C38 O60 1.234 . S
C38 O61 1.283 . S
C39 O51 1.281 . S
C39 O52 1.236 . S
C40 O62 1.240 . S
C40 O63 1.264 . S
O41 Mn36 2.095 . S
O41 C50 1.250 . S
O42 Mn37 2.121 . S
O42 C50 1.258 . S
C43 N44 1.326 . S
C43 C47 1.460 . S
C43 H49 0.929 . S
N44 Mn37 2.257 . S
N44 C43 1.326 . S
N44 C48 1.362 . S
C45 C46 1.258 . S
C45 C48 1.431 . S
C45 C65 1.449 . S
C46 C45 1.258 . S
C46 C47 1.477 . S
C46 H66 0.931 . S
C47 C43 1.460 . S
C47 C46 1.477 . S
C47 H67 0.930 . S
C48 N44 1.362 . S
C48 C45 1.431 . S
C48 C58 1.476 . S
H49 C43 0.929 . S
C50 O41 1.250 . S
C50 O42 1.258 . S
O51 Mn36 2.162 . S
O51 C39 1.281 . S
O52 Mn36 2.297 . S
O52 C39 1.236 . S
N53 Mn37 2.282 . S
N53 C54 1.328 . S
N53 C58 1.318 . S
C54 N53 1.328 . S
C54 C55 1.457 . S
C54 H59 0.929 . S
C55 C54 1.457 . S
C55 C56 1.291 . S
C55 H68 0.931 . S
C56 C55 1.291 . S
C56 C57 1.373 . S
C56 H69 0.929 . S
C57 C56 1.373 . S
C57 C58 1.396 . S
C57 C64 1.403 . S
C58 C48 1.476 . S
C58 N53 1.318 . S
C58 C57 1.396 . S
H59 C54 0.929 . S
O60 Mn36 2.385 . S
O60 C38 1.234 . S
O61 Mn36 2.209 . S
O61 Mn37 2.215 . S
O61 C38 1.283 . S
O62 Mn36 2.094 . S
O62 C40 1.240 . S
O63 Mn37 2.117 . S
O63 C40 1.264 . S
C64 C57 1.403 . S
C64 C65 1.399 . S
C64 H70 0.929 . S
C65 C45 1.449 . S
C65 C64 1.399 . S
C65 H71 0.930 . S
H66 C46 0.931 . S
H67 C47 0.930 . S
H68 C55 0.931 . S
H69 C56 0.929 . S
H70 C64 0.929 . S
H71 C65 0.930 . S
Mn72 O77 2.095 . S
Mn72 O87 2.162 . S
Mn72 O88 2.297 . S
Mn72 O96 2.385 . S
Mn72 O97 2.209 . S
Mn72 O98 2.094 . S
Mn73 O78 2.121 . S
Mn73 N80 2.257 . S
Mn73 N89 2.282 . S
Mn73 O97 2.215 . S
Mn73 O99 2.117 . S
C74 O96 1.234 . S
C74 O97 1.283 . S
C75 O87 1.281 . S
C75 O88 1.236 . S
C76 O98 1.240 . S
C76 O99 1.264 . S
O77 Mn72 2.095 . S
O77 C86 1.250 . S
O78 Mn73 2.121 . S
O78 C86 1.258 . S
C79 N80 1.326 . S
C79 C83 1.460 . S
C79 H85 0.929 . S
N80 Mn73 2.257 . S
N80 C79 1.326 . S
N80 C84 1.362 . S
C81 C82 1.258 . S
C81 C84 1.431 . S
C81 C101 1.449 . S
C82 C81 1.258 . S
C82 C83 1.477 . S
C82 H102 0.931 . S
C83 C79 1.460 . S
C83 C82 1.477 . S
C83 H103 0.930 . S
C84 N80 1.362 . S
C84 C81 1.431 . S
C84 C94 1.476 . S
H85 C79 0.929 . S
C86 O77 1.250 . S
C86 O78 1.258 . S
O87 Mn72 2.162 . S
O87 C75 1.281 . S
O88 Mn72 2.297 . S
O88 C75 1.236 . S
N89 Mn73 2.282 . S
N89 C90 1.328 . S
N89 C94 1.318 . S
C90 N89 1.328 . S
C90 C91 1.457 . S
C90 H95 0.929 . S
C91 C90 1.457 . S
C91 C92 1.291 . S
C91 H104 0.931 . S
C92 C91 1.291 . S
C92 C93 1.373 . S
C92 H105 0.929 . S
C93 C92 1.373 . S
C93 C94 1.396 . S
C93 C100 1.403 . S
C94 C84 1.476 . S
C94 N89 1.318 . S
C94 C93 1.396 . S
H95 C90 0.929 . S
O96 Mn72 2.385 . S
O96 C74 1.234 . S
O97 Mn72 2.209 . S
O97 Mn73 2.215 . S
O97 C74 1.283 . S
O98 Mn72 2.094 . S
O98 C76 1.240 . S
O99 Mn73 2.117 . S
O99 C76 1.264 . S
C100 C93 1.403 . S
C100 C101 1.399 . S
C100 H106 0.929 . S
C101 C81 1.449 . S
C101 C100 1.399 . S
C101 H107 0.930 . S
H102 C82 0.931 . S
H103 C83 0.930 . S
H104 C91 0.931 . S
H105 C92 0.929 . S
H106 C100 0.929 . S
H107 C101 0.930 . S
Mn108 O113 2.095 . S
Mn108 O123 2.162 . S
Mn108 O124 2.297 . S
Mn108 O132 2.385 . S
Mn108 O133 2.209 . S
Mn108 O134 2.094 . S
Mn109 O114 2.121 . S
Mn109 N116 2.257 . S
Mn109 N125 2.282 . S
Mn109 O133 2.215 . S
Mn109 O135 2.117 . S
C110 O132 1.234 . S
C110 O133 1.283 . S
C111 O123 1.281 . S
C111 O124 1.236 . S
C112 O134 1.240 . S
C112 O135 1.264 . S
O113 Mn108 2.095 . S
O113 C122 1.250 . S
O114 Mn109 2.121 . S
O114 C122 1.258 . S
C115 N116 1.326 . S
C115 C119 1.460 . S
C115 H121 0.929 . S
N116 Mn109 2.257 . S
N116 C115 1.326 . S
N116 C120 1.362 . S
C117 C118 1.258 . S
C117 C120 1.431 . S
C117 C137 1.449 . S
C118 C117 1.258 . S
C118 C119 1.477 . S
C118 H138 0.931 . S
C119 C115 1.460 . S
C119 C118 1.477 . S
C119 H139 0.930 . S
C120 N116 1.362 . S
C120 C117 1.431 . S
C120 C130 1.476 . S
H121 C115 0.929 . S
C122 O113 1.250 . S
C122 O114 1.258 . S
O123 Mn108 2.162 . S
O123 C111 1.281 . S
O124 Mn108 2.297 . S
O124 C111 1.236 . S
N125 Mn109 2.282 . S
N125 C126 1.328 . S
N125 C130 1.318 . S
C126 N125 1.328 . S
C126 C127 1.457 . S
C126 H131 0.929 . S
C127 C126 1.457 . S
C127 C128 1.291 . S
C127 H140 0.931 . S
C128 C127 1.291 . S
C128 C129 1.373 . S
C128 H141 0.929 . S
C129 C128 1.373 . S
C129 C130 1.396 . S
C129 C136 1.403 . S
C130 C120 1.476 . S
C130 N125 1.318 . S
C130 C129 1.396 . S
H131 C126 0.929 . S
O132 Mn108 2.385 . S
O132 C110 1.234 . S
O133 Mn108 2.209 . S
O133 Mn109 2.215 . S
O133 C110 1.283 . S
O134 Mn108 2.094 . S
O134 C112 1.240 . S
O135 Mn109 2.117 . S
O135 C112 1.264 . S
C136 C129 1.403 . S
C136 C137 1.399 . S
C136 H142 0.929 . S
C137 C117 1.449 . S
C137 C136 1.399 . S
C137 H143 0.930 . S
H138 C118 0.931 . S
H139 C119 0.930 . S
H140 C127 0.931 . S
H141 C128 0.929 . S
H142 C136 0.929 . S
H143 C137 0.930 . S
Mn144 O149 2.095 . S
Mn144 O159 2.162 . S
Mn144 O160 2.297 . S
Mn144 O168 2.385 . S
Mn144 O169 2.209 . S
Mn144 O170 2.094 . S
Mn145 O150 2.121 . S
Mn145 N152 2.257 . S
Mn145 N161 2.282 . S
Mn145 O169 2.215 . S
Mn145 O171 2.117 . S
C146 O168 1.234 . S
C146 O169 1.283 . S
C147 O159 1.281 . S
C147 O160 1.236 . S
C148 O170 1.240 . S
C148 O171 1.264 . S
O149 Mn144 2.095 . S
O149 C158 1.250 . S
O150 Mn145 2.121 . S
O150 C158 1.258 . S
C151 N152 1.326 . S
C151 C155 1.460 . S
C151 H157 0.929 . S
N152 Mn145 2.257 . S
N152 C151 1.326 . S
N152 C156 1.362 . S
C153 C154 1.258 . S
C153 C156 1.431 . S
C153 C173 1.449 . S
C154 C153 1.258 . S
C154 C155 1.477 . S
C154 H174 0.931 . S
C155 C151 1.460 . S
C155 C154 1.477 . S
C155 H175 0.930 . S
C156 N152 1.362 . S
C156 C153 1.431 . S
C156 C166 1.476 . S
H157 C151 0.929 . S
C158 O149 1.250 . S
C158 O150 1.258 . S
O159 Mn144 2.162 . S
O159 C147 1.281 . S
O160 Mn144 2.297 . S
O160 C147 1.236 . S
N161 Mn145 2.282 . S
N161 C162 1.328 . S
N161 C166 1.318 . S
C162 N161 1.328 . S
C162 C163 1.457 . S
C162 H167 0.929 . S
C163 C162 1.457 . S
C163 C164 1.291 . S
C163 H176 0.931 . S
C164 C163 1.291 . S
C164 C165 1.373 . S
C164 H177 0.929 . S
C165 C164 1.373 . S
C165 C166 1.396 . S
C165 C172 1.403 . S
C166 C156 1.476 . S
C166 N161 1.318 . S
C166 C165 1.396 . S
H167 C162 0.929 . S
O168 Mn144 2.385 . S
O168 C146 1.234 . S
O169 Mn144 2.209 . S
O169 Mn145 2.215 . S
O169 C146 1.283 . S
O170 Mn144 2.094 . S
O170 C148 1.240 . S
O171 Mn145 2.117 . S
O171 C148 1.264 . S
C172 C165 1.403 . S
C172 C173 1.399 . S
C172 H178 0.929 . S
C173 C153 1.449 . S
C173 C172 1.399 . S
C173 H179 0.930 . S
H174 C154 0.931 . S
H175 C155 0.930 . S
H176 C163 0.931 . S
H177 C164 0.929 . S
H178 C172 0.929 . S
H179 C173 0.930 . S
Mn180 O185 2.095 . S
Mn180 O195 2.162 . S
Mn180 O196 2.297 . S
Mn180 O204 2.354 1_556 S
Mn180 O205 2.209 . S
Mn180 O206 2.094 . S
Mn181 O186 2.121 . S
Mn181 N188 2.257 . S
Mn181 N197 2.282 . S
Mn181 O205 2.215 . S
Mn181 O207 2.117 . S
C182 O204 1.243 . S
C182 O205 1.283 1_554 S
C183 O195 1.281 . S
C183 O196 1.236 . S
C184 O206 1.240 . S
C184 O207 1.264 . S
O185 Mn180 2.095 . S
O185 C194 1.250 . S
O186 Mn181 2.121 . S
O186 C194 1.258 . S
C187 N188 1.326 . S
C187 C191 1.460 1_556 S
C187 H193 0.929 . S
N188 Mn181 2.257 . S
N188 C187 1.326 . S
N188 C192 1.362 1_556 S
C189 C190 1.258 . S
C189 C192 1.431 . S
C189 C209 1.449 . S
C190 C189 1.258 . S
C190 C191 1.477 . S
C190 H210 0.931 . S
C191 C187 1.460 1_554 S
C191 C190 1.477 . S
C191 H211 0.930 . S
C192 N188 1.362 1_554 S
C192 C189 1.431 . S
C192 C202 1.482 . S
H193 C187 0.929 . S
C194 O185 1.250 . S
C194 O186 1.258 . S
O195 Mn180 2.162 . S
O195 C183 1.281 . S
O196 Mn180 2.297 . S
O196 C183 1.236 . S
N197 Mn181 2.282 . S
N197 C198 1.328 . S
N197 C202 1.292 1_556 S
C198 N197 1.328 . S
C198 C199 1.457 . S
C198 H203 0.929 . S
C199 C198 1.457 . S
C199 C200 1.291 1_556 S
C199 H212 0.931 . S
C200 C199 1.291 1_554 S
C200 C201 1.373 . S
C200 H213 0.929 . S
C201 C200 1.373 . S
C201 C202 1.416 . S
C201 C208 1.403 . S
C202 C192 1.482 . S
C202 N197 1.292 1_554 S
C202 C201 1.416 . S
H203 C198 0.929 . S
O204 Mn180 2.354 1_554 S
O204 C182 1.243 . S
O205 Mn180 2.209 . S
O205 Mn181 2.215 . S
O205 C182 1.283 1_556 S
O206 Mn180 2.094 . S
O206 C184 1.240 . S
O207 Mn181 2.117 . S
O207 C184 1.264 . S
C208 C201 1.403 . S
C208 C209 1.399 . S
C208 H214 0.929 . S
C209 C189 1.449 . S
C209 C208 1.399 . S
C209 H215 0.930 . S
H210 C190 0.931 . S
H211 C191 0.930 . S
H212 C199 0.931 . S
H213 C200 0.929 . S
H214 C208 0.929 . S
H215 C209 0.930 . S
Mn216 O221 2.095 . S
Mn216 O231 2.162 . S
Mn216 O232 2.297 . S
Mn216 O240 2.385 . S
Mn216 O241 2.209 . S
Mn216 O242 2.094 . S
Mn217 O222 2.121 . S
Mn217 N224 2.257 . S
Mn217 N233 2.282 . S
Mn217 O241 2.215 . S
Mn217 O243 2.117 . S
C218 O240 1.234 . S
C218 O241 1.283 . S
C219 O231 1.281 . S
C219 O232 1.236 . S
C220 O242 1.240 . S
C220 O243 1.264 . S
O221 Mn216 2.095 . S
O221 C230 1.250 . S
O222 Mn217 2.121 . S
O222 C230 1.258 . S
C223 N224 1.326 . S
C223 C227 1.460 . S
C223 H229 0.929 . S
N224 Mn217 2.257 . S
N224 C223 1.326 . S
N224 C228 1.362 . S
C225 C226 1.258 . S
C225 C228 1.431 . S
C225 C245 1.449 . S
C226 C225 1.258 . S
C226 C227 1.477 . S
C226 H246 0.931 . S
C227 C223 1.460 . S
C227 C226 1.477 . S
C227 H247 0.930 . S
C228 N224 1.362 . S
C228 C225 1.431 . S
C228 C238 1.476 . S
H229 C223 0.929 . S
C230 O221 1.250 . S
C230 O222 1.258 . S
O231 Mn216 2.162 . S
O231 C219 1.281 . S
O232 Mn216 2.297 . S
O232 C219 1.236 . S
N233 Mn217 2.282 . S
N233 C234 1.328 . S
N233 C238 1.318 . S
C234 N233 1.328 . S
C234 C235 1.457 . S
C234 H239 0.929 . S
C235 C234 1.457 . S
C235 C236 1.291 . S
C235 H248 0.931 . S
C236 C235 1.291 . S
C236 C237 1.373 . S
C236 H249 0.929 . S
C237 C236 1.373 . S
C237 C238 1.396 . S
C237 C244 1.403 . S
C238 C228 1.476 . S
C238 N233 1.318 . S
C238 C237 1.396 . S
H239 C234 0.929 . S
O240 Mn216 2.385 . S
O240 C218 1.234 . S
O241 Mn216 2.209 . S
O241 Mn217 2.215 . S
O241 C218 1.283 . S
O242 Mn216 2.094 . S
O242 C220 1.240 . S
O243 Mn217 2.117 . S
O243 C220 1.264 . S
C244 C237 1.403 . S
C244 C245 1.399 . S
C244 H250 0.929 . S
C245 C225 1.449 . S
C245 C244 1.399 . S
C245 H251 0.930 . S
H246 C226 0.931 . S
H247 C227 0.930 . S
H248 C235 0.931 . S
H249 C236 0.929 . S
H250 C244 0.929 . S
H251 C245 0.930 . S
Mn252 O257 2.095 . S
Mn252 O267 2.162 . S
Mn252 O268 2.297 . S
Mn252 O276 2.385 . S
Mn252 O277 2.209 . S
Mn252 O278 2.094 . S
Mn253 O258 2.121 . S
Mn253 N260 2.257 . S
Mn253 N269 2.282 . S
Mn253 O277 2.215 . S
Mn253 O279 2.117 . S
C254 O276 1.234 . S
C254 O277 1.283 . S
C255 O267 1.281 . S
C255 O268 1.236 . S
C256 O278 1.240 . S
C256 O279 1.264 . S
O257 Mn252 2.095 . S
O257 C266 1.250 . S
O258 Mn253 2.121 . S
O258 C266 1.258 . S
C259 N260 1.326 . S
C259 C263 1.460 . S
C259 H265 0.929 . S
N260 Mn253 2.257 . S
N260 C259 1.326 . S
N260 C264 1.362 . S
C261 C262 1.258 . S
C261 C264 1.431 . S
C261 C281 1.449 . S
C262 C261 1.258 . S
C262 C263 1.477 . S
C262 H282 0.931 . S
C263 C259 1.460 . S
C263 C262 1.477 . S
C263 H283 0.930 . S
C264 N260 1.362 . S
C264 C261 1.431 . S
C264 C274 1.476 . S
H265 C259 0.929 . S
C266 O257 1.250 . S
C266 O258 1.258 . S
O267 Mn252 2.162 . S
O267 C255 1.281 . S
O268 Mn252 2.297 . S
O268 C255 1.236 . S
N269 Mn253 2.282 . S
N269 C270 1.328 . S
N269 C274 1.318 . S
C270 N269 1.328 . S
C270 C271 1.457 . S
C270 H275 0.929 . S
C271 C270 1.457 . S
C271 C272 1.291 . S
C271 H284 0.931 . S
C272 C271 1.291 . S
C272 C273 1.373 . S
C272 H285 0.929 . S
C273 C272 1.373 . S
C273 C274 1.396 . S
C273 C280 1.403 . S
C274 C264 1.476 . S
C274 N269 1.318 . S
C274 C273 1.396 . S
H275 C270 0.929 . S
O276 Mn252 2.385 . S
O276 C254 1.234 . S
O277 Mn252 2.209 . S
O277 Mn253 2.215 . S
O277 C254 1.283 . S
O278 Mn252 2.094 . S
O278 C256 1.240 . S
O279 Mn253 2.117 . S
O279 C256 1.264 . S
C280 C273 1.403 . S
C280 C281 1.399 . S
C280 H286 0.929 . S
C281 C261 1.449 . S
C281 C280 1.399 . S
C281 H287 0.930 . S
H282 C262 0.931 . S
H283 C263 0.930 . S
H284 C271 0.931 . S
H285 C272 0.929 . S
H286 C280 0.929 . S
H287 C281 0.930 . S
Mn288 O293 2.095 . S
Mn288 O303 2.162 . S
Mn288 O304 2.297 . S
Mn288 O312 2.354 1_554 S
Mn288 O313 2.209 . S
Mn288 O314 2.094 . S
Mn289 O294 2.121 . S
Mn289 N296 2.257 . S
Mn289 N305 2.282 . S
Mn289 O313 2.215 . S
Mn289 O315 2.117 . S
C290 O312 1.243 . S
C290 O313 1.283 1_556 S
C291 O303 1.281 . S
C291 O304 1.236 . S
C292 O314 1.240 . S
C292 O315 1.264 . S
O293 Mn288 2.095 . S
O293 C302 1.250 . S
O294 Mn289 2.121 . S
O294 C302 1.258 . S
C295 N296 1.326 . S
C295 C299 1.460 1_554 S
C295 H301 0.929 . S
N296 Mn289 2.257 . S
N296 C295 1.326 . S
N296 C300 1.362 1_554 S
C297 C298 1.258 . S
C297 C300 1.431 . S
C297 C317 1.449 . S
C298 C297 1.258 . S
C298 C299 1.477 . S
C298 H318 0.931 . S
C299 C295 1.460 1_556 S
C299 C298 1.477 . S
C299 H319 0.930 . S
C300 N296 1.362 1_556 S
C300 C297 1.431 . S
C300 C310 1.482 . S
H301 C295 0.929 . S
C302 O293 1.250 . S
C302 O294 1.258 . S
O303 Mn288 2.162 . S
O303 C291 1.281 . S
O304 Mn288 2.297 . S
O304 C291 1.236 . S
N305 Mn289 2.282 . S
N305 C306 1.328 . S
N305 C310 1.292 1_554 S
C306 N305 1.328 . S
C306 C307 1.457 . S
C306 H311 0.929 . S
C307 C306 1.457 . S
C307 C308 1.291 1_554 S
C307 H320 0.931 . S
C308 C307 1.291 1_556 S
C308 C309 1.373 . S
C308 H321 0.929 . S
C309 C308 1.373 . S
C309 C310 1.416 . S
C309 C316 1.403 . S
C310 C300 1.482 . S
C310 N305 1.292 1_556 S
C310 C309 1.416 . S
H311 C306 0.929 . S
O312 Mn288 2.354 1_556 S
O312 C290 1.243 . S
O313 Mn288 2.209 . S
O313 Mn289 2.215 . S
O313 C290 1.283 1_554 S
O314 Mn288 2.094 . S
O314 C292 1.240 . S
O315 Mn289 2.117 . S
O315 C292 1.264 . S
C316 C309 1.403 . S
C316 C317 1.399 . S
C316 H322 0.929 . S
C317 C297 1.449 . S
C317 C316 1.399 . S
C317 H323 0.930 . S
H318 C298 0.931 . S
H319 C299 0.930 . S
H320 C307 0.931 . S
H321 C308 0.929 . S
H322 C316 0.929 . S
H323 C317 0.930 . S
Mn324 O329 2.095 . S
Mn324 O339 2.162 . S
Mn324 O340 2.297 . S
Mn324 O348 2.385 . S
Mn324 O349 2.209 . S
Mn324 O350 2.094 . S
Mn325 O330 2.121 . S
Mn325 N332 2.257 . S
Mn325 N341 2.282 . S
Mn325 O349 2.215 . S
Mn325 O351 2.117 . S
C326 O348 1.234 . S
C326 O349 1.283 . S
C327 O339 1.281 . S
C327 O340 1.236 . S
C328 O350 1.240 . S
C328 O351 1.264 . S
O329 Mn324 2.095 . S
O329 C338 1.250 . S
O330 Mn325 2.121 . S
O330 C338 1.258 . S
C331 N332 1.326 . S
C331 C335 1.460 . S
C331 H337 0.929 . S
N332 Mn325 2.257 . S
N332 C331 1.326 . S
N332 C336 1.362 . S
C333 C334 1.258 . S
C333 C336 1.431 . S
C333 C353 1.449 . S
C334 C333 1.258 . S
C334 C335 1.477 . S
C334 H354 0.931 . S
C335 C331 1.460 . S
C335 C334 1.477 . S
C335 H355 0.930 . S
C336 N332 1.362 . S
C336 C333 1.431 . S
C336 C346 1.476 . S
H337 C331 0.929 . S
C338 O329 1.250 . S
C338 O330 1.258 . S
O339 Mn324 2.162 . S
O339 C327 1.281 . S
O340 Mn324 2.297 . S
O340 C327 1.236 . S
N341 Mn325 2.282 . S
N341 C342 1.328 . S
N341 C346 1.318 . S
C342 N341 1.328 . S
C342 C343 1.457 . S
C342 H347 0.929 . S
C343 C342 1.457 . S
C343 C344 1.291 . S
C343 H356 0.931 . S
C344 C343 1.291 . S
C344 C345 1.373 . S
C344 H357 0.929 . S
C345 C344 1.373 . S
C345 C346 1.396 . S
C345 C352 1.403 . S
C346 C336 1.476 . S
C346 N341 1.318 . S
C346 C345 1.396 . S
H347 C342 0.929 . S
O348 Mn324 2.385 . S
O348 C326 1.234 . S
O349 Mn324 2.209 . S
O349 Mn325 2.215 . S
O349 C326 1.283 . S
O350 Mn324 2.094 . S
O350 C328 1.240 . S
O351 Mn325 2.117 . S
O351 C328 1.264 . S
C352 C345 1.403 . S
C352 C353 1.399 . S
C352 H358 0.929 . S
C353 C333 1.449 . S
C353 C352 1.399 . S
C353 H359 0.930 . S
H354 C334 0.931 . S
H355 C335 0.930 . S
H356 C343 0.931 . S
H357 C344 0.929 . S
H358 C352 0.929 . S
H359 C353 0.930 . S
Mn360 O365 2.095 . S
Mn360 O375 2.162 . S
Mn360 O376 2.297 . S
Mn360 O384 2.385 . S
Mn360 O385 2.209 . S
Mn360 O386 2.094 . S
Mn361 O366 2.121 . S
Mn361 N368 2.257 . S
Mn361 N377 2.282 . S
Mn361 O385 2.215 . S
Mn361 O387 2.117 . S
C362 O384 1.234 . S
C362 O385 1.283 . S
C363 O375 1.281 . S
C363 O376 1.236 . S
C364 O386 1.240 . S
C364 O387 1.264 . S
O365 Mn360 2.095 . S
O365 C374 1.250 . S
O366 Mn361 2.121 . S
O366 C374 1.258 . S
C367 N368 1.326 . S
C367 C371 1.460 . S
C367 H373 0.929 . S
N368 Mn361 2.257 . S
N368 C367 1.326 . S
N368 C372 1.362 . S
C369 C370 1.258 . S
C369 C372 1.431 . S
C369 C389 1.449 . S
C370 C369 1.258 . S
C370 C371 1.477 . S
C370 H390 0.931 . S
C371 C367 1.460 . S
C371 C370 1.477 . S
C371 H391 0.930 . S
C372 N368 1.362 . S
C372 C369 1.431 . S
C372 C382 1.476 . S
H373 C367 0.929 . S
C374 O365 1.250 . S
C374 O366 1.258 . S
O375 Mn360 2.162 . S
O375 C363 1.281 . S
O376 Mn360 2.297 . S
O376 C363 1.236 . S
N377 Mn361 2.282 . S
N377 C378 1.328 . S
N377 C382 1.318 . S
C378 N377 1.328 . S
C378 C379 1.457 . S
C378 H383 0.929 . S
C379 C378 1.457 . S
C379 C380 1.291 . S
C379 H392 0.931 . S
C380 C379 1.291 . S
C380 C381 1.373 . S
C380 H393 0.929 . S
C381 C380 1.373 . S
C381 C382 1.396 . S
C381 C388 1.403 . S
C382 C372 1.476 . S
C382 N377 1.318 . S
C382 C381 1.396 . S
H383 C378 0.929 . S
O384 Mn360 2.385 . S
O384 C362 1.234 . S
O385 Mn360 2.209 . S
O385 Mn361 2.215 . S
O385 C362 1.283 . S
O386 Mn360 2.094 . S
O386 C364 1.240 . S
O387 Mn361 2.117 . S
O387 C364 1.264 . S
C388 C381 1.403 . S
C388 C389 1.399 . S
C388 H394 0.929 . S
C389 C369 1.449 . S
C389 C388 1.399 . S
C389 H395 0.930 . S
H390 C370 0.931 . S
H391 C371 0.930 . S
H392 C379 0.931 . S
H393 C380 0.929 . S
H394 C388 0.929 . S
H395 C389 0.930 . S
Mn396 O401 2.095 . S
Mn396 O411 2.162 . S
Mn396 O412 2.297 . S
Mn396 O420 2.385 . S
Mn396 O421 2.209 . S
Mn396 O422 2.094 . S
Mn397 O402 2.121 . S
Mn397 N404 2.257 . S
Mn397 N413 2.282 . S
Mn397 O421 2.215 . S
Mn397 O423 2.117 . S
C398 O420 1.234 . S
C398 O421 1.283 . S
C399 O411 1.281 . S
C399 O412 1.236 . S
C400 O422 1.240 . S
C400 O423 1.264 . S
O401 Mn396 2.095 . S
O401 C410 1.250 . S
O402 Mn397 2.121 . S
O402 C410 1.258 . S
C403 N404 1.326 . S
C403 C407 1.460 . S
C403 H409 0.929 . S
N404 Mn397 2.257 . S
N404 C403 1.326 . S
N404 C408 1.362 . S
C405 C406 1.258 . S
C405 C408 1.431 . S
C405 C425 1.449 . S
C406 C405 1.258 . S
C406 C407 1.477 . S
C406 H426 0.931 . S
C407 C403 1.460 . S
C407 C406 1.477 . S
C407 H427 0.930 . S
C408 N404 1.362 . S
C408 C405 1.431 . S
C408 C418 1.476 . S
H409 C403 0.929 . S
C410 O401 1.250 . S
C410 O402 1.258 . S
O411 Mn396 2.162 . S
O411 C399 1.281 . S
O412 Mn396 2.297 . S
O412 C399 1.236 . S
N413 Mn397 2.282 . S
N413 C414 1.328 . S
N413 C418 1.318 . S
C414 N413 1.328 . S
C414 C415 1.457 . S
C414 H419 0.929 . S
C415 C414 1.457 . S
C415 C416 1.291 . S
C415 H428 0.931 . S
C416 C415 1.291 . S
C416 C417 1.373 . S
C416 H429 0.929 . S
C417 C416 1.373 . S
C417 C418 1.396 . S
C417 C424 1.403 . S
C418 C408 1.476 . S
C418 N413 1.318 . S
C418 C417 1.396 . S
H419 C414 0.929 . S
O420 Mn396 2.385 . S
O420 C398 1.234 . S
O421 Mn396 2.209 . S
O421 Mn397 2.215 . S
O421 C398 1.283 . S
O422 Mn396 2.094 . S
O422 C400 1.240 . S
O423 Mn397 2.117 . S
O423 C400 1.264 . S
C424 C417 1.403 . S
C424 C425 1.399 . S
C424 H430 0.929 . S
C425 C405 1.449 . S
C425 C424 1.399 . S
C425 H431 0.930 . S
H426 C406 0.931 . S
H427 C407 0.930 . S
H428 C415 0.931 . S
H429 C416 0.929 . S
H430 C424 0.929 . S
H431 C425 0.930 . S
H432 C444 0.930 . S
H433 C446 0.930 . S
H434 C447 0.930 . S
H435 C451 0.959 . S
H436 C451 0.959 . S
H437 C451 0.961 . S
H438 C452 0.960 . S
H439 C452 0.961 . S
H440 C452 0.959 . S
H441 C455 0.929 . S
H442 C456 0.931 . S
H443 C458 0.930 . S
C444 H432 0.930 . S
C444 C445 1.399 . S
C444 C449 1.399 . S
C445 C444 1.399 . S
C445 C446 1.376 . S
C446 H433 0.930 . S
C446 C445 1.376 . S
C446 C447 1.388 . S
C447 H434 0.930 . S
C447 C446 1.388 . S
C447 C448 1.390 . S
C448 C447 1.390 . S
C448 C449 1.394 . S
C448 C454 1.465 . S
C449 C444 1.399 . S
C449 C448 1.394 . S
C449 C450 1.516 . S
C450 C449 1.516 . S
C450 C451 1.502 . S
C450 C452 1.561 . S
C450 C453 1.526 . S
C451 H435 0.959 . S
C451 H436 0.959 . S
C451 H437 0.961 . S
C451 C450 1.502 . S
C452 H438 0.960 . S
C452 H439 0.961 . S
C452 H440 0.959 . S
C452 C450 1.561 . S
C453 C450 1.526 . S
C453 C454 1.396 . S
C453 C458 1.390 . S
C454 C448 1.465 . S
C454 C453 1.396 . S
C454 C455 1.399 . S
C455 H441 0.929 . S
C455 C454 1.399 . S
C455 C456 1.385 . S
C456 H442 0.931 . S
C456 C455 1.385 . S
C456 C457 1.389 . S
C457 C456 1.389 . S
C457 C458 1.387 . S
C458 H443 0.930 . S
C458 C453 1.390 . S
C458 C457 1.387 . S
H459 C471 0.930 . S
H460 C473 0.930 . S
H461 C474 0.930 . S
H462 C478 0.959 . S
H463 C478 0.959 . S
H464 C478 0.961 . S
H465 C479 0.960 . S
H466 C479 0.961 . S
H467 C479 0.959 . S
H468 C482 0.929 . S
H469 C483 0.931 . S
H470 C485 0.930 . S
C471 H459 0.930 . S
C471 C472 1.399 . S
C471 C476 1.399 . S
C472 C471 1.399 . S
C472 C473 1.376 . S
C473 H460 0.930 . S
C473 C472 1.376 . S
C473 C474 1.388 . S
C474 H461 0.930 . S
C474 C473 1.388 . S
C474 C475 1.390 . S
C475 C474 1.390 . S
C475 C476 1.394 . S
C475 C481 1.465 . S
C476 C471 1.399 . S
C476 C475 1.394 . S
C476 C477 1.516 . S
C477 C476 1.516 . S
C477 C478 1.502 . S
C477 C479 1.561 . S
C477 C480 1.526 . S
C478 H462 0.959 . S
C478 H463 0.959 . S
C478 H464 0.961 . S
C478 C477 1.502 . S
C479 H465 0.960 . S
C479 H466 0.961 . S
C479 H467 0.959 . S
C479 C477 1.561 . S
C480 C477 1.526 . S
C480 C481 1.396 . S
C480 C485 1.390 . S
C481 C475 1.465 . S
C481 C480 1.396 . S
C481 C482 1.399 . S
C482 H468 0.929 . S
C482 C481 1.399 . S
C482 C483 1.385 . S
C483 H469 0.931 . S
C483 C482 1.385 . S
C483 C484 1.389 . S
C484 C483 1.389 . S
C484 C485 1.387 . S
C485 H470 0.930 . S
C485 C480 1.390 . S
C485 C484 1.387 . S
H486 C498 0.930 . S
H487 C500 0.930 . S
H488 C501 0.930 . S
H489 C505 0.959 . S
H490 C505 0.959 . S
H491 C505 0.961 . S
H492 C506 0.960 . S
H493 C506 0.961 . S
H494 C506 0.959 . S
H495 C509 0.929 . S
H496 C510 0.931 . S
H497 C512 0.930 . S
C498 H486 0.930 . S
C498 C499 1.399 . S
C498 C503 1.399 . S
C499 C498 1.399 . S
C499 C500 1.376 . S
C500 H487 0.930 . S
C500 C499 1.376 . S
C500 C501 1.388 . S
C501 H488 0.930 . S
C501 C500 1.388 . S
C501 C502 1.390 . S
C502 C501 1.390 . S
C502 C503 1.394 . S
C502 C508 1.465 . S
C503 C498 1.399 . S
C503 C502 1.394 . S
C503 C504 1.516 . S
C504 C503 1.516 . S
C504 C505 1.502 . S
C504 C506 1.561 . S
C504 C507 1.526 . S
C505 H489 0.959 . S
C505 H490 0.959 . S
C505 H491 0.961 . S
C505 C504 1.502 . S
C506 H492 0.960 . S
C506 H493 0.961 . S
C506 H494 0.959 . S
C506 C504 1.561 . S
C507 C504 1.526 . S
C507 C508 1.396 . S
C507 C512 1.390 . S
C508 C502 1.465 . S
C508 C507 1.396 . S
C508 C509 1.399 . S
C509 H495 0.929 . S
C509 C508 1.399 . S
C509 C510 1.385 . S
C510 H496 0.931 . S
C510 C509 1.385 . S
C510 C511 1.389 . S
C511 C510 1.389 . S
C511 C512 1.387 . S
C512 H497 0.930 . S
C512 C507 1.390 . S
C512 C511 1.387 . S
H513 C525 0.930 . S
H514 C527 0.930 . S
H515 C528 0.930 . S
H516 C532 0.959 . S
H517 C532 0.959 . S
H518 C532 0.961 . S
H519 C533 0.960 . S
H520 C533 0.961 . S
H521 C533 0.959 . S
H522 C536 0.929 . S
H523 C537 0.931 . S
H524 C539 0.930 . S
C525 H513 0.930 . S
C525 C526 1.399 . S
C525 C530 1.399 . S
C526 C525 1.399 . S
C526 C527 1.376 . S
C527 H514 0.930 . S
C527 C526 1.376 . S
C527 C528 1.388 . S
C528 H515 0.930 . S
C528 C527 1.388 . S
C528 C529 1.390 . S
C529 C528 1.390 . S
C529 C530 1.394 . S
C529 C535 1.465 . S
C530 C525 1.399 . S
C530 C529 1.394 . S
C530 C531 1.516 . S
C531 C530 1.516 . S
C531 C532 1.502 . S
C531 C533 1.561 . S
C531 C534 1.526 . S
C532 H516 0.959 . S
C532 H517 0.959 . S
C532 H518 0.961 . S
C532 C531 1.502 . S
C533 H519 0.960 . S
C533 H520 0.961 . S
C533 H521 0.959 . S
C533 C531 1.561 . S
C534 C531 1.526 . S
C534 C535 1.396 . S
C534 C539 1.390 . S
C535 C529 1.465 . S
C535 C534 1.396 . S
C535 C536 1.399 . S
C536 H522 0.929 . S
C536 C535 1.399 . S
C536 C537 1.385 . S
C537 H523 0.931 . S
C537 C536 1.385 . S
C537 C538 1.389 . S
C538 C537 1.389 . S
C538 C539 1.387 . S
C539 H524 0.930 . S
C539 C534 1.390 . S
C539 C538 1.387 . S
H540 C552 0.930 . S
H541 C554 0.930 . S
H542 C555 0.930 . S
H543 C559 0.959 . S
H544 C559 0.959 . S
H545 C559 0.961 . S
H546 C560 0.960 . S
H547 C560 0.961 . S
H548 C560 0.959 . S
H549 C563 0.929 . S
H550 C564 0.931 . S
H551 C566 0.930 . S
C552 H540 0.930 . S
C552 C553 1.399 . S
C552 C557 1.399 . S
C553 C552 1.399 . S
C553 C554 1.376 . S
C554 H541 0.930 . S
C554 C553 1.376 . S
C554 C555 1.388 . S
C555 H542 0.930 . S
C555 C554 1.388 . S
C555 C556 1.390 . S
C556 C555 1.390 . S
C556 C557 1.394 . S
C556 C562 1.465 . S
C557 C552 1.399 . S
C557 C556 1.394 . S
C557 C558 1.516 . S
C558 C557 1.516 . S
C558 C559 1.502 . S
C558 C560 1.561 . S
C558 C561 1.526 . S
C559 H543 0.959 . S
C559 H544 0.959 . S
C559 H545 0.961 . S
C559 C558 1.502 . S
C560 H546 0.960 . S
C560 H547 0.961 . S
C560 H548 0.959 . S
C560 C558 1.561 . S
C561 C558 1.526 . S
C561 C562 1.396 . S
C561 C566 1.390 . S
C562 C556 1.465 . S
C562 C561 1.396 . S
C562 C563 1.399 . S
C563 H549 0.929 . S
C563 C562 1.399 . S
C563 C564 1.385 . S
C564 H550 0.931 . S
C564 C563 1.385 . S
C564 C565 1.389 . S
C565 C564 1.389 . S
C565 C566 1.387 . S
C566 H551 0.930 . S
C566 C561 1.390 . S
C566 C565 1.387 . S
H567 C579 0.930 . S
H568 C581 0.930 . S
H569 C582 0.930 . S
H570 C586 0.959 . S
H571 C586 0.959 . S
H572 C586 0.961 . S
H573 C587 0.960 . S
H574 C587 0.961 . S
H575 C587 0.959 . S
H576 C590 0.929 . S
H577 C591 0.931 . S
H578 C593 0.930 . S
C579 H567 0.930 . S
C579 C580 1.399 . S
C579 C584 1.399 . S
C580 C579 1.399 . S
C580 C581 1.376 . S
C581 H568 0.930 . S
C581 C580 1.376 . S
C581 C582 1.388 . S
C582 H569 0.930 . S
C582 C581 1.388 . S
C582 C583 1.390 . S
C583 C582 1.390 . S
C583 C584 1.394 . S
C583 C589 1.465 . S
C584 C579 1.399 . S
C584 C583 1.394 . S
C584 C585 1.516 . S
C585 C584 1.516 . S
C585 C586 1.502 . S
C585 C587 1.561 . S
C585 C588 1.526 . S
C586 H570 0.959 . S
C586 H571 0.959 . S
C586 H572 0.961 . S
C586 C585 1.502 . S
C587 H573 0.960 . S
C587 H574 0.961 . S
C587 H575 0.959 . S
C587 C585 1.561 . S
C588 C585 1.526 . S
C588 C589 1.396 . S
C588 C593 1.390 . S
C589 C583 1.465 . S
C589 C588 1.396 . S
C589 C590 1.399 . S
C590 H576 0.929 . S
C590 C589 1.399 . S
C590 C591 1.385 . S
C591 H577 0.931 . S
C591 C590 1.385 . S
C591 C592 1.389 . S
C592 C591 1.389 . S
C592 C593 1.387 . S
C593 H578 0.930 . S
C593 C588 1.390 . S
C593 C592 1.387 . S
H594 C606 0.930 . S
H595 C608 0.930 . S
H596 C609 0.930 . S
H597 C613 0.959 . S
H598 C613 0.959 . S
H599 C613 0.961 . S
H600 C614 0.960 . S
H601 C614 0.961 . S
H602 C614 0.959 . S
H603 C617 0.929 . S
H604 C618 0.931 . S
H605 C620 0.956 . S
C606 H594 0.930 . S
C606 C607 1.399 . S
C606 C611 1.399 . S
C607 C606 1.399 . S
C607 C608 1.376 . S
C608 H595 0.930 . S
C608 C607 1.376 . S
C608 C609 1.388 . S
C609 H596 0.930 . S
C609 C608 1.388 . S
C609 C610 1.390 . S
C610 C609 1.390 . S
C610 C611 1.394 . S
C610 C616 1.465 . S
C611 C606 1.399 . S
C611 C610 1.394 . S
C611 C612 1.516 . S
C612 C611 1.516 . S
C612 C613 1.502 1_554 S
C612 C614 1.561 . S
C612 C615 1.526 . S
C613 H597 0.959 . S
C613 H598 0.959 . S
C613 H599 0.961 . S
C613 C612 1.502 1_556 S
C614 H600 0.960 . S
C614 H601 0.961 . S
C614 H602 0.959 . S
C614 C612 1.561 . S
C615 C612 1.526 . S
C615 C616 1.396 . S
C615 C620 1.367 1_554 S
C616 C610 1.465 . S
C616 C615 1.396 . S
C616 C617 1.399 . S
C617 H603 0.929 . S
C617 C616 1.399 . S
C617 C618 1.385 . S
C618 H604 0.931 . S
C618 C617 1.385 . S
C618 C619 1.389 . S
C619 C618 1.389 . S
C619 C620 1.383 1_554 S
C620 H605 0.956 . S
C620 C615 1.367 1_556 S
C620 C619 1.383 1_556 S
H621 C633 0.930 . S
H622 C635 0.930 . S
H623 C636 0.930 . S
H624 C640 0.959 . S
H625 C640 0.959 . S
H626 C640 0.961 . S
H627 C641 0.960 . S
H628 C641 0.961 . S
H629 C641 0.959 . S
H630 C644 0.929 . S
H631 C645 0.931 1_455 S
H632 C647 0.930 . S
C633 H621 0.930 . S
C633 C634 1.399 . S
C633 C638 1.399 . S
C634 C633 1.399 . S
C634 C635 1.376 . S
C635 H622 0.930 . S
C635 C634 1.376 . S
C635 C636 1.388 . S
C636 H623 0.930 . S
C636 C635 1.388 . S
C636 C637 1.390 . S
C637 C636 1.390 . S
C637 C638 1.394 . S
C637 C643 1.465 . S
C638 C633 1.399 . S
C638 C637 1.394 . S
C638 C639 1.516 . S
C639 C638 1.516 . S
C639 C640 1.502 . S
C639 C641 1.561 . S
C639 C642 1.526 . S
C640 H624 0.959 . S
C640 H625 0.959 . S
C640 H626 0.961 . S
C640 C639 1.502 . S
C641 H627 0.960 . S
C641 H628 0.961 . S
C641 H629 0.959 . S
C641 C639 1.561 . S
C642 C639 1.526 . S
C642 C643 1.396 . S
C642 C647 1.390 . S
C643 C637 1.465 . S
C643 C642 1.396 . S
C643 C644 1.399 . S
C644 H630 0.929 . S
C644 C643 1.399 . S
C644 C645 1.385 . S
C645 H631 0.931 1_655 S
C645 C644 1.385 . S
C645 C646 1.389 . S
C646 C645 1.389 . S
C646 C647 1.387 . S
C647 H632 0.930 . S
C647 C642 1.390 . S
C647 C646 1.387 . S
H648 C660 0.930 . S
H649 C662 0.930 . S
H650 C663 0.930 . S
H651 C667 0.959 . S
H652 C667 0.959 . S
H653 C667 0.961 . S
H654 C668 0.960 . S
H655 C668 0.961 . S
H656 C668 0.959 . S
H657 C671 0.929 . S
H658 C672 0.931 . S
H659 C674 0.930 . S
C660 H648 0.930 . S
C660 C661 1.399 . S
C660 C665 1.399 . S
C661 C660 1.399 . S
C661 C662 1.376 . S
C662 H649 0.930 . S
C662 C661 1.376 . S
C662 C663 1.388 . S
C663 H650 0.930 . S
C663 C662 1.388 . S
C663 C664 1.390 . S
C664 C663 1.390 . S
C664 C665 1.394 . S
C664 C670 1.465 . S
C665 C660 1.399 . S
C665 C664 1.394 . S
C665 C666 1.516 . S
C666 C665 1.516 . S
C666 C667 1.502 . S
C666 C668 1.561 . S
C666 C669 1.526 . S
C667 H651 0.959 . S
C667 H652 0.959 . S
C667 H653 0.961 . S
C667 C666 1.502 . S
C668 H654 0.960 . S
C668 H655 0.961 . S
C668 H656 0.959 . S
C668 C666 1.561 . S
C669 C666 1.526 . S
C669 C670 1.396 . S
C669 C674 1.390 . S
C670 C664 1.465 . S
C670 C669 1.396 . S
C670 C671 1.399 . S
C671 H657 0.929 . S
C671 C670 1.399 . S
C671 C672 1.385 . S
C672 H658 0.931 . S
C672 C671 1.385 . S
C672 C673 1.389 . S
C673 C672 1.389 . S
C673 C674 1.387 . S
C674 H659 0.930 . S
C674 C669 1.390 . S
C674 C673 1.387 . S
H675 C687 0.930 . S
H676 C689 0.930 . S
H677 C690 0.930 . S
H678 C694 0.959 . S
H679 C694 0.959 . S
H680 C694 0.961 . S
H681 C695 0.960 . S
H682 C695 0.961 . S
H683 C695 0.959 . S
H684 C698 0.929 . S
H685 C699 0.931 . S
H686 C701 0.930 . S
C687 H675 0.930 . S
C687 C688 1.399 . S
C687 C692 1.399 . S
C688 C687 1.399 . S
C688 C689 1.376 . S
C689 H676 0.930 . S
C689 C688 1.376 . S
C689 C690 1.388 . S
C690 H677 0.930 . S
C690 C689 1.388 . S
C690 C691 1.390 . S
C691 C690 1.390 . S
C691 C692 1.394 . S
C691 C697 1.465 . S
C692 C687 1.399 . S
C692 C691 1.394 . S
C692 C693 1.516 . S
C693 C692 1.516 . S
C693 C694 1.502 . S
C693 C695 1.561 . S
C693 C696 1.526 . S
C694 H678 0.959 . S
C694 H679 0.959 . S
C694 H680 0.961 . S
C694 C693 1.502 . S
C695 H681 0.960 . S
C695 H682 0.961 . S
C695 H683 0.959 . S
C695 C693 1.561 . S
C696 C693 1.526 . S
C696 C697 1.396 . S
C696 C701 1.390 . S
C697 C691 1.465 . S
C697 C696 1.396 . S
C697 C698 1.399 . S
C698 H684 0.929 . S
C698 C697 1.399 . S
C698 C699 1.385 . S
C699 H685 0.931 . S
C699 C698 1.385 . S
C699 C700 1.389 . S
C700 C699 1.389 . S
C700 C701 1.387 . S
C701 H686 0.930 . S
C701 C696 1.390 . S
C701 C700 1.387 . S
H702 C714 0.930 . S
H703 C716 0.930 . S
H704 C717 0.930 . S
H705 C721 0.959 . S
H706 C721 0.959 . S
H707 C721 0.961 . S
H708 C722 0.960 . S
H709 C722 0.961 . S
H710 C722 0.959 . S
H711 C725 0.929 . S
H712 C726 0.931 . S
H713 C728 0.930 . S
C714 H702 0.930 . S
C714 C715 1.399 . S
C714 C719 1.399 . S
C715 C714 1.399 . S
C715 C716 1.376 . S
C716 H703 0.930 . S
C716 C715 1.376 . S
C716 C717 1.388 . S
C717 H704 0.930 . S
C717 C716 1.388 . S
C717 C718 1.390 . S
C718 C717 1.390 . S
C718 C719 1.394 . S
C718 C724 1.465 . S
C719 C714 1.399 . S
C719 C718 1.394 . S
C719 C720 1.516 . S
C720 C719 1.516 . S
C720 C721 1.502 . S
C720 C722 1.561 . S
C720 C723 1.526 . S
C721 H705 0.959 . S
C721 H706 0.959 . S
C721 H707 0.961 . S
C721 C720 1.502 . S
C722 H708 0.960 . S
C722 H709 0.961 . S
C722 H710 0.959 . S
C722 C720 1.561 . S
C723 C720 1.526 . S
C723 C724 1.396 . S
C723 C728 1.390 . S
C724 C718 1.465 . S
C724 C723 1.396 . S
C724 C725 1.399 . S
C725 H711 0.929 . S
C725 C724 1.399 . S
C725 C726 1.385 . S
C726 H712 0.931 . S
C726 C725 1.385 . S
C726 C727 1.389 . S
C727 C726 1.389 . S
C727 C728 1.387 . S
C728 H713 0.930 . S
C728 C723 1.390 . S
C728 C727 1.387 . S
H729 C741 0.930 . S
H730 C743 0.930 . S
H731 C744 0.930 . S
H732 C748 0.959 . S
H733 C748 0.959 . S
H734 C748 0.961 . S
H735 C749 0.960 . S
H736 C749 0.961 . S
H737 C749 0.959 . S
H738 C752 0.929 . S
H739 C753 0.931 . S
H740 C755 0.930 . S
C741 H729 0.930 . S
C741 C742 1.399 . S
C741 C746 1.399 . S
C742 C741 1.399 . S
C742 C743 1.376 . S
C743 H730 0.930 . S
C743 C742 1.376 . S
C743 C744 1.388 . S
C744 H731 0.930 . S
C744 C743 1.388 . S
C744 C745 1.390 . S
C745 C744 1.390 . S
C745 C746 1.394 . S
C745 C751 1.465 . S
C746 C741 1.399 . S
C746 C745 1.394 . S
C746 C747 1.516 . S
C747 C746 1.516 . S
C747 C748 1.502 . S
C747 C749 1.561 . S
C747 C750 1.526 . S
C748 H732 0.959 . S
C748 H733 0.959 . S
C748 H734 0.961 . S
C748 C747 1.502 . S
C749 H735 0.960 . S
C749 H736 0.961 . S
C749 H737 0.959 . S
C749 C747 1.561 . S
C750 C747 1.526 . S
C750 C751 1.396 . S
C750 C755 1.390 . S
C751 C745 1.465 . S
C751 C750 1.396 . S
C751 C752 1.399 . S
C752 H738 0.929 . S
C752 C751 1.399 . S
C752 C753 1.385 . S
C753 H739 0.931 . S
C753 C752 1.385 . S
C753 C754 1.389 . S
C754 C753 1.389 . S
C754 C755 1.387 . S
C755 H740 0.930 . S
C755 C750 1.390 . S
C755 C754 1.387 . S
H756 C768 0.930 . S
H757 C770 0.930 . S
H758 C771 0.930 . S
H759 C775 0.959 . S
H760 C775 0.959 . S
H761 C775 0.961 . S
H762 C776 0.960 . S
H763 C776 0.961 . S
H764 C776 0.959 . S
H765 C779 0.929 . S
H766 C780 0.931 . S
H767 C782 0.930 . S
C768 H756 0.930 . S
C768 C769 1.399 . S
C768 C773 1.399 . S
C769 C768 1.399 . S
C769 C770 1.376 . S
C770 H757 0.930 . S
C770 C769 1.376 . S
C770 C771 1.388 . S
C771 H758 0.930 . S
C771 C770 1.388 . S
C771 C772 1.390 . S
C772 C771 1.390 . S
C772 C773 1.394 . S
C772 C778 1.465 . S
C773 C768 1.399 . S
C773 C772 1.394 . S
C773 C774 1.516 . S
C774 C773 1.516 . S
C774 C775 1.502 . S
C774 C776 1.561 . S
C774 C777 1.526 . S
C775 H759 0.959 . S
C775 H760 0.959 . S
C775 H761 0.961 . S
C775 C774 1.502 . S
C776 H762 0.960 . S
C776 H763 0.961 . S
C776 H764 0.959 . S
C776 C774 1.561 . S
C777 C774 1.526 . S
C777 C778 1.396 . S
C777 C782 1.390 . S
C778 C772 1.465 . S
C778 C777 1.396 . S
C778 C779 1.399 . S
C779 H765 0.929 . S
C779 C778 1.399 . S
C779 C780 1.385 . S
C780 H766 0.931 . S
C780 C779 1.385 . S
C780 C781 1.389 . S
C781 C780 1.389 . S
C781 C782 1.387 . S
C782 H767 0.930 . S
C782 C777 1.390 . S
C782 C781 1.387 . S
H783 C795 0.930 . S
H784 C797 0.930 . S
H785 C798 0.930 . S
H786 C802 0.959 . S
H787 C802 0.959 . S
H788 C802 0.961 . S
H789 C803 0.960 . S
H790 C803 0.961 . S
H791 C803 0.959 . S
H792 C806 0.929 . S
H793 C807 0.931 1_455 S
H794 C809 0.940 . S
C795 H783 0.930 . S
C795 C796 1.399 . S
C795 C800 1.399 . S
C796 C795 1.399 . S
C796 C797 1.376 . S
C797 H784 0.930 . S
C797 C796 1.376 . S
C797 C798 1.388 . S
C798 H785 0.930 . S
C798 C797 1.388 . S
C798 C799 1.390 . S
C799 C798 1.390 . S
C799 C800 1.394 . S
C799 C805 1.465 . S
C800 C795 1.399 . S
C800 C799 1.394 . S
C800 C801 1.516 . S
C801 C800 1.516 . S
C801 C802 1.502 1_556 S
C801 C803 1.561 . S
C801 C804 1.526 . S
C802 H786 0.959 . S
C802 H787 0.959 . S
C802 H788 0.961 . S
C802 C801 1.502 1_554 S
C803 H789 0.960 . S
C803 H790 0.961 . S
C803 H791 0.959 . S
C803 C801 1.561 . S
C804 C801 1.526 . S
C804 C805 1.396 . S
C804 C809 1.381 1_556 S
C805 C799 1.465 . S
C805 C804 1.396 . S
C805 C806 1.399 . S
C806 H792 0.929 . S
C806 C805 1.399 . S
C806 C807 1.385 . S
C807 H793 0.931 1_655 S
C807 C806 1.385 . S
C807 C808 1.389 . S
C808 C807 1.389 . S
C808 C809 1.385 1_556 S
C809 H794 0.940 . S
C809 C804 1.381 1_554 S
C809 C808 1.385 1_554 S
H810 C822 0.930 . S
H811 C824 0.930 . S
H812 C825 0.930 . S
H813 C829 0.959 . S
H814 C829 0.959 . S
H815 C829 0.961 . S
H816 C830 0.960 . S
H817 C830 0.961 . S
H818 C830 0.959 . S
H819 C833 0.929 . S
H820 C834 0.931 . S
H821 C836 0.930 . S
C822 H810 0.930 . S
C822 C823 1.399 . S
C822 C827 1.399 . S
C823 C822 1.399 . S
C823 C824 1.376 . S
C824 H811 0.930 . S
C824 C823 1.376 . S
C824 C825 1.388 . S
C825 H812 0.930 . S
C825 C824 1.388 . S
C825 C826 1.390 . S
C826 C825 1.390 . S
C826 C827 1.394 . S
C826 C832 1.465 . S
C827 C822 1.399 . S
C827 C826 1.394 . S
C827 C828 1.516 . S
C828 C827 1.516 . S
C828 C829 1.502 . S
C828 C830 1.561 . S
C828 C831 1.526 . S
C829 H813 0.959 . S
C829 H814 0.959 . S
C829 H815 0.961 . S
C829 C828 1.502 . S
C830 H816 0.960 . S
C830 H817 0.961 . S
C830 H818 0.959 . S
C830 C828 1.561 . S
C831 C828 1.526 . S
C831 C832 1.396 . S
C831 C836 1.390 . S
C832 C826 1.465 . S
C832 C831 1.396 . S
C832 C833 1.399 . S
C833 H819 0.929 . S
C833 C832 1.399 . S
C833 C834 1.385 . S
C834 H820 0.931 . S
C834 C833 1.385 . S
C834 C835 1.389 . S
C835 C834 1.389 . S
C835 C836 1.387 . S
C836 H821 0.930 . S
C836 C831 1.390 . S
C836 C835 1.387 . S
H837 C849 0.930 . S
H838 C851 0.930 . S
H839 C852 0.930 . S
H840 C856 0.959 . S
H841 C856 0.959 . S
H842 C856 0.961 . S
H843 C857 0.960 . S
H844 C857 0.961 . S
H845 C857 0.959 . S
H846 C860 0.929 . S
H847 C861 0.931 . S
H848 C863 0.930 . S
C849 H837 0.930 . S
C849 C850 1.399 . S
C849 C854 1.399 . S
C850 C849 1.399 . S
C850 C851 1.376 . S
C851 H838 0.930 . S
C851 C850 1.376 . S
C851 C852 1.388 . S
C852 H839 0.930 . S
C852 C851 1.388 . S
C852 C853 1.390 . S
C853 C852 1.390 . S
C853 C854 1.394 . S
C853 C859 1.465 . S
C854 C849 1.399 . S
C854 C853 1.394 . S
C854 C855 1.516 . S
C855 C854 1.516 . S
C855 C856 1.502 . S
C855 C857 1.561 . S
C855 C858 1.526 . S
C856 H840 0.959 . S
C856 H841 0.959 . S
C856 H842 0.961 . S
C856 C855 1.502 . S
C857 H843 0.960 . S
C857 H844 0.961 . S
C857 H845 0.959 . S
C857 C855 1.561 . S
C858 C855 1.526 . S
C858 C859 1.396 . S
C858 C863 1.390 . S
C859 C853 1.465 . S
C859 C858 1.396 . S
C859 C860 1.399 . S
C860 H846 0.929 . S
C860 C859 1.399 . S
C860 C861 1.385 . S
C861 H847 0.931 . S
C861 C860 1.385 . S
C861 C862 1.389 . S
C862 C861 1.389 . S
C862 C863 1.387 . S
C863 H848 0.930 . S
C863 C858 1.390 . S
C863 C862 1.387 . S
H864 C876 0.930 . S
H865 C878 0.930 . S
H866 C879 0.930 . S
H867 C883 0.959 . S
H868 C883 0.959 . S
H869 C883 0.961 . S
H870 C884 0.960 . S
H871 C884 0.961 . S
H872 C884 0.959 . S
H873 C887 0.929 . S
H874 C888 0.931 . S
H875 C890 0.930 . S
C876 H864 0.930 . S
C876 C877 1.399 . S
C876 C881 1.399 . S
C877 C876 1.399 . S
C877 C878 1.376 . S
C878 H865 0.930 . S
C878 C877 1.376 . S
C878 C879 1.388 . S
C879 H866 0.930 . S
C879 C878 1.388 . S
C879 C880 1.390 . S
C880 C879 1.390 . S
C880 C881 1.394 . S
C880 C886 1.465 . S
C881 C876 1.399 . S
C881 C880 1.394 . S
C881 C882 1.516 . S
C882 C881 1.516 . S
C882 C883 1.502 . S
C882 C884 1.561 . S
C882 C885 1.526 . S
C883 H867 0.959 . S
C883 H868 0.959 . S
C883 H869 0.961 . S
C883 C882 1.502 . S
C884 H870 0.960 . S
C884 H871 0.961 . S
C884 H872 0.959 . S
C884 C882 1.561 . S
C885 C882 1.526 . S
C885 C886 1.396 . S
C885 C890 1.390 . S
C886 C880 1.465 . S
C886 C885 1.396 . S
C886 C887 1.399 . S
C887 H873 0.929 . S
C887 C886 1.399 . S
C887 C888 1.385 . S
C888 H874 0.931 . S
C888 C887 1.385 . S
C888 C889 1.389 . S
C889 C888 1.389 . S
C889 C890 1.387 . S
C890 H875 0.930 . S
C890 C885 1.390 . S
C890 C889 1.387 . S
H891 C903 0.930 . S
H892 C905 0.930 . S
H893 C906 0.930 . S
H894 C910 0.959 . S
H895 C910 0.959 . S
H896 C910 0.961 . S
H897 C911 0.960 . S
H898 C911 0.961 . S
H899 C911 0.959 . S
H900 C914 0.929 . S
H901 C915 0.931 . S
H902 C917 0.930 . S
C903 H891 0.930 . S
C903 C904 1.399 . S
C903 C908 1.399 . S
C904 C903 1.399 . S
C904 C905 1.376 . S
C905 H892 0.930 . S
C905 C904 1.376 . S
C905 C906 1.388 . S
C906 H893 0.930 . S
C906 C905 1.388 . S
C906 C907 1.390 . S
C907 C906 1.390 . S
C907 C908 1.394 . S
C907 C913 1.465 . S
C908 C903 1.399 . S
C908 C907 1.394 . S
C908 C909 1.516 . S
C909 C908 1.516 . S
C909 C910 1.502 . S
C909 C911 1.561 . S
C909 C912 1.526 . S
C910 H894 0.959 . S
C910 H895 0.959 . S
C910 H896 0.961 . S
C910 C909 1.502 . S
C911 H897 0.960 . S
C911 H898 0.961 . S
C911 H899 0.959 . S
C911 C909 1.561 . S
C912 C909 1.526 . S
C912 C913 1.396 . S
C912 C917 1.390 . S
C913 C907 1.465 . S
C913 C912 1.396 . S
C913 C914 1.399 . S
C914 H900 0.929 . S
C914 C913 1.399 . S
C914 C915 1.385 . S
C915 H901 0.931 . S
C915 C914 1.385 . S
C915 C916 1.389 . S
C916 C915 1.389 . S
C916 C917 1.387 . S
C917 H902 0.930 . S
C917 C912 1.390 . S
C917 C916 1.387 . S
H918 C930 0.930 . S
H919 C932 0.930 . S
H920 C933 0.930 . S
H921 C937 0.959 . S
H922 C937 0.959 . S
H923 C937 0.961 . S
H924 C938 0.960 . S
H925 C938 0.961 . S
H926 C938 0.959 . S
H927 C941 0.929 . S
H928 C942 0.931 . S
H929 C944 0.930 . S
C930 H918 0.930 . S
C930 C931 1.399 . S
C930 C935 1.399 . S
C931 C930 1.399 . S
C931 C932 1.376 . S
C932 H919 0.930 . S
C932 C931 1.376 . S
C932 C933 1.388 . S
C933 H920 0.930 . S
C933 C932 1.388 . S
C933 C934 1.390 . S
C934 C933 1.390 . S
C934 C935 1.394 . S
C934 C940 1.465 . S
C935 C930 1.399 . S
C935 C934 1.394 . S
C935 C936 1.516 . S
C936 C935 1.516 . S
C936 C937 1.502 . S
C936 C938 1.561 . S
C936 C939 1.526 . S
C937 H921 0.959 . S
C937 H922 0.959 . S
C937 H923 0.961 . S
C937 C936 1.502 . S
C938 H924 0.960 . S
C938 H925 0.961 . S
C938 H926 0.959 . S
C938 C936 1.561 . S
C939 C936 1.526 . S
C939 C940 1.396 . S
C939 C944 1.390 . S
C940 C934 1.465 . S
C940 C939 1.396 . S
C940 C941 1.399 . S
C941 H927 0.929 . S
C941 C940 1.399 . S
C941 C942 1.385 . S
C942 H928 0.931 . S
C942 C941 1.385 . S
C942 C943 1.389 . S
C943 C942 1.389 . S
C943 C944 1.387 . S
C944 H929 0.930 . S
C944 C939 1.390 . S
C944 C943 1.387 . S
H945 C957 0.930 . S
H946 C959 0.930 . S
H947 C960 0.930 . S
H948 C964 0.959 . S
H949 C964 0.959 . S
H950 C964 0.961 . S
H951 C965 0.960 . S
H952 C965 0.961 . S
H953 C965 0.959 . S
H954 C968 0.929 . S
H955 C969 0.931 . S
H956 C971 0.930 . S
C957 H945 0.930 . S
C957 C958 1.399 . S
C957 C962 1.399 . S
C958 C957 1.399 . S
C958 C959 1.376 . S
C959 H946 0.930 . S
C959 C958 1.376 . S
C959 C960 1.388 . S
C960 H947 0.930 . S
C960 C959 1.388 . S
C960 C961 1.390 . S
C961 C960 1.390 . S
C961 C962 1.394 . S
C961 C967 1.465 . S
C962 C957 1.399 . S
C962 C961 1.394 . S
C962 C963 1.516 . S
C963 C962 1.516 . S
C963 C964 1.502 . S
C963 C965 1.561 . S
C963 C966 1.526 . S
C964 H948 0.959 . S
C964 H949 0.959 . S
C964 H950 0.961 . S
C964 C963 1.502 . S
C965 H951 0.960 . S
C965 H952 0.961 . S
C965 H953 0.959 . S
C965 C963 1.561 . S
C966 C963 1.526 . S
C966 C967 1.396 . S
C966 C971 1.390 . S
C967 C961 1.465 . S
C967 C966 1.396 . S
C967 C968 1.399 . S
C968 H954 0.929 . S
C968 C967 1.399 . S
C968 C969 1.385 . S
C969 H955 0.931 . S
C969 C968 1.385 . S
C969 C970 1.389 . S
C970 C969 1.389 . S
C970 C971 1.387 . S
C971 H956 0.930 . S
C971 C966 1.390 . S
C971 C970 1.387 . S
H972 C984 0.930 . S
H973 C986 0.930 . S
H974 C987 0.930 . S
H975 C991 0.959 . S
H976 C991 0.959 . S
H977 C991 0.961 . S
H978 C992 0.960 . S
H979 C992 0.961 . S
H980 C992 0.959 . S
H981 C995 0.929 . S
H982 C996 0.931 . S
H983 C998 0.930 . S
C984 H972 0.930 . S
C984 C985 1.399 . S
C984 C989 1.399 . S
C985 C984 1.399 . S
C985 C986 1.376 . S
C986 H973 0.930 . S
C986 C985 1.376 . S
C986 C987 1.388 . S
C987 H974 0.930 . S
C987 C986 1.388 . S
C987 C988 1.390 . S
C988 C987 1.390 . S
C988 C989 1.394 . S
C988 C994 1.465 . S
C989 C984 1.399 . S
C989 C988 1.394 . S
C989 C990 1.516 . S
C990 C989 1.516 . S
C990 C991 1.502 . S
C990 C992 1.561 . S
C990 C993 1.526 . S
C991 H975 0.959 . S
C991 H976 0.959 . S
C991 H977 0.961 . S
C991 C990 1.502 . S
C992 H978 0.960 . S
C992 H979 0.961 . S
C992 H980 0.959 . S
C992 C990 1.561 . S
C993 C990 1.526 . S
C993 C994 1.396 . S
C993 C998 1.390 . S
C994 C988 1.465 . S
C994 C993 1.396 . S
C994 C995 1.399 . S
C995 H981 0.929 . S
C995 C994 1.399 . S
C995 C996 1.385 . S
C996 H982 0.931 . S
C996 C995 1.385 . S
C996 C997 1.389 . S
C997 C996 1.389 . S
C997 C998 1.387 . S
C998 H983 0.930 . S
C998 C993 1.390 . S
C998 C997 1.387 . S
H999 C1011 0.930 . S
H1000 C1013 0.930 . S
H1001 C1014 0.930 . S
H1002 C1018 0.959 . S
H1003 C1018 0.959 . S
H1004 C1018 0.961 . S
H1005 C1019 0.960 . S
H1006 C1019 0.961 . S
H1007 C1019 0.959 . S
H1008 C1022 0.929 . S
H1009 C1023 0.931 . S
H1010 C1025 0.930 . S
C1011 H999 0.930 . S
C1011 C1012 1.399 . S
C1011 C1016 1.399 . S
C1012 C1011 1.399 . S
C1012 C1013 1.376 . S
C1013 H1000 0.930 . S
C1013 C1012 1.376 . S
C1013 C1014 1.388 . S
C1014 H1001 0.930 . S
C1014 C1013 1.388 . S
C1014 C1015 1.390 . S
C1015 C1014 1.390 . S
C1015 C1016 1.394 . S
C1015 C1021 1.465 . S
C1016 C1011 1.399 . S
C1016 C1015 1.394 . S
C1016 C1017 1.516 . S
C1017 C1016 1.516 . S
C1017 C1018 1.502 . S
C1017 C1019 1.561 . S
C1017 C1020 1.526 . S
C1018 H1002 0.959 . S
C1018 H1003 0.959 . S
C1018 H1004 0.961 . S
C1018 C1017 1.502 . S
C1019 H1005 0.960 . S
C1019 H1006 0.961 . S
C1019 H1007 0.959 . S
C1019 C1017 1.561 . S
C1020 C1017 1.526 . S
C1020 C1021 1.396 . S
C1020 C1025 1.390 . S
C1021 C1015 1.465 . S
C1021 C1020 1.396 . S
C1021 C1022 1.399 . S
C1022 H1008 0.929 . S
C1022 C1021 1.399 . S
C1022 C1023 1.385 . S
C1023 H1009 0.931 . S
C1023 C1022 1.385 . S
C1023 C1024 1.389 . S
C1024 C1023 1.389 . S
C1024 C1025 1.387 . S
C1025 H1010 0.930 . S
C1025 C1020 1.390 . S
C1025 C1024 1.387 . S
H1026 C1038 0.930 . S
H1027 C1040 0.930 . S
H1028 C1041 0.930 . S
H1029 C1045 0.959 . S
H1030 C1045 0.959 . S
H1031 C1045 0.961 . S
H1032 C1046 0.960 . S
H1033 C1046 0.961 . S
H1034 C1046 0.959 . S
H1035 C1049 0.929 . S
H1036 C1050 0.931 . S
H1037 C1052 0.930 . S
C1038 H1026 0.930 . S
C1038 C1039 1.399 . S
C1038 C1043 1.399 . S
C1039 C1038 1.399 . S
C1039 C1040 1.376 . S
C1040 H1027 0.930 . S
C1040 C1039 1.376 . S
C1040 C1041 1.388 . S
C1041 H1028 0.930 . S
C1041 C1040 1.388 . S
C1041 C1042 1.390 . S
C1042 C1041 1.390 . S
C1042 C1043 1.394 . S
C1042 C1048 1.465 . S
C1043 C1038 1.399 . S
C1043 C1042 1.394 . S
C1043 C1044 1.516 . S
C1044 C1043 1.516 . S
C1044 C1045 1.502 . S
C1044 C1046 1.561 . S
C1044 C1047 1.526 . S
C1045 H1029 0.959 . S
C1045 H1030 0.959 . S
C1045 H1031 0.961 . S
C1045 C1044 1.502 . S
C1046 H1032 0.960 . S
C1046 H1033 0.961 . S
C1046 H1034 0.959 . S
C1046 C1044 1.561 . S
C1047 C1044 1.526 . S
C1047 C1048 1.396 . S
C1047 C1052 1.390 . S
C1048 C1042 1.465 . S
C1048 C1047 1.396 . S
C1048 C1049 1.399 . S
C1049 H1035 0.929 . S
C1049 C1048 1.399 . S
C1049 C1050 1.385 . S
C1050 H1036 0.931 . S
C1050 C1049 1.385 . S
C1050 C1051 1.389 . S
C1051 C1050 1.389 . S
C1051 C1052 1.387 . S
C1052 H1037 0.930 . S
C1052 C1047 1.390 . S
C1052 C1051 1.387 . S
H1053 C1065 0.930 . S
H1054 C1067 0.930 . S
H1055 C1068 0.930 . S
H1056 C1072 0.959 . S
H1057 C1072 0.959 . S
H1058 C1072 0.961 . S
H1059 C1073 0.960 . S
H1060 C1073 0.961 . S
H1061 C1073 0.959 . S
H1062 C1076 0.929 . S
H1063 C1077 0.931 . S
H1064 C1079 0.930 . S
C1065 H1053 0.930 . S
C1065 C1066 1.399 . S
C1065 C1070 1.399 . S
C1066 C1065 1.399 . S
C1066 C1067 1.376 . S
C1067 H1054 0.930 . S
C1067 C1066 1.376 . S
C1067 C1068 1.388 . S
C1068 H1055 0.930 . S
C1068 C1067 1.388 . S
C1068 C1069 1.390 . S
C1069 C1068 1.390 . S
C1069 C1070 1.394 . S
C1069 C1075 1.465 . S
C1070 C1065 1.399 . S
C1070 C1069 1.394 . S
C1070 C1071 1.516 . S
C1071 C1070 1.516 . S
C1071 C1072 1.502 . S
C1071 C1073 1.561 . S
C1071 C1074 1.526 . S
C1072 H1056 0.959 . S
C1072 H1057 0.959 . S
C1072 H1058 0.961 . S
C1072 C1071 1.502 . S
C1073 H1059 0.960 . S
C1073 H1060 0.961 . S
C1073 H1061 0.959 . S
C1073 C1071 1.561 . S
C1074 C1071 1.526 . S
C1074 C1075 1.396 . S
C1074 C1079 1.390 . S
C1075 C1069 1.465 . S
C1075 C1074 1.396 . S
C1075 C1076 1.399 . S
C1076 H1062 0.929 . S
C1076 C1075 1.399 . S
C1076 C1077 1.385 . S
C1077 H1063 0.931 . S
C1077 C1076 1.385 . S
C1077 C1078 1.389 . S
C1078 C1077 1.389 . S
C1078 C1079 1.387 . S
C1079 H1064 0.930 . S
C1079 C1074 1.390 . S
C1079 C1078 1.387 . S
C445 C302 1.268 . S
C457 C14 1.262 . S
C472 C50 1.247 . S
C484 C338 1.256 . S
C499 C86 1.198 . S
C511 C374 1.210 . S
C526 C122 1.187 . S
C538 C410 1.197 . S
C553 C230 1.271 . S
C565 C158 1.268 . S
C580 C194 1.176 . S
C592 C266 1.176 . S
C607 C4 1.491 . S
C619 C183 1.508 1_554 S
C634 C40 1.484 . S
C646 C3 1.512 1_655 S
C661 C76 1.508 . S
C673 C39 1.538 1_565 S
C688 C75 1.516 . S
C700 C112 1.525 . S
C715 C111 1.530 1_455 S
C727 C148 1.533 . S
C742 C147 1.514 1_545 S
C754 C184 1.523 . S
C769 C255 1.507 . S
C781 C220 1.505 . S
C796 C256 1.492 . S
C808 C291 1.508 1_656 S
C823 C327 1.539 1_565 S
C835 C292 1.520 . S
C850 C328 1.531 . S
C862 C363 1.522 . S
C877 C364 1.517 . S
C889 C399 1.539 1_455 S
C904 C400 1.534 . S
C916 C219 1.530 1_545 S
C931 C362 1.220 . S
C943 C2 1.212 . S
C958 C398 1.212 . S
C970 C38 1.222 . S
C985 C218 1.227 . S
C997 C74 1.241 . S
C1012 C110 1.253 . S
C1024 C254 1.263 . S
C1039 C146 1.257 . S
C1051 C290 1.244 . S
C1066 C326 1.228 . S
C1078 C182 1.242 . S
