# Generated by pormake.
# Topology uki, (4)-cn, num edge types: 1
# Building blocks:
#     Node 0, Type 0, BuildingBlock: MUDLON_clean_sbu_0, # of connection points: 4
#     Node 1, Type 0, BuildingBlock: MUDLON_clean_sbu_0, # of connection points: 4
#     Node 2, Type 0, BuildingBlock: MUDLON_clean_sbu_0, # of connection points: 4
#     Node 3, Type 0, BuildingBlock: MUDLON_clean_sbu_0, # of connection points: 4
#     Node 4, Type 0, BuildingBlock: MUDLON_clean_sbu_0, # of connection points: 4
#     Node 5, Type 0, BuildingBlock: MUDLON_clean_sbu_0, # of connection points: 4
#     Node 6, Type 0, BuildingBlock: MUDLON_clean_sbu_0, # of connection points: 4
#     Node 7, Type 0, BuildingBlock: MUDLON_clean_sbu_0, # of connection points: 4
#     Node 8, Type 0, BuildingBlock: MUDLON_clean_sbu_0, # of connection points: 4
#     Node 9, Type 0, BuildingBlock: MUDLON_clean_sbu_0, # of connection points: 4
#     Node 10, Type 0, BuildingBlock: MUDLON_clean_sbu_0, # of connection points: 4
#     Node 11, Type 0, BuildingBlock: MUDLON_clean_sbu_0, # of connection points: 4
#     Node 12, Type 0, BuildingBlock: MUDLON_clean_sbu_0, # of connection points: 4
#     Node 13, Type 0, BuildingBlock: MUDLON_clean_sbu_0, # of connection points: 4
#     Node 14, Type 0, BuildingBlock: MUDLON_clean_sbu_0, # of connection points: 4
#     Node 15, Type 0, BuildingBlock: MUDLON_clean_sbu_0, # of connection points: 4
#     Edge 16, Type (0, 0), BuildingBlock: KIFKEQ_clean_linker_1, # of connection points: 2
#     Edge 17, Type (0, 0), BuildingBlock: KIFKEQ_clean_linker_1, # of connection points: 2
#     Edge 18, Type (0, 0), BuildingBlock: KIFKEQ_clean_linker_1, # of connection points: 2
#     Edge 19, Type (0, 0), BuildingBlock: KIFKEQ_clean_linker_1, # of connection points: 2
#     Edge 20, Type (0, 0), BuildingBlock: KIFKEQ_clean_linker_1, # of connection points: 2
#     Edge 21, Type (0, 0), BuildingBlock: KIFKEQ_clean_linker_1, # of connection points: 2
#     Edge 22, Type (0, 0), BuildingBlock: KIFKEQ_clean_linker_1, # of connection points: 2
#     Edge 23, Type (0, 0), BuildingBlock: KIFKEQ_clean_linker_1, # of connection points: 2
#     Edge 24, Type (0, 0), BuildingBlock: KIFKEQ_clean_linker_1, # of connection points: 2
#     Edge 25, Type (0, 0), BuildingBlock: KIFKEQ_clean_linker_1, # of connection points: 2
#     Edge 26, Type (0, 0), BuildingBlock: KIFKEQ_clean_linker_1, # of connection points: 2
#     Edge 27, Type (0, 0), BuildingBlock: KIFKEQ_clean_linker_1, # of connection points: 2
#     Edge 28, Type (0, 0), BuildingBlock: KIFKEQ_clean_linker_1, # of connection points: 2
#     Edge 29, Type (0, 0), BuildingBlock: KIFKEQ_clean_linker_1, # of connection points: 2
#     Edge 30, Type (0, 0), BuildingBlock: KIFKEQ_clean_linker_1, # of connection points: 2
#     Edge 31, Type (0, 0), BuildingBlock: KIFKEQ_clean_linker_1, # of connection points: 2
#     Edge 32, Type (0, 0), BuildingBlock: KIFKEQ_clean_linker_1, # of connection points: 2
#     Edge 33, Type (0, 0), BuildingBlock: KIFKEQ_clean_linker_1, # of connection points: 2
#     Edge 34, Type (0, 0), BuildingBlock: KIFKEQ_clean_linker_1, # of connection points: 2
#     Edge 35, Type (0, 0), BuildingBlock: KIFKEQ_clean_linker_1, # of connection points: 2
#     Edge 36, Type (0, 0), BuildingBlock: KIFKEQ_clean_linker_1, # of connection points: 2
#     Edge 37, Type (0, 0), BuildingBlock: KIFKEQ_clean_linker_1, # of connection points: 2
#     Edge 38, Type (0, 0), BuildingBlock: KIFKEQ_clean_linker_1, # of connection points: 2
#     Edge 39, Type (0, 0), BuildingBlock: KIFKEQ_clean_linker_1, # of connection points: 2
#     Edge 40, Type (0, 0), BuildingBlock: KIFKEQ_clean_linker_1, # of connection points: 2
#     Edge 41, Type (0, 0), BuildingBlock: KIFKEQ_clean_linker_1, # of connection points: 2
#     Edge 42, Type (0, 0), BuildingBlock: KIFKEQ_clean_linker_1, # of connection points: 2
#     Edge 43, Type (0, 0), BuildingBlock: KIFKEQ_clean_linker_1, # of connection points: 2
#     Edge 44, Type (0, 0), BuildingBlock: KIFKEQ_clean_linker_1, # of connection points: 2
#     Edge 45, Type (0, 0), BuildingBlock: KIFKEQ_clean_linker_1, # of connection points: 2
#     Edge 46, Type (0, 0), BuildingBlock: KIFKEQ_clean_linker_1, # of connection points: 2
#     Edge 47, Type (0, 0), BuildingBlock: KIFKEQ_clean_linker_1, # of connection points: 2
# Relax obj value: 0.065
# Max RMSD: 0.231
# Mean RMSD: 0.231
data_MOF--net-uki--node1-MUDLON_clean_sbu_0--edge1-KIFKEQ_clean_linker_1
_symmetry_space_group_name_H-M    P1
_symmetry_Int_Tables_number       1
_symmetry_cell_setting            triclinic
loop_
_symmetry_equiv_pos_as_xyz
'x, y, z'
_cell_length_a     33.006335
_cell_length_b     33.25726
_cell_length_c     73.106269
_cell_angle_alpha  90.074316
_cell_angle_beta   89.9922
_cell_angle_gamma 89.961105
loop_
_atom_site_label
_atom_site_type_symbol
_atom_site_fract_x
_atom_site_fract_y
_atom_site_fract_z
_atom_type_partial_charge
Mg0 Mg 0.10035 0.23255 0.3147 0.0
C1 C 1.00824 0.23647 0.31323 0.0
O2 O 1.01277 0.19729 0.31264 0.0
C3 C 0.16633 0.26271 0.34075 0.0
O4 O 0.17596 0.2847 0.32648 0.0
C5 C 0.11719 0.29484 0.2861 0.0
O6 O 0.08202 0.30695 0.29245 0.0
O7 O 0.13262 0.26266 0.29247 0.0
O8 O 0.03937 0.25851 0.31551 0.0
O9 O 0.09274 0.16806 0.31058 0.0
C10 C 0.08445 0.14837 0.32501 0.0
O11 O 0.08401 0.16762 0.34072 0.0
O12 O 0.1353 0.24005 0.3399 0.0
Mg13 Mg 0.24571 0.9408 0.72011 0.0
C14 C 0.30789 1.00692 0.72329 0.0
O15 O 0.32985 0.97635 0.72888 0.0
C16 C 0.22283 0.87639 0.69345 0.0
O17 O 0.19152 0.87678 0.70455 0.0
C18 C 0.27785 0.87559 0.7459 0.0
O19 O 0.25433 0.85217 0.73607 0.0
O20 O 0.27787 0.91318 0.74282 0.0
O21 O 0.27249 1.00024 0.71714 0.0
O22 O 0.18188 0.95248 0.7254 0.0
C23 C 0.17155 0.98299 0.73483 0.0
O24 O 0.19991 1.00469 0.74268 0.0
O25 O 0.25141 0.90137 0.69623 0.0
Mg26 Mg 0.93228 0.78963 0.31303 0.0
C27 C 0.02077 0.77162 0.30929 0.0
O28 O 1.01881 0.80802 0.30243 0.0
C29 C 0.8678 0.81281 0.33997 0.0
O30 O 0.87202 0.84613 0.33054 0.0
C31 C 0.86645 0.75581 0.28854 0.0
O32 O 0.84349 0.77046 0.30163 0.0
O33 O 0.90432 0.76266 0.28901 0.0
O34 O 0.98874 0.7558 0.3158 0.0
O35 O 0.9486 0.85289 0.31023 0.0
C36 C 0.96851 0.86707 0.32368 0.0
O37 O 0.97553 0.84358 0.33777 0.0
O38 O 0.89037 0.78292 0.33608 0.0
Mg39 Mg 0.80459 0.12021 0.72544 0.0
C40 C 0.79365 0.02947 0.72227 0.0
O41 O 0.83304 0.03107 0.71992 0.0
C42 C 0.82439 0.1887 0.70075 0.0
O43 O 0.84907 0.19454 0.7146 0.0
C44 C 0.75854 0.13127 0.76064 0.0
O45 O 0.76722 0.09279 0.76179 0.0
O46 O 0.7726 0.15137 0.74728 0.0
O47 O 0.77375 0.06219 0.72336 0.0
O48 O 0.86787 0.10808 0.7321 0.0
C49 C 0.89175 0.10019 0.71891 0.0
O50 O 0.8777 0.10219 0.70211 0.0
O51 O 0.80108 0.15821 0.70106 0.0
Mg52 Mg 0.09843 0.285 0.96577 0.0
C53 C 1.00704 0.27303 0.96483 0.0
O54 O 1.00799 0.31208 0.96228 0.0
C55 C 0.17081 0.29294 0.94219 0.0
O56 O 0.18067 0.31293 0.95705 0.0
C57 C 0.11561 0.2358 0.99971 0.0
O58 O 0.0763 0.23023 0.99855 0.0
O59 O 0.13277 0.25929 0.98837 0.0
O60 O 0.04028 0.25363 0.96529 0.0
O61 O 0.08647 0.34893 0.96943 0.0
C62 C 0.07897 0.36907 0.95504 0.0
O63 O 0.08076 0.35073 0.93913 0.0
O64 O 0.13587 0.27682 0.94138 0.0
Mg65 Mg 0.30111 0.93111 0.06259 0.0
C66 C 0.28143 1.01293 0.05138 0.0
O67 O 0.31061 1.00146 0.04031 0.0
C68 C 0.31571 0.86376 0.08912 0.0
O69 O 0.34661 0.85936 0.07796 0.0
C70 C 0.27606 0.86585 0.03469 0.0
O71 O 0.29982 0.84236 0.04435 0.0
O72 O 0.27377 0.90295 0.03874 0.0
O73 O 0.27009 0.98882 0.06388 0.0
O74 O 0.36519 0.94568 0.06034 0.0
C75 C 0.38717 0.94187 0.04615 0.0
O76 O 0.37177 0.92545 0.03136 0.0
O77 O 0.29108 0.89261 0.08637 0.0
Mg78 Mg 0.94525 0.73486 0.96698 0.0
C79 C 0.02798 0.74589 0.97984 0.0
O80 O 1.01198 0.71872 0.99069 0.0
C81 C 0.87123 0.74723 0.94403 0.0
O82 O 0.85576 0.74546 0.96057 0.0
C83 C 0.92247 0.80162 0.99103 0.0
O84 O 0.94698 0.8177 0.97892 0.0
O85 O 0.91484 0.76419 0.98987 0.0
O86 O 1.00633 0.75995 0.96693 0.0
O87 O 0.95482 0.67036 0.96977 0.0
C88 C 0.97942 0.65667 0.95789 0.0
O89 O 0.99382 0.68155 0.94554 0.0
O90 O 0.90954 0.7448 0.9422 0.0
Mg91 Mg 0.74671 0.0943 0.06295 0.0
C92 C 0.76672 1.00554 0.06223 0.0
O93 O 0.72713 1.00351 0.06071 0.0
C94 C 0.72392 0.16027 0.08867 0.0
O95 O 0.6932 0.15968 0.07724 0.0
C96 C 0.77985 0.16068 0.0384 0.0
O97 O 0.77097 0.18297 0.05269 0.0
O98 O 0.77063 0.12357 0.03859 0.0
O99 O 0.78312 0.03969 0.06492 0.0
O100 O 0.68358 0.07612 0.06039 0.0
C101 C 0.66559 0.06962 0.0453 0.0
O102 O 0.68489 0.07627 0.02988 0.0
O103 O 0.75244 0.13495 0.08638 0.0
Mg104 Mg 0.61519 0.74582 0.80852 0.0
C105 C 0.53212 0.75701 0.79602 0.0
O106 O 0.54826 0.73103 0.78459 0.0
C107 C 0.6797 0.72955 0.83624 0.0
O108 O 0.68678 0.70166 0.82389 0.0
C109 C 0.68149 0.79027 0.78757 0.0
O110 O 0.70325 0.77926 0.80175 0.0
O111 O 0.64486 0.77867 0.78646 0.0
O112 O 0.55385 0.77017 0.80911 0.0
O113 O 0.60717 0.68184 0.80309 0.0
C114 C 0.58376 0.66398 0.81427 0.0
O115 O 0.56895 0.68457 0.8281 0.0
O116 O 0.64988 0.75328 0.83381 0.0
Mg117 Mg 0.74051 0.42179 0.2211 0.0
C118 C 0.78007 0.49083 0.23866 0.0
O119 O 0.77279 0.4656 0.25206 0.0
C120 C 0.71993 0.3624 0.19234 0.0
O121 O 0.68926 0.36017 0.20376 0.0
C122 C 0.78017 0.35128 0.24103 0.0
O123 O 0.77667 0.33425 0.2249 0.0
O124 O 0.76552 0.38624 0.24348 0.0
O125 O 0.77139 0.48003 0.2224 0.0
O126 O 0.6759 0.43463 0.22425 0.0
C127 C 0.66343 0.46548 0.23291 0.0
O128 O 0.68987 0.48845 0.24131 0.0
O129 O 0.74799 0.38763 0.19568 0.0
Mg130 Mg 0.44063 0.30415 0.81266 0.0
C131 C 0.50378 0.23892 0.8147 0.0
O132 O 0.47205 0.21722 0.81019 0.0
C133 C 0.37885 0.27103 0.84062 0.0
O134 O 0.38495 0.23696 0.83193 0.0
C135 C 0.38006 0.26279 0.78658 0.0
O136 O 0.35265 0.27776 0.7977 0.0
O137 O 0.41719 0.27116 0.78918 0.0
O138 O 0.49883 0.27605 0.81821 0.0
O139 O 0.45399 0.36697 0.8067 0.0
C140 C 0.48885 0.37681 0.80075 0.0
O141 O 0.51513 0.34832 0.79693 0.0
O142 O 0.39845 0.30217 0.83572 0.0
Mg143 Mg 0.29526 0.59796 0.21909 0.0
C144 C 0.28051 0.51164 0.22774 0.0
O145 O 0.31489 0.51863 0.2362 0.0
C146 C 0.2894 0.67111 0.19548 0.0
O147 O 0.28847 0.68665 0.21201 0.0
C148 C 0.24866 0.61626 0.25432 0.0
O149 O 0.25278 0.57738 0.25686 0.0
O150 O 0.26496 0.63248 0.24039 0.0
O151 O 0.26476 0.53971 0.21826 0.0
O152 O 0.3587 0.58657 0.22517 0.0
C153 C 0.37884 0.56807 0.21294 0.0
O154 O 0.36091 0.55927 0.19739 0.0
O155 O 0.29161 0.63303 0.19381 0.0
Mg156 Mg 0.6006 0.7954 0.46989 0.0
C157 C 0.51462 0.78406 0.48068 0.0
O158 O 0.52577 0.81577 0.49015 0.0
C159 C 0.63867 0.80844 0.43196 0.0
O160 O 0.61416 0.83955 0.43181 0.0
C161 C 0.61672 0.753 0.50638 0.0
O162 O 0.57801 0.7603 0.50881 0.0
O163 O 0.6342 0.7667 0.49217 0.0
O164 O 0.54032 0.76767 0.46999 0.0
O165 O 0.5908 0.86027 0.4729 0.0
C166 C 0.56118 0.87481 0.46388 0.0
O167 O 0.54018 0.85074 0.45323 0.0
O168 O 0.6376 0.78438 0.44548 0.0
Mg169 Mg 0.8027 0.44363 0.56606 0.0
C170 C 0.73723 0.5069 0.56321 0.0
O171 O 0.71503 0.47449 0.56098 0.0
C172 C 0.82866 0.38652 0.59558 0.0
O173 O 0.85974 0.385 0.58438 0.0
C174 C 0.75078 0.3786 0.54992 0.0
O175 O 0.75383 0.36632 0.56693 0.0
O176 O 0.77014 0.40987 0.54507 0.0
O177 O 0.77471 0.5029 0.5668 0.0
O178 O 0.86615 0.45385 0.55946 0.0
C179 C 0.8768 0.47956 0.54753 0.0
O180 O 0.84873 0.49822 0.53803 0.0
O181 O 0.79951 0.41027 0.59187 0.0
Mg182 Mg 0.43142 0.24303 0.47234 0.0
C183 C 0.51396 0.25664 0.48564 0.0
O184 O 0.5011 0.22526 0.49486 0.0
C185 C 0.36043 0.23899 0.44763 0.0
O186 O 0.34777 0.22103 0.46257 0.0
C187 C 0.37313 0.29723 0.49174 0.0
O188 O 0.36867 0.30893 0.47471 0.0
O189 O 0.39726 0.26838 0.49523 0.0
O190 O 0.49039 0.27265 0.47393 0.0
O191 O 0.44318 0.17859 0.47476 0.0
C192 C 0.47311 0.16518 0.46559 0.0
O193 O 0.49347 0.19018 0.45516 0.0
O194 O 0.39661 0.25228 0.4472 0.0
Mg195 Mg 0.2448 0.59978 0.56749 0.0
C196 C 0.25084 0.50897 0.56968 0.0
O197 O 0.21127 0.5127 0.57051 0.0
C198 C 0.22512 0.66823 0.59218 0.0
O199 O 0.19657 0.67032 0.57969 0.0
C200 C 0.2708 0.65861 0.53665 0.0
O201 O 0.23919 0.68009 0.54157 0.0
O202 O 0.27789 0.62549 0.54467 0.0
O203 O 0.27258 0.54053 0.57027 0.0
O204 O 0.18052 0.59073 0.56225 0.0
C205 C 0.16584 0.57873 0.54712 0.0
O206 O 0.19006 0.57373 0.53303 0.0
O207 O 0.25118 0.64008 0.59102 0.0
H208 H 0.19291 0.28254 0.27142 0.0
H209 H 0.09309 0.36665 0.27191 0.0
H210 H 0.23257 0.3297 0.25312 0.0
H211 H 0.13288 0.41402 0.25429 0.0
H212 H 0.30575 0.44841 0.24844 0.0
H213 H 0.26601 0.39177 0.25903 0.0
H214 H 0.16482 0.4319 0.22625 0.0
H215 H 0.20444 0.48973 0.21609 0.0
C216 C 0.17929 0.31088 0.26749 0.0
C217 C 0.13998 0.32095 0.27329 0.0
C218 C 0.20208 0.33803 0.25708 0.0
C219 C 0.18612 0.37591 0.25232 0.0
C220 C 0.1461 0.38504 0.25745 0.0
C221 C 0.12333 0.3579 0.26774 0.0
C222 C 0.2752 0.44496 0.24327 0.0
C223 C 0.2581 0.47398 0.23162 0.0
C224 C 0.25244 0.41215 0.24925 0.0
C225 C 0.21198 0.40731 0.24366 0.0
C226 C 0.19564 0.43507 0.23111 0.0
C227 C 0.21843 0.46809 0.22518 0.0
H228 H 0.49203 0.81966 0.81288 0.0
H229 H 0.478 0.72823 0.77133 0.0
H230 H 0.42551 0.84717 0.80476 0.0
H231 H 0.41272 0.75592 0.76303 0.0
H232 H 0.28673 0.79679 0.75588 0.0
H233 H 0.3438 0.76653 0.77195 0.0
H234 H 0.39725 0.88406 0.77911 0.0
H235 H 0.3397 0.91439 0.76355 0.0
C236 C 0.47463 0.80521 0.80217 0.0
C237 C 0.49047 0.77196 0.79266 0.0
C238 C 0.43664 0.82106 0.79745 0.0
C239 C 0.41369 0.80381 0.78322 0.0
C240 C 0.42908 0.76967 0.77424 0.0
C241 C 0.46687 0.75398 0.7789 0.0
C242 C 0.31027 0.81625 0.76119 0.0
C243 C 0.30889 0.85795 0.75819 0.0
C244 C 0.34313 0.79888 0.77033 0.0
C245 C 0.37551 0.82276 0.77657 0.0
C246 C 0.3728 0.86473 0.77461 0.0
C247 C 0.33983 0.88213 0.76556 0.0
H248 H 0.80992 0.54974 0.21565 0.0
H249 H 0.77748 0.52645 0.27193 0.0
H250 H 0.82834 0.61918 0.22405 0.0
H251 H 0.79498 0.59491 0.28004 0.0
H252 H 0.78928 0.72653 0.28721 0.0
H253 H 0.76653 0.66542 0.27196 0.0
H254 H 0.88376 0.65219 0.24657 0.0
H255 H 0.90694 0.71349 0.26188 0.0
C256 C 0.80666 0.55938 0.22972 0.0
C257 C 0.79237 0.53255 0.24312 0.0
C258 C 0.81714 0.59899 0.23451 0.0
C259 C 0.8125 0.61246 0.25264 0.0
C260 C 0.7982 0.58557 0.26591 0.0
C261 C 0.78853 0.54615 0.26125 0.0
C262 C 0.81002 0.71126 0.27805 0.0
C263 C 0.85019 0.72453 0.27605 0.0
C264 C 0.79695 0.67619 0.26935 0.0
C265 C 0.8236 0.65383 0.25832 0.0
C266 C 0.86262 0.66891 0.25498 0.0
C267 C 0.87587 0.70394 0.26382 0.0
H268 H 0.52494 0.16138 0.80694 0.0
H269 H 0.57622 0.27916 0.81625 0.0
H270 H 0.591 0.13659 0.79742 0.0
H271 H 0.64264 0.25407 0.80695 0.0
H272 H 0.72879 0.20819 0.76037 0.0
H273 H 0.67094 0.23414 0.77739 0.0
H274 H 0.66055 0.121 0.80595 0.0
H275 H 0.71804 0.09475 0.78872 0.0
C276 C 0.55048 0.18179 0.80734 0.0
C277 C 0.54514 0.22236 0.81218 0.0
C278 C 0.5885 0.1675 0.80196 0.0
C279 C 0.62211 0.19344 0.80126 0.0
C280 C 0.61725 0.23347 0.80709 0.0
C281 C 0.57921 0.24775 0.81254 0.0
C282 C 0.71463 0.18905 0.7705 0.0
C283 C 0.72778 0.14922 0.773 0.0
C284 C 0.68155 0.20402 0.78035 0.0
C285 C 0.66083 0.17952 0.79293 0.0
C286 C 0.67542 0.14044 0.79616 0.0
C287 C 0.70853 0.12548 0.78633 0.0
H288 H 0.29979 0.06881 0.02561 0.0
H289 H 0.21443 0.04386 0.06894 0.0
H290 H 0.26082 0.12726 0.01678 0.0
H291 H 0.17572 0.10376 0.06042 0.0
H292 H 0.1968 0.24144 1.00708 0.0
H293 H 0.23864 0.19318 0.02359 0.0
H294 H 0.13206 0.12274 0.03585 0.0
H295 H 0.09022 0.17171 0.02002 0.0
C296 C 0.27302 0.07622 0.0335 0.0
C297 C 0.25999 0.05133 0.04786 0.0
C298 C 0.25078 0.11015 0.02852 0.0
C299 C 0.21495 0.12037 0.03783 0.0
C300 C 0.20285 0.09649 0.05278 0.0
C301 C 0.22515 0.06229 0.05774 0.0
C302 C 0.18224 0.21605 1.0136 0.0
C303 C 0.14024 0.21016 1.01201 0.0
C304 C 0.20625 0.1882 0.02298 0.0
C305 C 0.18889 0.15359 0.03081 0.0
C306 C 0.14655 0.14909 0.03015 0.0
C307 C 0.12251 0.17714 0.02093 0.0
H308 H 0.21493 0.90442 1.01649 0.0
H309 H 0.27032 0.78761 0.02323 0.0
H310 H 0.15936 0.87388 0.99965 0.0
H311 H 0.21526 0.75716 1.00584 0.0
H312 H 0.08186 0.71606 1.00438 0.0
H313 H 0.14626 0.74424 1.01364 0.0
H314 H 0.13317 0.83833 0.97334 0.0
H315 H 0.06749 0.81034 0.96429 0.0
C316 C 0.2158 0.87231 1.014 0.0
C317 C 0.24676 0.84836 0.02151 0.0
C318 C 0.18396 0.8548 1.00421 0.0
C319 C 0.18243 0.81293 1.00161 0.0
C320 C 0.215 0.7894 1.00795 0.0
C321 C 0.24672 0.80688 0.01784 0.0
C322 C 0.09276 0.74254 0.99731 0.0
C323 C 0.06928 0.76117 0.98371 0.0
C324 C 0.13006 0.75853 1.00252 0.0
C325 C 0.14507 0.79361 0.99425 0.0
C326 C 0.12232 0.81149 0.98012 0.0
C327 C 0.0848 0.79537 0.97487 0.0
H328 H 0.93568 0.88127 0.99681 0.0
H329 H 0.86529 0.78105 0.01682 0.0
H330 H 0.90072 0.92599 0.01767 0.0
H331 H 0.83066 0.82607 0.03827 0.0
H332 H 0.74077 0.93195 0.05045 0.0
H333 H 0.7812 0.8792 0.03641 0.0
H334 H 0.89026 0.94577 0.04869 0.0
H335 H 0.84959 0.99932 0.06224 0.0
C336 C 0.91306 0.86861 1.00586 0.0
C337 C 0.90304 0.82758 1.00501 0.0
C338 C 0.89324 0.89431 0.01801 0.0
C339 C 0.86286 0.87974 0.02973 0.0
C340 C 0.85363 0.83839 0.02931 0.0
C341 C 0.87356 0.81255 0.01708 0.0
C342 C 0.77343 0.93508 0.05047 0.0
C343 C 0.79187 0.97025 0.05719 0.0
C344 C 0.79669 0.90461 0.04248 0.0
C345 C 0.839 0.90846 0.04112 0.0
C346 C 0.85766 0.94225 0.04912 0.0
C347 C 0.83436 0.97286 0.05701 0.0
H348 H 0.8043 0.23841 0.03375 0.0
H349 H 0.81491 0.12 1.00981 0.0
H350 H 0.85477 0.26364 1.01243 0.0
H351 H 0.86519 0.14551 0.98824 0.0
H352 H 0.99584 0.19561 0.97664 0.0
H353 H 0.93563 0.16786 0.9912 0.0
H354 H 0.8711 0.27848 0.98068 0.0
H355 H 0.93148 0.30651 0.96638 0.0
C356 C 0.81683 0.2179 0.02372 0.0
C357 C 0.8058 0.1771 0.02363 0.0
C358 C 0.84566 0.23244 1.01139 0.0
C359 C 0.86425 0.20654 0.99868 0.0
C360 C 0.85183 0.16612 0.99801 0.0
C361 C 0.82282 0.15158 1.01031 0.0
C362 C 0.96859 0.21375 0.97709 0.0
C363 C 0.96869 0.25348 0.97055 0.0
C364 C 0.93396 0.19776 0.98539 0.0
C365 C 0.89865 0.22114 0.98731 0.0
C366 C 0.89802 0.25995 0.97972 0.0
C367 C 0.93261 0.27592 0.97143 0.0
H368 H 0.64099 0.8298 0.76018 0.0
H369 H 0.75894 0.81853 0.78531 0.0
H370 H 0.66652 0.88418 0.7409 0.0
H371 H 0.78417 0.87295 0.76626 0.0
H372 H 0.82834 0.95488 0.72235 0.0
H373 H 0.80044 0.89307 0.73498 0.0
H374 H 0.68772 0.9543 0.74625 0.0
H375 H 0.7154 0.0161 0.73339 0.0
C376 C 0.67248 0.83853 0.76143 0.0
C377 C 0.69788 0.81992 0.77436 0.0
C378 C 0.68701 0.86986 0.75046 0.0
C379 C 0.72733 0.88303 0.75207 0.0
C380 C 0.75308 0.86328 0.76449 0.0
C381 C 0.73853 0.83218 0.77551 0.0
C382 C 0.79735 0.95505 0.72722 0.0
C383 C 0.77427 0.99062 0.72702 0.0
C384 C 0.78145 0.91963 0.73456 0.0
C385 C 0.74206 0.91886 0.74185 0.0
C386 C 0.7181 0.95376 0.74065 0.0
C387 C 0.73403 0.98927 0.73332 0.0
H388 H 0.9367 0.19759 0.30713 0.0
H389 H 0.9909 0.31584 0.30658 0.0
H390 H 0.8758 0.22471 0.29293 0.0
H391 H 0.93009 0.34281 0.29213 0.0
H392 H 0.8068 0.38474 0.27316 0.0
H393 H 0.85687 0.35714 0.29432 0.0
H394 H 0.86322 0.24872 0.26185 0.0
H395 H 0.81305 0.27597 0.24088 0.0
C396 C 0.93542 0.2295 0.30425 0.0
C397 C 0.96892 0.25444 0.30779 0.0
C398 C 0.90055 0.24498 0.29602 0.0
C399 C 0.8983 0.28578 0.29115 0.0
C400 C 0.93073 0.31128 0.29579 0.0
C401 C 0.96568 0.29577 0.30403 0.0
C402 C 0.81835 0.35472 0.27072 0.0
C403 C 0.80611 0.33265 0.25524 0.0
C404 C 0.84724 0.33904 0.28279 0.0
C405 C 0.86421 0.30084 0.27973 0.0
C406 C 0.85047 0.27807 0.26474 0.0
C407 C 0.82184 0.2938 0.25263 0.0
H408 H 0.38056 0.0313 0.73724 0.0
H409 H 0.26453 0.07682 0.71933 0.0
H410 H 0.39785 0.09731 0.74918 0.0
H411 H 0.28226 0.14335 0.73099 0.0
H412 H 0.30523 0.22996 0.78037 0.0
H413 H 0.2891 0.17186 0.76142 0.0
H414 H 0.41328 0.1668 0.74288 0.0
H415 H 0.42966 0.22439 0.76214 0.0
C416 C 0.35906 0.05561 0.73548 0.0
C417 C 0.321 0.0486 0.72747 0.0
C418 C 0.36908 0.09364 0.74226 0.0
C419 C 0.34131 0.12566 0.7412 0.0
C420 C 0.3041 0.1192 0.73229 0.0
C421 C 0.29408 0.08111 0.72547 0.0
C422 C 0.32897 0.21689 0.77203 0.0
C423 C 0.36884 0.2316 0.77295 0.0
C424 C 0.31966 0.18364 0.76106 0.0
C425 C 0.34998 0.16436 0.75073 0.0
C426 C 0.38936 0.18047 0.7509 0.0
C427 C 0.39868 0.21367 0.76188 0.0
H428 H 0.09704 0.80036 0.30458 0.0
H429 H 0.02918 0.68968 0.30787 0.0
H430 H 0.15688 0.76306 0.29503 0.0
H431 H 0.08865 0.6523 0.29758 0.0
H432 H 0.20736 0.59121 0.2848 0.0
H433 H 0.15646 0.62854 0.30214 0.0
H434 H 0.1755 0.73166 0.26725 0.0
H435 H 0.22694 0.69498 0.25041 0.0
C436 C 0.09508 0.76793 0.30345 0.0
C437 C 0.05833 0.74798 0.30677 0.0
C438 C 0.12931 0.74655 0.29784 0.0
C439 C 0.12747 0.70472 0.29514 0.0
C440 C 0.09134 0.68444 0.2996 0.0
C441 C 0.05715 0.70586 0.30546 0.0
C442 C 0.20108 0.62208 0.28103 0.0
C443 C 0.2211 0.64003 0.26615 0.0
C444 C 0.1717 0.6434 0.2909 0.0
C445 C 0.16163 0.68311 0.28609 0.0
C446 C 0.18279 0.7014 0.2716 0.0
C447 C 0.21221 0.68021 0.26181 0.0
H448 H 0.65825 0.52596 0.55628 0.0
H449 H 0.77757 0.57869 0.56009 0.0
H450 H 0.6313 0.58967 0.54537 0.0
H451 H 0.75036 0.6428 0.54935 0.0
H452 H 0.69422 0.72384 0.50325 0.0
H453 H 0.72424 0.66788 0.52 0.0
H454 H 0.61668 0.65941 0.55341 0.0
H455 H 0.5864 0.71493 0.53653 0.0
C456 C 0.67864 0.55133 0.55509 0.0
C457 C 0.72012 0.54709 0.55897 0.0
C458 C 0.66312 0.588 0.54892 0.0
C459 C 0.6887 0.62136 0.54641 0.0
C460 C 0.72994 0.61757 0.55094 0.0
C461 C 0.74545 0.58089 0.55721 0.0
C462 C 0.67723 0.71052 0.51437 0.0
C463 C 0.63769 0.72363 0.51839 0.0
C464 C 0.69453 0.6785 0.52404 0.0
C465 C 0.67268 0.65884 0.53792 0.0
C466 C 0.63404 0.67342 0.54259 0.0
C467 C 0.61679 0.70544 0.53296 0.0
H468 H 0.70748 0.31067 0.55643 0.0
H469 H 0.72755 0.40169 0.5153 0.0
H470 H 0.65461 0.28123 0.53782 0.0
H471 H 0.67476 0.37125 0.49623 0.0
H472 H 0.53907 0.3352 0.48314 0.0
H473 H 0.60117 0.36377 0.49612 0.0
H474 H 0.64158 0.24437 0.51067 0.0
H475 H 0.57919 0.21638 0.49843 0.0
C476 C 0.70106 0.32407 0.54325 0.0
C477 C 0.72173 0.35863 0.5374 0.0
C478 C 0.67082 0.30694 0.53246 0.0
C479 C 0.66043 0.3237 0.51543 0.0
C480 C 0.68177 0.35776 0.50932 0.0
C481 C 0.71221 0.37501 0.52019 0.0
C482 C 0.56167 0.31515 0.48882 0.0
C483 C 0.55409 0.2737 0.49008 0.0
C484 C 0.59729 0.33145 0.49622 0.0
C485 C 0.62605 0.30644 0.5048 0.0
C486 C 0.61962 0.26466 0.50467 0.0
C487 C 0.58395 0.24856 0.49756 0.0
H488 H 0.21118 0.44041 0.55958 0.0
H489 H 0.3314 0.48993 0.56595 0.0
H490 H 0.23963 0.38234 0.54376 0.0
H491 H 0.35976 0.43143 0.5502 0.0
H492 H 0.39774 0.30761 0.52729 0.0
H493 H 0.36779 0.35306 0.55013 0.0
H494 H 0.27279 0.38352 0.51199 0.0
H495 H 0.30285 0.33901 0.48924 0.0
C496 C 0.24376 0.43851 0.55804 0.0
C497 C 0.26896 0.47017 0.56382 0.0
C498 C 0.25999 0.40525 0.54891 0.0
C499 C 0.30181 0.40262 0.54558 0.0
C500 C 0.32741 0.43261 0.55264 0.0
C501 C 0.31112 0.46619 0.56161 0.0
C502 C 0.37006 0.32352 0.52396 0.0
C503 C 0.35265 0.31992 0.50648 0.0
C504 C 0.3531 0.34962 0.53697 0.0
C505 C 0.31794 0.37172 0.53284 0.0
C506 C 0.29962 0.36655 0.51565 0.0
C507 C 0.31696 0.34123 0.50258 0.0
H508 H 0.48549 0.7102 0.46982 0.0
H509 H 0.45224 0.81783 0.49939 0.0
H510 H 0.42152 0.67889 0.47905 0.0
H511 H 0.38945 0.78656 0.5089 0.0
H512 H 0.26966 0.73108 0.51874 0.0
H513 H 0.3241 0.76093 0.5007 0.0
H514 H 0.39545 0.65303 0.50759 0.0
H515 H 0.34084 0.62289 0.52509 0.0
C516 C 0.46435 0.72734 0.47806 0.0
C517 C 0.47415 0.76631 0.48404 0.0
C518 C 0.42782 0.70936 0.48344 0.0
C519 C 0.40037 0.73009 0.49482 0.0
C520 C 0.40947 0.76979 0.49996 0.0
C521 C 0.44581 0.78763 0.49464 0.0
C522 C 0.29666 0.71347 0.51612 0.0
C523 C 0.30108 0.67483 0.52361 0.0
C524 C 0.32797 0.73065 0.50585 0.0
C525 C 0.36443 0.7096 0.50287 0.0
C526 C 0.36776 0.67004 0.50945 0.0
C527 C 0.33647 0.65286 0.51965 0.0
H528 H 0.27871 0.22823 0.44763 0.0
H529 H 0.37788 0.26251 0.41243 0.0
H530 H 0.23155 0.23642 0.42244 0.0
H531 H 0.33071 0.26926 0.38683 0.0
H532 H 0.23055 0.31203 0.34845 0.0
H533 H 0.27702 0.30816 0.37432 0.0
H534 H 0.21114 0.20559 0.39505 0.0
H535 H 0.16395 0.21048 0.36961 0.0
C536 C 0.29054 0.23724 0.43444 0.0
C537 C 0.33215 0.24454 0.43204 0.0
C538 C 0.26343 0.24172 0.41991 0.0
C539 C 0.27715 0.2532 0.40246 0.0
C540 C 0.31884 0.26086 0.40009 0.0
C541 C 0.346 0.25675 0.41474 0.0
C542 C 0.22581 0.28886 0.35863 0.0
C543 C 0.19339 0.26166 0.35697 0.0
C544 C 0.25272 0.2864 0.3734 0.0
C545 C 0.24809 0.25649 0.38684 0.0
C546 C 0.21541 0.22949 0.3852 0.0
C547 C 0.18834 0.23216 0.37053 0.0
H548 H 0.1685 0.72525 0.60003 0.0
H549 H 0.28477 0.68046 0.61799 0.0
H550 H 0.16973 0.77569 0.62411 0.0
H551 H 0.28583 0.73132 0.64233 0.0
H552 H 0.28728 0.85781 0.67101 0.0
H553 H 0.28946 0.80713 0.64662 0.0
H554 H 0.1649 0.77621 0.65781 0.0
H555 H 0.16259 0.82652 0.68195 0.0
C556 C 0.19437 0.72609 0.60913 0.0
C557 C 0.22647 0.69861 0.6071 0.0
C558 C 0.19496 0.75498 0.62301 0.0
C559 C 0.22778 0.75744 0.6352 0.0
C560 C 0.26023 0.73035 0.63308 0.0
C561 C 0.25949 0.70106 0.61922 0.0
C562 C 0.26037 0.84025 0.6682 0.0
C563 C 0.22471 0.84639 0.67839 0.0
C564 C 0.26172 0.81103 0.65433 0.0
C565 C 0.22731 0.78773 0.65024 0.0
C566 C 0.19178 0.79396 0.66045 0.0
C567 C 0.19054 0.82276 0.67436 0.0
H568 H 0.705 0.75847 0.43168 0.0
H569 H 0.64417 0.84952 0.39977 0.0
H570 H 0.76065 0.75775 0.40966 0.0
H571 H 0.69893 0.84792 0.37753 0.0
H572 H 0.82255 0.87389 0.35403 0.0
H573 H 0.76713 0.86999 0.37577 0.0
H574 H 0.78272 0.74118 0.37912 0.0
H575 H 0.83937 0.74534 0.35759 0.0
C576 C 0.70316 0.77785 0.41981 0.0
C577 C 0.67025 0.80432 0.41759 0.0
C578 C 0.73506 0.77736 0.40714 0.0
C579 C 0.7347 0.80319 0.3919 0.0
C580 C 0.70086 0.82835 0.38932 0.0
C581 C 0.6692 0.82904 0.40202 0.0
C582 C 0.81433 0.84469 0.35942 0.0
C583 C 0.83538 0.80991 0.354 0.0
C584 C 0.78221 0.84239 0.37181 0.0
C585 C 0.76989 0.80519 0.37906 0.0
C586 C 0.79145 0.77039 0.37391 0.0
C587 C 0.82389 0.77274 0.36154 0.0
H588 H 0.76922 0.19468 0.67263 0.0
H589 H 0.87846 0.2487 0.69398 0.0
H590 H 0.76898 0.24359 0.64755 0.0
H591 H 0.87813 0.29719 0.66907 0.0
H592 H 0.89072 0.34308 0.61013 0.0
H593 H 0.88843 0.29541 0.63535 0.0
H594 H 0.76075 0.31904 0.6424 0.0
H595 H 0.76298 0.3671 0.61699 0.0
C596 C 0.79317 0.21688 0.67197 0.0
C597 C 0.82392 0.21767 0.68529 0.0
C598 C 0.79286 0.24506 0.65769 0.0
C599 C 0.82358 0.27423 0.65632 0.0
C600 C 0.85426 0.27488 0.66963 0.0
C601 C 0.85433 0.24712 0.68396 0.0
C602 C 0.86213 0.33834 0.61707 0.0
C603 C 0.82706 0.35905 0.61157 0.0
C604 C 0.86088 0.31106 0.63159 0.0
C605 C 0.82442 0.30343 0.64089 0.0
C606 C 0.78923 0.32406 0.6354 0.0
C607 C 0.79059 0.35181 0.62097 0.0
H608 H 0.24659 0.32514 0.94042 0.0
H609 H 0.1625 0.25226 0.90956 0.0
H610 H 0.29614 0.31905 0.91601 0.0
H611 H 0.21221 0.24671 0.88482 0.0
H612 H 0.32902 0.21147 0.85353 0.0
H613 H 0.27818 0.21635 0.87772 0.0
H614 H 0.30759 0.34186 0.8851 0.0
H615 H 0.35876 0.33686 0.86121 0.0
C616 C 0.23853 0.30793 0.92837 0.0
C617 C 0.20045 0.28924 0.92697 0.0
C618 C 0.26697 0.30464 0.91429 0.0
C619 C 0.25819 0.28254 0.89838 0.0
C620 C 0.22013 0.26366 0.89696 0.0
C621 C 0.19154 0.26703 0.91109 0.0
C622 C 0.32472 0.24009 0.86035 0.0
C623 C 0.34818 0.27372 0.85546 0.0
C624 C 0.29532 0.24295 0.87413 0.0
C625 C 0.28876 0.27948 0.8834 0.0
C626 C 0.31218 0.3131 0.87845 0.0
C627 C 0.34146 0.31026 0.86467 0.0
H628 H 0.30117 0.65121 0.15934 0.0
H629 H 0.27845 0.75237 0.19504 0.0
H630 H 0.30489 0.69691 0.13319 0.0
H631 H 0.28266 0.7978 0.16907 0.0
H632 H 0.25735 0.86524 0.11591 0.0
H633 H 0.24792 0.8174 0.1409 0.0
H634 H 0.35096 0.74914 0.12178 0.0
H635 H 0.3601 0.7965 0.09675 0.0
C636 C 0.29677 0.6831 0.1616 0.0
C637 C 0.28964 0.69808 0.1793 0.0
C638 C 0.29914 0.70933 0.14664 0.0
C639 C 0.29417 0.75108 0.14902 0.0
C640 C 0.28618 0.76584 0.16668 0.0
C641 C 0.28404 0.73973 0.18161 0.0
C642 C 0.27793 0.83999 0.11702 0.0
C643 C 0.30957 0.83485 0.10435 0.0
C644 C 0.27262 0.81262 0.13138 0.0
C645 C 0.29867 0.77937 0.13335 0.0
C646 C 0.33001 0.77406 0.12055 0.0
C647 C 0.33543 0.80148 0.10627 0.0
H648 H 0.89136 0.74211 0.90763 0.0
H649 H 0.78899 0.75621 0.94392 0.0
H650 H 0.84537 0.74061 0.88144 0.0
H651 H 0.74317 0.75412 0.91784 0.0
H652 H 0.67437 0.78296 0.8649 0.0
H653 H 0.72146 0.79073 0.8905 0.0
H654 H 0.79504 0.6943 0.8689 0.0
H655 H 0.74852 0.68686 0.84333 0.0
C656 C 0.85912 0.74513 0.91003 0.0
C657 C 0.84391 0.7491 0.9279 0.0
C658 C 0.83271 0.74401 0.89503 0.0
C659 C 0.79051 0.74702 0.89753 0.0
C660 C 0.77547 0.75211 0.91537 0.0
C661 C 0.80181 0.75306 0.93036 0.0
C662 C 0.7006 0.76344 0.86563 0.0
C663 C 0.70757 0.73425 0.85206 0.0
C664 C 0.72754 0.76781 0.88033 0.0
C665 C 0.76218 0.74325 0.88173 0.0
C666 C 0.76908 0.71417 0.86812 0.0
C667 C 0.74213 0.70968 0.85351 0.0
H668 H 0.66549 0.21474 0.09757 0.0
H669 H 0.78518 0.17515 0.11336 0.0
H670 H 0.66637 0.26476 0.12183 0.0
H671 H 0.78581 0.22537 0.13794 0.0
H672 H 0.78378 0.34853 0.16883 0.0
H673 H 0.78645 0.30018 0.14347 0.0
H674 H 0.66354 0.26413 0.15525 0.0
H675 H 0.6607 0.3122 0.18024 0.0
C676 C 0.69204 0.21662 0.10624 0.0
C677 C 0.72517 0.19068 0.10356 0.0
C678 C 0.69245 0.24528 0.12021 0.0
C679 C 0.72605 0.24895 0.13191 0.0
C680 C 0.75957 0.2235 0.12909 0.0
C681 C 0.75908 0.19455 0.1151 0.0
C682 C 0.75731 0.33041 0.1659 0.0
C683 C 0.72199 0.33438 0.17653 0.0
C684 C 0.75894 0.30252 0.15148 0.0
C685 C 0.72516 0.27838 0.14729 0.0
C686 C 0.68992 0.28259 0.15791 0.0
C687 C 0.68838 0.31011 0.17233 0.0
H688 H 0.9566 0.92646 0.29807 0.0
H689 H 0.02133 0.89996 0.34799 0.0
H690 H 0.98636 0.99385 0.29775 0.0
H691 H 0.05183 0.96626 0.34736 0.0
H692 H 0.06023 0.10144 0.35341 0.0
H693 H 0.03243 0.03407 0.35234 0.0
H694 H 0.04916 0.03121 0.29373 0.0
H695 H 0.07609 0.09975 0.29474 0.0
C696 C 0.97727 0.93493 0.30891 0.0
C697 C 0.98626 0.90797 0.32314 0.0
C698 C 0.99459 0.97342 0.30865 0.0
C699 C 0.02136 0.98564 0.32259 0.0
C700 C 0.03074 0.95828 0.33661 0.0
C701 C 1.01331 0.92009 0.33693 0.0
C702 C 0.05829 0.08649 0.34027 0.0
C703 C 0.0705 0.10604 0.32416 0.0
C704 C 0.04246 0.04764 0.33967 0.0
C705 C 0.03863 0.02702 0.32296 0.0
C706 C 0.05125 0.04637 0.30681 0.0
C707 C 0.06703 0.08549 0.30741 0.0
H708 H 0.93124 0.09158 0.75178 0.0
H709 H 0.94566 0.07223 0.69367 0.0
H710 H 0.9978 0.06122 0.75711 0.0
H711 H 1.01182 0.04222 0.69902 0.0
H712 H 0.10744 0.95204 0.7157 0.0
H713 H 0.03944 0.9801 0.71297 0.0
H714 H 0.07118 0.07462 0.75089 0.0
H715 H 0.13922 0.04645 0.75375 0.0
C716 C 0.94865 0.08111 0.74015 0.0
C717 C 0.93306 0.0843 0.7223 0.0
C718 C 0.98677 0.06377 0.74321 0.0
C719 C 1.00987 0.04893 0.7285 0.0
C720 C 0.99447 0.05268 0.71067 0.0
C721 C 0.95663 0.07023 0.7076 0.0
C722 C 0.09983 0.97851 0.72365 0.0
C723 C 0.12891 0.99714 0.73485 0.0
C724 C 0.06093 0.99476 0.72197 0.0
C725 C 0.05008 0.02986 0.73155 0.0
C726 C 0.07856 0.04748 0.74338 0.0
C727 C 0.11759 0.03138 0.74497 0.0
H728 H 0.06724 0.41569 0.98569 0.0
H729 H 0.05867 0.41819 0.92672 0.0
H730 H 0.04271 0.4851 0.98698 0.0
H731 H 0.0335 0.48673 0.92804 0.0
H732 H 0.03369 0.62163 0.93489 0.0
H733 H 0.05828 0.55293 0.93505 0.0
H734 H 0.98169 0.52627 0.98139 0.0
H735 H 0.95747 0.59594 0.98149 0.0
C736 C 0.06018 0.431 0.97302 0.0
C737 C 0.06517 0.41144 0.95609 0.0
C738 C 0.0458 0.47065 0.97377 0.0
C739 C 0.03624 0.49154 0.95762 0.0
C740 C 0.04118 0.47182 0.94074 0.0
C741 C 0.0555 0.43236 0.93999 0.0
C742 C 0.02192 0.60124 0.94513 0.0
C743 C 0.99339 0.6143 0.95812 0.0
C744 C 0.03595 0.56168 0.94516 0.0
C745 C 0.02178 0.53395 0.95814 0.0
C746 C 0.99346 0.54698 0.97128 0.0
C747 C 0.97937 0.58679 0.97127 0.0
H748 H 0.42216 0.98921 0.07222 0.0
H749 H 0.44572 0.93435 0.01968 0.0
H750 H 0.48844 0.02068 0.07159 0.0
H751 H 0.51306 0.96478 0.01934 0.0
H752 H 0.61451 0.05867 1.01612 0.0
H753 H 0.54756 0.02751 1.01618 0.0
H754 H 0.55803 1.00667 0.07434 0.0
H755 H 0.62395 0.03904 0.07437 0.0
C756 C 0.44172 0.98342 0.06061 0.0
C757 C 0.4286 0.95914 0.04601 0.0
C758 C 0.47994 1.00138 0.06029 0.0
C759 C 0.50636 0.99527 0.04544 0.0
C760 C 0.49336 0.97068 0.03088 0.0
C761 C 0.45486 0.95293 0.03114 0.0
C762 C 0.60236 0.04762 0.02892 0.0
C763 C 0.6245 0.0516 0.04525 0.0
C764 C 0.56409 0.02942 0.02894 0.0
C765 C 0.54721 1.0145 0.04527 0.0
C766 C 0.56957 0.01842 0.06156 0.0
C767 C 0.60757 0.03689 0.06156 0.0
H768 H 0.56277 0.40732 0.79108 0.0
H769 H 0.44357 0.44331 0.80929 0.0
H770 H 0.58573 0.47679 0.79333 0.0
H771 H 0.46634 0.5129 0.81117 0.0
H772 H 0.53429 0.61914 0.83597 0.0
H773 H 0.5108 0.5508 0.83106 0.0
H774 H 0.57944 0.54457 0.78082 0.0
H775 H 0.60367 0.61321 0.78592 0.0
C776 C 0.54127 0.43011 0.79531 0.0
C777 C 0.50139 0.41964 0.80015 0.0
C778 C 0.55443 0.47002 0.79652 0.0
C779 C 0.52803 0.50041 0.80261 0.0
C780 C 0.48771 0.49013 0.80677 0.0
C781 C 0.47455 0.45024 0.80557 0.0
C782 C 0.54452 0.60328 0.82388 0.0
C783 C 0.57091 0.62172 0.81134 0.0
C784 C 0.53072 0.56412 0.82098 0.0
C785 C 0.54287 0.54226 0.80545 0.0
C786 C 0.56965 0.56048 0.79298 0.0
C787 C 0.58349 0.59983 0.79588 0.0
H788 H 0.62876 0.53261 0.24775 0.0
H789 H 0.60076 0.42719 0.21553 0.0
H790 H 0.5599 0.55705 0.24351 0.0
H791 H 0.53145 0.45123 0.21168 0.0
H792 H 0.42987 0.53022 0.18915 0.0
H793 H 0.49742 0.50411 0.19512 0.0
H794 H 0.48955 0.54576 0.25102 0.0
H795 H 0.42209 0.57279 0.24491 0.0
C796 C 0.60776 0.51433 0.23997 0.0
C797 C 0.62039 0.47804 0.23188 0.0
C798 C 0.56816 0.52831 0.23761 0.0
C799 C 0.54017 0.5063 0.22713 0.0
C800 C 0.55245 0.46932 0.21955 0.0
C801 C 0.5921 0.45536 0.22188 0.0
C802 C 0.44254 0.53396 0.20271 0.0
C803 C 0.42057 0.55367 0.21655 0.0
C804 C 0.48119 0.51863 0.20618 0.0
C805 C 0.49885 0.52251 0.22359 0.0
C806 C 0.47701 0.54254 0.23741 0.0
C807 C 0.4383 0.55797 0.23392 0.0
H808 H 0.43078 0.10108 0.47945 0.0
H809 H 0.54552 0.13333 0.45512 0.0
H810 H 0.45262 0.0307 0.48076 0.0
H811 H 0.56725 0.06332 0.45655 0.0
H812 H 0.60494 0.93806 0.47787 0.0
H813 H 0.58376 1.00865 0.47997 0.0
H814 H 0.46784 0.97777 0.45653 0.0
H815 H 0.48887 0.90774 0.4543 0.0
C816 C 0.46069 0.09321 0.47449 0.0
C817 C 0.48628 0.12271 0.46706 0.0
C818 C 0.47314 0.05297 0.4752 0.0
C819 C 0.51166 0.04157 0.46877 0.0
C820 C 0.53758 0.07125 0.46177 0.0
C821 C 0.52494 0.1113 0.46081 0.0
C822 C 0.57491 0.94639 0.47325 0.0
C823 C 0.5487 0.91739 0.46582 0.0
C824 C 0.56284 0.98675 0.47441 0.0
C825 C 0.5241 0.99865 0.46845 0.0
C826 C 0.49768 0.96944 0.4614 0.0
C827 C 0.50993 0.92937 0.45999 0.0
H828 H 0.9109 0.53009 0.52227 0.0
H829 H 0.94032 0.45653 0.56912 0.0
H830 H 0.98077 0.55442 0.52131 0.0
H831 H 1.00993 0.48087 0.56811 0.0
H832 H 0.11185 0.57277 0.57527 0.0
H833 H 0.04267 0.54755 0.57426 0.0
H834 H 0.05282 0.53028 0.5159 0.0
H835 H 0.12244 0.55559 0.51685 0.0
C836 C 0.93231 0.51882 0.53225 0.0
C837 C 0.91993 0.49152 0.54583 0.0
C838 C 0.97234 0.53268 0.53166 0.0
C839 C 1.0007 0.51985 0.54475 0.0
C840 C 0.98859 0.49175 0.55801 0.0
C841 C 0.94874 0.47761 0.5585 0.0
C842 C 0.09937 0.56387 0.56217 0.0
C843 C 0.12279 0.56613 0.54613 0.0
C844 C 0.05979 0.54911 0.56163 0.0
C845 C 0.04245 0.53656 0.54503 0.0
C846 C 0.06537 0.53982 0.52889 0.0
C847 C 0.10524 0.55424 0.52945 0.0
loop_
_geom_bond_atom_site_label_1
_geom_bond_atom_site_label_2
_geom_bond_distance
_geom_bond_site_symmetry_2
_ccdc_geom_bond_type
Mg0 O7 2.141 . S
Mg0 O8 2.048 . S
Mg0 O9 2.048 . S
Mg0 O12 2.141 . S
C1 O2 1.313 . S
C1 O8 1.195 . S
O2 C1 1.313 . S
C3 O4 1.245 . S
C3 O12 1.289 . S
O4 C3 1.245 . S
C5 O6 1.245 . S
C5 O7 1.289 . S
O6 C5 1.245 . S
O7 Mg0 2.141 . S
O7 C5 1.289 . S
O8 Mg0 2.048 . S
O8 C1 1.195 . S
O9 Mg0 2.048 . S
O9 C10 1.195 . S
C10 O9 1.195 . S
C10 O11 1.313 . S
O11 C10 1.313 . S
O12 Mg0 2.141 . S
O12 C3 1.289 . S
Mg13 O20 2.141 . S
Mg13 O21 2.048 . S
Mg13 O22 2.048 . S
Mg13 O25 2.141 . S
C14 O15 1.313 . S
C14 O21 1.195 . S
O15 C14 1.313 . S
C16 O17 1.245 . S
C16 O25 1.289 . S
O17 C16 1.245 . S
C18 O19 1.245 . S
C18 O20 1.289 . S
O19 C18 1.245 . S
O20 Mg13 2.141 . S
O20 C18 1.289 . S
O21 Mg13 2.048 . S
O21 C14 1.195 . S
O22 Mg13 2.048 . S
O22 C23 1.195 . S
C23 O22 1.195 . S
C23 O24 1.313 . S
O24 C23 1.313 . S
O25 Mg13 2.141 . S
O25 C16 1.289 . S
Mg26 O33 2.141 . S
Mg26 O34 2.048 . S
Mg26 O35 2.048 . S
Mg26 O38 2.141 . S
C27 O28 1.313 . S
C27 O34 1.195 . S
O28 C27 1.313 . S
C29 O30 1.245 . S
C29 O38 1.289 . S
O30 C29 1.245 . S
C31 O32 1.245 . S
C31 O33 1.289 . S
O32 C31 1.245 . S
O33 Mg26 2.141 . S
O33 C31 1.289 . S
O34 Mg26 2.048 . S
O34 C27 1.195 . S
O35 Mg26 2.048 . S
O35 C36 1.195 . S
C36 O35 1.195 . S
C36 O37 1.313 . S
O37 C36 1.313 . S
O38 Mg26 2.141 . S
O38 C29 1.289 . S
Mg39 O46 2.141 . S
Mg39 O47 2.048 . S
Mg39 O48 2.048 . S
Mg39 O51 2.141 . S
C40 O41 1.313 . S
C40 O47 1.195 . S
O41 C40 1.313 . S
C42 O43 1.245 . S
C42 O51 1.289 . S
O43 C42 1.245 . S
C44 O45 1.245 . S
C44 O46 1.289 . S
O45 C44 1.245 . S
O46 Mg39 2.141 . S
O46 C44 1.289 . S
O47 Mg39 2.048 . S
O47 C40 1.195 . S
O48 Mg39 2.048 . S
O48 C49 1.195 . S
C49 O48 1.195 . S
C49 O50 1.313 . S
O50 C49 1.313 . S
O51 Mg39 2.141 . S
O51 C42 1.289 . S
Mg52 O59 2.141 . S
Mg52 O60 2.048 . S
Mg52 O61 2.048 . S
Mg52 O64 2.141 . S
C53 O54 1.313 . S
C53 O60 1.195 . S
O54 C53 1.313 . S
C55 O56 1.245 . S
C55 O64 1.289 . S
O56 C55 1.245 . S
C57 O58 1.245 . S
C57 O59 1.289 . S
O58 C57 1.245 . S
O59 Mg52 2.141 . S
O59 C57 1.289 . S
O60 Mg52 2.048 . S
O60 C53 1.195 . S
O61 Mg52 2.048 . S
O61 C62 1.195 . S
C62 O61 1.195 . S
C62 O63 1.313 . S
O63 C62 1.313 . S
O64 Mg52 2.141 . S
O64 C55 1.289 . S
Mg65 O72 2.141 . S
Mg65 O73 2.048 . S
Mg65 O74 2.048 . S
Mg65 O77 2.141 . S
C66 O67 1.313 . S
C66 O73 1.195 . S
O67 C66 1.313 . S
C68 O69 1.245 . S
C68 O77 1.289 . S
O69 C68 1.245 . S
C70 O71 1.245 . S
C70 O72 1.289 . S
O71 C70 1.245 . S
O72 Mg65 2.141 . S
O72 C70 1.289 . S
O73 Mg65 2.048 . S
O73 C66 1.195 . S
O74 Mg65 2.048 . S
O74 C75 1.195 . S
C75 O74 1.195 . S
C75 O76 1.313 . S
O76 C75 1.313 . S
O77 Mg65 2.141 . S
O77 C68 1.289 . S
Mg78 O85 2.141 . S
Mg78 O86 2.048 . S
Mg78 O87 2.048 . S
Mg78 O90 2.141 . S
C79 O80 1.313 . S
C79 O86 1.195 . S
O80 C79 1.313 . S
C81 O82 1.245 . S
C81 O90 1.289 . S
O82 C81 1.245 . S
C83 O84 1.245 . S
C83 O85 1.289 . S
O84 C83 1.245 . S
O85 Mg78 2.141 . S
O85 C83 1.289 . S
O86 Mg78 2.048 . S
O86 C79 1.195 . S
O87 Mg78 2.048 . S
O87 C88 1.195 . S
C88 O87 1.195 . S
C88 O89 1.313 . S
O89 C88 1.313 . S
O90 Mg78 2.141 . S
O90 C81 1.289 . S
Mg91 O98 2.141 . S
Mg91 O99 2.048 . S
Mg91 O100 2.048 . S
Mg91 O103 2.141 . S
C92 O93 1.313 . S
C92 O99 1.195 . S
O93 C92 1.313 . S
C94 O95 1.245 . S
C94 O103 1.289 . S
O95 C94 1.245 . S
C96 O97 1.245 . S
C96 O98 1.289 . S
O97 C96 1.245 . S
O98 Mg91 2.141 . S
O98 C96 1.289 . S
O99 Mg91 2.048 . S
O99 C92 1.195 . S
O100 Mg91 2.048 . S
O100 C101 1.195 . S
C101 O100 1.195 . S
C101 O102 1.313 . S
O102 C101 1.313 . S
O103 Mg91 2.141 . S
O103 C94 1.289 . S
Mg104 O111 2.141 . S
Mg104 O112 2.048 . S
Mg104 O113 2.048 . S
Mg104 O116 2.141 . S
C105 O106 1.313 . S
C105 O112 1.195 . S
O106 C105 1.313 . S
C107 O108 1.245 . S
C107 O116 1.289 . S
O108 C107 1.245 . S
C109 O110 1.245 . S
C109 O111 1.289 . S
O110 C109 1.245 . S
O111 Mg104 2.141 . S
O111 C109 1.289 . S
O112 Mg104 2.048 . S
O112 C105 1.195 . S
O113 Mg104 2.048 . S
O113 C114 1.195 . S
C114 O113 1.195 . S
C114 O115 1.313 . S
O115 C114 1.313 . S
O116 Mg104 2.141 . S
O116 C107 1.289 . S
Mg117 O124 2.141 . S
Mg117 O125 2.048 . S
Mg117 O126 2.048 . S
Mg117 O129 2.141 . S
C118 O119 1.313 . S
C118 O125 1.195 . S
O119 C118 1.313 . S
C120 O121 1.245 . S
C120 O129 1.289 . S
O121 C120 1.245 . S
C122 O123 1.245 . S
C122 O124 1.289 . S
O123 C122 1.245 . S
O124 Mg117 2.141 . S
O124 C122 1.289 . S
O125 Mg117 2.048 . S
O125 C118 1.195 . S
O126 Mg117 2.048 . S
O126 C127 1.195 . S
C127 O126 1.195 . S
C127 O128 1.313 . S
O128 C127 1.313 . S
O129 Mg117 2.141 . S
O129 C120 1.289 . S
Mg130 O137 2.141 . S
Mg130 O138 2.048 . S
Mg130 O139 2.048 . S
Mg130 O142 2.141 . S
C131 O132 1.313 . S
C131 O138 1.195 . S
O132 C131 1.313 . S
C133 O134 1.245 . S
C133 O142 1.289 . S
O134 C133 1.245 . S
C135 O136 1.245 . S
C135 O137 1.289 . S
O136 C135 1.245 . S
O137 Mg130 2.141 . S
O137 C135 1.289 . S
O138 Mg130 2.048 . S
O138 C131 1.195 . S
O139 Mg130 2.048 . S
O139 C140 1.195 . S
C140 O139 1.195 . S
C140 O141 1.313 . S
O141 C140 1.313 . S
O142 Mg130 2.141 . S
O142 C133 1.289 . S
Mg143 O150 2.141 . S
Mg143 O151 2.048 . S
Mg143 O152 2.048 . S
Mg143 O155 2.141 . S
C144 O145 1.313 . S
C144 O151 1.195 . S
O145 C144 1.313 . S
C146 O147 1.245 . S
C146 O155 1.289 . S
O147 C146 1.245 . S
C148 O149 1.245 . S
C148 O150 1.289 . S
O149 C148 1.245 . S
O150 Mg143 2.141 . S
O150 C148 1.289 . S
O151 Mg143 2.048 . S
O151 C144 1.195 . S
O152 Mg143 2.048 . S
O152 C153 1.195 . S
C153 O152 1.195 . S
C153 O154 1.313 . S
O154 C153 1.313 . S
O155 Mg143 2.141 . S
O155 C146 1.289 . S
Mg156 O163 2.141 . S
Mg156 O164 2.048 . S
Mg156 O165 2.048 . S
Mg156 O168 2.141 . S
C157 O158 1.313 . S
C157 O164 1.195 . S
O158 C157 1.313 . S
C159 O160 1.245 . S
C159 O168 1.289 . S
O160 C159 1.245 . S
C161 O162 1.245 . S
C161 O163 1.289 . S
O162 C161 1.245 . S
O163 Mg156 2.141 . S
O163 C161 1.289 . S
O164 Mg156 2.048 . S
O164 C157 1.195 . S
O165 Mg156 2.048 . S
O165 C166 1.195 . S
C166 O165 1.195 . S
C166 O167 1.313 . S
O167 C166 1.313 . S
O168 Mg156 2.141 . S
O168 C159 1.289 . S
Mg169 O176 2.141 . S
Mg169 O177 2.048 . S
Mg169 O178 2.048 . S
Mg169 O181 2.141 . S
C170 O171 1.313 . S
C170 O177 1.195 . S
O171 C170 1.313 . S
C172 O173 1.245 . S
C172 O181 1.289 . S
O173 C172 1.245 . S
C174 O175 1.245 . S
C174 O176 1.289 . S
O175 C174 1.245 . S
O176 Mg169 2.141 . S
O176 C174 1.289 . S
O177 Mg169 2.048 . S
O177 C170 1.195 . S
O178 Mg169 2.048 . S
O178 C179 1.195 . S
C179 O178 1.195 . S
C179 O180 1.313 . S
O180 C179 1.313 . S
O181 Mg169 2.141 . S
O181 C172 1.289 . S
Mg182 O189 2.141 . S
Mg182 O190 2.048 . S
Mg182 O191 2.048 . S
Mg182 O194 2.141 . S
C183 O184 1.313 . S
C183 O190 1.195 . S
O184 C183 1.313 . S
C185 O186 1.245 . S
C185 O194 1.289 . S
O186 C185 1.245 . S
C187 O188 1.245 . S
C187 O189 1.289 . S
O188 C187 1.245 . S
O189 Mg182 2.141 . S
O189 C187 1.289 . S
O190 Mg182 2.048 . S
O190 C183 1.195 . S
O191 Mg182 2.048 . S
O191 C192 1.195 . S
C192 O191 1.195 . S
C192 O193 1.313 . S
O193 C192 1.313 . S
O194 Mg182 2.141 . S
O194 C185 1.289 . S
Mg195 O202 2.141 . S
Mg195 O203 2.048 . S
Mg195 O204 2.048 . S
Mg195 O207 2.141 . S
C196 O197 1.313 . S
C196 O203 1.195 . S
O197 C196 1.313 . S
C198 O199 1.245 . S
C198 O207 1.289 . S
O199 C198 1.245 . S
C200 O201 1.245 . S
C200 O202 1.289 . S
O201 C200 1.245 . S
O202 Mg195 2.141 . S
O202 C200 1.289 . S
O203 Mg195 2.048 . S
O203 C196 1.195 . S
O204 Mg195 2.048 . S
O204 C205 1.195 . S
C205 O204 1.195 . S
C205 O206 1.313 . S
O206 C205 1.313 . S
O207 Mg195 2.141 . S
O207 C198 1.289 . S
H208 C216 0.950 . S
H209 C221 0.950 . S
H210 C218 0.950 . S
H211 C220 0.950 . S
H212 C222 0.950 . S
H213 C224 0.950 . S
H214 C226 0.950 . S
H215 C227 0.950 . S
C216 H208 0.950 . S
C216 C217 1.386 . S
C216 C218 1.391 . S
C217 C216 1.386 . S
C217 C221 1.393 . S
C218 H210 0.950 . S
C218 C216 1.391 . S
C218 C219 1.400 . S
C219 C218 1.400 . S
C219 C220 1.398 . S
C219 C225 1.491 . S
C220 H211 0.950 . S
C220 C219 1.398 . S
C220 C221 1.391 . S
C221 H209 0.950 . S
C221 C217 1.393 . S
C221 C220 1.391 . S
C222 H212 0.950 . S
C222 C223 1.386 . S
C222 C224 1.391 . S
C223 C222 1.386 . S
C223 C227 1.393 . S
C224 H213 0.950 . S
C224 C222 1.391 . S
C224 C225 1.400 . S
C225 C219 1.491 . S
C225 C224 1.400 . S
C225 C226 1.398 . S
C226 H214 0.950 . S
C226 C225 1.398 . S
C226 C227 1.391 . S
C227 H215 0.950 . S
C227 C223 1.393 . S
C227 C226 1.391 . S
H228 C236 0.950 . S
H229 C241 0.950 . S
H230 C238 0.950 . S
H231 C240 0.950 . S
H232 C242 0.950 . S
H233 C244 0.950 . S
H234 C246 0.950 . S
H235 C247 0.950 . S
C236 H228 0.950 . S
C236 C237 1.386 . S
C236 C238 1.391 . S
C237 C236 1.386 . S
C237 C241 1.393 . S
C238 H230 0.950 . S
C238 C236 1.391 . S
C238 C239 1.400 . S
C239 C238 1.400 . S
C239 C240 1.398 . S
C239 C245 1.491 . S
C240 H231 0.950 . S
C240 C239 1.398 . S
C240 C241 1.391 . S
C241 H229 0.950 . S
C241 C237 1.393 . S
C241 C240 1.391 . S
C242 H232 0.950 . S
C242 C243 1.386 . S
C242 C244 1.391 . S
C243 C242 1.386 . S
C243 C247 1.393 . S
C244 H233 0.950 . S
C244 C242 1.391 . S
C244 C245 1.400 . S
C245 C239 1.491 . S
C245 C244 1.400 . S
C245 C246 1.398 . S
C246 H234 0.950 . S
C246 C245 1.398 . S
C246 C247 1.391 . S
C247 H235 0.950 . S
C247 C243 1.393 . S
C247 C246 1.391 . S
H248 C256 0.950 . S
H249 C261 0.950 . S
H250 C258 0.950 . S
H251 C260 0.950 . S
H252 C262 0.950 . S
H253 C264 0.950 . S
H254 C266 0.950 . S
H255 C267 0.950 . S
C256 H248 0.950 . S
C256 C257 1.386 . S
C256 C258 1.391 . S
C257 C256 1.386 . S
C257 C261 1.393 . S
C258 H250 0.950 . S
C258 C256 1.391 . S
C258 C259 1.400 . S
C259 C258 1.400 . S
C259 C260 1.398 . S
C259 C265 1.491 . S
C260 H251 0.950 . S
C260 C259 1.398 . S
C260 C261 1.391 . S
C261 H249 0.950 . S
C261 C257 1.393 . S
C261 C260 1.391 . S
C262 H252 0.950 . S
C262 C263 1.386 . S
C262 C264 1.391 . S
C263 C262 1.386 . S
C263 C267 1.393 . S
C264 H253 0.950 . S
C264 C262 1.391 . S
C264 C265 1.400 . S
C265 C259 1.491 . S
C265 C264 1.400 . S
C265 C266 1.398 . S
C266 H254 0.950 . S
C266 C265 1.398 . S
C266 C267 1.391 . S
C267 H255 0.950 . S
C267 C263 1.393 . S
C267 C266 1.391 . S
H268 C276 0.950 . S
H269 C281 0.950 . S
H270 C278 0.950 . S
H271 C280 0.950 . S
H272 C282 0.950 . S
H273 C284 0.950 . S
H274 C286 0.950 . S
H275 C287 0.950 . S
C276 H268 0.950 . S
C276 C277 1.386 . S
C276 C278 1.391 . S
C277 C276 1.386 . S
C277 C281 1.393 . S
C278 H270 0.950 . S
C278 C276 1.391 . S
C278 C279 1.400 . S
C279 C278 1.400 . S
C279 C280 1.398 . S
C279 C285 1.491 . S
C280 H271 0.950 . S
C280 C279 1.398 . S
C280 C281 1.391 . S
C281 H269 0.950 . S
C281 C277 1.393 . S
C281 C280 1.391 . S
C282 H272 0.950 . S
C282 C283 1.386 . S
C282 C284 1.391 . S
C283 C282 1.386 . S
C283 C287 1.393 . S
C284 H273 0.950 . S
C284 C282 1.391 . S
C284 C285 1.400 . S
C285 C279 1.491 . S
C285 C284 1.400 . S
C285 C286 1.398 . S
C286 H274 0.950 . S
C286 C285 1.398 . S
C286 C287 1.391 . S
C287 H275 0.950 . S
C287 C283 1.393 . S
C287 C286 1.391 . S
H288 C296 0.950 1_565 S
H289 C301 0.950 . S
H290 C298 0.950 . S
H291 C300 0.950 . S
H292 C302 0.931 1_554 S
H293 C304 0.895 1_554 S
H294 C306 0.950 . S
H295 C307 0.950 . S
C296 H288 0.950 1_545 S
C296 C297 1.386 1_556 S
C296 C298 1.391 . S
C297 C296 1.386 1_554 S
C297 C301 1.393 . S
C298 H290 0.950 . S
C298 C296 1.391 . S
C298 C299 1.400 . S
C299 C298 1.400 . S
C299 C300 1.398 1_556 S
C299 C305 1.491 . S
C300 H291 0.950 . S
C300 C299 1.398 1_554 S
C300 C301 1.391 . S
C301 H289 0.950 . S
C301 C297 1.393 . S
C301 C300 1.391 . S
C302 H292 0.931 1_556 S
C302 C303 1.386 . S
C302 C304 1.412 . S
C303 C302 1.386 . S
C303 C307 1.393 . S
C304 H293 0.895 1_556 S
C304 C302 1.412 . S
C304 C305 1.435 . S
C305 C299 1.491 . S
C305 C304 1.435 . S
C305 C306 1.398 . S
C306 H294 0.950 . S
C306 C305 1.398 . S
C306 C307 1.391 . S
C307 H295 0.950 . S
C307 C303 1.393 . S
C307 C306 1.391 . S
H308 C316 0.950 . S
H309 C321 0.950 . S
H310 C318 0.950 . S
H311 C320 0.950 1_556 S
H312 C322 0.950 . S
H313 C324 0.950 . S
H314 C326 0.950 . S
H315 C327 0.950 1_655 S
C316 H308 0.950 . S
C316 C317 1.386 . S
C316 C318 1.391 . S
C317 C316 1.386 . S
C317 C321 1.393 . S
C318 H310 0.950 . S
C318 C316 1.391 . S
C318 C319 1.400 . S
C319 C318 1.400 . S
C319 C320 1.398 . S
C319 C325 1.491 . S
C320 H311 0.950 1_554 S
C320 C319 1.398 . S
C320 C321 1.391 . S
C321 H309 0.950 . S
C321 C317 1.393 . S
C321 C320 1.391 . S
C322 H312 0.950 . S
C322 C323 1.386 . S
C322 C324 1.391 . S
C323 C322 1.386 . S
C323 C327 1.393 1_556 S
C324 H313 0.950 . S
C324 C322 1.391 . S
C324 C325 1.400 1_556 S
C325 C319 1.491 . S
C325 C324 1.400 1_554 S
C325 C326 1.398 . S
C326 H314 0.950 . S
C326 C325 1.398 . S
C326 C327 1.391 . S
C327 H315 0.950 1_455 S
C327 C323 1.393 1_554 S
C327 C326 1.391 . S
H328 C336 0.950 . S
H329 C341 0.950 . S
H330 C338 0.950 . S
H331 C340 0.950 . S
H332 C342 0.949 . S
H333 C344 0.950 . S
H334 C346 0.950 . S
H335 C347 0.950 1_545 S
C336 H328 0.950 . S
C336 C337 1.386 . S
C336 C338 1.391 . S
C337 C336 1.386 . S
C337 C341 1.393 . S
C338 H330 0.950 . S
C338 C336 1.391 . S
C338 C339 1.400 . S
C339 C338 1.400 . S
C339 C340 1.398 . S
C339 C345 1.491 . S
C340 H331 0.950 . S
C340 C339 1.398 . S
C340 C341 1.391 . S
C341 H329 0.950 . S
C341 C337 1.393 . S
C341 C340 1.391 . S
C342 H332 0.949 . S
C342 C343 1.389 1_556 S
C342 C344 1.389 . S
C343 C342 1.389 1_554 S
C343 C347 1.393 . S
C344 H333 0.950 . S
C344 C342 1.389 . S
C344 C345 1.400 . S
C345 C339 1.491 . S
C345 C344 1.400 . S
C345 C346 1.398 1_556 S
C346 H334 0.950 . S
C346 C345 1.398 1_554 S
C346 C347 1.391 . S
C347 H335 0.950 1_565 S
C347 C343 1.393 . S
C347 C346 1.391 . S
H348 C356 0.950 . S
H349 C361 0.950 . S
H350 C358 0.950 . S
H351 C360 0.950 . S
H352 C362 0.950 1_455 S
H353 C364 0.947 1_554 S
H354 C366 0.950 . S
H355 C367 0.950 . S
C356 H348 0.950 . S
C356 C357 1.386 . S
C356 C358 1.391 . S
C357 C356 1.386 . S
C357 C361 1.393 . S
C358 H350 0.950 . S
C358 C356 1.391 . S
C358 C359 1.400 . S
C359 C358 1.400 . S
C359 C360 1.398 . S
C359 C365 1.491 . S
C360 H351 0.950 . S
C360 C359 1.398 . S
C360 C361 1.391 . S
C361 H349 0.950 . S
C361 C357 1.393 . S
C361 C360 1.391 . S
C362 H352 0.950 1_655 S
C362 C363 1.386 . S
C362 C364 1.404 . S
C363 C362 1.386 . S
C363 C367 1.393 . S
C364 H353 0.947 1_556 S
C364 C362 1.404 . S
C364 C365 1.391 1_556 S
C365 C359 1.491 . S
C365 C364 1.391 1_554 S
C365 C366 1.398 . S
C366 H354 0.950 . S
C366 C365 1.398 . S
C366 C367 1.391 1_554 S
C367 H355 0.950 . S
C367 C363 1.393 . S
C367 C366 1.391 1_556 S
H368 C376 0.950 . S
H369 C381 0.950 . S
H370 C378 0.950 . S
H371 C380 0.950 . S
H372 C382 0.950 1_545 S
H373 C384 0.950 . S
H374 C386 0.950 . S
H375 C387 0.950 . S
C376 H368 0.950 . S
C376 C377 1.386 . S
C376 C378 1.391 . S
C377 C376 1.386 . S
C377 C381 1.393 . S
C378 H370 0.950 . S
C378 C376 1.391 . S
C378 C379 1.400 . S
C379 C378 1.400 . S
C379 C380 1.398 . S
C379 C385 1.491 . S
C380 H371 0.950 . S
C380 C379 1.398 . S
C380 C381 1.391 . S
C381 H369 0.950 . S
C381 C377 1.393 . S
C381 C380 1.391 . S
C382 H372 0.950 1_565 S
C382 C383 1.386 . S
C382 C384 1.391 . S
C383 C382 1.386 . S
C383 C387 1.393 . S
C384 H373 0.950 . S
C384 C382 1.391 . S
C384 C385 1.400 . S
C385 C379 1.491 . S
C385 C384 1.400 . S
C385 C386 1.398 . S
C386 H374 0.950 . S
C386 C385 1.398 . S
C386 C387 1.391 . S
C387 H375 0.950 . S
C387 C383 1.393 . S
C387 C386 1.391 . S
H388 C396 0.950 . S
H389 C401 0.950 1_455 S
H390 C398 0.950 . S
H391 C400 0.950 . S
H392 C402 0.950 . S
H393 C404 0.950 . S
H394 C406 0.950 . S
H395 C407 0.950 . S
C396 H388 0.950 . S
C396 C397 1.386 . S
C396 C398 1.391 . S
C397 C396 1.386 . S
C397 C401 1.393 . S
C398 H390 0.950 . S
C398 C396 1.391 . S
C398 C399 1.400 . S
C399 C398 1.400 . S
C399 C400 1.398 . S
C399 C405 1.491 . S
C400 H391 0.950 . S
C400 C399 1.398 . S
C400 C401 1.391 . S
C401 H389 0.950 1_655 S
C401 C397 1.393 . S
C401 C400 1.391 . S
C402 H392 0.950 . S
C402 C403 1.386 . S
C402 C404 1.391 . S
C403 C402 1.386 . S
C403 C407 1.393 . S
C404 H393 0.950 . S
C404 C402 1.391 . S
C404 C405 1.400 . S
C405 C399 1.491 . S
C405 C404 1.400 . S
C405 C406 1.398 . S
C406 H394 0.950 . S
C406 C405 1.398 . S
C406 C407 1.391 . S
C407 H395 0.950 . S
C407 C403 1.393 . S
C407 C406 1.391 . S
H408 C416 0.950 . S
H409 C421 0.931 1_565 S
H410 C418 0.950 . S
H411 C420 0.950 . S
H412 C422 0.950 . S
H413 C424 0.950 . S
H414 C426 0.950 . S
H415 C427 0.950 . S
C416 H408 0.950 . S
C416 C417 1.386 . S
C416 C418 1.391 . S
C417 C416 1.386 . S
C417 C421 1.395 . S
C418 H410 0.950 . S
C418 C416 1.391 . S
C418 C419 1.400 . S
C419 C418 1.400 . S
C419 C420 1.398 . S
C419 C425 1.491 . S
C420 H411 0.950 . S
C420 C419 1.398 . S
C420 C421 1.408 . S
C421 H409 0.931 1_545 S
C421 C417 1.395 . S
C421 C420 1.408 . S
C422 H412 0.950 . S
C422 C423 1.386 . S
C422 C424 1.391 . S
C423 C422 1.386 . S
C423 C427 1.393 . S
C424 H413 0.950 . S
C424 C422 1.391 . S
C424 C425 1.400 . S
C425 C419 1.491 . S
C425 C424 1.400 . S
C425 C426 1.398 . S
C426 H414 0.950 . S
C426 C425 1.398 . S
C426 C427 1.391 . S
C427 H415 0.950 . S
C427 C423 1.393 . S
C427 C426 1.391 . S
H428 C436 0.950 . S
H429 C441 0.950 . S
H430 C438 0.950 . S
H431 C440 0.950 . S
H432 C442 0.950 . S
H433 C444 0.950 . S
H434 C446 0.950 . S
H435 C447 0.950 . S
C436 H428 0.950 . S
C436 C437 1.386 . S
C436 C438 1.391 . S
C437 C436 1.386 . S
C437 C441 1.393 . S
C438 H430 0.950 . S
C438 C436 1.391 . S
C438 C439 1.400 . S
C439 C438 1.400 . S
C439 C440 1.398 . S
C439 C445 1.491 . S
C440 H431 0.950 . S
C440 C439 1.398 . S
C440 C441 1.391 . S
C441 H429 0.950 . S
C441 C437 1.393 . S
C441 C440 1.391 . S
C442 H432 0.950 . S
C442 C443 1.386 . S
C442 C444 1.391 . S
C443 C442 1.386 . S
C443 C447 1.393 . S
C444 H433 0.950 . S
C444 C442 1.391 . S
C444 C445 1.400 . S
C445 C439 1.491 . S
C445 C444 1.400 . S
C445 C446 1.398 . S
C446 H434 0.950 . S
C446 C445 1.398 . S
C446 C447 1.391 . S
C447 H435 0.950 . S
C447 C443 1.393 . S
C447 C446 1.391 . S
H448 C456 0.950 . S
H449 C461 0.950 . S
H450 C458 0.950 . S
H451 C460 0.950 . S
H452 C462 0.950 . S
H453 C464 0.950 . S
H454 C466 0.950 . S
H455 C467 0.950 . S
C456 H448 0.950 . S
C456 C457 1.386 . S
C456 C458 1.391 . S
C457 C456 1.386 . S
C457 C461 1.393 . S
C458 H450 0.950 . S
C458 C456 1.391 . S
C458 C459 1.400 . S
C459 C458 1.400 . S
C459 C460 1.398 . S
C459 C465 1.491 . S
C460 H451 0.950 . S
C460 C459 1.398 . S
C460 C461 1.391 . S
C461 H449 0.950 . S
C461 C457 1.393 . S
C461 C460 1.391 . S
C462 H452 0.950 . S
C462 C463 1.386 . S
C462 C464 1.391 . S
C463 C462 1.386 . S
C463 C467 1.393 . S
C464 H453 0.950 . S
C464 C462 1.391 . S
C464 C465 1.400 . S
C465 C459 1.491 . S
C465 C464 1.400 . S
C465 C466 1.398 . S
C466 H454 0.950 . S
C466 C465 1.398 . S
C466 C467 1.391 . S
C467 H455 0.950 . S
C467 C463 1.393 . S
C467 C466 1.391 . S
H468 C476 0.950 . S
H469 C481 0.950 . S
H470 C478 0.950 . S
H471 C480 0.950 . S
H472 C482 0.950 . S
H473 C484 0.950 . S
H474 C486 0.950 . S
H475 C487 0.950 . S
C476 H468 0.950 . S
C476 C477 1.386 . S
C476 C478 1.391 . S
C477 C476 1.386 . S
C477 C481 1.393 . S
C478 H470 0.950 . S
C478 C476 1.391 . S
C478 C479 1.400 . S
C479 C478 1.400 . S
C479 C480 1.398 . S
C479 C485 1.491 . S
C480 H471 0.950 . S
C480 C479 1.398 . S
C480 C481 1.391 . S
C481 H469 0.950 . S
C481 C477 1.393 . S
C481 C480 1.391 . S
C482 H472 0.950 . S
C482 C483 1.386 . S
C482 C484 1.391 . S
C483 C482 1.386 . S
C483 C487 1.393 . S
C484 H473 0.950 . S
C484 C482 1.391 . S
C484 C485 1.400 . S
C485 C479 1.491 . S
C485 C484 1.400 . S
C485 C486 1.398 . S
C486 H474 0.950 . S
C486 C485 1.398 . S
C486 C487 1.391 . S
C487 H475 0.950 . S
C487 C483 1.393 . S
C487 C486 1.391 . S
H488 C496 0.950 . S
H489 C501 0.950 . S
H490 C498 0.950 . S
H491 C500 0.950 . S
H492 C502 0.950 . S
H493 C504 0.950 . S
H494 C506 0.950 . S
H495 C507 0.950 . S
C496 H488 0.950 . S
C496 C497 1.386 . S
C496 C498 1.391 . S
C497 C496 1.386 . S
C497 C501 1.393 . S
C498 H490 0.950 . S
C498 C496 1.391 . S
C498 C499 1.400 . S
C499 C498 1.400 . S
C499 C500 1.398 . S
C499 C505 1.491 . S
C500 H491 0.950 . S
C500 C499 1.398 . S
C500 C501 1.391 . S
C501 H489 0.950 . S
C501 C497 1.393 . S
C501 C500 1.391 . S
C502 H492 0.950 . S
C502 C503 1.386 . S
C502 C504 1.391 . S
C503 C502 1.386 . S
C503 C507 1.393 . S
C504 H493 0.950 . S
C504 C502 1.391 . S
C504 C505 1.400 . S
C505 C499 1.491 . S
C505 C504 1.400 . S
C505 C506 1.398 . S
C506 H494 0.950 . S
C506 C505 1.398 . S
C506 C507 1.391 . S
C507 H495 0.950 . S
C507 C503 1.393 . S
C507 C506 1.391 . S
H508 C516 0.950 . S
H509 C521 0.950 . S
H510 C518 0.950 . S
H511 C520 0.950 . S
H512 C522 0.950 . S
H513 C524 0.950 . S
H514 C526 0.950 . S
H515 C527 0.950 . S
C516 H508 0.950 . S
C516 C517 1.386 . S
C516 C518 1.391 . S
C517 C516 1.386 . S
C517 C521 1.393 . S
C518 H510 0.950 . S
C518 C516 1.391 . S
C518 C519 1.400 . S
C519 C518 1.400 . S
C519 C520 1.398 . S
C519 C525 1.491 . S
C520 H511 0.950 . S
C520 C519 1.398 . S
C520 C521 1.391 . S
C521 H509 0.950 . S
C521 C517 1.393 . S
C521 C520 1.391 . S
C522 H512 0.950 . S
C522 C523 1.386 . S
C522 C524 1.391 . S
C523 C522 1.386 . S
C523 C527 1.393 . S
C524 H513 0.950 . S
C524 C522 1.391 . S
C524 C525 1.400 . S
C525 C519 1.491 . S
C525 C524 1.400 . S
C525 C526 1.398 . S
C526 H514 0.950 . S
C526 C525 1.398 . S
C526 C527 1.391 . S
C527 H515 0.950 . S
C527 C523 1.393 . S
C527 C526 1.391 . S
H528 C536 0.950 . S
H529 C541 0.950 . S
H530 C538 0.950 . S
H531 C540 0.950 . S
H532 C542 0.950 . S
H533 C544 0.950 . S
H534 C546 0.950 . S
H535 C547 0.950 . S
C536 H528 0.950 . S
C536 C537 1.386 . S
C536 C538 1.391 . S
C537 C536 1.386 . S
C537 C541 1.393 . S
C538 H530 0.950 . S
C538 C536 1.391 . S
C538 C539 1.400 . S
C539 C538 1.400 . S
C539 C540 1.398 . S
C539 C545 1.491 . S
C540 H531 0.950 . S
C540 C539 1.398 . S
C540 C541 1.391 . S
C541 H529 0.950 . S
C541 C537 1.393 . S
C541 C540 1.391 . S
C542 H532 0.950 . S
C542 C543 1.386 . S
C542 C544 1.391 . S
C543 C542 1.386 . S
C543 C547 1.393 . S
C544 H533 0.950 . S
C544 C542 1.391 . S
C544 C545 1.400 . S
C545 C539 1.491 . S
C545 C544 1.400 . S
C545 C546 1.398 . S
C546 H534 0.950 . S
C546 C545 1.398 . S
C546 C547 1.391 . S
C547 H535 0.950 . S
C547 C543 1.393 . S
C547 C546 1.391 . S
H548 C556 0.950 . S
H549 C561 0.950 . S
H550 C558 0.950 . S
H551 C560 0.950 . S
H552 C562 0.950 . S
H553 C564 0.950 . S
H554 C566 0.950 . S
H555 C567 0.950 . S
C556 H548 0.950 . S
C556 C557 1.386 . S
C556 C558 1.391 . S
C557 C556 1.386 . S
C557 C561 1.393 . S
C558 H550 0.950 . S
C558 C556 1.391 . S
C558 C559 1.400 . S
C559 C558 1.400 . S
C559 C560 1.398 . S
C559 C565 1.491 . S
C560 H551 0.950 . S
C560 C559 1.398 . S
C560 C561 1.391 . S
C561 H549 0.950 . S
C561 C557 1.393 . S
C561 C560 1.391 . S
C562 H552 0.950 . S
C562 C563 1.386 . S
C562 C564 1.391 . S
C563 C562 1.386 . S
C563 C567 1.393 . S
C564 H553 0.950 . S
C564 C562 1.391 . S
C564 C565 1.400 . S
C565 C559 1.491 . S
C565 C564 1.400 . S
C565 C566 1.398 . S
C566 H554 0.950 . S
C566 C565 1.398 . S
C566 C567 1.391 . S
C567 H555 0.950 . S
C567 C563 1.393 . S
C567 C566 1.391 . S
H568 C576 0.950 . S
H569 C581 0.950 . S
H570 C578 0.950 . S
H571 C580 0.950 . S
H572 C582 0.950 . S
H573 C584 0.950 . S
H574 C586 0.950 . S
H575 C587 0.950 . S
C576 H568 0.950 . S
C576 C577 1.386 . S
C576 C578 1.391 . S
C577 C576 1.386 . S
C577 C581 1.393 . S
C578 H570 0.950 . S
C578 C576 1.391 . S
C578 C579 1.400 . S
C579 C578 1.400 . S
C579 C580 1.398 . S
C579 C585 1.491 . S
C580 H571 0.950 . S
C580 C579 1.398 . S
C580 C581 1.391 . S
C581 H569 0.950 . S
C581 C577 1.393 . S
C581 C580 1.391 . S
C582 H572 0.950 . S
C582 C583 1.386 . S
C582 C584 1.391 . S
C583 C582 1.386 . S
C583 C587 1.393 . S
C584 H573 0.950 . S
C584 C582 1.391 . S
C584 C585 1.400 . S
C585 C579 1.491 . S
C585 C584 1.400 . S
C585 C586 1.398 . S
C586 H574 0.950 . S
C586 C585 1.398 . S
C586 C587 1.391 . S
C587 H575 0.950 . S
C587 C583 1.393 . S
C587 C586 1.391 . S
H588 C596 0.950 . S
H589 C601 0.950 . S
H590 C598 0.950 . S
H591 C600 0.950 . S
H592 C602 0.950 . S
H593 C604 0.950 . S
H594 C606 0.950 . S
H595 C607 0.950 . S
C596 H588 0.950 . S
C596 C597 1.386 . S
C596 C598 1.391 . S
C597 C596 1.386 . S
C597 C601 1.393 . S
C598 H590 0.950 . S
C598 C596 1.391 . S
C598 C599 1.400 . S
C599 C598 1.400 . S
C599 C600 1.398 . S
C599 C605 1.491 . S
C600 H591 0.950 . S
C600 C599 1.398 . S
C600 C601 1.391 . S
C601 H589 0.950 . S
C601 C597 1.393 . S
C601 C600 1.391 . S
C602 H592 0.950 . S
C602 C603 1.386 . S
C602 C604 1.391 . S
C603 C602 1.386 . S
C603 C607 1.393 . S
C604 H593 0.950 . S
C604 C602 1.391 . S
C604 C605 1.400 . S
C605 C599 1.491 . S
C605 C604 1.400 . S
C605 C606 1.398 . S
C606 H594 0.950 . S
C606 C605 1.398 . S
C606 C607 1.391 . S
C607 H595 0.950 . S
C607 C603 1.393 . S
C607 C606 1.391 . S
H608 C616 0.950 . S
H609 C621 0.950 . S
H610 C618 0.950 . S
H611 C620 0.950 . S
H612 C622 0.950 . S
H613 C624 0.950 . S
H614 C626 0.950 . S
H615 C627 0.950 . S
C616 H608 0.950 . S
C616 C617 1.386 . S
C616 C618 1.391 . S
C617 C616 1.386 . S
C617 C621 1.393 . S
C618 H610 0.950 . S
C618 C616 1.391 . S
C618 C619 1.400 . S
C619 C618 1.400 . S
C619 C620 1.398 . S
C619 C625 1.491 . S
C620 H611 0.950 . S
C620 C619 1.398 . S
C620 C621 1.391 . S
C621 H609 0.950 . S
C621 C617 1.393 . S
C621 C620 1.391 . S
C622 H612 0.950 . S
C622 C623 1.386 . S
C622 C624 1.391 . S
C623 C622 1.386 . S
C623 C627 1.393 . S
C624 H613 0.950 . S
C624 C622 1.391 . S
C624 C625 1.400 . S
C625 C619 1.491 . S
C625 C624 1.400 . S
C625 C626 1.398 . S
C626 H614 0.950 . S
C626 C625 1.398 . S
C626 C627 1.391 . S
C627 H615 0.950 . S
C627 C623 1.393 . S
C627 C626 1.391 . S
H628 C636 0.950 . S
H629 C641 0.950 . S
H630 C638 0.950 . S
H631 C640 0.950 . S
H632 C642 0.950 . S
H633 C644 0.950 . S
H634 C646 0.950 . S
H635 C647 0.950 . S
C636 H628 0.950 . S
C636 C637 1.386 . S
C636 C638 1.391 . S
C637 C636 1.386 . S
C637 C641 1.393 . S
C638 H630 0.950 . S
C638 C636 1.391 . S
C638 C639 1.400 . S
C639 C638 1.400 . S
C639 C640 1.398 . S
C639 C645 1.491 . S
C640 H631 0.950 . S
C640 C639 1.398 . S
C640 C641 1.391 . S
C641 H629 0.950 . S
C641 C637 1.393 . S
C641 C640 1.391 . S
C642 H632 0.950 . S
C642 C643 1.386 . S
C642 C644 1.391 . S
C643 C642 1.386 . S
C643 C647 1.393 . S
C644 H633 0.950 . S
C644 C642 1.391 . S
C644 C645 1.400 . S
C645 C639 1.491 . S
C645 C644 1.400 . S
C645 C646 1.398 . S
C646 H634 0.950 . S
C646 C645 1.398 . S
C646 C647 1.391 . S
C647 H635 0.950 . S
C647 C643 1.393 . S
C647 C646 1.391 . S
H648 C656 0.950 . S
H649 C661 0.950 . S
H650 C658 0.950 . S
H651 C660 0.950 . S
H652 C662 0.950 . S
H653 C664 0.950 . S
H654 C666 0.950 . S
H655 C667 0.950 . S
C656 H648 0.950 . S
C656 C657 1.386 . S
C656 C658 1.391 . S
C657 C656 1.386 . S
C657 C661 1.393 . S
C658 H650 0.950 . S
C658 C656 1.391 . S
C658 C659 1.400 . S
C659 C658 1.400 . S
C659 C660 1.398 . S
C659 C665 1.491 . S
C660 H651 0.950 . S
C660 C659 1.398 . S
C660 C661 1.391 . S
C661 H649 0.950 . S
C661 C657 1.393 . S
C661 C660 1.391 . S
C662 H652 0.950 . S
C662 C663 1.386 . S
C662 C664 1.391 . S
C663 C662 1.386 . S
C663 C667 1.393 . S
C664 H653 0.950 . S
C664 C662 1.391 . S
C664 C665 1.400 . S
C665 C659 1.491 . S
C665 C664 1.400 . S
C665 C666 1.398 . S
C666 H654 0.950 . S
C666 C665 1.398 . S
C666 C667 1.391 . S
C667 H655 0.950 . S
C667 C663 1.393 . S
C667 C666 1.391 . S
H668 C676 0.950 . S
H669 C681 0.950 . S
H670 C678 0.950 . S
H671 C680 0.950 . S
H672 C682 0.950 . S
H673 C684 0.950 . S
H674 C686 0.950 . S
H675 C687 0.950 . S
C676 H668 0.950 . S
C676 C677 1.386 . S
C676 C678 1.391 . S
C677 C676 1.386 . S
C677 C681 1.393 . S
C678 H670 0.950 . S
C678 C676 1.391 . S
C678 C679 1.400 . S
C679 C678 1.400 . S
C679 C680 1.398 . S
C679 C685 1.491 . S
C680 H671 0.950 . S
C680 C679 1.398 . S
C680 C681 1.391 . S
C681 H669 0.950 . S
C681 C677 1.393 . S
C681 C680 1.391 . S
C682 H672 0.950 . S
C682 C683 1.386 . S
C682 C684 1.391 . S
C683 C682 1.386 . S
C683 C687 1.393 . S
C684 H673 0.950 . S
C684 C682 1.391 . S
C684 C685 1.400 . S
C685 C679 1.491 . S
C685 C684 1.400 . S
C685 C686 1.398 . S
C686 H674 0.950 . S
C686 C685 1.398 . S
C686 C687 1.391 . S
C687 H675 0.950 . S
C687 C683 1.393 . S
C687 C686 1.391 . S
H688 C696 0.950 . S
H689 C701 0.950 . S
H690 C698 0.950 . S
H691 C700 0.950 . S
H692 C702 0.950 . S
H693 C704 0.950 . S
H694 C706 0.950 . S
H695 C707 0.950 . S
C696 H688 0.950 . S
C696 C697 1.386 . S
C696 C698 1.391 . S
C697 C696 1.386 . S
C697 C701 1.393 . S
C698 H690 0.950 . S
C698 C696 1.391 . S
C698 C699 1.400 . S
C699 C698 1.400 . S
C699 C700 1.398 1_655 S
C699 C705 1.491 1_665 S
C700 H691 0.950 . S
C700 C699 1.398 1_455 S
C700 C701 1.391 1_455 S
C701 H689 0.950 . S
C701 C697 1.393 . S
C701 C700 1.391 1_655 S
C702 H692 0.950 . S
C702 C703 1.386 . S
C702 C704 1.391 . S
C703 C702 1.386 . S
C703 C707 1.393 . S
C704 H693 0.950 . S
C704 C702 1.391 . S
C704 C705 1.400 . S
C705 C699 1.491 1_445 S
C705 C704 1.400 . S
C705 C706 1.398 1_455 S
C706 H694 0.950 . S
C706 C705 1.398 1_655 S
C706 C707 1.391 1_655 S
C707 H695 0.950 . S
C707 C703 1.393 . S
C707 C706 1.391 1_455 S
H708 C716 0.950 1_565 S
H709 C721 0.950 . S
H710 C718 0.950 . S
H711 C720 0.950 . S
H712 C722 0.950 1_545 S
H713 C724 0.950 . S
H714 C726 0.950 . S
H715 C727 0.950 . S
C716 H708 0.950 1_545 S
C716 C717 1.386 . S
C716 C718 1.391 1_545 S
C717 C716 1.386 . S
C717 C721 1.393 . S
C718 H710 0.950 . S
C718 C716 1.391 1_565 S
C718 C719 1.400 1_565 S
C719 C718 1.400 1_545 S
C719 C720 1.398 . S
C719 C725 1.491 1_645 S
C720 H711 0.950 . S
C720 C719 1.398 . S
C720 C721 1.391 . S
C721 H709 0.950 . S
C721 C717 1.393 . S
C721 C720 1.391 . S
C722 H712 0.950 1_565 S
C722 C723 1.386 . S
C722 C724 1.391 1_565 S
C723 C722 1.386 . S
C723 C727 1.393 . S
C724 H713 0.950 . S
C724 C722 1.391 1_545 S
C724 C725 1.400 1_545 S
C725 C719 1.491 1_465 S
C725 C724 1.400 1_565 S
C725 C726 1.398 . S
C726 H714 0.950 . S
C726 C725 1.398 . S
C726 C727 1.391 . S
C727 H715 0.950 . S
C727 C723 1.393 . S
C727 C726 1.391 . S
H728 C736 0.950 . S
H729 C741 0.950 . S
H730 C738 0.950 . S
H731 C740 0.950 1_655 S
H732 C742 0.950 . S
H733 C744 0.950 . S
H734 C746 0.950 1_455 S
H735 C747 0.950 . S
C736 H728 0.950 . S
C736 C737 1.386 . S
C736 C738 1.391 . S
C737 C736 1.386 . S
C737 C741 1.393 . S
C738 H730 0.950 . S
C738 C736 1.391 . S
C738 C739 1.400 . S
C739 C738 1.400 . S
C739 C740 1.398 . S
C739 C745 1.491 1_455 S
C740 H731 0.950 1_455 S
C740 C739 1.398 . S
C740 C741 1.391 . S
C741 H729 0.950 . S
C741 C737 1.393 . S
C741 C740 1.391 . S
C742 H732 0.950 . S
C742 C743 1.386 . S
C742 C744 1.391 . S
C743 C742 1.386 . S
C743 C747 1.393 . S
C744 H733 0.950 . S
C744 C742 1.391 . S
C744 C745 1.400 . S
C745 C739 1.491 1_655 S
C745 C744 1.400 . S
C745 C746 1.398 . S
C746 H734 0.950 1_655 S
C746 C745 1.398 . S
C746 C747 1.391 . S
C747 H735 0.950 . S
C747 C743 1.393 . S
C747 C746 1.391 . S
H748 C756 0.950 . S
H749 C761 0.950 . S
H750 C758 0.950 . S
H751 C760 0.950 1_545 S
H752 C762 0.950 . S
H753 C764 0.950 . S
H754 C766 0.950 1_565 S
H755 C767 0.950 . S
C756 H748 0.950 . S
C756 C757 1.386 . S
C756 C758 1.391 . S
C757 C756 1.386 . S
C757 C761 1.393 . S
C758 H750 0.950 . S
C758 C756 1.391 . S
C758 C759 1.400 . S
C759 C758 1.400 . S
C759 C760 1.398 . S
C759 C765 1.491 1_565 S
C760 H751 0.950 1_565 S
C760 C759 1.398 . S
C760 C761 1.391 . S
C761 H749 0.950 . S
C761 C757 1.393 . S
C761 C760 1.391 . S
C762 H752 0.950 . S
C762 C763 1.386 . S
C762 C764 1.391 . S
C763 C762 1.386 . S
C763 C767 1.393 . S
C764 H753 0.950 . S
C764 C762 1.391 . S
C764 C765 1.400 . S
C765 C759 1.491 1_545 S
C765 C764 1.400 . S
C765 C766 1.398 . S
C766 H754 0.950 1_545 S
C766 C765 1.398 . S
C766 C767 1.391 . S
C767 H755 0.950 . S
C767 C763 1.393 . S
C767 C766 1.391 . S
H768 C776 0.950 . S
H769 C781 0.950 . S
H770 C778 0.950 . S
H771 C780 0.950 . S
H772 C782 0.950 . S
H773 C784 0.950 . S
H774 C786 0.950 . S
H775 C787 0.950 . S
C776 H768 0.950 . S
C776 C777 1.386 . S
C776 C778 1.391 . S
C777 C776 1.386 . S
C777 C781 1.393 . S
C778 H770 0.950 . S
C778 C776 1.391 . S
C778 C779 1.400 . S
C779 C778 1.400 . S
C779 C780 1.398 . S
C779 C785 1.491 . S
C780 H771 0.950 . S
C780 C779 1.398 . S
C780 C781 1.391 . S
C781 H769 0.950 . S
C781 C777 1.393 . S
C781 C780 1.391 . S
C782 H772 0.950 . S
C782 C783 1.386 . S
C782 C784 1.391 . S
C783 C782 1.386 . S
C783 C787 1.393 . S
C784 H773 0.950 . S
C784 C782 1.391 . S
C784 C785 1.400 . S
C785 C779 1.491 . S
C785 C784 1.400 . S
C785 C786 1.398 . S
C786 H774 0.950 . S
C786 C785 1.398 . S
C786 C787 1.391 . S
C787 H775 0.950 . S
C787 C783 1.393 . S
C787 C786 1.391 . S
H788 C796 0.950 . S
H789 C801 0.950 . S
H790 C798 0.950 . S
H791 C800 0.950 . S
H792 C802 0.950 . S
H793 C804 0.950 . S
H794 C806 0.950 . S
H795 C807 0.950 . S
C796 H788 0.950 . S
C796 C797 1.386 . S
C796 C798 1.391 . S
C797 C796 1.386 . S
C797 C801 1.393 . S
C798 H790 0.950 . S
C798 C796 1.391 . S
C798 C799 1.400 . S
C799 C798 1.400 . S
C799 C800 1.398 . S
C799 C805 1.491 . S
C800 H791 0.950 . S
C800 C799 1.398 . S
C800 C801 1.391 . S
C801 H789 0.950 . S
C801 C797 1.393 . S
C801 C800 1.391 . S
C802 H792 0.950 . S
C802 C803 1.386 . S
C802 C804 1.391 . S
C803 C802 1.386 . S
C803 C807 1.393 . S
C804 H793 0.950 . S
C804 C802 1.391 . S
C804 C805 1.400 . S
C805 C799 1.491 . S
C805 C804 1.400 . S
C805 C806 1.398 . S
C806 H794 0.950 . S
C806 C805 1.398 . S
C806 C807 1.391 . S
C807 H795 0.950 . S
C807 C803 1.393 . S
C807 C806 1.391 . S
H808 C816 0.950 . S
H809 C821 0.950 . S
H810 C818 0.950 . S
H811 C820 0.950 . S
H812 C822 0.950 . S
H813 C824 0.950 . S
H814 C826 0.950 . S
H815 C827 0.950 . S
C816 H808 0.950 . S
C816 C817 1.386 . S
C816 C818 1.391 . S
C817 C816 1.386 . S
C817 C821 1.393 . S
C818 H810 0.950 . S
C818 C816 1.391 . S
C818 C819 1.400 . S
C819 C818 1.400 . S
C819 C820 1.398 . S
C819 C825 1.491 1_545 S
C820 H811 0.950 . S
C820 C819 1.398 . S
C820 C821 1.391 . S
C821 H809 0.950 . S
C821 C817 1.393 . S
C821 C820 1.391 . S
C822 H812 0.950 . S
C822 C823 1.386 . S
C822 C824 1.391 . S
C823 C822 1.386 . S
C823 C827 1.393 . S
C824 H813 0.950 . S
C824 C822 1.391 . S
C824 C825 1.400 . S
C825 C819 1.491 1_565 S
C825 C824 1.400 . S
C825 C826 1.398 . S
C826 H814 0.950 . S
C826 C825 1.398 . S
C826 C827 1.391 . S
C827 H815 0.950 . S
C827 C823 1.393 . S
C827 C826 1.391 . S
H828 C836 0.950 . S
H829 C841 0.950 . S
H830 C838 0.950 . S
H831 C840 0.950 . S
H832 C842 0.950 . S
H833 C844 0.950 . S
H834 C846 0.950 . S
H835 C847 0.950 . S
C836 H828 0.950 . S
C836 C837 1.386 . S
C836 C838 1.391 . S
C837 C836 1.386 . S
C837 C841 1.393 . S
C838 H830 0.950 . S
C838 C836 1.391 . S
C838 C839 1.400 . S
C839 C838 1.400 . S
C839 C840 1.398 . S
C839 C845 1.491 1_655 S
C840 H831 0.950 . S
C840 C839 1.398 . S
C840 C841 1.391 . S
C841 H829 0.950 . S
C841 C837 1.393 . S
C841 C840 1.391 . S
C842 H832 0.950 . S
C842 C843 1.386 . S
C842 C844 1.391 . S
C843 C842 1.386 . S
C843 C847 1.393 . S
C844 H833 0.950 . S
C844 C842 1.391 . S
C844 C845 1.400 . S
C845 C839 1.491 1_455 S
C845 C844 1.400 . S
C845 C846 1.398 . S
C846 H834 0.950 . S
C846 C845 1.398 . S
C846 C847 1.391 . S
C847 H835 0.950 . S
C847 C843 1.393 . S
C847 C846 1.391 . S
C217 C5 1.690 . S
C223 C144 1.687 . S
C237 C105 1.648 . S
C243 C18 1.661 . S
C257 C118 1.688 . S
C263 C31 1.691 . S
C277 C131 1.641 . S
C283 C44 1.651 . S
C297 C66 1.684 1_545 S
C303 C57 1.692 . S
C317 C70 1.659 . S
C323 C79 1.649 1_455 S
C337 C83 1.690 . S
C343 C92 1.685 1_565 S
C357 C96 1.666 . S
C363 C53 1.631 1_655 S
C377 C109 1.691 . S
C383 C40 1.689 1_565 S
C397 C1 1.630 1_655 S
C403 C122 1.665 . S
C417 C14 1.691 1_545 S
C423 C135 1.693 . S
C437 C27 1.635 1_455 S
C443 C148 1.667 . S
C457 C170 1.684 . S
C463 C161 1.691 . S
C477 C174 1.667 . S
C483 C183 1.632 . S
C497 C196 1.686 . S
C503 C187 1.693 . S
C517 C157 1.651 . S
C523 C200 1.653 . S
C537 C185 1.815 . S
C543 C3 1.800 . S
C557 C198 1.896 . S
C563 C16 1.894 . S
C577 C159 1.794 . S
C583 C29 1.798 . S
C597 C42 1.899 . S
C603 C172 1.900 . S
C617 C55 1.818 . S
C623 C133 1.807 . S
C637 C146 1.897 . S
C643 C68 1.901 . S
C657 C81 1.810 . S
C663 C107 1.819 . S
C677 C94 1.897 . S
C683 C120 1.894 . S
C697 C36 1.600 . S
C703 C10 1.596 . S
C717 C49 1.578 . S
C723 C23 1.560 . S
C737 C62 1.600 . S
C743 C88 1.598 . S
C757 C75 1.562 . S
C763 C101 1.573 . S
C777 C140 1.593 . S
C783 C114 1.598 . S
C797 C127 1.560 . S
C803 C153 1.578 . S
C817 C192 1.596 . S
C823 C166 1.592 . S
C837 C179 1.570 . S
C843 C205 1.573 . S
