# Generated by pormake.
# Topology wnm, (7)-cn, num edge types: 1
# Building blocks:
#     Node 0, Type 0, BuildingBlock: OLANEW_clean_sbu_0, # of connection points: 7
#     Node 1, Type 0, BuildingBlock: OLANEW_clean_sbu_0, # of connection points: 7
#     Node 2, Type 0, BuildingBlock: OLANEW_clean_sbu_0, # of connection points: 7
#     Node 3, Type 0, BuildingBlock: OLANEW_clean_sbu_0, # of connection points: 7
#     Node 4, Type 0, BuildingBlock: OLANEW_clean_sbu_0, # of connection points: 7
#     Node 5, Type 0, BuildingBlock: OLANEW_clean_sbu_0, # of connection points: 7
#     Node 6, Type 0, BuildingBlock: OLANEW_clean_sbu_0, # of connection points: 7
#     Node 7, Type 0, BuildingBlock: OLANEW_clean_sbu_0, # of connection points: 7
#     Node 8, Type 0, BuildingBlock: OLANEW_clean_sbu_0, # of connection points: 7
#     Node 9, Type 0, BuildingBlock: OLANEW_clean_sbu_0, # of connection points: 7
#     Node 10, Type 0, BuildingBlock: OLANEW_clean_sbu_0, # of connection points: 7
#     Node 11, Type 0, BuildingBlock: OLANEW_clean_sbu_0, # of connection points: 7
#     Node 12, Type 0, BuildingBlock: OLANEW_clean_sbu_0, # of connection points: 7
#     Node 13, Type 0, BuildingBlock: OLANEW_clean_sbu_0, # of connection points: 7
#     Node 14, Type 0, BuildingBlock: OLANEW_clean_sbu_0, # of connection points: 7
#     Node 15, Type 0, BuildingBlock: OLANEW_clean_sbu_0, # of connection points: 7
#     Node 16, Type 0, BuildingBlock: OLANEW_clean_sbu_0, # of connection points: 7
#     Node 17, Type 0, BuildingBlock: OLANEW_clean_sbu_0, # of connection points: 7
#     Edge 18, Type (0, 0), None
#     Edge 19, Type (0, 0), None
#     Edge 20, Type (0, 0), None
#     Edge 21, Type (0, 0), None
#     Edge 22, Type (0, 0), None
#     Edge 23, Type (0, 0), None
#     Edge 24, Type (0, 0), None
#     Edge 25, Type (0, 0), None
#     Edge 26, Type (0, 0), None
#     Edge 27, Type (0, 0), None
#     Edge 28, Type (0, 0), None
#     Edge 29, Type (0, 0), None
#     Edge 30, Type (0, 0), None
#     Edge 31, Type (0, 0), None
#     Edge 32, Type (0, 0), None
#     Edge 33, Type (0, 0), None
#     Edge 34, Type (0, 0), None
#     Edge 35, Type (0, 0), None
#     Edge 36, Type (0, 0), None
#     Edge 37, Type (0, 0), None
#     Edge 38, Type (0, 0), None
#     Edge 39, Type (0, 0), None
#     Edge 40, Type (0, 0), None
#     Edge 41, Type (0, 0), None
#     Edge 42, Type (0, 0), None
#     Edge 43, Type (0, 0), None
#     Edge 44, Type (0, 0), None
#     Edge 45, Type (0, 0), None
#     Edge 46, Type (0, 0), None
#     Edge 47, Type (0, 0), None
#     Edge 48, Type (0, 0), None
#     Edge 49, Type (0, 0), None
#     Edge 50, Type (0, 0), None
#     Edge 51, Type (0, 0), None
#     Edge 52, Type (0, 0), None
#     Edge 53, Type (0, 0), None
#     Edge 54, Type (0, 0), None
#     Edge 55, Type (0, 0), None
#     Edge 56, Type (0, 0), None
#     Edge 57, Type (0, 0), None
#     Edge 58, Type (0, 0), None
#     Edge 59, Type (0, 0), None
#     Edge 60, Type (0, 0), None
#     Edge 61, Type (0, 0), None
#     Edge 62, Type (0, 0), None
#     Edge 63, Type (0, 0), None
#     Edge 64, Type (0, 0), None
#     Edge 65, Type (0, 0), None
#     Edge 66, Type (0, 0), None
#     Edge 67, Type (0, 0), None
#     Edge 68, Type (0, 0), None
#     Edge 69, Type (0, 0), None
#     Edge 70, Type (0, 0), None
#     Edge 71, Type (0, 0), None
#     Edge 72, Type (0, 0), None
#     Edge 73, Type (0, 0), None
#     Edge 74, Type (0, 0), None
#     Edge 75, Type (0, 0), None
#     Edge 76, Type (0, 0), None
#     Edge 77, Type (0, 0), None
#     Edge 78, Type (0, 0), None
#     Edge 79, Type (0, 0), None
#     Edge 80, Type (0, 0), None
# Relax obj value: 0.260
# Max RMSD: 0.298
# Mean RMSD: 0.298
data_MOF--net-wnm--node1-OLANEW_clean_sbu_0--edge1-none
_symmetry_space_group_name_H-M    P1
_symmetry_Int_Tables_number       1
_symmetry_cell_setting            triclinic
loop_
_symmetry_equiv_pos_as_xyz
'x, y, z'
_cell_length_a     60.726657
_cell_length_b     60.726292
_cell_length_c     10.879277
_cell_angle_alpha  89.994004
_cell_angle_beta   90.006728
_cell_angle_gamma 120.00241
loop_
_atom_site_label
_atom_site_type_symbol
_atom_site_fract_x
_atom_site_fract_y
_atom_site_fract_z
_atom_type_partial_charge
Cd0 Cd 0.13598 0.35962 0.17719 0.0
C1 C 0.20662 0.38831 0.12163 0.0
C2 C 0.08205 0.45232 0.3745 0.0
O3 O 0.08097 0.46186 0.48141 0.0
Cd4 Cd 0.16043 0.3512 0.02057 0.0
C5 C 0.05923 0.4375 0.29913 0.0
C6 C 0.02316 0.41309 0.1153 0.0
C7 C 0.04764 0.41661 0.10555 0.0
N8 N 0.06375 0.42782 0.19859 0.0
C9 C 0.03492 0.43417 0.31631 0.0
C10 C 0.0167 0.42164 0.2229 0.0
Co11 Co 0.09738 0.43914 0.16535 0.0
C12 C 0.0601 0.41338 0.99623 0.0
O13 O 0.04801 0.40401 0.89279 0.0
C14 C 0.10044 0.41916 0.91537 0.0
C15 C 0.1052 0.39952 0.93604 0.0
C16 C 0.12308 0.39682 0.86721 0.0
C17 C 0.13411 0.41248 0.76384 0.0
C18 C 0.12668 0.43041 0.73107 0.0
C19 C 0.11043 0.43425 0.8102 0.0
C20 C 0.1308 0.37907 0.91717 0.0
C21 C 0.12346 0.45613 0.41652 0.0
C22 C 0.11649 0.44298 0.52969 0.0
C23 C 0.14938 0.47194 0.39105 0.0
C24 C 0.1678 0.47327 0.47281 0.0
C25 C 0.16067 0.45931 0.58229 0.0
C26 C 0.13487 0.44443 0.61285 0.0
N27 N 0.10402 0.45382 0.33159 0.0
N28 N 0.08578 0.42358 0.00489 0.0
N29 N 0.09685 0.40874 0.2281 0.0
C30 C 0.07522 0.38648 0.27559 0.0
C31 C 0.07375 0.38076 0.40067 0.0
C32 C 0.05704 0.36894 0.19497 0.0
C33 C 0.05373 0.3579 0.44666 0.0
H34 H 0.08884 0.39362 0.46088 0.0
C35 C 0.03556 0.34038 0.36403 0.0
C36 C 0.03753 0.34552 0.23721 0.0
C37 C 0.05314 0.35144 0.57868 0.0
H38 H 0.05854 0.37297 0.09799 0.0
H39 H 0.02112 0.3221 0.39764 0.0
C40 C 0.02066 0.32615 0.14607 0.0
O41 O 0.03649 0.32781 0.61915 0.0
O42 O 0.06809 0.36725 0.65114 0.0
O43 O 0.02814 0.32714 0.041 0.0
O44 O 0.99742 0.30693 0.17629 0.0
H45 H 0.03651 0.32278 0.70353 0.0
H46 H 0.99029 0.30495 0.25701 0.0
N47 N 0.13088 0.45051 0.13094 0.0
C48 C 0.1432 0.47268 0.07144 0.0
C49 C 0.16828 0.48122 0.03465 0.0
C50 C 0.17904 0.46577 0.06219 0.0
C51 C 0.16477 0.44229 0.12455 0.0
C52 C 0.13983 0.43492 0.15866 0.0
N53 N 0.10296 0.47118 0.09471 0.0
C54 C 0.12739 0.48466 0.05182 0.0
O55 O 0.13584 0.50624 0.99231 0.0
C56 C 0.12041 0.41081 0.21621 0.0
O57 O 0.1209 0.31295 0.11904 0.0
O58 O 0.10074 0.31998 0.26104 0.0
C59 C 0.08381 0.47823 0.07157 0.0
C60 C 0.06625 0.46702 0.97317 0.0
C61 C 0.04402 0.46878 0.97009 0.0
C62 C 0.04159 0.48468 0.05386 0.0
C63 C 0.06041 0.49893 0.14023 0.0
C64 C 0.08113 0.49485 0.15327 0.0
O65 O 0.18613 0.38421 0.17592 0.0
O66 O 0.20491 0.37735 0.02003 0.0
O67 O 0.11619 0.36286 0.99443 0.0
O68 O 0.15356 0.38381 0.91333 0.0
O69 O 0.12581 0.39309 0.26165 0.0
C70 C 0.15717 0.34219 0.36049 0.0
O71 O 0.16074 0.33803 0.24876 0.0
O72 O 0.14785 0.35632 0.3834 0.0
C73 C 0.10359 0.30373 0.20068 0.0
H74 H 0.00986 0.40507 0.0405 0.0
H75 H 0.03039 0.44171 0.39645 0.0
H76 H 0.99789 0.41928 0.23196 0.0
H77 H 0.09607 0.38728 0.0133 0.0
H78 H 0.14752 0.41017 0.7075 0.0
H79 H 0.10567 0.44887 0.79041 0.0
H80 H 0.09657 0.43118 0.55286 0.0
H81 H 0.15552 0.48364 0.3097 0.0
H82 H 0.17526 0.46073 0.64435 0.0
H83 H 0.17913 0.499 0.98583 0.0
H84 H 0.19835 0.47187 0.03412 0.0
H85 H 0.17282 0.43026 0.14326 0.0
H86 H 0.06908 0.45591 0.90426 0.0
H87 H 0.02418 0.48531 0.05407 0.0
H88 H 0.09468 0.50398 0.22708 0.0
Cd89 Cd 0.63563 0.77195 0.14313 0.0
C90 C 0.59933 0.80696 0.15847 0.0
C91 C 0.54118 0.62722 0.33223 0.0
O92 O 0.53082 0.61549 0.43604 0.0
Cd93 Cd 0.63382 0.8133 0.9381 0.0
C94 C 0.55682 0.6202 0.25698 0.0
C95 C 0.58364 0.61125 0.07508 0.0
C96 C 0.57996 0.63213 0.06912 0.0
N97 N 0.5675 0.63563 0.16102 0.0
C98 C 0.56022 0.59919 0.27022 0.0
C99 C 0.57395 0.59486 0.17784 0.0
Co100 Co 0.55645 0.65821 0.13118 0.0
C101 C 0.5844 0.64918 0.96389 0.0
O102 O 0.59446 0.64743 0.86039 0.0
C103 C 0.57715 0.68289 0.88353 0.0
C104 C 0.59591 0.70803 0.90102 0.0
C105 C 0.59829 0.72729 0.82211 0.0
C106 C 0.58235 0.72074 0.71848 0.0
C107 C 0.56466 0.69496 0.69299 0.0
C108 C 0.56197 0.67609 0.7774 0.0
C109 C 0.61589 0.75388 0.85927 0.0
C110 C 0.53709 0.66442 0.38162 0.0
C111 C 0.54967 0.66986 0.49661 0.0
C112 C 0.52198 0.67526 0.35518 0.0
C113 C 0.52118 0.69271 0.43629 0.0
C114 C 0.53514 0.69933 0.54567 0.0
C115 C 0.54936 0.68776 0.57771 0.0
N116 N 0.53996 0.64809 0.29348 0.0
N117 N 0.57401 0.66446 0.97472 0.0
N118 N 0.58598 0.68716 0.20482 0.0
C119 C 0.60773 0.6871 0.25432 0.0
C120 C 0.61136 0.68765 0.38159 0.0
C121 C 0.62669 0.68905 0.1753 0.0
C122 C 0.63294 0.68804 0.43047 0.0
H123 H 0.59815 0.68916 0.44181 0.0
C124 C 0.65104 0.68831 0.34952 0.0
C125 C 0.64862 0.69025 0.22252 0.0
C126 C 0.63808 0.69104 0.56439 0.0
H127 H 0.62482 0.69047 0.07726 0.0
H128 H 0.66833 0.68977 0.38542 0.0
C129 C 0.67021 0.69642 0.14063 0.0
O130 O 0.66166 0.69816 0.60619 0.0
O131 O 0.62146 0.68815 0.63691 0.0
O132 O 0.67561 0.71217 0.05922 0.0
O133 O 0.68461 0.6855 0.15632 0.0
H134 H 0.6666 0.70336 0.69035 0.0
H135 H 0.67999 0.67184 0.21423 0.0
N136 N 0.5454 0.68071 0.09974 0.0
C137 C 0.52396 0.67163 0.03475 0.0
C138 C 0.51592 0.68863 0.99905 0.0
C139 C 0.53116 0.71451 0.03308 0.0
C140 C 0.55395 0.72294 0.10054 0.0
C141 C 0.5608 0.7049 0.13323 0.0
N142 N 0.52534 0.63265 0.04951 0.0
C143 C 0.51223 0.64414 0.008 0.0
O144 O 0.49096 0.63164 0.94537 0.0
C145 C 0.58419 0.70878 0.19509 0.0
O146 O 0.68298 0.79306 0.124 0.0
O147 O 0.66586 0.76933 0.28284 0.0
C148 C 0.51692 0.60606 0.02729 0.0
C149 C 0.5283 0.5984 0.93561 0.0
C150 C 0.52031 0.57249 0.91781 0.0
C151 C 0.49874 0.55438 0.9807 0.0
C152 C 0.48844 0.56136 0.07874 0.0
C153 C 0.49752 0.58735 0.10072 0.0
O154 O 0.61066 0.79473 0.18892 0.0
O155 O 0.60031 0.81405 0.04796 0.0
O156 O 0.63385 0.75802 0.93196 0.0
O157 O 0.60925 0.77048 0.84866 0.0
O158 O 0.60186 0.73148 0.24332 0.0
C159 C 0.66506 0.83439 0.20813 0.0
O160 O 0.66751 0.83997 0.09404 0.0
O161 O 0.65095 0.81168 0.24341 0.0
C162 C 0.68617 0.78499 0.22655 0.0
H163 H 0.59249 0.60697 1.0 0.0
H164 H 0.55191 0.58614 0.3465 0.0
H165 H 0.57638 0.57841 0.18373 0.0
H166 H 0.60802 0.71271 0.98077 0.0
H167 H 0.58414 0.73553 0.65649 0.0
H168 H 0.54795 0.65631 0.76173 0.0
H169 H 0.56058 0.66088 0.52145 0.0
H170 H 0.51062 0.67018 0.27273 0.0
H171 H 0.53441 0.71312 0.60613 0.0
H172 H 0.49872 0.6823 0.94598 0.0
H173 H 0.52546 0.72808 0.00596 0.0
H174 H 0.56587 0.7428 0.12416 0.0
H175 H 0.54341 0.61229 0.87906 0.0
H176 H 0.49232 0.53456 0.96456 0.0
H177 H 0.49013 0.59311 0.17729 0.0
Cd178 Cd 0.22567 0.86563 0.17265 0.0
C179 C 0.18261 0.79501 0.11485 0.0
C180 C 0.37209 0.91463 0.35988 0.0
O181 O 0.38271 0.91508 0.46597 0.0
Cd182 Cd 0.19247 0.84169 0.01825 0.0
C183 C 0.38097 0.93768 0.28506 0.0
C184 C 0.393 0.97471 0.1055 0.0
C185 C 0.37171 0.95046 0.09452 0.0
N186 N 0.3666 0.93396 0.18594 0.0
C187 C 0.40254 0.96159 0.30253 0.0
C188 C 0.40841 0.98029 0.21137 0.0
Co189 Co 0.3428 0.9008 0.15309 0.0
C190 C 0.35537 0.93876 0.98621 0.0
O191 O 0.35867 0.9511 0.88294 0.0
C192 C 0.3199 0.89912 0.90412 0.0
C193 C 0.29573 0.89481 0.9262 0.0
C194 C 0.27486 0.87736 0.8576 0.0
C195 C 0.27907 0.8663 0.75288 0.0
C196 C 0.30429 0.87326 0.71864 0.0
C197 C 0.32461 0.88913 0.79773 0.0
C198 C 0.24961 0.87011 0.90968 0.0
C199 C 0.33303 0.87454 0.40438 0.0
C200 C 0.32777 0.88221 0.51828 0.0
C201 C 0.32112 0.84847 0.37848 0.0
C202 C 0.30309 0.83073 0.45957 0.0
C203 C 0.29704 0.83864 0.56888 0.0
C204 C 0.30968 0.86448 0.60049 0.0
N205 N 0.35071 0.89331 0.31821 0.0
N206 N 0.33912 0.9132 0.99411 0.0
N207 N 0.31408 0.90306 0.21993 0.0
C208 C 0.31464 0.92526 0.26793 0.0
C209 C 0.31143 0.92731 0.39402 0.0
C210 C 0.31422 0.9429 0.18719 0.0
C211 C 0.30881 0.94745 0.44048 0.0
H212 H 0.30954 0.91245 0.45469 0.0
C213 C 0.30859 0.96511 0.3577 0.0
C214 C 0.31034 0.96227 0.2309 0.0
C215 C 0.3037 0.94855 0.57304 0.0
H216 H 0.3158 0.94109 0.08949 0.0
H217 H 0.30496 0.97979 0.39063 0.0
C218 C 0.30554 0.97781 0.14284 0.0
O219 O 0.29594 0.96464 0.61271 0.0
O220 O 0.30576 0.93443 0.64645 0.0
O221 O 0.29168 0.96765 0.05462 0.0
O222 O 0.31549 0.00295 0.16017 0.0
H223 H 0.29065 0.96448 0.69671 0.0
H224 H 0.32804 0.0119 0.22285 0.0
N225 N 0.31915 0.86768 0.119 0.0
C226 C 0.32768 0.85436 0.05816 0.0
C227 C 0.31003 0.8295 0.02264 0.0
C228 C 0.28413 0.81998 0.05305 0.0
C229 C 0.27634 0.83523 0.11707 0.0
C230 C 0.29499 0.85989 0.14971 0.0
N231 N 0.36778 0.89346 0.07806 0.0
C232 C 0.35542 0.8689 0.03603 0.0
O233 O 0.36731 0.85926 0.97495 0.0
C234 C 0.29184 0.88007 0.20905 0.0
O235 O 0.19414 0.881 0.12022 0.0
O236 O 0.22201 0.90124 0.25959 0.0
C237 C 0.39434 0.91096 0.05143 0.0
C238 C 0.40177 0.92849 0.95275 0.0
C239 C 0.42762 0.94585 0.93011 0.0
C240 C 0.44588 0.94297 0.99513 0.0
C241 C 0.43923 0.92709 0.09881 0.0
C242 C 0.41328 0.91097 0.12596 0.0
O243 O 0.19944 0.81527 0.16942 0.0
O244 O 0.17313 0.79714 0.01482 0.0
O245 O 0.24861 0.88488 0.98815 0.0
O246 O 0.23123 0.84753 0.90629 0.0
O247 O 0.26925 0.87578 0.25674 0.0
C248 C 0.18793 0.84442 0.35961 0.0
O249 O 0.17973 0.84107 0.24868 0.0
O250 O 0.21145 0.8535 0.3798 0.0
C251 C 0.20257 0.8983 0.20192 0.0
H252 H 0.39807 0.98859 0.03328 0.0
H253 H 0.41474 0.96552 0.38172 0.0
H254 H 0.42515 0.99888 0.22126 0.0
H255 H 0.29299 0.90388 0.00472 0.0
H256 H 0.26311 0.85314 0.69696 0.0
H257 H 0.34383 0.89344 0.77747 0.0
H258 H 0.33737 0.90219 0.54224 0.0
H259 H 0.32588 0.84166 0.29689 0.0
H260 H 0.28305 0.8245 0.63005 0.0
H261 H 0.31591 0.81789 0.97276 0.0
H262 H 0.27008 0.80086 0.02608 0.0
H263 H 0.25649 0.82813 0.13828 0.0
H264 H 0.38773 0.92893 0.89415 0.0
H265 H 0.46565 0.95593 0.97531 0.0
H266 H 0.40777 0.89896 0.20684 0.0
Cd267 Cd 0.86706 0.63929 0.83639 0.0
C268 C 0.79675 0.612 0.89741 0.0
C269 C 0.91342 0.53942 0.64769 0.0
O270 O 0.91321 0.52852 0.54286 0.0
Cd271 Cd 0.84338 0.64882 0.99559 0.0
C272 C 0.93682 0.5537 0.71978 0.0
C273 C 0.97475 0.57909 0.89452 0.0
C274 C 0.95071 0.57655 0.90765 0.0
N275 N 0.93377 0.56505 0.81802 0.0
C276 C 0.96043 0.55546 0.7007 0.0
C277 C 0.97962 0.56854 0.78934 0.0
Co278 Co 0.90088 0.55631 0.85365 0.0
C279 C 0.93968 0.58175 0.01698 0.0
O280 O 0.95247 0.59052 0.11961 0.0
C281 C 0.90047 0.5781 0.10297 0.0
C282 C 0.89653 0.59821 0.08186 0.0
C283 C 0.87916 0.60174 0.15046 0.0
C284 C 0.86777 0.58629 0.25416 0.0
C285 C 0.87423 0.56765 0.28753 0.0
C286 C 0.89007 0.56311 0.20846 0.0
C287 C 0.87206 0.61985 0.09875 0.0
C288 C 0.87415 0.53986 0.603 0.0
C289 C 0.88221 0.55233 0.48806 0.0
C290 C 0.84807 0.52669 0.62923 0.0
C291 C 0.83074 0.52745 0.54703 0.0
C292 C 0.83907 0.54096 0.43661 0.0
C293 C 0.86492 0.55328 0.40505 0.0
N294 N 0.89257 0.54034 0.68963 0.0
N295 N 0.91412 0.57275 0.01141 0.0
N296 N 0.90333 0.58731 0.78533 0.0
C297 C 0.92538 0.60859 0.73399 0.0
C298 C 0.92681 0.61345 0.60745 0.0
C299 C 0.94329 0.62698 0.81231 0.0
C300 C 0.94686 0.63599 0.55828 0.0
H301 H 0.91158 0.60043 0.54869 0.0
C302 C 0.96503 0.65399 0.6386 0.0
C303 C 0.96246 0.65003 0.76576 0.0
C304 C 0.94743 0.64193 0.4257 0.0
H305 H 0.94179 0.62402 0.91025 0.0
H306 H 0.97977 0.67208 0.60362 0.0
C307 C 0.97787 0.67099 0.85074 0.0
O308 O 0.96366 0.66561 0.38429 0.0
O309 O 0.93283 0.62569 0.35384 0.0
O310 O 0.96748 0.67614 0.93289 0.0
O311 O 0.00326 0.68479 0.83846 0.0
H312 H 0.96341 0.67053 0.29998 0.0
H313 H 0.01219 0.67907 0.78611 0.0
N314 N 0.868 0.54741 0.89044 0.0
C315 C 0.85462 0.52574 0.95264 0.0
C316 C 0.83001 0.51901 0.99043 0.0
C317 C 0.82076 0.53564 0.96065 0.0
C318 C 0.83605 0.55848 0.89507 0.0
C319 C 0.86046 0.564 0.86028 0.0
N320 N 0.89333 0.52411 0.93057 0.0
C321 C 0.86892 0.51229 0.97447 0.0
O322 O 0.8593 0.49099 0.03752 0.0
C323 C 0.88062 0.58704 0.79884 0.0
O324 O 0.88324 0.68582 0.89762 0.0
O325 O 0.90238 0.6788 0.75012 0.0
C326 C 0.91081 0.51509 0.95798 0.0
C327 C 0.92817 0.52516 0.05724 0.0
C328 C 0.94592 0.51712 0.07893 0.0
C329 C 0.9436 0.4964 0.01202 0.0
C330 C 0.92781 0.48725 0.90798 0.0
C331 C 0.91126 0.49658 0.88217 0.0
O332 O 0.81698 0.61573 0.84176 0.0
O333 O 0.79889 0.62316 0.99886 0.0
O334 O 0.88655 0.63519 0.01811 0.0
O335 O 0.8497 0.61618 0.10584 0.0
O336 O 0.87646 0.60542 0.75104 0.0
C337 C 0.84623 0.65751 0.65487 0.0
O338 O 0.84301 0.6618 0.76696 0.0
O339 O 0.85501 0.64294 0.63108 0.0
C340 C 0.9001 0.69504 0.81395 0.0
H341 H 0.98907 0.58829 0.96445 0.0
H342 H 0.96378 0.5466 0.62213 0.0
H343 H 0.99802 0.57004 0.77804 0.0
H344 H 0.90566 0.61001 0.00337 0.0
H345 H 0.85464 0.58919 0.30986 0.0
H346 H 0.89398 0.54789 0.22787 0.0
H347 H 0.9022 0.5621 0.46433 0.0
H348 H 0.84094 0.51553 0.71194 0.0
H349 H 0.82525 0.54129 0.37493 0.0
H350 H 0.8184 0.50171 0.04169 0.0
H351 H 0.80185 0.53095 0.98936 0.0
H352 H 0.82916 0.57141 0.87432 0.0
H353 H 0.92832 0.53946 0.11628 0.0
H354 H 0.95697 0.49002 0.03034 0.0
H355 H 0.89937 0.49018 0.80084 0.0
Cd356 Cd 0.36559 0.22766 0.8594 0.0
C357 C 0.40083 0.1915 0.85827 0.0
C358 C 0.45534 0.37208 0.65457 0.0
O359 O 0.46503 0.38379 0.5499 0.0
Cd360 Cd 0.36497 0.18615 0.06883 0.0
C361 C 0.43912 0.3782 0.73039 0.0
C362 C 0.41304 0.3869 0.91685 0.0
C363 C 0.4173 0.36637 0.92186 0.0
N364 N 0.42952 0.36304 0.82813 0.0
C365 C 0.43476 0.39861 0.71736 0.0
C366 C 0.42147 0.40285 0.81224 0.0
Co367 Co 0.44256 0.34208 0.85854 0.0
C368 C 0.41444 0.35011 0.02851 0.0
O369 O 0.40421 0.35137 0.13243 0.0
C370 C 0.42315 0.31726 0.10715 0.0
C371 C 0.40446 0.29198 0.09147 0.0
C372 C 0.40246 0.273 0.1715 0.0
C373 C 0.41877 0.2799 0.27362 0.0
C374 C 0.43638 0.30574 0.29673 0.0
C375 C 0.43868 0.32436 0.2119 0.0
C376 C 0.38451 0.24626 0.1387 0.0
C377 C 0.4622 0.33649 0.60802 0.0
C378 C 0.44948 0.33019 0.49368 0.0
C379 C 0.47878 0.32734 0.63438 0.0
C380 C 0.48104 0.31074 0.55299 0.0
C381 C 0.46713 0.30338 0.44342 0.0
C382 C 0.45147 0.31337 0.41201 0.0
N383 N 0.45818 0.35222 0.69481 0.0
N384 N 0.42564 0.33559 0.01676 0.0
N385 N 0.41364 0.31199 0.78943 0.0
C386 C 0.39124 0.31085 0.7411 0.0
C387 C 0.38721 0.30986 0.61419 0.0
C388 C 0.37279 0.30972 0.82123 0.0
C389 C 0.36564 0.30965 0.56645 0.0
H390 H 0.4003 0.3082 0.55347 0.0
C391 C 0.34799 0.31011 0.64835 0.0
C392 C 0.35095 0.30897 0.77569 0.0
C393 C 0.36025 0.30645 0.43272 0.0
H394 H 0.37515 0.30895 0.91921 0.0
H395 H 0.33071 0.30875 0.61314 0.0
C396 C 0.33026 0.3046 0.86094 0.0
O397 O 0.3366 0.2992 0.39158 0.0
O398 O 0.37679 0.30936 0.35965 0.0
O399 O 0.32617 0.29116 0.95128 0.0
O400 O 0.31529 0.31469 0.83933 0.0
H401 H 0.33171 0.29431 0.30701 0.0
H402 H 0.31899 0.32695 0.77489 0.0
N403 N 0.45553 0.32121 0.8906 0.0
C404 C 0.47726 0.33164 0.95408 0.0
C405 C 0.48658 0.3158 0.99176 0.0
C406 C 0.47224 0.28961 0.96159 0.0
C407 C 0.44903 0.27972 0.89606 0.0
C408 C 0.44086 0.29663 0.86109 0.0
N409 N 0.47338 0.36915 0.93535 0.0
C410 C 0.48779 0.35916 0.97753 0.0
O411 O 0.5092 0.37298 0.03739 0.0
C412 C 0.41669 0.29115 0.80127 0.0
O413 O 0.31825 0.2061 0.87882 0.0
O414 O 0.3353 0.22942 0.71854 0.0
C415 C 0.47994 0.39541 0.95162 0.0
C416 C 0.46744 0.40222 0.04174 0.0
C417 C 0.46863 0.42595 0.03496 0.0
C418 C 0.48485 0.44357 0.94944 0.0
C419 C 0.5003 0.43873 0.87231 0.0
C420 C 0.49714 0.41418 0.8694 0.0
O421 O 0.39028 0.20426 0.82441 0.0
O422 O 0.39857 0.18394 0.96868 0.0
O423 O 0.36621 0.24177 0.06804 0.0
O424 O 0.39099 0.22956 0.15058 0.0
O425 O 0.39949 0.26785 0.7569 0.0
C426 C 0.33645 0.1657 0.7908 0.0
O427 O 0.333 0.16001 0.90474 0.0
O428 O 0.35104 0.18841 0.75673 0.0
C429 C 0.31504 0.21379 0.77523 0.0
H430 H 0.40526 0.39159 0.99483 0.0
H431 H 0.4423 0.41148 0.63998 0.0
H432 H 0.41862 0.41905 0.80715 0.0
H433 H 0.39199 0.28694 0.013 0.0
H434 H 0.41719 0.26538 0.33681 0.0
H435 H 0.45253 0.34423 0.22678 0.0
H436 H 0.43728 0.33777 0.46928 0.0
H437 H 0.49024 0.33316 0.71656 0.0
H438 H 0.46901 0.29033 0.38239 0.0
H439 H 0.50407 0.32321 0.04365 0.0
H440 H 0.47893 0.27692 0.99044 0.0
H441 H 0.43777 0.25962 0.87578 0.0
H442 H 0.45569 0.3887 0.11095 0.0
H443 H 0.48501 0.46135 0.94122 0.0
H444 H 0.5073 0.40947 0.80223 0.0
Cd445 Cd 0.77327 0.13867 0.84264 0.0
C446 C 0.80841 0.2101 0.83182 0.0
C447 C 0.62855 0.08162 0.64697 0.0
O448 O 0.61698 0.07928 0.54151 0.0
Cd449 Cd 0.8142 0.18088 0.04875 0.0
C450 C 0.62242 0.05949 0.72464 0.0
C451 C 0.61379 0.02526 0.91394 0.0
C452 C 0.63429 0.05009 0.91756 0.0
N453 N 0.63757 0.06535 0.8226 0.0
C454 C 0.602 0.03468 0.71315 0.0
C455 C 0.59778 0.01744 0.80953 0.0
Co456 Co 0.65847 0.09944 0.85101 0.0
C457 C 0.65062 0.06381 0.02348 0.0
O458 O 0.64952 0.05267 0.1282 0.0
C459 C 0.68363 0.10556 0.09928 0.0
C460 C 0.70901 0.11274 0.08154 0.0
C461 C 0.72804 0.12994 0.16059 0.0
C462 C 0.7211 0.13895 0.26423 0.0
C463 C 0.69517 0.13006 0.2895 0.0
C464 C 0.67652 0.11357 0.20534 0.0
C465 C 0.75479 0.13938 0.12479 0.0
C466 C 0.66381 0.12435 0.60006 0.0
C467 C 0.67067 0.11817 0.4866 0.0
C468 C 0.67231 0.14998 0.62587 0.0
C469 C 0.68889 0.16902 0.54523 0.0
C470 C 0.69684 0.16276 0.43669 0.0
C471 C 0.68743 0.13719 0.40544 0.0
N472 N 0.64822 0.10449 0.68676 0.0
N473 N 0.66517 0.08948 0.0099 0.0
N474 N 0.68855 0.10053 0.78221 0.0
C475 C 0.68977 0.07901 0.73817 0.0
C476 C 0.68991 0.07478 0.61209 0.0
C477 C 0.69114 0.06227 0.82152 0.0
C478 C 0.68986 0.05302 0.56839 0.0
H479 H 0.69102 0.0889 0.54861 0.0
C480 C 0.68996 0.03563 0.65359 0.0
C481 C 0.69144 0.04064 0.78022 0.0
C482 C 0.69225 0.04975 0.43493 0.0
H483 H 0.6922 0.06611 0.91883 0.0
H484 H 0.69108 0.0194 0.62122 0.0
C485 C 0.69524 0.02449 0.86954 0.0
O486 O 0.69933 0.0331 0.396 0.0
O487 O 0.68893 0.06282 0.35997 0.0
O488 O 0.70837 0.03413 0.96051 0.0
O489 O 0.68502 0.99929 0.85111 0.0
H490 H 0.70385 0.0325 0.31137 0.0
H491 H 0.6732 0.99049 0.78533 0.0
N492 N 0.67924 0.13336 0.88099 0.0
C493 C 0.6688 0.14477 0.94343 0.0
C494 C 0.68453 0.17016 0.97801 0.0
C495 C 0.71063 0.18212 0.94574 0.0
C496 C 0.72052 0.1687 0.88102 0.0
C497 C 0.70371 0.1434 0.84919 0.0
N498 N 0.63136 0.10324 0.92717 0.0
C499 C 0.64132 0.12773 0.96801 0.0
O500 O 0.62751 0.13539 0.02737 0.0
C501 C 0.70922 0.12465 0.79028 0.0
O502 O 0.79472 0.11267 0.86006 0.0
O503 O 0.77118 0.10656 0.70099 0.0
C504 C 0.60519 0.08346 0.94563 0.0
C505 C 0.5987 0.06475 0.03872 0.0
C506 C 0.57495 0.04216 0.03562 0.0
C507 C 0.55703 0.04016 0.95029 0.0
C508 C 0.56158 0.05987 0.86968 0.0
C509 C 0.58613 0.08125 0.86339 0.0
O510 O 0.79606 0.18665 0.79937 0.0
O511 O 0.81552 0.21576 0.9426 0.0
O512 O 0.75943 0.12581 0.05301 0.0
O513 O 0.77112 0.16269 0.13586 0.0
O514 O 0.73236 0.13092 0.74314 0.0
C515 C 0.83538 0.17175 0.77645 0.0
O516 O 0.84088 0.17429 0.89067 0.0
O517 O 0.81272 0.16352 0.74128 0.0
C518 C 0.7868 0.10177 0.75662 0.0
H519 H 0.6092 0.01298 0.99264 0.0
H520 H 0.58911 0.02911 0.63577 0.0
H521 H 0.58157 0.99838 0.80563 0.0
H522 H 0.71408 0.10556 1.00231 0.0
H523 H 0.73565 0.15211 0.32669 0.0
H524 H 0.6566 0.10712 0.22166 0.0
H525 H 0.66342 0.09845 0.46212 0.0
H526 H 0.66599 0.15539 0.70713 0.0
H527 H 0.70977 0.17783 0.37597 0.0
H528 H 0.67711 0.18035 0.02879 0.0
H529 H 0.72324 0.20169 0.97209 0.0
H530 H 0.74055 0.17767 0.85886 0.0
H531 H 0.61245 0.06701 0.10768 0.0
H532 H 0.53929 0.02247 0.94468 0.0
H533 H 0.59061 0.09564 0.79379 0.0
Cd534 Cd 0.80606 0.69873 0.49187 0.0
C535 C 0.87744 0.73531 0.50419 0.0
C536 C 0.74905 0.78647 0.68643 0.0
O537 O 0.74676 0.79577 0.79175 0.0
Cd538 Cd 0.84856 0.70039 0.28625 0.0
C539 C 0.7269 0.77046 0.60893 0.0
C540 C 0.69263 0.74492 0.41971 0.0
C541 C 0.7174 0.74911 0.41624 0.0
N542 N 0.73269 0.76107 0.51115 0.0
C543 C 0.70212 0.76617 0.62039 0.0
C544 C 0.68486 0.75318 0.52406 0.0
Co545 Co 0.76677 0.77418 0.48261 0.0
C546 C 0.73109 0.74642 0.31035 0.0
O547 O 0.71995 0.73647 0.20552 0.0
C548 C 0.7728 0.75509 0.23443 0.0
C549 C 0.78 0.73691 0.25225 0.0
C550 C 0.79725 0.73513 0.17335 0.0
C551 C 0.80625 0.75108 0.06968 0.0
C552 C 0.79731 0.76807 0.04424 0.0
C553 C 0.78079 0.7702 0.12834 0.0
C554 C 0.80679 0.71792 0.20947 0.0
C555 C 0.79171 0.7938 0.73352 0.0
C556 C 0.78548 0.78078 0.84709 0.0
C557 C 0.81736 0.81086 0.70774 0.0
C558 C 0.83637 0.81328 0.78849 0.0
C559 C 0.83006 0.79909 0.8971 0.0
C560 C 0.80448 0.78298 0.92833 0.0
N561 N 0.77188 0.78957 0.64671 0.0
N562 N 0.75675 0.75748 0.32392 0.0
N563 N 0.76782 0.74521 0.55179 0.0
C564 C 0.7463 0.72252 0.59635 0.0
C565 C 0.74221 0.71821 0.72254 0.0
C566 C 0.72943 0.70441 0.5134 0.0
C567 C 0.72045 0.69656 0.76678 0.0
H568 H 0.75643 0.73121 0.78566 0.0
C569 C 0.70295 0.67906 0.68202 0.0
C570 C 0.7078 0.68254 0.55523 0.0
C571 C 0.7173 0.691 0.90036 0.0
H572 H 0.7332 0.70714 0.416 0.0
H573 H 0.68672 0.66175 0.71483 0.0
C574 C 0.69144 0.66261 0.46623 0.0
O575 O 0.70067 0.6673 0.93985 0.0
O576 O 0.73042 0.70746 0.97495 0.0
O577 O 0.70088 0.65913 0.37445 0.0
O578 O 0.66629 0.64763 0.48581 0.0
H579 H 0.70011 0.66228 0.02463 0.0
H580 H 0.65762 0.65064 0.55225 0.0
N581 N 0.80068 0.78727 0.45253 0.0
C582 C 0.81213 0.80911 0.39002 0.0
C583 C 0.83752 0.81874 0.35568 0.0
C584 C 0.84945 0.80459 0.38828 0.0
C585 C 0.836 0.7813 0.45311 0.0
C586 C 0.81069 0.77284 0.48469 0.0
N587 N 0.77063 0.80508 0.40595 0.0
C588 C 0.79513 0.81958 0.36524 0.0
O589 O 0.80284 0.84108 0.306 0.0
C590 C 0.79192 0.74862 0.54384 0.0
O591 O 0.78012 0.65129 0.47438 0.0
O592 O 0.77394 0.66869 0.63334 0.0
C593 C 0.75095 0.81163 0.38802 0.0
C594 C 0.73199 0.79936 0.29604 0.0
C595 C 0.7096 0.80089 0.2996 0.0
C596 C 0.7081 0.81727 0.38383 0.0
C597 C 0.72807 0.8324 0.46329 0.0
C598 C 0.7492 0.82885 0.4694 0.0
O599 O 0.85396 0.72407 0.53625 0.0
O600 O 0.88321 0.73402 0.39343 0.0
O601 O 0.79326 0.69971 0.28138 0.0
O602 O 0.83013 0.725 0.19856 0.0
O603 O 0.79817 0.73177 0.59135 0.0
C604 C 0.83934 0.66983 0.55769 0.0
O605 O 0.84201 0.667 0.44349 0.0
O606 O 0.83096 0.68413 0.59292 0.0
C607 C 0.76919 0.64829 0.57771 0.0
H608 H 0.68037 0.73734 0.34088 0.0
H609 H 0.6966 0.77356 0.69766 0.0
H610 H 0.66584 0.75041 0.5279 0.0
H611 H 0.77281 0.72465 0.33152 0.0
H612 H 0.81945 0.74973 0.00736 0.0
H613 H 0.77432 0.78366 0.11199 0.0
H614 H 0.76576 0.76836 0.87153 0.0
H615 H 0.8228 0.82256 0.6264 0.0
H616 H 0.84511 0.80118 0.95787 0.0
H617 H 0.84774 0.83635 0.30486 0.0
H618 H 0.86903 0.81153 0.36214 0.0
H619 H 0.84496 0.77025 0.47559 0.0
H620 H 0.73391 0.78761 0.22739 0.0
H621 H 0.69062 0.81775 0.38936 0.0
H622 H 0.76379 0.8388 0.53809 0.0
Cd623 Cd 0.30713 0.10771 0.51025 0.0
C624 C 0.27856 0.14991 0.45559 0.0
C625 C 0.20935 0.96144 0.69435 0.0
O626 O 0.19907 0.95082 0.80026 0.0
Cd627 Cd 0.31591 0.14116 0.35286 0.0
C628 C 0.22353 0.9525 0.61998 0.0
C629 C 0.24884 0.94053 0.44191 0.0
C630 C 0.24583 0.96178 0.43024 0.0
N631 N 0.23431 0.96687 0.52104 0.0
C632 C 0.22584 0.93093 0.63795 0.0
C633 C 0.23885 0.9251 0.54756 0.0
Co634 Co 0.22525 0.99089 0.48805 0.0
C635 C 0.25069 0.9782 0.32201 0.0
O636 O 0.25991 0.97495 0.2192 0.0
C637 C 0.24663 0.01371 0.23918 0.0
C638 C 0.2664 0.03791 0.26151 0.0
C639 C 0.2698 0.05875 0.19274 0.0
C640 C 0.25456 0.0545 0.08784 0.0
C641 C 0.23636 0.02928 0.0535 0.0
C642 C 0.23195 0.00896 0.13258 0.0
C643 C 0.28766 0.08401 0.24507 0.0
C644 C 0.2087 0.00066 0.73913 0.0
C645 C 0.22164 0.00581 0.853 0.0
C646 C 0.19466 0.0127 0.71347 0.0
C647 C 0.19504 0.03073 0.79484 0.0
C648 C 0.209 0.03666 0.90416 0.0
C649 C 0.22212 0.02392 0.93549 0.0
N650 N 0.20963 0.98293 0.65275 0.0
N651 N 0.24148 0.99455 0.32951 0.0
N652 N 0.25624 0.01939 0.55606 0.0
C653 C 0.27783 0.01866 0.60335 0.0
C654 C 0.28316 0.02171 0.7294 0.0
C655 C 0.29582 0.01914 0.52201 0.0
C656 C 0.30596 0.02426 0.7751 0.0
H657 H 0.27026 0.02358 0.79062 0.0
C658 C 0.32373 0.02446 0.6917 0.0
C659 C 0.31906 0.0229 0.56503 0.0
C660 C 0.31237 0.02944 0.90741 0.0
H661 H 0.29242 0.01776 0.42435 0.0
H662 H 0.34206 0.02803 0.72402 0.0
C663 C 0.33937 0.02791 0.47648 0.0
O664 O 0.33628 0.03717 0.94617 0.0
O665 O 0.29635 0.02754 0.98138 0.0
O666 O 0.34323 0.04221 0.39002 0.0
O667 O 0.3543 0.01759 0.49136 0.0
H668 H 0.3416 0.04264 0.0298 0.0
H669 H 0.35049 0.00468 0.55236 0.0
N670 N 0.21606 0.01475 0.45398 0.0
C671 C 0.19427 0.00643 0.39273 0.0
C672 C 0.18723 0.02423 0.35778 0.0
C673 C 0.20368 0.05006 0.38931 0.0
C674 C 0.22663 0.05762 0.4539 0.0
C675 C 0.23246 0.03882 0.4859 0.0
N676 N 0.19298 0.96619 0.41182 0.0
C677 C 0.18096 0.97872 0.36971 0.0
O678 O 0.15953 0.96702 0.30772 0.0
C679 C 0.25564 0.04172 0.54589 0.0
O680 O 0.35397 0.13884 0.4559 0.0
O681 O 0.34634 0.11133 0.59733 0.0
C682 C 0.18399 0.93972 0.38378 0.0
C683 C 0.1941 0.93253 0.2843 0.0
C684 C 0.18589 0.90674 0.26132 0.0
C685 C 0.165 0.88829 0.32713 0.0
C686 C 0.1558 0.89478 0.43144 0.0
C687 C 0.16532 0.92066 0.45866 0.0
O688 O 0.28271 0.13349 0.5093 0.0
O689 O 0.28955 0.1593 0.35423 0.0
O690 O 0.30329 0.08504 0.32455 0.0
O691 O 0.28346 0.10237 0.24041 0.0
O692 O 0.27395 0.06417 0.59467 0.0
C693 C 0.32451 0.14667 0.6927 0.0
O694 O 0.329 0.15443 0.58104 0.0
O695 O 0.30999 0.12326 0.7153 0.0
C696 C 0.36285 0.13053 0.5382 0.0
H697 H 0.25789 0.93555 0.37054 0.0
H698 H 0.21747 0.91872 0.71705 0.0
H699 H 0.24073 0.90839 0.55797 0.0
H700 H 0.27812 0.04069 0.34044 0.0
H701 H 0.25732 0.07046 0.03198 0.0
H702 H 0.21707 0.98973 0.11228 0.0
H703 H 0.23193 0.99611 0.87674 0.0
H704 H 0.18312 0.00804 0.63178 0.0
H705 H 0.20893 0.05067 0.96551 0.0
H706 H 0.1698 0.01852 0.30757 0.0
H707 H 0.19874 0.06423 0.36285 0.0
H708 H 0.2394 0.07741 0.47609 0.0
H709 H 0.20847 0.94672 0.2257 0.0
H710 H 0.15843 0.86855 0.30749 0.0
H711 H 0.15887 0.92604 0.54017 0.0
Cd712 Cd 0.89372 0.19956 0.49794 0.0
C713 C 0.85061 0.12927 0.43676 0.0
C714 C 0.03989 0.24583 0.68635 0.0
O715 O 0.05059 0.24564 0.79119 0.0
Cd716 Cd 0.86046 0.17593 0.33863 0.0
C717 C 0.04902 0.26922 0.61411 0.0
C718 C 0.06156 0.30709 0.43904 0.0
C719 C 0.04002 0.28308 0.42622 0.0
N720 N 0.0346 0.26616 0.51594 0.0
C721 C 0.0709 0.29282 0.63298 0.0
C722 C 0.07701 0.31197 0.54416 0.0
Co723 Co 0.01043 0.23327 0.48046 0.0
C724 C 0.02376 0.27204 0.31701 0.0
O725 O 0.02781 0.28477 0.21418 0.0
C726 C 0.98819 0.23282 0.23119 0.0
C727 C 0.96415 0.2289 0.25227 0.0
C728 C 0.94325 0.21155 0.1836 0.0
C729 C 0.9473 0.20017 0.07984 0.0
C730 C 0.97241 0.20662 0.04652 0.0
C731 C 0.99279 0.22244 0.12567 0.0
C732 C 0.91804 0.20448 0.23527 0.0
C733 C 0.00018 0.20656 0.73116 0.0
C734 C 0.99576 0.21461 0.84611 0.0
C735 C 0.98725 0.18048 0.70488 0.0
C736 C 0.96913 0.16315 0.78696 0.0
C737 C 0.96393 0.17148 0.89733 0.0
C738 C 0.97749 0.19733 0.92899 0.0
N739 N 0.01811 0.22498 0.6445 0.0
N740 N 0.0072 0.24648 0.32271 0.0
N741 N 0.98192 0.23577 0.54882 0.0
C742 C 0.98276 0.25785 0.60016 0.0
C743 C 0.97945 0.25934 0.72677 0.0
C744 C 0.98232 0.2758 0.5219 0.0
C745 C 0.97715 0.27948 0.77608 0.0
H746 H 0.97719 0.24409 0.78551 0.0
C747 C 0.97737 0.29769 0.69585 0.0
C748 C 0.97864 0.29508 0.56863 0.0
C749 C 0.97194 0.28014 0.90881 0.0
H750 H 0.98369 0.27426 0.42389 0.0
H751 H 0.97415 0.3125 0.73098 0.0
C752 C 0.97322 0.31062 0.48385 0.0
O753 O 0.9645 0.29637 0.95036 0.0
O754 O 0.97369 0.2656 0.98066 0.0
O755 O 0.95788 0.30036 0.40084 0.0
O756 O 0.98467 0.33597 0.49748 0.0
H757 H 0.9594 0.29614 0.03478 0.0
H758 H 0.99913 0.34484 0.55101 0.0
N759 N 0.98642 0.20039 0.44383 0.0
C760 C 0.99469 0.18699 0.38165 0.0
C761 C 0.97678 0.16238 0.34399 0.0
C762 C 0.95091 0.15316 0.37387 0.0
C763 C 0.9434 0.16847 0.43942 0.0
C764 C 0.9623 0.19288 0.47408 0.0
N765 N 0.03505 0.22569 0.40347 0.0
C766 C 0.02243 0.20126 0.35974 0.0
O767 O 0.03408 0.19159 0.2969 0.0
C768 C 0.95946 0.21307 0.53548 0.0
O769 O 0.86343 0.21585 0.43754 0.0
O770 O 0.88971 0.23492 0.5848 0.0
C771 C 0.0616 0.24308 0.37655 0.0
C772 C 0.06907 0.26071 0.27829 0.0
C773 C 0.09493 0.27826 0.25683 0.0
C774 C 0.11316 0.27545 0.32246 0.0
C775 C 0.10638 0.25939 0.42553 0.0
C776 C 0.08045 0.24308 0.45145 0.0
O777 O 0.86716 0.14949 0.49238 0.0
O778 O 0.84157 0.13143 0.33544 0.0
O779 O 0.91721 0.21899 0.31582 0.0
O780 O 0.89936 0.18212 0.22833 0.0
O781 O 0.93695 0.20894 0.58341 0.0
C782 C 0.85458 0.17864 0.67925 0.0
O783 O 0.84707 0.1755 0.56716 0.0
O784 O 0.87792 0.18733 0.703 0.0
C785 C 0.87117 0.2327 0.52133 0.0
H786 H 0.06673 0.32135 0.36876 0.0
H787 H 0.08313 0.29618 0.7115 0.0
H788 H 0.09395 0.33036 0.55522 0.0
H789 H 0.96151 0.23805 0.33077 0.0
H790 H 0.93128 0.18707 0.02409 0.0
H791 H 0.01191 0.22635 0.10631 0.0
H792 H 0.00602 0.2346 0.86994 0.0
H793 H 0.99128 0.17335 0.62221 0.0
H794 H 0.94975 0.15766 0.95891 0.0
H795 H 0.98245 0.15075 0.29277 0.0
H796 H 0.93666 0.13424 0.34527 0.0
H797 H 0.92358 0.1616 0.46025 0.0
H798 H 0.05504 0.26116 0.21959 0.0
H799 H 0.13295 0.28859 0.30384 0.0
H800 H 0.07486 0.23097 0.53202 0.0
Cd801 Cd 0.53069 0.96851 0.19602 0.0
C802 C 0.45918 0.9332 0.19291 0.0
C803 C 0.58068 0.87387 0.003 0.0
O804 O 0.58203 0.86352 0.89914 0.0
Cd805 Cd 0.48961 0.96917 0.40368 0.0
C806 C 0.60334 0.88947 0.07826 0.0
C807 C 0.63913 0.91615 0.26038 0.0
C808 C 0.61457 0.91247 0.26652 0.0
N809 N 0.59861 0.9001 0.17446 0.0
C810 C 0.62775 0.89287 0.06485 0.0
C811 C 0.64582 0.90653 0.15733 0.0
Co812 Co 0.56498 0.889 0.20452 0.0
C813 C 0.60195 0.91681 0.37202 0.0
O814 O 0.61377 0.92675 0.47571 0.0
C815 C 0.56105 0.90971 0.45226 0.0
C816 C 0.55502 0.92873 0.43524 0.0
C817 C 0.53836 0.93138 0.51455 0.0
C818 C 0.52878 0.91539 0.61791 0.0
C819 C 0.5365 0.89739 0.64274 0.0
C820 C 0.55249 0.89447 0.55809 0.0
C821 C 0.52986 0.94944 0.47854 0.0
C822 C 0.53938 0.8698 0.95397 0.0
C823 C 0.54652 0.88235 0.83893 0.0
C824 C 0.51343 0.85479 0.98057 0.0
C825 C 0.49519 0.85407 0.89959 0.0
C826 C 0.50254 0.868 0.79014 0.0
C827 C 0.52834 0.88211 0.75797 0.0
N828 N 0.55858 0.87263 0.04194 0.0
N829 N 0.57629 0.90644 0.36125 0.0
N830 N 0.56553 0.9186 0.13178 0.0
C831 C 0.58726 0.94034 0.08167 0.0
C832 C 0.59012 0.94393 0.9543 0.0
C833 C 0.60436 0.95937 0.16017 0.0
C834 C 0.61117 0.96554 0.90473 0.0
H835 H 0.57533 0.93066 0.89457 0.0
C836 C 0.62905 0.98376 0.98511 0.0
C837 C 0.6249 0.98138 0.11224 0.0
C838 C 0.61313 0.97057 0.77071 0.0
H839 H 0.60128 0.95751 0.25836 0.0
H840 H 0.64474 0.00109 0.94873 0.0
C841 C 0.64033 0.00306 0.19358 0.0
O842 O 0.62952 0.99411 0.72825 0.0
O843 O 0.59933 0.95386 0.69869 0.0
O844 O 0.63003 0.00852 0.27497 0.0
O845 O 0.66563 0.0175 0.17733 0.0
H846 H 0.62918 0.99895 0.64398 0.0
H847 H 0.67465 0.0128 0.1197 0.0
N848 N 0.53143 0.8779 0.2363 0.0
C849 C 0.51911 0.85643 0.30109 0.0
C850 C 0.49412 0.84841 0.33758 0.0
C851 C 0.48348 0.8637 0.30459 0.0
C852 C 0.49781 0.88654 0.23744 0.0
C853 C 0.52265 0.89337 0.20393 0.0
N854 N 0.55945 0.8578 0.28527 0.0
C855 C 0.53489 0.84467 0.32704 0.0
O856 O 0.52614 0.82337 0.38931 0.0
C857 C 0.54214 0.91683 0.14239 0.0
O858 O 0.55661 0.01594 0.21294 0.0
O859 O 0.56315 0.99858 0.05476 0.0
C860 C 0.57763 0.84936 0.30693 0.0
C861 C 0.59663 0.86064 0.39887 0.0
C862 C 0.61455 0.85265 0.4164 0.0
C863 C 0.61116 0.83117 0.35289 0.0
C864 C 0.59394 0.82097 0.25459 0.0
C865 C 0.577 0.83004 0.2329 0.0
O866 O 0.48251 0.94375 0.15906 0.0
O867 O 0.45389 0.93548 0.30327 0.0
O868 O 0.54379 0.96728 0.40566 0.0
O869 O 0.50678 0.94334 0.49035 0.0
O870 O 0.53708 0.93455 0.09511 0.0
C871 C 0.49788 0.99759 0.12555 0.0
O872 O 0.49565 0.00116 0.23936 0.0
O873 O 0.50596 0.98293 0.0921 0.0
C874 C 0.5677 0.01895 0.11002 0.0
H875 H 0.65227 0.92494 0.33549 0.0
H876 H 0.63248 0.8846 0.98836 0.0
H877 H 0.6647 0.90896 0.15128 0.0
H878 H 0.56258 0.94089 0.35574 0.0
H879 H 0.51598 0.9174 0.6803 0.0
H880 H 0.558 0.88025 0.57349 0.0
H881 H 0.56642 0.89321 0.81399 0.0
H882 H 0.50711 0.84342 0.06302 0.0
H883 H 0.48806 0.86736 0.72976 0.0
H884 H 0.48328 0.83118 0.39052 0.0
H885 H 0.46425 0.85802 0.33237 0.0
H886 H 0.48988 0.89851 0.21473 0.0
H887 H 0.59782 0.87569 0.45578 0.0
H888 H 0.6246 0.82478 0.36871 0.0
H889 H 0.5639 0.82274 0.15616 0.0
Cd890 Cd 0.0271 0.55796 0.16198 0.0
C891 C 0.05518 0.51544 0.21981 0.0
C892 C 0.11934 0.70468 0.96234 0.0
O893 O 0.1288 0.71529 0.85532 0.0
Cd894 Cd 0.01843 0.52529 0.3155 0.0
C895 C 0.10449 0.71262 0.03784 0.0
C896 C 0.08028 0.72436 0.22234 0.0
C897 C 0.0838 0.70339 0.23194 0.0
N898 N 0.09491 0.69845 0.13859 0.0
C899 C 0.1011 0.73357 0.02073 0.0
C900 C 0.08867 0.7393 0.11448 0.0
Co901 Co 0.10647 0.67633 0.17194 0.0
C902 C 0.08075 0.6878 0.34144 0.0
O903 O 0.07153 0.6906 0.44514 0.0
C904 C 0.08658 0.65326 0.42202 0.0
C905 C 0.06691 0.62887 0.40148 0.0
C906 C 0.06425 0.60826 0.47002 0.0
C907 C 0.07995 0.61288 0.57324 0.0
C908 C 0.09786 0.63823 0.60608 0.0
C909 C 0.1017 0.65833 0.52702 0.0
C910 C 0.04647 0.58279 0.42005 0.0
C911 C 0.12342 0.66722 0.92068 0.0
C912 C 0.11029 0.66097 0.80745 0.0
C913 C 0.13931 0.65722 0.94633 0.0
C914 C 0.14073 0.64015 0.86471 0.0
C915 C 0.12679 0.63326 0.75518 0.0
C916 C 0.11184 0.64408 0.72443 0.0
N917 N 0.121 0.6843 0.00543 0.0
N918 N 0.091 0.67238 0.33265 0.0
N919 N 0.07611 0.64628 0.11003 0.0
C920 C 0.05382 0.64548 0.06182 0.0
C921 C 0.04815 0.64101 0.93676 0.0
C922 C 0.0362 0.64615 0.14176 0.0
C923 C 0.02528 0.638 0.89005 0.0
H924 H 0.06109 0.63879 0.87714 0.0
C925 C 0.00762 0.63856 0.97206 0.0
C926 C 0.01271 0.64198 0.09889 0.0
C927 C 0.01898 0.63211 0.75787 0.0
H928 H 0.04023 0.64891 0.23871 0.0
H929 H 0.98932 0.63453 0.9379 0.0
C930 C 0.99327 0.63956 0.18946 0.0
O931 O 0.99541 0.62513 0.71656 0.0
O932 O 0.03491 0.63304 0.686 0.0
O933 O 0.99446 0.63362 0.2954 0.0
O934 O 0.97377 0.64305 0.15789 0.0
H935 H 0.99052 0.62015 0.63198 0.0
H936 H 0.97159 0.64776 0.07651 0.0
N937 N 0.11806 0.65439 0.20658 0.0
C938 C 0.14027 0.66441 0.26582 0.0
C939 C 0.14896 0.64802 0.30312 0.0
C940 C 0.13359 0.62176 0.27644 0.0
C941 C 0.11005 0.61236 0.21444 0.0
C942 C 0.10254 0.62979 0.17978 0.0
N943 N 0.13851 0.703 0.24176 0.0
C944 C 0.15213 0.69221 0.28475 0.0
O945 O 0.17375 0.70551 0.34375 0.0
C946 C 0.07833 0.62489 0.12258 0.0
O947 O 0.98038 0.52578 0.21774 0.0
O948 O 0.98735 0.55344 0.07835 0.0
C949 C 0.14549 0.72921 0.26412 0.0
C950 C 0.13434 0.73563 0.36252 0.0
C951 C 0.13608 0.75962 0.36522 0.0
C952 C 0.15189 0.77788 0.28091 0.0
C953 C 0.16613 0.77328 0.19465 0.0
C954 C 0.16207 0.74848 0.18205 0.0
O955 O 0.05162 0.53215 0.16485 0.0
O956 O 0.04373 0.50606 0.32025 0.0
O957 O 0.03013 0.58118 0.34359 0.0
O958 O 0.05127 0.56481 0.42279 0.0
O959 O 0.06066 0.60166 0.07795 0.0
C960 C 0.01067 0.52067 0.97401 0.0
O961 O 0.00619 0.51244 0.08496 0.0
O962 O 0.02465 0.54426 0.9537 0.0
C963 C 0.97115 0.53399 0.13687 0.0
H964 H 0.07241 0.72972 0.29751 0.0
H965 H 0.10856 0.74561 0.94044 0.0
H966 H 0.08631 0.75575 0.10553 0.0
H967 H 0.05459 0.62577 0.32454 0.0
H968 H 0.07765 0.59714 0.62951 0.0
H969 H 0.11633 0.67771 0.54684 0.0
H970 H 0.09841 0.66899 0.78414 0.0
H971 H 0.15102 0.66284 0.02765 0.0
H972 H 0.12829 0.62012 0.6932 0.0
H973 H 0.16678 0.6551 0.35174 0.0
H974 H 0.1398 0.60866 0.30494 0.0
H975 H 0.09808 0.59224 0.19644 0.0
H976 H 0.1233 0.72174 0.43179 0.0
H977 H 0.15245 0.79589 0.28025 0.0
H978 H 0.17119 0.74402 0.10835 0.0
Cd979 Cd 0.43896 0.47065 0.18656 0.0
C980 C 0.47432 0.54194 0.17451 0.0
C981 C 0.29441 0.41548 0.98383 0.0
O982 O 0.28268 0.41337 0.87908 0.0
Cd983 Cd 0.48008 0.51338 0.39431 0.0
C984 C 0.28836 0.39319 0.05994 0.0
C985 C 0.27995 0.35849 0.24647 0.0
C986 C 0.30036 0.38334 0.25134 0.0
N987 N 0.30355 0.39884 0.15762 0.0
C988 C 0.26802 0.36838 0.04719 0.0
C989 C 0.26391 0.3509 0.14216 0.0
Co990 Co 0.32448 0.43288 0.18756 0.0
C991 C 0.31666 0.3968 0.35775 0.0
O992 O 0.31565 0.38532 0.46138 0.0
C993 C 0.34934 0.43848 0.43624 0.0
C994 C 0.37471 0.44544 0.42025 0.0
C995 C 0.3936 0.4626 0.50001 0.0
C996 C 0.38655 0.47184 0.60223 0.0
C997 C 0.36065 0.46325 0.62574 0.0
C998 C 0.3421 0.44673 0.54114 0.0
C999 C 0.42039 0.47181 0.46662 0.0
C1000 C 0.32982 0.45803 0.9371 0.0
C1001 C 0.33626 0.45169 0.82289 0.0
C1002 C 0.3387 0.48372 0.96326 0.0
C1003 C 0.35515 0.50265 0.88174 0.0
C1004 C 0.36263 0.4962 0.77224 0.0
C1005 C 0.35291 0.47058 0.74105 0.0
N1006 N 0.31421 0.43823 0.02392 0.0
N1007 N 0.33109 0.42254 0.34582 0.0
N1008 N 0.35454 0.43408 0.11804 0.0
C1009 C 0.3557 0.41274 0.07106 0.0
C1010 C 0.35641 0.40931 0.94437 0.0
C1011 C 0.35701 0.39569 0.15233 0.0
C1012 C 0.35658 0.38781 0.89813 0.0
H1013 H 0.3579 0.42385 0.88263 0.0
C1014 C 0.35617 0.36991 0.98126 0.0
C1015 C 0.35757 0.37441 0.10828 0.0
C1016 C 0.35975 0.38532 0.76469 0.0
H1017 H 0.35804 0.39915 0.25005 0.0
H1018 H 0.35742 0.35386 0.94716 0.0
C1019 C 0.36209 0.35835 0.19464 0.0
O1020 O 0.36713 0.36892 0.72507 0.0
O1021 O 0.35677 0.39874 0.69054 0.0
O1022 O 0.37579 0.36802 0.28394 0.0
O1023 O 0.35186 0.33321 0.17527 0.0
H1024 H 0.37211 0.3688 0.64081 0.0
H1025 H 0.33949 0.32445 0.11152 0.0
N1026 N 0.34531 0.46674 0.21906 0.0
C1027 C 0.33489 0.47805 0.28255 0.0
C1028 C 0.35071 0.50326 0.31956 0.0
C1029 C 0.37687 0.51515 0.28869 0.0
C1030 C 0.38675 0.50183 0.22312 0.0
C1031 C 0.36986 0.47671 0.18883 0.0
N1032 N 0.29743 0.4366 0.2646 0.0
C1033 C 0.30739 0.46101 0.30658 0.0
O1034 O 0.29358 0.46856 0.36678 0.0
C1035 C 0.37535 0.458 0.12913 0.0
O1036 O 0.46003 0.44447 0.20923 0.0
O1037 O 0.4371 0.43823 0.04744 0.0
C1038 C 0.27127 0.41679 0.282 0.0
C1039 C 0.26475 0.39777 0.3734 0.0
C1040 C 0.24123 0.37497 0.36743 0.0
C1041 C 0.2235 0.373 0.28105 0.0
C1042 C 0.22801 0.39299 0.20247 0.0
C1043 C 0.25236 0.41467 0.1991 0.0
O1044 O 0.462 0.51843 0.1436 0.0
O1045 O 0.48139 0.54795 0.28512 0.0
O1046 O 0.42513 0.45808 0.39658 0.0
O1047 O 0.43676 0.49511 0.47752 0.0
O1048 O 0.39863 0.4641 0.08442 0.0
C1049 C 0.50145 0.50344 0.12411 0.0
O1050 O 0.50683 0.50644 0.23844 0.0
O1051 O 0.47883 0.49499 0.08782 0.0
C1052 C 0.45248 0.43348 0.10578 0.0
H1053 H 0.27542 0.34601 0.32433 0.0
H1054 H 0.25511 0.36297 0.96993 0.0
H1055 H 0.24777 0.33181 0.13731 0.0
H1056 H 0.37988 0.43815 0.34168 0.0
H1057 H 0.40102 0.48496 0.66516 0.0
H1058 H 0.32218 0.44046 0.55623 0.0
H1059 H 0.32886 0.43194 0.79863 0.0
H1060 H 0.33277 0.48927 0.04538 0.0
H1061 H 0.37555 0.51118 0.71107 0.0
H1062 H 0.3433 0.51334 0.37141 0.0
H1063 H 0.38954 0.53458 0.31701 0.0
H1064 H 0.40683 0.51072 0.2023 0.0
H1065 H 0.2784 0.39992 0.44275 0.0
H1066 H 0.20593 0.35518 0.2733 0.0
H1067 H 0.25685 0.42931 0.1309 0.0
Cd1068 Cd 0.46935 0.02681 0.84392 0.0
C1069 C 0.5401 0.05505 0.78895 0.0
C1070 C 0.41963 0.12358 0.0269 0.0
O1071 O 0.41915 0.13375 0.13289 0.0
Cd1072 Cd 0.49385 0.01797 0.68703 0.0
C1073 C 0.39657 0.10931 0.95215 0.0
C1074 C 0.35951 0.084 0.77312 0.0
C1075 C 0.38379 0.08705 0.76218 0.0
N1076 N 0.40032 0.09861 0.85332 0.0
C1077 C 0.37263 0.1069 0.96952 0.0
C1078 C 0.35391 0.09391 0.87861 0.0
Co1079 Co 0.43347 0.10795 0.82067 0.0
C1080 C 0.3955 0.08231 0.65418 0.0
O1081 O 0.38309 0.07292 0.55139 0.0
C1082 C 0.43523 0.08672 0.57191 0.0
C1083 C 0.43989 0.06711 0.59449 0.0
C1084 C 0.45746 0.0639 0.5259 0.0
C1085 C 0.46832 0.07911 0.42079 0.0
C1086 C 0.46104 0.09711 0.38615 0.0
C1087 C 0.44502 0.10136 0.46516 0.0
C1088 C 0.46504 0.04618 0.57849 0.0
C1089 C 0.45972 0.12465 0.07187 0.0
C1090 C 0.45203 0.11165 0.18566 0.0
C1091 C 0.48579 0.13891 0.04624 0.0
C1092 C 0.50354 0.13869 0.12746 0.0
C1093 C 0.49564 0.12468 0.23663 0.0
C1094 C 0.46978 0.11134 0.26802 0.0
N1095 N 0.44096 0.12352 0.98546 0.0
N1096 N 0.42107 0.09171 0.66203 0.0
N1097 N 0.43123 0.07707 0.88869 0.0
C1098 C 0.40894 0.05539 0.93565 0.0
C1099 C 0.40651 0.0501 0.06173 0.0
C1100 C 0.39143 0.03745 0.85411 0.0
C1101 C 0.38608 0.02741 0.10727 0.0
H1102 H 0.42125 0.06297 0.12317 0.0
C1103 C 0.36848 0.00969 0.0237 0.0
C1104 C 0.37172 0.01432 0.89697 0.0
C1105 C 0.38466 0.02105 0.23974 0.0
H1106 H 0.39358 0.04083 0.75646 0.0
H1107 H 0.35356 0.99146 0.05608 0.0
C1108 C 0.35626 0.99409 0.80816 0.0
O1109 O 0.36852 0.99713 0.2784 0.0
O1110 O 0.39859 0.03714 0.31395 0.0
O1111 O 0.36653 0.99054 0.71999 0.0
O1112 O 0.33109 0.97887 0.8246 0.0
H1113 H 0.36856 0.99184 0.36222 0.0
H1114 H 0.32206 0.9823 0.88755 0.0
N1115 N 0.46661 0.11742 0.78693 0.0
C1116 C 0.47994 0.13923 0.72578 0.0
C1117 C 0.50486 0.1465 0.69118 0.0
C1118 C 0.51443 0.13022 0.72293 0.0
C1119 C 0.49917 0.10723 0.78741 0.0
C1120 C 0.47446 0.10117 0.81908 0.0
N1121 N 0.44079 0.14014 0.74447 0.0
C1122 C 0.46536 0.15236 0.70265 0.0
O1123 O 0.47499 0.17383 0.64107 0.0
C1124 C 0.45428 0.0779 0.87894 0.0
O1125 O 0.45356 0.97997 0.78981 0.0
O1126 O 0.43375 0.98772 0.9313 0.0
C1127 C 0.42324 0.1491 0.71721 0.0
C1128 C 0.40565 0.13883 0.61877 0.0
C1129 C 0.38818 0.14718 0.59608 0.0
C1130 C 0.391 0.16833 0.66078 0.0
C1131 C 0.40695 0.17769 0.7642 0.0
C1132 C 0.42318 0.16803 0.79138 0.0
O1133 O 0.51963 0.05111 0.84302 0.0
O1134 O 0.53836 0.04399 0.68765 0.0
O1135 O 0.45049 0.0305 0.65793 0.0
O1136 O 0.48765 0.05052 0.57411 0.0
O1137 O 0.45863 0.05976 0.92799 0.0
C1138 C 0.49085 0.00949 0.027 0.0
O1139 O 0.49408 0.0049 0.91545 0.0
O1140 O 0.48203 0.02409 0.04915 0.0
C1141 C 0.43638 0.97117 0.8722 0.0
H1142 H 0.34561 0.07506 0.70112 0.0
H1143 H 0.36869 0.11521 0.04846 0.0
H1144 H 0.3353 0.092 0.88843 0.0
H1145 H 0.43099 0.05536 0.67342 0.0
H1146 H 0.48161 0.07649 0.365 0.0
H1147 H 0.44047 0.1161 0.44467 0.0
H1148 H 0.43205 0.10122 0.20945 0.0
H1149 H 0.49258 0.15051 0.96468 0.0
H1150 H 0.50979 0.12488 0.29789 0.0
H1151 H 0.51649 0.16396 0.6411 0.0
H1152 H 0.5336 0.13533 0.69674 0.0
H1153 H 0.50633 0.09459 0.80978 0.0
H1154 H 0.40525 0.12433 0.56046 0.0
H1155 H 0.37799 0.17508 0.6409 0.0
H1156 H 0.43523 0.17463 0.87211 0.0
Cd1157 Cd 0.97121 0.4398 0.80237 0.0
C1158 C 0.93452 0.47428 0.81197 0.0
C1159 C 0.8769 0.29564 0.99423 0.0
O1160 O 0.86713 0.28415 0.09927 0.0
Cd1161 Cd 0.97084 0.48211 0.59672 0.0
C1162 C 0.89212 0.28844 0.91664 0.0
C1163 C 0.91885 0.27978 0.73282 0.0
C1164 C 0.91462 0.30031 0.72691 0.0
N1165 N 0.90215 0.30361 0.81941 0.0
C1166 C 0.89606 0.26775 0.92988 0.0
C1167 C 0.90971 0.26356 0.83642 0.0
Co1168 Co 0.8914 0.32648 0.79258 0.0
C1169 C 0.91888 0.31753 0.62262 0.0
O1170 O 0.92923 0.31632 0.51912 0.0
C1171 C 0.91172 0.35144 0.54504 0.0
C1172 C 0.93063 0.37652 0.56276 0.0
C1173 C 0.9336 0.39582 0.48258 0.0
C1174 C 0.91784 0.38942 0.37832 0.0
C1175 C 0.89988 0.36369 0.35339 0.0
C1176 C 0.89677 0.34478 0.43835 0.0
C1177 C 0.95179 0.42234 0.51849 0.0
C1178 C 0.87238 0.33266 0.04343 0.0
C1179 C 0.88534 0.33865 0.1573 0.0
C1180 C 0.85673 0.34293 0.0175 0.0
C1181 C 0.85581 0.36042 0.09783 0.0
C1182 C 0.87011 0.36759 0.20616 0.0
C1183 C 0.88477 0.35648 0.23786 0.0
N1184 N 0.8754 0.31638 0.95574 0.0
N1185 N 0.9085 0.33278 0.63503 0.0
N1186 N 0.92138 0.35506 0.86498 0.0
C1187 C 0.94349 0.35477 0.90759 0.0
C1188 C 0.94752 0.3537 0.03338 0.0
C1189 C 0.96215 0.35764 0.82393 0.0
C1190 C 0.96956 0.35419 0.07603 0.0
H1191 H 0.93414 0.35379 0.09778 0.0
C1192 C 0.98772 0.35603 0.99025 0.0
C1193 C 0.98447 0.35873 0.86462 0.0
C1194 C 0.975 0.35568 0.2095 0.0
H1195 H 0.95965 0.35959 0.72711 0.0
H1196 H 0.00532 0.35756 0.0219 0.0
C1197 C 0.00525 0.365 0.7766 0.0
O1198 O 0.99879 0.36297 0.24815 0.0
O1199 O 0.9584 0.35148 0.28482 0.0
O1200 O 0.00928 0.38019 0.694 0.0
O1201 O 0.02046 0.35485 0.78773 0.0
H1202 H 0.00391 0.36732 0.3328 0.0
H1203 H 0.01729 0.34187 0.84759 0.0
N1204 N 0.88065 0.34932 0.76423 0.0
C1205 C 0.85907 0.34058 0.70075 0.0
C1206 C 0.8512 0.35786 0.66784 0.0
C1207 C 0.86676 0.38364 0.70288 0.0
C1208 C 0.88968 0.39168 0.76859 0.0
C1209 C 0.89634 0.37338 0.79861 0.0
N1210 N 0.85987 0.30128 0.71272 0.0
C1211 C 0.84694 0.31309 0.67323 0.0
O1212 O 0.82548 0.30089 0.61176 0.0
C1213 C 0.91982 0.37685 0.85781 0.0
O1214 O 0.01873 0.46193 0.79028 0.0
O1215 O 0.00081 0.43678 0.94377 0.0
C1216 C 0.8512 0.27472 0.68852 0.0
C1217 C 0.86237 0.26727 0.59502 0.0
C1218 C 0.85423 0.24142 0.57486 0.0
C1219 C 0.83268 0.22314 0.63741 0.0
C1220 C 0.82255 0.22986 0.73718 0.0
C1221 C 0.83182 0.25582 0.76152 0.0
O1222 O 0.94552 0.46184 0.84395 0.0
O1223 O 0.93675 0.48237 0.70257 0.0
O1224 O 0.96972 0.42615 0.59072 0.0
O1225 O 0.94562 0.43929 0.50809 0.0
O1226 O 0.93794 0.39945 0.90484 0.0
C1227 C 0.99925 0.50201 0.87399 0.0
O1228 O 0.00263 0.50825 0.76072 0.0
O1229 O 0.98527 0.47903 0.90572 0.0
C1230 C 0.02137 0.45315 0.8919 0.0
H1231 H 0.92775 0.27564 0.65745 0.0
H1232 H 0.88832 0.25491 0.00728 0.0
H1233 H 0.91257 0.24737 0.84241 0.0
H1234 H 0.94256 0.38121 0.64296 0.0
H1235 H 0.92002 0.40421 0.31537 0.0
H1236 H 0.88264 0.32504 0.42241 0.0
H1237 H 0.89646 0.32992 0.18242 0.0
H1238 H 0.84503 0.33735 0.93614 0.0
H1239 H 0.86922 0.38132 0.26638 0.0
H1240 H 0.83386 0.35181 0.61628 0.0
H1241 H 0.86119 0.39742 0.67793 0.0
H1242 H 0.90183 0.41146 0.79295 0.0
H1243 H 0.87744 0.28129 0.5388 0.0
H1244 H 0.82617 0.20337 0.61946 0.0
H1245 H 0.82461 0.26141 0.83946 0.0
Cd1246 Cd 0.56015 0.53054 0.84763 0.0
C1247 C 0.51745 0.45999 0.79195 0.0
C1248 C 0.70708 0.58525 0.04479 0.0
O1249 O 0.71792 0.58643 0.15118 0.0
Cd1250 Cd 0.52729 0.50623 0.68864 0.0
C1251 C 0.71464 0.60807 0.97003 0.0
C1252 C 0.72564 0.6441 0.78676 0.0
C1253 C 0.70476 0.61956 0.77752 0.0
N1254 N 0.70023 0.60344 0.87015 0.0
C1255 C 0.73551 0.63246 0.98678 0.0
C1256 C 0.7409 0.65064 0.89359 0.0
Co1257 Co 0.67839 0.56973 0.83632 0.0
C1258 C 0.68909 0.60704 0.66819 0.0
O1259 O 0.69121 0.61929 0.56573 0.0
C1260 C 0.65516 0.56642 0.58641 0.0
C1261 C 0.63065 0.56123 0.60699 0.0
C1262 C 0.61023 0.54332 0.53751 0.0
C1263 C 0.61513 0.53251 0.43406 0.0
C1264 C 0.64058 0.54024 0.40171 0.0
C1265 C 0.66054 0.55666 0.48115 0.0
C1266 C 0.58468 0.53547 0.58674 0.0
C1267 C 0.66977 0.54367 0.08733 0.0
C1268 C 0.66363 0.55057 0.20087 0.0
C1269 C 0.65964 0.51777 0.06145 0.0
C1270 C 0.64253 0.4993 0.14301 0.0
C1271 C 0.6357 0.50637 0.25264 0.0
C1272 C 0.64662 0.53214 0.28368 0.0
N1273 N 0.68673 0.56315 1.00209 0.0
N1274 N 0.67409 0.58129 0.6762 0.0
N1275 N 0.64826 0.56955 0.90027 0.0
C1276 C 0.64733 0.59095 0.94849 0.0
C1277 C 0.64357 0.59261 0.07425 0.0
C1278 C 0.64736 0.60881 0.86802 0.0
C1279 C 0.64111 0.61285 0.12077 0.0
H1280 H 0.64144 0.57758 0.13452 0.0
C1281 C 0.64185 0.63106 0.03845 0.0
C1282 C 0.6438 0.62836 0.91154 0.0
C1283 C 0.63547 0.6137 0.25277 0.0
H1284 H 0.64923 0.60718 0.77052 0.0
H1285 H 0.63857 0.64595 0.07162 0.0
C1286 C 0.6397 0.64431 0.82272 0.0
O1287 O 0.62748 0.62966 0.29162 0.0
O1288 O 0.63735 0.59952 0.32649 0.0
O1289 O 0.62755 0.63478 0.72905 0.0
O1290 O 0.64878 0.66919 0.84389 0.0
H1291 H 0.62219 0.62954 0.37564 0.0
H1292 H 0.6605 0.67787 0.90983 0.0
N1293 N 0.65669 0.53616 0.80122 0.0
C1294 C 0.66686 0.52424 0.74086 0.0
C1295 C 0.65063 0.49917 0.70296 0.0
C1296 C 0.62437 0.48801 0.73021 0.0
C1297 C 0.6148 0.50187 0.79336 0.0
C1298 C 0.63207 0.52683 0.82861 0.0
N1299 N 0.7052 0.56484 0.76462 0.0
C1300 C 0.69463 0.54047 0.72129 0.0
O1301 O 0.70809 0.53238 0.66199 0.0
C1302 C 0.62697 0.5459 0.88715 0.0
O1303 O 0.52972 0.54655 0.7837 0.0
O1304 O 0.55573 0.56587 0.93149 0.0
C1305 C 0.73145 0.58422 0.74456 0.0
C1306 C 0.73807 0.60264 0.6499 0.0
C1307 C 0.76192 0.62509 0.65193 0.0
C1308 C 0.77989 0.62701 0.73668 0.0
C1309 C 0.77518 0.6074 0.81819 0.0
C1310 C 0.7505 0.58633 0.82644 0.0
O1311 O 0.53381 0.48043 0.84668 0.0
O1312 O 0.50863 0.46173 0.68913 0.0
O1313 O 0.58295 0.55004 0.66388 0.0
O1314 O 0.56672 0.51271 0.58257 0.0
O1315 O 0.60369 0.54015 0.93192 0.0
C1316 C 0.52079 0.51008 0.02791 0.0
O1317 O 0.51342 0.5065 0.91556 0.0
O1318 O 0.54413 0.51903 0.05276 0.0
C1319 C 0.53733 0.56358 0.86661 0.0
H1320 H 0.73081 0.65728 0.71145 0.0
H1321 H 0.74778 0.63706 0.06622 0.0
H1322 H 0.75732 0.66948 0.90206 0.0
H1323 H 0.62732 0.57007 0.68468 0.0
H1324 H 0.59951 0.51904 0.37733 0.0
H1325 H 0.68 0.56171 0.46161 0.0
H1326 H 0.67175 0.57047 0.22439 0.0
H1327 H 0.66515 0.51167 0.97981 0.0
H1328 H 0.62248 0.49173 0.31439 0.0
H1329 H 0.65783 0.48864 0.6534 0.0
H1330 H 0.61139 0.4687 0.70122 0.0
H1331 H 0.59467 0.49351 0.81178 0.0
H1332 H 0.72439 0.60028 0.5804 0.0
H1333 H 0.79779 0.64456 0.74105 0.0
H1334 H 0.74593 0.5721 0.89698 0.0
Cd1335 Cd 0.19742 0.301 0.5241 0.0
C1336 C 0.1261 0.26547 0.52066 0.0
C1337 C 0.25144 0.21071 0.31784 0.0
O1338 O 0.25346 0.20104 0.21309 0.0
Cd1339 Cd 0.15579 0.30101 0.73434 0.0
C1340 C 0.27378 0.22685 0.39389 0.0
C1341 C 0.30857 0.25299 0.58029 0.0
C1342 C 0.28375 0.24865 0.58539 0.0
N1343 N 0.26821 0.23642 0.49169 0.0
C1344 C 0.29855 0.23122 0.38092 0.0
C1345 C 0.31608 0.24452 0.47581 0.0
Co1346 Co 0.23421 0.22347 0.52179 0.0
C1347 C 0.27037 0.25155 0.69194 0.0
O1348 O 0.28186 0.26179 0.79583 0.0
C1349 C 0.22881 0.24285 0.77053 0.0
C1350 C 0.2223 0.26162 0.75518 0.0
C1351 C 0.2054 0.26368 0.83546 0.0
C1352 C 0.19593 0.24732 0.93734 0.0
C1353 C 0.20404 0.2296 0.96002 0.0
C1354 C 0.22032 0.22727 0.87508 0.0
C1355 C 0.19671 0.28172 0.80319 0.0
C1356 C 0.20898 0.20385 0.27129 0.0
C1357 C 0.2154 0.21658 0.157 0.0
C1358 C 0.18326 0.18722 0.29759 0.0
C1359 C 0.16439 0.18491 0.21609 0.0
C1360 C 0.17093 0.1988 0.1065 0.0
C1361 C 0.19658 0.21451 0.07522 0.0
N1362 N 0.22875 0.20789 0.35802 0.0
N1363 N 0.24464 0.24035 0.68015 0.0
N1364 N 0.23319 0.25248 0.45288 0.0
C1365 C 0.25451 0.27489 0.40514 0.0
C1366 C 0.25764 0.279 0.27832 0.0
C1367 C 0.27164 0.29336 0.48575 0.0
C1368 C 0.27891 0.30075 0.23117 0.0
H1369 H 0.24301 0.26587 0.21722 0.0
C1370 C 0.29685 0.31842 0.31356 0.0
C1371 C 0.29263 0.31535 0.44074 0.0
C1372 C 0.28111 0.30631 0.09763 0.0
H1373 H 0.26844 0.29095 0.58366 0.0
H1374 H 0.31269 0.33582 0.27892 0.0
C1375 C 0.30866 0.33611 0.52622 0.0
O1376 O 0.29742 0.33005 0.05725 0.0
O1377 O 0.26754 0.28984 0.02409 0.0
O1378 O 0.29899 0.34033 0.61487 0.0
O1379 O 0.3338 0.35098 0.5066 0.0
H1380 H 0.29735 0.33509 0.97303 0.0
H1381 H 0.34253 0.34714 0.44364 0.0
N1382 N 0.20037 0.2106 0.55355 0.0
C1383 C 0.18899 0.18886 0.61696 0.0
C1384 C 0.16385 0.17963 0.65468 0.0
C1385 C 0.1521 0.19409 0.62465 0.0
C1386 C 0.16551 0.21731 0.55929 0.0
C1387 C 0.19056 0.22537 0.52428 0.0
N1388 N 0.23031 0.19257 0.59827 0.0
C1389 C 0.20591 0.17823 0.64047 0.0
O1390 O 0.19827 0.15686 0.70068 0.0
C1391 C 0.20935 0.24955 0.46484 0.0
O1392 O 0.22331 0.34835 0.54386 0.0
O1393 O 0.22939 0.33132 0.38291 0.0
C1394 C 0.25004 0.18611 0.61585 0.0
C1395 C 0.26897 0.19848 0.70773 0.0
C1396 C 0.29169 0.19763 0.70238 0.0
C1397 C 0.29367 0.18187 0.61605 0.0
C1398 C 0.27376 0.16649 0.53688 0.0
C1399 C 0.25217 0.16932 0.53287 0.0
O1400 O 0.14949 0.27623 0.48802 0.0
O1401 O 0.12049 0.26746 0.63087 0.0
O1402 O 0.21061 0.30011 0.73306 0.0
O1403 O 0.17354 0.27526 0.81496 0.0
O1404 O 0.20342 0.26692 0.42112 0.0
C1405 C 0.16426 0.33018 0.45827 0.0
O1406 O 0.1617 0.33329 0.57226 0.0
O1407 O 0.1727 0.31588 0.42379 0.0
C1408 C 0.23407 0.35157 0.43992 0.0
H1409 H 0.3211 0.26093 0.65799 0.0
H1410 H 0.30388 0.22369 0.30353 0.0
H1411 H 0.33514 0.2474 0.47075 0.0
H1412 H 0.22975 0.27411 0.67683 0.0
H1413 H 0.18304 0.24893 1.0007 0.0
H1414 H 0.22626 0.21336 0.88976 0.0
H1415 H 0.23517 0.22881 0.13267 0.0
H1416 H 0.17763 0.17576 0.37976 0.0
H1417 H 0.156 0.19689 0.04536 0.0
H1418 H 0.15371 0.16214 0.70651 0.0
H1419 H 0.13274 0.18747 0.65355 0.0
H1420 H 0.15675 0.22865 0.53922 0.0
H1421 H 0.2668 0.20997 0.77704 0.0
H1422 H 0.31148 0.1821 0.60858 0.0
H1423 H 0.23761 0.15929 0.46418 0.0
Cd1424 Cd 0.69628 0.89252 0.48708 0.0
C1425 C 0.72384 0.84955 0.54306 0.0
C1426 C 0.78787 0.03954 0.29069 0.0
O1427 O 0.79749 0.05039 0.18426 0.0
Cd1428 Cd 0.68766 0.85978 0.64494 0.0
C1429 C 0.77256 0.04702 0.36548 0.0
C1430 C 0.74752 0.05795 0.54895 0.0
C1431 C 0.75123 0.03711 0.55813 0.0
N1432 N 0.76282 0.0326 0.4654 0.0
C1433 C 0.76896 0.06785 0.34877 0.0
C1434 C 0.75616 0.0732 0.44207 0.0
Co1435 Co 0.77486 0.0109 0.49927 0.0
C1436 C 0.74817 0.02148 0.6675 0.0
O1437 O 0.73798 0.0235 0.7699 0.0
C1438 C 0.75499 0.98761 0.74913 0.0
C1439 C 0.73576 0.96306 0.72828 0.0
C1440 C 0.73336 0.94265 0.79747 0.0
C1441 C 0.74904 0.94758 0.90109 0.0
C1442 C 0.76663 0.97306 0.93381 0.0
C1443 C 0.77009 0.99301 0.85453 0.0
C1444 C 0.71577 0.91709 0.7478 0.0
C1445 C 0.79232 0.00233 0.24824 0.0
C1446 C 0.77926 0.99612 0.13471 0.0
C1447 C 0.80818 0.9923 0.27415 0.0
C1448 C 0.8096 0.97522 0.19269 0.0
C1449 C 0.79568 0.96831 0.08309 0.0
C1450 C 0.78075 0.97914 0.05198 0.0
N1451 N 0.78974 0.01926 0.33344 0.0
N1452 N 0.759 0.00654 0.65944 0.0
N1453 N 0.74497 0.98067 0.43538 0.0
C1454 C 0.7226 0.97966 0.38723 0.0
C1455 C 0.71717 0.97594 0.26146 0.0
C1456 C 0.70479 0.97974 0.46771 0.0
C1457 C 0.69452 0.9736 0.21494 0.0
H1458 H 0.73006 0.97379 0.20114 0.0
C1459 C 0.67708 0.9744 0.29727 0.0
C1460 C 0.68172 0.97631 0.42422 0.0
C1461 C 0.68806 0.96806 0.08285 0.0
H1462 H 0.70831 0.9816 0.5652 0.0
H1463 H 0.65895 0.97122 0.264 0.0
C1464 C 0.66173 0.97236 0.51317 0.0
O1465 O 0.66412 0.96013 0.04394 0.0
O1466 O 0.70412 0.96997 0.00911 0.0
O1467 O 0.65934 0.96058 0.60789 0.0
O1468 O 0.64571 0.98113 0.491 0.0
H1469 H 0.65898 0.95493 0.95982 0.0
H1470 H 0.64846 0.99249 0.42376 0.0
N1471 N 0.78688 0.98933 0.53443 0.0
C1472 C 0.80898 0.99961 0.59475 0.0
C1473 C 0.81795 0.98348 0.63259 0.0
C1474 C 0.80296 0.95721 0.60531 0.0
C1475 C 0.77951 0.94753 0.54216 0.0
C1476 C 0.7717 0.9647 0.50697 0.0
N1477 N 0.8065 0.03782 0.57092 0.0
C1478 C 0.8204 0.02736 0.61426 0.0
O1479 O 0.84196 0.04092 0.67339 0.0
C1480 C 0.74749 0.95947 0.44837 0.0
O1481 O 0.64985 0.862 0.55063 0.0
O1482 O 0.65654 0.88809 0.40326 0.0
C1483 C 0.81328 0.06406 0.59055 0.0
C1484 C 0.80146 0.0707 0.68501 0.0
C1485 C 0.80274 0.0945 0.6824 0.0
C1486 C 0.81868 0.11241 0.59721 0.0
C1487 C 0.83366 0.10772 0.51604 0.0
C1488 C 0.83016 0.08308 0.50843 0.0
O1489 O 0.71997 0.86603 0.48803 0.0
O1490 O 0.71316 0.84076 0.64569 0.0
O1491 O 0.69948 0.91533 0.6706 0.0
O1492 O 0.72066 0.89918 0.75175 0.0
O1493 O 0.73008 0.93617 0.40337 0.0
C1494 C 0.67762 0.85358 0.30516 0.0
O1495 O 0.67372 0.84605 0.41727 0.0
O1496 O 0.69199 0.87696 0.28119 0.0
C1497 C 0.64043 0.86964 0.46788 0.0
H1498 H 0.73954 0.06312 0.6244 0.0
H1499 H 0.77659 0.08012 0.26933 0.0
H1500 H 0.75371 0.0896 0.43367 0.0
H1501 H 0.72358 0.95971 0.65057 0.0
H1502 H 0.74698 0.93198 0.95765 0.0
H1503 H 0.78442 0.0125 0.87428 0.0
H1504 H 0.76743 0.00417 0.11114 0.0
H1505 H 0.81981 0.99788 0.35574 0.0
H1506 H 0.79716 0.95512 0.02141 0.0
H1507 H 0.8357 0.99077 0.68211 0.0
H1508 H 0.8094 0.94431 0.63424 0.0
H1509 H 0.76783 0.92739 0.52368 0.0
H1510 H 0.79018 0.05705 0.75474 0.0
H1511 H 0.81895 0.13027 0.59235 0.0
H1512 H 0.83988 0.07852 0.43815 0.0
Cd1513 Cd 0.10741 0.80361 0.5336 0.0
C1514 C 0.14252 0.87488 0.52626 0.0
C1515 C 0.96313 0.75279 0.34314 0.0
O1516 O 0.95163 0.751 0.23808 0.0
Cd1517 Cd 0.14963 0.84543 0.73874 0.0
C1518 C 0.95608 0.7304 0.42072 0.0
C1519 C 0.94766 0.69506 0.60449 0.0
C1520 C 0.96809 0.71989 0.61042 0.0
N1521 N 0.97126 0.73562 0.51798 0.0
C1522 C 0.93551 0.70571 0.40742 0.0
C1523 C 0.93144 0.68789 0.50086 0.0
Co1524 Co 0.99394 0.7693 0.54492 0.0
C1525 C 0.98527 0.73292 0.71474 0.0
O1526 O 0.98435 0.72132 0.81774 0.0
C1527 C 0.01898 0.77409 0.79236 0.0
C1528 C 0.04411 0.78046 0.77422 0.0
C1529 C 0.06341 0.79687 0.85416 0.0
C1530 C 0.05696 0.80613 0.95868 0.0
C1531 C 0.0312 0.79817 0.98405 0.0
C1532 C 0.01229 0.78228 0.89926 0.0
C1533 C 0.08994 0.80528 0.81782 0.0
C1534 C 1.00001 0.79445 0.29394 0.0
C1535 C 0.00609 0.78754 0.1801 0.0
C1536 C 0.01018 0.82035 0.31988 0.0
C1537 C 0.02769 0.83882 0.23973 0.0
C1538 C 0.03496 0.83175 0.13153 0.0
C1539 C 0.02393 0.80599 0.0997 0.0
N1540 N 0.98378 0.77511 0.38166 0.0
N1541 N 0.00033 0.75857 0.70252 0.0
N1542 N 0.02265 0.76816 0.47255 0.0
C1543 C 0.0225 0.74581 0.43016 0.0
C1544 C 0.02121 0.74054 0.3045 0.0
C1545 C 0.0254 0.73006 0.51399 0.0
C1546 C 0.0215 0.71886 0.26222 0.0
H1547 H 0.02124 0.75395 0.23988 0.0
C1548 C 0.02339 0.7026 0.34819 0.0
C1549 C 0.0263 0.7087 0.47368 0.0
C1550 C 0.02272 0.71471 0.12878 0.0
H1551 H 0.02747 0.7346 0.61069 0.0
H1552 H 0.02475 0.68643 0.31669 0.0
C1553 C 0.03254 0.69419 0.56194 0.0
O1554 O 0.02996 0.69818 0.09018 0.0
O1555 O 0.01834 0.72697 0.0534 0.0
O1556 O 0.0476 0.70536 0.64502 0.0
O1557 O 0.02254 0.66885 0.55061 0.0
H1558 H 0.03413 0.69727 0.00537 0.0
H1559 H 0.0097 0.659 0.49021 0.0
N1560 N 0.01656 0.80292 0.57336 0.0
C1561 C 0.00767 0.81563 0.6368 0.0
C1562 C 0.02479 0.84083 0.66963 0.0
C1563 C 0.05059 0.85124 0.6345 0.0
C1564 C 0.05881 0.83651 0.56876 0.0
C1565 C 0.04065 0.81149 0.53885 0.0
N1566 N 0.96856 0.77536 0.62471 0.0
C1567 C 0.98019 0.80009 0.66426 0.0
O1568 O 0.96784 0.80919 0.72557 0.0
C1569 C 0.04431 0.79161 0.47946 0.0
O1570 O 0.12944 0.77814 0.5452 0.0
O1571 O 0.10418 0.77091 0.39217 0.0
C1572 C 0.94201 0.75732 0.64842 0.0
C1573 C 0.93458 0.73858 0.74135 0.0
C1574 C 0.90875 0.72074 0.76092 0.0
C1575 C 0.89044 0.72396 0.69835 0.0
C1576 C 0.89714 0.74093 0.5991 0.0
C1577 C 0.9231 0.75778 0.57535 0.0
O1578 O 0.12985 0.85152 0.49291 0.0
O1579 O 0.15056 0.88038 0.6359 0.0
O1580 O 0.09375 0.79123 0.74518 0.0
O1581 O 0.10691 0.82839 0.82845 0.0
O1582 O 0.06694 0.79633 0.43189 0.0
C1583 C 0.16929 0.83722 0.45977 0.0
O1584 O 0.1755 0.83973 0.57307 0.0
O1585 O 0.14637 0.82867 0.42822 0.0
C1586 C 0.12056 0.76669 0.44373 0.0
H1587 H 0.94359 0.68205 0.67993 0.0
H1588 H 0.92267 0.70053 0.33001 0.0
H1589 H 0.91533 0.6688 0.49486 0.0
H1590 H 0.04882 0.77329 0.69386 0.0
H1591 H 0.07175 0.8188 0.02149 0.0
H1592 H 0.99253 0.77653 0.91546 0.0
H1593 H 0.99741 0.76771 0.15485 0.0
H1594 H 0.00454 0.82643 0.40116 0.0
H1595 H 0.04868 0.8464 0.07145 0.0
H1596 H 0.01861 0.85201 0.72115 0.0
H1597 H 0.06426 0.87063 0.65938 0.0
H1598 H 0.0786 0.84429 0.5443 0.0
H1599 H 0.94861 0.73755 0.79759 0.0
H1600 H 0.87067 0.71058 0.71584 0.0
H1601 H 0.92868 0.77067 0.4978 0.0
loop_
_geom_bond_atom_site_label_1
_geom_bond_atom_site_label_2
_geom_bond_distance
_geom_bond_site_symmetry_2
_ccdc_geom_bond_type
Cd0 O57 2.350 . S
Cd0 O58 2.277 . S
Cd0 O65 2.173 . S
Cd0 O67 2.263 . S
Cd0 O69 2.366 . S
Cd0 O72 2.329 . S
C1 O65 1.277 . S
C1 O66 1.230 . S
C2 O3 1.246 . S
C2 C5 1.481 . S
C2 N27 1.329 . S
O3 C2 1.246 . S
Cd4 O66 2.250 1_556 S
Cd4 O68 2.308 . S
Cd4 O71 2.352 1_556 S
C5 C2 1.481 . S
C5 N8 1.327 . S
C5 C9 1.407 . S
C6 C7 1.346 . S
C6 C10 1.390 . S
C6 H74 0.930 . S
C7 C6 1.346 . S
C7 N8 1.342 . S
C7 C12 1.516 1_554 S
N8 C5 1.327 . S
N8 C7 1.342 . S
N8 Co11 1.864 . S
C9 C5 1.407 . S
C9 C10 1.364 . S
C9 H75 0.930 . S
C10 C6 1.390 . S
C10 C9 1.364 . S
C10 H76 0.931 1_455 S
Co11 N8 1.864 . S
Co11 N27 1.955 . S
Co11 N28 1.958 . S
Co11 N29 1.953 . S
Co11 N47 1.869 . S
Co11 N53 1.974 . S
C12 C7 1.516 1_556 S
C12 O13 1.238 . S
C12 N28 1.324 1_556 S
O13 C12 1.238 . S
C14 C15 1.394 . S
C14 C19 1.395 . S
C14 N28 1.427 1_556 S
C15 C14 1.394 . S
C15 C16 1.380 . S
C15 H77 0.929 1_556 S
C16 C15 1.380 . S
C16 C17 1.384 . S
C16 C20 1.495 . S
C17 C16 1.384 . S
C17 C18 1.382 . S
C17 H78 0.930 . S
C18 C17 1.382 . S
C18 C19 1.398 . S
C19 C14 1.395 . S
C19 C18 1.398 . S
C19 H79 0.930 . S
C20 C16 1.495 . S
C20 O67 1.258 1_556 S
C20 O68 1.274 . S
C21 C22 1.385 . S
C21 C23 1.381 . S
C21 N27 1.432 . S
C22 C21 1.385 . S
C22 C26 1.388 . S
C22 H80 0.929 . S
C23 C21 1.381 . S
C23 C24 1.371 . S
C23 H81 0.932 . S
C24 C23 1.371 . S
C24 C25 1.400 . S
C25 C24 1.400 . S
C25 C26 1.351 . S
C25 H82 0.930 . S
C26 C22 1.388 . S
C26 C25 1.351 . S
N27 C2 1.329 . S
N27 Co11 1.955 . S
N27 C21 1.432 . S
N28 Co11 1.958 . S
N28 C12 1.324 1_554 S
N28 C14 1.427 1_554 S
N29 Co11 1.953 . S
N29 C30 1.436 . S
N29 C56 1.316 . S
C30 N29 1.436 . S
C30 C31 1.421 . S
C30 C32 1.360 . S
C31 C30 1.421 . S
C31 C33 1.379 . S
C31 H34 0.929 . S
C32 C30 1.360 . S
C32 C36 1.393 . S
C32 H38 0.931 . S
C33 C31 1.379 . S
C33 C35 1.417 . S
C33 C37 1.505 . S
H34 C31 0.929 . S
C35 C33 1.417 . S
C35 C36 1.352 . S
C35 H39 0.929 . S
C36 C32 1.393 . S
C36 C35 1.352 . S
C36 C40 1.482 . S
C37 C33 1.505 . S
C37 O41 1.259 . S
C37 O42 1.229 . S
H38 C32 0.931 . S
H39 C35 0.929 . S
C40 C36 1.482 . S
C40 O43 1.207 . S
C40 O44 1.289 1_455 S
O41 C37 1.259 . S
O41 H45 0.822 . S
O42 C37 1.229 . S
O43 C40 1.207 . S
O44 C40 1.289 1_655 S
O44 H46 0.819 . S
H45 O41 0.822 . S
H46 O44 0.819 . S
N47 Co11 1.869 . S
N47 C48 1.330 . S
N47 C52 1.325 . S
C48 N47 1.330 . S
C48 C49 1.359 . S
C48 C54 1.504 . S
C49 C48 1.359 . S
C49 C50 1.366 . S
C49 H83 0.929 . S
C50 C49 1.366 . S
C50 C51 1.415 . S
C50 H84 0.932 . S
C51 C50 1.415 . S
C51 C52 1.366 . S
C51 H85 0.931 . S
C52 N47 1.325 . S
C52 C51 1.366 . S
C52 C56 1.516 . S
N53 Co11 1.974 . S
N53 C54 1.309 . S
N53 C59 1.423 . S
C54 C48 1.504 . S
C54 N53 1.309 . S
C54 O55 1.258 . S
O55 C54 1.258 . S
C56 N29 1.316 . S
C56 C52 1.516 . S
C56 O69 1.263 . S
O57 Cd0 2.350 . S
O57 C73 1.270 . S
O58 Cd0 2.277 . S
O58 C73 1.248 . S
C59 N53 1.423 . S
C59 C60 1.370 1_554 S
C59 C64 1.403 . S
C60 C59 1.370 1_556 S
C60 C61 1.389 . S
C60 H86 0.931 . S
C61 C60 1.389 . S
C61 C62 1.389 1_556 S
C62 C61 1.389 1_554 S
C62 C63 1.379 . S
C62 H87 0.929 . S
C63 C62 1.379 . S
C63 C64 1.405 . S
C64 C59 1.403 . S
C64 C63 1.405 . S
C64 H88 0.932 . S
O65 Cd0 2.173 . S
O65 C1 1.277 . S
O66 C1 1.230 . S
O66 Cd4 2.250 1_554 S
O67 Cd0 2.263 . S
O67 C20 1.258 1_554 S
O68 Cd4 2.308 . S
O68 C20 1.274 . S
O69 Cd0 2.366 . S
O69 C56 1.263 . S
C70 O71 1.235 . S
C70 O72 1.270 . S
O71 Cd4 2.352 1_554 S
O71 C70 1.235 . S
O72 Cd0 2.329 . S
O72 C70 1.270 . S
C73 O57 1.270 . S
C73 O58 1.248 . S
H74 C6 0.930 . S
H75 C9 0.930 . S
H76 C10 0.931 1_655 S
H77 C15 0.929 1_554 S
H78 C17 0.930 . S
H79 C19 0.930 . S
H80 C22 0.929 . S
H81 C23 0.932 . S
H82 C25 0.930 . S
H83 C49 0.929 . S
H84 C50 0.932 . S
H85 C51 0.931 . S
H86 C60 0.931 . S
H87 C62 0.929 . S
H88 C64 0.932 . S
Cd89 O146 2.350 . S
Cd89 O147 2.277 . S
Cd89 O154 2.173 . S
Cd89 O156 2.263 . S
Cd89 O158 2.366 . S
Cd89 O161 2.329 . S
C90 O154 1.277 . S
C90 O155 1.230 . S
C91 O92 1.246 . S
C91 C94 1.481 . S
C91 N116 1.329 . S
O92 C91 1.246 . S
Cd93 O155 2.250 1_556 S
Cd93 O157 2.308 . S
Cd93 O160 2.352 1_556 S
C94 C91 1.481 . S
C94 N97 1.327 . S
C94 C98 1.407 . S
C95 C96 1.346 . S
C95 C99 1.390 . S
C95 H163 0.930 . S
C96 C95 1.346 . S
C96 N97 1.342 . S
C96 C101 1.516 1_554 S
N97 C94 1.327 . S
N97 C96 1.342 . S
N97 Co100 1.864 . S
C98 C94 1.407 . S
C98 C99 1.364 . S
C98 H164 0.930 . S
C99 C95 1.390 . S
C99 C98 1.364 . S
C99 H165 0.931 . S
Co100 N97 1.864 . S
Co100 N116 1.955 . S
Co100 N117 1.958 . S
Co100 N118 1.953 . S
Co100 N136 1.869 . S
Co100 N142 1.974 . S
C101 C96 1.516 1_556 S
C101 O102 1.238 . S
C101 N117 1.324 1_556 S
O102 C101 1.238 . S
C103 C104 1.394 . S
C103 C108 1.395 . S
C103 N117 1.427 1_556 S
C104 C103 1.394 . S
C104 C105 1.380 . S
C104 H166 0.929 1_556 S
C105 C104 1.380 . S
C105 C106 1.384 . S
C105 C109 1.495 . S
C106 C105 1.384 . S
C106 C107 1.382 . S
C106 H167 0.930 . S
C107 C106 1.382 . S
C107 C108 1.398 . S
C108 C103 1.395 . S
C108 C107 1.398 . S
C108 H168 0.930 . S
C109 C105 1.495 . S
C109 O156 1.258 1_556 S
C109 O157 1.274 . S
C110 C111 1.385 . S
C110 C112 1.381 . S
C110 N116 1.432 . S
C111 C110 1.385 . S
C111 C115 1.388 . S
C111 H169 0.929 . S
C112 C110 1.381 . S
C112 C113 1.371 . S
C112 H170 0.932 . S
C113 C112 1.371 . S
C113 C114 1.400 . S
C114 C113 1.400 . S
C114 C115 1.351 . S
C114 H171 0.930 . S
C115 C111 1.388 . S
C115 C114 1.351 . S
N116 C91 1.329 . S
N116 Co100 1.955 . S
N116 C110 1.432 . S
N117 Co100 1.958 . S
N117 C101 1.324 1_554 S
N117 C103 1.427 1_554 S
N118 Co100 1.953 . S
N118 C119 1.436 . S
N118 C145 1.316 . S
C119 N118 1.436 . S
C119 C120 1.421 . S
C119 C121 1.360 . S
C120 C119 1.421 . S
C120 C122 1.379 . S
C120 H123 0.929 . S
C121 C119 1.360 . S
C121 C125 1.393 . S
C121 H127 0.931 . S
C122 C120 1.379 . S
C122 C124 1.417 . S
C122 C126 1.505 . S
H123 C120 0.929 . S
C124 C122 1.417 . S
C124 C125 1.352 . S
C124 H128 0.929 . S
C125 C121 1.393 . S
C125 C124 1.352 . S
C125 C129 1.482 . S
C126 C122 1.505 . S
C126 O130 1.259 . S
C126 O131 1.229 . S
H127 C121 0.931 . S
H128 C124 0.929 . S
C129 C125 1.482 . S
C129 O132 1.207 . S
C129 O133 1.289 . S
O130 C126 1.259 . S
O130 H134 0.822 . S
O131 C126 1.229 . S
O132 C129 1.207 . S
O133 C129 1.289 . S
O133 H135 0.819 . S
H134 O130 0.822 . S
H135 O133 0.819 . S
N136 Co100 1.869 . S
N136 C137 1.330 . S
N136 C141 1.325 . S
C137 N136 1.330 . S
C137 C138 1.359 . S
C137 C143 1.504 . S
C138 C137 1.359 . S
C138 C139 1.366 . S
C138 H172 0.929 . S
C139 C138 1.366 . S
C139 C140 1.415 . S
C139 H173 0.932 . S
C140 C139 1.415 . S
C140 C141 1.366 . S
C140 H174 0.931 . S
C141 N136 1.325 . S
C141 C140 1.366 . S
C141 C145 1.516 . S
N142 Co100 1.974 . S
N142 C143 1.309 . S
N142 C148 1.423 . S
C143 C137 1.504 . S
C143 N142 1.309 . S
C143 O144 1.258 . S
O144 C143 1.258 . S
C145 N118 1.316 . S
C145 C141 1.516 . S
C145 O158 1.263 . S
O146 Cd89 2.350 . S
O146 C162 1.270 . S
O147 Cd89 2.277 . S
O147 C162 1.248 . S
C148 N142 1.423 . S
C148 C149 1.370 1_554 S
C148 C153 1.403 . S
C149 C148 1.370 1_556 S
C149 C150 1.389 . S
C149 H175 0.931 . S
C150 C149 1.389 . S
C150 C151 1.389 1_556 S
C151 C150 1.389 1_554 S
C151 C152 1.379 . S
C151 H176 0.929 . S
C152 C151 1.379 . S
C152 C153 1.405 . S
C153 C148 1.403 . S
C153 C152 1.405 . S
C153 H177 0.932 . S
O154 Cd89 2.173 . S
O154 C90 1.277 . S
O155 C90 1.230 . S
O155 Cd93 2.250 1_554 S
O156 Cd89 2.263 . S
O156 C109 1.258 1_554 S
O157 Cd93 2.308 . S
O157 C109 1.274 . S
O158 Cd89 2.366 . S
O158 C145 1.263 . S
C159 O160 1.235 . S
C159 O161 1.270 . S
O160 Cd93 2.352 1_554 S
O160 C159 1.235 . S
O161 Cd89 2.329 . S
O161 C159 1.270 . S
C162 O146 1.270 . S
C162 O147 1.248 . S
H163 C95 0.930 . S
H164 C98 0.930 . S
H165 C99 0.931 . S
H166 C104 0.929 1_554 S
H167 C106 0.930 . S
H168 C108 0.930 . S
H169 C111 0.929 . S
H170 C112 0.932 . S
H171 C114 0.930 . S
H172 C138 0.929 . S
H173 C139 0.932 . S
H174 C140 0.931 . S
H175 C149 0.931 . S
H176 C151 0.929 . S
H177 C153 0.932 . S
Cd178 O235 2.350 . S
Cd178 O236 2.277 . S
Cd178 O243 2.173 . S
Cd178 O245 2.263 . S
Cd178 O247 2.366 . S
Cd178 O250 2.329 . S
C179 O243 1.277 . S
C179 O244 1.230 . S
C180 O181 1.246 . S
C180 C183 1.481 . S
C180 N205 1.329 . S
O181 C180 1.246 . S
Cd182 O244 2.250 1_556 S
Cd182 O246 2.308 . S
Cd182 O249 2.352 1_556 S
C183 C180 1.481 . S
C183 N186 1.327 . S
C183 C187 1.407 . S
C184 C185 1.346 . S
C184 C188 1.390 . S
C184 H252 0.930 . S
C185 C184 1.346 . S
C185 N186 1.342 . S
C185 C190 1.516 1_554 S
N186 C183 1.327 . S
N186 C185 1.342 . S
N186 Co189 1.864 . S
C187 C183 1.407 . S
C187 C188 1.364 . S
C187 H253 0.930 . S
C188 C184 1.390 . S
C188 C187 1.364 . S
C188 H254 0.931 1_565 S
Co189 N186 1.864 . S
Co189 N205 1.955 . S
Co189 N206 1.958 . S
Co189 N207 1.953 . S
Co189 N225 1.869 . S
Co189 N231 1.974 . S
C190 C185 1.516 1_556 S
C190 O191 1.238 . S
C190 N206 1.324 1_556 S
O191 C190 1.238 . S
C192 C193 1.394 . S
C192 C197 1.395 . S
C192 N206 1.427 1_556 S
C193 C192 1.394 . S
C193 C194 1.380 . S
C193 H255 0.929 1_556 S
C194 C193 1.380 . S
C194 C195 1.384 . S
C194 C198 1.495 . S
C195 C194 1.384 . S
C195 C196 1.382 . S
C195 H256 0.930 . S
C196 C195 1.382 . S
C196 C197 1.398 . S
C197 C192 1.395 . S
C197 C196 1.398 . S
C197 H257 0.930 . S
C198 C194 1.495 . S
C198 O245 1.258 1_556 S
C198 O246 1.274 . S
C199 C200 1.385 . S
C199 C201 1.381 . S
C199 N205 1.432 . S
C200 C199 1.385 . S
C200 C204 1.388 . S
C200 H258 0.929 . S
C201 C199 1.381 . S
C201 C202 1.371 . S
C201 H259 0.932 . S
C202 C201 1.371 . S
C202 C203 1.400 . S
C203 C202 1.400 . S
C203 C204 1.351 . S
C203 H260 0.930 . S
C204 C200 1.388 . S
C204 C203 1.351 . S
N205 C180 1.329 . S
N205 Co189 1.955 . S
N205 C199 1.432 . S
N206 Co189 1.958 . S
N206 C190 1.324 1_554 S
N206 C192 1.427 1_554 S
N207 Co189 1.953 . S
N207 C208 1.436 . S
N207 C234 1.316 . S
C208 N207 1.436 . S
C208 C209 1.421 . S
C208 C210 1.360 . S
C209 C208 1.421 . S
C209 C211 1.379 . S
C209 H212 0.929 . S
C210 C208 1.360 . S
C210 C214 1.393 . S
C210 H216 0.931 . S
C211 C209 1.379 . S
C211 C213 1.417 . S
C211 C215 1.505 . S
H212 C209 0.929 . S
C213 C211 1.417 . S
C213 C214 1.352 . S
C213 H217 0.929 . S
C214 C210 1.393 . S
C214 C213 1.352 . S
C214 C218 1.482 . S
C215 C211 1.505 . S
C215 O219 1.259 . S
C215 O220 1.229 . S
H216 C210 0.931 . S
H217 C213 0.929 . S
C218 C214 1.482 . S
C218 O221 1.207 . S
C218 O222 1.289 1_565 S
O219 C215 1.259 . S
O219 H223 0.822 . S
O220 C215 1.229 . S
O221 C218 1.207 . S
O222 C218 1.289 1_545 S
O222 H224 0.819 . S
H223 O219 0.822 . S
H224 O222 0.819 . S
N225 Co189 1.869 . S
N225 C226 1.330 . S
N225 C230 1.325 . S
C226 N225 1.330 . S
C226 C227 1.359 . S
C226 C232 1.504 . S
C227 C226 1.359 . S
C227 C228 1.366 . S
C227 H261 0.929 . S
C228 C227 1.366 . S
C228 C229 1.415 . S
C228 H262 0.932 . S
C229 C228 1.415 . S
C229 C230 1.366 . S
C229 H263 0.931 . S
C230 N225 1.325 . S
C230 C229 1.366 . S
C230 C234 1.516 . S
N231 Co189 1.974 . S
N231 C232 1.309 . S
N231 C237 1.423 . S
C232 C226 1.504 . S
C232 N231 1.309 . S
C232 O233 1.258 . S
O233 C232 1.258 . S
C234 N207 1.316 . S
C234 C230 1.516 . S
C234 O247 1.263 . S
O235 Cd178 2.350 . S
O235 C251 1.270 . S
O236 Cd178 2.277 . S
O236 C251 1.248 . S
C237 N231 1.423 . S
C237 C238 1.370 1_554 S
C237 C242 1.403 . S
C238 C237 1.370 1_556 S
C238 C239 1.389 . S
C238 H264 0.931 . S
C239 C238 1.389 . S
C239 C240 1.389 1_556 S
C240 C239 1.389 1_554 S
C240 C241 1.379 . S
C240 H265 0.929 . S
C241 C240 1.379 . S
C241 C242 1.405 . S
C242 C237 1.403 . S
C242 C241 1.405 . S
C242 H266 0.932 . S
O243 Cd178 2.173 . S
O243 C179 1.277 . S
O244 C179 1.230 . S
O244 Cd182 2.250 1_554 S
O245 Cd178 2.263 . S
O245 C198 1.258 1_554 S
O246 Cd182 2.308 . S
O246 C198 1.274 . S
O247 Cd178 2.366 . S
O247 C234 1.263 . S
C248 O249 1.235 . S
C248 O250 1.270 . S
O249 Cd182 2.352 1_554 S
O249 C248 1.235 . S
O250 Cd178 2.329 . S
O250 C248 1.270 . S
C251 O235 1.270 . S
C251 O236 1.248 . S
H252 C184 0.930 . S
H253 C187 0.930 . S
H254 C188 0.931 1_545 S
H255 C193 0.929 1_554 S
H256 C195 0.930 . S
H257 C197 0.930 . S
H258 C200 0.929 . S
H259 C201 0.932 . S
H260 C203 0.930 . S
H261 C227 0.929 . S
H262 C228 0.932 . S
H263 C229 0.931 . S
H264 C238 0.931 . S
H265 C240 0.929 . S
H266 C242 0.932 . S
Cd267 O324 2.350 . S
Cd267 O325 2.277 . S
Cd267 O332 2.173 . S
Cd267 O334 2.263 . S
Cd267 O336 2.366 . S
Cd267 O339 2.329 . S
C268 O332 1.277 . S
C268 O333 1.230 . S
C269 O270 1.246 . S
C269 C272 1.481 . S
C269 N294 1.329 . S
O270 C269 1.246 . S
Cd271 O333 2.250 1_554 S
Cd271 O335 2.308 . S
Cd271 O338 2.352 1_554 S
C272 C269 1.481 . S
C272 N275 1.327 . S
C272 C276 1.407 . S
C273 C274 1.346 . S
C273 C277 1.390 . S
C273 H341 0.930 . S
C274 C273 1.346 . S
C274 N275 1.342 . S
C274 C279 1.516 1_556 S
N275 C272 1.327 . S
N275 C274 1.342 . S
N275 Co278 1.864 . S
C276 C272 1.407 . S
C276 C277 1.364 . S
C276 H342 0.930 . S
C277 C273 1.390 . S
C277 C276 1.364 . S
C277 H343 0.931 1_655 S
Co278 N275 1.864 . S
Co278 N294 1.955 . S
Co278 N295 1.958 . S
Co278 N296 1.953 . S
Co278 N314 1.869 . S
Co278 N320 1.974 . S
C279 C274 1.516 1_554 S
C279 O280 1.238 . S
C279 N295 1.324 1_554 S
O280 C279 1.238 . S
C281 C282 1.394 . S
C281 C286 1.395 . S
C281 N295 1.427 1_554 S
C282 C281 1.394 . S
C282 C283 1.380 . S
C282 H344 0.929 1_554 S
C283 C282 1.380 . S
C283 C284 1.384 . S
C283 C287 1.495 . S
C284 C283 1.384 . S
C284 C285 1.382 . S
C284 H345 0.930 . S
C285 C284 1.382 . S
C285 C286 1.398 . S
C286 C281 1.395 . S
C286 C285 1.398 . S
C286 H346 0.930 . S
C287 C283 1.495 . S
C287 O334 1.258 1_554 S
C287 O335 1.274 . S
C288 C289 1.385 . S
C288 C290 1.381 . S
C288 N294 1.432 . S
C289 C288 1.385 . S
C289 C293 1.388 . S
C289 H347 0.929 . S
C290 C288 1.381 . S
C290 C291 1.371 . S
C290 H348 0.932 . S
C291 C290 1.371 . S
C291 C292 1.400 . S
C292 C291 1.400 . S
C292 C293 1.351 . S
C292 H349 0.930 . S
C293 C289 1.388 . S
C293 C292 1.351 . S
N294 C269 1.329 . S
N294 Co278 1.955 . S
N294 C288 1.432 . S
N295 Co278 1.958 . S
N295 C279 1.324 1_556 S
N295 C281 1.427 1_556 S
N296 Co278 1.953 . S
N296 C297 1.436 . S
N296 C323 1.316 . S
C297 N296 1.436 . S
C297 C298 1.421 . S
C297 C299 1.360 . S
C298 C297 1.421 . S
C298 C300 1.379 . S
C298 H301 0.929 . S
C299 C297 1.360 . S
C299 C303 1.393 . S
C299 H305 0.931 . S
C300 C298 1.379 . S
C300 C302 1.417 . S
C300 C304 1.505 . S
H301 C298 0.929 . S
C302 C300 1.417 . S
C302 C303 1.352 . S
C302 H306 0.929 . S
C303 C299 1.393 . S
C303 C302 1.352 . S
C303 C307 1.482 . S
C304 C300 1.505 . S
C304 O308 1.259 . S
C304 O309 1.229 . S
H305 C299 0.931 . S
H306 C302 0.929 . S
C307 C303 1.482 . S
C307 O310 1.207 . S
C307 O311 1.289 1_655 S
O308 C304 1.259 . S
O308 H312 0.822 . S
O309 C304 1.229 . S
O310 C307 1.207 . S
O311 C307 1.289 1_455 S
O311 H313 0.819 . S
H312 O308 0.822 . S
H313 O311 0.819 . S
N314 Co278 1.869 . S
N314 C315 1.330 . S
N314 C319 1.325 . S
C315 N314 1.330 . S
C315 C316 1.359 . S
C315 C321 1.504 . S
C316 C315 1.359 . S
C316 C317 1.366 . S
C316 H350 0.929 . S
C317 C316 1.366 . S
C317 C318 1.415 . S
C317 H351 0.932 . S
C318 C317 1.415 . S
C318 C319 1.366 . S
C318 H352 0.931 . S
C319 N314 1.325 . S
C319 C318 1.366 . S
C319 C323 1.516 . S
N320 Co278 1.974 . S
N320 C321 1.309 . S
N320 C326 1.423 . S
C321 C315 1.504 . S
C321 N320 1.309 . S
C321 O322 1.258 . S
O322 C321 1.258 . S
C323 N296 1.316 . S
C323 C319 1.516 . S
C323 O336 1.263 . S
O324 Cd267 2.350 . S
O324 C340 1.270 . S
O325 Cd267 2.277 . S
O325 C340 1.248 . S
C326 N320 1.423 . S
C326 C327 1.370 1_556 S
C326 C331 1.403 . S
C327 C326 1.370 1_554 S
C327 C328 1.389 . S
C327 H353 0.931 . S
C328 C327 1.389 . S
C328 C329 1.389 1_554 S
C329 C328 1.389 1_556 S
C329 C330 1.379 . S
C329 H354 0.929 . S
C330 C329 1.379 . S
C330 C331 1.405 . S
C331 C326 1.403 . S
C331 C330 1.405 . S
C331 H355 0.932 . S
O332 Cd267 2.173 . S
O332 C268 1.277 . S
O333 C268 1.230 . S
O333 Cd271 2.250 1_556 S
O334 Cd267 2.263 . S
O334 C287 1.258 1_556 S
O335 Cd271 2.308 . S
O335 C287 1.274 . S
O336 Cd267 2.366 . S
O336 C323 1.263 . S
C337 O338 1.235 . S
C337 O339 1.270 . S
O338 Cd271 2.352 1_556 S
O338 C337 1.235 . S
O339 Cd267 2.329 . S
O339 C337 1.270 . S
C340 O324 1.270 . S
C340 O325 1.248 . S
H341 C273 0.930 . S
H342 C276 0.930 . S
H343 C277 0.931 1_455 S
H344 C282 0.929 1_556 S
H345 C284 0.930 . S
H346 C286 0.930 . S
H347 C289 0.929 . S
H348 C290 0.932 . S
H349 C292 0.930 . S
H350 C316 0.929 . S
H351 C317 0.932 . S
H352 C318 0.931 . S
H353 C327 0.931 . S
H354 C329 0.929 . S
H355 C331 0.932 . S
Cd356 O413 2.350 . S
Cd356 O414 2.277 . S
Cd356 O421 2.173 . S
Cd356 O423 2.263 . S
Cd356 O425 2.366 . S
Cd356 O428 2.329 . S
C357 O421 1.277 . S
C357 O422 1.230 . S
C358 O359 1.246 . S
C358 C361 1.481 . S
C358 N383 1.329 . S
O359 C358 1.246 . S
Cd360 O422 2.250 1_554 S
Cd360 O424 2.308 . S
Cd360 O427 2.352 1_554 S
C361 C358 1.481 . S
C361 N364 1.327 . S
C361 C365 1.407 . S
C362 C363 1.346 . S
C362 C366 1.390 . S
C362 H430 0.930 . S
C363 C362 1.346 . S
C363 N364 1.342 . S
C363 C368 1.516 1_556 S
N364 C361 1.327 . S
N364 C363 1.342 . S
N364 Co367 1.864 . S
C365 C361 1.407 . S
C365 C366 1.364 . S
C365 H431 0.930 . S
C366 C362 1.390 . S
C366 C365 1.364 . S
C366 H432 0.931 . S
Co367 N364 1.864 . S
Co367 N383 1.955 . S
Co367 N384 1.958 . S
Co367 N385 1.953 . S
Co367 N403 1.869 . S
Co367 N409 1.974 . S
C368 C363 1.516 1_554 S
C368 O369 1.238 . S
C368 N384 1.324 1_554 S
O369 C368 1.238 . S
C370 C371 1.394 . S
C370 C375 1.395 . S
C370 N384 1.427 1_554 S
C371 C370 1.394 . S
C371 C372 1.380 . S
C371 H433 0.929 1_554 S
C372 C371 1.380 . S
C372 C373 1.384 . S
C372 C376 1.495 . S
C373 C372 1.384 . S
C373 C374 1.382 . S
C373 H434 0.930 . S
C374 C373 1.382 . S
C374 C375 1.398 . S
C375 C370 1.395 . S
C375 C374 1.398 . S
C375 H435 0.930 . S
C376 C372 1.495 . S
C376 O423 1.258 1_554 S
C376 O424 1.274 . S
C377 C378 1.385 . S
C377 C379 1.381 . S
C377 N383 1.432 . S
C378 C377 1.385 . S
C378 C382 1.388 . S
C378 H436 0.929 . S
C379 C377 1.381 . S
C379 C380 1.371 . S
C379 H437 0.932 . S
C380 C379 1.371 . S
C380 C381 1.400 . S
C381 C380 1.400 . S
C381 C382 1.351 . S
C381 H438 0.930 . S
C382 C378 1.388 . S
C382 C381 1.351 . S
N383 C358 1.329 . S
N383 Co367 1.955 . S
N383 C377 1.432 . S
N384 Co367 1.958 . S
N384 C368 1.324 1_556 S
N384 C370 1.427 1_556 S
N385 Co367 1.953 . S
N385 C386 1.436 . S
N385 C412 1.316 . S
C386 N385 1.436 . S
C386 C387 1.421 . S
C386 C388 1.360 . S
C387 C386 1.421 . S
C387 C389 1.379 . S
C387 H390 0.929 . S
C388 C386 1.360 . S
C388 C392 1.393 . S
C388 H394 0.931 . S
C389 C387 1.379 . S
C389 C391 1.417 . S
C389 C393 1.505 . S
H390 C387 0.929 . S
C391 C389 1.417 . S
C391 C392 1.352 . S
C391 H395 0.929 . S
C392 C388 1.393 . S
C392 C391 1.352 . S
C392 C396 1.482 . S
C393 C389 1.505 . S
C393 O397 1.259 . S
C393 O398 1.229 . S
H394 C388 0.931 . S
H395 C391 0.929 . S
C396 C392 1.482 . S
C396 O399 1.207 . S
C396 O400 1.289 . S
O397 C393 1.259 . S
O397 H401 0.822 . S
O398 C393 1.229 . S
O399 C396 1.207 . S
O400 C396 1.289 . S
O400 H402 0.819 . S
H401 O397 0.822 . S
H402 O400 0.819 . S
N403 Co367 1.869 . S
N403 C404 1.330 . S
N403 C408 1.325 . S
C404 N403 1.330 . S
C404 C405 1.359 . S
C404 C410 1.504 . S
C405 C404 1.359 . S
C405 C406 1.366 . S
C405 H439 0.929 . S
C406 C405 1.366 . S
C406 C407 1.415 . S
C406 H440 0.932 . S
C407 C406 1.415 . S
C407 C408 1.366 . S
C407 H441 0.931 . S
C408 N403 1.325 . S
C408 C407 1.366 . S
C408 C412 1.516 . S
N409 Co367 1.974 . S
N409 C410 1.309 . S
N409 C415 1.423 . S
C410 C404 1.504 . S
C410 N409 1.309 . S
C410 O411 1.258 . S
O411 C410 1.258 . S
C412 N385 1.316 . S
C412 C408 1.516 . S
C412 O425 1.263 . S
O413 Cd356 2.350 . S
O413 C429 1.270 . S
O414 Cd356 2.277 . S
O414 C429 1.248 . S
C415 N409 1.423 . S
C415 C416 1.370 1_556 S
C415 C420 1.403 . S
C416 C415 1.370 1_554 S
C416 C417 1.389 . S
C416 H442 0.931 . S
C417 C416 1.389 . S
C417 C418 1.389 1_554 S
C418 C417 1.389 1_556 S
C418 C419 1.379 . S
C418 H443 0.929 . S
C419 C418 1.379 . S
C419 C420 1.405 . S
C420 C415 1.403 . S
C420 C419 1.405 . S
C420 H444 0.932 . S
O421 Cd356 2.173 . S
O421 C357 1.277 . S
O422 C357 1.230 . S
O422 Cd360 2.250 1_556 S
O423 Cd356 2.263 . S
O423 C376 1.258 1_556 S
O424 Cd360 2.308 . S
O424 C376 1.274 . S
O425 Cd356 2.366 . S
O425 C412 1.263 . S
C426 O427 1.235 . S
C426 O428 1.270 . S
O427 Cd360 2.352 1_556 S
O427 C426 1.235 . S
O428 Cd356 2.329 . S
O428 C426 1.270 . S
C429 O413 1.270 . S
C429 O414 1.248 . S
H430 C362 0.930 . S
H431 C365 0.930 . S
H432 C366 0.931 . S
H433 C371 0.929 1_556 S
H434 C373 0.930 . S
H435 C375 0.930 . S
H436 C378 0.929 . S
H437 C379 0.932 . S
H438 C381 0.930 . S
H439 C405 0.929 . S
H440 C406 0.932 . S
H441 C407 0.931 . S
H442 C416 0.931 . S
H443 C418 0.929 . S
H444 C420 0.932 . S
Cd445 O502 2.350 . S
Cd445 O503 2.277 . S
Cd445 O510 2.173 . S
Cd445 O512 2.263 . S
Cd445 O514 2.366 . S
Cd445 O517 2.329 . S
C446 O510 1.277 . S
C446 O511 1.230 . S
C447 O448 1.246 . S
C447 C450 1.481 . S
C447 N472 1.329 . S
O448 C447 1.246 . S
Cd449 O511 2.250 1_554 S
Cd449 O513 2.308 . S
Cd449 O516 2.352 1_554 S
C450 C447 1.481 . S
C450 N453 1.327 . S
C450 C454 1.407 . S
C451 C452 1.346 . S
C451 C455 1.390 . S
C451 H519 0.930 . S
C452 C451 1.346 . S
C452 N453 1.342 . S
C452 C457 1.516 1_556 S
N453 C450 1.327 . S
N453 C452 1.342 . S
N453 Co456 1.864 . S
C454 C450 1.407 . S
C454 C455 1.364 . S
C454 H520 0.930 . S
C455 C451 1.390 . S
C455 C454 1.364 . S
C455 H521 0.931 1_545 S
Co456 N453 1.864 . S
Co456 N472 1.955 . S
Co456 N473 1.958 . S
Co456 N474 1.953 . S
Co456 N492 1.869 . S
Co456 N498 1.974 . S
C457 C452 1.516 1_554 S
C457 O458 1.238 . S
C457 N473 1.324 1_554 S
O458 C457 1.238 . S
C459 C460 1.394 . S
C459 C464 1.395 . S
C459 N473 1.427 1_554 S
C460 C459 1.394 . S
C460 C461 1.380 . S
C460 H522 0.929 1_554 S
C461 C460 1.380 . S
C461 C462 1.384 . S
C461 C465 1.495 . S
C462 C461 1.384 . S
C462 C463 1.382 . S
C462 H523 0.930 . S
C463 C462 1.382 . S
C463 C464 1.398 . S
C464 C459 1.395 . S
C464 C463 1.398 . S
C464 H524 0.930 . S
C465 C461 1.495 . S
C465 O512 1.258 1_554 S
C465 O513 1.274 . S
C466 C467 1.385 . S
C466 C468 1.381 . S
C466 N472 1.432 . S
C467 C466 1.385 . S
C467 C471 1.388 . S
C467 H525 0.929 . S
C468 C466 1.381 . S
C468 C469 1.371 . S
C468 H526 0.932 . S
C469 C468 1.371 . S
C469 C470 1.400 . S
C470 C469 1.400 . S
C470 C471 1.351 . S
C470 H527 0.930 . S
C471 C467 1.388 . S
C471 C470 1.351 . S
N472 C447 1.329 . S
N472 Co456 1.955 . S
N472 C466 1.432 . S
N473 Co456 1.958 . S
N473 C457 1.324 1_556 S
N473 C459 1.427 1_556 S
N474 Co456 1.953 . S
N474 C475 1.436 . S
N474 C501 1.316 . S
C475 N474 1.436 . S
C475 C476 1.421 . S
C475 C477 1.360 . S
C476 C475 1.421 . S
C476 C478 1.379 . S
C476 H479 0.929 . S
C477 C475 1.360 . S
C477 C481 1.393 . S
C477 H483 0.931 . S
C478 C476 1.379 . S
C478 C480 1.417 . S
C478 C482 1.505 . S
H479 C476 0.929 . S
C480 C478 1.417 . S
C480 C481 1.352 . S
C480 H484 0.929 . S
C481 C477 1.393 . S
C481 C480 1.352 . S
C481 C485 1.482 . S
C482 C478 1.505 . S
C482 O486 1.259 . S
C482 O487 1.229 . S
H483 C477 0.931 . S
H484 C480 0.929 . S
C485 C481 1.482 . S
C485 O488 1.207 . S
C485 O489 1.289 1_545 S
O486 C482 1.259 . S
O486 H490 0.822 . S
O487 C482 1.229 . S
O488 C485 1.207 . S
O489 C485 1.289 1_565 S
O489 H491 0.819 . S
H490 O486 0.822 . S
H491 O489 0.819 . S
N492 Co456 1.869 . S
N492 C493 1.330 . S
N492 C497 1.325 . S
C493 N492 1.330 . S
C493 C494 1.359 . S
C493 C499 1.504 . S
C494 C493 1.359 . S
C494 C495 1.366 . S
C494 H528 0.929 . S
C495 C494 1.366 . S
C495 C496 1.415 . S
C495 H529 0.932 . S
C496 C495 1.415 . S
C496 C497 1.366 . S
C496 H530 0.931 . S
C497 N492 1.325 . S
C497 C496 1.366 . S
C497 C501 1.516 . S
N498 Co456 1.974 . S
N498 C499 1.309 . S
N498 C504 1.423 . S
C499 C493 1.504 . S
C499 N498 1.309 . S
C499 O500 1.258 . S
O500 C499 1.258 . S
C501 N474 1.316 . S
C501 C497 1.516 . S
C501 O514 1.263 . S
O502 Cd445 2.350 . S
O502 C518 1.270 . S
O503 Cd445 2.277 . S
O503 C518 1.248 . S
C504 N498 1.423 . S
C504 C505 1.370 1_556 S
C504 C509 1.403 . S
C505 C504 1.370 1_554 S
C505 C506 1.389 . S
C505 H531 0.931 . S
C506 C505 1.389 . S
C506 C507 1.389 1_554 S
C507 C506 1.389 1_556 S
C507 C508 1.379 . S
C507 H532 0.929 . S
C508 C507 1.379 . S
C508 C509 1.405 . S
C509 C504 1.403 . S
C509 C508 1.405 . S
C509 H533 0.932 . S
O510 Cd445 2.173 . S
O510 C446 1.277 . S
O511 C446 1.230 . S
O511 Cd449 2.250 1_556 S
O512 Cd445 2.263 . S
O512 C465 1.258 1_556 S
O513 Cd449 2.308 . S
O513 C465 1.274 . S
O514 Cd445 2.366 . S
O514 C501 1.263 . S
C515 O516 1.235 . S
C515 O517 1.270 . S
O516 Cd449 2.352 1_556 S
O516 C515 1.235 . S
O517 Cd445 2.329 . S
O517 C515 1.270 . S
C518 O502 1.270 . S
C518 O503 1.248 . S
H519 C451 0.930 . S
H520 C454 0.930 . S
H521 C455 0.931 1_565 S
H522 C460 0.929 1_556 S
H523 C462 0.930 . S
H524 C464 0.930 . S
H525 C467 0.929 . S
H526 C468 0.932 . S
H527 C470 0.930 . S
H528 C494 0.929 . S
H529 C495 0.932 . S
H530 C496 0.931 . S
H531 C505 0.931 . S
H532 C507 0.929 . S
H533 C509 0.932 . S
Cd534 O591 2.350 . S
Cd534 O592 2.277 . S
Cd534 O599 2.173 . S
Cd534 O601 2.263 . S
Cd534 O603 2.366 . S
Cd534 O606 2.329 . S
C535 O599 1.277 . S
C535 O600 1.230 . S
C536 O537 1.246 . S
C536 C539 1.481 . S
C536 N561 1.329 . S
O537 C536 1.246 . S
Cd538 O600 2.250 . S
Cd538 O602 2.308 . S
Cd538 O605 2.352 . S
C539 C536 1.481 . S
C539 N542 1.327 . S
C539 C543 1.407 . S
C540 C541 1.346 . S
C540 C544 1.390 . S
C540 H608 0.930 . S
C541 C540 1.346 . S
C541 N542 1.342 . S
C541 C546 1.516 . S
N542 C539 1.327 . S
N542 C541 1.342 . S
N542 Co545 1.864 . S
C543 C539 1.407 . S
C543 C544 1.364 . S
C543 H609 0.930 . S
C544 C540 1.390 . S
C544 C543 1.364 . S
C544 H610 0.931 . S
Co545 N542 1.864 . S
Co545 N561 1.955 . S
Co545 N562 1.958 . S
Co545 N563 1.953 . S
Co545 N581 1.869 . S
Co545 N587 1.974 . S
C546 C541 1.516 . S
C546 O547 1.238 . S
C546 N562 1.324 . S
O547 C546 1.238 . S
C548 C549 1.394 . S
C548 C553 1.395 . S
C548 N562 1.427 . S
C549 C548 1.394 . S
C549 C550 1.380 . S
C549 H611 0.929 . S
C550 C549 1.380 . S
C550 C551 1.384 . S
C550 C554 1.495 . S
C551 C550 1.384 . S
C551 C552 1.382 . S
C551 H612 0.930 . S
C552 C551 1.382 . S
C552 C553 1.398 . S
C553 C548 1.395 . S
C553 C552 1.398 . S
C553 H613 0.930 . S
C554 C550 1.495 . S
C554 O601 1.258 . S
C554 O602 1.274 . S
C555 C556 1.385 . S
C555 C557 1.381 . S
C555 N561 1.432 . S
C556 C555 1.385 . S
C556 C560 1.388 . S
C556 H614 0.929 . S
C557 C555 1.381 . S
C557 C558 1.371 . S
C557 H615 0.932 . S
C558 C557 1.371 . S
C558 C559 1.400 . S
C559 C558 1.400 . S
C559 C560 1.351 . S
C559 H616 0.930 . S
C560 C556 1.388 . S
C560 C559 1.351 . S
N561 C536 1.329 . S
N561 Co545 1.955 . S
N561 C555 1.432 . S
N562 Co545 1.958 . S
N562 C546 1.324 . S
N562 C548 1.427 . S
N563 Co545 1.953 . S
N563 C564 1.436 . S
N563 C590 1.316 . S
C564 N563 1.436 . S
C564 C565 1.421 . S
C564 C566 1.360 . S
C565 C564 1.421 . S
C565 C567 1.379 . S
C565 H568 0.929 . S
C566 C564 1.360 . S
C566 C570 1.393 . S
C566 H572 0.931 . S
C567 C565 1.379 . S
C567 C569 1.417 . S
C567 C571 1.505 . S
H568 C565 0.929 . S
C569 C567 1.417 . S
C569 C570 1.352 . S
C569 H573 0.929 . S
C570 C566 1.393 . S
C570 C569 1.352 . S
C570 C574 1.482 . S
C571 C567 1.505 . S
C571 O575 1.259 . S
C571 O576 1.229 1_556 S
H572 C566 0.931 . S
H573 C569 0.929 . S
C574 C570 1.482 . S
C574 O577 1.207 . S
C574 O578 1.289 . S
O575 C571 1.259 . S
O575 H579 0.822 1_556 S
O576 C571 1.229 1_554 S
O577 C574 1.207 . S
O578 C574 1.289 . S
O578 H580 0.819 . S
H579 O575 0.822 1_554 S
H580 O578 0.819 . S
N581 Co545 1.869 . S
N581 C582 1.330 . S
N581 C586 1.325 . S
C582 N581 1.330 . S
C582 C583 1.359 . S
C582 C588 1.504 . S
C583 C582 1.359 . S
C583 C584 1.366 . S
C583 H617 0.929 . S
C584 C583 1.366 . S
C584 C585 1.415 . S
C584 H618 0.932 . S
C585 C584 1.415 . S
C585 C586 1.366 . S
C585 H619 0.931 . S
C586 N581 1.325 . S
C586 C585 1.366 . S
C586 C590 1.516 . S
N587 Co545 1.974 . S
N587 C588 1.309 . S
N587 C593 1.423 . S
C588 C582 1.504 . S
C588 N587 1.309 . S
C588 O589 1.258 . S
O589 C588 1.258 . S
C590 N563 1.316 . S
C590 C586 1.516 . S
C590 O603 1.263 . S
O591 Cd534 2.350 . S
O591 C607 1.270 . S
O592 Cd534 2.277 . S
O592 C607 1.248 . S
C593 N587 1.423 . S
C593 C594 1.370 . S
C593 C598 1.403 . S
C594 C593 1.370 . S
C594 C595 1.389 . S
C594 H620 0.931 . S
C595 C594 1.389 . S
C595 C596 1.389 . S
C596 C595 1.389 . S
C596 C597 1.379 . S
C596 H621 0.929 . S
C597 C596 1.379 . S
C597 C598 1.405 . S
C598 C593 1.403 . S
C598 C597 1.405 . S
C598 H622 0.932 . S
O599 Cd534 2.173 . S
O599 C535 1.277 . S
O600 C535 1.230 . S
O600 Cd538 2.250 . S
O601 Cd534 2.263 . S
O601 C554 1.258 . S
O602 Cd538 2.308 . S
O602 C554 1.274 . S
O603 Cd534 2.366 . S
O603 C590 1.263 . S
C604 O605 1.235 . S
C604 O606 1.270 . S
O605 Cd538 2.352 . S
O605 C604 1.235 . S
O606 Cd534 2.329 . S
O606 C604 1.270 . S
C607 O591 1.270 . S
C607 O592 1.248 . S
H608 C540 0.930 . S
H609 C543 0.930 . S
H610 C544 0.931 . S
H611 C549 0.929 . S
H612 C551 0.930 . S
H613 C553 0.930 . S
H614 C556 0.929 . S
H615 C557 0.932 . S
H616 C559 0.930 . S
H617 C583 0.929 . S
H618 C584 0.932 . S
H619 C585 0.931 . S
H620 C594 0.931 . S
H621 C596 0.929 . S
H622 C598 0.932 . S
Cd623 O680 2.350 . S
Cd623 O681 2.277 . S
Cd623 O688 2.173 . S
Cd623 O690 2.263 . S
Cd623 O692 2.366 . S
Cd623 O695 2.329 . S
C624 O688 1.277 . S
C624 O689 1.230 . S
C625 O626 1.246 . S
C625 C628 1.481 . S
C625 N650 1.329 . S
O626 C625 1.246 . S
Cd627 O689 2.250 . S
Cd627 O691 2.308 . S
Cd627 O694 2.352 . S
C628 C625 1.481 . S
C628 N631 1.327 . S
C628 C632 1.407 . S
C629 C630 1.346 . S
C629 C633 1.390 . S
C629 H697 0.930 . S
C630 C629 1.346 . S
C630 N631 1.342 . S
C630 C635 1.516 . S
N631 C628 1.327 . S
N631 C630 1.342 . S
N631 Co634 1.864 . S
C632 C628 1.407 . S
C632 C633 1.364 . S
C632 H698 0.930 . S
C633 C629 1.390 . S
C633 C632 1.364 . S
C633 H699 0.931 . S
Co634 N631 1.864 . S
Co634 N650 1.955 . S
Co634 N651 1.958 . S
Co634 N652 1.953 1_565 S
Co634 N670 1.869 1_565 S
Co634 N676 1.974 . S
C635 C630 1.516 . S
C635 O636 1.238 . S
C635 N651 1.324 . S
O636 C635 1.238 . S
C637 C638 1.394 . S
C637 C642 1.395 . S
C637 N651 1.427 1_545 S
C638 C637 1.394 . S
C638 C639 1.380 . S
C638 H700 0.929 . S
C639 C638 1.380 . S
C639 C640 1.384 . S
C639 C643 1.495 . S
C640 C639 1.384 . S
C640 C641 1.382 . S
C640 H701 0.930 . S
C641 C640 1.382 . S
C641 C642 1.398 . S
C642 C637 1.395 . S
C642 C641 1.398 . S
C642 H702 0.930 1_545 S
C643 C639 1.495 . S
C643 O690 1.258 . S
C643 O691 1.274 . S
C644 C645 1.385 . S
C644 C646 1.381 . S
C644 N650 1.432 . S
C645 C644 1.385 . S
C645 C649 1.388 . S
C645 H703 0.929 . S
C646 C644 1.381 . S
C646 C647 1.371 . S
C646 H704 0.932 . S
C647 C646 1.371 . S
C647 C648 1.400 . S
C648 C647 1.400 . S
C648 C649 1.351 . S
C648 H705 0.930 . S
C649 C645 1.388 . S
C649 C648 1.351 . S
N650 C625 1.329 . S
N650 Co634 1.955 . S
N650 C644 1.432 . S
N651 Co634 1.958 . S
N651 C635 1.324 . S
N651 C637 1.427 1_565 S
N652 Co634 1.953 1_545 S
N652 C653 1.436 . S
N652 C679 1.316 . S
C653 N652 1.436 . S
C653 C654 1.421 . S
C653 C655 1.360 . S
C654 C653 1.421 . S
C654 C656 1.379 . S
C654 H657 0.929 . S
C655 C653 1.360 . S
C655 C659 1.393 . S
C655 H661 0.931 . S
C656 C654 1.379 . S
C656 C658 1.417 . S
C656 C660 1.505 . S
H657 C654 0.929 . S
C658 C656 1.417 . S
C658 C659 1.352 . S
C658 H662 0.929 . S
C659 C655 1.393 . S
C659 C658 1.352 . S
C659 C663 1.482 . S
C660 C656 1.505 . S
C660 O664 1.259 . S
C660 O665 1.229 1_556 S
H661 C655 0.931 . S
H662 C658 0.929 . S
C663 C659 1.482 . S
C663 O666 1.207 . S
C663 O667 1.289 . S
O664 C660 1.259 . S
O664 H668 0.822 1_556 S
O665 C660 1.229 1_554 S
O666 C663 1.207 . S
O667 C663 1.289 . S
O667 H669 0.819 . S
H668 O664 0.822 1_554 S
H669 O667 0.819 . S
N670 Co634 1.869 1_545 S
N670 C671 1.330 1_545 S
N670 C675 1.325 . S
C671 N670 1.330 1_565 S
C671 C672 1.359 1_565 S
C671 C677 1.504 . S
C672 C671 1.359 1_545 S
C672 C673 1.366 . S
C672 H706 0.929 . S
C673 C672 1.366 . S
C673 C674 1.415 . S
C673 H707 0.932 . S
C674 C673 1.415 . S
C674 C675 1.366 . S
C674 H708 0.931 . S
C675 N670 1.325 . S
C675 C674 1.366 . S
C675 C679 1.516 . S
N676 Co634 1.974 . S
N676 C677 1.309 . S
N676 C682 1.423 . S
C677 C671 1.504 . S
C677 N676 1.309 . S
C677 O678 1.258 . S
O678 C677 1.258 . S
C679 N652 1.316 . S
C679 C675 1.516 . S
C679 O692 1.263 . S
O680 Cd623 2.350 . S
O680 C696 1.270 . S
O681 Cd623 2.277 . S
O681 C696 1.248 . S
C682 N676 1.423 . S
C682 C683 1.370 . S
C682 C687 1.403 . S
C683 C682 1.370 . S
C683 C684 1.389 . S
C683 H709 0.931 . S
C684 C683 1.389 . S
C684 C685 1.389 . S
C685 C684 1.389 . S
C685 C686 1.379 . S
C685 H710 0.929 . S
C686 C685 1.379 . S
C686 C687 1.405 . S
C687 C682 1.403 . S
C687 C686 1.405 . S
C687 H711 0.932 . S
O688 Cd623 2.173 . S
O688 C624 1.277 . S
O689 C624 1.230 . S
O689 Cd627 2.250 . S
O690 Cd623 2.263 . S
O690 C643 1.258 . S
O691 Cd627 2.308 . S
O691 C643 1.274 . S
O692 Cd623 2.366 . S
O692 C679 1.263 . S
C693 O694 1.235 . S
C693 O695 1.270 . S
O694 Cd627 2.352 . S
O694 C693 1.235 . S
O695 Cd623 2.329 . S
O695 C693 1.270 . S
C696 O680 1.270 . S
C696 O681 1.248 . S
H697 C629 0.930 . S
H698 C632 0.930 . S
H699 C633 0.931 . S
H700 C638 0.929 . S
H701 C640 0.930 . S
H702 C642 0.930 1_565 S
H703 C645 0.929 . S
H704 C646 0.932 . S
H705 C648 0.930 . S
H706 C672 0.929 . S
H707 C673 0.932 . S
H708 C674 0.931 . S
H709 C683 0.931 . S
H710 C685 0.929 . S
H711 C687 0.932 . S
Cd712 O769 2.350 . S
Cd712 O770 2.277 . S
Cd712 O777 2.173 . S
Cd712 O779 2.263 . S
Cd712 O781 2.366 . S
Cd712 O784 2.329 . S
C713 O777 1.277 . S
C713 O778 1.230 . S
C714 O715 1.246 . S
C714 C717 1.481 . S
C714 N739 1.329 . S
O715 C714 1.246 . S
Cd716 O778 2.250 . S
Cd716 O780 2.308 . S
Cd716 O783 2.352 . S
C717 C714 1.481 . S
C717 N720 1.327 . S
C717 C721 1.407 . S
C718 C719 1.346 . S
C718 C722 1.390 . S
C718 H786 0.930 . S
C719 C718 1.346 . S
C719 N720 1.342 . S
C719 C724 1.516 . S
N720 C717 1.327 . S
N720 C719 1.342 . S
N720 Co723 1.864 . S
C721 C717 1.407 . S
C721 C722 1.364 . S
C721 H787 0.930 . S
C722 C718 1.390 . S
C722 C721 1.364 . S
C722 H788 0.931 . S
Co723 N720 1.864 . S
Co723 N739 1.955 . S
Co723 N740 1.958 . S
Co723 N741 1.953 1_455 S
Co723 N759 1.869 1_455 S
Co723 N765 1.974 . S
C724 C719 1.516 . S
C724 O725 1.238 . S
C724 N740 1.324 . S
O725 C724 1.238 . S
C726 C727 1.394 . S
C726 C731 1.395 . S
C726 N740 1.427 1_655 S
C727 C726 1.394 . S
C727 C728 1.380 . S
C727 H789 0.929 . S
C728 C727 1.380 . S
C728 C729 1.384 . S
C728 C732 1.495 . S
C729 C728 1.384 . S
C729 C730 1.382 . S
C729 H790 0.930 . S
C730 C729 1.382 . S
C730 C731 1.398 . S
C731 C726 1.395 . S
C731 C730 1.398 . S
C731 H791 0.930 1_655 S
C732 C728 1.495 . S
C732 O779 1.258 . S
C732 O780 1.274 . S
C733 C734 1.385 . S
C733 C735 1.381 . S
C733 N739 1.432 . S
C734 C733 1.385 . S
C734 C738 1.388 . S
C734 H792 0.929 . S
C735 C733 1.381 . S
C735 C736 1.371 . S
C735 H793 0.932 . S
C736 C735 1.371 . S
C736 C737 1.400 . S
C737 C736 1.400 . S
C737 C738 1.351 . S
C737 H794 0.930 . S
C738 C734 1.388 . S
C738 C737 1.351 . S
N739 C714 1.329 . S
N739 Co723 1.955 . S
N739 C733 1.432 . S
N740 Co723 1.958 . S
N740 C724 1.324 . S
N740 C726 1.427 1_455 S
N741 Co723 1.953 1_655 S
N741 C742 1.436 . S
N741 C768 1.316 . S
C742 N741 1.436 . S
C742 C743 1.421 . S
C742 C744 1.360 . S
C743 C742 1.421 . S
C743 C745 1.379 . S
C743 H746 0.929 . S
C744 C742 1.360 . S
C744 C748 1.393 . S
C744 H750 0.931 . S
C745 C743 1.379 . S
C745 C747 1.417 . S
C745 C749 1.505 . S
H746 C743 0.929 . S
C747 C745 1.417 . S
C747 C748 1.352 . S
C747 H751 0.929 . S
C748 C744 1.393 . S
C748 C747 1.352 . S
C748 C752 1.482 . S
C749 C745 1.505 . S
C749 O753 1.259 . S
C749 O754 1.229 1_556 S
H750 C744 0.931 . S
H751 C747 0.929 . S
C752 C748 1.482 . S
C752 O755 1.207 . S
C752 O756 1.289 . S
O753 C749 1.259 . S
O753 H757 0.822 1_556 S
O754 C749 1.229 1_554 S
O755 C752 1.207 . S
O756 C752 1.289 . S
O756 H758 0.819 . S
H757 O753 0.822 1_554 S
H758 O756 0.819 . S
N759 Co723 1.869 1_655 S
N759 C760 1.330 1_655 S
N759 C764 1.325 . S
C760 N759 1.330 1_455 S
C760 C761 1.359 1_455 S
C760 C766 1.504 . S
C761 C760 1.359 1_655 S
C761 C762 1.366 . S
C761 H795 0.929 . S
C762 C761 1.366 . S
C762 C763 1.415 . S
C762 H796 0.932 . S
C763 C762 1.415 . S
C763 C764 1.366 . S
C763 H797 0.931 . S
C764 N759 1.325 . S
C764 C763 1.366 . S
C764 C768 1.516 . S
N765 Co723 1.974 . S
N765 C766 1.309 . S
N765 C771 1.423 . S
C766 C760 1.504 . S
C766 N765 1.309 . S
C766 O767 1.258 . S
O767 C766 1.258 . S
C768 N741 1.316 . S
C768 C764 1.516 . S
C768 O781 1.263 . S
O769 Cd712 2.350 . S
O769 C785 1.270 . S
O770 Cd712 2.277 . S
O770 C785 1.248 . S
C771 N765 1.423 . S
C771 C772 1.370 . S
C771 C776 1.403 . S
C772 C771 1.370 . S
C772 C773 1.389 . S
C772 H798 0.931 . S
C773 C772 1.389 . S
C773 C774 1.389 . S
C774 C773 1.389 . S
C774 C775 1.379 . S
C774 H799 0.929 . S
C775 C774 1.379 . S
C775 C776 1.405 . S
C776 C771 1.403 . S
C776 C775 1.405 . S
C776 H800 0.932 . S
O777 Cd712 2.173 . S
O777 C713 1.277 . S
O778 C713 1.230 . S
O778 Cd716 2.250 . S
O779 Cd712 2.263 . S
O779 C732 1.258 . S
O780 Cd716 2.308 . S
O780 C732 1.274 . S
O781 Cd712 2.366 . S
O781 C768 1.263 . S
C782 O783 1.235 . S
C782 O784 1.270 . S
O783 Cd716 2.352 . S
O783 C782 1.235 . S
O784 Cd712 2.329 . S
O784 C782 1.270 . S
C785 O769 1.270 . S
C785 O770 1.248 . S
H786 C718 0.930 . S
H787 C721 0.930 . S
H788 C722 0.931 . S
H789 C727 0.929 . S
H790 C729 0.930 . S
H791 C731 0.930 1_455 S
H792 C734 0.929 . S
H793 C735 0.932 . S
H794 C737 0.930 . S
H795 C761 0.929 . S
H796 C762 0.932 . S
H797 C763 0.931 . S
H798 C772 0.931 . S
H799 C774 0.929 . S
H800 C776 0.932 . S
Cd801 O858 2.350 . S
Cd801 O859 2.277 1_554 S
Cd801 O866 2.173 . S
Cd801 O868 2.263 . S
Cd801 O870 2.366 . S
Cd801 O873 2.329 . S
C802 O866 1.277 . S
C802 O867 1.230 . S
C803 O804 1.246 . S
C803 C806 1.481 1_556 S
C803 N828 1.329 . S
O804 C803 1.246 . S
Cd805 O867 2.250 . S
Cd805 O869 2.308 . S
Cd805 O872 2.352 . S
C806 C803 1.481 1_554 S
C806 N809 1.327 . S
C806 C810 1.407 . S
C807 C808 1.346 . S
C807 C811 1.390 . S
C807 H875 0.930 . S
C808 C807 1.346 . S
C808 N809 1.342 . S
C808 C813 1.516 . S
N809 C806 1.327 . S
N809 C808 1.342 . S
N809 Co812 1.864 . S
C810 C806 1.407 . S
C810 C811 1.364 . S
C810 H876 0.930 1_554 S
C811 C807 1.390 . S
C811 C810 1.364 . S
C811 H877 0.931 . S
Co812 N809 1.864 . S
Co812 N828 1.955 1_554 S
Co812 N829 1.958 . S
Co812 N830 1.953 . S
Co812 N848 1.869 . S
Co812 N854 1.974 . S
C813 C808 1.516 . S
C813 O814 1.238 . S
C813 N829 1.324 . S
O814 C813 1.238 . S
C815 C816 1.394 . S
C815 C820 1.395 . S
C815 N829 1.427 . S
C816 C815 1.394 . S
C816 C817 1.380 . S
C816 H878 0.929 . S
C817 C816 1.380 . S
C817 C818 1.384 . S
C817 C821 1.495 . S
C818 C817 1.384 . S
C818 C819 1.382 . S
C818 H879 0.930 . S
C819 C818 1.382 . S
C819 C820 1.398 . S
C820 C815 1.395 . S
C820 C819 1.398 . S
C820 H880 0.930 . S
C821 C817 1.495 . S
C821 O868 1.258 . S
C821 O869 1.274 . S
C822 C823 1.385 . S
C822 C824 1.381 . S
C822 N828 1.432 . S
C823 C822 1.385 . S
C823 C827 1.388 . S
C823 H881 0.929 . S
C824 C822 1.381 . S
C824 C825 1.371 . S
C824 H882 0.932 1_556 S
C825 C824 1.371 . S
C825 C826 1.400 . S
C826 C825 1.400 . S
C826 C827 1.351 . S
C826 H883 0.930 . S
C827 C823 1.388 . S
C827 C826 1.351 . S
N828 C803 1.329 . S
N828 Co812 1.955 1_556 S
N828 C822 1.432 . S
N829 Co812 1.958 . S
N829 C813 1.324 . S
N829 C815 1.427 . S
N830 Co812 1.953 . S
N830 C831 1.436 . S
N830 C857 1.316 . S
C831 N830 1.436 . S
C831 C832 1.421 1_554 S
C831 C833 1.360 . S
C832 C831 1.421 1_556 S
C832 C834 1.379 . S
C832 H835 0.929 . S
C833 C831 1.360 . S
C833 C837 1.393 . S
C833 H839 0.931 . S
C834 C832 1.379 . S
C834 C836 1.417 . S
C834 C838 1.505 . S
H835 C832 0.929 . S
C836 C834 1.417 . S
C836 C837 1.352 1_556 S
C836 H840 0.929 . S
C837 C833 1.393 . S
C837 C836 1.352 1_554 S
C837 C841 1.482 . S
C838 C834 1.505 . S
C838 O842 1.259 . S
C838 O843 1.229 . S
H839 C833 0.931 . S
H840 C836 0.929 . S
C841 C837 1.482 . S
C841 O844 1.207 . S
C841 O845 1.289 1_565 S
O842 C838 1.259 . S
O842 H846 0.822 . S
O843 C838 1.229 . S
O844 C841 1.207 . S
O845 C841 1.289 1_545 S
O845 H847 0.819 . S
H846 O842 0.822 . S
H847 O845 0.819 . S
N848 Co812 1.869 . S
N848 C849 1.330 . S
N848 C853 1.325 . S
C849 N848 1.330 . S
C849 C850 1.359 . S
C849 C855 1.504 . S
C850 C849 1.359 . S
C850 C851 1.366 . S
C850 H884 0.929 . S
C851 C850 1.366 . S
C851 C852 1.415 . S
C851 H885 0.932 . S
C852 C851 1.415 . S
C852 C853 1.366 . S
C852 H886 0.931 . S
C853 N848 1.325 . S
C853 C852 1.366 . S
C853 C857 1.516 . S
N854 Co812 1.974 . S
N854 C855 1.309 . S
N854 C860 1.423 . S
C855 C849 1.504 . S
C855 N854 1.309 . S
C855 O856 1.258 . S
O856 C855 1.258 . S
C857 N830 1.316 . S
C857 C853 1.516 . S
C857 O870 1.263 . S
O858 Cd801 2.350 . S
O858 C874 1.270 1_554 S
O859 Cd801 2.277 1_556 S
O859 C874 1.248 . S
C860 N854 1.423 . S
C860 C861 1.370 . S
C860 C865 1.403 . S
C861 C860 1.370 . S
C861 C862 1.389 . S
C861 H887 0.931 . S
C862 C861 1.389 . S
C862 C863 1.389 . S
C863 C862 1.389 . S
C863 C864 1.379 . S
C863 H888 0.929 . S
C864 C863 1.379 . S
C864 C865 1.405 . S
C865 C860 1.403 . S
C865 C864 1.405 . S
C865 H889 0.932 . S
O866 Cd801 2.173 . S
O866 C802 1.277 . S
O867 C802 1.230 . S
O867 Cd805 2.250 . S
O868 Cd801 2.263 . S
O868 C821 1.258 . S
O869 Cd805 2.308 . S
O869 C821 1.274 . S
O870 Cd801 2.366 . S
O870 C857 1.263 . S
C871 O872 1.235 . S
C871 O873 1.270 . S
O872 Cd805 2.352 . S
O872 C871 1.235 . S
O873 Cd801 2.329 . S
O873 C871 1.270 . S
C874 O858 1.270 1_556 S
C874 O859 1.248 . S
H875 C807 0.930 . S
H876 C810 0.930 1_556 S
H877 C811 0.931 . S
H878 C816 0.929 . S
H879 C818 0.930 . S
H880 C820 0.930 . S
H881 C823 0.929 . S
H882 C824 0.932 1_554 S
H883 C826 0.930 . S
H884 C850 0.929 . S
H885 C851 0.932 . S
H886 C852 0.931 . S
H887 C861 0.931 . S
H888 C863 0.929 . S
H889 C865 0.932 . S
Cd890 O947 2.350 . S
Cd890 O948 2.277 1_554 S
Cd890 O955 2.173 . S
Cd890 O957 2.263 . S
Cd890 O959 2.366 . S
Cd890 O962 2.329 . S
C891 O955 1.277 . S
C891 O956 1.230 . S
C892 O893 1.246 . S
C892 C895 1.481 1_556 S
C892 N917 1.329 . S
O893 C892 1.246 . S
Cd894 O956 2.250 . S
Cd894 O958 2.308 . S
Cd894 O961 2.352 . S
C895 C892 1.481 1_554 S
C895 N898 1.327 . S
C895 C899 1.407 . S
C896 C897 1.346 . S
C896 C900 1.390 . S
C896 H964 0.930 . S
C897 C896 1.346 . S
C897 N898 1.342 . S
C897 C902 1.516 . S
N898 C895 1.327 . S
N898 C897 1.342 . S
N898 Co901 1.864 . S
C899 C895 1.407 . S
C899 C900 1.364 . S
C899 H965 0.930 1_554 S
C900 C896 1.390 . S
C900 C899 1.364 . S
C900 H966 0.931 . S
Co901 N898 1.864 . S
Co901 N917 1.955 1_554 S
Co901 N918 1.958 . S
Co901 N919 1.953 . S
Co901 N937 1.869 . S
Co901 N943 1.974 . S
C902 C897 1.516 . S
C902 O903 1.238 . S
C902 N918 1.324 . S
O903 C902 1.238 . S
C904 C905 1.394 . S
C904 C909 1.395 . S
C904 N918 1.427 . S
C905 C904 1.394 . S
C905 C906 1.380 . S
C905 H967 0.929 . S
C906 C905 1.380 . S
C906 C907 1.384 . S
C906 C910 1.495 . S
C907 C906 1.384 . S
C907 C908 1.382 . S
C907 H968 0.930 . S
C908 C907 1.382 . S
C908 C909 1.398 . S
C909 C904 1.395 . S
C909 C908 1.398 . S
C909 H969 0.930 . S
C910 C906 1.495 . S
C910 O957 1.258 . S
C910 O958 1.274 . S
C911 C912 1.385 . S
C911 C913 1.381 . S
C911 N917 1.432 . S
C912 C911 1.385 . S
C912 C916 1.388 . S
C912 H970 0.929 . S
C913 C911 1.381 . S
C913 C914 1.371 . S
C913 H971 0.932 1_556 S
C914 C913 1.371 . S
C914 C915 1.400 . S
C915 C914 1.400 . S
C915 C916 1.351 . S
C915 H972 0.930 . S
C916 C912 1.388 . S
C916 C915 1.351 . S
N917 C892 1.329 . S
N917 Co901 1.955 1_556 S
N917 C911 1.432 . S
N918 Co901 1.958 . S
N918 C902 1.324 . S
N918 C904 1.427 . S
N919 Co901 1.953 . S
N919 C920 1.436 . S
N919 C946 1.316 . S
C920 N919 1.436 . S
C920 C921 1.421 1_554 S
C920 C922 1.360 . S
C921 C920 1.421 1_556 S
C921 C923 1.379 . S
C921 H924 0.929 . S
C922 C920 1.360 . S
C922 C926 1.393 . S
C922 H928 0.931 . S
C923 C921 1.379 . S
C923 C925 1.417 . S
C923 C927 1.505 . S
H924 C921 0.929 . S
C925 C923 1.417 . S
C925 C926 1.352 1_556 S
C925 H929 0.929 . S
C926 C922 1.393 . S
C926 C925 1.352 1_554 S
C926 C930 1.482 . S
C927 C923 1.505 . S
C927 O931 1.259 . S
C927 O932 1.229 . S
H928 C922 0.931 . S
H929 C925 0.929 . S
C930 C926 1.482 . S
C930 O933 1.207 . S
C930 O934 1.289 1_455 S
O931 C927 1.259 . S
O931 H935 0.822 . S
O932 C927 1.229 . S
O933 C930 1.207 . S
O934 C930 1.289 1_655 S
O934 H936 0.819 . S
H935 O931 0.822 . S
H936 O934 0.819 . S
N937 Co901 1.869 . S
N937 C938 1.330 . S
N937 C942 1.325 . S
C938 N937 1.330 . S
C938 C939 1.359 . S
C938 C944 1.504 . S
C939 C938 1.359 . S
C939 C940 1.366 . S
C939 H973 0.929 . S
C940 C939 1.366 . S
C940 C941 1.415 . S
C940 H974 0.932 . S
C941 C940 1.415 . S
C941 C942 1.366 . S
C941 H975 0.931 . S
C942 N937 1.325 . S
C942 C941 1.366 . S
C942 C946 1.516 . S
N943 Co901 1.974 . S
N943 C944 1.309 . S
N943 C949 1.423 . S
C944 C938 1.504 . S
C944 N943 1.309 . S
C944 O945 1.258 . S
O945 C944 1.258 . S
C946 N919 1.316 . S
C946 C942 1.516 . S
C946 O959 1.263 . S
O947 Cd890 2.350 . S
O947 C963 1.270 1_554 S
O948 Cd890 2.277 1_556 S
O948 C963 1.248 . S
C949 N943 1.423 . S
C949 C950 1.370 . S
C949 C954 1.403 . S
C950 C949 1.370 . S
C950 C951 1.389 . S
C950 H976 0.931 . S
C951 C950 1.389 . S
C951 C952 1.389 . S
C952 C951 1.389 . S
C952 C953 1.379 . S
C952 H977 0.929 . S
C953 C952 1.379 . S
C953 C954 1.405 . S
C954 C949 1.403 . S
C954 C953 1.405 . S
C954 H978 0.932 . S
O955 Cd890 2.173 . S
O955 C891 1.277 . S
O956 C891 1.230 . S
O956 Cd894 2.250 . S
O957 Cd890 2.263 . S
O957 C910 1.258 . S
O958 Cd894 2.308 . S
O958 C910 1.274 . S
O959 Cd890 2.366 . S
O959 C946 1.263 . S
C960 O961 1.235 . S
C960 O962 1.270 . S
O961 Cd894 2.352 . S
O961 C960 1.235 . S
O962 Cd890 2.329 . S
O962 C960 1.270 . S
C963 O947 1.270 1_556 S
C963 O948 1.248 . S
H964 C896 0.930 . S
H965 C899 0.930 1_556 S
H966 C900 0.931 . S
H967 C905 0.929 . S
H968 C907 0.930 . S
H969 C909 0.930 . S
H970 C912 0.929 . S
H971 C913 0.932 1_554 S
H972 C915 0.930 . S
H973 C939 0.929 . S
H974 C940 0.932 . S
H975 C941 0.931 . S
H976 C950 0.931 . S
H977 C952 0.929 . S
H978 C954 0.932 . S
Cd979 O1036 2.350 . S
Cd979 O1037 2.277 1_554 S
Cd979 O1044 2.173 . S
Cd979 O1046 2.263 . S
Cd979 O1048 2.366 . S
Cd979 O1051 2.329 . S
C980 O1044 1.277 . S
C980 O1045 1.230 . S
C981 O982 1.246 . S
C981 C984 1.481 1_556 S
C981 N1006 1.329 . S
O982 C981 1.246 . S
Cd983 O1045 2.250 . S
Cd983 O1047 2.308 . S
Cd983 O1050 2.352 . S
C984 C981 1.481 1_554 S
C984 N987 1.327 . S
C984 C988 1.407 . S
C985 C986 1.346 . S
C985 C989 1.390 . S
C985 H1053 0.930 . S
C986 C985 1.346 . S
C986 N987 1.342 . S
C986 C991 1.516 . S
N987 C984 1.327 . S
N987 C986 1.342 . S
N987 Co990 1.864 . S
C988 C984 1.407 . S
C988 C989 1.364 . S
C988 H1054 0.930 1_554 S
C989 C985 1.390 . S
C989 C988 1.364 . S
C989 H1055 0.931 . S
Co990 N987 1.864 . S
Co990 N1006 1.955 1_554 S
Co990 N1007 1.958 . S
Co990 N1008 1.953 . S
Co990 N1026 1.869 . S
Co990 N1032 1.974 . S
C991 C986 1.516 . S
C991 O992 1.238 . S
C991 N1007 1.324 . S
O992 C991 1.238 . S
C993 C994 1.394 . S
C993 C998 1.395 . S
C993 N1007 1.427 . S
C994 C993 1.394 . S
C994 C995 1.380 . S
C994 H1056 0.929 . S
C995 C994 1.380 . S
C995 C996 1.384 . S
C995 C999 1.495 . S
C996 C995 1.384 . S
C996 C997 1.382 . S
C996 H1057 0.930 . S
C997 C996 1.382 . S
C997 C998 1.398 . S
C998 C993 1.395 . S
C998 C997 1.398 . S
C998 H1058 0.930 . S
C999 C995 1.495 . S
C999 O1046 1.258 . S
C999 O1047 1.274 . S
C1000 C1001 1.385 . S
C1000 C1002 1.381 . S
C1000 N1006 1.432 . S
C1001 C1000 1.385 . S
C1001 C1005 1.388 . S
C1001 H1059 0.929 . S
C1002 C1000 1.381 . S
C1002 C1003 1.371 . S
C1002 H1060 0.932 1_556 S
C1003 C1002 1.371 . S
C1003 C1004 1.400 . S
C1004 C1003 1.400 . S
C1004 C1005 1.351 . S
C1004 H1061 0.930 . S
C1005 C1001 1.388 . S
C1005 C1004 1.351 . S
N1006 C981 1.329 . S
N1006 Co990 1.955 1_556 S
N1006 C1000 1.432 . S
N1007 Co990 1.958 . S
N1007 C991 1.324 . S
N1007 C993 1.427 . S
N1008 Co990 1.953 . S
N1008 C1009 1.436 . S
N1008 C1035 1.316 . S
C1009 N1008 1.436 . S
C1009 C1010 1.421 1_554 S
C1009 C1011 1.360 . S
C1010 C1009 1.421 1_556 S
C1010 C1012 1.379 . S
C1010 H1013 0.929 . S
C1011 C1009 1.360 . S
C1011 C1015 1.393 . S
C1011 H1017 0.931 . S
C1012 C1010 1.379 . S
C1012 C1014 1.417 . S
C1012 C1016 1.505 . S
H1013 C1010 0.929 . S
C1014 C1012 1.417 . S
C1014 C1015 1.352 1_556 S
C1014 H1018 0.929 . S
C1015 C1011 1.393 . S
C1015 C1014 1.352 1_554 S
C1015 C1019 1.482 . S
C1016 C1012 1.505 . S
C1016 O1020 1.259 . S
C1016 O1021 1.229 . S
H1017 C1011 0.931 . S
H1018 C1014 0.929 . S
C1019 C1015 1.482 . S
C1019 O1022 1.207 . S
C1019 O1023 1.289 . S
O1020 C1016 1.259 . S
O1020 H1024 0.822 . S
O1021 C1016 1.229 . S
O1022 C1019 1.207 . S
O1023 C1019 1.289 . S
O1023 H1025 0.819 . S
H1024 O1020 0.822 . S
H1025 O1023 0.819 . S
N1026 Co990 1.869 . S
N1026 C1027 1.330 . S
N1026 C1031 1.325 . S
C1027 N1026 1.330 . S
C1027 C1028 1.359 . S
C1027 C1033 1.504 . S
C1028 C1027 1.359 . S
C1028 C1029 1.366 . S
C1028 H1062 0.929 . S
C1029 C1028 1.366 . S
C1029 C1030 1.415 . S
C1029 H1063 0.932 . S
C1030 C1029 1.415 . S
C1030 C1031 1.366 . S
C1030 H1064 0.931 . S
C1031 N1026 1.325 . S
C1031 C1030 1.366 . S
C1031 C1035 1.516 . S
N1032 Co990 1.974 . S
N1032 C1033 1.309 . S
N1032 C1038 1.423 . S
C1033 C1027 1.504 . S
C1033 N1032 1.309 . S
C1033 O1034 1.258 . S
O1034 C1033 1.258 . S
C1035 N1008 1.316 . S
C1035 C1031 1.516 . S
C1035 O1048 1.263 . S
O1036 Cd979 2.350 . S
O1036 C1052 1.270 1_554 S
O1037 Cd979 2.277 1_556 S
O1037 C1052 1.248 . S
C1038 N1032 1.423 . S
C1038 C1039 1.370 . S
C1038 C1043 1.403 . S
C1039 C1038 1.370 . S
C1039 C1040 1.389 . S
C1039 H1065 0.931 . S
C1040 C1039 1.389 . S
C1040 C1041 1.389 . S
C1041 C1040 1.389 . S
C1041 C1042 1.379 . S
C1041 H1066 0.929 . S
C1042 C1041 1.379 . S
C1042 C1043 1.405 . S
C1043 C1038 1.403 . S
C1043 C1042 1.405 . S
C1043 H1067 0.932 . S
O1044 Cd979 2.173 . S
O1044 C980 1.277 . S
O1045 C980 1.230 . S
O1045 Cd983 2.250 . S
O1046 Cd979 2.263 . S
O1046 C999 1.258 . S
O1047 Cd983 2.308 . S
O1047 C999 1.274 . S
O1048 Cd979 2.366 . S
O1048 C1035 1.263 . S
C1049 O1050 1.235 . S
C1049 O1051 1.270 . S
O1050 Cd983 2.352 . S
O1050 C1049 1.235 . S
O1051 Cd979 2.329 . S
O1051 C1049 1.270 . S
C1052 O1036 1.270 1_556 S
C1052 O1037 1.248 . S
H1053 C985 0.930 . S
H1054 C988 0.930 1_556 S
H1055 C989 0.931 . S
H1056 C994 0.929 . S
H1057 C996 0.930 . S
H1058 C998 0.930 . S
H1059 C1001 0.929 . S
H1060 C1002 0.932 1_554 S
H1061 C1004 0.930 . S
H1062 C1028 0.929 . S
H1063 C1029 0.932 . S
H1064 C1030 0.931 . S
H1065 C1039 0.931 . S
H1066 C1041 0.929 . S
H1067 C1043 0.932 . S
Cd1068 O1125 2.350 . S
Cd1068 O1126 2.277 1_556 S
Cd1068 O1133 2.173 . S
Cd1068 O1135 2.263 . S
Cd1068 O1137 2.366 . S
Cd1068 O1140 2.329 . S
C1069 O1133 1.277 . S
C1069 O1134 1.230 . S
C1070 O1071 1.246 . S
C1070 C1073 1.481 1_554 S
C1070 N1095 1.329 . S
O1071 C1070 1.246 . S
Cd1072 O1134 2.250 . S
Cd1072 O1136 2.308 . S
Cd1072 O1139 2.352 . S
C1073 C1070 1.481 1_556 S
C1073 N1076 1.327 . S
C1073 C1077 1.407 . S
C1074 C1075 1.346 . S
C1074 C1078 1.390 . S
C1074 H1142 0.930 . S
C1075 C1074 1.346 . S
C1075 N1076 1.342 . S
C1075 C1080 1.516 . S
N1076 C1073 1.327 . S
N1076 C1075 1.342 . S
N1076 Co1079 1.864 . S
C1077 C1073 1.407 . S
C1077 C1078 1.364 . S
C1077 H1143 0.930 1_556 S
C1078 C1074 1.390 . S
C1078 C1077 1.364 . S
C1078 H1144 0.931 . S
Co1079 N1076 1.864 . S
Co1079 N1095 1.955 1_556 S
Co1079 N1096 1.958 . S
Co1079 N1097 1.953 . S
Co1079 N1115 1.869 . S
Co1079 N1121 1.974 . S
C1080 C1075 1.516 . S
C1080 O1081 1.238 . S
C1080 N1096 1.324 . S
O1081 C1080 1.238 . S
C1082 C1083 1.394 . S
C1082 C1087 1.395 . S
C1082 N1096 1.427 . S
C1083 C1082 1.394 . S
C1083 C1084 1.380 . S
C1083 H1145 0.929 . S
C1084 C1083 1.380 . S
C1084 C1085 1.384 . S
C1084 C1088 1.495 . S
C1085 C1084 1.384 . S
C1085 C1086 1.382 . S
C1085 H1146 0.930 . S
C1086 C1085 1.382 . S
C1086 C1087 1.398 . S
C1087 C1082 1.395 . S
C1087 C1086 1.398 . S
C1087 H1147 0.930 . S
C1088 C1084 1.495 . S
C1088 O1135 1.258 . S
C1088 O1136 1.274 . S
C1089 C1090 1.385 . S
C1089 C1091 1.381 . S
C1089 N1095 1.432 . S
C1090 C1089 1.385 . S
C1090 C1094 1.388 . S
C1090 H1148 0.929 . S
C1091 C1089 1.381 . S
C1091 C1092 1.371 . S
C1091 H1149 0.932 1_554 S
C1092 C1091 1.371 . S
C1092 C1093 1.400 . S
C1093 C1092 1.400 . S
C1093 C1094 1.351 . S
C1093 H1150 0.930 . S
C1094 C1090 1.388 . S
C1094 C1093 1.351 . S
N1095 C1070 1.329 . S
N1095 Co1079 1.955 1_554 S
N1095 C1089 1.432 . S
N1096 Co1079 1.958 . S
N1096 C1080 1.324 . S
N1096 C1082 1.427 . S
N1097 Co1079 1.953 . S
N1097 C1098 1.436 . S
N1097 C1124 1.316 . S
C1098 N1097 1.436 . S
C1098 C1099 1.421 1_556 S
C1098 C1100 1.360 . S
C1099 C1098 1.421 1_554 S
C1099 C1101 1.379 . S
C1099 H1102 0.929 . S
C1100 C1098 1.360 . S
C1100 C1104 1.393 . S
C1100 H1106 0.931 . S
C1101 C1099 1.379 . S
C1101 C1103 1.417 . S
C1101 C1105 1.505 . S
H1102 C1099 0.929 . S
C1103 C1101 1.417 . S
C1103 C1104 1.352 1_554 S
C1103 H1107 0.929 . S
C1104 C1100 1.393 . S
C1104 C1103 1.352 1_556 S
C1104 C1108 1.482 . S
C1105 C1101 1.505 . S
C1105 O1109 1.259 . S
C1105 O1110 1.229 . S
H1106 C1100 0.931 . S
H1107 C1103 0.929 . S
C1108 C1104 1.482 . S
C1108 O1111 1.207 . S
C1108 O1112 1.289 1_545 S
O1109 C1105 1.259 . S
O1109 H1113 0.822 . S
O1110 C1105 1.229 . S
O1111 C1108 1.207 . S
O1112 C1108 1.289 1_565 S
O1112 H1114 0.819 . S
H1113 O1109 0.822 . S
H1114 O1112 0.819 . S
N1115 Co1079 1.869 . S
N1115 C1116 1.330 . S
N1115 C1120 1.325 . S
C1116 N1115 1.330 . S
C1116 C1117 1.359 . S
C1116 C1122 1.504 . S
C1117 C1116 1.359 . S
C1117 C1118 1.366 . S
C1117 H1151 0.929 . S
C1118 C1117 1.366 . S
C1118 C1119 1.415 . S
C1118 H1152 0.932 . S
C1119 C1118 1.415 . S
C1119 C1120 1.366 . S
C1119 H1153 0.931 . S
C1120 N1115 1.325 . S
C1120 C1119 1.366 . S
C1120 C1124 1.516 . S
N1121 Co1079 1.974 . S
N1121 C1122 1.309 . S
N1121 C1127 1.423 . S
C1122 C1116 1.504 . S
C1122 N1121 1.309 . S
C1122 O1123 1.258 . S
O1123 C1122 1.258 . S
C1124 N1097 1.316 . S
C1124 C1120 1.516 . S
C1124 O1137 1.263 . S
O1125 Cd1068 2.350 . S
O1125 C1141 1.270 1_556 S
O1126 Cd1068 2.277 1_554 S
O1126 C1141 1.248 . S
C1127 N1121 1.423 . S
C1127 C1128 1.370 . S
C1127 C1132 1.403 . S
C1128 C1127 1.370 . S
C1128 C1129 1.389 . S
C1128 H1154 0.931 . S
C1129 C1128 1.389 . S
C1129 C1130 1.389 . S
C1130 C1129 1.389 . S
C1130 C1131 1.379 . S
C1130 H1155 0.929 . S
C1131 C1130 1.379 . S
C1131 C1132 1.405 . S
C1132 C1127 1.403 . S
C1132 C1131 1.405 . S
C1132 H1156 0.932 . S
O1133 Cd1068 2.173 . S
O1133 C1069 1.277 . S
O1134 C1069 1.230 . S
O1134 Cd1072 2.250 . S
O1135 Cd1068 2.263 . S
O1135 C1088 1.258 . S
O1136 Cd1072 2.308 . S
O1136 C1088 1.274 . S
O1137 Cd1068 2.366 . S
O1137 C1124 1.263 . S
C1138 O1139 1.235 . S
C1138 O1140 1.270 . S
O1139 Cd1072 2.352 . S
O1139 C1138 1.235 . S
O1140 Cd1068 2.329 . S
O1140 C1138 1.270 . S
C1141 O1125 1.270 1_554 S
C1141 O1126 1.248 . S
H1142 C1074 0.930 . S
H1143 C1077 0.930 1_554 S
H1144 C1078 0.931 . S
H1145 C1083 0.929 . S
H1146 C1085 0.930 . S
H1147 C1087 0.930 . S
H1148 C1090 0.929 . S
H1149 C1091 0.932 1_556 S
H1150 C1093 0.930 . S
H1151 C1117 0.929 . S
H1152 C1118 0.932 . S
H1153 C1119 0.931 . S
H1154 C1128 0.931 . S
H1155 C1130 0.929 . S
H1156 C1132 0.932 . S
Cd1157 O1214 2.350 . S
Cd1157 O1215 2.277 1_556 S
Cd1157 O1222 2.173 . S
Cd1157 O1224 2.263 . S
Cd1157 O1226 2.366 . S
Cd1157 O1229 2.329 . S
C1158 O1222 1.277 . S
C1158 O1223 1.230 . S
C1159 O1160 1.246 . S
C1159 C1162 1.481 1_554 S
C1159 N1184 1.329 . S
O1160 C1159 1.246 . S
Cd1161 O1223 2.250 . S
Cd1161 O1225 2.308 . S
Cd1161 O1228 2.352 . S
C1162 C1159 1.481 1_556 S
C1162 N1165 1.327 . S
C1162 C1166 1.407 . S
C1163 C1164 1.346 . S
C1163 C1167 1.390 . S
C1163 H1231 0.930 . S
C1164 C1163 1.346 . S
C1164 N1165 1.342 . S
C1164 C1169 1.516 . S
N1165 C1162 1.327 . S
N1165 C1164 1.342 . S
N1165 Co1168 1.864 . S
C1166 C1162 1.407 . S
C1166 C1167 1.364 . S
C1166 H1232 0.930 1_556 S
C1167 C1163 1.390 . S
C1167 C1166 1.364 . S
C1167 H1233 0.931 . S
Co1168 N1165 1.864 . S
Co1168 N1184 1.955 1_556 S
Co1168 N1185 1.958 . S
Co1168 N1186 1.953 . S
Co1168 N1204 1.869 . S
Co1168 N1210 1.974 . S
C1169 C1164 1.516 . S
C1169 O1170 1.238 . S
C1169 N1185 1.324 . S
O1170 C1169 1.238 . S
C1171 C1172 1.394 . S
C1171 C1176 1.395 . S
C1171 N1185 1.427 . S
C1172 C1171 1.394 . S
C1172 C1173 1.380 . S
C1172 H1234 0.929 . S
C1173 C1172 1.380 . S
C1173 C1174 1.384 . S
C1173 C1177 1.495 . S
C1174 C1173 1.384 . S
C1174 C1175 1.382 . S
C1174 H1235 0.930 . S
C1175 C1174 1.382 . S
C1175 C1176 1.398 . S
C1176 C1171 1.395 . S
C1176 C1175 1.398 . S
C1176 H1236 0.930 . S
C1177 C1173 1.495 . S
C1177 O1224 1.258 . S
C1177 O1225 1.274 . S
C1178 C1179 1.385 . S
C1178 C1180 1.381 . S
C1178 N1184 1.432 . S
C1179 C1178 1.385 . S
C1179 C1183 1.388 . S
C1179 H1237 0.929 . S
C1180 C1178 1.381 . S
C1180 C1181 1.371 . S
C1180 H1238 0.932 1_554 S
C1181 C1180 1.371 . S
C1181 C1182 1.400 . S
C1182 C1181 1.400 . S
C1182 C1183 1.351 . S
C1182 H1239 0.930 . S
C1183 C1179 1.388 . S
C1183 C1182 1.351 . S
N1184 C1159 1.329 . S
N1184 Co1168 1.955 1_554 S
N1184 C1178 1.432 . S
N1185 Co1168 1.958 . S
N1185 C1169 1.324 . S
N1185 C1171 1.427 . S
N1186 Co1168 1.953 . S
N1186 C1187 1.436 . S
N1186 C1213 1.316 . S
C1187 N1186 1.436 . S
C1187 C1188 1.421 1_556 S
C1187 C1189 1.360 . S
C1188 C1187 1.421 1_554 S
C1188 C1190 1.379 . S
C1188 H1191 0.929 . S
C1189 C1187 1.360 . S
C1189 C1193 1.393 . S
C1189 H1195 0.931 . S
C1190 C1188 1.379 . S
C1190 C1192 1.417 . S
C1190 C1194 1.505 . S
H1191 C1188 0.929 . S
C1192 C1190 1.417 . S
C1192 C1193 1.352 1_554 S
C1192 H1196 0.929 . S
C1193 C1189 1.393 . S
C1193 C1192 1.352 1_556 S
C1193 C1197 1.482 . S
C1194 C1190 1.505 . S
C1194 O1198 1.259 . S
C1194 O1199 1.229 . S
H1195 C1189 0.931 . S
H1196 C1192 0.929 . S
C1197 C1193 1.482 . S
C1197 O1200 1.207 . S
C1197 O1201 1.289 1_655 S
O1198 C1194 1.259 . S
O1198 H1202 0.822 . S
O1199 C1194 1.229 . S
O1200 C1197 1.207 . S
O1201 C1197 1.289 1_455 S
O1201 H1203 0.819 . S
H1202 O1198 0.822 . S
H1203 O1201 0.819 . S
N1204 Co1168 1.869 . S
N1204 C1205 1.330 . S
N1204 C1209 1.325 . S
C1205 N1204 1.330 . S
C1205 C1206 1.359 . S
C1205 C1211 1.504 . S
C1206 C1205 1.359 . S
C1206 C1207 1.366 . S
C1206 H1240 0.929 . S
C1207 C1206 1.366 . S
C1207 C1208 1.415 . S
C1207 H1241 0.932 . S
C1208 C1207 1.415 . S
C1208 C1209 1.366 . S
C1208 H1242 0.931 . S
C1209 N1204 1.325 . S
C1209 C1208 1.366 . S
C1209 C1213 1.516 . S
N1210 Co1168 1.974 . S
N1210 C1211 1.309 . S
N1210 C1216 1.423 . S
C1211 C1205 1.504 . S
C1211 N1210 1.309 . S
C1211 O1212 1.258 . S
O1212 C1211 1.258 . S
C1213 N1186 1.316 . S
C1213 C1209 1.516 . S
C1213 O1226 1.263 . S
O1214 Cd1157 2.350 . S
O1214 C1230 1.270 1_556 S
O1215 Cd1157 2.277 1_554 S
O1215 C1230 1.248 . S
C1216 N1210 1.423 . S
C1216 C1217 1.370 . S
C1216 C1221 1.403 . S
C1217 C1216 1.370 . S
C1217 C1218 1.389 . S
C1217 H1243 0.931 . S
C1218 C1217 1.389 . S
C1218 C1219 1.389 . S
C1219 C1218 1.389 . S
C1219 C1220 1.379 . S
C1219 H1244 0.929 . S
C1220 C1219 1.379 . S
C1220 C1221 1.405 . S
C1221 C1216 1.403 . S
C1221 C1220 1.405 . S
C1221 H1245 0.932 . S
O1222 Cd1157 2.173 . S
O1222 C1158 1.277 . S
O1223 C1158 1.230 . S
O1223 Cd1161 2.250 . S
O1224 Cd1157 2.263 . S
O1224 C1177 1.258 . S
O1225 Cd1161 2.308 . S
O1225 C1177 1.274 . S
O1226 Cd1157 2.366 . S
O1226 C1213 1.263 . S
C1227 O1228 1.235 . S
C1227 O1229 1.270 . S
O1228 Cd1161 2.352 . S
O1228 C1227 1.235 . S
O1229 Cd1157 2.329 . S
O1229 C1227 1.270 . S
C1230 O1214 1.270 1_554 S
C1230 O1215 1.248 . S
H1231 C1163 0.930 . S
H1232 C1166 0.930 1_554 S
H1233 C1167 0.931 . S
H1234 C1172 0.929 . S
H1235 C1174 0.930 . S
H1236 C1176 0.930 . S
H1237 C1179 0.929 . S
H1238 C1180 0.932 1_556 S
H1239 C1182 0.930 . S
H1240 C1206 0.929 . S
H1241 C1207 0.932 . S
H1242 C1208 0.931 . S
H1243 C1217 0.931 . S
H1244 C1219 0.929 . S
H1245 C1221 0.932 . S
Cd1246 O1303 2.350 . S
Cd1246 O1304 2.277 1_556 S
Cd1246 O1311 2.173 . S
Cd1246 O1313 2.263 . S
Cd1246 O1315 2.366 . S
Cd1246 O1318 2.329 . S
C1247 O1311 1.277 . S
C1247 O1312 1.230 . S
C1248 O1249 1.246 . S
C1248 C1251 1.481 1_554 S
C1248 N1273 1.329 . S
O1249 C1248 1.246 . S
Cd1250 O1312 2.250 . S
Cd1250 O1314 2.308 . S
Cd1250 O1317 2.352 . S
C1251 C1248 1.481 1_556 S
C1251 N1254 1.327 . S
C1251 C1255 1.407 . S
C1252 C1253 1.346 . S
C1252 C1256 1.390 . S
C1252 H1320 0.930 . S
C1253 C1252 1.346 . S
C1253 N1254 1.342 . S
C1253 C1258 1.516 . S
N1254 C1251 1.327 . S
N1254 C1253 1.342 . S
N1254 Co1257 1.864 . S
C1255 C1251 1.407 . S
C1255 C1256 1.364 . S
C1255 H1321 0.930 1_556 S
C1256 C1252 1.390 . S
C1256 C1255 1.364 . S
C1256 H1322 0.931 . S
Co1257 N1254 1.864 . S
Co1257 N1273 1.955 1_556 S
Co1257 N1274 1.958 . S
Co1257 N1275 1.953 . S
Co1257 N1293 1.869 . S
Co1257 N1299 1.974 . S
C1258 C1253 1.516 . S
C1258 O1259 1.238 . S
C1258 N1274 1.324 . S
O1259 C1258 1.238 . S
C1260 C1261 1.394 . S
C1260 C1265 1.395 . S
C1260 N1274 1.427 . S
C1261 C1260 1.394 . S
C1261 C1262 1.380 . S
C1261 H1323 0.929 . S
C1262 C1261 1.380 . S
C1262 C1263 1.384 . S
C1262 C1266 1.495 . S
C1263 C1262 1.384 . S
C1263 C1264 1.382 . S
C1263 H1324 0.930 . S
C1264 C1263 1.382 . S
C1264 C1265 1.398 . S
C1265 C1260 1.395 . S
C1265 C1264 1.398 . S
C1265 H1325 0.930 . S
C1266 C1262 1.495 . S
C1266 O1313 1.258 . S
C1266 O1314 1.274 . S
C1267 C1268 1.385 . S
C1267 C1269 1.381 . S
C1267 N1273 1.432 . S
C1268 C1267 1.385 . S
C1268 C1272 1.388 . S
C1268 H1326 0.929 . S
C1269 C1267 1.381 . S
C1269 C1270 1.371 . S
C1269 H1327 0.932 1_554 S
C1270 C1269 1.371 . S
C1270 C1271 1.400 . S
C1271 C1270 1.400 . S
C1271 C1272 1.351 . S
C1271 H1328 0.930 . S
C1272 C1268 1.388 . S
C1272 C1271 1.351 . S
N1273 C1248 1.329 . S
N1273 Co1257 1.955 1_554 S
N1273 C1267 1.432 . S
N1274 Co1257 1.958 . S
N1274 C1258 1.324 . S
N1274 C1260 1.427 . S
N1275 Co1257 1.953 . S
N1275 C1276 1.436 . S
N1275 C1302 1.316 . S
C1276 N1275 1.436 . S
C1276 C1277 1.421 1_556 S
C1276 C1278 1.360 . S
C1277 C1276 1.421 1_554 S
C1277 C1279 1.379 . S
C1277 H1280 0.929 . S
C1278 C1276 1.360 . S
C1278 C1282 1.393 . S
C1278 H1284 0.931 . S
C1279 C1277 1.379 . S
C1279 C1281 1.417 . S
C1279 C1283 1.505 . S
H1280 C1277 0.929 . S
C1281 C1279 1.417 . S
C1281 C1282 1.352 1_554 S
C1281 H1285 0.929 . S
C1282 C1278 1.393 . S
C1282 C1281 1.352 1_556 S
C1282 C1286 1.482 . S
C1283 C1279 1.505 . S
C1283 O1287 1.259 . S
C1283 O1288 1.229 . S
H1284 C1278 0.931 . S
H1285 C1281 0.929 . S
C1286 C1282 1.482 . S
C1286 O1289 1.207 . S
C1286 O1290 1.289 . S
O1287 C1283 1.259 . S
O1287 H1291 0.822 . S
O1288 C1283 1.229 . S
O1289 C1286 1.207 . S
O1290 C1286 1.289 . S
O1290 H1292 0.819 . S
H1291 O1287 0.822 . S
H1292 O1290 0.819 . S
N1293 Co1257 1.869 . S
N1293 C1294 1.330 . S
N1293 C1298 1.325 . S
C1294 N1293 1.330 . S
C1294 C1295 1.359 . S
C1294 C1300 1.504 . S
C1295 C1294 1.359 . S
C1295 C1296 1.366 . S
C1295 H1329 0.929 . S
C1296 C1295 1.366 . S
C1296 C1297 1.415 . S
C1296 H1330 0.932 . S
C1297 C1296 1.415 . S
C1297 C1298 1.366 . S
C1297 H1331 0.931 . S
C1298 N1293 1.325 . S
C1298 C1297 1.366 . S
C1298 C1302 1.516 . S
N1299 Co1257 1.974 . S
N1299 C1300 1.309 . S
N1299 C1305 1.423 . S
C1300 C1294 1.504 . S
C1300 N1299 1.309 . S
C1300 O1301 1.258 . S
O1301 C1300 1.258 . S
C1302 N1275 1.316 . S
C1302 C1298 1.516 . S
C1302 O1315 1.263 . S
O1303 Cd1246 2.350 . S
O1303 C1319 1.270 1_556 S
O1304 Cd1246 2.277 1_554 S
O1304 C1319 1.248 . S
C1305 N1299 1.423 . S
C1305 C1306 1.370 . S
C1305 C1310 1.403 . S
C1306 C1305 1.370 . S
C1306 C1307 1.389 . S
C1306 H1332 0.931 . S
C1307 C1306 1.389 . S
C1307 C1308 1.389 . S
C1308 C1307 1.389 . S
C1308 C1309 1.379 . S
C1308 H1333 0.929 . S
C1309 C1308 1.379 . S
C1309 C1310 1.405 . S
C1310 C1305 1.403 . S
C1310 C1309 1.405 . S
C1310 H1334 0.932 . S
O1311 Cd1246 2.173 . S
O1311 C1247 1.277 . S
O1312 C1247 1.230 . S
O1312 Cd1250 2.250 . S
O1313 Cd1246 2.263 . S
O1313 C1266 1.258 . S
O1314 Cd1250 2.308 . S
O1314 C1266 1.274 . S
O1315 Cd1246 2.366 . S
O1315 C1302 1.263 . S
C1316 O1317 1.235 . S
C1316 O1318 1.270 . S
O1317 Cd1250 2.352 . S
O1317 C1316 1.235 . S
O1318 Cd1246 2.329 . S
O1318 C1316 1.270 . S
C1319 O1303 1.270 1_554 S
C1319 O1304 1.248 . S
H1320 C1252 0.930 . S
H1321 C1255 0.930 1_554 S
H1322 C1256 0.931 . S
H1323 C1261 0.929 . S
H1324 C1263 0.930 . S
H1325 C1265 0.930 . S
H1326 C1268 0.929 . S
H1327 C1269 0.932 1_556 S
H1328 C1271 0.930 . S
H1329 C1295 0.929 . S
H1330 C1296 0.932 . S
H1331 C1297 0.931 . S
H1332 C1306 0.931 . S
H1333 C1308 0.929 . S
H1334 C1310 0.932 . S
Cd1335 O1392 2.350 . S
Cd1335 O1393 2.277 . S
Cd1335 O1400 2.173 . S
Cd1335 O1402 2.263 . S
Cd1335 O1404 2.366 . S
Cd1335 O1407 2.329 . S
C1336 O1400 1.277 . S
C1336 O1401 1.230 . S
C1337 O1338 1.246 . S
C1337 C1340 1.481 . S
C1337 N1362 1.329 . S
O1338 C1337 1.246 . S
Cd1339 O1401 2.250 . S
Cd1339 O1403 2.308 . S
Cd1339 O1406 2.352 . S
C1340 C1337 1.481 . S
C1340 N1343 1.327 . S
C1340 C1344 1.407 . S
C1341 C1342 1.346 . S
C1341 C1345 1.390 . S
C1341 H1409 0.930 . S
C1342 C1341 1.346 . S
C1342 N1343 1.342 . S
C1342 C1347 1.516 . S
N1343 C1340 1.327 . S
N1343 C1342 1.342 . S
N1343 Co1346 1.864 . S
C1344 C1340 1.407 . S
C1344 C1345 1.364 . S
C1344 H1410 0.930 . S
C1345 C1341 1.390 . S
C1345 C1344 1.364 . S
C1345 H1411 0.931 . S
Co1346 N1343 1.864 . S
Co1346 N1362 1.955 . S
Co1346 N1363 1.958 . S
Co1346 N1364 1.953 . S
Co1346 N1382 1.869 . S
Co1346 N1388 1.974 . S
C1347 C1342 1.516 . S
C1347 O1348 1.238 . S
C1347 N1363 1.324 . S
O1348 C1347 1.238 . S
C1349 C1350 1.394 . S
C1349 C1354 1.395 . S
C1349 N1363 1.427 . S
C1350 C1349 1.394 . S
C1350 C1351 1.380 . S
C1350 H1412 0.929 . S
C1351 C1350 1.380 . S
C1351 C1352 1.384 . S
C1351 C1355 1.495 . S
C1352 C1351 1.384 . S
C1352 C1353 1.382 . S
C1352 H1413 0.930 . S
C1353 C1352 1.382 . S
C1353 C1354 1.398 . S
C1354 C1349 1.395 . S
C1354 C1353 1.398 . S
C1354 H1414 0.930 . S
C1355 C1351 1.495 . S
C1355 O1402 1.258 . S
C1355 O1403 1.274 . S
C1356 C1357 1.385 . S
C1356 C1358 1.381 . S
C1356 N1362 1.432 . S
C1357 C1356 1.385 . S
C1357 C1361 1.388 . S
C1357 H1415 0.929 . S
C1358 C1356 1.381 . S
C1358 C1359 1.371 . S
C1358 H1416 0.932 . S
C1359 C1358 1.371 . S
C1359 C1360 1.400 . S
C1360 C1359 1.400 . S
C1360 C1361 1.351 . S
C1360 H1417 0.930 . S
C1361 C1357 1.388 . S
C1361 C1360 1.351 . S
N1362 C1337 1.329 . S
N1362 Co1346 1.955 . S
N1362 C1356 1.432 . S
N1363 Co1346 1.958 . S
N1363 C1347 1.324 . S
N1363 C1349 1.427 . S
N1364 Co1346 1.953 . S
N1364 C1365 1.436 . S
N1364 C1391 1.316 . S
C1365 N1364 1.436 . S
C1365 C1366 1.421 . S
C1365 C1367 1.360 . S
C1366 C1365 1.421 . S
C1366 C1368 1.379 . S
C1366 H1369 0.929 . S
C1367 C1365 1.360 . S
C1367 C1371 1.393 . S
C1367 H1373 0.931 . S
C1368 C1366 1.379 . S
C1368 C1370 1.417 . S
C1368 C1372 1.505 . S
H1369 C1366 0.929 . S
C1370 C1368 1.417 . S
C1370 C1371 1.352 . S
C1370 H1374 0.929 . S
C1371 C1367 1.393 . S
C1371 C1370 1.352 . S
C1371 C1375 1.482 . S
C1372 C1368 1.505 . S
C1372 O1376 1.259 . S
C1372 O1377 1.229 1_554 S
H1373 C1367 0.931 . S
H1374 C1370 0.929 . S
C1375 C1371 1.482 . S
C1375 O1378 1.207 . S
C1375 O1379 1.289 . S
O1376 C1372 1.259 . S
O1376 H1380 0.822 1_554 S
O1377 C1372 1.229 1_556 S
O1378 C1375 1.207 . S
O1379 C1375 1.289 . S
O1379 H1381 0.819 . S
H1380 O1376 0.822 1_556 S
H1381 O1379 0.819 . S
N1382 Co1346 1.869 . S
N1382 C1383 1.330 . S
N1382 C1387 1.325 . S
C1383 N1382 1.330 . S
C1383 C1384 1.359 . S
C1383 C1389 1.504 . S
C1384 C1383 1.359 . S
C1384 C1385 1.366 . S
C1384 H1418 0.929 . S
C1385 C1384 1.366 . S
C1385 C1386 1.415 . S
C1385 H1419 0.932 . S
C1386 C1385 1.415 . S
C1386 C1387 1.366 . S
C1386 H1420 0.931 . S
C1387 N1382 1.325 . S
C1387 C1386 1.366 . S
C1387 C1391 1.516 . S
N1388 Co1346 1.974 . S
N1388 C1389 1.309 . S
N1388 C1394 1.423 . S
C1389 C1383 1.504 . S
C1389 N1388 1.309 . S
C1389 O1390 1.258 . S
O1390 C1389 1.258 . S
C1391 N1364 1.316 . S
C1391 C1387 1.516 . S
C1391 O1404 1.263 . S
O1392 Cd1335 2.350 . S
O1392 C1408 1.270 . S
O1393 Cd1335 2.277 . S
O1393 C1408 1.248 . S
C1394 N1388 1.423 . S
C1394 C1395 1.370 . S
C1394 C1399 1.403 . S
C1395 C1394 1.370 . S
C1395 C1396 1.389 . S
C1395 H1421 0.931 . S
C1396 C1395 1.389 . S
C1396 C1397 1.389 . S
C1397 C1396 1.389 . S
C1397 C1398 1.379 . S
C1397 H1422 0.929 . S
C1398 C1397 1.379 . S
C1398 C1399 1.405 . S
C1399 C1394 1.403 . S
C1399 C1398 1.405 . S
C1399 H1423 0.932 . S
O1400 Cd1335 2.173 . S
O1400 C1336 1.277 . S
O1401 C1336 1.230 . S
O1401 Cd1339 2.250 . S
O1402 Cd1335 2.263 . S
O1402 C1355 1.258 . S
O1403 Cd1339 2.308 . S
O1403 C1355 1.274 . S
O1404 Cd1335 2.366 . S
O1404 C1391 1.263 . S
C1405 O1406 1.235 . S
C1405 O1407 1.270 . S
O1406 Cd1339 2.352 . S
O1406 C1405 1.235 . S
O1407 Cd1335 2.329 . S
O1407 C1405 1.270 . S
C1408 O1392 1.270 . S
C1408 O1393 1.248 . S
H1409 C1341 0.930 . S
H1410 C1344 0.930 . S
H1411 C1345 0.931 . S
H1412 C1350 0.929 . S
H1413 C1352 0.930 . S
H1414 C1354 0.930 . S
H1415 C1357 0.929 . S
H1416 C1358 0.932 . S
H1417 C1360 0.930 . S
H1418 C1384 0.929 . S
H1419 C1385 0.932 . S
H1420 C1386 0.931 . S
H1421 C1395 0.931 . S
H1422 C1397 0.929 . S
H1423 C1399 0.932 . S
Cd1424 O1481 2.350 . S
Cd1424 O1482 2.277 . S
Cd1424 O1489 2.173 . S
Cd1424 O1491 2.263 . S
Cd1424 O1493 2.366 . S
Cd1424 O1496 2.329 . S
C1425 O1489 1.277 . S
C1425 O1490 1.230 . S
C1426 O1427 1.246 . S
C1426 C1429 1.481 . S
C1426 N1451 1.329 . S
O1427 C1426 1.246 . S
Cd1428 O1490 2.250 . S
Cd1428 O1492 2.308 . S
Cd1428 O1495 2.352 . S
C1429 C1426 1.481 . S
C1429 N1432 1.327 . S
C1429 C1433 1.407 . S
C1430 C1431 1.346 . S
C1430 C1434 1.390 . S
C1430 H1498 0.930 . S
C1431 C1430 1.346 . S
C1431 N1432 1.342 . S
C1431 C1436 1.516 . S
N1432 C1429 1.327 . S
N1432 C1431 1.342 . S
N1432 Co1435 1.864 . S
C1433 C1429 1.407 . S
C1433 C1434 1.364 . S
C1433 H1499 0.930 . S
C1434 C1430 1.390 . S
C1434 C1433 1.364 . S
C1434 H1500 0.931 . S
Co1435 N1432 1.864 . S
Co1435 N1451 1.955 . S
Co1435 N1452 1.958 . S
Co1435 N1453 1.953 1_545 S
Co1435 N1471 1.869 1_545 S
Co1435 N1477 1.974 . S
C1436 C1431 1.516 . S
C1436 O1437 1.238 . S
C1436 N1452 1.324 . S
O1437 C1436 1.238 . S
C1438 C1439 1.394 . S
C1438 C1443 1.395 . S
C1438 N1452 1.427 1_565 S
C1439 C1438 1.394 . S
C1439 C1440 1.380 . S
C1439 H1501 0.929 . S
C1440 C1439 1.380 . S
C1440 C1441 1.384 . S
C1440 C1444 1.495 . S
C1441 C1440 1.384 . S
C1441 C1442 1.382 . S
C1441 H1502 0.930 . S
C1442 C1441 1.382 . S
C1442 C1443 1.398 . S
C1443 C1438 1.395 . S
C1443 C1442 1.398 . S
C1443 H1503 0.930 1_565 S
C1444 C1440 1.495 . S
C1444 O1491 1.258 . S
C1444 O1492 1.274 . S
C1445 C1446 1.385 . S
C1445 C1447 1.381 . S
C1445 N1451 1.432 . S
C1446 C1445 1.385 . S
C1446 C1450 1.388 . S
C1446 H1504 0.929 . S
C1447 C1445 1.381 . S
C1447 C1448 1.371 . S
C1447 H1505 0.932 . S
C1448 C1447 1.371 . S
C1448 C1449 1.400 . S
C1449 C1448 1.400 . S
C1449 C1450 1.351 . S
C1449 H1506 0.930 . S
C1450 C1446 1.388 . S
C1450 C1449 1.351 . S
N1451 C1426 1.329 . S
N1451 Co1435 1.955 . S
N1451 C1445 1.432 . S
N1452 Co1435 1.958 . S
N1452 C1436 1.324 . S
N1452 C1438 1.427 1_545 S
N1453 Co1435 1.953 1_565 S
N1453 C1454 1.436 . S
N1453 C1480 1.316 . S
C1454 N1453 1.436 . S
C1454 C1455 1.421 . S
C1454 C1456 1.360 . S
C1455 C1454 1.421 . S
C1455 C1457 1.379 . S
C1455 H1458 0.929 . S
C1456 C1454 1.360 . S
C1456 C1460 1.393 . S
C1456 H1462 0.931 . S
C1457 C1455 1.379 . S
C1457 C1459 1.417 . S
C1457 C1461 1.505 . S
H1458 C1455 0.929 . S
C1459 C1457 1.417 . S
C1459 C1460 1.352 . S
C1459 H1463 0.929 . S
C1460 C1456 1.393 . S
C1460 C1459 1.352 . S
C1460 C1464 1.482 . S
C1461 C1457 1.505 . S
C1461 O1465 1.259 . S
C1461 O1466 1.229 1_554 S
H1462 C1456 0.931 . S
H1463 C1459 0.929 . S
C1464 C1460 1.482 . S
C1464 O1467 1.207 . S
C1464 O1468 1.289 . S
O1465 C1461 1.259 . S
O1465 H1469 0.822 1_554 S
O1466 C1461 1.229 1_556 S
O1467 C1464 1.207 . S
O1468 C1464 1.289 . S
O1468 H1470 0.819 . S
H1469 O1465 0.822 1_556 S
H1470 O1468 0.819 . S
N1471 Co1435 1.869 1_565 S
N1471 C1472 1.330 1_565 S
N1471 C1476 1.325 . S
C1472 N1471 1.330 1_545 S
C1472 C1473 1.359 1_545 S
C1472 C1478 1.504 . S
C1473 C1472 1.359 1_565 S
C1473 C1474 1.366 . S
C1473 H1507 0.929 . S
C1474 C1473 1.366 . S
C1474 C1475 1.415 . S
C1474 H1508 0.932 . S
C1475 C1474 1.415 . S
C1475 C1476 1.366 . S
C1475 H1509 0.931 . S
C1476 N1471 1.325 . S
C1476 C1475 1.366 . S
C1476 C1480 1.516 . S
N1477 Co1435 1.974 . S
N1477 C1478 1.309 . S
N1477 C1483 1.423 . S
C1478 C1472 1.504 . S
C1478 N1477 1.309 . S
C1478 O1479 1.258 . S
O1479 C1478 1.258 . S
C1480 N1453 1.316 . S
C1480 C1476 1.516 . S
C1480 O1493 1.263 . S
O1481 Cd1424 2.350 . S
O1481 C1497 1.270 . S
O1482 Cd1424 2.277 . S
O1482 C1497 1.248 . S
C1483 N1477 1.423 . S
C1483 C1484 1.370 . S
C1483 C1488 1.403 . S
C1484 C1483 1.370 . S
C1484 C1485 1.389 . S
C1484 H1510 0.931 . S
C1485 C1484 1.389 . S
C1485 C1486 1.389 . S
C1486 C1485 1.389 . S
C1486 C1487 1.379 . S
C1486 H1511 0.929 . S
C1487 C1486 1.379 . S
C1487 C1488 1.405 . S
C1488 C1483 1.403 . S
C1488 C1487 1.405 . S
C1488 H1512 0.932 . S
O1489 Cd1424 2.173 . S
O1489 C1425 1.277 . S
O1490 C1425 1.230 . S
O1490 Cd1428 2.250 . S
O1491 Cd1424 2.263 . S
O1491 C1444 1.258 . S
O1492 Cd1428 2.308 . S
O1492 C1444 1.274 . S
O1493 Cd1424 2.366 . S
O1493 C1480 1.263 . S
C1494 O1495 1.235 . S
C1494 O1496 1.270 . S
O1495 Cd1428 2.352 . S
O1495 C1494 1.235 . S
O1496 Cd1424 2.329 . S
O1496 C1494 1.270 . S
C1497 O1481 1.270 . S
C1497 O1482 1.248 . S
H1498 C1430 0.930 . S
H1499 C1433 0.930 . S
H1500 C1434 0.931 . S
H1501 C1439 0.929 . S
H1502 C1441 0.930 . S
H1503 C1443 0.930 1_545 S
H1504 C1446 0.929 . S
H1505 C1447 0.932 . S
H1506 C1449 0.930 . S
H1507 C1473 0.929 . S
H1508 C1474 0.932 . S
H1509 C1475 0.931 . S
H1510 C1484 0.931 . S
H1511 C1486 0.929 . S
H1512 C1488 0.932 . S
Cd1513 O1570 2.350 . S
Cd1513 O1571 2.277 . S
Cd1513 O1578 2.173 . S
Cd1513 O1580 2.263 . S
Cd1513 O1582 2.366 . S
Cd1513 O1585 2.329 . S
C1514 O1578 1.277 . S
C1514 O1579 1.230 . S
C1515 O1516 1.246 . S
C1515 C1518 1.481 . S
C1515 N1540 1.329 . S
O1516 C1515 1.246 . S
Cd1517 O1579 2.250 . S
Cd1517 O1581 2.308 . S
Cd1517 O1584 2.352 . S
C1518 C1515 1.481 . S
C1518 N1521 1.327 . S
C1518 C1522 1.407 . S
C1519 C1520 1.346 . S
C1519 C1523 1.390 . S
C1519 H1587 0.930 . S
C1520 C1519 1.346 . S
C1520 N1521 1.342 . S
C1520 C1525 1.516 . S
N1521 C1518 1.327 . S
N1521 C1520 1.342 . S
N1521 Co1524 1.864 . S
C1522 C1518 1.407 . S
C1522 C1523 1.364 . S
C1522 H1588 0.930 . S
C1523 C1519 1.390 . S
C1523 C1522 1.364 . S
C1523 H1589 0.931 . S
Co1524 N1521 1.864 . S
Co1524 N1540 1.955 . S
Co1524 N1541 1.958 . S
Co1524 N1542 1.953 1_655 S
Co1524 N1560 1.869 1_655 S
Co1524 N1566 1.974 . S
C1525 C1520 1.516 . S
C1525 O1526 1.238 . S
C1525 N1541 1.324 . S
O1526 C1525 1.238 . S
C1527 C1528 1.394 . S
C1527 C1532 1.395 . S
C1527 N1541 1.427 1_455 S
C1528 C1527 1.394 . S
C1528 C1529 1.380 . S
C1528 H1590 0.929 . S
C1529 C1528 1.380 . S
C1529 C1530 1.384 . S
C1529 C1533 1.495 . S
C1530 C1529 1.384 . S
C1530 C1531 1.382 . S
C1530 H1591 0.930 . S
C1531 C1530 1.382 . S
C1531 C1532 1.398 . S
C1532 C1527 1.395 . S
C1532 C1531 1.398 . S
C1532 H1592 0.930 1_455 S
C1533 C1529 1.495 . S
C1533 O1580 1.258 . S
C1533 O1581 1.274 . S
C1534 C1535 1.385 . S
C1534 C1536 1.381 . S
C1534 N1540 1.432 . S
C1535 C1534 1.385 . S
C1535 C1539 1.388 . S
C1535 H1593 0.929 . S
C1536 C1534 1.381 . S
C1536 C1537 1.371 . S
C1536 H1594 0.932 . S
C1537 C1536 1.371 . S
C1537 C1538 1.400 . S
C1538 C1537 1.400 . S
C1538 C1539 1.351 . S
C1538 H1595 0.930 . S
C1539 C1535 1.388 . S
C1539 C1538 1.351 . S
N1540 C1515 1.329 . S
N1540 Co1524 1.955 . S
N1540 C1534 1.432 . S
N1541 Co1524 1.958 . S
N1541 C1525 1.324 . S
N1541 C1527 1.427 1_655 S
N1542 Co1524 1.953 1_455 S
N1542 C1543 1.436 . S
N1542 C1569 1.316 . S
C1543 N1542 1.436 . S
C1543 C1544 1.421 . S
C1543 C1545 1.360 . S
C1544 C1543 1.421 . S
C1544 C1546 1.379 . S
C1544 H1547 0.929 . S
C1545 C1543 1.360 . S
C1545 C1549 1.393 . S
C1545 H1551 0.931 . S
C1546 C1544 1.379 . S
C1546 C1548 1.417 . S
C1546 C1550 1.505 . S
H1547 C1544 0.929 . S
C1548 C1546 1.417 . S
C1548 C1549 1.352 . S
C1548 H1552 0.929 . S
C1549 C1545 1.393 . S
C1549 C1548 1.352 . S
C1549 C1553 1.482 . S
C1550 C1546 1.505 . S
C1550 O1554 1.259 . S
C1550 O1555 1.229 1_554 S
H1551 C1545 0.931 . S
H1552 C1548 0.929 . S
C1553 C1549 1.482 . S
C1553 O1556 1.207 . S
C1553 O1557 1.289 . S
O1554 C1550 1.259 . S
O1554 H1558 0.822 1_554 S
O1555 C1550 1.229 1_556 S
O1556 C1553 1.207 . S
O1557 C1553 1.289 . S
O1557 H1559 0.819 . S
H1558 O1554 0.822 1_556 S
H1559 O1557 0.819 . S
N1560 Co1524 1.869 1_455 S
N1560 C1561 1.330 1_455 S
N1560 C1565 1.325 . S
C1561 N1560 1.330 1_655 S
C1561 C1562 1.359 1_655 S
C1561 C1567 1.504 . S
C1562 C1561 1.359 1_455 S
C1562 C1563 1.366 . S
C1562 H1596 0.929 . S
C1563 C1562 1.366 . S
C1563 C1564 1.415 . S
C1563 H1597 0.932 . S
C1564 C1563 1.415 . S
C1564 C1565 1.366 . S
C1564 H1598 0.931 . S
C1565 N1560 1.325 . S
C1565 C1564 1.366 . S
C1565 C1569 1.516 . S
N1566 Co1524 1.974 . S
N1566 C1567 1.309 . S
N1566 C1572 1.423 . S
C1567 C1561 1.504 . S
C1567 N1566 1.309 . S
C1567 O1568 1.258 . S
O1568 C1567 1.258 . S
C1569 N1542 1.316 . S
C1569 C1565 1.516 . S
C1569 O1582 1.263 . S
O1570 Cd1513 2.350 . S
O1570 C1586 1.270 . S
O1571 Cd1513 2.277 . S
O1571 C1586 1.248 . S
C1572 N1566 1.423 . S
C1572 C1573 1.370 . S
C1572 C1577 1.403 . S
C1573 C1572 1.370 . S
C1573 C1574 1.389 . S
C1573 H1599 0.931 . S
C1574 C1573 1.389 . S
C1574 C1575 1.389 . S
C1575 C1574 1.389 . S
C1575 C1576 1.379 . S
C1575 H1600 0.929 . S
C1576 C1575 1.379 . S
C1576 C1577 1.405 . S
C1577 C1572 1.403 . S
C1577 C1576 1.405 . S
C1577 H1601 0.932 . S
O1578 Cd1513 2.173 . S
O1578 C1514 1.277 . S
O1579 C1514 1.230 . S
O1579 Cd1517 2.250 . S
O1580 Cd1513 2.263 . S
O1580 C1533 1.258 . S
O1581 Cd1517 2.308 . S
O1581 C1533 1.274 . S
O1582 Cd1513 2.366 . S
O1582 C1569 1.263 . S
C1583 O1584 1.235 . S
C1583 O1585 1.270 . S
O1584 Cd1517 2.352 . S
O1584 C1583 1.235 . S
O1585 Cd1513 2.329 . S
O1585 C1583 1.270 . S
C1586 O1570 1.270 . S
C1586 O1571 1.248 . S
H1587 C1519 0.930 . S
H1588 C1522 0.930 . S
H1589 C1523 0.931 . S
H1590 C1528 0.929 . S
H1591 C1530 0.930 . S
H1592 C1532 0.930 1_655 S
H1593 C1535 0.929 . S
H1594 C1536 0.932 . S
H1595 C1538 0.930 . S
H1596 C1562 0.929 . S
H1597 C1563 0.932 . S
H1598 C1564 0.931 . S
H1599 C1573 0.931 . S
H1600 C1575 0.929 . S
H1601 C1577 0.932 . S
C1230 C61 3.388 1_654 S
C1319 C150 3.388 1_554 S
C239 C1141 3.387 1_566 S
C328 C963 3.388 1_654 S
C417 C1052 3.388 1_554 S
C506 C874 3.387 1_544 S
C162 C595 3.388 . S
C684 C251 3.388 . S
C73 C773 3.388 . S
C1497 C862 3.389 . S
C951 C1586 3.389 . S
C1040 C1408 3.388 . S
C696 C1129 3.389 . S
C1218 C785 3.389 . S
C1307 C607 3.388 . S
C429 C1396 3.388 . S
C518 C1485 3.388 . S
C1574 C340 3.388 . S
C1042 C1 2.421 . S
C864 C90 2.421 . S
C953 C179 2.419 . S
C268 C1309 2.421 . S
C357 C1131 2.421 . S
C446 C1220 2.419 . S
C535 C1576 2.420 . S
C624 C1398 2.420 . S
C713 C1487 2.420 . S
C241 C802 2.420 . S
C63 C891 2.419 . S
C980 C152 2.420 . S
C1069 C508 2.420 . S
C1158 C330 2.419 . S
C1247 C419 2.420 . S
C1336 C775 2.420 . S
C597 C1425 2.420 . S
C1514 C686 2.420 . S
C70 C1405 3.175 . S
C1494 C159 3.175 . S
C248 C1583 3.175 . S
C604 C337 3.175 . S
C693 C426 3.175 . S
C782 C515 3.175 . S
C1138 C871 3.176 1_546 S
C960 C1227 3.176 1_454 S
C1049 C1316 3.176 1_554 S
C18 C26 2.478 . S
C107 C115 2.478 . S
C196 C204 2.478 . S
C293 C285 2.478 . S
C382 C374 2.478 . S
C463 C471 2.478 . S
C560 C552 2.477 1_556 S
C649 C641 2.478 1_566 S
C730 C738 2.478 1_654 S
C827 C819 2.478 . S
C916 C908 2.478 . S
C997 C1005 2.478 . S
C1086 C1094 2.478 . S
C1175 C1183 2.478 . S
C1272 C1264 2.478 . S
C1361 C1353 2.477 1_554 S
C1442 C1450 2.478 1_566 S
C1531 C1539 2.478 1_456 S
