# Generated by pormake.
# Topology lon, (4)-cn, num edge types: 1
# Building blocks:
#     Node 0, Type 0, BuildingBlock: ICAMEG_clean_sbu_1, # of connection points: 4
#     Node 1, Type 0, BuildingBlock: ICAMEG_clean_sbu_1, # of connection points: 4
#     Node 2, Type 0, BuildingBlock: ICAMEG_clean_sbu_1, # of connection points: 4
#     Node 3, Type 0, BuildingBlock: ICAMEG_clean_sbu_1, # of connection points: 4
#     Edge 4, Type (0, 0), BuildingBlock: KIFKEQ_clean_linker_1, # of connection points: 2
#     Edge 5, Type (0, 0), BuildingBlock: KIFKEQ_clean_linker_1, # of connection points: 2
#     Edge 6, Type (0, 0), BuildingBlock: KIFKEQ_clean_linker_1, # of connection points: 2
#     Edge 7, Type (0, 0), BuildingBlock: KIFKEQ_clean_linker_1, # of connection points: 2
#     Edge 8, Type (0, 0), BuildingBlock: KIFKEQ_clean_linker_1, # of connection points: 2
#     Edge 9, Type (0, 0), BuildingBlock: KIFKEQ_clean_linker_1, # of connection points: 2
#     Edge 10, Type (0, 0), BuildingBlock: KIFKEQ_clean_linker_1, # of connection points: 2
#     Edge 11, Type (0, 0), BuildingBlock: KIFKEQ_clean_linker_1, # of connection points: 2
# Relax obj value: 0.243
# Max RMSD: 0.269
# Mean RMSD: 0.258
data_MOF--net-lon--node1-ICAMEG_clean_sbu_1--edge1-KIFKEQ_clean_linker_1
_symmetry_space_group_name_H-M    P1
_symmetry_Int_Tables_number       1
_symmetry_cell_setting            triclinic
loop_
_symmetry_equiv_pos_as_xyz
'x, y, z'
_cell_length_a     22.624502
_cell_length_b     26.471607
_cell_length_c     44.495901
_cell_angle_alpha  92.688619
_cell_angle_beta   90.077373
_cell_angle_gamma 115.3411
loop_
_atom_site_label
_atom_site_type_symbol
_atom_site_fract_x
_atom_site_fract_y
_atom_site_fract_z
_atom_type_partial_charge
Co0 Co 0.35408 0.71571 0.04806 0.0
Co1 Co 0.35974 0.65173 0.11222 0.0
O2 O 0.37434 0.72008 0.09147 0.0
C3 C 0.48477 0.81482 0.05362 0.0
O4 O 0.50546 0.78955 0.0729 0.0
C5 C 0.32953 0.72516 0.15888 0.0
O6 O 0.34042 0.76472 0.14006 0.0
O7 O 0.26608 0.61741 0.09868 0.0
O8 O 0.28009 0.63963 0.05056 0.0
H9 H 0.27366 0.44347 0.1192 0.0
H10 H 0.3634 0.81508 0.08476 0.0
O11 O 0.42643 0.79167 0.0431 0.0
H12 H 0.139 0.72935 0.0416 0.0
H13 H 0.32262 0.79083 0.95033 0.0
H14 H 0.3228 0.62746 0.99913 0.0
H15 H 0.21589 0.68806 0.02975 0.0
H16 H 0.34574 0.79553 1.00481 0.0
O17 O 0.33454 0.68041 0.15059 0.0
H18 H 0.29483 0.53068 0.09431 0.0
H19 H 0.3903 0.62686 0.17367 0.0
H20 H 0.29891 0.62082 0.94463 0.0
H21 H 0.28827 0.85816 0.09697 0.0
H22 H 0.29869 0.70291 0.91987 0.0
H23 H 0.17509 0.81512 0.07539 0.0
O24 O 0.4155 0.68147 0.03954 0.0
H25 H 0.56881 0.80714 0.15442 0.0
H26 H 0.4647 0.61204 0.11309 0.0
H27 H 0.58109 0.65376 0.12851 0.0
H28 H 0.63393 0.75194 0.14955 0.0
H29 H 0.45306 0.76419 0.13825 0.0
H30 H 0.36956 0.54065 0.1995 0.0
H31 H 0.31114 0.44812 0.17218 0.0
O32 O 0.38452 0.61908 0.07529 0.0
C33 C 0.2452 0.61099 0.07152 0.0
C34 C 0.29932 0.48354 0.13131 0.0
C35 C 0.35306 0.53808 0.1764 0.0
N36 N 0.34413 0.58385 0.13242 0.0
C37 C 0.31157 0.53309 0.11732 0.0
C38 C 0.36447 0.58676 0.16167 0.0
C39 C 0.32031 0.48618 0.16105 0.0
C40 C 0.31432 0.79629 0.07519 0.0
N41 N 0.29404 0.74903 0.05669 0.0
C42 C 0.27196 0.82079 0.08222 0.0
C43 C 0.20845 0.79659 0.07012 0.0
C44 C 0.18815 0.74845 0.05119 0.0
C45 C 0.23185 0.72511 0.04467 0.0
C46 C 0.32243 0.75473 0.96087 0.0
C47 C 0.32248 0.66328 0.98857 0.0
C48 C 0.3356 0.75717 0.99171 0.0
N49 N 0.33513 0.71165 1.00521 0.0
C50 C 0.30906 0.65931 0.95768 0.0
C51 C 0.309 0.70539 0.94379 0.0
C52 C 0.41414 0.63778 0.05098 0.0
C53 C 0.54621 0.76415 0.14555 0.0
C54 C 0.48714 0.65479 0.1222 0.0
C55 C 0.55316 0.67818 0.13093 0.0
C56 C 0.58277 0.73323 0.14273 0.0
N57 N 0.45129 0.68518 0.12527 0.0
C58 C 0.48027 0.73936 0.13658 0.0
Co59 Co 0.61591 0.31055 0.5496 0.0
Co60 Co 0.71783 0.30875 0.60477 0.0
O61 O 0.6467 0.32659 0.59163 0.0
C62 C 0.62595 0.4269 0.55883 0.0
O63 O 0.6879 0.44531 0.5668 0.0
C64 C 0.62434 0.26649 0.65593 0.0
O65 O 0.57597 0.23591 0.63718 0.0
O66 O 0.66416 0.22872 0.59164 0.0
O67 O 0.63695 0.24412 0.5457 0.0
H68 H 0.87059 0.21652 0.59415 0.0
H69 H 0.52923 0.32104 0.59684 0.0
O70 O 0.59176 0.37512 0.5521 0.0
H71 H 0.40744 0.1326 0.54846 0.0
H72 H 0.46474 0.29446 0.46277 0.0
H73 H 0.66636 0.28022 0.49344 0.0
H74 H 0.51648 0.19531 0.53085 0.0
H75 H 0.50208 0.31133 0.51592 0.0
O76 O 0.68109 0.29585 0.64614 0.0
H77 H 0.78321 0.24203 0.5778 0.0
H78 H 0.80073 0.334 0.66077 0.0
H79 H 0.63044 0.26252 0.44008 0.0
H80 H 0.41996 0.25984 0.61499 0.0
H81 H 0.52895 0.26963 0.42444 0.0
H82 H 0.35839 0.16482 0.59078 0.0
O83 O 0.70576 0.36003 0.53671 0.0
H84 H 0.75275 0.49452 0.65384 0.0
H85 H 0.85648 0.39125 0.59666 0.0
H86 H 0.92099 0.49126 0.61089 0.0
H87 H 0.86918 0.54359 0.63977 0.0
H88 H 0.68977 0.39451 0.63885 0.0
H89 H 0.88787 0.30904 0.67813 0.0
H90 H 0.92356 0.25009 0.64465 0.0
O91 O 0.75936 0.32363 0.56417 0.0
C92 C 0.64309 0.21195 0.5647 0.0
C93 C 0.85555 0.24232 0.60892 0.0
C94 C 0.86518 0.29418 0.65606 0.0
N95 N 0.78702 0.28966 0.61824 0.0
C96 C 0.80616 0.25699 0.59976 0.0
C97 C 0.81563 0.30801 0.64615 0.0
C98 C 0.88522 0.26113 0.63727 0.0
C99 C 0.50248 0.27991 0.58605 0.0
N100 N 0.52909 0.2619 0.56274 0.0
C101 C 0.44074 0.24538 0.59648 0.0
C102 C 0.40625 0.19205 0.58291 0.0
C103 C 0.43375 0.17393 0.55917 0.0
C104 C 0.49559 0.20961 0.54934 0.0
C105 C 0.50899 0.29117 0.46931 0.0
C106 C 0.62196 0.28311 0.48685 0.0
C107 C 0.5305 0.30081 0.49937 0.0
N108 N 0.58617 0.29643 0.50782 0.0
C109 C 0.60195 0.27317 0.45658 0.0
C110 C 0.54503 0.27721 0.44782 0.0
C111 C 0.75725 0.35386 0.54302 0.0
C112 C 0.7759 0.47215 0.6413 0.0
C113 C 0.83345 0.41373 0.6091 0.0
C114 C 0.87031 0.47036 0.61717 0.0
C115 C 0.84121 0.49968 0.63338 0.0
N116 N 0.76939 0.387 0.61695 0.0
C117 C 0.74054 0.4155 0.63282 0.0
Co118 Co 0.31737 0.71487 0.492 0.0
Co119 Co 0.41519 0.72458 0.43253 0.0
O120 O 0.32791 0.70511 0.44864 0.0
C121 C 0.209 0.60097 0.47813 0.0
O122 O 0.251 0.58427 0.46607 0.0
C123 C 0.33951 0.75142 0.38403 0.0
O124 O 0.28943 0.74063 0.40154 0.0
O125 O 0.44417 0.80218 0.45034 0.0
O126 O 0.40565 0.78044 0.49655 0.0
H127 H 0.66078 0.812 0.43946 0.0
H128 H 0.2127 0.71076 0.45043 0.0
O129 O 0.22821 0.65088 0.48907 0.0
H130 H 0.2906 0.8939 0.5062 0.0
H131 H 0.19152 0.71853 0.58474 0.0
H132 H 0.40321 0.73597 0.54605 0.0
H133 H 0.33826 0.82838 0.51685 0.0
H134 H 0.20666 0.70957 0.53021 0.0
O135 O 0.39098 0.74835 0.39364 0.0
H136 H 0.54951 0.7843 0.45855 0.0
H137 H 0.46764 0.7103 0.37266 0.0
H138 H 0.39033 0.74566 0.60074 0.0
H139 H 0.16309 0.77478 0.43932 0.0
H140 H 0.28387 0.73694 0.62042 0.0
H141 H 0.20223 0.86721 0.46723 0.0
O142 O 0.35787 0.66314 0.4998 0.0
H143 H 0.25649 0.54635 0.37833 0.0
H144 H 0.47119 0.64092 0.43063 0.0
H145 H 0.43401 0.54369 0.4105 0.0
H146 H 0.32604 0.49575 0.38397 0.0
H147 H 0.2951 0.64316 0.39913 0.0
H148 H 0.57803 0.7377 0.35258 0.0
H149 H 0.67558 0.78869 0.38611 0.0
O150 O 0.44406 0.70073 0.4701 0.0
C151 C 0.44231 0.8153 0.47816 0.0
C152 C 0.61866 0.78967 0.42465 0.0
C153 C 0.57222 0.74804 0.37588 0.0
N154 N 0.50209 0.74542 0.41682 0.0
C155 C 0.55552 0.77377 0.43535 0.0
C156 C 0.50982 0.7328 0.38736 0.0
C157 C 0.62693 0.77662 0.39471 0.0
C158 C 0.22987 0.75083 0.46273 0.0
N159 N 0.27871 0.76592 0.48406 0.0
C160 C 0.20164 0.78694 0.45632 0.0
C161 C 0.22365 0.8388 0.47197 0.0
C162 C 0.27327 0.85382 0.49381 0.0
C163 C 0.30032 0.81663 0.49962 0.0
C164 C 0.23818 0.72251 0.57644 0.0
C165 C 0.35683 0.73241 0.55441 0.0
C166 C 0.24701 0.71735 0.54558 0.0
N167 N 0.30592 0.72262 0.53492 0.0
C168 C 0.34979 0.7378 0.58542 0.0
C169 C 0.29002 0.73286 0.59645 0.0
C170 C 0.41421 0.66917 0.49128 0.0
C171 C 0.30389 0.56694 0.3896 0.0
C172 C 0.42421 0.62054 0.41906 0.0
C173 C 0.40341 0.56539 0.40771 0.0
C174 C 0.34285 0.53853 0.39284 0.0
N175 N 0.38603 0.64843 0.41556 0.0
C176 C 0.3263 0.62208 0.40125 0.0
Co177 Co 0.64815 0.30499 0.99366 0.0
Co178 Co 0.71946 0.37065 0.93029 0.0
O179 O 0.66473 0.30167 0.95027 0.0
C180 C 0.67955 0.20592 0.98786 0.0
O181 O 0.72632 0.23174 0.96907 0.0
C182 C 0.61697 0.29983 0.882 0.0
O183 O 0.5854 0.25937 0.89995 0.0
O184 O 0.65987 0.40468 0.94367 0.0
O185 O 0.65076 0.38128 0.99161 0.0
H186 H 0.8424 0.57927 0.92505 0.0
H187 H 0.55851 0.20701 0.95584 0.0
O188 O 0.64392 0.22875 0.99814 0.0
H189 H 0.41955 0.29179 0.99936 0.0
H190 H 0.53924 0.22754 0.09053 0.0
H191 H 0.70455 0.39201 0.04323 0.0
H192 H 0.53753 0.33239 1.0119 0.0
H193 H 0.55874 0.22414 0.03613 0.0
O194 O 0.66711 0.34333 0.89148 0.0
H195 H 0.77516 0.49135 0.94907 0.0
H196 H 0.77754 0.3972 0.86945 0.0
H197 H 0.68622 0.39735 0.09766 0.0
H198 H 0.44048 0.16464 0.94292 0.0
H199 H 0.60303 0.3147 0.12167 0.0
H200 H 0.37022 0.20721 0.96469 0.0
O201 O 0.7438 0.33879 1.00273 0.0
H202 H 0.77271 0.21595 0.88728 0.0
H203 H 0.86425 0.40973 0.93065 0.0
H204 H 0.93871 0.36779 0.91541 0.0
H205 H 0.89308 0.27028 0.89337 0.0
H206 H 0.70008 0.25912 0.90328 0.0
H207 H 0.84422 0.48414 0.8445 0.0
H208 H 0.87739 0.57601 0.87239 0.0
O209 O 0.77575 0.4023 0.96762 0.0
C210 C 0.64488 0.41041 0.9708 0.0
C211 C 0.8284 0.53949 0.91269 0.0
C212 C 0.82935 0.4861 0.86747 0.0
N213 N 0.77275 0.43914 0.91078 0.0
C214 C 0.79043 0.48954 0.92619 0.0
C215 C 0.79141 0.43701 0.8817 0.0
C216 C 0.84796 0.53763 0.88313 0.0
C217 C 0.52813 0.22556 0.96551 0.0
N218 N 0.55491 0.27214 0.98452 0.0
C219 C 0.46139 0.20148 0.95807 0.0
C220 C 0.42201 0.22541 0.97027 0.0
C221 C 0.44966 0.27289 0.9897 0.0
C222 C 0.51658 0.29583 0.99662 0.0
C223 C 0.57554 0.26387 0.08032 0.0
C224 C 0.66804 0.35595 0.05347 0.0
C225 C 0.5869 0.26217 0.04953 0.0
N226 N 0.63244 0.30799 0.03644 0.0
C227 C 0.65797 0.35918 0.08432 0.0
C228 C 0.61133 0.31278 0.09778 0.0
C229 C 0.78634 0.38294 0.99176 0.0
C230 C 0.79322 0.25863 0.89662 0.0
C231 C 0.84385 0.36726 0.92111 0.0
C232 C 0.88635 0.34376 0.91248 0.0
C233 C 0.86074 0.28907 0.90011 0.0
N234 N 0.7776 0.33732 0.9174 0.0
C235 C 0.75222 0.28353 0.90551 0.0
H236 H 0.37587 0.82486 0.19214 0.0
H237 H 0.26508 0.64669 0.19908 0.0
H238 H 0.3742 0.83822 0.24707 0.0
H239 H 0.26198 0.66031 0.25367 0.0
H240 H 0.22727 0.71397 0.34944 0.0
H241 H 0.21821 0.71259 0.29449 0.0
H242 H 0.42806 0.80162 0.28987 0.0
H243 H 0.43747 0.80185 0.34468 0.0
C244 C 0.34983 0.78878 0.20529 0.0
C245 C 0.32054 0.73473 0.19131 0.0
C246 C 0.34923 0.79642 0.23669 0.0
C247 C 0.31788 0.7503 0.25457 0.0
C248 C 0.28598 0.69663 0.24042 0.0
C249 C 0.28793 0.68886 0.2092 0.0
C250 C 0.27138 0.73419 0.33676 0.0
C251 C 0.33311 0.75798 0.35141 0.0
C252 C 0.26616 0.73313 0.30532 0.0
C253 C 0.32242 0.75702 0.28797 0.0
C254 C 0.38386 0.78332 0.30271 0.0
C255 C 0.38922 0.78327 0.33406 0.0
H256 H 0.71338 0.33224 0.69871 0.0
H257 H 0.51384 0.20618 0.68829 0.0
H258 H 0.70091 0.33772 0.75249 0.0
H259 H 0.50105 0.2125 0.74305 0.0
H260 H 0.54934 0.20256 0.84716 0.0
H261 H 0.54274 0.19254 0.79196 0.0
H262 H 0.6434 0.37217 0.7878 0.0
H263 H 0.65109 0.38204 0.84236 0.0
C264 C 0.66654 0.30565 0.70784 0.0
C265 C 0.61455 0.26875 0.68896 0.0
C266 C 0.65925 0.30921 0.73884 0.0
C267 C 0.5997 0.27612 0.75215 0.0
C268 C 0.54759 0.23855 0.73349 0.0
C269 C 0.55484 0.2351 0.70214 0.0
C270 C 0.56885 0.23987 0.8344 0.0
C271 C 0.6016 0.29303 0.84917 0.0
C272 C 0.56503 0.23414 0.80278 0.0
C273 C 0.59374 0.28149 0.78544 0.0
C274 C 0.62225 0.33471 0.8004 0.0
C275 C 0.62637 0.34038 0.83176 0.0
H276 H 0.4122 0.53889 0.06664 0.0
H277 H 0.49079 0.6645 1.00064 0.0
H278 H 0.47105 0.48925 0.0445 0.0
H279 H 0.55084 0.61408 0.97845 0.0
H280 H 0.64279 0.45375 0.02699 0.0
H281 H 0.5891 0.51172 0.04339 0.0
H282 H 0.53411 0.51965 0.9514 0.0
H283 H 0.58923 0.4612 0.93457 0.0
C284 C 0.44203 0.55608 0.04737 0.0
C285 C 0.44735 0.60629 0.03573 0.0
C286 C 0.47602 0.52756 0.03472 0.0
C287 C 0.51647 0.54827 1.01006 0.0
C288 C 0.52007 0.59723 0.99749 0.0
C289 C 0.4859 0.62613 1.01028 0.0
C290 C 0.6198 0.46801 1.01007 0.0
C291 C 0.61937 0.45197 0.97946 0.0
C292 C 0.58881 0.50119 1.01955 0.0
C293 C 0.55616 0.51921 0.99877 0.0
C294 C 0.55877 0.50616 0.96791 0.0
C295 C 0.59022 0.47273 0.95831 0.0
H296 H 0.10896 0.62658 0.4951 0.0
H297 H 0.15039 0.48656 0.46752 0.0
H298 H 0.99665 0.56285 0.50474 0.0
H299 H 0.03674 0.42236 0.47678 0.0
H300 H 0.867 0.3353 0.54311 0.0
H301 H 0.97225 0.39175 0.52185 0.0
H302 H 0.89167 0.49604 0.48314 0.0
H303 H 0.7859 0.43986 0.50504 0.0
C304 C 0.09392 0.58213 0.49072 0.0
C305 C 0.13904 0.56166 0.48085 0.0
C306 C 0.02911 0.54555 0.49599 0.0
C307 C 1.00752 0.48741 0.49161 0.0
C308 C 0.05198 0.46692 0.48068 0.0
C309 C 0.11701 0.50368 0.47524 0.0
C310 C 0.87123 0.36979 0.52973 0.0
C311 C 0.818 0.38338 0.52608 0.0
C312 C 0.93169 0.40196 0.51731 0.0
C313 C 0.94069 0.44871 0.50093 0.0
C314 C 0.88661 0.46071 0.49598 0.0
C315 C 0.82585 0.4283 0.50835 0.0
H316 H 0.69596 0.12071 0.95689 0.0
H317 H 0.6345 0.16495 0.04201 0.0
H318 H 0.66194 0.02464 0.97274 0.0
H319 H 0.60202 0.07008 0.05791 0.0
H320 H 0.58553 0.90059 0.08484 0.0
H321 H 0.64716 0.9967 0.06897 0.0
H322 H 0.54348 0.95016 0.98325 0.0
H323 H 0.48147 0.8552 0.99916 0.0
C324 C 0.6765 0.11021 0.97914 0.0
C325 C 0.66722 0.15001 0.99809 0.0
C326 C 0.65699 0.0554 0.98818 0.0
C327 C 0.62953 0.04005 1.01659 0.0
C328 C 0.62365 0.08081 0.03606 0.0
C329 C 0.64171 0.13499 0.02681 0.0
C330 C 0.57688 0.91085 0.06246 0.0
C331 C 0.52835 0.87071 0.04335 0.0
C332 C 0.61194 0.96569 0.05341 0.0
C333 C 0.60012 0.98074 0.02485 0.0
C334 C 0.55413 0.93965 1.00523 0.0
C335 C 0.51825 0.88543 1.01447 0.0
H336 H 0.49697 0.40053 0.54858 0.0
H337 H 0.68591 0.54201 0.56016 0.0
H338 H 0.44775 0.46282 0.53664 0.0
H339 H 0.636 0.60485 0.54865 0.0
H340 H 0.5384 0.67926 0.48261 0.0
H341 H 0.58997 0.62458 0.50356 0.0
H342 H 0.41816 0.53636 0.55546 0.0
H343 H 0.36561 0.59056 0.53398 0.0
C344 C 0.52799 0.4451 0.54898 0.0
C345 C 0.59565 0.46619 0.55505 0.0
C346 C 0.49951 0.48093 0.54235 0.0
C347 C 0.53785 0.53889 0.54154 0.0
C348 C 0.60517 0.56031 0.54871 0.0
C349 C 0.63374 0.52436 0.55549 0.0
C350 C 0.51154 0.64853 0.49866 0.0
C351 C 0.44739 0.639 0.50633 0.0
C352 C 0.54153 0.61744 0.5109 0.0
C353 C 0.50825 0.5759 0.53115 0.0
C354 C 0.4449 0.56757 0.53962 0.0
C355 C 0.41486 0.59883 0.52741 0.0
H356 H 0.13954 0.55954 0.10808 0.0
H357 H 0.19854 0.56772 1.0154 0.0
H358 H 0.02566 0.50055 0.0916 0.0
H359 H 0.08659 0.50933 0.99935 0.0
H360 H 0.83701 0.35468 0.04149 0.0
H361 H 0.94772 0.40514 0.06379 0.0
H362 H 0.99084 0.53271 0.99951 0.0
H363 H 0.88227 0.48321 0.97733 0.0
C364 C 0.12852 0.54809 0.08436 0.0
C365 C 0.17795 0.56922 0.06303 0.0
C366 C 0.06348 0.51433 0.07496 0.0
C367 C 0.04717 0.50135 0.04414 0.0
C368 C 0.09737 0.51974 0.02318 0.0
C369 C 0.16171 0.5532 0.03246 0.0
C370 C 0.87012 0.39368 0.0323 0.0
C371 C 0.85089 0.41433 1.00729 0.0
C372 C 0.9333 0.42258 0.04513 0.0
C373 C 0.97819 0.47231 0.03304 0.0
C374 C 0.95786 0.49383 1.0089 0.0
C375 C 0.89529 0.46535 0.99622 0.0
H376 H 0.66768 0.17664 0.51008 0.0
H377 H 0.57901 0.11633 0.59468 0.0
H378 H 0.62938 0.081 0.4894 0.0
H379 H 0.53636 0.02021 0.57359 0.0
H380 H 0.49352 0.84836 0.53493 0.0
H381 H 0.55175 0.94334 0.55652 0.0
H382 H 0.53606 1.00767 0.47069 0.0
H383 H 0.48161 0.91244 0.44887 0.0
C384 C 0.64002 0.1426 0.52428 0.0
C385 C 0.62635 0.15371 0.55398 0.0
C386 C 0.61727 0.08764 0.51232 0.0
C387 C 0.57861 0.04224 0.5295 0.0
C388 C 0.56667 0.05361 0.55964 0.0
C389 C 0.59092 0.10876 0.57184 0.0
C390 C 0.50354 0.88296 0.52061 0.0
C391 C 0.4832 0.87303 0.49018 0.0
C392 C 0.53639 0.93759 0.53307 0.0
C393 C 0.54847 0.98384 0.5156 0.0
C394 C 0.52908 0.97358 0.4849 0.0
C395 C 0.4975 0.91886 0.47229 0.0
loop_
_geom_bond_atom_site_label_1
_geom_bond_atom_site_label_2
_geom_bond_distance
_geom_bond_site_symmetry_2
_ccdc_geom_bond_type
Co0 O2 2.143 . S
Co0 O8 2.074 . S
Co0 O11 2.093 . S
Co0 O24 2.097 . S
Co0 N41 2.151 . S
Co0 N49 2.214 1_554 S
Co1 O2 2.160 . S
Co1 O7 2.058 . S
Co1 O17 2.057 . S
Co1 O32 2.037 . S
Co1 N36 2.145 . S
Co1 N57 2.257 . S
O2 Co0 2.143 . S
O2 Co1 2.160 . S
C3 O4 1.278 . S
C3 O11 1.224 . S
O4 C3 1.278 . S
C5 O6 1.245 . S
C5 O17 1.232 . S
O6 C5 1.245 . S
O7 Co1 2.058 . S
O7 C33 1.269 . S
O8 Co0 2.074 . S
O8 C33 1.257 . S
H9 C34 0.930 . S
H10 C40 0.930 . S
O11 Co0 2.093 . S
O11 C3 1.224 . S
H12 C44 0.929 . S
H13 C46 0.930 . S
H14 C47 0.930 . S
H15 C45 0.929 . S
H16 C48 0.928 . S
O17 Co1 2.057 . S
O17 C5 1.232 . S
H18 C37 0.929 . S
H19 C38 0.929 . S
H20 C50 0.931 . S
H21 C42 0.929 . S
H22 C51 0.930 . S
H23 C43 0.931 . S
O24 Co0 2.097 . S
O24 C52 1.214 . S
H25 C53 0.929 . S
H26 C54 0.929 . S
H27 C55 0.930 . S
H28 C56 0.929 . S
H29 C58 0.930 . S
H30 C35 0.930 . S
H31 C39 0.930 . S
O32 Co1 2.037 . S
O32 C52 1.234 . S
C33 O7 1.269 . S
C33 O8 1.257 . S
C34 H9 0.930 . S
C34 C37 1.388 . S
C34 C39 1.418 . S
C35 H30 0.930 . S
C35 C38 1.404 . S
C35 C39 1.353 . S
N36 Co1 2.145 . S
N36 C37 1.397 . S
N36 C38 1.334 . S
C37 H18 0.929 . S
C37 C34 1.388 . S
C37 N36 1.397 . S
C38 H19 0.929 . S
C38 C35 1.404 . S
C38 N36 1.334 . S
C39 H31 0.930 . S
C39 C34 1.418 . S
C39 C35 1.353 . S
C40 H10 0.930 . S
C40 N41 1.330 . S
C40 C42 1.446 . S
N41 Co0 2.151 . S
N41 C40 1.330 . S
N41 C45 1.418 . S
C42 H21 0.929 . S
C42 C40 1.446 . S
C42 C43 1.332 . S
C43 H23 0.931 . S
C43 C42 1.332 . S
C43 C44 1.267 . S
C44 H12 0.929 . S
C44 C43 1.267 . S
C44 C45 1.251 . S
C45 H15 0.929 . S
C45 N41 1.418 . S
C45 C44 1.251 . S
C46 H13 0.930 . S
C46 C48 1.406 . S
C46 C51 1.261 . S
C47 H14 0.930 . S
C47 N49 1.325 . S
C47 C50 1.357 . S
C48 H16 0.928 . S
C48 C46 1.406 . S
C48 N49 1.261 . S
N49 Co0 2.214 1_556 S
N49 C47 1.325 . S
N49 C48 1.261 . S
C50 H20 0.931 . S
C50 C47 1.357 . S
C50 C51 1.312 . S
C51 H22 0.930 . S
C51 C46 1.261 . S
C51 C50 1.312 . S
C52 O24 1.214 . S
C52 O32 1.234 . S
C53 H25 0.929 . S
C53 C56 1.391 . S
C53 C58 1.391 . S
C54 H26 0.929 . S
C54 C55 1.390 . S
C54 N57 1.391 . S
C55 H27 0.930 . S
C55 C54 1.390 . S
C55 C56 1.392 . S
C56 H28 0.929 . S
C56 C53 1.391 . S
C56 C55 1.392 . S
N57 Co1 2.257 . S
N57 C54 1.391 . S
N57 C58 1.388 . S
C58 H29 0.930 . S
C58 C53 1.391 . S
C58 N57 1.388 . S
Co59 O61 2.143 . S
Co59 O67 2.074 . S
Co59 O70 2.093 . S
Co59 O83 2.097 . S
Co59 N100 2.151 . S
Co59 N108 2.214 . S
Co60 O61 2.160 . S
Co60 O66 2.058 . S
Co60 O76 2.057 . S
Co60 O91 2.037 . S
Co60 N95 2.145 . S
Co60 N116 2.257 . S
O61 Co59 2.143 . S
O61 Co60 2.160 . S
C62 O63 1.278 . S
C62 O70 1.224 . S
O63 C62 1.278 . S
C64 O65 1.245 . S
C64 O76 1.232 . S
O65 C64 1.245 . S
O66 Co60 2.058 . S
O66 C92 1.269 . S
O67 Co59 2.074 . S
O67 C92 1.257 . S
H68 C93 0.930 . S
H69 C99 0.930 . S
O70 Co59 2.093 . S
O70 C62 1.224 . S
H71 C103 0.929 . S
H72 C105 0.930 . S
H73 C106 0.930 . S
H74 C104 0.929 . S
H75 C107 0.928 . S
O76 Co60 2.057 . S
O76 C64 1.232 . S
H77 C96 0.929 . S
H78 C97 0.929 . S
H79 C109 0.931 . S
H80 C101 0.929 . S
H81 C110 0.930 . S
H82 C102 0.931 . S
O83 Co59 2.097 . S
O83 C111 1.214 . S
H84 C112 0.929 . S
H85 C113 0.929 . S
H86 C114 0.930 . S
H87 C115 0.929 . S
H88 C117 0.930 . S
H89 C94 0.930 . S
H90 C98 0.930 . S
O91 Co60 2.037 . S
O91 C111 1.234 . S
C92 O66 1.269 . S
C92 O67 1.257 . S
C93 H68 0.930 . S
C93 C96 1.388 . S
C93 C98 1.418 . S
C94 H89 0.930 . S
C94 C97 1.404 . S
C94 C98 1.353 . S
N95 Co60 2.145 . S
N95 C96 1.397 . S
N95 C97 1.334 . S
C96 H77 0.929 . S
C96 C93 1.388 . S
C96 N95 1.397 . S
C97 H78 0.929 . S
C97 C94 1.404 . S
C97 N95 1.334 . S
C98 H90 0.930 . S
C98 C93 1.418 . S
C98 C94 1.353 . S
C99 H69 0.930 . S
C99 N100 1.330 . S
C99 C101 1.446 . S
N100 Co59 2.151 . S
N100 C99 1.330 . S
N100 C104 1.418 . S
C101 H80 0.929 . S
C101 C99 1.446 . S
C101 C102 1.332 . S
C102 H82 0.931 . S
C102 C101 1.332 . S
C102 C103 1.267 . S
C103 H71 0.929 . S
C103 C102 1.267 . S
C103 C104 1.251 . S
C104 H74 0.929 . S
C104 N100 1.418 . S
C104 C103 1.251 . S
C105 H72 0.930 . S
C105 C107 1.406 . S
C105 C110 1.261 . S
C106 H73 0.930 . S
C106 N108 1.325 . S
C106 C109 1.357 . S
C107 H75 0.928 . S
C107 C105 1.406 . S
C107 N108 1.261 . S
N108 Co59 2.214 . S
N108 C106 1.325 . S
N108 C107 1.261 . S
C109 H79 0.931 . S
C109 C106 1.357 . S
C109 C110 1.312 . S
C110 H81 0.930 . S
C110 C105 1.261 . S
C110 C109 1.312 . S
C111 O83 1.214 . S
C111 O91 1.234 . S
C112 H84 0.929 . S
C112 C115 1.391 . S
C112 C117 1.391 . S
C113 H85 0.929 . S
C113 C114 1.390 . S
C113 N116 1.391 . S
C114 H86 0.930 . S
C114 C113 1.390 . S
C114 C115 1.392 . S
C115 H87 0.929 . S
C115 C112 1.391 . S
C115 C114 1.392 . S
N116 Co60 2.257 . S
N116 C113 1.391 . S
N116 C117 1.388 . S
C117 H88 0.930 . S
C117 C112 1.391 . S
C117 N116 1.388 . S
Co118 O120 2.143 . S
Co118 O126 2.074 . S
Co118 O129 2.093 . S
Co118 O142 2.097 . S
Co118 N159 2.151 . S
Co118 N167 2.214 . S
Co119 O120 2.160 . S
Co119 O125 2.058 . S
Co119 O135 2.057 . S
Co119 O150 2.037 . S
Co119 N154 2.145 . S
Co119 N175 2.257 . S
O120 Co118 2.143 . S
O120 Co119 2.160 . S
C121 O122 1.278 . S
C121 O129 1.224 . S
O122 C121 1.278 . S
C123 O124 1.245 . S
C123 O135 1.232 . S
O124 C123 1.245 . S
O125 Co119 2.058 . S
O125 C151 1.269 . S
O126 Co118 2.074 . S
O126 C151 1.257 . S
H127 C152 0.930 . S
H128 C158 0.930 . S
O129 Co118 2.093 . S
O129 C121 1.224 . S
H130 C162 0.929 . S
H131 C164 0.930 . S
H132 C165 0.930 . S
H133 C163 0.929 . S
H134 C166 0.928 . S
O135 Co119 2.057 . S
O135 C123 1.232 . S
H136 C155 0.929 . S
H137 C156 0.929 . S
H138 C168 0.931 . S
H139 C160 0.929 . S
H140 C169 0.930 . S
H141 C161 0.931 . S
O142 Co118 2.097 . S
O142 C170 1.214 . S
H143 C171 0.929 . S
H144 C172 0.929 . S
H145 C173 0.930 . S
H146 C174 0.929 . S
H147 C176 0.930 . S
H148 C153 0.930 . S
H149 C157 0.930 . S
O150 Co119 2.037 . S
O150 C170 1.234 . S
C151 O125 1.269 . S
C151 O126 1.257 . S
C152 H127 0.930 . S
C152 C155 1.388 . S
C152 C157 1.418 . S
C153 H148 0.930 . S
C153 C156 1.404 . S
C153 C157 1.353 . S
N154 Co119 2.145 . S
N154 C155 1.397 . S
N154 C156 1.334 . S
C155 H136 0.929 . S
C155 C152 1.388 . S
C155 N154 1.397 . S
C156 H137 0.929 . S
C156 C153 1.404 . S
C156 N154 1.334 . S
C157 H149 0.930 . S
C157 C152 1.418 . S
C157 C153 1.353 . S
C158 H128 0.930 . S
C158 N159 1.330 . S
C158 C160 1.446 . S
N159 Co118 2.151 . S
N159 C158 1.330 . S
N159 C163 1.418 . S
C160 H139 0.929 . S
C160 C158 1.446 . S
C160 C161 1.332 . S
C161 H141 0.931 . S
C161 C160 1.332 . S
C161 C162 1.267 . S
C162 H130 0.929 . S
C162 C161 1.267 . S
C162 C163 1.251 . S
C163 H133 0.929 . S
C163 N159 1.418 . S
C163 C162 1.251 . S
C164 H131 0.930 . S
C164 C166 1.406 . S
C164 C169 1.261 . S
C165 H132 0.930 . S
C165 N167 1.325 . S
C165 C168 1.357 . S
C166 H134 0.928 . S
C166 C164 1.406 . S
C166 N167 1.261 . S
N167 Co118 2.214 . S
N167 C165 1.325 . S
N167 C166 1.261 . S
C168 H138 0.931 . S
C168 C165 1.357 . S
C168 C169 1.312 . S
C169 H140 0.930 . S
C169 C164 1.261 . S
C169 C168 1.312 . S
C170 O142 1.214 . S
C170 O150 1.234 . S
C171 H143 0.929 . S
C171 C174 1.391 . S
C171 C176 1.391 . S
C172 H144 0.929 . S
C172 C173 1.390 . S
C172 N175 1.391 . S
C173 H145 0.930 . S
C173 C172 1.390 . S
C173 C174 1.392 . S
C174 H146 0.929 . S
C174 C171 1.391 . S
C174 C173 1.392 . S
N175 Co119 2.257 . S
N175 C172 1.391 . S
N175 C176 1.388 . S
C176 H147 0.930 . S
C176 C171 1.391 . S
C176 N175 1.388 . S
Co177 O179 2.143 . S
Co177 O185 2.074 . S
Co177 O188 2.093 . S
Co177 O201 2.097 . S
Co177 N218 2.151 . S
Co177 N226 2.214 1_556 S
Co178 O179 2.160 . S
Co178 O184 2.058 . S
Co178 O194 2.057 . S
Co178 O209 2.037 . S
Co178 N213 2.145 . S
Co178 N234 2.257 . S
O179 Co177 2.143 . S
O179 Co178 2.160 . S
C180 O181 1.278 . S
C180 O188 1.224 . S
O181 C180 1.278 . S
C182 O183 1.245 . S
C182 O194 1.232 . S
O183 C182 1.245 . S
O184 Co178 2.058 . S
O184 C210 1.269 . S
O185 Co177 2.074 . S
O185 C210 1.257 . S
H186 C211 0.930 . S
H187 C217 0.930 . S
O188 Co177 2.093 . S
O188 C180 1.224 . S
H189 C221 0.929 . S
H190 C223 0.930 . S
H191 C224 0.930 . S
H192 C222 0.929 . S
H193 C225 0.928 . S
O194 Co178 2.057 . S
O194 C182 1.232 . S
H195 C214 0.929 . S
H196 C215 0.929 . S
H197 C227 0.931 . S
H198 C219 0.929 . S
H199 C228 0.930 . S
H200 C220 0.931 . S
O201 Co177 2.097 . S
O201 C229 1.214 . S
H202 C230 0.929 . S
H203 C231 0.929 . S
H204 C232 0.930 . S
H205 C233 0.929 . S
H206 C235 0.930 . S
H207 C212 0.930 . S
H208 C216 0.930 . S
O209 Co178 2.037 . S
O209 C229 1.234 . S
C210 O184 1.269 . S
C210 O185 1.257 . S
C211 H186 0.930 . S
C211 C214 1.388 . S
C211 C216 1.418 . S
C212 H207 0.930 . S
C212 C215 1.404 . S
C212 C216 1.353 . S
N213 Co178 2.145 . S
N213 C214 1.397 . S
N213 C215 1.334 . S
C214 H195 0.929 . S
C214 C211 1.388 . S
C214 N213 1.397 . S
C215 H196 0.929 . S
C215 C212 1.404 . S
C215 N213 1.334 . S
C216 H208 0.930 . S
C216 C211 1.418 . S
C216 C212 1.353 . S
C217 H187 0.930 . S
C217 N218 1.330 . S
C217 C219 1.446 . S
N218 Co177 2.151 . S
N218 C217 1.330 . S
N218 C222 1.418 . S
C219 H198 0.929 . S
C219 C217 1.446 . S
C219 C220 1.332 . S
C220 H200 0.931 . S
C220 C219 1.332 . S
C220 C221 1.267 . S
C221 H189 0.929 . S
C221 C220 1.267 . S
C221 C222 1.251 . S
C222 H192 0.929 . S
C222 N218 1.418 . S
C222 C221 1.251 . S
C223 H190 0.930 . S
C223 C225 1.406 . S
C223 C228 1.261 . S
C224 H191 0.930 . S
C224 N226 1.325 . S
C224 C227 1.357 . S
C225 H193 0.928 . S
C225 C223 1.406 . S
C225 N226 1.261 . S
N226 Co177 2.214 1_554 S
N226 C224 1.325 . S
N226 C225 1.261 . S
C227 H197 0.931 . S
C227 C224 1.357 . S
C227 C228 1.312 . S
C228 H199 0.930 . S
C228 C223 1.261 . S
C228 C227 1.312 . S
C229 O201 1.214 . S
C229 O209 1.234 . S
C230 H202 0.929 . S
C230 C233 1.391 . S
C230 C235 1.391 . S
C231 H203 0.929 . S
C231 C232 1.390 . S
C231 N234 1.391 . S
C232 H204 0.930 . S
C232 C231 1.390 . S
C232 C233 1.392 . S
C233 H205 0.929 . S
C233 C230 1.391 . S
C233 C232 1.392 . S
N234 Co178 2.257 . S
N234 C231 1.391 . S
N234 C235 1.388 . S
C235 H206 0.930 . S
C235 C230 1.391 . S
C235 N234 1.388 . S
H236 C244 0.950 . S
H237 C249 0.950 . S
H238 C246 0.950 . S
H239 C248 0.950 . S
H240 C250 0.950 . S
H241 C252 0.950 . S
H242 C254 0.950 . S
H243 C255 0.950 . S
C244 H236 0.950 . S
C244 C245 1.386 . S
C244 C246 1.391 . S
C245 C244 1.386 . S
C245 C249 1.393 . S
C246 H238 0.950 . S
C246 C244 1.391 . S
C246 C247 1.400 . S
C247 C246 1.400 . S
C247 C248 1.398 . S
C247 C253 1.491 . S
C248 H239 0.950 . S
C248 C247 1.398 . S
C248 C249 1.391 . S
C249 H237 0.950 . S
C249 C245 1.393 . S
C249 C248 1.391 . S
C250 H240 0.950 . S
C250 C251 1.386 . S
C250 C252 1.391 . S
C251 C250 1.386 . S
C251 C255 1.393 . S
C252 H241 0.950 . S
C252 C250 1.391 . S
C252 C253 1.400 . S
C253 C247 1.491 . S
C253 C252 1.400 . S
C253 C254 1.398 . S
C254 H242 0.950 . S
C254 C253 1.398 . S
C254 C255 1.391 . S
C255 H243 0.950 . S
C255 C251 1.393 . S
C255 C254 1.391 . S
H256 C264 0.950 . S
H257 C269 0.950 . S
H258 C266 0.950 . S
H259 C268 0.950 . S
H260 C270 0.950 . S
H261 C272 0.950 . S
H262 C274 0.950 . S
H263 C275 0.950 . S
C264 H256 0.950 . S
C264 C265 1.386 . S
C264 C266 1.391 . S
C265 C264 1.386 . S
C265 C269 1.393 . S
C266 H258 0.950 . S
C266 C264 1.391 . S
C266 C267 1.400 . S
C267 C266 1.400 . S
C267 C268 1.398 . S
C267 C273 1.491 . S
C268 H259 0.950 . S
C268 C267 1.398 . S
C268 C269 1.391 . S
C269 H257 0.950 . S
C269 C265 1.393 . S
C269 C268 1.391 . S
C270 H260 0.950 . S
C270 C271 1.386 . S
C270 C272 1.391 . S
C271 C270 1.386 . S
C271 C275 1.393 . S
C272 H261 0.950 . S
C272 C270 1.391 . S
C272 C273 1.400 . S
C273 C267 1.491 . S
C273 C272 1.400 . S
C273 C274 1.398 . S
C274 H262 0.950 . S
C274 C273 1.398 . S
C274 C275 1.391 . S
C275 H263 0.950 . S
C275 C271 1.393 . S
C275 C274 1.391 . S
H276 C284 0.950 . S
H277 C289 0.950 . S
H278 C286 0.950 . S
H279 C288 0.950 . S
H280 C290 0.950 . S
H281 C292 0.950 1_554 S
H282 C294 0.950 . S
H283 C295 0.950 . S
C284 H276 0.950 . S
C284 C285 1.386 1_556 S
C284 C286 1.391 . S
C285 C284 1.386 1_554 S
C285 C289 1.393 . S
C286 H278 0.950 . S
C286 C284 1.391 . S
C286 C287 1.400 . S
C287 C286 1.400 . S
C287 C288 1.398 1_556 S
C287 C293 1.491 . S
C288 H279 0.950 . S
C288 C287 1.398 1_554 S
C288 C289 1.391 . S
C289 H277 0.950 . S
C289 C285 1.393 . S
C289 C288 1.391 . S
C290 H280 0.950 . S
C290 C291 1.386 . S
C290 C292 1.391 . S
C291 C290 1.386 . S
C291 C295 1.393 . S
C292 H281 0.950 1_556 S
C292 C290 1.391 . S
C292 C293 1.400 . S
C293 C287 1.491 . S
C293 C292 1.400 . S
C293 C294 1.398 . S
C294 H282 0.950 . S
C294 C293 1.398 . S
C294 C295 1.391 . S
C295 H283 0.950 . S
C295 C291 1.393 . S
C295 C294 1.391 . S
H296 C304 0.950 . S
H297 C309 0.950 . S
H298 C306 0.950 . S
H299 C308 0.948 1_655 S
H300 C310 0.950 . S
H301 C312 0.950 . S
H302 C314 0.950 . S
H303 C315 0.950 . S
C304 H296 0.950 . S
C304 C305 1.386 . S
C304 C306 1.391 . S
C305 C304 1.386 . S
C305 C309 1.393 . S
C306 H298 0.950 . S
C306 C304 1.391 . S
C306 C307 1.400 1_455 S
C307 C306 1.400 1_655 S
C307 C308 1.398 1_655 S
C307 C313 1.491 . S
C308 H299 0.948 1_455 S
C308 C307 1.398 1_455 S
C308 C309 1.391 . S
C309 H297 0.950 . S
C309 C305 1.393 . S
C309 C308 1.391 . S
C310 H300 0.950 . S
C310 C311 1.386 . S
C310 C312 1.391 . S
C311 C310 1.386 . S
C311 C315 1.393 . S
C312 H301 0.950 . S
C312 C310 1.391 . S
C312 C313 1.400 . S
C313 C307 1.491 . S
C313 C312 1.400 . S
C313 C314 1.398 . S
C314 H302 0.950 . S
C314 C313 1.398 . S
C314 C315 1.391 . S
C315 H303 0.950 . S
C315 C311 1.393 . S
C315 C314 1.391 . S
H316 C324 0.950 . S
H317 C329 0.957 . S
H318 C326 0.963 . S
H319 C328 0.950 . S
H320 C330 0.950 . S
H321 C332 0.963 . S
H322 C334 0.950 . S
H323 C335 0.963 . S
C324 H316 0.950 . S
C324 C325 1.386 . S
C324 C326 1.391 . S
C325 C324 1.386 . S
C325 C329 1.393 . S
C326 H318 0.963 . S
C326 C324 1.391 . S
C326 C327 1.400 . S
C327 C326 1.400 . S
C327 C328 1.398 1_556 S
C327 C333 1.491 1_546 S
C328 H319 0.950 . S
C328 C327 1.398 1_554 S
C328 C329 1.391 1_554 S
C329 H317 0.957 . S
C329 C325 1.393 . S
C329 C328 1.391 1_556 S
C330 H320 0.950 . S
C330 C331 1.386 . S
C330 C332 1.391 . S
C331 C330 1.386 . S
C331 C335 1.393 . S
C332 H321 0.963 . S
C332 C330 1.391 . S
C332 C333 1.400 . S
C333 C327 1.491 1_564 S
C333 C332 1.400 . S
C333 C334 1.398 1_554 S
C334 H322 0.950 . S
C334 C333 1.398 1_556 S
C334 C335 1.391 1_556 S
C335 H323 0.963 . S
C335 C331 1.393 . S
C335 C334 1.391 1_554 S
H336 C344 0.950 . S
H337 C349 0.950 . S
H338 C346 0.950 . S
H339 C348 0.950 . S
H340 C350 0.950 . S
H341 C352 0.950 . S
H342 C354 0.950 . S
H343 C355 0.950 . S
C344 H336 0.950 . S
C344 C345 1.386 . S
C344 C346 1.391 . S
C345 C344 1.386 . S
C345 C349 1.393 . S
C346 H338 0.950 . S
C346 C344 1.391 . S
C346 C347 1.400 . S
C347 C346 1.400 . S
C347 C348 1.398 . S
C347 C353 1.491 . S
C348 H339 0.950 . S
C348 C347 1.398 . S
C348 C349 1.391 . S
C349 H337 0.950 . S
C349 C345 1.393 . S
C349 C348 1.391 . S
C350 H340 0.950 . S
C350 C351 1.386 . S
C350 C352 1.391 . S
C351 C350 1.386 . S
C351 C355 1.393 . S
C352 H341 0.950 . S
C352 C350 1.391 . S
C352 C353 1.400 . S
C353 C347 1.491 . S
C353 C352 1.400 . S
C353 C354 1.398 . S
C354 H342 0.950 . S
C354 C353 1.398 . S
C354 C355 1.391 . S
C355 H343 0.950 . S
C355 C351 1.393 . S
C355 C354 1.391 . S
H356 C364 0.950 . S
H357 C369 0.950 . S
H358 C366 0.950 . S
H359 C368 0.950 . S
H360 C370 0.950 . S
H361 C372 0.950 . S
H362 C374 0.950 . S
H363 C375 0.950 . S
C364 H356 0.950 . S
C364 C365 1.386 . S
C364 C366 1.391 . S
C365 C364 1.386 . S
C365 C369 1.393 . S
C366 H358 0.950 . S
C366 C364 1.391 . S
C366 C367 1.400 . S
C367 C366 1.400 . S
C367 C368 1.398 . S
C367 C373 1.491 1_455 S
C368 H359 0.950 . S
C368 C367 1.398 . S
C368 C369 1.391 . S
C369 H357 0.950 . S
C369 C365 1.393 . S
C369 C368 1.391 . S
C370 H360 0.950 . S
C370 C371 1.386 . S
C370 C372 1.391 . S
C371 C370 1.386 . S
C371 C375 1.393 1_556 S
C372 H361 0.950 . S
C372 C370 1.391 . S
C372 C373 1.400 1_556 S
C373 C367 1.491 1_655 S
C373 C372 1.400 1_554 S
C373 C374 1.398 . S
C374 H362 0.950 . S
C374 C373 1.398 . S
C374 C375 1.391 . S
C375 H363 0.950 . S
C375 C371 1.393 1_554 S
C375 C374 1.391 . S
H376 C384 0.950 . S
H377 C389 0.950 . S
H378 C386 0.950 . S
H379 C388 0.950 . S
H380 C390 0.950 . S
H381 C392 0.950 . S
H382 C394 0.950 . S
H383 C395 0.950 . S
C384 H376 0.950 . S
C384 C385 1.386 . S
C384 C386 1.391 . S
C385 C384 1.386 . S
C385 C389 1.393 . S
C386 H378 0.950 . S
C386 C384 1.391 . S
C386 C387 1.400 . S
C387 C386 1.400 . S
C387 C388 1.398 . S
C387 C393 1.491 1_545 S
C388 H379 0.950 . S
C388 C387 1.398 . S
C388 C389 1.391 . S
C389 H377 0.950 . S
C389 C385 1.393 . S
C389 C388 1.391 . S
C390 H380 0.950 . S
C390 C391 1.386 . S
C390 C392 1.391 . S
C391 C390 1.386 . S
C391 C395 1.393 . S
C392 H381 0.950 . S
C392 C390 1.391 . S
C392 C393 1.400 . S
C393 C387 1.491 1_565 S
C393 C392 1.400 . S
C393 C394 1.398 . S
C394 H382 0.950 . S
C394 C393 1.398 . S
C394 C395 1.391 . S
C395 H383 0.950 . S
C395 C391 1.393 . S
C395 C394 1.391 . S
C245 C5 1.618 . S
C251 C123 1.612 . S
C265 C64 1.620 . S
C271 C182 1.612 . S
C285 C52 1.729 . S
C291 C210 1.733 . S
C305 C121 1.509 . S
C311 C111 1.493 . S
C325 C180 1.359 . S
C331 C3 1.356 . S
C345 C62 1.509 . S
C351 C170 1.490 . S
C365 C33 1.734 . S
C371 C229 1.732 . S
C385 C92 1.944 . S
C391 C151 1.937 . S
