# Generated by pormake.
# Topology uoa, (4)-cn, num edge types: 1
# Building blocks:
#     Node 0, Type 0, BuildingBlock: GALJAG_clean_sbu_0, # of connection points: 4
#     Node 1, Type 0, BuildingBlock: GALJAG_clean_sbu_0, # of connection points: 4
#     Node 2, Type 0, BuildingBlock: GALJAG_clean_sbu_0, # of connection points: 4
#     Node 3, Type 0, BuildingBlock: GALJAG_clean_sbu_0, # of connection points: 4
#     Node 4, Type 0, BuildingBlock: GALJAG_clean_sbu_0, # of connection points: 4
#     Node 5, Type 0, BuildingBlock: GALJAG_clean_sbu_0, # of connection points: 4
#     Node 6, Type 0, BuildingBlock: GALJAG_clean_sbu_0, # of connection points: 4
#     Node 7, Type 0, BuildingBlock: GALJAG_clean_sbu_0, # of connection points: 4
#     Node 8, Type 0, BuildingBlock: GALJAG_clean_sbu_0, # of connection points: 4
#     Node 9, Type 0, BuildingBlock: GALJAG_clean_sbu_0, # of connection points: 4
#     Node 10, Type 0, BuildingBlock: GALJAG_clean_sbu_0, # of connection points: 4
#     Node 11, Type 0, BuildingBlock: GALJAG_clean_sbu_0, # of connection points: 4
#     Node 12, Type 0, BuildingBlock: GALJAG_clean_sbu_0, # of connection points: 4
#     Node 13, Type 0, BuildingBlock: GALJAG_clean_sbu_0, # of connection points: 4
#     Node 14, Type 0, BuildingBlock: GALJAG_clean_sbu_0, # of connection points: 4
#     Node 15, Type 0, BuildingBlock: GALJAG_clean_sbu_0, # of connection points: 4
#     Node 16, Type 0, BuildingBlock: GALJAG_clean_sbu_0, # of connection points: 4
#     Node 17, Type 0, BuildingBlock: GALJAG_clean_sbu_0, # of connection points: 4
#     Node 18, Type 0, BuildingBlock: GALJAG_clean_sbu_0, # of connection points: 4
#     Node 19, Type 0, BuildingBlock: GALJAG_clean_sbu_0, # of connection points: 4
#     Node 20, Type 0, BuildingBlock: GALJAG_clean_sbu_0, # of connection points: 4
#     Node 21, Type 0, BuildingBlock: GALJAG_clean_sbu_0, # of connection points: 4
#     Node 22, Type 0, BuildingBlock: GALJAG_clean_sbu_0, # of connection points: 4
#     Node 23, Type 0, BuildingBlock: GALJAG_clean_sbu_0, # of connection points: 4
#     Node 24, Type 0, BuildingBlock: GALJAG_clean_sbu_0, # of connection points: 4
#     Node 25, Type 0, BuildingBlock: GALJAG_clean_sbu_0, # of connection points: 4
#     Node 26, Type 0, BuildingBlock: GALJAG_clean_sbu_0, # of connection points: 4
#     Node 27, Type 0, BuildingBlock: GALJAG_clean_sbu_0, # of connection points: 4
#     Node 28, Type 0, BuildingBlock: GALJAG_clean_sbu_0, # of connection points: 4
#     Node 29, Type 0, BuildingBlock: GALJAG_clean_sbu_0, # of connection points: 4
#     Node 30, Type 0, BuildingBlock: GALJAG_clean_sbu_0, # of connection points: 4
#     Node 31, Type 0, BuildingBlock: GALJAG_clean_sbu_0, # of connection points: 4
#     Edge 32, Type (0, 0), BuildingBlock: CIFDUS_clean_linker_0, # of connection points: 2
#     Edge 33, Type (0, 0), BuildingBlock: CIFDUS_clean_linker_0, # of connection points: 2
#     Edge 34, Type (0, 0), BuildingBlock: CIFDUS_clean_linker_0, # of connection points: 2
#     Edge 35, Type (0, 0), BuildingBlock: CIFDUS_clean_linker_0, # of connection points: 2
#     Edge 36, Type (0, 0), BuildingBlock: CIFDUS_clean_linker_0, # of connection points: 2
#     Edge 37, Type (0, 0), BuildingBlock: CIFDUS_clean_linker_0, # of connection points: 2
#     Edge 38, Type (0, 0), BuildingBlock: CIFDUS_clean_linker_0, # of connection points: 2
#     Edge 39, Type (0, 0), BuildingBlock: CIFDUS_clean_linker_0, # of connection points: 2
#     Edge 40, Type (0, 0), BuildingBlock: CIFDUS_clean_linker_0, # of connection points: 2
#     Edge 41, Type (0, 0), BuildingBlock: CIFDUS_clean_linker_0, # of connection points: 2
#     Edge 42, Type (0, 0), BuildingBlock: CIFDUS_clean_linker_0, # of connection points: 2
#     Edge 43, Type (0, 0), BuildingBlock: CIFDUS_clean_linker_0, # of connection points: 2
#     Edge 44, Type (0, 0), BuildingBlock: CIFDUS_clean_linker_0, # of connection points: 2
#     Edge 45, Type (0, 0), BuildingBlock: CIFDUS_clean_linker_0, # of connection points: 2
#     Edge 46, Type (0, 0), BuildingBlock: CIFDUS_clean_linker_0, # of connection points: 2
#     Edge 47, Type (0, 0), BuildingBlock: CIFDUS_clean_linker_0, # of connection points: 2
#     Edge 48, Type (0, 0), BuildingBlock: CIFDUS_clean_linker_0, # of connection points: 2
#     Edge 49, Type (0, 0), BuildingBlock: CIFDUS_clean_linker_0, # of connection points: 2
#     Edge 50, Type (0, 0), BuildingBlock: CIFDUS_clean_linker_0, # of connection points: 2
#     Edge 51, Type (0, 0), BuildingBlock: CIFDUS_clean_linker_0, # of connection points: 2
#     Edge 52, Type (0, 0), BuildingBlock: CIFDUS_clean_linker_0, # of connection points: 2
#     Edge 53, Type (0, 0), BuildingBlock: CIFDUS_clean_linker_0, # of connection points: 2
#     Edge 54, Type (0, 0), BuildingBlock: CIFDUS_clean_linker_0, # of connection points: 2
#     Edge 55, Type (0, 0), BuildingBlock: CIFDUS_clean_linker_0, # of connection points: 2
#     Edge 56, Type (0, 0), BuildingBlock: CIFDUS_clean_linker_0, # of connection points: 2
#     Edge 57, Type (0, 0), BuildingBlock: CIFDUS_clean_linker_0, # of connection points: 2
#     Edge 58, Type (0, 0), BuildingBlock: CIFDUS_clean_linker_0, # of connection points: 2
#     Edge 59, Type (0, 0), BuildingBlock: CIFDUS_clean_linker_0, # of connection points: 2
#     Edge 60, Type (0, 0), BuildingBlock: CIFDUS_clean_linker_0, # of connection points: 2
#     Edge 61, Type (0, 0), BuildingBlock: CIFDUS_clean_linker_0, # of connection points: 2
#     Edge 62, Type (0, 0), BuildingBlock: CIFDUS_clean_linker_0, # of connection points: 2
#     Edge 63, Type (0, 0), BuildingBlock: CIFDUS_clean_linker_0, # of connection points: 2
#     Edge 64, Type (0, 0), BuildingBlock: CIFDUS_clean_linker_0, # of connection points: 2
#     Edge 65, Type (0, 0), BuildingBlock: CIFDUS_clean_linker_0, # of connection points: 2
#     Edge 66, Type (0, 0), BuildingBlock: CIFDUS_clean_linker_0, # of connection points: 2
#     Edge 67, Type (0, 0), BuildingBlock: CIFDUS_clean_linker_0, # of connection points: 2
#     Edge 68, Type (0, 0), BuildingBlock: CIFDUS_clean_linker_0, # of connection points: 2
#     Edge 69, Type (0, 0), BuildingBlock: CIFDUS_clean_linker_0, # of connection points: 2
#     Edge 70, Type (0, 0), BuildingBlock: CIFDUS_clean_linker_0, # of connection points: 2
#     Edge 71, Type (0, 0), BuildingBlock: CIFDUS_clean_linker_0, # of connection points: 2
#     Edge 72, Type (0, 0), BuildingBlock: CIFDUS_clean_linker_0, # of connection points: 2
#     Edge 73, Type (0, 0), BuildingBlock: CIFDUS_clean_linker_0, # of connection points: 2
#     Edge 74, Type (0, 0), BuildingBlock: CIFDUS_clean_linker_0, # of connection points: 2
#     Edge 75, Type (0, 0), BuildingBlock: CIFDUS_clean_linker_0, # of connection points: 2
#     Edge 76, Type (0, 0), BuildingBlock: CIFDUS_clean_linker_0, # of connection points: 2
#     Edge 77, Type (0, 0), BuildingBlock: CIFDUS_clean_linker_0, # of connection points: 2
#     Edge 78, Type (0, 0), BuildingBlock: CIFDUS_clean_linker_0, # of connection points: 2
#     Edge 79, Type (0, 0), BuildingBlock: CIFDUS_clean_linker_0, # of connection points: 2
#     Edge 80, Type (0, 0), BuildingBlock: CIFDUS_clean_linker_0, # of connection points: 2
#     Edge 81, Type (0, 0), BuildingBlock: CIFDUS_clean_linker_0, # of connection points: 2
#     Edge 82, Type (0, 0), BuildingBlock: CIFDUS_clean_linker_0, # of connection points: 2
#     Edge 83, Type (0, 0), BuildingBlock: CIFDUS_clean_linker_0, # of connection points: 2
#     Edge 84, Type (0, 0), BuildingBlock: CIFDUS_clean_linker_0, # of connection points: 2
#     Edge 85, Type (0, 0), BuildingBlock: CIFDUS_clean_linker_0, # of connection points: 2
#     Edge 86, Type (0, 0), BuildingBlock: CIFDUS_clean_linker_0, # of connection points: 2
#     Edge 87, Type (0, 0), BuildingBlock: CIFDUS_clean_linker_0, # of connection points: 2
#     Edge 88, Type (0, 0), BuildingBlock: CIFDUS_clean_linker_0, # of connection points: 2
#     Edge 89, Type (0, 0), BuildingBlock: CIFDUS_clean_linker_0, # of connection points: 2
#     Edge 90, Type (0, 0), BuildingBlock: CIFDUS_clean_linker_0, # of connection points: 2
#     Edge 91, Type (0, 0), BuildingBlock: CIFDUS_clean_linker_0, # of connection points: 2
#     Edge 92, Type (0, 0), BuildingBlock: CIFDUS_clean_linker_0, # of connection points: 2
#     Edge 93, Type (0, 0), BuildingBlock: CIFDUS_clean_linker_0, # of connection points: 2
#     Edge 94, Type (0, 0), BuildingBlock: CIFDUS_clean_linker_0, # of connection points: 2
#     Edge 95, Type (0, 0), BuildingBlock: CIFDUS_clean_linker_0, # of connection points: 2
# Relax obj value: 0.050
# Max RMSD: 0.160
# Mean RMSD: 0.160
data_MOF--net-uoa--node1-GALJAG_clean_sbu_0--edge1-CIFDUS_clean_linker_0
_symmetry_space_group_name_H-M    P1
_symmetry_Int_Tables_number       1
_symmetry_cell_setting            triclinic
loop_
_symmetry_equiv_pos_as_xyz
'x, y, z'
_cell_length_a     65.748135
_cell_length_b     65.730812
_cell_length_c     25.051592
_cell_angle_alpha  89.996321
_cell_angle_beta   89.930262
_cell_angle_gamma 89.968149
loop_
_atom_site_label
_atom_site_type_symbol
_atom_site_fract_x
_atom_site_fract_y
_atom_site_fract_z
_atom_type_partial_charge
In0 In 0.02171 0.10384 0.02962 0.0
O1 O 0.05471 0.10481 0.05973 0.0
O2 O 0.03597 0.13127 0.06638 0.0
C3 C 0.01759 0.06402 0.01021 0.0
C4 C -0.00144 0.10834 0.11767 0.0
C5 C 0.01803 0.11747 0.92835 0.0
O6 O 0.03452 0.07173 0.02344 0.0
O7 O 0.00297 0.07645 0.00701 0.0
O8 O 0.00316 0.11695 0.96043 0.0
O9 O 0.03479 0.1121 0.9483 0.0
C10 C 0.05278 0.12289 0.07638 0.0
O11 O -0.00053 0.12203 0.08223 0.0
O12 O 0.00818 0.09227 0.10686 0.0
In13 In 0.14149 0.75049 0.26881 0.0
O14 O 0.12634 0.72884 0.32934 0.0
O15 O 0.15447 0.74294 0.34955 0.0
C16 C 0.12573 0.74222 0.17177 0.0
C17 C 0.12206 0.78313 0.30778 0.0
C18 C 0.1806 0.74408 0.24344 0.0
O19 O 0.12561 0.72942 0.20952 0.0
O20 O 0.13306 0.75936 0.18382 0.0
O21 O 0.17348 0.76186 0.2497 0.0
O22 O 0.16793 0.72983 0.24971 0.0
C23 C 0.14005 0.73158 0.36407 0.0
O24 O 0.14057 0.78417 0.29402 0.0
O25 O 0.11354 0.76633 0.2983 0.0
In26 In 0.47353 0.90367 0.52515 0.0
O27 O 0.49664 0.887 0.57987 0.0
O28 O 0.46916 0.89886 0.61295 0.0
C29 C 0.48217 0.90158 0.42022 0.0
C30 C 0.43807 0.88385 0.52627 0.0
C31 C 0.48497 0.94246 0.53693 0.0
O32 O 0.49024 0.88927 0.45312 0.0
O33 O 0.46991 0.9142 0.44039 0.0
O34 O 0.46643 0.93734 0.53379 0.0
O35 O 0.49755 0.92792 0.53551 0.0
C36 C 0.48555 0.88941 0.62098 0.0
O37 O 0.43932 0.90239 0.53967 0.0
O38 O 0.45446 0.8759 0.50995 0.0
In39 In 0.34371 0.21708 0.77748 0.0
O40 O 0.36083 0.23685 0.83836 0.0
O41 O 0.34321 0.21167 0.86591 0.0
C42 C 0.35642 0.22912 0.68087 0.0
C43 C 0.3617 0.1807 0.78372 0.0
C44 C 0.30505 0.23047 0.77206 0.0
O45 O 0.36075 0.23897 0.72282 0.0
O46 O 0.34593 0.21325 0.68805 0.0
O47 O 0.30959 0.21199 0.76413 0.0
O48 O 0.31989 0.24179 0.78342 0.0
C49 C 0.35498 0.22611 0.87749 0.0
O50 O 0.34279 0.18276 0.79211 0.0
O51 O 0.37092 0.19669 0.76964 0.0
In52 In 0.03801 0.9042 0.45302 0.0
O53 O 0.07205 0.89764 0.44214 0.0
O54 O 0.05078 0.87306 0.45019 0.0
C55 C 0.02507 0.94242 0.46422 0.0
C56 C 0.02846 0.89949 0.35031 0.0
C57 C 0.02624 0.89362 0.55105 0.0
O58 O 0.04391 0.9382 0.4681 0.0
O59 O 0.01362 0.92758 0.45336 0.0
O60 O 0.01589 0.88903 0.50999 0.0
O61 O 0.04277 0.9029 0.54205 0.0
C62 C 0.06896 0.87852 0.44184 0.0
O63 O 0.01735 0.89212 0.38706 0.0
O64 O 0.04378 0.90948 0.36588 0.0
In65 In 0.34439 0.7803 0.71653 0.0
O66 O 0.35661 0.75633 0.65867 0.0
O67 O 0.33527 0.77848 0.63042 0.0
C68 C 0.36316 0.77487 0.81022 0.0
C69 C 0.36139 0.81445 0.68067 0.0
C70 C 0.30772 0.76602 0.74501 0.0
O71 O 0.36602 0.76309 0.77094 0.0
O72 O 0.35162 0.78983 0.80108 0.0
O73 O 0.31051 0.78484 0.73654 0.0
O74 O 0.3232 0.75498 0.73841 0.0
C75 C 0.34667 0.76355 0.61973 0.0
O76 O 0.34345 0.81462 0.69945 0.0
O77 O 0.37063 0.79765 0.68344 0.0
In78 In 0.46205 0.08614 0.97213 0.0
O79 O 0.48846 0.10288 0.92952 0.0
O80 O 0.46364 0.09153 0.88367 0.0
C81 C 0.46569 0.09101 0.07874 0.0
C82 C 0.42612 0.10356 0.95112 0.0
C83 C 0.47397 0.04719 0.96329 0.0
O84 O 0.47489 0.10261 0.04635 0.0
O85 O 0.45454 0.07777 0.05719 0.0
O86 O 0.45553 0.05248 0.95957 0.0
O87 O 0.48634 0.06161 0.97057 0.0
C88 C 0.48026 0.10102 0.88397 0.0
O89 O 0.42844 0.08448 0.94951 0.0
O90 O 0.44153 0.11351 0.96605 0.0
In91 In 0.15642 0.2289 0.20239 0.0
O92 O 0.1576 0.19547 0.17697 0.0
O93 O 0.1301 0.20746 0.20968 0.0
C94 C 0.19591 0.23967 0.20664 0.0
C95 C 0.14205 0.24422 0.11081 0.0
C96 C 0.14448 0.23825 0.30147 0.0
O97 O 0.19018 0.2215 0.21325 0.0
O98 O 0.18184 0.25205 0.19658 0.0
O99 O 0.13984 0.24916 0.26179 0.0
O100 O 0.15498 0.22269 0.29091 0.0
C101 C 0.1392 0.19237 0.18953 0.0
O102 O 0.1397 0.25347 0.15459 0.0
O103 O 0.15182 0.22776 0.11349 0.0
In104 In 0.97977 0.90867 0.95154 0.0
O105 O 0.00669 0.89703 0.9016 0.0
O106 O 0.98116 0.91012 0.86178 0.0
C107 C 0.98757 0.89735 0.05268 0.0
C108 C 0.94822 0.88472 0.92838 0.0
C109 C 0.9839 0.94924 0.96011 0.0
O110 O 0.00077 0.89599 0.0161 0.0
O111 O 0.97047 0.90394 0.03785 0.0
O112 O 0.9667 0.94097 0.95419 0.0
O113 O -0.0013 0.93707 0.96122 0.0
C114 C -0.00169 0.90166 0.85777 0.0
O115 O 0.94598 0.90367 0.93551 0.0
O116 O 0.96607 0.87806 0.93513 0.0
In117 In 0.84514 0.22014 0.72484 0.0
O118 O 0.85005 0.18599 0.7135 0.0
O119 O 0.87577 0.20523 0.7271 0.0
C120 C 0.80497 0.22703 0.73328 0.0
C121 C 0.8526 0.2307 0.62324 0.0
C122 C 0.85612 0.23433 0.82102 0.0
O123 O 0.81244 0.20944 0.73986 0.0
O124 O 0.8177 0.24066 0.72174 0.0
O125 O 0.8587 0.24461 0.77875 0.0
O126 O 0.84842 0.21692 0.81431 0.0
C127 C 0.86923 0.18756 0.71701 0.0
O128 O 0.85752 0.24226 0.6616 0.0
O129 O 0.84364 0.21452 0.63646 0.0
In130 In 0.51291 0.10008 0.48165 0.0
O131 O 0.49395 0.11782 0.42 0.0
O132 O 0.50442 0.08808 0.40002 0.0
C133 C 0.50422 0.11559 0.57893 0.0
C134 C 0.54826 0.11617 0.44924 0.0
C135 C 0.50266 0.06155 0.50392 0.0
O136 O 0.49216 0.11712 0.53983 0.0
O137 O 0.52102 0.10732 0.56794 0.0
O138 O 0.52097 0.06669 0.49562 0.0
O139 O 0.48984 0.0758 0.50067 0.0
C140 C 0.49501 0.10384 0.38533 0.0
O141 O 0.54754 0.09833 0.4682 0.0
O142 O 0.53163 0.12572 0.44933 0.0
In143 In 0.64861 0.76508 0.22954 0.0
O144 O 0.63087 0.74137 0.18121 0.0
O145 O 0.64469 0.76646 0.14089 0.0
C146 C 0.64076 0.75625 0.33159 0.0
C147 C 0.62962 0.80087 0.21894 0.0
C148 C 0.68756 0.75252 0.2264 0.0
O149 O 0.63385 0.74556 0.29369 0.0
O150 O 0.65119 0.77148 0.31767 0.0
O151 O 0.68296 0.77111 0.23209 0.0
O152 O 0.67262 0.74072 0.22123 0.0
C153 C 0.63416 0.75049 0.13753 0.0
O154 O 0.64823 0.79879 0.20679 0.0
O155 O 0.62122 0.78522 0.23824 0.0
In156 In 0.97254 0.09254 0.53148 0.0
O157 O 0.93889 0.09119 0.55384 0.0
O158 O 0.95328 0.12018 0.54191 0.0
C159 C 0.99066 0.05625 0.52772 0.0
C160 C 0.98526 0.10373 0.62807 0.0
C161 C 0.97293 0.09847 0.42578 0.0
O162 O 0.97152 0.05817 0.53229 0.0
O163 O 0.00062 0.07272 0.52655 0.0
O164 O 0.98436 0.10888 0.4563 0.0
O165 O 0.96128 0.08604 0.44913 0.0
C166 C 0.93758 0.11045 0.55618 0.0
O167 O 0.99339 0.11137 0.58644 0.0
O168 O 0.97215 0.09003 0.61996 0.0
In169 In 0.64884 0.22327 0.29846 0.0
O170 O 0.63317 0.24766 0.34931 0.0
O171 O 0.64808 0.22277 0.38807 0.0
C172 C 0.64186 0.22947 0.19468 0.0
C173 C 0.62553 0.19043 0.31014 0.0
C174 C 0.68784 0.23504 0.29555 0.0
O175 O 0.6361 0.24211 0.22988 0.0
O176 O 0.65074 0.21377 0.21217 0.0
O177 O 0.68308 0.21632 0.29511 0.0
O178 O 0.67305 0.2472 0.29879 0.0
C179 C 0.63793 0.23899 0.3928 0.0
O180 O 0.64444 0.18973 0.32038 0.0
O181 O 0.61898 0.20736 0.29343 0.0
In182 In 0.53166 0.89826 0.01783 0.0
O183 O 0.50986 0.88132 0.07484 0.0
O184 O 0.52269 0.90953 0.09976 0.0
C185 C 0.5266 0.88418 0.91721 0.0
C186 C 0.56461 0.87964 0.05673 0.0
C187 C 0.52338 0.9374 0.99727 0.0
O188 O 0.51273 0.8829 0.9522 0.0
O189 O 0.54311 0.89157 0.93394 0.0
O190 O 0.54118 0.93153 0.00923 0.0
O191 O 0.5101 0.92352 0.99584 0.0
C192 C 0.51175 0.89443 0.11163 0.0
O193 O 0.56565 0.89772 0.03946 0.0
O194 O 0.54759 0.87106 0.05132 0.0
In195 In 0.84893 0.76893 0.79662 0.0
O196 O 0.8609 0.74205 0.84568 0.0
O197 O 0.84979 0.76851 0.88599 0.0
C198 C 0.85585 0.76167 0.69321 0.0
C199 C 0.87595 0.79852 0.81239 0.0
C200 C 0.80837 0.76442 0.79577 0.0
O201 O 0.85879 0.74822 0.72857 0.0
O202 O 0.84982 0.77871 0.7103 0.0
O203 O 0.8165 0.78189 0.79751 0.0
O204 O 0.8207 0.74974 0.79507 0.0
C205 C 0.8576 0.75103 0.88962 0.0
O206 O 0.85698 0.80183 0.81615 0.0
O207 O 0.88088 0.78062 0.79906 0.0
In208 In 0.51564 0.60931 0.52002 0.0
O209 O 0.54842 0.60905 0.55167 0.0
O210 O 0.53633 0.63645 0.51937 0.0
C211 C 0.5096 0.5695 0.50347 0.0
C212 C 0.49676 0.61678 0.61367 0.0
C213 C 0.50452 0.62082 0.42143 0.0
O214 O 0.52731 0.5768 0.50934 0.0
O215 O 0.49532 0.58233 0.50555 0.0
O216 O 0.4929 0.62298 0.46137 0.0
O217 O 0.52176 0.61336 0.43176 0.0
C218 C 0.55115 0.62768 0.54135 0.0
O219 O 0.49842 0.63041 0.57842 0.0
O220 O 0.50408 0.59978 0.60101 0.0
In221 In 0.6538 0.27932 0.79302 0.0
O222 O 0.64922 0.31376 0.80196 0.0
O223 O 0.62397 0.29365 0.81329 0.0
C224 C 0.69336 0.27177 0.77511 0.0
C225 C 0.65089 0.26789 0.89525 0.0
C226 C 0.63876 0.26626 0.69943 0.0
O227 O 0.68617 0.28963 0.77254 0.0
O228 O 0.68064 0.25815 0.78704 0.0
O229 O 0.63813 0.25548 0.74129 0.0
O230 O 0.64634 0.28376 0.70548 0.0
C231 C 0.63075 0.31162 0.81549 0.0
O232 O 0.6431 0.2573 0.85821 0.0
O233 O 0.66074 0.28332 0.88012 0.0
In234 In 0.96313 0.40514 0.02942 0.0
O235 O 0.98551 0.38694 0.08106 0.0
O236 O 0.96431 0.40695 0.11905 0.0
C237 C 0.9664 0.3921 0.92805 0.0
C238 C 0.92666 0.39062 0.05583 0.0
C239 C 0.98069 0.4419 0.02011 0.0
O240 O 0.97851 0.38626 0.96422 0.0
O241 O 0.95257 0.40406 0.94345 0.0
O242 O 0.96153 0.43993 0.02143 0.0
O243 O 0.99055 0.42551 0.02365 0.0
C244 C 0.97849 0.39416 0.12427 0.0
O245 O 0.92953 0.40959 0.0506 0.0
O246 O 0.94181 0.37941 0.04578 0.0
In247 In 0.84274 0.71376 0.29108 0.0
O248 O 0.85339 0.73469 0.35782 0.0
O249 O 0.83486 0.70885 0.37714 0.0
C250 C 0.85739 0.72468 0.19604 0.0
C251 C 0.86709 0.68252 0.31199 0.0
C252 C 0.8045 0.72597 0.27427 0.0
O253 O 0.85999 0.73551 0.23738 0.0
O254 O 0.84783 0.70821 0.20332 0.0
O255 O 0.80922 0.70722 0.2725 0.0
O256 O 0.81897 0.73794 0.28475 0.0
C257 C 0.84494 0.72396 0.39371 0.0
O258 O 0.84847 0.67947 0.30077 0.0
O259 O 0.87306 0.70075 0.30861 0.0
In260 In 0.51731 0.40375 0.9759 0.0
O261 O 0.55145 0.39942 0.96335 0.0
O262 O 0.53244 0.37334 0.97612 0.0
C263 C 0.50551 0.44258 0.98398 0.0
C264 C 0.50687 0.39714 0.87442 0.0
C265 C 0.50641 0.3938 0.07525 0.0
O266 O 0.52417 0.4377 0.98702 0.0
O267 O 0.49343 0.42801 0.97588 0.0
O268 O 0.49583 0.38862 0.03509 0.0
O269 O 0.52262 0.40335 0.06466 0.0
C270 C 0.55001 0.38017 0.96598 0.0
O271 O 0.49576 0.39081 0.91245 0.0
O272 O 0.52255 0.40689 0.88808 0.0
In273 In 0.84186 0.27625 0.22329 0.0
O274 O 0.84086 0.30973 0.19844 0.0
O275 O 0.86888 0.29701 0.22647 0.0
C276 C 0.80346 0.26254 0.23177 0.0
C277 C 0.85356 0.26112 0.1285 0.0
C278 C 0.85259 0.27044 0.32534 0.0
O279 O 0.80755 0.28136 0.23219 0.0
O280 O 0.8186 0.251 0.22577 0.0
O281 O 0.85844 0.25851 0.28861 0.0
O282 O 0.84167 0.28514 0.3102 0.0
C283 C 0.85957 0.31238 0.20853 0.0
O284 O 0.85903 0.25288 0.17193 0.0
O285 O 0.84236 0.27658 0.13346 0.0
In286 In 0.98924 0.59734 0.46705 0.0
O287 O 0.95578 0.60027 0.44327 0.0
O288 O 0.97261 0.62705 0.46344 0.0
C289 C 0.99748 0.55732 0.47365 0.0
C290 C 0.00644 0.60669 0.37283 0.0
C291 C 0.99545 0.60785 0.56957 0.0
O292 O 0.97941 0.56398 0.47386 0.0
O293 O 0.01102 0.57078 0.46949 0.0
O294 O 0.00831 0.61192 0.5334 0.0
O295 O 0.9797 0.59874 0.5537 0.0
C296 C 0.95594 0.61947 0.44803 0.0
O297 O 0.01536 0.61049 0.41653 0.0
O298 O 0.98933 0.5982 0.3772 0.0
In299 In 0.65451 0.72078 0.73839 0.0
O300 O 0.65049 0.68658 0.72286 0.0
O301 O 0.62561 0.70692 0.70921 0.0
C302 C 0.69424 0.7264 0.75941 0.0
C303 C 0.65177 0.73795 0.64202 0.0
C304 C 0.63673 0.73019 0.83158 0.0
O305 O 0.68664 0.70882 0.75462 0.0
O306 O 0.68181 0.74082 0.75376 0.0
O307 O 0.63672 0.7422 0.79221 0.0
O308 O 0.64548 0.71338 0.82353 0.0
C309 C 0.63245 0.68901 0.70628 0.0
O310 O 0.64542 0.74701 0.68336 0.0
O311 O 0.66013 0.72094 0.64993 0.0
In312 In 0.46261 0.41546 0.47435 0.0
O313 O 0.48965 0.40322 0.42592 0.0
O314 O 0.46428 0.41617 0.38482 0.0
C315 C 0.46803 0.40411 0.57637 0.0
C316 C 0.43202 0.39124 0.44642 0.0
C317 C 0.46884 0.45577 0.47974 0.0
O318 O 0.48152 0.4014 0.541 0.0
O319 O 0.45187 0.4124 0.56002 0.0
O320 O 0.45114 0.44835 0.47563 0.0
O321 O 0.48301 0.44286 0.48135 0.0
C322 C 0.4813 0.40739 0.38166 0.0
O323 O 0.42919 0.41018 0.45258 0.0
O324 O 0.44962 0.38485 0.45771 0.0
In325 In 0.34139 0.73493 0.20551 0.0
O326 O 0.34571 0.70143 0.18375 0.0
O327 O 0.37117 0.7183 0.2126 0.0
C328 C 0.30072 0.74029 0.20183 0.0
C329 C 0.3548 0.75219 0.11496 0.0
C330 C 0.34872 0.74561 0.30704 0.0
O331 O 0.30862 0.72289 0.20749 0.0
O332 O 0.31331 0.7546 0.19707 0.0
O333 O 0.35287 0.75715 0.26819 0.0
O334 O 0.34117 0.72862 0.29454 0.0
C335 C 0.36453 0.70164 0.1945 0.0
O336 O 0.3557 0.76143 0.15915 0.0
O337 O 0.3469 0.73475 0.11673 0.0
In338 In 0.04102 0.59102 0.96794 0.0
O339 O 0.074 0.58322 0.94905 0.0
O340 O 0.06706 0.61311 0.97742 0.0
C341 C 0.02246 0.55453 0.97452 0.0
C342 C 0.03284 0.6042 0.86836 0.0
C343 C 0.03139 0.60569 0.0649 0.0
O344 O 0.04132 0.55662 0.98261 0.0
O345 O 0.01326 0.57068 0.96234 0.0
O346 O 0.02245 0.6117 0.02299 0.0
O347 O 0.0453 0.59276 0.05744 0.0
C348 C 0.08039 0.60085 0.96037 0.0
O349 O 0.02285 0.61069 0.90813 0.0
O350 O 0.04628 0.59122 0.87912 0.0
In351 In 0.1498 0.27085 0.70842 0.0
O352 O 0.13659 0.24666 0.65311 0.0
O353 O 0.15483 0.27062 0.62017 0.0
C354 C 0.13375 0.26373 0.80477 0.0
C355 C 0.13052 0.30469 0.67837 0.0
C356 C 0.18821 0.25806 0.72399 0.0
O357 O 0.13066 0.25205 0.76552 0.0
O358 O 0.14448 0.2792 0.79479 0.0
O359 O 0.18383 0.27685 0.72299 0.0
O360 O 0.17334 0.24627 0.71731 0.0
C361 C 0.14412 0.25499 0.612 0.0
O362 O 0.14915 0.30523 0.69145 0.0
O363 O 0.12187 0.28768 0.68394 0.0
In364 In 0.46531 0.59838 0.02309 0.0
O365 O 0.43172 0.5992 0.04743 0.0
O366 O 0.44785 0.62715 0.03508 0.0
C367 C 0.47946 0.56018 0.02272 0.0
C368 C 0.48276 0.61005 0.11406 0.0
C369 C 0.46656 0.60504 0.91767 0.0
O370 O 0.46065 0.56408 0.02756 0.0
O371 O 0.4909 0.57554 0.01885 0.0
O372 O 0.47816 0.61464 0.94931 0.0
O373 O 0.45437 0.59279 0.93965 0.0
C374 C 0.4316 0.61848 0.04954 0.0
O375 O 0.49044 0.615 0.06934 0.0
O376 O 0.46715 0.5989 0.11195 0.0
In377 In 0.15838 0.70958 0.78164 0.0
O378 O 0.1367 0.73315 0.82107 0.0
O379 O 0.14693 0.70772 0.866 0.0
C380 C 0.15477 0.71182 0.6748 0.0
C381 C 0.1513 0.66997 0.79848 0.0
C382 C 0.19398 0.72928 0.79278 0.0
O383 O 0.14024 0.71713 0.70517 0.0
O384 O 0.17037 0.70534 0.69853 0.0
O385 O 0.1926 0.71011 0.79473 0.0
O386 O 0.17729 0.73849 0.78695 0.0
C387 C 0.13658 0.72378 0.86527 0.0
O388 O 0.16655 0.67899 0.81809 0.0
O389 O 0.14019 0.68075 0.76853 0.0
In390 In 0.01676 0.3979 0.52995 0.0
O391 O 0.99433 0.38457 0.5913 0.0
O392 O 0.02204 0.39785 0.61863 0.0
C393 C 0.00311 0.3878 0.43251 0.0
C394 C 0.05017 0.37482 0.53527 0.0
C395 C 0.00918 0.43806 0.52422 0.0
O396 O 0.99274 0.38448 0.47428 0.0
O397 O 0.02033 0.39574 0.44035 0.0
O398 O 0.02687 0.43094 0.51704 0.0
O399 O 0.9958 0.425 0.53527 0.0
C400 C 0.00572 0.38887 0.63047 0.0
O401 O 0.05101 0.39393 0.54181 0.0
O402 O 0.03278 0.36784 0.52411 0.0
In403 In 0.35249 0.26932 0.27666 0.0
O404 O 0.36628 0.24443 0.32974 0.0
O405 O 0.35101 0.2696 0.36612 0.0
C406 C 0.36376 0.26353 0.17506 0.0
C407 C 0.3738 0.30287 0.29649 0.0
C408 C 0.31327 0.25898 0.2665 0.0
O409 O 0.36784 0.25064 0.21114 0.0
O410 O 0.35436 0.27919 0.19069 0.0
O411 O 0.31881 0.27743 0.26738 0.0
O412 O 0.32742 0.24618 0.27144 0.0
C413 C 0.36069 0.2532 0.37239 0.0
O414 O 0.35452 0.30288 0.29888 0.0
O415 O 0.38187 0.28619 0.28281 0.0
H416 H 0.02128 0.11334 0.67728 0.0
H417 H 0.9564 0.11055 0.70129 0.0
H418 H 0.96062 0.11797 0.79585 0.0
H419 H 0.98275 0.1207 0.87354 0.0
H420 H 0.04785 0.1208 0.85263 0.0
H421 H 0.04364 0.1193 0.75567 0.0
C422 C 0.00815 0.11479 0.70324 0.0
C423 C 0.9886 0.11129 0.68272 0.0
C424 C 0.01073 0.11837 0.75835 0.0
C425 C 0.97162 0.11302 0.71654 0.0
C426 C 0.97401 0.11725 0.77061 0.0
C427 C 0.99602 0.12084 0.84775 0.0
C428 C 0.01555 0.12071 0.87025 0.0
C429 C 0.9935 0.11927 0.79229 0.0
C430 C 0.0326 0.12082 0.83626 0.0
C431 C 0.03022 0.11986 0.78078 0.0
H432 H 0.12202 0.70158 0.94666 0.0
H433 H 0.1321 0.76346 0.89648 0.0
H434 H 0.12672 0.7753 0.98832 0.0
H435 H 0.12497 0.76707 0.08459 0.0
H436 H 0.1156 0.70481 0.1336 0.0
H437 H 0.11459 0.6941 0.04041 0.0
C438 C 0.12247 0.71773 0.95564 0.0
C439 C 0.12764 0.73165 0.91523 0.0
C440 C 0.11979 0.72427 0.00844 0.0
C441 C 0.12805 0.75251 0.927 0.0
C442 C 0.12521 0.75922 0.9796 0.0
C443 C 0.12226 0.75123 0.07482 0.0
C444 C 0.12073 0.73669 0.11601 0.0
C445 C 0.12196 0.74512 0.02099 0.0
C446 C 0.117 0.71627 0.10274 0.0
C447 C 0.1165 0.71011 0.04942 0.0
H448 H 0.50307 0.92404 0.18219 0.0
H449 H 0.50331 0.85885 0.16445 0.0
H450 H 0.49502 0.85489 0.25953 0.0
H451 H 0.48896 0.87034 0.34924 0.0
H452 H 0.48679 0.93572 0.3629 0.0
H453 H 0.49478 0.93925 0.26836 0.0
C454 C 0.50108 0.90896 0.19901 0.0
C455 C 0.50379 0.89178 0.16648 0.0
C456 C 0.49624 0.90685 0.25329 0.0
C457 C 0.50108 0.87232 0.18866 0.0
C458 C 0.49654 0.87006 0.24312 0.0
C459 C 0.49036 0.88529 0.33132 0.0
C460 C 0.48755 0.90276 0.363 0.0
C461 C 0.49436 0.88724 0.27611 0.0
C462 C 0.48897 0.92207 0.33928 0.0
C463 C 0.4935 0.92412 0.28522 0.0
H464 H 0.36639 0.2746 0.46243 0.0
H465 H 0.36236 0.21329 0.40236 0.0
H466 H 0.36218 0.20008 0.49397 0.0
H467 H 0.35951 0.20651 0.59082 0.0
H468 H 0.3649 0.26787 0.6502 0.0
H469 H 0.36845 0.28062 0.55896 0.0
C470 C 0.36578 0.25832 0.46952 0.0
C471 C 0.36412 0.24489 0.42614 0.0
C472 C 0.36579 0.25093 0.52197 0.0
C473 C 0.36364 0.22385 0.43538 0.0
C474 C 0.36341 0.21634 0.48765 0.0
C475 C 0.36174 0.22264 0.58369 0.0
C476 C 0.36166 0.23631 0.62689 0.0
C477 C 0.36391 0.2298 0.53121 0.0
C478 C 0.36487 0.2571 0.61746 0.0
C479 C 0.3668 0.26439 0.56536 0.0
H480 H 0.97822 0.89286 0.76749 0.0
H481 H 0.03861 0.90081 0.83085 0.0
H482 H 0.05299 0.89742 0.7408 0.0
H483 H 0.04782 0.89514 0.64334 0.0
H484 H 0.98732 0.88578 0.58142 0.0
H485 H 0.97349 0.88645 0.67192 0.0
C486 C 0.99455 0.89369 0.76151 0.0
C487 C 0.00738 0.89741 0.80521 0.0
C488 C 0.00262 0.89147 0.71007 0.0
C489 C 0.0285 0.89804 0.79751 0.0
C490 C 0.03667 0.89617 0.74613 0.0
C491 C 0.03165 0.89295 0.64981 0.0
C492 C 0.01855 0.89064 0.60584 0.0
C493 C 0.02382 0.8933 0.70199 0.0
C494 C 0.99768 0.88759 0.61465 0.0
C495 C 0.98976 0.8881 0.66633 0.0
H496 H 0.36136 0.79875 0.89843 0.0
H497 H 0.3783 0.73867 0.84484 0.0
H498 H 0.37964 0.72686 0.93708 0.0
H499 H 0.37036 0.73221 0.03088 0.0
H500 H 0.35362 0.79211 0.08543 0.0
H501 H 0.358 0.80553 0.9948 0.0
C502 C 0.36584 0.78321 0.90708 0.0
C503 C 0.36933 0.76949 0.86498 0.0
C504 C 0.36629 0.77645 0.96019 0.0
C505 C 0.3754 0.74948 0.87659 0.0
C506 C 0.37602 0.74267 0.9293 0.0
C507 C 0.36806 0.74829 0.02296 0.0
C508 C 0.36131 0.76115 0.06403 0.0
C509 C 0.37058 0.75579 0.97108 0.0
C510 C 0.35872 0.78198 0.05404 0.0
C511 C 0.36113 0.7896 0.00229 0.0
H512 H 0.47646 0.12312 0.14302 0.0
H513 H 0.46214 0.05907 0.14533 0.0
H514 H 0.469 0.05762 0.2407 0.0
H515 H 0.48066 0.07395 0.32272 0.0
H516 H 0.4929 0.13831 0.32433 0.0
H517 H 0.485 0.14039 0.22866 0.0
C518 C 0.47478 0.10893 0.16464 0.0
C519 C 0.46898 0.09119 0.13711 0.0
C520 C 0.4783 0.10827 0.22018 0.0
C521 C 0.46658 0.07293 0.1656 0.0
C522 C 0.47052 0.07206 0.22016 0.0
C523 C 0.48134 0.08848 0.30219 0.0
C524 C 0.4874 0.10593 0.33019 0.0
C525 C 0.47658 0.08955 0.24772 0.0
C526 C 0.4881 0.1247 0.30348 0.0
C527 C 0.48375 0.12585 0.24876 0.0
H528 H 0.13684 0.27825 0.52688 0.0
H529 H 0.14298 0.21579 0.57653 0.0
H530 H 0.14182 0.20467 0.48298 0.0
H531 H 0.14284 0.21344 0.38733 0.0
H532 H 0.13544 0.27598 0.33869 0.0
H533 H 0.13298 0.28648 0.43206 0.0
C534 C 0.13768 0.26219 0.51702 0.0
C535 C 0.14036 0.2478 0.55769 0.0
C536 C 0.13685 0.25604 0.4637 0.0
C537 C 0.141 0.22703 0.54531 0.0
C538 C 0.14044 0.22073 0.49204 0.0
C539 C 0.1404 0.22931 0.39732 0.0
C540 C 0.13965 0.244 0.35663 0.0
C541 C 0.13894 0.23519 0.45092 0.0
C542 C 0.13614 0.26447 0.36959 0.0
C543 C 0.13484 0.27047 0.42284 0.0
H544 H 0.99209 0.89115 0.30329 0.0
H545 H 0.05549 0.90191 0.26908 0.0
H546 H 0.04879 0.89977 0.1735 0.0
H547 H 0.02457 0.89748 0.09955 0.0
H548 H 0.96072 0.88961 0.13295 0.0
H549 H 0.96788 0.88772 0.22865 0.0
C550 C 0.00442 0.89281 0.27479 0.0
C551 C 0.0242 0.89678 0.29301 0.0
C552 C 0.00036 0.89211 0.21974 0.0
C553 C 0.04008 0.89903 0.25586 0.0
C554 C 0.03628 0.89777 0.20123 0.0
C555 C 0.01229 0.89501 0.12777 0.0
C556 C 0.99219 0.89364 0.10942 0.0
C557 C 0.01643 0.89468 0.18268 0.0
C558 C 0.97634 0.89072 0.14632 0.0
C559 C 0.98041 0.8897 0.20099 0.0
H560 H 0.85728 0.28245 0.03727 0.0
H561 H 0.86092 0.22161 0.10082 0.0
H562 H 0.86369 0.20783 0.01012 0.0
H563 H 0.86141 0.21308 0.91275 0.0
H564 H 0.85897 0.27414 0.84989 0.0
H565 H 0.85965 0.28794 0.94049 0.0
C566 C 0.85897 0.26619 0.03119 0.0
C567 C 0.85863 0.25298 0.07532 0.0
C568 C 0.86065 0.25847 0.9792 0.0
C569 C 0.86114 0.23201 0.06728 0.0
C570 C 0.8626 0.22415 0.0155 0.0
C571 C 0.86132 0.22941 0.91897 0.0
C572 C 0.85987 0.2426 0.87488 0.0
C573 C 0.86181 0.23722 0.97114 0.0
C574 C 0.86005 0.26371 0.88326 0.0
C575 C 0.86033 0.27159 0.93502 0.0
H576 H 0.45977 0.11536 0.79946 0.0
H577 H 0.52049 0.1032 0.85559 0.0
H578 H 0.53396 0.10935 0.7655 0.0
H579 H 0.5275 0.11355 0.66879 0.0
H580 H 0.46647 0.126 0.61437 0.0
H581 H 0.4541 0.12485 0.70617 0.0
C582 C 0.47601 0.11445 0.79215 0.0
C583 C 0.48914 0.10859 0.83364 0.0
C584 C 0.48352 0.11797 0.74059 0.0
C585 C 0.51014 0.10769 0.82409 0.0
C586 C 0.51779 0.11108 0.77257 0.0
C587 C 0.51157 0.11646 0.67717 0.0
C588 C 0.49786 0.11955 0.6347 0.0
C589 C 0.50451 0.11555 0.73016 0.0
C590 C 0.47732 0.12348 0.64621 0.0
C591 C 0.4702 0.12269 0.69869 0.0
H592 H 0.64134 0.71545 0.5576 0.0
H593 H 0.65364 0.77712 0.60611 0.0
H594 H 0.64995 0.78866 0.51334 0.0
H595 H 0.64559 0.78046 0.41798 0.0
H596 H 0.63148 0.71889 0.37114 0.0
H597 H 0.63312 0.70797 0.46429 0.0
C598 C 0.64315 0.73142 0.54769 0.0
C599 C 0.64816 0.74544 0.58779 0.0
C600 C 0.64059 0.73788 0.49494 0.0
C601 C 0.64995 0.76614 0.57535 0.0
C602 C 0.64786 0.77268 0.52252 0.0
C603 C 0.64264 0.76471 0.42836 0.0
C604 C 0.63867 0.75041 0.38797 0.0
C605 C 0.64352 0.7586 0.48191 0.0
C606 C 0.63458 0.73013 0.40169 0.0
C607 C 0.63565 0.72386 0.45481 0.0
H608 H 0.98472 0.12975 0.35966 0.0
H609 H 0.96408 0.06743 0.35987 0.0
H610 H 0.9682 0.06559 0.26353 0.0
H611 H 0.98029 0.08059 0.18009 0.0
H612 H -0.00074 0.14326 0.17645 0.0
H613 H 0.99278 0.14628 0.27264 0.0
C614 C 0.98101 0.11588 0.33836 0.0
C615 C 0.97433 0.0987 0.36689 0.0
C616 C 0.98299 0.11502 0.28231 0.0
C617 C 0.96927 0.08088 0.33886 0.0
C618 C 0.97164 0.07977 0.28371 0.0
C619 C 0.98252 0.09503 0.20023 0.0
C620 C 0.99018 0.11166 0.17155 0.0
C621 C 0.97878 0.09661 0.25517 0.0
C622 C 0.99308 0.13032 0.19779 0.0
C623 C 0.98963 0.13197 0.25287 0.0
H624 H 0.64208 0.26592 0.1453 0.0
H625 H 0.63855 0.20147 0.11533 0.0
H626 H 0.63955 0.2076 0.01894 0.0
H627 H 0.64374 0.23135 0.94322 0.0
H628 H 0.65064 0.29546 0.97498 0.0
H629 H 0.64604 0.2895 0.0703 0.0
C630 C 0.64119 0.25329 0.11753 0.0
C631 C 0.64009 0.23333 0.13702 0.0
C632 C 0.64264 0.25687 0.06247 0.0
C633 C 0.63936 0.21699 0.10093 0.0
C634 C 0.63999 0.22048 0.04592 0.0
C635 C 0.64412 0.24395 0.97115 0.0
C636 C 0.64764 0.26375 0.95238 0.0
C637 C 0.64202 0.24035 0.02622 0.0
C638 C 0.6482 0.28002 0.98874 0.0
C639 C 0.64548 0.27666 0.0432 0.0
H640 H 0.52345 0.88573 0.66562 0.0
H641 H 0.45949 0.87883 0.69924 0.0
H642 H 0.46676 0.87382 0.79367 0.0
H643 H 0.49072 0.87569 0.86826 0.0
H644 H 0.55457 0.88455 0.83654 0.0
H645 H 0.54803 0.88422 0.74051 0.0
C646 C 0.51122 0.88265 0.69355 0.0
C647 C 0.49097 0.88277 0.67558 0.0
C648 C 0.51546 0.88036 0.74846 0.0
C649 C 0.4752 0.87897 0.71223 0.0
C650 C 0.47933 0.87614 0.76631 0.0
C651 C 0.50326 0.87713 0.84034 0.0
C652 C 0.52306 0.88028 0.85962 0.0
C653 C 0.49932 0.87746 0.78517 0.0
C654 C 0.53914 0.88219 0.8228 0.0
C655 C 0.53541 0.88208 0.76779 0.0
H656 H 0.85038 0.72558 0.64436 0.0
H657 H 0.86399 0.78864 0.61375 0.0
H658 H 0.86294 0.78241 0.51743 0.0
H659 H 0.85616 0.75929 0.44198 0.0
H660 H 0.83963 0.69695 0.47396 0.0
H661 H 0.8437 0.70259 0.56952 0.0
C662 C 0.85342 0.73785 0.6165 0.0
C663 C 0.8574 0.75746 0.63574 0.0
C664 C 0.85199 0.73432 0.56146 0.0
C665 C 0.86094 0.77338 0.59952 0.0
C666 C 0.86027 0.76985 0.54458 0.0
C667 C 0.85352 0.74698 0.46999 0.0
C668 C 0.84752 0.7278 0.45117 0.0
C669 C 0.85546 0.75044 0.52508 0.0
C670 C 0.84406 0.71194 0.48767 0.0
C671 C 0.84648 0.7151 0.54228 0.0
H672 H 0.46072 0.61993 0.19994 0.0
H673 H 0.52251 0.61486 0.14396 0.0
H674 H 0.53505 0.62004 0.23532 0.0
H675 H 0.52792 0.62177 0.33205 0.0
H676 H 0.46585 0.62719 0.38664 0.0
H677 H 0.45385 0.62645 0.29448 0.0
C678 C 0.47695 0.62025 0.20776 0.0
C679 C 0.49074 0.61671 0.16594 0.0
C680 C 0.48391 0.6232 0.25995 0.0
C681 C 0.5117 0.61752 0.17588 0.0
C682 C 0.51881 0.62036 0.22802 0.0
C683 C 0.5118 0.62313 0.32365 0.0
C684 C 0.49774 0.62421 0.36602 0.0
C685 C 0.505 0.62257 0.27056 0.0
C686 C 0.47694 0.62624 0.35471 0.0
C687 C 0.47006 0.62571 0.30206 0.0
H688 H 0.63318 0.21803 0.48426 0.0
H689 H 0.63254 0.27887 0.42003 0.0
H690 H 0.63065 0.29292 0.51058 0.0
H691 H 0.63322 0.28772 0.60791 0.0
H692 H 0.63313 0.22667 0.67133 0.0
H693 H 0.63094 0.21283 0.58106 0.0
C694 C 0.63233 0.23437 0.49016 0.0
C695 C 0.6333 0.24746 0.44589 0.0
C696 C 0.63121 0.24225 0.54207 0.0
C697 C 0.63185 0.26855 0.4537 0.0
C698 C 0.63089 0.27656 0.5054 0.0
C699 C 0.63237 0.2714 0.60194 0.0
C700 C 0.63362 0.25821 0.6461 0.0
C701 C 0.63116 0.26354 0.5499 0.0
C702 C 0.63226 0.23712 0.63796 0.0
C703 C 0.63112 0.22919 0.58635 0.0
H704 H 0.96832 0.38892 0.67709 0.0
H705 H 0.03201 0.37941 0.70923 0.0
H706 H 0.02496 0.37654 0.80463 0.0
H707 H 0.00135 0.38064 0.87957 0.0
H708 H 0.93819 0.3937 0.84871 0.0
H709 H 0.9442 0.39105 0.75256 0.0
C710 C 0.98052 0.38583 0.70505 0.0
C711 C 0.00062 0.38441 0.6865 0.0
C712 C 0.97645 0.38501 0.76017 0.0
C713 C 0.01642 0.38067 0.7229 0.0
C714 C 0.01241 0.37904 0.7774 0.0
C715 C 0.98884 0.38248 0.85178 0.0
C716 C 0.96939 0.38737 0.87101 0.0
C717 C 0.99258 0.38176 0.79663 0.0
C718 C 0.95334 0.38999 0.83466 0.0
C719 C 0.95677 0.38853 0.77972 0.0
H720 H 0.85831 0.70243 0.10485 0.0
H721 H 0.86846 0.76291 0.1664 0.0
H722 H 0.87144 0.77607 0.07561 0.0
H723 H 0.86698 0.77106 0.97951 0.0
H724 H 0.85729 0.71077 0.91687 0.0
H725 H 0.85854 0.6967 0.00754 0.0
C726 C 0.86151 0.71843 0.09832 0.0
C727 C 0.86286 0.73176 0.1421 0.0
C728 C 0.8631 0.7259 0.04601 0.0
C729 C 0.86727 0.75238 0.13328 0.0
C730 C 0.86887 0.75993 0.08142 0.0
C731 C 0.86542 0.7548 0.98576 0.0
C732 C 0.86172 0.74194 0.9421 0.0
C733 C 0.86615 0.74694 0.03763 0.0
C734 C 0.86009 0.72089 0.95018 0.0
C735 C 0.86069 0.71291 0.00192 0.0
H736 H 0.52886 0.39692 0.16563 0.0
H737 H 0.46797 0.38539 0.10914 0.0
H738 H 0.45505 0.38736 0.20049 0.0
H739 H 0.46058 0.39595 0.29463 0.0
H740 H 0.52139 0.4064 0.35251 0.0
H741 H 0.53497 0.40117 0.26218 0.0
C742 C 0.51281 0.39453 0.17349 0.0
C743 C 0.49932 0.39128 0.13075 0.0
C744 C 0.50551 0.39573 0.22607 0.0
C745 C 0.47862 0.38794 0.14139 0.0
C746 C 0.47122 0.38921 0.19354 0.0
C747 C 0.47683 0.39692 0.28741 0.0
C748 C 0.49001 0.40192 0.32951 0.0
C749 C 0.48443 0.39369 0.23585 0.0
C750 C 0.51103 0.40268 0.32036 0.0
C751 C 0.51874 0.39975 0.26882 0.0
H752 H 0.86018 0.23437 0.37346 0.0
H753 H 0.85322 0.29847 0.40495 0.0
H754 H 0.85507 0.29216 0.50103 0.0
H755 H 0.85516 0.26794 0.57628 0.0
H756 H 0.85876 0.20363 0.54379 0.0
H757 H 0.86188 0.2104 0.44834 0.0
C758 C 0.85946 0.24696 0.40142 0.0
C759 C 0.85658 0.26682 0.38241 0.0
C760 C 0.85972 0.24313 0.45655 0.0
C761 C 0.85538 0.28302 0.41889 0.0
C762 C 0.85639 0.27942 0.47378 0.0
C763 C 0.85695 0.2555 0.54822 0.0
C764 C 0.85666 0.23536 0.56673 0.0
C765 C 0.85802 0.25948 0.49313 0.0
C766 C 0.85878 0.21928 0.53019 0.0
C767 C 0.86058 0.22312 0.47566 0.0
H768 H 0.99634 0.61082 0.82069 0.0
H769 H 0.06092 0.61008 0.79136 0.0
H770 H 0.05511 0.61406 0.69561 0.0
H771 H 0.03163 0.61347 0.61947 0.0
H772 H 0.96702 0.61066 0.64803 0.0
H773 H 0.97273 0.61252 0.74429 0.0
C774 C 0.00906 0.61204 0.79328 0.0
C775 C 0.02899 0.61023 0.81269 0.0
C776 C 0.00557 0.61341 0.73798 0.0
C777 C 0.04544 0.61143 0.777 0.0
C778 C 0.04212 0.61363 0.7223 0.0
C779 C 0.01882 0.61367 0.6468 0.0
C780 C -0.00103 0.61186 0.62683 0.0
C781 C 0.02225 0.61399 0.70216 0.0
C782 C 0.98247 0.61192 0.6626 0.0
C783 C 0.98572 0.61296 0.71764 0.0
H784 H 0.62457 0.77262 0.05146 0.0
H785 H 0.63057 0.71083 0.1068 0.0
H786 H 0.62894 0.69846 0.01453 0.0
H787 H 0.63164 0.70606 0.9184 0.0
H788 H 0.62595 0.76814 0.86416 0.0
H789 H 0.62127 0.77962 0.95595 0.0
C790 C 0.62504 0.75641 0.04325 0.0
C791 C 0.62803 0.74261 0.08522 0.0
C792 C 0.62438 0.74955 0.99046 0.0
C793 C 0.6283 0.72166 0.07475 0.0
C794 C 0.62756 0.71464 0.02209 0.0
C795 C 0.62896 0.72204 0.92668 0.0
C796 C 0.62958 0.73631 0.8849 0.0
C797 C 0.6265 0.72855 0.97959 0.0
C798 C 0.62574 0.75691 0.89581 0.0
C799 C 0.62315 0.76349 0.94826 0.0
H800 H 0.46964 0.39606 0.8271 0.0
H801 H 0.53393 0.39172 0.79488 0.0
H802 H 0.52737 0.39114 0.69905 0.0
H803 H 0.50376 0.39536 0.62455 0.0
H804 H 0.43966 0.40264 0.65577 0.0
H805 H 0.44563 0.39847 0.75151 0.0
C806 C 0.4821 0.39461 0.79893 0.0
C807 C 0.5022 0.39397 0.81765 0.0
C808 C 0.47827 0.39504 0.74372 0.0
C809 C 0.51832 0.39234 0.78108 0.0
C810 C 0.5146 0.39204 0.72635 0.0
C811 C 0.49108 0.39574 0.65226 0.0
C812 C 0.47135 0.39939 0.63328 0.0
C813 C 0.49469 0.39393 0.7072 0.0
C814 C 0.45503 0.39996 0.66958 0.0
C815 C 0.45843 0.39759 0.72431 0.0
H816 H 0.35122 0.72141 0.39448 0.0
H817 H 0.35113 0.78424 0.34456 0.0
H818 H 0.35091 0.79525 0.43768 0.0
H819 H 0.34854 0.78699 0.53278 0.0
H820 H 0.35087 0.72448 0.58415 0.0
H821 H 0.35249 0.7132 0.4907 0.0
C822 C 0.35133 0.73749 0.40415 0.0
C823 C 0.35096 0.75203 0.36298 0.0
C824 C 0.35146 0.74369 0.45776 0.0
C825 C 0.3514 0.77281 0.37572 0.0
C826 C 0.35117 0.7791 0.42886 0.0
C827 C 0.34946 0.7709 0.52333 0.0
C828 C 0.34922 0.75649 0.56462 0.0
C829 C 0.35082 0.76468 0.47006 0.0
C830 C 0.35092 0.73573 0.55256 0.0
C831 C 0.3518 0.72934 0.49933 0.0
H832 H 0.05387 0.60497 0.15549 0.0
H833 H 0.99396 0.61887 0.09576 0.0
H834 H 0.98123 0.6222 0.18713 0.0
H835 H 0.98635 0.61713 0.28343 0.0
H836 H 0.04642 0.6047 0.34392 0.0
H837 H 0.06006 0.60507 0.25273 0.0
C838 C 0.03812 0.60908 0.1626 0.0
C839 C 0.02477 0.61141 0.11916 0.0
C840 C 0.03097 0.61107 0.21521 0.0
C841 C 0.00448 0.61699 0.12864 0.0
C842 C 0.99718 0.61877 0.18083 0.0
C843 C 0.00249 0.61485 0.27657 0.0
C844 C 0.01538 0.61062 0.3199 0.0
C845 C 0.01015 0.61523 0.22432 0.0
C846 C 0.03627 0.60797 0.31097 0.0
C847 C 0.04401 0.60806 0.2589 0.0
H848 H 0.13349 0.28827 0.89163 0.0
H849 H 0.12187 0.22661 0.84096 0.0
H850 H 0.12079 0.21546 0.93383 0.0
H851 H 0.12876 0.22235 0.02764 0.0
H852 H 0.14005 0.28385 0.07931 0.0
H853 H 0.1354 0.29612 0.98767 0.0
C854 C 0.13027 0.27249 0.90107 0.0
C855 C 0.12818 0.25818 0.85975 0.0
C856 C 0.12987 0.26617 0.95449 0.0
C857 C 0.12368 0.23785 0.87221 0.0
C858 C 0.12319 0.23145 0.92525 0.0
C859 C 0.12979 0.23849 0.01883 0.0
C860 C 0.13509 0.2522 0.05935 0.0
C861 C 0.12715 0.24532 0.96643 0.0
C862 C 0.13605 0.27309 0.04829 0.0
C863 C 0.13352 0.28005 0.99599 0.0
H864 H 0.47477 0.59054 0.67119 0.0
H865 H 0.50115 0.65045 0.67671 0.0
H866 H 0.49353 0.65273 0.7726 0.0
H867 H 0.48228 0.63586 0.85654 0.0
H868 H 0.45451 0.57646 0.8474 0.0
H869 H 0.45971 0.57578 0.75132 0.0
C870 C 0.47847 0.60425 0.69328 0.0
C871 C 0.48855 0.62025 0.66749 0.0
C872 C 0.47403 0.6054 0.74783 0.0
C873 C 0.49321 0.63802 0.69602 0.0
C874 C 0.48905 0.63921 0.75083 0.0
C875 C 0.47723 0.62291 0.83326 0.0
C876 C 0.46826 0.60614 0.85903 0.0
C877 C 0.47995 0.62273 0.77748 0.0
C878 C 0.4615 0.58954 0.8285 0.0
C879 C 0.46448 0.5891 0.77353 0.0
H880 H 0.17133 0.72435 0.42989 0.0
H881 H 0.10588 0.72296 0.42278 0.0
H882 H 0.10427 0.71665 0.51937 0.0
H883 H 0.12186 0.7139 0.60723 0.0
H884 H 0.18752 0.71425 0.6106 0.0
H885 H 0.18865 0.71871 0.51437 0.0
C886 C 0.15671 0.72237 0.44939 0.0
C887 C 0.13877 0.72416 0.41956 0.0
C888 C 0.15595 0.71883 0.50446 0.0
C889 C 0.11992 0.72145 0.44504 0.0
C890 C 0.11901 0.71805 0.50029 0.0
C891 C 0.13635 0.71492 0.58669 0.0
C892 C 0.15457 0.71394 0.61607 0.0
C893 C 0.13695 0.71714 0.53068 0.0
C894 C 0.17327 0.71499 0.58897 0.0
C895 C 0.17397 0.71754 0.53388 0.0
H896 H 0.95651 0.39055 0.21431 0.0
H897 H 0.01758 0.38554 0.153 0.0
H898 H 0.03068 0.38148 0.24408 0.0
H899 H 0.02483 0.38288 0.3414 0.0
H900 H 0.96346 0.38624 0.40186 0.0
H901 H 0.95027 0.38709 0.31064 0.0
C902 C 0.97266 0.3883 0.22099 0.0
C903 C 0.98617 0.38862 0.17748 0.0
C904 C 0.97996 0.38575 0.27313 0.0
C905 C 0.00698 0.38536 0.18613 0.0
C906 C 0.01444 0.38315 0.23812 0.0
C907 C 0.00855 0.38348 0.33448 0.0
C908 C 0.99511 0.38476 0.3781 0.0
C909 C 0.0011 0.38384 0.28197 0.0
C910 C 0.97407 0.38526 0.36884 0.0
C911 C 0.96654 0.38588 0.31674 0.0
H912 H 0.36712 0.22718 0.12555 0.0
H913 H 0.36783 0.29182 0.09672 0.0
H914 H 0.36799 0.28592 0.00033 0.0
H915 H 0.36366 0.26236 0.92453 0.0
H916 H 0.35941 0.19794 0.95487 0.0
H917 H 0.36506 0.20364 0.04995 0.0
C918 C 0.36778 0.23992 0.09807 0.0
C919 C 0.36744 0.25986 0.11791 0.0
C920 C 0.36697 0.23643 0.04288 0.0
C921 C 0.36801 0.27631 0.0821 0.0
C922 C 0.36803 0.27295 0.02706 0.0
C923 C 0.36436 0.24962 0.952 0.0
C924 C 0.36103 0.22982 0.93314 0.0
C925 C 0.36686 0.25308 0.00698 0.0
C926 C 0.36176 0.21336 0.96886 0.0
C927 C 0.36499 0.2166 0.02316 0.0
H928 H 0.98236 0.04455 0.98759 0.0
H929 H 0.04659 0.03431 0.01108 0.0
H930 H 0.04176 0.99786 0.99645 0.0
H931 H 0.01925 0.96899 0.97846 0.0
H932 H 0.95493 0.97904 0.95634 0.0
H933 H 0.95985 0.01563 0.96892 0.0
C934 C 0.99532 0.03434 0.98938 0.0
C935 C 0.01481 0.04208 0.00042 0.0
C936 C 0.9924 0.01344 0.98124 0.0
C937 C 0.03144 0.0287 0.00269 0.0
C938 C 0.02868 0.00788 0.99434 0.0
C939 C 0.0063 0.97919 0.97623 0.0
C940 C 0.98675 0.97136 0.96649 0.0
C941 C 0.00923 0.0001 0.98381 0.0
C942 C 0.97012 0.98473 0.96382 0.0
C943 C 0.97293 0.00562 0.97102 0.0
H944 H 0.21047 0.77164 0.22343 0.0
H945 H 0.19929 0.7072 0.23809 0.0
H946 H 0.23536 0.70016 0.2243 0.0
H947 H 0.27038 0.71239 0.21188 0.0
H948 H 0.28147 0.77684 0.19673 0.0
H949 H 0.24522 0.78375 0.20655 0.0
C950 C 0.21593 0.75607 0.22333 0.0
C951 C 0.20227 0.74 0.23207 0.0
C952 C 0.2367 0.75211 0.21536 0.0
C953 C 0.20953 0.71987 0.23156 0.0
C954 C 0.23016 0.71581 0.22374 0.0
C955 C 0.26482 0.72792 0.21035 0.0
C956 C 0.27859 0.74406 0.20385 0.0
C957 C 0.24393 0.73182 0.21616 0.0
C958 C 0.27118 0.76412 0.20179 0.0
C959 C 0.25045 0.76811 0.20751 0.0
H960 H 0.5269 0.02831 0.51668 0.0
H961 H 0.46409 0.04745 0.51556 0.0
H962 H 0.45307 0.01242 0.529 0.0
H963 H 0.46113 0.97614 0.53659 0.0
H964 H 0.52386 0.95679 0.53749 0.0
H965 H 0.53502 0.99207 0.52919 0.0
C966 C 0.51082 0.0248 0.51965 0.0
C967 C 0.49634 0.04041 0.51474 0.0
C968 C 0.50455 0.00458 0.52736 0.0
C969 C 0.47555 0.03568 0.51899 0.0
C970 C 0.46921 0.01565 0.52667 0.0
C971 C 0.47724 0.97967 0.5355 0.0
C972 C 0.49163 0.9639 0.5374 0.0
C973 C 0.48356 -5e-05 0.53029 0.0
C974 C 0.51246 0.96868 0.53602 0.0
C975 C 0.51887 0.98885 0.5311 0.0
H976 H 0.27049 0.20959 0.74885 0.0
H977 H 0.29294 0.26987 0.78281 0.0
H978 H 0.25889 0.28392 0.77079 0.0
H979 H 0.22262 0.27916 0.7494 0.0
H980 H 0.20031 0.21871 0.71656 0.0
H981 H 0.23428 0.20475 0.72924 0.0
C982 C 0.2679 0.22578 0.75378 0.0
C983 C 0.28421 0.23864 0.76663 0.0
C984 C 0.24827 0.23378 0.74683 0.0
C985 C 0.28063 0.25961 0.77294 0.0
C986 C 0.26116 0.26768 0.76599 0.0
C987 C 0.22524 0.26296 0.74501 0.0
C988 C 0.20899 0.25004 0.73194 0.0
C989 C 0.24486 0.25494 0.75268 0.0
C990 C 0.21257 0.22903 0.72662 0.0
C991 C 0.232 0.22099 0.73386 0.0
H992 H 0.04479 0.97791 0.49009 0.0
H993 H 0.98525 0.95244 0.46128 0.0
H994 H 0.96949 0.98496 0.48091 0.0
H995 H 0.97223 0.02062 0.50569 0.0
H996 H 0.03128 0.0473 0.53181 0.0
H997 H 0.04753 0.01441 0.51431 0.0
C998 C 0.0284 0.97956 0.48795 0.0
C999 C 0.01627 0.96276 0.47419 0.0
C1000 C 0.01928 -0.00151 0.49916 0.0
C1001 C 0.99501 0.96511 0.47164 0.0
C1002 C 0.98591 0.98371 0.48302 0.0
C1003 C 0.98865 0.01921 0.50799 0.0
C1004 C 0.00052 0.03628 0.52031 0.0
C1005 C 0.99785 0.00046 0.49691 0.0
C1006 C 0.0218 0.0343 0.52251 0.0
C1007 C 0.03111 0.01553 0.51237 0.0
H1008 H 0.23134 0.71236 0.79921 0.0
H1009 H 0.20084 0.7701 0.78198 0.0
H1010 H 0.23356 0.78706 0.7683 0.0
H1011 H 0.27079 0.78494 0.75479 0.0
H1012 H 0.30056 0.72668 0.77052 0.0
H1013 H 0.26825 0.71056 0.79122 0.0
C1014 C 0.23186 0.7287 0.7931 0.0
C1015 C 0.21373 0.73993 0.79132 0.0
C1016 C 0.25062 0.73826 0.78446 0.0
C1017 C 0.21464 0.76109 0.78345 0.0
C1018 C 0.23332 0.77079 0.7754 0.0
C1019 C 0.27017 0.76877 0.76313 0.0
C1020 C 0.28801 0.75702 0.7606 0.0
C1021 C 0.25141 0.75945 0.77475 0.0
C1022 C 0.28702 0.73607 0.77172 0.0
C1023 C 0.26855 0.72679 0.78366 0.0
H1024 H 0.48652 0.95233 0.97012 0.0
H1025 H 0.54821 0.97072 0.00347 0.0
H1026 H 0.53852 0.00646 0.99291 0.0
H1027 H 0.5121 0.03243 0.9785 0.0
H1028 H 0.45035 0.01375 0.94693 0.0
H1029 H 0.46054 0.97807 0.9522 0.0
C1030 C 0.49789 0.96414 0.97482 0.0
C1031 C 0.51803 0.95892 0.98785 0.0
C1032 C 0.49219 0.98457 0.9691 0.0
C1033 C 0.5326 0.97438 0.99357 0.0
C1034 C 0.52706 0.9948 0.9876 0.0
C1035 C 0.50091 0.02054 0.97235 0.0
C1036 C 0.48048 0.0257 0.96254 0.0
C1037 C 0.50684 6e-05 0.97599 0.0
C1038 C 0.46615 0.01016 0.95466 0.0
C1039 C 0.47196 0.98976 0.95775 0.0
H1040 H 0.22827 0.21654 0.2353 0.0
H1041 H 0.21104 0.2779 0.19402 0.0
H1042 H 0.24574 0.28954 0.21019 0.0
H1043 H 0.28101 0.28232 0.23698 0.0
H1044 H 0.29811 0.22083 0.2774 0.0
H1045 H 0.26346 0.20927 0.26107 0.0
C1046 C 0.23215 0.23243 0.22955 0.0
C1047 C 0.21716 0.24632 0.21345 0.0
C1048 C 0.25209 0.23904 0.23917 0.0
C1049 C 0.22236 0.26689 0.20633 0.0
C1050 C 0.24218 0.27358 0.21572 0.0
C1051 C 0.27708 0.26643 0.24244 0.0
C1052 C 0.29204 0.25248 0.2585 0.0
C1053 C 0.25715 0.25981 0.23245 0.0
C1054 C 0.28684 0.23188 0.26505 0.0
C1055 C 0.26704 0.22523 0.25565 0.0
H1056 H 0.78711 0.26401 0.72601 0.0
H1057 H 0.77402 0.20078 0.75734 0.0
H1058 H 0.73821 0.20919 0.77261 0.0
H1059 H 0.71092 0.23455 0.77854 0.0
H1060 H 0.7241 0.29783 0.7481 0.0
H1061 H 0.75976 0.28932 0.73104 0.0
C1062 C 0.77642 0.25203 0.73597 0.0
C1063 C 0.78318 0.23179 0.74054 0.0
C1064 C 0.75596 0.257 0.74504 0.0
C1065 C 0.76917 0.21647 0.75357 0.0
C1066 C 0.74872 0.22127 0.76237 0.0
C1067 C 0.72159 0.2465 0.76816 0.0
C1068 C 0.71491 0.26681 0.7647 0.0
C1069 C 0.742 0.2415 0.7585 0.0
C1070 C 0.72889 0.2821 0.75112 0.0
C1071 C 0.74925 0.27724 0.74133 0.0
H1072 H 0.72202 0.77384 0.24742 0.0
H1073 H 0.70015 0.71346 0.21208 0.0
H1074 H 0.73439 0.69973 0.22307 0.0
H1075 H 0.77051 0.7047 0.24583 0.0
H1076 H 0.79206 0.76521 0.28154 0.0
H1077 H 0.75812 0.77895 0.26744 0.0
C1078 C 0.72479 0.75771 0.2417 0.0
C1079 C 0.70859 0.74471 0.22908 0.0
C1080 C 0.74448 0.74987 0.24854 0.0
C1081 C 0.71239 0.72382 0.2219 0.0
C1082 C 0.73196 0.71592 0.2283 0.0
C1083 C 0.76774 0.72087 0.25045 0.0
C1084 C 0.78376 0.73385 0.26495 0.0
C1085 C 0.74811 0.72877 0.24221 0.0
C1086 C 0.77998 0.75482 0.27055 0.0
C1087 C 0.76056 0.76275 0.26245 0.0
H1088 H 0.72182 0.21373 0.26715 0.0
H1089 H 0.7007 0.27386 0.30877 0.0
H1090 H 0.73436 0.28781 0.29146 0.0
H1091 H 0.76972 0.28321 0.26286 0.0
H1092 H 0.79116 0.22321 0.22139 0.0
H1093 H 0.75754 0.20903 0.23975 0.0
C1094 C 0.72468 0.22983 0.2729 0.0
C1095 C 0.70881 0.24271 0.28924 0.0
C1096 C 0.7441 0.23786 0.26233 0.0
C1097 C 0.71267 0.26359 0.29617 0.0
C1098 C 0.73191 0.27163 0.28613 0.0
C1099 C 0.76698 0.26706 0.25757 0.0
C1100 C 0.78284 0.25432 0.24055 0.0
C1101 C 0.74769 0.25896 0.26871 0.0
C1102 C 0.77915 0.23337 0.23433 0.0
C1103 C 0.75995 0.22522 0.24496 0.0
H1104 H 0.71298 0.76287 0.77019 0.0
H1105 H 0.72437 0.69818 0.7711 0.0
H1106 H 0.76066 0.70444 0.78448 0.0
H1107 H 0.78909 0.7282 0.79304 0.0
H1108 H 0.778 0.79292 0.79112 0.0
H1109 H 0.74146 0.78672 0.78124 0.0
C1110 C 0.7234 0.75013 0.77351 0.0
C1111 C 0.71604 0.73008 0.76949 0.0
C1112 C 0.74421 0.75385 0.78095 0.0
C1113 C 0.72969 0.71374 0.77397 0.0
C1114 C 0.75042 0.71731 0.78159 0.0
C1115 C 0.77869 0.74098 0.79071 0.0
C1116 C 0.78621 0.761 0.79265 0.0
C1117 C 0.75783 0.73729 0.7847 0.0
C1118 C 0.77255 0.77738 0.7897 0.0
C1119 C 0.75169 0.77383 0.78396 0.0
H1120 H 0.47288 0.55141 0.49316 0.0
H1121 H 0.5372 0.53843 0.4993 0.0
H1122 H 0.53011 0.50201 0.49185 0.0
H1123 H 0.50564 0.47398 0.48546 0.0
H1124 H 0.44131 0.48694 0.47987 0.0
H1125 H 0.44843 0.52342 0.48533 0.0
C1126 C 0.48537 0.54062 0.49267 0.0
C1127 C 0.50554 0.54757 0.49683 0.0
C1128 C 0.48117 0.51977 0.48868 0.0
C1129 C 0.52155 0.53343 0.49615 0.0
C1130 C 0.5175 0.51263 0.49197 0.0
C1131 C 0.49316 0.48479 0.48539 0.0
C1132 C 0.47296 0.47781 0.48242 0.0
C1133 C 0.49737 0.50565 0.48855 0.0
C1134 C 0.45697 0.49196 0.48221 0.0
C1135 C 0.46104 0.51279 0.48531 0.0
H1136 H 0.96396 0.4788 0.99668 0.0
H1137 H 0.02112 0.44913 0.03004 0.0
H1138 H 0.03913 0.48122 0.01862 0.0
H1139 H 0.03879 0.51773 0.9988 0.0
H1140 H 0.98185 0.54751 0.96391 0.0
H1141 H 0.96368 0.51545 0.97602 0.0
C1142 C 0.98033 0.47942 0.00161 0.0
C1143 C 0.99116 0.46164 0.01425 0.0
C1144 C 0.99068 0.49793 0.99449 0.0
C1145 C 0.01241 0.46261 0.02024 0.0
C1146 C 0.02275 0.48095 0.0137 0.0
C1147 C 0.02242 0.51718 0.99375 0.0
C1148 C 0.0117 0.53494 0.98048 0.0
C1149 C 0.01206 0.4987 0.00068 0.0
C1150 C 0.99047 0.53401 0.97405 0.0
C1151 C 0.98005 0.5157 0.98106 0.0
H1152 H 0.52743 0.47733 0.00044 0.0
H1153 H 0.46612 0.45474 0.9836 0.0
H1154 H 0.45263 0.48886 0.99637 0.0
H1155 H 0.45805 0.52525 0.01109 0.0
H1156 H 0.51917 0.54837 0.0258 0.0
H1157 H 0.53286 0.51402 0.01551 0.0
C1158 C 0.51114 0.47992 0.99952 0.0
C1159 C 0.49784 0.46354 0.99096 0.0
C1160 C 0.5034 0.49969 0.00672 0.0
C1161 C 0.47674 0.4671 0.98995 0.0
C1162 C 0.46896 0.48662 0.99736 0.0
C1163 C 0.47435 0.52274 0.0124 0.0
C1164 C 0.48756 0.53928 0.01926 0.0
C1165 C 0.48213 0.50303 0.0057 0.0
C1166 C 0.50867 0.53584 0.0205 0.0
C1167 C 0.51652 0.51622 0.01455 0.0
H1168 H 0.03446 0.46917 0.49685 0.0
H1169 H 0.97207 0.45563 0.53704 0.0
H1170 H 0.96275 0.49115 0.52354 0.0
H1171 H 0.97222 0.52617 0.5001 0.0
H1172 H 0.03467 0.53988 0.46121 0.0
H1173 H 0.044 0.50428 0.47406 0.0
C1174 C 0.01886 0.47403 0.50284 0.0
C1175 C 0.00402 0.4598 0.51796 0.0
C1176 C 0.01356 0.49452 0.49494 0.0
C1177 C 0.98383 0.4663 0.52547 0.0
C1178 C 0.97844 0.48661 0.51764 0.0
C1179 C 0.98784 0.52132 0.4942 0.0
C1180 C 0.0027 0.5356 0.47961 0.0
C1181 C 0.99316 0.50085 0.50221 0.0
C1182 C 0.02292 0.52915 0.47246 0.0
C1183 C 0.02829 0.5088 0.47986 0.0
H1184 H 0.09426 0.12233 0.06731 0.0
H1185 H 0.04461 0.14659 0.16039 0.0
H1186 H 0.0681 0.16763 0.21114 0.0
H1187 H 0.10155 0.18243 0.2208 0.0
H1188 H 0.15137 0.1613 0.12339 0.0
H1189 H 0.12927 0.13537 0.08352 0.0
C1190 C 0.08879 0.13201 0.09931 0.0
C1191 C 0.06784 0.13325 0.10981 0.0
C1192 C 0.10236 0.14465 0.12731 0.0
C1193 C 0.06071 0.14576 0.15119 0.0
C1194 C 0.0741 0.15772 0.1803 0.0
C1195 C 0.1077 0.17192 0.19152 0.0
C1196 C 0.12791 0.17391 0.17445 0.0
C1197 C 0.0948 0.1578 0.16744 0.0
C1198 C 0.13578 0.16006 0.13701 0.0
C1199 C 0.1231 0.14537 0.1139 0.0
H1200 H 0.13272 0.82334 0.32112 0.0
H1201 H 0.0876 0.77845 0.36424 0.0
H1202 H 0.06928 0.80352 0.41639 0.0
H1203 H 0.06458 0.83815 0.44517 0.0
H1204 H 0.10701 0.8848 0.39789 0.0
H1205 H 0.12824 0.85903 0.35346 0.0
C1206 C 0.11887 0.81915 0.34197 0.0
C1207 C 0.11139 0.79913 0.33817 0.0
C1208 C 0.10806 0.83387 0.37157 0.0
C1209 C 0.09352 0.79382 0.36567 0.0
C1210 C 0.08308 0.8081 0.39591 0.0
C1211 C 0.07861 0.84274 0.42574 0.0
C1212 C 0.08417 0.86334 0.42455 0.0
C1213 C 0.09004 0.82816 0.39852 0.0
C1214 C 0.10246 0.86898 0.39954 0.0
C1215 C 0.11445 0.85428 0.37366 0.0
H1216 H 0.38228 0.81162 0.59018 0.0
H1217 H 0.36054 0.85523 0.70521 0.0
H1218 H 0.38035 0.88219 0.66098 0.0
H1219 H 0.4075 0.89174 0.59682 0.0
H1220 H 0.42913 0.84711 0.48379 0.0
H1221 H 0.40524 0.82217 0.51909 0.0
C1222 C 0.38173 0.82711 0.60518 0.0
C1223 C 0.37047 0.83152 0.65131 0.0
C1224 C 0.39306 0.84226 0.57978 0.0
C1225 C 0.36934 0.8516 0.66988 0.0
C1226 C 0.38068 0.86692 0.6447 0.0
C1227 C 0.40652 0.87675 0.57897 0.0
C1228 C 0.42018 0.87115 0.53819 0.0
C1229 C 0.3931 0.86225 0.60056 0.0
C1230 C 0.41887 0.85167 0.51548 0.0
C1231 C 0.40531 0.83738 0.53584 0.0
H1232 H 0.43044 0.12259 0.85903 0.0
H1233 H 0.38569 0.107 0.97759 0.0
H1234 H 0.36002 0.12742 0.92999 0.0
H1235 H 0.35198 0.15291 0.85998 0.0
H1236 H 0.39779 0.16847 0.74346 0.0
H1237 H 0.42134 0.14425 0.7837 0.0
C1238 C 0.41496 0.1235 0.87388 0.0
C1239 C 0.40982 0.11373 0.92167 0.0
C1240 C 0.40056 0.1351 0.84642 0.0
C1241 C 0.38982 0.11464 0.94084 0.0
C1242 C 0.37525 0.12627 0.91366 0.0
C1243 C 0.36688 0.15046 0.8425 0.0
C1244 C 0.37324 0.16243 0.79899 0.0
C1245 C 0.3806 0.13697 0.86703 0.0
C1246 C 0.39265 0.15941 0.77701 0.0
C1247 C 0.40615 0.14571 0.80023 0.0
H1248 H 0.87018 0.83664 0.85315 0.0
H1249 H 0.91677 0.79395 0.80559 0.0
H1250 H 0.943 0.81681 0.83827 0.0
H1251 H 0.95278 0.8481 0.88286 0.0
H1252 H 0.90709 0.8918 0.929 0.0
H1253 H 0.88035 0.8693 0.89464 0.0
C1254 C 0.88608 0.83249 0.84949 0.0
C1255 C 0.89152 0.81361 0.8272 0.0
C1256 C 0.9012 0.84573 0.86862 0.0
C1257 C 0.91217 0.80838 0.82269 0.0
C1258 C 0.92721 0.82139 0.84154 0.0
C1259 C 0.93696 0.85268 0.8857 0.0
C1260 C 0.93183 0.8714 0.909 0.0
C1261 C 0.92187 0.83993 0.8652 0.0
C1262 C 0.91133 0.87734 0.91149 0.0
C1263 C 0.89609 0.86452 0.89177 0.0
H1264 H 0.9432 0.13836 0.63089 0.0
H1265 H 0.89609 0.10515 0.54944 0.0
H1266 H 0.86997 0.1247 0.59809 0.0
H1267 H 0.86112 0.15354 0.65811 0.0
H1268 H 0.90927 0.18547 0.73989 0.0
H1269 H 0.93453 0.16359 0.69797 0.0
C1270 C 0.92717 0.1354 0.62385 0.0
C1271 C 0.92139 0.12088 0.58586 0.0
C1272 C 0.91255 0.14628 0.65246 0.0
C1273 C 0.90072 0.11659 0.57808 0.0
C1274 C 0.88589 0.1277 0.60593 0.0
C1275 C 0.8771 0.15532 0.66771 0.0
C1276 C 0.88338 0.17121 0.70158 0.0
C1277 C 0.89166 0.14286 0.64258 0.0
C1278 C 0.90411 0.17344 0.71363 0.0
C1279 C 0.91857 0.16104 0.68943 0.0
H1280 H 0.62987 0.15923 0.38166 0.0
H1281 H 0.58891 0.1847 0.2648 0.0
H1282 H 0.56183 0.16233 0.29524 0.0
H1283 H 0.54855 0.13904 0.36186 0.0
H1284 H 0.58832 0.1129 0.4799 0.0
H1285 H 0.61724 0.13192 0.44222 0.0
C1286 C 0.61516 0.15945 0.36213 0.0
C1287 C 0.61126 0.17374 0.32154 0.0
C1288 C 0.59941 0.14674 0.38064 0.0
C1289 C 0.59216 0.17398 0.29653 0.0
C1290 C 0.57665 0.16126 0.314 0.0
C1291 C 0.56362 0.13738 0.37902 0.0
C1292 C 0.56639 0.12504 0.42402 0.0
C1293 C 0.5799 0.1482 0.35723 0.0
C1294 C 0.58595 0.12252 0.44534 0.0
C1295 C 0.60239 0.13341 0.4239 0.0
H1296 H 0.55975 0.85828 0.14577 0.0
H1297 H 0.60568 0.87894 0.03574 0.0
H1298 H 0.63132 0.85806 0.0819 0.0
H1299 H 0.63919 0.83068 0.14715 0.0
H1300 H 0.59235 0.81077 0.25621 0.0
H1301 H 0.56857 0.83503 0.21767 0.0
C1302 C 0.57545 0.85835 0.13228 0.0
C1303 C 0.5809 0.86966 0.08706 0.0
C1304 C 0.58987 0.84651 0.15894 0.0
C1305 C 0.60126 0.87013 0.07039 0.0
C1306 C 0.61582 0.85818 0.09668 0.0
C1307 C 0.62395 0.83208 0.16332 0.0
C1308 C 0.61742 0.81879 0.20398 0.0
C1309 C 0.61015 0.84586 0.14017 0.0
C1310 C 0.59764 0.8207 0.22459 0.0
C1311 C 0.584 0.83449 0.20242 0.0
H1312 H 0.57949 0.61699 0.61612 0.0
H1313 H 0.56255 0.66476 0.50644 0.0
H1314 H 0.58749 0.68741 0.54634 0.0
H1315 H 0.61099 0.69497 0.61821 0.0
H1316 H 0.62897 0.64815 0.72881 0.0
H1317 H 0.60675 0.62362 0.68273 0.0
C1318 C 0.58163 0.6322 0.60034 0.0
C1319 C 0.56905 0.63932 0.55893 0.0
C1320 C 0.59585 0.64536 0.62418 0.0
C1321 C 0.57192 0.65904 0.53869 0.0
C1322 C 0.58611 0.67203 0.56157 0.0
C1323 C 0.61009 0.67934 0.63207 0.0
C1324 C 0.62106 0.67334 0.67731 0.0
C1325 C 0.59758 0.66557 0.6054 0.0
C1326 C 0.62037 0.65302 0.69423 0.0
C1327 C 0.6077 0.63909 0.66797 0.0
H1328 H 0.58332 0.38823 0.90413 0.0
H1329 H 0.55314 0.34053 0.99225 0.0
H1330 H 0.57581 0.31529 0.95327 0.0
H1331 H 0.60195 0.30636 0.88908 0.0
H1332 H 0.63326 0.35309 0.80071 0.0
H1333 H 0.61228 0.37927 0.84454 0.0
C1334 C 0.58208 0.37238 0.91564 0.0
C1335 C 0.56655 0.36619 0.95079 0.0
C1336 C 0.59499 0.3578 0.89217 0.0
C1337 C 0.56494 0.34561 0.96511 0.0
C1338 C 0.5778 0.33116 0.94261 0.0
C1339 C 0.60413 0.32228 0.87912 0.0
C1340 C 0.61869 0.32785 0.84084 0.0
C1341 C 0.59241 0.33701 0.90499 0.0
C1342 C 0.62187 0.34852 0.82957 0.0
C1343 C 0.60995 0.36342 0.85474 0.0
H1344 H 0.85161 0.33921 0.12839 0.0
H1345 H 0.89291 0.32684 0.2581 0.0
H1346 H 0.9161 0.35298 0.22557 0.0
H1347 H 0.92711 0.37504 0.15293 0.0
H1348 H 0.88757 0.38641 0.01948 0.0
H1349 H 0.861 0.36515 0.06063 0.0
C1350 C 0.86541 0.34272 0.15021 0.0
C1351 C 0.87071 0.3311 0.19526 0.0
C1352 C 0.87905 0.35733 0.13011 0.0
C1353 C 0.88867 0.33554 0.22309 0.0
C1354 C 0.90195 0.35041 0.20444 0.0
C1355 C 0.91242 0.37323 0.1337 0.0
C1356 C 0.90907 0.38207 0.08366 0.0
C1357 C 0.89768 0.36073 0.15688 0.0
C1358 C 0.89022 0.37974 0.05839 0.0
C1359 C 0.87518 0.3675 0.08173 0.0
H1360 H 0.92195 0.60928 0.39057 0.0
H1361 H 0.95172 0.65938 0.47014 0.0
H1362 H 0.92644 0.68285 0.43555 0.0
H1363 H 0.8976 0.68968 0.37879 0.0
H1364 H 0.86643 0.64073 0.2989 0.0
H1365 H 0.89058 0.61613 0.33758 0.0
C1366 C 0.92266 0.62529 0.40085 0.0
C1367 C 0.93878 0.63263 0.43247 0.0
C1368 C 0.90807 0.63887 0.38027 0.0
C1369 C 0.93958 0.65338 0.44555 0.0
C1370 C 0.92516 0.66684 0.4257 0.0
C1371 C 0.89609 0.67362 0.36953 0.0
C1372 C 0.88062 0.667 0.33518 0.0
C1373 C 0.90969 0.65983 0.39216 0.0
C1374 C 0.87843 0.64613 0.32484 0.0
C1375 C 0.8922 0.63214 0.34697 0.0
H1376 H 0.36181 0.33699 0.35051 0.0
H1377 H 0.41422 0.30716 0.28176 0.0
H1378 H 0.43655 0.33236 0.32161 0.0
H1379 H 0.44155 0.36096 0.38098 0.0
H1380 H 0.39013 0.39218 0.44949 0.0
H1381 H 0.36688 0.36827 0.40475 0.0
C1382 C 0.37808 0.33627 0.34363 0.0
C1383 C 0.3864 0.32014 0.31377 0.0
C1384 C 0.39096 0.35078 0.36723 0.0
C1385 C 0.40748 0.31933 0.305 0.0
C1386 C 0.42028 0.33367 0.3279 0.0
C1387 C 0.42523 0.36249 0.38635 0.0
C1388 C 0.41745 0.37785 0.41935 0.0
C1389 C 0.41223 0.34907 0.36013 0.0
C1390 C 0.39635 0.38019 0.42467 0.0
C1391 C 0.38314 0.36659 0.39909 0.0
H1392 H 0.35601 0.66707 0.13796 0.0
H1393 H 0.40459 0.69908 0.21789 0.0
H1394 H 0.42936 0.67543 0.18113 0.0
H1395 H 0.43767 0.64794 0.12 0.0
H1396 H 0.39004 0.61459 0.04106 0.0
H1397 H 0.36429 0.63649 0.0837 0.0
C1398 C 0.37197 0.66859 0.14805 0.0
C1399 C 0.3785 0.68495 0.18004 0.0
C1400 C 0.38626 0.65497 0.1263 0.0
C1401 C 0.3992 0.68673 0.19301 0.0
C1402 C 0.4134 0.67328 0.17184 0.0
C1403 C 0.42161 0.64548 0.11218 0.0
C1404 C 0.41561 0.63016 0.07666 0.0
C1405 C 0.40716 0.65778 0.13725 0.0
C1406 C 0.39486 0.62656 0.06791 0.0
C1407 C 0.38024 0.63904 0.09225 0.0
H1408 H 0.0951 0.598 0.86135 0.0
H1409 H 0.10835 0.62215 0.01722 0.0
H1410 H 0.136 0.64271 0.97984 0.0
H1411 H 0.1514 0.65851 0.90099 0.0
H1412 H 0.13311 0.63919 0.74394 0.0
H1413 H 0.11271 0.61174 0.78288 0.0
C1414 C 0.10464 0.60718 0.88721 0.0
C1415 C 0.10012 0.60843 0.94187 0.0
C1416 C 0.11937 0.62002 0.86477 0.0
C1417 C 0.11191 0.62085 0.97511 0.0
C1418 C 0.12754 0.63269 0.95364 0.0
C1419 C 0.14355 0.64777 0.8754 0.0
C1420 C 0.14384 0.65056 0.81984 0.0
C1421 C 0.13075 0.63308 0.89823 0.0
C1422 C 0.13316 0.63707 0.78683 0.0
C1423 C 0.12141 0.62153 0.80912 0.0
H1424 H 0.08358 0.38236 0.5969 0.0
H1425 H 0.05452 0.33611 0.50137 0.0
H1426 H 0.07813 0.31065 0.53513 0.0
H1427 H 0.10403 0.30075 0.59906 0.0
H1428 H 0.13371 0.34595 0.69606 0.0
H1429 H 0.11288 0.37277 0.65446 0.0
C1430 C 0.0828 0.36681 0.58259 0.0
C1431 C 0.06724 0.36103 0.5471 0.0
C1432 C 0.09621 0.35207 0.60318 0.0
C1433 C 0.06627 0.34085 0.52898 0.0
C1434 C 0.07969 0.32627 0.54844 0.0
C1435 C 0.10599 0.31651 0.61097 0.0
C1436 C 0.11991 0.32146 0.65128 0.0
C1437 C 0.09417 0.33158 0.58689 0.0
C1438 C 0.12284 0.34189 0.6654 0.0
C1439 C 0.11094 0.35714 0.64167 0.0
loop_
_geom_bond_atom_site_label_1
_geom_bond_atom_site_label_2
_geom_bond_distance
_geom_bond_site_symmetry_2
_ccdc_geom_bond_type
In0 O1 2.294 . S
In0 O2 2.326 . S
In0 O6 2.266 . S
In0 O7 2.326 1_455 S
In0 O8 2.266 1_455 S
In0 O9 2.326 1_554 S
In0 O11 2.294 1_455 S
In0 O12 2.326 . S
O1 In0 2.294 . S
O1 C10 1.240 . S
O2 In0 2.326 . S
O2 C10 1.252 . S
C3 O6 1.252 . S
C3 O7 1.260 1_455 S
C4 O11 1.240 1_455 S
C4 O12 1.252 . S
C5 O8 1.252 1_456 S
C5 O9 1.260 . S
O6 In0 2.266 . S
O6 C3 1.252 . S
O7 In0 2.326 1_655 S
O7 C3 1.260 1_655 S
O8 In0 2.266 1_655 S
O8 C5 1.252 1_654 S
O9 In0 2.326 1_556 S
O9 C5 1.260 . S
C10 O1 1.240 . S
C10 O2 1.252 . S
O11 In0 2.294 1_655 S
O11 C4 1.240 1_655 S
O12 In0 2.326 . S
O12 C4 1.252 . S
In13 O14 2.294 . S
In13 O15 2.326 . S
In13 O19 2.266 . S
In13 O20 2.326 . S
In13 O21 2.266 . S
In13 O22 2.326 . S
In13 O24 2.294 . S
In13 O25 2.326 . S
O14 In13 2.294 . S
O14 C23 1.240 . S
O15 In13 2.326 . S
O15 C23 1.252 . S
C16 O19 1.252 . S
C16 O20 1.260 . S
C17 O24 1.240 . S
C17 O25 1.252 . S
C18 O21 1.252 . S
C18 O22 1.260 . S
O19 In13 2.266 . S
O19 C16 1.252 . S
O20 In13 2.326 . S
O20 C16 1.260 . S
O21 In13 2.266 . S
O21 C18 1.252 . S
O22 In13 2.326 . S
O22 C18 1.260 . S
C23 O14 1.240 . S
C23 O15 1.252 . S
O24 In13 2.294 . S
O24 C17 1.240 . S
O25 In13 2.326 . S
O25 C17 1.252 . S
In26 O27 2.294 . S
In26 O28 2.326 . S
In26 O32 2.266 . S
In26 O33 2.326 . S
In26 O34 2.266 . S
In26 O35 2.326 . S
In26 O37 2.294 . S
In26 O38 2.326 . S
O27 In26 2.294 . S
O27 C36 1.240 . S
O28 In26 2.326 . S
O28 C36 1.252 . S
C29 O32 1.252 . S
C29 O33 1.260 . S
C30 O37 1.240 . S
C30 O38 1.252 . S
C31 O34 1.252 . S
C31 O35 1.260 . S
O32 In26 2.266 . S
O32 C29 1.252 . S
O33 In26 2.326 . S
O33 C29 1.260 . S
O34 In26 2.266 . S
O34 C31 1.252 . S
O35 In26 2.326 . S
O35 C31 1.260 . S
C36 O27 1.240 . S
C36 O28 1.252 . S
O37 In26 2.294 . S
O37 C30 1.240 . S
O38 In26 2.326 . S
O38 C30 1.252 . S
In39 O40 2.294 . S
In39 O41 2.326 . S
In39 O45 2.266 . S
In39 O46 2.326 . S
In39 O47 2.266 . S
In39 O48 2.326 . S
In39 O50 2.294 . S
In39 O51 2.326 . S
O40 In39 2.294 . S
O40 C49 1.240 . S
O41 In39 2.326 . S
O41 C49 1.252 . S
C42 O45 1.252 . S
C42 O46 1.260 . S
C43 O50 1.240 . S
C43 O51 1.252 . S
C44 O47 1.252 . S
C44 O48 1.260 . S
O45 In39 2.266 . S
O45 C42 1.252 . S
O46 In39 2.326 . S
O46 C42 1.260 . S
O47 In39 2.266 . S
O47 C44 1.252 . S
O48 In39 2.326 . S
O48 C44 1.260 . S
C49 O40 1.240 . S
C49 O41 1.252 . S
O50 In39 2.294 . S
O50 C43 1.240 . S
O51 In39 2.326 . S
O51 C43 1.252 . S
In52 O53 2.294 . S
In52 O54 2.326 . S
In52 O58 2.266 . S
In52 O59 2.326 1_455 S
In52 O60 2.266 1_455 S
In52 O61 2.326 . S
In52 O63 2.294 1_455 S
In52 O64 2.326 . S
O53 In52 2.294 . S
O53 C62 1.240 . S
O54 In52 2.326 . S
O54 C62 1.252 . S
C55 O58 1.252 . S
C55 O59 1.260 1_455 S
C56 O63 1.240 1_455 S
C56 O64 1.252 . S
C57 O60 1.252 1_455 S
C57 O61 1.260 . S
O58 In52 2.266 . S
O58 C55 1.252 . S
O59 In52 2.326 1_655 S
O59 C55 1.260 1_655 S
O60 In52 2.266 1_655 S
O60 C57 1.252 1_655 S
O61 In52 2.326 . S
O61 C57 1.260 . S
C62 O53 1.240 . S
C62 O54 1.252 . S
O63 In52 2.294 1_655 S
O63 C56 1.240 1_655 S
O64 In52 2.326 . S
O64 C56 1.252 . S
In65 O66 2.294 . S
In65 O67 2.326 . S
In65 O71 2.266 . S
In65 O72 2.326 . S
In65 O73 2.266 . S
In65 O74 2.326 . S
In65 O76 2.294 . S
In65 O77 2.326 . S
O66 In65 2.294 . S
O66 C75 1.240 . S
O67 In65 2.326 . S
O67 C75 1.252 . S
C68 O71 1.252 . S
C68 O72 1.260 . S
C69 O76 1.240 . S
C69 O77 1.252 . S
C70 O73 1.252 . S
C70 O74 1.260 . S
O71 In65 2.266 . S
O71 C68 1.252 . S
O72 In65 2.326 . S
O72 C68 1.260 . S
O73 In65 2.266 . S
O73 C70 1.252 . S
O74 In65 2.326 . S
O74 C70 1.260 . S
C75 O66 1.240 . S
C75 O67 1.252 . S
O76 In65 2.294 . S
O76 C69 1.240 . S
O77 In65 2.326 . S
O77 C69 1.252 . S
In78 O79 2.294 . S
In78 O80 2.326 . S
In78 O84 2.266 . S
In78 O85 2.326 1_556 S
In78 O86 2.266 . S
In78 O87 2.326 . S
In78 O89 2.294 . S
In78 O90 2.326 . S
O79 In78 2.294 . S
O79 C88 1.240 . S
O80 In78 2.326 . S
O80 C88 1.252 . S
C81 O84 1.252 1_554 S
C81 O85 1.260 . S
C82 O89 1.240 . S
C82 O90 1.252 . S
C83 O86 1.252 . S
C83 O87 1.260 . S
O84 In78 2.266 . S
O84 C81 1.252 1_556 S
O85 In78 2.326 1_554 S
O85 C81 1.260 . S
O86 In78 2.266 . S
O86 C83 1.252 . S
O87 In78 2.326 . S
O87 C83 1.260 . S
C88 O79 1.240 . S
C88 O80 1.252 . S
O89 In78 2.294 . S
O89 C82 1.240 . S
O90 In78 2.326 . S
O90 C82 1.252 . S
In91 O92 2.294 . S
In91 O93 2.326 . S
In91 O97 2.266 . S
In91 O98 2.326 . S
In91 O99 2.266 . S
In91 O100 2.326 . S
In91 O102 2.294 . S
In91 O103 2.326 . S
O92 In91 2.294 . S
O92 C101 1.240 . S
O93 In91 2.326 . S
O93 C101 1.252 . S
C94 O97 1.252 . S
C94 O98 1.260 . S
C95 O102 1.240 . S
C95 O103 1.252 . S
C96 O99 1.252 . S
C96 O100 1.260 . S
O97 In91 2.266 . S
O97 C94 1.252 . S
O98 In91 2.326 . S
O98 C94 1.260 . S
O99 In91 2.266 . S
O99 C96 1.252 . S
O100 In91 2.326 . S
O100 C96 1.260 . S
C101 O92 1.240 . S
C101 O93 1.252 . S
O102 In91 2.294 . S
O102 C95 1.240 . S
O103 In91 2.326 . S
O103 C95 1.252 . S
In104 O105 2.294 1_655 S
In104 O106 2.326 . S
In104 O110 2.266 1_655 S
In104 O111 2.326 1_556 S
In104 O112 2.266 . S
In104 O113 2.326 1_655 S
In104 O115 2.294 . S
In104 O116 2.326 . S
O105 In104 2.294 1_455 S
O105 C114 1.240 1_455 S
O106 In104 2.326 . S
O106 C114 1.252 . S
C107 O110 1.252 1_654 S
C107 O111 1.260 . S
C108 O115 1.240 . S
C108 O116 1.252 . S
C109 O112 1.252 . S
C109 O113 1.260 1_655 S
O110 In104 2.266 1_455 S
O110 C107 1.252 1_456 S
O111 In104 2.326 1_554 S
O111 C107 1.260 . S
O112 In104 2.266 . S
O112 C109 1.252 . S
O113 In104 2.326 1_455 S
O113 C109 1.260 1_455 S
C114 O105 1.240 1_655 S
C114 O106 1.252 . S
O115 In104 2.294 . S
O115 C108 1.240 . S
O116 In104 2.326 . S
O116 C108 1.252 . S
In117 O118 2.294 . S
In117 O119 2.326 . S
In117 O123 2.266 . S
In117 O124 2.326 . S
In117 O125 2.266 . S
In117 O126 2.326 . S
In117 O128 2.294 . S
In117 O129 2.326 . S
O118 In117 2.294 . S
O118 C127 1.240 . S
O119 In117 2.326 . S
O119 C127 1.252 . S
C120 O123 1.252 . S
C120 O124 1.260 . S
C121 O128 1.240 . S
C121 O129 1.252 . S
C122 O125 1.252 . S
C122 O126 1.260 . S
O123 In117 2.266 . S
O123 C120 1.252 . S
O124 In117 2.326 . S
O124 C120 1.260 . S
O125 In117 2.266 . S
O125 C122 1.252 . S
O126 In117 2.326 . S
O126 C122 1.260 . S
C127 O118 1.240 . S
C127 O119 1.252 . S
O128 In117 2.294 . S
O128 C121 1.240 . S
O129 In117 2.326 . S
O129 C121 1.252 . S
In130 O131 2.294 . S
In130 O132 2.326 . S
In130 O136 2.266 . S
In130 O137 2.326 . S
In130 O138 2.266 . S
In130 O139 2.326 . S
In130 O141 2.294 . S
In130 O142 2.326 . S
O131 In130 2.294 . S
O131 C140 1.240 . S
O132 In130 2.326 . S
O132 C140 1.252 . S
C133 O136 1.252 . S
C133 O137 1.260 . S
C134 O141 1.240 . S
C134 O142 1.252 . S
C135 O138 1.252 . S
C135 O139 1.260 . S
O136 In130 2.266 . S
O136 C133 1.252 . S
O137 In130 2.326 . S
O137 C133 1.260 . S
O138 In130 2.266 . S
O138 C135 1.252 . S
O139 In130 2.326 . S
O139 C135 1.260 . S
C140 O131 1.240 . S
C140 O132 1.252 . S
O141 In130 2.294 . S
O141 C134 1.240 . S
O142 In130 2.326 . S
O142 C134 1.252 . S
In143 O144 2.294 . S
In143 O145 2.326 . S
In143 O149 2.266 . S
In143 O150 2.326 . S
In143 O151 2.266 . S
In143 O152 2.326 . S
In143 O154 2.294 . S
In143 O155 2.326 . S
O144 In143 2.294 . S
O144 C153 1.240 . S
O145 In143 2.326 . S
O145 C153 1.252 . S
C146 O149 1.252 . S
C146 O150 1.260 . S
C147 O154 1.240 . S
C147 O155 1.252 . S
C148 O151 1.252 . S
C148 O152 1.260 . S
O149 In143 2.266 . S
O149 C146 1.252 . S
O150 In143 2.326 . S
O150 C146 1.260 . S
O151 In143 2.266 . S
O151 C148 1.252 . S
O152 In143 2.326 . S
O152 C148 1.260 . S
C153 O144 1.240 . S
C153 O145 1.252 . S
O154 In143 2.294 . S
O154 C147 1.240 . S
O155 In143 2.326 . S
O155 C147 1.252 . S
In156 O157 2.294 . S
In156 O158 2.326 . S
In156 O162 2.266 . S
In156 O163 2.326 1_655 S
In156 O164 2.266 1_655 S
In156 O165 2.326 . S
In156 O167 2.294 1_655 S
In156 O168 2.326 . S
O157 In156 2.294 . S
O157 C166 1.240 . S
O158 In156 2.326 . S
O158 C166 1.252 . S
C159 O162 1.252 . S
C159 O163 1.260 1_655 S
C160 O167 1.240 1_655 S
C160 O168 1.252 . S
C161 O164 1.252 1_655 S
C161 O165 1.260 . S
O162 In156 2.266 . S
O162 C159 1.252 . S
O163 In156 2.326 1_455 S
O163 C159 1.260 1_455 S
O164 In156 2.266 1_455 S
O164 C161 1.252 1_455 S
O165 In156 2.326 . S
O165 C161 1.260 . S
C166 O157 1.240 . S
C166 O158 1.252 . S
O167 In156 2.294 1_455 S
O167 C160 1.240 1_455 S
O168 In156 2.326 . S
O168 C160 1.252 . S
In169 O170 2.294 . S
In169 O171 2.326 . S
In169 O175 2.266 . S
In169 O176 2.326 . S
In169 O177 2.266 . S
In169 O178 2.326 . S
In169 O180 2.294 . S
In169 O181 2.326 . S
O170 In169 2.294 . S
O170 C179 1.240 . S
O171 In169 2.326 . S
O171 C179 1.252 . S
C172 O175 1.252 . S
C172 O176 1.260 . S
C173 O180 1.240 . S
C173 O181 1.252 . S
C174 O177 1.252 . S
C174 O178 1.260 . S
O175 In169 2.266 . S
O175 C172 1.252 . S
O176 In169 2.326 . S
O176 C172 1.260 . S
O177 In169 2.266 . S
O177 C174 1.252 . S
O178 In169 2.326 . S
O178 C174 1.260 . S
C179 O170 1.240 . S
C179 O171 1.252 . S
O180 In169 2.294 . S
O180 C173 1.240 . S
O181 In169 2.326 . S
O181 C173 1.252 . S
In182 O183 2.294 . S
In182 O184 2.326 . S
In182 O188 2.266 . S
In182 O189 2.326 1_554 S
In182 O190 2.266 . S
In182 O191 2.326 . S
In182 O193 2.294 . S
In182 O194 2.326 . S
O183 In182 2.294 . S
O183 C192 1.240 . S
O184 In182 2.326 . S
O184 C192 1.252 . S
C185 O188 1.252 1_556 S
C185 O189 1.260 . S
C186 O193 1.240 . S
C186 O194 1.252 . S
C187 O190 1.252 . S
C187 O191 1.260 . S
O188 In182 2.266 . S
O188 C185 1.252 1_554 S
O189 In182 2.326 1_556 S
O189 C185 1.260 . S
O190 In182 2.266 . S
O190 C187 1.252 . S
O191 In182 2.326 . S
O191 C187 1.260 . S
C192 O183 1.240 . S
C192 O184 1.252 . S
O193 In182 2.294 . S
O193 C186 1.240 . S
O194 In182 2.326 . S
O194 C186 1.252 . S
In195 O196 2.294 . S
In195 O197 2.326 . S
In195 O201 2.266 . S
In195 O202 2.326 . S
In195 O203 2.266 . S
In195 O204 2.326 . S
In195 O206 2.294 . S
In195 O207 2.326 . S
O196 In195 2.294 . S
O196 C205 1.240 . S
O197 In195 2.326 . S
O197 C205 1.252 . S
C198 O201 1.252 . S
C198 O202 1.260 . S
C199 O206 1.240 . S
C199 O207 1.252 . S
C200 O203 1.252 . S
C200 O204 1.260 . S
O201 In195 2.266 . S
O201 C198 1.252 . S
O202 In195 2.326 . S
O202 C198 1.260 . S
O203 In195 2.266 . S
O203 C200 1.252 . S
O204 In195 2.326 . S
O204 C200 1.260 . S
C205 O196 1.240 . S
C205 O197 1.252 . S
O206 In195 2.294 . S
O206 C199 1.240 . S
O207 In195 2.326 . S
O207 C199 1.252 . S
In208 O209 2.294 . S
In208 O210 2.326 . S
In208 O214 2.266 . S
In208 O215 2.326 . S
In208 O216 2.266 . S
In208 O217 2.326 . S
In208 O219 2.294 . S
In208 O220 2.326 . S
O209 In208 2.294 . S
O209 C218 1.240 . S
O210 In208 2.326 . S
O210 C218 1.252 . S
C211 O214 1.252 . S
C211 O215 1.260 . S
C212 O219 1.240 . S
C212 O220 1.252 . S
C213 O216 1.252 . S
C213 O217 1.260 . S
O214 In208 2.266 . S
O214 C211 1.252 . S
O215 In208 2.326 . S
O215 C211 1.260 . S
O216 In208 2.266 . S
O216 C213 1.252 . S
O217 In208 2.326 . S
O217 C213 1.260 . S
C218 O209 1.240 . S
C218 O210 1.252 . S
O219 In208 2.294 . S
O219 C212 1.240 . S
O220 In208 2.326 . S
O220 C212 1.252 . S
In221 O222 2.294 . S
In221 O223 2.326 . S
In221 O227 2.266 . S
In221 O228 2.326 . S
In221 O229 2.266 . S
In221 O230 2.326 . S
In221 O232 2.294 . S
In221 O233 2.326 . S
O222 In221 2.294 . S
O222 C231 1.240 . S
O223 In221 2.326 . S
O223 C231 1.252 . S
C224 O227 1.252 . S
C224 O228 1.260 . S
C225 O232 1.240 . S
C225 O233 1.252 . S
C226 O229 1.252 . S
C226 O230 1.260 . S
O227 In221 2.266 . S
O227 C224 1.252 . S
O228 In221 2.326 . S
O228 C224 1.260 . S
O229 In221 2.266 . S
O229 C226 1.252 . S
O230 In221 2.326 . S
O230 C226 1.260 . S
C231 O222 1.240 . S
C231 O223 1.252 . S
O232 In221 2.294 . S
O232 C225 1.240 . S
O233 In221 2.326 . S
O233 C225 1.252 . S
In234 O235 2.294 1_655 S
In234 O236 2.326 . S
In234 O240 2.266 1_655 S
In234 O241 2.326 1_554 S
In234 O242 2.266 . S
In234 O243 2.326 1_655 S
In234 O245 2.294 . S
In234 O246 2.326 . S
O235 In234 2.294 1_455 S
O235 C244 1.240 1_455 S
O236 In234 2.326 . S
O236 C244 1.252 . S
C237 O240 1.252 1_656 S
C237 O241 1.260 . S
C238 O245 1.240 . S
C238 O246 1.252 . S
C239 O242 1.252 . S
C239 O243 1.260 1_655 S
O240 In234 2.266 1_455 S
O240 C237 1.252 1_454 S
O241 In234 2.326 1_556 S
O241 C237 1.260 . S
O242 In234 2.266 . S
O242 C239 1.252 . S
O243 In234 2.326 1_455 S
O243 C239 1.260 1_455 S
C244 O235 1.240 1_655 S
C244 O236 1.252 . S
O245 In234 2.294 . S
O245 C238 1.240 . S
O246 In234 2.326 . S
O246 C238 1.252 . S
In247 O248 2.294 . S
In247 O249 2.326 . S
In247 O253 2.266 . S
In247 O254 2.326 . S
In247 O255 2.266 . S
In247 O256 2.326 . S
In247 O258 2.294 . S
In247 O259 2.326 . S
O248 In247 2.294 . S
O248 C257 1.240 . S
O249 In247 2.326 . S
O249 C257 1.252 . S
C250 O253 1.252 . S
C250 O254 1.260 . S
C251 O258 1.240 . S
C251 O259 1.252 . S
C252 O255 1.252 . S
C252 O256 1.260 . S
O253 In247 2.266 . S
O253 C250 1.252 . S
O254 In247 2.326 . S
O254 C250 1.260 . S
O255 In247 2.266 . S
O255 C252 1.252 . S
O256 In247 2.326 . S
O256 C252 1.260 . S
C257 O248 1.240 . S
C257 O249 1.252 . S
O258 In247 2.294 . S
O258 C251 1.240 . S
O259 In247 2.326 . S
O259 C251 1.252 . S
In260 O261 2.294 . S
In260 O262 2.326 . S
In260 O266 2.266 . S
In260 O267 2.326 . S
In260 O268 2.266 . S
In260 O269 2.326 1_556 S
In260 O271 2.294 . S
In260 O272 2.326 . S
O261 In260 2.294 . S
O261 C270 1.240 . S
O262 In260 2.326 . S
O262 C270 1.252 . S
C263 O266 1.252 . S
C263 O267 1.260 . S
C264 O271 1.240 . S
C264 O272 1.252 . S
C265 O268 1.252 1_554 S
C265 O269 1.260 . S
O266 In260 2.266 . S
O266 C263 1.252 . S
O267 In260 2.326 . S
O267 C263 1.260 . S
O268 In260 2.266 . S
O268 C265 1.252 1_556 S
O269 In260 2.326 1_554 S
O269 C265 1.260 . S
C270 O261 1.240 . S
C270 O262 1.252 . S
O271 In260 2.294 . S
O271 C264 1.240 . S
O272 In260 2.326 . S
O272 C264 1.252 . S
In273 O274 2.294 . S
In273 O275 2.326 . S
In273 O279 2.266 . S
In273 O280 2.326 . S
In273 O281 2.266 . S
In273 O282 2.326 . S
In273 O284 2.294 . S
In273 O285 2.326 . S
O274 In273 2.294 . S
O274 C283 1.240 . S
O275 In273 2.326 . S
O275 C283 1.252 . S
C276 O279 1.252 . S
C276 O280 1.260 . S
C277 O284 1.240 . S
C277 O285 1.252 . S
C278 O281 1.252 . S
C278 O282 1.260 . S
O279 In273 2.266 . S
O279 C276 1.252 . S
O280 In273 2.326 . S
O280 C276 1.260 . S
O281 In273 2.266 . S
O281 C278 1.252 . S
O282 In273 2.326 . S
O282 C278 1.260 . S
C283 O274 1.240 . S
C283 O275 1.252 . S
O284 In273 2.294 . S
O284 C277 1.240 . S
O285 In273 2.326 . S
O285 C277 1.252 . S
In286 O287 2.294 . S
In286 O288 2.326 . S
In286 O292 2.266 . S
In286 O293 2.326 1_655 S
In286 O294 2.266 1_655 S
In286 O295 2.326 . S
In286 O297 2.294 1_655 S
In286 O298 2.326 . S
O287 In286 2.294 . S
O287 C296 1.240 . S
O288 In286 2.326 . S
O288 C296 1.252 . S
C289 O292 1.252 . S
C289 O293 1.260 1_655 S
C290 O297 1.240 1_655 S
C290 O298 1.252 . S
C291 O294 1.252 1_655 S
C291 O295 1.260 . S
O292 In286 2.266 . S
O292 C289 1.252 . S
O293 In286 2.326 1_455 S
O293 C289 1.260 1_455 S
O294 In286 2.266 1_455 S
O294 C291 1.252 1_455 S
O295 In286 2.326 . S
O295 C291 1.260 . S
C296 O287 1.240 . S
C296 O288 1.252 . S
O297 In286 2.294 1_455 S
O297 C290 1.240 1_455 S
O298 In286 2.326 . S
O298 C290 1.252 . S
In299 O300 2.294 . S
In299 O301 2.326 . S
In299 O305 2.266 . S
In299 O306 2.326 . S
In299 O307 2.266 . S
In299 O308 2.326 . S
In299 O310 2.294 . S
In299 O311 2.326 . S
O300 In299 2.294 . S
O300 C309 1.240 . S
O301 In299 2.326 . S
O301 C309 1.252 . S
C302 O305 1.252 . S
C302 O306 1.260 . S
C303 O310 1.240 . S
C303 O311 1.252 . S
C304 O307 1.252 . S
C304 O308 1.260 . S
O305 In299 2.266 . S
O305 C302 1.252 . S
O306 In299 2.326 . S
O306 C302 1.260 . S
O307 In299 2.266 . S
O307 C304 1.252 . S
O308 In299 2.326 . S
O308 C304 1.260 . S
C309 O300 1.240 . S
C309 O301 1.252 . S
O310 In299 2.294 . S
O310 C303 1.240 . S
O311 In299 2.326 . S
O311 C303 1.252 . S
In312 O313 2.294 . S
In312 O314 2.326 . S
In312 O318 2.266 . S
In312 O319 2.326 . S
In312 O320 2.266 . S
In312 O321 2.326 . S
In312 O323 2.294 . S
In312 O324 2.326 . S
O313 In312 2.294 . S
O313 C322 1.240 . S
O314 In312 2.326 . S
O314 C322 1.252 . S
C315 O318 1.252 . S
C315 O319 1.260 . S
C316 O323 1.240 . S
C316 O324 1.252 . S
C317 O320 1.252 . S
C317 O321 1.260 . S
O318 In312 2.266 . S
O318 C315 1.252 . S
O319 In312 2.326 . S
O319 C315 1.260 . S
O320 In312 2.266 . S
O320 C317 1.252 . S
O321 In312 2.326 . S
O321 C317 1.260 . S
C322 O313 1.240 . S
C322 O314 1.252 . S
O323 In312 2.294 . S
O323 C316 1.240 . S
O324 In312 2.326 . S
O324 C316 1.252 . S
In325 O326 2.294 . S
In325 O327 2.326 . S
In325 O331 2.266 . S
In325 O332 2.326 . S
In325 O333 2.266 . S
In325 O334 2.326 . S
In325 O336 2.294 . S
In325 O337 2.326 . S
O326 In325 2.294 . S
O326 C335 1.240 . S
O327 In325 2.326 . S
O327 C335 1.252 . S
C328 O331 1.252 . S
C328 O332 1.260 . S
C329 O336 1.240 . S
C329 O337 1.252 . S
C330 O333 1.252 . S
C330 O334 1.260 . S
O331 In325 2.266 . S
O331 C328 1.252 . S
O332 In325 2.326 . S
O332 C328 1.260 . S
O333 In325 2.266 . S
O333 C330 1.252 . S
O334 In325 2.326 . S
O334 C330 1.260 . S
C335 O326 1.240 . S
C335 O327 1.252 . S
O336 In325 2.294 . S
O336 C329 1.240 . S
O337 In325 2.326 . S
O337 C329 1.252 . S
In338 O339 2.294 . S
In338 O340 2.326 . S
In338 O344 2.266 . S
In338 O345 2.326 1_455 S
In338 O346 2.266 1_455 S
In338 O347 2.326 1_556 S
In338 O349 2.294 1_455 S
In338 O350 2.326 . S
O339 In338 2.294 . S
O339 C348 1.240 . S
O340 In338 2.326 . S
O340 C348 1.252 . S
C341 O344 1.252 . S
C341 O345 1.260 1_455 S
C342 O349 1.240 1_455 S
C342 O350 1.252 . S
C343 O346 1.252 1_454 S
C343 O347 1.260 . S
O344 In338 2.266 . S
O344 C341 1.252 . S
O345 In338 2.326 1_655 S
O345 C341 1.260 1_655 S
O346 In338 2.266 1_655 S
O346 C343 1.252 1_656 S
O347 In338 2.326 1_554 S
O347 C343 1.260 . S
C348 O339 1.240 . S
C348 O340 1.252 . S
O349 In338 2.294 1_655 S
O349 C342 1.240 1_655 S
O350 In338 2.326 . S
O350 C342 1.252 . S
In351 O352 2.294 . S
In351 O353 2.326 . S
In351 O357 2.266 . S
In351 O358 2.326 . S
In351 O359 2.266 . S
In351 O360 2.326 . S
In351 O362 2.294 . S
In351 O363 2.326 . S
O352 In351 2.294 . S
O352 C361 1.240 . S
O353 In351 2.326 . S
O353 C361 1.252 . S
C354 O357 1.252 . S
C354 O358 1.260 . S
C355 O362 1.240 . S
C355 O363 1.252 . S
C356 O359 1.252 . S
C356 O360 1.260 . S
O357 In351 2.266 . S
O357 C354 1.252 . S
O358 In351 2.326 . S
O358 C354 1.260 . S
O359 In351 2.266 . S
O359 C356 1.252 . S
O360 In351 2.326 . S
O360 C356 1.260 . S
C361 O352 1.240 . S
C361 O353 1.252 . S
O362 In351 2.294 . S
O362 C355 1.240 . S
O363 In351 2.326 . S
O363 C355 1.252 . S
In364 O365 2.294 . S
In364 O366 2.326 . S
In364 O370 2.266 . S
In364 O371 2.326 . S
In364 O372 2.266 . S
In364 O373 2.326 1_554 S
In364 O375 2.294 . S
In364 O376 2.326 . S
O365 In364 2.294 . S
O365 C374 1.240 . S
O366 In364 2.326 . S
O366 C374 1.252 . S
C367 O370 1.252 . S
C367 O371 1.260 . S
C368 O375 1.240 . S
C368 O376 1.252 . S
C369 O372 1.252 1_556 S
C369 O373 1.260 . S
O370 In364 2.266 . S
O370 C367 1.252 . S
O371 In364 2.326 . S
O371 C367 1.260 . S
O372 In364 2.266 . S
O372 C369 1.252 1_554 S
O373 In364 2.326 1_556 S
O373 C369 1.260 . S
C374 O365 1.240 . S
C374 O366 1.252 . S
O375 In364 2.294 . S
O375 C368 1.240 . S
O376 In364 2.326 . S
O376 C368 1.252 . S
In377 O378 2.294 . S
In377 O379 2.326 . S
In377 O383 2.266 . S
In377 O384 2.326 . S
In377 O385 2.266 . S
In377 O386 2.326 . S
In377 O388 2.294 . S
In377 O389 2.326 . S
O378 In377 2.294 . S
O378 C387 1.240 . S
O379 In377 2.326 . S
O379 C387 1.252 . S
C380 O383 1.252 . S
C380 O384 1.260 . S
C381 O388 1.240 . S
C381 O389 1.252 . S
C382 O385 1.252 . S
C382 O386 1.260 . S
O383 In377 2.266 . S
O383 C380 1.252 . S
O384 In377 2.326 . S
O384 C380 1.260 . S
O385 In377 2.266 . S
O385 C382 1.252 . S
O386 In377 2.326 . S
O386 C382 1.260 . S
C387 O378 1.240 . S
C387 O379 1.252 . S
O388 In377 2.294 . S
O388 C381 1.240 . S
O389 In377 2.326 . S
O389 C381 1.252 . S
In390 O391 2.294 1_455 S
In390 O392 2.326 . S
In390 O396 2.266 1_455 S
In390 O397 2.326 . S
In390 O398 2.266 . S
In390 O399 2.326 1_455 S
In390 O401 2.294 . S
In390 O402 2.326 . S
O391 In390 2.294 1_655 S
O391 C400 1.240 1_655 S
O392 In390 2.326 . S
O392 C400 1.252 . S
C393 O396 1.252 1_455 S
C393 O397 1.260 . S
C394 O401 1.240 . S
C394 O402 1.252 . S
C395 O398 1.252 . S
C395 O399 1.260 1_455 S
O396 In390 2.266 1_655 S
O396 C393 1.252 1_655 S
O397 In390 2.326 . S
O397 C393 1.260 . S
O398 In390 2.266 . S
O398 C395 1.252 . S
O399 In390 2.326 1_655 S
O399 C395 1.260 1_655 S
C400 O391 1.240 1_455 S
C400 O392 1.252 . S
O401 In390 2.294 . S
O401 C394 1.240 . S
O402 In390 2.326 . S
O402 C394 1.252 . S
In403 O404 2.294 . S
In403 O405 2.326 . S
In403 O409 2.266 . S
In403 O410 2.326 . S
In403 O411 2.266 . S
In403 O412 2.326 . S
In403 O414 2.294 . S
In403 O415 2.326 . S
O404 In403 2.294 . S
O404 C413 1.240 . S
O405 In403 2.326 . S
O405 C413 1.252 . S
C406 O409 1.252 . S
C406 O410 1.260 . S
C407 O414 1.240 . S
C407 O415 1.252 . S
C408 O411 1.252 . S
C408 O412 1.260 . S
O409 In403 2.266 . S
O409 C406 1.252 . S
O410 In403 2.326 . S
O410 C406 1.260 . S
O411 In403 2.266 . S
O411 C408 1.252 . S
O412 In403 2.326 . S
O412 C408 1.260 . S
C413 O404 1.240 . S
C413 O405 1.252 . S
O414 In403 2.294 . S
O414 C407 1.240 . S
O415 In403 2.326 . S
O415 C407 1.252 . S
H416 C422 0.930 . S
H417 C425 0.930 . S
H418 C426 0.930 . S
H419 C427 0.930 . S
H420 C430 0.930 . S
H421 C431 0.930 . S
C422 H416 0.930 . S
C422 C423 1.329 1_455 S
C422 C424 1.415 . S
C423 C422 1.329 1_655 S
C423 C425 1.452 . S
C424 C422 1.415 . S
C424 C429 1.425 1_455 S
C424 C431 1.409 . S
C425 H417 0.930 . S
C425 C423 1.452 . S
C425 C426 1.362 . S
C426 H418 0.930 . S
C426 C425 1.362 . S
C426 C429 1.409 . S
C427 H419 0.930 . S
C427 C428 1.355 1_655 S
C427 C429 1.415 . S
C428 C427 1.355 1_455 S
C428 C430 1.419 . S
C429 C424 1.425 1_655 S
C429 C426 1.409 . S
C429 C427 1.415 . S
C430 H420 0.930 . S
C430 C428 1.419 . S
C430 C431 1.362 . S
C431 H421 0.930 . S
C431 C424 1.409 . S
C431 C430 1.362 . S
H432 C438 0.930 . S
H433 C441 0.930 . S
H434 C442 0.930 . S
H435 C443 0.930 . S
H436 C446 0.930 . S
H437 C447 0.930 . S
C438 H432 0.930 . S
C438 C439 1.355 . S
C438 C440 1.415 1_556 S
C439 C438 1.355 . S
C439 C441 1.419 . S
C440 C438 1.415 1_554 S
C440 C445 1.425 . S
C440 C447 1.409 . S
C441 H433 0.930 . S
C441 C439 1.419 . S
C441 C442 1.362 1_556 S
C442 H434 0.930 . S
C442 C441 1.362 1_554 S
C442 C445 1.409 . S
C443 H435 0.930 . S
C443 C444 1.355 . S
C443 C445 1.415 . S
C444 C443 1.355 . S
C444 C446 1.419 . S
C445 C440 1.425 . S
C445 C442 1.409 . S
C445 C443 1.415 . S
C446 H436 0.930 . S
C446 C444 1.419 . S
C446 C447 1.362 . S
C447 H437 0.930 . S
C447 C440 1.409 . S
C447 C446 1.362 . S
H448 C454 0.930 . S
H449 C457 0.930 . S
H450 C458 0.930 . S
H451 C459 0.930 . S
H452 C462 0.930 . S
H453 C463 0.930 . S
C454 H448 0.930 . S
C454 C455 1.355 . S
C454 C456 1.415 . S
C455 C454 1.355 . S
C455 C457 1.419 . S
C456 C454 1.415 . S
C456 C461 1.425 . S
C456 C463 1.409 . S
C457 H449 0.930 . S
C457 C455 1.419 . S
C457 C458 1.362 . S
C458 H450 0.930 . S
C458 C457 1.362 . S
C458 C461 1.409 . S
C459 H451 0.930 . S
C459 C460 1.355 . S
C459 C461 1.415 . S
C460 C459 1.355 . S
C460 C462 1.419 . S
C461 C456 1.425 . S
C461 C458 1.409 . S
C461 C459 1.415 . S
C462 H452 0.930 . S
C462 C460 1.419 . S
C462 C463 1.362 . S
C463 H453 0.930 . S
C463 C456 1.409 . S
C463 C462 1.362 . S
H464 C470 0.930 . S
H465 C473 0.930 . S
H466 C474 0.930 . S
H467 C475 0.930 . S
H468 C478 0.930 . S
H469 C479 0.930 . S
C470 H464 0.930 . S
C470 C471 1.355 . S
C470 C472 1.415 . S
C471 C470 1.355 . S
C471 C473 1.419 . S
C472 C470 1.415 . S
C472 C477 1.425 . S
C472 C479 1.409 . S
C473 H465 0.930 . S
C473 C471 1.419 . S
C473 C474 1.362 . S
C474 H466 0.930 . S
C474 C473 1.362 . S
C474 C477 1.409 . S
C475 H467 0.930 . S
C475 C476 1.355 . S
C475 C477 1.415 . S
C476 C475 1.355 . S
C476 C478 1.419 . S
C477 C472 1.425 . S
C477 C474 1.409 . S
C477 C475 1.415 . S
C478 H468 0.930 . S
C478 C476 1.419 . S
C478 C479 1.362 . S
C479 H469 0.930 . S
C479 C472 1.409 . S
C479 C478 1.362 . S
H480 C486 0.930 . S
H481 C489 0.930 . S
H482 C490 0.930 . S
H483 C491 0.930 . S
H484 C494 0.930 . S
H485 C495 0.930 . S
C486 H480 0.930 . S
C486 C487 1.355 . S
C486 C488 1.415 . S
C487 C486 1.355 . S
C487 C489 1.419 1_455 S
C488 C486 1.415 . S
C488 C493 1.425 1_455 S
C488 C495 1.409 . S
C489 H481 0.930 . S
C489 C487 1.419 1_655 S
C489 C490 1.362 . S
C490 H482 0.930 . S
C490 C489 1.362 . S
C490 C493 1.409 . S
C491 H483 0.930 . S
C491 C492 1.350 1_655 S
C491 C493 1.415 . S
C492 C491 1.350 1_455 S
C492 C494 1.425 . S
C493 C488 1.425 1_655 S
C493 C490 1.409 . S
C493 C491 1.415 . S
C494 H484 0.930 . S
C494 C492 1.425 . S
C494 C495 1.362 . S
C495 H485 0.930 . S
C495 C488 1.409 . S
C495 C494 1.362 . S
H496 C502 0.930 . S
H497 C505 0.930 . S
H498 C506 0.930 . S
H499 C507 0.930 . S
H500 C510 0.930 . S
H501 C511 0.930 . S
C502 H496 0.930 . S
C502 C503 1.355 . S
C502 C504 1.415 . S
C503 C502 1.355 . S
C503 C505 1.419 . S
C504 C502 1.415 . S
C504 C509 1.425 . S
C504 C511 1.409 . S
C505 H497 0.930 . S
C505 C503 1.419 . S
C505 C506 1.362 . S
C506 H498 0.930 . S
C506 C505 1.362 . S
C506 C509 1.409 . S
C507 H499 0.930 . S
C507 C508 1.355 . S
C507 C509 1.415 1_554 S
C508 C507 1.355 . S
C508 C510 1.419 . S
C509 C504 1.425 . S
C509 C506 1.409 . S
C509 C507 1.415 1_556 S
C510 H500 0.930 . S
C510 C508 1.419 . S
C510 C511 1.362 1_554 S
C511 H501 0.930 . S
C511 C504 1.409 . S
C511 C510 1.362 1_556 S
H512 C518 0.930 . S
H513 C521 0.930 . S
H514 C522 0.930 . S
H515 C523 0.930 . S
H516 C526 0.930 . S
H517 C527 0.930 . S
C518 H512 0.930 . S
C518 C519 1.355 . S
C518 C520 1.415 . S
C519 C518 1.355 . S
C519 C521 1.419 . S
C520 C518 1.415 . S
C520 C525 1.425 . S
C520 C527 1.409 . S
C521 H513 0.930 . S
C521 C519 1.419 . S
C521 C522 1.362 . S
C522 H514 0.930 . S
C522 C521 1.362 . S
C522 C525 1.409 . S
C523 H515 0.930 . S
C523 C524 1.355 . S
C523 C525 1.415 . S
C524 C523 1.355 . S
C524 C526 1.419 . S
C525 C520 1.425 . S
C525 C522 1.409 . S
C525 C523 1.415 . S
C526 H516 0.930 . S
C526 C524 1.419 . S
C526 C527 1.362 . S
C527 H517 0.930 . S
C527 C520 1.409 . S
C527 C526 1.362 . S
H528 C534 0.930 . S
H529 C537 0.930 . S
H530 C538 0.930 . S
H531 C539 0.930 . S
H532 C542 0.930 . S
H533 C543 0.930 . S
C534 H528 0.930 . S
C534 C535 1.355 . S
C534 C536 1.415 . S
C535 C534 1.355 . S
C535 C537 1.419 . S
C536 C534 1.415 . S
C536 C541 1.425 . S
C536 C543 1.409 . S
C537 H529 0.930 . S
C537 C535 1.419 . S
C537 C538 1.362 . S
C538 H530 0.930 . S
C538 C537 1.362 . S
C538 C541 1.409 . S
C539 H531 0.930 . S
C539 C540 1.355 . S
C539 C541 1.415 . S
C540 C539 1.355 . S
C540 C542 1.419 . S
C541 C536 1.425 . S
C541 C538 1.409 . S
C541 C539 1.415 . S
C542 H532 0.930 . S
C542 C540 1.419 . S
C542 C543 1.362 . S
C543 H533 0.930 . S
C543 C536 1.409 . S
C543 C542 1.362 . S
H544 C550 0.930 . S
H545 C553 0.930 . S
H546 C554 0.930 . S
H547 C555 0.930 . S
H548 C558 0.930 . S
H549 C559 0.930 . S
C550 H544 0.930 . S
C550 C551 1.352 1_655 S
C550 C552 1.415 . S
C551 C550 1.352 1_455 S
C551 C553 1.423 . S
C552 C550 1.415 . S
C552 C557 1.425 1_655 S
C552 C559 1.409 . S
C553 H545 0.930 . S
C553 C551 1.423 . S
C553 C554 1.362 . S
C554 H546 0.930 . S
C554 C553 1.362 . S
C554 C557 1.409 . S
C555 H547 0.930 . S
C555 C556 1.337 1_455 S
C555 C557 1.415 . S
C556 C555 1.337 1_655 S
C556 C558 1.444 . S
C557 C552 1.425 1_455 S
C557 C554 1.409 . S
C557 C555 1.415 . S
C558 H548 0.930 . S
C558 C556 1.444 . S
C558 C559 1.362 . S
C559 H549 0.930 . S
C559 C552 1.409 . S
C559 C558 1.362 . S
H560 C566 0.929 . S
H561 C569 0.930 . S
H562 C570 0.930 . S
H563 C571 0.930 . S
H564 C574 0.930 . S
H565 C575 0.930 . S
C566 H560 0.929 . S
C566 C567 1.353 . S
C566 C568 1.416 1_554 S
C567 C566 1.353 . S
C567 C569 1.419 . S
C568 C566 1.416 1_556 S
C568 C573 1.425 . S
C568 C575 1.409 . S
C569 H561 0.930 . S
C569 C567 1.419 . S
C569 C570 1.362 1_554 S
C570 H562 0.930 . S
C570 C569 1.362 1_556 S
C570 C573 1.409 . S
C571 H563 0.930 . S
C571 C572 1.355 . S
C571 C573 1.415 . S
C572 C571 1.355 . S
C572 C574 1.419 . S
C573 C568 1.425 . S
C573 C570 1.409 . S
C573 C571 1.415 . S
C574 H564 0.930 . S
C574 C572 1.419 . S
C574 C575 1.362 . S
C575 H565 0.930 . S
C575 C568 1.409 . S
C575 C574 1.362 . S
H576 C582 0.930 . S
H577 C585 0.930 . S
H578 C586 0.930 . S
H579 C587 0.930 . S
H580 C590 0.930 . S
H581 C591 0.930 . S
C582 H576 0.930 . S
C582 C583 1.355 . S
C582 C584 1.415 . S
C583 C582 1.355 . S
C583 C585 1.419 . S
C584 C582 1.415 . S
C584 C589 1.425 . S
C584 C591 1.409 . S
C585 H577 0.930 . S
C585 C583 1.419 . S
C585 C586 1.362 . S
C586 H578 0.930 . S
C586 C585 1.362 . S
C586 C589 1.409 . S
C587 H579 0.930 . S
C587 C588 1.355 . S
C587 C589 1.415 . S
C588 C587 1.355 . S
C588 C590 1.419 . S
C589 C584 1.425 . S
C589 C586 1.409 . S
C589 C587 1.415 . S
C590 H580 0.930 . S
C590 C588 1.419 . S
C590 C591 1.362 . S
C591 H581 0.930 . S
C591 C584 1.409 . S
C591 C590 1.362 . S
H592 C598 0.930 . S
H593 C601 0.930 . S
H594 C602 0.930 . S
H595 C603 0.930 . S
H596 C606 0.930 . S
H597 C607 0.930 . S
C598 H592 0.930 . S
C598 C599 1.355 . S
C598 C600 1.415 . S
C599 C598 1.355 . S
C599 C601 1.419 . S
C600 C598 1.415 . S
C600 C605 1.425 . S
C600 C607 1.409 . S
C601 H593 0.930 . S
C601 C599 1.419 . S
C601 C602 1.362 . S
C602 H594 0.930 . S
C602 C601 1.362 . S
C602 C605 1.409 . S
C603 H595 0.930 . S
C603 C604 1.355 . S
C603 C605 1.415 . S
C604 C603 1.355 . S
C604 C606 1.419 . S
C605 C600 1.425 . S
C605 C602 1.409 . S
C605 C603 1.415 . S
C606 H596 0.930 . S
C606 C604 1.419 . S
C606 C607 1.362 . S
C607 H597 0.930 . S
C607 C600 1.409 . S
C607 C606 1.362 . S
H608 C614 0.930 . S
H609 C617 0.930 . S
H610 C618 0.930 . S
H611 C619 0.930 . S
H612 C622 0.930 . S
H613 C623 0.930 . S
C614 H608 0.930 . S
C614 C615 1.355 1_455 S
C614 C616 1.415 . S
C615 C614 1.355 1_655 S
C615 C617 1.419 . S
C616 C614 1.415 . S
C616 C621 1.425 1_455 S
C616 C623 1.409 . S
C617 H609 0.930 . S
C617 C615 1.419 . S
C617 C618 1.362 . S
C618 H610 0.930 . S
C618 C617 1.362 . S
C618 C621 1.409 . S
C619 H611 0.930 . S
C619 C620 1.342 1_655 S
C619 C621 1.415 . S
C620 C619 1.342 1_455 S
C620 C622 1.436 . S
C621 C616 1.425 1_655 S
C621 C618 1.409 . S
C621 C619 1.415 . S
C622 H612 0.930 . S
C622 C620 1.436 . S
C622 C623 1.362 . S
C623 H613 0.930 . S
C623 C616 1.409 . S
C623 C622 1.362 . S
H624 C630 0.930 . S
H625 C633 0.930 . S
H626 C634 0.930 . S
H627 C635 0.930 . S
H628 C638 0.930 . S
H629 C639 0.930 . S
C630 H624 0.930 . S
C630 C631 1.355 . S
C630 C632 1.415 . S
C631 C630 1.355 . S
C631 C633 1.419 . S
C632 C630 1.415 . S
C632 C637 1.425 . S
C632 C639 1.409 . S
C633 H625 0.930 . S
C633 C631 1.419 . S
C633 C634 1.362 . S
C634 H626 0.930 . S
C634 C633 1.362 . S
C634 C637 1.409 . S
C635 H627 0.930 . S
C635 C636 1.356 . S
C635 C637 1.413 1_556 S
C636 C635 1.356 . S
C636 C638 1.419 . S
C637 C632 1.425 . S
C637 C634 1.409 . S
C637 C635 1.413 1_554 S
C638 H628 0.930 . S
C638 C636 1.419 . S
C638 C639 1.362 1_556 S
C639 H629 0.930 . S
C639 C632 1.409 . S
C639 C638 1.362 1_554 S
H640 C646 0.930 . S
H641 C649 0.930 . S
H642 C650 0.930 . S
H643 C651 0.930 . S
H644 C654 0.930 . S
H645 C655 0.930 . S
C646 H640 0.930 . S
C646 C647 1.355 . S
C646 C648 1.415 . S
C647 C646 1.355 . S
C647 C649 1.419 . S
C648 C646 1.415 . S
C648 C653 1.425 . S
C648 C655 1.409 . S
C649 H641 0.930 . S
C649 C647 1.419 . S
C649 C650 1.362 . S
C650 H642 0.930 . S
C650 C649 1.362 . S
C650 C653 1.409 . S
C651 H643 0.930 . S
C651 C652 1.355 . S
C651 C653 1.415 . S
C652 C651 1.355 . S
C652 C654 1.419 . S
C653 C648 1.425 . S
C653 C650 1.409 . S
C653 C651 1.415 . S
C654 H644 0.930 . S
C654 C652 1.419 . S
C654 C655 1.362 . S
C655 H645 0.930 . S
C655 C648 1.409 . S
C655 C654 1.362 . S
H656 C662 0.930 . S
H657 C665 0.930 . S
H658 C666 0.930 . S
H659 C667 0.930 . S
H660 C670 0.930 . S
H661 C671 0.930 . S
C662 H656 0.930 . S
C662 C663 1.355 . S
C662 C664 1.415 . S
C663 C662 1.355 . S
C663 C665 1.419 . S
C664 C662 1.415 . S
C664 C669 1.425 . S
C664 C671 1.409 . S
C665 H657 0.930 . S
C665 C663 1.419 . S
C665 C666 1.362 . S
C666 H658 0.930 . S
C666 C665 1.362 . S
C666 C669 1.409 . S
C667 H659 0.930 . S
C667 C668 1.355 . S
C667 C669 1.415 . S
C668 C667 1.355 . S
C668 C670 1.419 . S
C669 C664 1.425 . S
C669 C666 1.409 . S
C669 C667 1.415 . S
C670 H660 0.930 . S
C670 C668 1.419 . S
C670 C671 1.362 . S
C671 H661 0.930 . S
C671 C664 1.409 . S
C671 C670 1.362 . S
H672 C678 0.930 . S
H673 C681 0.930 . S
H674 C682 0.930 . S
H675 C683 0.930 . S
H676 C686 0.930 . S
H677 C687 0.930 . S
C678 H672 0.930 . S
C678 C679 1.355 . S
C678 C680 1.415 . S
C679 C678 1.355 . S
C679 C681 1.419 . S
C680 C678 1.415 . S
C680 C685 1.425 . S
C680 C687 1.409 . S
C681 H673 0.930 . S
C681 C679 1.419 . S
C681 C682 1.362 . S
C682 H674 0.930 . S
C682 C681 1.362 . S
C682 C685 1.409 . S
C683 H675 0.930 . S
C683 C684 1.355 . S
C683 C685 1.415 . S
C684 C683 1.355 . S
C684 C686 1.419 . S
C685 C680 1.425 . S
C685 C682 1.409 . S
C685 C683 1.415 . S
C686 H676 0.930 . S
C686 C684 1.419 . S
C686 C687 1.362 . S
C687 H677 0.930 . S
C687 C680 1.409 . S
C687 C686 1.362 . S
H688 C694 0.930 . S
H689 C697 0.930 . S
H690 C698 0.930 . S
H691 C699 0.930 . S
H692 C702 0.930 . S
H693 C703 0.930 . S
C694 H688 0.930 . S
C694 C695 1.355 . S
C694 C696 1.415 . S
C695 C694 1.355 . S
C695 C697 1.419 . S
C696 C694 1.415 . S
C696 C701 1.425 . S
C696 C703 1.409 . S
C697 H689 0.930 . S
C697 C695 1.419 . S
C697 C698 1.362 . S
C698 H690 0.930 . S
C698 C697 1.362 . S
C698 C701 1.409 . S
C699 H691 0.930 . S
C699 C700 1.355 . S
C699 C701 1.415 . S
C700 C699 1.355 . S
C700 C702 1.419 . S
C701 C696 1.425 . S
C701 C698 1.409 . S
C701 C699 1.415 . S
C702 H692 0.930 . S
C702 C700 1.419 . S
C702 C703 1.362 . S
C703 H693 0.930 . S
C703 C696 1.409 . S
C703 C702 1.362 . S
H704 C710 0.930 . S
H705 C713 0.930 . S
H706 C714 0.930 . S
H707 C715 0.930 . S
H708 C718 0.930 . S
H709 C719 0.930 . S
C710 H704 0.930 . S
C710 C711 1.365 . S
C710 C712 1.415 . S
C711 C710 1.365 . S
C711 C713 1.406 1_655 S
C712 C710 1.415 . S
C712 C717 1.425 1_655 S
C712 C719 1.409 . S
C713 H705 0.930 . S
C713 C711 1.406 1_455 S
C713 C714 1.362 . S
C714 H706 0.930 . S
C714 C713 1.362 . S
C714 C717 1.409 . S
C715 H707 0.930 . S
C715 C716 1.349 1_455 S
C715 C717 1.415 . S
C716 C715 1.349 1_655 S
C716 C718 1.427 . S
C717 C712 1.425 1_455 S
C717 C714 1.409 . S
C717 C715 1.415 . S
C718 H708 0.930 . S
C718 C716 1.427 . S
C718 C719 1.362 . S
C719 H709 0.930 . S
C719 C712 1.409 . S
C719 C718 1.362 . S
H720 C726 0.930 . S
H721 C729 0.930 . S
H722 C730 0.930 . S
H723 C731 0.930 . S
H724 C734 0.930 . S
H725 C735 0.930 . S
C726 H720 0.930 . S
C726 C727 1.355 . S
C726 C728 1.415 . S
C727 C726 1.355 . S
C727 C729 1.419 . S
C728 C726 1.415 . S
C728 C733 1.425 . S
C728 C735 1.409 . S
C729 H721 0.930 . S
C729 C727 1.419 . S
C729 C730 1.362 . S
C730 H722 0.930 . S
C730 C729 1.362 . S
C730 C733 1.409 . S
C731 H723 0.930 . S
C731 C732 1.355 . S
C731 C733 1.415 1_556 S
C732 C731 1.355 . S
C732 C734 1.419 . S
C733 C728 1.425 . S
C733 C730 1.409 . S
C733 C731 1.415 1_554 S
C734 H724 0.930 . S
C734 C732 1.419 . S
C734 C735 1.362 1_556 S
C735 H725 0.930 . S
C735 C728 1.409 . S
C735 C734 1.362 1_554 S
H736 C742 0.930 . S
H737 C745 0.930 . S
H738 C746 0.930 . S
H739 C747 0.930 . S
H740 C750 0.930 . S
H741 C751 0.930 . S
C742 H736 0.930 . S
C742 C743 1.355 . S
C742 C744 1.415 . S
C743 C742 1.355 . S
C743 C745 1.419 . S
C744 C742 1.415 . S
C744 C749 1.425 . S
C744 C751 1.409 . S
C745 H737 0.930 . S
C745 C743 1.419 . S
C745 C746 1.362 . S
C746 H738 0.930 . S
C746 C745 1.362 . S
C746 C749 1.409 . S
C747 H739 0.930 . S
C747 C748 1.355 . S
C747 C749 1.415 . S
C748 C747 1.355 . S
C748 C750 1.419 . S
C749 C744 1.425 . S
C749 C746 1.409 . S
C749 C747 1.415 . S
C750 H740 0.930 . S
C750 C748 1.419 . S
C750 C751 1.362 . S
C751 H741 0.930 . S
C751 C744 1.409 . S
C751 C750 1.362 . S
H752 C758 0.930 . S
H753 C761 0.930 . S
H754 C762 0.930 . S
H755 C763 0.930 . S
H756 C766 0.930 . S
H757 C767 0.930 . S
C758 H752 0.930 . S
C758 C759 1.355 . S
C758 C760 1.415 . S
C759 C758 1.355 . S
C759 C761 1.419 . S
C760 C758 1.415 . S
C760 C765 1.425 . S
C760 C767 1.409 . S
C761 H753 0.930 . S
C761 C759 1.419 . S
C761 C762 1.362 . S
C762 H754 0.930 . S
C762 C761 1.362 . S
C762 C765 1.409 . S
C763 H755 0.930 . S
C763 C764 1.355 . S
C763 C765 1.415 . S
C764 C763 1.355 . S
C764 C766 1.419 . S
C765 C760 1.425 . S
C765 C762 1.409 . S
C765 C763 1.415 . S
C766 H756 0.930 . S
C766 C764 1.419 . S
C766 C767 1.362 . S
C767 H757 0.930 . S
C767 C760 1.409 . S
C767 C766 1.362 . S
H768 C774 0.930 . S
H769 C777 0.930 . S
H770 C778 0.930 . S
H771 C779 0.930 . S
H772 C782 0.930 . S
H773 C783 0.930 . S
C774 H768 0.930 . S
C774 C775 1.364 . S
C774 C776 1.415 . S
C775 C774 1.364 . S
C775 C777 1.407 1_655 S
C776 C774 1.415 . S
C776 C781 1.425 1_655 S
C776 C783 1.409 . S
C777 H769 0.930 . S
C777 C775 1.407 1_455 S
C777 C778 1.362 . S
C778 H770 0.930 . S
C778 C777 1.362 . S
C778 C781 1.409 . S
C779 H771 0.930 . S
C779 C780 1.353 1_455 S
C779 C781 1.415 . S
C780 C779 1.353 1_655 S
C780 C782 1.422 . S
C781 C776 1.425 1_455 S
C781 C778 1.409 . S
C781 C779 1.415 . S
C782 H772 0.930 . S
C782 C780 1.422 . S
C782 C783 1.362 . S
C783 H773 0.930 . S
C783 C776 1.409 . S
C783 C782 1.362 . S
H784 C790 0.930 . S
H785 C793 0.930 . S
H786 C794 0.930 . S
H787 C795 0.930 . S
H788 C798 0.930 . S
H789 C799 0.930 . S
C790 H784 0.930 . S
C790 C791 1.355 . S
C790 C792 1.415 1_554 S
C791 C790 1.355 . S
C791 C793 1.419 . S
C792 C790 1.415 1_556 S
C792 C797 1.425 . S
C792 C799 1.409 . S
C793 H785 0.930 . S
C793 C791 1.419 . S
C793 C794 1.362 1_554 S
C794 H786 0.930 . S
C794 C793 1.362 1_556 S
C794 C797 1.409 . S
C795 H787 0.930 . S
C795 C796 1.355 . S
C795 C797 1.415 . S
C796 C795 1.355 . S
C796 C798 1.419 . S
C797 C792 1.425 . S
C797 C794 1.409 . S
C797 C795 1.415 . S
C798 H788 0.930 . S
C798 C796 1.419 . S
C798 C799 1.362 . S
C799 H789 0.930 . S
C799 C792 1.409 . S
C799 C798 1.362 . S
H800 C806 0.930 . S
H801 C809 0.930 . S
H802 C810 0.930 . S
H803 C811 0.930 . S
H804 C814 0.930 . S
H805 C815 0.930 . S
C806 H800 0.930 . S
C806 C807 1.355 . S
C806 C808 1.415 . S
C807 C806 1.355 . S
C807 C809 1.419 . S
C808 C806 1.415 . S
C808 C813 1.425 . S
C808 C815 1.409 . S
C809 H801 0.930 . S
C809 C807 1.419 . S
C809 C810 1.362 . S
C810 H802 0.930 . S
C810 C809 1.362 . S
C810 C813 1.409 . S
C811 H803 0.930 . S
C811 C812 1.355 . S
C811 C813 1.415 . S
C812 C811 1.355 . S
C812 C814 1.419 . S
C813 C808 1.425 . S
C813 C810 1.409 . S
C813 C811 1.415 . S
C814 H804 0.930 . S
C814 C812 1.419 . S
C814 C815 1.362 . S
C815 H805 0.930 . S
C815 C808 1.409 . S
C815 C814 1.362 . S
H816 C822 0.930 . S
H817 C825 0.930 . S
H818 C826 0.930 . S
H819 C827 0.930 . S
H820 C830 0.930 . S
H821 C831 0.930 . S
C822 H816 0.930 . S
C822 C823 1.355 . S
C822 C824 1.415 . S
C823 C822 1.355 . S
C823 C825 1.419 . S
C824 C822 1.415 . S
C824 C829 1.425 . S
C824 C831 1.409 . S
C825 H817 0.930 . S
C825 C823 1.419 . S
C825 C826 1.362 . S
C826 H818 0.930 . S
C826 C825 1.362 . S
C826 C829 1.409 . S
C827 H819 0.930 . S
C827 C828 1.355 . S
C827 C829 1.415 . S
C828 C827 1.355 . S
C828 C830 1.419 . S
C829 C824 1.425 . S
C829 C826 1.409 . S
C829 C827 1.415 . S
C830 H820 0.930 . S
C830 C828 1.419 . S
C830 C831 1.362 . S
C831 H821 0.930 . S
C831 C824 1.409 . S
C831 C830 1.362 . S
H832 C838 0.930 . S
H833 C841 0.930 . S
H834 C842 0.930 . S
H835 C843 0.930 . S
H836 C846 0.930 . S
H837 C847 0.930 . S
C838 H832 0.930 . S
C838 C839 1.355 1_455 S
C838 C840 1.415 . S
C839 C838 1.355 1_655 S
C839 C841 1.419 . S
C840 C838 1.415 . S
C840 C845 1.425 1_455 S
C840 C847 1.409 . S
C841 H833 0.930 . S
C841 C839 1.419 . S
C841 C842 1.362 . S
C842 H834 0.930 . S
C842 C841 1.362 . S
C842 C845 1.409 . S
C843 H835 0.930 . S
C843 C844 1.355 1_655 S
C843 C845 1.415 . S
C844 C843 1.355 1_455 S
C844 C846 1.419 . S
C845 C840 1.425 1_655 S
C845 C842 1.409 . S
C845 C843 1.415 . S
C846 H836 0.930 . S
C846 C844 1.419 . S
C846 C847 1.362 . S
C847 H837 0.930 . S
C847 C840 1.409 . S
C847 C846 1.362 . S
H848 C854 0.930 . S
H849 C857 0.930 . S
H850 C858 0.930 . S
H851 C859 0.933 . S
H852 C862 0.930 . S
H853 C863 0.930 . S
C854 H848 0.930 . S
C854 C855 1.355 . S
C854 C856 1.415 . S
C855 C854 1.355 . S
C855 C857 1.419 . S
C856 C854 1.415 . S
C856 C861 1.425 . S
C856 C863 1.409 . S
C857 H849 0.930 . S
C857 C855 1.419 . S
C857 C858 1.362 . S
C858 H850 0.930 . S
C858 C857 1.362 . S
C858 C861 1.409 . S
C859 H851 0.933 . S
C859 C860 1.361 . S
C859 C861 1.405 1_554 S
C860 C859 1.361 . S
C860 C862 1.419 . S
C861 C856 1.425 . S
C861 C858 1.409 . S
C861 C859 1.405 1_556 S
C862 H852 0.930 . S
C862 C860 1.419 . S
C862 C863 1.362 1_554 S
C863 H853 0.930 . S
C863 C856 1.409 . S
C863 C862 1.362 1_556 S
H864 C870 0.930 . S
H865 C873 0.930 . S
H866 C874 0.930 . S
H867 C875 0.930 . S
H868 C878 0.930 . S
H869 C879 0.930 . S
C870 H864 0.930 . S
C870 C871 1.355 . S
C870 C872 1.415 . S
C871 C870 1.355 . S
C871 C873 1.419 . S
C872 C870 1.415 . S
C872 C877 1.425 . S
C872 C879 1.409 . S
C873 H865 0.930 . S
C873 C871 1.419 . S
C873 C874 1.362 . S
C874 H866 0.930 . S
C874 C873 1.362 . S
C874 C877 1.409 . S
C875 H867 0.930 . S
C875 C876 1.355 . S
C875 C877 1.415 . S
C876 C875 1.355 . S
C876 C878 1.419 . S
C877 C872 1.425 . S
C877 C874 1.409 . S
C877 C875 1.415 . S
C878 H868 0.930 . S
C878 C876 1.419 . S
C878 C879 1.362 . S
C879 H869 0.930 . S
C879 C872 1.409 . S
C879 C878 1.362 . S
H880 C886 0.930 . S
H881 C889 0.930 . S
H882 C890 0.930 . S
H883 C891 0.930 . S
H884 C894 0.930 . S
H885 C895 0.930 . S
C886 H880 0.930 . S
C886 C887 1.355 . S
C886 C888 1.415 . S
C887 C886 1.355 . S
C887 C889 1.419 . S
C888 C886 1.415 . S
C888 C893 1.425 . S
C888 C895 1.409 . S
C889 H881 0.930 . S
C889 C887 1.419 . S
C889 C890 1.362 . S
C890 H882 0.930 . S
C890 C889 1.362 . S
C890 C893 1.409 . S
C891 H883 0.930 . S
C891 C892 1.355 . S
C891 C893 1.415 . S
C892 C891 1.355 . S
C892 C894 1.419 . S
C893 C888 1.425 . S
C893 C890 1.409 . S
C893 C891 1.415 . S
C894 H884 0.930 . S
C894 C892 1.419 . S
C894 C895 1.362 . S
C895 H885 0.930 . S
C895 C888 1.409 . S
C895 C894 1.362 . S
H896 C902 0.930 . S
H897 C905 0.930 . S
H898 C906 0.930 . S
H899 C907 0.930 . S
H900 C910 0.930 . S
H901 C911 0.930 . S
C902 H896 0.930 . S
C902 C903 1.355 1_655 S
C902 C904 1.415 . S
C903 C902 1.355 1_455 S
C903 C905 1.419 . S
C904 C902 1.415 . S
C904 C909 1.425 1_655 S
C904 C911 1.409 . S
C905 H897 0.930 . S
C905 C903 1.419 . S
C905 C906 1.362 . S
C906 H898 0.930 . S
C906 C905 1.362 . S
C906 C909 1.409 . S
C907 H899 0.930 . S
C907 C908 1.355 1_455 S
C907 C909 1.415 . S
C908 C907 1.355 1_655 S
C908 C910 1.419 . S
C909 C904 1.425 1_455 S
C909 C906 1.409 . S
C909 C907 1.415 . S
C910 H900 0.930 . S
C910 C908 1.419 . S
C910 C911 1.362 . S
C911 H901 0.930 . S
C911 C904 1.409 . S
C911 C910 1.362 . S
H912 C918 0.930 . S
H913 C921 0.930 . S
H914 C922 0.930 . S
H915 C923 0.935 . S
H916 C926 0.930 . S
H917 C927 0.930 . S
C918 H912 0.930 . S
C918 C919 1.355 . S
C918 C920 1.415 . S
C919 C918 1.355 . S
C919 C921 1.419 . S
C920 C918 1.415 . S
C920 C925 1.425 . S
C920 C927 1.409 . S
C921 H913 0.930 . S
C921 C919 1.419 . S
C921 C922 1.362 . S
C922 H914 0.930 . S
C922 C921 1.362 . S
C922 C925 1.409 . S
C923 H915 0.935 . S
C923 C924 1.365 . S
C923 C925 1.399 1_556 S
C924 C923 1.365 . S
C924 C926 1.419 . S
C925 C920 1.425 . S
C925 C922 1.409 . S
C925 C923 1.399 1_554 S
C926 H916 0.930 . S
C926 C924 1.419 . S
C926 C927 1.362 1_556 S
C927 H917 0.930 . S
C927 C920 1.409 . S
C927 C926 1.362 1_554 S
H928 C934 0.930 . S
H929 C937 0.930 . S
H930 C938 0.934 1_565 S
H931 C939 0.930 . S
H932 C942 0.930 . S
H933 C943 0.934 1_545 S
C934 H928 0.930 . S
C934 C935 1.355 1_656 S
C934 C936 1.415 . S
C935 C934 1.355 1_454 S
C935 C937 1.419 . S
C936 C934 1.415 . S
C936 C941 1.425 1_646 S
C936 C943 1.411 1_545 S
C937 H929 0.930 . S
C937 C935 1.419 . S
C937 C938 1.357 . S
C938 H930 0.934 1_545 S
C938 C937 1.357 . S
C938 C941 1.411 1_545 S
C939 H931 0.930 . S
C939 C940 1.355 1_454 S
C939 C941 1.415 . S
C940 C939 1.355 1_656 S
C940 C942 1.419 . S
C941 C936 1.425 1_464 S
C941 C938 1.411 1_565 S
C941 C939 1.415 . S
C942 H932 0.930 . S
C942 C940 1.419 . S
C942 C943 1.357 . S
C943 H933 0.934 1_565 S
C943 C936 1.411 1_565 S
C943 C942 1.357 . S
H944 C950 0.930 . S
H945 C953 0.930 . S
H946 C954 0.930 . S
H947 C955 0.930 . S
H948 C958 0.930 . S
H949 C959 0.930 . S
C950 H944 0.930 . S
C950 C951 1.355 . S
C950 C952 1.415 . S
C951 C950 1.355 . S
C951 C953 1.419 . S
C952 C950 1.415 . S
C952 C957 1.425 . S
C952 C959 1.409 . S
C953 H945 0.930 . S
C953 C951 1.419 . S
C953 C954 1.362 . S
C954 H946 0.930 . S
C954 C953 1.362 . S
C954 C957 1.409 . S
C955 H947 0.930 . S
C955 C956 1.355 . S
C955 C957 1.415 . S
C956 C955 1.355 . S
C956 C958 1.419 . S
C957 C952 1.425 . S
C957 C954 1.409 . S
C957 C955 1.415 . S
C958 H948 0.930 . S
C958 C956 1.419 . S
C958 C959 1.362 . S
C959 H949 0.930 . S
C959 C952 1.409 . S
C959 C958 1.362 . S
H960 C966 0.930 . S
H961 C969 0.930 . S
H962 C970 0.930 . S
H963 C971 0.930 . S
H964 C974 0.930 . S
H965 C975 0.930 . S
C966 H960 0.930 . S
C966 C967 1.355 . S
C966 C968 1.399 1_545 S
C967 C966 1.355 . S
C967 C969 1.419 . S
C968 C966 1.399 1_565 S
C968 C973 1.424 1_565 S
C968 C975 1.426 . S
C969 H961 0.930 . S
C969 C967 1.419 . S
C969 C970 1.362 . S
C970 H962 0.930 . S
C970 C969 1.362 . S
C970 C973 1.426 . S
C971 H963 0.930 . S
C971 C972 1.355 . S
C971 C973 1.399 1_565 S
C972 C971 1.355 . S
C972 C974 1.419 . S
C973 C968 1.424 1_545 S
C973 C970 1.426 . S
C973 C971 1.399 1_545 S
C974 H964 0.930 . S
C974 C972 1.419 . S
C974 C975 1.362 . S
C975 H965 0.930 . S
C975 C968 1.426 . S
C975 C974 1.362 . S
H976 C982 0.930 . S
H977 C985 0.930 . S
H978 C986 0.930 . S
H979 C987 0.930 . S
H980 C990 0.930 . S
H981 C991 0.930 . S
C982 H976 0.930 . S
C982 C983 1.355 . S
C982 C984 1.415 . S
C983 C982 1.355 . S
C983 C985 1.419 . S
C984 C982 1.415 . S
C984 C989 1.425 . S
C984 C991 1.409 . S
C985 H977 0.930 . S
C985 C983 1.419 . S
C985 C986 1.362 . S
C986 H978 0.930 . S
C986 C985 1.362 . S
C986 C989 1.409 . S
C987 H979 0.930 . S
C987 C988 1.355 . S
C987 C989 1.415 . S
C988 C987 1.355 . S
C988 C990 1.419 . S
C989 C984 1.425 . S
C989 C986 1.409 . S
C989 C987 1.415 . S
C990 H980 0.930 . S
C990 C988 1.419 . S
C990 C991 1.362 . S
C991 H981 0.930 . S
C991 C984 1.409 . S
C991 C990 1.362 . S
H992 C998 0.930 . S
H993 C1001 0.930 . S
H994 C1002 0.930 . S
H995 C1003 0.930 . S
H996 C1006 0.930 . S
H997 C1007 0.930 . S
C998 H992 0.930 . S
C998 C999 1.355 . S
C998 C1000 1.415 . S
C999 C998 1.355 . S
C999 C1001 1.419 1_455 S
C1000 C998 1.415 . S
C1000 C1005 1.425 1_465 S
C1000 C1007 1.409 1_565 S
C1001 H993 0.930 . S
C1001 C999 1.419 1_655 S
C1001 C1002 1.362 . S
C1002 H994 0.930 . S
C1002 C1001 1.362 . S
C1002 C1005 1.409 1_565 S
C1003 H995 0.930 . S
C1003 C1004 1.355 . S
C1003 C1005 1.415 . S
C1004 C1003 1.355 . S
C1004 C1006 1.419 1_655 S
C1005 C1000 1.425 1_645 S
C1005 C1002 1.409 1_545 S
C1005 C1003 1.415 . S
C1006 H996 0.930 . S
C1006 C1004 1.419 1_455 S
C1006 C1007 1.362 . S
C1007 H997 0.930 . S
C1007 C1000 1.409 1_545 S
C1007 C1006 1.362 . S
H1008 C1014 0.930 . S
H1009 C1017 0.930 . S
H1010 C1018 0.930 . S
H1011 C1019 0.930 . S
H1012 C1022 0.930 . S
H1013 C1023 0.930 . S
C1014 H1008 0.930 . S
C1014 C1015 1.355 . S
C1014 C1016 1.415 . S
C1015 C1014 1.355 . S
C1015 C1017 1.419 . S
C1016 C1014 1.415 . S
C1016 C1021 1.425 . S
C1016 C1023 1.409 . S
C1017 H1009 0.930 . S
C1017 C1015 1.419 . S
C1017 C1018 1.362 . S
C1018 H1010 0.930 . S
C1018 C1017 1.362 . S
C1018 C1021 1.409 . S
C1019 H1011 0.930 . S
C1019 C1020 1.355 . S
C1019 C1021 1.415 . S
C1020 C1019 1.355 . S
C1020 C1022 1.419 . S
C1021 C1016 1.425 . S
C1021 C1018 1.409 . S
C1021 C1019 1.415 . S
C1022 H1012 0.930 . S
C1022 C1020 1.419 . S
C1022 C1023 1.362 . S
C1023 H1013 0.930 . S
C1023 C1016 1.409 . S
C1023 C1022 1.362 . S
H1024 C1030 0.930 . S
H1025 C1033 0.930 . S
H1026 C1034 0.932 1_545 S
H1027 C1035 0.930 . S
H1028 C1038 0.930 . S
H1029 C1039 0.932 1_565 S
C1030 H1024 0.930 . S
C1030 C1031 1.355 1_556 S
C1030 C1032 1.415 . S
C1031 C1030 1.355 1_554 S
C1031 C1033 1.419 . S
C1032 C1030 1.415 . S
C1032 C1037 1.425 1_566 S
C1032 C1039 1.410 1_565 S
C1033 H1025 0.930 . S
C1033 C1031 1.419 . S
C1033 C1034 1.360 . S
C1034 H1026 0.932 1_565 S
C1034 C1033 1.360 . S
C1034 C1037 1.410 1_565 S
C1035 H1027 0.930 . S
C1035 C1036 1.355 1_554 S
C1035 C1037 1.415 . S
C1036 C1035 1.355 1_556 S
C1036 C1038 1.419 . S
C1037 C1032 1.425 1_544 S
C1037 C1034 1.410 1_545 S
C1037 C1035 1.415 . S
C1038 H1028 0.930 . S
C1038 C1036 1.419 . S
C1038 C1039 1.360 . S
C1039 H1029 0.932 1_545 S
C1039 C1032 1.410 1_545 S
C1039 C1038 1.360 . S
H1040 C1046 0.930 . S
H1041 C1049 0.930 . S
H1042 C1050 0.930 . S
H1043 C1051 0.930 . S
H1044 C1054 0.930 . S
H1045 C1055 0.930 . S
C1046 H1040 0.930 . S
C1046 C1047 1.355 . S
C1046 C1048 1.415 . S
C1047 C1046 1.355 . S
C1047 C1049 1.419 . S
C1048 C1046 1.415 . S
C1048 C1053 1.425 . S
C1048 C1055 1.409 . S
C1049 H1041 0.930 . S
C1049 C1047 1.419 . S
C1049 C1050 1.362 . S
C1050 H1042 0.930 . S
C1050 C1049 1.362 . S
C1050 C1053 1.409 . S
C1051 H1043 0.930 . S
C1051 C1052 1.355 . S
C1051 C1053 1.415 . S
C1052 C1051 1.355 . S
C1052 C1054 1.419 . S
C1053 C1048 1.425 . S
C1053 C1050 1.409 . S
C1053 C1051 1.415 . S
C1054 H1044 0.930 . S
C1054 C1052 1.419 . S
C1054 C1055 1.362 . S
C1055 H1045 0.930 . S
C1055 C1048 1.409 . S
C1055 C1054 1.362 . S
H1056 C1062 0.930 . S
H1057 C1065 0.930 . S
H1058 C1066 0.930 . S
H1059 C1067 0.930 . S
H1060 C1070 0.930 . S
H1061 C1071 0.930 . S
C1062 H1056 0.930 . S
C1062 C1063 1.355 . S
C1062 C1064 1.415 . S
C1063 C1062 1.355 . S
C1063 C1065 1.419 . S
C1064 C1062 1.415 . S
C1064 C1069 1.425 . S
C1064 C1071 1.409 . S
C1065 H1057 0.930 . S
C1065 C1063 1.419 . S
C1065 C1066 1.362 . S
C1066 H1058 0.930 . S
C1066 C1065 1.362 . S
C1066 C1069 1.409 . S
C1067 H1059 0.930 . S
C1067 C1068 1.355 . S
C1067 C1069 1.415 . S
C1068 C1067 1.355 . S
C1068 C1070 1.419 . S
C1069 C1064 1.425 . S
C1069 C1066 1.409 . S
C1069 C1067 1.415 . S
C1070 H1060 0.930 . S
C1070 C1068 1.419 . S
C1070 C1071 1.362 . S
C1071 H1061 0.930 . S
C1071 C1064 1.409 . S
C1071 C1070 1.362 . S
H1072 C1078 0.930 . S
H1073 C1081 0.930 . S
H1074 C1082 0.930 . S
H1075 C1083 0.930 . S
H1076 C1086 0.930 . S
H1077 C1087 0.930 . S
C1078 H1072 0.930 . S
C1078 C1079 1.355 . S
C1078 C1080 1.415 . S
C1079 C1078 1.355 . S
C1079 C1081 1.419 . S
C1080 C1078 1.415 . S
C1080 C1085 1.425 . S
C1080 C1087 1.409 . S
C1081 H1073 0.930 . S
C1081 C1079 1.419 . S
C1081 C1082 1.362 . S
C1082 H1074 0.930 . S
C1082 C1081 1.362 . S
C1082 C1085 1.409 . S
C1083 H1075 0.930 . S
C1083 C1084 1.355 . S
C1083 C1085 1.415 . S
C1084 C1083 1.355 . S
C1084 C1086 1.419 . S
C1085 C1080 1.425 . S
C1085 C1082 1.409 . S
C1085 C1083 1.415 . S
C1086 H1076 0.930 . S
C1086 C1084 1.419 . S
C1086 C1087 1.362 . S
C1087 H1077 0.930 . S
C1087 C1080 1.409 . S
C1087 C1086 1.362 . S
H1088 C1094 0.930 . S
H1089 C1097 0.930 . S
H1090 C1098 0.930 . S
H1091 C1099 0.930 . S
H1092 C1102 0.930 . S
H1093 C1103 0.930 . S
C1094 H1088 0.930 . S
C1094 C1095 1.355 . S
C1094 C1096 1.415 . S
C1095 C1094 1.355 . S
C1095 C1097 1.419 . S
C1096 C1094 1.415 . S
C1096 C1101 1.425 . S
C1096 C1103 1.409 . S
C1097 H1089 0.930 . S
C1097 C1095 1.419 . S
C1097 C1098 1.362 . S
C1098 H1090 0.930 . S
C1098 C1097 1.362 . S
C1098 C1101 1.409 . S
C1099 H1091 0.930 . S
C1099 C1100 1.355 . S
C1099 C1101 1.415 . S
C1100 C1099 1.355 . S
C1100 C1102 1.419 . S
C1101 C1096 1.425 . S
C1101 C1098 1.409 . S
C1101 C1099 1.415 . S
C1102 H1092 0.930 . S
C1102 C1100 1.419 . S
C1102 C1103 1.362 . S
C1103 H1093 0.930 . S
C1103 C1096 1.409 . S
C1103 C1102 1.362 . S
H1104 C1110 0.930 . S
H1105 C1113 0.930 . S
H1106 C1114 0.930 . S
H1107 C1115 0.930 . S
H1108 C1118 0.930 . S
H1109 C1119 0.930 . S
C1110 H1104 0.930 . S
C1110 C1111 1.355 . S
C1110 C1112 1.415 . S
C1111 C1110 1.355 . S
C1111 C1113 1.419 . S
C1112 C1110 1.415 . S
C1112 C1117 1.425 . S
C1112 C1119 1.409 . S
C1113 H1105 0.930 . S
C1113 C1111 1.419 . S
C1113 C1114 1.362 . S
C1114 H1106 0.930 . S
C1114 C1113 1.362 . S
C1114 C1117 1.409 . S
C1115 H1107 0.930 . S
C1115 C1116 1.355 . S
C1115 C1117 1.415 . S
C1116 C1115 1.355 . S
C1116 C1118 1.419 . S
C1117 C1112 1.425 . S
C1117 C1114 1.409 . S
C1117 C1115 1.415 . S
C1118 H1108 0.930 . S
C1118 C1116 1.419 . S
C1118 C1119 1.362 . S
C1119 H1109 0.930 . S
C1119 C1112 1.409 . S
C1119 C1118 1.362 . S
H1120 C1126 0.930 . S
H1121 C1129 0.930 . S
H1122 C1130 0.930 . S
H1123 C1131 0.930 . S
H1124 C1134 0.930 . S
H1125 C1135 0.930 . S
C1126 H1120 0.930 . S
C1126 C1127 1.355 . S
C1126 C1128 1.415 . S
C1127 C1126 1.355 . S
C1127 C1129 1.419 . S
C1128 C1126 1.415 . S
C1128 C1133 1.425 . S
C1128 C1135 1.409 . S
C1129 H1121 0.930 . S
C1129 C1127 1.419 . S
C1129 C1130 1.362 . S
C1130 H1122 0.930 . S
C1130 C1129 1.362 . S
C1130 C1133 1.409 . S
C1131 H1123 0.930 . S
C1131 C1132 1.355 . S
C1131 C1133 1.415 . S
C1132 C1131 1.355 . S
C1132 C1134 1.419 . S
C1133 C1128 1.425 . S
C1133 C1130 1.409 . S
C1133 C1131 1.415 . S
C1134 H1124 0.930 . S
C1134 C1132 1.419 . S
C1134 C1135 1.362 . S
C1135 H1125 0.930 . S
C1135 C1128 1.409 . S
C1135 C1134 1.362 . S
H1136 C1142 0.930 . S
H1137 C1145 0.929 1_556 S
H1138 C1146 0.930 . S
H1139 C1147 0.930 . S
H1140 C1150 0.929 1_554 S
H1141 C1151 0.930 . S
C1142 H1136 0.930 . S
C1142 C1143 1.355 . S
C1142 C1144 1.415 . S
C1143 C1142 1.355 . S
C1143 C1145 1.427 1_655 S
C1144 C1142 1.415 . S
C1144 C1149 1.425 1_654 S
C1144 C1151 1.409 . S
C1145 H1137 0.929 1_554 S
C1145 C1143 1.427 1_455 S
C1145 C1146 1.356 1_554 S
C1146 H1138 0.930 . S
C1146 C1145 1.356 1_556 S
C1146 C1149 1.409 . S
C1147 H1139 0.930 . S
C1147 C1148 1.355 . S
C1147 C1149 1.415 . S
C1148 C1147 1.355 . S
C1148 C1150 1.427 1_455 S
C1149 C1144 1.425 1_456 S
C1149 C1146 1.409 . S
C1149 C1147 1.415 . S
C1150 H1140 0.929 1_556 S
C1150 C1148 1.427 1_655 S
C1150 C1151 1.356 1_556 S
C1151 H1141 0.930 . S
C1151 C1144 1.409 . S
C1151 C1150 1.356 1_554 S
H1152 C1158 0.930 . S
H1153 C1161 0.930 . S
H1154 C1162 0.930 . S
H1155 C1163 0.930 . S
H1156 C1166 0.930 . S
H1157 C1167 0.930 . S
C1158 H1152 0.930 . S
C1158 C1159 1.355 1_554 S
C1158 C1160 1.415 . S
C1159 C1158 1.355 1_556 S
C1159 C1161 1.419 . S
C1160 C1158 1.415 . S
C1160 C1165 1.425 1_554 S
C1160 C1167 1.409 . S
C1161 H1153 0.930 . S
C1161 C1159 1.419 . S
C1161 C1162 1.362 . S
C1162 H1154 0.930 . S
C1162 C1161 1.362 . S
C1162 C1165 1.409 . S
C1163 H1155 0.930 . S
C1163 C1164 1.355 1_556 S
C1163 C1165 1.415 . S
C1164 C1163 1.355 1_554 S
C1164 C1166 1.419 . S
C1165 C1160 1.425 1_556 S
C1165 C1162 1.409 . S
C1165 C1163 1.415 . S
C1166 H1156 0.930 . S
C1166 C1164 1.419 . S
C1166 C1167 1.362 . S
C1167 H1157 0.930 . S
C1167 C1160 1.409 . S
C1167 C1166 1.362 . S
H1168 C1174 0.930 . S
H1169 C1177 0.930 . S
H1170 C1178 0.930 . S
H1171 C1179 0.930 . S
H1172 C1182 0.930 . S
H1173 C1183 0.930 . S
C1174 H1168 0.930 . S
C1174 C1175 1.355 . S
C1174 C1176 1.415 . S
C1175 C1174 1.355 . S
C1175 C1177 1.419 1_455 S
C1176 C1174 1.415 . S
C1176 C1181 1.425 1_455 S
C1176 C1183 1.409 . S
C1177 H1169 0.930 . S
C1177 C1175 1.419 1_655 S
C1177 C1178 1.362 . S
C1178 H1170 0.930 . S
C1178 C1177 1.362 . S
C1178 C1181 1.409 . S
C1179 H1171 0.930 . S
C1179 C1180 1.355 . S
C1179 C1181 1.415 . S
C1180 C1179 1.355 . S
C1180 C1182 1.419 1_655 S
C1181 C1176 1.425 1_655 S
C1181 C1178 1.409 . S
C1181 C1179 1.415 . S
C1182 H1172 0.930 . S
C1182 C1180 1.419 1_455 S
C1182 C1183 1.362 . S
C1183 H1173 0.930 . S
C1183 C1176 1.409 . S
C1183 C1182 1.362 . S
H1184 C1190 0.930 . S
H1185 C1193 0.930 . S
H1186 C1194 0.930 . S
H1187 C1195 0.930 . S
H1188 C1198 0.930 . S
H1189 C1199 0.930 . S
C1190 H1184 0.930 . S
C1190 C1191 1.355 . S
C1190 C1192 1.415 . S
C1191 C1190 1.355 . S
C1191 C1193 1.419 . S
C1192 C1190 1.415 . S
C1192 C1197 1.425 . S
C1192 C1199 1.409 . S
C1193 H1185 0.930 . S
C1193 C1191 1.419 . S
C1193 C1194 1.362 . S
C1194 H1186 0.930 . S
C1194 C1193 1.362 . S
C1194 C1197 1.409 . S
C1195 H1187 0.930 . S
C1195 C1196 1.355 . S
C1195 C1197 1.415 . S
C1196 C1195 1.355 . S
C1196 C1198 1.419 . S
C1197 C1192 1.425 . S
C1197 C1194 1.409 . S
C1197 C1195 1.415 . S
C1198 H1188 0.930 . S
C1198 C1196 1.419 . S
C1198 C1199 1.362 . S
C1199 H1189 0.930 . S
C1199 C1192 1.409 . S
C1199 C1198 1.362 . S
H1200 C1206 0.930 . S
H1201 C1209 0.930 . S
H1202 C1210 0.930 . S
H1203 C1211 0.930 . S
H1204 C1214 0.930 . S
H1205 C1215 0.930 . S
C1206 H1200 0.930 . S
C1206 C1207 1.355 . S
C1206 C1208 1.415 . S
C1207 C1206 1.355 . S
C1207 C1209 1.419 . S
C1208 C1206 1.415 . S
C1208 C1213 1.425 . S
C1208 C1215 1.409 . S
C1209 H1201 0.930 . S
C1209 C1207 1.419 . S
C1209 C1210 1.362 . S
C1210 H1202 0.930 . S
C1210 C1209 1.362 . S
C1210 C1213 1.409 . S
C1211 H1203 0.930 . S
C1211 C1212 1.355 . S
C1211 C1213 1.415 . S
C1212 C1211 1.355 . S
C1212 C1214 1.419 . S
C1213 C1208 1.425 . S
C1213 C1210 1.409 . S
C1213 C1211 1.415 . S
C1214 H1204 0.930 . S
C1214 C1212 1.419 . S
C1214 C1215 1.362 . S
C1215 H1205 0.930 . S
C1215 C1208 1.409 . S
C1215 C1214 1.362 . S
H1216 C1222 0.930 . S
H1217 C1225 0.930 . S
H1218 C1226 0.930 . S
H1219 C1227 0.930 . S
H1220 C1230 0.930 . S
H1221 C1231 0.930 . S
C1222 H1216 0.930 . S
C1222 C1223 1.355 . S
C1222 C1224 1.415 . S
C1223 C1222 1.355 . S
C1223 C1225 1.419 . S
C1224 C1222 1.415 . S
C1224 C1229 1.425 . S
C1224 C1231 1.409 . S
C1225 H1217 0.930 . S
C1225 C1223 1.419 . S
C1225 C1226 1.362 . S
C1226 H1218 0.930 . S
C1226 C1225 1.362 . S
C1226 C1229 1.409 . S
C1227 H1219 0.930 . S
C1227 C1228 1.355 . S
C1227 C1229 1.415 . S
C1228 C1227 1.355 . S
C1228 C1230 1.419 . S
C1229 C1224 1.425 . S
C1229 C1226 1.409 . S
C1229 C1227 1.415 . S
C1230 H1220 0.930 . S
C1230 C1228 1.419 . S
C1230 C1231 1.362 . S
C1231 H1221 0.930 . S
C1231 C1224 1.409 . S
C1231 C1230 1.362 . S
H1232 C1238 0.930 . S
H1233 C1241 0.930 . S
H1234 C1242 0.930 . S
H1235 C1243 0.930 . S
H1236 C1246 0.930 . S
H1237 C1247 0.930 . S
C1238 H1232 0.930 . S
C1238 C1239 1.355 . S
C1238 C1240 1.415 . S
C1239 C1238 1.355 . S
C1239 C1241 1.419 . S
C1240 C1238 1.415 . S
C1240 C1245 1.425 . S
C1240 C1247 1.409 . S
C1241 H1233 0.930 . S
C1241 C1239 1.419 . S
C1241 C1242 1.362 . S
C1242 H1234 0.930 . S
C1242 C1241 1.362 . S
C1242 C1245 1.409 . S
C1243 H1235 0.930 . S
C1243 C1244 1.355 . S
C1243 C1245 1.415 . S
C1244 C1243 1.355 . S
C1244 C1246 1.419 . S
C1245 C1240 1.425 . S
C1245 C1242 1.409 . S
C1245 C1243 1.415 . S
C1246 H1236 0.930 . S
C1246 C1244 1.419 . S
C1246 C1247 1.362 . S
C1247 H1237 0.930 . S
C1247 C1240 1.409 . S
C1247 C1246 1.362 . S
H1248 C1254 0.930 . S
H1249 C1257 0.930 . S
H1250 C1258 0.930 . S
H1251 C1259 0.930 . S
H1252 C1262 0.930 . S
H1253 C1263 0.930 . S
C1254 H1248 0.930 . S
C1254 C1255 1.355 . S
C1254 C1256 1.415 . S
C1255 C1254 1.355 . S
C1255 C1257 1.419 . S
C1256 C1254 1.415 . S
C1256 C1261 1.425 . S
C1256 C1263 1.409 . S
C1257 H1249 0.930 . S
C1257 C1255 1.419 . S
C1257 C1258 1.362 . S
C1258 H1250 0.930 . S
C1258 C1257 1.362 . S
C1258 C1261 1.409 . S
C1259 H1251 0.930 . S
C1259 C1260 1.355 . S
C1259 C1261 1.415 . S
C1260 C1259 1.355 . S
C1260 C1262 1.419 . S
C1261 C1256 1.425 . S
C1261 C1258 1.409 . S
C1261 C1259 1.415 . S
C1262 H1252 0.930 . S
C1262 C1260 1.419 . S
C1262 C1263 1.362 . S
C1263 H1253 0.930 . S
C1263 C1256 1.409 . S
C1263 C1262 1.362 . S
H1264 C1270 0.930 . S
H1265 C1273 0.930 . S
H1266 C1274 0.930 . S
H1267 C1275 0.930 . S
H1268 C1278 0.930 . S
H1269 C1279 0.930 . S
C1270 H1264 0.930 . S
C1270 C1271 1.355 . S
C1270 C1272 1.415 . S
C1271 C1270 1.355 . S
C1271 C1273 1.419 . S
C1272 C1270 1.415 . S
C1272 C1277 1.425 . S
C1272 C1279 1.409 . S
C1273 H1265 0.930 . S
C1273 C1271 1.419 . S
C1273 C1274 1.362 . S
C1274 H1266 0.930 . S
C1274 C1273 1.362 . S
C1274 C1277 1.409 . S
C1275 H1267 0.930 . S
C1275 C1276 1.355 . S
C1275 C1277 1.415 . S
C1276 C1275 1.355 . S
C1276 C1278 1.419 . S
C1277 C1272 1.425 . S
C1277 C1274 1.409 . S
C1277 C1275 1.415 . S
C1278 H1268 0.930 . S
C1278 C1276 1.419 . S
C1278 C1279 1.362 . S
C1279 H1269 0.930 . S
C1279 C1272 1.409 . S
C1279 C1278 1.362 . S
H1280 C1286 0.930 . S
H1281 C1289 0.930 . S
H1282 C1290 0.930 . S
H1283 C1291 0.930 . S
H1284 C1294 0.930 . S
H1285 C1295 0.930 . S
C1286 H1280 0.930 . S
C1286 C1287 1.355 . S
C1286 C1288 1.415 . S
C1287 C1286 1.355 . S
C1287 C1289 1.419 . S
C1288 C1286 1.415 . S
C1288 C1293 1.425 . S
C1288 C1295 1.409 . S
C1289 H1281 0.930 . S
C1289 C1287 1.419 . S
C1289 C1290 1.362 . S
C1290 H1282 0.930 . S
C1290 C1289 1.362 . S
C1290 C1293 1.409 . S
C1291 H1283 0.930 . S
C1291 C1292 1.355 . S
C1291 C1293 1.415 . S
C1292 C1291 1.355 . S
C1292 C1294 1.419 . S
C1293 C1288 1.425 . S
C1293 C1290 1.409 . S
C1293 C1291 1.415 . S
C1294 H1284 0.930 . S
C1294 C1292 1.419 . S
C1294 C1295 1.362 . S
C1295 H1285 0.930 . S
C1295 C1288 1.409 . S
C1295 C1294 1.362 . S
H1296 C1302 0.930 . S
H1297 C1305 0.930 . S
H1298 C1306 0.930 . S
H1299 C1307 0.930 . S
H1300 C1310 0.930 . S
H1301 C1311 0.930 . S
C1302 H1296 0.930 . S
C1302 C1303 1.355 . S
C1302 C1304 1.415 . S
C1303 C1302 1.355 . S
C1303 C1305 1.419 . S
C1304 C1302 1.415 . S
C1304 C1309 1.425 . S
C1304 C1311 1.409 . S
C1305 H1297 0.930 . S
C1305 C1303 1.419 . S
C1305 C1306 1.362 . S
C1306 H1298 0.930 . S
C1306 C1305 1.362 . S
C1306 C1309 1.409 . S
C1307 H1299 0.930 . S
C1307 C1308 1.355 . S
C1307 C1309 1.415 . S
C1308 C1307 1.355 . S
C1308 C1310 1.419 . S
C1309 C1304 1.425 . S
C1309 C1306 1.409 . S
C1309 C1307 1.415 . S
C1310 H1300 0.930 . S
C1310 C1308 1.419 . S
C1310 C1311 1.362 . S
C1311 H1301 0.930 . S
C1311 C1304 1.409 . S
C1311 C1310 1.362 . S
H1312 C1318 0.930 . S
H1313 C1321 0.930 . S
H1314 C1322 0.930 . S
H1315 C1323 0.930 . S
H1316 C1326 0.930 . S
H1317 C1327 0.930 . S
C1318 H1312 0.930 . S
C1318 C1319 1.355 . S
C1318 C1320 1.415 . S
C1319 C1318 1.355 . S
C1319 C1321 1.419 . S
C1320 C1318 1.415 . S
C1320 C1325 1.425 . S
C1320 C1327 1.409 . S
C1321 H1313 0.930 . S
C1321 C1319 1.419 . S
C1321 C1322 1.362 . S
C1322 H1314 0.930 . S
C1322 C1321 1.362 . S
C1322 C1325 1.409 . S
C1323 H1315 0.930 . S
C1323 C1324 1.355 . S
C1323 C1325 1.415 . S
C1324 C1323 1.355 . S
C1324 C1326 1.419 . S
C1325 C1320 1.425 . S
C1325 C1322 1.409 . S
C1325 C1323 1.415 . S
C1326 H1316 0.930 . S
C1326 C1324 1.419 . S
C1326 C1327 1.362 . S
C1327 H1317 0.930 . S
C1327 C1320 1.409 . S
C1327 C1326 1.362 . S
H1328 C1334 0.930 . S
H1329 C1337 0.930 . S
H1330 C1338 0.930 . S
H1331 C1339 0.930 . S
H1332 C1342 0.930 . S
H1333 C1343 0.930 . S
C1334 H1328 0.930 . S
C1334 C1335 1.355 . S
C1334 C1336 1.415 . S
C1335 C1334 1.355 . S
C1335 C1337 1.419 . S
C1336 C1334 1.415 . S
C1336 C1341 1.425 . S
C1336 C1343 1.409 . S
C1337 H1329 0.930 . S
C1337 C1335 1.419 . S
C1337 C1338 1.362 . S
C1338 H1330 0.930 . S
C1338 C1337 1.362 . S
C1338 C1341 1.409 . S
C1339 H1331 0.930 . S
C1339 C1340 1.355 . S
C1339 C1341 1.415 . S
C1340 C1339 1.355 . S
C1340 C1342 1.419 . S
C1341 C1336 1.425 . S
C1341 C1338 1.409 . S
C1341 C1339 1.415 . S
C1342 H1332 0.930 . S
C1342 C1340 1.419 . S
C1342 C1343 1.362 . S
C1343 H1333 0.930 . S
C1343 C1336 1.409 . S
C1343 C1342 1.362 . S
H1344 C1350 0.930 . S
H1345 C1353 0.930 . S
H1346 C1354 0.930 . S
H1347 C1355 0.930 . S
H1348 C1358 0.930 . S
H1349 C1359 0.930 . S
C1350 H1344 0.930 . S
C1350 C1351 1.355 . S
C1350 C1352 1.415 . S
C1351 C1350 1.355 . S
C1351 C1353 1.419 . S
C1352 C1350 1.415 . S
C1352 C1357 1.425 . S
C1352 C1359 1.409 . S
C1353 H1345 0.930 . S
C1353 C1351 1.419 . S
C1353 C1354 1.362 . S
C1354 H1346 0.930 . S
C1354 C1353 1.362 . S
C1354 C1357 1.409 . S
C1355 H1347 0.930 . S
C1355 C1356 1.355 . S
C1355 C1357 1.415 . S
C1356 C1355 1.355 . S
C1356 C1358 1.419 . S
C1357 C1352 1.425 . S
C1357 C1354 1.409 . S
C1357 C1355 1.415 . S
C1358 H1348 0.930 . S
C1358 C1356 1.419 . S
C1358 C1359 1.362 . S
C1359 H1349 0.930 . S
C1359 C1352 1.409 . S
C1359 C1358 1.362 . S
H1360 C1366 0.930 . S
H1361 C1369 0.930 . S
H1362 C1370 0.930 . S
H1363 C1371 0.930 . S
H1364 C1374 0.930 . S
H1365 C1375 0.930 . S
C1366 H1360 0.930 . S
C1366 C1367 1.355 . S
C1366 C1368 1.415 . S
C1367 C1366 1.355 . S
C1367 C1369 1.419 . S
C1368 C1366 1.415 . S
C1368 C1373 1.425 . S
C1368 C1375 1.409 . S
C1369 H1361 0.930 . S
C1369 C1367 1.419 . S
C1369 C1370 1.362 . S
C1370 H1362 0.930 . S
C1370 C1369 1.362 . S
C1370 C1373 1.409 . S
C1371 H1363 0.930 . S
C1371 C1372 1.355 . S
C1371 C1373 1.415 . S
C1372 C1371 1.355 . S
C1372 C1374 1.419 . S
C1373 C1368 1.425 . S
C1373 C1370 1.409 . S
C1373 C1371 1.415 . S
C1374 H1364 0.930 . S
C1374 C1372 1.419 . S
C1374 C1375 1.362 . S
C1375 H1365 0.930 . S
C1375 C1368 1.409 . S
C1375 C1374 1.362 . S
H1376 C1382 0.930 . S
H1377 C1385 0.930 . S
H1378 C1386 0.930 . S
H1379 C1387 0.930 . S
H1380 C1390 0.930 . S
H1381 C1391 0.930 . S
C1382 H1376 0.930 . S
C1382 C1383 1.355 . S
C1382 C1384 1.415 . S
C1383 C1382 1.355 . S
C1383 C1385 1.419 . S
C1384 C1382 1.415 . S
C1384 C1389 1.425 . S
C1384 C1391 1.409 . S
C1385 H1377 0.930 . S
C1385 C1383 1.419 . S
C1385 C1386 1.362 . S
C1386 H1378 0.930 . S
C1386 C1385 1.362 . S
C1386 C1389 1.409 . S
C1387 H1379 0.930 . S
C1387 C1388 1.355 . S
C1387 C1389 1.415 . S
C1388 C1387 1.355 . S
C1388 C1390 1.419 . S
C1389 C1384 1.425 . S
C1389 C1386 1.409 . S
C1389 C1387 1.415 . S
C1390 H1380 0.930 . S
C1390 C1388 1.419 . S
C1390 C1391 1.362 . S
C1391 H1381 0.930 . S
C1391 C1384 1.409 . S
C1391 C1390 1.362 . S
H1392 C1398 0.930 . S
H1393 C1401 0.930 . S
H1394 C1402 0.930 . S
H1395 C1403 0.930 . S
H1396 C1406 0.930 . S
H1397 C1407 0.930 . S
C1398 H1392 0.930 . S
C1398 C1399 1.355 . S
C1398 C1400 1.415 . S
C1399 C1398 1.355 . S
C1399 C1401 1.419 . S
C1400 C1398 1.415 . S
C1400 C1405 1.425 . S
C1400 C1407 1.409 . S
C1401 H1393 0.930 . S
C1401 C1399 1.419 . S
C1401 C1402 1.362 . S
C1402 H1394 0.930 . S
C1402 C1401 1.362 . S
C1402 C1405 1.409 . S
C1403 H1395 0.930 . S
C1403 C1404 1.355 . S
C1403 C1405 1.415 . S
C1404 C1403 1.355 . S
C1404 C1406 1.419 . S
C1405 C1400 1.425 . S
C1405 C1402 1.409 . S
C1405 C1403 1.415 . S
C1406 H1396 0.930 . S
C1406 C1404 1.419 . S
C1406 C1407 1.362 . S
C1407 H1397 0.930 . S
C1407 C1400 1.409 . S
C1407 C1406 1.362 . S
H1408 C1414 0.930 . S
H1409 C1417 0.930 . S
H1410 C1418 0.930 . S
H1411 C1419 0.930 . S
H1412 C1422 0.930 . S
H1413 C1423 0.930 . S
C1414 H1408 0.930 . S
C1414 C1415 1.355 . S
C1414 C1416 1.415 . S
C1415 C1414 1.355 . S
C1415 C1417 1.419 . S
C1416 C1414 1.415 . S
C1416 C1421 1.425 . S
C1416 C1423 1.409 . S
C1417 H1409 0.930 . S
C1417 C1415 1.419 . S
C1417 C1418 1.362 . S
C1418 H1410 0.930 . S
C1418 C1417 1.362 . S
C1418 C1421 1.409 . S
C1419 H1411 0.930 . S
C1419 C1420 1.355 . S
C1419 C1421 1.415 . S
C1420 C1419 1.355 . S
C1420 C1422 1.419 . S
C1421 C1416 1.425 . S
C1421 C1418 1.409 . S
C1421 C1419 1.415 . S
C1422 H1412 0.930 . S
C1422 C1420 1.419 . S
C1422 C1423 1.362 . S
C1423 H1413 0.930 . S
C1423 C1416 1.409 . S
C1423 C1422 1.362 . S
H1424 C1430 0.930 . S
H1425 C1433 0.930 . S
H1426 C1434 0.930 . S
H1427 C1435 0.930 . S
H1428 C1438 0.930 . S
H1429 C1439 0.930 . S
C1430 H1424 0.930 . S
C1430 C1431 1.355 . S
C1430 C1432 1.415 . S
C1431 C1430 1.355 . S
C1431 C1433 1.419 . S
C1432 C1430 1.415 . S
C1432 C1437 1.425 . S
C1432 C1439 1.409 . S
C1433 H1425 0.930 . S
C1433 C1431 1.419 . S
C1433 C1434 1.362 . S
C1434 H1426 0.930 . S
C1434 C1433 1.362 . S
C1434 C1437 1.409 . S
C1435 H1427 0.930 . S
C1435 C1436 1.355 . S
C1435 C1437 1.415 . S
C1436 C1435 1.355 . S
C1436 C1438 1.419 . S
C1437 C1432 1.425 . S
C1437 C1434 1.409 . S
C1437 C1435 1.415 . S
C1438 H1428 0.930 . S
C1438 C1436 1.419 . S
C1438 C1439 1.362 . S
C1439 H1429 0.930 . S
C1439 C1432 1.409 . S
C1439 C1438 1.362 . S
C423 C160 1.286 . S
C428 C5 1.276 . S
C439 C387 1.334 . S
C444 C16 1.342 . S
C455 C192 1.286 . S
C460 C29 1.272 . S
C471 C413 1.310 . S
C476 C42 1.281 . S
C487 C114 1.299 1_455 S
C492 C57 1.277 . S
C503 C68 1.338 . S
C508 C329 1.324 . S
C519 C81 1.282 . S
C524 C140 1.311 . S
C535 C361 1.338 . S
C540 C96 1.313 . S
C551 C56 1.285 . S
C556 C107 1.302 . S
C567 C277 1.320 . S
C572 C122 1.290 . S
C583 C88 1.342 . S
C588 C133 1.340 . S
C599 C303 1.324 . S
C604 C146 1.338 . S
C615 C161 1.272 . S
C620 C4 1.291 . S
C631 C172 1.288 . S
C636 C225 1.281 . S
C647 C36 1.292 . S
C652 C185 1.272 . S
C663 C198 1.332 . S
C668 C257 1.315 . S
C679 C368 1.339 . S
C684 C213 1.341 . S
C695 C179 1.340 . S
C700 C226 1.341 . S
C711 C400 1.289 1_655 S
C716 C237 1.310 . S
C727 C250 1.334 . S
C732 C205 1.345 . S
C743 C265 1.334 . S
C748 C322 1.318 . S
C759 C278 1.277 . S
C764 C121 1.281 . S
C775 C342 1.290 1_655 S
C780 C291 1.310 . S
C791 C153 1.343 . S
C796 C304 1.338 . S
C807 C264 1.285 . S
C812 C315 1.272 . S
C823 C330 1.297 . S
C828 C75 1.326 . S
C839 C343 1.338 1_655 S
C844 C290 1.344 1_455 S
C855 C354 1.283 . S
C860 C95 1.312 . S
C871 C212 1.310 . S
C876 C369 1.281 . S
C887 C23 1.304 . S
C892 C380 1.277 . S
C903 C244 1.324 1_455 S
C908 C393 1.338 1_655 S
C919 C406 1.304 . S
C924 C49 1.289 . S
C935 C3 1.436 . S
C940 C109 1.436 . S
C951 C18 1.408 . S
C956 C328 1.408 . S
C967 C135 1.406 . S
C972 C31 1.406 . S
C983 C44 1.404 . S
C988 C356 1.404 . S
C999 C55 1.408 . S
C1004 C159 1.408 . S
C1015 C382 1.407 . S
C1020 C70 1.407 . S
C1031 C187 1.441 . S
C1036 C83 1.441 . S
C1047 C94 1.411 . S
C1052 C408 1.411 . S
C1063 C120 1.430 . S
C1068 C224 1.430 . S
C1079 C148 1.423 . S
C1084 C252 1.423 . S
C1095 C174 1.427 . S
C1100 C276 1.427 . S
C1111 C302 1.432 . S
C1116 C200 1.432 . S
C1127 C211 1.437 . S
C1132 C317 1.437 . S
C1143 C239 1.406 . S
C1148 C341 1.406 . S
C1159 C263 1.413 . S
C1164 C367 1.413 . S
C1175 C395 1.405 . S
C1180 C289 1.405 . S
C1191 C10 1.393 . S
C1196 C101 1.401 . S
C1207 C17 1.393 . S
C1212 C62 1.401 . S
C1223 C69 1.403 . S
C1228 C30 1.394 . S
C1239 C82 1.412 . S
C1244 C43 1.403 . S
C1255 C199 1.397 . S
C1260 C108 1.408 . S
C1271 C166 1.405 . S
C1276 C127 1.395 . S
C1287 C173 1.403 . S
C1292 C134 1.413 . S
C1303 C186 1.406 . S
C1308 C147 1.396 . S
C1319 C218 1.401 . S
C1324 C309 1.411 . S
C1335 C270 1.393 . S
C1340 C231 1.402 . S
C1351 C283 1.399 . S
C1356 C238 1.410 . S
C1367 C296 1.394 . S
C1372 C251 1.404 . S
C1383 C407 1.404 . S
C1388 C316 1.413 . S
C1399 C335 1.402 . S
C1404 C374 1.412 . S
C1415 C348 1.413 . S
C1420 C381 1.410 . S
C1431 C394 1.407 . S
C1436 C355 1.414 . S
