# Generated by pormake.
# Topology fns, (5)-cn, num edge types: 1
# Building blocks:
#     Node 0, Type 0, BuildingBlock: XOMCOT_clean_sbu_0, # of connection points: 5
#     Node 1, Type 0, BuildingBlock: XOMCOT_clean_sbu_0, # of connection points: 5
#     Node 2, Type 0, BuildingBlock: XOMCOT_clean_sbu_0, # of connection points: 5
#     Node 3, Type 0, BuildingBlock: XOMCOT_clean_sbu_0, # of connection points: 5
#     Node 4, Type 0, BuildingBlock: XOMCOT_clean_sbu_0, # of connection points: 5
#     Node 5, Type 0, BuildingBlock: XOMCOT_clean_sbu_0, # of connection points: 5
#     Edge 6, Type (0, 0), BuildingBlock: MIFKUJ_clean_linker_0, # of connection points: 2
#     Edge 7, Type (0, 0), BuildingBlock: MIFKUJ_clean_linker_0, # of connection points: 2
#     Edge 8, Type (0, 0), BuildingBlock: MIFKUJ_clean_linker_0, # of connection points: 2
#     Edge 9, Type (0, 0), BuildingBlock: MIFKUJ_clean_linker_0, # of connection points: 2
#     Edge 10, Type (0, 0), BuildingBlock: MIFKUJ_clean_linker_0, # of connection points: 2
#     Edge 11, Type (0, 0), BuildingBlock: MIFKUJ_clean_linker_0, # of connection points: 2
#     Edge 12, Type (0, 0), BuildingBlock: MIFKUJ_clean_linker_0, # of connection points: 2
#     Edge 13, Type (0, 0), BuildingBlock: MIFKUJ_clean_linker_0, # of connection points: 2
#     Edge 14, Type (0, 0), BuildingBlock: MIFKUJ_clean_linker_0, # of connection points: 2
#     Edge 15, Type (0, 0), BuildingBlock: MIFKUJ_clean_linker_0, # of connection points: 2
#     Edge 16, Type (0, 0), BuildingBlock: MIFKUJ_clean_linker_0, # of connection points: 2
#     Edge 17, Type (0, 0), BuildingBlock: MIFKUJ_clean_linker_0, # of connection points: 2
#     Edge 18, Type (0, 0), BuildingBlock: MIFKUJ_clean_linker_0, # of connection points: 2
#     Edge 19, Type (0, 0), BuildingBlock: MIFKUJ_clean_linker_0, # of connection points: 2
#     Edge 20, Type (0, 0), BuildingBlock: MIFKUJ_clean_linker_0, # of connection points: 2
# Relax obj value: 0.201
# Max RMSD: 0.295
# Mean RMSD: 0.294
data_MOF--net-fns--node1-XOMCOT_clean_sbu_0--edge1-MIFKUJ_clean_linker_0
_symmetry_space_group_name_H-M    P1
_symmetry_Int_Tables_number       1
_symmetry_cell_setting            triclinic
loop_
_symmetry_equiv_pos_as_xyz
'x, y, z'
_cell_length_a     70.715408
_cell_length_b     70.816624
_cell_length_c     22.023961
_cell_angle_alpha  90.049751
_cell_angle_beta   89.980409
_cell_angle_gamma 120.0186
loop_
_atom_site_label
_atom_site_type_symbol
_atom_site_fract_x
_atom_site_fract_y
_atom_site_fract_z
_atom_type_partial_charge
Co0 Co 0.18063 0.60889 0.21317 0.0
C1 C 0.18397 0.6068 0.34691 0.0
C2 C 0.2073 0.60107 0.3001 0.0
C3 C 0.21048 0.60064 0.36166 0.0
N4 N 0.19072 0.60494 0.29101 0.0
N5 N 0.19579 0.60421 0.391 0.0
H6 H 0.17109 0.61052 0.35509 0.0
H7 H 0.21663 0.59904 0.26438 0.0
C8 C 0.17102 0.56925 0.14038 0.0
O9 O 0.15319 0.56825 0.11904 0.0
N10 N 0.17126 0.61325 0.13372 0.0
C11 C 0.15497 0.61711 0.11891 0.0
C12 C 0.15394 0.61815 0.05671 0.0
C13 C 0.18047 0.613 0.08007 0.0
N14 N 0.16987 0.6154 0.03234 0.0
C15 C 0.13802 0.59935 0.25363 0.0
C16 C 0.1213 0.55515 0.2699 0.0
C17 C 0.10727 0.56367 0.27591 0.0
C18 C 0.11609 0.58625 0.26981 0.0
C19 C 0.14304 0.56883 0.25352 0.0
N20 N 0.15069 0.59034 0.2408 0.0
H21 H 0.14471 0.61676 0.2504 0.0
H22 H 0.15365 0.56201 0.25147 0.0
H23 H 0.14445 0.6192 0.15002 0.0
H24 H 0.19408 0.61013 0.07603 0.0
O25 O 0.18571 0.63729 0.23916 0.0
O26 O 0.20987 0.63083 0.19341 0.0
O27 O 0.18269 0.58345 0.18024 0.0
C28 C 0.20542 0.64484 0.21795 0.0
H29 H 0.22261 0.59783 0.38318 0.0
H30 H 0.14235 0.62078 0.03135 0.0
H31 H 0.11551 0.53801 0.27765 0.0
H32 H 0.10607 0.5937 0.27572 0.0
Co33 Co 0.56358 0.18378 0.52736 0.0
C34 C 0.569 0.18759 0.66047 0.0
C35 C 0.59888 0.20919 0.61421 0.0
C36 C 0.60255 0.21186 0.67582 0.0
N37 N 0.57791 0.1939 0.60481 0.0
N38 N 0.58374 0.19829 0.70503 0.0
H39 H 0.55201 0.17563 0.66779 0.0
H40 H 0.61067 0.21786 0.5788 0.0
C41 C 0.59566 0.17596 0.45767 0.0
O42 O 0.57983 0.15665 0.44083 0.0
N43 N 0.54941 0.1744 0.44828 0.0
C44 C 0.52785 0.16308 0.43558 0.0
C45 C 0.52501 0.16193 0.37363 0.0
C46 C 0.55919 0.18105 0.39346 0.0
N47 N 0.54478 0.17314 0.34706 0.0
C48 C 0.53269 0.13917 0.5567 0.0
C49 C 0.56305 0.12735 0.58929 0.0
C50 C 0.54086 0.1113 0.58842 0.0
C51 C 0.52558 0.11763 0.57303 0.0
C52 C 0.56943 0.14866 0.57174 0.0
N53 N 0.55439 0.15405 0.55228 0.0
H54 H 0.52064 0.14388 0.54871 0.0
H55 H 0.58653 0.16086 0.57408 0.0
H56 H 0.51479 0.15717 0.46832 0.0
H57 H 0.57652 0.19185 0.3876 0.0
O58 O 0.53919 0.18617 0.55766 0.0
O59 O 0.56829 0.21242 0.51054 0.0
O60 O 0.59171 0.18806 0.49226 0.0
C61 C 0.54969 0.20612 0.53744 0.0
H62 H 0.618 0.22286 0.69713 0.0
H63 H 0.50948 0.15422 0.35019 0.0
H64 H 0.57543 0.12355 0.60353 0.0
H65 H 0.50823 0.10605 0.57251 0.0
Co66 Co 0.37964 0.57568 0.84618 0.0
C67 C 0.38213 0.58116 0.97949 0.0
C68 C 0.39185 0.61137 0.9334 0.0
C69 C 0.39278 0.61499 0.99506 0.0
N70 N 0.38526 0.59021 0.92384 0.0
N71 N 0.38663 0.59598 0.02413 0.0
H72 H 0.37614 0.56399 0.98682 0.0
H73 H 0.39543 0.62329 0.89804 0.0
C74 C 0.41896 0.60521 0.77187 0.0
O75 O 0.42009 0.58812 0.75363 0.0
N76 N 0.37341 0.56134 0.76707 0.0
C77 C 0.36428 0.53988 0.75431 0.0
C78 C 0.36184 0.53697 0.69244 0.0
C79 C 0.37516 0.57093 0.71257 0.0
N80 N 0.36883 0.55654 0.66613 0.0
C81 C 0.39153 0.54337 0.87679 0.0
C82 C 0.43521 0.57258 0.89721 0.0
C83 C 0.42799 0.55022 0.89784 0.0
C84 C 0.40566 0.5355 0.88977 0.0
C85 C 0.42049 0.57968 0.88421 0.0
N86 N 0.39932 0.56515 0.86918 0.0
H87 H 0.37431 0.53193 0.87359 0.0
H88 H 0.42626 0.59696 0.88577 0.0
H89 H 0.35873 0.52689 0.78696 0.0
H90 H 0.38111 0.58817 0.70697 0.0
O91 O 0.35251 0.55219 0.87753 0.0
O92 O 0.35653 0.58198 0.83218 0.0
O93 O 0.40419 0.60303 0.80934 0.0
C94 C 0.34376 0.5636 0.85941 0.0
H95 H 0.39767 0.6305 0.01657 0.0
H96 H 0.35486 0.52151 0.66884 0.0
H97 H 0.45212 0.58452 0.90637 0.0
H98 H 0.39921 0.51805 0.89196 0.0
Co99 Co 0.8024 0.38045 0.18356 0.0
C100 C 0.79995 0.38329 0.31687 0.0
C101 C 0.78046 0.39435 0.27108 0.0
C102 C 0.77827 0.39583 0.33278 0.0
N103 N 0.79413 0.38662 0.26133 0.0
N104 N 0.79051 0.38885 0.36153 0.0
H105 H 0.8109 0.37699 0.32425 0.0
H106 H 0.77235 0.39829 0.23585 0.0
C107 C 0.813 0.41972 0.10762 0.0
O108 O 0.83084 0.42026 0.08818 0.0
N109 N 0.80995 0.37384 0.10436 0.0
C110 C 0.82274 0.36532 0.09049 0.0
C111 C 0.82249 0.3625 0.02859 0.0
C112 C 0.80141 0.37516 0.05067 0.0
N113 N 0.80919 0.36885 1.00355 0.0
C114 C 0.84518 0.38915 0.2184 0.0
C115 C 0.86296 0.43341 0.23703 0.0
C116 C 0.87633 0.42417 0.24395 0.0
C117 C 0.86702 0.40163 0.23572 0.0
C118 C 0.84119 0.42029 0.21971 0.0
N119 N 0.8329 0.39868 0.20676 0.0
H120 H 0.83802 0.3717 0.21598 0.0
H121 H 0.83097 0.42758 0.21769 0.0
H122 H 0.83135 0.36084 0.12233 0.0
H123 H 0.78958 0.38051 0.04628 0.0
O124 O 0.79718 0.3526 0.21383 0.0
O125 O 0.77247 0.35853 0.16924 0.0
O126 O 0.80086 0.40571 0.14728 0.0
C127 C 0.77715 0.34491 0.19536 0.0
H128 H 0.76798 0.40109 0.3547 0.0
H129 H 0.83164 0.35646 1.00394 0.0
H130 H 0.86927 0.45067 0.24436 0.0
H131 H 0.87642 0.3936 0.24365 0.0
Co132 Co 0.43479 0.81158 0.46405 0.0
C133 C 0.42968 0.80756 0.59746 0.0
C134 C 0.40054 0.78424 0.55105 0.0
C135 C 0.39708 0.78104 0.61263 0.0
N136 N 0.42091 0.8009 0.54175 0.0
N137 N 0.41542 0.7957 0.64181 0.0
H138 H 0.4463 0.82048 0.60515 0.0
H139 H 0.38909 0.77491 0.51552 0.0
C140 C 0.4018 0.81846 0.39451 0.0
O141 O 0.41722 0.83689 0.3715 0.0
N142 N 0.44846 0.82167 0.38492 0.0
C143 C 0.4692 0.83696 0.37153 0.0
C144 C 0.47183 0.8382 0.30955 0.0
C145 C 0.43912 0.81319 0.3306 0.0
N146 N 0.45288 0.82332 0.28381 0.0
C147 C 0.46625 0.85458 0.50406 0.0
C148 C 0.43714 0.86901 0.52652 0.0
C149 C 0.45954 0.88359 0.5328 0.0
C150 C 0.47416 0.87605 0.5227 0.0
C151 C 0.42998 0.84774 0.50667 0.0
N152 N 0.4446 0.84117 0.49193 0.0
H153 H 0.4776 0.84869 0.50016 0.0
H154 H 0.41264 0.83653 0.50428 0.0
H155 H 0.482 0.84627 0.4036 0.0
H156 H 0.42244 0.80007 0.32547 0.0
O157 O 0.4591 0.80838 0.49094 0.0
O158 O 0.42944 0.78292 0.44429 0.0
O159 O 0.40645 0.80762 0.4319 0.0
C160 C 0.448 0.7885 0.47038 0.0
H161 H 0.38214 0.7689 0.63414 0.0
H162 H 0.48675 0.84892 0.28537 0.0
H163 H 0.42532 0.8741 0.53589 0.0
H164 H 0.49153 0.88661 0.52982 0.0
Co165 Co 0.60943 0.42513 0.81894 0.0
C166 C 0.60494 0.41859 0.95414 0.0
C167 C 0.59759 0.38951 0.90559 0.0
C168 C 0.59627 0.38515 0.96683 0.0
N169 N 0.6026 0.41038 0.89735 0.0
N170 N 0.60089 0.40348 0.9974 0.0
H171 H 0.6107 0.43546 0.96434 0.0
H172 H 0.5955 0.3783 0.86935 0.0
C173 C 0.56456 0.38631 0.80134 0.0
O174 O 0.55863 0.38892 0.8558 0.0
N175 N 0.61647 0.43916 0.74061 0.0
C176 C 0.62418 0.46041 0.72859 0.0
C177 C 0.62577 0.46325 0.66648 0.0
C178 C 0.6137 0.4294 0.68614 0.0
N179 N 0.61916 0.44373 0.63991 0.0
C180 C 0.60003 0.45559 0.87916 0.0
C181 C 0.5627 0.44527 0.81399 0.0
C182 C 0.56931 0.46068 0.8605 0.0
C183 C 0.58837 0.46618 0.89273 0.0
C184 C 0.57477 0.43503 0.80213 0.0
N185 N 0.59249 0.43927 0.83692 0.0
H186 H 0.61546 0.46098 0.90151 0.0
H187 H 0.57014 0.42421 0.76362 0.0
H188 H 0.62805 0.47287 0.76253 0.0
H189 H 0.60727 0.41205 0.68049 0.0
O190 O 0.63762 0.44692 0.84985 0.0
O191 O 0.63042 0.41588 0.80539 0.0
O192 O 0.58368 0.39927 0.78108 0.0
C193 C 0.64458 0.43396 0.8316 0.0
H194 H 0.59243 0.36973 0.98713 0.0
H195 H 0.63139 0.47853 0.64279 0.0
H196 H 0.54851 0.44143 0.7865 0.0
H197 H 0.59439 0.4788 0.92717 0.0
H198 H 0.17155 0.56219 0.01932 0.0
H199 H 0.19579 0.55211 0.96743 0.0
H200 H 0.21637 0.54002 0.14047 0.0
H201 H 0.19312 0.55138 0.19245 0.0
H202 H 0.24975 0.56729 0.08028 0.0
H203 H 0.18696 0.49864 0.02934 0.0
H204 H 0.14994 0.47454 0.98913 0.0
H205 H 0.17051 0.50343 0.81271 0.0
H206 H 0.20756 0.52798 0.85203 0.0
H207 H 0.31206 0.52482 0.90653 0.0
H208 H 0.27661 0.51699 0.94773 0.0
H209 H 0.28923 0.58045 0.89045 0.0
H210 H 0.32436 0.58828 0.84832 0.0
H211 H 0.23802 0.52167 0.89754 0.0
H212 H 0.28309 0.60192 0.03108 0.0
H213 H 0.32012 0.6275 0.06877 0.0
H214 H 0.33421 0.57527 0.08021 0.0
H215 H 0.29699 0.54922 0.04496 0.0
C216 C 0.18065 0.55659 0.0461 0.0
C217 C 0.18051 0.55748 0.10978 0.0
C218 C 0.19446 0.55077 0.01639 0.0
C219 C 0.20782 0.54514 0.04995 0.0
C220 C 0.20626 0.54434 0.1136 0.0
C221 C 0.19292 0.5507 0.14328 0.0
C222 C 0.22567 0.54341 0.01969 0.0
C223 C 0.24703 0.55702 0.0409 0.0
C224 C 0.22226 0.53022 0.96778 0.0
C225 C 0.20005 0.51523 0.94378 0.0
C226 C 0.18357 0.49994 0.98204 0.0
C227 C 0.16257 0.48619 0.95939 0.0
C228 C 0.15787 0.48746 0.89842 0.0
C229 C 0.17419 0.50242 0.85989 0.0
C230 C 0.19519 0.51626 0.88235 0.0
C231 C 0.30701 0.53687 0.9014 0.0
C232 C 0.32105 0.55725 0.87486 0.0
C233 C 0.28674 0.53231 0.92457 0.0
C234 C 0.28049 0.54822 0.92232 0.0
C235 C 0.29385 0.56801 0.89248 0.0
C236 C 0.31393 0.57245 0.86862 0.0
C237 C 0.26172 0.54562 0.95825 0.0
C238 C 0.24042 0.53147 0.93777 0.0
C239 C 0.26508 0.55831 0.01096 0.0
C240 C 0.28732 0.57366 0.03439 0.0
C241 C 0.29403 0.59585 0.04203 0.0
C242 C 0.31504 0.61043 0.0631 0.0
C243 C 0.32953 0.60303 0.07657 0.0
C244 C 0.32301 0.58101 0.06935 0.0
C245 C 0.30193 0.56631 0.04897 0.0
H246 H 0.34576 0.61438 0.09286 0.0
H247 H 0.14159 0.47684 0.88101 0.0
H248 H 0.60764 0.162 0.35593 0.0
H249 H 0.64215 0.18203 0.30023 0.0
H250 H 0.6666 0.23229 0.43743 0.0
H251 H 0.63277 0.21221 0.49384 0.0
H252 H 0.65639 0.22016 0.24959 0.0
H253 H 0.71964 0.25921 0.44806 0.0
H254 H 0.72781 0.24764 0.54534 0.0
H255 H 0.69537 0.18117 0.484 0.0
H256 H 0.68727 0.19235 0.38594 0.0
H257 H 0.73331 0.32851 0.19735 0.0
H258 H 0.70525 0.29213 0.2278 0.0
H259 H 0.75422 0.27313 0.24813 0.0
H260 H 0.78263 0.31019 0.22107 0.0
H261 H 0.73059 0.2599 0.33935 0.0
H262 H 0.71216 0.25118 0.13133 0.0
H263 H 0.70392 0.25979 0.0297 0.0
H264 H 0.64797 0.26087 0.10113 0.0
H265 H 0.656 0.25255 0.20332 0.0
C266 C 0.62064 0.177 0.37503 0.0
C267 C 0.61744 0.18561 0.42908 0.0
C268 C 0.64029 0.18849 0.34294 0.0
C269 C 0.65702 0.20864 0.36463 0.0
C270 C 0.65417 0.21661 0.42019 0.0
C271 C 0.63467 0.20517 0.45222 0.0
C272 C 0.67631 0.22286 0.32665 0.0
C273 C 0.67271 0.22861 0.26863 0.0
C274 C 0.69772 0.23342 0.35079 0.0
C275 C 0.70279 0.22664 0.40956 0.0
C276 C 0.71439 0.24214 0.45505 0.0
C277 C 0.71897 0.23564 0.51043 0.0
C278 C 0.71209 0.21368 0.52087 0.0
C279 C 0.70064 0.19817 0.47591 0.0
C280 C 0.69603 0.20458 0.42044 0.0
C281 C 0.73807 0.31649 0.20745 0.0
C282 C 0.76013 0.32215 0.20704 0.0
C283 C 0.72195 0.29555 0.2243 0.0
C284 C 0.72745 0.2796 0.23923 0.0
C285 C 0.74949 0.28508 0.23674 0.0
C286 C 0.76572 0.30623 0.22124 0.0
C287 C 0.71046 0.25813 0.26354 0.0
C288 C 0.71447 0.25104 0.31912 0.0
C289 C 0.68955 0.246 0.23642 0.0
C290 C 0.68476 0.25131 0.17513 0.0
C291 C 0.6982 0.25342 0.12548 0.0
C292 C 0.69354 0.25822 0.06773 0.0
C293 C 0.67546 0.2609 0.05898 0.0
C294 C 0.662 0.25882 0.10799 0.0
C295 C 0.66657 0.25402 0.16582 0.0
H296 H 0.67185 0.26457 0.01421 0.0
H297 H 0.71565 0.20869 0.56379 0.0
H298 H 0.4803 0.79222 0.54653 0.0
H299 H 0.48399 0.76207 0.58763 0.0
H300 H 0.4329 0.71721 0.468 0.0
H301 H 0.42911 0.7471 0.4268 0.0
H302 H 0.42358 0.70838 0.59032 0.0
H303 H 0.48177 0.72389 0.45091 0.0
H304 H 0.51717 0.747 0.40052 0.0
H305 H 0.55013 0.75883 0.57194 0.0
H306 H 0.51488 0.73603 0.62353 0.0
H307 H 0.43828 0.61337 0.66011 0.0
H308 H 0.45272 0.64745 0.60279 0.0
H309 H 0.44435 0.67908 0.75957 0.0
H310 H 0.42951 0.64505 0.81666 0.0
H311 H 0.48499 0.69388 0.61357 0.0
H312 H 0.41421 0.70063 0.71317 0.0
H313 H 0.37921 0.67759 0.76578 0.0
H314 H 0.37127 0.62127 0.66994 0.0
H315 H 0.40602 0.64403 0.61588 0.0
C316 C 0.47037 0.77605 0.52759 0.0
C317 C 0.45419 0.77193 0.48414 0.0
C318 C 0.47253 0.75886 0.55105 0.0
C319 C 0.4586 0.73744 0.53108 0.0
C320 C 0.44374 0.73364 0.48407 0.0
C321 C 0.44159 0.75075 0.46065 0.0
C322 C 0.45685 0.71873 0.56551 0.0
C323 C 0.43701 0.7052 0.59502 0.0
C324 C 0.47444 0.71472 0.57208 0.0
C325 C 0.49565 0.72841 0.54116 0.0
C326 C 0.49654 0.73158 0.47796 0.0
C327 C 0.51659 0.74459 0.44916 0.0
C328 C 0.53588 0.75442 0.48303 0.0
C329 C 0.53517 0.75122 0.54577 0.0
C330 C 0.51516 0.73823 0.5748 0.0
C331 C 0.44019 0.62778 0.68293 0.0
C332 C 0.43241 0.62652 0.74239 0.0
C333 C 0.44854 0.64725 0.6502 0.0
C334 C 0.44929 0.66562 0.67681 0.0
C335 C 0.4437 0.66498 0.7382 0.0
C336 C 0.43512 0.64552 0.77061 0.0
C337 C 0.45179 0.68378 0.63819 0.0
C338 C 0.47165 0.69715 0.60838 0.0
C339 C 0.43421 0.68775 0.63096 0.0
C340 C 0.41277 0.67402 0.66086 0.0
C341 C 0.40489 0.68336 0.70294 0.0
C342 C 0.38512 0.67035 0.73305 0.0
C343 C 0.37306 0.64797 0.72126 0.0
C344 C 0.38066 0.63859 0.67902 0.0
C345 C 0.40038 0.65154 0.64861 0.0
H346 H 0.35781 0.6379 0.74482 0.0
H347 H 0.55139 0.76448 0.46064 0.0
H348 H 0.67524 0.46568 0.9048 0.0
H349 H 0.71043 0.46992 0.93516 0.0
H350 H 0.69983 0.41721 0.81546 0.0
H351 H 0.66446 0.41257 0.78607 0.0
H352 H 0.7089 0.40984 0.92389 0.0
H353 H 0.74097 0.47022 0.78893 0.0
H354 H 0.74769 0.5047 0.7425 0.0
H355 H 0.77171 0.53779 0.9127 0.0
H356 H 0.76485 0.50344 0.96044 0.0
H357 H 0.82293 0.43689 0.99286 0.0
H358 H 0.80062 0.44711 0.93095 0.0
H359 H 0.76047 0.43944 0.08673 0.0
H360 H 0.78243 0.4291 0.14859 0.0
H361 H 0.78075 0.4777 0.94344 0.0
H362 H 0.71221 0.39932 0.04445 0.0
H363 H 0.70665 0.36489 0.08877 0.0
H364 H 0.75655 0.36719 0.9728 0.0
H365 H 0.76247 0.40169 0.92796 0.0
C366 C 0.68062 0.45528 0.88413 0.0
C367 C 0.66704 0.43866 0.84355 0.0
C368 C 0.7008 0.4578 0.90123 0.0
C369 C 0.70782 0.44393 0.87741 0.0
C370 C 0.69472 0.42806 0.83451 0.0
C371 C 0.67451 0.42542 0.81781 0.0
C372 C 0.72739 0.44417 0.90258 0.0
C373 C 0.72464 0.42467 0.92716 0.0
C374 C 0.74803 0.46346 0.90686 0.0
C375 C 0.75224 0.48419 0.87837 0.0
C376 C 0.74753 0.48481 0.8166 0.0
C377 C 0.75139 0.50434 0.79002 0.0
C378 C 0.76008 0.52342 0.82465 0.0
C379 C 0.76497 0.523 0.88593 0.0
C380 C 0.76113 0.50351 0.91276 0.0
C381 C 0.80987 0.43821 0.01444 0.0
C382 C 0.80413 0.43182 0.07524 0.0
C383 C 0.7972 0.44409 0.97902 0.0
C384 C 0.77885 0.44379 1.00434 0.0
C385 C 0.77456 0.43968 0.06652 0.0
C386 C 0.78707 0.43369 0.10169 0.0
C387 C 0.76185 0.44356 0.96503 0.0
C388 C 0.76505 0.46293 0.93856 0.0
C389 C 0.74166 0.42411 0.95772 0.0
C390 C 0.73783 0.4031 0.98316 0.0
C391 C 0.72193 0.39242 0.02829 0.0
C392 C 0.71879 0.37296 0.05365 0.0
C393 C 0.73135 0.36394 0.03384 0.0
C394 C 0.747 0.37431 0.98842 0.0
C395 C 0.75028 0.39384 0.96314 0.0
H396 H 0.72891 0.34889 0.05356 0.0
H397 H 0.76306 0.53853 0.80398 0.0
H398 H 0.36599 0.78552 0.44823 0.0
H399 H 0.32948 0.76473 0.40681 0.0
H400 H 0.34848 0.80836 0.25331 0.0
H401 H 0.38576 0.82902 0.29403 0.0
H402 H 0.29677 0.76889 0.37769 0.0
H403 H 0.3214 0.77725 0.12693 0.0
H404 H 0.35266 0.78508 0.06056 0.0
H405 H 0.37975 0.76342 0.20022 0.0
H406 H 0.34858 0.7553 0.26712 0.0
H407 H 0.201 0.6806 0.24229 0.0
H408 H 0.23063 0.7184 0.25719 0.0
H409 H 0.27804 0.69791 0.22678 0.0
H410 H 0.24887 0.66092 0.20883 0.0
H411 H 0.29271 0.73471 0.17801 0.0
H412 H 0.25841 0.70399 0.37403 0.0
H413 H 0.22734 0.68854 0.44521 0.0
H414 H 0.22244 0.74641 0.42968 0.0
H415 H 0.25324 0.76199 0.35731 0.0
C416 C 0.36244 0.79092 0.40597 0.0
C417 C 0.3789 0.80869 0.37387 0.0
C418 C 0.3414 0.77909 0.38252 0.0
C419 C 0.33621 0.78475 0.32647 0.0
C420 C 0.35218 0.80348 0.29624 0.0
C421 C 0.37343 0.81535 0.3197 0.0
C422 C 0.31483 0.76946 0.29814 0.0
C423 C 0.29581 0.76166 0.33352 0.0
C424 C 0.31344 0.75997 0.24051 0.0
C425 C 0.33286 0.766 0.20221 0.0
C426 C 0.33412 0.77432 0.14354 0.0
C427 C 0.35176 0.77872 0.1058 0.0
C428 C 0.36812 0.77469 0.12614 0.0
C429 C 0.36706 0.76654 0.18457 0.0
C430 C 0.34944 0.76208 0.22246 0.0
C431 C 0.21779 0.68435 0.23815 0.0
C432 C 0.22266 0.66785 0.2246 0.0
C433 C 0.2347 0.70591 0.24677 0.0
C434 C 0.25666 0.71107 0.24368 0.0
C435 C 0.26133 0.69454 0.22886 0.0
C436 C 0.24457 0.67328 0.21896 0.0
C437 C 0.27511 0.73305 0.25957 0.0
C438 C 0.29346 0.7424 0.22129 0.0
C439 C 0.27617 0.74325 0.31581 0.0
C440 C 0.25787 0.73399 0.35971 0.0
C441 C 0.2506 0.71334 0.38556 0.0
C442 C 0.23305 0.70457 0.4261 0.0
C443 C 0.22288 0.71647 0.44189 0.0
C444 C 0.23029 0.73719 0.41727 0.0
C445 C 0.24776 0.74598 0.37641 0.0
H446 H 0.20927 0.70968 0.47323 0.0
H447 H 0.38153 0.77775 0.09641 0.0
H448 H 0.52291 0.2048 0.62827 0.0
H449 H 0.51585 0.23398 0.65783 0.0
H450 H 0.55176 0.27139 0.50115 0.0
H451 H 0.5597 0.24267 0.47327 0.0
H452 H 0.56711 0.29489 0.59504 0.0
H453 H 0.49462 0.25034 0.52127 0.0
H454 H 0.45888 0.21691 0.50902 0.0
H455 H 0.44625 0.21709 0.69966 0.0
H456 H 0.48205 0.25037 0.71326 0.0
H457 H 0.56088 0.38414 0.67888 0.0
H458 H 0.54661 0.35107 0.61754 0.0
H459 H 0.52322 0.31187 0.77963 0.0
H460 H 0.53691 0.34501 0.8412 0.0
H461 H 0.49886 0.2901 0.67196 0.0
H462 H 0.574 0.33176 0.74458 0.0
H463 H 0.60891 0.36627 0.75527 0.0
H464 H 0.61603 0.37116 0.56131 0.0
H465 H 0.58099 0.33682 0.54964 0.0
C466 C 0.52884 0.21904 0.59944 0.0
C467 C 0.54199 0.22163 0.54884 0.0
C468 C 0.52469 0.23568 0.61614 0.0
C469 C 0.53318 0.2549 0.58157 0.0
C470 C 0.54511 0.25677 0.5287 0.0
C471 C 0.54964 0.24037 0.51277 0.0
C472 C 0.53223 0.27412 0.60475 0.0
C473 C 0.55203 0.29386 0.61034 0.0
C474 C 0.5127 0.27278 0.62629 0.0
C475 C 0.49111 0.25279 0.61833 0.0
C476 C 0.4843 0.24317 0.56067 0.0
C477 C 0.46401 0.22426 0.55347 0.0
C478 C 0.45032 0.21486 0.60355 0.0
C479 C 0.45687 0.22439 0.66092 0.0
C480 C 0.47715 0.2433 0.66837 0.0
C481 C 0.55187 0.36843 0.70111 0.0
C482 C 0.55032 0.367 0.76469 0.0
C483 C 0.54364 0.34957 0.66602 0.0
C484 C 0.53436 0.32911 0.69429 0.0
C485 C 0.5304 0.32754 0.75708 0.0
C486 C 0.53829 0.34647 0.79223 0.0
C487 C 0.5336 0.31051 0.66154 0.0
C488 C 0.51369 0.291 0.65505 0.0
C489 C 0.55301 0.31196 0.63882 0.0
C490 C 0.57469 0.33194 0.64615 0.0
C491 C 0.58297 0.34025 0.70423 0.0
C492 C 0.60278 0.35977 0.71049 0.0
C493 C 0.61464 0.37095 0.65901 0.0
C494 C 0.60679 0.36253 0.60117 0.0
C495 C 0.58695 0.34306 0.5947 0.0
H496 H 0.62994 0.3861 0.66394 0.0
H497 H 0.43462 0.20022 0.59788 0.0
H498 H 0.13942 0.59906 0.94359 0.0
H499 H 0.14541 0.59624 0.83549 0.0
H500 H 0.21448 0.62457 0.86811 0.0
H501 H 0.20854 0.62745 0.97686 0.0
H502 H 0.20442 0.64346 0.76972 0.0
H503 H 0.18655 0.57306 0.84089 0.0
H504 H 0.16505 0.5382 0.89496 0.0
H505 H 0.11049 0.52118 0.7772 0.0
H506 H 0.1314 0.55623 0.7234 0.0
H507 H 0.22818 0.61934 0.47443 0.0
H508 H 0.22456 0.62063 0.58465 0.0
H509 H 0.15497 0.59298 0.56521 0.0
H510 H 0.15854 0.59166 0.45454 0.0
H511 H 0.16703 0.57316 0.65807 0.0
H512 H 0.18306 0.64466 0.59606 0.0
H513 H 0.20353 0.67993 0.54356 0.0
H514 H 0.2613 0.69435 0.64393 0.0
H515 H 0.24108 0.65902 0.69707 0.0
C516 C 0.1559 0.60481 0.92777 0.0
C517 C 0.17354 0.61362 0.96869 0.0
C518 C 0.15928 0.60301 0.86605 0.0
C519 C 0.18037 0.61009 0.84382 0.0
C520 C 0.19806 0.61897 0.88441 0.0
C521 C 0.19465 0.62052 0.94646 0.0
C522 C 0.18383 0.60866 0.77785 0.0
C523 C 0.19658 0.62804 0.74551 0.0
C524 C 0.17317 0.58857 0.7461 0.0
C525 C 0.16051 0.56743 0.7784 0.0
C526 C 0.16989 0.56202 0.82687 0.0
C527 C 0.15782 0.5422 0.85745 0.0
C528 C 0.13644 0.52749 0.83953 0.0
C529 C 0.12706 0.5326 0.79105 0.0
C530 C 0.139 0.55246 0.76053 0.0
C531 C 0.2121 0.61345 0.49363 0.0
C532 C 0.19363 0.60538 0.45583 0.0
C533 C 0.21007 0.6143 0.55658 0.0
C534 C 0.18951 0.60694 0.58314 0.0
C535 C 0.17099 0.59872 0.54563 0.0
C536 C 0.17306 0.59814 0.48248 0.0
C537 C 0.18744 0.60797 0.65005 0.0
C538 C 0.17498 0.58852 0.68249 0.0
C539 C 0.19835 0.62797 0.68202 0.0
C540 C 0.21064 0.64912 0.64999 0.0
C541 C 0.20018 0.65527 0.60655 0.0
C542 C 0.21173 0.67531 0.57679 0.0
C543 C 0.23376 0.68937 0.59013 0.0
C544 C 0.24425 0.68343 0.63353 0.0
C545 C 0.23274 0.66343 0.6636 0.0
H546 H 0.24268 0.70488 0.567 0.0
H547 H 0.12717 0.51212 0.86315 0.0
H548 H 0.55043 0.16441 0.76561 0.0
H549 H 0.5444 0.16083 0.87506 0.0
H550 H 0.60305 0.22268 0.90261 0.0
H551 H 0.60897 0.22679 0.7933 0.0
H552 H 0.59969 0.19013 0.98069 0.0
H553 H 0.55576 0.2205 0.91455 0.0
H554 H 0.52777 0.22218 0.85177 0.0
H555 H 0.47906 0.15959 0.91902 0.0
H556 H 0.50684 0.15738 0.98154 0.0
H557 H 0.58082 0.2057 0.29124 0.0
H558 H 0.58844 0.21002 0.18238 0.0
H559 H 0.52702 0.15157 0.14742 0.0
H560 H 0.51937 0.14699 0.25594 0.0
H561 H 0.53237 0.18303 0.07237 0.0
H562 H 0.57561 0.15326 0.14335 0.0
H563 H 0.60363 0.14998 0.20121 0.0
H564 H 0.65383 0.20913 0.12095 0.0
H565 H 0.62608 0.21348 0.06497 0.0
C566 C 0.56196 0.17742 0.79457 0.0
C567 C 0.58018 0.19595 0.76997 0.0
C568 C 0.55852 0.17527 0.85733 0.0
C569 C 0.57323 0.19155 0.8969 0.0
C570 C 0.59154 0.20989 0.87284 0.0
C571 C 0.59492 0.21215 0.8101 0.0
C572 C 0.56946 0.18948 0.96345 0.0
C573 C 0.58517 0.18892 1.00111 0.0
C574 C 0.5502 0.18732 0.98948 0.0
C575 C 0.53343 0.18868 0.95227 0.0
C576 C 0.53912 0.20701 0.91558 0.0
C577 C 0.52328 0.20807 0.8801 0.0
C578 C 0.50166 0.19097 0.88129 0.0
C579 C 0.49582 0.17281 0.91809 0.0
C580 C 0.5116 0.17165 0.95359 0.0
C581 C 0.56899 0.19363 0.26061 0.0
C582 C 0.5494 0.176 0.28271 0.0
C583 C 0.57339 0.19615 0.19823 0.0
C584 C 0.55836 0.18104 0.15668 0.0
C585 C 0.53882 0.16349 0.17856 0.0
C586 C 0.53442 0.16096 0.24077 0.0
C587 C 0.56266 0.18367 0.09026 0.0
C588 C 0.54701 0.18434 0.05241 0.0
C589 C 0.58199 0.18584 0.06417 0.0
C590 C 0.59864 0.18389 0.10057 0.0
C591 C 0.59256 0.16589 0.13907 0.0
C592 C 0.60842 0.16383 0.17156 0.0
C593 C 0.63048 0.17944 0.16505 0.0
C594 C 0.63672 0.19722 0.12647 0.0
C595 C 0.62092 0.19954 0.09457 0.0
H596 H 0.64278 0.17767 0.18947 0.0
H597 H 0.48943 0.19182 0.85379 0.0
H598 H 0.37316 0.53324 0.57507 0.0
H599 H 0.37598 0.54109 0.46661 0.0
H600 H 0.37086 0.59828 0.50178 0.0
H601 H 0.36754 0.59022 0.61074 0.0
H602 H 0.34545 0.57428 0.40384 0.0
H603 H 0.4192 0.60457 0.47007 0.0
H604 H 0.45015 0.60485 0.52236 0.0
H605 H 0.4443 0.55353 0.40587 0.0
H606 H 0.41305 0.55269 0.3535 0.0
H607 H 0.38236 0.62091 0.11109 0.0
H608 H 0.37887 0.61454 0.2202 0.0
H609 H 0.3832 0.55644 0.1953 0.0
H610 H 0.38685 0.56274 0.08569 0.0
H611 H 0.40953 0.58254 0.28879 0.0
H612 H 0.33377 0.55011 0.2298 0.0
H613 H 0.3024 0.54939 0.17855 0.0
H614 H 0.31308 0.60574 0.27978 0.0
H615 H 0.34437 0.6066 0.33225 0.0
C616 C 0.37236 0.54735 0.55988 0.0
C617 C 0.3701 0.56109 0.60184 0.0
C618 C 0.37417 0.55193 0.49778 0.0
C619 C 0.37383 0.57038 0.47607 0.0
C620 C 0.37122 0.58397 0.51754 0.0
C621 C 0.3695 0.57945 0.57988 0.0
C622 C 0.37641 0.57543 0.41005 0.0
C623 C 0.35962 0.57643 0.37888 0.0
C624 C 0.39472 0.57786 0.3772 0.0
C625 C 0.41365 0.57843 0.4082 0.0
C626 C 0.4244 0.59322 0.45589 0.0
C627 C 0.44202 0.5935 0.48551 0.0
C628 C 0.44916 0.57918 0.46752 0.0
C629 C 0.43873 0.56459 0.41978 0.0
C630 C 0.42108 0.56422 0.39008 0.0
C631 C 0.38259 0.60676 0.12844 0.0
C632 C 0.3847 0.59225 0.08902 0.0
C633 C 0.38045 0.60308 0.19105 0.0
C634 C 0.38054 0.58489 0.21591 0.0
C635 C 0.38297 0.57053 0.17705 0.0
C636 C 0.3849 0.57409 0.11425 0.0
C637 C 0.37846 0.58111 0.28256 0.0
C638 C 0.39539 0.58044 0.31385 0.0
C639 C 0.36034 0.57906 0.31552 0.0
C640 C 0.34147 0.57852 0.28456 0.0
C641 C 0.32945 0.56238 0.24098 0.0
C642 C 0.31164 0.56189 0.21191 0.0
C643 C 0.30582 0.57757 0.22565 0.0
C644 C 0.31763 0.59362 0.26909 0.0
C645 C 0.33532 0.59404 0.29878 0.0
H646 H 0.29214 0.57728 0.20266 0.0
H647 H 0.4628 0.57942 0.4905 0.0
H648 H 0.8106 0.34339 0.91378 0.0
H649 H 0.80659 0.3469 0.8049 0.0
H650 H 0.79486 0.40018 0.83895 0.0
H651 H 0.79892 0.39675 0.94803 0.0
H652 H 0.76772 0.37333 0.75251 0.0
H653 H 0.84466 0.40992 0.79073 0.0
H654 H 0.87907 0.41378 0.83003 0.0
H655 H 0.87113 0.36111 0.71587 0.0
H656 H 0.83649 0.35672 0.67651 0.0
H657 H 0.78617 0.41325 0.4494 0.0
H658 H 0.78841 0.40966 0.55907 0.0
H659 H 0.80136 0.3569 0.5308 0.0
H660 H 0.79919 0.36046 0.42096 0.0
H661 H 0.82796 0.38426 0.61494 0.0
H662 H 0.75066 0.34785 0.57674 0.0
H663 H 0.71637 0.34443 0.53792 0.0
H664 H 0.72519 0.39741 0.65215 0.0
H665 H 0.75971 0.40136 0.69102 0.0
C666 C 0.80723 0.35589 0.89815 0.0
C667 C 0.80527 0.36991 0.93966 0.0
C668 C 0.80492 0.35787 0.83585 0.0
C669 C 0.80081 0.37406 0.81359 0.0
C670 C 0.7981 0.38761 0.855 0.0
C671 C 0.80037 0.3856 0.91741 0.0
C672 C 0.79981 0.37707 0.74709 0.0
C673 C 0.781 0.37601 0.72249 0.0
C674 C 0.81699 0.3802 0.70774 0.0
C675 C 0.83788 0.38286 0.73111 0.0
C676 C 0.85017 0.39905 0.77435 0.0
C677 C 0.86973 0.40135 0.79658 0.0
C678 C 0.87726 0.38767 0.77557 0.0
C679 C 0.86526 0.37168 0.73216 0.0
C680 C 0.84568 0.36929 0.70983 0.0
C681 C 0.78933 0.40077 0.46647 0.0
C682 C 0.79239 0.38707 0.42628 0.0
C683 C 0.7906 0.39873 0.52927 0.0
C684 C 0.79473 0.38279 0.55333 0.0
C685 C 0.79813 0.36931 0.51334 0.0
C686 C 0.79697 0.37141 0.45049 0.0
C687 C 0.79577 0.38032 0.62014 0.0
C688 C 0.81465 0.38156 0.64487 0.0
C689 C 0.77867 0.37743 0.65955 0.0
C690 C 0.75789 0.37504 0.63632 0.0
C691 C 0.74538 0.35889 0.59321 0.0
C692 C 0.72589 0.35683 0.57126 0.0
C693 C 0.71864 0.37073 0.59243 0.0
C694 C 0.73084 0.38668 0.63572 0.0
C695 C 0.75036 0.38882 0.65775 0.0
H696 H 0.70354 0.36911 0.57539 0.0
H697 H 0.8924 0.38947 0.79284 0.0
H698 H 0.47138 0.853 0.19379 0.0
H699 H 0.46395 0.84708 0.08526 0.0
H700 H 0.41652 0.7796 0.11905 0.0
H701 H 0.42409 0.78542 0.22814 0.0
H702 H 0.44139 0.78333 0.02322 0.0
H703 H 0.40116 0.81732 0.08795 0.0
H704 H 0.3948 0.84492 0.1368 0.0
H705 H 0.4407 0.89383 0.0154 0.0
H706 H 0.44752 0.86648 0.96628 0.0
H707 H 0.39507 0.76433 0.72745 0.0
H708 H 0.40047 0.76832 0.83713 0.0
H709 H 0.44959 0.83589 0.81369 0.0
H710 H 0.44375 0.8322 0.70383 0.0
H711 H 0.422 0.83086 0.90505 0.0
H712 H 0.46363 0.79719 0.84427 0.0
H713 H 0.46907 0.76918 0.79364 0.0
H714 H 0.41993 0.71969 0.90719 0.0
H715 H 0.41399 0.74737 0.95799 0.0
C716 C 0.45944 0.83686 0.1782 0.0
C717 C 0.4483 0.81969 0.21969 0.0
C718 C 0.45505 0.83355 0.1161 0.0
C719 C 0.43935 0.813 0.09399 0.0
C720 C 0.42847 0.79568 0.13512 0.0
C721 C 0.43274 0.79904 0.19747 0.0
C722 C 0.43452 0.8097 0.02787 0.0
C723 C 0.43682 0.7935 0.99757 0.0
C724 C 0.42896 0.82326 0.99409 0.0
C725 C 0.42496 0.83981 0.02369 0.0
C726 C 0.41 0.83395 0.07189 0.0
C727 C 0.4063 0.84957 0.09962 0.0
C728 C 0.41737 0.87114 0.07929 0.0
C729 C 0.43214 0.87711 0.03113 0.0
C730 C 0.43591 0.86154 1.0033 0.0
C731 C 0.4069 0.7801 0.7455 0.0
C732 C 0.41897 0.79795 0.70662 0.0
C733 C 0.41012 0.7823 0.8083 0.0
C734 C 0.4256 0.80234 0.83366 0.0
C735 C 0.4376 0.82024 0.79511 0.0
C736 C 0.43438 0.81806 0.73224 0.0
C737 C 0.42915 0.80471 0.90042 0.0
C738 C 0.42654 0.82068 0.93082 0.0
C739 C 0.43439 0.79094 0.93426 0.0
C740 C 0.43822 0.77433 0.90452 0.0
C741 C 0.45389 0.78031 0.85819 0.0
C742 C 0.45707 0.7645 0.82949 0.0
C743 C 0.4448 0.74266 0.84705 0.0
C744 C 0.4294 0.73661 0.89357 0.0
C745 C 0.42613 0.75236 0.92238 0.0
H746 H 0.44726 0.73043 0.8247 0.0
H747 H 0.41448 0.88322 0.10079 0.0
H748 H 0.5955 0.43329 0.06109 0.0
H749 H 0.59854 0.43906 0.17083 0.0
H750 H 0.61218 0.3865 0.19204 0.0
H751 H 0.60926 0.38068 0.08224 0.0
H752 H 0.58411 0.38451 0.27829 0.0
H753 H 0.65312 0.4392 0.19944 0.0
H754 H 0.67781 0.46967 0.13298 0.0
H755 H 0.65305 0.50921 0.20671 0.0
H756 H 0.62798 0.47885 0.27302 0.0
H757 H 0.6228 0.41161 0.5837 0.0
H758 H 0.61958 0.40358 0.47484 0.0
H759 H 0.6081 0.45706 0.44167 0.0
H760 H 0.6115 0.4652 0.5502 0.0
H761 H 0.63584 0.45769 0.36144 0.0
H762 H 0.56681 0.40235 0.44204 0.0
H763 H 0.54287 0.37172 0.50913 0.0
H764 H 0.56803 0.33295 0.43245 0.0
H765 H 0.59252 0.36353 0.36595 0.0
C766 C 0.59933 0.42305 0.08893 0.0
C767 C 0.60229 0.40661 0.06251 0.0
C768 C 0.601 0.42633 0.1518 0.0
C769 C 0.60585 0.41338 0.18977 0.0
C770 C 0.6084 0.39668 0.16376 0.0
C771 C 0.60668 0.39336 0.10084 0.0
C772 C 0.60857 0.4175 0.25641 0.0
C773 C 0.59562 0.40044 0.29656 0.0
C774 C 0.62336 0.43834 0.28032 0.0
C775 C 0.63853 0.45668 0.24079 0.0
C776 C 0.65283 0.45434 0.20116 0.0
C777 C 0.66691 0.4716 0.16356 0.0
C778 C 0.66696 0.49135 0.16551 0.0
C779 C 0.65297 0.4939 0.20519 0.0
C780 C 0.63884 0.47668 0.24284 0.0
C781 C 0.61942 0.42152 0.55323 0.0
C782 C 0.61737 0.43902 0.57569 0.0
C783 C 0.61758 0.41693 0.49095 0.0
C784 C 0.61334 0.42956 0.4499 0.0
C785 C 0.61142 0.4471 0.47229 0.0
C786 C 0.61343 0.45179 0.53441 0.0
C787 C 0.61117 0.4248 0.38353 0.0
C788 C 0.62431 0.44174 0.34333 0.0
C789 C 0.59658 0.40382 0.35975 0.0
C790 C 0.58167 0.38534 0.39937 0.0
C791 C 0.56738 0.38736 0.43981 0.0
C792 C 0.5537 0.37 0.47774 0.0
C793 C 0.55395 0.35042 0.4751 0.0
C794 C 0.56786 0.34814 0.43446 0.0
C795 C 0.58167 0.36549 0.39671 0.0
H796 H 0.54336 0.33699 0.5045 0.0
H797 H 0.67787 0.50469 0.13636 0.0
H798 H 0.89523 0.45817 0.32497 0.0
H799 H 0.93421 0.48186 0.34566 0.0
H800 H 0.94942 0.44491 0.2188 0.0
H801 H 0.91059 0.42132 0.19753 0.0
H802 H 0.97376 0.45432 0.32144 0.0
H803 H 0.95352 0.49292 0.1778 0.0
H804 H 0.9321 0.50955 0.14228 0.0
H805 H 0.95339 0.55246 0.29648 0.0
H806 H 0.97472 0.53585 0.33335 0.0
H807 H 0.08111 0.52408 0.22356 0.0
H808 H 0.04186 0.50042 0.23537 0.0
H809 H 0.04003 0.54623 0.36109 0.0
H810 H 0.07958 0.57008 0.34982 0.0
H811 H 0.00852 0.53339 0.27626 0.0
H812 H 0.03292 0.4979 0.41233 0.0
H813 H 0.05466 0.48143 0.44623 0.0
H814 H 0.0259 0.43278 0.30661 0.0
H815 H 0.00422 0.44915 0.27126 0.0
C816 C 0.90688 0.45514 0.30133 0.0
C817 C 0.89982 0.43793 0.25932 0.0
C818 C 0.92913 0.46863 0.31339 0.0
C819 C 0.94469 0.46524 0.28337 0.0
C820 C 0.93766 0.44775 0.24264 0.0
C821 C 0.91546 0.43426 0.23062 0.0
C822 C 0.96838 0.48028 0.29243 0.0
C823 C 0.98141 0.47159 0.31131 0.0
C824 C 0.97822 0.50292 0.28098 0.0
C825 C 0.96549 0.51297 0.25869 0.0
C826 C 0.95349 0.50578 0.20437 0.0
C827 C 0.94139 0.51522 0.18396 0.0
C828 C 0.94133 0.532 0.2172 0.0
C829 C 0.95342 0.53942 0.27085 0.0
C830 C 0.96552 0.53001 0.29151 0.0
C831 C 0.07249 0.52897 0.2547 0.0
C832 C 0.08353 0.54893 0.28603 0.0
C833 C 0.05001 0.51542 0.26134 0.0
C834 C 0.03806 0.52141 0.29975 0.0
C835 C 0.04898 0.54128 0.33135 0.0
C836 C 0.07154 0.55491 0.32469 0.0
C837 C 0.01402 0.50735 0.30394 0.0
C838 C 0.00089 0.5162 0.28751 0.0
C839 C 0.0041 0.48485 0.31761 0.0
C840 C 0.01703 0.47486 0.33891 0.0
C841 C 0.03134 0.48378 0.38857 0.0
C842 C 0.04364 0.47445 0.40809 0.0
C843 C 0.04169 0.45609 0.37853 0.0
C844 C 0.0274 0.447 0.32946 0.0
C845 C 0.01507 0.45629 0.30972 0.0
H846 H 0.05122 0.44889 0.39371 0.0
H847 H 0.93195 0.5393 0.20132 0.0
H848 H 0.562 0.08894 0.55917 0.0
H849 H 0.54817 0.04988 0.56814 0.0
H850 H 0.48926 0.04135 0.65146 0.0
H851 H 0.50336 0.08062 0.64588 0.0
H852 H 0.52949 0.01747 0.67053 0.0
H853 H 0.44878 -0.00127 0.56337 0.0
H854 H 0.43315 0.01676 0.50198 0.0
H855 H 0.49539 0.05678 0.41682 0.0
H856 H 0.51125 0.03874 0.47697 0.0
H857 H 0.44773 0.9 0.62881 0.0
H858 H 0.46169 0.93872 0.65323 0.0
H859 H 0.50319 0.9575 0.49522 0.0
H860 H 0.4898 0.91903 0.47157 0.0
H861 H 0.46975 0.97545 0.52299 0.0
H862 H 0.53159 0.96692 0.59195 0.0
H863 H 0.54678 0.94876 0.6544 0.0
H864 H 0.52232 0.96326 0.81577 0.0
H865 H 0.5067 0.98122 0.75402 0.0
C866 C 0.54642 0.07897 0.58133 0.0
C867 C 0.5337 0.08801 0.60104 0.0
C868 C 0.53854 0.05661 0.58627 0.0
C869 C 0.51769 0.04283 0.61006 0.0
C870 C 0.50538 0.0518 0.63269 0.0
C871 C 0.51338 0.07422 0.62869 0.0
C872 C 0.50787 0.01898 0.60424 0.0
C873 C 0.51633 0.00824 0.63864 0.0
C874 C 0.49068 0.007 0.56276 0.0
C875 C 0.48123 0.01758 0.52518 0.0
C876 C 0.45908 0.01132 0.53136 0.0
C877 C 0.45019 0.02154 0.49679 0.0
C878 C 0.46329 0.03797 0.4557 0.0
C879 C 0.48528 0.04412 0.44884 0.0
C880 C 0.49423 0.03392 0.4832 0.0
C881 C 0.45988 0.91246 0.59958 0.0
C882 C 0.46779 0.90668 0.54848 0.0
C883 C 0.46784 0.93445 0.61359 0.0
C884 C 0.48347 0.95078 0.57603 0.0
C885 C 0.49119 0.94502 0.52475 0.0
C886 C 0.4836 0.92313 0.51145 0.0
C887 C 0.49149 0.97399 0.58882 0.0
C888 C 0.48265 0.98461 0.55566 0.0
C889 C 0.50827 0.9858 0.6314 0.0
C890 C 0.51774 0.97512 0.66837 0.0
C891 C 0.52924 0.966 0.64067 0.0
C892 C 0.53798 0.95581 0.67594 0.0
C893 C 0.53545 0.95478 0.739 0.0
C894 C 0.52423 0.96402 0.76692 0.0
C895 C 0.51544 0.97421 0.73182 0.0
H896 H 0.54223 0.94689 0.76624 0.0
H897 H 0.45639 0.04589 0.42906 0.0
H898 H 0.46762 0.56677 0.84304 0.0
H899 H 0.49262 0.55244 0.84598 0.0
H900 H 0.44907 0.50137 0.96756 0.0
H901 H 0.42402 0.5159 0.96578 0.0
H902 H 0.49407 0.52009 0.99805 0.0
H903 H 0.44665 0.48898 0.82594 0.0
H904 H 0.42809 0.48998 0.73227 0.0
H905 H 0.49015 0.52934 0.64558 0.0
H906 H 0.5091 0.52886 0.73913 0.0
H907 H 0.53694 0.44899 0.94304 0.0
H908 H 0.51388 0.46548 0.95779 0.0
H909 H 0.55064 0.51332 0.81993 0.0
H910 H 0.57333 0.49647 0.80454 0.0
H911 H 0.50821 0.49554 0.80072 0.0
H912 H 0.5559 0.52672 0.97191 0.0
H913 H 0.57473 0.52633 0.06569 0.0
H914 H 0.51293 0.48747 0.15414 0.0
H915 H 0.49371 0.48737 0.06055 0.0
C916 C 0.46353 0.55274 0.87138 0.0
C917 C 0.44381 0.5424 0.90402 0.0
C918 C 0.47776 0.5445 0.87267 0.0
C919 C 0.47254 0.52574 0.90647 0.0
C920 C 0.45332 0.51585 0.9411 0.0
C921 C 0.43897 0.52404 0.93963 0.0
C922 C 0.48661 0.51586 0.90255 0.0
C923 C 0.49699 0.51444 0.95516 0.0
C924 C 0.49064 0.50891 0.84628 0.0
C925 C 0.47929 0.50905 0.78974 0.0
C926 C 0.45634 0.49799 0.78707 0.0
C927 C 0.44575 0.49845 0.73397 0.0
C928 C 0.45793 0.50976 0.68305 0.0
C929 C 0.48074 0.5206 0.68508 0.0
C930 C 0.49141 0.52023 0.73811 0.0
C931 C 0.54014 0.46319 0.91664 0.0
C932 C 0.55679 0.47166 0.873 0.0
C933 C 0.52709 0.47263 0.92513 0.0
C934 C 0.53067 0.49075 0.89032 0.0
C935 C 0.54762 0.49937 0.84729 0.0
C936 C 0.56058 0.48986 0.83866 0.0
C937 C 0.51603 0.49999 0.89613 0.0
C938 C 0.50539 0.5012 0.84375 0.0
C939 C 0.51185 0.50677 0.95261 0.0
C940 C 0.52336 0.50685 0.00901 0.0
C941 C 0.54632 0.51794 0.01119 0.0
C942 C 0.55706 0.51783 0.06435 0.0
C943 C 0.54503 0.50683 0.11579 0.0
C944 C 0.52223 0.49596 0.11423 0.0
C945 C 0.5114 0.49599 0.06116 0.0
H946 H 0.55338 0.50677 0.1569 0.0
H947 H 0.44971 0.5101 0.64198 0.0
loop_
_geom_bond_atom_site_label_1
_geom_bond_atom_site_label_2
_geom_bond_distance
_geom_bond_site_symmetry_2
_ccdc_geom_bond_type
Co0 N4 2.148 . S
Co0 N10 2.128 . S
Co0 N20 2.194 . S
Co0 O25 2.351 . S
Co0 O26 2.155 . S
Co0 O27 2.096 . S
C1 N4 1.301 . S
C1 N5 1.328 . S
C1 H6 0.930 . S
C2 C3 1.333 . S
C2 N4 1.317 . S
C2 H7 0.930 . S
C3 C2 1.333 . S
C3 N5 1.350 . S
C3 H29 0.931 . S
N4 Co0 2.148 . S
N4 C1 1.301 . S
N4 C2 1.317 . S
N5 C1 1.328 . S
N5 C3 1.350 . S
H6 C1 0.930 . S
H7 C2 0.930 . S
C8 O9 1.224 . S
C8 O27 1.247 . S
O9 C8 1.224 . S
N10 Co0 2.128 . S
N10 C11 1.355 . S
N10 C13 1.311 . S
C11 N10 1.355 . S
C11 C12 1.363 . S
C11 H23 0.929 . S
C12 C11 1.363 . S
C12 N14 1.375 1_554 S
C12 H30 0.931 1_554 S
C13 N10 1.311 . S
C13 N14 1.347 1_554 S
C13 H24 0.929 . S
N14 C12 1.375 1_556 S
N14 C13 1.347 1_556 S
C15 C18 1.365 . S
C15 N20 1.328 . S
C15 H21 0.929 . S
C16 C17 1.362 . S
C16 C19 1.378 . S
C16 H31 0.929 . S
C17 C16 1.362 . S
C17 C18 1.366 . S
C18 C15 1.365 . S
C18 C17 1.366 . S
C18 H32 0.930 . S
C19 C16 1.378 . S
C19 N20 1.315 . S
C19 H22 0.930 . S
N20 Co0 2.194 . S
N20 C15 1.328 . S
N20 C19 1.315 . S
H21 C15 0.929 . S
H22 C19 0.930 . S
H23 C11 0.929 . S
H24 C13 0.929 . S
O25 Co0 2.351 . S
O25 C28 1.244 . S
O26 Co0 2.155 . S
O26 C28 1.240 . S
O27 Co0 2.096 . S
O27 C8 1.247 . S
C28 O25 1.244 . S
C28 O26 1.240 . S
H29 C3 0.931 . S
H30 C12 0.931 1_556 S
H31 C16 0.929 . S
H32 C18 0.930 . S
Co33 N37 2.148 . S
Co33 N43 2.128 . S
Co33 N53 2.194 . S
Co33 O58 2.351 . S
Co33 O59 2.155 . S
Co33 O60 2.096 . S
C34 N37 1.301 . S
C34 N38 1.328 . S
C34 H39 0.930 . S
C35 C36 1.333 . S
C35 N37 1.317 . S
C35 H40 0.930 . S
C36 C35 1.333 . S
C36 N38 1.350 . S
C36 H62 0.931 . S
N37 Co33 2.148 . S
N37 C34 1.301 . S
N37 C35 1.317 . S
N38 C34 1.328 . S
N38 C36 1.350 . S
H39 C34 0.930 . S
H40 C35 0.930 . S
C41 O42 1.224 . S
C41 O60 1.247 . S
O42 C41 1.224 . S
N43 Co33 2.128 . S
N43 C44 1.355 . S
N43 C46 1.311 . S
C44 N43 1.355 . S
C44 C45 1.363 . S
C44 H56 0.929 . S
C45 C44 1.363 . S
C45 N47 1.375 . S
C45 H63 0.931 . S
C46 N43 1.311 . S
C46 N47 1.347 . S
C46 H57 0.929 . S
N47 C45 1.375 . S
N47 C46 1.347 . S
C48 C51 1.365 . S
C48 N53 1.328 . S
C48 H54 0.929 . S
C49 C50 1.362 . S
C49 C52 1.378 . S
C49 H64 0.929 . S
C50 C49 1.362 . S
C50 C51 1.366 . S
C51 C48 1.365 . S
C51 C50 1.366 . S
C51 H65 0.930 . S
C52 C49 1.378 . S
C52 N53 1.315 . S
C52 H55 0.930 . S
N53 Co33 2.194 . S
N53 C48 1.328 . S
N53 C52 1.315 . S
H54 C48 0.929 . S
H55 C52 0.930 . S
H56 C44 0.929 . S
H57 C46 0.929 . S
O58 Co33 2.351 . S
O58 C61 1.244 . S
O59 Co33 2.155 . S
O59 C61 1.240 . S
O60 Co33 2.096 . S
O60 C41 1.247 . S
C61 O58 1.244 . S
C61 O59 1.240 . S
H62 C36 0.931 . S
H63 C45 0.931 . S
H64 C49 0.929 . S
H65 C51 0.930 . S
Co66 N70 2.148 . S
Co66 N76 2.128 . S
Co66 N86 2.194 . S
Co66 O91 2.351 . S
Co66 O92 2.155 . S
Co66 O93 2.096 . S
C67 N70 1.301 . S
C67 N71 1.328 1_556 S
C67 H72 0.930 . S
C68 C69 1.333 . S
C68 N70 1.317 . S
C68 H73 0.930 . S
C69 C68 1.333 . S
C69 N71 1.350 1_556 S
C69 H95 0.931 1_556 S
N70 Co66 2.148 . S
N70 C67 1.301 . S
N70 C68 1.317 . S
N71 C67 1.328 1_554 S
N71 C69 1.350 1_554 S
H72 C67 0.930 . S
H73 C68 0.930 . S
C74 O75 1.224 . S
C74 O93 1.247 . S
O75 C74 1.224 . S
N76 Co66 2.128 . S
N76 C77 1.355 . S
N76 C79 1.311 . S
C77 N76 1.355 . S
C77 C78 1.363 . S
C77 H89 0.929 . S
C78 C77 1.363 . S
C78 N80 1.375 . S
C78 H96 0.931 . S
C79 N76 1.311 . S
C79 N80 1.347 . S
C79 H90 0.929 . S
N80 C78 1.375 . S
N80 C79 1.347 . S
C81 C84 1.365 . S
C81 N86 1.328 . S
C81 H87 0.929 . S
C82 C83 1.362 . S
C82 C85 1.378 . S
C82 H97 0.929 . S
C83 C82 1.362 . S
C83 C84 1.366 . S
C84 C81 1.365 . S
C84 C83 1.366 . S
C84 H98 0.930 . S
C85 C82 1.378 . S
C85 N86 1.315 . S
C85 H88 0.930 . S
N86 Co66 2.194 . S
N86 C81 1.328 . S
N86 C85 1.315 . S
H87 C81 0.929 . S
H88 C85 0.930 . S
H89 C77 0.929 . S
H90 C79 0.929 . S
O91 Co66 2.351 . S
O91 C94 1.244 . S
O92 Co66 2.155 . S
O92 C94 1.240 . S
O93 Co66 2.096 . S
O93 C74 1.247 . S
C94 O91 1.244 . S
C94 O92 1.240 . S
H95 C69 0.931 1_554 S
H96 C78 0.931 . S
H97 C82 0.929 . S
H98 C84 0.930 . S
Co99 N103 2.148 . S
Co99 N109 2.128 . S
Co99 N119 2.194 . S
Co99 O124 2.351 . S
Co99 O125 2.155 . S
Co99 O126 2.096 . S
C100 N103 1.301 . S
C100 N104 1.328 . S
C100 H105 0.930 . S
C101 C102 1.333 . S
C101 N103 1.317 . S
C101 H106 0.930 . S
C102 C101 1.333 . S
C102 N104 1.350 . S
C102 H128 0.931 . S
N103 Co99 2.148 . S
N103 C100 1.301 . S
N103 C101 1.317 . S
N104 C100 1.328 . S
N104 C102 1.350 . S
H105 C100 0.930 . S
H106 C101 0.930 . S
C107 O108 1.224 . S
C107 O126 1.247 . S
O108 C107 1.224 . S
N109 Co99 2.128 . S
N109 C110 1.355 . S
N109 C112 1.311 . S
C110 N109 1.355 . S
C110 C111 1.363 . S
C110 H122 0.929 . S
C111 C110 1.363 . S
C111 N113 1.375 1_554 S
C111 H129 0.931 1_554 S
C112 N109 1.311 . S
C112 N113 1.347 1_554 S
C112 H123 0.929 . S
N113 C111 1.375 1_556 S
N113 C112 1.347 1_556 S
C114 C117 1.365 . S
C114 N119 1.328 . S
C114 H120 0.929 . S
C115 C116 1.362 . S
C115 C118 1.378 . S
C115 H130 0.929 . S
C116 C115 1.362 . S
C116 C117 1.366 . S
C117 C114 1.365 . S
C117 C116 1.366 . S
C117 H131 0.930 . S
C118 C115 1.378 . S
C118 N119 1.315 . S
C118 H121 0.930 . S
N119 Co99 2.194 . S
N119 C114 1.328 . S
N119 C118 1.315 . S
H120 C114 0.929 . S
H121 C118 0.930 . S
H122 C110 0.929 . S
H123 C112 0.929 . S
O124 Co99 2.351 . S
O124 C127 1.244 . S
O125 Co99 2.155 . S
O125 C127 1.240 . S
O126 Co99 2.096 . S
O126 C107 1.247 . S
C127 O124 1.244 . S
C127 O125 1.240 . S
H128 C102 0.931 . S
H129 C111 0.931 1_556 S
H130 C115 0.929 . S
H131 C117 0.930 . S
Co132 N136 2.148 . S
Co132 N142 2.128 . S
Co132 N152 2.194 . S
Co132 O157 2.351 . S
Co132 O158 2.155 . S
Co132 O159 2.096 . S
C133 N136 1.301 . S
C133 N137 1.328 . S
C133 H138 0.930 . S
C134 C135 1.333 . S
C134 N136 1.317 . S
C134 H139 0.930 . S
C135 C134 1.333 . S
C135 N137 1.350 . S
C135 H161 0.931 . S
N136 Co132 2.148 . S
N136 C133 1.301 . S
N136 C134 1.317 . S
N137 C133 1.328 . S
N137 C135 1.350 . S
H138 C133 0.930 . S
H139 C134 0.930 . S
C140 O141 1.224 . S
C140 O159 1.247 . S
O141 C140 1.224 . S
N142 Co132 2.128 . S
N142 C143 1.355 . S
N142 C145 1.311 . S
C143 N142 1.355 . S
C143 C144 1.363 . S
C143 H155 0.929 . S
C144 C143 1.363 . S
C144 N146 1.375 . S
C144 H162 0.931 . S
C145 N142 1.311 . S
C145 N146 1.347 . S
C145 H156 0.929 . S
N146 C144 1.375 . S
N146 C145 1.347 . S
C147 C150 1.365 . S
C147 N152 1.328 . S
C147 H153 0.929 . S
C148 C149 1.362 . S
C148 C151 1.378 . S
C148 H163 0.929 . S
C149 C148 1.362 . S
C149 C150 1.366 . S
C150 C147 1.365 . S
C150 C149 1.366 . S
C150 H164 0.930 . S
C151 C148 1.378 . S
C151 N152 1.315 . S
C151 H154 0.930 . S
N152 Co132 2.194 . S
N152 C147 1.328 . S
N152 C151 1.315 . S
H153 C147 0.929 . S
H154 C151 0.930 . S
H155 C143 0.929 . S
H156 C145 0.929 . S
O157 Co132 2.351 . S
O157 C160 1.244 . S
O158 Co132 2.155 . S
O158 C160 1.240 . S
O159 Co132 2.096 . S
O159 C140 1.247 . S
C160 O157 1.244 . S
C160 O158 1.240 . S
H161 C135 0.931 . S
H162 C144 0.931 . S
H163 C148 0.929 . S
H164 C150 0.930 . S
Co165 N169 2.148 . S
Co165 N175 2.128 . S
Co165 N185 2.194 . S
Co165 O190 2.351 . S
Co165 O191 2.155 . S
Co165 O192 2.096 . S
C166 N169 1.301 . S
C166 N170 1.328 1_556 S
C166 H171 0.930 . S
C167 C168 1.333 . S
C167 N169 1.317 . S
C167 H172 0.930 . S
C168 C167 1.333 . S
C168 N170 1.350 1_556 S
C168 H194 0.931 1_556 S
N169 Co165 2.148 . S
N169 C166 1.301 . S
N169 C167 1.317 . S
N170 C166 1.328 1_554 S
N170 C168 1.350 1_554 S
H171 C166 0.930 . S
H172 C167 0.930 . S
C173 O174 1.224 . S
C173 O192 1.247 . S
O174 C173 1.224 . S
N175 Co165 2.128 . S
N175 C176 1.355 . S
N175 C178 1.311 . S
C176 N175 1.355 . S
C176 C177 1.363 . S
C176 H188 0.929 . S
C177 C176 1.363 . S
C177 N179 1.375 . S
C177 H195 0.931 . S
C178 N175 1.311 . S
C178 N179 1.347 . S
C178 H189 0.929 . S
N179 C177 1.375 . S
N179 C178 1.347 . S
C180 C183 1.365 . S
C180 N185 1.328 . S
C180 H186 0.929 . S
C181 C182 1.362 . S
C181 C184 1.378 . S
C181 H196 0.929 . S
C182 C181 1.362 . S
C182 C183 1.366 . S
C183 C180 1.365 . S
C183 C182 1.366 . S
C183 H197 0.930 . S
C184 C181 1.378 . S
C184 N185 1.315 . S
C184 H187 0.930 . S
N185 Co165 2.194 . S
N185 C180 1.328 . S
N185 C184 1.315 . S
H186 C180 0.929 . S
H187 C184 0.930 . S
H188 C176 0.929 . S
H189 C178 0.929 . S
O190 Co165 2.351 . S
O190 C193 1.244 . S
O191 Co165 2.155 . S
O191 C193 1.240 . S
O192 Co165 2.096 . S
O192 C173 1.247 . S
C193 O190 1.244 . S
C193 O191 1.240 . S
H194 C168 0.931 1_554 S
H195 C177 0.931 . S
H196 C181 0.929 . S
H197 C183 0.930 . S
H198 C216 0.951 . S
H199 C218 0.951 1_556 S
H200 C220 0.950 . S
H201 C221 0.950 . S
H202 C223 0.950 . S
H203 C226 0.950 1_554 S
H204 C227 0.950 . S
H205 C229 0.950 . S
H206 C230 0.950 . S
H207 C231 0.951 . S
H208 C233 0.951 1_554 S
H209 C235 0.950 . S
H210 C236 0.950 . S
H211 C238 0.950 . S
H212 C241 0.950 1_556 S
H213 C242 0.950 1_556 S
H214 C244 0.950 . S
H215 C245 0.950 . S
C216 H198 0.951 . S
C216 C217 1.366 . S
C216 C218 1.388 . S
C217 C216 1.366 . S
C217 C221 1.385 . S
C218 H199 0.951 1_554 S
C218 C216 1.388 . S
C218 C219 1.366 . S
C219 C218 1.366 . S
C219 C220 1.414 . S
C219 C222 1.499 . S
C220 H200 0.950 . S
C220 C219 1.414 . S
C220 C221 1.374 . S
C221 H201 0.950 . S
C221 C217 1.385 . S
C221 C220 1.374 . S
C222 C219 1.499 . S
C222 C223 1.373 . S
C222 C224 1.389 1_554 S
C223 H202 0.950 . S
C223 C222 1.373 . S
C223 C239 1.377 . S
C224 C222 1.389 1_556 S
C224 C225 1.524 . S
C224 C238 1.377 . S
C225 C224 1.524 . S
C225 C226 1.397 . S
C225 C230 1.363 . S
C226 H203 0.950 1_556 S
C226 C225 1.397 . S
C226 C227 1.334 . S
C227 H204 0.950 . S
C227 C226 1.334 . S
C227 C228 1.287 . S
C228 C227 1.287 . S
C228 C229 1.524 . S
C228 H247 0.913 . S
C229 H205 0.950 . S
C229 C228 1.524 . S
C229 C230 1.415 . S
C230 H206 0.950 . S
C230 C225 1.363 . S
C230 C229 1.415 . S
C231 H207 0.951 . S
C231 C232 1.366 . S
C231 C233 1.388 . S
C232 C231 1.366 . S
C232 C236 1.385 . S
C233 H208 0.951 1_556 S
C233 C231 1.388 . S
C233 C234 1.366 . S
C234 C233 1.366 . S
C234 C235 1.414 . S
C234 C237 1.499 . S
C235 H209 0.950 . S
C235 C234 1.414 . S
C235 C236 1.374 . S
C236 H210 0.950 . S
C236 C232 1.385 . S
C236 C235 1.374 . S
C237 C234 1.499 . S
C237 C238 1.373 . S
C237 C239 1.389 1_556 S
C238 H211 0.950 . S
C238 C224 1.377 . S
C238 C237 1.373 . S
C239 C223 1.377 . S
C239 C237 1.389 1_554 S
C239 C240 1.524 . S
C240 C239 1.524 . S
C240 C241 1.397 . S
C240 C245 1.363 . S
C241 H212 0.950 1_554 S
C241 C240 1.397 . S
C241 C242 1.334 . S
C242 H213 0.950 1_554 S
C242 C241 1.334 . S
C242 C243 1.287 . S
C243 C242 1.287 . S
C243 C244 1.524 . S
C243 H246 0.999 . S
C244 H214 0.950 . S
C244 C243 1.524 . S
C244 C245 1.415 . S
C245 H215 0.950 . S
C245 C240 1.363 . S
C245 C244 1.415 . S
H246 C243 0.999 . S
H247 C228 0.913 . S
H248 C266 0.951 . S
H249 C268 0.951 . S
H250 C270 0.950 . S
H251 C271 0.950 . S
H252 C273 0.950 . S
H253 C276 0.950 . S
H254 C277 0.950 . S
H255 C279 0.950 . S
H256 C280 0.950 . S
H257 C281 0.951 . S
H258 C283 0.951 . S
H259 C285 0.950 . S
H260 C286 0.950 . S
H261 C288 0.950 . S
H262 C291 0.950 . S
H263 C292 0.950 . S
H264 C294 0.950 . S
H265 C295 0.950 . S
C266 H248 0.951 . S
C266 C267 1.366 . S
C266 C268 1.388 . S
C267 C266 1.366 . S
C267 C271 1.385 . S
C268 H249 0.951 . S
C268 C266 1.388 . S
C268 C269 1.366 . S
C269 C268 1.366 . S
C269 C270 1.414 . S
C269 C272 1.499 . S
C270 H250 0.950 . S
C270 C269 1.414 . S
C270 C271 1.374 . S
C271 H251 0.950 . S
C271 C267 1.385 . S
C271 C270 1.374 . S
C272 C269 1.499 . S
C272 C273 1.373 . S
C272 C274 1.389 . S
C273 H252 0.950 . S
C273 C272 1.373 . S
C273 C289 1.377 . S
C274 C272 1.389 . S
C274 C275 1.524 . S
C274 C288 1.377 . S
C275 C274 1.524 . S
C275 C276 1.397 . S
C275 C280 1.363 . S
C276 H253 0.950 . S
C276 C275 1.397 . S
C276 C277 1.334 . S
C277 H254 0.950 . S
C277 C276 1.334 . S
C277 C278 1.287 . S
C278 C277 1.287 . S
C278 C279 1.524 . S
C278 H297 0.913 . S
C279 H255 0.950 . S
C279 C278 1.524 . S
C279 C280 1.415 . S
C280 H256 0.950 . S
C280 C275 1.363 . S
C280 C279 1.415 . S
C281 H257 0.951 . S
C281 C282 1.366 . S
C281 C283 1.388 . S
C282 C281 1.366 . S
C282 C286 1.385 . S
C283 H258 0.951 . S
C283 C281 1.388 . S
C283 C284 1.366 . S
C284 C283 1.366 . S
C284 C285 1.414 . S
C284 C287 1.499 . S
C285 H259 0.950 . S
C285 C284 1.414 . S
C285 C286 1.374 . S
C286 H260 0.950 . S
C286 C282 1.385 . S
C286 C285 1.374 . S
C287 C284 1.499 . S
C287 C288 1.373 . S
C287 C289 1.389 . S
C288 H261 0.950 . S
C288 C274 1.377 . S
C288 C287 1.373 . S
C289 C273 1.377 . S
C289 C287 1.389 . S
C289 C290 1.524 . S
C290 C289 1.524 . S
C290 C291 1.397 . S
C290 C295 1.363 . S
C291 H262 0.950 . S
C291 C290 1.397 . S
C291 C292 1.334 . S
C292 H263 0.950 . S
C292 C291 1.334 . S
C292 C293 1.287 . S
C293 C292 1.287 . S
C293 C294 1.524 . S
C293 H296 0.999 . S
C294 H264 0.950 . S
C294 C293 1.524 . S
C294 C295 1.415 . S
C295 H265 0.950 . S
C295 C290 1.363 . S
C295 C294 1.415 . S
H296 C293 0.999 . S
H297 C278 0.913 . S
H298 C316 0.951 . S
H299 C318 0.951 . S
H300 C320 0.950 . S
H301 C321 0.950 . S
H302 C323 0.950 . S
H303 C326 0.950 . S
H304 C327 0.950 . S
H305 C329 0.950 . S
H306 C330 0.950 . S
H307 C331 0.951 . S
H308 C333 0.951 . S
H309 C335 0.950 . S
H310 C336 0.950 . S
H311 C338 0.950 . S
H312 C341 0.950 . S
H313 C342 0.950 . S
H314 C344 0.950 . S
H315 C345 0.950 . S
C316 H298 0.951 . S
C316 C317 1.366 . S
C316 C318 1.388 . S
C317 C316 1.366 . S
C317 C321 1.385 . S
C318 H299 0.951 . S
C318 C316 1.388 . S
C318 C319 1.366 . S
C319 C318 1.366 . S
C319 C320 1.414 . S
C319 C322 1.499 . S
C320 H300 0.950 . S
C320 C319 1.414 . S
C320 C321 1.374 . S
C321 H301 0.950 . S
C321 C317 1.385 . S
C321 C320 1.374 . S
C322 C319 1.499 . S
C322 C323 1.373 . S
C322 C324 1.389 . S
C323 H302 0.950 . S
C323 C322 1.373 . S
C323 C339 1.377 . S
C324 C322 1.389 . S
C324 C325 1.524 . S
C324 C338 1.377 . S
C325 C324 1.524 . S
C325 C326 1.397 . S
C325 C330 1.363 . S
C326 H303 0.950 . S
C326 C325 1.397 . S
C326 C327 1.334 . S
C327 H304 0.950 . S
C327 C326 1.334 . S
C327 C328 1.287 . S
C328 C327 1.287 . S
C328 C329 1.524 . S
C328 H347 0.913 . S
C329 H305 0.950 . S
C329 C328 1.524 . S
C329 C330 1.415 . S
C330 H306 0.950 . S
C330 C325 1.363 . S
C330 C329 1.415 . S
C331 H307 0.951 . S
C331 C332 1.366 . S
C331 C333 1.388 . S
C332 C331 1.366 . S
C332 C336 1.385 . S
C333 H308 0.951 . S
C333 C331 1.388 . S
C333 C334 1.366 . S
C334 C333 1.366 . S
C334 C335 1.414 . S
C334 C337 1.499 . S
C335 H309 0.950 . S
C335 C334 1.414 . S
C335 C336 1.374 . S
C336 H310 0.950 . S
C336 C332 1.385 . S
C336 C335 1.374 . S
C337 C334 1.499 . S
C337 C338 1.373 . S
C337 C339 1.389 . S
C338 H311 0.950 . S
C338 C324 1.377 . S
C338 C337 1.373 . S
C339 C323 1.377 . S
C339 C337 1.389 . S
C339 C340 1.524 . S
C340 C339 1.524 . S
C340 C341 1.397 . S
C340 C345 1.363 . S
C341 H312 0.950 . S
C341 C340 1.397 . S
C341 C342 1.334 . S
C342 H313 0.950 . S
C342 C341 1.334 . S
C342 C343 1.287 . S
C343 C342 1.287 . S
C343 C344 1.524 . S
C343 H346 0.999 . S
C344 H314 0.950 . S
C344 C343 1.524 . S
C344 C345 1.415 . S
C345 H315 0.950 . S
C345 C340 1.363 . S
C345 C344 1.415 . S
H346 C343 0.999 . S
H347 C328 0.913 . S
H348 C366 0.951 . S
H349 C368 0.951 . S
H350 C370 0.950 . S
H351 C371 0.950 . S
H352 C373 0.950 . S
H353 C376 0.950 . S
H354 C377 0.950 . S
H355 C379 0.950 . S
H356 C380 0.950 . S
H357 C381 0.951 . S
H358 C383 0.951 . S
H359 C385 0.950 . S
H360 C386 0.950 . S
H361 C388 0.950 . S
H362 C391 0.950 . S
H363 C392 0.950 . S
H364 C394 0.950 . S
H365 C395 0.950 . S
C366 H348 0.951 . S
C366 C367 1.366 . S
C366 C368 1.388 . S
C367 C366 1.366 . S
C367 C371 1.385 . S
C368 H349 0.951 . S
C368 C366 1.388 . S
C368 C369 1.366 . S
C369 C368 1.366 . S
C369 C370 1.414 . S
C369 C372 1.499 . S
C370 H350 0.950 . S
C370 C369 1.414 . S
C370 C371 1.374 . S
C371 H351 0.950 . S
C371 C367 1.385 . S
C371 C370 1.374 . S
C372 C369 1.499 . S
C372 C373 1.373 1_556 S
C372 C374 1.389 . S
C373 H352 0.950 . S
C373 C372 1.373 1_554 S
C373 C389 1.377 . S
C374 C372 1.389 . S
C374 C375 1.524 . S
C374 C388 1.377 . S
C375 C374 1.524 . S
C375 C376 1.397 . S
C375 C380 1.363 . S
C376 H353 0.950 . S
C376 C375 1.397 . S
C376 C377 1.334 . S
C377 H354 0.950 . S
C377 C376 1.334 . S
C377 C378 1.287 . S
C378 C377 1.287 . S
C378 C379 1.524 . S
C378 H397 0.913 . S
C379 H355 0.950 . S
C379 C378 1.524 . S
C379 C380 1.415 . S
C380 H356 0.950 . S
C380 C375 1.363 . S
C380 C379 1.415 . S
C381 H357 0.951 . S
C381 C382 1.366 . S
C381 C383 1.388 . S
C382 C381 1.366 . S
C382 C386 1.385 . S
C383 H358 0.951 . S
C383 C381 1.388 . S
C383 C384 1.366 . S
C384 C383 1.366 . S
C384 C385 1.414 . S
C384 C387 1.499 . S
C385 H359 0.950 . S
C385 C384 1.414 . S
C385 C386 1.374 . S
C386 H360 0.950 . S
C386 C382 1.385 . S
C386 C385 1.374 . S
C387 C384 1.499 . S
C387 C388 1.373 1_554 S
C387 C389 1.389 . S
C388 H361 0.950 . S
C388 C374 1.377 . S
C388 C387 1.373 1_556 S
C389 C373 1.377 . S
C389 C387 1.389 . S
C389 C390 1.524 . S
C390 C389 1.524 . S
C390 C391 1.397 . S
C390 C395 1.363 . S
C391 H362 0.950 . S
C391 C390 1.397 . S
C391 C392 1.334 . S
C392 H363 0.950 . S
C392 C391 1.334 . S
C392 C393 1.287 . S
C393 C392 1.287 . S
C393 C394 1.524 . S
C393 H396 0.999 . S
C394 H364 0.950 . S
C394 C393 1.524 . S
C394 C395 1.415 . S
C395 H365 0.950 . S
C395 C390 1.363 . S
C395 C394 1.415 . S
H396 C393 0.999 . S
H397 C378 0.913 . S
H398 C416 0.951 . S
H399 C418 0.951 . S
H400 C420 0.950 . S
H401 C421 0.950 . S
H402 C423 0.950 . S
H403 C426 0.950 . S
H404 C427 0.950 . S
H405 C429 0.950 . S
H406 C430 0.950 . S
H407 C431 0.951 . S
H408 C433 0.951 . S
H409 C435 0.950 . S
H410 C436 0.950 . S
H411 C438 0.950 . S
H412 C441 0.950 . S
H413 C442 0.950 . S
H414 C444 0.950 . S
H415 C445 0.950 . S
C416 H398 0.951 . S
C416 C417 1.366 . S
C416 C418 1.388 . S
C417 C416 1.366 . S
C417 C421 1.385 . S
C418 H399 0.951 . S
C418 C416 1.388 . S
C418 C419 1.366 . S
C419 C418 1.366 . S
C419 C420 1.414 . S
C419 C422 1.499 . S
C420 H400 0.950 . S
C420 C419 1.414 . S
C420 C421 1.374 . S
C421 H401 0.950 . S
C421 C417 1.385 . S
C421 C420 1.374 . S
C422 C419 1.499 . S
C422 C423 1.373 . S
C422 C424 1.389 . S
C423 H402 0.950 . S
C423 C422 1.373 . S
C423 C439 1.377 . S
C424 C422 1.389 . S
C424 C425 1.524 . S
C424 C438 1.377 . S
C425 C424 1.524 . S
C425 C426 1.397 . S
C425 C430 1.363 . S
C426 H403 0.950 . S
C426 C425 1.397 . S
C426 C427 1.334 . S
C427 H404 0.950 . S
C427 C426 1.334 . S
C427 C428 1.287 . S
C428 C427 1.287 . S
C428 C429 1.524 . S
C428 H447 0.913 . S
C429 H405 0.950 . S
C429 C428 1.524 . S
C429 C430 1.415 . S
C430 H406 0.950 . S
C430 C425 1.363 . S
C430 C429 1.415 . S
C431 H407 0.951 . S
C431 C432 1.366 . S
C431 C433 1.388 . S
C432 C431 1.366 . S
C432 C436 1.385 . S
C433 H408 0.951 . S
C433 C431 1.388 . S
C433 C434 1.366 . S
C434 C433 1.366 . S
C434 C435 1.414 . S
C434 C437 1.499 . S
C435 H409 0.950 . S
C435 C434 1.414 . S
C435 C436 1.374 . S
C436 H410 0.950 . S
C436 C432 1.385 . S
C436 C435 1.374 . S
C437 C434 1.499 . S
C437 C438 1.373 . S
C437 C439 1.389 . S
C438 H411 0.950 . S
C438 C424 1.377 . S
C438 C437 1.373 . S
C439 C423 1.377 . S
C439 C437 1.389 . S
C439 C440 1.524 . S
C440 C439 1.524 . S
C440 C441 1.397 . S
C440 C445 1.363 . S
C441 H412 0.950 . S
C441 C440 1.397 . S
C441 C442 1.334 . S
C442 H413 0.950 . S
C442 C441 1.334 . S
C442 C443 1.287 . S
C443 C442 1.287 . S
C443 C444 1.524 . S
C443 H446 0.999 . S
C444 H414 0.950 . S
C444 C443 1.524 . S
C444 C445 1.415 . S
C445 H415 0.950 . S
C445 C440 1.363 . S
C445 C444 1.415 . S
H446 C443 0.999 . S
H447 C428 0.913 . S
H448 C466 0.951 . S
H449 C468 0.951 . S
H450 C470 0.950 . S
H451 C471 0.950 . S
H452 C473 0.950 . S
H453 C476 0.950 . S
H454 C477 0.950 . S
H455 C479 0.950 . S
H456 C480 0.950 . S
H457 C481 0.951 . S
H458 C483 0.951 . S
H459 C485 0.950 . S
H460 C486 0.950 . S
H461 C488 0.950 . S
H462 C491 0.950 . S
H463 C492 0.950 . S
H464 C494 0.950 . S
H465 C495 0.950 . S
C466 H448 0.951 . S
C466 C467 1.366 . S
C466 C468 1.388 . S
C467 C466 1.366 . S
C467 C471 1.385 . S
C468 H449 0.951 . S
C468 C466 1.388 . S
C468 C469 1.366 . S
C469 C468 1.366 . S
C469 C470 1.414 . S
C469 C472 1.499 . S
C470 H450 0.950 . S
C470 C469 1.414 . S
C470 C471 1.374 . S
C471 H451 0.950 . S
C471 C467 1.385 . S
C471 C470 1.374 . S
C472 C469 1.499 . S
C472 C473 1.373 . S
C472 C474 1.389 . S
C473 H452 0.950 . S
C473 C472 1.373 . S
C473 C489 1.377 . S
C474 C472 1.389 . S
C474 C475 1.524 . S
C474 C488 1.377 . S
C475 C474 1.524 . S
C475 C476 1.397 . S
C475 C480 1.363 . S
C476 H453 0.950 . S
C476 C475 1.397 . S
C476 C477 1.334 . S
C477 H454 0.950 . S
C477 C476 1.334 . S
C477 C478 1.287 . S
C478 C477 1.287 . S
C478 C479 1.524 . S
C478 H497 0.913 . S
C479 H455 0.950 . S
C479 C478 1.524 . S
C479 C480 1.415 . S
C480 H456 0.950 . S
C480 C475 1.363 . S
C480 C479 1.415 . S
C481 H457 0.951 . S
C481 C482 1.366 . S
C481 C483 1.388 . S
C482 C481 1.366 . S
C482 C486 1.385 . S
C483 H458 0.951 . S
C483 C481 1.388 . S
C483 C484 1.366 . S
C484 C483 1.366 . S
C484 C485 1.414 . S
C484 C487 1.499 . S
C485 H459 0.950 . S
C485 C484 1.414 . S
C485 C486 1.374 . S
C486 H460 0.950 . S
C486 C482 1.385 . S
C486 C485 1.374 . S
C487 C484 1.499 . S
C487 C488 1.373 . S
C487 C489 1.389 . S
C488 H461 0.950 . S
C488 C474 1.377 . S
C488 C487 1.373 . S
C489 C473 1.377 . S
C489 C487 1.389 . S
C489 C490 1.524 . S
C490 C489 1.524 . S
C490 C491 1.397 . S
C490 C495 1.363 . S
C491 H462 0.950 . S
C491 C490 1.397 . S
C491 C492 1.334 . S
C492 H463 0.950 . S
C492 C491 1.334 . S
C492 C493 1.287 . S
C493 C492 1.287 . S
C493 C494 1.524 . S
C493 H496 0.999 . S
C494 H464 0.950 . S
C494 C493 1.524 . S
C494 C495 1.415 . S
C495 H465 0.950 . S
C495 C490 1.363 . S
C495 C494 1.415 . S
H496 C493 0.999 . S
H497 C478 0.913 . S
H498 C516 0.951 . S
H499 C518 0.951 . S
H500 C520 0.950 . S
H501 C521 0.950 . S
H502 C523 0.950 . S
H503 C526 0.950 . S
H504 C527 0.950 . S
H505 C529 0.950 . S
H506 C530 0.950 . S
H507 C531 0.951 . S
H508 C533 0.951 . S
H509 C535 0.950 . S
H510 C536 0.950 . S
H511 C538 0.950 . S
H512 C541 0.950 . S
H513 C542 0.950 . S
H514 C544 0.950 . S
H515 C545 0.950 . S
C516 H498 0.951 . S
C516 C517 1.366 . S
C516 C518 1.388 . S
C517 C516 1.366 . S
C517 C521 1.385 . S
C518 H499 0.951 . S
C518 C516 1.388 . S
C518 C519 1.366 . S
C519 C518 1.366 . S
C519 C520 1.414 . S
C519 C522 1.499 . S
C520 H500 0.950 . S
C520 C519 1.414 . S
C520 C521 1.374 . S
C521 H501 0.950 . S
C521 C517 1.385 . S
C521 C520 1.374 . S
C522 C519 1.499 . S
C522 C523 1.373 . S
C522 C524 1.389 . S
C523 H502 0.950 . S
C523 C522 1.373 . S
C523 C539 1.377 . S
C524 C522 1.389 . S
C524 C525 1.524 . S
C524 C538 1.377 . S
C525 C524 1.524 . S
C525 C526 1.397 . S
C525 C530 1.363 . S
C526 H503 0.950 . S
C526 C525 1.397 . S
C526 C527 1.334 . S
C527 H504 0.950 . S
C527 C526 1.334 . S
C527 C528 1.287 . S
C528 C527 1.287 . S
C528 C529 1.524 . S
C528 H547 0.913 . S
C529 H505 0.950 . S
C529 C528 1.524 . S
C529 C530 1.415 . S
C530 H506 0.950 . S
C530 C525 1.363 . S
C530 C529 1.415 . S
C531 H507 0.951 . S
C531 C532 1.366 . S
C531 C533 1.388 . S
C532 C531 1.366 . S
C532 C536 1.385 . S
C533 H508 0.951 . S
C533 C531 1.388 . S
C533 C534 1.366 . S
C534 C533 1.366 . S
C534 C535 1.414 . S
C534 C537 1.499 . S
C535 H509 0.950 . S
C535 C534 1.414 . S
C535 C536 1.374 . S
C536 H510 0.950 . S
C536 C532 1.385 . S
C536 C535 1.374 . S
C537 C534 1.499 . S
C537 C538 1.373 . S
C537 C539 1.389 . S
C538 H511 0.950 . S
C538 C524 1.377 . S
C538 C537 1.373 . S
C539 C523 1.377 . S
C539 C537 1.389 . S
C539 C540 1.524 . S
C540 C539 1.524 . S
C540 C541 1.397 . S
C540 C545 1.363 . S
C541 H512 0.950 . S
C541 C540 1.397 . S
C541 C542 1.334 . S
C542 H513 0.950 . S
C542 C541 1.334 . S
C542 C543 1.287 . S
C543 C542 1.287 . S
C543 C544 1.524 . S
C543 H546 0.999 . S
C544 H514 0.950 . S
C544 C543 1.524 . S
C544 C545 1.415 . S
C545 H515 0.950 . S
C545 C540 1.363 . S
C545 C544 1.415 . S
H546 C543 0.999 . S
H547 C528 0.913 . S
H548 C566 0.951 . S
H549 C568 0.951 . S
H550 C570 0.950 . S
H551 C571 0.950 . S
H552 C573 0.950 . S
H553 C576 0.950 . S
H554 C577 0.950 . S
H555 C579 0.950 . S
H556 C580 0.950 . S
H557 C581 0.951 . S
H558 C583 0.951 . S
H559 C585 0.950 . S
H560 C586 0.950 . S
H561 C588 0.950 . S
H562 C591 0.950 . S
H563 C592 0.950 . S
H564 C594 0.950 . S
H565 C595 0.950 . S
C566 H548 0.951 . S
C566 C567 1.366 . S
C566 C568 1.388 . S
C567 C566 1.366 . S
C567 C571 1.385 . S
C568 H549 0.951 . S
C568 C566 1.388 . S
C568 C569 1.366 . S
C569 C568 1.366 . S
C569 C570 1.414 . S
C569 C572 1.499 . S
C570 H550 0.950 . S
C570 C569 1.414 . S
C570 C571 1.374 . S
C571 H551 0.950 . S
C571 C567 1.385 . S
C571 C570 1.374 . S
C572 C569 1.499 . S
C572 C573 1.373 . S
C572 C574 1.389 . S
C573 H552 0.950 . S
C573 C572 1.373 . S
C573 C589 1.377 1_556 S
C574 C572 1.389 . S
C574 C575 1.524 . S
C574 C588 1.377 1_556 S
C575 C574 1.524 . S
C575 C576 1.397 . S
C575 C580 1.363 . S
C576 H553 0.950 . S
C576 C575 1.397 . S
C576 C577 1.334 . S
C577 H554 0.950 . S
C577 C576 1.334 . S
C577 C578 1.287 . S
C578 C577 1.287 . S
C578 C579 1.524 . S
C578 H597 0.913 . S
C579 H555 0.950 . S
C579 C578 1.524 . S
C579 C580 1.415 . S
C580 H556 0.950 . S
C580 C575 1.363 . S
C580 C579 1.415 . S
C581 H557 0.951 . S
C581 C582 1.366 . S
C581 C583 1.388 . S
C582 C581 1.366 . S
C582 C586 1.385 . S
C583 H558 0.951 . S
C583 C581 1.388 . S
C583 C584 1.366 . S
C584 C583 1.366 . S
C584 C585 1.414 . S
C584 C587 1.499 . S
C585 H559 0.950 . S
C585 C584 1.414 . S
C585 C586 1.374 . S
C586 H560 0.950 . S
C586 C582 1.385 . S
C586 C585 1.374 . S
C587 C584 1.499 . S
C587 C588 1.373 . S
C587 C589 1.389 . S
C588 H561 0.950 . S
C588 C574 1.377 1_554 S
C588 C587 1.373 . S
C589 C573 1.377 1_554 S
C589 C587 1.389 . S
C589 C590 1.524 . S
C590 C589 1.524 . S
C590 C591 1.397 . S
C590 C595 1.363 . S
C591 H562 0.950 . S
C591 C590 1.397 . S
C591 C592 1.334 . S
C592 H563 0.950 . S
C592 C591 1.334 . S
C592 C593 1.287 . S
C593 C592 1.287 . S
C593 C594 1.524 . S
C593 H596 0.999 . S
C594 H564 0.950 . S
C594 C593 1.524 . S
C594 C595 1.415 . S
C595 H565 0.950 . S
C595 C590 1.363 . S
C595 C594 1.415 . S
H596 C593 0.999 . S
H597 C578 0.913 . S
H598 C616 0.951 . S
H599 C618 0.951 . S
H600 C620 0.950 . S
H601 C621 0.950 . S
H602 C623 0.950 . S
H603 C626 0.950 . S
H604 C627 0.950 . S
H605 C629 0.950 . S
H606 C630 0.950 . S
H607 C631 0.951 . S
H608 C633 0.951 . S
H609 C635 0.950 . S
H610 C636 0.950 . S
H611 C638 0.950 . S
H612 C641 0.950 . S
H613 C642 0.950 . S
H614 C644 0.950 . S
H615 C645 0.950 . S
C616 H598 0.951 . S
C616 C617 1.366 . S
C616 C618 1.388 . S
C617 C616 1.366 . S
C617 C621 1.385 . S
C618 H599 0.951 . S
C618 C616 1.388 . S
C618 C619 1.366 . S
C619 C618 1.366 . S
C619 C620 1.414 . S
C619 C622 1.499 . S
C620 H600 0.950 . S
C620 C619 1.414 . S
C620 C621 1.374 . S
C621 H601 0.950 . S
C621 C617 1.385 . S
C621 C620 1.374 . S
C622 C619 1.499 . S
C622 C623 1.373 . S
C622 C624 1.389 . S
C623 H602 0.950 . S
C623 C622 1.373 . S
C623 C639 1.377 . S
C624 C622 1.389 . S
C624 C625 1.524 . S
C624 C638 1.377 . S
C625 C624 1.524 . S
C625 C626 1.397 . S
C625 C630 1.363 . S
C626 H603 0.950 . S
C626 C625 1.397 . S
C626 C627 1.334 . S
C627 H604 0.950 . S
C627 C626 1.334 . S
C627 C628 1.287 . S
C628 C627 1.287 . S
C628 C629 1.524 . S
C628 H647 0.913 . S
C629 H605 0.950 . S
C629 C628 1.524 . S
C629 C630 1.415 . S
C630 H606 0.950 . S
C630 C625 1.363 . S
C630 C629 1.415 . S
C631 H607 0.951 . S
C631 C632 1.366 . S
C631 C633 1.388 . S
C632 C631 1.366 . S
C632 C636 1.385 . S
C633 H608 0.951 . S
C633 C631 1.388 . S
C633 C634 1.366 . S
C634 C633 1.366 . S
C634 C635 1.414 . S
C634 C637 1.499 . S
C635 H609 0.950 . S
C635 C634 1.414 . S
C635 C636 1.374 . S
C636 H610 0.950 . S
C636 C632 1.385 . S
C636 C635 1.374 . S
C637 C634 1.499 . S
C637 C638 1.373 . S
C637 C639 1.389 . S
C638 H611 0.950 . S
C638 C624 1.377 . S
C638 C637 1.373 . S
C639 C623 1.377 . S
C639 C637 1.389 . S
C639 C640 1.524 . S
C640 C639 1.524 . S
C640 C641 1.397 . S
C640 C645 1.363 . S
C641 H612 0.950 . S
C641 C640 1.397 . S
C641 C642 1.334 . S
C642 H613 0.950 . S
C642 C641 1.334 . S
C642 C643 1.287 . S
C643 C642 1.287 . S
C643 C644 1.524 . S
C643 H646 0.999 . S
C644 H614 0.950 . S
C644 C643 1.524 . S
C644 C645 1.415 . S
C645 H615 0.950 . S
C645 C640 1.363 . S
C645 C644 1.415 . S
H646 C643 0.999 . S
H647 C628 0.913 . S
H648 C666 0.951 . S
H649 C668 0.951 . S
H650 C670 0.950 . S
H651 C671 0.950 . S
H652 C673 0.950 . S
H653 C676 0.950 . S
H654 C677 0.950 . S
H655 C679 0.950 . S
H656 C680 0.950 . S
H657 C681 0.951 . S
H658 C683 0.951 . S
H659 C685 0.950 . S
H660 C686 0.950 . S
H661 C688 0.950 . S
H662 C691 0.950 . S
H663 C692 0.950 . S
H664 C694 0.950 . S
H665 C695 0.950 . S
C666 H648 0.951 . S
C666 C667 1.366 . S
C666 C668 1.388 . S
C667 C666 1.366 . S
C667 C671 1.385 . S
C668 H649 0.951 . S
C668 C666 1.388 . S
C668 C669 1.366 . S
C669 C668 1.366 . S
C669 C670 1.414 . S
C669 C672 1.499 . S
C670 H650 0.950 . S
C670 C669 1.414 . S
C670 C671 1.374 . S
C671 H651 0.950 . S
C671 C667 1.385 . S
C671 C670 1.374 . S
C672 C669 1.499 . S
C672 C673 1.373 . S
C672 C674 1.389 . S
C673 H652 0.950 . S
C673 C672 1.373 . S
C673 C689 1.377 . S
C674 C672 1.389 . S
C674 C675 1.524 . S
C674 C688 1.377 . S
C675 C674 1.524 . S
C675 C676 1.397 . S
C675 C680 1.363 . S
C676 H653 0.950 . S
C676 C675 1.397 . S
C676 C677 1.334 . S
C677 H654 0.950 . S
C677 C676 1.334 . S
C677 C678 1.287 . S
C678 C677 1.287 . S
C678 C679 1.524 . S
C678 H697 0.913 . S
C679 H655 0.950 . S
C679 C678 1.524 . S
C679 C680 1.415 . S
C680 H656 0.950 . S
C680 C675 1.363 . S
C680 C679 1.415 . S
C681 H657 0.951 . S
C681 C682 1.366 . S
C681 C683 1.388 . S
C682 C681 1.366 . S
C682 C686 1.385 . S
C683 H658 0.951 . S
C683 C681 1.388 . S
C683 C684 1.366 . S
C684 C683 1.366 . S
C684 C685 1.414 . S
C684 C687 1.499 . S
C685 H659 0.950 . S
C685 C684 1.414 . S
C685 C686 1.374 . S
C686 H660 0.950 . S
C686 C682 1.385 . S
C686 C685 1.374 . S
C687 C684 1.499 . S
C687 C688 1.373 . S
C687 C689 1.389 . S
C688 H661 0.950 . S
C688 C674 1.377 . S
C688 C687 1.373 . S
C689 C673 1.377 . S
C689 C687 1.389 . S
C689 C690 1.524 . S
C690 C689 1.524 . S
C690 C691 1.397 . S
C690 C695 1.363 . S
C691 H662 0.950 . S
C691 C690 1.397 . S
C691 C692 1.334 . S
C692 H663 0.950 . S
C692 C691 1.334 . S
C692 C693 1.287 . S
C693 C692 1.287 . S
C693 C694 1.524 . S
C693 H696 0.999 . S
C694 H664 0.950 . S
C694 C693 1.524 . S
C694 C695 1.415 . S
C695 H665 0.950 . S
C695 C690 1.363 . S
C695 C694 1.415 . S
H696 C693 0.999 . S
H697 C678 0.913 . S
H698 C716 0.951 . S
H699 C718 0.951 . S
H700 C720 0.950 . S
H701 C721 0.950 . S
H702 C723 0.950 . S
H703 C726 0.950 . S
H704 C727 0.950 . S
H705 C729 0.950 . S
H706 C730 0.950 . S
H707 C731 0.951 . S
H708 C733 0.951 . S
H709 C735 0.950 . S
H710 C736 0.950 . S
H711 C738 0.950 . S
H712 C741 0.950 . S
H713 C742 0.950 . S
H714 C744 0.950 . S
H715 C745 0.950 . S
C716 H698 0.951 . S
C716 C717 1.366 . S
C716 C718 1.388 . S
C717 C716 1.366 . S
C717 C721 1.385 . S
C718 H699 0.951 . S
C718 C716 1.388 . S
C718 C719 1.366 . S
C719 C718 1.366 . S
C719 C720 1.414 . S
C719 C722 1.499 . S
C720 H700 0.950 . S
C720 C719 1.414 . S
C720 C721 1.374 . S
C721 H701 0.950 . S
C721 C717 1.385 . S
C721 C720 1.374 . S
C722 C719 1.499 . S
C722 C723 1.373 . S
C722 C724 1.389 . S
C723 H702 0.950 . S
C723 C722 1.373 . S
C723 C739 1.377 1_554 S
C724 C722 1.389 . S
C724 C725 1.524 . S
C724 C738 1.377 1_554 S
C725 C724 1.524 . S
C725 C726 1.397 . S
C725 C730 1.363 . S
C726 H703 0.950 . S
C726 C725 1.397 . S
C726 C727 1.334 . S
C727 H704 0.950 . S
C727 C726 1.334 . S
C727 C728 1.287 . S
C728 C727 1.287 . S
C728 C729 1.524 . S
C728 H747 0.913 . S
C729 H705 0.950 . S
C729 C728 1.524 . S
C729 C730 1.415 . S
C730 H706 0.950 . S
C730 C725 1.363 . S
C730 C729 1.415 . S
C731 H707 0.951 . S
C731 C732 1.366 . S
C731 C733 1.388 . S
C732 C731 1.366 . S
C732 C736 1.385 . S
C733 H708 0.951 . S
C733 C731 1.388 . S
C733 C734 1.366 . S
C734 C733 1.366 . S
C734 C735 1.414 . S
C734 C737 1.499 . S
C735 H709 0.950 . S
C735 C734 1.414 . S
C735 C736 1.374 . S
C736 H710 0.950 . S
C736 C732 1.385 . S
C736 C735 1.374 . S
C737 C734 1.499 . S
C737 C738 1.373 . S
C737 C739 1.389 . S
C738 H711 0.950 . S
C738 C724 1.377 1_556 S
C738 C737 1.373 . S
C739 C723 1.377 1_556 S
C739 C737 1.389 . S
C739 C740 1.524 . S
C740 C739 1.524 . S
C740 C741 1.397 . S
C740 C745 1.363 . S
C741 H712 0.950 . S
C741 C740 1.397 . S
C741 C742 1.334 . S
C742 H713 0.950 . S
C742 C741 1.334 . S
C742 C743 1.287 . S
C743 C742 1.287 . S
C743 C744 1.524 . S
C743 H746 0.999 . S
C744 H714 0.950 . S
C744 C743 1.524 . S
C744 C745 1.415 . S
C745 H715 0.950 . S
C745 C740 1.363 . S
C745 C744 1.415 . S
H746 C743 0.999 . S
H747 C728 0.913 . S
H748 C766 0.951 . S
H749 C768 0.951 . S
H750 C770 0.950 . S
H751 C771 0.950 . S
H752 C773 0.950 . S
H753 C776 0.950 . S
H754 C777 0.950 . S
H755 C779 0.950 . S
H756 C780 0.950 . S
H757 C781 0.951 . S
H758 C783 0.951 . S
H759 C785 0.950 . S
H760 C786 0.950 . S
H761 C788 0.950 . S
H762 C791 0.950 . S
H763 C792 0.950 . S
H764 C794 0.950 . S
H765 C795 0.950 . S
C766 H748 0.951 . S
C766 C767 1.366 . S
C766 C768 1.388 . S
C767 C766 1.366 . S
C767 C771 1.385 . S
C768 H749 0.951 . S
C768 C766 1.388 . S
C768 C769 1.366 . S
C769 C768 1.366 . S
C769 C770 1.414 . S
C769 C772 1.499 . S
C770 H750 0.950 . S
C770 C769 1.414 . S
C770 C771 1.374 . S
C771 H751 0.950 . S
C771 C767 1.385 . S
C771 C770 1.374 . S
C772 C769 1.499 . S
C772 C773 1.373 . S
C772 C774 1.389 . S
C773 H752 0.950 . S
C773 C772 1.373 . S
C773 C789 1.377 . S
C774 C772 1.389 . S
C774 C775 1.524 . S
C774 C788 1.377 . S
C775 C774 1.524 . S
C775 C776 1.397 . S
C775 C780 1.363 . S
C776 H753 0.950 . S
C776 C775 1.397 . S
C776 C777 1.334 . S
C777 H754 0.950 . S
C777 C776 1.334 . S
C777 C778 1.287 . S
C778 C777 1.287 . S
C778 C779 1.524 . S
C778 H797 0.913 . S
C779 H755 0.950 . S
C779 C778 1.524 . S
C779 C780 1.415 . S
C780 H756 0.950 . S
C780 C775 1.363 . S
C780 C779 1.415 . S
C781 H757 0.951 . S
C781 C782 1.366 . S
C781 C783 1.388 . S
C782 C781 1.366 . S
C782 C786 1.385 . S
C783 H758 0.951 . S
C783 C781 1.388 . S
C783 C784 1.366 . S
C784 C783 1.366 . S
C784 C785 1.414 . S
C784 C787 1.499 . S
C785 H759 0.950 . S
C785 C784 1.414 . S
C785 C786 1.374 . S
C786 H760 0.950 . S
C786 C782 1.385 . S
C786 C785 1.374 . S
C787 C784 1.499 . S
C787 C788 1.373 . S
C787 C789 1.389 . S
C788 H761 0.950 . S
C788 C774 1.377 . S
C788 C787 1.373 . S
C789 C773 1.377 . S
C789 C787 1.389 . S
C789 C790 1.524 . S
C790 C789 1.524 . S
C790 C791 1.397 . S
C790 C795 1.363 . S
C791 H762 0.950 . S
C791 C790 1.397 . S
C791 C792 1.334 . S
C792 H763 0.950 . S
C792 C791 1.334 . S
C792 C793 1.287 . S
C793 C792 1.287 . S
C793 C794 1.524 . S
C793 H796 0.999 . S
C794 H764 0.950 . S
C794 C793 1.524 . S
C794 C795 1.415 . S
C795 H765 0.950 . S
C795 C790 1.363 . S
C795 C794 1.415 . S
H796 C793 0.999 . S
H797 C778 0.913 . S
H798 C816 0.951 . S
H799 C818 0.951 . S
H800 C820 0.950 . S
H801 C821 0.950 . S
H802 C823 0.950 . S
H803 C826 0.950 . S
H804 C827 0.950 1_556 S
H805 C829 0.950 . S
H806 C830 0.950 . S
H807 C831 0.951 . S
H808 C833 0.951 . S
H809 C835 0.950 . S
H810 C836 0.950 . S
H811 C838 0.950 . S
H812 C841 0.950 . S
H813 C842 0.950 . S
H814 C844 0.950 . S
H815 C845 0.950 . S
C816 H798 0.951 . S
C816 C817 1.366 . S
C816 C818 1.388 . S
C817 C816 1.366 . S
C817 C821 1.385 . S
C818 H799 0.951 . S
C818 C816 1.388 . S
C818 C819 1.366 . S
C819 C818 1.366 . S
C819 C820 1.414 . S
C819 C822 1.499 . S
C820 H800 0.950 . S
C820 C819 1.414 . S
C820 C821 1.374 . S
C821 H801 0.950 . S
C821 C817 1.385 . S
C821 C820 1.374 . S
C822 C819 1.499 . S
C822 C823 1.373 . S
C822 C824 1.389 . S
C823 H802 0.950 . S
C823 C822 1.373 . S
C823 C839 1.377 1_655 S
C824 C822 1.389 . S
C824 C825 1.524 . S
C824 C838 1.377 1_655 S
C825 C824 1.524 . S
C825 C826 1.397 . S
C825 C830 1.363 . S
C826 H803 0.950 . S
C826 C825 1.397 . S
C826 C827 1.334 . S
C827 H804 0.950 1_554 S
C827 C826 1.334 . S
C827 C828 1.287 . S
C828 C827 1.287 . S
C828 C829 1.524 . S
C828 H847 0.913 . S
C829 H805 0.950 . S
C829 C828 1.524 . S
C829 C830 1.415 . S
C830 H806 0.950 . S
C830 C825 1.363 . S
C830 C829 1.415 . S
C831 H807 0.951 . S
C831 C832 1.366 . S
C831 C833 1.388 . S
C832 C831 1.366 . S
C832 C836 1.385 . S
C833 H808 0.951 . S
C833 C831 1.388 . S
C833 C834 1.366 . S
C834 C833 1.366 . S
C834 C835 1.414 . S
C834 C837 1.499 . S
C835 H809 0.950 . S
C835 C834 1.414 . S
C835 C836 1.374 . S
C836 H810 0.950 . S
C836 C832 1.385 . S
C836 C835 1.374 . S
C837 C834 1.499 . S
C837 C838 1.373 . S
C837 C839 1.389 . S
C838 H811 0.950 . S
C838 C824 1.377 1_455 S
C838 C837 1.373 . S
C839 C823 1.377 1_455 S
C839 C837 1.389 . S
C839 C840 1.524 . S
C840 C839 1.524 . S
C840 C841 1.397 . S
C840 C845 1.363 . S
C841 H812 0.950 . S
C841 C840 1.397 . S
C841 C842 1.334 . S
C842 H813 0.950 . S
C842 C841 1.334 . S
C842 C843 1.287 . S
C843 C842 1.287 . S
C843 C844 1.524 . S
C843 H846 0.999 . S
C844 H814 0.950 . S
C844 C843 1.524 . S
C844 C845 1.415 . S
C845 H815 0.950 . S
C845 C840 1.363 . S
C845 C844 1.415 . S
H846 C843 0.999 . S
H847 C828 0.913 . S
H848 C866 0.951 . S
H849 C868 0.951 . S
H850 C870 0.950 . S
H851 C871 0.950 . S
H852 C873 0.950 . S
H853 C876 0.950 . S
H854 C877 0.950 . S
H855 C879 0.950 . S
H856 C880 0.950 . S
H857 C881 0.951 . S
H858 C883 0.951 . S
H859 C885 0.950 . S
H860 C886 0.950 . S
H861 C888 0.950 . S
H862 C891 0.950 . S
H863 C892 0.950 . S
H864 C894 0.950 . S
H865 C895 0.950 . S
C866 H848 0.951 . S
C866 C867 1.366 . S
C866 C868 1.388 . S
C867 C866 1.366 . S
C867 C871 1.385 . S
C868 H849 0.951 . S
C868 C866 1.388 . S
C868 C869 1.366 . S
C869 C868 1.366 . S
C869 C870 1.414 . S
C869 C872 1.499 . S
C870 H850 0.950 . S
C870 C869 1.414 . S
C870 C871 1.374 . S
C871 H851 0.950 . S
C871 C867 1.385 . S
C871 C870 1.374 . S
C872 C869 1.499 . S
C872 C873 1.373 . S
C872 C874 1.389 . S
C873 H852 0.950 . S
C873 C872 1.373 . S
C873 C889 1.377 1_545 S
C874 C872 1.389 . S
C874 C875 1.524 . S
C874 C888 1.377 1_545 S
C875 C874 1.524 . S
C875 C876 1.397 . S
C875 C880 1.363 . S
C876 H853 0.950 . S
C876 C875 1.397 . S
C876 C877 1.334 . S
C877 H854 0.950 . S
C877 C876 1.334 . S
C877 C878 1.287 . S
C878 C877 1.287 . S
C878 C879 1.524 . S
C878 H897 0.913 . S
C879 H855 0.950 . S
C879 C878 1.524 . S
C879 C880 1.415 . S
C880 H856 0.950 . S
C880 C875 1.363 . S
C880 C879 1.415 . S
C881 H857 0.951 . S
C881 C882 1.366 . S
C881 C883 1.388 . S
C882 C881 1.366 . S
C882 C886 1.385 . S
C883 H858 0.951 . S
C883 C881 1.388 . S
C883 C884 1.366 . S
C884 C883 1.366 . S
C884 C885 1.414 . S
C884 C887 1.499 . S
C885 H859 0.950 . S
C885 C884 1.414 . S
C885 C886 1.374 . S
C886 H860 0.950 . S
C886 C882 1.385 . S
C886 C885 1.374 . S
C887 C884 1.499 . S
C887 C888 1.373 . S
C887 C889 1.389 . S
C888 H861 0.950 . S
C888 C874 1.377 1_565 S
C888 C887 1.373 . S
C889 C873 1.377 1_565 S
C889 C887 1.389 . S
C889 C890 1.524 . S
C890 C889 1.524 . S
C890 C891 1.397 . S
C890 C895 1.363 . S
C891 H862 0.950 . S
C891 C890 1.397 . S
C891 C892 1.334 . S
C892 H863 0.950 . S
C892 C891 1.334 . S
C892 C893 1.287 . S
C893 C892 1.287 . S
C893 C894 1.524 . S
C893 H896 0.999 . S
C894 H864 0.950 . S
C894 C893 1.524 . S
C894 C895 1.415 . S
C895 H865 0.950 . S
C895 C890 1.363 . S
C895 C894 1.415 . S
H896 C893 0.999 . S
H897 C878 0.913 . S
H898 C916 0.951 . S
H899 C918 0.951 . S
H900 C920 0.950 . S
H901 C921 0.950 . S
H902 C923 0.950 . S
H903 C926 0.950 . S
H904 C927 0.950 . S
H905 C929 0.950 . S
H906 C930 0.950 . S
H907 C931 0.951 . S
H908 C933 0.951 . S
H909 C935 0.950 . S
H910 C936 0.950 . S
H911 C938 0.950 . S
H912 C941 0.950 . S
H913 C942 0.950 . S
H914 C944 0.950 . S
H915 C945 0.950 . S
C916 H898 0.951 . S
C916 C917 1.366 . S
C916 C918 1.388 . S
C917 C916 1.366 . S
C917 C921 1.385 . S
C918 H899 0.951 . S
C918 C916 1.388 . S
C918 C919 1.366 . S
C919 C918 1.366 . S
C919 C920 1.414 . S
C919 C922 1.499 . S
C920 H900 0.950 . S
C920 C919 1.414 . S
C920 C921 1.374 . S
C921 H901 0.950 . S
C921 C917 1.385 . S
C921 C920 1.374 . S
C922 C919 1.499 . S
C922 C923 1.373 . S
C922 C924 1.389 . S
C923 H902 0.950 . S
C923 C922 1.373 . S
C923 C939 1.377 . S
C924 C922 1.389 . S
C924 C925 1.524 . S
C924 C938 1.377 . S
C925 C924 1.524 . S
C925 C926 1.397 . S
C925 C930 1.363 . S
C926 H903 0.950 . S
C926 C925 1.397 . S
C926 C927 1.334 . S
C927 H904 0.950 . S
C927 C926 1.334 . S
C927 C928 1.287 . S
C928 C927 1.287 . S
C928 C929 1.524 . S
C928 H947 0.913 . S
C929 H905 0.950 . S
C929 C928 1.524 . S
C929 C930 1.415 . S
C930 H906 0.950 . S
C930 C925 1.363 . S
C930 C929 1.415 . S
C931 H907 0.951 . S
C931 C932 1.366 . S
C931 C933 1.388 . S
C932 C931 1.366 . S
C932 C936 1.385 . S
C933 H908 0.951 . S
C933 C931 1.388 . S
C933 C934 1.366 . S
C934 C933 1.366 . S
C934 C935 1.414 . S
C934 C937 1.499 . S
C935 H909 0.950 . S
C935 C934 1.414 . S
C935 C936 1.374 . S
C936 H910 0.950 . S
C936 C932 1.385 . S
C936 C935 1.374 . S
C937 C934 1.499 . S
C937 C938 1.373 . S
C937 C939 1.389 . S
C938 H911 0.950 . S
C938 C924 1.377 . S
C938 C937 1.373 . S
C939 C923 1.377 . S
C939 C937 1.389 . S
C939 C940 1.524 . S
C940 C939 1.524 . S
C940 C941 1.397 . S
C940 C945 1.363 . S
C941 H912 0.950 . S
C941 C940 1.397 . S
C941 C942 1.334 1_556 S
C942 H913 0.950 . S
C942 C941 1.334 1_554 S
C942 C943 1.287 . S
C943 C942 1.287 . S
C943 C944 1.524 . S
C943 H946 0.999 . S
C944 H914 0.950 . S
C944 C943 1.524 . S
C944 C945 1.415 1_554 S
C945 H915 0.950 . S
C945 C940 1.363 . S
C945 C944 1.415 1_556 S
H946 C943 0.999 . S
H947 C928 0.913 . S
C217 C8 0.542 . S
C232 C94 0.566 . S
C267 C41 0.544 . S
C282 C127 0.566 . S
C317 C160 0.565 . S
C332 C74 0.544 . S
C367 C193 0.564 . S
C382 C107 0.543 . S
C417 C140 0.545 . S
C432 C28 0.566 . S
C467 C61 0.565 . S
C482 C173 0.545 . S
C517 N14 1.428 . S
C532 N5 1.433 . S
C567 N38 1.433 . S
C582 N47 1.428 . S
C617 N80 1.428 . S
C632 N71 1.433 . S
C667 N113 1.428 . S
C682 N104 1.433 . S
C717 N146 1.428 . S
C732 N137 1.433 . S
C767 N170 1.433 . S
C782 N179 1.428 . S
C817 C116 1.080 . S
C832 C17 1.081 . S
C867 C50 1.083 . S
C882 C149 1.083 . S
C917 C83 1.080 . S
C932 C182 1.081 . S
