# Generated by pormake.
# Topology ukb, (4)-cn, num edge types: 1
# Building blocks:
#     Node 0, Type 0, BuildingBlock: KUFVIS_clean_sbu_0, # of connection points: 4
#     Node 1, Type 0, BuildingBlock: KUFVIS_clean_sbu_0, # of connection points: 4
#     Node 2, Type 0, BuildingBlock: KUFVIS_clean_sbu_0, # of connection points: 4
#     Node 3, Type 0, BuildingBlock: KUFVIS_clean_sbu_0, # of connection points: 4
#     Node 4, Type 0, BuildingBlock: KUFVIS_clean_sbu_0, # of connection points: 4
#     Node 5, Type 0, BuildingBlock: KUFVIS_clean_sbu_0, # of connection points: 4
#     Node 6, Type 0, BuildingBlock: KUFVIS_clean_sbu_0, # of connection points: 4
#     Node 7, Type 0, BuildingBlock: KUFVIS_clean_sbu_0, # of connection points: 4
#     Node 8, Type 0, BuildingBlock: KUFVIS_clean_sbu_0, # of connection points: 4
#     Node 9, Type 0, BuildingBlock: KUFVIS_clean_sbu_0, # of connection points: 4
#     Node 10, Type 0, BuildingBlock: KUFVIS_clean_sbu_0, # of connection points: 4
#     Node 11, Type 0, BuildingBlock: KUFVIS_clean_sbu_0, # of connection points: 4
#     Node 12, Type 0, BuildingBlock: KUFVIS_clean_sbu_0, # of connection points: 4
#     Node 13, Type 0, BuildingBlock: KUFVIS_clean_sbu_0, # of connection points: 4
#     Node 14, Type 0, BuildingBlock: KUFVIS_clean_sbu_0, # of connection points: 4
#     Node 15, Type 0, BuildingBlock: KUFVIS_clean_sbu_0, # of connection points: 4
#     Edge 16, Type (0, 0), BuildingBlock: EZIPEK_clean_linker_0, # of connection points: 2
#     Edge 17, Type (0, 0), BuildingBlock: EZIPEK_clean_linker_0, # of connection points: 2
#     Edge 18, Type (0, 0), BuildingBlock: EZIPEK_clean_linker_0, # of connection points: 2
#     Edge 19, Type (0, 0), BuildingBlock: EZIPEK_clean_linker_0, # of connection points: 2
#     Edge 20, Type (0, 0), BuildingBlock: EZIPEK_clean_linker_0, # of connection points: 2
#     Edge 21, Type (0, 0), BuildingBlock: EZIPEK_clean_linker_0, # of connection points: 2
#     Edge 22, Type (0, 0), BuildingBlock: EZIPEK_clean_linker_0, # of connection points: 2
#     Edge 23, Type (0, 0), BuildingBlock: EZIPEK_clean_linker_0, # of connection points: 2
#     Edge 24, Type (0, 0), BuildingBlock: EZIPEK_clean_linker_0, # of connection points: 2
#     Edge 25, Type (0, 0), BuildingBlock: EZIPEK_clean_linker_0, # of connection points: 2
#     Edge 26, Type (0, 0), BuildingBlock: EZIPEK_clean_linker_0, # of connection points: 2
#     Edge 27, Type (0, 0), BuildingBlock: EZIPEK_clean_linker_0, # of connection points: 2
#     Edge 28, Type (0, 0), BuildingBlock: EZIPEK_clean_linker_0, # of connection points: 2
#     Edge 29, Type (0, 0), BuildingBlock: EZIPEK_clean_linker_0, # of connection points: 2
#     Edge 30, Type (0, 0), BuildingBlock: EZIPEK_clean_linker_0, # of connection points: 2
#     Edge 31, Type (0, 0), BuildingBlock: EZIPEK_clean_linker_0, # of connection points: 2
#     Edge 32, Type (0, 0), BuildingBlock: EZIPEK_clean_linker_0, # of connection points: 2
#     Edge 33, Type (0, 0), BuildingBlock: EZIPEK_clean_linker_0, # of connection points: 2
#     Edge 34, Type (0, 0), BuildingBlock: EZIPEK_clean_linker_0, # of connection points: 2
#     Edge 35, Type (0, 0), BuildingBlock: EZIPEK_clean_linker_0, # of connection points: 2
#     Edge 36, Type (0, 0), BuildingBlock: EZIPEK_clean_linker_0, # of connection points: 2
#     Edge 37, Type (0, 0), BuildingBlock: EZIPEK_clean_linker_0, # of connection points: 2
#     Edge 38, Type (0, 0), BuildingBlock: EZIPEK_clean_linker_0, # of connection points: 2
#     Edge 39, Type (0, 0), BuildingBlock: EZIPEK_clean_linker_0, # of connection points: 2
#     Edge 40, Type (0, 0), BuildingBlock: EZIPEK_clean_linker_0, # of connection points: 2
#     Edge 41, Type (0, 0), BuildingBlock: EZIPEK_clean_linker_0, # of connection points: 2
#     Edge 42, Type (0, 0), BuildingBlock: EZIPEK_clean_linker_0, # of connection points: 2
#     Edge 43, Type (0, 0), BuildingBlock: EZIPEK_clean_linker_0, # of connection points: 2
#     Edge 44, Type (0, 0), BuildingBlock: EZIPEK_clean_linker_0, # of connection points: 2
#     Edge 45, Type (0, 0), BuildingBlock: EZIPEK_clean_linker_0, # of connection points: 2
#     Edge 46, Type (0, 0), BuildingBlock: EZIPEK_clean_linker_0, # of connection points: 2
#     Edge 47, Type (0, 0), BuildingBlock: EZIPEK_clean_linker_0, # of connection points: 2
# Relax obj value: 0.089
# Max RMSD: 0.070
# Mean RMSD: 0.070
data_MOF--net-ukb--node1-KUFVIS_clean_sbu_0--edge1-EZIPEK_clean_linker_0
_symmetry_space_group_name_H-M    P1
_symmetry_Int_Tables_number       1
_symmetry_cell_setting            triclinic
loop_
_symmetry_equiv_pos_as_xyz
'x, y, z'
_cell_length_a     32.070184
_cell_length_b     32.061419
_cell_length_c     27.71004
_cell_angle_alpha  89.971346
_cell_angle_beta   89.994722
_cell_angle_gamma 90.004661
loop_
_atom_site_label
_atom_site_type_symbol
_atom_site_fract_x
_atom_site_fract_y
_atom_site_fract_z
_atom_type_partial_charge
Mn0 Mn 0.52488 0.18603 0.20298 0.0
Mn1 Mn 0.61099 0.18576 0.13356 0.0
C2 C 0.58246 0.14852 0.23047 0.0
C3 C 0.46035 0.1575 0.22125 0.0
C4 C 0.58594 0.25955 0.19859 0.0
O5 O 0.50474 0.21098 0.1389 0.0
O6 O 0.56142 0.19853 0.09369 0.0
C7 C 0.59303 0.11359 0.07018 0.0
N8 N 0.61907 0.13373 0.10117 0.0
C9 C 0.67561 0.08735 0.08169 0.0
C10 C 0.6494 0.06612 0.04949 0.0
C11 C 0.60777 0.07903 0.04413 0.0
C12 C 0.65872 0.12076 0.10765 0.0
H13 H 0.56146 0.12416 0.06509 0.0
C14 C 0.52371 0.21041 0.0985 0.0
O15 O 0.46923 0.19565 0.23318 0.0
O16 O 0.48741 0.13739 0.19546 0.0
N17 N 0.66272 0.17369 0.16464 0.0
C18 C 0.68359 0.19735 0.19714 0.0
C19 C 0.72582 0.18916 0.20636 0.0
C20 C 0.7461 0.15629 0.18256 0.0
C21 C 0.724 0.13229 0.149 0.0
C22 C 0.68203 0.1422 0.14105 0.0
H23 H 0.66813 0.22307 0.21426 0.0
O24 O 0.551 0.15689 0.25785 0.0
O25 O 0.57765 0.15926 0.18503 0.0
O26 O 0.55588 0.24099 0.22018 0.0
O27 O 0.60583 0.24148 0.16464 0.0
C28 C 0.74218 0.09964 0.1222 0.0
C29 C 0.71791 0.077 0.08874 0.0
H30 H 0.6609 0.03993 0.0287 0.0
H31 H 0.58733 0.06287 0.01931 0.0
H32 H 0.74313 0.209 0.23037 0.0
H33 H 0.77878 0.15032 0.18965 0.0
H34 H 0.77466 0.09149 0.12733 0.0
H35 H 0.73204 0.05167 0.06871 0.0
Mn36 Mn 0.31367 0.5217 0.69359 0.0
Mn37 Mn 0.29956 0.60948 0.62767 0.0
C38 C 0.34537 0.58389 0.71872 0.0
C39 C 0.34863 0.46083 0.7137 0.0
C40 C 0.23627 0.57859 0.70041 0.0
O41 O 0.29098 0.49795 0.63052 0.0
O42 O 0.28243 0.55883 0.5919 0.0
C43 C 0.36299 0.59061 0.55306 0.0
N44 N 0.34596 0.61747 0.58554 0.0
C45 C 0.3859 0.67468 0.55396 0.0
C46 C 0.4038 0.64773 0.51992 0.0
C47 C 0.39266 0.60533 0.51988 0.0
C48 C 0.35775 0.65777 0.58723 0.0
H49 H 0.35364 0.55843 0.55232 0.0
C50 C 0.28021 0.51917 0.59379 0.0
O51 O 0.30983 0.46621 0.72515 0.0
O52 O 0.36627 0.48927 0.68726 0.0
N53 N 0.31386 0.66244 0.65395 0.0
C54 C 0.29344 0.68413 0.68889 0.0
C55 C 0.29936 0.72733 0.69227 0.0
C56 C 0.32502 0.74788 0.65909 0.0
C57 C 0.34677 0.72492 0.62429 0.0
C58 C 0.33996 0.68188 0.62278 0.0
H59 H 0.27157 0.66882 0.71265 0.0
O60 O 0.34006 0.55237 0.74722 0.0
O61 O 0.3339 0.57759 0.67391 0.0
O62 O 0.25527 0.54483 0.71128 0.0
O63 O 0.25058 0.60484 0.67 0.0
C64 C 0.37369 0.74306 0.58989 0.0
C65 C 0.39398 0.71781 0.55548 0.0
H66 H 0.42588 0.65927 0.49351 0.0
H67 H 0.40623 0.58427 0.49372 0.0
H68 H 0.28289 0.74526 0.71888 0.0
H69 H 0.32637 0.78139 0.65991 0.0
H70 H 0.37915 0.7763 0.58939 0.0
H71 H 0.4151 0.73199 0.52979 0.0
Mn72 Mn 0.9729 0.31282 0.20174 0.0
Mn73 Mn 0.88442 0.30515 0.13637 0.0
C74 C 0.9127 0.34671 0.22894 0.0
C75 C 0.03535 0.34509 0.22063 0.0
C76 C 0.91285 0.23756 0.20563 0.0
O77 O 0.99481 0.29106 0.1375 0.0
O78 O 0.93364 0.28656 0.09838 0.0
C79 C 0.90415 0.36915 0.06242 0.0
N80 N 0.87842 0.35408 0.09738 0.0
C81 C 0.82689 0.40647 0.07982 0.0
C82 C 0.85292 0.42261 0.0437 0.0
C83 C 0.89183 0.40394 0.03511 0.0
C84 C 0.84117 0.37206 0.1062 0.0
H85 H 0.93359 0.35448 0.05513 0.0
C86 C 0.97323 0.28252 0.1003 0.0
O87 O 0.02886 0.30632 0.23175 0.0
O88 O 0.00684 0.36424 0.19589 0.0
N89 N 0.83404 0.32189 0.16624 0.0
C90 C 0.81185 0.30083 0.20013 0.0
C91 C 0.7725 0.31536 0.21297 0.0
C92 C 0.75654 0.35168 0.19182 0.0
C93 C 0.77841 0.37094 0.15419 0.0
C94 C 0.81757 0.35484 0.14252 0.0
H95 H 0.82371 0.2728 0.21676 0.0
O96 O 0.94387 0.33885 0.2572 0.0
O97 O 0.9183 0.33606 0.18369 0.0
O98 O 0.94744 0.25483 0.21707 0.0
O99 O 0.88709 0.25423 0.17624 0.0
C100 C 0.76304 0.40524 0.12777 0.0
C101 C 0.78729 0.42301 0.09058 0.0
H102 H 0.84331 0.44921 0.02231 0.0
H103 H 0.91209 0.41605 0.00718 0.0
H104 H 0.75435 0.29764 0.23795 0.0
H105 H 0.72727 0.36388 0.20431 0.0
H106 H 0.73303 0.41871 0.13616 0.0
H107 H 0.7753 0.44954 0.07073 0.0
Mn108 Mn 0.18695 0.97603 0.69423 0.0
Mn109 Mn 0.19588 0.88814 0.6296 0.0
C110 C 0.15516 0.9149 0.72347 0.0
C111 C 0.15302 0.03643 0.71816 0.0
C112 C 0.26335 0.91882 0.69654 0.0
O113 O 0.20291 -4e-05 0.62875 0.0
O114 O 0.21394 0.93828 0.593 0.0
C115 C 0.13087 0.90901 0.55732 0.0
N116 N 0.14823 0.88157 0.5889 0.0
C117 C 0.10481 0.82586 0.55988 0.0
C118 C 0.08657 0.85344 0.52674 0.0
C119 C 0.09936 0.89537 0.52584 0.0
C120 C 0.13508 0.84169 0.59125 0.0
H121 H 0.1412 0.94087 0.5561 0.0
C122 C 0.21455 0.97806 0.59301 0.0
O123 O 0.19271 0.03171 0.72539 0.0
O124 O 0.13366 0.00741 0.69452 0.0
N125 N 0.18048 0.83576 0.65625 0.0
C126 C 0.20111 0.81361 0.6905 0.0
C127 C 0.19384 0.77068 0.6946 0.0
C128 C 0.16617 0.75097 0.66301 0.0
C129 C 0.14435 0.77445 0.62876 0.0
C130 C 0.15296 0.81711 0.62623 0.0
H131 H 0.22421 0.82851 0.71275 0.0
O132 O 0.16816 0.94459 0.75104 0.0
O133 O 0.16323 0.92057 0.67738 0.0
O134 O 0.24671 0.95423 0.70428 0.0
O135 O 0.24609 0.89099 0.67045 0.0
C136 C 0.11512 0.75726 0.59635 0.0
C137 C 0.09458 0.78321 0.56275 0.0
H138 H 0.06284 0.84277 0.50182 0.0
H139 H 0.08547 0.91693 0.50044 0.0
H140 H 0.21065 0.75222 0.72051 0.0
H141 H 0.16329 0.71767 0.66462 0.0
H142 H 0.10762 0.72439 0.59742 0.0
H143 H 0.07117 0.77003 0.53917 0.0
Mn144 Mn 0.52359 0.30668 0.81514 0.0
Mn145 Mn 0.6119 0.29277 0.87976 0.0
C146 C 0.58489 0.34008 0.79027 0.0
C147 C 0.46259 0.34176 0.79611 0.0
C148 C 0.58201 0.23058 0.80511 0.0
O149 O 0.50059 0.28241 0.87786 0.0
O150 O 0.56184 0.2734 0.91549 0.0
C151 C 0.59225 0.35347 0.95718 0.0
N152 N 0.61909 0.33825 0.92349 0.0
C153 C 0.67534 0.37971 0.95484 0.0
C154 C 0.64835 0.39582 0.99004 0.0
C155 C 0.60645 0.38299 0.99083 0.0
C156 C 0.65892 0.35157 0.92126 0.0
H157 H 0.56047 0.34281 0.95858 0.0
C158 C 0.52216 0.27083 0.91397 0.0
O159 O 0.46795 0.30312 0.7838 0.0
O160 O 0.49085 0.35882 0.82323 0.0
N161 N 0.66411 0.30926 0.8533 0.0
C162 C 0.6858 0.29072 0.81701 0.0
C163 C 0.72854 0.29871 0.81246 0.0
C164 C 0.74871 0.32447 0.84582 0.0
C165 C 0.72566 0.34432 0.88201 0.0
C166 C 0.68305 0.33549 0.88467 0.0
H167 H 0.67085 0.26891 0.79292 0.0
O168 O 0.55337 0.33451 0.76191 0.0
O169 O 0.57915 0.3276 0.83487 0.0
O170 O 0.54757 0.24892 0.79552 0.0
O171 O 0.60819 0.24487 0.83561 0.0
C172 C 0.74337 0.37138 0.91651 0.0
C173 C 0.71806 0.38969 0.95236 0.0
H174 H 0.6595 0.41783 0.01674 0.0
H175 H 0.58539 0.39516 0.0179 0.0
H176 H 0.74645 0.2838 0.78466 0.0
H177 H 0.78207 0.32739 0.84399 0.0
H178 H 0.77633 0.37848 0.91585 0.0
H179 H 0.73191 0.41081 0.97833 0.0
Mn180 Mn 0.18853 0.52419 0.30966 0.0
Mn181 Mn 0.19935 0.61308 0.37379 0.0
C182 C 0.15488 0.58476 0.28257 0.0
C183 C 0.15496 0.46214 0.29186 0.0
C184 C 0.26435 0.5835 0.30236 0.0
O185 O 0.21131 0.50195 0.37303 0.0
O186 O 0.2181 0.56331 0.4109 0.0
C187 C 0.13608 0.59307 0.4483 0.0
N188 N 0.15246 0.62003 0.41546 0.0
C189 C 0.10996 0.67617 0.44503 0.0
C190 C 0.09253 0.64905 0.47925 0.0
C191 C 0.10534 0.60714 0.48053 0.0
C192 C 0.13922 0.65986 0.41273 0.0
H193 H 0.14674 0.56131 0.45008 0.0
C194 C 0.22131 0.52363 0.40952 0.0
O195 O 0.19361 0.46802 0.27985 0.0
O196 O 0.13675 0.49096 0.31706 0.0
N197 N 0.18352 0.66516 0.34651 0.0
C198 C 0.20415 0.68718 0.31203 0.0
C199 C 0.19785 0.7303 0.30859 0.0
C200 C 0.17099 0.75035 0.34087 0.0
C201 C 0.14877 0.72697 0.37494 0.0
C202 C 0.15658 0.68413 0.37701 0.0
H203 H 0.22679 0.67221 0.28912 0.0
O204 O 0.16167 0.55293 0.25507 0.0
O205 O 0.16632 0.57969 0.32768 0.0
O206 O 0.24669 0.54874 0.29241 0.0
O207 O 0.24849 0.60983 0.33152 0.0
C208 C 0.12054 0.74456 0.40826 0.0
C209 C 0.10026 0.71893 0.44235 0.0
H210 H 0.06958 0.66013 0.50492 0.0
H211 H 0.09221 0.58599 0.50692 0.0
H212 H 0.21509 0.7485 0.2828 0.0
H213 H 0.16931 0.78384 0.34024 0.0
H214 H 0.11395 0.77762 0.40798 0.0
H215 H 0.07783 0.73253 0.46684 0.0
Mn216 Mn 0.97565 0.18805 0.81684 0.0
Mn217 Mn 0.88663 0.20134 0.88043 0.0
C218 C 0.91472 0.1544 0.79096 0.0
C219 C 0.03734 0.15373 0.7989 0.0
C220 C 0.9171 0.26416 0.80663 0.0
O221 O 0.99793 0.21205 0.8798 0.0
O222 O 0.93636 0.22056 0.91683 0.0
C223 C 0.90553 0.14051 0.95803 0.0
N224 N 0.87903 0.15575 0.92398 0.0
C225 C 0.82225 0.11499 0.95535 0.0
C226 C 0.84888 0.0989 0.99093 0.0
C227 C 0.89089 0.11136 0.99189 0.0
C228 C 0.83911 0.14276 0.9216 0.0
H229 H 0.93734 0.15092 0.95955 0.0
C230 C 0.97604 0.22327 0.91572 0.0
O231 O 0.03162 0.19231 0.78653 0.0
O232 O 0.00879 0.13613 0.82515 0.0
N233 N 0.83464 0.18491 0.8534 0.0
C234 C 0.81329 0.20352 0.81691 0.0
C235 C 0.77048 0.19596 0.81218 0.0
C236 C 0.7499 0.17055 0.8456 0.0
C237 C 0.77261 0.15055 0.88198 0.0
C238 C 0.81531 0.15892 0.88477 0.0
H239 H 0.8286 0.22513 0.79287 0.0
O240 O 0.94656 0.16026 0.76314 0.0
O241 O 0.91992 0.16676 0.83571 0.0
O242 O 0.95162 0.24586 0.79734 0.0
O243 O 0.89061 0.24955 0.83659 0.0
C244 C 0.75447 0.12386 0.9166 0.0
C245 C 0.77944 0.10546 0.95272 0.0
H246 H 0.83737 0.07721 0.0178 0.0
H247 H 0.91167 0.09924 0.01928 0.0
H248 H 0.75281 0.21096 0.78426 0.0
H249 H 0.71651 0.16803 0.84369 0.0
H250 H 0.72143 0.11714 0.91585 0.0
H251 H 0.76525 0.08465 0.97881 0.0
Mn252 Mn 0.31011 0.97568 0.30932 0.0
Mn253 Mn 0.29935 0.88548 0.37223 0.0
C254 C 0.34464 0.91586 0.2827 0.0
C255 C 0.3427 0.03875 0.29292 0.0
C256 C 0.23528 0.91566 0.29936 0.0
O257 O 0.28555 0.99644 0.37255 0.0
O258 O 0.27973 0.93459 0.41003 0.0
C259 C 0.36122 0.90458 0.44856 0.0
N260 N 0.34643 0.87844 0.41388 0.0
C261 C 0.3943 0.82449 0.43789 0.0
C262 C 0.41002 0.85088 0.47389 0.0
C263 C 0.3936 0.89125 0.47899 0.0
C264 C 0.36274 0.83998 0.40789 0.0
H265 H 0.34812 0.93516 0.45319 0.0
C266 C 0.27567 0.97424 0.40878 0.0
O267 O 0.30439 0.03205 0.28015 0.0
O268 O 0.3611 0.0101 0.31831 0.0
N269 N 0.31656 0.83413 0.34343 0.0
C270 C 0.29624 0.81165 0.30909 0.0
C271 C 0.30745 0.76994 0.30127 0.0
C272 C 0.33938 0.75152 0.32842 0.0
C273 C 0.35918 0.77481 0.36442 0.0
C274 C 0.34642 0.81621 0.37113 0.0
H275 H 0.27063 0.82498 0.28906 0.0
O276 O 0.33852 0.94782 0.25502 0.0
O277 O 0.33231 0.92038 0.32749 0.0
O278 O 0.25312 0.95035 0.28973 0.0
O279 O 0.25015 0.88938 0.32955 0.0
C280 C 0.39027 0.7582 0.3948 0.0
C281 C 0.40826 0.78325 0.43107 0.0
H282 H 0.4345 0.8404 0.49795 0.0
H283 H 0.40542 0.9118 0.50678 0.0
H284 H 0.29039 0.7515 0.27576 0.0
H285 H 0.34761 0.71919 0.32222 0.0
H286 H 0.40074 0.7263 0.39036 0.0
H287 H 0.43253 0.77037 0.45378 0.0
Mn288 Mn 0.4723 0.81277 0.80771 0.0
Mn289 Mn 0.38235 0.80216 0.87081 0.0
C290 C 0.41215 0.84599 0.78005 0.0
C291 C 0.53452 0.84587 0.78991 0.0
C292 C 0.41363 0.73683 0.80018 0.0
O293 O 0.49347 0.7901 0.87164 0.0
O294 O 0.43168 0.784 0.90917 0.0
C295 C 0.40035 0.86583 0.94552 0.0
N296 N 0.37453 0.84996 0.91117 0.0
C297 C 0.31968 0.89723 0.93399 0.0
C298 C 0.34574 0.91406 0.96964 0.0
C299 C 0.3864 0.89849 0.97516 0.0
C300 C 0.33578 0.86544 0.90477 0.0
H301 H 0.43114 0.85337 0.95049 0.0
C302 C 0.47139 0.78056 0.90807 0.0
O303 O 0.52853 0.80712 0.77851 0.0
O304 O 0.50576 0.86447 0.81492 0.0
N305 N 0.33091 0.81812 0.84137 0.0
C306 C 0.30899 0.79698 0.80724 0.0
C307 C 0.26717 0.80739 0.79892 0.0
C308 C 0.24807 0.83937 0.82536 0.0
C309 C 0.27083 0.86006 0.86112 0.0
C310 C 0.3124 0.8481 0.86832 0.0
H311 H 0.32287 0.77135 0.78779 0.0
O312 O 0.44406 0.83936 0.75254 0.0
O313 O 0.4168 0.83471 0.8252 0.0
O314 O 0.44803 0.75498 0.79016 0.0
O315 O 0.38695 0.75207 0.82961 0.0
C316 C 0.25358 0.89131 0.89078 0.0
C317 C 0.27822 0.91033 0.92673 0.0
H318 H 0.33479 0.93877 0.99309 0.0
H319 H 0.4067 0.91118 1.00268 0.0
H320 H 0.24924 0.7897 0.77355 0.0
H321 H 0.21565 0.84696 0.81877 0.0
H322 H 0.22153 0.90117 0.88597 0.0
H323 H 0.26487 0.9348 0.94879 0.0
Mn324 Mn 0.68431 0.4773 0.30987 0.0
Mn325 Mn 0.68988 0.38754 0.37217 0.0
C326 C 0.65351 0.41705 0.27647 0.0
C327 C 0.65189 0.53948 0.29012 0.0
C328 C 0.76103 0.41911 0.30924 0.0
O329 O 0.70092 0.49823 0.3766 0.0
O330 O 0.7073 0.43584 0.41233 0.0
C331 C 0.62241 0.40691 0.44211 0.0
N332 N 0.63884 0.38157 0.40759 0.0
C333 C 0.58157 0.33347 0.41541 0.0
C334 C 0.56403 0.35915 0.45095 0.0
C335 C 0.58459 0.39605 0.46437 0.0
C336 C 0.61934 0.346 0.39462 0.0
H337 H 0.63812 0.43504 0.4527 0.0
C338 C 0.7099 0.47555 0.41275 0.0
O339 O 0.69146 0.53423 0.28254 0.0
O340 O 0.63174 0.50972 0.31161 0.0
N341 N 0.67405 0.33767 0.34078 0.0
C342 C 0.69789 0.31435 0.31097 0.0
C343 C 0.68274 0.2762 0.29439 0.0
C344 C 0.64341 0.26219 0.30921 0.0
C345 C 0.62093 0.28498 0.34366 0.0
C346 C 0.63817 0.32262 0.35933 0.0
H347 H 0.72863 0.32464 0.30151 0.0
O348 O 0.66405 0.44897 0.25088 0.0
O349 O 0.66074 0.42155 0.32299 0.0
O350 O 0.74373 0.45398 0.29968 0.0
O351 O 0.74298 0.39128 0.33514 0.0
C352 C 0.58246 0.27208 0.36324 0.0
C353 C 0.56287 0.29623 0.39927 0.0
H354 H 0.53482 0.35088 0.46809 0.0
H355 H 0.57136 0.41605 0.49185 0.0
H356 H 0.70161 0.25759 0.27078 0.0
H357 H 0.63129 0.23399 0.29378 0.0
H358 H 0.56764 0.24367 0.35118 0.0
H359 H 0.53345 0.2859 0.41429 0.0
Mn360 Mn 0.02487 0.68591 0.80599 0.0
Mn361 Mn 0.11304 0.69778 0.87124 0.0
C362 C 0.08622 0.65318 0.77987 0.0
C363 C 0.96347 0.65183 0.78654 0.0
C364 C 0.08301 0.7627 0.80021 0.0
O365 O 0.00165 0.70776 0.86936 0.0
O366 O 0.06275 0.71594 0.90749 0.0
C367 C 0.09302 0.63442 0.94564 0.0
N368 N 0.12012 0.65106 0.91314 0.0
C369 C 0.17666 0.61007 0.94441 0.0
C370 C 0.14943 0.59242 0.97836 0.0
C371 C 0.10725 0.6043 0.97857 0.0
C372 C 0.16021 0.63859 0.9113 0.0
H373 H 0.06104 0.64443 0.94663 0.0
C374 C 0.02305 0.71832 0.90589 0.0
O375 O 0.96912 0.69066 0.77516 0.0
O376 O 0.99215 0.63363 0.81201 0.0
N377 N 0.16554 0.6825 0.84469 0.0
C378 C 0.18757 0.70314 0.8102 0.0
C379 C 0.23078 0.69747 0.80744 0.0
C380 C 0.25096 0.67134 0.84049 0.0
C381 C 0.2276 0.64913 0.87462 0.0
C382 C 0.1846 0.65612 0.8758 0.0
H383 H 0.17249 0.72528 0.78667 0.0
O384 O 0.05484 0.65995 0.75164 0.0
O385 O 0.08039 0.66434 0.82489 0.0
O386 O 0.04859 0.74458 0.78993 0.0
O387 O 0.10966 0.74691 0.82901 0.0
C388 C 0.2453 0.6218 0.90888 0.0
C389 C 0.21966 0.60142 0.94287 0.0
H390 H 0.16062 0.57002 0.00463 0.0
H391 H 0.086 0.59099 0.00472 0.0
H392 H 0.24889 0.71467 0.78156 0.0
H393 H 0.28448 0.67016 0.84031 0.0
H394 H 0.27849 0.6161 0.90963 0.0
H395 H 0.23346 0.57982 0.96827 0.0
Mn396 Mn 0.81072 0.02169 0.31033 0.0
Mn397 Mn 0.79943 0.10853 0.37596 0.0
C398 C 0.84017 0.08419 0.28128 0.0
C399 C 0.84618 0.96264 0.28588 0.0
C400 C 0.73253 0.07602 0.30961 0.0
O401 O 0.7962 0.99658 0.37573 0.0
O402 O 0.78354 0.05749 0.41229 0.0
C403 C 0.86607 0.08892 0.44649 0.0
N404 N 0.84715 0.11627 0.41603 0.0
C405 C 0.88696 0.17348 0.4475 0.0
C406 C 0.90685 0.14605 0.47953 0.0
C407 C 0.89674 0.10341 0.47854 0.0
C408 C 0.85808 0.15681 0.41503 0.0
H409 H 0.85755 0.0565 0.44642 0.0
C410 C 0.78425 0.01773 0.41192 0.0
O411 O 0.80635 0.96615 0.27889 0.0
O412 O 0.86495 0.99221 0.30925 0.0
N413 N 0.81234 0.16198 0.35013 0.0
C414 C 0.78967 0.18407 0.3175 0.0
C415 C 0.79321 0.22762 0.31633 0.0
C416 C 0.81932 0.24802 0.3492 0.0
C417 C 0.84361 0.22468 0.38142 0.0
C418 C 0.83869 0.18135 0.381 0.0
H419 H 0.76733 0.16864 0.29461 0.0
O420 O 0.82793 0.05428 0.25357 0.0
O421 O 0.83271 0.07781 0.32737 0.0
O422 O 0.75024 0.04131 0.30122 0.0
O423 O 0.74916 0.10421 0.3357 0.0
C424 C 0.871 0.24255 0.41551 0.0
C425 C 0.89373 0.21682 0.44732 0.0
H426 H 0.92966 0.15741 0.50519 0.0
H427 H 0.91187 0.08195 0.50311 0.0
H428 H 0.77434 0.24573 0.29197 0.0
H429 H 0.81887 0.2816 0.35038 0.0
H430 H 0.87492 0.27592 0.41797 0.0
H431 H 0.91564 0.23074 0.47217 0.0
Mn432 Mn 0.47511 0.69147 0.19338 0.0
Mn433 Mn 0.38654 0.69984 0.13007 0.0
C434 C 0.41491 0.65839 0.22329 0.0
C435 C 0.53639 0.65826 0.21517 0.0
C436 C 0.41671 0.76701 0.19773 0.0
O437 O 0.49802 0.70857 0.12796 0.0
O438 O 0.43595 0.71937 0.09315 0.0
C439 C 0.40779 0.63651 0.05594 0.0
N440 N 0.38045 0.65267 0.08847 0.0
C441 C 0.3258 0.60729 0.06075 0.0
C442 C 0.35327 0.5903 0.02665 0.0
C443 C 0.39461 0.60474 0.02454 0.0
C444 C 0.34108 0.63822 0.09164 0.0
H445 H 0.43922 0.64793 0.05391 0.0
C446 C 0.47571 0.72043 0.09272 0.0
O447 O 0.53114 0.69774 0.22344 0.0
O448 O 0.50724 0.63871 0.19198 0.0
N449 N 0.33489 0.68301 0.15717 0.0
C450 C 0.31283 0.70258 0.19226 0.0
C451 C 0.27042 0.69351 0.19776 0.0
C452 C 0.25117 0.66482 0.167 0.0
C453 C 0.27464 0.64412 0.13181 0.0
C454 C 0.31664 0.65494 0.12751 0.0
H455 H 0.32732 0.72614 0.21421 0.0
O456 O 0.44485 0.67145 0.25042 0.0
O457 O 0.41982 0.66704 0.17714 0.0
O458 O 0.45245 0.75082 0.2048 0.0
O459 O 0.38889 0.74956 0.17179 0.0
C460 C 0.25806 0.61389 0.10023 0.0
C461 C 0.28387 0.59487 0.06537 0.0
H462 H 0.343 0.56618 1.00201 0.0
H463 H 0.4161 0.5918 0.99842 0.0
H464 H 0.25204 0.70968 0.22422 0.0
H465 H 0.21816 0.66027 0.17004 0.0
H466 H 0.22574 0.60459 0.10268 0.0
H467 H 0.27112 0.5709 0.04218 0.0
Mn468 Mn 0.80908 0.47378 0.69568 0.0
Mn469 Mn 0.79589 0.38506 0.63177 0.0
C470 C 0.84305 0.4129 0.72121 0.0
C471 C 0.84354 0.5355 0.71262 0.0
C472 C 0.73327 0.41514 0.706 0.0
O473 O 0.78405 0.496 0.63303 0.0
O474 O 0.77654 0.43467 0.59518 0.0
C475 C 0.85754 0.40463 0.55532 0.0
N476 N 0.84204 0.3779 0.58899 0.0
C477 C 0.887 0.32281 0.56169 0.0
C478 C 0.90344 0.34968 0.52657 0.0
C479 C 0.88886 0.39092 0.52364 0.0
C480 C 0.85664 0.33864 0.59298 0.0
H481 H 0.84587 0.43596 0.55254 0.0
C482 C 0.77312 0.47429 0.5968 0.0
O483 O 0.80518 0.52982 0.7259 0.0
O484 O 0.86074 0.50686 0.68619 0.0
N485 N 0.8124 0.33328 0.65926 0.0
C486 C 0.79318 0.31155 0.69507 0.0
C487 C 0.80242 0.2692 0.70107 0.0
C488 C 0.83047 0.2495 0.66992 0.0
C489 C 0.85071 0.27257 0.63402 0.0
C490 C 0.84019 0.31467 0.6295 0.0
H491 H 0.76996 0.3261 0.71765 0.0
O492 O 0.8376 0.44474 0.74917 0.0
O493 O 0.83023 0.41823 0.67666 0.0
O494 O 0.75174 0.44943 0.71599 0.0
O495 O 0.7475 0.38909 0.67527 0.0
C496 C 0.88019 0.25541 0.60191 0.0
C497 C 0.89914 0.28085 0.56663 0.0
H498 H 0.9271 0.33894 0.50159 0.0
H499 H 0.90128 0.4119 0.49661 0.0
H500 H 0.78693 0.25118 0.72835 0.0
H501 H 0.83496 0.21645 0.67326 0.0
H502 H 0.88913 0.22299 0.60441 0.0
H503 H 0.92285 0.26779 0.54338 0.0
Mn504 Mn 0.02393 0.81062 0.1894 0.0
Mn505 Mn 0.11218 0.79542 0.12506 0.0
C506 C 0.08567 0.84282 0.21479 0.0
C507 C 0.96297 0.84583 0.20716 0.0
C508 C 0.08066 0.7334 0.19906 0.0
O509 O 0.00079 0.78696 0.12678 0.0
O510 O 0.06181 0.77757 0.08886 0.0
C511 C 0.09413 0.85712 0.04819 0.0
N512 N 0.12054 0.84106 0.08183 0.0
C513 C 0.17795 0.88073 0.0503 0.0
C514 C 0.15145 0.89767 0.01513 0.0
C515 C 0.10917 0.88617 0.01446 0.0
C516 C 0.16073 0.85316 0.08402 0.0
H517 H 0.06208 0.84742 0.04687 0.0
C518 C 0.02211 0.77559 0.09049 0.0
O519 O 0.96812 0.80726 0.21986 0.0
O520 O 0.99181 0.86305 0.18096 0.0
N521 N 0.16476 0.81047 0.15185 0.0
C522 C 0.18604 0.79106 0.18791 0.0
C523 C 0.22908 0.79762 0.1922 0.0
C524 C 0.24997 0.82273 0.1587 0.0
C525 C 0.22738 0.84347 0.12275 0.0
C526 C 0.18444 0.83623 0.1205 0.0
H527 H 0.17053 0.76957 0.21197 0.0
O528 O 0.05383 0.83789 0.24288 0.0
O529 O 0.07993 0.83058 0.17011 0.0
O530 O 0.04679 0.75257 0.20894 0.0
O531 O 0.10718 0.74716 0.1686 0.0
C532 C 0.24584 0.86974 0.08791 0.0
C533 C 0.22098 0.88914 0.05245 0.0
H534 H 0.16326 0.91924 0.9883 0.0
H535 H 0.08847 0.89894 0.98737 0.0
H536 H 0.24665 0.7821 0.21987 0.0
H537 H 0.28348 0.82451 0.16028 0.0
H538 H 0.27908 0.87523 0.08769 0.0
H539 H 0.23542 0.90976 0.02642 0.0
Mn540 Mn 0.69061 0.0211 0.69561 0.0
Mn541 Mn 0.70514 0.10927 0.63086 0.0
C542 C 0.65716 0.08244 0.72016 0.0
C543 C 0.65555 0.95998 0.71358 0.0
C544 C 0.76688 0.07907 0.70599 0.0
O545 O 0.71534 0.99806 0.63332 0.0
O546 O 0.72419 0.05905 0.59503 0.0
C547 C 0.64459 0.09018 0.55311 0.0
N548 N 0.65971 0.11679 0.58711 0.0
C549 C 0.61774 0.17303 0.5566 0.0
C550 C 0.60171 0.14626 0.52115 0.0
C551 C 0.6149 0.10449 0.51973 0.0
C552 C 0.64621 0.15654 0.58979 0.0
H553 H 0.65547 0.05851 0.55124 0.0
C554 C 0.7268 0.01936 0.59697 0.0
O555 O 0.69398 0.96539 0.72671 0.0
O556 O 0.63864 0.98844 0.6866 0.0
N557 N 0.68888 0.16151 0.65749 0.0
C558 C 0.7075 0.18309 0.69382 0.0
C559 C 0.69913 0.22573 0.69893 0.0
C560 C 0.67285 0.24591 0.66612 0.0
C561 C 0.65307 0.223 0.62978 0.0
C562 C 0.66233 0.1805 0.62651 0.0
H563 H 0.72959 0.16812 0.71755 0.0
O564 O 0.66235 0.05082 0.74853 0.0
O565 O 0.67001 0.07671 0.67568 0.0
O566 O 0.74814 0.04492 0.7159 0.0
O567 O 0.75304 0.10514 0.67504 0.0
C568 C 0.62559 0.24076 0.59576 0.0
C569 C 0.60734 0.21562 0.55973 0.0
H570 H 0.57948 0.15747 0.49473 0.0
H571 H 0.60284 0.0836 0.49241 0.0
H572 H 0.71404 0.24362 0.72676 0.0
H573 H 0.66944 0.27919 0.6685 0.0
H574 H 0.61808 0.27362 0.59698 0.0
H575 H 0.58589 0.2295 0.53414 0.0
C576 C 0.4192 0.12849 0.291 0.0
C577 C 0.42343 0.13532 0.24049 0.0
C578 C 0.37123 0.0815 0.22425 0.0
C579 C 0.36629 0.07526 0.27478 0.0
N580 N 0.37694 0.10009 0.3558 0.0
N581 N 0.39583 0.12707 0.1604 0.0
C582 C 0.38744 0.10126 0.30801 0.0
C583 C 0.3967 0.11476 0.20762 0.0
N584 N 0.44718 0.14548 0.32261 0.0
N585 N 0.35432 0.05397 0.19204 0.0
H586 H 0.41408 0.15161 0.14741 0.0
H587 H 0.37413 0.11598 0.13554 0.0
H588 H 0.33647 0.02828 0.20212 0.0
H589 H 0.3611 0.05441 0.15528 0.0
H590 H 0.44858 0.13725 0.35895 0.0
H591 H 0.47119 0.1654 0.31222 0.0
H592 H 0.38838 0.1212 0.38111 0.0
H593 H 0.35355 0.08063 0.36922 0.0
C594 C 0.39554 0.39911 0.7039 0.0
C595 C 0.37333 0.42634 0.73476 0.0
C596 C 0.40208 0.3902 0.80543 0.0
C597 C 0.42892 0.36739 0.77471 0.0
N598 N 0.45574 0.35462 0.69428 0.0
N599 N 0.35998 0.4521 0.81545 0.0
C600 C 0.42663 0.37261 0.72373 0.0
C601 C 0.37738 0.42281 0.78575 0.0
N602 N 0.38652 0.39818 0.6557 0.0
N603 N 0.39983 0.38032 0.85335 0.0
H604 H 0.34257 0.47731 0.80297 0.0
H605 H 0.36602 0.45362 0.85235 0.0
H606 H 0.41736 0.35633 0.86875 0.0
H607 H 0.37775 0.39303 0.87667 0.0
H608 H 0.39866 0.37593 0.63219 0.0
H609 H 0.36369 0.41707 0.6401 0.0
H610 H 0.45831 0.36147 0.65765 0.0
H611 H 0.47984 0.33575 0.70679 0.0
C612 C 0.09821 0.38898 0.20605 0.0
C613 C 0.07177 0.36829 0.23919 0.0
C614 C 0.10947 0.40036 0.3066 0.0
C615 C 0.13079 0.42628 0.27342 0.0
N616 N 0.14233 0.44868 0.191 0.0
N617 N 0.04905 0.35713 0.3215 0.0
C618 C 0.12491 0.42115 0.22289 0.0
C619 C 0.07689 0.37416 0.28971 0.0
N620 N 0.09788 0.37764 0.15851 0.0
N621 N 0.12063 0.40064 0.35421 0.0
H622 H 0.02433 0.33811 0.31104 0.0
H623 H 0.04841 0.36458 0.35807 0.0
H624 H 0.14465 0.41937 0.36751 0.0
H625 H 0.10902 0.37951 0.37941 0.0
H626 H 0.11936 0.38871 0.13337 0.0
H627 H 0.07873 0.35393 0.14524 0.0
H628 H 0.13494 0.44927 0.15441 0.0
H629 H 0.16151 0.47331 0.20135 0.0
C630 C 0.12534 0.07527 0.79006 0.0
C631 C 0.12952 0.07164 0.73916 0.0
C632 C 0.07502 0.12394 0.72732 0.0
C633 C 0.07186 0.12883 0.77825 0.0
N634 N 0.10018 0.11656 0.85744 0.0
N635 N 0.11646 0.09936 0.6599 0.0
C636 C 0.09908 0.10684 0.80943 0.0
C637 C 0.107 0.09833 0.708 0.0
N638 N 0.14434 0.04708 0.81987 0.0
N639 N 0.04582 0.14123 0.69739 0.0
H640 H 0.13993 0.08099 0.64475 0.0
H641 H 0.10405 0.12123 0.6361 0.0
H642 H 0.02098 0.15932 0.70951 0.0
H643 H 0.04394 0.1345 0.66068 0.0
H644 H 0.13833 0.04516 0.85674 0.0
H645 H 0.16378 0.02337 0.80742 0.0
H646 H 0.12226 0.10453 0.88124 0.0
H647 H 0.08147 0.13975 0.87258 0.0
C648 C 0.59666 0.89138 0.80263 0.0
C649 C 0.57024 0.86963 0.77044 0.0
C650 C 0.60832 0.89903 0.70162 0.0
C651 C 0.63002 0.92571 0.73357 0.0
N652 N 0.6409 0.95142 0.81482 0.0
N653 N 0.547 0.85674 0.68862 0.0
C654 C 0.62363 0.92271 0.78428 0.0
C655 C 0.57529 0.87402 0.71967 0.0
N656 N 0.59624 0.88177 0.8507 0.0
N657 N 0.61959 0.89736 0.65408 0.0
H658 H 0.52161 0.83896 0.69984 0.0
H659 H 0.54654 0.8631 0.65176 0.0
H660 H 0.64392 0.91518 0.63989 0.0
H661 H 0.6077 0.87546 0.62997 0.0
H662 H 0.61779 0.89362 0.87525 0.0
H663 H 0.57694 0.85871 0.86517 0.0
H664 H 0.63318 0.9535 0.85126 0.0
H665 H 0.66012 0.97565 0.80336 0.0
C666 C 0.57583 0.62905 0.28558 0.0
C667 C 0.57222 0.63499 0.23493 0.0
C668 C 0.62538 0.58178 0.22044 0.0
C669 C 0.62925 0.57605 0.27111 0.0
N670 N 0.61657 0.60076 0.35175 0.0
N671 N 0.60012 0.62546 0.15513 0.0
C672 C 0.6072 0.60195 0.30364 0.0
C673 C 0.5993 0.61412 0.20269 0.0
N674 N 0.54768 0.64705 0.31625 0.0
N675 N 0.64429 0.5547 0.18922 0.0
H676 H 0.58133 0.6492 0.14126 0.0
H677 H 0.62202 0.61428 0.13059 0.0
H678 H 0.6636 0.53041 0.20038 0.0
H679 H 0.63841 0.55429 0.15227 0.0
H680 H 0.54563 0.63968 0.35277 0.0
H681 H 0.52422 0.66723 0.30477 0.0
H682 H 0.60447 0.62171 0.37681 0.0
H683 H 0.6396 0.58125 0.36588 0.0
C684 C 0.9015 0.60632 0.80007 0.0
C685 C 0.92784 0.62772 0.76744 0.0
C686 C 0.89024 0.59673 0.69924 0.0
C687 C 0.8687 0.5704 0.73179 0.0
N688 N 0.85789 0.54605 0.81365 0.0
N689 N 0.95102 0.63972 0.68545 0.0
C690 C 0.87491 0.57439 0.78244 0.0
C691 C 0.92293 0.62248 0.71679 0.0
N692 N 0.90166 0.61683 0.84787 0.0
N693 N 0.87911 0.5974 0.65163 0.0
H694 H 0.97602 0.65817 0.6964 0.0
H695 H 0.95168 0.6328 0.64873 0.0
H696 H 0.85502 0.57906 0.63782 0.0
H697 H 0.89087 0.61894 0.62698 0.0
H698 H 0.88013 0.60523 0.87263 0.0
H699 H 0.92066 0.64036 0.86181 0.0
H700 H 0.86552 0.54474 0.85016 0.0
H701 H 0.83902 0.52136 0.80276 0.0
C702 C 0.89299 0.90164 0.29698 0.0
C703 C 0.87034 0.92781 0.26538 0.0
C704 C 0.90136 0.89254 0.19563 0.0
C705 C 0.92857 0.87101 0.22724 0.0
N706 N 0.9545 0.85938 0.30829 0.0
N707 N 0.85545 0.95169 0.18443 0.0
C708 C 0.92525 0.87622 0.27809 0.0
C709 C 0.87472 0.92393 0.21455 0.0
N710 N 0.88336 0.90089 0.34504 0.0
N711 N 0.90059 0.8825 0.1477 0.0
H712 H 0.83568 0.97523 0.19663 0.0
H713 H 0.86151 0.95344 0.14756 0.0
H714 H 0.91961 0.85941 0.13286 0.0
H715 H 0.87854 0.89418 0.12364 0.0
H716 H 0.89591 0.87933 0.36913 0.0
H717 H 0.85967 0.91914 0.35992 0.0
H718 H 0.95619 0.86635 0.34494 0.0
H719 H 0.97953 0.84144 0.29642 0.0
C720 C 0.57517 0.3276 0.24775 0.0
C721 C 0.59932 0.30362 0.21385 0.0
C722 C 0.64328 0.36618 0.2062 0.0
C723 C 0.6309 0.38083 0.25236 0.0
N724 N 0.5738 0.38271 0.30852 0.0
N725 N 0.66251 0.30539 0.16238 0.0
C726 C 0.59353 0.36338 0.27107 0.0
C727 C 0.63523 0.32415 0.19358 0.0
N728 N 0.53377 0.31919 0.25415 0.0
N729 N 0.6592 0.39236 0.17194 0.0
H730 H 0.66415 0.27415 0.15364 0.0
H731 H 0.6882 0.32101 0.14818 0.0
H732 H 0.66148 0.42446 0.17562 0.0
H733 H 0.66418 0.38262 0.13647 0.0
H734 H 0.51429 0.3366 0.2764 0.0
H735 H 0.51706 0.29957 0.23133 0.0
H736 H 0.54861 0.36973 0.32686 0.0
H737 H 0.58379 0.41119 0.32253 0.0
C738 C 0.16433 0.60662 0.69014 0.0
C739 C 0.19426 0.58843 0.72123 0.0
C740 C 0.14548 0.60018 0.78823 0.0
C741 C 0.1235 0.63016 0.76019 0.0
N742 N 0.11355 0.66119 0.68083 0.0
N743 N 0.21206 0.56701 0.80265 0.0
C744 C 0.13307 0.63286 0.70991 0.0
C745 C 0.18448 0.58456 0.77114 0.0
N746 N 0.16569 0.59844 0.64174 0.0
N747 N 0.128 0.58421 0.82913 0.0
H748 H 0.24123 0.55589 0.79262 0.0
H749 H 0.20676 0.56597 0.83971 0.0
H750 H 0.09809 0.59216 0.84057 0.0
H751 H 0.14125 0.5596 0.84836 0.0
H752 H 0.14234 0.6074 0.61774 0.0
H753 H 0.18742 0.57799 0.62671 0.0
H754 H 0.11908 0.66342 0.64393 0.0
H755 H 0.09707 0.68675 0.69397 0.0
C756 C 0.89374 0.14322 0.28982 0.0
C757 C 0.86696 0.11905 0.26033 0.0
C758 C 0.88452 0.16516 0.19172 0.0
C759 C 0.90206 0.19474 0.22429 0.0
N760 N 0.92397 0.21076 0.30608 0.0
N761 N 0.86271 0.09428 0.17755 0.0
C762 C 0.90746 0.18326 0.27369 0.0
C763 C 0.8691 0.1263 0.20938 0.0
N764 N 0.91005 0.12595 0.33067 0.0
N765 N 0.88429 0.17337 0.14325 0.0
H766 H 0.8652 0.06308 0.18728 0.0
H767 H 0.86351 0.09727 0.14021 0.0
H768 H 0.90325 0.19596 0.12736 0.0
H769 H 0.86485 0.15827 0.11875 0.0
H770 H 0.93333 0.14017 0.35108 0.0
H771 H 0.90451 0.09501 0.34035 0.0
H772 H 0.92553 0.20473 0.34295 0.0
H773 H 0.93352 0.24075 0.29728 0.0
C774 C 0.31677 0.91741 0.76566 0.0
C775 C 0.30537 0.90869 0.71696 0.0
C776 C 0.36462 0.86117 0.70972 0.0
C777 C 0.37507 0.86802 0.7591 0.0
N778 N 0.3737 0.91881 0.82333 0.0
N779 N 0.33054 0.88914 0.63838 0.0
C780 C 0.35512 0.90122 0.78396 0.0
C781 C 0.3335 0.88615 0.68751 0.0
N782 N 0.29102 0.93979 0.79512 0.0
N783 N 0.3837 0.83024 0.68411 0.0
H784 H 0.30921 0.90896 0.62154 0.0
H785 H 0.35219 0.87647 0.61456 0.0
H786 H 0.39948 0.80562 0.70041 0.0
H787 H 0.37996 0.82604 0.64725 0.0
H788 H 0.29771 0.94555 0.83124 0.0
H789 H 0.26153 0.95011 0.78518 0.0
H790 H 0.36255 0.94574 0.83995 0.0
H791 H 0.40266 0.9092 0.83625 0.0
C792 C 0.61306 0.15942 0.81189 0.0
C793 C 0.59299 0.18945 0.78243 0.0
C794 C 0.6049 0.14277 0.71323 0.0
C795 C 0.63547 0.12042 0.73999 0.0
N796 N 0.66949 0.11012 0.81722 0.0
N797 N 0.57001 0.20901 0.70212 0.0
C798 C 0.63958 0.12942 0.79017 0.0
C799 C 0.58862 0.18093 0.7322 0.0
N800 N 0.60634 0.15942 0.86062 0.0
N801 N 0.58925 0.12647 0.67154 0.0
H802 H 0.55823 0.23753 0.71354 0.0
H803 H 0.56876 0.20493 0.66486 0.0
H804 H 0.59829 0.09746 0.65823 0.0
H805 H 0.56421 0.13975 0.65311 0.0
H806 H 0.617 0.136 0.88356 0.0
H807 H 0.58548 0.17992 0.87712 0.0
H808 H 0.67221 0.11368 0.85435 0.0
H809 H 0.69508 0.09507 0.80197 0.0
C810 C 0.37506 0.62824 0.29617 0.0
C811 C 0.38149 0.63027 0.24509 0.0
C812 C 0.31851 0.58773 0.23359 0.0
C813 C 0.30696 0.59395 0.28285 0.0
N814 N 0.32911 0.61311 0.36327 0.0
N815 N 0.37317 0.58799 0.17407 0.0
C816 C 0.33667 0.61241 0.31467 0.0
C817 C 0.35751 0.60272 0.21646 0.0
N818 N 0.40747 0.63523 0.32728 0.0
N819 N 0.29291 0.56894 0.20105 0.0
H820 H 0.40352 0.59437 0.16276 0.0
H821 H 0.35707 0.56639 0.15289 0.0
H822 H 0.2627 0.55879 0.20832 0.0
H823 H 0.2627 0.55879 0.20832 0.0
H824 H 0.40508 0.63417 0.36468 0.0
H825 H 0.43854 0.63355 0.31681 0.0
H826 H 0.34421 0.63316 0.38711 0.0
H827 H 0.3071 0.59392 0.37987 0.0
C828 C 0.89615 0.35325 0.71546 0.0
C829 C 0.86475 0.37505 0.74152 0.0
C830 C 0.88571 0.33529 0.81355 0.0
C831 C 0.9064 0.30557 0.78423 0.0
N832 N 0.93208 0.28749 0.70458 0.0
N833 N 0.8296 0.3851 0.81808 0.0
C834 C 0.91225 0.31494 0.73438 0.0
C835 C 0.85974 0.36568 0.79151 0.0
N836 N 0.91254 0.37019 0.67447 0.0
N837 N 0.89151 0.33474 0.86243 0.0
H838 H 0.80444 0.40055 0.80244 0.0
H839 H 0.8263 0.38144 0.85513 0.0
H840 H 0.91218 0.31415 0.87915 0.0
H841 H 0.88039 0.35785 0.88548 0.0
H842 H 0.93823 0.35754 0.65669 0.0
H843 H 0.90328 0.39915 0.66114 0.0
H844 H 0.93524 0.29249 0.66765 0.0
H845 H 0.94293 0.25848 0.71564 0.0
C846 C 0.13274 0.85973 0.28513 0.0
C847 C 0.12389 0.86387 0.23489 0.0
C848 C 0.18525 0.90947 0.22681 0.0
C849 C 0.19397 0.9048 0.277 0.0
N850 N 0.16441 0.89179 0.35547 0.0
N851 N 0.13068 0.90997 0.1664 0.0
C852 C 0.16372 0.88532 0.3067 0.0
C853 C 0.14681 0.89388 0.208 0.0
N854 N 0.11227 0.83073 0.31237 0.0
N855 N 0.2133 0.92792 0.19657 0.0
H856 H 0.10134 0.90177 0.15332 0.0
H857 H 0.14442 0.93473 0.14791 0.0
H858 H 0.24136 0.9407 0.20798 0.0
H859 H 0.20949 0.9284 0.15923 0.0
H860 H 0.11513 0.82846 0.3496 0.0
H861 H 0.09677 0.8053 0.29736 0.0
H862 H 0.14102 0.88171 0.37877 0.0
H863 H 0.18566 0.91195 0.37186 0.0
C864 C 0.36035 0.63254 0.78832 0.0
C865 C 0.36563 0.62263 0.7385 0.0
C866 C 0.4097 0.68492 0.7294 0.0
C867 C 0.40373 0.69485 0.77908 0.0
N868 N 0.39024 0.66691 0.85827 0.0
N869 N 0.41309 0.62863 0.67122 0.0
C870 C 0.38462 0.66481 0.8094 0.0
C871 C 0.39571 0.6455 0.7117 0.0
N872 N 0.33149 0.61189 0.81555 0.0
N873 N 0.42761 0.71285 0.69853 0.0
H874 H 0.40583 0.59876 0.65903 0.0
H875 H 0.43793 0.64246 0.65298 0.0
H876 H 0.43757 0.74237 0.70877 0.0
H877 H 0.42991 0.70758 0.66154 0.0
H878 H 0.32866 0.61546 0.85262 0.0
H879 H 0.30666 0.59546 0.80055 0.0
H880 H 0.38041 0.64385 0.88216 0.0
H881 H 0.40957 0.68908 0.87437 0.0
C882 C 0.85859 0.40526 0.22723 0.0
C883 C 0.87525 0.36896 0.24948 0.0
C884 C 0.83025 0.38345 0.31966 0.0
C885 C 0.80457 0.40954 0.2909 0.0
N886 N 0.79929 0.45125 0.21752 0.0
N887 N 0.87951 0.32636 0.32099 0.0
C888 C 0.82041 0.42286 0.24501 0.0
C889 C 0.86195 0.35915 0.29716 0.0
N890 N 0.88017 0.42402 0.19064 0.0
N891 N 0.82475 0.38289 0.36862 0.0
H892 H 0.89531 0.30245 0.30338 0.0
H893 H 0.87592 0.32093 0.35756 0.0
H894 H 0.80411 0.40311 0.38597 0.0
H895 H 0.84377 0.36678 0.39263 0.0
H896 H 0.87242 0.45304 0.17638 0.0
H897 H 0.90845 0.41261 0.17765 0.0
H898 H 0.80873 0.46017 0.18313 0.0
H899 H 0.77102 0.4647 0.2267 0.0
C900 C 0.11038 0.83536 0.81367 0.0
C901 C 0.09255 0.8057 0.7814 0.0
C902 C 0.09991 0.85721 0.71575 0.0
C903 C 0.12756 0.88089 0.74472 0.0
N904 N 0.13176 0.90643 0.82712 0.0
N905 N 0.06779 0.79011 0.7007 0.0
C906 C 0.12554 0.8741 0.79568 0.0
C907 C 0.08579 0.81736 0.73231 0.0
N908 N 0.1112 0.8273 0.86217 0.0
N909 N 0.08381 0.87466 0.6749 0.0
H910 H 0.05989 0.75958 0.70941 0.0
H911 H 0.06343 0.79675 0.66432 0.0
H912 H 0.09039 0.9053 0.6648 0.0
H913 H 0.06004 0.86106 0.65472 0.0
H914 H 0.13084 0.84263 0.88626 0.0
H915 H 0.09252 0.80465 0.87841 0.0
H916 H 0.13055 0.90375 0.86449 0.0
H917 H 0.12956 0.93754 0.81686 0.0
C918 C 0.63098 0.13229 0.30085 0.0
C919 C 0.61862 0.12513 0.25183 0.0
C920 C 0.67611 0.07491 0.2434 0.0
C921 C 0.68968 0.08475 0.29102 0.0
N922 N 0.66645 0.1038 0.37048 0.0
N923 N 0.61653 0.07284 0.18937 0.0
C924 C 0.66268 0.10737 0.32147 0.0
C925 C 0.63716 0.09117 0.22686 0.0
N926 N 0.61365 0.16316 0.32822 0.0
N927 N 0.70012 0.05119 0.21342 0.0
H928 H 0.58698 0.08244 0.17827 0.0
H929 H 0.62659 0.04542 0.1729 0.0
H930 H 0.72959 0.04015 0.22223 0.0
H931 H 0.69173 0.04457 0.17799 0.0
H932 H 0.62572 0.17208 0.36159 0.0
H933 H 0.59018 0.18296 0.31675 0.0
H934 H 0.6449 0.11628 0.39466 0.0
H935 H 0.688 0.08374 0.38659 0.0
C936 C 0.41531 0.81991 0.26741 0.0
C937 C 0.40614 0.80876 0.21872 0.0
C938 C 0.35808 0.86771 0.21281 0.0
C939 C 0.36592 0.87832 0.26187 0.0
N940 N 0.41697 0.87634 0.32578 0.0
N941 N 0.38475 0.83396 0.1407 0.0
C942 C 0.39928 0.85816 0.28623 0.0
C943 C 0.38279 0.83679 0.18991 0.0
N944 N 0.43789 0.79392 0.29642 0.0
N945 N 0.32642 0.8866 0.18823 0.0
H946 H 0.40451 0.81296 0.12322 0.0
H947 H 0.37119 0.85542 0.11731 0.0
H948 H 0.30217 0.90213 0.2055 0.0
H949 H 0.32154 0.88336 0.15145 0.0
H950 H 0.4439 0.80033 0.33256 0.0
H951 H 0.44797 0.76444 0.28614 0.0
H952 H 0.444 0.86511 0.34208 0.0
H953 H 0.40712 0.90501 0.33937 0.0
C954 C 0.66204 0.38447 0.6988 0.0
C955 C 0.69205 0.40427 0.72846 0.0
C956 C 0.64504 0.39244 0.79736 0.0
C957 C 0.62275 0.36197 0.77043 0.0
N958 N 0.61272 0.32813 0.69299 0.0
N959 N 0.71132 0.42703 0.80897 0.0
C960 C 0.6319 0.35796 0.72027 0.0
C961 C 0.68334 0.4086 0.77866 0.0
N962 N 0.66216 0.39145 0.65012 0.0
N963 N 0.62858 0.40814 0.83895 0.0
H964 H 0.73987 0.43889 0.79776 0.0
H965 H 0.70711 0.42807 0.84623 0.0
H966 H 0.59942 0.3993 0.852 0.0
H967 H 0.64189 0.4331 0.85749 0.0
H968 H 0.6387 0.38103 0.62709 0.0
H969 H 0.6828 0.41229 0.63378 0.0
H970 H 0.61676 0.32539 0.65592 0.0
H971 H 0.59749 0.30254 0.70801 0.0
C972 C 0.1343 0.63011 0.21126 0.0
C973 C 0.13179 0.62164 0.26187 0.0
C974 C 0.08605 0.68278 0.27106 0.0
C975 C 0.0902 0.69171 0.22097 0.0
N976 N 0.09999 0.66163 0.14227 0.0
N977 N 0.08571 0.62733 0.33049 0.0
C978 C 0.10821 0.66112 0.19069 0.0
C979 C 0.10173 0.64412 0.28923 0.0
N980 N 0.16233 0.60979 0.18256 0.0
N981 N 0.06807 0.7108 0.30168 0.0
H982 H 0.09382 0.59769 0.34274 0.0
H983 H 0.06097 0.6408 0.34926 0.0
H984 H 0.05685 0.73972 0.29079 0.0
H985 H 0.06657 0.7061 0.33882 0.0
H986 H 0.1645 0.61471 0.14555 0.0
H987 H 0.18793 0.59352 0.19593 0.0
H988 H 0.10866 0.63774 0.11886 0.0
H989 H 0.07974 0.68327 0.12669 0.0
C990 C 0.8689 0.13501 0.72015 0.0
C991 C 0.87733 0.13197 0.77064 0.0
C992 C 0.8163 0.0859 0.77902 0.0
C993 C 0.80806 0.08963 0.72867 0.0
N994 N 0.83881 0.10068 0.65045 0.0
N995 N 0.87059 0.0866 0.83982 0.0
C996 C 0.83861 0.1085 0.69895 0.0
C997 C 0.85456 0.102 0.79786 0.0
N998 N 0.88872 0.16399 0.69223 0.0
N999 N 0.78792 0.068 0.80929 0.0
H1000 H 0.89983 0.09519 0.85287 0.0
H1001 H 0.85691 0.06199 0.85866 0.0
H1002 H 0.75944 0.05612 0.79787 0.0
H1003 H 0.79179 0.06733 0.8466 0.0
H1004 H 0.88448 0.16628 0.65514 0.0
H1005 H 0.90419 0.18975 0.7065 0.0
H1006 H 0.8627 0.1102 0.62748 0.0
H1007 H 0.81789 0.07999 0.63435 0.0
C1008 C 0.49872 0.26869 0.04503 0.0
C1009 C 0.50287 0.22529 0.0538 0.0
C1010 C 0.50106 0.21129 0.96694 0.0
C1011 C 0.50166 0.25477 0.95823 0.0
N1012 N 0.4843 0.32332 0.98637 0.0
N1013 N 0.49142 0.15558 0.02551 0.0
C1014 C 0.49439 0.28294 0.9966 0.0
C1015 C 0.49817 0.19665 0.01531 0.0
N1016 N 0.50209 0.29628 0.08234 0.0
N1017 N 0.50554 0.18433 0.9292 0.0
H1018 H 0.48825 0.14505 0.06101 0.0
H1019 H 0.48516 0.13314 0.99934 0.0
H1020 H 0.50582 0.19458 0.89341 0.0
H1021 H 0.51033 0.15241 0.93339 0.0
H1022 H 0.50455 0.3284 0.07753 0.0
H1023 H 0.5042 0.28676 0.11825 0.0
H1024 H 0.47571 0.34498 0.01254 0.0
H1025 H 0.481 0.33382 0.95089 0.0
C1026 C 0.27993 0.5001 0.46274 0.0
C1027 C 0.23654 0.50287 0.45391 0.0
C1028 C 0.22206 0.4962 0.54021 0.0
C1029 C 0.26541 0.49838 0.5493 0.0
N1030 N 0.33463 0.48469 0.52087 0.0
N1031 N 0.16719 0.48663 0.48069 0.0
C1032 C 0.29405 0.49397 0.51086 0.0
C1033 C 0.20783 0.4949 0.49162 0.0
N1034 N 0.3074 0.50573 0.42568 0.0
N1035 N 0.19476 0.49795 0.57793 0.0
H1036 H 0.15678 0.48496 0.44503 0.0
H1037 H 0.14507 0.4779 0.50629 0.0
H1038 H 0.20485 0.49722 0.61376 0.0
H1039 H 0.16269 0.50156 0.57371 0.0
H1040 H 0.33943 0.50899 0.43064 0.0
H1041 H 0.29763 0.50874 0.3899 0.0
H1042 H 0.35682 0.47836 0.49443 0.0
H1043 H 0.34482 0.47987 0.55625 0.0
C1044 C 0.99699 0.22416 0.04694 0.0
C1045 C 0.99393 0.26753 0.0558 0.0
C1046 C 0.99792 0.28203 0.96931 0.0
C1047 C 0.99623 0.23863 0.96034 0.0
N1048 N 0.01182 0.1696 0.9885 0.0
N1049 N 0.00895 0.33695 0.02843 0.0
C1050 C 0.0021 0.21007 0.99866 0.0
C1051 C 0.00059 0.29627 0.0178 0.0
N1052 N 0.99248 0.19664 0.08418 0.0
N1053 N 0.99454 0.30936 0.93174 0.0
H1054 H 0.01144 0.34733 0.06404 0.0
H1055 H 0.01685 0.3591 1.00249 0.0
H1056 H 0.9942 0.29937 0.89588 0.0
H1057 H 0.99058 0.34136 0.93624 0.0
H1058 H 0.9894 0.16458 0.07931 0.0
H1059 H 0.99017 0.20641 0.12002 0.0
H1060 H 0.01925 0.14764 0.01483 0.0
H1061 H 0.01592 0.15932 0.95305 0.0
C1062 C 0.28823 0.00176 0.49151 0.0
C1063 C 0.25994 0.99448 0.45326 0.0
C1064 C 0.20178 0.00308 0.50946 0.0
C1065 C 0.22997 0.99805 0.54827 0.0
N1066 N 0.30041 0.99697 0.57782 0.0
N1067 N 0.18945 0.99295 0.42376 0.0
C1068 C 0.27346 -0.00022 0.53982 0.0
C1069 C 0.21647 0.99753 0.46144 0.0
N1070 N 0.329 0.01013 0.48136 0.0
N1071 N 0.16116 0.01261 0.51895 0.0
H1072 H 0.19971 0.99064 0.3881 0.0
H1073 H 0.15733 0.98995 0.42804 0.0
H1074 H 0.15061 0.01734 0.55419 0.0
H1075 H 0.13932 0.01935 0.49226 0.0
H1076 H 0.35079 0.01853 0.50748 0.0
H1077 H 0.33985 0.01224 0.4459 0.0
H1078 H 0.33245 0.99291 0.57382 0.0
H1079 H 0.29009 0.99715 0.61356 0.0
C1080 C 0.49805 0.79423 0.99086 0.0
C1081 C 0.49177 0.76558 0.95275 0.0
C1082 C 0.50135 0.70791 0.0094 0.0
C1083 C 0.49525 0.73617 0.04793 0.0
N1084 N 0.49218 0.80672 0.07699 0.0
N1085 N 0.49202 0.6949 0.92374 0.0
C1086 C 0.49596 0.77966 0.03923 0.0
C1087 C 0.4958 0.72222 0.96125 0.0
N1088 N 0.50565 0.83513 0.98049 0.0
N1089 N 0.51183 0.66757 0.01925 0.0
H1090 H 0.48962 0.7049 0.88799 0.0
H1091 H 0.48973 0.66273 0.92826 0.0
H1092 H 0.51644 0.65721 0.05459 0.0
H1093 H 0.51941 0.64582 0.99276 0.0
H1094 H 0.51328 0.85724 0.00655 0.0
H1095 H 0.50792 0.84579 0.94496 0.0
H1096 H 0.48741 0.83864 0.0727 0.0
H1097 H 0.49229 0.79659 0.11282 0.0
C1098 C 0.71311 0.49651 0.54498 0.0
C1099 C 0.75671 0.49467 0.55268 0.0
C1100 C 0.76921 0.49752 0.46568 0.0
C1101 C 0.72564 0.49473 0.4579 0.0
N1102 N 0.65677 0.50832 0.48778 0.0
N1103 N 0.82516 0.51048 0.52298 0.0
C1104 C 0.69773 0.50011 0.49696 0.0
C1105 C 0.78442 0.50125 0.5137 0.0
N1106 N 0.68665 0.49257 0.58329 0.0
N1107 N 0.79591 0.49408 0.4275 0.0
H1108 H 0.83626 0.51372 0.55822 0.0
H1109 H 0.84659 0.51847 0.49629 0.0
H1110 H 0.78542 0.4929 0.39187 0.0
H1111 H 0.82805 0.49076 0.4313 0.0
H1112 H 0.65456 0.4887 0.57975 0.0
H1113 H 0.69744 0.49175 0.61884 0.0
H1114 H 0.63507 0.51529 0.51453 0.0
H1115 H 0.64563 0.51173 0.45257 0.0
C1116 C 0.99825 0.71786 0.03658 0.0
C1117 C 0.0011 0.76112 0.04601 0.0
C1118 C -0.00012 0.77642 0.95966 0.0
C1119 C 0.00212 0.73311 0.95028 0.0
N1120 N 0.98631 0.66363 0.97683 0.0
N1121 N 0.98679 0.83074 0.01895 0.0
C1122 C 0.99516 0.70411 0.98793 0.0
C1123 C 0.99551 0.79017 0.00815 0.0
N1124 N 0.00092 0.69019 0.07388 0.0
N1125 N 0.00447 0.80415 0.92264 0.0
H1126 H 0.98325 0.84077 0.05457 0.0
H1127 H 0.97965 0.85314 0.993 0.0
H1128 H 0.00617 0.79458 0.88668 0.0
H1129 H 0.00814 0.83612 0.92776 0.0
H1130 H 0.00404 0.65812 0.06914 0.0
H1131 H 0.00139 0.69994 0.10983 0.0
H1132 H 0.97829 0.64128 1.00249 0.0
H1133 H 0.98353 0.65362 0.94111 0.0
C1134 C 0.78532 0.99632 0.54334 0.0
C1135 C 0.74197 0.99828 0.5527 0.0
C1136 C 0.72695 0.99381 0.46635 0.0
C1137 C 0.77021 0.99684 0.45682 0.0
N1138 N 0.83996 0.98386 0.48413 0.0
N1139 N 0.67268 0.98185 0.52608 0.0
C1140 C 0.79926 0.99199 0.49482 0.0
C1141 C 0.71314 0.99088 0.51502 0.0
N1142 N 0.81286 0.00084 0.5805 0.0
N1143 N 0.69923 0.99636 0.42908 0.0
H1144 H 0.66252 0.9794 0.56178 0.0
H1145 H 0.65051 0.97338 0.50045 0.0
H1146 H 0.70888 0.99688 0.39309 0.0
H1147 H 0.66717 -0.00051 0.43389 0.0
H1148 H 0.84484 0.00464 0.57563 0.0
H1149 H 0.80309 0.00215 0.61642 0.0
H1150 H 0.86251 0.9774 0.51011 0.0
H1151 H 0.84999 0.98 0.44854 0.0
loop_
_geom_bond_atom_site_label_1
_geom_bond_atom_site_label_2
_geom_bond_distance
_geom_bond_site_symmetry_2
_ccdc_geom_bond_type
Mn0 O5 2.095 . S
Mn0 O15 2.162 . S
Mn0 O16 2.297 . S
Mn0 O24 2.385 . S
Mn0 O25 2.209 . S
Mn0 O26 2.094 . S
Mn1 O6 2.121 . S
Mn1 N8 2.257 . S
Mn1 N17 2.282 . S
Mn1 O25 2.215 . S
Mn1 O27 2.117 . S
C2 O24 1.234 . S
C2 O25 1.283 . S
C3 O15 1.281 . S
C3 O16 1.236 . S
C4 O26 1.240 . S
C4 O27 1.264 . S
O5 Mn0 2.095 . S
O5 C14 1.250 . S
O6 Mn1 2.121 . S
O6 C14 1.258 . S
C7 N8 1.326 . S
C7 C11 1.460 . S
C7 H13 0.929 . S
N8 Mn1 2.257 . S
N8 C7 1.326 . S
N8 C12 1.362 . S
C9 C10 1.258 . S
C9 C12 1.431 . S
C9 C29 1.449 . S
C10 C9 1.258 . S
C10 C11 1.477 . S
C10 H30 0.931 . S
C11 C7 1.460 . S
C11 C10 1.477 . S
C11 H31 0.930 . S
C12 N8 1.362 . S
C12 C9 1.431 . S
C12 C22 1.476 . S
H13 C7 0.929 . S
C14 O5 1.250 . S
C14 O6 1.258 . S
O15 Mn0 2.162 . S
O15 C3 1.281 . S
O16 Mn0 2.297 . S
O16 C3 1.236 . S
N17 Mn1 2.282 . S
N17 C18 1.328 . S
N17 C22 1.318 . S
C18 N17 1.328 . S
C18 C19 1.457 . S
C18 H23 0.929 . S
C19 C18 1.457 . S
C19 C20 1.291 . S
C19 H32 0.931 . S
C20 C19 1.291 . S
C20 C21 1.373 . S
C20 H33 0.929 . S
C21 C20 1.373 . S
C21 C22 1.396 . S
C21 C28 1.403 . S
C22 C12 1.476 . S
C22 N17 1.318 . S
C22 C21 1.396 . S
H23 C18 0.929 . S
O24 Mn0 2.385 . S
O24 C2 1.234 . S
O25 Mn0 2.209 . S
O25 Mn1 2.215 . S
O25 C2 1.283 . S
O26 Mn0 2.094 . S
O26 C4 1.240 . S
O27 Mn1 2.117 . S
O27 C4 1.264 . S
C28 C21 1.403 . S
C28 C29 1.399 . S
C28 H34 0.929 . S
C29 C9 1.449 . S
C29 C28 1.399 . S
C29 H35 0.930 . S
H30 C10 0.931 . S
H31 C11 0.930 . S
H32 C19 0.931 . S
H33 C20 0.929 . S
H34 C28 0.929 . S
H35 C29 0.930 . S
Mn36 O41 2.095 . S
Mn36 O51 2.162 . S
Mn36 O52 2.297 . S
Mn36 O60 2.385 . S
Mn36 O61 2.209 . S
Mn36 O62 2.094 . S
Mn37 O42 2.121 . S
Mn37 N44 2.257 . S
Mn37 N53 2.282 . S
Mn37 O61 2.215 . S
Mn37 O63 2.117 . S
C38 O60 1.234 . S
C38 O61 1.283 . S
C39 O51 1.281 . S
C39 O52 1.236 . S
C40 O62 1.240 . S
C40 O63 1.264 . S
O41 Mn36 2.095 . S
O41 C50 1.250 . S
O42 Mn37 2.121 . S
O42 C50 1.258 . S
C43 N44 1.326 . S
C43 C47 1.460 . S
C43 H49 0.929 . S
N44 Mn37 2.257 . S
N44 C43 1.326 . S
N44 C48 1.362 . S
C45 C46 1.258 . S
C45 C48 1.431 . S
C45 C65 1.449 . S
C46 C45 1.258 . S
C46 C47 1.477 . S
C46 H66 0.931 . S
C47 C43 1.460 . S
C47 C46 1.477 . S
C47 H67 0.930 . S
C48 N44 1.362 . S
C48 C45 1.431 . S
C48 C58 1.476 . S
H49 C43 0.929 . S
C50 O41 1.250 . S
C50 O42 1.258 . S
O51 Mn36 2.162 . S
O51 C39 1.281 . S
O52 Mn36 2.297 . S
O52 C39 1.236 . S
N53 Mn37 2.282 . S
N53 C54 1.328 . S
N53 C58 1.318 . S
C54 N53 1.328 . S
C54 C55 1.457 . S
C54 H59 0.929 . S
C55 C54 1.457 . S
C55 C56 1.291 . S
C55 H68 0.931 . S
C56 C55 1.291 . S
C56 C57 1.373 . S
C56 H69 0.929 . S
C57 C56 1.373 . S
C57 C58 1.396 . S
C57 C64 1.403 . S
C58 C48 1.476 . S
C58 N53 1.318 . S
C58 C57 1.396 . S
H59 C54 0.929 . S
O60 Mn36 2.385 . S
O60 C38 1.234 . S
O61 Mn36 2.209 . S
O61 Mn37 2.215 . S
O61 C38 1.283 . S
O62 Mn36 2.094 . S
O62 C40 1.240 . S
O63 Mn37 2.117 . S
O63 C40 1.264 . S
C64 C57 1.403 . S
C64 C65 1.399 . S
C64 H70 0.929 . S
C65 C45 1.449 . S
C65 C64 1.399 . S
C65 H71 0.930 . S
H66 C46 0.931 . S
H67 C47 0.930 . S
H68 C55 0.931 . S
H69 C56 0.929 . S
H70 C64 0.929 . S
H71 C65 0.930 . S
Mn72 O77 2.096 . S
Mn72 O87 2.162 1_655 S
Mn72 O88 2.297 1_655 S
Mn72 O96 2.385 . S
Mn72 O97 2.209 . S
Mn72 O98 2.094 . S
Mn73 O78 2.121 . S
Mn73 N80 2.257 . S
Mn73 N89 2.282 . S
Mn73 O97 2.215 . S
Mn73 O99 2.117 . S
C74 O96 1.234 . S
C74 O97 1.283 . S
C75 O87 1.281 . S
C75 O88 1.236 . S
C76 O98 1.240 . S
C76 O99 1.264 . S
O77 Mn72 2.096 . S
O77 C86 1.252 . S
O78 Mn73 2.121 . S
O78 C86 1.258 . S
C79 N80 1.326 . S
C79 C83 1.460 . S
C79 H85 0.929 . S
N80 Mn73 2.257 . S
N80 C79 1.326 . S
N80 C84 1.362 . S
C81 C82 1.258 . S
C81 C84 1.431 . S
C81 C101 1.449 . S
C82 C81 1.258 . S
C82 C83 1.477 . S
C82 H102 0.931 . S
C83 C79 1.460 . S
C83 C82 1.477 . S
C83 H103 0.930 . S
C84 N80 1.362 . S
C84 C81 1.431 . S
C84 C94 1.476 . S
H85 C79 0.929 . S
C86 O77 1.252 . S
C86 O78 1.258 . S
O87 Mn72 2.162 1_455 S
O87 C75 1.281 . S
O88 Mn72 2.297 1_455 S
O88 C75 1.236 . S
N89 Mn73 2.282 . S
N89 C90 1.328 . S
N89 C94 1.318 . S
C90 N89 1.328 . S
C90 C91 1.457 . S
C90 H95 0.929 . S
C91 C90 1.457 . S
C91 C92 1.291 . S
C91 H104 0.931 . S
C92 C91 1.291 . S
C92 C93 1.373 . S
C92 H105 0.929 . S
C93 C92 1.373 . S
C93 C94 1.396 . S
C93 C100 1.403 . S
C94 C84 1.476 . S
C94 N89 1.318 . S
C94 C93 1.396 . S
H95 C90 0.929 . S
O96 Mn72 2.385 . S
O96 C74 1.234 . S
O97 Mn72 2.209 . S
O97 Mn73 2.215 . S
O97 C74 1.283 . S
O98 Mn72 2.094 . S
O98 C76 1.240 . S
O99 Mn73 2.117 . S
O99 C76 1.264 . S
C100 C93 1.403 . S
C100 C101 1.399 . S
C100 H106 0.929 . S
C101 C81 1.449 . S
C101 C100 1.399 . S
C101 H107 0.930 . S
H102 C82 0.931 . S
H103 C83 0.930 . S
H104 C91 0.931 . S
H105 C92 0.929 . S
H106 C100 0.929 . S
H107 C101 0.930 . S
Mn108 O113 2.096 . S
Mn108 O123 2.162 1_565 S
Mn108 O124 2.297 1_565 S
Mn108 O132 2.385 . S
Mn108 O133 2.209 . S
Mn108 O134 2.094 . S
Mn109 O114 2.121 . S
Mn109 N116 2.257 . S
Mn109 N125 2.282 . S
Mn109 O133 2.215 . S
Mn109 O135 2.117 . S
C110 O132 1.234 . S
C110 O133 1.283 . S
C111 O123 1.281 . S
C111 O124 1.236 . S
C112 O134 1.240 . S
C112 O135 1.264 . S
O113 Mn108 2.096 . S
O113 C122 1.252 . S
O114 Mn109 2.121 . S
O114 C122 1.258 . S
C115 N116 1.326 . S
C115 C119 1.460 . S
C115 H121 0.929 . S
N116 Mn109 2.257 . S
N116 C115 1.326 . S
N116 C120 1.362 . S
C117 C118 1.258 . S
C117 C120 1.431 . S
C117 C137 1.449 . S
C118 C117 1.258 . S
C118 C119 1.477 . S
C118 H138 0.931 . S
C119 C115 1.460 . S
C119 C118 1.477 . S
C119 H139 0.930 . S
C120 N116 1.362 . S
C120 C117 1.431 . S
C120 C130 1.476 . S
H121 C115 0.929 . S
C122 O113 1.252 . S
C122 O114 1.258 . S
O123 Mn108 2.162 1_545 S
O123 C111 1.281 . S
O124 Mn108 2.297 1_545 S
O124 C111 1.236 . S
N125 Mn109 2.282 . S
N125 C126 1.328 . S
N125 C130 1.318 . S
C126 N125 1.328 . S
C126 C127 1.457 . S
C126 H131 0.929 . S
C127 C126 1.457 . S
C127 C128 1.291 . S
C127 H140 0.931 . S
C128 C127 1.291 . S
C128 C129 1.373 . S
C128 H141 0.929 . S
C129 C128 1.373 . S
C129 C130 1.396 . S
C129 C136 1.403 . S
C130 C120 1.476 . S
C130 N125 1.318 . S
C130 C129 1.396 . S
H131 C126 0.929 . S
O132 Mn108 2.385 . S
O132 C110 1.234 . S
O133 Mn108 2.209 . S
O133 Mn109 2.215 . S
O133 C110 1.283 . S
O134 Mn108 2.094 . S
O134 C112 1.240 . S
O135 Mn109 2.117 . S
O135 C112 1.264 . S
C136 C129 1.403 . S
C136 C137 1.399 . S
C136 H142 0.929 . S
C137 C117 1.449 . S
C137 C136 1.399 . S
C137 H143 0.930 . S
H138 C118 0.931 . S
H139 C119 0.930 . S
H140 C127 0.931 . S
H141 C128 0.929 . S
H142 C136 0.929 . S
H143 C137 0.930 . S
Mn144 O149 2.095 . S
Mn144 O159 2.162 . S
Mn144 O160 2.297 . S
Mn144 O168 2.385 . S
Mn144 O169 2.209 . S
Mn144 O170 2.094 . S
Mn145 O150 2.121 . S
Mn145 N152 2.257 . S
Mn145 N161 2.282 . S
Mn145 O169 2.215 . S
Mn145 O171 2.117 . S
C146 O168 1.234 . S
C146 O169 1.283 . S
C147 O159 1.281 . S
C147 O160 1.236 . S
C148 O170 1.240 . S
C148 O171 1.264 . S
O149 Mn144 2.095 . S
O149 C158 1.250 . S
O150 Mn145 2.121 . S
O150 C158 1.258 . S
C151 N152 1.326 . S
C151 C155 1.460 . S
C151 H157 0.929 . S
N152 Mn145 2.257 . S
N152 C151 1.326 . S
N152 C156 1.362 . S
C153 C154 1.258 . S
C153 C156 1.431 . S
C153 C173 1.449 . S
C154 C153 1.258 . S
C154 C155 1.477 . S
C154 H174 0.931 . S
C155 C151 1.460 . S
C155 C154 1.477 . S
C155 H175 0.930 . S
C156 N152 1.362 . S
C156 C153 1.431 . S
C156 C166 1.476 . S
H157 C151 0.929 . S
C158 O149 1.250 . S
C158 O150 1.258 . S
O159 Mn144 2.162 . S
O159 C147 1.281 . S
O160 Mn144 2.297 . S
O160 C147 1.236 . S
N161 Mn145 2.282 . S
N161 C162 1.328 . S
N161 C166 1.318 . S
C162 N161 1.328 . S
C162 C163 1.457 . S
C162 H167 0.929 . S
C163 C162 1.457 . S
C163 C164 1.291 . S
C163 H176 0.931 . S
C164 C163 1.291 . S
C164 C165 1.373 . S
C164 H177 0.929 . S
C165 C164 1.373 . S
C165 C166 1.396 . S
C165 C172 1.403 . S
C166 C156 1.476 . S
C166 N161 1.318 . S
C166 C165 1.396 . S
H167 C162 0.929 . S
O168 Mn144 2.385 . S
O168 C146 1.234 . S
O169 Mn144 2.209 . S
O169 Mn145 2.215 . S
O169 C146 1.283 . S
O170 Mn144 2.094 . S
O170 C148 1.240 . S
O171 Mn145 2.117 . S
O171 C148 1.264 . S
C172 C165 1.403 . S
C172 C173 1.399 . S
C172 H178 0.929 . S
C173 C153 1.449 . S
C173 C172 1.399 . S
C173 H179 0.930 . S
H174 C154 0.931 . S
H175 C155 0.930 . S
H176 C163 0.931 . S
H177 C164 0.929 . S
H178 C172 0.929 . S
H179 C173 0.930 . S
Mn180 O185 2.095 . S
Mn180 O195 2.162 . S
Mn180 O196 2.297 . S
Mn180 O204 2.385 . S
Mn180 O205 2.209 . S
Mn180 O206 2.094 . S
Mn181 O186 2.121 . S
Mn181 N188 2.257 . S
Mn181 N197 2.282 . S
Mn181 O205 2.215 . S
Mn181 O207 2.117 . S
C182 O204 1.234 . S
C182 O205 1.283 . S
C183 O195 1.281 . S
C183 O196 1.236 . S
C184 O206 1.240 . S
C184 O207 1.264 . S
O185 Mn180 2.095 . S
O185 C194 1.250 . S
O186 Mn181 2.121 . S
O186 C194 1.258 . S
C187 N188 1.326 . S
C187 C191 1.460 . S
C187 H193 0.929 . S
N188 Mn181 2.257 . S
N188 C187 1.326 . S
N188 C192 1.362 . S
C189 C190 1.258 . S
C189 C192 1.431 . S
C189 C209 1.449 . S
C190 C189 1.258 . S
C190 C191 1.477 . S
C190 H210 0.931 . S
C191 C187 1.460 . S
C191 C190 1.477 . S
C191 H211 0.930 . S
C192 N188 1.362 . S
C192 C189 1.431 . S
C192 C202 1.476 . S
H193 C187 0.929 . S
C194 O185 1.250 . S
C194 O186 1.258 . S
O195 Mn180 2.162 . S
O195 C183 1.281 . S
O196 Mn180 2.297 . S
O196 C183 1.236 . S
N197 Mn181 2.282 . S
N197 C198 1.328 . S
N197 C202 1.318 . S
C198 N197 1.328 . S
C198 C199 1.457 . S
C198 H203 0.929 . S
C199 C198 1.457 . S
C199 C200 1.291 . S
C199 H212 0.931 . S
C200 C199 1.291 . S
C200 C201 1.373 . S
C200 H213 0.929 . S
C201 C200 1.373 . S
C201 C202 1.396 . S
C201 C208 1.403 . S
C202 C192 1.476 . S
C202 N197 1.318 . S
C202 C201 1.396 . S
H203 C198 0.929 . S
O204 Mn180 2.385 . S
O204 C182 1.234 . S
O205 Mn180 2.209 . S
O205 Mn181 2.215 . S
O205 C182 1.283 . S
O206 Mn180 2.094 . S
O206 C184 1.240 . S
O207 Mn181 2.117 . S
O207 C184 1.264 . S
C208 C201 1.403 . S
C208 C209 1.399 . S
C208 H214 0.929 . S
C209 C189 1.449 . S
C209 C208 1.399 . S
C209 H215 0.930 . S
H210 C190 0.931 . S
H211 C191 0.930 . S
H212 C199 0.931 . S
H213 C200 0.929 . S
H214 C208 0.929 . S
H215 C209 0.930 . S
Mn216 O221 2.096 . S
Mn216 O231 2.162 1_655 S
Mn216 O232 2.297 1_655 S
Mn216 O240 2.385 . S
Mn216 O241 2.209 . S
Mn216 O242 2.094 . S
Mn217 O222 2.121 . S
Mn217 N224 2.257 . S
Mn217 N233 2.282 . S
Mn217 O241 2.215 . S
Mn217 O243 2.117 . S
C218 O240 1.234 . S
C218 O241 1.283 . S
C219 O231 1.281 . S
C219 O232 1.236 . S
C220 O242 1.240 . S
C220 O243 1.264 . S
O221 Mn216 2.096 . S
O221 C230 1.252 . S
O222 Mn217 2.121 . S
O222 C230 1.258 . S
C223 N224 1.326 . S
C223 C227 1.460 . S
C223 H229 0.929 . S
N224 Mn217 2.257 . S
N224 C223 1.326 . S
N224 C228 1.362 . S
C225 C226 1.258 . S
C225 C228 1.431 . S
C225 C245 1.449 . S
C226 C225 1.258 . S
C226 C227 1.477 . S
C226 H246 0.931 . S
C227 C223 1.460 . S
C227 C226 1.477 . S
C227 H247 0.930 . S
C228 N224 1.362 . S
C228 C225 1.431 . S
C228 C238 1.476 . S
H229 C223 0.929 . S
C230 O221 1.252 . S
C230 O222 1.258 . S
O231 Mn216 2.162 1_455 S
O231 C219 1.281 . S
O232 Mn216 2.297 1_455 S
O232 C219 1.236 . S
N233 Mn217 2.282 . S
N233 C234 1.328 . S
N233 C238 1.318 . S
C234 N233 1.328 . S
C234 C235 1.457 . S
C234 H239 0.929 . S
C235 C234 1.457 . S
C235 C236 1.291 . S
C235 H248 0.931 . S
C236 C235 1.291 . S
C236 C237 1.373 . S
C236 H249 0.929 . S
C237 C236 1.373 . S
C237 C238 1.396 . S
C237 C244 1.403 . S
C238 C228 1.476 . S
C238 N233 1.318 . S
C238 C237 1.396 . S
H239 C234 0.929 . S
O240 Mn216 2.385 . S
O240 C218 1.234 . S
O241 Mn216 2.209 . S
O241 Mn217 2.215 . S
O241 C218 1.283 . S
O242 Mn216 2.094 . S
O242 C220 1.240 . S
O243 Mn217 2.117 . S
O243 C220 1.264 . S
C244 C237 1.403 . S
C244 C245 1.399 . S
C244 H250 0.929 . S
C245 C225 1.449 . S
C245 C244 1.399 . S
C245 H251 0.930 . S
H246 C226 0.931 . S
H247 C227 0.930 . S
H248 C235 0.931 . S
H249 C236 0.929 . S
H250 C244 0.929 . S
H251 C245 0.930 . S
Mn252 O257 2.096 . S
Mn252 O267 2.162 1_565 S
Mn252 O268 2.297 1_565 S
Mn252 O276 2.385 . S
Mn252 O277 2.209 . S
Mn252 O278 2.094 . S
Mn253 O258 2.121 . S
Mn253 N260 2.257 . S
Mn253 N269 2.282 . S
Mn253 O277 2.215 . S
Mn253 O279 2.117 . S
C254 O276 1.234 . S
C254 O277 1.283 . S
C255 O267 1.281 . S
C255 O268 1.236 . S
C256 O278 1.240 . S
C256 O279 1.264 . S
O257 Mn252 2.096 . S
O257 C266 1.252 . S
O258 Mn253 2.121 . S
O258 C266 1.258 . S
C259 N260 1.326 . S
C259 C263 1.460 . S
C259 H265 0.929 . S
N260 Mn253 2.257 . S
N260 C259 1.326 . S
N260 C264 1.362 . S
C261 C262 1.258 . S
C261 C264 1.431 . S
C261 C281 1.449 . S
C262 C261 1.258 . S
C262 C263 1.477 . S
C262 H282 0.931 . S
C263 C259 1.460 . S
C263 C262 1.477 . S
C263 H283 0.930 . S
C264 N260 1.362 . S
C264 C261 1.431 . S
C264 C274 1.476 . S
H265 C259 0.929 . S
C266 O257 1.252 . S
C266 O258 1.258 . S
O267 Mn252 2.162 1_545 S
O267 C255 1.281 . S
O268 Mn252 2.297 1_545 S
O268 C255 1.236 . S
N269 Mn253 2.282 . S
N269 C270 1.328 . S
N269 C274 1.318 . S
C270 N269 1.328 . S
C270 C271 1.457 . S
C270 H275 0.929 . S
C271 C270 1.457 . S
C271 C272 1.291 . S
C271 H284 0.931 . S
C272 C271 1.291 . S
C272 C273 1.373 . S
C272 H285 0.929 . S
C273 C272 1.373 . S
C273 C274 1.396 . S
C273 C280 1.403 . S
C274 C264 1.476 . S
C274 N269 1.318 . S
C274 C273 1.396 . S
H275 C270 0.929 . S
O276 Mn252 2.385 . S
O276 C254 1.234 . S
O277 Mn252 2.209 . S
O277 Mn253 2.215 . S
O277 C254 1.283 . S
O278 Mn252 2.094 . S
O278 C256 1.240 . S
O279 Mn253 2.117 . S
O279 C256 1.264 . S
C280 C273 1.403 . S
C280 C281 1.399 . S
C280 H286 0.929 . S
C281 C261 1.449 . S
C281 C280 1.399 . S
C281 H287 0.930 . S
H282 C262 0.931 . S
H283 C263 0.930 . S
H284 C271 0.931 . S
H285 C272 0.929 . S
H286 C280 0.929 . S
H287 C281 0.930 . S
Mn288 O293 2.095 . S
Mn288 O303 2.162 . S
Mn288 O304 2.297 . S
Mn288 O312 2.385 . S
Mn288 O313 2.209 . S
Mn288 O314 2.094 . S
Mn289 O294 2.121 . S
Mn289 N296 2.257 . S
Mn289 N305 2.282 . S
Mn289 O313 2.215 . S
Mn289 O315 2.117 . S
C290 O312 1.234 . S
C290 O313 1.283 . S
C291 O303 1.281 . S
C291 O304 1.236 . S
C292 O314 1.240 . S
C292 O315 1.264 . S
O293 Mn288 2.095 . S
O293 C302 1.250 . S
O294 Mn289 2.121 . S
O294 C302 1.258 . S
C295 N296 1.326 . S
C295 C299 1.460 . S
C295 H301 0.929 . S
N296 Mn289 2.257 . S
N296 C295 1.326 . S
N296 C300 1.362 . S
C297 C298 1.258 . S
C297 C300 1.431 . S
C297 C317 1.449 . S
C298 C297 1.258 . S
C298 C299 1.477 . S
C298 H318 0.931 . S
C299 C295 1.460 . S
C299 C298 1.477 . S
C299 H319 0.930 . S
C300 N296 1.362 . S
C300 C297 1.431 . S
C300 C310 1.476 . S
H301 C295 0.929 . S
C302 O293 1.250 . S
C302 O294 1.258 . S
O303 Mn288 2.162 . S
O303 C291 1.281 . S
O304 Mn288 2.297 . S
O304 C291 1.236 . S
N305 Mn289 2.282 . S
N305 C306 1.328 . S
N305 C310 1.318 . S
C306 N305 1.328 . S
C306 C307 1.457 . S
C306 H311 0.929 . S
C307 C306 1.457 . S
C307 C308 1.291 . S
C307 H320 0.931 . S
C308 C307 1.291 . S
C308 C309 1.373 . S
C308 H321 0.929 . S
C309 C308 1.373 . S
C309 C310 1.396 . S
C309 C316 1.403 . S
C310 C300 1.476 . S
C310 N305 1.318 . S
C310 C309 1.396 . S
H311 C306 0.929 . S
O312 Mn288 2.385 . S
O312 C290 1.234 . S
O313 Mn288 2.209 . S
O313 Mn289 2.215 . S
O313 C290 1.283 . S
O314 Mn288 2.094 . S
O314 C292 1.240 . S
O315 Mn289 2.117 . S
O315 C292 1.264 . S
C316 C309 1.403 . S
C316 C317 1.399 . S
C316 H322 0.929 . S
C317 C297 1.449 . S
C317 C316 1.399 . S
C317 H323 0.930 . S
H318 C298 0.931 . S
H319 C299 0.930 . S
H320 C307 0.931 . S
H321 C308 0.929 . S
H322 C316 0.929 . S
H323 C317 0.930 . S
Mn324 O329 2.095 . S
Mn324 O339 2.162 . S
Mn324 O340 2.297 . S
Mn324 O348 2.385 . S
Mn324 O349 2.209 . S
Mn324 O350 2.094 . S
Mn325 O330 2.121 . S
Mn325 N332 2.257 . S
Mn325 N341 2.282 . S
Mn325 O349 2.215 . S
Mn325 O351 2.117 . S
C326 O348 1.234 . S
C326 O349 1.283 . S
C327 O339 1.281 . S
C327 O340 1.236 . S
C328 O350 1.240 . S
C328 O351 1.264 . S
O329 Mn324 2.095 . S
O329 C338 1.250 . S
O330 Mn325 2.121 . S
O330 C338 1.258 . S
C331 N332 1.326 . S
C331 C335 1.460 . S
C331 H337 0.929 . S
N332 Mn325 2.257 . S
N332 C331 1.326 . S
N332 C336 1.362 . S
C333 C334 1.258 . S
C333 C336 1.431 . S
C333 C353 1.449 . S
C334 C333 1.258 . S
C334 C335 1.477 . S
C334 H354 0.931 . S
C335 C331 1.460 . S
C335 C334 1.477 . S
C335 H355 0.930 . S
C336 N332 1.362 . S
C336 C333 1.431 . S
C336 C346 1.476 . S
H337 C331 0.929 . S
C338 O329 1.250 . S
C338 O330 1.258 . S
O339 Mn324 2.162 . S
O339 C327 1.281 . S
O340 Mn324 2.297 . S
O340 C327 1.236 . S
N341 Mn325 2.282 . S
N341 C342 1.328 . S
N341 C346 1.318 . S
C342 N341 1.328 . S
C342 C343 1.457 . S
C342 H347 0.929 . S
C343 C342 1.457 . S
C343 C344 1.291 . S
C343 H356 0.931 . S
C344 C343 1.291 . S
C344 C345 1.373 . S
C344 H357 0.929 . S
C345 C344 1.373 . S
C345 C346 1.396 . S
C345 C352 1.403 . S
C346 C336 1.476 . S
C346 N341 1.318 . S
C346 C345 1.396 . S
H347 C342 0.929 . S
O348 Mn324 2.385 . S
O348 C326 1.234 . S
O349 Mn324 2.209 . S
O349 Mn325 2.215 . S
O349 C326 1.283 . S
O350 Mn324 2.094 . S
O350 C328 1.240 . S
O351 Mn325 2.117 . S
O351 C328 1.264 . S
C352 C345 1.403 . S
C352 C353 1.399 . S
C352 H358 0.929 . S
C353 C333 1.449 . S
C353 C352 1.399 . S
C353 H359 0.930 . S
H354 C334 0.931 . S
H355 C335 0.930 . S
H356 C343 0.931 . S
H357 C344 0.929 . S
H358 C352 0.929 . S
H359 C353 0.930 . S
Mn360 O365 2.096 . S
Mn360 O375 2.162 1_455 S
Mn360 O376 2.297 1_455 S
Mn360 O384 2.385 . S
Mn360 O385 2.209 . S
Mn360 O386 2.094 . S
Mn361 O366 2.121 . S
Mn361 N368 2.257 . S
Mn361 N377 2.282 . S
Mn361 O385 2.215 . S
Mn361 O387 2.117 . S
C362 O384 1.234 . S
C362 O385 1.283 . S
C363 O375 1.281 . S
C363 O376 1.236 . S
C364 O386 1.240 . S
C364 O387 1.264 . S
O365 Mn360 2.096 . S
O365 C374 1.252 . S
O366 Mn361 2.121 . S
O366 C374 1.258 . S
C367 N368 1.326 . S
C367 C371 1.460 . S
C367 H373 0.929 . S
N368 Mn361 2.257 . S
N368 C367 1.326 . S
N368 C372 1.362 . S
C369 C370 1.258 . S
C369 C372 1.431 . S
C369 C389 1.449 . S
C370 C369 1.258 . S
C370 C371 1.477 . S
C370 H390 0.931 . S
C371 C367 1.460 . S
C371 C370 1.477 . S
C371 H391 0.930 . S
C372 N368 1.362 . S
C372 C369 1.431 . S
C372 C382 1.476 . S
H373 C367 0.929 . S
C374 O365 1.252 . S
C374 O366 1.258 . S
O375 Mn360 2.162 1_655 S
O375 C363 1.281 . S
O376 Mn360 2.297 1_655 S
O376 C363 1.236 . S
N377 Mn361 2.282 . S
N377 C378 1.328 . S
N377 C382 1.318 . S
C378 N377 1.328 . S
C378 C379 1.457 . S
C378 H383 0.929 . S
C379 C378 1.457 . S
C379 C380 1.291 . S
C379 H392 0.931 . S
C380 C379 1.291 . S
C380 C381 1.373 . S
C380 H393 0.929 . S
C381 C380 1.373 . S
C381 C382 1.396 . S
C381 C388 1.403 . S
C382 C372 1.476 . S
C382 N377 1.318 . S
C382 C381 1.396 . S
H383 C378 0.929 . S
O384 Mn360 2.385 . S
O384 C362 1.234 . S
O385 Mn360 2.209 . S
O385 Mn361 2.215 . S
O385 C362 1.283 . S
O386 Mn360 2.094 . S
O386 C364 1.240 . S
O387 Mn361 2.117 . S
O387 C364 1.264 . S
C388 C381 1.403 . S
C388 C389 1.399 . S
C388 H394 0.929 . S
C389 C369 1.449 . S
C389 C388 1.399 . S
C389 H395 0.930 . S
H390 C370 0.931 . S
H391 C371 0.930 . S
H392 C379 0.931 . S
H393 C380 0.929 . S
H394 C388 0.929 . S
H395 C389 0.930 . S
Mn396 O401 2.096 . S
Mn396 O411 2.162 1_545 S
Mn396 O412 2.297 1_545 S
Mn396 O420 2.385 . S
Mn396 O421 2.209 . S
Mn396 O422 2.094 . S
Mn397 O402 2.121 . S
Mn397 N404 2.257 . S
Mn397 N413 2.282 . S
Mn397 O421 2.215 . S
Mn397 O423 2.117 . S
C398 O420 1.234 . S
C398 O421 1.283 . S
C399 O411 1.281 . S
C399 O412 1.236 . S
C400 O422 1.240 . S
C400 O423 1.264 . S
O401 Mn396 2.096 . S
O401 C410 1.252 . S
O402 Mn397 2.121 . S
O402 C410 1.258 . S
C403 N404 1.326 . S
C403 C407 1.460 . S
C403 H409 0.929 . S
N404 Mn397 2.257 . S
N404 C403 1.326 . S
N404 C408 1.362 . S
C405 C406 1.258 . S
C405 C408 1.431 . S
C405 C425 1.449 . S
C406 C405 1.258 . S
C406 C407 1.477 . S
C406 H426 0.931 . S
C407 C403 1.460 . S
C407 C406 1.477 . S
C407 H427 0.930 . S
C408 N404 1.362 . S
C408 C405 1.431 . S
C408 C418 1.476 . S
H409 C403 0.929 . S
C410 O401 1.252 . S
C410 O402 1.258 . S
O411 Mn396 2.162 1_565 S
O411 C399 1.281 . S
O412 Mn396 2.297 1_565 S
O412 C399 1.236 . S
N413 Mn397 2.282 . S
N413 C414 1.328 . S
N413 C418 1.318 . S
C414 N413 1.328 . S
C414 C415 1.457 . S
C414 H419 0.929 . S
C415 C414 1.457 . S
C415 C416 1.291 . S
C415 H428 0.931 . S
C416 C415 1.291 . S
C416 C417 1.373 . S
C416 H429 0.929 . S
C417 C416 1.373 . S
C417 C418 1.396 . S
C417 C424 1.403 . S
C418 C408 1.476 . S
C418 N413 1.318 . S
C418 C417 1.396 . S
H419 C414 0.929 . S
O420 Mn396 2.385 . S
O420 C398 1.234 . S
O421 Mn396 2.209 . S
O421 Mn397 2.215 . S
O421 C398 1.283 . S
O422 Mn396 2.094 . S
O422 C400 1.240 . S
O423 Mn397 2.117 . S
O423 C400 1.264 . S
C424 C417 1.403 . S
C424 C425 1.399 . S
C424 H430 0.929 . S
C425 C405 1.449 . S
C425 C424 1.399 . S
C425 H431 0.930 . S
H426 C406 0.931 . S
H427 C407 0.930 . S
H428 C415 0.931 . S
H429 C416 0.929 . S
H430 C424 0.929 . S
H431 C425 0.930 . S
Mn432 O437 2.095 . S
Mn432 O447 2.162 . S
Mn432 O448 2.297 . S
Mn432 O456 2.385 . S
Mn432 O457 2.209 . S
Mn432 O458 2.094 . S
Mn433 O438 2.121 . S
Mn433 N440 2.257 . S
Mn433 N449 2.282 . S
Mn433 O457 2.215 . S
Mn433 O459 2.117 . S
C434 O456 1.234 . S
C434 O457 1.283 . S
C435 O447 1.281 . S
C435 O448 1.236 . S
C436 O458 1.240 . S
C436 O459 1.264 . S
O437 Mn432 2.095 . S
O437 C446 1.250 . S
O438 Mn433 2.121 . S
O438 C446 1.258 . S
C439 N440 1.326 . S
C439 C443 1.460 . S
C439 H445 0.929 . S
N440 Mn433 2.257 . S
N440 C439 1.326 . S
N440 C444 1.362 . S
C441 C442 1.258 . S
C441 C444 1.431 . S
C441 C461 1.449 . S
C442 C441 1.258 . S
C442 C443 1.477 . S
C442 H462 0.931 . S
C443 C439 1.460 . S
C443 C442 1.477 . S
C443 H463 0.930 . S
C444 N440 1.362 . S
C444 C441 1.431 . S
C444 C454 1.476 . S
H445 C439 0.929 . S
C446 O437 1.250 . S
C446 O438 1.258 . S
O447 Mn432 2.162 . S
O447 C435 1.281 . S
O448 Mn432 2.297 . S
O448 C435 1.236 . S
N449 Mn433 2.282 . S
N449 C450 1.328 . S
N449 C454 1.318 . S
C450 N449 1.328 . S
C450 C451 1.457 . S
C450 H455 0.929 . S
C451 C450 1.457 . S
C451 C452 1.291 . S
C451 H464 0.931 . S
C452 C451 1.291 . S
C452 C453 1.373 . S
C452 H465 0.929 . S
C453 C452 1.373 . S
C453 C454 1.396 . S
C453 C460 1.403 . S
C454 C444 1.476 . S
C454 N449 1.318 . S
C454 C453 1.396 . S
H455 C450 0.929 . S
O456 Mn432 2.385 . S
O456 C434 1.234 . S
O457 Mn432 2.209 . S
O457 Mn433 2.215 . S
O457 C434 1.283 . S
O458 Mn432 2.094 . S
O458 C436 1.240 . S
O459 Mn433 2.117 . S
O459 C436 1.264 . S
C460 C453 1.403 . S
C460 C461 1.399 . S
C460 H466 0.929 . S
C461 C441 1.449 . S
C461 C460 1.399 . S
C461 H467 0.930 . S
H462 C442 0.931 . S
H463 C443 0.930 . S
H464 C451 0.931 . S
H465 C452 0.929 . S
H466 C460 0.929 . S
H467 C461 0.930 . S
Mn468 O473 2.095 . S
Mn468 O483 2.162 . S
Mn468 O484 2.297 . S
Mn468 O492 2.385 . S
Mn468 O493 2.209 . S
Mn468 O494 2.094 . S
Mn469 O474 2.121 . S
Mn469 N476 2.257 . S
Mn469 N485 2.282 . S
Mn469 O493 2.215 . S
Mn469 O495 2.117 . S
C470 O492 1.234 . S
C470 O493 1.283 . S
C471 O483 1.281 . S
C471 O484 1.236 . S
C472 O494 1.240 . S
C472 O495 1.264 . S
O473 Mn468 2.095 . S
O473 C482 1.250 . S
O474 Mn469 2.121 . S
O474 C482 1.258 . S
C475 N476 1.326 . S
C475 C479 1.460 . S
C475 H481 0.929 . S
N476 Mn469 2.257 . S
N476 C475 1.326 . S
N476 C480 1.362 . S
C477 C478 1.258 . S
C477 C480 1.431 . S
C477 C497 1.449 . S
C478 C477 1.258 . S
C478 C479 1.477 . S
C478 H498 0.931 . S
C479 C475 1.460 . S
C479 C478 1.477 . S
C479 H499 0.930 . S
C480 N476 1.362 . S
C480 C477 1.431 . S
C480 C490 1.476 . S
H481 C475 0.929 . S
C482 O473 1.250 . S
C482 O474 1.258 . S
O483 Mn468 2.162 . S
O483 C471 1.281 . S
O484 Mn468 2.297 . S
O484 C471 1.236 . S
N485 Mn469 2.282 . S
N485 C486 1.328 . S
N485 C490 1.318 . S
C486 N485 1.328 . S
C486 C487 1.457 . S
C486 H491 0.929 . S
C487 C486 1.457 . S
C487 C488 1.291 . S
C487 H500 0.931 . S
C488 C487 1.291 . S
C488 C489 1.373 . S
C488 H501 0.929 . S
C489 C488 1.373 . S
C489 C490 1.396 . S
C489 C496 1.403 . S
C490 C480 1.476 . S
C490 N485 1.318 . S
C490 C489 1.396 . S
H491 C486 0.929 . S
O492 Mn468 2.385 . S
O492 C470 1.234 . S
O493 Mn468 2.209 . S
O493 Mn469 2.215 . S
O493 C470 1.283 . S
O494 Mn468 2.094 . S
O494 C472 1.240 . S
O495 Mn469 2.117 . S
O495 C472 1.264 . S
C496 C489 1.403 . S
C496 C497 1.399 . S
C496 H502 0.929 . S
C497 C477 1.449 . S
C497 C496 1.399 . S
C497 H503 0.930 . S
H498 C478 0.931 . S
H499 C479 0.930 . S
H500 C487 0.931 . S
H501 C488 0.929 . S
H502 C496 0.929 . S
H503 C497 0.930 . S
Mn504 O509 2.096 . S
Mn504 O519 2.162 1_455 S
Mn504 O520 2.297 1_455 S
Mn504 O528 2.385 . S
Mn504 O529 2.209 . S
Mn504 O530 2.094 . S
Mn505 O510 2.121 . S
Mn505 N512 2.257 . S
Mn505 N521 2.282 . S
Mn505 O529 2.215 . S
Mn505 O531 2.117 . S
C506 O528 1.234 . S
C506 O529 1.283 . S
C507 O519 1.281 . S
C507 O520 1.236 . S
C508 O530 1.240 . S
C508 O531 1.264 . S
O509 Mn504 2.096 . S
O509 C518 1.252 . S
O510 Mn505 2.121 . S
O510 C518 1.258 . S
C511 N512 1.326 . S
C511 C515 1.460 . S
C511 H517 0.929 . S
N512 Mn505 2.257 . S
N512 C511 1.326 . S
N512 C516 1.362 . S
C513 C514 1.258 . S
C513 C516 1.431 . S
C513 C533 1.449 . S
C514 C513 1.258 . S
C514 C515 1.477 . S
C514 H534 0.931 . S
C515 C511 1.460 . S
C515 C514 1.477 . S
C515 H535 0.930 . S
C516 N512 1.362 . S
C516 C513 1.431 . S
C516 C526 1.476 . S
H517 C511 0.929 . S
C518 O509 1.252 . S
C518 O510 1.258 . S
O519 Mn504 2.162 1_655 S
O519 C507 1.281 . S
O520 Mn504 2.297 1_655 S
O520 C507 1.236 . S
N521 Mn505 2.282 . S
N521 C522 1.328 . S
N521 C526 1.318 . S
C522 N521 1.328 . S
C522 C523 1.457 . S
C522 H527 0.929 . S
C523 C522 1.457 . S
C523 C524 1.291 . S
C523 H536 0.931 . S
C524 C523 1.291 . S
C524 C525 1.373 . S
C524 H537 0.929 . S
C525 C524 1.373 . S
C525 C526 1.396 . S
C525 C532 1.403 . S
C526 C516 1.476 . S
C526 N521 1.318 . S
C526 C525 1.396 . S
H527 C522 0.929 . S
O528 Mn504 2.385 . S
O528 C506 1.234 . S
O529 Mn504 2.209 . S
O529 Mn505 2.215 . S
O529 C506 1.283 . S
O530 Mn504 2.094 . S
O530 C508 1.240 . S
O531 Mn505 2.117 . S
O531 C508 1.264 . S
C532 C525 1.403 . S
C532 C533 1.399 . S
C532 H538 0.929 . S
C533 C513 1.449 . S
C533 C532 1.399 . S
C533 H539 0.930 . S
H534 C514 0.931 . S
H535 C515 0.930 . S
H536 C523 0.931 . S
H537 C524 0.929 . S
H538 C532 0.929 . S
H539 C533 0.930 . S
Mn540 O545 2.096 . S
Mn540 O555 2.162 1_545 S
Mn540 O556 2.297 1_545 S
Mn540 O564 2.385 . S
Mn540 O565 2.209 . S
Mn540 O566 2.094 . S
Mn541 O546 2.121 . S
Mn541 N548 2.257 . S
Mn541 N557 2.282 . S
Mn541 O565 2.215 . S
Mn541 O567 2.117 . S
C542 O564 1.234 . S
C542 O565 1.283 . S
C543 O555 1.281 . S
C543 O556 1.236 . S
C544 O566 1.240 . S
C544 O567 1.264 . S
O545 Mn540 2.096 . S
O545 C554 1.252 . S
O546 Mn541 2.121 . S
O546 C554 1.258 . S
C547 N548 1.326 . S
C547 C551 1.460 . S
C547 H553 0.929 . S
N548 Mn541 2.257 . S
N548 C547 1.326 . S
N548 C552 1.362 . S
C549 C550 1.258 . S
C549 C552 1.431 . S
C549 C569 1.449 . S
C550 C549 1.258 . S
C550 C551 1.477 . S
C550 H570 0.931 . S
C551 C547 1.460 . S
C551 C550 1.477 . S
C551 H571 0.930 . S
C552 N548 1.362 . S
C552 C549 1.431 . S
C552 C562 1.476 . S
H553 C547 0.929 . S
C554 O545 1.252 . S
C554 O546 1.258 . S
O555 Mn540 2.162 1_565 S
O555 C543 1.281 . S
O556 Mn540 2.297 1_565 S
O556 C543 1.236 . S
N557 Mn541 2.282 . S
N557 C558 1.328 . S
N557 C562 1.318 . S
C558 N557 1.328 . S
C558 C559 1.457 . S
C558 H563 0.929 . S
C559 C558 1.457 . S
C559 C560 1.291 . S
C559 H572 0.931 . S
C560 C559 1.291 . S
C560 C561 1.373 . S
C560 H573 0.929 . S
C561 C560 1.373 . S
C561 C562 1.396 . S
C561 C568 1.403 . S
C562 C552 1.476 . S
C562 N557 1.318 . S
C562 C561 1.396 . S
H563 C558 0.929 . S
O564 Mn540 2.385 . S
O564 C542 1.234 . S
O565 Mn540 2.209 . S
O565 Mn541 2.215 . S
O565 C542 1.283 . S
O566 Mn540 2.094 . S
O566 C544 1.240 . S
O567 Mn541 2.117 . S
O567 C544 1.264 . S
C568 C561 1.403 . S
C568 C569 1.399 . S
C568 H574 0.929 . S
C569 C549 1.449 . S
C569 C568 1.399 . S
C569 H575 0.930 . S
H570 C550 0.931 . S
H571 C551 0.930 . S
H572 C559 0.931 . S
H573 C560 0.929 . S
H574 C568 0.929 . S
H575 C569 0.930 . S
C576 C577 1.363 . S
C576 C582 1.379 . S
C576 N584 1.356 . S
C577 C576 1.363 . S
C577 C583 1.363 . S
C578 C579 1.363 . S
C578 C583 1.379 . S
C578 N585 1.356 . S
C579 C578 1.363 . S
C579 C582 1.363 . S
N580 C582 1.356 . S
N580 H592 0.984 . S
N580 H593 0.985 . S
N581 C583 1.356 . S
N581 H586 0.984 . S
N581 H587 0.985 . S
C582 C576 1.379 . S
C582 C579 1.363 . S
C582 N580 1.356 . S
C583 C577 1.363 . S
C583 C578 1.379 . S
C583 N581 1.356 . S
N584 C576 1.356 . S
N584 H590 0.984 . S
N584 H591 0.984 . S
N585 C578 1.356 . S
N585 H588 0.984 . S
N585 H589 0.985 . S
H586 N581 0.984 . S
H587 N581 0.985 . S
H588 N585 0.984 . S
H589 N585 0.985 . S
H590 N584 0.984 . S
H591 N584 0.984 . S
H592 N580 0.984 . S
H593 N580 0.985 . S
C594 C595 1.363 . S
C594 C600 1.379 . S
C594 N602 1.356 . S
C595 C594 1.363 . S
C595 C601 1.363 . S
C596 C597 1.363 . S
C596 C601 1.379 . S
C596 N603 1.356 . S
C597 C596 1.363 . S
C597 C600 1.363 . S
N598 C600 1.356 . S
N598 H610 0.984 . S
N598 H611 0.985 . S
N599 C601 1.356 . S
N599 H604 0.984 . S
N599 H605 0.985 . S
C600 C594 1.379 . S
C600 C597 1.363 . S
C600 N598 1.356 . S
C601 C595 1.363 . S
C601 C596 1.379 . S
C601 N599 1.356 . S
N602 C594 1.356 . S
N602 H608 0.984 . S
N602 H609 0.984 . S
N603 C596 1.356 . S
N603 H606 0.984 . S
N603 H607 0.985 . S
H604 N599 0.984 . S
H605 N599 0.985 . S
H606 N603 0.984 . S
H607 N603 0.985 . S
H608 N602 0.984 . S
H609 N602 0.984 . S
H610 N598 0.984 . S
H611 N598 0.985 . S
C612 C613 1.363 . S
C612 C618 1.379 . S
C612 N620 1.356 . S
C613 C612 1.363 . S
C613 C619 1.363 . S
C614 C615 1.363 . S
C614 C619 1.379 . S
C614 N621 1.356 . S
C615 C614 1.363 . S
C615 C618 1.363 . S
N616 C618 1.356 . S
N616 H628 0.984 . S
N616 H629 0.985 . S
N617 C619 1.356 . S
N617 H622 0.984 . S
N617 H623 0.985 . S
C618 C612 1.379 . S
C618 C615 1.363 . S
C618 N616 1.356 . S
C619 C613 1.363 . S
C619 C614 1.379 . S
C619 N617 1.356 . S
N620 C612 1.356 . S
N620 H626 0.984 . S
N620 H627 0.984 . S
N621 C614 1.356 . S
N621 H624 0.984 . S
N621 H625 0.985 . S
H622 N617 0.984 . S
H623 N617 0.985 . S
H624 N621 0.984 . S
H625 N621 0.985 . S
H626 N620 0.984 . S
H627 N620 0.984 . S
H628 N616 0.984 . S
H629 N616 0.985 . S
C630 C631 1.363 . S
C630 C636 1.379 . S
C630 N638 1.356 . S
C631 C630 1.363 . S
C631 C637 1.363 . S
C632 C633 1.363 . S
C632 C637 1.379 . S
C632 N639 1.356 . S
C633 C632 1.363 . S
C633 C636 1.363 . S
N634 C636 1.356 . S
N634 H646 0.984 . S
N634 H647 0.985 . S
N635 C637 1.356 . S
N635 H640 0.984 . S
N635 H641 0.985 . S
C636 C630 1.379 . S
C636 C633 1.363 . S
C636 N634 1.356 . S
C637 C631 1.363 . S
C637 C632 1.379 . S
C637 N635 1.356 . S
N638 C630 1.356 . S
N638 H644 0.984 . S
N638 H645 0.984 . S
N639 C632 1.356 . S
N639 H642 0.984 . S
N639 H643 0.985 . S
H640 N635 0.984 . S
H641 N635 0.985 . S
H642 N639 0.984 . S
H643 N639 0.985 . S
H644 N638 0.984 . S
H645 N638 0.984 . S
H646 N634 0.984 . S
H647 N634 0.985 . S
C648 C649 1.363 . S
C648 C654 1.379 . S
C648 N656 1.356 . S
C649 C648 1.363 . S
C649 C655 1.363 . S
C650 C651 1.363 . S
C650 C655 1.379 . S
C650 N657 1.356 . S
C651 C650 1.363 . S
C651 C654 1.363 . S
N652 C654 1.356 . S
N652 H664 0.984 . S
N652 H665 0.985 . S
N653 C655 1.356 . S
N653 H658 0.984 . S
N653 H659 0.985 . S
C654 C648 1.379 . S
C654 C651 1.363 . S
C654 N652 1.356 . S
C655 C649 1.363 . S
C655 C650 1.379 . S
C655 N653 1.356 . S
N656 C648 1.356 . S
N656 H662 0.984 . S
N656 H663 0.984 . S
N657 C650 1.356 . S
N657 H660 0.984 . S
N657 H661 0.985 . S
H658 N653 0.984 . S
H659 N653 0.985 . S
H660 N657 0.984 . S
H661 N657 0.985 . S
H662 N656 0.984 . S
H663 N656 0.984 . S
H664 N652 0.984 . S
H665 N652 0.985 . S
C666 C667 1.363 . S
C666 C672 1.379 . S
C666 N674 1.356 . S
C667 C666 1.363 . S
C667 C673 1.363 . S
C668 C669 1.363 . S
C668 C673 1.379 . S
C668 N675 1.356 . S
C669 C668 1.363 . S
C669 C672 1.363 . S
N670 C672 1.356 . S
N670 H682 0.984 . S
N670 H683 0.985 . S
N671 C673 1.356 . S
N671 H676 0.984 . S
N671 H677 0.985 . S
C672 C666 1.379 . S
C672 C669 1.363 . S
C672 N670 1.356 . S
C673 C667 1.363 . S
C673 C668 1.379 . S
C673 N671 1.356 . S
N674 C666 1.356 . S
N674 H680 0.984 . S
N674 H681 0.984 . S
N675 C668 1.356 . S
N675 H678 0.984 . S
N675 H679 0.985 . S
H676 N671 0.984 . S
H677 N671 0.985 . S
H678 N675 0.984 . S
H679 N675 0.985 . S
H680 N674 0.984 . S
H681 N674 0.984 . S
H682 N670 0.984 . S
H683 N670 0.985 . S
C684 C685 1.363 . S
C684 C690 1.379 . S
C684 N692 1.356 . S
C685 C684 1.363 . S
C685 C691 1.363 . S
C686 C687 1.363 . S
C686 C691 1.379 . S
C686 N693 1.356 . S
C687 C686 1.363 . S
C687 C690 1.363 . S
N688 C690 1.356 . S
N688 H700 0.984 . S
N688 H701 0.985 . S
N689 C691 1.356 . S
N689 H694 0.984 . S
N689 H695 0.985 . S
C690 C684 1.379 . S
C690 C687 1.363 . S
C690 N688 1.356 . S
C691 C685 1.363 . S
C691 C686 1.379 . S
C691 N689 1.356 . S
N692 C684 1.356 . S
N692 H698 0.984 . S
N692 H699 0.984 . S
N693 C686 1.356 . S
N693 H696 0.984 . S
N693 H697 0.985 . S
H694 N689 0.984 . S
H695 N689 0.985 . S
H696 N693 0.984 . S
H697 N693 0.985 . S
H698 N692 0.984 . S
H699 N692 0.984 . S
H700 N688 0.984 . S
H701 N688 0.985 . S
C702 C703 1.363 . S
C702 C708 1.379 . S
C702 N710 1.356 . S
C703 C702 1.363 . S
C703 C709 1.363 . S
C704 C705 1.363 . S
C704 C709 1.379 . S
C704 N711 1.356 . S
C705 C704 1.363 . S
C705 C708 1.363 . S
N706 C708 1.356 . S
N706 H718 0.984 . S
N706 H719 0.985 . S
N707 C709 1.356 . S
N707 H712 0.984 . S
N707 H713 0.985 . S
C708 C702 1.379 . S
C708 C705 1.363 . S
C708 N706 1.356 . S
C709 C703 1.363 . S
C709 C704 1.379 . S
C709 N707 1.356 . S
N710 C702 1.356 . S
N710 H716 0.984 . S
N710 H717 0.984 . S
N711 C704 1.356 . S
N711 H714 0.984 . S
N711 H715 0.985 . S
H712 N707 0.984 . S
H713 N707 0.985 . S
H714 N711 0.984 . S
H715 N711 0.985 . S
H716 N710 0.984 . S
H717 N710 0.984 . S
H718 N706 0.984 . S
H719 N706 0.985 . S
C720 C721 1.363 . S
C720 C726 1.379 . S
C720 N728 1.356 . S
C721 C720 1.363 . S
C721 C727 1.363 . S
C722 C723 1.363 . S
C722 C727 1.379 . S
C722 N729 1.356 . S
C723 C722 1.363 . S
C723 C726 1.363 . S
N724 C726 1.356 . S
N724 H736 0.984 . S
N724 H737 0.985 . S
N725 C727 1.356 . S
N725 H730 0.984 . S
N725 H731 0.985 . S
C726 C720 1.379 . S
C726 C723 1.363 . S
C726 N724 1.356 . S
C727 C721 1.363 . S
C727 C722 1.379 . S
C727 N725 1.356 . S
N728 C720 1.356 . S
N728 H734 0.984 . S
N728 H735 0.984 . S
N729 C722 1.356 . S
N729 H732 0.984 . S
N729 H733 0.985 . S
H730 N725 0.984 . S
H731 N725 0.985 . S
H732 N729 0.984 . S
H733 N729 0.985 . S
H734 N728 0.984 . S
H735 N728 0.984 . S
H736 N724 0.984 . S
H737 N724 0.985 . S
C738 C739 1.363 . S
C738 C744 1.379 . S
C738 N746 1.356 . S
C739 C738 1.363 . S
C739 C745 1.363 . S
C740 C741 1.363 . S
C740 C745 1.379 . S
C740 N747 1.356 . S
C741 C740 1.363 . S
C741 C744 1.363 . S
N742 C744 1.356 . S
N742 H754 0.984 . S
N742 H755 0.985 . S
N743 C745 1.356 . S
N743 H748 0.984 . S
N743 H749 0.985 . S
C744 C738 1.379 . S
C744 C741 1.363 . S
C744 N742 1.356 . S
C745 C739 1.363 . S
C745 C740 1.379 . S
C745 N743 1.356 . S
N746 C738 1.356 . S
N746 H752 0.984 . S
N746 H753 0.984 . S
N747 C740 1.356 . S
N747 H750 0.984 . S
N747 H751 0.985 . S
H748 N743 0.984 . S
H749 N743 0.985 . S
H750 N747 0.984 . S
H751 N747 0.985 . S
H752 N746 0.984 . S
H753 N746 0.984 . S
H754 N742 0.984 . S
H755 N742 0.985 . S
C756 C757 1.363 . S
C756 C762 1.379 . S
C756 N764 1.356 . S
C757 C756 1.363 . S
C757 C763 1.363 . S
C758 C759 1.363 . S
C758 C763 1.379 . S
C758 N765 1.356 . S
C759 C758 1.363 . S
C759 C762 1.363 . S
N760 C762 1.356 . S
N760 H772 0.984 . S
N760 H773 0.985 . S
N761 C763 1.356 . S
N761 H766 0.984 . S
N761 H767 0.985 . S
C762 C756 1.379 . S
C762 C759 1.363 . S
C762 N760 1.356 . S
C763 C757 1.363 . S
C763 C758 1.379 . S
C763 N761 1.356 . S
N764 C756 1.356 . S
N764 H770 0.984 . S
N764 H771 0.984 . S
N765 C758 1.356 . S
N765 H768 0.984 . S
N765 H769 0.985 . S
H766 N761 0.984 . S
H767 N761 0.985 . S
H768 N765 0.984 . S
H769 N765 0.985 . S
H770 N764 0.984 . S
H771 N764 0.984 . S
H772 N760 0.984 . S
H773 N760 0.985 . S
C774 C775 1.363 . S
C774 C780 1.379 . S
C774 N782 1.356 . S
C775 C774 1.363 . S
C775 C781 1.363 . S
C776 C777 1.363 . S
C776 C781 1.379 . S
C776 N783 1.356 . S
C777 C776 1.363 . S
C777 C780 1.363 . S
N778 C780 1.356 . S
N778 H790 0.984 . S
N778 H791 0.985 . S
N779 C781 1.356 . S
N779 H784 0.984 . S
N779 H785 0.985 . S
C780 C774 1.379 . S
C780 C777 1.363 . S
C780 N778 1.356 . S
C781 C775 1.363 . S
C781 C776 1.379 . S
C781 N779 1.356 . S
N782 C774 1.356 . S
N782 H788 0.984 . S
N782 H789 0.984 . S
N783 C776 1.356 . S
N783 H786 0.984 . S
N783 H787 0.985 . S
H784 N779 0.984 . S
H785 N779 0.985 . S
H786 N783 0.984 . S
H787 N783 0.985 . S
H788 N782 0.984 . S
H789 N782 0.984 . S
H790 N778 0.984 . S
H791 N778 0.985 . S
C792 C793 1.363 . S
C792 C798 1.379 . S
C792 N800 1.356 . S
C793 C792 1.363 . S
C793 C799 1.363 . S
C794 C795 1.363 . S
C794 C799 1.379 . S
C794 N801 1.356 . S
C795 C794 1.363 . S
C795 C798 1.363 . S
N796 C798 1.356 . S
N796 H808 0.984 . S
N796 H809 0.985 . S
N797 C799 1.356 . S
N797 H802 0.984 . S
N797 H803 0.985 . S
C798 C792 1.379 . S
C798 C795 1.363 . S
C798 N796 1.356 . S
C799 C793 1.363 . S
C799 C794 1.379 . S
C799 N797 1.356 . S
N800 C792 1.356 . S
N800 H806 0.984 . S
N800 H807 0.984 . S
N801 C794 1.356 . S
N801 H804 0.984 . S
N801 H805 0.985 . S
H802 N797 0.984 . S
H803 N797 0.985 . S
H804 N801 0.984 . S
H805 N801 0.985 . S
H806 N800 0.984 . S
H807 N800 0.984 . S
H808 N796 0.984 . S
H809 N796 0.985 . S
C810 C811 1.363 . S
C810 C816 1.379 . S
C810 N818 1.356 . S
C811 C810 1.363 . S
C811 C817 1.363 . S
C812 C813 1.363 . S
C812 C817 1.379 . S
C812 N819 1.356 . S
C813 C812 1.363 . S
C813 C816 1.363 . S
N814 C816 1.356 . S
N814 H826 0.984 . S
N814 H827 0.985 . S
N815 C817 1.356 . S
N815 H820 0.984 . S
N815 H821 0.985 . S
C816 C810 1.379 . S
C816 C813 1.363 . S
C816 N814 1.356 . S
C817 C811 1.363 . S
C817 C812 1.379 . S
C817 N815 1.356 . S
N818 C810 1.356 . S
N818 H824 0.984 . S
N818 H825 0.984 . S
N819 C812 1.356 . S
N819 H822 0.984 . S
N819 H823 0.985 . S
H820 N815 0.984 . S
H821 N815 0.985 . S
H822 N819 0.984 . S
H823 N819 0.985 . S
H824 N818 0.984 . S
H825 N818 0.984 . S
H826 N814 0.984 . S
H827 N814 0.985 . S
C828 C829 1.363 . S
C828 C834 1.379 . S
C828 N836 1.356 . S
C829 C828 1.363 . S
C829 C835 1.363 . S
C830 C831 1.363 . S
C830 C835 1.379 . S
C830 N837 1.356 . S
C831 C830 1.363 . S
C831 C834 1.363 . S
N832 C834 1.356 . S
N832 H844 0.984 . S
N832 H845 0.985 . S
N833 C835 1.356 . S
N833 H838 0.984 . S
N833 H839 0.985 . S
C834 C828 1.379 . S
C834 C831 1.363 . S
C834 N832 1.356 . S
C835 C829 1.363 . S
C835 C830 1.379 . S
C835 N833 1.356 . S
N836 C828 1.356 . S
N836 H842 0.984 . S
N836 H843 0.984 . S
N837 C830 1.356 . S
N837 H840 0.984 . S
N837 H841 0.985 . S
H838 N833 0.984 . S
H839 N833 0.985 . S
H840 N837 0.984 . S
H841 N837 0.985 . S
H842 N836 0.984 . S
H843 N836 0.984 . S
H844 N832 0.984 . S
H845 N832 0.985 . S
C846 C847 1.363 . S
C846 C852 1.379 . S
C846 N854 1.356 . S
C847 C846 1.363 . S
C847 C853 1.363 . S
C848 C849 1.363 . S
C848 C853 1.379 . S
C848 N855 1.356 . S
C849 C848 1.363 . S
C849 C852 1.363 . S
N850 C852 1.356 . S
N850 H862 0.984 . S
N850 H863 0.985 . S
N851 C853 1.356 . S
N851 H856 0.984 . S
N851 H857 0.985 . S
C852 C846 1.379 . S
C852 C849 1.363 . S
C852 N850 1.356 . S
C853 C847 1.363 . S
C853 C848 1.379 . S
C853 N851 1.356 . S
N854 C846 1.356 . S
N854 H860 0.984 . S
N854 H861 0.984 . S
N855 C848 1.356 . S
N855 H858 0.984 . S
N855 H859 0.985 . S
H856 N851 0.984 . S
H857 N851 0.985 . S
H858 N855 0.984 . S
H859 N855 0.985 . S
H860 N854 0.984 . S
H861 N854 0.984 . S
H862 N850 0.984 . S
H863 N850 0.985 . S
C864 C865 1.363 . S
C864 C870 1.379 . S
C864 N872 1.356 . S
C865 C864 1.363 . S
C865 C871 1.363 . S
C866 C867 1.363 . S
C866 C871 1.379 . S
C866 N873 1.356 . S
C867 C866 1.363 . S
C867 C870 1.363 . S
N868 C870 1.356 . S
N868 H880 0.984 . S
N868 H881 0.985 . S
N869 C871 1.356 . S
N869 H874 0.984 . S
N869 H875 0.985 . S
C870 C864 1.379 . S
C870 C867 1.363 . S
C870 N868 1.356 . S
C871 C865 1.363 . S
C871 C866 1.379 . S
C871 N869 1.356 . S
N872 C864 1.356 . S
N872 H878 0.984 . S
N872 H879 0.984 . S
N873 C866 1.356 . S
N873 H876 0.984 . S
N873 H877 0.985 . S
H874 N869 0.984 . S
H875 N869 0.985 . S
H876 N873 0.984 . S
H877 N873 0.985 . S
H878 N872 0.984 . S
H879 N872 0.984 . S
H880 N868 0.984 . S
H881 N868 0.985 . S
C882 C883 1.363 . S
C882 C888 1.379 . S
C882 N890 1.356 . S
C883 C882 1.363 . S
C883 C889 1.363 . S
C884 C885 1.363 . S
C884 C889 1.379 . S
C884 N891 1.356 . S
C885 C884 1.363 . S
C885 C888 1.363 . S
N886 C888 1.356 . S
N886 H898 0.984 . S
N886 H899 0.985 . S
N887 C889 1.356 . S
N887 H892 0.984 . S
N887 H893 0.985 . S
C888 C882 1.379 . S
C888 C885 1.363 . S
C888 N886 1.356 . S
C889 C883 1.363 . S
C889 C884 1.379 . S
C889 N887 1.356 . S
N890 C882 1.356 . S
N890 H896 0.984 . S
N890 H897 0.984 . S
N891 C884 1.356 . S
N891 H894 0.984 . S
N891 H895 0.985 . S
H892 N887 0.984 . S
H893 N887 0.985 . S
H894 N891 0.984 . S
H895 N891 0.985 . S
H896 N890 0.984 . S
H897 N890 0.984 . S
H898 N886 0.984 . S
H899 N886 0.985 . S
C900 C901 1.363 . S
C900 C906 1.379 . S
C900 N908 1.356 . S
C901 C900 1.363 . S
C901 C907 1.363 . S
C902 C903 1.363 . S
C902 C907 1.379 . S
C902 N909 1.356 . S
C903 C902 1.363 . S
C903 C906 1.363 . S
N904 C906 1.356 . S
N904 H916 0.984 . S
N904 H917 0.985 . S
N905 C907 1.356 . S
N905 H910 0.984 . S
N905 H911 0.985 . S
C906 C900 1.379 . S
C906 C903 1.363 . S
C906 N904 1.356 . S
C907 C901 1.363 . S
C907 C902 1.379 . S
C907 N905 1.356 . S
N908 C900 1.356 . S
N908 H914 0.984 . S
N908 H915 0.984 . S
N909 C902 1.356 . S
N909 H912 0.984 . S
N909 H913 0.985 . S
H910 N905 0.984 . S
H911 N905 0.985 . S
H912 N909 0.984 . S
H913 N909 0.985 . S
H914 N908 0.984 . S
H915 N908 0.984 . S
H916 N904 0.984 . S
H917 N904 0.985 . S
C918 C919 1.363 . S
C918 C924 1.379 . S
C918 N926 1.356 . S
C919 C918 1.363 . S
C919 C925 1.363 . S
C920 C921 1.363 . S
C920 C925 1.379 . S
C920 N927 1.356 . S
C921 C920 1.363 . S
C921 C924 1.363 . S
N922 C924 1.356 . S
N922 H934 0.984 . S
N922 H935 0.985 . S
N923 C925 1.356 . S
N923 H928 0.984 . S
N923 H929 0.985 . S
C924 C918 1.379 . S
C924 C921 1.363 . S
C924 N922 1.356 . S
C925 C919 1.363 . S
C925 C920 1.379 . S
C925 N923 1.356 . S
N926 C918 1.356 . S
N926 H932 0.984 . S
N926 H933 0.984 . S
N927 C920 1.356 . S
N927 H930 0.984 . S
N927 H931 0.985 . S
H928 N923 0.984 . S
H929 N923 0.985 . S
H930 N927 0.984 . S
H931 N927 0.985 . S
H932 N926 0.984 . S
H933 N926 0.984 . S
H934 N922 0.984 . S
H935 N922 0.985 . S
C936 C937 1.363 . S
C936 C942 1.379 . S
C936 N944 1.356 . S
C937 C936 1.363 . S
C937 C943 1.363 . S
C938 C939 1.363 . S
C938 C943 1.379 . S
C938 N945 1.356 . S
C939 C938 1.363 . S
C939 C942 1.363 . S
N940 C942 1.356 . S
N940 H952 0.984 . S
N940 H953 0.985 . S
N941 C943 1.356 . S
N941 H946 0.984 . S
N941 H947 0.985 . S
C942 C936 1.379 . S
C942 C939 1.363 . S
C942 N940 1.356 . S
C943 C937 1.363 . S
C943 C938 1.379 . S
C943 N941 1.356 . S
N944 C936 1.356 . S
N944 H950 0.984 . S
N944 H951 0.984 . S
N945 C938 1.356 . S
N945 H948 0.984 . S
N945 H949 0.985 . S
H946 N941 0.984 . S
H947 N941 0.985 . S
H948 N945 0.984 . S
H949 N945 0.985 . S
H950 N944 0.984 . S
H951 N944 0.984 . S
H952 N940 0.984 . S
H953 N940 0.985 . S
C954 C955 1.363 . S
C954 C960 1.379 . S
C954 N962 1.356 . S
C955 C954 1.363 . S
C955 C961 1.363 . S
C956 C957 1.363 . S
C956 C961 1.379 . S
C956 N963 1.356 . S
C957 C956 1.363 . S
C957 C960 1.363 . S
N958 C960 1.356 . S
N958 H970 0.984 . S
N958 H971 0.985 . S
N959 C961 1.356 . S
N959 H964 0.984 . S
N959 H965 0.985 . S
C960 C954 1.379 . S
C960 C957 1.363 . S
C960 N958 1.356 . S
C961 C955 1.363 . S
C961 C956 1.379 . S
C961 N959 1.356 . S
N962 C954 1.356 . S
N962 H968 0.984 . S
N962 H969 0.984 . S
N963 C956 1.356 . S
N963 H966 0.984 . S
N963 H967 0.985 . S
H964 N959 0.984 . S
H965 N959 0.985 . S
H966 N963 0.984 . S
H967 N963 0.985 . S
H968 N962 0.984 . S
H969 N962 0.984 . S
H970 N958 0.984 . S
H971 N958 0.985 . S
C972 C973 1.363 . S
C972 C978 1.379 . S
C972 N980 1.356 . S
C973 C972 1.363 . S
C973 C979 1.363 . S
C974 C975 1.363 . S
C974 C979 1.379 . S
C974 N981 1.356 . S
C975 C974 1.363 . S
C975 C978 1.363 . S
N976 C978 1.356 . S
N976 H988 0.984 . S
N976 H989 0.985 . S
N977 C979 1.356 . S
N977 H982 0.984 . S
N977 H983 0.985 . S
C978 C972 1.379 . S
C978 C975 1.363 . S
C978 N976 1.356 . S
C979 C973 1.363 . S
C979 C974 1.379 . S
C979 N977 1.356 . S
N980 C972 1.356 . S
N980 H986 0.984 . S
N980 H987 0.984 . S
N981 C974 1.356 . S
N981 H984 0.984 . S
N981 H985 0.985 . S
H982 N977 0.984 . S
H983 N977 0.985 . S
H984 N981 0.984 . S
H985 N981 0.985 . S
H986 N980 0.984 . S
H987 N980 0.984 . S
H988 N976 0.984 . S
H989 N976 0.985 . S
C990 C991 1.363 . S
C990 C996 1.379 . S
C990 N998 1.356 . S
C991 C990 1.363 . S
C991 C997 1.363 . S
C992 C993 1.363 . S
C992 C997 1.379 . S
C992 N999 1.356 . S
C993 C992 1.363 . S
C993 C996 1.363 . S
N994 C996 1.356 . S
N994 H1006 0.984 . S
N994 H1007 0.985 . S
N995 C997 1.356 . S
N995 H1000 0.984 . S
N995 H1001 0.985 . S
C996 C990 1.379 . S
C996 C993 1.363 . S
C996 N994 1.356 . S
C997 C991 1.363 . S
C997 C992 1.379 . S
C997 N995 1.356 . S
N998 C990 1.356 . S
N998 H1004 0.984 . S
N998 H1005 0.984 . S
N999 C992 1.356 . S
N999 H1002 0.984 . S
N999 H1003 0.985 . S
H1000 N995 0.984 . S
H1001 N995 0.985 . S
H1002 N999 0.984 . S
H1003 N999 0.985 . S
H1004 N998 0.984 . S
H1005 N998 0.984 . S
H1006 N994 0.984 . S
H1007 N994 0.985 . S
C1008 C1009 1.363 . S
C1008 C1014 1.379 1_554 S
C1008 N1016 1.356 . S
C1009 C1008 1.363 . S
C1009 C1015 1.363 . S
C1010 C1011 1.363 . S
C1010 C1015 1.379 1_556 S
C1010 N1017 1.356 . S
C1011 C1010 1.363 . S
C1011 C1014 1.363 . S
N1012 C1014 1.356 . S
N1012 H1024 0.984 . S
N1012 H1025 0.985 . S
N1013 C1015 1.356 . S
N1013 H1018 0.984 . S
N1013 H1019 0.985 . S
C1014 C1008 1.379 1_556 S
C1014 C1011 1.363 . S
C1014 N1012 1.356 . S
C1015 C1009 1.363 . S
C1015 C1010 1.379 1_554 S
C1015 N1013 1.356 . S
N1016 C1008 1.356 . S
N1016 H1022 0.984 . S
N1016 H1023 0.984 . S
N1017 C1010 1.356 . S
N1017 H1020 0.984 . S
N1017 H1021 0.985 . S
H1018 N1013 0.984 . S
H1019 N1013 0.985 . S
H1020 N1017 0.984 . S
H1021 N1017 0.985 . S
H1022 N1016 0.984 . S
H1023 N1016 0.984 . S
H1024 N1012 0.984 . S
H1025 N1012 0.985 . S
C1026 C1027 1.363 . S
C1026 C1032 1.379 . S
C1026 N1034 1.356 . S
C1027 C1026 1.363 . S
C1027 C1033 1.363 . S
C1028 C1029 1.363 . S
C1028 C1033 1.379 . S
C1028 N1035 1.356 . S
C1029 C1028 1.363 . S
C1029 C1032 1.363 . S
N1030 C1032 1.356 . S
N1030 H1042 0.984 . S
N1030 H1043 0.985 . S
N1031 C1033 1.356 . S
N1031 H1036 0.984 . S
N1031 H1037 0.985 . S
C1032 C1026 1.379 . S
C1032 C1029 1.363 . S
C1032 N1030 1.356 . S
C1033 C1027 1.363 . S
C1033 C1028 1.379 . S
C1033 N1031 1.356 . S
N1034 C1026 1.356 . S
N1034 H1040 0.984 . S
N1034 H1041 0.984 . S
N1035 C1028 1.356 . S
N1035 H1038 0.984 . S
N1035 H1039 0.985 . S
H1036 N1031 0.984 . S
H1037 N1031 0.985 . S
H1038 N1035 0.984 . S
H1039 N1035 0.985 . S
H1040 N1034 0.984 . S
H1041 N1034 0.984 . S
H1042 N1030 0.984 . S
H1043 N1030 0.985 . S
C1044 C1045 1.363 1_455 S
C1044 C1050 1.379 1_554 S
C1044 N1052 1.356 . S
C1045 C1044 1.363 1_655 S
C1045 C1051 1.363 . S
C1046 C1047 1.363 . S
C1046 C1051 1.379 1_556 S
C1046 N1053 1.356 . S
C1047 C1046 1.363 . S
C1047 C1050 1.363 1_655 S
N1048 C1050 1.356 . S
N1048 H1060 0.984 . S
N1048 H1061 0.985 . S
N1049 C1051 1.356 . S
N1049 H1054 0.984 . S
N1049 H1055 0.985 . S
C1050 C1044 1.379 1_556 S
C1050 C1047 1.363 1_455 S
C1050 N1048 1.356 . S
C1051 C1045 1.363 . S
C1051 C1046 1.379 1_554 S
C1051 N1049 1.356 . S
N1052 C1044 1.356 . S
N1052 H1058 0.984 . S
N1052 H1059 0.984 . S
N1053 C1046 1.356 . S
N1053 H1056 0.984 . S
N1053 H1057 0.985 . S
H1054 N1049 0.984 . S
H1055 N1049 0.985 . S
H1056 N1053 0.984 . S
H1057 N1053 0.985 . S
H1058 N1052 0.984 . S
H1059 N1052 0.984 . S
H1060 N1048 0.984 . S
H1061 N1048 0.985 . S
C1062 C1063 1.363 1_545 S
C1062 C1068 1.379 . S
C1062 N1070 1.356 . S
C1063 C1062 1.363 1_565 S
C1063 C1069 1.363 . S
C1064 C1065 1.363 . S
C1064 C1069 1.379 . S
C1064 N1071 1.356 . S
C1065 C1064 1.363 . S
C1065 C1068 1.363 1_565 S
N1066 C1068 1.356 . S
N1066 H1078 0.984 . S
N1066 H1079 0.985 . S
N1067 C1069 1.356 . S
N1067 H1072 0.984 . S
N1067 H1073 0.985 . S
C1068 C1062 1.379 . S
C1068 C1065 1.363 1_545 S
C1068 N1066 1.356 . S
C1069 C1063 1.363 . S
C1069 C1064 1.379 . S
C1069 N1067 1.356 . S
N1070 C1062 1.356 . S
N1070 H1076 0.984 . S
N1070 H1077 0.984 . S
N1071 C1064 1.356 . S
N1071 H1074 0.984 . S
N1071 H1075 0.985 . S
H1072 N1067 0.984 . S
H1073 N1067 0.985 . S
H1074 N1071 0.984 . S
H1075 N1071 0.985 . S
H1076 N1070 0.984 . S
H1077 N1070 0.984 . S
H1078 N1066 0.984 . S
H1079 N1066 0.985 . S
C1080 C1081 1.363 . S
C1080 C1086 1.379 1_556 S
C1080 N1088 1.356 . S
C1081 C1080 1.363 . S
C1081 C1087 1.363 . S
C1082 C1083 1.363 . S
C1082 C1087 1.379 1_554 S
C1082 N1089 1.356 . S
C1083 C1082 1.363 . S
C1083 C1086 1.363 . S
N1084 C1086 1.356 . S
N1084 H1096 0.984 . S
N1084 H1097 0.985 . S
N1085 C1087 1.356 . S
N1085 H1090 0.984 . S
N1085 H1091 0.985 . S
C1086 C1080 1.379 1_554 S
C1086 C1083 1.363 . S
C1086 N1084 1.356 . S
C1087 C1081 1.363 . S
C1087 C1082 1.379 1_556 S
C1087 N1085 1.356 . S
N1088 C1080 1.356 . S
N1088 H1094 0.984 . S
N1088 H1095 0.984 . S
N1089 C1082 1.356 . S
N1089 H1092 0.984 . S
N1089 H1093 0.985 . S
H1090 N1085 0.984 . S
H1091 N1085 0.985 . S
H1092 N1089 0.984 . S
H1093 N1089 0.985 . S
H1094 N1088 0.984 . S
H1095 N1088 0.984 . S
H1096 N1084 0.984 . S
H1097 N1084 0.985 . S
C1098 C1099 1.363 . S
C1098 C1104 1.379 . S
C1098 N1106 1.356 . S
C1099 C1098 1.363 . S
C1099 C1105 1.363 . S
C1100 C1101 1.363 . S
C1100 C1105 1.379 . S
C1100 N1107 1.356 . S
C1101 C1100 1.363 . S
C1101 C1104 1.363 . S
N1102 C1104 1.356 . S
N1102 H1114 0.984 . S
N1102 H1115 0.985 . S
N1103 C1105 1.356 . S
N1103 H1108 0.984 . S
N1103 H1109 0.985 . S
C1104 C1098 1.379 . S
C1104 C1101 1.363 . S
C1104 N1102 1.356 . S
C1105 C1099 1.363 . S
C1105 C1100 1.379 . S
C1105 N1103 1.356 . S
N1106 C1098 1.356 . S
N1106 H1112 0.984 . S
N1106 H1113 0.984 . S
N1107 C1100 1.356 . S
N1107 H1110 0.984 . S
N1107 H1111 0.985 . S
H1108 N1103 0.984 . S
H1109 N1103 0.985 . S
H1110 N1107 0.984 . S
H1111 N1107 0.985 . S
H1112 N1106 0.984 . S
H1113 N1106 0.984 . S
H1114 N1102 0.984 . S
H1115 N1102 0.985 . S
C1116 C1117 1.363 . S
C1116 C1122 1.379 1_554 S
C1116 N1124 1.356 . S
C1117 C1116 1.363 . S
C1117 C1123 1.363 1_455 S
C1118 C1119 1.363 1_655 S
C1118 C1123 1.379 1_556 S
C1118 N1125 1.356 . S
C1119 C1118 1.363 1_455 S
C1119 C1122 1.363 . S
N1120 C1122 1.356 . S
N1120 H1132 0.984 . S
N1120 H1133 0.985 . S
N1121 C1123 1.356 . S
N1121 H1126 0.984 . S
N1121 H1127 0.985 . S
C1122 C1116 1.379 1_556 S
C1122 C1119 1.363 . S
C1122 N1120 1.356 . S
C1123 C1117 1.363 1_655 S
C1123 C1118 1.379 1_554 S
C1123 N1121 1.356 . S
N1124 C1116 1.356 . S
N1124 H1130 0.984 . S
N1124 H1131 0.984 . S
N1125 C1118 1.356 . S
N1125 H1128 0.984 . S
N1125 H1129 0.985 . S
H1126 N1121 0.984 . S
H1127 N1121 0.985 . S
H1128 N1125 0.984 . S
H1129 N1125 0.985 . S
H1130 N1124 0.984 . S
H1131 N1124 0.984 . S
H1132 N1120 0.984 . S
H1133 N1120 0.985 . S
C1134 C1135 1.363 1_565 S
C1134 C1140 1.379 . S
C1134 N1142 1.356 . S
C1135 C1134 1.363 1_545 S
C1135 C1141 1.363 . S
C1136 C1137 1.363 . S
C1136 C1141 1.379 . S
C1136 N1143 1.356 . S
C1137 C1136 1.363 . S
C1137 C1140 1.363 1_545 S
N1138 C1140 1.356 . S
N1138 H1150 0.984 . S
N1138 H1151 0.985 . S
N1139 C1141 1.356 . S
N1139 H1144 0.984 . S
N1139 H1145 0.985 . S
C1140 C1134 1.379 . S
C1140 C1137 1.363 1_565 S
C1140 N1138 1.356 . S
C1141 C1135 1.363 . S
C1141 C1136 1.379 . S
C1141 N1139 1.356 . S
N1142 C1134 1.356 . S
N1142 H1148 0.984 . S
N1142 H1149 0.984 . S
N1143 C1136 1.356 . S
N1143 H1146 0.984 . S
N1143 H1147 0.985 . S
H1144 N1139 0.984 . S
H1145 N1139 0.985 . S
H1146 N1143 0.984 . S
H1147 N1143 0.985 . S
H1148 N1142 0.984 . S
H1149 N1142 0.984 . S
H1150 N1138 0.984 . S
H1151 N1138 0.985 . S
C577 C3 1.367 . S
C579 C255 1.367 . S
C595 C39 1.367 . S
C597 C147 1.367 . S
C613 C75 1.367 . S
C615 C183 1.367 . S
C631 C111 1.367 . S
C633 C219 1.367 . S
C649 C291 1.367 . S
C651 C543 1.367 . S
C667 C435 1.367 . S
C669 C327 1.367 . S
C685 C363 1.367 . S
C687 C471 1.367 . S
C703 C399 1.367 . S
C705 C507 1.367 . S
C721 C4 1.425 . S
C723 C326 1.493 . S
C739 C40 1.425 . S
C741 C362 1.493 . S
C757 C398 1.493 . S
C759 C76 1.425 . S
C775 C112 1.425 . S
C777 C290 1.493 . S
C793 C148 1.425 . S
C795 C542 1.493 . S
C811 C434 1.493 . S
C813 C184 1.425 . S
C829 C470 1.493 . S
C831 C220 1.425 . S
C847 C506 1.493 . S
C849 C256 1.425 . S
C865 C38 1.493 . S
C867 C292 1.425 . S
C883 C74 1.493 . S
C885 C328 1.425 . S
C901 C364 1.425 . S
C903 C110 1.493 . S
C919 C2 1.493 . S
C921 C400 1.425 . S
C937 C436 1.425 . S
C939 C254 1.493 . S
C955 C472 1.425 . S
C957 C146 1.493 . S
C973 C182 1.493 . S
C975 C508 1.425 . S
C991 C218 1.493 . S
C993 C544 1.425 . S
C1009 C14 1.490 . S
C1011 C158 1.490 . S
C1027 C194 1.490 . S
C1029 C50 1.490 . S
C1045 C86 1.490 . S
C1047 C230 1.490 . S
C1063 C266 1.490 . S
C1065 C122 1.490 . S
C1081 C302 1.490 . S
C1083 C446 1.490 . S
C1099 C482 1.490 . S
C1101 C338 1.490 . S
C1117 C518 1.490 . S
C1119 C374 1.490 . S
C1135 C554 1.490 . S
C1137 C410 1.490 . S
