# Generated by pormake.
# Topology pcb, (4)-cn, num edge types: 1
# Building blocks:
#     Node 0, Type 0, BuildingBlock: CEKHIL_clean_sbu_0, # of connection points: 4
#     Node 1, Type 0, BuildingBlock: CEKHIL_clean_sbu_0, # of connection points: 4
#     Node 2, Type 0, BuildingBlock: CEKHIL_clean_sbu_0, # of connection points: 4
#     Node 3, Type 0, BuildingBlock: CEKHIL_clean_sbu_0, # of connection points: 4
#     Node 4, Type 0, BuildingBlock: CEKHIL_clean_sbu_0, # of connection points: 4
#     Node 5, Type 0, BuildingBlock: CEKHIL_clean_sbu_0, # of connection points: 4
#     Node 6, Type 0, BuildingBlock: CEKHIL_clean_sbu_0, # of connection points: 4
#     Node 7, Type 0, BuildingBlock: CEKHIL_clean_sbu_0, # of connection points: 4
#     Node 8, Type 0, BuildingBlock: CEKHIL_clean_sbu_0, # of connection points: 4
#     Node 9, Type 0, BuildingBlock: CEKHIL_clean_sbu_0, # of connection points: 4
#     Node 10, Type 0, BuildingBlock: CEKHIL_clean_sbu_0, # of connection points: 4
#     Node 11, Type 0, BuildingBlock: CEKHIL_clean_sbu_0, # of connection points: 4
#     Node 12, Type 0, BuildingBlock: CEKHIL_clean_sbu_0, # of connection points: 4
#     Node 13, Type 0, BuildingBlock: CEKHIL_clean_sbu_0, # of connection points: 4
#     Node 14, Type 0, BuildingBlock: CEKHIL_clean_sbu_0, # of connection points: 4
#     Node 15, Type 0, BuildingBlock: CEKHIL_clean_sbu_0, # of connection points: 4
#     Edge 16, Type (0, 0), BuildingBlock: MIFKUJ_clean_linker_0, # of connection points: 2
#     Edge 17, Type (0, 0), BuildingBlock: MIFKUJ_clean_linker_0, # of connection points: 2
#     Edge 18, Type (0, 0), BuildingBlock: MIFKUJ_clean_linker_0, # of connection points: 2
#     Edge 19, Type (0, 0), BuildingBlock: MIFKUJ_clean_linker_0, # of connection points: 2
#     Edge 20, Type (0, 0), BuildingBlock: MIFKUJ_clean_linker_0, # of connection points: 2
#     Edge 21, Type (0, 0), BuildingBlock: MIFKUJ_clean_linker_0, # of connection points: 2
#     Edge 22, Type (0, 0), BuildingBlock: MIFKUJ_clean_linker_0, # of connection points: 2
#     Edge 23, Type (0, 0), BuildingBlock: MIFKUJ_clean_linker_0, # of connection points: 2
#     Edge 24, Type (0, 0), BuildingBlock: MIFKUJ_clean_linker_0, # of connection points: 2
#     Edge 25, Type (0, 0), BuildingBlock: MIFKUJ_clean_linker_0, # of connection points: 2
#     Edge 26, Type (0, 0), BuildingBlock: MIFKUJ_clean_linker_0, # of connection points: 2
#     Edge 27, Type (0, 0), BuildingBlock: MIFKUJ_clean_linker_0, # of connection points: 2
#     Edge 28, Type (0, 0), BuildingBlock: MIFKUJ_clean_linker_0, # of connection points: 2
#     Edge 29, Type (0, 0), BuildingBlock: MIFKUJ_clean_linker_0, # of connection points: 2
#     Edge 30, Type (0, 0), BuildingBlock: MIFKUJ_clean_linker_0, # of connection points: 2
#     Edge 31, Type (0, 0), BuildingBlock: MIFKUJ_clean_linker_0, # of connection points: 2
#     Edge 32, Type (0, 0), BuildingBlock: MIFKUJ_clean_linker_0, # of connection points: 2
#     Edge 33, Type (0, 0), BuildingBlock: MIFKUJ_clean_linker_0, # of connection points: 2
#     Edge 34, Type (0, 0), BuildingBlock: MIFKUJ_clean_linker_0, # of connection points: 2
#     Edge 35, Type (0, 0), BuildingBlock: MIFKUJ_clean_linker_0, # of connection points: 2
#     Edge 36, Type (0, 0), BuildingBlock: MIFKUJ_clean_linker_0, # of connection points: 2
#     Edge 37, Type (0, 0), BuildingBlock: MIFKUJ_clean_linker_0, # of connection points: 2
#     Edge 38, Type (0, 0), BuildingBlock: MIFKUJ_clean_linker_0, # of connection points: 2
#     Edge 39, Type (0, 0), BuildingBlock: MIFKUJ_clean_linker_0, # of connection points: 2
#     Edge 40, Type (0, 0), BuildingBlock: MIFKUJ_clean_linker_0, # of connection points: 2
#     Edge 41, Type (0, 0), BuildingBlock: MIFKUJ_clean_linker_0, # of connection points: 2
#     Edge 42, Type (0, 0), BuildingBlock: MIFKUJ_clean_linker_0, # of connection points: 2
#     Edge 43, Type (0, 0), BuildingBlock: MIFKUJ_clean_linker_0, # of connection points: 2
#     Edge 44, Type (0, 0), BuildingBlock: MIFKUJ_clean_linker_0, # of connection points: 2
#     Edge 45, Type (0, 0), BuildingBlock: MIFKUJ_clean_linker_0, # of connection points: 2
#     Edge 46, Type (0, 0), BuildingBlock: MIFKUJ_clean_linker_0, # of connection points: 2
#     Edge 47, Type (0, 0), BuildingBlock: MIFKUJ_clean_linker_0, # of connection points: 2
# Relax obj value: 0.237
# Max RMSD: 0.082
# Mean RMSD: 0.082
data_MOF--net-pcb--node1-CEKHIL_clean_sbu_0--edge1-MIFKUJ_clean_linker_0
_symmetry_space_group_name_H-M    P1
_symmetry_Int_Tables_number       1
_symmetry_cell_setting            triclinic
loop_
_symmetry_equiv_pos_as_xyz
'x, y, z'
_cell_length_a     73.395758
_cell_length_b     47.819844
_cell_length_c     47.823652
_cell_angle_alpha  89.990476
_cell_angle_beta   90.029126
_cell_angle_gamma 89.980642
loop_
_atom_site_label
_atom_site_type_symbol
_atom_site_fract_x
_atom_site_fract_y
_atom_site_fract_z
_atom_type_partial_charge
Co0 Co 0.13574 0.19366 0.19562 0.0
O1 O 0.16174 0.19088 0.19104 0.0
O2 O 0.14751 0.22728 0.20947 0.0
C3 C 0.13213 0.15043 0.21382 0.0
O4 O 0.10907 0.20365 0.20417 0.0
Co5 Co 0.10987 0.15298 0.16355 0.0
O6 O 0.09075 0.16982 0.18713 0.0
C7 C 0.12642 0.20102 0.13397 0.0
C8 C 0.1628 0.21546 0.20235 0.0
C9 C 0.09327 0.19225 0.20091 0.0
O10 O 0.13363 0.2101 0.15678 0.0
O11 O 0.11738 0.1782 0.1322 0.0
O12 O 0.13708 0.17105 0.22978 0.0
O13 O 0.13092 0.1561 0.18753 0.0
Co14 Co 0.86818 0.19793 0.19037 0.0
O15 O 0.84215 0.19407 0.19032 0.0
O16 O 0.85805 0.21237 0.22509 0.0
C17 C 0.86984 0.2155 0.1465 0.0
O18 O 0.89534 0.20583 0.19694 0.0
Co19 Co 0.89125 0.16462 0.14679 0.0
O20 O 0.91087 0.19008 0.15946 0.0
C21 C 0.87364 0.13556 0.19421 0.0
C22 C 0.8422 0.20559 0.21483 0.0
C23 C 0.91011 0.20359 0.18242 0.0
O24 O 0.87056 0.15899 0.20664 0.0
O25 O 0.88 0.13381 0.16933 0.0
O26 O 0.86625 0.23201 0.16737 0.0
O27 O 0.87096 0.18937 0.15268 0.0
Co28 Co 0.87052 0.80681 0.1962 0.0
O29 O 0.84468 0.80742 0.18947 0.0
O30 O 0.8593 0.77285 0.21051 0.0
C31 C 0.87177 0.85107 0.21277 0.0
O32 O 0.89715 0.79936 0.20721 0.0
Co33 Co 0.89649 0.84862 0.16615 0.0
O34 O 0.91364 0.83746 0.19611 0.0
C35 C 0.88205 0.79909 0.13572 0.0
C36 C 0.84393 0.78332 0.2018 0.0
C37 C 0.91191 0.81399 0.20839 0.0
O38 O 0.87458 0.78941 0.15812 0.0
O39 O 0.89026 0.82271 0.13464 0.0
O40 O 0.86732 0.83066 0.22936 0.0
O41 O 0.87424 0.84427 0.187 0.0
Co42 Co 0.13771 0.80478 0.18655 0.0
O43 O 0.16349 0.81178 0.184 0.0
O44 O 0.14972 0.79448 0.22128 0.0
C45 C 0.13559 0.78354 0.14447 0.0
O46 O 0.11136 0.7941 0.19642 0.0
Co47 Co 0.11061 0.83018 0.14326 0.0
O48 O 0.09383 0.80161 0.15853 0.0
C49 C 0.12558 0.86554 0.1889 0.0
C50 C 0.16485 0.80202 0.20921 0.0
C51 C 0.09618 0.79168 0.18297 0.0
O52 O 0.13346 0.84428 0.20026 0.0
O53 O 0.11702 0.86425 0.16557 0.0
O54 O 0.14095 0.76941 0.16618 0.0
O55 O 0.13299 0.80986 0.14852 0.0
Co56 Co 0.13416 0.81063 0.80153 0.0
O57 O 0.16 0.81321 0.80717 0.0
O58 O 0.14598 0.7758 0.79053 0.0
C59 C 0.13189 0.8529 0.78081 0.0
O60 O 0.10748 0.80146 0.79181 0.0
Co61 Co 0.1083 0.85402 0.82961 0.0
O62 O 0.09105 0.84019 0.80098 0.0
C63 C 0.1236 0.80737 0.86304 0.0
C64 C 0.1612 0.78813 0.79717 0.0
C65 C 0.09268 0.81601 0.7901 0.0
O66 O 0.13076 0.79643 0.84101 0.0
O67 O 0.11521 0.83087 0.86291 0.0
O68 O 0.13681 0.83125 0.76627 0.0
O69 O 0.12983 0.84871 0.80724 0.0
Co70 Co 0.13983 0.1993 0.80508 0.0
O71 O 0.16572 0.19373 0.80684 0.0
O72 O 0.15113 0.2106 0.77007 0.0
C73 C 0.13805 0.21986 0.84736 0.0
O74 O 0.11312 0.20894 0.79626 0.0
Co75 Co 0.11395 0.17173 0.84812 0.0
O76 O 0.09664 0.20057 0.83499 0.0
C77 C 0.12858 0.13818 0.80115 0.0
C78 C 0.16656 0.20384 0.78175 0.0
C79 C 0.09834 0.21111 0.81071 0.0
O80 O 0.13647 0.1599 0.79086 0.0
O81 O 0.11965 0.1384 0.82416 0.0
O82 O 0.14257 0.23446 0.82556 0.0
O83 O 0.13596 0.19337 0.84341 0.0
Co84 Co 0.87221 0.18754 0.80004 0.0
O85 O 0.84629 0.18448 0.80466 0.0
O86 O 0.86029 0.22185 0.78796 0.0
C87 C 0.87567 0.14512 0.77991 0.0
O88 O 0.89887 0.1975 0.79176 0.0
Co89 Co 0.89792 0.14516 0.8301 0.0
O90 O 0.91614 0.16034 0.80356 0.0
C91 C 0.87899 0.18922 0.86238 0.0
C92 C 0.84505 0.20956 0.7946 0.0
C93 C 0.91415 0.18409 0.79187 0.0
O94 O 0.87444 0.20193 0.83966 0.0
O95 O 0.88686 0.1653 0.86274 0.0
O96 O 0.87073 0.16642 0.76481 0.0
O97 O 0.87695 0.14979 0.80635 0.0
Co98 Co 0.86581 0.8003 0.81024 0.0
O99 O 0.83986 0.80528 0.80942 0.0
O100 O 0.85598 0.7874 0.77466 0.0
C101 C 0.86676 0.78096 0.85333 0.0
O102 O 0.89302 0.7918 0.8046 0.0
Co103 Co 0.88815 0.83232 0.85571 0.0
O104 O 0.90793 0.80721 0.84284 0.0
C105 C 0.87226 0.86273 0.80791 0.0
C106 C 0.84012 0.79463 0.78453 0.0
C107 C 0.90757 0.79399 0.81968 0.0
O108 O 0.86908 0.83952 0.79518 0.0
O109 O 0.878 0.8641 0.83317 0.0
O110 O 0.86297 0.76552 0.83176 0.0
O111 O 0.86816 0.80735 0.84839 0.0
Co112 Co 0.63576 0.68276 0.69549 0.0
O113 O 0.66152 0.6814 0.68839 0.0
O114 O 0.64721 0.71777 0.70656 0.0
C115 C 0.63443 0.64016 0.71585 0.0
O116 O 0.60919 0.69091 0.70654 0.0
Co117 Co 0.60998 0.6387 0.66823 0.0
O118 O 0.59287 0.65208 0.69729 0.0
C119 C 0.6244 0.68569 0.63433 0.0
C120 C 0.66251 0.7064 0.69871 0.0
C121 C 0.59449 0.67615 0.70843 0.0
O122 O 0.63129 0.69726 0.65628 0.0
O123 O 0.61668 0.66166 0.63475 0.0
O124 O 0.63939 0.66179 0.73041 0.0
O125 O 0.63187 0.64466 0.68958 0.0
Co126 Co 0.36819 0.69926 0.69157 0.0
O127 O 0.3422 0.69628 0.68874 0.0
O128 O 0.3567 0.71134 0.72634 0.0
C129 C 0.37173 0.71973 0.64931 0.0
O130 O 0.39521 0.70588 0.70086 0.0
Co131 Co 0.39225 0.66772 0.64793 0.0
O132 O 0.41134 0.69288 0.6629 0.0
C133 C 0.37344 0.63641 0.69263 0.0
C134 C 0.34126 0.70598 0.71396 0.0
C135 C 0.41021 0.70471 0.68673 0.0
O136 O 0.36961 0.65934 0.70549 0.0
O137 O 0.38081 0.63563 0.66838 0.0
O138 O 0.36742 0.73487 0.67087 0.0
O139 O 0.37232 0.6932 0.65372 0.0
Co140 Co 0.37225 0.31164 0.69639 0.0
O141 O 0.3467 0.31471 0.68831 0.0
O142 O 0.35971 0.27731 0.70672 0.0
C143 C 0.3742 0.35412 0.71697 0.0
O144 O 0.39832 0.30152 0.70821 0.0
Co145 Co 0.3999 0.354 0.67112 0.0
O146 O 0.41612 0.33907 0.70065 0.0
C147 C 0.38502 0.30809 0.63605 0.0
C148 C 0.34487 0.28969 0.69829 0.0
C149 C 0.41351 0.31484 0.71096 0.0
O150 O 0.37695 0.29717 0.65736 0.0
O151 O 0.39366 0.33133 0.63714 0.0
O152 O 0.36866 0.33264 0.73127 0.0
O153 O 0.37722 0.34954 0.69083 0.0
Co154 Co 0.63791 0.29705 0.69099 0.0
O155 O 0.6637 0.30404 0.68842 0.0
O156 O 0.65001 0.28541 0.72515 0.0
C157 C 0.63539 0.27729 0.6483 0.0
O158 O 0.61165 0.28604 0.70092 0.0
Co159 Co 0.61073 0.32457 0.6489 0.0
O160 O 0.59318 0.29771 0.66509 0.0
C161 C 0.62635 0.35797 0.69545 0.0
C162 C 0.66509 0.29335 0.71325 0.0
C163 C 0.59608 0.28564 0.68838 0.0
O164 O 0.63388 0.33608 0.70616 0.0
O165 O 0.61784 0.35774 0.67205 0.0
O166 O 0.64094 0.2624 0.66934 0.0
O167 O 0.63292 0.3035 0.65319 0.0
Co168 Co 0.63534 0.3102 0.30013 0.0
O169 O 0.66086 0.31369 0.30844 0.0
O170 O 0.64831 0.27677 0.28835 0.0
C171 C 0.6328 0.35337 0.28136 0.0
O172 O 0.60941 0.29971 0.28774 0.0
Co173 Co 0.60679 0.35019 0.32666 0.0
O174 O 0.59145 0.33703 0.29532 0.0
C175 C 0.62143 0.30254 0.35954 0.0
C176 C 0.66298 0.28917 0.29738 0.0
C177 C 0.59427 0.31309 0.28454 0.0
O178 O 0.63087 0.29395 0.33853 0.0
O179 O 0.61167 0.32476 0.35917 0.0
O180 O 0.63866 0.33268 0.26622 0.0
O181 O 0.62977 0.34767 0.3073 0.0
Co182 Co 0.63669 0.6979 0.31096 0.0
O183 O 0.66269 0.69578 0.31528 0.0
O184 O 0.6488 0.7106 0.27704 0.0
C185 C 0.63149 0.71797 0.35307 0.0
O186 O 0.60993 0.70356 0.29965 0.0
Co187 Co 0.61188 0.66509 0.35279 0.0
O188 O 0.59187 0.68407 0.3326 0.0
C189 C 0.63228 0.63485 0.30902 0.0
C190 C 0.66404 0.70551 0.29008 0.0
C191 C 0.59412 0.69795 0.31012 0.0
O192 O 0.63623 0.65803 0.29667 0.0
O193 O 0.62444 0.63373 0.33291 0.0
O194 O 0.63631 0.73338 0.33195 0.0
O195 O 0.63148 0.69145 0.34851 0.0
Co196 Co 0.3674 0.68941 0.30722 0.0
O197 O 0.34146 0.69122 0.31186 0.0
O198 O 0.35807 0.72502 0.29335 0.0
C199 C 0.36699 0.64571 0.28911 0.0
O200 O 0.39471 0.69411 0.29864 0.0
Co201 Co 0.38964 0.64363 0.33847 0.0
O202 O 0.40921 0.65493 0.31237 0.0
C203 C 0.37498 0.69256 0.36934 0.0
C204 C 0.34204 0.71577 0.30051 0.0
C205 C 0.40904 0.67843 0.29979 0.0
O206 O 0.37074 0.70493 0.34628 0.0
O207 O 0.38114 0.6675 0.37032 0.0
O208 O 0.36437 0.66715 0.27291 0.0
O209 O 0.36882 0.65132 0.31528 0.0
Co210 Co 0.36993 0.30069 0.31067 0.0
O211 O 0.34411 0.30579 0.31464 0.0
O212 O 0.35736 0.28831 0.27701 0.0
C213 C 0.37384 0.28124 0.3533 0.0
O214 O 0.39638 0.29158 0.30005 0.0
Co215 Co 0.39644 0.33114 0.35161 0.0
O216 O 0.41415 0.30369 0.33659 0.0
C217 C 0.37741 0.36283 0.30724 0.0
C218 C 0.34236 0.2952 0.28986 0.0
C219 C 0.41175 0.29151 0.31318 0.0
O220 O 0.37234 0.33995 0.29536 0.0
O221 O 0.38557 0.36362 0.33092 0.0
O222 O 0.36845 0.26589 0.33247 0.0
O223 O 0.37528 0.30758 0.34813 0.0
H224 H 0.33323 0.2751 0.23767 0.0
H225 H 0.30248 0.26493 0.21997 0.0
H226 H 0.27941 0.29366 0.29776 0.0
H227 H 0.3098 0.30386 0.31542 0.0
H228 H 0.26542 0.24369 0.28267 0.0
H229 H 0.27554 0.33295 0.24093 0.0
H230 H 0.2918 0.36842 0.21311 0.0
H231 H 0.2868 0.31703 0.13988 0.0
H232 H 0.27074 0.28101 0.1674 0.0
H233 H 0.17175 0.2533 0.24302 0.0
H234 H 0.20242 0.26997 0.25519 0.0
H235 H 0.22489 0.22372 0.18595 0.0
H236 H 0.19443 0.20631 0.17422 0.0
H237 H 0.23898 0.28298 0.19557 0.0
H238 H 0.22961 0.19291 0.2397 0.0
H239 H 0.21265 0.15907 0.26858 0.0
H240 H 0.21572 0.21477 0.33884 0.0
H241 H 0.23245 0.24917 0.31018 0.0
C242 C 0.32158 0.27942 0.25087 0.0
C243 C 0.32398 0.29025 0.27795 0.0
C244 C 0.30402 0.27367 0.24073 0.0
C245 C 0.28863 0.27856 0.25756 0.0
C246 C 0.29105 0.28963 0.28444 0.0
C247 C 0.30849 0.29553 0.29446 0.0
C248 C 0.26997 0.27134 0.24776 0.0
C249 C 0.25962 0.25255 0.26377 0.0
C250 C 0.26242 0.28259 0.22293 0.0
C251 C 0.27213 0.30412 0.20631 0.0
C252 C 0.27807 0.32907 0.21896 0.0
C253 C 0.28722 0.34931 0.20324 0.0
C254 C 0.29039 0.34494 0.17477 0.0
C255 C 0.28437 0.32035 0.16195 0.0
C256 C 0.27523 0.30002 0.1776 0.0
C257 C 0.1832 0.24705 0.23017 0.0
C258 C 0.18075 0.22843 0.20777 0.0
C259 C 0.20068 0.25654 0.23715 0.0
C260 C 0.21588 0.24802 0.22145 0.0
C261 C 0.21332 0.23058 0.19823 0.0
C262 C 0.19594 0.22058 0.19166 0.0
C263 C 0.23458 0.25548 0.23055 0.0
C264 C 0.24489 0.2742 0.21443 0.0
C265 C 0.24208 0.2444 0.25542 0.0
C266 C 0.23206 0.22376 0.2727 0.0
C267 C 0.22649 0.19808 0.26121 0.0
C268 C 0.21696 0.17877 0.27756 0.0
C269 C 0.21305 0.18481 0.3055 0.0
C270 C 0.21872 0.21015 0.31717 0.0
C271 C 0.22823 0.22956 0.30089 0.0
H272 H 0.20568 0.16983 0.31813 0.0
H273 H 0.29746 0.36064 0.16262 0.0
H274 H 0.6946 0.30865 0.31976 0.0
H275 H 0.7255 0.29217 0.31097 0.0
H276 H 0.70444 0.2266 0.25815 0.0
H277 H 0.67325 0.24278 0.26731 0.0
H278 H 0.73261 0.20794 0.28988 0.0
H279 H 0.72125 0.28644 0.22987 0.0
H280 H 0.71199 0.33472 0.21857 0.0
H281 H 0.7548 0.36673 0.27073 0.0
H282 H 0.76416 0.31861 0.28267 0.0
H283 H 0.80923 0.18256 0.20365 0.0
H284 H 0.77978 0.1947 0.22383 0.0
H285 H 0.80589 0.25427 0.27841 0.0
H286 H 0.83568 0.242 0.25823 0.0
H287 H 0.7761 0.27631 0.24941 0.0
H288 H 0.78884 0.19653 0.30615 0.0
H289 H 0.79797 0.14787 0.31583 0.0
H290 H 0.75254 0.11779 0.2679 0.0
H291 H 0.74328 0.1663 0.25758 0.0
C292 C 0.69648 0.29054 0.30646 0.0
C293 C 0.68146 0.27715 0.29402 0.0
C294 C 0.71419 0.28121 0.30138 0.0
C295 C 0.71734 0.25848 0.28347 0.0
C296 C 0.70234 0.24427 0.27195 0.0
C297 C 0.68453 0.25354 0.27717 0.0
C298 C 0.7363 0.25038 0.27596 0.0
C299 C 0.74206 0.22281 0.28078 0.0
C300 C 0.7488 0.26995 0.26468 0.0
C301 C 0.74328 0.29892 0.2574 0.0
C302 C 0.7286 0.30378 0.2391 0.0
C303 C 0.72335 0.33111 0.23255 0.0
C304 C 0.73277 0.35378 0.24398 0.0
C305 C 0.7475 0.34915 0.26193 0.0
C306 C 0.75279 0.32185 0.26858 0.0
C307 C 0.80878 0.19803 0.22019 0.0
C308 C 0.82478 0.21136 0.22935 0.0
C309 C 0.79192 0.20485 0.23179 0.0
C310 C 0.79062 0.22526 0.25274 0.0
C311 C 0.8066 0.23838 0.2623 0.0
C312 C 0.8236 0.23128 0.25088 0.0
C313 C 0.7724 0.23385 0.26323 0.0
C314 C 0.76673 0.26152 0.25883 0.0
C315 C 0.75997 0.21431 0.27468 0.0
C316 C 0.76545 0.18508 0.28091 0.0
C317 C 0.78088 0.17955 0.29748 0.0
C318 C 0.78606 0.15199 0.30312 0.0
C319 C 0.77586 0.12975 0.29244 0.0
C320 C 0.76043 0.13504 0.27614 0.0
C321 C 0.75519 0.16257 0.27042 0.0
H322 H 0.77989 0.10843 0.29683 0.0
H323 H 0.72869 0.37492 0.23887 0.0
H324 H 0.83434 0.74812 0.24452 0.0
H325 H 0.80367 0.73152 0.25597 0.0
H326 H 0.7828 0.77083 0.18123 0.0
H327 H 0.81319 0.78867 0.17072 0.0
H328 H 0.76165 0.78332 0.22055 0.0
H329 H 0.78725 0.69577 0.19136 0.0
H330 H 0.80956 0.65719 0.19084 0.0
H331 H 0.79889 0.64079 0.27758 0.0
H332 H 0.77668 0.6795 0.27872 0.0
H333 H 0.67221 0.72619 0.23777 0.0
H334 H 0.7026 0.7358 0.21853 0.0
H335 H 0.72716 0.70672 0.29518 0.0
H336 H 0.6971 0.6967 0.31419 0.0
H337 H 0.7457 0.68746 0.25147 0.0
H338 H 0.72166 0.77726 0.28059 0.0
H339 H 0.69929 0.81577 0.28069 0.0
H340 H 0.70701 0.82722 0.19242 0.0
H341 H 0.72927 0.78854 0.19176 0.0
C342 C 0.82323 0.75278 0.23035 0.0
C343 C 0.82613 0.76968 0.20676 0.0
C344 C 0.80568 0.7432 0.23682 0.0
C345 C 0.79079 0.74964 0.21935 0.0
C346 C 0.79393 0.76564 0.19518 0.0
C347 C 0.81135 0.77573 0.1891 0.0
C348 C 0.77179 0.74147 0.22708 0.0
C349 C 0.75816 0.76217 0.22676 0.0
C350 C 0.76712 0.71407 0.23584 0.0
C351 C 0.78041 0.69069 0.23517 0.0
C352 C 0.78975 0.68406 0.21037 0.0
C353 C 0.80236 0.66214 0.20996 0.0
C354 C 0.80567 0.64659 0.23418 0.0
C355 C 0.79633 0.65287 0.25884 0.0
C356 C 0.78371 0.67477 0.25937 0.0
C357 C 0.68411 0.72176 0.25042 0.0
C358 C 0.68221 0.7108 0.27755 0.0
C359 C 0.70147 0.72733 0.23946 0.0
C360 C 0.71721 0.72223 0.25551 0.0
C361 C 0.71528 0.7108 0.28235 0.0
C362 C 0.69802 0.70518 0.29324 0.0
C363 C 0.73574 0.72931 0.24492 0.0
C364 C 0.74924 0.70847 0.24485 0.0
C365 C 0.7403 0.75652 0.23564 0.0
C366 C 0.72697 0.77983 0.23608 0.0
C367 C 0.71849 0.78787 0.26118 0.0
C368 C 0.70584 0.80974 0.26134 0.0
C369 C 0.70169 0.82388 0.23656 0.0
C370 C 0.71021 0.81622 0.21159 0.0
C371 C 0.72285 0.79434 0.21131 0.0
H372 H 0.6919 0.84081 0.23673 0.0
H373 H 0.81544 0.62964 0.23382 0.0
H374 H 0.3099 0.70935 0.32748 0.0
H375 H 0.28035 0.72891 0.31495 0.0
H376 H 0.30531 0.77542 0.24783 0.0
H377 H 0.33527 0.75638 0.26099 0.0
H378 H 0.27834 0.80552 0.27178 0.0
H379 H 0.28413 0.71284 0.23521 0.0
H380 H 0.29045 0.66221 0.23688 0.0
H381 H 0.24697 0.65091 0.29585 0.0
H382 H 0.24056 0.70155 0.29484 0.0
H383 H 0.19771 0.81969 0.18949 0.0
H384 H 0.2279 0.80965 0.20834 0.0
H385 H 0.2035 0.7653 0.27735 0.0
H386 H 0.17309 0.77512 0.25837 0.0
H387 H 0.23026 0.7351 0.25267 0.0
H388 H 0.22395 0.8289 0.28704 0.0
H389 H 0.21775 0.87944 0.28332 0.0
H390 H 0.26222 0.88853 0.22574 0.0
H391 H 0.26854 0.83795 0.22881 0.0
C392 C 0.30917 0.72406 0.31028 0.0
C393 C 0.32488 0.73112 0.29501 0.0
C394 C 0.29223 0.73514 0.30305 0.0
C395 C 0.29048 0.75306 0.27997 0.0
C396 C 0.30629 0.76146 0.26561 0.0
C397 C 0.3234 0.75061 0.27313 0.0
C398 C 0.27202 0.76159 0.27012 0.0
C399 C 0.26789 0.79012 0.26728 0.0
C400 C 0.25824 0.74154 0.26462 0.0
C401 C 0.26198 0.71103 0.26514 0.0
C402 C 0.276 0.69958 0.24868 0.0
C403 C 0.27959 0.67088 0.24949 0.0
C404 C 0.26915 0.65337 0.26651 0.0
C405 C 0.25506 0.66451 0.2827 0.0
C406 C 0.25144 0.69321 0.282 0.0
C407 C 0.19871 0.80808 0.20888 0.0
C408 C 0.18297 0.79817 0.22243 0.0
C409 C 0.21602 0.80247 0.21971 0.0
C410 C 0.21801 0.78689 0.24439 0.0
C411 C 0.2023 0.77741 0.2583 0.0
C412 C 0.18493 0.78313 0.2475 0.0
C413 C 0.23649 0.77904 0.25462 0.0
C414 C 0.24066 0.75054 0.25735 0.0
C415 C 0.2503 0.79912 0.2597 0.0
C416 C 0.24662 0.82958 0.25798 0.0
C417 C 0.23232 0.84163 0.27342 0.0
C418 C 0.2288 0.8703 0.27146 0.0
C419 C 0.23956 0.88718 0.25426 0.0
C420 C 0.25389 0.87543 0.23904 0.0
C421 C 0.25746 0.84677 0.24091 0.0
H422 H 0.23681 0.90936 0.25276 0.0
H423 H 0.27195 0.63115 0.26711 0.0
H424 H 0.30872 0.70802 0.6874 0.0
H425 H 0.27889 0.71791 0.70684 0.0
H426 H 0.30251 0.72488 0.78923 0.0
H427 H 0.33289 0.71611 0.76937 0.0
H428 H 0.25739 0.69398 0.73999 0.0
H429 H 0.27712 0.76975 0.82884 0.0
H430 H 0.3014 0.8034 0.84089 0.0
H431 H 0.31264 0.81612 0.75369 0.0
H432 H 0.28831 0.78282 0.74117 0.0
H433 H 0.17248 0.73344 0.80307 0.0
H434 H 0.20341 0.71513 0.79548 0.0
H435 H 0.22102 0.7972 0.76905 0.0
H436 H 0.1908 0.8156 0.7787 0.0
H437 H 0.24612 0.77869 0.79709 0.0
H438 H 0.2104 0.7368 0.72283 0.0
H439 H 0.18567 0.7081 0.70289 0.0
H440 H 0.20551 0.6362 0.74728 0.0
H441 H 0.23027 0.66457 0.7677 0.0
C442 C 0.30765 0.71164 0.7097 0.0
C443 C 0.32322 0.7114 0.72684 0.0
C444 C 0.29048 0.71715 0.72085 0.0
C445 C 0.2883 0.72229 0.74954 0.0
C446 C 0.3038 0.72145 0.76694 0.0
C447 C 0.32116 0.71636 0.75563 0.0
C448 C 0.2698 0.7293 0.76053 0.0
C449 C 0.25495 0.71247 0.75261 0.0
C450 C 0.26644 0.75347 0.77682 0.0
C451 C 0.28109 0.77351 0.78413 0.0
C452 C 0.28478 0.77976 0.81227 0.0
C453 C 0.29854 0.79877 0.81917 0.0
C454 C 0.30861 0.81179 0.79807 0.0
C455 C 0.30489 0.80592 0.77002 0.0
C456 C 0.29114 0.78696 0.76301 0.0
C457 C 0.18305 0.74741 0.79566 0.0
C458 C 0.17931 0.7759 0.79149 0.0
C459 C 0.20071 0.73696 0.79118 0.0
C460 C 0.21471 0.75464 0.78137 0.0
C461 C 0.21071 0.78304 0.77691 0.0
C462 C 0.19334 0.79356 0.78226 0.0
C463 C 0.23354 0.74414 0.7754 0.0
C464 C 0.2485 0.76007 0.78466 0.0
C465 C 0.23692 0.71988 0.75919 0.0
C466 C 0.22202 0.70286 0.74705 0.0
C467 C 0.2094 0.71491 0.72848 0.0
C468 C 0.1954 0.6987 0.71707 0.0
C469 C 0.19398 0.67037 0.72389 0.0
C470 C 0.2066 0.65816 0.74207 0.0
C471 C 0.22062 0.67429 0.75356 0.0
H472 H 0.18314 0.65785 0.71503 0.0
H473 H 0.31926 0.82649 0.80346 0.0
H474 H 0.19977 0.20209 0.80664 0.0
H475 H 0.22927 0.21412 0.78653 0.0
H476 H 0.20383 0.22914 0.7067 0.0
H477 H 0.17389 0.21769 0.72695 0.0
H478 H 0.24158 0.1939 0.71195 0.0
H479 H 0.21092 0.28258 0.72957 0.0
H480 H 0.19309 0.31504 0.75885 0.0
H481 H 0.23452 0.31213 0.82222 0.0
H482 H 0.25246 0.27928 0.79345 0.0
H483 H 0.31265 0.31208 0.68149 0.0
H484 H 0.28204 0.2944 0.68993 0.0
H485 H 0.30445 0.22159 0.73057 0.0
H486 H 0.3354 0.23925 0.7221 0.0
H487 H 0.26677 0.28588 0.74052 0.0
H488 H 0.27303 0.16713 0.72094 0.0
H489 H 0.29072 0.13446 0.69168 0.0
H490 H 0.29803 0.19853 0.62978 0.0
H491 H 0.28017 0.23146 0.65847 0.0
C492 C 0.20039 0.20765 0.78471 0.0
C493 C 0.18445 0.20902 0.76839 0.0
C494 C 0.21729 0.21448 0.77327 0.0
C495 C 0.21869 0.22243 0.74518 0.0
C496 C 0.20297 0.22289 0.72843 0.0
C497 C 0.18591 0.21648 0.74002 0.0
C498 C 0.23648 0.23215 0.7343 0.0
C499 C 0.24711 0.21406 0.71797 0.0
C500 C 0.24361 0.2584 0.74226 0.0
C501 C 0.23292 0.27827 0.7595 0.0
C502 C 0.21613 0.28865 0.74987 0.0
C503 C 0.20603 0.30716 0.76634 0.0
C504 C 0.21264 0.31558 0.79242 0.0
C505 C 0.2294 0.30556 0.80204 0.0
C506 C 0.23955 0.28701 0.78565 0.0
C507 C 0.31116 0.29213 0.69197 0.0
C508 C 0.3265 0.27713 0.70125 0.0
C509 C 0.29359 0.28209 0.69682 0.0
C510 C 0.29091 0.2567 0.71088 0.0
C511 C 0.30619 0.24114 0.71945 0.0
C512 C 0.32387 0.25127 0.71466 0.0
C513 C 0.27209 0.24767 0.71801 0.0
C514 C 0.26129 0.26582 0.73407 0.0
C515 C 0.26485 0.22153 0.70962 0.0
C516 C 0.27541 0.20183 0.69201 0.0
C517 C 0.27835 0.17421 0.70104 0.0
C518 C 0.28842 0.15565 0.68456 0.0
C519 C 0.29555 0.16444 0.65893 0.0
C520 C 0.29257 0.19178 0.64969 0.0
C521 C 0.2825 0.21041 0.66607 0.0
H522 H 0.30335 0.15005 0.64622 0.0
H523 H 0.20481 0.32992 0.80514 0.0
H524 H 0.81278 0.19283 0.81668 0.0
H525 H 0.78242 0.21066 0.80639 0.0
H526 H 0.80558 0.27277 0.7515 0.0
H527 H 0.8363 0.25537 0.76242 0.0
H528 H 0.77741 0.29437 0.78025 0.0
H529 H 0.78734 0.21213 0.72543 0.0
H530 H 0.79575 0.16297 0.71676 0.0
H531 H 0.75233 0.13552 0.77024 0.0
H532 H 0.74381 0.18456 0.77957 0.0
H533 H 0.69748 0.31612 0.69731 0.0
H534 H 0.72784 0.30536 0.71534 0.0
H535 H 0.70427 0.24924 0.77593 0.0
H536 H 0.67372 0.26011 0.75806 0.0
H537 H 0.73246 0.2253 0.74504 0.0
H538 H 0.722 0.30896 0.79783 0.0
H539 H 0.71375 0.35847 0.80461 0.0
H540 H 0.75829 0.38364 0.75216 0.0
H541 H 0.76666 0.33422 0.74473 0.0
C542 C 0.81148 0.21046 0.80258 0.0
C543 C 0.82694 0.22252 0.79012 0.0
C544 C 0.79407 0.22057 0.79664 0.0
C545 C 0.79164 0.24265 0.77765 0.0
C546 C 0.8071 0.2556 0.76609 0.0
C547 C 0.82464 0.24564 0.7723 0.0
C548 C 0.77292 0.25126 0.76918 0.0
C549 C 0.76766 0.27934 0.77223 0.0
C550 C 0.76004 0.23158 0.75913 0.0
C551 C 0.76504 0.20204 0.75341 0.0
C552 C 0.77966 0.19562 0.73551 0.0
C553 C 0.78444 0.16777 0.73045 0.0
C554 C 0.77461 0.14613 0.743 0.0
C555 C 0.75995 0.1523 0.76057 0.0
C556 C 0.75512 0.18012 0.76573 0.0
C557 C 0.69872 0.30176 0.71472 0.0
C558 C 0.6832 0.28893 0.72625 0.0
C559 C 0.71609 0.29571 0.72507 0.0
C560 C 0.71834 0.27657 0.74704 0.0
C561 C 0.70284 0.26411 0.75898 0.0
C562 C 0.6854 0.27043 0.74884 0.0
C563 C 0.73692 0.26833 0.75629 0.0
C564 C 0.74219 0.24031 0.75322 0.0
C565 C 0.74981 0.28811 0.766 0.0
C566 C 0.74485 0.31786 0.77051 0.0
C567 C 0.72995 0.32503 0.78754 0.0
C568 C 0.72526 0.35308 0.79154 0.0
C569 C 0.73546 0.37418 0.77877 0.0
C570 C 0.75039 0.36727 0.76202 0.0
C571 C 0.75512 0.33924 0.75793 0.0
H572 H 0.73181 0.39589 0.78189 0.0
H573 H 0.77833 0.12459 0.73904 0.0
H574 H 0.80924 0.82526 0.78909 0.0
H575 H 0.77932 0.81503 0.76937 0.0
H576 H 0.80154 0.74291 0.72719 0.0
H577 H 0.83187 0.75399 0.74597 0.0
H578 H 0.77636 0.76622 0.69542 0.0
H579 H 0.77888 0.73824 0.79198 0.0
H580 H 0.78423 0.74499 0.84246 0.0
H581 H 0.7431 0.80883 0.84462 0.0
H582 H 0.73767 0.80271 0.79406 0.0
H583 H 0.69573 0.68582 0.68415 0.0
H584 H 0.72561 0.70541 0.69419 0.0
H585 H 0.70031 0.77731 0.73241 0.0
H586 H 0.67011 0.75735 0.72287 0.0
H587 H 0.72656 0.75693 0.76493 0.0
H588 H 0.72253 0.78141 0.66797 0.0
H589 H 0.71725 0.77285 0.61778 0.0
H590 H 0.76111 0.71343 0.61656 0.0
H591 H 0.76651 0.72134 0.66685 0.0
C592 C 0.80781 0.80745 0.77525 0.0
C593 C 0.82283 0.79024 0.76926 0.0
C594 C 0.79066 0.80152 0.76412 0.0
C595 C 0.78799 0.77769 0.74746 0.0
C596 C 0.8032 0.76129 0.74017 0.0
C597 C 0.82053 0.76762 0.75087 0.0
C598 C 0.76922 0.7692 0.73898 0.0
C599 C 0.76552 0.76392 0.71066 0.0
C600 C 0.7549 0.76672 0.75873 0.0
C601 C 0.75799 0.77019 0.7892 0.0
C602 C 0.77105 0.75383 0.8032 0.0
C603 C 0.77409 0.75753 0.83182 0.0
C604 C 0.76404 0.77737 0.84672 0.0
C605 C 0.75089 0.79349 0.83304 0.0
C606 C 0.74781 0.7899 0.80441 0.0
C607 C 0.69645 0.70597 0.69441 0.0
C608 C 0.68049 0.72003 0.70271 0.0
C609 C 0.71361 0.71725 0.7 0.0
C610 C 0.71529 0.74305 0.71374 0.0
C611 C 0.69937 0.75742 0.72167 0.0
C612 C 0.68212 0.74606 0.71614 0.0
C613 C 0.73366 0.75393 0.72137 0.0
C614 C 0.73733 0.75951 0.74962 0.0
C615 C 0.74794 0.75643 0.70157 0.0
C616 C 0.74484 0.75184 0.67125 0.0
C617 C 0.73098 0.76639 0.65705 0.0
C618 C 0.72797 0.76167 0.62857 0.0
C619 C 0.73881 0.74258 0.614 0.0
C620 C 0.75272 0.72821 0.62787 0.0
C621 C 0.75578 0.73283 0.65636 0.0
H622 H 0.73646 0.73894 0.59196 0.0
H623 H 0.76642 0.78022 0.86887 0.0
H624 H 0.10955 0.23359 0.88083 0.0
H625 H 0.11094 0.24394 0.93112 0.0
H626 H 0.16963 0.23947 0.92822 0.0
H627 H 0.1682 0.22973 0.87784 0.0
H628 H 0.15339 0.20271 0.96642 0.0
H629 H 0.15265 0.29906 0.94396 0.0
H630 H 0.14232 0.3424 0.92103 0.0
H631 H 0.09044 0.33549 0.96187 0.0
H632 H 0.10035 0.29181 0.98473 0.0
H633 H 0.15813 0.22174 0.11289 0.0
H634 H 0.16312 0.23804 0.06472 0.0
H635 H 0.10547 0.23187 0.04844 0.0
H636 H 0.10055 0.21466 0.09607 0.0
H637 H 0.12563 0.28009 0.02094 0.0
H638 H 0.12444 0.1788 0.0332 0.0
H639 H 0.13418 0.13509 0.05614 0.0
H640 H 0.18973 0.15187 0.03351 0.0
H641 H 0.18031 0.19599 0.01084 0.0
C642 C 0.1227 0.23573 0.89087 0.0
C643 C 0.13878 0.23123 0.87574 0.0
C644 C 0.12352 0.24165 0.91949 0.0
C645 C 0.1404 0.24259 0.93331 0.0
C646 C 0.15649 0.23905 0.91787 0.0
C647 C 0.15568 0.23361 0.8892 0.0
C648 C 0.14105 0.24357 0.96423 0.0
C649 C 0.14775 0.21998 0.97832 0.0
C650 C 0.13333 0.26583 0.97971 0.0
C651 C 0.1272 0.29198 0.96587 0.0
C652 C 0.13897 0.3066 0.94784 0.0
C653 C 0.1332 0.33128 0.9349 0.0
C654 C 0.11572 0.34166 0.93994 0.0
C655 C 0.10397 0.3274 0.95797 0.0
C656 C 0.10967 0.30269 0.97095 0.0
C657 C 0.14651 0.22473 0.09924 0.0
C658 C 0.12899 0.21685 0.10792 0.0
C659 C 0.14936 0.23403 0.07183 0.0
C660 C 0.13464 0.23611 0.05314 0.0
C661 C 0.11695 0.23059 0.06264 0.0
C662 C 0.11417 0.22063 0.08973 0.0
C663 C 0.13786 0.23922 0.0228 0.0
C664 C 0.13171 0.26328 0.00891 0.0
C665 C 0.14603 0.21739 0.00734 0.0
C666 C 0.15172 0.19084 0.02072 0.0
C667 C 0.13875 0.17331 0.03339 0.0
C668 C 0.14421 0.14844 0.04629 0.0
C669 C 0.16258 0.14076 0.04638 0.0
C670 C 0.17552 0.1579 0.03349 0.0
C671 C 0.17013 0.18284 0.02063 0.0
H672 H 0.16678 0.12149 0.05636 0.0
H673 H 0.11129 0.36079 0.92992 0.0
H674 H 0.87624 0.24523 0.87529 0.0
H675 H 0.87165 0.26572 0.92207 0.0
H676 H 0.86781 0.18287 0.95725 0.0
H677 H 0.8726 0.1625 0.91124 0.0
H678 H 0.84108 0.22003 0.97745 0.0
H679 H 0.90706 0.21462 0.96042 0.0
H680 H 0.9348 0.22707 0.93415 0.0
H681 H 0.92459 0.31421 0.94919 0.0
H682 H 0.89666 0.3022 0.97538 0.0
H683 H 0.87953 0.18404 0.10196 0.0
H684 H 0.87861 0.19685 0.05282 0.0
H685 H 0.86299 0.28093 0.07473 0.0
H686 H 0.86371 0.26811 0.12471 0.0
H687 H 0.89458 0.26262 0.02455 0.0
H688 H 0.83118 0.2634 0.05311 0.0
H689 H 0.80534 0.24588 0.08102 0.0
H690 H 0.81163 0.16445 0.04444 0.0
H691 H 0.8377 0.18139 0.01665 0.0
C692 C 0.87422 0.2315 0.89303 0.0
C693 C 0.87492 0.20228 0.88969 0.0
C694 C 0.87163 0.2432 0.91965 0.0
C695 C 0.86937 0.22577 0.94304 0.0
C696 C 0.86943 0.19668 0.93945 0.0
C697 C 0.87231 0.18507 0.91315 0.0
C698 C 0.868 0.23699 0.97182 0.0
C699 C 0.85258 0.23003 0.98763 0.0
C700 C 0.8829 0.25037 0.985 0.0
C701 C 0.89969 0.25756 0.96948 0.0
C702 C 0.91067 0.23644 0.95792 0.0
C703 C 0.92643 0.2434 0.94309 0.0
C704 C 0.93142 0.27142 0.93987 0.0
C705 C 0.92068 0.29252 0.95162 0.0
C706 C 0.90489 0.28565 0.96647 0.0
C707 C 0.87614 0.2054 0.09653 0.0
C708 C 0.87152 0.22501 0.11722 0.0
C709 C 0.87569 0.21269 0.0684 0.0
C710 C 0.87066 0.23973 0.06026 0.0
C711 C 0.86693 0.25994 0.08075 0.0
C712 C 0.86733 0.25259 0.10918 0.0
C713 C 0.86782 0.24505 0.03015 0.0
C714 C 0.88257 0.25448 0.01409 0.0
C715 C 0.85232 0.23385 0.01667 0.0
C716 C 0.83643 0.22366 0.03291 0.0
C717 C 0.82712 0.24172 0.05117 0.0
C718 C 0.81243 0.2319 0.06694 0.0
C719 C 0.80685 0.20406 0.06452 0.0
C720 C 0.81595 0.18601 0.04628 0.0
C721 C 0.83067 0.19573 0.03048 0.0
H722 H 0.79548 0.19649 0.07677 0.0
H723 H 0.94363 0.27677 0.92836 0.0
H724 H 0.88743 0.80253 0.89498 0.0
H725 H 0.8891 0.78702 0.94349 0.0
H726 H 0.85215 0.71934 0.92529 0.0
H727 H 0.85088 0.73435 0.87599 0.0
H728 H 0.84326 0.76048 0.9731 0.0
H729 H 0.8881 0.69598 0.9418 0.0
H730 H 0.91489 0.68068 0.91475 0.0
H731 H 0.94845 0.73952 0.95884 0.0
H732 H 0.92181 0.75551 0.98586 0.0
H733 H 0.85771 0.75757 0.12109 0.0
H734 H 0.85412 0.73615 0.07465 0.0
H735 H 0.9002 0.78343 0.04464 0.0
H736 H 0.90405 0.80421 0.09048 0.0
H737 H 0.90036 0.73329 0.02157 0.0
H738 H 0.8555 0.80746 0.03849 0.0
H739 H 0.82947 0.8284 0.06356 0.0
H740 H 0.7969 0.75614 0.04505 0.0
H741 H 0.82284 0.73467 0.02012 0.0
C742 C 0.87988 0.78408 0.90113 0.0
C743 C 0.86902 0.76963 0.88178 0.0
C744 C 0.88089 0.7752 0.92883 0.0
C745 C 0.87079 0.75203 0.93786 0.0
C746 C 0.86011 0.73719 0.91857 0.0
C747 C 0.85945 0.74571 0.89052 0.0
C748 C 0.87065 0.74524 0.96802 0.0
C749 C 0.8555 0.75354 0.9838 0.0
C750 C 0.88675 0.73669 0.98179 0.0
C751 C 0.90291 0.72698 0.96583 0.0
C752 C 0.90116 0.70579 0.94562 0.0
C753 C 0.91633 0.69697 0.9303 0.0
C754 C 0.93336 0.70913 0.93507 0.0
C755 C 0.93526 0.7301 0.9552 0.0
C756 C 0.92013 0.73901 0.97056 0.0
C757 C 0.86728 0.76289 0.10469 0.0
C758 C 0.88098 0.78293 0.10934 0.0
C759 C 0.86518 0.75072 0.07817 0.0
C760 C 0.87677 0.75843 0.05605 0.0
C761 C 0.8911 0.77708 0.0613 0.0
C762 C 0.89317 0.78919 0.08755 0.0
C763 C 0.87326 0.74985 0.02668 0.0
C764 C 0.88778 0.73886 0.01102 0.0
C765 C 0.8567 0.75644 0.01295 0.0
C766 C 0.84114 0.76932 0.02783 0.0
C767 C 0.84281 0.79598 0.03995 0.0
C768 C 0.82808 0.80795 0.0541 0.0
C769 C 0.81156 0.79355 0.05599 0.0
C770 C 0.80972 0.76721 0.04364 0.0
C771 C 0.82443 0.75514 0.02952 0.0
H772 H 0.80017 0.80285 0.06695 0.0
H773 H 0.94508 0.70229 0.92317 0.0
H774 H 0.11253 0.80145 0.10422 0.0
H775 H 0.11096 0.78608 0.05585 0.0
H776 H 0.15166 0.72308 0.07232 0.0
H777 H 0.15304 0.73827 0.12155 0.0
H778 H 0.15991 0.75924 0.027 0.0
H779 H 0.11189 0.69956 0.05348 0.0
H780 H 0.08396 0.68511 0.07815 0.0
H781 H 0.05333 0.7478 0.03428 0.0
H782 H 0.0811 0.76295 0.00965 0.0
H783 H 0.14601 0.76324 0.87733 0.0
H784 H 0.14879 0.7409 0.92344 0.0
H785 H 0.10689 0.79539 0.9556 0.0
H786 H 0.10394 0.81743 0.91014 0.0
H787 H 0.10263 0.74226 0.97461 0.0
H788 H 0.15226 0.81069 0.96329 0.0
H789 H 0.18006 0.82838 0.94031 0.0
H790 H 0.20723 0.75055 0.95685 0.0
H791 H 0.17948 0.73232 0.97967 0.0
C792 C 0.12087 0.78393 0.09779 0.0
C793 C 0.13293 0.77107 0.11659 0.0
C794 C 0.11989 0.77504 0.07013 0.0
C795 C 0.13109 0.7533 0.06053 0.0
C796 C 0.1428 0.73975 0.07942 0.0
C797 C 0.14353 0.74836 0.10746 0.0
C798 C 0.13165 0.7475 0.03012 0.0
C799 C 0.14756 0.7545 0.01545 0.0
C800 C 0.11551 0.74152 0.01512 0.0
C801 C 0.09864 0.73238 0.02967 0.0
C802 C 0.09922 0.71037 0.04917 0.0
C803 C 0.0834 0.70204 0.06316 0.0
C804 C 0.06688 0.71552 0.05778 0.0
C805 C 0.06613 0.73734 0.03838 0.0
C806 C 0.08191 0.74576 0.02435 0.0
C807 C 0.13727 0.77021 0.89419 0.0
C808 C 0.12488 0.79233 0.89009 0.0
C809 C 0.13889 0.75744 0.92049 0.0
C810 C 0.12806 0.76653 0.94296 0.0
C811 C 0.11531 0.78791 0.93855 0.0
C812 C 0.11376 0.80069 0.91252 0.0
C813 C 0.13055 0.75571 0.97178 0.0
C814 C 0.11519 0.74563 0.98607 0.0
C815 C 0.14715 0.75906 0.98646 0.0
C816 C 0.16377 0.77003 0.9728 0.0
C817 C 0.16413 0.7973 0.96182 0.0
C818 C 0.17987 0.80743 0.94887 0.0
C819 C 0.19538 0.79056 0.94702 0.0
C820 C 0.19519 0.76356 0.95822 0.0
C821 C 0.17947 0.75332 0.97115 0.0
H822 H 0.20756 0.79844 0.93699 0.0
H823 H 0.05465 0.70905 0.06864 0.0
H824 H 0.07891 0.20024 0.25345 0.0
H825 H 0.04759 0.21581 0.26385 0.0
H826 H 0.03874 0.2315 0.17597 0.0
H827 H 0.0698 0.21665 0.16591 0.0
H828 H 0.02074 0.26889 0.20532 0.0
H829 H 0.02884 0.16668 0.20896 0.0
H830 H 0.04201 0.12361 0.22902 0.0
H831 H 0.02058 0.14528 0.30972 0.0
H832 H 0.00746 0.18864 0.29013 0.0
H833 H 0.93885 0.22139 0.15167 0.0
H834 H 0.96935 0.2327 0.16794 0.0
H835 H 0.95185 0.22269 0.25346 0.0
H836 H 0.92095 0.21112 0.23707 0.0
H837 H 0.9822 0.19201 0.24199 0.0
H838 H 0.96563 0.28699 0.2312 0.0
H839 H 0.95186 0.32815 0.20843 0.0
H840 H 0.98866 0.31949 0.13922 0.0
H841 H 1.0025 0.27805 0.16134 0.0
C842 C 0.07039 0.20802 0.23665 0.0
C843 C 0.07666 0.2075 0.20894 0.0
C844 C 0.05248 0.21664 0.24251 0.0
C845 C 0.04066 0.22447 0.22063 0.0
C846 C 0.04751 0.22569 0.19326 0.0
C847 C 0.06527 0.21718 0.18748 0.0
C848 C 0.0207 0.22837 0.22494 0.0
C849 C 0.01229 0.2522 0.21354 0.0
C850 C 0.00961 0.20707 0.23653 0.0
C851 C 0.01739 0.181 0.2482 0.0
C852 C 0.02704 0.1623 0.23101 0.0
C853 C 0.03448 0.13785 0.24228 0.0
C854 C 0.03218 0.13176 0.27065 0.0
C855 C 0.02239 0.15006 0.28777 0.0
C856 C 0.01495 0.17457 0.2766 0.0
C857 C 0.94134 0.22214 0.17399 0.0
C858 C 0.92749 0.21526 0.19308 0.0
C859 C 0.9588 0.22882 0.18331 0.0
C860 C 0.96292 0.22881 0.21197 0.0
C861 C 0.94896 0.22301 0.23125 0.0
C862 C 0.9313 0.21656 0.22188 0.0
C863 C 0.98226 0.23183 0.22091 0.0
C864 C 0.99055 0.20928 0.23477 0.0
C865 C 0.99324 0.2542 0.21131 0.0
C866 C 0.9851 0.27935 0.19798 0.0
C867 C 0.97074 0.29377 0.21106 0.0
C868 C 0.96292 0.31717 0.19827 0.0
C869 C 0.96938 0.32643 0.1724 0.0
C870 C 0.9837 0.31233 0.15928 0.0
C871 C 0.99156 0.28892 0.17198 0.0
H872 H 0.9633 0.34453 0.16251 0.0
H873 H 0.03795 0.11283 0.27934 0.0
H874 H 0.86985 0.87274 0.26625 0.0
H875 H 0.87223 0.92234 0.2797 0.0
H876 H 0.87987 0.9446 0.193 0.0
H877 H 0.8781 0.89583 0.1798 0.0
H878 H 0.90261 0.97278 0.22358 0.0
H879 H 0.83715 0.94862 0.22973 0.0
H880 H 0.8114 0.92292 0.25072 0.0
H881 H 0.82536 0.95529 0.33171 0.0
H882 H 0.85129 0.98097 0.31117 0.0
H883 H 0.86193 0.0874 0.17111 0.0
H884 H 0.86224 0.04098 0.19197 0.0
H885 H 0.87871 0.07617 0.27102 0.0
H886 H 0.8783 0.12336 0.25008 0.0
H887 H 0.84916 0.02179 0.26399 0.0
H888 H 0.91149 0.05519 0.25124 0.0
H889 H 0.93452 0.08203 0.22494 0.0
H890 H 0.92455 0.03172 0.15217 0.0
H891 H 0.90127 0.00487 0.17792 0.0
C892 C 0.87219 0.88831 0.25021 0.0
C893 C 0.87378 0.8804 0.22198 0.0
C894 C 0.87349 0.9166 0.25789 0.0
C895 C 0.87618 0.93727 0.23736 0.0
C896 C 0.87797 0.92912 0.20931 0.0
C897 C 0.87686 0.90112 0.20174 0.0
C898 C 0.87664 0.96763 0.24397 0.0
C899 C 0.89108 0.98343 0.23298 0.0
C900 C 0.86186 0.98168 0.25685 0.0
C901 C 0.84624 0.96639 0.26901 0.0
C902 C 0.83477 0.9501 0.25203 0.0
C903 C 0.82014 0.93557 0.26384 0.0
C904 C 0.81678 0.93739 0.29255 0.0
C905 C 0.828 0.95384 0.30949 0.0
C906 C 0.84265 0.96839 0.29779 0.0
C907 C 0.86521 0.08542 0.19311 0.0
C908 C 0.87034 0.10889 0.2089 0.0
C909 C 0.86527 0.05891 0.20503 0.0
C910 C 0.8706 0.05523 0.23291 0.0
C911 C 0.87446 0.07874 0.24948 0.0
C912 C 0.87425 0.10557 0.23751 0.0
C913 C 0.87468 0.0265 0.24238 0.0
C914 C 0.86113 0.01107 0.25611 0.0
C915 C 0.89019 0.01262 0.23175 0.0
C916 C 0.90464 0.02807 0.21651 0.0
C917 C 0.91418 0.04993 0.22961 0.0
C918 C 0.92727 0.06514 0.21479 0.0
C919 C 0.93099 0.05859 0.1869 0.0
C920 C 0.92167 0.03675 0.17378 0.0
C921 C 0.90856 0.02149 0.1885 0.0
H922 H 0.9411 0.07043 0.17545 0.0
H923 H 0.80546 0.92612 0.30165 0.0
H924 H 0.93356 0.83609 0.24876 0.0
H925 H 0.96531 0.82348 0.2581 0.0
H926 H 0.96074 0.75435 0.20048 0.0
H927 H 0.92861 0.76589 0.19274 0.0
H928 H 0.98526 0.74132 0.23697 0.0
H929 H 0.97455 0.82219 0.17991 0.0
H930 H 0.9622 0.86875 0.16828 0.0
H931 H 0.99187 0.90484 0.23676 0.0
H932 H 0.00418 0.85838 0.24904 0.0
H933 H 0.0698 0.75796 0.16175 0.0
H934 H 0.03881 0.75248 0.17989 0.0
H935 H 0.0535 0.79956 0.25336 0.0
H936 H 0.08475 0.80433 0.23567 0.0
H937 H 0.025 0.82273 0.21669 0.0
H938 H 0.04016 0.73876 0.26583 0.0
H939 H 0.05297 0.69139 0.2711 0.0
H940 H 0.0157 0.66026 0.20929 0.0
H941 H 0.00282 0.70754 0.20333 0.0
C942 C 0.93916 0.81749 0.23909 0.0
C943 C 0.9287 0.80186 0.22015 0.0
C944 C 0.95737 0.81047 0.24414 0.0
C945 C 0.96569 0.78853 0.22924 0.0
C946 C 0.95476 0.77146 0.21213 0.0
C947 C 0.93636 0.77799 0.20776 0.0
C948 C 0.98595 0.78562 0.22869 0.0
C949 C 0.99393 0.75913 0.2325 0.0
C950 C 0.99743 0.80882 0.22297 0.0
C951 C 0.99009 0.83678 0.21561 0.0
C952 C 0.97833 0.84004 0.1926 0.0
C953 C 0.97135 0.8664 0.18588 0.0
C954 C 0.9762 0.88972 0.20183 0.0
C955 C 0.98809 0.88674 0.22448 0.0
C956 C 0.99507 0.8604 0.23133 0.0
C957 C 0.06661 0.76608 0.18233 0.0
C958 C 0.07967 0.78145 0.19738 0.0
C959 C 0.04891 0.76296 0.19266 0.0
C960 C 0.04386 0.77564 0.21795 0.0
C961 C 0.05718 0.78944 0.2339 0.0
C962 C 0.07505 0.792 0.22387 0.0
C963 C 0.02424 0.77854 0.22494 0.0
C964 C 0.01636 0.80506 0.22191 0.0
C965 C 0.01292 0.75526 0.23046 0.0
C966 C 0.02061 0.72677 0.23399 0.0
C967 C 0.0348 0.72188 0.25317 0.0
C968 C 0.04205 0.69502 0.25633 0.0
C969 C 0.03518 0.67284 0.2405 0.0
C970 C 0.02101 0.67747 0.22153 0.0
C971 C 0.01371 0.70428 0.21828 0.0
H972 H 0.04081 0.65207 0.24298 0.0
H973 H 0.97079 0.91012 0.19659 0.0
H974 H 0.14689 0.12601 0.26041 0.0
H975 H 0.14561 0.07614 0.27302 0.0
H976 H 0.10976 0.06083 0.20319 0.0
H977 H 0.11126 0.11012 0.19029 0.0
H978 H 0.10021 0.03111 0.25327 0.0
H979 H 0.15336 0.05259 0.19376 0.0
H980 H 0.18243 0.0769 0.18481 0.0
H981 H 0.205 0.0419 0.25994 0.0
H982 H 0.17595 0.01768 0.26948 0.0
H983 H 0.10517 0.91133 0.1765 0.0
H984 H 0.10634 0.95726 0.19761 0.0
H985 H 0.14781 0.92908 0.25503 0.0
H986 H 0.1469 0.88235 0.23351 0.0
H987 H 0.15673 0.97872 0.23083 0.0
H988 H 0.10624 0.94511 0.2809 0.0
H989 H 0.07732 0.92026 0.28907 0.0
H990 H 0.04957 0.97715 0.23416 0.0
H991 H 0.07837 0.00211 0.22528 0.0
C992 C 0.13845 0.11203 0.24817 0.0
C993 C 0.12927 0.12178 0.22427 0.0
C994 C 0.13777 0.08362 0.25535 0.0
C995 C 0.12763 0.06486 0.23897 0.0
C996 C 0.1176 0.075 0.21616 0.0
C997 C 0.11854 0.10313 0.20871 0.0
C998 C 0.1287 0.03426 0.24329 0.0
C999 C 0.11257 0.01954 0.24868 0.0
C1000 C 0.14501 0.01928 0.23839 0.0
C1001 C 0.16245 0.03367 0.23252 0.0
C1002 C 0.16449 0.05028 0.20847 0.0
C1003 C 0.18096 0.064 0.20327 0.0
C1004 C 0.19553 0.06103 0.22185 0.0
C1005 C 0.19369 0.04425 0.24561 0.0
C1006 C 0.17722 0.03053 0.25093 0.0
C1007 C 0.11452 0.91462 0.19372 0.0
C1008 C 0.126 0.89306 0.20321 0.0
C1009 C 0.11502 0.94096 0.206 0.0
C1010 C 0.12691 0.94652 0.22827 0.0
C1011 C 0.13839 0.92512 0.23805 0.0
C1012 C 0.13784 0.89848 0.22575 0.0
C1013 C 0.12797 0.97547 0.23932 0.0
C1014 C 0.14449 0.99 0.23672 0.0
C1015 C 0.11201 0.99025 0.24703 0.0
C1016 C 0.09453 0.97551 0.25242 0.0
C1017 C 0.094 0.95227 0.27045 0.0
C1018 C 0.07761 0.93815 0.27522 0.0
C1019 C 0.06162 0.94713 0.26215 0.0
C1020 C 0.06197 0.97026 0.24431 0.0
C1021 C 0.07832 0.98444 0.23946 0.0
H1022 H 0.04895 0.93616 0.26585 0.0
H1023 H 0.20828 0.07166 0.21779 0.0
H1024 H 0.93723 0.77999 0.85063 0.0
H1025 H 0.96842 0.77447 0.83424 0.0
H1026 H 0.95001 0.77928 0.74882 0.0
H1027 H 0.91843 0.78517 0.76513 0.0
H1028 H 0.98369 0.7391 0.76522 0.0
H1029 H 0.96102 0.83455 0.76453 0.0
H1030 H 0.94395 0.87378 0.7853 0.0
H1031 H 0.97923 0.87256 0.85694 0.0
H1032 H 0.99622 0.83277 0.83689 0.0
H1033 H 0.06925 0.84092 0.75435 0.0
H1034 H 0.03741 0.82825 0.7467 0.0
H1035 H 0.04536 0.75265 0.79446 0.0
H1036 H 0.07751 0.76497 0.80131 0.0
H1037 H 0.01528 0.8279 0.78826 0.0
H1038 H 0.01001 0.70661 0.78216 0.0
H1039 H 0.02634 0.66711 0.76046 0.0
H1040 H 0.04735 0.72182 0.69701 0.0
H1041 H 0.03094 0.76157 0.71807 0.0
C1042 C 0.93967 0.77916 0.8283 0.0
C1043 C 0.92535 0.7835 0.80918 0.0
C1044 C 0.95753 0.77582 0.81899 0.0
C1045 C 0.96153 0.77666 0.79037 0.0
C1046 C 0.94716 0.77841 0.77102 0.0
C1047 C 0.92913 0.78181 0.78037 0.0
C1048 C 0.98074 0.78074 0.7816 0.0
C1049 C 0.99067 0.75852 0.76995 0.0
C1050 C 0.9897 0.80623 0.78747 0.0
C1051 C 0.97978 0.83054 0.79932 0.0
C1052 C 0.96504 0.84249 0.78482 0.0
C1053 C 0.95539 0.86485 0.79645 0.0
C1054 C 0.9605 0.87568 0.82242 0.0
C1055 C 0.97528 0.86415 0.83682 0.0
C1056 C 0.98492 0.84169 0.82534 0.0
C1057 C 0.06438 0.821 0.76217 0.0
C1058 C 0.07582 0.80388 0.77835 0.0
C1059 C 0.04614 0.81386 0.75796 0.0
C1060 C 0.03883 0.78963 0.77021 0.0
C1061 C 0.05064 0.7713 0.78449 0.0
C1062 C 0.06906 0.77829 0.78835 0.0
C1063 C 0.01865 0.78616 0.77187 0.0
C1064 C 0.00846 0.80854 0.78275 0.0
C1065 C 0.00955 0.76096 0.76482 0.0
C1066 C 0.01935 0.73713 0.75187 0.0
C1067 C 0.01805 0.7102 0.76351 0.0
C1068 C 0.02733 0.68776 0.75133 0.0
C1069 C 0.03792 0.69197 0.72742 0.0
C1070 C 0.0392 0.71861 0.7156 0.0
C1071 C 0.02994 0.74111 0.72768 0.0
H1072 H 0.0451 0.67457 0.71803 0.0
H1073 H 0.95303 0.89301 0.83138 0.0
H1074 H 0.15424 0.87698 0.74229 0.0
H1075 H 0.15589 0.9271 0.73085 0.0
H1076 H 0.10835 0.94237 0.7815 0.0
H1077 H 0.10718 0.8928 0.79403 0.0
H1078 H 0.11453 0.97417 0.72171 0.0
H1079 H 0.1372 0.95463 0.81832 0.0
H1080 H 0.15671 0.92725 0.85023 0.0
H1081 H 0.20362 0.94725 0.80042 0.0
H1082 H 0.18425 0.97443 0.768 0.0
H1083 H 0.10274 0.09789 0.79732 0.0
H1084 H 0.10597 0.05106 0.77756 0.0
H1085 H 0.16102 0.07021 0.75257 0.0
H1086 H 0.15767 0.11769 0.77177 0.0
H1087 H 0.15711 0.0217 0.78693 0.0
H1088 H 0.13436 0.0572 0.70239 0.0
H1089 H 0.11469 0.0842 0.67051 0.0
H1090 H 0.06858 0.03457 0.69469 0.0
H1091 H 0.08789 0.00754 0.72709 0.0
C1092 C 0.14387 0.89098 0.75029 0.0
C1093 C 0.13059 0.88122 0.76903 0.0
C1094 C 0.14483 0.91949 0.74376 0.0
C1095 C 0.13219 0.93824 0.75527 0.0
C1096 C 0.11811 0.9281 0.77225 0.0
C1097 C 0.11749 0.89986 0.77946 0.0
C1098 C 0.13504 0.96873 0.75337 0.0
C1099 C 0.12389 0.98471 0.73574 0.0
C1100 C 0.14765 0.98221 0.77113 0.0
C1101 C 0.1593 0.96621 0.79064 0.0
C1102 C 0.15165 0.95297 0.81409 0.0
C1103 C 0.16268 0.93753 0.83227 0.0
C1104 C 0.18139 0.93543 0.82731 0.0
C1105 C 0.18911 0.94884 0.80419 0.0
C1106 C 0.17813 0.96425 0.78591 0.0
C1107 C 0.11542 0.0923 0.78715 0.0
C1108 C 0.13 0.11129 0.78618 0.0
C1109 C 0.11721 0.06563 0.77571 0.0
C1110 C 0.1337 0.05726 0.76349 0.0
C1111 C 0.14815 0.07641 0.76174 0.0
C1112 C 0.14622 0.10344 0.77265 0.0
C1113 C 0.13617 0.02751 0.75582 0.0
C1114 C 0.14822 0.01145 0.77198 0.0
C1115 C 0.12442 0.01409 0.73656 0.0
C1116 C 0.11259 0.03042 0.71734 0.0
C1117 C 0.11999 0.0522 0.70114 0.0
C1118 C 0.1089 0.06748 0.68292 0.0
C1119 C 0.09039 0.06113 0.6806 0.0
C1120 C 0.08293 0.03946 0.6965 0.0
C1121 C 0.09395 0.02412 0.71478 0.0
H1122 H 0.08183 0.07297 0.66646 0.0
H1123 H 0.18991 0.92349 0.84141 0.0
H1124 H 0.08128 0.19194 0.76424 0.0
H1125 H 0.04933 0.19957 0.75213 0.0
H1126 H 0.04534 0.26235 0.81678 0.0
H1127 H 0.07696 0.25306 0.8301 0.0
H1128 H 0.02004 0.22964 0.82455 0.0
H1129 H 0.03916 0.27527 0.74161 0.0
H1130 H 0.05639 0.28284 0.69803 0.0
H1131 H 0.03264 0.20892 0.66245 0.0
H1132 H 0.01545 0.20065 0.70595 0.0
H1133 H 0.92543 0.23802 0.79939 0.0
H1134 H 0.95664 0.25549 0.79297 0.0
H1135 H 0.97193 0.17731 0.75471 0.0
H1136 H 0.941 0.1596 0.76168 0.0
H1137 H 0.99015 0.22759 0.73155 0.0
H1138 H 0.97685 0.17921 0.81974 0.0
H1139 H 0.9591 0.17312 0.8631 0.0
H1140 H 0.97204 0.25711 0.8879 0.0
H1141 H 0.98968 0.26379 0.84441 0.0
C1142 C 0.07373 0.20812 0.77508 0.0
C1143 C 0.08156 0.22213 0.79788 0.0
C1144 C 0.05541 0.21256 0.76814 0.0
C1145 C 0.04472 0.23171 0.7834 0.0
C1146 C 0.05312 0.24735 0.80473 0.0
C1147 C 0.07126 0.24229 0.81217 0.0
C1148 C 0.02446 0.23241 0.77995 0.0
C1149 C 0.01363 0.23009 0.80412 0.0
C1150 C 0.01578 0.23241 0.75341 0.0
C1151 C 0.02609 0.23725 0.72715 0.0
C1152 C 0.0377 0.26051 0.72457 0.0
C1153 C 0.04745 0.26495 0.69986 0.0
C1154 C 0.04564 0.24635 0.6775 0.0
C1155 C 0.03404 0.22331 0.67979 0.0
C1156 C 0.02426 0.21876 0.70446 0.0
C1157 C 0.93529 0.22502 0.78865 0.0
C1158 C 0.93088 0.19745 0.7811 0.0
C1159 C 0.95311 0.23497 0.78508 0.0
C1160 C 0.96661 0.21761 0.77349 0.0
C1161 C 0.96172 0.19107 0.76355 0.0
C1162 C 0.94407 0.18095 0.76762 0.0
C1163 C 0.98622 0.22481 0.77599 0.0
C1164 C 0.99679 0.22819 0.7518 0.0
C1165 C 0.99473 0.22624 0.80246 0.0
C1166 C 0.98438 0.2221 0.82873 0.0
C1167 C 0.97579 0.19643 0.83435 0.0
C1168 C 0.96578 0.19287 0.85895 0.0
C1169 C 0.96441 0.21474 0.8782 0.0
C1170 C 0.9731 0.24021 0.87293 0.0
C1171 C 0.9831 0.24389 0.84833 0.0
H1172 H 0.95668 0.21191 0.89724 0.0
H1173 H 0.0532 0.24983 0.65839 0.0
H1174 H 0.87931 0.87463 0.75281 0.0
H1175 H 0.87898 0.92121 0.73076 0.0
H1176 H 0.85897 0.95707 0.8076 0.0
H1177 H 0.85965 0.91113 0.82968 0.0
H1178 H 0.84245 0.97994 0.75895 0.0
H1179 H 0.90263 0.95602 0.79789 0.0
H1180 H 0.9305 0.92723 0.80012 0.0
H1181 H 0.94062 0.94293 0.71308 0.0
H1182 H 0.91265 0.97153 0.7103 0.0
H1183 H 0.89469 0.10294 0.80378 0.0
H1184 H 0.8946 0.05388 0.79051 0.0
H1185 H 0.86243 0.07341 0.71753 0.0
H1186 H 0.86248 0.1231 0.73089 0.0
H1187 H 0.90407 0.02068 0.74628 0.0
H1188 H 0.82991 0.02082 0.71474 0.0
H1189 H 0.80245 0.05059 0.71766 0.0
H1190 H 0.82084 0.08344 0.79634 0.0
H1191 H 0.84827 0.05364 0.79397 0.0
C1192 C 0.8745 0.89243 0.7647 0.0
C1193 C 0.86964 0.88943 0.79298 0.0
C1194 C 0.87433 0.91894 0.75213 0.0
C1195 C 0.86894 0.94252 0.76759 0.0
C1196 C 0.86306 0.93913 0.79527 0.0
C1197 C 0.86358 0.91291 0.80792 0.0
C1198 C 0.87121 0.97128 0.75667 0.0
C1199 C 0.85587 0.98874 0.75534 0.0
C1200 C 0.88872 0.98277 0.7521 0.0
C1201 C 0.90545 0.96555 0.75379 0.0
C1202 C 0.91072 0.9531 0.77918 0.0
C1203 C 0.92654 0.93687 0.78056 0.0
C1204 C 0.93729 0.93318 0.75673 0.0
C1205 C 0.93225 0.94575 0.7315 0.0
C1206 C 0.91642 0.96196 0.73 0.0
C1207 C 0.88793 0.09696 0.78456 0.0
C1208 C 0.87839 0.11675 0.76855 0.0
C1209 C 0.88801 0.06889 0.77686 0.0
C1210 C 0.87839 0.05992 0.75317 0.0
C1211 C 0.86988 0.0799 0.73597 0.0
C1212 C 0.86994 0.10823 0.74358 0.0
C1213 C 0.87535 0.0295 0.74941 0.0
C1214 C 0.89055 0.01171 0.7482 0.0
C1215 C 0.85774 0.01773 0.75202 0.0
C1216 C 0.84118 0.0353 0.75399 0.0
C1217 C 0.82804 0.03437 0.73266 0.0
C1218 C 0.8125 0.05123 0.73423 0.0
C1219 C 0.80994 0.06897 0.75712 0.0
C1220 C 0.82286 0.06976 0.77858 0.0
C1221 C 0.8384 0.0529 0.77714 0.0
H1222 H 0.79792 0.08203 0.75828 0.0
H1223 H 0.94957 0.92068 0.75784 0.0
H1224 H 0.64266 0.76765 0.37644 0.0
H1225 H 0.63999 0.78114 0.426 0.0
H1226 H 0.60894 0.70624 0.44211 0.0
H1227 H 0.61154 0.6929 0.3933 0.0
H1228 H 0.59578 0.75071 0.47168 0.0
H1229 H 0.65582 0.70799 0.44959 0.0
H1230 H 0.68554 0.70886 0.42547 0.0
H1231 H 0.6974 0.7889 0.46191 0.0
H1232 H 0.66764 0.78857 0.48601 0.0
H1233 H 0.60965 0.66849 0.58503 0.0
H1234 H 0.60991 0.69207 0.5403 0.0
H1235 H 0.64037 0.76045 0.57592 0.0
H1236 H 0.64032 0.7366 0.62157 0.0
H1237 H 0.65395 0.74211 0.52393 0.0
H1238 H 0.59758 0.77367 0.55935 0.0
H1239 H 0.56822 0.77008 0.58411 0.0
H1240 H 0.54905 0.71117 0.52309 0.0
H1241 H 0.57837 0.71405 0.49818 0.0
C1242 C 0.6349 0.75452 0.39053 0.0
C1243 C 0.62745 0.7291 0.38115 0.0
C1244 C 0.63345 0.76217 0.41878 0.0
C1245 C 0.62439 0.74457 0.43779 0.0
C1246 C 0.61595 0.72019 0.42787 0.0
C1247 C 0.61754 0.71248 0.39994 0.0
C1248 C 0.625 0.74918 0.46846 0.0
C1249 C 0.60848 0.74929 0.4832 0.0
C1250 C 0.6416 0.74841 0.48354 0.0
C1251 C 0.65948 0.74841 0.46929 0.0
C1252 C 0.66475 0.72582 0.45231 0.0
C1253 C 0.68159 0.72621 0.43867 0.0
C1254 C 0.69333 0.74897 0.44208 0.0
C1255 C 0.68827 0.77133 0.45923 0.0
C1256 C 0.67143 0.77105 0.47288 0.0
C1257 C 0.6164 0.68857 0.58367 0.0
C1258 C 0.6249 0.70065 0.60711 0.0
C1259 C 0.61642 0.70215 0.55797 0.0
C1260 C 0.62482 0.72828 0.55489 0.0
C1261 C 0.63363 0.74041 0.57797 0.0
C1262 C 0.63358 0.72676 0.60399 0.0
C1263 C 0.62466 0.74172 0.52693 0.0
C1264 C 0.64123 0.74499 0.5127 0.0
C1265 C 0.60808 0.7456 0.5123 0.0
C1266 C 0.59021 0.74415 0.52684 0.0
C1267 C 0.58712 0.75989 0.55124 0.0
C1268 C 0.57048 0.75796 0.56531 0.0
C1269 C 0.55677 0.74042 0.55517 0.0
C1270 C 0.55967 0.7248 0.53089 0.0
C1271 C 0.57629 0.72664 0.51673 0.0
H1272 H 0.54391 0.73893 0.56612 0.0
H1273 H 0.70635 0.74924 0.4315 0.0
H1274 H 0.36212 0.7714 0.62854 0.0
H1275 H 0.36384 0.78659 0.57936 0.0
H1276 H 0.3898 0.70851 0.5578 0.0
H1277 H 0.38823 0.69358 0.60616 0.0
H1278 H 0.40488 0.75118 0.52955 0.0
H1279 H 0.34267 0.71807 0.55349 0.0
H1280 H 0.31374 0.7228 0.57936 0.0
H1281 H 0.3069 0.80593 0.54701 0.0
H1282 H 0.33591 0.80172 0.52117 0.0
H1283 H 0.3788 0.67055 0.42138 0.0
H1284 H 0.37837 0.6946 0.46591 0.0
H1285 H 0.36655 0.77256 0.42447 0.0
H1286 H 0.36705 0.74843 0.37888 0.0
H1287 H 0.34529 0.75429 0.48058 0.0
H1288 H 0.40394 0.77599 0.44311 0.0
H1289 H 0.43157 0.765 0.41623 0.0
H1290 H 0.445 0.69965 0.47434 0.0
H1291 H 0.41714 0.70987 0.50126 0.0
C1292 C 0.36853 0.75784 0.61329 0.0
C1293 C 0.37491 0.73122 0.62109 0.0
C1294 C 0.36944 0.76648 0.58526 0.0
C1295 C 0.37685 0.7486 0.56487 0.0
C1296 C 0.3841 0.72274 0.57312 0.0
C1297 C 0.38309 0.71412 0.60083 0.0
C1298 C 0.37583 0.75479 0.53452 0.0
C1299 C 0.39189 0.75255 0.5188 0.0
C1300 C 0.35893 0.75736 0.52041 0.0
C1301 C 0.3415 0.75972 0.53572 0.0
C1302 C 0.33502 0.73739 0.55204 0.0
C1303 C 0.31862 0.73997 0.56667 0.0
C1304 C 0.30852 0.76469 0.5649 0.0
C1305 C 0.31476 0.78683 0.54841 0.0
C1306 C 0.33117 0.78437 0.53378 0.0
C1307 C 0.37602 0.6928 0.42143 0.0
C1308 C 0.3732 0.70759 0.39636 0.0
C1309 C 0.37571 0.70648 0.44703 0.0
C1310 C 0.37258 0.73532 0.44839 0.0
C1311 C 0.36901 0.75025 0.42371 0.0
C1312 C 0.36935 0.73645 0.39777 0.0
C1313 C 0.37426 0.74908 0.47595 0.0
C1314 C 0.35837 0.75479 0.49115 0.0
C1315 C 0.39131 0.74943 0.48969 0.0
C1316 C 0.40845 0.74377 0.47422 0.0
C1317 C 0.41276 0.75923 0.45012 0.0
C1318 C 0.42847 0.7531 0.43486 0.0
C1319 C 0.4401 0.73165 0.44358 0.0
C1320 C 0.43601 0.7163 0.46764 0.0
C1321 C 0.42026 0.7223 0.48294 0.0
H1322 H 0.45227 0.72689 0.43174 0.0
H1323 H 0.29582 0.76665 0.57624 0.0
H1324 H 0.39511 0.30438 0.39325 0.0
H1325 H 0.39786 0.29039 0.44195 0.0
H1326 H 0.36265 0.21977 0.42679 0.0
H1327 H 0.36003 0.23365 0.37733 0.0
H1328 H 0.35164 0.25395 0.47186 0.0
H1329 H 0.40449 0.20492 0.44483 0.0
H1330 H 0.43332 0.19664 0.41974 0.0
H1331 H 0.45816 0.26527 0.46328 0.0
H1332 H 0.42942 0.27428 0.48832 0.0
H1333 H 0.36556 0.26083 0.62137 0.0
H1334 H 0.36429 0.23848 0.57514 0.0
H1335 H 0.40186 0.30001 0.54309 0.0
H1336 H 0.40344 0.32195 0.58866 0.0
H1337 H 0.41014 0.249 0.5236 0.0
H1338 H 0.35469 0.30625 0.53571 0.0
H1339 H 0.32569 0.31746 0.5593 0.0
H1340 H 0.30609 0.23446 0.54287 0.0
H1341 H 0.33507 0.22272 0.51941 0.0
C1342 C 0.38823 0.28556 0.40007 0.0
C1343 C 0.37733 0.27012 0.38155 0.0
C1344 C 0.38988 0.27748 0.42791 0.0
C1345 C 0.38057 0.25391 0.43794 0.0
C1346 C 0.37004 0.23791 0.41936 0.0
C1347 C 0.36862 0.24578 0.39119 0.0
C1348 C 0.38068 0.24833 0.46841 0.0
C1349 C 0.36436 0.25188 0.48326 0.0
C1350 C 0.39727 0.24573 0.48323 0.0
C1351 C 0.41474 0.24026 0.4685 0.0
C1352 C 0.41607 0.21834 0.44898 0.0
C1353 C 0.43241 0.21351 0.43476 0.0
C1354 C 0.44756 0.23042 0.43991 0.0
C1355 C 0.44642 0.25216 0.45934 0.0
C1356 C 0.43011 0.25709 0.47362 0.0
C1357 C 0.37366 0.26942 0.60449 0.0
C1358 C 0.38449 0.29336 0.60874 0.0
C1359 C 0.37291 0.25662 0.57812 0.0
C1360 C 0.38295 0.26762 0.55564 0.0
C1361 C 0.39408 0.291 0.56013 0.0
C1362 C 0.39485 0.30372 0.58626 0.0
C1363 C 0.38129 0.25651 0.52678 0.0
C1364 C 0.39734 0.24978 0.51228 0.0
C1365 C 0.36448 0.25637 0.51227 0.0
C1366 C 0.34708 0.26351 0.52617 0.0
C1367 C 0.34422 0.29036 0.5373 0.0
C1368 C 0.32779 0.29681 0.55061 0.0
C1369 C 0.31408 0.27665 0.55267 0.0
C1370 C 0.31674 0.25003 0.54133 0.0
C1371 C 0.33316 0.24346 0.52802 0.0
H1372 H 0.30137 0.28168 0.563 0.0
H1373 H 0.46019 0.22666 0.42886 0.0
H1374 H 0.59334 0.29181 0.39453 0.0
H1375 H 0.5952 0.27479 0.44259 0.0
H1376 H 0.65315 0.26276 0.43329 0.0
H1377 H 0.65117 0.27875 0.38452 0.0
H1378 H 0.63779 0.22403 0.4702 0.0
H1379 H 0.63805 0.32404 0.45678 0.0
H1380 H 0.62625 0.36858 0.43808 0.0
H1381 H 0.57576 0.35591 0.48161 0.0
H1382 H 0.58718 0.31108 0.50025 0.0
H1383 H 0.66067 0.25332 0.61446 0.0
H1384 H 0.6578 0.24609 0.56383 0.0
H1385 H 0.60092 0.26876 0.56841 0.0
H1386 H 0.60414 0.27745 0.61837 0.0
H1387 H 0.61681 0.30004 0.53299 0.0
H1388 H 0.61744 0.20067 0.54928 0.0
H1389 H 0.62965 0.15634 0.56782 0.0
H1390 H 0.67868 0.16764 0.5202 0.0
H1391 H 0.66686 0.21224 0.50164 0.0
C1392 C 0.60639 0.2848 0.40252 0.0
C1393 C 0.62216 0.28696 0.38609 0.0
C1394 C 0.60744 0.27507 0.42993 0.0
C1395 C 0.62439 0.2682 0.44171 0.0
C1396 C 0.63996 0.26808 0.42463 0.0
C1397 C 0.63883 0.27727 0.39684 0.0
C1398 C 0.62608 0.26525 0.47249 0.0
C1399 C 0.63332 0.24064 0.48404 0.0
C1400 C 0.62017 0.2869 0.49049 0.0
C1401 C 0.61342 0.31412 0.47971 0.0
C1402 C 0.6244 0.3307 0.46224 0.0
C1403 C 0.61778 0.35599 0.45166 0.0
C1404 C 0.60026 0.36504 0.4586 0.0
C1405 C 0.58933 0.34886 0.47622 0.0
C1406 C 0.59587 0.32352 0.48683 0.0
C1407 C 0.64747 0.25586 0.60464 0.0
C1408 C 0.63261 0.26591 0.62012 0.0
C1409 C 0.6458 0.25167 0.57575 0.0
C1410 C 0.62913 0.2569 0.56219 0.0
C1411 C 0.61396 0.26477 0.57829 0.0
C1412 C 0.61576 0.26962 0.60689 0.0
C1413 C 0.62795 0.25834 0.53116 0.0
C1414 C 0.62106 0.28308 0.51942 0.0
C1415 C 0.63424 0.23681 0.51323 0.0
C1416 C 0.64132 0.20993 0.52426 0.0
C1417 C 0.63088 0.19381 0.54292 0.0
C1418 C 0.63773 0.16861 0.5534 0.0
C1419 C 0.65495 0.15921 0.54525 0.0
C1420 C 0.66535 0.17496 0.52652 0.0
C1421 C 0.65857 0.20018 0.51599 0.0
H1422 H 0.66022 0.1397 0.55339 0.0
H1423 H 0.59515 0.38462 0.45037 0.0
H1424 H 0.57942 0.7276 0.69912 0.0
H1425 H 0.54764 0.74064 0.70811 0.0
H1426 H 0.53988 0.66387 0.75406 0.0
H1427 H 0.57129 0.65039 0.744 0.0
H1428 H 0.516 0.66627 0.71584 0.0
H1429 H 0.53599 0.73163 0.7846 0.0
H1430 H 0.55413 0.7704 0.80406 0.0
H1431 H 0.532 0.82631 0.74252 0.0
H1432 H 0.51391 0.78778 0.72241 0.0
H1433 H 0.42103 0.70458 0.74189 0.0
H1434 H 0.45256 0.70933 0.75884 0.0
H1435 H 0.47018 0.73091 0.67567 0.0
H1436 H 0.43898 0.72636 0.65871 0.0
H1437 H 0.48757 0.75684 0.74159 0.0
H1438 H 0.4917 0.66839 0.66645 0.0
H1439 H 0.47268 0.63025 0.64741 0.0
H1440 H 0.44692 0.62009 0.7274 0.0
H1441 H 0.46592 0.65795 0.74687 0.0
C1442 C 0.57109 0.71409 0.71205 0.0
C1443 C 0.57777 0.68801 0.72089 0.0
C1444 C 0.55289 0.72151 0.71718 0.0
C1445 C 0.54121 0.7032 0.73171 0.0
C1446 C 0.54848 0.67829 0.74262 0.0
C1447 C 0.56648 0.67066 0.73704 0.0
C1448 C 0.52107 0.70775 0.73202 0.0
C1449 C 0.50992 0.68596 0.72216 0.0
C1450 C 0.51285 0.73347 0.73984 0.0
C1451 C 0.52368 0.75674 0.75187 0.0
C1452 C 0.53509 0.75214 0.77507 0.0
C1453 C 0.54535 0.77409 0.78625 0.0
C1454 C 0.54425 0.80079 0.7745 0.0
C1455 C 0.53285 0.80561 0.75159 0.0
C1456 C 0.52257 0.78373 0.74032 0.0
C1457 C 0.43151 0.71148 0.72752 0.0
C1458 C 0.42758 0.7148 0.69892 0.0
C1459 C 0.4495 0.7142 0.73722 0.0
C1460 C 0.46366 0.72045 0.71846 0.0
C1461 C 0.45943 0.72627 0.6905 0.0
C1462 C 0.4416 0.72347 0.68082 0.0
C1463 C 0.48298 0.71529 0.72595 0.0
C1464 C 0.49388 0.73701 0.7364 0.0
C1465 C 0.49108 0.68939 0.71929 0.0
C1466 C 0.48014 0.66597 0.70802 0.0
C1467 C 0.48205 0.65785 0.67996 0.0
C1468 C 0.47126 0.63633 0.66909 0.0
C1469 C 0.45858 0.62276 0.68617 0.0
C1470 C 0.45672 0.63061 0.71417 0.0
C1471 C 0.46748 0.6521 0.72512 0.0
H1472 H 0.45021 0.60615 0.67772 0.0
H1473 H 0.5522 0.81775 0.78318 0.0
H1474 H 0.37279 0.62392 0.74882 0.0
H1475 H 0.36982 0.57714 0.76991 0.0
H1476 H 0.36244 0.54145 0.68784 0.0
H1477 H 0.36553 0.58754 0.66686 0.0
H1478 H 0.33922 0.51812 0.72703 0.0
H1479 H 0.40384 0.54224 0.71538 0.0
H1480 H 0.43081 0.57154 0.72483 0.0
H1481 H 0.42492 0.55662 0.81293 0.0
H1482 H 0.3978 0.52739 0.80393 0.0
H1483 H 0.39055 0.39894 0.69317 0.0
H1484 H 0.38842 0.44763 0.70763 0.0
H1485 H 0.3585 0.42318 0.78122 0.0
H1486 H 0.36046 0.37389 0.76666 0.0
H1487 H 0.39637 0.47764 0.765 0.0
H1488 H 0.32926 0.45071 0.77259 0.0
H1489 H 0.30432 0.41998 0.75645 0.0
H1490 H 0.31712 0.43972 0.67107 0.0
H1491 H 0.34222 0.47033 0.68681 0.0
C1492 C 0.37022 0.60609 0.73542 0.0
C1493 C 0.36955 0.60929 0.70619 0.0
C1494 C 0.36857 0.57945 0.74746 0.0
C1495 C 0.36594 0.55587 0.7304 0.0
C1496 C 0.36437 0.55937 0.7014 0.0
C1497 C 0.36627 0.58572 0.68942 0.0
C1498 C 0.36636 0.52705 0.74174 0.0
C1499 C 0.3515 0.50945 0.73624 0.0
C1500 C 0.38238 0.51564 0.75365 0.0
C1501 C 0.39871 0.53298 0.75903 0.0
C1502 C 0.40825 0.54539 0.73677 0.0
C1503 C 0.42356 0.56195 0.74204 0.0
C1504 C 0.42953 0.56605 0.76948 0.0
C1505 C 0.42025 0.55349 0.7917 0.0
C1506 C 0.40491 0.53692 0.78652 0.0
C1507 C 0.38381 0.40376 0.71271 0.0
C1508 C 0.37549 0.38264 0.72863 0.0
C1509 C 0.3827 0.4316 0.72103 0.0
C1510 C 0.37322 0.43895 0.74536 0.0
C1511 C 0.36582 0.41785 0.7623 0.0
C1512 C 0.36699 0.38977 0.75401 0.0
C1513 C 0.36926 0.46887 0.75017 0.0
C1514 C 0.3836 0.48664 0.75792 0.0
C1515 C 0.35279 0.48051 0.74029 0.0
C1516 C 0.33759 0.46258 0.73084 0.0
C1517 C 0.32675 0.44837 0.75039 0.0
C1518 C 0.31261 0.431 0.74132 0.0
C1519 C 0.30916 0.42786 0.71275 0.0
C1520 C 0.31981 0.44215 0.69319 0.0
C1521 C 0.33398 0.45951 0.70217 0.0
H1522 H 0.29822 0.41439 0.70576 0.0
H1523 H 0.44139 0.57889 0.77353 0.0
H1524 H 0.5752 0.24196 0.67177 0.0
H1525 H 0.54366 0.23317 0.686 0.0
H1526 H 0.54803 0.29818 0.74826 0.0
H1527 H 0.57992 0.30562 0.73513 0.0
H1528 H 0.52375 0.26215 0.76533 0.0
H1529 H 0.53436 0.31175 0.67964 0.0
H1530 H 0.54684 0.31896 0.63231 0.0
H1531 H 0.51735 0.24733 0.6026 0.0
H1532 H 0.50491 0.23945 0.6499 0.0
H1533 H 0.44004 0.33687 0.74388 0.0
H1534 H 0.47073 0.31804 0.75066 0.0
H1535 H 0.45519 0.24263 0.70741 0.0
H1536 H 0.42424 0.26113 0.70124 0.0
H1537 H 0.48399 0.27538 0.68244 0.0
H1538 H 0.46857 0.23445 0.77047 0.0
H1539 H 0.45575 0.23373 0.81809 0.0
H1540 H 0.49359 0.29727 0.8436 0.0
H1541 H 0.50648 0.29868 0.79601 0.0
C1542 C 0.56964 0.25335 0.68939 0.0
C1543 C 0.57992 0.27427 0.70255 0.0
C1544 C 0.55156 0.2486 0.69732 0.0
C1545 C 0.54324 0.26564 0.71761 0.0
C1546 C 0.55406 0.28482 0.73248 0.0
C1547 C 0.57231 0.28902 0.72506 0.0
C1548 C 0.523 0.26636 0.72048 0.0
C1549 C 0.51506 0.26503 0.7472 0.0
C1550 C 0.51154 0.27004 0.69686 0.0
C1551 C 0.5189 0.2748 0.66836 0.0
C1552 C 0.53064 0.29743 0.66305 0.0
C1553 C 0.5377 0.30164 0.63623 0.0
C1554 C 0.53294 0.28356 0.61448 0.0
C1555 C 0.52106 0.26127 0.61949 0.0
C1556 C 0.51401 0.25692 0.64629 0.0
C1557 C 0.44296 0.31579 0.73687 0.0
C1558 C 0.42978 0.30042 0.72209 0.0
C1559 C 0.4605 0.30505 0.74075 0.0
C1560 C 0.46524 0.27896 0.7295 0.0
C1561 C 0.45175 0.26273 0.71641 0.0
C1562 C 0.43406 0.27324 0.71306 0.0
C1563 C 0.48477 0.27119 0.72721 0.0
C1564 C 0.49262 0.27165 0.7005 0.0
C1565 C 0.49609 0.26762 0.75089 0.0
C1566 C 0.48842 0.26679 0.77958 0.0
C1567 C 0.47407 0.24844 0.78616 0.0
C1568 C 0.46681 0.24787 0.81317 0.0
C1569 C 0.47383 0.26547 0.83385 0.0
C1570 C 0.48816 0.28364 0.82756 0.0
C1571 C 0.49547 0.2843 0.80058 0.0
H1572 H 0.46819 0.265 0.85475 0.0
H1573 H 0.53841 0.28685 0.59373 0.0
H1574 H 0.65103 0.61801 0.76224 0.0
H1575 H 0.65028 0.56877 0.77739 0.0
H1576 H 0.61203 0.55011 0.71148 0.0
H1577 H 0.61303 0.59858 0.69606 0.0
H1578 H 0.60414 0.52299 0.76339 0.0
H1579 H 0.65562 0.54172 0.69907 0.0
H1580 H 0.68454 0.56534 0.68751 0.0
H1581 H 0.70887 0.53284 0.76247 0.0
H1582 H 0.67998 0.50931 0.77461 0.0
H1583 H 0.60572 0.40411 0.68575 0.0
H1584 H 0.60784 0.44957 0.70769 0.0
H1585 H 0.65073 0.41956 0.76162 0.0
H1586 H 0.64885 0.3733 0.7392 0.0
H1587 H 0.65945 0.46928 0.73735 0.0
H1588 H 0.61027 0.43679 0.79102 0.0
H1589 H 0.5814 0.41256 0.80128 0.0
H1590 H 0.55252 0.47011 0.74846 0.0
H1591 H 0.58123 0.49445 0.73751 0.0
C1592 C 0.64222 0.60342 0.75141 0.0
C1593 C 0.63218 0.61199 0.72787 0.0
C1594 C 0.64182 0.57539 0.76005 0.0
C1595 C 0.63111 0.55586 0.74551 0.0
C1596 C 0.62031 0.56488 0.72307 0.0
C1597 C 0.62097 0.59257 0.71417 0.0
C1598 C 0.63227 0.52548 0.75116 0.0
C1599 C 0.61625 0.51113 0.75811 0.0
C1600 C 0.6483 0.51013 0.74534 0.0
C1601 C 0.66563 0.52411 0.73792 0.0
C1602 C 0.66711 0.53981 0.71318 0.0
C1603 C 0.68349 0.55314 0.7065 0.0
C1604 C 0.69851 0.55068 0.7243 0.0
C1605 C 0.6972 0.5348 0.74875 0.0
C1606 C 0.68084 0.52147 0.75554 0.0
C1607 C 0.61557 0.4069 0.70239 0.0
C1608 C 0.62719 0.385 0.71059 0.0
C1609 C 0.61661 0.43296 0.71518 0.0
C1610 C 0.62921 0.43789 0.73668 0.0
C1611 C 0.64078 0.41609 0.74526 0.0
C1612 C 0.63967 0.38971 0.73246 0.0
C1613 C 0.63095 0.46668 0.74794 0.0
C1614 C 0.6475 0.48084 0.74407 0.0
C1615 C 0.6154 0.48183 0.75679 0.0
C1616 C 0.59796 0.46749 0.76347 0.0
C1617 C 0.59778 0.44423 0.78149 0.0
C1618 C 0.58143 0.43047 0.78743 0.0
C1619 C 0.56514 0.4398 0.77554 0.0
C1620 C 0.56515 0.46294 0.75771 0.0
C1621 C 0.58146 0.47678 0.75168 0.0
H1622 H 0.5525 0.4291 0.78015 0.0
H1623 H 0.71119 0.56101 0.71909 0.0
H1624 H 0.4274 0.30731 0.26424 0.0
H1625 H 0.45888 0.29825 0.25021 0.0
H1626 H 0.46479 0.24039 0.319 0.0
H1627 H 0.43369 0.25104 0.33397 0.0
H1628 H 0.49039 0.27371 0.32228 0.0
H1629 H 0.46814 0.22149 0.24522 0.0
H1630 H 0.44936 0.21068 0.20386 0.0
H1631 H 0.4725 0.28062 0.16019 0.0
H1632 H 0.49124 0.29212 0.20143 0.0
H1633 H 0.58325 0.25945 0.29377 0.0
H1634 H 0.55197 0.24217 0.28844 0.0
H1635 H 0.53722 0.31792 0.24509 0.0
H1636 H 0.56829 0.33549 0.25089 0.0
H1637 H 0.51719 0.2665 0.22734 0.0
H1638 H 0.53423 0.32182 0.30988 0.0
H1639 H 0.55378 0.33058 0.35093 0.0
H1640 H 0.54013 0.24977 0.38402 0.0
H1641 H 0.52076 0.24035 0.34284 0.0
C1642 C 0.43525 0.29189 0.27566 0.0
C1643 C 0.42815 0.27966 0.29999 0.0
C1644 C 0.45329 0.28663 0.26764 0.0
C1645 C 0.46439 0.26848 0.28343 0.0
C1646 C 0.45667 0.25459 0.30649 0.0
C1647 C 0.43883 0.26044 0.31491 0.0
C1648 C 0.48449 0.26713 0.27849 0.0
C1649 C 0.49612 0.27128 0.30151 0.0
C1650 C 0.49226 0.26456 0.25143 0.0
C1651 C 0.48101 0.25777 0.22653 0.0
C1652 C 0.46913 0.2347 0.22688 0.0
C1653 C 0.45851 0.22842 0.20343 0.0
C1654 C 0.45972 0.24498 0.17943 0.0
C1655 C 0.47158 0.26782 0.17881 0.0
C1656 C 0.48222 0.2742 0.2022 0.0
C1657 C 0.57356 0.27181 0.28194 0.0
C1658 C 0.57813 0.29885 0.27284 0.0
C1659 C 0.55568 0.26197 0.27901 0.0
C1660 C 0.54226 0.2789 0.2666 0.0
C1661 C 0.54737 0.30449 0.25463 0.0
C1662 C 0.56512 0.31453 0.258 0.0
C1663 C 0.52262 0.27298 0.27103 0.0
C1664 C 0.51122 0.26794 0.24803 0.0
C1665 C 0.51497 0.27431 0.29812 0.0
C1666 C 0.52625 0.28025 0.32316 0.0
C1667 C 0.53551 0.30585 0.32582 0.0
C1668 C 0.54655 0.31094 0.3491 0.0
C1669 C 0.54824 0.29071 0.37003 0.0
C1670 C 0.53884 0.26539 0.36776 0.0
C1671 C 0.52784 0.26016 0.34445 0.0
H1672 H 0.55679 0.29468 0.38805 0.0
H1673 H 0.45148 0.24008 0.1613 0.0
H1674 H 0.64547 0.37526 0.2319 0.0
H1675 H 0.64544 0.42482 0.21808 0.0
H1676 H 0.61589 0.44549 0.29329 0.0
H1677 H 0.61574 0.39655 0.30689 0.0
H1678 H 0.60388 0.47617 0.25008 0.0
H1679 H 0.66308 0.44782 0.29009 0.0
H1680 H 0.69147 0.42015 0.28941 0.0
H1681 H 0.7044 0.45274 0.20812 0.0
H1682 H 0.67595 0.48037 0.20825 0.0
H1683 H 0.63216 0.58322 0.33262 0.0
H1684 H 0.63347 0.53824 0.30923 0.0
H1685 H 0.64178 0.5792 0.22999 0.0
H1686 H 0.64024 0.62508 0.25337 0.0
H1687 H 0.66475 0.52124 0.25312 0.0
H1688 H 0.60735 0.56042 0.22233 0.0
H1689 H 0.57969 0.58884 0.22948 0.0
H1690 H 0.56369 0.53573 0.29758 0.0
H1691 H 0.59141 0.50727 0.29112 0.0
C1692 C 0.63867 0.39038 0.24512 0.0
C1693 C 0.63076 0.38213 0.2706 0.0
C1694 C 0.6387 0.41864 0.23725 0.0
C1695 C 0.63079 0.43888 0.25477 0.0
C1696 C 0.62202 0.43028 0.27937 0.0
C1697 C 0.62204 0.40226 0.28723 0.0
C1698 C 0.63289 0.46929 0.24958 0.0
C1699 C 0.61719 0.48605 0.25003 0.0
C1700 C 0.65024 0.48226 0.24897 0.0
C1701 C 0.66733 0.46584 0.24902 0.0
C1702 C 0.67194 0.44893 0.27202 0.0
C1703 C 0.68803 0.43328 0.27174 0.0
C1704 C 0.6997 0.43462 0.24869 0.0
C1705 C 0.69532 0.45167 0.22592 0.0
C1706 C 0.67923 0.46732 0.22608 0.0
C1707 C 0.63445 0.5829 0.31025 0.0
C1708 C 0.63583 0.60785 0.29481 0.0
C1709 C 0.63528 0.55709 0.29695 0.0
C1710 C 0.63756 0.55552 0.26796 0.0
C1711 C 0.63999 0.58014 0.25245 0.0
C1712 C 0.63911 0.60625 0.26583 0.0
C1713 C 0.63577 0.52782 0.25462 0.0
C1714 C 0.65146 0.51149 0.2512 0.0
C1715 C 0.61842 0.51517 0.2527 0.0
C1716 C 0.60149 0.53178 0.25626 0.0
C1717 C 0.59798 0.5549 0.23892 0.0
C1718 C 0.58229 0.571 0.24284 0.0
C1719 C 0.56995 0.5641 0.26398 0.0
C1720 C 0.57325 0.54103 0.28119 0.0
C1721 C 0.58894 0.52488 0.27737 0.0
H1722 H 0.55782 0.57662 0.26701 0.0
H1723 H 0.71216 0.42251 0.24852 0.0
H1724 H 0.57191 0.66195 0.28395 0.0
H1725 H 0.54057 0.67026 0.26926 0.0
H1726 H 0.54646 0.75791 0.28888 0.0
H1727 H 0.57806 0.74929 0.304 0.0
H1728 H 0.51796 0.73758 0.31427 0.0
H1729 H 0.53711 0.73572 0.22046 0.0
H1730 H 0.55367 0.71963 0.17862 0.0
H1731 H 0.52494 0.64149 0.18123 0.0
H1732 H 0.50838 0.65691 0.22333 0.0
H1733 H 0.42131 0.73262 0.29412 0.0
H1734 H 0.45269 0.74747 0.28382 0.0
H1735 H 0.46808 0.6614 0.27072 0.0
H1736 H 0.43703 0.64662 0.28071 0.0
H1737 H 0.4854 0.69496 0.23404 0.0
H1738 H 0.47269 0.69475 0.33477 0.0
H1739 H 0.45795 0.71097 0.37821 0.0
H1740 H 0.4758 0.79488 0.36169 0.0
H1741 H 0.4904 0.77921 0.31795 0.0
C1742 C 0.56671 0.68317 0.2841 0.0
C1743 C 0.5774 0.70507 0.29466 0.0
C1744 C 0.54878 0.68797 0.27563 0.0
C1745 C 0.54108 0.71481 0.27762 0.0
C1746 C 0.5521 0.73707 0.28692 0.0
C1747 C 0.57017 0.73223 0.29533 0.0
C1748 C 0.52102 0.71829 0.27385 0.0
C1749 C 0.51087 0.72905 0.29627 0.0
C1750 C 0.51164 0.70695 0.25056 0.0
C1751 C 0.52153 0.69748 0.22516 0.0
C1752 C 0.5344 0.71503 0.21223 0.0
C1753 C 0.54378 0.70604 0.18844 0.0
C1754 C 0.54037 0.67955 0.17728 0.0
C1755 C 0.52755 0.66201 0.18988 0.0
C1756 C 0.51813 0.6709 0.21368 0.0
C1757 C 0.4313 0.717 0.28833 0.0
C1758 C 0.42672 0.68843 0.28847 0.0
C1759 C 0.44926 0.72547 0.28265 0.0
C1760 C 0.46285 0.70551 0.27687 0.0
C1761 C 0.45792 0.67722 0.27515 0.0
C1762 C 0.44012 0.66877 0.281 0.0
C1763 C 0.48251 0.71316 0.27495 0.0
C1764 C 0.49254 0.70438 0.25152 0.0
C1765 C 0.49181 0.72645 0.29725 0.0
C1766 C 0.48239 0.7359 0.32292 0.0
C1767 C 0.47325 0.71671 0.34022 0.0
C1768 C 0.46497 0.7258 0.36493 0.0
C1769 C 0.46593 0.75395 0.37265 0.0
C1770 C 0.47504 0.7731 0.35563 0.0
C1771 C 0.48329 0.76415 0.33088 0.0
H1772 H 0.45974 0.76095 0.3919 0.0
H1773 H 0.54765 0.67262 0.15887 0.0
H1774 H 0.3694 0.41168 0.33273 0.0
H1775 H 0.36479 0.45739 0.31133 0.0
H1776 H 0.37278 0.42159 0.22951 0.0
H1777 H 0.37696 0.37504 0.25098 0.0
H1778 H 0.39529 0.47544 0.24981 0.0
H1779 H 0.33626 0.44114 0.22969 0.0
H1780 H 0.3079 0.41498 0.23843 0.0
H1781 H 0.29571 0.46851 0.30803 0.0
H1782 H 0.32416 0.4947 0.30003 0.0
H1783 H 0.37276 0.62522 0.23591 0.0
H1784 H 0.37214 0.57564 0.22139 0.0
H1785 H 0.35883 0.55154 0.30585 0.0
H1786 H 0.35992 0.6002 0.32046 0.0
H1787 H 0.33667 0.52577 0.26158 0.0
H1788 H 0.40006 0.54703 0.2895 0.0
H1789 H 0.42893 0.5727 0.28333 0.0
H1790 H 0.43268 0.54318 0.19872 0.0
H1791 H 0.40364 0.51769 0.20432 0.0
C1792 C 0.37006 0.41341 0.31016 0.0
C1793 C 0.37359 0.38986 0.29351 0.0
C1794 C 0.36739 0.43951 0.29798 0.0
C1795 C 0.36846 0.44276 0.26891 0.0
C1796 C 0.37189 0.41936 0.25201 0.0
C1797 C 0.37418 0.39289 0.26424 0.0
C1798 C 0.36648 0.47122 0.25725 0.0
C1799 C 0.38236 0.48636 0.25117 0.0
C1800 C 0.34964 0.48537 0.25932 0.0
C1801 C 0.3324 0.46986 0.26427 0.0
C1802 C 0.3276 0.44722 0.24699 0.0
C1803 C 0.31149 0.4324 0.25179 0.0
C1804 C 0.30001 0.44007 0.27378 0.0
C1805 C 0.30461 0.46261 0.29098 0.0
C1806 C 0.32072 0.47749 0.28628 0.0
C1807 C 0.36968 0.60924 0.25123 0.0
C1808 C 0.36649 0.61647 0.27931 0.0
C1809 C 0.36928 0.58106 0.24294 0.0
C1810 C 0.36528 0.56007 0.26255 0.0
C1811 C 0.36177 0.56747 0.29037 0.0
C1812 C 0.36255 0.59529 0.29872 0.0
C1813 C 0.36557 0.53001 0.25533 0.0
C1814 C 0.3494 0.51469 0.25838 0.0
C1815 C 0.38212 0.51571 0.25041 0.0
C1816 C 0.39959 0.53083 0.24718 0.0
C1817 C 0.40696 0.54625 0.26951 0.0
C1818 C 0.42336 0.56072 0.26614 0.0
C1819 C 0.4326 0.55966 0.24062 0.0
C1820 C 0.42548 0.54405 0.21845 0.0
C1821 C 0.40905 0.52961 0.2217 0.0
H1822 H 0.4453 0.57086 0.23804 0.0
H1823 H 0.28754 0.42857 0.27747 0.0
loop_
_geom_bond_atom_site_label_1
_geom_bond_atom_site_label_2
_geom_bond_distance
_geom_bond_site_symmetry_2
_ccdc_geom_bond_type
Co0 O1 2.216 . S
Co0 O2 2.091 . S
Co0 O4 2.004 . S
Co0 O10 2.021 . S
Co0 O12 2.137 . S
Co0 O13 2.244 . S
O1 Co0 2.216 . S
O1 C8 1.247 . S
O2 Co0 2.091 . S
O2 C8 1.261 . S
C3 O12 1.247 . S
C3 O13 1.272 . S
O4 Co0 2.004 . S
O4 C9 1.259 . S
Co5 O6 2.061 . S
Co5 O11 2.052 . S
Co5 O13 2.135 . S
O6 Co5 2.061 . S
O6 C9 1.235 . S
C7 O10 1.238 . S
C7 O11 1.241 . S
C8 O1 1.247 . S
C8 O2 1.261 . S
C9 O4 1.259 . S
C9 O6 1.235 . S
O10 Co0 2.021 . S
O10 C7 1.238 . S
O11 Co5 2.052 . S
O11 C7 1.241 . S
O12 Co0 2.137 . S
O12 C3 1.247 . S
O13 Co0 2.244 . S
O13 C3 1.272 . S
O13 Co5 2.135 . S
Co14 O15 2.216 . S
Co14 O16 2.091 . S
Co14 O18 2.004 . S
Co14 O24 2.021 . S
Co14 O26 2.137 . S
Co14 O27 2.244 . S
O15 Co14 2.216 . S
O15 C22 1.247 . S
O16 Co14 2.091 . S
O16 C22 1.261 . S
C17 O26 1.247 . S
C17 O27 1.272 . S
O18 Co14 2.004 . S
O18 C23 1.259 . S
Co19 O20 2.061 . S
Co19 O25 2.052 . S
Co19 O27 2.135 . S
O20 Co19 2.061 . S
O20 C23 1.235 . S
C21 O24 1.238 . S
C21 O25 1.241 . S
C22 O15 1.247 . S
C22 O16 1.261 . S
C23 O18 1.259 . S
C23 O20 1.235 . S
O24 Co14 2.021 . S
O24 C21 1.238 . S
O25 Co19 2.052 . S
O25 C21 1.241 . S
O26 Co14 2.137 . S
O26 C17 1.247 . S
O27 Co14 2.244 . S
O27 C17 1.272 . S
O27 Co19 2.135 . S
Co28 O29 2.216 . S
Co28 O30 2.091 . S
Co28 O32 2.004 . S
Co28 O38 2.021 . S
Co28 O40 2.137 . S
Co28 O41 2.244 . S
O29 Co28 2.216 . S
O29 C36 1.247 . S
O30 Co28 2.091 . S
O30 C36 1.261 . S
C31 O40 1.247 . S
C31 O41 1.272 . S
O32 Co28 2.004 . S
O32 C37 1.259 . S
Co33 O34 2.061 . S
Co33 O39 2.052 . S
Co33 O41 2.135 . S
O34 Co33 2.061 . S
O34 C37 1.235 . S
C35 O38 1.238 . S
C35 O39 1.241 . S
C36 O29 1.247 . S
C36 O30 1.261 . S
C37 O32 1.259 . S
C37 O34 1.235 . S
O38 Co28 2.021 . S
O38 C35 1.238 . S
O39 Co33 2.052 . S
O39 C35 1.241 . S
O40 Co28 2.137 . S
O40 C31 1.247 . S
O41 Co28 2.244 . S
O41 C31 1.272 . S
O41 Co33 2.135 . S
Co42 O43 2.216 . S
Co42 O44 2.091 . S
Co42 O46 2.004 . S
Co42 O52 2.021 . S
Co42 O54 2.137 . S
Co42 O55 2.244 . S
O43 Co42 2.216 . S
O43 C50 1.247 . S
O44 Co42 2.091 . S
O44 C50 1.261 . S
C45 O54 1.247 . S
C45 O55 1.272 . S
O46 Co42 2.004 . S
O46 C51 1.259 . S
Co47 O48 2.061 . S
Co47 O53 2.052 . S
Co47 O55 2.135 . S
O48 Co47 2.061 . S
O48 C51 1.235 . S
C49 O52 1.238 . S
C49 O53 1.241 . S
C50 O43 1.247 . S
C50 O44 1.261 . S
C51 O46 1.259 . S
C51 O48 1.235 . S
O52 Co42 2.021 . S
O52 C49 1.238 . S
O53 Co47 2.052 . S
O53 C49 1.241 . S
O54 Co42 2.137 . S
O54 C45 1.247 . S
O55 Co42 2.244 . S
O55 C45 1.272 . S
O55 Co47 2.135 . S
Co56 O57 2.216 . S
Co56 O58 2.091 . S
Co56 O60 2.004 . S
Co56 O66 2.021 . S
Co56 O68 2.137 . S
Co56 O69 2.244 . S
O57 Co56 2.216 . S
O57 C64 1.247 . S
O58 Co56 2.091 . S
O58 C64 1.261 . S
C59 O68 1.247 . S
C59 O69 1.272 . S
O60 Co56 2.004 . S
O60 C65 1.259 . S
Co61 O62 2.061 . S
Co61 O67 2.052 . S
Co61 O69 2.135 . S
O62 Co61 2.061 . S
O62 C65 1.235 . S
C63 O66 1.238 . S
C63 O67 1.241 . S
C64 O57 1.247 . S
C64 O58 1.261 . S
C65 O60 1.259 . S
C65 O62 1.235 . S
O66 Co56 2.021 . S
O66 C63 1.238 . S
O67 Co61 2.052 . S
O67 C63 1.241 . S
O68 Co56 2.137 . S
O68 C59 1.247 . S
O69 Co56 2.244 . S
O69 C59 1.272 . S
O69 Co61 2.135 . S
Co70 O71 2.216 . S
Co70 O72 2.091 . S
Co70 O74 2.004 . S
Co70 O80 2.021 . S
Co70 O82 2.137 . S
Co70 O83 2.244 . S
O71 Co70 2.216 . S
O71 C78 1.247 . S
O72 Co70 2.091 . S
O72 C78 1.261 . S
C73 O82 1.247 . S
C73 O83 1.272 . S
O74 Co70 2.004 . S
O74 C79 1.259 . S
Co75 O76 2.061 . S
Co75 O81 2.052 . S
Co75 O83 2.135 . S
O76 Co75 2.061 . S
O76 C79 1.235 . S
C77 O80 1.238 . S
C77 O81 1.241 . S
C78 O71 1.247 . S
C78 O72 1.261 . S
C79 O74 1.259 . S
C79 O76 1.235 . S
O80 Co70 2.021 . S
O80 C77 1.238 . S
O81 Co75 2.052 . S
O81 C77 1.241 . S
O82 Co70 2.137 . S
O82 C73 1.247 . S
O83 Co70 2.244 . S
O83 C73 1.272 . S
O83 Co75 2.135 . S
Co84 O85 2.216 . S
Co84 O86 2.091 . S
Co84 O88 2.004 . S
Co84 O94 2.021 . S
Co84 O96 2.137 . S
Co84 O97 2.244 . S
O85 Co84 2.216 . S
O85 C92 1.247 . S
O86 Co84 2.091 . S
O86 C92 1.261 . S
C87 O96 1.247 . S
C87 O97 1.272 . S
O88 Co84 2.004 . S
O88 C93 1.259 . S
Co89 O90 2.061 . S
Co89 O95 2.052 . S
Co89 O97 2.135 . S
O90 Co89 2.061 . S
O90 C93 1.235 . S
C91 O94 1.238 . S
C91 O95 1.241 . S
C92 O85 1.247 . S
C92 O86 1.261 . S
C93 O88 1.259 . S
C93 O90 1.235 . S
O94 Co84 2.021 . S
O94 C91 1.238 . S
O95 Co89 2.052 . S
O95 C91 1.241 . S
O96 Co84 2.137 . S
O96 C87 1.247 . S
O97 Co84 2.244 . S
O97 C87 1.272 . S
O97 Co89 2.135 . S
Co98 O99 2.216 . S
Co98 O100 2.091 . S
Co98 O102 2.004 . S
Co98 O108 2.021 . S
Co98 O110 2.137 . S
Co98 O111 2.244 . S
O99 Co98 2.216 . S
O99 C106 1.247 . S
O100 Co98 2.091 . S
O100 C106 1.261 . S
C101 O110 1.247 . S
C101 O111 1.272 . S
O102 Co98 2.004 . S
O102 C107 1.259 . S
Co103 O104 2.061 . S
Co103 O109 2.052 . S
Co103 O111 2.135 . S
O104 Co103 2.061 . S
O104 C107 1.235 . S
C105 O108 1.238 . S
C105 O109 1.241 . S
C106 O99 1.247 . S
C106 O100 1.261 . S
C107 O102 1.259 . S
C107 O104 1.235 . S
O108 Co98 2.021 . S
O108 C105 1.238 . S
O109 Co103 2.052 . S
O109 C105 1.241 . S
O110 Co98 2.137 . S
O110 C101 1.247 . S
O111 Co98 2.244 . S
O111 C101 1.272 . S
O111 Co103 2.135 . S
Co112 O113 2.216 . S
Co112 O114 2.091 . S
Co112 O116 2.004 . S
Co112 O122 2.021 . S
Co112 O124 2.137 . S
Co112 O125 2.244 . S
O113 Co112 2.216 . S
O113 C120 1.247 . S
O114 Co112 2.091 . S
O114 C120 1.261 . S
C115 O124 1.247 . S
C115 O125 1.272 . S
O116 Co112 2.004 . S
O116 C121 1.259 . S
Co117 O118 2.061 . S
Co117 O123 2.052 . S
Co117 O125 2.135 . S
O118 Co117 2.061 . S
O118 C121 1.235 . S
C119 O122 1.238 . S
C119 O123 1.241 . S
C120 O113 1.247 . S
C120 O114 1.261 . S
C121 O116 1.259 . S
C121 O118 1.235 . S
O122 Co112 2.021 . S
O122 C119 1.238 . S
O123 Co117 2.052 . S
O123 C119 1.241 . S
O124 Co112 2.137 . S
O124 C115 1.247 . S
O125 Co112 2.244 . S
O125 C115 1.272 . S
O125 Co117 2.135 . S
Co126 O127 2.216 . S
Co126 O128 2.091 . S
Co126 O130 2.004 . S
Co126 O136 2.021 . S
Co126 O138 2.137 . S
Co126 O139 2.244 . S
O127 Co126 2.216 . S
O127 C134 1.247 . S
O128 Co126 2.091 . S
O128 C134 1.261 . S
C129 O138 1.247 . S
C129 O139 1.272 . S
O130 Co126 2.004 . S
O130 C135 1.259 . S
Co131 O132 2.061 . S
Co131 O137 2.052 . S
Co131 O139 2.135 . S
O132 Co131 2.061 . S
O132 C135 1.235 . S
C133 O136 1.238 . S
C133 O137 1.241 . S
C134 O127 1.247 . S
C134 O128 1.261 . S
C135 O130 1.259 . S
C135 O132 1.235 . S
O136 Co126 2.021 . S
O136 C133 1.238 . S
O137 Co131 2.052 . S
O137 C133 1.241 . S
O138 Co126 2.137 . S
O138 C129 1.247 . S
O139 Co126 2.244 . S
O139 C129 1.272 . S
O139 Co131 2.135 . S
Co140 O141 2.216 . S
Co140 O142 2.091 . S
Co140 O144 2.004 . S
Co140 O150 2.021 . S
Co140 O152 2.137 . S
Co140 O153 2.244 . S
O141 Co140 2.216 . S
O141 C148 1.247 . S
O142 Co140 2.091 . S
O142 C148 1.261 . S
C143 O152 1.247 . S
C143 O153 1.272 . S
O144 Co140 2.004 . S
O144 C149 1.259 . S
Co145 O146 2.061 . S
Co145 O151 2.052 . S
Co145 O153 2.135 . S
O146 Co145 2.061 . S
O146 C149 1.235 . S
C147 O150 1.238 . S
C147 O151 1.241 . S
C148 O141 1.247 . S
C148 O142 1.261 . S
C149 O144 1.259 . S
C149 O146 1.235 . S
O150 Co140 2.021 . S
O150 C147 1.238 . S
O151 Co145 2.052 . S
O151 C147 1.241 . S
O152 Co140 2.137 . S
O152 C143 1.247 . S
O153 Co140 2.244 . S
O153 C143 1.272 . S
O153 Co145 2.135 . S
Co154 O155 2.216 . S
Co154 O156 2.091 . S
Co154 O158 2.004 . S
Co154 O164 2.021 . S
Co154 O166 2.137 . S
Co154 O167 2.244 . S
O155 Co154 2.216 . S
O155 C162 1.247 . S
O156 Co154 2.091 . S
O156 C162 1.261 . S
C157 O166 1.247 . S
C157 O167 1.272 . S
O158 Co154 2.004 . S
O158 C163 1.259 . S
Co159 O160 2.061 . S
Co159 O165 2.052 . S
Co159 O167 2.135 . S
O160 Co159 2.061 . S
O160 C163 1.235 . S
C161 O164 1.238 . S
C161 O165 1.241 . S
C162 O155 1.247 . S
C162 O156 1.261 . S
C163 O158 1.259 . S
C163 O160 1.235 . S
O164 Co154 2.021 . S
O164 C161 1.238 . S
O165 Co159 2.052 . S
O165 C161 1.241 . S
O166 Co154 2.137 . S
O166 C157 1.247 . S
O167 Co154 2.244 . S
O167 C157 1.272 . S
O167 Co159 2.135 . S
Co168 O169 2.216 . S
Co168 O170 2.091 . S
Co168 O172 2.004 . S
Co168 O178 2.021 . S
Co168 O180 2.137 . S
Co168 O181 2.244 . S
O169 Co168 2.216 . S
O169 C176 1.247 . S
O170 Co168 2.091 . S
O170 C176 1.261 . S
C171 O180 1.247 . S
C171 O181 1.272 . S
O172 Co168 2.004 . S
O172 C177 1.259 . S
Co173 O174 2.061 . S
Co173 O179 2.052 . S
Co173 O181 2.135 . S
O174 Co173 2.061 . S
O174 C177 1.235 . S
C175 O178 1.238 . S
C175 O179 1.241 . S
C176 O169 1.247 . S
C176 O170 1.261 . S
C177 O172 1.259 . S
C177 O174 1.235 . S
O178 Co168 2.021 . S
O178 C175 1.238 . S
O179 Co173 2.052 . S
O179 C175 1.241 . S
O180 Co168 2.137 . S
O180 C171 1.247 . S
O181 Co168 2.244 . S
O181 C171 1.272 . S
O181 Co173 2.135 . S
Co182 O183 2.216 . S
Co182 O184 2.091 . S
Co182 O186 2.004 . S
Co182 O192 2.021 . S
Co182 O194 2.137 . S
Co182 O195 2.244 . S
O183 Co182 2.216 . S
O183 C190 1.247 . S
O184 Co182 2.091 . S
O184 C190 1.261 . S
C185 O194 1.247 . S
C185 O195 1.272 . S
O186 Co182 2.004 . S
O186 C191 1.259 . S
Co187 O188 2.061 . S
Co187 O193 2.052 . S
Co187 O195 2.135 . S
O188 Co187 2.061 . S
O188 C191 1.235 . S
C189 O192 1.238 . S
C189 O193 1.241 . S
C190 O183 1.247 . S
C190 O184 1.261 . S
C191 O186 1.259 . S
C191 O188 1.235 . S
O192 Co182 2.021 . S
O192 C189 1.238 . S
O193 Co187 2.052 . S
O193 C189 1.241 . S
O194 Co182 2.137 . S
O194 C185 1.247 . S
O195 Co182 2.244 . S
O195 C185 1.272 . S
O195 Co187 2.135 . S
Co196 O197 2.216 . S
Co196 O198 2.091 . S
Co196 O200 2.004 . S
Co196 O206 2.021 . S
Co196 O208 2.137 . S
Co196 O209 2.244 . S
O197 Co196 2.216 . S
O197 C204 1.247 . S
O198 Co196 2.091 . S
O198 C204 1.261 . S
C199 O208 1.247 . S
C199 O209 1.272 . S
O200 Co196 2.004 . S
O200 C205 1.259 . S
Co201 O202 2.061 . S
Co201 O207 2.052 . S
Co201 O209 2.135 . S
O202 Co201 2.061 . S
O202 C205 1.235 . S
C203 O206 1.238 . S
C203 O207 1.241 . S
C204 O197 1.247 . S
C204 O198 1.261 . S
C205 O200 1.259 . S
C205 O202 1.235 . S
O206 Co196 2.021 . S
O206 C203 1.238 . S
O207 Co201 2.052 . S
O207 C203 1.241 . S
O208 Co196 2.137 . S
O208 C199 1.247 . S
O209 Co196 2.244 . S
O209 C199 1.272 . S
O209 Co201 2.135 . S
Co210 O211 2.216 . S
Co210 O212 2.091 . S
Co210 O214 2.004 . S
Co210 O220 2.021 . S
Co210 O222 2.137 . S
Co210 O223 2.244 . S
O211 Co210 2.216 . S
O211 C218 1.247 . S
O212 Co210 2.091 . S
O212 C218 1.261 . S
C213 O222 1.247 . S
C213 O223 1.272 . S
O214 Co210 2.004 . S
O214 C219 1.259 . S
Co215 O216 2.061 . S
Co215 O221 2.052 . S
Co215 O223 2.135 . S
O216 Co215 2.061 . S
O216 C219 1.235 . S
C217 O220 1.238 . S
C217 O221 1.241 . S
C218 O211 1.247 . S
C218 O212 1.261 . S
C219 O214 1.259 . S
C219 O216 1.235 . S
O220 Co210 2.021 . S
O220 C217 1.238 . S
O221 Co215 2.052 . S
O221 C217 1.241 . S
O222 Co210 2.137 . S
O222 C213 1.247 . S
O223 Co210 2.244 . S
O223 C213 1.272 . S
O223 Co215 2.135 . S
H224 C242 0.951 . S
H225 C244 0.951 . S
H226 C246 0.950 . S
H227 C247 0.950 . S
H228 C249 0.950 . S
H229 C252 0.950 . S
H230 C253 0.950 . S
H231 C255 0.950 . S
H232 C256 0.950 . S
H233 C257 0.951 . S
H234 C259 0.951 . S
H235 C261 0.950 . S
H236 C262 0.950 . S
H237 C264 0.950 . S
H238 C267 0.950 . S
H239 C268 0.950 . S
H240 C270 0.950 . S
H241 C271 0.950 . S
C242 H224 0.951 . S
C242 C243 1.366 . S
C242 C244 1.388 . S
C243 C242 1.366 . S
C243 C247 1.385 . S
C244 H225 0.951 . S
C244 C242 1.388 . S
C244 C245 1.366 . S
C245 C244 1.366 . S
C245 C246 1.414 . S
C245 C248 1.499 . S
C246 H226 0.950 . S
C246 C245 1.414 . S
C246 C247 1.374 . S
C247 H227 0.950 . S
C247 C243 1.385 . S
C247 C246 1.374 . S
C248 C245 1.499 . S
C248 C249 1.373 . S
C248 C250 1.389 . S
C249 H228 0.950 . S
C249 C248 1.373 . S
C249 C265 1.377 . S
C250 C248 1.389 . S
C250 C251 1.524 . S
C250 C264 1.377 . S
C251 C250 1.524 . S
C251 C252 1.397 . S
C251 C256 1.363 . S
C252 H229 0.950 . S
C252 C251 1.397 . S
C252 C253 1.334 . S
C253 H230 0.950 . S
C253 C252 1.334 . S
C253 C254 1.287 . S
C254 C253 1.287 . S
C254 C255 1.524 . S
C254 H273 0.913 . S
C255 H231 0.950 . S
C255 C254 1.524 . S
C255 C256 1.415 . S
C256 H232 0.950 . S
C256 C251 1.363 . S
C256 C255 1.415 . S
C257 H233 0.951 . S
C257 C258 1.366 . S
C257 C259 1.388 . S
C258 C257 1.366 . S
C258 C262 1.385 . S
C259 H234 0.951 . S
C259 C257 1.388 . S
C259 C260 1.366 . S
C260 C259 1.366 . S
C260 C261 1.414 . S
C260 C263 1.499 . S
C261 H235 0.950 . S
C261 C260 1.414 . S
C261 C262 1.374 . S
C262 H236 0.950 . S
C262 C258 1.385 . S
C262 C261 1.374 . S
C263 C260 1.499 . S
C263 C264 1.373 . S
C263 C265 1.389 . S
C264 H237 0.950 . S
C264 C250 1.377 . S
C264 C263 1.373 . S
C265 C249 1.377 . S
C265 C263 1.389 . S
C265 C266 1.524 . S
C266 C265 1.524 . S
C266 C267 1.397 . S
C266 C271 1.363 . S
C267 H238 0.950 . S
C267 C266 1.397 . S
C267 C268 1.334 . S
C268 H239 0.950 . S
C268 C267 1.334 . S
C268 C269 1.287 . S
C269 C268 1.287 . S
C269 C270 1.524 . S
C269 H272 0.999 . S
C270 H240 0.950 . S
C270 C269 1.524 . S
C270 C271 1.415 . S
C271 H241 0.950 . S
C271 C266 1.363 . S
C271 C270 1.415 . S
H272 C269 0.999 . S
H273 C254 0.913 . S
H274 C292 0.951 . S
H275 C294 0.951 . S
H276 C296 0.950 . S
H277 C297 0.950 . S
H278 C299 0.950 . S
H279 C302 0.950 . S
H280 C303 0.950 . S
H281 C305 0.950 . S
H282 C306 0.950 . S
H283 C307 0.951 . S
H284 C309 0.951 . S
H285 C311 0.950 . S
H286 C312 0.950 . S
H287 C314 0.950 . S
H288 C317 0.950 . S
H289 C318 0.950 . S
H290 C320 0.950 . S
H291 C321 0.950 . S
C292 H274 0.951 . S
C292 C293 1.366 . S
C292 C294 1.388 . S
C293 C292 1.366 . S
C293 C297 1.385 . S
C294 H275 0.951 . S
C294 C292 1.388 . S
C294 C295 1.366 . S
C295 C294 1.366 . S
C295 C296 1.414 . S
C295 C298 1.499 . S
C296 H276 0.950 . S
C296 C295 1.414 . S
C296 C297 1.374 . S
C297 H277 0.950 . S
C297 C293 1.385 . S
C297 C296 1.374 . S
C298 C295 1.499 . S
C298 C299 1.373 . S
C298 C300 1.389 . S
C299 H278 0.950 . S
C299 C298 1.373 . S
C299 C315 1.377 . S
C300 C298 1.389 . S
C300 C301 1.524 . S
C300 C314 1.377 . S
C301 C300 1.524 . S
C301 C302 1.397 . S
C301 C306 1.363 . S
C302 H279 0.950 . S
C302 C301 1.397 . S
C302 C303 1.334 . S
C303 H280 0.950 . S
C303 C302 1.334 . S
C303 C304 1.287 . S
C304 C303 1.287 . S
C304 C305 1.524 . S
C304 H323 0.913 . S
C305 H281 0.950 . S
C305 C304 1.524 . S
C305 C306 1.415 . S
C306 H282 0.950 . S
C306 C301 1.363 . S
C306 C305 1.415 . S
C307 H283 0.951 . S
C307 C308 1.366 . S
C307 C309 1.388 . S
C308 C307 1.366 . S
C308 C312 1.385 . S
C309 H284 0.951 . S
C309 C307 1.388 . S
C309 C310 1.366 . S
C310 C309 1.366 . S
C310 C311 1.414 . S
C310 C313 1.499 . S
C311 H285 0.950 . S
C311 C310 1.414 . S
C311 C312 1.374 . S
C312 H286 0.950 . S
C312 C308 1.385 . S
C312 C311 1.374 . S
C313 C310 1.499 . S
C313 C314 1.373 . S
C313 C315 1.389 . S
C314 H287 0.950 . S
C314 C300 1.377 . S
C314 C313 1.373 . S
C315 C299 1.377 . S
C315 C313 1.389 . S
C315 C316 1.524 . S
C316 C315 1.524 . S
C316 C317 1.397 . S
C316 C321 1.363 . S
C317 H288 0.950 . S
C317 C316 1.397 . S
C317 C318 1.334 . S
C318 H289 0.950 . S
C318 C317 1.334 . S
C318 C319 1.287 . S
C319 C318 1.287 . S
C319 C320 1.524 . S
C319 H322 0.999 . S
C320 H290 0.950 . S
C320 C319 1.524 . S
C320 C321 1.415 . S
C321 H291 0.950 . S
C321 C316 1.363 . S
C321 C320 1.415 . S
H322 C319 0.999 . S
H323 C304 0.913 . S
H324 C342 0.951 . S
H325 C344 0.951 . S
H326 C346 0.950 . S
H327 C347 0.950 . S
H328 C349 0.950 . S
H329 C352 0.950 . S
H330 C353 0.950 . S
H331 C355 0.950 . S
H332 C356 0.950 . S
H333 C357 0.951 . S
H334 C359 0.951 . S
H335 C361 0.950 . S
H336 C362 0.950 . S
H337 C364 0.950 . S
H338 C367 0.950 . S
H339 C368 0.950 . S
H340 C370 0.950 . S
H341 C371 0.950 . S
C342 H324 0.951 . S
C342 C343 1.366 . S
C342 C344 1.388 . S
C343 C342 1.366 . S
C343 C347 1.385 . S
C344 H325 0.951 . S
C344 C342 1.388 . S
C344 C345 1.366 . S
C345 C344 1.366 . S
C345 C346 1.414 . S
C345 C348 1.499 . S
C346 H326 0.950 . S
C346 C345 1.414 . S
C346 C347 1.374 . S
C347 H327 0.950 . S
C347 C343 1.385 . S
C347 C346 1.374 . S
C348 C345 1.499 . S
C348 C349 1.373 . S
C348 C350 1.389 . S
C349 H328 0.950 . S
C349 C348 1.373 . S
C349 C365 1.377 . S
C350 C348 1.389 . S
C350 C351 1.524 . S
C350 C364 1.377 . S
C351 C350 1.524 . S
C351 C352 1.397 . S
C351 C356 1.363 . S
C352 H329 0.950 . S
C352 C351 1.397 . S
C352 C353 1.334 . S
C353 H330 0.950 . S
C353 C352 1.334 . S
C353 C354 1.287 . S
C354 C353 1.287 . S
C354 C355 1.524 . S
C354 H373 0.913 . S
C355 H331 0.950 . S
C355 C354 1.524 . S
C355 C356 1.415 . S
C356 H332 0.950 . S
C356 C351 1.363 . S
C356 C355 1.415 . S
C357 H333 0.951 . S
C357 C358 1.366 . S
C357 C359 1.388 . S
C358 C357 1.366 . S
C358 C362 1.385 . S
C359 H334 0.951 . S
C359 C357 1.388 . S
C359 C360 1.366 . S
C360 C359 1.366 . S
C360 C361 1.414 . S
C360 C363 1.499 . S
C361 H335 0.950 . S
C361 C360 1.414 . S
C361 C362 1.374 . S
C362 H336 0.950 . S
C362 C358 1.385 . S
C362 C361 1.374 . S
C363 C360 1.499 . S
C363 C364 1.373 . S
C363 C365 1.389 . S
C364 H337 0.950 . S
C364 C350 1.377 . S
C364 C363 1.373 . S
C365 C349 1.377 . S
C365 C363 1.389 . S
C365 C366 1.524 . S
C366 C365 1.524 . S
C366 C367 1.397 . S
C366 C371 1.363 . S
C367 H338 0.950 . S
C367 C366 1.397 . S
C367 C368 1.334 . S
C368 H339 0.950 . S
C368 C367 1.334 . S
C368 C369 1.287 . S
C369 C368 1.287 . S
C369 C370 1.524 . S
C369 H372 0.999 . S
C370 H340 0.950 . S
C370 C369 1.524 . S
C370 C371 1.415 . S
C371 H341 0.950 . S
C371 C366 1.363 . S
C371 C370 1.415 . S
H372 C369 0.999 . S
H373 C354 0.913 . S
H374 C392 0.951 . S
H375 C394 0.951 . S
H376 C396 0.950 . S
H377 C397 0.950 . S
H378 C399 0.950 . S
H379 C402 0.950 . S
H380 C403 0.950 . S
H381 C405 0.950 . S
H382 C406 0.950 . S
H383 C407 0.951 . S
H384 C409 0.951 . S
H385 C411 0.950 . S
H386 C412 0.950 . S
H387 C414 0.950 . S
H388 C417 0.950 . S
H389 C418 0.950 . S
H390 C420 0.950 . S
H391 C421 0.950 . S
C392 H374 0.951 . S
C392 C393 1.366 . S
C392 C394 1.388 . S
C393 C392 1.366 . S
C393 C397 1.385 . S
C394 H375 0.951 . S
C394 C392 1.388 . S
C394 C395 1.366 . S
C395 C394 1.366 . S
C395 C396 1.414 . S
C395 C398 1.499 . S
C396 H376 0.950 . S
C396 C395 1.414 . S
C396 C397 1.374 . S
C397 H377 0.950 . S
C397 C393 1.385 . S
C397 C396 1.374 . S
C398 C395 1.499 . S
C398 C399 1.373 . S
C398 C400 1.389 . S
C399 H378 0.950 . S
C399 C398 1.373 . S
C399 C415 1.377 . S
C400 C398 1.389 . S
C400 C401 1.524 . S
C400 C414 1.377 . S
C401 C400 1.524 . S
C401 C402 1.397 . S
C401 C406 1.363 . S
C402 H379 0.950 . S
C402 C401 1.397 . S
C402 C403 1.334 . S
C403 H380 0.950 . S
C403 C402 1.334 . S
C403 C404 1.287 . S
C404 C403 1.287 . S
C404 C405 1.524 . S
C404 H423 0.913 . S
C405 H381 0.950 . S
C405 C404 1.524 . S
C405 C406 1.415 . S
C406 H382 0.950 . S
C406 C401 1.363 . S
C406 C405 1.415 . S
C407 H383 0.951 . S
C407 C408 1.366 . S
C407 C409 1.388 . S
C408 C407 1.366 . S
C408 C412 1.385 . S
C409 H384 0.951 . S
C409 C407 1.388 . S
C409 C410 1.366 . S
C410 C409 1.366 . S
C410 C411 1.414 . S
C410 C413 1.499 . S
C411 H385 0.950 . S
C411 C410 1.414 . S
C411 C412 1.374 . S
C412 H386 0.950 . S
C412 C408 1.385 . S
C412 C411 1.374 . S
C413 C410 1.499 . S
C413 C414 1.373 . S
C413 C415 1.389 . S
C414 H387 0.950 . S
C414 C400 1.377 . S
C414 C413 1.373 . S
C415 C399 1.377 . S
C415 C413 1.389 . S
C415 C416 1.524 . S
C416 C415 1.524 . S
C416 C417 1.397 . S
C416 C421 1.363 . S
C417 H388 0.950 . S
C417 C416 1.397 . S
C417 C418 1.334 . S
C418 H389 0.950 . S
C418 C417 1.334 . S
C418 C419 1.287 . S
C419 C418 1.287 . S
C419 C420 1.524 . S
C419 H422 0.999 . S
C420 H390 0.950 . S
C420 C419 1.524 . S
C420 C421 1.415 . S
C421 H391 0.950 . S
C421 C416 1.363 . S
C421 C420 1.415 . S
H422 C419 0.999 . S
H423 C404 0.913 . S
H424 C442 0.951 . S
H425 C444 0.951 . S
H426 C446 0.950 . S
H427 C447 0.950 . S
H428 C449 0.950 . S
H429 C452 0.950 . S
H430 C453 0.950 . S
H431 C455 0.950 . S
H432 C456 0.950 . S
H433 C457 0.951 . S
H434 C459 0.951 . S
H435 C461 0.950 . S
H436 C462 0.950 . S
H437 C464 0.950 . S
H438 C467 0.950 . S
H439 C468 0.950 . S
H440 C470 0.950 . S
H441 C471 0.950 . S
C442 H424 0.951 . S
C442 C443 1.366 . S
C442 C444 1.388 . S
C443 C442 1.366 . S
C443 C447 1.385 . S
C444 H425 0.951 . S
C444 C442 1.388 . S
C444 C445 1.366 . S
C445 C444 1.366 . S
C445 C446 1.414 . S
C445 C448 1.499 . S
C446 H426 0.950 . S
C446 C445 1.414 . S
C446 C447 1.374 . S
C447 H427 0.950 . S
C447 C443 1.385 . S
C447 C446 1.374 . S
C448 C445 1.499 . S
C448 C449 1.373 . S
C448 C450 1.389 . S
C449 H428 0.950 . S
C449 C448 1.373 . S
C449 C465 1.377 . S
C450 C448 1.389 . S
C450 C451 1.524 . S
C450 C464 1.377 . S
C451 C450 1.524 . S
C451 C452 1.397 . S
C451 C456 1.363 . S
C452 H429 0.950 . S
C452 C451 1.397 . S
C452 C453 1.334 . S
C453 H430 0.950 . S
C453 C452 1.334 . S
C453 C454 1.287 . S
C454 C453 1.287 . S
C454 C455 1.524 . S
C454 H473 0.913 . S
C455 H431 0.950 . S
C455 C454 1.524 . S
C455 C456 1.415 . S
C456 H432 0.950 . S
C456 C451 1.363 . S
C456 C455 1.415 . S
C457 H433 0.951 . S
C457 C458 1.366 . S
C457 C459 1.388 . S
C458 C457 1.366 . S
C458 C462 1.385 . S
C459 H434 0.951 . S
C459 C457 1.388 . S
C459 C460 1.366 . S
C460 C459 1.366 . S
C460 C461 1.414 . S
C460 C463 1.499 . S
C461 H435 0.950 . S
C461 C460 1.414 . S
C461 C462 1.374 . S
C462 H436 0.950 . S
C462 C458 1.385 . S
C462 C461 1.374 . S
C463 C460 1.499 . S
C463 C464 1.373 . S
C463 C465 1.389 . S
C464 H437 0.950 . S
C464 C450 1.377 . S
C464 C463 1.373 . S
C465 C449 1.377 . S
C465 C463 1.389 . S
C465 C466 1.524 . S
C466 C465 1.524 . S
C466 C467 1.397 . S
C466 C471 1.363 . S
C467 H438 0.950 . S
C467 C466 1.397 . S
C467 C468 1.334 . S
C468 H439 0.950 . S
C468 C467 1.334 . S
C468 C469 1.287 . S
C469 C468 1.287 . S
C469 C470 1.524 . S
C469 H472 0.999 . S
C470 H440 0.950 . S
C470 C469 1.524 . S
C470 C471 1.415 . S
C471 H441 0.950 . S
C471 C466 1.363 . S
C471 C470 1.415 . S
H472 C469 0.999 . S
H473 C454 0.913 . S
H474 C492 0.951 . S
H475 C494 0.951 . S
H476 C496 0.950 . S
H477 C497 0.950 . S
H478 C499 0.950 . S
H479 C502 0.950 . S
H480 C503 0.950 . S
H481 C505 0.950 . S
H482 C506 0.950 . S
H483 C507 0.951 . S
H484 C509 0.951 . S
H485 C511 0.950 . S
H486 C512 0.950 . S
H487 C514 0.950 . S
H488 C517 0.950 . S
H489 C518 0.950 . S
H490 C520 0.950 . S
H491 C521 0.950 . S
C492 H474 0.951 . S
C492 C493 1.366 . S
C492 C494 1.388 . S
C493 C492 1.366 . S
C493 C497 1.385 . S
C494 H475 0.951 . S
C494 C492 1.388 . S
C494 C495 1.366 . S
C495 C494 1.366 . S
C495 C496 1.414 . S
C495 C498 1.499 . S
C496 H476 0.950 . S
C496 C495 1.414 . S
C496 C497 1.374 . S
C497 H477 0.950 . S
C497 C493 1.385 . S
C497 C496 1.374 . S
C498 C495 1.499 . S
C498 C499 1.373 . S
C498 C500 1.389 . S
C499 H478 0.950 . S
C499 C498 1.373 . S
C499 C515 1.377 . S
C500 C498 1.389 . S
C500 C501 1.524 . S
C500 C514 1.377 . S
C501 C500 1.524 . S
C501 C502 1.397 . S
C501 C506 1.363 . S
C502 H479 0.950 . S
C502 C501 1.397 . S
C502 C503 1.334 . S
C503 H480 0.950 . S
C503 C502 1.334 . S
C503 C504 1.287 . S
C504 C503 1.287 . S
C504 C505 1.524 . S
C504 H523 0.913 . S
C505 H481 0.950 . S
C505 C504 1.524 . S
C505 C506 1.415 . S
C506 H482 0.950 . S
C506 C501 1.363 . S
C506 C505 1.415 . S
C507 H483 0.951 . S
C507 C508 1.366 . S
C507 C509 1.388 . S
C508 C507 1.366 . S
C508 C512 1.385 . S
C509 H484 0.951 . S
C509 C507 1.388 . S
C509 C510 1.366 . S
C510 C509 1.366 . S
C510 C511 1.414 . S
C510 C513 1.499 . S
C511 H485 0.950 . S
C511 C510 1.414 . S
C511 C512 1.374 . S
C512 H486 0.950 . S
C512 C508 1.385 . S
C512 C511 1.374 . S
C513 C510 1.499 . S
C513 C514 1.373 . S
C513 C515 1.389 . S
C514 H487 0.950 . S
C514 C500 1.377 . S
C514 C513 1.373 . S
C515 C499 1.377 . S
C515 C513 1.389 . S
C515 C516 1.524 . S
C516 C515 1.524 . S
C516 C517 1.397 . S
C516 C521 1.363 . S
C517 H488 0.950 . S
C517 C516 1.397 . S
C517 C518 1.334 . S
C518 H489 0.950 . S
C518 C517 1.334 . S
C518 C519 1.287 . S
C519 C518 1.287 . S
C519 C520 1.524 . S
C519 H522 0.999 . S
C520 H490 0.950 . S
C520 C519 1.524 . S
C520 C521 1.415 . S
C521 H491 0.950 . S
C521 C516 1.363 . S
C521 C520 1.415 . S
H522 C519 0.999 . S
H523 C504 0.913 . S
H524 C542 0.951 . S
H525 C544 0.951 . S
H526 C546 0.950 . S
H527 C547 0.950 . S
H528 C549 0.950 . S
H529 C552 0.950 . S
H530 C553 0.950 . S
H531 C555 0.950 . S
H532 C556 0.950 . S
H533 C557 0.951 . S
H534 C559 0.951 . S
H535 C561 0.950 . S
H536 C562 0.950 . S
H537 C564 0.950 . S
H538 C567 0.950 . S
H539 C568 0.950 . S
H540 C570 0.950 . S
H541 C571 0.950 . S
C542 H524 0.951 . S
C542 C543 1.366 . S
C542 C544 1.388 . S
C543 C542 1.366 . S
C543 C547 1.385 . S
C544 H525 0.951 . S
C544 C542 1.388 . S
C544 C545 1.366 . S
C545 C544 1.366 . S
C545 C546 1.414 . S
C545 C548 1.499 . S
C546 H526 0.950 . S
C546 C545 1.414 . S
C546 C547 1.374 . S
C547 H527 0.950 . S
C547 C543 1.385 . S
C547 C546 1.374 . S
C548 C545 1.499 . S
C548 C549 1.373 . S
C548 C550 1.389 . S
C549 H528 0.950 . S
C549 C548 1.373 . S
C549 C565 1.377 . S
C550 C548 1.389 . S
C550 C551 1.524 . S
C550 C564 1.377 . S
C551 C550 1.524 . S
C551 C552 1.397 . S
C551 C556 1.363 . S
C552 H529 0.950 . S
C552 C551 1.397 . S
C552 C553 1.334 . S
C553 H530 0.950 . S
C553 C552 1.334 . S
C553 C554 1.287 . S
C554 C553 1.287 . S
C554 C555 1.524 . S
C554 H573 0.913 . S
C555 H531 0.950 . S
C555 C554 1.524 . S
C555 C556 1.415 . S
C556 H532 0.950 . S
C556 C551 1.363 . S
C556 C555 1.415 . S
C557 H533 0.951 . S
C557 C558 1.366 . S
C557 C559 1.388 . S
C558 C557 1.366 . S
C558 C562 1.385 . S
C559 H534 0.951 . S
C559 C557 1.388 . S
C559 C560 1.366 . S
C560 C559 1.366 . S
C560 C561 1.414 . S
C560 C563 1.499 . S
C561 H535 0.950 . S
C561 C560 1.414 . S
C561 C562 1.374 . S
C562 H536 0.950 . S
C562 C558 1.385 . S
C562 C561 1.374 . S
C563 C560 1.499 . S
C563 C564 1.373 . S
C563 C565 1.389 . S
C564 H537 0.950 . S
C564 C550 1.377 . S
C564 C563 1.373 . S
C565 C549 1.377 . S
C565 C563 1.389 . S
C565 C566 1.524 . S
C566 C565 1.524 . S
C566 C567 1.397 . S
C566 C571 1.363 . S
C567 H538 0.950 . S
C567 C566 1.397 . S
C567 C568 1.334 . S
C568 H539 0.950 . S
C568 C567 1.334 . S
C568 C569 1.287 . S
C569 C568 1.287 . S
C569 C570 1.524 . S
C569 H572 0.999 . S
C570 H540 0.950 . S
C570 C569 1.524 . S
C570 C571 1.415 . S
C571 H541 0.950 . S
C571 C566 1.363 . S
C571 C570 1.415 . S
H572 C569 0.999 . S
H573 C554 0.913 . S
H574 C592 0.951 . S
H575 C594 0.951 . S
H576 C596 0.950 . S
H577 C597 0.950 . S
H578 C599 0.950 . S
H579 C602 0.950 . S
H580 C603 0.950 . S
H581 C605 0.950 . S
H582 C606 0.950 . S
H583 C607 0.951 . S
H584 C609 0.951 . S
H585 C611 0.950 . S
H586 C612 0.950 . S
H587 C614 0.950 . S
H588 C617 0.950 . S
H589 C618 0.950 . S
H590 C620 0.950 . S
H591 C621 0.950 . S
C592 H574 0.951 . S
C592 C593 1.366 . S
C592 C594 1.388 . S
C593 C592 1.366 . S
C593 C597 1.385 . S
C594 H575 0.951 . S
C594 C592 1.388 . S
C594 C595 1.366 . S
C595 C594 1.366 . S
C595 C596 1.414 . S
C595 C598 1.499 . S
C596 H576 0.950 . S
C596 C595 1.414 . S
C596 C597 1.374 . S
C597 H577 0.950 . S
C597 C593 1.385 . S
C597 C596 1.374 . S
C598 C595 1.499 . S
C598 C599 1.373 . S
C598 C600 1.389 . S
C599 H578 0.950 . S
C599 C598 1.373 . S
C599 C615 1.377 . S
C600 C598 1.389 . S
C600 C601 1.524 . S
C600 C614 1.377 . S
C601 C600 1.524 . S
C601 C602 1.397 . S
C601 C606 1.363 . S
C602 H579 0.950 . S
C602 C601 1.397 . S
C602 C603 1.334 . S
C603 H580 0.950 . S
C603 C602 1.334 . S
C603 C604 1.287 . S
C604 C603 1.287 . S
C604 C605 1.524 . S
C604 H623 0.913 . S
C605 H581 0.950 . S
C605 C604 1.524 . S
C605 C606 1.415 . S
C606 H582 0.950 . S
C606 C601 1.363 . S
C606 C605 1.415 . S
C607 H583 0.951 . S
C607 C608 1.366 . S
C607 C609 1.388 . S
C608 C607 1.366 . S
C608 C612 1.385 . S
C609 H584 0.951 . S
C609 C607 1.388 . S
C609 C610 1.366 . S
C610 C609 1.366 . S
C610 C611 1.414 . S
C610 C613 1.499 . S
C611 H585 0.950 . S
C611 C610 1.414 . S
C611 C612 1.374 . S
C612 H586 0.950 . S
C612 C608 1.385 . S
C612 C611 1.374 . S
C613 C610 1.499 . S
C613 C614 1.373 . S
C613 C615 1.389 . S
C614 H587 0.950 . S
C614 C600 1.377 . S
C614 C613 1.373 . S
C615 C599 1.377 . S
C615 C613 1.389 . S
C615 C616 1.524 . S
C616 C615 1.524 . S
C616 C617 1.397 . S
C616 C621 1.363 . S
C617 H588 0.950 . S
C617 C616 1.397 . S
C617 C618 1.334 . S
C618 H589 0.950 . S
C618 C617 1.334 . S
C618 C619 1.287 . S
C619 C618 1.287 . S
C619 C620 1.524 . S
C619 H622 0.999 . S
C620 H590 0.950 . S
C620 C619 1.524 . S
C620 C621 1.415 . S
C621 H591 0.950 . S
C621 C616 1.363 . S
C621 C620 1.415 . S
H622 C619 0.999 . S
H623 C604 0.913 . S
H624 C642 0.951 . S
H625 C644 0.951 . S
H626 C646 0.950 . S
H627 C647 0.950 . S
H628 C649 0.950 . S
H629 C652 0.950 . S
H630 C653 0.950 . S
H631 C655 0.950 . S
H632 C656 0.950 . S
H633 C657 0.951 . S
H634 C659 0.951 . S
H635 C661 0.950 . S
H636 C662 0.950 . S
H637 C664 0.950 . S
H638 C667 0.950 . S
H639 C668 0.950 . S
H640 C670 0.950 . S
H641 C671 0.950 . S
C642 H624 0.951 . S
C642 C643 1.366 . S
C642 C644 1.388 . S
C643 C642 1.366 . S
C643 C647 1.385 . S
C644 H625 0.951 . S
C644 C642 1.388 . S
C644 C645 1.366 . S
C645 C644 1.366 . S
C645 C646 1.414 . S
C645 C648 1.499 . S
C646 H626 0.950 . S
C646 C645 1.414 . S
C646 C647 1.374 . S
C647 H627 0.950 . S
C647 C643 1.385 . S
C647 C646 1.374 . S
C648 C645 1.499 . S
C648 C649 1.373 . S
C648 C650 1.389 . S
C649 H628 0.950 . S
C649 C648 1.373 . S
C649 C665 1.377 1_556 S
C650 C648 1.389 . S
C650 C651 1.524 . S
C650 C664 1.377 1_556 S
C651 C650 1.524 . S
C651 C652 1.397 . S
C651 C656 1.363 . S
C652 H629 0.950 . S
C652 C651 1.397 . S
C652 C653 1.334 . S
C653 H630 0.950 . S
C653 C652 1.334 . S
C653 C654 1.287 . S
C654 C653 1.287 . S
C654 C655 1.524 . S
C654 H673 0.913 . S
C655 H631 0.950 . S
C655 C654 1.524 . S
C655 C656 1.415 . S
C656 H632 0.950 . S
C656 C651 1.363 . S
C656 C655 1.415 . S
C657 H633 0.951 . S
C657 C658 1.366 . S
C657 C659 1.388 . S
C658 C657 1.366 . S
C658 C662 1.385 . S
C659 H634 0.951 . S
C659 C657 1.388 . S
C659 C660 1.366 . S
C660 C659 1.366 . S
C660 C661 1.414 . S
C660 C663 1.499 . S
C661 H635 0.950 . S
C661 C660 1.414 . S
C661 C662 1.374 . S
C662 H636 0.950 . S
C662 C658 1.385 . S
C662 C661 1.374 . S
C663 C660 1.499 . S
C663 C664 1.373 . S
C663 C665 1.389 . S
C664 H637 0.950 . S
C664 C650 1.377 1_554 S
C664 C663 1.373 . S
C665 C649 1.377 1_554 S
C665 C663 1.389 . S
C665 C666 1.524 . S
C666 C665 1.524 . S
C666 C667 1.397 . S
C666 C671 1.363 . S
C667 H638 0.950 . S
C667 C666 1.397 . S
C667 C668 1.334 . S
C668 H639 0.950 . S
C668 C667 1.334 . S
C668 C669 1.287 . S
C669 C668 1.287 . S
C669 C670 1.524 . S
C669 H672 0.999 . S
C670 H640 0.950 . S
C670 C669 1.524 . S
C670 C671 1.415 . S
C671 H641 0.950 . S
C671 C666 1.363 . S
C671 C670 1.415 . S
H672 C669 0.999 . S
H673 C654 0.913 . S
H674 C692 0.951 . S
H675 C694 0.951 . S
H676 C696 0.950 . S
H677 C697 0.950 . S
H678 C699 0.950 . S
H679 C702 0.950 . S
H680 C703 0.950 . S
H681 C705 0.950 . S
H682 C706 0.950 . S
H683 C707 0.951 . S
H684 C709 0.951 . S
H685 C711 0.950 . S
H686 C712 0.950 . S
H687 C714 0.950 . S
H688 C717 0.950 . S
H689 C718 0.950 . S
H690 C720 0.950 . S
H691 C721 0.950 . S
C692 H674 0.951 . S
C692 C693 1.366 . S
C692 C694 1.388 . S
C693 C692 1.366 . S
C693 C697 1.385 . S
C694 H675 0.951 . S
C694 C692 1.388 . S
C694 C695 1.366 . S
C695 C694 1.366 . S
C695 C696 1.414 . S
C695 C698 1.499 . S
C696 H676 0.950 . S
C696 C695 1.414 . S
C696 C697 1.374 . S
C697 H677 0.950 . S
C697 C693 1.385 . S
C697 C696 1.374 . S
C698 C695 1.499 . S
C698 C699 1.373 . S
C698 C700 1.389 . S
C699 H678 0.950 . S
C699 C698 1.373 . S
C699 C715 1.377 1_556 S
C700 C698 1.389 . S
C700 C701 1.524 . S
C700 C714 1.377 1_556 S
C701 C700 1.524 . S
C701 C702 1.397 . S
C701 C706 1.363 . S
C702 H679 0.950 . S
C702 C701 1.397 . S
C702 C703 1.334 . S
C703 H680 0.950 . S
C703 C702 1.334 . S
C703 C704 1.287 . S
C704 C703 1.287 . S
C704 C705 1.524 . S
C704 H723 0.913 . S
C705 H681 0.950 . S
C705 C704 1.524 . S
C705 C706 1.415 . S
C706 H682 0.950 . S
C706 C701 1.363 . S
C706 C705 1.415 . S
C707 H683 0.951 . S
C707 C708 1.366 . S
C707 C709 1.388 . S
C708 C707 1.366 . S
C708 C712 1.385 . S
C709 H684 0.951 . S
C709 C707 1.388 . S
C709 C710 1.366 . S
C710 C709 1.366 . S
C710 C711 1.414 . S
C710 C713 1.499 . S
C711 H685 0.950 . S
C711 C710 1.414 . S
C711 C712 1.374 . S
C712 H686 0.950 . S
C712 C708 1.385 . S
C712 C711 1.374 . S
C713 C710 1.499 . S
C713 C714 1.373 . S
C713 C715 1.389 . S
C714 H687 0.950 . S
C714 C700 1.377 1_554 S
C714 C713 1.373 . S
C715 C699 1.377 1_554 S
C715 C713 1.389 . S
C715 C716 1.524 . S
C716 C715 1.524 . S
C716 C717 1.397 . S
C716 C721 1.363 . S
C717 H688 0.950 . S
C717 C716 1.397 . S
C717 C718 1.334 . S
C718 H689 0.950 . S
C718 C717 1.334 . S
C718 C719 1.287 . S
C719 C718 1.287 . S
C719 C720 1.524 . S
C719 H722 0.999 . S
C720 H690 0.950 . S
C720 C719 1.524 . S
C720 C721 1.415 . S
C721 H691 0.950 . S
C721 C716 1.363 . S
C721 C720 1.415 . S
H722 C719 0.999 . S
H723 C704 0.913 . S
H724 C742 0.951 . S
H725 C744 0.951 . S
H726 C746 0.950 . S
H727 C747 0.950 . S
H728 C749 0.950 . S
H729 C752 0.950 . S
H730 C753 0.950 . S
H731 C755 0.950 . S
H732 C756 0.950 . S
H733 C757 0.951 . S
H734 C759 0.951 . S
H735 C761 0.950 . S
H736 C762 0.950 . S
H737 C764 0.950 . S
H738 C767 0.950 . S
H739 C768 0.950 . S
H740 C770 0.950 . S
H741 C771 0.950 . S
C742 H724 0.951 . S
C742 C743 1.366 . S
C742 C744 1.388 . S
C743 C742 1.366 . S
C743 C747 1.385 . S
C744 H725 0.951 . S
C744 C742 1.388 . S
C744 C745 1.366 . S
C745 C744 1.366 . S
C745 C746 1.414 . S
C745 C748 1.499 . S
C746 H726 0.950 . S
C746 C745 1.414 . S
C746 C747 1.374 . S
C747 H727 0.950 . S
C747 C743 1.385 . S
C747 C746 1.374 . S
C748 C745 1.499 . S
C748 C749 1.373 . S
C748 C750 1.389 . S
C749 H728 0.950 . S
C749 C748 1.373 . S
C749 C765 1.377 1_556 S
C750 C748 1.389 . S
C750 C751 1.524 . S
C750 C764 1.377 1_556 S
C751 C750 1.524 . S
C751 C752 1.397 . S
C751 C756 1.363 . S
C752 H729 0.950 . S
C752 C751 1.397 . S
C752 C753 1.334 . S
C753 H730 0.950 . S
C753 C752 1.334 . S
C753 C754 1.287 . S
C754 C753 1.287 . S
C754 C755 1.524 . S
C754 H773 0.913 . S
C755 H731 0.950 . S
C755 C754 1.524 . S
C755 C756 1.415 . S
C756 H732 0.950 . S
C756 C751 1.363 . S
C756 C755 1.415 . S
C757 H733 0.951 . S
C757 C758 1.366 . S
C757 C759 1.388 . S
C758 C757 1.366 . S
C758 C762 1.385 . S
C759 H734 0.951 . S
C759 C757 1.388 . S
C759 C760 1.366 . S
C760 C759 1.366 . S
C760 C761 1.414 . S
C760 C763 1.499 . S
C761 H735 0.950 . S
C761 C760 1.414 . S
C761 C762 1.374 . S
C762 H736 0.950 . S
C762 C758 1.385 . S
C762 C761 1.374 . S
C763 C760 1.499 . S
C763 C764 1.373 . S
C763 C765 1.389 . S
C764 H737 0.950 . S
C764 C750 1.377 1_554 S
C764 C763 1.373 . S
C765 C749 1.377 1_554 S
C765 C763 1.389 . S
C765 C766 1.524 . S
C766 C765 1.524 . S
C766 C767 1.397 . S
C766 C771 1.363 . S
C767 H738 0.950 . S
C767 C766 1.397 . S
C767 C768 1.334 . S
C768 H739 0.950 . S
C768 C767 1.334 . S
C768 C769 1.287 . S
C769 C768 1.287 . S
C769 C770 1.524 . S
C769 H772 0.999 . S
C770 H740 0.950 . S
C770 C769 1.524 . S
C770 C771 1.415 . S
C771 H741 0.950 . S
C771 C766 1.363 . S
C771 C770 1.415 . S
H772 C769 0.999 . S
H773 C754 0.913 . S
H774 C792 0.951 . S
H775 C794 0.951 . S
H776 C796 0.950 . S
H777 C797 0.950 . S
H778 C799 0.950 . S
H779 C802 0.950 . S
H780 C803 0.950 . S
H781 C805 0.950 . S
H782 C806 0.950 . S
H783 C807 0.951 . S
H784 C809 0.951 . S
H785 C811 0.950 . S
H786 C812 0.950 . S
H787 C814 0.950 . S
H788 C817 0.950 . S
H789 C818 0.950 . S
H790 C820 0.950 . S
H791 C821 0.950 . S
C792 H774 0.951 . S
C792 C793 1.366 . S
C792 C794 1.388 . S
C793 C792 1.366 . S
C793 C797 1.385 . S
C794 H775 0.951 . S
C794 C792 1.388 . S
C794 C795 1.366 . S
C795 C794 1.366 . S
C795 C796 1.414 . S
C795 C798 1.499 . S
C796 H776 0.950 . S
C796 C795 1.414 . S
C796 C797 1.374 . S
C797 H777 0.950 . S
C797 C793 1.385 . S
C797 C796 1.374 . S
C798 C795 1.499 . S
C798 C799 1.373 . S
C798 C800 1.389 . S
C799 H778 0.950 . S
C799 C798 1.373 . S
C799 C815 1.377 1_554 S
C800 C798 1.389 . S
C800 C801 1.524 . S
C800 C814 1.377 1_554 S
C801 C800 1.524 . S
C801 C802 1.397 . S
C801 C806 1.363 . S
C802 H779 0.950 . S
C802 C801 1.397 . S
C802 C803 1.334 . S
C803 H780 0.950 . S
C803 C802 1.334 . S
C803 C804 1.287 . S
C804 C803 1.287 . S
C804 C805 1.524 . S
C804 H823 0.913 . S
C805 H781 0.950 . S
C805 C804 1.524 . S
C805 C806 1.415 . S
C806 H782 0.950 . S
C806 C801 1.363 . S
C806 C805 1.415 . S
C807 H783 0.951 . S
C807 C808 1.366 . S
C807 C809 1.388 . S
C808 C807 1.366 . S
C808 C812 1.385 . S
C809 H784 0.951 . S
C809 C807 1.388 . S
C809 C810 1.366 . S
C810 C809 1.366 . S
C810 C811 1.414 . S
C810 C813 1.499 . S
C811 H785 0.950 . S
C811 C810 1.414 . S
C811 C812 1.374 . S
C812 H786 0.950 . S
C812 C808 1.385 . S
C812 C811 1.374 . S
C813 C810 1.499 . S
C813 C814 1.373 . S
C813 C815 1.389 . S
C814 H787 0.950 . S
C814 C800 1.377 1_556 S
C814 C813 1.373 . S
C815 C799 1.377 1_556 S
C815 C813 1.389 . S
C815 C816 1.524 . S
C816 C815 1.524 . S
C816 C817 1.397 . S
C816 C821 1.363 . S
C817 H788 0.950 . S
C817 C816 1.397 . S
C817 C818 1.334 . S
C818 H789 0.950 . S
C818 C817 1.334 . S
C818 C819 1.287 . S
C819 C818 1.287 . S
C819 C820 1.524 . S
C819 H822 0.999 . S
C820 H790 0.950 . S
C820 C819 1.524 . S
C820 C821 1.415 . S
C821 H791 0.950 . S
C821 C816 1.363 . S
C821 C820 1.415 . S
H822 C819 0.999 . S
H823 C804 0.913 . S
H824 C842 0.951 . S
H825 C844 0.951 . S
H826 C846 0.950 . S
H827 C847 0.950 . S
H828 C849 0.950 . S
H829 C852 0.950 . S
H830 C853 0.950 . S
H831 C855 0.950 . S
H832 C856 0.950 . S
H833 C857 0.951 . S
H834 C859 0.951 . S
H835 C861 0.950 . S
H836 C862 0.950 . S
H837 C864 0.950 . S
H838 C867 0.950 . S
H839 C868 0.950 . S
H840 C870 0.950 . S
H841 C871 0.950 . S
C842 H824 0.951 . S
C842 C843 1.366 . S
C842 C844 1.388 . S
C843 C842 1.366 . S
C843 C847 1.385 . S
C844 H825 0.951 . S
C844 C842 1.388 . S
C844 C845 1.366 . S
C845 C844 1.366 . S
C845 C846 1.414 . S
C845 C848 1.499 . S
C846 H826 0.950 . S
C846 C845 1.414 . S
C846 C847 1.374 . S
C847 H827 0.950 . S
C847 C843 1.385 . S
C847 C846 1.374 . S
C848 C845 1.499 . S
C848 C849 1.373 . S
C848 C850 1.389 . S
C849 H828 0.950 . S
C849 C848 1.373 . S
C849 C865 1.377 1_455 S
C850 C848 1.389 . S
C850 C851 1.524 . S
C850 C864 1.377 1_455 S
C851 C850 1.524 . S
C851 C852 1.397 . S
C851 C856 1.363 . S
C852 H829 0.950 . S
C852 C851 1.397 . S
C852 C853 1.334 . S
C853 H830 0.950 . S
C853 C852 1.334 . S
C853 C854 1.287 . S
C854 C853 1.287 . S
C854 C855 1.524 . S
C854 H873 0.913 . S
C855 H831 0.950 . S
C855 C854 1.524 . S
C855 C856 1.415 . S
C856 H832 0.950 . S
C856 C851 1.363 . S
C856 C855 1.415 . S
C857 H833 0.951 . S
C857 C858 1.366 . S
C857 C859 1.388 . S
C858 C857 1.366 . S
C858 C862 1.385 . S
C859 H834 0.951 . S
C859 C857 1.388 . S
C859 C860 1.366 . S
C860 C859 1.366 . S
C860 C861 1.414 . S
C860 C863 1.499 . S
C861 H835 0.950 . S
C861 C860 1.414 . S
C861 C862 1.374 . S
C862 H836 0.950 . S
C862 C858 1.385 . S
C862 C861 1.374 . S
C863 C860 1.499 . S
C863 C864 1.373 . S
C863 C865 1.389 . S
C864 H837 0.950 . S
C864 C850 1.377 1_655 S
C864 C863 1.373 . S
C865 C849 1.377 1_655 S
C865 C863 1.389 . S
C865 C866 1.524 . S
C866 C865 1.524 . S
C866 C867 1.397 . S
C866 C871 1.363 . S
C867 H838 0.950 . S
C867 C866 1.397 . S
C867 C868 1.334 . S
C868 H839 0.950 . S
C868 C867 1.334 . S
C868 C869 1.287 . S
C869 C868 1.287 . S
C869 C870 1.524 . S
C869 H872 0.999 . S
C870 H840 0.950 . S
C870 C869 1.524 . S
C870 C871 1.415 . S
C871 H841 0.950 . S
C871 C866 1.363 . S
C871 C870 1.415 . S
H872 C869 0.999 . S
H873 C854 0.913 . S
H874 C892 0.951 . S
H875 C894 0.951 . S
H876 C896 0.950 . S
H877 C897 0.950 . S
H878 C899 0.950 . S
H879 C902 0.950 . S
H880 C903 0.950 . S
H881 C905 0.950 . S
H882 C906 0.950 . S
H883 C907 0.951 . S
H884 C909 0.951 . S
H885 C911 0.950 . S
H886 C912 0.950 . S
H887 C914 0.950 . S
H888 C917 0.950 . S
H889 C918 0.950 . S
H890 C920 0.950 . S
H891 C921 0.950 . S
C892 H874 0.951 . S
C892 C893 1.366 . S
C892 C894 1.388 . S
C893 C892 1.366 . S
C893 C897 1.385 . S
C894 H875 0.951 . S
C894 C892 1.388 . S
C894 C895 1.366 . S
C895 C894 1.366 . S
C895 C896 1.414 . S
C895 C898 1.499 . S
C896 H876 0.950 . S
C896 C895 1.414 . S
C896 C897 1.374 . S
C897 H877 0.950 . S
C897 C893 1.385 . S
C897 C896 1.374 . S
C898 C895 1.499 . S
C898 C899 1.373 . S
C898 C900 1.389 . S
C899 H878 0.950 . S
C899 C898 1.373 . S
C899 C915 1.377 1_565 S
C900 C898 1.389 . S
C900 C901 1.524 . S
C900 C914 1.377 1_565 S
C901 C900 1.524 . S
C901 C902 1.397 . S
C901 C906 1.363 . S
C902 H879 0.950 . S
C902 C901 1.397 . S
C902 C903 1.334 . S
C903 H880 0.950 . S
C903 C902 1.334 . S
C903 C904 1.287 . S
C904 C903 1.287 . S
C904 C905 1.524 . S
C904 H923 0.913 . S
C905 H881 0.950 . S
C905 C904 1.524 . S
C905 C906 1.415 . S
C906 H882 0.950 . S
C906 C901 1.363 . S
C906 C905 1.415 . S
C907 H883 0.951 . S
C907 C908 1.366 . S
C907 C909 1.388 . S
C908 C907 1.366 . S
C908 C912 1.385 . S
C909 H884 0.951 . S
C909 C907 1.388 . S
C909 C910 1.366 . S
C910 C909 1.366 . S
C910 C911 1.414 . S
C910 C913 1.499 . S
C911 H885 0.950 . S
C911 C910 1.414 . S
C911 C912 1.374 . S
C912 H886 0.950 . S
C912 C908 1.385 . S
C912 C911 1.374 . S
C913 C910 1.499 . S
C913 C914 1.373 . S
C913 C915 1.389 . S
C914 H887 0.950 . S
C914 C900 1.377 1_545 S
C914 C913 1.373 . S
C915 C899 1.377 1_545 S
C915 C913 1.389 . S
C915 C916 1.524 . S
C916 C915 1.524 . S
C916 C917 1.397 . S
C916 C921 1.363 . S
C917 H888 0.950 . S
C917 C916 1.397 . S
C917 C918 1.334 . S
C918 H889 0.950 . S
C918 C917 1.334 . S
C918 C919 1.287 . S
C919 C918 1.287 . S
C919 C920 1.524 . S
C919 H922 0.999 . S
C920 H890 0.950 . S
C920 C919 1.524 . S
C920 C921 1.415 . S
C921 H891 0.950 . S
C921 C916 1.363 . S
C921 C920 1.415 . S
H922 C919 0.999 . S
H923 C904 0.913 . S
H924 C942 0.951 . S
H925 C944 0.951 . S
H926 C946 0.950 . S
H927 C947 0.950 . S
H928 C949 0.950 . S
H929 C952 0.950 . S
H930 C953 0.950 . S
H931 C955 0.950 . S
H932 C956 0.950 . S
H933 C957 0.951 . S
H934 C959 0.951 . S
H935 C961 0.950 . S
H936 C962 0.950 . S
H937 C964 0.950 . S
H938 C967 0.950 . S
H939 C968 0.950 . S
H940 C970 0.950 . S
H941 C971 0.950 . S
C942 H924 0.951 . S
C942 C943 1.366 . S
C942 C944 1.388 . S
C943 C942 1.366 . S
C943 C947 1.385 . S
C944 H925 0.951 . S
C944 C942 1.388 . S
C944 C945 1.366 . S
C945 C944 1.366 . S
C945 C946 1.414 . S
C945 C948 1.499 . S
C946 H926 0.950 . S
C946 C945 1.414 . S
C946 C947 1.374 . S
C947 H927 0.950 . S
C947 C943 1.385 . S
C947 C946 1.374 . S
C948 C945 1.499 . S
C948 C949 1.373 . S
C948 C950 1.389 . S
C949 H928 0.950 . S
C949 C948 1.373 . S
C949 C965 1.377 1_655 S
C950 C948 1.389 . S
C950 C951 1.524 . S
C950 C964 1.377 1_655 S
C951 C950 1.524 . S
C951 C952 1.397 . S
C951 C956 1.363 . S
C952 H929 0.950 . S
C952 C951 1.397 . S
C952 C953 1.334 . S
C953 H930 0.950 . S
C953 C952 1.334 . S
C953 C954 1.287 . S
C954 C953 1.287 . S
C954 C955 1.524 . S
C954 H973 0.913 . S
C955 H931 0.950 . S
C955 C954 1.524 . S
C955 C956 1.415 . S
C956 H932 0.950 . S
C956 C951 1.363 . S
C956 C955 1.415 . S
C957 H933 0.951 . S
C957 C958 1.366 . S
C957 C959 1.388 . S
C958 C957 1.366 . S
C958 C962 1.385 . S
C959 H934 0.951 . S
C959 C957 1.388 . S
C959 C960 1.366 . S
C960 C959 1.366 . S
C960 C961 1.414 . S
C960 C963 1.499 . S
C961 H935 0.950 . S
C961 C960 1.414 . S
C961 C962 1.374 . S
C962 H936 0.950 . S
C962 C958 1.385 . S
C962 C961 1.374 . S
C963 C960 1.499 . S
C963 C964 1.373 . S
C963 C965 1.389 . S
C964 H937 0.950 . S
C964 C950 1.377 1_455 S
C964 C963 1.373 . S
C965 C949 1.377 1_455 S
C965 C963 1.389 . S
C965 C966 1.524 . S
C966 C965 1.524 . S
C966 C967 1.397 . S
C966 C971 1.363 . S
C967 H938 0.950 . S
C967 C966 1.397 . S
C967 C968 1.334 . S
C968 H939 0.950 . S
C968 C967 1.334 . S
C968 C969 1.287 . S
C969 C968 1.287 . S
C969 C970 1.524 . S
C969 H972 0.999 . S
C970 H940 0.950 . S
C970 C969 1.524 . S
C970 C971 1.415 . S
C971 H941 0.950 . S
C971 C966 1.363 . S
C971 C970 1.415 . S
H972 C969 0.999 . S
H973 C954 0.913 . S
H974 C992 0.951 . S
H975 C994 0.951 . S
H976 C996 0.950 . S
H977 C997 0.950 . S
H978 C999 0.950 . S
H979 C1002 0.950 . S
H980 C1003 0.950 . S
H981 C1005 0.950 . S
H982 C1006 0.950 . S
H983 C1007 0.951 . S
H984 C1009 0.951 . S
H985 C1011 0.950 . S
H986 C1012 0.950 . S
H987 C1014 0.950 . S
H988 C1017 0.950 . S
H989 C1018 0.950 . S
H990 C1020 0.950 . S
H991 C1021 0.950 . S
C992 H974 0.951 . S
C992 C993 1.366 . S
C992 C994 1.388 . S
C993 C992 1.366 . S
C993 C997 1.385 . S
C994 H975 0.951 . S
C994 C992 1.388 . S
C994 C995 1.366 . S
C995 C994 1.366 . S
C995 C996 1.414 . S
C995 C998 1.499 . S
C996 H976 0.950 . S
C996 C995 1.414 . S
C996 C997 1.374 . S
C997 H977 0.950 . S
C997 C993 1.385 . S
C997 C996 1.374 . S
C998 C995 1.499 . S
C998 C999 1.373 . S
C998 C1000 1.389 . S
C999 H978 0.950 . S
C999 C998 1.373 . S
C999 C1015 1.377 1_545 S
C1000 C998 1.389 . S
C1000 C1001 1.524 . S
C1000 C1014 1.377 1_545 S
C1001 C1000 1.524 . S
C1001 C1002 1.397 . S
C1001 C1006 1.363 . S
C1002 H979 0.950 . S
C1002 C1001 1.397 . S
C1002 C1003 1.334 . S
C1003 H980 0.950 . S
C1003 C1002 1.334 . S
C1003 C1004 1.287 . S
C1004 C1003 1.287 . S
C1004 C1005 1.524 . S
C1004 H1023 0.913 . S
C1005 H981 0.950 . S
C1005 C1004 1.524 . S
C1005 C1006 1.415 . S
C1006 H982 0.950 . S
C1006 C1001 1.363 . S
C1006 C1005 1.415 . S
C1007 H983 0.951 . S
C1007 C1008 1.366 . S
C1007 C1009 1.388 . S
C1008 C1007 1.366 . S
C1008 C1012 1.385 . S
C1009 H984 0.951 . S
C1009 C1007 1.388 . S
C1009 C1010 1.366 . S
C1010 C1009 1.366 . S
C1010 C1011 1.414 . S
C1010 C1013 1.499 . S
C1011 H985 0.950 . S
C1011 C1010 1.414 . S
C1011 C1012 1.374 . S
C1012 H986 0.950 . S
C1012 C1008 1.385 . S
C1012 C1011 1.374 . S
C1013 C1010 1.499 . S
C1013 C1014 1.373 . S
C1013 C1015 1.389 . S
C1014 H987 0.950 . S
C1014 C1000 1.377 1_565 S
C1014 C1013 1.373 . S
C1015 C999 1.377 1_565 S
C1015 C1013 1.389 . S
C1015 C1016 1.524 . S
C1016 C1015 1.524 . S
C1016 C1017 1.397 . S
C1016 C1021 1.363 . S
C1017 H988 0.950 . S
C1017 C1016 1.397 . S
C1017 C1018 1.334 . S
C1018 H989 0.950 . S
C1018 C1017 1.334 . S
C1018 C1019 1.287 . S
C1019 C1018 1.287 . S
C1019 C1020 1.524 . S
C1019 H1022 0.999 . S
C1020 H990 0.950 . S
C1020 C1019 1.524 . S
C1020 C1021 1.415 . S
C1021 H991 0.950 . S
C1021 C1016 1.363 . S
C1021 C1020 1.415 . S
H1022 C1019 0.999 . S
H1023 C1004 0.913 . S
H1024 C1042 0.951 . S
H1025 C1044 0.951 . S
H1026 C1046 0.950 . S
H1027 C1047 0.950 . S
H1028 C1049 0.950 . S
H1029 C1052 0.950 . S
H1030 C1053 0.950 . S
H1031 C1055 0.950 . S
H1032 C1056 0.950 . S
H1033 C1057 0.951 . S
H1034 C1059 0.951 . S
H1035 C1061 0.950 . S
H1036 C1062 0.950 . S
H1037 C1064 0.950 . S
H1038 C1067 0.950 . S
H1039 C1068 0.950 . S
H1040 C1070 0.950 . S
H1041 C1071 0.950 . S
C1042 H1024 0.951 . S
C1042 C1043 1.366 . S
C1042 C1044 1.388 . S
C1043 C1042 1.366 . S
C1043 C1047 1.385 . S
C1044 H1025 0.951 . S
C1044 C1042 1.388 . S
C1044 C1045 1.366 . S
C1045 C1044 1.366 . S
C1045 C1046 1.414 . S
C1045 C1048 1.499 . S
C1046 H1026 0.950 . S
C1046 C1045 1.414 . S
C1046 C1047 1.374 . S
C1047 H1027 0.950 . S
C1047 C1043 1.385 . S
C1047 C1046 1.374 . S
C1048 C1045 1.499 . S
C1048 C1049 1.373 . S
C1048 C1050 1.389 . S
C1049 H1028 0.950 . S
C1049 C1048 1.373 . S
C1049 C1065 1.377 1_655 S
C1050 C1048 1.389 . S
C1050 C1051 1.524 . S
C1050 C1064 1.377 1_655 S
C1051 C1050 1.524 . S
C1051 C1052 1.397 . S
C1051 C1056 1.363 . S
C1052 H1029 0.950 . S
C1052 C1051 1.397 . S
C1052 C1053 1.334 . S
C1053 H1030 0.950 . S
C1053 C1052 1.334 . S
C1053 C1054 1.287 . S
C1054 C1053 1.287 . S
C1054 C1055 1.524 . S
C1054 H1073 0.913 . S
C1055 H1031 0.950 . S
C1055 C1054 1.524 . S
C1055 C1056 1.415 . S
C1056 H1032 0.950 . S
C1056 C1051 1.363 . S
C1056 C1055 1.415 . S
C1057 H1033 0.951 . S
C1057 C1058 1.366 . S
C1057 C1059 1.388 . S
C1058 C1057 1.366 . S
C1058 C1062 1.385 . S
C1059 H1034 0.951 . S
C1059 C1057 1.388 . S
C1059 C1060 1.366 . S
C1060 C1059 1.366 . S
C1060 C1061 1.414 . S
C1060 C1063 1.499 . S
C1061 H1035 0.950 . S
C1061 C1060 1.414 . S
C1061 C1062 1.374 . S
C1062 H1036 0.950 . S
C1062 C1058 1.385 . S
C1062 C1061 1.374 . S
C1063 C1060 1.499 . S
C1063 C1064 1.373 . S
C1063 C1065 1.389 . S
C1064 H1037 0.950 . S
C1064 C1050 1.377 1_455 S
C1064 C1063 1.373 . S
C1065 C1049 1.377 1_455 S
C1065 C1063 1.389 . S
C1065 C1066 1.524 . S
C1066 C1065 1.524 . S
C1066 C1067 1.397 . S
C1066 C1071 1.363 . S
C1067 H1038 0.950 . S
C1067 C1066 1.397 . S
C1067 C1068 1.334 . S
C1068 H1039 0.950 . S
C1068 C1067 1.334 . S
C1068 C1069 1.287 . S
C1069 C1068 1.287 . S
C1069 C1070 1.524 . S
C1069 H1072 0.999 . S
C1070 H1040 0.950 . S
C1070 C1069 1.524 . S
C1070 C1071 1.415 . S
C1071 H1041 0.950 . S
C1071 C1066 1.363 . S
C1071 C1070 1.415 . S
H1072 C1069 0.999 . S
H1073 C1054 0.913 . S
H1074 C1092 0.951 . S
H1075 C1094 0.951 . S
H1076 C1096 0.950 . S
H1077 C1097 0.950 . S
H1078 C1099 0.950 . S
H1079 C1102 0.950 . S
H1080 C1103 0.950 . S
H1081 C1105 0.950 . S
H1082 C1106 0.950 . S
H1083 C1107 0.951 . S
H1084 C1109 0.951 . S
H1085 C1111 0.950 . S
H1086 C1112 0.950 . S
H1087 C1114 0.950 . S
H1088 C1117 0.950 . S
H1089 C1118 0.950 . S
H1090 C1120 0.950 . S
H1091 C1121 0.950 . S
C1092 H1074 0.951 . S
C1092 C1093 1.366 . S
C1092 C1094 1.388 . S
C1093 C1092 1.366 . S
C1093 C1097 1.385 . S
C1094 H1075 0.951 . S
C1094 C1092 1.388 . S
C1094 C1095 1.366 . S
C1095 C1094 1.366 . S
C1095 C1096 1.414 . S
C1095 C1098 1.499 . S
C1096 H1076 0.950 . S
C1096 C1095 1.414 . S
C1096 C1097 1.374 . S
C1097 H1077 0.950 . S
C1097 C1093 1.385 . S
C1097 C1096 1.374 . S
C1098 C1095 1.499 . S
C1098 C1099 1.373 . S
C1098 C1100 1.389 . S
C1099 H1078 0.950 . S
C1099 C1098 1.373 . S
C1099 C1115 1.377 1_565 S
C1100 C1098 1.389 . S
C1100 C1101 1.524 . S
C1100 C1114 1.377 1_565 S
C1101 C1100 1.524 . S
C1101 C1102 1.397 . S
C1101 C1106 1.363 . S
C1102 H1079 0.950 . S
C1102 C1101 1.397 . S
C1102 C1103 1.334 . S
C1103 H1080 0.950 . S
C1103 C1102 1.334 . S
C1103 C1104 1.287 . S
C1104 C1103 1.287 . S
C1104 C1105 1.524 . S
C1104 H1123 0.913 . S
C1105 H1081 0.950 . S
C1105 C1104 1.524 . S
C1105 C1106 1.415 . S
C1106 H1082 0.950 . S
C1106 C1101 1.363 . S
C1106 C1105 1.415 . S
C1107 H1083 0.951 . S
C1107 C1108 1.366 . S
C1107 C1109 1.388 . S
C1108 C1107 1.366 . S
C1108 C1112 1.385 . S
C1109 H1084 0.951 . S
C1109 C1107 1.388 . S
C1109 C1110 1.366 . S
C1110 C1109 1.366 . S
C1110 C1111 1.414 . S
C1110 C1113 1.499 . S
C1111 H1085 0.950 . S
C1111 C1110 1.414 . S
C1111 C1112 1.374 . S
C1112 H1086 0.950 . S
C1112 C1108 1.385 . S
C1112 C1111 1.374 . S
C1113 C1110 1.499 . S
C1113 C1114 1.373 . S
C1113 C1115 1.389 . S
C1114 H1087 0.950 . S
C1114 C1100 1.377 1_545 S
C1114 C1113 1.373 . S
C1115 C1099 1.377 1_545 S
C1115 C1113 1.389 . S
C1115 C1116 1.524 . S
C1116 C1115 1.524 . S
C1116 C1117 1.397 . S
C1116 C1121 1.363 . S
C1117 H1088 0.950 . S
C1117 C1116 1.397 . S
C1117 C1118 1.334 . S
C1118 H1089 0.950 . S
C1118 C1117 1.334 . S
C1118 C1119 1.287 . S
C1119 C1118 1.287 . S
C1119 C1120 1.524 . S
C1119 H1122 0.999 . S
C1120 H1090 0.950 . S
C1120 C1119 1.524 . S
C1120 C1121 1.415 . S
C1121 H1091 0.950 . S
C1121 C1116 1.363 . S
C1121 C1120 1.415 . S
H1122 C1119 0.999 . S
H1123 C1104 0.913 . S
H1124 C1142 0.951 . S
H1125 C1144 0.951 . S
H1126 C1146 0.950 . S
H1127 C1147 0.950 . S
H1128 C1149 0.950 . S
H1129 C1152 0.950 . S
H1130 C1153 0.950 . S
H1131 C1155 0.950 . S
H1132 C1156 0.950 . S
H1133 C1157 0.951 . S
H1134 C1159 0.951 . S
H1135 C1161 0.950 . S
H1136 C1162 0.950 . S
H1137 C1164 0.950 . S
H1138 C1167 0.950 . S
H1139 C1168 0.950 . S
H1140 C1170 0.950 . S
H1141 C1171 0.950 . S
C1142 H1124 0.951 . S
C1142 C1143 1.366 . S
C1142 C1144 1.388 . S
C1143 C1142 1.366 . S
C1143 C1147 1.385 . S
C1144 H1125 0.951 . S
C1144 C1142 1.388 . S
C1144 C1145 1.366 . S
C1145 C1144 1.366 . S
C1145 C1146 1.414 . S
C1145 C1148 1.499 . S
C1146 H1126 0.950 . S
C1146 C1145 1.414 . S
C1146 C1147 1.374 . S
C1147 H1127 0.950 . S
C1147 C1143 1.385 . S
C1147 C1146 1.374 . S
C1148 C1145 1.499 . S
C1148 C1149 1.373 . S
C1148 C1150 1.389 . S
C1149 H1128 0.950 . S
C1149 C1148 1.373 . S
C1149 C1165 1.377 1_455 S
C1150 C1148 1.389 . S
C1150 C1151 1.524 . S
C1150 C1164 1.377 1_455 S
C1151 C1150 1.524 . S
C1151 C1152 1.397 . S
C1151 C1156 1.363 . S
C1152 H1129 0.950 . S
C1152 C1151 1.397 . S
C1152 C1153 1.334 . S
C1153 H1130 0.950 . S
C1153 C1152 1.334 . S
C1153 C1154 1.287 . S
C1154 C1153 1.287 . S
C1154 C1155 1.524 . S
C1154 H1173 0.913 . S
C1155 H1131 0.950 . S
C1155 C1154 1.524 . S
C1155 C1156 1.415 . S
C1156 H1132 0.950 . S
C1156 C1151 1.363 . S
C1156 C1155 1.415 . S
C1157 H1133 0.951 . S
C1157 C1158 1.366 . S
C1157 C1159 1.388 . S
C1158 C1157 1.366 . S
C1158 C1162 1.385 . S
C1159 H1134 0.951 . S
C1159 C1157 1.388 . S
C1159 C1160 1.366 . S
C1160 C1159 1.366 . S
C1160 C1161 1.414 . S
C1160 C1163 1.499 . S
C1161 H1135 0.950 . S
C1161 C1160 1.414 . S
C1161 C1162 1.374 . S
C1162 H1136 0.950 . S
C1162 C1158 1.385 . S
C1162 C1161 1.374 . S
C1163 C1160 1.499 . S
C1163 C1164 1.373 . S
C1163 C1165 1.389 . S
C1164 H1137 0.950 . S
C1164 C1150 1.377 1_655 S
C1164 C1163 1.373 . S
C1165 C1149 1.377 1_655 S
C1165 C1163 1.389 . S
C1165 C1166 1.524 . S
C1166 C1165 1.524 . S
C1166 C1167 1.397 . S
C1166 C1171 1.363 . S
C1167 H1138 0.950 . S
C1167 C1166 1.397 . S
C1167 C1168 1.334 . S
C1168 H1139 0.950 . S
C1168 C1167 1.334 . S
C1168 C1169 1.287 . S
C1169 C1168 1.287 . S
C1169 C1170 1.524 . S
C1169 H1172 0.999 . S
C1170 H1140 0.950 . S
C1170 C1169 1.524 . S
C1170 C1171 1.415 . S
C1171 H1141 0.950 . S
C1171 C1166 1.363 . S
C1171 C1170 1.415 . S
H1172 C1169 0.999 . S
H1173 C1154 0.913 . S
H1174 C1192 0.951 . S
H1175 C1194 0.951 . S
H1176 C1196 0.950 . S
H1177 C1197 0.950 . S
H1178 C1199 0.950 . S
H1179 C1202 0.950 . S
H1180 C1203 0.950 . S
H1181 C1205 0.950 . S
H1182 C1206 0.950 . S
H1183 C1207 0.951 . S
H1184 C1209 0.951 . S
H1185 C1211 0.950 . S
H1186 C1212 0.950 . S
H1187 C1214 0.950 . S
H1188 C1217 0.950 . S
H1189 C1218 0.950 . S
H1190 C1220 0.950 . S
H1191 C1221 0.950 . S
C1192 H1174 0.951 . S
C1192 C1193 1.366 . S
C1192 C1194 1.388 . S
C1193 C1192 1.366 . S
C1193 C1197 1.385 . S
C1194 H1175 0.951 . S
C1194 C1192 1.388 . S
C1194 C1195 1.366 . S
C1195 C1194 1.366 . S
C1195 C1196 1.414 . S
C1195 C1198 1.499 . S
C1196 H1176 0.950 . S
C1196 C1195 1.414 . S
C1196 C1197 1.374 . S
C1197 H1177 0.950 . S
C1197 C1193 1.385 . S
C1197 C1196 1.374 . S
C1198 C1195 1.499 . S
C1198 C1199 1.373 . S
C1198 C1200 1.389 . S
C1199 H1178 0.950 . S
C1199 C1198 1.373 . S
C1199 C1215 1.377 1_565 S
C1200 C1198 1.389 . S
C1200 C1201 1.524 . S
C1200 C1214 1.377 1_565 S
C1201 C1200 1.524 . S
C1201 C1202 1.397 . S
C1201 C1206 1.363 . S
C1202 H1179 0.950 . S
C1202 C1201 1.397 . S
C1202 C1203 1.334 . S
C1203 H1180 0.950 . S
C1203 C1202 1.334 . S
C1203 C1204 1.287 . S
C1204 C1203 1.287 . S
C1204 C1205 1.524 . S
C1204 H1223 0.913 . S
C1205 H1181 0.950 . S
C1205 C1204 1.524 . S
C1205 C1206 1.415 . S
C1206 H1182 0.950 . S
C1206 C1201 1.363 . S
C1206 C1205 1.415 . S
C1207 H1183 0.951 . S
C1207 C1208 1.366 . S
C1207 C1209 1.388 . S
C1208 C1207 1.366 . S
C1208 C1212 1.385 . S
C1209 H1184 0.951 . S
C1209 C1207 1.388 . S
C1209 C1210 1.366 . S
C1210 C1209 1.366 . S
C1210 C1211 1.414 . S
C1210 C1213 1.499 . S
C1211 H1185 0.950 . S
C1211 C1210 1.414 . S
C1211 C1212 1.374 . S
C1212 H1186 0.950 . S
C1212 C1208 1.385 . S
C1212 C1211 1.374 . S
C1213 C1210 1.499 . S
C1213 C1214 1.373 . S
C1213 C1215 1.389 . S
C1214 H1187 0.950 . S
C1214 C1200 1.377 1_545 S
C1214 C1213 1.373 . S
C1215 C1199 1.377 1_545 S
C1215 C1213 1.389 . S
C1215 C1216 1.524 . S
C1216 C1215 1.524 . S
C1216 C1217 1.397 . S
C1216 C1221 1.363 . S
C1217 H1188 0.950 . S
C1217 C1216 1.397 . S
C1217 C1218 1.334 . S
C1218 H1189 0.950 . S
C1218 C1217 1.334 . S
C1218 C1219 1.287 . S
C1219 C1218 1.287 . S
C1219 C1220 1.524 . S
C1219 H1222 0.999 . S
C1220 H1190 0.950 . S
C1220 C1219 1.524 . S
C1220 C1221 1.415 . S
C1221 H1191 0.950 . S
C1221 C1216 1.363 . S
C1221 C1220 1.415 . S
H1222 C1219 0.999 . S
H1223 C1204 0.913 . S
H1224 C1242 0.951 . S
H1225 C1244 0.951 . S
H1226 C1246 0.950 . S
H1227 C1247 0.950 . S
H1228 C1249 0.950 . S
H1229 C1252 0.950 . S
H1230 C1253 0.950 . S
H1231 C1255 0.950 . S
H1232 C1256 0.950 . S
H1233 C1257 0.951 . S
H1234 C1259 0.951 . S
H1235 C1261 0.950 . S
H1236 C1262 0.950 . S
H1237 C1264 0.950 . S
H1238 C1267 0.950 . S
H1239 C1268 0.950 . S
H1240 C1270 0.950 . S
H1241 C1271 0.950 . S
C1242 H1224 0.951 . S
C1242 C1243 1.366 . S
C1242 C1244 1.388 . S
C1243 C1242 1.366 . S
C1243 C1247 1.385 . S
C1244 H1225 0.951 . S
C1244 C1242 1.388 . S
C1244 C1245 1.366 . S
C1245 C1244 1.366 . S
C1245 C1246 1.414 . S
C1245 C1248 1.499 . S
C1246 H1226 0.950 . S
C1246 C1245 1.414 . S
C1246 C1247 1.374 . S
C1247 H1227 0.950 . S
C1247 C1243 1.385 . S
C1247 C1246 1.374 . S
C1248 C1245 1.499 . S
C1248 C1249 1.373 . S
C1248 C1250 1.389 . S
C1249 H1228 0.950 . S
C1249 C1248 1.373 . S
C1249 C1265 1.377 . S
C1250 C1248 1.389 . S
C1250 C1251 1.524 . S
C1250 C1264 1.377 . S
C1251 C1250 1.524 . S
C1251 C1252 1.397 . S
C1251 C1256 1.363 . S
C1252 H1229 0.950 . S
C1252 C1251 1.397 . S
C1252 C1253 1.334 . S
C1253 H1230 0.950 . S
C1253 C1252 1.334 . S
C1253 C1254 1.287 . S
C1254 C1253 1.287 . S
C1254 C1255 1.524 . S
C1254 H1273 0.913 . S
C1255 H1231 0.950 . S
C1255 C1254 1.524 . S
C1255 C1256 1.415 . S
C1256 H1232 0.950 . S
C1256 C1251 1.363 . S
C1256 C1255 1.415 . S
C1257 H1233 0.951 . S
C1257 C1258 1.366 . S
C1257 C1259 1.388 . S
C1258 C1257 1.366 . S
C1258 C1262 1.385 . S
C1259 H1234 0.951 . S
C1259 C1257 1.388 . S
C1259 C1260 1.366 . S
C1260 C1259 1.366 . S
C1260 C1261 1.414 . S
C1260 C1263 1.499 . S
C1261 H1235 0.950 . S
C1261 C1260 1.414 . S
C1261 C1262 1.374 . S
C1262 H1236 0.950 . S
C1262 C1258 1.385 . S
C1262 C1261 1.374 . S
C1263 C1260 1.499 . S
C1263 C1264 1.373 . S
C1263 C1265 1.389 . S
C1264 H1237 0.950 . S
C1264 C1250 1.377 . S
C1264 C1263 1.373 . S
C1265 C1249 1.377 . S
C1265 C1263 1.389 . S
C1265 C1266 1.524 . S
C1266 C1265 1.524 . S
C1266 C1267 1.397 . S
C1266 C1271 1.363 . S
C1267 H1238 0.950 . S
C1267 C1266 1.397 . S
C1267 C1268 1.334 . S
C1268 H1239 0.950 . S
C1268 C1267 1.334 . S
C1268 C1269 1.287 . S
C1269 C1268 1.287 . S
C1269 C1270 1.524 . S
C1269 H1272 0.999 . S
C1270 H1240 0.950 . S
C1270 C1269 1.524 . S
C1270 C1271 1.415 . S
C1271 H1241 0.950 . S
C1271 C1266 1.363 . S
C1271 C1270 1.415 . S
H1272 C1269 0.999 . S
H1273 C1254 0.913 . S
H1274 C1292 0.951 . S
H1275 C1294 0.951 . S
H1276 C1296 0.950 . S
H1277 C1297 0.950 . S
H1278 C1299 0.950 . S
H1279 C1302 0.950 . S
H1280 C1303 0.950 . S
H1281 C1305 0.950 . S
H1282 C1306 0.950 . S
H1283 C1307 0.951 . S
H1284 C1309 0.951 . S
H1285 C1311 0.950 . S
H1286 C1312 0.950 . S
H1287 C1314 0.950 . S
H1288 C1317 0.950 . S
H1289 C1318 0.950 . S
H1290 C1320 0.950 . S
H1291 C1321 0.950 . S
C1292 H1274 0.951 . S
C1292 C1293 1.366 . S
C1292 C1294 1.388 . S
C1293 C1292 1.366 . S
C1293 C1297 1.385 . S
C1294 H1275 0.951 . S
C1294 C1292 1.388 . S
C1294 C1295 1.366 . S
C1295 C1294 1.366 . S
C1295 C1296 1.414 . S
C1295 C1298 1.499 . S
C1296 H1276 0.950 . S
C1296 C1295 1.414 . S
C1296 C1297 1.374 . S
C1297 H1277 0.950 . S
C1297 C1293 1.385 . S
C1297 C1296 1.374 . S
C1298 C1295 1.499 . S
C1298 C1299 1.373 . S
C1298 C1300 1.389 . S
C1299 H1278 0.950 . S
C1299 C1298 1.373 . S
C1299 C1315 1.377 . S
C1300 C1298 1.389 . S
C1300 C1301 1.524 . S
C1300 C1314 1.377 . S
C1301 C1300 1.524 . S
C1301 C1302 1.397 . S
C1301 C1306 1.363 . S
C1302 H1279 0.950 . S
C1302 C1301 1.397 . S
C1302 C1303 1.334 . S
C1303 H1280 0.950 . S
C1303 C1302 1.334 . S
C1303 C1304 1.287 . S
C1304 C1303 1.287 . S
C1304 C1305 1.524 . S
C1304 H1323 0.913 . S
C1305 H1281 0.950 . S
C1305 C1304 1.524 . S
C1305 C1306 1.415 . S
C1306 H1282 0.950 . S
C1306 C1301 1.363 . S
C1306 C1305 1.415 . S
C1307 H1283 0.951 . S
C1307 C1308 1.366 . S
C1307 C1309 1.388 . S
C1308 C1307 1.366 . S
C1308 C1312 1.385 . S
C1309 H1284 0.951 . S
C1309 C1307 1.388 . S
C1309 C1310 1.366 . S
C1310 C1309 1.366 . S
C1310 C1311 1.414 . S
C1310 C1313 1.499 . S
C1311 H1285 0.950 . S
C1311 C1310 1.414 . S
C1311 C1312 1.374 . S
C1312 H1286 0.950 . S
C1312 C1308 1.385 . S
C1312 C1311 1.374 . S
C1313 C1310 1.499 . S
C1313 C1314 1.373 . S
C1313 C1315 1.389 . S
C1314 H1287 0.950 . S
C1314 C1300 1.377 . S
C1314 C1313 1.373 . S
C1315 C1299 1.377 . S
C1315 C1313 1.389 . S
C1315 C1316 1.524 . S
C1316 C1315 1.524 . S
C1316 C1317 1.397 . S
C1316 C1321 1.363 . S
C1317 H1288 0.950 . S
C1317 C1316 1.397 . S
C1317 C1318 1.334 . S
C1318 H1289 0.950 . S
C1318 C1317 1.334 . S
C1318 C1319 1.287 . S
C1319 C1318 1.287 . S
C1319 C1320 1.524 . S
C1319 H1322 0.999 . S
C1320 H1290 0.950 . S
C1320 C1319 1.524 . S
C1320 C1321 1.415 . S
C1321 H1291 0.950 . S
C1321 C1316 1.363 . S
C1321 C1320 1.415 . S
H1322 C1319 0.999 . S
H1323 C1304 0.913 . S
H1324 C1342 0.951 . S
H1325 C1344 0.951 . S
H1326 C1346 0.950 . S
H1327 C1347 0.950 . S
H1328 C1349 0.950 . S
H1329 C1352 0.950 . S
H1330 C1353 0.950 . S
H1331 C1355 0.950 . S
H1332 C1356 0.950 . S
H1333 C1357 0.951 . S
H1334 C1359 0.951 . S
H1335 C1361 0.950 . S
H1336 C1362 0.950 . S
H1337 C1364 0.950 . S
H1338 C1367 0.950 . S
H1339 C1368 0.950 . S
H1340 C1370 0.950 . S
H1341 C1371 0.950 . S
C1342 H1324 0.951 . S
C1342 C1343 1.366 . S
C1342 C1344 1.388 . S
C1343 C1342 1.366 . S
C1343 C1347 1.385 . S
C1344 H1325 0.951 . S
C1344 C1342 1.388 . S
C1344 C1345 1.366 . S
C1345 C1344 1.366 . S
C1345 C1346 1.414 . S
C1345 C1348 1.499 . S
C1346 H1326 0.950 . S
C1346 C1345 1.414 . S
C1346 C1347 1.374 . S
C1347 H1327 0.950 . S
C1347 C1343 1.385 . S
C1347 C1346 1.374 . S
C1348 C1345 1.499 . S
C1348 C1349 1.373 . S
C1348 C1350 1.389 . S
C1349 H1328 0.950 . S
C1349 C1348 1.373 . S
C1349 C1365 1.377 . S
C1350 C1348 1.389 . S
C1350 C1351 1.524 . S
C1350 C1364 1.377 . S
C1351 C1350 1.524 . S
C1351 C1352 1.397 . S
C1351 C1356 1.363 . S
C1352 H1329 0.950 . S
C1352 C1351 1.397 . S
C1352 C1353 1.334 . S
C1353 H1330 0.950 . S
C1353 C1352 1.334 . S
C1353 C1354 1.287 . S
C1354 C1353 1.287 . S
C1354 C1355 1.524 . S
C1354 H1373 0.913 . S
C1355 H1331 0.950 . S
C1355 C1354 1.524 . S
C1355 C1356 1.415 . S
C1356 H1332 0.950 . S
C1356 C1351 1.363 . S
C1356 C1355 1.415 . S
C1357 H1333 0.951 . S
C1357 C1358 1.366 . S
C1357 C1359 1.388 . S
C1358 C1357 1.366 . S
C1358 C1362 1.385 . S
C1359 H1334 0.951 . S
C1359 C1357 1.388 . S
C1359 C1360 1.366 . S
C1360 C1359 1.366 . S
C1360 C1361 1.414 . S
C1360 C1363 1.499 . S
C1361 H1335 0.950 . S
C1361 C1360 1.414 . S
C1361 C1362 1.374 . S
C1362 H1336 0.950 . S
C1362 C1358 1.385 . S
C1362 C1361 1.374 . S
C1363 C1360 1.499 . S
C1363 C1364 1.373 . S
C1363 C1365 1.389 . S
C1364 H1337 0.950 . S
C1364 C1350 1.377 . S
C1364 C1363 1.373 . S
C1365 C1349 1.377 . S
C1365 C1363 1.389 . S
C1365 C1366 1.524 . S
C1366 C1365 1.524 . S
C1366 C1367 1.397 . S
C1366 C1371 1.363 . S
C1367 H1338 0.950 . S
C1367 C1366 1.397 . S
C1367 C1368 1.334 . S
C1368 H1339 0.950 . S
C1368 C1367 1.334 . S
C1368 C1369 1.287 . S
C1369 C1368 1.287 . S
C1369 C1370 1.524 . S
C1369 H1372 0.999 . S
C1370 H1340 0.950 . S
C1370 C1369 1.524 . S
C1370 C1371 1.415 . S
C1371 H1341 0.950 . S
C1371 C1366 1.363 . S
C1371 C1370 1.415 . S
H1372 C1369 0.999 . S
H1373 C1354 0.913 . S
H1374 C1392 0.951 . S
H1375 C1394 0.951 . S
H1376 C1396 0.950 . S
H1377 C1397 0.950 . S
H1378 C1399 0.950 . S
H1379 C1402 0.950 . S
H1380 C1403 0.950 . S
H1381 C1405 0.950 . S
H1382 C1406 0.950 . S
H1383 C1407 0.951 . S
H1384 C1409 0.951 . S
H1385 C1411 0.950 . S
H1386 C1412 0.950 . S
H1387 C1414 0.950 . S
H1388 C1417 0.950 . S
H1389 C1418 0.950 . S
H1390 C1420 0.950 . S
H1391 C1421 0.950 . S
C1392 H1374 0.951 . S
C1392 C1393 1.366 . S
C1392 C1394 1.388 . S
C1393 C1392 1.366 . S
C1393 C1397 1.385 . S
C1394 H1375 0.951 . S
C1394 C1392 1.388 . S
C1394 C1395 1.366 . S
C1395 C1394 1.366 . S
C1395 C1396 1.414 . S
C1395 C1398 1.499 . S
C1396 H1376 0.950 . S
C1396 C1395 1.414 . S
C1396 C1397 1.374 . S
C1397 H1377 0.950 . S
C1397 C1393 1.385 . S
C1397 C1396 1.374 . S
C1398 C1395 1.499 . S
C1398 C1399 1.373 . S
C1398 C1400 1.389 . S
C1399 H1378 0.950 . S
C1399 C1398 1.373 . S
C1399 C1415 1.377 . S
C1400 C1398 1.389 . S
C1400 C1401 1.524 . S
C1400 C1414 1.377 . S
C1401 C1400 1.524 . S
C1401 C1402 1.397 . S
C1401 C1406 1.363 . S
C1402 H1379 0.950 . S
C1402 C1401 1.397 . S
C1402 C1403 1.334 . S
C1403 H1380 0.950 . S
C1403 C1402 1.334 . S
C1403 C1404 1.287 . S
C1404 C1403 1.287 . S
C1404 C1405 1.524 . S
C1404 H1423 0.913 . S
C1405 H1381 0.950 . S
C1405 C1404 1.524 . S
C1405 C1406 1.415 . S
C1406 H1382 0.950 . S
C1406 C1401 1.363 . S
C1406 C1405 1.415 . S
C1407 H1383 0.951 . S
C1407 C1408 1.366 . S
C1407 C1409 1.388 . S
C1408 C1407 1.366 . S
C1408 C1412 1.385 . S
C1409 H1384 0.951 . S
C1409 C1407 1.388 . S
C1409 C1410 1.366 . S
C1410 C1409 1.366 . S
C1410 C1411 1.414 . S
C1410 C1413 1.499 . S
C1411 H1385 0.950 . S
C1411 C1410 1.414 . S
C1411 C1412 1.374 . S
C1412 H1386 0.950 . S
C1412 C1408 1.385 . S
C1412 C1411 1.374 . S
C1413 C1410 1.499 . S
C1413 C1414 1.373 . S
C1413 C1415 1.389 . S
C1414 H1387 0.950 . S
C1414 C1400 1.377 . S
C1414 C1413 1.373 . S
C1415 C1399 1.377 . S
C1415 C1413 1.389 . S
C1415 C1416 1.524 . S
C1416 C1415 1.524 . S
C1416 C1417 1.397 . S
C1416 C1421 1.363 . S
C1417 H1388 0.950 . S
C1417 C1416 1.397 . S
C1417 C1418 1.334 . S
C1418 H1389 0.950 . S
C1418 C1417 1.334 . S
C1418 C1419 1.287 . S
C1419 C1418 1.287 . S
C1419 C1420 1.524 . S
C1419 H1422 0.999 . S
C1420 H1390 0.950 . S
C1420 C1419 1.524 . S
C1420 C1421 1.415 . S
C1421 H1391 0.950 . S
C1421 C1416 1.363 . S
C1421 C1420 1.415 . S
H1422 C1419 0.999 . S
H1423 C1404 0.913 . S
H1424 C1442 0.951 . S
H1425 C1444 0.951 . S
H1426 C1446 0.950 . S
H1427 C1447 0.950 . S
H1428 C1449 0.950 . S
H1429 C1452 0.950 . S
H1430 C1453 0.950 . S
H1431 C1455 0.950 . S
H1432 C1456 0.950 . S
H1433 C1457 0.951 . S
H1434 C1459 0.951 . S
H1435 C1461 0.950 . S
H1436 C1462 0.950 . S
H1437 C1464 0.950 . S
H1438 C1467 0.950 . S
H1439 C1468 0.950 . S
H1440 C1470 0.950 . S
H1441 C1471 0.950 . S
C1442 H1424 0.951 . S
C1442 C1443 1.366 . S
C1442 C1444 1.388 . S
C1443 C1442 1.366 . S
C1443 C1447 1.385 . S
C1444 H1425 0.951 . S
C1444 C1442 1.388 . S
C1444 C1445 1.366 . S
C1445 C1444 1.366 . S
C1445 C1446 1.414 . S
C1445 C1448 1.499 . S
C1446 H1426 0.950 . S
C1446 C1445 1.414 . S
C1446 C1447 1.374 . S
C1447 H1427 0.950 . S
C1447 C1443 1.385 . S
C1447 C1446 1.374 . S
C1448 C1445 1.499 . S
C1448 C1449 1.373 . S
C1448 C1450 1.389 . S
C1449 H1428 0.950 . S
C1449 C1448 1.373 . S
C1449 C1465 1.377 . S
C1450 C1448 1.389 . S
C1450 C1451 1.524 . S
C1450 C1464 1.377 . S
C1451 C1450 1.524 . S
C1451 C1452 1.397 . S
C1451 C1456 1.363 . S
C1452 H1429 0.950 . S
C1452 C1451 1.397 . S
C1452 C1453 1.334 . S
C1453 H1430 0.950 . S
C1453 C1452 1.334 . S
C1453 C1454 1.287 . S
C1454 C1453 1.287 . S
C1454 C1455 1.524 . S
C1454 H1473 0.913 . S
C1455 H1431 0.950 . S
C1455 C1454 1.524 . S
C1455 C1456 1.415 . S
C1456 H1432 0.950 . S
C1456 C1451 1.363 . S
C1456 C1455 1.415 . S
C1457 H1433 0.951 . S
C1457 C1458 1.366 . S
C1457 C1459 1.388 . S
C1458 C1457 1.366 . S
C1458 C1462 1.385 . S
C1459 H1434 0.951 . S
C1459 C1457 1.388 . S
C1459 C1460 1.366 . S
C1460 C1459 1.366 . S
C1460 C1461 1.414 . S
C1460 C1463 1.499 . S
C1461 H1435 0.950 . S
C1461 C1460 1.414 . S
C1461 C1462 1.374 . S
C1462 H1436 0.950 . S
C1462 C1458 1.385 . S
C1462 C1461 1.374 . S
C1463 C1460 1.499 . S
C1463 C1464 1.373 . S
C1463 C1465 1.389 . S
C1464 H1437 0.950 . S
C1464 C1450 1.377 . S
C1464 C1463 1.373 . S
C1465 C1449 1.377 . S
C1465 C1463 1.389 . S
C1465 C1466 1.524 . S
C1466 C1465 1.524 . S
C1466 C1467 1.397 . S
C1466 C1471 1.363 . S
C1467 H1438 0.950 . S
C1467 C1466 1.397 . S
C1467 C1468 1.334 . S
C1468 H1439 0.950 . S
C1468 C1467 1.334 . S
C1468 C1469 1.287 . S
C1469 C1468 1.287 . S
C1469 C1470 1.524 . S
C1469 H1472 0.999 . S
C1470 H1440 0.950 . S
C1470 C1469 1.524 . S
C1470 C1471 1.415 . S
C1471 H1441 0.950 . S
C1471 C1466 1.363 . S
C1471 C1470 1.415 . S
H1472 C1469 0.999 . S
H1473 C1454 0.913 . S
H1474 C1492 0.951 . S
H1475 C1494 0.951 . S
H1476 C1496 0.950 . S
H1477 C1497 0.950 . S
H1478 C1499 0.950 . S
H1479 C1502 0.950 . S
H1480 C1503 0.950 . S
H1481 C1505 0.950 . S
H1482 C1506 0.950 . S
H1483 C1507 0.951 . S
H1484 C1509 0.951 . S
H1485 C1511 0.950 . S
H1486 C1512 0.950 . S
H1487 C1514 0.950 . S
H1488 C1517 0.950 . S
H1489 C1518 0.950 . S
H1490 C1520 0.950 . S
H1491 C1521 0.950 . S
C1492 H1474 0.951 . S
C1492 C1493 1.366 . S
C1492 C1494 1.388 . S
C1493 C1492 1.366 . S
C1493 C1497 1.385 . S
C1494 H1475 0.951 . S
C1494 C1492 1.388 . S
C1494 C1495 1.366 . S
C1495 C1494 1.366 . S
C1495 C1496 1.414 . S
C1495 C1498 1.499 . S
C1496 H1476 0.950 . S
C1496 C1495 1.414 . S
C1496 C1497 1.374 . S
C1497 H1477 0.950 . S
C1497 C1493 1.385 . S
C1497 C1496 1.374 . S
C1498 C1495 1.499 . S
C1498 C1499 1.373 . S
C1498 C1500 1.389 . S
C1499 H1478 0.950 . S
C1499 C1498 1.373 . S
C1499 C1515 1.377 . S
C1500 C1498 1.389 . S
C1500 C1501 1.524 . S
C1500 C1514 1.377 . S
C1501 C1500 1.524 . S
C1501 C1502 1.397 . S
C1501 C1506 1.363 . S
C1502 H1479 0.950 . S
C1502 C1501 1.397 . S
C1502 C1503 1.334 . S
C1503 H1480 0.950 . S
C1503 C1502 1.334 . S
C1503 C1504 1.287 . S
C1504 C1503 1.287 . S
C1504 C1505 1.524 . S
C1504 H1523 0.913 . S
C1505 H1481 0.950 . S
C1505 C1504 1.524 . S
C1505 C1506 1.415 . S
C1506 H1482 0.950 . S
C1506 C1501 1.363 . S
C1506 C1505 1.415 . S
C1507 H1483 0.951 . S
C1507 C1508 1.366 . S
C1507 C1509 1.388 . S
C1508 C1507 1.366 . S
C1508 C1512 1.385 . S
C1509 H1484 0.951 . S
C1509 C1507 1.388 . S
C1509 C1510 1.366 . S
C1510 C1509 1.366 . S
C1510 C1511 1.414 . S
C1510 C1513 1.499 . S
C1511 H1485 0.950 . S
C1511 C1510 1.414 . S
C1511 C1512 1.374 . S
C1512 H1486 0.950 . S
C1512 C1508 1.385 . S
C1512 C1511 1.374 . S
C1513 C1510 1.499 . S
C1513 C1514 1.373 . S
C1513 C1515 1.389 . S
C1514 H1487 0.950 . S
C1514 C1500 1.377 . S
C1514 C1513 1.373 . S
C1515 C1499 1.377 . S
C1515 C1513 1.389 . S
C1515 C1516 1.524 . S
C1516 C1515 1.524 . S
C1516 C1517 1.397 . S
C1516 C1521 1.363 . S
C1517 H1488 0.950 . S
C1517 C1516 1.397 . S
C1517 C1518 1.334 . S
C1518 H1489 0.950 . S
C1518 C1517 1.334 . S
C1518 C1519 1.287 . S
C1519 C1518 1.287 . S
C1519 C1520 1.524 . S
C1519 H1522 0.999 . S
C1520 H1490 0.950 . S
C1520 C1519 1.524 . S
C1520 C1521 1.415 . S
C1521 H1491 0.950 . S
C1521 C1516 1.363 . S
C1521 C1520 1.415 . S
H1522 C1519 0.999 . S
H1523 C1504 0.913 . S
H1524 C1542 0.951 . S
H1525 C1544 0.951 . S
H1526 C1546 0.950 . S
H1527 C1547 0.950 . S
H1528 C1549 0.950 . S
H1529 C1552 0.950 . S
H1530 C1553 0.950 . S
H1531 C1555 0.950 . S
H1532 C1556 0.950 . S
H1533 C1557 0.951 . S
H1534 C1559 0.951 . S
H1535 C1561 0.950 . S
H1536 C1562 0.950 . S
H1537 C1564 0.950 . S
H1538 C1567 0.950 . S
H1539 C1568 0.950 . S
H1540 C1570 0.950 . S
H1541 C1571 0.950 . S
C1542 H1524 0.951 . S
C1542 C1543 1.366 . S
C1542 C1544 1.388 . S
C1543 C1542 1.366 . S
C1543 C1547 1.385 . S
C1544 H1525 0.951 . S
C1544 C1542 1.388 . S
C1544 C1545 1.366 . S
C1545 C1544 1.366 . S
C1545 C1546 1.414 . S
C1545 C1548 1.499 . S
C1546 H1526 0.950 . S
C1546 C1545 1.414 . S
C1546 C1547 1.374 . S
C1547 H1527 0.950 . S
C1547 C1543 1.385 . S
C1547 C1546 1.374 . S
C1548 C1545 1.499 . S
C1548 C1549 1.373 . S
C1548 C1550 1.389 . S
C1549 H1528 0.950 . S
C1549 C1548 1.373 . S
C1549 C1565 1.377 . S
C1550 C1548 1.389 . S
C1550 C1551 1.524 . S
C1550 C1564 1.377 . S
C1551 C1550 1.524 . S
C1551 C1552 1.397 . S
C1551 C1556 1.363 . S
C1552 H1529 0.950 . S
C1552 C1551 1.397 . S
C1552 C1553 1.334 . S
C1553 H1530 0.950 . S
C1553 C1552 1.334 . S
C1553 C1554 1.287 . S
C1554 C1553 1.287 . S
C1554 C1555 1.524 . S
C1554 H1573 0.913 . S
C1555 H1531 0.950 . S
C1555 C1554 1.524 . S
C1555 C1556 1.415 . S
C1556 H1532 0.950 . S
C1556 C1551 1.363 . S
C1556 C1555 1.415 . S
C1557 H1533 0.951 . S
C1557 C1558 1.366 . S
C1557 C1559 1.388 . S
C1558 C1557 1.366 . S
C1558 C1562 1.385 . S
C1559 H1534 0.951 . S
C1559 C1557 1.388 . S
C1559 C1560 1.366 . S
C1560 C1559 1.366 . S
C1560 C1561 1.414 . S
C1560 C1563 1.499 . S
C1561 H1535 0.950 . S
C1561 C1560 1.414 . S
C1561 C1562 1.374 . S
C1562 H1536 0.950 . S
C1562 C1558 1.385 . S
C1562 C1561 1.374 . S
C1563 C1560 1.499 . S
C1563 C1564 1.373 . S
C1563 C1565 1.389 . S
C1564 H1537 0.950 . S
C1564 C1550 1.377 . S
C1564 C1563 1.373 . S
C1565 C1549 1.377 . S
C1565 C1563 1.389 . S
C1565 C1566 1.524 . S
C1566 C1565 1.524 . S
C1566 C1567 1.397 . S
C1566 C1571 1.363 . S
C1567 H1538 0.950 . S
C1567 C1566 1.397 . S
C1567 C1568 1.334 . S
C1568 H1539 0.950 . S
C1568 C1567 1.334 . S
C1568 C1569 1.287 . S
C1569 C1568 1.287 . S
C1569 C1570 1.524 . S
C1569 H1572 0.999 . S
C1570 H1540 0.950 . S
C1570 C1569 1.524 . S
C1570 C1571 1.415 . S
C1571 H1541 0.950 . S
C1571 C1566 1.363 . S
C1571 C1570 1.415 . S
H1572 C1569 0.999 . S
H1573 C1554 0.913 . S
H1574 C1592 0.951 . S
H1575 C1594 0.951 . S
H1576 C1596 0.950 . S
H1577 C1597 0.950 . S
H1578 C1599 0.950 . S
H1579 C1602 0.950 . S
H1580 C1603 0.950 . S
H1581 C1605 0.950 . S
H1582 C1606 0.950 . S
H1583 C1607 0.951 . S
H1584 C1609 0.951 . S
H1585 C1611 0.950 . S
H1586 C1612 0.950 . S
H1587 C1614 0.950 . S
H1588 C1617 0.950 . S
H1589 C1618 0.950 . S
H1590 C1620 0.950 . S
H1591 C1621 0.950 . S
C1592 H1574 0.951 . S
C1592 C1593 1.366 . S
C1592 C1594 1.388 . S
C1593 C1592 1.366 . S
C1593 C1597 1.385 . S
C1594 H1575 0.951 . S
C1594 C1592 1.388 . S
C1594 C1595 1.366 . S
C1595 C1594 1.366 . S
C1595 C1596 1.414 . S
C1595 C1598 1.499 . S
C1596 H1576 0.950 . S
C1596 C1595 1.414 . S
C1596 C1597 1.374 . S
C1597 H1577 0.950 . S
C1597 C1593 1.385 . S
C1597 C1596 1.374 . S
C1598 C1595 1.499 . S
C1598 C1599 1.373 . S
C1598 C1600 1.389 . S
C1599 H1578 0.950 . S
C1599 C1598 1.373 . S
C1599 C1615 1.377 . S
C1600 C1598 1.389 . S
C1600 C1601 1.524 . S
C1600 C1614 1.377 . S
C1601 C1600 1.524 . S
C1601 C1602 1.397 . S
C1601 C1606 1.363 . S
C1602 H1579 0.950 . S
C1602 C1601 1.397 . S
C1602 C1603 1.334 . S
C1603 H1580 0.950 . S
C1603 C1602 1.334 . S
C1603 C1604 1.287 . S
C1604 C1603 1.287 . S
C1604 C1605 1.524 . S
C1604 H1623 0.913 . S
C1605 H1581 0.950 . S
C1605 C1604 1.524 . S
C1605 C1606 1.415 . S
C1606 H1582 0.950 . S
C1606 C1601 1.363 . S
C1606 C1605 1.415 . S
C1607 H1583 0.951 . S
C1607 C1608 1.366 . S
C1607 C1609 1.388 . S
C1608 C1607 1.366 . S
C1608 C1612 1.385 . S
C1609 H1584 0.951 . S
C1609 C1607 1.388 . S
C1609 C1610 1.366 . S
C1610 C1609 1.366 . S
C1610 C1611 1.414 . S
C1610 C1613 1.499 . S
C1611 H1585 0.950 . S
C1611 C1610 1.414 . S
C1611 C1612 1.374 . S
C1612 H1586 0.950 . S
C1612 C1608 1.385 . S
C1612 C1611 1.374 . S
C1613 C1610 1.499 . S
C1613 C1614 1.373 . S
C1613 C1615 1.389 . S
C1614 H1587 0.950 . S
C1614 C1600 1.377 . S
C1614 C1613 1.373 . S
C1615 C1599 1.377 . S
C1615 C1613 1.389 . S
C1615 C1616 1.524 . S
C1616 C1615 1.524 . S
C1616 C1617 1.397 . S
C1616 C1621 1.363 . S
C1617 H1588 0.950 . S
C1617 C1616 1.397 . S
C1617 C1618 1.334 . S
C1618 H1589 0.950 . S
C1618 C1617 1.334 . S
C1618 C1619 1.287 . S
C1619 C1618 1.287 . S
C1619 C1620 1.524 . S
C1619 H1622 0.999 . S
C1620 H1590 0.950 . S
C1620 C1619 1.524 . S
C1620 C1621 1.415 . S
C1621 H1591 0.950 . S
C1621 C1616 1.363 . S
C1621 C1620 1.415 . S
H1622 C1619 0.999 . S
H1623 C1604 0.913 . S
H1624 C1642 0.951 . S
H1625 C1644 0.951 . S
H1626 C1646 0.950 . S
H1627 C1647 0.950 . S
H1628 C1649 0.950 . S
H1629 C1652 0.950 . S
H1630 C1653 0.950 . S
H1631 C1655 0.950 . S
H1632 C1656 0.950 . S
H1633 C1657 0.951 . S
H1634 C1659 0.951 . S
H1635 C1661 0.950 . S
H1636 C1662 0.950 . S
H1637 C1664 0.950 . S
H1638 C1667 0.950 . S
H1639 C1668 0.950 . S
H1640 C1670 0.950 . S
H1641 C1671 0.950 . S
C1642 H1624 0.951 . S
C1642 C1643 1.366 . S
C1642 C1644 1.388 . S
C1643 C1642 1.366 . S
C1643 C1647 1.385 . S
C1644 H1625 0.951 . S
C1644 C1642 1.388 . S
C1644 C1645 1.366 . S
C1645 C1644 1.366 . S
C1645 C1646 1.414 . S
C1645 C1648 1.499 . S
C1646 H1626 0.950 . S
C1646 C1645 1.414 . S
C1646 C1647 1.374 . S
C1647 H1627 0.950 . S
C1647 C1643 1.385 . S
C1647 C1646 1.374 . S
C1648 C1645 1.499 . S
C1648 C1649 1.373 . S
C1648 C1650 1.389 . S
C1649 H1628 0.950 . S
C1649 C1648 1.373 . S
C1649 C1665 1.377 . S
C1650 C1648 1.389 . S
C1650 C1651 1.524 . S
C1650 C1664 1.377 . S
C1651 C1650 1.524 . S
C1651 C1652 1.397 . S
C1651 C1656 1.363 . S
C1652 H1629 0.950 . S
C1652 C1651 1.397 . S
C1652 C1653 1.334 . S
C1653 H1630 0.950 . S
C1653 C1652 1.334 . S
C1653 C1654 1.287 . S
C1654 C1653 1.287 . S
C1654 C1655 1.524 . S
C1654 H1673 0.913 . S
C1655 H1631 0.950 . S
C1655 C1654 1.524 . S
C1655 C1656 1.415 . S
C1656 H1632 0.950 . S
C1656 C1651 1.363 . S
C1656 C1655 1.415 . S
C1657 H1633 0.951 . S
C1657 C1658 1.366 . S
C1657 C1659 1.388 . S
C1658 C1657 1.366 . S
C1658 C1662 1.385 . S
C1659 H1634 0.951 . S
C1659 C1657 1.388 . S
C1659 C1660 1.366 . S
C1660 C1659 1.366 . S
C1660 C1661 1.414 . S
C1660 C1663 1.499 . S
C1661 H1635 0.950 . S
C1661 C1660 1.414 . S
C1661 C1662 1.374 . S
C1662 H1636 0.950 . S
C1662 C1658 1.385 . S
C1662 C1661 1.374 . S
C1663 C1660 1.499 . S
C1663 C1664 1.373 . S
C1663 C1665 1.389 . S
C1664 H1637 0.950 . S
C1664 C1650 1.377 . S
C1664 C1663 1.373 . S
C1665 C1649 1.377 . S
C1665 C1663 1.389 . S
C1665 C1666 1.524 . S
C1666 C1665 1.524 . S
C1666 C1667 1.397 . S
C1666 C1671 1.363 . S
C1667 H1638 0.950 . S
C1667 C1666 1.397 . S
C1667 C1668 1.334 . S
C1668 H1639 0.950 . S
C1668 C1667 1.334 . S
C1668 C1669 1.287 . S
C1669 C1668 1.287 . S
C1669 C1670 1.524 . S
C1669 H1672 0.999 . S
C1670 H1640 0.950 . S
C1670 C1669 1.524 . S
C1670 C1671 1.415 . S
C1671 H1641 0.950 . S
C1671 C1666 1.363 . S
C1671 C1670 1.415 . S
H1672 C1669 0.999 . S
H1673 C1654 0.913 . S
H1674 C1692 0.951 . S
H1675 C1694 0.951 . S
H1676 C1696 0.950 . S
H1677 C1697 0.950 . S
H1678 C1699 0.950 . S
H1679 C1702 0.950 . S
H1680 C1703 0.950 . S
H1681 C1705 0.950 . S
H1682 C1706 0.950 . S
H1683 C1707 0.951 . S
H1684 C1709 0.951 . S
H1685 C1711 0.950 . S
H1686 C1712 0.950 . S
H1687 C1714 0.950 . S
H1688 C1717 0.950 . S
H1689 C1718 0.950 . S
H1690 C1720 0.950 . S
H1691 C1721 0.950 . S
C1692 H1674 0.951 . S
C1692 C1693 1.366 . S
C1692 C1694 1.388 . S
C1693 C1692 1.366 . S
C1693 C1697 1.385 . S
C1694 H1675 0.951 . S
C1694 C1692 1.388 . S
C1694 C1695 1.366 . S
C1695 C1694 1.366 . S
C1695 C1696 1.414 . S
C1695 C1698 1.499 . S
C1696 H1676 0.950 . S
C1696 C1695 1.414 . S
C1696 C1697 1.374 . S
C1697 H1677 0.950 . S
C1697 C1693 1.385 . S
C1697 C1696 1.374 . S
C1698 C1695 1.499 . S
C1698 C1699 1.373 . S
C1698 C1700 1.389 . S
C1699 H1678 0.950 . S
C1699 C1698 1.373 . S
C1699 C1715 1.377 . S
C1700 C1698 1.389 . S
C1700 C1701 1.524 . S
C1700 C1714 1.377 . S
C1701 C1700 1.524 . S
C1701 C1702 1.397 . S
C1701 C1706 1.363 . S
C1702 H1679 0.950 . S
C1702 C1701 1.397 . S
C1702 C1703 1.334 . S
C1703 H1680 0.950 . S
C1703 C1702 1.334 . S
C1703 C1704 1.287 . S
C1704 C1703 1.287 . S
C1704 C1705 1.524 . S
C1704 H1723 0.913 . S
C1705 H1681 0.950 . S
C1705 C1704 1.524 . S
C1705 C1706 1.415 . S
C1706 H1682 0.950 . S
C1706 C1701 1.363 . S
C1706 C1705 1.415 . S
C1707 H1683 0.951 . S
C1707 C1708 1.366 . S
C1707 C1709 1.388 . S
C1708 C1707 1.366 . S
C1708 C1712 1.385 . S
C1709 H1684 0.951 . S
C1709 C1707 1.388 . S
C1709 C1710 1.366 . S
C1710 C1709 1.366 . S
C1710 C1711 1.414 . S
C1710 C1713 1.499 . S
C1711 H1685 0.950 . S
C1711 C1710 1.414 . S
C1711 C1712 1.374 . S
C1712 H1686 0.950 . S
C1712 C1708 1.385 . S
C1712 C1711 1.374 . S
C1713 C1710 1.499 . S
C1713 C1714 1.373 . S
C1713 C1715 1.389 . S
C1714 H1687 0.950 . S
C1714 C1700 1.377 . S
C1714 C1713 1.373 . S
C1715 C1699 1.377 . S
C1715 C1713 1.389 . S
C1715 C1716 1.524 . S
C1716 C1715 1.524 . S
C1716 C1717 1.397 . S
C1716 C1721 1.363 . S
C1717 H1688 0.950 . S
C1717 C1716 1.397 . S
C1717 C1718 1.334 . S
C1718 H1689 0.950 . S
C1718 C1717 1.334 . S
C1718 C1719 1.287 . S
C1719 C1718 1.287 . S
C1719 C1720 1.524 . S
C1719 H1722 0.999 . S
C1720 H1690 0.950 . S
C1720 C1719 1.524 . S
C1720 C1721 1.415 . S
C1721 H1691 0.950 . S
C1721 C1716 1.363 . S
C1721 C1720 1.415 . S
H1722 C1719 0.999 . S
H1723 C1704 0.913 . S
H1724 C1742 0.951 . S
H1725 C1744 0.951 . S
H1726 C1746 0.950 . S
H1727 C1747 0.950 . S
H1728 C1749 0.950 . S
H1729 C1752 0.950 . S
H1730 C1753 0.950 . S
H1731 C1755 0.950 . S
H1732 C1756 0.950 . S
H1733 C1757 0.951 . S
H1734 C1759 0.951 . S
H1735 C1761 0.950 . S
H1736 C1762 0.950 . S
H1737 C1764 0.950 . S
H1738 C1767 0.950 . S
H1739 C1768 0.950 . S
H1740 C1770 0.950 . S
H1741 C1771 0.950 . S
C1742 H1724 0.951 . S
C1742 C1743 1.366 . S
C1742 C1744 1.388 . S
C1743 C1742 1.366 . S
C1743 C1747 1.385 . S
C1744 H1725 0.951 . S
C1744 C1742 1.388 . S
C1744 C1745 1.366 . S
C1745 C1744 1.366 . S
C1745 C1746 1.414 . S
C1745 C1748 1.499 . S
C1746 H1726 0.950 . S
C1746 C1745 1.414 . S
C1746 C1747 1.374 . S
C1747 H1727 0.950 . S
C1747 C1743 1.385 . S
C1747 C1746 1.374 . S
C1748 C1745 1.499 . S
C1748 C1749 1.373 . S
C1748 C1750 1.389 . S
C1749 H1728 0.950 . S
C1749 C1748 1.373 . S
C1749 C1765 1.377 . S
C1750 C1748 1.389 . S
C1750 C1751 1.524 . S
C1750 C1764 1.377 . S
C1751 C1750 1.524 . S
C1751 C1752 1.397 . S
C1751 C1756 1.363 . S
C1752 H1729 0.950 . S
C1752 C1751 1.397 . S
C1752 C1753 1.334 . S
C1753 H1730 0.950 . S
C1753 C1752 1.334 . S
C1753 C1754 1.287 . S
C1754 C1753 1.287 . S
C1754 C1755 1.524 . S
C1754 H1773 0.913 . S
C1755 H1731 0.950 . S
C1755 C1754 1.524 . S
C1755 C1756 1.415 . S
C1756 H1732 0.950 . S
C1756 C1751 1.363 . S
C1756 C1755 1.415 . S
C1757 H1733 0.951 . S
C1757 C1758 1.366 . S
C1757 C1759 1.388 . S
C1758 C1757 1.366 . S
C1758 C1762 1.385 . S
C1759 H1734 0.951 . S
C1759 C1757 1.388 . S
C1759 C1760 1.366 . S
C1760 C1759 1.366 . S
C1760 C1761 1.414 . S
C1760 C1763 1.499 . S
C1761 H1735 0.950 . S
C1761 C1760 1.414 . S
C1761 C1762 1.374 . S
C1762 H1736 0.950 . S
C1762 C1758 1.385 . S
C1762 C1761 1.374 . S
C1763 C1760 1.499 . S
C1763 C1764 1.373 . S
C1763 C1765 1.389 . S
C1764 H1737 0.950 . S
C1764 C1750 1.377 . S
C1764 C1763 1.373 . S
C1765 C1749 1.377 . S
C1765 C1763 1.389 . S
C1765 C1766 1.524 . S
C1766 C1765 1.524 . S
C1766 C1767 1.397 . S
C1766 C1771 1.363 . S
C1767 H1738 0.950 . S
C1767 C1766 1.397 . S
C1767 C1768 1.334 . S
C1768 H1739 0.950 . S
C1768 C1767 1.334 . S
C1768 C1769 1.287 . S
C1769 C1768 1.287 . S
C1769 C1770 1.524 . S
C1769 H1772 0.999 . S
C1770 H1740 0.950 . S
C1770 C1769 1.524 . S
C1770 C1771 1.415 . S
C1771 H1741 0.950 . S
C1771 C1766 1.363 . S
C1771 C1770 1.415 . S
H1772 C1769 0.999 . S
H1773 C1754 0.913 . S
H1774 C1792 0.951 . S
H1775 C1794 0.951 . S
H1776 C1796 0.950 . S
H1777 C1797 0.950 . S
H1778 C1799 0.950 . S
H1779 C1802 0.950 . S
H1780 C1803 0.950 . S
H1781 C1805 0.950 . S
H1782 C1806 0.950 . S
H1783 C1807 0.951 . S
H1784 C1809 0.951 . S
H1785 C1811 0.950 . S
H1786 C1812 0.950 . S
H1787 C1814 0.950 . S
H1788 C1817 0.950 . S
H1789 C1818 0.950 . S
H1790 C1820 0.950 . S
H1791 C1821 0.950 . S
C1792 H1774 0.951 . S
C1792 C1793 1.366 . S
C1792 C1794 1.388 . S
C1793 C1792 1.366 . S
C1793 C1797 1.385 . S
C1794 H1775 0.951 . S
C1794 C1792 1.388 . S
C1794 C1795 1.366 . S
C1795 C1794 1.366 . S
C1795 C1796 1.414 . S
C1795 C1798 1.499 . S
C1796 H1776 0.950 . S
C1796 C1795 1.414 . S
C1796 C1797 1.374 . S
C1797 H1777 0.950 . S
C1797 C1793 1.385 . S
C1797 C1796 1.374 . S
C1798 C1795 1.499 . S
C1798 C1799 1.373 . S
C1798 C1800 1.389 . S
C1799 H1778 0.950 . S
C1799 C1798 1.373 . S
C1799 C1815 1.377 . S
C1800 C1798 1.389 . S
C1800 C1801 1.524 . S
C1800 C1814 1.377 . S
C1801 C1800 1.524 . S
C1801 C1802 1.397 . S
C1801 C1806 1.363 . S
C1802 H1779 0.950 . S
C1802 C1801 1.397 . S
C1802 C1803 1.334 . S
C1803 H1780 0.950 . S
C1803 C1802 1.334 . S
C1803 C1804 1.287 . S
C1804 C1803 1.287 . S
C1804 C1805 1.524 . S
C1804 H1823 0.913 . S
C1805 H1781 0.950 . S
C1805 C1804 1.524 . S
C1805 C1806 1.415 . S
C1806 H1782 0.950 . S
C1806 C1801 1.363 . S
C1806 C1805 1.415 . S
C1807 H1783 0.951 . S
C1807 C1808 1.366 . S
C1807 C1809 1.388 . S
C1808 C1807 1.366 . S
C1808 C1812 1.385 . S
C1809 H1784 0.951 . S
C1809 C1807 1.388 . S
C1809 C1810 1.366 . S
C1810 C1809 1.366 . S
C1810 C1811 1.414 . S
C1810 C1813 1.499 . S
C1811 H1785 0.950 . S
C1811 C1810 1.414 . S
C1811 C1812 1.374 . S
C1812 H1786 0.950 . S
C1812 C1808 1.385 . S
C1812 C1811 1.374 . S
C1813 C1810 1.499 . S
C1813 C1814 1.373 . S
C1813 C1815 1.389 . S
C1814 H1787 0.950 . S
C1814 C1800 1.377 . S
C1814 C1813 1.373 . S
C1815 C1799 1.377 . S
C1815 C1813 1.389 . S
C1815 C1816 1.524 . S
C1816 C1815 1.524 . S
C1816 C1817 1.397 . S
C1816 C1821 1.363 . S
C1817 H1788 0.950 . S
C1817 C1816 1.397 . S
C1817 C1818 1.334 . S
C1818 H1789 0.950 . S
C1818 C1817 1.334 . S
C1818 C1819 1.287 . S
C1819 C1818 1.287 . S
C1819 C1820 1.524 . S
C1819 H1822 0.999 . S
C1820 H1790 0.950 . S
C1820 C1819 1.524 . S
C1820 C1821 1.415 . S
C1821 H1791 0.950 . S
C1821 C1816 1.363 . S
C1821 C1820 1.415 . S
H1822 C1819 0.999 . S
H1823 C1804 0.913 . S
C243 C218 1.135 . S
C258 C8 1.135 . S
C293 C176 1.135 . S
C308 C22 1.135 . S
C343 C36 1.135 . S
C358 C190 1.135 . S
C393 C204 1.136 . S
C408 C50 1.135 . S
C443 C134 1.135 . S
C458 C64 1.135 . S
C493 C78 1.135 . S
C508 C148 1.135 . S
C543 C92 1.135 . S
C558 C162 1.135 . S
C593 C106 1.136 . S
C608 C120 1.135 . S
C643 C73 1.653 . S
C658 C7 1.565 . S
C693 C91 1.564 . S
C708 C17 1.653 . S
C743 C101 1.653 . S
C758 C35 1.564 . S
C793 C45 1.653 . S
C808 C63 1.564 . S
C843 C9 1.167 . S
C858 C23 1.166 . S
C893 C31 1.653 . S
C908 C21 1.565 . S
C943 C37 1.167 . S
C958 C51 1.166 . S
C993 C3 1.653 . S
C1008 C49 1.564 . S
C1043 C107 1.167 . S
C1058 C65 1.166 . S
C1093 C59 1.653 . S
C1108 C77 1.563 . S
C1143 C79 1.166 . S
C1158 C93 1.167 . S
C1193 C105 1.565 . S
C1208 C87 1.653 . S
C1243 C185 1.653 . S
C1258 C119 1.564 . S
C1293 C129 1.653 . S
C1308 C203 1.565 . S
C1343 C213 1.653 . S
C1358 C147 1.564 . S
C1393 C175 1.565 . S
C1408 C157 1.653 . S
C1443 C121 1.166 . S
C1458 C135 1.167 . S
C1493 C133 1.564 . S
C1508 C143 1.653 . S
C1543 C163 1.167 . S
C1558 C149 1.166 . S
C1593 C115 1.653 . S
C1608 C161 1.564 . S
C1643 C219 1.166 . S
C1658 C177 1.167 . S
C1693 C171 1.653 . S
C1708 C189 1.564 . S
C1743 C191 1.166 . S
C1758 C205 1.167 . S
C1793 C217 1.563 . S
C1808 C199 1.653 . S
