# Generated by pormake.
# Topology qtz-e, (6)-cn, num edge types: 1
# Building blocks:
#     Node 0, Type 0, BuildingBlock: CUWYAW_clean_sbu_0, # of connection points: 6
#     Node 1, Type 0, BuildingBlock: CUWYAW_clean_sbu_0, # of connection points: 6
#     Node 2, Type 0, BuildingBlock: CUWYAW_clean_sbu_0, # of connection points: 6
#     Node 3, Type 0, BuildingBlock: CUWYAW_clean_sbu_0, # of connection points: 6
#     Node 4, Type 0, BuildingBlock: CUWYAW_clean_sbu_0, # of connection points: 6
#     Node 5, Type 0, BuildingBlock: CUWYAW_clean_sbu_0, # of connection points: 6
#     Edge 6, Type (0, 0), BuildingBlock: XIVTED_clean_linker_0, # of connection points: 2
#     Edge 7, Type (0, 0), BuildingBlock: XIVTED_clean_linker_0, # of connection points: 2
#     Edge 8, Type (0, 0), BuildingBlock: XIVTED_clean_linker_0, # of connection points: 2
#     Edge 9, Type (0, 0), BuildingBlock: XIVTED_clean_linker_0, # of connection points: 2
#     Edge 10, Type (0, 0), BuildingBlock: XIVTED_clean_linker_0, # of connection points: 2
#     Edge 11, Type (0, 0), BuildingBlock: XIVTED_clean_linker_0, # of connection points: 2
#     Edge 12, Type (0, 0), BuildingBlock: XIVTED_clean_linker_0, # of connection points: 2
#     Edge 13, Type (0, 0), BuildingBlock: XIVTED_clean_linker_0, # of connection points: 2
#     Edge 14, Type (0, 0), BuildingBlock: XIVTED_clean_linker_0, # of connection points: 2
#     Edge 15, Type (0, 0), BuildingBlock: XIVTED_clean_linker_0, # of connection points: 2
#     Edge 16, Type (0, 0), BuildingBlock: XIVTED_clean_linker_0, # of connection points: 2
#     Edge 17, Type (0, 0), BuildingBlock: XIVTED_clean_linker_0, # of connection points: 2
#     Edge 18, Type (0, 0), BuildingBlock: XIVTED_clean_linker_0, # of connection points: 2
#     Edge 19, Type (0, 0), BuildingBlock: XIVTED_clean_linker_0, # of connection points: 2
#     Edge 20, Type (0, 0), BuildingBlock: XIVTED_clean_linker_0, # of connection points: 2
#     Edge 21, Type (0, 0), BuildingBlock: XIVTED_clean_linker_0, # of connection points: 2
#     Edge 22, Type (0, 0), BuildingBlock: XIVTED_clean_linker_0, # of connection points: 2
#     Edge 23, Type (0, 0), BuildingBlock: XIVTED_clean_linker_0, # of connection points: 2
# Relax obj value: 0.135
# Max RMSD: 0.205
# Mean RMSD: 0.205
data_MOF--net-qtz-e--node1-CUWYAW_clean_sbu_0--edge1-XIVTED_clean_linker_0
_symmetry_space_group_name_H-M    P1
_symmetry_Int_Tables_number       1
_symmetry_cell_setting            triclinic
loop_
_symmetry_equiv_pos_as_xyz
'x, y, z'
_cell_length_a     25.875802
_cell_length_b     25.400629
_cell_length_c     51.916198
_cell_angle_alpha  90.239562
_cell_angle_beta   89.936224
_cell_angle_gamma 119.90027
loop_
_atom_site_label
_atom_site_type_symbol
_atom_site_fract_x
_atom_site_fract_y
_atom_site_fract_z
_atom_type_partial_charge
C0 C 0.18032 0.26763 0.03104 0.0
Eu1 Eu 0.17247 0.35868 0.04978 0.0
C2 C 0.19453 0.25471 1.00483 0.0
C3 C 0.14992 0.20797 0.98983 0.0
C4 C 0.16097 0.1992 0.96418 0.0
C5 C 0.21704 0.23691 0.95292 0.0
C6 C 0.26223 0.2823 0.96828 0.0
C7 C 0.25115 0.29114 0.99386 0.0
C8 C 0.0771 0.37267 0.0407 0.0
C9 C 0.22442 0.46165 1.00437 0.0
C10 C 0.1766 0.57237 0.07658 0.0
Eu11 Eu 0.18915 0.48324 0.05957 0.0
C12 C 0.18676 0.59822 0.1028 0.0
C13 C 0.23332 0.60175 0.118 0.0
C14 C 0.24043 0.62178 0.14353 0.0
C15 C 0.20066 0.63798 0.1546 0.0
C16 C 0.15393 0.63422 0.13928 0.0
C17 C 0.14712 0.61458 0.11362 0.0
C18 C 0.2885 0.47789 0.06789 0.0
C19 C 0.14062 0.37973 0.10592 0.0
O20 O 0.2235 0.31236 0.04393 0.0
O21 O 0.12983 0.26731 0.03331 0.0
O22 O 0.07287 0.327 0.05354 0.0
O23 O 0.12991 0.40792 0.03451 0.0
O24 O 0.22604 0.41562 1.01541 0.0
O25 O 0.20089 0.49054 1.0165 0.0
O26 O 0.13192 0.5169 0.07429 0.0
O27 O 0.22407 0.58046 0.06416 0.0
O28 O 0.28793 0.52503 0.05893 0.0
O29 O 0.23683 0.43642 0.07396 0.0
O30 O 0.14507 0.43005 0.09624 0.0
O31 O 0.15572 0.34537 0.09234 0.0
H32 H 0.10586 0.17915 0.99775 0.0
H33 H 0.12493 0.16406 0.95296 0.0
H34 H 0.30633 0.31145 0.9605 0.0
H35 H 0.28674 0.3275 1.00481 0.0
H36 H 0.26393 0.58828 0.11026 0.0
H37 H 0.2773 0.62471 0.15453 0.0
H38 H 0.1217 0.64514 0.14724 0.0
H39 H 0.11021 0.61098 0.10239 0.0
C40 C 0.90249 0.21951 0.36251 0.0
Eu41 Eu 0.79672 0.18864 0.38028 0.0
C42 C 0.93188 0.24013 0.33715 0.0
C43 C 0.96739 0.21727 0.32738 0.0
C44 C -0.00738 0.23372 0.30275 0.0
C45 C -0.01741 0.27324 0.28729 0.0
C46 C 0.94726 0.29638 0.29732 0.0
C47 C 0.92246 0.28019 0.32196 0.0
C48 C 0.69877 0.08087 0.36882 0.0
C49 C 0.73153 0.22882 0.33671 0.0
C50 C 0.57095 0.1467 0.40886 0.0
Eu51 Eu 0.6767 0.17917 0.39116 0.0
C52 C 0.54987 0.14729 0.4355 0.0
C53 C 0.53941 0.19423 0.44334 0.0
C54 C 0.52623 0.19948 0.46907 0.0
C55 C 0.52265 0.1576 0.48763 0.0
C56 C 0.53097 0.10931 0.47961 0.0
C57 C 0.54438 0.10419 0.45387 0.0
C58 C 0.77018 0.28991 0.39942 0.0
C59 C 0.74649 0.14506 0.43608 0.0
O60 O 0.8904 0.25678 0.37517 0.0
O61 O 0.85878 0.16337 0.36343 0.0
O62 O 0.7441 0.08447 0.38108 0.0
O63 O 0.70655 0.13259 0.36451 0.0
O64 O 0.78206 0.23937 0.34761 0.0
O65 O 0.67964 0.19445 0.34819 0.0
O66 O 0.58905 0.10786 0.40386 0.0
O67 O 0.60589 0.19999 0.39869 0.0
O68 O 0.71924 0.28032 0.3909 0.0
O69 O 0.76861 0.24093 0.40523 0.0
O70 O 0.6959 0.13835 0.42664 0.0
O71 O 0.79635 0.17121 0.4226 0.0
H72 H 0.97525 0.18624 0.33873 0.0
H73 H 0.02023 0.21565 0.29591 0.0
H74 H 0.93765 0.32613 0.28595 0.0
H75 H 0.89537 0.29855 0.32904 0.0
H76 H 0.54278 0.22789 0.42966 0.0
H77 H 0.51892 0.23651 0.47443 0.0
H78 H 0.52885 0.07637 0.49337 0.0
H79 H 0.55189 0.06726 0.44857 0.0
C80 C 0.73274 0.92752 0.69254 0.0
Eu81 Eu 0.64388 0.82816 0.71051 0.0
C82 C 0.74029 0.95237 0.66627 0.0
C83 C 0.70448 0.91464 0.64619 0.0
C84 C 0.70789 0.93789 0.62155 0.0
C85 C 0.74747 -0.00052 0.61629 0.0
C86 C 0.78433 0.03705 0.63631 0.0
C87 C 0.7805 0.0137 0.66116 0.0
C88 C 0.62559 0.71558 0.69941 0.0
C89 C 0.53336 0.76524 0.67258 0.0
C90 C 0.43537 0.62111 0.74522 0.0
Eu91 Eu 0.5295 0.72122 0.73116 0.0
C92 C 0.40992 0.59469 0.77062 0.0
C93 C 0.35297 0.58426 0.77725 0.0
C94 C 0.33058 0.56555 0.8021 0.0
C95 C 0.36453 0.55639 0.82081 0.0
C96 C 0.42072 0.56479 0.8139 0.0
C97 C 0.44334 0.58402 0.78911 0.0
C98 C 0.54363 0.83228 0.74203 0.0
C99 C 0.64047 0.78336 0.76961 0.0
O100 O 0.68942 0.92671 0.70594 0.0
O101 O 0.73347 0.87649 0.69434 0.0
O102 O 0.64482 0.75865 0.68251 0.0
O103 O 0.61694 0.73407 0.72044 0.0
O104 O 0.57883 0.81757 0.67987 0.0
O105 O 0.51138 0.71728 0.68787 0.0
O106 O 0.48564 0.62397 0.73874 0.0
O107 O 0.43425 0.67054 0.73933 0.0
O108 O 0.52257 0.78752 0.75818 0.0
O109 O 0.55574 0.81597 0.72104 0.0
O110 O 0.59073 0.7331 0.76368 0.0
O111 O 0.66617 0.83004 0.75348 0.0
H112 H 0.67338 0.86706 0.6496 0.0
H113 H 0.67955 0.90744 0.60654 0.0
H114 H 0.81503 0.08478 0.63293 0.0
H115 H 0.80829 0.04364 0.67641 0.0
H116 H 0.32636 0.59214 0.76335 0.0
H117 H 0.28684 0.55871 0.80674 0.0
H118 H 0.44817 0.55862 0.82794 0.0
H119 H 0.48761 0.59205 0.78469 0.0
C120 C 0.77546 0.71626 0.03 0.0
Eu121 Eu 0.78991 0.62908 0.04826 0.0
C122 C 0.77134 0.73248 1.00314 0.0
C123 C 0.78968 0.70857 0.98299 0.0
C124 C 0.78288 0.72056 0.95737 0.0
C125 C 0.75747 0.7567 0.95128 0.0
C126 C 0.74037 0.78179 0.97156 0.0
C127 C 0.74708 0.76956 0.9973 0.0
C128 C 0.88948 0.62263 0.03907 0.0
C129 C 0.74425 0.52482 1.00271 0.0
C130 C 0.79987 0.42131 0.07424 0.0
Eu131 Eu 0.78148 0.50774 0.05858 0.0
C132 C 0.79989 0.39799 0.10026 0.0
C133 C 0.75997 0.33693 0.10606 0.0
C134 C 0.75299 0.31626 0.13146 0.0
C135 C 0.78576 0.35635 0.15159 0.0
C136 C 0.82752 0.41694 0.14552 0.0
C137 C 0.83466 0.43745 0.12014 0.0
C138 C 0.67878 0.50718 0.06622 0.0
C139 C 0.82255 0.61171 0.10487 0.0
O140 O 0.73116 0.66439 0.03784 0.0
O141 O 0.82728 0.72364 0.03688 0.0
O142 O 0.8909 0.66804 0.05117 0.0
O143 O 0.8372 0.58408 0.03334 0.0
O144 O 0.74149 0.57117 1.01298 0.0
O145 O 0.76806 0.49734 1.01559 0.0
O146 O 0.84299 0.47611 0.06889 0.0
O147 O 0.74803 0.4117 0.06614 0.0
O148 O 0.68208 0.46149 0.05705 0.0
O149 O 0.72945 0.55032 0.07251 0.0
O150 O 0.82306 0.56324 0.09545 0.0
O151 O 0.80321 0.64196 0.09102 0.0
H152 H 0.80866 0.67991 0.98706 0.0
H153 H 0.79731 0.70117 0.94231 0.0
H154 H 0.7201 0.80928 0.96755 0.0
H155 H 0.73243 0.7882 1.01259 0.0
H156 H 0.73275 0.30563 0.09104 0.0
H157 H 0.7213 0.26905 0.13536 0.0
H158 H 0.85314 0.44934 0.16049 0.0
H159 H 0.86591 0.48481 0.1163 0.0
C160 C 0.06133 0.81654 0.35931 0.0
Eu161 Eu 0.15292 0.81301 0.3779 0.0
C162 C 0.0292 0.79254 0.33464 0.0
C163 C 0.00121 0.82076 0.32236 0.0
C164 C 0.97492 0.80075 0.29799 0.0
C165 C 0.97653 0.75235 0.2853 0.0
C166 C 0.00433 0.72405 0.29791 0.0
C167 C 0.03 0.74368 0.32226 0.0
C168 C 0.26982 0.89904 0.37309 0.0
C169 C 0.20897 0.75809 0.33959 0.0
C170 C 0.33436 0.77103 0.41569 0.0
Eu171 Eu 0.24541 0.7832 0.4001 0.0
C172 C 0.3585 0.77272 0.44153 0.0
C173 C 0.37978 0.7332 0.44764 0.0
C174 C 0.3985 0.73132 0.47274 0.0
C175 C 0.39635 0.76913 0.49209 0.0
C176 C 0.3753 0.80893 0.48578 0.0
C177 C 0.35637 0.81055 0.46079 0.0
C178 C 0.13089 0.69803 0.4076 0.0
C179 C 0.19028 0.84185 0.43862 0.0
O180 O 0.05666 0.77603 0.37614 0.0
O181 O 0.11606 0.86167 0.35726 0.0
O182 O 0.23134 0.88578 0.35469 0.0
O183 O 0.24448 0.86714 0.39228 0.0
O184 O 0.1599 0.75834 0.3459 0.0
O185 O 0.25235 0.77256 0.35653 0.0
O186 O 0.34053 0.82227 0.40714 0.0
O187 O 0.28119 0.72492 0.41127 0.0
O188 O 0.17259 0.7124 0.42455 0.0
O189 O 0.15175 0.72748 0.38708 0.0
O190 O 0.23603 0.83363 0.43379 0.0
O191 O 0.14919 0.83163 0.42089 0.0
H192 H 0.00029 0.85873 0.33146 0.0
H193 H 0.95331 0.82326 0.28915 0.0
H194 H 0.00772 0.68754 0.28873 0.0
H195 H 0.05143 0.72116 0.33122 0.0
H196 H 0.3812 0.70327 0.43308 0.0
H197 H 0.41498 0.70059 0.47697 0.0
H198 H 0.37227 0.83799 0.50031 0.0
H199 H 0.33923 0.84076 0.45664 0.0
C200 C 0.21225 0.06678 0.69434 0.0
Eu201 Eu 0.31278 0.15611 0.71061 0.0
C202 C 0.19983 0.03227 0.66991 0.0
C203 C 0.15491 0.02755 0.65329 0.0
C204 C 0.14974 0.00453 0.62825 0.0
C205 C 0.18954 0.98587 0.61934 0.0
C206 C 0.23261 0.98803 0.63651 0.0
C207 C 0.23793 0.01123 0.6614 0.0
C208 C 0.35135 0.27475 0.7003 0.0
C209 C 0.41961 0.1946 0.67164 0.0
C210 C 0.5389 0.33581 0.74397 0.0
Eu211 Eu 0.43514 0.24662 0.73015 0.0
C212 C 0.56327 0.36468 0.76918 0.0
C213 C 0.62126 0.37928 0.77616 0.0
C214 C 0.6428 0.40074 0.80098 0.0
C215 C 0.60674 0.40816 0.81929 0.0
C216 C 0.54911 0.39488 0.812 0.0
C217 C 0.52749 0.37309 0.78724 0.0
C218 C 0.39975 0.12931 0.74161 0.0
C219 C 0.32729 0.20594 0.76971 0.0
O220 O 0.24611 0.05969 0.71113 0.0
O221 O 0.22676 0.1237 0.69174 0.0
O222 O 0.32524 0.23218 0.68321 0.0
O223 O 0.35585 0.25265 0.72106 0.0
O224 O 0.36856 0.14888 0.67945 0.0
O225 O 0.45047 0.24282 0.68664 0.0
O226 O 0.49683 0.3439 0.73411 0.0
O227 O 0.52742 0.27974 0.74165 0.0
O228 O 0.4264 0.17424 0.75764 0.0
O229 O 0.39222 0.14841 0.72036 0.0
O230 O 0.38113 0.24953 0.76331 0.0
O231 O 0.29413 0.16079 0.75357 0.0
H232 H 0.12548 0.04416 0.6593 0.0
H233 H 0.11631 0.00396 0.61554 0.0
H234 H 0.26326 0.97294 0.63055 0.0
H235 H 0.27346 0.01473 0.6736 0.0
H236 H 0.64945 0.37278 0.76259 0.0
H237 H 0.68761 0.41118 0.80589 0.0
H238 H 0.51991 0.39935 0.8257 0.0
H239 H 0.48225 0.36142 0.78247 0.0
H240 H 0.15631 0.77699 0.29864 0.0
H241 H 0.2364 0.59664 0.19627 0.0
H242 H 0.2739 0.70854 0.31841 0.0
H243 H 0.18112 0.72581 0.17572 0.0
H244 H 0.24566 0.62997 0.24121 0.0
H245 H 0.15896 0.75068 0.25391 0.0
C246 C 0.18283 0.75631 0.29355 0.0
C247 C 0.21462 0.74448 0.31236 0.0
C248 C 0.23193 0.65117 0.22677 0.0
C249 C 0.2177 0.71399 0.26077 0.0
C250 C 0.22675 0.63237 0.20107 0.0
C251 C 0.20763 0.65821 0.18202 0.0
C252 C 0.21719 0.69556 0.23356 0.0
C253 C 0.19477 0.70354 0.18965 0.0
C254 C 0.18455 0.74161 0.2679 0.0
C255 C 0.2488 0.7184 0.30448 0.0
N256 N 0.19942 0.72038 0.21477 0.0
N257 N 0.24894 0.7033 0.27921 0.0
H258 H 0.37819 0.09315 0.64182 0.0
H259 H 0.56817 0.26248 0.51657 0.0
H260 H 0.5075 0.28469 0.64147 0.0
H261 H 0.45038 0.06884 0.52182 0.0
H262 H 0.54724 0.27283 0.56179 0.0
H263 H 0.40541 0.08481 0.5979 0.0
C264 C 0.41267 0.13365 0.63256 0.0
C265 C 0.4405 0.1899 0.64548 0.0
C266 C 0.52613 0.2281 0.55306 0.0
C267 C 0.47192 0.18042 0.59457 0.0
C268 C 0.5377 0.22213 0.52717 0.0
C269 C 0.51086 0.16465 0.51524 0.0
C270 C 0.48712 0.17626 0.56718 0.0
C271 C 0.47259 0.11398 0.53015 0.0
C272 C 0.42824 0.12872 0.60735 0.0
C273 C 0.48504 0.24043 0.63233 0.0
N274 N 0.46175 0.12104 0.55521 0.0
N275 N 0.49914 0.23458 0.60752 0.0
H276 H 0.22212 0.54776 0.97321 0.0
H277 H 0.36911 0.4727 0.8526 0.0
H278 H 0.27547 0.41157 0.97414 0.0
H279 H 0.31033 0.60452 0.85036 0.0
H280 H 0.33551 0.45013 0.89732 0.0
H281 H 0.25527 0.57032 0.9284 0.0
C282 C 0.24092 0.52271 0.96406 0.0
C283 C 0.24593 0.47764 0.97751 0.0
C284 C 0.3299 0.48397 0.88705 0.0
C285 C 0.28374 0.50304 0.92617 0.0
C286 C 0.34926 0.49699 0.86154 0.0
C287 C 0.34252 0.54055 0.8477 0.0
C288 C 0.30395 0.51504 0.89893 0.0
C289 C 0.31576 0.57008 0.86018 0.0
C290 C 0.25971 0.53549 0.93844 0.0
C291 C 0.27058 0.44659 0.96459 0.0
N292 N 0.29767 0.55695 0.88508 0.0
N293 N 0.28848 0.45982 0.93969 0.0
H294 H 0.8257 0.32615 0.31482 0.0
H295 H 0.67916 0.27867 0.17513 0.0
H296 H 0.64539 0.18535 0.29876 0.0
H297 H 0.86777 0.388 0.19058 0.0
H298 H 0.66257 0.24931 0.22054 0.0
H299 H 0.83773 0.3568 0.26991 0.0
C300 C 0.78855 0.30159 0.30178 0.0
C301 C 0.73488 0.25231 0.31041 0.0
C302 C 0.70753 0.27966 0.21393 0.0
C303 C 0.74807 0.28776 0.2588 0.0
C304 C 0.71719 0.29611 0.18796 0.0
C305 C 0.77505 0.33599 0.17891 0.0
C306 C 0.75599 0.30353 0.23104 0.0
C307 C 0.82231 0.35797 0.19663 0.0
C308 C 0.79541 0.31926 0.27611 0.0
C309 C 0.68758 0.2235 0.29285 0.0
N310 N 0.81169 0.34157 0.22178 0.0
N311 N 0.69539 0.24142 0.26775 0.0
H312 H 0.45374 0.66414 0.64461 0.0
H313 H 0.46417 0.86519 0.52383 0.0
H314 H 0.5569 0.85992 0.64124 0.0
H315 H 0.37314 0.66936 0.52115 0.0
H316 H 0.49404 0.86239 0.568 0.0
H317 H 0.41864 0.66314 0.60045 0.0
C318 C 0.46861 0.70677 0.63471 0.0
C319 C 0.5083 0.76211 0.64665 0.0
C320 C 0.46754 0.81988 0.55783 0.0
C321 C 0.46882 0.76134 0.59637 0.0
C322 C 0.45024 0.82151 0.5326 0.0
C323 C 0.41596 0.76745 0.51879 0.0
C324 C 0.4504 0.76373 0.56953 0.0
C325 C 0.40004 0.71216 0.53104 0.0
C326 C 0.44885 0.70618 0.60951 0.0
C327 C 0.52652 0.81603 0.63288 0.0
N328 N 0.41725 0.71167 0.55578 0.0
N329 N 0.5067 0.81421 0.60858 0.0
H330 H 0.74944 0.43748 0.97325 0.0
H331 H 0.59373 0.48926 0.84997 0.0
H332 H 0.69243 0.57079 0.9706 0.0
H333 H 0.6682 0.37045 0.84998 0.0
H334 H 0.6268 0.51753 0.89458 0.0
H335 H 0.71698 0.40991 0.92857 0.0
C336 C 0.72999 0.46088 0.96334 0.0
C337 C 0.72365 0.50649 0.97579 0.0
C338 C 0.63603 0.48537 0.88481 0.0
C339 C 0.68642 0.47517 0.92451 0.0
C340 C 0.61694 0.46903 0.85936 0.0
C341 C 0.62823 0.42744 0.84615 0.0
C342 C 0.66627 0.45961 0.8973 0.0
C343 C 0.65915 0.40324 0.85925 0.0
C344 C 0.71158 0.4452 0.93777 0.0
C345 C 0.69822 0.53531 0.96186 0.0
N346 N 0.67684 0.41948 0.88408 0.0
N347 N 0.68053 0.51914 0.93703 0.0
H348 H 0.30546 0.3833 0.08106 0.0
H349 H 0.65959 0.59765 0.08353 0.0
H350 H 0.39693 0.57805 0.07217 0.0
H351 H 0.56997 0.40602 0.06576 0.0
H352 H 0.56241 0.589 0.09212 0.0
H353 H 0.40216 0.38938 0.08826 0.0
C354 C 0.34579 0.4272 0.08095 0.0
C355 C 0.34386 0.48003 0.07543 0.0
C356 C 0.56429 0.5488 0.08663 0.0
C357 C 0.45318 0.48752 0.08392 0.0
C358 C 0.61948 0.5538 0.08169 0.0
C359 C 0.62221 0.50274 0.07348 0.0
C360 C 0.5121 0.49233 0.08343 0.0
C361 C 0.56939 0.44668 0.07164 0.0
C362 C 0.40068 0.43072 0.08507 0.0
C363 C 0.39689 0.53609 0.07584 0.0
N364 N 0.51626 0.443 0.07638 0.0
N365 N 0.44958 0.53835 0.07979 0.0
H366 H 0.094 0.61179 0.44478 0.0
H367 H 0.78351 0.39212 0.37776 0.0
H368 H 0.03923 0.65542 0.37324 0.0
H369 H 0.87384 0.32523 0.42601 0.0
H370 H 0.86899 0.49434 0.38144 0.0
H371 H 0.00402 0.51176 0.44399 0.0
C372 C 0.06261 0.60051 0.42908 0.0
C373 C 0.07386 0.64139 0.40892 0.0
C374 C 0.87008 0.45732 0.39123 0.0
C375 C 0.97169 0.52792 0.40799 0.0
C376 C 0.82143 0.39915 0.38922 0.0
C377 C 0.82205 0.35066 0.40166 0.0
C378 C 0.91921 0.46699 0.40606 0.0
C379 C 0.87209 0.36177 0.41613 0.0
C380 C 0.01169 0.54346 0.42858 0.0
C381 C 0.03201 0.6249 0.38907 0.0
N382 N 0.91894 0.41922 0.41807 0.0
N383 N -0.01745 0.56913 0.38907 0.0
H384 H 0.42303 0.08357 0.78465 0.0
H385 H 0.54547 0.90446 0.70304 0.0
H386 H 0.3992 0.05716 0.70242 0.0
H387 H 0.50224 0.86657 0.78363 0.0
H388 H 0.50325 0.97158 0.70361 0.0
H389 H 0.45856 0.01036 0.78584 0.0
C390 C 0.42426 0.06148 0.76695 0.0
C391 C 0.40868 0.07662 0.74339 0.0
C392 C 0.5031 0.94866 0.72118 0.0
C393 C 0.45059 -0.00533 0.74452 0.0
C394 C 0.52776 0.91091 0.72095 0.0
C395 C 0.52695 0.87976 0.74331 0.0
C396 C 0.47823 0.95596 0.74401 0.0
C397 C 0.50348 0.88973 0.76598 0.0
C398 C 0.44478 0.02007 0.76763 0.0
C399 C 0.411 0.04687 0.72098 0.0
N400 N 0.47994 0.92709 0.76578 0.0
N401 N 0.43256 0.00797 0.72204 0.0
H402 H 0.61898 0.63102 0.73179 0.0
H403 H 0.39641 0.33475 0.65419 0.0
H404 H 0.56728 0.65286 0.6554 0.0
H405 H 0.38719 0.36298 0.73569 0.0
H406 H 0.47083 0.44398 0.6498 0.0
H407 H 0.55191 0.52194 0.72845 0.0
C408 C 0.5945 0.61239 0.71402 0.0
C409 C 0.59811 0.65049 0.69391 0.0
C410 C 0.45166 0.4259 0.66848 0.0
C411 C 0.52005 0.52625 0.69024 0.0
C412 C 0.40911 0.36411 0.67096 0.0
C413 C 0.38633 0.34023 0.69538 0.0
C414 C 0.47142 0.4626 0.69066 0.0
C415 C 0.40421 0.3796 0.71658 0.0
C416 C 0.55582 0.55038 0.71222 0.0
C417 C 0.56556 0.62445 0.67125 0.0
N418 N 0.44622 0.43856 0.71378 0.0
N419 N 0.5268 0.56344 0.6701 0.0
H420 H 0.01568 0.38543 0.08096 0.0
H421 H 0.92733 0.59039 0.99745 0.0
H422 H 0.04812 0.41412 0.99942 0.0
H423 H 0.9497 0.61081 0.07976 0.0
H424 H 0.96812 0.52244 0.99776 0.0
H425 H -0.02175 0.45769 0.08102 0.0
C426 C 0.01231 0.40487 0.06294 0.0
C427 C 0.03411 0.39377 0.04007 0.0
C428 C 0.96566 0.54282 1.01574 0.0
C429 C -0.0052 0.47755 0.04016 0.0
C430 C 0.94351 0.58252 1.01546 0.0
C431 C 0.93598 0.60633 0.03855 0.0
C432 C -0.0208 0.52598 0.03939 0.0
C433 C 0.95602 0.59388 0.06154 0.0
C434 C -0.00738 0.44717 0.06308 0.0
C435 C 0.03098 0.42132 1.01734 0.0
N436 N 0.97578 0.55324 0.0615 0.0
N437 N 0.01226 0.46238 1.01799 0.0
H438 H 0.35218 0.95041 0.41033 0.0
H439 H 0.63346 0.04289 0.32566 0.0
H440 H 0.33297 0.90642 0.32932 0.0
H441 H 0.6288 0.00481 0.40665 0.0
H442 H 0.52462 0.99002 0.32491 0.0
H443 H 0.45643 0.97647 0.40817 0.0
C444 C 0.37047 0.94737 0.39196 0.0
C445 C 0.33442 0.92657 0.36994 0.0
C446 C 0.5472 -0.00878 0.34265 0.0
C447 C 0.45286 0.95451 0.36746 0.0
C448 C 0.60916 0.02055 0.343 0.0
C449 C 0.63954 0.02775 0.36624 0.0
C450 C 0.516 0.97065 0.36587 0.0
C451 C 0.60664 -0.00058 0.38833 0.0
C452 C 0.42952 0.96108 0.39085 0.0
C453 C 0.35977 0.92297 0.34662 0.0
N454 N 0.5463 0.9734 0.38779 0.0
N455 N 0.4178 0.93683 0.34596 0.0
H456 H 0.36788 0.30606 0.80025 0.0
H457 H 0.17669 0.13179 0.92413 0.0
H458 H 0.23627 0.11532 0.79832 0.0
H459 H 0.28221 0.32695 0.91803 0.0
H460 H 0.19763 0.12306 0.87873 0.0
H461 H 0.33729 0.31278 0.8438 0.0
C462 C 0.33228 0.26542 0.80896 0.0
C463 C 0.3048 0.20987 0.79556 0.0
C464 C 0.21599 0.16772 0.88736 0.0
C465 C 0.26958 0.21732 0.84596 0.0
C466 C 0.20393 0.17283 0.91328 0.0
C467 C 0.22818 0.23023 0.92516 0.0
C468 C 0.25276 0.22034 0.87317 0.0
C469 C 0.26363 0.28165 0.91005 0.0
C470 C 0.3147 0.26939 0.83392 0.0
C471 C 0.25858 0.15905 0.80791 0.0
N472 N 0.27498 0.27542 0.88499 0.0
N473 N 0.24274 0.16384 0.83253 0.0
H474 H 0.02756 0.38333 0.26277 0.0
H475 H 0.11309 0.27483 0.13216 0.0
H476 H -0.00353 0.20139 0.25109 0.0
H477 H 0.11866 0.44666 0.14117 0.0
H478 H 0.0762 0.24882 0.17644 0.0
H479 H 0.06644 0.40882 0.21902 0.0
C480 C 0.02856 0.34853 0.25102 0.0
C481 C 0.00826 0.28991 0.26079 0.0
C482 C 0.08553 0.2922 0.16869 0.0
C483 C 0.05387 0.31932 0.21047 0.0
C484 C 0.10671 0.30713 0.14341 0.0
C485 C 0.11893 0.36297 0.13281 0.0
C486 C 0.07683 0.33352 0.18358 0.0
C487 C 0.10969 0.40296 0.14838 0.0
C488 C 0.05115 0.36329 0.22601 0.0
C489 C 0.01215 0.24735 0.24464 0.0
N490 N 0.08932 0.38749 0.17289 0.0
N491 N 0.03438 0.26286 0.22034 0.0
H492 H 0.84537 0.07848 0.58775 0.0
H493 H 0.65105 0.0809 0.468 0.0
H494 H 0.65318 0.97632 0.58503 0.0
H495 H 0.84244 0.16123 0.46508 0.0
H496 H 0.65191 0.04759 0.51188 0.0
H497 H 0.84614 0.11518 0.54403 0.0
C498 C 0.80335 0.06408 0.57804 0.0
C499 C 0.74915 0.024 0.59008 0.0
C500 C 0.69377 0.07242 0.50167 0.0
C501 C 0.74969 0.06562 0.54 0.0
C502 C 0.69335 0.09159 0.47655 0.0
C503 C 0.74678 0.12395 0.4627 0.0
C504 C 0.74805 0.08582 0.51326 0.0
C505 C 0.80013 0.13627 0.47493 0.0
C506 C 0.80383 0.08473 0.55303 0.0
C507 C 0.69608 0.00644 0.57643 0.0
N508 N 0.79943 0.11732 0.49951 0.0
N509 N 0.69771 0.02736 0.55221 0.0
H510 H 0.63182 0.6867 0.79493 0.0
H511 H 0.77256 0.86055 0.92739 0.0
H512 H 0.70939 0.8809 0.80197 0.0
H513 H 0.71617 0.67215 0.9126 0.0
H514 H 0.75117 0.87133 0.88219 0.0
H515 H 0.66511 0.68315 0.83816 0.0
C516 C 0.6563 0.72888 0.80558 0.0
C517 C 0.66751 0.78419 0.79485 0.0
C518 C 0.74398 0.82785 0.88886 0.0
C519 C 0.7056 0.78037 0.84496 0.0
C520 C 0.75575 0.82151 0.91469 0.0
C521 C 0.74632 0.76536 0.92387 0.0
C522 C 0.72211 0.77752 0.87219 0.0
C523 C 0.72504 0.71655 0.90643 0.0
C524 C 0.67542 0.72681 0.83037 0.0
C525 C 0.69999 0.83736 0.80953 0.0
N526 N 0.71351 0.72376 0.8816 0.0
N527 N 0.7174 0.83409 0.83403 0.0
H528 H 0.97468 0.82178 0.24486 0.0
H529 H 0.83848 0.5474 0.1433 0.0
H530 H 0.9192 0.63629 0.26505 0.0
H531 H 0.85328 0.72113 0.1279 0.0
H532 H 0.87389 0.58114 0.18718 0.0
H533 H 0.93513 0.78763 0.20147 0.0
C534 C 0.95375 0.77382 0.24036 0.0
C535 C 0.95063 0.73205 0.25888 0.0
C536 C 0.86933 0.61191 0.17424 0.0
C537 C 0.90619 0.69278 0.20878 0.0
C538 C 0.84941 0.59275 0.14908 0.0
C539 C 0.84312 0.6315 0.13175 0.0
C540 C 0.88371 0.67062 0.18222 0.0
C541 C 0.85728 0.68959 0.14056 0.0
C542 C 0.93149 0.75442 0.21545 0.0
C543 C 0.92386 0.67059 0.25148 0.0
N544 N 0.87718 0.70747 0.1651 0.0
N545 N 0.90303 0.65298 0.22707 0.0
H546 H 0.28492 0.01254 0.5882 0.0
H547 H 0.09504 0.84283 0.46232 0.0
H548 H 0.09244 0.91818 0.58764 0.0
H549 H 0.27988 0.89551 0.47381 0.0
H550 H 0.09322 0.88016 0.50597 0.0
H551 H 0.28382 0.98 0.54399 0.0
C552 C 0.24227 0.98445 0.5789 0.0
C553 C 0.18863 0.96725 0.59197 0.0
C554 C 0.13406 0.88349 0.49881 0.0
C555 C 0.18716 0.9307 0.54078 0.0
C556 C 0.1352 0.86244 0.47391 0.0
C557 C 0.18757 0.86572 0.4644 0.0
C558 C 0.18588 0.90865 0.51408 0.0
C559 C 0.23829 0.89146 0.4803 0.0
C560 C 0.24172 0.9662 0.55351 0.0
C561 C 0.13491 0.9326 0.5784 0.0
N562 N 0.23615 0.91192 0.50423 0.0
N563 N 0.1355 0.91529 0.55356 0.0
loop_
_geom_bond_atom_site_label_1
_geom_bond_atom_site_label_2
_geom_bond_distance
_geom_bond_site_symmetry_2
_ccdc_geom_bond_type
C0 Eu1 2.835 1_556 S
C0 C2 1.500 . S
C0 O20 1.257 . S
C0 O21 1.260 . S
Eu1 C0 2.835 1_554 S
Eu1 O20 2.473 1_554 S
Eu1 O21 2.480 1_554 S
Eu1 O22 2.430 . S
Eu1 O23 2.670 . S
Eu1 O24 2.394 1_554 S
Eu1 O29 2.355 . S
Eu1 O31 2.374 . S
C2 C0 1.500 . S
C2 C3 1.377 . S
C2 C7 1.377 . S
C3 C2 1.377 . S
C3 C4 1.395 . S
C3 H32 0.931 . S
C4 C3 1.395 . S
C4 C5 1.383 . S
C4 H33 0.931 . S
C5 C4 1.383 . S
C5 C6 1.394 . S
C6 C5 1.394 . S
C6 C7 1.378 . S
C6 H34 0.931 . S
C7 C2 1.377 . S
C7 C6 1.378 . S
C7 H35 0.931 . S
C8 O22 1.259 . S
C8 O23 1.270 . S
C9 O24 1.251 . S
C9 O25 1.251 1_556 S
C10 Eu11 2.835 . S
C10 C12 1.500 . S
C10 O26 1.257 . S
C10 O27 1.260 . S
Eu11 C10 2.835 . S
Eu11 O23 2.355 . S
Eu11 O25 2.374 . S
Eu11 O26 2.473 . S
Eu11 O27 2.480 . S
Eu11 O28 2.430 . S
Eu11 O29 2.670 . S
Eu11 O30 2.394 . S
C12 C10 1.500 . S
C12 C13 1.377 . S
C12 C17 1.377 . S
C13 C12 1.377 . S
C13 C14 1.395 . S
C13 H36 0.931 . S
C14 C13 1.395 . S
C14 C15 1.383 . S
C14 H37 0.931 . S
C15 C14 1.383 . S
C15 C16 1.394 . S
C16 C15 1.394 . S
C16 C17 1.378 . S
C16 H38 0.931 . S
C17 C12 1.377 . S
C17 C16 1.378 . S
C17 H39 0.931 . S
C18 O28 1.259 . S
C18 O29 1.270 . S
C19 O30 1.251 . S
C19 O31 1.251 . S
O20 C0 1.257 . S
O20 Eu1 2.473 1_556 S
O21 C0 1.260 . S
O21 Eu1 2.480 1_556 S
O22 Eu1 2.430 . S
O22 C8 1.259 . S
O23 Eu1 2.670 . S
O23 C8 1.270 . S
O23 Eu11 2.355 . S
O24 Eu1 2.394 1_556 S
O24 C9 1.251 . S
O25 C9 1.251 1_554 S
O25 Eu11 2.374 . S
O26 C10 1.257 . S
O26 Eu11 2.473 . S
O27 C10 1.260 . S
O27 Eu11 2.480 . S
O28 Eu11 2.430 . S
O28 C18 1.259 . S
O29 Eu1 2.355 . S
O29 Eu11 2.670 . S
O29 C18 1.270 . S
O30 Eu11 2.394 . S
O30 C19 1.251 . S
O31 Eu1 2.374 . S
O31 C19 1.251 . S
H32 C3 0.931 . S
H33 C4 0.931 . S
H34 C6 0.931 . S
H35 C7 0.931 . S
H36 C13 0.931 . S
H37 C14 0.931 . S
H38 C16 0.931 . S
H39 C17 0.931 . S
C40 Eu41 2.835 . S
C40 C42 1.500 . S
C40 O60 1.257 . S
C40 O61 1.260 . S
Eu41 C40 2.835 . S
Eu41 O60 2.473 . S
Eu41 O61 2.480 . S
Eu41 O62 2.430 . S
Eu41 O63 2.670 . S
Eu41 O64 2.394 . S
Eu41 O69 2.355 . S
Eu41 O71 2.374 . S
C42 C40 1.500 . S
C42 C43 1.377 . S
C42 C47 1.377 . S
C43 C42 1.377 . S
C43 C44 1.395 . S
C43 H72 0.931 . S
C44 C43 1.395 . S
C44 C45 1.383 . S
C44 H73 0.931 . S
C45 C44 1.383 . S
C45 C46 1.394 1_655 S
C46 C45 1.394 1_455 S
C46 C47 1.378 1_455 S
C46 H74 0.931 . S
C47 C42 1.377 . S
C47 C46 1.378 1_655 S
C47 H75 0.931 . S
C48 O62 1.259 . S
C48 O63 1.270 . S
C49 O64 1.251 . S
C49 O65 1.251 . S
C50 Eu51 2.835 . S
C50 C52 1.500 . S
C50 O66 1.257 . S
C50 O67 1.260 . S
Eu51 C50 2.835 . S
Eu51 O63 2.355 . S
Eu51 O65 2.374 . S
Eu51 O66 2.473 . S
Eu51 O67 2.480 . S
Eu51 O68 2.430 . S
Eu51 O69 2.670 . S
Eu51 O70 2.394 . S
C52 C50 1.500 . S
C52 C53 1.377 . S
C52 C57 1.377 . S
C53 C52 1.377 . S
C53 C54 1.395 . S
C53 H76 0.931 . S
C54 C53 1.395 . S
C54 C55 1.383 . S
C54 H77 0.931 . S
C55 C54 1.383 . S
C55 C56 1.394 . S
C56 C55 1.394 . S
C56 C57 1.378 . S
C56 H78 0.931 . S
C57 C52 1.377 . S
C57 C56 1.378 . S
C57 H79 0.931 . S
C58 O68 1.259 . S
C58 O69 1.270 . S
C59 O70 1.251 . S
C59 O71 1.251 . S
O60 C40 1.257 . S
O60 Eu41 2.473 . S
O61 C40 1.260 . S
O61 Eu41 2.480 . S
O62 Eu41 2.430 . S
O62 C48 1.259 . S
O63 Eu41 2.670 . S
O63 C48 1.270 . S
O63 Eu51 2.355 . S
O64 Eu41 2.394 . S
O64 C49 1.251 . S
O65 C49 1.251 . S
O65 Eu51 2.374 . S
O66 C50 1.257 . S
O66 Eu51 2.473 . S
O67 C50 1.260 . S
O67 Eu51 2.480 . S
O68 Eu51 2.430 . S
O68 C58 1.259 . S
O69 Eu41 2.355 . S
O69 Eu51 2.670 . S
O69 C58 1.270 . S
O70 Eu51 2.394 . S
O70 C59 1.251 . S
O71 Eu41 2.374 . S
O71 C59 1.251 . S
H72 C43 0.931 . S
H73 C44 0.931 . S
H74 C46 0.931 . S
H75 C47 0.931 . S
H76 C53 0.931 . S
H77 C54 0.931 . S
H78 C56 0.931 . S
H79 C57 0.931 . S
C80 Eu81 2.835 . S
C80 C82 1.500 . S
C80 O100 1.257 . S
C80 O101 1.260 . S
Eu81 C80 2.835 . S
Eu81 O100 2.473 . S
Eu81 O101 2.480 . S
Eu81 O102 2.430 . S
Eu81 O103 2.670 . S
Eu81 O104 2.394 . S
Eu81 O109 2.355 . S
Eu81 O111 2.374 . S
C82 C80 1.500 . S
C82 C83 1.377 . S
C82 C87 1.377 . S
C83 C82 1.377 . S
C83 C84 1.395 . S
C83 H112 0.931 . S
C84 C83 1.395 . S
C84 C85 1.383 . S
C84 H113 0.931 . S
C85 C84 1.383 . S
C85 C86 1.394 1_565 S
C86 C85 1.394 1_545 S
C86 C87 1.378 1_545 S
C86 H114 0.931 . S
C87 C82 1.377 . S
C87 C86 1.378 1_565 S
C87 H115 0.931 . S
C88 O102 1.259 . S
C88 O103 1.270 . S
C89 O104 1.251 . S
C89 O105 1.251 . S
C90 Eu91 2.835 . S
C90 C92 1.500 . S
C90 O106 1.257 . S
C90 O107 1.260 . S
Eu91 C90 2.835 . S
Eu91 O103 2.355 . S
Eu91 O105 2.374 . S
Eu91 O106 2.473 . S
Eu91 O107 2.480 . S
Eu91 O108 2.430 . S
Eu91 O109 2.670 . S
Eu91 O110 2.394 . S
C92 C90 1.500 . S
C92 C93 1.377 . S
C92 C97 1.377 . S
C93 C92 1.377 . S
C93 C94 1.395 . S
C93 H116 0.931 . S
C94 C93 1.395 . S
C94 C95 1.383 . S
C94 H117 0.931 . S
C95 C94 1.383 . S
C95 C96 1.394 . S
C96 C95 1.394 . S
C96 C97 1.378 . S
C96 H118 0.931 . S
C97 C92 1.377 . S
C97 C96 1.378 . S
C97 H119 0.931 . S
C98 O108 1.259 . S
C98 O109 1.270 . S
C99 O110 1.251 . S
C99 O111 1.251 . S
O100 C80 1.257 . S
O100 Eu81 2.473 . S
O101 C80 1.260 . S
O101 Eu81 2.480 . S
O102 Eu81 2.430 . S
O102 C88 1.259 . S
O103 Eu81 2.670 . S
O103 C88 1.270 . S
O103 Eu91 2.355 . S
O104 Eu81 2.394 . S
O104 C89 1.251 . S
O105 C89 1.251 . S
O105 Eu91 2.374 . S
O106 C90 1.257 . S
O106 Eu91 2.473 . S
O107 C90 1.260 . S
O107 Eu91 2.480 . S
O108 Eu91 2.430 . S
O108 C98 1.259 . S
O109 Eu81 2.355 . S
O109 Eu91 2.670 . S
O109 C98 1.270 . S
O110 Eu91 2.394 . S
O110 C99 1.251 . S
O111 Eu81 2.374 . S
O111 C99 1.251 . S
H112 C83 0.931 . S
H113 C84 0.931 . S
H114 C86 0.931 . S
H115 C87 0.931 . S
H116 C93 0.931 . S
H117 C94 0.931 . S
H118 C96 0.931 . S
H119 C97 0.931 . S
C120 Eu121 2.835 1_556 S
C120 C122 1.500 . S
C120 O140 1.257 . S
C120 O141 1.260 . S
Eu121 C120 2.835 1_554 S
Eu121 O140 2.473 1_554 S
Eu121 O141 2.480 1_554 S
Eu121 O142 2.430 . S
Eu121 O143 2.670 . S
Eu121 O144 2.394 1_554 S
Eu121 O149 2.355 . S
Eu121 O151 2.374 . S
C122 C120 1.500 . S
C122 C123 1.377 . S
C122 C127 1.377 . S
C123 C122 1.377 . S
C123 C124 1.395 . S
C123 H152 0.931 . S
C124 C123 1.395 . S
C124 C125 1.383 . S
C124 H153 0.931 . S
C125 C124 1.383 . S
C125 C126 1.394 . S
C126 C125 1.394 . S
C126 C127 1.378 . S
C126 H154 0.931 . S
C127 C122 1.377 . S
C127 C126 1.378 . S
C127 H155 0.931 . S
C128 O142 1.259 . S
C128 O143 1.270 . S
C129 O144 1.251 . S
C129 O145 1.251 1_556 S
C130 Eu131 2.835 . S
C130 C132 1.500 . S
C130 O146 1.257 . S
C130 O147 1.260 . S
Eu131 C130 2.835 . S
Eu131 O143 2.355 . S
Eu131 O145 2.374 . S
Eu131 O146 2.473 . S
Eu131 O147 2.480 . S
Eu131 O148 2.430 . S
Eu131 O149 2.670 . S
Eu131 O150 2.394 . S
C132 C130 1.500 . S
C132 C133 1.377 . S
C132 C137 1.377 . S
C133 C132 1.377 . S
C133 C134 1.395 . S
C133 H156 0.931 . S
C134 C133 1.395 . S
C134 C135 1.383 . S
C134 H157 0.931 . S
C135 C134 1.383 . S
C135 C136 1.394 . S
C136 C135 1.394 . S
C136 C137 1.378 . S
C136 H158 0.931 . S
C137 C132 1.377 . S
C137 C136 1.378 . S
C137 H159 0.931 . S
C138 O148 1.259 . S
C138 O149 1.270 . S
C139 O150 1.251 . S
C139 O151 1.251 . S
O140 C120 1.257 . S
O140 Eu121 2.473 1_556 S
O141 C120 1.260 . S
O141 Eu121 2.480 1_556 S
O142 Eu121 2.430 . S
O142 C128 1.259 . S
O143 Eu121 2.670 . S
O143 C128 1.270 . S
O143 Eu131 2.355 . S
O144 Eu121 2.394 1_556 S
O144 C129 1.251 . S
O145 C129 1.251 1_554 S
O145 Eu131 2.374 . S
O146 C130 1.257 . S
O146 Eu131 2.473 . S
O147 C130 1.260 . S
O147 Eu131 2.480 . S
O148 Eu131 2.430 . S
O148 C138 1.259 . S
O149 Eu121 2.355 . S
O149 Eu131 2.670 . S
O149 C138 1.270 . S
O150 Eu131 2.394 . S
O150 C139 1.251 . S
O151 Eu121 2.374 . S
O151 C139 1.251 . S
H152 C123 0.931 . S
H153 C124 0.931 . S
H154 C126 0.931 . S
H155 C127 0.931 . S
H156 C133 0.931 . S
H157 C134 0.931 . S
H158 C136 0.931 . S
H159 C137 0.931 . S
C160 Eu161 2.835 . S
C160 C162 1.500 . S
C160 O180 1.257 . S
C160 O181 1.260 . S
Eu161 C160 2.835 . S
Eu161 O180 2.473 . S
Eu161 O181 2.480 . S
Eu161 O182 2.430 . S
Eu161 O183 2.670 . S
Eu161 O184 2.394 . S
Eu161 O189 2.355 . S
Eu161 O191 2.374 . S
C162 C160 1.500 . S
C162 C163 1.377 . S
C162 C167 1.377 . S
C163 C162 1.377 . S
C163 C164 1.395 . S
C163 H192 0.931 . S
C164 C163 1.395 . S
C164 C165 1.383 . S
C164 H193 0.931 . S
C165 C164 1.383 . S
C165 C166 1.394 1_455 S
C166 C165 1.394 1_655 S
C166 C167 1.378 1_655 S
C166 H194 0.931 . S
C167 C162 1.377 . S
C167 C166 1.378 1_455 S
C167 H195 0.931 . S
C168 O182 1.259 . S
C168 O183 1.270 . S
C169 O184 1.251 . S
C169 O185 1.251 . S
C170 Eu171 2.835 . S
C170 C172 1.500 . S
C170 O186 1.257 . S
C170 O187 1.260 . S
Eu171 C170 2.835 . S
Eu171 O183 2.355 . S
Eu171 O185 2.374 . S
Eu171 O186 2.473 . S
Eu171 O187 2.480 . S
Eu171 O188 2.430 . S
Eu171 O189 2.670 . S
Eu171 O190 2.394 . S
C172 C170 1.500 . S
C172 C173 1.377 . S
C172 C177 1.377 . S
C173 C172 1.377 . S
C173 C174 1.395 . S
C173 H196 0.931 . S
C174 C173 1.395 . S
C174 C175 1.383 . S
C174 H197 0.931 . S
C175 C174 1.383 . S
C175 C176 1.394 . S
C176 C175 1.394 . S
C176 C177 1.378 . S
C176 H198 0.931 . S
C177 C172 1.377 . S
C177 C176 1.378 . S
C177 H199 0.931 . S
C178 O188 1.259 . S
C178 O189 1.270 . S
C179 O190 1.251 . S
C179 O191 1.251 . S
O180 C160 1.257 . S
O180 Eu161 2.473 . S
O181 C160 1.260 . S
O181 Eu161 2.480 . S
O182 Eu161 2.430 . S
O182 C168 1.259 . S
O183 Eu161 2.670 . S
O183 C168 1.270 . S
O183 Eu171 2.355 . S
O184 Eu161 2.394 . S
O184 C169 1.251 . S
O185 C169 1.251 . S
O185 Eu171 2.374 . S
O186 C170 1.257 . S
O186 Eu171 2.473 . S
O187 C170 1.260 . S
O187 Eu171 2.480 . S
O188 Eu171 2.430 . S
O188 C178 1.259 . S
O189 Eu161 2.355 . S
O189 Eu171 2.670 . S
O189 C178 1.270 . S
O190 Eu171 2.394 . S
O190 C179 1.251 . S
O191 Eu161 2.374 . S
O191 C179 1.251 . S
H192 C163 0.931 . S
H193 C164 0.931 . S
H194 C166 0.931 . S
H195 C167 0.931 . S
H196 C173 0.931 . S
H197 C174 0.931 . S
H198 C176 0.931 . S
H199 C177 0.931 . S
C200 Eu201 2.835 . S
C200 C202 1.500 . S
C200 O220 1.257 . S
C200 O221 1.260 . S
Eu201 C200 2.835 . S
Eu201 O220 2.473 . S
Eu201 O221 2.480 . S
Eu201 O222 2.430 . S
Eu201 O223 2.670 . S
Eu201 O224 2.394 . S
Eu201 O229 2.355 . S
Eu201 O231 2.374 . S
C202 C200 1.500 . S
C202 C203 1.377 . S
C202 C207 1.377 . S
C203 C202 1.377 . S
C203 C204 1.395 . S
C203 H232 0.931 . S
C204 C203 1.395 . S
C204 C205 1.383 . S
C204 H233 0.931 . S
C205 C204 1.383 . S
C205 C206 1.394 1_545 S
C206 C205 1.394 1_565 S
C206 C207 1.378 1_565 S
C206 H234 0.931 . S
C207 C202 1.377 . S
C207 C206 1.378 1_545 S
C207 H235 0.931 . S
C208 O222 1.259 . S
C208 O223 1.270 . S
C209 O224 1.251 . S
C209 O225 1.251 . S
C210 Eu211 2.835 . S
C210 C212 1.500 . S
C210 O226 1.257 . S
C210 O227 1.260 . S
Eu211 C210 2.835 . S
Eu211 O223 2.355 . S
Eu211 O225 2.374 . S
Eu211 O226 2.473 . S
Eu211 O227 2.480 . S
Eu211 O228 2.430 . S
Eu211 O229 2.670 . S
Eu211 O230 2.394 . S
C212 C210 1.500 . S
C212 C213 1.377 . S
C212 C217 1.377 . S
C213 C212 1.377 . S
C213 C214 1.395 . S
C213 H236 0.931 . S
C214 C213 1.395 . S
C214 C215 1.383 . S
C214 H237 0.931 . S
C215 C214 1.383 . S
C215 C216 1.394 . S
C216 C215 1.394 . S
C216 C217 1.378 . S
C216 H238 0.931 . S
C217 C212 1.377 . S
C217 C216 1.378 . S
C217 H239 0.931 . S
C218 O228 1.259 . S
C218 O229 1.270 . S
C219 O230 1.251 . S
C219 O231 1.251 . S
O220 C200 1.257 . S
O220 Eu201 2.473 . S
O221 C200 1.260 . S
O221 Eu201 2.480 . S
O222 Eu201 2.430 . S
O222 C208 1.259 . S
O223 Eu201 2.670 . S
O223 C208 1.270 . S
O223 Eu211 2.355 . S
O224 Eu201 2.394 . S
O224 C209 1.251 . S
O225 C209 1.251 . S
O225 Eu211 2.374 . S
O226 C210 1.257 . S
O226 Eu211 2.473 . S
O227 C210 1.260 . S
O227 Eu211 2.480 . S
O228 Eu211 2.430 . S
O228 C218 1.259 . S
O229 Eu201 2.355 . S
O229 Eu211 2.670 . S
O229 C218 1.270 . S
O230 Eu211 2.394 . S
O230 C219 1.251 . S
O231 Eu201 2.374 . S
O231 C219 1.251 . S
H232 C203 0.931 . S
H233 C204 0.931 . S
H234 C206 0.931 . S
H235 C207 0.931 . S
H236 C213 0.931 . S
H237 C214 0.931 . S
H238 C216 0.931 . S
H239 C217 0.931 . S
H240 C246 0.930 . S
H241 C250 0.930 . S
H242 C255 0.929 . S
H243 C253 0.929 . S
H244 C248 0.929 . S
H245 C254 0.929 . S
C246 H240 0.930 . S
C246 C247 1.367 . S
C246 C254 1.378 . S
C247 C246 1.367 . S
C247 C255 1.433 . S
C248 H244 0.929 . S
C248 C250 1.378 . S
C248 C252 1.350 . S
C249 C252 1.463 . S
C249 C254 1.350 . S
C249 N257 1.427 . S
C250 H241 0.930 . S
C250 C248 1.378 . S
C250 C251 1.367 . S
C251 C250 1.367 . S
C251 C253 1.433 . S
C252 C248 1.350 . S
C252 C249 1.463 . S
C252 N256 1.427 . S
C253 H243 0.929 . S
C253 C251 1.433 . S
C253 N256 1.384 . S
C254 H245 0.929 . S
C254 C246 1.378 . S
C254 C249 1.350 . S
C255 H242 0.929 . S
C255 C247 1.433 . S
C255 N257 1.384 . S
N256 C252 1.427 . S
N256 C253 1.384 . S
N257 C249 1.427 . S
N257 C255 1.384 . S
H258 C264 0.930 . S
H259 C268 0.930 . S
H260 C273 0.929 . S
H261 C271 0.929 . S
H262 C266 0.929 . S
H263 C272 0.929 . S
C264 H258 0.930 . S
C264 C265 1.367 . S
C264 C272 1.378 . S
C265 C264 1.367 . S
C265 C273 1.433 . S
C266 H262 0.929 . S
C266 C268 1.378 . S
C266 C270 1.350 . S
C267 C270 1.463 . S
C267 C272 1.350 . S
C267 N275 1.427 . S
C268 H259 0.930 . S
C268 C266 1.378 . S
C268 C269 1.367 . S
C269 C268 1.367 . S
C269 C271 1.433 . S
C270 C266 1.350 . S
C270 C267 1.463 . S
C270 N274 1.427 . S
C271 H261 0.929 . S
C271 C269 1.433 . S
C271 N274 1.384 . S
C272 H263 0.929 . S
C272 C264 1.378 . S
C272 C267 1.350 . S
C273 H260 0.929 . S
C273 C265 1.433 . S
C273 N275 1.384 . S
N274 C270 1.427 . S
N274 C271 1.384 . S
N275 C267 1.427 . S
N275 C273 1.384 . S
H276 C282 0.930 . S
H277 C286 0.930 . S
H278 C291 0.929 . S
H279 C289 0.929 . S
H280 C284 0.929 . S
H281 C290 0.929 . S
C282 H276 0.930 . S
C282 C283 1.367 . S
C282 C290 1.378 . S
C283 C282 1.367 . S
C283 C291 1.433 . S
C284 H280 0.929 . S
C284 C286 1.378 . S
C284 C288 1.350 . S
C285 C288 1.463 . S
C285 C290 1.350 . S
C285 N293 1.427 . S
C286 H277 0.930 . S
C286 C284 1.378 . S
C286 C287 1.367 . S
C287 C286 1.367 . S
C287 C289 1.433 . S
C288 C284 1.350 . S
C288 C285 1.463 . S
C288 N292 1.427 . S
C289 H279 0.929 . S
C289 C287 1.433 . S
C289 N292 1.384 . S
C290 H281 0.929 . S
C290 C282 1.378 . S
C290 C285 1.350 . S
C291 H278 0.929 . S
C291 C283 1.433 . S
C291 N293 1.384 . S
N292 C288 1.427 . S
N292 C289 1.384 . S
N293 C285 1.427 . S
N293 C291 1.384 . S
H294 C300 0.930 . S
H295 C304 0.930 . S
H296 C309 0.929 . S
H297 C307 0.929 . S
H298 C302 0.929 . S
H299 C308 0.929 . S
C300 H294 0.930 . S
C300 C301 1.367 . S
C300 C308 1.378 . S
C301 C300 1.367 . S
C301 C309 1.433 . S
C302 H298 0.929 . S
C302 C304 1.378 . S
C302 C306 1.350 . S
C303 C306 1.463 . S
C303 C308 1.350 . S
C303 N311 1.427 . S
C304 H295 0.930 . S
C304 C302 1.378 . S
C304 C305 1.367 . S
C305 C304 1.367 . S
C305 C307 1.433 . S
C306 C302 1.350 . S
C306 C303 1.463 . S
C306 N310 1.427 . S
C307 H297 0.929 . S
C307 C305 1.433 . S
C307 N310 1.384 . S
C308 H299 0.929 . S
C308 C300 1.378 . S
C308 C303 1.350 . S
C309 H296 0.929 . S
C309 C301 1.433 . S
C309 N311 1.384 . S
N310 C306 1.427 . S
N310 C307 1.384 . S
N311 C303 1.427 . S
N311 C309 1.384 . S
H312 C318 0.930 . S
H313 C322 0.930 . S
H314 C327 0.929 . S
H315 C325 0.929 . S
H316 C320 0.929 . S
H317 C326 0.929 . S
C318 H312 0.930 . S
C318 C319 1.367 . S
C318 C326 1.378 . S
C319 C318 1.367 . S
C319 C327 1.433 . S
C320 H316 0.929 . S
C320 C322 1.378 . S
C320 C324 1.350 . S
C321 C324 1.463 . S
C321 C326 1.350 . S
C321 N329 1.427 . S
C322 H313 0.930 . S
C322 C320 1.378 . S
C322 C323 1.367 . S
C323 C322 1.367 . S
C323 C325 1.433 . S
C324 C320 1.350 . S
C324 C321 1.463 . S
C324 N328 1.427 . S
C325 H315 0.929 . S
C325 C323 1.433 . S
C325 N328 1.384 . S
C326 H317 0.929 . S
C326 C318 1.378 . S
C326 C321 1.350 . S
C327 H314 0.929 . S
C327 C319 1.433 . S
C327 N329 1.384 . S
N328 C324 1.427 . S
N328 C325 1.384 . S
N329 C321 1.427 . S
N329 C327 1.384 . S
H330 C336 0.930 . S
H331 C340 0.930 . S
H332 C345 0.929 . S
H333 C343 0.929 . S
H334 C338 0.929 . S
H335 C344 0.929 . S
C336 H330 0.930 . S
C336 C337 1.367 . S
C336 C344 1.378 . S
C337 C336 1.367 . S
C337 C345 1.433 . S
C338 H334 0.929 . S
C338 C340 1.378 . S
C338 C342 1.350 . S
C339 C342 1.463 . S
C339 C344 1.350 . S
C339 N347 1.427 . S
C340 H331 0.930 . S
C340 C338 1.378 . S
C340 C341 1.367 . S
C341 C340 1.367 . S
C341 C343 1.433 . S
C342 C338 1.350 . S
C342 C339 1.463 . S
C342 N346 1.427 . S
C343 H333 0.929 . S
C343 C341 1.433 . S
C343 N346 1.384 . S
C344 H335 0.929 . S
C344 C336 1.378 . S
C344 C339 1.350 . S
C345 H332 0.929 . S
C345 C337 1.433 . S
C345 N347 1.384 . S
N346 C342 1.427 . S
N346 C343 1.384 . S
N347 C339 1.427 . S
N347 C345 1.384 . S
H348 C354 0.930 . S
H349 C358 0.930 . S
H350 C363 0.929 . S
H351 C361 0.929 . S
H352 C356 0.929 . S
H353 C362 0.929 . S
C354 H348 0.930 . S
C354 C355 1.367 . S
C354 C362 1.378 . S
C355 C354 1.367 . S
C355 C363 1.433 . S
C356 H352 0.929 . S
C356 C358 1.378 . S
C356 C360 1.350 . S
C357 C360 1.463 . S
C357 C362 1.350 . S
C357 N365 1.427 . S
C358 H349 0.930 . S
C358 C356 1.378 . S
C358 C359 1.367 . S
C359 C358 1.367 . S
C359 C361 1.433 . S
C360 C356 1.350 . S
C360 C357 1.463 . S
C360 N364 1.427 . S
C361 H351 0.929 . S
C361 C359 1.433 . S
C361 N364 1.384 . S
C362 H353 0.929 . S
C362 C354 1.378 . S
C362 C357 1.350 . S
C363 H350 0.929 . S
C363 C355 1.433 . S
C363 N365 1.384 . S
N364 C360 1.427 . S
N364 C361 1.384 . S
N365 C357 1.427 . S
N365 C363 1.384 . S
H366 C372 0.930 1_655 S
H367 C376 0.930 1_455 S
H368 C381 0.929 . S
H369 C379 0.929 . S
H370 C374 0.929 . S
H371 C380 0.929 . S
C372 H366 0.930 1_455 S
C372 C373 1.367 . S
C372 C380 1.378 1_455 S
C373 C372 1.367 . S
C373 C381 1.433 . S
C374 H370 0.929 . S
C374 C376 1.378 1_455 S
C374 C378 1.350 1_455 S
C375 C378 1.463 1_455 S
C375 C380 1.350 1_455 S
C375 N383 1.427 . S
C376 H367 0.930 1_655 S
C376 C374 1.378 1_655 S
C376 C377 1.367 . S
C377 C376 1.367 . S
C377 C379 1.433 . S
C378 C374 1.350 1_655 S
C378 C375 1.463 1_655 S
C378 N382 1.427 . S
C379 H369 0.929 . S
C379 C377 1.433 . S
C379 N382 1.384 . S
C380 H371 0.929 . S
C380 C372 1.378 1_655 S
C380 C375 1.350 1_655 S
C381 H368 0.929 . S
C381 C373 1.433 . S
C381 N383 1.384 . S
N382 C378 1.427 . S
N382 C379 1.384 . S
N383 C375 1.427 . S
N383 C381 1.384 . S
H384 C390 0.930 . S
H385 C394 0.930 . S
H386 C399 0.931 . S
H387 C397 0.931 . S
H388 C392 0.929 . S
H389 C398 0.929 . S
C390 H384 0.930 . S
C390 C391 1.367 . S
C390 C398 1.378 . S
C391 C390 1.367 . S
C391 C399 1.420 1_545 S
C392 H388 0.929 . S
C392 C394 1.378 . S
C392 C396 1.350 . S
C393 C396 1.463 1_545 S
C393 C398 1.350 . S
C393 N401 1.427 1_545 S
C394 H385 0.930 . S
C394 C392 1.378 . S
C394 C395 1.367 . S
C395 C394 1.367 . S
C395 C397 1.420 1_565 S
C396 C392 1.350 . S
C396 C393 1.463 1_565 S
C396 N400 1.427 1_565 S
C397 H387 0.931 . S
C397 C395 1.420 1_545 S
C397 N400 1.396 . S
C398 H389 0.929 . S
C398 C390 1.378 . S
C398 C393 1.350 . S
C399 H386 0.931 . S
C399 C391 1.420 1_565 S
C399 N401 1.396 . S
N400 C396 1.427 1_545 S
N400 C397 1.396 . S
N401 C393 1.427 1_565 S
N401 C399 1.396 . S
H402 C408 0.930 . S
H403 C412 0.930 . S
H404 C417 0.929 . S
H405 C415 0.929 . S
H406 C410 0.929 . S
H407 C416 0.929 . S
C408 H402 0.930 . S
C408 C409 1.367 . S
C408 C416 1.378 . S
C409 C408 1.367 . S
C409 C417 1.433 . S
C410 H406 0.929 . S
C410 C412 1.378 . S
C410 C414 1.350 . S
C411 C414 1.463 . S
C411 C416 1.350 . S
C411 N419 1.427 . S
C412 H403 0.930 . S
C412 C410 1.378 . S
C412 C413 1.367 . S
C413 C412 1.367 . S
C413 C415 1.433 . S
C414 C410 1.350 . S
C414 C411 1.463 . S
C414 N418 1.427 . S
C415 H405 0.929 . S
C415 C413 1.433 . S
C415 N418 1.384 . S
C416 H407 0.929 . S
C416 C408 1.378 . S
C416 C411 1.350 . S
C417 H404 0.929 . S
C417 C409 1.433 . S
C417 N419 1.384 . S
N418 C414 1.427 . S
N418 C415 1.384 . S
N419 C411 1.427 . S
N419 C417 1.384 . S
H420 C426 0.930 . S
H421 C430 0.930 1_556 S
H422 C435 0.929 1_556 S
H423 C433 0.929 . S
H424 C428 0.929 1_556 S
H425 C434 0.929 . S
C426 H420 0.930 . S
C426 C427 1.367 . S
C426 C434 1.378 . S
C427 C426 1.367 . S
C427 C435 1.433 . S
C428 H424 0.929 1_554 S
C428 C430 1.378 . S
C428 C432 1.350 . S
C429 C432 1.463 1_455 S
C429 C434 1.350 . S
C429 N437 1.427 . S
C430 H421 0.930 1_554 S
C430 C428 1.378 . S
C430 C431 1.367 . S
C431 C430 1.367 . S
C431 C433 1.433 . S
C432 C428 1.350 . S
C432 C429 1.463 1_655 S
C432 N436 1.427 . S
C433 H423 0.929 . S
C433 C431 1.433 . S
C433 N436 1.384 . S
C434 H425 0.929 . S
C434 C426 1.378 . S
C434 C429 1.350 . S
C435 H422 0.929 1_554 S
C435 C427 1.433 . S
C435 N437 1.384 . S
N436 C432 1.427 . S
N436 C433 1.384 . S
N437 C429 1.427 . S
N437 C435 1.384 . S
H438 C444 0.930 . S
H439 C448 0.930 . S
H440 C453 0.929 . S
H441 C451 0.929 . S
H442 C446 0.929 . S
H443 C452 0.929 . S
C444 H438 0.930 . S
C444 C445 1.367 . S
C444 C452 1.378 . S
C445 C444 1.367 . S
C445 C453 1.433 . S
C446 H442 0.929 . S
C446 C448 1.378 . S
C446 C450 1.350 . S
C447 C450 1.463 1_565 S
C447 C452 1.350 . S
C447 N455 1.427 . S
C448 H439 0.930 . S
C448 C446 1.378 . S
C448 C449 1.367 . S
C449 C448 1.367 . S
C449 C451 1.433 . S
C450 C446 1.350 . S
C450 C447 1.463 1_545 S
C450 N454 1.427 . S
C451 H441 0.929 . S
C451 C449 1.433 . S
C451 N454 1.384 . S
C452 H443 0.929 . S
C452 C444 1.378 . S
C452 C447 1.350 . S
C453 H440 0.929 . S
C453 C445 1.433 . S
C453 N455 1.384 . S
N454 C450 1.427 . S
N454 C451 1.384 . S
N455 C447 1.427 . S
N455 C453 1.384 . S
H456 C462 0.930 . S
H457 C466 0.930 . S
H458 C471 0.929 . S
H459 C469 0.929 . S
H460 C464 0.929 . S
H461 C470 0.929 . S
C462 H456 0.930 . S
C462 C463 1.367 . S
C462 C470 1.378 . S
C463 C462 1.367 . S
C463 C471 1.433 . S
C464 H460 0.929 . S
C464 C466 1.378 . S
C464 C468 1.350 . S
C465 C468 1.463 . S
C465 C470 1.350 . S
C465 N473 1.427 . S
C466 H457 0.930 . S
C466 C464 1.378 . S
C466 C467 1.367 . S
C467 C466 1.367 . S
C467 C469 1.433 . S
C468 C464 1.350 . S
C468 C465 1.463 . S
C468 N472 1.427 . S
C469 H459 0.929 . S
C469 C467 1.433 . S
C469 N472 1.384 . S
C470 H461 0.929 . S
C470 C462 1.378 . S
C470 C465 1.350 . S
C471 H458 0.929 . S
C471 C463 1.433 . S
C471 N473 1.384 . S
N472 C468 1.427 . S
N472 C469 1.384 . S
N473 C465 1.427 . S
N473 C471 1.384 . S
H474 C480 0.930 . S
H475 C484 0.930 . S
H476 C489 0.929 . S
H477 C487 0.929 . S
H478 C482 0.929 . S
H479 C488 0.929 . S
C480 H474 0.930 . S
C480 C481 1.367 . S
C480 C488 1.378 . S
C481 C480 1.367 . S
C481 C489 1.433 1_455 S
C482 H478 0.929 . S
C482 C484 1.378 . S
C482 C486 1.350 . S
C483 C486 1.463 . S
C483 C488 1.350 . S
C483 N491 1.419 1_455 S
C484 H475 0.930 . S
C484 C482 1.378 . S
C484 C485 1.367 . S
C485 C484 1.367 . S
C485 C487 1.433 . S
C486 C482 1.350 . S
C486 C483 1.463 . S
C486 N490 1.427 . S
C487 H477 0.929 . S
C487 C485 1.433 . S
C487 N490 1.384 . S
C488 H479 0.929 . S
C488 C480 1.378 . S
C488 C483 1.350 . S
C489 H476 0.929 . S
C489 C481 1.433 1_655 S
C489 N491 1.386 . S
N490 C486 1.427 . S
N490 C487 1.384 . S
N491 C483 1.419 1_655 S
N491 C489 1.386 . S
H492 C498 0.930 . S
H493 C502 0.930 . S
H494 C507 0.929 . S
H495 C505 0.929 . S
H496 C500 0.929 . S
H497 C506 0.929 . S
C498 H492 0.930 . S
C498 C499 1.367 . S
C498 C506 1.378 . S
C499 C498 1.367 . S
C499 C507 1.433 1_545 S
C500 H496 0.929 . S
C500 C502 1.378 . S
C500 C504 1.350 . S
C501 C504 1.463 . S
C501 C506 1.350 . S
C501 N509 1.427 . S
C502 H493 0.930 . S
C502 C500 1.378 . S
C502 C503 1.367 . S
C503 C502 1.367 . S
C503 C505 1.433 . S
C504 C500 1.350 . S
C504 C501 1.463 . S
C504 N508 1.427 . S
C505 H495 0.929 . S
C505 C503 1.433 . S
C505 N508 1.384 . S
C506 H497 0.929 . S
C506 C498 1.378 . S
C506 C501 1.350 . S
C507 H494 0.929 . S
C507 C499 1.433 1_565 S
C507 N509 1.384 1_565 S
N508 C504 1.427 . S
N508 C505 1.384 . S
N509 C501 1.427 . S
N509 C507 1.384 1_545 S
H510 C516 0.930 . S
H511 C520 0.930 . S
H512 C525 0.929 . S
H513 C523 0.929 . S
H514 C518 0.929 . S
H515 C524 0.929 . S
C516 H510 0.930 . S
C516 C517 1.367 . S
C516 C524 1.378 . S
C517 C516 1.367 . S
C517 C525 1.433 . S
C518 H514 0.929 . S
C518 C520 1.378 . S
C518 C522 1.350 . S
C519 C522 1.463 . S
C519 C524 1.350 . S
C519 N527 1.427 . S
C520 H511 0.930 . S
C520 C518 1.378 . S
C520 C521 1.367 . S
C521 C520 1.367 . S
C521 C523 1.433 . S
C522 C518 1.350 . S
C522 C519 1.463 . S
C522 N526 1.427 . S
C523 H513 0.929 . S
C523 C521 1.433 . S
C523 N526 1.384 . S
C524 H515 0.929 . S
C524 C516 1.378 . S
C524 C519 1.350 . S
C525 H512 0.929 . S
C525 C517 1.433 . S
C525 N527 1.384 . S
N526 C522 1.427 . S
N526 C523 1.384 . S
N527 C519 1.427 . S
N527 C525 1.384 . S
H528 C534 0.930 . S
H529 C538 0.930 . S
H530 C543 0.929 . S
H531 C541 0.929 . S
H532 C536 0.929 . S
H533 C542 0.929 . S
C534 H528 0.930 . S
C534 C535 1.367 1_455 S
C534 C542 1.378 1_455 S
C535 C534 1.367 1_655 S
C535 C543 1.433 . S
C536 H532 0.929 . S
C536 C538 1.378 . S
C536 C540 1.350 . S
C537 C540 1.463 . S
C537 C542 1.350 . S
C537 N545 1.427 . S
C538 H529 0.930 . S
C538 C536 1.378 . S
C538 C539 1.367 . S
C539 C538 1.367 . S
C539 C541 1.433 . S
C540 C536 1.350 . S
C540 C537 1.463 . S
C540 N544 1.427 . S
C541 H531 0.929 . S
C541 C539 1.433 . S
C541 N544 1.384 . S
C542 H533 0.929 . S
C542 C534 1.378 1_655 S
C542 C537 1.350 . S
C543 H530 0.929 . S
C543 C535 1.433 . S
C543 N545 1.384 . S
N544 C540 1.427 . S
N544 C541 1.384 . S
N545 C537 1.427 . S
N545 C543 1.384 . S
H546 C552 0.930 . S
H547 C556 0.930 . S
H548 C561 0.929 . S
H549 C559 0.929 . S
H550 C554 0.929 . S
H551 C560 0.929 1_545 S
C552 H546 0.930 . S
C552 C553 1.367 1_545 S
C552 C560 1.378 1_545 S
C553 C552 1.367 1_565 S
C553 C561 1.433 . S
C554 H550 0.929 . S
C554 C556 1.378 . S
C554 C558 1.350 . S
C555 C558 1.463 . S
C555 C560 1.350 . S
C555 N563 1.427 . S
C556 H547 0.930 . S
C556 C554 1.378 . S
C556 C557 1.367 . S
C557 C556 1.367 . S
C557 C559 1.433 . S
C558 C554 1.350 . S
C558 C555 1.463 . S
C558 N562 1.427 . S
C559 H549 0.929 . S
C559 C557 1.433 . S
C559 N562 1.384 . S
C560 H551 0.929 1_565 S
C560 C552 1.378 1_565 S
C560 C555 1.350 . S
C561 H548 0.929 . S
C561 C553 1.433 . S
C561 N563 1.384 . S
N562 C558 1.427 . S
N562 C559 1.384 . S
N563 C555 1.427 . S
N563 C561 1.384 . S
C247 C169 1.144 . S
C251 C15 1.142 . S
C265 C209 1.147 . S
C269 C55 1.143 . S
C283 C9 1.146 . S
C287 C95 1.149 . S
C301 C49 1.147 . S
C305 C135 1.143 . S
C319 C89 1.144 . S
C323 C175 1.148 . S
C337 C129 1.144 . S
C341 C215 1.148 . S
C355 C18 0.880 . S
C359 C138 0.881 . S
C373 C178 0.902 . S
C377 C58 0.902 . S
C391 C218 0.863 . S
C395 C98 0.863 . S
C409 C88 1.071 . S
C413 C208 1.071 . S
C427 C8 1.071 . S
C431 C128 1.071 . S
C445 C168 1.071 . S
C449 C48 1.071 . S
C463 C219 1.195 . S
C467 C5 1.180 . S
C481 C45 1.178 1_455 S
C485 C19 1.197 . S
C499 C85 1.179 1_545 S
C503 C59 1.197 . S
C517 C99 1.197 . S
C521 C125 1.178 . S
C535 C165 1.178 1_655 S
C539 C139 1.194 . S
C553 C205 1.167 1_565 S
C557 C179 1.193 . S
