# Generated by pormake.
# Topology sne, (6)-cn, num edge types: 1
# Building blocks:
#     Node 0, Type 0, BuildingBlock: OJICUG_clean_sbu_0, # of connection points: 6
#     Node 1, Type 0, BuildingBlock: OJICUG_clean_sbu_0, # of connection points: 6
#     Node 2, Type 0, BuildingBlock: OJICUG_clean_sbu_0, # of connection points: 6
#     Node 3, Type 0, BuildingBlock: OJICUG_clean_sbu_0, # of connection points: 6
#     Node 4, Type 0, BuildingBlock: OJICUG_clean_sbu_0, # of connection points: 6
#     Node 5, Type 0, BuildingBlock: OJICUG_clean_sbu_0, # of connection points: 6
#     Node 6, Type 0, BuildingBlock: OJICUG_clean_sbu_0, # of connection points: 6
#     Node 7, Type 0, BuildingBlock: OJICUG_clean_sbu_0, # of connection points: 6
#     Edge 8, Type (0, 0), BuildingBlock: TEMPAE_clean_linker_10, # of connection points: 2
#     Edge 9, Type (0, 0), BuildingBlock: TEMPAE_clean_linker_10, # of connection points: 2
#     Edge 10, Type (0, 0), BuildingBlock: TEMPAE_clean_linker_10, # of connection points: 2
#     Edge 11, Type (0, 0), BuildingBlock: TEMPAE_clean_linker_10, # of connection points: 2
#     Edge 12, Type (0, 0), BuildingBlock: TEMPAE_clean_linker_10, # of connection points: 2
#     Edge 13, Type (0, 0), BuildingBlock: TEMPAE_clean_linker_10, # of connection points: 2
#     Edge 14, Type (0, 0), BuildingBlock: TEMPAE_clean_linker_10, # of connection points: 2
#     Edge 15, Type (0, 0), BuildingBlock: TEMPAE_clean_linker_10, # of connection points: 2
#     Edge 16, Type (0, 0), BuildingBlock: TEMPAE_clean_linker_10, # of connection points: 2
#     Edge 17, Type (0, 0), BuildingBlock: TEMPAE_clean_linker_10, # of connection points: 2
#     Edge 18, Type (0, 0), BuildingBlock: TEMPAE_clean_linker_10, # of connection points: 2
#     Edge 19, Type (0, 0), BuildingBlock: TEMPAE_clean_linker_10, # of connection points: 2
#     Edge 20, Type (0, 0), BuildingBlock: TEMPAE_clean_linker_10, # of connection points: 2
#     Edge 21, Type (0, 0), BuildingBlock: TEMPAE_clean_linker_10, # of connection points: 2
#     Edge 22, Type (0, 0), BuildingBlock: TEMPAE_clean_linker_10, # of connection points: 2
#     Edge 23, Type (0, 0), BuildingBlock: TEMPAE_clean_linker_10, # of connection points: 2
#     Edge 24, Type (0, 0), BuildingBlock: TEMPAE_clean_linker_10, # of connection points: 2
#     Edge 25, Type (0, 0), BuildingBlock: TEMPAE_clean_linker_10, # of connection points: 2
#     Edge 26, Type (0, 0), BuildingBlock: TEMPAE_clean_linker_10, # of connection points: 2
#     Edge 27, Type (0, 0), BuildingBlock: TEMPAE_clean_linker_10, # of connection points: 2
#     Edge 28, Type (0, 0), BuildingBlock: TEMPAE_clean_linker_10, # of connection points: 2
#     Edge 29, Type (0, 0), BuildingBlock: TEMPAE_clean_linker_10, # of connection points: 2
#     Edge 30, Type (0, 0), BuildingBlock: TEMPAE_clean_linker_10, # of connection points: 2
#     Edge 31, Type (0, 0), BuildingBlock: TEMPAE_clean_linker_10, # of connection points: 2
# Relax obj value: 0.189
# Max RMSD: 0.224
# Mean RMSD: 0.224
data_MOF--net-sne--node1-OJICUG_clean_sbu_0--edge1-TEMPAE_clean_linker_10
_symmetry_space_group_name_H-M    P1
_symmetry_Int_Tables_number       1
_symmetry_cell_setting            triclinic
loop_
_symmetry_equiv_pos_as_xyz
'x, y, z'
_cell_length_a     35.068027
_cell_length_b     35.06844
_cell_length_c     28.803975
_cell_angle_alpha  90.111042
_cell_angle_beta   89.930904
_cell_angle_gamma 90.61674
loop_
_atom_site_label
_atom_site_type_symbol
_atom_site_fract_x
_atom_site_fract_y
_atom_site_fract_z
_atom_type_partial_charge
Sc0 Sc 0.26685 0.11158 0.38437 0.0
Sc1 Sc 0.18323 0.12973 0.32096 0.0
Sc2 Sc 0.25601 0.19951 0.3281 0.0
O3 O 0.23538 0.14691 0.34436 0.0
C4 C 0.28508 0.1922 0.4319 0.0
C5 C 0.18507 0.09232 0.42287 0.0
C6 C 0.16874 0.21454 0.35329 0.0
C7 C 0.22932 0.0545 0.30891 0.0
C8 C 0.32915 0.14663 0.31593 0.0
C9 C 0.213 0.17897 0.23471 0.0
O10 O 0.28408 0.15594 0.43279 0.0
O11 O 0.16855 0.10026 0.38482 0.0
O12 O 0.20289 0.22639 0.3475 0.0
O13 O 0.25248 0.06239 0.34175 0.0
O14 O 0.3107 0.17704 0.30804 0.0
O15 O 0.18952 0.15568 0.25316 0.0
O16 O 0.31678 0.12033 0.34245 0.0
O17 O 0.20476 0.07775 0.29392 0.0
O18 O 0.23955 0.19524 0.25718 0.0
O19 O 0.2202 0.0991 0.42988 0.0
O20 O 0.27532 0.21114 0.39661 0.0
O21 O 0.15795 0.18029 0.34662 0.0
Sc22 Sc 0.10699 0.79688 0.66942 0.0
Sc23 Sc 0.12415 0.70905 0.61359 0.0
Sc24 Sc 0.19642 0.77935 0.61805 0.0
O25 O 0.14238 0.7618 0.63353 0.0
C26 C 0.1487 0.85486 0.59984 0.0
C27 C 0.0502 0.75812 0.59625 0.0
C28 C 0.1747 0.73313 0.52649 0.0
C29 C 0.08435 0.71635 0.71289 0.0
C30 C 0.18629 0.81158 0.72057 0.0
C31 C 0.20849 0.69292 0.64763 0.0
O32 O 0.12199 0.84575 0.62772 0.0
O33 O 0.07146 0.72982 0.58819 0.0
O34 O 0.19403 0.75797 0.54851 0.0
O35 O 0.08707 0.75246 0.7148 0.0
O36 O 0.20598 0.80249 0.68545 0.0
O37 O 0.17462 0.68288 0.63786 0.0
O38 O 0.15002 0.81052 0.72063 0.0
O39 O 0.09712 0.69692 0.67911 0.0
O40 O 0.22111 0.72692 0.64356 0.0
O41 O 0.05948 0.78547 0.62332 0.0
O42 O 0.17705 0.83339 0.59191 0.0
O43 O 0.14814 0.71349 0.54498 0.0
Sc44 Sc 0.72679 0.79277 0.38985 0.0
Sc45 Sc 0.79838 0.85892 0.35912 0.0
Sc46 Sc 0.7143 0.8898 0.41417 0.0
O47 O 0.74652 0.84729 0.38751 0.0
C48 C 0.65267 0.83719 0.36185 0.0
C49 C 0.77201 0.79115 0.29392 0.0
C50 C 0.74859 0.9273 0.32172 0.0
C51 C 0.81287 0.78472 0.42005 0.0
C52 C 0.69645 0.825 0.48644 0.0
C53 C 0.79759 0.91729 0.44376 0.0
O54 O 0.67407 0.80832 0.35681 0.0
O55 O 0.78967 0.82248 0.30006 0.0
O56 O 0.72288 0.92454 0.35294 0.0
O57 O 0.77815 0.77421 0.4241 0.0
O58 O 0.7033 0.86 0.47844 0.0
O59 O 0.81517 0.89746 0.41385 0.0
O60 O 0.70141 0.79922 0.45632 0.0
O61 O 0.82378 0.81337 0.39637 0.0
O62 O 0.76157 0.91709 0.44771 0.0
O63 O 0.74939 0.77716 0.32379 0.0
O64 O 0.66289 0.86708 0.38382 0.0
O65 O 0.77717 0.90545 0.31969 0.0
Sc66 Sc 0.89717 0.23587 0.62602 0.0
Sc67 Sc 0.87055 0.31782 0.56295 0.0
Sc68 Sc 0.80244 0.24706 0.59036 0.0
O69 O 0.85685 0.26688 0.59301 0.0
C70 C 0.85134 0.17325 0.56756 0.0
C71 C 0.94357 0.27056 0.53898 0.0
C72 C 0.80874 0.28671 0.49136 0.0
C73 C 0.91982 0.31957 0.657 0.0
C74 C 0.82577 0.21589 0.68953 0.0
C75 C 0.79228 0.33452 0.61508 0.0
O76 O 0.88062 0.18487 0.58971 0.0
O77 O 0.91959 0.29605 0.52913 0.0
O78 O 0.79344 0.26532 0.52141 0.0
O79 O 0.91666 0.28407 0.66488 0.0
O80 O 0.80231 0.22478 0.65832 0.0
O81 O 0.82295 0.34452 0.59478 0.0
O82 O 0.86156 0.22008 0.68472 0.0
O83 O 0.90593 0.33554 0.62118 0.0
O84 O 0.78095 0.29998 0.61846 0.0
O85 O 0.9393 0.24738 0.57265 0.0
O86 O 0.82109 0.19286 0.56326 0.0
O87 O 0.83813 0.30704 0.49996 0.0
Sc88 Sc 0.24108 0.30591 0.82876 0.0
Sc89 Sc 0.31093 0.37867 0.82041 0.0
Sc90 Sc 0.22556 0.3945 0.88215 0.0
O91 O 0.25917 0.35977 0.84362 0.0
C92 C 0.16559 0.35505 0.81395 0.0
C93 C 0.28344 0.32752 0.73486 0.0
C94 C 0.26169 0.45224 0.80668 0.0
C95 C 0.32888 0.29486 0.85483 0.0
C96 C 0.2103 0.31432 0.93188 0.0
C97 C 0.30674 0.41626 0.92193 0.0
O98 O 0.18569 0.32553 0.8067 0.0
O99 O 0.30518 0.35292 0.75238 0.0
O100 O 0.23762 0.4434 0.8382 0.0
O101 O 0.29503 0.28173 0.85036 0.0
O102 O 0.21021 0.35058 0.93193 0.0
O103 O 0.32442 0.40773 0.8848 0.0
O104 O 0.22092 0.29503 0.89713 0.0
O105 O 0.33829 0.32909 0.84576 0.0
O106 O 0.27127 0.41029 0.9274 0.0
O107 O 0.25866 0.30933 0.75816 0.0
O108 O 0.17635 0.38223 0.84026 0.0
O109 O 0.2882 0.43027 0.79371 0.0
Sc110 Sc 0.37992 0.7114 0.16893 0.0
Sc111 Sc 0.36463 0.79816 0.11083 0.0
Sc112 Sc 0.29122 0.72905 0.11639 0.0
O113 O 0.34532 0.74618 0.13192 0.0
C114 C 0.33817 0.65272 0.10056 0.0
C115 C 0.43629 0.74668 0.09182 0.0
C116 C 0.31245 0.77446 0.02479 0.0
C117 C 0.4051 0.79157 0.20986 0.0
C118 C 0.30008 0.6988 0.2199 0.0
C119 C 0.28121 0.81606 0.14603 0.0
O120 O 0.36492 0.66228 0.12803 0.0
O121 O 0.41522 0.77478 0.08214 0.0
O122 O 0.29423 0.74847 0.04612 0.0
O123 O 0.39956 0.75595 0.214 0.0
O124 O 0.28079 0.70796 0.18456 0.0
O125 O 0.31565 0.82538 0.13802 0.0
O126 O 0.33635 0.6988 0.22002 0.0
O127 O 0.39455 0.81018 0.17446 0.0
O128 O 0.26759 0.78263 0.13987 0.0
O129 O 0.42755 0.72174 0.12234 0.0
O130 O 0.30985 0.67405 0.09222 0.0
O131 O 0.33816 0.79484 0.04374 0.0
Sc132 Sc 0.77796 0.60004 0.91054 0.0
Sc133 Sc 0.69413 0.62166 0.85048 0.0
Sc134 Sc 0.75744 0.69472 0.88112 0.0
O135 O 0.74352 0.63878 0.88044 0.0
C136 C 0.78134 0.66927 0.982 0.0
C137 C 0.69931 0.56332 0.93537 0.0
C138 C 0.66825 0.6929 0.90634 0.0
C139 C 0.74881 0.55888 0.81627 0.0
C140 C 0.83812 0.65519 0.86255 0.0
C141 C 0.71818 0.69134 0.78499 0.0
O142 O 0.78866 0.63484 0.97162 0.0
O143 O 0.68381 0.57554 0.89856 0.0
O144 O 0.69971 0.71091 0.90047 0.0
O145 O 0.7691 0.56026 0.85314 0.0
O146 O 0.81627 0.68397 0.86313 0.0
O147 O 0.69525 0.66503 0.79739 0.0
O148 O 0.82784 0.62233 0.87661 0.0
O149 O 0.72368 0.58341 0.8064 0.0
O150 O 0.74657 0.7018 0.80901 0.0
O151 O 0.73212 0.57426 0.94844 0.0
O152 O 0.76928 0.69327 0.95294 0.0
O153 O 0.66273 0.65857 0.89381 0.0
Sc154 Sc 0.60514 0.24413 0.12324 0.0
Sc155 Sc 0.62142 0.16141 0.05765 0.0
Sc156 Sc 0.69627 0.22626 0.07951 0.0
O157 O 0.64099 0.21072 0.08662 0.0
C158 C 0.65197 0.30492 0.06525 0.0
C159 C 0.5533 0.21481 0.03727 0.0
C160 C 0.68196 0.18915 0.9819 0.0
C161 C 0.57529 0.1641 0.15395 0.0
C162 C 0.68191 0.25344 0.18232 0.0
C163 C 0.69936 0.13684 0.10172 0.0
O164 O 0.62123 0.29368 0.08447 0.0
O165 O 0.57655 0.19 0.02259 0.0
O166 O 0.69657 0.2148 0.00728 0.0
O167 O 0.58658 0.19734 0.16515 0.0
O168 O 0.70287 0.24002 0.15066 0.0
O169 O 0.66476 0.13006 0.0913 0.0
O170 O 0.64628 0.25836 0.17711 0.0
O171 O 0.58293 0.14904 0.11483 0.0
O172 O 0.71544 0.16941 0.09702 0.0
O173 O 0.55889 0.2342 0.07426 0.0
O174 O 0.68167 0.28436 0.06247 0.0
O175 O 0.65653 0.16583 -0.0041 0.0
C176 C 0.26181 0.99307 0.29168 0.0
C177 C 0.22952 0.016 0.28832 0.0
C178 C 0.26261 0.95719 0.2703 0.0
C179 C 0.23013 0.9439 0.2456 0.0
C180 C 0.1967 0.96592 0.24448 0.0
C181 C 0.19689 0.00191 0.26553 0.0
C182 C 0.29891 0.93443 0.27204 0.0
C183 C 0.16135 0.95225 0.2193 0.0
C184 C 0.25987 0.88238 0.14559 0.0
C185 C 0.25731 0.84606 0.16533 0.0
C186 C 0.24802 0.91444 0.17018 0.0
C187 C 0.23344 0.9098 0.21566 0.0
C188 C 0.22719 0.87275 0.2339 0.0
C189 C 0.23929 0.84101 0.20827 0.0
C190 C 0.25479 0.95342 0.14926 0.0
C191 C 0.21111 0.86674 0.28197 0.0
H192 H 0.28692 0.00371 0.30964 0.0
H193 H 0.17145 0.01915 0.26381 0.0
H194 H 0.29273 0.90488 0.28373 0.0
H195 H 0.31145 0.93263 0.23672 0.0
H196 H 0.32046 0.94738 0.29569 0.0
H197 H 0.13612 0.96986 0.22773 0.0
H198 H 0.16628 0.95358 0.18128 0.0
H199 H 0.15484 0.92209 0.22815 0.0
H200 H 0.2738 0.88594 0.11219 0.0
H201 H 0.23769 0.81277 0.2235 0.0
H202 H 0.2784 0.96807 0.16802 0.0
H203 H 0.22906 0.97128 0.15291 0.0
H204 H 0.26249 0.9518 0.11188 0.0
H205 H 0.23393 0.87179 0.30799 0.0
H206 H 0.20004 0.83718 0.28661 0.0
H207 H 0.18785 0.88709 0.28934 0.0
C208 C 0.04838 0.71582 0.78774 0.0
C209 C 0.05823 0.69747 0.74619 0.0
C210 C 0.01574 0.70467 0.81264 0.0
C211 C 0.99219 0.67501 0.79497 0.0
C212 C 0.00404 0.65399 0.75563 0.0
C213 C 0.03724 0.66521 0.73199 0.0
C214 C 0.0047 0.72693 0.8554 0.0
C215 C 0.97964 0.62233 0.73547 0.0
C216 C 0.90697 0.63774 0.86325 0.0
C217 C 0.87752 0.66019 0.84545 0.0
C218 C 0.94469 0.64262 0.84786 0.0
C219 C 0.95282 0.66991 0.81306 0.0
C220 C 0.92309 0.69237 0.79464 0.0
C221 C 0.88586 0.68757 0.81152 0.0
C222 C 0.9758 0.61883 0.86898 0.0
C223 C 0.9305 0.72125 0.75673 0.0
H224 H 0.06478 0.74047 0.79921 0.0
H225 H 0.04462 0.65084 0.69991 0.0
H226 H 0.98137 0.74677 0.84661 0.0
H227 H 0.99399 0.70755 0.88301 0.0
H228 H 0.02905 0.74394 0.86933 0.0
H229 H 0.99543 0.60517 0.70946 0.0
H230 H 0.96893 0.60304 0.76312 0.0
H231 H 0.95445 0.63487 0.71817 0.0
H232 H 0.90062 0.61679 0.88988 0.0
H233 H 0.86309 0.70476 0.79752 0.0
H234 H -0.00193 0.63771 0.88431 0.0
H235 H 0.9898 0.60152 0.84172 0.0
H236 H 0.96481 0.59937 0.89641 0.0
H237 H 0.95103 0.7433 0.7691 0.0
H238 H 0.90405 0.73564 0.74535 0.0
H239 H 0.94353 0.70708 0.72619 0.0
C240 C 0.77608 0.9635 0.25475 0.0
C241 C 0.74638 0.95818 0.28701 0.0
C242 C 0.77508 0.99307 0.22224 0.0
C243 C 0.74357 0.01775 0.22185 0.0
C244 C 0.71366 0.01286 0.25447 0.0
C245 C 0.71543 0.98311 0.28672 0.0
C246 C 0.80742 -0.00245 0.18792 0.0
C247 C 0.67947 0.03872 0.25482 0.0
C248 C 0.74269 0.11421 0.16378 0.0
C249 C 0.71968 0.10608 0.12526 0.0
C250 C 0.75311 0.08507 0.19437 0.0
C251 C 0.74036 0.04729 0.18558 0.0
C252 C 0.72036 0.03857 0.14426 0.0
C253 C 0.71016 0.06819 0.11458 0.0
C254 C 0.77476 0.09527 0.238 0.0
C255 C 0.70674 -0.00148 0.13338 0.0
H256 H 0.80031 0.94457 0.25481 0.0
H257 H 0.69248 0.97935 0.31158 0.0
H258 H 0.79669 0.99274 0.15215 0.0
H259 H 0.81915 0.02704 0.1893 0.0
H260 H 0.83091 0.97727 0.19458 0.0
H261 H 0.6594 0.03197 0.2836 0.0
H262 H 0.68886 0.0689 0.25824 0.0
H263 H 0.66387 0.03601 0.22146 0.0
H264 H 0.74986 0.1436 0.17211 0.0
H265 H 0.69264 0.06198 0.08443 0.0
H266 H 0.79774 0.07447 0.24453 0.0
H267 H 0.75504 0.09418 0.26814 0.0
H268 H 0.78754 0.12437 0.23617 0.0
H269 H 0.73006 0.97782 0.13835 0.0
H270 H 0.69593 0.99582 0.09727 0.0
H271 H 0.68334 0.99049 0.15756 0.0
C272 C 0.10297 0.38775 0.80261 0.0
C273 C 0.12772 0.3578 0.79138 0.0
C274 C 0.06646 0.38983 0.7829 0.0
C275 C 0.05444 0.36134 0.75123 0.0
C276 C 0.07964 0.33169 0.73872 0.0
C277 C 0.1159 0.33026 0.75898 0.0
C278 C 0.04042 0.42188 0.79694 0.0
C279 C 0.06797 0.30087 0.70468 0.0
C280 C 0.9532 0.32842 0.7322 0.0
C281 C 0.94697 0.34082 0.68663 0.0
C282 C 0.98683 0.33815 0.75575 0.0
C283 C 0.01486 0.36063 0.73295 0.0
C284 C 0.00671 0.37691 0.68916 0.0
C285 C 0.9726 0.36691 0.66648 0.0
C286 C 0.99403 0.32085 0.80285 0.0
C287 C 0.03565 0.40142 0.66398 0.0
H288 H 0.11181 0.40931 0.82748 0.0
H289 H 0.13485 0.30724 0.7497 0.0
H290 H 0.02827 0.43575 0.76579 0.0
H291 H 0.01617 0.41024 0.81745 0.0
H292 H 0.05538 0.44386 0.81818 0.0
H293 H 0.09152 0.28087 0.69704 0.0
H294 H 0.04351 0.28427 0.7189 0.0
H295 H 0.0585 0.31383 0.67159 0.0
H296 H 0.93315 0.30857 0.74803 0.0
H297 H 0.96794 0.37654 0.63121 0.0
H298 H 0.00696 0.34217 0.82674 0.0
H299 H 0.01445 0.29706 0.79918 0.0
H300 H 0.96741 0.30946 0.81884 0.0
H301 H 0.05004 0.42156 0.68818 0.0
H302 H 0.02238 0.41791 0.63546 0.0
H303 H 0.05789 0.38291 0.64871 0.0
C304 C 0.31453 0.60548 0.04189 0.0
C305 C 0.34024 0.61506 0.07736 0.0
C306 C 0.31589 0.56986 0.01991 0.0
C307 C 0.3435 0.54302 0.03391 0.0
C308 C 0.36983 0.55254 0.06929 0.0
C309 C 0.36794 0.5885 0.09057 0.0
C310 C 0.28745 0.56085 0.98195 0.0
C311 C 0.39955 0.52458 0.08509 0.0
C312 C 0.30979 0.44448 0.00113 0.0
C313 C 0.32576 0.44089 0.95669 0.0
C314 C 0.31843 0.47608 0.02913 0.0
C315 C 0.34347 0.50468 0.01206 0.0
C316 C 0.36319 0.49886 0.96976 0.0
C317 C 0.35422 0.46678 0.94257 0.0
C318 C 0.29744 0.48081 0.07454 0.0
C319 C 0.39046 0.5285 0.95063 0.0
H320 H 0.29326 0.62584 0.03117 0.0
H321 H 0.38797 0.5956 0.11796 0.0
H322 H 0.30262 0.55289 0.94958 0.0
H323 H 0.26939 0.53609 -0.00775 0.0
H324 H 0.26856 0.58527 0.97431 0.0
H325 H 0.41931 0.53718 0.11119 0.0
H326 H 0.38537 0.49919 0.10059 0.0
H327 H 0.41647 0.51447 0.05501 0.0
H328 H 0.28822 0.42415 0.01251 0.0
H329 H 0.36681 0.46411 0.90834 0.0
H330 H 0.27422 0.50172 0.06996 0.0
H331 H 0.31678 0.49202 0.10189 0.0
H332 H 0.28458 0.45349 0.08667 0.0
H333 H 0.37392 0.55233 0.93571 0.0
H334 H 0.40885 0.5166 0.92283 0.0
H335 H 0.40889 0.5405 0.97842 0.0
C336 C 0.59919 0.7016 0.91707 0.0
C337 C 0.63645 0.71135 0.93024 0.0
C338 C 0.56811 0.71201 0.94435 0.0
C339 C 0.57458 0.73256 0.98593 0.0
C340 C 0.61195 0.74474 -0.00211 0.0
C341 C 0.64268 0.73396 0.96965 0.0
C342 C 0.52859 0.69906 0.92997 0.0
C343 C 0.61994 0.76686 0.04186 0.0
C344 C 0.48449 0.77309 0.03639 0.0
C345 C 0.47313 0.74399 0.0671 0.0
C346 C 0.51876 0.7709 0.01174 0.0
C347 C 0.54213 0.73878 0.01773 0.0
C348 C 0.5318 0.71012 0.05008 0.0
C349 C 0.49733 0.71304 0.07442 0.0
C350 C 0.52923 0.80218 0.97791 0.0
C351 C 0.55641 0.6756 0.05755 0.0
H352 H 0.59449 0.6844 0.88621 0.0
H353 H 0.6716 0.74122 0.97994 0.0
H354 H 0.51731 0.6781 0.95548 0.0
H355 H 0.50886 0.72357 0.92964 0.0
H356 H 0.52831 0.68555 0.89505 0.0
H357 H 0.64745 0.78275 0.03965 0.0
H358 H 0.59689 0.78735 0.0496 0.0
H359 H 0.62169 0.74667 0.07138 0.0
H360 H 0.46636 0.79752 0.03099 0.0
H361 H 0.48907 0.69071 0.0985 0.0
H362 H 0.5276 0.79098 0.9419 0.0
H363 H 0.55902 0.81201 0.98381 0.0
H364 H 0.51003 0.82706 0.98081 0.0
H365 H 0.55668 0.65795 0.02553 0.0
H366 H 0.54607 0.65761 0.08677 0.0
H367 H 0.58627 0.68459 0.06471 0.0
C368 C 0.68306 0.35531 0.0166 0.0
C369 C 0.65341 0.34406 0.04638 0.0
C370 C 0.68541 0.39269 -0.00023 0.0
C371 C 0.65764 0.41951 0.01344 0.0
C372 C 0.6273 0.40828 0.04287 0.0
C373 C 0.62545 0.37059 0.05887 0.0
C374 C 0.71797 0.40362 0.96788 0.0
C375 C 0.59735 0.43624 0.05827 0.0
C376 C 0.69468 0.52056 0.00417 0.0
C377 C 0.68155 0.53082 0.96002 0.0
C378 C 0.68481 0.48524 0.02359 0.0
C379 C 0.6615 0.45962 -0.00198 0.0
C380 C 0.64562 0.47105 0.9552 0.0
C381 C 0.65569 0.50671 0.93676 0.0
C382 C 0.7017 0.47427 0.06982 0.0
C383 C 0.62057 0.44448 0.92702 0.0
H384 H 0.70454 0.3349 0.00646 0.0
H385 H 0.60246 0.36217 0.08199 0.0
H386 H 0.70673 0.4158 0.93518 0.0
H387 H 0.73597 0.42593 0.9846 0.0
H388 H 0.73627 0.37896 0.9591 0.0
H389 H 0.57452 0.42245 0.07933 0.0
H390 H 0.61083 0.45924 0.07928 0.0
H391 H 0.58412 0.44994 0.02767 0.0
H392 H 0.71428 0.53931 0.02258 0.0
H393 H 0.64539 0.51446 0.90262 0.0
H394 H 0.72389 0.45238 0.06434 0.0
H395 H 0.67953 0.46159 0.09273 0.0
H396 H 0.71499 0.49905 0.08792 0.0
H397 H 0.63826 0.42147 0.912 0.0
H398 H 0.60613 0.45951 0.89814 0.0
H399 H 0.59858 0.43072 0.94928 0.0
C400 C 0.50614 0.19354 0.97728 0.0
C401 C 0.51771 0.22044 0.01078 0.0
C402 C 0.47282 0.19866 0.95133 0.0
C403 C 0.45086 0.23167 0.95864 0.0
C404 C 0.46169 0.25834 -0.00667 0.0
C405 C 0.49492 0.25231 0.01915 0.0
C406 C 0.46185 0.16943 0.91503 0.0
C407 C 0.43905 0.29409 0.00188 0.0
C408 C 0.39679 0.27773 0.86128 0.0
C409 C 0.35892 0.27095 0.87469 0.0
C410 C 0.42705 0.26296 0.8868 0.0
C411 C 0.41915 0.24083 0.92673 0.0
C412 C 0.38095 0.2312 0.93826 0.0
C413 C 0.35107 0.2464 0.91188 0.0
C414 C 0.46738 0.27364 0.87307 0.0
C415 C 0.37154 0.20729 0.98033 0.0
H416 H 0.52323 0.16846 0.9711 0.0
H417 H 0.50352 0.27308 0.04512 0.0
H418 H 0.43132 0.16132 0.91859 0.0
H419 H 0.4657 0.18184 0.87991 0.0
H420 H 0.47933 0.14327 0.9174 0.0
H421 H 0.44981 0.31058 0.03221 0.0
H422 H 0.44051 0.31265 0.97076 0.0
H423 H 0.40859 0.28678 0.00787 0.0
H424 H 0.40279 0.29643 0.83215 0.0
H425 H 0.32175 0.24132 0.92237 0.0
H426 H 0.48553 0.24796 0.87173 0.0
H427 H 0.47977 0.2932 0.8995 0.0
H428 H 0.46868 0.28802 0.83876 0.0
H429 H 0.39051 0.18223 0.98232 0.0
H430 H 0.3414 0.1972 0.98009 0.0
H431 H 0.37624 0.22452 0.0122 0.0
C432 C 0.78388 0.50289 0.78444 0.0
C433 C 0.75093 0.525 0.78612 0.0
C434 C 0.78514 0.47 0.75675 0.0
C435 C 0.7524 0.45875 0.73111 0.0
C436 C 0.71874 0.48033 0.73383 0.0
C437 C 0.71853 0.51343 0.76094 0.0
C438 C 0.82175 0.44781 0.75403 0.0
C439 C 0.68314 0.46874 0.70763 0.0
C440 C 0.7756 0.40234 0.62376 0.0
C441 C 0.77222 0.36485 0.64011 0.0
C442 C 0.76715 0.43326 0.6524 0.0
C443 C 0.75466 0.42637 0.69832 0.0
C444 C 0.74766 0.38856 0.71359 0.0
C445 C 0.75659 0.35801 0.68411 0.0
C446 C 0.7747 0.47319 0.63472 0.0
C447 C 0.73354 0.38031 0.76211 0.0
H448 H 0.8088 0.51163 0.80417 0.0
H449 H 0.69262 0.52995 0.763 0.0
H450 H 0.81639 0.41756 0.76342 0.0
H451 H 0.83275 0.44823 0.71789 0.0
H452 H 0.84417 0.45961 0.77737 0.0
H453 H 0.65841 0.48689 0.71655 0.0
H454 H 0.68837 0.47084 0.66973 0.0
H455 H 0.67558 0.43859 0.71522 0.0
H456 H 0.7873 0.40755 0.58945 0.0
H457 H 0.75411 0.329 0.69681 0.0
H458 H 0.79928 0.48591 0.65368 0.0
H459 H 0.74973 0.4916 0.64118 0.0
H460 H 0.78126 0.47365 0.59698 0.0
H461 H 0.75687 0.38589 0.78728 0.0
H462 H 0.72395 0.35018 0.76606 0.0
H463 H 0.7096 0.39933 0.77134 0.0
C464 C 0.54218 0.15853 0.23011 0.0
C465 C 0.5463 0.14598 0.18415 0.0
C466 C 0.50851 0.15126 0.25486 0.0
C467 C 0.47836 0.13106 0.23295 0.0
C468 C 0.48411 0.11449 0.18869 0.0
C469 C 0.51823 0.12203 0.16477 0.0
C470 C 0.50378 0.16878 0.30242 0.0
C471 C 0.45281 0.09232 0.16444 0.0
C472 C 0.38951 0.11004 0.30422 0.0
C473 C 0.36681 0.14163 0.2935 0.0
C474 C 0.42565 0.10559 0.28407 0.0
C475 C 0.43933 0.13338 0.25254 0.0
C476 C 0.41627 0.16484 0.24081 0.0
C477 C 0.38035 0.1686 0.26146 0.0
C478 C 0.44945 0.07166 0.29721 0.0
C479 C 0.42981 0.195 0.20699 0.0
H480 H 0.56412 0.17649 0.24556 0.0
H481 H 0.52129 0.11201 0.12934 0.0
H482 H 0.48538 0.19424 0.29976 0.0
H483 H 0.48962 0.14844 0.3265 0.0
H484 H 0.53156 0.17782 0.31759 0.0
H485 H 0.46405 0.07512 0.13513 0.0
H486 H 0.43767 0.07308 0.18897 0.0
H487 H 0.43161 0.11254 0.15041 0.0
H488 H 0.37929 0.08893 0.32882 0.0
H489 H 0.36298 0.19291 0.25262 0.0
H490 H 0.47508 0.08146 0.31657 0.0
H491 H 0.45959 0.05672 0.26562 0.0
H492 H 0.43342 0.05099 0.31919 0.0
H493 H 0.45579 0.2094 0.2207 0.0
H494 H 0.40787 0.21697 0.20046 0.0
H495 H 0.43753 0.18164 0.17337 0.0
C496 C 0.24834 0.66696 0.7111 0.0
C497 C 0.2326 0.66299 0.66673 0.0
C498 C 0.2599 0.63463 0.73593 0.0
C499 C 0.25541 0.59805 0.71548 0.0
C500 C 0.24313 0.59464 0.66888 0.0
C501 C 0.23181 0.62726 0.64509 0.0
C502 C 0.27353 0.63942 0.78528 0.0
C503 C 0.23825 0.55624 0.64559 0.0
C504 C 0.29325 0.50613 0.76467 0.0
C505 C 0.26041 0.49058 0.78564 0.0
C506 C 0.29279 0.54228 0.74411 0.0
C507 C 0.25852 0.56304 0.74385 0.0
C508 C 0.2256 0.54808 0.76625 0.0
C509 C 0.22703 0.51208 0.7872 0.0
C510 C 0.32857 0.55767 0.72136 0.0
C511 C 0.1884 0.5694 0.76637 0.0
H512 H 0.2485 0.69468 0.72787 0.0
H513 H 0.21954 0.62448 0.61067 0.0
H514 H 0.24974 0.63261 0.80943 0.0
H515 H 0.29715 0.61963 0.79301 0.0
H516 H 0.28329 0.66912 0.79232 0.0
H517 H 0.23237 0.55891 0.60785 0.0
H518 H 0.26415 0.5388 0.65016 0.0
H519 H 0.21409 0.54056 0.66194 0.0
H520 H 0.31946 0.49002 0.76424 0.0
H521 H 0.2017 0.50033 0.80367 0.0
H522 H 0.33412 0.58751 0.73252 0.0
H523 H 0.32482 0.55794 0.68312 0.0
H524 H 0.35395 0.54027 0.72966 0.0
H525 H 0.19285 0.59875 0.77988 0.0
H526 H 0.16619 0.55497 0.78778 0.0
H527 H 0.17759 0.57187 0.73031 0.0
C528 C 0.58556 0.86027 0.36051 0.0
C529 C 0.61358 0.83582 0.34284 0.0
C530 C 0.54798 0.8586 0.34408 0.0
C531 C 0.53841 0.83223 0.30875 0.0
C532 C 0.56666 0.80788 0.29026 0.0
C533 C 0.60387 0.80976 0.30781 0.0
C534 C 0.51846 0.88459 0.36496 0.0
C535 C 0.55755 0.77969 0.25199 0.0
C536 C 0.44043 0.79187 0.28485 0.0
C537 C 0.4318 0.80994 0.24282 0.0
C538 C 0.47368 0.80141 0.30935 0.0
C539 C 0.49883 0.82939 0.29103 0.0
C540 C 0.48813 0.85063 0.25153 0.0
C541 C 0.45445 0.84085 0.22804 0.0
C542 C 0.48362 0.7789 0.35221 0.0
C543 C 0.51412 0.88083 0.23107 0.0
H544 H 0.5928 0.88029 0.38793 0.0
H545 H 0.62543 0.79099 0.29387 0.0
H546 H 0.50491 0.90184 0.33742 0.0
H547 H 0.49555 0.8673 0.38154 0.0
H548 H 0.53082 0.90421 0.39142 0.0
H549 H 0.58304 0.76366 0.24051 0.0
H550 H 0.53561 0.75895 0.2641 0.0
H551 H 0.54558 0.7948 0.22158 0.0
H552 H 0.42268 0.76837 0.29686 0.0
H553 H 0.4479 0.85513 0.19571 0.0
H554 H 0.49538 0.79788 0.37964 0.0
H555 H 0.50586 0.75781 0.34339 0.0
H556 H 0.45847 0.76327 0.36639 0.0
H557 H 0.52631 0.89941 0.25861 0.0
H558 H 0.49904 0.89893 0.20551 0.0
H559 H 0.53826 0.86683 0.21311 0.0
C560 C 0.82493 0.12274 0.51512 0.0
C561 C 0.85187 0.13418 0.54832 0.0
C562 C 0.82319 0.08492 0.49954 0.0
C563 C 0.84868 0.05785 0.51811 0.0
C564 C 0.87683 0.06944 0.55036 0.0
C565 C 0.87822 0.10758 0.56495 0.0
C566 C 0.79315 0.07368 0.46438 0.0
C567 C 0.90429 0.0413 0.57105 0.0
C568 C 0.80392 0.96008 0.51203 0.0
C569 C 0.8187 0.94674 0.46992 0.0
C570 C 0.81625 0.99495 0.53065 0.0
C571 C 0.84355 0.01705 0.50606 0.0
C572 C 0.86136 0.00188 0.46608 0.0
C573 C 0.84887 0.96657 0.44859 0.0
C574 C 0.79735 0.00973 0.57415 0.0
C575 C 0.8907 0.02454 0.43906 0.0
H576 H 0.80481 0.14324 0.50175 0.0
H577 H 0.89911 0.11618 0.59073 0.0
H578 H 0.80642 0.05858 0.43468 0.0
H579 H 0.77226 0.05374 0.48053 0.0
H580 H 0.77747 0.09868 0.45087 0.0
H581 H 0.92738 0.05567 0.5911 0.0
H582 H 0.88858 0.02171 0.59468 0.0
H583 H 0.91737 0.02358 0.54349 0.0
H584 H 0.7809 0.94446 0.52883 0.0
H585 H 0.86031 0.95632 0.41593 0.0
H586 H 0.77706 0.03254 0.56479 0.0
H587 H 0.8188 0.02235 0.59808 0.0
H588 H 0.78134 0.98692 0.59278 0.0
H589 H 0.87611 0.04697 0.4188 0.0
H590 H 0.90678 0.00627 0.41449 0.0
H591 H 0.9112 0.03901 0.4627 0.0
C592 C 0.14703 0.25938 0.41411 0.0
C593 C 0.14 0.24005 0.37242 0.0
C594 C 0.11652 0.27229 0.44127 0.0
C595 C 0.0787 0.2656 0.42578 0.0
C596 C 0.07199 0.25017 0.38109 0.0
C597 C 0.10288 0.23749 0.35492 0.0
C598 C 0.12469 0.28933 0.48841 0.0
C599 C 0.03211 0.24295 0.36308 0.0
C600 C 0.002 0.23724 0.51152 0.0
C601 C 0.97902 0.26961 0.51146 0.0
C602 C 0.03547 0.23621 0.48503 0.0
C603 C 0.04632 0.26853 0.45843 0.0
C604 C 0.02408 0.30181 0.45967 0.0
C605 C 0.99048 0.30186 0.48591 0.0
C606 C 0.05849 0.20003 0.48422 0.0
C607 C 0.03518 0.33692 0.4323 0.0
H608 H 0.17587 0.26109 0.42759 0.0
H609 H 0.09776 0.22263 0.3224 0.0
H610 H 0.10511 0.31317 0.49604 0.0
H611 H 0.12012 0.26723 0.51543 0.0
H612 H 0.15461 0.29988 0.4911 0.0
H613 H 0.03197 0.23572 0.3255 0.0
H614 H 0.01896 0.21881 0.38241 0.0
H615 H 0.01395 0.26825 0.36863 0.0
H616 H 0.99338 0.21239 0.53143 0.0
H617 H 0.97322 0.32732 0.48646 0.0
H618 H 0.08862 0.20636 0.49334 0.0
H619 H 0.05826 0.18774 0.44869 0.0
H620 H 0.04719 0.17821 0.50869 0.0
H621 H 0.06561 0.34437 0.4383 0.0
H622 H 0.01746 0.36189 0.44153 0.0
H623 H 0.03178 0.33113 0.39465 0.0
C624 C 0.11925 0.9192 0.58839 0.0
C625 C 0.14691 0.89228 0.57596 0.0
C626 C 0.11813 0.95513 0.56695 0.0
C627 C 0.14521 0.9643 0.5322 0.0
C628 C 0.17266 0.93701 0.51883 0.0
C629 C 0.17322 0.90144 0.5409 0.0
C630 C 0.08849 0.9835 0.58206 0.0
C631 C 0.20189 0.94556 0.48157 0.0
C632 C 0.13718 0.04145 0.44147 0.0
C633 C 0.16547 0.06714 0.45672 0.0
C634 C 0.12751 0.00914 0.46789 0.0
C635 C 0.14634 0.00277 0.51059 0.0
C636 C 0.17135 0.03104 0.52864 0.0
C637 C 0.18067 0.0629 0.50142 0.0
C638 C 0.10029 0.97993 0.44765 0.0
C639 C 0.19146 0.02577 0.57446 0.0
H640 H 0.09874 0.91245 0.6154 0.0
H641 H 0.19449 0.88084 0.53072 0.0
H642 H 0.10268 0.00852 0.59845 0.0
H643 H 0.07254 0.9941 0.55154 0.0
H644 H 0.06784 0.97106 0.60725 0.0
H645 H 0.22047 0.92081 0.4742 0.0
H646 H 0.18743 0.95384 0.44892 0.0
H647 H 0.2202 0.96998 0.49245 0.0
H648 H 0.12516 0.04452 0.40704 0.0
H649 H 0.20213 0.08298 0.51373 0.0
H650 H 0.08113 0.96807 0.4748 0.0
H651 H 0.11683 0.95594 0.43297 0.0
H652 H 0.08264 0.99218 0.41948 0.0
H653 H 0.1714 0.01492 0.60127 0.0
H654 H 0.20469 0.05277 0.58712 0.0
H655 H 0.21428 0.00434 0.57025 0.0
C656 C 0.9908 0.79027 0.56969 0.0
C657 C 0.01178 0.75696 0.57574 0.0
C658 C 0.95482 0.78883 0.54858 0.0
C659 C 0.9396 0.75321 0.53384 0.0
C660 C 0.9596 0.71931 0.54257 0.0
C661 C 0.99562 0.7216 0.5631 0.0
C662 C 0.93384 0.82554 0.54012 0.0
C663 C 0.94362 0.68082 0.52857 0.0
C664 C 0.83703 0.75766 0.49392 0.0
C665 C 0.84257 0.76575 0.44683 0.0
C666 C 0.8684 0.75075 0.52279 0.0
C667 C 0.90561 0.7522 0.50365 0.0
C668 C 0.91074 0.75657 0.45524 0.0
C669 C 0.87903 0.76323 0.42738 0.0
C670 C 0.86162 0.74519 0.57407 0.0
C671 C 0.94993 0.75758 0.43335 0.0
H672 H 0.00298 0.81752 0.58009 0.0
H673 H 0.01122 0.69554 0.56904 0.0
H674 H 0.93197 0.83089 0.50223 0.0
H675 H 0.90428 0.82324 0.55366 0.0
H676 H 0.94819 0.85044 0.55676 0.0
H677 H 0.96055 0.65697 0.54288 0.0
H678 H 0.91368 0.67769 0.54063 0.0
H679 H 0.94343 0.67837 0.49016 0.0
H680 H 0.80874 0.75979 0.50892 0.0
H681 H 0.88304 0.76913 0.39073 0.0
H682 H 0.86144 0.77346 0.59144 0.0
H683 H 0.88414 0.72776 0.59038 0.0
H684 H 0.83351 0.73124 0.58036 0.0
H685 H 0.9656 0.78349 0.44518 0.0
H686 H 0.94864 0.75798 0.39481 0.0
H687 H 0.96665 0.73249 0.44428 0.0
C688 C 0.19769 0.31159 0.01762 0.0
C689 C 0.20048 0.29298 0.97467 0.0
C690 C 0.19434 0.29063 0.05895 0.0
C691 C 0.19385 0.25024 0.0571 0.0
C692 C 0.194 0.23143 0.01371 0.0
C693 C 0.19721 0.253 0.97305 0.0
C694 C 0.1938 0.31166 0.10472 0.0
C695 C 0.19349 0.18843 0.01027 0.0
C696 C 0.2396 0.20254 0.16019 0.0
C697 C 0.20774 0.191 0.1862 0.0
C698 C 0.23533 0.22061 0.1173 0.0
C699 C 0.19823 0.22783 0.10036 0.0
C700 C 0.16592 0.2147 0.12542 0.0
C701 C 0.17108 0.19611 0.16809 0.0
C702 C 0.27057 0.23334 0.09105 0.0
C703 C 0.12598 0.22199 0.10837 0.0
H704 H 0.19993 0.34242 0.01922 0.0
H705 H 0.19873 0.23827 0.93999 0.0
H706 H 0.17079 0.30023 0.12738 0.0
H707 H 0.22126 0.30736 0.12298 0.0
H708 H 0.18957 0.34278 0.10012 0.0
H709 H 0.1885 0.17838 0.97416 0.0
H710 H 0.2213 0.17726 0.02218 0.0
H711 H 0.17109 0.17604 0.03307 0.0
H712 H 0.26797 0.19838 0.17412 0.0
H713 H 0.14642 0.18758 0.18846 0.0
H714 H 0.27145 0.26492 0.08889 0.0
H715 H 0.26978 0.22217 0.05499 0.0
H716 H 0.29727 0.22362 0.10782 0.0
H717 H 0.12022 0.25301 0.1099 0.0
H718 H 0.1041 0.20679 0.12949 0.0
H719 H 0.12292 0.213 0.07161 0.0
C720 C 0.28399 0.75573 0.949 0.0
C721 C 0.3001 0.78397 0.97748 0.0
C722 C 0.26761 0.76517 0.90633 0.0
C723 C 0.26657 0.80389 0.89253 0.0
C724 C 0.28369 0.83242 0.92057 0.0
C725 C 0.30067 0.82203 0.96264 0.0
C726 C 0.25054 0.7338 0.8766 0.0
C727 C 0.28269 0.87399 0.90707 0.0
C728 C 0.24709 0.81664 0.76496 0.0
C729 C 0.20706 0.81841 0.76452 0.0
C730 C 0.26719 0.81418 0.80671 0.0
C731 C 0.24683 0.81416 0.84902 0.0
C732 C 0.20687 0.81954 0.8491 0.0
C733 C 0.18735 0.82145 0.80671 0.0
C734 C 0.3098 0.80835 0.80523 0.0
C735 C 0.18439 0.82051 0.89381 0.0
H736 H 0.28372 0.72629 0.96046 0.0
H737 H 0.31272 0.84397 0.98497 0.0
H738 H 0.21929 0.73775 0.87362 0.0
H739 H 0.2626 0.73509 0.84099 0.0
H740 H 0.25581 0.70499 0.89106 0.0
H741 H 0.29943 0.89232 0.93126 0.0
H742 H 0.29403 0.87796 0.87143 0.0
H743 H 0.25274 0.88385 0.90696 0.0
H744 H 0.26275 0.81481 0.73259 0.0
H745 H 0.15651 0.82321 0.80677 0.0
H746 H 0.31615 0.77837 0.81448 0.0
H747 H 0.32448 0.82694 0.83092 0.0
H748 H 0.32193 0.81423 0.77029 0.0
H749 H 0.18335 0.79152 0.90916 0.0
H750 H 0.15468 0.83018 0.88831 0.0
H751 H 0.19844 0.8397 0.91941 0.0
C752 C 0.76026 0.73384 0.24433 0.0
C753 C 0.77869 0.76917 0.25095 0.0
C754 C 0.76517 0.71309 0.20332 0.0
C755 C 0.789 0.72809 0.16809 0.0
C756 C 0.8093 0.76266 0.17542 0.0
C757 C 0.80384 0.78289 0.21682 0.0
C758 C 0.74291 0.67637 0.19656 0.0
C759 C 0.83495 0.77945 0.13842 0.0
C760 C 0.81047 0.66803 0.06151 0.0
C761 C 0.78346 0.68221 0.03044 0.0
C762 C 0.81286 0.68265 0.1069 0.0
C763 C 0.78725 0.71143 0.12103 0.0
C764 C 0.75928 0.72487 0.09003 0.0
C765 C 0.75785 0.71018 0.04516 0.0
C766 C 0.84302 0.66792 0.13937 0.0
C767 C 0.7309 0.755 0.10405 0.0
H768 H 0.74119 0.72265 0.27075 0.0
H769 H 0.81865 0.80987 0.22191 0.0
H770 H 0.71948 0.68112 0.17142 0.0
H771 H 0.7614 0.65387 0.18193 0.0
H772 H 0.73022 0.66581 0.22954 0.0
H773 H 0.85277 0.80338 0.15192 0.0
H774 H 0.85394 0.75731 0.1239 0.0
H775 H 0.81727 0.79031 0.10949 0.0
H776 H 0.83019 0.64636 0.05001 0.0
H777 H 0.73638 0.72062 0.02142 0.0
H778 H 0.82965 0.65725 0.17184 0.0
H779 H 0.86277 0.6915 0.14919 0.0
H780 H 0.85985 0.64458 0.12354 0.0
H781 H 0.714 0.74508 0.13438 0.0
H782 H 0.71088 0.76203 0.07556 0.0
H783 H 0.74616 0.7815 0.11456 0.0
C784 C 0.77314 0.18277 0.73061 0.0
C785 C 0.8093 0.20029 0.73264 0.0
C786 C 0.75279 0.17415 0.77093 0.0
C787 C 0.76921 0.1829 0.81441 0.0
C788 C 0.80717 0.19713 0.81692 0.0
C789 C 0.82692 0.2058 0.77572 0.0
C790 C 0.71242 0.15904 0.76672 0.0
C791 C 0.82578 0.20593 0.86295 0.0
C792 C 0.70249 0.21758 0.90787 0.0
C793 C 0.69836 0.18512 0.93554 0.0
C794 C 0.72496 0.21686 0.86781 0.0
C795 C 0.74452 0.18305 0.85607 0.0
C796 C 0.73969 0.14982 0.88338 0.0
C797 C 0.7162 0.15117 0.92282 0.0
C798 C 0.7285 0.25258 0.83876 0.0
C799 C 0.76065 0.11357 0.87222 0.0
H800 H 0.7598 0.17752 0.69722 0.0
H801 H 0.855 0.21895 0.77733 0.0
H802 H 0.70729 0.13522 0.79128 0.0
H803 H 0.69218 0.18204 0.77573 0.0
H804 H 0.70586 0.14892 0.73101 0.0
H805 H 0.85704 0.21058 0.85936 0.0
H806 H 0.81317 0.23213 0.87785 0.0
H807 H 0.82054 0.18241 0.88795 0.0
H808 H 0.68891 0.24388 0.9184 0.0
H809 H 0.71362 0.12644 0.9452 0.0
H810 H 0.72046 0.24633 0.80226 0.0
H811 H 0.75853 0.26284 0.83862 0.0
H812 H 0.71019 0.27593 0.85186 0.0
H813 H 0.75604 0.10525 0.83547 0.0
H814 H 0.75158 0.08951 0.89487 0.0
H815 H 0.79174 0.11842 0.87681 0.0
C816 C 0.69413 0.83457 0.57269 0.0
C817 C 0.68649 0.81192 0.5336 0.0
C818 C 0.69333 0.81853 0.61731 0.0
C819 C 0.68547 0.77904 0.62228 0.0
C820 C 0.67432 0.75706 0.58338 0.0
C821 C 0.67434 0.77398 0.53964 0.0
C822 C 0.70382 0.84309 0.65852 0.0
C823 C 0.66615 0.71474 0.58705 0.0
C824 C 0.73903 0.72323 0.7126 0.0
C825 C 0.70968 0.71327 0.74322 0.0
C826 C 0.73161 0.74555 0.67353 0.0
C827 C 0.69421 0.7592 0.66613 0.0
C828 C 0.6648 0.75043 0.69811 0.0
C829 C 0.67276 0.72683 0.73599 0.0
C830 C 0.76353 0.75343 0.63946 0.0
C831 C 0.62504 0.76575 0.69216 0.0
H832 H 0.70305 0.86404 0.56831 0.0
H833 H 0.6674 0.75652 0.50964 0.0
H834 H 0.68571 0.83591 0.68896 0.0
H835 H 0.73389 0.83783 0.6683 0.0
H836 H 0.70089 0.87392 0.65065 0.0
H837 H 0.6546 0.70261 0.55423 0.0
H838 H 0.6929 0.69966 0.59561 0.0
H839 H 0.64549 0.70874 0.61531 0.0
H840 H 0.76761 0.71288 0.71879 0.0
H841 H 0.65038 0.71978 0.76065 0.0
H842 H 0.76711 0.78456 0.63409 0.0
H843 H 0.75638 0.74053 0.6053 0.0
H844 H 0.79116 0.74175 0.65135 0.0
H845 H 0.62622 0.79703 0.68643 0.0
H846 H 0.60665 0.75974 0.72278 0.0
H847 H 0.61147 0.75275 0.6611 0.0
C848 C 0.8003 0.3142 0.41125 0.0
C849 C 0.79083 0.28681 0.44485 0.0
C850 C 0.78229 0.31382 0.36761 0.0
C851 C 0.7546 0.28524 0.3576 0.0
C852 C 0.74481 0.25782 0.39153 0.0
C853 C 0.76296 0.25897 0.43455 0.0
C854 C 0.79322 0.3435 0.33202 0.0
C855 C 0.71584 0.22649 0.38203 0.0
C856 C 0.68346 0.28804 0.25874 0.0
C857 C 0.70066 0.26352 0.22665 0.0
C858 C 0.70182 0.29743 0.30062 0.0
C859 C 0.73782 0.28145 0.31064 0.0
C860 C 0.7556 0.25739 0.27791 0.0
C861 C 0.73687 0.24882 0.23636 0.0
C862 C 0.68219 0.32334 0.33481 0.0
C863 C 0.79359 0.23909 0.28769 0.0
H864 H 0.82159 0.33591 0.41905 0.0
H865 H 0.75547 0.23746 0.46004 0.0
H866 H 0.80707 0.32957 0.30187 0.0
H867 H 0.76735 0.35788 0.31888 0.0
H868 H 0.81311 0.3654 0.34631 0.0
H869 H 0.71034 0.20836 0.41296 0.0
H870 H 0.68843 0.23891 0.37071 0.0
H871 H 0.72611 0.20799 0.35344 0.0
H872 H 0.65571 0.29983 0.25118 0.0
H873 H 0.75039 0.22972 0.21186 0.0
H874 H 0.70218 0.3459 0.34712 0.0
H875 H 0.67304 0.30664 0.36563 0.0
H876 H 0.6567 0.33705 0.31956 0.0
H877 H 0.81482 0.26093 0.29877 0.0
H878 H 0.80502 0.22376 0.25698 0.0
H879 H 0.79037 0.2184 0.31657 0.0
C880 C 0.25655 0.30331 0.66093 0.0
C881 C 0.28842 0.31586 0.68617 0.0
C882 C 0.26073 0.28555 0.61777 0.0
C883 C 0.29779 0.27965 0.59981 0.0
C884 C 0.33005 0.29386 0.62409 0.0
C885 C 0.32494 0.31215 0.66706 0.0
C886 C 0.22551 0.27168 0.59236 0.0
C887 C 0.36995 0.28797 0.60593 0.0
C888 C 0.29927 0.19568 0.5172 0.0
C889 C 0.29511 0.21401 0.47434 0.0
C890 C 0.30292 0.21689 0.55837 0.0
C891 C 0.30222 0.25725 0.55647 0.0
C892 C 0.30069 0.27587 0.51311 0.0
C893 C 0.29729 0.25405 0.47258 0.0
C894 C 0.30501 0.19609 0.60412 0.0
C895 C 0.29981 0.31883 0.50963 0.0
H896 H 0.22827 0.30642 0.6757 0.0
H897 H 0.3496 0.32151 0.68688 0.0
H898 H 0.22543 0.28275 0.5563 0.0
H899 H 0.22556 0.24008 0.59021 0.0
H900 H 0.19877 0.28062 0.60979 0.0
H901 H 0.3916 0.30409 0.6264 0.0
H902 H 0.37688 0.2572 0.60739 0.0
H903 H 0.37205 0.29685 0.56906 0.0
H904 H 0.29795 0.16482 0.51892 0.0
H905 H 0.29466 0.26861 0.4396 0.0
H906 H 0.27775 0.19954 0.6232 0.0
H907 H 0.32803 0.20838 0.62609 0.0
H908 H 0.31019 0.16512 0.5994 0.0
H909 H 0.27179 0.32916 0.52208 0.0
H910 H 0.30406 0.32888 0.47342 0.0
H911 H 0.32207 0.33203 0.53197 0.0
C912 C 0.23901 0.69611 0.26434 0.0
C913 C 0.27893 0.69272 0.26383 0.0
C914 C 0.21884 0.69833 0.30615 0.0
C915 C 0.23897 0.69655 0.3485 0.0
C916 C 0.27874 0.68992 0.34839 0.0
C917 C 0.29835 0.68823 0.30595 0.0
C918 C 0.17646 0.70559 0.30485 0.0
C919 C 0.30099 0.68717 0.39307 0.0
C920 C 0.20321 0.75307 0.45126 0.0
C921 C 0.18642 0.72448 0.47858 0.0
C922 C 0.21932 0.74443 0.40809 0.0
C923 C 0.21933 0.70611 0.39248 0.0
C924 C 0.20139 0.67728 0.41926 0.0
C925 C 0.18475 0.68691 0.46196 0.0
C926 C 0.23727 0.77615 0.37981 0.0
C927 C 0.20117 0.63612 0.40377 0.0
H928 H 0.22355 0.69919 0.23203 0.0
H929 H 0.32908 0.68527 0.30597 0.0
H930 H 0.16109 0.68674 0.32961 0.0
H931 H 0.17104 0.73548 0.31552 0.0
H932 H 0.16432 0.70113 0.26963 0.0
H933 H 0.33051 0.67703 0.38721 0.0
H934 H 0.30255 0.71566 0.40983 0.0
H935 H 0.28641 0.66753 0.41767 0.0
H936 H 0.2043 0.78217 0.46405 0.0
H937 H 0.17215 0.6647 0.48337 0.0
H938 H 0.22517 0.77628 0.34423 0.0
H939 H 0.26838 0.77139 0.37646 0.0
H940 H 0.23285 0.80467 0.39569 0.0
H941 H 0.18977 0.63355 0.36799 0.0
H942 H 0.18388 0.61759 0.42711 0.0
H943 H 0.23081 0.62538 0.40308 0.0
loop_
_geom_bond_atom_site_label_1
_geom_bond_atom_site_label_2
_geom_bond_distance
_geom_bond_site_symmetry_2
_ccdc_geom_bond_type
Sc0 O3 2.025 . S
Sc0 O10 2.105 . S
Sc0 O13 2.105 . S
Sc0 O16 2.105 . S
Sc0 O19 2.105 . S
Sc1 O3 2.025 . S
Sc1 O11 2.105 . S
Sc1 O15 2.105 . S
Sc1 O17 2.105 . S
Sc1 O21 2.105 . S
Sc2 O3 2.025 . S
Sc2 O12 2.105 . S
Sc2 O14 2.105 . S
Sc2 O18 2.105 . S
Sc2 O20 2.105 . S
O3 Sc0 2.025 . S
O3 Sc1 2.025 . S
O3 Sc2 2.025 . S
C4 O10 1.268 . S
C4 O20 1.268 . S
C5 O11 1.268 . S
C5 O19 1.268 . S
C6 O12 1.268 . S
C6 O21 1.268 . S
C7 O13 1.268 . S
C7 O17 1.268 . S
C8 O14 1.268 . S
C8 O16 1.268 . S
C9 O15 1.268 . S
C9 O18 1.268 . S
O10 Sc0 2.105 . S
O10 C4 1.268 . S
O11 Sc1 2.105 . S
O11 C5 1.268 . S
O12 Sc2 2.105 . S
O12 C6 1.268 . S
O13 Sc0 2.105 . S
O13 C7 1.268 . S
O14 Sc2 2.105 . S
O14 C8 1.268 . S
O15 Sc1 2.105 . S
O15 C9 1.268 . S
O16 Sc0 2.105 . S
O16 C8 1.268 . S
O17 Sc1 2.105 . S
O17 C7 1.268 . S
O18 Sc2 2.105 . S
O18 C9 1.268 . S
O19 Sc0 2.105 . S
O19 C5 1.268 . S
O20 Sc2 2.105 . S
O20 C4 1.268 . S
O21 Sc1 2.105 . S
O21 C6 1.268 . S
Sc22 O25 2.025 . S
Sc22 O32 2.105 . S
Sc22 O35 2.105 . S
Sc22 O38 2.105 . S
Sc22 O41 2.105 . S
Sc23 O25 2.025 . S
Sc23 O33 2.105 . S
Sc23 O37 2.105 . S
Sc23 O39 2.105 . S
Sc23 O43 2.105 . S
Sc24 O25 2.025 . S
Sc24 O34 2.105 . S
Sc24 O36 2.105 . S
Sc24 O40 2.105 . S
Sc24 O42 2.105 . S
O25 Sc22 2.025 . S
O25 Sc23 2.025 . S
O25 Sc24 2.025 . S
C26 O32 1.268 . S
C26 O42 1.268 . S
C27 O33 1.268 . S
C27 O41 1.268 . S
C28 O34 1.268 . S
C28 O43 1.268 . S
C29 O35 1.268 . S
C29 O39 1.268 . S
C30 O36 1.268 . S
C30 O38 1.268 . S
C31 O37 1.268 . S
C31 O40 1.268 . S
O32 Sc22 2.105 . S
O32 C26 1.268 . S
O33 Sc23 2.105 . S
O33 C27 1.268 . S
O34 Sc24 2.105 . S
O34 C28 1.268 . S
O35 Sc22 2.105 . S
O35 C29 1.268 . S
O36 Sc24 2.105 . S
O36 C30 1.268 . S
O37 Sc23 2.105 . S
O37 C31 1.268 . S
O38 Sc22 2.105 . S
O38 C30 1.268 . S
O39 Sc23 2.105 . S
O39 C29 1.268 . S
O40 Sc24 2.105 . S
O40 C31 1.268 . S
O41 Sc22 2.105 . S
O41 C27 1.268 . S
O42 Sc24 2.105 . S
O42 C26 1.268 . S
O43 Sc23 2.105 . S
O43 C28 1.268 . S
Sc44 O47 2.025 . S
Sc44 O54 2.105 . S
Sc44 O57 2.105 . S
Sc44 O60 2.105 . S
Sc44 O63 2.105 . S
Sc45 O47 2.025 . S
Sc45 O55 2.105 . S
Sc45 O59 2.105 . S
Sc45 O61 2.105 . S
Sc45 O65 2.105 . S
Sc46 O47 2.025 . S
Sc46 O56 2.105 . S
Sc46 O58 2.105 . S
Sc46 O62 2.105 . S
Sc46 O64 2.105 . S
O47 Sc44 2.025 . S
O47 Sc45 2.025 . S
O47 Sc46 2.025 . S
C48 O54 1.268 . S
C48 O64 1.268 . S
C49 O55 1.268 . S
C49 O63 1.268 . S
C50 O56 1.268 . S
C50 O65 1.268 . S
C51 O57 1.268 . S
C51 O61 1.268 . S
C52 O58 1.268 . S
C52 O60 1.268 . S
C53 O59 1.268 . S
C53 O62 1.268 . S
O54 Sc44 2.105 . S
O54 C48 1.268 . S
O55 Sc45 2.105 . S
O55 C49 1.268 . S
O56 Sc46 2.105 . S
O56 C50 1.268 . S
O57 Sc44 2.105 . S
O57 C51 1.268 . S
O58 Sc46 2.105 . S
O58 C52 1.268 . S
O59 Sc45 2.105 . S
O59 C53 1.268 . S
O60 Sc44 2.105 . S
O60 C52 1.268 . S
O61 Sc45 2.105 . S
O61 C51 1.268 . S
O62 Sc46 2.105 . S
O62 C53 1.268 . S
O63 Sc44 2.105 . S
O63 C49 1.268 . S
O64 Sc46 2.105 . S
O64 C48 1.268 . S
O65 Sc45 2.105 . S
O65 C50 1.268 . S
Sc66 O69 2.025 . S
Sc66 O76 2.105 . S
Sc66 O79 2.105 . S
Sc66 O82 2.105 . S
Sc66 O85 2.105 . S
Sc67 O69 2.025 . S
Sc67 O77 2.105 . S
Sc67 O81 2.105 . S
Sc67 O83 2.105 . S
Sc67 O87 2.105 . S
Sc68 O69 2.025 . S
Sc68 O78 2.105 . S
Sc68 O80 2.105 . S
Sc68 O84 2.105 . S
Sc68 O86 2.105 . S
O69 Sc66 2.025 . S
O69 Sc67 2.025 . S
O69 Sc68 2.025 . S
C70 O76 1.268 . S
C70 O86 1.268 . S
C71 O77 1.268 . S
C71 O85 1.268 . S
C72 O78 1.268 . S
C72 O87 1.268 . S
C73 O79 1.268 . S
C73 O83 1.268 . S
C74 O80 1.268 . S
C74 O82 1.268 . S
C75 O81 1.268 . S
C75 O84 1.268 . S
O76 Sc66 2.105 . S
O76 C70 1.268 . S
O77 Sc67 2.105 . S
O77 C71 1.268 . S
O78 Sc68 2.105 . S
O78 C72 1.268 . S
O79 Sc66 2.105 . S
O79 C73 1.268 . S
O80 Sc68 2.105 . S
O80 C74 1.268 . S
O81 Sc67 2.105 . S
O81 C75 1.268 . S
O82 Sc66 2.105 . S
O82 C74 1.268 . S
O83 Sc67 2.105 . S
O83 C73 1.268 . S
O84 Sc68 2.105 . S
O84 C75 1.268 . S
O85 Sc66 2.105 . S
O85 C71 1.268 . S
O86 Sc68 2.105 . S
O86 C70 1.268 . S
O87 Sc67 2.105 . S
O87 C72 1.268 . S
Sc88 O91 2.025 . S
Sc88 O98 2.105 . S
Sc88 O101 2.105 . S
Sc88 O104 2.105 . S
Sc88 O107 2.105 . S
Sc89 O91 2.025 . S
Sc89 O99 2.105 . S
Sc89 O103 2.105 . S
Sc89 O105 2.105 . S
Sc89 O109 2.105 . S
Sc90 O91 2.025 . S
Sc90 O100 2.105 . S
Sc90 O102 2.105 . S
Sc90 O106 2.105 . S
Sc90 O108 2.105 . S
O91 Sc88 2.025 . S
O91 Sc89 2.025 . S
O91 Sc90 2.025 . S
C92 O98 1.268 . S
C92 O108 1.268 . S
C93 O99 1.268 . S
C93 O107 1.268 . S
C94 O100 1.268 . S
C94 O109 1.268 . S
C95 O101 1.268 . S
C95 O105 1.268 . S
C96 O102 1.268 . S
C96 O104 1.268 . S
C97 O103 1.268 . S
C97 O106 1.268 . S
O98 Sc88 2.105 . S
O98 C92 1.268 . S
O99 Sc89 2.105 . S
O99 C93 1.268 . S
O100 Sc90 2.105 . S
O100 C94 1.268 . S
O101 Sc88 2.105 . S
O101 C95 1.268 . S
O102 Sc90 2.105 . S
O102 C96 1.268 . S
O103 Sc89 2.105 . S
O103 C97 1.268 . S
O104 Sc88 2.105 . S
O104 C96 1.268 . S
O105 Sc89 2.105 . S
O105 C95 1.268 . S
O106 Sc90 2.105 . S
O106 C97 1.268 . S
O107 Sc88 2.105 . S
O107 C93 1.268 . S
O108 Sc90 2.105 . S
O108 C92 1.268 . S
O109 Sc89 2.105 . S
O109 C94 1.268 . S
Sc110 O113 2.025 . S
Sc110 O120 2.105 . S
Sc110 O123 2.105 . S
Sc110 O126 2.105 . S
Sc110 O129 2.105 . S
Sc111 O113 2.025 . S
Sc111 O121 2.105 . S
Sc111 O125 2.105 . S
Sc111 O127 2.105 . S
Sc111 O131 2.105 . S
Sc112 O113 2.025 . S
Sc112 O122 2.105 . S
Sc112 O124 2.105 . S
Sc112 O128 2.105 . S
Sc112 O130 2.105 . S
O113 Sc110 2.025 . S
O113 Sc111 2.025 . S
O113 Sc112 2.025 . S
C114 O120 1.268 . S
C114 O130 1.268 . S
C115 O121 1.268 . S
C115 O129 1.268 . S
C116 O122 1.268 . S
C116 O131 1.268 . S
C117 O123 1.268 . S
C117 O127 1.268 . S
C118 O124 1.268 . S
C118 O126 1.268 . S
C119 O125 1.268 . S
C119 O128 1.268 . S
O120 Sc110 2.105 . S
O120 C114 1.268 . S
O121 Sc111 2.105 . S
O121 C115 1.268 . S
O122 Sc112 2.105 . S
O122 C116 1.268 . S
O123 Sc110 2.105 . S
O123 C117 1.268 . S
O124 Sc112 2.105 . S
O124 C118 1.268 . S
O125 Sc111 2.105 . S
O125 C119 1.268 . S
O126 Sc110 2.105 . S
O126 C118 1.268 . S
O127 Sc111 2.105 . S
O127 C117 1.268 . S
O128 Sc112 2.105 . S
O128 C119 1.268 . S
O129 Sc110 2.105 . S
O129 C115 1.268 . S
O130 Sc112 2.105 . S
O130 C114 1.268 . S
O131 Sc111 2.105 . S
O131 C116 1.268 . S
Sc132 O135 2.025 . S
Sc132 O142 2.105 . S
Sc132 O145 2.105 . S
Sc132 O148 2.105 . S
Sc132 O151 2.105 . S
Sc133 O135 2.025 . S
Sc133 O143 2.105 . S
Sc133 O147 2.105 . S
Sc133 O149 2.105 . S
Sc133 O153 2.105 . S
Sc134 O135 2.025 . S
Sc134 O144 2.105 . S
Sc134 O146 2.105 . S
Sc134 O150 2.105 . S
Sc134 O152 2.105 . S
O135 Sc132 2.025 . S
O135 Sc133 2.025 . S
O135 Sc134 2.025 . S
C136 O142 1.268 . S
C136 O152 1.268 . S
C137 O143 1.268 . S
C137 O151 1.268 . S
C138 O144 1.268 . S
C138 O153 1.268 . S
C139 O145 1.268 . S
C139 O149 1.268 . S
C140 O146 1.268 . S
C140 O148 1.268 . S
C141 O147 1.268 . S
C141 O150 1.268 . S
O142 Sc132 2.105 . S
O142 C136 1.268 . S
O143 Sc133 2.105 . S
O143 C137 1.268 . S
O144 Sc134 2.105 . S
O144 C138 1.268 . S
O145 Sc132 2.105 . S
O145 C139 1.268 . S
O146 Sc134 2.105 . S
O146 C140 1.268 . S
O147 Sc133 2.105 . S
O147 C141 1.268 . S
O148 Sc132 2.105 . S
O148 C140 1.268 . S
O149 Sc133 2.105 . S
O149 C139 1.268 . S
O150 Sc134 2.105 . S
O150 C141 1.268 . S
O151 Sc132 2.105 . S
O151 C137 1.268 . S
O152 Sc134 2.105 . S
O152 C136 1.268 . S
O153 Sc133 2.105 . S
O153 C138 1.268 . S
Sc154 O157 2.025 . S
Sc154 O164 2.105 . S
Sc154 O167 2.105 . S
Sc154 O170 2.105 . S
Sc154 O173 2.105 . S
Sc155 O157 2.025 . S
Sc155 O165 2.105 . S
Sc155 O169 2.105 . S
Sc155 O171 2.105 . S
Sc155 O175 2.105 . S
Sc156 O157 2.025 . S
Sc156 O166 2.105 . S
Sc156 O168 2.105 . S
Sc156 O172 2.105 . S
Sc156 O174 2.105 . S
O157 Sc154 2.025 . S
O157 Sc155 2.025 . S
O157 Sc156 2.025 . S
C158 O164 1.268 . S
C158 O174 1.268 . S
C159 O165 1.268 . S
C159 O173 1.268 . S
C160 O166 1.268 . S
C160 O175 1.268 . S
C161 O167 1.268 . S
C161 O171 1.268 . S
C162 O168 1.268 . S
C162 O170 1.268 . S
C163 O169 1.268 . S
C163 O172 1.268 . S
O164 Sc154 2.105 . S
O164 C158 1.268 . S
O165 Sc155 2.105 . S
O165 C159 1.268 . S
O166 Sc156 2.105 . S
O166 C160 1.268 . S
O167 Sc154 2.105 . S
O167 C161 1.268 . S
O168 Sc156 2.105 . S
O168 C162 1.268 . S
O169 Sc155 2.105 . S
O169 C163 1.268 . S
O170 Sc154 2.105 . S
O170 C162 1.268 . S
O171 Sc155 2.105 . S
O171 C161 1.268 . S
O172 Sc156 2.105 . S
O172 C163 1.268 . S
O173 Sc154 2.105 . S
O173 C159 1.268 . S
O174 Sc156 2.105 . S
O174 C158 1.268 . S
O175 Sc155 2.105 . S
O175 C160 1.268 . S
C176 C177 1.391 . S
C176 C178 1.394 1_545 S
C176 H192 0.931 . S
C177 C176 1.391 . S
C177 C181 1.376 . S
C178 C176 1.394 1_565 S
C178 C179 1.369 . S
C178 C182 1.531 . S
C179 C178 1.369 . S
C179 C180 1.410 . S
C179 C187 1.503 . S
C180 C179 1.410 . S
C180 C181 1.392 1_565 S
C180 C183 1.511 . S
C181 C177 1.376 . S
C181 C180 1.392 1_545 S
C181 H193 0.929 . S
C182 C178 1.531 . S
C182 H194 0.960 . S
C182 H195 0.962 . S
C182 H196 0.960 . S
C183 C180 1.511 . S
C183 H197 0.961 . S
C183 H198 0.961 . S
C183 H199 0.961 . S
C184 C185 1.370 . S
C184 C186 1.363 . S
C184 H200 0.931 . S
C185 C184 1.370 . S
C185 C189 1.408 . S
C186 C184 1.363 . S
C186 C187 1.370 . S
C186 C190 1.524 . S
C187 C179 1.503 . S
C187 C186 1.370 . S
C187 C188 1.403 . S
C188 C187 1.403 . S
C188 C189 1.404 . S
C188 C191 1.539 . S
C189 C185 1.408 . S
C189 C188 1.404 . S
C189 H201 0.930 . S
C190 C186 1.524 . S
C190 H202 0.956 . S
C190 H203 0.961 . S
C190 H204 0.961 . S
C191 C188 1.539 . S
C191 H205 0.958 . S
C191 H206 0.961 . S
C191 H207 0.960 . S
H192 C176 0.931 . S
H193 C181 0.929 . S
H194 C182 0.960 . S
H195 C182 0.962 . S
H196 C182 0.960 . S
H197 C183 0.961 . S
H198 C183 0.961 . S
H199 C183 0.961 . S
H200 C184 0.931 . S
H201 C189 0.930 . S
H202 C190 0.956 . S
H203 C190 0.961 . S
H204 C190 0.961 . S
H205 C191 0.958 . S
H206 C191 0.961 . S
H207 C191 0.960 . S
C208 C209 1.391 . S
C208 C210 1.394 1_455 S
C208 H224 0.931 . S
C209 C208 1.391 . S
C209 C213 1.376 . S
C210 C208 1.394 1_655 S
C210 C211 1.369 . S
C210 C214 1.531 . S
C211 C210 1.369 . S
C211 C212 1.410 . S
C211 C219 1.503 . S
C212 C211 1.410 . S
C212 C213 1.392 1_655 S
C212 C215 1.511 . S
C213 C209 1.376 . S
C213 C212 1.392 1_455 S
C213 H225 0.929 . S
C214 C210 1.531 . S
C214 H226 0.960 . S
C214 H227 0.962 . S
C214 H228 0.960 1_655 S
C215 C212 1.511 . S
C215 H229 0.961 . S
C215 H230 0.961 . S
C215 H231 0.961 . S
C216 C217 1.370 . S
C216 C218 1.363 . S
C216 H232 0.931 . S
C217 C216 1.370 . S
C217 C221 1.408 . S
C218 C216 1.363 . S
C218 C219 1.370 . S
C218 C222 1.524 . S
C219 C211 1.503 . S
C219 C218 1.370 . S
C219 C220 1.403 . S
C220 C219 1.403 . S
C220 C221 1.404 . S
C220 C223 1.539 . S
C221 C217 1.408 . S
C221 C220 1.404 . S
C221 H233 0.930 . S
C222 C218 1.524 . S
C222 H234 0.956 . S
C222 H235 0.961 . S
C222 H236 0.961 . S
C223 C220 1.539 . S
C223 H237 0.958 . S
C223 H238 0.961 . S
C223 H239 0.960 . S
H224 C208 0.931 . S
H225 C213 0.929 . S
H226 C214 0.960 . S
H227 C214 0.962 . S
H228 C214 0.960 1_455 S
H229 C215 0.961 . S
H230 C215 0.961 . S
H231 C215 0.961 . S
H232 C216 0.931 . S
H233 C221 0.930 . S
H234 C222 0.956 . S
H235 C222 0.961 . S
H236 C222 0.961 . S
H237 C223 0.958 . S
H238 C223 0.961 . S
H239 C223 0.960 . S
C240 C241 1.391 . S
C240 C242 1.394 1_565 S
C240 H256 0.931 . S
C241 C240 1.391 . S
C241 C245 1.376 . S
C242 C240 1.394 1_545 S
C242 C243 1.369 . S
C242 C246 1.531 . S
C243 C242 1.369 . S
C243 C244 1.410 . S
C243 C251 1.503 . S
C244 C243 1.410 . S
C244 C245 1.392 1_545 S
C244 C247 1.511 . S
C245 C241 1.376 . S
C245 C244 1.392 1_565 S
C245 H257 0.929 . S
C246 C242 1.531 . S
C246 H258 0.960 . S
C246 H259 0.962 . S
C246 H260 0.960 1_545 S
C247 C244 1.511 . S
C247 H261 0.961 . S
C247 H262 0.961 . S
C247 H263 0.961 . S
C248 C249 1.370 . S
C248 C250 1.363 . S
C248 H264 0.931 . S
C249 C248 1.370 . S
C249 C253 1.408 . S
C250 C248 1.363 . S
C250 C251 1.370 . S
C250 C254 1.524 . S
C251 C243 1.503 . S
C251 C250 1.370 . S
C251 C252 1.403 . S
C252 C251 1.403 . S
C252 C253 1.404 . S
C252 C255 1.539 . S
C253 C249 1.408 . S
C253 C252 1.404 . S
C253 H265 0.930 . S
C254 C250 1.524 . S
C254 H266 0.956 . S
C254 H267 0.961 . S
C254 H268 0.961 . S
C255 C252 1.539 . S
C255 H269 0.958 . S
C255 H270 0.961 . S
C255 H271 0.960 . S
H256 C240 0.931 . S
H257 C245 0.929 . S
H258 C246 0.960 . S
H259 C246 0.962 . S
H260 C246 0.960 1_565 S
H261 C247 0.961 . S
H262 C247 0.961 . S
H263 C247 0.961 . S
H264 C248 0.931 . S
H265 C253 0.930 . S
H266 C254 0.956 . S
H267 C254 0.961 . S
H268 C254 0.961 . S
H269 C255 0.958 . S
H270 C255 0.961 . S
H271 C255 0.960 . S
C272 C273 1.391 . S
C272 C274 1.394 . S
C272 H288 0.931 . S
C273 C272 1.391 . S
C273 C277 1.376 . S
C274 C272 1.394 . S
C274 C275 1.369 . S
C274 C278 1.531 . S
C275 C274 1.369 . S
C275 C276 1.410 . S
C275 C283 1.503 . S
C276 C275 1.410 . S
C276 C277 1.392 . S
C276 C279 1.511 . S
C277 C273 1.376 . S
C277 C276 1.392 . S
C277 H289 0.929 . S
C278 C274 1.531 . S
C278 H290 0.960 . S
C278 H291 0.962 . S
C278 H292 0.960 . S
C279 C276 1.511 . S
C279 H293 0.961 . S
C279 H294 0.961 . S
C279 H295 0.961 . S
C280 C281 1.370 . S
C280 C282 1.363 1_655 S
C280 H296 0.931 . S
C281 C280 1.370 . S
C281 C285 1.408 . S
C282 C280 1.363 1_455 S
C282 C283 1.370 . S
C282 C286 1.524 . S
C283 C275 1.503 . S
C283 C282 1.370 . S
C283 C284 1.403 . S
C284 C283 1.403 . S
C284 C285 1.404 1_455 S
C284 C287 1.539 . S
C285 C281 1.408 . S
C285 C284 1.404 1_655 S
C285 H297 0.930 . S
C286 C282 1.524 . S
C286 H298 0.956 . S
C286 H299 0.961 . S
C286 H300 0.961 . S
C287 C284 1.539 . S
C287 H301 0.958 . S
C287 H302 0.961 . S
C287 H303 0.960 . S
H288 C272 0.931 . S
H289 C277 0.929 . S
H290 C278 0.960 . S
H291 C278 0.962 . S
H292 C278 0.960 . S
H293 C279 0.961 . S
H294 C279 0.961 . S
H295 C279 0.961 . S
H296 C280 0.931 . S
H297 C285 0.930 . S
H298 C286 0.956 . S
H299 C286 0.961 . S
H300 C286 0.961 . S
H301 C287 0.958 . S
H302 C287 0.961 . S
H303 C287 0.960 . S
C304 C305 1.391 . S
C304 C306 1.394 . S
C304 H320 0.931 . S
C305 C304 1.391 . S
C305 C309 1.376 . S
C306 C304 1.394 . S
C306 C307 1.369 . S
C306 C310 1.531 1_554 S
C307 C306 1.369 . S
C307 C308 1.410 . S
C307 C315 1.503 . S
C308 C307 1.410 . S
C308 C309 1.392 . S
C308 C311 1.511 . S
C309 C305 1.376 . S
C309 C308 1.392 . S
C309 H321 0.929 . S
C310 C306 1.531 1_556 S
C310 H322 0.960 . S
C310 H323 0.962 . S
C310 H324 0.960 . S
C311 C308 1.511 . S
C311 H325 0.961 . S
C311 H326 0.961 . S
C311 H327 0.961 . S
C312 C313 1.370 1_554 S
C312 C314 1.363 . S
C312 H328 0.931 . S
C313 C312 1.370 1_556 S
C313 C317 1.408 . S
C314 C312 1.363 . S
C314 C315 1.370 . S
C314 C318 1.524 . S
C315 C307 1.503 . S
C315 C314 1.370 . S
C315 C316 1.403 1_554 S
C316 C315 1.403 1_556 S
C316 C317 1.404 . S
C316 C319 1.539 . S
C317 C313 1.408 . S
C317 C316 1.404 . S
C317 H329 0.930 . S
C318 C314 1.524 . S
C318 H330 0.956 . S
C318 H331 0.961 . S
C318 H332 0.961 . S
C319 C316 1.539 . S
C319 H333 0.958 . S
C319 H334 0.961 . S
C319 H335 0.960 . S
H320 C304 0.931 . S
H321 C309 0.929 . S
H322 C310 0.960 . S
H323 C310 0.962 . S
H324 C310 0.960 . S
H325 C311 0.961 . S
H326 C311 0.961 . S
H327 C311 0.961 . S
H328 C312 0.931 . S
H329 C317 0.930 . S
H330 C318 0.956 . S
H331 C318 0.961 . S
H332 C318 0.961 . S
H333 C319 0.958 . S
H334 C319 0.961 . S
H335 C319 0.960 . S
C336 C337 1.391 . S
C336 C338 1.394 . S
C336 H352 0.931 . S
C337 C336 1.391 . S
C337 C341 1.376 . S
C338 C336 1.394 . S
C338 C339 1.369 . S
C338 C342 1.531 1_556 S
C339 C338 1.369 . S
C339 C340 1.410 . S
C339 C347 1.503 . S
C340 C339 1.410 . S
C340 C341 1.392 . S
C340 C343 1.511 . S
C341 C337 1.376 . S
C341 C340 1.392 . S
C341 H353 0.929 . S
C342 C338 1.531 1_554 S
C342 H354 0.960 . S
C342 H355 0.962 1_554 S
C342 H356 0.960 . S
C343 C340 1.511 . S
C343 H357 0.961 . S
C343 H358 0.961 . S
C343 H359 0.961 . S
C344 C345 1.370 1_556 S
C344 C346 1.363 . S
C344 H360 0.931 . S
C345 C344 1.370 1_554 S
C345 C349 1.408 . S
C346 C344 1.363 . S
C346 C347 1.370 . S
C346 C350 1.524 . S
C347 C339 1.503 . S
C347 C346 1.370 . S
C347 C348 1.403 1_556 S
C348 C347 1.403 1_554 S
C348 C349 1.404 . S
C348 C351 1.539 . S
C349 C345 1.408 . S
C349 C348 1.404 . S
C349 H361 0.930 . S
C350 C346 1.524 . S
C350 H362 0.956 . S
C350 H363 0.961 . S
C350 H364 0.961 . S
C351 C348 1.539 . S
C351 H365 0.958 . S
C351 H366 0.961 . S
C351 H367 0.960 . S
H352 C336 0.931 . S
H353 C341 0.929 . S
H354 C342 0.960 . S
H355 C342 0.962 1_556 S
H356 C342 0.960 . S
H357 C343 0.961 . S
H358 C343 0.961 . S
H359 C343 0.961 . S
H360 C344 0.931 . S
H361 C349 0.930 . S
H362 C350 0.956 . S
H363 C350 0.961 . S
H364 C350 0.961 . S
H365 C351 0.958 . S
H366 C351 0.961 . S
H367 C351 0.960 . S
C368 C369 1.391 . S
C368 C370 1.394 . S
C368 H384 0.931 . S
C369 C368 1.391 . S
C369 C373 1.376 . S
C370 C368 1.394 . S
C370 C371 1.369 . S
C370 C374 1.531 1_554 S
C371 C370 1.369 . S
C371 C372 1.410 . S
C371 C379 1.503 . S
C372 C371 1.410 . S
C372 C373 1.392 . S
C372 C375 1.511 . S
C373 C369 1.376 . S
C373 C372 1.392 . S
C373 H385 0.929 . S
C374 C370 1.531 1_556 S
C374 H386 0.960 . S
C374 H387 0.962 . S
C374 H388 0.960 . S
C375 C372 1.511 . S
C375 H389 0.961 . S
C375 H390 0.961 . S
C375 H391 0.961 . S
C376 C377 1.370 . S
C376 C378 1.363 1_556 S
C376 H392 0.931 1_556 S
C377 C376 1.370 . S
C377 C381 1.408 . S
C378 C376 1.363 1_554 S
C378 C379 1.370 . S
C378 C382 1.524 . S
C379 C371 1.503 . S
C379 C378 1.370 . S
C379 C380 1.403 1_554 S
C380 C379 1.403 1_556 S
C380 C381 1.404 . S
C380 C383 1.539 . S
C381 C377 1.408 . S
C381 C380 1.404 . S
C381 H393 0.930 . S
C382 C378 1.524 . S
C382 H394 0.956 . S
C382 H395 0.961 . S
C382 H396 0.961 . S
C383 C380 1.539 . S
C383 H397 0.958 . S
C383 H398 0.961 . S
C383 H399 0.960 . S
H384 C368 0.931 . S
H385 C373 0.929 . S
H386 C374 0.960 . S
H387 C374 0.962 . S
H388 C374 0.960 . S
H389 C375 0.961 . S
H390 C375 0.961 . S
H391 C375 0.961 . S
H392 C376 0.931 1_554 S
H393 C381 0.930 . S
H394 C382 0.956 . S
H395 C382 0.961 . S
H396 C382 0.961 . S
H397 C383 0.958 . S
H398 C383 0.961 . S
H399 C383 0.960 . S
C400 C401 1.391 . S
C400 C402 1.394 1_554 S
C400 H416 0.931 . S
C401 C400 1.391 . S
C401 C405 1.376 . S
C402 C400 1.394 1_556 S
C402 C403 1.369 . S
C402 C406 1.531 . S
C403 C402 1.369 . S
C403 C404 1.410 1_556 S
C403 C411 1.503 . S
C404 C403 1.410 1_554 S
C404 C405 1.392 . S
C404 C407 1.511 . S
C405 C401 1.376 . S
C405 C404 1.392 . S
C405 H417 0.929 . S
C406 C402 1.531 . S
C406 H418 0.960 . S
C406 H419 0.962 . S
C406 H420 0.960 . S
C407 C404 1.511 . S
C407 H421 0.961 . S
C407 H422 0.961 . S
C407 H423 0.961 . S
C408 C409 1.370 . S
C408 C410 1.363 . S
C408 H424 0.931 . S
C409 C408 1.370 . S
C409 C413 1.408 . S
C410 C408 1.363 . S
C410 C411 1.370 . S
C410 C414 1.524 . S
C411 C403 1.503 . S
C411 C410 1.370 . S
C411 C412 1.403 . S
C412 C411 1.403 . S
C412 C413 1.404 . S
C412 C415 1.539 1_556 S
C413 C409 1.408 . S
C413 C412 1.404 . S
C413 H425 0.930 . S
C414 C410 1.524 . S
C414 H426 0.956 . S
C414 H427 0.961 . S
C414 H428 0.961 . S
C415 C412 1.539 1_554 S
C415 H429 0.958 . S
C415 H430 0.961 . S
C415 H431 0.960 . S
H416 C400 0.931 . S
H417 C405 0.929 . S
H418 C406 0.960 . S
H419 C406 0.962 . S
H420 C406 0.960 . S
H421 C407 0.961 . S
H422 C407 0.961 . S
H423 C407 0.961 . S
H424 C408 0.931 . S
H425 C413 0.930 . S
H426 C414 0.956 . S
H427 C414 0.961 . S
H428 C414 0.961 . S
H429 C415 0.958 . S
H430 C415 0.961 . S
H431 C415 0.960 . S
C432 C433 1.391 . S
C432 C434 1.394 . S
C432 H448 0.931 . S
C433 C432 1.391 . S
C433 C437 1.376 . S
C434 C432 1.394 . S
C434 C435 1.369 . S
C434 C438 1.531 . S
C435 C434 1.369 . S
C435 C436 1.410 . S
C435 C443 1.503 . S
C436 C435 1.410 . S
C436 C437 1.392 . S
C436 C439 1.511 . S
C437 C433 1.376 . S
C437 C436 1.392 . S
C437 H449 0.929 . S
C438 C434 1.531 . S
C438 H450 0.960 . S
C438 H451 0.962 . S
C438 H452 0.960 . S
C439 C436 1.511 . S
C439 H453 0.961 . S
C439 H454 0.961 . S
C439 H455 0.961 . S
C440 C441 1.370 . S
C440 C442 1.363 . S
C440 H456 0.931 . S
C441 C440 1.370 . S
C441 C445 1.408 . S
C442 C440 1.363 . S
C442 C443 1.370 . S
C442 C446 1.524 . S
C443 C435 1.503 . S
C443 C442 1.370 . S
C443 C444 1.403 . S
C444 C443 1.403 . S
C444 C445 1.404 . S
C444 C447 1.539 . S
C445 C441 1.408 . S
C445 C444 1.404 . S
C445 H457 0.930 . S
C446 C442 1.524 . S
C446 H458 0.956 . S
C446 H459 0.961 . S
C446 H460 0.961 . S
C447 C444 1.539 . S
C447 H461 0.958 . S
C447 H462 0.961 . S
C447 H463 0.960 . S
H448 C432 0.931 . S
H449 C437 0.929 . S
H450 C438 0.960 . S
H451 C438 0.962 . S
H452 C438 0.960 . S
H453 C439 0.961 . S
H454 C439 0.961 . S
H455 C439 0.961 . S
H456 C440 0.931 . S
H457 C445 0.930 . S
H458 C446 0.956 . S
H459 C446 0.961 . S
H460 C446 0.961 . S
H461 C447 0.958 . S
H462 C447 0.961 . S
H463 C447 0.960 . S
C464 C465 1.391 . S
C464 C466 1.394 . S
C464 H480 0.931 . S
C465 C464 1.391 . S
C465 C469 1.376 . S
C466 C464 1.394 . S
C466 C467 1.369 . S
C466 C470 1.531 . S
C467 C466 1.369 . S
C467 C468 1.410 . S
C467 C475 1.503 . S
C468 C467 1.410 . S
C468 C469 1.392 . S
C468 C471 1.511 . S
C469 C465 1.376 . S
C469 C468 1.392 . S
C469 H481 0.929 . S
C470 C466 1.531 . S
C470 H482 0.960 . S
C470 H483 0.962 . S
C470 H484 0.960 . S
C471 C468 1.511 . S
C471 H485 0.961 . S
C471 H486 0.961 . S
C471 H487 0.961 . S
C472 C473 1.370 . S
C472 C474 1.363 . S
C472 H488 0.931 . S
C473 C472 1.370 . S
C473 C477 1.408 . S
C474 C472 1.363 . S
C474 C475 1.370 . S
C474 C478 1.524 . S
C475 C467 1.503 . S
C475 C474 1.370 . S
C475 C476 1.403 . S
C476 C475 1.403 . S
C476 C477 1.404 . S
C476 C479 1.539 . S
C477 C473 1.408 . S
C477 C476 1.404 . S
C477 H489 0.930 . S
C478 C474 1.524 . S
C478 H490 0.956 . S
C478 H491 0.961 . S
C478 H492 0.961 . S
C479 C476 1.539 . S
C479 H493 0.958 . S
C479 H494 0.961 . S
C479 H495 0.960 . S
H480 C464 0.931 . S
H481 C469 0.929 . S
H482 C470 0.960 . S
H483 C470 0.962 . S
H484 C470 0.960 . S
H485 C471 0.961 . S
H486 C471 0.961 . S
H487 C471 0.961 . S
H488 C472 0.931 . S
H489 C477 0.930 . S
H490 C478 0.956 . S
H491 C478 0.961 . S
H492 C478 0.961 . S
H493 C479 0.958 . S
H494 C479 0.961 . S
H495 C479 0.960 . S
C496 C497 1.391 . S
C496 C498 1.394 . S
C496 H512 0.931 . S
C497 C496 1.391 . S
C497 C501 1.376 . S
C498 C496 1.394 . S
C498 C499 1.369 . S
C498 C502 1.531 . S
C499 C498 1.369 . S
C499 C500 1.410 . S
C499 C507 1.503 . S
C500 C499 1.410 . S
C500 C501 1.392 . S
C500 C503 1.511 . S
C501 C497 1.376 . S
C501 C500 1.392 . S
C501 H513 0.929 . S
C502 C498 1.531 . S
C502 H514 0.960 . S
C502 H515 0.962 . S
C502 H516 0.960 . S
C503 C500 1.511 . S
C503 H517 0.961 . S
C503 H518 0.961 . S
C503 H519 0.961 . S
C504 C505 1.370 . S
C504 C506 1.363 . S
C504 H520 0.931 . S
C505 C504 1.370 . S
C505 C509 1.408 . S
C506 C504 1.363 . S
C506 C507 1.370 . S
C506 C510 1.524 . S
C507 C499 1.503 . S
C507 C506 1.370 . S
C507 C508 1.403 . S
C508 C507 1.403 . S
C508 C509 1.404 . S
C508 C511 1.539 . S
C509 C505 1.408 . S
C509 C508 1.404 . S
C509 H521 0.930 . S
C510 C506 1.524 . S
C510 H522 0.956 . S
C510 H523 0.961 . S
C510 H524 0.961 . S
C511 C508 1.539 . S
C511 H525 0.958 . S
C511 H526 0.961 . S
C511 H527 0.960 . S
H512 C496 0.931 . S
H513 C501 0.929 . S
H514 C502 0.960 . S
H515 C502 0.962 . S
H516 C502 0.960 . S
H517 C503 0.961 . S
H518 C503 0.961 . S
H519 C503 0.961 . S
H520 C504 0.931 . S
H521 C509 0.930 . S
H522 C510 0.956 . S
H523 C510 0.961 . S
H524 C510 0.961 . S
H525 C511 0.958 . S
H526 C511 0.961 . S
H527 C511 0.960 . S
C528 C529 1.391 . S
C528 C530 1.394 . S
C528 H544 0.931 . S
C529 C528 1.391 . S
C529 C533 1.376 . S
C530 C528 1.394 . S
C530 C531 1.369 . S
C530 C534 1.531 . S
C531 C530 1.369 . S
C531 C532 1.410 . S
C531 C539 1.503 . S
C532 C531 1.410 . S
C532 C533 1.392 . S
C532 C535 1.511 . S
C533 C529 1.376 . S
C533 C532 1.392 . S
C533 H545 0.929 . S
C534 C530 1.531 . S
C534 H546 0.960 . S
C534 H547 0.962 . S
C534 H548 0.960 . S
C535 C532 1.511 . S
C535 H549 0.961 . S
C535 H550 0.961 . S
C535 H551 0.961 . S
C536 C537 1.370 . S
C536 C538 1.363 . S
C536 H552 0.931 . S
C537 C536 1.370 . S
C537 C541 1.408 . S
C538 C536 1.363 . S
C538 C539 1.370 . S
C538 C542 1.524 . S
C539 C531 1.503 . S
C539 C538 1.370 . S
C539 C540 1.403 . S
C540 C539 1.403 . S
C540 C541 1.404 . S
C540 C543 1.539 . S
C541 C537 1.408 . S
C541 C540 1.404 . S
C541 H553 0.930 . S
C542 C538 1.524 . S
C542 H554 0.956 . S
C542 H555 0.961 . S
C542 H556 0.961 . S
C543 C540 1.539 . S
C543 H557 0.958 . S
C543 H558 0.961 . S
C543 H559 0.960 . S
H544 C528 0.931 . S
H545 C533 0.929 . S
H546 C534 0.960 . S
H547 C534 0.962 . S
H548 C534 0.960 . S
H549 C535 0.961 . S
H550 C535 0.961 . S
H551 C535 0.961 . S
H552 C536 0.931 . S
H553 C541 0.930 . S
H554 C542 0.956 . S
H555 C542 0.961 . S
H556 C542 0.961 . S
H557 C543 0.958 . S
H558 C543 0.961 . S
H559 C543 0.960 . S
C560 C561 1.391 . S
C560 C562 1.394 . S
C560 H576 0.931 . S
C561 C560 1.391 . S
C561 C565 1.376 . S
C562 C560 1.394 . S
C562 C563 1.369 . S
C562 C566 1.531 . S
C563 C562 1.369 . S
C563 C564 1.410 . S
C563 C571 1.503 . S
C564 C563 1.410 . S
C564 C565 1.392 . S
C564 C567 1.511 . S
C565 C561 1.376 . S
C565 C564 1.392 . S
C565 H577 0.929 . S
C566 C562 1.531 . S
C566 H578 0.960 . S
C566 H579 0.962 . S
C566 H580 0.960 . S
C567 C564 1.511 . S
C567 H581 0.961 . S
C567 H582 0.961 . S
C567 H583 0.961 . S
C568 C569 1.370 . S
C568 C570 1.363 1_565 S
C568 H584 0.931 . S
C569 C568 1.370 . S
C569 C573 1.408 . S
C570 C568 1.363 1_545 S
C570 C571 1.370 . S
C570 C574 1.524 . S
C571 C563 1.503 . S
C571 C570 1.370 . S
C571 C572 1.403 . S
C572 C571 1.403 . S
C572 C573 1.404 1_545 S
C572 C575 1.539 . S
C573 C569 1.408 . S
C573 C572 1.404 1_565 S
C573 H585 0.930 . S
C574 C570 1.524 . S
C574 H586 0.956 . S
C574 H587 0.961 . S
C574 H588 0.961 1_545 S
C575 C572 1.539 . S
C575 H589 0.958 . S
C575 H590 0.961 . S
C575 H591 0.960 . S
H576 C560 0.931 . S
H577 C565 0.929 . S
H578 C566 0.960 . S
H579 C566 0.962 . S
H580 C566 0.960 . S
H581 C567 0.961 . S
H582 C567 0.961 . S
H583 C567 0.961 . S
H584 C568 0.931 . S
H585 C573 0.930 . S
H586 C574 0.956 . S
H587 C574 0.961 . S
H588 C574 0.961 1_565 S
H589 C575 0.958 . S
H590 C575 0.961 . S
H591 C575 0.960 . S
C592 C593 1.391 . S
C592 C594 1.394 . S
C592 H608 0.931 . S
C593 C592 1.391 . S
C593 C597 1.376 . S
C594 C592 1.394 . S
C594 C595 1.369 . S
C594 C598 1.531 . S
C595 C594 1.369 . S
C595 C596 1.410 . S
C595 C603 1.503 . S
C596 C595 1.410 . S
C596 C597 1.392 . S
C596 C599 1.511 . S
C597 C593 1.376 . S
C597 C596 1.392 . S
C597 H609 0.929 . S
C598 C594 1.531 . S
C598 H610 0.960 . S
C598 H611 0.962 . S
C598 H612 0.960 . S
C599 C596 1.511 . S
C599 H613 0.961 . S
C599 H614 0.961 . S
C599 H615 0.961 . S
C600 C601 1.370 . S
C600 C602 1.363 1_655 S
C600 H616 0.931 . S
C601 C600 1.370 . S
C601 C605 1.408 . S
C602 C600 1.363 1_455 S
C602 C603 1.370 . S
C602 C606 1.524 . S
C603 C595 1.503 . S
C603 C602 1.370 . S
C603 C604 1.403 . S
C604 C603 1.403 . S
C604 C605 1.404 1_455 S
C604 C607 1.539 . S
C605 C601 1.408 . S
C605 C604 1.404 1_655 S
C605 H617 0.930 . S
C606 C602 1.524 . S
C606 H618 0.956 . S
C606 H619 0.961 . S
C606 H620 0.961 . S
C607 C604 1.539 . S
C607 H621 0.958 . S
C607 H622 0.952 1_455 S
C607 H623 0.960 . S
H608 C592 0.931 . S
H609 C597 0.929 . S
H610 C598 0.960 . S
H611 C598 0.962 . S
H612 C598 0.960 . S
H613 C599 0.961 . S
H614 C599 0.961 . S
H615 C599 0.961 . S
H616 C600 0.931 . S
H617 C605 0.930 . S
H618 C606 0.956 . S
H619 C606 0.961 . S
H620 C606 0.961 . S
H621 C607 0.958 . S
H622 C607 0.952 1_655 S
H623 C607 0.960 . S
C624 C625 1.391 . S
C624 C626 1.394 . S
C624 H640 0.931 . S
C625 C624 1.391 . S
C625 C629 1.376 . S
C626 C624 1.394 . S
C626 C627 1.369 . S
C626 C630 1.531 . S
C627 C626 1.369 . S
C627 C628 1.410 . S
C627 C635 1.503 . S
C628 C627 1.410 . S
C628 C629 1.392 . S
C628 C631 1.511 . S
C629 C625 1.376 . S
C629 C628 1.392 . S
C629 H641 0.929 . S
C630 C626 1.531 . S
C630 H642 0.960 . S
C630 H643 0.962 . S
C630 H644 0.960 . S
C631 C628 1.511 . S
C631 H645 0.961 . S
C631 H646 0.961 . S
C631 H647 0.961 . S
C632 C633 1.370 . S
C632 C634 1.363 1_545 S
C632 H648 0.931 . S
C633 C632 1.370 . S
C633 C637 1.408 . S
C634 C632 1.363 1_565 S
C634 C635 1.370 . S
C634 C638 1.524 . S
C635 C627 1.503 . S
C635 C634 1.370 . S
C635 C636 1.403 1_565 S
C636 C635 1.403 1_545 S
C636 C637 1.404 . S
C636 C639 1.539 . S
C637 C633 1.408 . S
C637 C636 1.404 . S
C637 H649 0.930 . S
C638 C634 1.524 . S
C638 H650 0.956 . S
C638 H651 0.961 . S
C638 H652 0.961 . S
C639 C636 1.539 . S
C639 H653 0.958 . S
C639 H654 0.961 . S
C639 H655 0.960 1_545 S
H640 C624 0.931 . S
H641 C629 0.929 . S
H642 C630 0.960 . S
H643 C630 0.962 . S
H644 C630 0.960 . S
H645 C631 0.961 . S
H646 C631 0.961 . S
H647 C631 0.961 . S
H648 C632 0.931 . S
H649 C637 0.930 . S
H650 C638 0.956 . S
H651 C638 0.961 . S
H652 C638 0.961 . S
H653 C639 0.958 . S
H654 C639 0.961 . S
H655 C639 0.960 1_565 S
C656 C657 1.391 . S
C656 C658 1.394 1_455 S
C656 H672 0.931 . S
C657 C656 1.391 . S
C657 C661 1.376 . S
C658 C656 1.394 1_655 S
C658 C659 1.369 . S
C658 C662 1.531 . S
C659 C658 1.369 . S
C659 C660 1.410 1_655 S
C659 C667 1.503 . S
C660 C659 1.410 1_455 S
C660 C661 1.392 . S
C660 C663 1.511 1_455 S
C661 C657 1.376 . S
C661 C660 1.392 . S
C661 H673 0.929 . S
C662 C658 1.531 . S
C662 H674 0.960 . S
C662 H675 0.962 . S
C662 H676 0.960 . S
C663 C660 1.511 1_655 S
C663 H677 0.961 1_655 S
C663 H678 0.961 . S
C663 H679 0.961 1_655 S
C664 C665 1.370 . S
C664 C666 1.363 . S
C664 H680 0.931 . S
C665 C664 1.370 . S
C665 C669 1.408 . S
C666 C664 1.363 . S
C666 C667 1.370 . S
C666 C670 1.524 . S
C667 C659 1.503 . S
C667 C666 1.370 . S
C667 C668 1.403 . S
C668 C667 1.403 . S
C668 C669 1.404 . S
C668 C671 1.539 . S
C669 C665 1.408 . S
C669 C668 1.404 . S
C669 H681 0.930 . S
C670 C666 1.524 . S
C670 H682 0.956 . S
C670 H683 0.961 . S
C670 H684 0.961 . S
C671 C668 1.539 . S
C671 H685 0.958 . S
C671 H686 0.961 . S
C671 H687 0.960 . S
H672 C656 0.931 . S
H673 C661 0.929 . S
H674 C662 0.960 . S
H675 C662 0.962 . S
H676 C662 0.960 . S
H677 C663 0.961 1_455 S
H678 C663 0.961 . S
H679 C663 0.961 1_455 S
H680 C664 0.931 . S
H681 C669 0.930 . S
H682 C670 0.956 . S
H683 C670 0.961 . S
H684 C670 0.961 . S
H685 C671 0.958 . S
H686 C671 0.961 . S
H687 C671 0.960 . S
C688 C689 1.391 . S
C688 C690 1.394 . S
C688 H704 0.931 . S
C689 C688 1.391 . S
C689 C693 1.376 . S
C690 C688 1.394 . S
C690 C691 1.369 . S
C690 C694 1.531 . S
C691 C690 1.369 . S
C691 C692 1.410 . S
C691 C699 1.503 . S
C692 C691 1.410 . S
C692 C693 1.392 . S
C692 C695 1.511 . S
C693 C689 1.376 . S
C693 C692 1.392 . S
C693 H705 0.929 . S
C694 C690 1.531 . S
C694 H706 0.960 . S
C694 H707 0.962 . S
C694 H708 0.960 . S
C695 C692 1.511 . S
C695 H709 0.961 . S
C695 H710 0.961 . S
C695 H711 0.961 . S
C696 C697 1.370 . S
C696 C698 1.363 . S
C696 H712 0.931 . S
C697 C696 1.370 . S
C697 C701 1.408 . S
C698 C696 1.363 . S
C698 C699 1.370 . S
C698 C702 1.524 . S
C699 C691 1.503 . S
C699 C698 1.370 . S
C699 C700 1.403 . S
C700 C699 1.403 . S
C700 C701 1.404 . S
C700 C703 1.539 . S
C701 C697 1.408 . S
C701 C700 1.404 . S
C701 H713 0.930 . S
C702 C698 1.524 . S
C702 H714 0.956 . S
C702 H715 0.961 . S
C702 H716 0.961 . S
C703 C700 1.539 . S
C703 H717 0.958 . S
C703 H718 0.961 . S
C703 H719 0.960 . S
H704 C688 0.931 . S
H705 C693 0.929 . S
H706 C694 0.960 . S
H707 C694 0.962 . S
H708 C694 0.960 . S
H709 C695 0.961 . S
H710 C695 0.961 . S
H711 C695 0.961 . S
H712 C696 0.931 . S
H713 C701 0.930 . S
H714 C702 0.956 . S
H715 C702 0.961 . S
H716 C702 0.961 . S
H717 C703 0.958 . S
H718 C703 0.961 . S
H719 C703 0.960 . S
C720 C721 1.391 . S
C720 C722 1.394 . S
C720 H736 0.931 . S
C721 C720 1.391 . S
C721 C725 1.376 . S
C722 C720 1.394 . S
C722 C723 1.369 . S
C722 C726 1.531 . S
C723 C722 1.369 . S
C723 C724 1.410 . S
C723 C731 1.503 . S
C724 C723 1.410 . S
C724 C725 1.392 . S
C724 C727 1.511 . S
C725 C721 1.376 . S
C725 C724 1.392 . S
C725 H737 0.929 . S
C726 C722 1.531 . S
C726 H738 0.960 . S
C726 H739 0.962 . S
C726 H740 0.960 . S
C727 C724 1.511 . S
C727 H741 0.961 . S
C727 H742 0.961 . S
C727 H743 0.961 . S
C728 C729 1.370 . S
C728 C730 1.363 . S
C728 H744 0.931 . S
C729 C728 1.370 . S
C729 C733 1.408 . S
C730 C728 1.363 . S
C730 C731 1.370 . S
C730 C734 1.524 . S
C731 C723 1.503 . S
C731 C730 1.370 . S
C731 C732 1.403 . S
C732 C731 1.403 . S
C732 C733 1.404 . S
C732 C735 1.539 . S
C733 C729 1.408 . S
C733 C732 1.404 . S
C733 H745 0.930 . S
C734 C730 1.524 . S
C734 H746 0.956 . S
C734 H747 0.961 . S
C734 H748 0.961 . S
C735 C732 1.539 . S
C735 H749 0.958 . S
C735 H750 0.961 . S
C735 H751 0.960 . S
H736 C720 0.931 . S
H737 C725 0.929 . S
H738 C726 0.960 . S
H739 C726 0.962 . S
H740 C726 0.960 . S
H741 C727 0.961 . S
H742 C727 0.961 . S
H743 C727 0.961 . S
H744 C728 0.931 . S
H745 C733 0.930 . S
H746 C734 0.956 . S
H747 C734 0.961 . S
H748 C734 0.961 . S
H749 C735 0.958 . S
H750 C735 0.961 . S
H751 C735 0.960 . S
C752 C753 1.391 . S
C752 C754 1.394 . S
C752 H768 0.931 . S
C753 C752 1.391 . S
C753 C757 1.376 . S
C754 C752 1.394 . S
C754 C755 1.369 . S
C754 C758 1.531 . S
C755 C754 1.369 . S
C755 C756 1.410 . S
C755 C763 1.503 . S
C756 C755 1.410 . S
C756 C757 1.392 . S
C756 C759 1.511 . S
C757 C753 1.376 . S
C757 C756 1.392 . S
C757 H769 0.929 . S
C758 C754 1.531 . S
C758 H770 0.960 . S
C758 H771 0.962 . S
C758 H772 0.960 . S
C759 C756 1.511 . S
C759 H773 0.961 . S
C759 H774 0.961 . S
C759 H775 0.961 . S
C760 C761 1.370 . S
C760 C762 1.363 . S
C760 H776 0.931 . S
C761 C760 1.370 . S
C761 C765 1.408 . S
C762 C760 1.363 . S
C762 C763 1.370 . S
C762 C766 1.524 . S
C763 C755 1.503 . S
C763 C762 1.370 . S
C763 C764 1.403 . S
C764 C763 1.403 . S
C764 C765 1.404 . S
C764 C767 1.539 . S
C765 C761 1.408 . S
C765 C764 1.404 . S
C765 H777 0.930 . S
C766 C762 1.524 . S
C766 H778 0.956 . S
C766 H779 0.961 . S
C766 H780 0.961 . S
C767 C764 1.539 . S
C767 H781 0.958 . S
C767 H782 0.961 . S
C767 H783 0.960 . S
H768 C752 0.931 . S
H769 C757 0.929 . S
H770 C758 0.960 . S
H771 C758 0.962 . S
H772 C758 0.960 . S
H773 C759 0.961 . S
H774 C759 0.961 . S
H775 C759 0.961 . S
H776 C760 0.931 . S
H777 C765 0.930 . S
H778 C766 0.956 . S
H779 C766 0.961 . S
H780 C766 0.961 . S
H781 C767 0.958 . S
H782 C767 0.961 . S
H783 C767 0.960 . S
C784 C785 1.391 . S
C784 C786 1.394 . S
C784 H800 0.931 . S
C785 C784 1.391 . S
C785 C789 1.376 . S
C786 C784 1.394 . S
C786 C787 1.369 . S
C786 C790 1.531 . S
C787 C786 1.369 . S
C787 C788 1.410 . S
C787 C795 1.503 . S
C788 C787 1.410 . S
C788 C789 1.392 . S
C788 C791 1.511 . S
C789 C785 1.376 . S
C789 C788 1.392 . S
C789 H801 0.929 . S
C790 C786 1.531 . S
C790 H802 0.960 . S
C790 H803 0.962 . S
C790 H804 0.960 . S
C791 C788 1.511 . S
C791 H805 0.961 . S
C791 H806 0.961 . S
C791 H807 0.961 . S
C792 C793 1.370 . S
C792 C794 1.363 . S
C792 H808 0.931 . S
C793 C792 1.370 . S
C793 C797 1.408 . S
C794 C792 1.363 . S
C794 C795 1.370 . S
C794 C798 1.524 . S
C795 C787 1.503 . S
C795 C794 1.370 . S
C795 C796 1.403 . S
C796 C795 1.403 . S
C796 C797 1.404 . S
C796 C799 1.539 . S
C797 C793 1.408 . S
C797 C796 1.404 . S
C797 H809 0.930 . S
C798 C794 1.524 . S
C798 H810 0.956 . S
C798 H811 0.961 . S
C798 H812 0.961 . S
C799 C796 1.539 . S
C799 H813 0.958 . S
C799 H814 0.961 . S
C799 H815 0.960 . S
H800 C784 0.931 . S
H801 C789 0.929 . S
H802 C790 0.960 . S
H803 C790 0.962 . S
H804 C790 0.960 . S
H805 C791 0.961 . S
H806 C791 0.961 . S
H807 C791 0.961 . S
H808 C792 0.931 . S
H809 C797 0.930 . S
H810 C798 0.956 . S
H811 C798 0.961 . S
H812 C798 0.961 . S
H813 C799 0.958 . S
H814 C799 0.961 . S
H815 C799 0.960 . S
C816 C817 1.391 . S
C816 C818 1.394 . S
C816 H832 0.931 . S
C817 C816 1.391 . S
C817 C821 1.376 . S
C818 C816 1.394 . S
C818 C819 1.369 . S
C818 C822 1.531 . S
C819 C818 1.369 . S
C819 C820 1.410 . S
C819 C827 1.503 . S
C820 C819 1.410 . S
C820 C821 1.392 . S
C820 C823 1.511 . S
C821 C817 1.376 . S
C821 C820 1.392 . S
C821 H833 0.929 . S
C822 C818 1.531 . S
C822 H834 0.960 . S
C822 H835 0.962 . S
C822 H836 0.960 . S
C823 C820 1.511 . S
C823 H837 0.961 . S
C823 H838 0.961 . S
C823 H839 0.961 . S
C824 C825 1.370 . S
C824 C826 1.363 . S
C824 H840 0.931 . S
C825 C824 1.370 . S
C825 C829 1.408 . S
C826 C824 1.363 . S
C826 C827 1.370 . S
C826 C830 1.524 . S
C827 C819 1.503 . S
C827 C826 1.370 . S
C827 C828 1.403 . S
C828 C827 1.403 . S
C828 C829 1.404 . S
C828 C831 1.539 . S
C829 C825 1.408 . S
C829 C828 1.404 . S
C829 H841 0.930 . S
C830 C826 1.524 . S
C830 H842 0.956 . S
C830 H843 0.961 . S
C830 H844 0.961 . S
C831 C828 1.539 . S
C831 H845 0.958 . S
C831 H846 0.961 . S
C831 H847 0.960 . S
H832 C816 0.931 . S
H833 C821 0.929 . S
H834 C822 0.960 . S
H835 C822 0.962 . S
H836 C822 0.960 . S
H837 C823 0.961 . S
H838 C823 0.961 . S
H839 C823 0.961 . S
H840 C824 0.931 . S
H841 C829 0.930 . S
H842 C830 0.956 . S
H843 C830 0.961 . S
H844 C830 0.961 . S
H845 C831 0.958 . S
H846 C831 0.961 . S
H847 C831 0.960 . S
C848 C849 1.391 . S
C848 C850 1.394 . S
C848 H864 0.931 . S
C849 C848 1.391 . S
C849 C853 1.376 . S
C850 C848 1.394 . S
C850 C851 1.369 . S
C850 C854 1.531 . S
C851 C850 1.369 . S
C851 C852 1.410 . S
C851 C859 1.503 . S
C852 C851 1.410 . S
C852 C853 1.392 . S
C852 C855 1.511 . S
C853 C849 1.376 . S
C853 C852 1.392 . S
C853 H865 0.929 . S
C854 C850 1.531 . S
C854 H866 0.960 . S
C854 H867 0.962 . S
C854 H868 0.960 . S
C855 C852 1.511 . S
C855 H869 0.961 . S
C855 H870 0.961 . S
C855 H871 0.961 . S
C856 C857 1.370 . S
C856 C858 1.363 . S
C856 H872 0.931 . S
C857 C856 1.370 . S
C857 C861 1.408 . S
C858 C856 1.363 . S
C858 C859 1.370 . S
C858 C862 1.524 . S
C859 C851 1.503 . S
C859 C858 1.370 . S
C859 C860 1.403 . S
C860 C859 1.403 . S
C860 C861 1.404 . S
C860 C863 1.539 . S
C861 C857 1.408 . S
C861 C860 1.404 . S
C861 H873 0.930 . S
C862 C858 1.524 . S
C862 H874 0.956 . S
C862 H875 0.961 . S
C862 H876 0.961 . S
C863 C860 1.539 . S
C863 H877 0.958 . S
C863 H878 0.961 . S
C863 H879 0.960 . S
H864 C848 0.931 . S
H865 C853 0.929 . S
H866 C854 0.960 . S
H867 C854 0.962 . S
H868 C854 0.960 . S
H869 C855 0.961 . S
H870 C855 0.961 . S
H871 C855 0.961 . S
H872 C856 0.931 . S
H873 C861 0.930 . S
H874 C862 0.956 . S
H875 C862 0.961 . S
H876 C862 0.961 . S
H877 C863 0.958 . S
H878 C863 0.961 . S
H879 C863 0.960 . S
C880 C881 1.391 . S
C880 C882 1.394 . S
C880 H896 0.931 . S
C881 C880 1.391 . S
C881 C885 1.376 . S
C882 C880 1.394 . S
C882 C883 1.369 . S
C882 C886 1.531 . S
C883 C882 1.369 . S
C883 C884 1.410 . S
C883 C891 1.503 . S
C884 C883 1.410 . S
C884 C885 1.392 . S
C884 C887 1.511 . S
C885 C881 1.376 . S
C885 C884 1.392 . S
C885 H897 0.929 . S
C886 C882 1.531 . S
C886 H898 0.960 . S
C886 H899 0.962 . S
C886 H900 0.960 . S
C887 C884 1.511 . S
C887 H901 0.961 . S
C887 H902 0.961 . S
C887 H903 0.961 . S
C888 C889 1.370 . S
C888 C890 1.363 . S
C888 H904 0.931 . S
C889 C888 1.370 . S
C889 C893 1.408 . S
C890 C888 1.363 . S
C890 C891 1.370 . S
C890 C894 1.524 . S
C891 C883 1.503 . S
C891 C890 1.370 . S
C891 C892 1.403 . S
C892 C891 1.403 . S
C892 C893 1.404 . S
C892 C895 1.539 . S
C893 C889 1.408 . S
C893 C892 1.404 . S
C893 H905 0.930 . S
C894 C890 1.524 . S
C894 H906 0.956 . S
C894 H907 0.961 . S
C894 H908 0.961 . S
C895 C892 1.539 . S
C895 H909 0.958 . S
C895 H910 0.961 . S
C895 H911 0.960 . S
H896 C880 0.931 . S
H897 C885 0.929 . S
H898 C886 0.960 . S
H899 C886 0.962 . S
H900 C886 0.960 . S
H901 C887 0.961 . S
H902 C887 0.961 . S
H903 C887 0.961 . S
H904 C888 0.931 . S
H905 C893 0.930 . S
H906 C894 0.956 . S
H907 C894 0.961 . S
H908 C894 0.961 . S
H909 C895 0.958 . S
H910 C895 0.961 . S
H911 C895 0.960 . S
C912 C913 1.391 . S
C912 C914 1.394 . S
C912 H928 0.931 . S
C913 C912 1.391 . S
C913 C917 1.376 . S
C914 C912 1.394 . S
C914 C915 1.369 . S
C914 C918 1.531 . S
C915 C914 1.369 . S
C915 C916 1.410 . S
C915 C923 1.503 . S
C916 C915 1.410 . S
C916 C917 1.392 . S
C916 C919 1.511 . S
C917 C913 1.376 . S
C917 C916 1.392 . S
C917 H929 0.929 . S
C918 C914 1.531 . S
C918 H930 0.960 . S
C918 H931 0.962 . S
C918 H932 0.960 . S
C919 C916 1.511 . S
C919 H933 0.961 . S
C919 H934 0.961 . S
C919 H935 0.961 . S
C920 C921 1.370 . S
C920 C922 1.363 . S
C920 H936 0.931 . S
C921 C920 1.370 . S
C921 C925 1.408 . S
C922 C920 1.363 . S
C922 C923 1.370 . S
C922 C926 1.524 . S
C923 C915 1.503 . S
C923 C922 1.370 . S
C923 C924 1.403 . S
C924 C923 1.403 . S
C924 C925 1.404 . S
C924 C927 1.539 . S
C925 C921 1.408 . S
C925 C924 1.404 . S
C925 H937 0.930 . S
C926 C922 1.524 . S
C926 H938 0.956 . S
C926 H939 0.961 . S
C926 H940 0.961 . S
C927 C924 1.539 . S
C927 H941 0.958 . S
C927 H942 0.961 . S
C927 H943 0.960 . S
H928 C912 0.931 . S
H929 C917 0.929 . S
H930 C918 0.960 . S
H931 C918 0.962 . S
H932 C918 0.960 . S
H933 C919 0.961 . S
H934 C919 0.961 . S
H935 C919 0.961 . S
H936 C920 0.931 . S
H937 C925 0.930 . S
H938 C926 0.956 . S
H939 C926 0.961 . S
H940 C926 0.961 . S
H941 C927 0.958 . S
H942 C927 0.961 . S
H943 C927 0.960 . S
C177 C7 1.113 . S
C185 C119 1.188 . S
C209 C29 1.104 . S
C217 C140 1.190 . S
C241 C50 1.184 . S
C249 C163 1.181 . S
C273 C92 1.178 . S
C281 C73 1.146 . S
C305 C114 1.182 . S
C313 C97 1.146 . S
C337 C138 1.192 . S
C345 C115 1.129 . S
C369 C158 1.178 . S
C377 C137 1.151 . S
C401 C159 1.103 . S
C409 C95 1.189 . S
C433 C139 1.106 . S
C441 C75 1.189 . S
C465 C161 1.160 . S
C473 C8 1.186 . S
C497 C31 1.190 . S
C505 C94 1.133 . S
C529 C48 1.192 . S
C537 C117 1.129 . S
C561 C70 1.182 . S
C569 C53 1.145 . S
C593 C6 1.188 . S
C601 C71 1.144 . S
C625 C26 1.179 . S
C633 C5 1.154 . S
C657 C27 1.182 . S
C665 C51 1.181 . S
C689 C96 1.451 1_554 S
C697 C9 1.429 . S
C721 C116 1.411 1_556 S
C729 C30 1.446 . S
C753 C49 1.427 . S
C761 C136 1.442 1_554 S
C785 C74 1.441 . S
C793 C160 1.430 1_556 S
C817 C52 1.441 . S
C825 C141 1.432 . S
C849 C72 1.423 . S
C857 C162 1.445 . S
C881 C93 1.456 . S
C889 C4 1.428 . S
C913 C118 1.423 . S
C921 C28 1.437 . S
