# Generated by pormake.
# Topology npo, (4)-cn, num edge types: 1
# Building blocks:
#     Node 0, Type 0, BuildingBlock: KUFVIS_clean_sbu_0, # of connection points: 4
#     Node 1, Type 0, BuildingBlock: KUFVIS_clean_sbu_0, # of connection points: 4
#     Node 2, Type 0, BuildingBlock: KUFVIS_clean_sbu_0, # of connection points: 4
#     Node 3, Type 0, BuildingBlock: KUFVIS_clean_sbu_0, # of connection points: 4
#     Node 4, Type 0, BuildingBlock: KUFVIS_clean_sbu_0, # of connection points: 4
#     Node 5, Type 0, BuildingBlock: KUFVIS_clean_sbu_0, # of connection points: 4
#     Edge 6, Type (0, 0), BuildingBlock: FUNLAD_clean_linker_1, # of connection points: 2
#     Edge 7, Type (0, 0), BuildingBlock: FUNLAD_clean_linker_1, # of connection points: 2
#     Edge 8, Type (0, 0), BuildingBlock: FUNLAD_clean_linker_1, # of connection points: 2
#     Edge 9, Type (0, 0), BuildingBlock: FUNLAD_clean_linker_1, # of connection points: 2
#     Edge 10, Type (0, 0), BuildingBlock: FUNLAD_clean_linker_1, # of connection points: 2
#     Edge 11, Type (0, 0), BuildingBlock: FUNLAD_clean_linker_1, # of connection points: 2
#     Edge 12, Type (0, 0), BuildingBlock: FUNLAD_clean_linker_1, # of connection points: 2
#     Edge 13, Type (0, 0), BuildingBlock: FUNLAD_clean_linker_1, # of connection points: 2
#     Edge 14, Type (0, 0), BuildingBlock: FUNLAD_clean_linker_1, # of connection points: 2
#     Edge 15, Type (0, 0), BuildingBlock: FUNLAD_clean_linker_1, # of connection points: 2
#     Edge 16, Type (0, 0), BuildingBlock: FUNLAD_clean_linker_1, # of connection points: 2
#     Edge 17, Type (0, 0), BuildingBlock: FUNLAD_clean_linker_1, # of connection points: 2
# Relax obj value: 0.273
# Max RMSD: 0.237
# Mean RMSD: 0.233
data_MOF--net-npo--node1-KUFVIS_clean_sbu_0--edge1-FUNLAD_clean_linker_1
_symmetry_space_group_name_H-M    P1
_symmetry_Int_Tables_number       1
_symmetry_cell_setting            triclinic
loop_
_symmetry_equiv_pos_as_xyz
'x, y, z'
_cell_length_a     43.992747
_cell_length_b     46.904029
_cell_length_c     24.983063
_cell_angle_alpha  89.857574
_cell_angle_beta   91.364546
_cell_angle_gamma 122.51335
loop_
_atom_site_label
_atom_site_type_symbol
_atom_site_fract_x
_atom_site_fract_y
_atom_site_fract_z
_atom_type_partial_charge
Mn0 Mn 0.55248 0.13102 0.27356 0.0
Mn1 Mn 0.61075 0.10552 0.26317 0.0
C2 C 0.61198 0.16575 0.3027 0.0
C3 C 0.52505 0.15902 0.24232 0.0
C4 C 0.55395 0.07954 0.34785 0.0
O5 O 0.52767 0.09317 0.21738 0.0
O6 O 0.56926 0.07908 0.21169 0.0
C7 C 0.63578 0.12661 0.15279 0.0
N8 N 0.64313 0.12897 0.20641 0.0
C9 C 0.70681 0.16567 0.19265 0.0
C10 C 0.69998 0.16267 0.13719 0.0
C11 C 0.66427 0.14338 0.11719 0.0
C12 C 0.67735 0.14791 0.22609 0.0
H13 H 0.6084 0.11181 0.13735 0.0
C14 C 0.53952 0.07614 0.19679 0.0
O15 O 0.50995 0.13539 0.27764 0.0
O16 O 0.55488 0.16492 0.22248 0.0
N17 N 0.65224 0.1301 0.30991 0.0
C18 C 0.65431 0.12957 0.3644 0.0
C19 C 0.68804 0.14899 0.39087 0.0
C20 C 0.71928 0.16844 0.36108 0.0
C21 C 0.7165 0.16835 0.30504 0.0
C22 C 0.68214 0.14873 0.28089 0.0
H23 H 0.63042 0.11461 0.38754 0.0
O24 O 0.58713 0.16943 0.32192 0.0
O25 O 0.60108 0.14157 0.26767 0.0
O26 O 0.5408 0.09689 0.33345 0.0
O27 O 0.57965 0.08032 0.32381 0.0
C28 C 0.74648 0.18691 0.27223 0.0
C29 C 0.74167 0.18548 0.21603 0.0
H30 H 0.72192 0.17558 0.10962 0.0
H31 H 0.65873 0.14139 0.07446 0.0
H32 H 0.68996 0.14889 0.43413 0.0
H33 H 0.74527 0.18332 0.38163 0.0
H34 H 0.77334 0.2021 0.28989 0.0
H35 H 0.76494 0.1997 0.19115 0.0
Mn36 Mn 0.43312 0.55407 0.7545 0.0
Mn37 Mn 0.38802 0.47001 0.77507 0.0
C38 C 0.37178 0.51999 0.73539 0.0
C39 C 0.45395 0.60975 0.77939 0.0
C40 C 0.43371 0.50268 0.67906 0.0
O41 O 0.4672 0.55036 0.80661 0.0
O42 O 0.43608 0.49345 0.81204 0.0
C43 C 0.37834 0.47215 0.89169 0.0
N44 N 0.36394 0.46082 0.84154 0.0
C45 C 0.30456 0.42473 0.87615 0.0
C46 C 0.31874 0.436 0.92814 0.0
C47 C 0.35576 0.45999 0.93589 0.0
C48 C 0.32823 0.43837 0.83354 0.0
H49 H 0.40686 0.49014 0.89801 0.0
C50 C 0.46326 0.52293 0.82386 0.0
O51 O 0.46858 0.60296 0.74107 0.0
O52 O 0.42861 0.58435 0.80524 0.0
N53 N 0.3408 0.44376 0.74276 0.0
C54 C 0.33137 0.43562 0.69007 0.0
C55 C 0.29534 0.41146 0.67554 0.0
C56 C 0.26955 0.39547 0.71536 0.0
C57 C 0.27989 0.40436 0.76932 0.0
C58 C 0.31607 0.42893 0.78131 0.0
H59 H 0.35129 0.44711 0.65944 0.0
O60 O 0.3917 0.54851 0.71111 0.0
O61 O 0.38848 0.51189 0.76964 0.0
O62 O 0.44555 0.53293 0.69394 0.0
O63 O 0.41114 0.47677 0.70544 0.0
C64 C 0.25579 0.38953 0.81172 0.0
C65 C 0.26799 0.40008 0.86501 0.0
H66 H 0.30149 0.42629 0.96241 0.0
H67 H 0.36693 0.46872 0.9759 0.0
H68 H 0.28756 0.4048 0.63382 0.0
H69 H 0.24186 0.3766 0.70403 0.0
H70 H 0.22774 0.37008 0.80381 0.0
H71 H 0.2491 0.38876 0.89717 0.0
Mn72 Mn 0.87862 0.45222 0.22248 0.0
Mn73 Mn 0.90984 0.40115 0.24311 0.0
C74 C 0.84232 0.39547 0.20027 0.0
C75 C 0.84848 0.47804 0.24631 0.0
C76 C 0.93326 0.45047 0.15195 0.0
O77 O 0.91923 0.479 0.27698 0.0
O78 O 0.93752 0.44267 0.28893 0.0
C79 C 0.88851 0.38267 0.35569 0.0
N80 N 0.88815 0.37328 0.30402 0.0
C81 C 0.85388 0.31431 0.3267 0.0
C82 C 0.85412 0.32336 0.38023 0.0
C83 C 0.87138 0.35768 0.39473 0.0
C84 C 0.87146 0.34032 0.28957 0.0
H85 H 0.90165 0.40901 0.36698 0.0
C86 C 0.93924 0.47024 0.29959 0.0
O87 O 0.8727 0.4906 0.20995 0.0
O88 O 0.84301 0.45136 0.27118 0.0
N89 N 0.88522 0.35989 0.20232 0.0
C90 C 0.88475 0.35536 0.14838 0.0
C91 C 0.86809 0.32245 0.12705 0.0
C92 C 0.85206 0.29458 0.16136 0.0
C93 C 0.8525 0.29988 0.21667 0.0
C94 C 0.87005 0.33325 0.23569 0.0
H95 H 0.89725 0.37669 0.12183 0.0
O96 O 0.83827 0.41775 0.17604 0.0
O97 O 0.86877 0.40717 0.23564 0.0
O98 O 0.91425 0.46223 0.16409 0.0
O99 O 0.93391 0.42764 0.17871 0.0
C100 C 0.83579 0.27334 0.25355 0.0
C101 C 0.83617 0.28052 0.30847 0.0
H102 H 0.84076 0.30416 0.41041 0.0
H103 H 0.87143 0.36484 0.43589 0.0
H104 H 0.86758 0.31858 0.08427 0.0
H105 H 0.83888 0.26922 0.14472 0.0
H106 H 0.82223 0.24733 0.23991 0.0
H107 H 0.82252 0.25986 0.33629 0.0
Mn108 Mn 0.45473 0.87528 0.76992 0.0
Mn109 Mn 0.41028 0.91526 0.75274 0.0
C110 C 0.39594 0.85057 0.79724 0.0
C111 C 0.47014 0.83726 0.74214 0.0
C112 C 0.46569 0.93312 0.84206 0.0
O113 O 0.48493 0.91085 0.71421 0.0
O114 O 0.45249 0.93507 0.70518 0.0
C115 C 0.38434 0.89471 0.64045 0.0
N116 N 0.37715 0.895 0.69313 0.0
C117 C 0.31336 0.86516 0.67356 0.0
C118 C 0.32014 0.86494 0.61906 0.0
C119 C 0.35577 0.87958 0.60249 0.0
C120 C 0.34293 0.8807 0.70954 0.0
H121 H 0.41167 0.90608 0.62736 0.0
C122 C 0.47873 0.93203 0.69249 0.0
O123 O 0.48941 0.86035 0.77824 0.0
O124 O 0.44366 0.83784 0.71954 0.0
N125 N 0.36838 0.89777 0.79533 0.0
C126 C 0.36645 0.90084 0.84919 0.0
C127 C 0.33258 0.88677 0.87234 0.0
C128 C 0.3011 0.86998 0.83986 0.0
C129 C 0.30379 0.86761 0.78443 0.0
C130 C 0.33828 0.88213 0.76361 0.0
H131 H 0.39052 0.91366 0.87438 0.0
O132 O 0.41667 0.84137 0.81772 0.0
O133 O 0.41011 0.87375 0.76098 0.0
O134 O 0.47357 0.91162 0.82904 0.0
O135 O 0.44283 0.93701 0.816 0.0
C136 C 0.27361 0.85146 0.74903 0.0
C137 C 0.27839 0.85036 0.69361 0.0
H138 H 0.29817 0.85336 0.58963 0.0
H139 H 0.3612 0.87932 0.56053 0.0
H140 H 0.33075 0.88883 0.91513 0.0
H141 H 0.27503 0.85912 0.85788 0.0
H142 H 0.24659 0.83989 0.76398 0.0
H143 H 0.25499 0.83791 0.66677 0.0
Mn144 Mn 0.55664 0.44029 0.2434 0.0
Mn145 Mn 0.5995 0.51997 0.2927 0.0
C146 C 0.61828 0.47678 0.23381 0.0
C147 C 0.53769 0.38356 0.25343 0.0
C148 C 0.55332 0.4976 0.19082 0.0
O149 O 0.52072 0.4377 0.2969 0.0
O150 O 0.5536 0.49097 0.33017 0.0
C151 C 0.61648 0.5056 0.40086 0.0
N152 N 0.62758 0.52349 0.35475 0.0
C153 C 0.6891 0.55583 0.38754 0.0
C154 C 0.67817 0.53842 0.43606 0.0
C155 C 0.64173 0.513 0.44257 0.0
C156 C 0.66269 0.54734 0.34749 0.0
H157 H 0.58866 0.4856 0.4054 0.0
C158 C 0.52544 0.46091 0.32927 0.0
O159 O 0.5227 0.39259 0.21751 0.0
O160 O 0.56199 0.40701 0.28498 0.0
N161 N 0.6447 0.55065 0.26058 0.0
C162 C 0.65112 0.56323 0.21004 0.0
C163 C 0.68638 0.58838 0.19631 0.0
C164 C 0.7146 0.60044 0.23472 0.0
C165 C 0.70741 0.58682 0.28631 0.0
C166 C 0.6717 0.56204 0.29779 0.0
H167 H 0.62946 0.55438 0.18055 0.0
O168 O 0.59969 0.45107 0.20157 0.0
O169 O 0.59995 0.48058 0.26968 0.0
O170 O 0.54512 0.46701 0.19055 0.0
O171 O 0.57223 0.51898 0.22794 0.0
C172 C 0.73431 0.5966 0.32661 0.0
C173 C 0.72521 0.58091 0.37703 0.0
H174 H 0.6976 0.54401 0.46825 0.0
H175 H 0.63315 0.49905 0.47954 0.0
H176 H 0.69176 0.5986 0.15632 0.0
H177 H 0.74173 0.61989 0.22396 0.0
H178 H 0.76218 0.61578 0.31898 0.0
H179 H 0.74624 0.58817 0.40732 0.0
Mn180 Mn 0.12409 0.56681 0.73795 0.0
Mn181 Mn 0.08204 0.48796 0.68492 0.0
C182 C 0.15044 0.53545 0.74606 0.0
C183 C 0.16341 0.62487 0.73063 0.0
C184 C 0.06087 0.50433 0.78934 0.0
O185 O 0.08735 0.56626 0.6861 0.0
O186 O 0.06288 0.51381 0.65185 0.0
C187 C 0.10993 0.50742 0.57533 0.0
N188 N 0.10548 0.48943 0.62057 0.0
C189 C 0.1348 0.46372 0.5819 0.0
C190 C 0.13956 0.48186 0.53481 0.0
C191 C 0.12718 0.5039 0.5316 0.0
C192 C 0.1177 0.46851 0.62432 0.0
H193 H 0.10039 0.52432 0.57259 0.0
C194 C 0.06579 0.54245 0.6539 0.0
O195 O 0.13868 0.61223 0.76647 0.0
O196 O 0.16438 0.60396 0.69801 0.0
N197 N 0.09793 0.45978 0.71196 0.0
C198 C 0.09156 0.44441 0.76039 0.0
C199 C 0.10087 0.42044 0.7693 0.0
C200 C 0.11661 0.41254 0.72839 0.0
C201 C 0.12364 0.4292 0.67934 0.0
C202 C 0.11295 0.45221 0.67228 0.0
H203 H 0.07885 0.44991 0.79164 0.0
O204 O 0.15942 0.56036 0.77882 0.0
O205 O 0.12617 0.52958 0.70956 0.0
O206 O 0.08447 0.53601 0.78947 0.0
O207 O 0.05702 0.48408 0.75188 0.0
C208 C 0.14054 0.42366 0.63701 0.0
C209 C 0.14638 0.44112 0.58846 0.0
H210 H 0.15273 0.47911 0.50092 0.0
H211 H 0.13081 0.51805 0.49545 0.0
H212 H 0.09564 0.40785 0.80744 0.0
H213 H 0.12332 0.39371 0.73511 0.0
H214 H 0.14933 0.40617 0.64148 0.0
H215 H 0.15964 0.43685 0.55634 0.0
H216 H 0.48317 0.17147 0.23918 0.0
C217 C 0.51123 0.18105 0.23118 0.0
H218 H 0.56212 0.22366 0.21336 0.0
H219 H 0.52625 0.32544 0.12181 0.0
H220 H 0.5466 0.31146 0.04274 0.0
H221 H 0.5552 0.26366 0.04255 0.0
H222 H 0.5439 0.22978 0.12185 0.0
C223 C 0.53391 0.21402 0.22045 0.0
C224 C 0.52261 0.23894 0.2188 0.0
C225 C 0.52801 0.25783 0.1716 0.0
C226 C 0.52219 0.28493 0.17135 0.0
C227 C 0.52953 0.30423 0.12423 0.0
C228 C 0.54131 0.29652 0.07843 0.0
C229 C 0.54621 0.26964 0.07834 0.0
C230 C 0.53972 0.25047 0.12423 0.0
H231 H 0.54677 0.34502 0.28518 0.0
C232 C 0.53097 0.34918 0.25573 0.0
H233 H 0.49479 0.32871 0.18941 0.0
H234 H 0.5127 0.21069 0.31889 0.0
H235 H 0.48715 0.22135 0.39492 0.0
H236 H 0.46931 0.26296 0.38995 0.0
H237 H 0.47826 0.29505 0.30904 0.0
C238 C 0.5096 0.32437 0.22032 0.0
C239 C 0.51017 0.29273 0.21806 0.0
C240 C 0.50194 0.27208 0.26384 0.0
C241 C 0.50963 0.24619 0.26517 0.0
C242 C 0.5051 0.22893 0.31388 0.0
C243 C 0.49078 0.23508 0.35828 0.0
C244 C 0.48092 0.25863 0.3556 0.0
C245 C 0.48645 0.27705 0.30909 0.0
H246 H 0.32033 0.49464 0.77658 0.0
C247 C 0.3328 0.50574 0.73874 0.0
H248 H 0.3288 0.52524 0.6652 0.0
H249 H 0.1782 0.47202 0.80771 0.0
H250 H 0.16956 0.41623 0.80866 0.0
H251 H 0.21017 0.40529 0.75959 0.0
H252 H 0.26376 0.45147 0.71772 0.0
C253 C 0.31581 0.51415 0.70274 0.0
C254 C 0.28576 0.51802 0.71892 0.0
C255 C 0.25358 0.49044 0.73972 0.0
C256 C 0.2276 0.4958 0.76197 0.0
C257 C 0.19773 0.46875 0.78781 0.0
C258 C 0.19247 0.43672 0.78858 0.0
C259 C 0.2158 0.43068 0.76182 0.0
C260 C 0.24628 0.45723 0.73803 0.0
H261 H 0.17138 0.50805 0.70541 0.0
C262 C 0.17388 0.52212 0.74128 0.0
H263 H 0.20749 0.54881 0.80845 0.0
H264 H 0.34485 0.57752 0.68345 0.0
H265 H 0.35088 0.63166 0.6771 0.0
H266 H 0.30258 0.63917 0.70698 0.0
H267 H 0.24807 0.59242 0.74434 0.0
C268 C 0.20257 0.53245 0.77427 0.0
C269 C 0.23192 0.52783 0.75821 0.0
C270 C 0.26331 0.55522 0.73552 0.0
C271 C 0.29063 0.55054 0.71677 0.0
C272 C 0.32249 0.57893 0.69665 0.0
C273 C 0.32647 0.61039 0.69296 0.0
C274 C 0.2993 0.61464 0.70984 0.0
C275 C 0.26814 0.58754 0.73118 0.0
H276 H 0.66922 0.19635 0.33117 0.0
C277 C 0.64933 0.19497 0.30296 0.0
H278 H 0.63779 0.21787 0.24003 0.0
H279 H 0.78733 0.3523 0.33819 0.0
H280 H 0.75492 0.34305 0.41897 0.0
H281 H 0.6948 0.2916 0.43022 0.0
H282 H 0.66685 0.24919 0.36006 0.0
C283 C 0.65818 0.22007 0.26828 0.0
C284 C 0.69561 0.25001 0.26352 0.0
C285 C 0.71215 0.27433 0.30552 0.0
C286 C 0.74708 0.30395 0.29897 0.0
C287 C 0.76172 0.32865 0.34076 0.0
C288 C 0.74314 0.3239 0.38761 0.0
C289 C 0.70932 0.29497 0.39395 0.0
C290 C 0.69373 0.2706 0.35338 0.0
H291 H 0.79143 0.3527 0.16725 0.0
C292 C 0.81086 0.36035 0.20031 0.0
H293 H 0.82007 0.35092 0.27832 0.0
H294 H 0.66965 0.21076 0.17241 0.0
H295 H 0.70179 0.21973 0.09043 0.0
H296 H 0.76565 0.26569 0.08442 0.0
H297 H 0.79622 0.30508 0.15781 0.0
C298 C 0.80202 0.34082 0.24388 0.0
C299 C 0.76592 0.30881 0.2507 0.0
C300 C 0.74963 0.28363 0.20955 0.0
C301 C 0.71384 0.25524 0.21495 0.0
C302 C 0.69701 0.23244 0.17107 0.0
C303 C 0.71525 0.23703 0.1239 0.0
C304 C 0.75108 0.26303 0.12033 0.0
C305 C 0.76826 0.28581 0.16272 0.0
H306 H 0.45859 0.79135 0.69919 0.0
C307 C 0.47415 0.80841 0.73232 0.0
H308 H 0.50614 0.81591 0.80178 0.0
H309 H 0.40798 0.64896 0.76521 0.0
H310 H 0.35804 0.65348 0.79049 0.0
H311 H 0.36625 0.70913 0.80546 0.0
H312 H 0.42462 0.76065 0.7954 0.0
C313 C 0.4909 0.79944 0.76793 0.0
C314 C 0.48682 0.76572 0.76481 0.0
C315 C 0.45283 0.73566 0.77353 0.0
C316 C 0.44857 0.70346 0.76803 0.0
C317 C 0.41356 0.67405 0.77239 0.0
C318 C 0.38437 0.67625 0.78603 0.0
C319 C 0.38897 0.70758 0.79439 0.0
C320 C 0.42266 0.737 0.7881 0.0
H321 H 0.45512 0.64969 0.82787 0.0
C322 C 0.46275 0.64442 0.78987 0.0
H323 H 0.48228 0.66234 0.71282 0.0
H324 H 0.55577 0.81815 0.74822 0.0
H325 H 0.60736 0.81404 0.73096 0.0
H326 H 0.60096 0.75851 0.72658 0.0
H327 H 0.54296 0.70674 0.73909 0.0
C328 C 0.47505 0.66777 0.75106 0.0
C329 C 0.47897 0.70133 0.75768 0.0
C330 C 0.5132 0.73148 0.75094 0.0
C331 C 0.51706 0.76361 0.75426 0.0
C332 C 0.55144 0.79316 0.74658 0.0
C333 C 0.58126 0.79117 0.73661 0.0
C334 C 0.57764 0.7599 0.73408 0.0
C335 C 0.54413 0.73035 0.74117 0.0
H336 H 0.66937 0.50361 0.28032 0.0
C337 C 0.65722 0.49145 0.24205 0.0
H338 H 0.66236 0.46835 0.17371 0.0
H339 H 0.82364 0.54188 0.30083 0.0
H340 H 0.83127 0.59579 0.27818 0.0
H341 H 0.78249 0.59786 0.23158 0.0
H342 H 0.72488 0.54609 0.21024 0.0
C343 C 0.67504 0.48241 0.21067 0.0
C344 C 0.70624 0.48176 0.23304 0.0
C345 C 0.73988 0.51208 0.24353 0.0
C346 C 0.76891 0.5108 0.26676 0.0
C347 C 0.80145 0.5415 0.28042 0.0
C348 C 0.80604 0.57254 0.26806 0.0
C349 C 0.77846 0.5737 0.24213 0.0
C350 C 0.74557 0.5439 0.23028 0.0
H351 H 0.8246 0.50618 0.21918 0.0
C352 C 0.824 0.49005 0.25102 0.0
H353 H 0.7966 0.46072 0.31762 0.0
H354 H 0.64387 0.41895 0.22372 0.0
H355 H 0.63709 0.36525 0.24278 0.0
H356 H 0.68888 0.36268 0.27559 0.0
H357 H 0.74737 0.41368 0.29053 0.0
C358 C 0.79743 0.47723 0.28635 0.0
C359 C 0.76512 0.47913 0.27535 0.0
C360 C 0.73108 0.44873 0.26626 0.0
C361 C 0.70149 0.45012 0.24576 0.0
C362 C 0.66755 0.41946 0.23811 0.0
C363 C 0.66319 0.38837 0.249 0.0
C364 C 0.69232 0.38693 0.26755 0.0
C365 C 0.72589 0.4166 0.27603 0.0
H366 H 0.34188 0.8327 0.82894 0.0
C367 C 0.35677 0.82757 0.80077 0.0
H368 H 0.35564 0.79425 0.74354 0.0
H369 H 0.20624 0.68626 0.86704 0.0
H370 H 0.24289 0.70006 0.94816 0.0
H371 H 0.30673 0.74691 0.95033 0.0
H372 H 0.33414 0.78025 0.8717 0.0
C373 C 0.34021 0.79883 0.77177 0.0
C374 C 0.30082 0.77332 0.77358 0.0
C375 C 0.28523 0.75416 0.82043 0.0
C376 C 0.2486 0.72657 0.81884 0.0
C377 C 0.23388 0.70735 0.86574 0.0
C378 C 0.25464 0.71499 0.91269 0.0
C379 C 0.29055 0.74141 0.91395 0.0
C380 C 0.30588 0.76064 0.86844 0.0
H381 H 0.21405 0.6684 0.70288 0.0
C382 C 0.19201 0.66095 0.72989 0.0
H383 H 0.17256 0.67639 0.7926 0.0
H384 H 0.32181 0.80565 0.67736 0.0
H385 H 0.28429 0.79226 0.5969 0.0
H386 H 0.21989 0.74681 0.59647 0.0
H387 H 0.19304 0.71315 0.67588 0.0
C388 C 0.19396 0.68382 0.76447 0.0
C389 C 0.22807 0.71772 0.77019 0.0
C390 C 0.24273 0.7387 0.72498 0.0
C391 C 0.27939 0.76591 0.72614 0.0
C392 C 0.29396 0.78489 0.67902 0.0
C393 C 0.27268 0.77764 0.63265 0.0
C394 C 0.23646 0.75194 0.63231 0.0
C395 C 0.22147 0.73268 0.67789 0.0
H396 H 0.50415 0.95154 0.91116 0.0
C397 C 0.48292 0.95334 0.89153 0.0
H398 H 0.44936 0.97266 0.89719 0.0
H399 H 0.46724 0.98827 0.14987 0.0
H400 H 0.40563 0.94057 0.13964 0.0
H401 H 0.38032 0.9146 0.05083 0.0
H402 H 0.41662 0.936 0.97178 0.0
C403 C 0.47177 0.97194 0.91472 0.0
C404 C 0.48684 0.98896 0.96777 0.0
C405 C 0.46498 0.9768 0.01349 0.0
C406 C 0.47937 0.99226 0.06463 0.0
C407 C 0.45741 0.97836 0.10985 0.0
C408 C 0.42204 0.95076 0.10462 0.0
C409 C 0.4078 0.9361 0.05464 0.0
C410 C 0.42893 0.94873 0.00953 0.0
H411 H 0.49584 0.05371 0.13461 0.0
C412 C 0.51939 0.05407 0.14988 0.0
H413 H 0.55543 0.03827 0.13701 0.0
H414 H 0.53498 0.02049 0.88766 0.0
H415 H 0.59657 0.0683 0.89751 0.0
H416 H 0.62185 0.09474 0.98609 0.0
H417 H 0.58565 0.07362 0.065 0.0
C418 C 0.53119 0.03706 0.12302 0.0
C419 C 0.5154 0.02046 0.0698 0.0
C420 C 0.53718 0.03267 0.02388 0.0
C421 C 0.5228 0.01713 0.97285 0.0
C422 C 0.54479 0.03071 0.92756 0.0
C423 C 0.58015 0.05833 0.93256 0.0
C424 C 0.59437 0.07323 0.98239 0.0
C425 C 0.57325 0.06076 0.02751 0.0
H426 H 0.47836 0.42572 0.37813 0.0
C427 C 0.49878 0.45216 0.37152 0.0
H428 H 0.52282 0.50251 0.39901 0.0
H429 H 0.37827 0.44141 0.54305 0.0
H430 H 0.34353 0.42608 0.45937 0.0
H431 H 0.37203 0.43022 0.37339 0.0
H432 H 0.43541 0.4496 0.3705 0.0
C433 C 0.50182 0.47615 0.40492 0.0
C434 C 0.4825 0.46837 0.45625 0.0
C435 C 0.44534 0.45662 0.45714 0.0
C436 C 0.42897 0.45453 0.50676 0.0
C437 C 0.39202 0.44345 0.50653 0.0
C438 C 0.37179 0.4346 0.4588 0.0
C439 C 0.38783 0.43691 0.41038 0.0
C440 C 0.42422 0.44796 0.40928 0.0
H441 H 0.46887 0.52041 0.60945 0.0
C442 C 0.44735 0.49795 0.62865 0.0
H443 H 0.41199 0.44474 0.62277 0.0
H444 H 0.55336 0.48883 0.46934 0.0
H445 H 0.58731 0.50156 0.55314 0.0
H446 H 0.55832 0.4961 0.63919 0.0
H447 H 0.4954 0.47827 0.64155 0.0
C448 C 0.43445 0.46747 0.60569 0.0
C449 C 0.4499 0.46455 0.55509 0.0
C450 C 0.48631 0.47381 0.55454 0.0
C451 C 0.50275 0.47621 0.50508 0.0
C452 C 0.5395 0.48653 0.50568 0.0
C453 C 0.55927 0.4938 0.55359 0.0
C454 C 0.54298 0.49078 0.60198 0.0
C455 C 0.50691 0.4808 0.60272 0.0
H456 H 0.01891 0.46227 0.83658 0.0
C457 C 0.03814 0.48946 0.83649 0.0
H458 H 0.06247 0.53487 0.8817 0.0
H459 H 0.91417 0.42647 0.01535 0.0
H460 H 0.88006 0.42468 0.93631 0.0
H461 H 0.91107 0.45486 0.85448 0.0
H462 H 0.97625 0.48632 0.85083 0.0
C463 C 0.04226 0.50791 0.88031 0.0
C464 C 0.02318 0.49165 0.93049 0.0
C465 C 0.9851 0.47463 0.9325 0.0
C466 C 0.96733 0.45878 0.98057 0.0
C467 C 0.92915 0.44025 0.98064 0.0
C468 C 0.90921 0.43881 0.93542 0.0
C469 C 0.92666 0.45567 0.88929 0.0
C470 C 0.96413 0.47345 0.88763 0.0
H471 H 0.95493 0.48453 0.08328 0.0
C472 C 0.95411 0.46338 0.10284 0.0
H473 H 0.96964 0.42787 0.09804 0.0
H474 H 0.09639 0.52083 0.93965 0.0
H475 H 0.13038 0.52393 0.01963 0.0
H476 H 0.09964 0.49882 0.10415 0.0
H477 H 0.0346 0.47018 0.10903 0.0
C478 C 0.96967 0.44883 0.07934 0.0
C479 C 0.98779 0.46165 0.02736 0.0
C480 C 0.02576 0.47835 0.02523 0.0
C481 C 0.04349 0.49327 0.9767 0.0
C482 C 0.08149 0.50949 0.9756 0.0
C483 C 0.10136 0.51138 0.02122 0.0
C484 C 0.08405 0.49722 0.06879 0.0
C485 C 0.04671 0.48086 0.07103 0.0
H486 H 0.51809 0.05896 0.41695 0.0
C487 C 0.53975 0.05901 0.39677 0.0
H488 H 0.57515 0.04143 0.3991 0.0
H489 H 0.53335 0.03206 0.65439 0.0
H490 H 0.57242 0.09328 0.65351 0.0
H491 H 0.59806 0.12337 0.5692 0.0
H492 H 0.58462 0.0925 0.4852 0.0
C493 C 0.55384 0.0422 0.41876 0.0
C494 C 0.54061 0.02398 0.47041 0.0
C495 C 0.5492 0.04237 0.51933 0.0
C496 C 0.53477 0.02499 0.5681 0.0
C497 C 0.54348 0.04402 0.61622 0.0
C498 C 0.56597 0.07915 0.61631 0.0
C499 C 0.58039 0.09609 0.56883 0.0
C500 C 0.57228 0.07806 0.52083 0.0
H501 H 0.52301 0.94945 0.63502 0.0
C502 C 0.50118 0.95228 0.6471 0.0
H503 H 0.47163 0.97504 0.62982 0.0
H504 H 0.52155 0.98109 0.38465 0.0
H505 H 0.48325 0.91983 0.38562 0.0
H506 H 0.45723 0.88969 0.46974 0.0
H507 H 0.46956 0.92047 0.55341 0.0
C508 C 0.49313 0.97171 0.61787 0.0
C509 C 0.51218 0.98922 0.56815 0.0
C510 C 0.50467 0.97075 0.51948 0.0
C511 C 0.51922 0.98816 0.47071 0.0
C512 C 0.51114 0.96913 0.42272 0.0
C513 C 0.48916 0.93397 0.4227 0.0
C514 C 0.47453 0.917 0.47008 0.0
C515 C 0.48197 0.93502 0.51795 0.0
H516 H 0.48963 0.50128 0.86794 0.0
C517 C 0.48846 0.52382 0.86462 0.0
H518 H 0.49772 0.5672 0.90519 0.0
H519 H 0.47268 0.49018 0.12478 0.0
H520 H 0.42167 0.49666 0.11888 0.0
H521 H 0.41141 0.52191 0.03926 0.0
H522 H 0.45189 0.54056 0.96498 0.0
C523 C 0.50157 0.54617 0.90548 0.0
C524 C 0.51185 0.53693 0.95696 0.0
C525 C 0.4885 0.52717 1.00093 0.0
C526 C 0.4947 0.51305 0.04726 0.0
C527 C 0.46987 0.5019 0.08929 0.0
C528 C 0.44029 0.50526 0.08629 0.0
C529 C 0.43449 0.51942 0.04144 0.0
C530 C 0.45806 0.53009 0.99904 0.0
H531 H 0.54586 0.53492 0.14877 0.0
C532 C 0.54225 0.51018 0.14489 0.0
H533 H 0.52932 0.47 0.09182 0.0
H534 H 0.56387 0.55671 0.88267 0.0
H535 H 0.61562 0.5511 0.88901 0.0
H536 H 0.62643 0.52661 0.96918 0.0
H537 H 0.58566 0.50757 0.04346 0.0
C538 C 0.53089 0.49371 0.09758 0.0
C539 C 0.52467 0.50938 0.05002 0.0
C540 C 0.54871 0.52027 0.00685 0.0
C541 C 0.54239 0.5342 0.96043 0.0
C542 C 0.5671 0.54533 0.91832 0.0
C543 C 0.597 0.54246 0.92161 0.0
C544 C 0.6031 0.52869 0.96677 0.0
C545 C 0.5794 0.51777 0.00907 0.0
H546 H 0.05029 0.57433 0.61033 0.0
C547 C 0.04577 0.5492 0.61279 0.0
H548 H 0.02051 0.5005 0.57729 0.0
H549 H 0.90448 0.4952 0.42823 0.0
H550 H 0.86832 0.47397 0.50759 0.0
H551 H 0.89687 0.48004 0.59662 0.0
H552 H 0.96196 0.5074 0.60669 0.0
C553 C 0.02539 0.52577 0.575 0.0
C554 C 0.01038 0.53271 0.52658 0.0
C555 C 0.9727 0.51799 0.52159 0.0
C556 C 0.95635 0.51479 0.47036 0.0
C557 C 0.91838 0.49851 0.46621 0.0
C558 C 0.8973 0.48622 0.51146 0.0
C559 C 0.91337 0.48961 0.5616 0.0
C560 C 0.95064 0.50522 0.56683 0.0
H561 H 0.98144 0.48358 0.36106 0.0
C562 C 0.9635 0.49085 0.34445 0.0
H563 H 0.94112 0.52045 0.35646 0.0
H564 H 0.08414 0.5667 0.52341 0.0
H565 H 0.12057 0.59109 0.44498 0.0
H566 H 0.09221 0.58729 0.35662 0.0
H567 H 0.02696 0.55849 0.34621 0.0
C568 C 0.96042 0.51422 0.37045 0.0
C569 C 0.97792 0.52629 0.42437 0.0
C570 C 0.01597 0.54464 0.43033 0.0
C571 C 0.03229 0.54754 0.48147 0.0
C572 C 0.07029 0.56415 0.48569 0.0
C573 C 0.09154 0.57828 0.44096 0.0
C574 C 0.07557 0.5761 0.39119 0.0
C575 C 0.0382 0.55943 0.38568 0.0
loop_
_geom_bond_atom_site_label_1
_geom_bond_atom_site_label_2
_geom_bond_distance
_geom_bond_site_symmetry_2
_ccdc_geom_bond_type
Mn0 O5 2.095 . S
Mn0 O15 2.162 . S
Mn0 O16 2.297 . S
Mn0 O24 2.385 . S
Mn0 O25 2.209 . S
Mn0 O26 2.094 . S
Mn1 O6 2.121 . S
Mn1 N8 2.257 . S
Mn1 N17 2.282 . S
Mn1 O25 2.215 . S
Mn1 O27 2.117 . S
C2 O24 1.234 . S
C2 O25 1.283 . S
C3 O15 1.281 . S
C3 O16 1.236 . S
C4 O26 1.240 . S
C4 O27 1.264 . S
O5 Mn0 2.095 . S
O5 C14 1.250 . S
O6 Mn1 2.121 . S
O6 C14 1.258 . S
C7 N8 1.326 . S
C7 C11 1.460 . S
C7 H13 0.929 . S
N8 Mn1 2.257 . S
N8 C7 1.326 . S
N8 C12 1.362 . S
C9 C10 1.258 . S
C9 C12 1.431 . S
C9 C29 1.449 . S
C10 C9 1.258 . S
C10 C11 1.477 . S
C10 H30 0.931 . S
C11 C7 1.460 . S
C11 C10 1.477 . S
C11 H31 0.930 . S
C12 N8 1.362 . S
C12 C9 1.431 . S
C12 C22 1.476 . S
H13 C7 0.929 . S
C14 O5 1.250 . S
C14 O6 1.258 . S
O15 Mn0 2.162 . S
O15 C3 1.281 . S
O16 Mn0 2.297 . S
O16 C3 1.236 . S
N17 Mn1 2.282 . S
N17 C18 1.328 . S
N17 C22 1.318 . S
C18 N17 1.328 . S
C18 C19 1.457 . S
C18 H23 0.929 . S
C19 C18 1.457 . S
C19 C20 1.291 . S
C19 H32 0.931 . S
C20 C19 1.291 . S
C20 C21 1.373 . S
C20 H33 0.929 . S
C21 C20 1.373 . S
C21 C22 1.396 . S
C21 C28 1.403 . S
C22 C12 1.476 . S
C22 N17 1.318 . S
C22 C21 1.396 . S
H23 C18 0.929 . S
O24 Mn0 2.385 . S
O24 C2 1.234 . S
O25 Mn0 2.209 . S
O25 Mn1 2.215 . S
O25 C2 1.283 . S
O26 Mn0 2.094 . S
O26 C4 1.240 . S
O27 Mn1 2.117 . S
O27 C4 1.264 . S
C28 C21 1.403 . S
C28 C29 1.399 . S
C28 H34 0.929 . S
C29 C9 1.449 . S
C29 C28 1.399 . S
C29 H35 0.930 . S
H30 C10 0.931 . S
H31 C11 0.930 . S
H32 C19 0.931 . S
H33 C20 0.929 . S
H34 C28 0.929 . S
H35 C29 0.930 . S
Mn36 O41 2.095 . S
Mn36 O51 2.162 . S
Mn36 O52 2.297 . S
Mn36 O60 2.385 . S
Mn36 O61 2.209 . S
Mn36 O62 2.094 . S
Mn37 O42 2.121 . S
Mn37 N44 2.257 . S
Mn37 N53 2.282 . S
Mn37 O61 2.215 . S
Mn37 O63 2.117 . S
C38 O60 1.234 . S
C38 O61 1.283 . S
C39 O51 1.281 . S
C39 O52 1.236 . S
C40 O62 1.240 . S
C40 O63 1.264 . S
O41 Mn36 2.095 . S
O41 C50 1.250 . S
O42 Mn37 2.121 . S
O42 C50 1.258 . S
C43 N44 1.326 . S
C43 C47 1.460 . S
C43 H49 0.929 . S
N44 Mn37 2.257 . S
N44 C43 1.326 . S
N44 C48 1.362 . S
C45 C46 1.258 . S
C45 C48 1.431 . S
C45 C65 1.449 . S
C46 C45 1.258 . S
C46 C47 1.477 . S
C46 H66 0.931 . S
C47 C43 1.460 . S
C47 C46 1.477 . S
C47 H67 0.930 . S
C48 N44 1.362 . S
C48 C45 1.431 . S
C48 C58 1.476 . S
H49 C43 0.929 . S
C50 O41 1.250 . S
C50 O42 1.258 . S
O51 Mn36 2.162 . S
O51 C39 1.281 . S
O52 Mn36 2.297 . S
O52 C39 1.236 . S
N53 Mn37 2.282 . S
N53 C54 1.328 . S
N53 C58 1.318 . S
C54 N53 1.328 . S
C54 C55 1.457 . S
C54 H59 0.929 . S
C55 C54 1.457 . S
C55 C56 1.291 . S
C55 H68 0.931 . S
C56 C55 1.291 . S
C56 C57 1.373 . S
C56 H69 0.929 . S
C57 C56 1.373 . S
C57 C58 1.396 . S
C57 C64 1.403 . S
C58 C48 1.476 . S
C58 N53 1.318 . S
C58 C57 1.396 . S
H59 C54 0.929 . S
O60 Mn36 2.385 . S
O60 C38 1.234 . S
O61 Mn36 2.209 . S
O61 Mn37 2.215 . S
O61 C38 1.283 . S
O62 Mn36 2.094 . S
O62 C40 1.240 . S
O63 Mn37 2.117 . S
O63 C40 1.264 . S
C64 C57 1.403 . S
C64 C65 1.399 . S
C64 H70 0.929 . S
C65 C45 1.449 . S
C65 C64 1.399 . S
C65 H71 0.930 . S
H66 C46 0.931 . S
H67 C47 0.930 . S
H68 C55 0.931 . S
H69 C56 0.929 . S
H70 C64 0.929 . S
H71 C65 0.930 . S
Mn72 O77 2.095 . S
Mn72 O87 2.162 . S
Mn72 O88 2.297 . S
Mn72 O96 2.385 . S
Mn72 O97 2.209 . S
Mn72 O98 2.094 . S
Mn73 O78 2.121 . S
Mn73 N80 2.257 . S
Mn73 N89 2.282 . S
Mn73 O97 2.215 . S
Mn73 O99 2.117 . S
C74 O96 1.234 . S
C74 O97 1.283 . S
C75 O87 1.281 . S
C75 O88 1.236 . S
C76 O98 1.240 . S
C76 O99 1.264 . S
O77 Mn72 2.095 . S
O77 C86 1.250 . S
O78 Mn73 2.121 . S
O78 C86 1.258 . S
C79 N80 1.326 . S
C79 C83 1.460 . S
C79 H85 0.929 . S
N80 Mn73 2.257 . S
N80 C79 1.326 . S
N80 C84 1.362 . S
C81 C82 1.258 . S
C81 C84 1.431 . S
C81 C101 1.449 . S
C82 C81 1.258 . S
C82 C83 1.477 . S
C82 H102 0.931 . S
C83 C79 1.460 . S
C83 C82 1.477 . S
C83 H103 0.930 . S
C84 N80 1.362 . S
C84 C81 1.431 . S
C84 C94 1.476 . S
H85 C79 0.929 . S
C86 O77 1.250 . S
C86 O78 1.258 . S
O87 Mn72 2.162 . S
O87 C75 1.281 . S
O88 Mn72 2.297 . S
O88 C75 1.236 . S
N89 Mn73 2.282 . S
N89 C90 1.328 . S
N89 C94 1.318 . S
C90 N89 1.328 . S
C90 C91 1.457 . S
C90 H95 0.929 . S
C91 C90 1.457 . S
C91 C92 1.291 . S
C91 H104 0.931 . S
C92 C91 1.291 . S
C92 C93 1.373 . S
C92 H105 0.929 . S
C93 C92 1.373 . S
C93 C94 1.396 . S
C93 C100 1.403 . S
C94 C84 1.476 . S
C94 N89 1.318 . S
C94 C93 1.396 . S
H95 C90 0.929 . S
O96 Mn72 2.385 . S
O96 C74 1.234 . S
O97 Mn72 2.209 . S
O97 Mn73 2.215 . S
O97 C74 1.283 . S
O98 Mn72 2.094 . S
O98 C76 1.240 . S
O99 Mn73 2.117 . S
O99 C76 1.264 . S
C100 C93 1.403 . S
C100 C101 1.399 . S
C100 H106 0.929 . S
C101 C81 1.449 . S
C101 C100 1.399 . S
C101 H107 0.930 . S
H102 C82 0.931 . S
H103 C83 0.930 . S
H104 C91 0.931 . S
H105 C92 0.929 . S
H106 C100 0.929 . S
H107 C101 0.930 . S
Mn108 O113 2.095 . S
Mn108 O123 2.162 . S
Mn108 O124 2.297 . S
Mn108 O132 2.385 . S
Mn108 O133 2.209 . S
Mn108 O134 2.094 . S
Mn109 O114 2.121 . S
Mn109 N116 2.257 . S
Mn109 N125 2.282 . S
Mn109 O133 2.215 . S
Mn109 O135 2.117 . S
C110 O132 1.234 . S
C110 O133 1.283 . S
C111 O123 1.281 . S
C111 O124 1.236 . S
C112 O134 1.240 . S
C112 O135 1.264 . S
O113 Mn108 2.095 . S
O113 C122 1.250 . S
O114 Mn109 2.121 . S
O114 C122 1.258 . S
C115 N116 1.326 . S
C115 C119 1.460 . S
C115 H121 0.929 . S
N116 Mn109 2.257 . S
N116 C115 1.326 . S
N116 C120 1.362 . S
C117 C118 1.258 . S
C117 C120 1.431 . S
C117 C137 1.449 . S
C118 C117 1.258 . S
C118 C119 1.477 . S
C118 H138 0.931 . S
C119 C115 1.460 . S
C119 C118 1.477 . S
C119 H139 0.930 . S
C120 N116 1.362 . S
C120 C117 1.431 . S
C120 C130 1.476 . S
H121 C115 0.929 . S
C122 O113 1.250 . S
C122 O114 1.258 . S
O123 Mn108 2.162 . S
O123 C111 1.281 . S
O124 Mn108 2.297 . S
O124 C111 1.236 . S
N125 Mn109 2.282 . S
N125 C126 1.328 . S
N125 C130 1.318 . S
C126 N125 1.328 . S
C126 C127 1.457 . S
C126 H131 0.929 . S
C127 C126 1.457 . S
C127 C128 1.291 . S
C127 H140 0.931 . S
C128 C127 1.291 . S
C128 C129 1.373 . S
C128 H141 0.929 . S
C129 C128 1.373 . S
C129 C130 1.396 . S
C129 C136 1.403 . S
C130 C120 1.476 . S
C130 N125 1.318 . S
C130 C129 1.396 . S
H131 C126 0.929 . S
O132 Mn108 2.385 . S
O132 C110 1.234 . S
O133 Mn108 2.209 . S
O133 Mn109 2.215 . S
O133 C110 1.283 . S
O134 Mn108 2.094 . S
O134 C112 1.240 . S
O135 Mn109 2.117 . S
O135 C112 1.264 . S
C136 C129 1.403 . S
C136 C137 1.399 . S
C136 H142 0.929 . S
C137 C117 1.449 . S
C137 C136 1.399 . S
C137 H143 0.930 . S
H138 C118 0.931 . S
H139 C119 0.930 . S
H140 C127 0.931 . S
H141 C128 0.929 . S
H142 C136 0.929 . S
H143 C137 0.930 . S
Mn144 O149 2.095 . S
Mn144 O159 2.162 . S
Mn144 O160 2.297 . S
Mn144 O168 2.385 . S
Mn144 O169 2.209 . S
Mn144 O170 2.094 . S
Mn145 O150 2.121 . S
Mn145 N152 2.257 . S
Mn145 N161 2.282 . S
Mn145 O169 2.215 . S
Mn145 O171 2.117 . S
C146 O168 1.234 . S
C146 O169 1.283 . S
C147 O159 1.281 . S
C147 O160 1.236 . S
C148 O170 1.240 . S
C148 O171 1.264 . S
O149 Mn144 2.095 . S
O149 C158 1.250 . S
O150 Mn145 2.121 . S
O150 C158 1.258 . S
C151 N152 1.326 . S
C151 C155 1.460 . S
C151 H157 0.929 . S
N152 Mn145 2.257 . S
N152 C151 1.326 . S
N152 C156 1.362 . S
C153 C154 1.258 . S
C153 C156 1.431 . S
C153 C173 1.449 . S
C154 C153 1.258 . S
C154 C155 1.477 . S
C154 H174 0.931 . S
C155 C151 1.460 . S
C155 C154 1.477 . S
C155 H175 0.930 . S
C156 N152 1.362 . S
C156 C153 1.431 . S
C156 C166 1.476 . S
H157 C151 0.929 . S
C158 O149 1.250 . S
C158 O150 1.258 . S
O159 Mn144 2.162 . S
O159 C147 1.281 . S
O160 Mn144 2.297 . S
O160 C147 1.236 . S
N161 Mn145 2.282 . S
N161 C162 1.328 . S
N161 C166 1.318 . S
C162 N161 1.328 . S
C162 C163 1.457 . S
C162 H167 0.929 . S
C163 C162 1.457 . S
C163 C164 1.291 . S
C163 H176 0.931 . S
C164 C163 1.291 . S
C164 C165 1.373 . S
C164 H177 0.929 . S
C165 C164 1.373 . S
C165 C166 1.396 . S
C165 C172 1.403 . S
C166 C156 1.476 . S
C166 N161 1.318 . S
C166 C165 1.396 . S
H167 C162 0.929 . S
O168 Mn144 2.385 . S
O168 C146 1.234 . S
O169 Mn144 2.209 . S
O169 Mn145 2.215 . S
O169 C146 1.283 . S
O170 Mn144 2.094 . S
O170 C148 1.240 . S
O171 Mn145 2.117 . S
O171 C148 1.264 . S
C172 C165 1.403 . S
C172 C173 1.399 . S
C172 H178 0.929 . S
C173 C153 1.449 . S
C173 C172 1.399 . S
C173 H179 0.930 . S
H174 C154 0.931 . S
H175 C155 0.930 . S
H176 C163 0.931 . S
H177 C164 0.929 . S
H178 C172 0.929 . S
H179 C173 0.930 . S
Mn180 O185 2.095 . S
Mn180 O195 2.162 . S
Mn180 O196 2.297 . S
Mn180 O204 2.385 . S
Mn180 O205 2.209 . S
Mn180 O206 2.094 . S
Mn181 O186 2.121 . S
Mn181 N188 2.257 . S
Mn181 N197 2.282 . S
Mn181 O205 2.215 . S
Mn181 O207 2.117 . S
C182 O204 1.234 . S
C182 O205 1.283 . S
C183 O195 1.281 . S
C183 O196 1.236 . S
C184 O206 1.240 . S
C184 O207 1.264 . S
O185 Mn180 2.095 . S
O185 C194 1.250 . S
O186 Mn181 2.121 . S
O186 C194 1.258 . S
C187 N188 1.326 . S
C187 C191 1.460 . S
C187 H193 0.929 . S
N188 Mn181 2.257 . S
N188 C187 1.326 . S
N188 C192 1.362 . S
C189 C190 1.258 . S
C189 C192 1.431 . S
C189 C209 1.449 . S
C190 C189 1.258 . S
C190 C191 1.477 . S
C190 H210 0.931 . S
C191 C187 1.460 . S
C191 C190 1.477 . S
C191 H211 0.930 . S
C192 N188 1.362 . S
C192 C189 1.431 . S
C192 C202 1.476 . S
H193 C187 0.929 . S
C194 O185 1.250 . S
C194 O186 1.258 . S
O195 Mn180 2.162 . S
O195 C183 1.281 . S
O196 Mn180 2.297 . S
O196 C183 1.236 . S
N197 Mn181 2.282 . S
N197 C198 1.328 . S
N197 C202 1.318 . S
C198 N197 1.328 . S
C198 C199 1.457 . S
C198 H203 0.929 . S
C199 C198 1.457 . S
C199 C200 1.291 . S
C199 H212 0.931 . S
C200 C199 1.291 . S
C200 C201 1.373 . S
C200 H213 0.929 . S
C201 C200 1.373 . S
C201 C202 1.396 . S
C201 C208 1.403 . S
C202 C192 1.476 . S
C202 N197 1.318 . S
C202 C201 1.396 . S
H203 C198 0.929 . S
O204 Mn180 2.385 . S
O204 C182 1.234 . S
O205 Mn180 2.209 . S
O205 Mn181 2.215 . S
O205 C182 1.283 . S
O206 Mn180 2.094 . S
O206 C184 1.240 . S
O207 Mn181 2.117 . S
O207 C184 1.264 . S
C208 C201 1.403 . S
C208 C209 1.399 . S
C208 H214 0.929 . S
C209 C189 1.449 . S
C209 C208 1.399 . S
C209 H215 0.930 . S
H210 C190 0.931 . S
H211 C191 0.930 . S
H212 C199 0.931 . S
H213 C200 0.929 . S
H214 C208 0.929 . S
H215 C209 0.930 . S
H216 C217 0.951 . S
C217 H216 0.951 . S
C217 C223 1.265 . S
H218 C223 0.950 . S
H219 C227 0.949 . S
H220 C228 0.950 . S
H221 C229 0.951 . S
H222 C230 0.951 . S
C223 C217 1.265 . S
C223 H218 0.950 . S
C223 C224 1.478 . S
C224 C223 1.478 . S
C224 C225 1.397 . S
C224 C241 1.394 . S
C225 C224 1.397 . S
C225 C226 1.438 . S
C225 C230 1.429 . S
C226 C225 1.438 . S
C226 C227 1.428 . S
C226 C239 1.394 . S
C227 H219 0.949 . S
C227 C226 1.428 . S
C227 C228 1.345 . S
C228 H220 0.950 . S
C228 C227 1.345 . S
C228 C229 1.424 . S
C229 H221 0.951 . S
C229 C228 1.424 . S
C229 C230 1.347 . S
C230 H222 0.951 . S
C230 C225 1.429 . S
C230 C229 1.347 . S
H231 C232 0.951 . S
C232 H231 0.951 . S
C232 C238 1.265 . S
H233 C238 0.950 . S
H234 C242 0.949 . S
H235 C243 0.950 . S
H236 C244 0.951 . S
H237 C245 0.951 . S
C238 C232 1.265 . S
C238 H233 0.950 . S
C238 C239 1.478 . S
C239 C226 1.394 . S
C239 C238 1.478 . S
C239 C240 1.397 . S
C240 C239 1.397 . S
C240 C241 1.438 . S
C240 C245 1.429 . S
C241 C224 1.394 . S
C241 C240 1.438 . S
C241 C242 1.428 . S
C242 H234 0.949 . S
C242 C241 1.428 . S
C242 C243 1.345 . S
C243 H235 0.950 . S
C243 C242 1.345 . S
C243 C244 1.424 . S
C244 H236 0.951 . S
C244 C243 1.424 . S
C244 C245 1.347 . S
C245 H237 0.951 . S
C245 C240 1.429 . S
C245 C244 1.347 . S
H246 C247 0.951 . S
C247 H246 0.951 . S
C247 C253 1.265 . S
H248 C253 0.950 . S
H249 C257 0.949 . S
H250 C258 0.950 . S
H251 C259 0.951 . S
H252 C260 0.951 . S
C253 C247 1.265 . S
C253 H248 0.950 . S
C253 C254 1.478 . S
C254 C253 1.478 . S
C254 C255 1.397 . S
C254 C271 1.394 . S
C255 C254 1.397 . S
C255 C256 1.438 . S
C255 C260 1.429 . S
C256 C255 1.438 . S
C256 C257 1.428 . S
C256 C269 1.394 . S
C257 H249 0.949 . S
C257 C256 1.428 . S
C257 C258 1.345 . S
C258 H250 0.950 . S
C258 C257 1.345 . S
C258 C259 1.424 . S
C259 H251 0.951 . S
C259 C258 1.424 . S
C259 C260 1.347 . S
C260 H252 0.951 . S
C260 C255 1.429 . S
C260 C259 1.347 . S
H261 C262 0.951 . S
C262 H261 0.951 . S
C262 C268 1.265 . S
H263 C268 0.950 . S
H264 C272 0.949 . S
H265 C273 0.950 . S
H266 C274 0.951 . S
H267 C275 0.951 . S
C268 C262 1.265 . S
C268 H263 0.950 . S
C268 C269 1.478 . S
C269 C256 1.394 . S
C269 C268 1.478 . S
C269 C270 1.397 . S
C270 C269 1.397 . S
C270 C271 1.438 . S
C270 C275 1.429 . S
C271 C254 1.394 . S
C271 C270 1.438 . S
C271 C272 1.428 . S
C272 H264 0.949 . S
C272 C271 1.428 . S
C272 C273 1.345 . S
C273 H265 0.950 . S
C273 C272 1.345 . S
C273 C274 1.424 . S
C274 H266 0.951 . S
C274 C273 1.424 . S
C274 C275 1.347 . S
C275 H267 0.951 . S
C275 C270 1.429 . S
C275 C274 1.347 . S
H276 C277 0.951 . S
C277 H276 0.951 . S
C277 C283 1.265 . S
H278 C283 0.950 . S
H279 C287 0.949 . S
H280 C288 0.950 . S
H281 C289 0.951 . S
H282 C290 0.951 . S
C283 C277 1.265 . S
C283 H278 0.950 . S
C283 C284 1.478 . S
C284 C283 1.478 . S
C284 C285 1.397 . S
C284 C301 1.394 . S
C285 C284 1.397 . S
C285 C286 1.438 . S
C285 C290 1.429 . S
C286 C285 1.438 . S
C286 C287 1.428 . S
C286 C299 1.394 . S
C287 H279 0.949 . S
C287 C286 1.428 . S
C287 C288 1.345 . S
C288 H280 0.950 . S
C288 C287 1.345 . S
C288 C289 1.424 . S
C289 H281 0.951 . S
C289 C288 1.424 . S
C289 C290 1.347 . S
C290 H282 0.951 . S
C290 C285 1.429 . S
C290 C289 1.347 . S
H291 C292 0.951 . S
C292 H291 0.951 . S
C292 C298 1.265 . S
H293 C298 0.950 . S
H294 C302 0.949 . S
H295 C303 0.950 . S
H296 C304 0.951 . S
H297 C305 0.951 . S
C298 C292 1.265 . S
C298 H293 0.950 . S
C298 C299 1.478 . S
C299 C286 1.394 . S
C299 C298 1.478 . S
C299 C300 1.397 . S
C300 C299 1.397 . S
C300 C301 1.438 . S
C300 C305 1.429 . S
C301 C284 1.394 . S
C301 C300 1.438 . S
C301 C302 1.428 . S
C302 H294 0.949 . S
C302 C301 1.428 . S
C302 C303 1.345 . S
C303 H295 0.950 . S
C303 C302 1.345 . S
C303 C304 1.424 . S
C304 H296 0.951 . S
C304 C303 1.424 . S
C304 C305 1.347 . S
C305 H297 0.951 . S
C305 C300 1.429 . S
C305 C304 1.347 . S
H306 C307 0.951 . S
C307 H306 0.951 . S
C307 C313 1.265 . S
H308 C313 0.950 . S
H309 C317 0.949 . S
H310 C318 0.950 . S
H311 C319 0.951 . S
H312 C320 0.951 . S
C313 C307 1.265 . S
C313 H308 0.950 . S
C313 C314 1.478 . S
C314 C313 1.478 . S
C314 C315 1.397 . S
C314 C331 1.394 . S
C315 C314 1.397 . S
C315 C316 1.438 . S
C315 C320 1.429 . S
C316 C315 1.438 . S
C316 C317 1.428 . S
C316 C329 1.394 . S
C317 H309 0.949 . S
C317 C316 1.428 . S
C317 C318 1.345 . S
C318 H310 0.950 . S
C318 C317 1.345 . S
C318 C319 1.424 . S
C319 H311 0.951 . S
C319 C318 1.424 . S
C319 C320 1.347 . S
C320 H312 0.951 . S
C320 C315 1.429 . S
C320 C319 1.347 . S
H321 C322 0.951 . S
C322 H321 0.951 . S
C322 C328 1.265 . S
H323 C328 0.950 . S
H324 C332 0.949 . S
H325 C333 0.950 . S
H326 C334 0.951 . S
H327 C335 0.951 . S
C328 C322 1.265 . S
C328 H323 0.950 . S
C328 C329 1.478 . S
C329 C316 1.394 . S
C329 C328 1.478 . S
C329 C330 1.397 . S
C330 C329 1.397 . S
C330 C331 1.438 . S
C330 C335 1.429 . S
C331 C314 1.394 . S
C331 C330 1.438 . S
C331 C332 1.428 . S
C332 H324 0.949 . S
C332 C331 1.428 . S
C332 C333 1.345 . S
C333 H325 0.950 . S
C333 C332 1.345 . S
C333 C334 1.424 . S
C334 H326 0.951 . S
C334 C333 1.424 . S
C334 C335 1.347 . S
C335 H327 0.951 . S
C335 C330 1.429 . S
C335 C334 1.347 . S
H336 C337 0.951 . S
C337 H336 0.951 . S
C337 C343 1.265 . S
H338 C343 0.950 . S
H339 C347 0.949 . S
H340 C348 0.950 . S
H341 C349 0.951 . S
H342 C350 0.951 . S
C343 C337 1.265 . S
C343 H338 0.950 . S
C343 C344 1.478 . S
C344 C343 1.478 . S
C344 C345 1.397 . S
C344 C361 1.394 . S
C345 C344 1.397 . S
C345 C346 1.438 . S
C345 C350 1.429 . S
C346 C345 1.438 . S
C346 C347 1.428 . S
C346 C359 1.394 . S
C347 H339 0.949 . S
C347 C346 1.428 . S
C347 C348 1.345 . S
C348 H340 0.950 . S
C348 C347 1.345 . S
C348 C349 1.424 . S
C349 H341 0.951 . S
C349 C348 1.424 . S
C349 C350 1.347 . S
C350 H342 0.951 . S
C350 C345 1.429 . S
C350 C349 1.347 . S
H351 C352 0.951 . S
C352 H351 0.951 . S
C352 C358 1.265 . S
H353 C358 0.950 . S
H354 C362 0.949 . S
H355 C363 0.950 . S
H356 C364 0.951 . S
H357 C365 0.951 . S
C358 C352 1.265 . S
C358 H353 0.950 . S
C358 C359 1.478 . S
C359 C346 1.394 . S
C359 C358 1.478 . S
C359 C360 1.397 . S
C360 C359 1.397 . S
C360 C361 1.438 . S
C360 C365 1.429 . S
C361 C344 1.394 . S
C361 C360 1.438 . S
C361 C362 1.428 . S
C362 H354 0.949 . S
C362 C361 1.428 . S
C362 C363 1.345 . S
C363 H355 0.950 . S
C363 C362 1.345 . S
C363 C364 1.424 . S
C364 H356 0.951 . S
C364 C363 1.424 . S
C364 C365 1.347 . S
C365 H357 0.951 . S
C365 C360 1.429 . S
C365 C364 1.347 . S
H366 C367 0.951 . S
C367 H366 0.951 . S
C367 C373 1.265 . S
H368 C373 0.950 . S
H369 C377 0.949 . S
H370 C378 0.950 . S
H371 C379 0.951 . S
H372 C380 0.951 . S
C373 C367 1.265 . S
C373 H368 0.950 . S
C373 C374 1.478 . S
C374 C373 1.478 . S
C374 C375 1.397 . S
C374 C391 1.394 . S
C375 C374 1.397 . S
C375 C376 1.438 . S
C375 C380 1.429 . S
C376 C375 1.438 . S
C376 C377 1.428 . S
C376 C389 1.394 . S
C377 H369 0.949 . S
C377 C376 1.428 . S
C377 C378 1.345 . S
C378 H370 0.950 . S
C378 C377 1.345 . S
C378 C379 1.424 . S
C379 H371 0.951 . S
C379 C378 1.424 . S
C379 C380 1.347 . S
C380 H372 0.951 . S
C380 C375 1.429 . S
C380 C379 1.347 . S
H381 C382 0.951 . S
C382 H381 0.951 . S
C382 C388 1.265 . S
H383 C388 0.950 . S
H384 C392 0.949 . S
H385 C393 0.950 . S
H386 C394 0.951 . S
H387 C395 0.951 . S
C388 C382 1.265 . S
C388 H383 0.950 . S
C388 C389 1.478 . S
C389 C376 1.394 . S
C389 C388 1.478 . S
C389 C390 1.397 . S
C390 C389 1.397 . S
C390 C391 1.438 . S
C390 C395 1.429 . S
C391 C374 1.394 . S
C391 C390 1.438 . S
C391 C392 1.428 . S
C392 H384 0.949 . S
C392 C391 1.428 . S
C392 C393 1.345 . S
C393 H385 0.950 . S
C393 C392 1.345 . S
C393 C394 1.424 . S
C394 H386 0.951 . S
C394 C393 1.424 . S
C394 C395 1.347 . S
C395 H387 0.951 . S
C395 C390 1.429 . S
C395 C394 1.347 . S
H396 C397 0.951 . S
C397 H396 0.951 . S
C397 C403 1.265 . S
H398 C403 0.950 . S
H399 C407 0.949 . S
H400 C408 0.950 . S
H401 C409 0.951 . S
H402 C410 0.951 1_556 S
C403 C397 1.265 . S
C403 H398 0.950 . S
C403 C404 1.478 . S
C404 C403 1.478 . S
C404 C405 1.397 1_556 S
C404 C421 1.394 1_565 S
C405 C404 1.397 1_554 S
C405 C406 1.438 . S
C405 C410 1.429 . S
C406 C405 1.438 . S
C406 C407 1.428 . S
C406 C419 1.394 1_565 S
C407 H399 0.949 . S
C407 C406 1.428 . S
C407 C408 1.345 . S
C408 H400 0.950 . S
C408 C407 1.345 . S
C408 C409 1.424 . S
C409 H401 0.951 . S
C409 C408 1.424 . S
C409 C410 1.347 . S
C410 H402 0.951 1_554 S
C410 C405 1.429 . S
C410 C409 1.347 . S
H411 C412 0.951 . S
C412 H411 0.951 . S
C412 C418 1.265 . S
H413 C418 0.950 . S
H414 C422 0.949 . S
H415 C423 0.950 . S
H416 C424 0.951 . S
H417 C425 0.951 . S
C418 C412 1.265 . S
C418 H413 0.950 . S
C418 C419 1.478 . S
C419 C406 1.394 1_545 S
C419 C418 1.478 . S
C419 C420 1.397 . S
C420 C419 1.397 . S
C420 C421 1.438 1_554 S
C420 C425 1.429 . S
C421 C404 1.394 1_545 S
C421 C420 1.438 1_556 S
C421 C422 1.428 . S
C422 H414 0.949 . S
C422 C421 1.428 . S
C422 C423 1.345 . S
C423 H415 0.950 . S
C423 C422 1.345 . S
C423 C424 1.424 . S
C424 H416 0.951 . S
C424 C423 1.424 . S
C424 C425 1.347 1_556 S
C425 H417 0.951 . S
C425 C420 1.429 . S
C425 C424 1.347 1_554 S
H426 C427 0.951 . S
C427 H426 0.951 . S
C427 C433 1.265 . S
H428 C433 0.950 . S
H429 C437 0.949 . S
H430 C438 0.950 . S
H431 C439 0.951 . S
H432 C440 0.951 . S
C433 C427 1.265 . S
C433 H428 0.950 . S
C433 C434 1.478 . S
C434 C433 1.478 . S
C434 C435 1.397 . S
C434 C451 1.394 . S
C435 C434 1.397 . S
C435 C436 1.438 . S
C435 C440 1.429 . S
C436 C435 1.438 . S
C436 C437 1.428 . S
C436 C449 1.394 . S
C437 H429 0.949 . S
C437 C436 1.428 . S
C437 C438 1.345 . S
C438 H430 0.950 . S
C438 C437 1.345 . S
C438 C439 1.424 . S
C439 H431 0.951 . S
C439 C438 1.424 . S
C439 C440 1.347 . S
C440 H432 0.951 . S
C440 C435 1.429 . S
C440 C439 1.347 . S
H441 C442 0.951 . S
C442 H441 0.951 . S
C442 C448 1.265 . S
H443 C448 0.950 . S
H444 C452 0.949 . S
H445 C453 0.950 . S
H446 C454 0.951 . S
H447 C455 0.951 . S
C448 C442 1.265 . S
C448 H443 0.950 . S
C448 C449 1.478 . S
C449 C436 1.394 . S
C449 C448 1.478 . S
C449 C450 1.397 . S
C450 C449 1.397 . S
C450 C451 1.438 . S
C450 C455 1.429 . S
C451 C434 1.394 . S
C451 C450 1.438 . S
C451 C452 1.428 . S
C452 H444 0.949 . S
C452 C451 1.428 . S
C452 C453 1.345 . S
C453 H445 0.950 . S
C453 C452 1.345 . S
C453 C454 1.424 . S
C454 H446 0.951 . S
C454 C453 1.424 . S
C454 C455 1.347 . S
C455 H447 0.951 . S
C455 C450 1.429 . S
C455 C454 1.347 . S
H456 C457 0.951 . S
C457 H456 0.951 . S
C457 C463 1.265 . S
H458 C463 0.950 . S
H459 C467 0.949 . S
H460 C468 0.950 . S
H461 C469 0.951 . S
H462 C470 0.951 . S
C463 C457 1.265 . S
C463 H458 0.950 . S
C463 C464 1.478 . S
C464 C463 1.478 . S
C464 C465 1.397 1_455 S
C464 C481 1.394 . S
C465 C464 1.397 1_655 S
C465 C466 1.438 1_556 S
C465 C470 1.429 . S
C466 C465 1.438 1_554 S
C466 C467 1.428 . S
C466 C479 1.394 . S
C467 H459 0.949 . S
C467 C466 1.428 . S
C467 C468 1.345 1_554 S
C468 H460 0.950 . S
C468 C467 1.345 1_556 S
C468 C469 1.424 . S
C469 H461 0.951 . S
C469 C468 1.424 . S
C469 C470 1.347 . S
C470 H462 0.951 . S
C470 C465 1.429 . S
C470 C469 1.347 . S
H471 C472 0.951 . S
C472 H471 0.951 . S
C472 C478 1.265 . S
H473 C478 0.950 . S
H474 C482 0.949 . S
H475 C483 0.950 . S
H476 C484 0.951 . S
H477 C485 0.951 . S
C478 C472 1.265 . S
C478 H473 0.950 . S
C478 C479 1.478 . S
C479 C466 1.394 . S
C479 C478 1.478 . S
C479 C480 1.397 1_655 S
C480 C479 1.397 1_455 S
C480 C481 1.438 1_554 S
C480 C485 1.429 . S
C481 C464 1.394 . S
C481 C480 1.438 1_556 S
C481 C482 1.428 . S
C482 H474 0.949 . S
C482 C481 1.428 . S
C482 C483 1.345 1_556 S
C483 H475 0.950 . S
C483 C482 1.345 1_554 S
C483 C484 1.424 . S
C484 H476 0.951 . S
C484 C483 1.424 . S
C484 C485 1.347 . S
C485 H477 0.951 . S
C485 C480 1.429 . S
C485 C484 1.347 . S
H486 C487 0.951 . S
C487 H486 0.951 . S
C487 C493 1.265 . S
H488 C493 0.950 . S
H489 C497 0.949 . S
H490 C498 0.950 . S
H491 C499 0.951 . S
H492 C500 0.951 . S
C493 C487 1.265 . S
C493 H488 0.950 . S
C493 C494 1.478 . S
C494 C493 1.478 . S
C494 C495 1.397 . S
C494 C511 1.394 1_545 S
C495 C494 1.397 . S
C495 C496 1.438 . S
C495 C500 1.429 . S
C496 C495 1.438 . S
C496 C497 1.428 . S
C496 C509 1.394 1_545 S
C497 H489 0.949 . S
C497 C496 1.428 . S
C497 C498 1.345 . S
C498 H490 0.950 . S
C498 C497 1.345 . S
C498 C499 1.424 . S
C499 H491 0.951 . S
C499 C498 1.424 . S
C499 C500 1.347 . S
C500 H492 0.951 . S
C500 C495 1.429 . S
C500 C499 1.347 . S
H501 C502 0.951 . S
C502 H501 0.951 . S
C502 C508 1.265 . S
H503 C508 0.950 . S
H504 C512 0.949 1_545 S
H505 C513 0.950 . S
H506 C514 0.951 . S
H507 C515 0.951 . S
C508 C502 1.265 . S
C508 H503 0.950 . S
C508 C509 1.478 . S
C509 C496 1.394 1_565 S
C509 C508 1.478 . S
C509 C510 1.397 . S
C510 C509 1.397 . S
C510 C511 1.438 . S
C510 C515 1.429 . S
C511 C494 1.394 1_565 S
C511 C510 1.438 . S
C511 C512 1.428 . S
C512 H504 0.949 1_565 S
C512 C511 1.428 . S
C512 C513 1.345 . S
C513 H505 0.950 . S
C513 C512 1.345 . S
C513 C514 1.424 . S
C514 H506 0.951 . S
C514 C513 1.424 . S
C514 C515 1.347 . S
C515 H507 0.951 . S
C515 C510 1.429 . S
C515 C514 1.347 . S
H516 C517 0.951 . S
C517 H516 0.951 . S
C517 C523 1.265 . S
H518 C523 0.950 . S
H519 C527 0.949 . S
H520 C528 0.950 . S
H521 C529 0.951 . S
H522 C530 0.951 1_556 S
C523 C517 1.265 . S
C523 H518 0.950 . S
C523 C524 1.478 . S
C524 C523 1.478 . S
C524 C525 1.397 . S
C524 C541 1.394 . S
C525 C524 1.397 . S
C525 C526 1.438 1_556 S
C525 C530 1.429 1_556 S
C526 C525 1.438 1_554 S
C526 C527 1.428 . S
C526 C539 1.394 . S
C527 H519 0.949 . S
C527 C526 1.428 . S
C527 C528 1.345 . S
C528 H520 0.950 . S
C528 C527 1.345 . S
C528 C529 1.424 . S
C529 H521 0.951 . S
C529 C528 1.424 . S
C529 C530 1.347 . S
C530 H522 0.951 1_554 S
C530 C525 1.429 1_554 S
C530 C529 1.347 . S
H531 C532 0.951 . S
C532 H531 0.951 . S
C532 C538 1.265 . S
H533 C538 0.950 . S
H534 C542 0.949 . S
H535 C543 0.950 . S
H536 C544 0.951 . S
H537 C545 0.951 . S
C538 C532 1.265 . S
C538 H533 0.950 . S
C538 C539 1.478 . S
C539 C526 1.394 . S
C539 C538 1.478 . S
C539 C540 1.397 1_554 S
C540 C539 1.397 1_556 S
C540 C541 1.438 . S
C540 C545 1.429 . S
C541 C524 1.394 . S
C541 C540 1.438 . S
C541 C542 1.428 . S
C542 H534 0.949 . S
C542 C541 1.428 . S
C542 C543 1.345 . S
C543 H535 0.950 . S
C543 C542 1.345 . S
C543 C544 1.424 . S
C544 H536 0.951 . S
C544 C543 1.424 . S
C544 C545 1.347 . S
C545 H537 0.951 . S
C545 C540 1.429 . S
C545 C544 1.347 . S
H546 C547 0.951 . S
C547 H546 0.951 . S
C547 C553 1.265 . S
H548 C553 0.950 . S
H549 C557 0.949 . S
H550 C558 0.950 . S
H551 C559 0.951 . S
H552 C560 0.951 . S
C553 C547 1.265 . S
C553 H548 0.950 . S
C553 C554 1.478 . S
C554 C553 1.478 . S
C554 C555 1.397 . S
C554 C571 1.394 . S
C555 C554 1.397 . S
C555 C556 1.438 1_455 S
C555 C560 1.429 . S
C556 C555 1.438 1_655 S
C556 C557 1.428 . S
C556 C569 1.394 . S
C557 H549 0.949 . S
C557 C556 1.428 . S
C557 C558 1.345 . S
C558 H550 0.950 . S
C558 C557 1.345 . S
C558 C559 1.424 . S
C559 H551 0.951 . S
C559 C558 1.424 . S
C559 C560 1.347 1_655 S
C560 H552 0.951 . S
C560 C555 1.429 . S
C560 C559 1.347 1_455 S
H561 C562 0.951 . S
C562 H561 0.951 . S
C562 C568 1.265 . S
H563 C568 0.950 . S
H564 C572 0.949 . S
H565 C573 0.950 . S
H566 C574 0.951 . S
H567 C575 0.951 . S
C568 C562 1.265 . S
C568 H563 0.950 . S
C568 C569 1.478 . S
C569 C556 1.394 . S
C569 C568 1.478 . S
C569 C570 1.397 . S
C570 C569 1.397 . S
C570 C571 1.438 1_655 S
C570 C575 1.429 . S
C571 C554 1.394 . S
C571 C570 1.438 1_455 S
C571 C572 1.428 . S
C572 H564 0.949 . S
C572 C571 1.428 . S
C572 C573 1.345 . S
C573 H565 0.950 . S
C573 C572 1.345 . S
C573 C574 1.424 . S
C574 H566 0.951 . S
C574 C573 1.424 . S
C574 C575 1.347 1_455 S
C575 H567 0.951 . S
C575 C570 1.429 . S
C575 C574 1.347 1_655 S
C217 C3 1.041 . S
C232 C147 0.951 . S
C247 C38 0.976 . S
C262 C182 1.062 . S
C277 C2 1.074 . S
C292 C74 0.967 . S
C307 C111 1.055 . S
C322 C39 1.007 . S
C337 C146 0.997 . S
C352 C75 1.009 . S
C367 C110 1.070 . S
C382 C183 0.986 . S
C397 C112 1.390 . S
C412 C14 1.374 . S
C427 C158 1.302 . S
C442 C40 1.376 . S
C457 C184 1.386 . S
C472 C76 1.395 . S
C487 C4 1.398 . S
C502 C122 1.346 . S
C517 C50 1.260 . S
C532 C148 1.351 . S
C547 C194 1.325 . S
C562 C86 1.268 . S
