# Generated by pormake.
# Topology wiu, (6)-cn, num edge types: 1
# Building blocks:
#     Node 0, Type 0, BuildingBlock: HISSIN_clean_sbu_0, # of connection points: 6
#     Node 1, Type 0, BuildingBlock: HISSIN_clean_sbu_0, # of connection points: 6
#     Node 2, Type 0, BuildingBlock: HISSIN_clean_sbu_0, # of connection points: 6
#     Node 3, Type 0, BuildingBlock: HISSIN_clean_sbu_0, # of connection points: 6
#     Node 4, Type 0, BuildingBlock: HISSIN_clean_sbu_0, # of connection points: 6
#     Node 5, Type 0, BuildingBlock: HISSIN_clean_sbu_0, # of connection points: 6
#     Node 6, Type 0, BuildingBlock: HISSIN_clean_sbu_0, # of connection points: 6
#     Node 7, Type 0, BuildingBlock: HISSIN_clean_sbu_0, # of connection points: 6
#     Node 8, Type 0, BuildingBlock: HISSIN_clean_sbu_0, # of connection points: 6
#     Node 9, Type 0, BuildingBlock: HISSIN_clean_sbu_0, # of connection points: 6
#     Node 10, Type 0, BuildingBlock: HISSIN_clean_sbu_0, # of connection points: 6
#     Node 11, Type 0, BuildingBlock: HISSIN_clean_sbu_0, # of connection points: 6
#     Node 12, Type 0, BuildingBlock: HISSIN_clean_sbu_0, # of connection points: 6
#     Node 13, Type 0, BuildingBlock: HISSIN_clean_sbu_0, # of connection points: 6
#     Node 14, Type 0, BuildingBlock: HISSIN_clean_sbu_0, # of connection points: 6
#     Node 15, Type 0, BuildingBlock: HISSIN_clean_sbu_0, # of connection points: 6
#     Edge 16, Type (0, 0), BuildingBlock: XIVTED_clean_linker_0, # of connection points: 2
#     Edge 17, Type (0, 0), BuildingBlock: XIVTED_clean_linker_0, # of connection points: 2
#     Edge 18, Type (0, 0), BuildingBlock: XIVTED_clean_linker_0, # of connection points: 2
#     Edge 19, Type (0, 0), BuildingBlock: XIVTED_clean_linker_0, # of connection points: 2
#     Edge 20, Type (0, 0), BuildingBlock: XIVTED_clean_linker_0, # of connection points: 2
#     Edge 21, Type (0, 0), BuildingBlock: XIVTED_clean_linker_0, # of connection points: 2
#     Edge 22, Type (0, 0), BuildingBlock: XIVTED_clean_linker_0, # of connection points: 2
#     Edge 23, Type (0, 0), BuildingBlock: XIVTED_clean_linker_0, # of connection points: 2
#     Edge 24, Type (0, 0), BuildingBlock: XIVTED_clean_linker_0, # of connection points: 2
#     Edge 25, Type (0, 0), BuildingBlock: XIVTED_clean_linker_0, # of connection points: 2
#     Edge 26, Type (0, 0), BuildingBlock: XIVTED_clean_linker_0, # of connection points: 2
#     Edge 27, Type (0, 0), BuildingBlock: XIVTED_clean_linker_0, # of connection points: 2
#     Edge 28, Type (0, 0), BuildingBlock: XIVTED_clean_linker_0, # of connection points: 2
#     Edge 29, Type (0, 0), BuildingBlock: XIVTED_clean_linker_0, # of connection points: 2
#     Edge 30, Type (0, 0), BuildingBlock: XIVTED_clean_linker_0, # of connection points: 2
#     Edge 31, Type (0, 0), BuildingBlock: XIVTED_clean_linker_0, # of connection points: 2
#     Edge 32, Type (0, 0), BuildingBlock: XIVTED_clean_linker_0, # of connection points: 2
#     Edge 33, Type (0, 0), BuildingBlock: XIVTED_clean_linker_0, # of connection points: 2
#     Edge 34, Type (0, 0), BuildingBlock: XIVTED_clean_linker_0, # of connection points: 2
#     Edge 35, Type (0, 0), BuildingBlock: XIVTED_clean_linker_0, # of connection points: 2
#     Edge 36, Type (0, 0), BuildingBlock: XIVTED_clean_linker_0, # of connection points: 2
#     Edge 37, Type (0, 0), BuildingBlock: XIVTED_clean_linker_0, # of connection points: 2
#     Edge 38, Type (0, 0), BuildingBlock: XIVTED_clean_linker_0, # of connection points: 2
#     Edge 39, Type (0, 0), BuildingBlock: XIVTED_clean_linker_0, # of connection points: 2
#     Edge 40, Type (0, 0), BuildingBlock: XIVTED_clean_linker_0, # of connection points: 2
#     Edge 41, Type (0, 0), BuildingBlock: XIVTED_clean_linker_0, # of connection points: 2
#     Edge 42, Type (0, 0), BuildingBlock: XIVTED_clean_linker_0, # of connection points: 2
#     Edge 43, Type (0, 0), BuildingBlock: XIVTED_clean_linker_0, # of connection points: 2
#     Edge 44, Type (0, 0), BuildingBlock: XIVTED_clean_linker_0, # of connection points: 2
#     Edge 45, Type (0, 0), BuildingBlock: XIVTED_clean_linker_0, # of connection points: 2
#     Edge 46, Type (0, 0), BuildingBlock: XIVTED_clean_linker_0, # of connection points: 2
#     Edge 47, Type (0, 0), BuildingBlock: XIVTED_clean_linker_0, # of connection points: 2
#     Edge 48, Type (0, 0), BuildingBlock: XIVTED_clean_linker_0, # of connection points: 2
#     Edge 49, Type (0, 0), BuildingBlock: XIVTED_clean_linker_0, # of connection points: 2
#     Edge 50, Type (0, 0), BuildingBlock: XIVTED_clean_linker_0, # of connection points: 2
#     Edge 51, Type (0, 0), BuildingBlock: XIVTED_clean_linker_0, # of connection points: 2
#     Edge 52, Type (0, 0), BuildingBlock: XIVTED_clean_linker_0, # of connection points: 2
#     Edge 53, Type (0, 0), BuildingBlock: XIVTED_clean_linker_0, # of connection points: 2
#     Edge 54, Type (0, 0), BuildingBlock: XIVTED_clean_linker_0, # of connection points: 2
#     Edge 55, Type (0, 0), BuildingBlock: XIVTED_clean_linker_0, # of connection points: 2
#     Edge 56, Type (0, 0), BuildingBlock: XIVTED_clean_linker_0, # of connection points: 2
#     Edge 57, Type (0, 0), BuildingBlock: XIVTED_clean_linker_0, # of connection points: 2
#     Edge 58, Type (0, 0), BuildingBlock: XIVTED_clean_linker_0, # of connection points: 2
#     Edge 59, Type (0, 0), BuildingBlock: XIVTED_clean_linker_0, # of connection points: 2
#     Edge 60, Type (0, 0), BuildingBlock: XIVTED_clean_linker_0, # of connection points: 2
#     Edge 61, Type (0, 0), BuildingBlock: XIVTED_clean_linker_0, # of connection points: 2
#     Edge 62, Type (0, 0), BuildingBlock: XIVTED_clean_linker_0, # of connection points: 2
#     Edge 63, Type (0, 0), BuildingBlock: XIVTED_clean_linker_0, # of connection points: 2
# Relax obj value: 0.522
# Max RMSD: 0.314
# Mean RMSD: 0.314
data_MOF--net-wiu--node1-HISSIN_clean_sbu_0--edge1-XIVTED_clean_linker_0
_symmetry_space_group_name_H-M    P1
_symmetry_Int_Tables_number       1
_symmetry_cell_setting            triclinic
loop_
_symmetry_equiv_pos_as_xyz
'x, y, z'
_cell_length_a     38.431358
_cell_length_b     38.389981
_cell_length_c     54.834377
_cell_angle_alpha  89.474448
_cell_angle_beta   89.635861
_cell_angle_gamma 90.075096
loop_
_atom_site_label
_atom_site_type_symbol
_atom_site_fract_x
_atom_site_fract_y
_atom_site_fract_z
_atom_type_partial_charge
Eu0 Eu 0.33653 0.15581 0.27147 0.0
Eu1 Eu 0.38481 0.09548 0.2494 0.0
C2 C 0.30472 0.08205 0.26053 0.0
C3 C 0.28341 0.23582 0.29301 0.0
C4 C 0.25073 0.24471 0.30233 0.0
C5 C 0.30019 0.29652 0.29229 0.0
C6 C 0.24258 0.27941 0.30645 0.0
C7 C 0.30833 0.26164 0.28817 0.0
C8 C 0.26705 0.30566 0.30116 0.0
C9 C 0.29071 0.19932 0.28877 0.0
O10 O 0.3552 0.11011 0.21538 0.0
O11 O 0.31872 0.15151 0.2315 0.0
C12 C 0.32914 0.132 0.21309 0.0
O13 O 0.38546 0.18685 0.26335 0.0
O14 O 0.40257 0.04237 0.25588 0.0
O15 O 0.42238 0.072 0.22473 0.0
O16 O 0.42275 0.14204 0.25395 0.0
C17 C 0.41698 0.17558 0.25818 0.0
O18 O 0.35854 0.13019 0.30597 0.0
O19 O 0.37744 0.07976 0.28871 0.0
O20 O 0.3294 0.0766 0.2445 0.0
O21 O 0.29136 0.18925 0.26618 0.0
O22 O 0.31547 0.18553 0.30167 0.0
O23 O 0.30896 0.10528 0.2774 0.0
C24 C 0.40767 1.01293 0.21892 0.0
C25 C 0.3898 0.02003 0.19718 0.0
C26 C 0.41494 0.95345 0.20596 0.0
C27 C 0.38925 0.99486 0.17899 0.0
C28 C 0.41653 0.97835 0.22441 0.0
C29 C 0.41081 0.96536 0.18175 0.0
C30 C 0.41853 0.04124 0.23492 0.0
C31 C 0.36924 0.09773 0.30805 0.0
H32 H 0.23139 0.2248 0.30621 0.0
H33 H 0.31928 0.31636 0.28775 0.0
H34 H 0.21696 0.28579 0.31344 0.0
H35 H 0.33372 0.25485 0.28095 0.0
H36 H 0.37927 0.04566 0.19338 0.0
H37 H 0.42564 0.92786 0.20963 0.0
H38 H 0.37923 1.00252 0.16135 0.0
H39 H 0.42731 0.97133 0.24198 0.0
Eu40 Eu 0.62509 0.58648 0.52342 0.0
Eu41 Eu 0.6846 0.6341 0.499 0.0
C42 C 0.69822 0.55424 0.5117 0.0
C43 C 0.54362 0.53564 0.54529 0.0
C44 C 0.53378 0.50559 0.55809 0.0
C45 C 0.48324 0.55152 0.54033 0.0
C46 C 0.49878 0.49827 0.5619 0.0
C47 C 0.51844 0.55888 0.53658 0.0
C48 C 0.47321 0.52087 0.55275 0.0
C49 C 0.5804 0.54187 0.54131 0.0
O50 O 0.66507 0.60672 0.46531 0.0
O51 O 0.63145 0.56523 0.48449 0.0
C52 C 0.64682 0.57774 0.46463 0.0
O53 O 0.59485 0.63649 0.51625 0.0
O54 O 0.73892 0.64889 0.50323 0.0
O55 O 0.70838 0.67135 0.47379 0.0
O56 O 0.63881 0.67269 0.50256 0.0
C57 C 0.60582 0.66741 0.50882 0.0
O58 O 0.65319 0.60494 0.55744 0.0
O59 O 0.69976 0.63129 0.53875 0.0
O60 O 0.70269 0.57832 0.49494 0.0
O61 O 0.59128 0.54155 0.51878 0.0
O62 O 0.59425 0.56677 0.55391 0.0
O63 O 0.6755 0.55884 0.52909 0.0
C64 C 0.76618 0.65429 0.46523 0.0
C65 C 0.75692 0.63776 0.44348 0.0
C66 C 0.8251 0.65933 0.45005 0.0
C67 C 0.78093 0.63679 0.42431 0.0
C68 C 0.80143 0.66128 0.46949 0.0
C69 C 0.8116 0.65682 0.42628 0.0
C70 C 0.73949 0.66571 0.48256 0.0
C71 C 0.68406 0.61962 0.55848 0.0
H72 H 0.5532 0.48757 0.56492 0.0
H73 H 0.46395 0.56906 0.53281 0.0
H74 H 0.49169 0.47463 0.57168 0.0
H75 H 0.526 0.58224 0.52663 0.0
H76 H 0.73059 0.62865 0.44052 0.0
H77 H 0.8513 0.66885 0.45285 0.0
H78 H 0.77172 0.62801 0.4068 0.0
H79 H 0.80997 0.67099 0.48695 0.0
Eu80 Eu 0.19511 0.87676 0.7746 0.0
Eu81 Eu 0.14666 0.93507 0.75072 0.0
C82 C 0.22616 0.94986 0.76217 0.0
C83 C 0.24682 0.79524 0.79253 0.0
C84 C 0.27855 0.78461 0.80236 0.0
C85 C 0.23255 0.7355 0.78319 0.0
C86 C 0.28714 0.74946 0.80296 0.0
C87 C 0.22401 0.77076 0.78258 0.0
C88 C 0.26405 0.72457 0.79363 0.0
C89 C 0.23728 0.83171 0.79415 0.0
O90 O 0.1742 0.91514 0.71687 0.0
O91 O 0.21604 0.8814 0.73528 0.0
C92 C 0.20313 0.89683 0.71565 0.0
O93 O 0.1484 0.84516 0.76215 0.0
O94 O 0.12931 0.9885 0.75553 0.0
O95 O 0.11017 0.95819 0.72508 0.0
O96 O 0.1088 0.8892 0.75743 0.0
C97 C 0.11607 0.85552 0.75896 0.0
O98 O 0.17414 0.90422 0.80853 0.0
O99 O 0.15134 0.95217 0.78977 0.0
O100 O 0.20215 0.95361 0.74557 0.0
O101 O 0.24583 0.85147 0.77561 0.0
O102 O 0.20608 0.83803 0.80247 0.0
O103 O 0.22133 0.92791 0.78012 0.0
C104 C 0.12492 0.0173 0.71802 0.0
C105 C 0.14206 1.01001 0.69598 0.0
C106 C 0.11855 0.0771 0.70474 0.0
C107 C 0.14272 0.03534 0.67759 0.0
C108 C 0.11693 0.05204 0.72341 0.0
C109 C 0.12198 0.06534 0.68057 0.0
C110 C 0.11381 0.98916 0.73453 0.0
C111 C 0.16124 0.93592 0.8096 0.0
H112 H 0.29636 0.80343 0.81004 0.0
H113 H 0.21467 0.71684 0.77545 0.0
H114 H 0.31151 0.74172 0.8112 0.0
H115 H 0.19946 0.77887 0.77474 0.0
H116 H 0.15189 0.98416 0.69218 0.0
H117 H 0.1081 0.10274 0.70835 0.0
H118 H 0.15194 0.02754 0.65977 0.0
H119 H 0.10663 0.05909 0.74113 0.0
Eu120 Eu 0.9051 0.44513 1.02345 0.0
Eu121 Eu 0.84656 0.39806 0.99944 0.0
C122 C 0.83282 0.47715 1.01193 0.0
C123 C 0.98518 0.49762 1.04408 0.0
C124 C 0.99401 0.53086 1.05217 0.0
C125 C 0.04601 0.48241 1.04121 0.0
C126 C 0.02877 0.53984 1.05503 0.0
C127 C 1.01117 0.47346 1.03833 0.0
C128 C 0.05503 0.51561 1.04972 0.0
C129 C 0.94871 0.4881 1.04331 0.0
O130 O 0.86879 0.42493 0.96571 0.0
O131 O 0.90028 0.46764 0.98452 0.0
C132 C 0.88603 0.45459 0.9647 0.0
O133 O 0.93624 0.39735 1.01194 0.0
O134 O 0.79179 0.38414 1.00235 0.0
O135 O 0.82424 0.36091 0.9742 0.0
O136 O 0.89116 0.35907 1.00642 0.0
C137 C 0.92495 0.36528 1.00858 0.0
O138 O 0.87727 0.42367 1.05734 0.0
O139 O 0.82958 0.40052 1.03889 0.0
O140 O 0.82934 0.45407 0.99478 0.0
O141 O 0.9322 0.4951 1.02318 0.0
O142 O 0.94067 0.45771 1.05253 0.0
O143 O 0.85387 0.47076 1.0299 0.0
C144 C 0.76777 0.37976 0.96355 0.0
C145 C 0.77935 0.39522 0.94164 0.0
C146 C 0.70939 0.37937 0.94755 0.0
C147 C 0.75634 0.39799 0.92213 0.0
C148 C 0.73188 0.3757 0.96738 0.0
C149 C 0.72417 0.38034 0.92395 0.0
C150 C 0.79258 0.36742 0.98184 0.0
C151 C 0.8458 0.41023 1.05863 0.0
H152 H 0.97399 0.54966 1.05666 0.0
H153 H 0.06585 0.46359 1.03648 0.0
H154 H 0.0351 0.56559 1.06161 0.0
H155 H 1.00449 0.4477 1.03191 0.0
H156 H 0.80639 0.40237 0.93895 0.0
H157 H 0.68229 0.37248 0.95018 0.0
H158 H 0.76689 0.40611 0.90465 0.0
H159 H 0.72169 0.36722 0.98492 0.0
Eu160 Eu 0.64748 0.93336 1.05071 0.0
Eu161 Eu 0.69474 0.87348 1.02818 0.0
C162 C 0.61353 0.85498 1.04061 0.0
C163 C 0.62639 0.01702 1.08117 0.0
C164 C 0.6433 1.00975 1.10324 0.0
C165 C 0.61904 0.07658 1.09397 0.0
C166 C 0.6433 0.03493 1.12143 0.0
C167 C 0.61806 0.0517 1.07549 0.0
C168 C 0.62202 0.06455 1.11824 0.0
C169 C 0.61552 0.98885 1.06509 0.0
O170 O 0.67148 0.89727 0.99341 0.0
O171 O 0.65311 0.94774 1.01097 0.0
C172 C 0.66074 0.92981 0.99147 0.0
O173 O 0.70334 0.95196 1.05446 0.0
O174 O 0.73226 0.83266 1.036 0.0
O175 O 0.72439 0.84983 0.99866 0.0
O176 O 0.72089 0.92413 1.02058 0.0
C177 C 0.72657 0.94714 1.0373 0.0
O178 O 0.67257 0.91256 1.08524 0.0
O179 O 0.71712 0.88391 1.06633 0.0
O180 O 0.64508 0.84316 1.03606 0.0
O181 O 0.63222 0.98726 1.04446 0.0
O182 O 0.61053 0.95822 1.07521 0.0
O183 O 0.60817 0.88866 1.04445 0.0
C184 C 0.7495 0.79475 1.00498 0.0
C185 C 0.7838 0.78721 0.9983 0.0
C186 C 0.73342 0.73458 0.99928 0.0
C187 C 0.79315 0.7533 0.99258 0.0
C188 C 0.72408 0.76864 1.00503 0.0
C189 C 0.76823 0.72656 0.9936 0.0
C190 C 0.74179 0.82961 1.0133 0.0
C191 C 0.70301 0.89702 1.08625 0.0
H192 H 0.65339 0.98399 1.10724 0.0
H193 H 0.60852 0.10218 1.09013 0.0
H194 H 0.65245 0.02716 1.13928 0.0
H195 H 0.60798 0.05879 1.05772 0.0
H196 H 0.8036 0.80736 0.99828 0.0
H197 H 0.71388 0.71428 1.00055 0.0
H198 H 0.82009 0.74777 0.98815 0.0
H199 H 0.69749 0.77437 1.01032 0.0
Eu200 Eu 0.3434 0.39498 0.79856 0.0
Eu201 Eu 0.40637 0.4401 0.77743 0.0
C202 C 0.42056 0.35978 0.7928 0.0
C203 C 0.25882 0.37518 0.82959 0.0
C204 C 0.26646 0.39219 0.85145 0.0
C205 C 0.20002 0.36606 0.84402 0.0
C206 C 0.24198 0.3914 0.87034 0.0
C207 C 0.22424 0.36589 0.82486 0.0
C208 C 0.2128 0.36935 0.86793 0.0
C209 C 0.28668 0.36453 0.81298 0.0
O210 O 0.37984 0.42321 0.74185 0.0
O211 O 0.33063 0.39927 0.75871 0.0
C212 C 0.34819 0.41013 0.73957 0.0
O213 O 0.32753 0.45179 0.80125 0.0
O214 O 0.45307 0.44583 0.75507 0.0
O215 O 0.43534 0.48895 0.77832 0.0
O216 O 0.35859 0.46974 0.76825 0.0
C217 C 0.33471 0.47553 0.78466 0.0
O218 O 0.36269 0.42046 0.83335 0.0
O219 O 0.39777 0.46209 0.81573 0.0
O220 O 0.43242 0.39182 0.79273 0.0
O221 O 0.28888 0.38245 0.7928 0.0
O222 O 0.31705 0.35809 0.82273 0.0
O223 O 0.38662 0.35429 0.79159 0.0
C224 C 0.4882 0.49848 0.75477 0.0
C225 C 0.49389 0.53168 0.76453 0.0
C226 C 0.54553 0.49991 0.73638 0.0
C227 C 0.52586 0.5483 0.76099 0.0
C228 C 0.51366 0.48341 0.73986 0.0
C229 C 0.55243 0.53185 0.74767 0.0
C230 C 0.45857 0.47736 0.76298 0.0
C231 C 0.38107 0.44937 0.83494 0.0
H232 H 0.29215 0.40275 0.85478 0.0
H233 H 0.17475 0.35443 0.84095 0.0
H234 H 0.25026 0.40042 0.88802 0.0
H235 H 0.21689 0.35547 0.80733 0.0
H236 H 0.47449 0.54389 0.77604 0.0
H237 H 0.56559 0.4863 0.72632 0.0
H238 H 0.53039 0.57314 0.76965 0.0
H239 H 0.50992 0.45778 0.7322 0.0
Eu240 Eu 0.88464 0.09341 0.54727 0.0
Eu241 Eu 0.83648 0.15658 0.5301 0.0
C242 C 0.91852 0.17213 0.5399 0.0
C243 C 0.90722 1.01081 0.5787 0.0
C244 C 0.88991 0.01921 0.6005 0.0
C245 C 0.91623 0.95259 0.59446 0.0
C246 C 0.89041 0.99556 0.61996 0.0
C247 C 0.91674 0.97608 0.57477 0.0
C248 C 0.91211 0.96609 0.61814 0.0
C249 C 0.91786 0.03832 0.56142 0.0
O250 O 0.83974 0.11835 0.49802 0.0
O251 O 0.89298 0.09582 0.50634 0.0
C252 C 0.86708 0.10014 0.49116 0.0
O253 O 0.83195 0.06873 0.54035 0.0
O254 O 0.80924 0.20492 0.53674 0.0
O255 O 0.80273 0.17881 0.50201 0.0
O256 O 0.79793 0.11734 0.5426 0.0
C257 C 0.80149 0.08364 0.54271 0.0
O258 O 0.8501 0.10107 0.58075 0.0
O259 O 0.82803 0.15494 0.57169 0.0
O260 O 0.89064 0.18086 0.52743 0.0
O261 O 0.90074 0.03966 0.54104 0.0
O262 O 0.92312 0.0691 0.57076 0.0
O263 O 0.92005 0.14173 0.55145 0.0
C264 C 0.7879 0.23861 0.50412 0.0
C265 C 0.75418 0.24636 0.49633 0.0
C266 C 0.80475 0.29873 0.49781 0.0
C267 C 0.74535 0.28043 0.49018 0.0
C268 C 0.81355 0.26455 0.50404 0.0
C269 C 0.77022 0.30711 0.49181 0.0
C270 C 0.79373 0.20492 0.51567 0.0
C271 C 0.83132 0.12825 0.58692 0.0
H272 H 0.87931 0.04498 0.60338 0.0
H273 H 0.92772 0.92713 0.59188 0.0
H274 H 0.88106 1.0046 0.63745 0.0
H275 H 0.92746 0.96806 0.5574 0.0
H276 H 0.73412 0.22647 0.49645 0.0
H277 H 0.82427 0.31893 0.49945 0.0
H278 H 0.71863 0.28625 0.48545 0.0
H279 H 0.83968 0.2588 0.51018 0.0
Eu280 Eu 0.18509 0.63455 0.29844 0.0
Eu281 Eu 0.12459 0.58643 0.27652 0.0
C282 C 0.10569 0.66757 0.28903 0.0
C283 C 0.26633 0.65614 0.33055 0.0
C284 C 0.25666 0.6393 0.35239 0.0
C285 C 0.32491 0.66113 0.34576 0.0
C286 C 0.28026 0.63792 0.37158 0.0
C287 C 0.30161 0.66334 0.3263 0.0
C288 C 0.3111 0.65778 0.36957 0.0
C289 C 0.23991 0.66715 0.31297 0.0
O290 O 0.15102 0.60492 0.24127 0.0
O291 O 0.19796 0.63207 0.25822 0.0
C292 C 0.18172 0.61998 0.23911 0.0
O293 O 0.20384 0.579 0.30333 0.0
O294 O 0.08596 0.54654 0.2848 0.0
O295 O 0.0982 0.55939 0.24718 0.0
O296 O 0.1748 0.55867 0.27072 0.0
C297 C 0.19824 0.55442 0.28749 0.0
O298 O 0.16986 0.60552 0.33286 0.0
O299 O 0.13083 0.56726 0.31633 0.0
O300 O 0.09522 0.63743 0.28036 0.0
O301 O 0.23929 0.64943 0.29288 0.0
O302 O 0.20882 0.67329 0.3218 0.0
O303 O 0.13802 0.67205 0.29679 0.0
C304 C 0.04423 0.53315 0.25542 0.0
C305 C 0.03556 0.49976 0.24754 0.0
C306 C 0.98385 0.55027 0.25339 0.0
C307 C 1.00106 0.49134 0.24301 0.0
C308 C 0.01852 0.55867 0.25795 0.0
C309 C 0.97485 0.51628 0.24643 0.0
C310 C 0.08006 0.53984 0.26198 0.0
C311 C 0.14919 0.57838 0.33504 0.0
H312 H 0.23028 0.63021 0.35539 0.0
H313 H 0.3512 0.67054 0.3429 0.0
H314 H 0.27069 0.62869 0.38907 0.0
H315 H 0.31049 0.67325 0.30877 0.0
H316 H 0.05539 0.47991 0.24554 0.0
H317 H 0.96399 0.56976 0.25646 0.0
H318 H 0.99473 0.46505 0.23753 0.0
H319 H 0.02514 0.58457 0.26413 0.0
Eu320 Eu 0.83941 0.65673 0.77004 0.0
Eu321 Eu 0.88461 0.59469 0.74932 0.0
C322 C 0.80451 0.58477 0.7643 0.0
C323 C 0.77915 0.73689 0.79117 0.0
C324 C 0.75151 0.74767 0.7763 0.0
C325 C 0.77455 0.78995 0.81417 0.0
C326 C 0.73675 0.78043 0.77957 0.0
C327 C 0.78934 0.75737 0.81085 0.0
C328 C 0.74942 0.80239 0.79782 0.0
C329 C 0.80112 0.70794 0.78371 0.0
O330 O 0.85843 0.61282 0.71429 0.0
O331 O 0.81801 0.64898 0.73154 0.0
C332 C 0.83002 0.63184 0.71252 0.0
O333 O 0.88819 0.68411 0.75651 0.0
O334 O 0.89653 0.54019 0.75626 0.0
O335 O 0.92059 0.56728 0.72548 0.0
O336 O 0.92565 0.6382 0.75456 0.0
C337 C 0.92011 0.67224 0.75488 0.0
O338 O 0.85579 0.63026 0.80589 0.0
O339 O 0.88235 0.58256 0.7895 0.0
O340 O 0.82762 0.57913 0.74713 0.0
O341 O 0.83224 0.70277 0.79249 0.0
O342 O 0.79067 0.68513 0.76787 0.0
O343 O 0.81012 0.60879 0.78038 0.0
C344 C 0.90219 0.50955 0.72007 0.0
C345 C 0.87607 0.51598 0.70278 0.0
C346 C 0.9176 0.4572 0.6989 0.0
C347 C 0.87449 0.49512 0.68203 0.0
C348 C 0.92002 0.47789 0.7196 0.0
C349 C 0.90201 0.4717 0.67789 0.0
C350 C 0.91407 0.53722 0.73605 0.0
C351 C 0.87049 0.59939 0.80845 0.0
H352 H 0.74316 0.73207 0.76103 0.0
H353 H 0.78498 0.80649 0.82827 0.0
H354 H 0.71707 0.78943 0.76694 0.0
H355 H 0.81052 0.74939 0.82258 0.0
H356 H 0.86014 0.53919 0.70376 0.0
H357 H 0.93537 0.43544 0.69755 0.0
H358 H 0.85861 0.50399 0.66695 0.0
H359 H 0.93844 0.47113 0.73374 0.0
Eu360 Eu 0.12683 0.08639 1.02324 0.0
Eu361 Eu 0.1859 0.13599 1.00009 0.0
C362 C 0.20046 0.05686 1.01375 0.0
C363 C 0.04602 0.03137 1.04034 0.0
C364 C 0.03837 0.99572 1.03947 0.0
C365 C 0.98475 0.0445 1.04366 0.0
C366 C 1.004 0.98442 1.04106 0.0
C367 C 0.01905 0.05579 1.04188 0.0
C368 C 0.97705 1.00875 1.04372 0.0
C369 C 0.08228 0.0422 1.04137 0.0
O370 O 0.16659 0.10857 0.966 0.0
O371 O 0.13294 0.06617 0.98433 0.0
C372 C 0.14875 0.07923 0.96486 0.0
O373 O 0.09632 0.13634 1.01495 0.0
O374 O 0.24033 0.14883 1.00565 0.0
O375 O 0.21163 0.17327 0.97588 0.0
O376 O 0.13982 0.17397 1.00256 0.0
C377 C 0.10675 0.1678 1.0081 0.0
O378 O 0.15924 0.09842 1.0566 0.0
O379 O 0.19306 0.14227 1.04091 0.0
O380 O 0.20465 0.0803 0.99662 0.0
O381 O 0.08872 0.07259 1.05091 0.0
O382 O 0.10145 0.03566 1.02225 0.0
O383 O 0.1783 0.06261 1.03119 0.0
C384 C 0.26994 0.15638 0.96875 0.0
C385 C 0.26228 0.13945 0.94686 0.0
C386 C 0.32921 0.16403 0.9548 0.0
C387 C 0.28711 0.13944 0.92819 0.0
C388 C 0.30464 0.16495 0.97372 0.0
C389 C 0.31692 0.16059 0.93078 0.0
C390 C 0.24216 0.16689 0.98548 0.0
C391 C 0.18337 0.1223 1.05929 0.0
H392 H 0.05904 0.97663 1.03817 0.0
H393 H 0.96424 0.06372 1.04501 0.0
H394 H 0.99858 0.95672 1.04088 0.0
H395 H 0.02447 0.08348 1.04223 0.0
H396 H 0.23645 0.12936 0.94338 0.0
H397 H 0.3547 0.17504 0.95807 0.0
H398 H 0.27894 0.13039 0.91049 0.0
H399 H 0.31194 0.17521 0.9913 0.0
Eu400 Eu 0.6942 0.37638 0.27453 0.0
Eu401 Eu 0.64704 0.43473 0.25007 0.0
C402 C 0.72601 0.4494 0.2626 0.0
C403 C 0.74542 0.29502 0.29425 0.0
C404 C 0.77681 0.28521 0.30499 0.0
C405 C 0.73249 0.23479 0.28558 0.0
C406 C 0.78586 0.25024 0.3064 0.0
C407 C 0.72346 0.26989 0.28418 0.0
C408 C 0.76361 0.22471 0.29696 0.0
C409 C 0.73528 0.33136 0.29518 0.0
O410 O 0.67442 0.41305 0.21664 0.0
O411 O 0.71689 0.38118 0.23579 0.0
C412 C 0.70397 0.39572 0.21587 0.0
O413 O 0.64794 0.34535 0.26056 0.0
O414 O 0.63192 0.48921 0.25236 0.0
O415 O 0.60956 0.45617 0.22446 0.0
O416 O 0.60867 0.38989 0.25849 0.0
C417 C 0.61552 0.35609 0.25876 0.0
O418 O 0.67174 0.40377 0.308 0.0
O419 O 0.65093 0.45247 0.28901 0.0
O420 O 0.70271 0.45281 0.2455 0.0
O421 O 0.74475 0.35093 0.27676 0.0
O422 O 0.70359 0.3375 0.30258 0.0
O423 O 0.72067 0.42737 0.28044 0.0
C424 C 0.62717 0.51313 0.21326 0.0
C425 C 0.64279 0.50185 0.19152 0.0
C426 C 0.62519 0.57147 0.19649 0.0
C427 C 0.64481 0.52475 0.17167 0.0
C428 C 0.6222 0.54895 0.21661 0.0
C429 C 0.62668 0.55663 0.17308 0.0
C430 C 0.61533 0.48802 0.2318 0.0
C431 C 0.65965 0.43579 0.30897 0.0
H432 H 0.79394 0.30456 0.31278 0.0
H433 H 0.71529 0.21561 0.27772 0.0
H434 H 0.80993 0.24315 0.31533 0.0
H435 H 0.69919 0.27737 0.27564 0.0
H436 H 0.65051 0.47494 0.18918 0.0
H437 H 0.61736 0.59835 0.19872 0.0
H438 H 0.65288 0.51416 0.15432 0.0
H439 H 0.6134 0.55897 0.234 0.0
Eu440 Eu 0.40454 0.94392 0.5226 0.0
Eu441 Eu 0.34493 0.89614 0.49961 0.0
C442 C 0.33178 0.97512 0.51277 0.0
C443 C 0.4874 0.9941 0.53593 0.0
C444 C 0.49977 0.02822 0.53765 0.0
C445 C 0.54635 0.97256 0.53326 0.0
C446 C 0.53541 0.03444 0.53789 0.0
C447 C 0.5107 0.9664 0.53282 0.0
C448 C 0.55893 1.0065 0.53659 0.0
C449 C 0.45036 0.98761 0.53884 0.0
O450 O 0.36372 0.92418 0.46544 0.0
O451 O 0.3999 0.96418 0.4831 0.0
C452 C 0.38319 0.95236 0.46387 0.0
O453 O 0.43462 0.89392 0.51555 0.0
O454 O 0.29003 0.88355 0.50406 0.0
O455 O 0.32065 0.85846 0.47569 0.0
O456 O 0.39111 0.85783 0.50183 0.0
C457 C 0.42396 0.86321 0.50805 0.0
O458 O 0.37543 0.92764 0.55716 0.0
O459 O 0.3326 0.89442 0.5401 0.0
O460 O 0.32772 0.95233 0.49551 0.0
O461 O 0.43126 0.99393 0.51978 0.0
O462 O 0.44188 0.95867 0.55004 0.0
O463 O 0.35331 0.96839 0.53033 0.0
C464 C 0.2635 0.87638 0.46629 0.0
C465 C 0.27359 0.89248 0.44428 0.0
C466 C 0.20522 0.87072 0.45065 0.0
C467 C 0.25037 0.893 0.42484 0.0
C468 C 0.22815 0.86927 0.47034 0.0
C469 C 0.21949 0.8732 0.42694 0.0
C470 C 0.2895 0.86542 0.48415 0.0
C471 C 0.34678 0.90901 0.55919 0.0
H472 H 0.4819 0.04986 0.53961 0.0
H473 H 0.56396 0.95061 0.53222 0.0
H474 H 0.54458 0.06097 0.53984 0.0
H475 H 0.50136 0.9399 0.53105 0.0
H476 H 0.30002 0.90155 0.44139 0.0
H477 H 0.17893 0.86124 0.45344 0.0
H478 H 0.26029 0.9015 0.40726 0.0
H479 H 0.21899 0.85984 0.48793 0.0
Eu480 Eu 0.14675 0.43263 0.54803 0.0
Eu481 Eu 0.19757 0.37568 0.52598 0.0
C482 C 0.11589 0.35382 0.54032 0.0
C483 C 0.12454 0.51686 0.57684 0.0
C484 C 0.14969 0.51079 0.59488 0.0
C485 C 0.10562 0.56786 0.59827 0.0
C486 C 0.14935 0.53107 0.61593 0.0
C487 C 0.10537 0.54769 0.57726 0.0
C488 C 0.12136 0.55414 0.61947 0.0
C489 C 0.11496 0.48934 0.55998 0.0
O490 O 0.19039 0.41355 0.49458 0.0
O491 O 0.13784 0.4336 0.50687 0.0
C492 C 0.16222 0.43149 0.49009 0.0
O493 O 0.20183 0.45304 0.55223 0.0
O494 O 0.24639 0.34715 0.52814 0.0
O495 O 0.21237 0.34102 0.49682 0.0
O496 O 0.22268 0.42687 0.51873 0.0
C497 C 0.22643 0.44948 0.53595 0.0
O498 O 0.17495 0.41555 0.58262 0.0
O499 O 0.21642 0.38012 0.56544 0.0
O500 O 0.14571 0.34619 0.52943 0.0
O501 O 0.13478 0.48701 0.5407 0.0
O502 O 0.10778 0.45901 0.57 0.0
O503 O 0.11096 0.38475 0.55025 0.0
C504 C 0.25004 0.29517 0.50625 0.0
C505 C 0.28361 0.28591 0.49889 0.0
C506 C 0.23355 0.23453 0.50855 0.0
C507 C 0.29214 0.25102 0.49614 0.0
C508 C 0.22504 0.26951 0.51131 0.0
C509 C 0.26713 0.22506 0.50081 0.0
C510 C 0.24136 0.33181 0.50732 0.0
C511 C 0.20373 0.39696 0.58442 0.0
H512 H 0.16644 0.48814 0.59409 0.0
H513 H 0.08678 0.58874 0.59935 0.0
H514 H 0.16472 0.52241 0.63133 0.0
H515 H 0.08749 0.55406 0.56269 0.0
H516 H 0.30306 0.30569 0.49497 0.0
H517 H 0.21409 0.21491 0.51277 0.0
H518 H 0.31819 0.24437 0.49013 0.0
H519 H 0.19902 0.27657 0.51717 0.0
Eu520 Eu 0.84549 0.89647 0.30106 0.0
Eu521 Eu 0.905 0.94504 0.27707 0.0
C522 C 0.92486 0.86416 0.29151 0.0
C523 C 0.76332 0.87564 0.33367 0.0
C524 C 0.77177 0.89281 0.35534 0.0
C525 C 0.70398 0.87067 0.34798 0.0
C526 C 0.74709 0.89419 0.37408 0.0
C527 C 0.72827 0.86832 0.32894 0.0
C528 C 0.71677 0.87369 0.37192 0.0
C529 C 0.7906 0.86432 0.31678 0.0
O530 O 0.87587 0.92843 0.24299 0.0
O531 O 0.83228 0.89633 0.26082 0.0
C532 C 0.84679 0.91052 0.24142 0.0
O533 O 0.82694 0.95205 0.30487 0.0
O534 O 0.93462 0.99341 0.27973 0.0
O535 O 0.93857 0.96171 0.24729 0.0
O536 O 0.85372 0.97011 0.27038 0.0
C537 C 0.83156 0.97567 0.2879 0.0
O538 O 0.86191 0.92628 0.33472 0.0
O539 O 0.90033 0.96478 0.31679 0.0
O540 O 0.93528 0.89481 0.28322 0.0
O541 O 0.79154 0.88105 0.29606 0.0
O542 O 0.82152 0.85905 0.32603 0.0
O543 O 0.89231 0.85894 0.29889 0.0
C544 C 0.98553 0.9981 0.25598 0.0
C545 C 0.99495 0.03129 0.24759 0.0
C546 C 0.0461 0.98137 0.25741 0.0
C547 C 0.02985 0.03961 0.24413 0.0
C548 C 1.01108 0.97308 0.2609 0.0
C549 C 0.05573 1.01479 0.24912 0.0
C550 C 0.94881 0.98981 0.25826 0.0
C551 C 0.88225 0.95386 0.33609 0.0
H552 H 0.7979 0.90224 0.35858 0.0
H553 H 0.6779 0.86103 0.34489 0.0
H554 H 0.75559 0.90364 0.3916 0.0
H555 H 0.72031 0.8582 0.31146 0.0
H556 H 0.97528 0.05071 0.2436 0.0
H557 H 0.06563 0.96201 0.26176 0.0
H558 H 0.03663 0.06548 0.23761 0.0
H559 H 1.00392 0.94728 0.26738 0.0
Eu560 Eu 0.38277 0.59547 1.04828 0.0
Eu561 Eu 0.33612 0.65484 1.02396 0.0
C562 C 0.41539 0.67409 1.03955 0.0
C563 C 0.40183 0.51654 1.08493 0.0
C564 C 0.38646 0.52808 1.10669 0.0
C565 C 0.40426 0.45844 1.10207 0.0
C566 C 0.3848 0.50544 1.12671 0.0
C567 C 0.40689 0.48069 1.08178 0.0
C568 C 0.40304 0.47362 1.12538 0.0
C569 C 0.41362 0.54144 1.06626 0.0
O570 O 0.35751 0.627 0.99026 0.0
O571 O 0.38008 0.57877 1.00897 0.0
C572 C 0.37055 0.59531 0.98913 0.0
O573 O 0.32675 0.5784 1.05269 0.0
O574 O 0.28538 0.68 1.02204 0.0
O575 O 0.32641 0.69433 0.99636 0.0
O576 O 0.31061 0.6037 1.01739 0.0
C577 C 0.30393 0.58234 1.03537 0.0
O578 O 0.3556 0.6171 1.08182 0.0
O579 O 0.31368 0.65002 1.06292 0.0
O580 O 0.3833 0.6854 1.03682 0.0
O581 O 0.39641 0.54061 1.04594 0.0
O582 O 0.42021 0.57315 1.07354 0.0
O583 O 0.4217 0.6402 1.04087 0.0
C584 C 0.28451 0.73649 1.00548 0.0
C585 C 0.25312 0.74673 0.99493 0.0
C586 C 0.29741 0.79638 1.0153 0.0
C587 C 0.24405 0.78176 0.99418 0.0
C588 C 0.30643 0.76124 1.01605 0.0
C589 C 0.26633 0.80694 1.00407 0.0
C590 C 0.29471 0.70017 1.00391 0.0
C591 C 0.32637 0.63497 1.08275 0.0
H592 H 0.37874 0.55501 1.10891 0.0
H593 H 0.41222 0.43158 1.09998 0.0
H594 H 0.37696 0.51626 1.14404 0.0
H595 H 0.41556 0.47049 1.06443 0.0
H596 H 0.23599 0.72771 0.98677 0.0
H597 H 0.31463 0.81525 1.02349 0.0
H598 H 0.22001 0.78921 0.98536 0.0
H599 H 0.33069 0.75344 1.02446 0.0
Eu600 Eu 0.68206 0.13332 0.79788 0.0
Eu601 Eu 0.62303 0.08114 0.77824 0.0
C602 C 0.60212 0.16301 0.79009 0.0
C603 C 0.75788 0.15659 0.83421 0.0
C604 C 0.74448 0.14219 0.85597 0.0
C605 C 0.81485 0.15775 0.85256 0.0
C606 C 0.76558 0.14001 0.87647 0.0
C607 C 0.79397 0.16062 0.83182 0.0
C608 C 0.79858 0.15615 0.87571 0.0
C609 C 0.73435 0.16757 0.81461 0.0
O610 O 0.6632 0.08726 0.74746 0.0
O611 O 0.68339 0.14106 0.75687 0.0
C612 C 0.6813 0.11518 0.74146 0.0
O613 O 0.71049 0.08232 0.79314 0.0
O614 O 0.58099 0.04415 0.78334 0.0
O615 O 0.59993 0.05591 0.74675 0.0
O616 O 0.66504 0.04435 0.78793 0.0
C617 C 0.69787 0.05083 0.79133 0.0
O618 O 0.66941 0.10075 0.83193 0.0
O619 O 0.62588 0.06506 0.81819 0.0
O620 O 0.59314 0.13229 0.78155 0.0
O621 O 0.73637 0.1496 0.79463 0.0
O622 O 0.70224 0.17403 0.8212 0.0
O623 O 0.63416 0.16895 0.79768 0.0
C624 C 0.54306 0.03385 0.75109 0.0
C625 C 0.53453 1.0025 0.73984 0.0
C626 C 0.48269 0.05123 0.7505 0.0
C627 C 0.50005 0.99502 0.73453 0.0
C628 C 0.51732 0.05872 0.75581 0.0
C629 C 0.47374 0.01881 0.74059 0.0
C630 C 0.57815 0.03793 0.76013 0.0
C631 C 0.64739 0.07483 0.83544 0.0
H632 H 0.7172 0.13554 0.85779 0.0
H633 H 0.84212 0.16445 0.85085 0.0
H634 H 0.75324 0.13273 0.89356 0.0
H635 H 0.80555 0.16847 0.81457 0.0
H636 H 0.55434 0.98311 0.73623 0.0
H637 H 0.46278 0.06979 0.75559 0.0
H638 H 0.49376 0.96996 0.72675 0.0
H639 H 0.52379 0.08299 0.76466 0.0
H640 H 0.41503 0.24552 0.26962 0.0
H641 H 0.61996 0.28511 0.25019 0.0
H642 H 0.48733 0.16711 0.2455 0.0
H643 H 0.54397 0.36487 0.26452 0.0
H644 H 0.57299 0.24164 0.24926 0.0
H645 H 0.46215 0.28841 0.26903 0.0
C646 C 0.44075 0.2371 0.2641 0.0
C647 C 0.44663 0.20206 0.25758 0.0
C648 C 0.56648 0.26861 0.2526 0.0
C649 C 0.50184 0.25224 0.25691 0.0
C650 C 0.59345 0.29367 0.25317 0.0
C651 C 0.58639 0.32921 0.25749 0.0
C652 C 0.53166 0.27859 0.25667 0.0
C653 C 0.55111 0.3381 0.26107 0.0
C654 C 0.46786 0.2619 0.26377 0.0
C655 C 0.48108 0.19348 0.25076 0.0
N656 N 0.52543 0.31319 0.26072 0.0
N657 N 0.5071 0.21816 0.25064 0.0
H658 H 0.59671 0.71898 0.47333 0.0
H659 H 0.46345 0.83832 0.5459 0.0
H660 H 0.55454 0.68381 0.54219 0.0
H661 H 0.44535 0.82102 0.4696 0.0
H662 H 0.50698 0.7912 0.54573 0.0
H663 H 0.55202 0.76537 0.47208 0.0
C664 C 0.57837 0.72112 0.48831 0.0
C665 C 0.57975 0.69716 0.50795 0.0
C666 C 0.4935 0.79765 0.52901 0.0
C667 C 0.52865 0.75117 0.50686 0.0
C668 C 0.46855 0.82461 0.52907 0.0
C669 C 0.45004 0.83357 0.50783 0.0
C670 C 0.50146 0.77997 0.50729 0.0
C671 C 0.4584 0.81486 0.48653 0.0
C672 C 0.55265 0.74755 0.48749 0.0
C673 C 0.55474 0.70141 0.52665 0.0
N674 N 0.48363 0.78943 0.48672 0.0
N675 N 0.53084 0.72792 0.52582 0.0
H676 H 0.12189 0.78353 0.76055 0.0
H677 H 0.9157 0.74395 0.75347 0.0
H678 H 0.04424 0.86387 0.75376 0.0
H679 H 0.99264 0.66238 0.75473 0.0
H680 H 0.96221 0.78738 0.75379 0.0
H681 H 0.07582 0.73933 0.75871 0.0
C682 C 0.09521 0.79211 0.75865 0.0
C683 C 0.08745 0.82807 0.75739 0.0
C684 C 0.96913 0.76004 0.75391 0.0
C685 C 0.03364 0.77651 0.75529 0.0
C686 C 0.94237 0.7349 0.75372 0.0
C687 C 0.94969 0.69881 0.75404 0.0
C688 C 1.00423 0.74972 0.75455 0.0
C689 C 0.98525 0.68956 0.75441 0.0
C690 C 0.06874 0.76658 0.75758 0.0
C691 C 0.05196 0.83681 0.75488 0.0
N692 N 1.0109 0.71463 0.75472 0.0
N693 N 0.02671 0.81148 0.75399 0.0
H694 H 0.11761 0.23941 1.0048 0.0
H695 H 0.91381 0.29391 1.00302 0.0
H696 H 0.03438 0.16428 1.00908 0.0
H697 H 0.99708 0.36794 1.01178 0.0
H698 H 0.95707 0.24665 1.00223 0.0
H699 H 0.0742 0.28644 1.00442 0.0
C700 C 0.09028 0.2326 1.00553 0.0
C701 C 0.08015 0.19729 1.00703 0.0
C702 C 0.96594 0.27322 1.00434 0.0
C703 C 0.02942 0.25197 1.00644 0.0
C704 C 0.94109 0.30044 1.00477 0.0
C705 C 0.95128 0.33552 1.00756 0.0
C706 C 1.00178 0.28061 1.00656 0.0
C707 C 0.98745 0.34165 1.00963 0.0
C708 C 0.06532 0.25969 1.00538 0.0
C709 C 0.04391 0.19079 1.00802 0.0
N710 N 1.01103 0.31481 1.00906 0.0
N711 N 0.02019 0.21755 1.00762 0.0
H712 H 0.54208 0.86681 1.04591 0.0
H713 H 0.48689 0.66295 1.04217 0.0
H714 H 0.61553 0.78312 1.03675 0.0
H715 H 0.41208 0.74642 1.03958 0.0
H716 H 0.53392 0.70641 1.04298 0.0
H717 H 0.49448 0.82371 1.0463 0.0
C718 C 0.5484 0.83948 1.044 0.0
C719 C 0.5834 0.82908 1.04122 0.0
C720 C 0.50723 0.71531 1.04224 0.0
C721 C 0.52823 0.77886 1.04179 0.0
C722 C 0.48016 0.69033 1.04181 0.0
C723 C 0.44497 0.70053 1.04071 0.0
C724 C 0.49959 0.75127 1.04172 0.0
C725 C 0.43853 0.73683 1.04036 0.0
C726 C 0.52101 0.81474 1.0442 0.0
C727 C 0.5893 0.7929 1.03888 0.0
N728 N 0.46527 0.76057 1.04088 0.0
N729 N 0.56234 0.76946 1.03926 0.0
H730 H 0.531 0.1585 0.7826 0.0
H731 H 0.4918 0.36375 0.79824 0.0
H732 H 0.61016 0.23375 0.79999 0.0
H733 H 0.4105 0.28763 0.78906 0.0
H734 H 0.53493 0.31698 0.79811 0.0
H735 H 0.48717 0.20488 0.78404 0.0
C736 C 0.53938 0.18473 0.78669 0.0
C737 C 0.57485 0.19173 0.79113 0.0
C738 C 0.50771 0.31031 0.7962 0.0
C739 C 0.52384 0.24588 0.79271 0.0
C740 C 0.48276 0.3372 0.79628 0.0
C741 C 0.44687 0.33014 0.7937 0.0
C742 C 0.49733 0.27542 0.79337 0.0
C743 C 0.43755 0.29478 0.79118 0.0
C744 C 0.51409 0.21136 0.78755 0.0
C745 C 0.58342 0.22663 0.79644 0.0
N746 N 0.46242 0.26904 0.791 0.0
N747 N 0.55836 0.25211 0.79697 0.0
H748 H 0.10756 0.29657 0.51064 0.0
H749 H 0.9405 0.21219 0.57869 0.0
H750 H 0.05753 0.34792 0.57092 0.0
H751 H 0.96491 0.19171 0.50352 0.0
H752 H 0.98745 0.25627 0.57929 0.0
H753 H 0.06073 0.25297 0.5108 0.0
C754 C 0.08687 0.29878 0.52403 0.0
C755 C 0.08693 0.32656 0.54072 0.0
C756 C 0.98271 0.24204 0.56268 0.0
C757 C 0.03258 0.27539 0.54125 0.0
C758 C 0.95595 0.21662 0.56236 0.0
C759 C 0.94864 0.19773 0.54106 0.0
C760 C 1.00322 0.24848 0.54167 0.0
C761 C 0.9695 0.20527 0.52042 0.0
C762 C 0.0599 0.27372 0.52404 0.0
C763 C 0.05889 0.32741 0.55754 0.0
N764 N 0.99576 0.22955 0.52131 0.0
N765 N 0.03329 0.30229 0.55749 0.0
H766 H 0.05941 0.68758 0.2535 0.0
H767 H 0.93909 0.81611 0.32845 0.0
H768 H 0.09171 0.71549 0.32577 0.0
H769 H 0.97102 0.84444 0.25554 0.0
H770 H 0.98382 0.76972 0.32869 0.0
H771 H 0.01631 0.73504 0.25435 0.0
C772 C 0.0575 0.70362 0.2696 0.0
C773 C 0.07981 0.69744 0.28948 0.0
C774 C 0.98093 0.78605 0.31263 0.0
C775 C 0.02896 0.75155 0.29091 0.0
C776 C 0.95519 0.81245 0.31241 0.0
C777 C 0.95097 0.83449 0.29192 0.0
C778 C 1.002 0.78047 0.29188 0.0
C779 C 0.97313 0.82836 0.27178 0.0
C780 C 0.03281 0.7308 0.27004 0.0
C781 C 0.07559 0.71932 0.30986 0.0
N782 N 0.99705 0.80185 0.27213 0.0
N783 N 0.05052 0.74488 0.31019 0.0
H784 H 0.47775 0.94023 0.19201 0.0
H785 H 0.55524 0.08813 1.10595 0.0
H786 H 0.41997 0.98904 1.13358 0.0
H787 H 0.61102 0.04197 0.16637 0.0
H788 H 0.50434 0.05542 1.11772 0.0
H789 H 0.52844 0.97296 0.17982 0.0
C790 C 0.47532 0.95738 0.17637 0.0
C791 C 0.44274 0.96498 0.16577 0.0
C792 C 0.52778 0.05239 1.12839 0.0
C793 C 0.50172 1.00224 0.15154 0.0
C794 C 0.55716 0.07163 1.12197 0.0
C795 C 0.58933 0.06483 1.13342 0.0
C796 C 0.53012 0.02747 1.14707 0.0
C797 C 0.58799 0.04562 0.15542 0.0
C798 C 0.50459 0.97661 0.16971 0.0
C799 C 0.44339 0.98484 1.14403 0.0
N800 N 0.55932 0.02637 0.16097 0.0
N801 N 0.472 1.00404 1.13822 0.0
H802 H 0.78724 0.66855 0.37888 0.0
H803 H 0.74184 0.86215 0.4192 0.0
H804 H 0.83857 0.72273 0.43732 0.0
H805 H 0.68982 0.80757 0.36123 0.0
H806 H 0.77417 0.80932 0.42842 0.0
H807 H 0.75518 0.72156 0.36954 0.0
C808 C 0.79229 0.69147 0.38964 0.0
C809 C 0.81249 0.68947 0.41096 0.0
C810 C 0.7557 0.8091 0.41359 0.0
C811 C 0.77646 0.75036 0.4 0.0
C812 C 0.73671 0.83919 0.40849 0.0
C813 C 0.71623 0.84105 0.38729 0.0
C814 C 0.75257 0.78031 0.39817 0.0
C815 C 0.7079 0.80904 0.37619 0.0
C816 C 0.77346 0.72165 0.38448 0.0
C817 C 0.82074 0.72139 0.4222 0.0
N818 N 0.72725 0.78037 0.38103 0.0
N819 N 0.80154 0.75014 0.41731 0.0
H820 H 0.11294 0.04643 0.63193 0.0
H821 H 0.91946 0.98822 0.66633 0.0
H822 H 0.05469 0.08717 0.69303 0.0
H823 H 0.98004 0.94519 0.60712 0.0
H824 H 0.97018 0.02194 0.6783 0.0
H825 H 0.06163 1.01368 0.62004 0.0
C826 C 0.08942 0.04909 0.64272 0.0
C827 C 0.0898 0.06649 0.66522 0.0
C828 C 0.97216 1.00506 0.66264 0.0
C829 C 0.03087 0.02956 0.65146 0.0
C830 C 0.94331 0.9853 0.65596 0.0
C831 C 0.94386 0.96667 0.63393 0.0
C832 C 1.00203 1.00482 0.64776 0.0
C833 C 0.97678 0.96139 0.62297 0.0
C834 C 0.06024 0.02984 0.6361 0.0
C835 C 0.05725 0.07166 0.67677 0.0
N836 N 1.00413 0.98149 0.62938 0.0
N837 N 0.02949 0.05207 0.67038 0.0
H838 H 0.687 0.31869 0.93429 0.0
H839 H 0.83955 0.21621 0.86908 0.0
H840 H 0.75422 0.36336 0.87877 0.0
H841 H 0.77043 0.16921 0.92236 0.0
H842 H 0.81316 0.2719 0.87668 0.0
H843 H 0.71445 0.26301 0.92829 0.0
C844 C 0.70727 0.31722 0.92058 0.0
C845 C 0.72152 0.34739 0.90941 0.0
C846 C 0.80358 0.24932 0.88663 0.0
C847 C 0.75244 0.28284 0.90216 0.0
C848 C 0.81907 0.21716 0.88266 0.0
C849 C 0.80358 0.18662 0.89235 0.0
C850 C 0.77402 0.2511 0.9016 0.0
C851 C 0.78036 0.19127 0.91206 0.0
C852 C 0.72334 0.2851 0.91751 0.0
C853 C 0.74485 0.34188 0.8899 0.0
N854 N 0.76483 0.22267 0.9152 0.0
N855 N 0.76083 0.31057 0.88763 0.0
H856 H 0.23345 0.36004 0.91624 0.0
H857 H 0.29808 0.1693 0.88199 0.0
H858 H 0.19522 0.30122 0.85506 0.0
H859 H 0.33689 0.2284 0.94282 0.0
H860 H 0.2641 0.21982 0.86954 0.0
H861 H 0.26825 0.30986 0.92823 0.0
C862 C 0.23176 0.33662 0.90547 0.0
C863 C 0.21409 0.33661 0.88305 0.0
C864 C 0.28015 0.22157 0.88564 0.0
C865 C 0.25355 0.27902 0.89684 0.0
C866 C 0.30011 0.19287 0.89258 0.0
C867 C 0.31738 0.19287 0.91515 0.0
C868 C 0.279 0.25083 0.9008 0.0
C869 C 0.3216 0.2255 0.92649 0.0
C870 C 0.25217 0.30812 0.91215 0.0
C871 C 0.21054 0.30414 0.87137 0.0
N872 N 0.30133 0.25272 0.91981 0.0
N873 N 0.23121 0.27712 0.87784 0.0
H874 H 0.19038 0.80784 0.43806 0.0
H875 H 0.34135 0.72308 0.35983 0.0
H876 H 0.24509 0.86159 0.37973 0.0
H877 H 0.28519 0.6682 0.41694 0.0
H878 H 0.31042 0.77545 0.36996 0.0
H879 H 0.22131 0.75534 0.42822 0.0
C880 C 0.20847 0.809 0.42289 0.0
C881 C 0.21821 0.8409 0.41171 0.0
C882 C 0.30474 0.75187 0.38023 0.0
C883 C 0.25344 0.77991 0.40024 0.0
C884 C 0.32291 0.72162 0.37477 0.0
C885 C 0.31267 0.6895 0.38539 0.0
C886 C 0.27756 0.75036 0.39729 0.0
C887 C 0.29138 0.69132 0.40636 0.0
C888 C 0.22664 0.77869 0.4176 0.0
C889 C 0.23921 0.83869 0.39063 0.0
N890 N 0.27323 0.72087 0.41096 0.0
N891 N 0.25739 0.80911 0.38622 0.0
H892 H 0.11217 0.49146 0.644 0.0
H893 H 0.91182 0.53601 0.6553 0.0
H894 H 0.07169 0.59637 0.64109 0.0
H895 H 0.95266 0.43114 0.65596 0.0
H896 H 0.96942 0.55814 0.64736 0.0
H897 H 0.05458 0.4699 0.6528 0.0
C898 C 0.09157 0.51044 0.646 0.0
C899 C 0.09651 0.54584 0.63969 0.0
C900 C 0.96579 0.53024 0.649 0.0
C901 C 0.03007 0.52066 0.64956 0.0
C902 C 0.9325 0.51719 0.65302 0.0
C903 C 0.92756 0.48145 0.65837 0.0
C904 C 0.99405 0.50734 0.64942 0.0
C905 C 0.95553 0.459 0.65346 0.0
C906 C 0.05828 0.49771 0.65048 0.0
C907 C 0.06873 0.56865 0.64428 0.0
N908 N 0.98796 0.47238 0.65022 0.0
N909 N 0.03625 0.55556 0.64795 0.0
H910 H 0.6128 0.52981 1.12677 0.0
H911 H 0.41724 0.50076 0.17153 0.0
H912 H 0.56309 0.58914 0.18379 0.0
H913 H 0.46677 0.44174 1.11425 0.0
H914 H 0.47238 0.52988 0.17878 0.0
H915 H 0.55762 0.50085 1.11936 0.0
C916 C 0.59045 0.53723 1.13763 0.0
C917 C 0.59411 0.55878 0.15812 0.0
C918 C 0.47098 0.51056 0.16455 0.0
C919 C 0.53074 0.52634 0.1493 0.0
C920 C 0.43954 0.49343 0.16059 0.0
C921 C 0.43583 0.47184 1.14012 0.0
C922 C 0.49915 0.50451 1.14875 0.0
C923 C 0.46689 0.46071 1.12868 0.0
C924 C 0.55898 0.52019 1.13357 0.0
C925 C 0.563 0.57012 0.16939 0.0
N926 N 0.49693 0.47828 1.13241 0.0
N927 N 0.53293 0.55263 0.1656 0.0
H928 H 0.20711 0.33435 0.28491 0.0
H929 H 0.24281 0.52972 0.32316 0.0
H930 H 0.30359 0.36047 0.32033 0.0
H931 H 0.18697 0.49874 0.25867 0.0
H932 H 0.26016 0.46839 0.32943 0.0
H933 H 0.19165 0.39572 0.28402 0.0
C934 C 0.22482 0.35302 0.29283 0.0
C935 C 0.25672 0.34249 0.30262 0.0
C936 C 0.24434 0.47546 0.31387 0.0
C937 C 0.23949 0.41274 0.30122 0.0
C938 C 0.23465 0.51028 0.3102 0.0
C939 C 0.21347 0.51939 0.29035 0.0
C940 C 0.23206 0.44999 0.29785 0.0
C941 C 0.20326 0.49313 0.27424 0.0
C942 C 0.21614 0.38802 0.29212 0.0
C943 C 0.27893 0.36781 0.31236 0.0
N944 N 0.21234 0.45969 0.27851 0.0
N945 N 0.26994 0.40204 0.31137 0.0
H946 H 0.44623 0.45724 0.54352 0.0
H947 H 0.2472 0.50174 0.56717 0.0
H948 H 0.41669 0.56119 0.56477 0.0
H949 H 0.28574 0.42864 0.51394 0.0
H950 H 0.30786 0.51998 0.57478 0.0
H951 H 0.38524 0.44081 0.54279 0.0
C952 C 0.42686 0.47648 0.5484 0.0
C953 C 0.43636 0.51063 0.55416 0.0
C954 C 0.30259 0.50011 0.56139 0.0
C955 C 0.36654 0.4922 0.5528 0.0
C956 C 0.26822 0.48985 0.55698 0.0
C957 C 0.26141 0.46397 0.5397 0.0
C958 C 0.32982 0.48357 0.54886 0.0
C959 C 0.28952 0.44901 0.52719 0.0
C960 C 0.39208 0.46718 0.54777 0.0
C961 C 0.41017 0.53469 0.55996 0.0
N962 N 0.32239 0.45884 0.53217 0.0
N963 N 0.37616 0.52505 0.55903 0.0
H964 H 0.22234 0.66902 0.80602 0.0
H965 H 0.369 0.53314 0.76986 0.0
H966 H 0.32682 0.6958 0.78325 0.0
H967 H 0.2748 0.50016 0.80679 0.0
H968 H 0.35197 0.59303 0.77465 0.0
H969 H 0.23886 0.60723 0.80632 0.0
C970 C 0.24869 0.66185 0.80109 0.0
C971 C 0.27328 0.68739 0.79449 0.0
C972 C 0.33478 0.5729 0.78169 0.0
C973 C 0.29221 0.61744 0.79501 0.0
C974 C 0.34434 0.53852 0.77874 0.0
C975 C 0.32283 0.51161 0.78745 0.0
C976 C 0.30314 0.58078 0.79318 0.0
C977 C 0.2918 0.52029 0.79953 0.0
C978 C 0.25813 0.62675 0.80149 0.0
C979 C 0.30715 0.67699 0.78865 0.0
N980 N 0.28257 0.55437 0.80184 0.0
N981 N 0.31553 0.64282 0.78895 0.0
H982 H 0.10888 0.47772 1.06899 0.0
H983 H 0.24788 0.6044 1.01013 0.0
H984 H 0.08453 0.57634 1.0347 0.0
H985 H 0.27776 0.53364 1.06808 0.0
H986 H 0.18774 0.58931 1.01706 0.0
H987 H 0.17086 0.49359 1.06798 0.0
C988 C 0.11661 0.50275 1.06144 0.0
C989 C 0.09179 0.52568 1.05168 0.0
C990 C 0.20733 0.57695 1.0283 0.0
C991 C 0.1618 0.54371 1.0505 0.0
C992 C 0.24187 0.58523 1.02417 0.0
C993 C 0.26797 0.56997 1.03842 0.0
C994 C 0.19856 0.55278 1.04658 0.0
C995 C 0.25833 0.54577 1.0566 0.0
C996 C 0.15177 0.51182 1.06105 0.0
C997 C 0.10281 0.55798 1.04249 0.0
N998 N 0.22416 0.53763 1.06011 0.0
N999 N 0.13707 0.56587 1.04191 0.0
H1000 H 0.84552 0.53205 1.04131 0.0
H1001 H 0.73744 0.67321 0.96861 0.0
H1002 H 0.79271 0.5045 0.97483 0.0
H1003 H 0.82385 0.69689 1.0156 0.0
H1004 H 0.75288 0.61114 0.97122 0.0
H1005 H 0.83183 0.59259 1.03378 0.0
C1006 C 0.83059 0.53863 1.02523 0.0
C1007 C 0.82011 0.51306 1.00871 0.0
C1008 C 0.76865 0.63011 0.9806 0.0
C1009 C 0.80452 0.58285 0.9999 0.0
C1010 C 0.75984 0.66533 0.9792 0.0
C1011 C 0.77936 0.69 0.99198 0.0
C1012 C 0.79667 0.61981 0.99526 0.0
C1013 C 0.80828 0.67875 1.0053 0.0
C1014 C 0.8231 0.57337 1.02082 0.0
C1015 C 0.80105 0.52341 0.98811 0.0
N1016 N 0.81581 0.64442 1.0068 0.0
N1017 N 0.7937 0.5577 0.98428 0.0
H1018 H 0.60048 0.5338 0.71055 0.0
H1019 H 0.75603 0.58102 0.80035 0.0
H1020 H 0.587 0.55797 0.78677 0.0
H1021 H 0.77145 0.55975 0.72388 0.0
H1022 H 0.69398 0.57078 0.79562 0.0
H1023 H 0.66296 0.54399 0.71455 0.0
C1024 C 0.61063 0.54172 0.72803 0.0
C1025 C 0.58859 0.5448 0.74838 0.0
C1026 C 0.71088 0.56801 0.77988 0.0
C1027 C 0.65985 0.55621 0.75313 0.0
C1028 C 0.74637 0.57356 0.78262 0.0
C1029 C 0.76884 0.57121 0.76248 0.0
C1030 C 0.69769 0.56016 0.75678 0.0
C1031 C 0.75501 0.5615 0.73993 0.0
C1032 C 0.64626 0.5474 0.73032 0.0
C1033 C 0.60295 0.55556 0.77053 0.0
N1034 N 0.72015 0.5566 0.73762 0.0
N1035 N 0.63774 0.56059 0.77235 0.0
H1036 H 0.80112 0.36238 0.46799 0.0
H1037 H 0.6905 0.49913 0.54262 0.0
H1038 H 0.71469 0.33512 0.51507 0.0
H1039 H 0.73924 0.52905 0.47432 0.0
H1040 H 0.70747 0.43928 0.53564 0.0
H1041 H 0.78532 0.4242 0.47193 0.0
C1042 C 0.77864 0.36943 0.47887 0.0
C1043 C 0.75907 0.34379 0.49114 0.0
C1044 C 0.71461 0.45892 0.5222 0.0
C1045 C 0.74149 0.4137 0.49607 0.0
C1046 C 0.7052 0.49324 0.52625 0.0
C1047 C 0.7134 0.51922 0.50898 0.0
C1048 C 0.73275 0.45034 0.50086 0.0
C1049 C 0.73253 0.50983 0.48814 0.0
C1050 C 0.76966 0.40451 0.48108 0.0
C1051 C 0.73019 0.35404 0.50504 0.0
N1052 N 0.74161 0.47597 0.48461 0.0
N1053 N 0.7225 0.38824 0.50732 0.0
H1054 H 0.75184 0.49003 0.22487 0.0
H1055 H 0.94607 0.45874 0.26715 0.0
H1056 H 0.7806 0.44133 0.29321 0.0
H1057 H 0.92038 0.54998 0.22433 0.0
H1058 H 0.88462 0.44366 0.26931 0.0
H1059 H 0.8132 0.50644 0.21836 0.0
C1060 C 0.77084 0.48328 0.23863 0.0
C1061 C 0.76111 0.46431 0.25962 0.0
C1062 C 0.89244 0.4669 0.25933 0.0
C1063 C 0.83064 0.48193 0.25193 0.0
C1064 C 0.92747 0.47531 0.25787 0.0
C1065 C 0.93811 0.50567 0.24558 0.0
C1066 C 0.86789 0.48893 0.24839 0.0
C1067 C 0.91294 0.52652 0.23417 0.0
C1068 C 0.8057 0.49245 0.23482 0.0
C1069 C 0.78679 0.45589 0.27674 0.0
N1070 N 0.87873 0.51778 0.23587 0.0
N1071 N 0.82038 0.46443 0.27238 0.0
H1072 H 0.73405 0.84366 0.83663 0.0
H1073 H 0.73274 0.01744 0.75576 0.0
H1074 H 0.74821 0.84598 0.75847 0.0
H1075 H 0.70895 1.01439 0.8326 0.0
H1076 H 0.74877 0.95578 0.75771 0.0
H1077 H 0.73106 0.90718 0.83642 0.0
C1078 C 0.73608 0.85762 0.81942 0.0
C1079 C 0.7412 0.83974 0.79756 0.0
C1080 C 0.74091 0.96878 0.77429 0.0
C1081 C 0.73844 0.91208 0.79716 0.0
C1082 C 0.73247 1.00401 0.77324 0.0
C1083 C 0.72014 0.02062 0.79413 0.0
C1084 C 0.73629 0.95034 0.79634 0.0
C1085 C 0.71894 1.00226 0.81624 0.0
C1086 C 0.73466 0.89379 0.8193 0.0
C1087 C 0.74367 0.85884 0.77569 0.0
N1088 N 0.72642 0.96779 0.81673 0.0
N1089 N 0.74238 0.89409 0.77606 0.0
H1090 H 0.77611 0.94391 1.0023 0.0
H1091 H 0.92812 0.03115 1.07622 0.0
H1092 H 0.75866 0.98003 1.07579 0.0
H1093 H 0.94386 0.96005 1.01665 0.0
H1094 H 0.866 0.01648 1.07651 0.0
H1095 H 0.83749 0.95544 1.00654 0.0
C1096 C 0.78511 0.95482 1.01929 0.0
C1097 C 0.76217 0.96099 1.03877 0.0
C1098 C 0.8832 1.00385 1.06361 0.0
C1099 C 0.83293 0.9742 1.0437 0.0
C1100 C 0.91844 1.0123 1.06333 0.0
C1101 C 0.94077 0.99717 1.04609 0.0
C1102 C 0.87044 0.98055 1.04631 0.0
C1103 C 0.92741 0.97237 1.03015 0.0
C1104 C 0.82034 0.96106 1.02175 0.0
C1105 C 0.77547 0.97521 1.06028 0.0
N1106 N 0.89294 0.96514 1.03045 0.0
N1107 N 0.81024 0.98141 1.06221 0.0
H1108 H 0.77672 0.99908 0.31626 0.0
H1109 H 0.82732 0.19677 0.28845 0.0
H1110 H 0.85812 0.03365 0.26693 0.0
H1111 H 0.72227 0.16887 0.30924 0.0
H1112 H 0.84327 0.1356 0.2899 0.0
H1113 H 0.75941 0.06054 0.32166 0.0
C1114 C 0.79069 0.01945 0.3065 0.0
C1115 C 0.81846 1.01131 0.29083 0.0
C1116 C 0.81671 0.14283 0.29419 0.0
C1117 C 0.79981 0.08061 0.29747 0.0
C1118 C 0.80767 0.17773 0.29352 0.0
C1119 C 0.7734 0.18773 0.29854 0.0
C1120 C 0.79128 0.11769 0.29974 0.0
C1121 C 0.74886 0.16197 0.30482 0.0
C1122 C 0.78093 0.05427 0.30964 0.0
C1123 C 0.83612 0.03853 0.27883 0.0
N1124 N 0.75824 0.12786 0.30514 0.0
N1125 N 0.8266 0.07186 0.28252 0.0
H1126 H 0.78187 0.02221 0.52145 0.0
H1127 H 0.58805 0.04735 0.57103 0.0
H1128 H 0.74959 0.0993 0.57365 0.0
H1129 H 0.61434 0.9783 0.51201 0.0
H1130 H 0.64954 0.05855 0.57727 0.0
H1131 H 0.72312 0.9966 0.52348 0.0
C1132 C 0.76265 0.03311 0.53372 0.0
C1133 C 0.77001 0.0631 0.54706 0.0
C1134 C 0.64198 0.04078 0.56301 0.0
C1135 C 0.70361 0.03462 0.54936 0.0
C1136 C 0.60687 0.0347 0.55928 0.0
C1137 C 0.59623 1.0125 0.54063 0.0
C1138 C 0.66669 0.02466 0.54791 0.0
C1139 C 0.62162 0.99581 0.52648 0.0
C1140 C 0.72921 0.01876 0.53477 0.0
C1141 C 0.74453 0.0765 0.56273 0.0
N1142 N 0.65584 1.00253 0.53025 0.0
N1143 N 0.71234 0.06239 0.56324 0.0
H1144 H 0.22961 0.17197 0.48055 0.0
H1145 H 0.35128 0.03018 0.53979 0.0
H1146 H 0.32633 0.19444 0.51688 0.0
H1147 H 0.2853 1.00257 0.47936 0.0
H1148 H 0.33654 0.09052 0.5337 0.0
H1149 H 0.24473 0.10975 0.48107 0.0
C1150 C 0.25406 0.16378 0.48847 0.0
C1151 C 0.27668 0.18814 0.49889 0.0
C1152 C 0.32514 0.07138 0.52174 0.0
C1153 C 0.29386 0.11788 0.4995 0.0
C1154 C 0.33324 0.0367 0.52535 0.0
C1155 C 0.31928 1.01115 0.51014 0.0
C1156 C 0.30245 0.0809 0.50299 0.0
C1157 C 0.29641 0.02152 0.49157 0.0
C1158 C 0.26272 0.1285 0.48857 0.0
C1159 C 0.30824 0.17654 0.50856 0.0
N1160 N 0.28844 0.05585 0.48855 0.0
N1161 N 0.31572 0.14218 0.50882 0.0
H1162 H 0.08519 0.0741 0.26565 0.0
H1163 H 0.27983 0.03812 0.22476 0.0
H1164 H 0.11002 0.97797 0.2292 0.0
H1165 H 0.24942 0.09208 0.29038 0.0
H1166 H 0.21846 0.02097 0.21911 0.0
H1167 H 0.1467 0.08889 0.26599 0.0
C1168 C 0.10361 0.05631 0.25741 0.0
C1169 C 0.09268 0.02471 0.2475 0.0
C1170 C 0.22567 0.03632 0.23477 0.0
C1171 C 0.16307 0.04116 0.24826 0.0
C1172 C 0.26051 0.04593 0.23808 0.0
C1173 C 0.26977 0.06664 0.25803 0.0
C1174 C 0.20036 0.04819 0.25128 0.0
C1175 C 0.24369 0.07626 0.27466 0.0
C1176 C 0.13869 0.0646 0.25781 0.0
C1177 C 0.11768 1.00239 0.23731 0.0
N1178 N 0.21024 0.06729 0.27075 0.0
N1179 N 0.152 1.01099 0.238 0.0
H1180 H 0.25582 0.03291 0.98608 0.0
H1181 H 0.20273 0.83526 1.01269 0.0
H1182 H 0.17196 0.99896 1.03352 0.0
H1183 H 0.30812 0.86273 0.99252 0.0
H1184 H 0.18715 0.89658 1.01145 0.0
H1185 H 0.27251 0.97127 0.98068 0.0
C1186 C 0.24116 1.01263 0.99542 0.0
C1187 C 0.21295 0.021 1.01064 0.0
C1188 C 0.21371 0.88922 1.00727 0.0
C1189 C 0.23094 0.95146 1.00399 0.0
C1190 C 0.22254 0.85424 1.00783 0.0
C1191 C 0.25679 0.84405 1.00288 0.0
C1192 C 0.23931 0.91427 1.00186 0.0
C1193 C 0.28154 0.86974 0.99687 0.0
C1194 C 0.25058 0.97769 0.99229 0.0
C1195 C 0.19438 0.99388 1.02205 0.0
N1196 N 0.27235 0.90391 0.99661 0.0
N1197 N 0.20361 0.96044 1.01839 0.0
H1198 H 0.44702 0.95754 0.75685 0.0
H1199 H 0.24893 0.99695 0.72724 0.0
H1200 H 0.41741 0.05537 0.72358 0.0
H1201 H 0.2841 0.93352 0.78776 0.0
H1202 H 0.30983 1.01369 0.71902 0.0
H1203 H 0.38594 0.94145 0.76009 0.0
C1204 C 0.42762 0.97536 0.7498 0.0
C1205 C 0.4371 1.0078 0.73989 0.0
C1206 C 0.30385 0.99633 0.73416 0.0
C1207 C 0.36727 0.98988 0.74405 0.0
C1208 C 0.26927 0.98692 0.73893 0.0
C1209 C 0.26141 0.96402 0.75831 0.0
C1210 C 0.33037 0.98204 0.74857 0.0
C1211 C 0.28876 0.95145 0.77274 0.0
C1212 C 0.3928 0.96634 0.75191 0.0
C1213 C 0.41092 0.03022 0.73147 0.0
N1214 N 0.32198 0.96038 0.76743 0.0
N1215 N 0.37694 0.02086 0.73378 0.0
H1216 H 0.30898 0.0739 0.18807 0.0
H1217 H 0.22613 0.17484 1.07498 0.0
H1218 H 0.29919 0.18566 0.18663 0.0
H1219 H 0.18736 0.07374 1.09684 0.0
H1220 H 0.26108 0.17655 1.11217 0.0
H1221 H 0.27202 0.07065 0.15163 0.0
C1222 C 0.2994 0.09783 0.17994 0.0
C1223 C 0.3076 0.13023 0.19038 0.0
C1224 C 0.24465 0.15415 1.10896 0.0
C1225 C 0.2656 0.12663 1.14826 0.0
C1226 C 0.22458 0.15314 1.08769 0.0
C1227 C 0.20298 0.12447 1.08284 0.0
C1228 C 0.24399 0.12598 1.1255 0.0
C1229 C 0.20293 0.09678 1.09995 0.0
C1230 C 0.27809 0.09588 0.15922 0.0
C1231 C 0.29379 0.16021 0.17923 0.0
N1232 N 0.22323 0.0981 1.12035 0.0
N1233 N 0.27398 0.15771 0.15868 0.0
H1234 H 0.65547 0.50628 0.31458 0.0
H1235 H 0.63353 0.5074 0.45951 0.0
H1236 H 0.66354 0.41157 0.35708 0.0
H1237 H 0.66558 0.59779 0.41782 0.0
H1238 H 0.63943 0.4719 0.42262 0.0
H1239 H 0.6544 0.5398 0.35209 0.0
C1240 C 0.65671 0.49233 0.33181 0.0
C1241 C 0.6589 0.45571 0.33245 0.0
C1242 C 0.64503 0.49952 0.42155 0.0
C1243 C 0.65758 0.49465 0.37606 0.0
C1244 C 0.64131 0.51999 0.44258 0.0
C1245 C 0.64825 0.55605 0.44187 0.0
C1246 C 0.65526 0.51512 0.39933 0.0
C1247 C 0.65929 0.57037 0.41937 0.0
C1248 C 0.65635 0.5117 0.35332 0.0
C1249 C 0.66129 0.4396 0.35556 0.0
N1250 N 0.66207 0.55005 0.3991 0.0
N1251 N 0.66015 0.45909 0.37639 0.0
H1252 H 0.18175 0.91577 0.66939 0.0
H1253 H 0.3711 0.91639 0.60649 0.0
H1254 H 0.27312 0.88298 0.7086 0.0
H1255 H 0.27665 0.90087 0.56599 0.0
H1256 H 0.33666 0.91461 0.64465 0.0
H1257 H 0.21706 0.92077 0.63205 0.0
C1258 C 0.20913 0.90924 0.67019 0.0
C1259 C 0.22407 0.89801 0.69229 0.0
C1260 C 0.32357 0.91145 0.62738 0.0
C1261 C 0.26516 0.90472 0.64934 0.0
C1262 C 0.34323 0.91245 0.60558 0.0
C1263 C 0.32702 0.90783 0.58291 0.0
C1264 C 0.28721 0.90677 0.62656 0.0
C1265 C 0.29058 0.90358 0.58297 0.0
C1266 C 0.22934 0.91224 0.64879 0.0
C1267 C 0.26007 0.89085 0.69201 0.0
N1268 N 0.27205 0.90333 0.60429 0.0
N1269 N 0.27929 0.89445 0.67102 0.0
H1270 H 0.86351 0.6245 0.85607 0.0
H1271 H 0.8687 0.43362 0.91831 0.0
H1272 H 0.87719 0.52939 0.81587 0.0
H1273 H 0.8969 0.52551 0.9583 0.0
H1274 H 0.86227 0.46959 0.88146 0.0
H1275 H 0.86606 0.59009 0.89443 0.0
C1276 C 0.86711 0.59656 0.85523 0.0
C1277 C 0.87096 0.58017 0.83252 0.0
C1278 C 0.87011 0.48192 0.89825 0.0
C1279 C 0.87319 0.54045 0.8764 0.0
C1280 C 0.87395 0.46129 0.91938 0.0
C1281 C 0.88433 0.47615 0.94156 0.0
C1282 C 0.87597 0.51811 0.89909 0.0
C1283 C 0.8898 0.51254 0.94161 0.0
C1284 C 0.86861 0.57691 0.87714 0.0
C1285 C 0.87492 0.54361 0.83276 0.0
N1286 N 0.88548 0.53216 0.92085 0.0
N1287 N 0.87583 0.52523 0.85413 0.0
H1288 H 0.87137 0.91713 0.19371 0.0
H1289 H 0.68158 0.91564 1.1326 0.0
H1290 H 0.77665 0.90283 0.23514 0.0
H1291 H 0.7734 0.88511 1.0926 0.0
H1292 H 0.71699 0.92085 0.16951 0.0
H1293 H 0.83703 0.9151 0.15582 0.0
C1294 C 0.84346 0.91346 0.1949 0.0
C1295 C 0.82713 0.90933 0.21779 0.0
C1296 C 0.72937 0.91281 0.15268 0.0
C1297 C 0.78743 0.90793 0.17439 0.0
C1298 C 0.70909 0.90973 1.13153 0.0
C1299 C 0.72413 0.8991 1.10933 0.0
C1300 C 0.76533 0.90589 0.15181 0.0
C1301 C 0.76029 0.89263 1.10926 0.0
C1302 C 0.82385 0.9123 0.17324 0.0
C1303 C 0.79067 0.90528 0.21803 0.0
N1304 N 0.77953 0.89621 1.13002 0.0
N1305 N 0.77221 0.90486 0.19684 0.0
H1306 H 0.36697 0.61977 0.94113 0.0
H1307 H 0.35875 0.42933 0.88115 0.0
H1308 H 0.37364 0.52467 0.9833 0.0
H1309 H 0.39744 0.51877 0.84125 0.0
H1310 H 0.35414 0.46538 0.91785 0.0
H1311 H 0.36807 0.58482 0.90353 0.0
C1312 C 0.3688 0.59168 0.94256 0.0
C1313 C 0.37106 0.5754 0.96559 0.0
C1314 C 0.3638 0.47708 0.90108 0.0
C1315 C 0.37146 0.53506 0.92251 0.0
C1316 C 0.36654 0.45643 0.88006 0.0
C1317 C 0.3793 0.47058 0.85796 0.0
C1318 C 0.37312 0.51257 0.90012 0.0
C1319 C 0.38821 0.50628 0.85784 0.0
C1320 C 0.36942 0.57171 0.92106 0.0
C1321 C 0.37268 0.53868 0.9661 0.0
N1322 N 0.38485 0.52593 0.87843 0.0
N1323 N 0.37271 0.51995 0.94507 0.0
H1324 H 0.69556 0.06181 0.70913 0.0
H1325 H 0.79796 0.1818 0.61119 0.0
H1326 H 0.71504 0.17117 0.71994 0.0
H1327 H 0.81357 0.07074 0.61533 0.0
H1328 H 0.76099 0.17807 0.64784 0.0
H1329 H 0.73182 0.0642 0.67195 0.0
C1330 C 0.70712 0.08643 0.70365 0.0
C1331 C 0.70179 0.11643 0.71786 0.0
C1332 C 0.77268 0.15452 0.64084 0.0
C1333 C 0.74362 0.11932 0.67491 0.0
C1334 C 0.79394 0.15664 0.61984 0.0
C1335 C 0.80981 0.12673 0.61016 0.0
C1336 C 0.76626 0.12212 0.65227 0.0
C1337 C 0.80271 0.09475 0.62222 0.0
C1338 C 0.72807 0.08769 0.68242 0.0
C1339 C 0.71802 0.14738 0.70971 0.0
N1340 N 0.78148 0.09329 0.64241 0.0
N1341 N 0.73784 0.14802 0.6889 0.0
H1342 H 0.1034 0.45552 0.46678 0.0
H1343 H 0.20308 0.57324 0.36768 0.0
H1344 H 0.21523 0.45505 0.46029 0.0
H1345 H 0.10013 0.53303 0.35478 0.0
H1346 H 0.20682 0.53671 0.40451 0.0
H1347 H 0.10031 0.49036 0.42897 0.0
C1348 C 0.12729 0.46259 0.45739 0.0
C1349 C 0.15956 0.45182 0.46668 0.0
C1350 C 0.18333 0.536 0.39371 0.0
C1351 C 0.15622 0.49263 0.42351 0.0
C1352 C 0.18098 0.55715 0.37272 0.0
C1353 C 0.15088 0.55691 0.35813 0.0
C1354 C 0.15511 0.51473 0.40071 0.0
C1355 C 0.12365 0.53454 0.36547 0.0
C1356 C 0.12551 0.48246 0.43576 0.0
C1357 C 0.18969 0.4622 0.4537 0.0
N1358 N 0.12624 0.51478 0.38629 0.0
N1359 N 0.18732 0.4822 0.43301 0.0
H1360 H 0.75339 0.60784 0.56374 0.0
H1361 H 0.76431 0.65856 0.70461 0.0
H1362 H 0.66155 0.62999 0.60627 0.0
H1363 H 0.84494 0.60019 0.66831 0.0
H1364 H 0.72784 0.65309 0.66832 0.0
H1365 H 0.78818 0.60882 0.60096 0.0
C1366 C 0.74051 0.6132 0.58094 0.0
C1367 C 0.70444 0.61942 0.58172 0.0
C1368 C 0.75352 0.64153 0.66827 0.0
C1369 C 0.74464 0.62101 0.62477 0.0
C1370 C 0.77464 0.64488 0.68898 0.0
C1371 C 0.80832 0.63036 0.68967 0.0
C1372 C 0.76601 0.62384 0.64767 0.0
C1373 C 0.81956 0.61238 0.66874 0.0
C1374 C 0.76047 0.61355 0.60226 0.0
C1375 C 0.68925 0.62534 0.60471 0.0
N1376 N 0.79869 0.6099 0.64868 0.0
N1377 N 0.70944 0.6265 0.62521 0.0
H1378 H 0.15746 1.00651 0.81475 0.0
H1379 H 0.13425 1.00935 0.95941 0.0
H1380 H 0.16531 0.91241 0.85791 0.0
H1381 H 0.16879 0.09914 0.91804 0.0
H1382 H 0.14004 0.97376 0.92265 0.0
H1383 H 0.15648 0.04062 0.85203 0.0
C1384 C 0.1587 0.99282 0.83208 0.0
C1385 C 0.16082 0.95618 0.83297 0.0
C1386 C 0.14625 1.00126 0.92159 0.0
C1387 C 0.15955 0.99582 0.8763 0.0
C1388 C 0.14261 0.02182 0.94257 0.0
C1389 C 0.15035 0.05775 0.94196 0.0
C1390 C 0.15716 0.01658 0.89946 0.0
C1391 C 0.16197 0.07184 0.91952 0.0
C1392 C 0.15838 1.01253 0.85345 0.0
C1393 C 0.16318 0.94043 0.85619 0.0
N1394 N 0.16464 0.05141 0.89926 0.0
N1395 N 0.16204 0.96024 0.87687 0.0
H1396 H 0.77529 0.40768 1.06487 0.0
H1397 H 0.77399 0.38145 0.20965 0.0
H1398 H 0.86998 0.41226 1.10649 0.0
H1399 H 0.68405 0.41568 0.16942 0.0
H1400 H 0.80939 0.38782 0.17238 0.0
H1401 H 0.74171 0.40626 1.10276 0.0
C1402 C 0.78919 0.40803 1.08199 0.0
C1403 C 0.82581 0.40934 1.08228 0.0
C1404 C 0.78188 0.3938 0.1717 0.0
C1405 C 0.78687 0.40756 1.12629 0.0
C1406 C 0.76147 0.38981 0.19297 0.0
C1407 C 0.72555 0.39722 0.1928 0.0
C1408 C 0.76641 0.40482 0.14978 0.0
C1409 C 0.71134 0.40898 0.17057 0.0
C1410 C 0.76982 0.40748 1.10372 0.0
C1411 C 0.84193 0.41072 1.10525 0.0
N1412 N 0.73161 0.41205 0.15007 0.0
N1413 N 0.82244 0.40934 1.12627 0.0
H1414 H 0.35628 0.93455 0.41914 0.0
H1415 H 0.37477 0.12361 0.35538 0.0
H1416 H 0.40509 0.02048 0.45583 0.0
H1417 H 0.36319 0.02784 0.31575 0.0
H1418 H 0.37754 0.08921 0.39372 0.0
H1419 H 0.35053 0.97107 0.38259 0.0
C1420 C 0.36619 0.96096 0.41953 0.0
C1421 C 0.38193 0.97394 0.44072 0.0
C1422 C 0.37444 0.07585 0.37657 0.0
C1423 C 0.3746 0.01665 0.39855 0.0
C1424 C 0.37274 0.0955 0.35469 0.0
C1425 C 0.36943 0.07872 0.33212 0.0
C1426 C 0.37202 0.03917 0.37597 0.0
C1427 C 0.36651 0.0421 0.33252 0.0
C1428 C 0.36274 0.98194 0.39857 0.0
C1429 C 0.39345 1.00888 0.43993 0.0
N1430 N 0.36778 0.02379 0.35389 0.0
N1431 N 0.38949 0.02893 0.41933 0.0
H1432 H 0.37367 0.41473 0.69155 0.0
H1433 H 0.18313 0.41739 0.63063 0.0
H1434 H 0.27799 0.40698 0.73279 0.0
H1435 H 0.27368 0.38294 0.59084 0.0
H1436 H 0.21908 0.42305 0.66726 0.0
H1437 H 0.33926 0.41279 0.65356 0.0
C1438 C 0.34561 0.4126 0.69271 0.0
C1439 C 0.32903 0.41025 0.71563 0.0
C1440 C 0.23109 0.41408 0.65054 0.0
C1441 C 0.2893 0.4087 0.67212 0.0
C1442 C 0.21047 0.41071 0.62955 0.0
C1443 C 0.22494 0.39882 0.60751 0.0
C1444 C 0.26691 0.40631 0.64964 0.0
C1445 C 0.26095 0.39137 0.60743 0.0
C1446 C 0.32594 0.41143 0.67099 0.0
C1447 C 0.29233 0.40811 0.71575 0.0
N1448 N 0.28057 0.39534 0.62799 0.0
N1449 N 0.27396 0.40747 0.69457 0.0
H1450 H 0.83418 0.03828 0.4817 0.0
H1451 H 0.91453 0.01707 0.34579 0.0
H1452 H 0.89979 0.11541 0.44727 0.0
H1453 H 0.84545 0.9417 0.37911 0.0
H1454 H 0.90899 0.05332 0.3823 0.0
H1455 H 0.83709 1.00314 0.44435 0.0
C1456 C 0.84893 0.04802 0.46616 0.0
C1457 C 0.86672 0.07999 0.4677 0.0
C1458 C 0.89516 0.02877 0.38172 0.0
C1459 C 0.87045 0.0395 0.42453 0.0
C1460 C 0.89849 1.0078 0.3608 0.0
C1461 C 0.881 0.97561 0.35914 0.0
C1462 C 0.87411 0.01786 0.40153 0.0
C1463 C 0.85999 0.96585 0.37936 0.0
C1464 C 0.85069 0.02784 0.44479 0.0
C1465 C 0.8857 0.09099 0.44699 0.0
N1466 N 0.85726 0.98664 0.39949 0.0
N1467 N 0.88705 0.07092 0.42643 0.0
H1468 H 0.15646 0.61656 0.19146 0.0
H1469 H 0.34665 0.61458 1.12897 0.0
H1470 H 0.25194 0.62415 0.23194 0.0
H1471 H 0.25632 0.64975 1.08958 0.0
H1472 H 0.31076 0.60874 0.1659 0.0
H1473 H 0.19082 0.61935 0.15318 0.0
C1474 C 0.18451 0.61886 0.19237 0.0
C1475 C 0.20107 0.62092 0.21514 0.0
C1476 C 0.29878 0.61798 0.14923 0.0
C1477 C 0.24073 0.62334 0.1713 0.0
C1478 C 0.31937 0.62148 1.12804 0.0
C1479 C 0.30495 0.63355 1.10597 0.0
C1480 C 0.26304 0.62595 1.14858 0.0
C1481 C 0.26901 0.64117 1.10614 0.0
C1482 C 0.20414 0.6205 0.17049 0.0
C1483 C 0.23771 0.6233 0.21498 0.0
N1484 N 0.2494 0.63715 1.12695 0.0
N1485 N 0.25608 0.6243 0.19362 0.0
H1486 H 0.66733 0.99988 0.98508 0.0
H1487 H 0.62538 1.00732 0.843 0.0
H1488 H 0.6563 0.90586 0.94336 0.0
H1489 H 0.67616 0.09157 0.88022 0.0
H1490 H 0.63186 0.9707 0.87959 0.0
H1491 H 0.66637 0.03406 0.94751 0.0
C1492 C 0.66448 0.98623 0.968 0.0
C1493 C 0.66122 0.94964 0.96767 0.0
C1494 C 0.64148 0.99722 0.87979 0.0
C1495 C 0.65999 0.9895 0.92393 0.0
C1496 C 0.63745 0.01842 0.85895 0.0
C1497 C 0.64956 0.05311 0.85845 0.0
C1498 C 0.65719 1.01072 0.90074 0.0
C1499 C 0.66592 0.06531 0.87965 0.0
C1500 C 0.66419 1.00599 0.94643 0.0
C1501 C 0.65849 0.93388 0.94469 0.0
N1502 N 0.66886 0.04439 0.89988 0.0
N1503 N 0.65745 0.95389 0.92382 0.0
loop_
_geom_bond_atom_site_label_1
_geom_bond_atom_site_label_2
_geom_bond_distance
_geom_bond_site_symmetry_2
_ccdc_geom_bond_type
Eu0 C9 2.828 . S
Eu0 O11 2.392 . S
Eu0 O13 2.418 . S
Eu0 O18 2.373 . S
Eu0 O21 2.488 . S
Eu0 O22 2.471 . S
Eu0 O23 2.349 . S
Eu1 O10 2.373 . S
Eu1 O14 2.488 . S
Eu1 O15 2.471 . S
Eu1 O16 2.349 . S
Eu1 O19 2.392 . S
Eu1 O20 2.418 . S
Eu1 C30 2.828 . S
C2 O20 1.244 . S
C2 O23 1.265 . S
C3 C4 1.379 . S
C3 C7 1.373 . S
C3 C9 1.505 . S
C4 C3 1.379 . S
C4 C6 1.369 . S
C4 H32 0.930 . S
C5 C7 1.383 . S
C5 C8 1.382 . S
C5 H33 0.930 . S
C6 C4 1.369 . S
C6 C8 1.392 . S
C6 H34 0.930 . S
C7 C3 1.373 . S
C7 C5 1.383 . S
C7 H35 0.931 . S
C8 C5 1.382 . S
C8 C6 1.392 . S
C9 Eu0 2.828 . S
C9 C3 1.505 . S
C9 O21 1.249 . S
C9 O22 1.244 . S
O10 Eu1 2.373 . S
O10 C12 1.258 . S
O11 Eu0 2.392 . S
O11 C12 1.242 . S
C12 O10 1.258 . S
C12 O11 1.242 . S
O13 Eu0 2.418 . S
O13 C17 1.244 . S
O14 Eu1 2.488 . S
O14 C30 1.249 . S
O15 Eu1 2.471 . S
O15 C30 1.244 . S
O16 Eu1 2.349 . S
O16 C17 1.265 . S
C17 O13 1.244 . S
C17 O16 1.265 . S
O18 Eu0 2.373 . S
O18 C31 1.258 . S
O19 Eu1 2.392 . S
O19 C31 1.242 . S
O20 Eu1 2.418 . S
O20 C2 1.244 . S
O21 Eu0 2.488 . S
O21 C9 1.249 . S
O22 Eu0 2.471 . S
O22 C9 1.244 . S
O23 Eu0 2.349 . S
O23 C2 1.265 . S
C24 C25 1.379 . S
C24 C28 1.373 . S
C24 C30 1.505 . S
C25 C24 1.379 . S
C25 C27 1.369 . S
C25 H36 0.930 . S
C26 C28 1.383 1_565 S
C26 C29 1.382 1_565 S
C26 H37 0.930 . S
C27 C25 1.369 . S
C27 C29 1.392 . S
C27 H38 0.930 . S
C28 C24 1.373 . S
C28 C26 1.383 1_545 S
C28 H39 0.931 1_545 S
C29 C26 1.382 1_545 S
C29 C27 1.392 . S
C30 Eu1 2.828 . S
C30 O14 1.249 . S
C30 O15 1.244 . S
C30 C24 1.505 . S
C31 O18 1.258 . S
C31 O19 1.242 . S
H32 C4 0.930 . S
H33 C5 0.930 . S
H34 C6 0.930 . S
H35 C7 0.931 . S
H36 C25 0.930 . S
H37 C26 0.930 . S
H38 C27 0.930 . S
H39 C28 0.931 1_565 S
Eu40 C49 2.828 . S
Eu40 O51 2.392 . S
Eu40 O53 2.418 . S
Eu40 O58 2.373 . S
Eu40 O61 2.488 . S
Eu40 O62 2.471 . S
Eu40 O63 2.349 . S
Eu41 O50 2.373 . S
Eu41 O54 2.488 . S
Eu41 O55 2.471 . S
Eu41 O56 2.349 . S
Eu41 O59 2.392 . S
Eu41 O60 2.418 . S
Eu41 C70 2.828 . S
C42 O60 1.244 . S
C42 O63 1.265 . S
C43 C44 1.379 . S
C43 C47 1.373 . S
C43 C49 1.505 . S
C44 C43 1.379 . S
C44 C46 1.369 . S
C44 H72 0.930 . S
C45 C47 1.383 . S
C45 C48 1.382 . S
C45 H73 0.930 . S
C46 C44 1.369 . S
C46 C48 1.392 . S
C46 H74 0.930 . S
C47 C43 1.373 . S
C47 C45 1.383 . S
C47 H75 0.931 . S
C48 C45 1.382 . S
C48 C46 1.392 . S
C49 Eu40 2.828 . S
C49 C43 1.505 . S
C49 O61 1.249 . S
C49 O62 1.244 . S
O50 Eu41 2.373 . S
O50 C52 1.258 . S
O51 Eu40 2.392 . S
O51 C52 1.242 . S
C52 O50 1.258 . S
C52 O51 1.242 . S
O53 Eu40 2.418 . S
O53 C57 1.244 . S
O54 Eu41 2.488 . S
O54 C70 1.249 . S
O55 Eu41 2.471 . S
O55 C70 1.244 . S
O56 Eu41 2.349 . S
O56 C57 1.265 . S
C57 O53 1.244 . S
C57 O56 1.265 . S
O58 Eu40 2.373 . S
O58 C71 1.258 . S
O59 Eu41 2.392 . S
O59 C71 1.242 . S
O60 Eu41 2.418 . S
O60 C42 1.244 . S
O61 Eu40 2.488 . S
O61 C49 1.249 . S
O62 Eu40 2.471 . S
O62 C49 1.244 . S
O63 Eu40 2.349 . S
O63 C42 1.265 . S
C64 C65 1.379 . S
C64 C68 1.373 . S
C64 C70 1.505 . S
C65 C64 1.379 . S
C65 C67 1.369 . S
C65 H76 0.930 . S
C66 C68 1.383 . S
C66 C69 1.382 . S
C66 H77 0.930 . S
C67 C65 1.369 . S
C67 C69 1.392 . S
C67 H78 0.930 . S
C68 C64 1.373 . S
C68 C66 1.383 . S
C68 H79 0.931 . S
C69 C66 1.382 . S
C69 C67 1.392 . S
C70 Eu41 2.828 . S
C70 O54 1.249 . S
C70 O55 1.244 . S
C70 C64 1.505 . S
C71 O58 1.258 . S
C71 O59 1.242 . S
H72 C44 0.930 . S
H73 C45 0.930 . S
H74 C46 0.930 . S
H75 C47 0.931 . S
H76 C65 0.930 . S
H77 C66 0.930 . S
H78 C67 0.930 . S
H79 C68 0.931 . S
Eu80 C89 2.828 . S
Eu80 O91 2.392 . S
Eu80 O93 2.418 . S
Eu80 O98 2.373 . S
Eu80 O101 2.488 . S
Eu80 O102 2.471 . S
Eu80 O103 2.349 . S
Eu81 O90 2.373 . S
Eu81 O94 2.488 . S
Eu81 O95 2.471 . S
Eu81 O96 2.349 . S
Eu81 O99 2.392 . S
Eu81 O100 2.418 . S
Eu81 C110 2.828 . S
C82 O100 1.244 . S
C82 O103 1.265 . S
C83 C84 1.379 . S
C83 C87 1.373 . S
C83 C89 1.505 . S
C84 C83 1.379 . S
C84 C86 1.369 . S
C84 H112 0.930 . S
C85 C87 1.383 . S
C85 C88 1.382 . S
C85 H113 0.930 . S
C86 C84 1.369 . S
C86 C88 1.392 . S
C86 H114 0.930 . S
C87 C83 1.373 . S
C87 C85 1.383 . S
C87 H115 0.931 . S
C88 C85 1.382 . S
C88 C86 1.392 . S
C89 Eu80 2.828 . S
C89 C83 1.505 . S
C89 O101 1.249 . S
C89 O102 1.244 . S
O90 Eu81 2.373 . S
O90 C92 1.258 . S
O91 Eu80 2.392 . S
O91 C92 1.242 . S
C92 O90 1.258 . S
C92 O91 1.242 . S
O93 Eu80 2.418 . S
O93 C97 1.244 . S
O94 Eu81 2.488 . S
O94 C110 1.249 . S
O95 Eu81 2.471 . S
O95 C110 1.244 . S
O96 Eu81 2.349 . S
O96 C97 1.265 . S
C97 O93 1.244 . S
C97 O96 1.265 . S
O98 Eu80 2.373 . S
O98 C111 1.258 . S
O99 Eu81 2.392 . S
O99 C111 1.242 . S
O100 Eu81 2.418 . S
O100 C82 1.244 . S
O101 Eu80 2.488 . S
O101 C89 1.249 . S
O102 Eu80 2.471 . S
O102 C89 1.244 . S
O103 Eu80 2.349 . S
O103 C82 1.265 . S
C104 C105 1.379 . S
C104 C108 1.373 . S
C104 C110 1.505 . S
C105 C104 1.379 . S
C105 C107 1.369 . S
C105 H116 0.930 . S
C106 C108 1.383 1_545 S
C106 C109 1.382 1_545 S
C106 H117 0.930 . S
C107 C105 1.369 . S
C107 C109 1.392 . S
C107 H118 0.930 . S
C108 C104 1.373 . S
C108 C106 1.383 1_565 S
C108 H119 0.931 1_565 S
C109 C106 1.382 1_565 S
C109 C107 1.392 . S
C110 Eu81 2.828 . S
C110 O94 1.249 . S
C110 O95 1.244 . S
C110 C104 1.505 . S
C111 O98 1.258 . S
C111 O99 1.242 . S
H112 C84 0.930 . S
H113 C85 0.930 . S
H114 C86 0.930 . S
H115 C87 0.931 . S
H116 C105 0.930 . S
H117 C106 0.930 . S
H118 C107 0.930 . S
H119 C108 0.931 1_545 S
Eu120 C129 2.828 . S
Eu120 O131 2.392 . S
Eu120 O133 2.418 . S
Eu120 O138 2.373 . S
Eu120 O141 2.488 . S
Eu120 O142 2.471 . S
Eu120 O143 2.349 . S
Eu121 O130 2.373 . S
Eu121 O134 2.488 . S
Eu121 O135 2.471 . S
Eu121 O136 2.349 . S
Eu121 O139 2.392 . S
Eu121 O140 2.418 . S
Eu121 C150 2.828 . S
C122 O140 1.244 . S
C122 O143 1.265 . S
C123 C124 1.379 1_455 S
C123 C127 1.373 . S
C123 C129 1.505 1_455 S
C124 C123 1.379 1_655 S
C124 C126 1.369 1_655 S
C124 H152 0.930 . S
C125 C127 1.383 . S
C125 C128 1.382 . S
C125 H153 0.930 . S
C126 C124 1.369 1_455 S
C126 C128 1.392 . S
C126 H154 0.930 1_455 S
C127 C123 1.373 . S
C127 C125 1.383 . S
C127 H155 0.931 . S
C128 C125 1.382 . S
C128 C126 1.392 . S
C129 Eu120 2.828 . S
C129 C123 1.505 1_655 S
C129 O141 1.249 . S
C129 O142 1.244 . S
O130 Eu121 2.373 . S
O130 C132 1.258 . S
O131 Eu120 2.392 . S
O131 C132 1.242 . S
C132 O130 1.258 . S
C132 O131 1.242 . S
O133 Eu120 2.418 . S
O133 C137 1.244 . S
O134 Eu121 2.488 . S
O134 C150 1.249 . S
O135 Eu121 2.471 . S
O135 C150 1.244 . S
O136 Eu121 2.349 . S
O136 C137 1.265 . S
C137 O133 1.244 . S
C137 O136 1.265 . S
O138 Eu120 2.373 . S
O138 C151 1.258 . S
O139 Eu121 2.392 . S
O139 C151 1.242 . S
O140 Eu121 2.418 . S
O140 C122 1.244 . S
O141 Eu120 2.488 . S
O141 C129 1.249 . S
O142 Eu120 2.471 . S
O142 C129 1.244 . S
O143 Eu120 2.349 . S
O143 C122 1.265 . S
C144 C145 1.379 . S
C144 C148 1.373 . S
C144 C150 1.505 . S
C145 C144 1.379 . S
C145 C147 1.369 . S
C145 H156 0.930 . S
C146 C148 1.383 . S
C146 C149 1.382 . S
C146 H157 0.930 . S
C147 C145 1.369 . S
C147 C149 1.392 . S
C147 H158 0.930 . S
C148 C144 1.373 . S
C148 C146 1.383 . S
C148 H159 0.931 . S
C149 C146 1.382 . S
C149 C147 1.392 . S
C150 Eu121 2.828 . S
C150 O134 1.249 . S
C150 O135 1.244 . S
C150 C144 1.505 . S
C151 O138 1.258 . S
C151 O139 1.242 . S
H152 C124 0.930 . S
H153 C125 0.930 . S
H154 C126 0.930 1_655 S
H155 C127 0.931 . S
H156 C145 0.930 . S
H157 C146 0.930 . S
H158 C147 0.930 . S
H159 C148 0.931 . S
Eu160 C169 2.828 . S
Eu160 O171 2.392 . S
Eu160 O173 2.418 . S
Eu160 O178 2.373 . S
Eu160 O181 2.488 . S
Eu160 O182 2.471 . S
Eu160 O183 2.349 . S
Eu161 O170 2.373 . S
Eu161 O174 2.488 . S
Eu161 O175 2.471 . S
Eu161 O176 2.349 . S
Eu161 O179 2.392 . S
Eu161 O180 2.418 . S
Eu161 C190 2.828 . S
C162 O180 1.244 . S
C162 O183 1.265 . S
C163 C164 1.379 . S
C163 C167 1.373 . S
C163 C169 1.505 . S
C164 C163 1.379 . S
C164 C166 1.369 . S
C164 H192 0.930 . S
C165 C167 1.383 1_545 S
C165 C168 1.382 1_545 S
C165 H193 0.930 . S
C166 C164 1.369 . S
C166 C168 1.392 . S
C166 H194 0.930 . S
C167 C163 1.373 . S
C167 C165 1.383 1_565 S
C167 H195 0.931 1_565 S
C168 C165 1.382 1_565 S
C168 C166 1.392 . S
C169 Eu160 2.828 . S
C169 C163 1.505 . S
C169 O181 1.249 . S
C169 O182 1.244 . S
O170 Eu161 2.373 . S
O170 C172 1.258 . S
O171 Eu160 2.392 . S
O171 C172 1.242 . S
C172 O170 1.258 . S
C172 O171 1.242 . S
O173 Eu160 2.418 . S
O173 C177 1.244 . S
O174 Eu161 2.488 . S
O174 C190 1.249 . S
O175 Eu161 2.471 . S
O175 C190 1.244 . S
O176 Eu161 2.349 . S
O176 C177 1.265 . S
C177 O173 1.244 . S
C177 O176 1.265 . S
O178 Eu160 2.373 . S
O178 C191 1.258 . S
O179 Eu161 2.392 . S
O179 C191 1.242 . S
O180 Eu161 2.418 . S
O180 C162 1.244 . S
O181 Eu160 2.488 . S
O181 C169 1.249 . S
O182 Eu160 2.471 . S
O182 C169 1.244 . S
O183 Eu160 2.349 . S
O183 C162 1.265 . S
C184 C185 1.379 . S
C184 C188 1.373 . S
C184 C190 1.505 . S
C185 C184 1.379 . S
C185 C187 1.369 . S
C185 H196 0.930 . S
C186 C188 1.383 . S
C186 C189 1.382 . S
C186 H197 0.930 . S
C187 C185 1.369 . S
C187 C189 1.392 . S
C187 H198 0.930 . S
C188 C184 1.373 . S
C188 C186 1.383 . S
C188 H199 0.931 . S
C189 C186 1.382 . S
C189 C187 1.392 . S
C190 Eu161 2.828 . S
C190 O174 1.249 . S
C190 O175 1.244 . S
C190 C184 1.505 . S
C191 O178 1.258 . S
C191 O179 1.242 . S
H192 C164 0.930 . S
H193 C165 0.930 . S
H194 C166 0.930 . S
H195 C167 0.931 1_545 S
H196 C185 0.930 . S
H197 C186 0.930 . S
H198 C187 0.930 . S
H199 C188 0.931 . S
Eu200 C209 2.828 . S
Eu200 O211 2.392 . S
Eu200 O213 2.418 . S
Eu200 O218 2.373 . S
Eu200 O221 2.488 . S
Eu200 O222 2.471 . S
Eu200 O223 2.349 . S
Eu201 O210 2.373 . S
Eu201 O214 2.488 . S
Eu201 O215 2.471 . S
Eu201 O216 2.349 . S
Eu201 O219 2.392 . S
Eu201 O220 2.418 . S
Eu201 C230 2.828 . S
C202 O220 1.244 . S
C202 O223 1.265 . S
C203 C204 1.379 . S
C203 C207 1.373 . S
C203 C209 1.505 . S
C204 C203 1.379 . S
C204 C206 1.369 . S
C204 H232 0.930 . S
C205 C207 1.383 . S
C205 C208 1.382 . S
C205 H233 0.930 . S
C206 C204 1.369 . S
C206 C208 1.392 . S
C206 H234 0.930 . S
C207 C203 1.373 . S
C207 C205 1.383 . S
C207 H235 0.931 . S
C208 C205 1.382 . S
C208 C206 1.392 . S
C209 Eu200 2.828 . S
C209 C203 1.505 . S
C209 O221 1.249 . S
C209 O222 1.244 . S
O210 Eu201 2.373 . S
O210 C212 1.258 . S
O211 Eu200 2.392 . S
O211 C212 1.242 . S
C212 O210 1.258 . S
C212 O211 1.242 . S
O213 Eu200 2.418 . S
O213 C217 1.244 . S
O214 Eu201 2.488 . S
O214 C230 1.249 . S
O215 Eu201 2.471 . S
O215 C230 1.244 . S
O216 Eu201 2.349 . S
O216 C217 1.265 . S
C217 O213 1.244 . S
C217 O216 1.265 . S
O218 Eu200 2.373 . S
O218 C231 1.258 . S
O219 Eu201 2.392 . S
O219 C231 1.242 . S
O220 Eu201 2.418 . S
O220 C202 1.244 . S
O221 Eu200 2.488 . S
O221 C209 1.249 . S
O222 Eu200 2.471 . S
O222 C209 1.244 . S
O223 Eu200 2.349 . S
O223 C202 1.265 . S
C224 C225 1.379 . S
C224 C228 1.373 . S
C224 C230 1.505 . S
C225 C224 1.379 . S
C225 C227 1.369 . S
C225 H236 0.930 . S
C226 C228 1.383 . S
C226 C229 1.382 . S
C226 H237 0.930 . S
C227 C225 1.369 . S
C227 C229 1.392 . S
C227 H238 0.930 . S
C228 C224 1.373 . S
C228 C226 1.383 . S
C228 H239 0.931 . S
C229 C226 1.382 . S
C229 C227 1.392 . S
C230 Eu201 2.828 . S
C230 O214 1.249 . S
C230 O215 1.244 . S
C230 C224 1.505 . S
C231 O218 1.258 . S
C231 O219 1.242 . S
H232 C204 0.930 . S
H233 C205 0.930 . S
H234 C206 0.930 . S
H235 C207 0.931 . S
H236 C225 0.930 . S
H237 C226 0.930 . S
H238 C227 0.930 . S
H239 C228 0.931 . S
Eu240 C249 2.828 . S
Eu240 O251 2.392 . S
Eu240 O253 2.418 . S
Eu240 O258 2.373 . S
Eu240 O261 2.488 . S
Eu240 O262 2.471 . S
Eu240 O263 2.349 . S
Eu241 O250 2.373 . S
Eu241 O254 2.488 . S
Eu241 O255 2.471 . S
Eu241 O256 2.349 . S
Eu241 O259 2.392 . S
Eu241 O260 2.418 . S
Eu241 C270 2.828 . S
C242 O260 1.244 . S
C242 O263 1.265 . S
C243 C244 1.379 . S
C243 C247 1.373 . S
C243 C249 1.505 . S
C244 C243 1.379 . S
C244 C246 1.369 . S
C244 H272 0.930 . S
C245 C247 1.383 1_565 S
C245 C248 1.382 1_565 S
C245 H273 0.930 . S
C246 C244 1.369 . S
C246 C248 1.392 . S
C246 H274 0.930 . S
C247 C243 1.373 . S
C247 C245 1.383 1_545 S
C247 H275 0.931 1_545 S
C248 C245 1.382 1_545 S
C248 C246 1.392 . S
C249 Eu240 2.828 . S
C249 C243 1.505 . S
C249 O261 1.249 . S
C249 O262 1.244 . S
O250 Eu241 2.373 . S
O250 C252 1.258 . S
O251 Eu240 2.392 . S
O251 C252 1.242 . S
C252 O250 1.258 . S
C252 O251 1.242 . S
O253 Eu240 2.418 . S
O253 C257 1.244 . S
O254 Eu241 2.488 . S
O254 C270 1.249 . S
O255 Eu241 2.471 . S
O255 C270 1.244 . S
O256 Eu241 2.349 . S
O256 C257 1.265 . S
C257 O253 1.244 . S
C257 O256 1.265 . S
O258 Eu240 2.373 . S
O258 C271 1.258 . S
O259 Eu241 2.392 . S
O259 C271 1.242 . S
O260 Eu241 2.418 . S
O260 C242 1.244 . S
O261 Eu240 2.488 . S
O261 C249 1.249 . S
O262 Eu240 2.471 . S
O262 C249 1.244 . S
O263 Eu240 2.349 . S
O263 C242 1.265 . S
C264 C265 1.379 . S
C264 C268 1.373 . S
C264 C270 1.505 . S
C265 C264 1.379 . S
C265 C267 1.369 . S
C265 H276 0.930 . S
C266 C268 1.383 . S
C266 C269 1.382 . S
C266 H277 0.930 . S
C267 C265 1.369 . S
C267 C269 1.392 . S
C267 H278 0.930 . S
C268 C264 1.373 . S
C268 C266 1.383 . S
C268 H279 0.931 . S
C269 C266 1.382 . S
C269 C267 1.392 . S
C270 Eu241 2.828 . S
C270 O254 1.249 . S
C270 O255 1.244 . S
C270 C264 1.505 . S
C271 O258 1.258 . S
C271 O259 1.242 . S
H272 C244 0.930 . S
H273 C245 0.930 . S
H274 C246 0.930 . S
H275 C247 0.931 1_565 S
H276 C265 0.930 . S
H277 C266 0.930 . S
H278 C267 0.930 . S
H279 C268 0.931 . S
Eu280 C289 2.828 . S
Eu280 O291 2.392 . S
Eu280 O293 2.418 . S
Eu280 O298 2.373 . S
Eu280 O301 2.488 . S
Eu280 O302 2.471 . S
Eu280 O303 2.349 . S
Eu281 O290 2.373 . S
Eu281 O294 2.488 . S
Eu281 O295 2.471 . S
Eu281 O296 2.349 . S
Eu281 O299 2.392 . S
Eu281 O300 2.418 . S
Eu281 C310 2.828 . S
C282 O300 1.244 . S
C282 O303 1.265 . S
C283 C284 1.379 . S
C283 C287 1.373 . S
C283 C289 1.505 . S
C284 C283 1.379 . S
C284 C286 1.369 . S
C284 H312 0.930 . S
C285 C287 1.383 . S
C285 C288 1.382 . S
C285 H313 0.930 . S
C286 C284 1.369 . S
C286 C288 1.392 . S
C286 H314 0.930 . S
C287 C283 1.373 . S
C287 C285 1.383 . S
C287 H315 0.931 . S
C288 C285 1.382 . S
C288 C286 1.392 . S
C289 Eu280 2.828 . S
C289 C283 1.505 . S
C289 O301 1.249 . S
C289 O302 1.244 . S
O290 Eu281 2.373 . S
O290 C292 1.258 . S
O291 Eu280 2.392 . S
O291 C292 1.242 . S
C292 O290 1.258 . S
C292 O291 1.242 . S
O293 Eu280 2.418 . S
O293 C297 1.244 . S
O294 Eu281 2.488 . S
O294 C310 1.249 . S
O295 Eu281 2.471 . S
O295 C310 1.244 . S
O296 Eu281 2.349 . S
O296 C297 1.265 . S
C297 O293 1.244 . S
C297 O296 1.265 . S
O298 Eu280 2.373 . S
O298 C311 1.258 . S
O299 Eu281 2.392 . S
O299 C311 1.242 . S
O300 Eu281 2.418 . S
O300 C282 1.244 . S
O301 Eu280 2.488 . S
O301 C289 1.249 . S
O302 Eu280 2.471 . S
O302 C289 1.244 . S
O303 Eu280 2.349 . S
O303 C282 1.265 . S
C304 C305 1.379 1_655 S
C304 C308 1.373 . S
C304 C310 1.505 1_655 S
C305 C304 1.379 1_455 S
C305 C307 1.369 1_455 S
C305 H316 0.930 . S
C306 C308 1.383 . S
C306 C309 1.382 . S
C306 H317 0.930 . S
C307 C305 1.369 1_655 S
C307 C309 1.392 . S
C307 H318 0.930 1_655 S
C308 C304 1.373 . S
C308 C306 1.383 . S
C308 H319 0.931 . S
C309 C306 1.382 . S
C309 C307 1.392 . S
C310 Eu281 2.828 . S
C310 O294 1.249 . S
C310 O295 1.244 . S
C310 C304 1.505 1_455 S
C311 O298 1.258 . S
C311 O299 1.242 . S
H312 C284 0.930 . S
H313 C285 0.930 . S
H314 C286 0.930 . S
H315 C287 0.931 . S
H316 C305 0.930 . S
H317 C306 0.930 . S
H318 C307 0.930 1_455 S
H319 C308 0.931 . S
Eu320 C329 2.828 . S
Eu320 O331 2.392 . S
Eu320 O333 2.418 . S
Eu320 O338 2.373 . S
Eu320 O341 2.488 . S
Eu320 O342 2.471 . S
Eu320 O343 2.349 . S
Eu321 O330 2.373 . S
Eu321 O334 2.488 . S
Eu321 O335 2.471 . S
Eu321 O336 2.349 . S
Eu321 O339 2.392 . S
Eu321 O340 2.418 . S
Eu321 C350 2.828 . S
C322 O340 1.244 . S
C322 O343 1.265 . S
C323 C324 1.379 . S
C323 C327 1.373 . S
C323 C329 1.505 . S
C324 C323 1.379 . S
C324 C326 1.369 . S
C324 H352 0.930 . S
C325 C327 1.383 . S
C325 C328 1.382 . S
C325 H353 0.930 . S
C326 C324 1.369 . S
C326 C328 1.392 . S
C326 H354 0.930 . S
C327 C323 1.373 . S
C327 C325 1.383 . S
C327 H355 0.931 . S
C328 C325 1.382 . S
C328 C326 1.392 . S
C329 Eu320 2.828 . S
C329 C323 1.505 . S
C329 O341 1.249 . S
C329 O342 1.244 . S
O330 Eu321 2.373 . S
O330 C332 1.258 . S
O331 Eu320 2.392 . S
O331 C332 1.242 . S
C332 O330 1.258 . S
C332 O331 1.242 . S
O333 Eu320 2.418 . S
O333 C337 1.244 . S
O334 Eu321 2.488 . S
O334 C350 1.249 . S
O335 Eu321 2.471 . S
O335 C350 1.244 . S
O336 Eu321 2.349 . S
O336 C337 1.265 . S
C337 O333 1.244 . S
C337 O336 1.265 . S
O338 Eu320 2.373 . S
O338 C351 1.258 . S
O339 Eu321 2.392 . S
O339 C351 1.242 . S
O340 Eu321 2.418 . S
O340 C322 1.244 . S
O341 Eu320 2.488 . S
O341 C329 1.249 . S
O342 Eu320 2.471 . S
O342 C329 1.244 . S
O343 Eu320 2.349 . S
O343 C322 1.265 . S
C344 C345 1.379 . S
C344 C348 1.373 . S
C344 C350 1.505 . S
C345 C344 1.379 . S
C345 C347 1.369 . S
C345 H356 0.930 . S
C346 C348 1.383 . S
C346 C349 1.382 . S
C346 H357 0.930 . S
C347 C345 1.369 . S
C347 C349 1.392 . S
C347 H358 0.930 . S
C348 C344 1.373 . S
C348 C346 1.383 . S
C348 H359 0.931 . S
C349 C346 1.382 . S
C349 C347 1.392 . S
C350 Eu321 2.828 . S
C350 O334 1.249 . S
C350 O335 1.244 . S
C350 C344 1.505 . S
C351 O338 1.258 . S
C351 O339 1.242 . S
H352 C324 0.930 . S
H353 C325 0.930 . S
H354 C326 0.930 . S
H355 C327 0.931 . S
H356 C345 0.930 . S
H357 C346 0.930 . S
H358 C347 0.930 . S
H359 C348 0.931 . S
Eu360 C369 2.828 . S
Eu360 O371 2.392 . S
Eu360 O373 2.418 . S
Eu360 O378 2.373 . S
Eu360 O381 2.488 . S
Eu360 O382 2.471 1_545 S
Eu360 O383 2.349 . S
Eu361 O370 2.373 . S
Eu361 O374 2.488 . S
Eu361 O375 2.471 . S
Eu361 O376 2.349 . S
Eu361 O379 2.392 . S
Eu361 O380 2.418 . S
Eu361 C390 2.828 . S
C362 O380 1.244 . S
C362 O383 1.265 . S
C363 C364 1.379 1_655 S
C363 C367 1.373 . S
C363 C369 1.505 1_665 S
C364 C363 1.379 1_455 S
C364 C366 1.369 1_455 S
C364 H392 0.930 . S
C365 C367 1.383 . S
C365 C368 1.382 . S
C365 H393 0.930 . S
C366 C364 1.369 1_655 S
C366 C368 1.392 . S
C366 H394 0.930 1_655 S
C367 C363 1.373 . S
C367 C365 1.383 . S
C367 H395 0.931 1_565 S
C368 C365 1.382 . S
C368 C366 1.392 . S
C369 Eu360 2.828 . S
C369 C363 1.505 1_445 S
C369 O381 1.249 . S
C369 O382 1.244 1_545 S
O370 Eu361 2.373 . S
O370 C372 1.258 . S
O371 Eu360 2.392 . S
O371 C372 1.242 . S
C372 O370 1.258 . S
C372 O371 1.242 . S
O373 Eu360 2.418 . S
O373 C377 1.244 . S
O374 Eu361 2.488 . S
O374 C390 1.249 . S
O375 Eu361 2.471 . S
O375 C390 1.244 . S
O376 Eu361 2.349 . S
O376 C377 1.265 . S
C377 O373 1.244 . S
C377 O376 1.265 . S
O378 Eu360 2.373 . S
O378 C391 1.258 . S
O379 Eu361 2.392 . S
O379 C391 1.242 . S
O380 Eu361 2.418 . S
O380 C362 1.244 . S
O381 Eu360 2.488 . S
O381 C369 1.249 . S
O382 Eu360 2.471 1_565 S
O382 C369 1.244 1_565 S
O383 Eu360 2.349 . S
O383 C362 1.265 . S
C384 C385 1.379 . S
C384 C388 1.373 . S
C384 C390 1.505 . S
C385 C384 1.379 . S
C385 C387 1.369 . S
C385 H396 0.930 . S
C386 C388 1.383 . S
C386 C389 1.382 . S
C386 H397 0.930 . S
C387 C385 1.369 . S
C387 C389 1.392 . S
C387 H398 0.930 . S
C388 C384 1.373 . S
C388 C386 1.383 . S
C388 H399 0.931 . S
C389 C386 1.382 . S
C389 C387 1.392 . S
C390 Eu361 2.828 . S
C390 O374 1.249 . S
C390 O375 1.244 . S
C390 C384 1.505 . S
C391 O378 1.258 . S
C391 O379 1.242 . S
H392 C364 0.930 . S
H393 C365 0.930 . S
H394 C366 0.930 1_455 S
H395 C367 0.931 1_545 S
H396 C385 0.930 . S
H397 C386 0.930 . S
H398 C387 0.930 . S
H399 C388 0.931 . S
Eu400 C409 2.828 . S
Eu400 O411 2.392 . S
Eu400 O413 2.418 . S
Eu400 O418 2.373 . S
Eu400 O421 2.488 . S
Eu400 O422 2.471 . S
Eu400 O423 2.349 . S
Eu401 O410 2.373 . S
Eu401 O414 2.488 . S
Eu401 O415 2.471 . S
Eu401 O416 2.349 . S
Eu401 O419 2.392 . S
Eu401 O420 2.418 . S
Eu401 C430 2.828 . S
C402 O420 1.244 . S
C402 O423 1.265 . S
C403 C404 1.379 . S
C403 C407 1.373 . S
C403 C409 1.505 . S
C404 C403 1.379 . S
C404 C406 1.369 . S
C404 H432 0.930 . S
C405 C407 1.383 . S
C405 C408 1.382 . S
C405 H433 0.930 . S
C406 C404 1.369 . S
C406 C408 1.392 . S
C406 H434 0.930 . S
C407 C403 1.373 . S
C407 C405 1.383 . S
C407 H435 0.931 . S
C408 C405 1.382 . S
C408 C406 1.392 . S
C409 Eu400 2.828 . S
C409 C403 1.505 . S
C409 O421 1.249 . S
C409 O422 1.244 . S
O410 Eu401 2.373 . S
O410 C412 1.258 . S
O411 Eu400 2.392 . S
O411 C412 1.242 . S
C412 O410 1.258 . S
C412 O411 1.242 . S
O413 Eu400 2.418 . S
O413 C417 1.244 . S
O414 Eu401 2.488 . S
O414 C430 1.249 . S
O415 Eu401 2.471 . S
O415 C430 1.244 . S
O416 Eu401 2.349 . S
O416 C417 1.265 . S
C417 O413 1.244 . S
C417 O416 1.265 . S
O418 Eu400 2.373 . S
O418 C431 1.258 . S
O419 Eu401 2.392 . S
O419 C431 1.242 . S
O420 Eu401 2.418 . S
O420 C402 1.244 . S
O421 Eu400 2.488 . S
O421 C409 1.249 . S
O422 Eu400 2.471 . S
O422 C409 1.244 . S
O423 Eu400 2.349 . S
O423 C402 1.265 . S
C424 C425 1.379 . S
C424 C428 1.373 . S
C424 C430 1.505 . S
C425 C424 1.379 . S
C425 C427 1.369 . S
C425 H436 0.930 . S
C426 C428 1.383 . S
C426 C429 1.382 . S
C426 H437 0.930 . S
C427 C425 1.369 . S
C427 C429 1.392 . S
C427 H438 0.930 . S
C428 C424 1.373 . S
C428 C426 1.383 . S
C428 H439 0.931 . S
C429 C426 1.382 . S
C429 C427 1.392 . S
C430 Eu401 2.828 . S
C430 O414 1.249 . S
C430 O415 1.244 . S
C430 C424 1.505 . S
C431 O418 1.258 . S
C431 O419 1.242 . S
H432 C404 0.930 . S
H433 C405 0.930 . S
H434 C406 0.930 . S
H435 C407 0.931 . S
H436 C425 0.930 . S
H437 C426 0.930 . S
H438 C427 0.930 . S
H439 C428 0.931 . S
Eu440 C449 2.828 . S
Eu440 O451 2.392 . S
Eu440 O453 2.418 . S
Eu440 O458 2.373 . S
Eu440 O461 2.488 . S
Eu440 O462 2.471 1_565 S
Eu440 O463 2.349 . S
Eu441 O450 2.373 . S
Eu441 O454 2.488 . S
Eu441 O455 2.471 . S
Eu441 O456 2.349 . S
Eu441 O459 2.392 . S
Eu441 O460 2.418 . S
Eu441 C470 2.828 . S
C442 O460 1.244 . S
C442 O463 1.265 . S
C443 C444 1.379 . S
C443 C447 1.373 . S
C443 C449 1.505 1_545 S
C444 C443 1.379 . S
C444 C446 1.369 . S
C444 H472 0.930 . S
C445 C447 1.383 . S
C445 C448 1.382 . S
C445 H473 0.930 . S
C446 C444 1.369 . S
C446 C448 1.392 . S
C446 H474 0.930 . S
C447 C443 1.373 . S
C447 C445 1.383 . S
C447 H475 0.931 1_545 S
C448 C445 1.382 . S
C448 C446 1.392 . S
C449 Eu440 2.828 . S
C449 C443 1.505 1_565 S
C449 O461 1.249 . S
C449 O462 1.244 1_565 S
O450 Eu441 2.373 . S
O450 C452 1.258 . S
O451 Eu440 2.392 . S
O451 C452 1.242 . S
C452 O450 1.258 . S
C452 O451 1.242 . S
O453 Eu440 2.418 . S
O453 C457 1.244 . S
O454 Eu441 2.488 . S
O454 C470 1.249 . S
O455 Eu441 2.471 . S
O455 C470 1.244 . S
O456 Eu441 2.349 . S
O456 C457 1.265 . S
C457 O453 1.244 . S
C457 O456 1.265 . S
O458 Eu440 2.373 . S
O458 C471 1.258 . S
O459 Eu441 2.392 . S
O459 C471 1.242 . S
O460 Eu441 2.418 . S
O460 C442 1.244 . S
O461 Eu440 2.488 . S
O461 C449 1.249 . S
O462 Eu440 2.471 1_545 S
O462 C449 1.244 1_545 S
O463 Eu440 2.349 . S
O463 C442 1.265 . S
C464 C465 1.379 . S
C464 C468 1.373 . S
C464 C470 1.505 . S
C465 C464 1.379 . S
C465 C467 1.369 . S
C465 H476 0.930 . S
C466 C468 1.383 . S
C466 C469 1.382 . S
C466 H477 0.930 . S
C467 C465 1.369 . S
C467 C469 1.392 . S
C467 H478 0.930 . S
C468 C464 1.373 . S
C468 C466 1.383 . S
C468 H479 0.931 . S
C469 C466 1.382 . S
C469 C467 1.392 . S
C470 Eu441 2.828 . S
C470 O454 1.249 . S
C470 O455 1.244 . S
C470 C464 1.505 . S
C471 O458 1.258 . S
C471 O459 1.242 . S
H472 C444 0.930 . S
H473 C445 0.930 . S
H474 C446 0.930 . S
H475 C447 0.931 1_565 S
H476 C465 0.930 . S
H477 C466 0.930 . S
H478 C467 0.930 . S
H479 C468 0.931 . S
Eu480 C489 2.828 . S
Eu480 O491 2.392 . S
Eu480 O493 2.418 . S
Eu480 O498 2.373 . S
Eu480 O501 2.488 . S
Eu480 O502 2.471 . S
Eu480 O503 2.349 . S
Eu481 O490 2.373 . S
Eu481 O494 2.488 . S
Eu481 O495 2.471 . S
Eu481 O496 2.349 . S
Eu481 O499 2.392 . S
Eu481 O500 2.418 . S
Eu481 C510 2.828 . S
C482 O500 1.244 . S
C482 O503 1.265 . S
C483 C484 1.379 . S
C483 C487 1.373 . S
C483 C489 1.505 . S
C484 C483 1.379 . S
C484 C486 1.369 . S
C484 H512 0.930 . S
C485 C487 1.383 . S
C485 C488 1.382 . S
C485 H513 0.930 . S
C486 C484 1.369 . S
C486 C488 1.392 . S
C486 H514 0.930 . S
C487 C483 1.373 . S
C487 C485 1.383 . S
C487 H515 0.931 . S
C488 C485 1.382 . S
C488 C486 1.392 . S
C489 Eu480 2.828 . S
C489 C483 1.505 . S
C489 O501 1.249 . S
C489 O502 1.244 . S
O490 Eu481 2.373 . S
O490 C492 1.258 . S
O491 Eu480 2.392 . S
O491 C492 1.242 . S
C492 O490 1.258 . S
C492 O491 1.242 . S
O493 Eu480 2.418 . S
O493 C497 1.244 . S
O494 Eu481 2.488 . S
O494 C510 1.249 . S
O495 Eu481 2.471 . S
O495 C510 1.244 . S
O496 Eu481 2.349 . S
O496 C497 1.265 . S
C497 O493 1.244 . S
C497 O496 1.265 . S
O498 Eu480 2.373 . S
O498 C511 1.258 . S
O499 Eu481 2.392 . S
O499 C511 1.242 . S
O500 Eu481 2.418 . S
O500 C482 1.244 . S
O501 Eu480 2.488 . S
O501 C489 1.249 . S
O502 Eu480 2.471 . S
O502 C489 1.244 . S
O503 Eu480 2.349 . S
O503 C482 1.265 . S
C504 C505 1.379 . S
C504 C508 1.373 . S
C504 C510 1.505 . S
C505 C504 1.379 . S
C505 C507 1.369 . S
C505 H516 0.930 . S
C506 C508 1.383 . S
C506 C509 1.382 . S
C506 H517 0.930 . S
C507 C505 1.369 . S
C507 C509 1.392 . S
C507 H518 0.930 . S
C508 C504 1.373 . S
C508 C506 1.383 . S
C508 H519 0.931 . S
C509 C506 1.382 . S
C509 C507 1.392 . S
C510 Eu481 2.828 . S
C510 O494 1.249 . S
C510 O495 1.244 . S
C510 C504 1.505 . S
C511 O498 1.258 . S
C511 O499 1.242 . S
H512 C484 0.930 . S
H513 C485 0.930 . S
H514 C486 0.930 . S
H515 C487 0.931 . S
H516 C505 0.930 . S
H517 C506 0.930 . S
H518 C507 0.930 . S
H519 C508 0.931 . S
Eu520 C529 2.828 . S
Eu520 O531 2.392 . S
Eu520 O533 2.418 . S
Eu520 O538 2.373 . S
Eu520 O541 2.488 . S
Eu520 O542 2.471 . S
Eu520 O543 2.349 . S
Eu521 O530 2.373 . S
Eu521 O534 2.488 . S
Eu521 O535 2.471 1_565 S
Eu521 O536 2.349 . S
Eu521 O539 2.392 . S
Eu521 O540 2.418 . S
Eu521 C550 2.828 . S
C522 O540 1.244 . S
C522 O543 1.265 . S
C523 C524 1.379 . S
C523 C527 1.373 . S
C523 C529 1.505 . S
C524 C523 1.379 . S
C524 C526 1.369 . S
C524 H552 0.930 . S
C525 C527 1.383 . S
C525 C528 1.382 . S
C525 H553 0.930 . S
C526 C524 1.369 . S
C526 C528 1.392 . S
C526 H554 0.930 . S
C527 C523 1.373 . S
C527 C525 1.383 . S
C527 H555 0.931 . S
C528 C525 1.382 . S
C528 C526 1.392 . S
C529 Eu520 2.828 . S
C529 C523 1.505 . S
C529 O541 1.249 . S
C529 O542 1.244 . S
O530 Eu521 2.373 . S
O530 C532 1.258 . S
O531 Eu520 2.392 . S
O531 C532 1.242 . S
C532 O530 1.258 . S
C532 O531 1.242 . S
O533 Eu520 2.418 . S
O533 C537 1.244 . S
O534 Eu521 2.488 . S
O534 C550 1.249 . S
O535 Eu521 2.471 1_545 S
O535 C550 1.244 1_545 S
O536 Eu521 2.349 . S
O536 C537 1.265 . S
C537 O533 1.244 . S
C537 O536 1.265 . S
O538 Eu520 2.373 . S
O538 C551 1.258 . S
O539 Eu521 2.392 . S
O539 C551 1.242 . S
O540 Eu521 2.418 . S
O540 C522 1.244 . S
O541 Eu520 2.488 . S
O541 C529 1.249 . S
O542 Eu520 2.471 . S
O542 C529 1.244 . S
O543 Eu520 2.349 . S
O543 C522 1.265 . S
C544 C545 1.379 1_455 S
C544 C548 1.373 . S
C544 C550 1.505 1_445 S
C545 C544 1.379 1_655 S
C545 C547 1.369 1_655 S
C545 H556 0.930 . S
C546 C548 1.383 . S
C546 C549 1.382 . S
C546 H557 0.930 . S
C547 C545 1.369 1_455 S
C547 C549 1.392 . S
C547 H558 0.930 1_455 S
C548 C544 1.373 . S
C548 C546 1.383 . S
C548 H559 0.931 1_545 S
C549 C546 1.382 . S
C549 C547 1.392 . S
C550 Eu521 2.828 . S
C550 O534 1.249 . S
C550 O535 1.244 1_565 S
C550 C544 1.505 1_665 S
C551 O538 1.258 . S
C551 O539 1.242 . S
H552 C524 0.930 . S
H553 C525 0.930 . S
H554 C526 0.930 . S
H555 C527 0.931 . S
H556 C545 0.930 . S
H557 C546 0.930 . S
H558 C547 0.930 1_655 S
H559 C548 0.931 1_565 S
Eu560 C569 2.828 . S
Eu560 O571 2.392 . S
Eu560 O573 2.418 . S
Eu560 O578 2.373 . S
Eu560 O581 2.488 . S
Eu560 O582 2.471 . S
Eu560 O583 2.349 . S
Eu561 O570 2.373 . S
Eu561 O574 2.488 . S
Eu561 O575 2.471 . S
Eu561 O576 2.349 . S
Eu561 O579 2.392 . S
Eu561 O580 2.418 . S
Eu561 C590 2.828 . S
C562 O580 1.244 . S
C562 O583 1.265 . S
C563 C564 1.379 . S
C563 C567 1.373 . S
C563 C569 1.505 . S
C564 C563 1.379 . S
C564 C566 1.369 . S
C564 H592 0.930 . S
C565 C567 1.383 . S
C565 C568 1.382 . S
C565 H593 0.930 . S
C566 C564 1.369 . S
C566 C568 1.392 . S
C566 H594 0.930 . S
C567 C563 1.373 . S
C567 C565 1.383 . S
C567 H595 0.931 . S
C568 C565 1.382 . S
C568 C566 1.392 . S
C569 Eu560 2.828 . S
C569 C563 1.505 . S
C569 O581 1.249 . S
C569 O582 1.244 . S
O570 Eu561 2.373 . S
O570 C572 1.258 . S
O571 Eu560 2.392 . S
O571 C572 1.242 . S
C572 O570 1.258 . S
C572 O571 1.242 . S
O573 Eu560 2.418 . S
O573 C577 1.244 . S
O574 Eu561 2.488 . S
O574 C590 1.249 . S
O575 Eu561 2.471 . S
O575 C590 1.244 . S
O576 Eu561 2.349 . S
O576 C577 1.265 . S
C577 O573 1.244 . S
C577 O576 1.265 . S
O578 Eu560 2.373 . S
O578 C591 1.258 . S
O579 Eu561 2.392 . S
O579 C591 1.242 . S
O580 Eu561 2.418 . S
O580 C562 1.244 . S
O581 Eu560 2.488 . S
O581 C569 1.249 . S
O582 Eu560 2.471 . S
O582 C569 1.244 . S
O583 Eu560 2.349 . S
O583 C562 1.265 . S
C584 C585 1.379 . S
C584 C588 1.373 . S
C584 C590 1.505 . S
C585 C584 1.379 . S
C585 C587 1.369 . S
C585 H596 0.930 . S
C586 C588 1.383 . S
C586 C589 1.382 . S
C586 H597 0.930 . S
C587 C585 1.369 . S
C587 C589 1.392 . S
C587 H598 0.930 . S
C588 C584 1.373 . S
C588 C586 1.383 . S
C588 H599 0.931 . S
C589 C586 1.382 . S
C589 C587 1.392 . S
C590 Eu561 2.828 . S
C590 O574 1.249 . S
C590 O575 1.244 . S
C590 C584 1.505 . S
C591 O578 1.258 . S
C591 O579 1.242 . S
H592 C564 0.930 . S
H593 C565 0.930 . S
H594 C566 0.930 . S
H595 C567 0.931 . S
H596 C585 0.930 . S
H597 C586 0.930 . S
H598 C587 0.930 . S
H599 C588 0.931 . S
Eu600 C609 2.828 . S
Eu600 O611 2.392 . S
Eu600 O613 2.418 . S
Eu600 O618 2.373 . S
Eu600 O621 2.488 . S
Eu600 O622 2.471 . S
Eu600 O623 2.349 . S
Eu601 O610 2.373 . S
Eu601 O614 2.488 . S
Eu601 O615 2.471 1_545 S
Eu601 O616 2.349 . S
Eu601 O619 2.392 . S
Eu601 O620 2.418 . S
Eu601 C630 2.828 . S
C602 O620 1.244 . S
C602 O623 1.265 . S
C603 C604 1.379 . S
C603 C607 1.373 . S
C603 C609 1.505 . S
C604 C603 1.379 . S
C604 C606 1.369 . S
C604 H632 0.930 . S
C605 C607 1.383 . S
C605 C608 1.382 . S
C605 H633 0.930 . S
C606 C604 1.369 . S
C606 C608 1.392 . S
C606 H634 0.930 . S
C607 C603 1.373 . S
C607 C605 1.383 . S
C607 H635 0.931 . S
C608 C605 1.382 . S
C608 C606 1.392 . S
C609 Eu600 2.828 . S
C609 C603 1.505 . S
C609 O621 1.249 . S
C609 O622 1.244 . S
O610 Eu601 2.373 . S
O610 C612 1.258 . S
O611 Eu600 2.392 . S
O611 C612 1.242 . S
C612 O610 1.258 . S
C612 O611 1.242 . S
O613 Eu600 2.418 . S
O613 C617 1.244 . S
O614 Eu601 2.488 . S
O614 C630 1.249 . S
O615 Eu601 2.471 1_565 S
O615 C630 1.244 1_565 S
O616 Eu601 2.349 . S
O616 C617 1.265 . S
C617 O613 1.244 . S
C617 O616 1.265 . S
O618 Eu600 2.373 . S
O618 C631 1.258 . S
O619 Eu601 2.392 . S
O619 C631 1.242 . S
O620 Eu601 2.418 . S
O620 C602 1.244 . S
O621 Eu600 2.488 . S
O621 C609 1.249 . S
O622 Eu600 2.471 . S
O622 C609 1.244 . S
O623 Eu600 2.349 . S
O623 C602 1.265 . S
C624 C625 1.379 . S
C624 C628 1.373 . S
C624 C630 1.505 1_565 S
C625 C624 1.379 . S
C625 C627 1.369 . S
C625 H636 0.930 . S
C626 C628 1.383 . S
C626 C629 1.382 . S
C626 H637 0.930 . S
C627 C625 1.369 . S
C627 C629 1.392 . S
C627 H638 0.930 . S
C628 C624 1.373 . S
C628 C626 1.383 . S
C628 H639 0.931 1_565 S
C629 C626 1.382 . S
C629 C627 1.392 . S
C630 Eu601 2.828 . S
C630 O614 1.249 . S
C630 O615 1.244 1_545 S
C630 C624 1.505 1_545 S
C631 O618 1.258 . S
C631 O619 1.242 . S
H632 C604 0.930 . S
H633 C605 0.930 . S
H634 C606 0.930 . S
H635 C607 0.931 . S
H636 C625 0.930 . S
H637 C626 0.930 . S
H638 C627 0.930 . S
H639 C628 0.931 1_545 S
H640 C646 0.930 . S
H641 C650 0.930 . S
H642 C655 0.929 . S
H643 C653 0.929 . S
H644 C648 0.929 . S
H645 C654 0.929 . S
C646 H640 0.930 . S
C646 C647 1.367 . S
C646 C654 1.378 . S
C647 C646 1.367 . S
C647 C655 1.433 . S
C648 H644 0.929 . S
C648 C650 1.378 . S
C648 C652 1.350 . S
C649 C652 1.463 . S
C649 C654 1.350 . S
C649 N657 1.427 . S
C650 H641 0.930 . S
C650 C648 1.378 . S
C650 C651 1.367 . S
C651 C650 1.367 . S
C651 C653 1.433 . S
C652 C648 1.350 . S
C652 C649 1.463 . S
C652 N656 1.427 . S
C653 H643 0.929 . S
C653 C651 1.433 . S
C653 N656 1.384 . S
C654 H645 0.929 . S
C654 C646 1.378 . S
C654 C649 1.350 . S
C655 H642 0.929 . S
C655 C647 1.433 . S
C655 N657 1.384 . S
N656 C652 1.427 . S
N656 C653 1.384 . S
N657 C649 1.427 . S
N657 C655 1.384 . S
H658 C664 0.930 . S
H659 C668 0.930 . S
H660 C673 0.929 . S
H661 C671 0.929 . S
H662 C666 0.929 . S
H663 C672 0.929 . S
C664 H658 0.930 . S
C664 C665 1.367 . S
C664 C672 1.378 . S
C665 C664 1.367 . S
C665 C673 1.433 . S
C666 H662 0.929 . S
C666 C668 1.378 . S
C666 C670 1.350 . S
C667 C670 1.463 . S
C667 C672 1.350 . S
C667 N675 1.427 . S
C668 H659 0.930 . S
C668 C666 1.378 . S
C668 C669 1.367 . S
C669 C668 1.367 . S
C669 C671 1.433 . S
C670 C666 1.350 . S
C670 C667 1.463 . S
C670 N674 1.427 . S
C671 H661 0.929 . S
C671 C669 1.433 . S
C671 N674 1.384 . S
C672 H663 0.929 . S
C672 C664 1.378 . S
C672 C667 1.350 . S
C673 H660 0.929 . S
C673 C665 1.433 . S
C673 N675 1.384 . S
N674 C670 1.427 . S
N674 C671 1.384 . S
N675 C667 1.427 . S
N675 C673 1.384 . S
H676 C682 0.930 . S
H677 C686 0.930 . S
H678 C691 0.929 . S
H679 C689 0.929 . S
H680 C684 0.929 . S
H681 C690 0.929 . S
C682 H676 0.930 . S
C682 C683 1.367 . S
C682 C690 1.378 . S
C683 C682 1.367 . S
C683 C691 1.433 . S
C684 H680 0.929 . S
C684 C686 1.378 . S
C684 C688 1.350 . S
C685 C688 1.463 1_455 S
C685 C690 1.350 . S
C685 N693 1.427 . S
C686 H677 0.930 . S
C686 C684 1.378 . S
C686 C687 1.367 . S
C687 C686 1.367 . S
C687 C689 1.433 . S
C688 C684 1.350 . S
C688 C685 1.463 1_655 S
C688 N692 1.427 . S
C689 H679 0.929 . S
C689 C687 1.433 . S
C689 N692 1.384 . S
C690 H681 0.929 . S
C690 C682 1.378 . S
C690 C685 1.350 . S
C691 H678 0.929 . S
C691 C683 1.433 . S
C691 N693 1.384 . S
N692 C688 1.427 . S
N692 C689 1.384 . S
N693 C685 1.427 . S
N693 C691 1.384 . S
H694 C700 0.930 . S
H695 C704 0.930 . S
H696 C709 0.929 . S
H697 C707 0.929 . S
H698 C702 0.929 . S
H699 C708 0.929 . S
C700 H694 0.930 . S
C700 C701 1.367 . S
C700 C708 1.378 . S
C701 C700 1.367 . S
C701 C709 1.433 . S
C702 H698 0.929 . S
C702 C704 1.378 . S
C702 C706 1.350 . S
C703 C706 1.463 1_455 S
C703 C708 1.350 . S
C703 N711 1.423 1_455 S
C704 H695 0.930 . S
C704 C702 1.378 . S
C704 C705 1.367 . S
C705 C704 1.367 . S
C705 C707 1.433 . S
C706 C702 1.350 . S
C706 C703 1.463 1_655 S
C706 N710 1.423 1_655 S
C707 H697 0.929 . S
C707 C705 1.433 . S
C707 N710 1.376 1_655 S
C708 H699 0.929 . S
C708 C700 1.378 . S
C708 C703 1.350 . S
C709 H696 0.929 . S
C709 C701 1.433 . S
C709 N711 1.376 1_455 S
N710 C706 1.423 1_455 S
N710 C707 1.376 1_455 S
N711 C703 1.423 1_655 S
N711 C709 1.376 1_655 S
H712 C718 0.930 . S
H713 C722 0.930 . S
H714 C727 0.929 . S
H715 C725 0.929 . S
H716 C720 0.929 . S
H717 C726 0.929 . S
C718 H712 0.930 . S
C718 C719 1.367 . S
C718 C726 1.378 . S
C719 C718 1.367 . S
C719 C727 1.433 . S
C720 H716 0.929 . S
C720 C722 1.378 . S
C720 C724 1.350 . S
C721 C724 1.463 . S
C721 C726 1.350 . S
C721 N729 1.427 . S
C722 H713 0.930 . S
C722 C720 1.378 . S
C722 C723 1.367 . S
C723 C722 1.367 . S
C723 C725 1.433 . S
C724 C720 1.350 . S
C724 C721 1.463 . S
C724 N728 1.427 . S
C725 H715 0.929 . S
C725 C723 1.433 . S
C725 N728 1.384 . S
C726 H717 0.929 . S
C726 C718 1.378 . S
C726 C721 1.350 . S
C727 H714 0.929 . S
C727 C719 1.433 . S
C727 N729 1.384 . S
N728 C724 1.427 . S
N728 C725 1.384 . S
N729 C721 1.427 . S
N729 C727 1.384 . S
H730 C736 0.930 . S
H731 C740 0.930 . S
H732 C745 0.929 . S
H733 C743 0.929 . S
H734 C738 0.929 . S
H735 C744 0.929 . S
C736 H730 0.930 . S
C736 C737 1.367 . S
C736 C744 1.378 . S
C737 C736 1.367 . S
C737 C745 1.433 . S
C738 H734 0.929 . S
C738 C740 1.378 . S
C738 C742 1.350 . S
C739 C742 1.463 . S
C739 C744 1.350 . S
C739 N747 1.427 . S
C740 H731 0.930 . S
C740 C738 1.378 . S
C740 C741 1.367 . S
C741 C740 1.367 . S
C741 C743 1.433 . S
C742 C738 1.350 . S
C742 C739 1.463 . S
C742 N746 1.427 . S
C743 H733 0.929 . S
C743 C741 1.433 . S
C743 N746 1.384 . S
C744 H735 0.929 . S
C744 C736 1.378 . S
C744 C739 1.350 . S
C745 H732 0.929 . S
C745 C737 1.433 . S
C745 N747 1.384 . S
N746 C742 1.427 . S
N746 C743 1.384 . S
N747 C739 1.427 . S
N747 C745 1.384 . S
H748 C754 0.930 . S
H749 C758 0.930 . S
H750 C763 0.929 . S
H751 C761 0.929 . S
H752 C756 0.929 . S
H753 C762 0.929 . S
C754 H748 0.930 . S
C754 C755 1.367 . S
C754 C762 1.378 . S
C755 C754 1.367 . S
C755 C763 1.433 . S
C756 H752 0.929 . S
C756 C758 1.378 . S
C756 C760 1.350 . S
C757 C760 1.463 1_455 S
C757 C762 1.350 . S
C757 N765 1.427 . S
C758 H749 0.930 . S
C758 C756 1.378 . S
C758 C759 1.367 . S
C759 C758 1.367 . S
C759 C761 1.433 . S
C760 C756 1.350 . S
C760 C757 1.463 1_655 S
C760 N764 1.427 . S
C761 H751 0.929 . S
C761 C759 1.433 . S
C761 N764 1.384 . S
C762 H753 0.929 . S
C762 C754 1.378 . S
C762 C757 1.350 . S
C763 H750 0.929 . S
C763 C755 1.433 . S
C763 N765 1.384 . S
N764 C760 1.427 . S
N764 C761 1.384 . S
N765 C757 1.427 . S
N765 C763 1.384 . S
H766 C772 0.930 . S
H767 C776 0.930 . S
H768 C781 0.929 . S
H769 C779 0.929 . S
H770 C774 0.929 . S
H771 C780 0.929 . S
C772 H766 0.930 . S
C772 C773 1.367 . S
C772 C780 1.378 . S
C773 C772 1.367 . S
C773 C781 1.433 . S
C774 H770 0.929 . S
C774 C776 1.378 . S
C774 C778 1.350 . S
C775 C778 1.463 1_455 S
C775 C780 1.350 . S
C775 N783 1.427 . S
C776 H767 0.930 . S
C776 C774 1.378 . S
C776 C777 1.367 . S
C777 C776 1.367 . S
C777 C779 1.433 . S
C778 C774 1.350 . S
C778 C775 1.463 1_655 S
C778 N782 1.427 . S
C779 H769 0.929 . S
C779 C777 1.433 . S
C779 N782 1.384 . S
C780 H771 0.929 . S
C780 C772 1.378 . S
C780 C775 1.350 . S
C781 H768 0.929 . S
C781 C773 1.433 . S
C781 N783 1.384 . S
N782 C778 1.427 . S
N782 C779 1.384 . S
N783 C775 1.427 . S
N783 C781 1.384 . S
H784 C790 0.930 . S
H785 C794 0.930 . S
H786 C799 0.929 . S
H787 C797 0.929 . S
H788 C792 0.929 . S
H789 C798 0.929 . S
C790 H784 0.930 . S
C790 C791 1.367 1_545 S
C790 C798 1.378 . S
C791 C790 1.367 1_565 S
C791 C799 1.433 1_554 S
C792 H788 0.929 . S
C792 C794 1.378 . S
C792 C796 1.341 1_565 S
C793 C796 1.460 1_564 S
C793 C798 1.341 1_565 S
C793 N801 1.440 1_554 S
C794 H785 0.930 . S
C794 C792 1.378 . S
C794 C795 1.367 1_565 S
C795 C794 1.367 1_545 S
C795 C797 1.433 1_556 S
C796 C792 1.341 1_545 S
C796 C793 1.460 1_546 S
C796 N800 1.440 1_556 S
C797 H787 0.929 . S
C797 C795 1.433 1_554 S
C797 N800 1.384 . S
C798 H789 0.929 . S
C798 C790 1.378 . S
C798 C793 1.341 1_545 S
C799 H786 0.929 . S
C799 C791 1.433 1_556 S
C799 N801 1.384 . S
N800 C796 1.440 1_554 S
N800 C797 1.384 . S
N801 C793 1.440 1_556 S
N801 C799 1.384 . S
H802 C808 0.930 . S
H803 C812 0.930 . S
H804 C817 0.929 . S
H805 C815 0.929 . S
H806 C810 0.929 . S
H807 C816 0.929 . S
C808 H802 0.930 . S
C808 C809 1.367 . S
C808 C816 1.378 . S
C809 C808 1.367 . S
C809 C817 1.433 . S
C810 H806 0.929 . S
C810 C812 1.378 . S
C810 C814 1.350 . S
C811 C814 1.463 . S
C811 C816 1.350 . S
C811 N819 1.427 . S
C812 H803 0.930 . S
C812 C810 1.378 . S
C812 C813 1.367 . S
C813 C812 1.367 . S
C813 C815 1.433 . S
C814 C810 1.350 . S
C814 C811 1.463 . S
C814 N818 1.427 . S
C815 H805 0.929 . S
C815 C813 1.433 . S
C815 N818 1.384 . S
C816 H807 0.929 . S
C816 C808 1.378 . S
C816 C811 1.350 . S
C817 H804 0.929 . S
C817 C809 1.433 . S
C817 N819 1.384 . S
N818 C814 1.427 . S
N818 C815 1.384 . S
N819 C811 1.427 . S
N819 C817 1.384 . S
H820 C826 0.930 . S
H821 C830 0.930 . S
H822 C835 0.929 . S
H823 C833 0.929 . S
H824 C828 0.929 . S
H825 C834 0.929 . S
C826 H820 0.930 . S
C826 C827 1.367 . S
C826 C834 1.378 . S
C827 C826 1.367 . S
C827 C835 1.433 1_545 S
C828 H824 0.929 . S
C828 C830 1.378 . S
C828 C832 1.350 . S
C829 C832 1.463 1_445 S
C829 C834 1.350 . S
C829 N837 1.427 1_545 S
C830 H821 0.930 . S
C830 C828 1.378 . S
C830 C831 1.367 . S
C831 C830 1.367 . S
C831 C833 1.433 1_565 S
C832 C828 1.350 . S
C832 C829 1.463 1_665 S
C832 N836 1.427 1_565 S
C833 H823 0.929 . S
C833 C831 1.433 1_545 S
C833 N836 1.384 . S
C834 H825 0.929 . S
C834 C826 1.378 . S
C834 C829 1.350 . S
C835 H822 0.929 . S
C835 C827 1.433 1_565 S
C835 N837 1.384 . S
N836 C832 1.427 1_545 S
N836 C833 1.384 . S
N837 C829 1.427 1_565 S
N837 C835 1.384 . S
H838 C844 0.930 . S
H839 C848 0.930 . S
H840 C853 0.929 . S
H841 C851 0.929 . S
H842 C846 0.929 . S
H843 C852 0.929 . S
C844 H838 0.930 . S
C844 C845 1.367 . S
C844 C852 1.378 . S
C845 C844 1.367 . S
C845 C853 1.433 . S
C846 H842 0.929 . S
C846 C848 1.378 . S
C846 C850 1.350 . S
C847 C850 1.463 . S
C847 C852 1.350 . S
C847 N855 1.427 . S
C848 H839 0.930 . S
C848 C846 1.378 . S
C848 C849 1.367 . S
C849 C848 1.367 . S
C849 C851 1.433 . S
C850 C846 1.350 . S
C850 C847 1.463 . S
C850 N854 1.427 . S
C851 H841 0.929 . S
C851 C849 1.433 . S
C851 N854 1.384 . S
C852 H843 0.929 . S
C852 C844 1.378 . S
C852 C847 1.350 . S
C853 H840 0.929 . S
C853 C845 1.433 . S
C853 N855 1.384 . S
N854 C850 1.427 . S
N854 C851 1.384 . S
N855 C847 1.427 . S
N855 C853 1.384 . S
H856 C862 0.930 . S
H857 C866 0.930 . S
H858 C871 0.929 . S
H859 C869 0.929 . S
H860 C864 0.929 . S
H861 C870 0.929 . S
C862 H856 0.930 . S
C862 C863 1.367 . S
C862 C870 1.378 . S
C863 C862 1.367 . S
C863 C871 1.433 . S
C864 H860 0.929 . S
C864 C866 1.378 . S
C864 C868 1.350 . S
C865 C868 1.463 . S
C865 C870 1.350 . S
C865 N873 1.427 . S
C866 H857 0.930 . S
C866 C864 1.378 . S
C866 C867 1.367 . S
C867 C866 1.367 . S
C867 C869 1.433 . S
C868 C864 1.350 . S
C868 C865 1.463 . S
C868 N872 1.427 . S
C869 H859 0.929 . S
C869 C867 1.433 . S
C869 N872 1.384 . S
C870 H861 0.929 . S
C870 C862 1.378 . S
C870 C865 1.350 . S
C871 H858 0.929 . S
C871 C863 1.433 . S
C871 N873 1.384 . S
N872 C868 1.427 . S
N872 C869 1.384 . S
N873 C865 1.427 . S
N873 C871 1.384 . S
H874 C880 0.930 . S
H875 C884 0.930 . S
H876 C889 0.929 . S
H877 C887 0.929 . S
H878 C882 0.929 . S
H879 C888 0.929 . S
C880 H874 0.930 . S
C880 C881 1.367 . S
C880 C888 1.378 . S
C881 C880 1.367 . S
C881 C889 1.433 . S
C882 H878 0.929 . S
C882 C884 1.378 . S
C882 C886 1.350 . S
C883 C886 1.463 . S
C883 C888 1.350 . S
C883 N891 1.427 . S
C884 H875 0.930 . S
C884 C882 1.378 . S
C884 C885 1.367 . S
C885 C884 1.367 . S
C885 C887 1.433 . S
C886 C882 1.350 . S
C886 C883 1.463 . S
C886 N890 1.427 . S
C887 H877 0.929 . S
C887 C885 1.433 . S
C887 N890 1.384 . S
C888 H879 0.929 . S
C888 C880 1.378 . S
C888 C883 1.350 . S
C889 H876 0.929 . S
C889 C881 1.433 . S
C889 N891 1.384 . S
N890 C886 1.427 . S
N890 C887 1.384 . S
N891 C883 1.427 . S
N891 C889 1.384 . S
H892 C898 0.930 . S
H893 C902 0.930 . S
H894 C907 0.929 . S
H895 C905 0.929 . S
H896 C900 0.929 . S
H897 C906 0.929 . S
C898 H892 0.930 . S
C898 C899 1.367 . S
C898 C906 1.378 . S
C899 C898 1.367 . S
C899 C907 1.433 . S
C900 H896 0.929 . S
C900 C902 1.378 . S
C900 C904 1.350 . S
C901 C904 1.463 1_455 S
C901 C906 1.350 . S
C901 N909 1.427 . S
C902 H893 0.930 . S
C902 C900 1.378 . S
C902 C903 1.367 . S
C903 C902 1.367 . S
C903 C905 1.433 . S
C904 C900 1.350 . S
C904 C901 1.463 1_655 S
C904 N908 1.427 . S
C905 H895 0.929 . S
C905 C903 1.433 . S
C905 N908 1.384 . S
C906 H897 0.929 . S
C906 C898 1.378 . S
C906 C901 1.350 . S
C907 H894 0.929 . S
C907 C899 1.433 . S
C907 N909 1.384 . S
N908 C904 1.427 . S
N908 C905 1.384 . S
N909 C901 1.427 . S
N909 C907 1.384 . S
H910 C916 0.930 . S
H911 C920 0.930 . S
H912 C925 0.929 . S
H913 C923 0.929 . S
H914 C918 0.929 1_554 S
H915 C924 0.929 1_556 S
C916 H910 0.930 . S
C916 C917 1.367 . S
C916 C924 1.378 . S
C917 C916 1.367 . S
C917 C925 1.433 . S
C918 H914 0.929 1_556 S
C918 C920 1.378 . S
C918 C922 1.350 . S
C919 C922 1.463 1_554 S
C919 C924 1.350 . S
C919 N927 1.427 . S
C920 H911 0.930 . S
C920 C918 1.378 . S
C920 C921 1.367 . S
C921 C920 1.367 . S
C921 C923 1.433 . S
C922 C918 1.350 . S
C922 C919 1.463 1_556 S
C922 N926 1.427 . S
C923 H913 0.929 . S
C923 C921 1.433 . S
C923 N926 1.384 . S
C924 H915 0.929 1_554 S
C924 C916 1.378 . S
C924 C919 1.350 . S
C925 H912 0.929 . S
C925 C917 1.433 . S
C925 N927 1.384 . S
N926 C922 1.427 . S
N926 C923 1.384 . S
N927 C919 1.427 . S
N927 C925 1.384 . S
H928 C934 0.930 . S
H929 C938 0.930 . S
H930 C943 0.929 . S
H931 C941 0.929 . S
H932 C936 0.929 . S
H933 C942 0.929 . S
C934 H928 0.930 . S
C934 C935 1.367 . S
C934 C942 1.378 . S
C935 C934 1.367 . S
C935 C943 1.433 . S
C936 H932 0.929 . S
C936 C938 1.378 . S
C936 C940 1.350 . S
C937 C940 1.463 . S
C937 C942 1.350 . S
C937 N945 1.427 . S
C938 H929 0.930 . S
C938 C936 1.378 . S
C938 C939 1.367 . S
C939 C938 1.367 . S
C939 C941 1.433 . S
C940 C936 1.350 . S
C940 C937 1.463 . S
C940 N944 1.427 . S
C941 H931 0.929 . S
C941 C939 1.433 . S
C941 N944 1.384 . S
C942 H933 0.929 . S
C942 C934 1.378 . S
C942 C937 1.350 . S
C943 H930 0.929 . S
C943 C935 1.433 . S
C943 N945 1.384 . S
N944 C940 1.427 . S
N944 C941 1.384 . S
N945 C937 1.427 . S
N945 C943 1.384 . S
H946 C952 0.930 . S
H947 C956 0.930 . S
H948 C961 0.929 . S
H949 C959 0.929 . S
H950 C954 0.929 . S
H951 C960 0.929 . S
C952 H946 0.930 . S
C952 C953 1.367 . S
C952 C960 1.378 . S
C953 C952 1.367 . S
C953 C961 1.433 . S
C954 H950 0.929 . S
C954 C956 1.378 . S
C954 C958 1.350 . S
C955 C958 1.463 . S
C955 C960 1.350 . S
C955 N963 1.427 . S
C956 H947 0.930 . S
C956 C954 1.378 . S
C956 C957 1.367 . S
C957 C956 1.367 . S
C957 C959 1.433 . S
C958 C954 1.350 . S
C958 C955 1.463 . S
C958 N962 1.427 . S
C959 H949 0.929 . S
C959 C957 1.433 . S
C959 N962 1.384 . S
C960 H951 0.929 . S
C960 C952 1.378 . S
C960 C955 1.350 . S
C961 H948 0.929 . S
C961 C953 1.433 . S
C961 N963 1.384 . S
N962 C958 1.427 . S
N962 C959 1.384 . S
N963 C955 1.427 . S
N963 C961 1.384 . S
H964 C970 0.930 . S
H965 C974 0.930 . S
H966 C979 0.929 . S
H967 C977 0.929 . S
H968 C972 0.929 . S
H969 C978 0.929 . S
C970 H964 0.930 . S
C970 C971 1.367 . S
C970 C978 1.378 . S
C971 C970 1.367 . S
C971 C979 1.433 . S
C972 H968 0.929 . S
C972 C974 1.378 . S
C972 C976 1.350 . S
C973 C976 1.463 . S
C973 C978 1.350 . S
C973 N981 1.427 . S
C974 H965 0.930 . S
C974 C972 1.378 . S
C974 C975 1.367 . S
C975 C974 1.367 . S
C975 C977 1.433 . S
C976 C972 1.350 . S
C976 C973 1.463 . S
C976 N980 1.427 . S
C977 H967 0.929 . S
C977 C975 1.433 . S
C977 N980 1.384 . S
C978 H969 0.929 . S
C978 C970 1.378 . S
C978 C973 1.350 . S
C979 H966 0.929 . S
C979 C971 1.433 . S
C979 N981 1.384 . S
N980 C976 1.427 . S
N980 C977 1.384 . S
N981 C973 1.427 . S
N981 C979 1.384 . S
H982 C988 0.930 . S
H983 C992 0.930 . S
H984 C997 0.929 . S
H985 C995 0.929 . S
H986 C990 0.929 . S
H987 C996 0.929 . S
C988 H982 0.930 . S
C988 C989 1.367 . S
C988 C996 1.378 . S
C989 C988 1.367 . S
C989 C997 1.433 . S
C990 H986 0.929 . S
C990 C992 1.378 . S
C990 C994 1.350 . S
C991 C994 1.463 . S
C991 C996 1.350 . S
C991 N999 1.427 . S
C992 H983 0.930 . S
C992 C990 1.378 . S
C992 C993 1.367 . S
C993 C992 1.367 . S
C993 C995 1.433 . S
C994 C990 1.350 . S
C994 C991 1.463 . S
C994 N998 1.427 . S
C995 H985 0.929 . S
C995 C993 1.433 . S
C995 N998 1.384 . S
C996 H987 0.929 . S
C996 C988 1.378 . S
C996 C991 1.350 . S
C997 H984 0.929 . S
C997 C989 1.433 . S
C997 N999 1.384 . S
N998 C994 1.427 . S
N998 C995 1.384 . S
N999 C991 1.427 . S
N999 C997 1.384 . S
H1000 C1006 0.930 . S
H1001 C1010 0.930 . S
H1002 C1015 0.929 . S
H1003 C1013 0.929 . S
H1004 C1008 0.929 . S
H1005 C1014 0.929 . S
C1006 H1000 0.930 . S
C1006 C1007 1.367 . S
C1006 C1014 1.378 . S
C1007 C1006 1.367 . S
C1007 C1015 1.433 . S
C1008 H1004 0.929 . S
C1008 C1010 1.378 . S
C1008 C1012 1.350 . S
C1009 C1012 1.463 . S
C1009 C1014 1.350 . S
C1009 N1017 1.427 . S
C1010 H1001 0.930 . S
C1010 C1008 1.378 . S
C1010 C1011 1.367 . S
C1011 C1010 1.367 . S
C1011 C1013 1.433 . S
C1012 C1008 1.350 . S
C1012 C1009 1.463 . S
C1012 N1016 1.427 . S
C1013 H1003 0.929 . S
C1013 C1011 1.433 . S
C1013 N1016 1.384 . S
C1014 H1005 0.929 . S
C1014 C1006 1.378 . S
C1014 C1009 1.350 . S
C1015 H1002 0.929 . S
C1015 C1007 1.433 . S
C1015 N1017 1.384 . S
N1016 C1012 1.427 . S
N1016 C1013 1.384 . S
N1017 C1009 1.427 . S
N1017 C1015 1.384 . S
H1018 C1024 0.930 . S
H1019 C1028 0.930 . S
H1020 C1033 0.929 . S
H1021 C1031 0.929 . S
H1022 C1026 0.929 . S
H1023 C1032 0.929 . S
C1024 H1018 0.930 . S
C1024 C1025 1.367 . S
C1024 C1032 1.378 . S
C1025 C1024 1.367 . S
C1025 C1033 1.433 . S
C1026 H1022 0.929 . S
C1026 C1028 1.378 . S
C1026 C1030 1.350 . S
C1027 C1030 1.463 . S
C1027 C1032 1.350 . S
C1027 N1035 1.427 . S
C1028 H1019 0.930 . S
C1028 C1026 1.378 . S
C1028 C1029 1.367 . S
C1029 C1028 1.367 . S
C1029 C1031 1.433 . S
C1030 C1026 1.350 . S
C1030 C1027 1.463 . S
C1030 N1034 1.427 . S
C1031 H1021 0.929 . S
C1031 C1029 1.433 . S
C1031 N1034 1.384 . S
C1032 H1023 0.929 . S
C1032 C1024 1.378 . S
C1032 C1027 1.350 . S
C1033 H1020 0.929 . S
C1033 C1025 1.433 . S
C1033 N1035 1.384 . S
N1034 C1030 1.427 . S
N1034 C1031 1.384 . S
N1035 C1027 1.427 . S
N1035 C1033 1.384 . S
H1036 C1042 0.930 . S
H1037 C1046 0.930 . S
H1038 C1051 0.929 . S
H1039 C1049 0.929 . S
H1040 C1044 0.929 . S
H1041 C1050 0.929 . S
C1042 H1036 0.930 . S
C1042 C1043 1.367 . S
C1042 C1050 1.378 . S
C1043 C1042 1.367 . S
C1043 C1051 1.433 . S
C1044 H1040 0.929 . S
C1044 C1046 1.378 . S
C1044 C1048 1.350 . S
C1045 C1048 1.463 . S
C1045 C1050 1.350 . S
C1045 N1053 1.427 . S
C1046 H1037 0.930 . S
C1046 C1044 1.378 . S
C1046 C1047 1.367 . S
C1047 C1046 1.367 . S
C1047 C1049 1.433 . S
C1048 C1044 1.350 . S
C1048 C1045 1.463 . S
C1048 N1052 1.427 . S
C1049 H1039 0.929 . S
C1049 C1047 1.433 . S
C1049 N1052 1.384 . S
C1050 H1041 0.929 . S
C1050 C1042 1.378 . S
C1050 C1045 1.350 . S
C1051 H1038 0.929 . S
C1051 C1043 1.433 . S
C1051 N1053 1.384 . S
N1052 C1048 1.427 . S
N1052 C1049 1.384 . S
N1053 C1045 1.427 . S
N1053 C1051 1.384 . S
H1054 C1060 0.930 . S
H1055 C1064 0.930 . S
H1056 C1069 0.929 . S
H1057 C1067 0.929 . S
H1058 C1062 0.929 . S
H1059 C1068 0.929 . S
C1060 H1054 0.930 . S
C1060 C1061 1.367 . S
C1060 C1068 1.378 . S
C1061 C1060 1.367 . S
C1061 C1069 1.433 . S
C1062 H1058 0.929 . S
C1062 C1064 1.378 . S
C1062 C1066 1.350 . S
C1063 C1066 1.463 . S
C1063 C1068 1.350 . S
C1063 N1071 1.427 . S
C1064 H1055 0.930 . S
C1064 C1062 1.378 . S
C1064 C1065 1.367 . S
C1065 C1064 1.367 . S
C1065 C1067 1.433 . S
C1066 C1062 1.350 . S
C1066 C1063 1.463 . S
C1066 N1070 1.427 . S
C1067 H1057 0.929 . S
C1067 C1065 1.433 . S
C1067 N1070 1.384 . S
C1068 H1059 0.929 . S
C1068 C1060 1.378 . S
C1068 C1063 1.350 . S
C1069 H1056 0.929 . S
C1069 C1061 1.433 . S
C1069 N1071 1.384 . S
N1070 C1066 1.427 . S
N1070 C1067 1.384 . S
N1071 C1063 1.427 . S
N1071 C1069 1.384 . S
H1072 C1078 0.930 . S
H1073 C1082 0.930 . S
H1074 C1087 0.929 . S
H1075 C1085 0.929 . S
H1076 C1080 0.929 . S
H1077 C1086 0.929 . S
C1078 H1072 0.930 . S
C1078 C1079 1.367 . S
C1078 C1086 1.378 . S
C1079 C1078 1.367 . S
C1079 C1087 1.433 . S
C1080 H1076 0.929 . S
C1080 C1082 1.378 . S
C1080 C1084 1.350 . S
C1081 C1084 1.463 . S
C1081 C1086 1.350 . S
C1081 N1089 1.427 . S
C1082 H1073 0.930 . S
C1082 C1080 1.378 . S
C1082 C1083 1.367 . S
C1083 C1082 1.367 . S
C1083 C1085 1.433 . S
C1084 C1080 1.350 . S
C1084 C1081 1.463 . S
C1084 N1088 1.427 . S
C1085 H1075 0.929 . S
C1085 C1083 1.433 . S
C1085 N1088 1.384 . S
C1086 H1077 0.929 . S
C1086 C1078 1.378 . S
C1086 C1081 1.350 . S
C1087 H1074 0.929 . S
C1087 C1079 1.433 . S
C1087 N1089 1.384 . S
N1088 C1084 1.427 . S
N1088 C1085 1.384 . S
N1089 C1081 1.427 . S
N1089 C1087 1.384 . S
H1090 C1096 0.930 . S
H1091 C1100 0.930 . S
H1092 C1105 0.929 . S
H1093 C1103 0.929 . S
H1094 C1098 0.929 . S
H1095 C1104 0.929 . S
C1096 H1090 0.930 . S
C1096 C1097 1.367 . S
C1096 C1104 1.378 . S
C1097 C1096 1.367 . S
C1097 C1105 1.433 . S
C1098 H1094 0.929 . S
C1098 C1100 1.378 . S
C1098 C1102 1.350 . S
C1099 C1102 1.463 . S
C1099 C1104 1.350 . S
C1099 N1107 1.427 . S
C1100 H1091 0.930 . S
C1100 C1098 1.378 . S
C1100 C1101 1.367 . S
C1101 C1100 1.367 . S
C1101 C1103 1.433 . S
C1102 C1098 1.350 . S
C1102 C1099 1.463 . S
C1102 N1106 1.427 . S
C1103 H1093 0.929 . S
C1103 C1101 1.433 . S
C1103 N1106 1.384 . S
C1104 H1095 0.929 . S
C1104 C1096 1.378 . S
C1104 C1099 1.350 . S
C1105 H1092 0.929 . S
C1105 C1097 1.433 . S
C1105 N1107 1.384 . S
N1106 C1102 1.427 . S
N1106 C1103 1.384 . S
N1107 C1099 1.427 . S
N1107 C1105 1.384 . S
H1108 C1114 0.930 . S
H1109 C1118 0.930 . S
H1110 C1123 0.929 . S
H1111 C1121 0.929 . S
H1112 C1116 0.929 . S
H1113 C1122 0.929 . S
C1114 H1108 0.930 . S
C1114 C1115 1.367 . S
C1114 C1122 1.378 . S
C1115 C1114 1.367 . S
C1115 C1123 1.433 . S
C1116 H1112 0.929 . S
C1116 C1118 1.378 . S
C1116 C1120 1.350 . S
C1117 C1120 1.463 . S
C1117 C1122 1.350 . S
C1117 N1125 1.427 . S
C1118 H1109 0.930 . S
C1118 C1116 1.378 . S
C1118 C1119 1.367 . S
C1119 C1118 1.367 . S
C1119 C1121 1.433 . S
C1120 C1116 1.350 . S
C1120 C1117 1.463 . S
C1120 N1124 1.427 . S
C1121 H1111 0.929 . S
C1121 C1119 1.433 . S
C1121 N1124 1.384 . S
C1122 H1113 0.929 . S
C1122 C1114 1.378 . S
C1122 C1117 1.350 . S
C1123 H1110 0.929 . S
C1123 C1115 1.433 . S
C1123 N1125 1.384 . S
N1124 C1120 1.427 . S
N1124 C1121 1.384 . S
N1125 C1117 1.427 . S
N1125 C1123 1.384 . S
H1126 C1132 0.930 . S
H1127 C1136 0.930 . S
H1128 C1141 0.929 . S
H1129 C1139 0.929 . S
H1130 C1134 0.929 . S
H1131 C1140 0.929 . S
C1132 H1126 0.930 . S
C1132 C1133 1.367 . S
C1132 C1140 1.378 . S
C1133 C1132 1.367 . S
C1133 C1141 1.433 . S
C1134 H1130 0.929 . S
C1134 C1136 1.378 . S
C1134 C1138 1.350 . S
C1135 C1138 1.463 . S
C1135 C1140 1.350 . S
C1135 N1143 1.427 . S
C1136 H1127 0.930 . S
C1136 C1134 1.378 . S
C1136 C1137 1.367 . S
C1137 C1136 1.367 . S
C1137 C1139 1.433 . S
C1138 C1134 1.350 . S
C1138 C1135 1.463 . S
C1138 N1142 1.427 . S
C1139 H1129 0.929 . S
C1139 C1137 1.433 . S
C1139 N1142 1.384 . S
C1140 H1131 0.929 . S
C1140 C1132 1.378 . S
C1140 C1135 1.350 . S
C1141 H1128 0.929 . S
C1141 C1133 1.433 . S
C1141 N1143 1.384 . S
N1142 C1138 1.427 . S
N1142 C1139 1.384 . S
N1143 C1135 1.427 . S
N1143 C1141 1.384 . S
H1144 C1150 0.930 . S
H1145 C1154 0.930 . S
H1146 C1159 0.929 . S
H1147 C1157 0.929 . S
H1148 C1152 0.929 . S
H1149 C1158 0.929 . S
C1150 H1144 0.930 . S
C1150 C1151 1.367 . S
C1150 C1158 1.378 . S
C1151 C1150 1.367 . S
C1151 C1159 1.433 . S
C1152 H1148 0.929 . S
C1152 C1154 1.378 . S
C1152 C1156 1.350 . S
C1153 C1156 1.463 . S
C1153 C1158 1.350 . S
C1153 N1161 1.427 . S
C1154 H1145 0.930 . S
C1154 C1152 1.378 . S
C1154 C1155 1.367 . S
C1155 C1154 1.367 . S
C1155 C1157 1.433 . S
C1156 C1152 1.350 . S
C1156 C1153 1.463 . S
C1156 N1160 1.427 . S
C1157 H1147 0.929 . S
C1157 C1155 1.433 . S
C1157 N1160 1.384 . S
C1158 H1149 0.929 . S
C1158 C1150 1.378 . S
C1158 C1153 1.350 . S
C1159 H1146 0.929 . S
C1159 C1151 1.433 . S
C1159 N1161 1.384 . S
N1160 C1156 1.427 . S
N1160 C1157 1.384 . S
N1161 C1153 1.427 . S
N1161 C1159 1.384 . S
H1162 C1168 0.930 . S
H1163 C1172 0.930 . S
H1164 C1177 0.929 . S
H1165 C1175 0.929 . S
H1166 C1170 0.929 . S
H1167 C1176 0.929 . S
C1168 H1162 0.930 . S
C1168 C1169 1.367 . S
C1168 C1176 1.378 . S
C1169 C1168 1.367 . S
C1169 C1177 1.433 . S
C1170 H1166 0.929 . S
C1170 C1172 1.378 . S
C1170 C1174 1.350 . S
C1171 C1174 1.463 . S
C1171 C1176 1.350 . S
C1171 N1179 1.427 . S
C1172 H1163 0.930 . S
C1172 C1170 1.378 . S
C1172 C1173 1.367 . S
C1173 C1172 1.367 . S
C1173 C1175 1.433 . S
C1174 C1170 1.350 . S
C1174 C1171 1.463 . S
C1174 N1178 1.427 . S
C1175 H1165 0.929 . S
C1175 C1173 1.433 . S
C1175 N1178 1.384 . S
C1176 H1167 0.929 . S
C1176 C1168 1.378 . S
C1176 C1171 1.350 . S
C1177 H1164 0.929 . S
C1177 C1169 1.433 . S
C1177 N1179 1.384 . S
N1178 C1174 1.427 . S
N1178 C1175 1.384 . S
N1179 C1171 1.427 . S
N1179 C1177 1.384 . S
H1180 C1186 0.930 . S
H1181 C1190 0.930 . S
H1182 C1195 0.929 . S
H1183 C1193 0.929 . S
H1184 C1188 0.929 . S
H1185 C1194 0.929 . S
C1186 H1180 0.930 . S
C1186 C1187 1.367 . S
C1186 C1194 1.378 . S
C1187 C1186 1.367 . S
C1187 C1195 1.433 . S
C1188 H1184 0.929 . S
C1188 C1190 1.378 . S
C1188 C1192 1.350 . S
C1189 C1192 1.463 . S
C1189 C1194 1.350 . S
C1189 N1197 1.427 . S
C1190 H1181 0.930 . S
C1190 C1188 1.378 . S
C1190 C1191 1.367 . S
C1191 C1190 1.367 . S
C1191 C1193 1.433 . S
C1192 C1188 1.350 . S
C1192 C1189 1.463 . S
C1192 N1196 1.427 . S
C1193 H1183 0.929 . S
C1193 C1191 1.433 . S
C1193 N1196 1.384 . S
C1194 H1185 0.929 . S
C1194 C1186 1.378 . S
C1194 C1189 1.350 . S
C1195 H1182 0.929 . S
C1195 C1187 1.433 . S
C1195 N1197 1.384 . S
N1196 C1192 1.427 . S
N1196 C1193 1.384 . S
N1197 C1189 1.427 . S
N1197 C1195 1.384 . S
H1198 C1204 0.930 . S
H1199 C1208 0.930 . S
H1200 C1213 0.929 . S
H1201 C1211 0.929 . S
H1202 C1206 0.929 . S
H1203 C1212 0.929 . S
C1204 H1198 0.930 . S
C1204 C1205 1.367 . S
C1204 C1212 1.378 . S
C1205 C1204 1.367 . S
C1205 C1213 1.433 . S
C1206 H1202 0.929 . S
C1206 C1208 1.378 . S
C1206 C1210 1.350 . S
C1207 C1210 1.463 . S
C1207 C1212 1.350 . S
C1207 N1215 1.427 . S
C1208 H1199 0.930 . S
C1208 C1206 1.378 . S
C1208 C1209 1.367 . S
C1209 C1208 1.367 . S
C1209 C1211 1.433 . S
C1210 C1206 1.350 . S
C1210 C1207 1.463 . S
C1210 N1214 1.427 . S
C1211 H1201 0.929 . S
C1211 C1209 1.433 . S
C1211 N1214 1.384 . S
C1212 H1203 0.929 . S
C1212 C1204 1.378 . S
C1212 C1207 1.350 . S
C1213 H1200 0.929 . S
C1213 C1205 1.433 . S
C1213 N1215 1.384 . S
N1214 C1210 1.427 . S
N1214 C1211 1.384 . S
N1215 C1207 1.427 . S
N1215 C1213 1.384 . S
H1216 C1222 0.930 . S
H1217 C1226 0.930 . S
H1218 C1231 0.929 . S
H1219 C1229 0.929 . S
H1220 C1224 0.929 . S
H1221 C1230 0.929 . S
C1222 H1216 0.930 . S
C1222 C1223 1.367 . S
C1222 C1230 1.378 1_554 S
C1223 C1222 1.367 . S
C1223 C1231 1.433 1_554 S
C1224 H1220 0.929 . S
C1224 C1226 1.378 . S
C1224 C1228 1.350 . S
C1225 C1228 1.463 . S
C1225 C1230 1.350 . S
C1225 N1233 1.427 . S
C1226 H1217 0.930 . S
C1226 C1224 1.378 . S
C1226 C1227 1.367 . S
C1227 C1226 1.367 . S
C1227 C1229 1.433 . S
C1228 C1224 1.350 . S
C1228 C1225 1.463 . S
C1228 N1232 1.427 . S
C1229 H1219 0.929 . S
C1229 C1227 1.433 . S
C1229 N1232 1.384 . S
C1230 H1221 0.929 . S
C1230 C1222 1.378 1_556 S
C1230 C1225 1.350 . S
C1231 H1218 0.929 . S
C1231 C1223 1.433 1_556 S
C1231 N1233 1.384 . S
N1232 C1228 1.427 . S
N1232 C1229 1.384 . S
N1233 C1225 1.427 . S
N1233 C1231 1.384 . S
H1234 C1240 0.930 . S
H1235 C1244 0.930 . S
H1236 C1249 0.929 . S
H1237 C1247 0.929 . S
H1238 C1242 0.929 . S
H1239 C1248 0.929 . S
C1240 H1234 0.930 . S
C1240 C1241 1.367 . S
C1240 C1248 1.378 . S
C1241 C1240 1.367 . S
C1241 C1249 1.433 . S
C1242 H1238 0.929 . S
C1242 C1244 1.378 . S
C1242 C1246 1.350 . S
C1243 C1246 1.463 . S
C1243 C1248 1.350 . S
C1243 N1251 1.427 . S
C1244 H1235 0.930 . S
C1244 C1242 1.378 . S
C1244 C1245 1.367 . S
C1245 C1244 1.367 . S
C1245 C1247 1.433 . S
C1246 C1242 1.350 . S
C1246 C1243 1.463 . S
C1246 N1250 1.427 . S
C1247 H1237 0.929 . S
C1247 C1245 1.433 . S
C1247 N1250 1.384 . S
C1248 H1239 0.929 . S
C1248 C1240 1.378 . S
C1248 C1243 1.350 . S
C1249 H1236 0.929 . S
C1249 C1241 1.433 . S
C1249 N1251 1.384 . S
N1250 C1246 1.427 . S
N1250 C1247 1.384 . S
N1251 C1243 1.427 . S
N1251 C1249 1.384 . S
H1252 C1258 0.930 . S
H1253 C1262 0.930 . S
H1254 C1267 0.929 . S
H1255 C1265 0.929 . S
H1256 C1260 0.929 . S
H1257 C1266 0.929 . S
C1258 H1252 0.930 . S
C1258 C1259 1.367 . S
C1258 C1266 1.378 . S
C1259 C1258 1.367 . S
C1259 C1267 1.433 . S
C1260 H1256 0.929 . S
C1260 C1262 1.378 . S
C1260 C1264 1.350 . S
C1261 C1264 1.463 . S
C1261 C1266 1.350 . S
C1261 N1269 1.427 . S
C1262 H1253 0.930 . S
C1262 C1260 1.378 . S
C1262 C1263 1.367 . S
C1263 C1262 1.367 . S
C1263 C1265 1.433 . S
C1264 C1260 1.350 . S
C1264 C1261 1.463 . S
C1264 N1268 1.427 . S
C1265 H1255 0.929 . S
C1265 C1263 1.433 . S
C1265 N1268 1.384 . S
C1266 H1257 0.929 . S
C1266 C1258 1.378 . S
C1266 C1261 1.350 . S
C1267 H1254 0.929 . S
C1267 C1259 1.433 . S
C1267 N1269 1.384 . S
N1268 C1264 1.427 . S
N1268 C1265 1.384 . S
N1269 C1261 1.427 . S
N1269 C1267 1.384 . S
H1270 C1276 0.930 . S
H1271 C1280 0.930 . S
H1272 C1285 0.929 . S
H1273 C1283 0.929 . S
H1274 C1278 0.929 . S
H1275 C1284 0.929 . S
C1276 H1270 0.930 . S
C1276 C1277 1.367 . S
C1276 C1284 1.378 . S
C1277 C1276 1.367 . S
C1277 C1285 1.433 . S
C1278 H1274 0.929 . S
C1278 C1280 1.378 . S
C1278 C1282 1.350 . S
C1279 C1282 1.463 . S
C1279 C1284 1.350 . S
C1279 N1287 1.427 . S
C1280 H1271 0.930 . S
C1280 C1278 1.378 . S
C1280 C1281 1.367 . S
C1281 C1280 1.367 . S
C1281 C1283 1.433 . S
C1282 C1278 1.350 . S
C1282 C1279 1.463 . S
C1282 N1286 1.427 . S
C1283 H1273 0.929 . S
C1283 C1281 1.433 . S
C1283 N1286 1.384 . S
C1284 H1275 0.929 . S
C1284 C1276 1.378 . S
C1284 C1279 1.350 . S
C1285 H1272 0.929 . S
C1285 C1277 1.433 . S
C1285 N1287 1.384 . S
N1286 C1282 1.427 . S
N1286 C1283 1.384 . S
N1287 C1279 1.427 . S
N1287 C1285 1.384 . S
H1288 C1294 0.930 . S
H1289 C1298 0.930 . S
H1290 C1303 0.929 . S
H1291 C1301 0.929 . S
H1292 C1296 0.929 . S
H1293 C1302 0.929 . S
C1294 H1288 0.930 . S
C1294 C1295 1.367 . S
C1294 C1302 1.378 . S
C1295 C1294 1.367 . S
C1295 C1303 1.433 . S
C1296 H1292 0.929 . S
C1296 C1298 1.378 . S
C1296 C1300 1.350 . S
C1297 C1300 1.463 . S
C1297 C1302 1.350 . S
C1297 N1305 1.427 . S
C1298 H1289 0.930 . S
C1298 C1296 1.378 . S
C1298 C1299 1.367 1_554 S
C1299 C1298 1.367 1_556 S
C1299 C1301 1.433 . S
C1300 C1296 1.350 . S
C1300 C1297 1.463 . S
C1300 N1304 1.427 . S
C1301 H1291 0.929 . S
C1301 C1299 1.433 . S
C1301 N1304 1.384 1_556 S
C1302 H1293 0.929 . S
C1302 C1294 1.378 . S
C1302 C1297 1.350 . S
C1303 H1290 0.929 . S
C1303 C1295 1.433 . S
C1303 N1305 1.384 . S
N1304 C1300 1.427 . S
N1304 C1301 1.384 1_554 S
N1305 C1297 1.427 . S
N1305 C1303 1.384 . S
H1306 C1312 0.930 . S
H1307 C1316 0.930 . S
H1308 C1321 0.929 . S
H1309 C1319 0.929 . S
H1310 C1314 0.929 . S
H1311 C1320 0.929 . S
C1312 H1306 0.930 . S
C1312 C1313 1.367 . S
C1312 C1320 1.378 . S
C1313 C1312 1.367 . S
C1313 C1321 1.433 . S
C1314 H1310 0.929 . S
C1314 C1316 1.378 . S
C1314 C1318 1.350 . S
C1315 C1318 1.463 . S
C1315 C1320 1.350 . S
C1315 N1323 1.427 . S
C1316 H1307 0.930 . S
C1316 C1314 1.378 . S
C1316 C1317 1.367 . S
C1317 C1316 1.367 . S
C1317 C1319 1.433 . S
C1318 C1314 1.350 . S
C1318 C1315 1.463 . S
C1318 N1322 1.427 . S
C1319 H1309 0.929 . S
C1319 C1317 1.433 . S
C1319 N1322 1.384 . S
C1320 H1311 0.929 . S
C1320 C1312 1.378 . S
C1320 C1315 1.350 . S
C1321 H1308 0.929 . S
C1321 C1313 1.433 . S
C1321 N1323 1.384 . S
N1322 C1318 1.427 . S
N1322 C1319 1.384 . S
N1323 C1315 1.427 . S
N1323 C1321 1.384 . S
H1324 C1330 0.930 . S
H1325 C1334 0.930 . S
H1326 C1339 0.929 . S
H1327 C1337 0.929 . S
H1328 C1332 0.929 . S
H1329 C1338 0.929 . S
C1330 H1324 0.930 . S
C1330 C1331 1.367 . S
C1330 C1338 1.378 . S
C1331 C1330 1.367 . S
C1331 C1339 1.433 . S
C1332 H1328 0.929 . S
C1332 C1334 1.378 . S
C1332 C1336 1.350 . S
C1333 C1336 1.463 . S
C1333 C1338 1.350 . S
C1333 N1341 1.427 . S
C1334 H1325 0.930 . S
C1334 C1332 1.378 . S
C1334 C1335 1.367 . S
C1335 C1334 1.367 . S
C1335 C1337 1.433 . S
C1336 C1332 1.350 . S
C1336 C1333 1.463 . S
C1336 N1340 1.427 . S
C1337 H1327 0.929 . S
C1337 C1335 1.433 . S
C1337 N1340 1.384 . S
C1338 H1329 0.929 . S
C1338 C1330 1.378 . S
C1338 C1333 1.350 . S
C1339 H1326 0.929 . S
C1339 C1331 1.433 . S
C1339 N1341 1.384 . S
N1340 C1336 1.427 . S
N1340 C1337 1.384 . S
N1341 C1333 1.427 . S
N1341 C1339 1.384 . S
H1342 C1348 0.930 . S
H1343 C1352 0.930 . S
H1344 C1357 0.929 . S
H1345 C1355 0.929 . S
H1346 C1350 0.929 . S
H1347 C1356 0.929 . S
C1348 H1342 0.930 . S
C1348 C1349 1.367 . S
C1348 C1356 1.378 . S
C1349 C1348 1.367 . S
C1349 C1357 1.433 . S
C1350 H1346 0.929 . S
C1350 C1352 1.378 . S
C1350 C1354 1.350 . S
C1351 C1354 1.463 . S
C1351 C1356 1.350 . S
C1351 N1359 1.427 . S
C1352 H1343 0.930 . S
C1352 C1350 1.378 . S
C1352 C1353 1.367 . S
C1353 C1352 1.367 . S
C1353 C1355 1.433 . S
C1354 C1350 1.350 . S
C1354 C1351 1.463 . S
C1354 N1358 1.427 . S
C1355 H1345 0.929 . S
C1355 C1353 1.433 . S
C1355 N1358 1.384 . S
C1356 H1347 0.929 . S
C1356 C1348 1.378 . S
C1356 C1351 1.350 . S
C1357 H1344 0.929 . S
C1357 C1349 1.433 . S
C1357 N1359 1.384 . S
N1358 C1354 1.427 . S
N1358 C1355 1.384 . S
N1359 C1351 1.427 . S
N1359 C1357 1.384 . S
H1360 C1366 0.930 . S
H1361 C1370 0.930 . S
H1362 C1375 0.929 . S
H1363 C1373 0.929 . S
H1364 C1368 0.929 . S
H1365 C1374 0.929 . S
C1366 H1360 0.930 . S
C1366 C1367 1.367 . S
C1366 C1374 1.378 . S
C1367 C1366 1.367 . S
C1367 C1375 1.433 . S
C1368 H1364 0.929 . S
C1368 C1370 1.378 . S
C1368 C1372 1.350 . S
C1369 C1372 1.463 . S
C1369 C1374 1.350 . S
C1369 N1377 1.427 . S
C1370 H1361 0.930 . S
C1370 C1368 1.378 . S
C1370 C1371 1.367 . S
C1371 C1370 1.367 . S
C1371 C1373 1.433 . S
C1372 C1368 1.350 . S
C1372 C1369 1.463 . S
C1372 N1376 1.427 . S
C1373 H1363 0.929 . S
C1373 C1371 1.433 . S
C1373 N1376 1.384 . S
C1374 H1365 0.929 . S
C1374 C1366 1.378 . S
C1374 C1369 1.350 . S
C1375 H1362 0.929 . S
C1375 C1367 1.433 . S
C1375 N1377 1.384 . S
N1376 C1372 1.427 . S
N1376 C1373 1.384 . S
N1377 C1369 1.427 . S
N1377 C1375 1.384 . S
H1378 C1384 0.930 . S
H1379 C1388 0.930 . S
H1380 C1393 0.929 . S
H1381 C1391 0.929 . S
H1382 C1386 0.929 . S
H1383 C1392 0.929 . S
C1384 H1378 0.930 . S
C1384 C1385 1.367 . S
C1384 C1392 1.378 . S
C1385 C1384 1.367 . S
C1385 C1393 1.433 . S
C1386 H1382 0.929 . S
C1386 C1388 1.378 . S
C1386 C1390 1.350 . S
C1387 C1390 1.463 . S
C1387 C1392 1.350 . S
C1387 N1395 1.427 . S
C1388 H1379 0.930 . S
C1388 C1386 1.378 . S
C1388 C1389 1.367 . S
C1389 C1388 1.367 . S
C1389 C1391 1.433 1_565 S
C1390 C1386 1.350 . S
C1390 C1387 1.463 . S
C1390 N1394 1.427 . S
C1391 H1381 0.929 . S
C1391 C1389 1.433 1_545 S
C1391 N1394 1.384 1_545 S
C1392 H1383 0.929 . S
C1392 C1384 1.378 . S
C1392 C1387 1.350 . S
C1393 H1380 0.929 . S
C1393 C1385 1.433 . S
C1393 N1395 1.384 . S
N1394 C1390 1.427 . S
N1394 C1391 1.384 1_565 S
N1395 C1387 1.427 . S
N1395 C1393 1.384 . S
H1396 C1402 0.930 . S
H1397 C1406 0.930 . S
H1398 C1411 0.929 . S
H1399 C1409 0.929 . S
H1400 C1404 0.929 . S
H1401 C1410 0.929 . S
C1402 H1396 0.930 . S
C1402 C1403 1.367 . S
C1402 C1410 1.378 . S
C1403 C1402 1.367 . S
C1403 C1411 1.433 . S
C1404 H1400 0.929 . S
C1404 C1406 1.378 1_556 S
C1404 C1408 1.350 . S
C1405 C1408 1.463 . S
C1405 C1410 1.350 . S
C1405 N1413 1.427 . S
C1406 H1397 0.930 . S
C1406 C1404 1.378 1_554 S
C1406 C1407 1.367 . S
C1407 C1406 1.367 . S
C1407 C1409 1.433 1_554 S
C1408 C1404 1.350 . S
C1408 C1405 1.463 . S
C1408 N1412 1.427 . S
C1409 H1399 0.929 . S
C1409 C1407 1.433 1_556 S
C1409 N1412 1.384 . S
C1410 H1401 0.929 . S
C1410 C1402 1.378 . S
C1410 C1405 1.350 . S
C1411 H1398 0.929 . S
C1411 C1403 1.433 . S
C1411 N1413 1.384 . S
N1412 C1408 1.427 . S
N1412 C1409 1.384 . S
N1413 C1405 1.427 . S
N1413 C1411 1.384 . S
H1414 C1420 0.930 1_565 S
H1415 C1424 0.930 . S
H1416 C1429 0.929 . S
H1417 C1427 0.929 . S
H1418 C1422 0.929 . S
H1419 C1428 0.929 . S
C1420 H1414 0.930 1_545 S
C1420 C1421 1.367 . S
C1420 C1428 1.378 . S
C1421 C1420 1.367 . S
C1421 C1429 1.433 . S
C1422 H1418 0.929 . S
C1422 C1424 1.378 . S
C1422 C1426 1.350 . S
C1423 C1426 1.463 . S
C1423 C1428 1.350 . S
C1423 N1431 1.427 . S
C1424 H1415 0.930 . S
C1424 C1422 1.378 . S
C1424 C1425 1.367 . S
C1425 C1424 1.367 . S
C1425 C1427 1.433 . S
C1426 C1422 1.350 . S
C1426 C1423 1.463 . S
C1426 N1430 1.427 . S
C1427 H1417 0.929 . S
C1427 C1425 1.433 . S
C1427 N1430 1.384 . S
C1428 H1419 0.929 . S
C1428 C1420 1.378 . S
C1428 C1423 1.350 . S
C1429 H1416 0.929 . S
C1429 C1421 1.433 . S
C1429 N1431 1.384 . S
N1430 C1426 1.427 . S
N1430 C1427 1.384 . S
N1431 C1423 1.427 . S
N1431 C1429 1.384 . S
H1432 C1438 0.930 . S
H1433 C1442 0.930 . S
H1434 C1447 0.929 . S
H1435 C1445 0.929 . S
H1436 C1440 0.929 . S
H1437 C1446 0.929 . S
C1438 H1432 0.930 . S
C1438 C1439 1.367 . S
C1438 C1446 1.378 . S
C1439 C1438 1.367 . S
C1439 C1447 1.433 . S
C1440 H1436 0.929 . S
C1440 C1442 1.378 . S
C1440 C1444 1.350 . S
C1441 C1444 1.463 . S
C1441 C1446 1.350 . S
C1441 N1449 1.427 . S
C1442 H1433 0.930 . S
C1442 C1440 1.378 . S
C1442 C1443 1.367 . S
C1443 C1442 1.367 . S
C1443 C1445 1.433 . S
C1444 C1440 1.350 . S
C1444 C1441 1.463 . S
C1444 N1448 1.427 . S
C1445 H1435 0.929 . S
C1445 C1443 1.433 . S
C1445 N1448 1.384 . S
C1446 H1437 0.929 . S
C1446 C1438 1.378 . S
C1446 C1441 1.350 . S
C1447 H1434 0.929 . S
C1447 C1439 1.433 . S
C1447 N1449 1.384 . S
N1448 C1444 1.427 . S
N1448 C1445 1.384 . S
N1449 C1441 1.427 . S
N1449 C1447 1.384 . S
H1450 C1456 0.930 . S
H1451 C1460 0.930 . S
H1452 C1465 0.929 . S
H1453 C1463 0.929 . S
H1454 C1458 0.929 . S
H1455 C1464 0.929 . S
C1456 H1450 0.930 . S
C1456 C1457 1.367 . S
C1456 C1464 1.378 . S
C1457 C1456 1.367 . S
C1457 C1465 1.433 . S
C1458 H1454 0.929 . S
C1458 C1460 1.378 . S
C1458 C1462 1.350 . S
C1459 C1462 1.463 . S
C1459 C1464 1.350 . S
C1459 N1467 1.427 . S
C1460 H1451 0.930 . S
C1460 C1458 1.378 . S
C1460 C1461 1.367 . S
C1461 C1460 1.367 . S
C1461 C1463 1.433 1_545 S
C1462 C1458 1.350 . S
C1462 C1459 1.463 . S
C1462 N1466 1.427 . S
C1463 H1453 0.929 . S
C1463 C1461 1.433 1_565 S
C1463 N1466 1.384 1_565 S
C1464 H1455 0.929 . S
C1464 C1456 1.378 . S
C1464 C1459 1.350 . S
C1465 H1452 0.929 . S
C1465 C1457 1.433 . S
C1465 N1467 1.384 . S
N1466 C1462 1.427 . S
N1466 C1463 1.384 1_545 S
N1467 C1459 1.427 . S
N1467 C1465 1.384 . S
H1468 C1474 0.930 . S
H1469 C1478 0.930 . S
H1470 C1483 0.929 . S
H1471 C1481 0.929 . S
H1472 C1476 0.929 . S
H1473 C1482 0.929 . S
C1474 H1468 0.930 . S
C1474 C1475 1.367 . S
C1474 C1482 1.378 . S
C1475 C1474 1.367 . S
C1475 C1483 1.433 . S
C1476 H1472 0.929 . S
C1476 C1478 1.378 . S
C1476 C1480 1.350 . S
C1477 C1480 1.463 . S
C1477 C1482 1.350 . S
C1477 N1485 1.427 . S
C1478 H1469 0.930 . S
C1478 C1476 1.378 . S
C1478 C1479 1.367 1_554 S
C1479 C1478 1.367 1_556 S
C1479 C1481 1.433 . S
C1480 C1476 1.350 . S
C1480 C1477 1.463 . S
C1480 N1484 1.427 . S
C1481 H1471 0.929 . S
C1481 C1479 1.433 . S
C1481 N1484 1.384 1_556 S
C1482 H1473 0.929 . S
C1482 C1474 1.378 . S
C1482 C1477 1.350 . S
C1483 H1470 0.929 . S
C1483 C1475 1.433 . S
C1483 N1485 1.384 . S
N1484 C1480 1.427 . S
N1484 C1481 1.384 1_554 S
N1485 C1477 1.427 . S
N1485 C1483 1.384 . S
H1486 C1492 0.930 . S
H1487 C1496 0.930 . S
H1488 C1501 0.929 . S
H1489 C1499 0.929 . S
H1490 C1494 0.929 . S
H1491 C1500 0.929 . S
C1492 H1486 0.930 . S
C1492 C1493 1.367 . S
C1492 C1500 1.378 . S
C1493 C1492 1.367 . S
C1493 C1501 1.433 . S
C1494 H1490 0.929 . S
C1494 C1496 1.378 . S
C1494 C1498 1.350 . S
C1495 C1498 1.463 . S
C1495 C1500 1.350 . S
C1495 N1503 1.427 . S
C1496 H1487 0.930 . S
C1496 C1494 1.378 . S
C1496 C1497 1.367 . S
C1497 C1496 1.367 . S
C1497 C1499 1.433 1_565 S
C1498 C1494 1.350 . S
C1498 C1495 1.463 . S
C1498 N1502 1.427 . S
C1499 H1489 0.929 . S
C1499 C1497 1.433 1_545 S
C1499 N1502 1.384 1_545 S
C1500 H1491 0.929 . S
C1500 C1492 1.378 . S
C1500 C1495 1.350 . S
C1501 H1488 0.929 . S
C1501 C1493 1.433 . S
C1501 N1503 1.384 . S
N1502 C1498 1.427 . S
N1502 C1499 1.384 1_565 S
N1503 C1495 1.427 . S
N1503 C1501 1.384 . S
C647 C17 2.716 . S
C651 C417 2.718 . S
C665 C57 2.720 . S
C669 C457 2.718 . S
C683 C97 2.716 . S
C687 C337 2.715 . S
C701 C377 2.719 . S
C705 C137 2.721 . S
C719 C162 2.721 . S
C723 C562 2.721 . S
C737 C602 2.717 . S
C741 C202 2.719 . S
C755 C482 2.717 . S
C759 C242 2.719 . S
C773 C282 2.717 . S
C777 C522 2.720 . S
C791 C29 0.913 1_565 S
C795 C168 0.913 1_545 S
C809 C69 0.941 . S
C813 C528 0.941 . S
C827 C109 0.950 1_545 S
C831 C248 0.950 1_565 S
C845 C149 0.941 . S
C849 C608 0.941 . S
C863 C208 0.950 . S
C867 C389 0.950 . S
C881 C469 0.923 . S
C885 C288 0.923 . S
C899 C488 0.914 . S
C903 C349 0.914 . S
C917 C429 0.922 . S
C921 C568 0.922 . S
C935 C8 1.036 . S
C939 C297 1.185 . S
C953 C48 1.051 . S
C957 C497 1.189 . S
C971 C88 1.035 . S
C975 C217 1.194 . S
C989 C128 1.058 . S
C993 C577 1.201 . S
C1007 C122 1.201 . S
C1011 C189 1.058 . S
C1025 C229 1.063 . S
C1029 C322 1.196 . S
C1043 C269 1.065 . S
C1047 C42 1.199 . S
C1061 C402 1.186 . S
C1065 C309 1.029 . S
C1079 C328 1.064 . S
C1083 C617 1.196 1_565 S
C1097 C177 1.200 . S
C1101 C368 1.063 . S
C1115 C537 1.190 1_545 S
C1119 C408 1.054 . S
C1133 C257 1.195 . S
C1137 C448 1.063 . S
C1151 C509 1.059 . S
C1155 C442 1.201 1_545 S
C1169 C549 1.032 . S
C1173 C2 1.185 . S
C1187 C362 1.192 1_565 S
C1191 C589 1.058 . S
C1205 C629 1.036 . S
C1209 C82 1.185 . S
C1223 C12 4.050 . S
C1227 C391 3.989 . S
C1241 C431 3.988 . S
C1245 C52 4.050 . S
C1259 C92 4.055 . S
C1263 C471 3.995 . S
C1277 C351 3.995 . S
C1281 C132 4.055 . S
C1295 C532 3.995 . S
C1299 C191 4.055 . S
C1313 C572 3.995 . S
C1317 C231 4.055 . S
C1331 C612 3.993 . S
C1335 C271 4.054 . S
C1349 C492 3.992 . S
C1353 C311 4.053 . S
C1367 C71 3.990 . S
C1371 C332 4.052 . S
C1385 C111 3.988 . S
C1389 C372 4.050 1_565 S
C1403 C151 3.989 . S
C1407 C412 4.051 . S
C1421 C452 4.053 1_545 S
C1425 C31 3.993 . S
C1439 C212 3.995 . S
C1443 C511 4.055 . S
C1457 C252 3.990 . S
C1461 C551 4.052 1_545 S
C1475 C292 3.994 . S
C1479 C591 4.054 . S
C1493 C172 3.989 . S
C1497 C631 4.051 1_565 S
