# Generated by pormake.
# Topology sxa, (6)-cn, num edge types: 1
# Building blocks:
#     Node 0, Type 0, BuildingBlock: PAMTUU_clean_sbu_0, # of connection points: 6
#     Node 1, Type 0, BuildingBlock: PAMTUU_clean_sbu_0, # of connection points: 6
#     Node 2, Type 0, BuildingBlock: PAMTUU_clean_sbu_0, # of connection points: 6
#     Node 3, Type 0, BuildingBlock: PAMTUU_clean_sbu_0, # of connection points: 6
#     Edge 4, Type (0, 0), BuildingBlock: KIFKEQ_clean_linker_1, # of connection points: 2
#     Edge 5, Type (0, 0), BuildingBlock: KIFKEQ_clean_linker_1, # of connection points: 2
#     Edge 6, Type (0, 0), BuildingBlock: KIFKEQ_clean_linker_1, # of connection points: 2
#     Edge 7, Type (0, 0), BuildingBlock: KIFKEQ_clean_linker_1, # of connection points: 2
#     Edge 8, Type (0, 0), BuildingBlock: KIFKEQ_clean_linker_1, # of connection points: 2
#     Edge 9, Type (0, 0), BuildingBlock: KIFKEQ_clean_linker_1, # of connection points: 2
#     Edge 10, Type (0, 0), BuildingBlock: KIFKEQ_clean_linker_1, # of connection points: 2
#     Edge 11, Type (0, 0), BuildingBlock: KIFKEQ_clean_linker_1, # of connection points: 2
#     Edge 12, Type (0, 0), BuildingBlock: KIFKEQ_clean_linker_1, # of connection points: 2
#     Edge 13, Type (0, 0), BuildingBlock: KIFKEQ_clean_linker_1, # of connection points: 2
#     Edge 14, Type (0, 0), BuildingBlock: KIFKEQ_clean_linker_1, # of connection points: 2
#     Edge 15, Type (0, 0), BuildingBlock: KIFKEQ_clean_linker_1, # of connection points: 2
# Relax obj value: 0.221
# Max RMSD: 0.277
# Mean RMSD: 0.277
data_MOF--net-sxa--node1-PAMTUU_clean_sbu_0--edge1-KIFKEQ_clean_linker_1
_symmetry_space_group_name_H-M    P1
_symmetry_Int_Tables_number       1
_symmetry_cell_setting            triclinic
loop_
_symmetry_equiv_pos_as_xyz
'x, y, z'
_cell_length_a     36.218825
_cell_length_b     27.45502
_cell_length_c     17.162871
_cell_angle_alpha  92.751541
_cell_angle_beta   54.93739
_cell_angle_gamma 98.579806
loop_
_atom_site_label
_atom_site_type_symbol
_atom_site_fract_x
_atom_site_fract_y
_atom_site_fract_z
_atom_type_partial_charge
Tb0 Tb 0.09423 0.78554 0.06512 0.0
Tb1 Tb 0.10821 0.81046 0.23377 0.0
C2 C 0.08621 0.70434 0.17983 0.0
C3 C 0.03592 0.73783 0.9551 0.0
C4 C 0.94592 0.7071 1.01119 0.0
C5 C 0.96707 0.67701 0.03334 0.0
C6 C 1.01171 0.69241 1.00609 0.0
C7 C 1.01574 0.76589 0.92704 0.0
C8 C 0.97101 0.75087 0.95551 0.0
C9 C 0.07884 0.75981 0.94276 0.0
O10 O 0.02807 0.80549 0.18569 0.0
O11 O 0.034 0.79907 0.31186 0.0
O12 O 0.09472 0.87871 0.19291 0.0
O13 O 0.12728 0.86056 0.03729 0.0
O14 O 0.10451 0.78332 0.35143 0.0
O15 O 0.13508 0.85786 0.29603 0.0
O16 O 0.17403 0.8295 0.10238 0.0
O17 O 0.16369 0.77211 1.01394 0.0
O18 O 0.05951 0.72667 0.17177 0.0
O19 O 0.11691 0.73279 0.18682 0.0
C20 C 1.00951 0.803 0.27856 0.0
O21 O 0.07933 0.80492 0.97047 0.0
O22 O 0.09635 0.73262 0.97053 0.0
C23 C 0.11233 0.89277 0.10343 0.0
C24 C 0.16331 0.81942 0.37041 0.0
C25 C 0.22998 0.81029 0.4068 0.0
C26 C 0.19427 0.83814 0.46485 0.0
C27 C 0.16157 0.8425 0.447 0.0
C28 C 0.19922 0.79226 0.31067 0.0
C29 C 0.23215 0.7878 0.32855 0.0
C30 C 0.12667 0.82386 0.35684 0.0
C31 C 0.19075 0.80007 0.03203 0.0
H32 H 0.94825 0.64308 0.07621 0.0
H33 H 0.02629 0.66989 0.02897 0.0
H34 H 0.03368 0.80088 0.88758 0.0
H35 H 0.9554 0.77433 0.93681 0.0
H36 H 0.19159 0.85715 0.52425 0.0
H37 H 0.13453 0.86394 0.49387 0.0
H38 H 0.20158 0.77413 0.25079 0.0
H39 H 0.25873 0.76584 0.28205 0.0
Tb40 Tb 0.59145 0.28379 0.0653 0.0
Tb41 Tb 0.6009 0.29612 0.24171 0.0
C42 C 0.59831 0.19691 0.1445 0.0
C43 C 0.53022 0.27051 0.95695 0.0
C44 C 0.43847 0.26824 0.02505 0.0
C45 C 0.46229 0.22958 0.97175 0.0
C46 C 0.50787 0.23083 0.93774 0.0
C47 C 0.50747 0.31062 1.00478 0.0
C48 C 0.4621 0.30966 0.03783 0.0
C49 C 0.57207 0.2645 0.94764 0.0
O50 O 0.52121 0.27913 0.20065 0.0
O51 O 0.5293 0.29897 0.3232 0.0
O52 O 0.60019 0.37324 0.20664 0.0
O53 O 0.6018 0.36224 0.06948 0.0
O54 O 0.6324 0.25663 0.28335 0.0
O55 O 0.60038 0.31913 0.36252 0.0
O56 O 0.66602 0.3268 0.11674 0.0
O57 O 0.66464 0.28726 0.99794 0.0
O58 O 0.62292 0.22461 0.06788 0.0
O59 O 0.57511 0.21962 0.22462 0.0
C60 C 0.50379 0.28902 0.29133 0.0
O61 O 0.59814 0.30491 0.94121 0.0
O62 O 0.56532 0.23191 1.00919 0.0
C63 C 0.60229 0.39046 0.13255 0.0
C64 C 0.66156 0.29687 0.36781 0.0
C65 C 0.72901 0.29996 0.4063 0.0
C66 C 0.68296 0.30263 0.48008 0.0
C67 C 0.64987 0.30102 0.46108 0.0
C68 C 0.70782 0.29634 0.29311 0.0
C69 C 0.74108 0.29806 0.31206 0.0
C70 C 0.62432 0.2851 0.35311 0.0
C71 C 0.68703 0.31112 0.03053 0.0
H72 H 0.44507 0.19694 0.9612 0.0
H73 H 0.52463 0.19917 0.90255 0.0
H74 H 0.52378 0.3414 0.02181 0.0
H75 H 0.44506 0.34055 0.0766 0.0
H76 H 0.67217 0.30518 0.5533 0.0
H77 H 0.61458 0.30107 0.52025 0.0
H78 H 0.71808 0.29268 0.22033 0.0
H79 H 0.77593 0.29572 0.25304 0.0
Tb80 Tb 0.0757 0.2923 0.75706 0.0
Tb81 Tb 0.06013 0.30015 0.96129 0.0
C82 C 0.07262 0.19924 0.86651 0.0
C83 C 0.0265 0.29051 0.61129 0.0
C84 C 0.95997 0.28496 0.5691 0.0
C85 C 0.99986 0.26279 0.51127 0.0
C86 C 0.03264 0.26574 0.53184 0.0
C87 C 0.98618 0.31152 0.67046 0.0
C88 C 0.95361 0.30881 0.64981 0.0
C89 C 0.06421 0.29956 0.62531 0.0
O90 O 1.00868 0.25795 0.86865 0.0
O91 O 0.99518 0.30912 0.98447 0.0
O92 O 0.04293 0.36715 0.94118 0.0
O93 O 0.09571 0.36958 0.78334 0.0
O94 O 0.0267 0.27356 0.10221 0.0
O95 O 0.0776 0.33911 0.04637 0.0
O96 O 0.13609 0.3042 0.84751 0.0
O97 O 0.14586 0.29985 0.70098 0.0
O98 O 0.09125 0.22107 0.78154 0.0
O99 O 0.0489 0.2223 0.94516 0.0
C100 C 0.98047 0.2822 0.93988 0.0
O101 O 0.061 0.33436 0.68249 0.0
O102 O 0.07962 0.26209 0.63621 0.0
C103 C 0.07169 0.39294 0.86263 0.0
C104 C 0.073 0.28858 0.15791 0.0
C105 C 0.12574 0.2633 0.21741 0.0
C106 C 0.09602 0.29832 0.26597 0.0
C107 C 0.07004 0.3111 0.23586 0.0
C108 C 0.1004 0.25158 0.11288 0.0
C109 C 0.12654 0.239 0.14238 0.0
C110 C 0.05108 0.30698 0.11807 0.0
C111 C 0.16249 0.30383 0.75199 0.0
H112 H 1.00613 0.24331 0.44936 0.0
H113 H 0.06345 0.24965 0.48401 0.0
H114 H 0.98023 0.3315 0.73173 0.0
H115 H 0.9241 0.32711 0.69592 0.0
H116 H 0.09435 0.31738 0.3244 0.0
H117 H 0.04907 0.33993 0.27097 0.0
H118 H 0.10329 0.23417 0.05191 0.0
H119 H 0.14967 0.21264 0.10189 0.0
Tb120 Tb 0.56974 0.77722 0.76575 0.0
Tb121 Tb 0.56835 0.78693 0.95758 0.0
C122 C 0.5774 0.6874 0.86268 0.0
C123 C 0.52492 0.7766 0.61087 0.0
C124 C 0.46041 0.78466 0.56779 0.0
C125 C 0.5064 0.78097 0.49502 0.0
C126 C 0.53802 0.777 0.51631 0.0
C127 C 0.47921 0.78049 0.68411 0.0
C128 C 0.44742 0.78446 0.66289 0.0
C129 C 0.55914 0.76999 0.63054 0.0
O130 O 0.50459 0.74556 0.88822 0.0
O131 O 0.50184 0.80085 0.99205 0.0
O132 O 0.59114 0.86007 0.89523 0.0
O133 O 0.55304 0.85166 0.82504 0.0
O134 O 0.53297 0.76402 0.10163 0.0
O135 O 0.59421 0.81701 0.03492 0.0
O136 O 0.63949 0.7771 0.84059 0.0
O137 O 0.64161 0.79655 0.70806 0.0
O138 O 0.59398 0.71009 0.77988 0.0
O139 O 0.5543 0.70966 0.94202 0.0
C140 C 0.48081 0.77152 0.9616 0.0
O141 O 0.57951 0.80927 0.64425 0.0
O142 O 0.5484 0.73392 0.68987 0.0
C143 C 0.57213 0.87962 0.86185 0.0
C144 C 0.58471 0.75792 0.14073 0.0
C145 C 0.63944 0.70963 0.16997 0.0
C146 C 0.62666 0.75529 0.21035 0.0
C147 C 0.59949 0.77916 0.19584 0.0
C148 C 0.59462 0.71086 0.1059 0.0
C149 C 0.62142 0.68673 0.12112 0.0
C150 C 0.56471 0.78757 0.10903 0.0
C151 C 0.66243 0.78852 0.74787 0.0
H152 H 0.51799 0.78006 0.42118 0.0
H153 H 0.57286 0.77359 0.45839 0.0
H154 H 0.46802 0.7802 0.75778 0.0
H155 H 0.41268 0.78779 0.72126 0.0
H156 H 0.64019 0.77439 0.2475 0.0
H157 H 0.59228 0.81553 0.22291 0.0
H158 H 0.58356 0.69378 0.06294 0.0
H159 H 0.62981 0.65122 0.09064 0.0
H160 H 1.01686 0.46324 0.93257 0.0
H161 H 0.15154 0.43839 0.83413 0.0
H162 H 1.02492 0.53756 1.0082 0.0
H163 H 0.1595 0.51229 0.91275 0.0
H164 H 0.16327 0.67268 0.02393 0.0
H165 H 0.16515 0.6011 0.93167 0.0
H166 H 1.02221 0.55361 0.14761 0.0
H167 H 1.02059 0.62544 0.23782 0.0
C168 C 0.049 0.47481 0.92401 0.0
C169 C 0.08399 0.44554 0.87495 0.0
C170 C 0.05327 0.51687 0.9696 0.0
C171 C 0.0924 0.53063 0.96957 0.0
C172 C 0.12882 0.50319 0.91478 0.0
C173 C 0.12459 0.46109 0.86829 0.0
C174 C 0.13285 0.6458 0.05379 0.0
C175 C 0.09208 0.65429 0.14006 0.0
C176 C 0.13367 0.60494 0.99989 0.0
C177 C 0.09359 0.57167 0.03042 0.0
C178 C 0.05359 0.57882 0.11966 0.0
C179 C 0.05282 0.61955 0.17293 0.0
H180 H 0.53428 0.44747 0.21983 0.0
H181 H 0.67579 0.4496 0.99071 0.0
H182 H 0.53183 0.51944 0.14499 0.0
H183 H 0.67354 0.52043 0.91385 0.0
H184 H 0.65786 0.66963 0.82574 0.0
H185 H 0.66688 0.60404 0.90266 0.0
H186 H 0.52948 0.53446 1.01371 0.0
H187 H 0.52047 0.60107 0.93949 0.0
C188 C 0.56548 0.46481 0.15582 0.0
C189 C 0.60559 0.44364 0.11301 0.0
C190 C 0.56386 0.50532 0.11101 0.0
C191 C 0.6022 0.52549 0.02136 0.0
C192 C 0.64325 0.5065 0.98252 0.0
C193 C 0.64479 0.46611 0.02744 0.0
C194 C 0.63044 0.63899 0.86274 0.0
C195 C 0.58905 0.63963 0.87315 0.0
C196 C 0.63525 0.60164 0.90854 0.0
C197 C 0.59865 0.56389 0.96656 0.0
C198 C 0.55818 0.56326 0.97212 0.0
C199 C 0.55336 0.60074 0.92701 0.0
H200 H 0.63417 0.96194 0.7759 0.0
H201 H 0.49731 0.91184 1.0166 0.0
H202 H 0.63566 0.03769 0.85496 0.0
H203 H 0.49884 0.98705 0.09806 0.0
H204 H 0.51519 0.14963 0.19047 0.0
H205 H 0.50324 0.07602 0.11575 0.0
H206 H 0.64335 0.05586 0.98165 0.0
H207 H 0.65507 0.12958 0.054 0.0
C208 C 0.60352 0.96821 0.84396 0.0
C209 C 0.56514 0.93141 0.88832 0.0
C210 C 0.60473 1.01114 0.89089 0.0
C211 C 0.56785 1.0183 0.98474 0.0
C212 C 0.52798 0.98323 0.02615 0.0
C213 C 0.52675 0.94029 0.97867 0.0
C214 C 0.54275 0.12812 0.14828 0.0
C215 C 0.58579 0.14475 0.13031 0.0
C216 C 0.53617 0.08626 0.10402 0.0
C217 C 0.57261 0.06026 0.04014 0.0
C218 C 0.6147 0.07541 0.02766 0.0
C219 C 0.62124 0.11711 0.07123 0.0
H220 H 0.1697 0.93757 0.92724 0.0
H221 H 0.05244 0.96021 0.20755 0.0
H222 H 0.16106 1.00826 0.86295 0.0
H223 H 0.04457 0.03312 0.14361 0.0
H224 H 1.00875 0.12547 0.98996 0.0
H225 H 1.02061 0.05493 0.04973 0.0
H226 H 0.16623 0.0933 0.84546 0.0
H227 H 0.15371 0.16321 0.78407 0.0
C228 C 0.14252 0.95845 0.97602 0.0
C229 C 0.11172 0.94281 0.07301 0.0
C230 C 0.13764 0.99945 0.93874 0.0
C231 C 0.10172 1.02672 0.99697 0.0
C232 C 0.07215 1.01265 0.0954 0.0
C233 C 0.07707 0.97127 0.13291 0.0
C234 C 0.04326 0.11776 0.95552 0.0
C235 C 0.08018 0.14933 0.88029 0.0
C236 C 0.0502 0.07783 0.99145 0.0
C237 C 0.09449 0.06828 0.95439 0.0
C238 C 0.13149 0.09874 0.87604 0.0
C239 C 0.12441 0.13865 0.83951 0.0
H240 H 0.47413 0.83235 0.41262 0.0
H241 H 0.369 0.74481 0.6685 0.0
H242 H 0.41996 0.83708 0.37334 0.0
H243 H 0.31487 0.74917 0.62891 0.0
H244 H 0.21555 0.80381 0.58281 0.0
H245 H 0.2702 0.79879 0.62002 0.0
H246 H 0.3769 0.79596 0.31996 0.0
H247 H 0.32244 0.80374 0.28234 0.0
C248 C 0.43959 0.81361 0.46039 0.0
C249 C 0.42645 0.78817 0.54419 0.0
C250 C 0.40826 0.81627 0.43754 0.0
C251 C 0.36246 0.79355 0.49745 0.0
C252 C 0.34935 0.76807 0.58124 0.0
C253 C 0.38066 0.76552 0.60423 0.0
C254 C 0.25073 0.80279 0.5242 0.0
C255 C 0.26409 0.80474 0.42911 0.0
C256 C 0.28226 0.7991 0.54587 0.0
C257 C 0.32856 0.79689 0.47348 0.0
C258 C 0.34192 0.79824 0.37827 0.0
C259 C 0.3103 0.80206 0.35651 0.0
H260 H 0.21627 0.26788 0.79757 0.0
H261 H 0.22418 0.34523 0.57435 0.0
H262 H 0.29816 0.26194 0.68832 0.0
H263 H 0.30484 0.33991 0.46693 0.0
H264 H 0.43622 0.27817 0.25946 0.0
H265 H 0.35489 0.28186 0.375 0.0
H266 H 0.37547 0.30503 0.59888 0.0
H267 H 0.45619 0.3003 0.48443 0.0
C268 C 0.23554 0.28455 0.7262 0.0
C269 C 0.21334 0.3069 0.69514 0.0
C270 C 0.28254 0.28093 0.66303 0.0
C271 C 0.30843 0.29956 0.56732 0.0
C272 C 0.28629 0.32374 0.53851 0.0
C273 C 0.2398 0.32727 0.601 0.0
C274 C 0.42344 0.28372 0.33335 0.0
C275 C 0.45332 0.28906 0.36168 0.0
C276 C 0.37663 0.28625 0.39994 0.0
C277 C 0.35811 0.29419 0.4971 0.0
C278 C 0.38792 0.29846 0.52549 0.0
C279 C 0.43462 0.29605 0.45906 0.0
H280 H 0.97538 0.28614 0.39105 0.0
H281 H 0.86625 0.2833 0.69048 0.0
H282 H 0.92117 0.28833 0.35122 0.0
H283 H 0.81254 0.28827 0.65059 0.0
H284 H 0.71672 0.25132 0.55811 0.0
H285 H 0.77145 0.24628 0.59533 0.0
H286 H 0.87513 0.33695 0.3425 0.0
H287 H 0.82021 0.3414 0.30461 0.0
C288 C 0.93993 0.28593 0.44878 0.0
C289 C 0.92594 0.28479 0.54434 0.0
C290 C 0.90861 0.28791 0.42567 0.0
C291 C 0.86194 0.28881 0.49721 0.0
C292 C 0.84785 0.28714 0.59281 0.0
C293 C 0.87912 0.285 0.61589 0.0
C294 C 0.75102 0.27074 0.51069 0.0
C295 C 0.76348 0.29719 0.42851 0.0
C296 C 0.7827 0.26784 0.53225 0.0
C297 C 0.8282 0.29142 0.47269 0.0
C298 C 0.84081 0.31761 0.38997 0.0
C299 C 0.80909 0.32031 0.36814 0.0
H300 H 0.94804 0.82921 0.24774 0.0
H301 H 0.95563 0.77504 0.4692 0.0
H302 H 0.86612 0.82739 0.36149 0.0
H303 H 0.87347 0.77047 0.58206 0.0
H304 H 0.72632 0.80118 0.79084 0.0
H305 H 0.8093 0.807 0.68016 0.0
H306 H 0.79604 0.78094 0.44625 0.0
H307 H 0.71431 0.778 0.55552 0.0
C308 C 0.93222 0.81654 0.32064 0.0
C309 C 0.95893 0.80243 0.34861 0.0
C310 C 0.88475 0.81499 0.38646 0.0
C311 C 0.86196 0.79836 0.48252 0.0
C312 C 0.88898 0.78435 0.5101 0.0
C313 C 0.93652 0.78667 0.44462 0.0
C314 C 0.74127 0.79679 0.71571 0.0
C315 C 0.71326 0.78961 0.68267 0.0
C316 C 0.78914 0.79986 0.65162 0.0
C317 C 0.81054 0.79498 0.55248 0.0
C318 C 0.78198 0.78652 0.52063 0.0
C319 C 0.73451 0.78434 0.58414 0.0
H320 H 0.42537 0.69709 0.95496 0.0
H321 H 0.43026 0.84861 0.03219 0.0
H322 H 0.35794 0.70217 0.96018 0.0
H323 H 0.36036 0.85328 0.04253 0.0
H324 H 0.2689 0.86529 0.94485 0.0
H325 H 0.33707 0.85749 0.93804 0.0
H326 H 0.28032 0.70722 0.05158 0.0
H327 H 0.21356 0.71501 0.05469 0.0
C328 C 0.41106 0.73122 0.97616 0.0
C329 C 0.43329 0.77251 0.99301 0.0
C330 C 0.37216 0.73412 0.97919 0.0
C331 C 0.35374 0.77833 1.00035 0.0
C332 C 0.37419 0.8189 0.0236 0.0
C333 C 0.41368 0.81604 0.01983 0.0
C334 C 0.27222 0.82993 0.96388 0.0
C335 C 0.23677 0.79007 0.9963 0.0
C336 C 0.31068 0.82581 0.96258 0.0
C337 C 0.3142 0.78194 0.9956 0.0
C338 C 0.27944 0.74141 0.02416 0.0
C339 C 0.24131 0.74543 0.02429 0.0
H340 H 0.17423 0.33567 0.25269 0.0
H341 H 0.15859 0.17889 0.21425 0.0
H342 H 0.24647 0.33148 0.22933 0.0
H343 H 0.23211 0.17545 0.18715 0.0
H344 H 0.37416 0.2973 0.20264 0.0
H345 H 0.29203 0.29048 0.27949 0.0
H346 H 0.30773 0.2203 0.03364 0.0
H347 H 0.38977 0.22885 0.95486 0.0
C348 C 0.18519 0.29994 0.24304 0.0
C349 C 0.16118 0.25777 0.23293 0.0
C350 C 0.22676 0.29768 0.22926 0.0
C351 C 0.24503 0.25338 0.20444 0.0
C352 C 0.21883 0.21018 0.20469 0.0
C353 C 0.17695 0.21225 0.21982 0.0
C354 C 0.36019 0.28089 0.16448 0.0
C355 C 0.38861 0.26393 0.07215 0.0
C356 C 0.31319 0.27647 0.20911 0.0
C357 C 0.29376 0.25419 0.16292 0.0
C358 C 0.32191 0.23655 0.07156 0.0
C359 C 0.36888 0.24162 0.02638 0.0
H360 H 0.73424 0.23465 0.9492 0.0
H361 H 0.74851 0.38726 1.01288 0.0
H362 H 0.80495 0.22615 0.92968 0.0
H363 H 0.82068 0.38001 0.98857 0.0
H364 H 0.91288 0.33732 0.06555 0.0
H365 H 0.84461 0.34582 0.07275 0.0
H366 H 0.88279 0.24288 0.84856 0.0
H367 H 0.94794 0.23186 0.84656 0.0
C368 C 0.7539 0.26707 0.95381 0.0
C369 C 0.73625 0.31166 0.98165 0.0
C370 C 0.79431 0.26221 0.94379 0.0
C371 C 0.81824 0.30216 0.95986 0.0
C372 C 0.80253 0.34801 0.97883 0.0
C373 C 0.76178 0.35257 0.99039 0.0
C374 C 0.90598 0.31588 1.01945 0.0
C375 C 0.93596 0.28406 0.95562 0.0
C376 C 0.86731 0.3213 0.02218 0.0
C377 C 0.85834 0.29555 0.96008 0.0
C378 C 0.88788 0.26286 0.89839 0.0
C379 C 0.92567 0.25676 0.89706 0.0
H380 H 0.89976 0.62327 0.99486 0.0
H381 H 0.88176 0.76521 0.12082 0.0
H382 H 0.81909 0.60894 0.05222 0.0
H383 H 0.80177 0.7511 0.17831 0.0
H384 H 0.65509 0.71038 0.30916 0.0
H385 H 0.72585 0.69779 0.28709 0.0
H386 H 0.77843 0.6523 1.00132 0.0
H387 H 0.7088 0.66597 0.02174 0.0
C388 C 0.87829 0.65091 0.03607 0.0
C389 C 0.89676 0.69559 0.05248 0.0
C390 C 0.83234 0.64279 0.06879 0.0
C391 C 0.80418 0.67884 0.11994 0.0
C392 C 0.8224 0.72235 0.14029 0.0
C393 C 0.86826 0.73072 0.10645 0.0
C394 C 0.68144 0.69693 0.24217 0.0
C395 C 0.67651 0.6902 0.16665 0.0
C396 C 0.72182 0.68951 0.22978 0.0
C397 C 0.7578 0.67472 0.14206 0.0
C398 C 0.75117 0.66337 0.06995 0.0
C399 C 0.71103 0.67119 0.08193 0.0
loop_
_geom_bond_atom_site_label_1
_geom_bond_atom_site_label_2
_geom_bond_distance
_geom_bond_site_symmetry_2
_ccdc_geom_bond_type
Tb0 C9 2.770 . S
Tb0 O10 2.325 1_455 S
Tb0 O13 2.303 . S
Tb0 O17 2.322 . S
Tb0 O18 2.349 . S
Tb0 O21 2.415 . S
Tb0 O22 2.399 . S
Tb1 O11 2.322 1_455 S
Tb1 O12 2.349 . S
Tb1 O14 2.415 . S
Tb1 O15 2.399 . S
Tb1 O16 2.325 . S
Tb1 O19 2.303 . S
Tb1 C30 2.764 . S
C2 O18 1.261 . S
C2 O19 1.257 . S
C3 C6 1.358 . S
C3 C7 1.332 1_556 S
C3 C9 1.498 1_656 S
C4 C5 1.373 . S
C4 C8 1.308 . S
C5 C4 1.373 . S
C5 C6 1.429 . S
C5 H32 0.932 . S
C6 C3 1.358 . S
C6 C5 1.429 . S
C6 H33 0.930 . S
C7 C3 1.332 1_554 S
C7 C8 1.394 1_554 S
C7 H34 0.932 . S
C8 C4 1.308 . S
C8 C7 1.394 1_556 S
C8 H35 0.929 . S
C9 Tb0 2.770 . S
C9 C3 1.498 1_454 S
C9 O21 1.241 . S
C9 O22 1.266 . S
O10 Tb0 2.325 1_655 S
O10 C20 1.236 . S
O11 Tb1 2.322 1_655 S
O11 C20 1.257 . S
O12 Tb1 2.349 . S
O12 C23 1.261 . S
O13 Tb0 2.303 . S
O13 C23 1.257 . S
O14 Tb1 2.415 . S
O14 C30 1.239 . S
O15 Tb1 2.399 . S
O15 C30 1.263 . S
O16 Tb1 2.325 . S
O16 C31 1.236 . S
O17 Tb0 2.322 . S
O17 C31 1.257 . S
O18 Tb0 2.349 . S
O18 C2 1.261 . S
O19 Tb1 2.303 . S
O19 C2 1.257 . S
C20 O10 1.236 . S
C20 O11 1.257 . S
O21 Tb0 2.415 . S
O21 C9 1.241 . S
O22 Tb0 2.399 . S
O22 C9 1.266 . S
C23 O12 1.261 . S
C23 O13 1.257 . S
C24 C27 1.358 . S
C24 C28 1.332 . S
C24 C30 1.504 . S
C25 C26 1.373 . S
C25 C29 1.308 . S
C26 C25 1.373 . S
C26 C27 1.429 . S
C26 H36 0.932 . S
C27 C24 1.358 . S
C27 C26 1.429 . S
C27 H37 0.930 . S
C28 C24 1.332 . S
C28 C29 1.394 . S
C28 H38 0.932 . S
C29 C25 1.308 . S
C29 C28 1.394 . S
C29 H39 0.929 . S
C30 Tb1 2.764 . S
C30 O14 1.239 . S
C30 O15 1.263 . S
C30 C24 1.504 . S
C31 O16 1.236 . S
C31 O17 1.257 . S
H32 C5 0.932 . S
H33 C6 0.930 . S
H34 C7 0.932 . S
H35 C8 0.929 . S
H36 C26 0.932 . S
H37 C27 0.930 . S
H38 C28 0.932 . S
H39 C29 0.929 . S
Tb40 C49 2.764 . S
Tb40 O50 2.325 . S
Tb40 O53 2.303 . S
Tb40 O57 2.322 . S
Tb40 O58 2.349 . S
Tb40 O61 2.415 . S
Tb40 O62 2.399 . S
Tb41 O51 2.322 . S
Tb41 O52 2.349 . S
Tb41 O54 2.415 . S
Tb41 O55 2.399 . S
Tb41 O56 2.325 . S
Tb41 O59 2.303 . S
Tb41 C70 2.764 . S
C42 O58 1.261 . S
C42 O59 1.257 . S
C43 C46 1.358 . S
C43 C47 1.332 1_556 S
C43 C49 1.504 1_556 S
C44 C45 1.373 . S
C44 C48 1.308 . S
C45 C44 1.373 . S
C45 C46 1.429 . S
C45 H72 0.932 . S
C46 C43 1.358 . S
C46 C45 1.429 . S
C46 H73 0.930 . S
C47 C43 1.332 1_554 S
C47 C48 1.394 1_554 S
C47 H74 0.932 . S
C48 C44 1.308 . S
C48 C47 1.394 1_556 S
C48 H75 0.929 . S
C49 Tb40 2.764 . S
C49 C43 1.504 1_554 S
C49 O61 1.239 . S
C49 O62 1.263 . S
O50 Tb40 2.325 . S
O50 C60 1.236 . S
O51 Tb41 2.322 . S
O51 C60 1.257 . S
O52 Tb41 2.349 . S
O52 C63 1.261 . S
O53 Tb40 2.303 . S
O53 C63 1.257 . S
O54 Tb41 2.415 . S
O54 C70 1.239 . S
O55 Tb41 2.399 . S
O55 C70 1.263 . S
O56 Tb41 2.325 . S
O56 C71 1.236 . S
O57 Tb40 2.322 . S
O57 C71 1.257 . S
O58 Tb40 2.349 . S
O58 C42 1.261 . S
O59 Tb41 2.303 . S
O59 C42 1.257 . S
C60 O50 1.236 . S
C60 O51 1.257 . S
O61 Tb40 2.415 . S
O61 C49 1.239 . S
O62 Tb40 2.399 . S
O62 C49 1.263 . S
C63 O52 1.261 . S
C63 O53 1.257 . S
C64 C67 1.358 . S
C64 C68 1.332 . S
C64 C70 1.504 . S
C65 C66 1.373 . S
C65 C69 1.308 . S
C66 C65 1.373 . S
C66 C67 1.429 . S
C66 H76 0.932 . S
C67 C64 1.358 . S
C67 C66 1.429 . S
C67 H77 0.930 . S
C68 C64 1.332 . S
C68 C69 1.394 . S
C68 H78 0.932 . S
C69 C65 1.308 . S
C69 C68 1.394 . S
C69 H79 0.929 . S
C70 Tb41 2.764 . S
C70 O54 1.239 . S
C70 O55 1.263 . S
C70 C64 1.504 . S
C71 O56 1.236 . S
C71 O57 1.257 . S
H72 C45 0.932 . S
H73 C46 0.930 . S
H74 C47 0.932 . S
H75 C48 0.929 . S
H76 C66 0.932 . S
H77 C67 0.930 . S
H78 C68 0.932 . S
H79 C69 0.929 . S
Tb80 C89 2.764 1_455 S
Tb80 O90 2.325 1_455 S
Tb80 O93 2.303 . S
Tb80 O97 2.322 . S
Tb80 O98 2.349 . S
Tb80 O101 2.415 . S
Tb80 O102 2.418 . S
Tb81 O91 2.322 1_455 S
Tb81 O92 2.349 . S
Tb81 O94 2.415 . S
Tb81 O95 2.399 . S
Tb81 O96 2.325 . S
Tb81 O99 2.303 . S
Tb81 C110 2.764 . S
C82 O98 1.261 . S
C82 O99 1.257 . S
C83 C86 1.358 . S
C83 C87 1.332 . S
C83 C89 1.504 . S
C84 C85 1.373 . S
C84 C88 1.308 . S
C85 C84 1.373 . S
C85 C86 1.429 . S
C85 H112 0.932 . S
C86 C83 1.358 . S
C86 C85 1.429 . S
C86 H113 0.930 . S
C87 C83 1.332 . S
C87 C88 1.394 . S
C87 H114 0.932 . S
C88 C84 1.308 . S
C88 C87 1.394 . S
C88 H115 0.929 . S
C89 Tb80 2.764 1_655 S
C89 C83 1.504 . S
C89 O101 1.239 1_655 S
C89 O102 1.252 1_655 S
O90 Tb80 2.325 1_655 S
O90 C100 1.236 . S
O91 Tb81 2.322 1_655 S
O91 C100 1.257 . S
O92 Tb81 2.349 . S
O92 C103 1.261 . S
O93 Tb80 2.303 . S
O93 C103 1.257 . S
O94 Tb81 2.415 . S
O94 C110 1.239 . S
O95 Tb81 2.399 . S
O95 C110 1.263 . S
O96 Tb81 2.325 . S
O96 C111 1.236 . S
O97 Tb80 2.322 . S
O97 C111 1.257 . S
O98 Tb80 2.349 . S
O98 C82 1.261 . S
O99 Tb81 2.303 . S
O99 C82 1.257 . S
C100 O90 1.236 . S
C100 O91 1.257 . S
O101 Tb80 2.415 . S
O101 C89 1.239 1_455 S
O102 Tb80 2.418 . S
O102 C89 1.252 1_455 S
C103 O92 1.261 . S
C103 O93 1.257 . S
C104 C107 1.358 . S
C104 C108 1.332 1_554 S
C104 C110 1.504 1_554 S
C105 C106 1.373 . S
C105 C109 1.308 . S
C106 C105 1.373 . S
C106 C107 1.429 . S
C106 H116 0.932 . S
C107 C104 1.358 . S
C107 C106 1.429 . S
C107 H117 0.930 . S
C108 C104 1.332 1_556 S
C108 C109 1.394 1_556 S
C108 H118 0.932 . S
C109 C105 1.308 . S
C109 C108 1.394 1_554 S
C109 H119 0.929 . S
C110 Tb81 2.764 . S
C110 O94 1.239 . S
C110 O95 1.263 . S
C110 C104 1.504 1_556 S
C111 O96 1.236 . S
C111 O97 1.257 . S
H112 C85 0.932 . S
H113 C86 0.930 . S
H114 C87 0.932 . S
H115 C88 0.929 . S
H116 C106 0.932 . S
H117 C107 0.930 . S
H118 C108 0.932 . S
H119 C109 0.929 . S
Tb120 C129 2.764 . S
Tb120 O130 2.325 . S
Tb120 O133 2.303 . S
Tb120 O137 2.322 . S
Tb120 O138 2.349 . S
Tb120 O141 2.415 . S
Tb120 O142 2.399 . S
Tb121 O131 2.322 . S
Tb121 O132 2.349 . S
Tb121 O134 2.415 . S
Tb121 O135 2.399 . S
Tb121 O136 2.325 . S
Tb121 O139 2.303 . S
Tb121 C150 2.764 . S
C122 O138 1.261 . S
C122 O139 1.257 . S
C123 C126 1.358 . S
C123 C127 1.332 . S
C123 C129 1.504 . S
C124 C125 1.373 . S
C124 C128 1.308 . S
C125 C124 1.373 . S
C125 C126 1.429 . S
C125 H152 0.932 . S
C126 C123 1.358 . S
C126 C125 1.429 . S
C126 H153 0.930 . S
C127 C123 1.332 . S
C127 C128 1.394 . S
C127 H154 0.932 . S
C128 C124 1.308 . S
C128 C127 1.394 . S
C128 H155 0.929 . S
C129 Tb120 2.764 . S
C129 C123 1.504 . S
C129 O141 1.239 . S
C129 O142 1.263 . S
O130 Tb120 2.325 . S
O130 C140 1.236 . S
O131 Tb121 2.322 . S
O131 C140 1.257 . S
O132 Tb121 2.349 . S
O132 C143 1.261 . S
O133 Tb120 2.303 . S
O133 C143 1.257 . S
O134 Tb121 2.415 . S
O134 C150 1.239 . S
O135 Tb121 2.399 . S
O135 C150 1.263 . S
O136 Tb121 2.325 . S
O136 C151 1.236 . S
O137 Tb120 2.322 . S
O137 C151 1.257 . S
O138 Tb120 2.349 . S
O138 C122 1.261 . S
O139 Tb121 2.303 . S
O139 C122 1.257 . S
C140 O130 1.236 . S
C140 O131 1.257 . S
O141 Tb120 2.415 . S
O141 C129 1.239 . S
O142 Tb120 2.399 . S
O142 C129 1.263 . S
C143 O132 1.261 . S
C143 O133 1.257 . S
C144 C147 1.358 . S
C144 C148 1.332 1_554 S
C144 C150 1.504 1_554 S
C145 C146 1.373 . S
C145 C149 1.308 . S
C146 C145 1.373 . S
C146 C147 1.429 . S
C146 H156 0.932 . S
C147 C144 1.358 . S
C147 C146 1.429 . S
C147 H157 0.930 . S
C148 C144 1.332 1_556 S
C148 C149 1.394 1_556 S
C148 H158 0.932 . S
C149 C145 1.308 . S
C149 C148 1.394 1_554 S
C149 H159 0.929 . S
C150 Tb121 2.764 . S
C150 O134 1.239 . S
C150 O135 1.263 . S
C150 C144 1.504 1_556 S
C151 O136 1.236 . S
C151 O137 1.257 . S
H152 C125 0.932 . S
H153 C126 0.930 . S
H154 C127 0.932 . S
H155 C128 0.929 . S
H156 C146 0.932 . S
H157 C147 0.930 . S
H158 C148 0.932 . S
H159 C149 0.929 . S
H160 C168 0.950 1_655 S
H161 C173 0.950 . S
H162 C170 0.950 1_654 S
H163 C172 0.950 . S
H164 C174 0.950 . S
H165 C176 0.950 1_556 S
H166 C178 0.950 1_655 S
H167 C179 0.950 1_655 S
C168 H160 0.950 1_455 S
C168 C169 1.386 . S
C168 C170 1.391 . S
C169 C168 1.386 . S
C169 C173 1.393 . S
C170 H162 0.950 1_456 S
C170 C168 1.391 . S
C170 C171 1.400 . S
C171 C170 1.400 . S
C171 C172 1.398 . S
C171 C177 1.491 1_556 S
C172 H163 0.950 . S
C172 C171 1.398 . S
C172 C173 1.391 . S
C173 H161 0.950 . S
C173 C169 1.393 . S
C173 C172 1.391 . S
C174 H164 0.950 . S
C174 C175 1.386 . S
C174 C176 1.391 . S
C175 C174 1.386 . S
C175 C179 1.393 . S
C176 H165 0.950 1_554 S
C176 C174 1.391 . S
C176 C177 1.400 . S
C177 C171 1.491 1_554 S
C177 C176 1.400 . S
C177 C178 1.398 . S
C178 H166 0.950 1_455 S
C178 C177 1.398 . S
C178 C179 1.391 . S
C179 H167 0.950 1_455 S
C179 C175 1.393 . S
C179 C178 1.391 . S
H180 C188 0.950 . S
H181 C193 0.950 . S
H182 C190 0.950 . S
H183 C192 0.950 1_556 S
H184 C194 0.950 . S
H185 C196 0.950 . S
H186 C198 0.950 1_554 S
H187 C199 0.950 . S
C188 H180 0.950 . S
C188 C189 1.386 . S
C188 C190 1.391 . S
C189 C188 1.386 . S
C189 C193 1.393 . S
C190 H182 0.950 . S
C190 C188 1.391 . S
C190 C191 1.400 . S
C191 C190 1.400 . S
C191 C192 1.398 . S
C191 C197 1.491 1_554 S
C192 H183 0.950 1_554 S
C192 C191 1.398 . S
C192 C193 1.391 . S
C193 H181 0.950 . S
C193 C189 1.393 . S
C193 C192 1.391 . S
C194 H184 0.950 . S
C194 C195 1.386 . S
C194 C196 1.391 . S
C195 C194 1.386 . S
C195 C199 1.393 . S
C196 H185 0.950 . S
C196 C194 1.391 . S
C196 C197 1.400 . S
C197 C191 1.491 1_556 S
C197 C196 1.400 . S
C197 C198 1.398 . S
C198 H186 0.950 1_556 S
C198 C197 1.398 . S
C198 C199 1.391 . S
C199 H187 0.950 . S
C199 C195 1.393 . S
C199 C198 1.391 . S
H200 C208 0.950 . S
H201 C213 0.950 . S
H202 C210 0.950 . S
H203 C212 0.950 . S
H204 C214 0.950 . S
H205 C216 0.950 . S
H206 C218 0.950 . S
H207 C219 0.950 . S
C208 H200 0.950 . S
C208 C209 1.386 . S
C208 C210 1.391 . S
C209 C208 1.386 . S
C209 C213 1.393 . S
C210 H202 0.950 . S
C210 C208 1.391 . S
C210 C211 1.400 . S
C211 C210 1.400 . S
C211 C212 1.398 . S
C211 C217 1.491 1_566 S
C212 H203 0.950 . S
C212 C211 1.398 . S
C212 C213 1.391 . S
C213 H201 0.950 . S
C213 C209 1.393 . S
C213 C212 1.391 . S
C214 H204 0.950 . S
C214 C215 1.386 . S
C214 C216 1.391 . S
C215 C214 1.386 . S
C215 C219 1.393 . S
C216 H205 0.950 . S
C216 C214 1.391 . S
C216 C217 1.400 . S
C217 C211 1.491 1_544 S
C217 C216 1.400 . S
C217 C218 1.398 . S
C218 H206 0.950 . S
C218 C217 1.398 . S
C218 C219 1.391 . S
C219 H207 0.950 . S
C219 C215 1.393 . S
C219 C218 1.391 . S
H220 C228 0.950 . S
H221 C233 0.950 1_655 S
H222 C230 0.964 1_556 S
H223 C232 0.950 1_655 S
H224 C234 0.950 1_655 S
H225 C236 0.964 1_654 S
H226 C238 0.950 . S
H227 C239 0.950 . S
C228 H220 0.950 . S
C228 C229 1.386 . S
C228 C230 1.391 . S
C229 C228 1.386 . S
C229 C233 1.393 . S
C230 H222 0.964 1_554 S
C230 C228 1.391 . S
C230 C231 1.400 . S
C231 C230 1.400 . S
C231 C232 1.398 . S
C231 C237 1.491 1_564 S
C232 H223 0.950 1_455 S
C232 C231 1.398 . S
C232 C233 1.391 . S
C233 H221 0.950 1_455 S
C233 C229 1.393 . S
C233 C232 1.391 . S
C234 H224 0.950 1_455 S
C234 C235 1.386 . S
C234 C236 1.391 . S
C235 C234 1.386 . S
C235 C239 1.393 . S
C236 H225 0.964 1_456 S
C236 C234 1.391 . S
C236 C237 1.400 . S
C237 C231 1.491 1_546 S
C237 C236 1.400 . S
C237 C238 1.398 . S
C238 H226 0.950 . S
C238 C237 1.398 . S
C238 C239 1.391 . S
C239 H227 0.950 . S
C239 C235 1.393 . S
C239 C238 1.391 . S
H240 C248 0.950 . S
H241 C253 0.950 . S
H242 C250 0.950 . S
H243 C252 0.950 . S
H244 C254 0.950 . S
H245 C256 0.950 . S
H246 C258 0.950 . S
H247 C259 0.950 . S
C248 H240 0.950 . S
C248 C249 1.386 . S
C248 C250 1.391 . S
C249 C248 1.386 . S
C249 C253 1.393 . S
C250 H242 0.950 . S
C250 C248 1.391 . S
C250 C251 1.400 . S
C251 C250 1.400 . S
C251 C252 1.398 . S
C251 C257 1.491 . S
C252 H243 0.950 . S
C252 C251 1.398 . S
C252 C253 1.391 . S
C253 H241 0.950 . S
C253 C249 1.393 . S
C253 C252 1.391 . S
C254 H244 0.950 . S
C254 C255 1.386 . S
C254 C256 1.391 . S
C255 C254 1.386 . S
C255 C259 1.393 . S
C256 H245 0.950 . S
C256 C254 1.391 . S
C256 C257 1.400 . S
C257 C251 1.491 . S
C257 C256 1.400 . S
C257 C258 1.398 . S
C258 H246 0.950 . S
C258 C257 1.398 . S
C258 C259 1.391 . S
C259 H247 0.950 . S
C259 C255 1.393 . S
C259 C258 1.391 . S
H260 C268 0.950 . S
H261 C273 0.950 . S
H262 C270 0.950 . S
H263 C272 0.950 . S
H264 C274 0.950 . S
H265 C276 0.950 . S
H266 C278 0.950 . S
H267 C279 0.950 . S
C268 H260 0.950 . S
C268 C269 1.386 . S
C268 C270 1.391 . S
C269 C268 1.386 . S
C269 C273 1.393 . S
C270 H262 0.950 . S
C270 C268 1.391 . S
C270 C271 1.400 . S
C271 C270 1.400 . S
C271 C272 1.398 . S
C271 C277 1.491 . S
C272 H263 0.950 . S
C272 C271 1.398 . S
C272 C273 1.391 . S
C273 H261 0.950 . S
C273 C269 1.393 . S
C273 C272 1.391 . S
C274 H264 0.950 . S
C274 C275 1.386 . S
C274 C276 1.391 . S
C275 C274 1.386 . S
C275 C279 1.393 . S
C276 H265 0.950 . S
C276 C274 1.391 . S
C276 C277 1.400 . S
C277 C271 1.491 . S
C277 C276 1.400 . S
C277 C278 1.398 . S
C278 H266 0.950 . S
C278 C277 1.398 . S
C278 C279 1.391 . S
C279 H267 0.950 . S
C279 C275 1.393 . S
C279 C278 1.391 . S
H280 C288 0.950 . S
H281 C293 0.950 . S
H282 C290 0.950 . S
H283 C292 0.950 . S
H284 C294 0.950 . S
H285 C296 0.950 . S
H286 C298 0.950 . S
H287 C299 0.950 . S
C288 H280 0.950 . S
C288 C289 1.386 . S
C288 C290 1.391 . S
C289 C288 1.386 . S
C289 C293 1.393 . S
C290 H282 0.950 . S
C290 C288 1.391 . S
C290 C291 1.400 . S
C291 C290 1.400 . S
C291 C292 1.398 . S
C291 C297 1.491 . S
C292 H283 0.950 . S
C292 C291 1.398 . S
C292 C293 1.391 . S
C293 H281 0.950 . S
C293 C289 1.393 . S
C293 C292 1.391 . S
C294 H284 0.950 . S
C294 C295 1.386 . S
C294 C296 1.391 . S
C295 C294 1.386 . S
C295 C299 1.393 . S
C296 H285 0.950 . S
C296 C294 1.391 . S
C296 C297 1.400 . S
C297 C291 1.491 . S
C297 C296 1.400 . S
C297 C298 1.398 . S
C298 H286 0.950 . S
C298 C297 1.398 . S
C298 C299 1.391 . S
C299 H287 0.950 . S
C299 C295 1.393 . S
C299 C298 1.391 . S
H300 C308 0.950 . S
H301 C313 0.950 . S
H302 C310 0.950 . S
H303 C312 0.950 . S
H304 C314 0.950 . S
H305 C316 0.950 . S
H306 C318 0.950 . S
H307 C319 0.950 . S
C308 H300 0.950 . S
C308 C309 1.386 . S
C308 C310 1.391 . S
C309 C308 1.386 . S
C309 C313 1.393 . S
C310 H302 0.950 . S
C310 C308 1.391 . S
C310 C311 1.400 . S
C311 C310 1.400 . S
C311 C312 1.398 . S
C311 C317 1.491 . S
C312 H303 0.950 . S
C312 C311 1.398 . S
C312 C313 1.391 . S
C313 H301 0.950 . S
C313 C309 1.393 . S
C313 C312 1.391 . S
C314 H304 0.950 . S
C314 C315 1.386 . S
C314 C316 1.391 . S
C315 C314 1.386 . S
C315 C319 1.393 . S
C316 H305 0.950 . S
C316 C314 1.391 . S
C316 C317 1.400 . S
C317 C311 1.491 . S
C317 C316 1.400 . S
C317 C318 1.398 . S
C318 H306 0.950 . S
C318 C317 1.398 . S
C318 C319 1.391 . S
C319 H307 0.950 . S
C319 C315 1.393 . S
C319 C318 1.391 . S
H320 C328 0.950 . S
H321 C333 0.950 . S
H322 C330 0.950 1_554 S
H323 C332 0.950 . S
H324 C334 0.950 . S
H325 C336 0.950 1_556 S
H326 C338 0.950 . S
H327 C339 0.950 . S
C328 H320 0.950 . S
C328 C329 1.386 . S
C328 C330 1.391 . S
C329 C328 1.386 . S
C329 C333 1.393 . S
C330 H322 0.950 1_556 S
C330 C328 1.391 . S
C330 C331 1.400 . S
C331 C330 1.400 . S
C331 C332 1.398 . S
C331 C337 1.491 1_556 S
C332 H323 0.950 . S
C332 C331 1.398 . S
C332 C333 1.391 . S
C333 H321 0.950 . S
C333 C329 1.393 . S
C333 C332 1.391 . S
C334 H324 0.950 . S
C334 C335 1.386 . S
C334 C336 1.391 . S
C335 C334 1.386 . S
C335 C339 1.393 . S
C336 H325 0.950 1_554 S
C336 C334 1.391 . S
C336 C337 1.400 . S
C337 C331 1.491 1_554 S
C337 C336 1.400 . S
C337 C338 1.398 . S
C338 H326 0.950 . S
C338 C337 1.398 . S
C338 C339 1.391 . S
C339 H327 0.950 . S
C339 C335 1.393 . S
C339 C338 1.391 . S
H340 C348 0.950 1_556 S
H341 C353 0.950 . S
H342 C350 0.950 . S
H343 C352 0.950 . S
H344 C354 0.950 1_554 S
H345 C356 0.950 . S
H346 C358 0.950 . S
H347 C359 0.950 . S
C348 H340 0.950 1_554 S
C348 C349 1.386 . S
C348 C350 1.391 1_554 S
C349 C348 1.386 . S
C349 C353 1.393 . S
C350 H342 0.950 . S
C350 C348 1.391 1_556 S
C350 C351 1.400 1_556 S
C351 C350 1.400 1_554 S
C351 C352 1.398 . S
C351 C357 1.491 1_554 S
C352 H343 0.950 . S
C352 C351 1.398 . S
C352 C353 1.391 . S
C353 H341 0.950 . S
C353 C349 1.393 . S
C353 C352 1.391 . S
C354 H344 0.950 1_556 S
C354 C355 1.386 . S
C354 C356 1.391 1_556 S
C355 C354 1.386 . S
C355 C359 1.393 . S
C356 H345 0.950 . S
C356 C354 1.391 1_554 S
C356 C357 1.400 1_554 S
C357 C351 1.491 1_556 S
C357 C356 1.400 1_556 S
C357 C358 1.398 . S
C358 H346 0.950 . S
C358 C357 1.398 . S
C358 C359 1.391 . S
C359 H347 0.950 . S
C359 C355 1.393 . S
C359 C358 1.391 . S
H360 C368 0.950 . S
H361 C373 0.950 . S
H362 C370 0.950 . S
H363 C372 0.950 . S
H364 C374 0.950 . S
H365 C376 0.950 . S
H366 C378 0.950 . S
H367 C379 0.950 . S
C368 H360 0.950 . S
C368 C369 1.386 1_556 S
C368 C370 1.391 . S
C369 C368 1.386 1_554 S
C369 C373 1.393 . S
C370 H362 0.950 . S
C370 C368 1.391 . S
C370 C371 1.400 1_556 S
C371 C370 1.400 1_554 S
C371 C372 1.398 . S
C371 C377 1.491 1_554 S
C372 H363 0.950 . S
C372 C371 1.398 . S
C372 C373 1.391 . S
C373 H361 0.950 . S
C373 C369 1.393 . S
C373 C372 1.391 . S
C374 H364 0.950 . S
C374 C375 1.386 1_554 S
C374 C376 1.391 . S
C375 C374 1.386 1_556 S
C375 C379 1.393 . S
C376 H365 0.950 . S
C376 C374 1.391 . S
C376 C377 1.400 1_554 S
C377 C371 1.491 1_556 S
C377 C376 1.400 1_556 S
C377 C378 1.398 . S
C378 H366 0.950 . S
C378 C377 1.398 . S
C378 C379 1.391 . S
C379 H367 0.950 . S
C379 C375 1.393 . S
C379 C378 1.391 . S
H380 C388 0.950 . S
H381 C393 0.950 1_554 S
H382 C390 0.950 . S
H383 C392 0.950 . S
H384 C394 0.950 . S
H385 C396 0.950 . S
H386 C398 0.950 . S
H387 C399 0.950 1_556 S
C388 H380 0.950 . S
C388 C389 1.386 . S
C388 C390 1.391 . S
C389 C388 1.386 . S
C389 C393 1.393 . S
C390 H382 0.950 . S
C390 C388 1.391 . S
C390 C391 1.400 . S
C391 C390 1.400 . S
C391 C392 1.398 1_556 S
C391 C397 1.491 1_556 S
C392 H383 0.950 . S
C392 C391 1.398 1_554 S
C392 C393 1.391 1_554 S
C393 H381 0.950 1_556 S
C393 C389 1.393 . S
C393 C392 1.391 1_556 S
C394 H384 0.950 . S
C394 C395 1.386 . S
C394 C396 1.391 . S
C395 C394 1.386 . S
C395 C399 1.393 . S
C396 H385 0.950 . S
C396 C394 1.391 . S
C396 C397 1.400 . S
C397 C391 1.491 1_554 S
C397 C396 1.400 . S
C397 C398 1.398 1_554 S
C398 H386 0.950 . S
C398 C397 1.398 1_556 S
C398 C399 1.391 1_556 S
C399 H387 0.950 1_554 S
C399 C395 1.393 . S
C399 C398 1.391 1_554 S
C169 C103 1.900 . S
C175 C2 1.900 . S
C189 C63 2.533 . S
C195 C122 2.533 . S
C209 C143 1.932 . S
C215 C42 1.932 . S
C229 C23 2.526 . S
C235 C82 2.526 . S
C249 C124 1.590 . S
C255 C25 1.590 . S
C269 C111 1.586 . S
C275 C60 1.586 . S
C289 C84 1.591 . S
C295 C65 1.591 . S
C309 C20 1.580 . S
C315 C151 1.580 . S
C329 C140 1.920 . S
C335 C31 1.920 . S
C349 C105 0.632 . S
C355 C44 0.632 . S
C369 C71 1.913 . S
C375 C100 1.913 . S
C389 C4 0.575 . S
C395 C145 0.575 . S
