# Generated by pormake.
# Topology ulg, (4)-cn, num edge types: 1
# Building blocks:
#     Node 0, Type 0, BuildingBlock: NAHDIM_clean_sbu_0, # of connection points: 4
#     Node 1, Type 0, BuildingBlock: NAHDIM_clean_sbu_0, # of connection points: 4
#     Node 2, Type 0, BuildingBlock: NAHDIM_clean_sbu_0, # of connection points: 4
#     Node 3, Type 0, BuildingBlock: NAHDIM_clean_sbu_0, # of connection points: 4
#     Node 4, Type 0, BuildingBlock: NAHDIM_clean_sbu_0, # of connection points: 4
#     Node 5, Type 0, BuildingBlock: NAHDIM_clean_sbu_0, # of connection points: 4
#     Node 6, Type 0, BuildingBlock: NAHDIM_clean_sbu_0, # of connection points: 4
#     Node 7, Type 0, BuildingBlock: NAHDIM_clean_sbu_0, # of connection points: 4
#     Node 8, Type 0, BuildingBlock: NAHDIM_clean_sbu_0, # of connection points: 4
#     Node 9, Type 0, BuildingBlock: NAHDIM_clean_sbu_0, # of connection points: 4
#     Node 10, Type 0, BuildingBlock: NAHDIM_clean_sbu_0, # of connection points: 4
#     Node 11, Type 0, BuildingBlock: NAHDIM_clean_sbu_0, # of connection points: 4
#     Node 12, Type 0, BuildingBlock: NAHDIM_clean_sbu_0, # of connection points: 4
#     Node 13, Type 0, BuildingBlock: NAHDIM_clean_sbu_0, # of connection points: 4
#     Node 14, Type 0, BuildingBlock: NAHDIM_clean_sbu_0, # of connection points: 4
#     Node 15, Type 0, BuildingBlock: NAHDIM_clean_sbu_0, # of connection points: 4
#     Node 16, Type 0, BuildingBlock: NAHDIM_clean_sbu_0, # of connection points: 4
#     Node 17, Type 0, BuildingBlock: NAHDIM_clean_sbu_0, # of connection points: 4
#     Node 18, Type 0, BuildingBlock: NAHDIM_clean_sbu_0, # of connection points: 4
#     Node 19, Type 0, BuildingBlock: NAHDIM_clean_sbu_0, # of connection points: 4
#     Node 20, Type 0, BuildingBlock: NAHDIM_clean_sbu_0, # of connection points: 4
#     Node 21, Type 0, BuildingBlock: NAHDIM_clean_sbu_0, # of connection points: 4
#     Node 22, Type 0, BuildingBlock: NAHDIM_clean_sbu_0, # of connection points: 4
#     Node 23, Type 0, BuildingBlock: NAHDIM_clean_sbu_0, # of connection points: 4
#     Node 24, Type 0, BuildingBlock: NAHDIM_clean_sbu_0, # of connection points: 4
#     Node 25, Type 0, BuildingBlock: NAHDIM_clean_sbu_0, # of connection points: 4
#     Node 26, Type 0, BuildingBlock: NAHDIM_clean_sbu_0, # of connection points: 4
#     Node 27, Type 0, BuildingBlock: NAHDIM_clean_sbu_0, # of connection points: 4
#     Node 28, Type 0, BuildingBlock: NAHDIM_clean_sbu_0, # of connection points: 4
#     Node 29, Type 0, BuildingBlock: NAHDIM_clean_sbu_0, # of connection points: 4
#     Node 30, Type 0, BuildingBlock: NAHDIM_clean_sbu_0, # of connection points: 4
#     Node 31, Type 0, BuildingBlock: NAHDIM_clean_sbu_0, # of connection points: 4
#     Node 32, Type 0, BuildingBlock: NAHDIM_clean_sbu_0, # of connection points: 4
#     Node 33, Type 0, BuildingBlock: NAHDIM_clean_sbu_0, # of connection points: 4
#     Node 34, Type 0, BuildingBlock: NAHDIM_clean_sbu_0, # of connection points: 4
#     Node 35, Type 0, BuildingBlock: NAHDIM_clean_sbu_0, # of connection points: 4
#     Node 36, Type 0, BuildingBlock: NAHDIM_clean_sbu_0, # of connection points: 4
#     Node 37, Type 0, BuildingBlock: NAHDIM_clean_sbu_0, # of connection points: 4
#     Node 38, Type 0, BuildingBlock: NAHDIM_clean_sbu_0, # of connection points: 4
#     Node 39, Type 0, BuildingBlock: NAHDIM_clean_sbu_0, # of connection points: 4
#     Node 40, Type 0, BuildingBlock: NAHDIM_clean_sbu_0, # of connection points: 4
#     Node 41, Type 0, BuildingBlock: NAHDIM_clean_sbu_0, # of connection points: 4
#     Node 42, Type 0, BuildingBlock: NAHDIM_clean_sbu_0, # of connection points: 4
#     Node 43, Type 0, BuildingBlock: NAHDIM_clean_sbu_0, # of connection points: 4
#     Node 44, Type 0, BuildingBlock: NAHDIM_clean_sbu_0, # of connection points: 4
#     Node 45, Type 0, BuildingBlock: NAHDIM_clean_sbu_0, # of connection points: 4
#     Node 46, Type 0, BuildingBlock: NAHDIM_clean_sbu_0, # of connection points: 4
#     Node 47, Type 0, BuildingBlock: NAHDIM_clean_sbu_0, # of connection points: 4
#     Node 48, Type 0, BuildingBlock: NAHDIM_clean_sbu_0, # of connection points: 4
#     Node 49, Type 0, BuildingBlock: NAHDIM_clean_sbu_0, # of connection points: 4
#     Node 50, Type 0, BuildingBlock: NAHDIM_clean_sbu_0, # of connection points: 4
#     Node 51, Type 0, BuildingBlock: NAHDIM_clean_sbu_0, # of connection points: 4
#     Node 52, Type 0, BuildingBlock: NAHDIM_clean_sbu_0, # of connection points: 4
#     Node 53, Type 0, BuildingBlock: NAHDIM_clean_sbu_0, # of connection points: 4
#     Node 54, Type 0, BuildingBlock: NAHDIM_clean_sbu_0, # of connection points: 4
#     Node 55, Type 0, BuildingBlock: NAHDIM_clean_sbu_0, # of connection points: 4
#     Node 56, Type 0, BuildingBlock: NAHDIM_clean_sbu_0, # of connection points: 4
#     Node 57, Type 0, BuildingBlock: NAHDIM_clean_sbu_0, # of connection points: 4
#     Node 58, Type 0, BuildingBlock: NAHDIM_clean_sbu_0, # of connection points: 4
#     Node 59, Type 0, BuildingBlock: NAHDIM_clean_sbu_0, # of connection points: 4
#     Node 60, Type 0, BuildingBlock: NAHDIM_clean_sbu_0, # of connection points: 4
#     Node 61, Type 0, BuildingBlock: NAHDIM_clean_sbu_0, # of connection points: 4
#     Node 62, Type 0, BuildingBlock: NAHDIM_clean_sbu_0, # of connection points: 4
#     Node 63, Type 0, BuildingBlock: NAHDIM_clean_sbu_0, # of connection points: 4
#     Node 64, Type 0, BuildingBlock: NAHDIM_clean_sbu_0, # of connection points: 4
#     Node 65, Type 0, BuildingBlock: NAHDIM_clean_sbu_0, # of connection points: 4
#     Node 66, Type 0, BuildingBlock: NAHDIM_clean_sbu_0, # of connection points: 4
#     Node 67, Type 0, BuildingBlock: NAHDIM_clean_sbu_0, # of connection points: 4
#     Node 68, Type 0, BuildingBlock: NAHDIM_clean_sbu_0, # of connection points: 4
#     Node 69, Type 0, BuildingBlock: NAHDIM_clean_sbu_0, # of connection points: 4
#     Node 70, Type 0, BuildingBlock: NAHDIM_clean_sbu_0, # of connection points: 4
#     Node 71, Type 0, BuildingBlock: NAHDIM_clean_sbu_0, # of connection points: 4
#     Node 72, Type 0, BuildingBlock: NAHDIM_clean_sbu_0, # of connection points: 4
#     Node 73, Type 0, BuildingBlock: NAHDIM_clean_sbu_0, # of connection points: 4
#     Node 74, Type 0, BuildingBlock: NAHDIM_clean_sbu_0, # of connection points: 4
#     Node 75, Type 0, BuildingBlock: NAHDIM_clean_sbu_0, # of connection points: 4
#     Node 76, Type 0, BuildingBlock: NAHDIM_clean_sbu_0, # of connection points: 4
#     Node 77, Type 0, BuildingBlock: NAHDIM_clean_sbu_0, # of connection points: 4
#     Node 78, Type 0, BuildingBlock: NAHDIM_clean_sbu_0, # of connection points: 4
#     Node 79, Type 0, BuildingBlock: NAHDIM_clean_sbu_0, # of connection points: 4
#     Node 80, Type 0, BuildingBlock: NAHDIM_clean_sbu_0, # of connection points: 4
#     Node 81, Type 0, BuildingBlock: NAHDIM_clean_sbu_0, # of connection points: 4
#     Node 82, Type 0, BuildingBlock: NAHDIM_clean_sbu_0, # of connection points: 4
#     Node 83, Type 0, BuildingBlock: NAHDIM_clean_sbu_0, # of connection points: 4
#     Node 84, Type 0, BuildingBlock: NAHDIM_clean_sbu_0, # of connection points: 4
#     Node 85, Type 0, BuildingBlock: NAHDIM_clean_sbu_0, # of connection points: 4
#     Node 86, Type 0, BuildingBlock: NAHDIM_clean_sbu_0, # of connection points: 4
#     Node 87, Type 0, BuildingBlock: NAHDIM_clean_sbu_0, # of connection points: 4
#     Node 88, Type 0, BuildingBlock: NAHDIM_clean_sbu_0, # of connection points: 4
#     Node 89, Type 0, BuildingBlock: NAHDIM_clean_sbu_0, # of connection points: 4
#     Node 90, Type 0, BuildingBlock: NAHDIM_clean_sbu_0, # of connection points: 4
#     Node 91, Type 0, BuildingBlock: NAHDIM_clean_sbu_0, # of connection points: 4
#     Node 92, Type 0, BuildingBlock: NAHDIM_clean_sbu_0, # of connection points: 4
#     Node 93, Type 0, BuildingBlock: NAHDIM_clean_sbu_0, # of connection points: 4
#     Node 94, Type 0, BuildingBlock: NAHDIM_clean_sbu_0, # of connection points: 4
#     Node 95, Type 0, BuildingBlock: NAHDIM_clean_sbu_0, # of connection points: 4
#     Edge 96, Type (0, 0), None
#     Edge 97, Type (0, 0), None
#     Edge 98, Type (0, 0), None
#     Edge 99, Type (0, 0), None
#     Edge 100, Type (0, 0), None
#     Edge 101, Type (0, 0), None
#     Edge 102, Type (0, 0), None
#     Edge 103, Type (0, 0), None
#     Edge 104, Type (0, 0), None
#     Edge 105, Type (0, 0), None
#     Edge 106, Type (0, 0), None
#     Edge 107, Type (0, 0), None
#     Edge 108, Type (0, 0), None
#     Edge 109, Type (0, 0), None
#     Edge 110, Type (0, 0), None
#     Edge 111, Type (0, 0), None
#     Edge 112, Type (0, 0), None
#     Edge 113, Type (0, 0), None
#     Edge 114, Type (0, 0), None
#     Edge 115, Type (0, 0), None
#     Edge 116, Type (0, 0), None
#     Edge 117, Type (0, 0), None
#     Edge 118, Type (0, 0), None
#     Edge 119, Type (0, 0), None
#     Edge 120, Type (0, 0), None
#     Edge 121, Type (0, 0), None
#     Edge 122, Type (0, 0), None
#     Edge 123, Type (0, 0), None
#     Edge 124, Type (0, 0), None
#     Edge 125, Type (0, 0), None
#     Edge 126, Type (0, 0), None
#     Edge 127, Type (0, 0), None
#     Edge 128, Type (0, 0), None
#     Edge 129, Type (0, 0), None
#     Edge 130, Type (0, 0), None
#     Edge 131, Type (0, 0), None
#     Edge 132, Type (0, 0), None
#     Edge 133, Type (0, 0), None
#     Edge 134, Type (0, 0), None
#     Edge 135, Type (0, 0), None
#     Edge 136, Type (0, 0), None
#     Edge 137, Type (0, 0), None
#     Edge 138, Type (0, 0), None
#     Edge 139, Type (0, 0), None
#     Edge 140, Type (0, 0), None
#     Edge 141, Type (0, 0), None
#     Edge 142, Type (0, 0), None
#     Edge 143, Type (0, 0), None
#     Edge 144, Type (0, 0), None
#     Edge 145, Type (0, 0), None
#     Edge 146, Type (0, 0), None
#     Edge 147, Type (0, 0), None
#     Edge 148, Type (0, 0), None
#     Edge 149, Type (0, 0), None
#     Edge 150, Type (0, 0), None
#     Edge 151, Type (0, 0), None
#     Edge 152, Type (0, 0), None
#     Edge 153, Type (0, 0), None
#     Edge 154, Type (0, 0), None
#     Edge 155, Type (0, 0), None
#     Edge 156, Type (0, 0), None
#     Edge 157, Type (0, 0), None
#     Edge 158, Type (0, 0), None
#     Edge 159, Type (0, 0), None
#     Edge 160, Type (0, 0), None
#     Edge 161, Type (0, 0), None
#     Edge 162, Type (0, 0), None
#     Edge 163, Type (0, 0), None
#     Edge 164, Type (0, 0), None
#     Edge 165, Type (0, 0), None
#     Edge 166, Type (0, 0), None
#     Edge 167, Type (0, 0), None
#     Edge 168, Type (0, 0), None
#     Edge 169, Type (0, 0), None
#     Edge 170, Type (0, 0), None
#     Edge 171, Type (0, 0), None
#     Edge 172, Type (0, 0), None
#     Edge 173, Type (0, 0), None
#     Edge 174, Type (0, 0), None
#     Edge 175, Type (0, 0), None
#     Edge 176, Type (0, 0), None
#     Edge 177, Type (0, 0), None
#     Edge 178, Type (0, 0), None
#     Edge 179, Type (0, 0), None
#     Edge 180, Type (0, 0), None
#     Edge 181, Type (0, 0), None
#     Edge 182, Type (0, 0), None
#     Edge 183, Type (0, 0), None
#     Edge 184, Type (0, 0), None
#     Edge 185, Type (0, 0), None
#     Edge 186, Type (0, 0), None
#     Edge 187, Type (0, 0), None
#     Edge 188, Type (0, 0), None
#     Edge 189, Type (0, 0), None
#     Edge 190, Type (0, 0), None
#     Edge 191, Type (0, 0), None
#     Edge 192, Type (0, 0), None
#     Edge 193, Type (0, 0), None
#     Edge 194, Type (0, 0), None
#     Edge 195, Type (0, 0), None
#     Edge 196, Type (0, 0), None
#     Edge 197, Type (0, 0), None
#     Edge 198, Type (0, 0), None
#     Edge 199, Type (0, 0), None
#     Edge 200, Type (0, 0), None
#     Edge 201, Type (0, 0), None
#     Edge 202, Type (0, 0), None
#     Edge 203, Type (0, 0), None
#     Edge 204, Type (0, 0), None
#     Edge 205, Type (0, 0), None
#     Edge 206, Type (0, 0), None
#     Edge 207, Type (0, 0), None
#     Edge 208, Type (0, 0), None
#     Edge 209, Type (0, 0), None
#     Edge 210, Type (0, 0), None
#     Edge 211, Type (0, 0), None
#     Edge 212, Type (0, 0), None
#     Edge 213, Type (0, 0), None
#     Edge 214, Type (0, 0), None
#     Edge 215, Type (0, 0), None
#     Edge 216, Type (0, 0), None
#     Edge 217, Type (0, 0), None
#     Edge 218, Type (0, 0), None
#     Edge 219, Type (0, 0), None
#     Edge 220, Type (0, 0), None
#     Edge 221, Type (0, 0), None
#     Edge 222, Type (0, 0), None
#     Edge 223, Type (0, 0), None
#     Edge 224, Type (0, 0), None
#     Edge 225, Type (0, 0), None
#     Edge 226, Type (0, 0), None
#     Edge 227, Type (0, 0), None
#     Edge 228, Type (0, 0), None
#     Edge 229, Type (0, 0), None
#     Edge 230, Type (0, 0), None
#     Edge 231, Type (0, 0), None
#     Edge 232, Type (0, 0), None
#     Edge 233, Type (0, 0), None
#     Edge 234, Type (0, 0), None
#     Edge 235, Type (0, 0), None
#     Edge 236, Type (0, 0), None
#     Edge 237, Type (0, 0), None
#     Edge 238, Type (0, 0), None
#     Edge 239, Type (0, 0), None
#     Edge 240, Type (0, 0), None
#     Edge 241, Type (0, 0), None
#     Edge 242, Type (0, 0), None
#     Edge 243, Type (0, 0), None
#     Edge 244, Type (0, 0), None
#     Edge 245, Type (0, 0), None
#     Edge 246, Type (0, 0), None
#     Edge 247, Type (0, 0), None
#     Edge 248, Type (0, 0), None
#     Edge 249, Type (0, 0), None
#     Edge 250, Type (0, 0), None
#     Edge 251, Type (0, 0), None
#     Edge 252, Type (0, 0), None
#     Edge 253, Type (0, 0), None
#     Edge 254, Type (0, 0), None
#     Edge 255, Type (0, 0), None
#     Edge 256, Type (0, 0), None
#     Edge 257, Type (0, 0), None
#     Edge 258, Type (0, 0), None
#     Edge 259, Type (0, 0), None
#     Edge 260, Type (0, 0), None
#     Edge 261, Type (0, 0), None
#     Edge 262, Type (0, 0), None
#     Edge 263, Type (0, 0), None
#     Edge 264, Type (0, 0), None
#     Edge 265, Type (0, 0), None
#     Edge 266, Type (0, 0), None
#     Edge 267, Type (0, 0), None
#     Edge 268, Type (0, 0), None
#     Edge 269, Type (0, 0), None
#     Edge 270, Type (0, 0), None
#     Edge 271, Type (0, 0), None
#     Edge 272, Type (0, 0), None
#     Edge 273, Type (0, 0), None
#     Edge 274, Type (0, 0), None
#     Edge 275, Type (0, 0), None
#     Edge 276, Type (0, 0), None
#     Edge 277, Type (0, 0), None
#     Edge 278, Type (0, 0), None
#     Edge 279, Type (0, 0), None
#     Edge 280, Type (0, 0), None
#     Edge 281, Type (0, 0), None
#     Edge 282, Type (0, 0), None
#     Edge 283, Type (0, 0), None
#     Edge 284, Type (0, 0), None
#     Edge 285, Type (0, 0), None
#     Edge 286, Type (0, 0), None
#     Edge 287, Type (0, 0), None
# Relax obj value: 0.471
# Max RMSD: 0.194
# Mean RMSD: 0.194
data_MOF--net-ulg--node1-NAHDIM_clean_sbu_0--edge1-none
_symmetry_space_group_name_H-M    P1
_symmetry_Int_Tables_number       1
_symmetry_cell_setting            triclinic
loop_
_symmetry_equiv_pos_as_xyz
'x, y, z'
_cell_length_a     44.090272
_cell_length_b     43.954627
_cell_length_c     44.012308
_cell_angle_alpha  90.041224
_cell_angle_beta   89.858209
_cell_angle_gamma 90.296876
loop_
_atom_site_label
_atom_site_type_symbol
_atom_site_fract_x
_atom_site_fract_y
_atom_site_fract_z
_atom_type_partial_charge
C0 C 0.00147 0.4956 0.13152 0.0
O1 O -0.00508 0.52385 0.13833 0.0
O2 O 0.09044 0.51482 0.16595 0.0
Zn3 Zn 0.06129 0.5203 0.13111 0.0
O4 O 0.04023 0.55984 0.12311 0.0
C5 C 0.10916 0.54607 0.10175 0.0
O6 O 0.10701 0.5616 0.12715 0.0
O7 O 0.02904 0.48769 0.12773 0.0
C8 C 0.03532 0.58474 0.13652 0.0
O9 O 0.04566 0.58932 0.16409 0.0
C10 C 0.09266 0.52709 0.19187 0.0
O11 O 0.0697 0.54256 0.20284 0.0
O12 O 0.09136 0.52347 0.09717 0.0
C13 C 0.72806 0.24987 0.37208 0.0
O14 O 0.70349 0.24702 0.35556 0.0
O15 O 0.71036 0.34575 0.40468 0.0
Zn16 Zn 0.71064 0.31279 0.37214 0.0
O17 O 0.6697 0.29573 0.36213 0.0
C18 C 0.70217 0.35814 0.33016 0.0
O19 O 0.68543 0.36694 0.35316 0.0
O20 O 0.73676 0.27614 0.38104 0.0
C21 C 0.64405 0.30519 0.37056 0.0
O22 O 0.64223 0.32753 0.39017 0.0
C23 C 0.6973 0.34525 0.43038 0.0
O24 O 0.68566 0.31957 0.44038 0.0
O25 O 0.71918 0.33493 0.33308 0.0
C26 C 0.97083 0.97742 0.63339 0.0
O27 O 0.97612 0.9485 0.63817 0.0
O28 O 0.87906 0.95898 0.66301 0.0
Zn29 Zn 0.90968 0.95525 0.62862 0.0
O30 O 0.93046 0.91566 0.61999 0.0
C31 C 0.86456 0.92995 0.59591 0.0
O32 O 0.86608 0.91408 0.62109 0.0
O33 O 0.94371 0.98663 0.62905 0.0
C34 C 0.93172 0.88978 0.63231 0.0
O35 O 0.91743 0.88464 0.65799 0.0
C36 C 0.87818 0.94643 0.68888 0.0
O37 O 0.9022 0.932 0.6988 0.0
O38 O 0.88147 0.9535 0.59277 0.0
C39 C 0.24674 0.2266 0.88716 0.0
O40 O 0.27587 0.22985 0.88207 0.0
O41 O 0.25989 0.12961 0.90772 0.0
Zn42 Zn 0.25989 0.1632 0.87603 0.0
O43 O 0.30066 0.17969 0.86498 0.0
C44 C 0.26847 0.11884 0.83295 0.0
O45 O 0.28492 0.10945 0.85583 0.0
O46 O 0.2344 0.20023 0.88619 0.0
C47 C 0.32638 0.16973 0.8723 0.0
O48 O 0.32852 0.1467 0.89106 0.0
C49 C 0.27336 0.1293 0.93312 0.0
O50 O 0.28586 0.15449 0.94334 0.0
O51 O 0.25116 0.14179 0.83649 0.0
C52 C 0.00353 0.47606 0.83237 0.0
O53 O -0.00019 0.44858 0.82125 0.0
O54 O 0.08996 0.45198 0.80807 0.0
Zn55 Zn 0.06104 0.45157 0.84389 0.0
O56 O 0.03784 0.41362 0.85559 0.0
C57 C 0.10763 0.42806 0.87587 0.0
O58 O 0.1051 0.41075 0.85168 0.0
O59 O 0.02938 0.48423 0.8426 0.0
C60 C 0.03492 0.3882 0.8425 0.0
O61 O 0.04757 0.38383 0.81584 0.0
C62 C 0.08916 0.44145 0.7813 0.0
O63 O 0.06394 0.42924 0.77105 0.0
O64 O 0.09066 0.45143 0.87851 0.0
C65 C 0.75049 0.24833 0.07751 0.0
O66 O 0.78001 0.24727 0.08076 0.0
O67 O 0.76351 0.34407 0.06643 0.0
Zn68 Zn 0.75991 0.31014 0.09757 0.0
O69 O 0.79893 0.29335 0.11287 0.0
C70 C 0.76685 0.35373 0.14105 0.0
O71 O 0.78531 0.36198 0.11912 0.0
O72 O 0.73617 0.27298 0.08308 0.0
C73 C 0.82546 0.30165 0.10598 0.0
O74 O 0.82972 0.32258 0.08516 0.0
C75 C 0.77578 0.34465 0.04038 0.0
O76 O 0.78633 0.31935 0.02859 0.0
O77 O 0.74839 0.33162 0.1366 0.0
C78 C 0.97875 0.01251 0.33335 0.0
O79 O 0.98143 0.03995 0.3448 0.0
O80 O 0.88063 0.01984 0.30718 0.0
Zn81 Zn 0.91535 0.02668 0.33665 0.0
O82 O 0.92922 0.07031 0.34183 0.0
C83 C 0.869 0.02506 0.38209 0.0
O84 O 0.85131 0.02808 0.35843 0.0
O85 O 0.95251 0.0014 0.32813 0.0
C86 C 0.90915 0.08979 0.34818 0.0
O87 O 0.88072 0.08325 0.34265 0.0
C88 C 0.87693 0.03126 0.28106 0.0
O89 O 0.89937 0.04651 0.26848 0.0
O90 O 0.89715 0.01961 0.37834 0.0
C91 C 0.22424 0.22453 0.57665 0.0
O92 O 0.19465 0.22639 0.5789 0.0
O93 O 0.20827 0.12906 0.56912 0.0
Zn94 Zn 0.21213 0.16418 0.59884 0.0
O95 O 0.17338 0.18257 0.61343 0.0
C96 C 0.20367 0.12136 0.64281 0.0
O97 O 0.18436 0.11403 0.62137 0.0
O98 O 0.23769 0.1998 0.58363 0.0
C99 C 0.14696 0.17563 0.6049 0.0
O100 O 0.14314 0.15556 0.58313 0.0
C101 C 0.19763 0.12541 0.54264 0.0
O102 O 0.18768 0.149 0.5274 0.0
O103 O 0.22269 0.14298 0.63816 0.0
C104 C 0.14017 -0.00735 0.50097 0.0
O105 O 0.12379 -0.01047 0.52571 0.0
O106 O 0.16701 0.09108 0.51507 0.0
Zn107 Zn 0.13683 0.05611 0.51759 0.0
O108 O 0.13132 0.03866 0.5592 0.0
C109 C 0.09113 0.10202 0.52255 0.0
O110 O 0.11455 0.11892 0.53003 0.0
O111 O 0.1471 0.01925 0.49139 0.0
C112 C 0.12682 0.05497 0.58238 0.0
O113 O 0.13277 0.08423 0.58126 0.0
C114 C 0.18827 0.09438 0.53412 0.0
O115 O 0.1948 0.07167 0.55232 0.0
O116 O 0.09528 0.07514 0.51228 0.0
C117 C 0.21639 0.39042 0.73808 0.0
O118 O 0.22045 0.3904 0.76754 0.0
O119 O 0.11998 0.40667 0.75616 0.0
Zn120 Zn 0.15463 0.37649 0.75555 0.0
O121 O 0.17311 0.36607 0.79604 0.0
C122 C 0.11065 0.33292 0.76607 0.0
O123 O 0.10178 0.35551 0.78339 0.0
O124 O 0.18992 0.38605 0.72706 0.0
C125 C 0.18015 0.38171 0.81916 0.0
O126 O 0.1734 0.41072 0.82042 0.0
C127 C 0.11842 0.43294 0.76782 0.0
O128 O 0.14336 0.44637 0.77723 0.0
O129 O 0.13316 0.33681 0.74814 0.0
C130 C 0.82805 0.47084 -0.00413 0.0
O131 O 0.8313 0.47398 0.02529 0.0
O132 O 0.80931 0.37466 0.01151 0.0
Zn133 Zn 0.8412 0.4081 0.01015 0.0
O134 O 0.85229 0.42606 0.05028 0.0
C135 C 0.88423 0.36263 0.01895 0.0
O136 O 0.86071 0.35115 0.03323 0.0
O137 O 0.83085 0.44464 0.98351 0.0
C138 C 0.84886 0.4149 0.07644 0.0
O139 O 0.83374 0.38936 0.07995 0.0
C140 C 0.78638 0.37428 0.0289 0.0
O141 O 0.77887 0.39924 0.04346 0.0
O142 O 0.88094 0.38644 0.00263 0.0
C143 C 0.74488 0.07902 0.24307 0.0
O144 O 0.74215 0.0793 0.27273 0.0
O145 O 0.84124 0.06026 0.25511 0.0
Zn146 Zn 0.80721 0.09106 0.25756 0.0
O147 O 0.79005 0.10143 0.29869 0.0
C148 C 0.85394 0.13342 0.26567 0.0
O149 O 0.86404 0.11014 0.2812 0.0
O150 O 0.77089 0.08266 0.23069 0.0
C151 C 0.80038 0.09423 0.32438 0.0
O152 O 0.82324 0.07549 0.32597 0.0
C153 C 0.84559 0.03675 0.27108 0.0
O154 O 0.82291 0.02521 0.28678 0.0
O155 O 0.82969 0.13053 0.25002 0.0
C156 C 0.1492 0.9654 0.48402 0.0
O157 O 0.16634 0.96822 0.45974 0.0
O158 O 0.17866 0.87677 0.46819 0.0
Zn159 Zn 0.14299 0.90473 0.46086 0.0
O160 O 0.14097 0.92503 0.41994 0.0
C161 C 0.10996 0.84944 0.44685 0.0
O162 O 0.13717 0.83858 0.44211 0.0
O163 O 0.13842 0.93934 0.4912 0.0
C164 C 0.11779 0.94215 0.41764 0.0
O165 O 0.09955 0.94533 0.44104 0.0
C166 C 0.20082 0.87504 0.44988 0.0
O167 O 0.20542 0.89748 0.43069 0.0
O168 O 0.10673 0.8763 0.45745 0.0
C169 C 0.24291 0.3927 0.71824 0.0
O170 O 0.23918 0.39892 0.68936 0.0
O171 O 0.33501 0.41871 0.70254 0.0
Zn172 Zn 0.30413 0.38484 0.69864 0.0
O173 O 0.28519 0.37434 0.6586 0.0
C174 C 0.35256 0.35191 0.67971 0.0
O175 O 0.35298 0.37652 0.66284 0.0
O176 O 0.2693 0.38672 0.72848 0.0
C177 C 0.28229 0.38778 0.63346 0.0
O178 O 0.29339 0.4153 0.62979 0.0
C179 C 0.33927 0.4453 0.6923 0.0
O180 O 0.3175 0.45891 0.6773 0.0
O181 O 0.33243 0.34911 0.70055 0.0
C182 C 0.82292 0.49803 0.97754 0.0
O183 O 0.81062 0.49541 0.95054 0.0
O184 O 0.79231 0.58693 0.9695 0.0
Zn185 Zn 0.8286 0.56068 0.95952 0.0
O186 O 0.83271 0.54393 0.91686 0.0
C187 C 0.85887 0.61714 0.94848 0.0
O188 O 0.83138 0.62462 0.9403 0.0
O189 O 0.83152 0.52407 -0.01274 0.0
C190 C 0.85702 0.52861 0.91331 0.0
O191 O 0.87516 0.52466 0.93659 0.0
C192 C 0.77046 0.59004 0.9512 0.0
O193 O 0.76605 0.56888 0.93055 0.0
O194 O 0.86372 0.59086 0.95991 0.0
C195 C 0.71759 0.07766 0.22447 0.0
O196 O 0.71971 0.06875 0.19609 0.0
O197 O 0.62917 0.05746 0.20398 0.0
Zn198 Zn 0.65905 0.09243 0.204 0.0
O199 O 0.68159 0.10286 0.16561 0.0
C200 C 0.60443 0.12791 0.19807 0.0
O201 O 0.59128 0.1013 0.19506 0.0
O202 O 0.69245 0.08772 0.23474 0.0
C203 C 0.67343 0.0969 0.13881 0.0
O204 O 0.64917 0.08015 0.13424 0.0
C205 C 0.62776 0.03223 0.19017 0.0
O206 O 0.6514 0.02267 0.17474 0.0
O207 O 0.63214 0.1297 0.2064 0.0
C208 C 0.50055 0.14634 0.00348 0.0
O209 O 0.5297 0.15086 -0.00034 0.0
O210 O 0.51945 0.16856 0.09356 0.0
Zn211 Zn 0.52108 0.13425 0.06326 0.0
O212 O 0.56001 0.12356 0.04205 0.0
C213 C 0.54385 0.10035 0.10885 0.0
O214 O 0.56055 0.12516 0.10816 0.0
O215 O 0.49014 0.13888 0.02957 0.0
C216 C 0.58564 0.13605 0.03856 0.0
O217 O 0.59118 0.16278 0.05068 0.0
C218 C 0.53073 0.19504 0.09314 0.0
O219 O 0.54366 0.2051 0.06816 0.0
O220 O 0.52078 0.09816 0.09133 0.0
C221 C 0.00049 0.8389 0.47177 0.0
O222 O 0.028 0.84925 0.47653 0.0
O223 O 0.01503 0.80819 0.37718 0.0
Zn224 Zn 0.01944 0.84126 0.40876 0.0
O225 O 0.06077 0.8481 0.42694 0.0
C226 C 0.03835 0.87727 0.36236 0.0
O227 O 0.05394 0.85202 0.35989 0.0
O228 O -0.00927 0.83553 0.44465 0.0
C229 C 0.08372 0.83288 0.43483 0.0
O230 O 0.08504 0.80357 0.42941 0.0
C231 C 0.0257 0.78155 0.37711 0.0
O232 O 0.03762 0.77066 0.40211 0.0
O233 O 0.01778 0.87918 0.38285 0.0
C234 C 0.3942 0.24435 0.72362 0.0
O235 O 0.3938 0.27396 0.72712 0.0
O236 O 0.40914 0.26169 0.62968 0.0
Zn237 Zn 0.37727 0.26045 0.66284 0.0
O238 O 0.36636 0.3004 0.68191 0.0
C239 C 0.33521 0.26851 0.61595 0.0
O240 O 0.35924 0.28165 0.60419 0.0
O241 O 0.38803 0.23255 0.69782 0.0
C242 C 0.37092 0.32609 0.66996 0.0
O243 O 0.38697 0.32809 0.64491 0.0
C244 C 0.43362 0.27685 0.62915 0.0
O245 O 0.44288 0.29053 0.65403 0.0
O246 O 0.3377 0.25331 0.64057 0.0
C247 C 0.97029 0.64093 0.97455 0.0
O248 O 0.94115 0.63948 0.98029 0.0
O249 O 0.94989 0.67141 0.88438 0.0
Zn250 Zn 0.94855 0.63617 0.91354 0.0
O251 O 0.90941 0.6236 0.93352 0.0
C252 C 0.92758 0.6049 0.86502 0.0
O253 O 0.90983 0.62865 0.86771 0.0
O254 O 0.9799 0.6395 0.94718 0.0
C255 C 0.88416 0.63623 0.93818 0.0
O256 O 0.87946 0.66404 0.92849 0.0
C257 C 0.93901 0.6979 0.88242 0.0
O258 O 0.92484 0.70983 0.90582 0.0
O259 O 0.95015 0.60203 0.88306 0.0
C260 C 0.07075 0.72508 0.22396 0.0
O261 O 0.05952 0.69753 0.22683 0.0
O262 O 0.05373 0.71391 0.12907 0.0
Zn263 Zn 0.08254 0.7048 0.16334 0.0
O264 O 0.08471 0.66249 0.18097 0.0
C265 C 0.11879 0.68404 0.11788 0.0
O266 O 0.09299 0.66962 0.11374 0.0
O267 O 0.08081 0.73423 0.19833 0.0
C268 C 0.10747 0.65937 0.19863 0.0
O269 O 0.12408 0.68327 0.20553 0.0
C270 C 0.02634 0.70718 0.12372 0.0
O271 O 0.00918 0.69682 0.1459 0.0
O272 O 0.1212 0.70347 0.13939 0.0
C273 C 0.46735 0.83228 -0.00178 0.0
O274 O 0.43818 0.82815 -0.00569 0.0
O275 O 0.44895 0.80819 0.08813 0.0
Zn276 Zn 0.44698 0.84295 0.05836 0.0
O277 O 0.40805 0.85476 0.03781 0.0
C278 C 0.42599 0.87502 0.10633 0.0
O279 O 0.40919 0.85029 0.10545 0.0
O280 O 0.47778 0.83887 0.02447 0.0
C281 C 0.3829 0.84161 0.03349 0.0
O282 O 0.37826 0.8141 0.04417 0.0
C283 C 0.43761 0.78173 0.0888 0.0
O284 O 0.4239 0.77097 0.06459 0.0
O285 O 0.44807 0.87806 0.08758 0.0
C286 C 0.3991 0.22508 0.75011 0.0
O287 O 0.41031 0.19773 0.74643 0.0
O288 O 0.41823 0.20934 0.84453 0.0
Zn289 Zn 0.38881 0.20279 0.81029 0.0
O290 O 0.3868 0.161 0.79148 0.0
C291 C 0.35287 0.18016 0.85533 0.0
O292 O 0.37838 0.16518 0.85828 0.0
O293 O 0.38987 0.23362 0.77624 0.0
C294 C 0.36394 0.15732 0.77407 0.0
O295 O 0.34656 0.18066 0.76783 0.0
C296 C 0.44584 0.21028 0.85227 0.0
O297 O 0.46705 0.20664 0.8316 0.0
O298 O 0.35054 0.20056 0.83478 0.0
C299 C 0.57246 0.25575 0.24522 0.0
O300 O 0.56225 0.28346 0.24144 0.0
O301 O 0.54968 0.26986 0.3376 0.0
Zn302 Zn 0.58192 0.27656 0.30617 0.0
O303 O 0.58488 0.31869 0.28858 0.0
C304 C 0.61727 0.29567 0.35355 0.0
O305 O 0.59194 0.3108 0.35734 0.0
O306 O 0.5809 0.24679 0.27141 0.0
C307 C 0.60777 0.32268 0.27121 0.0
O308 O 0.62519 0.29946 0.26451 0.0
C309 C 0.52373 0.26383 0.34849 0.0
O310 O 0.50046 0.26034 0.33022 0.0
O311 O 0.6194 0.27652 0.33182 0.0
C312 C -0.00372 -0.00113 0.6339 0.0
O313 O -0.00933 0.02807 0.63571 0.0
O314 O 0.08704 0.0136 0.67097 0.0
Zn315 Zn 0.05835 0.01989 0.63578 0.0
O316 O 0.03962 0.06027 0.6268 0.0
C317 C 0.10778 0.04315 0.6069 0.0
O318 O 0.10493 0.05959 0.63165 0.0
O319 O 0.02365 -0.01065 0.63342 0.0
C320 C 0.03595 0.08567 0.63962 0.0
O321 O 0.04651 0.09036 0.66708 0.0
C322 C 0.09025 0.02692 0.69627 0.0
O323 O 0.06827 0.04404 0.70676 0.0
O324 O 0.08941 0.02098 0.60224 0.0
C325 C 0.72027 0.74507 0.88923 0.0
O326 O 0.69291 0.74127 0.8783 0.0
O327 O 0.70622 0.84202 0.90985 0.0
Zn328 Zn 0.70673 0.80823 0.87893 0.0
O329 O 0.66594 0.79274 0.86603 0.0
C330 C 0.70003 0.85231 0.83629 0.0
O331 O 0.6812 0.86022 0.85802 0.0
O332 O 0.7318 0.7717 0.8911 0.0
C333 C 0.64195 0.78704 0.88077 0.0
O334 O 0.6404 0.7932 0.90991 0.0
C335 C 0.69637 0.84342 0.93684 0.0
O336 O 0.68644 0.81863 0.95029 0.0
O337 O 0.71773 0.82977 0.84034 0.0
C338 C 0.97697 0.47323 0.12945 0.0
O339 O 0.9837 0.44425 0.12801 0.0
O340 O 0.88553 0.45601 0.16506 0.0
Zn341 Zn 0.9159 0.44991 0.1312 0.0
O342 O 0.9356 0.40957 0.12353 0.0
C343 C 0.86754 0.42669 0.10112 0.0
O344 O 0.86838 0.41135 0.12668 0.0
O345 O 0.9493 0.48164 0.13024 0.0
C346 C 0.9409 0.38534 0.1379 0.0
O347 O 0.93175 0.38235 0.16616 0.0
C348 C 0.88202 0.44559 0.19163 0.0
O349 O 0.90414 0.43043 0.20446 0.0
O350 O 0.88677 0.44811 0.09646 0.0
C351 C 0.25133 0.72587 0.37674 0.0
O352 O 0.27003 0.7262 0.35351 0.0
O353 O 0.26503 0.62975 0.40998 0.0
Zn354 Zn 0.26602 0.66207 0.3776 0.0
O355 O 0.30784 0.67573 0.3658 0.0
C356 C 0.26726 0.61435 0.33617 0.0
O357 O 0.28327 0.6035 0.35876 0.0
O358 O 0.24379 0.70064 0.38899 0.0
C359 C 0.32465 0.69634 0.37709 0.0
O360 O 0.31774 0.70896 0.40323 0.0
C361 C 0.27857 0.62964 0.43528 0.0
O362 O 0.29204 0.65459 0.44483 0.0
O363 O 0.25389 0.6399 0.3393 0.0
C364 C 0.00569 -0.00642 0.32996 0.0
O365 O 0.00313 0.96644 0.31775 0.0
O366 O 0.09623 0.9695 0.31539 0.0
Zn367 Zn 0.06209 0.96904 0.34631 0.0
O368 O 0.03847 0.92998 0.35198 0.0
C369 C 0.10814 0.95364 0.38813 0.0
O370 O 0.12024 0.94202 0.36351 0.0
O371 O 0.03069 0.00171 0.34203 0.0
C372 C 0.04994 0.90428 0.3466 0.0
O373 O 0.0762 0.90287 0.33265 0.0
C374 C 0.09852 0.95579 0.29017 0.0
O375 O 0.07415 0.94384 0.27775 0.0
O376 O 0.08406 0.96954 0.38627 0.0
C377 C 0.75097 0.74988 0.57931 0.0
O378 O 0.78051 0.74794 0.57665 0.0
O379 O 0.76769 0.84151 0.55978 0.0
Zn380 Zn 0.76712 0.81076 0.59422 0.0
O381 O 0.8058 0.79129 0.60782 0.0
C382 C 0.78153 0.86044 0.62849 0.0
O383 O 0.79829 0.86275 0.60403 0.0
O384 O 0.73867 0.77518 0.58646 0.0
C385 C 0.83228 0.79443 0.59741 0.0
O386 O 0.83704 0.81209 0.57382 0.0
C387 C 0.77913 0.84372 0.53346 0.0
O388 O 0.79205 0.81994 0.52095 0.0
O389 O 0.7623 0.83859 0.63068 0.0
C390 C 0.97742 0.49621 0.83525 0.0
O391 O 0.9819 0.52435 0.84411 0.0
O392 O 0.88051 0.51226 0.80737 0.0
Zn393 Zn 0.91457 0.51428 0.83854 0.0
O394 O 0.93268 0.5557 0.84473 0.0
C395 C 0.86733 0.51953 0.88298 0.0
O396 O 0.85165 0.52799 0.85923 0.0
O397 O 0.95045 0.48617 0.83128 0.0
C398 C 0.91678 0.5794 0.84665 0.0
O399 O 0.88821 0.5784 0.83847 0.0
C400 C 0.87773 0.53034 0.78511 0.0
O401 O 0.90079 0.54781 0.77753 0.0
O402 O 0.894 0.50889 0.87943 0.0
C403 C 0.21992 0.7272 0.07575 0.0
O404 O 0.1903 0.72753 0.0781 0.0
O405 O 0.20945 0.63125 0.06534 0.0
Zn406 Zn 0.21123 0.66574 0.09587 0.0
O407 O 0.17127 0.68167 0.10996 0.0
C408 C 0.20426 0.62284 0.13944 0.0
O409 O 0.1859 0.6145 0.11754 0.0
O410 O 0.23468 0.70298 0.08174 0.0
C411 C 0.14526 0.67428 0.10061 0.0
O412 O 0.14243 0.6545 0.07848 0.0
C413 C 0.19838 0.62941 0.03888 0.0
O414 O 0.18792 0.65398 0.02565 0.0
O415 O 0.22251 0.64512 0.13509 0.0
C416 C 0.15311 0.50132 -0.00184 0.0
O417 O 0.15654 0.50059 0.02773 0.0
O418 O 0.16651 0.59748 0.01027 0.0
Zn419 Zn 0.13585 0.56303 0.0108 0.0
O420 O 0.12674 0.54536 0.05156 0.0
C421 C 0.09033 0.60748 0.01735 0.0
O422 O 0.11328 0.62228 0.02926 0.0
O423 O 0.14594 0.52615 0.98493 0.0
C424 C 0.12708 0.55881 0.07688 0.0
O425 O 0.13771 0.58667 0.07883 0.0
C426 C 0.18867 0.59912 0.02844 0.0
O427 O 0.19577 0.57508 0.04459 0.0
O428 O 0.095 0.58239 0.00348 0.0
C429 C 0.22233 0.88851 0.248 0.0
O430 O 0.22797 0.88851 0.27722 0.0
O431 O 0.13001 0.92182 0.26366 0.0
Zn432 Zn 0.15961 0.88703 0.2684 0.0
O433 O 0.1794 0.88327 0.30915 0.0
C434 C 0.10504 0.85022 0.27421 0.0
O435 O 0.09118 0.87651 0.27366 0.0
O436 O 0.19495 0.88793 0.23841 0.0
C437 C 0.16492 0.87522 0.33264 0.0
O438 O 0.13519 0.87594 0.33264 0.0
C439 C 0.12866 0.94389 0.28212 0.0
O440 O 0.15143 0.94851 0.30078 0.0
O441 O 0.13343 0.84879 0.26851 0.0
C442 C 0.82153 0.97437 0.49003 0.0
O443 O 0.81941 0.97662 0.51965 0.0
O444 O 0.80816 0.87772 0.50386 0.0
Zn445 Zn 0.83823 0.91285 0.50514 0.0
O446 O 0.84506 0.93169 0.54614 0.0
C447 C 0.88348 0.86685 0.51146 0.0
O448 O 0.86001 0.85014 0.51927 0.0
O449 O 0.82835 0.94891 0.47772 0.0
C450 C 0.84916 0.91626 0.56991 0.0
O451 O 0.84489 0.88673 0.56921 0.0
C452 C 0.78696 0.87465 0.52307 0.0
O453 O 0.77975 0.89798 0.54027 0.0
O454 O 0.87943 0.89321 0.49992 0.0
C455 C 0.74526 0.58234 0.74833 0.0
O456 O 0.74226 0.58678 0.77762 0.0
O457 O 0.84384 0.56415 0.76195 0.0
Zn458 Zn 0.80846 0.59378 0.76171 0.0
O459 O 0.79169 0.60445 0.80234 0.0
C460 C 0.85013 0.63931 0.7708 0.0
O461 O 0.85998 0.61732 0.78826 0.0
O462 O 0.77154 0.58311 0.73595 0.0
C463 C 0.80004 0.5971 0.82867 0.0
O464 O 0.82284 0.57846 0.83231 0.0
C465 C 0.8469 0.53895 0.77559 0.0
O466 O 0.82321 0.52618 0.78859 0.0
O467 O 0.82798 0.63422 0.75285 0.0
C468 C 0.15298 0.47274 0.98123 0.0
O469 O 0.15862 0.47325 0.95197 0.0
O470 O 0.16318 0.3773 0.96754 0.0
Zn471 Zn 0.13343 0.41234 0.96675 0.0
O472 O 0.1255 0.43141 0.92613 0.0
C473 C 0.08871 0.36621 0.96005 0.0
O474 O 0.11235 0.35121 0.9501 0.0
O475 O 0.14352 0.44828 -0.00613 0.0
C476 C 0.12457 0.41632 0.90177 0.0
O477 O 0.13303 0.38781 0.9019 0.0
C478 C 0.18633 0.37442 0.95074 0.0
O479 O 0.1968 0.39838 0.93621 0.0
O480 O 0.09235 0.39216 0.97272 0.0
C481 C 0.2478 0.88899 0.22668 0.0
O482 O 0.2427 0.89539 0.19806 0.0
O483 O 0.33805 0.91726 0.20707 0.0
Zn484 Zn 0.30864 0.88173 0.20446 0.0
O485 O 0.28673 0.8744 0.16526 0.0
C486 C 0.36461 0.84706 0.19911 0.0
O487 O 0.37812 0.87365 0.20042 0.0
O488 O 0.2747 0.88309 0.23567 0.0
C489 C 0.29803 0.8766 0.139 0.0
O490 O 0.32533 0.88809 0.13559 0.0
C491 C 0.33971 0.94075 0.1905 0.0
O492 O 0.31686 0.94744 0.17266 0.0
O493 O 0.33617 0.84476 0.20442 0.0
C494 C 0.81808 0.00185 0.47172 0.0
O495 O 0.80934 -0.0005 0.44335 0.0
O496 O 0.7859 0.08944 0.4612 0.0
Zn497 Zn 0.82439 0.06521 0.45585 0.0
O498 O 0.83267 0.04892 0.414 0.0
C499 C 0.85608 0.12445 0.46398 0.0
O500 O 0.8294 0.13604 0.47011 0.0
O501 O 0.82479 0.02786 0.48291 0.0
C502 C 0.85787 0.03492 0.41177 0.0
O503 O 0.87544 0.0326 0.4357 0.0
C504 C 0.77598 0.10481 0.43899 0.0
O505 O 0.78681 0.0996 0.41193 0.0
O506 O 0.85908 0.0957 0.46097 0.0
C507 C 0.71795 0.57985 0.72978 0.0
O508 O 0.71994 0.56877 0.70216 0.0
O509 O 0.63035 0.5574 0.71072 0.0
Zn510 Zn 0.65935 0.59324 0.70841 0.0
O511 O 0.68226 0.60244 0.66998 0.0
C512 C 0.60548 0.62653 0.6957 0.0
O513 O 0.59588 0.5993 0.68836 0.0
O514 O 0.69287 0.59081 0.7393 0.0
C515 C 0.67309 0.59805 0.64323 0.0
O516 O 0.64783 0.58286 0.63867 0.0
C517 C 0.62928 0.5336 0.69456 0.0
O518 O 0.65272 0.52657 0.67753 0.0
O519 O 0.63135 0.62989 0.70844 0.0
C520 C 0.50506 0.64079 0.49941 0.0
O521 O 0.53443 0.64294 0.49538 0.0
O522 O 0.522 0.66389 0.59074 0.0
Zn523 Zn 0.524 0.62956 0.5602 0.0
O524 O 0.56326 0.61797 0.54009 0.0
C525 C 0.54515 0.59596 0.60618 0.0
O526 O 0.56205 0.62062 0.60512 0.0
O527 O 0.49415 0.63494 0.52571 0.0
C528 C 0.58876 0.63087 0.53748 0.0
O529 O 0.59322 0.65785 0.54953 0.0
C530 C 0.53173 0.69101 0.59136 0.0
O531 O 0.54479 0.70255 0.56709 0.0
O532 O 0.52229 0.59355 0.58841 0.0
C533 C -0.00378 0.31546 0.97577 0.0
O534 O 0.02387 0.30461 0.97626 0.0
O535 O 0.00571 0.2937 0.88598 0.0
Zn536 Zn 0.0135 0.32887 0.91469 0.0
O537 O 0.0556 0.33367 0.93217 0.0
C538 C 0.02439 0.36214 0.86049 0.0
O539 O 0.03338 0.33502 0.85223 0.0
O540 O 0.9855 0.32672 0.95132 0.0
C541 C 0.05857 0.35639 0.95007 0.0
O542 O 0.03498 0.37354 0.95604 0.0
C543 C 0.02262 0.27076 0.88264 0.0
O544 O 0.04266 0.26462 0.90379 0.0
O545 O 0.01222 0.36584 0.88668 0.0
C546 C 0.39134 0.73854 0.21708 0.0
O547 O 0.39414 0.76784 0.22172 0.0
O548 O 0.40439 0.75672 0.12157 0.0
Zn549 Zn 0.37495 0.75812 0.15678 0.0
O550 O 0.36597 0.79884 0.17603 0.0
C551 C 0.33195 0.77042 0.11308 0.0
O552 O 0.35509 0.78699 0.10403 0.0
O553 O 0.38395 0.72851 0.19088 0.0
C554 C 0.38109 0.82117 0.18629 0.0
O555 O 0.41074 0.82183 0.18365 0.0
C556 C 0.42985 0.7698 0.11898 0.0
O557 O 0.4425 0.78191 0.14315 0.0
O558 O 0.33505 0.75247 0.13568 0.0
C559 C 0.96794 0.14144 0.47812 0.0
O560 O 0.94055 0.15009 0.48569 0.0
O561 O 0.94971 0.1907 0.4071 0.0
Zn562 Zn 0.94209 0.14575 0.41857 0.0
O563 O 0.90287 0.13325 0.43968 0.0
C564 C 0.91594 0.11457 0.3694 0.0
O565 O 0.89356 0.13192 0.37865 0.0
O566 O 0.97453 0.13701 0.45018 0.0
C567 C 0.88117 0.14464 0.45478 0.0
O568 O 0.87991 0.17413 0.45936 0.0
C569 C 0.9498 0.20852 0.38414 0.0
O570 O 0.95691 0.23726 0.38842 0.0
O571 O 0.94188 0.11718 0.38204 0.0
C572 C 0.06582 0.22032 0.72794 0.0
O573 O 0.04879 0.19643 0.72226 0.0
O574 O 0.05667 0.21705 0.63515 0.0
Zn575 Zn 0.08556 0.20543 0.66913 0.0
O576 O 0.08683 0.16221 0.6845 0.0
C577 C 0.12114 0.18576 0.623 0.0
O578 O 0.09492 0.17215 0.61891 0.0
O579 O 0.08306 0.23113 0.70722 0.0
C580 C 0.10837 0.15834 0.7035 0.0
O581 O 0.12419 0.18196 0.71277 0.0
C582 C 0.03037 0.20731 0.62876 0.0
O583 O 0.01406 0.19432 0.65018 0.0
O584 O 0.1244 0.20438 0.64515 0.0
C585 C 0.47334 0.32262 0.50285 0.0
O586 O 0.4437 0.32408 0.50141 0.0
O587 O 0.45967 0.31194 0.59857 0.0
Zn588 Zn 0.4618 0.34203 0.56384 0.0
O589 O 0.42217 0.35474 0.54614 0.0
C590 C 0.45366 0.38717 0.6055 0.0
O591 O 0.43619 0.36511 0.61551 0.0
O592 O 0.48705 0.32858 0.5277 0.0
C593 C 0.39541 0.34965 0.55504 0.0
O594 O 0.39046 0.33225 0.57872 0.0
C595 C 0.44472 0.2873 0.59941 0.0
O596 O 0.43195 0.27709 0.57445 0.0
O597 O 0.47186 0.38208 0.58347 0.0
C598 C 0.39391 0.71782 0.24282 0.0
O599 O 0.39611 0.68852 0.23775 0.0
O600 O 0.42182 0.69842 0.33509 0.0
Zn601 Zn 0.38782 0.69785 0.30457 0.0
O602 O 0.37943 0.65732 0.28503 0.0
C603 C 0.35055 0.70704 0.35917 0.0
O604 O 0.37509 0.71693 0.37279 0.0
O605 O 0.39147 0.72784 0.26995 0.0
C606 C 0.36763 0.63664 0.30119 0.0
O607 O 0.36609 0.64022 0.33075 0.0
C608 C 0.44852 0.70095 0.34551 0.0
O609 O 0.47165 0.70462 0.32701 0.0
O610 O 0.35043 0.7025 0.33056 0.0
C611 C 0.5705 0.7521 0.74783 0.0
O612 O 0.56074 0.78016 0.74573 0.0
O613 O 0.54612 0.75906 0.84013 0.0
Zn614 Zn 0.58003 0.76858 0.81061 0.0
O615 O 0.58501 0.81153 0.79529 0.0
C616 C 0.61499 0.77766 0.86392 0.0
O617 O 0.58836 0.78563 0.87436 0.0
O618 O 0.57904 0.74152 0.77342 0.0
C619 C 0.60846 0.8147 0.77843 0.0
O620 O 0.62477 0.79076 0.77149 0.0
C621 C 0.52267 0.77502 0.84422 0.0
O622 O 0.51512 0.79491 0.82332 0.0
O623 O 0.6174 0.7666 0.83714 0.0
C624 C 0.50373 0.49242 0.65682 0.0
O625 O 0.50584 0.52148 0.6633 0.0
O626 O 0.59675 0.5059 0.66278 0.0
Zn627 Zn 0.56208 0.50512 0.63262 0.0
O628 O 0.54243 0.54507 0.62291 0.0
C629 C 0.60865 0.51162 0.58848 0.0
O630 O 0.62332 0.52178 0.6123 0.0
O631 O 0.52619 0.47865 0.64467 0.0
C632 C 0.55702 0.56979 0.62266 0.0
O633 O 0.58517 0.57021 0.63213 0.0
C634 C 0.59899 0.52173 0.68668 0.0
O635 O 0.57473 0.53524 0.69746 0.0
O636 O 0.58282 0.49861 0.59187 0.0
C637 C 0.22822 0.2537 0.89134 0.0
O638 O 0.20124 0.251 0.9037 0.0
O639 O 0.20906 0.34206 0.91513 0.0
Zn640 Zn 0.20549 0.31231 0.88008 0.0
O641 O 0.1669 0.28874 0.87335 0.0
C642 C 0.19326 0.36629 0.84542 0.0
O643 O 0.18956 0.37833 0.87237 0.0
O644 O 0.23701 0.27932 0.88074 0.0
C645 C 0.14058 0.29972 0.87498 0.0
O646 O 0.13681 0.32699 0.88642 0.0
C647 C 0.19315 0.34377 0.93905 0.0
O648 O 0.17553 0.32078 0.94654 0.0
O649 O 0.20375 0.33936 0.8428 0.0
C650 C 0.46904 0.97927 0.14849 0.0
O651 O 0.46841 0.94986 0.15344 0.0
O652 O 0.3732 0.9679 0.15915 0.0
Zn653 Zn 0.40828 0.9672 0.1292 0.0
O654 O 0.42627 0.92671 0.11927 0.0
C655 C 0.36366 0.95844 0.08524 0.0
O656 O 0.35156 0.94461 0.10872 0.0
O657 O 0.44511 -0.007 0.13969 0.0
C658 C 0.41487 0.9008 0.124 0.0
O659 O 0.38937 0.8984 0.13923 0.0
C660 C 0.37021 0.95267 0.18336 0.0
O661 O 0.39414 0.93947 0.1951 0.0
O662 O 0.38798 0.97405 0.08863 0.0
C663 C 0.74506 0.22269 0.38048 0.0
O664 O 0.76712 0.22502 0.40032 0.0
O665 O 0.75533 0.15342 0.42554 0.0
Zn666 Zn 0.76737 0.16362 0.38141 0.0
O667 O 0.8071 0.18422 0.37209 0.0
C668 C 0.79401 0.11447 0.34985 0.0
O669 O 0.81689 0.12347 0.36671 0.0
O670 O 0.73878 0.19684 0.36883 0.0
C671 C 0.8286 0.19702 0.38622 0.0
O672 O 0.82884 0.19742 0.41605 0.0
C673 C 0.75761 0.13191 0.44486 0.0
O674 O 0.74564 0.13564 0.47197 0.0
O675 O 0.76836 0.12757 0.35253 0.0
C676 C 0.49529 0.47484 0.34077 0.0
O677 O 0.48923 0.44704 0.33167 0.0
O678 O 0.57374 0.45008 0.30294 0.0
Zn679 Zn 0.55378 0.44945 0.34424 0.0
O680 O 0.53171 0.41122 0.35591 0.0
C681 C 0.60513 0.42753 0.37107 0.0
O682 O 0.60252 0.41084 0.34647 0.0
O683 O 0.52246 0.48243 0.34732 0.0
C684 C 0.52858 0.38651 0.34155 0.0
O685 O 0.54056 0.38355 0.31436 0.0
C686 C 0.58622 0.45049 0.27691 0.0
O687 O 0.56911 0.45252 0.25264 0.0
O688 O 0.58692 0.44959 0.37526 0.0
C689 C 0.24165 0.25187 0.56896 0.0
O690 O 0.26852 0.24912 0.55639 0.0
O691 O 0.25541 0.34103 0.53877 0.0
Zn692 Zn 0.26163 0.31374 0.57553 0.0
O693 O 0.30314 0.29527 0.58178 0.0
C694 C 0.27261 0.36966 0.60728 0.0
O695 O 0.28217 0.37779 0.5803 0.0
O696 O 0.2323 0.278 0.57744 0.0
C697 C 0.30538 0.27788 0.60495 0.0
O698 O 0.28134 0.27251 0.62183 0.0
C699 C 0.27585 0.34493 0.51884 0.0
O700 O 0.29699 0.32414 0.51606 0.0
O701 O 0.26049 0.34341 0.61105 0.0
C702 C 0.47571 0.00017 0.84239 0.0
O703 O 0.48266 0.02917 0.84107 0.0
O704 O 0.3857 0.01994 0.8091 0.0
Zn705 Zn 0.41538 0.02397 0.84373 0.0
O706 O 0.43588 0.06364 0.85325 0.0
C707 C 0.36653 0.04622 0.87378 0.0
O708 O 0.36773 0.0621 0.84855 0.0
O709 O 0.44798 -0.00824 0.84398 0.0
C710 C 0.44009 0.08872 0.83989 0.0
O711 O 0.42951 0.09286 0.81235 0.0
C712 C 0.38265 0.02834 0.78179 0.0
O713 O 0.4053 0.0419 0.76775 0.0
O714 O 0.38562 0.02484 0.87814 0.0
C715 C 0.73402 0.22032 0.07032 0.0
O716 O 0.70822 0.22193 0.05562 0.0
O717 O 0.72172 0.12719 0.04876 0.0
Zn718 Zn 0.71274 0.15968 0.08031 0.0
O719 O 0.67132 0.17899 0.08197 0.0
C720 C 0.68724 0.11364 0.11353 0.0
O721 O 0.67438 0.11166 0.08676 0.0
O722 O 0.74264 0.19498 0.0815 0.0
C723 C 0.66857 0.19719 0.10449 0.0
O724 O 0.69226 0.20325 0.1215 0.0
C725 C 0.70857 0.12302 0.02354 0.0
O726 O 0.69466 0.14602 0.01072 0.0
O727 O 0.70807 0.13355 0.11786 0.0
C728 C 0.64464 0.00179 -0.0123 0.0
O729 O 0.66403 0.00095 0.01028 0.0
O730 O 0.6755 0.0887 -0.00049 0.0
Zn731 Zn 0.63908 0.06196 0.00964 0.0
O732 O 0.63709 0.04206 0.05107 0.0
C733 C 0.61026 0.1176 0.02619 0.0
O734 O 0.63819 0.12465 0.03347 0.0
O735 O 0.63236 0.02698 0.98045 0.0
C736 C 0.61371 0.02506 0.05456 0.0
O737 O 0.59474 0.0215 0.03186 0.0
C738 C 0.69802 0.09176 0.01711 0.0
O739 O 0.7031 0.07048 0.03739 0.0
O740 O 0.60457 0.09209 0.01337 0.0
C741 C 0.72173 0.41911 0.2429 0.0
O742 O 0.71961 0.42766 0.27138 0.0
O743 O 0.62753 0.429 0.25059 0.0
Zn744 Zn 0.66143 0.39848 0.25476 0.0
O745 O 0.67603 0.39163 0.29739 0.0
C746 C 0.61815 0.35343 0.26394 0.0
O747 O 0.60708 0.37619 0.27967 0.0
O748 O 0.69882 0.40745 0.22953 0.0
C749 C 0.69577 0.37072 0.30019 0.0
O750 O 0.70639 0.3571 0.27585 0.0
C751 C 0.61852 0.44306 0.27408 0.0
O752 O 0.63566 0.44323 0.2984 0.0
O753 O 0.64174 0.35763 0.24759 0.0
C754 C 0.33318 0.47361 0.4933 0.0
O755 O 0.31226 0.4731 0.51457 0.0
O756 O 0.31014 0.38133 0.50113 0.0
Zn757 Zn 0.34018 0.41371 0.51457 0.0
O758 O 0.33782 0.43219 0.55665 0.0
C759 C 0.37086 0.36736 0.54183 0.0
O760 O 0.34366 0.36547 0.55387 0.0
O761 O 0.34692 0.44915 0.48621 0.0
C762 C 0.36097 0.4491 0.56165 0.0
O763 O 0.38033 0.45432 0.53952 0.0
C764 C 0.2832 0.37651 0.51 0.0
O765 O 0.2678 0.399 0.52208 0.0
O766 O 0.37635 0.3874 0.52151 0.0
C767 C 0.25116 0.05876 0.74497 0.0
O768 O 0.25365 0.05016 0.77338 0.0
O769 O 0.34647 0.05268 0.75126 0.0
Zn770 Zn 0.31104 0.08146 0.75627 0.0
O771 O 0.29615 0.0872 0.79924 0.0
C772 C 0.35337 0.12671 0.76642 0.0
O773 O 0.36429 0.10367 0.78177 0.0
O774 O 0.27363 0.07131 0.73148 0.0
C775 C 0.27564 0.10735 0.80261 0.0
O776 O 0.26465 0.1212 0.77863 0.0
C777 C 0.35126 0.03279 0.77143 0.0
O778 O 0.32895 0.0255 0.78993 0.0
O779 O 0.3298 0.12284 0.75002 0.0
C780 C 0.63473 0.97332 0.97341 0.0
O781 O 0.61452 0.97416 0.95161 0.0
O782 O 0.66276 0.87472 0.96338 0.0
Zn783 Zn 0.63246 0.90898 0.96076 0.0
O784 O 0.62187 0.92182 0.91837 0.0
C785 C 0.58771 0.86541 0.95645 0.0
O786 O 0.61002 0.85313 0.94101 0.0
O787 O 0.64444 0.94775 0.98296 0.0
C788 C 0.63554 0.93753 0.89842 0.0
O789 O 0.66404 0.94545 0.90207 0.0
C790 C 0.68675 0.87344 0.94763 0.0
O791 O 0.69588 0.89782 0.93296 0.0
O792 O 0.59255 0.88977 0.97156 0.0
C793 C 0.75158 0.41722 0.22871 0.0
O794 O 0.75468 0.42469 0.20002 0.0
O795 O 0.84557 0.42063 0.22167 0.0
Zn796 Zn 0.81002 0.39161 0.21808 0.0
O797 O 0.79489 0.38425 0.17541 0.0
C798 C 0.85313 0.34638 0.21105 0.0
O799 O 0.86404 0.36853 0.19422 0.0
O800 O 0.77309 0.40377 0.24256 0.0
C801 C 0.77311 0.36534 0.17158 0.0
O802 O 0.7601 0.35261 0.19528 0.0
C803 C 0.85051 0.44068 0.20164 0.0
O804 O 0.82837 0.44799 0.18315 0.0
O805 O 0.82901 0.3508 0.2266 0.0
C806 C 0.34285 0.50273 0.4803 0.0
O807 O 0.36604 0.50355 0.46156 0.0
O808 O 0.30992 0.59926 0.4655 0.0
Zn809 Zn 0.34052 0.56536 0.46411 0.0
O810 O 0.35 0.55092 0.42196 0.0
C811 C 0.38515 0.60933 0.45885 0.0
O812 O 0.36269 0.62179 0.44392 0.0
O813 O 0.32941 0.52733 0.48751 0.0
C814 C 0.33812 0.52936 0.40686 0.0
O815 O 0.31279 0.51645 0.41602 0.0
C816 C 0.28769 0.59998 0.4474 0.0
O817 O 0.28039 0.57519 0.43239 0.0
O818 O 0.38048 0.58488 0.4738 0.0
C819 C 0.22124 0.05928 0.73091 0.0
O820 O 0.21842 0.05106 0.7024 0.0
O821 O 0.12632 0.05427 0.7245 0.0
Zn822 Zn 0.16204 0.08304 0.71991 0.0
O823 O 0.17695 0.08954 0.67709 0.0
C824 C 0.1198 0.12781 0.70978 0.0
O825 O 0.10998 0.1051 0.69307 0.0
O826 O 0.19924 0.07226 0.74458 0.0
C827 C 0.19812 0.10915 0.67321 0.0
O828 O 0.21075 0.1222 0.6969 0.0
C829 C 0.12164 0.03259 0.70617 0.0
O830 O 0.14406 0.02361 0.68867 0.0
O831 O 0.14297 0.12403 0.72677 0.0
C832 C -0.00868 0.14035 0.50165 0.0
O833 O 0.01978 0.1446 0.49395 0.0
O834 O 0.00618 0.17768 0.59158 0.0
Zn835 Zn 0.01458 0.14121 0.56423 0.0
O836 O 0.05663 0.13688 0.54581 0.0
C837 C 0.0265 0.11115 0.62061 0.0
O838 O 0.03635 0.13839 0.62759 0.0
O839 O 0.98384 0.13838 0.52966 0.0
C840 C 0.06078 0.11139 0.53246 0.0
O841 O 0.03827 0.09177 0.53094 0.0
C842 C 0.02524 0.19873 0.59671 0.0
O843 O 0.0473 0.20312 0.57705 0.0
O844 O 0.01438 0.10637 0.59463 0.0
C845 C 0.48748 0.82868 0.97224 0.0
O846 O 0.51314 0.81414 0.9757 0.0
O847 O 0.49807 0.80404 0.88092 0.0
Zn848 Zn 0.51027 0.83567 0.91179 0.0
O849 O 0.5517 0.83386 0.93129 0.0
C850 C 0.5395 0.8662 0.8661 0.0
O851 O 0.55293 0.8397 0.86755 0.0
O852 O 0.4801 0.83926 0.94629 0.0
C853 C 0.55669 0.85663 0.94868 0.0
O854 O 0.53472 0.87596 0.95411 0.0
C855 C 0.51304 0.78011 0.87584 0.0
O856 O 0.52956 0.7688 0.89787 0.0
O857 O 0.51727 0.87172 0.88401 0.0
C858 C 0.90723 0.24648 0.22506 0.0
O859 O 0.92905 0.26512 0.21672 0.0
O860 O 0.91322 0.25676 0.13586 0.0
Zn861 Zn 0.88488 0.26838 0.1702 0.0
O862 O 0.88601 0.31097 0.18707 0.0
C863 C 0.85068 0.29121 0.12457 0.0
O864 O 0.87724 0.30445 0.12122 0.0
O865 O 0.88525 0.2412 0.20705 0.0
C866 C 0.86439 0.31553 0.20591 0.0
O867 O 0.84777 0.29239 0.21504 0.0
C868 C 0.94076 0.26219 0.12961 0.0
O869 O 0.95888 0.27223 0.15108 0.0
O870 O 0.84661 0.27201 0.14606 0.0
C871 C 0.48523 0.64567 0.4735 0.0
O872 O 0.45983 0.6606 0.47738 0.0
O873 O 0.47312 0.6734 0.38367 0.0
Zn874 Zn 0.46201 0.63989 0.41326 0.0
O875 O 0.42095 0.64121 0.43382 0.0
C876 C 0.43099 0.60806 0.36942 0.0
O877 O 0.41663 0.634 0.37178 0.0
O878 O 0.49245 0.63552 0.44728 0.0
C879 C 0.41609 0.61808 0.45071 0.0
O880 O 0.43802 0.59849 0.45518 0.0
C881 C 0.45296 0.69278 0.37752 0.0
O882 O 0.42997 0.69556 0.39629 0.0
O883 O 0.45477 0.60377 0.38541 0.0
C884 C 0.57383 0.73367 0.72045 0.0
O885 O 0.57192 0.70403 0.72286 0.0
O886 O 0.5634 0.71722 0.62463 0.0
Zn887 Zn 0.59247 0.71753 0.66024 0.0
O888 O 0.60348 0.67733 0.67929 0.0
C889 C 0.63611 0.70594 0.61737 0.0
O890 O 0.61344 0.68852 0.6088 0.0
O891 O 0.58134 0.74579 0.69514 0.0
C892 C 0.58914 0.65271 0.68356 0.0
O893 O 0.56139 0.64954 0.67331 0.0
C894 C 0.53813 0.70386 0.62149 0.0
O895 O 0.52447 0.69246 0.64549 0.0
O896 O 0.6324 0.72455 0.63939 0.0
C897 C 0.9814 0.83111 0.49789 0.0
O898 O 0.95624 0.8156 0.49371 0.0
O899 O 0.96992 0.7991 0.58748 0.0
Zn900 Zn 0.95885 0.83395 0.55915 0.0
O901 O 0.91722 0.83498 0.53949 0.0
C902 C 0.94283 0.86449 0.61389 0.0
O903 O 0.93397 0.8369 0.62083 0.0
O904 O -0.01126 0.83993 0.52454 0.0
C905 C 0.91347 0.85875 0.52319 0.0
O906 O 0.93575 0.87853 0.52066 0.0
C907 C 0.95316 0.77617 0.59266 0.0
O908 O 0.93256 0.76868 0.57243 0.0
O909 O 0.9559 0.86947 0.5884 0.0
C910 C 0.90841 0.23212 0.25495 0.0
O911 O 0.93124 0.21434 0.26173 0.0
O912 O 0.9254 0.21921 0.33781 0.0
Zn913 Zn 0.88946 0.20881 0.31098 0.0
O914 O 0.88678 0.16676 0.29275 0.0
C915 C 0.85439 0.20849 0.36846 0.0
O916 O 0.88007 0.21441 0.38218 0.0
O917 O 0.88734 0.23631 0.27433 0.0
C918 C 0.86589 0.16368 0.27287 0.0
O919 O 0.85057 0.18761 0.26406 0.0
C920 C 0.93791 0.19923 0.35433 0.0
O921 O 0.93358 0.17056 0.34802 0.0
O922 O 0.85292 0.2085 0.33943 0.0
C923 C 0.06444 0.23447 0.75788 0.0
O924 O 0.04436 0.25582 0.76295 0.0
O925 O 0.05245 0.2458 0.84668 0.0
Zn926 Zn 0.08294 0.25679 0.81408 0.0
O927 O 0.08058 0.29821 0.79454 0.0
C928 C 0.11571 0.28497 0.85853 0.0
O929 O 0.08879 0.2975 0.85972 0.0
O930 O 0.0837 0.22782 0.77838 0.0
C931 C 0.10069 0.30219 0.77395 0.0
O932 O 0.11758 0.27919 0.76544 0.0
C933 C 0.02818 0.26031 0.85133 0.0
O934 O 0.01629 0.27568 0.82875 0.0
O935 O 0.12057 0.26357 0.8394 0.0
C936 C 0.4982 -0.00484 0.14865 0.0
O937 O 0.49881 0.02443 0.15434 0.0
O938 O 0.59439 0.00443 0.15932 0.0
Zn939 Zn 0.55936 0.00725 0.12973 0.0
O940 O 0.54203 0.0487 0.1225 0.0
C941 C 0.60461 0.01455 0.08479 0.0
O942 O 0.61947 0.02493 0.10842 0.0
O943 O 0.52215 0.98161 0.13948 0.0
C944 C 0.556 0.07372 0.12444 0.0
O945 O 0.58384 0.07429 0.13485 0.0
C946 C 0.59723 0.02071 0.18285 0.0
O947 O 0.57341 0.03527 0.19322 0.0
O948 O 0.57891 0.00147 0.08854 0.0
C949 C 0.23846 0.75446 0.38787 0.0
O950 O 0.21885 0.75384 0.41036 0.0
O951 O 0.22594 0.84202 0.4169 0.0
Zn952 Zn 0.21359 0.81274 0.38365 0.0
O953 O 0.17317 0.79094 0.38698 0.0
C954 C 0.1806 0.8582 0.35634 0.0
O955 O 0.16737 0.85493 0.38288 0.0
O956 O 0.24353 0.77941 0.37391 0.0
C957 C 0.16803 0.77335 0.36443 0.0
O958 O 0.18941 0.76908 0.34409 0.0
C959 C 0.21198 0.84449 0.44195 0.0
O960 O 0.19759 0.8206 0.45278 0.0
O961 O 0.20369 0.84195 0.34985 0.0
C962 C 0.47409 0.4776 0.65863 0.0
O963 O 0.47229 0.44919 0.66756 0.0
O964 O 0.37696 0.4735 0.66686 0.0
Zn965 Zn 0.41261 0.46644 0.63867 0.0
O966 O 0.42615 0.42296 0.63485 0.0
C967 C 0.37002 0.45698 0.59263 0.0
O968 O 0.35694 0.44284 0.61545 0.0
O969 O 0.45089 0.49081 0.64746 0.0
C970 C 0.44666 0.41821 0.61489 0.0
O971 O 0.45811 0.44124 0.59961 0.0
C972 C 0.37111 0.45443 0.6876 0.0
O973 O 0.39258 0.43562 0.69599 0.0
O974 O 0.39454 0.47193 0.5971 0.0
C975 C 0.73822 0.71831 0.89655 0.0
O976 O 0.76337 0.72136 0.91218 0.0
O977 O 0.75149 0.62586 0.91765 0.0
Zn978 Zn 0.76192 0.65917 0.88783 0.0
O979 O 0.80334 0.67929 0.88764 0.0
C980 C 0.78761 0.61379 0.85442 0.0
O981 O 0.80068 0.61119 0.88104 0.0
O982 O 0.73114 0.69258 0.88514 0.0
C983 C 0.80681 0.6968 0.86467 0.0
O984 O 0.78371 0.70175 0.8466 0.0
C985 C 0.76097 0.62136 0.94435 0.0
O986 O 0.773 0.64415 0.95952 0.0
O987 O 0.76715 0.63389 0.85048 0.0
C988 C 0.49996 0.97773 0.84076 0.0
O989 O 0.49294 0.94904 0.83642 0.0
O990 O 0.58886 0.96218 0.80321 0.0
Zn991 Zn 0.56111 0.95468 0.83902 0.0
O992 O 0.5399 0.91432 0.84236 0.0
C993 C 0.61825 0.94794 0.87217 0.0
O994 O 0.63118 0.94856 0.84534 0.0
O995 O 0.52772 0.98601 0.84252 0.0
C996 C 0.55449 0.89061 0.84912 0.0
O997 O 0.58416 0.89058 0.84656 0.0
C998 C 0.5914 0.94552 0.77989 0.0
O999 O 0.57026 0.92512 0.77423 0.0
O1000 O 0.58978 0.95256 0.87492 0.0
C1001 C 0.2359 0.75558 0.06938 0.0
O1002 O 0.26133 0.75493 0.05386 0.0
O1003 O 0.24565 0.84807 0.05023 0.0
Zn1004 Zn 0.25653 0.81573 0.08068 0.0
O1005 O 0.2983 0.79702 0.08039 0.0
C1006 C 0.28342 0.86073 0.11369 0.0
O1007 O 0.29618 0.86232 0.08678 0.0
O1008 O 0.22723 0.78026 0.08194 0.0
C1009 C 0.30169 0.77874 0.1027 0.0
O1010 O 0.2784 0.7724 0.12027 0.0
C1011 C 0.25814 0.85225 0.02468 0.0
O1012 O 0.27226 0.8294 0.01171 0.0
O1013 O 0.26198 0.84151 0.11822 0.0
C1014 C 0.47075 0.49687 0.34309 0.0
O1015 O 0.47739 0.52573 0.34689 0.0
O1016 O 0.37815 0.51326 0.31008 0.0
Zn1017 Zn 0.40944 0.51925 0.34248 0.0
O1018 O 0.4298 0.56036 0.34431 0.0
C1019 C 0.35493 0.51731 0.38092 0.0
O1020 O 0.34021 0.50796 0.35678 0.0
O1021 O 0.44314 0.48823 0.34114 0.0
C1022 C 0.4151 0.58252 0.35515 0.0
O1023 O 0.38564 0.58005 0.35874 0.0
C1024 C 0.37527 0.5193 0.28215 0.0
O1025 O 0.3982 0.53121 0.2671 0.0
O1026 O 0.38383 0.5196 0.38066 0.0
C1027 C 0.7327 0.72247 0.57516 0.0
O1028 O 0.70643 0.72441 0.56139 0.0
O1029 O 0.72362 0.62833 0.5551 0.0
Zn1030 Zn 0.71234 0.66124 0.58528 0.0
O1031 O 0.67039 0.67942 0.58513 0.0
C1032 C 0.68704 0.61512 0.61826 0.0
O1033 O 0.67473 0.61296 0.59125 0.0
O1034 O 0.7415 0.6971 0.58613 0.0
C1035 C 0.66657 0.69776 0.60737 0.0
O1036 O 0.68958 0.70438 0.62512 0.0
C1037 C 0.71194 0.62287 0.52942 0.0
O1038 O 0.69757 0.6448 0.51529 0.0
O1039 O 0.70734 0.63549 0.62304 0.0
C1040 C 0.65453 0.49643 0.49417 0.0
O1041 O 0.66714 0.49408 0.52103 0.0
O1042 O 0.68162 0.58639 0.50512 0.0
Zn1043 Zn 0.64614 0.55803 0.51382 0.0
O1044 O 0.64178 0.53935 0.55562 0.0
C1045 C 0.61438 0.61264 0.52693 0.0
O1046 O 0.64157 0.6203 0.53607 0.0
O1047 O 0.64482 0.52215 0.48492 0.0
C1048 C 0.61847 0.52211 0.55844 0.0
O1049 O 0.60067 0.51761 0.53497 0.0
C1050 C 0.70323 0.59098 0.52348 0.0
O1051 O 0.70846 0.57052 0.54456 0.0
O1052 O 0.61011 0.58682 0.51414 0.0
C1053 C 0.72427 0.90875 0.74709 0.0
O1054 O 0.72318 0.91711 0.77568 0.0
O1055 O 0.62664 0.91753 0.75177 0.0
Zn1056 Zn 0.66236 0.88973 0.75861 0.0
O1057 O 0.67566 0.88564 0.80195 0.0
C1058 C 0.62008 0.84496 0.77083 0.0
O1059 O 0.60964 0.86846 0.78589 0.0
O1060 O 0.70056 0.89824 0.73403 0.0
C1061 C 0.69505 0.86456 0.80595 0.0
O1062 O 0.70615 0.85009 0.78232 0.0
C1063 C 0.62211 0.9412 0.76746 0.0
O1064 O 0.64522 0.95388 0.78144 0.0
O1065 O 0.6435 0.84816 0.75394 0.0
C1066 C 0.3154 0.97568 -0.00785 0.0
O1067 O 0.30228 0.97615 0.01893 0.0
O1068 O 0.29072 0.88659 0.00049 0.0
Zn1069 Zn 0.32621 0.91436 0.00958 0.0
O1070 O 0.33054 0.93173 0.05183 0.0
C1071 C 0.35758 0.85978 0.02226 0.0
O1072 O 0.33013 0.85212 0.03079 0.0
O1073 O 0.32672 0.95101 0.9819 0.0
C1074 C 0.35324 0.94969 0.05493 0.0
O1075 O 0.37025 0.95617 0.03125 0.0
C1076 C 0.26816 0.88353 0.01805 0.0
O1077 O 0.26276 0.90494 0.03816 0.0
O1078 O 0.3622 0.88558 0.00954 0.0
C1079 C 0.25055 0.55981 0.24196 0.0
O1080 O 0.25265 0.54487 0.26765 0.0
O1081 O 0.33978 0.54407 0.252 0.0
Zn1082 Zn 0.30873 0.57649 0.26065 0.0
O1083 O 0.28978 0.57881 0.30256 0.0
C1084 C 0.35223 0.61072 0.28724 0.0
O1085 O 0.35073 0.58531 0.30279 0.0
O1086 O 0.27318 0.57509 0.23203 0.0
C1087 C 0.27213 0.60154 0.30588 0.0
O1088 O 0.26476 0.6178 0.28201 0.0
C1089 C 0.34406 0.52332 0.27133 0.0
O1090 O 0.32168 0.51625 0.28982 0.0
O1091 O 0.3354 0.61393 0.26382 0.0
C1092 C 0.64933 0.46908 0.47602 0.0
O1093 O 0.64799 0.47163 0.4464 0.0
O1094 O 0.66237 0.37396 0.45855 0.0
Zn1095 Zn 0.6312 0.4077 0.46204 0.0
O1096 O 0.619 0.42649 0.42245 0.0
C1097 C 0.58658 0.36266 0.45577 0.0
O1098 O 0.60904 0.35084 0.44028 0.0
O1099 O 0.64382 0.44349 0.48874 0.0
C1100 C 0.62363 0.41619 0.39607 0.0
O1101 O 0.63962 0.39141 0.39254 0.0
C1102 C 0.68649 0.37435 0.44282 0.0
O1103 O 0.69552 0.40003 0.43043 0.0
O1104 O 0.59128 0.38661 0.47159 0.0
C1105 C 0.75362 0.90662 0.7318 0.0
O1106 O 0.75502 0.91171 0.70249 0.0
O1107 O 0.84537 0.91263 0.71339 0.0
Zn1108 Zn 0.81113 0.88186 0.71831 0.0
O1109 O 0.79023 0.86678 0.68056 0.0
C1110 C 0.85548 0.83956 0.70754 0.0
O1111 O 0.86143 0.86138 0.68809 0.0
O1112 O 0.77639 0.89516 0.7455 0.0
C1113 C 0.79052 0.87885 0.65457 0.0
O1114 O 0.80578 0.90419 0.65028 0.0
C1115 C 0.84805 0.93853 0.70107 0.0
O1116 O 0.82383 0.9524 0.69083 0.0
O1117 O 0.8342 0.84319 0.72706 0.0
C1118 C 0.31953 0.00404 0.97544 0.0
O1119 O 0.31982 0.00315 0.94568 0.0
O1120 O 0.30728 0.0993 0.96089 0.0
Zn1121 Zn 0.3383 0.06546 0.96413 0.0
O1122 O 0.35198 0.04739 0.92489 0.0
C1123 C 0.38275 0.11012 0.95801 0.0
O1124 O 0.36034 0.12197 0.94258 0.0
O1125 O 0.32555 0.02885 -0.01059 0.0
C1126 C 0.34745 0.05732 0.89845 0.0
O1127 O 0.33038 0.0813 0.89444 0.0
C1128 C 0.28345 0.09971 0.94486 0.0
O1129 O 0.2742 0.07451 0.93168 0.0
O1130 O 0.37793 0.0864 0.97413 0.0
C1131 C 0.22115 0.5622 0.22728 0.0
O1132 O 0.21825 0.55347 0.19894 0.0
O1133 O 0.12714 0.55553 0.22092 0.0
Zn1134 Zn 0.16199 0.58528 0.21633 0.0
O1135 O 0.17702 0.59141 0.17361 0.0
C1136 C 0.11889 0.62911 0.206 0.0
O1137 O 0.10886 0.6058 0.19026 0.0
O1138 O 0.19923 0.57526 0.24096 0.0
C1139 C 0.19807 0.61114 0.16989 0.0
O1140 O 0.21009 0.62466 0.19363 0.0
C1141 C 0.1236 0.53372 0.20249 0.0
O1142 O 0.14666 0.52563 0.18539 0.0
O1143 O 0.14237 0.62602 0.22267 0.0
C1144 C -0.00881 0.64468 -6e-05 0.0
O1145 O 0.01783 0.65733 -0.00463 0.0
O1146 O 0.00153 0.6765 0.08831 0.0
Zn1147 Zn 0.01244 0.64057 0.06169 0.0
O1148 O 0.05479 0.63889 0.04356 0.0
C1149 C 0.02417 0.61011 0.11821 0.0
O1150 O 0.03068 0.63788 0.12684 0.0
O1151 O 0.98326 0.63633 0.02658 0.0
C1152 C 0.05951 0.61566 0.02674 0.0
O1153 O 0.03724 0.59635 0.02178 0.0
C1154 C 0.01968 0.69855 0.09212 0.0
O1155 O 0.04062 0.70345 0.07136 0.0
O1156 O 0.01378 0.60531 0.09151 0.0
C1157 C 0.49036 0.31737 0.47495 0.0
O1158 O 0.51693 0.30413 0.47615 0.0
O1159 O 0.49869 0.29036 0.38672 0.0
Zn1160 Zn 0.5083 0.32656 0.41354 0.0
O1161 O 0.55108 0.33072 0.43013 0.0
C1162 C 0.51755 0.35987 0.35826 0.0
O1163 O 0.52454 0.33278 0.34811 0.0
O1164 O 0.48061 0.328 0.44987 0.0
C1165 C 0.55561 0.35289 0.44844 0.0
O1166 O 0.53274 0.37019 0.45645 0.0
C1167 C 0.51936 0.27146 0.38062 0.0
O1168 O 0.54304 0.27031 0.39863 0.0
O1169 O 0.50708 0.36291 0.38519 0.0
C1170 C 0.90792 0.74607 0.72312 0.0
O1171 O 0.92171 0.77255 0.72178 0.0
O1172 O 0.92315 0.7543 0.63065 0.0
Zn1173 Zn 0.89203 0.7639 0.66347 0.0
O1174 O 0.88877 0.80632 0.68113 0.0
C1175 C 0.85778 0.78354 0.6155 0.0
O1176 O 0.88422 0.79669 0.6115 0.0
O1177 O 0.89406 0.73569 0.69984 0.0
C1178 C 0.86786 0.8094 0.70113 0.0
O1179 O 0.85293 0.78532 0.71071 0.0
C1180 C 0.94788 0.76788 0.62477 0.0
O1181 O 0.96095 0.78402 0.64624 0.0
O1182 O 0.854 0.76524 0.63784 0.0
C1183 C 0.48056 0.14994 0.97744 0.0
O1184 O 0.45354 0.16168 0.98134 0.0
O1185 O 0.47126 0.18214 0.88903 0.0
Zn1186 Zn 0.46103 0.14539 0.91511 0.0
O1187 O 0.41848 0.14196 0.93246 0.0
C1188 C 0.45096 0.11446 0.85811 0.0
O1189 O 0.44476 0.14207 0.84898 0.0
O1190 O 0.48951 0.14213 0.95096 0.0
C1191 C 0.41373 0.11916 0.94991 0.0
O1192 O 0.43621 0.10079 0.95633 0.0
C1193 C 0.45166 0.20249 0.88421 0.0
O1194 O 0.42922 0.20523 0.90371 0.0
O1195 O 0.46085 0.11011 0.88507 0.0
C1196 C 0.5768 0.23609 0.21895 0.0
O1197 O 0.57508 0.2066 0.22268 0.0
O1198 O 0.56624 0.21828 0.12436 0.0
Zn1199 Zn 0.59583 0.21812 0.15922 0.0
O1200 O 0.60518 0.17761 0.17847 0.0
C1201 C 0.63856 0.20556 0.11569 0.0
O1202 O 0.61541 0.1885 0.10775 0.0
O1203 O 0.58493 0.24716 0.19337 0.0
C1204 C 0.58926 0.15464 0.18558 0.0
O1205 O 0.5603 0.15371 0.17879 0.0
C1206 C 0.53959 0.20774 0.12262 0.0
O1207 O 0.5258 0.19843 0.14743 0.0
O1208 O 0.63574 0.22414 0.13787 0.0
C1209 C 0.978 0.31439 0.00343 0.0
O1210 O 0.95068 0.3025 0.00238 0.0
O1211 O 0.96732 0.28979 0.09262 0.0
Zn1212 Zn 0.95977 0.3257 0.06467 0.0
O1213 O 0.9176 0.33073 0.04694 0.0
C1214 C 0.95101 0.3589 0.12039 0.0
O1215 O 0.94343 0.33179 0.13017 0.0
O1216 O -0.01174 0.32517 0.02835 0.0
C1217 C 0.91452 0.35258 0.02803 0.0
O1218 O 0.93825 0.36914 0.0205 0.0
C1219 C 0.9472 0.26975 0.0976 0.0
O1220 O 0.92537 0.26633 0.07759 0.0
O1221 O 0.9613 0.36218 0.09334 0.0
C1222 C 0.90521 0.73068 0.75234 0.0
O1223 O 0.91467 0.70257 0.75491 0.0
O1224 O 0.91023 0.72602 0.84776 0.0
Zn1225 Zn 0.88208 0.71882 0.8123 0.0
O1226 O 0.8794 0.67534 0.79828 0.0
C1227 C 0.83711 0.7062 0.85464 0.0
O1228 O 0.86075 0.69248 0.86627 0.0
O1229 O 0.89167 0.74363 0.77451 0.0
C1230 C 0.8599 0.6704 0.77744 0.0
O1231 O 0.84505 0.69334 0.76563 0.0
C1232 C 0.93271 0.70869 0.85149 0.0
O1233 O 0.94191 0.69218 0.82837 0.0
O1234 O 0.8404 0.72249 0.83079 0.0
C1235 C 0.07486 0.74409 0.25077 0.0
O1236 O 0.07621 0.77362 0.2473 0.0
O1237 O 0.06254 0.75988 0.34638 0.0
Zn1238 Zn 0.09256 0.75953 0.31185 0.0
O1239 O 0.10422 0.80065 0.2946 0.0
C1240 C 0.13695 0.76502 0.35641 0.0
O1241 O 0.11475 0.78052 0.36875 0.0
O1242 O 0.08048 0.7322 0.27658 0.0
C1243 C 0.08901 0.82364 0.28652 0.0
O1244 O 0.05951 0.82412 0.29062 0.0
C1245 C 0.0357 0.76981 0.34761 0.0
O1246 O 0.02251 0.77916 0.32261 0.0
O1247 O 0.13208 0.7498 0.33216 0.0
loop_
_geom_bond_atom_site_label_1
_geom_bond_atom_site_label_2
_geom_bond_distance
_geom_bond_site_symmetry_2
_ccdc_geom_bond_type
C0 O1 1.160 . S
C0 O7 1.185 . S
O1 C0 1.160 . S
O2 Zn3 1.899 . S
O2 C10 1.284 . S
Zn3 O2 1.899 . S
Zn3 O4 2.032 . S
Zn3 O7 2.086 . S
Zn3 O12 1.977 . S
O4 Zn3 2.032 . S
O4 C8 1.278 . S
C5 O6 1.203 . S
C5 O12 1.267 . S
O6 C5 1.203 . S
O7 C0 1.185 . S
O7 Zn3 2.086 . S
C8 O4 1.278 . S
C8 O9 1.211 . S
O9 C8 1.211 . S
C10 O2 1.284 . S
C10 O11 1.273 . S
O11 C10 1.273 . S
O12 Zn3 1.977 . S
O12 C5 1.267 . S
C13 O14 1.160 . S
C13 O20 1.185 . S
O14 C13 1.160 . S
O15 Zn16 1.899 . S
O15 C23 1.284 . S
Zn16 O15 1.899 . S
Zn16 O17 2.032 . S
Zn16 O20 2.086 . S
Zn16 O25 1.977 . S
O17 Zn16 2.032 . S
O17 C21 1.278 . S
C18 O19 1.203 . S
C18 O25 1.267 . S
O19 C18 1.203 . S
O20 C13 1.185 . S
O20 Zn16 2.086 . S
C21 O17 1.278 . S
C21 O22 1.211 . S
O22 C21 1.211 . S
C23 O15 1.284 . S
C23 O24 1.273 . S
O24 C23 1.273 . S
O25 Zn16 1.977 . S
O25 C18 1.267 . S
C26 O27 1.160 . S
C26 O33 1.185 . S
O27 C26 1.160 . S
O28 Zn29 1.899 . S
O28 C36 1.284 . S
Zn29 O28 1.899 . S
Zn29 O30 2.032 . S
Zn29 O33 2.086 1_565 S
Zn29 O38 1.977 . S
O30 Zn29 2.032 . S
O30 C34 1.278 . S
C31 O32 1.203 . S
C31 O38 1.267 . S
O32 C31 1.203 . S
O33 C26 1.185 . S
O33 Zn29 2.086 1_545 S
C34 O30 1.278 . S
C34 O35 1.211 . S
O35 C34 1.211 . S
C36 O28 1.284 . S
C36 O37 1.273 . S
O37 C36 1.273 . S
O38 Zn29 1.977 . S
O38 C31 1.267 . S
C39 O40 1.160 . S
C39 O46 1.185 . S
O40 C39 1.160 . S
O41 Zn42 1.899 . S
O41 C49 1.284 . S
Zn42 O41 1.899 . S
Zn42 O43 2.032 . S
Zn42 O46 2.086 . S
Zn42 O51 1.977 . S
O43 Zn42 2.032 . S
O43 C47 1.278 . S
C44 O45 1.203 . S
C44 O51 1.267 . S
O45 C44 1.203 . S
O46 C39 1.185 . S
O46 Zn42 2.086 . S
C47 O43 1.278 . S
C47 O48 1.211 . S
O48 C47 1.211 . S
C49 O41 1.284 . S
C49 O50 1.273 . S
O50 C49 1.273 . S
O51 Zn42 1.977 . S
O51 C44 1.267 . S
C52 O53 1.160 . S
C52 O59 1.185 . S
O53 C52 1.160 . S
O54 Zn55 1.899 . S
O54 C62 1.284 . S
Zn55 O54 1.899 . S
Zn55 O56 2.032 . S
Zn55 O59 2.086 . S
Zn55 O64 1.977 . S
O56 Zn55 2.032 . S
O56 C60 1.278 . S
C57 O58 1.203 . S
C57 O64 1.267 . S
O58 C57 1.203 . S
O59 C52 1.185 . S
O59 Zn55 2.086 . S
C60 O56 1.278 . S
C60 O61 1.211 . S
O61 C60 1.211 . S
C62 O54 1.284 . S
C62 O63 1.273 . S
O63 C62 1.273 . S
O64 Zn55 1.977 . S
O64 C57 1.267 . S
C65 O66 1.160 . S
C65 O72 1.185 . S
O66 C65 1.160 . S
O67 Zn68 1.899 . S
O67 C75 1.284 . S
Zn68 O67 1.899 . S
Zn68 O69 2.032 . S
Zn68 O72 2.086 . S
Zn68 O77 1.977 . S
O69 Zn68 2.032 . S
O69 C73 1.278 . S
C70 O71 1.203 . S
C70 O77 1.267 . S
O71 C70 1.203 . S
O72 C65 1.185 . S
O72 Zn68 2.086 . S
C73 O69 1.278 . S
C73 O74 1.211 . S
O74 C73 1.211 . S
C75 O67 1.284 . S
C75 O76 1.273 . S
O76 C75 1.273 . S
O77 Zn68 1.977 . S
O77 C70 1.267 . S
C78 O79 1.160 . S
C78 O85 1.185 . S
O79 C78 1.160 . S
O80 Zn81 1.899 . S
O80 C88 1.284 . S
Zn81 O80 1.899 . S
Zn81 O82 2.032 . S
Zn81 O85 2.086 1_545 S
Zn81 O90 1.977 . S
O82 Zn81 2.032 . S
O82 C86 1.278 . S
C83 O84 1.203 . S
C83 O90 1.267 . S
O84 C83 1.203 . S
O85 C78 1.185 . S
O85 Zn81 2.086 1_565 S
C86 O82 1.278 . S
C86 O87 1.211 . S
O87 C86 1.211 . S
C88 O80 1.284 . S
C88 O89 1.273 . S
O89 C88 1.273 . S
O90 Zn81 1.977 . S
O90 C83 1.267 . S
C91 O92 1.160 . S
C91 O98 1.185 . S
O92 C91 1.160 . S
O93 Zn94 1.899 . S
O93 C101 1.284 . S
Zn94 O93 1.899 . S
Zn94 O95 2.032 . S
Zn94 O98 2.086 . S
Zn94 O103 1.977 . S
O95 Zn94 2.032 . S
O95 C99 1.278 . S
C96 O97 1.203 . S
C96 O103 1.267 . S
O97 C96 1.203 . S
O98 C91 1.185 . S
O98 Zn94 2.086 . S
C99 O95 1.278 . S
C99 O100 1.211 . S
O100 C99 1.211 . S
C101 O93 1.284 . S
C101 O102 1.273 . S
O102 C101 1.273 . S
O103 Zn94 1.977 . S
O103 C96 1.267 . S
C104 O105 1.160 . S
C104 O111 1.185 . S
O105 C104 1.160 . S
O106 Zn107 1.899 . S
O106 C114 1.284 . S
Zn107 O106 1.899 . S
Zn107 O108 2.032 . S
Zn107 O111 2.086 . S
Zn107 O116 1.977 . S
O108 Zn107 2.032 . S
O108 C112 1.278 . S
C109 O110 1.203 . S
C109 O116 1.267 . S
O110 C109 1.203 . S
O111 C104 1.185 . S
O111 Zn107 2.086 . S
C112 O108 1.278 . S
C112 O113 1.211 . S
O113 C112 1.211 . S
C114 O106 1.284 . S
C114 O115 1.273 . S
O115 C114 1.273 . S
O116 Zn107 1.977 . S
O116 C109 1.267 . S
C117 O118 1.160 . S
C117 O124 1.185 . S
O118 C117 1.160 . S
O119 Zn120 1.899 . S
O119 C127 1.284 . S
Zn120 O119 1.899 . S
Zn120 O121 2.032 . S
Zn120 O124 2.086 . S
Zn120 O129 1.977 . S
O121 Zn120 2.032 . S
O121 C125 1.278 . S
C122 O123 1.203 . S
C122 O129 1.267 . S
O123 C122 1.203 . S
O124 C117 1.185 . S
O124 Zn120 2.086 . S
C125 O121 1.278 . S
C125 O126 1.211 . S
O126 C125 1.211 . S
C127 O119 1.284 . S
C127 O128 1.273 . S
O128 C127 1.273 . S
O129 Zn120 1.977 . S
O129 C122 1.267 . S
C130 O131 1.160 . S
C130 O137 1.185 . S
O131 C130 1.160 . S
O132 Zn133 1.899 . S
O132 C140 1.284 . S
Zn133 O132 1.899 . S
Zn133 O134 2.032 . S
Zn133 O137 2.086 1_554 S
Zn133 O142 1.977 . S
O134 Zn133 2.032 . S
O134 C138 1.278 . S
C135 O136 1.203 . S
C135 O142 1.267 . S
O136 C135 1.203 . S
O137 C130 1.185 . S
O137 Zn133 2.086 1_556 S
C138 O134 1.278 . S
C138 O139 1.211 . S
O139 C138 1.211 . S
C140 O132 1.284 . S
C140 O141 1.273 . S
O141 C140 1.273 . S
O142 Zn133 1.977 . S
O142 C135 1.267 . S
C143 O144 1.160 . S
C143 O150 1.185 . S
O144 C143 1.160 . S
O145 Zn146 1.899 . S
O145 C153 1.284 . S
Zn146 O145 1.899 . S
Zn146 O147 2.032 . S
Zn146 O150 2.086 . S
Zn146 O155 1.977 . S
O147 Zn146 2.032 . S
O147 C151 1.278 . S
C148 O149 1.203 . S
C148 O155 1.267 . S
O149 C148 1.203 . S
O150 C143 1.185 . S
O150 Zn146 2.086 . S
C151 O147 1.278 . S
C151 O152 1.211 . S
O152 C151 1.211 . S
C153 O145 1.284 . S
C153 O154 1.273 . S
O154 C153 1.273 . S
O155 Zn146 1.977 . S
O155 C148 1.267 . S
C156 O157 1.160 . S
C156 O163 1.185 . S
O157 C156 1.160 . S
O158 Zn159 1.899 . S
O158 C166 1.284 . S
Zn159 O158 1.899 . S
Zn159 O160 2.032 . S
Zn159 O163 2.086 . S
Zn159 O168 1.977 . S
O160 Zn159 2.032 . S
O160 C164 1.278 . S
C161 O162 1.203 . S
C161 O168 1.267 . S
O162 C161 1.203 . S
O163 C156 1.185 . S
O163 Zn159 2.086 . S
C164 O160 1.278 . S
C164 O165 1.211 . S
O165 C164 1.211 . S
C166 O158 1.284 . S
C166 O167 1.273 . S
O167 C166 1.273 . S
O168 Zn159 1.977 . S
O168 C161 1.267 . S
C169 O170 1.160 . S
C169 O176 1.185 . S
O170 C169 1.160 . S
O171 Zn172 1.899 . S
O171 C179 1.284 . S
Zn172 O171 1.899 . S
Zn172 O173 2.032 . S
Zn172 O176 2.086 . S
Zn172 O181 1.977 . S
O173 Zn172 2.032 . S
O173 C177 1.278 . S
C174 O175 1.203 . S
C174 O181 1.267 . S
O175 C174 1.203 . S
O176 C169 1.185 . S
O176 Zn172 2.086 . S
C177 O173 1.278 . S
C177 O178 1.211 . S
O178 C177 1.211 . S
C179 O171 1.284 . S
C179 O180 1.273 . S
O180 C179 1.273 . S
O181 Zn172 1.977 . S
O181 C174 1.267 . S
C182 O183 1.160 . S
C182 O189 1.185 . S
O183 C182 1.160 . S
O184 Zn185 1.899 . S
O184 C192 1.284 . S
Zn185 O184 1.899 . S
Zn185 O186 2.032 . S
Zn185 O189 2.086 1_556 S
Zn185 O194 1.977 . S
O186 Zn185 2.032 . S
O186 C190 1.278 . S
C187 O188 1.203 . S
C187 O194 1.267 . S
O188 C187 1.203 . S
O189 C182 1.185 . S
O189 Zn185 2.086 1_554 S
C190 O186 1.278 . S
C190 O191 1.211 . S
O191 C190 1.211 . S
C192 O184 1.284 . S
C192 O193 1.273 . S
O193 C192 1.273 . S
O194 Zn185 1.977 . S
O194 C187 1.267 . S
C195 O196 1.160 . S
C195 O202 1.185 . S
O196 C195 1.160 . S
O197 Zn198 1.899 . S
O197 C205 1.284 . S
Zn198 O197 1.899 . S
Zn198 O199 2.032 . S
Zn198 O202 2.086 . S
Zn198 O207 1.977 . S
O199 Zn198 2.032 . S
O199 C203 1.278 . S
C200 O201 1.203 . S
C200 O207 1.267 . S
O201 C200 1.203 . S
O202 C195 1.185 . S
O202 Zn198 2.086 . S
C203 O199 1.278 . S
C203 O204 1.211 . S
O204 C203 1.211 . S
C205 O197 1.284 . S
C205 O206 1.273 . S
O206 C205 1.273 . S
O207 Zn198 1.977 . S
O207 C200 1.267 . S
C208 O209 1.160 . S
C208 O215 1.185 . S
O209 C208 1.160 . S
O210 Zn211 1.899 . S
O210 C218 1.284 . S
Zn211 O210 1.899 . S
Zn211 O212 2.032 . S
Zn211 O215 2.086 . S
Zn211 O220 1.977 . S
O212 Zn211 2.032 . S
O212 C216 1.278 . S
C213 O214 1.203 . S
C213 O220 1.267 . S
O214 C213 1.203 . S
O215 C208 1.185 . S
O215 Zn211 2.086 . S
C216 O212 1.278 . S
C216 O217 1.211 . S
O217 C216 1.211 . S
C218 O210 1.284 . S
C218 O219 1.273 . S
O219 C218 1.273 . S
O220 Zn211 1.977 . S
O220 C213 1.267 . S
C221 O222 1.160 . S
C221 O228 1.185 . S
O222 C221 1.160 . S
O223 Zn224 1.899 . S
O223 C231 1.284 . S
Zn224 O223 1.899 . S
Zn224 O225 2.032 . S
Zn224 O228 2.086 1_455 S
Zn224 O233 1.977 . S
O225 Zn224 2.032 . S
O225 C229 1.278 . S
C226 O227 1.203 . S
C226 O233 1.267 . S
O227 C226 1.203 . S
O228 C221 1.185 . S
O228 Zn224 2.086 1_655 S
C229 O225 1.278 . S
C229 O230 1.211 . S
O230 C229 1.211 . S
C231 O223 1.284 . S
C231 O232 1.273 . S
O232 C231 1.273 . S
O233 Zn224 1.977 . S
O233 C226 1.267 . S
C234 O235 1.160 . S
C234 O241 1.185 . S
O235 C234 1.160 . S
O236 Zn237 1.899 . S
O236 C244 1.284 . S
Zn237 O236 1.899 . S
Zn237 O238 2.032 . S
Zn237 O241 2.086 . S
Zn237 O246 1.977 . S
O238 Zn237 2.032 . S
O238 C242 1.278 . S
C239 O240 1.203 . S
C239 O246 1.267 . S
O240 C239 1.203 . S
O241 C234 1.185 . S
O241 Zn237 2.086 . S
C242 O238 1.278 . S
C242 O243 1.211 . S
O243 C242 1.211 . S
C244 O236 1.284 . S
C244 O245 1.273 . S
O245 C244 1.273 . S
O246 Zn237 1.977 . S
O246 C239 1.267 . S
C247 O248 1.160 . S
C247 O254 1.185 . S
O248 C247 1.160 . S
O249 Zn250 1.899 . S
O249 C257 1.284 . S
Zn250 O249 1.899 . S
Zn250 O251 2.032 . S
Zn250 O254 2.086 1_655 S
Zn250 O259 1.977 . S
O251 Zn250 2.032 . S
O251 C255 1.278 . S
C252 O253 1.203 . S
C252 O259 1.267 . S
O253 C252 1.203 . S
O254 C247 1.185 . S
O254 Zn250 2.086 1_455 S
C255 O251 1.278 . S
C255 O256 1.211 . S
O256 C255 1.211 . S
C257 O249 1.284 . S
C257 O258 1.273 . S
O258 C257 1.273 . S
O259 Zn250 1.977 . S
O259 C252 1.267 . S
C260 O261 1.160 . S
C260 O267 1.185 . S
O261 C260 1.160 . S
O262 Zn263 1.899 . S
O262 C270 1.284 . S
Zn263 O262 1.899 . S
Zn263 O264 2.032 . S
Zn263 O267 2.086 . S
Zn263 O272 1.977 . S
O264 Zn263 2.032 . S
O264 C268 1.278 . S
C265 O266 1.203 . S
C265 O272 1.267 . S
O266 C265 1.203 . S
O267 C260 1.185 . S
O267 Zn263 2.086 . S
C268 O264 1.278 . S
C268 O269 1.211 . S
O269 C268 1.211 . S
C270 O262 1.284 . S
C270 O271 1.273 . S
O271 C270 1.273 . S
O272 Zn263 1.977 . S
O272 C265 1.267 . S
C273 O274 1.160 . S
C273 O280 1.185 . S
O274 C273 1.160 . S
O275 Zn276 1.899 . S
O275 C283 1.284 . S
Zn276 O275 1.899 . S
Zn276 O277 2.032 . S
Zn276 O280 2.086 . S
Zn276 O285 1.977 . S
O277 Zn276 2.032 . S
O277 C281 1.278 . S
C278 O279 1.203 . S
C278 O285 1.267 . S
O279 C278 1.203 . S
O280 C273 1.185 . S
O280 Zn276 2.086 . S
C281 O277 1.278 . S
C281 O282 1.211 . S
O282 C281 1.211 . S
C283 O275 1.284 . S
C283 O284 1.273 . S
O284 C283 1.273 . S
O285 Zn276 1.977 . S
O285 C278 1.267 . S
C286 O287 1.160 . S
C286 O293 1.185 . S
O287 C286 1.160 . S
O288 Zn289 1.899 . S
O288 C296 1.284 . S
Zn289 O288 1.899 . S
Zn289 O290 2.032 . S
Zn289 O293 2.086 . S
Zn289 O298 1.977 . S
O290 Zn289 2.032 . S
O290 C294 1.278 . S
C291 O292 1.203 . S
C291 O298 1.267 . S
O292 C291 1.203 . S
O293 C286 1.185 . S
O293 Zn289 2.086 . S
C294 O290 1.278 . S
C294 O295 1.211 . S
O295 C294 1.211 . S
C296 O288 1.284 . S
C296 O297 1.273 . S
O297 C296 1.273 . S
O298 Zn289 1.977 . S
O298 C291 1.267 . S
C299 O300 1.160 . S
C299 O306 1.185 . S
O300 C299 1.160 . S
O301 Zn302 1.899 . S
O301 C309 1.284 . S
Zn302 O301 1.899 . S
Zn302 O303 2.032 . S
Zn302 O306 2.086 . S
Zn302 O311 1.977 . S
O303 Zn302 2.032 . S
O303 C307 1.278 . S
C304 O305 1.203 . S
C304 O311 1.267 . S
O305 C304 1.203 . S
O306 C299 1.185 . S
O306 Zn302 2.086 . S
C307 O303 1.278 . S
C307 O308 1.211 . S
O308 C307 1.211 . S
C309 O301 1.284 . S
C309 O310 1.273 . S
O310 C309 1.273 . S
O311 Zn302 1.977 . S
O311 C304 1.267 . S
C312 O313 1.160 . S
C312 O319 1.185 . S
O313 C312 1.160 . S
O314 Zn315 1.899 . S
O314 C322 1.284 . S
Zn315 O314 1.899 . S
Zn315 O316 2.032 . S
Zn315 O319 2.086 1_545 S
Zn315 O324 1.977 . S
O316 Zn315 2.032 . S
O316 C320 1.278 . S
C317 O318 1.203 . S
C317 O324 1.267 . S
O318 C317 1.203 . S
O319 C312 1.185 . S
O319 Zn315 2.086 1_565 S
C320 O316 1.278 . S
C320 O321 1.211 . S
O321 C320 1.211 . S
C322 O314 1.284 . S
C322 O323 1.273 . S
O323 C322 1.273 . S
O324 Zn315 1.977 . S
O324 C317 1.267 . S
C325 O326 1.160 . S
C325 O332 1.185 . S
O326 C325 1.160 . S
O327 Zn328 1.899 . S
O327 C335 1.284 . S
Zn328 O327 1.899 . S
Zn328 O329 2.032 . S
Zn328 O332 2.086 . S
Zn328 O337 1.977 . S
O329 Zn328 2.032 . S
O329 C333 1.278 . S
C330 O331 1.203 . S
C330 O337 1.267 . S
O331 C330 1.203 . S
O332 C325 1.185 . S
O332 Zn328 2.086 . S
C333 O329 1.278 . S
C333 O334 1.211 . S
O334 C333 1.211 . S
C335 O327 1.284 . S
C335 O336 1.273 . S
O336 C335 1.273 . S
O337 Zn328 1.977 . S
O337 C330 1.267 . S
C338 O339 1.160 . S
C338 O345 1.185 . S
O339 C338 1.160 . S
O340 Zn341 1.899 . S
O340 C348 1.284 . S
Zn341 O340 1.899 . S
Zn341 O342 2.032 . S
Zn341 O345 2.086 . S
Zn341 O350 1.977 . S
O342 Zn341 2.032 . S
O342 C346 1.278 . S
C343 O344 1.203 . S
C343 O350 1.267 . S
O344 C343 1.203 . S
O345 C338 1.185 . S
O345 Zn341 2.086 . S
C346 O342 1.278 . S
C346 O347 1.211 . S
O347 C346 1.211 . S
C348 O340 1.284 . S
C348 O349 1.273 . S
O349 C348 1.273 . S
O350 Zn341 1.977 . S
O350 C343 1.267 . S
C351 O352 1.160 . S
C351 O358 1.185 . S
O352 C351 1.160 . S
O353 Zn354 1.899 . S
O353 C361 1.284 . S
Zn354 O353 1.899 . S
Zn354 O355 2.032 . S
Zn354 O358 2.086 . S
Zn354 O363 1.977 . S
O355 Zn354 2.032 . S
O355 C359 1.278 . S
C356 O357 1.203 . S
C356 O363 1.267 . S
O357 C356 1.203 . S
O358 C351 1.185 . S
O358 Zn354 2.086 . S
C359 O355 1.278 . S
C359 O360 1.211 . S
O360 C359 1.211 . S
C361 O353 1.284 . S
C361 O362 1.273 . S
O362 C361 1.273 . S
O363 Zn354 1.977 . S
O363 C356 1.267 . S
C364 O365 1.160 . S
C364 O371 1.185 . S
O365 C364 1.160 . S
O366 Zn367 1.899 . S
O366 C374 1.284 . S
Zn367 O366 1.899 . S
Zn367 O368 2.032 . S
Zn367 O371 2.086 1_565 S
Zn367 O376 1.977 . S
O368 Zn367 2.032 . S
O368 C372 1.278 . S
C369 O370 1.203 . S
C369 O376 1.267 . S
O370 C369 1.203 . S
O371 C364 1.185 . S
O371 Zn367 2.086 1_545 S
C372 O368 1.278 . S
C372 O373 1.211 . S
O373 C372 1.211 . S
C374 O366 1.284 . S
C374 O375 1.273 . S
O375 C374 1.273 . S
O376 Zn367 1.977 . S
O376 C369 1.267 . S
C377 O378 1.160 . S
C377 O384 1.185 . S
O378 C377 1.160 . S
O379 Zn380 1.899 . S
O379 C387 1.284 . S
Zn380 O379 1.899 . S
Zn380 O381 2.032 . S
Zn380 O384 2.086 . S
Zn380 O389 1.977 . S
O381 Zn380 2.032 . S
O381 C385 1.278 . S
C382 O383 1.203 . S
C382 O389 1.267 . S
O383 C382 1.203 . S
O384 C377 1.185 . S
O384 Zn380 2.086 . S
C385 O381 1.278 . S
C385 O386 1.211 . S
O386 C385 1.211 . S
C387 O379 1.284 . S
C387 O388 1.273 . S
O388 C387 1.273 . S
O389 Zn380 1.977 . S
O389 C382 1.267 . S
C390 O391 1.160 . S
C390 O397 1.185 . S
O391 C390 1.160 . S
O392 Zn393 1.899 . S
O392 C400 1.284 . S
Zn393 O392 1.899 . S
Zn393 O394 2.032 . S
Zn393 O397 2.086 . S
Zn393 O402 1.977 . S
O394 Zn393 2.032 . S
O394 C398 1.278 . S
C395 O396 1.203 . S
C395 O402 1.267 . S
O396 C395 1.203 . S
O397 C390 1.185 . S
O397 Zn393 2.086 . S
C398 O394 1.278 . S
C398 O399 1.211 . S
O399 C398 1.211 . S
C400 O392 1.284 . S
C400 O401 1.273 . S
O401 C400 1.273 . S
O402 Zn393 1.977 . S
O402 C395 1.267 . S
C403 O404 1.160 . S
C403 O410 1.185 . S
O404 C403 1.160 . S
O405 Zn406 1.899 . S
O405 C413 1.284 . S
Zn406 O405 1.899 . S
Zn406 O407 2.032 . S
Zn406 O410 2.086 . S
Zn406 O415 1.977 . S
O407 Zn406 2.032 . S
O407 C411 1.278 . S
C408 O409 1.203 . S
C408 O415 1.267 . S
O409 C408 1.203 . S
O410 C403 1.185 . S
O410 Zn406 2.086 . S
C411 O407 1.278 . S
C411 O412 1.211 . S
O412 C411 1.211 . S
C413 O405 1.284 . S
C413 O414 1.273 . S
O414 C413 1.273 . S
O415 Zn406 1.977 . S
O415 C408 1.267 . S
C416 O417 1.160 . S
C416 O423 1.185 . S
O417 C416 1.160 . S
O418 Zn419 1.899 . S
O418 C426 1.284 . S
Zn419 O418 1.899 . S
Zn419 O420 2.032 . S
Zn419 O423 2.086 1_554 S
Zn419 O428 1.977 . S
O420 Zn419 2.032 . S
O420 C424 1.278 . S
C421 O422 1.203 . S
C421 O428 1.267 . S
O422 C421 1.203 . S
O423 C416 1.185 . S
O423 Zn419 2.086 1_556 S
C424 O420 1.278 . S
C424 O425 1.211 . S
O425 C424 1.211 . S
C426 O418 1.284 . S
C426 O427 1.273 . S
O427 C426 1.273 . S
O428 Zn419 1.977 . S
O428 C421 1.267 . S
C429 O430 1.160 . S
C429 O436 1.185 . S
O430 C429 1.160 . S
O431 Zn432 1.899 . S
O431 C439 1.284 . S
Zn432 O431 1.899 . S
Zn432 O433 2.032 . S
Zn432 O436 2.086 . S
Zn432 O441 1.977 . S
O433 Zn432 2.032 . S
O433 C437 1.278 . S
C434 O435 1.203 . S
C434 O441 1.267 . S
O435 C434 1.203 . S
O436 C429 1.185 . S
O436 Zn432 2.086 . S
C437 O433 1.278 . S
C437 O438 1.211 . S
O438 C437 1.211 . S
C439 O431 1.284 . S
C439 O440 1.273 . S
O440 C439 1.273 . S
O441 Zn432 1.977 . S
O441 C434 1.267 . S
C442 O443 1.160 . S
C442 O449 1.185 . S
O443 C442 1.160 . S
O444 Zn445 1.899 . S
O444 C452 1.284 . S
Zn445 O444 1.899 . S
Zn445 O446 2.032 . S
Zn445 O449 2.086 . S
Zn445 O454 1.977 . S
O446 Zn445 2.032 . S
O446 C450 1.278 . S
C447 O448 1.203 . S
C447 O454 1.267 . S
O448 C447 1.203 . S
O449 C442 1.185 . S
O449 Zn445 2.086 . S
C450 O446 1.278 . S
C450 O451 1.211 . S
O451 C450 1.211 . S
C452 O444 1.284 . S
C452 O453 1.273 . S
O453 C452 1.273 . S
O454 Zn445 1.977 . S
O454 C447 1.267 . S
C455 O456 1.160 . S
C455 O462 1.185 . S
O456 C455 1.160 . S
O457 Zn458 1.899 . S
O457 C465 1.284 . S
Zn458 O457 1.899 . S
Zn458 O459 2.032 . S
Zn458 O462 2.086 . S
Zn458 O467 1.977 . S
O459 Zn458 2.032 . S
O459 C463 1.278 . S
C460 O461 1.203 . S
C460 O467 1.267 . S
O461 C460 1.203 . S
O462 C455 1.185 . S
O462 Zn458 2.086 . S
C463 O459 1.278 . S
C463 O464 1.211 . S
O464 C463 1.211 . S
C465 O457 1.284 . S
C465 O466 1.273 . S
O466 C465 1.273 . S
O467 Zn458 1.977 . S
O467 C460 1.267 . S
C468 O469 1.160 . S
C468 O475 1.185 . S
O469 C468 1.160 . S
O470 Zn471 1.899 . S
O470 C478 1.284 . S
Zn471 O470 1.899 . S
Zn471 O472 2.032 . S
Zn471 O475 2.086 1_556 S
Zn471 O480 1.977 . S
O472 Zn471 2.032 . S
O472 C476 1.278 . S
C473 O474 1.203 . S
C473 O480 1.267 . S
O474 C473 1.203 . S
O475 C468 1.185 . S
O475 Zn471 2.086 1_554 S
C476 O472 1.278 . S
C476 O477 1.211 . S
O477 C476 1.211 . S
C478 O470 1.284 . S
C478 O479 1.273 . S
O479 C478 1.273 . S
O480 Zn471 1.977 . S
O480 C473 1.267 . S
C481 O482 1.160 . S
C481 O488 1.185 . S
O482 C481 1.160 . S
O483 Zn484 1.899 . S
O483 C491 1.284 . S
Zn484 O483 1.899 . S
Zn484 O485 2.032 . S
Zn484 O488 2.086 . S
Zn484 O493 1.977 . S
O485 Zn484 2.032 . S
O485 C489 1.278 . S
C486 O487 1.203 . S
C486 O493 1.267 . S
O487 C486 1.203 . S
O488 C481 1.185 . S
O488 Zn484 2.086 . S
C489 O485 1.278 . S
C489 O490 1.211 . S
O490 C489 1.211 . S
C491 O483 1.284 . S
C491 O492 1.273 . S
O492 C491 1.273 . S
O493 Zn484 1.977 . S
O493 C486 1.267 . S
C494 O495 1.160 . S
C494 O501 1.185 . S
O495 C494 1.160 . S
O496 Zn497 1.899 . S
O496 C504 1.284 . S
Zn497 O496 1.899 . S
Zn497 O498 2.032 . S
Zn497 O501 2.086 . S
Zn497 O506 1.977 . S
O498 Zn497 2.032 . S
O498 C502 1.278 . S
C499 O500 1.203 . S
C499 O506 1.267 . S
O500 C499 1.203 . S
O501 C494 1.185 . S
O501 Zn497 2.086 . S
C502 O498 1.278 . S
C502 O503 1.211 . S
O503 C502 1.211 . S
C504 O496 1.284 . S
C504 O505 1.273 . S
O505 C504 1.273 . S
O506 Zn497 1.977 . S
O506 C499 1.267 . S
C507 O508 1.160 . S
C507 O514 1.185 . S
O508 C507 1.160 . S
O509 Zn510 1.899 . S
O509 C517 1.284 . S
Zn510 O509 1.899 . S
Zn510 O511 2.032 . S
Zn510 O514 2.086 . S
Zn510 O519 1.977 . S
O511 Zn510 2.032 . S
O511 C515 1.278 . S
C512 O513 1.203 . S
C512 O519 1.267 . S
O513 C512 1.203 . S
O514 C507 1.185 . S
O514 Zn510 2.086 . S
C515 O511 1.278 . S
C515 O516 1.211 . S
O516 C515 1.211 . S
C517 O509 1.284 . S
C517 O518 1.273 . S
O518 C517 1.273 . S
O519 Zn510 1.977 . S
O519 C512 1.267 . S
C520 O521 1.160 . S
C520 O527 1.185 . S
O521 C520 1.160 . S
O522 Zn523 1.899 . S
O522 C530 1.284 . S
Zn523 O522 1.899 . S
Zn523 O524 2.032 . S
Zn523 O527 2.086 . S
Zn523 O532 1.977 . S
O524 Zn523 2.032 . S
O524 C528 1.278 . S
C525 O526 1.203 . S
C525 O532 1.267 . S
O526 C525 1.203 . S
O527 C520 1.185 . S
O527 Zn523 2.086 . S
C528 O524 1.278 . S
C528 O529 1.211 . S
O529 C528 1.211 . S
C530 O522 1.284 . S
C530 O531 1.273 . S
O531 C530 1.273 . S
O532 Zn523 1.977 . S
O532 C525 1.267 . S
C533 O534 1.160 . S
C533 O540 1.185 . S
O534 C533 1.160 . S
O535 Zn536 1.899 . S
O535 C543 1.284 . S
Zn536 O535 1.899 . S
Zn536 O537 2.032 . S
Zn536 O540 2.086 1_455 S
Zn536 O545 1.977 . S
O537 Zn536 2.032 . S
O537 C541 1.278 . S
C538 O539 1.203 . S
C538 O545 1.267 . S
O539 C538 1.203 . S
O540 C533 1.185 . S
O540 Zn536 2.086 1_655 S
C541 O537 1.278 . S
C541 O542 1.211 . S
O542 C541 1.211 . S
C543 O535 1.284 . S
C543 O544 1.273 . S
O544 C543 1.273 . S
O545 Zn536 1.977 . S
O545 C538 1.267 . S
C546 O547 1.160 . S
C546 O553 1.185 . S
O547 C546 1.160 . S
O548 Zn549 1.899 . S
O548 C556 1.284 . S
Zn549 O548 1.899 . S
Zn549 O550 2.032 . S
Zn549 O553 2.086 . S
Zn549 O558 1.977 . S
O550 Zn549 2.032 . S
O550 C554 1.278 . S
C551 O552 1.203 . S
C551 O558 1.267 . S
O552 C551 1.203 . S
O553 C546 1.185 . S
O553 Zn549 2.086 . S
C554 O550 1.278 . S
C554 O555 1.211 . S
O555 C554 1.211 . S
C556 O548 1.284 . S
C556 O557 1.273 . S
O557 C556 1.273 . S
O558 Zn549 1.977 . S
O558 C551 1.267 . S
C559 O560 1.160 . S
C559 O566 1.185 . S
O560 C559 1.160 . S
O561 Zn562 1.899 . S
O561 C569 1.284 . S
Zn562 O561 1.899 . S
Zn562 O563 2.032 . S
Zn562 O566 2.086 1_655 S
Zn562 O571 1.977 . S
O563 Zn562 2.032 . S
O563 C567 1.278 . S
C564 O565 1.203 . S
C564 O571 1.267 . S
O565 C564 1.203 . S
O566 C559 1.185 . S
O566 Zn562 2.086 1_455 S
C567 O563 1.278 . S
C567 O568 1.211 . S
O568 C567 1.211 . S
C569 O561 1.284 . S
C569 O570 1.273 . S
O570 C569 1.273 . S
O571 Zn562 1.977 . S
O571 C564 1.267 . S
C572 O573 1.160 . S
C572 O579 1.185 . S
O573 C572 1.160 . S
O574 Zn575 1.899 . S
O574 C582 1.284 . S
Zn575 O574 1.899 . S
Zn575 O576 2.032 . S
Zn575 O579 2.086 . S
Zn575 O584 1.977 . S
O576 Zn575 2.032 . S
O576 C580 1.278 . S
C577 O578 1.203 . S
C577 O584 1.267 . S
O578 C577 1.203 . S
O579 C572 1.185 . S
O579 Zn575 2.086 . S
C580 O576 1.278 . S
C580 O581 1.211 . S
O581 C580 1.211 . S
C582 O574 1.284 . S
C582 O583 1.273 . S
O583 C582 1.273 . S
O584 Zn575 1.977 . S
O584 C577 1.267 . S
C585 O586 1.160 . S
C585 O592 1.185 . S
O586 C585 1.160 . S
O587 Zn588 1.899 . S
O587 C595 1.284 . S
Zn588 O587 1.899 . S
Zn588 O589 2.032 . S
Zn588 O592 2.086 . S
Zn588 O597 1.977 . S
O589 Zn588 2.032 . S
O589 C593 1.278 . S
C590 O591 1.203 . S
C590 O597 1.267 . S
O591 C590 1.203 . S
O592 C585 1.185 . S
O592 Zn588 2.086 . S
C593 O589 1.278 . S
C593 O594 1.211 . S
O594 C593 1.211 . S
C595 O587 1.284 . S
C595 O596 1.273 . S
O596 C595 1.273 . S
O597 Zn588 1.977 . S
O597 C590 1.267 . S
C598 O599 1.160 . S
C598 O605 1.185 . S
O599 C598 1.160 . S
O600 Zn601 1.899 . S
O600 C608 1.284 . S
Zn601 O600 1.899 . S
Zn601 O602 2.032 . S
Zn601 O605 2.086 . S
Zn601 O610 1.977 . S
O602 Zn601 2.032 . S
O602 C606 1.278 . S
C603 O604 1.203 . S
C603 O610 1.267 . S
O604 C603 1.203 . S
O605 C598 1.185 . S
O605 Zn601 2.086 . S
C606 O602 1.278 . S
C606 O607 1.211 . S
O607 C606 1.211 . S
C608 O600 1.284 . S
C608 O609 1.273 . S
O609 C608 1.273 . S
O610 Zn601 1.977 . S
O610 C603 1.267 . S
C611 O612 1.160 . S
C611 O618 1.185 . S
O612 C611 1.160 . S
O613 Zn614 1.899 . S
O613 C621 1.284 . S
Zn614 O613 1.899 . S
Zn614 O615 2.032 . S
Zn614 O618 2.086 . S
Zn614 O623 1.977 . S
O615 Zn614 2.032 . S
O615 C619 1.278 . S
C616 O617 1.203 . S
C616 O623 1.267 . S
O617 C616 1.203 . S
O618 C611 1.185 . S
O618 Zn614 2.086 . S
C619 O615 1.278 . S
C619 O620 1.211 . S
O620 C619 1.211 . S
C621 O613 1.284 . S
C621 O622 1.273 . S
O622 C621 1.273 . S
O623 Zn614 1.977 . S
O623 C616 1.267 . S
C624 O625 1.160 . S
C624 O631 1.185 . S
O625 C624 1.160 . S
O626 Zn627 1.899 . S
O626 C634 1.284 . S
Zn627 O626 1.899 . S
Zn627 O628 2.032 . S
Zn627 O631 2.086 . S
Zn627 O636 1.977 . S
O628 Zn627 2.032 . S
O628 C632 1.278 . S
C629 O630 1.203 . S
C629 O636 1.267 . S
O630 C629 1.203 . S
O631 C624 1.185 . S
O631 Zn627 2.086 . S
C632 O628 1.278 . S
C632 O633 1.211 . S
O633 C632 1.211 . S
C634 O626 1.284 . S
C634 O635 1.273 . S
O635 C634 1.273 . S
O636 Zn627 1.977 . S
O636 C629 1.267 . S
C637 O638 1.160 . S
C637 O644 1.185 . S
O638 C637 1.160 . S
O639 Zn640 1.899 . S
O639 C647 1.284 . S
Zn640 O639 1.899 . S
Zn640 O641 2.032 . S
Zn640 O644 2.086 . S
Zn640 O649 1.977 . S
O641 Zn640 2.032 . S
O641 C645 1.278 . S
C642 O643 1.203 . S
C642 O649 1.267 . S
O643 C642 1.203 . S
O644 C637 1.185 . S
O644 Zn640 2.086 . S
C645 O641 1.278 . S
C645 O646 1.211 . S
O646 C645 1.211 . S
C647 O639 1.284 . S
C647 O648 1.273 . S
O648 C647 1.273 . S
O649 Zn640 1.977 . S
O649 C642 1.267 . S
C650 O651 1.160 . S
C650 O657 1.185 . S
O651 C650 1.160 . S
O652 Zn653 1.899 . S
O652 C660 1.284 . S
Zn653 O652 1.899 . S
Zn653 O654 2.032 . S
Zn653 O657 2.086 1_565 S
Zn653 O662 1.977 . S
O654 Zn653 2.032 . S
O654 C658 1.278 . S
C655 O656 1.203 . S
C655 O662 1.267 . S
O656 C655 1.203 . S
O657 C650 1.185 . S
O657 Zn653 2.086 1_545 S
C658 O654 1.278 . S
C658 O659 1.211 . S
O659 C658 1.211 . S
C660 O652 1.284 . S
C660 O661 1.273 . S
O661 C660 1.273 . S
O662 Zn653 1.977 . S
O662 C655 1.267 . S
C663 O664 1.160 . S
C663 O670 1.185 . S
O664 C663 1.160 . S
O665 Zn666 1.899 . S
O665 C673 1.284 . S
Zn666 O665 1.899 . S
Zn666 O667 2.032 . S
Zn666 O670 2.086 . S
Zn666 O675 1.977 . S
O667 Zn666 2.032 . S
O667 C671 1.278 . S
C668 O669 1.203 . S
C668 O675 1.267 . S
O669 C668 1.203 . S
O670 C663 1.185 . S
O670 Zn666 2.086 . S
C671 O667 1.278 . S
C671 O672 1.211 . S
O672 C671 1.211 . S
C673 O665 1.284 . S
C673 O674 1.273 . S
O674 C673 1.273 . S
O675 Zn666 1.977 . S
O675 C668 1.267 . S
C676 O677 1.160 . S
C676 O683 1.185 . S
O677 C676 1.160 . S
O678 Zn679 1.899 . S
O678 C686 1.284 . S
Zn679 O678 1.899 . S
Zn679 O680 2.032 . S
Zn679 O683 2.086 . S
Zn679 O688 1.977 . S
O680 Zn679 2.032 . S
O680 C684 1.278 . S
C681 O682 1.203 . S
C681 O688 1.267 . S
O682 C681 1.203 . S
O683 C676 1.185 . S
O683 Zn679 2.086 . S
C684 O680 1.278 . S
C684 O685 1.211 . S
O685 C684 1.211 . S
C686 O678 1.284 . S
C686 O687 1.273 . S
O687 C686 1.273 . S
O688 Zn679 1.977 . S
O688 C681 1.267 . S
C689 O690 1.160 . S
C689 O696 1.185 . S
O690 C689 1.160 . S
O691 Zn692 1.899 . S
O691 C699 1.284 . S
Zn692 O691 1.899 . S
Zn692 O693 2.032 . S
Zn692 O696 2.086 . S
Zn692 O701 1.977 . S
O693 Zn692 2.032 . S
O693 C697 1.278 . S
C694 O695 1.203 . S
C694 O701 1.267 . S
O695 C694 1.203 . S
O696 C689 1.185 . S
O696 Zn692 2.086 . S
C697 O693 1.278 . S
C697 O698 1.211 . S
O698 C697 1.211 . S
C699 O691 1.284 . S
C699 O700 1.273 . S
O700 C699 1.273 . S
O701 Zn692 1.977 . S
O701 C694 1.267 . S
C702 O703 1.160 . S
C702 O709 1.185 . S
O703 C702 1.160 . S
O704 Zn705 1.899 . S
O704 C712 1.284 . S
Zn705 O704 1.899 . S
Zn705 O706 2.032 . S
Zn705 O709 2.086 1_545 S
Zn705 O714 1.977 . S
O706 Zn705 2.032 . S
O706 C710 1.278 . S
C707 O708 1.203 . S
C707 O714 1.267 . S
O708 C707 1.203 . S
O709 C702 1.185 . S
O709 Zn705 2.086 1_565 S
C710 O706 1.278 . S
C710 O711 1.211 . S
O711 C710 1.211 . S
C712 O704 1.284 . S
C712 O713 1.273 . S
O713 C712 1.273 . S
O714 Zn705 1.977 . S
O714 C707 1.267 . S
C715 O716 1.160 . S
C715 O722 1.185 . S
O716 C715 1.160 . S
O717 Zn718 1.899 . S
O717 C725 1.284 . S
Zn718 O717 1.899 . S
Zn718 O719 2.032 . S
Zn718 O722 2.086 . S
Zn718 O727 1.977 . S
O719 Zn718 2.032 . S
O719 C723 1.278 . S
C720 O721 1.203 . S
C720 O727 1.267 . S
O721 C720 1.203 . S
O722 C715 1.185 . S
O722 Zn718 2.086 . S
C723 O719 1.278 . S
C723 O724 1.211 . S
O724 C723 1.211 . S
C725 O717 1.284 . S
C725 O726 1.273 . S
O726 C725 1.273 . S
O727 Zn718 1.977 . S
O727 C720 1.267 . S
C728 O729 1.160 . S
C728 O735 1.185 . S
O729 C728 1.160 . S
O730 Zn731 1.899 . S
O730 C738 1.284 . S
Zn731 O730 1.899 . S
Zn731 O732 2.032 . S
Zn731 O735 2.086 1_554 S
Zn731 O740 1.977 . S
O732 Zn731 2.032 . S
O732 C736 1.278 . S
C733 O734 1.203 . S
C733 O740 1.267 . S
O734 C733 1.203 . S
O735 C728 1.185 . S
O735 Zn731 2.086 1_556 S
C736 O732 1.278 . S
C736 O737 1.211 . S
O737 C736 1.211 . S
C738 O730 1.284 . S
C738 O739 1.273 . S
O739 C738 1.273 . S
O740 Zn731 1.977 . S
O740 C733 1.267 . S
C741 O742 1.160 . S
C741 O748 1.185 . S
O742 C741 1.160 . S
O743 Zn744 1.899 . S
O743 C751 1.284 . S
Zn744 O743 1.899 . S
Zn744 O745 2.032 . S
Zn744 O748 2.086 . S
Zn744 O753 1.977 . S
O745 Zn744 2.032 . S
O745 C749 1.278 . S
C746 O747 1.203 . S
C746 O753 1.267 . S
O747 C746 1.203 . S
O748 C741 1.185 . S
O748 Zn744 2.086 . S
C749 O745 1.278 . S
C749 O750 1.211 . S
O750 C749 1.211 . S
C751 O743 1.284 . S
C751 O752 1.273 . S
O752 C751 1.273 . S
O753 Zn744 1.977 . S
O753 C746 1.267 . S
C754 O755 1.160 . S
C754 O761 1.185 . S
O755 C754 1.160 . S
O756 Zn757 1.899 . S
O756 C764 1.284 . S
Zn757 O756 1.899 . S
Zn757 O758 2.032 . S
Zn757 O761 2.086 . S
Zn757 O766 1.977 . S
O758 Zn757 2.032 . S
O758 C762 1.278 . S
C759 O760 1.203 . S
C759 O766 1.267 . S
O760 C759 1.203 . S
O761 C754 1.185 . S
O761 Zn757 2.086 . S
C762 O758 1.278 . S
C762 O763 1.211 . S
O763 C762 1.211 . S
C764 O756 1.284 . S
C764 O765 1.273 . S
O765 C764 1.273 . S
O766 Zn757 1.977 . S
O766 C759 1.267 . S
C767 O768 1.160 . S
C767 O774 1.185 . S
O768 C767 1.160 . S
O769 Zn770 1.899 . S
O769 C777 1.284 . S
Zn770 O769 1.899 . S
Zn770 O771 2.032 . S
Zn770 O774 2.086 . S
Zn770 O779 1.977 . S
O771 Zn770 2.032 . S
O771 C775 1.278 . S
C772 O773 1.203 . S
C772 O779 1.267 . S
O773 C772 1.203 . S
O774 C767 1.185 . S
O774 Zn770 2.086 . S
C775 O771 1.278 . S
C775 O776 1.211 . S
O776 C775 1.211 . S
C777 O769 1.284 . S
C777 O778 1.273 . S
O778 C777 1.273 . S
O779 Zn770 1.977 . S
O779 C772 1.267 . S
C780 O781 1.160 . S
C780 O787 1.185 . S
O781 C780 1.160 . S
O782 Zn783 1.899 . S
O782 C790 1.284 . S
Zn783 O782 1.899 . S
Zn783 O784 2.032 . S
Zn783 O787 2.086 1_556 S
Zn783 O792 1.977 . S
O784 Zn783 2.032 . S
O784 C788 1.278 . S
C785 O786 1.203 . S
C785 O792 1.267 . S
O786 C785 1.203 . S
O787 C780 1.185 . S
O787 Zn783 2.086 1_554 S
C788 O784 1.278 . S
C788 O789 1.211 . S
O789 C788 1.211 . S
C790 O782 1.284 . S
C790 O791 1.273 . S
O791 C790 1.273 . S
O792 Zn783 1.977 . S
O792 C785 1.267 . S
C793 O794 1.160 . S
C793 O800 1.185 . S
O794 C793 1.160 . S
O795 Zn796 1.899 . S
O795 C803 1.284 . S
Zn796 O795 1.899 . S
Zn796 O797 2.032 . S
Zn796 O800 2.086 . S
Zn796 O805 1.977 . S
O797 Zn796 2.032 . S
O797 C801 1.278 . S
C798 O799 1.203 . S
C798 O805 1.267 . S
O799 C798 1.203 . S
O800 C793 1.185 . S
O800 Zn796 2.086 . S
C801 O797 1.278 . S
C801 O802 1.211 . S
O802 C801 1.211 . S
C803 O795 1.284 . S
C803 O804 1.273 . S
O804 C803 1.273 . S
O805 Zn796 1.977 . S
O805 C798 1.267 . S
C806 O807 1.160 . S
C806 O813 1.185 . S
O807 C806 1.160 . S
O808 Zn809 1.899 . S
O808 C816 1.284 . S
Zn809 O808 1.899 . S
Zn809 O810 2.032 . S
Zn809 O813 2.086 . S
Zn809 O818 1.977 . S
O810 Zn809 2.032 . S
O810 C814 1.278 . S
C811 O812 1.203 . S
C811 O818 1.267 . S
O812 C811 1.203 . S
O813 C806 1.185 . S
O813 Zn809 2.086 . S
C814 O810 1.278 . S
C814 O815 1.211 . S
O815 C814 1.211 . S
C816 O808 1.284 . S
C816 O817 1.273 . S
O817 C816 1.273 . S
O818 Zn809 1.977 . S
O818 C811 1.267 . S
C819 O820 1.160 . S
C819 O826 1.185 . S
O820 C819 1.160 . S
O821 Zn822 1.899 . S
O821 C829 1.284 . S
Zn822 O821 1.899 . S
Zn822 O823 2.032 . S
Zn822 O826 2.086 . S
Zn822 O831 1.977 . S
O823 Zn822 2.032 . S
O823 C827 1.278 . S
C824 O825 1.203 . S
C824 O831 1.267 . S
O825 C824 1.203 . S
O826 C819 1.185 . S
O826 Zn822 2.086 . S
C827 O823 1.278 . S
C827 O828 1.211 . S
O828 C827 1.211 . S
C829 O821 1.284 . S
C829 O830 1.273 . S
O830 C829 1.273 . S
O831 Zn822 1.977 . S
O831 C824 1.267 . S
C832 O833 1.160 . S
C832 O839 1.185 . S
O833 C832 1.160 . S
O834 Zn835 1.899 . S
O834 C842 1.284 . S
Zn835 O834 1.899 . S
Zn835 O836 2.032 . S
Zn835 O839 2.086 1_455 S
Zn835 O844 1.977 . S
O836 Zn835 2.032 . S
O836 C840 1.278 . S
C837 O838 1.203 . S
C837 O844 1.267 . S
O838 C837 1.203 . S
O839 C832 1.185 . S
O839 Zn835 2.086 1_655 S
C840 O836 1.278 . S
C840 O841 1.211 . S
O841 C840 1.211 . S
C842 O834 1.284 . S
C842 O843 1.273 . S
O843 C842 1.273 . S
O844 Zn835 1.977 . S
O844 C837 1.267 . S
C845 O846 1.160 . S
C845 O852 1.185 . S
O846 C845 1.160 . S
O847 Zn848 1.899 . S
O847 C855 1.284 . S
Zn848 O847 1.899 . S
Zn848 O849 2.032 . S
Zn848 O852 2.086 . S
Zn848 O857 1.977 . S
O849 Zn848 2.032 . S
O849 C853 1.278 . S
C850 O851 1.203 . S
C850 O857 1.267 . S
O851 C850 1.203 . S
O852 C845 1.185 . S
O852 Zn848 2.086 . S
C853 O849 1.278 . S
C853 O854 1.211 . S
O854 C853 1.211 . S
C855 O847 1.284 . S
C855 O856 1.273 . S
O856 C855 1.273 . S
O857 Zn848 1.977 . S
O857 C850 1.267 . S
C858 O859 1.160 . S
C858 O865 1.185 . S
O859 C858 1.160 . S
O860 Zn861 1.899 . S
O860 C868 1.284 . S
Zn861 O860 1.899 . S
Zn861 O862 2.032 . S
Zn861 O865 2.086 . S
Zn861 O870 1.977 . S
O862 Zn861 2.032 . S
O862 C866 1.278 . S
C863 O864 1.203 . S
C863 O870 1.267 . S
O864 C863 1.203 . S
O865 C858 1.185 . S
O865 Zn861 2.086 . S
C866 O862 1.278 . S
C866 O867 1.211 . S
O867 C866 1.211 . S
C868 O860 1.284 . S
C868 O869 1.273 . S
O869 C868 1.273 . S
O870 Zn861 1.977 . S
O870 C863 1.267 . S
C871 O872 1.160 . S
C871 O878 1.185 . S
O872 C871 1.160 . S
O873 Zn874 1.899 . S
O873 C881 1.284 . S
Zn874 O873 1.899 . S
Zn874 O875 2.032 . S
Zn874 O878 2.086 . S
Zn874 O883 1.977 . S
O875 Zn874 2.032 . S
O875 C879 1.278 . S
C876 O877 1.203 . S
C876 O883 1.267 . S
O877 C876 1.203 . S
O878 C871 1.185 . S
O878 Zn874 2.086 . S
C879 O875 1.278 . S
C879 O880 1.211 . S
O880 C879 1.211 . S
C881 O873 1.284 . S
C881 O882 1.273 . S
O882 C881 1.273 . S
O883 Zn874 1.977 . S
O883 C876 1.267 . S
C884 O885 1.160 . S
C884 O891 1.185 . S
O885 C884 1.160 . S
O886 Zn887 1.899 . S
O886 C894 1.284 . S
Zn887 O886 1.899 . S
Zn887 O888 2.032 . S
Zn887 O891 2.086 . S
Zn887 O896 1.977 . S
O888 Zn887 2.032 . S
O888 C892 1.278 . S
C889 O890 1.203 . S
C889 O896 1.267 . S
O890 C889 1.203 . S
O891 C884 1.185 . S
O891 Zn887 2.086 . S
C892 O888 1.278 . S
C892 O893 1.211 . S
O893 C892 1.211 . S
C894 O886 1.284 . S
C894 O895 1.273 . S
O895 C894 1.273 . S
O896 Zn887 1.977 . S
O896 C889 1.267 . S
C897 O898 1.160 . S
C897 O904 1.185 . S
O898 C897 1.160 . S
O899 Zn900 1.899 . S
O899 C907 1.284 . S
Zn900 O899 1.899 . S
Zn900 O901 2.032 . S
Zn900 O904 2.086 1_655 S
Zn900 O909 1.977 . S
O901 Zn900 2.032 . S
O901 C905 1.278 . S
C902 O903 1.203 . S
C902 O909 1.267 . S
O903 C902 1.203 . S
O904 C897 1.185 . S
O904 Zn900 2.086 1_455 S
C905 O901 1.278 . S
C905 O906 1.211 . S
O906 C905 1.211 . S
C907 O899 1.284 . S
C907 O908 1.273 . S
O908 C907 1.273 . S
O909 Zn900 1.977 . S
O909 C902 1.267 . S
C910 O911 1.160 . S
C910 O917 1.185 . S
O911 C910 1.160 . S
O912 Zn913 1.899 . S
O912 C920 1.284 . S
Zn913 O912 1.899 . S
Zn913 O914 2.032 . S
Zn913 O917 2.086 . S
Zn913 O922 1.977 . S
O914 Zn913 2.032 . S
O914 C918 1.278 . S
C915 O916 1.203 . S
C915 O922 1.267 . S
O916 C915 1.203 . S
O917 C910 1.185 . S
O917 Zn913 2.086 . S
C918 O914 1.278 . S
C918 O919 1.211 . S
O919 C918 1.211 . S
C920 O912 1.284 . S
C920 O921 1.273 . S
O921 C920 1.273 . S
O922 Zn913 1.977 . S
O922 C915 1.267 . S
C923 O924 1.160 . S
C923 O930 1.185 . S
O924 C923 1.160 . S
O925 Zn926 1.899 . S
O925 C933 1.284 . S
Zn926 O925 1.899 . S
Zn926 O927 2.032 . S
Zn926 O930 2.086 . S
Zn926 O935 1.977 . S
O927 Zn926 2.032 . S
O927 C931 1.278 . S
C928 O929 1.203 . S
C928 O935 1.267 . S
O929 C928 1.203 . S
O930 C923 1.185 . S
O930 Zn926 2.086 . S
C931 O927 1.278 . S
C931 O932 1.211 . S
O932 C931 1.211 . S
C933 O925 1.284 . S
C933 O934 1.273 . S
O934 C933 1.273 . S
O935 Zn926 1.977 . S
O935 C928 1.267 . S
C936 O937 1.160 . S
C936 O943 1.185 . S
O937 C936 1.160 . S
O938 Zn939 1.899 . S
O938 C946 1.284 . S
Zn939 O938 1.899 . S
Zn939 O940 2.032 . S
Zn939 O943 2.086 1_545 S
Zn939 O948 1.977 . S
O940 Zn939 2.032 . S
O940 C944 1.278 . S
C941 O942 1.203 . S
C941 O948 1.267 . S
O942 C941 1.203 . S
O943 C936 1.185 . S
O943 Zn939 2.086 1_565 S
C944 O940 1.278 . S
C944 O945 1.211 . S
O945 C944 1.211 . S
C946 O938 1.284 . S
C946 O947 1.273 . S
O947 C946 1.273 . S
O948 Zn939 1.977 . S
O948 C941 1.267 . S
C949 O950 1.160 . S
C949 O956 1.185 . S
O950 C949 1.160 . S
O951 Zn952 1.899 . S
O951 C959 1.284 . S
Zn952 O951 1.899 . S
Zn952 O953 2.032 . S
Zn952 O956 2.086 . S
Zn952 O961 1.977 . S
O953 Zn952 2.032 . S
O953 C957 1.278 . S
C954 O955 1.203 . S
C954 O961 1.267 . S
O955 C954 1.203 . S
O956 C949 1.185 . S
O956 Zn952 2.086 . S
C957 O953 1.278 . S
C957 O958 1.211 . S
O958 C957 1.211 . S
C959 O951 1.284 . S
C959 O960 1.273 . S
O960 C959 1.273 . S
O961 Zn952 1.977 . S
O961 C954 1.267 . S
C962 O963 1.160 . S
C962 O969 1.185 . S
O963 C962 1.160 . S
O964 Zn965 1.899 . S
O964 C972 1.284 . S
Zn965 O964 1.899 . S
Zn965 O966 2.032 . S
Zn965 O969 2.086 . S
Zn965 O974 1.977 . S
O966 Zn965 2.032 . S
O966 C970 1.278 . S
C967 O968 1.203 . S
C967 O974 1.267 . S
O968 C967 1.203 . S
O969 C962 1.185 . S
O969 Zn965 2.086 . S
C970 O966 1.278 . S
C970 O971 1.211 . S
O971 C970 1.211 . S
C972 O964 1.284 . S
C972 O973 1.273 . S
O973 C972 1.273 . S
O974 Zn965 1.977 . S
O974 C967 1.267 . S
C975 O976 1.160 . S
C975 O982 1.185 . S
O976 C975 1.160 . S
O977 Zn978 1.899 . S
O977 C985 1.284 . S
Zn978 O977 1.899 . S
Zn978 O979 2.032 . S
Zn978 O982 2.086 . S
Zn978 O987 1.977 . S
O979 Zn978 2.032 . S
O979 C983 1.278 . S
C980 O981 1.203 . S
C980 O987 1.267 . S
O981 C980 1.203 . S
O982 C975 1.185 . S
O982 Zn978 2.086 . S
C983 O979 1.278 . S
C983 O984 1.211 . S
O984 C983 1.211 . S
C985 O977 1.284 . S
C985 O986 1.273 . S
O986 C985 1.273 . S
O987 Zn978 1.977 . S
O987 C980 1.267 . S
C988 O989 1.160 . S
C988 O995 1.185 . S
O989 C988 1.160 . S
O990 Zn991 1.899 . S
O990 C998 1.284 . S
Zn991 O990 1.899 . S
Zn991 O992 2.032 . S
Zn991 O995 2.086 1_565 S
Zn991 O1000 1.977 . S
O992 Zn991 2.032 . S
O992 C996 1.278 . S
C993 O994 1.203 . S
C993 O1000 1.267 . S
O994 C993 1.203 . S
O995 C988 1.185 . S
O995 Zn991 2.086 1_545 S
C996 O992 1.278 . S
C996 O997 1.211 . S
O997 C996 1.211 . S
C998 O990 1.284 . S
C998 O999 1.273 . S
O999 C998 1.273 . S
O1000 Zn991 1.977 . S
O1000 C993 1.267 . S
C1001 O1002 1.160 . S
C1001 O1008 1.185 . S
O1002 C1001 1.160 . S
O1003 Zn1004 1.899 . S
O1003 C1011 1.284 . S
Zn1004 O1003 1.899 . S
Zn1004 O1005 2.032 . S
Zn1004 O1008 2.086 . S
Zn1004 O1013 1.977 . S
O1005 Zn1004 2.032 . S
O1005 C1009 1.278 . S
C1006 O1007 1.203 . S
C1006 O1013 1.267 . S
O1007 C1006 1.203 . S
O1008 C1001 1.185 . S
O1008 Zn1004 2.086 . S
C1009 O1005 1.278 . S
C1009 O1010 1.211 . S
O1010 C1009 1.211 . S
C1011 O1003 1.284 . S
C1011 O1012 1.273 . S
O1012 C1011 1.273 . S
O1013 Zn1004 1.977 . S
O1013 C1006 1.267 . S
C1014 O1015 1.160 . S
C1014 O1021 1.185 . S
O1015 C1014 1.160 . S
O1016 Zn1017 1.899 . S
O1016 C1024 1.284 . S
Zn1017 O1016 1.899 . S
Zn1017 O1018 2.032 . S
Zn1017 O1021 2.086 . S
Zn1017 O1026 1.977 . S
O1018 Zn1017 2.032 . S
O1018 C1022 1.278 . S
C1019 O1020 1.203 . S
C1019 O1026 1.267 . S
O1020 C1019 1.203 . S
O1021 C1014 1.185 . S
O1021 Zn1017 2.086 . S
C1022 O1018 1.278 . S
C1022 O1023 1.211 . S
O1023 C1022 1.211 . S
C1024 O1016 1.284 . S
C1024 O1025 1.273 . S
O1025 C1024 1.273 . S
O1026 Zn1017 1.977 . S
O1026 C1019 1.267 . S
C1027 O1028 1.160 . S
C1027 O1034 1.185 . S
O1028 C1027 1.160 . S
O1029 Zn1030 1.899 . S
O1029 C1037 1.284 . S
Zn1030 O1029 1.899 . S
Zn1030 O1031 2.032 . S
Zn1030 O1034 2.086 . S
Zn1030 O1039 1.977 . S
O1031 Zn1030 2.032 . S
O1031 C1035 1.278 . S
C1032 O1033 1.203 . S
C1032 O1039 1.267 . S
O1033 C1032 1.203 . S
O1034 C1027 1.185 . S
O1034 Zn1030 2.086 . S
C1035 O1031 1.278 . S
C1035 O1036 1.211 . S
O1036 C1035 1.211 . S
C1037 O1029 1.284 . S
C1037 O1038 1.273 . S
O1038 C1037 1.273 . S
O1039 Zn1030 1.977 . S
O1039 C1032 1.267 . S
C1040 O1041 1.160 . S
C1040 O1047 1.185 . S
O1041 C1040 1.160 . S
O1042 Zn1043 1.899 . S
O1042 C1050 1.284 . S
Zn1043 O1042 1.899 . S
Zn1043 O1044 2.032 . S
Zn1043 O1047 2.086 . S
Zn1043 O1052 1.977 . S
O1044 Zn1043 2.032 . S
O1044 C1048 1.278 . S
C1045 O1046 1.203 . S
C1045 O1052 1.267 . S
O1046 C1045 1.203 . S
O1047 C1040 1.185 . S
O1047 Zn1043 2.086 . S
C1048 O1044 1.278 . S
C1048 O1049 1.211 . S
O1049 C1048 1.211 . S
C1050 O1042 1.284 . S
C1050 O1051 1.273 . S
O1051 C1050 1.273 . S
O1052 Zn1043 1.977 . S
O1052 C1045 1.267 . S
C1053 O1054 1.160 . S
C1053 O1060 1.185 . S
O1054 C1053 1.160 . S
O1055 Zn1056 1.899 . S
O1055 C1063 1.284 . S
Zn1056 O1055 1.899 . S
Zn1056 O1057 2.032 . S
Zn1056 O1060 2.086 . S
Zn1056 O1065 1.977 . S
O1057 Zn1056 2.032 . S
O1057 C1061 1.278 . S
C1058 O1059 1.203 . S
C1058 O1065 1.267 . S
O1059 C1058 1.203 . S
O1060 C1053 1.185 . S
O1060 Zn1056 2.086 . S
C1061 O1057 1.278 . S
C1061 O1062 1.211 . S
O1062 C1061 1.211 . S
C1063 O1055 1.284 . S
C1063 O1064 1.273 . S
O1064 C1063 1.273 . S
O1065 Zn1056 1.977 . S
O1065 C1058 1.267 . S
C1066 O1067 1.160 . S
C1066 O1073 1.185 . S
O1067 C1066 1.160 . S
O1068 Zn1069 1.899 . S
O1068 C1076 1.284 . S
Zn1069 O1068 1.899 . S
Zn1069 O1070 2.032 . S
Zn1069 O1073 2.086 1_554 S
Zn1069 O1078 1.977 . S
O1070 Zn1069 2.032 . S
O1070 C1074 1.278 . S
C1071 O1072 1.203 . S
C1071 O1078 1.267 . S
O1072 C1071 1.203 . S
O1073 C1066 1.185 . S
O1073 Zn1069 2.086 1_556 S
C1074 O1070 1.278 . S
C1074 O1075 1.211 . S
O1075 C1074 1.211 . S
C1076 O1068 1.284 . S
C1076 O1077 1.273 . S
O1077 C1076 1.273 . S
O1078 Zn1069 1.977 . S
O1078 C1071 1.267 . S
C1079 O1080 1.160 . S
C1079 O1086 1.185 . S
O1080 C1079 1.160 . S
O1081 Zn1082 1.899 . S
O1081 C1089 1.284 . S
Zn1082 O1081 1.899 . S
Zn1082 O1083 2.032 . S
Zn1082 O1086 2.086 . S
Zn1082 O1091 1.977 . S
O1083 Zn1082 2.032 . S
O1083 C1087 1.278 . S
C1084 O1085 1.203 . S
C1084 O1091 1.267 . S
O1085 C1084 1.203 . S
O1086 C1079 1.185 . S
O1086 Zn1082 2.086 . S
C1087 O1083 1.278 . S
C1087 O1088 1.211 . S
O1088 C1087 1.211 . S
C1089 O1081 1.284 . S
C1089 O1090 1.273 . S
O1090 C1089 1.273 . S
O1091 Zn1082 1.977 . S
O1091 C1084 1.267 . S
C1092 O1093 1.160 . S
C1092 O1099 1.185 . S
O1093 C1092 1.160 . S
O1094 Zn1095 1.899 . S
O1094 C1102 1.284 . S
Zn1095 O1094 1.899 . S
Zn1095 O1096 2.032 . S
Zn1095 O1099 2.086 . S
Zn1095 O1104 1.977 . S
O1096 Zn1095 2.032 . S
O1096 C1100 1.278 . S
C1097 O1098 1.203 . S
C1097 O1104 1.267 . S
O1098 C1097 1.203 . S
O1099 C1092 1.185 . S
O1099 Zn1095 2.086 . S
C1100 O1096 1.278 . S
C1100 O1101 1.211 . S
O1101 C1100 1.211 . S
C1102 O1094 1.284 . S
C1102 O1103 1.273 . S
O1103 C1102 1.273 . S
O1104 Zn1095 1.977 . S
O1104 C1097 1.267 . S
C1105 O1106 1.160 . S
C1105 O1112 1.185 . S
O1106 C1105 1.160 . S
O1107 Zn1108 1.899 . S
O1107 C1115 1.284 . S
Zn1108 O1107 1.899 . S
Zn1108 O1109 2.032 . S
Zn1108 O1112 2.086 . S
Zn1108 O1117 1.977 . S
O1109 Zn1108 2.032 . S
O1109 C1113 1.278 . S
C1110 O1111 1.203 . S
C1110 O1117 1.267 . S
O1111 C1110 1.203 . S
O1112 C1105 1.185 . S
O1112 Zn1108 2.086 . S
C1113 O1109 1.278 . S
C1113 O1114 1.211 . S
O1114 C1113 1.211 . S
C1115 O1107 1.284 . S
C1115 O1116 1.273 . S
O1116 C1115 1.273 . S
O1117 Zn1108 1.977 . S
O1117 C1110 1.267 . S
C1118 O1119 1.160 . S
C1118 O1125 1.185 . S
O1119 C1118 1.160 . S
O1120 Zn1121 1.899 . S
O1120 C1128 1.284 . S
Zn1121 O1120 1.899 . S
Zn1121 O1122 2.032 . S
Zn1121 O1125 2.086 1_556 S
Zn1121 O1130 1.977 . S
O1122 Zn1121 2.032 . S
O1122 C1126 1.278 . S
C1123 O1124 1.203 . S
C1123 O1130 1.267 . S
O1124 C1123 1.203 . S
O1125 C1118 1.185 . S
O1125 Zn1121 2.086 1_554 S
C1126 O1122 1.278 . S
C1126 O1127 1.211 . S
O1127 C1126 1.211 . S
C1128 O1120 1.284 . S
C1128 O1129 1.273 . S
O1129 C1128 1.273 . S
O1130 Zn1121 1.977 . S
O1130 C1123 1.267 . S
C1131 O1132 1.160 . S
C1131 O1138 1.185 . S
O1132 C1131 1.160 . S
O1133 Zn1134 1.899 . S
O1133 C1141 1.284 . S
Zn1134 O1133 1.899 . S
Zn1134 O1135 2.032 . S
Zn1134 O1138 2.086 . S
Zn1134 O1143 1.977 . S
O1135 Zn1134 2.032 . S
O1135 C1139 1.278 . S
C1136 O1137 1.203 . S
C1136 O1143 1.267 . S
O1137 C1136 1.203 . S
O1138 C1131 1.185 . S
O1138 Zn1134 2.086 . S
C1139 O1135 1.278 . S
C1139 O1140 1.211 . S
O1140 C1139 1.211 . S
C1141 O1133 1.284 . S
C1141 O1142 1.273 . S
O1142 C1141 1.273 . S
O1143 Zn1134 1.977 . S
O1143 C1136 1.267 . S
C1144 O1145 1.160 . S
C1144 O1151 1.185 . S
O1145 C1144 1.160 . S
O1146 Zn1147 1.899 . S
O1146 C1154 1.284 . S
Zn1147 O1146 1.899 . S
Zn1147 O1148 2.032 . S
Zn1147 O1151 2.086 1_455 S
Zn1147 O1156 1.977 . S
O1148 Zn1147 2.032 . S
O1148 C1152 1.278 . S
C1149 O1150 1.203 . S
C1149 O1156 1.267 . S
O1150 C1149 1.203 . S
O1151 C1144 1.185 . S
O1151 Zn1147 2.086 1_655 S
C1152 O1148 1.278 . S
C1152 O1153 1.211 . S
O1153 C1152 1.211 . S
C1154 O1146 1.284 . S
C1154 O1155 1.273 . S
O1155 C1154 1.273 . S
O1156 Zn1147 1.977 . S
O1156 C1149 1.267 . S
C1157 O1158 1.160 . S
C1157 O1164 1.185 . S
O1158 C1157 1.160 . S
O1159 Zn1160 1.899 . S
O1159 C1167 1.284 . S
Zn1160 O1159 1.899 . S
Zn1160 O1161 2.032 . S
Zn1160 O1164 2.086 . S
Zn1160 O1169 1.977 . S
O1161 Zn1160 2.032 . S
O1161 C1165 1.278 . S
C1162 O1163 1.203 . S
C1162 O1169 1.267 . S
O1163 C1162 1.203 . S
O1164 C1157 1.185 . S
O1164 Zn1160 2.086 . S
C1165 O1161 1.278 . S
C1165 O1166 1.211 . S
O1166 C1165 1.211 . S
C1167 O1159 1.284 . S
C1167 O1168 1.273 . S
O1168 C1167 1.273 . S
O1169 Zn1160 1.977 . S
O1169 C1162 1.267 . S
C1170 O1171 1.160 . S
C1170 O1177 1.185 . S
O1171 C1170 1.160 . S
O1172 Zn1173 1.899 . S
O1172 C1180 1.284 . S
Zn1173 O1172 1.899 . S
Zn1173 O1174 2.032 . S
Zn1173 O1177 2.086 . S
Zn1173 O1182 1.977 . S
O1174 Zn1173 2.032 . S
O1174 C1178 1.278 . S
C1175 O1176 1.203 . S
C1175 O1182 1.267 . S
O1176 C1175 1.203 . S
O1177 C1170 1.185 . S
O1177 Zn1173 2.086 . S
C1178 O1174 1.278 . S
C1178 O1179 1.211 . S
O1179 C1178 1.211 . S
C1180 O1172 1.284 . S
C1180 O1181 1.273 . S
O1181 C1180 1.273 . S
O1182 Zn1173 1.977 . S
O1182 C1175 1.267 . S
C1183 O1184 1.160 . S
C1183 O1190 1.185 . S
O1184 C1183 1.160 . S
O1185 Zn1186 1.899 . S
O1185 C1193 1.284 . S
Zn1186 O1185 1.899 . S
Zn1186 O1187 2.032 . S
Zn1186 O1190 2.086 . S
Zn1186 O1195 1.977 . S
O1187 Zn1186 2.032 . S
O1187 C1191 1.278 . S
C1188 O1189 1.203 . S
C1188 O1195 1.267 . S
O1189 C1188 1.203 . S
O1190 C1183 1.185 . S
O1190 Zn1186 2.086 . S
C1191 O1187 1.278 . S
C1191 O1192 1.211 . S
O1192 C1191 1.211 . S
C1193 O1185 1.284 . S
C1193 O1194 1.273 . S
O1194 C1193 1.273 . S
O1195 Zn1186 1.977 . S
O1195 C1188 1.267 . S
C1196 O1197 1.160 . S
C1196 O1203 1.185 . S
O1197 C1196 1.160 . S
O1198 Zn1199 1.899 . S
O1198 C1206 1.284 . S
Zn1199 O1198 1.899 . S
Zn1199 O1200 2.032 . S
Zn1199 O1203 2.086 . S
Zn1199 O1208 1.977 . S
O1200 Zn1199 2.032 . S
O1200 C1204 1.278 . S
C1201 O1202 1.203 . S
C1201 O1208 1.267 . S
O1202 C1201 1.203 . S
O1203 C1196 1.185 . S
O1203 Zn1199 2.086 . S
C1204 O1200 1.278 . S
C1204 O1205 1.211 . S
O1205 C1204 1.211 . S
C1206 O1198 1.284 . S
C1206 O1207 1.273 . S
O1207 C1206 1.273 . S
O1208 Zn1199 1.977 . S
O1208 C1201 1.267 . S
C1209 O1210 1.160 . S
C1209 O1216 1.185 . S
O1210 C1209 1.160 . S
O1211 Zn1212 1.899 . S
O1211 C1219 1.284 . S
Zn1212 O1211 1.899 . S
Zn1212 O1213 2.032 . S
Zn1212 O1216 2.086 1_655 S
Zn1212 O1221 1.977 . S
O1213 Zn1212 2.032 . S
O1213 C1217 1.278 . S
C1214 O1215 1.203 . S
C1214 O1221 1.267 . S
O1215 C1214 1.203 . S
O1216 C1209 1.185 . S
O1216 Zn1212 2.086 1_455 S
C1217 O1213 1.278 . S
C1217 O1218 1.211 . S
O1218 C1217 1.211 . S
C1219 O1211 1.284 . S
C1219 O1220 1.273 . S
O1220 C1219 1.273 . S
O1221 Zn1212 1.977 . S
O1221 C1214 1.267 . S
C1222 O1223 1.160 . S
C1222 O1229 1.185 . S
O1223 C1222 1.160 . S
O1224 Zn1225 1.899 . S
O1224 C1232 1.284 . S
Zn1225 O1224 1.899 . S
Zn1225 O1226 2.032 . S
Zn1225 O1229 2.086 . S
Zn1225 O1234 1.977 . S
O1226 Zn1225 2.032 . S
O1226 C1230 1.278 . S
C1227 O1228 1.203 . S
C1227 O1234 1.267 . S
O1228 C1227 1.203 . S
O1229 C1222 1.185 . S
O1229 Zn1225 2.086 . S
C1230 O1226 1.278 . S
C1230 O1231 1.211 . S
O1231 C1230 1.211 . S
C1232 O1224 1.284 . S
C1232 O1233 1.273 . S
O1233 C1232 1.273 . S
O1234 Zn1225 1.977 . S
O1234 C1227 1.267 . S
C1235 O1236 1.160 . S
C1235 O1242 1.185 . S
O1236 C1235 1.160 . S
O1237 Zn1238 1.899 . S
O1237 C1245 1.284 . S
Zn1238 O1237 1.899 . S
Zn1238 O1239 2.032 . S
Zn1238 O1242 2.086 . S
Zn1238 O1247 1.977 . S
O1239 Zn1238 2.032 . S
O1239 C1243 1.278 . S
C1240 O1241 1.203 . S
C1240 O1247 1.267 . S
O1241 C1240 1.203 . S
O1242 C1235 1.185 . S
O1242 Zn1238 2.086 . S
C1243 O1239 1.278 . S
C1243 O1244 1.211 . S
O1244 C1243 1.211 . S
C1245 O1237 1.284 . S
C1245 O1246 1.273 . S
O1246 C1245 1.273 . S
O1247 Zn1238 1.977 . S
O1247 C1240 1.267 . S
C5 C424 1.570 . S
C749 C18 1.570 . S
C450 C31 1.570 . S
C44 C775 1.570 . S
C57 C476 1.570 . S
C70 C801 1.570 . S
C83 C502 1.570 . S
C96 C827 1.570 . S
C840 C109 1.570 . S
C931 C122 1.570 . S
C135 C1217 1.570 . S
C148 C918 1.570 . S
C229 C161 1.570 . S
C174 C242 1.570 . S
C187 C255 1.570 . S
C1204 C200 1.570 . S
C944 C213 1.570 . S
C226 C372 1.570 . S
C697 C239 1.570 . S
C252 C398 1.570 . S
C411 C265 1.570 . S
C658 C278 1.570 . S
C47 C291 1.570 . S
C21 C304 1.570 . S
C317 C112 1.570 . S
C1061 C330 1.570 . S
C138 C343 1.570 . S
C356 C1087 1.570 . S
C369 C164 1.570 . S
C1113 C382 1.570 . S
C395 C190 1.570 . S
C1139 C408 1.570 . S
C1152 C421 1.570 . S
C434 C1243 1.570 . S
C905 C447 1.570 . S
C1230 C460 1.570 . S
C473 C541 1.570 . S
C554 C486 1.570 . S
C567 C499 1.570 . S
C512 C892 1.570 . S
C632 C525 1.570 . S
C538 C60 1.570 . S
C1009 C551 1.570 . S
C86 C564 1.570 . S
C577 C99 1.570 . S
C970 C590 1.570 . S
C359 C603 1.570 . S
C333 C616 1.570 . S
C1048 C629 1.570 . S
C125 C642 1.570 . S
C1074 C655 1.570 . S
C668 C151 1.570 . S
C1100 C681 1.570 . S
C694 C177 1.570 . S
C707 C1126 1.570 . S
C720 C203 1.570 . S
C216 C733 1.570 . S
C746 C307 1.570 . S
C759 C593 1.570 . S
C294 C772 1.570 . S
C785 C853 1.570 . S
C866 C798 1.570 . S
C879 C811 1.570 . S
C824 C580 1.570 . S
C837 C320 1.570 . S
C996 C850 1.570 . S
C863 C73 1.570 . S
C876 C1022 1.570 . S
C1035 C889 1.570 . S
C34 C902 1.570 . S
C915 C671 1.570 . S
C928 C645 1.570 . S
C736 C941 1.570 . S
C437 C954 1.570 . S
C762 C967 1.570 . S
C980 C463 1.570 . S
C993 C788 1.570 . S
C489 C1006 1.570 . S
C814 C1019 1.570 . S
C515 C1032 1.570 . S
C1045 C528 1.570 . S
C619 C1058 1.570 . S
C281 C1071 1.570 . S
C1084 C606 1.570 . S
C1165 C1097 1.570 . S
C1178 C1110 1.570 . S
C1123 C1191 1.570 . S
C1136 C268 1.570 . S
C8 C1149 1.570 . S
C684 C1162 1.570 . S
C1175 C385 1.570 . S
C1188 C710 1.570 . S
C723 C1201 1.570 . S
C346 C1214 1.570 . S
C983 C1227 1.570 . S
C957 C1240 1.570 . S
C1141 C10 1.309 . S
C23 C1102 1.309 . S
C36 C1115 1.309 . S
C49 C1128 1.309 . S
C127 C62 1.309 . S
C75 C140 1.309 . S
C88 C153 1.309 . S
C101 C114 1.309 . S
C166 C959 1.309 . S
C179 C972 1.309 . S
C192 C985 1.309 . S
C946 C205 1.309 . S
C1206 C218 1.309 . S
C231 C1245 1.309 . S
C244 C595 1.309 . S
C1232 C257 1.309 . S
C270 C1154 1.309 . S
C283 C556 1.309 . S
C296 C1193 1.309 . S
C309 C1167 1.309 . S
C829 C322 1.309 . S
C335 C790 1.309 . S
C803 C348 1.309 . S
C361 C816 1.309 . S
C374 C439 1.309 . S
C387 C452 1.309 . S
C465 C400 1.309 . S
C413 C426 1.309 . S
C647 C478 1.309 . S
C660 C491 1.309 . S
C673 C504 1.309 . S
C634 C517 1.309 . S
C530 C894 1.309 . S
C543 C933 1.309 . S
C920 C569 1.309 . S
C582 C842 1.309 . S
C608 C881 1.309 . S
C621 C855 1.309 . S
C686 C751 1.309 . S
C699 C764 1.309 . S
C712 C777 1.309 . S
C725 C738 1.309 . S
C1219 C868 1.309 . S
C1180 C907 1.309 . S
C998 C1063 1.309 . S
C1011 C1076 1.309 . S
C1089 C1024 1.309 . S
C1037 C1050 1.309 . S
C338 C0 2.773 1_655 S
C13 C663 2.773 . S
C26 C312 2.773 1_645 S
C637 C39 2.773 . S
C52 C390 2.773 1_455 S
C65 C715 2.773 . S
C78 C364 2.773 1_665 S
C91 C689 2.773 . S
C104 C156 2.773 1_545 S
C169 C117 2.773 . S
C130 C182 2.773 1_556 S
C143 C195 2.773 . S
C208 C1183 2.773 1_554 S
C897 C221 2.773 1_455 S
C286 C234 2.773 . S
C1144 C247 2.773 1_654 S
C1235 C260 2.773 . S
C273 C845 2.773 1_554 S
C1196 C299 2.773 . S
C325 C975 2.773 . S
C949 C351 2.773 . S
C377 C1027 2.773 . S
C403 C1001 2.773 . S
C468 C416 2.773 1_554 S
C481 C429 2.773 . S
C494 C442 2.773 1_545 S
C507 C455 2.773 . S
C871 C520 2.773 . S
C1209 C533 2.773 1_454 S
C546 C598 2.773 . S
C559 C832 2.773 1_455 S
C572 C923 2.773 . S
C585 C1157 2.773 . S
C611 C884 2.773 . S
C962 C624 2.773 . S
C650 C936 2.773 1_545 S
C1014 C676 2.773 . S
C988 C702 2.773 1_545 S
C780 C728 2.773 1_564 S
C741 C793 2.773 . S
C754 C806 2.773 . S
C819 C767 2.773 . S
C910 C858 2.773 . S
C1040 C1092 2.773 . S
C1053 C1105 2.773 . S
C1066 C1118 2.773 1_566 S
C1131 C1079 2.773 . S
C1222 C1170 2.773 . S
