# Generated by pormake.
# Topology tsi, (8)-cn, num edge types: 1
# Building blocks:
#     Node 0, Type 0, BuildingBlock: AJUNOK_clean_sbu_0, # of connection points: 8
#     Node 1, Type 0, BuildingBlock: AJUNOK_clean_sbu_0, # of connection points: 8
#     Node 2, Type 0, BuildingBlock: AJUNOK_clean_sbu_0, # of connection points: 8
#     Node 3, Type 0, BuildingBlock: AJUNOK_clean_sbu_0, # of connection points: 8
#     Edge 4, Type (0, 0), BuildingBlock: FUNLAD_clean_linker_0, # of connection points: 2
#     Edge 5, Type (0, 0), BuildingBlock: FUNLAD_clean_linker_0, # of connection points: 2
#     Edge 6, Type (0, 0), BuildingBlock: FUNLAD_clean_linker_0, # of connection points: 2
#     Edge 7, Type (0, 0), BuildingBlock: FUNLAD_clean_linker_0, # of connection points: 2
#     Edge 8, Type (0, 0), BuildingBlock: FUNLAD_clean_linker_0, # of connection points: 2
#     Edge 9, Type (0, 0), BuildingBlock: FUNLAD_clean_linker_0, # of connection points: 2
#     Edge 10, Type (0, 0), BuildingBlock: FUNLAD_clean_linker_0, # of connection points: 2
#     Edge 11, Type (0, 0), BuildingBlock: FUNLAD_clean_linker_0, # of connection points: 2
#     Edge 12, Type (0, 0), BuildingBlock: FUNLAD_clean_linker_0, # of connection points: 2
#     Edge 13, Type (0, 0), BuildingBlock: FUNLAD_clean_linker_0, # of connection points: 2
#     Edge 14, Type (0, 0), BuildingBlock: FUNLAD_clean_linker_0, # of connection points: 2
#     Edge 15, Type (0, 0), BuildingBlock: FUNLAD_clean_linker_0, # of connection points: 2
#     Edge 16, Type (0, 0), BuildingBlock: FUNLAD_clean_linker_0, # of connection points: 2
#     Edge 17, Type (0, 0), BuildingBlock: FUNLAD_clean_linker_0, # of connection points: 2
#     Edge 18, Type (0, 0), BuildingBlock: FUNLAD_clean_linker_0, # of connection points: 2
#     Edge 19, Type (0, 0), BuildingBlock: FUNLAD_clean_linker_0, # of connection points: 2
# Relax obj value: 0.177
# Max RMSD: 0.226
# Mean RMSD: 0.226
data_MOF--net-tsi--node1-AJUNOK_clean_sbu_0--edge1-FUNLAD_clean_linker_0
_symmetry_space_group_name_H-M    P1
_symmetry_Int_Tables_number       1
_symmetry_cell_setting            triclinic
loop_
_symmetry_equiv_pos_as_xyz
'x, y, z'
_cell_length_a     18.046826
_cell_length_b     17.945669
_cell_length_c     85.467112
_cell_angle_alpha  89.822658
_cell_angle_beta   89.623543
_cell_angle_gamma 89.930532
loop_
_atom_site_label
_atom_site_type_symbol
_atom_site_fract_x
_atom_site_fract_y
_atom_site_fract_z
_atom_type_partial_charge
Cd0 Cd 0.00704 0.13499 0.38907 0.0
Cd1 Cd 0.00662 0.37647 0.3928 0.0
C2 C 0.10592 0.18728 0.35862 0.0
N3 N 0.03518 0.17201 0.36326 0.0
C4 C -0.00231 0.16087 0.33654 0.0
C5 C 0.0693 0.1801 0.33141 0.0
C6 C 0.12383 0.19306 0.34274 0.0
C7 C 0.9815 0.1584 0.35255 0.0
H8 H 0.14953 0.19246 0.36708 0.0
H9 H 0.92652 0.14287 0.35645 0.0
C10 C 0.85347 0.25241 0.39905 0.0
C11 C 0.936 0.44474 0.42415 0.0
C12 C 0.93 0.47036 0.43953 0.0
C13 C 0.99079 0.46394 0.44964 0.0
C14 C 0.05637 0.4312 0.44391 0.0
C15 C 0.05995 0.40638 0.42844 0.0
N16 N 0.00023 0.41358 0.41894 0.0
H17 H 0.88944 0.45001 0.41632 0.0
H18 H 0.11065 0.38209 0.42398 0.0
C19 C 0.90889 0.32926 0.36269 0.0
N20 N 0.98033 0.34068 0.36707 0.0
C21 C 0.01823 0.34848 0.34019 0.0
C22 C 0.94559 0.33269 0.33539 0.0
C23 C 0.89051 0.32401 0.34693 0.0
C24 C 0.03447 0.35191 0.35616 0.0
H25 H 0.86503 0.32775 0.37128 0.0
H26 H 0.09002 0.36543 0.35988 0.0
C27 C 0.16182 0.25715 0.39713 0.0
C28 C 0.99765 0.99572 0.37395 0.0
N29 N 0.02118 0.08766 0.41434 0.0
C30 C 0.08879 0.06396 0.41923 0.0
C31 C 0.09706 0.03293 0.43414 0.0
C32 C 0.035 0.02564 0.44407 0.0
C33 C 0.96585 0.05051 0.43862 0.0
C34 C 0.96019 0.08143 0.42366 0.0
C35 C -0.00129 0.51813 0.37848 0.0
O36 O 0.88451 0.19141 0.39513 0.0
O37 O 0.88972 0.31313 0.3992 0.0
O38 O 0.13188 0.32133 0.39626 0.0
O39 O 0.12371 0.19842 0.39514 0.0
O40 O 0.93961 0.03243 0.37737 0.0
O41 O 0.05851 0.01961 0.37933 0.0
O42 O 0.06078 0.48592 0.38028 0.0
O43 O 0.94325 0.4893 0.38535 0.0
H44 H 0.13624 0.06864 0.4115 0.0
H45 H 0.90684 0.09956 0.4194 0.0
H46 H 0.95421 0.14871 0.3283 0.0
H47 H 0.18049 0.20531 0.33938 0.0
H48 H 0.87807 0.49428 0.44348 0.0
H49 H 0.10489 0.42593 0.45122 0.0
H50 H 0.06245 0.35647 0.33175 0.0
H51 H 0.83313 0.31508 0.34383 0.0
H52 H 0.15159 0.01535 0.43787 0.0
H53 H 0.91625 0.04492 0.44572 0.0
Cd54 Cd 0.11082 0.76214 0.63988 0.0
Cd55 Cd 0.87292 0.74399 0.64403 0.0
C56 C 0.05066 0.85809 0.60998 0.0
N57 N 0.07061 0.78806 0.61445 0.0
C58 C 0.0815 0.75073 0.58767 0.0
C59 C 0.05738 0.82142 0.58271 0.0
C60 C 0.04263 0.87564 0.59416 0.0
C61 C 0.08698 0.735 0.60364 0.0
H62 H 0.0433 0.90144 0.61855 0.0
H63 H 0.10657 0.68095 0.60744 0.0
C64 C 0.004 0.5985 0.64867 0.0
C65 C 0.79192 0.6797 0.67496 0.0
C66 C 0.77278 0.67094 0.69072 0.0
C67 C 0.80923 0.71313 0.70217 0.0
C68 C 0.86519 0.76277 0.69732 0.0
C69 C 0.88256 0.76976 0.68141 0.0
N70 N 0.84554 0.72888 0.67062 0.0
H71 H 0.76381 0.64735 0.66615 0.0
H72 H 0.9252 0.80827 0.67766 0.0
C73 C 0.92359 0.65159 0.61288 0.0
N74 N 0.90752 0.72162 0.61796 0.0
C75 C 0.89341 0.7635 0.5915 0.0
C76 C 0.91385 0.69272 0.58591 0.0
C77 C 0.92806 0.63621 0.59691 0.0
C78 C 0.89097 0.77682 0.60761 0.0
H79 H 0.92966 0.60635 0.62107 0.0
H80 H 0.87397 0.83089 0.6119 0.0
C81 C 0.98278 0.90712 0.64914 0.0
C82 C 0.25205 0.76411 0.62539 0.0
N83 N 0.1475 0.77674 0.66576 0.0
C84 C 0.18068 0.84162 0.66992 0.0
C85 C 0.20561 0.85176 0.6852 0.0
C86 C 0.19666 0.79432 0.69626 0.0
C87 C 0.16166 0.72812 0.69163 0.0
C88 C 0.13734 0.72049 0.67625 0.0
C89 C 0.73014 0.74322 0.63075 0.0
O90 O 0.06154 0.63589 0.64502 0.0
O91 O 0.94044 0.62897 0.64933 0.0
O92 O 0.92285 0.87023 0.64812 0.0
O93 O 0.04528 0.87619 0.64692 0.0
O94 O 0.22006 0.703 0.62865 0.0
O95 O 0.22234 0.82311 0.63062 0.0
O96 O 0.76152 0.80399 0.63436 0.0
O97 O 0.76044 0.68362 0.63551 0.0
H98 H 0.18836 0.88528 0.66131 0.0
H99 H 0.11083 0.66943 0.67267 0.0
H100 H 0.0948 0.70741 0.57935 0.0
H101 H 0.02671 0.93179 0.59094 0.0
H102 H 0.73021 0.63112 0.69392 0.0
H103 H 0.89431 0.79698 0.70568 0.0
H104 H 0.88093 0.80879 0.58358 0.0
H105 H 0.94065 0.57985 0.59327 0.0
H106 H 0.23293 0.90339 0.68823 0.0
H107 H 0.15276 0.68284 0.69984 0.0
Cd108 Cd 0.50061 0.64218 0.89721 0.0
Cd109 Cd 0.50167 0.87485 0.88798 0.0
C110 C 0.61271 0.66982 0.86727 0.0
N111 N 0.5396 0.66342 0.87112 0.0
C112 C 0.50907 0.64614 0.84411 0.0
C113 C 0.58367 0.65632 0.83979 0.0
C114 C 0.63572 0.66792 0.85166 0.0
C115 C 0.4883 0.64979 0.85989 0.0
H116 H 0.65432 0.67247 0.87621 0.0
H117 H 0.43112 0.64051 0.86322 0.0
C118 C 0.34549 0.76503 0.89944 0.0
C119 C 0.47948 0.86868 0.92549 0.0
C120 C 0.47252 0.89495 0.9408 0.0
C121 C 0.48485 0.97085 0.94397 0.0
C122 C 0.5054 0.01806 0.93153 0.0
C123 C 0.5113 0.98947 0.91641 0.0
N124 N 0.49757 0.91626 0.91368 0.0
H125 H 0.46921 0.81062 0.92296 0.0
H126 H 0.52617 0.02588 0.90678 0.0
C127 C 0.40808 0.80528 0.85928 0.0
N128 N 0.4785 0.82404 0.86328 0.0
C129 C 0.51402 0.82911 0.83624 0.0
C130 C 0.4415 0.81026 0.83179 0.0
C131 C 0.38887 0.79645 0.84363 0.0
C132 C 0.53138 0.83553 0.85211 0.0
H133 H 0.36547 0.8 0.86807 0.0
H134 H 0.58597 0.85404 0.8555 0.0
C135 C 0.65463 0.76674 0.90072 0.0
C136 C 0.48995 0.49831 0.88434 0.0
N137 N 0.51284 0.61242 0.92377 0.0
C138 C 0.56753 0.56489 0.92825 0.0
C139 C 0.57506 0.54483 0.94398 0.0
C140 C 0.52622 0.57449 0.95524 0.0
C141 C 0.47092 0.62431 0.95026 0.0
C142 C 0.46504 0.64239 0.93439 0.0
C143 C 0.49592 0.01367 0.87224 0.0
O144 O 0.37664 0.70141 0.90001 0.0
O145 O 0.38237 0.82295 0.89589 0.0
O146 O 0.62507 0.82488 0.89485 0.0
O147 O 0.61755 0.70708 0.90265 0.0
O148 O 0.43234 0.53758 0.88661 0.0
O149 O 0.54953 0.52104 0.89049 0.0
O150 O 0.55718 0.97992 0.87399 0.0
O151 O 0.44007 0.98683 0.87931 0.0
H152 H 0.6053 0.5424 0.9196 0.0
H153 H 0.42197 0.67999 0.93052 0.0
H154 H 0.4668 0.63691 0.8354 0.0
H155 H 0.69423 0.67295 0.84897 0.0
H156 H 0.45586 0.85654 0.94996 0.0
H157 H 0.51682 0.07654 0.93343 0.0
H158 H 0.5563 0.84158 0.82758 0.0
H159 H 0.33261 0.78059 0.84087 0.0
H160 H 0.6191 0.50707 0.94732 0.0
H161 H 0.43167 0.64799 0.9585 0.0
Cd162 Cd 0.57984 0.24426 0.14931 0.0
Cd163 Cd 0.38045 0.22486 0.13655 0.0
C164 C 0.58017 0.36315 0.12003 0.0
N165 N 0.56878 0.28969 0.12333 0.0
C166 C 0.56804 0.26136 0.09594 0.0
C167 C 0.5756 0.33728 0.09224 0.0
C168 C 0.58182 0.38844 0.10455 0.0
C169 C 0.56435 0.23881 0.1116 0.0
H170 H 0.59025 0.40224 0.12936 0.0
H171 H 0.55912 0.18028 0.11436 0.0
C172 C 0.487 0.09298 0.14897 0.0
C173 C 0.34766 0.16459 0.17159 0.0
C174 C 0.32601 0.16317 0.18731 0.0
C175 C 0.30978 0.23014 0.19508 0.0
C176 C 0.31652 0.29727 0.1867 0.0
C177 C 0.33807 0.29608 0.17096 0.0
N178 N 0.35427 0.23042 0.16375 0.0
H179 H 0.35737 0.11269 0.16555 0.0
H180 H 0.3391 0.34762 0.16445 0.0
C181 C 0.40044 0.16315 0.103 0.0
N182 N 0.39478 0.23189 0.10949 0.0
C183 C 0.38898 0.2881 0.08408 0.0
C184 C 0.395 0.21726 0.07711 0.0
C185 C 0.4018 0.15464 0.08687 0.0
C186 C 0.38853 0.29417 0.10046 0.0
H187 H 0.40252 0.11431 0.11039 0.0
H188 H 0.38194 0.34808 0.10593 0.0
C189 C 0.45819 0.3968 0.14693 0.0
C190 C 0.69626 0.167 0.13454 0.0
N191 N 0.64558 0.2752 0.17161 0.0
C192 C 0.66621 0.34587 0.17527 0.0
C193 C 0.70361 0.35986 0.18926 0.0
C194 C 0.71951 0.30047 0.19949 0.0
C195 C 0.69878 0.22803 0.19513 0.0
C196 C 0.66165 0.21669 0.1811 0.0
C197 C 0.24362 0.15624 0.13011 0.0
O198 O 0.50896 0.13586 0.15975 0.0
O199 O 0.46972 0.12169 0.13597 0.0
O200 O 0.41018 0.35989 0.13926 0.0
O201 O 0.5143 0.36448 0.1529 0.0
O202 O 0.63779 0.13342 0.13888 0.0
O203 O 0.70261 0.23554 0.1381 0.0
O204 O 0.25175 0.22608 0.12815 0.0
O205 O 0.29713 0.12076 0.13609 0.0
H206 H 0.65293 0.39131 0.16743 0.0
H207 H 0.64498 0.16108 0.17778 0.0
H208 H 0.56345 0.21984 0.08683 0.0
H209 H 0.5903 0.44719 0.10223 0.0
H210 H 0.3216 0.11005 0.19329 0.0
H211 H 0.30274 0.35008 0.19209 0.0
H212 H 0.38318 0.33787 0.077 0.0
H213 H 0.40804 0.0991 0.08212 0.0
H214 H 0.71821 0.41659 0.19221 0.0
H215 H 0.71106 0.18046 0.2025 0.0
C216 C 0.9492 0.5581 0.46965 0.0
C217 C 0.98575 0.49095 0.46606 0.0
C218 C 0.94388 0.58302 0.48512 0.0
C219 C 0.97518 0.54119 0.49741 0.0
C220 C 0.01166 0.47415 0.49375 0.0
C221 C 0.01704 0.4494 0.4783 0.0
C222 C 0.96993 0.56326 0.51419 0.0
C223 C 0.94512 0.62966 0.51949 0.0
C224 C 0.93961 0.64727 0.53648 0.0
C225 C 0.88591 0.6983 0.54171 0.0
C226 C 0.8772 0.71325 0.55769 0.0
C227 C 0.92272 0.67805 0.56881 0.0
H228 H 0.03125 0.57727 0.54396 0.0
C229 C 0.97816 0.62898 0.56344 0.0
C230 C 0.98685 0.61417 0.54753 0.0
H231 H 0.01593 0.60248 0.57153 0.0
H232 H 0.92506 0.59183 0.46047 0.0
H233 H 0.91444 0.63445 0.48727 0.0
H234 H 0.036 0.44036 0.50291 0.0
H235 H 0.04468 0.39692 0.476 0.0
H236 H 0.98676 0.52135 0.52264 0.0
H237 H 0.92553 0.67173 0.51139 0.0
H238 H 0.8494 0.72541 0.53344 0.0
H239 H 0.83376 0.75123 0.56131 0.0
C240 C 0.66125 0.70645 0.81762 0.0
C241 C 0.60717 0.65603 0.82305 0.0
C242 C 0.68142 0.70881 0.80181 0.0
C243 C 0.64845 0.6602 0.791 0.0
C244 C 0.59446 0.60984 0.79641 0.0
C245 C 0.57428 0.60744 0.81224 0.0
C246 C 0.66649 0.66258 0.77395 0.0
C247 C 0.73052 0.69015 0.76809 0.0
C248 C 0.74877 0.69382 0.75107 0.0
C249 C 0.82329 0.70148 0.74649 0.0
C250 C 0.84299 0.70721 0.73068 0.0
C251 C 0.78847 0.70594 0.71901 0.0
H252 H 0.63579 0.68976 0.74236 0.0
C253 C 0.71376 0.69872 0.72357 0.0
C254 C 0.69404 0.69299 0.7394 0.0
H255 H 0.67018 0.69917 0.71492 0.0
H256 H 0.68631 0.74609 0.82551 0.0
H257 H 0.72119 0.75041 0.79811 0.0
H258 H 0.56772 0.57207 0.78836 0.0
H259 H 0.53295 0.5674 0.81601 0.0
H260 H 0.62644 0.63803 0.76609 0.0
H261 H 0.77323 0.70849 0.77609 0.0
H262 H 0.86666 0.70279 0.75519 0.0
H263 H 0.90111 0.71199 0.7276 0.0
C264 C 0.54543 0.47858 0.97636 0.0
C265 C 0.53255 0.5531 0.97203 0.0
C266 C 0.55028 0.45814 0.99215 0.0
C267 C 0.5433 0.51212 1.00402 0.0
C268 C 0.53019 0.58652 0.99963 0.0
C269 C 0.52487 0.60681 0.98385 0.0
C270 C 0.54655 0.49347 0.02106 0.0
C271 C 0.5734 0.42882 0.02688 0.0
C272 C 0.57526 0.40929 0.0439 0.0
C273 C 0.6158 0.34612 0.04856 0.0
C274 C 0.61659 0.32315 0.06422 0.0
C275 C 0.57691 0.36294 0.07567 0.0
H276 H 0.50193 0.49702 0.0525 0.0
C277 C 0.53695 0.42657 0.0711 0.0
C278 C 0.53569 0.44932 0.05543 0.0
H279 H 0.50467 0.45761 0.0796 0.0
H280 H 0.55017 0.4356 0.96754 0.0
H281 H 0.55796 0.3998 0.99485 0.0
H282 H 0.52409 0.62939 1.00844 0.0
H283 H 0.51546 0.6648 0.98092 0.0
H284 H 0.52767 0.53639 0.02904 0.0
H285 H 0.5969 0.38809 0.01893 0.0
H286 H 0.64653 0.31378 0.04002 0.0
H287 H 0.64844 0.27421 0.06735 0.0
C288 C 0.96037 0.3661 0.30675 0.0
C289 C 0.92718 0.32234 0.31856 0.0
C290 C 0.94111 0.35622 0.29102 0.0
C291 C 0.88868 0.30192 0.28684 0.0
C292 C 0.85756 0.25691 0.29857 0.0
C293 C 0.87583 0.26744 0.31421 0.0
C294 C 0.86356 0.29016 0.27053 0.0
C295 C 0.86217 0.34373 0.25944 0.0
C296 C 0.82535 0.33245 0.2441 0.0
C297 C 0.84936 0.37286 0.23091 0.0
C298 C 0.81494 0.36322 0.2164 0.0
C299 C 0.75539 0.31332 0.21486 0.0
H300 H 0.74156 0.25493 0.25261 0.0
C301 C 0.73005 0.27475 0.22818 0.0
C302 C 0.76428 0.28434 0.2426 0.0
H303 H 0.68288 0.23765 0.22751 0.0
H304 H 0.00013 0.40892 0.30967 0.0
H305 H 0.96761 0.39078 0.28224 0.0
H306 H 0.81755 0.2142 0.29568 0.0
H307 H 0.84999 0.2317 0.32289 0.0
H308 H 0.84019 0.23587 0.26794 0.0
H309 H 0.88665 0.39783 0.26169 0.0
H310 H 0.89547 0.4112 0.23179 0.0
H311 H 0.83575 0.39379 0.20635 0.0
C312 C 0.23246 0.17622 0.21693 0.0
C313 C 0.28362 0.22988 0.21164 0.0
C314 C 0.20737 0.17624 0.23246 0.0
C315 C 0.23277 0.23021 0.24308 0.0
C316 C 0.28445 0.28328 0.2378 0.0
C317 C 0.30927 0.28346 0.22226 0.0
C318 C 0.20966 0.23113 0.25985 0.0
C319 C 0.14646 0.20017 0.26537 0.0
C320 C 0.12549 0.19841 0.28227 0.0
C321 C 0.07541 0.14384 0.28755 0.0
C322 C 0.05661 0.13809 0.30342 0.0
C323 C 0.08713 0.18727 0.31441 0.0
H324 H 0.19011 0.29435 0.2896 0.0
C325 C 0.13521 0.24359 0.30904 0.0
C326 C 0.15392 0.24938 0.29319 0.0
H327 H 0.15818 0.28379 0.31708 0.0
H328 H 0.21122 0.13442 0.20903 0.0
H329 H 0.16929 0.13293 0.23609 0.0
H330 H 0.30571 0.32497 0.24573 0.0
H331 H 0.3494 0.32497 0.21862 0.0
H332 H 0.24699 0.25855 0.26789 0.0
H333 H 0.10915 0.17274 0.25732 0.0
H334 H 0.05192 0.1043 0.27942 0.0
H335 H 0.01959 0.09386 0.3071 0.0
C336 C 0.26076 0.74394 0.72004 0.0
C337 C 0.22429 0.80307 0.71248 0.0
C338 C 0.28653 0.75194 0.73533 0.0
C339 C 0.27661 0.81955 0.74339 0.0
C340 C 0.23965 0.87835 0.73587 0.0
C341 C 0.21413 0.87043 0.72056 0.0
C342 C 0.30059 0.82962 0.75986 0.0
C343 C 0.35494 0.78934 0.76659 0.0
C344 C 0.37668 0.79792 0.78325 0.0
C345 C 0.44784 0.77557 0.78787 0.0
C346 C 0.46933 0.78073 0.80351 0.0
C347 C 0.41979 0.80703 0.81499 0.0
H348 H 0.27115 0.84098 0.79174 0.0
C349 C 0.34862 0.82981 0.81031 0.0
C350 C 0.32715 0.82493 0.79468 0.0
H351 H 0.3092 0.85184 0.81871 0.0
H352 H 0.26979 0.69144 0.7141 0.0
H353 H 0.31273 0.70448 0.74083 0.0
H354 H 0.23041 0.93071 0.74186 0.0
H355 H 0.18533 0.91668 0.71514 0.0
H356 H 0.27383 0.87384 0.76646 0.0
H357 H 0.38669 0.75016 0.75958 0.0
H358 H 0.48707 0.75407 0.77935 0.0
H359 H 0.52445 0.76312 0.80659 0.0
C360 C 0.4424 0.07146 0.96241 0.0
C361 C 0.47479 0.00094 0.96005 0.0
C362 C 0.43092 0.09893 0.97753 0.0
C363 C 0.4516 0.05636 0.99064 0.0
C364 C 0.48402 0.9861 0.98828 0.0
C365 C 0.49591 0.95884 0.97318 0.0
C366 C 0.4363 0.08098 1.00691 0.0
C367 C 0.42782 0.1527 1.01125 0.0
C368 C 0.41242 0.17342 0.02776 0.0
C369 C 0.44199 0.23937 0.03392 0.0
C370 C 0.43336 0.25589 0.04985 0.0
C371 C 0.39493 0.20688 0.05985 0.0
H372 H 0.34246 0.07806 0.03298 0.0
C373 C 0.36044 0.14404 0.05333 0.0
C374 C 0.36912 0.12744 0.03751 0.0
H375 H 0.32769 0.10663 0.06054 0.0
H376 H 0.42398 0.10476 0.95259 0.0
H377 H 0.4038 0.15236 0.97886 0.0
H378 H 0.5002 0.95199 0.99817 0.0
H379 H 0.52185 0.90478 0.97181 0.0
H380 H 0.43464 0.03773 0.01584 0.0
H381 H 0.43679 0.19727 1.00283 0.0
H382 H 0.47425 0.2766 0.02657 0.0
H383 H 0.45918 0.30532 0.05443 0.0
C384 C 0.0015 0.0212 0.47266 0.0
C385 C 0.04209 0.99219 0.45996 0.0
C386 C 0.00797 0.99002 0.48759 0.0
C387 C 0.05512 0.92872 0.4902 0.0
C388 C 0.09633 0.90028 0.47758 0.0
C389 C 0.0896 0.93126 0.46261 0.0
C390 C 0.06574 0.89621 0.50607 0.0
C391 C 0.01316 0.89863 0.51735 0.0
C392 C 0.02468 0.87413 0.53383 0.0
C393 C 0.97621 0.90151 0.54536 0.0
C394 C 0.98675 0.8842 0.56111 0.0
C395 C 0.04579 0.83824 0.5658 0.0
H396 H 0.11984 0.80172 0.5299 0.0
C397 C 0.09291 0.80852 0.55421 0.0
C398 C 0.08246 0.82607 0.5384 0.0
H399 H 0.13893 0.77284 0.55734 0.0
H400 H 0.96576 0.06917 0.47115 0.0
H401 H 0.97747 0.01559 0.49711 0.0
H402 H 0.13356 0.85358 0.47928 0.0
H403 H 0.12115 0.90693 0.45309 0.0
H404 H 0.11902 0.87068 0.50842 0.0
H405 H 0.95968 0.92315 0.51465 0.0
H406 H 0.93061 0.93781 0.54221 0.0
H407 H 0.9482 0.9069 0.5696 0.0
C408 C 0.9296 0.91696 0.3548 0.0
C409 C 0.99632 0.93625 0.36212 0.0
C410 C 0.92958 0.86721 0.34229 0.0
C411 C 0.99634 0.83571 0.33687 0.0
C412 C 0.06304 0.8557 0.34407 0.0
C413 C 0.06304 0.90522 0.35661 0.0
C414 C 0.99671 0.77562 0.325 0.0
C415 C 0.94835 0.71984 0.32703 0.0
C416 C 0.96219 0.6664 0.33998 0.0
C417 C 0.90391 0.64777 0.3502 0.0
C418 C 0.9168 0.60322 0.36331 0.0
C419 C 0.98823 0.57584 0.36639 0.0
H420 H 0.07999 0.65261 0.33545 0.0
C421 C 0.04672 0.59475 0.35622 0.0
C422 C 0.03384 0.63944 0.34312 0.0
H423 H 0.10207 0.57324 0.3581 0.0
H424 H 0.87747 0.94111 0.35858 0.0
H425 H 0.87726 0.85306 0.33693 0.0
H426 H 0.11514 0.8316 0.34024 0.0
H427 H 0.11552 0.91996 0.36184 0.0
H428 H 0.0519 0.75958 0.32111 0.0
H429 H 0.89033 0.73443 0.32557 0.0
H430 H 0.84838 0.66853 0.34818 0.0
H431 H 0.87032 0.58875 0.3708 0.0
C432 C 0.33724 0.70263 0.6063 0.0
C433 C 0.31322 0.76759 0.61392 0.0
C434 C 0.38833 0.70687 0.59402 0.0
C435 C 0.41678 0.77623 0.58917 0.0
C436 C 0.3924 0.84115 0.59674 0.0
C437 C 0.34131 0.8369 0.60903 0.0
C438 C 0.47718 0.78123 0.57735 0.0
C439 C 0.53219 0.73127 0.57821 0.0
C440 C 0.58327 0.73541 0.59173 0.0
C441 C 0.60436 0.66955 0.5994 0.0
C442 C 0.64812 0.67233 0.61278 0.0
C443 C 0.67218 0.7411 0.6187 0.0
H444 H 0.59125 0.85621 0.59216 0.0
C445 C 0.65024 0.80709 0.61116 0.0
C446 C 0.60645 0.80432 0.59778 0.0
H447 H 0.66896 0.86089 0.61526 0.0
H448 H 0.31552 0.64854 0.60961 0.0
H449 H 0.40575 0.65576 0.58839 0.0
H450 H 0.41392 0.89521 0.59334 0.0
H451 H 0.32298 0.88808 0.61452 0.0
H452 H 0.4938 0.83795 0.57455 0.0
H453 H 0.51796 0.67487 0.57475 0.0
H454 H 0.58658 0.61577 0.5951 0.0
H455 H 0.66499 0.62041 0.6182 0.0
C456 C 0.42952 0.42996 0.86248 0.0
C457 C 0.49214 0.44193 0.87183 0.0
C458 C 0.43535 0.38895 0.84867 0.0
C459 C 0.50393 0.35884 0.84398 0.0
C460 C 0.56618 0.36998 0.85344 0.0
C461 C 0.56032 0.41072 0.86726 0.0
C462 C 0.51064 0.3095 0.83014 0.0
C463 C 0.46011 0.25552 0.82852 0.0
C464 C 0.46884 0.18798 0.83836 0.0
C465 C 0.40849 0.16369 0.84746 0.0
C466 C 0.41786 0.10835 0.85875 0.0
C467 C 0.48774 0.07579 0.86109 0.0
H468 H 0.58583 0.17074 0.83343 0.0
C469 C 0.54772 0.09832 0.85167 0.0
C470 C 0.53836 0.15379 0.84037 0.0
H471 H 0.60183 0.07295 0.85297 0.0
H472 H 0.37653 0.45457 0.86551 0.0
H473 H 0.3863 0.38151 0.84163 0.0
H474 H 0.61945 0.34646 0.85022 0.0
H475 H 0.60989 0.41988 0.87406 0.0
H476 H 0.56745 0.29485 0.82718 0.0
H477 H 0.40301 0.27371 0.82723 0.0
H478 H 0.35448 0.18945 0.84624 0.0
H479 H 0.37025 0.09121 0.86565 0.0
C480 C 0.12754 0.152 0.11464 0.0
C481 C 0.17752 0.11654 0.12467 0.0
C482 C 0.06582 0.11392 0.10915 0.0
C483 C 0.05258 0.03938 0.11367 0.0
C484 C 0.10357 0.00361 0.12347 0.0
C485 C 0.16587 0.04158 0.12882 0.0
C486 C 0.97989 0.00357 0.11093 0.0
C487 C 0.93217 0.03128 0.10042 0.0
C488 C 0.86119 0.06026 0.10645 0.0
C489 C 0.84811 0.13699 0.10494 0.0
C490 C 0.7943 0.17159 0.11412 0.0
C491 C 0.75139 0.12958 0.12464 0.0
H492 H 0.82435 0.95797 0.11756 0.0
C493 C 0.75999 0.05183 0.1252 0.0
C494 C 0.81522 0.01733 0.11626 0.0
H495 H 0.72627 0.01823 0.13302 0.0
H496 H 0.1357 0.20946 0.1111 0.0
H497 H 0.02697 0.14475 0.10205 0.0
H498 H 0.09401 0.94689 0.12736 0.0
H499 H 0.20407 0.01266 0.13645 0.0
H500 H 0.95844 0.97119 0.12073 0.0
H501 H 0.95463 0.05955 0.09017 0.0
H502 H 0.88318 0.17118 0.0975 0.0
H503 H 0.78708 0.23138 0.11317 0.0
C504 C 0.046 0.03039 0.65283 0.0
C505 C 0.98012 0.98867 0.65207 0.0
C506 C 0.04387 0.10776 0.65473 0.0
C507 C 0.97562 0.14556 0.65583 0.0
C508 C 0.90995 0.10356 0.65557 0.0
C509 C 0.91205 0.02615 0.65365 0.0
C510 C 0.9703 0.22823 0.65731 0.0
C511 C 0.02386 0.27573 0.65246 0.0
C512 C 0.0174 0.35877 0.65276 0.0
C513 C 0.08153 0.40163 0.65015 0.0
C514 C 0.07779 0.47945 0.64926 0.0
C515 C 0.00955 0.51652 0.65089 0.0
H516 H 0.89792 0.36617 0.65638 0.0
C517 C 0.94553 0.47388 0.65382 0.0
C518 C 0.94923 0.39612 0.65469 0.0
H519 H 0.89187 0.5004 0.65508 0.0
H520 H 0.09954 0.0034 0.65183 0.0
H521 H 0.09593 0.13727 0.65544 0.0
H522 H 0.85657 0.13091 0.65656 0.0
H523 H 0.86022 0.99589 0.65321 0.0
H524 H 0.91881 0.24995 0.66204 0.0
H525 H 0.07488 0.25332 0.64761 0.0
H526 H 0.13482 0.37472 0.64856 0.0
H527 H 0.12825 0.51036 0.64697 0.0
C528 C 0.78052 0.82773 0.90073 0.0
C529 C 0.73586 0.76505 0.90373 0.0
C530 C 0.8577 0.82392 0.90241 0.0
C531 C 0.89241 0.75692 0.90704 0.0
C532 C 0.8473 0.69519 0.91052 0.0
C533 C 0.77028 0.69905 0.90887 0.0
C534 C 0.97477 0.74815 0.90836 0.0
C535 C 0.02478 0.79663 0.90239 0.0
C536 C 0.10696 0.78628 0.90301 0.0
C537 C 0.15227 0.84893 0.90068 0.0
C538 C 0.22937 0.84207 0.90004 0.0
C539 C 0.26374 0.772 0.90156 0.0
H540 H 0.10863 0.66598 0.90633 0.0
C541 C 0.21868 0.70916 0.90417 0.0
C542 C 0.14118 0.7161 0.90487 0.0
H543 H 0.24311 0.65426 0.9053 0.0
H544 H 0.756 0.87969 0.89687 0.0
H545 H 0.88923 0.87386 0.90004 0.0
H546 H 0.87184 0.643 0.91426 0.0
H547 H 0.73791 0.64957 0.91136 0.0
H548 H 0.99457 0.69838 0.91425 0.0
H549 H 0.00561 0.84687 0.89662 0.0
H550 H 0.12784 0.90364 0.89915 0.0
H551 H 0.26193 0.89187 0.898 0.0
C552 C 0.50696 0.52171 0.15559 0.0
C553 C 0.45194 0.47963 0.14804 0.0
C554 C 0.50394 0.59985 0.15577 0.0
C555 C 0.44539 0.63827 0.14846 0.0
C556 C 0.39 0.59603 0.14111 0.0
C557 C 0.39305 0.51795 0.14092 0.0
C558 C 0.44175 0.72168 0.14738 0.0
C559 C 0.48233 0.76938 0.15609 0.0
C560 C 0.48042 0.85253 0.15422 0.0
C561 C 0.50616 0.89795 0.16644 0.0
C562 C 0.50778 0.97591 0.16491 0.0
C563 C 0.4843 0.01047 0.15101 0.0
H564 H 0.43896 0.85518 0.13037 0.0
C565 C 0.45871 0.9651 0.13877 0.0
C566 C 0.45702 0.8874 0.14031 0.0
H567 H 0.4405 0.98956 0.12785 0.0
H568 H 0.5535 0.49438 0.16113 0.0
H569 H 0.54883 0.62944 0.16129 0.0
H570 H 0.34434 0.6236 0.13529 0.0
H571 H 0.34976 0.48774 0.13495 0.0
H572 H 0.40235 0.74441 0.1391 0.0
H573 H 0.51745 0.74744 0.16527 0.0
H574 H 0.52524 0.87301 0.17725 0.0
H575 H 0.52799 0.00898 0.17456 0.0
C576 C 0.72741 0.19134 0.39999 0.0
C577 C 0.77185 0.25501 0.40189 0.0
C578 C 0.64997 0.19578 0.40145 0.0
C579 C 0.61487 0.26432 0.40479 0.0
C580 C 0.65972 0.32716 0.40719 0.0
C581 C 0.73689 0.32274 0.40573 0.0
C582 C 0.53237 0.27359 0.40587 0.0
C583 C 0.48267 0.22394 0.40039 0.0
C584 C 0.40037 0.2349 0.40073 0.0
C585 C 0.35477 0.17223 0.39885 0.0
C586 C 0.27768 0.17947 0.39811 0.0
C587 C 0.24361 0.24991 0.39909 0.0
H588 H 0.39905 0.35568 0.40302 0.0
C589 C 0.28897 0.31283 0.40115 0.0
C590 C 0.36638 0.30553 0.40195 0.0
H591 H 0.26481 0.36801 0.40186 0.0
H592 H 0.7523 0.13809 0.39714 0.0
H593 H 0.61847 0.14518 0.39995 0.0
H594 H 0.63487 0.38059 0.40993 0.0
H595 H 0.76901 0.37303 0.40735 0.0
H596 H 0.51229 0.32486 0.41109 0.0
H597 H 0.5023 0.17233 0.39527 0.0
H598 H 0.37894 0.11716 0.39778 0.0
H599 H 0.24497 0.12962 0.39643 0.0
loop_
_geom_bond_atom_site_label_1
_geom_bond_atom_site_label_2
_geom_bond_distance
_geom_bond_site_symmetry_2
_ccdc_geom_bond_type
Cd0 N3 2.334 . S
Cd0 N29 2.304 . S
Cd0 O36 2.268 1_455 S
Cd0 O39 2.273 . S
Cd0 O40 2.417 1_455 S
Cd0 O41 2.330 . S
Cd1 N16 2.304 . S
Cd1 N20 2.334 . S
Cd1 O37 2.273 . S
Cd1 O38 2.268 1_655 S
Cd1 O42 2.417 1_655 S
Cd1 O43 2.330 . S
C2 N3 1.332 . S
C2 C6 1.381 . S
C2 H8 0.931 . S
N3 Cd0 2.334 . S
N3 C2 1.332 . S
N3 C7 1.328 1_455 S
C4 C5 1.396 1_655 S
C4 C7 1.378 . S
C4 H46 0.931 . S
C5 C4 1.396 1_455 S
C5 C6 1.382 . S
C6 C2 1.381 . S
C6 C5 1.382 . S
C6 H47 0.930 . S
C7 N3 1.328 1_655 S
C7 C4 1.378 . S
C7 H9 0.930 . S
H8 C2 0.931 . S
H9 C7 0.930 . S
C10 O36 1.238 . S
C10 O37 1.253 . S
C11 C12 1.379 . S
C11 N16 1.337 . S
C11 H17 0.929 . S
C12 C11 1.379 . S
C12 C13 1.380 . S
C12 H48 0.929 . S
C13 C12 1.380 . S
C13 C14 1.399 1_655 S
C14 C13 1.399 1_455 S
C14 C15 1.376 . S
C14 H49 0.931 . S
C15 C14 1.376 . S
C15 N16 1.338 1_455 S
C15 H18 0.930 . S
N16 Cd1 2.304 . S
N16 C11 1.337 . S
N16 C15 1.338 1_655 S
H17 C11 0.929 . S
H18 C15 0.930 . S
C19 N20 1.332 . S
C19 C23 1.381 . S
C19 H25 0.931 . S
N20 Cd1 2.334 . S
N20 C19 1.332 . S
N20 C24 1.328 1_655 S
C21 C22 1.396 1_455 S
C21 C24 1.378 . S
C21 H50 0.931 . S
C22 C21 1.396 1_655 S
C22 C23 1.382 . S
C23 C19 1.381 . S
C23 C22 1.382 . S
C23 H51 0.930 . S
C24 N20 1.328 1_455 S
C24 C21 1.378 . S
C24 H26 0.930 . S
H25 C19 0.931 . S
H26 C24 0.930 . S
C27 O38 1.238 . S
C27 O39 1.253 . S
C28 O40 1.239 1_465 S
C28 O41 1.230 1_565 S
N29 Cd0 2.304 . S
N29 C30 1.337 . S
N29 C34 1.338 1_455 S
C30 N29 1.337 . S
C30 C31 1.379 . S
C30 H44 0.929 . S
C31 C30 1.379 . S
C31 C32 1.380 . S
C31 H52 0.929 . S
C32 C31 1.380 . S
C32 C33 1.399 1_455 S
C33 C32 1.399 1_655 S
C33 C34 1.376 . S
C33 H53 0.931 . S
C34 N29 1.338 1_655 S
C34 C33 1.376 . S
C34 H45 0.930 . S
C35 O42 1.239 1_655 S
C35 O43 1.230 . S
O36 Cd0 2.268 1_655 S
O36 C10 1.238 . S
O37 Cd1 2.273 . S
O37 C10 1.253 . S
O38 Cd1 2.268 1_455 S
O38 C27 1.238 . S
O39 Cd0 2.273 . S
O39 C27 1.253 . S
O40 Cd0 2.417 1_655 S
O40 C28 1.239 1_645 S
O41 Cd0 2.330 . S
O41 C28 1.230 1_545 S
O42 Cd1 2.417 1_455 S
O42 C35 1.239 1_455 S
O43 Cd1 2.330 . S
O43 C35 1.230 . S
H44 C30 0.929 . S
H45 C34 0.930 . S
H46 C4 0.931 . S
H47 C6 0.930 . S
H48 C12 0.929 . S
H49 C14 0.931 . S
H50 C21 0.931 . S
H51 C23 0.930 . S
H52 C31 0.929 . S
H53 C33 0.931 . S
Cd54 N57 2.334 . S
Cd54 N83 2.304 . S
Cd54 O90 2.268 . S
Cd54 O93 2.273 . S
Cd54 O94 2.417 . S
Cd54 O95 2.330 . S
Cd55 N70 2.304 . S
Cd55 N74 2.334 . S
Cd55 O91 2.273 . S
Cd55 O92 2.268 . S
Cd55 O96 2.417 . S
Cd55 O97 2.330 . S
C56 N57 1.332 . S
C56 C60 1.381 . S
C56 H62 0.931 . S
N57 Cd54 2.334 . S
N57 C56 1.332 . S
N57 C61 1.328 . S
C58 C59 1.396 . S
C58 C61 1.378 . S
C58 H100 0.931 . S
C59 C58 1.396 . S
C59 C60 1.382 . S
C60 C56 1.381 . S
C60 C59 1.382 . S
C60 H101 0.930 . S
C61 N57 1.328 . S
C61 C58 1.378 . S
C61 H63 0.930 . S
H62 C56 0.931 . S
H63 C61 0.930 . S
C64 O90 1.238 1_655 S
C64 O91 1.253 . S
C65 C66 1.379 . S
C65 N70 1.337 . S
C65 H71 0.929 . S
C66 C65 1.379 . S
C66 C67 1.380 . S
C66 H102 0.929 . S
C67 C66 1.380 . S
C67 C68 1.399 . S
C68 C67 1.399 . S
C68 C69 1.376 . S
C68 H103 0.931 . S
C69 C68 1.376 . S
C69 N70 1.338 . S
C69 H72 0.930 . S
N70 Cd55 2.304 . S
N70 C65 1.337 . S
N70 C69 1.338 . S
H71 C65 0.929 . S
H72 C69 0.930 . S
C73 N74 1.332 . S
C73 C77 1.381 . S
C73 H79 0.931 . S
N74 Cd55 2.334 . S
N74 C73 1.332 . S
N74 C78 1.328 . S
C75 C76 1.396 . S
C75 C78 1.378 . S
C75 H104 0.931 . S
C76 C75 1.396 . S
C76 C77 1.382 . S
C77 C73 1.381 . S
C77 C76 1.382 . S
C77 H105 0.930 . S
C78 N74 1.328 . S
C78 C75 1.378 . S
C78 H80 0.930 . S
H79 C73 0.931 . S
H80 C78 0.930 . S
C81 O92 1.238 1_455 S
C81 O93 1.253 . S
C82 O94 1.239 . S
C82 O95 1.230 . S
N83 Cd54 2.304 . S
N83 C84 1.337 . S
N83 C88 1.338 . S
C84 N83 1.337 . S
C84 C85 1.379 . S
C84 H98 0.929 . S
C85 C84 1.379 . S
C85 C86 1.380 . S
C85 H106 0.929 . S
C86 C85 1.380 . S
C86 C87 1.399 . S
C87 C86 1.399 . S
C87 C88 1.376 . S
C87 H107 0.931 . S
C88 N83 1.338 . S
C88 C87 1.376 . S
C88 H99 0.930 . S
C89 O96 1.239 . S
C89 O97 1.230 . S
O90 Cd54 2.268 . S
O90 C64 1.238 1_455 S
O91 Cd55 2.273 . S
O91 C64 1.253 . S
O92 Cd55 2.268 . S
O92 C81 1.238 1_655 S
O93 Cd54 2.273 . S
O93 C81 1.253 . S
O94 Cd54 2.417 . S
O94 C82 1.239 . S
O95 Cd54 2.330 . S
O95 C82 1.230 . S
O96 Cd55 2.417 . S
O96 C89 1.239 . S
O97 Cd55 2.330 . S
O97 C89 1.230 . S
H98 C84 0.929 . S
H99 C88 0.930 . S
H100 C58 0.931 . S
H101 C60 0.930 . S
H102 C66 0.929 . S
H103 C68 0.931 . S
H104 C75 0.931 . S
H105 C77 0.930 . S
H106 C85 0.929 . S
H107 C87 0.931 . S
Cd108 N111 2.334 . S
Cd108 N137 2.304 . S
Cd108 O144 2.268 . S
Cd108 O147 2.273 . S
Cd108 O148 2.417 . S
Cd108 O149 2.330 . S
Cd109 N124 2.304 . S
Cd109 N128 2.334 . S
Cd109 O145 2.273 . S
Cd109 O146 2.268 . S
Cd109 O150 2.417 . S
Cd109 O151 2.330 . S
C110 N111 1.332 . S
C110 C114 1.381 . S
C110 H116 0.931 . S
N111 Cd108 2.334 . S
N111 C110 1.332 . S
N111 C115 1.328 . S
C112 C113 1.396 . S
C112 C115 1.378 . S
C112 H154 0.931 . S
C113 C112 1.396 . S
C113 C114 1.382 . S
C114 C110 1.381 . S
C114 C113 1.382 . S
C114 H155 0.930 . S
C115 N111 1.328 . S
C115 C112 1.378 . S
C115 H117 0.930 . S
H116 C110 0.931 . S
H117 C115 0.930 . S
C118 O144 1.238 . S
C118 O145 1.253 . S
C119 C120 1.379 . S
C119 N124 1.337 . S
C119 H125 0.929 . S
C120 C119 1.379 . S
C120 C121 1.380 . S
C120 H156 0.929 . S
C121 C120 1.380 . S
C121 C122 1.399 . S
C122 C121 1.399 . S
C122 C123 1.376 . S
C122 H157 0.931 . S
C123 C122 1.376 . S
C123 N124 1.338 . S
C123 H126 0.930 . S
N124 Cd109 2.304 . S
N124 C119 1.337 . S
N124 C123 1.338 . S
H125 C119 0.929 . S
H126 C123 0.930 . S
C127 N128 1.332 . S
C127 C131 1.381 . S
C127 H133 0.931 . S
N128 Cd109 2.334 . S
N128 C127 1.332 . S
N128 C132 1.328 . S
C129 C130 1.396 . S
C129 C132 1.378 . S
C129 H158 0.931 . S
C130 C129 1.396 . S
C130 C131 1.382 . S
C131 C127 1.381 . S
C131 C130 1.382 . S
C131 H159 0.930 . S
C132 N128 1.328 . S
C132 C129 1.378 . S
C132 H134 0.930 . S
H133 C127 0.931 . S
H134 C132 0.930 . S
C135 O146 1.238 . S
C135 O147 1.253 . S
C136 O148 1.239 . S
C136 O149 1.230 . S
N137 Cd108 2.304 . S
N137 C138 1.337 . S
N137 C142 1.338 . S
C138 N137 1.337 . S
C138 C139 1.379 . S
C138 H152 0.929 . S
C139 C138 1.379 . S
C139 C140 1.380 . S
C139 H160 0.929 . S
C140 C139 1.380 . S
C140 C141 1.399 . S
C141 C140 1.399 . S
C141 C142 1.376 . S
C141 H161 0.931 . S
C142 N137 1.338 . S
C142 C141 1.376 . S
C142 H153 0.930 . S
C143 O150 1.239 1_545 S
C143 O151 1.230 1_545 S
O144 Cd108 2.268 . S
O144 C118 1.238 . S
O145 Cd109 2.273 . S
O145 C118 1.253 . S
O146 Cd109 2.268 . S
O146 C135 1.238 . S
O147 Cd108 2.273 . S
O147 C135 1.253 . S
O148 Cd108 2.417 . S
O148 C136 1.239 . S
O149 Cd108 2.330 . S
O149 C136 1.230 . S
O150 Cd109 2.417 . S
O150 C143 1.239 1_565 S
O151 Cd109 2.330 . S
O151 C143 1.230 1_565 S
H152 C138 0.929 . S
H153 C142 0.930 . S
H154 C112 0.931 . S
H155 C114 0.930 . S
H156 C120 0.929 . S
H157 C122 0.931 . S
H158 C129 0.931 . S
H159 C131 0.930 . S
H160 C139 0.929 . S
H161 C141 0.931 . S
Cd162 N165 2.334 . S
Cd162 N191 2.304 . S
Cd162 O198 2.268 . S
Cd162 O201 2.273 . S
Cd162 O202 2.417 . S
Cd162 O203 2.330 . S
Cd163 N178 2.304 . S
Cd163 N182 2.334 . S
Cd163 O199 2.273 . S
Cd163 O200 2.268 . S
Cd163 O204 2.417 . S
Cd163 O205 2.330 . S
C164 N165 1.332 . S
C164 C168 1.381 . S
C164 H170 0.931 . S
N165 Cd162 2.334 . S
N165 C164 1.332 . S
N165 C169 1.328 . S
C166 C167 1.396 . S
C166 C169 1.378 . S
C166 H208 0.931 . S
C167 C166 1.396 . S
C167 C168 1.382 . S
C168 C164 1.381 . S
C168 C167 1.382 . S
C168 H209 0.930 . S
C169 N165 1.328 . S
C169 C166 1.378 . S
C169 H171 0.930 . S
H170 C164 0.931 . S
H171 C169 0.930 . S
C172 O198 1.238 . S
C172 O199 1.253 . S
C173 C174 1.379 . S
C173 N178 1.337 . S
C173 H179 0.929 . S
C174 C173 1.379 . S
C174 C175 1.380 . S
C174 H210 0.929 . S
C175 C174 1.380 . S
C175 C176 1.399 . S
C176 C175 1.399 . S
C176 C177 1.376 . S
C176 H211 0.931 . S
C177 C176 1.376 . S
C177 N178 1.338 . S
C177 H180 0.930 . S
N178 Cd163 2.304 . S
N178 C173 1.337 . S
N178 C177 1.338 . S
H179 C173 0.929 . S
H180 C177 0.930 . S
C181 N182 1.332 . S
C181 C185 1.381 . S
C181 H187 0.931 . S
N182 Cd163 2.334 . S
N182 C181 1.332 . S
N182 C186 1.328 . S
C183 C184 1.396 . S
C183 C186 1.378 . S
C183 H212 0.931 . S
C184 C183 1.396 . S
C184 C185 1.382 . S
C185 C181 1.381 . S
C185 C184 1.382 . S
C185 H213 0.930 . S
C186 N182 1.328 . S
C186 C183 1.378 . S
C186 H188 0.930 . S
H187 C181 0.931 . S
H188 C186 0.930 . S
C189 O200 1.238 . S
C189 O201 1.253 . S
C190 O202 1.239 . S
C190 O203 1.230 . S
N191 Cd162 2.304 . S
N191 C192 1.337 . S
N191 C196 1.338 . S
C192 N191 1.337 . S
C192 C193 1.379 . S
C192 H206 0.929 . S
C193 C192 1.379 . S
C193 C194 1.380 . S
C193 H214 0.929 . S
C194 C193 1.380 . S
C194 C195 1.399 . S
C195 C194 1.399 . S
C195 C196 1.376 . S
C195 H215 0.931 . S
C196 N191 1.338 . S
C196 C195 1.376 . S
C196 H207 0.930 . S
C197 O204 1.239 . S
C197 O205 1.230 . S
O198 Cd162 2.268 . S
O198 C172 1.238 . S
O199 Cd163 2.273 . S
O199 C172 1.253 . S
O200 Cd163 2.268 . S
O200 C189 1.238 . S
O201 Cd162 2.273 . S
O201 C189 1.253 . S
O202 Cd162 2.417 . S
O202 C190 1.239 . S
O203 Cd162 2.330 . S
O203 C190 1.230 . S
O204 Cd163 2.417 . S
O204 C197 1.239 . S
O205 Cd163 2.330 . S
O205 C197 1.230 . S
H206 C192 0.929 . S
H207 C196 0.930 . S
H208 C166 0.931 . S
H209 C168 0.930 . S
H210 C174 0.929 . S
H211 C176 0.931 . S
H212 C183 0.931 . S
H213 C185 0.930 . S
H214 C193 0.929 . S
H215 C195 0.931 . S
C216 C217 1.386 . S
C216 C218 1.383 . S
C216 H232 0.951 . S
C217 C216 1.386 . S
C217 C221 1.383 . S
C218 C216 1.383 . S
C218 C219 1.402 . S
C218 H233 0.951 . S
C219 C218 1.402 . S
C219 C220 1.375 . S
C219 C222 1.481 . S
C220 C219 1.375 . S
C220 C221 1.367 . S
C220 H234 0.951 . S
C221 C217 1.383 . S
C221 C220 1.367 . S
C221 H235 0.950 1_655 S
C222 C219 1.481 . S
C222 C223 1.297 . S
C222 H236 0.950 . S
C223 C222 1.297 . S
C223 C224 1.479 . S
C223 H237 0.950 . S
C224 C223 1.479 . S
C224 C225 1.375 . S
C224 C230 1.404 . S
C225 C224 1.375 . S
C225 C226 1.369 . S
C225 H238 0.950 . S
C226 C225 1.369 . S
C226 C227 1.392 . S
C226 H239 0.951 . S
C227 C226 1.392 . S
C227 C229 1.384 . S
H228 C230 0.949 . S
C229 C227 1.384 . S
C229 C230 1.385 . S
C229 H231 0.950 . S
C230 C224 1.404 . S
C230 H228 0.949 . S
C230 C229 1.385 . S
H231 C229 0.950 . S
H232 C216 0.951 . S
H233 C218 0.951 . S
H234 C220 0.951 . S
H235 C221 0.950 1_455 S
H236 C222 0.950 . S
H237 C223 0.950 . S
H238 C225 0.950 . S
H239 C226 0.951 . S
C240 C241 1.386 . S
C240 C242 1.383 . S
C240 H256 0.951 . S
C241 C240 1.386 . S
C241 C245 1.383 . S
C242 C240 1.383 . S
C242 C243 1.402 . S
C242 H257 0.951 . S
C243 C242 1.402 . S
C243 C244 1.375 . S
C243 C246 1.481 . S
C244 C243 1.375 . S
C244 C245 1.367 . S
C244 H258 0.951 . S
C245 C241 1.383 . S
C245 C244 1.367 . S
C245 H259 0.950 . S
C246 C243 1.481 . S
C246 C247 1.297 . S
C246 H260 0.950 . S
C247 C246 1.297 . S
C247 C248 1.479 . S
C247 H261 0.950 . S
C248 C247 1.479 . S
C248 C249 1.375 . S
C248 C254 1.404 . S
C249 C248 1.375 . S
C249 C250 1.369 . S
C249 H262 0.950 . S
C250 C249 1.369 . S
C250 C251 1.392 . S
C250 H263 0.951 . S
C251 C250 1.392 . S
C251 C253 1.384 . S
H252 C254 0.949 . S
C253 C251 1.384 . S
C253 C254 1.385 . S
C253 H255 0.950 . S
C254 C248 1.404 . S
C254 H252 0.949 . S
C254 C253 1.385 . S
H255 C253 0.950 . S
H256 C240 0.951 . S
H257 C242 0.951 . S
H258 C244 0.951 . S
H259 C245 0.950 . S
H260 C246 0.950 . S
H261 C247 0.950 . S
H262 C249 0.950 . S
H263 C250 0.951 . S
C264 C265 1.386 . S
C264 C266 1.383 . S
C264 H280 0.951 . S
C265 C264 1.386 . S
C265 C269 1.383 . S
C266 C264 1.383 . S
C266 C267 1.402 . S
C266 H281 0.951 . S
C267 C266 1.402 . S
C267 C268 1.375 . S
C267 C270 1.425 1_556 S
C268 C267 1.375 . S
C268 C269 1.367 . S
C268 H282 0.951 . S
C269 C265 1.383 . S
C269 C268 1.367 . S
C269 H283 0.950 . S
C270 C267 1.425 1_554 S
C270 C271 1.316 . S
C270 H284 0.993 . S
C271 C270 1.316 . S
C271 C272 1.479 . S
C271 H285 0.950 1_554 S
C272 C271 1.479 . S
C272 C273 1.375 . S
C272 C278 1.404 . S
C273 C272 1.375 . S
C273 C274 1.369 . S
C273 H286 0.950 . S
C274 C273 1.369 . S
C274 C275 1.392 . S
C274 H287 0.951 . S
C275 C274 1.392 . S
C275 C277 1.384 . S
H276 C278 0.949 . S
C277 C275 1.384 . S
C277 C278 1.385 . S
C277 H279 0.950 . S
C278 C272 1.404 . S
C278 H276 0.949 . S
C278 C277 1.385 . S
H279 C277 0.950 . S
H280 C264 0.951 . S
H281 C266 0.951 . S
H282 C268 0.951 . S
H283 C269 0.950 . S
H284 C270 0.993 . S
H285 C271 0.950 1_556 S
H286 C273 0.950 . S
H287 C274 0.951 . S
C288 C289 1.386 . S
C288 C290 1.383 . S
C288 H304 0.951 . S
C289 C288 1.386 . S
C289 C293 1.383 . S
C290 C288 1.383 . S
C290 C291 1.402 . S
C290 H305 0.951 . S
C291 C290 1.402 . S
C291 C292 1.375 . S
C291 C294 1.481 . S
C292 C291 1.375 . S
C292 C293 1.367 . S
C292 H306 0.951 . S
C293 C289 1.383 . S
C293 C292 1.367 . S
C293 H307 0.950 . S
C294 C291 1.481 . S
C294 C295 1.297 . S
C294 H308 0.950 . S
C295 C294 1.297 . S
C295 C296 1.479 . S
C295 H309 0.950 . S
C296 C295 1.479 . S
C296 C297 1.375 . S
C296 C302 1.404 . S
C297 C296 1.375 . S
C297 C298 1.369 . S
C297 H310 0.950 . S
C298 C297 1.369 . S
C298 C299 1.392 . S
C298 H311 0.951 . S
C299 C298 1.392 . S
C299 C301 1.384 . S
H300 C302 0.949 . S
C301 C299 1.384 . S
C301 C302 1.385 . S
C301 H303 0.950 . S
C302 C296 1.404 . S
C302 H300 0.949 . S
C302 C301 1.385 . S
H303 C301 0.950 . S
H304 C288 0.951 . S
H305 C290 0.951 . S
H306 C292 0.951 . S
H307 C293 0.950 . S
H308 C294 0.950 . S
H309 C295 0.950 . S
H310 C297 0.950 . S
H311 C298 0.951 . S
C312 C313 1.386 . S
C312 C314 1.383 . S
C312 H328 0.951 . S
C313 C312 1.386 . S
C313 C317 1.383 . S
C314 C312 1.383 . S
C314 C315 1.402 . S
C314 H329 0.951 . S
C315 C314 1.402 . S
C315 C316 1.375 . S
C315 C318 1.481 . S
C316 C315 1.375 . S
C316 C317 1.367 . S
C316 H330 0.951 . S
C317 C313 1.383 . S
C317 C316 1.367 . S
C317 H331 0.950 . S
C318 C315 1.481 . S
C318 C319 1.297 . S
C318 H332 0.950 . S
C319 C318 1.297 . S
C319 C320 1.479 . S
C319 H333 0.950 . S
C320 C319 1.479 . S
C320 C321 1.375 . S
C320 C326 1.404 . S
C321 C320 1.375 . S
C321 C322 1.369 . S
C321 H334 0.950 . S
C322 C321 1.369 . S
C322 C323 1.392 . S
C322 H335 0.951 . S
C323 C322 1.392 . S
C323 C325 1.384 . S
H324 C326 0.949 . S
C325 C323 1.384 . S
C325 C326 1.385 . S
C325 H327 0.950 . S
C326 C320 1.404 . S
C326 H324 0.949 . S
C326 C325 1.385 . S
H327 C325 0.950 . S
H328 C312 0.951 . S
H329 C314 0.951 . S
H330 C316 0.951 . S
H331 C317 0.950 . S
H332 C318 0.950 . S
H333 C319 0.950 . S
H334 C321 0.950 . S
H335 C322 0.951 . S
C336 C337 1.386 . S
C336 C338 1.383 . S
C336 H352 0.951 . S
C337 C336 1.386 . S
C337 C341 1.383 . S
C338 C336 1.383 . S
C338 C339 1.402 . S
C338 H353 0.951 . S
C339 C338 1.402 . S
C339 C340 1.375 . S
C339 C342 1.481 . S
C340 C339 1.375 . S
C340 C341 1.367 . S
C340 H354 0.951 . S
C341 C337 1.383 . S
C341 C340 1.367 . S
C341 H355 0.950 . S
C342 C339 1.481 . S
C342 C343 1.297 . S
C342 H356 0.950 . S
C343 C342 1.297 . S
C343 C344 1.479 . S
C343 H357 0.950 . S
C344 C343 1.479 . S
C344 C345 1.375 . S
C344 C350 1.404 . S
C345 C344 1.375 . S
C345 C346 1.369 . S
C345 H358 0.950 . S
C346 C345 1.369 . S
C346 C347 1.392 . S
C346 H359 0.951 . S
C347 C346 1.392 . S
C347 C349 1.384 . S
H348 C350 0.949 . S
C349 C347 1.384 . S
C349 C350 1.385 . S
C349 H351 0.950 . S
C350 C344 1.404 . S
C350 H348 0.949 . S
C350 C349 1.385 . S
H351 C349 0.950 . S
H352 C336 0.951 . S
H353 C338 0.951 . S
H354 C340 0.951 . S
H355 C341 0.950 . S
H356 C342 0.950 . S
H357 C343 0.950 . S
H358 C345 0.950 . S
H359 C346 0.951 . S
C360 C361 1.386 . S
C360 C362 1.383 1_565 S
C360 H376 0.951 . S
C361 C360 1.386 . S
C361 C365 1.383 . S
C362 C360 1.383 1_545 S
C362 C363 1.402 1_545 S
C362 H377 0.951 . S
C363 C362 1.402 1_565 S
C363 C364 1.375 . S
C363 C366 1.481 . S
C364 C363 1.375 . S
C364 C365 1.367 . S
C364 H378 0.951 . S
C365 C361 1.383 . S
C365 C364 1.367 . S
C365 H379 0.950 . S
C366 C363 1.481 . S
C366 C367 1.297 1_566 S
C366 H380 0.950 1_556 S
C367 C366 1.297 1_544 S
C367 C368 1.479 . S
C367 H381 0.950 1_554 S
C368 C367 1.479 . S
C368 C369 1.375 . S
C368 C374 1.404 . S
C369 C368 1.375 . S
C369 C370 1.369 . S
C369 H382 0.950 . S
C370 C369 1.369 . S
C370 C371 1.392 . S
C370 H383 0.951 . S
C371 C370 1.392 . S
C371 C373 1.384 . S
H372 C374 0.949 . S
C373 C371 1.384 . S
C373 C374 1.385 . S
C373 H375 0.950 . S
C374 C368 1.404 . S
C374 H372 0.949 . S
C374 C373 1.385 . S
H375 C373 0.950 . S
H376 C360 0.951 . S
H377 C362 0.951 . S
H378 C364 0.951 . S
H379 C365 0.950 . S
H380 C366 0.950 1_554 S
H381 C367 0.950 1_556 S
H382 C369 0.950 . S
H383 C370 0.951 . S
C384 C385 1.386 1_655 S
C384 C386 1.383 . S
C384 H400 0.951 . S
C385 C384 1.386 1_455 S
C385 C389 1.383 . S
C386 C384 1.383 . S
C386 C387 1.402 1_645 S
C386 H401 0.951 . S
C387 C386 1.402 1_465 S
C387 C388 1.375 . S
C387 C390 1.481 . S
C388 C387 1.375 . S
C388 C389 1.367 1_565 S
C388 H402 0.951 . S
C389 C385 1.383 . S
C389 C388 1.367 1_545 S
C389 H403 0.950 . S
C390 C387 1.481 . S
C390 C391 1.297 . S
C390 H404 0.950 . S
C391 C390 1.297 . S
C391 C392 1.479 . S
C391 H405 0.950 1_455 S
C392 C391 1.479 . S
C392 C393 1.375 . S
C392 C398 1.404 . S
C393 C392 1.375 . S
C393 C394 1.369 . S
C393 H406 0.950 1_455 S
C394 C393 1.369 . S
C394 C395 1.392 . S
C394 H407 0.951 . S
C395 C394 1.392 . S
C395 C397 1.384 . S
H396 C398 0.949 . S
C397 C395 1.384 . S
C397 C398 1.385 . S
C397 H399 0.950 . S
C398 C392 1.404 . S
C398 H396 0.949 . S
C398 C397 1.385 . S
H399 C397 0.950 . S
H400 C384 0.951 . S
H401 C386 0.951 . S
H402 C388 0.951 . S
H403 C389 0.950 . S
H404 C390 0.950 . S
H405 C391 0.950 1_655 S
H406 C393 0.950 1_655 S
H407 C394 0.951 . S
C408 C409 1.386 1_665 S
C408 C410 1.383 . S
C408 H424 0.951 . S
C409 C408 1.386 1_445 S
C409 C413 1.383 1_545 S
C410 C408 1.383 . S
C410 C411 1.402 1_655 S
C410 H425 0.951 . S
C411 C410 1.402 1_455 S
C411 C412 1.375 . S
C411 C414 1.481 . S
C412 C411 1.375 . S
C412 C413 1.367 . S
C412 H426 0.951 . S
C413 C409 1.383 1_565 S
C413 C412 1.367 . S
C413 H427 0.950 1_565 S
C414 C411 1.481 . S
C414 C415 1.297 1_455 S
C414 H428 0.950 . S
C415 C414 1.297 1_655 S
C415 C416 1.479 . S
C415 H429 0.950 . S
C416 C415 1.479 . S
C416 C417 1.375 . S
C416 C422 1.404 1_655 S
C417 C416 1.375 . S
C417 C418 1.369 . S
C417 H430 0.950 . S
C418 C417 1.369 . S
C418 C419 1.392 . S
C418 H431 0.951 . S
C419 C418 1.392 . S
C419 C421 1.384 1_655 S
H420 C422 0.949 . S
C421 C419 1.384 1_455 S
C421 C422 1.385 . S
C421 H423 0.950 . S
C422 C416 1.404 1_455 S
C422 H420 0.949 . S
C422 C421 1.385 . S
H423 C421 0.950 . S
H424 C408 0.951 . S
H425 C410 0.951 . S
H426 C412 0.951 . S
H427 C413 0.950 1_545 S
H428 C414 0.950 . S
H429 C415 0.950 . S
H430 C417 0.950 . S
H431 C418 0.951 . S
C432 C433 1.386 . S
C432 C434 1.383 . S
C432 H448 0.951 . S
C433 C432 1.386 . S
C433 C437 1.383 . S
C434 C432 1.383 . S
C434 C435 1.402 . S
C434 H449 0.951 . S
C435 C434 1.402 . S
C435 C436 1.375 . S
C435 C438 1.481 . S
C436 C435 1.375 . S
C436 C437 1.367 . S
C436 H450 0.951 . S
C437 C433 1.383 . S
C437 C436 1.367 . S
C437 H451 0.950 . S
C438 C435 1.481 . S
C438 C439 1.297 . S
C438 H452 0.950 . S
C439 C438 1.297 . S
C439 C440 1.479 . S
C439 H453 0.950 . S
C440 C439 1.479 . S
C440 C441 1.375 . S
C440 C446 1.404 . S
C441 C440 1.375 . S
C441 C442 1.369 . S
C441 H454 0.950 . S
C442 C441 1.369 . S
C442 C443 1.392 . S
C442 H455 0.951 . S
C443 C442 1.392 . S
C443 C445 1.384 . S
H444 C446 0.949 . S
C445 C443 1.384 . S
C445 C446 1.385 . S
C445 H447 0.950 . S
C446 C440 1.404 . S
C446 H444 0.949 . S
C446 C445 1.385 . S
H447 C445 0.950 . S
H448 C432 0.951 . S
H449 C434 0.951 . S
H450 C436 0.951 . S
H451 C437 0.950 . S
H452 C438 0.950 . S
H453 C439 0.950 . S
H454 C441 0.950 . S
H455 C442 0.951 . S
C456 C457 1.386 . S
C456 C458 1.383 . S
C456 H472 0.951 . S
C457 C456 1.386 . S
C457 C461 1.383 . S
C458 C456 1.383 . S
C458 C459 1.402 . S
C458 H473 0.951 . S
C459 C458 1.402 . S
C459 C460 1.375 . S
C459 C462 1.481 . S
C460 C459 1.375 . S
C460 C461 1.367 . S
C460 H474 0.951 . S
C461 C457 1.383 . S
C461 C460 1.367 . S
C461 H475 0.950 . S
C462 C459 1.481 . S
C462 C463 1.297 . S
C462 H476 0.950 . S
C463 C462 1.297 . S
C463 C464 1.479 . S
C463 H477 0.950 . S
C464 C463 1.479 . S
C464 C465 1.375 . S
C464 C470 1.404 . S
C465 C464 1.375 . S
C465 C466 1.369 . S
C465 H478 0.950 . S
C466 C465 1.369 . S
C466 C467 1.392 1_545 S
C466 H479 0.950 . S
C467 C466 1.392 1_565 S
C467 C469 1.384 1_565 S
H468 C470 0.949 . S
C469 C467 1.384 1_545 S
C469 C470 1.385 . S
C469 H471 0.950 . S
C470 C464 1.404 . S
C470 H468 0.949 . S
C470 C469 1.385 . S
H471 C469 0.950 . S
H472 C456 0.951 . S
H473 C458 0.951 . S
H474 C460 0.951 . S
H475 C461 0.950 . S
H476 C462 0.950 . S
H477 C463 0.950 . S
H478 C465 0.950 . S
H479 C466 0.950 . S
C480 C481 1.386 . S
C480 C482 1.383 . S
C480 H496 0.951 . S
C481 C480 1.386 . S
C481 C485 1.383 . S
C482 C480 1.383 . S
C482 C483 1.402 . S
C482 H497 0.951 . S
C483 C482 1.402 . S
C483 C484 1.375 . S
C483 C486 1.481 . S
C484 C483 1.375 . S
C484 C485 1.367 . S
C484 H498 0.951 . S
C485 C481 1.383 . S
C485 C484 1.367 . S
C485 H499 0.950 . S
C486 C483 1.481 . S
C486 C487 1.297 1_455 S
C486 H500 0.950 . S
C487 C486 1.297 1_655 S
C487 C488 1.479 . S
C487 H501 0.950 . S
C488 C487 1.479 . S
C488 C489 1.375 . S
C488 C494 1.404 . S
C489 C488 1.375 . S
C489 C490 1.369 . S
C489 H502 0.950 . S
C490 C489 1.369 . S
C490 C491 1.392 . S
C490 H503 0.951 . S
C491 C490 1.392 . S
C491 C493 1.384 . S
H492 C494 0.949 . S
C493 C491 1.384 . S
C493 C494 1.385 . S
C493 H495 0.950 . S
C494 C488 1.404 . S
C494 H492 0.949 . S
C494 C493 1.385 . S
H495 C493 0.950 . S
H496 C480 0.951 . S
H497 C482 0.951 . S
H498 C484 0.951 . S
H499 C485 0.950 . S
H500 C486 0.950 . S
H501 C487 0.950 . S
H502 C489 0.950 . S
H503 C490 0.951 . S
C504 C505 1.386 1_445 S
C504 C506 1.383 . S
C504 H520 0.951 . S
C505 C504 1.386 1_665 S
C505 C509 1.383 1_565 S
C506 C504 1.383 . S
C506 C507 1.402 1_455 S
C506 H521 0.951 . S
C507 C506 1.402 1_655 S
C507 C508 1.375 . S
C507 C510 1.481 . S
C508 C507 1.375 . S
C508 C509 1.367 . S
C508 H522 0.951 . S
C509 C505 1.383 1_545 S
C509 C508 1.367 . S
C509 H523 0.950 1_545 S
C510 C507 1.481 . S
C510 C511 1.297 1_655 S
C510 H524 0.950 . S
C511 C510 1.297 1_455 S
C511 C512 1.479 . S
C511 H525 0.950 . S
C512 C511 1.479 . S
C512 C513 1.375 . S
C512 C518 1.404 1_455 S
C513 C512 1.375 . S
C513 C514 1.369 . S
C513 H526 0.950 . S
C514 C513 1.369 . S
C514 C515 1.392 . S
C514 H527 0.951 . S
C515 C514 1.392 . S
C515 C517 1.384 1_455 S
H516 C518 0.949 . S
C517 C515 1.384 1_655 S
C517 C518 1.385 . S
C517 H519 0.950 . S
C518 C512 1.404 1_655 S
C518 H516 0.949 . S
C518 C517 1.385 . S
H519 C517 0.950 . S
H520 C504 0.951 . S
H521 C506 0.951 . S
H522 C508 0.951 . S
H523 C509 0.950 1_565 S
H524 C510 0.950 . S
H525 C511 0.950 . S
H526 C513 0.950 . S
H527 C514 0.951 . S
C528 C529 1.386 . S
C528 C530 1.383 . S
C528 H544 0.951 . S
C529 C528 1.386 . S
C529 C533 1.383 . S
C530 C528 1.383 . S
C530 C531 1.402 . S
C530 H545 0.951 . S
C531 C530 1.402 . S
C531 C532 1.375 . S
C531 C534 1.481 . S
C532 C531 1.375 . S
C532 C533 1.367 . S
C532 H546 0.951 . S
C533 C529 1.383 . S
C533 C532 1.367 . S
C533 H547 0.950 . S
C534 C531 1.481 . S
C534 C535 1.297 1_655 S
C534 H548 0.950 . S
C535 C534 1.297 1_455 S
C535 C536 1.479 . S
C535 H549 0.950 . S
C536 C535 1.479 . S
C536 C537 1.375 . S
C536 C542 1.404 . S
C537 C536 1.375 . S
C537 C538 1.369 . S
C537 H550 0.950 . S
C538 C537 1.369 . S
C538 C539 1.392 . S
C538 H551 0.951 . S
C539 C538 1.392 . S
C539 C541 1.384 . S
H540 C542 0.949 . S
C541 C539 1.384 . S
C541 C542 1.385 . S
C541 H543 0.950 . S
C542 C536 1.404 . S
C542 H540 0.949 . S
C542 C541 1.385 . S
H543 C541 0.950 . S
H544 C528 0.951 . S
H545 C530 0.951 . S
H546 C532 0.951 . S
H547 C533 0.950 . S
H548 C534 0.950 . S
H549 C535 0.950 . S
H550 C537 0.950 . S
H551 C538 0.951 . S
C552 C553 1.386 . S
C552 C554 1.383 . S
C552 H568 0.951 . S
C553 C552 1.386 . S
C553 C557 1.383 . S
C554 C552 1.383 . S
C554 C555 1.402 . S
C554 H569 0.951 . S
C555 C554 1.402 . S
C555 C556 1.375 . S
C555 C558 1.481 . S
C556 C555 1.375 . S
C556 C557 1.367 . S
C556 H570 0.951 . S
C557 C553 1.383 . S
C557 C556 1.367 . S
C557 H571 0.950 . S
C558 C555 1.481 . S
C558 C559 1.297 . S
C558 H572 0.950 . S
C559 C558 1.297 . S
C559 C560 1.479 . S
C559 H573 0.950 . S
C560 C559 1.479 . S
C560 C561 1.375 . S
C560 C566 1.404 . S
C561 C560 1.375 . S
C561 C562 1.369 . S
C561 H574 0.950 . S
C562 C561 1.369 . S
C562 C563 1.392 1_565 S
C562 H575 0.951 . S
C563 C562 1.392 1_545 S
C563 C565 1.384 1_545 S
H564 C566 0.949 . S
C565 C563 1.384 1_565 S
C565 C566 1.385 . S
C565 H567 0.950 . S
C566 C560 1.404 . S
C566 H564 0.949 . S
C566 C565 1.385 . S
H567 C565 0.950 . S
H568 C552 0.951 . S
H569 C554 0.951 . S
H570 C556 0.951 . S
H571 C557 0.950 . S
H572 C558 0.950 . S
H573 C559 0.950 . S
H574 C561 0.950 . S
H575 C562 0.951 . S
C576 C577 1.386 . S
C576 C578 1.383 . S
C576 H592 0.951 . S
C577 C576 1.386 . S
C577 C581 1.383 . S
C578 C576 1.383 . S
C578 C579 1.402 . S
C578 H593 0.951 . S
C579 C578 1.402 . S
C579 C580 1.375 . S
C579 C582 1.481 . S
C580 C579 1.375 . S
C580 C581 1.367 . S
C580 H594 0.951 . S
C581 C577 1.383 . S
C581 C580 1.367 . S
C581 H595 0.950 . S
C582 C579 1.481 . S
C582 C583 1.297 . S
C582 H596 0.950 . S
C583 C582 1.297 . S
C583 C584 1.479 . S
C583 H597 0.950 . S
C584 C583 1.479 . S
C584 C585 1.375 . S
C584 C590 1.404 . S
C585 C584 1.375 . S
C585 C586 1.369 . S
C585 H598 0.950 . S
C586 C585 1.369 . S
C586 C587 1.392 . S
C586 H599 0.951 . S
C587 C586 1.392 . S
C587 C589 1.384 . S
H588 C590 0.949 . S
C589 C587 1.384 . S
C589 C590 1.385 . S
C589 H591 0.950 . S
C590 C584 1.404 . S
C590 H588 0.949 . S
C590 C589 1.385 . S
H591 C589 0.950 . S
H592 C576 0.951 . S
H593 C578 0.951 . S
H594 C580 0.951 . S
H595 C581 0.950 . S
H596 C582 0.950 . S
H597 C583 0.950 . S
H598 C585 0.950 . S
H599 C586 0.951 . S
C217 C13 2.187 . S
C227 C76 2.156 . S
C241 C113 2.179 . S
C251 C67 2.181 . S
C265 C140 2.189 . S
C275 C167 2.142 . S
C289 C22 2.163 . S
C299 C194 2.137 . S
C313 C175 2.185 . S
C323 C5 2.128 . S
C337 C86 2.171 . S
C347 C130 2.187 . S
C361 C121 2.179 . S
C371 C184 2.176 . S
C385 C32 2.145 . S
C395 C59 2.181 . S
C409 C28 0.373 1_545 S
C419 C35 0.410 . S
C433 C82 0.371 . S
C443 C89 0.416 . S
C457 C136 0.376 . S
C467 C143 0.411 1_565 S
C481 C197 0.375 . S
C491 C190 0.426 . S
C505 C81 1.797 1_655 S
C515 C64 1.796 1_455 S
C529 C135 1.800 . S
C539 C118 1.746 . S
C553 C189 1.786 . S
C563 C172 1.808 . S
C577 C10 1.792 . S
C587 C27 1.748 . S
