# Generated by pormake.
# Topology umf, (4)-cn, num edge types: 1
# Building blocks:
#     Node 0, Type 0, BuildingBlock: NAWXER_clean_sbu_0, # of connection points: 4
#     Node 1, Type 0, BuildingBlock: NAWXER_clean_sbu_0, # of connection points: 4
#     Node 2, Type 0, BuildingBlock: NAWXER_clean_sbu_0, # of connection points: 4
#     Node 3, Type 0, BuildingBlock: NAWXER_clean_sbu_0, # of connection points: 4
#     Node 4, Type 0, BuildingBlock: NAWXER_clean_sbu_0, # of connection points: 4
#     Node 5, Type 0, BuildingBlock: NAWXER_clean_sbu_0, # of connection points: 4
#     Node 6, Type 0, BuildingBlock: NAWXER_clean_sbu_0, # of connection points: 4
#     Node 7, Type 0, BuildingBlock: NAWXER_clean_sbu_0, # of connection points: 4
#     Edge 8, Type (0, 0), BuildingBlock: XIVTED_clean_linker_0, # of connection points: 2
#     Edge 9, Type (0, 0), BuildingBlock: XIVTED_clean_linker_0, # of connection points: 2
#     Edge 10, Type (0, 0), BuildingBlock: XIVTED_clean_linker_0, # of connection points: 2
#     Edge 11, Type (0, 0), BuildingBlock: XIVTED_clean_linker_0, # of connection points: 2
#     Edge 12, Type (0, 0), BuildingBlock: XIVTED_clean_linker_0, # of connection points: 2
#     Edge 13, Type (0, 0), BuildingBlock: XIVTED_clean_linker_0, # of connection points: 2
#     Edge 14, Type (0, 0), BuildingBlock: XIVTED_clean_linker_0, # of connection points: 2
#     Edge 15, Type (0, 0), BuildingBlock: XIVTED_clean_linker_0, # of connection points: 2
#     Edge 16, Type (0, 0), BuildingBlock: XIVTED_clean_linker_0, # of connection points: 2
#     Edge 17, Type (0, 0), BuildingBlock: XIVTED_clean_linker_0, # of connection points: 2
#     Edge 18, Type (0, 0), BuildingBlock: XIVTED_clean_linker_0, # of connection points: 2
#     Edge 19, Type (0, 0), BuildingBlock: XIVTED_clean_linker_0, # of connection points: 2
#     Edge 20, Type (0, 0), BuildingBlock: XIVTED_clean_linker_0, # of connection points: 2
#     Edge 21, Type (0, 0), BuildingBlock: XIVTED_clean_linker_0, # of connection points: 2
#     Edge 22, Type (0, 0), BuildingBlock: XIVTED_clean_linker_0, # of connection points: 2
#     Edge 23, Type (0, 0), BuildingBlock: XIVTED_clean_linker_0, # of connection points: 2
# Relax obj value: 0.064
# Max RMSD: 0.167
# Mean RMSD: 0.166
data_MOF--net-umf--node1-NAWXER_clean_sbu_0--edge1-XIVTED_clean_linker_0
_symmetry_space_group_name_H-M    P1
_symmetry_Int_Tables_number       1
_symmetry_cell_setting            triclinic
loop_
_symmetry_equiv_pos_as_xyz
'x, y, z'
_cell_length_a     29.57581
_cell_length_b     29.527081
_cell_length_c     53.662761
_cell_angle_alpha  89.889136
_cell_angle_beta   89.97571
_cell_angle_gamma 89.968738
loop_
_atom_site_label
_atom_site_type_symbol
_atom_site_fract_x
_atom_site_fract_y
_atom_site_fract_z
_atom_type_partial_charge
C0 C 0.10476 0.23007 0.19394 0.0
C1 C 0.03458 0.24297 0.11202 0.0
O2 O 0.06152 0.23225 0.19525 0.0
Zn3 Zn 0.00549 0.23697 0.16987 0.0
O4 O 0.12402 0.23174 0.1728 0.0
Zn5 Zn 0.06984 0.23757 0.15296 0.0
O6 O 0.04348 0.30332 0.16296 0.0
O7 O 0.97606 0.29212 0.1795 0.0
O8 O 0.07642 0.24224 0.11738 0.0
O9 O 0.0052 0.24115 0.12962 0.0
O10 O 0.97432 0.18103 0.17654 0.0
O11 O 0.0395 0.17159 0.15709 0.0
C12 C 0.00718 0.31913 0.1728 0.0
C13 C 0.00337 0.15498 0.16664 0.0
C14 C 0.74091 0.10431 0.69457 0.0
C15 C 0.72755 0.03705 0.61187 0.0
O16 O 0.73995 0.06086 0.6953 0.0
Zn17 Zn 0.73523 0.00567 0.6691 0.0
O18 O 0.73786 0.12463 0.67374 0.0
Zn19 Zn 0.73325 0.07123 0.65329 0.0
O20 O 0.66839 0.04341 0.66353 0.0
O21 O 0.68081 0.97515 0.67892 0.0
O22 O 0.72838 0.07878 0.61757 0.0
O23 O 0.72977 0.00718 0.6292 0.0
O24 O 0.79169 0.97442 0.67398 0.0
O25 O 0.79978 0.04262 0.65769 0.0
C26 C 0.65332 0.00642 0.673 0.0
C27 C 0.81726 0.00565 0.66579 0.0
C28 C 0.96114 0.65497 0.1727 0.0
C29 C 0.96629 0.81898 0.16551 0.0
O30 O 0.92506 0.67091 0.16266 0.0
Zn31 Zn 0.89925 0.73672 0.15225 0.0
O32 O -0.00769 0.68186 0.17939 0.0
Zn33 Zn 0.96344 0.73711 0.16934 0.0
O34 O 0.90724 0.74276 0.19455 0.0
O35 O 0.84496 0.74337 0.17195 0.0
O36 O -0.005 0.79291 0.17572 0.0
O37 O 0.93013 0.80249 0.15598 0.0
O38 O 0.89297 0.73164 0.11668 0.0
O39 O 0.96406 0.73238 0.12912 0.0
C40 C 0.86403 0.74532 0.19311 0.0
C41 C 0.93486 0.73055 0.11145 0.0
C42 C 0.3179 0.9648 0.67282 0.0
C43 C 0.15399 0.96574 0.66549 0.0
O44 O 0.30287 0.92806 0.66311 0.0
Zn45 Zn 0.23806 0.90054 0.65265 0.0
O46 O 0.29038 -0.0041 0.6789 0.0
Zn47 Zn 0.23601 0.96564 0.66883 0.0
O48 O 0.23118 0.90972 0.6947 0.0
O49 O 0.23342 0.84657 0.67273 0.0
O50 O 0.17954 -0.00325 0.67386 0.0
O51 O 0.17149 0.92898 0.65718 0.0
O52 O 0.24313 0.89388 0.61693 0.0
O53 O 0.24169 0.9652 0.62892 0.0
C54 C 0.23025 0.86629 0.69368 0.0
C55 C 0.24402 0.93574 0.61144 0.0
C56 C 0.00545 0.81815 0.87798 0.0
C57 C 0.01001 0.65403 0.87182 0.0
O58 O 0.04151 0.80167 0.88769 0.0
Zn59 Zn 0.07206 0.73574 0.89194 0.0
O60 O 0.9767 0.792 0.86795 0.0
Zn61 Zn 0.00803 0.73619 0.87474 0.0
O62 O 0.00711 0.73194 0.91499 0.0
O63 O 0.07814 0.73106 0.92753 0.0
O64 O 0.97897 0.681 0.86495 0.0
O65 O 0.04609 0.66989 0.88183 0.0
O66 O 0.12654 0.74176 0.87236 0.0
O67 O 0.06446 0.74118 0.8496 0.0
C68 C 0.03623 0.73018 0.93271 0.0
C69 C 0.10766 0.74349 0.85113 0.0
C70 C 0.15579 0.00503 0.37842 0.0
C71 C 0.31952 0.00732 0.37122 0.0
O72 O 0.17284 0.04204 0.38664 0.0
Zn73 Zn 0.23908 0.07114 0.39118 0.0
O74 O 0.1817 0.97418 0.37017 0.0
Zn75 Zn 0.23774 0.00585 0.37518 0.0
O76 O 0.24316 0.0067 0.41507 0.0
O77 O 0.24388 0.07812 0.42691 0.0
O78 O 0.29231 0.97593 0.36524 0.0
O79 O 0.30417 0.04404 0.38082 0.0
O80 O 0.23399 0.12487 0.3709 0.0
O81 O 0.23253 0.06144 0.34915 0.0
C82 C 0.2451 0.0363 0.43249 0.0
C83 C 0.23117 0.10487 0.35001 0.0
C84 C 0.96746 0.15414 0.87879 0.0
C85 C 0.96336 0.31826 0.87195 0.0
O86 O 0.93125 0.17081 0.88821 0.0
Zn87 Zn 0.90068 0.23675 0.89194 0.0
O88 O -0.00355 0.1801 0.86874 0.0
Zn89 Zn 0.96513 0.23609 0.87511 0.0
O90 O 0.96516 0.24056 0.91534 0.0
O91 O 0.89388 0.24164 0.92749 0.0
O92 O -0.00549 0.29123 0.86534 0.0
O93 O 0.92704 0.30248 0.88178 0.0
O94 O 0.84665 0.23069 0.87198 0.0
O95 O 0.90928 0.23119 0.84965 0.0
C96 C 0.9357 0.24246 0.9329 0.0
C97 C 0.86605 0.22894 0.85089 0.0
C98 C 0.81873 0.97017 0.37858 0.0
C99 C 0.65503 0.96803 0.37128 0.0
O100 O 0.80164 0.93318 0.3869 0.0
Zn101 Zn 0.73533 0.90419 0.39147 0.0
O102 O 0.79286 0.00101 0.37023 0.0
Zn103 Zn 0.7368 0.96936 0.3753 0.0
O104 O 0.73117 0.96864 0.41524 0.0
O105 O 0.73033 0.8972 0.42717 0.0
O106 O 0.68231 -0.00064 0.36522 0.0
O107 O 0.6703 0.93132 0.38099 0.0
O108 O 0.74035 0.85038 0.37143 0.0
O109 O 0.74207 0.91363 0.34941 0.0
C110 C 0.7291 0.939 0.43269 0.0
C111 C 0.74333 0.8702 0.35046 0.0
H112 H 0.07185 0.38506 0.16963 0.0
H113 H 0.8964 0.58914 0.16917 0.0
H114 H 0.92888 0.36585 0.18192 0.0
H115 H 0.0391 0.60808 0.18242 0.0
H116 H 0.90749 0.50716 0.17154 0.0
H117 H 0.06063 0.467 0.17199 0.0
C118 C 0.03812 0.39807 0.17291 0.0
C119 C 0.00121 0.36858 0.1755 0.0
C120 C 0.93629 0.52929 0.17411 0.0
C121 C -0.01188 0.46227 0.17801 0.0
C122 C 0.93003 0.57607 0.17268 0.0
C123 C 0.96692 0.60549 0.17552 0.0
C124 C 0.97985 0.51176 0.17803 0.0
C125 C 0.0097 0.58665 0.18014 0.0
C126 C 0.03178 0.44482 0.17434 0.0
C127 C 0.95829 0.38733 0.17984 0.0
N128 N 0.01508 0.54096 0.18101 0.0
N129 N 0.95285 0.43301 0.18073 0.0
H130 H 0.36338 0.04353 0.68278 0.0
H131 H 0.60781 0.92744 0.6825 0.0
H132 H 0.38449 0.90071 0.67017 0.0
H133 H 0.58674 0.07058 0.67068 0.0
H134 H 0.52585 0.91707 0.68519 0.0
H135 H 0.44533 0.05384 0.68556 0.0
C136 C 0.3852 0.01429 0.68079 0.0
C137 C 0.3671 0.97124 0.67607 0.0
C138 C 0.53925 0.95075 0.68211 0.0
C139 C 0.46072 0.9828 0.67932 0.0
C140 C 0.58599 0.95673 0.68066 0.0
C141 C 0.60411 -0.0001 0.67618 0.0
C142 C 0.51048 -0.01174 0.67935 0.0
C143 C 0.57421 0.03664 0.67394 0.0
C144 C 0.43194 0.02024 0.68229 0.0
C145 C 0.397 0.93456 0.67363 0.0
N146 N 0.52886 0.02998 0.67554 0.0
N147 N 0.44235 0.94118 0.67528 0.0
H148 H 0.89876 0.38434 0.87507 0.0
H149 H 0.07456 0.58797 0.87562 0.0
H150 H 0.04172 0.36485 0.86284 0.0
H151 H 0.93195 0.60739 0.8622 0.0
H152 H 0.06331 0.50602 0.87334 0.0
H153 H 0.91012 0.46627 0.87275 0.0
C154 C 0.93252 0.39728 0.8718 0.0
C155 C 0.96938 0.36772 0.86922 0.0
C156 C 0.03456 0.52825 0.87073 0.0
C157 C 0.98263 0.4614 0.86677 0.0
C158 C 0.04091 0.57501 0.8721 0.0
C159 C 0.00411 0.60456 0.86917 0.0
C160 C -0.00902 0.51087 0.86677 0.0
C161 C 0.96129 0.58586 0.86454 0.0
C162 C 0.93893 0.44404 0.8704 0.0
C163 C 0.01234 0.38639 0.86491 0.0
N164 N 0.95582 0.54019 0.86371 0.0
N165 N 0.01785 0.43207 0.86405 0.0
H166 H 0.36559 0.92887 0.36138 0.0
H167 H 0.60904 0.04656 0.36136 0.0
H168 H 0.38555 0.07193 0.37368 0.0
H169 H 0.58898 0.90345 0.37376 0.0
H170 H 0.52702 0.05637 0.35851 0.0
H171 H 0.4476 0.91912 0.35856 0.0
C172 C 0.38718 0.95827 0.3633 0.0
C173 C 0.36874 0.00123 0.36795 0.0
C174 C 0.54066 0.02282 0.36176 0.0
C175 C 0.46241 -0.0097 0.36464 0.0
C176 C 0.58743 0.01716 0.36329 0.0
C177 C 0.60583 0.97417 0.36798 0.0
C178 C 0.51217 0.98516 0.36465 0.0
C179 C 0.57621 0.93726 0.37033 0.0
C180 C 0.43394 0.95264 0.36177 0.0
C181 C 0.39834 0.03814 0.37028 0.0
N182 N 0.53083 0.94361 0.36865 0.0
N183 N 0.44373 0.03183 0.36862 0.0
H184 H 0.02238 0.24509 0.95073 0.0
H185 H 0.94783 0.24511 0.09423 0.0
H186 H 0.88324 0.24492 0.97512 0.0
H187 H 0.08693 0.24553 0.06978 0.0
H188 H 0.92356 0.24679 0.05076 0.0
H189 H 0.04658 0.24701 0.99419 0.0
C190 C -0.00314 0.24555 0.96521 0.0
C191 C 0.95065 0.24475 0.95922 0.0
C192 C 0.9594 0.2466 0.05489 0.0
C193 C 0.97825 0.24689 1.00914 0.0
C194 C 0.97332 0.24565 0.07973 0.0
C195 C 0.01955 0.24508 0.08571 0.0
C196 C -0.00813 0.24695 0.03579 0.0
C197 C 0.05096 0.24588 0.06608 0.0
C198 C 0.01075 0.24664 0.99005 0.0
C199 C 0.91921 0.24546 0.97883 0.0
N200 N 0.03654 0.24668 0.04203 0.0
N201 N 0.93359 0.24639 1.00289 0.0
H202 H 0.72405 0.95052 0.5939 0.0
H203 H 0.7255 0.02573 0.4505 0.0
H204 H 0.72517 0.09005 0.56969 0.0
H205 H 0.72599 0.88631 0.47493 0.0
H206 H 0.72274 0.0499 0.49393 0.0
H207 H 0.72208 0.92655 0.55046 0.0
C208 C 0.72378 0.97619 0.57945 0.0
C209 C 0.72494 0.02244 0.5855 0.0
C210 C 0.72335 0.01402 0.48982 0.0
C211 C 0.72274 -0.00494 0.53556 0.0
C212 C 0.72493 0.00013 0.46499 0.0
C213 C 0.72613 0.95385 0.45901 0.0
C214 C 0.72301 0.98145 0.50891 0.0
C215 C 0.72521 0.92233 0.47862 0.0
C216 C 0.72266 0.96242 0.55461 0.0
C217 C 0.7244 0.05406 0.56593 0.0
N218 N 0.72381 0.93672 0.50267 0.0
N219 N 0.72346 0.03977 0.54184 0.0
H220 H 0.02179 0.72753 0.09395 0.0
H221 H 0.94923 0.72785 0.95017 0.0
H222 H 0.883 0.72814 0.06904 0.0
H223 H 0.08798 0.72753 0.97515 0.0
H224 H 0.92436 0.72599 0.99355 0.0
H225 H 0.04659 0.72553 0.05058 0.0
C226 C -0.00353 0.72714 0.07937 0.0
C227 C 0.95018 0.72811 0.08519 0.0
C228 C 0.96025 0.72623 0.98956 0.0
C229 C 0.97847 0.72589 0.03537 0.0
C230 C 0.97452 0.72729 0.96476 0.0
C231 C 0.02082 0.72795 0.95896 0.0
C232 C -0.00754 0.72587 1.00878 0.0
C233 C 0.05196 0.72713 0.97871 0.0
C234 C 0.0107 0.726 0.05458 0.0
C235 C 0.91901 0.72748 0.06546 0.0
N236 N 0.03721 0.72622 1.00271 0.0
N237 N 0.93373 0.72651 0.04146 0.0
H238 H 0.24919 0.9495 0.45024 0.0
H239 H 0.24711 0.02268 0.59378 0.0
H240 H 0.24708 0.08866 0.4748 0.0
H241 H 0.24747 0.88357 0.56912 0.0
H242 H 0.24977 0.04743 0.55041 0.0
H243 H 0.25128 0.92488 0.49362 0.0
C244 C 0.24927 0.97496 0.46475 0.0
C245 C 0.2478 0.02129 0.45881 0.0
C246 C 0.24936 0.01149 0.55446 0.0
C247 C 0.25013 -0.00684 0.50869 0.0
C248 C 0.24784 -0.00273 0.57926 0.0
C249 C 0.24691 0.9509 0.58515 0.0
C250 C 0.24991 0.97918 0.53531 0.0
C251 C 0.24804 0.91964 0.56548 0.0
C252 C 0.25046 0.96081 0.48956 0.0
C253 C 0.2481 0.05261 0.47847 0.0
N254 N 0.24937 0.93435 0.54145 0.0
N255 N 0.24911 0.03796 0.50251 0.0
H256 H 0.08143 0.25153 0.24165 0.0
H257 H 0.2504 0.07952 0.30231 0.0
H258 H 0.18735 0.18891 0.19845 0.0
H259 H 0.19182 0.18836 0.34507 0.0
H260 H 0.2271 0.11789 0.26394 0.0
H261 H 0.1202 0.2283 0.27987 0.0
C262 C 0.11318 0.23339 0.24023 0.0
C263 C 0.13112 0.22188 0.21688 0.0
C264 C 0.22 0.13373 0.28171 0.0
C265 C 0.17512 0.19453 0.26046 0.0
C266 C 0.23312 0.1118 0.30359 0.0
C267 C 0.22277 0.13071 0.32687 0.0
C268 C 0.19538 0.17429 0.28313 0.0
C269 C 0.20049 0.17267 0.32749 0.0
C270 C 0.13534 0.22029 0.26203 0.0
C271 C 0.17242 0.1985 0.21609 0.0
N272 N 0.18678 0.19269 0.30592 0.0
N273 N 0.19265 0.18484 0.23759 0.0
H274 H 0.88936 0.25084 0.8032 0.0
H275 H 0.72223 0.07799 0.74224 0.0
H276 H 0.78388 0.18708 0.8463 0.0
H277 H 0.77937 0.1881 0.69969 0.0
H278 H 0.74522 0.11603 0.78068 0.0
H279 H 0.85093 0.22755 0.76494 0.0
C280 C 0.85778 0.23243 0.80458 0.0
C281 C 0.83986 0.22063 0.82792 0.0
C282 C 0.75208 0.13221 0.76294 0.0
C283 C 0.79626 0.19322 0.78429 0.0
C284 C 0.73913 0.11046 0.74101 0.0
C285 C 0.74915 0.12984 0.71777 0.0
C286 C 0.77621 0.17305 0.76159 0.0
C287 C 0.77095 0.17204 0.71724 0.0
C288 C 0.83581 0.2193 0.78276 0.0
C289 C 0.79878 0.19691 0.82867 0.0
N290 N 0.78451 0.19188 0.73884 0.0
N291 N 0.77875 0.18322 0.80715 0.0
H292 H 0.78087 0.78581 0.34611 0.0
H293 H 0.78209 0.78791 0.19708 0.0
H294 H 0.72545 0.89549 0.30249 0.0
H295 H 0.88638 0.72405 0.24104 0.0
H296 H 0.74477 0.81224 0.23569 0.0
H297 H 0.80339 0.74779 0.30742 0.0
C298 C 0.77271 0.80148 0.3284 0.0
C299 C 0.75165 0.84404 0.32746 0.0
C300 C 0.77548 0.79233 0.23679 0.0
C301 C 0.77689 0.80066 0.28335 0.0
C302 C 0.79662 0.77824 0.21484 0.0
C303 C 0.83756 0.75429 0.21592 0.0
C304 C 0.79503 0.78162 0.25991 0.0
C305 C 0.85508 0.74286 0.23941 0.0
C306 C 0.78575 0.77989 0.30639 0.0
C307 C 0.74205 0.86292 0.30402 0.0
N308 N 0.83378 0.75673 0.2605 0.0
N309 N 0.75484 0.84114 0.28287 0.0
H310 H 0.1922 0.78217 0.69814 0.0
H311 H 0.19021 0.78482 0.84717 0.0
H312 H 0.24863 0.8912 0.74157 0.0
H313 H 0.0854 0.72218 0.80323 0.0
H314 H 0.22818 0.80826 0.80855 0.0
H315 H 0.16924 0.74435 0.73691 0.0
C316 C 0.20052 0.7977 0.71583 0.0
C317 C 0.22195 0.84005 0.7167 0.0
C318 C 0.19721 0.78881 0.80745 0.0
C319 C 0.19622 0.79693 0.76088 0.0
C320 C 0.17569 0.77523 0.82942 0.0
C321 C 0.13442 0.75191 0.82834 0.0
C322 C 0.17769 0.77822 0.78434 0.0
C323 C 0.11694 0.74053 0.80486 0.0
C324 C 0.18723 0.77625 0.73787 0.0
C325 C 0.23174 0.85879 0.7401 0.0
N326 N 0.13861 0.75391 0.78376 0.0
N327 N 0.21869 0.83716 0.76129 0.0
H328 H 0.96671 0.10231 0.20328 0.0
H329 H 0.94769 0.8771 0.12752 0.0
H330 H 0.02484 0.09593 0.12964 0.0
H331 H 0.00033 0.87244 0.20241 0.0
H332 H 0.9571 0.95987 0.12751 0.0
H333 H 0.95929 0.01923 0.20314 0.0
C334 C 0.97744 0.0834 0.18703 0.0
C335 C -0.0036 0.10566 0.16644 0.0
C336 C 0.96662 0.94053 0.14386 0.0
C337 C -0.01269 0.01173 0.16604 0.0
C338 C 0.96124 0.8936 0.14392 0.0
C339 C 0.97356 0.86824 0.16495 0.0
C340 C 0.98288 0.96211 0.1653 0.0
C341 C -0.0091 0.89097 0.18578 0.0
C342 C 0.97352 0.03627 0.18706 0.0
C343 C 0.01021 0.0798 0.14589 0.0
N344 N -0.00551 0.93689 0.18559 0.0
N345 N 0.0049 0.03409 0.14607 0.0
H346 H 0.08989 0.90031 0.65887 0.0
H347 H 0.88135 0.07125 0.65956 0.0
H348 H 0.10495 0.04366 0.67222 0.0
H349 H 0.8663 0.92754 0.672 0.0
H350 H 0.96343 0.06178 0.6596 0.0
H351 H 0.00781 0.90976 0.65907 0.0
C352 C 0.07595 0.93382 0.66179 0.0
C353 C 0.10432 0.97129 0.66554 0.0
C354 C 0.94215 0.03236 0.66237 0.0
C355 C 0.01043 0.98227 0.66567 0.0
C356 C 0.8953 0.03766 0.66225 0.0
C357 C 0.86692 8e-05 0.66579 0.0
C358 C 0.96082 -0.01091 0.66573 0.0
C359 C 0.88691 0.95743 0.66929 0.0
C360 C 0.0291 0.9391 0.66201 0.0
C361 C 0.08434 0.01384 0.66934 0.0
N362 N 0.93267 0.95305 0.66904 0.0
N363 N 0.03857 0.01822 0.66918 0.0
H364 H 0.94786 0.09601 0.91663 0.0
H365 H 0.96923 0.87064 0.84114 0.0
H366 H 0.00223 0.10061 0.84208 0.0
H367 H 0.02595 0.87736 0.91507 0.0
H368 H 0.9614 0.95368 0.84119 0.0
H369 H 0.95737 0.01324 0.91672 0.0
C370 C 0.96178 0.0795 0.90032 0.0
C371 C 0.97458 0.10485 0.87936 0.0
C372 C 0.9754 0.93673 0.85736 0.0
C373 C 0.98405 0.01097 0.87911 0.0
C374 C 0.97956 0.88961 0.85743 0.0
C375 C -0.00174 0.86746 0.87814 0.0
C376 C -0.01132 0.96136 0.87844 0.0
C377 C 0.01154 0.8934 0.89874 0.0
C378 C 0.96723 0.03257 0.90042 0.0
C379 C -0.00759 0.08209 0.85866 0.0
N380 N 0.00601 0.93909 0.89851 0.0
N381 N -0.00393 0.03617 0.85889 0.0
H382 H 0.8668 0.04861 0.37185 0.0
H383 H 0.10773 0.92656 0.37192 0.0
H384 H 0.88352 0.90524 0.38488 0.0
H385 H 0.09099 0.06996 0.38456 0.0
H386 H 0.02536 0.91802 0.37184 0.0
H387 H 0.94916 0.05714 0.37168 0.0
C388 C 0.88777 0.01895 0.37464 0.0
C389 C 0.8683 0.97618 0.37844 0.0
C390 C 0.03981 0.95131 0.37467 0.0
C391 C 0.96232 0.98563 0.37808 0.0
C392 C 0.08675 0.95622 0.37464 0.0
C393 C 0.10622 -0.001 0.37831 0.0
C394 C 0.0122 -0.01046 0.37805 0.0
C395 C 0.07742 0.0363 0.38179 0.0
C396 C 0.93472 0.02386 0.37462 0.0
C397 C 0.89709 0.93889 0.38201 0.0
N398 N 0.03186 0.03073 0.38146 0.0
N399 N 0.94266 0.94445 0.38163 0.0
loop_
_geom_bond_atom_site_label_1
_geom_bond_atom_site_label_2
_geom_bond_distance
_geom_bond_site_symmetry_2
_ccdc_geom_bond_type
C0 O2 1.247 . S
C0 O4 1.258 . S
C1 O8 1.247 . S
C1 O9 1.258 . S
O2 C0 1.247 . S
O2 Zn3 2.028 . S
Zn3 O2 2.028 . S
Zn3 O7 2.035 . S
Zn3 O9 2.035 . S
Zn3 O10 2.028 . S
O4 C0 1.258 . S
O4 Zn5 2.035 . S
Zn5 O4 2.035 . S
Zn5 O6 2.028 . S
Zn5 O8 2.028 . S
Zn5 O11 2.035 . S
O6 Zn5 2.028 . S
O6 C12 1.247 . S
O7 Zn3 2.035 . S
O7 C12 1.258 . S
O8 C1 1.247 . S
O8 Zn5 2.028 . S
O9 C1 1.258 . S
O9 Zn3 2.035 . S
O10 Zn3 2.028 . S
O10 C13 1.247 . S
O11 Zn5 2.035 . S
O11 C13 1.258 . S
C12 O6 1.247 . S
C12 O7 1.258 . S
C13 O10 1.247 . S
C13 O11 1.258 . S
C14 O16 1.247 . S
C14 O18 1.258 . S
C15 O22 1.247 . S
C15 O23 1.258 . S
O16 C14 1.247 . S
O16 Zn17 2.028 . S
Zn17 O16 2.028 . S
Zn17 O21 2.035 . S
Zn17 O23 2.035 . S
Zn17 O24 2.028 . S
O18 C14 1.258 . S
O18 Zn19 2.035 . S
Zn19 O18 2.035 . S
Zn19 O20 2.028 . S
Zn19 O22 2.028 . S
Zn19 O25 2.035 . S
O20 Zn19 2.028 . S
O20 C26 1.247 . S
O21 Zn17 2.035 . S
O21 C26 1.258 . S
O22 C15 1.247 . S
O22 Zn19 2.028 . S
O23 C15 1.258 . S
O23 Zn17 2.035 . S
O24 Zn17 2.028 . S
O24 C27 1.247 . S
O25 Zn19 2.035 . S
O25 C27 1.258 . S
C26 O20 1.247 . S
C26 O21 1.258 . S
C27 O24 1.247 . S
C27 O25 1.258 . S
C28 O30 1.247 . S
C28 O32 1.258 . S
C29 O36 1.247 . S
C29 O37 1.258 . S
O30 C28 1.247 . S
O30 Zn31 2.028 . S
Zn31 O30 2.028 . S
Zn31 O35 2.035 . S
Zn31 O37 2.035 . S
Zn31 O38 2.028 . S
O32 C28 1.258 . S
O32 Zn33 2.035 . S
Zn33 O32 2.035 . S
Zn33 O34 2.028 . S
Zn33 O36 2.028 . S
Zn33 O39 2.035 . S
O34 Zn33 2.028 . S
O34 C40 1.247 . S
O35 Zn31 2.035 . S
O35 C40 1.258 . S
O36 C29 1.247 . S
O36 Zn33 2.028 . S
O37 C29 1.258 . S
O37 Zn31 2.035 . S
O38 Zn31 2.028 . S
O38 C41 1.247 . S
O39 Zn33 2.035 . S
O39 C41 1.258 . S
C40 O34 1.247 . S
C40 O35 1.258 . S
C41 O38 1.247 . S
C41 O39 1.258 . S
C42 O44 1.247 . S
C42 O46 1.258 . S
C43 O50 1.247 . S
C43 O51 1.258 . S
O44 C42 1.247 . S
O44 Zn45 2.028 . S
Zn45 O44 2.028 . S
Zn45 O49 2.035 . S
Zn45 O51 2.035 . S
Zn45 O52 2.028 . S
O46 C42 1.258 . S
O46 Zn47 2.035 . S
Zn47 O46 2.035 . S
Zn47 O48 2.028 . S
Zn47 O50 2.028 . S
Zn47 O53 2.035 . S
O48 Zn47 2.028 . S
O48 C54 1.247 . S
O49 Zn45 2.035 . S
O49 C54 1.258 . S
O50 C43 1.247 . S
O50 Zn47 2.028 . S
O51 C43 1.258 . S
O51 Zn45 2.035 . S
O52 Zn45 2.028 . S
O52 C55 1.247 . S
O53 Zn47 2.035 . S
O53 C55 1.258 . S
C54 O48 1.247 . S
C54 O49 1.258 . S
C55 O52 1.247 . S
C55 O53 1.258 . S
C56 O58 1.247 . S
C56 O60 1.258 . S
C57 O64 1.247 . S
C57 O65 1.258 . S
O58 C56 1.247 . S
O58 Zn59 2.028 . S
Zn59 O58 2.028 . S
Zn59 O63 2.035 . S
Zn59 O65 2.035 . S
Zn59 O66 2.028 . S
O60 C56 1.258 . S
O60 Zn61 2.035 . S
Zn61 O60 2.035 . S
Zn61 O62 2.028 . S
Zn61 O64 2.028 . S
Zn61 O67 2.035 . S
O62 Zn61 2.028 . S
O62 C68 1.247 . S
O63 Zn59 2.035 . S
O63 C68 1.258 . S
O64 C57 1.247 . S
O64 Zn61 2.028 . S
O65 C57 1.258 . S
O65 Zn59 2.035 . S
O66 Zn59 2.028 . S
O66 C69 1.247 . S
O67 Zn61 2.035 . S
O67 C69 1.258 . S
C68 O62 1.247 . S
C68 O63 1.258 . S
C69 O66 1.247 . S
C69 O67 1.258 . S
C70 O72 1.247 . S
C70 O74 1.258 . S
C71 O78 1.247 . S
C71 O79 1.258 . S
O72 C70 1.247 . S
O72 Zn73 2.028 . S
Zn73 O72 2.028 . S
Zn73 O77 2.035 . S
Zn73 O79 2.035 . S
Zn73 O80 2.028 . S
O74 C70 1.258 . S
O74 Zn75 2.035 . S
Zn75 O74 2.035 . S
Zn75 O76 2.028 . S
Zn75 O78 2.028 . S
Zn75 O81 2.035 . S
O76 Zn75 2.028 . S
O76 C82 1.247 . S
O77 Zn73 2.035 . S
O77 C82 1.258 . S
O78 C71 1.247 . S
O78 Zn75 2.028 . S
O79 C71 1.258 . S
O79 Zn73 2.035 . S
O80 Zn73 2.028 . S
O80 C83 1.247 . S
O81 Zn75 2.035 . S
O81 C83 1.258 . S
C82 O76 1.247 . S
C82 O77 1.258 . S
C83 O80 1.247 . S
C83 O81 1.258 . S
C84 O86 1.247 . S
C84 O88 1.258 . S
C85 O92 1.247 . S
C85 O93 1.258 . S
O86 C84 1.247 . S
O86 Zn87 2.028 . S
Zn87 O86 2.028 . S
Zn87 O91 2.035 . S
Zn87 O93 2.035 . S
Zn87 O94 2.028 . S
O88 C84 1.258 . S
O88 Zn89 2.035 . S
Zn89 O88 2.035 . S
Zn89 O90 2.028 . S
Zn89 O92 2.028 . S
Zn89 O95 2.035 . S
O90 Zn89 2.028 . S
O90 C96 1.247 . S
O91 Zn87 2.035 . S
O91 C96 1.258 . S
O92 C85 1.247 . S
O92 Zn89 2.028 . S
O93 C85 1.258 . S
O93 Zn87 2.035 . S
O94 Zn87 2.028 . S
O94 C97 1.247 . S
O95 Zn89 2.035 . S
O95 C97 1.258 . S
C96 O90 1.247 . S
C96 O91 1.258 . S
C97 O94 1.247 . S
C97 O95 1.258 . S
C98 O100 1.247 . S
C98 O102 1.258 . S
C99 O106 1.247 . S
C99 O107 1.258 . S
O100 C98 1.247 . S
O100 Zn101 2.028 . S
Zn101 O100 2.028 . S
Zn101 O105 2.035 . S
Zn101 O107 2.035 . S
Zn101 O108 2.028 . S
O102 C98 1.258 . S
O102 Zn103 2.035 . S
Zn103 O102 2.035 . S
Zn103 O104 2.028 . S
Zn103 O106 2.028 . S
Zn103 O109 2.035 . S
O104 Zn103 2.028 . S
O104 C110 1.247 . S
O105 Zn101 2.035 . S
O105 C110 1.258 . S
O106 C99 1.247 . S
O106 Zn103 2.028 . S
O107 C99 1.258 . S
O107 Zn101 2.035 . S
O108 Zn101 2.028 . S
O108 C111 1.247 . S
O109 Zn103 2.035 . S
O109 C111 1.258 . S
C110 O104 1.247 . S
C110 O105 1.258 . S
C111 O108 1.247 . S
C111 O109 1.258 . S
H112 C118 0.930 . S
H113 C122 0.930 . S
H114 C127 0.929 . S
H115 C125 0.929 . S
H116 C120 0.929 . S
H117 C126 0.929 . S
C118 H112 0.930 . S
C118 C119 1.367 . S
C118 C126 1.378 . S
C119 C118 1.367 . S
C119 C127 1.433 . S
C120 H116 0.929 . S
C120 C122 1.378 . S
C120 C124 1.350 . S
C121 C124 1.463 1_455 S
C121 C126 1.350 . S
C121 N129 1.427 . S
C122 H113 0.930 . S
C122 C120 1.378 . S
C122 C123 1.367 . S
C123 C122 1.367 . S
C123 C125 1.433 . S
C124 C120 1.350 . S
C124 C121 1.463 1_655 S
C124 N128 1.427 . S
C125 H115 0.929 . S
C125 C123 1.433 . S
C125 N128 1.384 . S
C126 H117 0.929 . S
C126 C118 1.378 . S
C126 C121 1.350 . S
C127 H114 0.929 . S
C127 C119 1.433 . S
C127 N129 1.384 . S
N128 C124 1.427 . S
N128 C125 1.384 . S
N129 C121 1.427 . S
N129 C127 1.384 . S
H130 C136 0.930 1_545 S
H131 C140 0.930 1_565 S
H132 C145 0.929 . S
H133 C143 0.929 . S
H134 C138 0.929 . S
H135 C144 0.929 . S
C136 H130 0.930 1_565 S
C136 C137 1.367 . S
C136 C144 1.378 1_565 S
C137 C136 1.367 . S
C137 C145 1.433 . S
C138 H134 0.929 . S
C138 C140 1.378 1_565 S
C138 C142 1.350 1_565 S
C139 C142 1.463 1_565 S
C139 C144 1.350 1_565 S
C139 N147 1.427 . S
C140 H131 0.930 1_545 S
C140 C138 1.378 1_545 S
C140 C141 1.367 . S
C141 C140 1.367 . S
C141 C143 1.433 . S
C142 C138 1.350 1_545 S
C142 C139 1.463 1_545 S
C142 N146 1.427 . S
C143 H133 0.929 . S
C143 C141 1.433 . S
C143 N146 1.384 . S
C144 H135 0.929 . S
C144 C136 1.378 1_545 S
C144 C139 1.350 1_545 S
C145 H132 0.929 . S
C145 C137 1.433 . S
C145 N147 1.384 . S
N146 C142 1.427 . S
N146 C143 1.384 . S
N147 C139 1.427 . S
N147 C145 1.384 . S
H148 C154 0.930 . S
H149 C158 0.930 . S
H150 C163 0.929 . S
H151 C161 0.929 . S
H152 C156 0.929 . S
H153 C162 0.929 . S
C154 H148 0.930 . S
C154 C155 1.367 . S
C154 C162 1.378 . S
C155 C154 1.367 . S
C155 C163 1.433 . S
C156 H152 0.929 . S
C156 C158 1.378 . S
C156 C160 1.350 . S
C157 C160 1.463 1_655 S
C157 C162 1.350 . S
C157 N165 1.427 . S
C158 H149 0.930 . S
C158 C156 1.378 . S
C158 C159 1.367 . S
C159 C158 1.367 . S
C159 C161 1.433 . S
C160 C156 1.350 . S
C160 C157 1.463 1_455 S
C160 N164 1.427 . S
C161 H151 0.929 . S
C161 C159 1.433 . S
C161 N164 1.384 . S
C162 H153 0.929 . S
C162 C154 1.378 . S
C162 C157 1.350 . S
C163 H150 0.929 . S
C163 C155 1.433 . S
C163 N165 1.384 . S
N164 C160 1.427 . S
N164 C161 1.384 . S
N165 C157 1.427 . S
N165 C163 1.384 . S
H166 C172 0.930 1_565 S
H167 C176 0.930 1_545 S
H168 C181 0.929 . S
H169 C179 0.929 . S
H170 C174 0.929 . S
H171 C180 0.929 . S
C172 H166 0.930 1_545 S
C172 C173 1.367 . S
C172 C180 1.378 1_545 S
C173 C172 1.367 . S
C173 C181 1.433 . S
C174 H170 0.929 . S
C174 C176 1.378 1_545 S
C174 C178 1.350 1_545 S
C175 C178 1.463 1_545 S
C175 C180 1.350 1_545 S
C175 N183 1.427 . S
C176 H167 0.930 1_565 S
C176 C174 1.378 1_565 S
C176 C177 1.367 . S
C177 C176 1.367 . S
C177 C179 1.433 . S
C178 C174 1.350 1_565 S
C178 C175 1.463 1_565 S
C178 N182 1.427 . S
C179 H169 0.929 . S
C179 C177 1.433 . S
C179 N182 1.384 . S
C180 H171 0.929 . S
C180 C172 1.378 1_565 S
C180 C175 1.350 1_565 S
C181 H168 0.929 . S
C181 C173 1.433 . S
C181 N183 1.384 . S
N182 C178 1.427 . S
N182 C179 1.384 . S
N183 C175 1.427 . S
N183 C181 1.384 . S
H184 C190 0.930 . S
H185 C194 0.930 . S
H186 C199 0.929 . S
H187 C197 0.929 . S
H188 C192 0.929 . S
H189 C198 0.929 . S
C190 H184 0.930 . S
C190 C191 1.367 1_455 S
C190 C198 1.378 . S
C191 C190 1.367 1_655 S
C191 C199 1.433 . S
C192 H188 0.929 . S
C192 C194 1.378 . S
C192 C196 1.350 1_655 S
C193 C196 1.463 1_656 S
C193 C198 1.350 1_655 S
C193 N201 1.427 . S
C194 H185 0.930 . S
C194 C192 1.378 . S
C194 C195 1.367 1_655 S
C195 C194 1.367 1_455 S
C195 C197 1.433 . S
C196 C192 1.350 1_455 S
C196 C193 1.463 1_454 S
C196 N200 1.427 . S
C197 H187 0.929 . S
C197 C195 1.433 . S
C197 N200 1.384 . S
C198 H189 0.929 . S
C198 C190 1.378 . S
C198 C193 1.350 1_455 S
C199 H186 0.929 . S
C199 C191 1.433 . S
C199 N201 1.384 . S
N200 C196 1.427 . S
N200 C197 1.384 . S
N201 C193 1.427 . S
N201 C199 1.384 . S
H202 C208 0.930 . S
H203 C212 0.930 . S
H204 C217 0.929 . S
H205 C215 0.929 . S
H206 C210 0.929 . S
H207 C216 0.929 . S
C208 H202 0.930 . S
C208 C209 1.367 1_565 S
C208 C216 1.378 . S
C209 C208 1.367 1_545 S
C209 C217 1.433 . S
C210 H206 0.929 . S
C210 C212 1.378 . S
C210 C214 1.350 1_545 S
C211 C214 1.463 1_545 S
C211 C216 1.350 1_545 S
C211 N219 1.427 . S
C212 H203 0.930 . S
C212 C210 1.378 . S
C212 C213 1.367 1_545 S
C213 C212 1.367 1_565 S
C213 C215 1.433 . S
C214 C210 1.350 1_565 S
C214 C211 1.463 1_565 S
C214 N218 1.427 . S
C215 H205 0.929 . S
C215 C213 1.433 . S
C215 N218 1.384 . S
C216 H207 0.929 . S
C216 C208 1.378 . S
C216 C211 1.350 1_565 S
C217 H204 0.929 . S
C217 C209 1.433 . S
C217 N219 1.384 . S
N218 C214 1.427 . S
N218 C215 1.384 . S
N219 C211 1.427 . S
N219 C217 1.384 . S
H220 C226 0.930 . S
H221 C230 0.930 . S
H222 C235 0.929 . S
H223 C233 0.929 . S
H224 C228 0.929 . S
H225 C234 0.929 . S
C226 H220 0.930 . S
C226 C227 1.367 1_455 S
C226 C234 1.378 . S
C227 C226 1.367 1_655 S
C227 C235 1.433 . S
C228 H224 0.929 . S
C228 C230 1.378 . S
C228 C232 1.350 1_655 S
C229 C232 1.463 1_654 S
C229 C234 1.350 1_655 S
C229 N237 1.427 . S
C230 H221 0.930 . S
C230 C228 1.378 . S
C230 C231 1.367 1_655 S
C231 C230 1.367 1_455 S
C231 C233 1.433 . S
C232 C228 1.350 1_455 S
C232 C229 1.463 1_456 S
C232 N236 1.427 . S
C233 H223 0.929 . S
C233 C231 1.433 . S
C233 N236 1.384 . S
C234 H225 0.929 . S
C234 C226 1.378 . S
C234 C229 1.350 1_455 S
C235 H222 0.929 . S
C235 C227 1.433 . S
C235 N237 1.384 . S
N236 C232 1.427 . S
N236 C233 1.384 . S
N237 C229 1.427 . S
N237 C235 1.384 . S
H238 C244 0.930 . S
H239 C248 0.930 . S
H240 C253 0.929 . S
H241 C251 0.929 . S
H242 C246 0.929 . S
H243 C252 0.929 . S
C244 H238 0.930 . S
C244 C245 1.367 . S
C244 C252 1.378 1_545 S
C245 C244 1.367 . S
C245 C253 1.433 . S
C246 H242 0.929 . S
C246 C248 1.378 1_545 S
C246 C250 1.350 1_545 S
C247 C250 1.463 1_545 S
C247 C252 1.350 1_545 S
C247 N255 1.427 . S
C248 H239 0.930 . S
C248 C246 1.378 1_565 S
C248 C249 1.367 . S
C249 C248 1.367 . S
C249 C251 1.433 . S
C250 C246 1.350 1_565 S
C250 C247 1.463 1_565 S
C250 N254 1.427 . S
C251 H241 0.929 . S
C251 C249 1.433 . S
C251 N254 1.384 . S
C252 H243 0.929 . S
C252 C244 1.378 1_565 S
C252 C247 1.350 1_565 S
C253 H240 0.929 . S
C253 C245 1.433 . S
C253 N255 1.384 . S
N254 C250 1.427 . S
N254 C251 1.384 . S
N255 C247 1.427 . S
N255 C253 1.384 . S
H256 C262 0.930 . S
H257 C266 0.930 . S
H258 C271 0.929 . S
H259 C269 0.929 . S
H260 C264 0.929 . S
H261 C270 0.929 . S
C262 H256 0.930 . S
C262 C263 1.367 . S
C262 C270 1.378 . S
C263 C262 1.367 . S
C263 C271 1.433 . S
C264 H260 0.929 . S
C264 C266 1.378 . S
C264 C268 1.350 . S
C265 C268 1.463 . S
C265 C270 1.350 . S
C265 N273 1.427 . S
C266 H257 0.930 . S
C266 C264 1.378 . S
C266 C267 1.367 . S
C267 C266 1.367 . S
C267 C269 1.433 . S
C268 C264 1.350 . S
C268 C265 1.463 . S
C268 N272 1.427 . S
C269 H259 0.929 . S
C269 C267 1.433 . S
C269 N272 1.384 . S
C270 H261 0.929 . S
C270 C262 1.378 . S
C270 C265 1.350 . S
C271 H258 0.929 . S
C271 C263 1.433 . S
C271 N273 1.384 . S
N272 C268 1.427 . S
N272 C269 1.384 . S
N273 C265 1.427 . S
N273 C271 1.384 . S
H274 C280 0.930 . S
H275 C284 0.930 . S
H276 C289 0.929 . S
H277 C287 0.929 . S
H278 C282 0.929 . S
H279 C288 0.929 . S
C280 H274 0.930 . S
C280 C281 1.367 . S
C280 C288 1.378 . S
C281 C280 1.367 . S
C281 C289 1.433 . S
C282 H278 0.929 . S
C282 C284 1.378 . S
C282 C286 1.350 . S
C283 C286 1.463 . S
C283 C288 1.350 . S
C283 N291 1.427 . S
C284 H275 0.930 . S
C284 C282 1.378 . S
C284 C285 1.367 . S
C285 C284 1.367 . S
C285 C287 1.433 . S
C286 C282 1.350 . S
C286 C283 1.463 . S
C286 N290 1.427 . S
C287 H277 0.929 . S
C287 C285 1.433 . S
C287 N290 1.384 . S
C288 H279 0.929 . S
C288 C280 1.378 . S
C288 C283 1.350 . S
C289 H276 0.929 . S
C289 C281 1.433 . S
C289 N291 1.384 . S
N290 C286 1.427 . S
N290 C287 1.384 . S
N291 C283 1.427 . S
N291 C289 1.384 . S
H292 C298 0.930 . S
H293 C302 0.930 . S
H294 C307 0.929 . S
H295 C305 0.929 . S
H296 C300 0.929 . S
H297 C306 0.929 . S
C298 H292 0.930 . S
C298 C299 1.367 . S
C298 C306 1.378 . S
C299 C298 1.367 . S
C299 C307 1.433 . S
C300 H296 0.929 . S
C300 C302 1.378 . S
C300 C304 1.350 . S
C301 C304 1.463 . S
C301 C306 1.350 . S
C301 N309 1.427 . S
C302 H293 0.930 . S
C302 C300 1.378 . S
C302 C303 1.367 . S
C303 C302 1.367 . S
C303 C305 1.433 . S
C304 C300 1.350 . S
C304 C301 1.463 . S
C304 N308 1.427 . S
C305 H295 0.929 . S
C305 C303 1.433 . S
C305 N308 1.384 . S
C306 H297 0.929 . S
C306 C298 1.378 . S
C306 C301 1.350 . S
C307 H294 0.929 . S
C307 C299 1.433 . S
C307 N309 1.384 . S
N308 C304 1.427 . S
N308 C305 1.384 . S
N309 C301 1.427 . S
N309 C307 1.384 . S
H310 C316 0.930 . S
H311 C320 0.930 . S
H312 C325 0.929 . S
H313 C323 0.929 . S
H314 C318 0.929 . S
H315 C324 0.929 . S
C316 H310 0.930 . S
C316 C317 1.367 . S
C316 C324 1.378 . S
C317 C316 1.367 . S
C317 C325 1.433 . S
C318 H314 0.929 . S
C318 C320 1.378 . S
C318 C322 1.350 . S
C319 C322 1.463 . S
C319 C324 1.350 . S
C319 N327 1.427 . S
C320 H311 0.930 . S
C320 C318 1.378 . S
C320 C321 1.367 . S
C321 C320 1.367 . S
C321 C323 1.433 . S
C322 C318 1.350 . S
C322 C319 1.463 . S
C322 N326 1.427 . S
C323 H313 0.929 . S
C323 C321 1.433 . S
C323 N326 1.384 . S
C324 H315 0.929 . S
C324 C316 1.378 . S
C324 C319 1.350 . S
C325 H312 0.929 . S
C325 C317 1.433 . S
C325 N327 1.384 . S
N326 C322 1.427 . S
N326 C323 1.384 . S
N327 C319 1.427 . S
N327 C325 1.384 . S
H328 C334 0.930 . S
H329 C338 0.930 . S
H330 C343 0.929 . S
H331 C341 0.929 . S
H332 C336 0.929 . S
H333 C342 0.929 . S
C334 H328 0.930 . S
C334 C335 1.367 . S
C334 C342 1.378 . S
C335 C334 1.367 . S
C335 C343 1.433 . S
C336 H332 0.929 . S
C336 C338 1.378 . S
C336 C340 1.350 . S
C337 C340 1.463 1_445 S
C337 C342 1.350 . S
C337 N345 1.427 . S
C338 H329 0.930 . S
C338 C336 1.378 . S
C338 C339 1.367 . S
C339 C338 1.367 . S
C339 C341 1.433 . S
C340 C336 1.350 . S
C340 C337 1.463 1_665 S
C340 N344 1.427 . S
C341 H331 0.929 . S
C341 C339 1.433 . S
C341 N344 1.384 . S
C342 H333 0.929 . S
C342 C334 1.378 . S
C342 C337 1.350 . S
C343 H330 0.929 . S
C343 C335 1.433 . S
C343 N345 1.384 . S
N344 C340 1.427 . S
N344 C341 1.384 . S
N345 C337 1.427 . S
N345 C343 1.384 . S
H346 C352 0.930 . S
H347 C356 0.930 . S
H348 C361 0.929 . S
H349 C359 0.929 . S
H350 C354 0.929 . S
H351 C360 0.929 . S
C352 H346 0.930 . S
C352 C353 1.367 . S
C352 C360 1.378 . S
C353 C352 1.367 . S
C353 C361 1.433 . S
C354 H350 0.929 . S
C354 C356 1.378 . S
C354 C358 1.350 . S
C355 C358 1.463 1_465 S
C355 C360 1.350 . S
C355 N363 1.427 . S
C356 H347 0.930 . S
C356 C354 1.378 . S
C356 C357 1.367 . S
C357 C356 1.367 . S
C357 C359 1.433 . S
C358 C354 1.350 . S
C358 C355 1.463 1_645 S
C358 N362 1.427 . S
C359 H349 0.929 . S
C359 C357 1.433 . S
C359 N362 1.384 . S
C360 H351 0.929 . S
C360 C352 1.378 . S
C360 C355 1.350 . S
C361 H348 0.929 . S
C361 C353 1.433 . S
C361 N363 1.384 . S
N362 C358 1.427 . S
N362 C359 1.384 . S
N363 C355 1.427 . S
N363 C361 1.384 . S
H364 C370 0.930 . S
H365 C374 0.930 . S
H366 C379 0.929 . S
H367 C377 0.929 . S
H368 C372 0.929 . S
H369 C378 0.929 . S
C370 H364 0.930 . S
C370 C371 1.367 . S
C370 C378 1.378 . S
C371 C370 1.367 . S
C371 C379 1.433 . S
C372 H368 0.929 . S
C372 C374 1.378 . S
C372 C376 1.350 . S
C373 C376 1.463 1_645 S
C373 C378 1.350 . S
C373 N381 1.427 . S
C374 H365 0.930 . S
C374 C372 1.378 . S
C374 C375 1.367 . S
C375 C374 1.367 . S
C375 C377 1.433 . S
C376 C372 1.350 . S
C376 C373 1.463 1_465 S
C376 N380 1.427 . S
C377 H367 0.929 . S
C377 C375 1.433 . S
C377 N380 1.384 . S
C378 H369 0.929 . S
C378 C370 1.378 . S
C378 C373 1.350 . S
C379 H366 0.929 . S
C379 C371 1.433 . S
C379 N381 1.384 . S
N380 C376 1.427 . S
N380 C377 1.384 . S
N381 C373 1.427 . S
N381 C379 1.384 . S
H382 C388 0.930 1_545 S
H383 C392 0.930 1_565 S
H384 C397 0.929 . S
H385 C395 0.929 . S
H386 C390 0.929 . S
H387 C396 0.929 . S
C388 H382 0.930 1_565 S
C388 C389 1.367 . S
C388 C396 1.378 1_565 S
C389 C388 1.367 . S
C389 C397 1.433 . S
C390 H386 0.929 . S
C390 C392 1.378 1_565 S
C390 C394 1.350 1_565 S
C391 C394 1.463 1_665 S
C391 C396 1.350 1_565 S
C391 N399 1.427 . S
C392 H383 0.930 1_545 S
C392 C390 1.378 1_545 S
C392 C393 1.367 . S
C393 C392 1.367 . S
C393 C395 1.433 . S
C394 C390 1.350 1_545 S
C394 C391 1.463 1_445 S
C394 N398 1.427 . S
C395 H385 0.929 . S
C395 C393 1.433 . S
C395 N398 1.384 . S
C396 H387 0.929 . S
C396 C388 1.378 1_545 S
C396 C391 1.350 1_545 S
C397 H384 0.929 . S
C397 C389 1.433 . S
C397 N399 1.384 . S
N398 C394 1.427 . S
N398 C395 1.384 . S
N399 C391 1.427 . S
N399 C397 1.384 . S
C119 C12 1.793 . S
C123 C28 1.795 . S
C137 C42 1.787 . S
C141 C26 1.786 . S
C155 C85 1.792 . S
C159 C57 1.790 . S
C173 C71 1.784 . S
C177 C99 1.783 . S
C191 C96 1.596 . S
C195 C1 1.600 . S
C209 C15 1.600 . S
C213 C110 1.596 . S
C227 C41 1.599 . S
C231 C68 1.597 . S
C245 C82 1.601 . S
C249 C55 1.595 . S
C263 C0 1.666 . S
C267 C83 1.666 . S
C281 C97 1.666 . S
C285 C14 1.666 . S
C299 C111 1.661 . S
C303 C40 1.661 . S
C317 C54 1.662 . S
C321 C69 1.661 . S
C335 C13 1.471 . S
C339 C29 1.468 . S
C353 C43 1.473 . S
C357 C27 1.475 . S
C371 C84 1.473 . S
C375 C56 1.475 . S
C389 C98 1.466 . S
C393 C70 1.467 . S
