# Generated by pormake.
# Topology dia, (4)-cn, num edge types: 1
# Building blocks:
#     Node 0, Type 0, BuildingBlock: QUQFOY_clean_sbu_1, # of connection points: 4
#     Node 1, Type 0, BuildingBlock: QUQFOY_clean_sbu_1, # of connection points: 4
#     Node 2, Type 0, BuildingBlock: QUQFOY_clean_sbu_1, # of connection points: 4
#     Node 3, Type 0, BuildingBlock: QUQFOY_clean_sbu_1, # of connection points: 4
#     Node 4, Type 0, BuildingBlock: QUQFOY_clean_sbu_1, # of connection points: 4
#     Node 5, Type 0, BuildingBlock: QUQFOY_clean_sbu_1, # of connection points: 4
#     Node 6, Type 0, BuildingBlock: QUQFOY_clean_sbu_1, # of connection points: 4
#     Node 7, Type 0, BuildingBlock: QUQFOY_clean_sbu_1, # of connection points: 4
#     Edge 8, Type (0, 0), BuildingBlock: OJICUG_clean_linker_0, # of connection points: 2
#     Edge 9, Type (0, 0), BuildingBlock: OJICUG_clean_linker_0, # of connection points: 2
#     Edge 10, Type (0, 0), BuildingBlock: OJICUG_clean_linker_0, # of connection points: 2
#     Edge 11, Type (0, 0), BuildingBlock: OJICUG_clean_linker_0, # of connection points: 2
#     Edge 12, Type (0, 0), BuildingBlock: OJICUG_clean_linker_0, # of connection points: 2
#     Edge 13, Type (0, 0), BuildingBlock: OJICUG_clean_linker_0, # of connection points: 2
#     Edge 14, Type (0, 0), BuildingBlock: OJICUG_clean_linker_0, # of connection points: 2
#     Edge 15, Type (0, 0), BuildingBlock: OJICUG_clean_linker_0, # of connection points: 2
#     Edge 16, Type (0, 0), BuildingBlock: OJICUG_clean_linker_0, # of connection points: 2
#     Edge 17, Type (0, 0), BuildingBlock: OJICUG_clean_linker_0, # of connection points: 2
#     Edge 18, Type (0, 0), BuildingBlock: OJICUG_clean_linker_0, # of connection points: 2
#     Edge 19, Type (0, 0), BuildingBlock: OJICUG_clean_linker_0, # of connection points: 2
#     Edge 20, Type (0, 0), BuildingBlock: OJICUG_clean_linker_0, # of connection points: 2
#     Edge 21, Type (0, 0), BuildingBlock: OJICUG_clean_linker_0, # of connection points: 2
#     Edge 22, Type (0, 0), BuildingBlock: OJICUG_clean_linker_0, # of connection points: 2
#     Edge 23, Type (0, 0), BuildingBlock: OJICUG_clean_linker_0, # of connection points: 2
# Relax obj value: 0.197
# Max RMSD: 0.229
# Mean RMSD: 0.229
data_MOF--net-dia--node1-QUQFOY_clean_sbu_1--edge1-OJICUG_clean_linker_0
_symmetry_space_group_name_H-M    P1
_symmetry_Int_Tables_number       1
_symmetry_cell_setting            triclinic
loop_
_symmetry_equiv_pos_as_xyz
'x, y, z'
_cell_length_a     26.730753
_cell_length_b     26.065644
_cell_length_c     27.939659
_cell_angle_alpha  90.000263
_cell_angle_beta   89.999097
_cell_angle_gamma 86.59261
loop_
_atom_site_label
_atom_site_type_symbol
_atom_site_fract_x
_atom_site_fract_y
_atom_site_fract_z
_atom_type_partial_charge
O0 O 0.12326 0.16339 0.59544 0.0
Cd1 Cd 0.06975 0.1244 0.6313 0.0
Cd2 Cd 0.14344 0.04711 0.63137 0.0
O3 O 0.18218 0.10044 0.59424 0.0
O4 O 0.01863 0.17719 0.65507 0.0
O5 O 0.06577 0.12696 0.70298 0.0
C6 C 0.03097 0.16315 0.69795 0.0
C7 C 0.1819 0.00875 0.69835 0.0
C8 C 0.16695 0.14611 0.58347 0.0
C9 C 0.04637 0.02533 0.5834 0.0
O10 O 0.09004 0.00803 0.59543 0.0
O11 O 0.03113 0.07101 0.59415 0.0
O12 O 0.19446 -0.00553 0.65559 0.0
O13 O 0.14704 0.04493 0.70307 0.0
O14 O 0.781 0.32271 0.966 0.0
Cd15 Cd 0.81971 0.37604 0.92885 0.0
Cd16 Cd 0.89326 0.29856 0.92846 0.0
O17 O 0.83981 0.25965 0.9645 0.0
O18 O 0.76871 0.4289 0.90501 0.0
O19 O 0.81578 0.37849 0.85718 0.0
C20 C 0.78103 0.41475 0.86216 0.0
C21 C 0.93183 0.25968 0.86177 0.0
C22 C 0.7962 0.277 0.97665 0.0
C23 C 0.91707 0.39743 0.97648 0.0
O24 O 0.93219 0.35178 0.96553 0.0
O25 O 0.87336 0.41484 0.9647 0.0
O26 O 0.94421 0.24564 0.90463 0.0
O27 O 0.8971 0.29594 0.85677 0.0
O28 O 0.6232 0.16514 0.09524 0.0
Cd29 Cd 0.56988 0.12602 0.13127 0.0
Cd30 Cd 0.64364 0.0488 0.1311 0.0
O31 O 0.68219 0.10224 0.09394 0.0
O32 O 0.51883 0.17863 0.15549 0.0
O33 O 0.56634 0.12826 0.20297 0.0
C34 C 0.53144 0.1644 0.19825 0.0
C35 C 0.68239 0.01017 0.19781 0.0
C36 C 0.66688 0.1479 0.08319 0.0
C37 C 0.54643 0.02698 0.08338 0.0
O38 O 0.59017 0.00975 0.09525 0.0
O39 O 0.53115 0.07262 0.09422 0.0
O40 O 0.6948 -0.00391 0.15496 0.0
O41 O 0.64755 0.04634 0.20278 0.0
O42 O 0.7808 0.82183 0.46565 0.0
Cd43 Cd 0.81978 0.87504 0.42862 0.0
Cd44 Cd 0.89327 0.79751 0.42891 0.0
O45 O 0.83956 0.75871 0.46468 0.0
O46 O 0.7689 0.92797 0.40468 0.0
O47 O 0.81606 0.87758 0.35692 0.0
C48 C 0.78134 0.91388 0.36185 0.0
C49 C 0.93201 0.75882 0.36223 0.0
C50 C 0.79587 0.77613 0.47651 0.0
C51 C 0.91685 0.89647 0.47683 0.0
O52 O 0.932 0.85076 0.46615 0.0
O53 O 0.87326 0.91388 0.46468 0.0
O54 O 0.94426 0.74463 0.4051 0.0
O55 O 0.8973 0.79511 0.35724 0.0
O56 O 0.12396 0.66367 0.09591 0.0
Cd57 Cd 0.07051 0.62446 0.13163 0.0
Cd58 Cd 0.14422 0.54717 0.13109 0.0
O59 O 0.18292 0.60076 0.09427 0.0
O60 O 0.01935 0.67715 0.15549 0.0
O61 O 0.06642 0.62676 0.20332 0.0
C62 C 0.03162 0.66296 0.19834 0.0
C63 C 0.18253 0.50851 0.19799 0.0
C64 C 0.16764 0.6465 0.08379 0.0
C65 C 0.04708 0.52571 0.08312 0.0
O66 O 0.09079 0.50834 0.09492 0.0
O67 O 0.03184 0.57128 0.09424 0.0
O68 O 0.19519 0.49442 0.15519 0.0
O69 O 0.14766 0.54468 0.20277 0.0
O70 O 0.28114 0.32099 0.46653 0.0
Cd71 Cd 0.3197 0.3745 0.42944 0.0
Cd72 Cd 0.39366 0.29751 0.42981 0.0
O73 O 0.34028 0.25824 0.46559 0.0
O74 O 0.26848 0.42698 0.40529 0.0
O75 O 0.31609 0.3768 0.35774 0.0
C76 C 0.28112 0.41286 0.36251 0.0
C77 C 0.43239 0.25934 0.36288 0.0
C78 C 0.2965 0.27539 0.47741 0.0
C79 C 0.41654 0.39675 0.47763 0.0
O80 O 0.43199 0.3511 0.46701 0.0
O81 O 0.37286 0.41384 0.46545 0.0
O82 O 0.44494 0.24509 0.40565 0.0
O83 O 0.3974 0.29538 0.35812 0.0
O84 O 0.28124 0.822 0.96709 0.0
Cd85 Cd 0.31962 0.87556 0.92989 0.0
Cd86 Cd 0.39353 0.79853 0.92957 0.0
O87 O 0.34037 0.75925 0.96565 0.0
O88 O 0.26838 0.92802 0.90575 0.0
O89 O 0.31589 0.8777 0.85821 0.0
C90 C 0.28093 0.91377 0.86297 0.0
C91 C 0.43197 0.76016 0.86257 0.0
C92 C 0.29668 0.77637 0.97778 0.0
C93 C 0.41681 0.89764 0.97747 0.0
O94 O 0.43216 0.85204 0.96657 0.0
O95 O 0.37301 0.91478 0.96569 0.0
O96 O 0.44468 0.74601 0.90533 0.0
O97 O 0.397 0.79623 0.85786 0.0
O98 O 0.62212 0.66508 0.5948 0.0
Cd99 Cd 0.56873 0.62616 0.63091 0.0
Cd100 Cd 0.64249 0.54895 0.63149 0.0
O101 O 0.6811 0.60216 0.59409 0.0
O102 O 0.5177 0.67882 0.6551 0.0
O103 O 0.56531 0.62855 0.7026 0.0
C104 C 0.5304 0.66468 0.69787 0.0
C105 C 0.68142 0.51052 0.69822 0.0
C106 C 0.66585 0.64774 0.58299 0.0
C107 C 0.54542 0.5268 0.58362 0.0
O108 O 0.58909 0.50966 0.59579 0.0
O109 O 0.53011 0.57254 0.59405 0.0
O110 O 0.69372 0.49633 0.65537 0.0
O111 O 0.64658 0.54668 0.70318 0.0
C112 C 0.27958 0.19166 0.5167 0.0
C113 C 0.26331 0.24223 0.50439 0.0
H114 H 0.26209 0.12174 0.55127 0.0
C115 C 0.2151 0.26093 0.51842 0.0
H116 H 0.31649 0.17601 0.50649 0.0
C117 C 0.1839 0.2298 0.54416 0.0
C118 C 0.20016 0.17923 0.55647 0.0
H119 H 0.20137 0.29971 0.5096 0.0
H120 H 0.14699 0.24545 0.55437 0.0
C121 C 0.24837 0.16052 0.54244 0.0
C122 C 0.69374 0.50176 0.78689 0.0
C123 C 0.70682 0.48606 0.74022 0.0
H124 H 0.70692 0.49163 0.86193 0.0
C125 C 0.74464 0.44676 0.73395 0.0
H126 H 0.6648 0.53194 0.79294 0.0
C127 C 0.76883 0.42365 0.77349 0.0
C128 C 0.75573 0.43932 0.82016 0.0
H129 H 0.75565 0.43377 0.69846 0.0
H130 H 0.79776 0.39346 0.76743 0.0
C131 C 0.71793 0.47864 0.82643 0.0
C132 C 0.52959 0.94338 0.04385 0.0
C133 C 0.51321 -0.00616 0.05642 0.0
H134 H 0.51219 0.87354 1.0091 0.0
C135 C 0.46486 0.01242 0.04269 0.0
H136 H 0.5666 0.92783 0.05381 0.0
C137 C 0.43363 -0.01873 1.01699 0.0
C138 C 0.45002 0.93081 1.00442 0.0
H139 H 0.45104 0.05111 0.05174 0.0
H140 H 0.39662 -0.00318 1.00702 0.0
C141 C 0.49836 0.91223 1.01815 0.0
C142 C 0.94429 0.74996 0.27358 0.0
C143 C 0.95733 0.73424 0.32025 0.0
H144 H 0.95753 0.73984 0.19855 0.0
C145 C -0.00492 0.69487 0.32653 0.0
H146 H 0.91541 0.78019 0.26751 0.0
C147 C 0.01927 0.67173 0.287 0.0
C148 C 0.00625 0.68746 0.24033 0.0
H149 H 0.00604 0.68185 0.36204 0.0
H150 H 0.04816 0.6415 0.29307 0.0
C151 C 0.96849 0.72682 0.23405 0.0
C152 C 0.21771 -0.02274 0.82681 0.0
C153 C 0.25569 0.93807 0.82081 0.0
H154 H 0.1646 0.03028 0.79295 0.0
C155 C 0.26908 0.92228 0.77424 0.0
H156 H 0.20647 -0.00969 0.86223 0.0
C157 C 0.24502 0.9452 0.73453 0.0
C158 C 0.20706 -0.0156 0.74053 0.0
H159 H 0.29814 0.89219 0.76839 0.0
H160 H 0.25627 0.93215 0.69912 0.0
C161 C 0.19366 0.00018 0.7871 0.0
C162 C 0.93425 0.48081 1.01626 0.0
C163 C 0.95043 0.43034 1.00354 0.0
H164 H 0.95188 0.5504 0.05131 0.0
C165 C -0.00132 0.41149 1.01729 0.0
H166 H 0.89731 0.49657 1.00628 0.0
C167 C 0.03 0.44238 0.04318 0.0
C168 C 0.0138 0.49284 0.05592 0.0
H169 H 0.01236 0.37279 1.00813 0.0
H170 H 0.06694 0.42662 0.05317 0.0
C171 C 0.96556 0.5117 0.04214 0.0
C172 C 0.44425 0.25084 0.27415 0.0
C173 C 0.45764 0.23507 0.32072 0.0
H174 H 0.45704 0.24098 0.19902 0.0
C175 C 0.49565 0.19591 0.32671 0.0
H176 H 0.41516 0.28092 0.26829 0.0
C177 C 0.51971 0.173 0.287 0.0
C178 C 0.50629 0.18875 0.24043 0.0
H179 H 0.5069 0.18286 0.36213 0.0
H180 H 0.54879 0.14291 0.29285 0.0
C181 C 0.46831 0.22793 0.23444 0.0
C182 C 0.77861 0.69265 0.51603 0.0
C183 C 0.7625 0.7432 0.50352 0.0
H184 H 0.76092 0.62297 0.55089 0.0
C185 C 0.71431 0.76209 0.51742 0.0
H186 H 0.8155 0.67685 0.50593 0.0
C187 C 0.68298 0.73118 0.54327 0.0
C188 C 0.69912 0.68064 0.55582 0.0
H189 H 0.70069 0.80086 0.50842 0.0
H190 H 0.6461 0.74697 0.55339 0.0
C191 C 0.74729 0.66174 0.54188 0.0
C192 C 0.19406 0.49955 0.28672 0.0
C193 C 0.20757 0.48396 0.24013 0.0
H194 H 0.20668 0.48939 0.36184 0.0
C195 C 0.24552 0.44476 0.23409 0.0
H196 H 0.165 0.52965 0.29261 0.0
C197 C 0.26947 0.42167 0.27377 0.0
C198 C 0.25598 0.43728 0.32037 0.0
H199 H 0.25685 0.43184 0.19865 0.0
H200 H 0.29854 0.39158 0.26789 0.0
C201 C 0.218 0.47646 0.32641 0.0
C202 C 0.7149 0.26267 1.01794 0.0
C203 C 0.76304 0.24391 1.00375 0.0
H204 H 0.64689 0.24727 0.05413 0.0
C205 C 0.77929 0.19333 1.01602 0.0
H206 H 0.70118 0.30146 1.00913 0.0
C207 C 0.74815 0.16225 0.04189 0.0
C208 C 0.70001 0.18101 0.05608 0.0
H209 H 0.81615 0.17763 1.0057 0.0
H210 H 0.76187 0.12346 0.05069 0.0
C211 C 0.68375 0.23158 0.0438 0.0
C212 C 0.76944 0.92298 0.27316 0.0
C213 C 0.75621 0.93856 0.31982 0.0
H214 H 0.75652 0.9333 0.1981 0.0
C215 C 0.71844 -0.02208 0.32605 0.0
H216 H 0.79835 0.89276 0.26712 0.0
C217 C 0.69441 0.00117 0.28649 0.0
C218 C 0.70762 -0.01443 0.23982 0.0
H219 H 0.70733 -0.00916 0.36154 0.0
H220 H 0.66549 0.03137 0.29252 0.0
C221 C 0.74541 0.94623 0.23359 0.0
C222 C -0.00188 0.91061 0.51825 0.0
C223 C 0.95005 0.92949 0.50397 0.0
H224 H 0.06612 0.92586 0.55452 0.0
C225 C 0.93391 -0.01988 0.51616 0.0
H226 H 0.01174 0.87177 0.50952 0.0
C227 C 0.96511 0.01115 0.54203 0.0
C228 C 0.01318 -0.00772 0.5563 0.0
H229 H 0.89711 -0.00409 0.50576 0.0
H230 H 0.95147 0.04999 0.55076 0.0
C231 C 0.02932 0.94164 0.54412 0.0
C232 C -0.00522 0.19559 0.82611 0.0
C233 C 0.95702 0.23495 0.81979 0.0
H234 H 0.04776 0.14209 0.7927 0.0
C235 C 0.94385 0.25047 0.7731 0.0
H236 H 0.00585 0.18272 0.86163 0.0
C237 C 0.96792 0.22717 0.73359 0.0
C238 C 0.0057 0.18783 0.7399 0.0
H239 H 0.91495 0.28068 0.767 0.0
H240 H 0.95687 0.24004 0.69807 0.0
C241 C 0.01886 0.17229 0.7866 0.0
C242 C 0.46737 0.72832 0.73408 0.0
C243 C 0.50537 0.68915 0.74006 0.0
H244 H 0.41436 0.78143 0.76798 0.0
C245 C 0.51896 0.67354 0.78663 0.0
H246 H 0.45598 0.74125 0.69867 0.0
C247 C 0.49506 0.69659 0.82635 0.0
C248 C 0.45704 0.73575 0.82038 0.0
H249 H 0.54805 0.64347 0.79246 0.0
H250 H 0.50644 0.68365 0.86177 0.0
C251 C 0.44346 0.75137 0.77381 0.0
C252 C 0.24899 0.66126 0.04277 0.0
C253 C 0.20076 0.67981 0.05689 0.0
H254 H 0.31699 0.67701 1.00674 0.0
C255 C 0.18437 0.73038 0.04472 0.0
H256 H 0.26282 0.62249 0.0515 0.0
C257 C 0.21544 0.76165 1.019 0.0
C258 C 0.26366 0.7431 1.00484 0.0
H259 H 0.14744 0.74591 0.055 0.0
H260 H 0.2016 0.80042 1.01025 0.0
C261 C 0.28007 0.69254 1.01704 0.0
C262 C 0.43315 0.48069 0.51666 0.0
C263 C 0.44953 0.43006 0.50468 0.0
H264 H 0.4504 0.55085 0.55094 0.0
C265 C 0.49767 0.41148 0.51904 0.0
H266 H 0.3963 0.49625 0.50619 0.0
C267 C 0.52871 0.4428 0.54476 0.0
C268 C 0.51235 0.49345 0.55671 0.0
H269 H 0.51147 0.37266 0.51047 0.0
H270 H 0.56557 0.42725 0.55521 0.0
C271 C 0.4642 0.51202 0.54238 0.0
loop_
_geom_bond_atom_site_label_1
_geom_bond_atom_site_label_2
_geom_bond_distance
_geom_bond_site_symmetry_2
_ccdc_geom_bond_type
O0 Cd1 2.223 . S
O0 C8 1.315 . S
Cd1 O0 2.223 . S
Cd1 O4 2.297 . S
Cd1 O5 2.439 . S
Cd1 O11 2.240 . S
Cd2 O3 2.240 . S
Cd2 O10 2.223 . S
Cd2 O12 2.297 . S
Cd2 O13 2.439 . S
O3 Cd2 2.240 . S
O3 C8 1.279 . S
O4 Cd1 2.297 . S
O4 C6 1.247 . S
O5 Cd1 2.439 . S
O5 C6 1.208 . S
C6 O4 1.247 . S
C6 O5 1.208 . S
C7 O12 1.247 . S
C7 O13 1.208 . S
C8 O0 1.315 . S
C8 O3 1.279 . S
C9 O10 1.315 . S
C9 O11 1.279 . S
O10 Cd2 2.223 . S
O10 C9 1.315 . S
O11 Cd1 2.240 . S
O11 C9 1.279 . S
O12 Cd2 2.297 . S
O12 C7 1.247 . S
O13 Cd2 2.439 . S
O13 C7 1.208 . S
O14 Cd15 2.223 . S
O14 C22 1.315 . S
Cd15 O14 2.223 . S
Cd15 O18 2.297 . S
Cd15 O19 2.439 . S
Cd15 O25 2.240 . S
Cd16 O17 2.240 . S
Cd16 O24 2.223 . S
Cd16 O26 2.297 . S
Cd16 O27 2.439 . S
O17 Cd16 2.240 . S
O17 C22 1.279 . S
O18 Cd15 2.297 . S
O18 C20 1.247 . S
O19 Cd15 2.439 . S
O19 C20 1.208 . S
C20 O18 1.247 . S
C20 O19 1.208 . S
C21 O26 1.247 . S
C21 O27 1.208 . S
C22 O14 1.315 . S
C22 O17 1.279 . S
C23 O24 1.315 . S
C23 O25 1.279 . S
O24 Cd16 2.223 . S
O24 C23 1.315 . S
O25 Cd15 2.240 . S
O25 C23 1.279 . S
O26 Cd16 2.297 . S
O26 C21 1.247 . S
O27 Cd16 2.439 . S
O27 C21 1.208 . S
O28 Cd29 2.223 . S
O28 C36 1.315 . S
Cd29 O28 2.223 . S
Cd29 O32 2.297 . S
Cd29 O33 2.439 . S
Cd29 O39 2.240 . S
Cd30 O31 2.240 . S
Cd30 O38 2.223 . S
Cd30 O40 2.297 . S
Cd30 O41 2.439 . S
O31 Cd30 2.240 . S
O31 C36 1.279 . S
O32 Cd29 2.297 . S
O32 C34 1.247 . S
O33 Cd29 2.439 . S
O33 C34 1.208 . S
C34 O32 1.247 . S
C34 O33 1.208 . S
C35 O40 1.247 . S
C35 O41 1.208 . S
C36 O28 1.315 . S
C36 O31 1.279 . S
C37 O38 1.315 . S
C37 O39 1.279 . S
O38 Cd30 2.223 . S
O38 C37 1.315 . S
O39 Cd29 2.240 . S
O39 C37 1.279 . S
O40 Cd30 2.297 . S
O40 C35 1.247 . S
O41 Cd30 2.439 . S
O41 C35 1.208 . S
O42 Cd43 2.223 . S
O42 C50 1.315 . S
Cd43 O42 2.223 . S
Cd43 O46 2.297 . S
Cd43 O47 2.439 . S
Cd43 O53 2.240 . S
Cd44 O45 2.240 . S
Cd44 O52 2.223 . S
Cd44 O54 2.297 . S
Cd44 O55 2.439 . S
O45 Cd44 2.240 . S
O45 C50 1.279 . S
O46 Cd43 2.297 . S
O46 C48 1.247 . S
O47 Cd43 2.439 . S
O47 C48 1.208 . S
C48 O46 1.247 . S
C48 O47 1.208 . S
C49 O54 1.247 . S
C49 O55 1.208 . S
C50 O42 1.315 . S
C50 O45 1.279 . S
C51 O52 1.315 . S
C51 O53 1.279 . S
O52 Cd44 2.223 . S
O52 C51 1.315 . S
O53 Cd43 2.240 . S
O53 C51 1.279 . S
O54 Cd44 2.297 . S
O54 C49 1.247 . S
O55 Cd44 2.439 . S
O55 C49 1.208 . S
O56 Cd57 2.223 . S
O56 C64 1.315 . S
Cd57 O56 2.223 . S
Cd57 O60 2.297 . S
Cd57 O61 2.439 . S
Cd57 O67 2.240 . S
Cd58 O59 2.240 . S
Cd58 O66 2.223 . S
Cd58 O68 2.297 . S
Cd58 O69 2.439 . S
O59 Cd58 2.240 . S
O59 C64 1.279 . S
O60 Cd57 2.297 . S
O60 C62 1.247 . S
O61 Cd57 2.439 . S
O61 C62 1.208 . S
C62 O60 1.247 . S
C62 O61 1.208 . S
C63 O68 1.247 . S
C63 O69 1.208 . S
C64 O56 1.315 . S
C64 O59 1.279 . S
C65 O66 1.315 . S
C65 O67 1.279 . S
O66 Cd58 2.223 . S
O66 C65 1.315 . S
O67 Cd57 2.240 . S
O67 C65 1.279 . S
O68 Cd58 2.297 . S
O68 C63 1.247 . S
O69 Cd58 2.439 . S
O69 C63 1.208 . S
O70 Cd71 2.223 . S
O70 C78 1.315 . S
Cd71 O70 2.223 . S
Cd71 O74 2.297 . S
Cd71 O75 2.439 . S
Cd71 O81 2.240 . S
Cd72 O73 2.240 . S
Cd72 O80 2.223 . S
Cd72 O82 2.297 . S
Cd72 O83 2.439 . S
O73 Cd72 2.240 . S
O73 C78 1.279 . S
O74 Cd71 2.297 . S
O74 C76 1.247 . S
O75 Cd71 2.439 . S
O75 C76 1.208 . S
C76 O74 1.247 . S
C76 O75 1.208 . S
C77 O82 1.247 . S
C77 O83 1.208 . S
C78 O70 1.315 . S
C78 O73 1.279 . S
C79 O80 1.315 . S
C79 O81 1.279 . S
O80 Cd72 2.223 . S
O80 C79 1.315 . S
O81 Cd71 2.240 . S
O81 C79 1.279 . S
O82 Cd72 2.297 . S
O82 C77 1.247 . S
O83 Cd72 2.439 . S
O83 C77 1.208 . S
O84 Cd85 2.223 . S
O84 C92 1.315 . S
Cd85 O84 2.223 . S
Cd85 O88 2.297 . S
Cd85 O89 2.439 . S
Cd85 O95 2.240 . S
Cd86 O87 2.240 . S
Cd86 O94 2.223 . S
Cd86 O96 2.297 . S
Cd86 O97 2.439 . S
O87 Cd86 2.240 . S
O87 C92 1.279 . S
O88 Cd85 2.297 . S
O88 C90 1.247 . S
O89 Cd85 2.439 . S
O89 C90 1.208 . S
C90 O88 1.247 . S
C90 O89 1.208 . S
C91 O96 1.247 . S
C91 O97 1.208 . S
C92 O84 1.315 . S
C92 O87 1.279 . S
C93 O94 1.315 . S
C93 O95 1.279 . S
O94 Cd86 2.223 . S
O94 C93 1.315 . S
O95 Cd85 2.240 . S
O95 C93 1.279 . S
O96 Cd86 2.297 . S
O96 C91 1.247 . S
O97 Cd86 2.439 . S
O97 C91 1.208 . S
O98 Cd99 2.223 . S
O98 C106 1.315 . S
Cd99 O98 2.223 . S
Cd99 O102 2.297 . S
Cd99 O103 2.439 . S
Cd99 O109 2.240 . S
Cd100 O101 2.240 . S
Cd100 O108 2.223 . S
Cd100 O110 2.297 . S
Cd100 O111 2.439 . S
O101 Cd100 2.240 . S
O101 C106 1.279 . S
O102 Cd99 2.297 . S
O102 C104 1.247 . S
O103 Cd99 2.439 . S
O103 C104 1.208 . S
C104 O102 1.247 . S
C104 O103 1.208 . S
C105 O110 1.247 . S
C105 O111 1.208 . S
C106 O98 1.315 . S
C106 O101 1.279 . S
C107 O108 1.315 . S
C107 O109 1.279 . S
O108 Cd100 2.223 . S
O108 C107 1.315 . S
O109 Cd99 2.240 . S
O109 C107 1.279 . S
O110 Cd100 2.297 . S
O110 C105 1.247 . S
O111 Cd100 2.439 . S
O111 C105 1.208 . S
C112 C113 1.387 . S
C112 H116 0.950 . S
C112 C121 1.390 . S
C113 C112 1.387 . S
C113 C115 1.387 . S
H114 C121 0.950 . S
C115 C113 1.387 . S
C115 C117 1.390 . S
C115 H119 0.950 . S
H116 C112 0.950 . S
C117 C115 1.390 . S
C117 C118 1.387 . S
C117 H120 0.950 . S
C118 C117 1.387 . S
C118 C121 1.387 . S
H119 C115 0.950 . S
H120 C117 0.950 . S
C121 C112 1.390 . S
C121 H114 0.950 . S
C121 C118 1.387 . S
C122 C123 1.387 . S
C122 H126 0.950 . S
C122 C131 1.390 . S
C123 C122 1.387 . S
C123 C125 1.387 . S
H124 C131 0.950 . S
C125 C123 1.387 . S
C125 C127 1.390 . S
C125 H129 0.950 . S
H126 C122 0.950 . S
C127 C125 1.390 . S
C127 C128 1.387 . S
C127 H130 0.950 . S
C128 C127 1.387 . S
C128 C131 1.387 . S
H129 C125 0.950 . S
H130 C127 0.950 . S
C131 C122 1.390 . S
C131 H124 0.950 . S
C131 C128 1.387 . S
C132 C133 1.397 1_565 S
C132 H136 0.950 . S
C132 C141 1.380 1_554 S
C133 C132 1.397 1_545 S
C133 C135 1.387 . S
H134 C141 0.950 . S
C135 C133 1.387 . S
C135 C137 1.380 1_544 S
C135 H139 0.950 . S
H136 C132 0.950 . S
C137 C135 1.380 1_566 S
C137 C138 1.397 . S
C137 H140 0.950 . S
C138 C137 1.397 . S
C138 C141 1.387 . S
H139 C135 0.950 . S
H140 C137 0.950 . S
C141 C132 1.380 1_556 S
C141 H134 0.950 . S
C141 C138 1.387 . S
C142 C143 1.387 . S
C142 H146 0.950 . S
C142 C151 1.390 . S
C143 C142 1.387 . S
C143 C145 1.387 1_455 S
H144 C151 0.950 . S
C145 C143 1.387 1_655 S
C145 C147 1.390 1_655 S
C145 H149 0.950 . S
H146 C142 0.950 . S
C147 C145 1.390 1_455 S
C147 C148 1.387 . S
C147 H150 0.949 . S
C148 C147 1.387 . S
C148 C151 1.387 . S
H149 C145 0.950 . S
H150 C147 0.949 . S
C151 C142 1.390 . S
C151 H144 0.950 . S
C151 C148 1.387 . S
C152 C153 1.387 . S
C152 H156 0.950 . S
C152 C161 1.390 1_565 S
C153 C152 1.387 . S
C153 C155 1.387 . S
H154 C161 0.950 . S
C155 C153 1.387 . S
C155 C157 1.390 . S
C155 H159 0.950 . S
H156 C152 0.950 . S
C157 C155 1.390 . S
C157 C158 1.387 . S
C157 H160 0.950 . S
C158 C157 1.387 . S
C158 C161 1.387 1_565 S
H159 C155 0.950 . S
H160 C157 0.950 . S
C161 C152 1.390 1_545 S
C161 H154 0.950 . S
C161 C158 1.387 1_545 S
C162 C163 1.387 . S
C162 H166 0.950 . S
C162 C171 1.390 1_656 S
C163 C162 1.387 . S
C163 C165 1.387 1_655 S
H164 C171 0.950 1_655 S
C165 C163 1.387 1_455 S
C165 C167 1.390 1_556 S
C165 H169 0.950 . S
H166 C162 0.950 . S
C167 C165 1.390 1_554 S
C167 C168 1.387 . S
C167 H170 0.950 . S
C168 C167 1.387 . S
C168 C171 1.387 . S
H169 C165 0.950 . S
H170 C167 0.950 . S
C171 C162 1.390 1_454 S
C171 H164 0.950 1_455 S
C171 C168 1.387 . S
C172 C173 1.387 . S
C172 H176 0.950 . S
C172 C181 1.390 . S
C173 C172 1.387 . S
C173 C175 1.387 . S
H174 C181 0.950 . S
C175 C173 1.387 . S
C175 C177 1.390 . S
C175 H179 0.950 . S
H176 C172 0.950 . S
C177 C175 1.390 . S
C177 C178 1.387 . S
C177 H180 0.950 . S
C178 C177 1.387 . S
C178 C181 1.387 . S
H179 C175 0.950 . S
H180 C177 0.950 . S
C181 C172 1.390 . S
C181 H174 0.950 . S
C181 C178 1.387 . S
C182 C183 1.387 . S
C182 H186 0.950 . S
C182 C191 1.390 . S
C183 C182 1.387 . S
C183 C185 1.387 . S
H184 C191 0.950 . S
C185 C183 1.387 . S
C185 C187 1.390 . S
C185 H189 0.950 . S
H186 C182 0.950 . S
C187 C185 1.390 . S
C187 C188 1.387 . S
C187 H190 0.950 . S
C188 C187 1.387 . S
C188 C191 1.387 . S
H189 C185 0.950 . S
H190 C187 0.950 . S
C191 C182 1.390 . S
C191 H184 0.950 . S
C191 C188 1.387 . S
C192 C193 1.387 . S
C192 H196 0.950 . S
C192 C201 1.390 . S
C193 C192 1.387 . S
C193 C195 1.387 . S
H194 C201 0.950 . S
C195 C193 1.387 . S
C195 C197 1.390 . S
C195 H199 0.950 . S
H196 C192 0.950 . S
C197 C195 1.390 . S
C197 C198 1.387 . S
C197 H200 0.950 . S
C198 C197 1.387 . S
C198 C201 1.387 . S
H199 C195 0.950 . S
H200 C197 0.950 . S
C201 C192 1.390 . S
C201 H194 0.950 . S
C201 C198 1.387 . S
C202 C203 1.387 1_554 S
C202 H206 0.950 . S
C202 C211 1.390 . S
C203 C202 1.387 1_556 S
C203 C205 1.387 . S
H204 C211 0.950 . S
C205 C203 1.387 . S
C205 C207 1.390 . S
C205 H209 0.950 . S
H206 C202 0.950 . S
C207 C205 1.390 . S
C207 C208 1.387 1_556 S
C207 H210 0.950 . S
C208 C207 1.387 1_554 S
C208 C211 1.387 . S
H209 C205 0.950 . S
H210 C207 0.950 . S
C211 C202 1.390 . S
C211 H204 0.950 . S
C211 C208 1.387 . S
C212 C213 1.387 . S
C212 H216 0.950 . S
C212 C221 1.390 . S
C213 C212 1.387 . S
C213 C215 1.387 . S
H214 C221 0.950 . S
C215 C213 1.387 . S
C215 C217 1.390 1_565 S
C215 H219 0.950 1_565 S
H216 C212 0.950 . S
C217 C215 1.390 1_545 S
C217 C218 1.387 1_545 S
C217 H220 0.950 . S
C218 C217 1.387 1_565 S
C218 C221 1.387 . S
H219 C215 0.950 1_545 S
H220 C217 0.950 . S
C221 C212 1.390 . S
C221 H214 0.950 . S
C221 C218 1.387 . S
C222 C223 1.387 1_455 S
C222 H226 0.950 1_455 S
C222 C231 1.390 . S
C223 C222 1.387 1_655 S
C223 C225 1.388 1_565 S
H224 C231 0.950 . S
C225 C223 1.388 1_545 S
C225 C227 1.390 1_655 S
C225 H229 0.949 . S
H226 C222 0.950 1_655 S
C227 C225 1.390 1_455 S
C227 C228 1.387 . S
C227 H230 0.950 . S
C228 C227 1.387 . S
C228 C231 1.387 1_545 S
H229 C225 0.949 . S
H230 C227 0.950 . S
C231 C222 1.390 . S
C231 H224 0.950 . S
C231 C228 1.387 1_565 S
C232 C233 1.387 . S
C232 H236 0.950 . S
C232 C241 1.390 . S
C233 C232 1.387 . S
C233 C235 1.387 . S
H234 C241 0.950 . S
C235 C233 1.387 . S
C235 C237 1.390 . S
C235 H239 0.950 . S
H236 C232 0.950 . S
C237 C235 1.390 . S
C237 C238 1.387 . S
C237 H240 0.950 . S
C238 C237 1.387 . S
C238 C241 1.387 . S
H239 C235 0.950 . S
H240 C237 0.950 . S
C241 C232 1.390 . S
C241 H234 0.950 . S
C241 C238 1.387 . S
C242 C243 1.387 . S
C242 H246 0.950 . S
C242 C251 1.390 . S
C243 C242 1.387 . S
C243 C245 1.387 . S
H244 C251 0.950 . S
C245 C243 1.387 . S
C245 C247 1.390 . S
C245 H249 0.950 . S
H246 C242 0.950 . S
C247 C245 1.390 . S
C247 C248 1.387 . S
C247 H250 0.950 . S
C248 C247 1.387 . S
C248 C251 1.387 . S
H249 C245 0.950 . S
H250 C247 0.950 . S
C251 C242 1.390 . S
C251 H244 0.950 . S
C251 C248 1.387 . S
C252 C253 1.387 . S
C252 H256 0.950 . S
C252 C261 1.390 1_554 S
C253 C252 1.387 . S
C253 C255 1.387 . S
H254 C261 0.950 . S
C255 C253 1.387 . S
C255 C257 1.390 1_554 S
C255 H259 0.950 . S
H256 C252 0.950 . S
C257 C255 1.390 1_556 S
C257 C258 1.387 . S
C257 H260 0.950 . S
C258 C257 1.387 . S
C258 C261 1.387 . S
H259 C255 0.950 . S
H260 C257 0.950 . S
C261 C252 1.390 1_556 S
C261 H254 0.950 . S
C261 C258 1.387 . S
C262 C263 1.387 . S
C262 H266 0.950 . S
C262 C271 1.390 . S
C263 C262 1.387 . S
C263 C265 1.387 . S
H264 C271 0.950 . S
C265 C263 1.387 . S
C265 C267 1.390 . S
C265 H269 0.950 . S
H266 C262 0.950 . S
C267 C265 1.390 . S
C267 C268 1.387 . S
C267 H270 0.950 . S
C268 C267 1.387 . S
C268 C271 1.387 . S
H269 C265 0.950 . S
H270 C267 0.950 . S
C271 C262 1.390 . S
C271 H264 0.950 . S
C271 C268 1.387 . S
C113 C78 1.595 . S
C118 C8 1.595 . S
C123 C105 1.532 . S
C128 C20 1.534 . S
C133 C37 1.595 . S
C138 C93 1.595 . S
C143 C49 1.534 1_455 S
C148 C62 1.535 . S
C153 C90 1.534 . S
C158 C7 1.532 1_565 S
C163 C23 1.595 . S
C168 C65 1.595 . S
C173 C77 1.532 . S
C178 C34 1.534 . S
C183 C50 1.595 . S
C188 C106 1.595 . S
C193 C63 1.532 . S
C198 C76 1.534 . S
C203 C22 1.595 . S
C208 C36 1.595 . S
C213 C48 1.533 . S
C218 C35 1.535 1_565 S
C223 C51 1.595 . S
C228 C9 1.595 . S
C233 C21 1.534 1_455 S
C238 C6 1.532 . S
C243 C104 1.534 . S
C248 C91 1.532 . S
C253 C64 1.595 . S
C258 C92 1.595 . S
C263 C79 1.595 . S
C268 C107 1.595 . S
