# Generated by pormake.
# Topology ncb, (9)-cn, num edge types: 1
# Building blocks:
#     Node 0, Type 0, BuildingBlock: BELTOD_clean_sbu_0, # of connection points: 9
#     Node 1, Type 0, BuildingBlock: BELTOD_clean_sbu_0, # of connection points: 9
#     Node 2, Type 0, BuildingBlock: BELTOD_clean_sbu_0, # of connection points: 9
#     Node 3, Type 0, BuildingBlock: BELTOD_clean_sbu_0, # of connection points: 9
#     Node 4, Type 0, BuildingBlock: BELTOD_clean_sbu_0, # of connection points: 9
#     Node 5, Type 0, BuildingBlock: BELTOD_clean_sbu_0, # of connection points: 9
#     Node 6, Type 0, BuildingBlock: BELTOD_clean_sbu_0, # of connection points: 9
#     Node 7, Type 0, BuildingBlock: BELTOD_clean_sbu_0, # of connection points: 9
#     Edge 8, Type (0, 0), BuildingBlock: UVAHIK_clean_linker_0, # of connection points: 2
#     Edge 9, Type (0, 0), BuildingBlock: UVAHIK_clean_linker_0, # of connection points: 2
#     Edge 10, Type (0, 0), BuildingBlock: UVAHIK_clean_linker_0, # of connection points: 2
#     Edge 11, Type (0, 0), BuildingBlock: UVAHIK_clean_linker_0, # of connection points: 2
#     Edge 12, Type (0, 0), BuildingBlock: UVAHIK_clean_linker_0, # of connection points: 2
#     Edge 13, Type (0, 0), BuildingBlock: UVAHIK_clean_linker_0, # of connection points: 2
#     Edge 14, Type (0, 0), BuildingBlock: UVAHIK_clean_linker_0, # of connection points: 2
#     Edge 15, Type (0, 0), BuildingBlock: UVAHIK_clean_linker_0, # of connection points: 2
#     Edge 16, Type (0, 0), BuildingBlock: UVAHIK_clean_linker_0, # of connection points: 2
#     Edge 17, Type (0, 0), BuildingBlock: UVAHIK_clean_linker_0, # of connection points: 2
#     Edge 18, Type (0, 0), BuildingBlock: UVAHIK_clean_linker_0, # of connection points: 2
#     Edge 19, Type (0, 0), BuildingBlock: UVAHIK_clean_linker_0, # of connection points: 2
#     Edge 20, Type (0, 0), BuildingBlock: UVAHIK_clean_linker_0, # of connection points: 2
#     Edge 21, Type (0, 0), BuildingBlock: UVAHIK_clean_linker_0, # of connection points: 2
#     Edge 22, Type (0, 0), BuildingBlock: UVAHIK_clean_linker_0, # of connection points: 2
#     Edge 23, Type (0, 0), BuildingBlock: UVAHIK_clean_linker_0, # of connection points: 2
#     Edge 24, Type (0, 0), BuildingBlock: UVAHIK_clean_linker_0, # of connection points: 2
#     Edge 25, Type (0, 0), BuildingBlock: UVAHIK_clean_linker_0, # of connection points: 2
#     Edge 26, Type (0, 0), BuildingBlock: UVAHIK_clean_linker_0, # of connection points: 2
#     Edge 27, Type (0, 0), BuildingBlock: UVAHIK_clean_linker_0, # of connection points: 2
#     Edge 28, Type (0, 0), BuildingBlock: UVAHIK_clean_linker_0, # of connection points: 2
#     Edge 29, Type (0, 0), BuildingBlock: UVAHIK_clean_linker_0, # of connection points: 2
#     Edge 30, Type (0, 0), BuildingBlock: UVAHIK_clean_linker_0, # of connection points: 2
#     Edge 31, Type (0, 0), BuildingBlock: UVAHIK_clean_linker_0, # of connection points: 2
#     Edge 32, Type (0, 0), BuildingBlock: UVAHIK_clean_linker_0, # of connection points: 2
#     Edge 33, Type (0, 0), BuildingBlock: UVAHIK_clean_linker_0, # of connection points: 2
#     Edge 34, Type (0, 0), BuildingBlock: UVAHIK_clean_linker_0, # of connection points: 2
#     Edge 35, Type (0, 0), BuildingBlock: UVAHIK_clean_linker_0, # of connection points: 2
#     Edge 36, Type (0, 0), BuildingBlock: UVAHIK_clean_linker_0, # of connection points: 2
#     Edge 37, Type (0, 0), BuildingBlock: UVAHIK_clean_linker_0, # of connection points: 2
#     Edge 38, Type (0, 0), BuildingBlock: UVAHIK_clean_linker_0, # of connection points: 2
#     Edge 39, Type (0, 0), BuildingBlock: UVAHIK_clean_linker_0, # of connection points: 2
#     Edge 40, Type (0, 0), BuildingBlock: UVAHIK_clean_linker_0, # of connection points: 2
#     Edge 41, Type (0, 0), BuildingBlock: UVAHIK_clean_linker_0, # of connection points: 2
#     Edge 42, Type (0, 0), BuildingBlock: UVAHIK_clean_linker_0, # of connection points: 2
#     Edge 43, Type (0, 0), BuildingBlock: UVAHIK_clean_linker_0, # of connection points: 2
# Relax obj value: 0.206
# Max RMSD: 0.273
# Mean RMSD: 0.267
data_MOF--net-ncb--node1-BELTOD_clean_sbu_0--edge1-UVAHIK_clean_linker_0
_symmetry_space_group_name_H-M    P1
_symmetry_Int_Tables_number       1
_symmetry_cell_setting            triclinic
loop_
_symmetry_equiv_pos_as_xyz
'x, y, z'
_cell_length_a     38.651596
_cell_length_b     38.880144
_cell_length_c     38.717294
_cell_angle_alpha  91.323083
_cell_angle_beta   89.653102
_cell_angle_gamma 90.212208
loop_
_atom_site_label
_atom_site_type_symbol
_atom_site_fract_x
_atom_site_fract_y
_atom_site_fract_z
_atom_type_partial_charge
Mn0 Mn 0.25479 0.25779 0.24671 0.0
Mn1 Mn 0.20943 0.20661 0.19589 0.0
O2 O 0.17505 0.24118 0.1727 0.0
O3 O 0.18946 0.24133 0.11727 0.0
Mn4 Mn 0.19571 0.19474 0.11859 0.0
C5 C 0.24965 0.17959 0.25312 0.0
O6 O 0.25057 0.20991 0.26858 0.0
O7 O 0.24122 0.17526 0.22141 0.0
P8 P 0.2974 0.3056 0.3071 0.0
C9 C 0.15281 0.16072 0.16708 0.0
C10 C 0.24415 0.1701 0.12909 0.0
O11 O 0.20412 0.27021 0.25282 0.0
O12 O 0.18633 0.21801 0.24202 0.0
O13 O 0.26187 0.28142 0.29408 0.0
C14 C 0.25164 0.27248 0.18985 0.0
O15 O 0.17274 0.16973 0.19168 0.0
O16 O 0.1573 0.17007 0.1358 0.0
C17 C 0.17961 0.2482 0.25211 0.0
O18 O 0.23152 0.1703 0.09819 0.0
O19 O 0.22818 0.19085 0.15008 0.0
C20 C 0.17216 0.25379 0.14247 0.0
O21 O 0.24746 0.24207 0.20158 0.0
O22 O 0.2587 0.29573 0.21375 0.0
Mn23 Mn 0.23506 0.82191 0.82441 0.0
Mn24 Mn 0.18225 0.87012 0.87593 0.0
O25 O 0.15106 0.89952 0.84352 0.0
O26 O 0.09548 0.88719 0.85482 0.0
Mn27 Mn 0.10513 0.87302 0.89888 0.0
C28 C 0.24386 0.83031 0.90226 0.0
O29 O 0.25783 0.82517 0.87188 0.0
O30 O 0.21392 0.84349 0.90712 0.0
P31 P 0.29401 0.77515 0.77703 0.0
C32 C 0.15091 0.91951 0.93194 0.0
C33 C 0.12591 0.82492 0.91512 0.0
O34 O 0.24415 0.8715 0.81314 0.0
O35 O 0.2235 0.89872 0.86 0.0
O36 O 0.2821 0.81177 0.80071 0.0
C37 C 0.1783 0.82716 0.8088 0.0
O38 O 0.17592 0.90735 0.91376 0.0
O39 O 0.1198 0.90839 0.92947 0.0
C40 C 0.24041 0.89879 0.83188 0.0
O41 O 0.09334 0.83189 0.91898 0.0
O42 O 0.14109 0.8454 0.89419 0.0
C43 C 0.11852 0.90317 0.83776 0.0
O44 O 0.19001 0.83196 0.83967 0.0
O45 O 0.20209 0.81902 0.78594 0.0
Mn46 Mn 0.80145 0.82025 0.24498 0.0
Mn47 Mn 0.846 0.86542 0.18581 0.0
O48 O 0.87443 0.83076 0.1545 0.0
O49 O 0.85678 0.83492 0.09991 0.0
Mn50 Mn 0.84302 0.87979 0.10718 0.0
C51 C 0.80946 0.89829 0.24833 0.0
O52 O 0.80531 0.86952 0.26448 0.0
O53 O 0.82102 0.89991 0.2174 0.0
P54 P 0.76021 0.77321 0.30498 0.0
C55 C 0.89434 0.91356 0.14652 0.0
C56 C 0.79681 0.90068 0.13041 0.0
O57 O 0.85173 0.80962 0.25263 0.0
O58 O 0.87828 0.85213 0.22517 0.0
O59 O 0.79269 0.80179 0.29363 0.0
C60 C 0.80455 0.79936 0.18928 0.0
O61 O 0.8823 0.9008 0.17411 0.0
O62 O 0.88103 0.90858 0.11664 0.0
C63 C 0.87904 0.82666 0.24505 0.0
O64 O 0.80151 0.90067 0.09724 0.0
O65 O 0.81789 0.88033 0.14557 0.0
C66 C 0.87697 0.82243 0.12223 0.0
O67 O 0.80927 0.83088 0.19881 0.0
O68 O 0.79758 0.77885 0.2147 0.0
Mn69 Mn 0.80613 0.24118 0.82153 0.0
Mn70 Mn 0.85686 0.18863 0.86685 0.0
O71 O 0.82334 0.15979 0.89903 0.0
O72 O 0.8328 0.10395 0.88638 0.0
Mn73 Mn 0.87811 0.11224 0.87435 0.0
C74 C 0.88432 0.24789 0.82641 0.0
O75 O 0.85434 0.26305 0.82491 0.0
O76 O 0.88846 0.2174 0.83731 0.0
P77 P 0.7569 0.29865 0.77827 0.0
C78 C 0.90977 0.16091 0.91919 0.0
C79 C 0.89763 0.13011 0.82578 0.0
O80 O 0.79389 0.24921 0.87209 0.0
O81 O 0.84358 0.23231 0.89317 0.0
O82 O 0.7844 0.28872 0.81205 0.0
C83 C 0.78957 0.18451 0.82529 0.0
O84 O 0.8942 0.18446 0.90313 0.0
O85 O 0.90575 0.12897 0.91142 0.0
C86 C 0.81383 0.24481 0.89786 0.0
O87 O 0.90198 0.09858 0.83485 0.0
O88 O 0.87422 0.14558 0.84408 0.0
C89 C 0.81619 0.12754 0.90265 0.0
O90 O 0.82053 0.19598 0.82981 0.0
O91 O 0.76713 0.20836 0.81796 0.0
Mn92 Mn 0.75396 0.7539 0.74673 0.0
Mn93 Mn 0.70518 0.70709 0.68983 0.0
O94 O 0.68684 0.7385 0.65128 0.0
O95 O 0.67988 0.70135 0.60688 0.0
Mn96 Mn 0.70155 0.66464 0.62694 0.0
C97 C 0.73634 0.67857 0.75679 0.0
O98 O 0.74886 0.70727 0.76929 0.0
O99 O 0.72081 0.67605 0.72793 0.0
P100 P 0.79674 0.80295 0.80673 0.0
C101 C 0.65751 0.64604 0.6756 0.0
C102 C 0.75394 0.66003 0.63446 0.0
O103 O 0.70439 0.76705 0.75707 0.0
O104 O 0.67368 0.7327 0.72236 0.0
O105 O 0.76229 0.77721 0.79408 0.0
C106 C 0.75168 0.76867 0.68962 0.0
O107 O 0.66165 0.67705 0.68515 0.0
O108 O 0.67446 0.63348 0.65039 0.0
C109 C 0.67551 0.75513 0.74616 0.0
O110 O 0.73946 0.64796 0.6065 0.0
O111 O 0.73493 0.67835 0.65599 0.0
C112 C 0.67623 0.7311 0.6207 0.0
O113 O 0.74603 0.73824 0.70075 0.0
O114 O 0.75835 0.79172 0.71382 0.0
Mn115 Mn 0.73689 0.32169 0.32638 0.0
Mn116 Mn 0.68866 0.37055 0.38108 0.0
O117 O 0.65612 0.40117 0.34949 0.0
O118 O 0.60191 0.39555 0.37007 0.0
Mn119 Mn 0.61908 0.38695 0.41286 0.0
C120 C 0.75007 0.32956 0.40376 0.0
O121 O 0.76264 0.32554 0.37257 0.0
O122 O 0.72013 0.34192 0.41023 0.0
P123 P 0.79536 0.27453 0.27762 0.0
C124 C 0.67266 0.42859 0.43541 0.0
C125 C 0.63397 0.33979 0.43347 0.0
O126 O 0.74439 0.37122 0.31267 0.0
O127 O 0.73101 0.39529 0.36271 0.0
O128 O 0.78286 0.31195 0.29986 0.0
C129 C 0.67888 0.32701 0.31408 0.0
O130 O 0.69203 0.40861 0.41785 0.0
O131 O 0.64009 0.42502 0.43496 0.0
C132 C 0.74151 0.39804 0.33207 0.0
O133 O 0.60658 0.35584 0.44455 0.0
O134 O 0.64625 0.35004 0.40405 0.0
C135 C 0.62301 0.40592 0.34713 0.0
O136 O 0.69192 0.3314 0.34457 0.0
O137 O 0.70158 0.31852 0.29022 0.0
Mn138 Mn 0.30159 0.31955 0.74577 0.0
Mn139 Mn 0.34621 0.36459 0.68659 0.0
O140 O 0.37368 0.32931 0.65465 0.0
O141 O 0.35741 0.33668 0.59978 0.0
Mn142 Mn 0.34374 0.38138 0.60852 0.0
C143 C 0.31069 0.39746 0.74958 0.0
O144 O 0.30615 0.36861 0.76544 0.0
O145 O 0.32187 0.39925 0.71853 0.0
P146 P 0.26073 0.27158 0.80462 0.0
C147 C 0.39418 0.41499 0.64885 0.0
C148 C 0.2975 0.40134 0.63248 0.0
O149 O 0.35183 0.30835 0.75318 0.0
O150 O 0.37805 0.35124 0.72602 0.0
O151 O 0.29246 0.30145 0.7946 0.0
C152 C 0.30411 0.29895 0.68991 0.0
O153 O 0.38256 0.39997 0.67537 0.0
O154 O 0.38116 0.41086 0.61875 0.0
C155 C 0.37897 0.32579 0.74589 0.0
O156 O 0.30218 0.40261 0.59937 0.0
O157 O 0.31825 0.38 0.64664 0.0
C158 C 0.37543 0.32136 0.62216 0.0
O159 O 0.30929 0.33033 0.69962 0.0
O160 O 0.29699 0.27838 0.71524 0.0
Mn161 Mn 0.30711 0.7427 0.32038 0.0
Mn162 Mn 0.35483 0.68899 0.36944 0.0
O163 O 0.32057 0.65746 0.39761 0.0
O164 O 0.33248 0.60279 0.38395 0.0
Mn165 Mn 0.37728 0.61363 0.37277 0.0
C166 C 0.38453 0.75091 0.3316 0.0
O167 O 0.35484 0.76481 0.3248 0.0
O168 O 0.38778 0.7214 0.34516 0.0
P169 P 0.25861 0.80088 0.27644 0.0
C170 C 0.40592 0.65867 0.42225 0.0
C171 C 0.39488 0.62883 0.32316 0.0
O172 O 0.29351 0.75254 0.36977 0.0
O173 O 0.33637 0.72888 0.39904 0.0
O174 O 0.28537 0.79017 0.31047 0.0
C175 C 0.29026 0.68624 0.32476 0.0
O176 O 0.38955 0.6832 0.40843 0.0
O177 O 0.40484 0.62768 0.41047 0.0
C178 C 0.30968 0.74749 0.39788 0.0
O179 O 0.39762 0.59734 0.33305 0.0
O180 O 0.37669 0.64843 0.34386 0.0
C181 C 0.31491 0.62503 0.40076 0.0
O182 O 0.32112 0.69751 0.33016 0.0
O183 O 0.26816 0.71002 0.31643 0.0
C184 C 0.27074 0.2525 0.13075 0.0
C185 C 0.25452 0.2779 0.15168 0.0
C186 C 0.27073 0.25424 0.09458 0.0
C187 C 0.28361 0.29237 1.02066 0.0
H188 H 0.2018 0.2615 0.97137 0.0
C189 C 0.27681 0.30013 0.87076 0.0
C190 C 0.25783 0.27512 0.85207 0.0
C191 C 0.27535 0.30199 0.90708 0.0
C192 C 0.22507 0.27 0.98445 0.0
H193 H 0.22749 0.32647 0.15059 0.0
H194 H 0.22773 0.32978 0.08682 0.0
H195 H 0.20196 0.26286 1.03464 0.0
H196 H 0.22146 0.23314 0.85716 0.0
H197 H 0.21985 0.23526 0.92026 0.0
H198 H 0.30743 0.29857 0.97113 0.0
C199 C 0.23986 0.30807 0.09885 0.0
C200 C 0.22491 0.27115 1.02089 0.0
C201 C 0.23996 0.30635 0.13533 0.0
C202 C 0.23662 0.25257 0.87075 0.0
C203 C 0.23554 0.25405 0.90713 0.0
C204 C 0.28384 0.29127 0.98429 0.0
C205 C 0.25483 0.28172 0.07809 0.0
C206 C 0.25415 0.28245 0.03941 0.0
C207 C 0.25506 0.27871 0.92612 0.0
C208 C 0.25457 0.28006 0.96534 0.0
H209 H 0.28331 0.23089 0.1425 0.0
H210 H 0.28276 0.23374 0.0794 0.0
H211 H 0.30671 0.30073 1.03421 0.0
H212 H 0.29295 0.31843 0.85748 0.0
H213 H 0.29009 0.32205 0.92014 0.0
C214 C 0.26982 0.84945 0.95816 0.0
C215 C 0.262 0.8222 0.93495 0.0
C216 C 0.27501 0.84368 0.99344 0.0
C217 C 0.28758 0.77539 0.06004 0.0
H218 H 0.25077 0.84658 0.12136 0.0
C219 C 0.27088 0.7646 0.2124 0.0
C220 C 0.27537 0.79542 0.23178 0.0
C221 C 0.27274 0.76438 0.17583 0.0
C222 C 0.26159 0.8265 0.10475 0.0
H223 H 0.25339 0.7673 0.9311 0.0
H224 H 0.263 0.75689 0.99255 0.0
H225 H 0.24731 0.85312 0.05929 0.0
H226 H 0.29325 0.84832 0.22715 0.0
H227 H 0.2964 0.84781 0.16514 0.0
H228 H 0.30113 0.74856 0.10617 0.0
C229 C 0.26593 0.78284 0.9834 0.0
C230 C 0.25973 0.83034 0.06884 0.0
C231 C 0.26083 0.7887 0.94791 0.0
C232 C 0.28713 0.82442 0.21382 0.0
C233 C 0.28898 0.82426 0.17769 0.0
C234 C 0.28925 0.77145 0.0962 0.0
C235 C 0.27198 0.81042 1.00703 0.0
C236 C 0.27325 0.8052 0.04569 0.0
C237 C 0.28003 0.79486 0.15791 0.0
C238 C 0.27684 0.79728 0.11916 0.0
H239 H 0.26974 0.87571 0.94936 0.0
H240 H 0.2803 0.86567 1.01027 0.0
H241 H 0.2983 0.75535 0.04337 0.0
H242 H 0.26311 0.74134 0.22525 0.0
H243 H 0.26648 0.74089 0.16162 0.0
C244 C 0.76922 0.8068 0.87365 0.0
C245 C 0.79691 0.79448 0.85325 0.0
C246 C 0.76886 0.80329 0.90959 0.0
C247 C 0.82596 0.77657 0.98425 0.0
H248 H 0.74013 0.78861 1.03514 0.0
C249 C 0.81758 0.76355 0.13482 0.0
C250 C 0.79966 0.7904 0.15193 0.0
C251 C 0.81587 0.75959 0.09848 0.0
C252 C 0.76441 0.78519 1.02141 0.0
H253 H 0.8448 0.76576 0.85539 0.0
H254 H 0.84294 0.75695 0.91685 0.0
H255 H 0.73964 0.78919 0.9727 0.0
H256 H 0.7642 0.83251 0.14471 0.0
H257 H 0.76099 0.82564 0.08221 0.0
H258 H 0.84988 0.77011 1.03349 0.0
C259 C 0.82235 0.7717 0.90571 0.0
C260 C 0.76432 0.78594 0.98515 0.0
C261 C 0.82326 0.77636 0.86974 0.0
C262 C 0.77863 0.81181 0.13224 0.0
C263 C 0.77656 0.80766 0.0963 0.0
C264 C 0.82576 0.77467 1.02049 0.0
C265 C 0.79545 0.78566 0.92661 0.0
C266 C 0.79523 0.78246 0.96567 0.0
C267 C 0.7956 0.78192 0.07864 0.0
C268 C 0.79518 0.77988 0.03974 0.0
H269 H 0.74807 0.82037 0.86186 0.0
H270 H 0.74781 0.81527 0.92379 0.0
H271 H 0.85063 0.77419 0.97115 0.0
H272 H 0.83415 0.74676 0.14924 0.0
H273 H 0.83076 0.73933 0.08586 0.0
C274 C 0.77604 0.27357 0.94542 0.0
C275 C 0.80364 0.25209 0.93487 0.0
C276 C 0.76854 0.27913 0.98104 0.0
C277 C 0.78085 0.23759 0.06564 0.0
H278 H 0.77523 0.32807 0.10949 0.0
C279 C 0.80921 0.25423 0.2093 0.0
C280 C 0.79024 0.27712 0.23064 0.0
C281 C 0.80585 0.254 0.17344 0.0
C282 C 0.77618 0.30258 0.09766 0.0
H283 H 0.84425 0.21914 0.95431 0.0
H284 H 0.83101 0.22832 1.01455 0.0
H285 H 0.77702 0.32231 0.04599 0.0
H286 H 0.75193 0.31752 0.23048 0.0
H287 H 0.74527 0.31672 0.1669 0.0
H288 H 0.78057 0.21758 0.11656 0.0
C289 C 0.81519 0.24118 0.99582 0.0
C290 C 0.77717 0.2993 0.06121 0.0
C291 C 0.82295 0.23616 0.96086 0.0
C292 C 0.76724 0.29981 0.2148 0.0
C293 C 0.76356 0.29939 0.17838 0.0
C294 C 0.77971 0.24083 0.10171 0.0
C295 C 0.78794 0.26264 1.00667 0.0
C296 C 0.78065 0.26674 0.04476 0.0
C297 C 0.78262 0.27605 0.15719 0.0
C298 C 0.77858 0.27337 0.11848 0.0
H299 H 0.76056 0.28625 0.92631 0.0
H300 H 0.74727 0.29581 0.9885 0.0
H301 H 0.78287 0.21205 0.05401 0.0
H302 H 0.82654 0.23575 0.22021 0.0
H303 H 0.82162 0.23616 0.15837 0.0
C304 C 0.86244 0.24419 0.2783 0.0
C305 C 0.84307 0.27479 0.28093 0.0
C306 C 0.89872 0.24482 0.27644 0.0
C307 C 0.97776 0.30054 0.28868 0.0
H308 H 1.01971 0.22915 0.23107 0.0
C309 C 0.12875 0.2901 0.26004 0.0
C310 C 0.14226 0.25645 0.25979 0.0
C311 C 0.09258 0.29575 0.26264 0.0
C312 C 1.00863 0.24917 0.24757 0.0
H313 H 0.84772 0.33029 0.2823 0.0
H314 H 0.91106 0.33149 0.27874 0.0
H315 H 0.95719 0.2323 0.23596 0.0
H316 H 0.12762 0.20261 0.26321 0.0
H317 H 0.06612 0.21238 0.26799 0.0
H318 H 0.02979 0.31732 0.3 0.0
C319 C 0.89805 0.3068 0.27924 0.0
C320 C 0.97247 0.25092 0.2505 0.0
C321 C 0.86155 0.30612 0.28135 0.0
C322 C 0.11862 0.22897 0.26316 0.0
C323 C 0.08295 0.23454 0.26558 0.0
C324 C 1.0142 0.29881 0.28566 0.0
C325 C 0.9173 0.27608 0.27623 0.0
C326 C 0.95625 0.27611 0.27171 0.0
C327 C 0.06907 0.26789 0.26477 0.0
C328 C 0.03025 0.27255 0.26566 0.0
H329 H 0.84981 0.21945 0.27613 0.0
H330 H 0.91218 0.22047 0.27467 0.0
H331 H 0.96655 0.3204 0.30524 0.0
H332 H 0.14592 0.31191 0.25705 0.0
H333 H 0.08299 0.32184 0.26185 0.0
C334 C 0.24686 0.94557 0.78774 0.0
C335 C 0.25375 0.933 0.8208 0.0
C336 C 0.25286 0.98048 0.78022 0.0
C337 C 0.30015 0.05947 0.81194 0.0
H338 H 0.2293 0.10992 0.7643 0.0
C339 C 0.28901 0.20773 0.82308 0.0
C340 C 0.27419 0.22659 0.79633 0.0
C341 C 0.29127 0.17176 0.82094 0.0
C342 C 0.24972 0.09623 0.77711 0.0
H343 H 0.27288 0.94733 0.87156 0.0
H344 H 0.28441 1.00726 0.85832 0.0
H345 H 0.22366 0.04758 0.77023 0.0
H346 H 0.25819 0.22249 0.7429 0.0
H347 H 0.26098 0.15936 0.73932 0.0
H348 H 0.326 0.10791 0.81936 0.0
C349 C 0.27443 0.99046 0.83801 0.0
C350 C 0.24644 0.06031 0.78056 0.0
C351 C 0.26787 0.95593 0.84564 0.0
C352 C 0.26691 0.20871 0.76516 0.0
C353 C 0.26871 0.17242 0.76305 0.0
C354 C 0.30346 0.09523 0.80844 0.0
C355 C 0.26646 1.00359 0.80539 0.0
C356 C 0.27132 0.04141 0.79862 0.0
C357 C 0.27969 0.15325 0.79151 0.0
C358 C 0.27801 0.11442 0.79157 0.0
H359 H 0.23513 0.92888 0.76828 0.0
H360 H 0.24646 0.98946 0.75478 0.0
H361 H 0.32025 0.04595 0.82543 0.0
H362 H 0.29743 0.22042 0.84672 0.0
H363 H 0.30055 0.15841 0.84327 0.0
C364 C 0.19413 0.77433 0.25271 0.0
C365 C 0.21264 0.78837 0.28096 0.0
C366 C 0.15779 0.77384 0.25235 0.0
C367 C 0.07684 0.78963 0.30575 0.0
H368 H 0.03753 0.80676 0.21594 0.0
C369 C 0.93038 0.82609 0.28559 0.0
C370 C 0.91418 0.81445 0.25504 0.0
C371 C 0.96597 0.82007 0.29109 0.0
C372 C 0.04775 0.80145 0.24124 0.0
H373 H 0.20625 0.81198 0.33169 0.0
H374 H 0.14285 0.81173 0.331 0.0
H375 H 0.09966 0.80097 0.22174 0.0
H376 H 0.92252 0.7867 0.20679 0.0
H377 H 0.9841 0.77639 0.2159 0.0
H378 H 1.02455 0.79082 0.32518 0.0
C379 C 0.15657 0.80035 0.30916 0.0
C380 C 0.08379 0.79802 0.24462 0.0
C381 C 0.19317 0.8003 0.30971 0.0
C382 C 0.93422 0.79595 0.2306 0.0
C383 C 0.96973 0.79032 0.2358 0.0
C384 C 0.04063 0.79319 0.30237 0.0
C385 C 0.13816 0.78813 0.27988 0.0
C386 C 0.09917 0.79179 0.27686 0.0
C387 C 0.98654 0.80282 0.26586 0.0
C388 C 0.02536 0.79898 0.26997 0.0
H389 H 0.20716 0.76518 0.22972 0.0
H390 H 0.14508 0.76309 0.2297 0.0
H391 H 0.08722 0.78464 0.33103 0.0
H392 H 0.91586 0.84102 0.30463 0.0
H393 H 0.97765 0.83036 0.31448 0.0
C394 C 0.76652 0.86511 0.78241 0.0
C395 C 0.78666 0.84915 0.80758 0.0
C396 C 0.76277 0.90138 0.78275 0.0
C397 C 0.80788 0.98039 0.81749 0.0
H398 H 0.72351 1.02911 0.79672 0.0
C399 C 0.80902 0.12698 0.80342 0.0
C400 C 0.78339 0.14671 0.82038 0.0
C401 C 0.80638 0.09117 0.80042 0.0
C402 C 0.7472 1.01585 0.80287 0.0
H403 H 0.81959 0.85927 0.85187 0.0
H404 H 0.8116 0.92061 0.85367 0.0
H405 H 0.72448 0.96578 0.7934 0.0
H406 H 0.73332 0.14408 0.84547 0.0
H407 H 0.72829 0.08075 0.83994 0.0
H408 H 0.83061 1.02984 0.82745 0.0
C409 C 0.79887 0.90588 0.83333 0.0
C410 C 0.74788 0.9795 0.80054 0.0
C411 C 0.80287 0.87024 0.83273 0.0
C412 C 0.75371 0.12962 0.83256 0.0
C413 C 0.75087 0.09336 0.82934 0.0
C414 C 0.80721 1.01638 0.81972 0.0
C415 C 0.77939 0.92235 0.80808 0.0
C416 C 0.77823 0.96117 0.80818 0.0
C417 C 0.77763 0.07357 0.81383 0.0
C418 C 0.77696 1.03481 0.81243 0.0
H419 H 0.75434 0.84973 0.76221 0.0
H420 H 0.74778 0.91303 0.76263 0.0
H421 H 0.832 0.96762 0.823 0.0
H422 H 0.83144 0.1394 0.79227 0.0
H423 H 0.8271 0.07719 0.7875 0.0
C424 C 0.85858 0.8291 0.77917 0.0
C425 C 0.84072 0.79895 0.7883 0.0
C426 C 0.89471 0.83002 0.77648 0.0
C427 C 0.97378 0.78023 0.80274 0.0
H428 H 1.02073 0.85486 0.757 0.0
C429 C 0.11969 0.80694 0.82732 0.0
C430 C 0.14026 0.82328 0.80252 0.0
C431 C 0.08379 0.80355 0.82341 0.0
C432 C 1.00847 0.83343 0.7696 0.0
H433 H 0.84737 0.74462 0.79648 0.0
H434 H 0.91054 0.74542 0.7899 0.0
H435 H 0.9591 0.8473 0.74993 0.0
H436 H 0.13914 0.84719 0.75273 0.0
H437 H 0.07661 0.83994 0.74463 0.0
H438 H 1.02351 0.76505 0.8206 0.0
C439 C 0.89664 0.76927 0.78704 0.0
C440 C 0.97243 0.82939 0.76609 0.0
C441 C 0.86012 0.76854 0.7902 0.0
C442 C 0.12402 0.83487 0.7726 0.0
C443 C 0.08789 0.83099 0.76827 0.0
C444 C 1.00994 0.7838 0.80562 0.0
C445 C 0.91482 0.80046 0.78162 0.0
C446 C 0.95411 0.80298 0.78298 0.0
C447 C 0.06695 0.81528 0.79371 0.0
C448 C 0.0281 0.81076 0.78948 0.0
H449 H 0.84511 0.85308 0.77597 0.0
H450 H 0.90668 0.85475 0.77225 0.0
H451 H 0.96133 0.75981 0.81675 0.0
H452 H 0.13158 0.79606 0.84977 0.0
H453 H 0.0694 0.7918 0.84409 0.0
C454 C 0.77187 0.95045 0.24977 0.0
C455 C 0.79971 0.93248 0.26406 0.0
C456 C 0.76766 0.98606 0.25572 0.0
C457 C 0.79576 0.06174 0.31115 0.0
H458 H 0.767 0.11396 0.23253 0.0
C459 C 0.79569 0.21334 0.31611 0.0
C460 C 0.7797 0.23149 0.28958 0.0
C461 C 0.79536 0.17695 0.31604 0.0
C462 C 0.77423 0.10027 0.25535 0.0
H463 H 0.84565 0.93873 0.29517 0.0
H464 H 0.83796 1.00073 0.30647 0.0
H465 H 0.77206 0.05213 0.22712 0.0
H466 H 0.74542 0.22525 0.24587 0.0
H467 H 0.74222 0.16317 0.2473 0.0
H468 H 0.79735 0.10945 0.33973 0.0
C469 C 0.81874 0.98706 0.2912 0.0
C470 C 0.77741 0.06422 0.25201 0.0
C471 C 0.82299 0.95128 0.2851 0.0
C472 C 0.75901 0.2124 0.26622 0.0
C473 C 0.75793 0.17619 0.26659 0.0
C474 C 0.792 0.09781 0.31472 0.0
C475 C 0.79139 1.0053 0.27595 0.0
C476 C 0.78816 0.04415 0.27984 0.0
C477 C 0.77777 0.15736 0.29021 0.0
C478 C 0.78105 0.11811 0.28692 0.0
H479 H 0.75418 0.93717 0.23238 0.0
H480 H 0.74604 0.99866 0.24372 0.0
H481 H 0.80397 0.04751 0.33334 0.0
H482 H 0.81173 0.22704 0.33472 0.0
H483 H 0.81087 0.16454 0.3352 0.0
C484 C 0.93601 0.24847 0.78826 0.0
C485 C 0.91712 0.26455 0.8152 0.0
C486 C 0.97152 0.2547 0.78385 0.0
C487 C 0.04957 0.28835 0.83224 0.0
H488 H 0.09362 0.27517 0.74272 0.0
C489 C 0.19843 0.30875 0.81016 0.0
C490 C 0.21546 0.28086 0.7936 0.0
C491 C 0.162 0.3108 0.81088 0.0
C492 C 0.0818 0.27895 0.76795 0.0
H493 H 0.92124 0.29969 0.85904 0.0
H494 H 0.98283 0.31243 0.85036 0.0
H495 H 0.03087 0.2727 0.74745 0.0
H496 H 0.20573 0.23408 0.76334 0.0
H497 H 0.1437 0.23892 0.76263 0.0
H498 H 0.10099 0.29521 0.85235 0.0
C499 C 0.97031 0.29455 0.83258 0.0
C500 C 0.04555 0.27727 0.77082 0.0
C501 C 0.93462 0.28803 0.8371 0.0
C502 C 0.19474 0.25644 0.7758 0.0
C503 C 0.1585 0.259 0.77567 0.0
C504 C 0.08588 0.29063 0.82922 0.0
C505 C 0.98968 0.27735 0.80631 0.0
C506 C 0.02862 0.2815 0.80307 0.0
C507 C 0.14146 0.28553 0.79415 0.0
C508 C 0.10258 0.28562 0.79707 0.0
H509 H 0.92372 0.22907 0.77189 0.0
H510 H 0.98497 0.24006 0.76387 0.0
H511 H 0.03815 0.29105 0.85773 0.0
H512 H 0.21322 0.32783 0.82463 0.0
H513 H 0.14987 0.33182 0.82516 0.0
C514 C 0.28353 0.86707 0.29636 0.0
C515 C 0.25595 0.84808 0.28181 0.0
C516 C 0.28354 0.90333 0.29682 0.0
C517 C 0.23798 0.97906 0.25684 0.0
H518 H 0.28836 1.03184 0.32638 0.0
C519 C 0.2208 0.12632 0.27251 0.0
C520 C 0.2511 0.14658 0.27197 0.0
C521 C 0.2222 0.09062 0.27693 0.0
C522 C 0.27427 1.01749 0.30668 0.0
H523 H 0.20703 0.85308 0.25541 0.0
H524 H 0.20561 0.91541 0.25841 0.0
H525 H 0.28826 0.96905 0.32781 0.0
H526 H 0.30679 0.14461 0.27633 0.0
H527 H 0.30919 0.08228 0.28626 0.0
H528 H 0.22313 1.02775 0.23655 0.0
C529 C 0.22795 0.90272 0.26886 0.0
C530 C 0.27431 0.98121 0.30729 0.0
C531 C 0.22833 0.86654 0.26778 0.0
C532 C 0.28284 0.13018 0.27804 0.0
C533 C 0.28422 0.0943 0.28316 0.0
C534 C 0.2374 1.01523 0.25669 0.0
C535 C 0.25579 0.92203 0.28292 0.0
C536 C 0.25605 0.96114 0.28242 0.0
C537 C 0.25399 0.07383 0.28134 0.0
C538 C 0.25541 0.03507 0.28165 0.0
H539 H 0.30581 0.85392 0.30642 0.0
H540 H 0.30597 0.91655 0.30723 0.0
H541 H 0.22444 0.9653 0.23641 0.0
H542 H 0.19604 0.1378 0.26674 0.0
H543 H 0.19837 0.07591 0.2756 0.0
C544 C 0.76709 0.74238 0.37073 0.0
C545 C 0.76668 0.77295 0.35197 0.0
C546 C 0.76692 0.74333 0.40709 0.0
C547 C 0.77407 0.80443 0.48512 0.0
H548 H 0.73351 0.72707 0.53217 0.0
C549 C 0.7429 0.80333 0.63489 0.0
C550 C 0.7551 0.77401 0.65155 0.0
C551 C 0.74366 0.80488 0.59839 0.0
C552 C 0.74486 0.74896 0.51944 0.0
H553 H 0.76618 0.82841 0.35708 0.0
H554 H 0.76409 0.83028 0.41979 0.0
H555 H 0.73677 0.72611 0.46941 0.0
H556 H 0.78047 0.72512 0.643 0.0
H557 H 0.77984 0.72672 0.58019 0.0
H558 H 0.78083 0.82755 0.53569 0.0
C559 C 0.76587 0.80536 0.40695 0.0
C560 C 0.74719 0.7483 0.48317 0.0
C561 C 0.76704 0.80438 0.37066 0.0
C562 C 0.76918 0.74718 0.63097 0.0
C563 C 0.76917 0.74828 0.59488 0.0
C564 C 0.77098 0.80538 0.52139 0.0
C565 C 0.76532 0.77483 0.42604 0.0
C566 C 0.76229 0.77584 0.46516 0.0
C567 C 0.75624 0.77699 0.57792 0.0
C568 C 0.75675 0.77748 0.53911 0.0
H569 H 0.76686 0.71753 0.35767 0.0
H570 H 0.76771 0.71909 0.42019 0.0
H571 H 0.78647 0.82604 0.47298 0.0
H572 H 0.73194 0.82449 0.64991 0.0
H573 H 0.73362 0.82749 0.58614 0.0
C574 C 0.79934 0.29697 0.71825 0.0
C575 C 0.76777 0.28637 0.73309 0.0
C576 C 0.80372 0.29813 0.68193 0.0
C577 C 0.76123 0.27052 0.59716 0.0
H578 H 0.81476 0.34542 0.55968 0.0
C579 C 0.76943 0.28769 0.44808 0.0
C580 C 0.76971 0.32138 0.43564 0.0
C581 C 0.77465 0.28141 0.48347 0.0
C582 C 0.79942 0.32439 0.56945 0.0
H583 H 0.71605 0.26903 0.71938 0.0
H584 H 0.72379 0.26973 0.65822 0.0
H585 H 0.81272 0.33766 0.62189 0.0
H586 H 0.77591 0.37481 0.45111 0.0
H587 H 0.78535 0.36424 0.512 0.0
H588 H 0.74632 0.2583 0.54512 0.0
C589 C 0.74577 0.2766 0.67417 0.0
C590 C 0.7987 0.31959 0.6055 0.0
C591 C 0.74139 0.27576 0.71016 0.0
C592 C 0.77694 0.3484 0.45941 0.0
C593 C 0.78201 0.34223 0.49471 0.0
C594 C 0.76171 0.27548 0.56122 0.0
C595 C 0.77665 0.28862 0.65912 0.0
C596 C 0.7794 0.29264 0.62019 0.0
C597 C 0.77984 0.30868 0.50778 0.0
C598 C 0.78074 0.30256 0.54648 0.0
H599 H 0.81993 0.30654 0.73474 0.0
H600 H 0.82814 0.30731 0.67182 0.0
H601 H 0.74632 0.24913 0.60681 0.0
H602 H 0.76258 0.26635 0.43094 0.0
H603 H 0.77335 0.25508 0.49185 0.0
C604 C 0.26737 0.30171 0.3727 0.0
C605 C 0.29801 0.29671 0.35345 0.0
C606 C 0.26697 0.29872 0.40874 0.0
C607 C 0.30951 0.25975 0.48259 0.0
H608 H 0.27556 0.33856 0.53509 0.0
C609 C 0.31761 0.26541 0.63423 0.0
C610 C 0.2985 0.29053 0.65257 0.0
C611 C 0.31634 0.26336 0.59774 0.0
C612 C 0.28425 0.3156 0.52146 0.0
H613 H 0.3527 0.28505 0.35814 0.0
H614 H 0.35137 0.27763 0.42046 0.0
H615 H 0.27482 0.33909 0.47276 0.0
H616 H 0.26052 0.33069 0.64746 0.0
H617 H 0.2558 0.32546 0.58555 0.0
H618 H 0.31755 0.2353 0.53071 0.0
C619 C 0.32761 0.28401 0.4074 0.0
C620 C 0.28419 0.31629 0.48524 0.0
C621 C 0.32824 0.28798 0.37135 0.0
C622 C 0.27609 0.31145 0.634 0.0
C623 C 0.27397 0.30879 0.59796 0.0
C624 C 0.3086 0.25854 0.51893 0.0
C625 C 0.29709 0.28988 0.42663 0.0
C626 C 0.29691 0.28849 0.46528 0.0
C627 C 0.2952 0.28581 0.57867 0.0
C628 C 0.2959 0.28647 0.53933 0.0
H629 H 0.24376 0.309 0.35989 0.0
H630 H 0.24303 0.30347 0.42271 0.0
H631 H 0.31944 0.23783 0.46793 0.0
H632 H 0.33533 0.24906 0.6478 0.0
H633 H 0.3334 0.24524 0.58478 0.0
C634 C 0.30605 0.78853 0.44911 0.0
C635 C 0.29499 0.75819 0.43203 0.0
C636 C 0.30003 0.79365 0.48483 0.0
C637 C 0.28506 0.74162 0.56354 0.0
H638 H 0.27298 0.8302 0.61002 0.0
C639 C 0.30916 0.75606 0.7089 0.0
C640 C 0.28912 0.77833 0.72998 0.0
C641 C 0.30668 0.756 0.673 0.0
C642 C 0.27595 0.80518 0.59753 0.0
H643 H 0.26881 0.7096 0.43892 0.0
H644 H 0.25751 0.71858 0.50048 0.0
H645 H 0.27289 0.82622 0.54672 0.0
H646 H 0.24998 0.81786 0.72933 0.0
H647 H 0.24479 0.81738 0.66564 0.0
H648 H 0.28751 0.72031 0.61378 0.0
C649 C 0.27094 0.73862 0.48673 0.0
C650 C 0.27633 0.80292 0.56107 0.0
C651 C 0.27683 0.73365 0.45116 0.0
C652 C 0.26596 0.80058 0.71387 0.0
C653 C 0.26319 0.80034 0.67736 0.0
C654 C 0.28453 0.74385 0.59971 0.0
C655 C 0.28335 0.76822 0.50449 0.0
C656 C 0.28117 0.77108 0.54343 0.0
C657 C 0.28337 0.77769 0.65637 0.0
C658 C 0.2806 0.77569 0.61748 0.0
H659 H 0.32105 0.8074 0.43527 0.0
H660 H 0.3103 0.81664 0.49734 0.0
H661 H 0.28942 0.71664 0.55139 0.0
H662 H 0.32701 0.73824 0.72036 0.0
H663 H 0.3234 0.73879 0.65827 0.0
C664 C 0.36075 0.79749 0.75685 0.0
C665 C 0.3417 0.7774 0.7802 0.0
C666 C 0.39706 0.79789 0.75679 0.0
C667 C 0.47375 0.75245 0.79641 0.0
H668 H 0.52491 0.82209 0.74759 0.0
C669 C 0.62057 0.73626 0.77261 0.0
C670 C 0.64166 0.76383 0.76259 0.0
C671 C 0.58505 0.74041 0.77809 0.0
C672 C 0.5115 0.80263 0.76206 0.0
H673 H 0.34742 0.7476 0.82639 0.0
H674 H 0.4095 0.74975 0.82788 0.0
H675 H 0.46287 0.82614 0.75211 0.0
H676 H 0.64177 0.81799 0.75134 0.0
H677 H 0.58012 0.82638 0.76376 0.0
H678 H 0.52217 0.73064 0.80917 0.0
C679 C 0.39675 0.76243 0.80694 0.0
C680 C 0.47515 0.80451 0.76399 0.0
C681 C 0.36037 0.76115 0.8062 0.0
C682 C 0.62647 0.79642 0.76004 0.0
C683 C 0.59067 0.80087 0.7663 0.0
C684 C 0.51001 0.75128 0.79559 0.0
C685 C 0.41604 0.77992 0.78157 0.0
C686 C 0.45535 0.77914 0.7808 0.0
C687 C 0.56895 0.77265 0.77451 0.0
C688 C 0.52985 0.7759 0.77778 0.0
H689 H 0.34771 0.81249 0.7377 0.0
H690 H 0.40991 0.81196 0.73665 0.0
H691 H 0.46037 0.73174 0.80909 0.0
H692 H 0.63129 0.71059 0.7739 0.0
H693 H 0.57029 0.71745 0.78327 0.0
C694 C 0.79697 0.71191 0.2873 0.0
C695 C 0.76449 0.72814 0.2902 0.0
C696 C 0.79946 0.67556 0.2854 0.0
C697 C 0.76065 0.60311 0.32351 0.0
H698 H 0.78338 0.54017 0.24767 0.0
C699 C 0.72704 0.46044 0.33531 0.0
C700 C 0.74752 0.43419 0.32017 0.0
C701 C 0.73226 0.49505 0.32787 0.0
C702 C 0.77746 0.55725 0.26936 0.0
H703 H 0.70926 0.71806 0.29293 0.0
H704 H 0.71374 0.6559 0.28982 0.0
H705 H 0.78836 0.60279 0.24007 0.0
H706 H 0.78975 0.42462 0.28433 0.0
H707 H 0.8002 0.48598 0.27223 0.0
H708 H 0.75042 0.55875 0.35332 0.0
C709 C 0.73723 0.67109 0.28827 0.0
C710 C 0.78028 0.59322 0.2649 0.0
C711 C 0.73475 0.70705 0.28977 0.0
C712 C 0.77336 0.44398 0.29646 0.0
C713 C 0.77926 0.47929 0.28953 0.0
C714 C 0.75835 0.56751 0.32814 0.0
C715 C 0.76953 0.65475 0.28693 0.0
C716 C 0.77118 0.61657 0.2918 0.0
C717 C 0.75913 0.50555 0.30576 0.0
C718 C 0.76563 0.54372 0.30093 0.0
H719 H 0.82042 0.72719 0.28853 0.0
H720 H 0.82478 0.66375 0.28481 0.0
H721 H 0.75367 0.62033 0.34482 0.0
H722 H 0.70663 0.45423 0.35345 0.0
H723 H 0.71497 0.51367 0.3399 0.0
C724 C 0.69289 0.26137 0.78018 0.0
C725 C 0.71072 0.292 0.78898 0.0
C726 C 0.65627 0.26053 0.77939 0.0
C727 C 0.58348 0.32295 0.77123 0.0
H728 H 0.52277 0.24618 0.79046 0.0
C729 C 0.43595 0.34292 0.77146 0.0
C730 C 0.41391 0.31657 0.75923 0.0
C731 C 0.4711 0.33678 0.77758 0.0
C732 C 0.53928 0.26785 0.78462 0.0
H733 H 0.70324 0.34304 0.81182 0.0
H734 H 0.64087 0.34141 0.81107 0.0
H735 H 0.58548 0.24017 0.79762 0.0
H736 H 0.41191 0.26278 0.74384 0.0
H737 H 0.47362 0.25196 0.75385 0.0
H738 H 0.53813 0.3505 0.75743 0.0
C739 C 0.65476 0.31881 0.8019 0.0
C740 C 0.57542 0.26437 0.78881 0.0
C741 C 0.69099 0.31967 0.80239 0.0
C742 C 0.42794 0.28346 0.75411 0.0
C743 C 0.4635 0.27736 0.75971 0.0
C744 C 0.54767 0.32634 0.76686 0.0
C745 C 0.63669 0.29001 0.78857 0.0
C746 C 0.59809 0.29216 0.78284 0.0
C747 C 0.48594 0.30418 0.7708 0.0
C748 C 0.52467 0.29918 0.77411 0.0
H749 H 0.70716 0.23892 0.77128 0.0
H750 H 0.64348 0.23745 0.76978 0.0
H751 H 0.59986 0.34467 0.76513 0.0
H752 H 0.42611 0.36879 0.77542 0.0
H753 H 0.48677 0.35803 0.78711 0.0
C754 C 0.30819 0.62863 0.30154 0.0
C755 C 0.28393 0.64848 0.32038 0.0
C756 C 0.30497 0.59279 0.29845 0.0
C757 C 0.2663 0.51726 0.34075 0.0
H758 H 0.29078 0.46967 0.25488 0.0
C759 C 0.30232 0.37305 0.33382 0.0
C760 C 0.2878 0.35178 0.30774 0.0
C761 C 0.29782 0.40872 0.33409 0.0
C762 C 0.28357 0.48252 0.27897 0.0
H763 H 0.23671 0.64606 0.35045 0.0
H764 H 0.23098 0.58293 0.34539 0.0
H765 H 0.29004 0.53268 0.2577 0.0
H766 H 0.25893 0.35202 0.2601 0.0
H767 H 0.25153 0.41509 0.26006 0.0
H768 H 0.26088 0.4671 0.36227 0.0
C769 C 0.25269 0.59532 0.33293 0.0
C770 C 0.28343 0.51873 0.28072 0.0
C771 C 0.25573 0.63152 0.33562 0.0
C772 C 0.2696 0.36751 0.28105 0.0
C773 C 0.26561 0.40364 0.28095 0.0
C774 C 0.26706 0.48111 0.33916 0.0
C775 C 0.27734 0.5754 0.31426 0.0
C776 C 0.27512 0.53672 0.31176 0.0
C777 C 0.27947 0.42469 0.30773 0.0
C778 C 0.27596 0.46318 0.30834 0.0
H779 H 0.32994 0.64097 0.28906 0.0
H780 H 0.32475 0.57862 0.28428 0.0
H781 H 0.25975 0.52993 0.36505 0.0
H782 H 0.31792 0.36227 0.35396 0.0
H783 H 0.30964 0.42401 0.35461 0.0
C784 C 0.35902 0.33023 0.27772 0.0
C785 C 0.34116 0.30064 0.28846 0.0
C786 C 0.39525 0.33118 0.2756 0.0
C787 C 0.47344 0.28485 0.30884 0.0
H788 H 0.52234 0.35386 0.25669 0.0
C789 C 0.61866 0.31434 0.33537 0.0
C790 C 0.64046 0.3253 0.30856 0.0
C791 C 0.58271 0.31147 0.33103 0.0
C792 C 0.50946 0.33407 0.27123 0.0
H793 H 0.34798 0.24723 0.3009 0.0
H794 H 0.41127 0.24801 0.29537 0.0
H795 H 0.46069 0.34567 0.24849 0.0
H796 H 0.6411 0.34084 0.25532 0.0
H797 H 0.57849 0.33491 0.24701 0.0
H798 H 0.5225 0.27218 0.3304 0.0
C799 C 0.39725 0.27138 0.29037 0.0
C800 C 0.4735 0.32965 0.26692 0.0
C801 C 0.36068 0.27058 0.29275 0.0
C802 C 0.62514 0.33271 0.27673 0.0
C803 C 0.58899 0.32953 0.27215 0.0
C804 C 0.50946 0.28893 0.31279 0.0
C805 C 0.41537 0.30224 0.2833 0.0
C806 C 0.45457 0.30516 0.28587 0.0
C807 C 0.567 0.31859 0.2992 0.0
C808 C 0.52826 0.31384 0.29431 0.0
H809 H 0.3454 0.35389 0.27313 0.0
H810 H 0.40731 0.35557 0.26996 0.0
H811 H 0.4604 0.26607 0.32453 0.0
H812 H 0.62959 0.30679 0.35962 0.0
H813 H 0.56735 0.30349 0.3529 0.0
C814 C 0.27124 0.44792 0.75706 0.0
C815 C 0.30215 0.43156 0.76608 0.0
C816 C 0.2666 0.4835 0.76294 0.0
C817 C 0.30561 0.56315 0.80675 0.0
H818 H 0.24717 0.60847 0.74139 0.0
C819 C 0.28791 0.71352 0.81645 0.0
C820 C 0.27838 0.73113 0.78663 0.0
C821 C 0.28752 0.67704 0.81703 0.0
C822 C 0.26411 0.59719 0.76 0.0
H823 H 0.35301 0.44048 0.78743 0.0
H824 H 0.34513 0.50228 0.79812 0.0
H825 H 0.25597 0.54783 0.7359 0.0
H826 H 0.25297 0.72316 0.73723 0.0
H827 H 0.25412 0.66222 0.73688 0.0
H828 H 0.31589 0.61279 0.82936 0.0
C829 C 0.32372 0.48761 0.78743 0.0
C830 C 0.26857 0.56133 0.75713 0.0
C831 C 0.32824 0.45187 0.78161 0.0
C832 C 0.26325 0.7112 0.75986 0.0
C833 C 0.26345 0.67512 0.75996 0.0
C834 C 0.30176 0.5993 0.80922 0.0
C835 C 0.29306 0.50439 0.77745 0.0
C836 C 0.28905 0.54332 0.78063 0.0
C837 C 0.27707 0.65678 0.78787 0.0
C838 C 0.28069 0.61742 0.786 0.0
H839 H 0.25115 0.43344 0.74373 0.0
H840 H 0.2423 0.49463 0.75529 0.0
H841 H 0.32154 0.55079 0.82568 0.0
H842 H 0.29668 0.72772 0.83907 0.0
H843 H 0.2961 0.66506 0.84035 0.0
C844 C 0.69277 0.78624 0.32998 0.0
C845 C 0.7145 0.78607 0.30051 0.0
C846 C 0.65683 0.78684 0.32731 0.0
C847 C 0.58023 0.80564 0.27644 0.0
H848 H 0.53915 0.73571 0.33378 0.0
C849 C 0.42922 0.77645 0.29117 0.0
C850 C 0.41827 0.76847 0.32483 0.0
C851 C 0.46472 0.78193 0.28375 0.0
C852 C 0.55 0.7556 0.31779 0.0
H853 H 0.71396 0.78711 0.24467 0.0
H854 H 0.65008 0.78894 0.23998 0.0
H855 H 0.60167 0.73875 0.32723 0.0
H856 H 0.43594 0.76174 0.37718 0.0
H857 H 0.49676 0.77195 0.36465 0.0
H858 H 0.52799 0.82276 0.26767 0.0
C859 C 0.66176 0.78882 0.26532 0.0
C860 C 0.586 0.75722 0.31386 0.0
C861 C 0.69839 0.78808 0.26801 0.0
C862 C 0.44331 0.76827 0.35107 0.0
C863 C 0.4784 0.77357 0.34372 0.0
C864 C 0.54382 0.804 0.28039 0.0
C865 C 0.64056 0.787 0.2951 0.0
C866 C 0.60184 0.78282 0.29398 0.0
C867 C 0.48996 0.77915 0.30976 0.0
C868 C 0.52827 0.77955 0.30203 0.0
H869 H 0.70272 0.78389 0.35571 0.0
H870 H 0.64156 0.78589 0.35084 0.0
H871 H 0.59149 0.8257 0.26096 0.0
H872 H 0.41082 0.77589 0.27018 0.0
H873 H 0.47257 0.78619 0.2573 0.0
C874 C 0.77384 0.36562 0.80388 0.0
C875 C 0.76023 0.34589 0.77619 0.0
C876 C 0.77285 0.40185 0.80393 0.0
C877 C 0.72838 0.47569 0.76056 0.0
H878 H 0.79735 0.53046 0.80913 0.0
C879 C 0.71119 0.62316 0.77633 0.0
C880 C 0.74047 0.6447 0.77381 0.0
C881 C 0.71443 0.58741 0.77953 0.0
C882 C 0.77791 0.51576 0.79515 0.0
H883 H 0.73414 0.34943 0.72707 0.0
H884 H 0.73397 0.41194 0.72614 0.0
H885 H 0.80252 0.46804 0.80662 0.0
H886 H 0.79636 0.64484 0.7731 0.0
H887 H 0.80232 0.58255 0.77925 0.0
H888 H 0.70455 0.52332 0.74783 0.0
C889 C 0.74502 0.39974 0.74833 0.0
C890 C 0.78062 0.47957 0.79409 0.0
C891 C 0.74568 0.36356 0.7485 0.0
C892 C 0.77325 0.62939 0.77636 0.0
C893 C 0.77657 0.59338 0.77941 0.0
C894 C 0.72583 0.5118 0.76139 0.0
C895 C 0.7582 0.41973 0.77625 0.0
C896 C 0.75582 0.45873 0.77688 0.0
C897 C 0.74719 0.57156 0.77986 0.0
C898 C 0.75036 0.53264 0.77895 0.0
H899 H 0.78445 0.35315 0.82613 0.0
H900 H 0.7827 0.41573 0.82634 0.0
H901 H 0.7083 0.46114 0.74738 0.0
H902 H 0.68551 0.63381 0.77345 0.0
H903 H 0.69101 0.57211 0.7806 0.0
C904 C 0.24236 0.11546 0.15922 0.0
C905 C 0.26157 0.13841 0.13914 0.0
C906 C 0.23958 0.08092 0.14859 0.0
C907 C 0.25953 1.02297 0.07114 0.0
H908 H 0.15936 1.01638 0.06969 0.0
C909 C 0.18771 0.96782 0.95332 0.0
C910 C 0.16024 0.94489 0.95915 0.0
C911 C 0.2021 0.98683 0.98066 0.0
C912 C 0.18736 1.01745 0.07005 0.0
H913 H 0.30068 0.14189 0.09936 0.0
H914 H 0.29546 0.08277 0.08015 0.0
H915 H 0.18722 0.05146 0.11383 0.0
H916 H 0.12526 0.9248 0.99769 0.0
H917 H 0.15044 0.95817 0.04578 0.0
H918 H 0.25906 0.99036 1.02581 0.0
C919 C 0.28155 0.09057 0.10335 0.0
C920 C 0.20358 0.03735 0.09574 0.0
C921 C 0.28497 0.12474 0.11469 0.0
C922 C 0.1461 0.9427 0.99249 0.0
C923 C 0.1607 0.96159 1.01999 0.0
C924 C 0.24322 1.00334 0.04521 0.0
C925 C 0.2558 0.06944 0.11775 0.0
C926 C 0.23989 0.04135 0.09607 0.0
C927 C 0.18953 0.98307 1.0145 0.0
C928 C 0.20691 1.00119 0.04384 0.0
H929 H 0.22461 0.12494 0.17889 0.0
H930 H 0.22111 0.06469 0.16172 0.0
H931 H 0.28748 1.02479 0.07076 0.0
H932 H 0.19892 0.97011 0.92774 0.0
H933 H 0.22356 1.00396 0.97539 0.0
C934 C 0.94027 0.8108 0.13052 0.0
C935 C 0.91074 0.80886 0.10933 0.0
C936 C 0.97353 0.80636 0.11654 0.0
C937 C 1.01926 0.77344 0.03768 0.0
H938 H 0.09398 0.83302 0.0687 0.0
C939 C 0.13397 0.77642 0.95248 0.0
C940 C 0.14292 0.8104 0.94524 0.0
C941 C 0.11818 0.76905 0.98409 0.0
C942 C 0.07357 0.81608 0.05956 0.0
H943 H 0.89382 0.80147 0.05649 0.0
H944 H 0.95109 0.79321 1.03226 0.0
H945 H 0.03785 0.8362 0.09752 0.0
H946 H 0.15517 0.85965 0.96909 0.0
H947 H 0.12469 0.84871 1.02219 0.0
H948 H 0.05279 0.75533 0.99804 0.0
C949 C 0.94867 0.7972 0.05994 0.0
C950 C 0.04131 0.81768 0.07648 0.0
C951 C 0.91553 0.8016 0.07391 0.0
C952 C 0.14609 0.83374 0.97332 0.0
C953 C 0.12809 0.82742 1.00405 0.0
C954 C 0.05102 0.77223 1.02052 0.0
C955 C 0.97822 0.7999 0.08095 0.0
C956 C 1.01354 0.79672 0.0653 0.0
C957 C 0.11037 0.79596 1.00798 0.0
C958 C 0.07879 0.79376 1.03073 0.0
H959 H 0.938 0.81796 0.15757 0.0
H960 H 0.99558 0.8086 0.13358 0.0
H961 H 0.99882 0.75645 1.02863 0.0
H962 H 0.13319 0.75713 0.93186 0.0
H963 H 0.1081 0.74336 0.98755 0.0
C964 C 0.80992 0.95929 0.14915 0.0
C965 C 0.78458 0.93345 0.14574 0.0
C966 C 0.80477 0.99135 0.13423 0.0
C967 C 0.74875 1.01941 0.06197 0.0
H968 H 0.81599 0.09325 0.05791 0.0
C969 C 0.78383 0.08214 0.9339 0.0
C970 C 0.79632 0.11611 0.9333 0.0
C971 C 0.7758 0.06665 0.96517 0.0
C972 C 0.79649 0.07323 0.05887 0.0
H973 H 0.73049 0.9244 0.13543 0.0
H974 H 0.71944 0.98188 0.11489 0.0
H975 H 0.81204 0.05882 0.1095 0.0
H976 H 0.80794 0.16114 0.96522 0.0
H977 H 0.79241 0.1346 1.01983 0.0
H978 H 0.73269 1.03419 1.01187 0.0
C979 C 0.74511 0.97616 0.12409 0.0
C980 C 0.79451 0.05299 0.08848 0.0
C981 C 0.75097 0.94344 0.13723 0.0
C982 C 0.79786 0.13512 0.96464 0.0
C983 C 0.78968 0.1196 0.99609 0.0
C984 C 0.7503 0.03993 1.03289 0.0
C985 C 0.77309 0.99879 0.11818 0.0
C986 C 0.77119 1.02502 0.09018 0.0
C987 C 0.77958 0.08476 0.99689 0.0
C988 C 0.77489 0.06644 1.03028 0.0
H989 H 0.83583 0.95278 0.15698 0.0
H990 H 0.82699 1.00813 0.13181 0.0
H991 H 0.73089 0.99796 0.06113 0.0
H992 H 0.78268 0.06662 0.91031 0.0
H993 H 0.76864 0.0397 0.96441 0.0
C994 C 0.13716 0.28377 0.09971 0.0
C995 C 0.13919 0.26988 0.13275 0.0
C996 C 0.10739 0.27894 0.08006 0.0
C997 C 0.03373 0.2161 0.0782 0.0
H998 H 1.02078 0.2564 0.98879 0.0
C999 C 0.95288 0.15037 0.96718 0.0
C1000 C 0.93388 0.17289 0.9467 0.0
C1001 C 0.97599 0.16356 0.99221 0.0
C1002 C 1.02351 0.24498 1.01387 0.0
H1003 H 0.10884 0.24896 0.17471 0.0
H1004 H 0.05572 0.24381 0.14172 0.0
H1005 H 0.05738 0.28509 1.03035 0.0
H1006 H 0.92362 0.22704 0.93764 0.0
H1007 H 0.96212 0.24918 0.98079 0.0
H1008 H 0.99747 0.17716 0.06187 0.0
C1009 C 0.07818 0.25498 0.12942 0.0
C1010 C 0.04523 0.26126 0.03776 0.0
C1011 C 0.10846 0.25894 0.14881 0.0
C1012 C 0.9379 0.20857 0.95243 0.0
C1013 C 0.96047 0.22152 0.9772 0.0
C1014 C 1.01099 0.20036 0.05455 0.0
C1015 C 0.07836 0.26176 0.09378 0.0
C1016 C 0.05123 0.24693 0.07021 0.0
C1017 C 0.98038 0.19941 0.99704 0.0
C1018 C 1.00563 0.21462 1.02205 0.0
H1019 H 0.16028 0.29318 0.08699 0.0
H1020 H 0.10907 0.28537 0.0531 0.0
H1021 H 0.03807 0.20341 0.10235 0.0
H1022 H 0.95016 0.12278 0.96368 0.0
H1023 H 0.99088 0.14574 1.00718 0.0
C1024 C 0.93048 0.96412 0.13189 0.0
C1025 C 0.92557 0.93421 0.15064 0.0
C1026 C 0.95834 0.98561 0.13969 0.0
C1027 C 1.00984 1.01787 0.20748 0.0
H1028 H 0.07193 0.0452 0.13391 0.0
C1029 C 0.1272 0.1156 0.20391 0.0
C1030 C 0.12411 0.13782 0.17585 0.0
C1031 C 0.10191 0.09084 0.2099 0.0
C1032 C 0.05477 0.03764 0.15466 0.0
H1033 H 0.94628 0.90177 0.19054 0.0
H1034 H 0.99507 0.93979 0.20412 0.0
H1035 H 0.03275 0.99676 0.12429 0.0
H1036 H 0.09024 0.15537 0.13555 0.0
H1037 H 0.04591 0.11174 0.14597 0.0
H1038 H 0.03121 0.06011 0.2373 0.0
C1039 C 0.97717 0.94671 0.18401 0.0
C1040 C 0.03272 1.01 0.14923 0.0
C1041 C 0.94947 0.92518 0.17615 0.0
C1042 C 0.09374 0.13759 0.15638 0.0
C1043 C 0.0683 0.11315 0.16268 0.0
C1044 C 0.03203 0.04588 0.21292 0.0
C1045 C 0.98135 0.97719 0.16612 0.0
C1046 C 1.00925 1.00094 0.17502 0.0
C1047 C 0.07332 0.08848 0.18807 0.0
C1048 C 0.05337 0.05664 0.18582 0.0
H1049 H 0.9121 0.97155 0.11243 0.0
H1050 H 0.96139 1.00935 0.12584 0.0
H1051 H 0.99175 1.01083 0.22763 0.0
H1052 H 0.15018 0.11584 0.21981 0.0
H1053 H 0.10605 0.07192 0.22957 0.0
C1054 C 0.12734 0.96352 0.81808 0.0
C1055 C 0.10669 0.93359 0.81872 0.0
C1056 C 0.11278 0.99539 0.81026 0.0
C1057 C 0.03393 0.03493 0.77333 0.0
H1058 H 0.05594 0.11264 0.83377 0.0
C1059 C 0.93744 0.13877 0.77759 0.0
C1060 C 0.92844 0.14726 0.81177 0.0
C1061 C 0.97085 0.127 0.76984 0.0
C1062 C 0.04931 0.09135 0.81656 0.0
H1063 H 0.05521 0.91339 0.80933 0.0
H1064 H 0.03 0.96839 0.79554 0.0
H1065 H 0.08896 0.05963 0.83762 0.0
H1066 H 0.94958 0.1608 0.86178 0.0
H1067 H 1.00595 0.13733 0.84996 0.0
H1068 H 0.99258 0.06426 0.75433 0.0
C1069 C 0.05743 0.96755 0.80095 0.0
C1070 C 0.06868 0.06093 0.81852 0.0
C1071 C 0.0719 0.93584 0.80881 0.0
C1072 C 0.95537 0.15266 0.83554 0.0
C1073 C 0.9881 0.13875 0.82865 0.0
C1074 C 1.01433 0.06484 0.77174 0.0
C1075 C 0.07739 0.99794 0.80248 0.0
C1076 C 0.06052 1.03198 0.79753 0.0
C1077 C 0.99485 0.12203 0.79664 0.0
C1078 C 1.02095 0.09345 0.79385 0.0
H1079 H 0.15414 0.96285 0.82606 0.0
H1080 H 0.12902 1.01814 0.81127 0.0
H1081 H 0.02727 1.01349 0.75626 0.0
H1082 H 0.91752 0.13579 0.75818 0.0
H1083 H 0.97604 0.11755 0.74383 0.0
C1084 C 0.72634 0.4548 0.45987 0.0
C1085 C 0.68992 0.45481 0.45784 0.0
C1086 C 0.74357 0.477 0.48263 0.0
C1087 C 0.742 0.55804 0.52732 0.0
H1088 H 0.7985 0.51577 0.59729 0.0
C1089 C 0.81095 0.64607 0.61588 0.0
C1090 C 0.78732 0.645 0.64352 0.0
C1091 C 0.81375 0.61692 0.59409 0.0
C1092 C 0.78331 0.52781 0.57754 0.0
H1093 H 0.64328 0.47973 0.47698 0.0
H1094 H 0.67399 0.51967 0.51659 0.0
H1095 H 0.76677 0.47945 0.55529 0.0
H1096 H 0.7678 0.61115 0.68257 0.0
H1097 H 0.77326 0.55957 0.64607 0.0
H1098 H 0.75845 0.60632 0.54913 0.0
C1099 C 0.68876 0.50166 0.50069 0.0
C1100 C 0.76499 0.50718 0.55379 0.0
C1101 C 0.67125 0.47887 0.47814 0.0
C1102 C 0.78257 0.61285 0.65877 0.0
C1103 C 0.78518 0.5832 0.63756 0.0
C1104 C 0.76094 0.57864 0.55044 0.0
C1105 C 0.725 0.50023 0.50358 0.0
C1106 C 0.74388 0.52217 0.52882 0.0
C1107 C 0.79684 0.5863 0.60325 0.0
C1108 C 0.78161 0.56376 0.57594 0.0
H1109 H 0.7418 0.437 0.44442 0.0
H1110 H 0.77153 0.47587 0.48404 0.0
H1111 H 0.72606 0.57011 0.50815 0.0
H1112 H 0.8186 0.6707 0.60568 0.0
H1113 H 0.82445 0.6197 0.56838 0.0
C1114 C 0.6489 0.3096 0.48471 0.0
C1115 C 0.64117 0.3067 0.44927 0.0
C1116 C 0.62618 0.29545 0.509 0.0
C1117 C 0.53626 0.2945 0.50543 0.0
H1118 H 0.52995 0.25271 0.59519 0.0
C1119 C 0.40601 0.29012 0.57391 0.0
C1120 C 0.40523 0.3009 0.60882 0.0
C1121 C 0.43729 0.28157 0.55769 0.0
C1122 C 0.5314 0.26461 0.57021 0.0
H1123 H 0.61312 0.27623 0.41142 0.0
H1124 H 0.57427 0.25063 0.45322 0.0
H1125 H 0.58462 0.24969 0.56211 0.0
H1126 H 0.43656 0.30797 0.65479 0.0
H1127 H 0.4912 0.29302 0.62636 0.0
H1128 H 0.48431 0.31112 0.51359 0.0
C1129 C 0.59586 0.26597 0.46261 0.0
C1130 C 0.56258 0.26265 0.55129 0.0
C1131 C 0.6187 0.28016 0.4386 0.0
C1132 C 0.4361 0.29959 0.62792 0.0
C1133 C 0.46756 0.2912 0.61154 0.0
C1134 C 0.50552 0.29677 0.52429 0.0
C1135 C 0.59729 0.2765 0.49757 0.0
C1136 C 0.56493 0.27699 0.51838 0.0
C1137 C 0.46871 0.28369 0.57583 0.0
C1138 C 0.50231 0.2813 0.55663 0.0
H1139 H 0.6673 0.32888 0.49369 0.0
H1140 H 0.6284 0.30343 0.53589 0.0
H1141 H 0.53783 0.30703 0.48075 0.0
H1142 H 0.38278 0.29066 0.55842 0.0
H1143 H 0.43703 0.27492 0.53036 0.0
C1144 C 0.31194 0.45907 0.65306 0.0
C1145 C 0.28604 0.43378 0.64922 0.0
C1146 C 0.30807 0.49095 0.63734 0.0
C1147 C 0.25527 0.51593 0.5625 0.0
H1148 H 0.32015 0.59182 0.55802 0.0
C1149 C 0.28824 0.57735 0.43357 0.0
C1150 C 0.29716 0.61234 0.43215 0.0
C1151 C 0.28245 0.5617 0.46517 0.0
C1152 C 0.30138 0.57112 0.55911 0.0
H1153 H 0.23172 0.42633 0.63899 0.0
H1154 H 0.22277 0.48372 0.61724 0.0
H1155 H 0.31581 0.55865 0.6108 0.0
H1156 H 0.30565 0.65866 0.46332 0.0
H1157 H 0.29369 0.63166 0.51862 0.0
H1158 H 0.24049 0.52827 0.5114 0.0
C1159 C 0.24807 0.47739 0.62701 0.0
C1160 C 0.29911 0.55179 0.58937 0.0
C1161 C 0.25276 0.44476 0.64077 0.0
C1162 C 0.29793 0.63185 0.46327 0.0
C1163 C 0.29193 0.61615 0.49511 0.0
C1164 C 0.2572 0.53536 0.53277 0.0
C1165 C 0.27688 0.49882 0.62068 0.0
C1166 C 0.27626 0.52349 0.59136 0.0
C1167 C 0.28485 0.58064 0.49653 0.0
C1168 C 0.28076 0.56273 0.53016 0.0
H1169 H 0.33738 0.4521 0.66172 0.0
H1170 H 0.33076 0.5071 0.63476 0.0
H1171 H 0.23814 0.49387 0.56189 0.0
H1172 H 0.28827 0.56137 0.41031 0.0
H1173 H 0.27784 0.53421 0.46494 0.0
C1174 C 0.45728 0.65074 0.46069 0.0
C1175 C 0.4266 0.66799 0.45298 0.0
C1176 C 0.47942 0.6642 0.48616 0.0
C1177 C 0.50383 0.74802 0.52216 0.0
H1178 H 0.56125 0.69478 0.58262 0.0
C1179 C 0.62224 0.7643 0.62407 0.0
C1180 C 0.65088 0.75338 0.60419 0.0
C1181 C 0.58963 0.76616 0.6088 0.0
C1182 C 0.54494 0.71 0.56623 0.0
H1183 H 0.39302 0.71046 0.4683 0.0
H1184 H 0.43154 0.73365 0.51254 0.0
H1185 H 0.51253 0.66694 0.55298 0.0
H1186 H 0.66963 0.743 0.55221 0.0
H1187 H 0.61297 0.74765 0.52544 0.0
H1188 H 0.53784 0.79053 0.53402 0.0
C1189 C 0.439 0.71043 0.49843 0.0
C1190 C 0.51734 0.69406 0.54914 0.0
C1191 C 0.41702 0.69709 0.47308 0.0
C1192 C 0.6479 0.75139 0.56805 0.0
C1193 C 0.61545 0.75384 0.55275 0.0
C1194 C 0.53182 0.76385 0.53894 0.0
C1195 C 0.47103 0.69493 0.50427 0.0
C1196 C 0.49704 0.71269 0.52629 0.0
C1197 C 0.58589 0.75838 0.57349 0.0
C1198 C 0.55285 0.74469 0.56053 0.0
H1199 H 0.46516 0.62822 0.44569 0.0
H1200 H 0.50404 0.65173 0.49016 0.0
H1201 H 0.48873 0.76295 0.50446 0.0
H1202 H 0.62382 0.76593 0.652 0.0
H1203 H 0.56701 0.76964 0.62516 0.0
C1204 C 0.63677 0.592 0.70094 0.0
C1205 C 0.63051 0.62615 0.69236 0.0
C1206 C 0.60966 0.57165 0.7125 0.0
C1207 C 0.51988 0.55624 0.72804 0.0
H1208 H 0.52311 0.51224 0.63678 0.0
C1209 C 0.43967 0.43864 0.68713 0.0
C1210 C 0.42206 0.43986 0.65544 0.0
C1211 C 0.46259 0.46447 0.69678 0.0
C1212 C 0.52167 0.52464 0.6621 0.0
H1213 H 0.5934 0.66789 0.69438 0.0
H1214 H 0.545 0.6312 0.71173 0.0
H1215 H 0.56918 0.55132 0.65457 0.0
H1216 H 0.41586 0.46811 0.60828 0.0
H1217 H 0.45762 0.5132 0.62483 0.0
H1218 H 0.47226 0.52878 0.73549 0.0
C1219 C 0.57085 0.62048 0.71052 0.0
C1220 C 0.54812 0.54649 0.67245 0.0
C1221 C 0.59822 0.64111 0.6998 0.0
C1222 C 0.42913 0.46659 0.63275 0.0
C1223 C 0.45258 0.49242 0.64235 0.0
C1224 C 0.49336 0.53385 0.71775 0.0
C1225 C 0.57607 0.58515 0.71423 0.0
C1226 C 0.54764 0.56194 0.70553 0.0
C1227 C 0.46882 0.49173 0.67473 0.0
C1228 C 0.49438 0.51784 0.68475 0.0
H1229 H 0.66208 0.58064 0.6969 0.0
H1230 H 0.61398 0.54437 0.71562 0.0
H1231 H 0.51905 0.56858 0.75341 0.0
H1232 H 0.43527 0.418 0.70501 0.0
H1233 H 0.47572 0.46295 0.72135 0.0
C1234 C 0.42766 0.6216 0.27001 0.0
C1235 C 0.4229 0.64099 0.30075 0.0
C1236 C 0.45949 0.60561 0.26326 0.0
C1237 C 0.53995 0.57584 0.26901 0.0
H1238 H 0.51648 0.50908 0.3385 0.0
C1239 C 0.62643 0.46147 0.31571 0.0
C1240 C 0.60853 0.43085 0.32274 0.0
C1241 C 0.60847 0.49053 0.30464 0.0
C1242 C 0.5234 0.52739 0.31892 0.0
H1243 H 0.44976 0.66795 0.34207 0.0
H1244 H 0.50515 0.64004 0.3306 0.0
H1245 H 0.48132 0.56061 0.33302 0.0
H1246 H 0.55863 0.40536 0.31953 0.0
H1247 H 0.52753 0.4557 0.30006 0.0
H1248 H 0.58233 0.54233 0.25511 0.0
C1249 C 0.48426 0.63592 0.31242 0.0
C1250 C 0.50351 0.55703 0.31607 0.0
C1251 C 0.45252 0.65237 0.31863 0.0
C1252 C 0.57314 0.42867 0.3146 0.0
C1253 C 0.55524 0.45761 0.30379 0.0
C1254 C 0.56043 0.54625 0.2723 0.0
C1255 C 0.48693 0.61015 0.28651 0.0
C1256 C 0.51133 0.58133 0.29091 0.0
C1257 C 0.57237 0.48932 0.30043 0.0
C1258 C 0.55189 0.5214 0.29688 0.0
H1259 H 0.40535 0.61295 0.25533 0.0
H1260 H 0.46095 0.58597 0.243 0.0
H1261 H 0.54619 0.59415 0.24924 0.0
H1262 H 0.65353 0.4641 0.32197 0.0
H1263 H 0.62236 0.5146 0.30215 0.0
loop_
_geom_bond_atom_site_label_1
_geom_bond_atom_site_label_2
_geom_bond_distance
_geom_bond_site_symmetry_2
_ccdc_geom_bond_type
Mn0 O6 2.111 . S
Mn0 O11 2.150 . S
Mn0 O13 2.130 . S
Mn0 O21 2.281 . S
Mn0 O22 2.374 . S
Mn1 O2 2.126 . S
Mn1 O7 2.116 . S
Mn1 O12 2.129 . S
Mn1 O15 2.147 . S
Mn1 O19 2.267 . S
Mn1 O21 2.247 . S
O2 Mn1 2.126 . S
O2 C20 1.255 . S
O3 Mn4 2.113 . S
O3 C20 1.238 . S
Mn4 O3 2.113 . S
Mn4 O16 2.101 . S
Mn4 O18 2.372 . S
Mn4 O19 2.265 . S
C5 O6 1.258 . S
C5 O7 1.263 . S
O6 Mn0 2.111 . S
O6 C5 1.258 . S
O7 Mn1 2.116 . S
O7 C5 1.263 . S
P8 O13 1.496 . S
C9 O15 1.252 . S
C9 O16 1.259 . S
C10 O18 1.252 . S
C10 O19 1.273 . S
O11 Mn0 2.150 . S
O11 C17 1.271 . S
O12 Mn1 2.129 . S
O12 C17 1.250 . S
O13 Mn0 2.130 . S
O13 P8 1.496 . S
C14 O21 1.283 . S
C14 O22 1.263 . S
O15 Mn1 2.147 . S
O15 C9 1.252 . S
O16 Mn4 2.101 . S
O16 C9 1.259 . S
C17 O11 1.271 . S
C17 O12 1.250 . S
O18 Mn4 2.372 . S
O18 C10 1.252 . S
O19 Mn1 2.267 . S
O19 Mn4 2.265 . S
O19 C10 1.273 . S
C20 O2 1.255 . S
C20 O3 1.238 . S
O21 Mn0 2.281 . S
O21 Mn1 2.247 . S
O21 C14 1.283 . S
O22 Mn0 2.374 . S
O22 C14 1.263 . S
Mn23 O29 2.111 . S
Mn23 O34 2.150 . S
Mn23 O36 2.130 . S
Mn23 O44 2.281 . S
Mn23 O45 2.374 . S
Mn24 O25 2.126 . S
Mn24 O30 2.116 . S
Mn24 O35 2.129 . S
Mn24 O38 2.147 . S
Mn24 O42 2.267 . S
Mn24 O44 2.247 . S
O25 Mn24 2.126 . S
O25 C43 1.255 . S
O26 Mn27 2.113 . S
O26 C43 1.238 . S
Mn27 O26 2.113 . S
Mn27 O39 2.101 . S
Mn27 O41 2.372 . S
Mn27 O42 2.265 . S
C28 O29 1.258 . S
C28 O30 1.263 . S
O29 Mn23 2.111 . S
O29 C28 1.258 . S
O30 Mn24 2.116 . S
O30 C28 1.263 . S
P31 O36 1.496 . S
C32 O38 1.252 . S
C32 O39 1.259 . S
C33 O41 1.252 . S
C33 O42 1.273 . S
O34 Mn23 2.150 . S
O34 C40 1.271 . S
O35 Mn24 2.129 . S
O35 C40 1.250 . S
O36 Mn23 2.130 . S
O36 P31 1.496 . S
C37 O44 1.283 . S
C37 O45 1.263 . S
O38 Mn24 2.147 . S
O38 C32 1.252 . S
O39 Mn27 2.101 . S
O39 C32 1.259 . S
C40 O34 1.271 . S
C40 O35 1.250 . S
O41 Mn27 2.372 . S
O41 C33 1.252 . S
O42 Mn24 2.267 . S
O42 Mn27 2.265 . S
O42 C33 1.273 . S
C43 O25 1.255 . S
C43 O26 1.238 . S
O44 Mn23 2.281 . S
O44 Mn24 2.247 . S
O44 C37 1.283 . S
O45 Mn23 2.374 . S
O45 C37 1.263 . S
Mn46 O52 2.111 . S
Mn46 O57 2.150 . S
Mn46 O59 2.130 . S
Mn46 O67 2.281 . S
Mn46 O68 2.374 . S
Mn47 O48 2.126 . S
Mn47 O53 2.116 . S
Mn47 O58 2.129 . S
Mn47 O61 2.147 . S
Mn47 O65 2.267 . S
Mn47 O67 2.247 . S
O48 Mn47 2.126 . S
O48 C66 1.255 . S
O49 Mn50 2.113 . S
O49 C66 1.238 . S
Mn50 O49 2.113 . S
Mn50 O62 2.101 . S
Mn50 O64 2.372 . S
Mn50 O65 2.265 . S
C51 O52 1.258 . S
C51 O53 1.263 . S
O52 Mn46 2.111 . S
O52 C51 1.258 . S
O53 Mn47 2.116 . S
O53 C51 1.263 . S
P54 O59 1.496 . S
C55 O61 1.252 . S
C55 O62 1.259 . S
C56 O64 1.252 . S
C56 O65 1.273 . S
O57 Mn46 2.150 . S
O57 C63 1.271 . S
O58 Mn47 2.129 . S
O58 C63 1.250 . S
O59 Mn46 2.130 . S
O59 P54 1.496 . S
C60 O67 1.283 . S
C60 O68 1.263 . S
O61 Mn47 2.147 . S
O61 C55 1.252 . S
O62 Mn50 2.101 . S
O62 C55 1.259 . S
C63 O57 1.271 . S
C63 O58 1.250 . S
O64 Mn50 2.372 . S
O64 C56 1.252 . S
O65 Mn47 2.267 . S
O65 Mn50 2.265 . S
O65 C56 1.273 . S
C66 O48 1.255 . S
C66 O49 1.238 . S
O67 Mn46 2.281 . S
O67 Mn47 2.247 . S
O67 C60 1.283 . S
O68 Mn46 2.374 . S
O68 C60 1.263 . S
Mn69 O75 2.111 . S
Mn69 O80 2.150 . S
Mn69 O82 2.130 . S
Mn69 O90 2.281 . S
Mn69 O91 2.374 . S
Mn70 O71 2.126 . S
Mn70 O76 2.116 . S
Mn70 O81 2.129 . S
Mn70 O84 2.147 . S
Mn70 O88 2.267 . S
Mn70 O90 2.247 . S
O71 Mn70 2.126 . S
O71 C89 1.255 . S
O72 Mn73 2.113 . S
O72 C89 1.238 . S
Mn73 O72 2.113 . S
Mn73 O85 2.101 . S
Mn73 O87 2.372 . S
Mn73 O88 2.265 . S
C74 O75 1.258 . S
C74 O76 1.263 . S
O75 Mn69 2.111 . S
O75 C74 1.258 . S
O76 Mn70 2.116 . S
O76 C74 1.263 . S
P77 O82 1.496 . S
C78 O84 1.252 . S
C78 O85 1.259 . S
C79 O87 1.252 . S
C79 O88 1.273 . S
O80 Mn69 2.150 . S
O80 C86 1.271 . S
O81 Mn70 2.129 . S
O81 C86 1.250 . S
O82 Mn69 2.130 . S
O82 P77 1.496 . S
C83 O90 1.283 . S
C83 O91 1.263 . S
O84 Mn70 2.147 . S
O84 C78 1.252 . S
O85 Mn73 2.101 . S
O85 C78 1.259 . S
C86 O80 1.271 . S
C86 O81 1.250 . S
O87 Mn73 2.372 . S
O87 C79 1.252 . S
O88 Mn70 2.267 . S
O88 Mn73 2.265 . S
O88 C79 1.273 . S
C89 O71 1.255 . S
C89 O72 1.238 . S
O90 Mn69 2.281 . S
O90 Mn70 2.247 . S
O90 C83 1.283 . S
O91 Mn69 2.374 . S
O91 C83 1.263 . S
Mn92 O98 2.111 . S
Mn92 O103 2.150 . S
Mn92 O105 2.130 . S
Mn92 O113 2.281 . S
Mn92 O114 2.374 . S
Mn93 O94 2.126 . S
Mn93 O99 2.116 . S
Mn93 O104 2.129 . S
Mn93 O107 2.147 . S
Mn93 O111 2.267 . S
Mn93 O113 2.247 . S
O94 Mn93 2.126 . S
O94 C112 1.255 . S
O95 Mn96 2.113 . S
O95 C112 1.238 . S
Mn96 O95 2.113 . S
Mn96 O108 2.101 . S
Mn96 O110 2.372 . S
Mn96 O111 2.265 . S
C97 O98 1.258 . S
C97 O99 1.263 . S
O98 Mn92 2.111 . S
O98 C97 1.258 . S
O99 Mn93 2.116 . S
O99 C97 1.263 . S
P100 O105 1.496 . S
C101 O107 1.252 . S
C101 O108 1.259 . S
C102 O110 1.252 . S
C102 O111 1.273 . S
O103 Mn92 2.150 . S
O103 C109 1.271 . S
O104 Mn93 2.129 . S
O104 C109 1.250 . S
O105 Mn92 2.130 . S
O105 P100 1.496 . S
C106 O113 1.283 . S
C106 O114 1.263 . S
O107 Mn93 2.147 . S
O107 C101 1.252 . S
O108 Mn96 2.101 . S
O108 C101 1.259 . S
C109 O103 1.271 . S
C109 O104 1.250 . S
O110 Mn96 2.372 . S
O110 C102 1.252 . S
O111 Mn93 2.267 . S
O111 Mn96 2.265 . S
O111 C102 1.273 . S
C112 O94 1.255 . S
C112 O95 1.238 . S
O113 Mn92 2.281 . S
O113 Mn93 2.247 . S
O113 C106 1.283 . S
O114 Mn92 2.374 . S
O114 C106 1.263 . S
Mn115 O121 2.111 . S
Mn115 O126 2.150 . S
Mn115 O128 2.130 . S
Mn115 O136 2.281 . S
Mn115 O137 2.374 . S
Mn116 O117 2.126 . S
Mn116 O122 2.116 . S
Mn116 O127 2.129 . S
Mn116 O130 2.147 . S
Mn116 O134 2.267 . S
Mn116 O136 2.247 . S
O117 Mn116 2.126 . S
O117 C135 1.255 . S
O118 Mn119 2.113 . S
O118 C135 1.238 . S
Mn119 O118 2.113 . S
Mn119 O131 2.101 . S
Mn119 O133 2.372 . S
Mn119 O134 2.265 . S
C120 O121 1.258 . S
C120 O122 1.263 . S
O121 Mn115 2.111 . S
O121 C120 1.258 . S
O122 Mn116 2.116 . S
O122 C120 1.263 . S
P123 O128 1.496 . S
C124 O130 1.252 . S
C124 O131 1.259 . S
C125 O133 1.252 . S
C125 O134 1.273 . S
O126 Mn115 2.150 . S
O126 C132 1.271 . S
O127 Mn116 2.129 . S
O127 C132 1.250 . S
O128 Mn115 2.130 . S
O128 P123 1.496 . S
C129 O136 1.283 . S
C129 O137 1.263 . S
O130 Mn116 2.147 . S
O130 C124 1.252 . S
O131 Mn119 2.101 . S
O131 C124 1.259 . S
C132 O126 1.271 . S
C132 O127 1.250 . S
O133 Mn119 2.372 . S
O133 C125 1.252 . S
O134 Mn116 2.267 . S
O134 Mn119 2.265 . S
O134 C125 1.273 . S
C135 O117 1.255 . S
C135 O118 1.238 . S
O136 Mn115 2.281 . S
O136 Mn116 2.247 . S
O136 C129 1.283 . S
O137 Mn115 2.374 . S
O137 C129 1.263 . S
Mn138 O144 2.111 . S
Mn138 O149 2.150 . S
Mn138 O151 2.130 . S
Mn138 O159 2.281 . S
Mn138 O160 2.374 . S
Mn139 O140 2.126 . S
Mn139 O145 2.116 . S
Mn139 O150 2.129 . S
Mn139 O153 2.147 . S
Mn139 O157 2.267 . S
Mn139 O159 2.247 . S
O140 Mn139 2.126 . S
O140 C158 1.255 . S
O141 Mn142 2.113 . S
O141 C158 1.238 . S
Mn142 O141 2.113 . S
Mn142 O154 2.101 . S
Mn142 O156 2.372 . S
Mn142 O157 2.265 . S
C143 O144 1.258 . S
C143 O145 1.263 . S
O144 Mn138 2.111 . S
O144 C143 1.258 . S
O145 Mn139 2.116 . S
O145 C143 1.263 . S
P146 O151 1.496 . S
C147 O153 1.252 . S
C147 O154 1.259 . S
C148 O156 1.252 . S
C148 O157 1.273 . S
O149 Mn138 2.150 . S
O149 C155 1.271 . S
O150 Mn139 2.129 . S
O150 C155 1.250 . S
O151 Mn138 2.130 . S
O151 P146 1.496 . S
C152 O159 1.283 . S
C152 O160 1.263 . S
O153 Mn139 2.147 . S
O153 C147 1.252 . S
O154 Mn142 2.101 . S
O154 C147 1.259 . S
C155 O149 1.271 . S
C155 O150 1.250 . S
O156 Mn142 2.372 . S
O156 C148 1.252 . S
O157 Mn139 2.267 . S
O157 Mn142 2.265 . S
O157 C148 1.273 . S
C158 O140 1.255 . S
C158 O141 1.238 . S
O159 Mn138 2.281 . S
O159 Mn139 2.247 . S
O159 C152 1.283 . S
O160 Mn138 2.374 . S
O160 C152 1.263 . S
Mn161 O167 2.111 . S
Mn161 O172 2.150 . S
Mn161 O174 2.130 . S
Mn161 O182 2.281 . S
Mn161 O183 2.374 . S
Mn162 O163 2.126 . S
Mn162 O168 2.116 . S
Mn162 O173 2.129 . S
Mn162 O176 2.147 . S
Mn162 O180 2.267 . S
Mn162 O182 2.247 . S
O163 Mn162 2.126 . S
O163 C181 1.255 . S
O164 Mn165 2.113 . S
O164 C181 1.238 . S
Mn165 O164 2.113 . S
Mn165 O177 2.101 . S
Mn165 O179 2.372 . S
Mn165 O180 2.265 . S
C166 O167 1.258 . S
C166 O168 1.263 . S
O167 Mn161 2.111 . S
O167 C166 1.258 . S
O168 Mn162 2.116 . S
O168 C166 1.263 . S
P169 O174 1.496 . S
C170 O176 1.252 . S
C170 O177 1.259 . S
C171 O179 1.252 . S
C171 O180 1.273 . S
O172 Mn161 2.150 . S
O172 C178 1.271 . S
O173 Mn162 2.129 . S
O173 C178 1.250 . S
O174 Mn161 2.130 . S
O174 P169 1.496 . S
C175 O182 1.283 . S
C175 O183 1.263 . S
O176 Mn162 2.147 . S
O176 C170 1.252 . S
O177 Mn165 2.101 . S
O177 C170 1.259 . S
C178 O172 1.271 . S
C178 O173 1.250 . S
O179 Mn165 2.372 . S
O179 C171 1.252 . S
O180 Mn162 2.267 . S
O180 Mn165 2.265 . S
O180 C171 1.273 . S
C181 O163 1.255 . S
C181 O164 1.238 . S
O182 Mn161 2.281 . S
O182 Mn162 2.247 . S
O182 C175 1.283 . S
O183 Mn161 2.374 . S
O183 C175 1.263 . S
C184 C185 1.349 . S
C184 C186 1.327 1_554 S
C184 H209 0.950 . S
C185 C184 1.349 . S
C185 C201 1.349 . S
C186 C184 1.327 1_556 S
C186 C205 1.429 . S
C186 H210 0.950 . S
C187 C204 1.574 . S
C187 C206 1.368 . S
C187 H211 0.949 . S
H188 C192 0.949 . S
C189 C190 1.349 . S
C189 C191 1.327 . S
C189 H212 0.950 . S
C190 C189 1.349 . S
C190 C202 1.349 . S
C191 C189 1.327 . S
C191 C207 1.429 . S
C191 H213 0.950 . S
C192 H188 0.949 . S
C192 C200 1.574 . S
C192 C208 1.368 . S
H193 C201 0.950 . S
H194 C199 0.950 . S
H195 C200 0.949 . S
H196 C202 0.950 . S
H197 C203 0.950 . S
H198 C204 0.949 . S
C199 H194 0.950 . S
C199 C201 1.327 . S
C199 C205 1.429 1_554 S
C200 C192 1.574 . S
C200 H195 0.949 . S
C200 C206 1.368 . S
C201 C185 1.349 . S
C201 H193 0.950 . S
C201 C199 1.327 . S
C202 C190 1.349 . S
C202 H196 0.950 . S
C202 C203 1.327 . S
C203 H197 0.950 . S
C203 C202 1.327 . S
C203 C207 1.429 . S
C204 C187 1.574 . S
C204 H198 0.949 . S
C204 C208 1.368 . S
C205 C186 1.429 . S
C205 C199 1.429 1_556 S
C205 C206 1.523 . S
C206 C187 1.368 . S
C206 C200 1.368 . S
C206 C205 1.523 . S
C207 C191 1.429 . S
C207 C203 1.429 . S
C207 C208 1.523 . S
C208 C192 1.368 . S
C208 C204 1.368 . S
C208 C207 1.523 . S
H209 C184 0.950 . S
H210 C186 0.950 . S
H211 C187 0.949 . S
H212 C189 0.950 . S
H213 C191 0.950 . S
C214 C215 1.349 . S
C214 C216 1.327 . S
C214 H239 0.950 . S
C215 C214 1.349 . S
C215 C231 1.349 . S
C216 C214 1.327 . S
C216 C235 1.429 1_556 S
C216 H240 0.950 1_556 S
C217 C234 1.574 . S
C217 C236 1.368 . S
C217 H241 0.949 . S
H218 C222 0.949 . S
C219 C220 1.349 . S
C219 C221 1.327 . S
C219 H242 0.950 . S
C220 C219 1.349 . S
C220 C232 1.349 . S
C221 C219 1.327 . S
C221 C237 1.429 . S
C221 H243 0.950 . S
C222 H218 0.949 . S
C222 C230 1.574 . S
C222 C238 1.368 . S
H223 C231 0.950 . S
H224 C229 0.950 . S
H225 C230 0.949 . S
H226 C232 0.950 . S
H227 C233 0.950 . S
H228 C234 0.949 . S
C229 H224 0.950 . S
C229 C231 1.327 . S
C229 C235 1.429 1_556 S
C230 C222 1.574 . S
C230 H225 0.949 . S
C230 C236 1.368 . S
C231 C215 1.349 . S
C231 H223 0.950 . S
C231 C229 1.327 . S
C232 C220 1.349 . S
C232 H226 0.950 . S
C232 C233 1.327 . S
C233 H227 0.950 . S
C233 C232 1.327 . S
C233 C237 1.429 . S
C234 C217 1.574 . S
C234 H228 0.949 . S
C234 C238 1.368 . S
C235 C216 1.429 1_554 S
C235 C229 1.429 1_554 S
C235 C236 1.523 . S
C236 C217 1.368 . S
C236 C230 1.368 . S
C236 C235 1.523 . S
C237 C221 1.429 . S
C237 C233 1.429 . S
C237 C238 1.523 . S
C238 C222 1.368 . S
C238 C234 1.368 . S
C238 C237 1.523 . S
H239 C214 0.950 . S
H240 C216 0.950 1_554 S
H241 C217 0.949 . S
H242 C219 0.950 . S
H243 C221 0.950 . S
C244 C245 1.349 . S
C244 C246 1.327 . S
C244 H269 0.950 . S
C245 C244 1.349 . S
C245 C261 1.349 . S
C246 C244 1.327 . S
C246 C265 1.429 . S
C246 H270 0.950 . S
C247 C264 1.574 . S
C247 C266 1.368 . S
C247 H271 0.949 . S
H248 C252 0.949 . S
C249 C250 1.349 . S
C249 C251 1.327 . S
C249 H272 0.950 . S
C250 C249 1.349 . S
C250 C262 1.349 . S
C251 C249 1.327 . S
C251 C267 1.429 1_554 S
C251 H273 0.950 1_554 S
C252 H248 0.949 . S
C252 C260 1.574 . S
C252 C268 1.368 . S
H253 C261 0.950 . S
H254 C259 0.950 . S
H255 C260 0.949 . S
H256 C262 0.950 . S
H257 C263 0.950 . S
H258 C264 0.949 . S
C259 H254 0.950 . S
C259 C261 1.327 . S
C259 C265 1.429 . S
C260 C252 1.574 . S
C260 H255 0.949 . S
C260 C266 1.368 . S
C261 C245 1.349 . S
C261 H253 0.950 . S
C261 C259 1.327 . S
C262 C250 1.349 . S
C262 H256 0.950 . S
C262 C263 1.327 . S
C263 H257 0.950 . S
C263 C262 1.327 . S
C263 C267 1.429 1_554 S
C264 C247 1.574 . S
C264 H258 0.949 . S
C264 C268 1.368 . S
C265 C246 1.429 . S
C265 C259 1.429 . S
C265 C266 1.523 . S
C266 C247 1.368 . S
C266 C260 1.368 . S
C266 C265 1.523 . S
C267 C251 1.429 1_556 S
C267 C263 1.429 1_556 S
C267 C268 1.523 . S
C268 C252 1.368 . S
C268 C264 1.368 . S
C268 C267 1.523 . S
H269 C244 0.950 . S
H270 C246 0.950 . S
H271 C247 0.949 . S
H272 C249 0.950 . S
H273 C251 0.950 1_556 S
C274 C275 1.349 . S
C274 C276 1.327 . S
C274 H299 0.950 . S
C275 C274 1.349 . S
C275 C291 1.349 . S
C276 C274 1.327 . S
C276 C295 1.429 1_556 S
C276 H300 0.950 . S
C277 C294 1.574 . S
C277 C296 1.368 . S
C277 H301 0.949 . S
H278 C282 0.949 . S
C279 C280 1.349 . S
C279 C281 1.327 . S
C279 H302 0.950 . S
C280 C279 1.349 . S
C280 C292 1.349 . S
C281 C279 1.327 . S
C281 C297 1.429 . S
C281 H303 0.950 . S
C282 H278 0.949 . S
C282 C290 1.574 . S
C282 C298 1.368 . S
H283 C291 0.950 . S
H284 C289 0.950 1_554 S
H285 C290 0.949 . S
H286 C292 0.950 . S
H287 C293 0.950 . S
H288 C294 0.949 . S
C289 H284 0.950 1_556 S
C289 C291 1.327 . S
C289 C295 1.429 1_556 S
C290 C282 1.574 . S
C290 H285 0.949 . S
C290 C296 1.368 . S
C291 C275 1.349 . S
C291 H283 0.950 . S
C291 C289 1.327 . S
C292 C280 1.349 . S
C292 H286 0.950 . S
C292 C293 1.327 . S
C293 H287 0.950 . S
C293 C292 1.327 . S
C293 C297 1.429 . S
C294 C277 1.574 . S
C294 H288 0.949 . S
C294 C298 1.368 . S
C295 C276 1.429 1_554 S
C295 C289 1.429 1_554 S
C295 C296 1.523 . S
C296 C277 1.368 . S
C296 C290 1.368 . S
C296 C295 1.523 . S
C297 C281 1.429 . S
C297 C293 1.429 . S
C297 C298 1.523 . S
C298 C282 1.368 . S
C298 C294 1.368 . S
C298 C297 1.523 . S
H299 C274 0.950 . S
H300 C276 0.950 . S
H301 C277 0.949 . S
H302 C279 0.950 . S
H303 C281 0.950 . S
C304 C305 1.349 . S
C304 C306 1.327 . S
C304 H329 0.950 . S
C305 C304 1.349 . S
C305 C321 1.349 . S
C306 C304 1.327 . S
C306 C325 1.429 . S
C306 H330 0.950 . S
C307 C324 1.574 . S
C307 C326 1.368 . S
C307 H331 0.949 . S
H308 C312 0.949 . S
C309 C310 1.349 . S
C309 C311 1.327 . S
C309 H332 0.950 . S
C310 C309 1.349 . S
C310 C322 1.349 . S
C311 C309 1.327 . S
C311 C327 1.429 . S
C311 H333 0.950 . S
C312 H308 0.949 . S
C312 C320 1.574 . S
C312 C328 1.368 . S
H313 C321 0.950 . S
H314 C319 0.950 . S
H315 C320 0.949 . S
H316 C322 0.950 . S
H317 C323 0.953 . S
H318 C324 0.949 . S
C319 H314 0.950 . S
C319 C321 1.327 . S
C319 C325 1.429 . S
C320 C312 1.574 . S
C320 H315 0.949 . S
C320 C326 1.368 . S
C321 C305 1.349 . S
C321 H313 0.950 . S
C321 C319 1.327 . S
C322 C310 1.349 . S
C322 H316 0.950 . S
C322 C323 1.327 . S
C323 H317 0.953 . S
C323 C322 1.327 . S
C323 C327 1.429 . S
C324 C307 1.574 . S
C324 H318 0.949 . S
C324 C328 1.368 . S
C325 C306 1.429 . S
C325 C319 1.429 . S
C325 C326 1.523 . S
C326 C307 1.368 . S
C326 C320 1.368 . S
C326 C325 1.523 . S
C327 C311 1.429 . S
C327 C323 1.429 . S
C327 C328 1.523 1_455 S
C328 C312 1.368 . S
C328 C324 1.368 . S
C328 C327 1.523 1_655 S
H329 C304 0.950 . S
H330 C306 0.950 . S
H331 C307 0.949 . S
H332 C309 0.950 . S
H333 C311 0.950 . S
C334 C335 1.349 . S
C334 C336 1.327 . S
C334 H359 0.950 . S
C335 C334 1.349 . S
C335 C351 1.349 . S
C336 C334 1.327 . S
C336 C355 1.429 . S
C336 H360 0.950 . S
C337 C354 1.574 . S
C337 C356 1.368 . S
C337 H361 0.949 . S
H338 C342 0.949 . S
C339 C340 1.349 . S
C339 C341 1.327 . S
C339 H362 0.950 . S
C340 C339 1.349 . S
C340 C352 1.349 . S
C341 C339 1.327 . S
C341 C357 1.429 . S
C341 H363 0.950 . S
C342 H338 0.949 . S
C342 C350 1.574 . S
C342 C358 1.368 . S
H343 C351 0.950 . S
H344 C349 0.950 . S
H345 C350 0.949 . S
H346 C352 0.950 . S
H347 C353 0.950 . S
H348 C354 0.949 . S
C349 H344 0.950 . S
C349 C351 1.327 . S
C349 C355 1.429 . S
C350 C342 1.574 . S
C350 H345 0.949 . S
C350 C356 1.368 . S
C351 C335 1.349 . S
C351 H343 0.950 . S
C351 C349 1.327 . S
C352 C340 1.349 . S
C352 H346 0.950 . S
C352 C353 1.327 . S
C353 H347 0.950 . S
C353 C352 1.327 . S
C353 C357 1.429 . S
C354 C337 1.574 . S
C354 H348 0.949 . S
C354 C358 1.368 . S
C355 C336 1.429 . S
C355 C349 1.429 . S
C355 C356 1.523 1_565 S
C356 C337 1.368 . S
C356 C350 1.368 . S
C356 C355 1.523 1_545 S
C357 C341 1.429 . S
C357 C353 1.429 . S
C357 C358 1.523 . S
C358 C342 1.368 . S
C358 C354 1.368 . S
C358 C357 1.523 . S
H359 C334 0.950 . S
H360 C336 0.950 . S
H361 C337 0.949 . S
H362 C339 0.950 . S
H363 C341 0.950 . S
C364 C365 1.349 . S
C364 C366 1.327 . S
C364 H389 0.950 . S
C365 C364 1.349 . S
C365 C381 1.349 . S
C366 C364 1.327 . S
C366 C385 1.429 . S
C366 H390 0.950 . S
C367 C384 1.574 . S
C367 C386 1.368 . S
C367 H391 0.949 . S
H368 C372 0.949 . S
C369 C370 1.349 . S
C369 C371 1.327 . S
C369 H392 0.950 . S
C370 C369 1.349 . S
C370 C382 1.349 . S
C371 C369 1.327 . S
C371 C387 1.429 . S
C371 H393 0.950 . S
C372 H368 0.949 . S
C372 C380 1.574 . S
C372 C388 1.368 . S
H373 C381 0.950 . S
H374 C379 0.950 . S
H375 C380 0.949 . S
H376 C382 0.950 . S
H377 C383 0.950 . S
H378 C384 0.949 . S
C379 H374 0.950 . S
C379 C381 1.327 . S
C379 C385 1.429 . S
C380 C372 1.574 . S
C380 H375 0.949 . S
C380 C386 1.368 . S
C381 C365 1.349 . S
C381 H373 0.950 . S
C381 C379 1.327 . S
C382 C370 1.349 . S
C382 H376 0.950 . S
C382 C383 1.327 . S
C383 H377 0.950 . S
C383 C382 1.327 . S
C383 C387 1.429 . S
C384 C367 1.574 . S
C384 H378 0.949 . S
C384 C388 1.368 . S
C385 C366 1.429 . S
C385 C379 1.429 . S
C385 C386 1.523 . S
C386 C367 1.368 . S
C386 C380 1.368 . S
C386 C385 1.523 . S
C387 C371 1.429 . S
C387 C383 1.429 . S
C387 C388 1.523 1_655 S
C388 C372 1.368 . S
C388 C384 1.368 . S
C388 C387 1.523 1_455 S
H389 C364 0.950 . S
H390 C366 0.950 . S
H391 C367 0.949 . S
H392 C369 0.950 . S
H393 C371 0.950 . S
C394 C395 1.349 . S
C394 C396 1.327 . S
C394 H419 0.950 . S
C395 C394 1.349 . S
C395 C411 1.349 . S
C396 C394 1.327 . S
C396 C415 1.429 . S
C396 H420 0.950 . S
C397 C414 1.574 . S
C397 C416 1.368 . S
C397 H421 0.949 . S
H398 C402 0.949 . S
C399 C400 1.349 . S
C399 C401 1.327 . S
C399 H422 0.950 . S
C400 C399 1.349 . S
C400 C412 1.349 . S
C401 C399 1.327 . S
C401 C417 1.429 1_545 S
C401 H423 0.950 1_545 S
C402 H398 0.949 . S
C402 C410 1.574 . S
C402 C418 1.368 . S
H403 C411 0.950 . S
H404 C409 0.950 . S
H405 C410 0.949 . S
H406 C412 0.950 . S
H407 C413 0.950 . S
H408 C414 0.949 . S
C409 H404 0.950 . S
C409 C411 1.327 . S
C409 C415 1.429 . S
C410 C402 1.574 . S
C410 H405 0.949 . S
C410 C416 1.368 . S
C411 C395 1.349 . S
C411 H403 0.950 . S
C411 C409 1.327 . S
C412 C400 1.349 . S
C412 H406 0.950 . S
C412 C413 1.327 . S
C413 H407 0.950 . S
C413 C412 1.327 . S
C413 C417 1.429 1_545 S
C414 C397 1.574 . S
C414 H408 0.949 . S
C414 C418 1.368 . S
C415 C396 1.429 . S
C415 C409 1.429 . S
C415 C416 1.523 . S
C416 C397 1.368 . S
C416 C410 1.368 . S
C416 C415 1.523 . S
C417 C401 1.429 1_565 S
C417 C413 1.429 1_565 S
C417 C418 1.523 . S
C418 C402 1.368 . S
C418 C414 1.368 . S
C418 C417 1.523 . S
H419 C394 0.950 . S
H420 C396 0.950 . S
H421 C397 0.949 . S
H422 C399 0.950 . S
H423 C401 0.950 1_565 S
C424 C425 1.349 . S
C424 C426 1.327 . S
C424 H449 0.950 . S
C425 C424 1.349 . S
C425 C441 1.349 . S
C426 C424 1.327 . S
C426 C445 1.429 . S
C426 H450 0.950 . S
C427 C444 1.574 . S
C427 C446 1.368 . S
C427 H451 0.949 . S
H428 C432 0.949 . S
C429 C430 1.349 . S
C429 C431 1.327 . S
C429 H452 0.950 . S
C430 C429 1.349 . S
C430 C442 1.349 . S
C431 C429 1.327 . S
C431 C447 1.428 1_455 S
C431 H453 0.950 . S
C432 H428 0.949 . S
C432 C440 1.574 . S
C432 C448 1.368 . S
H433 C441 0.950 . S
H434 C439 0.950 . S
H435 C440 0.949 . S
H436 C442 0.950 . S
H437 C443 0.952 . S
H438 C444 0.949 . S
C439 H434 0.950 . S
C439 C441 1.327 . S
C439 C445 1.429 . S
C440 C432 1.574 . S
C440 H435 0.949 . S
C440 C446 1.368 . S
C441 C425 1.349 . S
C441 H433 0.950 . S
C441 C439 1.327 . S
C442 C430 1.349 . S
C442 H436 0.950 . S
C442 C443 1.327 . S
C443 H437 0.952 . S
C443 C442 1.327 . S
C443 C447 1.428 1_455 S
C444 C427 1.574 . S
C444 H438 0.949 . S
C444 C448 1.368 . S
C445 C426 1.429 . S
C445 C439 1.429 . S
C445 C446 1.523 . S
C446 C427 1.368 . S
C446 C440 1.368 . S
C446 C445 1.523 . S
C447 C431 1.428 1_655 S
C447 C443 1.428 1_655 S
C447 C448 1.523 . S
C448 C432 1.368 . S
C448 C444 1.368 . S
C448 C447 1.523 . S
H449 C424 0.950 . S
H450 C426 0.950 . S
H451 C427 0.949 . S
H452 C429 0.950 . S
H453 C431 0.950 . S
C454 C455 1.349 . S
C454 C456 1.327 . S
C454 H479 0.950 . S
C455 C454 1.349 . S
C455 C471 1.349 . S
C456 C454 1.327 . S
C456 C475 1.429 1_565 S
C456 H480 0.942 1_565 S
C457 C474 1.574 . S
C457 C476 1.368 . S
C457 H481 0.949 . S
H458 C462 0.949 . S
C459 C460 1.349 . S
C459 C461 1.327 . S
C459 H482 0.950 . S
C460 C459 1.349 . S
C460 C472 1.349 . S
C461 C459 1.327 . S
C461 C477 1.429 . S
C461 H483 0.950 . S
C462 H458 0.949 . S
C462 C470 1.574 . S
C462 C478 1.368 . S
H463 C471 0.950 . S
H464 C469 0.950 . S
H465 C470 0.949 . S
H466 C472 0.950 . S
H467 C473 0.950 . S
H468 C474 0.949 . S
C469 H464 0.950 . S
C469 C471 1.327 . S
C469 C475 1.429 1_565 S
C470 C462 1.574 . S
C470 H465 0.949 . S
C470 C476 1.368 . S
C471 C455 1.349 . S
C471 H463 0.950 . S
C471 C469 1.327 . S
C472 C460 1.349 . S
C472 H466 0.950 . S
C472 C473 1.327 . S
C473 H467 0.950 . S
C473 C472 1.327 . S
C473 C477 1.429 . S
C474 C457 1.574 . S
C474 H468 0.949 . S
C474 C478 1.368 . S
C475 C456 1.429 1_545 S
C475 C469 1.429 1_545 S
C475 C476 1.523 . S
C476 C457 1.368 . S
C476 C470 1.368 . S
C476 C475 1.523 . S
C477 C461 1.429 . S
C477 C473 1.429 . S
C477 C478 1.523 . S
C478 C462 1.368 . S
C478 C474 1.368 . S
C478 C477 1.523 . S
H479 C454 0.950 . S
H480 C456 0.942 1_545 S
H481 C457 0.949 . S
H482 C459 0.950 . S
H483 C461 0.950 . S
C484 C485 1.349 . S
C484 C486 1.327 . S
C484 H509 0.950 . S
C485 C484 1.349 . S
C485 C501 1.349 . S
C486 C484 1.327 . S
C486 C505 1.429 . S
C486 H510 0.950 . S
C487 C504 1.574 . S
C487 C506 1.368 . S
C487 H511 0.949 . S
H488 C492 0.949 . S
C489 C490 1.349 . S
C489 C491 1.327 . S
C489 H512 0.950 . S
C490 C489 1.349 . S
C490 C502 1.349 . S
C491 C489 1.327 . S
C491 C507 1.429 . S
C491 H513 0.950 . S
C492 H488 0.949 . S
C492 C500 1.574 . S
C492 C508 1.368 . S
H493 C501 0.950 . S
H494 C499 0.950 . S
H495 C500 0.949 . S
H496 C502 0.950 . S
H497 C503 0.950 . S
H498 C504 0.949 . S
C499 H494 0.950 . S
C499 C501 1.327 . S
C499 C505 1.429 . S
C500 C492 1.574 . S
C500 H495 0.949 . S
C500 C506 1.368 . S
C501 C485 1.349 . S
C501 H493 0.950 . S
C501 C499 1.327 . S
C502 C490 1.349 . S
C502 H496 0.950 . S
C502 C503 1.327 . S
C503 H497 0.950 . S
C503 C502 1.327 . S
C503 C507 1.429 . S
C504 C487 1.574 . S
C504 H498 0.949 . S
C504 C508 1.368 . S
C505 C486 1.429 . S
C505 C499 1.429 . S
C505 C506 1.523 1_655 S
C506 C487 1.368 . S
C506 C500 1.368 . S
C506 C505 1.523 1_455 S
C507 C491 1.429 . S
C507 C503 1.429 . S
C507 C508 1.523 . S
C508 C492 1.368 . S
C508 C504 1.368 . S
C508 C507 1.523 . S
H509 C484 0.950 . S
H510 C486 0.950 . S
H511 C487 0.949 . S
H512 C489 0.950 . S
H513 C491 0.950 . S
C514 C515 1.349 . S
C514 C516 1.327 . S
C514 H539 0.950 . S
C515 C514 1.349 . S
C515 C531 1.349 . S
C516 C514 1.327 . S
C516 C535 1.429 . S
C516 H540 0.950 . S
C517 C534 1.574 . S
C517 C536 1.368 . S
C517 H541 0.949 . S
H518 C522 0.949 . S
C519 C520 1.349 . S
C519 C521 1.327 . S
C519 H542 0.950 . S
C520 C519 1.349 . S
C520 C532 1.349 . S
C521 C519 1.327 . S
C521 C537 1.429 1_545 S
C521 H543 0.950 1_545 S
C522 H518 0.949 . S
C522 C530 1.574 . S
C522 C538 1.368 . S
H523 C531 0.950 . S
H524 C529 0.950 . S
H525 C530 0.949 . S
H526 C532 0.950 . S
H527 C533 0.950 . S
H528 C534 0.949 . S
C529 H524 0.950 . S
C529 C531 1.327 . S
C529 C535 1.429 . S
C530 C522 1.574 . S
C530 H525 0.949 . S
C530 C536 1.368 . S
C531 C515 1.349 . S
C531 H523 0.950 . S
C531 C529 1.327 . S
C532 C520 1.349 . S
C532 H526 0.950 . S
C532 C533 1.327 . S
C533 H527 0.950 . S
C533 C532 1.327 . S
C533 C537 1.429 1_545 S
C534 C517 1.574 . S
C534 H528 0.949 . S
C534 C538 1.368 . S
C535 C516 1.429 . S
C535 C529 1.429 . S
C535 C536 1.523 . S
C536 C517 1.368 . S
C536 C530 1.368 . S
C536 C535 1.523 . S
C537 C521 1.429 1_565 S
C537 C533 1.429 1_565 S
C537 C538 1.523 . S
C538 C522 1.368 . S
C538 C534 1.368 . S
C538 C537 1.523 . S
H539 C514 0.950 . S
H540 C516 0.950 . S
H541 C517 0.949 . S
H542 C519 0.950 . S
H543 C521 0.950 1_565 S
C544 C545 1.349 . S
C544 C546 1.327 . S
C544 H569 0.950 . S
C545 C544 1.349 . S
C545 C561 1.349 . S
C546 C544 1.327 . S
C546 C565 1.429 . S
C546 H570 0.950 . S
C547 C564 1.574 . S
C547 C566 1.368 . S
C547 H571 0.949 . S
H548 C552 0.949 . S
C549 C550 1.349 . S
C549 C551 1.327 . S
C549 H572 0.950 . S
C550 C549 1.349 . S
C550 C562 1.349 . S
C551 C549 1.327 . S
C551 C567 1.429 . S
C551 H573 0.950 . S
C552 H548 0.949 . S
C552 C560 1.574 . S
C552 C568 1.368 . S
H553 C561 0.950 . S
H554 C559 0.950 . S
H555 C560 0.949 . S
H556 C562 0.950 . S
H557 C563 0.950 . S
H558 C564 0.949 . S
C559 H554 0.950 . S
C559 C561 1.327 . S
C559 C565 1.429 . S
C560 C552 1.574 . S
C560 H555 0.949 . S
C560 C566 1.368 . S
C561 C545 1.349 . S
C561 H553 0.950 . S
C561 C559 1.327 . S
C562 C550 1.349 . S
C562 H556 0.950 . S
C562 C563 1.327 . S
C563 H557 0.950 . S
C563 C562 1.327 . S
C563 C567 1.429 . S
C564 C547 1.574 . S
C564 H558 0.949 . S
C564 C568 1.368 . S
C565 C546 1.429 . S
C565 C559 1.429 . S
C565 C566 1.523 . S
C566 C547 1.368 . S
C566 C560 1.368 . S
C566 C565 1.523 . S
C567 C551 1.429 . S
C567 C563 1.429 . S
C567 C568 1.523 . S
C568 C552 1.368 . S
C568 C564 1.368 . S
C568 C567 1.523 . S
H569 C544 0.950 . S
H570 C546 0.950 . S
H571 C547 0.949 . S
H572 C549 0.950 . S
H573 C551 0.950 . S
C574 C575 1.349 . S
C574 C576 1.327 . S
C574 H599 0.950 . S
C575 C574 1.349 . S
C575 C591 1.349 . S
C576 C574 1.327 . S
C576 C595 1.429 . S
C576 H600 0.950 . S
C577 C594 1.574 . S
C577 C596 1.368 . S
C577 H601 0.949 . S
H578 C582 0.949 . S
C579 C580 1.349 . S
C579 C581 1.327 . S
C579 H602 0.950 . S
C580 C579 1.349 . S
C580 C592 1.349 . S
C581 C579 1.327 . S
C581 C597 1.429 . S
C581 H603 0.950 . S
C582 H578 0.949 . S
C582 C590 1.574 . S
C582 C598 1.368 . S
H583 C591 0.950 . S
H584 C589 0.950 . S
H585 C590 0.949 . S
H586 C592 0.950 . S
H587 C593 0.950 . S
H588 C594 0.949 . S
C589 H584 0.950 . S
C589 C591 1.327 . S
C589 C595 1.429 . S
C590 C582 1.574 . S
C590 H585 0.949 . S
C590 C596 1.368 . S
C591 C575 1.349 . S
C591 H583 0.950 . S
C591 C589 1.327 . S
C592 C580 1.349 . S
C592 H586 0.950 . S
C592 C593 1.327 . S
C593 H587 0.950 . S
C593 C592 1.327 . S
C593 C597 1.429 . S
C594 C577 1.574 . S
C594 H588 0.949 . S
C594 C598 1.368 . S
C595 C576 1.429 . S
C595 C589 1.429 . S
C595 C596 1.523 . S
C596 C577 1.368 . S
C596 C590 1.368 . S
C596 C595 1.523 . S
C597 C581 1.429 . S
C597 C593 1.429 . S
C597 C598 1.523 . S
C598 C582 1.368 . S
C598 C594 1.368 . S
C598 C597 1.523 . S
H599 C574 0.950 . S
H600 C576 0.950 . S
H601 C577 0.949 . S
H602 C579 0.950 . S
H603 C581 0.950 . S
C604 C605 1.349 . S
C604 C606 1.327 . S
C604 H629 0.950 . S
C605 C604 1.349 . S
C605 C621 1.349 . S
C606 C604 1.327 . S
C606 C625 1.429 . S
C606 H630 0.950 . S
C607 C624 1.574 . S
C607 C626 1.368 . S
C607 H631 0.949 . S
H608 C612 0.949 . S
C609 C610 1.349 . S
C609 C611 1.327 . S
C609 H632 0.950 . S
C610 C609 1.349 . S
C610 C622 1.349 . S
C611 C609 1.327 . S
C611 C627 1.429 . S
C611 H633 0.950 . S
C612 H608 0.949 . S
C612 C620 1.574 . S
C612 C628 1.368 . S
H613 C621 0.950 . S
H614 C619 0.950 . S
H615 C620 0.949 . S
H616 C622 0.950 . S
H617 C623 0.950 . S
H618 C624 0.949 . S
C619 H614 0.950 . S
C619 C621 1.327 . S
C619 C625 1.429 . S
C620 C612 1.574 . S
C620 H615 0.949 . S
C620 C626 1.368 . S
C621 C605 1.349 . S
C621 H613 0.950 . S
C621 C619 1.327 . S
C622 C610 1.349 . S
C622 H616 0.950 . S
C622 C623 1.327 . S
C623 H617 0.950 . S
C623 C622 1.327 . S
C623 C627 1.429 . S
C624 C607 1.574 . S
C624 H618 0.949 . S
C624 C628 1.368 . S
C625 C606 1.429 . S
C625 C619 1.429 . S
C625 C626 1.523 . S
C626 C607 1.368 . S
C626 C620 1.368 . S
C626 C625 1.523 . S
C627 C611 1.429 . S
C627 C623 1.429 . S
C627 C628 1.523 . S
C628 C612 1.368 . S
C628 C624 1.368 . S
C628 C627 1.523 . S
H629 C604 0.950 . S
H630 C606 0.950 . S
H631 C607 0.949 . S
H632 C609 0.950 . S
H633 C611 0.950 . S
C634 C635 1.349 . S
C634 C636 1.327 . S
C634 H659 0.950 . S
C635 C634 1.349 . S
C635 C651 1.349 . S
C636 C634 1.327 . S
C636 C655 1.429 . S
C636 H660 0.950 . S
C637 C654 1.574 . S
C637 C656 1.368 . S
C637 H661 0.949 . S
H638 C642 0.949 . S
C639 C640 1.349 . S
C639 C641 1.327 . S
C639 H662 0.950 . S
C640 C639 1.349 . S
C640 C652 1.349 . S
C641 C639 1.327 . S
C641 C657 1.429 . S
C641 H663 0.950 . S
C642 H638 0.949 . S
C642 C650 1.574 . S
C642 C658 1.368 . S
H643 C651 0.950 . S
H644 C649 0.950 . S
H645 C650 0.949 . S
H646 C652 0.950 . S
H647 C653 0.950 . S
H648 C654 0.949 . S
C649 H644 0.950 . S
C649 C651 1.327 . S
C649 C655 1.429 . S
C650 C642 1.574 . S
C650 H645 0.949 . S
C650 C656 1.368 . S
C651 C635 1.349 . S
C651 H643 0.950 . S
C651 C649 1.327 . S
C652 C640 1.349 . S
C652 H646 0.950 . S
C652 C653 1.327 . S
C653 H647 0.950 . S
C653 C652 1.327 . S
C653 C657 1.429 . S
C654 C637 1.574 . S
C654 H648 0.949 . S
C654 C658 1.368 . S
C655 C636 1.429 . S
C655 C649 1.429 . S
C655 C656 1.523 . S
C656 C637 1.368 . S
C656 C650 1.368 . S
C656 C655 1.523 . S
C657 C641 1.429 . S
C657 C653 1.429 . S
C657 C658 1.523 . S
C658 C642 1.368 . S
C658 C654 1.368 . S
C658 C657 1.523 . S
H659 C634 0.950 . S
H660 C636 0.950 . S
H661 C637 0.949 . S
H662 C639 0.950 . S
H663 C641 0.950 . S
C664 C665 1.349 . S
C664 C666 1.327 . S
C664 H689 0.950 . S
C665 C664 1.349 . S
C665 C681 1.349 . S
C666 C664 1.327 . S
C666 C685 1.429 . S
C666 H690 0.950 . S
C667 C684 1.574 . S
C667 C686 1.368 . S
C667 H691 0.949 . S
H668 C672 0.949 . S
C669 C670 1.349 . S
C669 C671 1.327 . S
C669 H692 0.950 . S
C670 C669 1.349 . S
C670 C682 1.349 . S
C671 C669 1.327 . S
C671 C687 1.429 . S
C671 H693 0.950 . S
C672 H668 0.949 . S
C672 C680 1.574 . S
C672 C688 1.368 . S
H673 C681 0.950 . S
H674 C679 0.950 . S
H675 C680 0.949 . S
H676 C682 0.950 . S
H677 C683 0.950 . S
H678 C684 0.949 . S
C679 H674 0.950 . S
C679 C681 1.327 . S
C679 C685 1.429 . S
C680 C672 1.574 . S
C680 H675 0.949 . S
C680 C686 1.368 . S
C681 C665 1.349 . S
C681 H673 0.950 . S
C681 C679 1.327 . S
C682 C670 1.349 . S
C682 H676 0.950 . S
C682 C683 1.327 . S
C683 H677 0.950 . S
C683 C682 1.327 . S
C683 C687 1.429 . S
C684 C667 1.574 . S
C684 H678 0.949 . S
C684 C688 1.368 . S
C685 C666 1.429 . S
C685 C679 1.429 . S
C685 C686 1.523 . S
C686 C667 1.368 . S
C686 C680 1.368 . S
C686 C685 1.523 . S
C687 C671 1.429 . S
C687 C683 1.429 . S
C687 C688 1.523 . S
C688 C672 1.368 . S
C688 C684 1.368 . S
C688 C687 1.523 . S
H689 C664 0.950 . S
H690 C666 0.950 . S
H691 C667 0.949 . S
H692 C669 0.950 . S
H693 C671 0.950 . S
C694 C695 1.349 . S
C694 C696 1.327 . S
C694 H719 0.950 . S
C695 C694 1.349 . S
C695 C711 1.349 . S
C696 C694 1.327 . S
C696 C715 1.429 . S
C696 H720 0.950 . S
C697 C714 1.574 . S
C697 C716 1.368 . S
C697 H721 0.949 . S
H698 C702 0.949 . S
C699 C700 1.349 . S
C699 C701 1.327 . S
C699 H722 0.950 . S
C700 C699 1.349 . S
C700 C712 1.349 . S
C701 C699 1.327 . S
C701 C717 1.429 . S
C701 H723 0.950 . S
C702 H698 0.949 . S
C702 C710 1.574 . S
C702 C718 1.368 . S
H703 C711 0.950 . S
H704 C709 0.950 . S
H705 C710 0.949 . S
H706 C712 0.950 . S
H707 C713 0.950 . S
H708 C714 0.949 . S
C709 H704 0.950 . S
C709 C711 1.327 . S
C709 C715 1.429 . S
C710 C702 1.574 . S
C710 H705 0.949 . S
C710 C716 1.368 . S
C711 C695 1.349 . S
C711 H703 0.950 . S
C711 C709 1.327 . S
C712 C700 1.349 . S
C712 H706 0.950 . S
C712 C713 1.327 . S
C713 H707 0.950 . S
C713 C712 1.327 . S
C713 C717 1.429 . S
C714 C697 1.574 . S
C714 H708 0.949 . S
C714 C718 1.368 . S
C715 C696 1.429 . S
C715 C709 1.429 . S
C715 C716 1.523 . S
C716 C697 1.368 . S
C716 C710 1.368 . S
C716 C715 1.523 . S
C717 C701 1.429 . S
C717 C713 1.429 . S
C717 C718 1.523 . S
C718 C702 1.368 . S
C718 C714 1.368 . S
C718 C717 1.523 . S
H719 C694 0.950 . S
H720 C696 0.950 . S
H721 C697 0.949 . S
H722 C699 0.950 . S
H723 C701 0.950 . S
C724 C725 1.349 . S
C724 C726 1.327 . S
C724 H749 0.950 . S
C725 C724 1.349 . S
C725 C741 1.349 . S
C726 C724 1.327 . S
C726 C745 1.429 . S
C726 H750 0.950 . S
C727 C744 1.574 . S
C727 C746 1.368 . S
C727 H751 0.949 . S
H728 C732 0.949 . S
C729 C730 1.349 . S
C729 C731 1.327 . S
C729 H752 0.950 . S
C730 C729 1.349 . S
C730 C742 1.349 . S
C731 C729 1.327 . S
C731 C747 1.429 . S
C731 H753 0.950 . S
C732 H728 0.949 . S
C732 C740 1.574 . S
C732 C748 1.368 . S
H733 C741 0.950 . S
H734 C739 0.950 . S
H735 C740 0.949 . S
H736 C742 0.950 . S
H737 C743 0.950 . S
H738 C744 0.949 . S
C739 H734 0.950 . S
C739 C741 1.327 . S
C739 C745 1.429 . S
C740 C732 1.574 . S
C740 H735 0.949 . S
C740 C746 1.368 . S
C741 C725 1.349 . S
C741 H733 0.950 . S
C741 C739 1.327 . S
C742 C730 1.349 . S
C742 H736 0.950 . S
C742 C743 1.327 . S
C743 H737 0.950 . S
C743 C742 1.327 . S
C743 C747 1.429 . S
C744 C727 1.574 . S
C744 H738 0.949 . S
C744 C748 1.368 . S
C745 C726 1.429 . S
C745 C739 1.429 . S
C745 C746 1.523 . S
C746 C727 1.368 . S
C746 C740 1.368 . S
C746 C745 1.523 . S
C747 C731 1.429 . S
C747 C743 1.429 . S
C747 C748 1.523 . S
C748 C732 1.368 . S
C748 C744 1.368 . S
C748 C747 1.523 . S
H749 C724 0.950 . S
H750 C726 0.950 . S
H751 C727 0.949 . S
H752 C729 0.950 . S
H753 C731 0.950 . S
C754 C755 1.349 . S
C754 C756 1.327 . S
C754 H779 0.950 . S
C755 C754 1.349 . S
C755 C771 1.349 . S
C756 C754 1.327 . S
C756 C775 1.429 . S
C756 H780 0.950 . S
C757 C774 1.574 . S
C757 C776 1.368 . S
C757 H781 0.949 . S
H758 C762 0.949 . S
C759 C760 1.349 . S
C759 C761 1.327 . S
C759 H782 0.950 . S
C760 C759 1.349 . S
C760 C772 1.349 . S
C761 C759 1.327 . S
C761 C777 1.429 . S
C761 H783 0.950 . S
C762 H758 0.949 . S
C762 C770 1.574 . S
C762 C778 1.368 . S
H763 C771 0.950 . S
H764 C769 0.950 . S
H765 C770 0.949 . S
H766 C772 0.950 . S
H767 C773 0.950 . S
H768 C774 0.949 . S
C769 H764 0.950 . S
C769 C771 1.327 . S
C769 C775 1.429 . S
C770 C762 1.574 . S
C770 H765 0.949 . S
C770 C776 1.368 . S
C771 C755 1.349 . S
C771 H763 0.950 . S
C771 C769 1.327 . S
C772 C760 1.349 . S
C772 H766 0.950 . S
C772 C773 1.327 . S
C773 H767 0.950 . S
C773 C772 1.327 . S
C773 C777 1.429 . S
C774 C757 1.574 . S
C774 H768 0.949 . S
C774 C778 1.368 . S
C775 C756 1.429 . S
C775 C769 1.429 . S
C775 C776 1.523 . S
C776 C757 1.368 . S
C776 C770 1.368 . S
C776 C775 1.523 . S
C777 C761 1.429 . S
C777 C773 1.429 . S
C777 C778 1.523 . S
C778 C762 1.368 . S
C778 C774 1.368 . S
C778 C777 1.523 . S
H779 C754 0.950 . S
H780 C756 0.950 . S
H781 C757 0.949 . S
H782 C759 0.950 . S
H783 C761 0.950 . S
C784 C785 1.349 . S
C784 C786 1.327 . S
C784 H809 0.950 . S
C785 C784 1.349 . S
C785 C801 1.349 . S
C786 C784 1.327 . S
C786 C805 1.429 . S
C786 H810 0.950 . S
C787 C804 1.574 . S
C787 C806 1.368 . S
C787 H811 0.949 . S
H788 C792 0.949 . S
C789 C790 1.349 . S
C789 C791 1.327 . S
C789 H812 0.950 . S
C790 C789 1.349 . S
C790 C802 1.349 . S
C791 C789 1.327 . S
C791 C807 1.429 . S
C791 H813 0.950 . S
C792 H788 0.949 . S
C792 C800 1.574 . S
C792 C808 1.368 . S
H793 C801 0.950 . S
H794 C799 0.950 . S
H795 C800 0.949 . S
H796 C802 0.950 . S
H797 C803 0.950 . S
H798 C804 0.949 . S
C799 H794 0.950 . S
C799 C801 1.327 . S
C799 C805 1.429 . S
C800 C792 1.574 . S
C800 H795 0.949 . S
C800 C806 1.368 . S
C801 C785 1.349 . S
C801 H793 0.950 . S
C801 C799 1.327 . S
C802 C790 1.349 . S
C802 H796 0.950 . S
C802 C803 1.327 . S
C803 H797 0.950 . S
C803 C802 1.327 . S
C803 C807 1.429 . S
C804 C787 1.574 . S
C804 H798 0.949 . S
C804 C808 1.368 . S
C805 C786 1.429 . S
C805 C799 1.429 . S
C805 C806 1.523 . S
C806 C787 1.368 . S
C806 C800 1.368 . S
C806 C805 1.523 . S
C807 C791 1.429 . S
C807 C803 1.429 . S
C807 C808 1.523 . S
C808 C792 1.368 . S
C808 C804 1.368 . S
C808 C807 1.523 . S
H809 C784 0.950 . S
H810 C786 0.950 . S
H811 C787 0.949 . S
H812 C789 0.950 . S
H813 C791 0.950 . S
C814 C815 1.349 . S
C814 C816 1.327 . S
C814 H839 0.950 . S
C815 C814 1.349 . S
C815 C831 1.349 . S
C816 C814 1.327 . S
C816 C835 1.429 . S
C816 H840 0.950 . S
C817 C834 1.574 . S
C817 C836 1.368 . S
C817 H841 0.949 . S
H818 C822 0.949 . S
C819 C820 1.349 . S
C819 C821 1.327 . S
C819 H842 0.950 . S
C820 C819 1.349 . S
C820 C832 1.349 . S
C821 C819 1.327 . S
C821 C837 1.429 . S
C821 H843 0.950 . S
C822 H818 0.949 . S
C822 C830 1.574 . S
C822 C838 1.368 . S
H823 C831 0.950 . S
H824 C829 0.950 . S
H825 C830 0.949 . S
H826 C832 0.950 . S
H827 C833 0.950 . S
H828 C834 0.949 . S
C829 H824 0.950 . S
C829 C831 1.327 . S
C829 C835 1.429 . S
C830 C822 1.574 . S
C830 H825 0.949 . S
C830 C836 1.368 . S
C831 C815 1.349 . S
C831 H823 0.950 . S
C831 C829 1.327 . S
C832 C820 1.349 . S
C832 H826 0.950 . S
C832 C833 1.327 . S
C833 H827 0.950 . S
C833 C832 1.327 . S
C833 C837 1.429 . S
C834 C817 1.574 . S
C834 H828 0.949 . S
C834 C838 1.368 . S
C835 C816 1.429 . S
C835 C829 1.429 . S
C835 C836 1.523 . S
C836 C817 1.368 . S
C836 C830 1.368 . S
C836 C835 1.523 . S
C837 C821 1.429 . S
C837 C833 1.429 . S
C837 C838 1.523 . S
C838 C822 1.368 . S
C838 C834 1.368 . S
C838 C837 1.523 . S
H839 C814 0.950 . S
H840 C816 0.950 . S
H841 C817 0.949 . S
H842 C819 0.950 . S
H843 C821 0.950 . S
C844 C845 1.349 . S
C844 C846 1.327 . S
C844 H869 0.950 . S
C845 C844 1.349 . S
C845 C861 1.349 . S
C846 C844 1.327 . S
C846 C865 1.429 . S
C846 H870 0.950 . S
C847 C864 1.574 . S
C847 C866 1.368 . S
C847 H871 0.949 . S
H848 C852 0.949 . S
C849 C850 1.349 . S
C849 C851 1.327 . S
C849 H872 0.950 . S
C850 C849 1.349 . S
C850 C862 1.349 . S
C851 C849 1.327 . S
C851 C867 1.429 . S
C851 H873 0.950 . S
C852 H848 0.949 . S
C852 C860 1.574 . S
C852 C868 1.368 . S
H853 C861 0.950 . S
H854 C859 0.950 . S
H855 C860 0.949 . S
H856 C862 0.950 . S
H857 C863 0.950 . S
H858 C864 0.949 . S
C859 H854 0.950 . S
C859 C861 1.327 . S
C859 C865 1.429 . S
C860 C852 1.574 . S
C860 H855 0.949 . S
C860 C866 1.368 . S
C861 C845 1.349 . S
C861 H853 0.950 . S
C861 C859 1.327 . S
C862 C850 1.349 . S
C862 H856 0.950 . S
C862 C863 1.327 . S
C863 H857 0.950 . S
C863 C862 1.327 . S
C863 C867 1.429 . S
C864 C847 1.574 . S
C864 H858 0.949 . S
C864 C868 1.368 . S
C865 C846 1.429 . S
C865 C859 1.429 . S
C865 C866 1.523 . S
C866 C847 1.368 . S
C866 C860 1.368 . S
C866 C865 1.523 . S
C867 C851 1.429 . S
C867 C863 1.429 . S
C867 C868 1.523 . S
C868 C852 1.368 . S
C868 C864 1.368 . S
C868 C867 1.523 . S
H869 C844 0.950 . S
H870 C846 0.950 . S
H871 C847 0.949 . S
H872 C849 0.950 . S
H873 C851 0.950 . S
C874 C875 1.349 . S
C874 C876 1.327 . S
C874 H899 0.950 . S
C875 C874 1.349 . S
C875 C891 1.349 . S
C876 C874 1.327 . S
C876 C895 1.429 . S
C876 H900 0.950 . S
C877 C894 1.574 . S
C877 C896 1.368 . S
C877 H901 0.949 . S
H878 C882 0.949 . S
C879 C880 1.349 . S
C879 C881 1.327 . S
C879 H902 0.950 . S
C880 C879 1.349 . S
C880 C892 1.349 . S
C881 C879 1.327 . S
C881 C897 1.429 . S
C881 H903 0.950 . S
C882 H878 0.949 . S
C882 C890 1.574 . S
C882 C898 1.368 . S
H883 C891 0.950 . S
H884 C889 0.950 . S
H885 C890 0.949 . S
H886 C892 0.950 . S
H887 C893 0.950 . S
H888 C894 0.949 . S
C889 H884 0.950 . S
C889 C891 1.327 . S
C889 C895 1.429 . S
C890 C882 1.574 . S
C890 H885 0.949 . S
C890 C896 1.368 . S
C891 C875 1.349 . S
C891 H883 0.950 . S
C891 C889 1.327 . S
C892 C880 1.349 . S
C892 H886 0.950 . S
C892 C893 1.327 . S
C893 H887 0.950 . S
C893 C892 1.327 . S
C893 C897 1.429 . S
C894 C877 1.574 . S
C894 H888 0.949 . S
C894 C898 1.368 . S
C895 C876 1.429 . S
C895 C889 1.429 . S
C895 C896 1.523 . S
C896 C877 1.368 . S
C896 C890 1.368 . S
C896 C895 1.523 . S
C897 C881 1.429 . S
C897 C893 1.429 . S
C897 C898 1.523 . S
C898 C882 1.368 . S
C898 C894 1.368 . S
C898 C897 1.523 . S
H899 C874 0.950 . S
H900 C876 0.950 . S
H901 C877 0.949 . S
H902 C879 0.950 . S
H903 C881 0.950 . S
C904 C905 1.349 . S
C904 C906 1.327 . S
C904 H929 0.950 . S
C905 C904 1.349 . S
C905 C921 1.349 . S
C906 C904 1.327 . S
C906 C925 1.429 . S
C906 H930 0.950 . S
C907 C924 1.574 1_554 S
C907 C926 1.368 . S
C907 H931 0.949 . S
H908 C912 0.949 . S
C909 C910 1.349 . S
C909 C911 1.327 . S
C909 H932 0.950 . S
C910 C909 1.349 . S
C910 C922 1.349 . S
C911 C909 1.327 . S
C911 C927 1.429 . S
C911 H933 0.950 . S
C912 H908 0.949 . S
C912 C920 1.574 1_565 S
C912 C928 1.368 1_554 S
H913 C921 0.950 . S
H914 C919 0.950 . S
H915 C920 0.944 1_565 S
H916 C922 0.950 . S
H917 C923 0.950 . S
H918 C924 0.949 . S
C919 H914 0.950 . S
C919 C921 1.327 . S
C919 C925 1.429 . S
C920 C912 1.574 1_545 S
C920 H915 0.944 1_545 S
C920 C926 1.368 . S
C921 C905 1.349 . S
C921 H913 0.950 . S
C921 C919 1.327 . S
C922 C910 1.349 . S
C922 H916 0.950 . S
C922 C923 1.327 . S
C923 H917 0.950 . S
C923 C922 1.327 . S
C923 C927 1.429 . S
C924 C907 1.574 1_556 S
C924 H918 0.949 . S
C924 C928 1.368 1_545 S
C925 C906 1.429 . S
C925 C919 1.429 . S
C925 C926 1.523 . S
C926 C907 1.368 . S
C926 C920 1.368 . S
C926 C925 1.523 . S
C927 C911 1.429 . S
C927 C923 1.429 . S
C927 C928 1.523 . S
C928 C912 1.368 1_556 S
C928 C924 1.368 1_565 S
C928 C927 1.523 . S
H929 C904 0.950 . S
H930 C906 0.950 . S
H931 C907 0.949 . S
H932 C909 0.950 . S
H933 C911 0.950 . S
C934 C935 1.349 . S
C934 C936 1.327 . S
C934 H959 0.950 . S
C935 C934 1.349 . S
C935 C951 1.349 . S
C936 C934 1.327 . S
C936 C955 1.429 . S
C936 H960 0.950 . S
C937 C954 1.574 1_655 S
C937 C956 1.368 1_556 S
C937 H961 0.949 . S
H938 C942 0.949 . S
C939 C940 1.349 . S
C939 C941 1.327 . S
C939 H962 0.950 . S
C940 C939 1.349 . S
C940 C952 1.349 . S
C941 C939 1.327 . S
C941 C957 1.429 . S
C941 H963 0.950 . S
C942 H938 0.949 . S
C942 C950 1.574 1_556 S
C942 C958 1.368 . S
H943 C951 0.950 . S
H944 C949 0.950 . S
H945 C950 0.946 1_655 S
H946 C952 0.950 . S
H947 C953 0.950 . S
H948 C954 0.949 . S
C949 H944 0.950 . S
C949 C951 1.327 . S
C949 C955 1.429 . S
C950 C942 1.574 1_554 S
C950 H945 0.946 1_455 S
C950 C956 1.368 1_455 S
C951 C935 1.349 . S
C951 H943 0.950 . S
C951 C949 1.327 . S
C952 C940 1.349 . S
C952 H946 0.950 . S
C952 C953 1.327 . S
C953 H947 0.950 . S
C953 C952 1.327 . S
C953 C957 1.429 . S
C954 C937 1.574 1_455 S
C954 H948 0.949 . S
C954 C958 1.368 . S
C955 C936 1.429 . S
C955 C949 1.429 . S
C955 C956 1.523 . S
C956 C937 1.368 1_554 S
C956 C950 1.368 1_655 S
C956 C955 1.523 . S
C957 C941 1.429 . S
C957 C953 1.429 . S
C957 C958 1.523 . S
C958 C942 1.368 . S
C958 C954 1.368 . S
C958 C957 1.523 . S
H959 C934 0.950 . S
H960 C936 0.950 . S
H961 C937 0.949 . S
H962 C939 0.950 . S
H963 C941 0.950 . S
C964 C965 1.349 . S
C964 C966 1.327 . S
C964 H989 0.950 . S
C965 C964 1.349 . S
C965 C981 1.349 . S
C966 C964 1.327 . S
C966 C985 1.429 . S
C966 H990 0.950 . S
C967 C984 1.574 1_554 S
C967 C986 1.368 . S
C967 H991 0.949 . S
H968 C972 0.949 . S
C969 C970 1.349 . S
C969 C971 1.327 . S
C969 H992 0.950 . S
C970 C969 1.349 . S
C970 C982 1.349 . S
C971 C969 1.327 . S
C971 C987 1.429 . S
C971 H993 0.950 . S
C972 H968 0.949 . S
C972 C980 1.574 1_545 S
C972 C988 1.368 1_554 S
H973 C981 0.950 . S
H974 C979 0.950 . S
H975 C980 0.949 . S
H976 C982 0.950 . S
H977 C983 0.950 . S
H978 C984 0.949 . S
C979 H974 0.950 . S
C979 C981 1.327 . S
C979 C985 1.429 . S
C980 C972 1.574 1_565 S
C980 H975 0.949 . S
C980 C986 1.368 . S
C981 C965 1.349 . S
C981 H973 0.950 . S
C981 C979 1.327 . S
C982 C970 1.349 . S
C982 H976 0.950 . S
C982 C983 1.327 . S
C983 H977 0.950 . S
C983 C982 1.327 . S
C983 C987 1.429 . S
C984 C967 1.574 1_556 S
C984 H978 0.949 . S
C984 C988 1.368 1_565 S
C985 C966 1.429 . S
C985 C979 1.429 . S
C985 C986 1.523 . S
C986 C967 1.368 . S
C986 C980 1.368 . S
C986 C985 1.523 . S
C987 C971 1.429 . S
C987 C983 1.429 . S
C987 C988 1.523 . S
C988 C972 1.368 1_556 S
C988 C984 1.368 1_545 S
C988 C987 1.523 . S
H989 C964 0.950 . S
H990 C966 0.950 . S
H991 C967 0.949 . S
H992 C969 0.950 . S
H993 C971 0.950 . S
C994 C995 1.349 . S
C994 C996 1.327 . S
C994 H1019 0.950 . S
C995 C994 1.349 . S
C995 C1011 1.349 . S
C996 C994 1.327 . S
C996 C1015 1.429 . S
C996 H1020 0.950 . S
C997 C1014 1.574 1_455 S
C997 C1016 1.368 . S
C997 H1021 0.949 . S
H998 C1002 0.949 . S
C999 C1000 1.349 . S
C999 C1001 1.327 . S
C999 H1022 0.950 . S
C1000 C999 1.349 . S
C1000 C1012 1.349 . S
C1001 C999 1.327 . S
C1001 C1017 1.429 . S
C1001 H1023 0.950 . S
C1002 H998 0.949 . S
C1002 C1010 1.574 . S
C1002 C1018 1.368 1_455 S
H1003 C1011 0.950 . S
H1004 C1009 0.950 . S
H1005 C1010 0.949 . S
H1006 C1012 0.950 . S
H1007 C1013 0.950 . S
H1008 C1014 0.949 . S
C1009 H1004 0.950 . S
C1009 C1011 1.327 . S
C1009 C1015 1.429 . S
C1010 C1002 1.574 . S
C1010 H1005 0.949 . S
C1010 C1016 1.368 1_556 S
C1011 C995 1.349 . S
C1011 H1003 0.950 . S
C1011 C1009 1.327 . S
C1012 C1000 1.349 . S
C1012 H1006 0.950 . S
C1012 C1013 1.327 . S
C1013 H1007 0.950 . S
C1013 C1012 1.327 . S
C1013 C1017 1.429 . S
C1014 C997 1.574 1_655 S
C1014 H1008 0.949 . S
C1014 C1018 1.368 1_554 S
C1015 C996 1.429 . S
C1015 C1009 1.429 . S
C1015 C1016 1.523 . S
C1016 C997 1.368 . S
C1016 C1010 1.368 1_554 S
C1016 C1015 1.523 . S
C1017 C1001 1.429 . S
C1017 C1013 1.429 . S
C1017 C1018 1.523 . S
C1018 C1002 1.368 1_655 S
C1018 C1014 1.368 1_556 S
C1018 C1017 1.523 . S
H1019 C994 0.950 . S
H1020 C996 0.950 . S
H1021 C997 0.949 . S
H1022 C999 0.950 . S
H1023 C1001 0.950 . S
C1024 C1025 1.349 . S
C1024 C1026 1.327 . S
C1024 H1049 0.950 . S
C1025 C1024 1.349 . S
C1025 C1041 1.349 . S
C1026 C1024 1.327 . S
C1026 C1045 1.429 . S
C1026 H1050 0.950 . S
C1027 C1044 1.574 . S
C1027 C1046 1.368 1_455 S
C1027 H1051 0.949 . S
H1028 C1032 0.949 . S
C1029 C1030 1.349 . S
C1029 C1031 1.327 . S
C1029 H1052 0.950 . S
C1030 C1029 1.349 . S
C1030 C1042 1.349 . S
C1031 C1029 1.327 . S
C1031 C1047 1.429 . S
C1031 H1053 0.950 . S
C1032 H1028 0.949 . S
C1032 C1040 1.574 1_545 S
C1032 C1048 1.368 1_655 S
H1033 C1041 0.950 . S
H1034 C1039 0.950 . S
H1035 C1040 0.949 . S
H1036 C1042 0.950 . S
H1037 C1043 0.950 . S
H1038 C1044 0.949 . S
C1039 H1034 0.950 . S
C1039 C1041 1.327 . S
C1039 C1045 1.429 . S
C1040 C1032 1.574 1_565 S
C1040 H1035 0.949 . S
C1040 C1046 1.368 . S
C1041 C1025 1.349 . S
C1041 H1033 0.950 . S
C1041 C1039 1.327 . S
C1042 C1030 1.349 . S
C1042 H1036 0.950 . S
C1042 C1043 1.327 . S
C1043 H1037 0.950 . S
C1043 C1042 1.327 . S
C1043 C1047 1.429 . S
C1044 C1027 1.574 . S
C1044 H1038 0.949 . S
C1044 C1048 1.368 1_565 S
C1045 C1026 1.429 . S
C1045 C1039 1.429 . S
C1045 C1046 1.523 . S
C1046 C1027 1.368 1_655 S
C1046 C1040 1.368 . S
C1046 C1045 1.523 . S
C1047 C1031 1.429 . S
C1047 C1043 1.429 . S
C1047 C1048 1.523 . S
C1048 C1032 1.368 1_455 S
C1048 C1044 1.368 1_545 S
C1048 C1047 1.523 . S
H1049 C1024 0.950 . S
H1050 C1026 0.950 . S
H1051 C1027 0.949 . S
H1052 C1029 0.950 . S
H1053 C1031 0.950 . S
C1054 C1055 1.349 . S
C1054 C1056 1.327 . S
C1054 H1079 0.950 . S
C1055 C1054 1.349 . S
C1055 C1071 1.349 . S
C1056 C1054 1.327 . S
C1056 C1075 1.429 . S
C1056 H1080 0.950 . S
C1057 C1074 1.574 1_565 S
C1057 C1076 1.368 1_655 S
C1057 H1081 0.949 . S
H1058 C1062 0.949 . S
C1059 C1060 1.349 . S
C1059 C1061 1.327 . S
C1059 H1082 0.950 . S
C1060 C1059 1.349 . S
C1060 C1072 1.349 . S
C1061 C1059 1.327 . S
C1061 C1077 1.429 . S
C1061 H1083 0.950 . S
C1062 H1058 0.949 . S
C1062 C1070 1.574 1_655 S
C1062 C1078 1.368 . S
H1063 C1071 0.950 . S
H1064 C1069 0.950 . S
H1065 C1070 0.949 . S
H1066 C1072 0.950 . S
H1067 C1073 0.950 . S
H1068 C1074 0.949 . S
C1069 H1064 0.950 . S
C1069 C1071 1.327 . S
C1069 C1075 1.429 . S
C1070 C1062 1.574 1_455 S
C1070 H1065 0.949 . S
C1070 C1076 1.368 1_545 S
C1071 C1055 1.349 . S
C1071 H1063 0.950 . S
C1071 C1069 1.327 . S
C1072 C1060 1.349 . S
C1072 H1066 0.950 . S
C1072 C1073 1.327 . S
C1073 H1067 0.950 . S
C1073 C1072 1.327 . S
C1073 C1077 1.429 . S
C1074 C1057 1.574 1_545 S
C1074 H1068 0.949 . S
C1074 C1078 1.368 . S
C1075 C1056 1.429 . S
C1075 C1069 1.429 . S
C1075 C1076 1.523 . S
C1076 C1057 1.368 1_455 S
C1076 C1070 1.368 1_565 S
C1076 C1075 1.523 . S
C1077 C1061 1.429 . S
C1077 C1073 1.429 . S
C1077 C1078 1.523 . S
C1078 C1062 1.368 . S
C1078 C1074 1.368 . S
C1078 C1077 1.523 . S
H1079 C1054 0.950 . S
H1080 C1056 0.950 . S
H1081 C1057 0.949 . S
H1082 C1059 0.950 . S
H1083 C1061 0.950 . S
C1084 C1085 1.349 . S
C1084 C1086 1.327 . S
C1084 H1109 0.950 . S
C1085 C1084 1.349 . S
C1085 C1101 1.349 . S
C1086 C1084 1.327 . S
C1086 C1105 1.429 . S
C1086 H1110 0.950 . S
C1087 C1104 1.574 . S
C1087 C1106 1.368 . S
C1087 H1111 0.949 . S
H1088 C1092 0.949 . S
C1089 C1090 1.349 . S
C1089 C1091 1.327 . S
C1089 H1112 0.950 . S
C1090 C1089 1.349 . S
C1090 C1102 1.349 . S
C1091 C1089 1.327 . S
C1091 C1107 1.429 . S
C1091 H1113 0.950 . S
C1092 H1088 0.949 . S
C1092 C1100 1.574 . S
C1092 C1108 1.368 . S
H1093 C1101 0.950 . S
H1094 C1099 0.950 . S
H1095 C1100 0.949 . S
H1096 C1102 0.950 . S
H1097 C1103 0.950 . S
H1098 C1104 0.949 . S
C1099 H1094 0.950 . S
C1099 C1101 1.327 . S
C1099 C1105 1.429 . S
C1100 C1092 1.574 . S
C1100 H1095 0.949 . S
C1100 C1106 1.368 . S
C1101 C1085 1.349 . S
C1101 H1093 0.950 . S
C1101 C1099 1.327 . S
C1102 C1090 1.349 . S
C1102 H1096 0.950 . S
C1102 C1103 1.327 . S
C1103 H1097 0.950 . S
C1103 C1102 1.327 . S
C1103 C1107 1.429 . S
C1104 C1087 1.574 . S
C1104 H1098 0.949 . S
C1104 C1108 1.368 . S
C1105 C1086 1.429 . S
C1105 C1099 1.429 . S
C1105 C1106 1.523 . S
C1106 C1087 1.368 . S
C1106 C1100 1.368 . S
C1106 C1105 1.523 . S
C1107 C1091 1.429 . S
C1107 C1103 1.429 . S
C1107 C1108 1.523 . S
C1108 C1092 1.368 . S
C1108 C1104 1.368 . S
C1108 C1107 1.523 . S
H1109 C1084 0.950 . S
H1110 C1086 0.950 . S
H1111 C1087 0.949 . S
H1112 C1089 0.950 . S
H1113 C1091 0.950 . S
C1114 C1115 1.349 . S
C1114 C1116 1.327 . S
C1114 H1139 0.950 . S
C1115 C1114 1.349 . S
C1115 C1131 1.349 . S
C1116 C1114 1.327 . S
C1116 C1135 1.429 . S
C1116 H1140 0.950 . S
C1117 C1134 1.574 . S
C1117 C1136 1.368 . S
C1117 H1141 0.949 . S
H1118 C1122 0.949 . S
C1119 C1120 1.349 . S
C1119 C1121 1.327 . S
C1119 H1142 0.950 . S
C1120 C1119 1.349 . S
C1120 C1132 1.349 . S
C1121 C1119 1.327 . S
C1121 C1137 1.429 . S
C1121 H1143 0.950 . S
C1122 H1118 0.949 . S
C1122 C1130 1.574 . S
C1122 C1138 1.368 . S
H1123 C1131 0.950 . S
H1124 C1129 0.950 . S
H1125 C1130 0.949 . S
H1126 C1132 0.950 . S
H1127 C1133 0.950 . S
H1128 C1134 0.949 . S
C1129 H1124 0.950 . S
C1129 C1131 1.327 . S
C1129 C1135 1.429 . S
C1130 C1122 1.574 . S
C1130 H1125 0.949 . S
C1130 C1136 1.368 . S
C1131 C1115 1.349 . S
C1131 H1123 0.950 . S
C1131 C1129 1.327 . S
C1132 C1120 1.349 . S
C1132 H1126 0.950 . S
C1132 C1133 1.327 . S
C1133 H1127 0.950 . S
C1133 C1132 1.327 . S
C1133 C1137 1.429 . S
C1134 C1117 1.574 . S
C1134 H1128 0.949 . S
C1134 C1138 1.368 . S
C1135 C1116 1.429 . S
C1135 C1129 1.429 . S
C1135 C1136 1.523 . S
C1136 C1117 1.368 . S
C1136 C1130 1.368 . S
C1136 C1135 1.523 . S
C1137 C1121 1.429 . S
C1137 C1133 1.429 . S
C1137 C1138 1.523 . S
C1138 C1122 1.368 . S
C1138 C1134 1.368 . S
C1138 C1137 1.523 . S
H1139 C1114 0.950 . S
H1140 C1116 0.950 . S
H1141 C1117 0.949 . S
H1142 C1119 0.950 . S
H1143 C1121 0.950 . S
C1144 C1145 1.349 . S
C1144 C1146 1.327 . S
C1144 H1169 0.950 . S
C1145 C1144 1.349 . S
C1145 C1161 1.349 . S
C1146 C1144 1.327 . S
C1146 C1165 1.429 . S
C1146 H1170 0.950 . S
C1147 C1164 1.574 . S
C1147 C1166 1.368 . S
C1147 H1171 0.949 . S
H1148 C1152 0.949 . S
C1149 C1150 1.349 . S
C1149 C1151 1.327 . S
C1149 H1172 0.950 . S
C1150 C1149 1.349 . S
C1150 C1162 1.349 . S
C1151 C1149 1.327 . S
C1151 C1167 1.429 . S
C1151 H1173 0.950 . S
C1152 H1148 0.949 . S
C1152 C1160 1.574 . S
C1152 C1168 1.368 . S
H1153 C1161 0.950 . S
H1154 C1159 0.950 . S
H1155 C1160 0.949 . S
H1156 C1162 0.950 . S
H1157 C1163 0.950 . S
H1158 C1164 0.949 . S
C1159 H1154 0.950 . S
C1159 C1161 1.327 . S
C1159 C1165 1.429 . S
C1160 C1152 1.574 . S
C1160 H1155 0.949 . S
C1160 C1166 1.368 . S
C1161 C1145 1.349 . S
C1161 H1153 0.950 . S
C1161 C1159 1.327 . S
C1162 C1150 1.349 . S
C1162 H1156 0.950 . S
C1162 C1163 1.327 . S
C1163 H1157 0.950 . S
C1163 C1162 1.327 . S
C1163 C1167 1.429 . S
C1164 C1147 1.574 . S
C1164 H1158 0.949 . S
C1164 C1168 1.368 . S
C1165 C1146 1.429 . S
C1165 C1159 1.429 . S
C1165 C1166 1.523 . S
C1166 C1147 1.368 . S
C1166 C1160 1.368 . S
C1166 C1165 1.523 . S
C1167 C1151 1.429 . S
C1167 C1163 1.429 . S
C1167 C1168 1.523 . S
C1168 C1152 1.368 . S
C1168 C1164 1.368 . S
C1168 C1167 1.523 . S
H1169 C1144 0.950 . S
H1170 C1146 0.950 . S
H1171 C1147 0.949 . S
H1172 C1149 0.950 . S
H1173 C1151 0.950 . S
C1174 C1175 1.349 . S
C1174 C1176 1.327 . S
C1174 H1199 0.950 . S
C1175 C1174 1.349 . S
C1175 C1191 1.349 . S
C1176 C1174 1.327 . S
C1176 C1195 1.429 . S
C1176 H1200 0.950 . S
C1177 C1194 1.574 . S
C1177 C1196 1.368 . S
C1177 H1201 0.949 . S
H1178 C1182 0.949 . S
C1179 C1180 1.349 . S
C1179 C1181 1.327 . S
C1179 H1202 0.950 . S
C1180 C1179 1.349 . S
C1180 C1192 1.349 . S
C1181 C1179 1.327 . S
C1181 C1197 1.429 . S
C1181 H1203 0.950 . S
C1182 H1178 0.949 . S
C1182 C1190 1.574 . S
C1182 C1198 1.368 . S
H1183 C1191 0.950 . S
H1184 C1189 0.950 . S
H1185 C1190 0.949 . S
H1186 C1192 0.950 . S
H1187 C1193 0.950 . S
H1188 C1194 0.949 . S
C1189 H1184 0.950 . S
C1189 C1191 1.327 . S
C1189 C1195 1.429 . S
C1190 C1182 1.574 . S
C1190 H1185 0.949 . S
C1190 C1196 1.368 . S
C1191 C1175 1.349 . S
C1191 H1183 0.950 . S
C1191 C1189 1.327 . S
C1192 C1180 1.349 . S
C1192 H1186 0.950 . S
C1192 C1193 1.327 . S
C1193 H1187 0.950 . S
C1193 C1192 1.327 . S
C1193 C1197 1.429 . S
C1194 C1177 1.574 . S
C1194 H1188 0.949 . S
C1194 C1198 1.368 . S
C1195 C1176 1.429 . S
C1195 C1189 1.429 . S
C1195 C1196 1.523 . S
C1196 C1177 1.368 . S
C1196 C1190 1.368 . S
C1196 C1195 1.523 . S
C1197 C1181 1.429 . S
C1197 C1193 1.429 . S
C1197 C1198 1.523 . S
C1198 C1182 1.368 . S
C1198 C1194 1.368 . S
C1198 C1197 1.523 . S
H1199 C1174 0.950 . S
H1200 C1176 0.950 . S
H1201 C1177 0.949 . S
H1202 C1179 0.950 . S
H1203 C1181 0.950 . S
C1204 C1205 1.349 . S
C1204 C1206 1.327 . S
C1204 H1229 0.950 . S
C1205 C1204 1.349 . S
C1205 C1221 1.349 . S
C1206 C1204 1.327 . S
C1206 C1225 1.429 . S
C1206 H1230 0.950 . S
C1207 C1224 1.574 . S
C1207 C1226 1.368 . S
C1207 H1231 0.949 . S
H1208 C1212 0.949 . S
C1209 C1210 1.349 . S
C1209 C1211 1.327 . S
C1209 H1232 0.950 . S
C1210 C1209 1.349 . S
C1210 C1222 1.349 . S
C1211 C1209 1.327 . S
C1211 C1227 1.429 . S
C1211 H1233 0.950 . S
C1212 H1208 0.949 . S
C1212 C1220 1.574 . S
C1212 C1228 1.368 . S
H1213 C1221 0.950 . S
H1214 C1219 0.950 . S
H1215 C1220 0.949 . S
H1216 C1222 0.950 . S
H1217 C1223 0.950 . S
H1218 C1224 0.949 . S
C1219 H1214 0.950 . S
C1219 C1221 1.327 . S
C1219 C1225 1.429 . S
C1220 C1212 1.574 . S
C1220 H1215 0.949 . S
C1220 C1226 1.368 . S
C1221 C1205 1.349 . S
C1221 H1213 0.950 . S
C1221 C1219 1.327 . S
C1222 C1210 1.349 . S
C1222 H1216 0.950 . S
C1222 C1223 1.327 . S
C1223 H1217 0.950 . S
C1223 C1222 1.327 . S
C1223 C1227 1.429 . S
C1224 C1207 1.574 . S
C1224 H1218 0.949 . S
C1224 C1228 1.368 . S
C1225 C1206 1.429 . S
C1225 C1219 1.429 . S
C1225 C1226 1.523 . S
C1226 C1207 1.368 . S
C1226 C1220 1.368 . S
C1226 C1225 1.523 . S
C1227 C1211 1.429 . S
C1227 C1223 1.429 . S
C1227 C1228 1.523 . S
C1228 C1212 1.368 . S
C1228 C1224 1.368 . S
C1228 C1227 1.523 . S
H1229 C1204 0.950 . S
H1230 C1206 0.950 . S
H1231 C1207 0.949 . S
H1232 C1209 0.950 . S
H1233 C1211 0.950 . S
C1234 C1235 1.349 . S
C1234 C1236 1.327 . S
C1234 H1259 0.950 . S
C1235 C1234 1.349 . S
C1235 C1251 1.349 . S
C1236 C1234 1.327 . S
C1236 C1255 1.429 . S
C1236 H1260 0.950 . S
C1237 C1254 1.574 . S
C1237 C1256 1.368 . S
C1237 H1261 0.949 . S
H1238 C1242 0.949 . S
C1239 C1240 1.349 . S
C1239 C1241 1.327 . S
C1239 H1262 0.950 . S
C1240 C1239 1.349 . S
C1240 C1252 1.349 . S
C1241 C1239 1.327 . S
C1241 C1257 1.429 . S
C1241 H1263 0.950 . S
C1242 H1238 0.949 . S
C1242 C1250 1.574 . S
C1242 C1258 1.368 . S
H1243 C1251 0.950 . S
H1244 C1249 0.950 . S
H1245 C1250 0.949 . S
H1246 C1252 0.950 . S
H1247 C1253 0.950 . S
H1248 C1254 0.949 . S
C1249 H1244 0.950 . S
C1249 C1251 1.327 . S
C1249 C1255 1.429 . S
C1250 C1242 1.574 . S
C1250 H1245 0.949 . S
C1250 C1256 1.368 . S
C1251 C1235 1.349 . S
C1251 H1243 0.950 . S
C1251 C1249 1.327 . S
C1252 C1240 1.349 . S
C1252 H1246 0.950 . S
C1252 C1253 1.327 . S
C1253 H1247 0.950 . S
C1253 C1252 1.327 . S
C1253 C1257 1.429 . S
C1254 C1237 1.574 . S
C1254 H1248 0.949 . S
C1254 C1258 1.368 . S
C1255 C1236 1.429 . S
C1255 C1249 1.429 . S
C1255 C1256 1.523 . S
C1256 C1237 1.368 . S
C1256 C1250 1.368 . S
C1256 C1255 1.523 . S
C1257 C1241 1.429 . S
C1257 C1253 1.429 . S
C1257 C1258 1.523 . S
C1258 C1242 1.368 . S
C1258 C1254 1.368 . S
C1258 C1257 1.523 . S
H1259 C1234 0.950 . S
H1260 C1236 0.950 . S
H1261 C1237 0.949 . S
H1262 C1239 0.950 . S
H1263 C1241 0.950 . S
C185 C14 2.902 . S
C190 P146 2.725 . S
C215 C28 2.713 . S
C220 P169 2.730 . S
C245 P100 2.012 . S
C250 C60 2.167 . S
C275 C86 2.669 . S
C280 P123 2.667 . S
C305 P123 2.632 . S
C310 C17 2.774 . S
C335 C40 2.384 . S
C340 P146 2.384 . S
C365 P169 2.545 . S
C370 C63 2.569 . S
C395 P100 2.236 . S
C400 C83 2.274 . S
C425 P100 2.209 . S
C430 C37 2.187 . S
C455 C51 3.021 . S
C460 P123 3.031 . S
C485 C74 2.478 . S
C490 P146 2.491 . S
C515 P169 2.722 . S
C520 C5 2.920 . S
C545 P54 2.725 . S
C550 C106 2.902 . S
C575 P77 2.730 . S
C580 C120 2.713 . S
C605 P8 2.012 . S
C610 C152 2.167 . S
C635 C178 2.669 . S
C640 P31 2.667 . S
C665 P31 2.632 . S
C670 C109 2.774 . S
C695 P54 2.384 . S
C700 C132 2.384 . S
C725 P77 2.545 . S
C730 C155 2.569 . S
C755 C175 2.274 . S
C760 P8 2.236 . S
C785 P8 2.209 . S
C790 C129 2.187 . S
C815 C143 3.021 . S
C820 P31 3.031 . S
C845 P54 2.491 . S
C850 C166 2.478 . S
C875 P77 2.722 . S
C880 C97 2.920 . S
C905 C10 1.304 . S
C910 C32 0.429 . S
C935 C66 0.712 . S
C940 C33 1.020 . S
C965 C56 1.021 . S
C970 C89 0.687 . S
C995 C20 1.038 . S
C1000 C78 0.564 . S
C1025 C55 0.774 . S
C1030 C9 0.830 . S
C1055 C43 0.654 . S
C1060 C79 0.962 . S
C1085 C124 0.429 . S
C1090 C102 1.304 . S
C1115 C125 1.020 . S
C1120 C158 0.712 . S
C1145 C148 1.021 . S
C1150 C181 0.687 . S
C1175 C170 0.564 . S
C1180 C112 1.038 . S
C1205 C101 0.830 . S
C1210 C147 0.774 . S
C1235 C171 0.962 . S
C1240 C135 0.654 . S
