# Generated by pormake.
# Topology afi, (4)-cn, num edge types: 1
# Building blocks:
#     Node 0, Type 0, BuildingBlock: NAHDIM_clean_sbu_0, # of connection points: 4
#     Node 1, Type 0, BuildingBlock: NAHDIM_clean_sbu_0, # of connection points: 4
#     Node 2, Type 0, BuildingBlock: NAHDIM_clean_sbu_0, # of connection points: 4
#     Node 3, Type 0, BuildingBlock: NAHDIM_clean_sbu_0, # of connection points: 4
#     Node 4, Type 0, BuildingBlock: NAHDIM_clean_sbu_0, # of connection points: 4
#     Node 5, Type 0, BuildingBlock: NAHDIM_clean_sbu_0, # of connection points: 4
#     Node 6, Type 0, BuildingBlock: NAHDIM_clean_sbu_0, # of connection points: 4
#     Node 7, Type 0, BuildingBlock: NAHDIM_clean_sbu_0, # of connection points: 4
#     Node 8, Type 0, BuildingBlock: NAHDIM_clean_sbu_0, # of connection points: 4
#     Node 9, Type 0, BuildingBlock: NAHDIM_clean_sbu_0, # of connection points: 4
#     Node 10, Type 0, BuildingBlock: NAHDIM_clean_sbu_0, # of connection points: 4
#     Node 11, Type 0, BuildingBlock: NAHDIM_clean_sbu_0, # of connection points: 4
#     Node 12, Type 0, BuildingBlock: NAHDIM_clean_sbu_0, # of connection points: 4
#     Node 13, Type 0, BuildingBlock: NAHDIM_clean_sbu_0, # of connection points: 4
#     Node 14, Type 0, BuildingBlock: NAHDIM_clean_sbu_0, # of connection points: 4
#     Node 15, Type 0, BuildingBlock: NAHDIM_clean_sbu_0, # of connection points: 4
#     Node 16, Type 0, BuildingBlock: NAHDIM_clean_sbu_0, # of connection points: 4
#     Node 17, Type 0, BuildingBlock: NAHDIM_clean_sbu_0, # of connection points: 4
#     Node 18, Type 0, BuildingBlock: NAHDIM_clean_sbu_0, # of connection points: 4
#     Node 19, Type 0, BuildingBlock: NAHDIM_clean_sbu_0, # of connection points: 4
#     Node 20, Type 0, BuildingBlock: NAHDIM_clean_sbu_0, # of connection points: 4
#     Node 21, Type 0, BuildingBlock: NAHDIM_clean_sbu_0, # of connection points: 4
#     Node 22, Type 0, BuildingBlock: NAHDIM_clean_sbu_0, # of connection points: 4
#     Node 23, Type 0, BuildingBlock: NAHDIM_clean_sbu_0, # of connection points: 4
#     Edge 24, Type (0, 0), BuildingBlock: XIVTED_clean_linker_0, # of connection points: 2
#     Edge 25, Type (0, 0), BuildingBlock: XIVTED_clean_linker_0, # of connection points: 2
#     Edge 26, Type (0, 0), BuildingBlock: XIVTED_clean_linker_0, # of connection points: 2
#     Edge 27, Type (0, 0), BuildingBlock: XIVTED_clean_linker_0, # of connection points: 2
#     Edge 28, Type (0, 0), BuildingBlock: XIVTED_clean_linker_0, # of connection points: 2
#     Edge 29, Type (0, 0), BuildingBlock: XIVTED_clean_linker_0, # of connection points: 2
#     Edge 30, Type (0, 0), BuildingBlock: XIVTED_clean_linker_0, # of connection points: 2
#     Edge 31, Type (0, 0), BuildingBlock: XIVTED_clean_linker_0, # of connection points: 2
#     Edge 32, Type (0, 0), BuildingBlock: XIVTED_clean_linker_0, # of connection points: 2
#     Edge 33, Type (0, 0), BuildingBlock: XIVTED_clean_linker_0, # of connection points: 2
#     Edge 34, Type (0, 0), BuildingBlock: XIVTED_clean_linker_0, # of connection points: 2
#     Edge 35, Type (0, 0), BuildingBlock: XIVTED_clean_linker_0, # of connection points: 2
#     Edge 36, Type (0, 0), BuildingBlock: XIVTED_clean_linker_0, # of connection points: 2
#     Edge 37, Type (0, 0), BuildingBlock: XIVTED_clean_linker_0, # of connection points: 2
#     Edge 38, Type (0, 0), BuildingBlock: XIVTED_clean_linker_0, # of connection points: 2
#     Edge 39, Type (0, 0), BuildingBlock: XIVTED_clean_linker_0, # of connection points: 2
#     Edge 40, Type (0, 0), BuildingBlock: XIVTED_clean_linker_0, # of connection points: 2
#     Edge 41, Type (0, 0), BuildingBlock: XIVTED_clean_linker_0, # of connection points: 2
#     Edge 42, Type (0, 0), BuildingBlock: XIVTED_clean_linker_0, # of connection points: 2
#     Edge 43, Type (0, 0), BuildingBlock: XIVTED_clean_linker_0, # of connection points: 2
#     Edge 44, Type (0, 0), BuildingBlock: XIVTED_clean_linker_0, # of connection points: 2
#     Edge 45, Type (0, 0), BuildingBlock: XIVTED_clean_linker_0, # of connection points: 2
#     Edge 46, Type (0, 0), BuildingBlock: XIVTED_clean_linker_0, # of connection points: 2
#     Edge 47, Type (0, 0), BuildingBlock: XIVTED_clean_linker_0, # of connection points: 2
#     Edge 48, Type (0, 0), BuildingBlock: XIVTED_clean_linker_0, # of connection points: 2
#     Edge 49, Type (0, 0), BuildingBlock: XIVTED_clean_linker_0, # of connection points: 2
#     Edge 50, Type (0, 0), BuildingBlock: XIVTED_clean_linker_0, # of connection points: 2
#     Edge 51, Type (0, 0), BuildingBlock: XIVTED_clean_linker_0, # of connection points: 2
#     Edge 52, Type (0, 0), BuildingBlock: XIVTED_clean_linker_0, # of connection points: 2
#     Edge 53, Type (0, 0), BuildingBlock: XIVTED_clean_linker_0, # of connection points: 2
#     Edge 54, Type (0, 0), BuildingBlock: XIVTED_clean_linker_0, # of connection points: 2
#     Edge 55, Type (0, 0), BuildingBlock: XIVTED_clean_linker_0, # of connection points: 2
#     Edge 56, Type (0, 0), BuildingBlock: XIVTED_clean_linker_0, # of connection points: 2
#     Edge 57, Type (0, 0), BuildingBlock: XIVTED_clean_linker_0, # of connection points: 2
#     Edge 58, Type (0, 0), BuildingBlock: XIVTED_clean_linker_0, # of connection points: 2
#     Edge 59, Type (0, 0), BuildingBlock: XIVTED_clean_linker_0, # of connection points: 2
#     Edge 60, Type (0, 0), BuildingBlock: XIVTED_clean_linker_0, # of connection points: 2
#     Edge 61, Type (0, 0), BuildingBlock: XIVTED_clean_linker_0, # of connection points: 2
#     Edge 62, Type (0, 0), BuildingBlock: XIVTED_clean_linker_0, # of connection points: 2
#     Edge 63, Type (0, 0), BuildingBlock: XIVTED_clean_linker_0, # of connection points: 2
#     Edge 64, Type (0, 0), BuildingBlock: XIVTED_clean_linker_0, # of connection points: 2
#     Edge 65, Type (0, 0), BuildingBlock: XIVTED_clean_linker_0, # of connection points: 2
#     Edge 66, Type (0, 0), BuildingBlock: XIVTED_clean_linker_0, # of connection points: 2
#     Edge 67, Type (0, 0), BuildingBlock: XIVTED_clean_linker_0, # of connection points: 2
#     Edge 68, Type (0, 0), BuildingBlock: XIVTED_clean_linker_0, # of connection points: 2
#     Edge 69, Type (0, 0), BuildingBlock: XIVTED_clean_linker_0, # of connection points: 2
#     Edge 70, Type (0, 0), BuildingBlock: XIVTED_clean_linker_0, # of connection points: 2
#     Edge 71, Type (0, 0), BuildingBlock: XIVTED_clean_linker_0, # of connection points: 2
# Relax obj value: 0.071
# Max RMSD: 0.083
# Mean RMSD: 0.083
data_MOF--net-afi--node1-NAHDIM_clean_sbu_0--edge1-XIVTED_clean_linker_0
_symmetry_space_group_name_H-M    P1
_symmetry_Int_Tables_number       1
_symmetry_cell_setting            triclinic
loop_
_symmetry_equiv_pos_as_xyz
'x, y, z'
_cell_length_a     68.780715
_cell_length_b     68.800618
_cell_length_c     39.440774
_cell_angle_alpha  89.924634
_cell_angle_beta   90.028678
_cell_angle_gamma 120.19695
loop_
_atom_site_label
_atom_site_type_symbol
_atom_site_fract_x
_atom_site_fract_y
_atom_site_fract_z
_atom_type_partial_charge
C0 C 0.42732 0.14458 0.22001 0.0
O1 O 0.408 0.12716 0.21104 0.0
O2 O 0.47678 0.12225 0.21062 0.0
Zn3 Zn 0.44844 0.11993 0.19239 0.0
O4 O 0.45127 0.12461 0.14182 0.0
C5 C 0.41472 0.0734 0.18257 0.0
O6 O 0.42349 0.07736 0.15203 0.0
O7 O 0.44548 0.14453 0.21443 0.0
C8 C 0.43568 0.12468 0.12463 0.0
O9 O 0.41762 0.12193 0.1403 0.0
C10 C 0.48349 0.10885 0.2018 0.0
O11 O 0.47167 0.09294 0.1797 0.0
O12 O 0.42237 0.08928 0.20413 0.0
C13 C 0.29208 0.46253 0.20853 0.0
O14 O 0.30883 0.48143 0.19674 0.0
O15 O 0.3488 0.47735 0.21175 0.0
Zn16 Zn 0.3232 0.44925 0.1917 0.0
O17 O 0.32312 0.45261 0.14117 0.0
C18 C 0.33652 0.41616 0.18306 0.0
O19 O 0.34236 0.42556 0.15297 0.0
O20 O 0.29414 0.4452 0.20966 0.0
C21 C 0.30609 0.43893 0.12392 0.0
O22 O 0.28858 0.42268 0.13959 0.0
C23 C 0.3676 0.48781 0.19652 0.0
O24 O 0.37015 0.47999 0.1675 0.0
O25 O 0.32735 0.42315 0.20398 0.0
C26 C 0.81975 0.29331 0.19307 0.0
O27 O 0.81857 0.30548 0.16832 0.0
O28 O 0.86354 0.35525 0.21217 0.0
Zn29 Zn 0.86552 0.32901 0.19405 0.0
O30 O 0.86778 0.33019 0.14324 0.0
C31 C 0.90674 0.3267 0.19869 0.0
O32 O 0.90239 0.31953 0.16722 0.0
O33 O 0.83837 0.30015 0.20825 0.0
C34 C 0.88308 0.34705 0.1274 0.0
O35 O 0.89794 0.36463 0.14462 0.0
C36 C 0.85657 0.36643 0.19568 0.0
O37 O 0.84933 0.36055 0.16446 0.0
O38 O 0.89322 0.33102 0.21437 0.0
C39 C 0.55719 0.84488 0.21039 0.0
O40 O 0.57537 0.85964 0.1942 0.0
O41 O 0.51137 0.87301 0.21183 0.0
Zn42 Zn 0.53871 0.87372 0.1922 0.0
O43 O 0.53561 0.86966 0.14144 0.0
C44 C 0.56938 0.92045 0.18521 0.0
O45 O 0.55598 0.91722 0.15944 0.0
O46 O 0.54057 0.84805 0.21283 0.0
C47 C 0.55288 0.87568 0.123 0.0
O48 O 0.57273 0.88429 0.13744 0.0
C49 C 0.4994 0.87907 0.19544 0.0
O50 O 0.5047 0.88594 0.16393 0.0
O51 O 0.56567 0.90378 0.20371 0.0
C52 C 0.70318 0.54356 0.19002 0.0
O53 O 0.69806 0.53788 0.15809 0.0
O54 O 0.63427 0.50616 0.21327 0.0
Zn55 Zn 0.65778 0.53578 0.19325 0.0
O56 O 0.65677 0.53518 0.14235 0.0
C57 C 0.64954 0.56203 0.24076 0.0
O58 O 0.6527 0.54935 0.26242 0.0
O59 O 0.68855 0.54359 0.20964 0.0
C60 C 0.64215 0.53761 0.1262 0.0
O61 O 0.62705 0.54002 0.14315 0.0
C62 C 0.62084 0.48918 0.19568 0.0
O63 O 0.62253 0.49024 0.16248 0.0
O64 O 0.65123 0.55949 0.20923 0.0
C65 C 0.16657 0.6989 0.20197 0.0
O66 O 0.16895 0.68184 0.19291 0.0
O67 O 0.12484 0.64231 0.19843 0.0
Zn68 Zn 0.12161 0.66819 0.18192 0.0
O69 O 0.12116 0.66846 0.13101 0.0
C70 C 0.08808 0.6592 0.23132 0.0
O71 O 0.10364 0.65951 0.25104 0.0
O72 O 0.14735 0.69719 0.19935 0.0
C73 C 0.11167 0.67767 0.11557 0.0
O74 O 0.10256 0.68718 0.13332 0.0
C75 C 0.11222 0.62266 0.18679 0.0
O76 O 0.09757 0.61962 0.163 0.0
O77 O 0.09222 0.66335 0.19993 0.0
C78 C 0.84691 0.56757 0.29034 0.0
O79 O 0.85156 0.57296 0.32243 0.0
O80 O 0.87477 0.52379 0.27691 0.0
Zn81 Zn 0.87999 0.55313 0.29619 0.0
O82 O 0.87522 0.54962 0.34678 0.0
C83 C 0.92759 0.57737 0.30281 0.0
O84 O 0.92245 0.56257 0.32724 0.0
O85 O 0.85746 0.5597 0.27432 0.0
C86 C 0.88403 0.56601 0.36739 0.0
O87 O 0.89643 0.58655 0.35561 0.0
C88 C 0.87715 0.50975 0.29481 0.0
O89 O 0.88332 0.51452 0.32665 0.0
O90 O 0.91184 0.57705 0.28549 0.0
C91 C 0.29983 0.83732 0.29552 0.0
O92 O 0.3165 0.83609 0.30957 0.0
O93 O 0.35604 0.8825 0.29365 0.0
Zn94 Zn 0.32896 0.88315 0.31148 0.0
O95 O 0.32798 0.88264 0.36236 0.0
C96 C 0.3325 0.91558 0.26328 0.0
O97 O 0.33057 0.89989 0.24228 0.0
O98 O 0.30107 0.85634 0.29335 0.0
C99 C 0.31124 0.88236 0.37647 0.0
O100 O 0.29558 0.88232 0.35733 0.0
C101 C 0.36861 0.87762 0.31091 0.0
O102 O 0.36414 0.87244 0.34314 0.0
O103 O 0.33137 0.91184 0.29496 0.0
C104 C 0.44487 0.28921 0.30627 0.0
O105 O 0.46225 0.30284 0.325 0.0
O106 O 0.46821 0.3495 0.28909 0.0
Zn107 Zn 0.43858 0.32661 0.30974 0.0
O108 O 0.43985 0.32875 0.36049 0.0
C109 C 0.41109 0.33251 0.26128 0.0
O110 O 0.42257 0.32736 0.24014 0.0
O111 O 0.43157 0.29573 0.29604 0.0
C112 C 0.42396 0.31351 0.37794 0.0
O113 O 0.40694 0.29673 0.36228 0.0
C114 C 0.48576 0.3617 0.30653 0.0
O115 O 0.48496 0.35937 0.33964 0.0
O116 O 0.41474 0.33278 0.29289 0.0
C117 C 0.15061 0.4596 0.27831 0.0
O118 O 0.15175 0.47708 0.29363 0.0
O119 O 0.105 0.4708 0.27222 0.0
Zn120 Zn 0.10472 0.44344 0.29124 0.0
O121 O 0.10691 0.44518 0.34208 0.0
C122 C 0.05919 0.40693 0.29704 0.0
O123 O 0.0615 0.41486 0.32796 0.0
O124 O 0.13145 0.44226 0.27351 0.0
C125 C 0.11145 0.43189 0.358 0.0
O126 O 0.11453 0.41731 0.3408 0.0
C127 C 0.112 0.48893 0.28885 0.0
O128 O 0.11936 0.49017 0.31997 0.0
O129 O 0.07579 0.41613 0.27677 0.0
C130 C 0.68494 0.14821 0.26526 0.0
O131 O 0.66565 0.14093 0.24957 0.0
O132 O 0.63037 0.10842 0.29244 0.0
Zn133 Zn 0.65868 0.10994 0.30914 0.0
O134 O 0.65954 0.11097 0.35992 0.0
C135 C 0.65686 0.07809 0.26164 0.0
O136 O 0.65857 0.09366 0.24054 0.0
O137 O 0.68593 0.13746 0.29082 0.0
C138 C 0.67591 0.11121 0.37522 0.0
O139 O 0.69176 0.11072 0.35731 0.0
C140 C 0.62381 0.12187 0.30164 0.0
O141 O 0.6359 0.13783 0.32354 0.0
O142 O 0.65762 0.08173 0.29331 0.0
C143 C 0.53503 0.69705 0.29204 0.0
O144 O 0.51801 0.68423 0.31197 0.0
O145 O 0.51431 0.63586 0.28537 0.0
Zn146 Zn 0.54286 0.66142 0.30442 0.0
O147 O 0.5408 0.6636 0.35492 0.0
C148 C 0.5715 0.64333 0.3146 0.0
O149 O 0.55964 0.63644 0.34266 0.0
O150 O 0.54872 0.69056 0.2839 0.0
C151 C 0.55638 0.68074 0.36981 0.0
O152 O 0.57282 0.69641 0.35166 0.0
C153 C 0.49597 0.62526 0.30173 0.0
O154 O 0.49489 0.63134 0.33291 0.0
O155 O 0.56777 0.65518 0.29374 0.0
C156 C 0.54042 0.83745 0.7897 0.0
O157 O 0.55638 0.85264 0.80903 0.0
O158 O 0.48846 0.85819 0.78959 0.0
Zn159 Zn 0.51863 0.86307 0.80397 0.0
O160 O 0.52035 0.86234 0.85488 0.0
C161 C 0.54264 0.89818 0.75549 0.0
O162 O 0.52739 0.88326 0.73497 0.0
O163 O 0.52291 0.83871 0.78398 0.0
C164 C 0.53896 0.87455 0.86992 0.0
O165 O 0.55692 0.88771 0.85189 0.0
C166 C 0.4796 0.86806 0.80487 0.0
O167 O 0.49015 0.8811 0.83082 0.0
O168 O 0.54242 0.89316 0.78654 0.0
C169 C 0.70416 0.53794 0.80924 0.0
O170 O 0.69255 0.5274 0.83638 0.0
O171 O 0.6432 0.5248 0.78598 0.0
Zn172 Zn 0.67074 0.5507 0.8067 0.0
O173 O 0.66818 0.54864 0.85734 0.0
C174 C 0.67233 0.5833 0.76012 0.0
O175 O 0.67403 0.56989 0.73815 0.0
O176 O 0.69817 0.54964 0.79191 0.0
C177 C 0.65152 0.54783 0.87255 0.0
O178 O 0.6358 0.54863 0.85471 0.0
C179 C 0.63388 0.50503 0.79817 0.0
O180 O 0.64257 0.50109 0.82516 0.0
O181 O 0.67174 0.579 0.79155 0.0
C182 C 0.13292 0.70656 0.78292 0.0
O183 O 0.12437 0.70784 0.81203 0.0
O184 O 0.11324 0.63493 0.77678 0.0
Zn185 Zn 0.10581 0.65807 0.79357 0.0
O186 O 0.10995 0.6616 0.84433 0.0
C187 C 0.05895 0.62941 0.79815 0.0
O188 O 0.06605 0.62113 0.82199 0.0
O189 O 0.12682 0.68736 0.77021 0.0
C190 C 0.09865 0.66785 0.86208 0.0
O191 O 0.08434 0.67236 0.84698 0.0
C192 C 0.11281 0.61965 0.79544 0.0
O193 O 0.1081 0.61906 0.82783 0.0
O194 O 0.07332 0.64657 0.78167 0.0
C195 C 0.44011 0.15599 0.77851 0.0
O196 O 0.4204 0.13785 0.78307 0.0
O197 O 0.48731 0.13083 0.78877 0.0
Zn198 Zn 0.45848 0.12872 0.80415 0.0
O199 O 0.45767 0.12952 0.85516 0.0
C200 C 0.42371 0.08202 0.8035 0.0
O201 O 0.4313 0.08245 0.83422 0.0
O202 O 0.4579 0.15554 0.78551 0.0
C203 C 0.44069 0.12798 0.87047 0.0
O204 O 0.42354 0.12569 0.85263 0.0
C205 C 0.4963 0.12124 0.80453 0.0
O206 O 0.48656 0.10956 0.83202 0.0
O207 O 0.43256 0.09998 0.78598 0.0
C208 C 0.30194 0.4703 0.75682 0.0
O209 O 0.32033 0.48071 0.73845 0.0
O210 O 0.35767 0.49654 0.78913 0.0
Zn211 Zn 0.33176 0.46708 0.80481 0.0
O212 O 0.33007 0.46646 0.8556 0.0
C213 C 0.3446 0.43294 0.80645 0.0
O214 O 0.34837 0.43838 0.83867 0.0
O215 O 0.30284 0.46294 0.78597 0.0
C216 C 0.31267 0.45113 0.87038 0.0
O217 O 0.296 0.43598 0.85199 0.0
C218 C 0.37707 0.50365 0.8018 0.0
O219 O 0.3796 0.49196 0.82599 0.0
O220 O 0.33701 0.44261 0.78761 0.0
C221 C 0.83544 0.27319 0.81764 0.0
O222 O 0.83543 0.28355 0.84559 0.0
O223 O 0.87413 0.33726 0.78598 0.0
Zn224 Zn 0.87794 0.31351 0.80971 0.0
O225 O 0.87862 0.31795 0.86006 0.0
C226 C 0.91068 0.31633 0.76295 0.0
O227 O 0.89382 0.31062 0.74195 0.0
O228 O 0.8522 0.28274 0.7977 0.0
C229 C 0.89123 0.33661 0.87464 0.0
O230 O 0.90501 0.35418 0.85635 0.0
C231 C 0.85936 0.34238 0.79377 0.0
O232 O 0.84525 0.33158 0.8186 0.0
O233 O 0.90758 0.31759 0.79443 0.0
C234 C 0.15746 0.4592 0.68193 0.0
O235 O 0.15812 0.47302 0.65833 0.0
O236 O 0.11273 0.47424 0.69985 0.0
Zn237 Zn 0.11155 0.44678 0.67985 0.0
O238 O 0.11221 0.44834 0.62886 0.0
C239 C 0.0659 0.41009 0.67609 0.0
O240 O 0.06746 0.41805 0.64531 0.0
O241 O 0.13873 0.44568 0.69573 0.0
C242 C 0.11536 0.43438 0.61218 0.0
O243 O 0.11809 0.41932 0.62869 0.0
C244 C 0.12011 0.49266 0.68381 0.0
O245 O 0.12719 0.49412 0.65248 0.0
O246 O 0.08289 0.41944 0.69562 0.0
C247 C 0.69461 0.13419 0.74684 0.0
O248 O 0.67688 0.12596 0.7667 0.0
O249 O 0.63835 0.11152 0.71777 0.0
Zn250 Zn 0.66184 0.10604 0.69697 0.0
O251 O 0.66289 0.11052 0.64655 0.0
C252 C 0.63653 0.05922 0.68845 0.0
O253 O 0.62826 0.06609 0.66426 0.0
O254 O 0.69224 0.12756 0.71629 0.0
C255 C 0.67755 0.10879 0.62936 0.0
O256 O 0.69186 0.10457 0.64516 0.0
C257 C 0.63167 0.124 0.70462 0.0
O258 O 0.64074 0.13457 0.67609 0.0
O259 O 0.65244 0.07379 0.70667 0.0
C260 C 0.54608 0.70443 0.69888 0.0
O261 O 0.53086 0.69101 0.67696 0.0
O262 O 0.53008 0.64471 0.71095 0.0
Zn263 Zn 0.55784 0.67105 0.691 0.0
O264 O 0.55471 0.67115 0.64031 0.0
C265 C 0.59496 0.66302 0.68167 0.0
O266 O 0.58861 0.66071 0.64983 0.0
O267 O 0.56053 0.69952 0.70954 0.0
C268 C 0.56739 0.68866 0.62312 0.0
O269 O 0.58282 0.70672 0.6388 0.0
C270 C 0.51125 0.63533 0.69567 0.0
O271 O 0.50973 0.64273 0.66564 0.0
O272 O 0.58467 0.66803 0.70365 0.0
C273 C 0.82833 0.51383 0.72715 0.0
O274 O 0.83343 0.5006 0.74425 0.0
O275 O 0.85477 0.48486 0.69364 0.0
Zn276 Zn 0.86168 0.51598 0.68054 0.0
O277 O 0.86252 0.51947 0.62998 0.0
C278 C 0.89789 0.53594 0.72863 0.0
O279 O 0.88363 0.51883 0.74727 0.0
O280 O 0.8383 0.52229 0.69931 0.0
C281 C 0.86962 0.53916 0.61843 0.0
O282 O 0.87584 0.55587 0.63986 0.0
C283 C 0.86804 0.47807 0.6844 0.0
O284 O 0.88536 0.49118 0.66516 0.0
O285 O 0.89206 0.53836 0.69908 0.0
C286 C 0.27376 0.84029 0.69878 0.0
O287 O 0.28497 0.83731 0.67434 0.0
O288 O 0.33669 0.87697 0.72036 0.0
Zn289 Zn 0.31367 0.88327 0.69976 0.0
O290 O 0.31616 0.88368 0.64885 0.0
C291 C 0.33027 0.93125 0.69938 0.0
O292 O 0.33452 0.92961 0.66739 0.0
O293 O 0.28269 0.85911 0.714 0.0
C294 C 0.30105 0.8836 0.63022 0.0
O295 O 0.28379 0.88354 0.64456 0.0
C296 C 0.34428 0.86569 0.70579 0.0
O297 O 0.33653 0.85697 0.67576 0.0
O298 O 0.32063 0.91358 0.7175 0.0
C299 C 0.45771 0.30358 0.70582 0.0
O300 O 0.47549 0.31808 0.68855 0.0
O301 O 0.47937 0.36251 0.71396 0.0
Zn302 Zn 0.44882 0.33887 0.69781 0.0
O303 O 0.44806 0.33848 0.6469 0.0
C304 C 0.41668 0.3542 0.69859 0.0
O305 O 0.42161 0.35759 0.66617 0.0
O306 O 0.443 0.30876 0.7138 0.0
C307 C 0.43198 0.32185 0.63183 0.0
O308 O 0.41621 0.30549 0.64998 0.0
C309 C 0.48851 0.38241 0.70235 0.0
O310 O 0.47785 0.38729 0.67926 0.0
O311 O 0.42591 0.34589 0.71691 0.0
H312 H 0.39491 0.0358 0.14278 0.0
H313 H 0.34015 0.95255 0.30002 0.0
H314 H 0.39619 0.05814 0.24544 0.0
H315 H 0.34017 0.93049 0.19759 0.0
H316 H 0.35599 0.99103 0.27927 0.0
H317 H 0.37037 -0.00295 0.16116 0.0
C318 C 0.38987 0.03259 0.16915 0.0
C319 C 0.39786 0.05023 0.1927 0.0
C320 C 0.35231 0.97774 0.26128 0.0
C321 C 0.36983 0.00584 0.21396 0.0
C322 C 0.34323 0.95574 0.2731 0.0
C323 C 0.33911 0.9383 0.25056 0.0
C324 C 0.35739 0.98237 0.22668 0.0
C325 C 0.34328 0.94343 0.21593 0.0
C326 C 0.37584 0.01043 0.17963 0.0
C327 C 0.39059 0.04505 0.22646 0.0
N328 N 0.35242 0.96503 0.20511 0.0
N329 N 0.37717 0.0233 0.23615 0.0
H330 H 0.40276 0.33836 0.19524 0.0
H331 H 0.33153 0.39679 0.24564 0.0
H332 H 0.38481 0.34423 0.29806 0.0
H333 H 0.35595 0.39748 0.14455 0.0
H334 H 0.34588 0.3724 0.26386 0.0
H335 H 0.38066 0.35484 0.17497 0.0
C336 C 0.394 0.3429 0.21355 0.0
C337 C 0.39587 0.34017 0.24843 0.0
C338 C 0.34793 0.37773 0.23762 0.0
C339 C 0.37061 0.35912 0.22541 0.0
C340 C 0.33969 0.39163 0.22718 0.0
C341 C 0.34279 0.39942 0.19361 0.0
C342 C 0.35933 0.37158 0.21434 0.0
C343 C 0.35339 0.39208 0.17077 0.0
C344 C 0.3814 0.35235 0.20195 0.0
C345 C 0.38403 0.34624 0.27096 0.0
N346 N 0.36144 0.37872 0.18162 0.0
N347 N 0.37205 0.3556 0.25907 0.0
H348 H 0.94423 0.33009 0.16842 0.0
H349 H 0.02 0.38512 0.33307 0.0
H350 H 0.91871 0.33661 0.26514 0.0
H351 H 0.04731 0.38914 0.23305 0.0
H352 H 0.98234 0.36036 0.31078 0.0
H353 H 0.98147 0.34477 0.19402 0.0
C354 C 0.94637 0.33428 0.19513 0.0
C355 C 0.92843 0.33245 0.21457 0.0
C356 C -0.00341 0.36647 0.29376 0.0
C357 C 0.97089 0.34925 0.24391 0.0
C358 C 0.01812 0.3806 0.30648 0.0
C359 C 0.03681 0.38953 0.28477 0.0
C360 C -0.00632 0.36125 0.25905 0.0
C361 C 0.03334 0.38286 0.25063 0.0
C362 C 0.96763 0.34273 0.20969 0.0
C363 C 0.93214 0.33805 0.24908 0.0
N364 N 0.01215 0.36932 0.23872 0.0
N365 N 0.95298 0.34638 0.26256 0.0
H366 H 0.58582 0.95801 0.14578 0.0
H367 H 0.64978 0.04119 0.29836 0.0
H368 H 0.59367 0.93531 0.2442 0.0
H369 H 0.64869 0.06314 0.19613 0.0
H370 H 0.63302 0.00255 0.27788 0.0
H371 H 0.61224 -0.00338 0.16239 0.0
C372 C 0.59326 0.96114 0.17083 0.0
C373 C 0.5873 0.94346 0.19382 0.0
C374 C 0.63674 0.01586 0.25986 0.0
C375 C 0.61749 0.98772 0.21315 0.0
C376 C 0.64633 0.03795 0.27153 0.0
C377 C 0.65031 0.05539 0.249 0.0
C378 C 0.63094 0.01119 0.22548 0.0
C379 C 0.64567 0.05021 0.21449 0.0
C380 C 0.60841 0.98321 0.18028 0.0
C381 C 0.59769 0.94848 0.22577 0.0
N382 N 0.63595 0.02855 0.20387 0.0
N383 N 0.61205 0.9702 0.23468 0.0
H384 H 0.5851 0.62011 0.355 0.0
H385 H 0.6428 0.5915 0.20291 0.0
H386 H 0.59355 0.64822 0.2545 0.0
H387 H 0.63954 0.56822 0.30561 0.0
H388 H 0.62748 0.61477 0.22226 0.0
H389 H 0.60773 0.60349 0.3385 0.0
C390 C 0.59188 0.62295 0.32953 0.0
C391 C 0.58721 0.63536 0.30597 0.0
C392 C 0.6303 0.60473 0.24063 0.0
C393 C 0.61303 0.61624 0.28683 0.0
C394 C 0.63903 0.59141 0.22959 0.0
C395 C 0.64224 0.57771 0.25263 0.0
C396 C 0.62459 0.60424 0.27492 0.0
C397 C 0.6372 0.57841 0.28692 0.0
C398 C 0.60483 0.61346 0.32013 0.0
C399 C 0.59661 0.63866 0.27342 0.0
N400 N 0.62843 0.59128 0.29697 0.0
N401 N 0.60888 0.62894 0.2647 0.0
H402 H 0.07234 0.64473 0.29549 0.0
H403 H 0.9447 0.60564 0.24799 0.0
H404 H 0.05174 0.65591 0.19741 0.0
H405 H 0.96477 0.58503 0.3386 0.0
H406 H 0.98437 0.62923 0.23261 0.0
H407 H 0.03356 0.62811 0.3152 0.0
C408 C 0.05971 0.64391 0.27818 0.0
C409 C 0.06525 0.6515 0.24462 0.0
C410 C 0.98007 0.61965 0.25597 0.0
C411 C 0.02079 0.63238 0.26702 0.0
C412 C 0.95744 0.60622 0.2648 0.0
C413 C 0.95141 0.59316 0.29445 0.0
C414 C -0.00324 0.62009 0.27703 0.0
C415 C 0.96863 0.59463 0.31533 0.0
C416 C 0.03755 0.63435 0.28944 0.0
C417 C 0.04819 0.6501 0.22341 0.0
N418 N 0.9905 0.60775 0.30614 0.0
N419 N 0.02668 0.64055 0.23489 0.0
H420 H 0.54507 0.91594 0.69244 0.0
H421 H 0.64405 0.03909 0.74307 0.0
H422 H 0.57727 0.93246 0.79057 0.0
H423 H 0.60468 0.02409 0.65146 0.0
H424 H 0.62342 -0.00093 0.75768 0.0
H425 H 0.57042 0.95454 0.67396 0.0
C426 C 0.55757 0.92763 0.71004 0.0
C427 C 0.55891 0.92101 0.7432 0.0
C428 C 0.61942 0.00455 0.73427 0.0
C429 C 0.58798 0.96524 0.72221 0.0
C430 C 0.63124 0.02737 0.72586 0.0
C431 C 0.62593 0.03496 0.69615 0.0
C432 C 0.60226 0.98924 0.71275 0.0
C433 C 0.6092 0.01902 0.67478 0.0
C434 C 0.57202 0.94969 0.69948 0.0
C435 C 0.57551 0.93688 0.76485 0.0
N436 N 0.59789 -0.00305 0.68358 0.0
N437 N 0.58933 0.9583 0.75403 0.0
H438 H 0.66449 0.61166 0.7989 0.0
H439 H 0.61888 0.65009 0.64152 0.0
H440 H 0.66866 0.5947 0.69483 0.0
H441 H 0.60972 0.6623 0.74605 0.0
H442 H 0.64308 0.63565 0.66005 0.0
H443 H 0.65059 0.63614 0.77937 0.0
C444 C 0.66279 0.61332 0.7719 0.0
C445 C 0.66741 0.60082 0.74848 0.0
C446 C 0.63597 0.64171 0.67893 0.0
C447 C 0.65134 0.6287 0.72599 0.0
C448 C 0.62215 0.64998 0.66836 0.0
C449 C 0.61196 0.6571 0.69231 0.0
C450 C 0.6396 0.64047 0.7137 0.0
C451 C 0.61701 0.65676 0.72672 0.0
C452 C 0.6548 0.62727 0.76078 0.0
C453 C 0.66507 0.6038 0.71382 0.0
N454 N 0.63028 0.64833 0.73641 0.0
N455 N 0.65694 0.61723 0.70365 0.0
H456 H 0.9166 0.53414 0.78892 0.0
H457 H 0.03854 0.63824 0.74522 0.0
H458 H 0.93161 0.57305 0.69674 0.0
H459 H 0.02425 0.59451 0.83166 0.0
H460 H -0.00134 0.61711 0.72981 0.0
H461 H 0.95525 0.55866 0.8077 0.0
C462 C 0.92798 0.54791 0.77269 0.0
C463 C 0.92089 0.55145 0.7411 0.0
C464 C 0.00426 0.61223 0.75224 0.0
C465 C 0.96523 0.57959 0.76244 0.0
C466 C 0.02701 0.62432 0.76109 0.0
C467 C 0.03476 0.61803 0.78963 0.0
C468 C 0.9892 0.59379 0.77215 0.0
C469 C 0.01907 0.59987 0.8093 0.0
C470 C 0.95008 0.5619 0.78342 0.0
C471 C 0.93639 0.56963 0.72121 0.0
N472 N -0.00293 0.58836 0.80012 0.0
N473 N 0.95786 0.58296 0.73215 0.0
H474 H 0.40815 0.0739 0.73808 0.0
H475 H 0.3311 0.9412 0.76682 0.0
H476 H 0.39959 0.04117 0.8349 0.0
H477 H 0.35051 0.97238 0.66811 0.0
H478 H 0.35058 0.97845 0.79286 0.0
H479 H 0.38172 0.03753 0.71297 0.0
C480 C 0.40057 0.05911 0.75414 0.0
C481 C 0.40629 0.06054 0.78858 0.0
C482 C 0.3504 0.97713 0.76549 0.0
C483 C 0.37602 0.0189 0.75998 0.0
C484 C 0.3392 0.95587 0.75058 0.0
C485 C 0.33939 0.95365 0.71522 0.0
C486 C 0.3618 -0.00368 0.74491 0.0
C487 C 0.35012 0.97328 0.69548 0.0
C488 C 0.38551 0.03835 0.73976 0.0
C489 C 0.39585 0.04083 0.80817 0.0
N490 N 0.36103 0.99379 0.7106 0.0
N491 N 0.38132 0.02081 0.79355 0.0
H492 H 0.36153 0.40946 0.83903 0.0
H493 H 0.39313 0.37121 0.66666 0.0
H494 H 0.34295 0.42123 0.73976 0.0
H495 H 0.40733 0.35489 0.76597 0.0
H496 H 0.37215 0.38708 0.69313 0.0
H497 H 0.37581 0.3869 0.81303 0.0
C498 C 0.36027 0.40715 0.8118 0.0
C499 C 0.35124 0.41744 0.79151 0.0
C500 C 0.37969 0.37986 0.70914 0.0
C501 C 0.36767 0.39174 0.76156 0.0
C502 C 0.3917 0.3708 0.69403 0.0
C503 C 0.40219 0.3619 0.71414 0.0
C504 C 0.37828 0.38017 0.74465 0.0
C505 C 0.39963 0.36169 0.74948 0.0
C506 C 0.36843 0.39425 0.79696 0.0
C507 C 0.34992 0.41374 0.75638 0.0
N508 N 0.3881 0.3709 0.76362 0.0
N509 N 0.35824 0.40136 0.7425 0.0
H510 H 0.05466 0.39345 0.74086 0.0
H511 H 0.92379 0.31902 0.6968 0.0
H512 H 0.02716 0.38528 0.64001 0.0
H513 H 0.94999 0.33283 0.79889 0.0
H514 H 0.96223 0.33786 0.67509 0.0
H515 H 0.01718 0.36618 0.76189 0.0
C516 C 0.04081 0.38575 0.72307 0.0
C517 C 0.04399 0.39189 0.68869 0.0
C518 C 0.95958 0.33657 0.70225 0.0
C519 C 0.0011 0.36072 0.71259 0.0
C520 C 0.93761 0.32575 0.71469 0.0
C521 C 0.93365 0.32462 0.74972 0.0
C522 C 0.97774 0.34638 0.72499 0.0
C523 C 0.95225 0.3335 0.77167 0.0
C524 C 0.01941 0.37021 0.73511 0.0
C525 C 0.02545 0.38127 0.66679 0.0
N526 N 0.97349 0.34423 0.75893 0.0
N527 N 0.00479 0.36635 0.67915 0.0
H528 H 0.39381 0.15512 0.22433 0.0
H529 H 0.47237 0.27204 0.31865 0.0
H530 H 0.46321 0.17964 0.25109 0.0
H531 H 0.4092 0.25561 0.27167 0.0
H532 H 0.46698 0.2358 0.30041 0.0
H533 H 0.39695 0.18956 0.24787 0.0
C534 C 0.40964 0.16765 0.23533 0.0
C535 C 0.42832 0.16458 0.23556 0.0
C536 C 0.45427 0.24009 0.29414 0.0
C537 C 0.43198 0.20384 0.26253 0.0
C538 C 0.45731 0.26078 0.3046 0.0
C539 C 0.44129 0.26693 0.29646 0.0
C540 C 0.435 0.22537 0.27553 0.0
C541 C 0.42206 0.2516 0.27829 0.0
C542 C 0.41143 0.18731 0.24864 0.0
C543 C 0.44842 0.18137 0.25011 0.0
N544 N 0.41946 0.23151 0.26837 0.0
N545 N 0.44971 0.20025 0.26297 0.0
H546 H 0.19314 0.49579 0.27634 0.0
H547 H 0.25156 0.42513 0.22365 0.0
H548 H 0.15546 0.42445 0.25634 0.0
H549 H 0.28473 0.49756 0.21821 0.0
H550 H 0.21679 0.4241 0.24055 0.0
H551 H 0.22756 0.49631 0.25982 0.0
C552 C 0.1921 0.48023 0.26845 0.0
C553 C 0.1714 0.46005 0.26766 0.0
C554 C 0.23169 0.44019 0.23562 0.0
C555 C 0.21078 0.46051 0.24888 0.0
C556 C 0.25155 0.44081 0.22612 0.0
C557 C 0.27105 0.46147 0.2195 0.0
C558 C 0.23144 0.46039 0.23883 0.0
C559 C 0.27008 0.48125 0.22297 0.0
C560 C 0.21176 0.48055 0.25894 0.0
C561 C 0.17106 0.44039 0.25717 0.0
N562 N 0.25062 0.48022 0.23248 0.0
N563 N 0.1905 0.44109 0.2483 0.0
H564 H 0.7274 0.16798 0.29197 0.0
H565 H 0.77749 0.27335 0.16547 0.0
H566 H 0.68849 0.17616 0.21313 0.0
H567 H 0.81644 0.2643 0.24328 0.0
H568 H 0.74472 0.23772 0.18231 0.0
H569 H 0.76029 0.20311 0.27407 0.0
C570 C 0.72578 0.17713 0.27083 0.0
C571 C 0.70514 0.16912 0.25405 0.0
C572 C 0.76044 0.24353 0.19568 0.0
C573 C 0.74275 0.20942 0.23347 0.0
C574 C 0.77916 0.26388 0.1861 0.0
C575 C 0.79974 0.27183 0.203 0.0
C576 C 0.7623 0.23103 0.22239 0.0
C577 C 0.80091 0.25884 0.22953 0.0
C578 C 0.74457 0.19721 0.26063 0.0
C579 C 0.70405 0.18169 0.22682 0.0
N580 N 0.78245 0.23909 0.2384 0.0
N581 N 0.72259 0.20125 0.21742 0.0
H582 H 0.587 0.82963 0.20357 0.0
H583 H 0.50829 0.7151 0.30402 0.0
H584 H 0.5229 0.81236 0.24797 0.0
H585 H 0.56974 0.72904 0.25373 0.0
H586 H 0.51442 0.75155 0.28549 0.0
H587 H 0.58219 0.79383 0.22395 0.0
C588 C 0.57199 0.81839 0.21775 0.0
C589 C 0.5553 0.82397 0.22398 0.0
C590 C 0.52658 0.74667 0.27846 0.0
C591 C 0.54966 0.78303 0.24722 0.0
C592 C 0.52308 0.72582 0.28902 0.0
C593 C 0.5385 0.71898 0.28035 0.0
C594 C 0.54569 0.76087 0.25909 0.0
C595 C 0.55738 0.73362 0.26091 0.0
C596 C 0.56922 0.79794 0.22927 0.0
C597 C 0.53618 0.80875 0.24244 0.0
N598 N 0.56046 0.7539 0.25093 0.0
N599 N 0.53388 0.78899 0.25333 0.0
H600 H 0.73772 0.54319 0.1561 0.0
H601 H 0.81782 0.57903 0.31901 0.0
H602 H 0.71992 0.55791 0.25384 0.0
H603 H 0.83229 0.557 0.22474 0.0
H604 H 0.78398 0.57578 0.2934 0.0
H605 H 0.77434 0.5522 0.17893 0.0
C606 C 0.74152 0.54837 0.18233 0.0
C607 C 0.72566 0.54962 0.20316 0.0
C608 C 0.79464 0.5718 0.27825 0.0
C609 C 0.76756 0.56002 0.22942 0.0
C610 C 0.81401 0.57372 0.29283 0.0
C611 C 0.8278 0.56807 0.2741 0.0
C612 C 0.78901 0.56419 0.2447 0.0
C613 C 0.82206 0.56137 0.24022 0.0
C614 C 0.76245 0.55353 0.19534 0.0
C615 C 0.73157 0.55656 0.23691 0.0
N616 N 0.80302 0.55947 0.22668 0.0
N617 N 0.75202 0.56142 0.24902 0.0
H618 H 0.16894 0.73894 0.21714 0.0
H619 H 0.2943 0.79528 0.28969 0.0
H620 H 0.20833 0.70602 0.2178 0.0
H621 H 0.26049 0.83275 0.27059 0.0
H622 H 0.26182 0.76168 0.26693 0.0
H623 H 0.20128 0.77283 0.24005 0.0
C624 C 0.18437 0.73883 0.22209 0.0
C625 C 0.18594 0.71961 0.21553 0.0
C626 C 0.2615 0.77725 0.26767 0.0
C627 C 0.22292 0.75827 0.24185 0.0
C628 C 0.28003 0.79644 0.28076 0.0
C629 C 0.28012 0.81687 0.28202 0.0
C630 C 0.24283 0.7784 0.25594 0.0
C631 C 0.26115 0.81736 0.27002 0.0
C632 C 0.20283 0.75819 0.23511 0.0
C633 C 0.20636 0.72044 0.22239 0.0
N634 N 0.24323 0.79838 0.25754 0.0
N635 N 0.22402 0.73942 0.23527 0.0
H636 H 0.51681 0.7186 0.68169 0.0
H637 H 0.57368 0.82731 0.80103 0.0
H638 H 0.57516 0.73641 0.74374 0.0
H639 H 0.51178 0.8049 0.74579 0.0
H640 H 0.57598 0.79551 0.77805 0.0
H641 H 0.51622 0.75156 0.70263 0.0
C642 C 0.52954 0.72947 0.69971 0.0
C643 C 0.54602 0.72469 0.71108 0.0
C644 C 0.56192 0.79759 0.77094 0.0
C645 C 0.54542 0.76256 0.73523 0.0
C646 C 0.56062 0.81576 0.784 0.0
C647 C 0.54247 0.81873 0.7754 0.0
C648 C 0.54501 0.78236 0.74905 0.0
C649 C 0.52603 0.80324 0.75323 0.0
C650 C 0.52918 0.74831 0.71169 0.0
C651 C 0.56211 0.73943 0.73438 0.0
N652 N 0.52769 0.78574 0.74086 0.0
N653 N 0.56139 0.75772 0.74574 0.0
H654 H 0.72111 0.51424 0.84077 0.0
H655 H 0.81361 0.54021 0.69783 0.0
H656 H 0.73097 0.55594 0.75317 0.0
H657 H 0.80329 0.49819 0.78521 0.0
H658 H 0.7842 0.54713 0.71854 0.0
H659 H 0.75202 0.50922 0.82171 0.0
C660 C 0.72981 0.52241 0.81756 0.0
C661 C 0.72338 0.53548 0.79848 0.0
C662 C 0.7884 0.53643 0.73322 0.0
C663 C 0.75881 0.52974 0.77645 0.0
C664 C 0.8052 0.53246 0.72141 0.0
C665 C 0.81089 0.51854 0.73977 0.0
C666 C 0.77717 0.5264 0.76361 0.0
C667 C 0.79943 0.509 0.77018 0.0
C668 C 0.74748 0.51952 0.80668 0.0
C669 C 0.73532 0.54568 0.76865 0.0
N670 N 0.78309 0.51308 0.78111 0.0
N671 N 0.75242 0.54254 0.75851 0.0
H672 H 0.24666 0.83977 0.75025 0.0
H673 H 0.15506 0.70987 0.7236 0.0
H674 H 0.24983 0.79846 0.67059 0.0
H675 H 0.15287 0.74997 0.80604 0.0
H676 H 0.18781 0.74321 0.70073 0.0
H677 H 0.21051 0.80808 0.76819 0.0
C678 C 0.23972 0.82408 0.73643 0.0
C679 C 0.25138 0.82171 0.70903 0.0
C680 C 0.18009 0.74477 0.72371 0.0
C681 C 0.21003 0.78539 0.72943 0.0
C682 C 0.16134 0.72572 0.73677 0.0
C683 C 0.1513 0.72706 0.76697 0.0
C684 C 0.18895 0.76534 0.74099 0.0
C685 C 0.16013 0.74811 0.78279 0.0
C686 C 0.21907 0.80599 0.74669 0.0
C687 C 0.24152 0.80102 0.69199 0.0
N688 N 0.17856 0.76638 0.76975 0.0
N689 N 0.22149 0.78365 0.70256 0.0
H690 H 0.48817 0.28947 0.69909 0.0
H691 H 0.4063 0.16585 0.77143 0.0
H692 H 0.42085 0.26757 0.73452 0.0
H693 H 0.47783 0.1942 0.75776 0.0
H694 H 0.41008 0.20157 0.75277 0.0
H695 H 0.48342 0.25312 0.71536 0.0
C696 C 0.47237 0.27701 0.71027 0.0
C697 C 0.45491 0.28159 0.71557 0.0
C698 C 0.42491 0.19992 0.75385 0.0
C699 C 0.44933 0.23988 0.73416 0.0
C700 C 0.42276 0.17953 0.76437 0.0
C701 C 0.44179 0.17707 0.76624 0.0
C702 C 0.4462 0.21785 0.74487 0.0
C703 C 0.46271 0.19537 0.75686 0.0
C704 C 0.46968 0.25626 0.71962 0.0
C705 C 0.43479 0.26477 0.73014 0.0
N706 N 0.46434 0.21495 0.74655 0.0
N707 N 0.43253 0.24462 0.7389 0.0
H708 H 0.16304 0.43573 0.73355 0.0
H709 H 0.29464 0.4873 0.69845 0.0
H710 H 0.19935 0.48361 0.65396 0.0
H711 H 0.26043 0.4474 0.78661 0.0
H712 H 0.25921 0.4837 0.67918 0.0
H713 H 0.19799 0.43742 0.75086 0.0
C714 C 0.17835 0.44656 0.71966 0.0
C715 C 0.1783 0.45962 0.69235 0.0
C716 C 0.25946 0.47571 0.70272 0.0
C717 C 0.21832 0.46159 0.71197 0.0
C718 C 0.27968 0.47772 0.7137 0.0
C719 C 0.28052 0.46771 0.74425 0.0
C720 C 0.23992 0.46352 0.72234 0.0
C721 C 0.26058 0.45548 0.76296 0.0
C722 C 0.1983 0.44753 0.72959 0.0
C723 C 0.19862 0.47332 0.67526 0.0
N724 N 0.24111 0.45374 0.75171 0.0
N725 N 0.2178 0.47395 0.68536 0.0
H726 H 0.79791 0.24783 0.85603 0.0
H727 H 0.73441 0.1555 0.71188 0.0
H728 H 0.82804 0.24825 0.75982 0.0
H729 H 0.70501 0.15479 0.80891 0.0
H730 H 0.76975 0.1879 0.73041 0.0
H731 H 0.76469 0.21236 0.84055 0.0
C732 C 0.79759 0.24042 0.83167 0.0
C733 C 0.81574 0.25112 0.80908 0.0
C734 C 0.75562 0.18057 0.74773 0.0
C735 C 0.77764 0.21045 0.79114 0.0
C736 C 0.73542 0.16204 0.73719 0.0
C737 C 0.71664 0.15251 0.7588 0.0
C738 C 0.75706 0.1897 0.78008 0.0
C739 C 0.719 0.16165 0.79134 0.0
C740 C 0.77859 0.22013 0.82286 0.0
C741 C 0.8144 0.24064 0.77796 0.0
N742 N 0.73878 0.17982 0.8009 0.0
N743 N 0.79561 0.22094 0.76983 0.0
H744 H 0.47022 0.12963 0.0841 0.0
H745 H 0.40711 0.12513 0.91111 0.0
H746 H 0.40474 0.12376 0.08 0.0
H747 H 0.47287 0.13163 0.91517 0.0
H748 H 0.40625 0.12531 0.97298 0.0
H749 H 0.47187 0.13125 0.02225 0.0
C750 C 0.45621 0.12876 0.07021 0.0
C751 C 0.43728 0.12651 0.08727 0.0
C752 C 0.42089 0.12674 0.96035 0.0
C753 C 0.43904 0.12828 0.01641 0.0
C754 C 0.42139 0.12662 0.925 0.0
C755 C 0.44008 0.12834 0.90791 0.0
C756 C 0.4392 0.12856 0.97881 0.0
C757 C 0.4581 0.13026 0.92727 0.0
C758 C 0.45716 0.12966 0.03488 0.0
C759 C 0.41965 0.12547 0.06793 0.0
N760 N 0.45719 0.13028 0.96168 0.0
N761 N 0.42094 0.12631 0.03354 0.0
H762 H 0.34456 0.47922 0.91574 0.0
H763 H 0.27291 0.41223 0.07903 0.0
H764 H 0.27818 0.42055 0.91026 0.0
H765 H 0.33977 0.47022 0.08379 0.0
H766 H 0.27403 0.41552 0.01727 0.0
H767 H 0.34261 0.47671 0.97747 0.0
C768 C 0.32954 0.46583 0.92751 0.0
C769 C 0.31151 0.45005 0.90779 0.0
C770 C 0.28844 0.42754 0.03184 0.0
C771 C 0.30919 0.44706 0.97853 0.0
C772 C 0.28781 0.42568 0.06711 0.0
C773 C 0.30629 0.44095 0.08661 0.0
C774 C 0.30769 0.4448 0.01595 0.0
C775 C 0.32514 0.45805 0.06979 0.0
C776 C 0.32845 0.4644 0.96279 0.0
C777 C 0.29249 0.43306 0.92446 0.0
N778 N 0.32536 0.45949 0.03544 0.0
N779 N 0.29184 0.432 0.95887 0.0
H780 H 0.86274 0.30407 0.91871 0.0
H781 H 0.91328 0.38001 0.08476 0.0
H782 H 0.91683 0.37312 0.91538 0.0
H783 H 0.85591 0.31266 0.08489 0.0
H784 H 0.91543 0.37799 0.02299 0.0
H785 H 0.86068 0.30703 0.97993 0.0
C786 C 0.87422 0.31988 0.93085 0.0
C787 C 0.89001 0.33838 0.91185 0.0
C788 C 0.90236 0.36369 0.03658 0.0
C789 C 0.88771 0.34189 0.98219 0.0
C790 C 0.90112 0.36482 0.07183 0.0
C791 C 0.88441 0.34646 0.09004 0.0
C792 C 0.88682 0.34403 0.01949 0.0
C793 C 0.86909 0.32723 0.07195 0.0
C794 C 0.873 0.32157 0.96588 0.0
C795 C 0.9044 0.35844 0.92903 0.0
N796 N 0.8707 0.32652 0.03774 0.0
N797 N 0.90293 0.35966 0.96328 0.0
H798 H 0.58681 0.89102 0.07633 0.0
H799 H 0.50468 0.85228 0.91563 0.0
H800 H 0.51445 0.85752 0.0846 0.0
H801 H 0.57678 0.8952 0.90919 0.0
H802 H 0.50784 0.85157 0.97734 0.0
H803 H 0.58334 0.89007 0.01472 0.0
C804 C 0.57017 0.88338 0.0652 0.0
C805 C 0.55089 0.87438 0.08567 0.0
C806 C 0.52296 0.86114 0.96239 0.0
C807 C 0.54681 0.87328 0.01507 0.0
C808 C 0.52117 0.86153 0.92717 0.0
C809 C 0.5405 0.87386 0.90722 0.0
C810 C 0.54422 0.87305 0.97775 0.0
C811 C 0.56142 0.88553 0.92355 0.0
C812 C 0.56821 0.8829 0.02999 0.0
C813 C 0.52977 0.8647 0.0698 0.0
N814 N 0.56273 0.88482 0.95784 0.0
N815 N 0.5283 0.86442 0.03542 0.0
H816 H 0.61327 0.5421 0.08326 0.0
H817 H 0.68007 0.54366 0.91622 0.0
H818 H 0.67196 0.53462 0.08379 0.0
H819 H 0.61925 0.54738 0.91392 0.0
H820 H 0.67728 0.54049 0.97778 0.0
H821 H 0.61501 0.54409 0.02134 0.0
C822 C 0.62649 0.54082 0.07038 0.0
C823 C 0.64252 0.53823 0.08875 0.0
C824 C 0.66451 0.54197 0.96385 0.0
C825 C 0.64463 0.54055 0.01795 0.0
C826 C 0.66611 0.54382 0.92866 0.0
C827 C 0.64989 0.54583 0.90987 0.0
C828 C 0.64658 0.54218 0.9805 0.0
C829 C 0.63215 0.54588 0.92739 0.0
C830 C 0.62746 0.54196 0.03502 0.0
C831 C 0.65925 0.53664 0.0707 0.0
N832 N 0.63099 0.54412 0.96176 0.0
N833 N 0.65989 0.53789 0.03634 0.0
H834 H 0.12461 0.65722 0.90202 0.0
H835 H 0.09024 0.69325 0.0748 0.0
H836 H 0.07901 0.68305 0.90697 0.0
H837 H 0.13013 0.66091 0.07101 0.0
H838 H 0.08761 0.6915 0.01303 0.0
H839 H 0.12848 0.66026 0.96367 0.0
C840 C 0.11545 0.66358 0.91605 0.0
C841 C 0.10144 0.66987 0.8993 0.0
C842 C 0.09696 0.68481 0.0257 0.0
C843 C 0.1058 0.67339 0.96988 0.0
C844 C 0.0985 0.68583 0.06099 0.0
C845 C 0.11039 0.67717 0.07813 0.0
C846 C 0.10744 0.67512 0.00735 0.0
C847 C 0.12075 0.66775 0.05887 0.0
C848 C 0.11764 0.66528 0.95126 0.0
C849 C 0.08996 0.67797 0.9188 0.0
N850 N 0.11902 0.66697 0.02452 0.0
N851 N 0.09239 0.6795 0.95304 0.0
H852 H 0.88633 0.57954 0.58572 0.0
H853 H 0.86199 0.52546 0.40009 0.0
H854 H 0.85634 0.50833 0.56698 0.0
H855 H 0.89883 0.59699 0.41877 0.0
H856 H 0.85777 0.51882 0.46114 0.0
H857 H 0.88913 0.58618 0.52464 0.0
C858 C 0.8803 0.56528 0.56877 0.0
C859 C 0.87113 0.54333 0.5815 0.0
C860 C 0.86675 0.53597 0.4519 0.0
C861 C 0.87426 0.55084 0.51149 0.0
C862 C 0.86914 0.53979 0.41702 0.0
C863 C 0.88082 0.56183 0.40428 0.0
C864 C 0.87606 0.55432 0.47427 0.0
C865 C 0.88973 0.57972 0.42745 0.0
C866 C 0.88192 0.5691 0.53388 0.0
C867 C 0.86357 0.52553 0.55831 0.0
N868 N 0.88717 0.57557 0.46133 0.0
N869 N 0.86531 0.52968 0.52443 0.0
H870 H 0.33443 0.88351 0.5925 0.0
H871 H 0.27783 0.88212 0.41437 0.0
H872 H 0.27179 0.88329 0.58283 0.0
H873 H 0.34059 0.88255 0.42375 0.0
H874 H 0.27529 0.88239 0.47606 0.0
H875 H 0.33697 0.88307 0.53077 0.0
C876 C 0.32121 0.88339 0.57741 0.0
C877 C 0.30286 0.88345 0.59288 0.0
C878 C 0.28962 0.88242 0.46465 0.0
C879 C 0.30567 0.88293 0.52215 0.0
C880 C 0.29108 0.88226 0.42939 0.0
C881 C 0.30947 0.88233 0.41384 0.0
C882 C 0.30666 0.88265 0.48459 0.0
C883 C 0.32612 0.8825 0.43464 0.0
C884 C 0.32267 0.88313 0.54214 0.0
C885 C 0.28623 0.88326 0.57202 0.0
N886 N 0.32432 0.88267 0.46894 0.0
N887 N 0.28804 0.88301 0.53774 0.0
H888 H 0.46193 0.35265 0.58674 0.0
H889 H 0.39318 0.28352 0.42298 0.0
H890 H 0.39969 0.28912 0.59164 0.0
H891 H 0.45653 0.34596 0.41819 0.0
H892 H 0.39495 0.28556 0.4848 0.0
H893 H 0.45993 0.35078 0.52493 0.0
C894 C 0.44784 0.3383 0.57483 0.0
C895 C 0.43096 0.321 0.59441 0.0
C896 C 0.40846 0.29882 0.47023 0.0
C897 C 0.42856 0.31876 0.52362 0.0
C898 C 0.40746 0.29767 0.43491 0.0
C899 C 0.42473 0.31459 0.41536 0.0
C900 C 0.42687 0.31704 0.48615 0.0
C901 C 0.44283 0.33253 0.43223 0.0
C902 C 0.44671 0.33725 0.53952 0.0
C903 C 0.41309 0.30283 0.57758 0.0
N904 N 0.44342 0.33327 0.46665 0.0
N905 N 0.41236 0.30219 0.54315 0.0
H906 H 0.10935 0.46266 0.57017 0.0
H907 H 0.11999 0.40535 0.39996 0.0
H908 H 0.12162 0.40698 0.56884 0.0
H909 H 0.10594 0.45985 0.40127 0.0
H910 H 0.1216 0.40632 0.46182 0.0
H911 H 0.10899 0.46253 0.50825 0.0
C912 C 0.112 0.45042 0.55687 0.0
C913 C 0.11547 0.43476 0.57472 0.0
C914 C 0.11818 0.41809 0.44858 0.0
C915 C 0.11508 0.43453 0.50382 0.0
C916 C 0.11727 0.41754 0.41324 0.0
C917 C 0.11279 0.43251 0.39541 0.0
C918 C 0.11459 0.43372 0.46625 0.0
C919 C 0.10942 0.44797 0.41398 0.0
C920 C 0.11179 0.45035 0.5215 0.0
C921 C 0.11884 0.41932 0.55614 0.0
N922 N 0.11037 0.44815 0.44838 0.0
N923 N 0.11854 0.41958 0.52171 0.0
H924 H 0.70752 0.11003 0.41602 0.0
H925 H 0.64897 0.11513 0.5886 0.0
H926 H 0.64677 0.11383 0.41975 0.0
H927 H 0.70683 0.10634 0.58497 0.0
H928 H 0.64907 0.11667 0.52674 0.0
H929 H 0.70865 0.11053 0.47792 0.0
C930 C 0.69443 0.11101 0.42983 0.0
C931 C 0.67699 0.11183 0.41266 0.0
C932 C 0.66177 0.11445 0.53947 0.0
C933 C 0.67819 0.11242 0.48355 0.0
C934 C 0.66175 0.1136 0.57481 0.0
C935 C 0.67788 0.11054 0.592 0.0
C936 C 0.67806 0.11225 0.52114 0.0
C937 C 0.69404 0.10866 0.57278 0.0
C938 C 0.69508 0.11128 0.4652 0.0
C939 C 0.6605 0.1131 0.43191 0.0
N940 N 0.69369 0.10951 0.53839 0.0
N941 N 0.6615 0.11334 0.46632 0.0
H942 H 0.52652 0.65012 0.41517 0.0
H943 H 0.59334 0.72214 0.57811 0.0
H944 H 0.58689 0.71523 0.40951 0.0
H945 H 0.5363 0.6547 0.58327 0.0
H946 H 0.5898 0.72097 0.5164 0.0
H947 H 0.52834 0.65262 0.47695 0.0
C948 C 0.54011 0.66499 0.42691 0.0
C949 C 0.55664 0.68246 0.40714 0.0
C950 C 0.57804 0.70644 0.53104 0.0
C951 C 0.55885 0.68539 0.47786 0.0
C952 C 0.58003 0.70711 0.56629 0.0
C953 C 0.56515 0.68845 0.58587 0.0
C954 C 0.561 0.68701 0.51527 0.0
C955 C 0.54821 0.66944 0.56917 0.0
C956 C 0.54116 0.66639 0.4622 0.0
C957 C 0.57384 0.70133 0.42374 0.0
N958 N 0.54663 0.6692 0.53484 0.0
N959 N 0.57452 0.70227 0.45814 0.0
H960 H 0.51164 0.13977 0.2483 0.0
H961 H 0.59553 0.09106 0.2553 0.0
H962 H 0.50269 0.08302 0.18928 0.0
H963 H 0.60468 0.14778 0.31461 0.0
H964 H 0.56145 0.08788 0.231 0.0
H965 H 0.54572 0.14301 0.27286 0.0
C966 C 0.51684 0.12798 0.24046 0.0
C967 C 0.50426 0.11108 0.21666 0.0
C968 C 0.57089 0.10102 0.24934 0.0
C969 C 0.54332 0.11471 0.24476 0.0
C970 C 0.59037 0.10285 0.26327 0.0
C971 C 0.603 0.11973 0.28707 0.0
C972 C 0.56392 0.11617 0.25922 0.0
C973 C 0.59547 0.13451 0.29637 0.0
C974 C 0.53632 0.12985 0.25453 0.0
C975 C 0.51184 0.09631 0.20752 0.0
N976 N 0.57642 0.13239 0.2824 0.0
N977 N 0.53087 0.09847 0.22159 0.0
H978 H 0.45401 0.59843 0.32897 0.0
H979 H 0.40951 0.51494 0.16982 0.0
H980 H 0.49331 0.6073 0.23889 0.0
H981 H 0.36847 0.50783 0.257 0.0
H982 H 0.44039 0.54886 0.19491 0.0
H983 H 0.42238 0.5653 0.30313 0.0
C984 C 0.45598 0.59347 0.30373 0.0
C985 C 0.47637 0.60565 0.28611 0.0
C986 C 0.42462 0.53991 0.20855 0.0
C987 C 0.44028 0.56771 0.25644 0.0
C988 C 0.40698 0.52051 0.19424 0.0
C989 C 0.38638 0.50848 0.21135 0.0
C990 C 0.42171 0.54736 0.24028 0.0
C991 C 0.38407 0.51655 0.24291 0.0
C992 C 0.43791 0.57454 0.289 0.0
C993 C 0.47793 0.59843 0.25346 0.0
N994 N 0.40154 0.53546 0.25638 0.0
N995 N 0.46016 0.57992 0.23975 0.0
H996 H 0.86327 0.494 0.2303 0.0
H997 H 0.86891 0.3819 0.26042 0.0
H998 H 0.88156 0.47651 0.32553 0.0
H999 H 0.84747 0.39715 0.16613 0.0
H1000 H 0.87294 0.41625 0.28479 0.0
H1001 H 0.8569 0.4585 0.20637 0.0
C1002 C 0.86593 0.4827 0.2462 0.0
C1003 C 0.87302 0.48827 0.27997 0.0
C1004 C 0.86727 0.41208 0.2588 0.0
C1005 C 0.86574 0.44762 0.25272 0.0
C1006 C 0.86496 0.39243 0.24484 0.0
C1007 C 0.85791 0.38665 0.2111 0.0
C1008 C 0.86259 0.42617 0.23891 0.0
C1009 C 0.85297 0.40095 0.19222 0.0
C1010 C 0.86226 0.46242 0.23252 0.0
C1011 C 0.87615 0.47295 0.29937 0.0
N1012 N 0.8555 0.42011 0.20635 0.0
N1013 N 0.87254 0.45337 0.28545 0.0
H1014 H 0.46982 0.89039 0.16794 0.0
H1015 H 0.39862 0.86706 0.33914 0.0
H1016 H 0.48456 0.86693 0.2607 0.0
H1017 H 0.38269 0.88822 0.24515 0.0
H1018 H 0.43041 0.86722 0.3111 0.0
H1019 H 0.43797 0.88996 0.19604 0.0
C1020 C 0.46636 0.88513 0.19421 0.0
C1021 C 0.4799 0.87868 0.21197 0.0
C1022 C 0.41994 0.87182 0.29662 0.0
C1023 C 0.44345 0.87818 0.24435 0.0
C1024 C 0.4018 0.87174 0.31263 0.0
C1025 C 0.38796 0.87763 0.29449 0.0
C1026 C 0.42431 0.87785 0.26224 0.0
C1027 C 0.39289 0.88354 0.26017 0.0
C1028 C 0.44816 0.88488 0.21025 0.0
C1029 C 0.47459 0.87202 0.24599 0.0
N1030 N 0.41064 0.88351 0.24519 0.0
N1031 N 0.4568 0.87197 0.26106 0.0
H1032 H 0.6135 0.48061 0.26375 0.0
H1033 H 0.49397 0.36938 0.23846 0.0
H1034 H 0.58609 0.45197 0.16578 0.0
H1035 H 0.52499 0.39348 0.3363 0.0
H1036 H 0.52785 0.39914 0.21136 0.0
H1037 H 0.5816 0.44844 0.2908 0.0
C1038 C 0.60085 0.4675 0.2479 0.0
C1039 C 0.60243 0.46906 0.21241 0.0
C1040 C 0.5273 0.39786 0.23875 0.0
C1041 C 0.56575 0.43221 0.24326 0.0
C1042 C 0.50793 0.38088 0.25426 0.0
C1043 C 0.50657 0.379 0.28974 0.0
C1044 C 0.54543 0.41318 0.25883 0.0
C1045 C 0.52525 0.39432 0.30888 0.0
C1046 C 0.58262 0.44911 0.26338 0.0
C1047 C 0.58555 0.45151 0.19321 0.0
N1048 N 0.54385 0.41085 0.29319 0.0
N1049 N 0.56785 0.4339 0.20888 0.0
H1050 H 0.13679 0.62232 0.24118 0.0
H1051 H 0.09417 0.49086 0.22768 0.0
H1052 H 0.08993 0.57892 0.16507 0.0
H1053 H 0.13037 0.53169 0.31393 0.0
H1054 H 0.09483 0.52353 0.202 0.0
H1055 H 0.13717 0.58988 0.26565 0.0
C1056 C 0.12665 0.60598 0.22951 0.0
C1057 C 0.11326 0.60332 0.20105 0.0
C1058 C 0.10261 0.52533 0.22656 0.0
C1059 C 0.11363 0.56612 0.229 0.0
C1060 C 0.10227 0.5067 0.24122 0.0
C1061 C 0.1122 0.50853 0.27305 0.0
C1062 C 0.11308 0.54601 0.24371 0.0
C1063 C 0.12244 0.52948 0.28942 0.0
C1064 C 0.12682 0.58746 0.24358 0.0
C1065 C 0.10045 0.58175 0.18706 0.0
N1066 N 0.12265 0.5474 0.27453 0.0
N1067 N 0.10096 0.56398 0.20117 0.0
H1068 H 0.45551 0.88598 0.8323 0.0
H1069 H 0.36554 0.84388 0.68136 0.0
H1070 H 0.45506 0.84504 0.74909 0.0
H1071 H 0.36495 0.8829 0.76661 0.0
H1072 H 0.39728 0.84263 0.70694 0.0
H1073 H 0.4213 0.88358 0.80981 0.0
C1074 C 0.44818 0.87641 0.80937 0.0
C1075 C 0.45825 0.86579 0.79248 0.0
C1076 C 0.39013 0.85137 0.72012 0.0
C1077 C 0.41907 0.86304 0.76647 0.0
C1078 C 0.37199 0.85209 0.70553 0.0
C1079 C 0.36264 0.86362 0.72175 0.0
C1080 C 0.39902 0.86231 0.75113 0.0
C1081 C 0.37167 0.87389 0.75309 0.0
C1082 C 0.42862 0.87504 0.79653 0.0
C1083 C 0.44792 0.85355 0.76292 0.0
N1084 N 0.38941 0.87308 0.76665 0.0
N1085 N 0.42897 0.8526 0.75077 0.0
H1086 H 0.61065 0.50793 0.74388 0.0
H1087 H 0.5143 0.37829 0.7516 0.0
H1088 H 0.60972 0.4607 0.81699 0.0
H1089 H 0.513 0.42661 0.68306 0.0
H1090 H 0.55021 0.40781 0.77399 0.0
H1091 H 0.57583 0.47791 0.71944 0.0
C1092 C 0.60316 0.49123 0.75476 0.0
C1093 C 0.6131 0.48685 0.78261 0.0
C1094 C 0.54209 0.41196 0.75401 0.0
C1095 C 0.57319 0.45237 0.75471 0.0
C1096 C 0.52158 0.39509 0.74118 0.0
C1097 C 0.51057 0.39999 0.71546 0.0
C1098 C 0.55171 0.4339 0.74104 0.0
C1099 C 0.52084 0.42207 0.70293 0.0
C1100 C 0.58325 0.4741 0.74079 0.0
C1101 C 0.60263 0.46487 0.7956 0.0
N1102 N 0.54081 0.43821 0.71588 0.0
N1103 N 0.58323 0.44846 0.78156 0.0
H1104 H 0.1088 0.58208 0.82625 0.0
H1105 H 0.13216 0.53373 0.65598 0.0
H1106 H 0.12399 0.6165 0.72985 0.0
H1107 H 0.10918 0.49609 0.7494 0.0
H1108 H 0.13213 0.56547 0.68371 0.0
H1109 H 0.11197 0.55173 0.79965 0.0
C1110 C 0.11293 0.58334 0.79954 0.0
C1111 C 0.11603 0.60182 0.78023 0.0
C1112 C 0.12713 0.55027 0.69815 0.0
C1113 C 0.11961 0.5671 0.74958 0.0
C1114 C 0.12715 0.53214 0.68233 0.0
C1115 C 0.12057 0.51217 0.70034 0.0
C1116 C 0.12056 0.54847 0.73226 0.0
C1117 C 0.11429 0.51111 0.73447 0.0
C1118 C 0.11468 0.56596 0.78434 0.0
C1119 C 0.12136 0.60253 0.74571 0.0
N1120 N 0.11442 0.52899 0.74929 0.0
N1121 N 0.12293 0.58539 0.73149 0.0
H1122 H 0.6111 0.14684 0.68165 0.0
H1123 H 0.51998 0.1026 0.83135 0.0
H1124 H 0.60964 0.10456 0.76378 0.0
H1125 H 0.52034 0.14355 0.74802 0.0
H1126 H 0.55395 0.10466 0.80841 0.0
H1127 H 0.57902 0.14746 0.7071 0.0
C1128 C 0.60412 0.13778 0.70511 0.0
C1129 C 0.61302 0.12554 0.7205 0.0
C1130 C 0.54663 0.11324 0.79518 0.0
C1131 C 0.57625 0.12613 0.74974 0.0
C1132 C 0.52722 0.11207 0.80828 0.0
C1133 C 0.51722 0.12283 0.79152 0.0
C1134 C 0.55614 0.12526 0.76508 0.0
C1135 C 0.52741 0.13492 0.76175 0.0
C1136 C 0.58577 0.13812 0.71962 0.0
C1137 C 0.60328 0.11414 0.75092 0.0
N1138 N 0.54626 0.13575 0.74945 0.0
N1139 N 0.5854 0.11466 0.76446 0.0
H1140 H 0.42066 0.52428 0.82417 0.0
H1141 H 0.46786 0.6137 0.67248 0.0
H1142 H 0.37844 0.52936 0.74777 0.0
H1143 H 0.50896 0.61385 0.75539 0.0
H1144 H 0.435 0.58241 0.69927 0.0
H1145 H 0.45328 0.55685 0.79914 0.0
C1146 C 0.41822 0.5323 0.80223 0.0
C1147 C 0.39678 0.52404 0.78801 0.0
C1148 C 0.4512 0.58931 0.71165 0.0
C1149 C 0.43409 0.56126 0.7591 0.0
C1150 C 0.46999 0.60716 0.69631 0.0
C1151 C 0.49122 0.6164 0.71168 0.0
C1152 C 0.45363 0.58054 0.7425 0.0
C1153 C 0.49293 0.60726 0.74263 0.0
C1154 C 0.43687 0.5509 0.78794 0.0
C1155 C 0.39464 0.53513 0.75958 0.0
N1156 N 0.47439 0.58979 0.75696 0.0
N1157 N 0.41308 0.5531 0.74598 0.0
H1158 H 0.83087 0.35887 0.80441 0.0
H1159 H 0.89304 0.45844 0.66914 0.0
H1160 H 0.88654 0.36829 0.74203 0.0
H1161 H 0.83649 0.44879 0.72949 0.0
H1162 H 0.88959 0.42427 0.69371 0.0
H1163 H 0.83141 0.39065 0.77559 0.0
C1164 C 0.84314 0.36755 0.78458 0.0
C1165 C 0.85875 0.36096 0.77576 0.0
C1166 C 0.87785 0.42955 0.70148 0.0
C1167 C 0.85948 0.39736 0.74271 0.0
C1168 C 0.8798 0.44907 0.68742 0.0
C1169 C 0.8651 0.45657 0.69737 0.0
C1170 C 0.86112 0.41742 0.72581 0.0
C1171 C 0.84823 0.44367 0.72111 0.0
C1172 C 0.84344 0.38569 0.76813 0.0
C1173 C 0.87424 0.3728 0.7498 0.0
N1174 N 0.84678 0.4248 0.73465 0.0
N1175 N 0.87425 0.39045 0.73432 0.0
loop_
_geom_bond_atom_site_label_1
_geom_bond_atom_site_label_2
_geom_bond_distance
_geom_bond_site_symmetry_2
_ccdc_geom_bond_type
C0 O1 1.160 . S
C0 O7 1.185 . S
O1 C0 1.160 . S
O2 Zn3 1.899 . S
O2 C10 1.284 . S
Zn3 O2 1.899 . S
Zn3 O4 2.032 . S
Zn3 O7 2.086 . S
Zn3 O12 1.977 . S
O4 Zn3 2.032 . S
O4 C8 1.278 . S
C5 O6 1.203 . S
C5 O12 1.267 . S
O6 C5 1.203 . S
O7 C0 1.185 . S
O7 Zn3 2.086 . S
C8 O4 1.278 . S
C8 O9 1.211 . S
O9 C8 1.211 . S
C10 O2 1.284 . S
C10 O11 1.273 . S
O11 C10 1.273 . S
O12 Zn3 1.977 . S
O12 C5 1.267 . S
C13 O14 1.160 . S
C13 O20 1.185 . S
O14 C13 1.160 . S
O15 Zn16 1.899 . S
O15 C23 1.284 . S
Zn16 O15 1.899 . S
Zn16 O17 2.032 . S
Zn16 O20 2.086 . S
Zn16 O25 1.977 . S
O17 Zn16 2.032 . S
O17 C21 1.278 . S
C18 O19 1.203 . S
C18 O25 1.267 . S
O19 C18 1.203 . S
O20 C13 1.185 . S
O20 Zn16 2.086 . S
C21 O17 1.278 . S
C21 O22 1.211 . S
O22 C21 1.211 . S
C23 O15 1.284 . S
C23 O24 1.273 . S
O24 C23 1.273 . S
O25 Zn16 1.977 . S
O25 C18 1.267 . S
C26 O27 1.160 . S
C26 O33 1.185 . S
O27 C26 1.160 . S
O28 Zn29 1.899 . S
O28 C36 1.284 . S
Zn29 O28 1.899 . S
Zn29 O30 2.032 . S
Zn29 O33 2.086 . S
Zn29 O38 1.977 . S
O30 Zn29 2.032 . S
O30 C34 1.278 . S
C31 O32 1.203 . S
C31 O38 1.267 . S
O32 C31 1.203 . S
O33 C26 1.185 . S
O33 Zn29 2.086 . S
C34 O30 1.278 . S
C34 O35 1.211 . S
O35 C34 1.211 . S
C36 O28 1.284 . S
C36 O37 1.273 . S
O37 C36 1.273 . S
O38 Zn29 1.977 . S
O38 C31 1.267 . S
C39 O40 1.160 . S
C39 O46 1.185 . S
O40 C39 1.160 . S
O41 Zn42 1.899 . S
O41 C49 1.284 . S
Zn42 O41 1.899 . S
Zn42 O43 2.032 . S
Zn42 O46 2.086 . S
Zn42 O51 1.977 . S
O43 Zn42 2.032 . S
O43 C47 1.278 . S
C44 O45 1.203 . S
C44 O51 1.267 . S
O45 C44 1.203 . S
O46 C39 1.185 . S
O46 Zn42 2.086 . S
C47 O43 1.278 . S
C47 O48 1.211 . S
O48 C47 1.211 . S
C49 O41 1.284 . S
C49 O50 1.273 . S
O50 C49 1.273 . S
O51 Zn42 1.977 . S
O51 C44 1.267 . S
C52 O53 1.160 . S
C52 O59 1.185 . S
O53 C52 1.160 . S
O54 Zn55 1.899 . S
O54 C62 1.284 . S
Zn55 O54 1.899 . S
Zn55 O56 2.032 . S
Zn55 O59 2.086 . S
Zn55 O64 1.977 . S
O56 Zn55 2.032 . S
O56 C60 1.278 . S
C57 O58 1.203 . S
C57 O64 1.267 . S
O58 C57 1.203 . S
O59 C52 1.185 . S
O59 Zn55 2.086 . S
C60 O56 1.278 . S
C60 O61 1.211 . S
O61 C60 1.211 . S
C62 O54 1.284 . S
C62 O63 1.273 . S
O63 C62 1.273 . S
O64 Zn55 1.977 . S
O64 C57 1.267 . S
C65 O66 1.160 . S
C65 O72 1.185 . S
O66 C65 1.160 . S
O67 Zn68 1.899 . S
O67 C75 1.284 . S
Zn68 O67 1.899 . S
Zn68 O69 2.032 . S
Zn68 O72 2.086 . S
Zn68 O77 1.977 . S
O69 Zn68 2.032 . S
O69 C73 1.278 . S
C70 O71 1.203 . S
C70 O77 1.267 . S
O71 C70 1.203 . S
O72 C65 1.185 . S
O72 Zn68 2.086 . S
C73 O69 1.278 . S
C73 O74 1.211 . S
O74 C73 1.211 . S
C75 O67 1.284 . S
C75 O76 1.273 . S
O76 C75 1.273 . S
O77 Zn68 1.977 . S
O77 C70 1.267 . S
C78 O79 1.160 . S
C78 O85 1.185 . S
O79 C78 1.160 . S
O80 Zn81 1.899 . S
O80 C88 1.284 . S
Zn81 O80 1.899 . S
Zn81 O82 2.032 . S
Zn81 O85 2.086 . S
Zn81 O90 1.977 . S
O82 Zn81 2.032 . S
O82 C86 1.278 . S
C83 O84 1.203 . S
C83 O90 1.267 . S
O84 C83 1.203 . S
O85 C78 1.185 . S
O85 Zn81 2.086 . S
C86 O82 1.278 . S
C86 O87 1.211 . S
O87 C86 1.211 . S
C88 O80 1.284 . S
C88 O89 1.273 . S
O89 C88 1.273 . S
O90 Zn81 1.977 . S
O90 C83 1.267 . S
C91 O92 1.160 . S
C91 O98 1.185 . S
O92 C91 1.160 . S
O93 Zn94 1.899 . S
O93 C101 1.284 . S
Zn94 O93 1.899 . S
Zn94 O95 2.032 . S
Zn94 O98 2.086 . S
Zn94 O103 1.977 . S
O95 Zn94 2.032 . S
O95 C99 1.278 . S
C96 O97 1.203 . S
C96 O103 1.267 . S
O97 C96 1.203 . S
O98 C91 1.185 . S
O98 Zn94 2.086 . S
C99 O95 1.278 . S
C99 O100 1.211 . S
O100 C99 1.211 . S
C101 O93 1.284 . S
C101 O102 1.273 . S
O102 C101 1.273 . S
O103 Zn94 1.977 . S
O103 C96 1.267 . S
C104 O105 1.160 . S
C104 O111 1.185 . S
O105 C104 1.160 . S
O106 Zn107 1.899 . S
O106 C114 1.284 . S
Zn107 O106 1.899 . S
Zn107 O108 2.032 . S
Zn107 O111 2.086 . S
Zn107 O116 1.977 . S
O108 Zn107 2.032 . S
O108 C112 1.278 . S
C109 O110 1.203 . S
C109 O116 1.267 . S
O110 C109 1.203 . S
O111 C104 1.185 . S
O111 Zn107 2.086 . S
C112 O108 1.278 . S
C112 O113 1.211 . S
O113 C112 1.211 . S
C114 O106 1.284 . S
C114 O115 1.273 . S
O115 C114 1.273 . S
O116 Zn107 1.977 . S
O116 C109 1.267 . S
C117 O118 1.160 . S
C117 O124 1.185 . S
O118 C117 1.160 . S
O119 Zn120 1.899 . S
O119 C127 1.284 . S
Zn120 O119 1.899 . S
Zn120 O121 2.032 . S
Zn120 O124 2.086 . S
Zn120 O129 1.977 . S
O121 Zn120 2.032 . S
O121 C125 1.278 . S
C122 O123 1.203 . S
C122 O129 1.267 . S
O123 C122 1.203 . S
O124 C117 1.185 . S
O124 Zn120 2.086 . S
C125 O121 1.278 . S
C125 O126 1.211 . S
O126 C125 1.211 . S
C127 O119 1.284 . S
C127 O128 1.273 . S
O128 C127 1.273 . S
O129 Zn120 1.977 . S
O129 C122 1.267 . S
C130 O131 1.160 . S
C130 O137 1.185 . S
O131 C130 1.160 . S
O132 Zn133 1.899 . S
O132 C140 1.284 . S
Zn133 O132 1.899 . S
Zn133 O134 2.032 . S
Zn133 O137 2.086 . S
Zn133 O142 1.977 . S
O134 Zn133 2.032 . S
O134 C138 1.278 . S
C135 O136 1.203 . S
C135 O142 1.267 . S
O136 C135 1.203 . S
O137 C130 1.185 . S
O137 Zn133 2.086 . S
C138 O134 1.278 . S
C138 O139 1.211 . S
O139 C138 1.211 . S
C140 O132 1.284 . S
C140 O141 1.273 . S
O141 C140 1.273 . S
O142 Zn133 1.977 . S
O142 C135 1.267 . S
C143 O144 1.160 . S
C143 O150 1.185 . S
O144 C143 1.160 . S
O145 Zn146 1.899 . S
O145 C153 1.284 . S
Zn146 O145 1.899 . S
Zn146 O147 2.032 . S
Zn146 O150 2.086 . S
Zn146 O155 1.977 . S
O147 Zn146 2.032 . S
O147 C151 1.278 . S
C148 O149 1.203 . S
C148 O155 1.267 . S
O149 C148 1.203 . S
O150 C143 1.185 . S
O150 Zn146 2.086 . S
C151 O147 1.278 . S
C151 O152 1.211 . S
O152 C151 1.211 . S
C153 O145 1.284 . S
C153 O154 1.273 . S
O154 C153 1.273 . S
O155 Zn146 1.977 . S
O155 C148 1.267 . S
C156 O157 1.160 . S
C156 O163 1.185 . S
O157 C156 1.160 . S
O158 Zn159 1.899 . S
O158 C166 1.284 . S
Zn159 O158 1.899 . S
Zn159 O160 2.032 . S
Zn159 O163 2.086 . S
Zn159 O168 1.977 . S
O160 Zn159 2.032 . S
O160 C164 1.278 . S
C161 O162 1.203 . S
C161 O168 1.267 . S
O162 C161 1.203 . S
O163 C156 1.185 . S
O163 Zn159 2.086 . S
C164 O160 1.278 . S
C164 O165 1.211 . S
O165 C164 1.211 . S
C166 O158 1.284 . S
C166 O167 1.273 . S
O167 C166 1.273 . S
O168 Zn159 1.977 . S
O168 C161 1.267 . S
C169 O170 1.160 . S
C169 O176 1.185 . S
O170 C169 1.160 . S
O171 Zn172 1.899 . S
O171 C179 1.284 . S
Zn172 O171 1.899 . S
Zn172 O173 2.032 . S
Zn172 O176 2.086 . S
Zn172 O181 1.977 . S
O173 Zn172 2.032 . S
O173 C177 1.278 . S
C174 O175 1.203 . S
C174 O181 1.267 . S
O175 C174 1.203 . S
O176 C169 1.185 . S
O176 Zn172 2.086 . S
C177 O173 1.278 . S
C177 O178 1.211 . S
O178 C177 1.211 . S
C179 O171 1.284 . S
C179 O180 1.273 . S
O180 C179 1.273 . S
O181 Zn172 1.977 . S
O181 C174 1.267 . S
C182 O183 1.160 . S
C182 O189 1.185 . S
O183 C182 1.160 . S
O184 Zn185 1.899 . S
O184 C192 1.284 . S
Zn185 O184 1.899 . S
Zn185 O186 2.032 . S
Zn185 O189 2.086 . S
Zn185 O194 1.977 . S
O186 Zn185 2.032 . S
O186 C190 1.278 . S
C187 O188 1.203 . S
C187 O194 1.267 . S
O188 C187 1.203 . S
O189 C182 1.185 . S
O189 Zn185 2.086 . S
C190 O186 1.278 . S
C190 O191 1.211 . S
O191 C190 1.211 . S
C192 O184 1.284 . S
C192 O193 1.273 . S
O193 C192 1.273 . S
O194 Zn185 1.977 . S
O194 C187 1.267 . S
C195 O196 1.160 . S
C195 O202 1.185 . S
O196 C195 1.160 . S
O197 Zn198 1.899 . S
O197 C205 1.284 . S
Zn198 O197 1.899 . S
Zn198 O199 2.032 . S
Zn198 O202 2.086 . S
Zn198 O207 1.977 . S
O199 Zn198 2.032 . S
O199 C203 1.278 . S
C200 O201 1.203 . S
C200 O207 1.267 . S
O201 C200 1.203 . S
O202 C195 1.185 . S
O202 Zn198 2.086 . S
C203 O199 1.278 . S
C203 O204 1.211 . S
O204 C203 1.211 . S
C205 O197 1.284 . S
C205 O206 1.273 . S
O206 C205 1.273 . S
O207 Zn198 1.977 . S
O207 C200 1.267 . S
C208 O209 1.160 . S
C208 O215 1.185 . S
O209 C208 1.160 . S
O210 Zn211 1.899 . S
O210 C218 1.284 . S
Zn211 O210 1.899 . S
Zn211 O212 2.032 . S
Zn211 O215 2.086 . S
Zn211 O220 1.977 . S
O212 Zn211 2.032 . S
O212 C216 1.278 . S
C213 O214 1.203 . S
C213 O220 1.267 . S
O214 C213 1.203 . S
O215 C208 1.185 . S
O215 Zn211 2.086 . S
C216 O212 1.278 . S
C216 O217 1.211 . S
O217 C216 1.211 . S
C218 O210 1.284 . S
C218 O219 1.273 . S
O219 C218 1.273 . S
O220 Zn211 1.977 . S
O220 C213 1.267 . S
C221 O222 1.160 . S
C221 O228 1.185 . S
O222 C221 1.160 . S
O223 Zn224 1.899 . S
O223 C231 1.284 . S
Zn224 O223 1.899 . S
Zn224 O225 2.032 . S
Zn224 O228 2.086 . S
Zn224 O233 1.977 . S
O225 Zn224 2.032 . S
O225 C229 1.278 . S
C226 O227 1.203 . S
C226 O233 1.267 . S
O227 C226 1.203 . S
O228 C221 1.185 . S
O228 Zn224 2.086 . S
C229 O225 1.278 . S
C229 O230 1.211 . S
O230 C229 1.211 . S
C231 O223 1.284 . S
C231 O232 1.273 . S
O232 C231 1.273 . S
O233 Zn224 1.977 . S
O233 C226 1.267 . S
C234 O235 1.160 . S
C234 O241 1.185 . S
O235 C234 1.160 . S
O236 Zn237 1.899 . S
O236 C244 1.284 . S
Zn237 O236 1.899 . S
Zn237 O238 2.032 . S
Zn237 O241 2.086 . S
Zn237 O246 1.977 . S
O238 Zn237 2.032 . S
O238 C242 1.278 . S
C239 O240 1.203 . S
C239 O246 1.267 . S
O240 C239 1.203 . S
O241 C234 1.185 . S
O241 Zn237 2.086 . S
C242 O238 1.278 . S
C242 O243 1.211 . S
O243 C242 1.211 . S
C244 O236 1.284 . S
C244 O245 1.273 . S
O245 C244 1.273 . S
O246 Zn237 1.977 . S
O246 C239 1.267 . S
C247 O248 1.160 . S
C247 O254 1.185 . S
O248 C247 1.160 . S
O249 Zn250 1.899 . S
O249 C257 1.284 . S
Zn250 O249 1.899 . S
Zn250 O251 2.032 . S
Zn250 O254 2.086 . S
Zn250 O259 1.977 . S
O251 Zn250 2.032 . S
O251 C255 1.278 . S
C252 O253 1.203 . S
C252 O259 1.267 . S
O253 C252 1.203 . S
O254 C247 1.185 . S
O254 Zn250 2.086 . S
C255 O251 1.278 . S
C255 O256 1.211 . S
O256 C255 1.211 . S
C257 O249 1.284 . S
C257 O258 1.273 . S
O258 C257 1.273 . S
O259 Zn250 1.977 . S
O259 C252 1.267 . S
C260 O261 1.160 . S
C260 O267 1.185 . S
O261 C260 1.160 . S
O262 Zn263 1.899 . S
O262 C270 1.284 . S
Zn263 O262 1.899 . S
Zn263 O264 2.032 . S
Zn263 O267 2.086 . S
Zn263 O272 1.977 . S
O264 Zn263 2.032 . S
O264 C268 1.278 . S
C265 O266 1.203 . S
C265 O272 1.267 . S
O266 C265 1.203 . S
O267 C260 1.185 . S
O267 Zn263 2.086 . S
C268 O264 1.278 . S
C268 O269 1.211 . S
O269 C268 1.211 . S
C270 O262 1.284 . S
C270 O271 1.273 . S
O271 C270 1.273 . S
O272 Zn263 1.977 . S
O272 C265 1.267 . S
C273 O274 1.160 . S
C273 O280 1.185 . S
O274 C273 1.160 . S
O275 Zn276 1.899 . S
O275 C283 1.284 . S
Zn276 O275 1.899 . S
Zn276 O277 2.032 . S
Zn276 O280 2.086 . S
Zn276 O285 1.977 . S
O277 Zn276 2.032 . S
O277 C281 1.278 . S
C278 O279 1.203 . S
C278 O285 1.267 . S
O279 C278 1.203 . S
O280 C273 1.185 . S
O280 Zn276 2.086 . S
C281 O277 1.278 . S
C281 O282 1.211 . S
O282 C281 1.211 . S
C283 O275 1.284 . S
C283 O284 1.273 . S
O284 C283 1.273 . S
O285 Zn276 1.977 . S
O285 C278 1.267 . S
C286 O287 1.160 . S
C286 O293 1.185 . S
O287 C286 1.160 . S
O288 Zn289 1.899 . S
O288 C296 1.284 . S
Zn289 O288 1.899 . S
Zn289 O290 2.032 . S
Zn289 O293 2.086 . S
Zn289 O298 1.977 . S
O290 Zn289 2.032 . S
O290 C294 1.278 . S
C291 O292 1.203 . S
C291 O298 1.267 . S
O292 C291 1.203 . S
O293 C286 1.185 . S
O293 Zn289 2.086 . S
C294 O290 1.278 . S
C294 O295 1.211 . S
O295 C294 1.211 . S
C296 O288 1.284 . S
C296 O297 1.273 . S
O297 C296 1.273 . S
O298 Zn289 1.977 . S
O298 C291 1.267 . S
C299 O300 1.160 . S
C299 O306 1.185 . S
O300 C299 1.160 . S
O301 Zn302 1.899 . S
O301 C309 1.284 . S
Zn302 O301 1.899 . S
Zn302 O303 2.032 . S
Zn302 O306 2.086 . S
Zn302 O311 1.977 . S
O303 Zn302 2.032 . S
O303 C307 1.278 . S
C304 O305 1.203 . S
C304 O311 1.267 . S
O305 C304 1.203 . S
O306 C299 1.185 . S
O306 Zn302 2.086 . S
C307 O303 1.278 . S
C307 O308 1.211 . S
O308 C307 1.211 . S
C309 O301 1.284 . S
C309 O310 1.273 . S
O310 C309 1.273 . S
O311 Zn302 1.977 . S
O311 C304 1.267 . S
H312 C318 0.930 . S
H313 C322 0.930 . S
H314 C327 0.929 . S
H315 C325 0.929 . S
H316 C320 0.929 . S
H317 C326 0.929 . S
C318 H312 0.930 . S
C318 C319 1.367 . S
C318 C326 1.378 . S
C319 C318 1.367 . S
C319 C327 1.433 . S
C320 H316 0.929 . S
C320 C322 1.378 . S
C320 C324 1.350 . S
C321 C324 1.463 1_545 S
C321 C326 1.350 . S
C321 N329 1.427 . S
C322 H313 0.930 . S
C322 C320 1.378 . S
C322 C323 1.367 . S
C323 C322 1.367 . S
C323 C325 1.433 . S
C324 C320 1.350 . S
C324 C321 1.463 1_565 S
C324 N328 1.427 . S
C325 H315 0.929 . S
C325 C323 1.433 . S
C325 N328 1.384 . S
C326 H317 0.929 . S
C326 C318 1.378 . S
C326 C321 1.350 . S
C327 H314 0.929 . S
C327 C319 1.433 . S
C327 N329 1.384 . S
N328 C324 1.427 . S
N328 C325 1.384 . S
N329 C321 1.427 . S
N329 C327 1.384 . S
H330 C336 0.930 . S
H331 C340 0.930 . S
H332 C345 0.929 . S
H333 C343 0.929 . S
H334 C338 0.929 . S
H335 C344 0.929 . S
C336 H330 0.930 . S
C336 C337 1.367 . S
C336 C344 1.378 . S
C337 C336 1.367 . S
C337 C345 1.433 . S
C338 H334 0.929 . S
C338 C340 1.378 . S
C338 C342 1.350 . S
C339 C342 1.463 . S
C339 C344 1.350 . S
C339 N347 1.427 . S
C340 H331 0.930 . S
C340 C338 1.378 . S
C340 C341 1.367 . S
C341 C340 1.367 . S
C341 C343 1.433 . S
C342 C338 1.350 . S
C342 C339 1.463 . S
C342 N346 1.427 . S
C343 H333 0.929 . S
C343 C341 1.433 . S
C343 N346 1.384 . S
C344 H335 0.929 . S
C344 C336 1.378 . S
C344 C339 1.350 . S
C345 H332 0.929 . S
C345 C337 1.433 . S
C345 N347 1.384 . S
N346 C342 1.427 . S
N346 C343 1.384 . S
N347 C339 1.427 . S
N347 C345 1.384 . S
H348 C354 0.930 . S
H349 C358 0.930 . S
H350 C363 0.929 . S
H351 C361 0.929 . S
H352 C356 0.929 . S
H353 C362 0.929 . S
C354 H348 0.930 . S
C354 C355 1.367 . S
C354 C362 1.378 . S
C355 C354 1.367 . S
C355 C363 1.433 . S
C356 H352 0.929 . S
C356 C358 1.378 . S
C356 C360 1.350 . S
C357 C360 1.463 1_655 S
C357 C362 1.350 . S
C357 N365 1.427 . S
C358 H349 0.930 . S
C358 C356 1.378 . S
C358 C359 1.367 . S
C359 C358 1.367 . S
C359 C361 1.433 . S
C360 C356 1.350 . S
C360 C357 1.463 1_455 S
C360 N364 1.427 . S
C361 H351 0.929 . S
C361 C359 1.433 . S
C361 N364 1.384 . S
C362 H353 0.929 . S
C362 C354 1.378 . S
C362 C357 1.350 . S
C363 H350 0.929 . S
C363 C355 1.433 . S
C363 N365 1.384 . S
N364 C360 1.427 . S
N364 C361 1.384 . S
N365 C357 1.427 . S
N365 C363 1.384 . S
H366 C372 0.930 . S
H367 C376 0.930 . S
H368 C381 0.929 . S
H369 C379 0.929 . S
H370 C374 0.929 . S
H371 C380 0.929 . S
C372 H366 0.930 . S
C372 C373 1.367 . S
C372 C380 1.378 . S
C373 C372 1.367 . S
C373 C381 1.433 . S
C374 H370 0.929 . S
C374 C376 1.378 . S
C374 C378 1.350 . S
C375 C378 1.463 1_565 S
C375 C380 1.350 . S
C375 N383 1.427 . S
C376 H367 0.930 . S
C376 C374 1.378 . S
C376 C377 1.367 . S
C377 C376 1.367 . S
C377 C379 1.433 . S
C378 C374 1.350 . S
C378 C375 1.463 1_545 S
C378 N382 1.427 . S
C379 H369 0.929 . S
C379 C377 1.433 . S
C379 N382 1.384 . S
C380 H371 0.929 . S
C380 C372 1.378 . S
C380 C375 1.350 . S
C381 H368 0.929 . S
C381 C373 1.433 . S
C381 N383 1.384 . S
N382 C378 1.427 . S
N382 C379 1.384 . S
N383 C375 1.427 . S
N383 C381 1.384 . S
H384 C390 0.930 . S
H385 C394 0.930 . S
H386 C399 0.929 . S
H387 C397 0.929 . S
H388 C392 0.929 . S
H389 C398 0.929 . S
C390 H384 0.930 . S
C390 C391 1.367 . S
C390 C398 1.378 . S
C391 C390 1.367 . S
C391 C399 1.433 . S
C392 H388 0.929 . S
C392 C394 1.378 . S
C392 C396 1.350 . S
C393 C396 1.463 . S
C393 C398 1.350 . S
C393 N401 1.427 . S
C394 H385 0.930 . S
C394 C392 1.378 . S
C394 C395 1.367 . S
C395 C394 1.367 . S
C395 C397 1.433 . S
C396 C392 1.350 . S
C396 C393 1.463 . S
C396 N400 1.427 . S
C397 H387 0.929 . S
C397 C395 1.433 . S
C397 N400 1.384 . S
C398 H389 0.929 . S
C398 C390 1.378 . S
C398 C393 1.350 . S
C399 H386 0.929 . S
C399 C391 1.433 . S
C399 N401 1.384 . S
N400 C396 1.427 . S
N400 C397 1.384 . S
N401 C393 1.427 . S
N401 C399 1.384 . S
H402 C408 0.930 . S
H403 C412 0.930 . S
H404 C417 0.929 . S
H405 C415 0.929 . S
H406 C410 0.929 . S
H407 C416 0.929 . S
C408 H402 0.930 . S
C408 C409 1.367 . S
C408 C416 1.378 . S
C409 C408 1.367 . S
C409 C417 1.433 . S
C410 H406 0.929 . S
C410 C412 1.378 . S
C410 C414 1.350 . S
C411 C414 1.463 1_455 S
C411 C416 1.350 . S
C411 N419 1.427 . S
C412 H403 0.930 . S
C412 C410 1.378 . S
C412 C413 1.367 . S
C413 C412 1.367 . S
C413 C415 1.433 . S
C414 C410 1.350 . S
C414 C411 1.463 1_655 S
C414 N418 1.427 . S
C415 H405 0.929 . S
C415 C413 1.433 . S
C415 N418 1.384 . S
C416 H407 0.929 . S
C416 C408 1.378 . S
C416 C411 1.350 . S
C417 H404 0.929 . S
C417 C409 1.433 . S
C417 N419 1.384 . S
N418 C414 1.427 . S
N418 C415 1.384 . S
N419 C411 1.427 . S
N419 C417 1.384 . S
H420 C426 0.930 . S
H421 C430 0.930 . S
H422 C435 0.929 . S
H423 C433 0.929 . S
H424 C428 0.929 . S
H425 C434 0.929 . S
C426 H420 0.930 . S
C426 C427 1.367 . S
C426 C434 1.378 . S
C427 C426 1.367 . S
C427 C435 1.433 . S
C428 H424 0.929 . S
C428 C430 1.378 . S
C428 C432 1.350 . S
C429 C432 1.463 1_565 S
C429 C434 1.350 . S
C429 N437 1.427 . S
C430 H421 0.930 . S
C430 C428 1.378 . S
C430 C431 1.367 . S
C431 C430 1.367 . S
C431 C433 1.433 . S
C432 C428 1.350 . S
C432 C429 1.463 1_545 S
C432 N436 1.427 . S
C433 H423 0.929 . S
C433 C431 1.433 . S
C433 N436 1.384 . S
C434 H425 0.929 . S
C434 C426 1.378 . S
C434 C429 1.350 . S
C435 H422 0.929 . S
C435 C427 1.433 . S
C435 N437 1.384 . S
N436 C432 1.427 . S
N436 C433 1.384 . S
N437 C429 1.427 . S
N437 C435 1.384 . S
H438 C444 0.930 . S
H439 C448 0.930 . S
H440 C453 0.929 . S
H441 C451 0.929 . S
H442 C446 0.929 . S
H443 C452 0.929 . S
C444 H438 0.930 . S
C444 C445 1.367 . S
C444 C452 1.378 . S
C445 C444 1.367 . S
C445 C453 1.433 . S
C446 H442 0.929 . S
C446 C448 1.378 . S
C446 C450 1.350 . S
C447 C450 1.463 . S
C447 C452 1.350 . S
C447 N455 1.427 . S
C448 H439 0.930 . S
C448 C446 1.378 . S
C448 C449 1.367 . S
C449 C448 1.367 . S
C449 C451 1.433 . S
C450 C446 1.350 . S
C450 C447 1.463 . S
C450 N454 1.427 . S
C451 H441 0.929 . S
C451 C449 1.433 . S
C451 N454 1.384 . S
C452 H443 0.929 . S
C452 C444 1.378 . S
C452 C447 1.350 . S
C453 H440 0.929 . S
C453 C445 1.433 . S
C453 N455 1.384 . S
N454 C450 1.427 . S
N454 C451 1.384 . S
N455 C447 1.427 . S
N455 C453 1.384 . S
H456 C462 0.930 . S
H457 C466 0.930 . S
H458 C471 0.929 . S
H459 C469 0.929 . S
H460 C464 0.929 . S
H461 C470 0.929 . S
C462 H456 0.930 . S
C462 C463 1.367 . S
C462 C470 1.378 . S
C463 C462 1.367 . S
C463 C471 1.433 . S
C464 H460 0.929 . S
C464 C466 1.378 . S
C464 C468 1.350 . S
C465 C468 1.463 1_655 S
C465 C470 1.350 . S
C465 N473 1.427 . S
C466 H457 0.930 . S
C466 C464 1.378 . S
C466 C467 1.367 . S
C467 C466 1.367 . S
C467 C469 1.433 . S
C468 C464 1.350 . S
C468 C465 1.463 1_455 S
C468 N472 1.427 . S
C469 H459 0.929 . S
C469 C467 1.433 . S
C469 N472 1.384 . S
C470 H461 0.929 . S
C470 C462 1.378 . S
C470 C465 1.350 . S
C471 H458 0.929 . S
C471 C463 1.433 . S
C471 N473 1.384 . S
N472 C468 1.427 . S
N472 C469 1.384 . S
N473 C465 1.427 . S
N473 C471 1.384 . S
H474 C480 0.930 . S
H475 C484 0.930 . S
H476 C489 0.929 . S
H477 C487 0.929 . S
H478 C482 0.929 . S
H479 C488 0.929 . S
C480 H474 0.930 . S
C480 C481 1.367 . S
C480 C488 1.378 . S
C481 C480 1.367 . S
C481 C489 1.433 . S
C482 H478 0.929 . S
C482 C484 1.378 . S
C482 C486 1.350 . S
C483 C486 1.463 1_545 S
C483 C488 1.350 . S
C483 N491 1.427 . S
C484 H475 0.930 . S
C484 C482 1.378 . S
C484 C485 1.367 . S
C485 C484 1.367 . S
C485 C487 1.433 . S
C486 C482 1.350 . S
C486 C483 1.463 1_565 S
C486 N490 1.427 . S
C487 H477 0.929 . S
C487 C485 1.433 . S
C487 N490 1.384 . S
C488 H479 0.929 . S
C488 C480 1.378 . S
C488 C483 1.350 . S
C489 H476 0.929 . S
C489 C481 1.433 . S
C489 N491 1.384 . S
N490 C486 1.427 . S
N490 C487 1.384 . S
N491 C483 1.427 . S
N491 C489 1.384 . S
H492 C498 0.930 . S
H493 C502 0.930 . S
H494 C507 0.929 . S
H495 C505 0.929 . S
H496 C500 0.929 . S
H497 C506 0.929 . S
C498 H492 0.930 . S
C498 C499 1.367 . S
C498 C506 1.378 . S
C499 C498 1.367 . S
C499 C507 1.433 . S
C500 H496 0.929 . S
C500 C502 1.378 . S
C500 C504 1.350 . S
C501 C504 1.463 . S
C501 C506 1.350 . S
C501 N509 1.427 . S
C502 H493 0.930 . S
C502 C500 1.378 . S
C502 C503 1.367 . S
C503 C502 1.367 . S
C503 C505 1.433 . S
C504 C500 1.350 . S
C504 C501 1.463 . S
C504 N508 1.427 . S
C505 H495 0.929 . S
C505 C503 1.433 . S
C505 N508 1.384 . S
C506 H497 0.929 . S
C506 C498 1.378 . S
C506 C501 1.350 . S
C507 H494 0.929 . S
C507 C499 1.433 . S
C507 N509 1.384 . S
N508 C504 1.427 . S
N508 C505 1.384 . S
N509 C501 1.427 . S
N509 C507 1.384 . S
H510 C516 0.930 . S
H511 C520 0.930 . S
H512 C525 0.929 . S
H513 C523 0.929 . S
H514 C518 0.929 . S
H515 C524 0.929 . S
C516 H510 0.930 . S
C516 C517 1.367 . S
C516 C524 1.378 . S
C517 C516 1.367 . S
C517 C525 1.433 . S
C518 H514 0.929 . S
C518 C520 1.378 . S
C518 C522 1.350 . S
C519 C522 1.463 1_455 S
C519 C524 1.350 . S
C519 N527 1.427 . S
C520 H511 0.930 . S
C520 C518 1.378 . S
C520 C521 1.367 . S
C521 C520 1.367 . S
C521 C523 1.433 . S
C522 C518 1.350 . S
C522 C519 1.463 1_655 S
C522 N526 1.427 . S
C523 H513 0.929 . S
C523 C521 1.433 . S
C523 N526 1.384 . S
C524 H515 0.929 . S
C524 C516 1.378 . S
C524 C519 1.350 . S
C525 H512 0.929 . S
C525 C517 1.433 . S
C525 N527 1.384 . S
N526 C522 1.427 . S
N526 C523 1.384 . S
N527 C519 1.427 . S
N527 C525 1.384 . S
H528 C534 0.930 . S
H529 C538 0.930 . S
H530 C543 0.929 . S
H531 C541 0.929 . S
H532 C536 0.929 . S
H533 C542 0.929 . S
C534 H528 0.930 . S
C534 C535 1.367 . S
C534 C542 1.378 . S
C535 C534 1.367 . S
C535 C543 1.433 . S
C536 H532 0.929 . S
C536 C538 1.378 . S
C536 C540 1.350 . S
C537 C540 1.463 . S
C537 C542 1.350 . S
C537 N545 1.427 . S
C538 H529 0.930 . S
C538 C536 1.378 . S
C538 C539 1.367 . S
C539 C538 1.367 . S
C539 C541 1.433 . S
C540 C536 1.350 . S
C540 C537 1.463 . S
C540 N544 1.427 . S
C541 H531 0.929 . S
C541 C539 1.433 . S
C541 N544 1.384 . S
C542 H533 0.929 . S
C542 C534 1.378 . S
C542 C537 1.350 . S
C543 H530 0.929 . S
C543 C535 1.433 . S
C543 N545 1.384 . S
N544 C540 1.427 . S
N544 C541 1.384 . S
N545 C537 1.427 . S
N545 C543 1.384 . S
H546 C552 0.930 . S
H547 C556 0.930 . S
H548 C561 0.929 . S
H549 C559 0.929 . S
H550 C554 0.929 . S
H551 C560 0.929 . S
C552 H546 0.930 . S
C552 C553 1.367 . S
C552 C560 1.378 . S
C553 C552 1.367 . S
C553 C561 1.433 . S
C554 H550 0.929 . S
C554 C556 1.378 . S
C554 C558 1.350 . S
C555 C558 1.463 . S
C555 C560 1.350 . S
C555 N563 1.427 . S
C556 H547 0.930 . S
C556 C554 1.378 . S
C556 C557 1.367 . S
C557 C556 1.367 . S
C557 C559 1.433 . S
C558 C554 1.350 . S
C558 C555 1.463 . S
C558 N562 1.427 . S
C559 H549 0.929 . S
C559 C557 1.433 . S
C559 N562 1.384 . S
C560 H551 0.929 . S
C560 C552 1.378 . S
C560 C555 1.350 . S
C561 H548 0.929 . S
C561 C553 1.433 . S
C561 N563 1.384 . S
N562 C558 1.427 . S
N562 C559 1.384 . S
N563 C555 1.427 . S
N563 C561 1.384 . S
H564 C570 0.930 . S
H565 C574 0.930 . S
H566 C579 0.929 . S
H567 C577 0.929 . S
H568 C572 0.929 . S
H569 C578 0.929 . S
C570 H564 0.930 . S
C570 C571 1.367 . S
C570 C578 1.378 . S
C571 C570 1.367 . S
C571 C579 1.433 . S
C572 H568 0.929 . S
C572 C574 1.378 . S
C572 C576 1.350 . S
C573 C576 1.463 . S
C573 C578 1.350 . S
C573 N581 1.427 . S
C574 H565 0.930 . S
C574 C572 1.378 . S
C574 C575 1.367 . S
C575 C574 1.367 . S
C575 C577 1.433 . S
C576 C572 1.350 . S
C576 C573 1.463 . S
C576 N580 1.427 . S
C577 H567 0.929 . S
C577 C575 1.433 . S
C577 N580 1.384 . S
C578 H569 0.929 . S
C578 C570 1.378 . S
C578 C573 1.350 . S
C579 H566 0.929 . S
C579 C571 1.433 . S
C579 N581 1.384 . S
N580 C576 1.427 . S
N580 C577 1.384 . S
N581 C573 1.427 . S
N581 C579 1.384 . S
H582 C588 0.930 . S
H583 C592 0.930 . S
H584 C597 0.929 . S
H585 C595 0.929 . S
H586 C590 0.929 . S
H587 C596 0.929 . S
C588 H582 0.930 . S
C588 C589 1.367 . S
C588 C596 1.378 . S
C589 C588 1.367 . S
C589 C597 1.433 . S
C590 H586 0.929 . S
C590 C592 1.378 . S
C590 C594 1.350 . S
C591 C594 1.463 . S
C591 C596 1.350 . S
C591 N599 1.427 . S
C592 H583 0.930 . S
C592 C590 1.378 . S
C592 C593 1.367 . S
C593 C592 1.367 . S
C593 C595 1.433 . S
C594 C590 1.350 . S
C594 C591 1.463 . S
C594 N598 1.427 . S
C595 H585 0.929 . S
C595 C593 1.433 . S
C595 N598 1.384 . S
C596 H587 0.929 . S
C596 C588 1.378 . S
C596 C591 1.350 . S
C597 H584 0.929 . S
C597 C589 1.433 . S
C597 N599 1.384 . S
N598 C594 1.427 . S
N598 C595 1.384 . S
N599 C591 1.427 . S
N599 C597 1.384 . S
H600 C606 0.930 . S
H601 C610 0.930 . S
H602 C615 0.929 . S
H603 C613 0.929 . S
H604 C608 0.929 . S
H605 C614 0.929 . S
C606 H600 0.930 . S
C606 C607 1.367 . S
C606 C614 1.378 . S
C607 C606 1.367 . S
C607 C615 1.433 . S
C608 H604 0.929 . S
C608 C610 1.378 . S
C608 C612 1.350 . S
C609 C612 1.463 . S
C609 C614 1.350 . S
C609 N617 1.427 . S
C610 H601 0.930 . S
C610 C608 1.378 . S
C610 C611 1.367 . S
C611 C610 1.367 . S
C611 C613 1.433 . S
C612 C608 1.350 . S
C612 C609 1.463 . S
C612 N616 1.427 . S
C613 H603 0.929 . S
C613 C611 1.433 . S
C613 N616 1.384 . S
C614 H605 0.929 . S
C614 C606 1.378 . S
C614 C609 1.350 . S
C615 H602 0.929 . S
C615 C607 1.433 . S
C615 N617 1.384 . S
N616 C612 1.427 . S
N616 C613 1.384 . S
N617 C609 1.427 . S
N617 C615 1.384 . S
H618 C624 0.930 . S
H619 C628 0.930 . S
H620 C633 0.929 . S
H621 C631 0.929 . S
H622 C626 0.929 . S
H623 C632 0.929 . S
C624 H618 0.930 . S
C624 C625 1.367 . S
C624 C632 1.378 . S
C625 C624 1.367 . S
C625 C633 1.433 . S
C626 H622 0.929 . S
C626 C628 1.378 . S
C626 C630 1.350 . S
C627 C630 1.463 . S
C627 C632 1.350 . S
C627 N635 1.427 . S
C628 H619 0.930 . S
C628 C626 1.378 . S
C628 C629 1.367 . S
C629 C628 1.367 . S
C629 C631 1.433 . S
C630 C626 1.350 . S
C630 C627 1.463 . S
C630 N634 1.427 . S
C631 H621 0.929 . S
C631 C629 1.433 . S
C631 N634 1.384 . S
C632 H623 0.929 . S
C632 C624 1.378 . S
C632 C627 1.350 . S
C633 H620 0.929 . S
C633 C625 1.433 . S
C633 N635 1.384 . S
N634 C630 1.427 . S
N634 C631 1.384 . S
N635 C627 1.427 . S
N635 C633 1.384 . S
H636 C642 0.930 . S
H637 C646 0.930 . S
H638 C651 0.929 . S
H639 C649 0.929 . S
H640 C644 0.929 . S
H641 C650 0.929 . S
C642 H636 0.930 . S
C642 C643 1.367 . S
C642 C650 1.378 . S
C643 C642 1.367 . S
C643 C651 1.433 . S
C644 H640 0.929 . S
C644 C646 1.378 . S
C644 C648 1.350 . S
C645 C648 1.463 . S
C645 C650 1.350 . S
C645 N653 1.427 . S
C646 H637 0.930 . S
C646 C644 1.378 . S
C646 C647 1.367 . S
C647 C646 1.367 . S
C647 C649 1.433 . S
C648 C644 1.350 . S
C648 C645 1.463 . S
C648 N652 1.427 . S
C649 H639 0.929 . S
C649 C647 1.433 . S
C649 N652 1.384 . S
C650 H641 0.929 . S
C650 C642 1.378 . S
C650 C645 1.350 . S
C651 H638 0.929 . S
C651 C643 1.433 . S
C651 N653 1.384 . S
N652 C648 1.427 . S
N652 C649 1.384 . S
N653 C645 1.427 . S
N653 C651 1.384 . S
H654 C660 0.930 . S
H655 C664 0.930 . S
H656 C669 0.929 . S
H657 C667 0.929 . S
H658 C662 0.929 . S
H659 C668 0.929 . S
C660 H654 0.930 . S
C660 C661 1.367 . S
C660 C668 1.378 . S
C661 C660 1.367 . S
C661 C669 1.433 . S
C662 H658 0.929 . S
C662 C664 1.378 . S
C662 C666 1.350 . S
C663 C666 1.463 . S
C663 C668 1.350 . S
C663 N671 1.427 . S
C664 H655 0.930 . S
C664 C662 1.378 . S
C664 C665 1.367 . S
C665 C664 1.367 . S
C665 C667 1.433 . S
C666 C662 1.350 . S
C666 C663 1.463 . S
C666 N670 1.427 . S
C667 H657 0.929 . S
C667 C665 1.433 . S
C667 N670 1.384 . S
C668 H659 0.929 . S
C668 C660 1.378 . S
C668 C663 1.350 . S
C669 H656 0.929 . S
C669 C661 1.433 . S
C669 N671 1.384 . S
N670 C666 1.427 . S
N670 C667 1.384 . S
N671 C663 1.427 . S
N671 C669 1.384 . S
H672 C678 0.930 . S
H673 C682 0.930 . S
H674 C687 0.929 . S
H675 C685 0.929 . S
H676 C680 0.929 . S
H677 C686 0.929 . S
C678 H672 0.930 . S
C678 C679 1.367 . S
C678 C686 1.378 . S
C679 C678 1.367 . S
C679 C687 1.433 . S
C680 H676 0.929 . S
C680 C682 1.378 . S
C680 C684 1.350 . S
C681 C684 1.463 . S
C681 C686 1.350 . S
C681 N689 1.427 . S
C682 H673 0.930 . S
C682 C680 1.378 . S
C682 C683 1.367 . S
C683 C682 1.367 . S
C683 C685 1.433 . S
C684 C680 1.350 . S
C684 C681 1.463 . S
C684 N688 1.427 . S
C685 H675 0.929 . S
C685 C683 1.433 . S
C685 N688 1.384 . S
C686 H677 0.929 . S
C686 C678 1.378 . S
C686 C681 1.350 . S
C687 H674 0.929 . S
C687 C679 1.433 . S
C687 N689 1.384 . S
N688 C684 1.427 . S
N688 C685 1.384 . S
N689 C681 1.427 . S
N689 C687 1.384 . S
H690 C696 0.930 . S
H691 C700 0.930 . S
H692 C705 0.929 . S
H693 C703 0.929 . S
H694 C698 0.929 . S
H695 C704 0.929 . S
C696 H690 0.930 . S
C696 C697 1.367 . S
C696 C704 1.378 . S
C697 C696 1.367 . S
C697 C705 1.433 . S
C698 H694 0.929 . S
C698 C700 1.378 . S
C698 C702 1.350 . S
C699 C702 1.463 . S
C699 C704 1.350 . S
C699 N707 1.427 . S
C700 H691 0.930 . S
C700 C698 1.378 . S
C700 C701 1.367 . S
C701 C700 1.367 . S
C701 C703 1.433 . S
C702 C698 1.350 . S
C702 C699 1.463 . S
C702 N706 1.427 . S
C703 H693 0.929 . S
C703 C701 1.433 . S
C703 N706 1.384 . S
C704 H695 0.929 . S
C704 C696 1.378 . S
C704 C699 1.350 . S
C705 H692 0.929 . S
C705 C697 1.433 . S
C705 N707 1.384 . S
N706 C702 1.427 . S
N706 C703 1.384 . S
N707 C699 1.427 . S
N707 C705 1.384 . S
H708 C714 0.930 . S
H709 C718 0.930 . S
H710 C723 0.929 . S
H711 C721 0.929 . S
H712 C716 0.929 . S
H713 C722 0.929 . S
C714 H708 0.930 . S
C714 C715 1.367 . S
C714 C722 1.378 . S
C715 C714 1.367 . S
C715 C723 1.433 . S
C716 H712 0.929 . S
C716 C718 1.378 . S
C716 C720 1.350 . S
C717 C720 1.463 . S
C717 C722 1.350 . S
C717 N725 1.427 . S
C718 H709 0.930 . S
C718 C716 1.378 . S
C718 C719 1.367 . S
C719 C718 1.367 . S
C719 C721 1.433 . S
C720 C716 1.350 . S
C720 C717 1.463 . S
C720 N724 1.427 . S
C721 H711 0.929 . S
C721 C719 1.433 . S
C721 N724 1.384 . S
C722 H713 0.929 . S
C722 C714 1.378 . S
C722 C717 1.350 . S
C723 H710 0.929 . S
C723 C715 1.433 . S
C723 N725 1.384 . S
N724 C720 1.427 . S
N724 C721 1.384 . S
N725 C717 1.427 . S
N725 C723 1.384 . S
H726 C732 0.930 . S
H727 C736 0.930 . S
H728 C741 0.929 . S
H729 C739 0.929 . S
H730 C734 0.929 . S
H731 C740 0.929 . S
C732 H726 0.930 . S
C732 C733 1.367 . S
C732 C740 1.378 . S
C733 C732 1.367 . S
C733 C741 1.433 . S
C734 H730 0.929 . S
C734 C736 1.378 . S
C734 C738 1.350 . S
C735 C738 1.463 . S
C735 C740 1.350 . S
C735 N743 1.427 . S
C736 H727 0.930 . S
C736 C734 1.378 . S
C736 C737 1.367 . S
C737 C736 1.367 . S
C737 C739 1.433 . S
C738 C734 1.350 . S
C738 C735 1.463 . S
C738 N742 1.427 . S
C739 H729 0.929 . S
C739 C737 1.433 . S
C739 N742 1.384 . S
C740 H731 0.929 . S
C740 C732 1.378 . S
C740 C735 1.350 . S
C741 H728 0.929 . S
C741 C733 1.433 . S
C741 N743 1.384 . S
N742 C738 1.427 . S
N742 C739 1.384 . S
N743 C735 1.427 . S
N743 C741 1.384 . S
H744 C750 0.930 . S
H745 C754 0.930 . S
H746 C759 0.929 . S
H747 C757 0.929 . S
H748 C752 0.929 . S
H749 C758 0.929 . S
C750 H744 0.930 . S
C750 C751 1.367 . S
C750 C758 1.378 . S
C751 C750 1.367 . S
C751 C759 1.433 . S
C752 H748 0.929 . S
C752 C754 1.378 . S
C752 C756 1.350 . S
C753 C756 1.463 1_554 S
C753 C758 1.350 . S
C753 N761 1.427 . S
C754 H745 0.930 . S
C754 C752 1.378 . S
C754 C755 1.367 . S
C755 C754 1.367 . S
C755 C757 1.433 . S
C756 C752 1.350 . S
C756 C753 1.463 1_556 S
C756 N760 1.427 . S
C757 H747 0.929 . S
C757 C755 1.433 . S
C757 N760 1.384 . S
C758 H749 0.929 . S
C758 C750 1.378 . S
C758 C753 1.350 . S
C759 H746 0.929 . S
C759 C751 1.433 . S
C759 N761 1.384 . S
N760 C756 1.427 . S
N760 C757 1.384 . S
N761 C753 1.427 . S
N761 C759 1.384 . S
H762 C768 0.930 . S
H763 C772 0.930 . S
H764 C777 0.929 . S
H765 C775 0.929 . S
H766 C770 0.929 . S
H767 C776 0.929 . S
C768 H762 0.930 . S
C768 C769 1.367 . S
C768 C776 1.378 . S
C769 C768 1.367 . S
C769 C777 1.433 . S
C770 H766 0.929 . S
C770 C772 1.378 . S
C770 C774 1.350 . S
C771 C774 1.463 1_556 S
C771 C776 1.350 . S
C771 N779 1.427 . S
C772 H763 0.930 . S
C772 C770 1.378 . S
C772 C773 1.367 . S
C773 C772 1.367 . S
C773 C775 1.433 . S
C774 C770 1.350 . S
C774 C771 1.463 1_554 S
C774 N778 1.427 . S
C775 H765 0.929 . S
C775 C773 1.433 . S
C775 N778 1.384 . S
C776 H767 0.929 . S
C776 C768 1.378 . S
C776 C771 1.350 . S
C777 H764 0.929 . S
C777 C769 1.433 . S
C777 N779 1.384 . S
N778 C774 1.427 . S
N778 C775 1.384 . S
N779 C771 1.427 . S
N779 C777 1.384 . S
H780 C786 0.930 . S
H781 C790 0.930 . S
H782 C795 0.929 . S
H783 C793 0.929 . S
H784 C788 0.929 . S
H785 C794 0.929 . S
C786 H780 0.930 . S
C786 C787 1.367 . S
C786 C794 1.378 . S
C787 C786 1.367 . S
C787 C795 1.433 . S
C788 H784 0.929 . S
C788 C790 1.378 . S
C788 C792 1.350 . S
C789 C792 1.463 1_556 S
C789 C794 1.350 . S
C789 N797 1.427 . S
C790 H781 0.930 . S
C790 C788 1.378 . S
C790 C791 1.367 . S
C791 C790 1.367 . S
C791 C793 1.433 . S
C792 C788 1.350 . S
C792 C789 1.463 1_554 S
C792 N796 1.427 . S
C793 H783 0.929 . S
C793 C791 1.433 . S
C793 N796 1.384 . S
C794 H785 0.929 . S
C794 C786 1.378 . S
C794 C789 1.350 . S
C795 H782 0.929 . S
C795 C787 1.433 . S
C795 N797 1.384 . S
N796 C792 1.427 . S
N796 C793 1.384 . S
N797 C789 1.427 . S
N797 C795 1.384 . S
H798 C804 0.930 . S
H799 C808 0.930 . S
H800 C813 0.929 . S
H801 C811 0.929 . S
H802 C806 0.929 . S
H803 C812 0.929 . S
C804 H798 0.930 . S
C804 C805 1.367 . S
C804 C812 1.378 . S
C805 C804 1.367 . S
C805 C813 1.433 . S
C806 H802 0.929 . S
C806 C808 1.378 . S
C806 C810 1.350 . S
C807 C810 1.463 1_554 S
C807 C812 1.350 . S
C807 N815 1.427 . S
C808 H799 0.930 . S
C808 C806 1.378 . S
C808 C809 1.367 . S
C809 C808 1.367 . S
C809 C811 1.433 . S
C810 C806 1.350 . S
C810 C807 1.463 1_556 S
C810 N814 1.427 . S
C811 H801 0.929 . S
C811 C809 1.433 . S
C811 N814 1.384 . S
C812 H803 0.929 . S
C812 C804 1.378 . S
C812 C807 1.350 . S
C813 H800 0.929 . S
C813 C805 1.433 . S
C813 N815 1.384 . S
N814 C810 1.427 . S
N814 C811 1.384 . S
N815 C807 1.427 . S
N815 C813 1.384 . S
H816 C822 0.930 . S
H817 C826 0.930 . S
H818 C831 0.929 . S
H819 C829 0.929 . S
H820 C824 0.929 . S
H821 C830 0.929 . S
C822 H816 0.930 . S
C822 C823 1.367 . S
C822 C830 1.378 . S
C823 C822 1.367 . S
C823 C831 1.433 . S
C824 H820 0.929 . S
C824 C826 1.378 . S
C824 C828 1.350 . S
C825 C828 1.463 1_554 S
C825 C830 1.350 . S
C825 N833 1.427 . S
C826 H817 0.930 . S
C826 C824 1.378 . S
C826 C827 1.367 . S
C827 C826 1.367 . S
C827 C829 1.433 . S
C828 C824 1.350 . S
C828 C825 1.463 1_556 S
C828 N832 1.427 . S
C829 H819 0.929 . S
C829 C827 1.433 . S
C829 N832 1.384 . S
C830 H821 0.929 . S
C830 C822 1.378 . S
C830 C825 1.350 . S
C831 H818 0.929 . S
C831 C823 1.433 . S
C831 N833 1.384 . S
N832 C828 1.427 . S
N832 C829 1.384 . S
N833 C825 1.427 . S
N833 C831 1.384 . S
H834 C840 0.930 . S
H835 C844 0.930 . S
H836 C849 0.929 . S
H837 C847 0.929 . S
H838 C842 0.929 . S
H839 C848 0.929 . S
C840 H834 0.930 . S
C840 C841 1.367 . S
C840 C848 1.378 . S
C841 C840 1.367 . S
C841 C849 1.433 . S
C842 H838 0.929 . S
C842 C844 1.378 . S
C842 C846 1.350 . S
C843 C846 1.463 1_556 S
C843 C848 1.350 . S
C843 N851 1.427 . S
C844 H835 0.930 . S
C844 C842 1.378 . S
C844 C845 1.367 . S
C845 C844 1.367 . S
C845 C847 1.433 . S
C846 C842 1.350 . S
C846 C843 1.463 1_554 S
C846 N850 1.427 . S
C847 H837 0.929 . S
C847 C845 1.433 . S
C847 N850 1.384 . S
C848 H839 0.929 . S
C848 C840 1.378 . S
C848 C843 1.350 . S
C849 H836 0.929 . S
C849 C841 1.433 . S
C849 N851 1.384 . S
N850 C846 1.427 . S
N850 C847 1.384 . S
N851 C843 1.427 . S
N851 C849 1.384 . S
H852 C858 0.930 . S
H853 C862 0.930 . S
H854 C867 0.929 . S
H855 C865 0.929 . S
H856 C860 0.929 . S
H857 C866 0.929 . S
C858 H852 0.930 . S
C858 C859 1.367 . S
C858 C866 1.378 . S
C859 C858 1.367 . S
C859 C867 1.433 . S
C860 H856 0.929 . S
C860 C862 1.378 . S
C860 C864 1.350 . S
C861 C864 1.463 . S
C861 C866 1.350 . S
C861 N869 1.427 . S
C862 H853 0.930 . S
C862 C860 1.378 . S
C862 C863 1.367 . S
C863 C862 1.367 . S
C863 C865 1.433 . S
C864 C860 1.350 . S
C864 C861 1.463 . S
C864 N868 1.427 . S
C865 H855 0.929 . S
C865 C863 1.433 . S
C865 N868 1.384 . S
C866 H857 0.929 . S
C866 C858 1.378 . S
C866 C861 1.350 . S
C867 H854 0.929 . S
C867 C859 1.433 . S
C867 N869 1.384 . S
N868 C864 1.427 . S
N868 C865 1.384 . S
N869 C861 1.427 . S
N869 C867 1.384 . S
H870 C876 0.930 . S
H871 C880 0.930 . S
H872 C885 0.929 . S
H873 C883 0.929 . S
H874 C878 0.929 . S
H875 C884 0.929 . S
C876 H870 0.930 . S
C876 C877 1.367 . S
C876 C884 1.378 . S
C877 C876 1.367 . S
C877 C885 1.433 . S
C878 H874 0.929 . S
C878 C880 1.378 . S
C878 C882 1.350 . S
C879 C882 1.463 . S
C879 C884 1.350 . S
C879 N887 1.427 . S
C880 H871 0.930 . S
C880 C878 1.378 . S
C880 C881 1.367 . S
C881 C880 1.367 . S
C881 C883 1.433 . S
C882 C878 1.350 . S
C882 C879 1.463 . S
C882 N886 1.427 . S
C883 H873 0.929 . S
C883 C881 1.433 . S
C883 N886 1.384 . S
C884 H875 0.929 . S
C884 C876 1.378 . S
C884 C879 1.350 . S
C885 H872 0.929 . S
C885 C877 1.433 . S
C885 N887 1.384 . S
N886 C882 1.427 . S
N886 C883 1.384 . S
N887 C879 1.427 . S
N887 C885 1.384 . S
H888 C894 0.930 . S
H889 C898 0.930 . S
H890 C903 0.929 . S
H891 C901 0.929 . S
H892 C896 0.929 . S
H893 C902 0.929 . S
C894 H888 0.930 . S
C894 C895 1.367 . S
C894 C902 1.378 . S
C895 C894 1.367 . S
C895 C903 1.433 . S
C896 H892 0.929 . S
C896 C898 1.378 . S
C896 C900 1.350 . S
C897 C900 1.463 . S
C897 C902 1.350 . S
C897 N905 1.427 . S
C898 H889 0.930 . S
C898 C896 1.378 . S
C898 C899 1.367 . S
C899 C898 1.367 . S
C899 C901 1.433 . S
C900 C896 1.350 . S
C900 C897 1.463 . S
C900 N904 1.427 . S
C901 H891 0.929 . S
C901 C899 1.433 . S
C901 N904 1.384 . S
C902 H893 0.929 . S
C902 C894 1.378 . S
C902 C897 1.350 . S
C903 H890 0.929 . S
C903 C895 1.433 . S
C903 N905 1.384 . S
N904 C900 1.427 . S
N904 C901 1.384 . S
N905 C897 1.427 . S
N905 C903 1.384 . S
H906 C912 0.930 . S
H907 C916 0.930 . S
H908 C921 0.929 . S
H909 C919 0.929 . S
H910 C914 0.929 . S
H911 C920 0.929 . S
C912 H906 0.930 . S
C912 C913 1.367 . S
C912 C920 1.378 . S
C913 C912 1.367 . S
C913 C921 1.433 . S
C914 H910 0.929 . S
C914 C916 1.378 . S
C914 C918 1.350 . S
C915 C918 1.463 . S
C915 C920 1.350 . S
C915 N923 1.427 . S
C916 H907 0.930 . S
C916 C914 1.378 . S
C916 C917 1.367 . S
C917 C916 1.367 . S
C917 C919 1.433 . S
C918 C914 1.350 . S
C918 C915 1.463 . S
C918 N922 1.427 . S
C919 H909 0.929 . S
C919 C917 1.433 . S
C919 N922 1.384 . S
C920 H911 0.929 . S
C920 C912 1.378 . S
C920 C915 1.350 . S
C921 H908 0.929 . S
C921 C913 1.433 . S
C921 N923 1.384 . S
N922 C918 1.427 . S
N922 C919 1.384 . S
N923 C915 1.427 . S
N923 C921 1.384 . S
H924 C930 0.930 . S
H925 C934 0.930 . S
H926 C939 0.929 . S
H927 C937 0.929 . S
H928 C932 0.929 . S
H929 C938 0.929 . S
C930 H924 0.930 . S
C930 C931 1.367 . S
C930 C938 1.378 . S
C931 C930 1.367 . S
C931 C939 1.433 . S
C932 H928 0.929 . S
C932 C934 1.378 . S
C932 C936 1.350 . S
C933 C936 1.463 . S
C933 C938 1.350 . S
C933 N941 1.427 . S
C934 H925 0.930 . S
C934 C932 1.378 . S
C934 C935 1.367 . S
C935 C934 1.367 . S
C935 C937 1.433 . S
C936 C932 1.350 . S
C936 C933 1.463 . S
C936 N940 1.427 . S
C937 H927 0.929 . S
C937 C935 1.433 . S
C937 N940 1.384 . S
C938 H929 0.929 . S
C938 C930 1.378 . S
C938 C933 1.350 . S
C939 H926 0.929 . S
C939 C931 1.433 . S
C939 N941 1.384 . S
N940 C936 1.427 . S
N940 C937 1.384 . S
N941 C933 1.427 . S
N941 C939 1.384 . S
H942 C948 0.930 . S
H943 C952 0.930 . S
H944 C957 0.929 . S
H945 C955 0.929 . S
H946 C950 0.929 . S
H947 C956 0.929 . S
C948 H942 0.930 . S
C948 C949 1.367 . S
C948 C956 1.378 . S
C949 C948 1.367 . S
C949 C957 1.433 . S
C950 H946 0.929 . S
C950 C952 1.378 . S
C950 C954 1.350 . S
C951 C954 1.463 . S
C951 C956 1.350 . S
C951 N959 1.427 . S
C952 H943 0.930 . S
C952 C950 1.378 . S
C952 C953 1.367 . S
C953 C952 1.367 . S
C953 C955 1.433 . S
C954 C950 1.350 . S
C954 C951 1.463 . S
C954 N958 1.427 . S
C955 H945 0.929 . S
C955 C953 1.433 . S
C955 N958 1.384 . S
C956 H947 0.929 . S
C956 C948 1.378 . S
C956 C951 1.350 . S
C957 H944 0.929 . S
C957 C949 1.433 . S
C957 N959 1.384 . S
N958 C954 1.427 . S
N958 C955 1.384 . S
N959 C951 1.427 . S
N959 C957 1.384 . S
H960 C966 0.930 . S
H961 C970 0.930 . S
H962 C975 0.929 . S
H963 C973 0.929 . S
H964 C968 0.929 . S
H965 C974 0.929 . S
C966 H960 0.930 . S
C966 C967 1.367 . S
C966 C974 1.378 . S
C967 C966 1.367 . S
C967 C975 1.433 . S
C968 H964 0.929 . S
C968 C970 1.378 . S
C968 C972 1.350 . S
C969 C972 1.463 . S
C969 C974 1.350 . S
C969 N977 1.427 . S
C970 H961 0.930 . S
C970 C968 1.378 . S
C970 C971 1.367 . S
C971 C970 1.367 . S
C971 C973 1.433 . S
C972 C968 1.350 . S
C972 C969 1.463 . S
C972 N976 1.427 . S
C973 H963 0.929 . S
C973 C971 1.433 . S
C973 N976 1.384 . S
C974 H965 0.929 . S
C974 C966 1.378 . S
C974 C969 1.350 . S
C975 H962 0.929 . S
C975 C967 1.433 . S
C975 N977 1.384 . S
N976 C972 1.427 . S
N976 C973 1.384 . S
N977 C969 1.427 . S
N977 C975 1.384 . S
H978 C984 0.930 . S
H979 C988 0.930 . S
H980 C993 0.929 . S
H981 C991 0.929 . S
H982 C986 0.929 . S
H983 C992 0.929 . S
C984 H978 0.930 . S
C984 C985 1.367 . S
C984 C992 1.378 . S
C985 C984 1.367 . S
C985 C993 1.433 . S
C986 H982 0.929 . S
C986 C988 1.378 . S
C986 C990 1.350 . S
C987 C990 1.463 . S
C987 C992 1.350 . S
C987 N995 1.427 . S
C988 H979 0.930 . S
C988 C986 1.378 . S
C988 C989 1.367 . S
C989 C988 1.367 . S
C989 C991 1.433 . S
C990 C986 1.350 . S
C990 C987 1.463 . S
C990 N994 1.427 . S
C991 H981 0.929 . S
C991 C989 1.433 . S
C991 N994 1.384 . S
C992 H983 0.929 . S
C992 C984 1.378 . S
C992 C987 1.350 . S
C993 H980 0.929 . S
C993 C985 1.433 . S
C993 N995 1.384 . S
N994 C990 1.427 . S
N994 C991 1.384 . S
N995 C987 1.427 . S
N995 C993 1.384 . S
H996 C1002 0.930 . S
H997 C1006 0.930 . S
H998 C1011 0.929 . S
H999 C1009 0.929 . S
H1000 C1004 0.929 . S
H1001 C1010 0.929 . S
C1002 H996 0.930 . S
C1002 C1003 1.367 . S
C1002 C1010 1.378 . S
C1003 C1002 1.367 . S
C1003 C1011 1.433 . S
C1004 H1000 0.929 . S
C1004 C1006 1.378 . S
C1004 C1008 1.350 . S
C1005 C1008 1.463 . S
C1005 C1010 1.350 . S
C1005 N1013 1.427 . S
C1006 H997 0.930 . S
C1006 C1004 1.378 . S
C1006 C1007 1.367 . S
C1007 C1006 1.367 . S
C1007 C1009 1.433 . S
C1008 C1004 1.350 . S
C1008 C1005 1.463 . S
C1008 N1012 1.427 . S
C1009 H999 0.929 . S
C1009 C1007 1.433 . S
C1009 N1012 1.384 . S
C1010 H1001 0.929 . S
C1010 C1002 1.378 . S
C1010 C1005 1.350 . S
C1011 H998 0.929 . S
C1011 C1003 1.433 . S
C1011 N1013 1.384 . S
N1012 C1008 1.427 . S
N1012 C1009 1.384 . S
N1013 C1005 1.427 . S
N1013 C1011 1.384 . S
H1014 C1020 0.930 . S
H1015 C1024 0.930 . S
H1016 C1029 0.929 . S
H1017 C1027 0.929 . S
H1018 C1022 0.929 . S
H1019 C1028 0.929 . S
C1020 H1014 0.930 . S
C1020 C1021 1.367 . S
C1020 C1028 1.378 . S
C1021 C1020 1.367 . S
C1021 C1029 1.433 . S
C1022 H1018 0.929 . S
C1022 C1024 1.378 . S
C1022 C1026 1.350 . S
C1023 C1026 1.463 . S
C1023 C1028 1.350 . S
C1023 N1031 1.427 . S
C1024 H1015 0.930 . S
C1024 C1022 1.378 . S
C1024 C1025 1.367 . S
C1025 C1024 1.367 . S
C1025 C1027 1.433 . S
C1026 C1022 1.350 . S
C1026 C1023 1.463 . S
C1026 N1030 1.427 . S
C1027 H1017 0.929 . S
C1027 C1025 1.433 . S
C1027 N1030 1.384 . S
C1028 H1019 0.929 . S
C1028 C1020 1.378 . S
C1028 C1023 1.350 . S
C1029 H1016 0.929 . S
C1029 C1021 1.433 . S
C1029 N1031 1.384 . S
N1030 C1026 1.427 . S
N1030 C1027 1.384 . S
N1031 C1023 1.427 . S
N1031 C1029 1.384 . S
H1032 C1038 0.930 . S
H1033 C1042 0.930 . S
H1034 C1047 0.929 . S
H1035 C1045 0.929 . S
H1036 C1040 0.929 . S
H1037 C1046 0.929 . S
C1038 H1032 0.930 . S
C1038 C1039 1.367 . S
C1038 C1046 1.378 . S
C1039 C1038 1.367 . S
C1039 C1047 1.433 . S
C1040 H1036 0.929 . S
C1040 C1042 1.378 . S
C1040 C1044 1.350 . S
C1041 C1044 1.463 . S
C1041 C1046 1.350 . S
C1041 N1049 1.427 . S
C1042 H1033 0.930 . S
C1042 C1040 1.378 . S
C1042 C1043 1.367 . S
C1043 C1042 1.367 . S
C1043 C1045 1.433 . S
C1044 C1040 1.350 . S
C1044 C1041 1.463 . S
C1044 N1048 1.427 . S
C1045 H1035 0.929 . S
C1045 C1043 1.433 . S
C1045 N1048 1.384 . S
C1046 H1037 0.929 . S
C1046 C1038 1.378 . S
C1046 C1041 1.350 . S
C1047 H1034 0.929 . S
C1047 C1039 1.433 . S
C1047 N1049 1.384 . S
N1048 C1044 1.427 . S
N1048 C1045 1.384 . S
N1049 C1041 1.427 . S
N1049 C1047 1.384 . S
H1050 C1056 0.930 . S
H1051 C1060 0.930 . S
H1052 C1065 0.929 . S
H1053 C1063 0.929 . S
H1054 C1058 0.929 . S
H1055 C1064 0.929 . S
C1056 H1050 0.930 . S
C1056 C1057 1.367 . S
C1056 C1064 1.378 . S
C1057 C1056 1.367 . S
C1057 C1065 1.433 . S
C1058 H1054 0.929 . S
C1058 C1060 1.378 . S
C1058 C1062 1.350 . S
C1059 C1062 1.463 . S
C1059 C1064 1.350 . S
C1059 N1067 1.427 . S
C1060 H1051 0.930 . S
C1060 C1058 1.378 . S
C1060 C1061 1.367 . S
C1061 C1060 1.367 . S
C1061 C1063 1.433 . S
C1062 C1058 1.350 . S
C1062 C1059 1.463 . S
C1062 N1066 1.427 . S
C1063 H1053 0.929 . S
C1063 C1061 1.433 . S
C1063 N1066 1.384 . S
C1064 H1055 0.929 . S
C1064 C1056 1.378 . S
C1064 C1059 1.350 . S
C1065 H1052 0.929 . S
C1065 C1057 1.433 . S
C1065 N1067 1.384 . S
N1066 C1062 1.427 . S
N1066 C1063 1.384 . S
N1067 C1059 1.427 . S
N1067 C1065 1.384 . S
H1068 C1074 0.930 . S
H1069 C1078 0.930 . S
H1070 C1083 0.929 . S
H1071 C1081 0.929 . S
H1072 C1076 0.929 . S
H1073 C1082 0.929 . S
C1074 H1068 0.930 . S
C1074 C1075 1.367 . S
C1074 C1082 1.378 . S
C1075 C1074 1.367 . S
C1075 C1083 1.433 . S
C1076 H1072 0.929 . S
C1076 C1078 1.378 . S
C1076 C1080 1.350 . S
C1077 C1080 1.463 . S
C1077 C1082 1.350 . S
C1077 N1085 1.427 . S
C1078 H1069 0.930 . S
C1078 C1076 1.378 . S
C1078 C1079 1.367 . S
C1079 C1078 1.367 . S
C1079 C1081 1.433 . S
C1080 C1076 1.350 . S
C1080 C1077 1.463 . S
C1080 N1084 1.427 . S
C1081 H1071 0.929 . S
C1081 C1079 1.433 . S
C1081 N1084 1.384 . S
C1082 H1073 0.929 . S
C1082 C1074 1.378 . S
C1082 C1077 1.350 . S
C1083 H1070 0.929 . S
C1083 C1075 1.433 . S
C1083 N1085 1.384 . S
N1084 C1080 1.427 . S
N1084 C1081 1.384 . S
N1085 C1077 1.427 . S
N1085 C1083 1.384 . S
H1086 C1092 0.930 . S
H1087 C1096 0.930 . S
H1088 C1101 0.929 . S
H1089 C1099 0.929 . S
H1090 C1094 0.929 . S
H1091 C1100 0.929 . S
C1092 H1086 0.930 . S
C1092 C1093 1.367 . S
C1092 C1100 1.378 . S
C1093 C1092 1.367 . S
C1093 C1101 1.433 . S
C1094 H1090 0.929 . S
C1094 C1096 1.378 . S
C1094 C1098 1.350 . S
C1095 C1098 1.463 . S
C1095 C1100 1.350 . S
C1095 N1103 1.427 . S
C1096 H1087 0.930 . S
C1096 C1094 1.378 . S
C1096 C1097 1.367 . S
C1097 C1096 1.367 . S
C1097 C1099 1.433 . S
C1098 C1094 1.350 . S
C1098 C1095 1.463 . S
C1098 N1102 1.427 . S
C1099 H1089 0.929 . S
C1099 C1097 1.433 . S
C1099 N1102 1.384 . S
C1100 H1091 0.929 . S
C1100 C1092 1.378 . S
C1100 C1095 1.350 . S
C1101 H1088 0.929 . S
C1101 C1093 1.433 . S
C1101 N1103 1.384 . S
N1102 C1098 1.427 . S
N1102 C1099 1.384 . S
N1103 C1095 1.427 . S
N1103 C1101 1.384 . S
H1104 C1110 0.930 . S
H1105 C1114 0.930 . S
H1106 C1119 0.929 . S
H1107 C1117 0.929 . S
H1108 C1112 0.929 . S
H1109 C1118 0.929 . S
C1110 H1104 0.930 . S
C1110 C1111 1.367 . S
C1110 C1118 1.378 . S
C1111 C1110 1.367 . S
C1111 C1119 1.433 . S
C1112 H1108 0.929 . S
C1112 C1114 1.378 . S
C1112 C1116 1.350 . S
C1113 C1116 1.463 . S
C1113 C1118 1.350 . S
C1113 N1121 1.427 . S
C1114 H1105 0.930 . S
C1114 C1112 1.378 . S
C1114 C1115 1.367 . S
C1115 C1114 1.367 . S
C1115 C1117 1.433 . S
C1116 C1112 1.350 . S
C1116 C1113 1.463 . S
C1116 N1120 1.427 . S
C1117 H1107 0.929 . S
C1117 C1115 1.433 . S
C1117 N1120 1.384 . S
C1118 H1109 0.929 . S
C1118 C1110 1.378 . S
C1118 C1113 1.350 . S
C1119 H1106 0.929 . S
C1119 C1111 1.433 . S
C1119 N1121 1.384 . S
N1120 C1116 1.427 . S
N1120 C1117 1.384 . S
N1121 C1113 1.427 . S
N1121 C1119 1.384 . S
H1122 C1128 0.930 . S
H1123 C1132 0.930 . S
H1124 C1137 0.929 . S
H1125 C1135 0.929 . S
H1126 C1130 0.929 . S
H1127 C1136 0.929 . S
C1128 H1122 0.930 . S
C1128 C1129 1.367 . S
C1128 C1136 1.378 . S
C1129 C1128 1.367 . S
C1129 C1137 1.433 . S
C1130 H1126 0.929 . S
C1130 C1132 1.378 . S
C1130 C1134 1.350 . S
C1131 C1134 1.463 . S
C1131 C1136 1.350 . S
C1131 N1139 1.427 . S
C1132 H1123 0.930 . S
C1132 C1130 1.378 . S
C1132 C1133 1.367 . S
C1133 C1132 1.367 . S
C1133 C1135 1.433 . S
C1134 C1130 1.350 . S
C1134 C1131 1.463 . S
C1134 N1138 1.427 . S
C1135 H1125 0.929 . S
C1135 C1133 1.433 . S
C1135 N1138 1.384 . S
C1136 H1127 0.929 . S
C1136 C1128 1.378 . S
C1136 C1131 1.350 . S
C1137 H1124 0.929 . S
C1137 C1129 1.433 . S
C1137 N1139 1.384 . S
N1138 C1134 1.427 . S
N1138 C1135 1.384 . S
N1139 C1131 1.427 . S
N1139 C1137 1.384 . S
H1140 C1146 0.930 . S
H1141 C1150 0.930 . S
H1142 C1155 0.929 . S
H1143 C1153 0.929 . S
H1144 C1148 0.929 . S
H1145 C1154 0.929 . S
C1146 H1140 0.930 . S
C1146 C1147 1.367 . S
C1146 C1154 1.378 . S
C1147 C1146 1.367 . S
C1147 C1155 1.433 . S
C1148 H1144 0.929 . S
C1148 C1150 1.378 . S
C1148 C1152 1.350 . S
C1149 C1152 1.463 . S
C1149 C1154 1.350 . S
C1149 N1157 1.427 . S
C1150 H1141 0.930 . S
C1150 C1148 1.378 . S
C1150 C1151 1.367 . S
C1151 C1150 1.367 . S
C1151 C1153 1.433 . S
C1152 C1148 1.350 . S
C1152 C1149 1.463 . S
C1152 N1156 1.427 . S
C1153 H1143 0.929 . S
C1153 C1151 1.433 . S
C1153 N1156 1.384 . S
C1154 H1145 0.929 . S
C1154 C1146 1.378 . S
C1154 C1149 1.350 . S
C1155 H1142 0.929 . S
C1155 C1147 1.433 . S
C1155 N1157 1.384 . S
N1156 C1152 1.427 . S
N1156 C1153 1.384 . S
N1157 C1149 1.427 . S
N1157 C1155 1.384 . S
H1158 C1164 0.930 . S
H1159 C1168 0.930 . S
H1160 C1173 0.929 . S
H1161 C1171 0.929 . S
H1162 C1166 0.929 . S
H1163 C1172 0.929 . S
C1164 H1158 0.930 . S
C1164 C1165 1.367 . S
C1164 C1172 1.378 . S
C1165 C1164 1.367 . S
C1165 C1173 1.433 . S
C1166 H1162 0.929 . S
C1166 C1168 1.378 . S
C1166 C1170 1.350 . S
C1167 C1170 1.463 . S
C1167 C1172 1.350 . S
C1167 N1175 1.427 . S
C1168 H1159 0.930 . S
C1168 C1166 1.378 . S
C1168 C1169 1.367 . S
C1169 C1168 1.367 . S
C1169 C1171 1.433 . S
C1170 C1166 1.350 . S
C1170 C1167 1.463 . S
C1170 N1174 1.427 . S
C1171 H1161 0.929 . S
C1171 C1169 1.433 . S
C1171 N1174 1.384 . S
C1172 H1163 0.929 . S
C1172 C1164 1.378 . S
C1172 C1167 1.350 . S
C1173 H1160 0.929 . S
C1173 C1165 1.433 . S
C1173 N1175 1.384 . S
N1174 C1170 1.427 . S
N1174 C1171 1.384 . S
N1175 C1167 1.427 . S
N1175 C1173 1.384 . S
C319 C5 1.237 . S
C323 C96 1.252 . S
C337 C109 1.239 . S
C341 C18 1.253 . S
C355 C31 1.245 . S
C359 C122 1.243 . S
C373 C44 1.242 . S
C377 C135 1.246 . S
C391 C148 1.241 . S
C395 C57 1.247 . S
C409 C70 1.236 . S
C413 C83 1.254 . S
C427 C161 1.236 . S
C431 C252 1.255 . S
C445 C174 1.251 . S
C449 C265 1.238 . S
C463 C278 1.239 . S
C467 C187 1.253 . S
C481 C200 1.245 . S
C485 C291 1.248 . S
C499 C213 1.246 . S
C503 C304 1.242 . S
C517 C239 1.253 . S
C521 C226 1.239 . S
C535 C0 1.241 . S
C539 C104 1.236 . S
C553 C117 1.228 . S
C557 C13 1.243 . S
C571 C130 1.244 . S
C575 C26 1.231 . S
C589 C39 1.240 . S
C593 C143 1.237 . S
C607 C52 1.238 . S
C611 C78 1.239 . S
C625 C65 1.244 . S
C629 C91 1.229 . S
C643 C260 1.237 . S
C647 C156 1.240 . S
C661 C169 1.230 . S
C665 C273 1.244 . S
C679 C286 1.236 . S
C683 C182 1.231 . S
C697 C299 1.236 . S
C701 C195 1.241 . S
C715 C234 1.239 . S
C719 C208 1.230 . S
C733 C221 1.233 . S
C737 C247 1.243 . S
C751 C8 1.492 . S
C755 C203 1.484 . S
C769 C216 1.491 . S
C773 C21 1.485 . S
C787 C229 1.489 . S
C791 C34 1.488 . S
C805 C47 1.483 . S
C809 C164 1.493 . S
C823 C60 1.484 . S
C827 C177 1.492 . S
C841 C190 1.490 . S
C845 C73 1.486 . S
C859 C281 1.483 . S
C863 C86 1.493 . S
C877 C294 1.493 . S
C881 C99 1.483 . S
C895 C307 1.489 . S
C899 C112 1.488 . S
C913 C242 1.494 . S
C917 C125 1.483 . S
C931 C138 1.484 . S
C935 C255 1.492 . S
C949 C151 1.494 . S
C953 C268 1.483 . S
C967 C10 1.524 . S
C971 C140 1.523 . S
C985 C153 1.522 . S
C989 C23 1.519 . S
C1003 C88 1.524 . S
C1007 C36 1.524 . S
C1021 C49 1.517 . S
C1025 C101 1.519 . S
C1039 C62 1.522 . S
C1043 C114 1.519 . S
C1057 C75 1.524 . S
C1061 C127 1.524 . S
C1075 C166 1.518 . S
C1079 C296 1.521 . S
C1093 C179 1.521 . S
C1097 C309 1.524 . S
C1111 C192 1.517 . S
C1115 C244 1.519 . S
C1129 C257 1.517 . S
C1133 C205 1.518 . S
C1147 C218 1.517 . S
C1151 C270 1.519 . S
C1165 C231 1.522 . S
C1169 C283 1.519 . S
