# Generated by pormake.
# Topology umo, (4)-cn, num edge types: 1
# Building blocks:
#     Node 0, Type 0, BuildingBlock: QUQFOY_clean_sbu_3, # of connection points: 4
#     Node 1, Type 0, BuildingBlock: QUQFOY_clean_sbu_3, # of connection points: 4
#     Node 2, Type 0, BuildingBlock: QUQFOY_clean_sbu_3, # of connection points: 4
#     Node 3, Type 0, BuildingBlock: QUQFOY_clean_sbu_3, # of connection points: 4
#     Node 4, Type 0, BuildingBlock: QUQFOY_clean_sbu_3, # of connection points: 4
#     Node 5, Type 0, BuildingBlock: QUQFOY_clean_sbu_3, # of connection points: 4
#     Node 6, Type 0, BuildingBlock: QUQFOY_clean_sbu_3, # of connection points: 4
#     Node 7, Type 0, BuildingBlock: QUQFOY_clean_sbu_3, # of connection points: 4
#     Node 8, Type 0, BuildingBlock: QUQFOY_clean_sbu_3, # of connection points: 4
#     Node 9, Type 0, BuildingBlock: QUQFOY_clean_sbu_3, # of connection points: 4
#     Node 10, Type 0, BuildingBlock: QUQFOY_clean_sbu_3, # of connection points: 4
#     Node 11, Type 0, BuildingBlock: QUQFOY_clean_sbu_3, # of connection points: 4
#     Edge 12, Type (0, 0), BuildingBlock: XUDNAN_clean_linker_2, # of connection points: 2
#     Edge 13, Type (0, 0), BuildingBlock: XUDNAN_clean_linker_2, # of connection points: 2
#     Edge 14, Type (0, 0), BuildingBlock: XUDNAN_clean_linker_2, # of connection points: 2
#     Edge 15, Type (0, 0), BuildingBlock: XUDNAN_clean_linker_2, # of connection points: 2
#     Edge 16, Type (0, 0), BuildingBlock: XUDNAN_clean_linker_2, # of connection points: 2
#     Edge 17, Type (0, 0), BuildingBlock: XUDNAN_clean_linker_2, # of connection points: 2
#     Edge 18, Type (0, 0), BuildingBlock: XUDNAN_clean_linker_2, # of connection points: 2
#     Edge 19, Type (0, 0), BuildingBlock: XUDNAN_clean_linker_2, # of connection points: 2
#     Edge 20, Type (0, 0), BuildingBlock: XUDNAN_clean_linker_2, # of connection points: 2
#     Edge 21, Type (0, 0), BuildingBlock: XUDNAN_clean_linker_2, # of connection points: 2
#     Edge 22, Type (0, 0), BuildingBlock: XUDNAN_clean_linker_2, # of connection points: 2
#     Edge 23, Type (0, 0), BuildingBlock: XUDNAN_clean_linker_2, # of connection points: 2
#     Edge 24, Type (0, 0), BuildingBlock: XUDNAN_clean_linker_2, # of connection points: 2
#     Edge 25, Type (0, 0), BuildingBlock: XUDNAN_clean_linker_2, # of connection points: 2
#     Edge 26, Type (0, 0), BuildingBlock: XUDNAN_clean_linker_2, # of connection points: 2
#     Edge 27, Type (0, 0), BuildingBlock: XUDNAN_clean_linker_2, # of connection points: 2
#     Edge 28, Type (0, 0), BuildingBlock: XUDNAN_clean_linker_2, # of connection points: 2
#     Edge 29, Type (0, 0), BuildingBlock: XUDNAN_clean_linker_2, # of connection points: 2
#     Edge 30, Type (0, 0), BuildingBlock: XUDNAN_clean_linker_2, # of connection points: 2
#     Edge 31, Type (0, 0), BuildingBlock: XUDNAN_clean_linker_2, # of connection points: 2
#     Edge 32, Type (0, 0), BuildingBlock: XUDNAN_clean_linker_2, # of connection points: 2
#     Edge 33, Type (0, 0), BuildingBlock: XUDNAN_clean_linker_2, # of connection points: 2
#     Edge 34, Type (0, 0), BuildingBlock: XUDNAN_clean_linker_2, # of connection points: 2
#     Edge 35, Type (0, 0), BuildingBlock: XUDNAN_clean_linker_2, # of connection points: 2
# Relax obj value: 0.165
# Max RMSD: 0.247
# Mean RMSD: 0.247
data_MOF--net-umo--node1-QUQFOY_clean_sbu_3--edge1-XUDNAN_clean_linker_2
_symmetry_space_group_name_H-M    P1
_symmetry_Int_Tables_number       1
_symmetry_cell_setting            triclinic
loop_
_symmetry_equiv_pos_as_xyz
'x, y, z'
_cell_length_a     50.551599
_cell_length_b     50.101428
_cell_length_c     37.936485
_cell_angle_alpha  90.068567
_cell_angle_beta   90.057113
_cell_angle_gamma 119.91608
loop_
_atom_site_label
_atom_site_type_symbol
_atom_site_fract_x
_atom_site_fract_y
_atom_site_fract_z
_atom_type_partial_charge
C0 C 0.18752 0.49195 0.36442 0.0
O1 O 0.20355 0.50297 0.3921 0.0
Cd2 Cd 0.1908 0.51947 0.44668 0.0
O3 O 0.16093 0.48851 0.3624 0.0
Cd4 Cd 0.13127 0.50411 0.39861 0.0
C5 C 0.18935 0.57728 0.40166 0.0
O6 O 0.13842 0.49598 0.4602 0.0
O7 O 0.12218 0.52754 0.44738 0.0
O8 O 0.08097 0.46091 0.39228 0.0
C9 C 0.1298 0.51462 0.47076 0.0
O10 O 0.19994 0.56934 0.42758 0.0
C11 C 0.07071 0.47566 0.37526 0.0
O12 O 0.16689 0.55762 0.38326 0.0
O13 O 0.08956 0.50313 0.36612 0.0
C14 C 0.67932 0.20451 0.53182 0.0
O15 O 0.68772 0.22332 0.55761 0.0
Cd16 Cd 0.65805 0.2135 0.61287 0.0
O17 O 0.65399 0.17958 0.53254 0.0
Cd18 Cd 0.6085 0.14885 0.56591 0.0
C19 C 0.59177 0.2062 0.57768 0.0
O20 O 0.63053 0.1598 0.62316 0.0
O21 O 0.58569 0.12047 0.61937 0.0
O22 O 0.6127 0.10922 0.53743 0.0
C23 C 0.60541 0.14198 0.6384 0.0
O24 O 0.61527 0.21981 0.59739 0.0
C25 C 0.58511 0.0947 0.52707 0.0
O26 O 0.58537 0.18165 0.56077 0.0
O27 O 0.56826 0.10624 0.53402 0.0
C28 C 0.46741 0.69243 0.69185 0.0
O29 O 0.46572 0.7022 0.72214 0.0
Cd30 Cd 0.43874 0.66301 0.76711 0.0
O31 O 0.46044 0.66459 0.6878 0.0
Cd32 Cd 0.44556 0.619 0.72224 0.0
C33 C 0.37767 0.6102 0.71852 0.0
O34 O 0.45668 0.62909 0.78601 0.0
O35 O 0.41956 0.58466 0.76789 0.0
O36 O 0.49156 0.61822 0.71351 0.0
C37 C 0.43709 0.60102 0.79256 0.0
O38 O 0.38812 0.63005 0.74324 0.0
C39 C 0.47904 0.59246 0.69766 0.0
O40 O 0.3946 0.6025 0.70183 0.0
O41 O 0.45083 0.58017 0.6901 0.0
C42 C 0.76088 0.47609 0.85613 0.0
O43 O 0.76065 0.48758 0.88581 0.0
Cd44 Cd 0.77156 0.46194 0.93422 0.0
O45 O 0.77335 0.45968 0.85345 0.0
Cd46 Cd 0.80896 0.45437 0.89212 0.0
C47 C 0.75215 0.38928 0.90876 0.0
O48 O 0.82162 0.47508 0.95432 0.0
O49 O 0.8213 0.43286 0.93878 0.0
O50 O 0.85073 0.4961 0.86238 0.0
C51 C 0.82752 0.4536 0.96162 0.0
O52 O 0.74734 0.40628 0.92967 0.0
C53 C 0.86234 0.48001 0.85231 0.0
O54 O 0.77302 0.40089 0.88569 0.0
O55 O 0.84856 0.45158 0.86002 0.0
C56 C 0.26845 0.77057 0.03154 0.0
O57 O 0.26321 0.75199 0.05692 0.0
Cd58 Cd 0.29169 0.76301 0.11279 0.0
O59 O 0.2921 0.79707 0.0312 0.0
Cd60 Cd 0.33816 0.82436 0.06599 0.0
C61 C 0.35612 0.76845 0.079 0.0
O62 O 0.31692 0.81657 0.12525 0.0
O63 O 0.36498 0.84855 0.11888 0.0
O64 O 0.34757 0.87236 0.04122 0.0
C65 C 0.34299 0.83283 0.1395 0.0
O66 O 0.33444 0.75595 0.10113 0.0
C67 C 0.37338 0.87866 0.02863 0.0
O68 O 0.35995 0.79079 0.05964 0.0
O69 O 0.3819 0.85892 0.03257 0.0
C70 C 0.48596 0.28768 0.1968 0.0
O71 O 0.4923 0.27578 0.2227 0.0
Cd72 Cd 0.5165 0.30897 0.27505 0.0
O73 O 0.49038 0.31476 0.19932 0.0
Cd74 Cd 0.50613 0.36008 0.23324 0.0
C75 C 0.57531 0.36873 0.22947 0.0
O76 O 0.4954 0.34047 0.29337 0.0
O77 O 0.52156 0.38982 0.28433 0.0
O78 O 0.46056 0.35586 0.21134 0.0
C79 C 0.51183 0.36757 0.30583 0.0
O80 O 0.56584 0.34699 0.25192 0.0
C81 C 0.47346 0.38266 0.19799 0.0
O82 O 0.55752 0.37659 0.21509 0.0
O83 O 0.50207 0.3998 0.20236 0.0
C84 C 0.46392 0.77558 0.46123 0.0
O85 O 0.46391 0.76129 0.43351 0.0
Cd86 Cd 0.44569 0.76927 0.37695 0.0
O87 O 0.45506 0.7952 0.46039 0.0
Cd88 Cd 0.43709 0.82331 0.42579 0.0
C89 C 0.3742 0.7581 0.40383 0.0
O90 O 0.45851 0.82126 0.37057 0.0
O91 O 0.43481 0.84703 0.37158 0.0
O92 O 0.48105 0.86168 0.45285 0.0
C93 C 0.44643 0.83427 0.35336 0.0
O94 O 0.39302 0.75243 0.3879 0.0
C95 C 0.46983 0.87771 0.46419 0.0
O96 O 0.38311 0.78175 0.42366 0.0
O97 O 0.44138 0.86744 0.45909 0.0
C98 C 0.68033 0.47826 0.62258 0.0
O99 O 0.68874 0.46915 0.59568 0.0
Cd100 Cd 0.66259 0.45474 0.53785 0.0
O101 O 0.65497 0.4777 0.6231 0.0
Cd102 Cd 0.60949 0.46071 0.58784 0.0
C103 C 0.59749 0.38969 0.56224 0.0
O104 O 0.63489 0.4811 0.53382 0.0
O105 O 0.5912 0.47747 0.53738 0.0
O106 O 0.6046 0.49169 0.63175 0.0
C107 C 0.61069 0.47589 0.51796 0.0
O108 O 0.62119 0.40252 0.54292 0.0
C109 C 0.57567 0.47574 0.63318 0.0
O110 O 0.59018 0.40505 0.58289 0.0
O111 O 0.56223 0.45206 0.61355 0.0
C112 C 0.18473 0.6895 0.79895 0.0
O113 O 0.19087 0.70279 0.76908 0.0
Cd114 Cd 0.1854 0.67392 0.71534 0.0
O115 O 0.16916 0.66032 0.8016 0.0
Cd116 Cd 0.13791 0.61152 0.77069 0.0
C117 C 0.19869 0.61666 0.75727 0.0
O118 O 0.13779 0.62818 0.70958 0.0
O119 O 0.12869 0.58168 0.71937 0.0
O120 O 0.0933 0.61331 0.78203 0.0
C121 C 0.13428 0.60285 0.69734 0.0
O122 O 0.19402 0.63658 0.74271 0.0
C123 C 0.07843 0.5868 0.79579 0.0
O124 O 0.17908 0.59844 0.77945 0.0
O125 O 0.09255 0.57206 0.80153 0.0
C126 C 0.4844 0.20313 0.96515 0.0
O127 O 0.48885 0.21708 0.93592 0.0
Cd128 Cd 0.51019 0.20708 0.88322 0.0
O129 O 0.48878 0.1804 0.96789 0.0
Cd130 Cd 0.5043 0.15206 0.9291 0.0
C131 C 0.57347 0.21026 0.92085 0.0
O132 O 0.49113 0.15494 0.86675 0.0
O133 O 0.52732 0.14521 0.8793 0.0
O134 O 0.46443 0.10154 0.94541 0.0
C135 C 0.51189 0.14944 0.856 0.0
O136 O 0.5618 0.21976 0.89772 0.0
C137 C 0.48289 0.09358 0.95765 0.0
O138 O 0.55697 0.18801 0.94129 0.0
O139 O 0.51109 0.1135 0.95791 0.0
C140 C 0.26677 0.49727 0.12892 0.0
O141 O 0.25497 0.49361 0.09859 0.0
Cd142 Cd 0.29113 0.51585 0.05029 0.0
O143 O 0.29509 0.50729 0.13202 0.0
Cd144 Cd 0.3366 0.51614 0.09327 0.0
C145 C 0.34848 0.58431 0.08454 0.0
O146 O 0.32566 0.49926 0.03076 0.0
O147 O 0.36729 0.54165 0.04485 0.0
O148 O 0.33405 0.46943 0.10806 0.0
C149 C 0.35176 0.52155 0.02182 0.0
O150 O 0.32619 0.56965 0.06338 0.0
C151 C 0.36064 0.48158 0.12123 0.0
O152 O 0.35722 0.57004 0.10489 0.0
O153 O 0.37595 0.51082 0.1234 0.0
C154 C 0.77244 0.28491 0.30207 0.0
O155 O 0.77215 0.27209 0.27313 0.0
Cd156 Cd 0.78192 0.30287 0.21978 0.0
O157 O 0.78334 0.31379 0.30315 0.0
Cd158 Cd 0.8113 0.35782 0.26506 0.0
C159 C 0.74429 0.34248 0.2383 0.0
O160 O 0.82816 0.35011 0.2062 0.0
O161 O 0.81574 0.3856 0.21475 0.0
O162 O 0.85816 0.37077 0.29273 0.0
C163 C 0.82548 0.37254 0.1941 0.0
O164 O 0.74674 0.32205 0.22092 0.0
C165 C 0.8624 0.39576 0.30629 0.0
O166 O 0.76413 0.35894 0.2614 0.0
O167 O 0.84244 0.40374 0.30094 0.0
H168 H 0.20957 0.62801 0.44262 0.0
H169 H 0.21023 0.5974 0.33609 0.0
H170 H 0.25264 0.64888 0.32122 0.0
H171 H 0.23976 0.71582 0.41356 0.0
H172 H 0.26027 0.72857 0.45463 0.0
H173 H 0.22347 0.69389 0.45315 0.0
H174 H 0.24751 0.66399 0.48141 0.0
H175 H 0.2843 0.69804 0.48212 0.0
H176 H 0.27937 0.66395 0.46001 0.0
H177 H 0.30193 0.69447 0.32325 0.0
H178 H 0.35361 0.73363 0.33992 0.0
H179 H 0.32273 0.73789 0.44533 0.0
C180 C 0.2176 0.633 0.41568 0.0
C181 C 0.20666 0.60931 0.39024 0.0
C182 C 0.21792 0.6157 0.35548 0.0
C183 C 0.24198 0.64487 0.34687 0.0
C184 C 0.25364 0.66746 0.37309 0.0
C185 C 0.2412 0.6623 0.40655 0.0
C186 C 0.26079 0.68892 0.43111 0.0
C187 C 0.24515 0.70793 0.43856 0.0
C188 C 0.26846 0.67803 0.46564 0.0
C189 C 0.28859 0.70694 0.4081 0.0
C190 C 0.28312 0.69499 0.37418 0.0
C191 C 0.30613 0.70478 0.34921 0.0
C192 C 0.33555 0.72681 0.35916 0.0
C193 C 0.34199 0.73869 0.39396 0.0
C194 C 0.3181 0.72951 0.41844 0.0
H195 H 0.5805 0.23844 0.62639 0.0
H196 H 0.56394 0.20912 0.51733 0.0
H197 H 0.54802 0.24739 0.5051 0.0
H198 H 0.51935 0.26534 0.63139 0.0
H199 H 0.54487 0.2969 0.65936 0.0
H200 H 0.5434 0.26026 0.66258 0.0
H201 H 0.60173 0.28755 0.65242 0.0
H202 H 0.60341 0.32393 0.64865 0.0
H203 H 0.61764 0.3105 0.6133 0.0
H204 H 0.55326 0.29826 0.50006 0.0
H205 H 0.57353 0.35426 0.50416 0.0
H206 H 0.58322 0.35071 0.61701 0.0
C207 C 0.57196 0.23914 0.60041 0.0
C208 C 0.57345 0.22117 0.57271 0.0
C209 C 0.56259 0.22258 0.5389 0.0
C210 C 0.55348 0.24424 0.5318 0.0
C211 C 0.55465 0.26356 0.55907 0.0
C212 C 0.56271 0.26053 0.59311 0.0
C213 C 0.56757 0.2873 0.61618 0.0
C214 C 0.54228 0.27681 0.64402 0.0
C215 C 0.59947 0.30324 0.63358 0.0
C216 C 0.5646 0.30761 0.58889 0.0
C217 C 0.55625 0.29312 0.5563 0.0
C218 C 0.55825 0.30933 0.52562 0.0
C219 C 0.56992 0.34112 0.52811 0.0
C220 C 0.57897 0.35616 0.56106 0.0
C221 C 0.57508 0.33913 0.5919 0.0
H222 H 0.21852 0.57621 0.77814 0.0
H223 H 0.23456 0.64774 0.70226 0.0
H224 H 0.27315 0.64034 0.67324 0.0
H225 H 0.29269 0.5993 0.79318 0.0
H226 H 0.28923 0.56176 0.79632 0.0
H227 H 0.25693 0.56627 0.80577 0.0
H228 H 0.22551 0.52449 0.75895 0.0
H229 H 0.25828 0.52057 0.74874 0.0
H230 H 0.23926 0.52935 0.71429 0.0
H231 H 0.31392 0.63205 0.65654 0.0
H232 H 0.36232 0.63197 0.66265 0.0
H233 H 0.32527 0.56927 0.75075 0.0
C234 C 0.22991 0.58986 0.75512 0.0
C235 C 0.22314 0.61223 0.74242 0.0
C236 C 0.23901 0.63022 0.71262 0.0
C237 C 0.26073 0.62585 0.69532 0.0
C238 C 0.26684 0.60361 0.70811 0.0
C239 C 0.25246 0.58627 0.73772 0.0
C240 C 0.26754 0.56814 0.74944 0.0
C241 C 0.2772 0.57429 0.78846 0.0
C242 C 0.24638 0.53359 0.74245 0.0
C243 C 0.29467 0.58119 0.7246 0.0
C244 C 0.29237 0.59977 0.69931 0.0
C245 C 0.31575 0.61692 0.67549 0.0
C246 C 0.34308 0.61666 0.67896 0.0
C247 C 0.3468 0.60005 0.70657 0.0
C248 C 0.32212 0.58114 0.72872 0.0
H249 H 0.72307 0.34484 0.85942 0.0
H250 H 0.7433 0.36022 0.97082 0.0
H251 H 0.70858 0.3053 0.98262 0.0
H252 H 0.65127 0.30719 0.86628 0.0
H253 H 0.64141 0.27871 0.83204 0.0
H254 H 0.67673 0.31417 0.82972 0.0
H255 H 0.70607 0.28413 0.82607 0.0
H256 H 0.67039 0.24833 0.82842 0.0
H257 H 0.70043 0.25623 0.85948 0.0
H258 H 0.66284 0.25622 0.98557 0.0
H259 H 0.60766 0.21992 0.9801 0.0
H260 H 0.61337 0.23516 0.86737 0.0
C261 C 0.72105 0.33598 0.8859 0.0
C262 C 0.73551 0.35612 0.91424 0.0
C263 C 0.73209 0.34471 0.94889 0.0
C264 C 0.71284 0.31351 0.95571 0.0
C265 C 0.69706 0.29415 0.92757 0.0
C266 C 0.70109 0.30489 0.89314 0.0
C267 C 0.67627 0.28177 0.8692 0.0
C268 C 0.66049 0.29635 0.84818 0.0
C269 C 0.68906 0.26672 0.84434 0.0
C270 C 0.65541 0.25897 0.89643 0.0
C271 C 0.66883 0.26525 0.92949 0.0
C272 C 0.65235 0.25041 0.95974 0.0
C273 C 0.62101 0.23003 0.95651 0.0
C274 C 0.60667 0.22551 0.92343 0.0
C275 C 0.62422 0.23867 0.89292 0.0
H276 H 0.35553 0.73388 0.02498 0.0
H277 H 0.39687 0.77037 0.12626 0.0
H278 H 0.41395 0.73221 0.13001 0.0
H279 H 0.31954 0.66523 0.04872 0.0
H280 H 0.32197 0.64555 0.01012 0.0
H281 H 0.32608 0.68294 0.00582 0.0
H282 H 0.37883 0.70366 0.97628 0.0
H283 H 0.37465 0.66583 0.97958 0.0
H284 H 0.40796 0.69871 -0.00232 0.0
H285 H 0.40989 0.68174 0.13333 0.0
H286 H 0.3875 0.62519 0.1341 0.0
H287 H 0.34667 0.61937 0.03176 0.0
C288 C 0.37014 0.735 0.04651 0.0
C289 C 0.37569 0.75507 0.0749 0.0
C290 C 0.39322 0.75537 0.10396 0.0
C291 C 0.403 0.73379 0.10621 0.0
C292 C 0.39472 0.71208 0.07928 0.0
C293 C 0.37918 0.71291 0.04943 0.0
C294 C 0.36623 0.68315 0.02879 0.0
C295 C 0.33143 0.66838 0.02312 0.0
C296 C 0.38294 0.68815 -0.0065 0.0
C297 C 0.37384 0.66445 0.05366 0.0
C298 C 0.39137 0.68176 0.08184 0.0
C299 C 0.39709 0.66816 0.1108 0.0
C300 C 0.38405 0.63604 0.11125 0.0
C301 C 0.36509 0.61809 0.08321 0.0
C302 C 0.36098 0.63263 0.05365 0.0
H303 H 0.73117 0.38514 0.267 0.0
H304 H 0.7033 0.31537 0.18519 0.0
H305 H 0.66595 0.32884 0.16348 0.0
H306 H 0.66131 0.37 0.29137 0.0
H307 H 0.66992 0.4092 0.29813 0.0
H308 H 0.6997 0.39982 0.30166 0.0
H309 H 0.73075 0.44146 0.2548 0.0
H310 H 0.70032 0.4502 0.25054 0.0
H311 H 0.7141 0.43964 0.21223 0.0
H312 H 0.62887 0.34464 0.15359 0.0
H313 H 0.58425 0.34984 0.16758 0.0
H314 H 0.6311 0.40536 0.25882 0.0
C315 C 0.71748 0.37308 0.24422 0.0
C316 C 0.72046 0.3495 0.22757 0.0
C317 C 0.70174 0.33377 0.19824 0.0
C318 C 0.68079 0.34164 0.18521 0.0
C319 C 0.67876 0.36534 0.20164 0.0
C320 C 0.69604 0.38042 0.23102 0.0
C321 C 0.68542 0.40107 0.24731 0.0
C322 C 0.67863 0.39456 0.28693 0.0
C323 C 0.70905 0.43511 0.24084 0.0
C324 C 0.65691 0.39165 0.22555 0.0
C325 C 0.65523 0.37322 0.19742 0.0
C326 C 0.63011 0.35954 0.17496 0.0
C327 C 0.60495 0.36275 0.18294 0.0
C328 C 0.60487 0.37836 0.21382 0.0
C329 C 0.63144 0.39422 0.23448 0.0
H330 H 0.11333 0.60644 0.63181 0.0
H331 H 0.17871 0.58959 0.68661 0.0
H332 H 0.1883 0.56899 0.6325 0.0
H333 H 0.07847 0.54006 0.58782 0.0
H334 H 0.07255 0.5537 0.54625 0.0
H335 H 0.07618 0.57483 0.58599 0.0
H336 H 0.12115 0.62427 0.55943 0.0
H337 H 0.117 0.60359 0.51898 0.0
H338 H 0.15338 0.62291 0.54119 0.0
H339 H 0.18234 0.53986 0.57772 0.0
H340 H 0.16773 0.51201 0.52073 0.0
H341 H 0.10606 0.54713 0.50092 0.0
C342 C 0.13086 0.60002 0.63163 0.0
C343 C 0.14592 0.60028 0.66293 0.0
C344 C 0.16772 0.5904 0.6625 0.0
C345 C 0.1731 0.57837 0.63196 0.0
C346 C 0.15651 0.57648 0.60197 0.0
C347 C 0.13644 0.58778 0.60112 0.0
C348 C 0.11935 0.58002 0.56644 0.0
C349 C 0.08459 0.56102 0.572 0.0
C350 C 0.12826 0.60945 0.54526 0.0
C351 C 0.13147 0.56099 0.54927 0.0
C352 C 0.15311 0.55949 0.56999 0.0
C353 C 0.16597 0.54145 0.56073 0.0
C354 C 0.15723 0.52535 0.52868 0.0
C355 C 0.13587 0.52752 0.50656 0.0
C356 C 0.12265 0.54527 0.51728 0.0
H357 H 0.62462 0.1573 0.70708 0.0
H358 H 0.55753 0.15091 0.63122 0.0
H359 H 0.52888 0.15895 0.67835 0.0
H360 H 0.57601 0.11551 0.7711 0.0
H361 H 0.59776 0.13803 0.80849 0.0
H362 H 0.61698 0.13887 0.76839 0.0
H363 H 0.64187 0.19827 0.7658 0.0
H364 H 0.62284 0.19766 0.80624 0.0
H365 H 0.61808 0.21562 0.76751 0.0
H366 H 0.50247 0.15781 0.73422 0.0
H367 H 0.48261 0.15136 0.79532 0.0
H368 H 0.56696 0.15913 0.83432 0.0
C369 C 0.60463 0.15892 0.70044 0.0
C370 C 0.5932 0.15353 0.66581 0.0
C371 C 0.56655 0.155 0.65783 0.0
C372 C 0.55017 0.15967 0.68434 0.0
C373 C 0.56099 0.16333 0.71867 0.0
C374 C 0.58797 0.16372 0.72678 0.0
C375 C 0.59284 0.16508 0.7662 0.0
C376 C 0.59606 0.13773 0.77928 0.0
C377 C 0.62056 0.196 0.77706 0.0
C378 C 0.5634 0.1629 0.77869 0.0
C379 C 0.54562 0.16269 0.75102 0.0
C380 C 0.51647 0.15867 0.75626 0.0
C381 C 0.50527 0.15484 0.79089 0.0
C382 C 0.52309 0.15453 0.81942 0.0
C383 C 0.55262 0.15906 0.81305 0.0
H384 H 0.37602 0.5753 0.98719 0.0
H385 H 0.35403 0.48028 0.9762 0.0
H386 H 0.38077 0.49287 0.91846 0.0
H387 H 0.36348 0.5857 0.8966 0.0
H388 H 0.39353 0.62538 0.89581 0.0
H389 H 0.37384 0.60852 0.93633 0.0
H390 H 0.42571 0.62446 0.96633 0.0
H391 H 0.44552 0.64065 0.92558 0.0
H392 H 0.45036 0.61163 0.94792 0.0
H393 H 0.40879 0.51576 0.86233 0.0
H394 H 0.42927 0.54499 0.80718 0.0
H395 H 0.433 0.62527 0.8553 0.0
C396 C 0.37673 0.55713 0.97243 0.0
C397 C 0.36309 0.52685 0.98565 0.0
C398 C 0.36411 0.50349 0.96593 0.0
C399 C 0.37957 0.51057 0.93356 0.0
C400 C 0.39349 0.54096 0.92163 0.0
C401 C 0.39166 0.56371 0.94015 0.0
C402 C 0.40651 0.594 0.92055 0.0
C403 C 0.38293 0.60396 0.91179 0.0
C404 C 0.43364 0.61916 0.94135 0.0
C405 C 0.41701 0.5848 0.8878 0.0
C406 C 0.40961 0.55421 0.88921 0.0
C407 C 0.41493 0.53975 0.86103 0.0
C408 C 0.42665 0.55651 0.82997 0.0
C409 C 0.43296 0.58732 0.82753 0.0
C410 C 0.42917 0.60203 0.8571 0.0
H411 H 0.79837 0.39923 0.15916 0.0
H412 H 0.86399 0.36821 0.14556 0.0
H413 H 0.87539 0.39081 0.08534 0.0
H414 H 0.76962 0.38386 0.06997 0.0
H415 H 0.76401 0.41667 0.06922 0.0
H416 H 0.7614 0.39747 0.11021 0.0
H417 H 0.80235 0.44951 0.13692 0.0
H418 H 0.8058 0.46872 0.09565 0.0
H419 H 0.83908 0.47082 0.11589 0.0
H420 H 0.87984 0.41779 0.02756 0.0
H421 H 0.87226 0.44042 0.97336 0.0
H422 H 0.80407 0.4542 0.02619 0.0
C423 C 0.81523 0.39717 0.14359 0.0
C424 C 0.83076 0.38245 0.15703 0.0
C425 C 0.85201 0.37953 0.13562 0.0
C426 C 0.85873 0.39248 0.10164 0.0
C427 C 0.84374 0.4079 0.08979 0.0
C428 C 0.82199 0.40971 0.10992 0.0
C429 C 0.80817 0.42641 0.09095 0.0
C430 C 0.77378 0.40482 0.0847 0.0
C431 C 0.81423 0.4556 0.11106 0.0
C432 C 0.82588 0.4343 0.05686 0.0
C433 C 0.84635 0.4235 0.05679 0.0
C434 C 0.86415 0.42657 0.02749 0.0
C435 C 0.85993 0.43974 -0.00299 0.0
C436 C 0.83824 0.44977 -0.00386 0.0
C437 C 0.82166 0.44786 0.02673 0.0
H438 H 0.38909 0.87382 0.18022 0.0
H439 H 0.31558 0.77896 0.17757 0.0
H440 H 0.33824 0.76737 0.2293 0.0
H441 H 0.44779 0.85805 0.20114 0.0
H442 H 0.46824 0.89106 0.22947 0.0
H443 H 0.44534 0.8923 0.19378 0.0
H444 H 0.4142 0.90598 0.23717 0.0
H445 H 0.43784 0.90606 0.27268 0.0
H446 H 0.39694 0.88206 0.27528 0.0
H447 H 0.37259 0.76577 0.27789 0.0
H448 H 0.40799 0.77692 0.32801 0.0
H449 H 0.45679 0.87323 0.2994 0.0
C450 C 0.37727 0.85079 0.19115 0.0
C451 C 0.35053 0.82732 0.17521 0.0
C452 C 0.33584 0.79737 0.18986 0.0
C453 C 0.34884 0.7905 0.21879 0.0
C454 C 0.37632 0.81393 0.23259 0.0
C455 C 0.38982 0.84366 0.2198 0.0
C456 C 0.41902 0.86491 0.23919 0.0
C457 C 0.44672 0.87731 0.2144 0.0
C458 C 0.41685 0.89129 0.25717 0.0
C459 C 0.41962 0.84273 0.26561 0.0
C460 C 0.39536 0.81322 0.26077 0.0
C461 C 0.39152 0.78884 0.28198 0.0
C462 C 0.41192 0.79526 0.31011 0.0
C463 C 0.43512 0.82583 0.3172 0.0
C464 C 0.43962 0.84957 0.29395 0.0
H465 H 0.56559 0.41614 0.32437 0.0
H466 H 0.48891 0.33333 0.36683 0.0
H467 H 0.5115 0.34883 0.42682 0.0
H468 H 0.62491 0.42071 0.38611 0.0
H469 H 0.64341 0.46216 0.38717 0.0
H470 H 0.62374 0.44144 0.34789 0.0
H471 H 0.59099 0.46807 0.34917 0.0
H472 H 0.61026 0.48863 0.38846 0.0
H473 H 0.56926 0.46498 0.38814 0.0
H474 H 0.53764 0.37822 0.48165 0.0
H475 H 0.56511 0.41763 0.52713 0.0
H476 H 0.62574 0.48057 0.448 0.0
C477 C 0.55365 0.4009 0.34616 0.0
C478 C 0.52536 0.37372 0.34127 0.0
C479 C 0.51063 0.35426 0.37025 0.0
C480 C 0.52337 0.36286 0.40421 0.0
C481 C 0.55098 0.3905 0.40814 0.0
C482 C 0.56606 0.40898 0.37971 0.0
C483 C 0.59362 0.43897 0.39074 0.0
C484 C 0.62318 0.44092 0.37718 0.0
C485 C 0.59084 0.46678 0.37841 0.0
C486 C 0.59107 0.43544 0.43024 0.0
C487 C 0.56658 0.40709 0.43973 0.0
C488 C 0.55734 0.39998 0.47456 0.0
C489 C 0.57309 0.42252 0.50017 0.0
C490 C 0.59789 0.45174 0.4909 0.0
C491 C 0.60745 0.45806 0.45568 0.0
H492 H 0.91594 0.44421 0.28511 0.0
H493 H 0.8698 0.38455 0.37361 0.0
H494 H 0.91922 0.40326 0.40385 0.0
H495 H 0.97399 0.43047 0.28077 0.0
H496 H 0.00422 0.46866 0.27004 0.0
H497 H 0.96546 0.45713 0.25862 0.0
H498 H 0.96878 0.50321 0.29334 0.0
H499 H 0.00798 0.51553 0.30405 0.0
H500 H -0.01892 0.5091 0.33871 0.0
H501 H 0.97203 0.41808 0.4174 0.0
H502 H 0.02699 0.43573 0.41932 0.0
H503 H 0.04051 0.48811 0.32338 0.0
C504 C 0.91634 0.43661 0.31173 0.0
C505 C 0.88941 0.41381 0.32782 0.0
C506 C 0.89037 0.40278 0.36169 0.0
C507 C 0.91827 0.41313 0.37885 0.0
C508 C 0.94475 0.43452 0.36165 0.0
C509 C 0.94411 0.44684 0.32924 0.0
C510 C -0.02392 0.46689 0.31491 0.0
C511 C -0.01985 0.45505 0.27897 0.0
C512 C -0.01605 0.50069 0.31264 0.0
C513 C -0.00548 0.46243 0.34337 0.0
C514 C 0.97591 0.44374 0.37005 0.0
C515 C -0.01299 0.43348 0.39728 0.0
C516 C 0.01813 0.44321 0.39782 0.0
C517 C 0.03777 0.46322 0.3715 0.0
C518 C 0.02587 0.47303 0.34397 0.0
H519 H 0.45613 0.92241 0.4847 0.0
H520 H 0.53064 0.90308 0.47436 0.0
H521 H 0.56761 0.95737 0.48508 0.0
H522 H 0.49118 -0.00537 0.44349 0.0
H523 H 0.47783 0.01309 0.47375 0.0
H524 H 0.45589 0.97206 0.46702 0.0
H525 H 0.45738 0.96253 0.53396 0.0
H526 H 0.47842 0.00356 0.54097 0.0
H527 H 0.49362 0.97993 0.55652 0.0
H528 H 0.59667 0.01311 0.49047 0.0
H529 H 0.61724 0.06777 0.50486 0.0
H530 H 0.52494 0.05214 0.51541 0.0
C531 C 0.48017 0.92956 0.48545 0.0
C532 C 0.49051 0.90865 0.47812 0.0
C533 C 0.52215 0.91874 0.4795 0.0
C534 C 0.54343 0.94958 0.48536 0.0
C535 C 0.53268 0.96989 0.49053 0.0
C536 C 0.50191 0.96037 0.49192 0.0
C537 C 0.49694 -0.01272 0.49931 0.0
C538 C 0.47943 -0.00797 0.46907 0.0
C539 C 0.48063 0.98307 0.5348 0.0
C540 C 0.52975 0.01324 0.50098 0.0
C541 C 0.54984 0.00257 0.49536 0.0
C542 C 0.5813 0.02185 0.49546 0.0
C543 C 0.59272 0.05284 0.50347 0.0
C544 C 0.57264 0.06398 0.51156 0.0
C545 C 0.54077 0.04418 0.50919 0.0
H546 H 0.46944 0.5483 0.64851 0.0
H547 H 0.5248 0.59791 0.73914 0.0
H548 H 0.54936 0.56617 0.73786 0.0
H549 H 0.4598 0.47264 0.66857 0.0
H550 H 0.4645 0.46454 0.62341 0.0
H551 H 0.44863 0.48893 0.63314 0.0
H552 H 0.49024 0.53256 0.59503 0.0
H553 H 0.50574 0.50806 0.58465 0.0
H554 H 0.52988 0.5455 0.60382 0.0
H555 H 0.57012 0.53263 0.72543 0.0
H556 H 0.59146 0.50324 0.69699 0.0
H557 H 0.5235 0.47482 0.61412 0.0
C558 C 0.48667 0.55228 0.66805 0.0
C559 C 0.49532 0.57538 0.6939 0.0
C560 C 0.51816 0.58044 0.71888 0.0
C561 C 0.53189 0.56227 0.71873 0.0
C562 C 0.52267 0.5394 0.69324 0.0
C563 C 0.50109 0.53468 0.66788 0.0
C564 C 0.49803 0.51091 0.64109 0.0
C565 C 0.46582 0.48257 0.64162 0.0
C566 C 0.50649 0.52511 0.60397 0.0
C567 C 0.52154 0.50336 0.6553 0.0
C568 C 0.53506 0.51976 0.68574 0.0
C569 C 0.55948 0.51922 0.70196 0.0
C570 C 0.57141 0.50252 0.68574 0.0
C571 C 0.5587 0.48662 0.65391 0.0
C572 C 0.53284 0.48607 0.63914 0.0
H573 H 0.03991 0.53981 0.8404 0.0
H574 H 0.04224 0.60158 0.75859 0.0
H575 H -0.01351 0.5772 0.76062 0.0
H576 H 0.96938 0.47197 0.8144 0.0
H577 H 0.95583 0.46089 0.85889 0.0
H578 H -0.00377 0.48188 0.85017 0.0
H579 H 0.00297 0.52389 0.89505 0.0
H580 H 0.96265 0.50286 0.90406 0.0
H581 H -0.01953 0.54246 0.89015 0.0
H582 H 0.93192 0.54933 0.77289 0.0
H583 H 0.87985 0.51944 0.79741 0.0
H584 H 0.91124 0.47455 0.87034 0.0
C585 C 0.02855 0.54803 0.82296 0.0
C586 C 0.04526 0.57259 0.79948 0.0
C587 C 0.02983 0.58303 0.77715 0.0
C588 C -0.00184 0.56918 0.7778 0.0
C589 C -0.01773 0.54509 0.80114 0.0
C590 C -0.00325 0.53471 0.82363 0.0
C591 C 0.97403 0.50982 0.84782 0.0
C592 C 0.97387 0.47933 0.84247 0.0
C593 C -0.01959 0.52039 0.88655 0.0
C594 C 0.94468 0.50767 0.83483 0.0
C595 C 0.95009 0.52836 0.80797 0.0
C596 C 0.92714 0.53264 0.79353 0.0
C597 C 0.8978 0.51569 0.80748 0.0
C598 C 0.89188 0.49452 0.83496 0.0
C599 C 0.91533 0.49 0.84845 0.0
H600 H 0.42522 0.05068 0.97645 0.0
H601 H 0.51675 0.06522 0.96296 0.0
H602 H 0.49788 0.01041 0.97636 0.0
H603 H 0.40579 -0.00126 0.05003 0.0
H604 H 0.3665 0.97559 0.03659 0.0
H605 H 0.38748 0.01586 0.0255 0.0
H606 H 0.37449 0.00185 0.95945 0.0
H607 H 0.35385 0.96151 0.97029 0.0
H608 H 0.38453 0.97572 0.93873 0.0
H609 H 0.46881 0.95413 0.98946 0.0
H610 H 0.43255 0.90108 0.00837 0.0
H611 H 0.36058 0.92432 0.01472 0.0
C612 C 0.44127 0.04231 0.97645 0.0
C613 C 0.4723 0.06189 0.96862 0.0
C614 C 0.49284 0.05041 0.96913 0.0
C615 C 0.48233 0.01937 0.97642 0.0
C616 C 0.45141 0.00049 0.98343 0.0
C617 C 0.43129 0.0116 0.98409 0.0
C618 C 0.39946 -0.01317 -0.00623 0.0
C619 C 0.38922 -0.00527 0.02854 0.0
C620 C 0.37675 0.98115 0.96376 0.0
C621 C 0.40477 0.95996 -0.00185 0.0
C622 C 0.43481 0.96822 0.99178 0.0
C623 C 0.44522 0.94733 -0.00541 0.0
C624 C 0.42445 0.91729 0.00517 0.0
C625 C 0.39385 0.90876 0.013 0.0
C626 C 0.38383 0.93022 0.0088 0.0
H627 H 0.41728 0.49984 0.1492 0.0
H628 H 0.33377 0.41979 0.11269 0.0
H629 H 0.35681 0.38736 0.12197 0.0
H630 H 0.47019 0.4779 0.11174 0.0
H631 H 0.49568 0.49158 0.14908 0.0
H632 H 0.47373 0.50971 0.13765 0.0
H633 H 0.45084 0.49974 0.20058 0.0
H634 H 0.47316 0.48217 0.21232 0.0
H635 H 0.43233 0.46116 0.21804 0.0
H636 H 0.38655 0.36318 0.13691 0.0
H637 H 0.42072 0.34687 0.16322 0.0
H638 H 0.48561 0.44185 0.1901 0.0
C639 C 0.40391 0.4755 0.14321 0.0
C640 C 0.37385 0.4623 0.13013 0.0
C641 C 0.35688 0.43036 0.12276 0.0
C642 C 0.36983 0.41178 0.12759 0.0
C643 C 0.39965 0.42552 0.13983 0.0
C644 C 0.41645 0.45649 0.14802 0.0
C645 C 0.44733 0.46475 0.16311 0.0
C646 C 0.47326 0.48732 0.13894 0.0
C647 C 0.45111 0.4777 0.20075 0.0
C648 C 0.44469 0.43331 0.16297 0.0
C649 C 0.41716 0.41123 0.14881 0.0
C650 C 0.40831 0.38016 0.14785 0.0
C651 C 0.42772 0.37114 0.16296 0.0
C652 C 0.45549 0.39319 0.17866 0.0
C653 C 0.46457 0.42472 0.17779 0.0
H654 H 0.18925 0.44869 0.31965 0.0
H655 H 0.22018 0.54588 0.3334 0.0
H656 H 0.2397 0.55614 0.27264 0.0
H657 H 0.25675 0.46251 0.26654 0.0
H658 H 0.23499 0.42922 0.23898 0.0
H659 H 0.2234 0.42929 0.28386 0.0
H660 H 0.16986 0.41637 0.26155 0.0
H661 H 0.18155 0.41704 0.21655 0.0
H662 H 0.16651 0.44139 0.22995 0.0
H663 H 0.25164 0.5559 0.21053 0.0
H664 H 0.26677 0.54741 0.15169 0.0
H665 H 0.23355 0.45157 0.17737 0.0
C666 C 0.20076 0.4721 0.30988 0.0
C667 C 0.20355 0.49665 0.33093 0.0
C668 C 0.21833 0.52699 0.31755 0.0
C669 C 0.22916 0.53298 0.28305 0.0
C670 C 0.22549 0.5084 0.26249 0.0
C671 C 0.21266 0.47873 0.27549 0.0
C672 C 0.2133 0.45714 0.24775 0.0
C673 C 0.23331 0.44376 0.26001 0.0
C674 C 0.18086 0.43147 0.23841 0.0
C675 C 0.22788 0.47932 0.21717 0.0
C676 C 0.23407 0.50859 0.22635 0.0
C677 C 0.24711 0.53317 0.20295 0.0
C678 C 0.25529 0.52809 0.16956 0.0
C679 C 0.25067 0.49882 0.16011 0.0
C680 C 0.23653 0.47395 0.18393 0.0
H681 H 0.76718 0.30679 0.36602 0.0
H682 H 0.74787 0.22242 0.31208 0.0
H683 H 0.72536 0.19319 0.36704 0.0
H684 H 0.78695 0.28936 0.45065 0.0
H685 H 0.76858 0.30655 0.47493 0.0
H686 H 0.78406 0.32084 0.43182 0.0
H687 H 0.73142 0.31171 0.4106 0.0
H688 H 0.71587 0.29773 0.45371 0.0
H689 H 0.69824 0.27407 0.41543 0.0
H690 H 0.70334 0.17328 0.42714 0.0
H691 H 0.68136 0.16344 0.4869 0.0
H692 H 0.71572 0.26119 0.50154 0.0
C693 C 0.75855 0.28219 0.3657 0.0
C694 C 0.75961 0.26692 0.33477 0.0
C695 C 0.74756 0.23464 0.3355 0.0
C696 C 0.73477 0.21789 0.36659 0.0
C697 C 0.73427 0.23381 0.39659 0.0
C698 C 0.74571 0.26521 0.39629 0.0
C699 C 0.74124 0.27675 0.43147 0.0
C700 C 0.77205 0.29973 0.4482 0.0
C701 C 0.72045 0.29089 0.42755 0.0
C702 C 0.72559 0.2469 0.4519 0.0
C703 C 0.72178 0.22241 0.43125 0.0
C704 C 0.70648 0.1923 0.44361 0.0
C705 C 0.69416 0.18698 0.47762 0.0
C706 C 0.69724 0.21164 0.49898 0.0
C707 C 0.71373 0.24204 0.48616 0.0
H708 H 0.45024 0.67214 0.625 0.0
H709 H 0.49798 0.75586 0.6871 0.0
H710 H 0.50647 0.78675 0.63282 0.0
H711 H 0.49475 0.69778 0.54577 0.0
H712 H 0.46202 0.67812 0.51719 0.0
H713 H 0.46152 0.66298 0.56038 0.0
H714 H 0.41204 0.664 0.57561 0.0
H715 H 0.41221 0.67882 0.53238 0.0
H716 H 0.41134 0.69944 0.5709 0.0
H717 H 0.50696 0.80784 0.57229 0.0
H718 H 0.49759 0.81782 0.51104 0.0
H719 H 0.4498 0.71982 0.48919 0.0
C720 C 0.46306 0.697 0.62721 0.0
C721 C 0.47404 0.71171 0.66012 0.0
C722 C 0.4897 0.74423 0.66204 0.0
C723 C 0.49464 0.76187 0.6314 0.0
C724 C 0.48349 0.7465 0.59935 0.0
C725 C 0.46777 0.71477 0.5972 0.0
C726 C 0.45598 0.70363 0.56032 0.0
C727 C 0.46939 0.68451 0.54502 0.0
C728 C 0.42082 0.68541 0.55979 0.0
C729 C 0.46816 0.73409 0.54159 0.0
C730 C 0.48379 0.75856 0.56461 0.0
C731 C 0.49514 0.78891 0.55399 0.0
C732 C 0.48977 0.79433 0.51922 0.0
C733 C 0.4735 0.76956 0.49546 0.0
C734 C 0.46311 0.73914 0.50659 0.0
H735 H 0.73976 0.43994 0.79785 0.0
H736 H 0.75362 0.52598 0.84169 0.0
H737 H 0.73715 0.53766 0.78488 0.0
H738 H 0.76635 0.46511 0.71213 0.0
H739 H 0.73752 0.43073 0.69054 0.0
H740 H 0.74911 0.42869 0.73487 0.0
H741 H 0.69309 0.40423 0.75626 0.0
H742 H 0.68124 0.40559 0.71183 0.0
H743 H 0.67175 0.42345 0.74708 0.0
H744 H 0.71927 0.53951 0.72255 0.0
H745 H 0.69852 0.52998 0.66172 0.0
H746 H 0.69858 0.44361 0.659 0.0
C747 C 0.73922 0.46121 0.7956 0.0
C748 C 0.74812 0.48219 0.82404 0.0
C749 C 0.74672 0.50956 0.82024 0.0
C750 C 0.7376 0.51643 0.78804 0.0
C751 C 0.72968 0.49549 0.76021 0.0
C752 C 0.72997 0.46822 0.76396 0.0
C753 C 0.71972 0.44913 0.73056 0.0
C754 C 0.74468 0.44308 0.71619 0.0
C755 C 0.68967 0.41881 0.73681 0.0
C756 C 0.7148 0.47042 0.70676 0.0
C757 C 0.72023 0.49688 0.72444 0.0
C758 C 0.7153 0.51906 0.70842 0.0
C759 C 0.70377 0.5136 0.67387 0.0
C760 C 0.69797 0.48657 0.65556 0.0
C761 C 0.70402 0.46501 0.67202 0.0
H762 H 0.25513 0.72043 0.99178 0.0
H763 H 0.24282 0.79989 -0.00238 0.0
H764 H 0.2196 0.78803 0.93797 0.0
H765 H 0.2785 0.73322 0.90183 0.0
H766 H 0.26137 0.69295 0.89096 0.0
H767 H 0.27421 0.70585 0.93529 0.0
H768 H 0.22027 0.66795 0.95942 0.0
H769 H 0.20749 0.65454 0.91524 0.0
H770 H 0.18759 0.66884 0.9417 0.0
H771 H 0.2011 0.7693 0.87577 0.0
H772 H 0.18517 0.74262 0.81785 0.0
H773 H 0.21072 0.67636 0.85328 0.0
C774 C 0.24651 0.73461 0.98091 0.0
C775 C 0.24974 0.76045 -0.00057 0.0
C776 C 0.23978 0.77957 0.98388 0.0
C777 C 0.22683 0.77315 0.95003 0.0
C778 C 0.22471 0.74793 0.93193 0.0
C779 C 0.23424 0.72894 0.94687 0.0
C780 C 0.23158 0.70471 0.92105 0.0
C781 C 0.26329 0.70948 0.91175 0.0
C782 C 0.21045 0.67208 0.93521 0.0
C783 C 0.21765 0.71206 0.88991 0.0
C784 C 0.21447 0.73747 0.89627 0.0
C785 C 0.20325 0.74923 0.87059 0.0
C786 C 0.19445 0.73414 0.83781 0.0
C787 C 0.1965 0.70743 0.83157 0.0
C788 C 0.20854 0.69655 0.85778 0.0
H789 H 0.48849 0.23711 0.17092 0.0
H790 H 0.46235 0.30491 0.14311 0.0
H791 H 0.45482 0.28741 0.08175 0.0
H792 H 0.53061 0.24451 0.09642 0.0
H793 H 0.51833 0.20424 0.09081 0.0
H794 H 0.518 0.21905 0.13392 0.0
H795 H 0.46058 0.1789 0.14044 0.0
H796 H 0.46076 0.16379 0.09734 0.0
H797 H 0.43398 0.17657 0.10722 0.0
H798 H 0.45715 0.26845 0.02237 0.0
H799 H 0.4654 0.24563 0.96874 0.0
H800 H 0.4874 0.1881 0.03394 0.0
C801 C 0.48022 0.24752 0.15214 0.0
C802 C 0.47605 0.27238 0.16199 0.0
C803 C 0.46578 0.28583 0.13638 0.0
C804 C 0.46135 0.27605 0.10131 0.0
C805 C 0.46668 0.25232 0.09214 0.0
C806 C 0.47534 0.23777 0.11678 0.0
C807 C 0.48101 0.21389 0.09919 0.0
C808 C 0.51394 0.22087 0.10545 0.0
C809 C 0.45769 0.18135 0.1118 0.0
C810 C 0.47562 0.21849 0.06086 0.0
C811 C 0.46711 0.24059 0.05747 0.0
C812 C 0.46309 0.25054 0.02462 0.0
C813 C 0.46791 0.23753 -0.0057 0.0
C814 C 0.47663 0.2148 -0.00293 0.0
C815 C 0.48013 0.20497 0.03088 0.0
loop_
_geom_bond_atom_site_label_1
_geom_bond_atom_site_label_2
_geom_bond_distance
_geom_bond_site_symmetry_2
_ccdc_geom_bond_type
C0 O1 1.306 . S
C0 O3 1.160 . S
O1 C0 1.306 . S
O1 Cd2 2.228 . S
Cd2 O1 2.228 . S
Cd2 O6 2.273 . S
Cd2 O10 2.277 . S
O3 C0 1.160 . S
O3 Cd4 2.203 . S
Cd4 O3 2.203 . S
Cd4 O6 2.411 . S
Cd4 O7 2.333 . S
Cd4 O8 2.352 . S
Cd4 O12 2.277 . S
Cd4 O13 2.356 . S
C5 O10 1.209 . S
C5 O12 1.226 . S
O6 Cd2 2.273 . S
O6 Cd4 2.411 . S
O6 C9 1.320 . S
O7 Cd4 2.333 . S
O7 C9 1.214 . S
O8 Cd4 2.352 . S
O8 C11 1.258 . S
C9 O6 1.320 . S
C9 O7 1.214 . S
O10 Cd2 2.277 . S
O10 C5 1.209 . S
C11 O8 1.258 . S
C11 O13 1.282 . S
O12 Cd4 2.277 . S
O12 C5 1.226 . S
O13 Cd4 2.356 . S
O13 C11 1.282 . S
C14 O15 1.306 . S
C14 O17 1.160 . S
O15 C14 1.306 . S
O15 Cd16 2.228 . S
Cd16 O15 2.228 . S
Cd16 O20 2.273 . S
Cd16 O24 2.277 . S
O17 C14 1.160 . S
O17 Cd18 2.203 . S
Cd18 O17 2.203 . S
Cd18 O20 2.411 . S
Cd18 O21 2.333 . S
Cd18 O22 2.352 . S
Cd18 O26 2.277 . S
Cd18 O27 2.356 . S
C19 O24 1.209 . S
C19 O26 1.226 . S
O20 Cd16 2.273 . S
O20 Cd18 2.411 . S
O20 C23 1.320 . S
O21 Cd18 2.333 . S
O21 C23 1.214 . S
O22 Cd18 2.352 . S
O22 C25 1.258 . S
C23 O20 1.320 . S
C23 O21 1.214 . S
O24 Cd16 2.277 . S
O24 C19 1.209 . S
C25 O22 1.258 . S
C25 O27 1.282 . S
O26 Cd18 2.277 . S
O26 C19 1.226 . S
O27 Cd18 2.356 . S
O27 C25 1.282 . S
C28 O29 1.306 . S
C28 O31 1.160 . S
O29 C28 1.306 . S
O29 Cd30 2.228 . S
Cd30 O29 2.228 . S
Cd30 O34 2.273 . S
Cd30 O38 2.277 . S
O31 C28 1.160 . S
O31 Cd32 2.203 . S
Cd32 O31 2.203 . S
Cd32 O34 2.411 . S
Cd32 O35 2.333 . S
Cd32 O36 2.352 . S
Cd32 O40 2.277 . S
Cd32 O41 2.356 . S
C33 O38 1.209 . S
C33 O40 1.226 . S
O34 Cd30 2.273 . S
O34 Cd32 2.411 . S
O34 C37 1.320 . S
O35 Cd32 2.333 . S
O35 C37 1.214 . S
O36 Cd32 2.352 . S
O36 C39 1.258 . S
C37 O34 1.320 . S
C37 O35 1.214 . S
O38 Cd30 2.277 . S
O38 C33 1.209 . S
C39 O36 1.258 . S
C39 O41 1.282 . S
O40 Cd32 2.277 . S
O40 C33 1.226 . S
O41 Cd32 2.356 . S
O41 C39 1.282 . S
C42 O43 1.306 . S
C42 O45 1.160 . S
O43 C42 1.306 . S
O43 Cd44 2.228 . S
Cd44 O43 2.228 . S
Cd44 O48 2.273 . S
Cd44 O52 2.277 . S
O45 C42 1.160 . S
O45 Cd46 2.203 . S
Cd46 O45 2.203 . S
Cd46 O48 2.411 . S
Cd46 O49 2.333 . S
Cd46 O50 2.352 . S
Cd46 O54 2.277 . S
Cd46 O55 2.356 . S
C47 O52 1.209 . S
C47 O54 1.226 . S
O48 Cd44 2.273 . S
O48 Cd46 2.411 . S
O48 C51 1.320 . S
O49 Cd46 2.333 . S
O49 C51 1.214 . S
O50 Cd46 2.352 . S
O50 C53 1.258 . S
C51 O48 1.320 . S
C51 O49 1.214 . S
O52 Cd44 2.277 . S
O52 C47 1.209 . S
C53 O50 1.258 . S
C53 O55 1.282 . S
O54 Cd46 2.277 . S
O54 C47 1.226 . S
O55 Cd46 2.356 . S
O55 C53 1.282 . S
C56 O57 1.306 . S
C56 O59 1.160 . S
O57 C56 1.306 . S
O57 Cd58 2.228 . S
Cd58 O57 2.228 . S
Cd58 O62 2.273 . S
Cd58 O66 2.277 . S
O59 C56 1.160 . S
O59 Cd60 2.203 . S
Cd60 O59 2.203 . S
Cd60 O62 2.411 . S
Cd60 O63 2.333 . S
Cd60 O64 2.352 . S
Cd60 O68 2.277 . S
Cd60 O69 2.356 . S
C61 O66 1.209 . S
C61 O68 1.226 . S
O62 Cd58 2.273 . S
O62 Cd60 2.411 . S
O62 C65 1.320 . S
O63 Cd60 2.333 . S
O63 C65 1.214 . S
O64 Cd60 2.352 . S
O64 C67 1.258 . S
C65 O62 1.320 . S
C65 O63 1.214 . S
O66 Cd58 2.277 . S
O66 C61 1.209 . S
C67 O64 1.258 . S
C67 O69 1.282 . S
O68 Cd60 2.277 . S
O68 C61 1.226 . S
O69 Cd60 2.356 . S
O69 C67 1.282 . S
C70 O71 1.306 . S
C70 O73 1.160 . S
O71 C70 1.306 . S
O71 Cd72 2.228 . S
Cd72 O71 2.228 . S
Cd72 O76 2.273 . S
Cd72 O80 2.277 . S
O73 C70 1.160 . S
O73 Cd74 2.203 . S
Cd74 O73 2.203 . S
Cd74 O76 2.411 . S
Cd74 O77 2.333 . S
Cd74 O78 2.352 . S
Cd74 O82 2.277 . S
Cd74 O83 2.356 . S
C75 O80 1.209 . S
C75 O82 1.226 . S
O76 Cd72 2.273 . S
O76 Cd74 2.411 . S
O76 C79 1.320 . S
O77 Cd74 2.333 . S
O77 C79 1.214 . S
O78 Cd74 2.352 . S
O78 C81 1.258 . S
C79 O76 1.320 . S
C79 O77 1.214 . S
O80 Cd72 2.277 . S
O80 C75 1.209 . S
C81 O78 1.258 . S
C81 O83 1.282 . S
O82 Cd74 2.277 . S
O82 C75 1.226 . S
O83 Cd74 2.356 . S
O83 C81 1.282 . S
C84 O85 1.306 . S
C84 O87 1.160 . S
O85 C84 1.306 . S
O85 Cd86 2.228 . S
Cd86 O85 2.228 . S
Cd86 O90 2.273 . S
Cd86 O94 2.277 . S
O87 C84 1.160 . S
O87 Cd88 2.203 . S
Cd88 O87 2.203 . S
Cd88 O90 2.411 . S
Cd88 O91 2.333 . S
Cd88 O92 2.352 . S
Cd88 O96 2.277 . S
Cd88 O97 2.356 . S
C89 O94 1.209 . S
C89 O96 1.226 . S
O90 Cd86 2.273 . S
O90 Cd88 2.411 . S
O90 C93 1.320 . S
O91 Cd88 2.333 . S
O91 C93 1.214 . S
O92 Cd88 2.352 . S
O92 C95 1.258 . S
C93 O90 1.320 . S
C93 O91 1.214 . S
O94 Cd86 2.277 . S
O94 C89 1.209 . S
C95 O92 1.258 . S
C95 O97 1.282 . S
O96 Cd88 2.277 . S
O96 C89 1.226 . S
O97 Cd88 2.356 . S
O97 C95 1.282 . S
C98 O99 1.306 . S
C98 O101 1.160 . S
O99 C98 1.306 . S
O99 Cd100 2.228 . S
Cd100 O99 2.228 . S
Cd100 O104 2.273 . S
Cd100 O108 2.277 . S
O101 C98 1.160 . S
O101 Cd102 2.203 . S
Cd102 O101 2.203 . S
Cd102 O104 2.411 . S
Cd102 O105 2.333 . S
Cd102 O106 2.352 . S
Cd102 O110 2.277 . S
Cd102 O111 2.356 . S
C103 O108 1.209 . S
C103 O110 1.226 . S
O104 Cd100 2.273 . S
O104 Cd102 2.411 . S
O104 C107 1.320 . S
O105 Cd102 2.333 . S
O105 C107 1.214 . S
O106 Cd102 2.352 . S
O106 C109 1.258 . S
C107 O104 1.320 . S
C107 O105 1.214 . S
O108 Cd100 2.277 . S
O108 C103 1.209 . S
C109 O106 1.258 . S
C109 O111 1.282 . S
O110 Cd102 2.277 . S
O110 C103 1.226 . S
O111 Cd102 2.356 . S
O111 C109 1.282 . S
C112 O113 1.306 . S
C112 O115 1.160 . S
O113 C112 1.306 . S
O113 Cd114 2.228 . S
Cd114 O113 2.228 . S
Cd114 O118 2.273 . S
Cd114 O122 2.277 . S
O115 C112 1.160 . S
O115 Cd116 2.203 . S
Cd116 O115 2.203 . S
Cd116 O118 2.411 . S
Cd116 O119 2.333 . S
Cd116 O120 2.352 . S
Cd116 O124 2.277 . S
Cd116 O125 2.356 . S
C117 O122 1.209 . S
C117 O124 1.226 . S
O118 Cd114 2.273 . S
O118 Cd116 2.411 . S
O118 C121 1.320 . S
O119 Cd116 2.333 . S
O119 C121 1.214 . S
O120 Cd116 2.352 . S
O120 C123 1.258 . S
C121 O118 1.320 . S
C121 O119 1.214 . S
O122 Cd114 2.277 . S
O122 C117 1.209 . S
C123 O120 1.258 . S
C123 O125 1.282 . S
O124 Cd116 2.277 . S
O124 C117 1.226 . S
O125 Cd116 2.356 . S
O125 C123 1.282 . S
C126 O127 1.306 . S
C126 O129 1.160 . S
O127 C126 1.306 . S
O127 Cd128 2.228 . S
Cd128 O127 2.228 . S
Cd128 O132 2.273 . S
Cd128 O136 2.277 . S
O129 C126 1.160 . S
O129 Cd130 2.203 . S
Cd130 O129 2.203 . S
Cd130 O132 2.411 . S
Cd130 O133 2.333 . S
Cd130 O134 2.352 . S
Cd130 O138 2.277 . S
Cd130 O139 2.356 . S
C131 O136 1.209 . S
C131 O138 1.226 . S
O132 Cd128 2.273 . S
O132 Cd130 2.411 . S
O132 C135 1.320 . S
O133 Cd130 2.333 . S
O133 C135 1.214 . S
O134 Cd130 2.352 . S
O134 C137 1.258 . S
C135 O132 1.320 . S
C135 O133 1.214 . S
O136 Cd128 2.277 . S
O136 C131 1.209 . S
C137 O134 1.258 . S
C137 O139 1.282 . S
O138 Cd130 2.277 . S
O138 C131 1.226 . S
O139 Cd130 2.356 . S
O139 C137 1.282 . S
C140 O141 1.306 . S
C140 O143 1.160 . S
O141 C140 1.306 . S
O141 Cd142 2.228 . S
Cd142 O141 2.228 . S
Cd142 O146 2.273 . S
Cd142 O150 2.277 . S
O143 C140 1.160 . S
O143 Cd144 2.203 . S
Cd144 O143 2.203 . S
Cd144 O146 2.411 . S
Cd144 O147 2.333 . S
Cd144 O148 2.352 . S
Cd144 O152 2.277 . S
Cd144 O153 2.356 . S
C145 O150 1.209 . S
C145 O152 1.226 . S
O146 Cd142 2.273 . S
O146 Cd144 2.411 . S
O146 C149 1.320 . S
O147 Cd144 2.333 . S
O147 C149 1.214 . S
O148 Cd144 2.352 . S
O148 C151 1.258 . S
C149 O146 1.320 . S
C149 O147 1.214 . S
O150 Cd142 2.277 . S
O150 C145 1.209 . S
C151 O148 1.258 . S
C151 O153 1.282 . S
O152 Cd144 2.277 . S
O152 C145 1.226 . S
O153 Cd144 2.356 . S
O153 C151 1.282 . S
C154 O155 1.306 . S
C154 O157 1.160 . S
O155 C154 1.306 . S
O155 Cd156 2.228 . S
Cd156 O155 2.228 . S
Cd156 O160 2.273 . S
Cd156 O164 2.277 . S
O157 C154 1.160 . S
O157 Cd158 2.203 . S
Cd158 O157 2.203 . S
Cd158 O160 2.411 . S
Cd158 O161 2.333 . S
Cd158 O162 2.352 . S
Cd158 O166 2.277 . S
Cd158 O167 2.356 . S
C159 O164 1.209 . S
C159 O166 1.226 . S
O160 Cd156 2.273 . S
O160 Cd158 2.411 . S
O160 C163 1.320 . S
O161 Cd158 2.333 . S
O161 C163 1.214 . S
O162 Cd158 2.352 . S
O162 C165 1.258 . S
C163 O160 1.320 . S
C163 O161 1.214 . S
O164 Cd156 2.277 . S
O164 C159 1.209 . S
C165 O162 1.258 . S
C165 O167 1.282 . S
O166 Cd158 2.277 . S
O166 C159 1.226 . S
O167 Cd158 2.356 . S
O167 C165 1.282 . S
H168 C180 0.930 . S
H169 C182 0.930 . S
H170 C183 0.930 . S
H171 C187 0.959 . S
H172 C187 0.959 . S
H173 C187 0.961 . S
H174 C188 0.960 . S
H175 C188 0.961 . S
H176 C188 0.959 . S
H177 C191 0.929 . S
H178 C192 0.931 . S
H179 C194 0.930 . S
C180 H168 0.930 . S
C180 C181 1.399 . S
C180 C185 1.399 . S
C181 C180 1.399 . S
C181 C182 1.376 . S
C182 H169 0.930 . S
C182 C181 1.376 . S
C182 C183 1.388 . S
C183 H170 0.930 . S
C183 C182 1.388 . S
C183 C184 1.390 . S
C184 C183 1.390 . S
C184 C185 1.394 . S
C184 C190 1.465 . S
C185 C180 1.399 . S
C185 C184 1.394 . S
C185 C186 1.516 . S
C186 C185 1.516 . S
C186 C187 1.502 . S
C186 C188 1.561 . S
C186 C189 1.526 . S
C187 H171 0.959 . S
C187 H172 0.959 . S
C187 H173 0.961 . S
C187 C186 1.502 . S
C188 H174 0.960 . S
C188 H175 0.961 . S
C188 H176 0.959 . S
C188 C186 1.561 . S
C189 C186 1.526 . S
C189 C190 1.396 . S
C189 C194 1.390 . S
C190 C184 1.465 . S
C190 C189 1.396 . S
C190 C191 1.399 . S
C191 H177 0.929 . S
C191 C190 1.399 . S
C191 C192 1.385 . S
C192 H178 0.931 . S
C192 C191 1.385 . S
C192 C193 1.389 . S
C193 C192 1.389 . S
C193 C194 1.387 . S
C194 H179 0.930 . S
C194 C189 1.390 . S
C194 C193 1.387 . S
H195 C207 0.930 . S
H196 C209 0.930 . S
H197 C210 0.930 . S
H198 C214 0.959 . S
H199 C214 0.959 . S
H200 C214 0.961 . S
H201 C215 0.960 . S
H202 C215 0.961 . S
H203 C215 0.959 . S
H204 C218 0.929 . S
H205 C219 0.931 . S
H206 C221 0.930 . S
C207 H195 0.930 . S
C207 C208 1.399 . S
C207 C212 1.399 . S
C208 C207 1.399 . S
C208 C209 1.376 . S
C209 H196 0.930 . S
C209 C208 1.376 . S
C209 C210 1.388 . S
C210 H197 0.930 . S
C210 C209 1.388 . S
C210 C211 1.390 . S
C211 C210 1.390 . S
C211 C212 1.394 . S
C211 C217 1.465 . S
C212 C207 1.399 . S
C212 C211 1.394 . S
C212 C213 1.516 . S
C213 C212 1.516 . S
C213 C214 1.502 . S
C213 C215 1.561 . S
C213 C216 1.526 . S
C214 H198 0.959 . S
C214 H199 0.959 . S
C214 H200 0.961 . S
C214 C213 1.502 . S
C215 H201 0.960 . S
C215 H202 0.961 . S
C215 H203 0.959 . S
C215 C213 1.561 . S
C216 C213 1.526 . S
C216 C217 1.396 . S
C216 C221 1.390 . S
C217 C211 1.465 . S
C217 C216 1.396 . S
C217 C218 1.399 . S
C218 H204 0.929 . S
C218 C217 1.399 . S
C218 C219 1.385 . S
C219 H205 0.931 . S
C219 C218 1.385 . S
C219 C220 1.389 . S
C220 C219 1.389 . S
C220 C221 1.387 . S
C221 H206 0.930 . S
C221 C216 1.390 . S
C221 C220 1.387 . S
H222 C234 0.930 . S
H223 C236 0.930 . S
H224 C237 0.930 . S
H225 C241 0.959 . S
H226 C241 0.959 . S
H227 C241 0.961 . S
H228 C242 0.960 . S
H229 C242 0.961 . S
H230 C242 0.959 . S
H231 C245 0.929 . S
H232 C246 0.931 . S
H233 C248 0.930 . S
C234 H222 0.930 . S
C234 C235 1.399 . S
C234 C239 1.399 . S
C235 C234 1.399 . S
C235 C236 1.376 . S
C236 H223 0.930 . S
C236 C235 1.376 . S
C236 C237 1.388 . S
C237 H224 0.930 . S
C237 C236 1.388 . S
C237 C238 1.390 . S
C238 C237 1.390 . S
C238 C239 1.394 . S
C238 C244 1.465 . S
C239 C234 1.399 . S
C239 C238 1.394 . S
C239 C240 1.516 . S
C240 C239 1.516 . S
C240 C241 1.502 . S
C240 C242 1.561 . S
C240 C243 1.526 . S
C241 H225 0.959 . S
C241 H226 0.959 . S
C241 H227 0.961 . S
C241 C240 1.502 . S
C242 H228 0.960 . S
C242 H229 0.961 . S
C242 H230 0.959 . S
C242 C240 1.561 . S
C243 C240 1.526 . S
C243 C244 1.396 . S
C243 C248 1.390 . S
C244 C238 1.465 . S
C244 C243 1.396 . S
C244 C245 1.399 . S
C245 H231 0.929 . S
C245 C244 1.399 . S
C245 C246 1.385 . S
C246 H232 0.931 . S
C246 C245 1.385 . S
C246 C247 1.389 . S
C247 C246 1.389 . S
C247 C248 1.387 . S
C248 H233 0.930 . S
C248 C243 1.390 . S
C248 C247 1.387 . S
H249 C261 0.930 . S
H250 C263 0.930 . S
H251 C264 0.930 . S
H252 C268 0.959 . S
H253 C268 0.959 . S
H254 C268 0.961 . S
H255 C269 0.960 . S
H256 C269 0.961 . S
H257 C269 0.959 . S
H258 C272 0.929 . S
H259 C273 0.931 . S
H260 C275 0.930 . S
C261 H249 0.930 . S
C261 C262 1.399 . S
C261 C266 1.399 . S
C262 C261 1.399 . S
C262 C263 1.376 . S
C263 H250 0.930 . S
C263 C262 1.376 . S
C263 C264 1.388 . S
C264 H251 0.930 . S
C264 C263 1.388 . S
C264 C265 1.390 . S
C265 C264 1.390 . S
C265 C266 1.394 . S
C265 C271 1.465 . S
C266 C261 1.399 . S
C266 C265 1.394 . S
C266 C267 1.516 . S
C267 C266 1.516 . S
C267 C268 1.502 . S
C267 C269 1.561 . S
C267 C270 1.526 . S
C268 H252 0.959 . S
C268 H253 0.959 . S
C268 H254 0.961 . S
C268 C267 1.502 . S
C269 H255 0.960 . S
C269 H256 0.961 . S
C269 H257 0.959 . S
C269 C267 1.561 . S
C270 C267 1.526 . S
C270 C271 1.396 . S
C270 C275 1.390 . S
C271 C265 1.465 . S
C271 C270 1.396 . S
C271 C272 1.399 . S
C272 H258 0.929 . S
C272 C271 1.399 . S
C272 C273 1.385 . S
C273 H259 0.931 . S
C273 C272 1.385 . S
C273 C274 1.389 . S
C274 C273 1.389 . S
C274 C275 1.387 . S
C275 H260 0.930 . S
C275 C270 1.390 . S
C275 C274 1.387 . S
H276 C288 0.930 . S
H277 C290 0.930 . S
H278 C291 0.930 . S
H279 C295 0.959 . S
H280 C295 0.959 . S
H281 C295 0.961 . S
H282 C296 0.960 1_556 S
H283 C296 0.947 1_556 S
H284 C296 0.959 . S
H285 C299 0.929 . S
H286 C300 0.931 . S
H287 C302 0.930 . S
C288 H276 0.930 . S
C288 C289 1.399 . S
C288 C293 1.399 . S
C289 C288 1.399 . S
C289 C290 1.376 . S
C290 H277 0.930 . S
C290 C289 1.376 . S
C290 C291 1.388 . S
C291 H278 0.930 . S
C291 C290 1.388 . S
C291 C292 1.390 . S
C292 C291 1.390 . S
C292 C293 1.394 . S
C292 C298 1.465 . S
C293 C288 1.399 . S
C293 C292 1.394 . S
C293 C294 1.516 . S
C294 C293 1.516 . S
C294 C295 1.502 . S
C294 C296 1.561 . S
C294 C297 1.526 . S
C295 H279 0.959 . S
C295 H280 0.959 . S
C295 H281 0.961 . S
C295 C294 1.502 . S
C296 H282 0.960 1_554 S
C296 H283 0.947 1_554 S
C296 H284 0.959 . S
C296 C294 1.561 . S
C297 C294 1.526 . S
C297 C298 1.396 . S
C297 C302 1.390 . S
C298 C292 1.465 . S
C298 C297 1.396 . S
C298 C299 1.399 . S
C299 H285 0.929 . S
C299 C298 1.399 . S
C299 C300 1.385 . S
C300 H286 0.931 . S
C300 C299 1.385 . S
C300 C301 1.389 . S
C301 C300 1.389 . S
C301 C302 1.387 . S
C302 H287 0.930 . S
C302 C297 1.390 . S
C302 C301 1.387 . S
H303 C315 0.930 . S
H304 C317 0.930 . S
H305 C318 0.930 . S
H306 C322 0.959 . S
H307 C322 0.959 . S
H308 C322 0.961 . S
H309 C323 0.960 . S
H310 C323 0.961 . S
H311 C323 0.959 . S
H312 C326 0.929 . S
H313 C327 0.931 . S
H314 C329 0.930 . S
C315 H303 0.930 . S
C315 C316 1.399 . S
C315 C320 1.399 . S
C316 C315 1.399 . S
C316 C317 1.376 . S
C317 H304 0.930 . S
C317 C316 1.376 . S
C317 C318 1.388 . S
C318 H305 0.930 . S
C318 C317 1.388 . S
C318 C319 1.390 . S
C319 C318 1.390 . S
C319 C320 1.394 . S
C319 C325 1.465 . S
C320 C315 1.399 . S
C320 C319 1.394 . S
C320 C321 1.516 . S
C321 C320 1.516 . S
C321 C322 1.502 . S
C321 C323 1.561 . S
C321 C324 1.526 . S
C322 H306 0.959 . S
C322 H307 0.959 . S
C322 H308 0.961 . S
C322 C321 1.502 . S
C323 H309 0.960 . S
C323 H310 0.961 . S
C323 H311 0.959 . S
C323 C321 1.561 . S
C324 C321 1.526 . S
C324 C325 1.396 . S
C324 C329 1.390 . S
C325 C319 1.465 . S
C325 C324 1.396 . S
C325 C326 1.399 . S
C326 H312 0.929 . S
C326 C325 1.399 . S
C326 C327 1.385 . S
C327 H313 0.931 . S
C327 C326 1.385 . S
C327 C328 1.389 . S
C328 C327 1.389 . S
C328 C329 1.387 . S
C329 H314 0.930 . S
C329 C324 1.390 . S
C329 C328 1.387 . S
H330 C342 0.930 . S
H331 C344 0.930 . S
H332 C345 0.930 . S
H333 C349 0.959 . S
H334 C349 0.959 . S
H335 C349 0.961 . S
H336 C350 0.960 . S
H337 C350 0.961 . S
H338 C350 0.959 . S
H339 C353 0.929 . S
H340 C354 0.931 . S
H341 C356 0.930 . S
C342 H330 0.930 . S
C342 C343 1.399 . S
C342 C347 1.399 . S
C343 C342 1.399 . S
C343 C344 1.376 . S
C344 H331 0.930 . S
C344 C343 1.376 . S
C344 C345 1.388 . S
C345 H332 0.930 . S
C345 C344 1.388 . S
C345 C346 1.390 . S
C346 C345 1.390 . S
C346 C347 1.394 . S
C346 C352 1.465 . S
C347 C342 1.399 . S
C347 C346 1.394 . S
C347 C348 1.516 . S
C348 C347 1.516 . S
C348 C349 1.502 . S
C348 C350 1.561 . S
C348 C351 1.526 . S
C349 H333 0.959 . S
C349 H334 0.959 . S
C349 H335 0.961 . S
C349 C348 1.502 . S
C350 H336 0.960 . S
C350 H337 0.961 . S
C350 H338 0.959 . S
C350 C348 1.561 . S
C351 C348 1.526 . S
C351 C352 1.396 . S
C351 C356 1.390 . S
C352 C346 1.465 . S
C352 C351 1.396 . S
C352 C353 1.399 . S
C353 H339 0.929 . S
C353 C352 1.399 . S
C353 C354 1.385 . S
C354 H340 0.931 . S
C354 C353 1.385 . S
C354 C355 1.389 . S
C355 C354 1.389 . S
C355 C356 1.387 . S
C356 H341 0.930 . S
C356 C351 1.390 . S
C356 C355 1.387 . S
H357 C369 0.930 . S
H358 C371 0.930 . S
H359 C372 0.930 . S
H360 C376 0.959 . S
H361 C376 0.959 . S
H362 C376 0.961 . S
H363 C377 0.960 . S
H364 C377 0.961 . S
H365 C377 0.959 . S
H366 C380 0.929 . S
H367 C381 0.931 . S
H368 C383 0.930 . S
C369 H357 0.930 . S
C369 C370 1.399 . S
C369 C374 1.399 . S
C370 C369 1.399 . S
C370 C371 1.376 . S
C371 H358 0.930 . S
C371 C370 1.376 . S
C371 C372 1.388 . S
C372 H359 0.930 . S
C372 C371 1.388 . S
C372 C373 1.390 . S
C373 C372 1.390 . S
C373 C374 1.394 . S
C373 C379 1.465 . S
C374 C369 1.399 . S
C374 C373 1.394 . S
C374 C375 1.516 . S
C375 C374 1.516 . S
C375 C376 1.502 . S
C375 C377 1.561 . S
C375 C378 1.526 . S
C376 H360 0.959 . S
C376 H361 0.959 . S
C376 H362 0.961 . S
C376 C375 1.502 . S
C377 H363 0.960 . S
C377 H364 0.961 . S
C377 H365 0.959 . S
C377 C375 1.561 . S
C378 C375 1.526 . S
C378 C379 1.396 . S
C378 C383 1.390 . S
C379 C373 1.465 . S
C379 C378 1.396 . S
C379 C380 1.399 . S
C380 H366 0.929 . S
C380 C379 1.399 . S
C380 C381 1.385 . S
C381 H367 0.931 . S
C381 C380 1.385 . S
C381 C382 1.389 . S
C382 C381 1.389 . S
C382 C383 1.387 . S
C383 H368 0.930 . S
C383 C378 1.390 . S
C383 C382 1.387 . S
H384 C396 0.930 . S
H385 C398 0.930 . S
H386 C399 0.930 . S
H387 C403 0.959 . S
H388 C403 0.959 . S
H389 C403 0.961 . S
H390 C404 0.960 . S
H391 C404 0.961 . S
H392 C404 0.959 . S
H393 C407 0.929 . S
H394 C408 0.931 . S
H395 C410 0.930 . S
C396 H384 0.930 . S
C396 C397 1.399 . S
C396 C401 1.399 . S
C397 C396 1.399 . S
C397 C398 1.376 . S
C398 H385 0.930 . S
C398 C397 1.376 . S
C398 C399 1.388 . S
C399 H386 0.930 . S
C399 C398 1.388 . S
C399 C400 1.390 . S
C400 C399 1.390 . S
C400 C401 1.394 . S
C400 C406 1.465 . S
C401 C396 1.399 . S
C401 C400 1.394 . S
C401 C402 1.516 . S
C402 C401 1.516 . S
C402 C403 1.502 . S
C402 C404 1.561 . S
C402 C405 1.526 . S
C403 H387 0.959 . S
C403 H388 0.959 . S
C403 H389 0.961 . S
C403 C402 1.502 . S
C404 H390 0.960 . S
C404 H391 0.961 . S
C404 H392 0.959 . S
C404 C402 1.561 . S
C405 C402 1.526 . S
C405 C406 1.396 . S
C405 C410 1.390 . S
C406 C400 1.465 . S
C406 C405 1.396 . S
C406 C407 1.399 . S
C407 H393 0.929 . S
C407 C406 1.399 . S
C407 C408 1.385 . S
C408 H394 0.931 . S
C408 C407 1.385 . S
C408 C409 1.389 . S
C409 C408 1.389 . S
C409 C410 1.387 . S
C410 H395 0.930 . S
C410 C405 1.390 . S
C410 C409 1.387 . S
H411 C423 0.930 . S
H412 C425 0.930 . S
H413 C426 0.930 . S
H414 C430 0.959 . S
H415 C430 0.959 . S
H416 C430 0.961 . S
H417 C431 0.960 . S
H418 C431 0.961 . S
H419 C431 0.959 . S
H420 C434 0.929 . S
H421 C435 0.931 . S
H422 C437 0.930 . S
C423 H411 0.930 . S
C423 C424 1.399 . S
C423 C428 1.399 . S
C424 C423 1.399 . S
C424 C425 1.376 . S
C425 H412 0.930 . S
C425 C424 1.376 . S
C425 C426 1.388 . S
C426 H413 0.930 . S
C426 C425 1.388 . S
C426 C427 1.390 . S
C427 C426 1.390 . S
C427 C428 1.394 . S
C427 C433 1.465 . S
C428 C423 1.399 . S
C428 C427 1.394 . S
C428 C429 1.516 . S
C429 C428 1.516 . S
C429 C430 1.502 . S
C429 C431 1.561 . S
C429 C432 1.526 . S
C430 H414 0.959 . S
C430 H415 0.959 . S
C430 H416 0.961 . S
C430 C429 1.502 . S
C431 H417 0.960 . S
C431 H418 0.961 . S
C431 H419 0.959 . S
C431 C429 1.561 . S
C432 C429 1.526 . S
C432 C433 1.396 . S
C432 C437 1.390 . S
C433 C427 1.465 . S
C433 C432 1.396 . S
C433 C434 1.399 . S
C434 H420 0.929 . S
C434 C433 1.399 . S
C434 C435 1.385 1_554 S
C435 H421 0.931 . S
C435 C434 1.385 1_556 S
C435 C436 1.389 1_556 S
C436 C435 1.389 1_554 S
C436 C437 1.387 . S
C437 H422 0.930 . S
C437 C432 1.390 . S
C437 C436 1.387 . S
H438 C450 0.930 . S
H439 C452 0.930 . S
H440 C453 0.930 . S
H441 C457 0.959 . S
H442 C457 0.959 . S
H443 C457 0.961 . S
H444 C458 0.960 . S
H445 C458 0.961 . S
H446 C458 0.959 . S
H447 C461 0.929 . S
H448 C462 0.931 . S
H449 C464 0.930 . S
C450 H438 0.930 . S
C450 C451 1.399 . S
C450 C455 1.399 . S
C451 C450 1.399 . S
C451 C452 1.376 . S
C452 H439 0.930 . S
C452 C451 1.376 . S
C452 C453 1.388 . S
C453 H440 0.930 . S
C453 C452 1.388 . S
C453 C454 1.390 . S
C454 C453 1.390 . S
C454 C455 1.394 . S
C454 C460 1.465 . S
C455 C450 1.399 . S
C455 C454 1.394 . S
C455 C456 1.516 . S
C456 C455 1.516 . S
C456 C457 1.502 . S
C456 C458 1.561 . S
C456 C459 1.526 . S
C457 H441 0.959 . S
C457 H442 0.959 . S
C457 H443 0.961 . S
C457 C456 1.502 . S
C458 H444 0.960 . S
C458 H445 0.961 . S
C458 H446 0.959 . S
C458 C456 1.561 . S
C459 C456 1.526 . S
C459 C460 1.396 . S
C459 C464 1.390 . S
C460 C454 1.465 . S
C460 C459 1.396 . S
C460 C461 1.399 . S
C461 H447 0.929 . S
C461 C460 1.399 . S
C461 C462 1.385 . S
C462 H448 0.931 . S
C462 C461 1.385 . S
C462 C463 1.389 . S
C463 C462 1.389 . S
C463 C464 1.387 . S
C464 H449 0.930 . S
C464 C459 1.390 . S
C464 C463 1.387 . S
H465 C477 0.930 . S
H466 C479 0.930 . S
H467 C480 0.930 . S
H468 C484 0.959 . S
H469 C484 0.959 . S
H470 C484 0.961 . S
H471 C485 0.960 . S
H472 C485 0.961 . S
H473 C485 0.959 . S
H474 C488 0.929 . S
H475 C489 0.931 . S
H476 C491 0.930 . S
C477 H465 0.930 . S
C477 C478 1.399 . S
C477 C482 1.399 . S
C478 C477 1.399 . S
C478 C479 1.376 . S
C479 H466 0.930 . S
C479 C478 1.376 . S
C479 C480 1.388 . S
C480 H467 0.930 . S
C480 C479 1.388 . S
C480 C481 1.390 . S
C481 C480 1.390 . S
C481 C482 1.394 . S
C481 C487 1.465 . S
C482 C477 1.399 . S
C482 C481 1.394 . S
C482 C483 1.516 . S
C483 C482 1.516 . S
C483 C484 1.502 . S
C483 C485 1.561 . S
C483 C486 1.526 . S
C484 H468 0.959 . S
C484 H469 0.959 . S
C484 H470 0.961 . S
C484 C483 1.502 . S
C485 H471 0.960 . S
C485 H472 0.961 . S
C485 H473 0.959 . S
C485 C483 1.561 . S
C486 C483 1.526 . S
C486 C487 1.396 . S
C486 C491 1.390 . S
C487 C481 1.465 . S
C487 C486 1.396 . S
C487 C488 1.399 . S
C488 H474 0.929 . S
C488 C487 1.399 . S
C488 C489 1.385 . S
C489 H475 0.931 . S
C489 C488 1.385 . S
C489 C490 1.389 . S
C490 C489 1.389 . S
C490 C491 1.387 . S
C491 H476 0.930 . S
C491 C486 1.390 . S
C491 C490 1.387 . S
H492 C504 0.930 . S
H493 C506 0.930 . S
H494 C507 0.930 . S
H495 C511 0.959 . S
H496 C511 0.959 . S
H497 C511 0.961 . S
H498 C512 0.960 1_655 S
H499 C512 0.961 . S
H500 C512 0.959 . S
H501 C515 0.929 . S
H502 C516 0.931 . S
H503 C518 0.930 . S
C504 H492 0.930 . S
C504 C505 1.399 . S
C504 C509 1.399 . S
C505 C504 1.399 . S
C505 C506 1.376 . S
C506 H493 0.930 . S
C506 C505 1.376 . S
C506 C507 1.388 . S
C507 H494 0.930 . S
C507 C506 1.388 . S
C507 C508 1.390 . S
C508 C507 1.390 . S
C508 C509 1.394 . S
C508 C514 1.465 1_655 S
C509 C504 1.399 . S
C509 C508 1.394 . S
C509 C510 1.516 1_655 S
C510 C509 1.516 1_455 S
C510 C511 1.502 . S
C510 C512 1.561 . S
C510 C513 1.526 . S
C511 H495 0.959 . S
C511 H496 0.959 . S
C511 H497 0.961 . S
C511 C510 1.502 . S
C512 H498 0.960 1_455 S
C512 H499 0.961 . S
C512 H500 0.959 . S
C512 C510 1.561 . S
C513 C510 1.526 . S
C513 C514 1.396 . S
C513 C518 1.390 . S
C514 C508 1.465 1_455 S
C514 C513 1.396 . S
C514 C515 1.399 . S
C515 H501 0.929 . S
C515 C514 1.399 . S
C515 C516 1.385 . S
C516 H502 0.931 . S
C516 C515 1.385 . S
C516 C517 1.389 . S
C517 C516 1.389 . S
C517 C518 1.387 . S
C518 H503 0.930 . S
C518 C513 1.390 . S
C518 C517 1.387 . S
H519 C531 0.930 . S
H520 C533 0.930 . S
H521 C534 0.930 . S
H522 C538 0.959 . S
H523 C538 0.959 . S
H524 C538 0.961 1_565 S
H525 C539 0.960 . S
H526 C539 0.961 1_545 S
H527 C539 0.959 . S
H528 C542 0.929 . S
H529 C543 0.931 . S
H530 C545 0.930 . S
C531 H519 0.930 . S
C531 C532 1.399 . S
C531 C536 1.399 . S
C532 C531 1.399 . S
C532 C533 1.376 . S
C533 H520 0.930 . S
C533 C532 1.376 . S
C533 C534 1.388 . S
C534 H521 0.930 . S
C534 C533 1.388 . S
C534 C535 1.390 . S
C535 C534 1.390 . S
C535 C536 1.394 . S
C535 C541 1.465 1_565 S
C536 C531 1.399 . S
C536 C535 1.394 . S
C536 C537 1.516 . S
C537 C536 1.516 . S
C537 C538 1.502 1_565 S
C537 C539 1.561 . S
C537 C540 1.526 1_565 S
C538 H522 0.959 . S
C538 H523 0.959 . S
C538 H524 0.961 1_545 S
C538 C537 1.502 1_545 S
C539 H525 0.960 . S
C539 H526 0.961 1_565 S
C539 H527 0.959 . S
C539 C537 1.561 . S
C540 C537 1.526 1_545 S
C540 C541 1.396 . S
C540 C545 1.390 . S
C541 C535 1.465 1_545 S
C541 C540 1.396 . S
C541 C542 1.399 . S
C542 H528 0.929 . S
C542 C541 1.399 . S
C542 C543 1.385 . S
C543 H529 0.931 . S
C543 C542 1.385 . S
C543 C544 1.389 . S
C544 C543 1.389 . S
C544 C545 1.387 . S
C545 H530 0.930 . S
C545 C540 1.390 . S
C545 C544 1.387 . S
H546 C558 0.930 . S
H547 C560 0.930 . S
H548 C561 0.930 . S
H549 C565 0.959 . S
H550 C565 0.959 . S
H551 C565 0.961 . S
H552 C566 0.960 . S
H553 C566 0.961 . S
H554 C566 0.959 . S
H555 C569 0.929 . S
H556 C570 0.931 . S
H557 C572 0.930 . S
C558 H546 0.930 . S
C558 C559 1.399 . S
C558 C563 1.399 . S
C559 C558 1.399 . S
C559 C560 1.376 . S
C560 H547 0.930 . S
C560 C559 1.376 . S
C560 C561 1.388 . S
C561 H548 0.930 . S
C561 C560 1.388 . S
C561 C562 1.390 . S
C562 C561 1.390 . S
C562 C563 1.394 . S
C562 C568 1.465 . S
C563 C558 1.399 . S
C563 C562 1.394 . S
C563 C564 1.516 . S
C564 C563 1.516 . S
C564 C565 1.502 . S
C564 C566 1.561 . S
C564 C567 1.526 . S
C565 H549 0.959 . S
C565 H550 0.959 . S
C565 H551 0.961 . S
C565 C564 1.502 . S
C566 H552 0.960 . S
C566 H553 0.961 . S
C566 H554 0.959 . S
C566 C564 1.561 . S
C567 C564 1.526 . S
C567 C568 1.396 . S
C567 C572 1.390 . S
C568 C562 1.465 . S
C568 C567 1.396 . S
C568 C569 1.399 . S
C569 H555 0.929 . S
C569 C568 1.399 . S
C569 C570 1.385 . S
C570 H556 0.931 . S
C570 C569 1.385 . S
C570 C571 1.389 . S
C571 C570 1.389 . S
C571 C572 1.387 . S
C572 H557 0.930 . S
C572 C567 1.390 . S
C572 C571 1.387 . S
H573 C585 0.930 . S
H574 C587 0.930 . S
H575 C588 0.930 . S
H576 C592 0.959 . S
H577 C592 0.959 1_655 S
H578 C592 0.961 . S
H579 C593 0.960 . S
H580 C593 0.961 . S
H581 C593 0.959 . S
H582 C596 0.929 . S
H583 C597 0.931 . S
H584 C599 0.930 . S
C585 H573 0.930 . S
C585 C586 1.399 . S
C585 C590 1.399 . S
C586 C585 1.399 . S
C586 C587 1.376 . S
C587 H574 0.930 . S
C587 C586 1.376 . S
C587 C588 1.388 . S
C588 H575 0.930 . S
C588 C587 1.388 . S
C588 C589 1.390 . S
C589 C588 1.390 . S
C589 C590 1.394 . S
C589 C595 1.465 1_455 S
C590 C585 1.399 . S
C590 C589 1.394 . S
C590 C591 1.516 . S
C591 C590 1.516 . S
C591 C592 1.502 . S
C591 C593 1.561 . S
C591 C594 1.526 1_455 S
C592 H576 0.959 . S
C592 H577 0.959 1_455 S
C592 H578 0.961 . S
C592 C591 1.502 . S
C593 H579 0.960 . S
C593 H580 0.961 . S
C593 H581 0.959 . S
C593 C591 1.561 . S
C594 C591 1.526 1_655 S
C594 C595 1.396 . S
C594 C599 1.390 . S
C595 C589 1.465 1_655 S
C595 C594 1.396 . S
C595 C596 1.399 . S
C596 H582 0.929 . S
C596 C595 1.399 . S
C596 C597 1.385 . S
C597 H583 0.931 . S
C597 C596 1.385 . S
C597 C598 1.389 . S
C598 C597 1.389 . S
C598 C599 1.387 . S
C599 H584 0.930 . S
C599 C594 1.390 . S
C599 C598 1.387 . S
H600 C612 0.930 . S
H601 C614 0.930 . S
H602 C615 0.930 . S
H603 C619 0.959 . S
H604 C619 0.959 1_565 S
H605 C619 0.961 . S
H606 C620 0.960 1_545 S
H607 C620 0.961 . S
H608 C620 0.959 . S
H609 C623 0.929 1_556 S
H610 C624 0.931 . S
H611 C626 0.930 . S
C612 H600 0.930 . S
C612 C613 1.399 . S
C612 C617 1.399 . S
C613 C612 1.399 . S
C613 C614 1.376 . S
C614 H601 0.930 . S
C614 C613 1.376 . S
C614 C615 1.388 . S
C615 H602 0.930 . S
C615 C614 1.388 . S
C615 C616 1.390 . S
C616 C615 1.390 . S
C616 C617 1.394 . S
C616 C622 1.473 1_545 S
C617 C612 1.399 . S
C617 C616 1.394 . S
C617 C618 1.516 1_556 S
C618 C617 1.516 1_554 S
C618 C619 1.502 . S
C618 C620 1.561 1_544 S
C618 C621 1.526 1_545 S
C619 H603 0.959 . S
C619 H604 0.959 1_545 S
C619 H605 0.961 . S
C619 C618 1.502 . S
C620 H606 0.960 1_565 S
C620 H607 0.961 . S
C620 H608 0.959 . S
C620 C618 1.561 1_566 S
C621 C618 1.526 1_565 S
C621 C622 1.390 1_554 S
C621 C626 1.390 . S
C622 C616 1.473 1_565 S
C622 C621 1.390 1_556 S
C622 C623 1.398 1_556 S
C623 H609 0.929 1_554 S
C623 C622 1.398 1_554 S
C623 C624 1.385 . S
C624 H610 0.931 . S
C624 C623 1.385 . S
C624 C625 1.389 . S
C625 C624 1.389 . S
C625 C626 1.387 . S
C626 H611 0.930 . S
C626 C621 1.390 . S
C626 C625 1.387 . S
H627 C639 0.930 . S
H628 C641 0.930 . S
H629 C642 0.930 . S
H630 C646 0.959 . S
H631 C646 0.959 . S
H632 C646 0.961 . S
H633 C647 0.960 . S
H634 C647 0.961 . S
H635 C647 0.959 . S
H636 C650 0.929 . S
H637 C651 0.931 . S
H638 C653 0.930 . S
C639 H627 0.930 . S
C639 C640 1.399 . S
C639 C644 1.399 . S
C640 C639 1.399 . S
C640 C641 1.376 . S
C641 H628 0.930 . S
C641 C640 1.376 . S
C641 C642 1.388 . S
C642 H629 0.930 . S
C642 C641 1.388 . S
C642 C643 1.390 . S
C643 C642 1.390 . S
C643 C644 1.394 . S
C643 C649 1.465 . S
C644 C639 1.399 . S
C644 C643 1.394 . S
C644 C645 1.516 . S
C645 C644 1.516 . S
C645 C646 1.502 . S
C645 C647 1.561 . S
C645 C648 1.526 . S
C646 H630 0.959 . S
C646 H631 0.959 . S
C646 H632 0.961 . S
C646 C645 1.502 . S
C647 H633 0.960 . S
C647 H634 0.961 . S
C647 H635 0.959 . S
C647 C645 1.561 . S
C648 C645 1.526 . S
C648 C649 1.396 . S
C648 C653 1.390 . S
C649 C643 1.465 . S
C649 C648 1.396 . S
C649 C650 1.399 . S
C650 H636 0.929 . S
C650 C649 1.399 . S
C650 C651 1.385 . S
C651 H637 0.931 . S
C651 C650 1.385 . S
C651 C652 1.389 . S
C652 C651 1.389 . S
C652 C653 1.387 . S
C653 H638 0.930 . S
C653 C648 1.390 . S
C653 C652 1.387 . S
H654 C666 0.930 . S
H655 C668 0.930 . S
H656 C669 0.930 . S
H657 C673 0.959 . S
H658 C673 0.959 . S
H659 C673 0.961 . S
H660 C674 0.960 . S
H661 C674 0.961 . S
H662 C674 0.959 . S
H663 C677 0.929 . S
H664 C678 0.931 . S
H665 C680 0.930 . S
C666 H654 0.930 . S
C666 C667 1.399 . S
C666 C671 1.399 . S
C667 C666 1.399 . S
C667 C668 1.376 . S
C668 H655 0.930 . S
C668 C667 1.376 . S
C668 C669 1.388 . S
C669 H656 0.930 . S
C669 C668 1.388 . S
C669 C670 1.390 . S
C670 C669 1.390 . S
C670 C671 1.394 . S
C670 C676 1.465 . S
C671 C666 1.399 . S
C671 C670 1.394 . S
C671 C672 1.516 . S
C672 C671 1.516 . S
C672 C673 1.502 . S
C672 C674 1.561 . S
C672 C675 1.526 . S
C673 H657 0.959 . S
C673 H658 0.959 . S
C673 H659 0.961 . S
C673 C672 1.502 . S
C674 H660 0.960 . S
C674 H661 0.961 . S
C674 H662 0.959 . S
C674 C672 1.561 . S
C675 C672 1.526 . S
C675 C676 1.396 . S
C675 C680 1.390 . S
C676 C670 1.465 . S
C676 C675 1.396 . S
C676 C677 1.399 . S
C677 H663 0.929 . S
C677 C676 1.399 . S
C677 C678 1.385 . S
C678 H664 0.931 . S
C678 C677 1.385 . S
C678 C679 1.389 . S
C679 C678 1.389 . S
C679 C680 1.387 . S
C680 H665 0.930 . S
C680 C675 1.390 . S
C680 C679 1.387 . S
H681 C693 0.930 . S
H682 C695 0.930 . S
H683 C696 0.930 . S
H684 C700 0.959 . S
H685 C700 0.959 . S
H686 C700 0.961 . S
H687 C701 0.960 . S
H688 C701 0.961 . S
H689 C701 0.959 . S
H690 C704 0.929 . S
H691 C705 0.931 . S
H692 C707 0.930 . S
C693 H681 0.930 . S
C693 C694 1.399 . S
C693 C698 1.399 . S
C694 C693 1.399 . S
C694 C695 1.376 . S
C695 H682 0.930 . S
C695 C694 1.376 . S
C695 C696 1.388 . S
C696 H683 0.930 . S
C696 C695 1.388 . S
C696 C697 1.390 . S
C697 C696 1.390 . S
C697 C698 1.394 . S
C697 C703 1.465 . S
C698 C693 1.399 . S
C698 C697 1.394 . S
C698 C699 1.516 . S
C699 C698 1.516 . S
C699 C700 1.502 . S
C699 C701 1.561 . S
C699 C702 1.526 . S
C700 H684 0.959 . S
C700 H685 0.959 . S
C700 H686 0.961 . S
C700 C699 1.502 . S
C701 H687 0.960 . S
C701 H688 0.961 . S
C701 H689 0.959 . S
C701 C699 1.561 . S
C702 C699 1.526 . S
C702 C703 1.396 . S
C702 C707 1.390 . S
C703 C697 1.465 . S
C703 C702 1.396 . S
C703 C704 1.399 . S
C704 H690 0.929 . S
C704 C703 1.399 . S
C704 C705 1.385 . S
C705 H691 0.931 . S
C705 C704 1.385 . S
C705 C706 1.389 . S
C706 C705 1.389 . S
C706 C707 1.387 . S
C707 H692 0.930 . S
C707 C702 1.390 . S
C707 C706 1.387 . S
H708 C720 0.930 . S
H709 C722 0.930 . S
H710 C723 0.930 . S
H711 C727 0.959 . S
H712 C727 0.959 . S
H713 C727 0.961 . S
H714 C728 0.960 . S
H715 C728 0.961 . S
H716 C728 0.959 . S
H717 C731 0.929 . S
H718 C732 0.931 . S
H719 C734 0.930 . S
C720 H708 0.930 . S
C720 C721 1.399 . S
C720 C725 1.399 . S
C721 C720 1.399 . S
C721 C722 1.376 . S
C722 H709 0.930 . S
C722 C721 1.376 . S
C722 C723 1.388 . S
C723 H710 0.930 . S
C723 C722 1.388 . S
C723 C724 1.390 . S
C724 C723 1.390 . S
C724 C725 1.394 . S
C724 C730 1.465 . S
C725 C720 1.399 . S
C725 C724 1.394 . S
C725 C726 1.516 . S
C726 C725 1.516 . S
C726 C727 1.502 . S
C726 C728 1.561 . S
C726 C729 1.526 . S
C727 H711 0.959 . S
C727 H712 0.959 . S
C727 H713 0.961 . S
C727 C726 1.502 . S
C728 H714 0.960 . S
C728 H715 0.961 . S
C728 H716 0.959 . S
C728 C726 1.561 . S
C729 C726 1.526 . S
C729 C730 1.396 . S
C729 C734 1.390 . S
C730 C724 1.465 . S
C730 C729 1.396 . S
C730 C731 1.399 . S
C731 H717 0.929 . S
C731 C730 1.399 . S
C731 C732 1.385 . S
C732 H718 0.931 . S
C732 C731 1.385 . S
C732 C733 1.389 . S
C733 C732 1.389 . S
C733 C734 1.387 . S
C734 H719 0.930 . S
C734 C729 1.390 . S
C734 C733 1.387 . S
H735 C747 0.930 . S
H736 C749 0.930 . S
H737 C750 0.930 . S
H738 C754 0.959 . S
H739 C754 0.959 . S
H740 C754 0.961 . S
H741 C755 0.960 . S
H742 C755 0.961 . S
H743 C755 0.959 . S
H744 C758 0.929 . S
H745 C759 0.931 . S
H746 C761 0.930 . S
C747 H735 0.930 . S
C747 C748 1.399 . S
C747 C752 1.399 . S
C748 C747 1.399 . S
C748 C749 1.376 . S
C749 H736 0.930 . S
C749 C748 1.376 . S
C749 C750 1.388 . S
C750 H737 0.930 . S
C750 C749 1.388 . S
C750 C751 1.390 . S
C751 C750 1.390 . S
C751 C752 1.394 . S
C751 C757 1.465 . S
C752 C747 1.399 . S
C752 C751 1.394 . S
C752 C753 1.516 . S
C753 C752 1.516 . S
C753 C754 1.502 . S
C753 C755 1.561 . S
C753 C756 1.526 . S
C754 H738 0.959 . S
C754 H739 0.959 . S
C754 H740 0.961 . S
C754 C753 1.502 . S
C755 H741 0.960 . S
C755 H742 0.961 . S
C755 H743 0.959 . S
C755 C753 1.561 . S
C756 C753 1.526 . S
C756 C757 1.396 . S
C756 C761 1.390 . S
C757 C751 1.465 . S
C757 C756 1.396 . S
C757 C758 1.399 . S
C758 H744 0.929 . S
C758 C757 1.399 . S
C758 C759 1.385 . S
C759 H745 0.931 . S
C759 C758 1.385 . S
C759 C760 1.389 . S
C760 C759 1.389 . S
C760 C761 1.387 . S
C761 H746 0.930 . S
C761 C756 1.390 . S
C761 C760 1.387 . S
H762 C774 0.930 . S
H763 C776 0.930 . S
H764 C777 0.930 . S
H765 C781 0.959 . S
H766 C781 0.959 . S
H767 C781 0.961 . S
H768 C782 0.960 . S
H769 C782 0.961 . S
H770 C782 0.959 . S
H771 C785 0.929 . S
H772 C786 0.931 . S
H773 C788 0.930 . S
C774 H762 0.930 . S
C774 C775 1.399 . S
C774 C779 1.399 . S
C775 C774 1.399 . S
C775 C776 1.376 . S
C776 H763 0.930 . S
C776 C775 1.376 . S
C776 C777 1.388 . S
C777 H764 0.930 . S
C777 C776 1.388 . S
C777 C778 1.390 . S
C778 C777 1.390 . S
C778 C779 1.394 . S
C778 C784 1.465 . S
C779 C774 1.399 . S
C779 C778 1.394 . S
C779 C780 1.516 . S
C780 C779 1.516 . S
C780 C781 1.502 . S
C780 C782 1.561 . S
C780 C783 1.526 . S
C781 H765 0.959 . S
C781 H766 0.959 . S
C781 H767 0.961 . S
C781 C780 1.502 . S
C782 H768 0.960 . S
C782 H769 0.961 . S
C782 H770 0.959 . S
C782 C780 1.561 . S
C783 C780 1.526 . S
C783 C784 1.396 . S
C783 C788 1.390 . S
C784 C778 1.465 . S
C784 C783 1.396 . S
C784 C785 1.399 . S
C785 H771 0.929 . S
C785 C784 1.399 . S
C785 C786 1.385 . S
C786 H772 0.931 . S
C786 C785 1.385 . S
C786 C787 1.389 . S
C787 C786 1.389 . S
C787 C788 1.387 . S
C788 H773 0.930 . S
C788 C783 1.390 . S
C788 C787 1.387 . S
H789 C801 0.930 . S
H790 C803 0.930 . S
H791 C804 0.930 . S
H792 C808 0.959 . S
H793 C808 0.959 . S
H794 C808 0.961 . S
H795 C809 0.960 . S
H796 C809 0.961 . S
H797 C809 0.959 . S
H798 C812 0.929 . S
H799 C813 0.931 . S
H800 C815 0.930 . S
C801 H789 0.930 . S
C801 C802 1.399 . S
C801 C806 1.399 . S
C802 C801 1.399 . S
C802 C803 1.376 . S
C803 H790 0.930 . S
C803 C802 1.376 . S
C803 C804 1.388 . S
C804 H791 0.930 . S
C804 C803 1.388 . S
C804 C805 1.390 . S
C805 C804 1.390 . S
C805 C806 1.394 . S
C805 C811 1.465 . S
C806 C801 1.399 . S
C806 C805 1.394 . S
C806 C807 1.516 . S
C807 C806 1.516 . S
C807 C808 1.502 . S
C807 C809 1.561 . S
C807 C810 1.526 . S
C808 H792 0.959 . S
C808 H793 0.959 . S
C808 H794 0.961 . S
C808 C807 1.502 . S
C809 H795 0.960 . S
C809 H796 0.961 . S
C809 H797 0.959 . S
C809 C807 1.561 . S
C810 C807 1.526 . S
C810 C811 1.396 . S
C810 C815 1.390 . S
C811 C805 1.465 . S
C811 C810 1.396 . S
C811 C812 1.399 . S
C812 H798 0.929 . S
C812 C811 1.399 . S
C812 C813 1.385 1_554 S
C813 H799 0.931 . S
C813 C812 1.385 1_556 S
C813 C814 1.389 1_556 S
C814 C813 1.389 1_554 S
C814 C815 1.387 . S
C815 H800 0.930 . S
C815 C810 1.390 . S
C815 C814 1.387 . S
C181 C5 0.741 . S
C193 C89 0.728 . S
C208 C19 0.772 . S
C220 C103 0.736 . S
C235 C117 0.727 . S
C247 C33 0.754 . S
C262 C47 0.760 . S
C274 C131 0.799 . S
C289 C61 0.785 . S
C301 C145 0.811 . S
C316 C159 0.727 . S
C328 C75 0.750 . S
C343 C121 1.421 . S
C355 C9 1.483 . S
C370 C23 1.396 . S
C382 C135 1.497 . S
C397 C149 1.459 1_556 S
C409 C37 1.422 . S
C424 C163 1.475 . S
C436 C51 1.409 1_554 S
C451 C65 1.484 . S
C463 C93 1.421 . S
C478 C79 1.494 . S
C490 C107 1.396 . S
C505 C165 1.341 . S
C517 C11 1.339 . S
C532 C95 1.343 . S
C544 C25 1.343 . S
C559 C39 1.341 . S
C571 C109 1.343 . S
C586 C123 1.341 . S
C598 C53 1.343 . S
C613 C137 1.335 . S
C625 C67 1.337 . S
C640 C151 1.343 . S
C652 C81 1.343 . S
C667 C0 1.483 . S
C679 C140 1.480 . S
C694 C154 1.513 . S
C706 C14 1.520 . S
C721 C28 1.512 . S
C733 C84 1.519 . S
C748 C42 1.531 . S
C760 C98 1.535 . S
C775 C56 1.538 1_556 S
C787 C112 1.539 . S
C802 C70 1.523 . S
C814 C126 1.517 1_554 S
