# Generated by pormake.
# Topology ofo, (3)-cn, num edge types: 1
# Building blocks:
#     Node 0, Type 0, BuildingBlock: OLANEW_clean_sbu_2, # of connection points: 3
#     Node 1, Type 0, BuildingBlock: OLANEW_clean_sbu_2, # of connection points: 3
#     Node 2, Type 0, BuildingBlock: OLANEW_clean_sbu_2, # of connection points: 3
#     Node 3, Type 0, BuildingBlock: OLANEW_clean_sbu_2, # of connection points: 3
#     Node 4, Type 0, BuildingBlock: OLANEW_clean_sbu_2, # of connection points: 3
#     Node 5, Type 0, BuildingBlock: OLANEW_clean_sbu_2, # of connection points: 3
#     Node 6, Type 0, BuildingBlock: OLANEW_clean_sbu_2, # of connection points: 3
#     Node 7, Type 0, BuildingBlock: OLANEW_clean_sbu_2, # of connection points: 3
#     Node 8, Type 0, BuildingBlock: OLANEW_clean_sbu_2, # of connection points: 3
#     Node 9, Type 0, BuildingBlock: OLANEW_clean_sbu_2, # of connection points: 3
#     Node 10, Type 0, BuildingBlock: OLANEW_clean_sbu_2, # of connection points: 3
#     Node 11, Type 0, BuildingBlock: OLANEW_clean_sbu_2, # of connection points: 3
#     Edge 12, Type (0, 0), BuildingBlock: FUNLAD_clean_linker_1, # of connection points: 2
#     Edge 13, Type (0, 0), BuildingBlock: FUNLAD_clean_linker_1, # of connection points: 2
#     Edge 14, Type (0, 0), BuildingBlock: FUNLAD_clean_linker_1, # of connection points: 2
#     Edge 15, Type (0, 0), BuildingBlock: FUNLAD_clean_linker_1, # of connection points: 2
#     Edge 16, Type (0, 0), BuildingBlock: FUNLAD_clean_linker_1, # of connection points: 2
#     Edge 17, Type (0, 0), BuildingBlock: FUNLAD_clean_linker_1, # of connection points: 2
#     Edge 18, Type (0, 0), BuildingBlock: FUNLAD_clean_linker_1, # of connection points: 2
#     Edge 19, Type (0, 0), BuildingBlock: FUNLAD_clean_linker_1, # of connection points: 2
#     Edge 20, Type (0, 0), BuildingBlock: FUNLAD_clean_linker_1, # of connection points: 2
#     Edge 21, Type (0, 0), BuildingBlock: FUNLAD_clean_linker_1, # of connection points: 2
#     Edge 22, Type (0, 0), BuildingBlock: FUNLAD_clean_linker_1, # of connection points: 2
#     Edge 23, Type (0, 0), BuildingBlock: FUNLAD_clean_linker_1, # of connection points: 2
#     Edge 24, Type (0, 0), BuildingBlock: FUNLAD_clean_linker_1, # of connection points: 2
#     Edge 25, Type (0, 0), BuildingBlock: FUNLAD_clean_linker_1, # of connection points: 2
#     Edge 26, Type (0, 0), BuildingBlock: FUNLAD_clean_linker_1, # of connection points: 2
#     Edge 27, Type (0, 0), BuildingBlock: FUNLAD_clean_linker_1, # of connection points: 2
#     Edge 28, Type (0, 0), BuildingBlock: FUNLAD_clean_linker_1, # of connection points: 2
#     Edge 29, Type (0, 0), BuildingBlock: FUNLAD_clean_linker_1, # of connection points: 2
# Relax obj value: 0.000
# Max RMSD: 0.046
# Mean RMSD: 0.046
data_MOF--net-ofo--node1-OLANEW_clean_sbu_2--edge1-FUNLAD_clean_linker_1
_symmetry_space_group_name_H-M    P1
_symmetry_Int_Tables_number       1
_symmetry_cell_setting            triclinic
loop_
_symmetry_equiv_pos_as_xyz
'x, y, z'
_cell_length_a     24.324853
_cell_length_b     24.236159
_cell_length_c     83.973334
_cell_angle_alpha  89.601346
_cell_angle_beta   90.523557
_cell_angle_gamma 119.6159
loop_
_atom_site_label
_atom_site_type_symbol
_atom_site_fract_x
_atom_site_fract_y
_atom_site_fract_z
_atom_type_partial_charge
O0 O 0.41044 0.16992 0.03699 0.0
Cd1 Cd 0.37767 0.24945 0.04145 0.0
O2 O 0.40313 0.14283 0.06233 0.0
Cd3 Cd 0.39034 0.2197 0.07177 0.0
O4 O 0.42146 0.2904 0.09085 0.0
C5 C 0.47456 0.30334 0.09694 0.0
O6 O 0.50511 0.27613 0.0911 0.0
C7 C 0.4134 0.13492 0.04793 0.0
C8 C 0.28832 0.24411 0.01935 0.0
O9 O 0.34757 0.27485 0.01632 0.0
O10 O 0.2708 0.21504 0.03274 0.0
O11 O 0.29632 0.3894 0.73326 0.0
Cd12 Cd 0.18839 0.3389 0.7437 0.0
O13 O 0.33928 0.44872 0.75452 0.0
Cd14 Cd 0.25 0.42213 0.76673 0.0
O15 O 0.18567 0.42546 0.78444 0.0
C16 C 0.20851 0.44055 0.79843 0.0
O17 O 0.26595 0.45067 0.80122 0.0
C18 C 0.34504 0.42962 0.74088 0.0
C19 C 0.09903 0.25181 0.72244 0.0
O20 O 0.10953 0.30906 0.72309 0.0
O21 O 0.13085 0.23573 0.7317 0.0
O22 O 0.7313 0.2317 0.38243 0.0
Cd23 Cd 0.6541 0.12037 0.38786 0.0
O24 O 0.79133 0.23879 0.40298 0.0
Cd25 Cd 0.71624 0.15298 0.41423 0.0
O26 O 0.64194 0.11144 0.43231 0.0
C27 C 0.58859 0.06141 0.43062 0.0
O28 O 0.57556 0.02883 0.41736 0.0
C29 C 0.78212 0.26273 0.39039 0.0
C30 C 0.68978 0.03556 0.37573 0.0
O31 O 0.65895 0.05504 0.36712 0.0
O32 O 0.70422 0.05635 0.39001 0.0
O33 O 0.51617 0.73047 0.04534 0.0
Cd34 Cd 0.55275 0.65324 0.049 0.0
O35 O 0.58907 0.80119 0.06122 0.0
Cd36 Cd 0.60468 0.72795 0.07237 0.0
O37 O 0.56675 0.65464 0.09101 0.0
C38 C 0.50997 0.63827 0.09453 0.0
O39 O 0.48135 0.66398 0.08667 0.0
C40 C 0.54431 0.78598 0.05121 0.0
C41 C 0.65918 0.6796 0.0309 0.0
O42 O 0.60326 0.64714 0.02508 0.0
O43 O 0.66507 0.70028 0.04516 0.0
O44 O 0.82788 0.62286 0.69779 0.0
Cd45 Cd 0.92622 0.64093 0.68518 0.0
O46 O 0.87123 0.62266 0.72073 0.0
Cd47 Cd 0.87566 0.60888 0.74644 0.0
O48 O 0.9034 0.59413 0.77036 0.0
C49 C 0.88113 0.53801 0.77571 0.0
O50 O 0.84072 0.49007 0.76695 0.0
C51 C 0.82337 0.61568 0.71283 0.0
C52 C 0.00396 0.75825 0.67078 0.0
O53 O 0.95947 0.71273 0.66288 0.0
O54 O 0.01023 0.74925 0.68558 0.0
O55 O 0.18471 0.7635 0.37209 0.0
Cd56 Cd 0.26491 0.87572 0.37488 0.0
O57 O 0.14201 0.75886 0.39544 0.0
Cd58 Cd 0.22222 0.84619 0.40461 0.0
O59 O 0.29251 0.87524 0.42388 0.0
C60 C 0.30588 0.83249 0.42787 0.0
O61 O 0.27993 0.77893 0.41992 0.0
C62 C 0.14135 0.73331 0.3822 0.0
C63 C 0.23812 0.95749 0.35692 0.0
O64 O 0.26725 0.931 0.35076 0.0
O65 O 0.22113 0.94512 0.3715 0.0
O66 O 0.77365 0.56216 0.28423 0.0
Cd67 Cd 0.68737 0.57012 0.29694 0.0
O68 O 0.73164 0.56325 0.26117 0.0
Cd69 Cd 0.71756 0.55704 0.23527 0.0
O70 O 0.67943 0.55452 0.2113 0.0
C71 C 0.643 0.50143 0.2048 0.0
O72 O 0.63007 0.44885 0.21241 0.0
C73 C 0.77364 0.55818 0.26913 0.0
C74 C 0.71231 0.68769 0.30877 0.0
O75 O 0.72007 0.6486 0.31757 0.0
O76 O 0.69514 0.67236 0.29426 0.0
O77 O 0.19013 0.75863 0.93651 0.0
Cd78 Cd 0.07833 0.68008 0.93214 0.0
O79 O 0.19576 0.8156 0.9154 0.0
Cd80 Cd 0.10438 0.74285 0.90586 0.0
O81 O 0.05311 0.6663 0.8886 0.0
C82 C 0.08702 0.6456 0.88251 0.0
O83 O 0.14609 0.66992 0.88729 0.0
C84 C 0.22121 0.80746 0.92784 0.0
C85 C -0.00725 0.69825 0.95032 0.0
O86 O 0.01813 0.66658 0.95584 0.0
O87 O 0.00847 0.7223 0.93635 0.0
O88 O 0.43791 0.31158 0.58273 0.0
Cd89 Cd 0.42396 0.20561 0.57815 0.0
O90 O 0.36659 0.30066 0.5648 0.0
Cd91 Cd 0.37033 0.221 0.55362 0.0
O92 O 0.41197 0.18135 0.53734 0.0
C93 C 0.38083 0.13169 0.52899 0.0
O94 O 0.31897 0.09883 0.53022 0.0
C95 C 0.40471 0.33233 0.57595 0.0
C96 C 0.31783 0.11025 0.5937 0.0
O97 O 0.37148 0.13978 0.60084 0.0
O98 O 0.31408 0.1257 0.57928 0.0
O99 O 0.11798 0.3768 0.25797 0.0
Cd100 Cd 0.19808 0.34623 0.25232 0.0
O101 O 0.13034 0.42749 0.2352 0.0
Cd102 Cd 0.20445 0.41054 0.22561 0.0
O103 O 0.27748 0.41436 0.20967 0.0
C104 C 0.28491 0.44441 0.19669 0.0
O105 O 0.24927 0.47015 0.1938 0.0
C106 C 0.10313 0.40892 0.24861 0.0
C107 C 0.19249 0.25131 0.27256 0.0
O108 O 0.22536 0.31006 0.27634 0.0
O109 O 0.16179 0.23727 0.25936 0.0
O110 O 0.73419 0.19223 0.93643 0.0
Cd111 Cd 0.84715 0.26584 0.93217 0.0
O112 O 0.72396 0.13747 0.9147 0.0
Cd113 Cd 0.81425 0.20949 0.90465 0.0
O114 O 0.85813 0.28157 0.88589 0.0
C115 C 0.82005 0.29716 0.87957 0.0
O116 O 0.76198 0.27113 0.88494 0.0
C117 C 0.70079 0.14505 0.92748 0.0
C118 C 0.92641 0.25559 0.95494 0.0
O119 O 0.90155 0.29062 0.95736 0.0
O120 O 0.91337 0.22453 0.94185 0.0
O121 O 0.5847 0.8224 0.61723 0.0
Cd122 Cd 0.62186 0.93385 0.6238 0.0
O123 O 0.59314 0.85538 0.59259 0.0
Cd124 Cd 0.58209 0.84684 0.56667 0.0
O125 O 0.56851 0.8697 0.54216 0.0
C126 C 0.51379 0.84263 0.53584 0.0
O127 O 0.46576 0.79894 0.54391 0.0
C128 C 0.57889 0.81023 0.60241 0.0
C129 C 0.71425 0.98784 0.64756 0.0
O130 O 0.65548 0.96362 0.65086 0.0
O131 O 0.72949 0.98518 0.63313 0.0
H132 H 0.54322 0.34729 0.11637 0.0
C133 C 0.5004 0.3436 0.11118 0.0
H134 H 0.42851 0.36734 0.11366 0.0
H135 H 0.46615 0.38775 0.18879 0.0
H136 H 0.35381 0.31374 0.18573 0.0
H137 H 0.30576 0.28028 0.15905 0.0
H138 H 0.36948 0.3205 0.1353 0.0
C139 C 0.47231 0.37232 0.11844 0.0
C140 C 0.49686 0.404 0.13416 0.0
C141 C 0.45874 0.3801 0.14789 0.0
C142 C 0.48669 0.39854 0.16328 0.0
C143 C 0.44757 0.37405 0.17683 0.0
C144 C 0.38303 0.3318 0.17524 0.0
C145 C 0.35597 0.31299 0.16022 0.0
C146 C 0.39319 0.3364 0.14667 0.0
H147 H 0.62244 0.54343 0.18368 0.0
C148 C 0.61531 0.49932 0.18892 0.0
H149 H 0.57462 0.40051 0.18631 0.0
H150 H 0.57617 0.47565 0.11046 0.0
H151 H 0.68778 0.5536 0.11324 0.0
H152 H 0.73984 0.57708 0.13962 0.0
H153 H 0.68084 0.52476 0.16329 0.0
C154 C 0.58301 0.44472 0.18081 0.0
C155 C 0.55282 0.43975 0.16492 0.0
C156 C 0.58959 0.46893 0.15115 0.0
C157 C 0.56073 0.45256 0.1358 0.0
C158 C 0.59696 0.48452 0.12227 0.0
C159 C 0.66073 0.52953 0.12372 0.0
C160 C 0.68994 0.54294 0.13858 0.0
C161 C 0.65519 0.51279 0.15215 0.0
H162 H 0.20027 0.46997 0.82249 0.0
C163 C 0.17462 0.452 0.81134 0.0
H164 H 0.09067 0.42865 0.79861 0.0
H165 H 0.07093 0.47441 0.87756 0.0
H166 H 0.07314 0.37586 0.88159 0.0
H167 H 0.08167 0.31721 0.85869 0.0
H168 H 0.08828 0.35685 0.83164 0.0
C169 C 0.11631 0.44481 0.80981 0.0
C170 C 0.09015 0.46639 0.82289 0.0
C171 C 0.08501 0.44194 0.83852 0.0
C172 C 0.07949 0.47532 0.85167 0.0
C173 C 0.07585 0.45086 0.8672 0.0
C174 C 0.07667 0.39433 0.86964 0.0
C175 C 0.08152 0.36133 0.85674 0.0
C176 C 0.08583 0.38475 0.84133 0.0
H177 H 0.01332 0.57897 0.86573 0.0
C178 C 0.06186 0.5976 0.86968 0.0
H179 H 0.14725 0.59657 0.86685 0.0
H180 H 0.07833 0.51405 0.79422 0.0
H181 H 0.06328 0.6049 0.79013 0.0
H182 H 0.05487 0.66363 0.81298 0.0
H183 H 0.06155 0.63198 0.84004 0.0
C184 C 0.09922 0.57905 0.86253 0.0
C185 C 0.07882 0.53275 0.84919 0.0
C186 C 0.07326 0.55124 0.83346 0.0
C187 C 0.0785 0.51755 0.82025 0.0
C188 C 0.07505 0.5381 0.80465 0.0
C189 C 0.06636 0.59014 0.80214 0.0
C190 C 0.06158 0.62319 0.81502 0.0
C191 C 0.06544 0.60447 0.83052 0.0
H192 H 0.49384 0.00067 0.44098 0.0
C193 C 0.53955 0.0425 0.44299 0.0
H194 H 0.59511 0.11901 0.45831 0.0
H195 H 0.31855 0.06707 0.48326 0.0
H196 H 0.29559 0.08304 0.45604 0.0
H197 H 0.36669 0.09202 0.43422 0.0
H198 H 0.46053 0.0844 0.43943 0.0
C199 C 0.54898 0.07788 0.45607 0.0
C200 C 0.49968 0.06217 0.46842 0.0
C201 C 0.44517 0.0676 0.46511 0.0
C202 C 0.40489 0.064 0.47776 0.0
C203 C 0.35095 0.06976 0.47416 0.0
C204 C 0.33718 0.079 0.45857 0.0
C205 C 0.37715 0.08395 0.44629 0.0
C206 C 0.43084 0.079 0.44946 0.0
H207 H 0.46531 0.1469 0.51592 0.0
C208 C 0.41465 0.11529 0.51707 0.0
H209 H 0.33434 0.03497 0.5078 0.0
H210 H 0.59355 0.03898 0.47842 0.0
H211 H 0.61343 0.01788 0.50554 0.0
H212 H 0.54347 0.01158 0.52741 0.0
H213 H 0.45384 0.0275 0.52232 0.0
C214 C 0.3852 0.06575 0.5071 0.0
C215 C 0.42027 0.0571 0.49372 0.0
C216 C 0.47153 0.04626 0.49682 0.0
C217 C 0.5113 0.04897 0.48418 0.0
C218 C 0.56243 0.03841 0.48763 0.0
C219 C 0.57409 0.02581 0.50312 0.0
C220 C 0.53479 0.02241 0.51544 0.0
C221 C 0.48388 0.03219 0.51239 0.0
H222 H 0.36225 0.42952 0.1878 0.0
C223 C 0.33304 0.4507 0.18505 0.0
H224 H 0.31046 0.50189 0.16839 0.0
H225 H 0.58978 0.61276 0.13904 0.0
H226 H 0.63263 0.65267 0.16532 0.0
H227 H 0.56353 0.61872 0.18887 0.0
H228 H 0.45139 0.54415 0.18632 0.0
C229 C 0.34119 0.48252 0.1713 0.0
C230 C 0.38691 0.48882 0.15876 0.0
C231 C 0.45258 0.53179 0.16057 0.0
C232 C 0.49236 0.55222 0.14693 0.0
C233 C 0.55741 0.59627 0.14894 0.0
C234 C 0.58261 0.61946 0.16397 0.0
C235 C 0.5437 0.60026 0.17724 0.0
C236 C 0.47936 0.55724 0.17562 0.0
H237 H 0.43019 0.58855 0.11074 0.0
C238 C 0.47664 0.5952 0.10792 0.0
H239 H 0.54807 0.57431 0.11478 0.0
H240 H 0.26763 0.39348 0.15206 0.0
H241 H 0.22762 0.34485 0.12618 0.0
H242 H 0.29701 0.37966 0.10265 0.0
H243 H 0.40671 0.46364 0.10484 0.0
C244 C 0.50102 0.56675 0.1171 0.0
C245 C 0.46593 0.53068 0.13158 0.0
C246 C 0.40264 0.48063 0.13021 0.0
C247 C 0.36298 0.46011 0.14379 0.0
C248 C 0.29947 0.41118 0.14202 0.0
C249 C 0.27613 0.38268 0.12729 0.0
C250 C 0.31518 0.40232 0.11404 0.0
C251 C 0.37773 0.45082 0.11541 0.0
H252 H 0.93833 0.56765 0.79785 0.0
C253 C 0.90128 0.52725 0.79155 0.0
H254 H 0.83828 0.42886 0.79173 0.0
H255 H 0.93744 0.31294 0.84081 0.0
H256 H 0.96117 0.27736 0.81623 0.0
H257 H 0.95715 0.32471 0.79045 0.0
H258 H 0.92793 0.40705 0.78909 0.0
C259 C 0.87418 0.46934 0.7983 0.0
C260 C 0.89411 0.45561 0.81402 0.0
C261 C 0.91398 0.40956 0.81473 0.0
C262 C 0.91841 0.38377 0.82965 0.0
C263 C 0.93428 0.3349 0.82985 0.0
C264 C 0.94808 0.31403 0.81582 0.0
C265 C 0.94575 0.34064 0.80131 0.0
C266 C 0.92867 0.38765 0.80069 0.0
H267 H 0.80017 0.34715 0.86053 0.0
C268 C 0.83747 0.34032 0.86575 0.0
H269 H 0.93237 0.36133 0.86371 0.0
H270 H 0.85815 0.54647 0.81753 0.0
H271 H 0.84978 0.59207 0.84224 0.0
H272 H 0.86986 0.5555 0.86801 0.0
H273 H 0.89691 0.47149 0.86908 0.0
C274 C 0.89496 0.36902 0.859 0.0
C275 C 0.90517 0.40574 0.84389 0.0
C276 C 0.89395 0.45784 0.84332 0.0
C277 C 0.88615 0.48146 0.82839 0.0
C278 C 0.86825 0.5289 0.82836 0.0
C279 C 0.86265 0.55523 0.84253 0.0
C280 C 0.87362 0.53443 0.85704 0.0
C281 C 0.88866 0.486 0.8575 0.0
H282 H 0.54449 0.90303 0.51434 0.0
C283 C 0.5044 0.86309 0.51993 0.0
H284 H 0.40773 0.79544 0.51822 0.0
H285 H 0.3012 0.91265 0.47034 0.0
H286 H 0.25156 0.91611 0.49487 0.0
H287 H 0.28748 0.89621 0.52074 0.0
H288 H 0.37227 0.87107 0.52216 0.0
C289 C 0.4481 0.83447 0.5124 0.0
C290 C 0.43597 0.85818 0.49703 0.0
C291 C 0.38802 0.87538 0.49642 0.0
C292 C 0.36866 0.88892 0.48155 0.0
C293 C 0.31841 0.90267 0.48129 0.0
C294 C 0.2894 0.90482 0.4953 0.0
C295 C 0.30958 0.89356 0.50986 0.0
C296 C 0.35816 0.8789 0.51049 0.0
H297 H 0.34816 0.797 0.44547 0.0
C298 C 0.34423 0.83836 0.44213 0.0
H299 H 0.36519 0.93061 0.44876 0.0
H300 H 0.52913 0.82602 0.49342 0.0
H301 H 0.58548 0.83324 0.46925 0.0
H302 H 0.5588 0.86739 0.444 0.0
H303 H 0.4741 0.89277 0.44279 0.0
C304 C 0.37032 0.8896 0.45162 0.0
C305 C 0.39833 0.88682 0.46731 0.0
C306 C 0.45022 0.87551 0.46806 0.0
C307 C 0.4679 0.85925 0.48284 0.0
C308 C 0.51596 0.84236 0.48284 0.0
C309 C 0.54839 0.84562 0.46896 0.0
C310 C 0.53321 0.86458 0.45474 0.0
C311 C 0.48443 0.8789 0.4542 0.0
H312 H 0.45892 0.09465 0.03287 0.0
C313 C 0.4348 0.08911 0.0441 0.0
H314 H 0.40568 0.03967 0.06584 0.0
H315 H 0.50546 0.8776 0.02069 0.0
H316 H 0.4274 0.86735 0.00095 0.0
H317 H 0.36041 0.91592 0.00541 0.0
H318 H 0.37454 0.97901 0.0289 0.0
C319 C 0.42934 0.04442 0.05458 0.0
C320 C 0.46292 0.00731 0.05258 0.0
C321 C 0.45104 0.96714 0.03925 0.0
C322 C 0.48504 0.93367 0.03749 0.0
C323 C 0.4774 0.89984 0.0232 0.0
C324 C 0.43327 0.89417 0.01171 0.0
C325 C 0.39603 0.92205 0.01412 0.0
C326 C 0.40486 0.95847 0.02765 0.0
H327 H 0.46903 0.808 0.04524 0.0
C328 C 0.51915 0.82929 0.04799 0.0
H329 H 0.60474 0.91321 0.05213 0.0
H330 H 0.50177 0.08422 0.07892 0.0
H331 H 0.57269 0.08719 0.09967 0.0
H332 H 0.62105 0.0188 0.09837 0.0
H333 H 0.59998 0.94826 0.07617 0.0
C334 C 0.55461 0.89263 0.04948 0.0
C335 C 0.52569 0.93469 0.04991 0.0
C336 C 0.53693 0.9743 0.06335 0.0
C337 C 0.5068 0.01172 0.06447 0.0
C338 C 0.52142 0.05305 0.07766 0.0
C339 C 0.56239 0.05554 0.08967 0.0
C340 C 0.58975 0.0172 0.08891 0.0
C341 C 0.57734 0.97698 0.07598 0.0
H342 H 0.41088 0.43868 0.72174 0.0
C343 C 0.40828 0.45354 0.73376 0.0
H344 H 0.46065 0.50536 0.75393 0.0
H345 H 0.69657 0.47908 0.73055 0.0
H346 H 0.65361 0.39565 0.75037 0.0
H347 H 0.55208 0.3655 0.76338 0.0
H348 H 0.49246 0.41824 0.75642 0.0
C349 C 0.4621 0.49172 0.74171 0.0
C350 C 0.52526 0.51306 0.73449 0.0
C351 C 0.56089 0.48369 0.73912 0.0
C352 C 0.6206 0.50269 0.732 0.0
C353 C 0.65268 0.46909 0.73608 0.0
C354 C 0.62815 0.42045 0.74734 0.0
C355 C 0.57092 0.40336 0.75464 0.0
C356 C 0.53728 0.43415 0.75056 0.0
H357 H 0.76308 0.6004 0.73385 0.0
C358 C 0.76291 0.59704 0.72094 0.0
H359 H 0.70778 0.57005 0.69993 0.0
H360 H 0.47021 0.58079 0.72342 0.0
H361 H 0.51356 0.6658 0.7039 0.0
H362 H 0.61809 0.70085 0.69201 0.0
H363 H 0.6799 0.65121 0.69955 0.0
C364 C 0.70785 0.57314 0.71284 0.0
C365 C 0.6459 0.55314 0.72071 0.0
C366 C 0.6103 0.58284 0.71621 0.0
C367 C 0.54998 0.56273 0.72307 0.0
C368 C 0.5159 0.5937 0.71846 0.0
C369 C 0.54033 0.64275 0.7073 0.0
C370 C 0.59917 0.66247 0.70061 0.0
C371 C 0.63406 0.63328 0.705 0.0
H372 H 0.10693 0.63966 0.37105 0.0
C373 C 0.09466 0.66591 0.37939 0.0
H374 H 0.02937 0.66235 0.39615 0.0
H375 H 0.89724 0.37587 0.36011 0.0
H376 H 0.91112 0.43107 0.33499 0.0
H377 H 0.96214 0.54787 0.33408 0.0
H378 H 0.00177 0.61015 0.35819 0.0
C379 C 0.04094 0.63556 0.38781 0.0
C380 C 0.00182 0.56478 0.38823 0.0
C381 C 0.97458 0.52901 0.37416 0.0
C382 C 0.94037 0.46142 0.37485 0.0
C383 C 0.91962 0.42705 0.36042 0.0
C384 C 0.92788 0.45818 0.34589 0.0
C385 C 0.95694 0.52395 0.34537 0.0
C386 C 0.98005 0.55918 0.35929 0.0
H387 H 0.80851 0.35484 0.37914 0.0
C388 C 0.8268 0.32913 0.38598 0.0
H389 H 0.90497 0.33302 0.39789 0.0
H390 H 0.05125 0.61774 0.4174 0.0
H391 H 0.03036 0.5629 0.44265 0.0
H392 H 0.96048 0.44702 0.44426 0.0
H393 H 0.9123 0.38525 0.4206 0.0
C394 C 0.88722 0.35928 0.39107 0.0
C395 C 0.9281 0.42976 0.3898 0.0
C396 C 0.95408 0.46567 0.40391 0.0
C397 C -0.00788 0.5329 0.40307 0.0
C398 C 0.02008 0.56693 0.4173 0.0
C399 C 0.0088 0.536 0.43193 0.0
C400 C 0.96965 0.47078 0.43283 0.0
C401 C 0.94248 0.43582 0.41906 0.0
H402 H 0.81864 0.54214 0.24815 0.0
C403 C 0.81969 0.54485 0.26107 0.0
H404 H 0.86113 0.53445 0.28232 0.0
H405 H 0.93291 0.34821 0.24508 0.0
H406 H 0.82525 0.26967 0.25171 0.0
H407 H 0.75222 0.30181 0.26309 0.0
H408 H 0.78623 0.41289 0.2677 0.0
C409 C 0.86024 0.5329 0.26939 0.0
C410 C 0.90304 0.51399 0.26154 0.0
C411 C 0.88292 0.44885 0.25921 0.0
C412 C 0.92565 0.43021 0.25306 0.0
C413 C 0.90331 0.36495 0.25025 0.0
C414 C 0.84141 0.31935 0.25389 0.0
C415 C 0.80025 0.33745 0.26027 0.0
C416 C 0.82042 0.40137 0.26288 0.0
H417 H 0.03422 0.41031 0.26535 0.0
C418 C 0.05461 0.42514 0.25356 0.0
H419 H 0.05682 0.4744 0.23251 0.0
H420 H 0.9554 0.64261 0.26387 0.0
H421 H 0.06308 0.72167 0.25721 0.0
H422 H 0.13806 0.68964 0.2471 0.0
H423 H 0.106 0.57853 0.24358 0.0
C424 C 0.03553 0.45775 0.24413 0.0
C425 C -0.01091 0.47673 0.24969 0.0
C426 C 0.00854 0.54204 0.25157 0.0
C427 C 0.96545 0.56061 0.2575 0.0
C428 C -0.01368 0.62602 0.25945 0.0
C429 C 0.04795 0.67186 0.25567 0.0
C430 C 0.09014 0.65382 0.24997 0.0
C431 C 0.07103 0.58979 0.24796 0.0
H432 H 0.61009 0.12217 0.93858 0.0
C433 C 0.63304 0.10344 0.93103 0.0
H434 H 0.62211 0.02794 0.91668 0.0
H435 H 0.34515 0.93353 0.95468 0.0
H436 H 0.40403 0.95783 0.97947 0.0
H437 H 0.51947 0.00062 0.97959 0.0
H438 H 0.57713 0.02274 0.9548 0.0
C439 C 0.59863 0.04605 0.92425 0.0
C440 C 0.52787 0.01042 0.92465 0.0
C441 C 0.49443 -0.00717 0.93927 0.0
C442 C 0.4271 0.96267 0.93926 0.0
C443 C 0.39565 0.95221 0.954 0.0
C444 C 0.42897 0.96642 0.96834 0.0
C445 C 0.49402 -0.00899 0.96839 0.0
C446 C 0.52661 0.0041 0.95406 0.0
H447 H 0.31328 0.83256 0.93883 0.0
C448 C 0.28902 0.85039 0.93126 0.0
H449 H 0.2975 0.92501 0.91667 0.0
H450 H 0.57621 0.04036 0.89437 0.0
H451 H 0.51703 0.00878 0.86968 0.0
H452 H 0.40067 0.94515 0.8697 0.0
H453 H 0.34284 0.91398 0.8944 0.0
C454 C 0.32208 0.90772 0.9243 0.0
C455 C 0.39285 0.9443 0.92465 0.0
C456 C 0.42629 0.9601 0.91004 0.0
C457 C 0.49362 -0.00558 0.91003 0.0
C458 C 0.52532 0.01239 0.8952 0.0
C459 C 0.4919 -0.00514 0.88087 0.0
C460 C 0.42642 0.95922 0.88088 0.0
C461 C 0.39378 0.9419 0.89522 0.0
H462 H 0.57353 0.73977 0.58508 0.0
C463 C 0.55713 0.74528 0.59664 0.0
H464 H 0.50162 0.70013 0.61671 0.0
H465 H 0.44412 0.48273 0.55917 0.0
H466 H 0.41682 0.54576 0.54182 0.0
H467 H 0.42186 0.64405 0.5515 0.0
H468 H 0.45699 0.6811 0.57838 0.0
C469 C 0.51821 0.69376 0.60526 0.0
C470 C 0.50126 0.62787 0.6004 0.0
C471 C 0.47453 0.60367 0.58517 0.0
C472 C 0.46563 0.54378 0.5801 0.0
C473 C 0.4469 0.52506 0.56412 0.0
C474 C 0.43176 0.56126 0.55393 0.0
C475 C 0.43501 0.61679 0.55934 0.0
C476 C 0.45602 0.63792 0.57476 0.0
H477 H 0.37184 0.40204 0.57879 0.0
C478 C 0.41168 0.39411 0.58062 0.0
H479 H 0.50692 0.43308 0.58763 0.0
H480 H 0.55242 0.65865 0.63054 0.0
H481 H 0.5687 0.59064 0.64885 0.0
H482 H 0.54096 0.48181 0.64123 0.0
H483 H 0.49786 0.44087 0.61511 0.0
C484 C 0.46722 0.44144 0.58603 0.0
C485 C 0.47656 0.50476 0.59093 0.0
C486 C 0.49937 0.52729 0.60651 0.0
C487 C 0.51305 0.58926 0.61112 0.0
C488 C 0.53915 0.61144 0.62648 0.0
C489 C 0.54909 0.57293 0.63715 0.0
C490 C 0.53364 0.51175 0.63285 0.0
C491 C 0.50915 0.48897 0.61775 0.0
H492 H 0.9759 0.27725 0.97814 0.0
C493 C 0.96996 0.25289 0.9669 0.0
H494 H -0.00205 0.19881 0.95301 0.0
H495 H 0.22521 0.34336 0.00835 0.0
H496 H 0.24403 0.44198 -0.00384 0.0
H497 H 0.17694 0.44211 0.97398 0.0
H498 H 0.08952 0.34379 0.96421 0.0
C499 C 0.00428 0.2243 0.96409 0.0
C500 C 0.04985 0.22425 0.97614 0.0
C501 C 0.10337 0.28201 0.98101 0.0
C502 C 0.14486 0.2816 -0.00697 0.0
C503 C 0.19451 0.34042 -0.00139 0.0
C504 C 0.20552 0.39755 -0.00818 0.0
C505 C 0.16756 0.39765 0.9794 0.0
C506 C 0.11709 0.34077 0.974 0.0
H507 H 0.25968 0.26399 -0.00403 0.0
C508 C 0.24231 0.24361 0.00767 0.0
H509 H 0.16307 0.20046 0.02279 0.0
H510 H 0.9521 0.10518 0.96962 0.0
H511 H 0.93642 0.00604 0.98086 0.0
H512 H 0.0119 0.00489 0.00049 0.0
H513 H 0.10345 0.10273 0.00901 0.0
C514 C 0.18112 0.22172 0.01121 0.0
C515 C 0.13568 0.22308 -0.00068 0.0
C516 C 0.08278 0.16532 -0.00574 0.0
C517 C 0.03972 0.16593 0.98274 0.0
C518 C -0.01323 0.10751 0.97815 0.0
C519 C 0.97709 0.0502 0.98453 0.0
C520 C 0.01957 0.04954 -0.00441 0.0
C521 C 0.0719 0.10619 0.00041 0.0
H522 H 0.74736 0.03108 0.67121 0.0
C523 C 0.76268 0.02127 0.65998 0.0
H524 H 0.84007 0.03348 0.64628 0.0
H525 H 0.04754 0.28379 0.67863 0.0
H526 H 0.04801 0.31685 0.65133 0.0
H527 H 0.9681 0.24494 0.63201 0.0
H528 H 0.88783 0.13935 0.63981 0.0
C529 C 0.82453 0.04231 0.65759 0.0
C530 C 0.87369 0.08462 0.66932 0.0
C531 C 0.91981 0.14681 0.66462 0.0
C532 C 0.96489 0.18897 0.67587 0.0
C533 C 0.01129 0.25022 0.6707 0.0
C534 C 0.01228 0.26983 0.65503 0.0
C535 C 0.96738 0.22931 0.64416 0.0
C536 C 0.92158 0.16859 0.64881 0.0
H537 H 0.05163 0.16063 0.70955 0.0
C538 C 0.0519 0.20515 0.71131 0.0
H539 H 0.00972 0.26039 0.70526 0.0
H540 H 0.80055 0.96517 0.68162 0.0
H541 H 0.79641 0.93355 0.70923 0.0
H542 H 0.86544 0.01057 0.72946 0.0
H543 H 0.94031 0.11889 0.72212 0.0
C544 C 0.00904 0.21558 0.70368 0.0
C545 C 0.96306 0.16957 0.69193 0.0
C546 C 0.91679 0.10738 0.69666 0.0
C547 C 0.87376 0.06417 0.68521 0.0
C548 C 0.83171 0.00093 0.68999 0.0
C549 C 0.82922 0.98197 0.70578 0.0
C550 C 0.86832 0.02523 0.71715 0.0
C551 C 0.91157 0.08724 0.71273 0.0
H552 H 0.72733 0.96942 0.37804 0.0
C553 C 0.70626 -0.01158 0.36975 0.0
H554 H 0.67403 0.9861 0.34616 0.0
H555 H 0.82938 0.85947 0.31905 0.0
H556 H 0.89998 0.9689 0.31151 0.0
H557 H 0.88253 0.05491 0.32119 0.0
H558 H 0.79407 0.0318 0.33848 0.0
C559 C 0.69361 0.96658 0.35473 0.0
C560 C 0.70534 0.9149 0.34932 0.0
C561 C 0.75654 0.92902 0.33902 0.0
C562 C 0.76616 0.87933 0.33326 0.0
C563 C 0.81888 0.89511 0.32342 0.0
C564 C 0.8601 0.95784 0.31911 0.0
C565 C 0.85024 0.00624 0.32456 0.0
C566 C 0.79924 -0.00769 0.33443 0.0
H567 H 0.70868 0.77674 0.30731 0.0
C568 C 0.71852 0.747 0.31525 0.0
H569 H 0.73772 0.73156 0.33892 0.0
H570 H 0.60152 0.87102 0.36857 0.0
H571 H 0.53155 0.76182 0.37627 0.0
H572 H 0.54849 0.67579 0.36641 0.0
H573 H 0.63539 0.69846 0.34876 0.0
C574 C 0.73038 0.76233 0.33075 0.0
C575 C 0.72379 0.81543 0.33756 0.0
C576 C 0.67342 0.80149 0.34816 0.0
C577 C 0.66392 0.85117 0.35396 0.0
C578 C 0.61182 0.83547 0.36405 0.0
C579 C 0.57099 0.77285 0.36851 0.0
C580 C 0.58051 0.72442 0.36296 0.0
C581 C 0.6308 0.73821 0.35285 0.0
H582 H 0.76114 0.71373 0.02789 0.0
C583 C 0.71562 0.69106 0.0218 0.0
H584 H 0.66636 0.64791 0.0006 0.0
H585 H 0.97084 0.80273 0.97886 0.0
H586 H 0.96956 0.89933 0.98536 0.0
H587 H 0.87532 0.89514 -0.00267 0.0
H588 H 0.78207 0.79417 0.00306 0.0
C589 C 0.71198 0.67222 0.00661 0.0
C590 C 0.76772 0.676 -0.00171 0.0
C591 C 0.82099 0.73551 -0.00555 0.0
C592 C 0.87435 0.73798 0.98687 0.0
C593 C 0.92811 0.798 0.98399 0.0
C594 C 0.9282 0.85391 0.98778 0.0
C595 C 0.87521 0.85153 -0.00544 0.0
C596 C 0.8221 0.79319 -0.00212 0.0
H597 H 0.92017 0.72677 0.95346 0.0
C598 C 0.9445 0.70483 0.95938 0.0
H599 H 0.95105 0.65872 0.9801 0.0
H600 H 0.67376 0.55405 0.00402 0.0
H601 H 0.67306 0.45757 -0.00364 0.0
H602 H 0.7632 0.46186 0.98206 0.0
H603 H 0.85479 0.56265 0.97545 0.0
C604 C 0.92815 0.68231 0.97429 0.0
C605 C 0.87328 0.68095 0.9825 0.0
C606 C 0.81957 0.62154 0.9861 0.0
C607 C 0.76699 0.61907 -0.00594 0.0
C608 C 0.71459 0.55893 -0.00224 0.0
C609 C 0.71358 0.50303 -0.00654 0.0
C610 C 0.76436 0.50545 0.98544 0.0
C611 C 0.81679 0.56377 0.98177 0.0
H612 H 0.21915 0.03158 0.59446 0.0
C613 C 0.26183 0.0584 0.60155 0.0
H614 H 0.30406 0.06977 0.6243 0.0
H615 H 0.03418 0.92073 0.65783 0.0
H616 H 0.05948 0.02897 0.66328 0.0
H617 H 0.15251 0.11946 0.65108 0.0
H618 H 0.22054 0.10222 0.63322 0.0
C619 C 0.26249 0.0425 0.61689 0.0
C620 C 0.20647 0.98773 0.62428 0.0
C621 C 0.16801 -0.00146 0.63496 0.0
C622 C 0.11505 0.94632 0.64225 0.0
C623 C 0.07604 0.95858 0.65236 0.0
C624 C 0.08978 0.0205 0.65549 0.0
C625 C 0.14211 0.07146 0.64861 0.0
C626 C 0.18082 0.06091 0.63841 0.0
H627 H 0.08847 0.85354 0.67016 0.0
C628 C 0.04982 0.8182 0.66298 0.0
H629 H 0.01112 0.79195 0.63986 0.0
H630 H 0.27182 0.95039 0.60482 0.0
H631 H 0.24678 0.84237 0.59937 0.0
H632 H 0.15528 0.75183 0.61202 0.0
H633 H 0.08838 0.76874 0.63022 0.0
C634 C 0.04817 0.8281 0.64724 0.0
C635 C 0.10153 0.88334 0.63913 0.0
C636 C 0.1397 0.87256 0.6283 0.0
C637 C 0.19234 0.92477 0.62093 0.0
C638 C 0.23066 0.91257 0.61054 0.0
C639 C 0.21701 0.85075 0.60736 0.0
C640 C 0.16552 0.79979 0.61449 0.0
C641 C 0.12734 0.81024 0.62489 0.0
H642 H 0.20783 0.02928 0.35413 0.0
C643 C 0.22603 0.00281 0.34778 0.0
H644 H 0.25786 0.98797 0.32581 0.0
H645 H 0.10561 0.14662 0.30647 0.0
H646 H 0.01147 0.05697 0.31719 0.0
H647 H 0.01663 0.9677 0.33001 0.0
H648 H 0.11648 0.96869 0.33263 0.0
C649 C 0.23825 0.01323 0.33212 0.0
C650 C 0.23296 0.06425 0.32335 0.0
C651 C 0.17356 0.06131 0.32122 0.0
C652 C 0.16988 0.11106 0.31301 0.0
C653 C 0.1107 0.10888 0.31196 0.0
C654 C 0.05627 0.05779 0.31814 0.0
C655 C 0.05927 0.00773 0.32543 0.0
C656 C 0.11704 0.00914 0.32696 0.0
H657 H 0.16529 0.15214 0.27844 0.0
C658 C 0.19096 0.20068 0.28277 0.0
H659 H 0.24887 0.26139 0.30107 0.0
H660 H 0.35457 0.08595 0.32564 0.0
H661 H 0.44793 0.17388 0.31411 0.0
H662 H 0.44051 0.25683 0.29863 0.0
H663 H 0.33974 0.25263 0.29471 0.0
C664 C 0.22148 0.21281 0.29685 0.0
C665 C 0.22496 0.16194 0.30618 0.0
C666 C 0.28418 0.1646 0.30821 0.0
C667 C 0.28824 0.11601 0.31686 0.0
C668 C 0.34834 0.12077 0.31894 0.0
C669 C 0.40248 0.17116 0.31242 0.0
C670 C 0.39832 0.21791 0.30373 0.0
C671 C 0.34007 0.21493 0.30161 0.0
loop_
_geom_bond_atom_site_label_1
_geom_bond_atom_site_label_2
_geom_bond_distance
_geom_bond_site_symmetry_2
_ccdc_geom_bond_type
O0 Cd1 2.300 . S
O0 C7 1.275 . S
Cd1 O0 2.300 . S
Cd1 O9 2.381 . S
Cd1 O10 2.378 . S
O2 Cd3 2.385 . S
O2 C7 1.255 . S
Cd3 O2 2.385 . S
Cd3 O4 2.317 . S
O4 Cd3 2.317 . S
O4 C5 1.232 . S
C5 O4 1.232 . S
C5 O6 1.218 . S
O6 C5 1.218 . S
C7 O0 1.275 . S
C7 O2 1.255 . S
C8 O9 1.258 . S
C8 O10 1.256 . S
O9 Cd1 2.381 . S
O9 C8 1.258 . S
O10 Cd1 2.378 . S
O10 C8 1.256 . S
O11 Cd12 2.300 . S
O11 C18 1.275 . S
Cd12 O11 2.300 . S
Cd12 O20 2.381 . S
Cd12 O21 2.378 . S
O13 Cd14 2.385 . S
O13 C18 1.255 . S
Cd14 O13 2.385 . S
Cd14 O15 2.317 . S
O15 Cd14 2.317 . S
O15 C16 1.232 . S
C16 O15 1.232 . S
C16 O17 1.218 . S
O17 C16 1.218 . S
C18 O11 1.275 . S
C18 O13 1.255 . S
C19 O20 1.258 . S
C19 O21 1.256 . S
O20 Cd12 2.381 . S
O20 C19 1.258 . S
O21 Cd12 2.378 . S
O21 C19 1.256 . S
O22 Cd23 2.300 . S
O22 C29 1.275 . S
Cd23 O22 2.300 . S
Cd23 O31 2.381 . S
Cd23 O32 2.378 . S
O24 Cd25 2.385 . S
O24 C29 1.255 . S
Cd25 O24 2.385 . S
Cd25 O26 2.317 . S
O26 Cd25 2.317 . S
O26 C27 1.232 . S
C27 O26 1.232 . S
C27 O28 1.218 . S
O28 C27 1.218 . S
C29 O22 1.275 . S
C29 O24 1.255 . S
C30 O31 1.258 . S
C30 O32 1.256 . S
O31 Cd23 2.381 . S
O31 C30 1.258 . S
O32 Cd23 2.378 . S
O32 C30 1.256 . S
O33 Cd34 2.300 . S
O33 C40 1.275 . S
Cd34 O33 2.300 . S
Cd34 O42 2.381 . S
Cd34 O43 2.378 . S
O35 Cd36 2.385 . S
O35 C40 1.255 . S
Cd36 O35 2.385 . S
Cd36 O37 2.317 . S
O37 Cd36 2.317 . S
O37 C38 1.232 . S
C38 O37 1.232 . S
C38 O39 1.218 . S
O39 C38 1.218 . S
C40 O33 1.275 . S
C40 O35 1.255 . S
C41 O42 1.258 . S
C41 O43 1.256 . S
O42 Cd34 2.381 . S
O42 C41 1.258 . S
O43 Cd34 2.378 . S
O43 C41 1.256 . S
O44 Cd45 2.300 . S
O44 C51 1.275 . S
Cd45 O44 2.300 . S
Cd45 O53 2.381 . S
Cd45 O54 2.378 . S
O46 Cd47 2.385 . S
O46 C51 1.255 . S
Cd47 O46 2.385 . S
Cd47 O48 2.317 . S
O48 Cd47 2.317 . S
O48 C49 1.232 . S
C49 O48 1.232 . S
C49 O50 1.218 . S
O50 C49 1.218 . S
C51 O44 1.275 . S
C51 O46 1.255 . S
C52 O53 1.258 . S
C52 O54 1.256 . S
O53 Cd45 2.381 . S
O53 C52 1.258 . S
O54 Cd45 2.378 . S
O54 C52 1.256 . S
O55 Cd56 2.300 . S
O55 C62 1.275 . S
Cd56 O55 2.300 . S
Cd56 O64 2.381 . S
Cd56 O65 2.378 . S
O57 Cd58 2.385 . S
O57 C62 1.255 . S
Cd58 O57 2.385 . S
Cd58 O59 2.317 . S
O59 Cd58 2.317 . S
O59 C60 1.232 . S
C60 O59 1.232 . S
C60 O61 1.218 . S
O61 C60 1.218 . S
C62 O55 1.275 . S
C62 O57 1.255 . S
C63 O64 1.258 . S
C63 O65 1.256 . S
O64 Cd56 2.381 . S
O64 C63 1.258 . S
O65 Cd56 2.378 . S
O65 C63 1.256 . S
O66 Cd67 2.300 . S
O66 C73 1.275 . S
Cd67 O66 2.300 . S
Cd67 O75 2.381 . S
Cd67 O76 2.378 . S
O68 Cd69 2.385 . S
O68 C73 1.255 . S
Cd69 O68 2.385 . S
Cd69 O70 2.317 . S
O70 Cd69 2.317 . S
O70 C71 1.232 . S
C71 O70 1.232 . S
C71 O72 1.218 . S
O72 C71 1.218 . S
C73 O66 1.275 . S
C73 O68 1.255 . S
C74 O75 1.258 . S
C74 O76 1.256 . S
O75 Cd67 2.381 . S
O75 C74 1.258 . S
O76 Cd67 2.378 . S
O76 C74 1.256 . S
O77 Cd78 2.300 . S
O77 C84 1.275 . S
Cd78 O77 2.300 . S
Cd78 O86 2.381 . S
Cd78 O87 2.378 . S
O79 Cd80 2.385 . S
O79 C84 1.255 . S
Cd80 O79 2.385 . S
Cd80 O81 2.317 . S
O81 Cd80 2.317 . S
O81 C82 1.232 . S
C82 O81 1.232 . S
C82 O83 1.218 . S
O83 C82 1.218 . S
C84 O77 1.275 . S
C84 O79 1.255 . S
C85 O86 1.258 . S
C85 O87 1.256 . S
O86 Cd78 2.381 . S
O86 C85 1.258 . S
O87 Cd78 2.378 . S
O87 C85 1.256 . S
O88 Cd89 2.300 . S
O88 C95 1.275 . S
Cd89 O88 2.300 . S
Cd89 O97 2.381 . S
Cd89 O98 2.378 . S
O90 Cd91 2.385 . S
O90 C95 1.255 . S
Cd91 O90 2.385 . S
Cd91 O92 2.317 . S
O92 Cd91 2.317 . S
O92 C93 1.232 . S
C93 O92 1.232 . S
C93 O94 1.218 . S
O94 C93 1.218 . S
C95 O88 1.275 . S
C95 O90 1.255 . S
C96 O97 1.258 . S
C96 O98 1.256 . S
O97 Cd89 2.381 . S
O97 C96 1.258 . S
O98 Cd89 2.378 . S
O98 C96 1.256 . S
O99 Cd100 2.300 . S
O99 C106 1.275 . S
Cd100 O99 2.300 . S
Cd100 O108 2.381 . S
Cd100 O109 2.378 . S
O101 Cd102 2.385 . S
O101 C106 1.255 . S
Cd102 O101 2.385 . S
Cd102 O103 2.317 . S
O103 Cd102 2.317 . S
O103 C104 1.232 . S
C104 O103 1.232 . S
C104 O105 1.218 . S
O105 C104 1.218 . S
C106 O99 1.275 . S
C106 O101 1.255 . S
C107 O108 1.258 . S
C107 O109 1.256 . S
O108 Cd100 2.381 . S
O108 C107 1.258 . S
O109 Cd100 2.378 . S
O109 C107 1.256 . S
O110 Cd111 2.300 . S
O110 C117 1.275 . S
Cd111 O110 2.300 . S
Cd111 O119 2.381 . S
Cd111 O120 2.378 . S
O112 Cd113 2.385 . S
O112 C117 1.255 . S
Cd113 O112 2.385 . S
Cd113 O114 2.317 . S
O114 Cd113 2.317 . S
O114 C115 1.232 . S
C115 O114 1.232 . S
C115 O116 1.218 . S
O116 C115 1.218 . S
C117 O110 1.275 . S
C117 O112 1.255 . S
C118 O119 1.258 . S
C118 O120 1.256 . S
O119 Cd111 2.381 . S
O119 C118 1.258 . S
O120 Cd111 2.378 . S
O120 C118 1.256 . S
O121 Cd122 2.300 . S
O121 C128 1.275 . S
Cd122 O121 2.300 . S
Cd122 O130 2.381 . S
Cd122 O131 2.378 . S
O123 Cd124 2.385 . S
O123 C128 1.255 . S
Cd124 O123 2.385 . S
Cd124 O125 2.317 . S
O125 Cd124 2.317 . S
O125 C126 1.232 . S
C126 O125 1.232 . S
C126 O127 1.218 . S
O127 C126 1.218 . S
C128 O121 1.275 . S
C128 O123 1.255 . S
C129 O130 1.258 . S
C129 O131 1.256 . S
O130 Cd122 2.381 . S
O130 C129 1.258 . S
O131 Cd122 2.378 . S
O131 C129 1.256 . S
H132 C133 0.951 . S
C133 H132 0.951 . S
C133 C139 1.265 . S
H134 C139 0.950 . S
H135 C143 0.949 . S
H136 C144 0.950 . S
H137 C145 0.951 . S
H138 C146 0.951 . S
C139 C133 1.265 . S
C139 H134 0.950 . S
C139 C140 1.478 . S
C140 C139 1.478 . S
C140 C141 1.397 . S
C140 C157 1.394 . S
C141 C140 1.397 . S
C141 C142 1.438 . S
C141 C146 1.429 . S
C142 C141 1.438 . S
C142 C143 1.428 . S
C142 C155 1.394 . S
C143 H135 0.949 . S
C143 C142 1.428 . S
C143 C144 1.345 . S
C144 H136 0.950 . S
C144 C143 1.345 . S
C144 C145 1.424 . S
C145 H137 0.951 . S
C145 C144 1.424 . S
C145 C146 1.347 . S
C146 H138 0.951 . S
C146 C141 1.429 . S
C146 C145 1.347 . S
H147 C148 0.951 . S
C148 H147 0.951 . S
C148 C154 1.265 . S
H149 C154 0.950 . S
H150 C158 0.949 . S
H151 C159 0.950 . S
H152 C160 0.951 . S
H153 C161 0.951 . S
C154 C148 1.265 . S
C154 H149 0.950 . S
C154 C155 1.478 . S
C155 C142 1.394 . S
C155 C154 1.478 . S
C155 C156 1.397 . S
C156 C155 1.397 . S
C156 C157 1.438 . S
C156 C161 1.429 . S
C157 C140 1.394 . S
C157 C156 1.438 . S
C157 C158 1.428 . S
C158 H150 0.949 . S
C158 C157 1.428 . S
C158 C159 1.345 . S
C159 H151 0.950 . S
C159 C158 1.345 . S
C159 C160 1.424 . S
C160 H152 0.951 . S
C160 C159 1.424 . S
C160 C161 1.347 . S
C161 H153 0.951 . S
C161 C156 1.429 . S
C161 C160 1.347 . S
H162 C163 0.951 . S
C163 H162 0.951 . S
C163 C169 1.265 . S
H164 C169 0.950 . S
H165 C173 0.949 . S
H166 C174 0.950 . S
H167 C175 0.951 . S
H168 C176 0.951 . S
C169 C163 1.265 . S
C169 H164 0.950 . S
C169 C170 1.478 . S
C170 C169 1.478 . S
C170 C171 1.397 . S
C170 C187 1.394 . S
C171 C170 1.397 . S
C171 C172 1.438 . S
C171 C176 1.429 . S
C172 C171 1.438 . S
C172 C173 1.428 . S
C172 C185 1.394 . S
C173 H165 0.949 . S
C173 C172 1.428 . S
C173 C174 1.345 . S
C174 H166 0.950 . S
C174 C173 1.345 . S
C174 C175 1.424 . S
C175 H167 0.951 . S
C175 C174 1.424 . S
C175 C176 1.347 . S
C176 H168 0.951 . S
C176 C171 1.429 . S
C176 C175 1.347 . S
H177 C178 0.951 . S
C178 H177 0.951 . S
C178 C184 1.265 . S
H179 C184 0.950 . S
H180 C188 0.949 . S
H181 C189 0.950 . S
H182 C190 0.951 . S
H183 C191 0.951 . S
C184 C178 1.265 . S
C184 H179 0.950 . S
C184 C185 1.478 . S
C185 C172 1.394 . S
C185 C184 1.478 . S
C185 C186 1.397 . S
C186 C185 1.397 . S
C186 C187 1.438 . S
C186 C191 1.429 . S
C187 C170 1.394 . S
C187 C186 1.438 . S
C187 C188 1.428 . S
C188 H180 0.949 . S
C188 C187 1.428 . S
C188 C189 1.345 . S
C189 H181 0.950 . S
C189 C188 1.345 . S
C189 C190 1.424 . S
C190 H182 0.951 . S
C190 C189 1.424 . S
C190 C191 1.347 . S
C191 H183 0.951 . S
C191 C186 1.429 . S
C191 C190 1.347 . S
H192 C193 0.951 . S
C193 H192 0.951 . S
C193 C199 1.265 . S
H194 C199 0.950 . S
H195 C203 0.949 . S
H196 C204 0.950 . S
H197 C205 0.951 . S
H198 C206 0.951 . S
C199 C193 1.265 . S
C199 H194 0.950 . S
C199 C200 1.478 . S
C200 C199 1.478 . S
C200 C201 1.397 . S
C200 C217 1.394 . S
C201 C200 1.397 . S
C201 C202 1.438 . S
C201 C206 1.429 . S
C202 C201 1.438 . S
C202 C203 1.428 . S
C202 C215 1.394 . S
C203 H195 0.949 . S
C203 C202 1.428 . S
C203 C204 1.345 . S
C204 H196 0.950 . S
C204 C203 1.345 . S
C204 C205 1.424 . S
C205 H197 0.951 . S
C205 C204 1.424 . S
C205 C206 1.347 . S
C206 H198 0.951 . S
C206 C201 1.429 . S
C206 C205 1.347 . S
H207 C208 0.951 . S
C208 H207 0.951 . S
C208 C214 1.265 . S
H209 C214 0.950 . S
H210 C218 0.949 . S
H211 C219 0.950 . S
H212 C220 0.951 . S
H213 C221 0.951 . S
C214 C208 1.265 . S
C214 H209 0.950 . S
C214 C215 1.478 . S
C215 C202 1.394 . S
C215 C214 1.478 . S
C215 C216 1.397 . S
C216 C215 1.397 . S
C216 C217 1.438 . S
C216 C221 1.429 . S
C217 C200 1.394 . S
C217 C216 1.438 . S
C217 C218 1.428 . S
C218 H210 0.949 . S
C218 C217 1.428 . S
C218 C219 1.345 1_545 S
C219 H211 0.950 . S
C219 C218 1.345 1_565 S
C219 C220 1.424 . S
C220 H212 0.951 . S
C220 C219 1.424 . S
C220 C221 1.347 1_565 S
C221 H213 0.951 . S
C221 C216 1.429 . S
C221 C220 1.347 1_545 S
H222 C223 0.951 . S
C223 H222 0.951 . S
C223 C229 1.265 . S
H224 C229 0.950 . S
H225 C233 0.949 . S
H226 C234 0.950 . S
H227 C235 0.951 . S
H228 C236 0.951 . S
C229 C223 1.265 . S
C229 H224 0.950 . S
C229 C230 1.478 . S
C230 C229 1.478 . S
C230 C231 1.397 . S
C230 C247 1.394 . S
C231 C230 1.397 . S
C231 C232 1.438 . S
C231 C236 1.429 . S
C232 C231 1.438 . S
C232 C233 1.428 . S
C232 C245 1.394 . S
C233 H225 0.949 . S
C233 C232 1.428 . S
C233 C234 1.345 . S
C234 H226 0.950 . S
C234 C233 1.345 . S
C234 C235 1.424 . S
C235 H227 0.951 . S
C235 C234 1.424 . S
C235 C236 1.347 . S
C236 H228 0.951 . S
C236 C231 1.429 . S
C236 C235 1.347 . S
H237 C238 0.951 . S
C238 H237 0.951 . S
C238 C244 1.265 . S
H239 C244 0.950 . S
H240 C248 0.949 . S
H241 C249 0.950 . S
H242 C250 0.951 . S
H243 C251 0.951 . S
C244 C238 1.265 . S
C244 H239 0.950 . S
C244 C245 1.478 . S
C245 C232 1.394 . S
C245 C244 1.478 . S
C245 C246 1.397 . S
C246 C245 1.397 . S
C246 C247 1.438 . S
C246 C251 1.429 . S
C247 C230 1.394 . S
C247 C246 1.438 . S
C247 C248 1.428 . S
C248 H240 0.949 . S
C248 C247 1.428 . S
C248 C249 1.345 . S
C249 H241 0.950 . S
C249 C248 1.345 . S
C249 C250 1.424 . S
C250 H242 0.951 . S
C250 C249 1.424 . S
C250 C251 1.347 . S
C251 H243 0.951 . S
C251 C246 1.429 . S
C251 C250 1.347 . S
H252 C253 0.951 . S
C253 H252 0.951 . S
C253 C259 1.265 . S
H254 C259 0.950 . S
H255 C263 0.949 . S
H256 C264 0.950 . S
H257 C265 0.951 . S
H258 C266 0.951 . S
C259 C253 1.265 . S
C259 H254 0.950 . S
C259 C260 1.478 . S
C260 C259 1.478 . S
C260 C261 1.397 . S
C260 C277 1.394 . S
C261 C260 1.397 . S
C261 C262 1.438 . S
C261 C266 1.429 . S
C262 C261 1.438 . S
C262 C263 1.428 . S
C262 C275 1.394 . S
C263 H255 0.949 . S
C263 C262 1.428 . S
C263 C264 1.345 . S
C264 H256 0.950 . S
C264 C263 1.345 . S
C264 C265 1.424 . S
C265 H257 0.951 . S
C265 C264 1.424 . S
C265 C266 1.347 . S
C266 H258 0.951 . S
C266 C261 1.429 . S
C266 C265 1.347 . S
H267 C268 0.951 . S
C268 H267 0.951 . S
C268 C274 1.265 . S
H269 C274 0.950 . S
H270 C278 0.949 . S
H271 C279 0.950 . S
H272 C280 0.951 . S
H273 C281 0.951 . S
C274 C268 1.265 . S
C274 H269 0.950 . S
C274 C275 1.478 . S
C275 C262 1.394 . S
C275 C274 1.478 . S
C275 C276 1.397 . S
C276 C275 1.397 . S
C276 C277 1.438 . S
C276 C281 1.429 . S
C277 C260 1.394 . S
C277 C276 1.438 . S
C277 C278 1.428 . S
C278 H270 0.949 . S
C278 C277 1.428 . S
C278 C279 1.345 . S
C279 H271 0.950 . S
C279 C278 1.345 . S
C279 C280 1.424 . S
C280 H272 0.951 . S
C280 C279 1.424 . S
C280 C281 1.347 . S
C281 H273 0.951 . S
C281 C276 1.429 . S
C281 C280 1.347 . S
H282 C283 0.951 . S
C283 H282 0.951 . S
C283 C289 1.265 . S
H284 C289 0.950 . S
H285 C293 0.949 . S
H286 C294 0.950 1_545 S
H287 C295 0.951 1_545 S
H288 C296 0.951 . S
C289 C283 1.265 . S
C289 H284 0.950 . S
C289 C290 1.478 . S
C290 C289 1.478 . S
C290 C291 1.397 . S
C290 C307 1.394 . S
C291 C290 1.397 . S
C291 C292 1.438 . S
C291 C296 1.429 . S
C292 C291 1.438 . S
C292 C293 1.428 . S
C292 C305 1.394 . S
C293 H285 0.949 . S
C293 C292 1.428 . S
C293 C294 1.345 . S
C294 H286 0.950 1_565 S
C294 C293 1.345 . S
C294 C295 1.424 . S
C295 H287 0.951 1_565 S
C295 C294 1.424 . S
C295 C296 1.347 . S
C296 H288 0.951 . S
C296 C291 1.429 . S
C296 C295 1.347 . S
H297 C298 0.951 . S
C298 H297 0.951 . S
C298 C304 1.265 . S
H299 C304 0.950 . S
H300 C308 0.949 . S
H301 C309 0.950 . S
H302 C310 0.951 . S
H303 C311 0.951 . S
C304 C298 1.265 . S
C304 H299 0.950 . S
C304 C305 1.478 . S
C305 C292 1.394 . S
C305 C304 1.478 . S
C305 C306 1.397 . S
C306 C305 1.397 . S
C306 C307 1.438 . S
C306 C311 1.429 . S
C307 C290 1.394 . S
C307 C306 1.438 . S
C307 C308 1.428 . S
C308 H300 0.949 . S
C308 C307 1.428 . S
C308 C309 1.345 . S
C309 H301 0.950 . S
C309 C308 1.345 . S
C309 C310 1.424 . S
C310 H302 0.951 . S
C310 C309 1.424 . S
C310 C311 1.347 . S
C311 H303 0.951 . S
C311 C306 1.429 . S
C311 C310 1.347 . S
H312 C313 0.951 . S
C313 H312 0.951 . S
C313 C319 1.265 . S
H314 C319 0.950 . S
H315 C323 0.949 . S
H316 C324 0.950 . S
H317 C325 0.951 . S
H318 C326 0.934 1_545 S
C319 C313 1.265 . S
C319 H314 0.950 . S
C319 C320 1.478 . S
C320 C319 1.478 . S
C320 C321 1.397 1_545 S
C320 C337 1.394 . S
C321 C320 1.397 1_565 S
C321 C322 1.438 . S
C321 C326 1.434 . S
C322 C321 1.438 . S
C322 C323 1.428 . S
C322 C335 1.394 . S
C323 H315 0.949 . S
C323 C322 1.428 . S
C323 C324 1.345 . S
C324 H316 0.950 . S
C324 C323 1.345 . S
C324 C325 1.424 . S
C325 H317 0.951 . S
C325 C324 1.424 . S
C325 C326 1.359 . S
C326 H318 0.934 1_565 S
C326 C321 1.434 . S
C326 C325 1.359 . S
H327 C328 0.951 . S
C328 H327 0.951 . S
C328 C334 1.265 . S
H329 C334 0.950 . S
H330 C338 0.949 . S
H331 C339 0.950 . S
H332 C340 0.951 . S
H333 C341 0.934 1_565 S
C334 C328 1.265 . S
C334 H329 0.950 . S
C334 C335 1.478 . S
C335 C322 1.394 . S
C335 C334 1.478 . S
C335 C336 1.397 1_565 S
C336 C335 1.397 1_545 S
C336 C337 1.437 . S
C336 C341 1.434 . S
C337 C320 1.394 . S
C337 C336 1.437 . S
C337 C338 1.428 . S
C338 H330 0.949 . S
C338 C337 1.428 . S
C338 C339 1.345 . S
C339 H331 0.950 . S
C339 C338 1.345 . S
C339 C340 1.424 . S
C340 H332 0.951 . S
C340 C339 1.424 . S
C340 C341 1.358 . S
C341 H333 0.934 1_545 S
C341 C336 1.434 . S
C341 C340 1.358 . S
H342 C343 0.951 . S
C343 H342 0.951 . S
C343 C349 1.265 . S
H344 C349 0.950 . S
H345 C353 0.949 . S
H346 C354 0.950 . S
H347 C355 0.951 . S
H348 C356 0.951 . S
C349 C343 1.265 . S
C349 H344 0.950 . S
C349 C350 1.478 . S
C350 C349 1.478 . S
C350 C351 1.397 . S
C350 C367 1.394 . S
C351 C350 1.397 . S
C351 C352 1.438 . S
C351 C356 1.429 . S
C352 C351 1.438 . S
C352 C353 1.428 . S
C352 C365 1.394 . S
C353 H345 0.949 . S
C353 C352 1.428 . S
C353 C354 1.345 . S
C354 H346 0.950 . S
C354 C353 1.345 . S
C354 C355 1.424 . S
C355 H347 0.951 . S
C355 C354 1.424 . S
C355 C356 1.347 . S
C356 H348 0.951 . S
C356 C351 1.429 . S
C356 C355 1.347 . S
H357 C358 0.951 . S
C358 H357 0.951 . S
C358 C364 1.265 . S
H359 C364 0.950 . S
H360 C368 0.949 . S
H361 C369 0.950 . S
H362 C370 0.951 . S
H363 C371 0.951 . S
C364 C358 1.265 . S
C364 H359 0.950 . S
C364 C365 1.478 . S
C365 C352 1.394 . S
C365 C364 1.478 . S
C365 C366 1.397 . S
C366 C365 1.397 . S
C366 C367 1.438 . S
C366 C371 1.429 . S
C367 C350 1.394 . S
C367 C366 1.438 . S
C367 C368 1.428 . S
C368 H360 0.949 . S
C368 C367 1.428 . S
C368 C369 1.345 . S
C369 H361 0.950 . S
C369 C368 1.345 . S
C369 C370 1.424 . S
C370 H362 0.951 . S
C370 C369 1.424 . S
C370 C371 1.347 . S
C371 H363 0.951 . S
C371 C366 1.429 . S
C371 C370 1.347 . S
H372 C373 0.951 . S
C373 H372 0.951 . S
C373 C379 1.265 . S
H374 C379 0.950 . S
H375 C383 0.949 . S
H376 C384 0.950 . S
H377 C385 0.951 . S
H378 C386 0.951 1_455 S
C379 C373 1.265 . S
C379 H374 0.950 . S
C379 C380 1.478 . S
C380 C379 1.478 . S
C380 C381 1.398 . S
C380 C397 1.394 . S
C381 C380 1.398 . S
C381 C382 1.438 1_455 S
C381 C386 1.427 1_455 S
C382 C381 1.438 1_655 S
C382 C383 1.428 . S
C382 C395 1.394 . S
C383 H375 0.949 . S
C383 C382 1.428 . S
C383 C384 1.345 . S
C384 H376 0.950 . S
C384 C383 1.345 . S
C384 C385 1.424 . S
C385 H377 0.951 . S
C385 C384 1.424 . S
C385 C386 1.348 . S
C386 H378 0.951 1_655 S
C386 C381 1.427 1_655 S
C386 C385 1.348 . S
H387 C388 0.951 . S
C388 H387 0.951 . S
C388 C394 1.265 . S
H389 C394 0.950 . S
H390 C398 0.949 . S
H391 C399 0.950 . S
H392 C400 0.951 . S
H393 C401 0.951 1_655 S
C394 C388 1.265 . S
C394 H389 0.950 . S
C394 C395 1.478 . S
C395 C382 1.394 . S
C395 C394 1.478 . S
C395 C396 1.398 . S
C396 C395 1.398 . S
C396 C397 1.438 1_655 S
C396 C401 1.427 1_655 S
C397 C380 1.394 . S
C397 C396 1.438 1_455 S
C397 C398 1.428 . S
C398 H390 0.949 . S
C398 C397 1.428 . S
C398 C399 1.345 . S
C399 H391 0.950 . S
C399 C398 1.345 . S
C399 C400 1.424 . S
C400 H392 0.951 . S
C400 C399 1.424 . S
C400 C401 1.348 . S
C401 H393 0.951 1_455 S
C401 C396 1.427 1_455 S
C401 C400 1.348 . S
H402 C403 0.951 . S
C403 H402 0.951 . S
C403 C409 1.265 . S
H404 C409 0.950 . S
H405 C413 0.949 1_455 S
H406 C414 0.950 . S
H407 C415 0.951 . S
H408 C416 0.951 . S
C409 C403 1.265 . S
C409 H404 0.950 . S
C409 C410 1.478 . S
C410 C409 1.478 . S
C410 C411 1.397 . S
C410 C427 1.394 1_655 S
C411 C410 1.397 . S
C411 C412 1.438 . S
C411 C416 1.429 . S
C412 C411 1.438 . S
C412 C413 1.428 . S
C412 C425 1.394 1_655 S
C413 H405 0.949 1_655 S
C413 C412 1.428 . S
C413 C414 1.345 . S
C414 H406 0.950 . S
C414 C413 1.345 . S
C414 C415 1.424 . S
C415 H407 0.951 . S
C415 C414 1.424 . S
C415 C416 1.347 . S
C416 H408 0.951 . S
C416 C411 1.429 . S
C416 C415 1.347 . S
H417 C418 0.951 . S
C418 H417 0.951 . S
C418 C424 1.265 . S
H419 C424 0.950 . S
H420 C428 0.949 1_655 S
H421 C429 0.950 . S
H422 C430 0.951 . S
H423 C431 0.951 . S
C424 C418 1.265 . S
C424 H419 0.950 . S
C424 C425 1.478 . S
C425 C412 1.394 1_455 S
C425 C424 1.478 . S
C425 C426 1.397 . S
C426 C425 1.397 . S
C426 C427 1.438 . S
C426 C431 1.429 . S
C427 C410 1.394 1_455 S
C427 C426 1.438 . S
C427 C428 1.428 . S
C428 H420 0.949 1_455 S
C428 C427 1.428 . S
C428 C429 1.345 . S
C429 H421 0.950 . S
C429 C428 1.345 . S
C429 C430 1.424 . S
C430 H422 0.951 . S
C430 C429 1.424 . S
C430 C431 1.347 . S
C431 H423 0.951 . S
C431 C426 1.429 . S
C431 C430 1.347 . S
H432 C433 0.951 . S
C433 H432 0.951 . S
C433 C439 1.265 . S
H434 C439 0.950 . S
H435 C443 0.949 . S
H436 C444 0.950 . S
H437 C445 0.951 . S
H438 C446 0.951 . S
C439 C433 1.265 . S
C439 H434 0.950 . S
C439 C440 1.478 . S
C440 C439 1.478 . S
C440 C441 1.397 . S
C440 C457 1.394 . S
C441 C440 1.397 . S
C441 C442 1.438 1_545 S
C441 C446 1.429 . S
C442 C441 1.438 1_565 S
C442 C443 1.428 . S
C442 C455 1.394 . S
C443 H435 0.949 . S
C443 C442 1.428 . S
C443 C444 1.345 . S
C444 H436 0.950 . S
C444 C443 1.345 . S
C444 C445 1.424 . S
C445 H437 0.951 . S
C445 C444 1.424 . S
C445 C446 1.347 1_565 S
C446 H438 0.951 . S
C446 C441 1.429 . S
C446 C445 1.347 1_545 S
H447 C448 0.951 . S
C448 H447 0.951 . S
C448 C454 1.265 . S
H449 C454 0.950 . S
H450 C458 0.949 . S
H451 C459 0.950 . S
H452 C460 0.951 . S
H453 C461 0.951 . S
C454 C448 1.265 . S
C454 H449 0.950 . S
C454 C455 1.478 . S
C455 C442 1.394 . S
C455 C454 1.478 . S
C455 C456 1.397 . S
C456 C455 1.397 . S
C456 C457 1.438 1_565 S
C456 C461 1.429 . S
C457 C440 1.394 . S
C457 C456 1.438 1_545 S
C457 C458 1.428 . S
C458 H450 0.949 . S
C458 C457 1.428 . S
C458 C459 1.345 . S
C459 H451 0.950 . S
C459 C458 1.345 . S
C459 C460 1.424 . S
C460 H452 0.951 . S
C460 C459 1.424 . S
C460 C461 1.347 1_545 S
C461 H453 0.951 . S
C461 C456 1.429 . S
C461 C460 1.347 1_565 S
H462 C463 0.951 . S
C463 H462 0.951 . S
C463 C469 1.265 . S
H464 C469 0.950 . S
H465 C473 0.949 . S
H466 C474 0.950 . S
H467 C475 0.951 . S
H468 C476 0.951 . S
C469 C463 1.265 . S
C469 H464 0.950 . S
C469 C470 1.478 . S
C470 C469 1.478 . S
C470 C471 1.397 . S
C470 C487 1.394 . S
C471 C470 1.397 . S
C471 C472 1.438 . S
C471 C476 1.429 . S
C472 C471 1.438 . S
C472 C473 1.428 . S
C472 C485 1.394 . S
C473 H465 0.949 . S
C473 C472 1.428 . S
C473 C474 1.345 . S
C474 H466 0.950 . S
C474 C473 1.345 . S
C474 C475 1.424 . S
C475 H467 0.951 . S
C475 C474 1.424 . S
C475 C476 1.347 . S
C476 H468 0.951 . S
C476 C471 1.429 . S
C476 C475 1.347 . S
H477 C478 0.951 . S
C478 H477 0.951 . S
C478 C484 1.265 . S
H479 C484 0.950 . S
H480 C488 0.949 . S
H481 C489 0.950 . S
H482 C490 0.951 . S
H483 C491 0.951 . S
C484 C478 1.265 . S
C484 H479 0.950 . S
C484 C485 1.478 . S
C485 C472 1.394 . S
C485 C484 1.478 . S
C485 C486 1.397 . S
C486 C485 1.397 . S
C486 C487 1.438 . S
C486 C491 1.429 . S
C487 C470 1.394 . S
C487 C486 1.438 . S
C487 C488 1.428 . S
C488 H480 0.949 . S
C488 C487 1.428 . S
C488 C489 1.345 . S
C489 H481 0.950 . S
C489 C488 1.345 . S
C489 C490 1.424 . S
C490 H482 0.951 . S
C490 C489 1.424 . S
C490 C491 1.347 . S
C491 H483 0.951 . S
C491 C486 1.429 . S
C491 C490 1.347 . S
H492 C493 0.951 1_655 S
C493 H492 0.951 1_455 S
C493 C499 1.265 . S
H494 C499 0.950 . S
H495 C503 0.949 . S
H496 C504 0.950 . S
H497 C505 0.951 . S
H498 C506 0.951 . S
C499 C493 1.265 . S
C499 H494 0.950 . S
C499 C500 1.478 . S
C500 C499 1.478 . S
C500 C501 1.397 . S
C500 C517 1.394 . S
C501 C500 1.397 . S
C501 C502 1.438 1_556 S
C501 C506 1.429 . S
C502 C501 1.438 1_554 S
C502 C503 1.428 . S
C502 C515 1.394 . S
C503 H495 0.949 . S
C503 C502 1.428 . S
C503 C504 1.345 1_554 S
C504 H496 0.950 . S
C504 C503 1.345 1_556 S
C504 C505 1.424 . S
C505 H497 0.951 . S
C505 C504 1.424 . S
C505 C506 1.347 . S
C506 H498 0.951 . S
C506 C501 1.429 . S
C506 C505 1.347 . S
H507 C508 0.951 . S
C508 H507 0.951 . S
C508 C514 1.265 . S
H509 C514 0.950 . S
H510 C518 0.949 1_655 S
H511 C519 0.950 . S
H512 C520 0.951 1_655 S
H513 C521 0.951 . S
C514 C508 1.265 . S
C514 H509 0.950 . S
C514 C515 1.478 . S
C515 C502 1.394 . S
C515 C514 1.478 . S
C515 C516 1.397 . S
C516 C515 1.397 . S
C516 C517 1.438 1_554 S
C516 C521 1.429 . S
C517 C500 1.394 . S
C517 C516 1.438 1_556 S
C517 C518 1.428 . S
C518 H510 0.949 1_455 S
C518 C517 1.428 . S
C518 C519 1.345 1_456 S
C519 H511 0.950 . S
C519 C518 1.345 1_654 S
C519 C520 1.424 1_655 S
C520 H512 0.951 1_455 S
C520 C519 1.424 1_455 S
C520 C521 1.347 . S
C521 H513 0.951 . S
C521 C516 1.429 . S
C521 C520 1.347 . S
H522 C523 0.951 . S
C523 H522 0.951 . S
C523 C529 1.265 . S
H524 C529 0.950 . S
H525 C533 0.949 1_455 S
H526 C534 0.950 . S
H527 C535 0.951 1_455 S
H528 C536 0.951 . S
C529 C523 1.265 . S
C529 H524 0.950 . S
C529 C530 1.478 . S
C530 C529 1.478 . S
C530 C531 1.397 . S
C530 C547 1.394 . S
C531 C530 1.397 . S
C531 C532 1.438 . S
C531 C536 1.429 . S
C532 C531 1.438 . S
C532 C533 1.428 . S
C532 C545 1.394 . S
C533 H525 0.949 1_655 S
C533 C532 1.428 . S
C533 C534 1.345 1_655 S
C534 H526 0.950 . S
C534 C533 1.345 1_455 S
C534 C535 1.424 1_455 S
C535 H527 0.951 1_655 S
C535 C534 1.424 1_655 S
C535 C536 1.347 . S
C536 H528 0.951 . S
C536 C531 1.429 . S
C536 C535 1.347 . S
H537 C538 0.951 1_455 S
C538 H537 0.951 1_655 S
C538 C544 1.265 . S
H539 C544 0.950 . S
H540 C548 0.949 1_565 S
H541 C549 0.950 1_565 S
H542 C550 0.951 . S
H543 C551 0.951 . S
C544 C538 1.265 . S
C544 H539 0.950 . S
C544 C545 1.478 . S
C545 C532 1.394 . S
C545 C544 1.478 . S
C545 C546 1.397 . S
C546 C545 1.397 . S
C546 C547 1.438 . S
C546 C551 1.429 . S
C547 C530 1.394 . S
C547 C546 1.438 . S
C547 C548 1.428 . S
C548 H540 0.949 1_545 S
C548 C547 1.428 . S
C548 C549 1.345 . S
C549 H541 0.950 1_545 S
C549 C548 1.345 . S
C549 C550 1.424 . S
C550 H542 0.951 . S
C550 C549 1.424 . S
C550 C551 1.347 . S
C551 H543 0.951 . S
C551 C546 1.429 . S
C551 C550 1.347 . S
H552 C553 0.951 . S
C553 H552 0.951 . S
C553 C559 1.265 . S
H554 C559 0.950 . S
H555 C563 0.949 . S
H556 C564 0.950 . S
H557 C565 0.951 1_545 S
H558 C566 0.951 1_545 S
C559 C553 1.265 . S
C559 H554 0.950 . S
C559 C560 1.478 . S
C560 C559 1.478 . S
C560 C561 1.397 . S
C560 C577 1.394 . S
C561 C560 1.397 . S
C561 C562 1.438 . S
C561 C566 1.429 . S
C562 C561 1.438 . S
C562 C563 1.428 . S
C562 C575 1.394 . S
C563 H555 0.949 . S
C563 C562 1.428 . S
C563 C564 1.345 . S
C564 H556 0.950 . S
C564 C563 1.345 . S
C564 C565 1.424 . S
C565 H557 0.951 1_565 S
C565 C564 1.424 . S
C565 C566 1.347 . S
C566 H558 0.951 1_565 S
C566 C561 1.429 . S
C566 C565 1.347 . S
H567 C568 0.951 . S
C568 H567 0.951 . S
C568 C574 1.265 . S
H569 C574 0.950 . S
H570 C578 0.949 . S
H571 C579 0.950 . S
H572 C580 0.951 . S
H573 C581 0.951 . S
C574 C568 1.265 . S
C574 H569 0.950 . S
C574 C575 1.478 . S
C575 C562 1.394 . S
C575 C574 1.478 . S
C575 C576 1.397 . S
C576 C575 1.397 . S
C576 C577 1.438 . S
C576 C581 1.429 . S
C577 C560 1.394 . S
C577 C576 1.438 . S
C577 C578 1.428 . S
C578 H570 0.949 . S
C578 C577 1.428 . S
C578 C579 1.345 . S
C579 H571 0.950 . S
C579 C578 1.345 . S
C579 C580 1.424 . S
C580 H572 0.951 . S
C580 C579 1.424 . S
C580 C581 1.347 . S
C581 H573 0.951 . S
C581 C576 1.429 . S
C581 C580 1.347 . S
H582 C583 0.951 . S
C583 H582 0.951 . S
C583 C589 1.265 . S
H584 C589 0.950 . S
H585 C593 0.949 . S
H586 C594 0.950 . S
H587 C595 0.951 . S
H588 C596 0.951 1_554 S
C589 C583 1.265 . S
C589 H584 0.950 . S
C589 C590 1.478 . S
C590 C589 1.478 . S
C590 C591 1.397 1_554 S
C590 C607 1.394 . S
C591 C590 1.397 1_556 S
C591 C592 1.438 . S
C591 C596 1.429 . S
C592 C591 1.438 . S
C592 C593 1.428 . S
C592 C605 1.394 . S
C593 H585 0.949 . S
C593 C592 1.428 . S
C593 C594 1.345 . S
C594 H586 0.950 . S
C594 C593 1.345 . S
C594 C595 1.424 . S
C595 H587 0.951 . S
C595 C594 1.424 . S
C595 C596 1.347 . S
C596 H588 0.951 1_556 S
C596 C591 1.429 . S
C596 C595 1.347 . S
H597 C598 0.951 . S
C598 H597 0.951 . S
C598 C604 1.265 . S
H599 C604 0.950 1_455 S
H600 C608 0.949 . S
H601 C609 0.950 . S
H602 C610 0.951 . S
H603 C611 0.951 1_556 S
C604 C598 1.265 . S
C604 H599 0.950 1_655 S
C604 C605 1.478 . S
C605 C592 1.394 . S
C605 C604 1.478 . S
C605 C606 1.397 1_556 S
C606 C605 1.397 1_554 S
C606 C607 1.438 . S
C606 C611 1.429 . S
C607 C590 1.394 . S
C607 C606 1.438 . S
C607 C608 1.428 . S
C608 H600 0.949 . S
C608 C607 1.428 . S
C608 C609 1.345 . S
C609 H601 0.950 . S
C609 C608 1.345 . S
C609 C610 1.424 . S
C610 H602 0.951 . S
C610 C609 1.424 . S
C610 C611 1.347 . S
C611 H603 0.951 1_554 S
C611 C606 1.429 . S
C611 C610 1.347 . S
H612 C613 0.951 . S
C613 H612 0.951 . S
C613 C619 1.265 . S
H614 C619 0.950 . S
H615 C623 0.949 . S
H616 C624 0.950 . S
H617 C625 0.951 1_545 S
H618 C626 0.951 1_545 S
C619 C613 1.265 . S
C619 H614 0.950 . S
C619 C620 1.478 . S
C620 C619 1.478 . S
C620 C621 1.397 . S
C620 C637 1.394 . S
C621 C620 1.397 . S
C621 C622 1.438 . S
C621 C626 1.429 . S
C622 C621 1.438 . S
C622 C623 1.428 . S
C622 C635 1.394 . S
C623 H615 0.949 . S
C623 C622 1.428 . S
C623 C624 1.345 . S
C624 H616 0.950 . S
C624 C623 1.345 . S
C624 C625 1.424 . S
C625 H617 0.951 1_565 S
C625 C624 1.424 . S
C625 C626 1.347 . S
C626 H618 0.951 1_565 S
C626 C621 1.429 . S
C626 C625 1.347 . S
H627 C628 0.951 . S
C628 H627 0.951 . S
C628 C634 1.265 . S
H629 C634 0.950 1_655 S
H630 C638 0.949 . S
H631 C639 0.950 . S
H632 C640 0.951 1_655 S
H633 C641 0.951 1_655 S
C634 C628 1.265 . S
C634 H629 0.950 1_455 S
C634 C635 1.478 . S
C635 C622 1.394 . S
C635 C634 1.478 . S
C635 C636 1.397 . S
C636 C635 1.397 . S
C636 C637 1.438 . S
C636 C641 1.429 . S
C637 C620 1.394 . S
C637 C636 1.438 . S
C637 C638 1.428 . S
C638 H630 0.949 . S
C638 C637 1.428 . S
C638 C639 1.345 . S
C639 H631 0.950 . S
C639 C638 1.345 . S
C639 C640 1.424 . S
C640 H632 0.951 1_455 S
C640 C639 1.424 . S
C640 C641 1.347 . S
C641 H633 0.951 1_455 S
C641 C636 1.429 . S
C641 C640 1.347 . S
H642 C643 0.951 . S
C643 H642 0.951 . S
C643 C649 1.265 . S
H644 C649 0.950 . S
H645 C653 0.949 . S
H646 C654 0.950 . S
H647 C655 0.959 . S
H648 C656 0.951 1_565 S
C649 C643 1.265 . S
C649 H644 0.950 . S
C649 C650 1.478 . S
C650 C649 1.478 . S
C650 C651 1.397 . S
C650 C667 1.394 . S
C651 C650 1.397 . S
C651 C652 1.438 . S
C651 C656 1.429 . S
C652 C651 1.438 . S
C652 C653 1.428 . S
C652 C665 1.394 . S
C653 H645 0.949 . S
C653 C652 1.428 . S
C653 C654 1.345 . S
C654 H646 0.950 . S
C654 C653 1.345 . S
C654 C655 1.416 1_545 S
C655 H647 0.959 . S
C655 C654 1.416 1_565 S
C655 C656 1.346 1_565 S
C656 H648 0.951 1_545 S
C656 C651 1.429 . S
C656 C655 1.346 1_545 S
H657 C658 0.951 . S
C658 H657 0.951 . S
C658 C664 1.265 . S
H659 C664 0.950 . S
H660 C668 0.949 . S
H661 C669 0.950 . S
H662 C670 0.951 . S
H663 C671 0.951 . S
C664 C658 1.265 . S
C664 H659 0.950 . S
C664 C665 1.478 . S
C665 C652 1.394 . S
C665 C664 1.478 . S
C665 C666 1.397 . S
C666 C665 1.397 . S
C666 C667 1.438 . S
C666 C671 1.429 . S
C667 C650 1.394 . S
C667 C666 1.438 . S
C667 C668 1.428 . S
C668 H660 0.949 . S
C668 C667 1.428 . S
C668 C669 1.345 . S
C669 H661 0.950 . S
C669 C668 1.345 . S
C669 C670 1.424 . S
C670 H662 0.951 . S
C670 C669 1.424 . S
C670 C671 1.347 . S
C671 H663 0.951 . S
C671 C666 1.429 . S
C671 C670 1.347 . S
C133 C5 1.232 . S
C148 C71 1.267 . S
C163 C16 1.230 . S
C178 C82 1.266 . S
C193 C27 1.359 . S
C208 C93 1.358 . S
C223 C104 1.299 . S
C238 C38 1.264 . S
C253 C49 1.287 . S
C268 C115 1.252 . S
C283 C126 1.177 . S
C298 C60 1.169 . S
C313 C7 1.494 . S
C328 C40 1.494 . S
C343 C18 1.399 . S
C358 C51 1.401 . S
C373 C62 1.494 . S
C388 C29 1.494 . S
C403 C73 1.444 . S
C418 C106 1.431 . S
C433 C117 1.494 . S
C448 C84 1.491 . S
C463 C128 1.400 . S
C478 C95 1.400 . S
C493 C118 1.505 1_455 S
C508 C8 1.502 . S
C523 C129 1.511 1_545 S
C538 C19 1.470 1_655 S
C553 C30 1.462 1_565 S
C568 C74 1.496 . S
C583 C41 1.470 . S
C598 C85 1.475 1_655 S
C613 C96 1.463 1_565 S
C628 C52 1.500 1_455 S
C643 C63 1.462 1_545 S
C658 C107 1.494 . S
