# Generated by pormake.
# Topology kfi, (4)-cn, num edge types: 1
# Building blocks:
#     Node 0, Type 0, BuildingBlock: QUQFOY_clean_sbu_1, # of connection points: 4
#     Node 1, Type 0, BuildingBlock: QUQFOY_clean_sbu_1, # of connection points: 4
#     Node 2, Type 0, BuildingBlock: QUQFOY_clean_sbu_1, # of connection points: 4
#     Node 3, Type 0, BuildingBlock: QUQFOY_clean_sbu_1, # of connection points: 4
#     Node 4, Type 0, BuildingBlock: QUQFOY_clean_sbu_1, # of connection points: 4
#     Node 5, Type 0, BuildingBlock: QUQFOY_clean_sbu_1, # of connection points: 4
#     Node 6, Type 0, BuildingBlock: QUQFOY_clean_sbu_1, # of connection points: 4
#     Node 7, Type 0, BuildingBlock: QUQFOY_clean_sbu_1, # of connection points: 4
#     Node 8, Type 0, BuildingBlock: QUQFOY_clean_sbu_1, # of connection points: 4
#     Node 9, Type 0, BuildingBlock: QUQFOY_clean_sbu_1, # of connection points: 4
#     Node 10, Type 0, BuildingBlock: QUQFOY_clean_sbu_1, # of connection points: 4
#     Node 11, Type 0, BuildingBlock: QUQFOY_clean_sbu_1, # of connection points: 4
#     Node 12, Type 0, BuildingBlock: QUQFOY_clean_sbu_1, # of connection points: 4
#     Node 13, Type 0, BuildingBlock: QUQFOY_clean_sbu_1, # of connection points: 4
#     Node 14, Type 0, BuildingBlock: QUQFOY_clean_sbu_1, # of connection points: 4
#     Node 15, Type 0, BuildingBlock: QUQFOY_clean_sbu_1, # of connection points: 4
#     Node 16, Type 0, BuildingBlock: QUQFOY_clean_sbu_1, # of connection points: 4
#     Node 17, Type 0, BuildingBlock: QUQFOY_clean_sbu_1, # of connection points: 4
#     Node 18, Type 0, BuildingBlock: QUQFOY_clean_sbu_1, # of connection points: 4
#     Node 19, Type 0, BuildingBlock: QUQFOY_clean_sbu_1, # of connection points: 4
#     Node 20, Type 0, BuildingBlock: QUQFOY_clean_sbu_1, # of connection points: 4
#     Node 21, Type 0, BuildingBlock: QUQFOY_clean_sbu_1, # of connection points: 4
#     Node 22, Type 0, BuildingBlock: QUQFOY_clean_sbu_1, # of connection points: 4
#     Node 23, Type 0, BuildingBlock: QUQFOY_clean_sbu_1, # of connection points: 4
#     Node 24, Type 0, BuildingBlock: QUQFOY_clean_sbu_1, # of connection points: 4
#     Node 25, Type 0, BuildingBlock: QUQFOY_clean_sbu_1, # of connection points: 4
#     Node 26, Type 0, BuildingBlock: QUQFOY_clean_sbu_1, # of connection points: 4
#     Node 27, Type 0, BuildingBlock: QUQFOY_clean_sbu_1, # of connection points: 4
#     Node 28, Type 0, BuildingBlock: QUQFOY_clean_sbu_1, # of connection points: 4
#     Node 29, Type 0, BuildingBlock: QUQFOY_clean_sbu_1, # of connection points: 4
#     Node 30, Type 0, BuildingBlock: QUQFOY_clean_sbu_1, # of connection points: 4
#     Node 31, Type 0, BuildingBlock: QUQFOY_clean_sbu_1, # of connection points: 4
#     Node 32, Type 0, BuildingBlock: QUQFOY_clean_sbu_1, # of connection points: 4
#     Node 33, Type 0, BuildingBlock: QUQFOY_clean_sbu_1, # of connection points: 4
#     Node 34, Type 0, BuildingBlock: QUQFOY_clean_sbu_1, # of connection points: 4
#     Node 35, Type 0, BuildingBlock: QUQFOY_clean_sbu_1, # of connection points: 4
#     Node 36, Type 0, BuildingBlock: QUQFOY_clean_sbu_1, # of connection points: 4
#     Node 37, Type 0, BuildingBlock: QUQFOY_clean_sbu_1, # of connection points: 4
#     Node 38, Type 0, BuildingBlock: QUQFOY_clean_sbu_1, # of connection points: 4
#     Node 39, Type 0, BuildingBlock: QUQFOY_clean_sbu_1, # of connection points: 4
#     Node 40, Type 0, BuildingBlock: QUQFOY_clean_sbu_1, # of connection points: 4
#     Node 41, Type 0, BuildingBlock: QUQFOY_clean_sbu_1, # of connection points: 4
#     Node 42, Type 0, BuildingBlock: QUQFOY_clean_sbu_1, # of connection points: 4
#     Node 43, Type 0, BuildingBlock: QUQFOY_clean_sbu_1, # of connection points: 4
#     Node 44, Type 0, BuildingBlock: QUQFOY_clean_sbu_1, # of connection points: 4
#     Node 45, Type 0, BuildingBlock: QUQFOY_clean_sbu_1, # of connection points: 4
#     Node 46, Type 0, BuildingBlock: QUQFOY_clean_sbu_1, # of connection points: 4
#     Node 47, Type 0, BuildingBlock: QUQFOY_clean_sbu_1, # of connection points: 4
#     Node 48, Type 0, BuildingBlock: QUQFOY_clean_sbu_1, # of connection points: 4
#     Node 49, Type 0, BuildingBlock: QUQFOY_clean_sbu_1, # of connection points: 4
#     Node 50, Type 0, BuildingBlock: QUQFOY_clean_sbu_1, # of connection points: 4
#     Node 51, Type 0, BuildingBlock: QUQFOY_clean_sbu_1, # of connection points: 4
#     Node 52, Type 0, BuildingBlock: QUQFOY_clean_sbu_1, # of connection points: 4
#     Node 53, Type 0, BuildingBlock: QUQFOY_clean_sbu_1, # of connection points: 4
#     Node 54, Type 0, BuildingBlock: QUQFOY_clean_sbu_1, # of connection points: 4
#     Node 55, Type 0, BuildingBlock: QUQFOY_clean_sbu_1, # of connection points: 4
#     Node 56, Type 0, BuildingBlock: QUQFOY_clean_sbu_1, # of connection points: 4
#     Node 57, Type 0, BuildingBlock: QUQFOY_clean_sbu_1, # of connection points: 4
#     Node 58, Type 0, BuildingBlock: QUQFOY_clean_sbu_1, # of connection points: 4
#     Node 59, Type 0, BuildingBlock: QUQFOY_clean_sbu_1, # of connection points: 4
#     Node 60, Type 0, BuildingBlock: QUQFOY_clean_sbu_1, # of connection points: 4
#     Node 61, Type 0, BuildingBlock: QUQFOY_clean_sbu_1, # of connection points: 4
#     Node 62, Type 0, BuildingBlock: QUQFOY_clean_sbu_1, # of connection points: 4
#     Node 63, Type 0, BuildingBlock: QUQFOY_clean_sbu_1, # of connection points: 4
#     Node 64, Type 0, BuildingBlock: QUQFOY_clean_sbu_1, # of connection points: 4
#     Node 65, Type 0, BuildingBlock: QUQFOY_clean_sbu_1, # of connection points: 4
#     Node 66, Type 0, BuildingBlock: QUQFOY_clean_sbu_1, # of connection points: 4
#     Node 67, Type 0, BuildingBlock: QUQFOY_clean_sbu_1, # of connection points: 4
#     Node 68, Type 0, BuildingBlock: QUQFOY_clean_sbu_1, # of connection points: 4
#     Node 69, Type 0, BuildingBlock: QUQFOY_clean_sbu_1, # of connection points: 4
#     Node 70, Type 0, BuildingBlock: QUQFOY_clean_sbu_1, # of connection points: 4
#     Node 71, Type 0, BuildingBlock: QUQFOY_clean_sbu_1, # of connection points: 4
#     Node 72, Type 0, BuildingBlock: QUQFOY_clean_sbu_1, # of connection points: 4
#     Node 73, Type 0, BuildingBlock: QUQFOY_clean_sbu_1, # of connection points: 4
#     Node 74, Type 0, BuildingBlock: QUQFOY_clean_sbu_1, # of connection points: 4
#     Node 75, Type 0, BuildingBlock: QUQFOY_clean_sbu_1, # of connection points: 4
#     Node 76, Type 0, BuildingBlock: QUQFOY_clean_sbu_1, # of connection points: 4
#     Node 77, Type 0, BuildingBlock: QUQFOY_clean_sbu_1, # of connection points: 4
#     Node 78, Type 0, BuildingBlock: QUQFOY_clean_sbu_1, # of connection points: 4
#     Node 79, Type 0, BuildingBlock: QUQFOY_clean_sbu_1, # of connection points: 4
#     Node 80, Type 0, BuildingBlock: QUQFOY_clean_sbu_1, # of connection points: 4
#     Node 81, Type 0, BuildingBlock: QUQFOY_clean_sbu_1, # of connection points: 4
#     Node 82, Type 0, BuildingBlock: QUQFOY_clean_sbu_1, # of connection points: 4
#     Node 83, Type 0, BuildingBlock: QUQFOY_clean_sbu_1, # of connection points: 4
#     Node 84, Type 0, BuildingBlock: QUQFOY_clean_sbu_1, # of connection points: 4
#     Node 85, Type 0, BuildingBlock: QUQFOY_clean_sbu_1, # of connection points: 4
#     Node 86, Type 0, BuildingBlock: QUQFOY_clean_sbu_1, # of connection points: 4
#     Node 87, Type 0, BuildingBlock: QUQFOY_clean_sbu_1, # of connection points: 4
#     Node 88, Type 0, BuildingBlock: QUQFOY_clean_sbu_1, # of connection points: 4
#     Node 89, Type 0, BuildingBlock: QUQFOY_clean_sbu_1, # of connection points: 4
#     Node 90, Type 0, BuildingBlock: QUQFOY_clean_sbu_1, # of connection points: 4
#     Node 91, Type 0, BuildingBlock: QUQFOY_clean_sbu_1, # of connection points: 4
#     Node 92, Type 0, BuildingBlock: QUQFOY_clean_sbu_1, # of connection points: 4
#     Node 93, Type 0, BuildingBlock: QUQFOY_clean_sbu_1, # of connection points: 4
#     Node 94, Type 0, BuildingBlock: QUQFOY_clean_sbu_1, # of connection points: 4
#     Node 95, Type 0, BuildingBlock: QUQFOY_clean_sbu_1, # of connection points: 4
#     Edge 96, Type (0, 0), BuildingBlock: CIFDUS_clean_linker_0, # of connection points: 2
#     Edge 97, Type (0, 0), BuildingBlock: CIFDUS_clean_linker_0, # of connection points: 2
#     Edge 98, Type (0, 0), BuildingBlock: CIFDUS_clean_linker_0, # of connection points: 2
#     Edge 99, Type (0, 0), BuildingBlock: CIFDUS_clean_linker_0, # of connection points: 2
#     Edge 100, Type (0, 0), BuildingBlock: CIFDUS_clean_linker_0, # of connection points: 2
#     Edge 101, Type (0, 0), BuildingBlock: CIFDUS_clean_linker_0, # of connection points: 2
#     Edge 102, Type (0, 0), BuildingBlock: CIFDUS_clean_linker_0, # of connection points: 2
#     Edge 103, Type (0, 0), BuildingBlock: CIFDUS_clean_linker_0, # of connection points: 2
#     Edge 104, Type (0, 0), BuildingBlock: CIFDUS_clean_linker_0, # of connection points: 2
#     Edge 105, Type (0, 0), BuildingBlock: CIFDUS_clean_linker_0, # of connection points: 2
#     Edge 106, Type (0, 0), BuildingBlock: CIFDUS_clean_linker_0, # of connection points: 2
#     Edge 107, Type (0, 0), BuildingBlock: CIFDUS_clean_linker_0, # of connection points: 2
#     Edge 108, Type (0, 0), BuildingBlock: CIFDUS_clean_linker_0, # of connection points: 2
#     Edge 109, Type (0, 0), BuildingBlock: CIFDUS_clean_linker_0, # of connection points: 2
#     Edge 110, Type (0, 0), BuildingBlock: CIFDUS_clean_linker_0, # of connection points: 2
#     Edge 111, Type (0, 0), BuildingBlock: CIFDUS_clean_linker_0, # of connection points: 2
#     Edge 112, Type (0, 0), BuildingBlock: CIFDUS_clean_linker_0, # of connection points: 2
#     Edge 113, Type (0, 0), BuildingBlock: CIFDUS_clean_linker_0, # of connection points: 2
#     Edge 114, Type (0, 0), BuildingBlock: CIFDUS_clean_linker_0, # of connection points: 2
#     Edge 115, Type (0, 0), BuildingBlock: CIFDUS_clean_linker_0, # of connection points: 2
#     Edge 116, Type (0, 0), BuildingBlock: CIFDUS_clean_linker_0, # of connection points: 2
#     Edge 117, Type (0, 0), BuildingBlock: CIFDUS_clean_linker_0, # of connection points: 2
#     Edge 118, Type (0, 0), BuildingBlock: CIFDUS_clean_linker_0, # of connection points: 2
#     Edge 119, Type (0, 0), BuildingBlock: CIFDUS_clean_linker_0, # of connection points: 2
#     Edge 120, Type (0, 0), BuildingBlock: CIFDUS_clean_linker_0, # of connection points: 2
#     Edge 121, Type (0, 0), BuildingBlock: CIFDUS_clean_linker_0, # of connection points: 2
#     Edge 122, Type (0, 0), BuildingBlock: CIFDUS_clean_linker_0, # of connection points: 2
#     Edge 123, Type (0, 0), BuildingBlock: CIFDUS_clean_linker_0, # of connection points: 2
#     Edge 124, Type (0, 0), BuildingBlock: CIFDUS_clean_linker_0, # of connection points: 2
#     Edge 125, Type (0, 0), BuildingBlock: CIFDUS_clean_linker_0, # of connection points: 2
#     Edge 126, Type (0, 0), BuildingBlock: CIFDUS_clean_linker_0, # of connection points: 2
#     Edge 127, Type (0, 0), BuildingBlock: CIFDUS_clean_linker_0, # of connection points: 2
#     Edge 128, Type (0, 0), BuildingBlock: CIFDUS_clean_linker_0, # of connection points: 2
#     Edge 129, Type (0, 0), BuildingBlock: CIFDUS_clean_linker_0, # of connection points: 2
#     Edge 130, Type (0, 0), BuildingBlock: CIFDUS_clean_linker_0, # of connection points: 2
#     Edge 131, Type (0, 0), BuildingBlock: CIFDUS_clean_linker_0, # of connection points: 2
#     Edge 132, Type (0, 0), BuildingBlock: CIFDUS_clean_linker_0, # of connection points: 2
#     Edge 133, Type (0, 0), BuildingBlock: CIFDUS_clean_linker_0, # of connection points: 2
#     Edge 134, Type (0, 0), BuildingBlock: CIFDUS_clean_linker_0, # of connection points: 2
#     Edge 135, Type (0, 0), BuildingBlock: CIFDUS_clean_linker_0, # of connection points: 2
#     Edge 136, Type (0, 0), BuildingBlock: CIFDUS_clean_linker_0, # of connection points: 2
#     Edge 137, Type (0, 0), BuildingBlock: CIFDUS_clean_linker_0, # of connection points: 2
#     Edge 138, Type (0, 0), BuildingBlock: CIFDUS_clean_linker_0, # of connection points: 2
#     Edge 139, Type (0, 0), BuildingBlock: CIFDUS_clean_linker_0, # of connection points: 2
#     Edge 140, Type (0, 0), BuildingBlock: CIFDUS_clean_linker_0, # of connection points: 2
#     Edge 141, Type (0, 0), BuildingBlock: CIFDUS_clean_linker_0, # of connection points: 2
#     Edge 142, Type (0, 0), BuildingBlock: CIFDUS_clean_linker_0, # of connection points: 2
#     Edge 143, Type (0, 0), BuildingBlock: CIFDUS_clean_linker_0, # of connection points: 2
#     Edge 144, Type (0, 0), BuildingBlock: CIFDUS_clean_linker_0, # of connection points: 2
#     Edge 145, Type (0, 0), BuildingBlock: CIFDUS_clean_linker_0, # of connection points: 2
#     Edge 146, Type (0, 0), BuildingBlock: CIFDUS_clean_linker_0, # of connection points: 2
#     Edge 147, Type (0, 0), BuildingBlock: CIFDUS_clean_linker_0, # of connection points: 2
#     Edge 148, Type (0, 0), BuildingBlock: CIFDUS_clean_linker_0, # of connection points: 2
#     Edge 149, Type (0, 0), BuildingBlock: CIFDUS_clean_linker_0, # of connection points: 2
#     Edge 150, Type (0, 0), BuildingBlock: CIFDUS_clean_linker_0, # of connection points: 2
#     Edge 151, Type (0, 0), BuildingBlock: CIFDUS_clean_linker_0, # of connection points: 2
#     Edge 152, Type (0, 0), BuildingBlock: CIFDUS_clean_linker_0, # of connection points: 2
#     Edge 153, Type (0, 0), BuildingBlock: CIFDUS_clean_linker_0, # of connection points: 2
#     Edge 154, Type (0, 0), BuildingBlock: CIFDUS_clean_linker_0, # of connection points: 2
#     Edge 155, Type (0, 0), BuildingBlock: CIFDUS_clean_linker_0, # of connection points: 2
#     Edge 156, Type (0, 0), BuildingBlock: CIFDUS_clean_linker_0, # of connection points: 2
#     Edge 157, Type (0, 0), BuildingBlock: CIFDUS_clean_linker_0, # of connection points: 2
#     Edge 158, Type (0, 0), BuildingBlock: CIFDUS_clean_linker_0, # of connection points: 2
#     Edge 159, Type (0, 0), BuildingBlock: CIFDUS_clean_linker_0, # of connection points: 2
#     Edge 160, Type (0, 0), BuildingBlock: CIFDUS_clean_linker_0, # of connection points: 2
#     Edge 161, Type (0, 0), BuildingBlock: CIFDUS_clean_linker_0, # of connection points: 2
#     Edge 162, Type (0, 0), BuildingBlock: CIFDUS_clean_linker_0, # of connection points: 2
#     Edge 163, Type (0, 0), BuildingBlock: CIFDUS_clean_linker_0, # of connection points: 2
#     Edge 164, Type (0, 0), BuildingBlock: CIFDUS_clean_linker_0, # of connection points: 2
#     Edge 165, Type (0, 0), BuildingBlock: CIFDUS_clean_linker_0, # of connection points: 2
#     Edge 166, Type (0, 0), BuildingBlock: CIFDUS_clean_linker_0, # of connection points: 2
#     Edge 167, Type (0, 0), BuildingBlock: CIFDUS_clean_linker_0, # of connection points: 2
#     Edge 168, Type (0, 0), BuildingBlock: CIFDUS_clean_linker_0, # of connection points: 2
#     Edge 169, Type (0, 0), BuildingBlock: CIFDUS_clean_linker_0, # of connection points: 2
#     Edge 170, Type (0, 0), BuildingBlock: CIFDUS_clean_linker_0, # of connection points: 2
#     Edge 171, Type (0, 0), BuildingBlock: CIFDUS_clean_linker_0, # of connection points: 2
#     Edge 172, Type (0, 0), BuildingBlock: CIFDUS_clean_linker_0, # of connection points: 2
#     Edge 173, Type (0, 0), BuildingBlock: CIFDUS_clean_linker_0, # of connection points: 2
#     Edge 174, Type (0, 0), BuildingBlock: CIFDUS_clean_linker_0, # of connection points: 2
#     Edge 175, Type (0, 0), BuildingBlock: CIFDUS_clean_linker_0, # of connection points: 2
#     Edge 176, Type (0, 0), BuildingBlock: CIFDUS_clean_linker_0, # of connection points: 2
#     Edge 177, Type (0, 0), BuildingBlock: CIFDUS_clean_linker_0, # of connection points: 2
#     Edge 178, Type (0, 0), BuildingBlock: CIFDUS_clean_linker_0, # of connection points: 2
#     Edge 179, Type (0, 0), BuildingBlock: CIFDUS_clean_linker_0, # of connection points: 2
#     Edge 180, Type (0, 0), BuildingBlock: CIFDUS_clean_linker_0, # of connection points: 2
#     Edge 181, Type (0, 0), BuildingBlock: CIFDUS_clean_linker_0, # of connection points: 2
#     Edge 182, Type (0, 0), BuildingBlock: CIFDUS_clean_linker_0, # of connection points: 2
#     Edge 183, Type (0, 0), BuildingBlock: CIFDUS_clean_linker_0, # of connection points: 2
#     Edge 184, Type (0, 0), BuildingBlock: CIFDUS_clean_linker_0, # of connection points: 2
#     Edge 185, Type (0, 0), BuildingBlock: CIFDUS_clean_linker_0, # of connection points: 2
#     Edge 186, Type (0, 0), BuildingBlock: CIFDUS_clean_linker_0, # of connection points: 2
#     Edge 187, Type (0, 0), BuildingBlock: CIFDUS_clean_linker_0, # of connection points: 2
#     Edge 188, Type (0, 0), BuildingBlock: CIFDUS_clean_linker_0, # of connection points: 2
#     Edge 189, Type (0, 0), BuildingBlock: CIFDUS_clean_linker_0, # of connection points: 2
#     Edge 190, Type (0, 0), BuildingBlock: CIFDUS_clean_linker_0, # of connection points: 2
#     Edge 191, Type (0, 0), BuildingBlock: CIFDUS_clean_linker_0, # of connection points: 2
#     Edge 192, Type (0, 0), BuildingBlock: CIFDUS_clean_linker_0, # of connection points: 2
#     Edge 193, Type (0, 0), BuildingBlock: CIFDUS_clean_linker_0, # of connection points: 2
#     Edge 194, Type (0, 0), BuildingBlock: CIFDUS_clean_linker_0, # of connection points: 2
#     Edge 195, Type (0, 0), BuildingBlock: CIFDUS_clean_linker_0, # of connection points: 2
#     Edge 196, Type (0, 0), BuildingBlock: CIFDUS_clean_linker_0, # of connection points: 2
#     Edge 197, Type (0, 0), BuildingBlock: CIFDUS_clean_linker_0, # of connection points: 2
#     Edge 198, Type (0, 0), BuildingBlock: CIFDUS_clean_linker_0, # of connection points: 2
#     Edge 199, Type (0, 0), BuildingBlock: CIFDUS_clean_linker_0, # of connection points: 2
#     Edge 200, Type (0, 0), BuildingBlock: CIFDUS_clean_linker_0, # of connection points: 2
#     Edge 201, Type (0, 0), BuildingBlock: CIFDUS_clean_linker_0, # of connection points: 2
#     Edge 202, Type (0, 0), BuildingBlock: CIFDUS_clean_linker_0, # of connection points: 2
#     Edge 203, Type (0, 0), BuildingBlock: CIFDUS_clean_linker_0, # of connection points: 2
#     Edge 204, Type (0, 0), BuildingBlock: CIFDUS_clean_linker_0, # of connection points: 2
#     Edge 205, Type (0, 0), BuildingBlock: CIFDUS_clean_linker_0, # of connection points: 2
#     Edge 206, Type (0, 0), BuildingBlock: CIFDUS_clean_linker_0, # of connection points: 2
#     Edge 207, Type (0, 0), BuildingBlock: CIFDUS_clean_linker_0, # of connection points: 2
#     Edge 208, Type (0, 0), BuildingBlock: CIFDUS_clean_linker_0, # of connection points: 2
#     Edge 209, Type (0, 0), BuildingBlock: CIFDUS_clean_linker_0, # of connection points: 2
#     Edge 210, Type (0, 0), BuildingBlock: CIFDUS_clean_linker_0, # of connection points: 2
#     Edge 211, Type (0, 0), BuildingBlock: CIFDUS_clean_linker_0, # of connection points: 2
#     Edge 212, Type (0, 0), BuildingBlock: CIFDUS_clean_linker_0, # of connection points: 2
#     Edge 213, Type (0, 0), BuildingBlock: CIFDUS_clean_linker_0, # of connection points: 2
#     Edge 214, Type (0, 0), BuildingBlock: CIFDUS_clean_linker_0, # of connection points: 2
#     Edge 215, Type (0, 0), BuildingBlock: CIFDUS_clean_linker_0, # of connection points: 2
#     Edge 216, Type (0, 0), BuildingBlock: CIFDUS_clean_linker_0, # of connection points: 2
#     Edge 217, Type (0, 0), BuildingBlock: CIFDUS_clean_linker_0, # of connection points: 2
#     Edge 218, Type (0, 0), BuildingBlock: CIFDUS_clean_linker_0, # of connection points: 2
#     Edge 219, Type (0, 0), BuildingBlock: CIFDUS_clean_linker_0, # of connection points: 2
#     Edge 220, Type (0, 0), BuildingBlock: CIFDUS_clean_linker_0, # of connection points: 2
#     Edge 221, Type (0, 0), BuildingBlock: CIFDUS_clean_linker_0, # of connection points: 2
#     Edge 222, Type (0, 0), BuildingBlock: CIFDUS_clean_linker_0, # of connection points: 2
#     Edge 223, Type (0, 0), BuildingBlock: CIFDUS_clean_linker_0, # of connection points: 2
#     Edge 224, Type (0, 0), BuildingBlock: CIFDUS_clean_linker_0, # of connection points: 2
#     Edge 225, Type (0, 0), BuildingBlock: CIFDUS_clean_linker_0, # of connection points: 2
#     Edge 226, Type (0, 0), BuildingBlock: CIFDUS_clean_linker_0, # of connection points: 2
#     Edge 227, Type (0, 0), BuildingBlock: CIFDUS_clean_linker_0, # of connection points: 2
#     Edge 228, Type (0, 0), BuildingBlock: CIFDUS_clean_linker_0, # of connection points: 2
#     Edge 229, Type (0, 0), BuildingBlock: CIFDUS_clean_linker_0, # of connection points: 2
#     Edge 230, Type (0, 0), BuildingBlock: CIFDUS_clean_linker_0, # of connection points: 2
#     Edge 231, Type (0, 0), BuildingBlock: CIFDUS_clean_linker_0, # of connection points: 2
#     Edge 232, Type (0, 0), BuildingBlock: CIFDUS_clean_linker_0, # of connection points: 2
#     Edge 233, Type (0, 0), BuildingBlock: CIFDUS_clean_linker_0, # of connection points: 2
#     Edge 234, Type (0, 0), BuildingBlock: CIFDUS_clean_linker_0, # of connection points: 2
#     Edge 235, Type (0, 0), BuildingBlock: CIFDUS_clean_linker_0, # of connection points: 2
#     Edge 236, Type (0, 0), BuildingBlock: CIFDUS_clean_linker_0, # of connection points: 2
#     Edge 237, Type (0, 0), BuildingBlock: CIFDUS_clean_linker_0, # of connection points: 2
#     Edge 238, Type (0, 0), BuildingBlock: CIFDUS_clean_linker_0, # of connection points: 2
#     Edge 239, Type (0, 0), BuildingBlock: CIFDUS_clean_linker_0, # of connection points: 2
#     Edge 240, Type (0, 0), BuildingBlock: CIFDUS_clean_linker_0, # of connection points: 2
#     Edge 241, Type (0, 0), BuildingBlock: CIFDUS_clean_linker_0, # of connection points: 2
#     Edge 242, Type (0, 0), BuildingBlock: CIFDUS_clean_linker_0, # of connection points: 2
#     Edge 243, Type (0, 0), BuildingBlock: CIFDUS_clean_linker_0, # of connection points: 2
#     Edge 244, Type (0, 0), BuildingBlock: CIFDUS_clean_linker_0, # of connection points: 2
#     Edge 245, Type (0, 0), BuildingBlock: CIFDUS_clean_linker_0, # of connection points: 2
#     Edge 246, Type (0, 0), BuildingBlock: CIFDUS_clean_linker_0, # of connection points: 2
#     Edge 247, Type (0, 0), BuildingBlock: CIFDUS_clean_linker_0, # of connection points: 2
#     Edge 248, Type (0, 0), BuildingBlock: CIFDUS_clean_linker_0, # of connection points: 2
#     Edge 249, Type (0, 0), BuildingBlock: CIFDUS_clean_linker_0, # of connection points: 2
#     Edge 250, Type (0, 0), BuildingBlock: CIFDUS_clean_linker_0, # of connection points: 2
#     Edge 251, Type (0, 0), BuildingBlock: CIFDUS_clean_linker_0, # of connection points: 2
#     Edge 252, Type (0, 0), BuildingBlock: CIFDUS_clean_linker_0, # of connection points: 2
#     Edge 253, Type (0, 0), BuildingBlock: CIFDUS_clean_linker_0, # of connection points: 2
#     Edge 254, Type (0, 0), BuildingBlock: CIFDUS_clean_linker_0, # of connection points: 2
#     Edge 255, Type (0, 0), BuildingBlock: CIFDUS_clean_linker_0, # of connection points: 2
#     Edge 256, Type (0, 0), BuildingBlock: CIFDUS_clean_linker_0, # of connection points: 2
#     Edge 257, Type (0, 0), BuildingBlock: CIFDUS_clean_linker_0, # of connection points: 2
#     Edge 258, Type (0, 0), BuildingBlock: CIFDUS_clean_linker_0, # of connection points: 2
#     Edge 259, Type (0, 0), BuildingBlock: CIFDUS_clean_linker_0, # of connection points: 2
#     Edge 260, Type (0, 0), BuildingBlock: CIFDUS_clean_linker_0, # of connection points: 2
#     Edge 261, Type (0, 0), BuildingBlock: CIFDUS_clean_linker_0, # of connection points: 2
#     Edge 262, Type (0, 0), BuildingBlock: CIFDUS_clean_linker_0, # of connection points: 2
#     Edge 263, Type (0, 0), BuildingBlock: CIFDUS_clean_linker_0, # of connection points: 2
#     Edge 264, Type (0, 0), BuildingBlock: CIFDUS_clean_linker_0, # of connection points: 2
#     Edge 265, Type (0, 0), BuildingBlock: CIFDUS_clean_linker_0, # of connection points: 2
#     Edge 266, Type (0, 0), BuildingBlock: CIFDUS_clean_linker_0, # of connection points: 2
#     Edge 267, Type (0, 0), BuildingBlock: CIFDUS_clean_linker_0, # of connection points: 2
#     Edge 268, Type (0, 0), BuildingBlock: CIFDUS_clean_linker_0, # of connection points: 2
#     Edge 269, Type (0, 0), BuildingBlock: CIFDUS_clean_linker_0, # of connection points: 2
#     Edge 270, Type (0, 0), BuildingBlock: CIFDUS_clean_linker_0, # of connection points: 2
#     Edge 271, Type (0, 0), BuildingBlock: CIFDUS_clean_linker_0, # of connection points: 2
#     Edge 272, Type (0, 0), BuildingBlock: CIFDUS_clean_linker_0, # of connection points: 2
#     Edge 273, Type (0, 0), BuildingBlock: CIFDUS_clean_linker_0, # of connection points: 2
#     Edge 274, Type (0, 0), BuildingBlock: CIFDUS_clean_linker_0, # of connection points: 2
#     Edge 275, Type (0, 0), BuildingBlock: CIFDUS_clean_linker_0, # of connection points: 2
#     Edge 276, Type (0, 0), BuildingBlock: CIFDUS_clean_linker_0, # of connection points: 2
#     Edge 277, Type (0, 0), BuildingBlock: CIFDUS_clean_linker_0, # of connection points: 2
#     Edge 278, Type (0, 0), BuildingBlock: CIFDUS_clean_linker_0, # of connection points: 2
#     Edge 279, Type (0, 0), BuildingBlock: CIFDUS_clean_linker_0, # of connection points: 2
#     Edge 280, Type (0, 0), BuildingBlock: CIFDUS_clean_linker_0, # of connection points: 2
#     Edge 281, Type (0, 0), BuildingBlock: CIFDUS_clean_linker_0, # of connection points: 2
#     Edge 282, Type (0, 0), BuildingBlock: CIFDUS_clean_linker_0, # of connection points: 2
#     Edge 283, Type (0, 0), BuildingBlock: CIFDUS_clean_linker_0, # of connection points: 2
#     Edge 284, Type (0, 0), BuildingBlock: CIFDUS_clean_linker_0, # of connection points: 2
#     Edge 285, Type (0, 0), BuildingBlock: CIFDUS_clean_linker_0, # of connection points: 2
#     Edge 286, Type (0, 0), BuildingBlock: CIFDUS_clean_linker_0, # of connection points: 2
#     Edge 287, Type (0, 0), BuildingBlock: CIFDUS_clean_linker_0, # of connection points: 2
# Relax obj value: 0.103
# Max RMSD: 0.144
# Mean RMSD: 0.144
data_MOF--net-kfi--node1-QUQFOY_clean_sbu_1--edge1-CIFDUS_clean_linker_0
_symmetry_space_group_name_H-M    P1
_symmetry_Int_Tables_number       1
_symmetry_cell_setting            triclinic
loop_
_symmetry_equiv_pos_as_xyz
'x, y, z'
_cell_length_a     83.784219
_cell_length_b     83.828587
_cell_length_c     83.80082
_cell_angle_alpha  90.020543
_cell_angle_beta   90.012295
_cell_angle_gamma 90.0129
loop_
_atom_site_label
_atom_site_type_symbol
_atom_site_fract_x
_atom_site_fract_y
_atom_site_fract_z
_atom_type_partial_charge
O0 O 0.11063 0.2175 0.33073 0.0
Cd1 Cd 0.10078 0.2032 0.31324 0.0
Cd2 Cd 0.07241 0.21783 0.32601 0.0
O3 O 0.08863 0.22502 0.34314 0.0
O4 O 0.11987 0.19187 0.30488 0.0
O5 O 0.09995 0.17917 0.31646 0.0
C6 C 0.11376 0.17864 0.30965 0.0
C7 C 0.04626 0.21343 0.33503 0.0
C8 C 0.10376 0.22475 0.34214 0.0
C9 C 0.08231 0.22518 0.29182 0.0
O10 O 0.0736 0.22859 0.30377 0.0
O11 O 0.09299 0.21449 0.2929 0.0
O12 O 0.05259 0.22739 0.33485 0.0
O13 O 0.05486 0.2016 0.3302 0.0
O14 O 0.77899 0.10851 0.33238 0.0
Cd15 Cd 0.79355 0.09858 0.31514 0.0
Cd16 Cd 0.78371 0.07149 0.33088 0.0
O17 O 0.77679 0.0876 0.34816 0.0
O18 O 0.80442 0.1175 0.30577 0.0
O19 O 0.8175 0.09853 0.31851 0.0
C20 C 0.81775 0.11207 0.31117 0.0
C21 C 0.79265 0.04613 0.33837 0.0
C22 C 0.77423 0.10227 0.34535 0.0
C23 C 0.77154 0.07744 0.29741 0.0
O24 O 0.76968 0.07035 0.31067 0.0
O25 O 0.78202 0.0883 0.296 0.0
O26 O 0.77829 0.05084 0.34107 0.0
O27 O 0.80246 0.05623 0.33212 0.0
O28 O 0.88894 0.77812 0.33245 0.0
Cd29 Cd 0.89934 0.79315 0.31597 0.0
Cd30 Cd 0.92688 0.77967 0.32965 0.0
O31 O 0.91045 0.77187 0.34626 0.0
O32 O 0.88038 0.80439 0.30733 0.0
O33 O 0.89955 0.81699 0.32025 0.0
C34 C 0.88594 0.81751 0.31303 0.0
C35 C 0.9523 0.78612 0.33925 0.0
C36 C 0.89543 0.77131 0.34433 0.0
C37 C 0.91919 0.77217 0.29511 0.0
O38 O 0.92711 0.76862 0.30755 0.0
O39 O 0.9084 0.78279 0.29567 0.0
O40 O 0.94697 0.77174 0.33935 0.0
O41 O 0.94304 0.7972 0.3339 0.0
O42 O 0.22272 0.8882 0.32329 0.0
Cd43 Cd 0.2082 0.89895 0.30655 0.0
Cd44 Cd 0.22412 0.92627 0.32161 0.0
O45 O 0.23121 0.90874 0.33745 0.0
O46 O 0.19875 0.87964 0.29642 0.0
O47 O 0.18404 0.8973 0.30911 0.0
C48 C 0.18492 0.88404 0.30134 0.0
C49 C 0.22004 0.95215 0.33152 0.0
C50 C 0.23045 0.89379 0.33509 0.0
C51 C 0.23049 0.91888 0.28663 0.0
O52 O 0.23461 0.92616 0.29928 0.0
O53 O 0.21924 0.90872 0.28689 0.0
O54 O 0.23391 0.9456 0.33132 0.0
O55 O 0.2081 0.94378 0.32654 0.0
O56 O 0.10714 0.78514 0.67312 0.0
Cd57 Cd 0.09494 0.79971 0.68873 0.0
Cd58 Cd 0.06975 0.78613 0.67082 0.0
O59 O 0.08815 0.77967 0.65574 0.0
O60 O 0.11308 0.81061 0.69955 0.0
O61 O 0.09557 0.82364 0.6849 0.0
C62 C 0.1085 0.82384 0.69327 0.0
C63 C 0.04448 0.79176 0.6602 0.0
C64 C 0.10268 0.77891 0.66003 0.0
C65 C 0.0738 0.77691 0.70568 0.0
O66 O 0.06809 0.7737 0.692 0.0
O67 O 0.08363 0.78834 0.70739 0.0
O68 O 0.0508 0.77781 0.65921 0.0
O69 O 0.05289 0.80298 0.66658 0.0
O70 O 0.22408 0.11265 0.67872 0.0
Cd71 Cd 0.20931 0.10091 0.69453 0.0
Cd72 Cd 0.22584 0.07502 0.67952 0.0
O73 O 0.23294 0.09276 0.66393 0.0
O74 O 0.19881 0.11958 0.70469 0.0
O75 O 0.18529 0.10185 0.69078 0.0
C76 C 0.1854 0.11493 0.69889 0.0
C77 C 0.22101 0.0493 0.66965 0.0
C78 C 0.23202 0.10761 0.66683 0.0
C79 C 0.23172 0.08163 0.71459 0.0
O80 O 0.2364 0.07496 0.7018 0.0
O81 O 0.21995 0.09117 0.71441 0.0
O82 O 0.23505 0.05553 0.66962 0.0
O83 O 0.20934 0.05794 0.67479 0.0
O84 O 0.8916 0.22002 0.66726 0.0
Cd85 Cd 0.90286 0.20654 0.68458 0.0
Cd86 Cd 0.92857 0.21659 0.66781 0.0
O87 O 0.91186 0.22243 0.65072 0.0
O88 O 0.88467 0.19599 0.69547 0.0
O89 O 0.90299 0.18248 0.6822 0.0
C90 C 0.88992 0.18249 0.69037 0.0
C91 C 0.95301 0.20567 0.66024 0.0
C92 C 0.89718 0.22443 0.65387 0.0
C93 C 0.92421 0.2295 0.70097 0.0
O94 O 0.93055 0.23151 0.68735 0.0
O95 O 0.91378 0.21869 0.70295 0.0
O96 O 0.94912 0.2201 0.65672 0.0
O97 O 0.94258 0.19695 0.6675 0.0
O98 O 0.77935 0.89506 0.66956 0.0
Cd99 Cd 0.79304 0.90496 0.6875 0.0
Cd100 Cd 0.77799 0.9328 0.67508 0.0
O101 O 0.77179 0.91704 0.65721 0.0
O102 O 0.80473 0.886 0.69561 0.0
O103 O 0.81708 0.90644 0.68457 0.0
C104 C 0.81786 0.8925 0.69106 0.0
C105 C 0.78243 0.95932 0.66745 0.0
C106 C 0.77233 0.90192 0.65801 0.0
C107 C 0.76994 0.92208 0.70873 0.0
O108 O 0.76639 0.93069 0.69677 0.0
O109 O 0.78121 0.912 0.70784 0.0
O110 O 0.76855 0.95282 0.66666 0.0
O111 O 0.79417 0.95063 0.67232 0.0
O112 O 0.33503 0.10899 0.22027 0.0
Cd113 Cd 0.31787 0.09881 0.20576 0.0
Cd114 Cd 0.33446 0.07224 0.2151 0.0
O115 O 0.35146 0.08857 0.2222 0.0
O116 O 0.30682 0.11802 0.19739 0.0
O117 O 0.31973 0.10127 0.18172 0.0
C118 C 0.31154 0.11423 0.18329 0.0
C119 C 0.34222 0.04823 0.20333 0.0
C120 C 0.34824 0.10313 0.22486 0.0
C121 C 0.30104 0.07634 0.22741 0.0
O122 O 0.31456 0.0698 0.22947 0.0
O123 O 0.29937 0.0872 0.21699 0.0
O124 O 0.34546 0.05152 0.21798 0.0
O125 O 0.33512 0.059 0.19491 0.0
O126 O 0.88547 0.3235 0.21376 0.0
Cd127 Cd 0.89665 0.30663 0.19975 0.0
Cd128 Cd 0.9236 0.3219 0.21586 0.0
O129 O 0.90587 0.33767 0.22256 0.0
O130 O 0.87768 0.2963 0.18985 0.0
O131 O 0.89567 0.309 0.17554 0.0
C132 C 0.88244 0.30116 0.17612 0.0
C133 C 0.94941 0.33222 0.21211 0.0
C134 C 0.89092 0.33533 0.22152 0.0
C135 C 0.916 0.2871 0.22286 0.0
O136 O 0.92338 0.29977 0.22672 0.0
O137 O 0.906 0.28715 0.21146 0.0
O138 O 0.94265 0.33197 0.22588 0.0
O139 O 0.94136 0.32692 0.20009 0.0
O140 O 0.66861 0.8904 0.22039 0.0
Cd141 Cd 0.68664 0.89969 0.20641 0.0
Cd142 Cd 0.66986 0.92838 0.21639 0.0
O143 O 0.65297 0.9115 0.22241 0.0
O144 O 0.69716 0.87986 0.1986 0.0
O145 O 0.68556 0.89692 0.18231 0.0
C146 C 0.69308 0.88363 0.18429 0.0
C147 C 0.66047 0.95419 0.2109 0.0
C148 C 0.65557 0.89677 0.2248 0.0
C149 C 0.70366 0.92193 0.2284 0.0
O150 O 0.69046 0.92925 0.22991 0.0
O151 O 0.70511 0.9107 0.21833 0.0
O152 O 0.65894 0.9477 0.22469 0.0
O153 O 0.66688 0.94578 0.19971 0.0
O154 O 0.11694 0.67789 0.21932 0.0
Cd155 Cd 0.10636 0.69451 0.20452 0.0
Cd156 Cd 0.07931 0.67997 0.21828 0.0
O157 O 0.09594 0.66374 0.22648 0.0
O158 O 0.12555 0.70443 0.19476 0.0
O159 O 0.10768 0.69147 0.18046 0.0
C160 C 0.12094 0.69928 0.18107 0.0
C161 C 0.05439 0.67083 0.20959 0.0
C162 C 0.11093 0.66604 0.22662 0.0
C163 C 0.08597 0.71448 0.2261 0.0
O164 O 0.07846 0.70181 0.22971 0.0
O165 O 0.09656 0.71428 0.21527 0.0
O166 O 0.05869 0.66995 0.22431 0.0
O167 O 0.06454 0.67648 0.19946 0.0
O168 O 0.3351 0.89097 0.77943 0.0
Cd169 Cd 0.31834 0.90164 0.79396 0.0
Cd170 Cd 0.33426 0.92868 0.78286 0.0
O171 O 0.35065 0.91181 0.77554 0.0
O172 O 0.30874 0.88301 0.80507 0.0
O173 O 0.32196 0.90183 0.81789 0.0
C174 C 0.31438 0.88842 0.8183 0.0
C175 C 0.34436 0.95349 0.79077 0.0
C176 C 0.34785 0.89702 0.77389 0.0
C177 C 0.29999 0.92304 0.77241 0.0
O178 O 0.31311 0.93035 0.77017 0.0
O179 O 0.2991 0.91193 0.78267 0.0
O180 O 0.34539 0.94851 0.77629 0.0
O181 O 0.33782 0.94418 0.80114 0.0
O182 O 0.10875 0.32196 0.77689 0.0
Cd183 Cd 0.09621 0.30601 0.79077 0.0
Cd184 Cd 0.07109 0.32456 0.77735 0.0
O185 O 0.08983 0.33929 0.77104 0.0
O186 O 0.1141 0.29427 0.80107 0.0
O187 O 0.09701 0.3087 0.81489 0.0
C188 C 0.10968 0.29995 0.81463 0.0
C189 C 0.04616 0.33588 0.78321 0.0
C190 C 0.10439 0.33505 0.77062 0.0
C191 C 0.07471 0.28984 0.76747 0.0
O192 O 0.0689 0.30356 0.76468 0.0
O193 O 0.08476 0.28789 0.77867 0.0
O194 O 0.05242 0.33676 0.76923 0.0
O195 O 0.05441 0.32913 0.79433 0.0
O196 O 0.6676 0.10951 0.78607 0.0
Cd197 Cd 0.68512 0.1005 0.80086 0.0
Cd198 Cd 0.66919 0.07206 0.79036 0.0
O199 O 0.65215 0.08837 0.78318 0.0
O200 O 0.69542 0.12061 0.80822 0.0
O201 O 0.68346 0.10414 0.82483 0.0
C202 C 0.69103 0.11736 0.82255 0.0
C203 C 0.66088 0.04663 0.7986 0.0
C204 C 0.65485 0.10311 0.78092 0.0
C205 C 0.70311 0.07856 0.77935 0.0
O206 O 0.69002 0.0712 0.77716 0.0
O207 O 0.70409 0.08957 0.78973 0.0
O208 O 0.65896 0.05155 0.78419 0.0
O209 O 0.66701 0.05645 0.80877 0.0
O210 O 0.89397 0.67583 0.78039 0.0
Cd211 Cd 0.906 0.69204 0.79448 0.0
Cd212 Cd 0.93143 0.6737 0.78055 0.0
O213 O 0.91294 0.65855 0.77454 0.0
O214 O 0.88749 0.7041 0.80319 0.0
O215 O 0.90355 0.69016 0.81861 0.0
C216 C 0.89097 0.69893 0.81719 0.0
C217 C 0.95671 0.66322 0.78632 0.0
C218 C 0.89837 0.66274 0.77415 0.0
C219 C 0.92747 0.70845 0.77127 0.0
O220 O 0.93304 0.69475 0.76791 0.0
O221 O 0.91779 0.71019 0.78281 0.0
O222 O 0.95038 0.66199 0.77239 0.0
O223 O 0.9483 0.66974 0.79746 0.0
O224 O 0.21988 0.32121 0.11441 0.0
Cd225 Cd 0.20554 0.30442 0.10356 0.0
Cd226 Cd 0.21671 0.32294 0.07662 0.0
O227 O 0.22404 0.33811 0.09465 0.0
O228 O 0.19665 0.29317 0.12254 0.0
O229 O 0.18146 0.30664 0.10586 0.0
C230 C 0.18271 0.29841 0.11881 0.0
C231 C 0.21033 0.33381 0.05157 0.0
C232 C 0.22557 0.33428 0.10925 0.0
C233 C 0.22742 0.2883 0.08056 0.0
O234 O 0.22924 0.30192 0.07416 0.0
O235 O 0.21729 0.2863 0.09168 0.0
O236 O 0.22446 0.33465 0.05747 0.0
O237 O 0.19934 0.3274 0.06025 0.0
O238 O 0.21945 0.66916 0.89099 0.0
Cd239 Cd 0.20636 0.68742 0.90106 0.0
Cd240 Cd 0.21519 0.67261 0.92827 0.0
O241 O 0.22176 0.65466 0.91277 0.0
O242 O 0.19486 0.69697 0.88272 0.0
O243 O 0.18239 0.68508 0.90268 0.0
C244 C 0.18168 0.69233 0.8891 0.0
C245 C 0.2041 0.66518 0.95271 0.0
C246 C 0.22386 0.6564 0.89787 0.0
C247 C 0.22898 0.7052 0.92169 0.0
O248 O 0.2299 0.69239 0.92975 0.0
O249 O 0.21911 0.70627 0.91024 0.0
O250 O 0.21871 0.66213 0.94914 0.0
O251 O 0.19538 0.6722 0.94214 0.0
O252 O 0.32051 0.22318 0.88677 0.0
Cd253 Cd 0.30412 0.20869 0.89808 0.0
Cd254 Cd 0.32151 0.21987 0.92401 0.0
O255 O 0.33726 0.22739 0.90662 0.0
O256 O 0.29328 0.19844 0.87962 0.0
O257 O 0.30739 0.18472 0.89709 0.0
C258 C 0.29907 0.18496 0.88412 0.0
C259 C 0.33104 0.21041 0.94849 0.0
C260 C 0.33356 0.2289 0.89199 0.0
C261 C 0.28718 0.23045 0.92042 0.0
O262 O 0.30078 0.23287 0.92668 0.0
O263 O 0.28551 0.21994 0.90961 0.0
O264 O 0.33292 0.22501 0.94413 0.0
O265 O 0.32443 0.20072 0.93848 0.0
O266 O 0.78297 0.32522 0.88611 0.0
Cd267 Cd 0.79654 0.30798 0.89736 0.0
Cd268 Cd 0.7824 0.32344 0.92375 0.0
O269 O 0.77503 0.33957 0.90668 0.0
O270 O 0.8062 0.29714 0.87862 0.0
O271 O 0.8208 0.30964 0.89656 0.0
C272 C 0.82006 0.30156 0.88347 0.0
C273 C 0.79146 0.3327 0.94847 0.0
C274 C 0.77561 0.33724 0.89172 0.0
C275 C 0.77335 0.28923 0.91736 0.0
O276 O 0.77015 0.30208 0.92475 0.0
O277 O 0.78439 0.2889 0.90699 0.0
O278 O 0.77676 0.33405 0.94419 0.0
O279 O 0.80135 0.32647 0.93842 0.0
O280 O 0.67479 0.781 0.88679 0.0
Cd281 Cd 0.69029 0.79608 0.89849 0.0
Cd282 Cd 0.67354 0.78247 0.92467 0.0
O283 O 0.65869 0.77456 0.90659 0.0
O284 O 0.69972 0.80827 0.8804 0.0
O285 O 0.68502 0.81969 0.89901 0.0
C286 C 0.69285 0.8209 0.88579 0.0
C287 C 0.66243 0.78762 0.94987 0.0
C288 C 0.66231 0.77404 0.89187 0.0
C289 C 0.70886 0.77478 0.91993 0.0
O290 O 0.69557 0.77163 0.92653 0.0
O291 O 0.70976 0.78541 0.90915 0.0
O292 O 0.66259 0.77356 0.94374 0.0
O293 O 0.66801 0.79918 0.94137 0.0
O294 O 0.78418 0.67624 0.11309 0.0
Cd295 Cd 0.79913 0.69394 0.10473 0.0
Cd296 Cd 0.78743 0.68203 0.07571 0.0
O297 O 0.77955 0.66382 0.09034 0.0
O298 O 0.81061 0.70079 0.12436 0.0
O299 O 0.82298 0.68991 0.10382 0.0
C300 C 0.82368 0.69575 0.11807 0.0
C301 C 0.79494 0.67532 0.04959 0.0
C302 C 0.77811 0.66466 0.10541 0.0
C303 C 0.77799 0.71551 0.08608 0.0
O304 O 0.77549 0.7036 0.07703 0.0
O305 O 0.78822 0.71463 0.09724 0.0
O306 O 0.78043 0.67419 0.05445 0.0
O307 O 0.80557 0.67989 0.05976 0.0
O308 O 0.32625 0.77952 0.11249 0.0
Cd309 Cd 0.3109 0.79437 0.10025 0.0
Cd310 Cd 0.32578 0.77806 0.07468 0.0
O311 O 0.34114 0.77087 0.0926 0.0
O312 O 0.30195 0.80741 0.11796 0.0
O313 O 0.31632 0.81794 0.09861 0.0
C314 C 0.30862 0.81978 0.11183 0.0
C315 C 0.33606 0.78172 0.0489 0.0
C316 C 0.33816 0.77162 0.10745 0.0
C317 C 0.29056 0.77224 0.08127 0.0
O318 O 0.30337 0.76779 0.07449 0.0
O319 O 0.29069 0.78386 0.09101 0.0
O320 O 0.33565 0.76794 0.05563 0.0
O321 O 0.33114 0.79382 0.05707 0.0
O322 O 0.67869 0.21947 0.1117 0.0
Cd323 Cd 0.69346 0.20421 0.09927 0.0
Cd324 Cd 0.67802 0.21823 0.07461 0.0
O325 O 0.66254 0.22614 0.09209 0.0
O326 O 0.7029 0.19165 0.11694 0.0
O327 O 0.68768 0.18072 0.09844 0.0
C328 C 0.69579 0.1792 0.11145 0.0
C329 C 0.66806 0.20913 0.05024 0.0
C330 C 0.66623 0.22655 0.10679 0.0
C331 C 0.71289 0.22577 0.07915 0.0
O332 O 0.6997 0.22988 0.07288 0.0
O333 O 0.71335 0.21429 0.08902 0.0
O334 O 0.66703 0.22388 0.05442 0.0
O335 O 0.6743 0.1992 0.06024 0.0
O336 O 0.8889 0.78768 0.67551 0.0
Cd337 Cd 0.89935 0.80249 0.6922 0.0
Cd338 Cd 0.92642 0.78916 0.67644 0.0
O339 O 0.90946 0.78156 0.66026 0.0
O340 O 0.87985 0.81069 0.70293 0.0
O341 O 0.89631 0.82651 0.68994 0.0
C342 C 0.88331 0.82478 0.698 0.0
C343 C 0.95143 0.79762 0.6673 0.0
C344 C 0.89459 0.78097 0.66316 0.0
C345 C 0.92053 0.78067 0.71099 0.0
O346 O 0.92743 0.77715 0.69795 0.0
O347 O 0.91016 0.7917 0.71145 0.0
O348 O 0.94685 0.78301 0.66606 0.0
O349 O 0.94149 0.80779 0.67324 0.0
O350 O 0.21803 0.89153 0.6727 0.0
Cd351 Cd 0.20438 0.89964 0.69159 0.0
Cd352 Cd 0.21738 0.92932 0.67875 0.0
O353 O 0.22407 0.91412 0.66053 0.0
O354 O 0.19596 0.87915 0.70022 0.0
O355 O 0.18012 0.89777 0.6906 0.0
C356 C 0.18173 0.88384 0.69694 0.0
C357 C 0.21106 0.95577 0.67205 0.0
C358 C 0.2244 0.89898 0.66112 0.0
C359 C 0.22713 0.91856 0.71203 0.0
O360 O 0.22969 0.92754 0.70008 0.0
O361 O 0.21656 0.90771 0.71137 0.0
O362 O 0.22527 0.95017 0.67058 0.0
O363 O 0.20005 0.94617 0.67693 0.0
O364 O 0.11025 0.214 0.66485 0.0
Cd365 Cd 0.10042 0.19952 0.6822 0.0
Cd366 Cd 0.07192 0.2132 0.66888 0.0
O367 O 0.08822 0.22046 0.65195 0.0
O368 O 0.11968 0.18909 0.69124 0.0
O369 O 0.10069 0.17546 0.67913 0.0
C370 C 0.11427 0.17557 0.68641 0.0
C371 C 0.04616 0.20837 0.65921 0.0
C372 C 0.10331 0.22075 0.65318 0.0
C373 C 0.08069 0.22088 0.70319 0.0
O374 O 0.07228 0.22421 0.69101 0.0
O375 O 0.09163 0.21044 0.70234 0.0
O376 O 0.05231 0.22241 0.65937 0.0
O377 O 0.0547 0.1967 0.66449 0.0
O378 O 0.78152 0.11599 0.67919 0.0
Cd379 Cd 0.79572 0.10645 0.69693 0.0
Cd380 Cd 0.78256 0.07823 0.68314 0.0
O381 O 0.77497 0.09418 0.666 0.0
O382 O 0.80508 0.12616 0.70619 0.0
O383 O 0.81984 0.10779 0.69453 0.0
C384 C 0.81893 0.12142 0.70164 0.0
C385 C 0.78993 0.05261 0.67485 0.0
C386 C 0.77473 0.10926 0.66741 0.0
C387 C 0.77386 0.08656 0.71719 0.0
O388 O 0.77079 0.07837 0.7048 0.0
O389 O 0.78442 0.09741 0.71679 0.0
O390 O 0.77545 0.05762 0.67391 0.0
O391 O 0.80061 0.06239 0.68012 0.0
O392 O 0.88945 0.21766 0.33067 0.0
Cd393 Cd 0.89824 0.20373 0.31232 0.0
Cd394 Cd 0.92682 0.21361 0.32828 0.0
O395 O 0.91078 0.21971 0.34599 0.0
O396 O 0.87806 0.19631 0.30218 0.0
O397 O 0.89505 0.17969 0.3134 0.0
C398 C 0.88164 0.18194 0.30617 0.0
C399 C 0.95262 0.2055 0.33547 0.0
C400 C 0.89599 0.22205 0.34364 0.0
C401 C 0.91996 0.22583 0.29486 0.0
O402 O 0.92727 0.22763 0.30802 0.0
O403 O 0.90897 0.21547 0.29355 0.0
O404 O 0.94749 0.21971 0.33817 0.0
O405 O 0.94274 0.19538 0.32935 0.0
O406 O 0.77909 0.88859 0.3323 0.0
Cd407 Cd 0.79355 0.8971 0.31428 0.0
Cd408 Cd 0.78011 0.927 0.32717 0.0
O409 O 0.77239 0.91109 0.34428 0.0
O410 O 0.80135 0.87665 0.30521 0.0
O411 O 0.81764 0.89426 0.31595 0.0
C412 C 0.81564 0.88064 0.30906 0.0
C413 C 0.785 0.95289 0.33658 0.0
C414 C 0.77217 0.89596 0.34359 0.0
C415 C 0.77255 0.91728 0.29301 0.0
O416 O 0.76945 0.92623 0.30487 0.0
O417 O 0.7826 0.90603 0.29425 0.0
O418 O 0.77089 0.9469 0.33611 0.0
O419 O 0.79669 0.94414 0.3317 0.0
O420 O 0.1081 0.78645 0.33118 0.0
Cd421 Cd 0.09802 0.80044 0.31359 0.0
Cd422 Cd 0.07073 0.78966 0.32928 0.0
O423 O 0.08704 0.78351 0.34666 0.0
O424 O 0.11712 0.81058 0.30382 0.0
O425 O 0.09854 0.8245 0.31621 0.0
C426 C 0.11205 0.82417 0.30881 0.0
C427 C 0.04508 0.79745 0.33713 0.0
C428 C 0.10185 0.78159 0.34411 0.0
C429 C 0.07743 0.77777 0.29581 0.0
O430 O 0.0702 0.77571 0.30898 0.0
O431 O 0.08805 0.78851 0.29454 0.0
O432 O 0.05038 0.78327 0.33956 0.0
O433 O 0.05466 0.80771 0.33079 0.0
O434 O 0.21896 0.10904 0.3237 0.0
Cd435 Cd 0.20485 0.09852 0.30647 0.0
Cd436 Cd 0.21958 0.07166 0.32169 0.0
O437 O 0.2261 0.08848 0.33849 0.0
O438 O 0.19622 0.11807 0.29616 0.0
O439 O 0.1807 0.10084 0.30848 0.0
C440 C 0.18217 0.11412 0.30083 0.0
C441 C 0.21238 0.04583 0.32956 0.0
C442 C 0.22587 0.10342 0.33597 0.0
C443 C 0.22807 0.0791 0.28743 0.0
O444 O 0.23184 0.0721 0.30033 0.0
O445 O 0.2164 0.08877 0.28707 0.0
O446 O 0.22671 0.05113 0.33121 0.0
O447 O 0.20173 0.05552 0.32406 0.0
O448 O 0.66476 0.89032 0.77978 0.0
Cd449 Cd 0.68263 0.90023 0.7936 0.0
Cd450 Cd 0.66491 0.92832 0.78319 0.0
O451 O 0.64863 0.91094 0.77674 0.0
O452 O 0.69414 0.88077 0.80095 0.0
O453 O 0.68222 0.89712 0.81771 0.0
C454 C 0.69032 0.88423 0.81539 0.0
C455 C 0.65505 0.95367 0.78997 0.0
C456 C 0.65169 0.89621 0.77484 0.0
C457 C 0.69896 0.92304 0.77146 0.0
O458 O 0.68558 0.92999 0.76983 0.0
O459 O 0.70064 0.91185 0.78154 0.0
O460 O 0.65352 0.94781 0.77588 0.0
O461 O 0.66169 0.94484 0.80069 0.0
O462 O 0.11235 0.6788 0.78399 0.0
Cd463 Cd 0.10158 0.69559 0.79846 0.0
Cd464 Cd 0.07475 0.6802 0.78423 0.0
O465 O 0.0918 0.66399 0.77685 0.0
O466 O 0.1209 0.70621 0.8072 0.0
O467 O 0.10392 0.69329 0.82254 0.0
C468 C 0.117 0.7013 0.82118 0.0
C469 C 0.04971 0.67102 0.79249 0.0
C470 C 0.10673 0.66662 0.77693 0.0
C471 C 0.08098 0.71481 0.77635 0.0
O472 O 0.07397 0.70191 0.77254 0.0
O473 O 0.09123 0.71496 0.78751 0.0
O474 O 0.05433 0.66992 0.77788 0.0
O475 O 0.0596 0.67688 0.80276 0.0
O476 O 0.33562 0.10838 0.78795 0.0
Cd477 Cd 0.31763 0.09833 0.80151 0.0
Cd478 Cd 0.33401 0.07112 0.79218 0.0
O479 O 0.35146 0.08746 0.78632 0.0
O480 O 0.30712 0.11731 0.81113 0.0
O481 O 0.31939 0.09908 0.82563 0.0
C482 C 0.31167 0.11239 0.82494 0.0
C483 C 0.34172 0.04589 0.8013 0.0
C484 C 0.34883 0.10216 0.78384 0.0
C485 C 0.30101 0.07686 0.77877 0.0
O486 O 0.31437 0.06985 0.77733 0.0
O487 O 0.29919 0.08771 0.78919 0.0
O488 O 0.34486 0.05072 0.78708 0.0
O489 O 0.33472 0.05574 0.81086 0.0
O490 O 0.89081 0.32414 0.7828 0.0
Cd491 Cd 0.90351 0.30876 0.79722 0.0
Cd492 Cd 0.92774 0.32434 0.78186 0.0
O493 O 0.91014 0.34029 0.77529 0.0
O494 O 0.88588 0.29868 0.80946 0.0
O495 O 0.90436 0.31339 0.82103 0.0
C496 C 0.8914 0.30515 0.82222 0.0
C497 C 0.95292 0.33291 0.79022 0.0
C498 C 0.89541 0.33667 0.77561 0.0
C499 C 0.92214 0.2898 0.77382 0.0
O500 O 0.92816 0.30303 0.76949 0.0
O501 O 0.91324 0.28914 0.78606 0.0
O502 O 0.94813 0.33479 0.77573 0.0
O503 O 0.94303 0.3268 0.80035 0.0
O504 O 0.66933 0.11028 0.21819 0.0
Cd505 Cd 0.68796 0.10147 0.20464 0.0
Cd506 Cd 0.67508 0.07266 0.21721 0.0
O507 O 0.65706 0.08783 0.22442 0.0
O508 O 0.69744 0.12158 0.19653 0.0
O509 O 0.68735 0.1034 0.18043 0.0
C510 C 0.69433 0.11699 0.18224 0.0
C511 C 0.6679 0.04735 0.20796 0.0
C512 C 0.65774 0.10296 0.22468 0.0
C513 C 0.70835 0.08206 0.22705 0.0
O514 O 0.69632 0.07325 0.22982 0.0
O515 O 0.7076 0.09298 0.2166 0.0
O516 O 0.66616 0.05142 0.22266 0.0
O517 O 0.67348 0.05785 0.19817 0.0
O518 O 0.89707 0.66796 0.22074 0.0
Cd519 Cd 0.9063 0.6866 0.20757 0.0
Cd520 Cd 0.93519 0.6698 0.21893 0.0
O521 O 0.91827 0.6527 0.22432 0.0
O522 O 0.88613 0.69743 0.20118 0.0
O523 O 0.90251 0.68695 0.18352 0.0
C524 C 0.88931 0.69428 0.18652 0.0
C525 C 0.96132 0.66104 0.21379 0.0
C526 C 0.90336 0.65507 0.22567 0.0
C527 C 0.92779 0.70347 0.23069 0.0
O528 O 0.93521 0.69038 0.2325 0.0
O529 O 0.91697 0.70481 0.22015 0.0
O530 O 0.95466 0.65926 0.22748 0.0
O531 O 0.9529 0.66729 0.20251 0.0
O532 O 0.33462 0.89216 0.21436 0.0
Cd533 Cd 0.31665 0.90215 0.20078 0.0
Cd534 Cd 0.33402 0.93032 0.21112 0.0
O535 O 0.35041 0.91304 0.21722 0.0
O536 O 0.3051 0.8827 0.19357 0.0
O537 O 0.31701 0.89896 0.1767 0.0
C538 C 0.30892 0.88608 0.17912 0.0
C539 C 0.34457 0.95548 0.20488 0.0
C540 C 0.34767 0.89826 0.21909 0.0
C541 C 0.30018 0.92474 0.22309 0.0
O542 O 0.31347 0.93188 0.2247 0.0
O543 O 0.29863 0.91358 0.21296 0.0
O544 O 0.34578 0.94937 0.21888 0.0
O545 O 0.33758 0.94714 0.19398 0.0
O546 O 0.10656 0.33029 0.21801 0.0
Cd547 Cd 0.09723 0.31198 0.20438 0.0
Cd548 Cd 0.06909 0.32748 0.21476 0.0
O549 O 0.08506 0.3452 0.22108 0.0
O550 O 0.11664 0.30254 0.19434 0.0
O551 O 0.0976 0.314 0.18024 0.0
C552 C 0.11133 0.30701 0.18064 0.0
C553 C 0.04327 0.33433 0.20633 0.0
C554 C 0.09996 0.34304 0.22292 0.0
C555 C 0.07659 0.29422 0.22717 0.0
O556 O 0.06889 0.30718 0.22871 0.0
O557 O 0.0876 0.29303 0.21681 0.0
O558 O 0.04817 0.33708 0.22061 0.0
O559 O 0.05338 0.32838 0.19633 0.0
O560 O 0.78757 0.67261 0.8905 0.0
Cd561 Cd 0.80191 0.69065 0.89923 0.0
Cd562 Cd 0.78744 0.67912 0.92866 0.0
O563 O 0.78051 0.6612 0.91319 0.0
O564 O 0.81325 0.69796 0.8797 0.0
O565 O 0.82593 0.68736 0.90018 0.0
C566 C 0.82647 0.69343 0.88603 0.0
C567 C 0.79022 0.67149 0.9555 0.0
C568 C 0.78056 0.66147 0.89803 0.0
C569 C 0.7801 0.71286 0.91686 0.0
O570 O 0.7769 0.70131 0.92616 0.0
O571 O 0.79063 0.71135 0.90607 0.0
O572 O 0.77665 0.67152 0.94837 0.0
O573 O 0.80261 0.67558 0.94732 0.0
O574 O 0.78334 0.33076 0.10441 0.0
Cd575 Cd 0.79714 0.31467 0.09187 0.0
Cd576 Cd 0.78285 0.33223 0.06685 0.0
O577 O 0.77703 0.34759 0.0852 0.0
O578 O 0.80843 0.3036 0.10958 0.0
O579 O 0.82116 0.31801 0.09164 0.0
C580 C 0.82164 0.30951 0.10448 0.0
C581 C 0.78811 0.34239 0.04136 0.0
C582 C 0.77695 0.34374 0.09986 0.0
C583 C 0.77362 0.29755 0.07148 0.0
O584 O 0.77026 0.31113 0.06565 0.0
O585 O 0.78523 0.296 0.08111 0.0
O586 O 0.7743 0.34367 0.04793 0.0
O587 O 0.79944 0.33602 0.04964 0.0
O588 O 0.66859 0.78394 0.10674 0.0
Cd589 Cd 0.68645 0.79831 0.09777 0.0
Cd590 Cd 0.6723 0.78698 0.0691 0.0
O591 O 0.65467 0.77974 0.08478 0.0
O592 O 0.69491 0.80851 0.1175 0.0
O593 O 0.68347 0.82233 0.09826 0.0
C594 C 0.69005 0.82207 0.11219 0.0
C595 C 0.66478 0.79483 0.04329 0.0
C596 C 0.65635 0.77828 0.09978 0.0
C597 C 0.70609 0.77659 0.07758 0.0
O598 O 0.69355 0.77442 0.06932 0.0
O599 O 0.70623 0.78682 0.08877 0.0
O600 O 0.66315 0.78039 0.0482 0.0
O601 O 0.67019 0.80522 0.0533 0.0
O602 O 0.21944 0.66718 0.10749 0.0
Cd603 Cd 0.20566 0.68434 0.09643 0.0
Cd604 Cd 0.21638 0.66794 0.06981 0.0
O605 O 0.22264 0.6513 0.0868 0.0
O606 O 0.19495 0.6948 0.11477 0.0
O607 O 0.18162 0.68155 0.09631 0.0
C608 C 0.18153 0.68954 0.10948 0.0
C609 C 0.20844 0.65824 0.0449 0.0
C610 C 0.22436 0.65412 0.10158 0.0
C611 C 0.22809 0.70167 0.07516 0.0
O612 O 0.23013 0.68837 0.06818 0.0
O613 O 0.21758 0.70307 0.08597 0.0
O614 O 0.22272 0.65639 0.05018 0.0
O615 O 0.19823 0.66533 0.054 0.0
O616 O 0.33491 0.21518 0.10673 0.0
Cd617 Cd 0.31743 0.20029 0.09785 0.0
Cd618 Cd 0.32824 0.21612 0.06875 0.0
O619 O 0.34585 0.22362 0.0843 0.0
O620 O 0.31025 0.18957 0.11774 0.0
O621 O 0.32119 0.1763 0.09785 0.0
C622 C 0.31507 0.17621 0.11198 0.0
C623 C 0.33619 0.21319 0.04206 0.0
C624 C 0.34566 0.223 0.09944 0.0
C625 C 0.2942 0.22145 0.08049 0.0
O626 O 0.30555 0.22563 0.07133 0.0
O627 O 0.29631 0.21069 0.09094 0.0
O628 O 0.33561 0.22687 0.04895 0.0
O629 O 0.33238 0.20081 0.05037 0.0
O630 O 0.2069 0.33034 0.89425 0.0
Cd631 Cd 0.19235 0.31238 0.90279 0.0
Cd632 Cd 0.20594 0.32454 0.93184 0.0
O633 O 0.21293 0.34272 0.91673 0.0
O634 O 0.18258 0.3043 0.88269 0.0
O635 O 0.16821 0.3151 0.90187 0.0
C636 C 0.16884 0.30866 0.8879 0.0
C637 C 0.19955 0.33112 0.95831 0.0
C638 C 0.21347 0.34187 0.9016 0.0
C639 C 0.21461 0.2911 0.92092 0.0
O640 O 0.21788 0.30303 0.92971 0.0
O641 O 0.20362 0.29199 0.91053 0.0
O642 O 0.21381 0.33248 0.95281 0.0
O643 O 0.18855 0.32639 0.94861 0.0
O644 O 0.6651 0.22091 0.8939 0.0
Cd645 Cd 0.6822 0.20668 0.9045 0.0
Cd646 Cd 0.66643 0.21896 0.93172 0.0
O647 O 0.64966 0.22517 0.91478 0.0
O648 O 0.69162 0.19537 0.88585 0.0
O649 O 0.67876 0.18274 0.90503 0.0
C650 C 0.68616 0.18219 0.89153 0.0
C651 C 0.65737 0.21346 0.95761 0.0
C652 C 0.65234 0.22645 0.89992 0.0
C653 C 0.70062 0.22915 0.92486 0.0
O654 O 0.68752 0.23175 0.93204 0.0
O655 O 0.70154 0.21829 0.91431 0.0
O656 O 0.65603 0.22736 0.95129 0.0
O657 O 0.66336 0.20221 0.94897 0.0
O658 O 0.33637 0.78377 0.89125 0.0
Cd659 Cd 0.31634 0.79633 0.89836 0.0
Cd660 Cd 0.32739 0.78165 0.92885 0.0
O661 O 0.34495 0.77314 0.91389 0.0
O662 O 0.3084 0.80365 0.87721 0.0
O663 O 0.3162 0.82054 0.89575 0.0
C664 C 0.31069 0.81815 0.88158 0.0
C665 C 0.3343 0.78847 0.95509 0.0
C666 C 0.34628 0.77527 0.89896 0.0
C667 C 0.29432 0.77372 0.91675 0.0
O668 O 0.3053 0.77117 0.92687 0.0
O669 O 0.29638 0.78357 0.9054 0.0
O670 O 0.33474 0.77397 0.95007 0.0
O671 O 0.33035 0.79943 0.94502 0.0
O672 O 0.60939 0.71442 0.82862 0.0
Cd673 Cd 0.60046 0.70038 0.81039 0.0
Cd674 Cd 0.57193 0.70997 0.82646 0.0
O675 O 0.58803 0.71665 0.84385 0.0
O676 O 0.62045 0.69301 0.79989 0.0
O677 O 0.60368 0.67634 0.8114 0.0
C678 C 0.61691 0.67862 0.80385 0.0
C679 C 0.5464 0.70154 0.83419 0.0
C680 C 0.60281 0.71902 0.84149 0.0
C681 C 0.57829 0.72217 0.79299 0.0
O682 O 0.57092 0.72382 0.80613 0.0
O683 O 0.58951 0.71207 0.79172 0.0
O684 O 0.55134 0.71586 0.8366 0.0
O685 O 0.55632 0.6915 0.82802 0.0
O686 O 0.28048 0.60508 0.82566 0.0
Cd687 Cd 0.29411 0.59161 0.81027 0.0
Cd688 Cd 0.28075 0.56822 0.82807 0.0
O689 O 0.27466 0.58657 0.84335 0.0
O690 O 0.30671 0.60846 0.79938 0.0
O691 O 0.31788 0.59012 0.8146 0.0
C692 C 0.31935 0.60286 0.80606 0.0
C693 C 0.28978 0.54368 0.83765 0.0
C694 C 0.27432 0.60106 0.8389 0.0
C695 C 0.27013 0.57161 0.79386 0.0
O696 O 0.26712 0.56613 0.80767 0.0
O697 O 0.28189 0.58095 0.79177 0.0
O698 O 0.2754 0.54852 0.84007 0.0
O699 O 0.2995 0.55324 0.83045 0.0
O700 O 0.39025 0.28785 0.83159 0.0
Cd701 Cd 0.39925 0.30244 0.8139 0.0
Cd702 Cd 0.4286 0.28901 0.82883 0.0
O703 O 0.41187 0.282 0.84551 0.0
O704 O 0.37898 0.30952 0.80376 0.0
O705 O 0.39539 0.32643 0.81537 0.0
C706 C 0.38218 0.32392 0.80786 0.0
C707 C 0.45472 0.29318 0.83814 0.0
C708 C 0.39684 0.28138 0.84362 0.0
C709 C 0.42036 0.28097 0.79428 0.0
O710 O 0.42823 0.2778 0.80686 0.0
O711 O 0.40948 0.2915 0.79443 0.0
O712 O 0.44809 0.27936 0.83832 0.0
O713 O 0.44636 0.30505 0.83303 0.0
O714 O 0.71735 0.39351 0.83035 0.0
Cd715 Cd 0.70398 0.40311 0.81202 0.0
Cd716 Cd 0.71477 0.43112 0.82846 0.0
O717 O 0.72083 0.41461 0.84573 0.0
O718 O 0.69652 0.38337 0.80108 0.0
O719 O 0.67981 0.40037 0.81211 0.0
C720 C 0.68207 0.38718 0.80451 0.0
C721 C 0.70614 0.45656 0.83631 0.0
C722 C 0.7224 0.39975 0.84323 0.0
C723 C 0.72721 0.42437 0.79516 0.0
O724 O 0.72895 0.43178 0.80829 0.0
O725 O 0.71663 0.41361 0.79376 0.0
O726 O 0.72044 0.45164 0.83897 0.0
O727 O 0.69629 0.44672 0.8297 0.0
O728 O 0.61301 0.2859 0.17006 0.0
Cd729 Cd 0.60451 0.3003 0.18816 0.0
Cd730 Cd 0.57429 0.28685 0.1741 0.0
O731 O 0.59078 0.27973 0.15725 0.0
O732 O 0.62501 0.30799 0.19738 0.0
O733 O 0.60755 0.32436 0.18656 0.0
C734 C 0.62119 0.32229 0.19342 0.0
C735 C 0.54813 0.28988 0.1644 0.0
C736 C 0.60589 0.27933 0.1584 0.0
C737 C 0.58364 0.27921 0.20862 0.0
O738 O 0.57503 0.27634 0.19645 0.0
O739 O 0.595 0.28922 0.2079 0.0
O740 O 0.55509 0.27625 0.16501 0.0
O741 O 0.55608 0.30218 0.16916 0.0
O742 O 0.71474 0.61633 0.17417 0.0
Cd743 Cd 0.69989 0.60329 0.18888 0.0
Cd744 Cd 0.71561 0.57866 0.17266 0.0
O745 O 0.72278 0.59716 0.15806 0.0
O746 O 0.68707 0.62044 0.19908 0.0
O747 O 0.67627 0.60216 0.18353 0.0
C748 C 0.67459 0.61483 0.19213 0.0
C749 C 0.71093 0.55362 0.1612 0.0
C750 C 0.72237 0.61182 0.16186 0.0
C751 C 0.72208 0.58314 0.20794 0.0
O752 O 0.72648 0.57714 0.19473 0.0
O753 O 0.71042 0.59281 0.20844 0.0
O754 O 0.72489 0.55999 0.16141 0.0
O755 O 0.69922 0.56174 0.16705 0.0
O756 O 0.39049 0.71136 0.17073 0.0
Cd757 Cd 0.4 0.69693 0.18831 0.0
Cd758 Cd 0.42824 0.7095 0.17514 0.0
O759 O 0.41261 0.71663 0.15747 0.0
O760 O 0.38075 0.68615 0.19701 0.0
O761 O 0.40022 0.67291 0.18522 0.0
C762 C 0.3865 0.67275 0.19224 0.0
C763 C 0.45403 0.70207 0.16737 0.0
C764 C 0.39754 0.71753 0.15881 0.0
C765 C 0.41927 0.71878 0.20889 0.0
O766 O 0.42764 0.72174 0.1966 0.0
O767 O 0.40849 0.70815 0.20842 0.0
O768 O 0.44897 0.71649 0.16604 0.0
O769 O 0.44425 0.69149 0.17281 0.0
O770 O 0.28592 0.38991 0.16953 0.0
Cd771 Cd 0.30025 0.39931 0.18728 0.0
Cd772 Cd 0.28607 0.42822 0.17314 0.0
O773 O 0.27919 0.41166 0.15627 0.0
O774 O 0.30833 0.37934 0.19721 0.0
O775 O 0.32442 0.39673 0.18587 0.0
C776 C 0.32258 0.38339 0.19331 0.0
C777 C 0.2903 0.45428 0.16386 0.0
C778 C 0.27907 0.39659 0.15777 0.0
C779 C 0.27823 0.41942 0.20744 0.0
O780 O 0.2748 0.42753 0.1951 0.0
O781 O 0.28899 0.40878 0.20692 0.0
O782 O 0.27645 0.44771 0.16368 0.0
O783 O 0.30214 0.44594 0.16908 0.0
O784 O 0.83278 0.60987 0.71715 0.0
Cd785 Cd 0.81454 0.60162 0.70277 0.0
Cd786 Cd 0.82739 0.5717 0.71638 0.0
O787 O 0.84505 0.5874 0.72334 0.0
O788 O 0.80583 0.62222 0.69493 0.0
O789 O 0.81632 0.60443 0.67868 0.0
C790 C 0.80971 0.61819 0.68066 0.0
C791 C 0.8357 0.54527 0.7125 0.0
C792 C 0.8443 0.60252 0.7237 0.0
C793 C 0.79337 0.58198 0.72418 0.0
O794 O 0.80533 0.57322 0.72737 0.0
O795 O 0.7944 0.59295 0.71379 0.0
O796 O 0.83583 0.55193 0.72631 0.0
O797 O 0.83105 0.55372 0.7005 0.0
O798 O 0.38982 0.82064 0.71509 0.0
Cd799 Cd 0.40017 0.80288 0.70163 0.0
Cd800 Cd 0.42817 0.82016 0.71477 0.0
O801 O 0.41037 0.83602 0.72115 0.0
O802 O 0.38075 0.79205 0.69315 0.0
O803 O 0.39799 0.80414 0.67743 0.0
C804 C 0.38475 0.79644 0.67901 0.0
C805 C 0.45409 0.83022 0.71076 0.0
C806 C 0.39545 0.83323 0.72139 0.0
C807 C 0.42145 0.78559 0.72465 0.0
O808 O 0.42876 0.79871 0.72679 0.0
O809 O 0.41055 0.78441 0.71417 0.0
O810 O 0.44713 0.83078 0.72441 0.0
O811 O 0.44606 0.82452 0.69891 0.0
O812 O 0.16988 0.38812 0.71336 0.0
Cd813 Cd 0.18793 0.39771 0.6996 0.0
Cd814 Cd 0.1743 0.4266 0.71321 0.0
O815 O 0.15694 0.41027 0.71938 0.0
O816 O 0.1965 0.37862 0.68836 0.0
O817 O 0.18521 0.39864 0.67553 0.0
C818 C 0.19193 0.38479 0.67506 0.0
C819 C 0.16511 0.45292 0.71039 0.0
C820 C 0.15801 0.39516 0.71966 0.0
C821 C 0.20827 0.41662 0.72213 0.0
O822 O 0.1961 0.42529 0.72476 0.0
O823 O 0.20782 0.40574 0.71159 0.0
O824 O 0.16511 0.44566 0.72389 0.0
O825 O 0.17021 0.44518 0.6981 0.0
O826 O 0.61421 0.17456 0.71525 0.0
Cd827 Cd 0.60357 0.19095 0.70025 0.0
Cd828 Cd 0.57581 0.17703 0.71657 0.0
O829 O 0.59326 0.16163 0.72461 0.0
O830 O 0.62282 0.20047 0.69016 0.0
O831 O 0.60476 0.18744 0.67621 0.0
C832 C 0.61809 0.19513 0.6766 0.0
C833 C 0.55008 0.16634 0.71373 0.0
C834 C 0.60828 0.16341 0.72363 0.0
C835 C 0.58368 0.21218 0.72143 0.0
O836 O 0.57584 0.19993 0.72573 0.0
O837 O 0.59427 0.21117 0.71064 0.0
O838 O 0.55688 0.16771 0.7274 0.0
O839 O 0.558 0.17079 0.7013 0.0
O840 O 0.8293 0.39034 0.28092 0.0
Cd841 Cd 0.81221 0.40061 0.2954 0.0
Cd842 Cd 0.82572 0.42767 0.28299 0.0
O843 O 0.84332 0.41198 0.27583 0.0
O844 O 0.80355 0.38198 0.30719 0.0
O845 O 0.81603 0.40177 0.3193 0.0
C846 C 0.80888 0.38815 0.3202 0.0
C847 C 0.83326 0.4529 0.29213 0.0
C848 C 0.84148 0.39698 0.27482 0.0
C849 C 0.79199 0.41965 0.27329 0.0
O850 O 0.80454 0.4276 0.27023 0.0
O851 O 0.79211 0.40915 0.2842 0.0
O852 O 0.83514 0.44866 0.27749 0.0
O853 O 0.82745 0.44255 0.30195 0.0
O854 O 0.61016 0.82543 0.2875 0.0
Cd855 Cd 0.59759 0.80981 0.30182 0.0
Cd856 Cd 0.57219 0.82516 0.28583 0.0
O857 O 0.59027 0.84033 0.27889 0.0
O858 O 0.615 0.80001 0.3146 0.0
O859 O 0.59597 0.81451 0.32555 0.0
C860 C 0.60894 0.80636 0.32718 0.0
C861 C 0.54675 0.83609 0.28975 0.0
C862 C 0.60512 0.83741 0.27971 0.0
C863 C 0.57838 0.79015 0.27913 0.0
O864 O 0.57159 0.80305 0.27499 0.0
O865 O 0.58818 0.79001 0.2907 0.0
O866 O 0.55345 0.83578 0.27596 0.0
O867 O 0.55471 0.83055 0.30172 0.0
O868 O 0.16888 0.60921 0.28799 0.0
Cd869 Cd 0.18646 0.59999 0.30264 0.0
Cd870 Cd 0.17149 0.57069 0.28809 0.0
O871 O 0.15506 0.58774 0.28129 0.0
O872 O 0.19705 0.62018 0.30929 0.0
O873 O 0.18556 0.60418 0.32663 0.0
C874 C 0.19332 0.61717 0.32384 0.0
C875 C 0.16184 0.54456 0.29134 0.0
C876 C 0.15698 0.60278 0.28112 0.0
C877 C 0.20621 0.57893 0.28101 0.0
O878 O 0.19369 0.57121 0.27729 0.0
O879 O 0.20584 0.58954 0.29181 0.0
O880 O 0.16197 0.55157 0.27771 0.0
O881 O 0.16686 0.55252 0.30353 0.0
O882 O 0.3889 0.17728 0.28738 0.0
Cd883 Cd 0.39913 0.19424 0.30202 0.0
Cd884 Cd 0.42653 0.17915 0.28815 0.0
O885 O 0.40977 0.1628 0.28047 0.0
O886 O 0.37951 0.20426 0.31088 0.0
O887 O 0.39681 0.19161 0.32608 0.0
C888 C 0.38349 0.19923 0.3248 0.0
C889 C 0.45201 0.1703 0.29554 0.0
C890 C 0.3948 0.16523 0.28031 0.0
C891 C 0.4195 0.21365 0.27995 0.0
O892 O 0.42684 0.20084 0.27651 0.0
O893 O 0.40909 0.21382 0.29097 0.0
O894 O 0.44695 0.16933 0.28108 0.0
O895 O 0.44231 0.17579 0.30619 0.0
O896 O 0.7195 0.82522 0.60905 0.0
Cd897 Cd 0.70622 0.80914 0.59599 0.0
Cd898 Cd 0.71738 0.82751 0.57228 0.0
O899 O 0.72321 0.84325 0.59033 0.0
O900 O 0.694 0.79775 0.61282 0.0
O901 O 0.68235 0.81267 0.59449 0.0
C902 C 0.68114 0.80397 0.60716 0.0
C903 C 0.70621 0.83601 0.54824 0.0
C904 C 0.72456 0.83885 0.60477 0.0
C905 C 0.73018 0.79407 0.57496 0.0
O906 O 0.73223 0.80806 0.56951 0.0
O907 O 0.71894 0.79131 0.58476 0.0
O908 O 0.72062 0.83963 0.55221 0.0
O909 O 0.69765 0.82826 0.55846 0.0
O910 O 0.71193 0.17558 0.38786 0.0
Cd911 Cd 0.69804 0.19233 0.39944 0.0
Cd912 Cd 0.70858 0.17362 0.42531 0.0
O913 O 0.71595 0.15845 0.40741 0.0
O914 O 0.68936 0.20464 0.38107 0.0
O915 O 0.67389 0.19088 0.39728 0.0
C916 C 0.6753 0.19975 0.38477 0.0
C917 C 0.69928 0.16307 0.44944 0.0
C918 C 0.7175 0.16239 0.39286 0.0
C919 C 0.72048 0.20757 0.42259 0.0
O920 O 0.72222 0.1938 0.42865 0.0
O921 O 0.71017 0.20991 0.41172 0.0
O922 O 0.71377 0.16114 0.44476 0.0
O923 O 0.6896 0.17045 0.43999 0.0
O924 O 0.81961 0.71226 0.38736 0.0
Cd925 Cd 0.80405 0.69738 0.39931 0.0
Cd926 Cd 0.81937 0.71141 0.42494 0.0
O927 O 0.83519 0.71871 0.40754 0.0
O928 O 0.79466 0.68488 0.38149 0.0
O929 O 0.8093 0.67378 0.40035 0.0
C930 C 0.80137 0.67233 0.38722 0.0
C931 C 0.82932 0.70455 0.4501 0.0
C932 C 0.83205 0.71908 0.39272 0.0
C933 C 0.78459 0.7192 0.41936 0.0
O934 O 0.79766 0.72305 0.42602 0.0
O935 O 0.7842 0.70789 0.40928 0.0
O936 O 0.82997 0.71892 0.44475 0.0
O937 O 0.82347 0.69369 0.44087 0.0
O938 O 0.28918 0.83262 0.39133 0.0
Cd939 Cd 0.30314 0.81439 0.4003 0.0
Cd940 Cd 0.28826 0.82869 0.42995 0.0
O941 O 0.28189 0.84558 0.41315 0.0
O942 O 0.31009 0.80432 0.37995 0.0
O943 O 0.32726 0.81484 0.3968 0.0
C944 C 0.32464 0.80757 0.38349 0.0
C945 C 0.29117 0.83804 0.45626 0.0
C946 C 0.28222 0.8443 0.39804 0.0
C947 C 0.2808 0.79431 0.42041 0.0
O948 O 0.27738 0.80654 0.42873 0.0
O949 O 0.29155 0.79496 0.40975 0.0
O950 O 0.27762 0.83789 0.44909 0.0
O951 O 0.30346 0.8331 0.44841 0.0
O952 O 0.1784 0.28376 0.38701 0.0
Cd953 Cd 0.19455 0.29814 0.39877 0.0
Cd954 Cd 0.1789 0.28406 0.42435 0.0
O955 O 0.16267 0.27723 0.40706 0.0
O956 O 0.20414 0.31027 0.38074 0.0
O957 O 0.19022 0.32196 0.39976 0.0
C958 C 0.19797 0.32309 0.38649 0.0
C959 C 0.17022 0.29183 0.44976 0.0
C960 C 0.16587 0.277 0.39223 0.0
C961 C 0.21335 0.27514 0.41812 0.0
O962 O 0.20019 0.27166 0.42482 0.0
O963 O 0.21411 0.28671 0.40836 0.0
O964 O 0.1686 0.27743 0.44469 0.0
O965 O 0.17616 0.30222 0.44005 0.0
O966 O 0.29028 0.17223 0.61402 0.0
Cd967 Cd 0.30431 0.19047 0.60514 0.0
Cd968 Cd 0.29281 0.17592 0.57606 0.0
O969 O 0.28588 0.15847 0.59199 0.0
O970 O 0.31193 0.20049 0.62524 0.0
O971 O 0.32842 0.18947 0.60798 0.0
C972 C 0.3263 0.19681 0.62135 0.0
C973 C 0.30027 0.16755 0.55046 0.0
C974 C 0.28465 0.16001 0.60701 0.0
C975 C 0.28263 0.20969 0.58398 0.0
O976 O 0.28017 0.19713 0.57586 0.0
O977 O 0.29283 0.20974 0.59518 0.0
O978 O 0.28589 0.16614 0.55562 0.0
O979 O 0.31082 0.1734 0.56005 0.0
O980 O 0.81924 0.27977 0.61003 0.0
Cd981 Cd 0.80218 0.29381 0.59918 0.0
Cd982 Cd 0.81825 0.2803 0.57257 0.0
O983 O 0.83469 0.27358 0.58965 0.0
O984 O 0.79155 0.30275 0.61842 0.0
O985 O 0.80444 0.31791 0.60127 0.0
C986 C 0.79658 0.31667 0.61444 0.0
C987 C 0.82687 0.28843 0.54729 0.0
C988 C 0.83182 0.27333 0.60454 0.0
C989 C 0.78392 0.27097 0.5787 0.0
O990 O 0.79708 0.2677 0.57192 0.0
O991 O 0.7831 0.28224 0.5888 0.0
O992 O 0.82854 0.27397 0.55216 0.0
O993 O 0.82088 0.29867 0.55712 0.0
O994 O 0.16681 0.71945 0.60804 0.0
Cd995 Cd 0.18493 0.70495 0.59978 0.0
Cd996 Cd 0.17236 0.71878 0.56975 0.0
O997 O 0.15499 0.72624 0.58549 0.0
O998 O 0.19382 0.69743 0.62042 0.0
O999 O 0.18335 0.68088 0.60289 0.0
C1000 C 0.1901 0.68308 0.61655 0.0
C1001 C 0.16346 0.7145 0.54357 0.0
C1002 C 0.15556 0.7264 0.60062 0.0
C1003 C 0.20645 0.72604 0.57996 0.0
O1004 O 0.19465 0.72939 0.57103 0.0
O1005 O 0.2051 0.71578 0.59101 0.0
O1006 O 0.16376 0.72845 0.54991 0.0
O1007 O 0.16816 0.70261 0.55214 0.0
O1008 O 0.39296 0.28055 0.17368 0.0
Cd1009 Cd 0.40521 0.29542 0.18901 0.0
Cd1010 Cd 0.42974 0.28256 0.17252 0.0
O1011 O 0.41227 0.27548 0.1566 0.0
O1012 O 0.38753 0.30766 0.19896 0.0
O1013 O 0.4059 0.31906 0.18394 0.0
C1014 C 0.39292 0.32031 0.19215 0.0
C1015 C 0.45442 0.29226 0.16399 0.0
C1016 C 0.3977 0.2744 0.16066 0.0
C1017 C 0.42576 0.27312 0.20696 0.0
O1018 O 0.43156 0.26962 0.1934 0.0
O1019 O 0.41599 0.28463 0.2083 0.0
O1020 O 0.4502 0.27767 0.16166 0.0
O1021 O 0.44412 0.3018 0.17036 0.0
O1022 O 0.72134 0.39785 0.16558 0.0
Cd1023 Cd 0.7075 0.40731 0.18362 0.0
Cd1024 Cd 0.71772 0.43507 0.16889 0.0
O1025 O 0.7243 0.41951 0.15097 0.0
O1026 O 0.69717 0.38797 0.1927 0.0
O1027 O 0.68342 0.40721 0.18115 0.0
C1028 C 0.6836 0.39342 0.18801 0.0
C1029 C 0.70792 0.46027 0.16195 0.0
C1030 C 0.72622 0.40461 0.15291 0.0
C1031 C 0.72998 0.42765 0.20205 0.0
O1032 O 0.73175 0.4355 0.1892 0.0
O1033 O 0.71955 0.41667 0.2029 0.0
O1034 O 0.72246 0.45617 0.15923 0.0
O1035 O 0.69852 0.44976 0.16815 0.0
O1036 O 0.60897 0.72083 0.17414 0.0
Cd1037 Cd 0.59672 0.70696 0.19042 0.0
Cd1038 Cd 0.57139 0.71985 0.1722 0.0
O1039 O 0.58971 0.72639 0.15709 0.0
O1040 O 0.61471 0.69742 0.20258 0.0
O1041 O 0.59816 0.68283 0.18825 0.0
C1042 C 0.61062 0.68363 0.19728 0.0
C1043 C 0.54667 0.71246 0.1615 0.0
C1044 C 0.60433 0.72695 0.16106 0.0
C1045 C 0.57472 0.72979 0.20673 0.0
O1046 O 0.56894 0.73274 0.19303 0.0
O1047 O 0.58492 0.71872 0.20851 0.0
O1048 O 0.55221 0.72671 0.16009 0.0
O1049 O 0.55557 0.70195 0.1684 0.0
O1050 O 0.27913 0.60872 0.1791 0.0
Cd1051 Cd 0.29282 0.59671 0.19566 0.0
Cd1052 Cd 0.28176 0.57167 0.17762 0.0
O1053 O 0.2753 0.58934 0.16177 0.0
O1054 O 0.30257 0.61482 0.20745 0.0
O1055 O 0.31691 0.59786 0.19334 0.0
C1056 C 0.31628 0.61058 0.20201 0.0
C1057 C 0.29233 0.54751 0.16863 0.0
C1058 C 0.27389 0.6039 0.16571 0.0
C1059 C 0.26975 0.57477 0.21131 0.0
O1060 O 0.2675 0.56896 0.19749 0.0
O1061 O 0.28071 0.585 0.21359 0.0
O1062 O 0.2778 0.5516 0.16571 0.0
O1063 O 0.30131 0.55762 0.17603 0.0
O1064 O 0.38891 0.70759 0.8335 0.0
Cd1065 Cd 0.39715 0.69583 0.81337 0.0
Cd1066 Cd 0.42679 0.71252 0.82502 0.0
O1067 O 0.41046 0.7206 0.84151 0.0
O1068 O 0.37668 0.68769 0.80457 0.0
O1069 O 0.39578 0.67154 0.81262 0.0
C1070 C 0.38175 0.67338 0.80656 0.0
C1071 C 0.45286 0.70849 0.8343 0.0
C1072 C 0.39578 0.71718 0.84304 0.0
C1073 C 0.41542 0.71886 0.7914 0.0
O1074 O 0.42545 0.7218 0.80236 0.0
O1075 O 0.40409 0.70904 0.79367 0.0
O1076 O 0.44661 0.72247 0.83336 0.0
O1077 O 0.44421 0.69646 0.8301 0.0
O1078 O 0.27464 0.38857 0.82982 0.0
Cd1079 Cd 0.28919 0.40121 0.81451 0.0
Cd1080 Cd 0.27507 0.42625 0.83105 0.0
O1081 O 0.26759 0.4081 0.84597 0.0
O1082 O 0.30219 0.38399 0.80463 0.0
O1083 O 0.31281 0.40289 0.81957 0.0
C1084 C 0.31464 0.38999 0.81134 0.0
C1085 C 0.2816 0.45104 0.84216 0.0
C1086 C 0.26752 0.39339 0.84231 0.0
C1087 C 0.26707 0.42189 0.796 0.0
O1088 O 0.2636 0.42829 0.80931 0.0
O1089 O 0.27814 0.41158 0.79514 0.0
O1090 O 0.2673 0.44547 0.84254 0.0
O1091 O 0.2926 0.44221 0.83597 0.0
O1092 O 0.61018 0.285 0.82335 0.0
Cd1093 Cd 0.5988 0.29943 0.80699 0.0
Cd1094 Cd 0.57291 0.28799 0.82366 0.0
O1095 O 0.59009 0.28054 0.8397 0.0
O1096 O 0.61698 0.31123 0.79728 0.0
O1097 O 0.59817 0.32321 0.81128 0.0
C1098 C 0.61148 0.32412 0.80356 0.0
C1099 C 0.54817 0.29719 0.83281 0.0
C1100 C 0.60479 0.27916 0.83626 0.0
C1101 C 0.57755 0.27727 0.78944 0.0
O1102 O 0.57092 0.27495 0.80288 0.0
O1103 O 0.58824 0.28792 0.78795 0.0
O1104 O 0.55262 0.28262 0.8347 0.0
O1105 O 0.55817 0.30697 0.82635 0.0
O1106 O 0.72183 0.61171 0.82625 0.0
Cd1107 Cd 0.70746 0.59875 0.81107 0.0
Cd1108 Cd 0.72085 0.57431 0.82908 0.0
O1109 O 0.72768 0.59297 0.84374 0.0
O1110 O 0.69497 0.61587 0.80037 0.0
O1111 O 0.68373 0.59768 0.81571 0.0
C1112 C 0.68231 0.61039 0.80712 0.0
C1113 C 0.71412 0.54958 0.84023 0.0
C1114 C 0.72827 0.60746 0.8393 0.0
C1115 C 0.73019 0.5775 0.79423 0.0
O1116 O 0.73327 0.57183 0.80795 0.0
O1117 O 0.71895 0.58752 0.79244 0.0
O1118 O 0.7283 0.55537 0.84125 0.0
O1119 O 0.7033 0.55822 0.83347 0.0
O1120 O 0.17495 0.3893 0.28045 0.0
Cd1121 Cd 0.19213 0.40094 0.29378 0.0
Cd1122 Cd 0.17393 0.42655 0.28202 0.0
O1123 O 0.15811 0.40886 0.27537 0.0
O1124 O 0.20432 0.38245 0.30236 0.0
O1125 O 0.19122 0.39903 0.31799 0.0
C1126 C 0.19986 0.38637 0.3165 0.0
C1127 C 0.16513 0.45094 0.2923 0.0
C1128 C 0.16182 0.39418 0.27461 0.0
C1129 C 0.20777 0.42291 0.27036 0.0
O1130 O 0.19407 0.42897 0.2681 0.0
O1131 O 0.20987 0.41257 0.28125 0.0
O1132 O 0.16235 0.44678 0.27777 0.0
O1133 O 0.1722 0.44075 0.30146 0.0
O1134 O 0.60789 0.1762 0.28138 0.0
Cd1135 Cd 0.59501 0.19197 0.29518 0.0
Cd1136 Cd 0.57039 0.17458 0.28084 0.0
O1137 O 0.58882 0.15933 0.27475 0.0
O1138 O 0.6122 0.20252 0.30774 0.0
O1139 O 0.59353 0.18777 0.31898 0.0
C1140 C 0.6064 0.19612 0.32043 0.0
C1141 C 0.54509 0.16422 0.28679 0.0
C1142 C 0.60347 0.16328 0.27479 0.0
C1143 C 0.57504 0.2093 0.27158 0.0
O1144 O 0.56902 0.19576 0.26833 0.0
O1145 O 0.58472 0.2108 0.28316 0.0
O1146 O 0.55126 0.16307 0.27278 0.0
O1147 O 0.55365 0.17065 0.29789 0.0
O1148 O 0.82646 0.60871 0.2806 0.0
Cd1149 Cd 0.80929 0.59653 0.29343 0.0
Cd1150 Cd 0.82737 0.57083 0.28014 0.0
O1151 O 0.84286 0.58907 0.27444 0.0
O1152 O 0.79696 0.61463 0.30253 0.0
O1153 O 0.81002 0.59758 0.31769 0.0
C1154 C 0.80125 0.61019 0.31655 0.0
C1155 C 0.83799 0.54583 0.28656 0.0
C1156 C 0.83945 0.60383 0.27446 0.0
C1157 C 0.79318 0.57535 0.26947 0.0
O1158 O 0.80673 0.56911 0.26682 0.0
O1159 O 0.79144 0.58546 0.28062 0.0
O1160 O 0.83944 0.55193 0.27256 0.0
O1161 O 0.83096 0.55425 0.29738 0.0
O1162 O 0.39227 0.82371 0.2784 0.0
Cd1163 Cd 0.40453 0.80808 0.2929 0.0
Cd1164 Cd 0.4293 0.82445 0.28064 0.0
O1165 O 0.41198 0.84024 0.27309 0.0
O1166 O 0.38709 0.7985 0.30577 0.0
O1167 O 0.40612 0.81326 0.31646 0.0
C1168 C 0.393 0.80534 0.3182 0.0
C1169 C 0.45351 0.83348 0.29104 0.0
C1170 C 0.39731 0.83655 0.27213 0.0
C1171 C 0.42523 0.79019 0.27057 0.0
O1172 O 0.43154 0.80366 0.26766 0.0
O1173 O 0.41496 0.78884 0.28165 0.0
O1174 O 0.44971 0.83563 0.27631 0.0
O1175 O 0.44311 0.82684 0.30028 0.0
O1176 O 0.1677 0.6093 0.71926 0.0
Cd1177 Cd 0.18447 0.59934 0.7042 0.0
Cd1178 Cd 0.17133 0.57222 0.71721 0.0
O1179 O 0.15373 0.58773 0.72479 0.0
O1180 O 0.19269 0.6185 0.69302 0.0
O1181 O 0.18019 0.59911 0.68036 0.0
C1182 C 0.18711 0.61286 0.67989 0.0
C1183 C 0.16441 0.54679 0.70817 0.0
C1184 C 0.15564 0.60274 0.72568 0.0
C1185 C 0.20542 0.58021 0.7255 0.0
O1186 O 0.19289 0.57252 0.72923 0.0
O1187 O 0.20497 0.59059 0.71448 0.0
O1188 O 0.16267 0.55095 0.72285 0.0
O1189 O 0.16949 0.5574 0.69822 0.0
O1190 O 0.39521 0.17572 0.72465 0.0
Cd1191 Cd 0.40759 0.19155 0.71044 0.0
Cd1192 Cd 0.4322 0.1751 0.72336 0.0
O1193 O 0.41479 0.15926 0.73063 0.0
O1194 O 0.39002 0.20163 0.69814 0.0
O1195 O 0.40875 0.1871 0.68668 0.0
C1196 C 0.39571 0.19521 0.68541 0.0
C1197 C 0.45658 0.16642 0.71308 0.0
C1198 C 0.40008 0.16292 0.73115 0.0
C1199 C 0.42799 0.20937 0.73322 0.0
O1200 O 0.43419 0.19591 0.73636 0.0
O1201 O 0.41797 0.21068 0.72191 0.0
O1202 O 0.4527 0.16412 0.72777 0.0
O1203 O 0.44613 0.17293 0.7038 0.0
O1204 O 0.82991 0.38841 0.71728 0.0
Cd1205 Cd 0.81179 0.3977 0.70335 0.0
Cd1206 Cd 0.82444 0.42594 0.71577 0.0
O1207 O 0.84254 0.41082 0.72286 0.0
O1208 O 0.80334 0.37852 0.69226 0.0
O1209 O 0.81443 0.39857 0.67928 0.0
C1210 C 0.8077 0.38472 0.67891 0.0
C1211 C 0.83145 0.45166 0.70756 0.0
C1212 C 0.84167 0.39571 0.72349 0.0
C1213 C 0.79106 0.41649 0.72556 0.0
O1214 O 0.80319 0.42517 0.72832 0.0
O1215 O 0.79169 0.40563 0.71501 0.0
O1216 O 0.83309 0.44703 0.7221 0.0
O1217 O 0.82617 0.44144 0.69729 0.0
O1218 O 0.61124 0.82158 0.71271 0.0
Cd1219 Cd 0.60133 0.80391 0.69865 0.0
Cd1220 Cd 0.57362 0.81814 0.71354 0.0
O1221 O 0.59009 0.83492 0.72099 0.0
O1222 O 0.62116 0.79395 0.69017 0.0
O1223 O 0.60357 0.80546 0.67444 0.0
C1224 C 0.61697 0.79806 0.67602 0.0
C1225 C 0.54794 0.82609 0.7058 0.0
C1226 C 0.60515 0.83321 0.72031 0.0
C1227 C 0.58197 0.78396 0.72149 0.0
O1228 O 0.57413 0.79642 0.72512 0.0
O1229 O 0.59219 0.78429 0.7103 0.0
O1230 O 0.55277 0.82729 0.72034 0.0
O1231 O 0.55798 0.82091 0.69531 0.0
O1232 O 0.28126 0.16541 0.39476 0.0
Cd1233 Cd 0.29485 0.18284 0.40571 0.0
Cd1234 Cd 0.28245 0.16723 0.43249 0.0
O1235 O 0.27649 0.15022 0.4157 0.0
O1236 O 0.30604 0.19284 0.38734 0.0
O1237 O 0.31891 0.1802 0.40651 0.0
C1238 C 0.31935 0.18789 0.39317 0.0
C1239 C 0.28964 0.15853 0.45803 0.0
C1240 C 0.27565 0.15267 0.40077 0.0
C1241 C 0.27183 0.2011 0.42572 0.0
O1242 O 0.2692 0.18805 0.43296 0.0
O1243 O 0.28278 0.20197 0.41528 0.0
O1244 O 0.27543 0.15671 0.4525 0.0
O1245 O 0.3002 0.16489 0.44879 0.0
O1246 O 0.28169 0.82604 0.61152 0.0
Cd1247 Cd 0.2953 0.80997 0.59874 0.0
Cd1248 Cd 0.28324 0.82837 0.57461 0.0
O1249 O 0.27681 0.84381 0.59277 0.0
O1250 O 0.30715 0.79859 0.61593 0.0
O1251 O 0.31926 0.81333 0.5978 0.0
C1252 C 0.32018 0.80463 0.61048 0.0
C1253 C 0.29326 0.83719 0.55013 0.0
C1254 C 0.2759 0.83939 0.60725 0.0
C1255 C 0.27165 0.79442 0.57747 0.0
O1256 O 0.26924 0.80834 0.57199 0.0
O1257 O 0.28287 0.79197 0.58738 0.0
O1258 O 0.27883 0.84017 0.55453 0.0
O1259 O 0.30252 0.83009 0.5602 0.0
O1260 O 0.17712 0.27928 0.6065 0.0
Cd1261 Cd 0.19362 0.29352 0.59512 0.0
Cd1262 Cd 0.1762 0.27929 0.56869 0.0
O1263 O 0.1608 0.27284 0.58685 0.0
O1264 O 0.20499 0.30222 0.61409 0.0
O1265 O 0.19156 0.31764 0.59762 0.0
C1266 C 0.1999 0.31621 0.61049 0.0
C1267 C 0.16582 0.28445 0.54318 0.0
C1268 C 0.1644 0.27265 0.60158 0.0
C1269 C 0.21103 0.27054 0.57403 0.0
O1270 O 0.19766 0.26723 0.56768 0.0
O1271 O 0.21223 0.28187 0.58403 0.0
O1272 O 0.16511 0.27054 0.54959 0.0
O1273 O 0.17187 0.29588 0.55155 0.0
O1274 O 0.71723 0.16382 0.60376 0.0
Cd1275 Cd 0.70271 0.17966 0.59172 0.0
Cd1276 Cd 0.71572 0.16278 0.56642 0.0
O1277 O 0.72208 0.14694 0.58418 0.0
O1278 O 0.69176 0.19054 0.60972 0.0
O1279 O 0.67874 0.17603 0.59204 0.0
C1280 C 0.67848 0.18458 0.60485 0.0
C1281 C 0.70805 0.15301 0.54142 0.0
C1282 C 0.72312 0.15076 0.59882 0.0
C1283 C 0.72537 0.19722 0.57091 0.0
O1284 O 0.72871 0.18371 0.56488 0.0
O1285 O 0.71393 0.19854 0.58076 0.0
O1286 O 0.72235 0.15133 0.54677 0.0
O1287 O 0.69767 0.15973 0.55061 0.0
O1288 O 0.83545 0.7206 0.6065 0.0
Cd1289 Cd 0.8186 0.70555 0.59663 0.0
Cd1290 Cd 0.83109 0.72046 0.56884 0.0
O1291 O 0.84835 0.72791 0.58476 0.0
O1292 O 0.81045 0.69465 0.61603 0.0
O1293 O 0.82252 0.6816 0.59665 0.0
C1294 C 0.81568 0.68136 0.61044 0.0
C1295 C 0.83916 0.71498 0.54266 0.0
C1296 C 0.84695 0.72789 0.59985 0.0
C1297 C 0.79677 0.72698 0.57821 0.0
O1298 O 0.80888 0.73117 0.5701 0.0
O1299 O 0.79788 0.71586 0.58843 0.0
O1300 O 0.83952 0.72917 0.54849 0.0
O1301 O 0.83458 0.70353 0.55188 0.0
O1302 O 0.71453 0.82296 0.39278 0.0
Cd1303 Cd 0.70055 0.80719 0.40549 0.0
Cd1304 Cd 0.71451 0.82565 0.43049 0.0
O1305 O 0.72063 0.84027 0.41164 0.0
O1306 O 0.69083 0.79484 0.38771 0.0
O1307 O 0.67641 0.80954 0.40404 0.0
C1308 C 0.6771 0.80035 0.39171 0.0
C1309 C 0.70883 0.83741 0.45522 0.0
C1310 C 0.7209 0.83602 0.39709 0.0
C1311 C 0.72376 0.79086 0.42707 0.0
O1312 O 0.72704 0.80455 0.43269 0.0
O1313 O 0.71234 0.78913 0.41724 0.0
O1314 O 0.7228 0.8381 0.4489 0.0
O1315 O 0.69765 0.83047 0.4472 0.0
O1316 O 0.17733 0.72376 0.38923 0.0
Cd1317 Cd 0.19291 0.70942 0.40177 0.0
Cd1318 Cd 0.17582 0.72092 0.42613 0.0
O1319 O 0.16009 0.72803 0.40858 0.0
O1320 O 0.2027 0.69613 0.38477 0.0
O1321 O 0.18752 0.68599 0.40378 0.0
C1322 C 0.19562 0.68391 0.39083 0.0
C1323 C 0.16662 0.71078 0.45036 0.0
C1324 C 0.16411 0.72943 0.39403 0.0
C1325 C 0.20992 0.73184 0.42297 0.0
O1326 O 0.19619 0.73446 0.42883 0.0
O1327 O 0.21181 0.72082 0.41272 0.0
O1328 O 0.16417 0.72536 0.44622 0.0
O1329 O 0.17362 0.70148 0.44025 0.0
O1330 O 0.82353 0.28265 0.38979 0.0
Cd1331 Cd 0.80695 0.29729 0.40064 0.0
Cd1332 Cd 0.8214 0.27986 0.42766 0.0
O1333 O 0.83716 0.27277 0.41006 0.0
O1334 O 0.79664 0.30606 0.38117 0.0
O1335 O 0.80951 0.32139 0.39816 0.0
C1336 C 0.80157 0.32003 0.38504 0.0
C1337 C 0.83116 0.28338 0.45364 0.0
C1338 C 0.83499 0.27429 0.39513 0.0
C1339 C 0.78629 0.2751 0.42008 0.0
O1340 O 0.79875 0.27013 0.42715 0.0
O1341 O 0.78703 0.28671 0.41038 0.0
O1342 O 0.83071 0.2696 0.44691 0.0
O1343 O 0.82653 0.29554 0.4454 0.0
H1344 H 0.1333 0.23685 0.33754 0.0
H1345 H 0.09574 0.23352 0.37257 0.0
H1346 H 0.11155 0.24949 0.39126 0.0
H1347 H 0.13614 0.26452 0.39755 0.0
H1348 H 0.17285 0.26878 0.36161 0.0
H1349 H 0.15721 0.25247 0.34338 0.0
C1350 C 0.12862 0.23951 0.34932 0.0
C1351 C 0.11345 0.23388 0.35373 0.0
C1352 C 0.13757 0.24899 0.35981 0.0
C1353 C 0.10742 0.23768 0.36892 0.0
C1354 C 0.11644 0.24683 0.37959 0.0
C1355 C 0.14068 0.26192 0.38571 0.0
C1356 C 0.15568 0.26787 0.38101 0.0
C1357 C 0.13153 0.2526 0.37514 0.0
C1358 C 0.16134 0.26445 0.36557 0.0
C1359 C 0.15243 0.25504 0.35513 0.0
H1360 H 0.73249 0.13419 0.39947 0.0
H1361 H 0.72403 0.16797 0.36147 0.0
H1362 H 0.74129 0.1527 0.3438 0.0
H1363 H 0.75905 0.13008 0.33913 0.0
H1364 H 0.76713 0.09571 0.37659 0.0
H1365 H 0.74987 0.111 0.39451 0.0
C1366 C 0.73432 0.13816 0.3873 0.0
C1367 C 0.72695 0.15225 0.38186 0.0
C1368 C 0.74433 0.12932 0.37713 0.0
C1369 C 0.7295 0.15719 0.36602 0.0
C1370 C 0.73944 0.14849 0.35589 0.0
C1371 C 0.75716 0.12598 0.35126 0.0
C1372 C 0.76449 0.11185 0.35655 0.0
C1373 C 0.74702 0.13464 0.36136 0.0
C1374 C 0.76168 0.10659 0.37223 0.0
C1375 C 0.75178 0.1153 0.38247 0.0
H1376 H 0.86161 0.73144 0.39867 0.0
H1377 H 0.82565 0.72742 0.36195 0.0
H1378 H 0.84183 0.74362 0.34406 0.0
H1379 H 0.86602 0.7591 0.33882 0.0
H1380 H 0.90266 0.76231 0.37487 0.0
H1381 H 0.88634 0.74633 0.39306 0.0
C1382 C 0.85734 0.73408 0.38674 0.0
C1383 C 0.84241 0.72823 0.3817 0.0
C1384 C 0.86678 0.74333 0.37642 0.0
C1385 C 0.8371 0.7317 0.36616 0.0
C1386 C 0.84632 0.74102 0.35591 0.0
C1387 C 0.87041 0.75639 0.35069 0.0
C1388 C 0.88546 0.76199 0.35553 0.0
C1389 C 0.86113 0.74696 0.36094 0.0
C1390 C 0.89108 0.75816 0.37087 0.0
C1391 C 0.88177 0.74902 0.38127 0.0
H1392 H 0.24365 0.89978 0.36438 0.0
H1393 H 0.23777 0.86278 0.32897 0.0
H1394 H 0.25384 0.84465 0.34495 0.0
H1395 H 0.26963 0.83916 0.36882 0.0
H1396 H 0.27445 0.87524 0.40521 0.0
H1397 H 0.25883 0.89388 0.38897 0.0
C1398 C 0.24585 0.88774 0.36019 0.0
C1399 C 0.23951 0.88269 0.34546 0.0
C1400 C 0.25501 0.87722 0.36956 0.0
C1401 C 0.24241 0.867 0.34027 0.0
C1402 C 0.25168 0.85661 0.34937 0.0
C1403 C 0.26739 0.85115 0.37315 0.0
C1404 C 0.27334 0.85588 0.38811 0.0
C1405 C 0.25808 0.8616 0.36398 0.0
C1406 C 0.27004 0.87134 0.3937 0.0
C1407 C 0.2611 0.88199 0.38443 0.0
H1408 H 0.15879 0.73862 0.6303 0.0
H1409 H 0.12559 0.73526 0.59109 0.0
H1410 H 0.10624 0.75138 0.6059 0.0
H1411 H 0.09884 0.76649 0.63007 0.0
H1412 H 0.1329 0.77063 0.66857 0.0
H1413 H 0.15183 0.75427 0.65387 0.0
C1414 C 0.14727 0.7413 0.62503 0.0
C1415 C 0.14357 0.73563 0.6097 0.0
C1416 C 0.1364 0.75084 0.63343 0.0
C1417 C 0.12871 0.73946 0.60292 0.0
C1418 C 0.11765 0.74869 0.61136 0.0
C1419 C 0.11043 0.76386 0.63521 0.0
C1420 C 0.11439 0.76979 0.65043 0.0
C1421 C 0.12139 0.75449 0.62663 0.0
C1422 C 0.1295 0.76631 0.65687 0.0
C1423 C 0.14035 0.75688 0.6485 0.0
H1424 H 0.2702 0.16436 0.63552 0.0
H1425 H 0.27862 0.12885 0.59922 0.0
H1426 H 0.26301 0.10939 0.61445 0.0
H1427 H 0.24687 0.10256 0.63815 0.0
H1428 H 0.23759 0.13887 0.67355 0.0
H1429 H 0.25352 0.1579 0.65852 0.0
C1430 C 0.26873 0.15232 0.63098 0.0
C1431 C 0.27569 0.14801 0.61635 0.0
C1432 C 0.25947 0.14136 0.63959 0.0
C1433 C 0.27342 0.13245 0.6105 0.0
C1434 C 0.26448 0.12133 0.61918 0.0
C1435 C 0.2483 0.11465 0.64254 0.0
C1436 C 0.24104 0.11922 0.65699 0.0
C1437 C 0.25741 0.12567 0.63374 0.0
C1438 C 0.24296 0.13498 0.66245 0.0
C1439 C 0.25214 0.1459 0.6539 0.0
H1440 H 0.86082 0.25978 0.59796 0.0
H1441 H 0.82711 0.26768 0.63618 0.0
H1442 H 0.84406 0.25285 0.65447 0.0
H1443 H 0.86828 0.2376 0.65977 0.0
H1444 H 0.90267 0.23024 0.62215 0.0
H1445 H 0.88557 0.24481 0.6035 0.0
C1446 C 0.8572 0.25829 0.6103 0.0
C1447 C 0.84268 0.26485 0.61563 0.0
C1448 C 0.86707 0.24977 0.62087 0.0
C1449 C 0.83822 0.26282 0.6317 0.0
C1450 C 0.84789 0.25429 0.6422 0.0
C1451 C 0.87202 0.23908 0.64746 0.0
C1452 C 0.88668 0.23275 0.64235 0.0
C1453 C 0.86229 0.24767 0.63691 0.0
C1454 C 0.89142 0.23497 0.6264 0.0
C1455 C 0.88165 0.24332 0.61573 0.0
H1456 H 0.7623 0.87141 0.66113 0.0
H1457 H 0.76297 0.91075 0.62797 0.0
H1458 H 0.74808 0.89481 0.60853 0.0
H1459 H 0.7348 0.86962 0.60104 0.0
H1460 H 0.73339 0.83088 0.635 0.0
H1461 H 0.74852 0.84673 0.65405 0.0
C1462 C 0.7593 0.87647 0.64961 0.0
C1463 C 0.76386 0.89219 0.64595 0.0
C1464 C 0.75049 0.86739 0.63866 0.0
C1465 C 0.75964 0.89866 0.63106 0.0
C1466 C 0.75111 0.88956 0.61995 0.0
C1467 C 0.73775 0.86467 0.61263 0.0
C1468 C 0.73296 0.84905 0.61653 0.0
C1469 C 0.74642 0.87391 0.62365 0.0
C1470 C 0.73685 0.84287 0.63165 0.0
C1471 C 0.74558 0.8519 0.64256 0.0
H1472 H 0.34128 0.13042 0.24055 0.0
H1473 H 0.38002 0.09795 0.23081 0.0
H1474 H 0.3979 0.11413 0.24735 0.0
H1475 H 0.40243 0.1376 0.26459 0.0
H1476 H 0.36302 0.16923 0.27485 0.0
H1477 H 0.34551 0.15316 0.2582 0.0
C1478 C 0.35366 0.12692 0.24193 0.0
C1479 C 0.35934 0.11309 0.23434 0.0
C1480 C 0.36374 0.13606 0.25167 0.0
C1481 C 0.37536 0.10859 0.23649 0.0
C1482 C 0.38558 0.11782 0.24596 0.0
C1483 C 0.39 0.14094 0.26325 0.0
C1484 C 0.38411 0.15466 0.27097 0.0
C1485 C 0.37988 0.13157 0.25365 0.0
C1486 C 0.36793 0.15874 0.2691 0.0
C1487 C 0.35788 0.14959 0.25952 0.0
H1488 H 0.89715 0.36388 0.2361 0.0
H1489 H 0.85937 0.32997 0.2271 0.0
H1490 H 0.84109 0.34573 0.24324 0.0
H1491 H 0.83578 0.36883 0.2602 0.0
H1492 H 0.8728 0.40367 0.26831 0.0
H1493 H 0.89144 0.3878 0.25233 0.0
C1494 C 0.8849 0.35998 0.23761 0.0
C1495 C 0.8797 0.34572 0.23041 0.0
C1496 C 0.87434 0.36919 0.24685 0.0
C1497 C 0.86373 0.34091 0.23243 0.0
C1498 C 0.85326 0.34987 0.24173 0.0
C1499 C 0.84797 0.37291 0.25857 0.0
C1500 C 0.85297 0.3873 0.26557 0.0
C1501 C 0.85845 0.36395 0.24909 0.0
C1502 C 0.86869 0.39258 0.26309 0.0
C1503 C 0.87934 0.38353 0.25394 0.0
H1504 H 0.66118 0.86944 0.24105 0.0
H1505 H 0.62383 0.90291 0.22944 0.0
H1506 H 0.60493 0.88767 0.24566 0.0
H1507 H 0.5991 0.86486 0.26322 0.0
H1508 H 0.63697 0.83211 0.27551 0.0
H1509 H 0.65559 0.84719 0.25907 0.0
C1510 C 0.64887 0.87334 0.24194 0.0
C1511 C 0.64388 0.8872 0.23393 0.0
C1512 C 0.63819 0.86474 0.25154 0.0
C1513 C 0.62795 0.89224 0.23545 0.0
C1514 C 0.61715 0.88355 0.24475 0.0
C1515 C 0.61144 0.86105 0.26237 0.0
C1516 C 0.61658 0.84733 0.2706 0.0
C1517 C 0.62216 0.86981 0.2529 0.0
C1518 C 0.63265 0.84263 0.26937 0.0
C1519 C 0.64333 0.8512 0.2599 0.0
H1520 H 0.10371 0.63722 0.24018 0.0
H1521 H 0.14193 0.67138 0.23474 0.0
H1522 H 0.15909 0.65522 0.25167 0.0
H1523 H 0.16338 0.63155 0.26809 0.0
H1524 H 0.12603 0.59643 0.27262 0.0
H1525 H 0.10838 0.61285 0.25609 0.0
C1526 C 0.11581 0.64109 0.24266 0.0
C1527 C 0.12147 0.65553 0.23619 0.0
C1528 C 0.12575 0.63163 0.25234 0.0
C1529 C 0.13723 0.66032 0.23947 0.0
C1530 C 0.14707 0.65111 0.24923 0.0
C1531 C 0.15133 0.62754 0.26559 0.0
C1532 C 0.14596 0.61288 0.27172 0.0
C1533 C 0.14144 0.63681 0.25578 0.0
C1534 C 0.13042 0.60771 0.26809 0.0
C1535 C 0.12034 0.61707 0.25862 0.0
H1536 H 0.34132 0.86882 0.75962 0.0
H1537 H 0.3793 0.90277 0.7671 0.0
H1538 H 0.3974 0.88624 0.7512 0.0
H1539 H 0.40241 0.86197 0.7353 0.0
H1540 H 0.36378 0.82876 0.72723 0.0
H1541 H 0.34598 0.84529 0.7431 0.0
C1542 C 0.35359 0.87257 0.75787 0.0
C1543 C 0.359 0.88691 0.76466 0.0
C1544 C 0.3638 0.8632 0.74849 0.0
C1545 C 0.37486 0.89173 0.76204 0.0
C1546 C 0.3852 0.8823 0.75293 0.0
C1547 C 0.39008 0.85839 0.73694 0.0
C1548 C 0.38451 0.84409 0.73008 0.0
C1549 C 0.37979 0.868 0.74608 0.0
C1550 C 0.36845 0.83969 0.73231 0.0
C1551 C 0.35823 0.84911 0.74145 0.0
H1552 H 0.16144 0.36559 0.73218 0.0
H1553 H 0.12745 0.4039 0.72704 0.0
H1554 H 0.10784 0.38881 0.74253 0.0
H1555 H 0.10044 0.36473 0.75768 0.0
H1556 H 0.13513 0.32708 0.76362 0.0
H1557 H 0.15437 0.34201 0.74782 0.0
C1558 C 0.14969 0.37059 0.73433 0.0
C1559 C 0.14586 0.38577 0.72835 0.0
C1560 C 0.13863 0.36203 0.74352 0.0
C1561 C 0.13068 0.3922 0.73148 0.0
C1562 C 0.11947 0.3836 0.74036 0.0
C1563 C 0.11222 0.35982 0.75557 0.0
C1564 C 0.11627 0.34477 0.76184 0.0
C1565 C 0.12334 0.36852 0.7465 0.0
C1566 C 0.13165 0.33863 0.75902 0.0
C1567 C 0.14268 0.34713 0.74991 0.0
H1568 H 0.6007 0.13628 0.74012 0.0
H1569 H 0.64009 0.16759 0.72887 0.0
H1570 H 0.65762 0.15205 0.74603 0.0
H1571 H 0.66182 0.1299 0.76445 0.0
H1572 H 0.62313 0.09761 0.77498 0.0
H1573 H 0.60525 0.11329 0.75796 0.0
C1574 C 0.61314 0.13966 0.74137 0.0
C1575 C 0.61902 0.15314 0.73322 0.0
C1576 C 0.62325 0.13059 0.75122 0.0
C1577 C 0.63521 0.15728 0.73493 0.0
C1578 C 0.64525 0.14843 0.74481 0.0
C1579 C 0.64943 0.12634 0.76314 0.0
C1580 C 0.64375 0.11272 0.77111 0.0
C1581 C 0.63938 0.13516 0.75309 0.0
C1582 C 0.62777 0.1081 0.76902 0.0
C1583 C 0.61756 0.11704 0.75927 0.0
H1584 H 0.90202 0.63265 0.76193 0.0
H1585 H 0.86785 0.67096 0.76668 0.0
H1586 H 0.84852 0.65595 0.7511 0.0
H1587 H 0.84123 0.63221 0.7359 0.0
H1588 H 0.87455 0.59319 0.73189 0.0
H1589 H 0.89428 0.60825 0.74731 0.0
C1590 C 0.89033 0.63768 0.75961 0.0
C1591 C 0.88646 0.65295 0.76547 0.0
C1592 C 0.87912 0.62892 0.75067 0.0
C1593 C 0.8712 0.65924 0.76239 0.0
C1594 C 0.86011 0.65069 0.75341 0.0
C1595 C 0.85285 0.62703 0.7383 0.0
C1596 C 0.85648 0.61167 0.73263 0.0
C1597 C 0.86397 0.63559 0.74742 0.0
C1598 C 0.87148 0.60502 0.73609 0.0
C1599 C 0.88276 0.61362 0.74492 0.0
H1600 H 0.23791 0.36399 0.10354 0.0
H1601 H 0.23462 0.3274 0.1397 0.0
H1602 H 0.25143 0.34309 0.1574 0.0
H1603 H 0.26717 0.36702 0.16275 0.0
H1604 H 0.26975 0.40434 0.12741 0.0
H1605 H 0.25325 0.38847 0.10924 0.0
C1606 C 0.24081 0.35948 0.11531 0.0
C1607 C 0.23498 0.3445 0.12022 0.0
C1608 C 0.25048 0.36862 0.12556 0.0
C1609 C 0.23886 0.33889 0.13556 0.0
C1610 C 0.24855 0.34782 0.14572 0.0
C1611 C 0.26425 0.37164 0.15101 0.0
C1612 C 0.2698 0.38676 0.14638 0.0
C1613 C 0.25449 0.36265 0.14082 0.0
C1614 C 0.26566 0.39269 0.13124 0.0
C1615 C 0.2562 0.38364 0.12087 0.0
H1616 H 0.23814 0.65968 0.86908 0.0
H1617 H 0.22901 0.62527 0.90626 0.0
H1618 H 0.24406 0.6051 0.89148 0.0
H1619 H 0.2599 0.5973 0.86794 0.0
H1620 H 0.26957 0.6323 0.83136 0.0
H1621 H 0.25435 0.65216 0.84607 0.0
C1622 C 0.23933 0.64774 0.87391 0.0
C1623 C 0.23236 0.64396 0.88869 0.0
C1624 C 0.24823 0.63632 0.86552 0.0
C1625 C 0.23423 0.62848 0.89488 0.0
C1626 C 0.24286 0.61695 0.88645 0.0
C1627 C 0.25874 0.60929 0.86322 0.0
C1628 C 0.26587 0.61324 0.84854 0.0
C1629 C 0.24996 0.62075 0.87177 0.0
C1630 C 0.26425 0.62887 0.84263 0.0
C1631 C 0.25549 0.64027 0.85101 0.0
H1632 H 0.36723 0.26958 0.83844 0.0
H1633 H 0.40436 0.27199 0.87405 0.0
H1634 H 0.38817 0.2558 0.89219 0.0
H1635 H 0.36339 0.24089 0.89784 0.0
H1636 H 0.32695 0.23787 0.86147 0.0
H1637 H 0.34304 0.25426 0.84372 0.0
C1638 C 0.37176 0.26668 0.85022 0.0
C1639 C 0.38693 0.27211 0.85493 0.0
C1640 C 0.36255 0.25715 0.86042 0.0
C1641 C 0.3927 0.268 0.87014 0.0
C1642 C 0.38346 0.25873 0.88051 0.0
C1643 C 0.35899 0.24377 0.88602 0.0
C1644 C 0.34394 0.23815 0.88105 0.0
C1645 C 0.36837 0.25319 0.87575 0.0
C1646 C 0.33849 0.24197 0.86564 0.0
C1647 C 0.34765 0.25141 0.85547 0.0
H1648 H 0.73752 0.372 0.837 0.0
H1649 H 0.72787 0.40533 0.87503 0.0
H1650 H 0.74372 0.38907 0.89346 0.0
H1651 H 0.76035 0.36529 0.89865 0.0
H1652 H 0.77072 0.33291 0.85988 0.0
H1653 H 0.75468 0.34903 0.84186 0.0
C1654 C 0.73875 0.37567 0.84936 0.0
C1655 C 0.73138 0.38975 0.85469 0.0
C1656 C 0.74814 0.3665 0.85973 0.0
C1657 C 0.73337 0.39449 0.87066 0.0
C1658 C 0.74246 0.38521 0.88118 0.0
C1659 C 0.75917 0.3618 0.88625 0.0
C1660 C 0.76674 0.34785 0.88069 0.0
C1661 C 0.74994 0.37121 0.87583 0.0
C1662 C 0.7651 0.34358 0.86454 0.0
C1663 C 0.75585 0.35275 0.8542 0.0
H1664 H 0.63103 0.73389 0.83645 0.0
H1665 H 0.59558 0.72529 0.87278 0.0
H1666 H 0.61074 0.74169 0.89162 0.0
H1667 H 0.63406 0.75867 0.89764 0.0
H1668 H 0.66876 0.76781 0.86062 0.0
H1669 H 0.6538 0.7511 0.8422 0.0
C1670 C 0.62666 0.73548 0.84853 0.0
C1671 C 0.61226 0.72827 0.85323 0.0
C1672 C 0.63524 0.74514 0.85915 0.0
C1673 C 0.60666 0.73067 0.86886 0.0
C1674 C 0.61531 0.74007 0.87963 0.0
C1675 C 0.63832 0.75706 0.88553 0.0
C1676 C 0.65255 0.76451 0.88059 0.0
C1677 C 0.62959 0.74744 0.87488 0.0
C1678 C 0.65785 0.76229 0.86481 0.0
C1679 C 0.64933 0.75267 0.85423 0.0
H1680 H 0.76315 0.66843 0.13374 0.0
H1681 H 0.77092 0.63418 0.0961 0.0
H1682 H 0.75413 0.61479 0.1101 0.0
H1683 H 0.73729 0.60762 0.13315 0.0
H1684 H 0.72873 0.64264 0.17 0.0
H1685 H 0.74566 0.6617 0.15608 0.0
C1686 C 0.76127 0.65668 0.12864 0.0
C1687 C 0.7684 0.65268 0.114 0.0
C1688 C 0.75135 0.64577 0.13655 0.0
C1689 C 0.7656 0.63752 0.1074 0.0
C1690 C 0.75599 0.62644 0.11539 0.0
C1691 C 0.73907 0.61944 0.1381 0.0
C1692 C 0.73175 0.62363 0.15264 0.0
C1693 C 0.74878 0.63045 0.12997 0.0
C1694 C 0.73414 0.63906 0.15882 0.0
C1695 C 0.74389 0.64998 0.15091 0.0
H1696 H 0.36682 0.75689 0.10225 0.0
H1697 H 0.33123 0.76536 0.13856 0.0
H1698 H 0.34609 0.74886 0.15727 0.0
H1699 H 0.369 0.73187 0.16341 0.0
H1700 H 0.40546 0.72432 0.12787 0.0
H1701 H 0.3904 0.7405 0.10876 0.0
C1702 C 0.36235 0.75516 0.11427 0.0
C1703 C 0.34789 0.76235 0.11895 0.0
C1704 C 0.37104 0.74573 0.12509 0.0
C1705 C 0.34233 0.76005 0.13462 0.0
C1706 C 0.35079 0.75054 0.14534 0.0
C1707 C 0.3736 0.73365 0.15144 0.0
C1708 C 0.38824 0.72678 0.147 0.0
C1709 C 0.36509 0.74326 0.14069 0.0
C1710 C 0.39418 0.72945 0.13155 0.0
C1711 C 0.38559 0.73872 0.12064 0.0
H1712 H 0.63667 0.23957 0.10213 0.0
H1713 H 0.67422 0.2349 0.13714 0.0
H1714 H 0.65919 0.25134 0.15577 0.0
H1715 H 0.63549 0.26701 0.16226 0.0
H1716 H 0.59719 0.27084 0.12806 0.0
H1717 H 0.61245 0.25486 0.10896 0.0
C1718 C 0.64154 0.24213 0.11384 0.0
C1719 C 0.65657 0.236 0.11819 0.0
C1720 C 0.63275 0.25152 0.12463 0.0
C1721 C 0.66266 0.23938 0.13346 0.0
C1722 C 0.65411 0.24885 0.14414 0.0
C1723 C 0.63052 0.26447 0.15058 0.0
C1724 C 0.61529 0.27022 0.14654 0.0
C1725 C 0.63918 0.25501 0.13984 0.0
C1726 C 0.60891 0.26658 0.13145 0.0
C1727 C 0.61762 0.25743 0.12054 0.0
H1728 H 0.90079 0.7688 0.63347 0.0
H1729 H 0.86411 0.77184 0.66957 0.0
H1730 H 0.84658 0.75523 0.65348 0.0
H1731 H 0.84154 0.73972 0.62934 0.0
H1732 H 0.8773 0.73753 0.59238 0.0
H1733 H 0.89532 0.75383 0.60866 0.0
C1734 C 0.88894 0.76586 0.63778 0.0
C1735 C 0.88382 0.77157 0.65274 0.0
C1736 C 0.87877 0.75637 0.62837 0.0
C1737 C 0.86838 0.7677 0.6581 0.0
C1738 C 0.85834 0.75812 0.64893 0.0
C1739 C 0.85333 0.7427 0.62488 0.0
C1740 C 0.85814 0.73729 0.60975 0.0
C1741 C 0.86342 0.75234 0.6341 0.0
C1742 C 0.87334 0.74151 0.60402 0.0
C1743 C 0.88363 0.75084 0.61331 0.0
H1744 H 0.23676 0.86935 0.66408 0.0
H1745 H 0.23255 0.90842 0.63086 0.0
H1746 H 0.24832 0.89359 0.61121 0.0
H1747 H 0.26338 0.8694 0.60356 0.0
H1748 H 0.2683 0.8311 0.6377 0.0
H1749 H 0.25232 0.84585 0.65689 0.0
C1750 C 0.23917 0.8746 0.65249 0.0
C1751 C 0.23335 0.8899 0.64888 0.0
C1752 C 0.24851 0.86619 0.64144 0.0
C1753 C 0.23684 0.89663 0.63391 0.0
C1754 C 0.24588 0.88816 0.62269 0.0
C1755 C 0.26102 0.86432 0.61522 0.0
C1756 C 0.26705 0.84912 0.61911 0.0
C1757 C 0.25183 0.87293 0.62635 0.0
C1758 C 0.26389 0.84276 0.63433 0.0
C1759 C 0.25467 0.85116 0.64533 0.0
H1760 H 0.13271 0.23344 0.65743 0.0
H1761 H 0.09503 0.22875 0.62265 0.0
H1762 H 0.11048 0.24455 0.60356 0.0
H1763 H 0.13477 0.25975 0.5968 0.0
H1764 H 0.1717 0.26529 0.63237 0.0
H1765 H 0.15638 0.24925 0.65108 0.0
C1766 C 0.12792 0.23577 0.64563 0.0
C1767 C 0.11283 0.22981 0.6414 0.0
C1768 C 0.13668 0.24514 0.63487 0.0
C1769 C 0.10666 0.23318 0.62617 0.0
C1770 C 0.11547 0.24223 0.61526 0.0
C1771 C 0.13943 0.2575 0.60866 0.0
C1772 C 0.1544 0.26372 0.61311 0.0
C1773 C 0.13049 0.24831 0.6195 0.0
C1774 C 0.16021 0.26073 0.62858 0.0
C1775 C 0.15149 0.25148 0.63931 0.0
H1776 H 0.76175 0.09989 0.63897 0.0
H1777 H 0.7674 0.14083 0.66979 0.0
H1778 H 0.75151 0.15695 0.65159 0.0
H1779 H 0.73589 0.15951 0.62713 0.0
H1780 H 0.73095 0.11918 0.5955 0.0
H1781 H 0.74661 0.10272 0.61388 0.0
C1782 C 0.75954 0.11235 0.64169 0.0
C1783 C 0.76576 0.1191 0.65578 0.0
C1784 C 0.75044 0.12164 0.63108 0.0
C1785 C 0.76283 0.1353 0.65904 0.0
C1786 C 0.75368 0.14454 0.64866 0.0
C1787 C 0.73813 0.14708 0.62429 0.0
C1788 C 0.73214 0.14054 0.61004 0.0
C1789 C 0.74737 0.13782 0.63471 0.0
C1790 C 0.73539 0.12449 0.60642 0.0
C1791 C 0.74435 0.11509 0.61691 0.0
H1792 H 0.86834 0.23778 0.33848 0.0
H1793 H 0.90232 0.22649 0.37547 0.0
H1794 H 0.88652 0.24175 0.39479 0.0
H1795 H 0.86293 0.25833 0.40107 0.0
H1796 H 0.82992 0.27033 0.36331 0.0
H1797 H 0.84556 0.25485 0.34442 0.0
C1798 C 0.87226 0.23855 0.35079 0.0
C1799 C 0.8864 0.23088 0.35557 0.0
C1800 C 0.86335 0.24757 0.36169 0.0
C1801 C 0.89144 0.23225 0.37151 0.0
C1802 C 0.88243 0.24098 0.38255 0.0
C1803 C 0.8592 0.2576 0.3887 0.0
C1804 C 0.84522 0.26549 0.38368 0.0
C1805 C 0.86835 0.24872 0.37776 0.0
C1806 C 0.84062 0.26445 0.36756 0.0
C1807 C 0.84953 0.25554 0.35672 0.0
H1808 H 0.75985 0.8663 0.3403 0.0
H1809 H 0.76358 0.90532 0.37367 0.0
H1810 H 0.74783 0.89036 0.39317 0.0
H1811 H 0.73307 0.86606 0.40073 0.0
H1812 H 0.72854 0.82768 0.36661 0.0
H1813 H 0.74439 0.8426 0.3474 0.0
C1814 C 0.75731 0.8715 0.35188 0.0
C1815 C 0.76301 0.88683 0.35559 0.0
C1816 C 0.74799 0.86299 0.36287 0.0
C1817 C 0.75937 0.89351 0.37054 0.0
C1818 C 0.75035 0.88497 0.38169 0.0
C1819 C 0.73549 0.86099 0.38907 0.0
C1820 C 0.72963 0.84574 0.38518 0.0
C1821 C 0.74458 0.86969 0.37797 0.0
C1822 C 0.73283 0.8394 0.36996 0.0
C1823 C 0.74197 0.8479 0.35896 0.0
H1824 H 0.13493 0.74284 0.39973 0.0
H1825 H 0.17049 0.73651 0.36294 0.0
H1826 H 0.15466 0.75255 0.34462 0.0
H1827 H 0.13092 0.76845 0.33897 0.0
H1828 H 0.09479 0.77431 0.3752 0.0
H1829 H 0.11073 0.75848 0.39383 0.0
C1830 C 0.13919 0.74491 0.38769 0.0
C1831 C 0.15391 0.73846 0.38276 0.0
C1832 C 0.12999 0.75416 0.37713 0.0
C1833 C 0.15921 0.74128 0.36709 0.0
C1834 C 0.15019 0.7505 0.35659 0.0
C1835 C 0.12656 0.76638 0.35098 0.0
C1836 C 0.11173 0.77266 0.35571 0.0
C1837 C 0.13562 0.75706 0.3615 0.0
C1838 C 0.10618 0.76965 0.37126 0.0
C1839 C 0.11527 0.76057 0.38191 0.0
H1840 H 0.23923 0.09695 0.36511 0.0
H1841 H 0.23209 0.13488 0.33095 0.0
H1842 H 0.24734 0.15306 0.34763 0.0
H1843 H 0.26277 0.15837 0.37174 0.0
H1844 H 0.26914 0.1212 0.40675 0.0
H1845 H 0.25424 0.10256 0.38987 0.0
C1846 C 0.24098 0.1092 0.36135 0.0
C1847 C 0.23451 0.11448 0.34676 0.0
C1848 C 0.24971 0.11974 0.37109 0.0
C1849 C 0.23685 0.13044 0.34212 0.0
C1850 C 0.24564 0.14088 0.35162 0.0
C1851 C 0.26101 0.14616 0.37565 0.0
C1852 C 0.26718 0.14114 0.39041 0.0
C1853 C 0.25217 0.13565 0.36608 0.0
C1854 C 0.26455 0.12535 0.39541 0.0
C1855 C 0.25602 0.1147 0.38577 0.0
H1856 H 0.6588 0.86903 0.75905 0.0
H1857 H 0.6197 0.90081 0.76956 0.0
H1858 H 0.60176 0.88428 0.75341 0.0
H1859 H 0.59729 0.86069 0.73625 0.0
H1860 H 0.63712 0.82994 0.72503 0.0
H1861 H 0.65464 0.84629 0.74137 0.0
C1862 C 0.64632 0.8723 0.75793 0.0
C1863 C 0.64055 0.88602 0.76564 0.0
C1864 C 0.63622 0.86299 0.74836 0.0
C1865 C 0.62441 0.89024 0.7638 0.0
C1866 C 0.61417 0.88082 0.75454 0.0
C1867 C 0.60981 0.85762 0.73731 0.0
C1868 C 0.61581 0.84405 0.7294 0.0
C1869 C 0.61995 0.86717 0.74672 0.0
C1870 C 0.63212 0.8403 0.7309 0.0
C1871 C 0.64218 0.84962 0.74032 0.0
H1872 H 0.16111 0.6319 0.73829 0.0
H1873 H 0.1248 0.59565 0.73408 0.0
H1874 H 0.10634 0.61215 0.74963 0.0
H1875 H 0.10058 0.63706 0.76437 0.0
H1876 H 0.13773 0.67247 0.76932 0.0
H1877 H 0.15578 0.65604 0.75363 0.0
C1878 C 0.14912 0.62762 0.74069 0.0
C1879 C 0.14428 0.61264 0.73491 0.0
C1880 C 0.13874 0.63699 0.74986 0.0
C1881 C 0.1288 0.60717 0.73836 0.0
C1882 C 0.11825 0.6166 0.74726 0.0
C1883 C 0.11263 0.64115 0.76204 0.0
C1884 C 0.11774 0.65602 0.76801 0.0
C1885 C 0.1231 0.63155 0.75308 0.0
C1886 C 0.13345 0.66108 0.76495 0.0
C1887 C 0.14381 0.65172 0.75591 0.0
H1888 H 0.34381 0.13044 0.76906 0.0
H1889 H 0.3804 0.09548 0.77851 0.0
H1890 H 0.39951 0.11103 0.76284 0.0
H1891 H 0.40573 0.13456 0.7463 0.0
H1892 H 0.36854 0.16884 0.73634 0.0
H1893 H 0.34978 0.15345 0.75225 0.0
C1894 C 0.356 0.12626 0.76782 0.0
C1895 C 0.36069 0.11188 0.77505 0.0
C1896 C 0.3668 0.13507 0.75857 0.0
C1897 C 0.37648 0.10654 0.7731 0.0
C1898 C 0.38741 0.1154 0.76412 0.0
C1899 C 0.39351 0.13863 0.74755 0.0
C1900 C 0.38861 0.15287 0.74011 0.0
C1901 C 0.38268 0.12967 0.75673 0.0
C1902 C 0.37269 0.15793 0.74188 0.0
C1903 C 0.36193 0.14916 0.75103 0.0
H1904 H 0.89954 0.36599 0.76179 0.0
H1905 H 0.86458 0.32882 0.76914 0.0
H1906 H 0.84529 0.34346 0.75316 0.0
H1907 H 0.83823 0.36662 0.73696 0.0
H1908 H 0.87233 0.40462 0.73048 0.0
H1909 H 0.89206 0.38982 0.74615 0.0
C1910 C 0.88768 0.36113 0.75994 0.0
C1911 C 0.88357 0.34629 0.76666 0.0
C1912 C 0.8765 0.3697 0.7508 0.0
C1913 C 0.86811 0.34022 0.76419 0.0
C1914 C 0.85705 0.34855 0.75498 0.0
C1915 C 0.85003 0.37162 0.73886 0.0
C1916 C 0.85387 0.38661 0.73244 0.0
C1917 C 0.86113 0.36324 0.74816 0.0
C1918 C 0.8691 0.39306 0.73527 0.0
C1919 C 0.88037 0.38462 0.74424 0.0
H1920 H 0.66084 0.13258 0.23706 0.0
H1921 H 0.6273 0.09381 0.23239 0.0
H1922 H 0.60748 0.10893 0.24764 0.0
H1923 H 0.59974 0.13331 0.26231 0.0
H1924 H 0.63415 0.17131 0.2678 0.0
H1925 H 0.65356 0.15627 0.25235 0.0
C1926 C 0.64915 0.12747 0.23927 0.0
C1927 C 0.64549 0.11217 0.23346 0.0
C1928 C 0.638 0.13605 0.24831 0.0
C1929 C 0.63039 0.1056 0.23669 0.0
C1930 C 0.61907 0.11423 0.24543 0.0
C1931 C 0.6115 0.13826 0.26017 0.0
C1932 C 0.61542 0.15346 0.26621 0.0
C1933 C 0.62275 0.12947 0.25133 0.0
C1934 C 0.63077 0.15965 0.26338 0.0
C1935 C 0.6419 0.15108 0.25446 0.0
H1936 H 0.87437 0.66015 0.23893 0.0
H1937 H 0.90988 0.62358 0.23166 0.0
H1938 H 0.8934 0.6045 0.24641 0.0
H1939 H 0.8688 0.59828 0.26133 0.0
H1940 H 0.83395 0.63544 0.26918 0.0
H1941 H 0.85039 0.65423 0.25436 0.0
C1942 C 0.87848 0.64797 0.24045 0.0
C1943 C 0.89327 0.64326 0.23407 0.0
C1944 C 0.86912 0.6372 0.24917 0.0
C1945 C 0.89852 0.6275 0.23641 0.0
C1946 C 0.88911 0.6166 0.24486 0.0
C1947 C 0.86483 0.6105 0.25986 0.0
C1948 C 0.85011 0.61538 0.26636 0.0
C1949 C 0.87439 0.62133 0.25133 0.0
C1950 C 0.84521 0.63131 0.26437 0.0
C1951 C 0.85458 0.64208 0.25583 0.0
H1952 H 0.34221 0.8696 0.23298 0.0
H1953 H 0.37907 0.90477 0.22543 0.0
H1954 H 0.39769 0.8889 0.24133 0.0
H1955 H 0.40338 0.86512 0.25763 0.0
H1956 H 0.36597 0.83057 0.26573 0.0
H1957 H 0.3477 0.84622 0.24948 0.0
C1958 C 0.35436 0.87375 0.23468 0.0
C1959 C 0.35927 0.88829 0.22793 0.0
C1960 C 0.36488 0.86475 0.24407 0.0
C1961 C 0.37499 0.89359 0.23046 0.0
C1962 C 0.38564 0.88454 0.23958 0.0
C1963 C 0.39122 0.86104 0.25589 0.0
C1964 C 0.38611 0.84667 0.26292 0.0
C1965 C 0.38069 0.87014 0.24653 0.0
C1966 C 0.37027 0.84159 0.26053 0.0
C1967 C 0.35979 0.85051 0.25117 0.0
H1968 H 0.13264 0.39966 0.26082 0.0
H1969 H 0.16784 0.36282 0.26869 0.0
H1970 H 0.15211 0.34417 0.253 0.0
H1971 H 0.12869 0.33822 0.23682 0.0
H1972 H 0.09273 0.37431 0.22945 0.0
H1973 H 0.1085 0.39334 0.24507 0.0
C1974 C 0.13683 0.38753 0.25918 0.0
C1975 C 0.15146 0.38272 0.26594 0.0
C1976 C 0.12767 0.37674 0.25012 0.0
C1977 C 0.15665 0.36691 0.26368 0.0
C1978 C 0.14769 0.35621 0.25464 0.0
C1979 C 0.12432 0.35028 0.23851 0.0
C1980 C 0.10962 0.35487 0.23184 0.0
C1981 C 0.13326 0.36101 0.24772 0.0
C1982 C 0.10404 0.37049 0.2344 0.0
C1983 C 0.11304 0.38136 0.24336 0.0
H1984 H 0.76848 0.66414 0.86821 0.0
H1985 H 0.77182 0.63161 0.90794 0.0
H1986 H 0.75582 0.61197 0.89338 0.0
H1987 H 0.74075 0.60414 0.8693 0.0
H1988 H 0.73655 0.63754 0.83028 0.0
H1989 H 0.75288 0.65674 0.8447 0.0
C1990 C 0.76583 0.6527 0.87364 0.0
C1991 C 0.77146 0.64928 0.88906 0.0
C1992 C 0.75634 0.64166 0.86538 0.0
C1993 C 0.76766 0.63451 0.89605 0.0
C1994 C 0.75849 0.62329 0.88774 0.0
C1995 C 0.74336 0.61564 0.86398 0.0
C1996 C 0.73742 0.61934 0.84871 0.0
C1997 C 0.75271 0.62676 0.87241 0.0
C1998 C 0.74088 0.63435 0.84204 0.0
C1999 C 0.7503 0.64535 0.85024 0.0
H2000 H 0.76308 0.37291 0.09519 0.0
H2001 H 0.77161 0.33706 0.13123 0.0
H2002 H 0.7563 0.35248 0.15048 0.0
H2003 H 0.74025 0.37585 0.15713 0.0
H2004 H 0.73228 0.41235 0.12173 0.0
H2005 H 0.74753 0.39691 0.10218 0.0
C2006 C 0.76166 0.36851 0.10727 0.0
C2007 C 0.76849 0.35381 0.11169 0.0
C2008 C 0.75284 0.37748 0.11838 0.0
C2009 C 0.76654 0.34833 0.12744 0.0
C2010 C 0.75772 0.35711 0.13849 0.0
C2011 C 0.74175 0.3804 0.14511 0.0
C2012 C 0.73502 0.39516 0.14086 0.0
C2013 C 0.75074 0.37163 0.13406 0.0
C2014 C 0.7373 0.401 0.12529 0.0
C2015 C 0.74604 0.39218 0.11412 0.0
H2016 H 0.66063 0.76512 0.12893 0.0
H2017 H 0.6256 0.77062 0.09159 0.0
H2018 H 0.60641 0.75498 0.1071 0.0
H2019 H 0.59961 0.73984 0.13143 0.0
H2020 H 0.63533 0.73378 0.16812 0.0
H2021 H 0.65422 0.74943 0.15261 0.0
C2022 C 0.64876 0.76299 0.1242 0.0
C2023 C 0.64451 0.76916 0.10919 0.0
C2024 C 0.63793 0.75379 0.13303 0.0
C2025 C 0.62916 0.76605 0.10314 0.0
C2026 C 0.6182 0.75709 0.112 0.0
C2027 C 0.61154 0.74188 0.136 0.0
C2028 C 0.61598 0.73564 0.15097 0.0
C2029 C 0.62246 0.75089 0.12696 0.0
C2030 C 0.63155 0.73838 0.15665 0.0
C2031 C 0.64238 0.74739 0.14781 0.0
H2032 H 0.2613 0.59823 0.13616 0.0
H2033 H 0.26713 0.63515 0.17168 0.0
H2034 H 0.25192 0.65362 0.15524 0.0
H2035 H 0.23682 0.65937 0.13097 0.0
H2036 H 0.23143 0.62294 0.09497 0.0
H2037 H 0.24651 0.60421 0.11148 0.0
C2038 C 0.2593 0.61033 0.14028 0.0
C2039 C 0.26536 0.61524 0.15517 0.0
C2040 C 0.25052 0.62098 0.13075 0.0
C2041 C 0.26265 0.631 0.16028 0.0
C2042 C 0.25389 0.6416 0.15091 0.0
C2043 C 0.23884 0.6473 0.12676 0.0
C2044 C 0.23292 0.64255 0.1118 0.0
C2045 C 0.24771 0.63669 0.13618 0.0
C2046 C 0.23584 0.62691 0.10645 0.0
C2047 C 0.24448 0.61619 0.11588 0.0
H2048 H 0.34263 0.23348 0.12979 0.0
H2049 H 0.37507 0.23357 0.08983 0.0
H2050 H 0.39417 0.24951 0.10519 0.0
H2051 H 0.40154 0.26354 0.13008 0.0
H2052 H 0.36809 0.26431 0.1693 0.0
H2053 H 0.3495 0.24803 0.15407 0.0
C2054 C 0.35393 0.23688 0.12447 0.0
C2055 C 0.35749 0.23222 0.10876 0.0
C2056 C 0.36464 0.24631 0.1332 0.0
C2057 C 0.37207 0.23698 0.10193 0.0
C2058 C 0.38298 0.2461 0.1107 0.0
C2059 C 0.39017 0.26017 0.13526 0.0
C2060 C 0.38627 0.26515 0.15083 0.0
C2061 C 0.37937 0.25088 0.12635 0.0
C2062 C 0.37142 0.26074 0.15733 0.0
C2063 C 0.36077 0.25135 0.14866 0.0
H2064 H 0.25397 0.39806 0.87164 0.0
H2065 H 0.25993 0.36277 0.83455 0.0
H2066 H 0.24324 0.34415 0.84931 0.0
H2067 H 0.22678 0.33784 0.87252 0.0
H2068 H 0.22167 0.37227 0.91043 0.0
H2069 H 0.2381 0.39131 0.89553 0.0
C2070 C 0.25166 0.38628 0.86682 0.0
C2071 C 0.25819 0.38187 0.85197 0.0
C2072 C 0.24211 0.37551 0.87545 0.0
C2073 C 0.25513 0.3665 0.84596 0.0
C2074 C 0.24552 0.35584 0.85436 0.0
C2075 C 0.22914 0.34956 0.87748 0.0
C2076 C 0.22287 0.35371 0.89247 0.0
C2077 C 0.23887 0.36024 0.86905 0.0
C2078 C 0.22631 0.36882 0.89887 0.0
C2079 C 0.23572 0.37969 0.89037 0.0
H2080 H 0.65831 0.23917 0.87084 0.0
H2081 H 0.62125 0.23436 0.90626 0.0
H2082 H 0.60324 0.2504 0.8898 0.0
H2083 H 0.59815 0.26599 0.86537 0.0
H2084 H 0.63585 0.27136 0.83061 0.0
H2085 H 0.65347 0.25502 0.84689 0.0
C2086 C 0.64625 0.24151 0.87492 0.0
C2087 C 0.6411 0.23547 0.8897 0.0
C2088 C 0.6361 0.25097 0.86558 0.0
C2089 C 0.62551 0.23883 0.89491 0.0
C2090 C 0.61521 0.24803 0.88552 0.0
C2091 C 0.61024 0.26364 0.86138 0.0
C2092 C 0.61562 0.26992 0.84676 0.0
C2093 C 0.62041 0.25423 0.87085 0.0
C2094 C 0.63135 0.26675 0.84181 0.0
C2095 C 0.64146 0.25734 0.85109 0.0
H2096 H 0.3458 0.74399 0.8925 0.0
H2097 H 0.37315 0.78681 0.88495 0.0
H2098 H 0.39199 0.77205 0.86804 0.0
H2099 H 0.39955 0.74731 0.85408 0.0
H2100 H 0.37039 0.70525 0.85942 0.0
H2101 H 0.35338 0.71924 0.87859 0.0
C2102 C 0.35605 0.74996 0.88729 0.0
C2103 C 0.35835 0.7663 0.89002 0.0
C2104 C 0.36638 0.74154 0.87715 0.0
C2105 C 0.37136 0.77415 0.88304 0.0
C2106 C 0.38205 0.76574 0.87337 0.0
C2107 C 0.38959 0.74117 0.85963 0.0
C2108 C 0.38625 0.72526 0.85546 0.0
C2109 C 0.37954 0.74948 0.87016 0.0
C2110 C 0.37315 0.7175 0.86246 0.0
C2111 C 0.36344 0.72549 0.8734 0.0
H2112 H 0.06163 0.24945 0.28554 0.0
H2113 H 0.10047 0.22269 0.2648 0.0
H2114 H 0.10113 0.24088 0.24211 0.0
H2115 H 0.0925 0.2659 0.22952 0.0
H2116 H 0.05401 0.29289 0.25063 0.0
H2117 H 0.05135 0.27302 0.27166 0.0
C2118 C 0.07011 0.24745 0.27597 0.0
C2119 C 0.08111 0.23481 0.27702 0.0
C2120 C 0.07059 0.25809 0.26304 0.0
C2121 C 0.09192 0.23237 0.2644 0.0
C2122 C 0.09235 0.24281 0.25142 0.0
C2123 C 0.08338 0.26734 0.23859 0.0
C2124 C 0.07362 0.281 0.23856 0.0
C2125 C 0.08202 0.25595 0.25082 0.0
C2126 C 0.0618 0.28259 0.25039 0.0
C2127 C 0.06027 0.27123 0.26247 0.0
H2128 H 0.77028 0.09189 0.26832 0.0
H2129 H 0.74747 0.05545 0.29671 0.0
H2130 H 0.72667 0.05252 0.27659 0.0
H2131 H 0.71345 0.06222 0.25233 0.0
H2132 H 0.73601 0.09909 0.22427 0.0
H2133 H 0.75842 0.09975 0.24278 0.0
C2134 C 0.76089 0.08315 0.27002 0.0
C2135 C 0.76036 0.07408 0.28413 0.0
C2136 C 0.74881 0.08166 0.25851 0.0
C2137 C 0.74814 0.06271 0.28605 0.0
C2138 C 0.73619 0.06104 0.27455 0.0
C2139 C 0.72337 0.07025 0.25013 0.0
C2140 C 0.7229 0.08073 0.23703 0.0
C2141 C 0.73616 0.07075 0.26095 0.0
C2142 C 0.73593 0.09098 0.23433 0.0
C2143 C 0.74878 0.0914 0.24493 0.0
H2144 H 0.91264 0.73221 0.23195 0.0
H2145 H 0.94922 0.7044 0.25529 0.0
H2146 H 0.95098 0.72422 0.27651 0.0
H2147 H 0.94008 0.74781 0.28993 0.0
H2148 H 0.90302 0.77525 0.26692 0.0
H2149 H 0.90369 0.75729 0.24404 0.0
C2150 C 0.92117 0.73057 0.24154 0.0
C2151 C 0.93061 0.71669 0.2421 0.0
C2152 C 0.92197 0.74189 0.25387 0.0
C2153 C 0.94169 0.71488 0.25459 0.0
C2154 C 0.94269 0.72619 0.26679 0.0
C2155 C 0.9323 0.75002 0.27983 0.0
C2156 C 0.92136 0.76275 0.28029 0.0
C2157 C 0.93255 0.7395 0.26679 0.0
C2158 C 0.91148 0.76548 0.26699 0.0
C2159 C 0.91181 0.75518 0.25389 0.0
H2160 H 0.25583 0.9387 0.28192 0.0
H2161 H 0.2267 0.90347 0.25809 0.0
H2162 H 0.2449 0.90355 0.2354 0.0
H2163 H 0.2706 0.91126 0.22375 0.0
H2164 H 0.30007 0.94599 0.24788 0.0
H2165 H 0.2801 0.94857 0.26888 0.0
C2166 C 0.25331 0.9312 0.27168 0.0
C2167 C 0.24003 0.92092 0.27186 0.0
C2168 C 0.26396 0.93111 0.25874 0.0
C2169 C 0.2369 0.91141 0.25838 0.0
C2170 C 0.24733 0.91141 0.24538 0.0
C2171 C 0.27258 0.91957 0.23347 0.0
C2172 C 0.28696 0.92822 0.23432 0.0
C2173 C 0.26115 0.92084 0.24566 0.0
C2174 C 0.2892 0.93906 0.24695 0.0
C2175 C 0.27779 0.94052 0.25902 0.0
H2176 H 0.06105 0.71866 0.75095 0.0
H2177 H 0.09559 0.74379 0.77982 0.0
H2178 H 0.09492 0.76625 0.76136 0.0
H2179 H 0.08703 0.77731 0.73542 0.0
H2180 H 0.05304 0.7518 0.70625 0.0
H2181 H 0.05087 0.73111 0.72654 0.0
C2182 C 0.06826 0.72913 0.75336 0.0
C2183 C 0.07854 0.72938 0.76663 0.0
C2184 C 0.06803 0.74194 0.74256 0.0
C2185 C 0.08767 0.74316 0.76962 0.0
C2186 C 0.08733 0.75603 0.75904 0.0
C2187 C 0.07894 0.76738 0.7336 0.0
C2188 C 0.07042 0.76602 0.7192 0.0
C2189 C 0.07794 0.75533 0.74521 0.0
C2190 C 0.05989 0.75309 0.71713 0.0
C2191 C 0.05866 0.7412 0.72872 0.0
H2192 H 0.2712 0.08988 0.77783 0.0
H2193 H 0.30171 0.05614 0.75361 0.0
H2194 H 0.28201 0.05329 0.7324 0.0
H2195 H 0.25757 0.06254 0.71931 0.0
H2196 H 0.22728 0.09669 0.74323 0.0
H2197 H 0.24535 0.09699 0.76603 0.0
C2198 C 0.27347 0.08174 0.76803 0.0
C2199 C 0.28805 0.07343 0.76723 0.0
C2200 C 0.26217 0.08028 0.75574 0.0
C2201 C 0.29068 0.06281 0.7545 0.0
C2202 C 0.27942 0.06118 0.74232 0.0
C2203 C 0.25478 0.06989 0.72959 0.0
C2204 C 0.24119 0.07975 0.72941 0.0
C2205 C 0.26534 0.0702 0.74259 0.0
C2206 C 0.2377 0.08905 0.74295 0.0
C2207 C 0.24807 0.08929 0.756 0.0
H2208 H 0.93939 0.28725 0.74642 0.0
H2209 H 0.90856 0.26038 0.77777 0.0
H2210 H 0.9077 0.23859 0.75849 0.0
H2211 H 0.91328 0.22848 0.73157 0.0
H2212 H 0.94366 0.25565 0.70004 0.0
H2213 H 0.94718 0.27591 0.72063 0.0
C2214 C 0.93267 0.27654 0.74917 0.0
C2215 C 0.92388 0.27558 0.76345 0.0
C2216 C 0.932 0.26415 0.73792 0.0
C2217 C 0.91536 0.26152 0.76684 0.0
C2218 C 0.9148 0.24906 0.75578 0.0
C2219 C 0.92083 0.23874 0.72925 0.0
C2220 C 0.928 0.24063 0.71418 0.0
C2221 C 0.92268 0.25045 0.74109 0.0
C2222 C 0.93788 0.25392 0.71147 0.0
C2223 C 0.93989 0.26555 0.72323 0.0
H2224 H 0.72839 0.90924 0.76994 0.0
H2225 H 0.69933 0.94573 0.74804 0.0
H2226 H 0.71958 0.94977 0.72755 0.0
H2227 H 0.74419 0.9411 0.71433 0.0
H2228 H 0.77295 0.90417 0.73586 0.0
H2229 H 0.75424 0.90233 0.75806 0.0
C2230 C 0.72656 0.91823 0.76082 0.0
C2231 C 0.71224 0.92701 0.76045 0.0
C2232 C 0.73816 0.92036 0.74891 0.0
C2233 C 0.71016 0.93869 0.74858 0.0
C2234 C 0.72173 0.941 0.73681 0.0
C2235 C 0.7465 0.93279 0.72397 0.0
C2236 C 0.75988 0.92265 0.72328 0.0
C2237 C 0.73557 0.93161 0.73662 0.0
C2238 C 0.76271 0.91205 0.73598 0.0
C2239 C 0.75198 0.91095 0.74869 0.0
H2240 H 0.2548 0.06087 0.28441 0.0
H2241 H 0.22478 0.09374 0.25844 0.0
H2242 H 0.24411 0.09444 0.2367 0.0
H2243 H 0.27078 0.08814 0.2265 0.0
H2244 H 0.30111 0.05582 0.25278 0.0
H2245 H 0.28031 0.0524 0.27285 0.0
C2246 C 0.25235 0.06801 0.2739 0.0
C2247 C 0.23844 0.07741 0.2732 0.0
C2248 C 0.26364 0.06859 0.26154 0.0
C2249 C 0.23543 0.08648 0.2594 0.0
C2250 C 0.24651 0.08694 0.24696 0.0
C2251 C 0.27279 0.08018 0.2365 0.0
C2252 C 0.2876 0.07244 0.23823 0.0
C2253 C 0.26086 0.07842 0.24813 0.0
C2254 C 0.28989 0.06204 0.25119 0.0
C2255 C 0.27801 0.0601 0.26272 0.0
H2256 H 0.93525 0.28299 0.24872 0.0
H2257 H 0.90009 0.25873 0.21987 0.0
H2258 H 0.89932 0.23681 0.23897 0.0
H2259 H 0.90642 0.22596 0.26524 0.0
H2260 H 0.94119 0.25056 0.29429 0.0
H2261 H 0.94436 0.27079 0.27367 0.0
C2262 C 0.92758 0.27281 0.24646 0.0
C2263 C 0.91759 0.27266 0.23296 0.0
C2264 C 0.92699 0.26034 0.25763 0.0
C2265 C 0.90784 0.25926 0.2302 0.0
C2266 C 0.90734 0.24672 0.24116 0.0
C2267 C 0.91484 0.23563 0.267 0.0
C2268 C 0.92337 0.23682 0.28143 0.0
C2269 C 0.9165 0.24736 0.25515 0.0
C2270 C 0.93435 0.24938 0.28339 0.0
C2271 C 0.93616 0.261 0.2716 0.0
H2272 H 0.74792 0.93766 0.28692 0.0
H2273 H 0.77593 0.90007 0.26551 0.0
H2274 H 0.75794 0.89942 0.24268 0.0
H2275 H 0.73267 0.90734 0.23027 0.0
H2276 H 0.70428 0.94446 0.252 0.0
H2277 H 0.72411 0.94755 0.27305 0.0
C2278 C 0.75025 0.92949 0.27715 0.0
C2279 C 0.76315 0.91878 0.27809 0.0
C2280 C 0.73971 0.92897 0.26413 0.0
C2281 C 0.76602 0.90836 0.26523 0.0
C2282 C 0.75571 0.90793 0.25215 0.0
C2283 C 0.73091 0.91628 0.23947 0.0
C2284 C 0.71686 0.92547 0.23964 0.0
C2285 C 0.74225 0.91785 0.25171 0.0
C2286 C 0.71489 0.93708 0.25161 0.0
C2287 C 0.72622 0.93885 0.26371 0.0
H2288 H 0.0654 0.71895 0.25087 0.0
H2289 H 0.10144 0.74304 0.22301 0.0
H2290 H 0.10071 0.76564 0.2413 0.0
H2291 H 0.09208 0.7772 0.26677 0.0
H2292 H 0.05649 0.75279 0.29494 0.0
H2293 H 0.05472 0.73183 0.27486 0.0
C2294 C 0.07294 0.72923 0.24865 0.0
C2295 C 0.08362 0.72915 0.23569 0.0
C2296 C 0.07265 0.74211 0.25935 0.0
C2297 C 0.09319 0.74268 0.23295 0.0
C2298 C 0.09283 0.75562 0.24344 0.0
C2299 C 0.08376 0.76742 0.26843 0.0
C2300 C 0.07461 0.76649 0.28248 0.0
C2301 C 0.08295 0.75525 0.25693 0.0
C2302 C 0.0638 0.75377 0.28432 0.0
C2303 C 0.06279 0.74173 0.27285 0.0
H2304 H 0.25211 0.93883 0.71678 0.0
H2305 H 0.22583 0.90065 0.73929 0.0
H2306 H 0.24529 0.89982 0.76091 0.0
H2307 H 0.27115 0.90799 0.77194 0.0
H2308 H 0.2978 0.94566 0.749 0.0
H2309 H 0.27671 0.9487 0.72919 0.0
C2310 C 0.25049 0.93047 0.72651 0.0
C2311 C 0.23761 0.91969 0.72625 0.0
C2312 C 0.26187 0.92986 0.73881 0.0
C2313 C 0.23569 0.90902 0.73907 0.0
C2314 C 0.24684 0.9085 0.75145 0.0
C2315 C 0.27227 0.91703 0.76275 0.0
C2316 C 0.28617 0.92643 0.76188 0.0
C2317 C 0.26021 0.91856 0.75121 0.0
C2318 C 0.28732 0.93815 0.74992 0.0
C2319 C 0.27527 0.93989 0.73853 0.0
H2320 H 0.06039 0.2457 0.70862 0.0
H2321 H 0.09699 0.21734 0.73125 0.0
H2322 H 0.09692 0.23522 0.75419 0.0
H2323 H 0.08877 0.26055 0.76637 0.0
H2324 H 0.05282 0.28937 0.7433 0.0
H2325 H 0.05022 0.26954 0.72217 0.0
C2326 C 0.0682 0.24327 0.71866 0.0
C2327 C 0.07884 0.2303 0.71806 0.0
C2328 C 0.06831 0.25376 0.73173 0.0
C2329 C 0.08877 0.22731 0.73127 0.0
C2330 C 0.08878 0.23756 0.74441 0.0
C2331 C 0.08016 0.26238 0.75688 0.0
C2332 C 0.07117 0.27655 0.75634 0.0
C2333 C 0.07894 0.25108 0.74456 0.0
C2334 C 0.06002 0.27866 0.74396 0.0
C2335 C 0.05854 0.26734 0.73182 0.0
H2336 H 0.73189 0.09367 0.77894 0.0
H2337 H 0.70491 0.05676 0.75513 0.0
H2338 H 0.72543 0.05479 0.7346 0.0
H2339 H 0.74942 0.06563 0.72183 0.0
H2340 H 0.77599 0.10308 0.74526 0.0
H2341 H 0.75732 0.10258 0.76756 0.0
C2342 C 0.73059 0.08501 0.7694 0.0
C2343 C 0.71674 0.07555 0.76849 0.0
C2344 C 0.7423 0.08412 0.75746 0.0
C2345 C 0.71536 0.06431 0.75609 0.0
C2346 C 0.72708 0.0632 0.74429 0.0
C2347 C 0.75128 0.07354 0.7319 0.0
C2348 C 0.76398 0.08453 0.73172 0.0
C2349 C 0.74035 0.07338 0.7446 0.0
C2350 C 0.76625 0.09458 0.74498 0.0
C2351 C 0.75555 0.09434 0.75775 0.0
H2352 H 0.91505 0.73846 0.77265 0.0
H2353 H 0.9475 0.709 0.74554 0.0
H2354 H 0.94973 0.72977 0.72531 0.0
H2355 H 0.93996 0.75478 0.71376 0.0
H2356 H 0.90682 0.78386 0.74045 0.0
H2357 H 0.90759 0.76484 0.76244 0.0
C2358 C 0.92282 0.73666 0.76245 0.0
C2359 C 0.93089 0.72207 0.76053 0.0
C2360 C 0.92384 0.74854 0.75069 0.0
C2361 C 0.94101 0.72004 0.74728 0.0
C2362 C 0.94227 0.7319 0.73565 0.0
C2363 C 0.93309 0.75711 0.72448 0.0
C2364 C 0.92317 0.77063 0.72531 0.0
C2365 C 0.93334 0.74598 0.73699 0.0
C2366 C 0.91446 0.77349 0.73938 0.0
C2367 C 0.91485 0.76259 0.75197 0.0
H2368 H 0.23109 0.25938 0.09509 0.0
H2369 H 0.24895 0.28798 0.05613 0.0
H2370 H 0.27028 0.26878 0.05154 0.0
H2371 H 0.28566 0.24562 0.06053 0.0
H2372 H 0.26827 0.21733 0.09992 0.0
H2373 H 0.24492 0.23454 0.1022 0.0
C2374 C 0.23947 0.26128 0.08541 0.0
C2375 C 0.23852 0.27524 0.07614 0.0
C2376 C 0.25192 0.25032 0.08298 0.0
C2377 C 0.24947 0.27744 0.06359 0.0
C2378 C 0.26172 0.26648 0.06096 0.0
C2379 C 0.27666 0.24306 0.06947 0.0
C2380 C 0.27888 0.23032 0.08017 0.0
C2381 C 0.26336 0.25314 0.0709 0.0
C2382 C 0.26698 0.22712 0.09159 0.0
C2383 C 0.25362 0.23699 0.09295 0.0
H2384 H 0.23248 0.73273 0.90479 0.0
H2385 H 0.25137 0.70716 0.94535 0.0
H2386 H 0.2724 0.72706 0.94831 0.0
H2387 H 0.28685 0.75023 0.93791 0.0
H2388 H 0.26847 0.77534 0.89682 0.0
H2389 H 0.24575 0.75717 0.8957 0.0
C2390 C 0.24106 0.73159 0.91442 0.0
C2391 C 0.24041 0.71835 0.92472 0.0
C2392 C 0.2533 0.74295 0.91591 0.0
C2393 C 0.25162 0.71715 0.93716 0.0
C2394 C 0.26369 0.72852 0.93886 0.0
C2395 C 0.27779 0.75188 0.92881 0.0
C2396 C 0.2795 0.76405 0.91736 0.0
C2397 C 0.26487 0.74124 0.92806 0.0
C2398 C 0.26756 0.76602 0.90573 0.0
C2399 C 0.25455 0.75561 0.90505 0.0
H2400 H 0.24066 0.28603 0.93969 0.0
H2401 H 0.21178 0.2638 0.90323 0.0
H2402 H 0.23101 0.24207 0.90104 0.0
H2403 H 0.25738 0.23098 0.90732 0.0
H2404 H 0.28656 0.25372 0.94323 0.0
H2405 H 0.26577 0.27351 0.94784 0.0
C2406 C 0.23842 0.27632 0.93142 0.0
C2407 C 0.22487 0.2767 0.9215 0.0
C2408 C 0.24966 0.26399 0.93 0.0
C2409 C 0.22215 0.26392 0.91094 0.0
C2410 C 0.23318 0.25149 0.90963 0.0
C2411 C 0.25912 0.24012 0.91632 0.0
C2412 C 0.27363 0.24096 0.92475 0.0
C2413 C 0.2472 0.25165 0.91876 0.0
C2414 C 0.2756 0.25285 0.93644 0.0
C2415 C 0.26371 0.26422 0.93908 0.0
H2416 H 0.72982 0.22849 0.91047 0.0
H2417 H 0.70233 0.25414 0.94573 0.0
H2418 H 0.72332 0.27416 0.94777 0.0
H2419 H 0.74805 0.2859 0.93751 0.0
H2420 H 0.77531 0.26058 0.90185 0.0
H2421 H 0.75594 0.23888 0.90222 0.0
C2422 C 0.7285 0.23833 0.91877 0.0
C2423 C 0.71439 0.23989 0.92775 0.0
C2424 C 0.74053 0.24996 0.91976 0.0
C2425 C 0.71298 0.25268 0.93854 0.0
C2426 C 0.72497 0.26418 0.93971 0.0
C2427 C 0.7499 0.27555 0.92997 0.0
C2428 C 0.76302 0.27502 0.91951 0.0
C2429 C 0.73859 0.26318 0.93005 0.0
C2430 C 0.76527 0.2614 0.90995 0.0
C2431 C 0.75415 0.24898 0.9101 0.0
H2432 H 0.73718 0.77306 0.90391 0.0
H2433 H 0.71197 0.75358 0.94441 0.0
H2434 H 0.73288 0.73375 0.94812 0.0
H2435 H 0.75656 0.71999 0.93804 0.0
H2436 H 0.78144 0.7388 0.89702 0.0
H2437 H 0.76255 0.7609 0.89553 0.0
C2438 C 0.7364 0.76467 0.91373 0.0
C2439 C 0.72289 0.7647 0.92372 0.0
C2440 C 0.74834 0.75304 0.91564 0.0
C2441 C 0.72212 0.75374 0.93641 0.0
C2442 C 0.73407 0.74235 0.93854 0.0
C2443 C 0.75802 0.72903 0.92889 0.0
C2444 C 0.77028 0.72756 0.91753 0.0
C2445 C 0.74696 0.74157 0.92792 0.0
C2446 C 0.77204 0.73952 0.90587 0.0
C2447 C 0.76121 0.75217 0.90497 0.0
H2448 H 0.75477 0.72111 0.06408 0.0
H2449 H 0.77803 0.7422 0.10496 0.0
H2450 H 0.75867 0.76394 0.10492 0.0
H2451 H 0.73357 0.77542 0.09503 0.0
H2452 H 0.71 0.75381 0.05459 0.0
H2453 H 0.73114 0.73394 0.05268 0.0
C2454 C 0.75576 0.73055 0.07287 0.0
C2455 C 0.76775 0.72987 0.08462 0.0
C2456 C 0.74444 0.7429 0.07296 0.0
C2457 C 0.76889 0.74233 0.09582 0.0
C2458 C 0.75777 0.75476 0.09586 0.0
C2459 C 0.73315 0.76651 0.08565 0.0
C2460 C 0.72008 0.76603 0.0751 0.0
C2461 C 0.74525 0.75493 0.08474 0.0
C2462 C 0.71982 0.75442 0.06297 0.0
C2463 C 0.73191 0.74301 0.06188 0.0
H2464 H 0.22834 0.73113 0.08896 0.0
H2465 H 0.2528 0.70236 0.05388 0.0
H2466 H 0.2734 0.72273 0.05131 0.0
H2467 H 0.28604 0.74712 0.06124 0.0
H2468 H 0.26202 0.7756 0.09685 0.0
H2469 H 0.23959 0.75703 0.09677 0.0
C2470 C 0.23804 0.7294 0.08058 0.0
C2471 C 0.23912 0.7151 0.07182 0.0
C2472 C 0.25001 0.74106 0.07931 0.0
C2473 C 0.25172 0.71316 0.0609 0.0
C2474 C 0.26355 0.7248 0.05944 0.0
C2475 C 0.27581 0.74942 0.06883 0.0
C2476 C 0.27586 0.76263 0.07921 0.0
C2477 C 0.26307 0.73856 0.06894 0.0
C2478 C 0.26239 0.76548 0.08881 0.0
C2479 C 0.24956 0.75482 0.08883 0.0
H2480 H 0.71606 0.2512 0.05927 0.0
H2481 H 0.74222 0.22258 0.09319 0.0
H2482 H 0.76433 0.2415 0.09236 0.0
H2483 H 0.77473 0.26778 0.08458 0.0
H2484 H 0.7481 0.29666 0.05124 0.0
H2485 H 0.72781 0.27594 0.04918 0.0
C2486 C 0.72669 0.24895 0.06631 0.0
C2487 C 0.72734 0.23561 0.07646 0.0
C2488 C 0.73925 0.26002 0.06601 0.0
C2489 C 0.74131 0.23281 0.08535 0.0
C2490 C 0.75396 0.24367 0.08494 0.0
C2491 C 0.76463 0.26945 0.07666 0.0
C2492 C 0.76285 0.28389 0.06829 0.0
C2493 C 0.75283 0.25758 0.07571 0.0
C2494 C 0.74972 0.28576 0.05798 0.0
C2495 C 0.73807 0.27392 0.05681 0.0
H2496 H 0.56249 0.77936 0.7471 0.0
H2497 H 0.59846 0.75595 0.71856 0.0
H2498 H 0.59933 0.73389 0.73748 0.0
H2499 H 0.59207 0.7227 0.76353 0.0
H2500 H 0.55651 0.74644 0.79232 0.0
H2501 H 0.55324 0.76678 0.77181 0.0
C2502 C 0.57037 0.76934 0.74487 0.0
C2503 C 0.58055 0.76947 0.73152 0.0
C2504 C 0.57101 0.75678 0.75593 0.0
C2505 C 0.59056 0.75627 0.72878 0.0
C2506 C 0.59112 0.74364 0.73964 0.0
C2507 C 0.58345 0.7322 0.76525 0.0
C2508 C 0.57473 0.73313 0.77958 0.0
C2509 C 0.58175 0.744 0.75348 0.0
C2510 C 0.5635 0.74546 0.78149 0.0
C2511 C 0.56163 0.75715 0.76977 0.0
H2512 H 0.21035 0.5598 0.75026 0.0
H2513 H 0.23384 0.59591 0.722 0.0
H2514 H 0.25694 0.59496 0.73969 0.0
H2515 H 0.26917 0.58606 0.76476 0.0
H2516 H 0.2452 0.55063 0.79348 0.0
H2517 H 0.22375 0.549 0.77389 0.0
C2518 C 0.22059 0.56733 0.74784 0.0
C2519 C 0.22023 0.57806 0.73494 0.0
C2520 C 0.23375 0.56692 0.75819 0.0
C2521 C 0.2337 0.58762 0.73191 0.0
C2522 C 0.24693 0.58712 0.74205 0.0
C2523 C 0.2594 0.57777 0.76661 0.0
C2524 C 0.25872 0.56863 0.78068 0.0
C2525 C 0.2469 0.57713 0.75546 0.0
C2526 C 0.24598 0.55792 0.78284 0.0
C2527 C 0.23366 0.55701 0.77166 0.0
H2528 H 0.41376 0.2386 0.73276 0.0
H2529 H 0.44926 0.21096 0.75788 0.0
H2530 H 0.4514 0.23174 0.77811 0.0
H2531 H 0.44093 0.25615 0.7903 0.0
H2532 H 0.40476 0.28338 0.76568 0.0
H2533 H 0.40535 0.26447 0.74357 0.0
C2534 C 0.42216 0.23722 0.74251 0.0
C2535 C 0.43115 0.22311 0.74389 0.0
C2536 C 0.42313 0.2491 0.75429 0.0
C2537 C 0.44205 0.2216 0.75658 0.0
C2538 C 0.44327 0.23348 0.76819 0.0
C2539 C 0.43334 0.25811 0.78 0.0
C2540 C 0.42265 0.27106 0.7798 0.0
C2541 C 0.4335 0.24703 0.76744 0.0
C2542 C 0.41301 0.27345 0.76626 0.0
C2543 C 0.4133 0.26261 0.7536 0.0
H2544 H 0.72863 0.40895 0.7666 0.0
H2545 H 0.75181 0.44583 0.79415 0.0
H2546 H 0.77294 0.44765 0.77421 0.0
H2547 H 0.78616 0.43696 0.75036 0.0
H2548 H 0.76327 0.39957 0.72326 0.0
H2549 H 0.74068 0.39989 0.74157 0.0
C2550 C 0.73817 0.41755 0.76817 0.0
C2551 C 0.73869 0.4271 0.78197 0.0
C2552 C 0.75044 0.41836 0.75679 0.0
C2553 C 0.75114 0.43824 0.78371 0.0
C2554 C 0.76327 0.43926 0.77233 0.0
C2555 C 0.77616 0.42901 0.74833 0.0
C2556 C 0.77654 0.41813 0.73553 0.0
C2557 C 0.76326 0.42909 0.75904 0.0
C2558 C 0.76339 0.40799 0.73306 0.0
C2559 C 0.75045 0.40814 0.74355 0.0
H2560 H 0.59029 0.23802 0.271 0.0
H2561 H 0.55332 0.211 0.24734 0.0
H2562 H 0.55147 0.23132 0.22662 0.0
H2563 H 0.56245 0.25507 0.21362 0.0
H2564 H 0.60013 0.2816 0.23672 0.0
H2565 H 0.59942 0.26327 0.2593 0.0
C2566 C 0.58162 0.2367 0.26148 0.0
C2567 C 0.57211 0.22288 0.26065 0.0
C2568 C 0.58084 0.24828 0.24938 0.0
C2569 C 0.56092 0.22142 0.24822 0.0
C2570 C 0.55987 0.23303 0.23632 0.0
C2571 C 0.57036 0.25701 0.22368 0.0
C2572 C 0.58147 0.2696 0.22332 0.0
C2573 C 0.57011 0.24625 0.23652 0.0
C2574 C 0.59154 0.27195 0.23657 0.0
C2575 C 0.59118 0.26143 0.2495 0.0
H2576 H 0.7632 0.58793 0.27039 0.0
H2577 H 0.79301 0.55558 0.24352 0.0
H2578 H 0.77257 0.55363 0.22291 0.0
H2579 H 0.7478 0.56359 0.21103 0.0
H2580 H 0.71833 0.59656 0.23749 0.0
H2581 H 0.73699 0.59555 0.25981 0.0
C2582 C 0.76515 0.58025 0.26015 0.0
C2583 C 0.77975 0.57213 0.25841 0.0
C2584 C 0.75346 0.57937 0.24818 0.0
C2585 C 0.78197 0.56211 0.24512 0.0
C2586 C 0.77029 0.56101 0.23328 0.0
C2587 C 0.74531 0.57038 0.22176 0.0
C2588 C 0.7318 0.58033 0.22245 0.0
C2589 C 0.75623 0.56998 0.23445 0.0
C2590 C 0.72869 0.5889 0.23655 0.0
C2591 C 0.7394 0.58838 0.24932 0.0
H2592 H 0.43957 0.74375 0.21349 0.0
H2593 H 0.40259 0.7165 0.23686 0.0
H2594 H 0.4025 0.73534 0.25903 0.0
H2595 H 0.41075 0.76107 0.27031 0.0
H2596 H 0.44714 0.7887 0.24648 0.0
H2597 H 0.44972 0.76808 0.22613 0.0
C2598 C 0.43164 0.74178 0.22352 0.0
C2599 C 0.42096 0.72883 0.22336 0.0
C2600 C 0.43144 0.75281 0.23614 0.0
C2601 C 0.41086 0.72643 0.23656 0.0
C2602 C 0.41076 0.73723 0.24926 0.0
C2603 C 0.41944 0.76248 0.26082 0.0
C2604 C 0.42857 0.77653 0.25984 0.0
C2605 C 0.42067 0.7507 0.24895 0.0
C2606 C 0.43983 0.77809 0.24748 0.0
C2607 C 0.4413 0.76631 0.23578 0.0
H2608 H 0.25218 0.43836 0.21192 0.0
H2609 H 0.28218 0.40403 0.23593 0.0
H2610 H 0.26377 0.40345 0.25844 0.0
H2611 H 0.23775 0.41032 0.26989 0.0
H2612 H 0.20735 0.44402 0.2455 0.0
H2613 H 0.22742 0.44731 0.2247 0.0
C2614 C 0.25484 0.43093 0.22217 0.0
C2615 C 0.26845 0.42109 0.22209 0.0
C2616 C 0.24405 0.43042 0.23498 0.0
C2617 C 0.27173 0.41163 0.23556 0.0
C2618 C 0.26118 0.41124 0.24845 0.0
C2619 C 0.23558 0.41857 0.26016 0.0
C2620 C 0.22094 0.42672 0.25917 0.0
C2621 C 0.24707 0.42022 0.24807 0.0
C2622 C 0.21844 0.43746 0.24651 0.0
C2623 C 0.2299 0.43933 0.23457 0.0
H2624 H 0.73116 0.59172 0.76499 0.0
H2625 H 0.7537 0.55498 0.79321 0.0
H2626 H 0.77435 0.55185 0.77297 0.0
H2627 H 0.78772 0.56171 0.74893 0.0
H2628 H 0.76574 0.59914 0.72117 0.0
H2629 H 0.74312 0.59965 0.73947 0.0
C2630 C 0.74042 0.58282 0.7666 0.0
C2631 C 0.74097 0.57376 0.78072 0.0
C2632 C 0.75249 0.5813 0.75506 0.0
C2633 C 0.75306 0.56225 0.78255 0.0
C2634 C 0.76492 0.56046 0.77099 0.0
C2635 C 0.77789 0.56982 0.74672 0.0
C2636 C 0.77859 0.58052 0.73381 0.0
C2637 C 0.76503 0.57028 0.75745 0.0
C2638 C 0.76564 0.59086 0.7311 0.0
C2639 C 0.75268 0.5912 0.74158 0.0
H2640 H 0.40377 0.75858 0.7287 0.0
H2641 H 0.44597 0.78267 0.74588 0.0
H2642 H 0.4487 0.76309 0.7672 0.0
H2643 H 0.43753 0.74098 0.78264 0.0
H2644 H 0.39482 0.71735 0.76606 0.0
H2645 H 0.39401 0.7348 0.74279 0.0
C2646 C 0.41373 0.75939 0.73692 0.0
C2647 C 0.42453 0.7722 0.73577 0.0
C2648 C 0.41506 0.74827 0.74939 0.0
C2649 C 0.43738 0.77304 0.74656 0.0
C2650 C 0.43894 0.76186 0.7588 0.0
C2651 C 0.42814 0.73949 0.77385 0.0
C2652 C 0.41614 0.72798 0.77625 0.0
C2653 C 0.42759 0.74972 0.76061 0.0
C2654 C 0.40416 0.72617 0.76462 0.0
C2655 C 0.40365 0.73618 0.7513 0.0
H2656 H 0.2676 0.40692 0.7671 0.0
H2657 H 0.24373 0.44445 0.79313 0.0
H2658 H 0.22443 0.44735 0.77156 0.0
H2659 H 0.21259 0.43725 0.74684 0.0
H2660 H 0.23584 0.39908 0.72119 0.0
H2661 H 0.2572 0.39862 0.74098 0.0
C2662 C 0.25834 0.41592 0.76796 0.0
C2663 C 0.25702 0.4253 0.78184 0.0
C2664 C 0.24707 0.41734 0.75563 0.0
C2665 C 0.24496 0.43694 0.78268 0.0
C2666 C 0.23388 0.4386 0.77035 0.0
C2667 C 0.22244 0.42897 0.74542 0.0
C2668 C 0.22245 0.41808 0.73263 0.0
C2669 C 0.23454 0.42855 0.757 0.0
C2670 C 0.23541 0.40753 0.73096 0.0
C2671 C 0.24763 0.40722 0.74231 0.0
H2672 H 0.59237 0.27558 0.76049 0.0
H2673 H 0.55492 0.25386 0.78844 0.0
H2674 H 0.55219 0.23271 0.7687 0.0
H2675 H 0.56266 0.21862 0.74534 0.0
H2676 H 0.60061 0.23987 0.71771 0.0
H2677 H 0.6007 0.26302 0.73535 0.0
C2678 C 0.58342 0.26639 0.76214 0.0
C2679 C 0.57406 0.26621 0.77608 0.0
C2680 C 0.58207 0.25406 0.75085 0.0
C2681 C 0.56243 0.25423 0.77793 0.0
C2682 C 0.56087 0.24208 0.76665 0.0
C2683 C 0.57079 0.22841 0.74301 0.0
C2684 C 0.58178 0.22734 0.73036 0.0
C2685 C 0.57099 0.24159 0.75335 0.0
C2686 C 0.5921 0.24026 0.72743 0.0
C2687 C 0.59222 0.25351 0.73756 0.0
H2688 H 0.78778 0.44012 0.24838 0.0
H2689 H 0.76389 0.40315 0.27517 0.0
H2690 H 0.7418 0.40346 0.25624 0.0
H2691 H 0.73054 0.4123 0.23072 0.0
H2692 H 0.75468 0.4489 0.20366 0.0
H2693 H 0.77525 0.45074 0.22416 0.0
C2694 C 0.77766 0.43226 0.25022 0.0
C2695 C 0.77764 0.42149 0.26309 0.0
C2696 C 0.76505 0.43234 0.23917 0.0
C2697 C 0.76432 0.4115 0.26532 0.0
C2698 C 0.75167 0.41163 0.25447 0.0
C2699 C 0.74018 0.42083 0.22938 0.0
C2700 C 0.74113 0.43029 0.21554 0.0
C2701 C 0.75211 0.4217 0.24112 0.0
C2702 C 0.75367 0.44137 0.21411 0.0
C2703 C 0.76549 0.44241 0.22582 0.0
H2704 H 0.55931 0.78654 0.25311 0.0
H2705 H 0.59317 0.76122 0.28257 0.0
H2706 H 0.59357 0.73927 0.26345 0.0
H2707 H 0.58691 0.72887 0.23689 0.0
H2708 H 0.55372 0.75471 0.20711 0.0
H2709 H 0.55037 0.77473 0.22794 0.0
C2710 C 0.5666 0.77612 0.25551 0.0
C2711 C 0.57639 0.77568 0.26915 0.0
C2712 C 0.56703 0.76367 0.24432 0.0
C2713 C 0.58561 0.76198 0.27211 0.0
C2714 C 0.58591 0.74942 0.26114 0.0
C2715 C 0.57875 0.73874 0.23503 0.0
C2716 C 0.57078 0.74039 0.22033 0.0
C2717 C 0.57707 0.75039 0.24696 0.0
C2718 C 0.56015 0.75321 0.21822 0.0
C2719 C 0.55824 0.7647 0.23012 0.0
H2720 H 0.26939 0.58682 0.24149 0.0
H2721 H 0.24449 0.55413 0.21037 0.0
H2722 H 0.22342 0.55104 0.23019 0.0
H2723 H 0.21055 0.56006 0.25488 0.0
H2724 H 0.23509 0.59342 0.28558 0.0
H2725 H 0.25785 0.5936 0.26749 0.0
C2726 C 0.25949 0.57882 0.23912 0.0
C2727 C 0.25844 0.57092 0.22435 0.0
C2728 C 0.24725 0.5773 0.25046 0.0
C2729 C 0.24556 0.5605 0.22157 0.0
C2730 C 0.23346 0.55874 0.23289 0.0
C2731 C 0.22097 0.56718 0.25777 0.0
C2732 C 0.22097 0.57689 0.27147 0.0
C2733 C 0.23394 0.56747 0.24716 0.0
C2734 C 0.23466 0.58594 0.27505 0.0
C2735 C 0.24769 0.58609 0.26468 0.0
H2736 H 0.43947 0.21699 0.25458 0.0
H2737 H 0.40428 0.24246 0.2823 0.0
H2738 H 0.40452 0.26416 0.26291 0.0
H2739 H 0.41228 0.27432 0.23655 0.0
H2740 H 0.44678 0.24829 0.20848 0.0
H2741 H 0.44933 0.22852 0.22964 0.0
C2742 C 0.43202 0.22739 0.25655 0.0
C2743 C 0.4217 0.22795 0.26978 0.0
C2744 C 0.43197 0.23969 0.2452 0.0
C2745 C 0.41225 0.24162 0.27216 0.0
C2746 C 0.41233 0.25403 0.26104 0.0
C2747 C 0.42055 0.26447 0.23515 0.0
C2748 C 0.42914 0.26269 0.22083 0.0
C2749 C 0.42176 0.25295 0.24726 0.0
C2750 C 0.43988 0.24989 0.21929 0.0
C2751 C 0.44134 0.23854 0.23139 0.0
H2752 H 0.7907 0.75268 0.55928 0.0
H2753 H 0.76884 0.7219 0.59436 0.0
H2754 H 0.7454 0.73912 0.5951 0.0
H2755 H 0.7324 0.76436 0.58798 0.0
H2756 H 0.7547 0.79552 0.55354 0.0
H2757 H 0.77653 0.77659 0.55026 0.0
C2758 C 0.78073 0.74959 0.56694 0.0
C2759 C 0.78167 0.73611 0.5769 0.0
C2760 C 0.76737 0.75968 0.56752 0.0
C2761 C 0.76855 0.73227 0.58665 0.0
C2762 C 0.75512 0.74213 0.58712 0.0
C2763 C 0.74189 0.76691 0.57957 0.0
C2764 C 0.74198 0.78146 0.57119 0.0
C2765 C 0.7546 0.7561 0.57794 0.0
C2766 C 0.75437 0.7845 0.56028 0.0
C2767 C 0.76691 0.77369 0.55841 0.0
H2768 H 0.78029 0.2495 0.43917 0.0
H2769 H 0.75809 0.28052 0.40453 0.0
H2770 H 0.73472 0.26322 0.40375 0.0
H2771 H 0.72211 0.23765 0.41032 0.0
H2772 H 0.74465 0.20632 0.44446 0.0
H2773 H 0.7662 0.2255 0.44813 0.0
C2774 C 0.77025 0.25263 0.43162 0.0
C2775 C 0.77111 0.26616 0.42173 0.0
C2776 C 0.75692 0.2425 0.43102 0.0
C2777 C 0.75787 0.27011 0.41217 0.0
C2778 C 0.74449 0.26019 0.41167 0.0
C2779 C 0.73158 0.23511 0.41877 0.0
C2780 C 0.73186 0.22042 0.42689 0.0
C2781 C 0.74412 0.24608 0.42064 0.0
C2782 C 0.74418 0.21744 0.4379 0.0
C2783 C 0.75657 0.22839 0.43999 0.0
H2784 H 0.78153 0.74478 0.43913 0.0
H2785 H 0.75521 0.71599 0.40543 0.0
H2786 H 0.73303 0.73481 0.40645 0.0
H2787 H 0.72258 0.76098 0.41432 0.0
H2788 H 0.74937 0.79019 0.44728 0.0
H2789 H 0.76976 0.76953 0.44927 0.0
C2790 C 0.77086 0.74247 0.43218 0.0
C2791 C 0.77017 0.7291 0.42203 0.0
C2792 C 0.75825 0.75348 0.43258 0.0
C2793 C 0.75615 0.72624 0.41324 0.0
C2794 C 0.74346 0.73703 0.41377 0.0
C2795 C 0.73273 0.76274 0.42215 0.0
C2796 C 0.73453 0.77724 0.43044 0.0
C2797 C 0.7446 0.75094 0.42301 0.0
C2798 C 0.74773 0.77923 0.44063 0.0
C2799 C 0.75944 0.76743 0.44174 0.0
H2800 H 0.23978 0.73238 0.41001 0.0
H2801 H 0.21001 0.75603 0.4448 0.0
H2802 H 0.23027 0.77656 0.44845 0.0
H2803 H 0.25498 0.78943 0.43957 0.0
H2804 H 0.28443 0.7662 0.40423 0.0
H2805 H 0.26586 0.74384 0.40321 0.0
C2806 C 0.23781 0.74188 0.41858 0.0
C2807 C 0.22327 0.74275 0.42693 0.0
C2808 C 0.24942 0.75383 0.42046 0.0
C2809 C 0.22101 0.75512 0.43806 0.0
C2810 C 0.23258 0.76691 0.44016 0.0
C2811 C 0.25749 0.77938 0.43182 0.0
C2812 C 0.27098 0.77966 0.42183 0.0
C2813 C 0.24662 0.76665 0.43107 0.0
C2814 C 0.27407 0.76643 0.41196 0.0
C2815 C 0.26343 0.75362 0.41132 0.0
H2816 H 0.27329 0.23043 0.41172 0.0
H2817 H 0.24624 0.2029 0.44587 0.0
H2818 H 0.22662 0.22427 0.44781 0.0
H2819 H 0.21573 0.24946 0.43781 0.0
H2820 H 0.24238 0.27677 0.40319 0.0
H2821 H 0.26364 0.25689 0.40366 0.0
C2822 C 0.26322 0.22916 0.41974 0.0
C2823 C 0.26117 0.21495 0.42846 0.0
C2824 C 0.25183 0.24143 0.42067 0.0
C2825 C 0.24809 0.21362 0.4389 0.0
C2826 C 0.23682 0.22584 0.44001 0.0
C2827 C 0.22628 0.25121 0.43052 0.0
C2828 C 0.22732 0.26451 0.42033 0.0
C2829 C 0.23835 0.2396 0.43064 0.0
C2830 C 0.24118 0.26661 0.41108 0.0
C2831 C 0.25334 0.2552 0.41128 0.0
H2832 H 0.24001 0.27122 0.58874 0.0
H2833 H 0.21298 0.24553 0.55315 0.0
H2834 H 0.23374 0.22518 0.55186 0.0
H2835 H 0.25795 0.21313 0.56306 0.0
H2836 H 0.28448 0.23843 0.59931 0.0
H2837 H 0.2656 0.2605 0.59795 0.0
C2838 C 0.23876 0.26132 0.58049 0.0
C2839 C 0.22483 0.25983 0.57123 0.0
C2840 C 0.25059 0.24947 0.58003 0.0
C2841 C 0.22349 0.24694 0.56055 0.0
C2842 C 0.23535 0.23525 0.55982 0.0
C2843 C 0.25975 0.22356 0.57051 0.0
C2844 C 0.27251 0.22398 0.58143 0.0
C2845 C 0.2487 0.23614 0.56988 0.0
C2846 C 0.27469 0.23767 0.5909 0.0
C2847 C 0.26388 0.25032 0.59016 0.0
H2848 H 0.78189 0.24506 0.55922 0.0
H2849 H 0.75444 0.27313 0.5926 0.0
H2850 H 0.73297 0.2535 0.59168 0.0
H2851 H 0.72339 0.22698 0.58383 0.0
H2852 H 0.75127 0.19854 0.55112 0.0
H2853 H 0.77104 0.21981 0.54924 0.0
C2854 C 0.77113 0.24703 0.56613 0.0
C2855 C 0.76992 0.26046 0.57614 0.0
C2856 C 0.75893 0.23555 0.56577 0.0
C2857 C 0.75579 0.26285 0.58488 0.0
C2858 C 0.7435 0.25159 0.58441 0.0
C2859 C 0.73366 0.2255 0.57609 0.0
C2860 C 0.73593 0.21106 0.56781 0.0
C2861 C 0.74515 0.23767 0.57527 0.0
C2862 C 0.74927 0.20945 0.55775 0.0
C2863 C 0.76063 0.2216 0.55669 0.0
H2864 H 0.26986 0.76473 0.5906 0.0
H2865 H 0.24763 0.79513 0.55545 0.0
H2866 H 0.22635 0.77566 0.55177 0.0
H2867 H 0.21246 0.75153 0.5607 0.0
H2868 H 0.23421 0.72155 0.59652 0.0
H2869 H 0.25729 0.73922 0.59757 0.0
C2870 C 0.26051 0.76699 0.58194 0.0
C2871 C 0.26026 0.78149 0.57349 0.0
C2872 C 0.2481 0.75587 0.58008 0.0
C2873 C 0.24806 0.78416 0.56226 0.0
C2874 C 0.23584 0.77304 0.56015 0.0
C2875 C 0.22235 0.7487 0.56856 0.0
C2876 C 0.22146 0.73533 0.57866 0.0
C2877 C 0.23549 0.75908 0.56934 0.0
C2878 C 0.23446 0.73184 0.5887 0.0
C2879 C 0.24768 0.74197 0.58935 0.0
H2880 H 0.02545 0.18955 0.32695 0.0
H2881 H 0.02917 0.2334 0.35371 0.0
H2882 H 0.00049 0.23337 0.35825 0.0
H2883 H 0.97418 0.22299 0.35173 0.0
H2884 H 0.96961 0.18 0.32381 0.0
H2885 H 0.99874 0.17737 0.32291 0.0
C2886 C 0.01999 0.19889 0.33405 0.0
C2887 C 0.02938 0.21156 0.33982 0.0
C2888 C 0.00332 0.19902 0.3363 0.0
C2889 C 0.02217 0.22362 0.34896 0.0
C2890 C 0.00576 0.22362 0.35157 0.0
C2891 C 0.97952 0.21288 0.34566 0.0
C2892 C 0.96976 0.20183 0.33767 0.0
C2893 C 0.99618 0.21171 0.34483 0.0
C2894 C 0.97687 0.1887 0.33004 0.0
C2895 C 0.99353 0.18726 0.32942 0.0
H2896 H 0.80879 0.97373 0.32841 0.0
H2897 H 0.76582 0.96944 0.35648 0.0
H2898 H 0.76611 0.99798 0.36178 0.0
H2899 H 0.77616 0.0244 0.35534 0.0
H2900 H 0.81809 0.02959 0.32595 0.0
H2901 H 0.82088 0.00051 0.3246 0.0
C2902 C 0.79973 0.97903 0.33596 0.0
C2903 C 0.78718 0.96955 0.34186 0.0
C2904 C 0.7997 0.99563 0.33863 0.0
C2905 C 0.77548 0.97654 0.35161 0.0
C2906 C 0.77562 0.99286 0.35466 0.0
C2907 C 0.7861 0.01919 0.34887 0.0
C2908 C 0.79675 0.02911 0.34056 0.0
C2909 C 0.78731 0.00258 0.34774 0.0
C2910 C 0.80969 0.0222 0.33243 0.0
C2911 C 0.81121 0.00556 0.33154 0.0
H2912 H 0.97176 0.81057 0.32988 0.0
H2913 H 0.97026 0.76833 0.35927 0.0
H2914 H 0.99898 0.76983 0.36337 0.0
H2915 H 0.02473 0.78059 0.35539 0.0
H2916 H 0.02706 0.82188 0.32481 0.0
H2917 H 0.99785 0.82356 0.32468 0.0
C2918 C 0.9777 0.80195 0.33749 0.0
C2919 C 0.96896 0.78923 0.34409 0.0
C2920 C 0.99439 0.80263 0.33945 0.0
C2921 C 0.97678 0.77811 0.35389 0.0
C2922 C 0.99321 0.77894 0.35623 0.0
C2923 C 0.01887 0.79015 0.34893 0.0
C2924 C 0.02801 0.80093 0.33992 0.0
C2925 C 0.00218 0.79075 0.34856 0.0
C2926 C 0.02027 0.81339 0.3318 0.0
C2927 C 0.00357 0.81428 0.33162 0.0
H2928 H 0.23089 0.02468 0.34529 0.0
H2929 H 0.18633 0.02851 0.31981 0.0
H2930 H 0.18357 0.99941 0.32 0.0
H2931 H 0.19582 0.97282 0.32423 0.0
H2932 H 0.24099 0.96967 0.34882 0.0
H2933 H 0.24141 0.9985 0.35229 0.0
C2934 C 0.22043 0.01918 0.34 0.0
C2935 C 0.20896 0.02873 0.33236 0.0
C2936 C 0.21911 0.00251 0.33986 0.0
C2937 C 0.19537 0.02142 0.32574 0.0
C2938 C 0.19384 0.00477 0.32575 0.0
C2939 C 0.20556 0.97844 0.33065 0.0
C2940 C 0.21845 0.96913 0.33608 0.0
C2941 C 0.20592 0.99517 0.33231 0.0
C2942 C 0.23101 0.97657 0.34435 0.0
C2943 C 0.23128 0.99307 0.34633 0.0
H2944 H 0.02411 0.81529 0.66999 0.0
H2945 H 0.02666 0.77279 0.64099 0.0
H2946 H 0.99769 0.77232 0.6387 0.0
H2947 H 0.97176 0.78138 0.64835 0.0
H2948 H 0.96865 0.82326 0.67807 0.0
H2949 H 0.99764 0.82675 0.67643 0.0
C2950 C 0.01833 0.80619 0.66282 0.0
C2951 C 0.02751 0.79396 0.65587 0.0
C2952 C 0.00155 0.80575 0.66186 0.0
C2953 C 0.01986 0.78223 0.64662 0.0
C2954 C 0.00328 0.78191 0.64534 0.0
C2955 C 0.97739 0.79146 0.65422 0.0
C2956 C 0.96813 0.80189 0.66352 0.0
C2957 C 0.99401 0.7932 0.65346 0.0
C2958 C 0.97554 0.81503 0.67087 0.0
C2959 C 0.99213 0.81696 0.67002 0.0
H2960 H 0.19643 0.02924 0.67742 0.0
H2961 H 0.24132 0.03118 0.65221 0.0
H2962 H 0.24105 0.00233 0.649 0.0
H2963 H 0.23 0.97646 0.65629 0.0
H2964 H 0.18565 0.97379 0.68226 0.0
H2965 H 0.18362 0.00296 0.68201 0.0
C2966 C 0.20595 0.02336 0.67092 0.0
C2967 C 0.21897 0.03233 0.66523 0.0
C2968 C 0.20591 0.00661 0.6694 0.0
C2969 C 0.23125 0.02454 0.65687 0.0
C2970 C 0.23113 0.00803 0.65504 0.0
C2971 C 0.21975 0.98223 0.6617 0.0
C2972 C 0.20812 0.97299 0.66948 0.0
C2973 C 0.21883 0.99892 0.66175 0.0
C2974 C 0.1948 0.98064 0.67623 0.0
C2975 C 0.19369 0.99733 0.67617 0.0
H2976 H 0.97495 0.21922 0.64107 0.0
H2977 H 0.96844 0.18031 0.67408 0.0
H2978 H 0.99733 0.17586 0.67472 0.0
H2979 H 0.02457 0.18615 0.66932 0.0
H2980 H 0.03033 0.22635 0.6377 0.0
H2981 H 0.00167 0.22708 0.63295 0.0
C2982 C 0.97981 0.20955 0.64817 0.0
C2983 C 0.96962 0.2003 0.65772 0.0
C2984 C 0.99636 0.20743 0.64886 0.0
C2985 C 0.97606 0.18765 0.66666 0.0
C2986 C 0.99259 0.1852 0.66713 0.0
C2987 C 0.01954 0.19477 0.66109 0.0
C2988 C 0.02947 0.20631 0.65402 0.0
C2989 C 0.0029 0.19546 0.6588 0.0
C2990 C 0.02287 0.21748 0.64342 0.0
C2991 C 0.00648 0.21793 0.64072 0.0
H2992 H 0.77214 0.03242 0.6573 0.0
H2993 H 0.81568 0.03487 0.68463 0.0
H2994 H 0.81848 0.0058 0.68297 0.0
H2995 H 0.80636 0.97948 0.67686 0.0
H2996 H 0.76221 0.97778 0.65035 0.0
H2997 H 0.76194 0.00673 0.64844 0.0
C2998 C 0.78239 0.02663 0.66269 0.0
C2999 C 0.79355 0.03572 0.67128 0.0
C3000 C 0.78373 0.01 0.66195 0.0
C3001 C 0.8069 0.0281 0.67799 0.0
C3002 C 0.80844 0.01147 0.67713 0.0
C3003 C 0.79689 0.98546 0.67038 0.0
C3004 C 0.7842 0.97651 0.66396 0.0
C3005 C 0.79661 0.00225 0.66961 0.0
C3006 C 0.772 0.9844 0.65559 0.0
C3007 C 0.77181 0.00097 0.6545 0.0
H3008 H 0.33294 0.97702 0.18337 0.0
H3009 H 0.36771 0.9712 0.22091 0.0
H3010 H 0.37223 0.99988 0.22157 0.0
H3011 H 0.36291 0.02659 0.21495 0.0
H3012 H 0.32712 0.03307 0.17857 0.0
H3013 H 0.32664 0.00425 0.17369 0.0
C3014 C 0.34183 0.98203 0.19134 0.0
C3015 C 0.34981 0.97207 0.20225 0.0
C3016 C 0.34403 0.99868 0.19201 0.0
C3017 C 0.36127 0.97867 0.21256 0.0
C3018 C 0.36384 0.99508 0.21298 0.0
C3019 C 0.35527 0.02174 0.20569 0.0
C3020 C 0.34487 0.03186 0.19734 0.0
C3021 C 0.35475 0.00521 0.2033 0.0
C3022 C 0.3352 0.02548 0.18521 0.0
C3023 C 0.33483 0.00899 0.18252 0.0
H3024 H 0.97091 0.32497 0.18859 0.0
H3025 H 0.96574 0.35091 0.23279 0.0
H3026 H 0.99436 0.35583 0.23356 0.0
H3027 H 0.02103 0.34983 0.22372 0.0
H3028 H 0.02697 0.32285 0.18029 0.0
H3029 H 0.99793 0.32155 0.177 0.0
C3030 C 0.97604 0.33198 0.19819 0.0
C3031 C 0.96623 0.3374 0.21072 0.0
C3032 C 0.99267 0.33446 0.19877 0.0
C3033 C 0.97304 0.34644 0.2231 0.0
C3034 C 0.98942 0.34925 0.22357 0.0
C3035 C 0.01601 0.34388 0.21337 0.0
C3036 C 0.02614 0.33627 0.20239 0.0
C3037 C 0.99939 0.34285 0.21178 0.0
C3038 C 0.01943 0.32878 0.18896 0.0
C3039 C 0.00282 0.32794 0.18713 0.0
H3040 H 0.67204 0.97511 0.18868 0.0
H3041 H 0.64013 0.97155 0.22896 0.0
H3042 H 0.63791 0.00047 0.2301 0.0
H3043 H 0.64816 0.02657 0.22242 0.0
H3044 H 0.68066 0.0308 0.18277 0.0
H3045 H 0.67934 0.00189 0.17843 0.0
C3046 C 0.66428 0.98068 0.19741 0.0
C3047 C 0.65645 0.97123 0.20887 0.0
C3048 C 0.66334 0.99744 0.19826 0.0
C3049 C 0.64644 0.97859 0.22014 0.0
C3050 C 0.64519 0.99513 0.22084 0.0
C3051 C 0.65474 0.0212 0.21264 0.0
C3052 C 0.66469 0.03071 0.2031 0.0
C3053 C 0.65411 0.00466 0.21041 0.0
C3054 C 0.67295 0.02368 0.19032 0.0
C3055 C 0.67228 0.00714 0.1879 0.0
H3056 H 0.03424 0.6514 0.22539 0.0
H3057 H 0.03729 0.68156 0.18385 0.0
H3058 H 0.00838 0.6793 0.17992 0.0
H3059 H 0.98187 0.67199 0.19086 0.0
H3060 H 0.97946 0.64237 0.23293 0.0
H3061 H 0.00845 0.64099 0.23393 0.0
C3062 C 0.02862 0.65725 0.2153 0.0
C3063 C 0.03781 0.66683 0.20508 0.0
C3064 C 0.01206 0.6561 0.21329 0.0
C3065 C 0.03044 0.67414 0.19191 0.0
C3066 C 0.01389 0.67294 0.18973 0.0
C3067 C 0.98771 0.66491 0.19999 0.0
C3068 C 0.97852 0.6575 0.21195 0.0
C3069 C 0.0045 0.66443 0.20071 0.0
C3070 C 0.98625 0.64837 0.2237 0.0
C3071 C 0.00284 0.64759 0.22432 0.0
H3072 H 0.33304 0.97294 0.81436 0.0
H3073 H 0.36671 0.97097 0.77545 0.0
H3074 H 0.37102 0.99963 0.77738 0.0
H3075 H 0.36194 0.0255 0.78692 0.0
H3076 H 0.32715 0.02827 0.82473 0.0
H3077 H 0.32682 0.9991 0.82672 0.0
C3078 C 0.34163 0.97876 0.80663 0.0
C3079 C 0.34938 0.96992 0.79463 0.0
C3080 C 0.3437 0.99541 0.80748 0.0
C3081 C 0.36045 0.97757 0.78464 0.0
C3082 C 0.3629 0.99396 0.78571 0.0
C3083 C 0.35453 0.01974 0.79585 0.0
C3084 C 0.34439 0.02897 0.80547 0.0
C3085 C 0.35407 0.00306 0.79658 0.0
C3086 C 0.33504 0.02139 0.81714 0.0
C3087 C 0.33475 0.00471 0.81818 0.0
H3088 H 0.02562 0.32688 0.80693 0.0
H3089 H 0.02895 0.35586 0.76449 0.0
H3090 H 1.00013 0.35951 0.76443 0.0
H3091 H 0.97389 0.35108 0.77384 0.0
H3092 H 0.96997 0.32135 0.81563 0.0
H3093 H 0.99904 0.32164 0.81873 0.0
C3094 C 0.02006 0.33433 0.79793 0.0
C3095 C 0.02939 0.34089 0.78559 0.0
C3096 C 0.00334 0.33608 0.79773 0.0
C3097 C 0.02202 0.35051 0.774 0.0
C3098 C 0.00552 0.35258 0.77392 0.0
C3099 C 0.97936 0.34491 0.78381 0.0
C3100 C 0.96982 0.336 0.79433 0.0
C3101 C 0.99603 0.34487 0.78531 0.0
C3102 C 0.97706 0.32826 0.80733 0.0
C3103 C 0.9937 0.32833 0.80904 0.0
H3104 H 0.64149 0.02647 0.78273 0.0
H3105 H 0.67334 0.02883 0.82307 0.0
H3106 H 0.67248 0.99971 0.8256 0.0
H3107 H 0.66591 0.97348 0.81357 0.0
H3108 H 0.63477 0.9718 0.77256 0.0
H3109 H 0.63194 0.00069 0.77322 0.0
C3110 C 0.64801 0.02064 0.79228 0.0
C3111 C 0.65765 0.02974 0.80254 0.0
C3112 C 0.6477 0.00396 0.79344 0.0
C3113 C 0.66585 0.02206 0.81499 0.0
C3114 C 0.66545 0.0054 0.81636 0.0
C3115 C 0.65819 0.97943 0.80505 0.0
C3116 C 0.65075 0.97053 0.79289 0.0
C3117 C 0.6569 0.99619 0.80526 0.0
C3118 C 0.64079 0.97839 0.78192 0.0
C3119 C 0.63919 0.99493 0.78225 0.0
H3120 H 0.97696 0.67316 0.80992 0.0
H3121 H 0.97473 0.64412 0.76743 0.0
H3122 H 0.00371 0.64207 0.76703 0.0
H3123 H 0.02955 0.65196 0.77615 0.0
H3124 H 0.03233 0.68166 0.81807 0.0
H3125 H 0.00334 0.6798 0.82147 0.0
C3126 C 0.98281 0.66604 0.80084 0.0
C3127 C 0.97371 0.65901 0.78858 0.0
C3128 C 0.9996 0.66521 0.80044 0.0
C3129 C 0.98146 0.64982 0.77688 0.0
C3130 C 0.99805 0.64867 0.7766 0.0
C3131 C 0.02385 0.65778 0.78621 0.0
C3132 C 0.033 0.66715 0.79668 0.0
C3133 C 0.00723 0.65688 0.78791 0.0
C3134 C 0.02552 0.67442 0.80981 0.0
C3135 C 0.00893 0.67345 0.81169 0.0
H3136 H 0.18584 0.32493 0.03182 0.0
H3137 H 0.22904 0.35296 0.03347 0.0
H3138 H 0.22827 0.35628 0.00463 0.0
H3139 H 0.2176 0.34815 0.9788 0.0
H3140 H 0.17485 0.31961 0.97645 0.0
H3141 H 0.17301 0.31976 0.00565 0.0
C3142 C 0.19484 0.33209 0.02589 0.0
C3143 C 0.2076 0.33851 0.03476 0.0
C3144 C 0.19453 0.33369 0.00915 0.0
C3145 C 0.2192 0.34774 0.02691 0.0
C3146 C 0.2188 0.34961 0.01039 0.0
C3147 C 0.20772 0.34217 0.98466 0.0
C3148 C 0.19652 0.33368 0.97551 0.0
C3149 C 0.20689 0.34213 0.00136 0.0
C3150 C 0.18366 0.3262 0.98325 0.0
C3151 C 0.18266 0.3262 0.99995 0.0
H3152 H 0.21513 0.64284 0.97285 0.0
H3153 H 0.18064 0.6808 0.96929 0.0
H3154 H 0.17655 0.68 0.99825 0.0
H3155 H 0.18672 0.67183 0.02481 0.0
H3156 H 0.22242 0.63485 0.0277 0.0
H3157 H 0.22189 0.6317 0.99882 0.0
C3158 C 0.20644 0.65069 0.97838 0.0
C3159 C 0.19842 0.66205 0.96907 0.0
C3160 C 0.20451 0.65042 0.99496 0.0
C3161 C 0.187 0.67198 0.97627 0.0
C3162 C 0.18477 0.67161 0.99284 0.0
C3163 C 0.19399 0.66276 0.01912 0.0
C3164 C 0.20477 0.65374 0.02829 0.0
C3165 C 0.19402 0.66138 0.00237 0.0
C3166 C 0.21418 0.64206 0.02083 0.0
C3167 C 0.21393 0.64029 0.00431 0.0
H3168 H 0.32769 0.19012 0.02055 0.0
H3169 H 0.35355 0.23442 0.02512 0.0
H3170 H 0.35645 0.23601 0.99627 0.0
H3171 H 0.34848 0.22696 0.96987 0.0
H3172 H 0.3213 0.18358 0.9646 0.0
H3173 H 0.32239 0.17927 0.9935 0.0
C3174 C 0.33425 0.19991 0.01521 0.0
C3175 C 0.34021 0.21225 0.02492 0.0
C3176 C 0.33552 0.20099 0.99847 0.0
C3177 C 0.34866 0.22489 0.01788 0.0
C3178 C 0.35033 0.22582 0.00137 0.0
C3179 C 0.34302 0.2164 0.97499 0.0
C3180 C 0.33462 0.20574 0.96514 0.0
C3181 C 0.3433 0.21427 0.99156 0.0
C3182 C 0.32781 0.19201 0.97194 0.0
C3183 C 0.32832 0.1896 0.98848 0.0
H3184 H 0.77603 0.35241 0.96869 0.0
H3185 H 0.81734 0.32194 0.96533 0.0
H3186 H 0.82164 0.32436 0.99415 0.0
H3187 H 0.81099 0.33175 0.02071 0.0
H3188 H 0.76905 0.36151 0.02355 0.0
H3189 H 0.76784 0.36298 0.99456 0.0
C3190 C 0.78615 0.34653 0.97422 0.0
C3191 C 0.79619 0.3368 0.96497 0.0
C3192 C 0.78836 0.34776 0.99075 0.0
C3193 C 0.8094 0.32946 0.97222 0.0
C3194 C 0.8118 0.33076 0.98872 0.0
C3195 C 0.80187 0.33891 0.01497 0.0
C3196 C 0.78999 0.34631 0.02426 0.0
C3197 C 0.80098 0.33939 0.99819 0.0
C3198 C 0.77822 0.35554 0.01667 0.0
C3199 C 0.77747 0.35635 1.00007 0.0
H3200 H 0.64763 0.77764 0.02216 0.0
H3201 H 0.67588 0.82045 0.02619 0.0
H3202 H 0.67567 0.82346 0.9971 0.0
H3203 H 0.67075 0.81155 0.97046 0.0
H3204 H 0.64335 0.76807 0.9671 0.0
H3205 H 0.63974 0.76783 0.99593 0.0
C3206 C 0.65352 0.7878 0.0167 0.0
C3207 C 0.66196 0.79866 0.02628 0.0
C3208 C 0.6536 0.78925 1.00004 0.0
C3209 C 0.66933 0.81188 0.01907 0.0
C3210 C 0.6693 0.81355 0.00242 0.0
C3211 C 0.66365 0.80227 0.97603 0.0
C3212 C 0.6575 0.78973 0.96668 0.0
C3213 C 0.66195 0.80197 0.99276 0.0
C3214 C 0.64836 0.77776 0.97405 0.0
C3215 C 0.64633 0.77758 0.99055 0.0
H3216 H 0.77661 0.6601 0.02802 0.0
H3217 H 0.82156 0.68468 0.03287 0.0
H3218 H 0.82515 0.68405 0.00383 0.0
H3219 H 0.81373 0.67932 0.97688 0.0
H3220 H 0.7682 0.65552 0.97284 0.0
H3221 H 0.76671 0.65292 0.0017 0.0
C3222 C 0.78731 0.66515 0.02276 0.0
C3223 C 0.79869 0.67262 0.03255 0.0
C3224 C 0.78912 0.66498 0.00615 0.0
C3225 C 0.81259 0.67889 0.02557 0.0
C3226 C 0.8146 0.67861 0.00896 0.0
C3227 C 0.80366 0.6733 0.98234 0.0
C3228 C 0.791 0.66781 0.97274 0.0
C3229 C 0.80269 0.67211 0.99909 0.0
C3230 C 0.77801 0.66004 0.97996 0.0
C3231 C 0.77712 0.65855 0.99648 0.0
H3232 H 0.32945 0.80592 0.02797 0.0
H3233 H 0.35273 0.76012 0.03159 0.0
H3234 H 0.356 0.75922 0.00276 0.0
H3235 H 0.34918 0.7696 0.97647 0.0
H3236 H 0.32525 0.81492 0.97214 0.0
H3237 H 0.32553 0.81798 0.00124 0.0
C3238 C 0.33555 0.79593 0.02246 0.0
C3239 C 0.34065 0.78301 0.0319 0.0
C3240 C 0.33712 0.79531 0.00572 0.0
C3241 C 0.34852 0.77013 0.02459 0.0
C3242 C 0.35038 0.76958 0.00808 0.0
C3243 C 0.34423 0.78028 0.98187 0.0
C3244 C 0.337 0.7919 0.9722 0.0
C3245 C 0.34422 0.78181 0.99852 0.0
C3246 C 0.33085 0.80577 0.97934 0.0
C3247 C 0.33092 0.80748 0.99599 0.0
H3248 H 0.66848 0.19042 0.97785 0.0
H3249 H 0.63831 0.2321 0.97584 0.0
H3250 H 0.637 0.23287 0.00485 0.0
H3251 H 0.64784 0.22444 0.03049 0.0
H3252 H 0.67876 0.18343 0.03308 0.0
H3253 H 0.67613 0.17945 0.00423 0.0
C3254 C 0.66128 0.19938 0.98378 0.0
C3255 C 0.65371 0.21133 0.97473 0.0
C3256 C 0.66088 0.20001 0.00057 0.0
C3257 C 0.64442 0.22289 0.98255 0.0
C3258 C 0.64369 0.22338 0.99915 0.0
C3259 C 0.65376 0.21444 0.02479 0.0
C3260 C 0.66368 0.20441 0.03382 0.0
C3261 C 0.65243 0.21244 0.00825 0.0
C3262 C 0.67108 0.19135 0.02635 0.0
C3263 C 0.66967 0.18914 0.00984 0.0
H3264 H 0.47374 0.68457 0.82674 0.0
H3265 H 0.4698 0.72891 0.85263 0.0
H3266 H 0.49851 0.72919 0.85707 0.0
H3267 H 0.52486 0.71897 0.8505 0.0
H3268 H 0.52961 0.67557 0.82326 0.0
H3269 H 0.50052 0.67257 0.82275 0.0
C3270 C 0.47917 0.69408 0.83364 0.0
C3271 C 0.46971 0.70681 0.83918 0.0
C3272 C 0.49584 0.69441 0.83579 0.0
C3273 C 0.47687 0.71909 0.84807 0.0
C3274 C 0.49329 0.71927 0.85061 0.0
C3275 C 0.51957 0.70868 0.84467 0.0
C3276 C 0.52936 0.69764 0.83673 0.0
C3277 C 0.50292 0.70732 0.84403 0.0
C3278 C 0.52233 0.68428 0.82943 0.0
C3279 C 0.50568 0.68263 0.82903 0.0
H3280 H 0.2741 0.52339 0.85713 0.0
H3281 H 0.31483 0.52627 0.82582 0.0
H3282 H 0.31767 0.49721 0.82662 0.0
H3283 H 0.30558 0.47091 0.83252 0.0
H3284 H 0.26391 0.46863 0.8627 0.0
H3285 H 0.26457 0.49746 0.86622 0.0
C3286 C 0.28382 0.5177 0.85075 0.0
C3287 C 0.29406 0.52693 0.84121 0.0
C3288 C 0.28509 0.50103 0.85092 0.0
C3289 C 0.30673 0.51942 0.8332 0.0
C3290 C 0.30828 0.50278 0.83355 0.0
C3291 C 0.29693 0.4767 0.84021 0.0
C3292 C 0.28457 0.46769 0.84715 0.0
C3293 C 0.2971 0.49342 0.84182 0.0
C3294 C 0.27342 0.47533 0.85707 0.0
C3295 C 0.27376 0.49183 0.85906 0.0
H3296 H 0.52709 0.28102 0.85097 0.0
H3297 H 0.53165 0.32337 0.82213 0.0
H3298 H 0.5027 0.32734 0.82317 0.0
H3299 H 0.47584 0.31631 0.82892 0.0
H3300 H 0.47192 0.27315 0.8567 0.0
H3301 H 0.50081 0.27207 0.85958 0.0
C3302 C 0.5218 0.2913 0.84515 0.0
C3303 C 0.53146 0.30174 0.83629 0.0
C3304 C 0.50519 0.29326 0.84548 0.0
C3305 C 0.52446 0.31512 0.829 0.0
C3306 C 0.50788 0.31733 0.82949 0.0
C3307 C 0.48132 0.30691 0.83592 0.0
C3308 C 0.47177 0.29471 0.84241 0.0
C3309 C 0.49807 0.30612 0.83719 0.0
C3310 C 0.47902 0.28257 0.85142 0.0
C3311 C 0.49555 0.28192 0.85306 0.0
H3312 H 0.72166 0.47721 0.85553 0.0
H3313 H 0.68164 0.47396 0.82334 0.0
H3314 H 0.67884 0.50305 0.8237 0.0
H3315 H 0.69062 0.52946 0.82985 0.0
H3316 H 0.73144 0.53209 0.86117 0.0
H3317 H 0.73091 0.50325 0.86465 0.0
C3318 C 0.71212 0.48284 0.84883 0.0
C3319 C 0.70204 0.47348 0.83923 0.0
C3320 C 0.71082 0.49951 0.84883 0.0
C3321 C 0.6896 0.48091 0.83079 0.0
C3322 C 0.68806 0.49756 0.83091 0.0
C3323 C 0.69911 0.52374 0.83777 0.0
C3324 C 0.71119 0.53287 0.84507 0.0
C3325 C 0.69901 0.50701 0.8394 0.0
C3326 C 0.72214 0.52531 0.85527 0.0
C3327 C 0.72189 0.5088 0.85724 0.0
H3328 H 0.47684 0.27595 0.14762 0.0
H3329 H 0.46982 0.3191 0.17477 0.0
H3330 H 0.49871 0.32353 0.17544 0.0
H3331 H 0.52606 0.31281 0.17174 0.0
H3332 H 0.53235 0.26877 0.1458 0.0
H3333 H 0.50373 0.26711 0.14113 0.0
C3334 C 0.48159 0.2865 0.15343 0.0
C3335 C 0.47122 0.29705 0.16133 0.0
C3336 C 0.49815 0.28871 0.15416 0.0
C3337 C 0.47755 0.31076 0.16864 0.0
C3338 C 0.49409 0.31323 0.16913 0.0
C3339 C 0.52116 0.30307 0.16477 0.0
C3340 C 0.53127 0.29082 0.15931 0.0
C3341 C 0.50454 0.30195 0.16246 0.0
C3342 C 0.52479 0.27824 0.15031 0.0
C3343 C 0.50841 0.27726 0.14764 0.0
H3344 H 0.72281 0.48233 0.1439 0.0
H3345 H 0.68217 0.47591 0.1748 0.0
H3346 H 0.67779 0.50481 0.17525 0.0
H3347 H 0.68828 0.532 0.17025 0.0
H3348 H 0.72988 0.53776 0.14045 0.0
H3349 H 0.73099 0.50906 0.136 0.0
C3350 C 0.71281 0.48721 0.15051 0.0
C3351 C 0.70299 0.47704 0.15951 0.0
C3352 C 0.71063 0.50377 0.15102 0.0
C3353 C 0.68994 0.48351 0.16781 0.0
C3354 C 0.6875 0.50005 0.16816 0.0
C3355 C 0.6973 0.52698 0.16244 0.0
C3356 C 0.7091 0.53694 0.15583 0.0
C3357 C 0.69816 0.51034 0.16031 0.0
C3358 C 0.72078 0.5303 0.1458 0.0
C3359 C 0.72145 0.51389 0.14329 0.0
H3360 H 0.52741 0.6883 0.17195 0.0
H3361 H 0.52827 0.72956 0.14116 0.0
H3362 H 0.49938 0.7284 0.13839 0.0
H3363 H 0.4738 0.71845 0.14807 0.0
H3364 H 0.47228 0.6778 0.17952 0.0
H3365 H 0.50145 0.67573 0.17847 0.0
C3366 C 0.5213 0.69675 0.1643 0.0
C3367 C 0.52994 0.70915 0.15697 0.0
C3368 C 0.50454 0.69626 0.16306 0.0
C3369 C 0.52187 0.72003 0.14709 0.0
C3370 C 0.50533 0.71941 0.14553 0.0
C3371 C 0.47983 0.70895 0.15446 0.0
C3372 C 0.47097 0.69847 0.16407 0.0
C3373 C 0.49652 0.70803 0.15401 0.0
C3374 C 0.47888 0.68605 0.17208 0.0
C3375 C 0.49556 0.68494 0.17157 0.0
H3376 H 0.31269 0.47576 0.17396 0.0
H3377 H 0.27116 0.47085 0.14388 0.0
H3378 H 0.26988 0.49966 0.1405 0.0
H3379 H 0.27786 0.52614 0.14939 0.0
H3380 H 0.31832 0.53168 0.18072 0.0
H3381 H 0.32296 0.50284 0.18002 0.0
C3382 C 0.30363 0.48101 0.16635 0.0
C3383 C 0.29191 0.47123 0.15935 0.0
C3384 C 0.30267 0.49772 0.16482 0.0
C3385 C 0.2802 0.47816 0.14956 0.0
C3386 C 0.27943 0.49464 0.14763 0.0
C3387 C 0.2879 0.52109 0.15583 0.0
C3388 C 0.29756 0.53099 0.1653 0.0
C3389 C 0.29018 0.50454 0.15574 0.0
C3390 C 0.31065 0.5243 0.17338 0.0
C3391 C 0.31323 0.50779 0.17309 0.0
H3392 H 0.82659 0.52422 0.68924 0.0
H3393 H 0.85378 0.52799 0.73284 0.0
H3394 H 0.85672 0.49914 0.73381 0.0
H3395 H 0.84861 0.47291 0.72444 0.0
H3396 H 0.82049 0.46836 0.68158 0.0
H3397 H 0.82112 0.49738 0.67796 0.0
C3398 C 0.83345 0.51871 0.69873 0.0
C3399 C 0.83978 0.52819 0.71107 0.0
C3400 C 0.83479 0.50197 0.69944 0.0
C3401 C 0.84862 0.52093 0.72332 0.0
C3402 C 0.8503 0.50442 0.72391 0.0
C3403 C 0.84281 0.47823 0.71416 0.0
C3404 C 0.83431 0.46856 0.70343 0.0
C3405 C 0.84295 0.49483 0.71237 0.0
C3406 C 0.82708 0.47558 0.69004 0.0
C3407 C 0.82734 0.49218 0.68803 0.0
H3408 H 0.5266 0.84255 0.72346 0.0
H3409 H 0.53113 0.81621 0.67949 0.0
H3410 H 0.50212 0.81699 0.67587 0.0
H3411 H 0.47528 0.82203 0.68726 0.0
H3412 H 0.47138 0.84778 0.73171 0.0
H3413 H 0.50026 0.85053 0.73295 0.0
C3414 C 0.52128 0.8372 0.71294 0.0
C3415 C 0.53098 0.82914 0.70189 0.0
C3416 C 0.50465 0.83748 0.71109 0.0
C3417 C 0.52392 0.82245 0.68821 0.0
C3418 C 0.50732 0.82281 0.68619 0.0
C3419 C 0.48075 0.82856 0.697 0.0
C3420 C 0.47119 0.83451 0.70948 0.0
C3421 C 0.49751 0.82983 0.69784 0.0
C3422 C 0.47846 0.84293 0.72204 0.0
C3423 C 0.495 0.84448 0.7228 0.0
H3424 H 0.14868 0.5242 0.72475 0.0
H3425 H 0.17548 0.53142 0.68143 0.0
H3426 H 0.17637 0.50252 0.67702 0.0
H3427 H 0.17267 0.47514 0.68765 0.0
H3428 H 0.14676 0.46871 0.73171 0.0
H3429 H 0.14229 0.49732 0.73357 0.0
C3430 C 0.1545 0.51949 0.71419 0.0
C3431 C 0.16219 0.5299 0.70356 0.0
C3432 C 0.15527 0.50295 0.71196 0.0
C3433 C 0.16949 0.52363 0.68982 0.0
C3434 C 0.1701 0.5071 0.68736 0.0
C3435 C 0.16577 0.48 0.69745 0.0
C3436 C 0.16025 0.46985 0.70964 0.0
C3437 C 0.16351 0.49662 0.69866 0.0
C3438 C 0.15133 0.4763 0.72229 0.0
C3439 C 0.14876 0.49266 0.72338 0.0
H3440 H 0.47914 0.14959 0.72873 0.0
H3441 H 0.47147 0.1771 0.68592 0.0
H3442 H 0.50026 0.17742 0.68084 0.0
H3443 H 0.52776 0.17352 0.69104 0.0
H3444 H 0.53476 0.14737 0.73483 0.0
H3445 H 0.50615 0.14275 0.73695 0.0
C3446 C 0.48371 0.1554 0.71811 0.0
C3447 C 0.47321 0.16353 0.70787 0.0
C3448 C 0.50023 0.15594 0.71554 0.0
C3449 C 0.47932 0.17081 0.69405 0.0
C3450 C 0.49579 0.1711 0.6912 0.0
C3451 C 0.52302 0.16648 0.7008 0.0
C3452 C 0.53331 0.16096 0.71287 0.0
C3453 C 0.50641 0.16425 0.70222 0.0
C3454 C 0.52704 0.15191 0.7255 0.0
C3455 C 0.51067 0.14927 0.72674 0.0
H3456 H 0.85293 0.47366 0.27754 0.0
H3457 H 0.82015 0.46966 0.31697 0.0
H3458 H 0.82071 0.49868 0.32056 0.0
H3459 H 0.82716 0.52531 0.30947 0.0
H3460 H 0.85921 0.52866 0.26929 0.0
H3461 H 0.86251 0.49982 0.26919 0.0
C3462 C 0.84615 0.47911 0.28713 0.0
C3463 C 0.83631 0.46962 0.29679 0.0
C3464 C 0.8463 0.49573 0.28889 0.0
C3465 C 0.82778 0.47677 0.30934 0.0
C3466 C 0.82802 0.49336 0.31131 0.0
C3467 C 0.8352 0.51974 0.301 0.0
C3468 C 0.84273 0.52907 0.28924 0.0
C3469 C 0.83674 0.50301 0.30073 0.0
C3470 C 0.85311 0.52171 0.27832 0.0
C3471 C 0.85498 0.5052 0.27821 0.0
H3472 H 0.5249 0.82752 0.31237 0.0
H3473 H 0.53088 0.85596 0.26988 0.0
H3474 H 0.50214 0.85994 0.26819 0.0
H3475 H 0.47538 0.8518 0.27613 0.0
H3476 H 0.46881 0.82217 0.31767 0.0
H3477 H 0.49762 0.82249 0.32262 0.0
C3478 C 0.51991 0.83493 0.30302 0.0
C3479 C 0.52996 0.84125 0.29114 0.0
C3480 C 0.50325 0.8368 0.30183 0.0
C3481 C 0.52336 0.8508 0.27904 0.0
C3482 C 0.50692 0.85306 0.27804 0.0
C3483 C 0.48021 0.84567 0.28647 0.0
C3484 C 0.47003 0.83675 0.29636 0.0
C3485 C 0.49674 0.84555 0.28895 0.0
C3486 C 0.47642 0.82907 0.30983 0.0
C3487 C 0.49291 0.82915 0.31259 0.0
H3488 H 0.14726 0.47293 0.27699 0.0
H3489 H 0.17645 0.46642 0.31888 0.0
H3490 H 0.17608 0.49522 0.32377 0.0
H3491 H 0.17081 0.52253 0.31368 0.0
H3492 H 0.1428 0.52842 0.27086 0.0
H3493 H 0.13923 0.49966 0.26891 0.0
C3494 C 0.1533 0.47776 0.28737 0.0
C3495 C 0.16206 0.46757 0.29741 0.0
C3496 C 0.15339 0.49429 0.28984 0.0
C3497 C 0.16966 0.47401 0.31092 0.0
C3498 C 0.16955 0.4905 0.31366 0.0
C3499 C 0.16361 0.5175 0.30417 0.0
C3500 C 0.15724 0.52756 0.29232 0.0
C3501 C 0.16196 0.50082 0.30285 0.0
C3502 C 0.14798 0.52091 0.28002 0.0
C3503 C 0.14595 0.50445 0.27887 0.0
H3504 H 0.52523 0.17351 0.311 0.0
H3505 H 0.52678 0.14551 0.26778 0.0
H3506 H 0.49784 0.14303 0.26806 0.0
H3507 H 0.47209 0.15212 0.27816 0.0
H3508 H 0.46993 0.18076 0.32085 0.0
H3509 H 0.49904 0.17945 0.32337 0.0
C3510 C 0.51925 0.16654 0.30188 0.0
C3511 C 0.52814 0.15991 0.28925 0.0
C3512 C 0.50247 0.16544 0.3019 0.0
C3513 C 0.52021 0.1509 0.27753 0.0
C3514 C 0.50364 0.1495 0.27764 0.0
C3515 C 0.47796 0.15784 0.28819 0.0
C3516 C 0.46892 0.16673 0.29916 0.0
C3517 C 0.49464 0.15726 0.28939 0.0
C3518 C 0.47665 0.17387 0.31222 0.0
C3519 C 0.4933 0.17321 0.3136 0.0
H3520 H 0.68653 0.8274 0.47675 0.0
H3521 H 0.72639 0.85949 0.47098 0.0
H3522 H 0.72714 0.86413 0.49967 0.0
H3523 H 0.71958 0.85559 0.52643 0.0
H3524 H 0.68082 0.82234 0.53276 0.0
H3525 H 0.67627 0.82192 0.50391 0.0
C3526 C 0.69506 0.83574 0.48176 0.0
C3527 C 0.70653 0.84292 0.47181 0.0
C3528 C 0.69576 0.83799 0.4984 0.0
C3529 C 0.71756 0.85367 0.47843 0.0
C3530 C 0.71804 0.85631 0.49484 0.0
C3531 C 0.7099 0.84851 0.52154 0.0
C3532 C 0.70074 0.8388 0.53168 0.0
C3533 C 0.70768 0.84798 0.50497 0.0
C3534 C 0.6881 0.82987 0.5252 0.0
C3535 C 0.68558 0.82953 0.50868 0.0
H3536 H 0.71394 0.14158 0.46832 0.0
H3537 H 0.6749 0.17506 0.46765 0.0
H3538 H 0.67225 0.17277 0.49667 0.0
H3539 H 0.68433 0.16487 0.52246 0.0
H3540 H 0.72428 0.13238 0.52257 0.0
H3541 H 0.72311 0.13046 0.4936 0.0
C3542 C 0.70461 0.1481 0.47448 0.0
C3543 C 0.69482 0.15868 0.46593 0.0
C3544 C 0.70345 0.14703 0.49112 0.0
C3545 C 0.68263 0.16688 0.474 0.0
C3546 C 0.6812 0.16567 0.49061 0.0
C3547 C 0.69246 0.15703 0.51615 0.0
C3548 C 0.70454 0.14898 0.52461 0.0
C3549 C 0.69202 0.15632 0.49937 0.0
C3550 C 0.71501 0.13886 0.5163 0.0
C3551 C 0.71439 0.13779 0.49972 0.0
H3552 H 0.82976 0.69021 0.5236 0.0
H3553 H 0.85601 0.73452 0.52325 0.0
H3554 H 0.85731 0.73381 0.49425 0.0
H3555 H 0.8477 0.72283 0.46911 0.0
H3556 H 0.82047 0.67918 0.4688 0.0
H3557 H 0.82311 0.6772 0.49786 0.0
C3558 C 0.83608 0.69948 0.51716 0.0
C3559 C 0.84258 0.71252 0.52554 0.0
C3560 C 0.83646 0.69921 0.50036 0.0
C3561 C 0.85073 0.72447 0.51706 0.0
C3562 C 0.85146 0.72409 0.50047 0.0
C3563 C 0.84257 0.71272 0.47536 0.0
C3564 C 0.83369 0.70132 0.46688 0.0
C3565 C 0.84384 0.71188 0.492 0.0
C3566 C 0.82732 0.68816 0.47509 0.0
C3567 C 0.82874 0.68709 0.49172 0.0
H3568 H 0.31386 0.83005 0.47839 0.0
H3569 H 0.27011 0.85654 0.47228 0.0
H3570 H 0.26837 0.86079 0.50096 0.0
H3571 H 0.27711 0.85392 0.5278 0.0
H3572 H 0.31995 0.82622 0.5346 0.0
H3573 H 0.32442 0.82582 0.50572 0.0
C3574 C 0.30416 0.83704 0.48334 0.0
C3575 C 0.29203 0.8428 0.47324 0.0
C3576 C 0.30299 0.83912 0.49999 0.0
C3577 C 0.2795 0.8518 0.47981 0.0
C3578 C 0.27848 0.85424 0.49622 0.0
C3579 C 0.28761 0.84804 0.52302 0.0
C3580 C 0.29806 0.83993 0.53333 0.0
C3581 C 0.28983 0.84747 0.50645 0.0
C3582 C 0.31168 0.83252 0.52692 0.0
C3583 C 0.31417 0.83219 0.51039 0.0
H3584 H 0.15267 0.27448 0.47047 0.0
H3585 H 0.18076 0.31746 0.46719 0.0
H3586 H 0.17996 0.32037 0.49626 0.0
H3587 H 0.17458 0.30837 0.52274 0.0
H3588 H 0.14726 0.26479 0.52542 0.0
H3589 H 0.14429 0.26458 0.49652 0.0
C3590 C 0.15839 0.28465 0.47608 0.0
C3591 C 0.16696 0.2956 0.46671 0.0
C3592 C 0.15813 0.28606 0.49275 0.0
C3593 C 0.17411 0.30883 0.47414 0.0
C3594 C 0.17375 0.31044 0.49078 0.0
C3595 C 0.16766 0.29906 0.51701 0.0
C3596 C 0.16134 0.28649 0.52621 0.0
C3597 C 0.16628 0.29879 0.50025 0.0
C3598 C 0.15241 0.2745 0.51861 0.0
C3599 C 0.15072 0.27433 0.50207 0.0
H3600 H 0.284 0.14753 0.53136 0.0
H3601 H 0.32433 0.17946 0.53175 0.0
H3602 H 0.32625 0.17758 0.5026 0.0
H3603 H 0.31364 0.17009 0.4769 0.0
H3604 H 0.27265 0.13888 0.47721 0.0
H3605 H 0.27395 0.13707 0.50617 0.0
C3606 C 0.2934 0.15386 0.52509 0.0
C3607 C 0.30384 0.16382 0.53361 0.0
C3608 C 0.29421 0.15295 0.50843 0.0
C3609 C 0.31612 0.17174 0.52541 0.0
C3610 C 0.31714 0.17076 0.50874 0.0
C3611 C 0.30527 0.16258 0.4833 0.0
C3612 C 0.29291 0.15483 0.47495 0.0
C3613 C 0.30585 0.16188 0.50008 0.0
C3614 C 0.28214 0.14514 0.48338 0.0
C3615 C 0.28284 0.14411 0.49995 0.0
H3616 H 0.82336 0.30705 0.47472 0.0
H3617 H 0.84842 0.26222 0.47091 0.0
H3618 H 0.8513 0.2611 0.4998 0.0
H3619 H 0.84351 0.2708 0.52608 0.0
H3620 H 0.8174 0.31491 0.53051 0.0
H3621 H 0.81838 0.31853 0.50152 0.0
C3622 C 0.82977 0.29725 0.48022 0.0
C3623 C 0.8355 0.28464 0.4707 0.0
C3624 C 0.83105 0.29645 0.49696 0.0
C3625 C 0.84374 0.27198 0.47798 0.0
C3626 C 0.84537 0.27131 0.49451 0.0
C3627 C 0.83825 0.28135 0.52075 0.0
C3628 C 0.83019 0.29244 0.5304 0.0
C3629 C 0.83856 0.28315 0.50412 0.0
C3630 C 0.82363 0.30616 0.52333 0.0
C3631 C 0.82411 0.30818 0.50673 0.0
H3632 H 0.1727 0.69152 0.52233 0.0
H3633 H 0.14381 0.73388 0.52695 0.0
H3634 H 0.13988 0.73468 0.49819 0.0
H3635 H 0.14801 0.72595 0.47173 0.0
H3636 H 0.17827 0.68469 0.46638 0.0
H3637 H 0.17799 0.68058 0.49532 0.0
C3638 C 0.16524 0.70067 0.51702 0.0
C3639 C 0.15874 0.71276 0.52669 0.0
C3640 C 0.1634 0.70134 0.50033 0.0
C3641 C 0.14912 0.72458 0.51972 0.0
C3642 C 0.14687 0.72506 0.50327 0.0
C3643 C 0.15429 0.71586 0.47685 0.0
C3644 C 0.16335 0.7058 0.46697 0.0
C3645 C 0.15448 0.7139 0.49344 0.0
C3646 C 0.17124 0.69264 0.47375 0.0
C3647 C 0.17119 0.69038 0.49032 0.0
H3648 H 0.15336 0.11495 0.31638 0.0
H3649 H 0.18093 0.13853 0.27979 0.0
H3650 H 0.16125 0.15978 0.27831 0.0
H3651 H 0.13795 0.17317 0.28928 0.0
H3652 H 0.11012 0.15052 0.32613 0.0
H3653 H 0.128 0.12734 0.32551 0.0
C3654 C 0.15486 0.12459 0.30788 0.0
C3655 C 0.1687 0.12525 0.29835 0.0
C3656 C 0.14355 0.13702 0.30725 0.0
C3657 C 0.17049 0.13782 0.2874 0.0
C3658 C 0.15925 0.15001 0.28654 0.0
C3659 C 0.13568 0.16309 0.29707 0.0
C3660 C 0.12289 0.16364 0.30789 0.0
C3661 C 0.14603 0.14998 0.29674 0.0
C3662 C 0.11994 0.15039 0.31773 0.0
C3663 C 0.13021 0.13718 0.31742 0.0
H3664 H 0.88126 0.15195 0.31924 0.0
H3665 H 0.85582 0.18274 0.2867 0.0
H3666 H 0.83458 0.16311 0.2843 0.0
H3667 H 0.82199 0.1385 0.29322 0.0
H3668 H 0.84654 0.10757 0.32622 0.0
H3669 H 0.8694 0.12581 0.3265 0.0
C3670 C 0.87119 0.15422 0.31144 0.0
C3671 C 0.87008 0.16887 0.30329 0.0
C3672 C 0.85878 0.14291 0.31028 0.0
C3673 C 0.85693 0.17165 0.29324 0.0
C3674 C 0.84474 0.16043 0.29185 0.0
C3675 C 0.8324 0.13563 0.30037 0.0
C3676 C 0.83248 0.12178 0.30982 0.0
C3677 C 0.84534 0.14623 0.30062 0.0
C3678 C 0.84615 0.11818 0.31886 0.0
C3679 C 0.8592 0.12865 0.31907 0.0
H3680 H 0.86014 0.82239 0.29453 0.0
H3681 H 0.88999 0.84566 0.32943 0.0
H3682 H 0.87151 0.86834 0.33023 0.0
H3683 H 0.84533 0.88019 0.32287 0.0
H3684 H 0.81562 0.85576 0.28855 0.0
H3685 H 0.83563 0.83498 0.28563 0.0
C3686 C 0.86273 0.83249 0.30222 0.0
C3687 C 0.8763 0.83226 0.31205 0.0
C3688 C 0.85198 0.84525 0.3028 0.0
C3689 C 0.87957 0.84553 0.32177 0.0
C3690 C 0.86897 0.85846 0.32229 0.0
C3691 C 0.84339 0.87044 0.31459 0.0
C3692 C 0.82893 0.86943 0.30608 0.0
C3693 C 0.85491 0.85827 0.31314 0.0
C3694 C 0.82656 0.85673 0.29539 0.0
C3695 C 0.83799 0.84482 0.29369 0.0
H3696 H 0.13727 0.82767 0.28914 0.0
H3697 H 0.10974 0.85282 0.3246 0.0
H3698 H 0.12921 0.87467 0.32436 0.0
H3699 H 0.15566 0.88515 0.31604 0.0
H3700 H 0.18294 0.85907 0.28095 0.0
H3701 H 0.16193 0.83917 0.27903 0.0
C3702 C 0.1354 0.83801 0.2967 0.0
C3703 C 0.12219 0.83853 0.30701 0.0
C3704 C 0.14669 0.85034 0.29665 0.0
C3705 C 0.11984 0.85212 0.31657 0.0
C3706 C 0.13102 0.86457 0.3165 0.0
C3707 C 0.15685 0.87525 0.3078 0.0
C3708 C 0.17095 0.87352 0.29881 0.0
C3709 C 0.14473 0.86361 0.30689 0.0
C3710 C 0.17232 0.86062 0.28816 0.0
C3711 C 0.1603 0.8492 0.28704 0.0
H3712 H 0.15172 0.88489 0.68381 0.0
H3713 H 0.18111 0.85848 0.71686 0.0
H3714 H 0.1602 0.8386 0.71995 0.0
H3715 H 0.13484 0.82733 0.7115 0.0
H3716 H 0.10542 0.85252 0.67761 0.0
H3717 H 0.12489 0.87435 0.67683 0.0
C3718 C 0.15341 0.87491 0.69186 0.0
C3719 C 0.16803 0.8731 0.69997 0.0
C3720 C 0.14137 0.86324 0.69338 0.0
C3721 C 0.17007 0.86007 0.71033 0.0
C3722 C 0.1581 0.84868 0.71213 0.0
C3723 C 0.13254 0.83767 0.70407 0.0
C3724 C 0.11876 0.83821 0.69452 0.0
C3725 C 0.1439 0.84993 0.70342 0.0
C3726 C 0.11595 0.85178 0.68507 0.0
C3727 C 0.12713 0.86423 0.68455 0.0
H3728 H 0.15766 0.11434 0.68149 0.0
H3729 H 0.18125 0.1387 0.7203 0.0
H3730 H 0.16028 0.15872 0.72083 0.0
H3731 H 0.1371 0.17101 0.70844 0.0
H3732 H 0.11318 0.14756 0.6694 0.0
H3733 H 0.13225 0.12538 0.67091 0.0
C3734 C 0.15801 0.12385 0.69025 0.0
C3735 C 0.17112 0.12514 0.70069 0.0
C3736 C 0.14595 0.13558 0.69034 0.0
C3737 C 0.17141 0.13754 0.71199 0.0
C3738 C 0.15943 0.14902 0.71231 0.0
C3739 C 0.13594 0.16096 0.70036 0.0
C3740 C 0.12393 0.16101 0.68868 0.0
C3741 C 0.14695 0.14844 0.70122 0.0
C3742 C 0.12238 0.14779 0.67847 0.0
C3743 C 0.13333 0.13516 0.67929 0.0
H3744 H 0.86608 0.17848 0.71155 0.0
H3745 H 0.89222 0.15375 0.67478 0.0
H3746 H 0.87338 0.13141 0.67625 0.0
H3747 H 0.84758 0.1205 0.68589 0.0
H3748 H 0.82148 0.14627 0.72207 0.0
H3749 H 0.84226 0.16651 0.72302 0.0
C3750 C 0.8678 0.16812 0.70398 0.0
C3751 C 0.88039 0.16786 0.69293 0.0
C3752 C 0.85683 0.15554 0.70472 0.0
C3753 C 0.88258 0.15425 0.68337 0.0
C3754 C 0.87175 0.14152 0.68415 0.0
C3755 C 0.84663 0.13039 0.69418 0.0
C3756 C 0.83291 0.13198 0.70375 0.0
C3757 C 0.85855 0.14225 0.69446 0.0
C3758 C 0.83181 0.14487 0.71443 0.0
C3759 C 0.84369 0.15647 0.71499 0.0
H3760 H 0.88195 0.85384 0.683 0.0
H3761 H 0.85896 0.82527 0.71919 0.0
H3762 H 0.83752 0.84467 0.72128 0.0
H3763 H 0.82379 0.86804 0.71095 0.0
H3764 H 0.84585 0.89689 0.67453 0.0
H3765 H 0.86923 0.87926 0.67456 0.0
C3766 C 0.87239 0.85204 0.69153 0.0
C3767 C 0.87196 0.83801 0.70077 0.0
C3768 C 0.85985 0.86321 0.69254 0.0
C3769 C 0.8595 0.83585 0.71179 0.0
C3770 C 0.84719 0.84693 0.713 0.0
C3771 C 0.83379 0.8706 0.70313 0.0
C3772 C 0.83302 0.8836 0.69261 0.0
C3773 C 0.84701 0.86038 0.70311 0.0
C3774 C 0.84616 0.88691 0.68273 0.0
C3775 C 0.85948 0.87678 0.68269 0.0
H3776 H 0.29657 0.17161 0.13779 0.0
H3777 H 0.33169 0.14815 0.1084 0.0
H3778 H 0.33267 0.12578 0.12727 0.0
H3779 H 0.3254 0.11435 0.15362 0.0
H3780 H 0.29053 0.13874 0.1827 0.0
H3781 H 0.28753 0.15919 0.16238 0.0
C3782 C 0.30434 0.16153 0.1354 0.0
C3783 C 0.3142 0.16162 0.12185 0.0
C3784 C 0.30495 0.14891 0.14632 0.0
C3785 C 0.32401 0.14837 0.11879 0.0
C3786 C 0.32462 0.13563 0.12962 0.0
C3787 C 0.31697 0.124 0.15536 0.0
C3788 C 0.30835 0.12511 0.16976 0.0
C3789 C 0.31543 0.13596 0.14365 0.0
C3790 C 0.29745 0.13768 0.17184 0.0
C3791 C 0.29572 0.14942 0.16022 0.0
H3792 H 0.8828 0.31722 0.14761 0.0
H3793 H 0.85899 0.27921 0.17293 0.0
H3794 H 0.83916 0.2772 0.15183 0.0
H3795 H 0.82678 0.28818 0.12798 0.0
H3796 H 0.84948 0.32676 0.10263 0.0
H3797 H 0.87165 0.32643 0.12173 0.0
C3798 C 0.87345 0.30831 0.14831 0.0
C3799 C 0.87227 0.29852 0.16192 0.0
C3800 C 0.8618 0.3074 0.1362 0.0
C3801 C 0.86007 0.28703 0.16269 0.0
C3802 C 0.8487 0.28586 0.15063 0.0
C3803 C 0.83668 0.29639 0.12648 0.0
C3804 C 0.83638 0.30761 0.11403 0.0
C3805 C 0.84915 0.29631 0.13761 0.0
C3806 C 0.84941 0.31801 0.11214 0.0
C3807 C 0.86204 0.31789 0.12312 0.0
H3808 H 0.68083 0.8842 0.15392 0.0
H3809 H 0.71232 0.85765 0.18488 0.0
H3810 H 0.71522 0.83705 0.16466 0.0
H3811 H 0.70708 0.82534 0.13935 0.0
H3812 H 0.67525 0.85104 0.10813 0.0
H3813 H 0.6744 0.87326 0.12715 0.0
C3814 C 0.6885 0.87402 0.15612 0.0
C3815 C 0.69621 0.87242 0.17098 0.0
C3816 C 0.68999 0.862 0.14444 0.0
C3817 C 0.70611 0.85914 0.17364 0.0
C3818 C 0.70779 0.84732 0.16207 0.0
C3819 C 0.70007 0.83586 0.13659 0.0
C3820 C 0.69112 0.83646 0.12242 0.0
C3821 C 0.69949 0.84843 0.14762 0.0
C3822 C 0.68224 0.85027 0.11898 0.0
C3823 C 0.68169 0.86294 0.12989 0.0
H3824 H 0.17702 0.71081 0.13312 0.0
H3825 H 0.15329 0.67299 0.10755 0.0
H3826 H 0.13114 0.67381 0.12667 0.0
H3827 H 0.12024 0.68322 0.15257 0.0
H3828 H 0.14502 0.72056 0.17802 0.0
H3829 H 0.16493 0.72206 0.15698 0.0
C3830 C 0.16691 0.70287 0.13159 0.0
C3831 C 0.16689 0.69171 0.11909 0.0
C3832 C 0.15444 0.70324 0.14271 0.0
C3833 C 0.15359 0.68167 0.11712 0.0
C3834 C 0.14098 0.68208 0.1281 0.0
C3835 C 0.12984 0.69187 0.15333 0.0
C3836 C 0.13126 0.70161 0.16695 0.0
C3837 C 0.14151 0.6925 0.14124 0.0
C3838 C 0.14376 0.71277 0.16778 0.0
C3839 C 0.15517 0.71365 0.15575 0.0
H3840 H 0.29681 0.86178 0.82247 0.0
H3841 H 0.32925 0.8932 0.84718 0.0
H3842 H 0.32978 0.87488 0.86999 0.0
H3843 H 0.32303 0.84848 0.88166 0.0
H3844 H 0.2914 0.8171 0.85577 0.0
H3845 H 0.28849 0.83689 0.83477 0.0
C3846 C 0.30388 0.86475 0.8329 0.0
C3847 C 0.31311 0.87875 0.83304 0.0
C3848 C 0.30435 0.85408 0.84575 0.0
C3849 C 0.32206 0.88247 0.84674 0.0
C3850 C 0.32242 0.87196 0.85976 0.0
C3851 C 0.31531 0.84613 0.87154 0.0
C3852 C 0.30757 0.83127 0.8702 0.0
C3853 C 0.31392 0.85751 0.85923 0.0
C3854 C 0.29764 0.82835 0.857 0.0
C3855 C 0.29595 0.83967 0.84496 0.0
H3856 H 0.16529 0.28834 0.86328 0.0
H3857 H 0.14052 0.32512 0.88934 0.0
H3858 H 0.11882 0.32459 0.86967 0.0
H3859 H 0.10845 0.31554 0.84341 0.0
H3860 H 0.13395 0.27882 0.81778 0.0
H3861 H 0.15366 0.27736 0.83901 0.0
C3862 C 0.15506 0.29613 0.86477 0.0
C3863 C 0.1546 0.3069 0.8776 0.0
C3864 C 0.14278 0.29582 0.85342 0.0
C3865 C 0.14116 0.31674 0.87952 0.0
C3866 C 0.12879 0.31649 0.86823 0.0
C3867 C 0.11815 0.30702 0.84264 0.0
C3868 C 0.11981 0.29746 0.82891 0.0
C3869 C 0.12968 0.30635 0.85489 0.0
C3870 C 0.13246 0.28646 0.8281 0.0
C3871 C 0.14378 0.28561 0.84024 0.0
H3872 H 0.70439 0.1773 0.86541 0.0
H3873 H 0.67068 0.15367 0.89629 0.0
H3874 H 0.67026 0.13059 0.87833 0.0
H3875 H 0.6776 0.11831 0.85239 0.0
H3876 H 0.71088 0.14286 0.82166 0.0
H3877 H 0.71339 0.16428 0.84106 0.0
C3878 C 0.69706 0.16704 0.86834 0.0
C3879 C 0.68745 0.16729 0.88208 0.0
C3880 C 0.69672 0.15398 0.8579 0.0
C3881 C 0.67817 0.15381 0.88576 0.0
C3882 C 0.67787 0.14063 0.87545 0.0
C3883 C 0.68557 0.12823 0.85008 0.0
C3884 C 0.6939 0.12904 0.8355 0.0
C3885 C 0.68682 0.14075 0.86127 0.0
C3886 C 0.7042 0.14199 0.83269 0.0
C3887 C 0.70565 0.15428 0.84378 0.0
H3888 H 0.88977 0.68404 0.84634 0.0
H3889 H 0.86716 0.72073 0.81811 0.0
H3890 H 0.846 0.7232 0.83779 0.0
H3891 H 0.83235 0.71308 0.86134 0.0
H3892 H 0.85417 0.67634 0.88995 0.0
H3893 H 0.87727 0.67588 0.87196 0.0
C3894 C 0.88037 0.69278 0.84468 0.0
C3895 C 0.87995 0.70203 0.83065 0.0
C3896 C 0.86801 0.69402 0.85602 0.0
C3897 C 0.8677 0.71332 0.82868 0.0
C3898 C 0.85555 0.71474 0.83993 0.0
C3899 C 0.84224 0.70508 0.86375 0.0
C3900 C 0.84147 0.69461 0.87681 0.0
C3901 C 0.85532 0.70483 0.85336 0.0
C3902 C 0.85448 0.6845 0.87994 0.0
C3903 C 0.86764 0.68419 0.8696 0.0
H3904 H 0.15323 0.3127 0.11822 0.0
H3905 H 0.18178 0.27889 0.14461 0.0
H3906 H 0.16151 0.27758 0.16532 0.0
H3907 H 0.13705 0.28786 0.17729 0.0
H3908 H 0.10819 0.32182 0.15158 0.0
H3909 H 0.12706 0.32109 0.12923 0.0
C3910 C 0.15487 0.30485 0.12837 0.0
C3911 C 0.16911 0.29604 0.1299 0.0
C3912 C 0.14317 0.30427 0.14046 0.0
C3913 C 0.17103 0.28592 0.14315 0.0
C3914 C 0.15944 0.28517 0.15506 0.0
C3915 C 0.13477 0.29498 0.16673 0.0
C3916 C 0.12133 0.30501 0.16618 0.0
C3917 C 0.14569 0.2946 0.15404 0.0
C3918 C 0.11846 0.31401 0.15232 0.0
C3919 C 0.12929 0.31366 0.13957 0.0
H3920 H 0.17585 0.71331 0.86551 0.0
H3921 H 0.15357 0.67595 0.89296 0.0
H3922 H 0.13027 0.67665 0.87525 0.0
H3923 H 0.11786 0.68575 0.84994 0.0
H3924 H 0.14107 0.72276 0.82264 0.0
H3925 H 0.16225 0.72444 0.8424 0.0
C3926 C 0.1658 0.70545 0.86776 0.0
C3927 C 0.16651 0.69444 0.88036 0.0
C3928 C 0.15264 0.70579 0.85747 0.0
C3929 C 0.15331 0.68451 0.88329 0.0
C3930 C 0.14003 0.68485 0.87311 0.0
C3931 C 0.12739 0.69438 0.84852 0.0
C3932 C 0.128 0.70395 0.83472 0.0
C3933 C 0.13978 0.69512 0.85986 0.0
C3934 C 0.14042 0.71511 0.83303 0.0
C3935 C 0.15257 0.71608 0.84432 0.0
H3936 H 0.31511 0.1565 0.8858 0.0
H3937 H 0.27891 0.18157 0.85903 0.0
H3938 H 0.27854 0.16038 0.83921 0.0
H3939 H 0.29044 0.13639 0.8279 0.0
H3940 H 0.32692 0.11108 0.85391 0.0
H3941 H 0.32507 0.13054 0.87568 0.0
C3942 C 0.30695 0.15716 0.87578 0.0
C3943 C 0.29721 0.17072 0.87381 0.0
C3944 C 0.30693 0.14496 0.8642 0.0
C3945 C 0.28667 0.17138 0.86077 0.0
C3946 C 0.28645 0.15926 0.84938 0.0
C3947 C 0.29787 0.135 0.83842 0.0
C3948 C 0.30894 0.12245 0.8392 0.0
C3949 C 0.29686 0.14627 0.85073 0.0
C3950 C 0.31831 0.12068 0.85301 0.0
C3951 C 0.31732 0.13186 0.86541 0.0
H3952 H 0.86802 0.28422 0.82903 0.0
H3953 H 0.89374 0.32411 0.8489 0.0
H3954 H 0.87478 0.32537 0.87117 0.0
H3955 H 0.84879 0.31722 0.88292 0.0
H3956 H 0.82301 0.27797 0.86172 0.0
H3957 H 0.84414 0.27431 0.84216 0.0
C3958 C 0.86964 0.29306 0.83835 0.0
C3959 C 0.88212 0.30419 0.83721 0.0
C3960 C 0.85856 0.29392 0.85083 0.0
C3961 C 0.88419 0.31542 0.8495 0.0
C3962 C 0.87328 0.31621 0.86217 0.0
C3963 C 0.848 0.30768 0.87421 0.0
C3964 C 0.83426 0.29801 0.87364 0.0
C3965 C 0.8601 0.30584 0.86267 0.0
C3966 C 0.83336 0.28571 0.86228 0.0
C3967 C 0.84543 0.28359 0.85107 0.0
H3968 H 0.67794 0.88293 0.84568 0.0
H3969 H 0.71221 0.86048 0.81444 0.0
H3970 H 0.71723 0.83994 0.8343 0.0
H3971 H 0.71014 0.82685 0.85923 0.0
H3972 H 0.67528 0.8482 0.89051 0.0
H3973 H 0.67244 0.87074 0.87211 0.0
C3974 C 0.68667 0.87368 0.84336 0.0
C3975 C 0.69456 0.87317 0.82852 0.0
C3976 C 0.68934 0.86163 0.85479 0.0
C3977 C 0.70584 0.86108 0.82567 0.0
C3978 C 0.70873 0.8493 0.83703 0.0
C3979 C 0.70205 0.83652 0.86217 0.0
C3980 C 0.69283 0.83575 0.87616 0.0
C3981 C 0.70027 0.84922 0.85143 0.0
C3982 C 0.68252 0.84847 0.8798 0.0
C3983 C 0.68083 0.86133 0.86924 0.0
H3984 H 0.8291 0.71166 0.14552 0.0
H3985 H 0.85182 0.68005 0.11187 0.0
H3986 H 0.87508 0.67785 0.12949 0.0
H3987 H 0.8878 0.68306 0.15576 0.0
H3988 H 0.86415 0.71436 0.18918 0.0
H3989 H 0.84253 0.71859 0.17031 0.0
C3990 C 0.83919 0.70439 0.14193 0.0
C3991 C 0.83865 0.6959 0.12749 0.0
C3992 C 0.85236 0.70306 0.15216 0.0
C3993 C 0.85192 0.68669 0.12295 0.0
C3994 C 0.8652 0.68538 0.13306 0.0
C3995 C 0.87803 0.69099 0.15878 0.0
C3996 C 0.87753 0.69825 0.17394 0.0
C3997 C 0.8654 0.69324 0.14789 0.0
C3998 C 0.86478 0.70848 0.17768 0.0
C3999 C 0.85237 0.71092 0.16689 0.0
H4000 H 0.28987 0.82749 0.13681 0.0
H4001 H 0.32698 0.84647 0.10664 0.0
H4002 H 0.32922 0.86993 0.12399 0.0
H4003 H 0.32261 0.88344 0.14952 0.0
H4004 H 0.28608 0.86329 0.17974 0.0
H4005 H 0.28156 0.842 0.16053 0.0
C4006 C 0.29833 0.83684 0.13389 0.0
C4007 C 0.30838 0.83514 0.12057 0.0
C4008 C 0.29973 0.85006 0.14402 0.0
C4009 C 0.31913 0.84747 0.11686 0.0
C4010 C 0.32047 0.86084 0.12683 0.0
C4011 C 0.31347 0.87455 0.15172 0.0
C4012 C 0.30481 0.87486 0.16612 0.0
C4013 C 0.31113 0.86205 0.14071 0.0
C4014 C 0.29303 0.86323 0.16884 0.0
C4015 C 0.29044 0.85103 0.15787 0.0
H4016 H 0.71455 0.17247 0.13664 0.0
H4017 H 0.67708 0.1525 0.10752 0.0
H4018 H 0.67442 0.1301 0.12616 0.0
H4019 H 0.68071 0.11802 0.15251 0.0
H4020 H 0.71729 0.13954 0.18174 0.0
H4021 H 0.72236 0.15944 0.16126 0.0
C4022 C 0.70592 0.16313 0.13421 0.0
C4023 C 0.6959 0.16425 0.12083 0.0
C4024 C 0.7042 0.15061 0.14512 0.0
C4025 C 0.68492 0.15193 0.11778 0.0
C4026 C 0.68333 0.13918 0.12849 0.0
C4027 C 0.68996 0.12692 0.15422 0.0
C4028 C 0.69849 0.12743 0.16868 0.0
C4029 C 0.69259 0.13865 0.14247 0.0
C4030 C 0.71042 0.13903 0.1708 0.0
C4031 C 0.71335 0.15041 0.15909 0.0
H4032 H 0.6186 0.64912 0.81785 0.0
H4033 H 0.641 0.67895 0.78233 0.0
H4034 H 0.66224 0.65945 0.77896 0.0
H4035 H 0.67593 0.63548 0.78795 0.0
H4036 H 0.65467 0.60576 0.82419 0.0
H4037 H 0.63143 0.62348 0.82524 0.0
C4038 C 0.62799 0.65119 0.80919 0.0
C4039 C 0.6283 0.66555 0.80047 0.0
C4040 C 0.64045 0.64 0.80751 0.0
C4041 C 0.64056 0.66808 0.78932 0.0
C4042 C 0.65274 0.65694 0.78737 0.0
C4043 C 0.66614 0.63273 0.79595 0.0
C4044 C 0.66713 0.61941 0.80609 0.0
C4045 C 0.65303 0.64309 0.79671 0.0
C4046 C 0.65424 0.61596 0.81627 0.0
C4047 C 0.64098 0.62614 0.81693 0.0
H4048 H 0.32565 0.62812 0.7872 0.0
H4049 H 0.34685 0.59837 0.82344 0.0
H4050 H 0.36946 0.61682 0.82552 0.0
H4051 H 0.38135 0.64329 0.81937 0.0
H4052 H 0.35858 0.67327 0.78423 0.0
H4053 H 0.33854 0.65284 0.77934 0.0
C4054 C 0.33533 0.6255 0.7954 0.0
C4055 C 0.33446 0.612 0.80528 0.0
C4056 C 0.34796 0.63634 0.79684 0.0
C4057 C 0.34719 0.60872 0.81571 0.0
C4058 C 0.36008 0.61933 0.81698 0.0
C4059 C 0.37216 0.64517 0.81045 0.0
C4060 C 0.37133 0.65982 0.80229 0.0
C4061 C 0.36033 0.63346 0.80797 0.0
C4062 C 0.35935 0.66216 0.7908 0.0
C4063 C 0.34788 0.65049 0.78798 0.0
H4064 H 0.37937 0.35307 0.82249 0.0
H4065 H 0.35852 0.32333 0.78594 0.0
H4066 H 0.33672 0.34218 0.78263 0.0
H4067 H 0.32211 0.36546 0.79189 0.0
H4068 H 0.34179 0.39515 0.82906 0.0
H4069 H 0.36558 0.37816 0.83018 0.0
C4070 C 0.37019 0.3509 0.81362 0.0
C4071 C 0.37048 0.33673 0.8046 0.0
C4072 C 0.3574 0.36171 0.81197 0.0
C4073 C 0.35849 0.33404 0.79317 0.0
C4074 C 0.34599 0.34482 0.79126 0.0
C4075 C 0.33167 0.36836 0.80013 0.0
C4076 C 0.33009 0.38144 0.8105 0.0
C4077 C 0.34509 0.35843 0.8009 0.0
C4078 C 0.34269 0.38512 0.82096 0.0
C4079 C 0.35626 0.37535 0.82166 0.0
H4080 H 0.63802 0.32952 0.78608 0.0
H4081 H 0.60672 0.35198 0.82021 0.0
H4082 H 0.62516 0.37457 0.82241 0.0
H4083 H 0.65168 0.38647 0.8167 0.0
H4084 H 0.68296 0.3629 0.78321 0.0
H4085 H 0.663 0.34232 0.77866 0.0
C4086 C 0.63508 0.33944 0.79386 0.0
C4087 C 0.62108 0.33897 0.80309 0.0
C4088 C 0.64585 0.35217 0.79529 0.0
C4089 C 0.61743 0.35202 0.81299 0.0
C4090 C 0.62803 0.3649 0.81432 0.0
C4091 C 0.65399 0.37696 0.80822 0.0
C4092 C 0.66887 0.37615 0.80044 0.0
C4093 C 0.6425 0.3649 0.80584 0.0
C4094 C 0.67169 0.36374 0.7895 0.0
C4095 C 0.66028 0.35194 0.78688 0.0
H4096 H 0.68031 0.36664 0.20554 0.0
H4097 H 0.65434 0.39771 0.1738 0.0
H4098 H 0.63183 0.37901 0.17371 0.0
H4099 H 0.62069 0.35247 0.18074 0.0
H4100 H 0.64759 0.32162 0.21204 0.0
H4101 H 0.66848 0.34162 0.21425 0.0
C4102 C 0.66967 0.36944 0.19871 0.0
C4103 C 0.66908 0.38346 0.18956 0.0
C4104 C 0.65696 0.35858 0.19855 0.0
C4105 C 0.65511 0.38697 0.18093 0.0
C4106 C 0.64228 0.37624 0.18082 0.0
C4107 C 0.63102 0.35026 0.18821 0.0
C4108 C 0.63264 0.33549 0.19606 0.0
C4109 C 0.64322 0.3618 0.18929 0.0
C4110 C 0.6461 0.33279 0.20572 0.0
C4111 C 0.65809 0.34423 0.207 0.0
H4112 H 0.61253 0.65557 0.18063 0.0
H4113 H 0.63189 0.68049 0.22136 0.0
H4114 H 0.65227 0.66006 0.22451 0.0
H4115 H 0.66661 0.6372 0.2138 0.0
H4116 H 0.64839 0.61236 0.17257 0.0
H4117 H 0.62542 0.63047 0.17166 0.0
C4118 C 0.621 0.65631 0.19038 0.0
C4119 C 0.62082 0.66963 0.20062 0.0
C4120 C 0.633 0.64463 0.19194 0.0
C4121 C 0.63189 0.67046 0.2132 0.0
C4122 C 0.64358 0.65879 0.21501 0.0
C4123 C 0.6575 0.63558 0.20473 0.0
C4124 C 0.65931 0.62362 0.19313 0.0
C4125 C 0.64457 0.64616 0.20413 0.0
C4126 C 0.64729 0.62153 0.18161 0.0
C4127 C 0.63421 0.63194 0.18104 0.0
H4128 H 0.36298 0.66768 0.21349 0.0
H4129 H 0.38876 0.64478 0.17532 0.0
H4130 H 0.37018 0.62217 0.17618 0.0
H4131 H 0.34469 0.61057 0.18581 0.0
H4132 H 0.31917 0.63429 0.22378 0.0
H4133 H 0.33967 0.65478 0.2251 0.0
C4134 C 0.36465 0.65766 0.20547 0.0
C4135 C 0.37705 0.65799 0.1942 0.0
C4136 C 0.35391 0.64487 0.20596 0.0
C4137 C 0.37925 0.64481 0.18407 0.0
C4138 C 0.36858 0.63193 0.18451 0.0
C4139 C 0.34382 0.62004 0.19459 0.0
C4140 C 0.3303 0.621 0.20454 0.0
C4141 C 0.35559 0.63204 0.19512 0.0
C4142 C 0.32934 0.63335 0.21586 0.0
C4143 C 0.34104 0.64512 0.21661 0.0
H4144 H 0.36773 0.32657 0.21114 0.0
H4145 H 0.39677 0.34749 0.17418 0.0
H4146 H 0.37828 0.37008 0.17232 0.0
H4147 H 0.35214 0.38226 0.17925 0.0
H4148 H 0.32307 0.36003 0.21551 0.0
H4149 H 0.34331 0.33967 0.21962 0.0
C4150 C 0.37016 0.33616 0.2028 0.0
C4151 C 0.38351 0.33525 0.19269 0.0
C4152 C 0.35935 0.34883 0.20157 0.0
C4153 C 0.38655 0.34788 0.18208 0.0
C4154 C 0.37593 0.36075 0.18095 0.0
C4155 C 0.3504 0.3731 0.18821 0.0
C4156 C 0.33604 0.37256 0.19693 0.0
C4157 C 0.36203 0.36113 0.19033 0.0
C4158 C 0.33392 0.36061 0.20849 0.0
C4159 C 0.34549 0.34894 0.21088 0.0
H4160 H 0.79715 0.677 0.63629 0.0
H4161 H 0.83148 0.65285 0.60652 0.0
H4162 H 0.83162 0.63012 0.62499 0.0
H4163 H 0.82375 0.61838 0.65107 0.0
H4164 H 0.78991 0.64363 0.68062 0.0
H4165 H 0.78776 0.66458 0.6607 0.0
C4166 C 0.80459 0.66671 0.63373 0.0
C4167 C 0.81444 0.66669 0.62017 0.0
C4168 C 0.80475 0.65391 0.64443 0.0
C4169 C 0.82381 0.65317 0.61692 0.0
C4170 C 0.82394 0.64021 0.62751 0.0
C4171 C 0.81574 0.62835 0.65299 0.0
C4172 C 0.80714 0.62952 0.66739 0.0
C4173 C 0.81473 0.64061 0.64153 0.0
C4174 C 0.79681 0.64252 0.66974 0.0
C4175 C 0.79555 0.65453 0.65835 0.0
H4176 H 0.32589 0.78397 0.63456 0.0
H4177 H 0.34832 0.82106 0.60683 0.0
H4178 H 0.37149 0.82056 0.62469 0.0
H4179 H 0.38387 0.81166 0.65007 0.0
H4180 H 0.36045 0.77516 0.67785 0.0
H4181 H 0.33931 0.77327 0.65803 0.0
C4182 C 0.33593 0.79181 0.63226 0.0
C4183 C 0.33529 0.80266 0.61949 0.0
C4184 C 0.34902 0.79165 0.64269 0.0
C4185 C 0.34849 0.81261 0.61661 0.0
C4186 C 0.36171 0.81239 0.62687 0.0
C4187 C 0.3743 0.80308 0.65159 0.0
C4188 C 0.37367 0.79368 0.66551 0.0
C4189 C 0.36191 0.80226 0.64023 0.0
C4190 C 0.36116 0.78265 0.66734 0.0
C4191 C 0.34902 0.78157 0.65602 0.0
H4192 H 0.18475 0.34523 0.61137 0.0
H4193 H 0.22098 0.31719 0.63497 0.0
H4194 H 0.2227 0.33683 0.65625 0.0
H4195 H 0.21201 0.36028 0.66967 0.0
H4196 H 0.17565 0.38863 0.64687 0.0
H4197 H 0.17602 0.37072 0.62372 0.0
C4198 C 0.19323 0.3436 0.62102 0.0
C4199 C 0.20258 0.32965 0.62166 0.0
C4200 C 0.19403 0.35491 0.63345 0.0
C4201 C 0.21351 0.32771 0.63424 0.0
C4202 C 0.2145 0.33893 0.64646 0.0
C4203 C 0.20428 0.36266 0.65956 0.0
C4204 C 0.19367 0.37562 0.66007 0.0
C4205 C 0.20449 0.3523 0.64644 0.0
C4206 C 0.18391 0.37869 0.64678 0.0
C4207 C 0.18407 0.36841 0.63357 0.0
H4208 H 0.6737 0.20634 0.628 0.0
H4209 H 0.6506 0.16733 0.60366 0.0
H4210 H 0.62856 0.16823 0.6229 0.0
H4211 H 0.61757 0.1782 0.64857 0.0
H4212 H 0.6418 0.21668 0.67284 0.0
H4213 H 0.66157 0.21795 0.65165 0.0
C4214 C 0.66375 0.19814 0.62676 0.0
C4215 C 0.66388 0.18665 0.61456 0.0
C4216 C 0.65136 0.19856 0.63796 0.0
C4217 C 0.65079 0.17627 0.61298 0.0
C4218 C 0.63824 0.17673 0.62404 0.0
C4219 C 0.62702 0.18704 0.64904 0.0
C4220 C 0.62832 0.19719 0.66237 0.0
C4221 C 0.63863 0.18753 0.63687 0.0
C4222 C 0.64063 0.20858 0.66282 0.0
C4223 C 0.65197 0.20933 0.65071 0.0
H4224 H 0.81754 0.34858 0.38362 0.0
H4225 H 0.77956 0.32163 0.36154 0.0
H4226 H 0.77743 0.34139 0.34043 0.0
H4227 H 0.78819 0.36449 0.32661 0.0
H4228 H 0.82648 0.39166 0.34767 0.0
H4229 H 0.82651 0.37383 0.37089 0.0
C4230 C 0.80861 0.34724 0.37434 0.0
C4231 C 0.79887 0.33355 0.37404 0.0
C4232 C 0.8076 0.35859 0.36197 0.0
C4233 C 0.78735 0.33194 0.36195 0.0
C4234 C 0.78611 0.34323 0.34984 0.0
C4235 C 0.79643 0.36664 0.33636 0.0
C4236 C 0.80746 0.37921 0.33534 0.0
C4237 C 0.7965 0.3563 0.34947 0.0
C4238 C 0.81789 0.38201 0.34817 0.0
C4239 C 0.81797 0.37177 0.3614 0.0
H4240 H 0.64916 0.81721 0.38968 0.0
H4241 H 0.67382 0.77629 0.37045 0.0
H4242 H 0.65354 0.7734 0.34987 0.0
H4243 H 0.63098 0.78446 0.33529 0.0
H4244 H 0.60632 0.82578 0.35346 0.0
H4245 H 0.62421 0.82642 0.37662 0.0
C4246 C 0.64986 0.80747 0.3812 0.0
C4247 C 0.66309 0.79711 0.38147 0.0
C4248 C 0.63826 0.80605 0.3691 0.0
C4249 C 0.66387 0.78454 0.37039 0.0
C4250 C 0.65229 0.78289 0.35858 0.0
C4251 C 0.62935 0.79348 0.34443 0.0
C4252 C 0.61752 0.80519 0.34256 0.0
C4253 C 0.63978 0.7939 0.35749 0.0
C4254 C 0.61539 0.81665 0.35462 0.0
C4255 C 0.62568 0.81707 0.36781 0.0
H4256 H 0.21351 0.67615 0.3652 0.0
H4257 H 0.17753 0.65718 0.39673 0.0
H4258 H 0.17464 0.63373 0.3795 0.0
H4259 H 0.18038 0.62012 0.35379 0.0
H4260 H 0.21569 0.64035 0.32219 0.0
H4261 H 0.22081 0.6617 0.34114 0.0
C4262 C 0.20517 0.6668 0.36846 0.0
C4263 C 0.19564 0.66851 0.38215 0.0
C4264 C 0.20334 0.65361 0.35836 0.0
C4265 C 0.185 0.65619 0.38624 0.0
C4266 C 0.18328 0.64281 0.37633 0.0
C4267 C 0.18935 0.62908 0.35121 0.0
C4268 C 0.1975 0.62874 0.33651 0.0
C4269 C 0.19208 0.64161 0.3621 0.0
C4270 C 0.2091 0.64043 0.33331 0.0
C4271 C 0.21207 0.65266 0.34415 0.0
H4272 H 0.3244 0.20899 0.36947 0.0
H4273 H 0.34782 0.17195 0.39641 0.0
H4274 H 0.37092 0.17337 0.3785 0.0
H4275 H 0.38303 0.18317 0.3533 0.0
H4276 H 0.35869 0.21983 0.32651 0.0
H4277 H 0.33751 0.22062 0.34633 0.0
C4278 C 0.33464 0.20134 0.37156 0.0
C4279 C 0.33432 0.19024 0.38411 0.0
C4280 C 0.3477 0.20209 0.36116 0.0
C4281 C 0.34776 0.18058 0.38679 0.0
C4282 C 0.36093 0.18133 0.3765 0.0
C4283 C 0.37324 0.19153 0.35199 0.0
C4284 C 0.37235 0.20129 0.33834 0.0
C4285 C 0.36085 0.19175 0.36337 0.0
C4286 C 0.35959 0.21206 0.3368 0.0
C4287 C 0.34743 0.21252 0.34812 0.0
H4288 H 0.67484 0.78341 0.63111 0.0
H4289 H 0.6534 0.82105 0.60334 0.0
H4290 H 0.63035 0.82135 0.62134 0.0
H4291 H 0.61797 0.81307 0.64696 0.0
H4292 H 0.6406 0.77615 0.67483 0.0
H4293 H 0.66138 0.77336 0.65477 0.0
C4294 C 0.66503 0.79154 0.62882 0.0
C4295 C 0.66593 0.80232 0.61602 0.0
C4296 C 0.65205 0.79188 0.63937 0.0
C4297 C 0.65302 0.81264 0.61314 0.0
C4298 C 0.63988 0.81288 0.62349 0.0
C4299 C 0.62729 0.80423 0.64845 0.0
C4300 C 0.62784 0.79497 0.66246 0.0
C4301 C 0.6395 0.80289 0.63695 0.0
C4302 C 0.64 0.78357 0.66426 0.0
C4303 C 0.65191 0.78195 0.65279 0.0
H4304 H 0.63025 0.21657 0.32756 0.0
H4305 H 0.60269 0.17794 0.34745 0.0
H4306 H 0.6207 0.17682 0.37047 0.0
H4307 H 0.64628 0.18472 0.38315 0.0
H4308 H 0.67388 0.22284 0.36221 0.0
H4309 H 0.6538 0.22633 0.34153 0.0
C4310 C 0.62802 0.20805 0.33703 0.0
C4311 C 0.61528 0.19722 0.33569 0.0
C4312 C 0.63855 0.20729 0.35002 0.0
C4313 C 0.61245 0.18639 0.34818 0.0
C4314 C 0.62281 0.18569 0.3613 0.0
C4315 C 0.64772 0.19399 0.37424 0.0
C4316 C 0.66167 0.20337 0.37412 0.0
C4317 C 0.6362 0.19576 0.3621 0.0
C4318 C 0.66336 0.21533 0.36248 0.0
C4319 C 0.65189 0.21734 0.35062 0.0
H4320 H 0.81595 0.61143 0.34574 0.0
H4321 H 0.77702 0.63139 0.31852 0.0
H4322 H 0.77233 0.65116 0.33925 0.0
H4323 H 0.7813 0.66485 0.36323 0.0
H4324 H 0.82079 0.64612 0.39038 0.0
H4325 H 0.82307 0.62367 0.37176 0.0
C4326 C 0.80624 0.61991 0.34454 0.0
C4327 C 0.79698 0.62007 0.33052 0.0
C4328 C 0.80381 0.63156 0.35642 0.0
C4329 C 0.78446 0.63114 0.3291 0.0
C4330 C 0.78176 0.64247 0.34094 0.0
C4331 C 0.79027 0.65574 0.36523 0.0
C4332 C 0.801 0.65726 0.37802 0.0
C4333 C 0.7917 0.64313 0.35436 0.0
C4334 C 0.81241 0.64524 0.38058 0.0
C4335 C 0.81378 0.63245 0.36988 0.0
H4336 H 0.36704 0.78765 0.3252 0.0
H4337 H 0.39855 0.82307 0.34527 0.0
H4338 H 0.38086 0.82584 0.3684 0.0
H4339 H 0.3548 0.8202 0.3814 0.0
H4340 H 0.32324 0.78552 0.36002 0.0
H4341 H 0.3426 0.78044 0.33902 0.0
C4342 C 0.37019 0.79585 0.33471 0.0
C4343 C 0.38401 0.80525 0.33342 0.0
C4344 C 0.35983 0.79762 0.34771 0.0
C4345 C 0.38796 0.81569 0.34595 0.0
C4346 C 0.37779 0.81735 0.35914 0.0
C4347 C 0.35232 0.81137 0.37227 0.0
C4348 C 0.33752 0.80339 0.37218 0.0
C4349 C 0.36345 0.80869 0.35993 0.0
C4350 C 0.33444 0.79198 0.36026 0.0
C4351 C 0.34551 0.78904 0.34823 0.0
H4352 H 0.18556 0.38519 0.34591 0.0
H4353 H 0.22277 0.36362 0.31756 0.0
H4354 H 0.22668 0.34319 0.33778 0.0
H4355 H 0.21758 0.32966 0.36182 0.0
H4356 H 0.1799 0.35019 0.39022 0.0
H4357 H 0.17831 0.37291 0.37188 0.0
C4358 C 0.19472 0.3762 0.34434 0.0
C4359 C 0.20372 0.37583 0.33015 0.0
C4360 C 0.19674 0.3642 0.35596 0.0
C4361 C 0.21554 0.36408 0.32827 0.0
C4362 C 0.2178 0.35236 0.33983 0.0
C4363 C 0.20915 0.3392 0.36415 0.0
C4364 C 0.19874 0.33813 0.37725 0.0
C4365 C 0.20813 0.35201 0.35345 0.0
C4366 C 0.18803 0.35071 0.38019 0.0
C4367 C 0.18706 0.36366 0.36965 0.0
H4368 H 0.37041 0.21408 0.67918 0.0
H4369 H 0.40022 0.17795 0.65786 0.0
H4370 H 0.38209 0.17638 0.63494 0.0
H4371 H 0.35603 0.1832 0.62256 0.0
H4372 H 0.32617 0.21859 0.64514 0.0
H4373 H 0.34608 0.22255 0.66588 0.0
C4374 C 0.3731 0.20599 0.66943 0.0
C4375 C 0.38654 0.19602 0.67032 0.0
C4376 C 0.36249 0.20491 0.65656 0.0
C4377 C 0.38992 0.18574 0.65749 0.0
C4378 C 0.3795 0.18477 0.64443 0.0
C4379 C 0.35405 0.19196 0.63188 0.0
C4380 C 0.33956 0.20045 0.63241 0.0
C4381 C 0.36548 0.19398 0.64406 0.0
C4382 C 0.33712 0.21174 0.64457 0.0
C4383 C 0.34851 0.21404 0.65645 0.0
H4384 H 0.7867 0.36101 0.6737 0.0
H4385 H 0.82381 0.38808 0.65056 0.0
H4386 H 0.82245 0.3703 0.62733 0.0
H4387 H 0.81263 0.34517 0.61505 0.0
H4388 H 0.77571 0.31839 0.63903 0.0
H4389 H 0.77494 0.33805 0.66035 0.0
C4390 C 0.79439 0.36313 0.66351 0.0
C4391 C 0.8055 0.37567 0.66392 0.0
C4392 C 0.7936 0.35286 0.65035 0.0
C4393 C 0.81519 0.37845 0.65053 0.0
C4394 C 0.81445 0.36825 0.63728 0.0
C4395 C 0.80421 0.34385 0.62478 0.0
C4396 C 0.79439 0.33022 0.62554 0.0
C4397 C 0.80398 0.35514 0.63724 0.0
C4398 C 0.78353 0.32866 0.63823 0.0
C4399 C 0.78309 0.33988 0.65047 0.0
H4400 H 0.20498 0.63911 0.67512 0.0
H4401 H 0.17092 0.60847 0.65165 0.0
H4402 H 0.16984 0.6269 0.62894 0.0
H4403 H 0.17678 0.65317 0.61705 0.0
H4404 H 0.21029 0.68363 0.64168 0.0
H4405 H 0.21342 0.66378 0.66257 0.0
C4406 C 0.19741 0.63634 0.66498 0.0
C4407 C 0.1879 0.62254 0.66515 0.0
C4408 C 0.19668 0.64705 0.6522 0.0
C4409 C 0.17833 0.61905 0.65182 0.0
C4410 C 0.17766 0.62963 0.63887 0.0
C4411 C 0.18492 0.65531 0.62688 0.0
C4412 C 0.19314 0.66993 0.6279 0.0
C4413 C 0.1865 0.64388 0.63911 0.0
C4414 C 0.20366 0.67257 0.6407 0.0
C4415 C 0.20548 0.66122 0.65267 0.0
loop_
_geom_bond_atom_site_label_1
_geom_bond_atom_site_label_2
_geom_bond_distance
_geom_bond_site_symmetry_2
_ccdc_geom_bond_type
O0 Cd1 2.223 . S
O0 C8 1.315 . S
Cd1 O0 2.223 . S
Cd1 O4 2.297 . S
Cd1 O5 2.439 . S
Cd1 O11 2.240 . S
Cd2 O3 2.240 . S
Cd2 O10 2.223 . S
Cd2 O12 2.297 . S
Cd2 O13 2.439 . S
O3 Cd2 2.240 . S
O3 C8 1.279 . S
O4 Cd1 2.297 . S
O4 C6 1.247 . S
O5 Cd1 2.439 . S
O5 C6 1.208 . S
C6 O4 1.247 . S
C6 O5 1.208 . S
C7 O12 1.247 . S
C7 O13 1.208 . S
C8 O0 1.315 . S
C8 O3 1.279 . S
C9 O10 1.315 . S
C9 O11 1.279 . S
O10 Cd2 2.223 . S
O10 C9 1.315 . S
O11 Cd1 2.240 . S
O11 C9 1.279 . S
O12 Cd2 2.297 . S
O12 C7 1.247 . S
O13 Cd2 2.439 . S
O13 C7 1.208 . S
O14 Cd15 2.223 . S
O14 C22 1.315 . S
Cd15 O14 2.223 . S
Cd15 O18 2.297 . S
Cd15 O19 2.439 . S
Cd15 O25 2.240 . S
Cd16 O17 2.240 . S
Cd16 O24 2.223 . S
Cd16 O26 2.297 . S
Cd16 O27 2.439 . S
O17 Cd16 2.240 . S
O17 C22 1.279 . S
O18 Cd15 2.297 . S
O18 C20 1.247 . S
O19 Cd15 2.439 . S
O19 C20 1.208 . S
C20 O18 1.247 . S
C20 O19 1.208 . S
C21 O26 1.247 . S
C21 O27 1.208 . S
C22 O14 1.315 . S
C22 O17 1.279 . S
C23 O24 1.315 . S
C23 O25 1.279 . S
O24 Cd16 2.223 . S
O24 C23 1.315 . S
O25 Cd15 2.240 . S
O25 C23 1.279 . S
O26 Cd16 2.297 . S
O26 C21 1.247 . S
O27 Cd16 2.439 . S
O27 C21 1.208 . S
O28 Cd29 2.223 . S
O28 C36 1.315 . S
Cd29 O28 2.223 . S
Cd29 O32 2.297 . S
Cd29 O33 2.439 . S
Cd29 O39 2.240 . S
Cd30 O31 2.240 . S
Cd30 O38 2.223 . S
Cd30 O40 2.297 . S
Cd30 O41 2.439 . S
O31 Cd30 2.240 . S
O31 C36 1.279 . S
O32 Cd29 2.297 . S
O32 C34 1.247 . S
O33 Cd29 2.439 . S
O33 C34 1.208 . S
C34 O32 1.247 . S
C34 O33 1.208 . S
C35 O40 1.247 . S
C35 O41 1.208 . S
C36 O28 1.315 . S
C36 O31 1.279 . S
C37 O38 1.315 . S
C37 O39 1.279 . S
O38 Cd30 2.223 . S
O38 C37 1.315 . S
O39 Cd29 2.240 . S
O39 C37 1.279 . S
O40 Cd30 2.297 . S
O40 C35 1.247 . S
O41 Cd30 2.439 . S
O41 C35 1.208 . S
O42 Cd43 2.223 . S
O42 C50 1.315 . S
Cd43 O42 2.223 . S
Cd43 O46 2.297 . S
Cd43 O47 2.439 . S
Cd43 O53 2.240 . S
Cd44 O45 2.240 . S
Cd44 O52 2.223 . S
Cd44 O54 2.297 . S
Cd44 O55 2.439 . S
O45 Cd44 2.240 . S
O45 C50 1.279 . S
O46 Cd43 2.297 . S
O46 C48 1.247 . S
O47 Cd43 2.439 . S
O47 C48 1.208 . S
C48 O46 1.247 . S
C48 O47 1.208 . S
C49 O54 1.247 . S
C49 O55 1.208 . S
C50 O42 1.315 . S
C50 O45 1.279 . S
C51 O52 1.315 . S
C51 O53 1.279 . S
O52 Cd44 2.223 . S
O52 C51 1.315 . S
O53 Cd43 2.240 . S
O53 C51 1.279 . S
O54 Cd44 2.297 . S
O54 C49 1.247 . S
O55 Cd44 2.439 . S
O55 C49 1.208 . S
O56 Cd57 2.223 . S
O56 C64 1.315 . S
Cd57 O56 2.223 . S
Cd57 O60 2.297 . S
Cd57 O61 2.439 . S
Cd57 O67 2.240 . S
Cd58 O59 2.240 . S
Cd58 O66 2.223 . S
Cd58 O68 2.297 . S
Cd58 O69 2.439 . S
O59 Cd58 2.240 . S
O59 C64 1.279 . S
O60 Cd57 2.297 . S
O60 C62 1.247 . S
O61 Cd57 2.439 . S
O61 C62 1.208 . S
C62 O60 1.247 . S
C62 O61 1.208 . S
C63 O68 1.247 . S
C63 O69 1.208 . S
C64 O56 1.315 . S
C64 O59 1.279 . S
C65 O66 1.315 . S
C65 O67 1.279 . S
O66 Cd58 2.223 . S
O66 C65 1.315 . S
O67 Cd57 2.240 . S
O67 C65 1.279 . S
O68 Cd58 2.297 . S
O68 C63 1.247 . S
O69 Cd58 2.439 . S
O69 C63 1.208 . S
O70 Cd71 2.223 . S
O70 C78 1.315 . S
Cd71 O70 2.223 . S
Cd71 O74 2.297 . S
Cd71 O75 2.439 . S
Cd71 O81 2.240 . S
Cd72 O73 2.240 . S
Cd72 O80 2.223 . S
Cd72 O82 2.297 . S
Cd72 O83 2.439 . S
O73 Cd72 2.240 . S
O73 C78 1.279 . S
O74 Cd71 2.297 . S
O74 C76 1.247 . S
O75 Cd71 2.439 . S
O75 C76 1.208 . S
C76 O74 1.247 . S
C76 O75 1.208 . S
C77 O82 1.247 . S
C77 O83 1.208 . S
C78 O70 1.315 . S
C78 O73 1.279 . S
C79 O80 1.315 . S
C79 O81 1.279 . S
O80 Cd72 2.223 . S
O80 C79 1.315 . S
O81 Cd71 2.240 . S
O81 C79 1.279 . S
O82 Cd72 2.297 . S
O82 C77 1.247 . S
O83 Cd72 2.439 . S
O83 C77 1.208 . S
O84 Cd85 2.223 . S
O84 C92 1.315 . S
Cd85 O84 2.223 . S
Cd85 O88 2.297 . S
Cd85 O89 2.439 . S
Cd85 O95 2.240 . S
Cd86 O87 2.240 . S
Cd86 O94 2.223 . S
Cd86 O96 2.297 . S
Cd86 O97 2.439 . S
O87 Cd86 2.240 . S
O87 C92 1.279 . S
O88 Cd85 2.297 . S
O88 C90 1.247 . S
O89 Cd85 2.439 . S
O89 C90 1.208 . S
C90 O88 1.247 . S
C90 O89 1.208 . S
C91 O96 1.247 . S
C91 O97 1.208 . S
C92 O84 1.315 . S
C92 O87 1.279 . S
C93 O94 1.315 . S
C93 O95 1.279 . S
O94 Cd86 2.223 . S
O94 C93 1.315 . S
O95 Cd85 2.240 . S
O95 C93 1.279 . S
O96 Cd86 2.297 . S
O96 C91 1.247 . S
O97 Cd86 2.439 . S
O97 C91 1.208 . S
O98 Cd99 2.223 . S
O98 C106 1.315 . S
Cd99 O98 2.223 . S
Cd99 O102 2.297 . S
Cd99 O103 2.439 . S
Cd99 O109 2.240 . S
Cd100 O101 2.240 . S
Cd100 O108 2.223 . S
Cd100 O110 2.297 . S
Cd100 O111 2.439 . S
O101 Cd100 2.240 . S
O101 C106 1.279 . S
O102 Cd99 2.297 . S
O102 C104 1.247 . S
O103 Cd99 2.439 . S
O103 C104 1.208 . S
C104 O102 1.247 . S
C104 O103 1.208 . S
C105 O110 1.247 . S
C105 O111 1.208 . S
C106 O98 1.315 . S
C106 O101 1.279 . S
C107 O108 1.315 . S
C107 O109 1.279 . S
O108 Cd100 2.223 . S
O108 C107 1.315 . S
O109 Cd99 2.240 . S
O109 C107 1.279 . S
O110 Cd100 2.297 . S
O110 C105 1.247 . S
O111 Cd100 2.439 . S
O111 C105 1.208 . S
O112 Cd113 2.223 . S
O112 C120 1.315 . S
Cd113 O112 2.223 . S
Cd113 O116 2.297 . S
Cd113 O117 2.439 . S
Cd113 O123 2.240 . S
Cd114 O115 2.240 . S
Cd114 O122 2.223 . S
Cd114 O124 2.297 . S
Cd114 O125 2.439 . S
O115 Cd114 2.240 . S
O115 C120 1.279 . S
O116 Cd113 2.297 . S
O116 C118 1.247 . S
O117 Cd113 2.439 . S
O117 C118 1.208 . S
C118 O116 1.247 . S
C118 O117 1.208 . S
C119 O124 1.247 . S
C119 O125 1.208 . S
C120 O112 1.315 . S
C120 O115 1.279 . S
C121 O122 1.315 . S
C121 O123 1.279 . S
O122 Cd114 2.223 . S
O122 C121 1.315 . S
O123 Cd113 2.240 . S
O123 C121 1.279 . S
O124 Cd114 2.297 . S
O124 C119 1.247 . S
O125 Cd114 2.439 . S
O125 C119 1.208 . S
O126 Cd127 2.223 . S
O126 C134 1.315 . S
Cd127 O126 2.223 . S
Cd127 O130 2.297 . S
Cd127 O131 2.439 . S
Cd127 O137 2.240 . S
Cd128 O129 2.240 . S
Cd128 O136 2.223 . S
Cd128 O138 2.297 . S
Cd128 O139 2.439 . S
O129 Cd128 2.240 . S
O129 C134 1.279 . S
O130 Cd127 2.297 . S
O130 C132 1.247 . S
O131 Cd127 2.439 . S
O131 C132 1.208 . S
C132 O130 1.247 . S
C132 O131 1.208 . S
C133 O138 1.247 . S
C133 O139 1.208 . S
C134 O126 1.315 . S
C134 O129 1.279 . S
C135 O136 1.315 . S
C135 O137 1.279 . S
O136 Cd128 2.223 . S
O136 C135 1.315 . S
O137 Cd127 2.240 . S
O137 C135 1.279 . S
O138 Cd128 2.297 . S
O138 C133 1.247 . S
O139 Cd128 2.439 . S
O139 C133 1.208 . S
O140 Cd141 2.223 . S
O140 C148 1.315 . S
Cd141 O140 2.223 . S
Cd141 O144 2.297 . S
Cd141 O145 2.439 . S
Cd141 O151 2.240 . S
Cd142 O143 2.240 . S
Cd142 O150 2.223 . S
Cd142 O152 2.297 . S
Cd142 O153 2.439 . S
O143 Cd142 2.240 . S
O143 C148 1.279 . S
O144 Cd141 2.297 . S
O144 C146 1.247 . S
O145 Cd141 2.439 . S
O145 C146 1.208 . S
C146 O144 1.247 . S
C146 O145 1.208 . S
C147 O152 1.247 . S
C147 O153 1.208 . S
C148 O140 1.315 . S
C148 O143 1.279 . S
C149 O150 1.315 . S
C149 O151 1.279 . S
O150 Cd142 2.223 . S
O150 C149 1.315 . S
O151 Cd141 2.240 . S
O151 C149 1.279 . S
O152 Cd142 2.297 . S
O152 C147 1.247 . S
O153 Cd142 2.439 . S
O153 C147 1.208 . S
O154 Cd155 2.223 . S
O154 C162 1.315 . S
Cd155 O154 2.223 . S
Cd155 O158 2.297 . S
Cd155 O159 2.439 . S
Cd155 O165 2.240 . S
Cd156 O157 2.240 . S
Cd156 O164 2.223 . S
Cd156 O166 2.297 . S
Cd156 O167 2.439 . S
O157 Cd156 2.240 . S
O157 C162 1.279 . S
O158 Cd155 2.297 . S
O158 C160 1.247 . S
O159 Cd155 2.439 . S
O159 C160 1.208 . S
C160 O158 1.247 . S
C160 O159 1.208 . S
C161 O166 1.247 . S
C161 O167 1.208 . S
C162 O154 1.315 . S
C162 O157 1.279 . S
C163 O164 1.315 . S
C163 O165 1.279 . S
O164 Cd156 2.223 . S
O164 C163 1.315 . S
O165 Cd155 2.240 . S
O165 C163 1.279 . S
O166 Cd156 2.297 . S
O166 C161 1.247 . S
O167 Cd156 2.439 . S
O167 C161 1.208 . S
O168 Cd169 2.223 . S
O168 C176 1.315 . S
Cd169 O168 2.223 . S
Cd169 O172 2.297 . S
Cd169 O173 2.439 . S
Cd169 O179 2.240 . S
Cd170 O171 2.240 . S
Cd170 O178 2.223 . S
Cd170 O180 2.297 . S
Cd170 O181 2.439 . S
O171 Cd170 2.240 . S
O171 C176 1.279 . S
O172 Cd169 2.297 . S
O172 C174 1.247 . S
O173 Cd169 2.439 . S
O173 C174 1.208 . S
C174 O172 1.247 . S
C174 O173 1.208 . S
C175 O180 1.247 . S
C175 O181 1.208 . S
C176 O168 1.315 . S
C176 O171 1.279 . S
C177 O178 1.315 . S
C177 O179 1.279 . S
O178 Cd170 2.223 . S
O178 C177 1.315 . S
O179 Cd169 2.240 . S
O179 C177 1.279 . S
O180 Cd170 2.297 . S
O180 C175 1.247 . S
O181 Cd170 2.439 . S
O181 C175 1.208 . S
O182 Cd183 2.223 . S
O182 C190 1.315 . S
Cd183 O182 2.223 . S
Cd183 O186 2.297 . S
Cd183 O187 2.439 . S
Cd183 O193 2.240 . S
Cd184 O185 2.240 . S
Cd184 O192 2.223 . S
Cd184 O194 2.297 . S
Cd184 O195 2.439 . S
O185 Cd184 2.240 . S
O185 C190 1.279 . S
O186 Cd183 2.297 . S
O186 C188 1.247 . S
O187 Cd183 2.439 . S
O187 C188 1.208 . S
C188 O186 1.247 . S
C188 O187 1.208 . S
C189 O194 1.247 . S
C189 O195 1.208 . S
C190 O182 1.315 . S
C190 O185 1.279 . S
C191 O192 1.315 . S
C191 O193 1.279 . S
O192 Cd184 2.223 . S
O192 C191 1.315 . S
O193 Cd183 2.240 . S
O193 C191 1.279 . S
O194 Cd184 2.297 . S
O194 C189 1.247 . S
O195 Cd184 2.439 . S
O195 C189 1.208 . S
O196 Cd197 2.223 . S
O196 C204 1.315 . S
Cd197 O196 2.223 . S
Cd197 O200 2.297 . S
Cd197 O201 2.439 . S
Cd197 O207 2.240 . S
Cd198 O199 2.240 . S
Cd198 O206 2.223 . S
Cd198 O208 2.297 . S
Cd198 O209 2.439 . S
O199 Cd198 2.240 . S
O199 C204 1.279 . S
O200 Cd197 2.297 . S
O200 C202 1.247 . S
O201 Cd197 2.439 . S
O201 C202 1.208 . S
C202 O200 1.247 . S
C202 O201 1.208 . S
C203 O208 1.247 . S
C203 O209 1.208 . S
C204 O196 1.315 . S
C204 O199 1.279 . S
C205 O206 1.315 . S
C205 O207 1.279 . S
O206 Cd198 2.223 . S
O206 C205 1.315 . S
O207 Cd197 2.240 . S
O207 C205 1.279 . S
O208 Cd198 2.297 . S
O208 C203 1.247 . S
O209 Cd198 2.439 . S
O209 C203 1.208 . S
O210 Cd211 2.223 . S
O210 C218 1.315 . S
Cd211 O210 2.223 . S
Cd211 O214 2.297 . S
Cd211 O215 2.439 . S
Cd211 O221 2.240 . S
Cd212 O213 2.240 . S
Cd212 O220 2.223 . S
Cd212 O222 2.297 . S
Cd212 O223 2.439 . S
O213 Cd212 2.240 . S
O213 C218 1.279 . S
O214 Cd211 2.297 . S
O214 C216 1.247 . S
O215 Cd211 2.439 . S
O215 C216 1.208 . S
C216 O214 1.247 . S
C216 O215 1.208 . S
C217 O222 1.247 . S
C217 O223 1.208 . S
C218 O210 1.315 . S
C218 O213 1.279 . S
C219 O220 1.315 . S
C219 O221 1.279 . S
O220 Cd212 2.223 . S
O220 C219 1.315 . S
O221 Cd211 2.240 . S
O221 C219 1.279 . S
O222 Cd212 2.297 . S
O222 C217 1.247 . S
O223 Cd212 2.439 . S
O223 C217 1.208 . S
O224 Cd225 2.223 . S
O224 C232 1.315 . S
Cd225 O224 2.223 . S
Cd225 O228 2.297 . S
Cd225 O229 2.439 . S
Cd225 O235 2.240 . S
Cd226 O227 2.240 . S
Cd226 O234 2.223 . S
Cd226 O236 2.297 . S
Cd226 O237 2.439 . S
O227 Cd226 2.240 . S
O227 C232 1.279 . S
O228 Cd225 2.297 . S
O228 C230 1.247 . S
O229 Cd225 2.439 . S
O229 C230 1.208 . S
C230 O228 1.247 . S
C230 O229 1.208 . S
C231 O236 1.247 . S
C231 O237 1.208 . S
C232 O224 1.315 . S
C232 O227 1.279 . S
C233 O234 1.315 . S
C233 O235 1.279 . S
O234 Cd226 2.223 . S
O234 C233 1.315 . S
O235 Cd225 2.240 . S
O235 C233 1.279 . S
O236 Cd226 2.297 . S
O236 C231 1.247 . S
O237 Cd226 2.439 . S
O237 C231 1.208 . S
O238 Cd239 2.223 . S
O238 C246 1.315 . S
Cd239 O238 2.223 . S
Cd239 O242 2.297 . S
Cd239 O243 2.439 . S
Cd239 O249 2.240 . S
Cd240 O241 2.240 . S
Cd240 O248 2.223 . S
Cd240 O250 2.297 . S
Cd240 O251 2.439 . S
O241 Cd240 2.240 . S
O241 C246 1.279 . S
O242 Cd239 2.297 . S
O242 C244 1.247 . S
O243 Cd239 2.439 . S
O243 C244 1.208 . S
C244 O242 1.247 . S
C244 O243 1.208 . S
C245 O250 1.247 . S
C245 O251 1.208 . S
C246 O238 1.315 . S
C246 O241 1.279 . S
C247 O248 1.315 . S
C247 O249 1.279 . S
O248 Cd240 2.223 . S
O248 C247 1.315 . S
O249 Cd239 2.240 . S
O249 C247 1.279 . S
O250 Cd240 2.297 . S
O250 C245 1.247 . S
O251 Cd240 2.439 . S
O251 C245 1.208 . S
O252 Cd253 2.223 . S
O252 C260 1.315 . S
Cd253 O252 2.223 . S
Cd253 O256 2.297 . S
Cd253 O257 2.439 . S
Cd253 O263 2.240 . S
Cd254 O255 2.240 . S
Cd254 O262 2.223 . S
Cd254 O264 2.297 . S
Cd254 O265 2.439 . S
O255 Cd254 2.240 . S
O255 C260 1.279 . S
O256 Cd253 2.297 . S
O256 C258 1.247 . S
O257 Cd253 2.439 . S
O257 C258 1.208 . S
C258 O256 1.247 . S
C258 O257 1.208 . S
C259 O264 1.247 . S
C259 O265 1.208 . S
C260 O252 1.315 . S
C260 O255 1.279 . S
C261 O262 1.315 . S
C261 O263 1.279 . S
O262 Cd254 2.223 . S
O262 C261 1.315 . S
O263 Cd253 2.240 . S
O263 C261 1.279 . S
O264 Cd254 2.297 . S
O264 C259 1.247 . S
O265 Cd254 2.439 . S
O265 C259 1.208 . S
O266 Cd267 2.223 . S
O266 C274 1.315 . S
Cd267 O266 2.223 . S
Cd267 O270 2.297 . S
Cd267 O271 2.439 . S
Cd267 O277 2.240 . S
Cd268 O269 2.240 . S
Cd268 O276 2.223 . S
Cd268 O278 2.297 . S
Cd268 O279 2.439 . S
O269 Cd268 2.240 . S
O269 C274 1.279 . S
O270 Cd267 2.297 . S
O270 C272 1.247 . S
O271 Cd267 2.439 . S
O271 C272 1.208 . S
C272 O270 1.247 . S
C272 O271 1.208 . S
C273 O278 1.247 . S
C273 O279 1.208 . S
C274 O266 1.315 . S
C274 O269 1.279 . S
C275 O276 1.315 . S
C275 O277 1.279 . S
O276 Cd268 2.223 . S
O276 C275 1.315 . S
O277 Cd267 2.240 . S
O277 C275 1.279 . S
O278 Cd268 2.297 . S
O278 C273 1.247 . S
O279 Cd268 2.439 . S
O279 C273 1.208 . S
O280 Cd281 2.223 . S
O280 C288 1.315 . S
Cd281 O280 2.223 . S
Cd281 O284 2.297 . S
Cd281 O285 2.439 . S
Cd281 O291 2.240 . S
Cd282 O283 2.240 . S
Cd282 O290 2.223 . S
Cd282 O292 2.297 . S
Cd282 O293 2.439 . S
O283 Cd282 2.240 . S
O283 C288 1.279 . S
O284 Cd281 2.297 . S
O284 C286 1.247 . S
O285 Cd281 2.439 . S
O285 C286 1.208 . S
C286 O284 1.247 . S
C286 O285 1.208 . S
C287 O292 1.247 . S
C287 O293 1.208 . S
C288 O280 1.315 . S
C288 O283 1.279 . S
C289 O290 1.315 . S
C289 O291 1.279 . S
O290 Cd282 2.223 . S
O290 C289 1.315 . S
O291 Cd281 2.240 . S
O291 C289 1.279 . S
O292 Cd282 2.297 . S
O292 C287 1.247 . S
O293 Cd282 2.439 . S
O293 C287 1.208 . S
O294 Cd295 2.223 . S
O294 C302 1.315 . S
Cd295 O294 2.223 . S
Cd295 O298 2.297 . S
Cd295 O299 2.439 . S
Cd295 O305 2.240 . S
Cd296 O297 2.240 . S
Cd296 O304 2.223 . S
Cd296 O306 2.297 . S
Cd296 O307 2.439 . S
O297 Cd296 2.240 . S
O297 C302 1.279 . S
O298 Cd295 2.297 . S
O298 C300 1.247 . S
O299 Cd295 2.439 . S
O299 C300 1.208 . S
C300 O298 1.247 . S
C300 O299 1.208 . S
C301 O306 1.247 . S
C301 O307 1.208 . S
C302 O294 1.315 . S
C302 O297 1.279 . S
C303 O304 1.315 . S
C303 O305 1.279 . S
O304 Cd296 2.223 . S
O304 C303 1.315 . S
O305 Cd295 2.240 . S
O305 C303 1.279 . S
O306 Cd296 2.297 . S
O306 C301 1.247 . S
O307 Cd296 2.439 . S
O307 C301 1.208 . S
O308 Cd309 2.223 . S
O308 C316 1.315 . S
Cd309 O308 2.223 . S
Cd309 O312 2.297 . S
Cd309 O313 2.439 . S
Cd309 O319 2.240 . S
Cd310 O311 2.240 . S
Cd310 O318 2.223 . S
Cd310 O320 2.297 . S
Cd310 O321 2.439 . S
O311 Cd310 2.240 . S
O311 C316 1.279 . S
O312 Cd309 2.297 . S
O312 C314 1.247 . S
O313 Cd309 2.439 . S
O313 C314 1.208 . S
C314 O312 1.247 . S
C314 O313 1.208 . S
C315 O320 1.247 . S
C315 O321 1.208 . S
C316 O308 1.315 . S
C316 O311 1.279 . S
C317 O318 1.315 . S
C317 O319 1.279 . S
O318 Cd310 2.223 . S
O318 C317 1.315 . S
O319 Cd309 2.240 . S
O319 C317 1.279 . S
O320 Cd310 2.297 . S
O320 C315 1.247 . S
O321 Cd310 2.439 . S
O321 C315 1.208 . S
O322 Cd323 2.223 . S
O322 C330 1.315 . S
Cd323 O322 2.223 . S
Cd323 O326 2.297 . S
Cd323 O327 2.439 . S
Cd323 O333 2.240 . S
Cd324 O325 2.240 . S
Cd324 O332 2.223 . S
Cd324 O334 2.297 . S
Cd324 O335 2.439 . S
O325 Cd324 2.240 . S
O325 C330 1.279 . S
O326 Cd323 2.297 . S
O326 C328 1.247 . S
O327 Cd323 2.439 . S
O327 C328 1.208 . S
C328 O326 1.247 . S
C328 O327 1.208 . S
C329 O334 1.247 . S
C329 O335 1.208 . S
C330 O322 1.315 . S
C330 O325 1.279 . S
C331 O332 1.315 . S
C331 O333 1.279 . S
O332 Cd324 2.223 . S
O332 C331 1.315 . S
O333 Cd323 2.240 . S
O333 C331 1.279 . S
O334 Cd324 2.297 . S
O334 C329 1.247 . S
O335 Cd324 2.439 . S
O335 C329 1.208 . S
O336 Cd337 2.223 . S
O336 C344 1.315 . S
Cd337 O336 2.223 . S
Cd337 O340 2.297 . S
Cd337 O341 2.439 . S
Cd337 O347 2.240 . S
Cd338 O339 2.240 . S
Cd338 O346 2.223 . S
Cd338 O348 2.297 . S
Cd338 O349 2.439 . S
O339 Cd338 2.240 . S
O339 C344 1.279 . S
O340 Cd337 2.297 . S
O340 C342 1.247 . S
O341 Cd337 2.439 . S
O341 C342 1.208 . S
C342 O340 1.247 . S
C342 O341 1.208 . S
C343 O348 1.247 . S
C343 O349 1.208 . S
C344 O336 1.315 . S
C344 O339 1.279 . S
C345 O346 1.315 . S
C345 O347 1.279 . S
O346 Cd338 2.223 . S
O346 C345 1.315 . S
O347 Cd337 2.240 . S
O347 C345 1.279 . S
O348 Cd338 2.297 . S
O348 C343 1.247 . S
O349 Cd338 2.439 . S
O349 C343 1.208 . S
O350 Cd351 2.223 . S
O350 C358 1.315 . S
Cd351 O350 2.223 . S
Cd351 O354 2.297 . S
Cd351 O355 2.439 . S
Cd351 O361 2.240 . S
Cd352 O353 2.240 . S
Cd352 O360 2.223 . S
Cd352 O362 2.297 . S
Cd352 O363 2.439 . S
O353 Cd352 2.240 . S
O353 C358 1.279 . S
O354 Cd351 2.297 . S
O354 C356 1.247 . S
O355 Cd351 2.439 . S
O355 C356 1.208 . S
C356 O354 1.247 . S
C356 O355 1.208 . S
C357 O362 1.247 . S
C357 O363 1.208 . S
C358 O350 1.315 . S
C358 O353 1.279 . S
C359 O360 1.315 . S
C359 O361 1.279 . S
O360 Cd352 2.223 . S
O360 C359 1.315 . S
O361 Cd351 2.240 . S
O361 C359 1.279 . S
O362 Cd352 2.297 . S
O362 C357 1.247 . S
O363 Cd352 2.439 . S
O363 C357 1.208 . S
O364 Cd365 2.223 . S
O364 C372 1.315 . S
Cd365 O364 2.223 . S
Cd365 O368 2.297 . S
Cd365 O369 2.439 . S
Cd365 O375 2.240 . S
Cd366 O367 2.240 . S
Cd366 O374 2.223 . S
Cd366 O376 2.297 . S
Cd366 O377 2.439 . S
O367 Cd366 2.240 . S
O367 C372 1.279 . S
O368 Cd365 2.297 . S
O368 C370 1.247 . S
O369 Cd365 2.439 . S
O369 C370 1.208 . S
C370 O368 1.247 . S
C370 O369 1.208 . S
C371 O376 1.247 . S
C371 O377 1.208 . S
C372 O364 1.315 . S
C372 O367 1.279 . S
C373 O374 1.315 . S
C373 O375 1.279 . S
O374 Cd366 2.223 . S
O374 C373 1.315 . S
O375 Cd365 2.240 . S
O375 C373 1.279 . S
O376 Cd366 2.297 . S
O376 C371 1.247 . S
O377 Cd366 2.439 . S
O377 C371 1.208 . S
O378 Cd379 2.223 . S
O378 C386 1.315 . S
Cd379 O378 2.223 . S
Cd379 O382 2.297 . S
Cd379 O383 2.439 . S
Cd379 O389 2.240 . S
Cd380 O381 2.240 . S
Cd380 O388 2.223 . S
Cd380 O390 2.297 . S
Cd380 O391 2.439 . S
O381 Cd380 2.240 . S
O381 C386 1.279 . S
O382 Cd379 2.297 . S
O382 C384 1.247 . S
O383 Cd379 2.439 . S
O383 C384 1.208 . S
C384 O382 1.247 . S
C384 O383 1.208 . S
C385 O390 1.247 . S
C385 O391 1.208 . S
C386 O378 1.315 . S
C386 O381 1.279 . S
C387 O388 1.315 . S
C387 O389 1.279 . S
O388 Cd380 2.223 . S
O388 C387 1.315 . S
O389 Cd379 2.240 . S
O389 C387 1.279 . S
O390 Cd380 2.297 . S
O390 C385 1.247 . S
O391 Cd380 2.439 . S
O391 C385 1.208 . S
O392 Cd393 2.223 . S
O392 C400 1.315 . S
Cd393 O392 2.223 . S
Cd393 O396 2.297 . S
Cd393 O397 2.439 . S
Cd393 O403 2.240 . S
Cd394 O395 2.240 . S
Cd394 O402 2.223 . S
Cd394 O404 2.297 . S
Cd394 O405 2.439 . S
O395 Cd394 2.240 . S
O395 C400 1.279 . S
O396 Cd393 2.297 . S
O396 C398 1.247 . S
O397 Cd393 2.439 . S
O397 C398 1.208 . S
C398 O396 1.247 . S
C398 O397 1.208 . S
C399 O404 1.247 . S
C399 O405 1.208 . S
C400 O392 1.315 . S
C400 O395 1.279 . S
C401 O402 1.315 . S
C401 O403 1.279 . S
O402 Cd394 2.223 . S
O402 C401 1.315 . S
O403 Cd393 2.240 . S
O403 C401 1.279 . S
O404 Cd394 2.297 . S
O404 C399 1.247 . S
O405 Cd394 2.439 . S
O405 C399 1.208 . S
O406 Cd407 2.223 . S
O406 C414 1.315 . S
Cd407 O406 2.223 . S
Cd407 O410 2.297 . S
Cd407 O411 2.439 . S
Cd407 O417 2.240 . S
Cd408 O409 2.240 . S
Cd408 O416 2.223 . S
Cd408 O418 2.297 . S
Cd408 O419 2.439 . S
O409 Cd408 2.240 . S
O409 C414 1.279 . S
O410 Cd407 2.297 . S
O410 C412 1.247 . S
O411 Cd407 2.439 . S
O411 C412 1.208 . S
C412 O410 1.247 . S
C412 O411 1.208 . S
C413 O418 1.247 . S
C413 O419 1.208 . S
C414 O406 1.315 . S
C414 O409 1.279 . S
C415 O416 1.315 . S
C415 O417 1.279 . S
O416 Cd408 2.223 . S
O416 C415 1.315 . S
O417 Cd407 2.240 . S
O417 C415 1.279 . S
O418 Cd408 2.297 . S
O418 C413 1.247 . S
O419 Cd408 2.439 . S
O419 C413 1.208 . S
O420 Cd421 2.223 . S
O420 C428 1.315 . S
Cd421 O420 2.223 . S
Cd421 O424 2.297 . S
Cd421 O425 2.439 . S
Cd421 O431 2.240 . S
Cd422 O423 2.240 . S
Cd422 O430 2.223 . S
Cd422 O432 2.297 . S
Cd422 O433 2.439 . S
O423 Cd422 2.240 . S
O423 C428 1.279 . S
O424 Cd421 2.297 . S
O424 C426 1.247 . S
O425 Cd421 2.439 . S
O425 C426 1.208 . S
C426 O424 1.247 . S
C426 O425 1.208 . S
C427 O432 1.247 . S
C427 O433 1.208 . S
C428 O420 1.315 . S
C428 O423 1.279 . S
C429 O430 1.315 . S
C429 O431 1.279 . S
O430 Cd422 2.223 . S
O430 C429 1.315 . S
O431 Cd421 2.240 . S
O431 C429 1.279 . S
O432 Cd422 2.297 . S
O432 C427 1.247 . S
O433 Cd422 2.439 . S
O433 C427 1.208 . S
O434 Cd435 2.223 . S
O434 C442 1.315 . S
Cd435 O434 2.223 . S
Cd435 O438 2.297 . S
Cd435 O439 2.439 . S
Cd435 O445 2.240 . S
Cd436 O437 2.240 . S
Cd436 O444 2.223 . S
Cd436 O446 2.297 . S
Cd436 O447 2.439 . S
O437 Cd436 2.240 . S
O437 C442 1.279 . S
O438 Cd435 2.297 . S
O438 C440 1.247 . S
O439 Cd435 2.439 . S
O439 C440 1.208 . S
C440 O438 1.247 . S
C440 O439 1.208 . S
C441 O446 1.247 . S
C441 O447 1.208 . S
C442 O434 1.315 . S
C442 O437 1.279 . S
C443 O444 1.315 . S
C443 O445 1.279 . S
O444 Cd436 2.223 . S
O444 C443 1.315 . S
O445 Cd435 2.240 . S
O445 C443 1.279 . S
O446 Cd436 2.297 . S
O446 C441 1.247 . S
O447 Cd436 2.439 . S
O447 C441 1.208 . S
O448 Cd449 2.223 . S
O448 C456 1.315 . S
Cd449 O448 2.223 . S
Cd449 O452 2.297 . S
Cd449 O453 2.439 . S
Cd449 O459 2.240 . S
Cd450 O451 2.240 . S
Cd450 O458 2.223 . S
Cd450 O460 2.297 . S
Cd450 O461 2.439 . S
O451 Cd450 2.240 . S
O451 C456 1.279 . S
O452 Cd449 2.297 . S
O452 C454 1.247 . S
O453 Cd449 2.439 . S
O453 C454 1.208 . S
C454 O452 1.247 . S
C454 O453 1.208 . S
C455 O460 1.247 . S
C455 O461 1.208 . S
C456 O448 1.315 . S
C456 O451 1.279 . S
C457 O458 1.315 . S
C457 O459 1.279 . S
O458 Cd450 2.223 . S
O458 C457 1.315 . S
O459 Cd449 2.240 . S
O459 C457 1.279 . S
O460 Cd450 2.297 . S
O460 C455 1.247 . S
O461 Cd450 2.439 . S
O461 C455 1.208 . S
O462 Cd463 2.223 . S
O462 C470 1.315 . S
Cd463 O462 2.223 . S
Cd463 O466 2.297 . S
Cd463 O467 2.439 . S
Cd463 O473 2.240 . S
Cd464 O465 2.240 . S
Cd464 O472 2.223 . S
Cd464 O474 2.297 . S
Cd464 O475 2.439 . S
O465 Cd464 2.240 . S
O465 C470 1.279 . S
O466 Cd463 2.297 . S
O466 C468 1.247 . S
O467 Cd463 2.439 . S
O467 C468 1.208 . S
C468 O466 1.247 . S
C468 O467 1.208 . S
C469 O474 1.247 . S
C469 O475 1.208 . S
C470 O462 1.315 . S
C470 O465 1.279 . S
C471 O472 1.315 . S
C471 O473 1.279 . S
O472 Cd464 2.223 . S
O472 C471 1.315 . S
O473 Cd463 2.240 . S
O473 C471 1.279 . S
O474 Cd464 2.297 . S
O474 C469 1.247 . S
O475 Cd464 2.439 . S
O475 C469 1.208 . S
O476 Cd477 2.223 . S
O476 C484 1.315 . S
Cd477 O476 2.223 . S
Cd477 O480 2.297 . S
Cd477 O481 2.439 . S
Cd477 O487 2.240 . S
Cd478 O479 2.240 . S
Cd478 O486 2.223 . S
Cd478 O488 2.297 . S
Cd478 O489 2.439 . S
O479 Cd478 2.240 . S
O479 C484 1.279 . S
O480 Cd477 2.297 . S
O480 C482 1.247 . S
O481 Cd477 2.439 . S
O481 C482 1.208 . S
C482 O480 1.247 . S
C482 O481 1.208 . S
C483 O488 1.247 . S
C483 O489 1.208 . S
C484 O476 1.315 . S
C484 O479 1.279 . S
C485 O486 1.315 . S
C485 O487 1.279 . S
O486 Cd478 2.223 . S
O486 C485 1.315 . S
O487 Cd477 2.240 . S
O487 C485 1.279 . S
O488 Cd478 2.297 . S
O488 C483 1.247 . S
O489 Cd478 2.439 . S
O489 C483 1.208 . S
O490 Cd491 2.223 . S
O490 C498 1.315 . S
Cd491 O490 2.223 . S
Cd491 O494 2.297 . S
Cd491 O495 2.439 . S
Cd491 O501 2.240 . S
Cd492 O493 2.240 . S
Cd492 O500 2.223 . S
Cd492 O502 2.297 . S
Cd492 O503 2.439 . S
O493 Cd492 2.240 . S
O493 C498 1.279 . S
O494 Cd491 2.297 . S
O494 C496 1.247 . S
O495 Cd491 2.439 . S
O495 C496 1.208 . S
C496 O494 1.247 . S
C496 O495 1.208 . S
C497 O502 1.247 . S
C497 O503 1.208 . S
C498 O490 1.315 . S
C498 O493 1.279 . S
C499 O500 1.315 . S
C499 O501 1.279 . S
O500 Cd492 2.223 . S
O500 C499 1.315 . S
O501 Cd491 2.240 . S
O501 C499 1.279 . S
O502 Cd492 2.297 . S
O502 C497 1.247 . S
O503 Cd492 2.439 . S
O503 C497 1.208 . S
O504 Cd505 2.223 . S
O504 C512 1.315 . S
Cd505 O504 2.223 . S
Cd505 O508 2.297 . S
Cd505 O509 2.439 . S
Cd505 O515 2.240 . S
Cd506 O507 2.240 . S
Cd506 O514 2.223 . S
Cd506 O516 2.297 . S
Cd506 O517 2.439 . S
O507 Cd506 2.240 . S
O507 C512 1.279 . S
O508 Cd505 2.297 . S
O508 C510 1.247 . S
O509 Cd505 2.439 . S
O509 C510 1.208 . S
C510 O508 1.247 . S
C510 O509 1.208 . S
C511 O516 1.247 . S
C511 O517 1.208 . S
C512 O504 1.315 . S
C512 O507 1.279 . S
C513 O514 1.315 . S
C513 O515 1.279 . S
O514 Cd506 2.223 . S
O514 C513 1.315 . S
O515 Cd505 2.240 . S
O515 C513 1.279 . S
O516 Cd506 2.297 . S
O516 C511 1.247 . S
O517 Cd506 2.439 . S
O517 C511 1.208 . S
O518 Cd519 2.223 . S
O518 C526 1.315 . S
Cd519 O518 2.223 . S
Cd519 O522 2.297 . S
Cd519 O523 2.439 . S
Cd519 O529 2.240 . S
Cd520 O521 2.240 . S
Cd520 O528 2.223 . S
Cd520 O530 2.297 . S
Cd520 O531 2.439 . S
O521 Cd520 2.240 . S
O521 C526 1.279 . S
O522 Cd519 2.297 . S
O522 C524 1.247 . S
O523 Cd519 2.439 . S
O523 C524 1.208 . S
C524 O522 1.247 . S
C524 O523 1.208 . S
C525 O530 1.247 . S
C525 O531 1.208 . S
C526 O518 1.315 . S
C526 O521 1.279 . S
C527 O528 1.315 . S
C527 O529 1.279 . S
O528 Cd520 2.223 . S
O528 C527 1.315 . S
O529 Cd519 2.240 . S
O529 C527 1.279 . S
O530 Cd520 2.297 . S
O530 C525 1.247 . S
O531 Cd520 2.439 . S
O531 C525 1.208 . S
O532 Cd533 2.223 . S
O532 C540 1.315 . S
Cd533 O532 2.223 . S
Cd533 O536 2.297 . S
Cd533 O537 2.439 . S
Cd533 O543 2.240 . S
Cd534 O535 2.240 . S
Cd534 O542 2.223 . S
Cd534 O544 2.297 . S
Cd534 O545 2.439 . S
O535 Cd534 2.240 . S
O535 C540 1.279 . S
O536 Cd533 2.297 . S
O536 C538 1.247 . S
O537 Cd533 2.439 . S
O537 C538 1.208 . S
C538 O536 1.247 . S
C538 O537 1.208 . S
C539 O544 1.247 . S
C539 O545 1.208 . S
C540 O532 1.315 . S
C540 O535 1.279 . S
C541 O542 1.315 . S
C541 O543 1.279 . S
O542 Cd534 2.223 . S
O542 C541 1.315 . S
O543 Cd533 2.240 . S
O543 C541 1.279 . S
O544 Cd534 2.297 . S
O544 C539 1.247 . S
O545 Cd534 2.439 . S
O545 C539 1.208 . S
O546 Cd547 2.223 . S
O546 C554 1.315 . S
Cd547 O546 2.223 . S
Cd547 O550 2.297 . S
Cd547 O551 2.439 . S
Cd547 O557 2.240 . S
Cd548 O549 2.240 . S
Cd548 O556 2.223 . S
Cd548 O558 2.297 . S
Cd548 O559 2.439 . S
O549 Cd548 2.240 . S
O549 C554 1.279 . S
O550 Cd547 2.297 . S
O550 C552 1.247 . S
O551 Cd547 2.439 . S
O551 C552 1.208 . S
C552 O550 1.247 . S
C552 O551 1.208 . S
C553 O558 1.247 . S
C553 O559 1.208 . S
C554 O546 1.315 . S
C554 O549 1.279 . S
C555 O556 1.315 . S
C555 O557 1.279 . S
O556 Cd548 2.223 . S
O556 C555 1.315 . S
O557 Cd547 2.240 . S
O557 C555 1.279 . S
O558 Cd548 2.297 . S
O558 C553 1.247 . S
O559 Cd548 2.439 . S
O559 C553 1.208 . S
O560 Cd561 2.223 . S
O560 C568 1.315 . S
Cd561 O560 2.223 . S
Cd561 O564 2.297 . S
Cd561 O565 2.439 . S
Cd561 O571 2.240 . S
Cd562 O563 2.240 . S
Cd562 O570 2.223 . S
Cd562 O572 2.297 . S
Cd562 O573 2.439 . S
O563 Cd562 2.240 . S
O563 C568 1.279 . S
O564 Cd561 2.297 . S
O564 C566 1.247 . S
O565 Cd561 2.439 . S
O565 C566 1.208 . S
C566 O564 1.247 . S
C566 O565 1.208 . S
C567 O572 1.247 . S
C567 O573 1.208 . S
C568 O560 1.315 . S
C568 O563 1.279 . S
C569 O570 1.315 . S
C569 O571 1.279 . S
O570 Cd562 2.223 . S
O570 C569 1.315 . S
O571 Cd561 2.240 . S
O571 C569 1.279 . S
O572 Cd562 2.297 . S
O572 C567 1.247 . S
O573 Cd562 2.439 . S
O573 C567 1.208 . S
O574 Cd575 2.223 . S
O574 C582 1.315 . S
Cd575 O574 2.223 . S
Cd575 O578 2.297 . S
Cd575 O579 2.439 . S
Cd575 O585 2.240 . S
Cd576 O577 2.240 . S
Cd576 O584 2.223 . S
Cd576 O586 2.297 . S
Cd576 O587 2.439 . S
O577 Cd576 2.240 . S
O577 C582 1.279 . S
O578 Cd575 2.297 . S
O578 C580 1.247 . S
O579 Cd575 2.439 . S
O579 C580 1.208 . S
C580 O578 1.247 . S
C580 O579 1.208 . S
C581 O586 1.247 . S
C581 O587 1.208 . S
C582 O574 1.315 . S
C582 O577 1.279 . S
C583 O584 1.315 . S
C583 O585 1.279 . S
O584 Cd576 2.223 . S
O584 C583 1.315 . S
O585 Cd575 2.240 . S
O585 C583 1.279 . S
O586 Cd576 2.297 . S
O586 C581 1.247 . S
O587 Cd576 2.439 . S
O587 C581 1.208 . S
O588 Cd589 2.223 . S
O588 C596 1.315 . S
Cd589 O588 2.223 . S
Cd589 O592 2.297 . S
Cd589 O593 2.439 . S
Cd589 O599 2.240 . S
Cd590 O591 2.240 . S
Cd590 O598 2.223 . S
Cd590 O600 2.297 . S
Cd590 O601 2.439 . S
O591 Cd590 2.240 . S
O591 C596 1.279 . S
O592 Cd589 2.297 . S
O592 C594 1.247 . S
O593 Cd589 2.439 . S
O593 C594 1.208 . S
C594 O592 1.247 . S
C594 O593 1.208 . S
C595 O600 1.247 . S
C595 O601 1.208 . S
C596 O588 1.315 . S
C596 O591 1.279 . S
C597 O598 1.315 . S
C597 O599 1.279 . S
O598 Cd590 2.223 . S
O598 C597 1.315 . S
O599 Cd589 2.240 . S
O599 C597 1.279 . S
O600 Cd590 2.297 . S
O600 C595 1.247 . S
O601 Cd590 2.439 . S
O601 C595 1.208 . S
O602 Cd603 2.223 . S
O602 C610 1.315 . S
Cd603 O602 2.223 . S
Cd603 O606 2.297 . S
Cd603 O607 2.439 . S
Cd603 O613 2.240 . S
Cd604 O605 2.240 . S
Cd604 O612 2.223 . S
Cd604 O614 2.297 . S
Cd604 O615 2.439 . S
O605 Cd604 2.240 . S
O605 C610 1.279 . S
O606 Cd603 2.297 . S
O606 C608 1.247 . S
O607 Cd603 2.439 . S
O607 C608 1.208 . S
C608 O606 1.247 . S
C608 O607 1.208 . S
C609 O614 1.247 . S
C609 O615 1.208 . S
C610 O602 1.315 . S
C610 O605 1.279 . S
C611 O612 1.315 . S
C611 O613 1.279 . S
O612 Cd604 2.223 . S
O612 C611 1.315 . S
O613 Cd603 2.240 . S
O613 C611 1.279 . S
O614 Cd604 2.297 . S
O614 C609 1.247 . S
O615 Cd604 2.439 . S
O615 C609 1.208 . S
O616 Cd617 2.223 . S
O616 C624 1.315 . S
Cd617 O616 2.223 . S
Cd617 O620 2.297 . S
Cd617 O621 2.439 . S
Cd617 O627 2.240 . S
Cd618 O619 2.240 . S
Cd618 O626 2.223 . S
Cd618 O628 2.297 . S
Cd618 O629 2.439 . S
O619 Cd618 2.240 . S
O619 C624 1.279 . S
O620 Cd617 2.297 . S
O620 C622 1.247 . S
O621 Cd617 2.439 . S
O621 C622 1.208 . S
C622 O620 1.247 . S
C622 O621 1.208 . S
C623 O628 1.247 . S
C623 O629 1.208 . S
C624 O616 1.315 . S
C624 O619 1.279 . S
C625 O626 1.315 . S
C625 O627 1.279 . S
O626 Cd618 2.223 . S
O626 C625 1.315 . S
O627 Cd617 2.240 . S
O627 C625 1.279 . S
O628 Cd618 2.297 . S
O628 C623 1.247 . S
O629 Cd618 2.439 . S
O629 C623 1.208 . S
O630 Cd631 2.223 . S
O630 C638 1.315 . S
Cd631 O630 2.223 . S
Cd631 O634 2.297 . S
Cd631 O635 2.439 . S
Cd631 O641 2.240 . S
Cd632 O633 2.240 . S
Cd632 O640 2.223 . S
Cd632 O642 2.297 . S
Cd632 O643 2.439 . S
O633 Cd632 2.240 . S
O633 C638 1.279 . S
O634 Cd631 2.297 . S
O634 C636 1.247 . S
O635 Cd631 2.439 . S
O635 C636 1.208 . S
C636 O634 1.247 . S
C636 O635 1.208 . S
C637 O642 1.247 . S
C637 O643 1.208 . S
C638 O630 1.315 . S
C638 O633 1.279 . S
C639 O640 1.315 . S
C639 O641 1.279 . S
O640 Cd632 2.223 . S
O640 C639 1.315 . S
O641 Cd631 2.240 . S
O641 C639 1.279 . S
O642 Cd632 2.297 . S
O642 C637 1.247 . S
O643 Cd632 2.439 . S
O643 C637 1.208 . S
O644 Cd645 2.223 . S
O644 C652 1.315 . S
Cd645 O644 2.223 . S
Cd645 O648 2.297 . S
Cd645 O649 2.439 . S
Cd645 O655 2.240 . S
Cd646 O647 2.240 . S
Cd646 O654 2.223 . S
Cd646 O656 2.297 . S
Cd646 O657 2.439 . S
O647 Cd646 2.240 . S
O647 C652 1.279 . S
O648 Cd645 2.297 . S
O648 C650 1.247 . S
O649 Cd645 2.439 . S
O649 C650 1.208 . S
C650 O648 1.247 . S
C650 O649 1.208 . S
C651 O656 1.247 . S
C651 O657 1.208 . S
C652 O644 1.315 . S
C652 O647 1.279 . S
C653 O654 1.315 . S
C653 O655 1.279 . S
O654 Cd646 2.223 . S
O654 C653 1.315 . S
O655 Cd645 2.240 . S
O655 C653 1.279 . S
O656 Cd646 2.297 . S
O656 C651 1.247 . S
O657 Cd646 2.439 . S
O657 C651 1.208 . S
O658 Cd659 2.223 . S
O658 C666 1.315 . S
Cd659 O658 2.223 . S
Cd659 O662 2.297 . S
Cd659 O663 2.439 . S
Cd659 O669 2.240 . S
Cd660 O661 2.240 . S
Cd660 O668 2.223 . S
Cd660 O670 2.297 . S
Cd660 O671 2.439 . S
O661 Cd660 2.240 . S
O661 C666 1.279 . S
O662 Cd659 2.297 . S
O662 C664 1.247 . S
O663 Cd659 2.439 . S
O663 C664 1.208 . S
C664 O662 1.247 . S
C664 O663 1.208 . S
C665 O670 1.247 . S
C665 O671 1.208 . S
C666 O658 1.315 . S
C666 O661 1.279 . S
C667 O668 1.315 . S
C667 O669 1.279 . S
O668 Cd660 2.223 . S
O668 C667 1.315 . S
O669 Cd659 2.240 . S
O669 C667 1.279 . S
O670 Cd660 2.297 . S
O670 C665 1.247 . S
O671 Cd660 2.439 . S
O671 C665 1.208 . S
O672 Cd673 2.223 . S
O672 C680 1.315 . S
Cd673 O672 2.223 . S
Cd673 O676 2.297 . S
Cd673 O677 2.439 . S
Cd673 O683 2.240 . S
Cd674 O675 2.240 . S
Cd674 O682 2.223 . S
Cd674 O684 2.297 . S
Cd674 O685 2.439 . S
O675 Cd674 2.240 . S
O675 C680 1.279 . S
O676 Cd673 2.297 . S
O676 C678 1.247 . S
O677 Cd673 2.439 . S
O677 C678 1.208 . S
C678 O676 1.247 . S
C678 O677 1.208 . S
C679 O684 1.247 . S
C679 O685 1.208 . S
C680 O672 1.315 . S
C680 O675 1.279 . S
C681 O682 1.315 . S
C681 O683 1.279 . S
O682 Cd674 2.223 . S
O682 C681 1.315 . S
O683 Cd673 2.240 . S
O683 C681 1.279 . S
O684 Cd674 2.297 . S
O684 C679 1.247 . S
O685 Cd674 2.439 . S
O685 C679 1.208 . S
O686 Cd687 2.223 . S
O686 C694 1.315 . S
Cd687 O686 2.223 . S
Cd687 O690 2.297 . S
Cd687 O691 2.439 . S
Cd687 O697 2.240 . S
Cd688 O689 2.240 . S
Cd688 O696 2.223 . S
Cd688 O698 2.297 . S
Cd688 O699 2.439 . S
O689 Cd688 2.240 . S
O689 C694 1.279 . S
O690 Cd687 2.297 . S
O690 C692 1.247 . S
O691 Cd687 2.439 . S
O691 C692 1.208 . S
C692 O690 1.247 . S
C692 O691 1.208 . S
C693 O698 1.247 . S
C693 O699 1.208 . S
C694 O686 1.315 . S
C694 O689 1.279 . S
C695 O696 1.315 . S
C695 O697 1.279 . S
O696 Cd688 2.223 . S
O696 C695 1.315 . S
O697 Cd687 2.240 . S
O697 C695 1.279 . S
O698 Cd688 2.297 . S
O698 C693 1.247 . S
O699 Cd688 2.439 . S
O699 C693 1.208 . S
O700 Cd701 2.223 . S
O700 C708 1.315 . S
Cd701 O700 2.223 . S
Cd701 O704 2.297 . S
Cd701 O705 2.439 . S
Cd701 O711 2.240 . S
Cd702 O703 2.240 . S
Cd702 O710 2.223 . S
Cd702 O712 2.297 . S
Cd702 O713 2.439 . S
O703 Cd702 2.240 . S
O703 C708 1.279 . S
O704 Cd701 2.297 . S
O704 C706 1.247 . S
O705 Cd701 2.439 . S
O705 C706 1.208 . S
C706 O704 1.247 . S
C706 O705 1.208 . S
C707 O712 1.247 . S
C707 O713 1.208 . S
C708 O700 1.315 . S
C708 O703 1.279 . S
C709 O710 1.315 . S
C709 O711 1.279 . S
O710 Cd702 2.223 . S
O710 C709 1.315 . S
O711 Cd701 2.240 . S
O711 C709 1.279 . S
O712 Cd702 2.297 . S
O712 C707 1.247 . S
O713 Cd702 2.439 . S
O713 C707 1.208 . S
O714 Cd715 2.223 . S
O714 C722 1.315 . S
Cd715 O714 2.223 . S
Cd715 O718 2.297 . S
Cd715 O719 2.439 . S
Cd715 O725 2.240 . S
Cd716 O717 2.240 . S
Cd716 O724 2.223 . S
Cd716 O726 2.297 . S
Cd716 O727 2.439 . S
O717 Cd716 2.240 . S
O717 C722 1.279 . S
O718 Cd715 2.297 . S
O718 C720 1.247 . S
O719 Cd715 2.439 . S
O719 C720 1.208 . S
C720 O718 1.247 . S
C720 O719 1.208 . S
C721 O726 1.247 . S
C721 O727 1.208 . S
C722 O714 1.315 . S
C722 O717 1.279 . S
C723 O724 1.315 . S
C723 O725 1.279 . S
O724 Cd716 2.223 . S
O724 C723 1.315 . S
O725 Cd715 2.240 . S
O725 C723 1.279 . S
O726 Cd716 2.297 . S
O726 C721 1.247 . S
O727 Cd716 2.439 . S
O727 C721 1.208 . S
O728 Cd729 2.223 . S
O728 C736 1.315 . S
Cd729 O728 2.223 . S
Cd729 O732 2.297 . S
Cd729 O733 2.439 . S
Cd729 O739 2.240 . S
Cd730 O731 2.240 . S
Cd730 O738 2.223 . S
Cd730 O740 2.297 . S
Cd730 O741 2.439 . S
O731 Cd730 2.240 . S
O731 C736 1.279 . S
O732 Cd729 2.297 . S
O732 C734 1.247 . S
O733 Cd729 2.439 . S
O733 C734 1.208 . S
C734 O732 1.247 . S
C734 O733 1.208 . S
C735 O740 1.247 . S
C735 O741 1.208 . S
C736 O728 1.315 . S
C736 O731 1.279 . S
C737 O738 1.315 . S
C737 O739 1.279 . S
O738 Cd730 2.223 . S
O738 C737 1.315 . S
O739 Cd729 2.240 . S
O739 C737 1.279 . S
O740 Cd730 2.297 . S
O740 C735 1.247 . S
O741 Cd730 2.439 . S
O741 C735 1.208 . S
O742 Cd743 2.223 . S
O742 C750 1.315 . S
Cd743 O742 2.223 . S
Cd743 O746 2.297 . S
Cd743 O747 2.439 . S
Cd743 O753 2.240 . S
Cd744 O745 2.240 . S
Cd744 O752 2.223 . S
Cd744 O754 2.297 . S
Cd744 O755 2.439 . S
O745 Cd744 2.240 . S
O745 C750 1.279 . S
O746 Cd743 2.297 . S
O746 C748 1.247 . S
O747 Cd743 2.439 . S
O747 C748 1.208 . S
C748 O746 1.247 . S
C748 O747 1.208 . S
C749 O754 1.247 . S
C749 O755 1.208 . S
C750 O742 1.315 . S
C750 O745 1.279 . S
C751 O752 1.315 . S
C751 O753 1.279 . S
O752 Cd744 2.223 . S
O752 C751 1.315 . S
O753 Cd743 2.240 . S
O753 C751 1.279 . S
O754 Cd744 2.297 . S
O754 C749 1.247 . S
O755 Cd744 2.439 . S
O755 C749 1.208 . S
O756 Cd757 2.223 . S
O756 C764 1.315 . S
Cd757 O756 2.223 . S
Cd757 O760 2.297 . S
Cd757 O761 2.439 . S
Cd757 O767 2.240 . S
Cd758 O759 2.240 . S
Cd758 O766 2.223 . S
Cd758 O768 2.297 . S
Cd758 O769 2.439 . S
O759 Cd758 2.240 . S
O759 C764 1.279 . S
O760 Cd757 2.297 . S
O760 C762 1.247 . S
O761 Cd757 2.439 . S
O761 C762 1.208 . S
C762 O760 1.247 . S
C762 O761 1.208 . S
C763 O768 1.247 . S
C763 O769 1.208 . S
C764 O756 1.315 . S
C764 O759 1.279 . S
C765 O766 1.315 . S
C765 O767 1.279 . S
O766 Cd758 2.223 . S
O766 C765 1.315 . S
O767 Cd757 2.240 . S
O767 C765 1.279 . S
O768 Cd758 2.297 . S
O768 C763 1.247 . S
O769 Cd758 2.439 . S
O769 C763 1.208 . S
O770 Cd771 2.223 . S
O770 C778 1.315 . S
Cd771 O770 2.223 . S
Cd771 O774 2.297 . S
Cd771 O775 2.439 . S
Cd771 O781 2.240 . S
Cd772 O773 2.240 . S
Cd772 O780 2.223 . S
Cd772 O782 2.297 . S
Cd772 O783 2.439 . S
O773 Cd772 2.240 . S
O773 C778 1.279 . S
O774 Cd771 2.297 . S
O774 C776 1.247 . S
O775 Cd771 2.439 . S
O775 C776 1.208 . S
C776 O774 1.247 . S
C776 O775 1.208 . S
C777 O782 1.247 . S
C777 O783 1.208 . S
C778 O770 1.315 . S
C778 O773 1.279 . S
C779 O780 1.315 . S
C779 O781 1.279 . S
O780 Cd772 2.223 . S
O780 C779 1.315 . S
O781 Cd771 2.240 . S
O781 C779 1.279 . S
O782 Cd772 2.297 . S
O782 C777 1.247 . S
O783 Cd772 2.439 . S
O783 C777 1.208 . S
O784 Cd785 2.223 . S
O784 C792 1.315 . S
Cd785 O784 2.223 . S
Cd785 O788 2.297 . S
Cd785 O789 2.439 . S
Cd785 O795 2.240 . S
Cd786 O787 2.240 . S
Cd786 O794 2.223 . S
Cd786 O796 2.297 . S
Cd786 O797 2.439 . S
O787 Cd786 2.240 . S
O787 C792 1.279 . S
O788 Cd785 2.297 . S
O788 C790 1.247 . S
O789 Cd785 2.439 . S
O789 C790 1.208 . S
C790 O788 1.247 . S
C790 O789 1.208 . S
C791 O796 1.247 . S
C791 O797 1.208 . S
C792 O784 1.315 . S
C792 O787 1.279 . S
C793 O794 1.315 . S
C793 O795 1.279 . S
O794 Cd786 2.223 . S
O794 C793 1.315 . S
O795 Cd785 2.240 . S
O795 C793 1.279 . S
O796 Cd786 2.297 . S
O796 C791 1.247 . S
O797 Cd786 2.439 . S
O797 C791 1.208 . S
O798 Cd799 2.223 . S
O798 C806 1.315 . S
Cd799 O798 2.223 . S
Cd799 O802 2.297 . S
Cd799 O803 2.439 . S
Cd799 O809 2.240 . S
Cd800 O801 2.240 . S
Cd800 O808 2.223 . S
Cd800 O810 2.297 . S
Cd800 O811 2.439 . S
O801 Cd800 2.240 . S
O801 C806 1.279 . S
O802 Cd799 2.297 . S
O802 C804 1.247 . S
O803 Cd799 2.439 . S
O803 C804 1.208 . S
C804 O802 1.247 . S
C804 O803 1.208 . S
C805 O810 1.247 . S
C805 O811 1.208 . S
C806 O798 1.315 . S
C806 O801 1.279 . S
C807 O808 1.315 . S
C807 O809 1.279 . S
O808 Cd800 2.223 . S
O808 C807 1.315 . S
O809 Cd799 2.240 . S
O809 C807 1.279 . S
O810 Cd800 2.297 . S
O810 C805 1.247 . S
O811 Cd800 2.439 . S
O811 C805 1.208 . S
O812 Cd813 2.223 . S
O812 C820 1.315 . S
Cd813 O812 2.223 . S
Cd813 O816 2.297 . S
Cd813 O817 2.439 . S
Cd813 O823 2.240 . S
Cd814 O815 2.240 . S
Cd814 O822 2.223 . S
Cd814 O824 2.297 . S
Cd814 O825 2.439 . S
O815 Cd814 2.240 . S
O815 C820 1.279 . S
O816 Cd813 2.297 . S
O816 C818 1.247 . S
O817 Cd813 2.439 . S
O817 C818 1.208 . S
C818 O816 1.247 . S
C818 O817 1.208 . S
C819 O824 1.247 . S
C819 O825 1.208 . S
C820 O812 1.315 . S
C820 O815 1.279 . S
C821 O822 1.315 . S
C821 O823 1.279 . S
O822 Cd814 2.223 . S
O822 C821 1.315 . S
O823 Cd813 2.240 . S
O823 C821 1.279 . S
O824 Cd814 2.297 . S
O824 C819 1.247 . S
O825 Cd814 2.439 . S
O825 C819 1.208 . S
O826 Cd827 2.223 . S
O826 C834 1.315 . S
Cd827 O826 2.223 . S
Cd827 O830 2.297 . S
Cd827 O831 2.439 . S
Cd827 O837 2.240 . S
Cd828 O829 2.240 . S
Cd828 O836 2.223 . S
Cd828 O838 2.297 . S
Cd828 O839 2.439 . S
O829 Cd828 2.240 . S
O829 C834 1.279 . S
O830 Cd827 2.297 . S
O830 C832 1.247 . S
O831 Cd827 2.439 . S
O831 C832 1.208 . S
C832 O830 1.247 . S
C832 O831 1.208 . S
C833 O838 1.247 . S
C833 O839 1.208 . S
C834 O826 1.315 . S
C834 O829 1.279 . S
C835 O836 1.315 . S
C835 O837 1.279 . S
O836 Cd828 2.223 . S
O836 C835 1.315 . S
O837 Cd827 2.240 . S
O837 C835 1.279 . S
O838 Cd828 2.297 . S
O838 C833 1.247 . S
O839 Cd828 2.439 . S
O839 C833 1.208 . S
O840 Cd841 2.223 . S
O840 C848 1.315 . S
Cd841 O840 2.223 . S
Cd841 O844 2.297 . S
Cd841 O845 2.439 . S
Cd841 O851 2.240 . S
Cd842 O843 2.240 . S
Cd842 O850 2.223 . S
Cd842 O852 2.297 . S
Cd842 O853 2.439 . S
O843 Cd842 2.240 . S
O843 C848 1.279 . S
O844 Cd841 2.297 . S
O844 C846 1.247 . S
O845 Cd841 2.439 . S
O845 C846 1.208 . S
C846 O844 1.247 . S
C846 O845 1.208 . S
C847 O852 1.247 . S
C847 O853 1.208 . S
C848 O840 1.315 . S
C848 O843 1.279 . S
C849 O850 1.315 . S
C849 O851 1.279 . S
O850 Cd842 2.223 . S
O850 C849 1.315 . S
O851 Cd841 2.240 . S
O851 C849 1.279 . S
O852 Cd842 2.297 . S
O852 C847 1.247 . S
O853 Cd842 2.439 . S
O853 C847 1.208 . S
O854 Cd855 2.223 . S
O854 C862 1.315 . S
Cd855 O854 2.223 . S
Cd855 O858 2.297 . S
Cd855 O859 2.439 . S
Cd855 O865 2.240 . S
Cd856 O857 2.240 . S
Cd856 O864 2.223 . S
Cd856 O866 2.297 . S
Cd856 O867 2.439 . S
O857 Cd856 2.240 . S
O857 C862 1.279 . S
O858 Cd855 2.297 . S
O858 C860 1.247 . S
O859 Cd855 2.439 . S
O859 C860 1.208 . S
C860 O858 1.247 . S
C860 O859 1.208 . S
C861 O866 1.247 . S
C861 O867 1.208 . S
C862 O854 1.315 . S
C862 O857 1.279 . S
C863 O864 1.315 . S
C863 O865 1.279 . S
O864 Cd856 2.223 . S
O864 C863 1.315 . S
O865 Cd855 2.240 . S
O865 C863 1.279 . S
O866 Cd856 2.297 . S
O866 C861 1.247 . S
O867 Cd856 2.439 . S
O867 C861 1.208 . S
O868 Cd869 2.223 . S
O868 C876 1.315 . S
Cd869 O868 2.223 . S
Cd869 O872 2.297 . S
Cd869 O873 2.439 . S
Cd869 O879 2.240 . S
Cd870 O871 2.240 . S
Cd870 O878 2.223 . S
Cd870 O880 2.297 . S
Cd870 O881 2.439 . S
O871 Cd870 2.240 . S
O871 C876 1.279 . S
O872 Cd869 2.297 . S
O872 C874 1.247 . S
O873 Cd869 2.439 . S
O873 C874 1.208 . S
C874 O872 1.247 . S
C874 O873 1.208 . S
C875 O880 1.247 . S
C875 O881 1.208 . S
C876 O868 1.315 . S
C876 O871 1.279 . S
C877 O878 1.315 . S
C877 O879 1.279 . S
O878 Cd870 2.223 . S
O878 C877 1.315 . S
O879 Cd869 2.240 . S
O879 C877 1.279 . S
O880 Cd870 2.297 . S
O880 C875 1.247 . S
O881 Cd870 2.439 . S
O881 C875 1.208 . S
O882 Cd883 2.223 . S
O882 C890 1.315 . S
Cd883 O882 2.223 . S
Cd883 O886 2.297 . S
Cd883 O887 2.439 . S
Cd883 O893 2.240 . S
Cd884 O885 2.240 . S
Cd884 O892 2.223 . S
Cd884 O894 2.297 . S
Cd884 O895 2.439 . S
O885 Cd884 2.240 . S
O885 C890 1.279 . S
O886 Cd883 2.297 . S
O886 C888 1.247 . S
O887 Cd883 2.439 . S
O887 C888 1.208 . S
C888 O886 1.247 . S
C888 O887 1.208 . S
C889 O894 1.247 . S
C889 O895 1.208 . S
C890 O882 1.315 . S
C890 O885 1.279 . S
C891 O892 1.315 . S
C891 O893 1.279 . S
O892 Cd884 2.223 . S
O892 C891 1.315 . S
O893 Cd883 2.240 . S
O893 C891 1.279 . S
O894 Cd884 2.297 . S
O894 C889 1.247 . S
O895 Cd884 2.439 . S
O895 C889 1.208 . S
O896 Cd897 2.223 . S
O896 C904 1.315 . S
Cd897 O896 2.223 . S
Cd897 O900 2.297 . S
Cd897 O901 2.439 . S
Cd897 O907 2.240 . S
Cd898 O899 2.240 . S
Cd898 O906 2.223 . S
Cd898 O908 2.297 . S
Cd898 O909 2.439 . S
O899 Cd898 2.240 . S
O899 C904 1.279 . S
O900 Cd897 2.297 . S
O900 C902 1.247 . S
O901 Cd897 2.439 . S
O901 C902 1.208 . S
C902 O900 1.247 . S
C902 O901 1.208 . S
C903 O908 1.247 . S
C903 O909 1.208 . S
C904 O896 1.315 . S
C904 O899 1.279 . S
C905 O906 1.315 . S
C905 O907 1.279 . S
O906 Cd898 2.223 . S
O906 C905 1.315 . S
O907 Cd897 2.240 . S
O907 C905 1.279 . S
O908 Cd898 2.297 . S
O908 C903 1.247 . S
O909 Cd898 2.439 . S
O909 C903 1.208 . S
O910 Cd911 2.223 . S
O910 C918 1.315 . S
Cd911 O910 2.223 . S
Cd911 O914 2.297 . S
Cd911 O915 2.439 . S
Cd911 O921 2.240 . S
Cd912 O913 2.240 . S
Cd912 O920 2.223 . S
Cd912 O922 2.297 . S
Cd912 O923 2.439 . S
O913 Cd912 2.240 . S
O913 C918 1.279 . S
O914 Cd911 2.297 . S
O914 C916 1.247 . S
O915 Cd911 2.439 . S
O915 C916 1.208 . S
C916 O914 1.247 . S
C916 O915 1.208 . S
C917 O922 1.247 . S
C917 O923 1.208 . S
C918 O910 1.315 . S
C918 O913 1.279 . S
C919 O920 1.315 . S
C919 O921 1.279 . S
O920 Cd912 2.223 . S
O920 C919 1.315 . S
O921 Cd911 2.240 . S
O921 C919 1.279 . S
O922 Cd912 2.297 . S
O922 C917 1.247 . S
O923 Cd912 2.439 . S
O923 C917 1.208 . S
O924 Cd925 2.223 . S
O924 C932 1.315 . S
Cd925 O924 2.223 . S
Cd925 O928 2.297 . S
Cd925 O929 2.439 . S
Cd925 O935 2.240 . S
Cd926 O927 2.240 . S
Cd926 O934 2.223 . S
Cd926 O936 2.297 . S
Cd926 O937 2.439 . S
O927 Cd926 2.240 . S
O927 C932 1.279 . S
O928 Cd925 2.297 . S
O928 C930 1.247 . S
O929 Cd925 2.439 . S
O929 C930 1.208 . S
C930 O928 1.247 . S
C930 O929 1.208 . S
C931 O936 1.247 . S
C931 O937 1.208 . S
C932 O924 1.315 . S
C932 O927 1.279 . S
C933 O934 1.315 . S
C933 O935 1.279 . S
O934 Cd926 2.223 . S
O934 C933 1.315 . S
O935 Cd925 2.240 . S
O935 C933 1.279 . S
O936 Cd926 2.297 . S
O936 C931 1.247 . S
O937 Cd926 2.439 . S
O937 C931 1.208 . S
O938 Cd939 2.223 . S
O938 C946 1.315 . S
Cd939 O938 2.223 . S
Cd939 O942 2.297 . S
Cd939 O943 2.439 . S
Cd939 O949 2.240 . S
Cd940 O941 2.240 . S
Cd940 O948 2.223 . S
Cd940 O950 2.297 . S
Cd940 O951 2.439 . S
O941 Cd940 2.240 . S
O941 C946 1.279 . S
O942 Cd939 2.297 . S
O942 C944 1.247 . S
O943 Cd939 2.439 . S
O943 C944 1.208 . S
C944 O942 1.247 . S
C944 O943 1.208 . S
C945 O950 1.247 . S
C945 O951 1.208 . S
C946 O938 1.315 . S
C946 O941 1.279 . S
C947 O948 1.315 . S
C947 O949 1.279 . S
O948 Cd940 2.223 . S
O948 C947 1.315 . S
O949 Cd939 2.240 . S
O949 C947 1.279 . S
O950 Cd940 2.297 . S
O950 C945 1.247 . S
O951 Cd940 2.439 . S
O951 C945 1.208 . S
O952 Cd953 2.223 . S
O952 C960 1.315 . S
Cd953 O952 2.223 . S
Cd953 O956 2.297 . S
Cd953 O957 2.439 . S
Cd953 O963 2.240 . S
Cd954 O955 2.240 . S
Cd954 O962 2.223 . S
Cd954 O964 2.297 . S
Cd954 O965 2.439 . S
O955 Cd954 2.240 . S
O955 C960 1.279 . S
O956 Cd953 2.297 . S
O956 C958 1.247 . S
O957 Cd953 2.439 . S
O957 C958 1.208 . S
C958 O956 1.247 . S
C958 O957 1.208 . S
C959 O964 1.247 . S
C959 O965 1.208 . S
C960 O952 1.315 . S
C960 O955 1.279 . S
C961 O962 1.315 . S
C961 O963 1.279 . S
O962 Cd954 2.223 . S
O962 C961 1.315 . S
O963 Cd953 2.240 . S
O963 C961 1.279 . S
O964 Cd954 2.297 . S
O964 C959 1.247 . S
O965 Cd954 2.439 . S
O965 C959 1.208 . S
O966 Cd967 2.223 . S
O966 C974 1.315 . S
Cd967 O966 2.223 . S
Cd967 O970 2.297 . S
Cd967 O971 2.439 . S
Cd967 O977 2.240 . S
Cd968 O969 2.240 . S
Cd968 O976 2.223 . S
Cd968 O978 2.297 . S
Cd968 O979 2.439 . S
O969 Cd968 2.240 . S
O969 C974 1.279 . S
O970 Cd967 2.297 . S
O970 C972 1.247 . S
O971 Cd967 2.439 . S
O971 C972 1.208 . S
C972 O970 1.247 . S
C972 O971 1.208 . S
C973 O978 1.247 . S
C973 O979 1.208 . S
C974 O966 1.315 . S
C974 O969 1.279 . S
C975 O976 1.315 . S
C975 O977 1.279 . S
O976 Cd968 2.223 . S
O976 C975 1.315 . S
O977 Cd967 2.240 . S
O977 C975 1.279 . S
O978 Cd968 2.297 . S
O978 C973 1.247 . S
O979 Cd968 2.439 . S
O979 C973 1.208 . S
O980 Cd981 2.223 . S
O980 C988 1.315 . S
Cd981 O980 2.223 . S
Cd981 O984 2.297 . S
Cd981 O985 2.439 . S
Cd981 O991 2.240 . S
Cd982 O983 2.240 . S
Cd982 O990 2.223 . S
Cd982 O992 2.297 . S
Cd982 O993 2.439 . S
O983 Cd982 2.240 . S
O983 C988 1.279 . S
O984 Cd981 2.297 . S
O984 C986 1.247 . S
O985 Cd981 2.439 . S
O985 C986 1.208 . S
C986 O984 1.247 . S
C986 O985 1.208 . S
C987 O992 1.247 . S
C987 O993 1.208 . S
C988 O980 1.315 . S
C988 O983 1.279 . S
C989 O990 1.315 . S
C989 O991 1.279 . S
O990 Cd982 2.223 . S
O990 C989 1.315 . S
O991 Cd981 2.240 . S
O991 C989 1.279 . S
O992 Cd982 2.297 . S
O992 C987 1.247 . S
O993 Cd982 2.439 . S
O993 C987 1.208 . S
O994 Cd995 2.223 . S
O994 C1002 1.315 . S
Cd995 O994 2.223 . S
Cd995 O998 2.297 . S
Cd995 O999 2.439 . S
Cd995 O1005 2.240 . S
Cd996 O997 2.240 . S
Cd996 O1004 2.223 . S
Cd996 O1006 2.297 . S
Cd996 O1007 2.439 . S
O997 Cd996 2.240 . S
O997 C1002 1.279 . S
O998 Cd995 2.297 . S
O998 C1000 1.247 . S
O999 Cd995 2.439 . S
O999 C1000 1.208 . S
C1000 O998 1.247 . S
C1000 O999 1.208 . S
C1001 O1006 1.247 . S
C1001 O1007 1.208 . S
C1002 O994 1.315 . S
C1002 O997 1.279 . S
C1003 O1004 1.315 . S
C1003 O1005 1.279 . S
O1004 Cd996 2.223 . S
O1004 C1003 1.315 . S
O1005 Cd995 2.240 . S
O1005 C1003 1.279 . S
O1006 Cd996 2.297 . S
O1006 C1001 1.247 . S
O1007 Cd996 2.439 . S
O1007 C1001 1.208 . S
O1008 Cd1009 2.223 . S
O1008 C1016 1.315 . S
Cd1009 O1008 2.223 . S
Cd1009 O1012 2.297 . S
Cd1009 O1013 2.439 . S
Cd1009 O1019 2.240 . S
Cd1010 O1011 2.240 . S
Cd1010 O1018 2.223 . S
Cd1010 O1020 2.297 . S
Cd1010 O1021 2.439 . S
O1011 Cd1010 2.240 . S
O1011 C1016 1.279 . S
O1012 Cd1009 2.297 . S
O1012 C1014 1.247 . S
O1013 Cd1009 2.439 . S
O1013 C1014 1.208 . S
C1014 O1012 1.247 . S
C1014 O1013 1.208 . S
C1015 O1020 1.247 . S
C1015 O1021 1.208 . S
C1016 O1008 1.315 . S
C1016 O1011 1.279 . S
C1017 O1018 1.315 . S
C1017 O1019 1.279 . S
O1018 Cd1010 2.223 . S
O1018 C1017 1.315 . S
O1019 Cd1009 2.240 . S
O1019 C1017 1.279 . S
O1020 Cd1010 2.297 . S
O1020 C1015 1.247 . S
O1021 Cd1010 2.439 . S
O1021 C1015 1.208 . S
O1022 Cd1023 2.223 . S
O1022 C1030 1.315 . S
Cd1023 O1022 2.223 . S
Cd1023 O1026 2.297 . S
Cd1023 O1027 2.439 . S
Cd1023 O1033 2.240 . S
Cd1024 O1025 2.240 . S
Cd1024 O1032 2.223 . S
Cd1024 O1034 2.297 . S
Cd1024 O1035 2.439 . S
O1025 Cd1024 2.240 . S
O1025 C1030 1.279 . S
O1026 Cd1023 2.297 . S
O1026 C1028 1.247 . S
O1027 Cd1023 2.439 . S
O1027 C1028 1.208 . S
C1028 O1026 1.247 . S
C1028 O1027 1.208 . S
C1029 O1034 1.247 . S
C1029 O1035 1.208 . S
C1030 O1022 1.315 . S
C1030 O1025 1.279 . S
C1031 O1032 1.315 . S
C1031 O1033 1.279 . S
O1032 Cd1024 2.223 . S
O1032 C1031 1.315 . S
O1033 Cd1023 2.240 . S
O1033 C1031 1.279 . S
O1034 Cd1024 2.297 . S
O1034 C1029 1.247 . S
O1035 Cd1024 2.439 . S
O1035 C1029 1.208 . S
O1036 Cd1037 2.223 . S
O1036 C1044 1.315 . S
Cd1037 O1036 2.223 . S
Cd1037 O1040 2.297 . S
Cd1037 O1041 2.439 . S
Cd1037 O1047 2.240 . S
Cd1038 O1039 2.240 . S
Cd1038 O1046 2.223 . S
Cd1038 O1048 2.297 . S
Cd1038 O1049 2.439 . S
O1039 Cd1038 2.240 . S
O1039 C1044 1.279 . S
O1040 Cd1037 2.297 . S
O1040 C1042 1.247 . S
O1041 Cd1037 2.439 . S
O1041 C1042 1.208 . S
C1042 O1040 1.247 . S
C1042 O1041 1.208 . S
C1043 O1048 1.247 . S
C1043 O1049 1.208 . S
C1044 O1036 1.315 . S
C1044 O1039 1.279 . S
C1045 O1046 1.315 . S
C1045 O1047 1.279 . S
O1046 Cd1038 2.223 . S
O1046 C1045 1.315 . S
O1047 Cd1037 2.240 . S
O1047 C1045 1.279 . S
O1048 Cd1038 2.297 . S
O1048 C1043 1.247 . S
O1049 Cd1038 2.439 . S
O1049 C1043 1.208 . S
O1050 Cd1051 2.223 . S
O1050 C1058 1.315 . S
Cd1051 O1050 2.223 . S
Cd1051 O1054 2.297 . S
Cd1051 O1055 2.439 . S
Cd1051 O1061 2.240 . S
Cd1052 O1053 2.240 . S
Cd1052 O1060 2.223 . S
Cd1052 O1062 2.297 . S
Cd1052 O1063 2.439 . S
O1053 Cd1052 2.240 . S
O1053 C1058 1.279 . S
O1054 Cd1051 2.297 . S
O1054 C1056 1.247 . S
O1055 Cd1051 2.439 . S
O1055 C1056 1.208 . S
C1056 O1054 1.247 . S
C1056 O1055 1.208 . S
C1057 O1062 1.247 . S
C1057 O1063 1.208 . S
C1058 O1050 1.315 . S
C1058 O1053 1.279 . S
C1059 O1060 1.315 . S
C1059 O1061 1.279 . S
O1060 Cd1052 2.223 . S
O1060 C1059 1.315 . S
O1061 Cd1051 2.240 . S
O1061 C1059 1.279 . S
O1062 Cd1052 2.297 . S
O1062 C1057 1.247 . S
O1063 Cd1052 2.439 . S
O1063 C1057 1.208 . S
O1064 Cd1065 2.223 . S
O1064 C1072 1.315 . S
Cd1065 O1064 2.223 . S
Cd1065 O1068 2.297 . S
Cd1065 O1069 2.439 . S
Cd1065 O1075 2.240 . S
Cd1066 O1067 2.240 . S
Cd1066 O1074 2.223 . S
Cd1066 O1076 2.297 . S
Cd1066 O1077 2.439 . S
O1067 Cd1066 2.240 . S
O1067 C1072 1.279 . S
O1068 Cd1065 2.297 . S
O1068 C1070 1.247 . S
O1069 Cd1065 2.439 . S
O1069 C1070 1.208 . S
C1070 O1068 1.247 . S
C1070 O1069 1.208 . S
C1071 O1076 1.247 . S
C1071 O1077 1.208 . S
C1072 O1064 1.315 . S
C1072 O1067 1.279 . S
C1073 O1074 1.315 . S
C1073 O1075 1.279 . S
O1074 Cd1066 2.223 . S
O1074 C1073 1.315 . S
O1075 Cd1065 2.240 . S
O1075 C1073 1.279 . S
O1076 Cd1066 2.297 . S
O1076 C1071 1.247 . S
O1077 Cd1066 2.439 . S
O1077 C1071 1.208 . S
O1078 Cd1079 2.223 . S
O1078 C1086 1.315 . S
Cd1079 O1078 2.223 . S
Cd1079 O1082 2.297 . S
Cd1079 O1083 2.439 . S
Cd1079 O1089 2.240 . S
Cd1080 O1081 2.240 . S
Cd1080 O1088 2.223 . S
Cd1080 O1090 2.297 . S
Cd1080 O1091 2.439 . S
O1081 Cd1080 2.240 . S
O1081 C1086 1.279 . S
O1082 Cd1079 2.297 . S
O1082 C1084 1.247 . S
O1083 Cd1079 2.439 . S
O1083 C1084 1.208 . S
C1084 O1082 1.247 . S
C1084 O1083 1.208 . S
C1085 O1090 1.247 . S
C1085 O1091 1.208 . S
C1086 O1078 1.315 . S
C1086 O1081 1.279 . S
C1087 O1088 1.315 . S
C1087 O1089 1.279 . S
O1088 Cd1080 2.223 . S
O1088 C1087 1.315 . S
O1089 Cd1079 2.240 . S
O1089 C1087 1.279 . S
O1090 Cd1080 2.297 . S
O1090 C1085 1.247 . S
O1091 Cd1080 2.439 . S
O1091 C1085 1.208 . S
O1092 Cd1093 2.223 . S
O1092 C1100 1.315 . S
Cd1093 O1092 2.223 . S
Cd1093 O1096 2.297 . S
Cd1093 O1097 2.439 . S
Cd1093 O1103 2.240 . S
Cd1094 O1095 2.240 . S
Cd1094 O1102 2.223 . S
Cd1094 O1104 2.297 . S
Cd1094 O1105 2.439 . S
O1095 Cd1094 2.240 . S
O1095 C1100 1.279 . S
O1096 Cd1093 2.297 . S
O1096 C1098 1.247 . S
O1097 Cd1093 2.439 . S
O1097 C1098 1.208 . S
C1098 O1096 1.247 . S
C1098 O1097 1.208 . S
C1099 O1104 1.247 . S
C1099 O1105 1.208 . S
C1100 O1092 1.315 . S
C1100 O1095 1.279 . S
C1101 O1102 1.315 . S
C1101 O1103 1.279 . S
O1102 Cd1094 2.223 . S
O1102 C1101 1.315 . S
O1103 Cd1093 2.240 . S
O1103 C1101 1.279 . S
O1104 Cd1094 2.297 . S
O1104 C1099 1.247 . S
O1105 Cd1094 2.439 . S
O1105 C1099 1.208 . S
O1106 Cd1107 2.223 . S
O1106 C1114 1.315 . S
Cd1107 O1106 2.223 . S
Cd1107 O1110 2.297 . S
Cd1107 O1111 2.439 . S
Cd1107 O1117 2.240 . S
Cd1108 O1109 2.240 . S
Cd1108 O1116 2.223 . S
Cd1108 O1118 2.297 . S
Cd1108 O1119 2.439 . S
O1109 Cd1108 2.240 . S
O1109 C1114 1.279 . S
O1110 Cd1107 2.297 . S
O1110 C1112 1.247 . S
O1111 Cd1107 2.439 . S
O1111 C1112 1.208 . S
C1112 O1110 1.247 . S
C1112 O1111 1.208 . S
C1113 O1118 1.247 . S
C1113 O1119 1.208 . S
C1114 O1106 1.315 . S
C1114 O1109 1.279 . S
C1115 O1116 1.315 . S
C1115 O1117 1.279 . S
O1116 Cd1108 2.223 . S
O1116 C1115 1.315 . S
O1117 Cd1107 2.240 . S
O1117 C1115 1.279 . S
O1118 Cd1108 2.297 . S
O1118 C1113 1.247 . S
O1119 Cd1108 2.439 . S
O1119 C1113 1.208 . S
O1120 Cd1121 2.223 . S
O1120 C1128 1.315 . S
Cd1121 O1120 2.223 . S
Cd1121 O1124 2.297 . S
Cd1121 O1125 2.439 . S
Cd1121 O1131 2.240 . S
Cd1122 O1123 2.240 . S
Cd1122 O1130 2.223 . S
Cd1122 O1132 2.297 . S
Cd1122 O1133 2.439 . S
O1123 Cd1122 2.240 . S
O1123 C1128 1.279 . S
O1124 Cd1121 2.297 . S
O1124 C1126 1.247 . S
O1125 Cd1121 2.439 . S
O1125 C1126 1.208 . S
C1126 O1124 1.247 . S
C1126 O1125 1.208 . S
C1127 O1132 1.247 . S
C1127 O1133 1.208 . S
C1128 O1120 1.315 . S
C1128 O1123 1.279 . S
C1129 O1130 1.315 . S
C1129 O1131 1.279 . S
O1130 Cd1122 2.223 . S
O1130 C1129 1.315 . S
O1131 Cd1121 2.240 . S
O1131 C1129 1.279 . S
O1132 Cd1122 2.297 . S
O1132 C1127 1.247 . S
O1133 Cd1122 2.439 . S
O1133 C1127 1.208 . S
O1134 Cd1135 2.223 . S
O1134 C1142 1.315 . S
Cd1135 O1134 2.223 . S
Cd1135 O1138 2.297 . S
Cd1135 O1139 2.439 . S
Cd1135 O1145 2.240 . S
Cd1136 O1137 2.240 . S
Cd1136 O1144 2.223 . S
Cd1136 O1146 2.297 . S
Cd1136 O1147 2.439 . S
O1137 Cd1136 2.240 . S
O1137 C1142 1.279 . S
O1138 Cd1135 2.297 . S
O1138 C1140 1.247 . S
O1139 Cd1135 2.439 . S
O1139 C1140 1.208 . S
C1140 O1138 1.247 . S
C1140 O1139 1.208 . S
C1141 O1146 1.247 . S
C1141 O1147 1.208 . S
C1142 O1134 1.315 . S
C1142 O1137 1.279 . S
C1143 O1144 1.315 . S
C1143 O1145 1.279 . S
O1144 Cd1136 2.223 . S
O1144 C1143 1.315 . S
O1145 Cd1135 2.240 . S
O1145 C1143 1.279 . S
O1146 Cd1136 2.297 . S
O1146 C1141 1.247 . S
O1147 Cd1136 2.439 . S
O1147 C1141 1.208 . S
O1148 Cd1149 2.223 . S
O1148 C1156 1.315 . S
Cd1149 O1148 2.223 . S
Cd1149 O1152 2.297 . S
Cd1149 O1153 2.439 . S
Cd1149 O1159 2.240 . S
Cd1150 O1151 2.240 . S
Cd1150 O1158 2.223 . S
Cd1150 O1160 2.297 . S
Cd1150 O1161 2.439 . S
O1151 Cd1150 2.240 . S
O1151 C1156 1.279 . S
O1152 Cd1149 2.297 . S
O1152 C1154 1.247 . S
O1153 Cd1149 2.439 . S
O1153 C1154 1.208 . S
C1154 O1152 1.247 . S
C1154 O1153 1.208 . S
C1155 O1160 1.247 . S
C1155 O1161 1.208 . S
C1156 O1148 1.315 . S
C1156 O1151 1.279 . S
C1157 O1158 1.315 . S
C1157 O1159 1.279 . S
O1158 Cd1150 2.223 . S
O1158 C1157 1.315 . S
O1159 Cd1149 2.240 . S
O1159 C1157 1.279 . S
O1160 Cd1150 2.297 . S
O1160 C1155 1.247 . S
O1161 Cd1150 2.439 . S
O1161 C1155 1.208 . S
O1162 Cd1163 2.223 . S
O1162 C1170 1.315 . S
Cd1163 O1162 2.223 . S
Cd1163 O1166 2.297 . S
Cd1163 O1167 2.439 . S
Cd1163 O1173 2.240 . S
Cd1164 O1165 2.240 . S
Cd1164 O1172 2.223 . S
Cd1164 O1174 2.297 . S
Cd1164 O1175 2.439 . S
O1165 Cd1164 2.240 . S
O1165 C1170 1.279 . S
O1166 Cd1163 2.297 . S
O1166 C1168 1.247 . S
O1167 Cd1163 2.439 . S
O1167 C1168 1.208 . S
C1168 O1166 1.247 . S
C1168 O1167 1.208 . S
C1169 O1174 1.247 . S
C1169 O1175 1.208 . S
C1170 O1162 1.315 . S
C1170 O1165 1.279 . S
C1171 O1172 1.315 . S
C1171 O1173 1.279 . S
O1172 Cd1164 2.223 . S
O1172 C1171 1.315 . S
O1173 Cd1163 2.240 . S
O1173 C1171 1.279 . S
O1174 Cd1164 2.297 . S
O1174 C1169 1.247 . S
O1175 Cd1164 2.439 . S
O1175 C1169 1.208 . S
O1176 Cd1177 2.223 . S
O1176 C1184 1.315 . S
Cd1177 O1176 2.223 . S
Cd1177 O1180 2.297 . S
Cd1177 O1181 2.439 . S
Cd1177 O1187 2.240 . S
Cd1178 O1179 2.240 . S
Cd1178 O1186 2.223 . S
Cd1178 O1188 2.297 . S
Cd1178 O1189 2.439 . S
O1179 Cd1178 2.240 . S
O1179 C1184 1.279 . S
O1180 Cd1177 2.297 . S
O1180 C1182 1.247 . S
O1181 Cd1177 2.439 . S
O1181 C1182 1.208 . S
C1182 O1180 1.247 . S
C1182 O1181 1.208 . S
C1183 O1188 1.247 . S
C1183 O1189 1.208 . S
C1184 O1176 1.315 . S
C1184 O1179 1.279 . S
C1185 O1186 1.315 . S
C1185 O1187 1.279 . S
O1186 Cd1178 2.223 . S
O1186 C1185 1.315 . S
O1187 Cd1177 2.240 . S
O1187 C1185 1.279 . S
O1188 Cd1178 2.297 . S
O1188 C1183 1.247 . S
O1189 Cd1178 2.439 . S
O1189 C1183 1.208 . S
O1190 Cd1191 2.223 . S
O1190 C1198 1.315 . S
Cd1191 O1190 2.223 . S
Cd1191 O1194 2.297 . S
Cd1191 O1195 2.439 . S
Cd1191 O1201 2.240 . S
Cd1192 O1193 2.240 . S
Cd1192 O1200 2.223 . S
Cd1192 O1202 2.297 . S
Cd1192 O1203 2.439 . S
O1193 Cd1192 2.240 . S
O1193 C1198 1.279 . S
O1194 Cd1191 2.297 . S
O1194 C1196 1.247 . S
O1195 Cd1191 2.439 . S
O1195 C1196 1.208 . S
C1196 O1194 1.247 . S
C1196 O1195 1.208 . S
C1197 O1202 1.247 . S
C1197 O1203 1.208 . S
C1198 O1190 1.315 . S
C1198 O1193 1.279 . S
C1199 O1200 1.315 . S
C1199 O1201 1.279 . S
O1200 Cd1192 2.223 . S
O1200 C1199 1.315 . S
O1201 Cd1191 2.240 . S
O1201 C1199 1.279 . S
O1202 Cd1192 2.297 . S
O1202 C1197 1.247 . S
O1203 Cd1192 2.439 . S
O1203 C1197 1.208 . S
O1204 Cd1205 2.223 . S
O1204 C1212 1.315 . S
Cd1205 O1204 2.223 . S
Cd1205 O1208 2.297 . S
Cd1205 O1209 2.439 . S
Cd1205 O1215 2.240 . S
Cd1206 O1207 2.240 . S
Cd1206 O1214 2.223 . S
Cd1206 O1216 2.297 . S
Cd1206 O1217 2.439 . S
O1207 Cd1206 2.240 . S
O1207 C1212 1.279 . S
O1208 Cd1205 2.297 . S
O1208 C1210 1.247 . S
O1209 Cd1205 2.439 . S
O1209 C1210 1.208 . S
C1210 O1208 1.247 . S
C1210 O1209 1.208 . S
C1211 O1216 1.247 . S
C1211 O1217 1.208 . S
C1212 O1204 1.315 . S
C1212 O1207 1.279 . S
C1213 O1214 1.315 . S
C1213 O1215 1.279 . S
O1214 Cd1206 2.223 . S
O1214 C1213 1.315 . S
O1215 Cd1205 2.240 . S
O1215 C1213 1.279 . S
O1216 Cd1206 2.297 . S
O1216 C1211 1.247 . S
O1217 Cd1206 2.439 . S
O1217 C1211 1.208 . S
O1218 Cd1219 2.223 . S
O1218 C1226 1.315 . S
Cd1219 O1218 2.223 . S
Cd1219 O1222 2.297 . S
Cd1219 O1223 2.439 . S
Cd1219 O1229 2.240 . S
Cd1220 O1221 2.240 . S
Cd1220 O1228 2.223 . S
Cd1220 O1230 2.297 . S
Cd1220 O1231 2.439 . S
O1221 Cd1220 2.240 . S
O1221 C1226 1.279 . S
O1222 Cd1219 2.297 . S
O1222 C1224 1.247 . S
O1223 Cd1219 2.439 . S
O1223 C1224 1.208 . S
C1224 O1222 1.247 . S
C1224 O1223 1.208 . S
C1225 O1230 1.247 . S
C1225 O1231 1.208 . S
C1226 O1218 1.315 . S
C1226 O1221 1.279 . S
C1227 O1228 1.315 . S
C1227 O1229 1.279 . S
O1228 Cd1220 2.223 . S
O1228 C1227 1.315 . S
O1229 Cd1219 2.240 . S
O1229 C1227 1.279 . S
O1230 Cd1220 2.297 . S
O1230 C1225 1.247 . S
O1231 Cd1220 2.439 . S
O1231 C1225 1.208 . S
O1232 Cd1233 2.223 . S
O1232 C1240 1.315 . S
Cd1233 O1232 2.223 . S
Cd1233 O1236 2.297 . S
Cd1233 O1237 2.439 . S
Cd1233 O1243 2.240 . S
Cd1234 O1235 2.240 . S
Cd1234 O1242 2.223 . S
Cd1234 O1244 2.297 . S
Cd1234 O1245 2.439 . S
O1235 Cd1234 2.240 . S
O1235 C1240 1.279 . S
O1236 Cd1233 2.297 . S
O1236 C1238 1.247 . S
O1237 Cd1233 2.439 . S
O1237 C1238 1.208 . S
C1238 O1236 1.247 . S
C1238 O1237 1.208 . S
C1239 O1244 1.247 . S
C1239 O1245 1.208 . S
C1240 O1232 1.315 . S
C1240 O1235 1.279 . S
C1241 O1242 1.315 . S
C1241 O1243 1.279 . S
O1242 Cd1234 2.223 . S
O1242 C1241 1.315 . S
O1243 Cd1233 2.240 . S
O1243 C1241 1.279 . S
O1244 Cd1234 2.297 . S
O1244 C1239 1.247 . S
O1245 Cd1234 2.439 . S
O1245 C1239 1.208 . S
O1246 Cd1247 2.223 . S
O1246 C1254 1.315 . S
Cd1247 O1246 2.223 . S
Cd1247 O1250 2.297 . S
Cd1247 O1251 2.439 . S
Cd1247 O1257 2.240 . S
Cd1248 O1249 2.240 . S
Cd1248 O1256 2.223 . S
Cd1248 O1258 2.297 . S
Cd1248 O1259 2.439 . S
O1249 Cd1248 2.240 . S
O1249 C1254 1.279 . S
O1250 Cd1247 2.297 . S
O1250 C1252 1.247 . S
O1251 Cd1247 2.439 . S
O1251 C1252 1.208 . S
C1252 O1250 1.247 . S
C1252 O1251 1.208 . S
C1253 O1258 1.247 . S
C1253 O1259 1.208 . S
C1254 O1246 1.315 . S
C1254 O1249 1.279 . S
C1255 O1256 1.315 . S
C1255 O1257 1.279 . S
O1256 Cd1248 2.223 . S
O1256 C1255 1.315 . S
O1257 Cd1247 2.240 . S
O1257 C1255 1.279 . S
O1258 Cd1248 2.297 . S
O1258 C1253 1.247 . S
O1259 Cd1248 2.439 . S
O1259 C1253 1.208 . S
O1260 Cd1261 2.223 . S
O1260 C1268 1.315 . S
Cd1261 O1260 2.223 . S
Cd1261 O1264 2.297 . S
Cd1261 O1265 2.439 . S
Cd1261 O1271 2.240 . S
Cd1262 O1263 2.240 . S
Cd1262 O1270 2.223 . S
Cd1262 O1272 2.297 . S
Cd1262 O1273 2.439 . S
O1263 Cd1262 2.240 . S
O1263 C1268 1.279 . S
O1264 Cd1261 2.297 . S
O1264 C1266 1.247 . S
O1265 Cd1261 2.439 . S
O1265 C1266 1.208 . S
C1266 O1264 1.247 . S
C1266 O1265 1.208 . S
C1267 O1272 1.247 . S
C1267 O1273 1.208 . S
C1268 O1260 1.315 . S
C1268 O1263 1.279 . S
C1269 O1270 1.315 . S
C1269 O1271 1.279 . S
O1270 Cd1262 2.223 . S
O1270 C1269 1.315 . S
O1271 Cd1261 2.240 . S
O1271 C1269 1.279 . S
O1272 Cd1262 2.297 . S
O1272 C1267 1.247 . S
O1273 Cd1262 2.439 . S
O1273 C1267 1.208 . S
O1274 Cd1275 2.223 . S
O1274 C1282 1.315 . S
Cd1275 O1274 2.223 . S
Cd1275 O1278 2.297 . S
Cd1275 O1279 2.439 . S
Cd1275 O1285 2.240 . S
Cd1276 O1277 2.240 . S
Cd1276 O1284 2.223 . S
Cd1276 O1286 2.297 . S
Cd1276 O1287 2.439 . S
O1277 Cd1276 2.240 . S
O1277 C1282 1.279 . S
O1278 Cd1275 2.297 . S
O1278 C1280 1.247 . S
O1279 Cd1275 2.439 . S
O1279 C1280 1.208 . S
C1280 O1278 1.247 . S
C1280 O1279 1.208 . S
C1281 O1286 1.247 . S
C1281 O1287 1.208 . S
C1282 O1274 1.315 . S
C1282 O1277 1.279 . S
C1283 O1284 1.315 . S
C1283 O1285 1.279 . S
O1284 Cd1276 2.223 . S
O1284 C1283 1.315 . S
O1285 Cd1275 2.240 . S
O1285 C1283 1.279 . S
O1286 Cd1276 2.297 . S
O1286 C1281 1.247 . S
O1287 Cd1276 2.439 . S
O1287 C1281 1.208 . S
O1288 Cd1289 2.223 . S
O1288 C1296 1.315 . S
Cd1289 O1288 2.223 . S
Cd1289 O1292 2.297 . S
Cd1289 O1293 2.439 . S
Cd1289 O1299 2.240 . S
Cd1290 O1291 2.240 . S
Cd1290 O1298 2.223 . S
Cd1290 O1300 2.297 . S
Cd1290 O1301 2.439 . S
O1291 Cd1290 2.240 . S
O1291 C1296 1.279 . S
O1292 Cd1289 2.297 . S
O1292 C1294 1.247 . S
O1293 Cd1289 2.439 . S
O1293 C1294 1.208 . S
C1294 O1292 1.247 . S
C1294 O1293 1.208 . S
C1295 O1300 1.247 . S
C1295 O1301 1.208 . S
C1296 O1288 1.315 . S
C1296 O1291 1.279 . S
C1297 O1298 1.315 . S
C1297 O1299 1.279 . S
O1298 Cd1290 2.223 . S
O1298 C1297 1.315 . S
O1299 Cd1289 2.240 . S
O1299 C1297 1.279 . S
O1300 Cd1290 2.297 . S
O1300 C1295 1.247 . S
O1301 Cd1290 2.439 . S
O1301 C1295 1.208 . S
O1302 Cd1303 2.223 . S
O1302 C1310 1.315 . S
Cd1303 O1302 2.223 . S
Cd1303 O1306 2.297 . S
Cd1303 O1307 2.439 . S
Cd1303 O1313 2.240 . S
Cd1304 O1305 2.240 . S
Cd1304 O1312 2.223 . S
Cd1304 O1314 2.297 . S
Cd1304 O1315 2.439 . S
O1305 Cd1304 2.240 . S
O1305 C1310 1.279 . S
O1306 Cd1303 2.297 . S
O1306 C1308 1.247 . S
O1307 Cd1303 2.439 . S
O1307 C1308 1.208 . S
C1308 O1306 1.247 . S
C1308 O1307 1.208 . S
C1309 O1314 1.247 . S
C1309 O1315 1.208 . S
C1310 O1302 1.315 . S
C1310 O1305 1.279 . S
C1311 O1312 1.315 . S
C1311 O1313 1.279 . S
O1312 Cd1304 2.223 . S
O1312 C1311 1.315 . S
O1313 Cd1303 2.240 . S
O1313 C1311 1.279 . S
O1314 Cd1304 2.297 . S
O1314 C1309 1.247 . S
O1315 Cd1304 2.439 . S
O1315 C1309 1.208 . S
O1316 Cd1317 2.223 . S
O1316 C1324 1.315 . S
Cd1317 O1316 2.223 . S
Cd1317 O1320 2.297 . S
Cd1317 O1321 2.439 . S
Cd1317 O1327 2.240 . S
Cd1318 O1319 2.240 . S
Cd1318 O1326 2.223 . S
Cd1318 O1328 2.297 . S
Cd1318 O1329 2.439 . S
O1319 Cd1318 2.240 . S
O1319 C1324 1.279 . S
O1320 Cd1317 2.297 . S
O1320 C1322 1.247 . S
O1321 Cd1317 2.439 . S
O1321 C1322 1.208 . S
C1322 O1320 1.247 . S
C1322 O1321 1.208 . S
C1323 O1328 1.247 . S
C1323 O1329 1.208 . S
C1324 O1316 1.315 . S
C1324 O1319 1.279 . S
C1325 O1326 1.315 . S
C1325 O1327 1.279 . S
O1326 Cd1318 2.223 . S
O1326 C1325 1.315 . S
O1327 Cd1317 2.240 . S
O1327 C1325 1.279 . S
O1328 Cd1318 2.297 . S
O1328 C1323 1.247 . S
O1329 Cd1318 2.439 . S
O1329 C1323 1.208 . S
O1330 Cd1331 2.223 . S
O1330 C1338 1.315 . S
Cd1331 O1330 2.223 . S
Cd1331 O1334 2.297 . S
Cd1331 O1335 2.439 . S
Cd1331 O1341 2.240 . S
Cd1332 O1333 2.240 . S
Cd1332 O1340 2.223 . S
Cd1332 O1342 2.297 . S
Cd1332 O1343 2.439 . S
O1333 Cd1332 2.240 . S
O1333 C1338 1.279 . S
O1334 Cd1331 2.297 . S
O1334 C1336 1.247 . S
O1335 Cd1331 2.439 . S
O1335 C1336 1.208 . S
C1336 O1334 1.247 . S
C1336 O1335 1.208 . S
C1337 O1342 1.247 . S
C1337 O1343 1.208 . S
C1338 O1330 1.315 . S
C1338 O1333 1.279 . S
C1339 O1340 1.315 . S
C1339 O1341 1.279 . S
O1340 Cd1332 2.223 . S
O1340 C1339 1.315 . S
O1341 Cd1331 2.240 . S
O1341 C1339 1.279 . S
O1342 Cd1332 2.297 . S
O1342 C1337 1.247 . S
O1343 Cd1332 2.439 . S
O1343 C1337 1.208 . S
H1344 C1350 0.930 . S
H1345 C1353 0.930 . S
H1346 C1354 0.930 . S
H1347 C1355 0.930 . S
H1348 C1358 0.930 . S
H1349 C1359 0.930 . S
C1350 H1344 0.930 . S
C1350 C1351 1.355 . S
C1350 C1352 1.415 . S
C1351 C1350 1.355 . S
C1351 C1353 1.419 . S
C1352 C1350 1.415 . S
C1352 C1357 1.425 . S
C1352 C1359 1.409 . S
C1353 H1345 0.930 . S
C1353 C1351 1.419 . S
C1353 C1354 1.362 . S
C1354 H1346 0.930 . S
C1354 C1353 1.362 . S
C1354 C1357 1.409 . S
C1355 H1347 0.930 . S
C1355 C1356 1.355 . S
C1355 C1357 1.415 . S
C1356 C1355 1.355 . S
C1356 C1358 1.419 . S
C1357 C1352 1.425 . S
C1357 C1354 1.409 . S
C1357 C1355 1.415 . S
C1358 H1348 0.930 . S
C1358 C1356 1.419 . S
C1358 C1359 1.362 . S
C1359 H1349 0.930 . S
C1359 C1352 1.409 . S
C1359 C1358 1.362 . S
H1360 C1366 0.930 . S
H1361 C1369 0.930 . S
H1362 C1370 0.930 . S
H1363 C1371 0.930 . S
H1364 C1374 0.930 . S
H1365 C1375 0.930 . S
C1366 H1360 0.930 . S
C1366 C1367 1.355 . S
C1366 C1368 1.415 . S
C1367 C1366 1.355 . S
C1367 C1369 1.419 . S
C1368 C1366 1.415 . S
C1368 C1373 1.425 . S
C1368 C1375 1.409 . S
C1369 H1361 0.930 . S
C1369 C1367 1.419 . S
C1369 C1370 1.362 . S
C1370 H1362 0.930 . S
C1370 C1369 1.362 . S
C1370 C1373 1.409 . S
C1371 H1363 0.930 . S
C1371 C1372 1.355 . S
C1371 C1373 1.415 . S
C1372 C1371 1.355 . S
C1372 C1374 1.419 . S
C1373 C1368 1.425 . S
C1373 C1370 1.409 . S
C1373 C1371 1.415 . S
C1374 H1364 0.930 . S
C1374 C1372 1.419 . S
C1374 C1375 1.362 . S
C1375 H1365 0.930 . S
C1375 C1368 1.409 . S
C1375 C1374 1.362 . S
H1376 C1382 0.930 . S
H1377 C1385 0.930 . S
H1378 C1386 0.930 . S
H1379 C1387 0.930 . S
H1380 C1390 0.930 . S
H1381 C1391 0.930 . S
C1382 H1376 0.930 . S
C1382 C1383 1.355 . S
C1382 C1384 1.415 . S
C1383 C1382 1.355 . S
C1383 C1385 1.419 . S
C1384 C1382 1.415 . S
C1384 C1389 1.425 . S
C1384 C1391 1.409 . S
C1385 H1377 0.930 . S
C1385 C1383 1.419 . S
C1385 C1386 1.362 . S
C1386 H1378 0.930 . S
C1386 C1385 1.362 . S
C1386 C1389 1.409 . S
C1387 H1379 0.930 . S
C1387 C1388 1.355 . S
C1387 C1389 1.415 . S
C1388 C1387 1.355 . S
C1388 C1390 1.419 . S
C1389 C1384 1.425 . S
C1389 C1386 1.409 . S
C1389 C1387 1.415 . S
C1390 H1380 0.930 . S
C1390 C1388 1.419 . S
C1390 C1391 1.362 . S
C1391 H1381 0.930 . S
C1391 C1384 1.409 . S
C1391 C1390 1.362 . S
H1392 C1398 0.930 . S
H1393 C1401 0.930 . S
H1394 C1402 0.930 . S
H1395 C1403 0.930 . S
H1396 C1406 0.930 . S
H1397 C1407 0.930 . S
C1398 H1392 0.930 . S
C1398 C1399 1.355 . S
C1398 C1400 1.415 . S
C1399 C1398 1.355 . S
C1399 C1401 1.419 . S
C1400 C1398 1.415 . S
C1400 C1405 1.425 . S
C1400 C1407 1.409 . S
C1401 H1393 0.930 . S
C1401 C1399 1.419 . S
C1401 C1402 1.362 . S
C1402 H1394 0.930 . S
C1402 C1401 1.362 . S
C1402 C1405 1.409 . S
C1403 H1395 0.930 . S
C1403 C1404 1.355 . S
C1403 C1405 1.415 . S
C1404 C1403 1.355 . S
C1404 C1406 1.419 . S
C1405 C1400 1.425 . S
C1405 C1402 1.409 . S
C1405 C1403 1.415 . S
C1406 H1396 0.930 . S
C1406 C1404 1.419 . S
C1406 C1407 1.362 . S
C1407 H1397 0.930 . S
C1407 C1400 1.409 . S
C1407 C1406 1.362 . S
H1408 C1414 0.930 . S
H1409 C1417 0.930 . S
H1410 C1418 0.930 . S
H1411 C1419 0.930 . S
H1412 C1422 0.930 . S
H1413 C1423 0.930 . S
C1414 H1408 0.930 . S
C1414 C1415 1.355 . S
C1414 C1416 1.415 . S
C1415 C1414 1.355 . S
C1415 C1417 1.419 . S
C1416 C1414 1.415 . S
C1416 C1421 1.425 . S
C1416 C1423 1.409 . S
C1417 H1409 0.930 . S
C1417 C1415 1.419 . S
C1417 C1418 1.362 . S
C1418 H1410 0.930 . S
C1418 C1417 1.362 . S
C1418 C1421 1.409 . S
C1419 H1411 0.930 . S
C1419 C1420 1.355 . S
C1419 C1421 1.415 . S
C1420 C1419 1.355 . S
C1420 C1422 1.419 . S
C1421 C1416 1.425 . S
C1421 C1418 1.409 . S
C1421 C1419 1.415 . S
C1422 H1412 0.930 . S
C1422 C1420 1.419 . S
C1422 C1423 1.362 . S
C1423 H1413 0.930 . S
C1423 C1416 1.409 . S
C1423 C1422 1.362 . S
H1424 C1430 0.930 . S
H1425 C1433 0.930 . S
H1426 C1434 0.930 . S
H1427 C1435 0.930 . S
H1428 C1438 0.930 . S
H1429 C1439 0.930 . S
C1430 H1424 0.930 . S
C1430 C1431 1.355 . S
C1430 C1432 1.415 . S
C1431 C1430 1.355 . S
C1431 C1433 1.419 . S
C1432 C1430 1.415 . S
C1432 C1437 1.425 . S
C1432 C1439 1.409 . S
C1433 H1425 0.930 . S
C1433 C1431 1.419 . S
C1433 C1434 1.362 . S
C1434 H1426 0.930 . S
C1434 C1433 1.362 . S
C1434 C1437 1.409 . S
C1435 H1427 0.930 . S
C1435 C1436 1.355 . S
C1435 C1437 1.415 . S
C1436 C1435 1.355 . S
C1436 C1438 1.419 . S
C1437 C1432 1.425 . S
C1437 C1434 1.409 . S
C1437 C1435 1.415 . S
C1438 H1428 0.930 . S
C1438 C1436 1.419 . S
C1438 C1439 1.362 . S
C1439 H1429 0.930 . S
C1439 C1432 1.409 . S
C1439 C1438 1.362 . S
H1440 C1446 0.930 . S
H1441 C1449 0.930 . S
H1442 C1450 0.930 . S
H1443 C1451 0.930 . S
H1444 C1454 0.930 . S
H1445 C1455 0.930 . S
C1446 H1440 0.930 . S
C1446 C1447 1.355 . S
C1446 C1448 1.415 . S
C1447 C1446 1.355 . S
C1447 C1449 1.419 . S
C1448 C1446 1.415 . S
C1448 C1453 1.425 . S
C1448 C1455 1.409 . S
C1449 H1441 0.930 . S
C1449 C1447 1.419 . S
C1449 C1450 1.362 . S
C1450 H1442 0.930 . S
C1450 C1449 1.362 . S
C1450 C1453 1.409 . S
C1451 H1443 0.930 . S
C1451 C1452 1.355 . S
C1451 C1453 1.415 . S
C1452 C1451 1.355 . S
C1452 C1454 1.419 . S
C1453 C1448 1.425 . S
C1453 C1450 1.409 . S
C1453 C1451 1.415 . S
C1454 H1444 0.930 . S
C1454 C1452 1.419 . S
C1454 C1455 1.362 . S
C1455 H1445 0.930 . S
C1455 C1448 1.409 . S
C1455 C1454 1.362 . S
H1456 C1462 0.930 . S
H1457 C1465 0.930 . S
H1458 C1466 0.930 . S
H1459 C1467 0.930 . S
H1460 C1470 0.930 . S
H1461 C1471 0.930 . S
C1462 H1456 0.930 . S
C1462 C1463 1.355 . S
C1462 C1464 1.415 . S
C1463 C1462 1.355 . S
C1463 C1465 1.419 . S
C1464 C1462 1.415 . S
C1464 C1469 1.425 . S
C1464 C1471 1.409 . S
C1465 H1457 0.930 . S
C1465 C1463 1.419 . S
C1465 C1466 1.362 . S
C1466 H1458 0.930 . S
C1466 C1465 1.362 . S
C1466 C1469 1.409 . S
C1467 H1459 0.930 . S
C1467 C1468 1.355 . S
C1467 C1469 1.415 . S
C1468 C1467 1.355 . S
C1468 C1470 1.419 . S
C1469 C1464 1.425 . S
C1469 C1466 1.409 . S
C1469 C1467 1.415 . S
C1470 H1460 0.930 . S
C1470 C1468 1.419 . S
C1470 C1471 1.362 . S
C1471 H1461 0.930 . S
C1471 C1464 1.409 . S
C1471 C1470 1.362 . S
H1472 C1478 0.930 . S
H1473 C1481 0.930 . S
H1474 C1482 0.930 . S
H1475 C1483 0.930 . S
H1476 C1486 0.930 . S
H1477 C1487 0.930 . S
C1478 H1472 0.930 . S
C1478 C1479 1.355 . S
C1478 C1480 1.415 . S
C1479 C1478 1.355 . S
C1479 C1481 1.419 . S
C1480 C1478 1.415 . S
C1480 C1485 1.425 . S
C1480 C1487 1.409 . S
C1481 H1473 0.930 . S
C1481 C1479 1.419 . S
C1481 C1482 1.362 . S
C1482 H1474 0.930 . S
C1482 C1481 1.362 . S
C1482 C1485 1.409 . S
C1483 H1475 0.930 . S
C1483 C1484 1.355 . S
C1483 C1485 1.415 . S
C1484 C1483 1.355 . S
C1484 C1486 1.419 . S
C1485 C1480 1.425 . S
C1485 C1482 1.409 . S
C1485 C1483 1.415 . S
C1486 H1476 0.930 . S
C1486 C1484 1.419 . S
C1486 C1487 1.362 . S
C1487 H1477 0.930 . S
C1487 C1480 1.409 . S
C1487 C1486 1.362 . S
H1488 C1494 0.930 . S
H1489 C1497 0.930 . S
H1490 C1498 0.930 . S
H1491 C1499 0.930 . S
H1492 C1502 0.930 . S
H1493 C1503 0.930 . S
C1494 H1488 0.930 . S
C1494 C1495 1.355 . S
C1494 C1496 1.415 . S
C1495 C1494 1.355 . S
C1495 C1497 1.419 . S
C1496 C1494 1.415 . S
C1496 C1501 1.425 . S
C1496 C1503 1.409 . S
C1497 H1489 0.930 . S
C1497 C1495 1.419 . S
C1497 C1498 1.362 . S
C1498 H1490 0.930 . S
C1498 C1497 1.362 . S
C1498 C1501 1.409 . S
C1499 H1491 0.930 . S
C1499 C1500 1.355 . S
C1499 C1501 1.415 . S
C1500 C1499 1.355 . S
C1500 C1502 1.419 . S
C1501 C1496 1.425 . S
C1501 C1498 1.409 . S
C1501 C1499 1.415 . S
C1502 H1492 0.930 . S
C1502 C1500 1.419 . S
C1502 C1503 1.362 . S
C1503 H1493 0.930 . S
C1503 C1496 1.409 . S
C1503 C1502 1.362 . S
H1504 C1510 0.930 . S
H1505 C1513 0.930 . S
H1506 C1514 0.930 . S
H1507 C1515 0.930 . S
H1508 C1518 0.930 . S
H1509 C1519 0.930 . S
C1510 H1504 0.930 . S
C1510 C1511 1.355 . S
C1510 C1512 1.415 . S
C1511 C1510 1.355 . S
C1511 C1513 1.419 . S
C1512 C1510 1.415 . S
C1512 C1517 1.425 . S
C1512 C1519 1.409 . S
C1513 H1505 0.930 . S
C1513 C1511 1.419 . S
C1513 C1514 1.362 . S
C1514 H1506 0.930 . S
C1514 C1513 1.362 . S
C1514 C1517 1.409 . S
C1515 H1507 0.930 . S
C1515 C1516 1.355 . S
C1515 C1517 1.415 . S
C1516 C1515 1.355 . S
C1516 C1518 1.419 . S
C1517 C1512 1.425 . S
C1517 C1514 1.409 . S
C1517 C1515 1.415 . S
C1518 H1508 0.930 . S
C1518 C1516 1.419 . S
C1518 C1519 1.362 . S
C1519 H1509 0.930 . S
C1519 C1512 1.409 . S
C1519 C1518 1.362 . S
H1520 C1526 0.930 . S
H1521 C1529 0.930 . S
H1522 C1530 0.930 . S
H1523 C1531 0.930 . S
H1524 C1534 0.930 . S
H1525 C1535 0.930 . S
C1526 H1520 0.930 . S
C1526 C1527 1.355 . S
C1526 C1528 1.415 . S
C1527 C1526 1.355 . S
C1527 C1529 1.419 . S
C1528 C1526 1.415 . S
C1528 C1533 1.425 . S
C1528 C1535 1.409 . S
C1529 H1521 0.930 . S
C1529 C1527 1.419 . S
C1529 C1530 1.362 . S
C1530 H1522 0.930 . S
C1530 C1529 1.362 . S
C1530 C1533 1.409 . S
C1531 H1523 0.930 . S
C1531 C1532 1.355 . S
C1531 C1533 1.415 . S
C1532 C1531 1.355 . S
C1532 C1534 1.419 . S
C1533 C1528 1.425 . S
C1533 C1530 1.409 . S
C1533 C1531 1.415 . S
C1534 H1524 0.930 . S
C1534 C1532 1.419 . S
C1534 C1535 1.362 . S
C1535 H1525 0.930 . S
C1535 C1528 1.409 . S
C1535 C1534 1.362 . S
H1536 C1542 0.930 . S
H1537 C1545 0.930 . S
H1538 C1546 0.930 . S
H1539 C1547 0.930 . S
H1540 C1550 0.930 . S
H1541 C1551 0.930 . S
C1542 H1536 0.930 . S
C1542 C1543 1.355 . S
C1542 C1544 1.415 . S
C1543 C1542 1.355 . S
C1543 C1545 1.419 . S
C1544 C1542 1.415 . S
C1544 C1549 1.425 . S
C1544 C1551 1.409 . S
C1545 H1537 0.930 . S
C1545 C1543 1.419 . S
C1545 C1546 1.362 . S
C1546 H1538 0.930 . S
C1546 C1545 1.362 . S
C1546 C1549 1.409 . S
C1547 H1539 0.930 . S
C1547 C1548 1.355 . S
C1547 C1549 1.415 . S
C1548 C1547 1.355 . S
C1548 C1550 1.419 . S
C1549 C1544 1.425 . S
C1549 C1546 1.409 . S
C1549 C1547 1.415 . S
C1550 H1540 0.930 . S
C1550 C1548 1.419 . S
C1550 C1551 1.362 . S
C1551 H1541 0.930 . S
C1551 C1544 1.409 . S
C1551 C1550 1.362 . S
H1552 C1558 0.930 . S
H1553 C1561 0.930 . S
H1554 C1562 0.930 . S
H1555 C1563 0.930 . S
H1556 C1566 0.930 . S
H1557 C1567 0.930 . S
C1558 H1552 0.930 . S
C1558 C1559 1.355 . S
C1558 C1560 1.415 . S
C1559 C1558 1.355 . S
C1559 C1561 1.419 . S
C1560 C1558 1.415 . S
C1560 C1565 1.425 . S
C1560 C1567 1.409 . S
C1561 H1553 0.930 . S
C1561 C1559 1.419 . S
C1561 C1562 1.362 . S
C1562 H1554 0.930 . S
C1562 C1561 1.362 . S
C1562 C1565 1.409 . S
C1563 H1555 0.930 . S
C1563 C1564 1.355 . S
C1563 C1565 1.415 . S
C1564 C1563 1.355 . S
C1564 C1566 1.419 . S
C1565 C1560 1.425 . S
C1565 C1562 1.409 . S
C1565 C1563 1.415 . S
C1566 H1556 0.930 . S
C1566 C1564 1.419 . S
C1566 C1567 1.362 . S
C1567 H1557 0.930 . S
C1567 C1560 1.409 . S
C1567 C1566 1.362 . S
H1568 C1574 0.930 . S
H1569 C1577 0.930 . S
H1570 C1578 0.930 . S
H1571 C1579 0.930 . S
H1572 C1582 0.930 . S
H1573 C1583 0.930 . S
C1574 H1568 0.930 . S
C1574 C1575 1.355 . S
C1574 C1576 1.415 . S
C1575 C1574 1.355 . S
C1575 C1577 1.419 . S
C1576 C1574 1.415 . S
C1576 C1581 1.425 . S
C1576 C1583 1.409 . S
C1577 H1569 0.930 . S
C1577 C1575 1.419 . S
C1577 C1578 1.362 . S
C1578 H1570 0.930 . S
C1578 C1577 1.362 . S
C1578 C1581 1.409 . S
C1579 H1571 0.930 . S
C1579 C1580 1.355 . S
C1579 C1581 1.415 . S
C1580 C1579 1.355 . S
C1580 C1582 1.419 . S
C1581 C1576 1.425 . S
C1581 C1578 1.409 . S
C1581 C1579 1.415 . S
C1582 H1572 0.930 . S
C1582 C1580 1.419 . S
C1582 C1583 1.362 . S
C1583 H1573 0.930 . S
C1583 C1576 1.409 . S
C1583 C1582 1.362 . S
H1584 C1590 0.930 . S
H1585 C1593 0.930 . S
H1586 C1594 0.930 . S
H1587 C1595 0.930 . S
H1588 C1598 0.930 . S
H1589 C1599 0.930 . S
C1590 H1584 0.930 . S
C1590 C1591 1.355 . S
C1590 C1592 1.415 . S
C1591 C1590 1.355 . S
C1591 C1593 1.419 . S
C1592 C1590 1.415 . S
C1592 C1597 1.425 . S
C1592 C1599 1.409 . S
C1593 H1585 0.930 . S
C1593 C1591 1.419 . S
C1593 C1594 1.362 . S
C1594 H1586 0.930 . S
C1594 C1593 1.362 . S
C1594 C1597 1.409 . S
C1595 H1587 0.930 . S
C1595 C1596 1.355 . S
C1595 C1597 1.415 . S
C1596 C1595 1.355 . S
C1596 C1598 1.419 . S
C1597 C1592 1.425 . S
C1597 C1594 1.409 . S
C1597 C1595 1.415 . S
C1598 H1588 0.930 . S
C1598 C1596 1.419 . S
C1598 C1599 1.362 . S
C1599 H1589 0.930 . S
C1599 C1592 1.409 . S
C1599 C1598 1.362 . S
H1600 C1606 0.930 . S
H1601 C1609 0.930 . S
H1602 C1610 0.930 . S
H1603 C1611 0.930 . S
H1604 C1614 0.930 . S
H1605 C1615 0.930 . S
C1606 H1600 0.930 . S
C1606 C1607 1.355 . S
C1606 C1608 1.415 . S
C1607 C1606 1.355 . S
C1607 C1609 1.419 . S
C1608 C1606 1.415 . S
C1608 C1613 1.425 . S
C1608 C1615 1.409 . S
C1609 H1601 0.930 . S
C1609 C1607 1.419 . S
C1609 C1610 1.362 . S
C1610 H1602 0.930 . S
C1610 C1609 1.362 . S
C1610 C1613 1.409 . S
C1611 H1603 0.930 . S
C1611 C1612 1.355 . S
C1611 C1613 1.415 . S
C1612 C1611 1.355 . S
C1612 C1614 1.419 . S
C1613 C1608 1.425 . S
C1613 C1610 1.409 . S
C1613 C1611 1.415 . S
C1614 H1604 0.930 . S
C1614 C1612 1.419 . S
C1614 C1615 1.362 . S
C1615 H1605 0.930 . S
C1615 C1608 1.409 . S
C1615 C1614 1.362 . S
H1616 C1622 0.930 . S
H1617 C1625 0.930 . S
H1618 C1626 0.930 . S
H1619 C1627 0.930 . S
H1620 C1630 0.930 . S
H1621 C1631 0.930 . S
C1622 H1616 0.930 . S
C1622 C1623 1.355 . S
C1622 C1624 1.415 . S
C1623 C1622 1.355 . S
C1623 C1625 1.419 . S
C1624 C1622 1.415 . S
C1624 C1629 1.425 . S
C1624 C1631 1.409 . S
C1625 H1617 0.930 . S
C1625 C1623 1.419 . S
C1625 C1626 1.362 . S
C1626 H1618 0.930 . S
C1626 C1625 1.362 . S
C1626 C1629 1.409 . S
C1627 H1619 0.930 . S
C1627 C1628 1.355 . S
C1627 C1629 1.415 . S
C1628 C1627 1.355 . S
C1628 C1630 1.419 . S
C1629 C1624 1.425 . S
C1629 C1626 1.409 . S
C1629 C1627 1.415 . S
C1630 H1620 0.930 . S
C1630 C1628 1.419 . S
C1630 C1631 1.362 . S
C1631 H1621 0.930 . S
C1631 C1624 1.409 . S
C1631 C1630 1.362 . S
H1632 C1638 0.930 . S
H1633 C1641 0.930 . S
H1634 C1642 0.930 . S
H1635 C1643 0.930 . S
H1636 C1646 0.930 . S
H1637 C1647 0.930 . S
C1638 H1632 0.930 . S
C1638 C1639 1.355 . S
C1638 C1640 1.415 . S
C1639 C1638 1.355 . S
C1639 C1641 1.419 . S
C1640 C1638 1.415 . S
C1640 C1645 1.425 . S
C1640 C1647 1.409 . S
C1641 H1633 0.930 . S
C1641 C1639 1.419 . S
C1641 C1642 1.362 . S
C1642 H1634 0.930 . S
C1642 C1641 1.362 . S
C1642 C1645 1.409 . S
C1643 H1635 0.930 . S
C1643 C1644 1.355 . S
C1643 C1645 1.415 . S
C1644 C1643 1.355 . S
C1644 C1646 1.419 . S
C1645 C1640 1.425 . S
C1645 C1642 1.409 . S
C1645 C1643 1.415 . S
C1646 H1636 0.930 . S
C1646 C1644 1.419 . S
C1646 C1647 1.362 . S
C1647 H1637 0.930 . S
C1647 C1640 1.409 . S
C1647 C1646 1.362 . S
H1648 C1654 0.930 . S
H1649 C1657 0.930 . S
H1650 C1658 0.930 . S
H1651 C1659 0.930 . S
H1652 C1662 0.930 . S
H1653 C1663 0.930 . S
C1654 H1648 0.930 . S
C1654 C1655 1.355 . S
C1654 C1656 1.415 . S
C1655 C1654 1.355 . S
C1655 C1657 1.419 . S
C1656 C1654 1.415 . S
C1656 C1661 1.425 . S
C1656 C1663 1.409 . S
C1657 H1649 0.930 . S
C1657 C1655 1.419 . S
C1657 C1658 1.362 . S
C1658 H1650 0.930 . S
C1658 C1657 1.362 . S
C1658 C1661 1.409 . S
C1659 H1651 0.930 . S
C1659 C1660 1.355 . S
C1659 C1661 1.415 . S
C1660 C1659 1.355 . S
C1660 C1662 1.419 . S
C1661 C1656 1.425 . S
C1661 C1658 1.409 . S
C1661 C1659 1.415 . S
C1662 H1652 0.930 . S
C1662 C1660 1.419 . S
C1662 C1663 1.362 . S
C1663 H1653 0.930 . S
C1663 C1656 1.409 . S
C1663 C1662 1.362 . S
H1664 C1670 0.930 . S
H1665 C1673 0.930 . S
H1666 C1674 0.930 . S
H1667 C1675 0.930 . S
H1668 C1678 0.930 . S
H1669 C1679 0.930 . S
C1670 H1664 0.930 . S
C1670 C1671 1.355 . S
C1670 C1672 1.415 . S
C1671 C1670 1.355 . S
C1671 C1673 1.419 . S
C1672 C1670 1.415 . S
C1672 C1677 1.425 . S
C1672 C1679 1.409 . S
C1673 H1665 0.930 . S
C1673 C1671 1.419 . S
C1673 C1674 1.362 . S
C1674 H1666 0.930 . S
C1674 C1673 1.362 . S
C1674 C1677 1.409 . S
C1675 H1667 0.930 . S
C1675 C1676 1.355 . S
C1675 C1677 1.415 . S
C1676 C1675 1.355 . S
C1676 C1678 1.419 . S
C1677 C1672 1.425 . S
C1677 C1674 1.409 . S
C1677 C1675 1.415 . S
C1678 H1668 0.930 . S
C1678 C1676 1.419 . S
C1678 C1679 1.362 . S
C1679 H1669 0.930 . S
C1679 C1672 1.409 . S
C1679 C1678 1.362 . S
H1680 C1686 0.930 . S
H1681 C1689 0.930 . S
H1682 C1690 0.930 . S
H1683 C1691 0.930 . S
H1684 C1694 0.930 . S
H1685 C1695 0.930 . S
C1686 H1680 0.930 . S
C1686 C1687 1.355 . S
C1686 C1688 1.415 . S
C1687 C1686 1.355 . S
C1687 C1689 1.419 . S
C1688 C1686 1.415 . S
C1688 C1693 1.425 . S
C1688 C1695 1.409 . S
C1689 H1681 0.930 . S
C1689 C1687 1.419 . S
C1689 C1690 1.362 . S
C1690 H1682 0.930 . S
C1690 C1689 1.362 . S
C1690 C1693 1.409 . S
C1691 H1683 0.930 . S
C1691 C1692 1.355 . S
C1691 C1693 1.415 . S
C1692 C1691 1.355 . S
C1692 C1694 1.419 . S
C1693 C1688 1.425 . S
C1693 C1690 1.409 . S
C1693 C1691 1.415 . S
C1694 H1684 0.930 . S
C1694 C1692 1.419 . S
C1694 C1695 1.362 . S
C1695 H1685 0.930 . S
C1695 C1688 1.409 . S
C1695 C1694 1.362 . S
H1696 C1702 0.930 . S
H1697 C1705 0.930 . S
H1698 C1706 0.930 . S
H1699 C1707 0.930 . S
H1700 C1710 0.930 . S
H1701 C1711 0.930 . S
C1702 H1696 0.930 . S
C1702 C1703 1.355 . S
C1702 C1704 1.415 . S
C1703 C1702 1.355 . S
C1703 C1705 1.419 . S
C1704 C1702 1.415 . S
C1704 C1709 1.425 . S
C1704 C1711 1.409 . S
C1705 H1697 0.930 . S
C1705 C1703 1.419 . S
C1705 C1706 1.362 . S
C1706 H1698 0.930 . S
C1706 C1705 1.362 . S
C1706 C1709 1.409 . S
C1707 H1699 0.930 . S
C1707 C1708 1.355 . S
C1707 C1709 1.415 . S
C1708 C1707 1.355 . S
C1708 C1710 1.419 . S
C1709 C1704 1.425 . S
C1709 C1706 1.409 . S
C1709 C1707 1.415 . S
C1710 H1700 0.930 . S
C1710 C1708 1.419 . S
C1710 C1711 1.362 . S
C1711 H1701 0.930 . S
C1711 C1704 1.409 . S
C1711 C1710 1.362 . S
H1712 C1718 0.930 . S
H1713 C1721 0.930 . S
H1714 C1722 0.930 . S
H1715 C1723 0.930 . S
H1716 C1726 0.930 . S
H1717 C1727 0.930 . S
C1718 H1712 0.930 . S
C1718 C1719 1.355 . S
C1718 C1720 1.415 . S
C1719 C1718 1.355 . S
C1719 C1721 1.419 . S
C1720 C1718 1.415 . S
C1720 C1725 1.425 . S
C1720 C1727 1.409 . S
C1721 H1713 0.930 . S
C1721 C1719 1.419 . S
C1721 C1722 1.362 . S
C1722 H1714 0.930 . S
C1722 C1721 1.362 . S
C1722 C1725 1.409 . S
C1723 H1715 0.930 . S
C1723 C1724 1.355 . S
C1723 C1725 1.415 . S
C1724 C1723 1.355 . S
C1724 C1726 1.419 . S
C1725 C1720 1.425 . S
C1725 C1722 1.409 . S
C1725 C1723 1.415 . S
C1726 H1716 0.930 . S
C1726 C1724 1.419 . S
C1726 C1727 1.362 . S
C1727 H1717 0.930 . S
C1727 C1720 1.409 . S
C1727 C1726 1.362 . S
H1728 C1734 0.930 . S
H1729 C1737 0.930 . S
H1730 C1738 0.930 . S
H1731 C1739 0.930 . S
H1732 C1742 0.930 . S
H1733 C1743 0.930 . S
C1734 H1728 0.930 . S
C1734 C1735 1.355 . S
C1734 C1736 1.415 . S
C1735 C1734 1.355 . S
C1735 C1737 1.419 . S
C1736 C1734 1.415 . S
C1736 C1741 1.425 . S
C1736 C1743 1.409 . S
C1737 H1729 0.930 . S
C1737 C1735 1.419 . S
C1737 C1738 1.362 . S
C1738 H1730 0.930 . S
C1738 C1737 1.362 . S
C1738 C1741 1.409 . S
C1739 H1731 0.930 . S
C1739 C1740 1.355 . S
C1739 C1741 1.415 . S
C1740 C1739 1.355 . S
C1740 C1742 1.419 . S
C1741 C1736 1.425 . S
C1741 C1738 1.409 . S
C1741 C1739 1.415 . S
C1742 H1732 0.930 . S
C1742 C1740 1.419 . S
C1742 C1743 1.362 . S
C1743 H1733 0.930 . S
C1743 C1736 1.409 . S
C1743 C1742 1.362 . S
H1744 C1750 0.930 . S
H1745 C1753 0.930 . S
H1746 C1754 0.930 . S
H1747 C1755 0.930 . S
H1748 C1758 0.930 . S
H1749 C1759 0.930 . S
C1750 H1744 0.930 . S
C1750 C1751 1.355 . S
C1750 C1752 1.415 . S
C1751 C1750 1.355 . S
C1751 C1753 1.419 . S
C1752 C1750 1.415 . S
C1752 C1757 1.425 . S
C1752 C1759 1.409 . S
C1753 H1745 0.930 . S
C1753 C1751 1.419 . S
C1753 C1754 1.362 . S
C1754 H1746 0.930 . S
C1754 C1753 1.362 . S
C1754 C1757 1.409 . S
C1755 H1747 0.930 . S
C1755 C1756 1.355 . S
C1755 C1757 1.415 . S
C1756 C1755 1.355 . S
C1756 C1758 1.419 . S
C1757 C1752 1.425 . S
C1757 C1754 1.409 . S
C1757 C1755 1.415 . S
C1758 H1748 0.930 . S
C1758 C1756 1.419 . S
C1758 C1759 1.362 . S
C1759 H1749 0.930 . S
C1759 C1752 1.409 . S
C1759 C1758 1.362 . S
H1760 C1766 0.930 . S
H1761 C1769 0.930 . S
H1762 C1770 0.930 . S
H1763 C1771 0.930 . S
H1764 C1774 0.930 . S
H1765 C1775 0.930 . S
C1766 H1760 0.930 . S
C1766 C1767 1.355 . S
C1766 C1768 1.415 . S
C1767 C1766 1.355 . S
C1767 C1769 1.419 . S
C1768 C1766 1.415 . S
C1768 C1773 1.425 . S
C1768 C1775 1.409 . S
C1769 H1761 0.930 . S
C1769 C1767 1.419 . S
C1769 C1770 1.362 . S
C1770 H1762 0.930 . S
C1770 C1769 1.362 . S
C1770 C1773 1.409 . S
C1771 H1763 0.930 . S
C1771 C1772 1.355 . S
C1771 C1773 1.415 . S
C1772 C1771 1.355 . S
C1772 C1774 1.419 . S
C1773 C1768 1.425 . S
C1773 C1770 1.409 . S
C1773 C1771 1.415 . S
C1774 H1764 0.930 . S
C1774 C1772 1.419 . S
C1774 C1775 1.362 . S
C1775 H1765 0.930 . S
C1775 C1768 1.409 . S
C1775 C1774 1.362 . S
H1776 C1782 0.930 . S
H1777 C1785 0.930 . S
H1778 C1786 0.930 . S
H1779 C1787 0.930 . S
H1780 C1790 0.930 . S
H1781 C1791 0.930 . S
C1782 H1776 0.930 . S
C1782 C1783 1.355 . S
C1782 C1784 1.415 . S
C1783 C1782 1.355 . S
C1783 C1785 1.419 . S
C1784 C1782 1.415 . S
C1784 C1789 1.425 . S
C1784 C1791 1.409 . S
C1785 H1777 0.930 . S
C1785 C1783 1.419 . S
C1785 C1786 1.362 . S
C1786 H1778 0.930 . S
C1786 C1785 1.362 . S
C1786 C1789 1.409 . S
C1787 H1779 0.930 . S
C1787 C1788 1.355 . S
C1787 C1789 1.415 . S
C1788 C1787 1.355 . S
C1788 C1790 1.419 . S
C1789 C1784 1.425 . S
C1789 C1786 1.409 . S
C1789 C1787 1.415 . S
C1790 H1780 0.930 . S
C1790 C1788 1.419 . S
C1790 C1791 1.362 . S
C1791 H1781 0.930 . S
C1791 C1784 1.409 . S
C1791 C1790 1.362 . S
H1792 C1798 0.930 . S
H1793 C1801 0.930 . S
H1794 C1802 0.930 . S
H1795 C1803 0.930 . S
H1796 C1806 0.930 . S
H1797 C1807 0.930 . S
C1798 H1792 0.930 . S
C1798 C1799 1.355 . S
C1798 C1800 1.415 . S
C1799 C1798 1.355 . S
C1799 C1801 1.419 . S
C1800 C1798 1.415 . S
C1800 C1805 1.425 . S
C1800 C1807 1.409 . S
C1801 H1793 0.930 . S
C1801 C1799 1.419 . S
C1801 C1802 1.362 . S
C1802 H1794 0.930 . S
C1802 C1801 1.362 . S
C1802 C1805 1.409 . S
C1803 H1795 0.930 . S
C1803 C1804 1.355 . S
C1803 C1805 1.415 . S
C1804 C1803 1.355 . S
C1804 C1806 1.419 . S
C1805 C1800 1.425 . S
C1805 C1802 1.409 . S
C1805 C1803 1.415 . S
C1806 H1796 0.930 . S
C1806 C1804 1.419 . S
C1806 C1807 1.362 . S
C1807 H1797 0.930 . S
C1807 C1800 1.409 . S
C1807 C1806 1.362 . S
H1808 C1814 0.930 . S
H1809 C1817 0.930 . S
H1810 C1818 0.930 . S
H1811 C1819 0.930 . S
H1812 C1822 0.930 . S
H1813 C1823 0.930 . S
C1814 H1808 0.930 . S
C1814 C1815 1.355 . S
C1814 C1816 1.415 . S
C1815 C1814 1.355 . S
C1815 C1817 1.419 . S
C1816 C1814 1.415 . S
C1816 C1821 1.425 . S
C1816 C1823 1.409 . S
C1817 H1809 0.930 . S
C1817 C1815 1.419 . S
C1817 C1818 1.362 . S
C1818 H1810 0.930 . S
C1818 C1817 1.362 . S
C1818 C1821 1.409 . S
C1819 H1811 0.930 . S
C1819 C1820 1.355 . S
C1819 C1821 1.415 . S
C1820 C1819 1.355 . S
C1820 C1822 1.419 . S
C1821 C1816 1.425 . S
C1821 C1818 1.409 . S
C1821 C1819 1.415 . S
C1822 H1812 0.930 . S
C1822 C1820 1.419 . S
C1822 C1823 1.362 . S
C1823 H1813 0.930 . S
C1823 C1816 1.409 . S
C1823 C1822 1.362 . S
H1824 C1830 0.930 . S
H1825 C1833 0.930 . S
H1826 C1834 0.930 . S
H1827 C1835 0.930 . S
H1828 C1838 0.930 . S
H1829 C1839 0.930 . S
C1830 H1824 0.930 . S
C1830 C1831 1.355 . S
C1830 C1832 1.415 . S
C1831 C1830 1.355 . S
C1831 C1833 1.419 . S
C1832 C1830 1.415 . S
C1832 C1837 1.425 . S
C1832 C1839 1.409 . S
C1833 H1825 0.930 . S
C1833 C1831 1.419 . S
C1833 C1834 1.362 . S
C1834 H1826 0.930 . S
C1834 C1833 1.362 . S
C1834 C1837 1.409 . S
C1835 H1827 0.930 . S
C1835 C1836 1.355 . S
C1835 C1837 1.415 . S
C1836 C1835 1.355 . S
C1836 C1838 1.419 . S
C1837 C1832 1.425 . S
C1837 C1834 1.409 . S
C1837 C1835 1.415 . S
C1838 H1828 0.930 . S
C1838 C1836 1.419 . S
C1838 C1839 1.362 . S
C1839 H1829 0.930 . S
C1839 C1832 1.409 . S
C1839 C1838 1.362 . S
H1840 C1846 0.930 . S
H1841 C1849 0.930 . S
H1842 C1850 0.930 . S
H1843 C1851 0.930 . S
H1844 C1854 0.930 . S
H1845 C1855 0.930 . S
C1846 H1840 0.930 . S
C1846 C1847 1.355 . S
C1846 C1848 1.415 . S
C1847 C1846 1.355 . S
C1847 C1849 1.419 . S
C1848 C1846 1.415 . S
C1848 C1853 1.425 . S
C1848 C1855 1.409 . S
C1849 H1841 0.930 . S
C1849 C1847 1.419 . S
C1849 C1850 1.362 . S
C1850 H1842 0.930 . S
C1850 C1849 1.362 . S
C1850 C1853 1.409 . S
C1851 H1843 0.930 . S
C1851 C1852 1.355 . S
C1851 C1853 1.415 . S
C1852 C1851 1.355 . S
C1852 C1854 1.419 . S
C1853 C1848 1.425 . S
C1853 C1850 1.409 . S
C1853 C1851 1.415 . S
C1854 H1844 0.930 . S
C1854 C1852 1.419 . S
C1854 C1855 1.362 . S
C1855 H1845 0.930 . S
C1855 C1848 1.409 . S
C1855 C1854 1.362 . S
H1856 C1862 0.930 . S
H1857 C1865 0.930 . S
H1858 C1866 0.930 . S
H1859 C1867 0.930 . S
H1860 C1870 0.930 . S
H1861 C1871 0.930 . S
C1862 H1856 0.930 . S
C1862 C1863 1.355 . S
C1862 C1864 1.415 . S
C1863 C1862 1.355 . S
C1863 C1865 1.419 . S
C1864 C1862 1.415 . S
C1864 C1869 1.425 . S
C1864 C1871 1.409 . S
C1865 H1857 0.930 . S
C1865 C1863 1.419 . S
C1865 C1866 1.362 . S
C1866 H1858 0.930 . S
C1866 C1865 1.362 . S
C1866 C1869 1.409 . S
C1867 H1859 0.930 . S
C1867 C1868 1.355 . S
C1867 C1869 1.415 . S
C1868 C1867 1.355 . S
C1868 C1870 1.419 . S
C1869 C1864 1.425 . S
C1869 C1866 1.409 . S
C1869 C1867 1.415 . S
C1870 H1860 0.930 . S
C1870 C1868 1.419 . S
C1870 C1871 1.362 . S
C1871 H1861 0.930 . S
C1871 C1864 1.409 . S
C1871 C1870 1.362 . S
H1872 C1878 0.930 . S
H1873 C1881 0.930 . S
H1874 C1882 0.930 . S
H1875 C1883 0.930 . S
H1876 C1886 0.930 . S
H1877 C1887 0.930 . S
C1878 H1872 0.930 . S
C1878 C1879 1.355 . S
C1878 C1880 1.415 . S
C1879 C1878 1.355 . S
C1879 C1881 1.419 . S
C1880 C1878 1.415 . S
C1880 C1885 1.425 . S
C1880 C1887 1.409 . S
C1881 H1873 0.930 . S
C1881 C1879 1.419 . S
C1881 C1882 1.362 . S
C1882 H1874 0.930 . S
C1882 C1881 1.362 . S
C1882 C1885 1.409 . S
C1883 H1875 0.930 . S
C1883 C1884 1.355 . S
C1883 C1885 1.415 . S
C1884 C1883 1.355 . S
C1884 C1886 1.419 . S
C1885 C1880 1.425 . S
C1885 C1882 1.409 . S
C1885 C1883 1.415 . S
C1886 H1876 0.930 . S
C1886 C1884 1.419 . S
C1886 C1887 1.362 . S
C1887 H1877 0.930 . S
C1887 C1880 1.409 . S
C1887 C1886 1.362 . S
H1888 C1894 0.930 . S
H1889 C1897 0.930 . S
H1890 C1898 0.930 . S
H1891 C1899 0.930 . S
H1892 C1902 0.930 . S
H1893 C1903 0.930 . S
C1894 H1888 0.930 . S
C1894 C1895 1.355 . S
C1894 C1896 1.415 . S
C1895 C1894 1.355 . S
C1895 C1897 1.419 . S
C1896 C1894 1.415 . S
C1896 C1901 1.425 . S
C1896 C1903 1.409 . S
C1897 H1889 0.930 . S
C1897 C1895 1.419 . S
C1897 C1898 1.362 . S
C1898 H1890 0.930 . S
C1898 C1897 1.362 . S
C1898 C1901 1.409 . S
C1899 H1891 0.930 . S
C1899 C1900 1.355 . S
C1899 C1901 1.415 . S
C1900 C1899 1.355 . S
C1900 C1902 1.419 . S
C1901 C1896 1.425 . S
C1901 C1898 1.409 . S
C1901 C1899 1.415 . S
C1902 H1892 0.930 . S
C1902 C1900 1.419 . S
C1902 C1903 1.362 . S
C1903 H1893 0.930 . S
C1903 C1896 1.409 . S
C1903 C1902 1.362 . S
H1904 C1910 0.930 . S
H1905 C1913 0.930 . S
H1906 C1914 0.930 . S
H1907 C1915 0.930 . S
H1908 C1918 0.930 . S
H1909 C1919 0.930 . S
C1910 H1904 0.930 . S
C1910 C1911 1.355 . S
C1910 C1912 1.415 . S
C1911 C1910 1.355 . S
C1911 C1913 1.419 . S
C1912 C1910 1.415 . S
C1912 C1917 1.425 . S
C1912 C1919 1.409 . S
C1913 H1905 0.930 . S
C1913 C1911 1.419 . S
C1913 C1914 1.362 . S
C1914 H1906 0.930 . S
C1914 C1913 1.362 . S
C1914 C1917 1.409 . S
C1915 H1907 0.930 . S
C1915 C1916 1.355 . S
C1915 C1917 1.415 . S
C1916 C1915 1.355 . S
C1916 C1918 1.419 . S
C1917 C1912 1.425 . S
C1917 C1914 1.409 . S
C1917 C1915 1.415 . S
C1918 H1908 0.930 . S
C1918 C1916 1.419 . S
C1918 C1919 1.362 . S
C1919 H1909 0.930 . S
C1919 C1912 1.409 . S
C1919 C1918 1.362 . S
H1920 C1926 0.930 . S
H1921 C1929 0.930 . S
H1922 C1930 0.930 . S
H1923 C1931 0.930 . S
H1924 C1934 0.930 . S
H1925 C1935 0.930 . S
C1926 H1920 0.930 . S
C1926 C1927 1.355 . S
C1926 C1928 1.415 . S
C1927 C1926 1.355 . S
C1927 C1929 1.419 . S
C1928 C1926 1.415 . S
C1928 C1933 1.425 . S
C1928 C1935 1.409 . S
C1929 H1921 0.930 . S
C1929 C1927 1.419 . S
C1929 C1930 1.362 . S
C1930 H1922 0.930 . S
C1930 C1929 1.362 . S
C1930 C1933 1.409 . S
C1931 H1923 0.930 . S
C1931 C1932 1.355 . S
C1931 C1933 1.415 . S
C1932 C1931 1.355 . S
C1932 C1934 1.419 . S
C1933 C1928 1.425 . S
C1933 C1930 1.409 . S
C1933 C1931 1.415 . S
C1934 H1924 0.930 . S
C1934 C1932 1.419 . S
C1934 C1935 1.362 . S
C1935 H1925 0.930 . S
C1935 C1928 1.409 . S
C1935 C1934 1.362 . S
H1936 C1942 0.930 . S
H1937 C1945 0.930 . S
H1938 C1946 0.930 . S
H1939 C1947 0.930 . S
H1940 C1950 0.930 . S
H1941 C1951 0.930 . S
C1942 H1936 0.930 . S
C1942 C1943 1.355 . S
C1942 C1944 1.415 . S
C1943 C1942 1.355 . S
C1943 C1945 1.419 . S
C1944 C1942 1.415 . S
C1944 C1949 1.425 . S
C1944 C1951 1.409 . S
C1945 H1937 0.930 . S
C1945 C1943 1.419 . S
C1945 C1946 1.362 . S
C1946 H1938 0.930 . S
C1946 C1945 1.362 . S
C1946 C1949 1.409 . S
C1947 H1939 0.930 . S
C1947 C1948 1.355 . S
C1947 C1949 1.415 . S
C1948 C1947 1.355 . S
C1948 C1950 1.419 . S
C1949 C1944 1.425 . S
C1949 C1946 1.409 . S
C1949 C1947 1.415 . S
C1950 H1940 0.930 . S
C1950 C1948 1.419 . S
C1950 C1951 1.362 . S
C1951 H1941 0.930 . S
C1951 C1944 1.409 . S
C1951 C1950 1.362 . S
H1952 C1958 0.930 . S
H1953 C1961 0.930 . S
H1954 C1962 0.930 . S
H1955 C1963 0.930 . S
H1956 C1966 0.930 . S
H1957 C1967 0.930 . S
C1958 H1952 0.930 . S
C1958 C1959 1.355 . S
C1958 C1960 1.415 . S
C1959 C1958 1.355 . S
C1959 C1961 1.419 . S
C1960 C1958 1.415 . S
C1960 C1965 1.425 . S
C1960 C1967 1.409 . S
C1961 H1953 0.930 . S
C1961 C1959 1.419 . S
C1961 C1962 1.362 . S
C1962 H1954 0.930 . S
C1962 C1961 1.362 . S
C1962 C1965 1.409 . S
C1963 H1955 0.930 . S
C1963 C1964 1.355 . S
C1963 C1965 1.415 . S
C1964 C1963 1.355 . S
C1964 C1966 1.419 . S
C1965 C1960 1.425 . S
C1965 C1962 1.409 . S
C1965 C1963 1.415 . S
C1966 H1956 0.930 . S
C1966 C1964 1.419 . S
C1966 C1967 1.362 . S
C1967 H1957 0.930 . S
C1967 C1960 1.409 . S
C1967 C1966 1.362 . S
H1968 C1974 0.930 . S
H1969 C1977 0.930 . S
H1970 C1978 0.930 . S
H1971 C1979 0.930 . S
H1972 C1982 0.930 . S
H1973 C1983 0.930 . S
C1974 H1968 0.930 . S
C1974 C1975 1.355 . S
C1974 C1976 1.415 . S
C1975 C1974 1.355 . S
C1975 C1977 1.419 . S
C1976 C1974 1.415 . S
C1976 C1981 1.425 . S
C1976 C1983 1.409 . S
C1977 H1969 0.930 . S
C1977 C1975 1.419 . S
C1977 C1978 1.362 . S
C1978 H1970 0.930 . S
C1978 C1977 1.362 . S
C1978 C1981 1.409 . S
C1979 H1971 0.930 . S
C1979 C1980 1.355 . S
C1979 C1981 1.415 . S
C1980 C1979 1.355 . S
C1980 C1982 1.419 . S
C1981 C1976 1.425 . S
C1981 C1978 1.409 . S
C1981 C1979 1.415 . S
C1982 H1972 0.930 . S
C1982 C1980 1.419 . S
C1982 C1983 1.362 . S
C1983 H1973 0.930 . S
C1983 C1976 1.409 . S
C1983 C1982 1.362 . S
H1984 C1990 0.930 . S
H1985 C1993 0.930 . S
H1986 C1994 0.930 . S
H1987 C1995 0.930 . S
H1988 C1998 0.930 . S
H1989 C1999 0.930 . S
C1990 H1984 0.930 . S
C1990 C1991 1.355 . S
C1990 C1992 1.415 . S
C1991 C1990 1.355 . S
C1991 C1993 1.419 . S
C1992 C1990 1.415 . S
C1992 C1997 1.425 . S
C1992 C1999 1.409 . S
C1993 H1985 0.930 . S
C1993 C1991 1.419 . S
C1993 C1994 1.362 . S
C1994 H1986 0.930 . S
C1994 C1993 1.362 . S
C1994 C1997 1.409 . S
C1995 H1987 0.930 . S
C1995 C1996 1.355 . S
C1995 C1997 1.415 . S
C1996 C1995 1.355 . S
C1996 C1998 1.419 . S
C1997 C1992 1.425 . S
C1997 C1994 1.409 . S
C1997 C1995 1.415 . S
C1998 H1988 0.930 . S
C1998 C1996 1.419 . S
C1998 C1999 1.362 . S
C1999 H1989 0.930 . S
C1999 C1992 1.409 . S
C1999 C1998 1.362 . S
H2000 C2006 0.930 . S
H2001 C2009 0.930 . S
H2002 C2010 0.930 . S
H2003 C2011 0.930 . S
H2004 C2014 0.930 . S
H2005 C2015 0.930 . S
C2006 H2000 0.930 . S
C2006 C2007 1.355 . S
C2006 C2008 1.415 . S
C2007 C2006 1.355 . S
C2007 C2009 1.419 . S
C2008 C2006 1.415 . S
C2008 C2013 1.425 . S
C2008 C2015 1.409 . S
C2009 H2001 0.930 . S
C2009 C2007 1.419 . S
C2009 C2010 1.362 . S
C2010 H2002 0.930 . S
C2010 C2009 1.362 . S
C2010 C2013 1.409 . S
C2011 H2003 0.930 . S
C2011 C2012 1.355 . S
C2011 C2013 1.415 . S
C2012 C2011 1.355 . S
C2012 C2014 1.419 . S
C2013 C2008 1.425 . S
C2013 C2010 1.409 . S
C2013 C2011 1.415 . S
C2014 H2004 0.930 . S
C2014 C2012 1.419 . S
C2014 C2015 1.362 . S
C2015 H2005 0.930 . S
C2015 C2008 1.409 . S
C2015 C2014 1.362 . S
H2016 C2022 0.930 . S
H2017 C2025 0.930 . S
H2018 C2026 0.930 . S
H2019 C2027 0.930 . S
H2020 C2030 0.930 . S
H2021 C2031 0.930 . S
C2022 H2016 0.930 . S
C2022 C2023 1.355 . S
C2022 C2024 1.415 . S
C2023 C2022 1.355 . S
C2023 C2025 1.419 . S
C2024 C2022 1.415 . S
C2024 C2029 1.425 . S
C2024 C2031 1.409 . S
C2025 H2017 0.930 . S
C2025 C2023 1.419 . S
C2025 C2026 1.362 . S
C2026 H2018 0.930 . S
C2026 C2025 1.362 . S
C2026 C2029 1.409 . S
C2027 H2019 0.930 . S
C2027 C2028 1.355 . S
C2027 C2029 1.415 . S
C2028 C2027 1.355 . S
C2028 C2030 1.419 . S
C2029 C2024 1.425 . S
C2029 C2026 1.409 . S
C2029 C2027 1.415 . S
C2030 H2020 0.930 . S
C2030 C2028 1.419 . S
C2030 C2031 1.362 . S
C2031 H2021 0.930 . S
C2031 C2024 1.409 . S
C2031 C2030 1.362 . S
H2032 C2038 0.930 . S
H2033 C2041 0.930 . S
H2034 C2042 0.930 . S
H2035 C2043 0.930 . S
H2036 C2046 0.930 . S
H2037 C2047 0.930 . S
C2038 H2032 0.930 . S
C2038 C2039 1.355 . S
C2038 C2040 1.415 . S
C2039 C2038 1.355 . S
C2039 C2041 1.419 . S
C2040 C2038 1.415 . S
C2040 C2045 1.425 . S
C2040 C2047 1.409 . S
C2041 H2033 0.930 . S
C2041 C2039 1.419 . S
C2041 C2042 1.362 . S
C2042 H2034 0.930 . S
C2042 C2041 1.362 . S
C2042 C2045 1.409 . S
C2043 H2035 0.930 . S
C2043 C2044 1.355 . S
C2043 C2045 1.415 . S
C2044 C2043 1.355 . S
C2044 C2046 1.419 . S
C2045 C2040 1.425 . S
C2045 C2042 1.409 . S
C2045 C2043 1.415 . S
C2046 H2036 0.930 . S
C2046 C2044 1.419 . S
C2046 C2047 1.362 . S
C2047 H2037 0.930 . S
C2047 C2040 1.409 . S
C2047 C2046 1.362 . S
H2048 C2054 0.930 . S
H2049 C2057 0.930 . S
H2050 C2058 0.930 . S
H2051 C2059 0.930 . S
H2052 C2062 0.930 . S
H2053 C2063 0.930 . S
C2054 H2048 0.930 . S
C2054 C2055 1.355 . S
C2054 C2056 1.415 . S
C2055 C2054 1.355 . S
C2055 C2057 1.419 . S
C2056 C2054 1.415 . S
C2056 C2061 1.425 . S
C2056 C2063 1.409 . S
C2057 H2049 0.930 . S
C2057 C2055 1.419 . S
C2057 C2058 1.362 . S
C2058 H2050 0.930 . S
C2058 C2057 1.362 . S
C2058 C2061 1.409 . S
C2059 H2051 0.930 . S
C2059 C2060 1.355 . S
C2059 C2061 1.415 . S
C2060 C2059 1.355 . S
C2060 C2062 1.419 . S
C2061 C2056 1.425 . S
C2061 C2058 1.409 . S
C2061 C2059 1.415 . S
C2062 H2052 0.930 . S
C2062 C2060 1.419 . S
C2062 C2063 1.362 . S
C2063 H2053 0.930 . S
C2063 C2056 1.409 . S
C2063 C2062 1.362 . S
H2064 C2070 0.930 . S
H2065 C2073 0.930 . S
H2066 C2074 0.930 . S
H2067 C2075 0.930 . S
H2068 C2078 0.930 . S
H2069 C2079 0.930 . S
C2070 H2064 0.930 . S
C2070 C2071 1.355 . S
C2070 C2072 1.415 . S
C2071 C2070 1.355 . S
C2071 C2073 1.419 . S
C2072 C2070 1.415 . S
C2072 C2077 1.425 . S
C2072 C2079 1.409 . S
C2073 H2065 0.930 . S
C2073 C2071 1.419 . S
C2073 C2074 1.362 . S
C2074 H2066 0.930 . S
C2074 C2073 1.362 . S
C2074 C2077 1.409 . S
C2075 H2067 0.930 . S
C2075 C2076 1.355 . S
C2075 C2077 1.415 . S
C2076 C2075 1.355 . S
C2076 C2078 1.419 . S
C2077 C2072 1.425 . S
C2077 C2074 1.409 . S
C2077 C2075 1.415 . S
C2078 H2068 0.930 . S
C2078 C2076 1.419 . S
C2078 C2079 1.362 . S
C2079 H2069 0.930 . S
C2079 C2072 1.409 . S
C2079 C2078 1.362 . S
H2080 C2086 0.930 . S
H2081 C2089 0.930 . S
H2082 C2090 0.930 . S
H2083 C2091 0.930 . S
H2084 C2094 0.930 . S
H2085 C2095 0.930 . S
C2086 H2080 0.930 . S
C2086 C2087 1.355 . S
C2086 C2088 1.415 . S
C2087 C2086 1.355 . S
C2087 C2089 1.419 . S
C2088 C2086 1.415 . S
C2088 C2093 1.425 . S
C2088 C2095 1.409 . S
C2089 H2081 0.930 . S
C2089 C2087 1.419 . S
C2089 C2090 1.362 . S
C2090 H2082 0.930 . S
C2090 C2089 1.362 . S
C2090 C2093 1.409 . S
C2091 H2083 0.930 . S
C2091 C2092 1.355 . S
C2091 C2093 1.415 . S
C2092 C2091 1.355 . S
C2092 C2094 1.419 . S
C2093 C2088 1.425 . S
C2093 C2090 1.409 . S
C2093 C2091 1.415 . S
C2094 H2084 0.930 . S
C2094 C2092 1.419 . S
C2094 C2095 1.362 . S
C2095 H2085 0.930 . S
C2095 C2088 1.409 . S
C2095 C2094 1.362 . S
H2096 C2102 0.930 . S
H2097 C2105 0.930 . S
H2098 C2106 0.930 . S
H2099 C2107 0.930 . S
H2100 C2110 0.930 . S
H2101 C2111 0.930 . S
C2102 H2096 0.930 . S
C2102 C2103 1.355 . S
C2102 C2104 1.415 . S
C2103 C2102 1.355 . S
C2103 C2105 1.419 . S
C2104 C2102 1.415 . S
C2104 C2109 1.425 . S
C2104 C2111 1.409 . S
C2105 H2097 0.930 . S
C2105 C2103 1.419 . S
C2105 C2106 1.362 . S
C2106 H2098 0.930 . S
C2106 C2105 1.362 . S
C2106 C2109 1.409 . S
C2107 H2099 0.930 . S
C2107 C2108 1.355 . S
C2107 C2109 1.415 . S
C2108 C2107 1.355 . S
C2108 C2110 1.419 . S
C2109 C2104 1.425 . S
C2109 C2106 1.409 . S
C2109 C2107 1.415 . S
C2110 H2100 0.930 . S
C2110 C2108 1.419 . S
C2110 C2111 1.362 . S
C2111 H2101 0.930 . S
C2111 C2104 1.409 . S
C2111 C2110 1.362 . S
H2112 C2118 0.930 . S
H2113 C2121 0.930 . S
H2114 C2122 0.930 . S
H2115 C2123 0.930 . S
H2116 C2126 0.930 . S
H2117 C2127 0.930 . S
C2118 H2112 0.930 . S
C2118 C2119 1.355 . S
C2118 C2120 1.415 . S
C2119 C2118 1.355 . S
C2119 C2121 1.419 . S
C2120 C2118 1.415 . S
C2120 C2125 1.425 . S
C2120 C2127 1.409 . S
C2121 H2113 0.930 . S
C2121 C2119 1.419 . S
C2121 C2122 1.362 . S
C2122 H2114 0.930 . S
C2122 C2121 1.362 . S
C2122 C2125 1.409 . S
C2123 H2115 0.930 . S
C2123 C2124 1.355 . S
C2123 C2125 1.415 . S
C2124 C2123 1.355 . S
C2124 C2126 1.419 . S
C2125 C2120 1.425 . S
C2125 C2122 1.409 . S
C2125 C2123 1.415 . S
C2126 H2116 0.930 . S
C2126 C2124 1.419 . S
C2126 C2127 1.362 . S
C2127 H2117 0.930 . S
C2127 C2120 1.409 . S
C2127 C2126 1.362 . S
H2128 C2134 0.930 . S
H2129 C2137 0.930 . S
H2130 C2138 0.930 . S
H2131 C2139 0.930 . S
H2132 C2142 0.930 . S
H2133 C2143 0.930 . S
C2134 H2128 0.930 . S
C2134 C2135 1.355 . S
C2134 C2136 1.415 . S
C2135 C2134 1.355 . S
C2135 C2137 1.419 . S
C2136 C2134 1.415 . S
C2136 C2141 1.425 . S
C2136 C2143 1.409 . S
C2137 H2129 0.930 . S
C2137 C2135 1.419 . S
C2137 C2138 1.362 . S
C2138 H2130 0.930 . S
C2138 C2137 1.362 . S
C2138 C2141 1.409 . S
C2139 H2131 0.930 . S
C2139 C2140 1.355 . S
C2139 C2141 1.415 . S
C2140 C2139 1.355 . S
C2140 C2142 1.419 . S
C2141 C2136 1.425 . S
C2141 C2138 1.409 . S
C2141 C2139 1.415 . S
C2142 H2132 0.930 . S
C2142 C2140 1.419 . S
C2142 C2143 1.362 . S
C2143 H2133 0.930 . S
C2143 C2136 1.409 . S
C2143 C2142 1.362 . S
H2144 C2150 0.930 . S
H2145 C2153 0.930 . S
H2146 C2154 0.930 . S
H2147 C2155 0.930 . S
H2148 C2158 0.930 . S
H2149 C2159 0.930 . S
C2150 H2144 0.930 . S
C2150 C2151 1.355 . S
C2150 C2152 1.415 . S
C2151 C2150 1.355 . S
C2151 C2153 1.419 . S
C2152 C2150 1.415 . S
C2152 C2157 1.425 . S
C2152 C2159 1.409 . S
C2153 H2145 0.930 . S
C2153 C2151 1.419 . S
C2153 C2154 1.362 . S
C2154 H2146 0.930 . S
C2154 C2153 1.362 . S
C2154 C2157 1.409 . S
C2155 H2147 0.930 . S
C2155 C2156 1.355 . S
C2155 C2157 1.415 . S
C2156 C2155 1.355 . S
C2156 C2158 1.419 . S
C2157 C2152 1.425 . S
C2157 C2154 1.409 . S
C2157 C2155 1.415 . S
C2158 H2148 0.930 . S
C2158 C2156 1.419 . S
C2158 C2159 1.362 . S
C2159 H2149 0.930 . S
C2159 C2152 1.409 . S
C2159 C2158 1.362 . S
H2160 C2166 0.930 . S
H2161 C2169 0.930 . S
H2162 C2170 0.930 . S
H2163 C2171 0.930 . S
H2164 C2174 0.930 . S
H2165 C2175 0.930 . S
C2166 H2160 0.930 . S
C2166 C2167 1.355 . S
C2166 C2168 1.415 . S
C2167 C2166 1.355 . S
C2167 C2169 1.419 . S
C2168 C2166 1.415 . S
C2168 C2173 1.425 . S
C2168 C2175 1.409 . S
C2169 H2161 0.930 . S
C2169 C2167 1.419 . S
C2169 C2170 1.362 . S
C2170 H2162 0.930 . S
C2170 C2169 1.362 . S
C2170 C2173 1.409 . S
C2171 H2163 0.930 . S
C2171 C2172 1.355 . S
C2171 C2173 1.415 . S
C2172 C2171 1.355 . S
C2172 C2174 1.419 . S
C2173 C2168 1.425 . S
C2173 C2170 1.409 . S
C2173 C2171 1.415 . S
C2174 H2164 0.930 . S
C2174 C2172 1.419 . S
C2174 C2175 1.362 . S
C2175 H2165 0.930 . S
C2175 C2168 1.409 . S
C2175 C2174 1.362 . S
H2176 C2182 0.930 . S
H2177 C2185 0.930 . S
H2178 C2186 0.930 . S
H2179 C2187 0.930 . S
H2180 C2190 0.930 . S
H2181 C2191 0.930 . S
C2182 H2176 0.930 . S
C2182 C2183 1.355 . S
C2182 C2184 1.415 . S
C2183 C2182 1.355 . S
C2183 C2185 1.419 . S
C2184 C2182 1.415 . S
C2184 C2189 1.425 . S
C2184 C2191 1.409 . S
C2185 H2177 0.930 . S
C2185 C2183 1.419 . S
C2185 C2186 1.362 . S
C2186 H2178 0.930 . S
C2186 C2185 1.362 . S
C2186 C2189 1.409 . S
C2187 H2179 0.930 . S
C2187 C2188 1.355 . S
C2187 C2189 1.415 . S
C2188 C2187 1.355 . S
C2188 C2190 1.419 . S
C2189 C2184 1.425 . S
C2189 C2186 1.409 . S
C2189 C2187 1.415 . S
C2190 H2180 0.930 . S
C2190 C2188 1.419 . S
C2190 C2191 1.362 . S
C2191 H2181 0.930 . S
C2191 C2184 1.409 . S
C2191 C2190 1.362 . S
H2192 C2198 0.930 . S
H2193 C2201 0.930 . S
H2194 C2202 0.930 . S
H2195 C2203 0.930 . S
H2196 C2206 0.930 . S
H2197 C2207 0.930 . S
C2198 H2192 0.930 . S
C2198 C2199 1.355 . S
C2198 C2200 1.415 . S
C2199 C2198 1.355 . S
C2199 C2201 1.419 . S
C2200 C2198 1.415 . S
C2200 C2205 1.425 . S
C2200 C2207 1.409 . S
C2201 H2193 0.930 . S
C2201 C2199 1.419 . S
C2201 C2202 1.362 . S
C2202 H2194 0.930 . S
C2202 C2201 1.362 . S
C2202 C2205 1.409 . S
C2203 H2195 0.930 . S
C2203 C2204 1.355 . S
C2203 C2205 1.415 . S
C2204 C2203 1.355 . S
C2204 C2206 1.419 . S
C2205 C2200 1.425 . S
C2205 C2202 1.409 . S
C2205 C2203 1.415 . S
C2206 H2196 0.930 . S
C2206 C2204 1.419 . S
C2206 C2207 1.362 . S
C2207 H2197 0.930 . S
C2207 C2200 1.409 . S
C2207 C2206 1.362 . S
H2208 C2214 0.930 . S
H2209 C2217 0.930 . S
H2210 C2218 0.930 . S
H2211 C2219 0.930 . S
H2212 C2222 0.930 . S
H2213 C2223 0.930 . S
C2214 H2208 0.930 . S
C2214 C2215 1.355 . S
C2214 C2216 1.415 . S
C2215 C2214 1.355 . S
C2215 C2217 1.419 . S
C2216 C2214 1.415 . S
C2216 C2221 1.425 . S
C2216 C2223 1.409 . S
C2217 H2209 0.930 . S
C2217 C2215 1.419 . S
C2217 C2218 1.362 . S
C2218 H2210 0.930 . S
C2218 C2217 1.362 . S
C2218 C2221 1.409 . S
C2219 H2211 0.930 . S
C2219 C2220 1.355 . S
C2219 C2221 1.415 . S
C2220 C2219 1.355 . S
C2220 C2222 1.419 . S
C2221 C2216 1.425 . S
C2221 C2218 1.409 . S
C2221 C2219 1.415 . S
C2222 H2212 0.930 . S
C2222 C2220 1.419 . S
C2222 C2223 1.362 . S
C2223 H2213 0.930 . S
C2223 C2216 1.409 . S
C2223 C2222 1.362 . S
H2224 C2230 0.930 . S
H2225 C2233 0.930 . S
H2226 C2234 0.930 . S
H2227 C2235 0.930 . S
H2228 C2238 0.930 . S
H2229 C2239 0.930 . S
C2230 H2224 0.930 . S
C2230 C2231 1.355 . S
C2230 C2232 1.415 . S
C2231 C2230 1.355 . S
C2231 C2233 1.419 . S
C2232 C2230 1.415 . S
C2232 C2237 1.425 . S
C2232 C2239 1.409 . S
C2233 H2225 0.930 . S
C2233 C2231 1.419 . S
C2233 C2234 1.362 . S
C2234 H2226 0.930 . S
C2234 C2233 1.362 . S
C2234 C2237 1.409 . S
C2235 H2227 0.930 . S
C2235 C2236 1.355 . S
C2235 C2237 1.415 . S
C2236 C2235 1.355 . S
C2236 C2238 1.419 . S
C2237 C2232 1.425 . S
C2237 C2234 1.409 . S
C2237 C2235 1.415 . S
C2238 H2228 0.930 . S
C2238 C2236 1.419 . S
C2238 C2239 1.362 . S
C2239 H2229 0.930 . S
C2239 C2232 1.409 . S
C2239 C2238 1.362 . S
H2240 C2246 0.930 . S
H2241 C2249 0.930 . S
H2242 C2250 0.930 . S
H2243 C2251 0.930 . S
H2244 C2254 0.930 . S
H2245 C2255 0.930 . S
C2246 H2240 0.930 . S
C2246 C2247 1.355 . S
C2246 C2248 1.415 . S
C2247 C2246 1.355 . S
C2247 C2249 1.419 . S
C2248 C2246 1.415 . S
C2248 C2253 1.425 . S
C2248 C2255 1.409 . S
C2249 H2241 0.930 . S
C2249 C2247 1.419 . S
C2249 C2250 1.362 . S
C2250 H2242 0.930 . S
C2250 C2249 1.362 . S
C2250 C2253 1.409 . S
C2251 H2243 0.930 . S
C2251 C2252 1.355 . S
C2251 C2253 1.415 . S
C2252 C2251 1.355 . S
C2252 C2254 1.419 . S
C2253 C2248 1.425 . S
C2253 C2250 1.409 . S
C2253 C2251 1.415 . S
C2254 H2244 0.930 . S
C2254 C2252 1.419 . S
C2254 C2255 1.362 . S
C2255 H2245 0.930 . S
C2255 C2248 1.409 . S
C2255 C2254 1.362 . S
H2256 C2262 0.930 . S
H2257 C2265 0.930 . S
H2258 C2266 0.930 . S
H2259 C2267 0.930 . S
H2260 C2270 0.930 . S
H2261 C2271 0.930 . S
C2262 H2256 0.930 . S
C2262 C2263 1.355 . S
C2262 C2264 1.415 . S
C2263 C2262 1.355 . S
C2263 C2265 1.419 . S
C2264 C2262 1.415 . S
C2264 C2269 1.425 . S
C2264 C2271 1.409 . S
C2265 H2257 0.930 . S
C2265 C2263 1.419 . S
C2265 C2266 1.362 . S
C2266 H2258 0.930 . S
C2266 C2265 1.362 . S
C2266 C2269 1.409 . S
C2267 H2259 0.930 . S
C2267 C2268 1.355 . S
C2267 C2269 1.415 . S
C2268 C2267 1.355 . S
C2268 C2270 1.419 . S
C2269 C2264 1.425 . S
C2269 C2266 1.409 . S
C2269 C2267 1.415 . S
C2270 H2260 0.930 . S
C2270 C2268 1.419 . S
C2270 C2271 1.362 . S
C2271 H2261 0.930 . S
C2271 C2264 1.409 . S
C2271 C2270 1.362 . S
H2272 C2278 0.930 . S
H2273 C2281 0.930 . S
H2274 C2282 0.930 . S
H2275 C2283 0.930 . S
H2276 C2286 0.930 . S
H2277 C2287 0.930 . S
C2278 H2272 0.930 . S
C2278 C2279 1.355 . S
C2278 C2280 1.415 . S
C2279 C2278 1.355 . S
C2279 C2281 1.419 . S
C2280 C2278 1.415 . S
C2280 C2285 1.425 . S
C2280 C2287 1.409 . S
C2281 H2273 0.930 . S
C2281 C2279 1.419 . S
C2281 C2282 1.362 . S
C2282 H2274 0.930 . S
C2282 C2281 1.362 . S
C2282 C2285 1.409 . S
C2283 H2275 0.930 . S
C2283 C2284 1.355 . S
C2283 C2285 1.415 . S
C2284 C2283 1.355 . S
C2284 C2286 1.419 . S
C2285 C2280 1.425 . S
C2285 C2282 1.409 . S
C2285 C2283 1.415 . S
C2286 H2276 0.930 . S
C2286 C2284 1.419 . S
C2286 C2287 1.362 . S
C2287 H2277 0.930 . S
C2287 C2280 1.409 . S
C2287 C2286 1.362 . S
H2288 C2294 0.930 . S
H2289 C2297 0.930 . S
H2290 C2298 0.930 . S
H2291 C2299 0.930 . S
H2292 C2302 0.930 . S
H2293 C2303 0.930 . S
C2294 H2288 0.930 . S
C2294 C2295 1.355 . S
C2294 C2296 1.415 . S
C2295 C2294 1.355 . S
C2295 C2297 1.419 . S
C2296 C2294 1.415 . S
C2296 C2301 1.425 . S
C2296 C2303 1.409 . S
C2297 H2289 0.930 . S
C2297 C2295 1.419 . S
C2297 C2298 1.362 . S
C2298 H2290 0.930 . S
C2298 C2297 1.362 . S
C2298 C2301 1.409 . S
C2299 H2291 0.930 . S
C2299 C2300 1.355 . S
C2299 C2301 1.415 . S
C2300 C2299 1.355 . S
C2300 C2302 1.419 . S
C2301 C2296 1.425 . S
C2301 C2298 1.409 . S
C2301 C2299 1.415 . S
C2302 H2292 0.930 . S
C2302 C2300 1.419 . S
C2302 C2303 1.362 . S
C2303 H2293 0.930 . S
C2303 C2296 1.409 . S
C2303 C2302 1.362 . S
H2304 C2310 0.930 . S
H2305 C2313 0.930 . S
H2306 C2314 0.930 . S
H2307 C2315 0.930 . S
H2308 C2318 0.930 . S
H2309 C2319 0.930 . S
C2310 H2304 0.930 . S
C2310 C2311 1.355 . S
C2310 C2312 1.415 . S
C2311 C2310 1.355 . S
C2311 C2313 1.419 . S
C2312 C2310 1.415 . S
C2312 C2317 1.425 . S
C2312 C2319 1.409 . S
C2313 H2305 0.930 . S
C2313 C2311 1.419 . S
C2313 C2314 1.362 . S
C2314 H2306 0.930 . S
C2314 C2313 1.362 . S
C2314 C2317 1.409 . S
C2315 H2307 0.930 . S
C2315 C2316 1.355 . S
C2315 C2317 1.415 . S
C2316 C2315 1.355 . S
C2316 C2318 1.419 . S
C2317 C2312 1.425 . S
C2317 C2314 1.409 . S
C2317 C2315 1.415 . S
C2318 H2308 0.930 . S
C2318 C2316 1.419 . S
C2318 C2319 1.362 . S
C2319 H2309 0.930 . S
C2319 C2312 1.409 . S
C2319 C2318 1.362 . S
H2320 C2326 0.930 . S
H2321 C2329 0.930 . S
H2322 C2330 0.930 . S
H2323 C2331 0.930 . S
H2324 C2334 0.930 . S
H2325 C2335 0.930 . S
C2326 H2320 0.930 . S
C2326 C2327 1.355 . S
C2326 C2328 1.415 . S
C2327 C2326 1.355 . S
C2327 C2329 1.419 . S
C2328 C2326 1.415 . S
C2328 C2333 1.425 . S
C2328 C2335 1.409 . S
C2329 H2321 0.930 . S
C2329 C2327 1.419 . S
C2329 C2330 1.362 . S
C2330 H2322 0.930 . S
C2330 C2329 1.362 . S
C2330 C2333 1.409 . S
C2331 H2323 0.930 . S
C2331 C2332 1.355 . S
C2331 C2333 1.415 . S
C2332 C2331 1.355 . S
C2332 C2334 1.419 . S
C2333 C2328 1.425 . S
C2333 C2330 1.409 . S
C2333 C2331 1.415 . S
C2334 H2324 0.930 . S
C2334 C2332 1.419 . S
C2334 C2335 1.362 . S
C2335 H2325 0.930 . S
C2335 C2328 1.409 . S
C2335 C2334 1.362 . S
H2336 C2342 0.930 . S
H2337 C2345 0.930 . S
H2338 C2346 0.930 . S
H2339 C2347 0.930 . S
H2340 C2350 0.930 . S
H2341 C2351 0.930 . S
C2342 H2336 0.930 . S
C2342 C2343 1.355 . S
C2342 C2344 1.415 . S
C2343 C2342 1.355 . S
C2343 C2345 1.419 . S
C2344 C2342 1.415 . S
C2344 C2349 1.425 . S
C2344 C2351 1.409 . S
C2345 H2337 0.930 . S
C2345 C2343 1.419 . S
C2345 C2346 1.362 . S
C2346 H2338 0.930 . S
C2346 C2345 1.362 . S
C2346 C2349 1.409 . S
C2347 H2339 0.930 . S
C2347 C2348 1.355 . S
C2347 C2349 1.415 . S
C2348 C2347 1.355 . S
C2348 C2350 1.419 . S
C2349 C2344 1.425 . S
C2349 C2346 1.409 . S
C2349 C2347 1.415 . S
C2350 H2340 0.930 . S
C2350 C2348 1.419 . S
C2350 C2351 1.362 . S
C2351 H2341 0.930 . S
C2351 C2344 1.409 . S
C2351 C2350 1.362 . S
H2352 C2358 0.930 . S
H2353 C2361 0.930 . S
H2354 C2362 0.930 . S
H2355 C2363 0.930 . S
H2356 C2366 0.930 . S
H2357 C2367 0.930 . S
C2358 H2352 0.930 . S
C2358 C2359 1.355 . S
C2358 C2360 1.415 . S
C2359 C2358 1.355 . S
C2359 C2361 1.419 . S
C2360 C2358 1.415 . S
C2360 C2365 1.425 . S
C2360 C2367 1.409 . S
C2361 H2353 0.930 . S
C2361 C2359 1.419 . S
C2361 C2362 1.362 . S
C2362 H2354 0.930 . S
C2362 C2361 1.362 . S
C2362 C2365 1.409 . S
C2363 H2355 0.930 . S
C2363 C2364 1.355 . S
C2363 C2365 1.415 . S
C2364 C2363 1.355 . S
C2364 C2366 1.419 . S
C2365 C2360 1.425 . S
C2365 C2362 1.409 . S
C2365 C2363 1.415 . S
C2366 H2356 0.930 . S
C2366 C2364 1.419 . S
C2366 C2367 1.362 . S
C2367 H2357 0.930 . S
C2367 C2360 1.409 . S
C2367 C2366 1.362 . S
H2368 C2374 0.930 . S
H2369 C2377 0.930 . S
H2370 C2378 0.930 . S
H2371 C2379 0.930 . S
H2372 C2382 0.930 . S
H2373 C2383 0.930 . S
C2374 H2368 0.930 . S
C2374 C2375 1.355 . S
C2374 C2376 1.415 . S
C2375 C2374 1.355 . S
C2375 C2377 1.419 . S
C2376 C2374 1.415 . S
C2376 C2381 1.425 . S
C2376 C2383 1.409 . S
C2377 H2369 0.930 . S
C2377 C2375 1.419 . S
C2377 C2378 1.362 . S
C2378 H2370 0.930 . S
C2378 C2377 1.362 . S
C2378 C2381 1.409 . S
C2379 H2371 0.930 . S
C2379 C2380 1.355 . S
C2379 C2381 1.415 . S
C2380 C2379 1.355 . S
C2380 C2382 1.419 . S
C2381 C2376 1.425 . S
C2381 C2378 1.409 . S
C2381 C2379 1.415 . S
C2382 H2372 0.930 . S
C2382 C2380 1.419 . S
C2382 C2383 1.362 . S
C2383 H2373 0.930 . S
C2383 C2376 1.409 . S
C2383 C2382 1.362 . S
H2384 C2390 0.930 . S
H2385 C2393 0.930 . S
H2386 C2394 0.930 . S
H2387 C2395 0.930 . S
H2388 C2398 0.930 . S
H2389 C2399 0.930 . S
C2390 H2384 0.930 . S
C2390 C2391 1.355 . S
C2390 C2392 1.415 . S
C2391 C2390 1.355 . S
C2391 C2393 1.419 . S
C2392 C2390 1.415 . S
C2392 C2397 1.425 . S
C2392 C2399 1.409 . S
C2393 H2385 0.930 . S
C2393 C2391 1.419 . S
C2393 C2394 1.362 . S
C2394 H2386 0.930 . S
C2394 C2393 1.362 . S
C2394 C2397 1.409 . S
C2395 H2387 0.930 . S
C2395 C2396 1.355 . S
C2395 C2397 1.415 . S
C2396 C2395 1.355 . S
C2396 C2398 1.419 . S
C2397 C2392 1.425 . S
C2397 C2394 1.409 . S
C2397 C2395 1.415 . S
C2398 H2388 0.930 . S
C2398 C2396 1.419 . S
C2398 C2399 1.362 . S
C2399 H2389 0.930 . S
C2399 C2392 1.409 . S
C2399 C2398 1.362 . S
H2400 C2406 0.930 . S
H2401 C2409 0.930 . S
H2402 C2410 0.930 . S
H2403 C2411 0.930 . S
H2404 C2414 0.930 . S
H2405 C2415 0.930 . S
C2406 H2400 0.930 . S
C2406 C2407 1.355 . S
C2406 C2408 1.415 . S
C2407 C2406 1.355 . S
C2407 C2409 1.419 . S
C2408 C2406 1.415 . S
C2408 C2413 1.425 . S
C2408 C2415 1.409 . S
C2409 H2401 0.930 . S
C2409 C2407 1.419 . S
C2409 C2410 1.362 . S
C2410 H2402 0.930 . S
C2410 C2409 1.362 . S
C2410 C2413 1.409 . S
C2411 H2403 0.930 . S
C2411 C2412 1.355 . S
C2411 C2413 1.415 . S
C2412 C2411 1.355 . S
C2412 C2414 1.419 . S
C2413 C2408 1.425 . S
C2413 C2410 1.409 . S
C2413 C2411 1.415 . S
C2414 H2404 0.930 . S
C2414 C2412 1.419 . S
C2414 C2415 1.362 . S
C2415 H2405 0.930 . S
C2415 C2408 1.409 . S
C2415 C2414 1.362 . S
H2416 C2422 0.930 . S
H2417 C2425 0.930 . S
H2418 C2426 0.930 . S
H2419 C2427 0.930 . S
H2420 C2430 0.930 . S
H2421 C2431 0.930 . S
C2422 H2416 0.930 . S
C2422 C2423 1.355 . S
C2422 C2424 1.415 . S
C2423 C2422 1.355 . S
C2423 C2425 1.419 . S
C2424 C2422 1.415 . S
C2424 C2429 1.425 . S
C2424 C2431 1.409 . S
C2425 H2417 0.930 . S
C2425 C2423 1.419 . S
C2425 C2426 1.362 . S
C2426 H2418 0.930 . S
C2426 C2425 1.362 . S
C2426 C2429 1.409 . S
C2427 H2419 0.930 . S
C2427 C2428 1.355 . S
C2427 C2429 1.415 . S
C2428 C2427 1.355 . S
C2428 C2430 1.419 . S
C2429 C2424 1.425 . S
C2429 C2426 1.409 . S
C2429 C2427 1.415 . S
C2430 H2420 0.930 . S
C2430 C2428 1.419 . S
C2430 C2431 1.362 . S
C2431 H2421 0.930 . S
C2431 C2424 1.409 . S
C2431 C2430 1.362 . S
H2432 C2438 0.930 . S
H2433 C2441 0.930 . S
H2434 C2442 0.930 . S
H2435 C2443 0.930 . S
H2436 C2446 0.930 . S
H2437 C2447 0.930 . S
C2438 H2432 0.930 . S
C2438 C2439 1.355 . S
C2438 C2440 1.415 . S
C2439 C2438 1.355 . S
C2439 C2441 1.419 . S
C2440 C2438 1.415 . S
C2440 C2445 1.425 . S
C2440 C2447 1.409 . S
C2441 H2433 0.930 . S
C2441 C2439 1.419 . S
C2441 C2442 1.362 . S
C2442 H2434 0.930 . S
C2442 C2441 1.362 . S
C2442 C2445 1.409 . S
C2443 H2435 0.930 . S
C2443 C2444 1.355 . S
C2443 C2445 1.415 . S
C2444 C2443 1.355 . S
C2444 C2446 1.419 . S
C2445 C2440 1.425 . S
C2445 C2442 1.409 . S
C2445 C2443 1.415 . S
C2446 H2436 0.930 . S
C2446 C2444 1.419 . S
C2446 C2447 1.362 . S
C2447 H2437 0.930 . S
C2447 C2440 1.409 . S
C2447 C2446 1.362 . S
H2448 C2454 0.930 . S
H2449 C2457 0.930 . S
H2450 C2458 0.930 . S
H2451 C2459 0.930 . S
H2452 C2462 0.930 . S
H2453 C2463 0.930 . S
C2454 H2448 0.930 . S
C2454 C2455 1.355 . S
C2454 C2456 1.415 . S
C2455 C2454 1.355 . S
C2455 C2457 1.419 . S
C2456 C2454 1.415 . S
C2456 C2461 1.425 . S
C2456 C2463 1.409 . S
C2457 H2449 0.930 . S
C2457 C2455 1.419 . S
C2457 C2458 1.362 . S
C2458 H2450 0.930 . S
C2458 C2457 1.362 . S
C2458 C2461 1.409 . S
C2459 H2451 0.930 . S
C2459 C2460 1.355 . S
C2459 C2461 1.415 . S
C2460 C2459 1.355 . S
C2460 C2462 1.419 . S
C2461 C2456 1.425 . S
C2461 C2458 1.409 . S
C2461 C2459 1.415 . S
C2462 H2452 0.930 . S
C2462 C2460 1.419 . S
C2462 C2463 1.362 . S
C2463 H2453 0.930 . S
C2463 C2456 1.409 . S
C2463 C2462 1.362 . S
H2464 C2470 0.930 . S
H2465 C2473 0.930 . S
H2466 C2474 0.930 . S
H2467 C2475 0.930 . S
H2468 C2478 0.930 . S
H2469 C2479 0.930 . S
C2470 H2464 0.930 . S
C2470 C2471 1.355 . S
C2470 C2472 1.415 . S
C2471 C2470 1.355 . S
C2471 C2473 1.419 . S
C2472 C2470 1.415 . S
C2472 C2477 1.425 . S
C2472 C2479 1.409 . S
C2473 H2465 0.930 . S
C2473 C2471 1.419 . S
C2473 C2474 1.362 . S
C2474 H2466 0.930 . S
C2474 C2473 1.362 . S
C2474 C2477 1.409 . S
C2475 H2467 0.930 . S
C2475 C2476 1.355 . S
C2475 C2477 1.415 . S
C2476 C2475 1.355 . S
C2476 C2478 1.419 . S
C2477 C2472 1.425 . S
C2477 C2474 1.409 . S
C2477 C2475 1.415 . S
C2478 H2468 0.930 . S
C2478 C2476 1.419 . S
C2478 C2479 1.362 . S
C2479 H2469 0.930 . S
C2479 C2472 1.409 . S
C2479 C2478 1.362 . S
H2480 C2486 0.930 . S
H2481 C2489 0.930 . S
H2482 C2490 0.930 . S
H2483 C2491 0.930 . S
H2484 C2494 0.930 . S
H2485 C2495 0.930 . S
C2486 H2480 0.930 . S
C2486 C2487 1.355 . S
C2486 C2488 1.415 . S
C2487 C2486 1.355 . S
C2487 C2489 1.419 . S
C2488 C2486 1.415 . S
C2488 C2493 1.425 . S
C2488 C2495 1.409 . S
C2489 H2481 0.930 . S
C2489 C2487 1.419 . S
C2489 C2490 1.362 . S
C2490 H2482 0.930 . S
C2490 C2489 1.362 . S
C2490 C2493 1.409 . S
C2491 H2483 0.930 . S
C2491 C2492 1.355 . S
C2491 C2493 1.415 . S
C2492 C2491 1.355 . S
C2492 C2494 1.419 . S
C2493 C2488 1.425 . S
C2493 C2490 1.409 . S
C2493 C2491 1.415 . S
C2494 H2484 0.930 . S
C2494 C2492 1.419 . S
C2494 C2495 1.362 . S
C2495 H2485 0.930 . S
C2495 C2488 1.409 . S
C2495 C2494 1.362 . S
H2496 C2502 0.930 . S
H2497 C2505 0.930 . S
H2498 C2506 0.930 . S
H2499 C2507 0.930 . S
H2500 C2510 0.930 . S
H2501 C2511 0.930 . S
C2502 H2496 0.930 . S
C2502 C2503 1.355 . S
C2502 C2504 1.415 . S
C2503 C2502 1.355 . S
C2503 C2505 1.419 . S
C2504 C2502 1.415 . S
C2504 C2509 1.425 . S
C2504 C2511 1.409 . S
C2505 H2497 0.930 . S
C2505 C2503 1.419 . S
C2505 C2506 1.362 . S
C2506 H2498 0.930 . S
C2506 C2505 1.362 . S
C2506 C2509 1.409 . S
C2507 H2499 0.930 . S
C2507 C2508 1.355 . S
C2507 C2509 1.415 . S
C2508 C2507 1.355 . S
C2508 C2510 1.419 . S
C2509 C2504 1.425 . S
C2509 C2506 1.409 . S
C2509 C2507 1.415 . S
C2510 H2500 0.930 . S
C2510 C2508 1.419 . S
C2510 C2511 1.362 . S
C2511 H2501 0.930 . S
C2511 C2504 1.409 . S
C2511 C2510 1.362 . S
H2512 C2518 0.930 . S
H2513 C2521 0.930 . S
H2514 C2522 0.930 . S
H2515 C2523 0.930 . S
H2516 C2526 0.930 . S
H2517 C2527 0.930 . S
C2518 H2512 0.930 . S
C2518 C2519 1.355 . S
C2518 C2520 1.415 . S
C2519 C2518 1.355 . S
C2519 C2521 1.419 . S
C2520 C2518 1.415 . S
C2520 C2525 1.425 . S
C2520 C2527 1.409 . S
C2521 H2513 0.930 . S
C2521 C2519 1.419 . S
C2521 C2522 1.362 . S
C2522 H2514 0.930 . S
C2522 C2521 1.362 . S
C2522 C2525 1.409 . S
C2523 H2515 0.930 . S
C2523 C2524 1.355 . S
C2523 C2525 1.415 . S
C2524 C2523 1.355 . S
C2524 C2526 1.419 . S
C2525 C2520 1.425 . S
C2525 C2522 1.409 . S
C2525 C2523 1.415 . S
C2526 H2516 0.930 . S
C2526 C2524 1.419 . S
C2526 C2527 1.362 . S
C2527 H2517 0.930 . S
C2527 C2520 1.409 . S
C2527 C2526 1.362 . S
H2528 C2534 0.930 . S
H2529 C2537 0.930 . S
H2530 C2538 0.930 . S
H2531 C2539 0.930 . S
H2532 C2542 0.930 . S
H2533 C2543 0.930 . S
C2534 H2528 0.930 . S
C2534 C2535 1.355 . S
C2534 C2536 1.415 . S
C2535 C2534 1.355 . S
C2535 C2537 1.419 . S
C2536 C2534 1.415 . S
C2536 C2541 1.425 . S
C2536 C2543 1.409 . S
C2537 H2529 0.930 . S
C2537 C2535 1.419 . S
C2537 C2538 1.362 . S
C2538 H2530 0.930 . S
C2538 C2537 1.362 . S
C2538 C2541 1.409 . S
C2539 H2531 0.930 . S
C2539 C2540 1.355 . S
C2539 C2541 1.415 . S
C2540 C2539 1.355 . S
C2540 C2542 1.419 . S
C2541 C2536 1.425 . S
C2541 C2538 1.409 . S
C2541 C2539 1.415 . S
C2542 H2532 0.930 . S
C2542 C2540 1.419 . S
C2542 C2543 1.362 . S
C2543 H2533 0.930 . S
C2543 C2536 1.409 . S
C2543 C2542 1.362 . S
H2544 C2550 0.930 . S
H2545 C2553 0.930 . S
H2546 C2554 0.930 . S
H2547 C2555 0.930 . S
H2548 C2558 0.930 . S
H2549 C2559 0.930 . S
C2550 H2544 0.930 . S
C2550 C2551 1.355 . S
C2550 C2552 1.415 . S
C2551 C2550 1.355 . S
C2551 C2553 1.419 . S
C2552 C2550 1.415 . S
C2552 C2557 1.425 . S
C2552 C2559 1.409 . S
C2553 H2545 0.930 . S
C2553 C2551 1.419 . S
C2553 C2554 1.362 . S
C2554 H2546 0.930 . S
C2554 C2553 1.362 . S
C2554 C2557 1.409 . S
C2555 H2547 0.930 . S
C2555 C2556 1.355 . S
C2555 C2557 1.415 . S
C2556 C2555 1.355 . S
C2556 C2558 1.419 . S
C2557 C2552 1.425 . S
C2557 C2554 1.409 . S
C2557 C2555 1.415 . S
C2558 H2548 0.930 . S
C2558 C2556 1.419 . S
C2558 C2559 1.362 . S
C2559 H2549 0.930 . S
C2559 C2552 1.409 . S
C2559 C2558 1.362 . S
H2560 C2566 0.930 . S
H2561 C2569 0.930 . S
H2562 C2570 0.930 . S
H2563 C2571 0.930 . S
H2564 C2574 0.930 . S
H2565 C2575 0.930 . S
C2566 H2560 0.930 . S
C2566 C2567 1.355 . S
C2566 C2568 1.415 . S
C2567 C2566 1.355 . S
C2567 C2569 1.419 . S
C2568 C2566 1.415 . S
C2568 C2573 1.425 . S
C2568 C2575 1.409 . S
C2569 H2561 0.930 . S
C2569 C2567 1.419 . S
C2569 C2570 1.362 . S
C2570 H2562 0.930 . S
C2570 C2569 1.362 . S
C2570 C2573 1.409 . S
C2571 H2563 0.930 . S
C2571 C2572 1.355 . S
C2571 C2573 1.415 . S
C2572 C2571 1.355 . S
C2572 C2574 1.419 . S
C2573 C2568 1.425 . S
C2573 C2570 1.409 . S
C2573 C2571 1.415 . S
C2574 H2564 0.930 . S
C2574 C2572 1.419 . S
C2574 C2575 1.362 . S
C2575 H2565 0.930 . S
C2575 C2568 1.409 . S
C2575 C2574 1.362 . S
H2576 C2582 0.930 . S
H2577 C2585 0.930 . S
H2578 C2586 0.930 . S
H2579 C2587 0.930 . S
H2580 C2590 0.930 . S
H2581 C2591 0.930 . S
C2582 H2576 0.930 . S
C2582 C2583 1.355 . S
C2582 C2584 1.415 . S
C2583 C2582 1.355 . S
C2583 C2585 1.419 . S
C2584 C2582 1.415 . S
C2584 C2589 1.425 . S
C2584 C2591 1.409 . S
C2585 H2577 0.930 . S
C2585 C2583 1.419 . S
C2585 C2586 1.362 . S
C2586 H2578 0.930 . S
C2586 C2585 1.362 . S
C2586 C2589 1.409 . S
C2587 H2579 0.930 . S
C2587 C2588 1.355 . S
C2587 C2589 1.415 . S
C2588 C2587 1.355 . S
C2588 C2590 1.419 . S
C2589 C2584 1.425 . S
C2589 C2586 1.409 . S
C2589 C2587 1.415 . S
C2590 H2580 0.930 . S
C2590 C2588 1.419 . S
C2590 C2591 1.362 . S
C2591 H2581 0.930 . S
C2591 C2584 1.409 . S
C2591 C2590 1.362 . S
H2592 C2598 0.930 . S
H2593 C2601 0.930 . S
H2594 C2602 0.930 . S
H2595 C2603 0.930 . S
H2596 C2606 0.930 . S
H2597 C2607 0.930 . S
C2598 H2592 0.930 . S
C2598 C2599 1.355 . S
C2598 C2600 1.415 . S
C2599 C2598 1.355 . S
C2599 C2601 1.419 . S
C2600 C2598 1.415 . S
C2600 C2605 1.425 . S
C2600 C2607 1.409 . S
C2601 H2593 0.930 . S
C2601 C2599 1.419 . S
C2601 C2602 1.362 . S
C2602 H2594 0.930 . S
C2602 C2601 1.362 . S
C2602 C2605 1.409 . S
C2603 H2595 0.930 . S
C2603 C2604 1.355 . S
C2603 C2605 1.415 . S
C2604 C2603 1.355 . S
C2604 C2606 1.419 . S
C2605 C2600 1.425 . S
C2605 C2602 1.409 . S
C2605 C2603 1.415 . S
C2606 H2596 0.930 . S
C2606 C2604 1.419 . S
C2606 C2607 1.362 . S
C2607 H2597 0.930 . S
C2607 C2600 1.409 . S
C2607 C2606 1.362 . S
H2608 C2614 0.930 . S
H2609 C2617 0.930 . S
H2610 C2618 0.930 . S
H2611 C2619 0.930 . S
H2612 C2622 0.930 . S
H2613 C2623 0.930 . S
C2614 H2608 0.930 . S
C2614 C2615 1.355 . S
C2614 C2616 1.415 . S
C2615 C2614 1.355 . S
C2615 C2617 1.419 . S
C2616 C2614 1.415 . S
C2616 C2621 1.425 . S
C2616 C2623 1.409 . S
C2617 H2609 0.930 . S
C2617 C2615 1.419 . S
C2617 C2618 1.362 . S
C2618 H2610 0.930 . S
C2618 C2617 1.362 . S
C2618 C2621 1.409 . S
C2619 H2611 0.930 . S
C2619 C2620 1.355 . S
C2619 C2621 1.415 . S
C2620 C2619 1.355 . S
C2620 C2622 1.419 . S
C2621 C2616 1.425 . S
C2621 C2618 1.409 . S
C2621 C2619 1.415 . S
C2622 H2612 0.930 . S
C2622 C2620 1.419 . S
C2622 C2623 1.362 . S
C2623 H2613 0.930 . S
C2623 C2616 1.409 . S
C2623 C2622 1.362 . S
H2624 C2630 0.930 . S
H2625 C2633 0.930 . S
H2626 C2634 0.930 . S
H2627 C2635 0.930 . S
H2628 C2638 0.930 . S
H2629 C2639 0.930 . S
C2630 H2624 0.930 . S
C2630 C2631 1.355 . S
C2630 C2632 1.415 . S
C2631 C2630 1.355 . S
C2631 C2633 1.419 . S
C2632 C2630 1.415 . S
C2632 C2637 1.425 . S
C2632 C2639 1.409 . S
C2633 H2625 0.930 . S
C2633 C2631 1.419 . S
C2633 C2634 1.362 . S
C2634 H2626 0.930 . S
C2634 C2633 1.362 . S
C2634 C2637 1.409 . S
C2635 H2627 0.930 . S
C2635 C2636 1.355 . S
C2635 C2637 1.415 . S
C2636 C2635 1.355 . S
C2636 C2638 1.419 . S
C2637 C2632 1.425 . S
C2637 C2634 1.409 . S
C2637 C2635 1.415 . S
C2638 H2628 0.930 . S
C2638 C2636 1.419 . S
C2638 C2639 1.362 . S
C2639 H2629 0.930 . S
C2639 C2632 1.409 . S
C2639 C2638 1.362 . S
H2640 C2646 0.930 . S
H2641 C2649 0.930 . S
H2642 C2650 0.930 . S
H2643 C2651 0.930 . S
H2644 C2654 0.930 . S
H2645 C2655 0.930 . S
C2646 H2640 0.930 . S
C2646 C2647 1.355 . S
C2646 C2648 1.415 . S
C2647 C2646 1.355 . S
C2647 C2649 1.419 . S
C2648 C2646 1.415 . S
C2648 C2653 1.425 . S
C2648 C2655 1.409 . S
C2649 H2641 0.930 . S
C2649 C2647 1.419 . S
C2649 C2650 1.362 . S
C2650 H2642 0.930 . S
C2650 C2649 1.362 . S
C2650 C2653 1.409 . S
C2651 H2643 0.930 . S
C2651 C2652 1.355 . S
C2651 C2653 1.415 . S
C2652 C2651 1.355 . S
C2652 C2654 1.419 . S
C2653 C2648 1.425 . S
C2653 C2650 1.409 . S
C2653 C2651 1.415 . S
C2654 H2644 0.930 . S
C2654 C2652 1.419 . S
C2654 C2655 1.362 . S
C2655 H2645 0.930 . S
C2655 C2648 1.409 . S
C2655 C2654 1.362 . S
H2656 C2662 0.930 . S
H2657 C2665 0.930 . S
H2658 C2666 0.930 . S
H2659 C2667 0.930 . S
H2660 C2670 0.930 . S
H2661 C2671 0.930 . S
C2662 H2656 0.930 . S
C2662 C2663 1.355 . S
C2662 C2664 1.415 . S
C2663 C2662 1.355 . S
C2663 C2665 1.419 . S
C2664 C2662 1.415 . S
C2664 C2669 1.425 . S
C2664 C2671 1.409 . S
C2665 H2657 0.930 . S
C2665 C2663 1.419 . S
C2665 C2666 1.362 . S
C2666 H2658 0.930 . S
C2666 C2665 1.362 . S
C2666 C2669 1.409 . S
C2667 H2659 0.930 . S
C2667 C2668 1.355 . S
C2667 C2669 1.415 . S
C2668 C2667 1.355 . S
C2668 C2670 1.419 . S
C2669 C2664 1.425 . S
C2669 C2666 1.409 . S
C2669 C2667 1.415 . S
C2670 H2660 0.930 . S
C2670 C2668 1.419 . S
C2670 C2671 1.362 . S
C2671 H2661 0.930 . S
C2671 C2664 1.409 . S
C2671 C2670 1.362 . S
H2672 C2678 0.930 . S
H2673 C2681 0.930 . S
H2674 C2682 0.930 . S
H2675 C2683 0.930 . S
H2676 C2686 0.930 . S
H2677 C2687 0.930 . S
C2678 H2672 0.930 . S
C2678 C2679 1.355 . S
C2678 C2680 1.415 . S
C2679 C2678 1.355 . S
C2679 C2681 1.419 . S
C2680 C2678 1.415 . S
C2680 C2685 1.425 . S
C2680 C2687 1.409 . S
C2681 H2673 0.930 . S
C2681 C2679 1.419 . S
C2681 C2682 1.362 . S
C2682 H2674 0.930 . S
C2682 C2681 1.362 . S
C2682 C2685 1.409 . S
C2683 H2675 0.930 . S
C2683 C2684 1.355 . S
C2683 C2685 1.415 . S
C2684 C2683 1.355 . S
C2684 C2686 1.419 . S
C2685 C2680 1.425 . S
C2685 C2682 1.409 . S
C2685 C2683 1.415 . S
C2686 H2676 0.930 . S
C2686 C2684 1.419 . S
C2686 C2687 1.362 . S
C2687 H2677 0.930 . S
C2687 C2680 1.409 . S
C2687 C2686 1.362 . S
H2688 C2694 0.930 . S
H2689 C2697 0.930 . S
H2690 C2698 0.930 . S
H2691 C2699 0.930 . S
H2692 C2702 0.930 . S
H2693 C2703 0.930 . S
C2694 H2688 0.930 . S
C2694 C2695 1.355 . S
C2694 C2696 1.415 . S
C2695 C2694 1.355 . S
C2695 C2697 1.419 . S
C2696 C2694 1.415 . S
C2696 C2701 1.425 . S
C2696 C2703 1.409 . S
C2697 H2689 0.930 . S
C2697 C2695 1.419 . S
C2697 C2698 1.362 . S
C2698 H2690 0.930 . S
C2698 C2697 1.362 . S
C2698 C2701 1.409 . S
C2699 H2691 0.930 . S
C2699 C2700 1.355 . S
C2699 C2701 1.415 . S
C2700 C2699 1.355 . S
C2700 C2702 1.419 . S
C2701 C2696 1.425 . S
C2701 C2698 1.409 . S
C2701 C2699 1.415 . S
C2702 H2692 0.930 . S
C2702 C2700 1.419 . S
C2702 C2703 1.362 . S
C2703 H2693 0.930 . S
C2703 C2696 1.409 . S
C2703 C2702 1.362 . S
H2704 C2710 0.930 . S
H2705 C2713 0.930 . S
H2706 C2714 0.930 . S
H2707 C2715 0.930 . S
H2708 C2718 0.930 . S
H2709 C2719 0.930 . S
C2710 H2704 0.930 . S
C2710 C2711 1.355 . S
C2710 C2712 1.415 . S
C2711 C2710 1.355 . S
C2711 C2713 1.419 . S
C2712 C2710 1.415 . S
C2712 C2717 1.425 . S
C2712 C2719 1.409 . S
C2713 H2705 0.930 . S
C2713 C2711 1.419 . S
C2713 C2714 1.362 . S
C2714 H2706 0.930 . S
C2714 C2713 1.362 . S
C2714 C2717 1.409 . S
C2715 H2707 0.930 . S
C2715 C2716 1.355 . S
C2715 C2717 1.415 . S
C2716 C2715 1.355 . S
C2716 C2718 1.419 . S
C2717 C2712 1.425 . S
C2717 C2714 1.409 . S
C2717 C2715 1.415 . S
C2718 H2708 0.930 . S
C2718 C2716 1.419 . S
C2718 C2719 1.362 . S
C2719 H2709 0.930 . S
C2719 C2712 1.409 . S
C2719 C2718 1.362 . S
H2720 C2726 0.930 . S
H2721 C2729 0.930 . S
H2722 C2730 0.930 . S
H2723 C2731 0.930 . S
H2724 C2734 0.930 . S
H2725 C2735 0.930 . S
C2726 H2720 0.930 . S
C2726 C2727 1.355 . S
C2726 C2728 1.415 . S
C2727 C2726 1.355 . S
C2727 C2729 1.419 . S
C2728 C2726 1.415 . S
C2728 C2733 1.425 . S
C2728 C2735 1.409 . S
C2729 H2721 0.930 . S
C2729 C2727 1.419 . S
C2729 C2730 1.362 . S
C2730 H2722 0.930 . S
C2730 C2729 1.362 . S
C2730 C2733 1.409 . S
C2731 H2723 0.930 . S
C2731 C2732 1.355 . S
C2731 C2733 1.415 . S
C2732 C2731 1.355 . S
C2732 C2734 1.419 . S
C2733 C2728 1.425 . S
C2733 C2730 1.409 . S
C2733 C2731 1.415 . S
C2734 H2724 0.930 . S
C2734 C2732 1.419 . S
C2734 C2735 1.362 . S
C2735 H2725 0.930 . S
C2735 C2728 1.409 . S
C2735 C2734 1.362 . S
H2736 C2742 0.930 . S
H2737 C2745 0.930 . S
H2738 C2746 0.930 . S
H2739 C2747 0.930 . S
H2740 C2750 0.930 . S
H2741 C2751 0.930 . S
C2742 H2736 0.930 . S
C2742 C2743 1.355 . S
C2742 C2744 1.415 . S
C2743 C2742 1.355 . S
C2743 C2745 1.419 . S
C2744 C2742 1.415 . S
C2744 C2749 1.425 . S
C2744 C2751 1.409 . S
C2745 H2737 0.930 . S
C2745 C2743 1.419 . S
C2745 C2746 1.362 . S
C2746 H2738 0.930 . S
C2746 C2745 1.362 . S
C2746 C2749 1.409 . S
C2747 H2739 0.930 . S
C2747 C2748 1.355 . S
C2747 C2749 1.415 . S
C2748 C2747 1.355 . S
C2748 C2750 1.419 . S
C2749 C2744 1.425 . S
C2749 C2746 1.409 . S
C2749 C2747 1.415 . S
C2750 H2740 0.930 . S
C2750 C2748 1.419 . S
C2750 C2751 1.362 . S
C2751 H2741 0.930 . S
C2751 C2744 1.409 . S
C2751 C2750 1.362 . S
H2752 C2758 0.930 . S
H2753 C2761 0.930 . S
H2754 C2762 0.930 . S
H2755 C2763 0.930 . S
H2756 C2766 0.930 . S
H2757 C2767 0.930 . S
C2758 H2752 0.930 . S
C2758 C2759 1.355 . S
C2758 C2760 1.415 . S
C2759 C2758 1.355 . S
C2759 C2761 1.419 . S
C2760 C2758 1.415 . S
C2760 C2765 1.425 . S
C2760 C2767 1.409 . S
C2761 H2753 0.930 . S
C2761 C2759 1.419 . S
C2761 C2762 1.362 . S
C2762 H2754 0.930 . S
C2762 C2761 1.362 . S
C2762 C2765 1.409 . S
C2763 H2755 0.930 . S
C2763 C2764 1.355 . S
C2763 C2765 1.415 . S
C2764 C2763 1.355 . S
C2764 C2766 1.419 . S
C2765 C2760 1.425 . S
C2765 C2762 1.409 . S
C2765 C2763 1.415 . S
C2766 H2756 0.930 . S
C2766 C2764 1.419 . S
C2766 C2767 1.362 . S
C2767 H2757 0.930 . S
C2767 C2760 1.409 . S
C2767 C2766 1.362 . S
H2768 C2774 0.930 . S
H2769 C2777 0.930 . S
H2770 C2778 0.930 . S
H2771 C2779 0.930 . S
H2772 C2782 0.930 . S
H2773 C2783 0.930 . S
C2774 H2768 0.930 . S
C2774 C2775 1.355 . S
C2774 C2776 1.415 . S
C2775 C2774 1.355 . S
C2775 C2777 1.419 . S
C2776 C2774 1.415 . S
C2776 C2781 1.425 . S
C2776 C2783 1.409 . S
C2777 H2769 0.930 . S
C2777 C2775 1.419 . S
C2777 C2778 1.362 . S
C2778 H2770 0.930 . S
C2778 C2777 1.362 . S
C2778 C2781 1.409 . S
C2779 H2771 0.930 . S
C2779 C2780 1.355 . S
C2779 C2781 1.415 . S
C2780 C2779 1.355 . S
C2780 C2782 1.419 . S
C2781 C2776 1.425 . S
C2781 C2778 1.409 . S
C2781 C2779 1.415 . S
C2782 H2772 0.930 . S
C2782 C2780 1.419 . S
C2782 C2783 1.362 . S
C2783 H2773 0.930 . S
C2783 C2776 1.409 . S
C2783 C2782 1.362 . S
H2784 C2790 0.930 . S
H2785 C2793 0.930 . S
H2786 C2794 0.930 . S
H2787 C2795 0.930 . S
H2788 C2798 0.930 . S
H2789 C2799 0.930 . S
C2790 H2784 0.930 . S
C2790 C2791 1.355 . S
C2790 C2792 1.415 . S
C2791 C2790 1.355 . S
C2791 C2793 1.419 . S
C2792 C2790 1.415 . S
C2792 C2797 1.425 . S
C2792 C2799 1.409 . S
C2793 H2785 0.930 . S
C2793 C2791 1.419 . S
C2793 C2794 1.362 . S
C2794 H2786 0.930 . S
C2794 C2793 1.362 . S
C2794 C2797 1.409 . S
C2795 H2787 0.930 . S
C2795 C2796 1.355 . S
C2795 C2797 1.415 . S
C2796 C2795 1.355 . S
C2796 C2798 1.419 . S
C2797 C2792 1.425 . S
C2797 C2794 1.409 . S
C2797 C2795 1.415 . S
C2798 H2788 0.930 . S
C2798 C2796 1.419 . S
C2798 C2799 1.362 . S
C2799 H2789 0.930 . S
C2799 C2792 1.409 . S
C2799 C2798 1.362 . S
H2800 C2806 0.930 . S
H2801 C2809 0.930 . S
H2802 C2810 0.930 . S
H2803 C2811 0.930 . S
H2804 C2814 0.930 . S
H2805 C2815 0.930 . S
C2806 H2800 0.930 . S
C2806 C2807 1.355 . S
C2806 C2808 1.415 . S
C2807 C2806 1.355 . S
C2807 C2809 1.419 . S
C2808 C2806 1.415 . S
C2808 C2813 1.425 . S
C2808 C2815 1.409 . S
C2809 H2801 0.930 . S
C2809 C2807 1.419 . S
C2809 C2810 1.362 . S
C2810 H2802 0.930 . S
C2810 C2809 1.362 . S
C2810 C2813 1.409 . S
C2811 H2803 0.930 . S
C2811 C2812 1.355 . S
C2811 C2813 1.415 . S
C2812 C2811 1.355 . S
C2812 C2814 1.419 . S
C2813 C2808 1.425 . S
C2813 C2810 1.409 . S
C2813 C2811 1.415 . S
C2814 H2804 0.930 . S
C2814 C2812 1.419 . S
C2814 C2815 1.362 . S
C2815 H2805 0.930 . S
C2815 C2808 1.409 . S
C2815 C2814 1.362 . S
H2816 C2822 0.930 . S
H2817 C2825 0.930 . S
H2818 C2826 0.930 . S
H2819 C2827 0.930 . S
H2820 C2830 0.930 . S
H2821 C2831 0.930 . S
C2822 H2816 0.930 . S
C2822 C2823 1.355 . S
C2822 C2824 1.415 . S
C2823 C2822 1.355 . S
C2823 C2825 1.419 . S
C2824 C2822 1.415 . S
C2824 C2829 1.425 . S
C2824 C2831 1.409 . S
C2825 H2817 0.930 . S
C2825 C2823 1.419 . S
C2825 C2826 1.362 . S
C2826 H2818 0.930 . S
C2826 C2825 1.362 . S
C2826 C2829 1.409 . S
C2827 H2819 0.930 . S
C2827 C2828 1.355 . S
C2827 C2829 1.415 . S
C2828 C2827 1.355 . S
C2828 C2830 1.419 . S
C2829 C2824 1.425 . S
C2829 C2826 1.409 . S
C2829 C2827 1.415 . S
C2830 H2820 0.930 . S
C2830 C2828 1.419 . S
C2830 C2831 1.362 . S
C2831 H2821 0.930 . S
C2831 C2824 1.409 . S
C2831 C2830 1.362 . S
H2832 C2838 0.930 . S
H2833 C2841 0.930 . S
H2834 C2842 0.930 . S
H2835 C2843 0.930 . S
H2836 C2846 0.930 . S
H2837 C2847 0.930 . S
C2838 H2832 0.930 . S
C2838 C2839 1.355 . S
C2838 C2840 1.415 . S
C2839 C2838 1.355 . S
C2839 C2841 1.419 . S
C2840 C2838 1.415 . S
C2840 C2845 1.425 . S
C2840 C2847 1.409 . S
C2841 H2833 0.930 . S
C2841 C2839 1.419 . S
C2841 C2842 1.362 . S
C2842 H2834 0.930 . S
C2842 C2841 1.362 . S
C2842 C2845 1.409 . S
C2843 H2835 0.930 . S
C2843 C2844 1.355 . S
C2843 C2845 1.415 . S
C2844 C2843 1.355 . S
C2844 C2846 1.419 . S
C2845 C2840 1.425 . S
C2845 C2842 1.409 . S
C2845 C2843 1.415 . S
C2846 H2836 0.930 . S
C2846 C2844 1.419 . S
C2846 C2847 1.362 . S
C2847 H2837 0.930 . S
C2847 C2840 1.409 . S
C2847 C2846 1.362 . S
H2848 C2854 0.930 . S
H2849 C2857 0.930 . S
H2850 C2858 0.930 . S
H2851 C2859 0.930 . S
H2852 C2862 0.930 . S
H2853 C2863 0.930 . S
C2854 H2848 0.930 . S
C2854 C2855 1.355 . S
C2854 C2856 1.415 . S
C2855 C2854 1.355 . S
C2855 C2857 1.419 . S
C2856 C2854 1.415 . S
C2856 C2861 1.425 . S
C2856 C2863 1.409 . S
C2857 H2849 0.930 . S
C2857 C2855 1.419 . S
C2857 C2858 1.362 . S
C2858 H2850 0.930 . S
C2858 C2857 1.362 . S
C2858 C2861 1.409 . S
C2859 H2851 0.930 . S
C2859 C2860 1.355 . S
C2859 C2861 1.415 . S
C2860 C2859 1.355 . S
C2860 C2862 1.419 . S
C2861 C2856 1.425 . S
C2861 C2858 1.409 . S
C2861 C2859 1.415 . S
C2862 H2852 0.930 . S
C2862 C2860 1.419 . S
C2862 C2863 1.362 . S
C2863 H2853 0.930 . S
C2863 C2856 1.409 . S
C2863 C2862 1.362 . S
H2864 C2870 0.930 . S
H2865 C2873 0.930 . S
H2866 C2874 0.930 . S
H2867 C2875 0.930 . S
H2868 C2878 0.930 . S
H2869 C2879 0.930 . S
C2870 H2864 0.930 . S
C2870 C2871 1.355 . S
C2870 C2872 1.415 . S
C2871 C2870 1.355 . S
C2871 C2873 1.419 . S
C2872 C2870 1.415 . S
C2872 C2877 1.425 . S
C2872 C2879 1.409 . S
C2873 H2865 0.930 . S
C2873 C2871 1.419 . S
C2873 C2874 1.362 . S
C2874 H2866 0.930 . S
C2874 C2873 1.362 . S
C2874 C2877 1.409 . S
C2875 H2867 0.930 . S
C2875 C2876 1.355 . S
C2875 C2877 1.415 . S
C2876 C2875 1.355 . S
C2876 C2878 1.419 . S
C2877 C2872 1.425 . S
C2877 C2874 1.409 . S
C2877 C2875 1.415 . S
C2878 H2868 0.930 . S
C2878 C2876 1.419 . S
C2878 C2879 1.362 . S
C2879 H2869 0.930 . S
C2879 C2872 1.409 . S
C2879 C2878 1.362 . S
H2880 C2886 0.930 . S
H2881 C2889 0.930 . S
H2882 C2890 0.930 . S
H2883 C2891 0.930 . S
H2884 C2894 0.930 . S
H2885 C2895 0.930 . S
C2886 H2880 0.930 . S
C2886 C2887 1.355 . S
C2886 C2888 1.415 . S
C2887 C2886 1.355 . S
C2887 C2889 1.419 . S
C2888 C2886 1.415 . S
C2888 C2893 1.425 1_455 S
C2888 C2895 1.409 1_455 S
C2889 H2881 0.930 . S
C2889 C2887 1.419 . S
C2889 C2890 1.362 . S
C2890 H2882 0.930 . S
C2890 C2889 1.362 . S
C2890 C2893 1.409 1_455 S
C2891 H2883 0.930 . S
C2891 C2892 1.355 . S
C2891 C2893 1.415 . S
C2892 C2891 1.355 . S
C2892 C2894 1.419 . S
C2893 C2888 1.425 1_655 S
C2893 C2890 1.409 1_655 S
C2893 C2891 1.415 . S
C2894 H2884 0.930 . S
C2894 C2892 1.419 . S
C2894 C2895 1.362 . S
C2895 H2885 0.930 . S
C2895 C2888 1.409 1_655 S
C2895 C2894 1.362 . S
H2896 C2902 0.930 . S
H2897 C2905 0.930 . S
H2898 C2906 0.930 . S
H2899 C2907 0.930 . S
H2900 C2910 0.930 . S
H2901 C2911 0.930 . S
C2902 H2896 0.930 . S
C2902 C2903 1.355 . S
C2902 C2904 1.415 . S
C2903 C2902 1.355 . S
C2903 C2905 1.419 . S
C2904 C2902 1.415 . S
C2904 C2909 1.425 1_565 S
C2904 C2911 1.409 1_565 S
C2905 H2897 0.930 . S
C2905 C2903 1.419 . S
C2905 C2906 1.362 . S
C2906 H2898 0.930 . S
C2906 C2905 1.362 . S
C2906 C2909 1.409 1_565 S
C2907 H2899 0.930 . S
C2907 C2908 1.355 . S
C2907 C2909 1.415 . S
C2908 C2907 1.355 . S
C2908 C2910 1.419 . S
C2909 C2904 1.425 1_545 S
C2909 C2906 1.409 1_545 S
C2909 C2907 1.415 . S
C2910 H2900 0.930 . S
C2910 C2908 1.419 . S
C2910 C2911 1.362 . S
C2911 H2901 0.930 . S
C2911 C2904 1.409 1_545 S
C2911 C2910 1.362 . S
H2912 C2918 0.930 . S
H2913 C2921 0.930 . S
H2914 C2922 0.930 . S
H2915 C2923 0.930 . S
H2916 C2926 0.930 . S
H2917 C2927 0.930 . S
C2918 H2912 0.930 . S
C2918 C2919 1.355 . S
C2918 C2920 1.415 . S
C2919 C2918 1.355 . S
C2919 C2921 1.419 . S
C2920 C2918 1.415 . S
C2920 C2925 1.425 1_655 S
C2920 C2927 1.409 1_655 S
C2921 H2913 0.930 . S
C2921 C2919 1.419 . S
C2921 C2922 1.362 . S
C2922 H2914 0.930 . S
C2922 C2921 1.362 . S
C2922 C2925 1.409 1_655 S
C2923 H2915 0.930 . S
C2923 C2924 1.355 . S
C2923 C2925 1.415 . S
C2924 C2923 1.355 . S
C2924 C2926 1.419 . S
C2925 C2920 1.425 1_455 S
C2925 C2922 1.409 1_455 S
C2925 C2923 1.415 . S
C2926 H2916 0.930 . S
C2926 C2924 1.419 . S
C2926 C2927 1.362 . S
C2927 H2917 0.930 . S
C2927 C2920 1.409 1_455 S
C2927 C2926 1.362 . S
H2928 C2934 0.930 . S
H2929 C2937 0.930 . S
H2930 C2938 0.930 . S
H2931 C2939 0.930 . S
H2932 C2942 0.930 . S
H2933 C2943 0.930 . S
C2934 H2928 0.930 . S
C2934 C2935 1.355 . S
C2934 C2936 1.415 . S
C2935 C2934 1.355 . S
C2935 C2937 1.419 . S
C2936 C2934 1.415 . S
C2936 C2941 1.425 1_545 S
C2936 C2943 1.409 1_545 S
C2937 H2929 0.930 . S
C2937 C2935 1.419 . S
C2937 C2938 1.362 . S
C2938 H2930 0.930 . S
C2938 C2937 1.362 . S
C2938 C2941 1.409 1_545 S
C2939 H2931 0.930 . S
C2939 C2940 1.355 . S
C2939 C2941 1.415 . S
C2940 C2939 1.355 . S
C2940 C2942 1.419 . S
C2941 C2936 1.425 1_565 S
C2941 C2938 1.409 1_565 S
C2941 C2939 1.415 . S
C2942 H2932 0.930 . S
C2942 C2940 1.419 . S
C2942 C2943 1.362 . S
C2943 H2933 0.930 . S
C2943 C2936 1.409 1_565 S
C2943 C2942 1.362 . S
H2944 C2950 0.930 . S
H2945 C2953 0.930 . S
H2946 C2954 0.930 . S
H2947 C2955 0.930 . S
H2948 C2958 0.930 . S
H2949 C2959 0.930 . S
C2950 H2944 0.930 . S
C2950 C2951 1.355 . S
C2950 C2952 1.415 . S
C2951 C2950 1.355 . S
C2951 C2953 1.419 . S
C2952 C2950 1.415 . S
C2952 C2957 1.425 1_455 S
C2952 C2959 1.409 1_455 S
C2953 H2945 0.930 . S
C2953 C2951 1.419 . S
C2953 C2954 1.362 . S
C2954 H2946 0.930 . S
C2954 C2953 1.362 . S
C2954 C2957 1.409 1_455 S
C2955 H2947 0.930 . S
C2955 C2956 1.355 . S
C2955 C2957 1.415 . S
C2956 C2955 1.355 . S
C2956 C2958 1.419 . S
C2957 C2952 1.425 1_655 S
C2957 C2954 1.409 1_655 S
C2957 C2955 1.415 . S
C2958 H2948 0.930 . S
C2958 C2956 1.419 . S
C2958 C2959 1.362 . S
C2959 H2949 0.930 . S
C2959 C2952 1.409 1_655 S
C2959 C2958 1.362 . S
H2960 C2966 0.930 . S
H2961 C2969 0.930 . S
H2962 C2970 0.930 . S
H2963 C2971 0.930 . S
H2964 C2974 0.930 . S
H2965 C2975 0.930 . S
C2966 H2960 0.930 . S
C2966 C2967 1.355 . S
C2966 C2968 1.415 . S
C2967 C2966 1.355 . S
C2967 C2969 1.419 . S
C2968 C2966 1.415 . S
C2968 C2973 1.425 1_545 S
C2968 C2975 1.409 1_545 S
C2969 H2961 0.930 . S
C2969 C2967 1.419 . S
C2969 C2970 1.362 . S
C2970 H2962 0.930 . S
C2970 C2969 1.362 . S
C2970 C2973 1.409 1_545 S
C2971 H2963 0.930 . S
C2971 C2972 1.355 . S
C2971 C2973 1.415 . S
C2972 C2971 1.355 . S
C2972 C2974 1.419 . S
C2973 C2968 1.425 1_565 S
C2973 C2970 1.409 1_565 S
C2973 C2971 1.415 . S
C2974 H2964 0.930 . S
C2974 C2972 1.419 . S
C2974 C2975 1.362 . S
C2975 H2965 0.930 . S
C2975 C2968 1.409 1_565 S
C2975 C2974 1.362 . S
H2976 C2982 0.930 . S
H2977 C2985 0.930 . S
H2978 C2986 0.930 . S
H2979 C2987 0.930 . S
H2980 C2990 0.930 . S
H2981 C2991 0.930 . S
C2982 H2976 0.930 . S
C2982 C2983 1.355 . S
C2982 C2984 1.415 . S
C2983 C2982 1.355 . S
C2983 C2985 1.419 . S
C2984 C2982 1.415 . S
C2984 C2989 1.425 1_655 S
C2984 C2991 1.409 1_655 S
C2985 H2977 0.930 . S
C2985 C2983 1.419 . S
C2985 C2986 1.362 . S
C2986 H2978 0.930 . S
C2986 C2985 1.362 . S
C2986 C2989 1.409 1_655 S
C2987 H2979 0.930 . S
C2987 C2988 1.355 . S
C2987 C2989 1.415 . S
C2988 C2987 1.355 . S
C2988 C2990 1.419 . S
C2989 C2984 1.425 1_455 S
C2989 C2986 1.409 1_455 S
C2989 C2987 1.415 . S
C2990 H2980 0.930 . S
C2990 C2988 1.419 . S
C2990 C2991 1.362 . S
C2991 H2981 0.930 . S
C2991 C2984 1.409 1_455 S
C2991 C2990 1.362 . S
H2992 C2998 0.930 . S
H2993 C3001 0.930 . S
H2994 C3002 0.930 . S
H2995 C3003 0.930 . S
H2996 C3006 0.930 . S
H2997 C3007 0.930 . S
C2998 H2992 0.930 . S
C2998 C2999 1.355 . S
C2998 C3000 1.415 . S
C2999 C2998 1.355 . S
C2999 C3001 1.419 . S
C3000 C2998 1.415 . S
C3000 C3005 1.425 1_545 S
C3000 C3007 1.409 1_545 S
C3001 H2993 0.930 . S
C3001 C2999 1.419 . S
C3001 C3002 1.362 . S
C3002 H2994 0.930 . S
C3002 C3001 1.362 . S
C3002 C3005 1.409 1_545 S
C3003 H2995 0.930 . S
C3003 C3004 1.355 . S
C3003 C3005 1.415 . S
C3004 C3003 1.355 . S
C3004 C3006 1.419 . S
C3005 C3000 1.425 1_565 S
C3005 C3002 1.409 1_565 S
C3005 C3003 1.415 . S
C3006 H2996 0.930 . S
C3006 C3004 1.419 . S
C3006 C3007 1.362 . S
C3007 H2997 0.930 . S
C3007 C3000 1.409 1_565 S
C3007 C3006 1.362 . S
H3008 C3014 0.930 . S
H3009 C3017 0.930 . S
H3010 C3018 0.930 . S
H3011 C3019 0.930 . S
H3012 C3022 0.930 . S
H3013 C3023 0.930 . S
C3014 H3008 0.930 . S
C3014 C3015 1.355 . S
C3014 C3016 1.415 . S
C3015 C3014 1.355 . S
C3015 C3017 1.419 . S
C3016 C3014 1.415 . S
C3016 C3021 1.425 1_565 S
C3016 C3023 1.409 1_565 S
C3017 H3009 0.930 . S
C3017 C3015 1.419 . S
C3017 C3018 1.362 . S
C3018 H3010 0.930 . S
C3018 C3017 1.362 . S
C3018 C3021 1.409 1_565 S
C3019 H3011 0.930 . S
C3019 C3020 1.355 . S
C3019 C3021 1.415 . S
C3020 C3019 1.355 . S
C3020 C3022 1.419 . S
C3021 C3016 1.425 1_545 S
C3021 C3018 1.409 1_545 S
C3021 C3019 1.415 . S
C3022 H3012 0.930 . S
C3022 C3020 1.419 . S
C3022 C3023 1.362 . S
C3023 H3013 0.930 . S
C3023 C3016 1.409 1_545 S
C3023 C3022 1.362 . S
H3024 C3030 0.930 . S
H3025 C3033 0.930 . S
H3026 C3034 0.930 . S
H3027 C3035 0.930 . S
H3028 C3038 0.930 . S
H3029 C3039 0.930 . S
C3030 H3024 0.930 . S
C3030 C3031 1.355 . S
C3030 C3032 1.415 . S
C3031 C3030 1.355 . S
C3031 C3033 1.419 . S
C3032 C3030 1.415 . S
C3032 C3037 1.425 1_655 S
C3032 C3039 1.409 1_655 S
C3033 H3025 0.930 . S
C3033 C3031 1.419 . S
C3033 C3034 1.362 . S
C3034 H3026 0.930 . S
C3034 C3033 1.362 . S
C3034 C3037 1.409 1_655 S
C3035 H3027 0.930 . S
C3035 C3036 1.355 . S
C3035 C3037 1.415 . S
C3036 C3035 1.355 . S
C3036 C3038 1.419 . S
C3037 C3032 1.425 1_455 S
C3037 C3034 1.409 1_455 S
C3037 C3035 1.415 . S
C3038 H3028 0.930 . S
C3038 C3036 1.419 . S
C3038 C3039 1.362 . S
C3039 H3029 0.930 . S
C3039 C3032 1.409 1_455 S
C3039 C3038 1.362 . S
H3040 C3046 0.930 . S
H3041 C3049 0.930 . S
H3042 C3050 0.930 . S
H3043 C3051 0.930 . S
H3044 C3054 0.930 . S
H3045 C3055 0.930 . S
C3046 H3040 0.930 . S
C3046 C3047 1.355 . S
C3046 C3048 1.415 . S
C3047 C3046 1.355 . S
C3047 C3049 1.419 . S
C3048 C3046 1.415 . S
C3048 C3053 1.425 1_565 S
C3048 C3055 1.409 1_565 S
C3049 H3041 0.930 . S
C3049 C3047 1.419 . S
C3049 C3050 1.362 . S
C3050 H3042 0.930 . S
C3050 C3049 1.362 . S
C3050 C3053 1.409 1_565 S
C3051 H3043 0.930 . S
C3051 C3052 1.355 . S
C3051 C3053 1.415 . S
C3052 C3051 1.355 . S
C3052 C3054 1.419 . S
C3053 C3048 1.425 1_545 S
C3053 C3050 1.409 1_545 S
C3053 C3051 1.415 . S
C3054 H3044 0.930 . S
C3054 C3052 1.419 . S
C3054 C3055 1.362 . S
C3055 H3045 0.930 . S
C3055 C3048 1.409 1_545 S
C3055 C3054 1.362 . S
H3056 C3062 0.930 . S
H3057 C3065 0.930 . S
H3058 C3066 0.930 . S
H3059 C3067 0.930 . S
H3060 C3070 0.930 . S
H3061 C3071 0.930 . S
C3062 H3056 0.930 . S
C3062 C3063 1.355 . S
C3062 C3064 1.415 . S
C3063 C3062 1.355 . S
C3063 C3065 1.419 . S
C3064 C3062 1.415 . S
C3064 C3069 1.425 1_455 S
C3064 C3071 1.409 1_455 S
C3065 H3057 0.930 . S
C3065 C3063 1.419 . S
C3065 C3066 1.362 . S
C3066 H3058 0.930 . S
C3066 C3065 1.362 . S
C3066 C3069 1.409 1_455 S
C3067 H3059 0.930 . S
C3067 C3068 1.355 . S
C3067 C3069 1.415 . S
C3068 C3067 1.355 . S
C3068 C3070 1.419 . S
C3069 C3064 1.425 1_655 S
C3069 C3066 1.409 1_655 S
C3069 C3067 1.415 . S
C3070 H3060 0.930 . S
C3070 C3068 1.419 . S
C3070 C3071 1.362 . S
C3071 H3061 0.930 . S
C3071 C3064 1.409 1_655 S
C3071 C3070 1.362 . S
H3072 C3078 0.930 . S
H3073 C3081 0.930 . S
H3074 C3082 0.930 . S
H3075 C3083 0.930 . S
H3076 C3086 0.930 . S
H3077 C3087 0.930 . S
C3078 H3072 0.930 . S
C3078 C3079 1.355 . S
C3078 C3080 1.415 . S
C3079 C3078 1.355 . S
C3079 C3081 1.419 . S
C3080 C3078 1.415 . S
C3080 C3085 1.425 1_565 S
C3080 C3087 1.409 1_565 S
C3081 H3073 0.930 . S
C3081 C3079 1.419 . S
C3081 C3082 1.362 . S
C3082 H3074 0.930 . S
C3082 C3081 1.362 . S
C3082 C3085 1.409 1_565 S
C3083 H3075 0.930 . S
C3083 C3084 1.355 . S
C3083 C3085 1.415 . S
C3084 C3083 1.355 . S
C3084 C3086 1.419 . S
C3085 C3080 1.425 1_545 S
C3085 C3082 1.409 1_545 S
C3085 C3083 1.415 . S
C3086 H3076 0.930 . S
C3086 C3084 1.419 . S
C3086 C3087 1.362 . S
C3087 H3077 0.930 . S
C3087 C3080 1.409 1_545 S
C3087 C3086 1.362 . S
H3088 C3094 0.930 . S
H3089 C3097 0.930 . S
H3090 C3098 0.930 . S
H3091 C3099 0.930 . S
H3092 C3102 0.930 . S
H3093 C3103 0.930 . S
C3094 H3088 0.930 . S
C3094 C3095 1.355 . S
C3094 C3096 1.415 . S
C3095 C3094 1.355 . S
C3095 C3097 1.419 . S
C3096 C3094 1.415 . S
C3096 C3101 1.425 1_455 S
C3096 C3103 1.409 1_455 S
C3097 H3089 0.930 . S
C3097 C3095 1.419 . S
C3097 C3098 1.362 . S
C3098 H3090 0.930 . S
C3098 C3097 1.362 . S
C3098 C3101 1.409 1_455 S
C3099 H3091 0.930 . S
C3099 C3100 1.355 . S
C3099 C3101 1.415 . S
C3100 C3099 1.355 . S
C3100 C3102 1.419 . S
C3101 C3096 1.425 1_655 S
C3101 C3098 1.409 1_655 S
C3101 C3099 1.415 . S
C3102 H3092 0.930 . S
C3102 C3100 1.419 . S
C3102 C3103 1.362 . S
C3103 H3093 0.930 . S
C3103 C3096 1.409 1_655 S
C3103 C3102 1.362 . S
H3104 C3110 0.930 . S
H3105 C3113 0.930 . S
H3106 C3114 0.930 . S
H3107 C3115 0.930 . S
H3108 C3118 0.930 . S
H3109 C3119 0.930 . S
C3110 H3104 0.930 . S
C3110 C3111 1.355 . S
C3110 C3112 1.415 . S
C3111 C3110 1.355 . S
C3111 C3113 1.419 . S
C3112 C3110 1.415 . S
C3112 C3117 1.425 1_545 S
C3112 C3119 1.409 1_545 S
C3113 H3105 0.930 . S
C3113 C3111 1.419 . S
C3113 C3114 1.362 . S
C3114 H3106 0.930 . S
C3114 C3113 1.362 . S
C3114 C3117 1.409 1_545 S
C3115 H3107 0.930 . S
C3115 C3116 1.355 . S
C3115 C3117 1.415 . S
C3116 C3115 1.355 . S
C3116 C3118 1.419 . S
C3117 C3112 1.425 1_565 S
C3117 C3114 1.409 1_565 S
C3117 C3115 1.415 . S
C3118 H3108 0.930 . S
C3118 C3116 1.419 . S
C3118 C3119 1.362 . S
C3119 H3109 0.930 . S
C3119 C3112 1.409 1_565 S
C3119 C3118 1.362 . S
H3120 C3126 0.930 . S
H3121 C3129 0.930 . S
H3122 C3130 0.930 . S
H3123 C3131 0.930 . S
H3124 C3134 0.930 . S
H3125 C3135 0.930 . S
C3126 H3120 0.930 . S
C3126 C3127 1.355 . S
C3126 C3128 1.415 . S
C3127 C3126 1.355 . S
C3127 C3129 1.419 . S
C3128 C3126 1.415 . S
C3128 C3133 1.425 1_655 S
C3128 C3135 1.409 1_655 S
C3129 H3121 0.930 . S
C3129 C3127 1.419 . S
C3129 C3130 1.362 . S
C3130 H3122 0.930 . S
C3130 C3129 1.362 . S
C3130 C3133 1.409 1_655 S
C3131 H3123 0.930 . S
C3131 C3132 1.355 . S
C3131 C3133 1.415 . S
C3132 C3131 1.355 . S
C3132 C3134 1.419 . S
C3133 C3128 1.425 1_455 S
C3133 C3130 1.409 1_455 S
C3133 C3131 1.415 . S
C3134 H3124 0.930 . S
C3134 C3132 1.419 . S
C3134 C3135 1.362 . S
C3135 H3125 0.930 . S
C3135 C3128 1.409 1_455 S
C3135 C3134 1.362 . S
H3136 C3142 0.930 . S
H3137 C3145 0.930 . S
H3138 C3146 0.930 . S
H3139 C3147 0.930 . S
H3140 C3150 0.930 . S
H3141 C3151 0.930 . S
C3142 H3136 0.930 . S
C3142 C3143 1.355 . S
C3142 C3144 1.415 . S
C3143 C3142 1.355 . S
C3143 C3145 1.419 . S
C3144 C3142 1.415 . S
C3144 C3149 1.425 1_554 S
C3144 C3151 1.409 1_554 S
C3145 H3137 0.930 . S
C3145 C3143 1.419 . S
C3145 C3146 1.362 . S
C3146 H3138 0.930 . S
C3146 C3145 1.362 . S
C3146 C3149 1.409 1_554 S
C3147 H3139 0.930 . S
C3147 C3148 1.355 . S
C3147 C3149 1.415 . S
C3148 C3147 1.355 . S
C3148 C3150 1.419 . S
C3149 C3144 1.425 1_556 S
C3149 C3146 1.409 1_556 S
C3149 C3147 1.415 . S
C3150 H3140 0.930 . S
C3150 C3148 1.419 . S
C3150 C3151 1.362 . S
C3151 H3141 0.930 . S
C3151 C3144 1.409 1_556 S
C3151 C3150 1.362 . S
H3152 C3158 0.930 . S
H3153 C3161 0.930 . S
H3154 C3162 0.930 . S
H3155 C3163 0.930 . S
H3156 C3166 0.930 . S
H3157 C3167 0.930 . S
C3158 H3152 0.930 . S
C3158 C3159 1.355 . S
C3158 C3160 1.415 . S
C3159 C3158 1.355 . S
C3159 C3161 1.419 . S
C3160 C3158 1.415 . S
C3160 C3165 1.425 1_556 S
C3160 C3167 1.409 1_556 S
C3161 H3153 0.930 . S
C3161 C3159 1.419 . S
C3161 C3162 1.362 . S
C3162 H3154 0.930 . S
C3162 C3161 1.362 . S
C3162 C3165 1.409 1_556 S
C3163 H3155 0.930 . S
C3163 C3164 1.355 . S
C3163 C3165 1.415 . S
C3164 C3163 1.355 . S
C3164 C3166 1.419 . S
C3165 C3160 1.425 1_554 S
C3165 C3162 1.409 1_554 S
C3165 C3163 1.415 . S
C3166 H3156 0.930 . S
C3166 C3164 1.419 . S
C3166 C3167 1.362 . S
C3167 H3157 0.930 . S
C3167 C3160 1.409 1_554 S
C3167 C3166 1.362 . S
H3168 C3174 0.930 . S
H3169 C3177 0.930 . S
H3170 C3178 0.930 . S
H3171 C3179 0.930 . S
H3172 C3182 0.930 . S
H3173 C3183 0.930 . S
C3174 H3168 0.930 . S
C3174 C3175 1.355 . S
C3174 C3176 1.415 . S
C3175 C3174 1.355 . S
C3175 C3177 1.419 . S
C3176 C3174 1.415 . S
C3176 C3181 1.425 1_554 S
C3176 C3183 1.409 1_554 S
C3177 H3169 0.930 . S
C3177 C3175 1.419 . S
C3177 C3178 1.362 . S
C3178 H3170 0.930 . S
C3178 C3177 1.362 . S
C3178 C3181 1.409 1_554 S
C3179 H3171 0.930 . S
C3179 C3180 1.355 . S
C3179 C3181 1.415 . S
C3180 C3179 1.355 . S
C3180 C3182 1.419 . S
C3181 C3176 1.425 1_556 S
C3181 C3178 1.409 1_556 S
C3181 C3179 1.415 . S
C3182 H3172 0.930 . S
C3182 C3180 1.419 . S
C3182 C3183 1.362 . S
C3183 H3173 0.930 . S
C3183 C3176 1.409 1_556 S
C3183 C3182 1.362 . S
H3184 C3190 0.930 . S
H3185 C3193 0.930 . S
H3186 C3194 0.930 . S
H3187 C3195 0.930 . S
H3188 C3198 0.930 . S
H3189 C3199 0.930 . S
C3190 H3184 0.930 . S
C3190 C3191 1.355 . S
C3190 C3192 1.415 . S
C3191 C3190 1.355 . S
C3191 C3193 1.419 . S
C3192 C3190 1.415 . S
C3192 C3197 1.425 1_556 S
C3192 C3199 1.409 1_556 S
C3193 H3185 0.930 . S
C3193 C3191 1.419 . S
C3193 C3194 1.362 . S
C3194 H3186 0.930 . S
C3194 C3193 1.362 . S
C3194 C3197 1.409 1_556 S
C3195 H3187 0.930 . S
C3195 C3196 1.355 . S
C3195 C3197 1.415 . S
C3196 C3195 1.355 . S
C3196 C3198 1.419 . S
C3197 C3192 1.425 1_554 S
C3197 C3194 1.409 1_554 S
C3197 C3195 1.415 . S
C3198 H3188 0.930 . S
C3198 C3196 1.419 . S
C3198 C3199 1.362 . S
C3199 H3189 0.930 . S
C3199 C3192 1.409 1_554 S
C3199 C3198 1.362 . S
H3200 C3206 0.930 . S
H3201 C3209 0.930 . S
H3202 C3210 0.930 . S
H3203 C3211 0.930 . S
H3204 C3214 0.930 . S
H3205 C3215 0.930 . S
C3206 H3200 0.930 . S
C3206 C3207 1.355 . S
C3206 C3208 1.415 . S
C3207 C3206 1.355 . S
C3207 C3209 1.419 . S
C3208 C3206 1.415 . S
C3208 C3213 1.425 1_554 S
C3208 C3215 1.409 1_554 S
C3209 H3201 0.930 . S
C3209 C3207 1.419 . S
C3209 C3210 1.362 . S
C3210 H3202 0.930 . S
C3210 C3209 1.362 . S
C3210 C3213 1.409 1_554 S
C3211 H3203 0.930 . S
C3211 C3212 1.355 . S
C3211 C3213 1.415 . S
C3212 C3211 1.355 . S
C3212 C3214 1.419 . S
C3213 C3208 1.425 1_556 S
C3213 C3210 1.409 1_556 S
C3213 C3211 1.415 . S
C3214 H3204 0.930 . S
C3214 C3212 1.419 . S
C3214 C3215 1.362 . S
C3215 H3205 0.930 . S
C3215 C3208 1.409 1_556 S
C3215 C3214 1.362 . S
H3216 C3222 0.930 . S
H3217 C3225 0.930 . S
H3218 C3226 0.930 . S
H3219 C3227 0.930 . S
H3220 C3230 0.930 . S
H3221 C3231 0.930 . S
C3222 H3216 0.930 . S
C3222 C3223 1.355 . S
C3222 C3224 1.415 . S
C3223 C3222 1.355 . S
C3223 C3225 1.419 . S
C3224 C3222 1.415 . S
C3224 C3229 1.425 1_554 S
C3224 C3231 1.409 1_554 S
C3225 H3217 0.930 . S
C3225 C3223 1.419 . S
C3225 C3226 1.362 . S
C3226 H3218 0.930 . S
C3226 C3225 1.362 . S
C3226 C3229 1.409 1_554 S
C3227 H3219 0.930 . S
C3227 C3228 1.355 . S
C3227 C3229 1.415 . S
C3228 C3227 1.355 . S
C3228 C3230 1.419 . S
C3229 C3224 1.425 1_556 S
C3229 C3226 1.409 1_556 S
C3229 C3227 1.415 . S
C3230 H3220 0.930 . S
C3230 C3228 1.419 . S
C3230 C3231 1.362 . S
C3231 H3221 0.930 . S
C3231 C3224 1.409 1_556 S
C3231 C3230 1.362 . S
H3232 C3238 0.930 . S
H3233 C3241 0.930 . S
H3234 C3242 0.930 . S
H3235 C3243 0.930 . S
H3236 C3246 0.930 . S
H3237 C3247 0.930 . S
C3238 H3232 0.930 . S
C3238 C3239 1.355 . S
C3238 C3240 1.415 . S
C3239 C3238 1.355 . S
C3239 C3241 1.419 . S
C3240 C3238 1.415 . S
C3240 C3245 1.425 1_554 S
C3240 C3247 1.409 1_554 S
C3241 H3233 0.930 . S
C3241 C3239 1.419 . S
C3241 C3242 1.362 . S
C3242 H3234 0.930 . S
C3242 C3241 1.362 . S
C3242 C3245 1.409 1_554 S
C3243 H3235 0.930 . S
C3243 C3244 1.355 . S
C3243 C3245 1.415 . S
C3244 C3243 1.355 . S
C3244 C3246 1.419 . S
C3245 C3240 1.425 1_556 S
C3245 C3242 1.409 1_556 S
C3245 C3243 1.415 . S
C3246 H3236 0.930 . S
C3246 C3244 1.419 . S
C3246 C3247 1.362 . S
C3247 H3237 0.930 . S
C3247 C3240 1.409 1_556 S
C3247 C3246 1.362 . S
H3248 C3254 0.930 . S
H3249 C3257 0.930 . S
H3250 C3258 0.930 . S
H3251 C3259 0.930 . S
H3252 C3262 0.930 . S
H3253 C3263 0.930 . S
C3254 H3248 0.930 . S
C3254 C3255 1.355 . S
C3254 C3256 1.415 . S
C3255 C3254 1.355 . S
C3255 C3257 1.419 . S
C3256 C3254 1.415 . S
C3256 C3261 1.425 1_556 S
C3256 C3263 1.409 1_556 S
C3257 H3249 0.930 . S
C3257 C3255 1.419 . S
C3257 C3258 1.362 . S
C3258 H3250 0.930 . S
C3258 C3257 1.362 . S
C3258 C3261 1.409 1_556 S
C3259 H3251 0.930 . S
C3259 C3260 1.355 . S
C3259 C3261 1.415 . S
C3260 C3259 1.355 . S
C3260 C3262 1.419 . S
C3261 C3256 1.425 1_554 S
C3261 C3258 1.409 1_554 S
C3261 C3259 1.415 . S
C3262 H3252 0.930 . S
C3262 C3260 1.419 . S
C3262 C3263 1.362 . S
C3263 H3253 0.930 . S
C3263 C3256 1.409 1_554 S
C3263 C3262 1.362 . S
H3264 C3270 0.930 . S
H3265 C3273 0.930 . S
H3266 C3274 0.930 . S
H3267 C3275 0.930 . S
H3268 C3278 0.930 . S
H3269 C3279 0.930 . S
C3270 H3264 0.930 . S
C3270 C3271 1.355 . S
C3270 C3272 1.415 . S
C3271 C3270 1.355 . S
C3271 C3273 1.419 . S
C3272 C3270 1.415 . S
C3272 C3277 1.425 . S
C3272 C3279 1.409 . S
C3273 H3265 0.930 . S
C3273 C3271 1.419 . S
C3273 C3274 1.362 . S
C3274 H3266 0.930 . S
C3274 C3273 1.362 . S
C3274 C3277 1.409 . S
C3275 H3267 0.930 . S
C3275 C3276 1.355 . S
C3275 C3277 1.415 . S
C3276 C3275 1.355 . S
C3276 C3278 1.419 . S
C3277 C3272 1.425 . S
C3277 C3274 1.409 . S
C3277 C3275 1.415 . S
C3278 H3268 0.930 . S
C3278 C3276 1.419 . S
C3278 C3279 1.362 . S
C3279 H3269 0.930 . S
C3279 C3272 1.409 . S
C3279 C3278 1.362 . S
H3280 C3286 0.930 . S
H3281 C3289 0.930 . S
H3282 C3290 0.930 . S
H3283 C3291 0.930 . S
H3284 C3294 0.930 . S
H3285 C3295 0.930 . S
C3286 H3280 0.930 . S
C3286 C3287 1.355 . S
C3286 C3288 1.415 . S
C3287 C3286 1.355 . S
C3287 C3289 1.419 . S
C3288 C3286 1.415 . S
C3288 C3293 1.425 . S
C3288 C3295 1.409 . S
C3289 H3281 0.930 . S
C3289 C3287 1.419 . S
C3289 C3290 1.362 . S
C3290 H3282 0.930 . S
C3290 C3289 1.362 . S
C3290 C3293 1.409 . S
C3291 H3283 0.930 . S
C3291 C3292 1.355 . S
C3291 C3293 1.415 . S
C3292 C3291 1.355 . S
C3292 C3294 1.419 . S
C3293 C3288 1.425 . S
C3293 C3290 1.409 . S
C3293 C3291 1.415 . S
C3294 H3284 0.930 . S
C3294 C3292 1.419 . S
C3294 C3295 1.362 . S
C3295 H3285 0.930 . S
C3295 C3288 1.409 . S
C3295 C3294 1.362 . S
H3296 C3302 0.930 . S
H3297 C3305 0.930 . S
H3298 C3306 0.930 . S
H3299 C3307 0.930 . S
H3300 C3310 0.930 . S
H3301 C3311 0.930 . S
C3302 H3296 0.930 . S
C3302 C3303 1.355 . S
C3302 C3304 1.415 . S
C3303 C3302 1.355 . S
C3303 C3305 1.419 . S
C3304 C3302 1.415 . S
C3304 C3309 1.425 . S
C3304 C3311 1.409 . S
C3305 H3297 0.930 . S
C3305 C3303 1.419 . S
C3305 C3306 1.362 . S
C3306 H3298 0.930 . S
C3306 C3305 1.362 . S
C3306 C3309 1.409 . S
C3307 H3299 0.930 . S
C3307 C3308 1.355 . S
C3307 C3309 1.415 . S
C3308 C3307 1.355 . S
C3308 C3310 1.419 . S
C3309 C3304 1.425 . S
C3309 C3306 1.409 . S
C3309 C3307 1.415 . S
C3310 H3300 0.930 . S
C3310 C3308 1.419 . S
C3310 C3311 1.362 . S
C3311 H3301 0.930 . S
C3311 C3304 1.409 . S
C3311 C3310 1.362 . S
H3312 C3318 0.930 . S
H3313 C3321 0.930 . S
H3314 C3322 0.930 . S
H3315 C3323 0.930 . S
H3316 C3326 0.930 . S
H3317 C3327 0.930 . S
C3318 H3312 0.930 . S
C3318 C3319 1.355 . S
C3318 C3320 1.415 . S
C3319 C3318 1.355 . S
C3319 C3321 1.419 . S
C3320 C3318 1.415 . S
C3320 C3325 1.425 . S
C3320 C3327 1.409 . S
C3321 H3313 0.930 . S
C3321 C3319 1.419 . S
C3321 C3322 1.362 . S
C3322 H3314 0.930 . S
C3322 C3321 1.362 . S
C3322 C3325 1.409 . S
C3323 H3315 0.930 . S
C3323 C3324 1.355 . S
C3323 C3325 1.415 . S
C3324 C3323 1.355 . S
C3324 C3326 1.419 . S
C3325 C3320 1.425 . S
C3325 C3322 1.409 . S
C3325 C3323 1.415 . S
C3326 H3316 0.930 . S
C3326 C3324 1.419 . S
C3326 C3327 1.362 . S
C3327 H3317 0.930 . S
C3327 C3320 1.409 . S
C3327 C3326 1.362 . S
H3328 C3334 0.930 . S
H3329 C3337 0.930 . S
H3330 C3338 0.930 . S
H3331 C3339 0.930 . S
H3332 C3342 0.930 . S
H3333 C3343 0.930 . S
C3334 H3328 0.930 . S
C3334 C3335 1.355 . S
C3334 C3336 1.415 . S
C3335 C3334 1.355 . S
C3335 C3337 1.419 . S
C3336 C3334 1.415 . S
C3336 C3341 1.425 . S
C3336 C3343 1.409 . S
C3337 H3329 0.930 . S
C3337 C3335 1.419 . S
C3337 C3338 1.362 . S
C3338 H3330 0.930 . S
C3338 C3337 1.362 . S
C3338 C3341 1.409 . S
C3339 H3331 0.930 . S
C3339 C3340 1.355 . S
C3339 C3341 1.415 . S
C3340 C3339 1.355 . S
C3340 C3342 1.419 . S
C3341 C3336 1.425 . S
C3341 C3338 1.409 . S
C3341 C3339 1.415 . S
C3342 H3332 0.930 . S
C3342 C3340 1.419 . S
C3342 C3343 1.362 . S
C3343 H3333 0.930 . S
C3343 C3336 1.409 . S
C3343 C3342 1.362 . S
H3344 C3350 0.930 . S
H3345 C3353 0.930 . S
H3346 C3354 0.930 . S
H3347 C3355 0.930 . S
H3348 C3358 0.930 . S
H3349 C3359 0.930 . S
C3350 H3344 0.930 . S
C3350 C3351 1.355 . S
C3350 C3352 1.415 . S
C3351 C3350 1.355 . S
C3351 C3353 1.419 . S
C3352 C3350 1.415 . S
C3352 C3357 1.425 . S
C3352 C3359 1.409 . S
C3353 H3345 0.930 . S
C3353 C3351 1.419 . S
C3353 C3354 1.362 . S
C3354 H3346 0.930 . S
C3354 C3353 1.362 . S
C3354 C3357 1.409 . S
C3355 H3347 0.930 . S
C3355 C3356 1.355 . S
C3355 C3357 1.415 . S
C3356 C3355 1.355 . S
C3356 C3358 1.419 . S
C3357 C3352 1.425 . S
C3357 C3354 1.409 . S
C3357 C3355 1.415 . S
C3358 H3348 0.930 . S
C3358 C3356 1.419 . S
C3358 C3359 1.362 . S
C3359 H3349 0.930 . S
C3359 C3352 1.409 . S
C3359 C3358 1.362 . S
H3360 C3366 0.930 . S
H3361 C3369 0.930 . S
H3362 C3370 0.930 . S
H3363 C3371 0.930 . S
H3364 C3374 0.930 . S
H3365 C3375 0.930 . S
C3366 H3360 0.930 . S
C3366 C3367 1.355 . S
C3366 C3368 1.415 . S
C3367 C3366 1.355 . S
C3367 C3369 1.419 . S
C3368 C3366 1.415 . S
C3368 C3373 1.425 . S
C3368 C3375 1.409 . S
C3369 H3361 0.930 . S
C3369 C3367 1.419 . S
C3369 C3370 1.362 . S
C3370 H3362 0.930 . S
C3370 C3369 1.362 . S
C3370 C3373 1.409 . S
C3371 H3363 0.930 . S
C3371 C3372 1.355 . S
C3371 C3373 1.415 . S
C3372 C3371 1.355 . S
C3372 C3374 1.419 . S
C3373 C3368 1.425 . S
C3373 C3370 1.409 . S
C3373 C3371 1.415 . S
C3374 H3364 0.930 . S
C3374 C3372 1.419 . S
C3374 C3375 1.362 . S
C3375 H3365 0.930 . S
C3375 C3368 1.409 . S
C3375 C3374 1.362 . S
H3376 C3382 0.930 . S
H3377 C3385 0.930 . S
H3378 C3386 0.930 . S
H3379 C3387 0.930 . S
H3380 C3390 0.930 . S
H3381 C3391 0.930 . S
C3382 H3376 0.930 . S
C3382 C3383 1.355 . S
C3382 C3384 1.415 . S
C3383 C3382 1.355 . S
C3383 C3385 1.419 . S
C3384 C3382 1.415 . S
C3384 C3389 1.425 . S
C3384 C3391 1.409 . S
C3385 H3377 0.930 . S
C3385 C3383 1.419 . S
C3385 C3386 1.362 . S
C3386 H3378 0.930 . S
C3386 C3385 1.362 . S
C3386 C3389 1.409 . S
C3387 H3379 0.930 . S
C3387 C3388 1.355 . S
C3387 C3389 1.415 . S
C3388 C3387 1.355 . S
C3388 C3390 1.419 . S
C3389 C3384 1.425 . S
C3389 C3386 1.409 . S
C3389 C3387 1.415 . S
C3390 H3380 0.930 . S
C3390 C3388 1.419 . S
C3390 C3391 1.362 . S
C3391 H3381 0.930 . S
C3391 C3384 1.409 . S
C3391 C3390 1.362 . S
H3392 C3398 0.930 . S
H3393 C3401 0.930 . S
H3394 C3402 0.930 . S
H3395 C3403 0.930 . S
H3396 C3406 0.930 . S
H3397 C3407 0.930 . S
C3398 H3392 0.930 . S
C3398 C3399 1.355 . S
C3398 C3400 1.415 . S
C3399 C3398 1.355 . S
C3399 C3401 1.419 . S
C3400 C3398 1.415 . S
C3400 C3405 1.425 . S
C3400 C3407 1.409 . S
C3401 H3393 0.930 . S
C3401 C3399 1.419 . S
C3401 C3402 1.362 . S
C3402 H3394 0.930 . S
C3402 C3401 1.362 . S
C3402 C3405 1.409 . S
C3403 H3395 0.930 . S
C3403 C3404 1.355 . S
C3403 C3405 1.415 . S
C3404 C3403 1.355 . S
C3404 C3406 1.419 . S
C3405 C3400 1.425 . S
C3405 C3402 1.409 . S
C3405 C3403 1.415 . S
C3406 H3396 0.930 . S
C3406 C3404 1.419 . S
C3406 C3407 1.362 . S
C3407 H3397 0.930 . S
C3407 C3400 1.409 . S
C3407 C3406 1.362 . S
H3408 C3414 0.930 . S
H3409 C3417 0.930 . S
H3410 C3418 0.930 . S
H3411 C3419 0.930 . S
H3412 C3422 0.930 . S
H3413 C3423 0.930 . S
C3414 H3408 0.930 . S
C3414 C3415 1.355 . S
C3414 C3416 1.415 . S
C3415 C3414 1.355 . S
C3415 C3417 1.419 . S
C3416 C3414 1.415 . S
C3416 C3421 1.425 . S
C3416 C3423 1.409 . S
C3417 H3409 0.930 . S
C3417 C3415 1.419 . S
C3417 C3418 1.362 . S
C3418 H3410 0.930 . S
C3418 C3417 1.362 . S
C3418 C3421 1.409 . S
C3419 H3411 0.930 . S
C3419 C3420 1.355 . S
C3419 C3421 1.415 . S
C3420 C3419 1.355 . S
C3420 C3422 1.419 . S
C3421 C3416 1.425 . S
C3421 C3418 1.409 . S
C3421 C3419 1.415 . S
C3422 H3412 0.930 . S
C3422 C3420 1.419 . S
C3422 C3423 1.362 . S
C3423 H3413 0.930 . S
C3423 C3416 1.409 . S
C3423 C3422 1.362 . S
H3424 C3430 0.930 . S
H3425 C3433 0.930 . S
H3426 C3434 0.930 . S
H3427 C3435 0.930 . S
H3428 C3438 0.930 . S
H3429 C3439 0.930 . S
C3430 H3424 0.930 . S
C3430 C3431 1.355 . S
C3430 C3432 1.415 . S
C3431 C3430 1.355 . S
C3431 C3433 1.419 . S
C3432 C3430 1.415 . S
C3432 C3437 1.425 . S
C3432 C3439 1.409 . S
C3433 H3425 0.930 . S
C3433 C3431 1.419 . S
C3433 C3434 1.362 . S
C3434 H3426 0.930 . S
C3434 C3433 1.362 . S
C3434 C3437 1.409 . S
C3435 H3427 0.930 . S
C3435 C3436 1.355 . S
C3435 C3437 1.415 . S
C3436 C3435 1.355 . S
C3436 C3438 1.419 . S
C3437 C3432 1.425 . S
C3437 C3434 1.409 . S
C3437 C3435 1.415 . S
C3438 H3428 0.930 . S
C3438 C3436 1.419 . S
C3438 C3439 1.362 . S
C3439 H3429 0.930 . S
C3439 C3432 1.409 . S
C3439 C3438 1.362 . S
H3440 C3446 0.930 . S
H3441 C3449 0.930 . S
H3442 C3450 0.930 . S
H3443 C3451 0.930 . S
H3444 C3454 0.930 . S
H3445 C3455 0.930 . S
C3446 H3440 0.930 . S
C3446 C3447 1.355 . S
C3446 C3448 1.415 . S
C3447 C3446 1.355 . S
C3447 C3449 1.419 . S
C3448 C3446 1.415 . S
C3448 C3453 1.425 . S
C3448 C3455 1.409 . S
C3449 H3441 0.930 . S
C3449 C3447 1.419 . S
C3449 C3450 1.362 . S
C3450 H3442 0.930 . S
C3450 C3449 1.362 . S
C3450 C3453 1.409 . S
C3451 H3443 0.930 . S
C3451 C3452 1.355 . S
C3451 C3453 1.415 . S
C3452 C3451 1.355 . S
C3452 C3454 1.419 . S
C3453 C3448 1.425 . S
C3453 C3450 1.409 . S
C3453 C3451 1.415 . S
C3454 H3444 0.930 . S
C3454 C3452 1.419 . S
C3454 C3455 1.362 . S
C3455 H3445 0.930 . S
C3455 C3448 1.409 . S
C3455 C3454 1.362 . S
H3456 C3462 0.930 . S
H3457 C3465 0.930 . S
H3458 C3466 0.930 . S
H3459 C3467 0.930 . S
H3460 C3470 0.930 . S
H3461 C3471 0.930 . S
C3462 H3456 0.930 . S
C3462 C3463 1.355 . S
C3462 C3464 1.415 . S
C3463 C3462 1.355 . S
C3463 C3465 1.419 . S
C3464 C3462 1.415 . S
C3464 C3469 1.425 . S
C3464 C3471 1.409 . S
C3465 H3457 0.930 . S
C3465 C3463 1.419 . S
C3465 C3466 1.362 . S
C3466 H3458 0.930 . S
C3466 C3465 1.362 . S
C3466 C3469 1.409 . S
C3467 H3459 0.930 . S
C3467 C3468 1.355 . S
C3467 C3469 1.415 . S
C3468 C3467 1.355 . S
C3468 C3470 1.419 . S
C3469 C3464 1.425 . S
C3469 C3466 1.409 . S
C3469 C3467 1.415 . S
C3470 H3460 0.930 . S
C3470 C3468 1.419 . S
C3470 C3471 1.362 . S
C3471 H3461 0.930 . S
C3471 C3464 1.409 . S
C3471 C3470 1.362 . S
H3472 C3478 0.930 . S
H3473 C3481 0.930 . S
H3474 C3482 0.930 . S
H3475 C3483 0.930 . S
H3476 C3486 0.930 . S
H3477 C3487 0.930 . S
C3478 H3472 0.930 . S
C3478 C3479 1.355 . S
C3478 C3480 1.415 . S
C3479 C3478 1.355 . S
C3479 C3481 1.419 . S
C3480 C3478 1.415 . S
C3480 C3485 1.425 . S
C3480 C3487 1.409 . S
C3481 H3473 0.930 . S
C3481 C3479 1.419 . S
C3481 C3482 1.362 . S
C3482 H3474 0.930 . S
C3482 C3481 1.362 . S
C3482 C3485 1.409 . S
C3483 H3475 0.930 . S
C3483 C3484 1.355 . S
C3483 C3485 1.415 . S
C3484 C3483 1.355 . S
C3484 C3486 1.419 . S
C3485 C3480 1.425 . S
C3485 C3482 1.409 . S
C3485 C3483 1.415 . S
C3486 H3476 0.930 . S
C3486 C3484 1.419 . S
C3486 C3487 1.362 . S
C3487 H3477 0.930 . S
C3487 C3480 1.409 . S
C3487 C3486 1.362 . S
H3488 C3494 0.930 . S
H3489 C3497 0.930 . S
H3490 C3498 0.930 . S
H3491 C3499 0.930 . S
H3492 C3502 0.930 . S
H3493 C3503 0.930 . S
C3494 H3488 0.930 . S
C3494 C3495 1.355 . S
C3494 C3496 1.415 . S
C3495 C3494 1.355 . S
C3495 C3497 1.419 . S
C3496 C3494 1.415 . S
C3496 C3501 1.425 . S
C3496 C3503 1.409 . S
C3497 H3489 0.930 . S
C3497 C3495 1.419 . S
C3497 C3498 1.362 . S
C3498 H3490 0.930 . S
C3498 C3497 1.362 . S
C3498 C3501 1.409 . S
C3499 H3491 0.930 . S
C3499 C3500 1.355 . S
C3499 C3501 1.415 . S
C3500 C3499 1.355 . S
C3500 C3502 1.419 . S
C3501 C3496 1.425 . S
C3501 C3498 1.409 . S
C3501 C3499 1.415 . S
C3502 H3492 0.930 . S
C3502 C3500 1.419 . S
C3502 C3503 1.362 . S
C3503 H3493 0.930 . S
C3503 C3496 1.409 . S
C3503 C3502 1.362 . S
H3504 C3510 0.930 . S
H3505 C3513 0.930 . S
H3506 C3514 0.930 . S
H3507 C3515 0.930 . S
H3508 C3518 0.930 . S
H3509 C3519 0.930 . S
C3510 H3504 0.930 . S
C3510 C3511 1.355 . S
C3510 C3512 1.415 . S
C3511 C3510 1.355 . S
C3511 C3513 1.419 . S
C3512 C3510 1.415 . S
C3512 C3517 1.425 . S
C3512 C3519 1.409 . S
C3513 H3505 0.930 . S
C3513 C3511 1.419 . S
C3513 C3514 1.362 . S
C3514 H3506 0.930 . S
C3514 C3513 1.362 . S
C3514 C3517 1.409 . S
C3515 H3507 0.930 . S
C3515 C3516 1.355 . S
C3515 C3517 1.415 . S
C3516 C3515 1.355 . S
C3516 C3518 1.419 . S
C3517 C3512 1.425 . S
C3517 C3514 1.409 . S
C3517 C3515 1.415 . S
C3518 H3508 0.930 . S
C3518 C3516 1.419 . S
C3518 C3519 1.362 . S
C3519 H3509 0.930 . S
C3519 C3512 1.409 . S
C3519 C3518 1.362 . S
H3520 C3526 0.930 . S
H3521 C3529 0.930 . S
H3522 C3530 0.930 . S
H3523 C3531 0.930 . S
H3524 C3534 0.930 . S
H3525 C3535 0.930 . S
C3526 H3520 0.930 . S
C3526 C3527 1.355 . S
C3526 C3528 1.415 . S
C3527 C3526 1.355 . S
C3527 C3529 1.419 . S
C3528 C3526 1.415 . S
C3528 C3533 1.425 . S
C3528 C3535 1.409 . S
C3529 H3521 0.930 . S
C3529 C3527 1.419 . S
C3529 C3530 1.362 . S
C3530 H3522 0.930 . S
C3530 C3529 1.362 . S
C3530 C3533 1.409 . S
C3531 H3523 0.930 . S
C3531 C3532 1.355 . S
C3531 C3533 1.415 . S
C3532 C3531 1.355 . S
C3532 C3534 1.419 . S
C3533 C3528 1.425 . S
C3533 C3530 1.409 . S
C3533 C3531 1.415 . S
C3534 H3524 0.930 . S
C3534 C3532 1.419 . S
C3534 C3535 1.362 . S
C3535 H3525 0.930 . S
C3535 C3528 1.409 . S
C3535 C3534 1.362 . S
H3536 C3542 0.930 . S
H3537 C3545 0.930 . S
H3538 C3546 0.930 . S
H3539 C3547 0.930 . S
H3540 C3550 0.930 . S
H3541 C3551 0.930 . S
C3542 H3536 0.930 . S
C3542 C3543 1.355 . S
C3542 C3544 1.415 . S
C3543 C3542 1.355 . S
C3543 C3545 1.419 . S
C3544 C3542 1.415 . S
C3544 C3549 1.425 . S
C3544 C3551 1.409 . S
C3545 H3537 0.930 . S
C3545 C3543 1.419 . S
C3545 C3546 1.362 . S
C3546 H3538 0.930 . S
C3546 C3545 1.362 . S
C3546 C3549 1.409 . S
C3547 H3539 0.930 . S
C3547 C3548 1.355 . S
C3547 C3549 1.415 . S
C3548 C3547 1.355 . S
C3548 C3550 1.419 . S
C3549 C3544 1.425 . S
C3549 C3546 1.409 . S
C3549 C3547 1.415 . S
C3550 H3540 0.930 . S
C3550 C3548 1.419 . S
C3550 C3551 1.362 . S
C3551 H3541 0.930 . S
C3551 C3544 1.409 . S
C3551 C3550 1.362 . S
H3552 C3558 0.930 . S
H3553 C3561 0.930 . S
H3554 C3562 0.930 . S
H3555 C3563 0.930 . S
H3556 C3566 0.930 . S
H3557 C3567 0.930 . S
C3558 H3552 0.930 . S
C3558 C3559 1.355 . S
C3558 C3560 1.415 . S
C3559 C3558 1.355 . S
C3559 C3561 1.419 . S
C3560 C3558 1.415 . S
C3560 C3565 1.425 . S
C3560 C3567 1.409 . S
C3561 H3553 0.930 . S
C3561 C3559 1.419 . S
C3561 C3562 1.362 . S
C3562 H3554 0.930 . S
C3562 C3561 1.362 . S
C3562 C3565 1.409 . S
C3563 H3555 0.930 . S
C3563 C3564 1.355 . S
C3563 C3565 1.415 . S
C3564 C3563 1.355 . S
C3564 C3566 1.419 . S
C3565 C3560 1.425 . S
C3565 C3562 1.409 . S
C3565 C3563 1.415 . S
C3566 H3556 0.930 . S
C3566 C3564 1.419 . S
C3566 C3567 1.362 . S
C3567 H3557 0.930 . S
C3567 C3560 1.409 . S
C3567 C3566 1.362 . S
H3568 C3574 0.930 . S
H3569 C3577 0.930 . S
H3570 C3578 0.930 . S
H3571 C3579 0.930 . S
H3572 C3582 0.930 . S
H3573 C3583 0.930 . S
C3574 H3568 0.930 . S
C3574 C3575 1.355 . S
C3574 C3576 1.415 . S
C3575 C3574 1.355 . S
C3575 C3577 1.419 . S
C3576 C3574 1.415 . S
C3576 C3581 1.425 . S
C3576 C3583 1.409 . S
C3577 H3569 0.930 . S
C3577 C3575 1.419 . S
C3577 C3578 1.362 . S
C3578 H3570 0.930 . S
C3578 C3577 1.362 . S
C3578 C3581 1.409 . S
C3579 H3571 0.930 . S
C3579 C3580 1.355 . S
C3579 C3581 1.415 . S
C3580 C3579 1.355 . S
C3580 C3582 1.419 . S
C3581 C3576 1.425 . S
C3581 C3578 1.409 . S
C3581 C3579 1.415 . S
C3582 H3572 0.930 . S
C3582 C3580 1.419 . S
C3582 C3583 1.362 . S
C3583 H3573 0.930 . S
C3583 C3576 1.409 . S
C3583 C3582 1.362 . S
H3584 C3590 0.930 . S
H3585 C3593 0.930 . S
H3586 C3594 0.930 . S
H3587 C3595 0.930 . S
H3588 C3598 0.930 . S
H3589 C3599 0.930 . S
C3590 H3584 0.930 . S
C3590 C3591 1.355 . S
C3590 C3592 1.415 . S
C3591 C3590 1.355 . S
C3591 C3593 1.419 . S
C3592 C3590 1.415 . S
C3592 C3597 1.425 . S
C3592 C3599 1.409 . S
C3593 H3585 0.930 . S
C3593 C3591 1.419 . S
C3593 C3594 1.362 . S
C3594 H3586 0.930 . S
C3594 C3593 1.362 . S
C3594 C3597 1.409 . S
C3595 H3587 0.930 . S
C3595 C3596 1.355 . S
C3595 C3597 1.415 . S
C3596 C3595 1.355 . S
C3596 C3598 1.419 . S
C3597 C3592 1.425 . S
C3597 C3594 1.409 . S
C3597 C3595 1.415 . S
C3598 H3588 0.930 . S
C3598 C3596 1.419 . S
C3598 C3599 1.362 . S
C3599 H3589 0.930 . S
C3599 C3592 1.409 . S
C3599 C3598 1.362 . S
H3600 C3606 0.930 . S
H3601 C3609 0.930 . S
H3602 C3610 0.930 . S
H3603 C3611 0.930 . S
H3604 C3614 0.930 . S
H3605 C3615 0.930 . S
C3606 H3600 0.930 . S
C3606 C3607 1.355 . S
C3606 C3608 1.415 . S
C3607 C3606 1.355 . S
C3607 C3609 1.419 . S
C3608 C3606 1.415 . S
C3608 C3613 1.425 . S
C3608 C3615 1.409 . S
C3609 H3601 0.930 . S
C3609 C3607 1.419 . S
C3609 C3610 1.362 . S
C3610 H3602 0.930 . S
C3610 C3609 1.362 . S
C3610 C3613 1.409 . S
C3611 H3603 0.930 . S
C3611 C3612 1.355 . S
C3611 C3613 1.415 . S
C3612 C3611 1.355 . S
C3612 C3614 1.419 . S
C3613 C3608 1.425 . S
C3613 C3610 1.409 . S
C3613 C3611 1.415 . S
C3614 H3604 0.930 . S
C3614 C3612 1.419 . S
C3614 C3615 1.362 . S
C3615 H3605 0.930 . S
C3615 C3608 1.409 . S
C3615 C3614 1.362 . S
H3616 C3622 0.930 . S
H3617 C3625 0.930 . S
H3618 C3626 0.930 . S
H3619 C3627 0.930 . S
H3620 C3630 0.930 . S
H3621 C3631 0.930 . S
C3622 H3616 0.930 . S
C3622 C3623 1.355 . S
C3622 C3624 1.415 . S
C3623 C3622 1.355 . S
C3623 C3625 1.419 . S
C3624 C3622 1.415 . S
C3624 C3629 1.425 . S
C3624 C3631 1.409 . S
C3625 H3617 0.930 . S
C3625 C3623 1.419 . S
C3625 C3626 1.362 . S
C3626 H3618 0.930 . S
C3626 C3625 1.362 . S
C3626 C3629 1.409 . S
C3627 H3619 0.930 . S
C3627 C3628 1.355 . S
C3627 C3629 1.415 . S
C3628 C3627 1.355 . S
C3628 C3630 1.419 . S
C3629 C3624 1.425 . S
C3629 C3626 1.409 . S
C3629 C3627 1.415 . S
C3630 H3620 0.930 . S
C3630 C3628 1.419 . S
C3630 C3631 1.362 . S
C3631 H3621 0.930 . S
C3631 C3624 1.409 . S
C3631 C3630 1.362 . S
H3632 C3638 0.930 . S
H3633 C3641 0.930 . S
H3634 C3642 0.930 . S
H3635 C3643 0.930 . S
H3636 C3646 0.930 . S
H3637 C3647 0.930 . S
C3638 H3632 0.930 . S
C3638 C3639 1.355 . S
C3638 C3640 1.415 . S
C3639 C3638 1.355 . S
C3639 C3641 1.419 . S
C3640 C3638 1.415 . S
C3640 C3645 1.425 . S
C3640 C3647 1.409 . S
C3641 H3633 0.930 . S
C3641 C3639 1.419 . S
C3641 C3642 1.362 . S
C3642 H3634 0.930 . S
C3642 C3641 1.362 . S
C3642 C3645 1.409 . S
C3643 H3635 0.930 . S
C3643 C3644 1.355 . S
C3643 C3645 1.415 . S
C3644 C3643 1.355 . S
C3644 C3646 1.419 . S
C3645 C3640 1.425 . S
C3645 C3642 1.409 . S
C3645 C3643 1.415 . S
C3646 H3636 0.930 . S
C3646 C3644 1.419 . S
C3646 C3647 1.362 . S
C3647 H3637 0.930 . S
C3647 C3640 1.409 . S
C3647 C3646 1.362 . S
H3648 C3654 0.930 . S
H3649 C3657 0.930 . S
H3650 C3658 0.930 . S
H3651 C3659 0.930 . S
H3652 C3662 0.930 . S
H3653 C3663 0.930 . S
C3654 H3648 0.930 . S
C3654 C3655 1.355 . S
C3654 C3656 1.415 . S
C3655 C3654 1.355 . S
C3655 C3657 1.419 . S
C3656 C3654 1.415 . S
C3656 C3661 1.425 . S
C3656 C3663 1.409 . S
C3657 H3649 0.930 . S
C3657 C3655 1.419 . S
C3657 C3658 1.362 . S
C3658 H3650 0.930 . S
C3658 C3657 1.362 . S
C3658 C3661 1.409 . S
C3659 H3651 0.930 . S
C3659 C3660 1.355 . S
C3659 C3661 1.415 . S
C3660 C3659 1.355 . S
C3660 C3662 1.419 . S
C3661 C3656 1.425 . S
C3661 C3658 1.409 . S
C3661 C3659 1.415 . S
C3662 H3652 0.930 . S
C3662 C3660 1.419 . S
C3662 C3663 1.362 . S
C3663 H3653 0.930 . S
C3663 C3656 1.409 . S
C3663 C3662 1.362 . S
H3664 C3670 0.930 . S
H3665 C3673 0.930 . S
H3666 C3674 0.930 . S
H3667 C3675 0.930 . S
H3668 C3678 0.930 . S
H3669 C3679 0.930 . S
C3670 H3664 0.930 . S
C3670 C3671 1.355 . S
C3670 C3672 1.415 . S
C3671 C3670 1.355 . S
C3671 C3673 1.419 . S
C3672 C3670 1.415 . S
C3672 C3677 1.425 . S
C3672 C3679 1.409 . S
C3673 H3665 0.930 . S
C3673 C3671 1.419 . S
C3673 C3674 1.362 . S
C3674 H3666 0.930 . S
C3674 C3673 1.362 . S
C3674 C3677 1.409 . S
C3675 H3667 0.930 . S
C3675 C3676 1.355 . S
C3675 C3677 1.415 . S
C3676 C3675 1.355 . S
C3676 C3678 1.419 . S
C3677 C3672 1.425 . S
C3677 C3674 1.409 . S
C3677 C3675 1.415 . S
C3678 H3668 0.930 . S
C3678 C3676 1.419 . S
C3678 C3679 1.362 . S
C3679 H3669 0.930 . S
C3679 C3672 1.409 . S
C3679 C3678 1.362 . S
H3680 C3686 0.930 . S
H3681 C3689 0.930 . S
H3682 C3690 0.930 . S
H3683 C3691 0.930 . S
H3684 C3694 0.930 . S
H3685 C3695 0.930 . S
C3686 H3680 0.930 . S
C3686 C3687 1.355 . S
C3686 C3688 1.415 . S
C3687 C3686 1.355 . S
C3687 C3689 1.419 . S
C3688 C3686 1.415 . S
C3688 C3693 1.425 . S
C3688 C3695 1.409 . S
C3689 H3681 0.930 . S
C3689 C3687 1.419 . S
C3689 C3690 1.362 . S
C3690 H3682 0.930 . S
C3690 C3689 1.362 . S
C3690 C3693 1.409 . S
C3691 H3683 0.930 . S
C3691 C3692 1.355 . S
C3691 C3693 1.415 . S
C3692 C3691 1.355 . S
C3692 C3694 1.419 . S
C3693 C3688 1.425 . S
C3693 C3690 1.409 . S
C3693 C3691 1.415 . S
C3694 H3684 0.930 . S
C3694 C3692 1.419 . S
C3694 C3695 1.362 . S
C3695 H3685 0.930 . S
C3695 C3688 1.409 . S
C3695 C3694 1.362 . S
H3696 C3702 0.930 . S
H3697 C3705 0.930 . S
H3698 C3706 0.930 . S
H3699 C3707 0.930 . S
H3700 C3710 0.930 . S
H3701 C3711 0.930 . S
C3702 H3696 0.930 . S
C3702 C3703 1.355 . S
C3702 C3704 1.415 . S
C3703 C3702 1.355 . S
C3703 C3705 1.419 . S
C3704 C3702 1.415 . S
C3704 C3709 1.425 . S
C3704 C3711 1.409 . S
C3705 H3697 0.930 . S
C3705 C3703 1.419 . S
C3705 C3706 1.362 . S
C3706 H3698 0.930 . S
C3706 C3705 1.362 . S
C3706 C3709 1.409 . S
C3707 H3699 0.930 . S
C3707 C3708 1.355 . S
C3707 C3709 1.415 . S
C3708 C3707 1.355 . S
C3708 C3710 1.419 . S
C3709 C3704 1.425 . S
C3709 C3706 1.409 . S
C3709 C3707 1.415 . S
C3710 H3700 0.930 . S
C3710 C3708 1.419 . S
C3710 C3711 1.362 . S
C3711 H3701 0.930 . S
C3711 C3704 1.409 . S
C3711 C3710 1.362 . S
H3712 C3718 0.930 . S
H3713 C3721 0.930 . S
H3714 C3722 0.930 . S
H3715 C3723 0.930 . S
H3716 C3726 0.930 . S
H3717 C3727 0.930 . S
C3718 H3712 0.930 . S
C3718 C3719 1.355 . S
C3718 C3720 1.415 . S
C3719 C3718 1.355 . S
C3719 C3721 1.419 . S
C3720 C3718 1.415 . S
C3720 C3725 1.425 . S
C3720 C3727 1.409 . S
C3721 H3713 0.930 . S
C3721 C3719 1.419 . S
C3721 C3722 1.362 . S
C3722 H3714 0.930 . S
C3722 C3721 1.362 . S
C3722 C3725 1.409 . S
C3723 H3715 0.930 . S
C3723 C3724 1.355 . S
C3723 C3725 1.415 . S
C3724 C3723 1.355 . S
C3724 C3726 1.419 . S
C3725 C3720 1.425 . S
C3725 C3722 1.409 . S
C3725 C3723 1.415 . S
C3726 H3716 0.930 . S
C3726 C3724 1.419 . S
C3726 C3727 1.362 . S
C3727 H3717 0.930 . S
C3727 C3720 1.409 . S
C3727 C3726 1.362 . S
H3728 C3734 0.930 . S
H3729 C3737 0.930 . S
H3730 C3738 0.930 . S
H3731 C3739 0.930 . S
H3732 C3742 0.930 . S
H3733 C3743 0.930 . S
C3734 H3728 0.930 . S
C3734 C3735 1.355 . S
C3734 C3736 1.415 . S
C3735 C3734 1.355 . S
C3735 C3737 1.419 . S
C3736 C3734 1.415 . S
C3736 C3741 1.425 . S
C3736 C3743 1.409 . S
C3737 H3729 0.930 . S
C3737 C3735 1.419 . S
C3737 C3738 1.362 . S
C3738 H3730 0.930 . S
C3738 C3737 1.362 . S
C3738 C3741 1.409 . S
C3739 H3731 0.930 . S
C3739 C3740 1.355 . S
C3739 C3741 1.415 . S
C3740 C3739 1.355 . S
C3740 C3742 1.419 . S
C3741 C3736 1.425 . S
C3741 C3738 1.409 . S
C3741 C3739 1.415 . S
C3742 H3732 0.930 . S
C3742 C3740 1.419 . S
C3742 C3743 1.362 . S
C3743 H3733 0.930 . S
C3743 C3736 1.409 . S
C3743 C3742 1.362 . S
H3744 C3750 0.930 . S
H3745 C3753 0.930 . S
H3746 C3754 0.930 . S
H3747 C3755 0.930 . S
H3748 C3758 0.930 . S
H3749 C3759 0.930 . S
C3750 H3744 0.930 . S
C3750 C3751 1.355 . S
C3750 C3752 1.415 . S
C3751 C3750 1.355 . S
C3751 C3753 1.419 . S
C3752 C3750 1.415 . S
C3752 C3757 1.425 . S
C3752 C3759 1.409 . S
C3753 H3745 0.930 . S
C3753 C3751 1.419 . S
C3753 C3754 1.362 . S
C3754 H3746 0.930 . S
C3754 C3753 1.362 . S
C3754 C3757 1.409 . S
C3755 H3747 0.930 . S
C3755 C3756 1.355 . S
C3755 C3757 1.415 . S
C3756 C3755 1.355 . S
C3756 C3758 1.419 . S
C3757 C3752 1.425 . S
C3757 C3754 1.409 . S
C3757 C3755 1.415 . S
C3758 H3748 0.930 . S
C3758 C3756 1.419 . S
C3758 C3759 1.362 . S
C3759 H3749 0.930 . S
C3759 C3752 1.409 . S
C3759 C3758 1.362 . S
H3760 C3766 0.930 . S
H3761 C3769 0.930 . S
H3762 C3770 0.930 . S
H3763 C3771 0.930 . S
H3764 C3774 0.930 . S
H3765 C3775 0.930 . S
C3766 H3760 0.930 . S
C3766 C3767 1.355 . S
C3766 C3768 1.415 . S
C3767 C3766 1.355 . S
C3767 C3769 1.419 . S
C3768 C3766 1.415 . S
C3768 C3773 1.425 . S
C3768 C3775 1.409 . S
C3769 H3761 0.930 . S
C3769 C3767 1.419 . S
C3769 C3770 1.362 . S
C3770 H3762 0.930 . S
C3770 C3769 1.362 . S
C3770 C3773 1.409 . S
C3771 H3763 0.930 . S
C3771 C3772 1.355 . S
C3771 C3773 1.415 . S
C3772 C3771 1.355 . S
C3772 C3774 1.419 . S
C3773 C3768 1.425 . S
C3773 C3770 1.409 . S
C3773 C3771 1.415 . S
C3774 H3764 0.930 . S
C3774 C3772 1.419 . S
C3774 C3775 1.362 . S
C3775 H3765 0.930 . S
C3775 C3768 1.409 . S
C3775 C3774 1.362 . S
H3776 C3782 0.930 . S
H3777 C3785 0.930 . S
H3778 C3786 0.930 . S
H3779 C3787 0.930 . S
H3780 C3790 0.930 . S
H3781 C3791 0.930 . S
C3782 H3776 0.930 . S
C3782 C3783 1.355 . S
C3782 C3784 1.415 . S
C3783 C3782 1.355 . S
C3783 C3785 1.419 . S
C3784 C3782 1.415 . S
C3784 C3789 1.425 . S
C3784 C3791 1.409 . S
C3785 H3777 0.930 . S
C3785 C3783 1.419 . S
C3785 C3786 1.362 . S
C3786 H3778 0.930 . S
C3786 C3785 1.362 . S
C3786 C3789 1.409 . S
C3787 H3779 0.930 . S
C3787 C3788 1.355 . S
C3787 C3789 1.415 . S
C3788 C3787 1.355 . S
C3788 C3790 1.419 . S
C3789 C3784 1.425 . S
C3789 C3786 1.409 . S
C3789 C3787 1.415 . S
C3790 H3780 0.930 . S
C3790 C3788 1.419 . S
C3790 C3791 1.362 . S
C3791 H3781 0.930 . S
C3791 C3784 1.409 . S
C3791 C3790 1.362 . S
H3792 C3798 0.930 . S
H3793 C3801 0.930 . S
H3794 C3802 0.930 . S
H3795 C3803 0.930 . S
H3796 C3806 0.930 . S
H3797 C3807 0.930 . S
C3798 H3792 0.930 . S
C3798 C3799 1.355 . S
C3798 C3800 1.415 . S
C3799 C3798 1.355 . S
C3799 C3801 1.419 . S
C3800 C3798 1.415 . S
C3800 C3805 1.425 . S
C3800 C3807 1.409 . S
C3801 H3793 0.930 . S
C3801 C3799 1.419 . S
C3801 C3802 1.362 . S
C3802 H3794 0.930 . S
C3802 C3801 1.362 . S
C3802 C3805 1.409 . S
C3803 H3795 0.930 . S
C3803 C3804 1.355 . S
C3803 C3805 1.415 . S
C3804 C3803 1.355 . S
C3804 C3806 1.419 . S
C3805 C3800 1.425 . S
C3805 C3802 1.409 . S
C3805 C3803 1.415 . S
C3806 H3796 0.930 . S
C3806 C3804 1.419 . S
C3806 C3807 1.362 . S
C3807 H3797 0.930 . S
C3807 C3800 1.409 . S
C3807 C3806 1.362 . S
H3808 C3814 0.930 . S
H3809 C3817 0.930 . S
H3810 C3818 0.930 . S
H3811 C3819 0.930 . S
H3812 C3822 0.930 . S
H3813 C3823 0.930 . S
C3814 H3808 0.930 . S
C3814 C3815 1.355 . S
C3814 C3816 1.415 . S
C3815 C3814 1.355 . S
C3815 C3817 1.419 . S
C3816 C3814 1.415 . S
C3816 C3821 1.425 . S
C3816 C3823 1.409 . S
C3817 H3809 0.930 . S
C3817 C3815 1.419 . S
C3817 C3818 1.362 . S
C3818 H3810 0.930 . S
C3818 C3817 1.362 . S
C3818 C3821 1.409 . S
C3819 H3811 0.930 . S
C3819 C3820 1.355 . S
C3819 C3821 1.415 . S
C3820 C3819 1.355 . S
C3820 C3822 1.419 . S
C3821 C3816 1.425 . S
C3821 C3818 1.409 . S
C3821 C3819 1.415 . S
C3822 H3812 0.930 . S
C3822 C3820 1.419 . S
C3822 C3823 1.362 . S
C3823 H3813 0.930 . S
C3823 C3816 1.409 . S
C3823 C3822 1.362 . S
H3824 C3830 0.930 . S
H3825 C3833 0.930 . S
H3826 C3834 0.930 . S
H3827 C3835 0.930 . S
H3828 C3838 0.930 . S
H3829 C3839 0.930 . S
C3830 H3824 0.930 . S
C3830 C3831 1.355 . S
C3830 C3832 1.415 . S
C3831 C3830 1.355 . S
C3831 C3833 1.419 . S
C3832 C3830 1.415 . S
C3832 C3837 1.425 . S
C3832 C3839 1.409 . S
C3833 H3825 0.930 . S
C3833 C3831 1.419 . S
C3833 C3834 1.362 . S
C3834 H3826 0.930 . S
C3834 C3833 1.362 . S
C3834 C3837 1.409 . S
C3835 H3827 0.930 . S
C3835 C3836 1.355 . S
C3835 C3837 1.415 . S
C3836 C3835 1.355 . S
C3836 C3838 1.419 . S
C3837 C3832 1.425 . S
C3837 C3834 1.409 . S
C3837 C3835 1.415 . S
C3838 H3828 0.930 . S
C3838 C3836 1.419 . S
C3838 C3839 1.362 . S
C3839 H3829 0.930 . S
C3839 C3832 1.409 . S
C3839 C3838 1.362 . S
H3840 C3846 0.930 . S
H3841 C3849 0.930 . S
H3842 C3850 0.930 . S
H3843 C3851 0.930 . S
H3844 C3854 0.930 . S
H3845 C3855 0.930 . S
C3846 H3840 0.930 . S
C3846 C3847 1.355 . S
C3846 C3848 1.415 . S
C3847 C3846 1.355 . S
C3847 C3849 1.419 . S
C3848 C3846 1.415 . S
C3848 C3853 1.425 . S
C3848 C3855 1.409 . S
C3849 H3841 0.930 . S
C3849 C3847 1.419 . S
C3849 C3850 1.362 . S
C3850 H3842 0.930 . S
C3850 C3849 1.362 . S
C3850 C3853 1.409 . S
C3851 H3843 0.930 . S
C3851 C3852 1.355 . S
C3851 C3853 1.415 . S
C3852 C3851 1.355 . S
C3852 C3854 1.419 . S
C3853 C3848 1.425 . S
C3853 C3850 1.409 . S
C3853 C3851 1.415 . S
C3854 H3844 0.930 . S
C3854 C3852 1.419 . S
C3854 C3855 1.362 . S
C3855 H3845 0.930 . S
C3855 C3848 1.409 . S
C3855 C3854 1.362 . S
H3856 C3862 0.930 . S
H3857 C3865 0.930 . S
H3858 C3866 0.930 . S
H3859 C3867 0.930 . S
H3860 C3870 0.930 . S
H3861 C3871 0.930 . S
C3862 H3856 0.930 . S
C3862 C3863 1.355 . S
C3862 C3864 1.415 . S
C3863 C3862 1.355 . S
C3863 C3865 1.419 . S
C3864 C3862 1.415 . S
C3864 C3869 1.425 . S
C3864 C3871 1.409 . S
C3865 H3857 0.930 . S
C3865 C3863 1.419 . S
C3865 C3866 1.362 . S
C3866 H3858 0.930 . S
C3866 C3865 1.362 . S
C3866 C3869 1.409 . S
C3867 H3859 0.930 . S
C3867 C3868 1.355 . S
C3867 C3869 1.415 . S
C3868 C3867 1.355 . S
C3868 C3870 1.419 . S
C3869 C3864 1.425 . S
C3869 C3866 1.409 . S
C3869 C3867 1.415 . S
C3870 H3860 0.930 . S
C3870 C3868 1.419 . S
C3870 C3871 1.362 . S
C3871 H3861 0.930 . S
C3871 C3864 1.409 . S
C3871 C3870 1.362 . S
H3872 C3878 0.930 . S
H3873 C3881 0.930 . S
H3874 C3882 0.930 . S
H3875 C3883 0.930 . S
H3876 C3886 0.930 . S
H3877 C3887 0.930 . S
C3878 H3872 0.930 . S
C3878 C3879 1.355 . S
C3878 C3880 1.415 . S
C3879 C3878 1.355 . S
C3879 C3881 1.419 . S
C3880 C3878 1.415 . S
C3880 C3885 1.425 . S
C3880 C3887 1.409 . S
C3881 H3873 0.930 . S
C3881 C3879 1.419 . S
C3881 C3882 1.362 . S
C3882 H3874 0.930 . S
C3882 C3881 1.362 . S
C3882 C3885 1.409 . S
C3883 H3875 0.930 . S
C3883 C3884 1.355 . S
C3883 C3885 1.415 . S
C3884 C3883 1.355 . S
C3884 C3886 1.419 . S
C3885 C3880 1.425 . S
C3885 C3882 1.409 . S
C3885 C3883 1.415 . S
C3886 H3876 0.930 . S
C3886 C3884 1.419 . S
C3886 C3887 1.362 . S
C3887 H3877 0.930 . S
C3887 C3880 1.409 . S
C3887 C3886 1.362 . S
H3888 C3894 0.930 . S
H3889 C3897 0.930 . S
H3890 C3898 0.930 . S
H3891 C3899 0.930 . S
H3892 C3902 0.930 . S
H3893 C3903 0.930 . S
C3894 H3888 0.930 . S
C3894 C3895 1.355 . S
C3894 C3896 1.415 . S
C3895 C3894 1.355 . S
C3895 C3897 1.419 . S
C3896 C3894 1.415 . S
C3896 C3901 1.425 . S
C3896 C3903 1.409 . S
C3897 H3889 0.930 . S
C3897 C3895 1.419 . S
C3897 C3898 1.362 . S
C3898 H3890 0.930 . S
C3898 C3897 1.362 . S
C3898 C3901 1.409 . S
C3899 H3891 0.930 . S
C3899 C3900 1.355 . S
C3899 C3901 1.415 . S
C3900 C3899 1.355 . S
C3900 C3902 1.419 . S
C3901 C3896 1.425 . S
C3901 C3898 1.409 . S
C3901 C3899 1.415 . S
C3902 H3892 0.930 . S
C3902 C3900 1.419 . S
C3902 C3903 1.362 . S
C3903 H3893 0.930 . S
C3903 C3896 1.409 . S
C3903 C3902 1.362 . S
H3904 C3910 0.930 . S
H3905 C3913 0.930 . S
H3906 C3914 0.930 . S
H3907 C3915 0.930 . S
H3908 C3918 0.930 . S
H3909 C3919 0.930 . S
C3910 H3904 0.930 . S
C3910 C3911 1.355 . S
C3910 C3912 1.415 . S
C3911 C3910 1.355 . S
C3911 C3913 1.419 . S
C3912 C3910 1.415 . S
C3912 C3917 1.425 . S
C3912 C3919 1.409 . S
C3913 H3905 0.930 . S
C3913 C3911 1.419 . S
C3913 C3914 1.362 . S
C3914 H3906 0.930 . S
C3914 C3913 1.362 . S
C3914 C3917 1.409 . S
C3915 H3907 0.930 . S
C3915 C3916 1.355 . S
C3915 C3917 1.415 . S
C3916 C3915 1.355 . S
C3916 C3918 1.419 . S
C3917 C3912 1.425 . S
C3917 C3914 1.409 . S
C3917 C3915 1.415 . S
C3918 H3908 0.930 . S
C3918 C3916 1.419 . S
C3918 C3919 1.362 . S
C3919 H3909 0.930 . S
C3919 C3912 1.409 . S
C3919 C3918 1.362 . S
H3920 C3926 0.930 . S
H3921 C3929 0.930 . S
H3922 C3930 0.930 . S
H3923 C3931 0.930 . S
H3924 C3934 0.930 . S
H3925 C3935 0.930 . S
C3926 H3920 0.930 . S
C3926 C3927 1.355 . S
C3926 C3928 1.415 . S
C3927 C3926 1.355 . S
C3927 C3929 1.419 . S
C3928 C3926 1.415 . S
C3928 C3933 1.425 . S
C3928 C3935 1.409 . S
C3929 H3921 0.930 . S
C3929 C3927 1.419 . S
C3929 C3930 1.362 . S
C3930 H3922 0.930 . S
C3930 C3929 1.362 . S
C3930 C3933 1.409 . S
C3931 H3923 0.930 . S
C3931 C3932 1.355 . S
C3931 C3933 1.415 . S
C3932 C3931 1.355 . S
C3932 C3934 1.419 . S
C3933 C3928 1.425 . S
C3933 C3930 1.409 . S
C3933 C3931 1.415 . S
C3934 H3924 0.930 . S
C3934 C3932 1.419 . S
C3934 C3935 1.362 . S
C3935 H3925 0.930 . S
C3935 C3928 1.409 . S
C3935 C3934 1.362 . S
H3936 C3942 0.930 . S
H3937 C3945 0.930 . S
H3938 C3946 0.930 . S
H3939 C3947 0.930 . S
H3940 C3950 0.930 . S
H3941 C3951 0.930 . S
C3942 H3936 0.930 . S
C3942 C3943 1.355 . S
C3942 C3944 1.415 . S
C3943 C3942 1.355 . S
C3943 C3945 1.419 . S
C3944 C3942 1.415 . S
C3944 C3949 1.425 . S
C3944 C3951 1.409 . S
C3945 H3937 0.930 . S
C3945 C3943 1.419 . S
C3945 C3946 1.362 . S
C3946 H3938 0.930 . S
C3946 C3945 1.362 . S
C3946 C3949 1.409 . S
C3947 H3939 0.930 . S
C3947 C3948 1.355 . S
C3947 C3949 1.415 . S
C3948 C3947 1.355 . S
C3948 C3950 1.419 . S
C3949 C3944 1.425 . S
C3949 C3946 1.409 . S
C3949 C3947 1.415 . S
C3950 H3940 0.930 . S
C3950 C3948 1.419 . S
C3950 C3951 1.362 . S
C3951 H3941 0.930 . S
C3951 C3944 1.409 . S
C3951 C3950 1.362 . S
H3952 C3958 0.930 . S
H3953 C3961 0.930 . S
H3954 C3962 0.930 . S
H3955 C3963 0.930 . S
H3956 C3966 0.930 . S
H3957 C3967 0.930 . S
C3958 H3952 0.930 . S
C3958 C3959 1.355 . S
C3958 C3960 1.415 . S
C3959 C3958 1.355 . S
C3959 C3961 1.419 . S
C3960 C3958 1.415 . S
C3960 C3965 1.425 . S
C3960 C3967 1.409 . S
C3961 H3953 0.930 . S
C3961 C3959 1.419 . S
C3961 C3962 1.362 . S
C3962 H3954 0.930 . S
C3962 C3961 1.362 . S
C3962 C3965 1.409 . S
C3963 H3955 0.930 . S
C3963 C3964 1.355 . S
C3963 C3965 1.415 . S
C3964 C3963 1.355 . S
C3964 C3966 1.419 . S
C3965 C3960 1.425 . S
C3965 C3962 1.409 . S
C3965 C3963 1.415 . S
C3966 H3956 0.930 . S
C3966 C3964 1.419 . S
C3966 C3967 1.362 . S
C3967 H3957 0.930 . S
C3967 C3960 1.409 . S
C3967 C3966 1.362 . S
H3968 C3974 0.930 . S
H3969 C3977 0.930 . S
H3970 C3978 0.930 . S
H3971 C3979 0.930 . S
H3972 C3982 0.930 . S
H3973 C3983 0.930 . S
C3974 H3968 0.930 . S
C3974 C3975 1.355 . S
C3974 C3976 1.415 . S
C3975 C3974 1.355 . S
C3975 C3977 1.419 . S
C3976 C3974 1.415 . S
C3976 C3981 1.425 . S
C3976 C3983 1.409 . S
C3977 H3969 0.930 . S
C3977 C3975 1.419 . S
C3977 C3978 1.362 . S
C3978 H3970 0.930 . S
C3978 C3977 1.362 . S
C3978 C3981 1.409 . S
C3979 H3971 0.930 . S
C3979 C3980 1.355 . S
C3979 C3981 1.415 . S
C3980 C3979 1.355 . S
C3980 C3982 1.419 . S
C3981 C3976 1.425 . S
C3981 C3978 1.409 . S
C3981 C3979 1.415 . S
C3982 H3972 0.930 . S
C3982 C3980 1.419 . S
C3982 C3983 1.362 . S
C3983 H3973 0.930 . S
C3983 C3976 1.409 . S
C3983 C3982 1.362 . S
H3984 C3990 0.930 . S
H3985 C3993 0.930 . S
H3986 C3994 0.930 . S
H3987 C3995 0.930 . S
H3988 C3998 0.930 . S
H3989 C3999 0.930 . S
C3990 H3984 0.930 . S
C3990 C3991 1.355 . S
C3990 C3992 1.415 . S
C3991 C3990 1.355 . S
C3991 C3993 1.419 . S
C3992 C3990 1.415 . S
C3992 C3997 1.425 . S
C3992 C3999 1.409 . S
C3993 H3985 0.930 . S
C3993 C3991 1.419 . S
C3993 C3994 1.362 . S
C3994 H3986 0.930 . S
C3994 C3993 1.362 . S
C3994 C3997 1.409 . S
C3995 H3987 0.930 . S
C3995 C3996 1.355 . S
C3995 C3997 1.415 . S
C3996 C3995 1.355 . S
C3996 C3998 1.419 . S
C3997 C3992 1.425 . S
C3997 C3994 1.409 . S
C3997 C3995 1.415 . S
C3998 H3988 0.930 . S
C3998 C3996 1.419 . S
C3998 C3999 1.362 . S
C3999 H3989 0.930 . S
C3999 C3992 1.409 . S
C3999 C3998 1.362 . S
H4000 C4006 0.930 . S
H4001 C4009 0.930 . S
H4002 C4010 0.930 . S
H4003 C4011 0.930 . S
H4004 C4014 0.930 . S
H4005 C4015 0.930 . S
C4006 H4000 0.930 . S
C4006 C4007 1.355 . S
C4006 C4008 1.415 . S
C4007 C4006 1.355 . S
C4007 C4009 1.419 . S
C4008 C4006 1.415 . S
C4008 C4013 1.425 . S
C4008 C4015 1.409 . S
C4009 H4001 0.930 . S
C4009 C4007 1.419 . S
C4009 C4010 1.362 . S
C4010 H4002 0.930 . S
C4010 C4009 1.362 . S
C4010 C4013 1.409 . S
C4011 H4003 0.930 . S
C4011 C4012 1.355 . S
C4011 C4013 1.415 . S
C4012 C4011 1.355 . S
C4012 C4014 1.419 . S
C4013 C4008 1.425 . S
C4013 C4010 1.409 . S
C4013 C4011 1.415 . S
C4014 H4004 0.930 . S
C4014 C4012 1.419 . S
C4014 C4015 1.362 . S
C4015 H4005 0.930 . S
C4015 C4008 1.409 . S
C4015 C4014 1.362 . S
H4016 C4022 0.930 . S
H4017 C4025 0.930 . S
H4018 C4026 0.930 . S
H4019 C4027 0.930 . S
H4020 C4030 0.930 . S
H4021 C4031 0.930 . S
C4022 H4016 0.930 . S
C4022 C4023 1.355 . S
C4022 C4024 1.415 . S
C4023 C4022 1.355 . S
C4023 C4025 1.419 . S
C4024 C4022 1.415 . S
C4024 C4029 1.425 . S
C4024 C4031 1.409 . S
C4025 H4017 0.930 . S
C4025 C4023 1.419 . S
C4025 C4026 1.362 . S
C4026 H4018 0.930 . S
C4026 C4025 1.362 . S
C4026 C4029 1.409 . S
C4027 H4019 0.930 . S
C4027 C4028 1.355 . S
C4027 C4029 1.415 . S
C4028 C4027 1.355 . S
C4028 C4030 1.419 . S
C4029 C4024 1.425 . S
C4029 C4026 1.409 . S
C4029 C4027 1.415 . S
C4030 H4020 0.930 . S
C4030 C4028 1.419 . S
C4030 C4031 1.362 . S
C4031 H4021 0.930 . S
C4031 C4024 1.409 . S
C4031 C4030 1.362 . S
H4032 C4038 0.930 . S
H4033 C4041 0.930 . S
H4034 C4042 0.930 . S
H4035 C4043 0.930 . S
H4036 C4046 0.930 . S
H4037 C4047 0.930 . S
C4038 H4032 0.930 . S
C4038 C4039 1.355 . S
C4038 C4040 1.415 . S
C4039 C4038 1.355 . S
C4039 C4041 1.419 . S
C4040 C4038 1.415 . S
C4040 C4045 1.425 . S
C4040 C4047 1.409 . S
C4041 H4033 0.930 . S
C4041 C4039 1.419 . S
C4041 C4042 1.362 . S
C4042 H4034 0.930 . S
C4042 C4041 1.362 . S
C4042 C4045 1.409 . S
C4043 H4035 0.930 . S
C4043 C4044 1.355 . S
C4043 C4045 1.415 . S
C4044 C4043 1.355 . S
C4044 C4046 1.419 . S
C4045 C4040 1.425 . S
C4045 C4042 1.409 . S
C4045 C4043 1.415 . S
C4046 H4036 0.930 . S
C4046 C4044 1.419 . S
C4046 C4047 1.362 . S
C4047 H4037 0.930 . S
C4047 C4040 1.409 . S
C4047 C4046 1.362 . S
H4048 C4054 0.930 . S
H4049 C4057 0.930 . S
H4050 C4058 0.930 . S
H4051 C4059 0.930 . S
H4052 C4062 0.930 . S
H4053 C4063 0.930 . S
C4054 H4048 0.930 . S
C4054 C4055 1.355 . S
C4054 C4056 1.415 . S
C4055 C4054 1.355 . S
C4055 C4057 1.419 . S
C4056 C4054 1.415 . S
C4056 C4061 1.425 . S
C4056 C4063 1.409 . S
C4057 H4049 0.930 . S
C4057 C4055 1.419 . S
C4057 C4058 1.362 . S
C4058 H4050 0.930 . S
C4058 C4057 1.362 . S
C4058 C4061 1.409 . S
C4059 H4051 0.930 . S
C4059 C4060 1.355 . S
C4059 C4061 1.415 . S
C4060 C4059 1.355 . S
C4060 C4062 1.419 . S
C4061 C4056 1.425 . S
C4061 C4058 1.409 . S
C4061 C4059 1.415 . S
C4062 H4052 0.930 . S
C4062 C4060 1.419 . S
C4062 C4063 1.362 . S
C4063 H4053 0.930 . S
C4063 C4056 1.409 . S
C4063 C4062 1.362 . S
H4064 C4070 0.930 . S
H4065 C4073 0.930 . S
H4066 C4074 0.930 . S
H4067 C4075 0.930 . S
H4068 C4078 0.930 . S
H4069 C4079 0.930 . S
C4070 H4064 0.930 . S
C4070 C4071 1.355 . S
C4070 C4072 1.415 . S
C4071 C4070 1.355 . S
C4071 C4073 1.419 . S
C4072 C4070 1.415 . S
C4072 C4077 1.425 . S
C4072 C4079 1.409 . S
C4073 H4065 0.930 . S
C4073 C4071 1.419 . S
C4073 C4074 1.362 . S
C4074 H4066 0.930 . S
C4074 C4073 1.362 . S
C4074 C4077 1.409 . S
C4075 H4067 0.930 . S
C4075 C4076 1.355 . S
C4075 C4077 1.415 . S
C4076 C4075 1.355 . S
C4076 C4078 1.419 . S
C4077 C4072 1.425 . S
C4077 C4074 1.409 . S
C4077 C4075 1.415 . S
C4078 H4068 0.930 . S
C4078 C4076 1.419 . S
C4078 C4079 1.362 . S
C4079 H4069 0.930 . S
C4079 C4072 1.409 . S
C4079 C4078 1.362 . S
H4080 C4086 0.930 . S
H4081 C4089 0.930 . S
H4082 C4090 0.930 . S
H4083 C4091 0.930 . S
H4084 C4094 0.930 . S
H4085 C4095 0.930 . S
C4086 H4080 0.930 . S
C4086 C4087 1.355 . S
C4086 C4088 1.415 . S
C4087 C4086 1.355 . S
C4087 C4089 1.419 . S
C4088 C4086 1.415 . S
C4088 C4093 1.425 . S
C4088 C4095 1.409 . S
C4089 H4081 0.930 . S
C4089 C4087 1.419 . S
C4089 C4090 1.362 . S
C4090 H4082 0.930 . S
C4090 C4089 1.362 . S
C4090 C4093 1.409 . S
C4091 H4083 0.930 . S
C4091 C4092 1.355 . S
C4091 C4093 1.415 . S
C4092 C4091 1.355 . S
C4092 C4094 1.419 . S
C4093 C4088 1.425 . S
C4093 C4090 1.409 . S
C4093 C4091 1.415 . S
C4094 H4084 0.930 . S
C4094 C4092 1.419 . S
C4094 C4095 1.362 . S
C4095 H4085 0.930 . S
C4095 C4088 1.409 . S
C4095 C4094 1.362 . S
H4096 C4102 0.930 . S
H4097 C4105 0.930 . S
H4098 C4106 0.930 . S
H4099 C4107 0.930 . S
H4100 C4110 0.930 . S
H4101 C4111 0.930 . S
C4102 H4096 0.930 . S
C4102 C4103 1.355 . S
C4102 C4104 1.415 . S
C4103 C4102 1.355 . S
C4103 C4105 1.419 . S
C4104 C4102 1.415 . S
C4104 C4109 1.425 . S
C4104 C4111 1.409 . S
C4105 H4097 0.930 . S
C4105 C4103 1.419 . S
C4105 C4106 1.362 . S
C4106 H4098 0.930 . S
C4106 C4105 1.362 . S
C4106 C4109 1.409 . S
C4107 H4099 0.930 . S
C4107 C4108 1.355 . S
C4107 C4109 1.415 . S
C4108 C4107 1.355 . S
C4108 C4110 1.419 . S
C4109 C4104 1.425 . S
C4109 C4106 1.409 . S
C4109 C4107 1.415 . S
C4110 H4100 0.930 . S
C4110 C4108 1.419 . S
C4110 C4111 1.362 . S
C4111 H4101 0.930 . S
C4111 C4104 1.409 . S
C4111 C4110 1.362 . S
H4112 C4118 0.930 . S
H4113 C4121 0.930 . S
H4114 C4122 0.930 . S
H4115 C4123 0.930 . S
H4116 C4126 0.930 . S
H4117 C4127 0.930 . S
C4118 H4112 0.930 . S
C4118 C4119 1.355 . S
C4118 C4120 1.415 . S
C4119 C4118 1.355 . S
C4119 C4121 1.419 . S
C4120 C4118 1.415 . S
C4120 C4125 1.425 . S
C4120 C4127 1.409 . S
C4121 H4113 0.930 . S
C4121 C4119 1.419 . S
C4121 C4122 1.362 . S
C4122 H4114 0.930 . S
C4122 C4121 1.362 . S
C4122 C4125 1.409 . S
C4123 H4115 0.930 . S
C4123 C4124 1.355 . S
C4123 C4125 1.415 . S
C4124 C4123 1.355 . S
C4124 C4126 1.419 . S
C4125 C4120 1.425 . S
C4125 C4122 1.409 . S
C4125 C4123 1.415 . S
C4126 H4116 0.930 . S
C4126 C4124 1.419 . S
C4126 C4127 1.362 . S
C4127 H4117 0.930 . S
C4127 C4120 1.409 . S
C4127 C4126 1.362 . S
H4128 C4134 0.930 . S
H4129 C4137 0.930 . S
H4130 C4138 0.930 . S
H4131 C4139 0.930 . S
H4132 C4142 0.930 . S
H4133 C4143 0.930 . S
C4134 H4128 0.930 . S
C4134 C4135 1.355 . S
C4134 C4136 1.415 . S
C4135 C4134 1.355 . S
C4135 C4137 1.419 . S
C4136 C4134 1.415 . S
C4136 C4141 1.425 . S
C4136 C4143 1.409 . S
C4137 H4129 0.930 . S
C4137 C4135 1.419 . S
C4137 C4138 1.362 . S
C4138 H4130 0.930 . S
C4138 C4137 1.362 . S
C4138 C4141 1.409 . S
C4139 H4131 0.930 . S
C4139 C4140 1.355 . S
C4139 C4141 1.415 . S
C4140 C4139 1.355 . S
C4140 C4142 1.419 . S
C4141 C4136 1.425 . S
C4141 C4138 1.409 . S
C4141 C4139 1.415 . S
C4142 H4132 0.930 . S
C4142 C4140 1.419 . S
C4142 C4143 1.362 . S
C4143 H4133 0.930 . S
C4143 C4136 1.409 . S
C4143 C4142 1.362 . S
H4144 C4150 0.930 . S
H4145 C4153 0.930 . S
H4146 C4154 0.930 . S
H4147 C4155 0.930 . S
H4148 C4158 0.930 . S
H4149 C4159 0.930 . S
C4150 H4144 0.930 . S
C4150 C4151 1.355 . S
C4150 C4152 1.415 . S
C4151 C4150 1.355 . S
C4151 C4153 1.419 . S
C4152 C4150 1.415 . S
C4152 C4157 1.425 . S
C4152 C4159 1.409 . S
C4153 H4145 0.930 . S
C4153 C4151 1.419 . S
C4153 C4154 1.362 . S
C4154 H4146 0.930 . S
C4154 C4153 1.362 . S
C4154 C4157 1.409 . S
C4155 H4147 0.930 . S
C4155 C4156 1.355 . S
C4155 C4157 1.415 . S
C4156 C4155 1.355 . S
C4156 C4158 1.419 . S
C4157 C4152 1.425 . S
C4157 C4154 1.409 . S
C4157 C4155 1.415 . S
C4158 H4148 0.930 . S
C4158 C4156 1.419 . S
C4158 C4159 1.362 . S
C4159 H4149 0.930 . S
C4159 C4152 1.409 . S
C4159 C4158 1.362 . S
H4160 C4166 0.930 . S
H4161 C4169 0.930 . S
H4162 C4170 0.930 . S
H4163 C4171 0.930 . S
H4164 C4174 0.930 . S
H4165 C4175 0.930 . S
C4166 H4160 0.930 . S
C4166 C4167 1.355 . S
C4166 C4168 1.415 . S
C4167 C4166 1.355 . S
C4167 C4169 1.419 . S
C4168 C4166 1.415 . S
C4168 C4173 1.425 . S
C4168 C4175 1.409 . S
C4169 H4161 0.930 . S
C4169 C4167 1.419 . S
C4169 C4170 1.362 . S
C4170 H4162 0.930 . S
C4170 C4169 1.362 . S
C4170 C4173 1.409 . S
C4171 H4163 0.930 . S
C4171 C4172 1.355 . S
C4171 C4173 1.415 . S
C4172 C4171 1.355 . S
C4172 C4174 1.419 . S
C4173 C4168 1.425 . S
C4173 C4170 1.409 . S
C4173 C4171 1.415 . S
C4174 H4164 0.930 . S
C4174 C4172 1.419 . S
C4174 C4175 1.362 . S
C4175 H4165 0.930 . S
C4175 C4168 1.409 . S
C4175 C4174 1.362 . S
H4176 C4182 0.930 . S
H4177 C4185 0.930 . S
H4178 C4186 0.930 . S
H4179 C4187 0.930 . S
H4180 C4190 0.930 . S
H4181 C4191 0.930 . S
C4182 H4176 0.930 . S
C4182 C4183 1.355 . S
C4182 C4184 1.415 . S
C4183 C4182 1.355 . S
C4183 C4185 1.419 . S
C4184 C4182 1.415 . S
C4184 C4189 1.425 . S
C4184 C4191 1.409 . S
C4185 H4177 0.930 . S
C4185 C4183 1.419 . S
C4185 C4186 1.362 . S
C4186 H4178 0.930 . S
C4186 C4185 1.362 . S
C4186 C4189 1.409 . S
C4187 H4179 0.930 . S
C4187 C4188 1.355 . S
C4187 C4189 1.415 . S
C4188 C4187 1.355 . S
C4188 C4190 1.419 . S
C4189 C4184 1.425 . S
C4189 C4186 1.409 . S
C4189 C4187 1.415 . S
C4190 H4180 0.930 . S
C4190 C4188 1.419 . S
C4190 C4191 1.362 . S
C4191 H4181 0.930 . S
C4191 C4184 1.409 . S
C4191 C4190 1.362 . S
H4192 C4198 0.930 . S
H4193 C4201 0.930 . S
H4194 C4202 0.930 . S
H4195 C4203 0.930 . S
H4196 C4206 0.930 . S
H4197 C4207 0.930 . S
C4198 H4192 0.930 . S
C4198 C4199 1.355 . S
C4198 C4200 1.415 . S
C4199 C4198 1.355 . S
C4199 C4201 1.419 . S
C4200 C4198 1.415 . S
C4200 C4205 1.425 . S
C4200 C4207 1.409 . S
C4201 H4193 0.930 . S
C4201 C4199 1.419 . S
C4201 C4202 1.362 . S
C4202 H4194 0.930 . S
C4202 C4201 1.362 . S
C4202 C4205 1.409 . S
C4203 H4195 0.930 . S
C4203 C4204 1.355 . S
C4203 C4205 1.415 . S
C4204 C4203 1.355 . S
C4204 C4206 1.419 . S
C4205 C4200 1.425 . S
C4205 C4202 1.409 . S
C4205 C4203 1.415 . S
C4206 H4196 0.930 . S
C4206 C4204 1.419 . S
C4206 C4207 1.362 . S
C4207 H4197 0.930 . S
C4207 C4200 1.409 . S
C4207 C4206 1.362 . S
H4208 C4214 0.930 . S
H4209 C4217 0.930 . S
H4210 C4218 0.930 . S
H4211 C4219 0.930 . S
H4212 C4222 0.930 . S
H4213 C4223 0.930 . S
C4214 H4208 0.930 . S
C4214 C4215 1.355 . S
C4214 C4216 1.415 . S
C4215 C4214 1.355 . S
C4215 C4217 1.419 . S
C4216 C4214 1.415 . S
C4216 C4221 1.425 . S
C4216 C4223 1.409 . S
C4217 H4209 0.930 . S
C4217 C4215 1.419 . S
C4217 C4218 1.362 . S
C4218 H4210 0.930 . S
C4218 C4217 1.362 . S
C4218 C4221 1.409 . S
C4219 H4211 0.930 . S
C4219 C4220 1.355 . S
C4219 C4221 1.415 . S
C4220 C4219 1.355 . S
C4220 C4222 1.419 . S
C4221 C4216 1.425 . S
C4221 C4218 1.409 . S
C4221 C4219 1.415 . S
C4222 H4212 0.930 . S
C4222 C4220 1.419 . S
C4222 C4223 1.362 . S
C4223 H4213 0.930 . S
C4223 C4216 1.409 . S
C4223 C4222 1.362 . S
H4224 C4230 0.930 . S
H4225 C4233 0.930 . S
H4226 C4234 0.930 . S
H4227 C4235 0.930 . S
H4228 C4238 0.930 . S
H4229 C4239 0.930 . S
C4230 H4224 0.930 . S
C4230 C4231 1.355 . S
C4230 C4232 1.415 . S
C4231 C4230 1.355 . S
C4231 C4233 1.419 . S
C4232 C4230 1.415 . S
C4232 C4237 1.425 . S
C4232 C4239 1.409 . S
C4233 H4225 0.930 . S
C4233 C4231 1.419 . S
C4233 C4234 1.362 . S
C4234 H4226 0.930 . S
C4234 C4233 1.362 . S
C4234 C4237 1.409 . S
C4235 H4227 0.930 . S
C4235 C4236 1.355 . S
C4235 C4237 1.415 . S
C4236 C4235 1.355 . S
C4236 C4238 1.419 . S
C4237 C4232 1.425 . S
C4237 C4234 1.409 . S
C4237 C4235 1.415 . S
C4238 H4228 0.930 . S
C4238 C4236 1.419 . S
C4238 C4239 1.362 . S
C4239 H4229 0.930 . S
C4239 C4232 1.409 . S
C4239 C4238 1.362 . S
H4240 C4246 0.930 . S
H4241 C4249 0.930 . S
H4242 C4250 0.930 . S
H4243 C4251 0.930 . S
H4244 C4254 0.930 . S
H4245 C4255 0.930 . S
C4246 H4240 0.930 . S
C4246 C4247 1.355 . S
C4246 C4248 1.415 . S
C4247 C4246 1.355 . S
C4247 C4249 1.419 . S
C4248 C4246 1.415 . S
C4248 C4253 1.425 . S
C4248 C4255 1.409 . S
C4249 H4241 0.930 . S
C4249 C4247 1.419 . S
C4249 C4250 1.362 . S
C4250 H4242 0.930 . S
C4250 C4249 1.362 . S
C4250 C4253 1.409 . S
C4251 H4243 0.930 . S
C4251 C4252 1.355 . S
C4251 C4253 1.415 . S
C4252 C4251 1.355 . S
C4252 C4254 1.419 . S
C4253 C4248 1.425 . S
C4253 C4250 1.409 . S
C4253 C4251 1.415 . S
C4254 H4244 0.930 . S
C4254 C4252 1.419 . S
C4254 C4255 1.362 . S
C4255 H4245 0.930 . S
C4255 C4248 1.409 . S
C4255 C4254 1.362 . S
H4256 C4262 0.930 . S
H4257 C4265 0.930 . S
H4258 C4266 0.930 . S
H4259 C4267 0.930 . S
H4260 C4270 0.930 . S
H4261 C4271 0.930 . S
C4262 H4256 0.930 . S
C4262 C4263 1.355 . S
C4262 C4264 1.415 . S
C4263 C4262 1.355 . S
C4263 C4265 1.419 . S
C4264 C4262 1.415 . S
C4264 C4269 1.425 . S
C4264 C4271 1.409 . S
C4265 H4257 0.930 . S
C4265 C4263 1.419 . S
C4265 C4266 1.362 . S
C4266 H4258 0.930 . S
C4266 C4265 1.362 . S
C4266 C4269 1.409 . S
C4267 H4259 0.930 . S
C4267 C4268 1.355 . S
C4267 C4269 1.415 . S
C4268 C4267 1.355 . S
C4268 C4270 1.419 . S
C4269 C4264 1.425 . S
C4269 C4266 1.409 . S
C4269 C4267 1.415 . S
C4270 H4260 0.930 . S
C4270 C4268 1.419 . S
C4270 C4271 1.362 . S
C4271 H4261 0.930 . S
C4271 C4264 1.409 . S
C4271 C4270 1.362 . S
H4272 C4278 0.930 . S
H4273 C4281 0.930 . S
H4274 C4282 0.930 . S
H4275 C4283 0.930 . S
H4276 C4286 0.930 . S
H4277 C4287 0.930 . S
C4278 H4272 0.930 . S
C4278 C4279 1.355 . S
C4278 C4280 1.415 . S
C4279 C4278 1.355 . S
C4279 C4281 1.419 . S
C4280 C4278 1.415 . S
C4280 C4285 1.425 . S
C4280 C4287 1.409 . S
C4281 H4273 0.930 . S
C4281 C4279 1.419 . S
C4281 C4282 1.362 . S
C4282 H4274 0.930 . S
C4282 C4281 1.362 . S
C4282 C4285 1.409 . S
C4283 H4275 0.930 . S
C4283 C4284 1.355 . S
C4283 C4285 1.415 . S
C4284 C4283 1.355 . S
C4284 C4286 1.419 . S
C4285 C4280 1.425 . S
C4285 C4282 1.409 . S
C4285 C4283 1.415 . S
C4286 H4276 0.930 . S
C4286 C4284 1.419 . S
C4286 C4287 1.362 . S
C4287 H4277 0.930 . S
C4287 C4280 1.409 . S
C4287 C4286 1.362 . S
H4288 C4294 0.930 . S
H4289 C4297 0.930 . S
H4290 C4298 0.930 . S
H4291 C4299 0.930 . S
H4292 C4302 0.930 . S
H4293 C4303 0.930 . S
C4294 H4288 0.930 . S
C4294 C4295 1.355 . S
C4294 C4296 1.415 . S
C4295 C4294 1.355 . S
C4295 C4297 1.419 . S
C4296 C4294 1.415 . S
C4296 C4301 1.425 . S
C4296 C4303 1.409 . S
C4297 H4289 0.930 . S
C4297 C4295 1.419 . S
C4297 C4298 1.362 . S
C4298 H4290 0.930 . S
C4298 C4297 1.362 . S
C4298 C4301 1.409 . S
C4299 H4291 0.930 . S
C4299 C4300 1.355 . S
C4299 C4301 1.415 . S
C4300 C4299 1.355 . S
C4300 C4302 1.419 . S
C4301 C4296 1.425 . S
C4301 C4298 1.409 . S
C4301 C4299 1.415 . S
C4302 H4292 0.930 . S
C4302 C4300 1.419 . S
C4302 C4303 1.362 . S
C4303 H4293 0.930 . S
C4303 C4296 1.409 . S
C4303 C4302 1.362 . S
H4304 C4310 0.930 . S
H4305 C4313 0.930 . S
H4306 C4314 0.930 . S
H4307 C4315 0.930 . S
H4308 C4318 0.930 . S
H4309 C4319 0.930 . S
C4310 H4304 0.930 . S
C4310 C4311 1.355 . S
C4310 C4312 1.415 . S
C4311 C4310 1.355 . S
C4311 C4313 1.419 . S
C4312 C4310 1.415 . S
C4312 C4317 1.425 . S
C4312 C4319 1.409 . S
C4313 H4305 0.930 . S
C4313 C4311 1.419 . S
C4313 C4314 1.362 . S
C4314 H4306 0.930 . S
C4314 C4313 1.362 . S
C4314 C4317 1.409 . S
C4315 H4307 0.930 . S
C4315 C4316 1.355 . S
C4315 C4317 1.415 . S
C4316 C4315 1.355 . S
C4316 C4318 1.419 . S
C4317 C4312 1.425 . S
C4317 C4314 1.409 . S
C4317 C4315 1.415 . S
C4318 H4308 0.930 . S
C4318 C4316 1.419 . S
C4318 C4319 1.362 . S
C4319 H4309 0.930 . S
C4319 C4312 1.409 . S
C4319 C4318 1.362 . S
H4320 C4326 0.930 . S
H4321 C4329 0.930 . S
H4322 C4330 0.930 . S
H4323 C4331 0.930 . S
H4324 C4334 0.930 . S
H4325 C4335 0.930 . S
C4326 H4320 0.930 . S
C4326 C4327 1.355 . S
C4326 C4328 1.415 . S
C4327 C4326 1.355 . S
C4327 C4329 1.419 . S
C4328 C4326 1.415 . S
C4328 C4333 1.425 . S
C4328 C4335 1.409 . S
C4329 H4321 0.930 . S
C4329 C4327 1.419 . S
C4329 C4330 1.362 . S
C4330 H4322 0.930 . S
C4330 C4329 1.362 . S
C4330 C4333 1.409 . S
C4331 H4323 0.930 . S
C4331 C4332 1.355 . S
C4331 C4333 1.415 . S
C4332 C4331 1.355 . S
C4332 C4334 1.419 . S
C4333 C4328 1.425 . S
C4333 C4330 1.409 . S
C4333 C4331 1.415 . S
C4334 H4324 0.930 . S
C4334 C4332 1.419 . S
C4334 C4335 1.362 . S
C4335 H4325 0.930 . S
C4335 C4328 1.409 . S
C4335 C4334 1.362 . S
H4336 C4342 0.930 . S
H4337 C4345 0.930 . S
H4338 C4346 0.930 . S
H4339 C4347 0.930 . S
H4340 C4350 0.930 . S
H4341 C4351 0.930 . S
C4342 H4336 0.930 . S
C4342 C4343 1.355 . S
C4342 C4344 1.415 . S
C4343 C4342 1.355 . S
C4343 C4345 1.419 . S
C4344 C4342 1.415 . S
C4344 C4349 1.425 . S
C4344 C4351 1.409 . S
C4345 H4337 0.930 . S
C4345 C4343 1.419 . S
C4345 C4346 1.362 . S
C4346 H4338 0.930 . S
C4346 C4345 1.362 . S
C4346 C4349 1.409 . S
C4347 H4339 0.930 . S
C4347 C4348 1.355 . S
C4347 C4349 1.415 . S
C4348 C4347 1.355 . S
C4348 C4350 1.419 . S
C4349 C4344 1.425 . S
C4349 C4346 1.409 . S
C4349 C4347 1.415 . S
C4350 H4340 0.930 . S
C4350 C4348 1.419 . S
C4350 C4351 1.362 . S
C4351 H4341 0.930 . S
C4351 C4344 1.409 . S
C4351 C4350 1.362 . S
H4352 C4358 0.930 . S
H4353 C4361 0.930 . S
H4354 C4362 0.930 . S
H4355 C4363 0.930 . S
H4356 C4366 0.930 . S
H4357 C4367 0.930 . S
C4358 H4352 0.930 . S
C4358 C4359 1.355 . S
C4358 C4360 1.415 . S
C4359 C4358 1.355 . S
C4359 C4361 1.419 . S
C4360 C4358 1.415 . S
C4360 C4365 1.425 . S
C4360 C4367 1.409 . S
C4361 H4353 0.930 . S
C4361 C4359 1.419 . S
C4361 C4362 1.362 . S
C4362 H4354 0.930 . S
C4362 C4361 1.362 . S
C4362 C4365 1.409 . S
C4363 H4355 0.930 . S
C4363 C4364 1.355 . S
C4363 C4365 1.415 . S
C4364 C4363 1.355 . S
C4364 C4366 1.419 . S
C4365 C4360 1.425 . S
C4365 C4362 1.409 . S
C4365 C4363 1.415 . S
C4366 H4356 0.930 . S
C4366 C4364 1.419 . S
C4366 C4367 1.362 . S
C4367 H4357 0.930 . S
C4367 C4360 1.409 . S
C4367 C4366 1.362 . S
H4368 C4374 0.930 . S
H4369 C4377 0.930 . S
H4370 C4378 0.930 . S
H4371 C4379 0.930 . S
H4372 C4382 0.930 . S
H4373 C4383 0.930 . S
C4374 H4368 0.930 . S
C4374 C4375 1.355 . S
C4374 C4376 1.415 . S
C4375 C4374 1.355 . S
C4375 C4377 1.419 . S
C4376 C4374 1.415 . S
C4376 C4381 1.425 . S
C4376 C4383 1.409 . S
C4377 H4369 0.930 . S
C4377 C4375 1.419 . S
C4377 C4378 1.362 . S
C4378 H4370 0.930 . S
C4378 C4377 1.362 . S
C4378 C4381 1.409 . S
C4379 H4371 0.930 . S
C4379 C4380 1.355 . S
C4379 C4381 1.415 . S
C4380 C4379 1.355 . S
C4380 C4382 1.419 . S
C4381 C4376 1.425 . S
C4381 C4378 1.409 . S
C4381 C4379 1.415 . S
C4382 H4372 0.930 . S
C4382 C4380 1.419 . S
C4382 C4383 1.362 . S
C4383 H4373 0.930 . S
C4383 C4376 1.409 . S
C4383 C4382 1.362 . S
H4384 C4390 0.930 . S
H4385 C4393 0.930 . S
H4386 C4394 0.930 . S
H4387 C4395 0.930 . S
H4388 C4398 0.930 . S
H4389 C4399 0.930 . S
C4390 H4384 0.930 . S
C4390 C4391 1.355 . S
C4390 C4392 1.415 . S
C4391 C4390 1.355 . S
C4391 C4393 1.419 . S
C4392 C4390 1.415 . S
C4392 C4397 1.425 . S
C4392 C4399 1.409 . S
C4393 H4385 0.930 . S
C4393 C4391 1.419 . S
C4393 C4394 1.362 . S
C4394 H4386 0.930 . S
C4394 C4393 1.362 . S
C4394 C4397 1.409 . S
C4395 H4387 0.930 . S
C4395 C4396 1.355 . S
C4395 C4397 1.415 . S
C4396 C4395 1.355 . S
C4396 C4398 1.419 . S
C4397 C4392 1.425 . S
C4397 C4394 1.409 . S
C4397 C4395 1.415 . S
C4398 H4388 0.930 . S
C4398 C4396 1.419 . S
C4398 C4399 1.362 . S
C4399 H4389 0.930 . S
C4399 C4392 1.409 . S
C4399 C4398 1.362 . S
H4400 C4406 0.930 . S
H4401 C4409 0.930 . S
H4402 C4410 0.930 . S
H4403 C4411 0.930 . S
H4404 C4414 0.930 . S
H4405 C4415 0.930 . S
C4406 H4400 0.930 . S
C4406 C4407 1.355 . S
C4406 C4408 1.415 . S
C4407 C4406 1.355 . S
C4407 C4409 1.419 . S
C4408 C4406 1.415 . S
C4408 C4413 1.425 . S
C4408 C4415 1.409 . S
C4409 H4401 0.930 . S
C4409 C4407 1.419 . S
C4409 C4410 1.362 . S
C4410 H4402 0.930 . S
C4410 C4409 1.362 . S
C4410 C4413 1.409 . S
C4411 H4403 0.930 . S
C4411 C4412 1.355 . S
C4411 C4413 1.415 . S
C4412 C4411 1.355 . S
C4412 C4414 1.419 . S
C4413 C4408 1.425 . S
C4413 C4410 1.409 . S
C4413 C4411 1.415 . S
C4414 H4404 0.930 . S
C4414 C4412 1.419 . S
C4414 C4415 1.362 . S
C4415 H4405 0.930 . S
C4415 C4408 1.409 . S
C4415 C4414 1.362 . S
C1351 C8 1.663 . S
C1356 C960 1.639 . S
C1367 C918 1.624 . S
C1372 C22 1.657 . S
C1383 C932 1.640 . S
C1388 C36 1.662 . S
C1399 C50 1.623 . S
C1404 C946 1.655 . S
C1415 C1002 1.655 . S
C1420 C64 1.623 . S
C1431 C974 1.663 . S
C1436 C78 1.637 . S
C1447 C988 1.630 . S
C1452 C92 1.662 . S
C1463 C106 1.644 . S
C1468 C904 1.623 . S
C1479 C120 1.662 . S
C1484 C890 1.631 . S
C1495 C134 1.623 . S
C1500 C848 1.645 . S
C1511 C148 1.661 . S
C1516 C862 1.643 . S
C1527 C162 1.626 . S
C1532 C876 1.660 . S
C1543 C176 1.663 . S
C1548 C806 1.638 . S
C1559 C820 1.656 . S
C1564 C190 1.623 . S
C1575 C834 1.628 . S
C1580 C204 1.661 . S
C1591 C218 1.629 . S
C1596 C792 1.662 . S
C1607 C232 1.623 . S
C1612 C778 1.644 . S
C1623 C246 1.650 . S
C1628 C694 1.622 . S
C1639 C708 1.644 . S
C1644 C260 1.623 . S
C1655 C722 1.624 . S
C1660 C274 1.641 . S
C1671 C680 1.627 . S
C1676 C288 1.636 . S
C1687 C302 1.663 . S
C1692 C750 1.638 . S
C1703 C316 1.636 . S
C1708 C764 1.663 . S
C1719 C330 1.630 . S
C1724 C736 1.662 . S
C1735 C344 1.627 . S
C1740 C1296 1.636 . S
C1751 C358 1.654 . S
C1756 C1254 1.654 . S
C1767 C372 1.656 . S
C1772 C1268 1.652 . S
C1783 C386 1.628 . S
C1788 C1282 1.635 . S
C1799 C400 1.655 . S
C1804 C1338 1.653 . S
C1815 C414 1.661 . S
C1820 C1310 1.628 . S
C1831 C1324 1.639 . S
C1836 C428 1.663 . S
C1847 C442 1.623 . S
C1852 C1240 1.647 . S
C1863 C456 1.644 . S
C1868 C1226 1.623 . S
C1879 C1184 1.659 . S
C1884 C470 1.626 . S
C1895 C484 1.663 . S
C1900 C1198 1.632 . S
C1911 C498 1.626 . S
C1916 C1212 1.659 . S
C1927 C512 1.641 . S
C1932 C1142 1.624 . S
C1943 C526 1.658 . S
C1948 C1156 1.650 . S
C1959 C540 1.645 . S
C1964 C1170 1.623 . S
C1975 C1128 1.637 . S
C1980 C554 1.663 . S
C1991 C568 1.663 . S
C1996 C1114 1.637 . S
C2007 C582 1.624 . S
C2012 C1030 1.656 . S
C2023 C596 1.660 . S
C2028 C1044 1.627 . S
C2039 C1058 1.623 . S
C2044 C610 1.644 . S
C2055 C624 1.653 . S
C2060 C1016 1.656 . S
C2071 C1086 1.625 . S
C2076 C638 1.658 . S
C2087 C652 1.645 . S
C2092 C1100 1.623 . S
C2103 C666 1.639 . S
C2108 C1072 1.625 . S
C2119 C9 1.834 . S
C2124 C555 1.805 . S
C2135 C23 1.808 . S
C2140 C513 1.832 . S
C2151 C527 1.805 . S
C2156 C37 1.835 . S
C2167 C51 1.834 . S
C2172 C541 1.806 . S
C2183 C471 1.832 . S
C2188 C65 1.807 . S
C2199 C485 1.806 . S
C2204 C79 1.834 . S
C2215 C499 1.835 . S
C2220 C93 1.805 . S
C2231 C457 1.808 . S
C2236 C107 1.832 . S
C2247 C443 1.828 . S
C2252 C121 1.811 . S
C2263 C135 1.811 . S
C2268 C401 1.828 . S
C2279 C415 1.820 . S
C2284 C149 1.819 . S
C2295 C163 1.830 . S
C2300 C429 1.809 . S
C2311 C359 1.824 . S
C2316 C177 1.816 . S
C2327 C373 1.832 . S
C2332 C191 1.808 . S
C2343 C205 1.817 . S
C2348 C387 1.822 . S
C2359 C219 1.806 . S
C2364 C345 1.834 . S
C2375 C233 1.821 . S
C2380 C625 1.819 . S
C2391 C247 1.811 . S
C2396 C667 1.828 . S
C2407 C639 1.834 . S
C2412 C261 1.806 . S
C2423 C653 1.816 . S
C2428 C275 1.824 . S
C2439 C289 1.828 . S
C2444 C569 1.812 . S
C2455 C303 1.818 . S
C2460 C597 1.822 . S
C2471 C611 1.807 . S
C2476 C317 1.833 . S
C2487 C331 1.831 . S
C2492 C583 1.809 . S
C2503 C1227 1.831 . S
C2508 C681 1.809 . S
C2519 C1185 1.830 . S
C2524 C695 1.809 . S
C2535 C1199 1.811 . S
C2540 C709 1.829 . S
C2551 C723 1.805 . S
C2556 C1213 1.835 . S
C2567 C1143 1.815 . S
C2572 C737 1.825 . S
C2583 C1157 1.807 . S
C2588 C751 1.833 . S
C2599 C765 1.819 . S
C2604 C1171 1.821 . S
C2615 C779 1.833 . S
C2620 C1129 1.806 . S
C2631 C1115 1.813 . S
C2636 C793 1.827 . S
C2647 C807 1.808 . S
C2652 C1073 1.831 . S
C2663 C1087 1.806 . S
C2668 C821 1.834 . S
C2679 C1101 1.812 . S
C2684 C835 1.828 . S
C2695 C849 1.834 . S
C2700 C1031 1.806 . S
C2711 C863 1.821 . S
C2716 C1045 1.819 . S
C2727 C1059 1.815 . S
C2732 C877 1.825 . S
C2743 C891 1.834 . S
C2748 C1017 1.806 . S
C2759 C1297 1.828 . S
C2764 C905 1.812 . S
C2775 C1339 1.824 . S
C2780 C919 1.815 . S
C2791 C933 1.814 . S
C2796 C1311 1.826 . S
C2807 C1325 1.806 . S
C2812 C947 1.834 . S
C2823 C1241 1.812 . S
C2828 C961 1.828 . S
C2839 C1269 1.806 . S
C2844 C975 1.834 . S
C2855 C989 1.813 . S
C2860 C1283 1.827 . S
C2871 C1255 1.812 . S
C2876 C1003 1.828 . S
C2887 C7 1.267 . S
C2892 C399 1.296 . S
C2903 C413 1.246 . S
C2908 C21 1.316 . S
C2919 C35 1.264 . S
C2924 C427 1.299 . S
C2935 C441 1.264 . S
C2940 C49 1.299 . S
C2951 C63 1.242 . S
C2956 C343 1.320 . S
C2967 C77 1.243 . S
C2972 C357 1.320 . S
C2983 C91 1.286 . S
C2988 C371 1.277 . S
C2999 C385 1.288 . S
C3004 C105 1.276 . S
C3015 C539 1.255 . S
C3020 C119 1.308 . S
C3031 C133 1.254 . S
C3036 C553 1.309 . S
C3047 C147 1.240 . S
C3052 C511 1.322 . S
C3063 C161 1.307 . S
C3068 C525 1.256 . S
C3079 C175 1.241 . S
C3084 C483 1.321 . S
C3095 C189 1.273 . S
C3100 C497 1.290 . S
C3111 C203 1.312 . S
C3116 C455 1.251 . S
C3127 C217 1.279 . S
C3132 C469 1.285 . S
C3143 C231 1.242 . S
C3148 C637 1.320 . S
C3159 C245 1.309 . S
C3164 C609 1.253 . S
C3175 C623 1.259 . S
C3180 C259 1.304 . S
C3191 C273 1.303 . S
C3196 C581 1.260 . S
C3207 C595 1.322 . S
C3212 C287 1.240 . S
C3223 C301 1.318 . S
C3228 C567 1.244 . S
C3239 C315 1.256 . S
C3244 C665 1.307 . S
C3255 C651 1.269 . S
C3260 C329 1.294 . S
C3271 C1071 1.264 . S
C3276 C679 1.299 . S
C3287 C693 1.320 . S
C3292 C1085 1.242 . S
C3303 C1099 1.318 . S
C3308 C707 1.244 . S
C3319 C721 1.314 . S
C3324 C1113 1.248 . S
C3335 C1015 1.317 . S
C3340 C735 1.245 . S
C3351 C1029 1.322 . S
C3356 C749 1.240 . S
C3367 C1043 1.240 . S
C3372 C763 1.322 . S
C3383 C777 1.239 . S
C3388 C1057 1.323 . S
C3399 C791 1.249 . S
C3404 C1211 1.313 . S
C3415 C1225 1.323 . S
C3420 C805 1.239 . S
C3431 C1183 1.310 . S
C3436 C819 1.253 . S
C3447 C1197 1.322 . S
C3452 C833 1.239 . S
C3463 C847 1.314 . S
C3468 C1155 1.249 . S
C3479 C861 1.266 . S
C3484 C1169 1.297 . S
C3495 C1127 1.311 . S
C3500 C875 1.251 . S
C3511 C1141 1.269 . S
C3516 C889 1.294 . S
C3527 C1309 1.261 . S
C3532 C903 1.302 . S
C3543 C917 1.301 . S
C3548 C1281 1.262 . S
C3559 C1295 1.255 . S
C3564 C931 1.308 . S
C3575 C945 1.241 . S
C3580 C1253 1.321 . S
C3591 C959 1.323 . S
C3596 C1267 1.239 . S
C3607 C973 1.322 . S
C3612 C1239 1.240 . S
C3623 C1337 1.287 . S
C3628 C987 1.276 . S
C3639 C1001 1.274 . S
C3644 C1323 1.290 . S
C3655 C440 1.218 . S
C3660 C6 1.280 . S
C3671 C398 1.217 . S
C3676 C20 1.281 . S
C3687 C34 1.277 . S
C3692 C412 1.221 . S
C3703 C426 1.292 . S
C3708 C48 1.205 . S
C3719 C356 1.212 . S
C3724 C62 1.286 . S
C3735 C76 1.216 . S
C3740 C370 1.282 . S
C3751 C90 1.290 . S
C3756 C384 1.207 . S
C3767 C342 1.204 . S
C3772 C104 1.293 . S
C3783 C622 1.265 . S
C3788 C118 1.234 . S
C3799 C132 1.231 . S
C3804 C580 1.268 . S
C3815 C146 1.244 . S
C3820 C594 1.255 . S
C3831 C608 1.295 . S
C3836 C160 1.202 . S
C3847 C174 1.242 . S
C3852 C664 1.257 . S
C3863 C636 1.286 . S
C3868 C188 1.212 . S
C3879 C650 1.294 . S
C3884 C202 1.203 . S
C3895 C216 1.221 . S
C3900 C566 1.278 . S
C3911 C230 1.203 . S
C3916 C552 1.295 . S
C3927 C244 1.287 . S
C3932 C468 1.211 . S
C3943 C258 1.203 . S
C3948 C482 1.294 . S
C3959 C496 1.267 . S
C3964 C272 1.231 . S
C3975 C454 1.222 . S
C3980 C286 1.276 . S
C3991 C300 1.264 . S
C3996 C524 1.235 . S
C4007 C314 1.288 . S
C4012 C538 1.210 . S
C4023 C328 1.269 . S
C4028 C510 1.230 . S
C4039 C678 1.231 . S
C4044 C1112 1.268 . S
C4055 C692 1.262 . S
C4060 C1070 1.237 . S
C4071 C706 1.226 . S
C4076 C1084 1.273 . S
C4087 C1098 1.295 . S
C4092 C720 1.203 . S
C4103 C1028 1.291 . S
C4108 C734 1.207 . S
C4119 C1042 1.205 . S
C4124 C748 1.293 . S
C4135 C762 1.249 . S
C4140 C1056 1.250 . S
C4151 C1014 1.228 . S
C4156 C776 1.270 . S
C4167 C1294 1.295 . S
C4172 C790 1.202 . S
C4183 C1252 1.283 . S
C4188 C804 1.215 . S
C4199 C1266 1.202 . S
C4204 C818 1.295 . S
C4215 C1280 1.253 . S
C4220 C832 1.246 . S
C4231 C1336 1.205 . S
C4236 C846 1.293 . S
C4247 C1308 1.202 . S
C4252 C860 1.295 . S
C4263 C1322 1.295 . S
C4268 C874 1.202 . S
C4279 C1238 1.295 . S
C4284 C888 1.203 . S
C4295 C902 1.274 . S
C4300 C1224 1.225 . S
C4311 C1140 1.283 . S
C4316 C916 1.215 . S
C4327 C1154 1.264 . S
C4332 C930 1.235 . S
C4343 C1168 1.293 . S
C4348 C944 1.205 . S
C4359 C1126 1.228 . S
C4364 C958 1.271 . S
C4375 C1196 1.293 . S
C4380 C972 1.204 . S
C4391 C1210 1.224 . S
C4396 C986 1.275 . S
C4407 C1182 1.290 . S
C4412 C1000 1.208 . S
