# Generated by pormake.
# Topology tzs, (4)-cn, num edge types: 1
# Building blocks:
#     Node 0, Type 0, BuildingBlock: UXUYUI_clean_sbu_0, # of connection points: 4
#     Node 1, Type 0, BuildingBlock: UXUYUI_clean_sbu_0, # of connection points: 4
#     Node 2, Type 0, BuildingBlock: UXUYUI_clean_sbu_0, # of connection points: 4
#     Node 3, Type 0, BuildingBlock: UXUYUI_clean_sbu_0, # of connection points: 4
#     Node 4, Type 0, BuildingBlock: UXUYUI_clean_sbu_0, # of connection points: 4
#     Node 5, Type 0, BuildingBlock: UXUYUI_clean_sbu_0, # of connection points: 4
#     Node 6, Type 0, BuildingBlock: UXUYUI_clean_sbu_0, # of connection points: 4
#     Node 7, Type 0, BuildingBlock: UXUYUI_clean_sbu_0, # of connection points: 4
#     Node 8, Type 0, BuildingBlock: UXUYUI_clean_sbu_0, # of connection points: 4
#     Node 9, Type 0, BuildingBlock: UXUYUI_clean_sbu_0, # of connection points: 4
#     Node 10, Type 0, BuildingBlock: UXUYUI_clean_sbu_0, # of connection points: 4
#     Node 11, Type 0, BuildingBlock: UXUYUI_clean_sbu_0, # of connection points: 4
#     Node 12, Type 0, BuildingBlock: UXUYUI_clean_sbu_0, # of connection points: 4
#     Node 13, Type 0, BuildingBlock: UXUYUI_clean_sbu_0, # of connection points: 4
#     Node 14, Type 0, BuildingBlock: UXUYUI_clean_sbu_0, # of connection points: 4
#     Node 15, Type 0, BuildingBlock: UXUYUI_clean_sbu_0, # of connection points: 4
#     Edge 16, Type (0, 0), BuildingBlock: KIFKEQ_clean_linker_1, # of connection points: 2
#     Edge 17, Type (0, 0), BuildingBlock: KIFKEQ_clean_linker_1, # of connection points: 2
#     Edge 18, Type (0, 0), BuildingBlock: KIFKEQ_clean_linker_1, # of connection points: 2
#     Edge 19, Type (0, 0), BuildingBlock: KIFKEQ_clean_linker_1, # of connection points: 2
#     Edge 20, Type (0, 0), BuildingBlock: KIFKEQ_clean_linker_1, # of connection points: 2
#     Edge 21, Type (0, 0), BuildingBlock: KIFKEQ_clean_linker_1, # of connection points: 2
#     Edge 22, Type (0, 0), BuildingBlock: KIFKEQ_clean_linker_1, # of connection points: 2
#     Edge 23, Type (0, 0), BuildingBlock: KIFKEQ_clean_linker_1, # of connection points: 2
#     Edge 24, Type (0, 0), BuildingBlock: KIFKEQ_clean_linker_1, # of connection points: 2
#     Edge 25, Type (0, 0), BuildingBlock: KIFKEQ_clean_linker_1, # of connection points: 2
#     Edge 26, Type (0, 0), BuildingBlock: KIFKEQ_clean_linker_1, # of connection points: 2
#     Edge 27, Type (0, 0), BuildingBlock: KIFKEQ_clean_linker_1, # of connection points: 2
#     Edge 28, Type (0, 0), BuildingBlock: KIFKEQ_clean_linker_1, # of connection points: 2
#     Edge 29, Type (0, 0), BuildingBlock: KIFKEQ_clean_linker_1, # of connection points: 2
#     Edge 30, Type (0, 0), BuildingBlock: KIFKEQ_clean_linker_1, # of connection points: 2
#     Edge 31, Type (0, 0), BuildingBlock: KIFKEQ_clean_linker_1, # of connection points: 2
#     Edge 32, Type (0, 0), BuildingBlock: KIFKEQ_clean_linker_1, # of connection points: 2
#     Edge 33, Type (0, 0), BuildingBlock: KIFKEQ_clean_linker_1, # of connection points: 2
#     Edge 34, Type (0, 0), BuildingBlock: KIFKEQ_clean_linker_1, # of connection points: 2
#     Edge 35, Type (0, 0), BuildingBlock: KIFKEQ_clean_linker_1, # of connection points: 2
#     Edge 36, Type (0, 0), BuildingBlock: KIFKEQ_clean_linker_1, # of connection points: 2
#     Edge 37, Type (0, 0), BuildingBlock: KIFKEQ_clean_linker_1, # of connection points: 2
#     Edge 38, Type (0, 0), BuildingBlock: KIFKEQ_clean_linker_1, # of connection points: 2
#     Edge 39, Type (0, 0), BuildingBlock: KIFKEQ_clean_linker_1, # of connection points: 2
#     Edge 40, Type (0, 0), BuildingBlock: KIFKEQ_clean_linker_1, # of connection points: 2
#     Edge 41, Type (0, 0), BuildingBlock: KIFKEQ_clean_linker_1, # of connection points: 2
#     Edge 42, Type (0, 0), BuildingBlock: KIFKEQ_clean_linker_1, # of connection points: 2
#     Edge 43, Type (0, 0), BuildingBlock: KIFKEQ_clean_linker_1, # of connection points: 2
#     Edge 44, Type (0, 0), BuildingBlock: KIFKEQ_clean_linker_1, # of connection points: 2
#     Edge 45, Type (0, 0), BuildingBlock: KIFKEQ_clean_linker_1, # of connection points: 2
#     Edge 46, Type (0, 0), BuildingBlock: KIFKEQ_clean_linker_1, # of connection points: 2
#     Edge 47, Type (0, 0), BuildingBlock: KIFKEQ_clean_linker_1, # of connection points: 2
# Relax obj value: 0.120
# Max RMSD: 0.120
# Mean RMSD: 0.120
data_MOF--net-tzs--node1-UXUYUI_clean_sbu_0--edge1-KIFKEQ_clean_linker_1
_symmetry_space_group_name_H-M    P1
_symmetry_Int_Tables_number       1
_symmetry_cell_setting            triclinic
loop_
_symmetry_equiv_pos_as_xyz
'x, y, z'
_cell_length_a     71.157124
_cell_length_b     71.159212
_cell_length_c     61.263194
_cell_angle_alpha  90.00659
_cell_angle_beta   89.981001
_cell_angle_gamma 89.996606
loop_
_atom_site_label
_atom_site_type_symbol
_atom_site_fract_x
_atom_site_fract_y
_atom_site_fract_z
_atom_type_partial_charge
Li0 Li 0.15838 0.34041 0.19373 0.0
Li1 Li 0.15102 0.37342 0.19347 0.0
Li2 Li 0.12599 0.35034 0.19122 0.0
Li3 Li 0.14679 0.35511 0.1607 0.0
C4 C 0.13832 0.34376 0.23299 0.0
N5 N 0.12731 0.32178 0.2679 0.0
C6 C 0.13694 0.35158 0.25385 0.0
C7 C 0.13405 0.32477 0.22986 0.0
C8 C 0.13137 0.34023 0.2713 0.0
C9 C 0.12852 0.31389 0.24773 0.0
C10 C 0.1882 0.36396 0.18464 0.0
C11 C 0.22153 0.3686 0.17992 0.0
N12 N 0.22342 0.37083 0.20186 0.0
C13 C 0.19048 0.3663 0.20715 0.0
C14 C 0.20384 0.36512 0.1709 0.0
C15 C 0.2084 0.36976 0.21553 0.0
C16 C 0.18271 0.30925 0.19057 0.0
N17 N 0.17553 0.32205 0.2048 0.0
C18 C 0.19349 0.30893 0.23405 0.0
C19 C 0.18081 0.32225 0.22614 0.0
C20 C 0.20113 0.29555 0.21976 0.0
C21 C 0.1957 0.29585 0.19772 0.0
H22 H 0.1784 0.30955 0.17364 0.0
H23 H 0.17533 0.33285 0.23705 0.0
C24 C 0.14427 0.40353 0.22099 0.0
N25 N 0.15631 0.39761 0.20522 0.0
C26 C 0.14626 0.42134 0.2302 0.0
C27 C 0.17313 0.42667 0.20686 0.0
C28 C 0.17055 0.40874 0.19799 0.0
C29 C 0.16084 0.43323 0.22317 0.0
H30 H 0.13292 0.39445 0.22616 0.0
H31 H 0.1798 0.4038 0.18522 0.0
C32 C 0.12653 0.32194 0.15967 0.0
N33 N 0.10194 0.30442 0.13132 0.0
C34 C 0.11111 0.33174 0.15131 0.0
C35 C 0.12945 0.30323 0.15362 0.0
C36 C 0.09884 0.32264 0.137 0.0
C37 C 0.11686 0.29462 0.13927 0.0
C38 C 0.12869 0.38996 0.16228 0.0
C39 C 0.112 0.4002 0.16059 0.0
C40 C 0.14505 0.39676 0.1524 0.0
C41 C 0.11194 0.41709 0.14897 0.0
C42 C 0.14441 0.41372 0.14094 0.0
N43 N 0.12801 0.42345 0.13948 0.0
C44 C 0.09169 0.36193 0.20735 0.0
C45 C 0.09258 0.32899 0.20164 0.0
C46 C 0.07333 0.36079 0.21517 0.0
N47 N 0.10086 0.3462 0.20073 0.0
C48 C 0.07414 0.32721 0.2093 0.0
C49 C 0.06423 0.34328 0.21616 0.0
H50 H 0.09877 0.37537 0.20673 0.0
H51 H 0.10028 0.31666 0.1965 0.0
C52 C 0.16378 0.34814 0.11961 0.0
N53 N 0.14815 0.35507 0.12952 0.0
C54 C 0.16502 0.34778 0.09682 0.0
C55 C 0.13409 0.36171 0.09493 0.0
C56 C 0.1334 0.3617 0.11769 0.0
C57 C 0.15006 0.3547 0.08418 0.0
H58 H 0.17527 0.34289 0.12943 0.0
H59 H 0.12102 0.36693 0.1259 0.0
O60 O 0.14357 0.35481 0.21576 0.0
O61 O 0.17085 0.36042 0.17595 0.0
O62 O 0.13888 0.33051 0.17359 0.0
O63 O 0.12892 0.37346 0.17375 0.0
H64 H 0.14015 0.36628 0.2565 0.0
H65 H 0.135 0.31845 0.21385 0.0
H66 H 0.13026 0.3461 0.28754 0.0
H67 H 0.12519 0.29918 0.24555 0.0
H68 H 0.23375 0.36953 0.16948 0.0
H69 H 0.17857 0.36551 0.21806 0.0
H70 H 0.2023 0.36332 0.15344 0.0
H71 H 0.21036 0.3716 0.23291 0.0
H72 H 0.19757 0.30932 0.25108 0.0
H73 H 0.20129 0.28573 0.18623 0.0
H74 H 0.13619 0.42588 0.24236 0.0
H75 H 0.18465 0.43526 0.20103 0.0
H76 H 0.10859 0.34621 0.15581 0.0
H77 H 0.14135 0.29547 0.15994 0.0
H78 H 0.08685 0.33006 0.1304 0.0
H79 H 0.11895 0.28015 0.13443 0.0
H80 H 0.09923 0.39512 0.16817 0.0
H81 H 0.15811 0.38906 0.15352 0.0
H82 H 0.09912 0.42516 0.14752 0.0
H83 H 0.15696 0.41914 0.13322 0.0
H84 H 0.06646 0.37351 0.22072 0.0
H85 H 0.06767 0.31344 0.20965 0.0
H86 H 0.17764 0.34237 0.08918 0.0
H87 H 0.12211 0.3669 0.08585 0.0
Li88 Li 0.62674 0.15058 0.18902 0.0
Li89 Li 0.66081 0.15961 0.19344 0.0
Li90 Li 0.64739 0.14607 0.15837 0.0
Li91 Li 0.651 0.12689 0.19011 0.0
C92 C 0.62943 0.18527 0.17526 0.0
N93 N 0.60463 0.21478 0.18071 0.0
C94 C 0.63279 0.19891 0.19121 0.0
C95 C 0.61353 0.18672 0.16197 0.0
C96 C 0.62007 0.21371 0.19373 0.0
C97 C 0.60113 0.20172 0.16502 0.0
C98 C 0.64419 0.13464 0.23152 0.0
C99 C 0.66012 0.12066 0.2622 0.0
N100 N 0.64413 0.1112 0.26743 0.0
C101 C 0.62788 0.12488 0.23724 0.0
C102 C 0.66043 0.1326 0.24411 0.0
C103 C 0.62815 0.11306 0.25544 0.0
C104 C 0.5872 0.14691 0.19007 0.0
N105 N 0.60195 0.15635 0.19888 0.0
C106 C 0.5815 0.17212 0.22391 0.0
C107 C 0.59947 0.16874 0.21554 0.0
C108 C 0.56597 0.16252 0.21513 0.0
C109 C 0.56902 0.14986 0.19789 0.0
H110 H 0.58957 0.13668 0.17737 0.0
H111 H 0.61151 0.17577 0.22258 0.0
C112 C 0.69137 0.18461 0.19248 0.0
N113 N 0.67805 0.177 0.20569 0.0
C114 C 0.70431 0.1975 0.20082 0.0
C115 C 0.68946 0.19459 0.23616 0.0
C116 C 0.67682 0.18173 0.22713 0.0
C117 C 0.70347 0.20268 0.22296 0.0
H118 H 0.69197 0.18056 0.17547 0.0
H119 H 0.66591 0.17563 0.23717 0.0
C120 C 0.62249 0.11997 0.15183 0.0
N121 N 0.61005 0.10424 0.11317 0.0
C122 C 0.62872 0.10215 0.14549 0.0
C123 C 0.60991 0.12977 0.1385 0.0
C124 C 0.62225 0.09444 0.1259 0.0
C125 C 0.60381 0.1216 0.11901 0.0
C126 C 0.68628 0.12803 0.17404 0.0
C127 C 0.68554 0.11109 0.16252 0.0
C128 C 0.70245 0.13265 0.18584 0.0
C129 C 0.70098 0.09898 0.16308 0.0
C130 C 0.71762 0.12018 0.18595 0.0
N131 N 0.71657 0.10374 0.17468 0.0
C132 C 0.64527 0.16433 0.11725 0.0
C133 C 0.65491 0.13255 0.11532 0.0
C134 C 0.64607 0.16593 0.09452 0.0
N135 N 0.64948 0.14777 0.12716 0.0
C136 C 0.65562 0.13342 0.09257 0.0
C137 C 0.65114 0.15027 0.08177 0.0
H138 H 0.64128 0.17635 0.127 0.0
H139 H 0.65837 0.11958 0.12346 0.0
C140 C 0.64083 0.09004 0.20088 0.0
N141 N 0.6556 0.10214 0.20166 0.0
C142 C 0.64243 0.07196 0.20945 0.0
C143 C 0.67426 0.07918 0.22025 0.0
C144 C 0.672 0.09718 0.21153 0.0
C145 C 0.65938 0.06623 0.21915 0.0
H146 H 0.62764 0.09455 0.19387 0.0
H147 H 0.68327 0.10725 0.21295 0.0
O148 O 0.6415 0.17046 0.17287 0.0
O149 O 0.64436 0.14583 0.21339 0.0
O150 O 0.62879 0.12787 0.17086 0.0
O151 O 0.67136 0.14015 0.17363 0.0
H152 H 0.64499 0.198 0.20166 0.0
H153 H 0.61073 0.17631 0.14953 0.0
H154 H 0.62245 0.22431 0.20607 0.0
H155 H 0.58872 0.20295 0.15493 0.0
H156 H 0.67262 0.11882 0.27201 0.0
H157 H 0.61523 0.12623 0.22756 0.0
H158 H 0.67322 0.13993 0.23974 0.0
H159 H 0.61567 0.10531 0.26 0.0
H160 H 0.5798 0.18204 0.23717 0.0
H161 H 0.55756 0.14182 0.19096 0.0
H162 H 0.71499 0.20318 0.19009 0.0
H163 H 0.68809 0.19837 0.25321 0.0
H164 H 0.63868 0.09444 0.15534 0.0
H165 H 0.60507 0.14363 0.143 0.0
H166 H 0.62702 0.0807 0.12076 0.0
H167 H 0.59416 0.12908 0.1085 0.0
H168 H 0.67304 0.10714 0.15365 0.0
H169 H 0.70325 0.14566 0.19491 0.0
H170 H 0.70054 0.08576 0.15438 0.0
H171 H 0.7302 0.12354 0.19505 0.0
H172 H 0.64287 0.17935 0.08708 0.0
H173 H 0.65932 0.12085 0.08359 0.0
H174 H 0.63038 0.06268 0.20881 0.0
H175 H 0.68756 0.07543 0.22765 0.0
Li176 Li 0.84105 0.66021 0.19505 0.0
Li177 Li 0.84857 0.62721 0.19447 0.0
Li178 Li 0.87346 0.6506 0.19333 0.0
Li179 Li 0.85338 0.64597 0.16206 0.0
C180 C 0.85999 0.65657 0.2348 0.0
N181 N 0.86977 0.67836 0.27035 0.0
C182 C 0.86058 0.64865 0.25565 0.0
C183 C 0.86441 0.67556 0.232 0.0
C184 C 0.86554 0.65991 0.27343 0.0
C185 C 0.86931 0.68634 0.25018 0.0
C186 C 0.81141 0.63683 0.18442 0.0
C187 C 0.77814 0.6332 0.17826 0.0
N188 N 0.77558 0.63019 0.19999 0.0
C189 C 0.80845 0.63372 0.20669 0.0
C190 C 0.79616 0.6366 0.17008 0.0
C191 C 0.79023 0.63038 0.21423 0.0
C192 C 0.818 0.69247 0.19275 0.0
N193 N 0.82372 0.67836 0.20613 0.0
C194 C 0.80404 0.68975 0.23486 0.0
C195 C 0.817 0.67676 0.22683 0.0
C196 C 0.79776 0.70448 0.22143 0.0
C197 C 0.80496 0.70575 0.20009 0.0
H198 H 0.82346 0.69329 0.17629 0.0
H199 H 0.82162 0.66534 0.23713 0.0
C200 C 0.85698 0.59583 0.21908 0.0
N201 N 0.8436 0.60263 0.20538 0.0
C202 C 0.8557 0.57754 0.22714 0.0
C203 C 0.82659 0.57369 0.20729 0.0
C204 C 0.82862 0.59198 0.19925 0.0
C205 C 0.84036 0.56625 0.22124 0.0
H206 H 0.86884 0.60457 0.22343 0.0
H207 H 0.81842 0.5975 0.18787 0.0
C208 C 0.87352 0.67912 0.16209 0.0
N209 N 0.89874 0.69674 0.13457 0.0
C210 C 0.88859 0.66908 0.15324 0.0
C211 C 0.87126 0.69811 0.15693 0.0
C212 C 0.90119 0.67824 0.13936 0.0
C213 C 0.88417 0.70677 0.143 0.0
C214 C 0.87195 0.61116 0.16407 0.0
C215 C 0.88881 0.60114 0.16312 0.0
C216 C 0.85595 0.60403 0.15372 0.0
C217 C 0.88943 0.58416 0.1517 0.0
C218 C 0.85714 0.587 0.14248 0.0
N219 N 0.87372 0.5775 0.1417 0.0
C220 C 0.90642 0.63977 0.21341 0.0
C221 C 0.90695 0.67197 0.20344 0.0
C222 C 0.9242 0.64127 0.2228 0.0
N223 N 0.8982 0.65497 0.204 0.0
C224 C 0.92493 0.67403 0.21234 0.0
C225 C 0.93367 0.65856 0.22231 0.0
H226 H 0.89901 0.62649 0.21378 0.0
H227 H 0.89993 0.68397 0.19635 0.0
C228 C 0.83807 0.6559 0.12118 0.0
N229 N 0.85258 0.6467 0.13086 0.0
C230 C 0.83721 0.65739 0.09844 0.0
C231 C 0.86614 0.63974 0.09608 0.0
C232 C 0.86657 0.63882 0.11882 0.0
C233 C 0.85137 0.64921 0.08549 0.0
H234 H 0.82728 0.66228 0.13118 0.0
H235 H 0.87817 0.63189 0.12683 0.0
O236 O 0.85533 0.64561 0.21727 0.0
O237 O 0.82907 0.64038 0.17659 0.0
O238 O 0.86081 0.67048 0.17552 0.0
O239 O 0.87112 0.62765 0.17549 0.0
H240 H 0.85726 0.63395 0.25805 0.0
H241 H 0.86409 0.68194 0.21599 0.0
H242 H 0.86605 0.65397 0.28967 0.0
H243 H 0.87276 0.70105 0.24826 0.0
H244 H 0.7662 0.63298 0.16734 0.0
H245 H 0.82008 0.6338 0.21804 0.0
H246 H 0.79823 0.63904 0.1528 0.0
H247 H 0.78774 0.62794 0.23142 0.0
H248 H 0.79913 0.68833 0.25151 0.0
H249 H 0.80035 0.71668 0.18903 0.0
H250 H 0.86656 0.57228 0.23791 0.0
H251 H 0.8147 0.56527 0.20218 0.0
H252 H 0.89062 0.65439 0.15706 0.0
H253 H 0.85963 0.70606 0.16362 0.0
H254 H 0.91292 0.67064 0.13241 0.0
H255 H 0.8826 0.72147 0.13887 0.0
H256 H 0.90128 0.60644 0.17116 0.0
H257 H 0.84275 0.61153 0.15437 0.0
H258 H 0.9024 0.57626 0.15081 0.0
H259 H 0.84488 0.58132 0.13439 0.0
H260 H 0.93054 0.629 0.23023 0.0
H261 H 0.93175 0.68763 0.21188 0.0
H262 H 0.82572 0.66514 0.09115 0.0
H263 H 0.87724 0.63294 0.08693 0.0
Li264 Li 0.3751 0.84911 0.19294 0.0
Li265 Li 0.34155 0.84089 0.19486 0.0
Li266 Li 0.35509 0.85535 0.16063 0.0
Li267 Li 0.34983 0.87396 0.19405 0.0
C268 C 0.37208 0.81612 0.16787 0.0
N269 N 0.39441 0.78664 0.15409 0.0
C270 C 0.37016 0.79836 0.17738 0.0
C271 C 0.38515 0.8188 0.15114 0.0
C272 C 0.38164 0.78366 0.17025 0.0
C273 C 0.39636 0.80375 0.14446 0.0
C274 C 0.35214 0.84783 0.2363 0.0
C275 C 0.33035 0.84482 0.26625 0.0
N276 N 0.34236 0.83269 0.27624 0.0
C277 C 0.36434 0.83546 0.24693 0.0
C278 C 0.33508 0.85269 0.24609 0.0
C279 C 0.35912 0.82792 0.2671 0.0
C280 C 0.41016 0.85948 0.20838 0.0
N281 N 0.39992 0.84401 0.20319 0.0
C282 C 0.42481 0.8239 0.21519 0.0
C283 C 0.40683 0.8264 0.20643 0.0
C284 C 0.43565 0.83967 0.22088 0.0
C285 C 0.42813 0.85765 0.21719 0.0
H286 H 0.40423 0.87332 0.20591 0.0
H287 H 0.39828 0.81429 0.20279 0.0
C288 C 0.30561 0.82456 0.19999 0.0
N289 N 0.32394 0.823 0.20594 0.0
C290 C 0.29223 0.81204 0.20818 0.0
C291 C 0.31685 0.79642 0.22838 0.0
C292 C 0.32977 0.80913 0.21961 0.0
C293 C 0.29773 0.79777 0.22275 0.0
H294 H 0.30136 0.83551 0.18882 0.0
H295 H 0.34446 0.80799 0.22386 0.0
C296 C 0.38544 0.88134 0.16245 0.0
N297 N 0.41132 0.89904 0.13583 0.0
C298 C 0.38328 0.90034 0.15723 0.0
C299 C 0.40093 0.87143 0.15443 0.0
C300 C 0.39646 0.90901 0.14365 0.0
C301 C 0.41381 0.88061 0.14092 0.0
C302 C 0.31651 0.87357 0.17411 0.0
C303 C 0.31352 0.88332 0.15461 0.0
C304 C 0.30487 0.87699 0.19204 0.0
C305 C 0.29906 0.89657 0.1535 0.0
C306 C 0.29058 0.89036 0.19029 0.0
N307 N 0.288 0.89981 0.17122 0.0
C308 C 0.35083 0.83911 0.11881 0.0
C309 C 0.35684 0.87183 0.11827 0.0
C310 C 0.3502 0.83861 0.09601 0.0
N311 N 0.35431 0.85552 0.12943 0.0
C312 C 0.35635 0.87199 0.09548 0.0
C313 C 0.35304 0.8552 0.08399 0.0
H314 H 0.34849 0.82638 0.12807 0.0
H315 H 0.35905 0.8848 0.12704 0.0
C316 C 0.34817 0.90123 0.22695 0.0
N317 N 0.34464 0.89842 0.2054 0.0
C318 C 0.34605 0.91904 0.23615 0.0
C319 C 0.33636 0.93078 0.20089 0.0
C320 C 0.33886 0.91274 0.19231 0.0
C321 C 0.34022 0.93413 0.22304 0.0
H322 H 0.35306 0.88971 0.23694 0.0
H323 H 0.33664 0.9103 0.1751 0.0
O324 O 0.36094 0.83065 0.17468 0.0
O325 O 0.35695 0.85523 0.21647 0.0
O326 O 0.37267 0.87267 0.17577 0.0
O327 O 0.33068 0.86065 0.17555 0.0
H328 H 0.35999 0.79598 0.19019 0.0
H329 H 0.38651 0.83231 0.14323 0.0
H330 H 0.38038 0.76988 0.17755 0.0
H331 H 0.40657 0.80565 0.13156 0.0
H332 H 0.31714 0.84837 0.27395 0.0
H333 H 0.37764 0.83162 0.23963 0.0
H334 H 0.32557 0.86238 0.23818 0.0
H335 H 0.36837 0.81824 0.27546 0.0
H336 H 0.42994 0.80979 0.21807 0.0
H337 H 0.43605 0.8702 0.2211 0.0
H338 H 0.27777 0.81343 0.20294 0.0
H339 H 0.3218 0.78584 0.2397 0.0
H340 H 0.37148 0.90827 0.16346 0.0
H341 H 0.40311 0.85689 0.15878 0.0
H342 H 0.39489 0.92367 0.13935 0.0
H343 H 0.42584 0.87309 0.13456 0.0
H344 H 0.32231 0.88075 0.14053 0.0
H345 H 0.30689 0.86944 0.20717 0.0
H346 H 0.29664 0.90429 0.13856 0.0
H347 H 0.28153 0.89323 0.20409 0.0
H348 H 0.34724 0.8254 0.08792 0.0
H349 H 0.35874 0.88511 0.08696 0.0
H350 H 0.34908 0.92102 0.25332 0.0
H351 H 0.3321 0.94211 0.19017 0.0
Li352 Li 0.12713 0.6503 0.3095 0.0
Li353 Li 0.14685 0.64595 0.34042 0.0
Li354 Li 0.15897 0.66131 0.30758 0.0
Li355 Li 0.15155 0.62722 0.30765 0.0
C356 C 0.12628 0.67889 0.34103 0.0
N357 N 0.10107 0.69603 0.36898 0.0
C358 C 0.11102 0.66879 0.34935 0.0
C359 C 0.12873 0.69769 0.34694 0.0
C360 C 0.09843 0.67771 0.36345 0.0
C361 C 0.11582 0.70612 0.36108 0.0
C362 C 0.12939 0.61109 0.33904 0.0
C363 C 0.14562 0.5875 0.3601 0.0
N364 N 0.12916 0.57802 0.36266 0.0
C365 C 0.11266 0.60111 0.34184 0.0
C366 C 0.14603 0.60423 0.3482 0.0
C367 C 0.11283 0.58442 0.35385 0.0
C368 C 0.09269 0.63858 0.29315 0.0
N369 N 0.10193 0.65427 0.29975 0.0
C370 C 0.07528 0.67336 0.2912 0.0
C371 C 0.09372 0.6715 0.29881 0.0
C372 C 0.06532 0.65735 0.28427 0.0
C373 C 0.07438 0.6398 0.2852 0.0
H374 H 0.09969 0.6251 0.29382 0.0
H375 H 0.10147 0.68381 0.30391 0.0
C376 C 0.16333 0.65349 0.38158 0.0
N377 N 0.14795 0.64609 0.37161 0.0
C378 C 0.16443 0.65402 0.40438 0.0
C379 C 0.13389 0.63924 0.40615 0.0
C380 C 0.13331 0.63913 0.38339 0.0
C381 C 0.14959 0.64673 0.41695 0.0
H382 H 0.17472 0.65901 0.3718 0.0
H383 H 0.1211 0.63358 0.37515 0.0
C384 C 0.1348 0.65167 0.26796 0.0
N385 N 0.11185 0.66249 0.23384 0.0
C386 C 0.12758 0.63822 0.25363 0.0
C387 C 0.13048 0.67065 0.26485 0.0
C388 C 0.11597 0.64397 0.2365 0.0
C389 C 0.11882 0.67583 0.24752 0.0
C390 C 0.18887 0.63763 0.31811 0.0
C391 C 0.19271 0.63742 0.29572 0.0
C392 C 0.20345 0.6348 0.33302 0.0
C393 C 0.21111 0.6343 0.28864 0.0
C394 C 0.22166 0.63171 0.32528 0.0
N395 N 0.22508 0.63153 0.30344 0.0
C396 C 0.18606 0.68999 0.31174 0.0
C397 C 0.17852 0.68207 0.27519 0.0
C398 C 0.19924 0.7032 0.3046 0.0
N399 N 0.17603 0.6798 0.29703 0.0
C400 C 0.19137 0.69526 0.26733 0.0
C401 C 0.20196 0.706 0.28211 0.0
H402 H 0.1839 0.68773 0.32903 0.0
H403 H 0.17072 0.67346 0.26384 0.0
C404 C 0.14165 0.59404 0.2875 0.0
N405 N 0.15676 0.60257 0.29676 0.0
C406 C 0.14295 0.57564 0.27982 0.0
C407 C 0.17543 0.575 0.29129 0.0
C408 C 0.17343 0.5934 0.299 0.0
C409 C 0.16001 0.56587 0.28167 0.0
H410 H 0.12844 0.6015 0.28643 0.0
H411 H 0.18509 0.6001 0.30711 0.0
O412 O 0.13894 0.67049 0.32732 0.0
O413 O 0.12936 0.62734 0.32709 0.0
O414 O 0.14577 0.64631 0.28521 0.0
O415 O 0.17106 0.64099 0.32554 0.0
H416 H 0.10886 0.65424 0.34496 0.0
H417 H 0.1405 0.70568 0.34067 0.0
H418 H 0.08657 0.67006 0.37 0.0
H419 H 0.11755 0.72067 0.3658 0.0
H420 H 0.15838 0.58203 0.36728 0.0
H421 H 0.09968 0.60621 0.33477 0.0
H422 H 0.15914 0.6117 0.34618 0.0
H423 H 0.09997 0.57655 0.35616 0.0
H424 H 0.06888 0.68716 0.29098 0.0
H425 H 0.06751 0.62711 0.27959 0.0
H426 H 0.17683 0.65983 0.41207 0.0
H427 H 0.12201 0.63376 0.4152 0.0
H428 H 0.13086 0.62349 0.25572 0.0
H429 H 0.13581 0.68123 0.27594 0.0
H430 H 0.11021 0.6337 0.22534 0.0
H431 H 0.11524 0.69045 0.24502 0.0
H432 H 0.18164 0.63954 0.28391 0.0
H433 H 0.2007 0.63502 0.35041 0.0
H434 H 0.21428 0.63407 0.27137 0.0
H435 H 0.23308 0.62948 0.33665 0.0
H436 H 0.20709 0.71125 0.31651 0.0
H437 H 0.19328 0.69678 0.24988 0.0
H438 H 0.13074 0.56914 0.27245 0.0
H439 H 0.18873 0.56781 0.29335 0.0
Li440 Li 0.34951 0.128 0.30805 0.0
Li441 Li 0.35514 0.14722 0.34097 0.0
Li442 Li 0.34125 0.16099 0.3064 0.0
Li443 Li 0.37479 0.15267 0.30807 0.0
C444 C 0.31664 0.12867 0.32869 0.0
N445 N 0.28863 0.10207 0.33304 0.0
C446 C 0.31445 0.11899 0.34836 0.0
C447 C 0.30447 0.12501 0.31131 0.0
C448 C 0.30022 0.10555 0.35022 0.0
C449 C 0.29044 0.11145 0.3138 0.0
C450 C 0.38682 0.12219 0.3382 0.0
C451 C 0.4157 0.126 0.35829 0.0
N452 N 0.41587 0.10724 0.36253 0.0
C453 C 0.38736 0.10292 0.34258 0.0
C454 C 0.40115 0.13381 0.34597 0.0
C455 C 0.40214 0.09564 0.35499 0.0
C456 C 0.34546 0.09962 0.27632 0.0
N457 N 0.344 0.10323 0.29803 0.0
C458 C 0.33708 0.07095 0.30529 0.0
C459 C 0.33995 0.08934 0.31253 0.0
C460 C 0.33879 0.06668 0.28295 0.0
C461 C 0.34293 0.0814 0.26839 0.0
H462 H 0.34913 0.11081 0.26518 0.0
H463 H 0.33929 0.09248 0.32977 0.0
C464 C 0.34864 0.16343 0.3824 0.0
N465 N 0.35463 0.14758 0.37213 0.0
C466 C 0.34812 0.16425 0.4052 0.0
C467 C 0.35982 0.13238 0.40642 0.0
C468 C 0.35994 0.13212 0.38363 0.0
C469 C 0.35389 0.14862 0.41749 0.0
H470 H 0.34434 0.17547 0.37285 0.0
H471 H 0.3641 0.1195 0.37514 0.0
C472 C 0.35165 0.15309 0.26492 0.0
N473 N 0.34199 0.16735 0.22452 0.0
C474 C 0.3642 0.16463 0.2536 0.0
C475 C 0.33429 0.14861 0.25561 0.0
C476 C 0.35903 0.17174 0.2332 0.0
C477 C 0.32963 0.15603 0.23521 0.0
C478 C 0.37112 0.1868 0.33236 0.0
C479 C 0.36917 0.20383 0.32123 0.0
C480 C 0.38322 0.18568 0.35028 0.0
C481 C 0.37967 0.21938 0.32794 0.0
C482 C 0.39348 0.20154 0.35649 0.0
N483 N 0.39152 0.21791 0.34527 0.0
C484 C 0.30551 0.17796 0.30284 0.0
C485 C 0.32874 0.19169 0.28016 0.0
C486 C 0.29196 0.19042 0.29492 0.0
N487 N 0.32347 0.17873 0.29529 0.0
C488 C 0.31557 0.20419 0.27151 0.0
C489 C 0.29691 0.20364 0.27891 0.0
H490 H 0.30171 0.16765 0.31503 0.0
H491 H 0.34317 0.19232 0.27475 0.0
C492 C 0.40896 0.14182 0.29063 0.0
N493 N 0.39958 0.15739 0.29744 0.0
C494 C 0.42697 0.14333 0.28181 0.0
C495 C 0.42546 0.17694 0.28713 0.0
C496 C 0.40741 0.17478 0.29582 0.0
C497 C 0.43544 0.16108 0.27985 0.0
H498 H 0.40234 0.12818 0.29195 0.0
H499 H 0.39962 0.18701 0.30089 0.0
O500 O 0.33059 0.14174 0.32649 0.0
O501 O 0.37242 0.12951 0.3261 0.0
O502 O 0.35641 0.1461 0.28496 0.0
O503 O 0.36084 0.17148 0.32607 0.0
H504 H 0.32371 0.12172 0.362 0.0
H505 H 0.30591 0.13249 0.29604 0.0
H506 H 0.29842 0.09787 0.36531 0.0
H507 H 0.28098 0.10838 0.30045 0.0
H508 H 0.42688 0.13484 0.36442 0.0
H509 H 0.37643 0.09371 0.33656 0.0
H510 H 0.40116 0.14866 0.34234 0.0
H511 H 0.40269 0.08077 0.35861 0.0
H512 H 0.33373 0.06017 0.31715 0.0
H513 H 0.34482 0.07882 0.25112 0.0
H514 H 0.34352 0.17706 0.41312 0.0
H515 H 0.36405 0.11992 0.41528 0.0
H516 H 0.37771 0.16818 0.26054 0.0
H517 H 0.32448 0.1396 0.26411 0.0
H518 H 0.36855 0.18077 0.22429 0.0
H519 H 0.3162 0.15278 0.22786 0.0
H520 H 0.35974 0.20501 0.30747 0.0
H521 H 0.38459 0.17276 0.35943 0.0
H522 H 0.37839 0.23261 0.31938 0.0
H523 H 0.40294 0.20084 0.37029 0.0
H524 H 0.27768 0.18955 0.30099 0.0
H525 H 0.31999 0.21437 0.2594 0.0
H526 H 0.43421 0.1307 0.27666 0.0
H527 H 0.43136 0.19091 0.28565 0.0
Li528 Li 0.873 0.35054 0.30985 0.0
Li529 Li 0.85252 0.35542 0.34204 0.0
Li530 Li 0.84034 0.34105 0.30878 0.0
Li531 Li 0.84839 0.37355 0.30915 0.0
C532 C 0.8726 0.32189 0.34172 0.0
N533 N 0.89733 0.30358 0.36923 0.0
C534 C 0.88748 0.33171 0.35132 0.0
C535 C 0.8703 0.30276 0.34613 0.0
C536 C 0.89982 0.3222 0.36518 0.0
C537 C 0.88296 0.29375 0.36007 0.0
C538 C 0.87279 0.39153 0.33358 0.0
C539 C 0.86161 0.4197 0.35121 0.0
N540 N 0.87603 0.42951 0.34213 0.0
C541 C 0.88755 0.40186 0.3245 0.0
C542 C 0.85973 0.40048 0.3471 0.0
C543 C 0.88893 0.42106 0.329 0.0
C544 C 0.90457 0.36054 0.28676 0.0
N545 N 0.8977 0.34611 0.29887 0.0
C546 C 0.92586 0.32842 0.29305 0.0
C547 C 0.90776 0.33004 0.30181 0.0
C548 C 0.93352 0.34336 0.28092 0.0
C549 C 0.92247 0.35948 0.27761 0.0
H550 H 0.89599 0.37287 0.28408 0.0
H551 H 0.90181 0.31847 0.31089 0.0
C552 C 0.83723 0.34642 0.38337 0.0
N553 N 0.85166 0.35528 0.37311 0.0
C554 C 0.83645 0.34591 0.40618 0.0
C555 C 0.86539 0.36366 0.40735 0.0
C556 C 0.86563 0.36378 0.38457 0.0
C557 C 0.85065 0.35466 0.41848 0.0
H558 H 0.82633 0.33974 0.37381 0.0
H559 H 0.87706 0.37056 0.37601 0.0
C560 C 0.85881 0.34368 0.26903 0.0
N561 N 0.86738 0.32065 0.2341 0.0
C562 C 0.85827 0.35074 0.24776 0.0
C563 C 0.86375 0.3249 0.27255 0.0
C564 C 0.86263 0.33887 0.23032 0.0
C565 C 0.86803 0.31349 0.25467 0.0
C566 C 0.81088 0.36479 0.31932 0.0
C567 C 0.80791 0.36834 0.29714 0.0
C568 C 0.79562 0.36472 0.33367 0.0
C569 C 0.78969 0.37178 0.28969 0.0
C570 C 0.7776 0.36823 0.32559 0.0
N571 N 0.77503 0.37165 0.30395 0.0
C572 C 0.8182 0.3081 0.31093 0.0
C573 C 0.81534 0.32501 0.27778 0.0
C574 C 0.80522 0.29473 0.30368 0.0
N575 N 0.82296 0.32285 0.29798 0.0
C576 C 0.80229 0.31204 0.26991 0.0
C577 C 0.79701 0.29666 0.28292 0.0
H578 H 0.82441 0.3068 0.32698 0.0
H579 H 0.81932 0.33685 0.26776 0.0
C580 C 0.85533 0.4037 0.28168 0.0
N581 N 0.8434 0.39798 0.29764 0.0
C582 C 0.85371 0.42163 0.27272 0.0
C583 C 0.82721 0.42741 0.29647 0.0
C584 C 0.82954 0.40941 0.30523 0.0
C585 C 0.83945 0.43381 0.28001 0.0
H586 H 0.86639 0.39438 0.27622 0.0
H587 H 0.82039 0.40462 0.31818 0.0
O588 O 0.86012 0.33087 0.32832 0.0
O589 O 0.87081 0.37285 0.32883 0.0
O590 O 0.85464 0.35525 0.2862 0.0
O591 O 0.82855 0.3612 0.32706 0.0
H592 H 0.88958 0.34648 0.34803 0.0
H593 H 0.85883 0.29497 0.33885 0.0
H594 H 0.9114 0.32963 0.3727 0.0
H595 H 0.88134 0.27894 0.36362 0.0
H596 H 0.85154 0.42683 0.36152 0.0
H597 H 0.8978 0.39516 0.31405 0.0
H598 H 0.8481 0.39273 0.35405 0.0
H599 H 0.90024 0.42925 0.32202 0.0
H600 H 0.93383 0.31571 0.29602 0.0
H601 H 0.9275 0.37113 0.26786 0.0
H602 H 0.82474 0.33895 0.41407 0.0
H603 H 0.87678 0.37033 0.41615 0.0
H604 H 0.8545 0.36526 0.24479 0.0
H605 H 0.86429 0.31915 0.28885 0.0
H606 H 0.86225 0.34416 0.21376 0.0
H607 H 0.87186 0.29893 0.25715 0.0
H608 H 0.81953 0.36846 0.28577 0.0
H609 H 0.79769 0.36195 0.35088 0.0
H610 H 0.78719 0.37454 0.27257 0.0
H611 H 0.76565 0.36821 0.33651 0.0
H612 H 0.80141 0.28321 0.31434 0.0
H613 H 0.79653 0.31395 0.2537 0.0
H614 H 0.86381 0.42598 0.26051 0.0
H615 H 0.8159 0.43616 0.30252 0.0
Li616 Li 0.65118 0.87475 0.31072 0.0
Li617 Li 0.64658 0.85508 0.34335 0.0
Li618 Li 0.65975 0.84103 0.30855 0.0
Li619 Li 0.62647 0.84965 0.31209 0.0
C620 C 0.68753 0.86969 0.32925 0.0
N621 N 0.72211 0.8872 0.33232 0.0
C622 C 0.69209 0.88022 0.34777 0.0
C623 C 0.70073 0.86776 0.3125 0.0
C624 C 0.70959 0.88906 0.34896 0.0
C625 C 0.71809 0.8768 0.3143 0.0
C626 C 0.62086 0.88291 0.34646 0.0
C627 C 0.60101 0.88446 0.37833 0.0
N628 N 0.60567 0.90286 0.38092 0.0
C629 C 0.62535 0.90188 0.34934 0.0
C630 C 0.60848 0.87415 0.36097 0.0
C631 C 0.61755 0.91171 0.36689 0.0
C632 C 0.6474 0.90413 0.28086 0.0
N633 N 0.65624 0.89939 0.29974 0.0
C634 C 0.66994 0.93003 0.30216 0.0
C635 C 0.66727 0.91194 0.31052 0.0
C636 C 0.66117 0.9352 0.28251 0.0
C637 C 0.64981 0.92195 0.27182 0.0
H638 H 0.63826 0.89411 0.27292 0.0
H639 H 0.67369 0.90811 0.32583 0.0
C640 C 0.64705 0.83759 0.3848 0.0
N641 N 0.64809 0.85451 0.37455 0.0
C642 C 0.64748 0.83658 0.40759 0.0
C643 C 0.65007 0.87043 0.40887 0.0
C644 C 0.64991 0.87075 0.38608 0.0
C645 C 0.64877 0.85319 0.41988 0.0
H646 H 0.64577 0.82487 0.37527 0.0
H647 H 0.65107 0.88401 0.37762 0.0
C648 C 0.65076 0.85604 0.26712 0.0
N649 N 0.6643 0.85634 0.22484 0.0
C650 C 0.64041 0.8477 0.25033 0.0
C651 C 0.66787 0.86475 0.26235 0.0
C652 C 0.64753 0.84793 0.22907 0.0
C653 C 0.67451 0.86471 0.24089 0.0
C654 C 0.6284 0.81582 0.32905 0.0
C655 C 0.63075 0.80108 0.31423 0.0
C656 C 0.61322 0.8156 0.34352 0.0
C657 C 0.61767 0.78644 0.31393 0.0
C658 C 0.60044 0.80072 0.34269 0.0
N659 N 0.6029 0.78657 0.32803 0.0
C660 C 0.69285 0.81931 0.30876 0.0
C661 C 0.67403 0.81498 0.27726 0.0
C662 C 0.70617 0.80659 0.30084 0.0
N663 N 0.67726 0.82337 0.29684 0.0
C664 C 0.68703 0.80227 0.26865 0.0
C665 C 0.70338 0.79796 0.28047 0.0
H666 H 0.69496 0.82603 0.3244 0.0
H667 H 0.66127 0.81796 0.26839 0.0
C668 C 0.58715 0.85424 0.31009 0.0
N669 N 0.60164 0.84367 0.30248 0.0
C670 C 0.56891 0.85118 0.30256 0.0
C671 C 0.58075 0.82637 0.2794 0.0
C672 C 0.5988 0.82989 0.28746 0.0
C673 C 0.56552 0.83719 0.28686 0.0
H674 H 0.58979 0.86539 0.32162 0.0
H675 H 0.61059 0.82181 0.28147 0.0
O676 O 0.6705 0.86081 0.32793 0.0
O677 O 0.62848 0.87304 0.32946 0.0
O678 O 0.64401 0.85585 0.28805 0.0
O679 O 0.64087 0.83044 0.32934 0.0
H680 H 0.68217 0.8817 0.36101 0.0
H681 H 0.69774 0.85921 0.29834 0.0
H682 H 0.71322 0.89738 0.36312 0.0
H683 H 0.72839 0.87546 0.30141 0.0
H684 H 0.59152 0.87781 0.38977 0.0
H685 H 0.63479 0.90892 0.3382 0.0
H686 H 0.60481 0.85952 0.35895 0.0
H687 H 0.62097 0.92637 0.36936 0.0
H688 H 0.67877 0.93985 0.31094 0.0
H689 H 0.64247 0.92548 0.25689 0.0
H690 H 0.6464 0.82302 0.41552 0.0
H691 H 0.65132 0.88351 0.41779 0.0
H692 H 0.62705 0.84105 0.25367 0.0
H693 H 0.6758 0.8717 0.275 0.0
H694 H 0.63972 0.84143 0.21594 0.0
H695 H 0.68774 0.8714 0.23699 0.0
H696 H 0.64245 0.80102 0.30296 0.0
H697 H 0.61129 0.82682 0.3552 0.0
H698 H 0.61925 0.77499 0.30246 0.0
H699 H 0.58856 0.80041 0.35371 0.0
H700 H 0.71862 0.80372 0.31044 0.0
H701 H 0.68415 0.79566 0.25309 0.0
H702 H 0.55768 0.86012 0.30845 0.0
H703 H 0.57876 0.81537 0.2674 0.0
Li704 Li 0.85002 0.62694 0.81168 0.0
Li705 Li 0.85415 0.64618 0.84324 0.0
Li706 Li 0.84083 0.65982 0.80826 0.0
Li707 Li 0.87474 0.65026 0.8124 0.0
C708 C 0.81465 0.62916 0.82732 0.0
N709 N 0.78343 0.60612 0.8257 0.0
C710 C 0.81449 0.61215 0.83873 0.0
C711 C 0.79891 0.6345 0.81518 0.0
C712 C 0.79859 0.60067 0.83766 0.0
C713 C 0.78326 0.62265 0.81455 0.0
C714 C 0.87892 0.62009 0.8498 0.0
C715 C 0.89828 0.62212 0.88204 0.0
N716 N 0.89178 0.60507 0.88864 0.0
C717 C 0.87243 0.60258 0.85691 0.0
C718 C 0.89197 0.62993 0.86245 0.0
C719 C 0.87912 0.59522 0.87657 0.0
C720 C 0.85932 0.58967 0.80175 0.0
N721 N 0.8449 0.60216 0.80049 0.0
C722 C 0.82601 0.57961 0.78152 0.0
C723 C 0.82854 0.59757 0.79029 0.0
C724 C 0.84055 0.56631 0.78303 0.0
C725 C 0.85741 0.5716 0.79324 0.0
H726 H 0.87249 0.59388 0.80903 0.0
H727 H 0.81755 0.60792 0.78855 0.0
C728 C 0.85691 0.66427 0.88446 0.0
N729 N 0.85216 0.6479 0.87443 0.0
C730 C 0.85605 0.6658 0.90719 0.0
C731 C 0.84537 0.63363 0.90889 0.0
C732 C 0.84616 0.63283 0.88614 0.0
C733 C 0.85037 0.65028 0.91981 0.0
H734 H 0.86134 0.67618 0.8748 0.0
H735 H 0.84226 0.62004 0.87788 0.0
C736 C 0.8581 0.63383 0.77046 0.0
N737 N 0.86026 0.60926 0.73563 0.0
C738 C 0.8749 0.62442 0.76597 0.0
C739 C 0.8424 0.63077 0.75721 0.0
C740 C 0.87571 0.61205 0.74829 0.0
C741 C 0.84378 0.61829 0.73968 0.0
C742 C 0.87235 0.68528 0.82617 0.0
C743 C 0.8687 0.699 0.8104 0.0
C744 C 0.88834 0.68681 0.8393 0.0
C745 C 0.88122 0.71397 0.80792 0.0
C746 C 0.90053 0.70197 0.83628 0.0
N747 N 0.89675 0.71512 0.82078 0.0
C748 C 0.81361 0.68825 0.81059 0.0
C749 C 0.82193 0.67961 0.77447 0.0
C750 C 0.80082 0.70152 0.80276 0.0
N751 N 0.82377 0.67761 0.79643 0.0
C752 C 0.80913 0.69255 0.76592 0.0
C753 C 0.79838 0.70371 0.78015 0.0
H754 H 0.81545 0.68636 0.82798 0.0
H755 H 0.83045 0.67123 0.7636 0.0
C756 C 0.91404 0.64505 0.81032 0.0
N757 N 0.89963 0.65562 0.8025 0.0
C758 C 0.93222 0.64753 0.80231 0.0
C759 C 0.92048 0.67169 0.7782 0.0
C760 C 0.90247 0.66871 0.78667 0.0
C761 C 0.93565 0.66092 0.78593 0.0
H762 H 0.91134 0.63426 0.8223 0.0
H763 H 0.89069 0.67658 0.78031 0.0
O764 O 0.83002 0.64066 0.82822 0.0
O765 O 0.87238 0.62766 0.8307 0.0
O766 O 0.85689 0.64556 0.78809 0.0
O767 O 0.86041 0.67037 0.82862 0.0
H768 H 0.82664 0.60766 0.84793 0.0
H769 H 0.79879 0.64763 0.80627 0.0
H770 H 0.79832 0.5874 0.84626 0.0
H771 H 0.771 0.62659 0.80518 0.0
H772 H 0.90831 0.62964 0.89203 0.0
H773 H 0.86209 0.59487 0.84758 0.0
H774 H 0.89705 0.64354 0.8573 0.0
H775 H 0.87414 0.58174 0.88232 0.0
H776 H 0.8128 0.57618 0.7737 0.0
H777 H 0.86918 0.562 0.79424 0.0
H778 H 0.85966 0.67908 0.91473 0.0
H779 H 0.84119 0.62116 0.91776 0.0
H780 H 0.88712 0.62645 0.7762 0.0
H781 H 0.82917 0.63765 0.7607 0.0
H782 H 0.8886 0.60461 0.74469 0.0
H783 H 0.83171 0.61568 0.72939 0.0
H784 H 0.85643 0.69803 0.80006 0.0
H785 H 0.89135 0.67634 0.8516 0.0
H786 H 0.87862 0.72465 0.79572 0.0
H787 H 0.91301 0.70327 0.84625 0.0
H788 H 0.79271 0.70977 0.81425 0.0
H789 H 0.80783 0.69401 0.74839 0.0
H790 H 0.94336 0.63857 0.80839 0.0
H791 H 0.92246 0.6822 0.76563 0.0
Li792 Li 0.37287 0.85003 0.80872 0.0
Li793 Li 0.35311 0.85619 0.84231 0.0
Li794 Li 0.3398 0.84215 0.80727 0.0
Li795 Li 0.34907 0.87444 0.80894 0.0
C796 C 0.3719 0.81783 0.83153 0.0
N797 N 0.39849 0.79035 0.83935 0.0
C798 C 0.38083 0.81681 0.85182 0.0
C799 C 0.37635 0.80476 0.8153 0.0
C800 C 0.39426 0.80283 0.85544 0.0
C801 C 0.38989 0.79101 0.81954 0.0
C802 C 0.37845 0.89031 0.82727 0.0
C803 C 0.37834 0.9222 0.84053 0.0
N804 N 0.39059 0.92708 0.82445 0.0
C805 C 0.3911 0.89559 0.81094 0.0
C806 C 0.37204 0.90366 0.84225 0.0
C807 C 0.39705 0.91428 0.80977 0.0
C808 C 0.40117 0.84585 0.77709 0.0
N809 N 0.39759 0.84405 0.79878 0.0
C810 C 0.42969 0.83605 0.80566 0.0
C811 C 0.41143 0.83944 0.8131 0.0
C812 C 0.43386 0.83785 0.7833 0.0
C813 C 0.41924 0.8428 0.76897 0.0
H814 H 0.3901 0.85015 0.76612 0.0
H815 H 0.40838 0.83867 0.83035 0.0
C816 C 0.33867 0.84653 0.88383 0.0
N817 N 0.35261 0.85594 0.87331 0.0
C818 C 0.33816 0.84612 0.90664 0.0
C819 C 0.36639 0.86501 0.90728 0.0
C820 C 0.36639 0.865 0.88448 0.0
C821 C 0.35212 0.8555 0.91868 0.0
H822 H 0.32792 0.83941 0.87448 0.0
H823 H 0.37746 0.87213 0.87567 0.0
C824 C 0.34818 0.84961 0.76625 0.0
N825 N 0.33418 0.83548 0.72751 0.0
C826 C 0.33527 0.86005 0.75406 0.0
C827 C 0.35407 0.83205 0.75865 0.0
C828 C 0.32834 0.85265 0.73453 0.0
C829 C 0.34679 0.82512 0.73907 0.0
C830 C 0.31491 0.87453 0.82882 0.0
C831 C 0.30407 0.87939 0.81066 0.0
C832 C 0.31095 0.8826 0.84911 0.0
C833 C 0.28946 0.89234 0.81309 0.0
C834 C 0.2962 0.89547 0.85088 0.0
N835 N 0.28586 0.90004 0.83298 0.0
C836 C 0.32368 0.80594 0.80283 0.0
C837 C 0.30801 0.82969 0.78276 0.0
C838 C 0.3112 0.79235 0.79497 0.0
N839 N 0.32198 0.82418 0.7965 0.0
C840 C 0.29544 0.81655 0.77424 0.0
C841 C 0.29697 0.7976 0.78032 0.0
H842 H 0.33473 0.80192 0.81397 0.0
H843 H 0.30666 0.84427 0.77825 0.0
C844 C 0.35262 0.9032 0.77818 0.0
N845 N 0.34488 0.89948 0.798 0.0
C846 C 0.35121 0.92108 0.76901 0.0
C847 C 0.33406 0.93123 0.80091 0.0
C848 C 0.33601 0.91317 0.80959 0.0
C849 C 0.34171 0.93542 0.7803 0.0
H850 H 0.36025 0.89231 0.76963 0.0
H851 H 0.3307 0.91025 0.82573 0.0
O852 O 0.35881 0.83149 0.82764 0.0
O853 O 0.37202 0.87223 0.82825 0.0
O854 O 0.355 0.85651 0.78554 0.0
O855 O 0.3292 0.8618 0.82686 0.0
H856 H 0.37752 0.82677 0.86459 0.0
H857 H 0.36948 0.80526 0.79958 0.0
H858 H 0.40135 0.80192 0.87102 0.0
H859 H 0.39354 0.78087 0.80709 0.0
H860 H 0.3734 0.93273 0.85191 0.0
H861 H 0.3961 0.88543 0.79914 0.0
H862 H 0.36208 0.89982 0.85483 0.0
H863 H 0.40676 0.91861 0.79714 0.0
H864 H 0.44042 0.83217 0.81734 0.0
H865 H 0.42179 0.84488 0.75172 0.0
H866 H 0.32682 0.83875 0.91476 0.0
H867 H 0.37759 0.87217 0.91589 0.0
H868 H 0.3304 0.87358 0.75977 0.0
H869 H 0.36411 0.82383 0.76782 0.0
H870 H 0.31825 0.86052 0.72501 0.0
H871 H 0.35116 0.81152 0.73305 0.0
H872 H 0.30712 0.87352 0.79479 0.0
H873 H 0.31923 0.87901 0.86333 0.0
H874 H 0.28104 0.89633 0.79914 0.0
H875 H 0.293 0.90185 0.86647 0.0
H876 H 0.31285 0.77786 0.80003 0.0
H877 H 0.28448 0.82119 0.76322 0.0
H878 H 0.35788 0.9237 0.75342 0.0
H879 H 0.3266 0.94175 0.81028 0.0
Li880 Li 0.15196 0.37434 0.80985 0.0
Li881 Li 0.1477 0.35462 0.84242 0.0
Li882 Li 0.16079 0.34134 0.80817 0.0
Li883 Li 0.12758 0.34962 0.81044 0.0
C884 C 0.18677 0.37197 0.83132 0.0
N885 N 0.21792 0.39401 0.83972 0.0
C886 C 0.18799 0.38217 0.85077 0.0
C887 C 0.20155 0.37274 0.8163 0.0
C888 C 0.20381 0.39329 0.85467 0.0
C889 C 0.21713 0.38404 0.8208 0.0
C890 C 0.1136 0.3742 0.84139 0.0
C891 C 0.08986 0.36051 0.86456 0.0
N892 N 0.08115 0.37749 0.86586 0.0
C893 C 0.1044 0.3915 0.84291 0.0
C894 C 0.10627 0.35855 0.85225 0.0
C895 C 0.08802 0.39288 0.85538 0.0
C896 C 0.14764 0.40299 0.7795 0.0
N897 N 0.15626 0.3991 0.79876 0.0
C898 C 0.16785 0.43063 0.80097 0.0
C899 C 0.16615 0.41251 0.80965 0.0
C900 C 0.15907 0.43501 0.78105 0.0
C901 C 0.14898 0.42083 0.77024 0.0
H902 H 0.13944 0.39227 0.77141 0.0
H903 H 0.17234 0.40938 0.82528 0.0
C904 C 0.15474 0.33855 0.88394 0.0
N905 N 0.14883 0.35434 0.87352 0.0
C906 C 0.15542 0.33797 0.90674 0.0
C907 C 0.14399 0.36995 0.90762 0.0
C908 C 0.14362 0.36993 0.88484 0.0
C909 C 0.14989 0.35379 0.91889 0.0
H910 H 0.15886 0.32638 0.8745 0.0
H911 H 0.13924 0.38241 0.87615 0.0
C912 C 0.15288 0.35505 0.76657 0.0
N913 N 0.16798 0.35337 0.72509 0.0
C914 C 0.14295 0.34628 0.74973 0.0
C915 C 0.17038 0.36313 0.76228 0.0
C916 C 0.15086 0.34553 0.72888 0.0
C917 C 0.17781 0.3621 0.74121 0.0
C918 C 0.1373 0.31218 0.82146 0.0
C919 C 0.132 0.30853 0.79991 0.0
C920 C 0.13884 0.29734 0.83628 0.0
C921 C 0.12835 0.29004 0.79352 0.0
C922 C 0.13507 0.27904 0.82926 0.0
N923 N 0.12995 0.2758 0.8082 0.0
C924 C 0.19548 0.32214 0.80685 0.0
C925 C 0.17473 0.31389 0.77817 0.0
C926 C 0.2091 0.30976 0.79886 0.0
N927 N 0.17872 0.32403 0.79642 0.0
C928 C 0.18783 0.30122 0.76976 0.0
C929 C 0.20529 0.29905 0.78011 0.0
H930 H 0.19826 0.33023 0.82144 0.0
H931 H 0.16138 0.31558 0.77008 0.0
C932 C 0.09619 0.35829 0.78613 0.0
N933 N 0.10264 0.34521 0.80043 0.0
C934 C 0.0779 0.35719 0.77809 0.0
C935 C 0.07326 0.32893 0.79933 0.0
C936 C 0.09159 0.33076 0.8073 0.0
C937 C 0.06621 0.34236 0.78466 0.0
H938 H 0.10528 0.3697 0.78115 0.0
H939 H 0.09691 0.32078 0.81907 0.0
O940 O 0.17149 0.36082 0.82735 0.0
O941 O 0.12955 0.37263 0.82906 0.0
O942 O 0.14539 0.35579 0.7871 0.0
O943 O 0.14107 0.33015 0.82809 0.0
H944 H 0.17677 0.38164 0.86265 0.0
H945 H 0.20109 0.36459 0.80142 0.0
H946 H 0.20487 0.40136 0.86959 0.0
H947 H 0.22864 0.38481 0.80928 0.0
H948 H 0.08404 0.34852 0.87306 0.0
H949 H 0.10988 0.40372 0.83451 0.0
H950 H 0.11315 0.34503 0.85121 0.0
H951 H 0.08075 0.40618 0.85672 0.0
H952 H 0.17547 0.44121 0.81007 0.0
H953 H 0.14211 0.42349 0.75477 0.0
H954 H 0.15993 0.32519 0.91477 0.0
H955 H 0.13989 0.38256 0.91631 0.0
H956 H 0.12932 0.34005 0.75279 0.0
H957 H 0.17806 0.37023 0.77505 0.0
H958 H 0.14338 0.33871 0.7157 0.0
H959 H 0.19136 0.36827 0.73766 0.0
H960 H 0.1307 0.31983 0.78823 0.0
H961 H 0.14291 0.29994 0.85303 0.0
H962 H 0.12425 0.28703 0.77688 0.0
H963 H 0.13621 0.26741 0.84056 0.0
H964 H 0.22232 0.30835 0.80744 0.0
H965 H 0.18442 0.29336 0.75514 0.0
H966 H 0.07296 0.36777 0.76673 0.0
H967 H 0.06454 0.31742 0.80493 0.0
Li968 Li 0.62809 0.15104 0.80795 0.0
Li969 Li 0.64765 0.14651 0.83955 0.0
Li970 Li 0.66057 0.16043 0.80679 0.0
Li971 Li 0.65276 0.12756 0.80739 0.0
C972 C 0.62763 0.17971 0.83883 0.0
N973 N 0.60185 0.19764 0.86538 0.0
C974 C 0.61228 0.16981 0.84724 0.0
C975 C 0.62987 0.19872 0.84391 0.0
C976 C 0.59941 0.17913 0.86064 0.0
C977 C 0.61668 0.20754 0.85736 0.0
C978 C 0.62907 0.11177 0.83773 0.0
C979 C 0.6436 0.08816 0.86038 0.0
N980 N 0.6271 0.07852 0.8609 0.0
C981 C 0.61228 0.10163 0.83847 0.0
C982 C 0.64489 0.10499 0.84875 0.0
C983 C 0.61155 0.08486 0.85028 0.0
C984 C 0.59404 0.14022 0.7901 0.0
N985 N 0.6035 0.15565 0.79711 0.0
C986 C 0.57807 0.17561 0.78648 0.0
C987 C 0.59596 0.17316 0.79546 0.0
C988 C 0.568 0.15989 0.77896 0.0
C989 C 0.57619 0.14201 0.78094 0.0
H990 H 0.60048 0.1265 0.79148 0.0
H991 H 0.60391 0.18525 0.80086 0.0
C992 C 0.66288 0.1563 0.88045 0.0
N993 N 0.64816 0.14747 0.87074 0.0
C994 C 0.66374 0.15779 0.90319 0.0
C995 C 0.63435 0.14091 0.90549 0.0
C996 C 0.63393 0.13999 0.88274 0.0
C997 C 0.64936 0.14996 0.91611 0.0
H998 H 0.67387 0.16235 0.87047 0.0
H999 H 0.6222 0.1333 0.87469 0.0
C1000 C 0.6422 0.15692 0.76671 0.0
N1001 N 0.63332 0.1788 0.73092 0.0
C1002 C 0.64167 0.14895 0.74588 0.0
C1003 C 0.63819 0.17602 0.76935 0.0
C1004 C 0.63716 0.16025 0.72798 0.0
C1005 C 0.63374 0.18685 0.75105 0.0
C1006 C 0.68979 0.13669 0.81798 0.0
C1007 C 0.6929 0.13321 0.79581 0.0
C1008 C 0.7049 0.13631 0.83252 0.0
C1009 C 0.71112 0.12941 0.78856 0.0
C1010 C 0.72292 0.13246 0.82463 0.0
N1011 N 0.72563 0.12912 0.803 0.0
C1012 C 0.68316 0.19297 0.80907 0.0
C1013 C 0.68516 0.17668 0.7754 0.0
C1014 C 0.69591 0.2065 0.80167 0.0
N1015 N 0.67804 0.17848 0.7959 0.0
C1016 C 0.6978 0.18994 0.76729 0.0
C1017 C 0.70333 0.20511 0.78047 0.0
H1018 H 0.6773 0.19401 0.82533 0.0
H1019 H 0.68105 0.16493 0.7653 0.0
C1020 C 0.64741 0.09769 0.77914 0.0
N1021 N 0.65816 0.10317 0.7963 0.0
C1022 C 0.64962 0.07985 0.7701 0.0
C1023 C 0.67398 0.07353 0.79662 0.0
C1024 C 0.6713 0.09156 0.80515 0.0
C1025 C 0.66302 0.06745 0.77886 0.0
H1026 H 0.63691 0.10716 0.77266 0.0
H1027 H 0.67958 0.09623 0.81892 0.0
O1028 O 0.64055 0.17095 0.82578 0.0
O1029 O 0.62996 0.12812 0.82603 0.0
O1030 O 0.64649 0.14593 0.78435 0.0
O1031 O 0.67212 0.14056 0.82556 0.0
H1032 H 0.61026 0.15512 0.84347 0.0
H1033 H 0.64169 0.20657 0.83753 0.0
H1034 H 0.58747 0.17164 0.86726 0.0
H1035 H 0.61824 0.22225 0.86143 0.0
H1036 H 0.65572 0.08275 0.86898 0.0
H1037 H 0.59993 0.10668 0.82998 0.0
H1038 H 0.65802 0.11263 0.84838 0.0
H1039 H 0.59864 0.07686 0.851 0.0
H1040 H 0.57235 0.18965 0.78504 0.0
H1041 H 0.56884 0.12951 0.77561 0.0
H1042 H 0.67542 0.16522 0.91049 0.0
H1043 H 0.62306 0.13441 0.91462 0.0
H1044 H 0.64473 0.13418 0.74357 0.0
H1045 H 0.63854 0.18247 0.78532 0.0
H1046 H 0.6367 0.15427 0.71176 0.0
H1047 H 0.63061 0.20164 0.75286 0.0
H1048 H 0.6814 0.1334 0.7843 0.0
H1049 H 0.70272 0.139 0.84974 0.0
H1050 H 0.71372 0.1267 0.77145 0.0
H1051 H 0.73475 0.13213 0.83571 0.0
H1052 H 0.69972 0.21804 0.81231 0.0
H1053 H 0.7034 0.18819 0.75097 0.0
H1054 H 0.64061 0.07566 0.75672 0.0
H1055 H 0.68454 0.06448 0.80378 0.0
Li1056 Li 0.875 0.35061 0.6924 0.0
Li1057 Li 0.84193 0.34161 0.69442 0.0
Li1058 Li 0.85519 0.35481 0.66016 0.0
Li1059 Li 0.85018 0.37486 0.6922 0.0
C1060 C 0.86633 0.31293 0.68226 0.0
N1061 N 0.87467 0.27715 0.69686 0.0
C1062 C 0.87027 0.3098 0.70431 0.0
C1063 C 0.86666 0.29788 0.66763 0.0
C1064 C 0.87444 0.29161 0.71138 0.0
C1065 C 0.8709 0.27989 0.67533 0.0
C1066 C 0.84998 0.35637 0.73619 0.0
C1067 C 0.82551 0.36306 0.76228 0.0
N1068 N 0.83625 0.35538 0.77834 0.0
C1069 C 0.86084 0.34868 0.75296 0.0
C1070 C 0.83223 0.36372 0.74087 0.0
C1071 C 0.85362 0.34826 0.77417 0.0
C1072 C 0.90563 0.35923 0.71807 0.0
N1073 N 0.89971 0.34638 0.70321 0.0
C1074 C 0.92879 0.32972 0.70597 0.0
C1075 C 0.91092 0.33192 0.69681 0.0
C1076 C 0.93528 0.34271 0.72158 0.0
C1077 C 0.92343 0.35773 0.72741 0.0
H1078 H 0.89647 0.37072 0.72261 0.0
H1079 H 0.90598 0.32203 0.6847 0.0
C1080 C 0.80888 0.31985 0.69369 0.0
N1081 N 0.82423 0.32399 0.70599 0.0
C1082 C 0.79545 0.3071 0.70129 0.0
C1083 C 0.81392 0.303 0.73402 0.0
C1084 C 0.82701 0.31574 0.72575 0.0
C1085 C 0.79785 0.29849 0.72177 0.0
H1086 H 0.80711 0.32644 0.67792 0.0
H1087 H 0.83941 0.31896 0.73515 0.0
C1088 C 0.8888 0.37482 0.66088 0.0
N1089 N 0.921 0.37786 0.63594 0.0
C1090 C 0.89757 0.39225 0.65833 0.0
C1091 C 0.89641 0.35893 0.65078 0.0
C1092 C 0.91384 0.3935 0.64564 0.0
C1093 C 0.9127 0.36076 0.63824 0.0
C1094 C 0.81503 0.37062 0.6714 0.0
C1095 C 0.81265 0.38089 0.65215 0.0
C1096 C 0.80056 0.3701 0.68681 0.0
C1097 C 0.79598 0.39086 0.64888 0.0
C1098 C 0.78409 0.38025 0.68294 0.0
N1099 N 0.78217 0.39036 0.66422 0.0
C1100 C 0.84954 0.33803 0.61876 0.0
C1101 C 0.85782 0.37027 0.61779 0.0
C1102 C 0.84856 0.33744 0.59597 0.0
N1103 N 0.85412 0.35428 0.62912 0.0
C1104 C 0.85704 0.37032 0.59501 0.0
C1105 C 0.85232 0.35376 0.58376 0.0
H1106 H 0.84652 0.32556 0.62822 0.0
H1107 H 0.86134 0.38303 0.62647 0.0
C1108 C 0.85182 0.4042 0.72245 0.0
N1109 N 0.84479 0.39967 0.7025 0.0
C1110 C 0.84904 0.42209 0.73115 0.0
C1111 C 0.83239 0.43073 0.69828 0.0
C1112 C 0.83542 0.41257 0.69025 0.0
C1113 C 0.83919 0.43565 0.71905 0.0
H1114 H 0.8599 0.394 0.73152 0.0
H1115 H 0.83056 0.40893 0.67412 0.0
O1116 O 0.86204 0.33059 0.67495 0.0
O1117 O 0.85682 0.35677 0.71533 0.0
O1118 O 0.87289 0.37342 0.67332 0.0
O1119 O 0.83119 0.36063 0.67476 0.0
H1120 H 0.87018 0.32128 0.71584 0.0
H1121 H 0.86365 0.30007 0.6505 0.0
H1122 H 0.87751 0.289 0.7284 0.0
H1123 H 0.8712 0.2681 0.66418 0.0
H1124 H 0.81178 0.36868 0.76613 0.0
H1125 H 0.87467 0.34301 0.74961 0.0
H1126 H 0.82383 0.37001 0.72815 0.0
H1127 H 0.86183 0.34227 0.7873 0.0
H1128 H 0.9373 0.31785 0.70104 0.0
H1129 H 0.9279 0.3684 0.73889 0.0
H1130 H 0.78346 0.30384 0.69109 0.0
H1131 H 0.81631 0.29692 0.74998 0.0
H1132 H 0.89184 0.40467 0.66607 0.0
H1133 H 0.88983 0.34532 0.65257 0.0
H1134 H 0.92078 0.4069 0.6435 0.0
H1135 H 0.91874 0.34858 0.63032 0.0
H1136 H 0.82363 0.38129 0.63995 0.0
H1137 H 0.80193 0.3618 0.70151 0.0
H1138 H 0.79401 0.39899 0.63413 0.0
H1139 H 0.7728 0.38003 0.69476 0.0
H1140 H 0.84464 0.32442 0.58803 0.0
H1141 H 0.86029 0.38317 0.58632 0.0
H1142 H 0.85497 0.42541 0.74696 0.0
H1143 H 0.82482 0.44079 0.68837 0.0
Li1144 Li 0.65068 0.87368 0.69437 0.0
Li1145 Li 0.65938 0.84038 0.69556 0.0
Li1146 Li 0.64476 0.854 0.66151 0.0
Li1147 Li 0.6263 0.84805 0.69511 0.0
C1148 C 0.68341 0.87116 0.6677 0.0
N1149 N 0.71215 0.89313 0.6513 0.0
C1150 C 0.7014 0.87009 0.67676 0.0
C1151 C 0.68012 0.88315 0.65005 0.0
C1152 C 0.71572 0.88139 0.66832 0.0
C1153 C 0.69481 0.89421 0.64206 0.0
C1154 C 0.65266 0.84982 0.73706 0.0
C1155 C 0.65676 0.82686 0.76561 0.0
N1156 N 0.66872 0.83877 0.77604 0.0
C1157 C 0.66487 0.8619 0.74813 0.0
C1158 C 0.64843 0.83223 0.74592 0.0
C1159 C 0.67288 0.85603 0.7678 0.0
C1160 C 0.64013 0.90885 0.70983 0.0
N1161 N 0.65557 0.89852 0.70465 0.0
C1162 C 0.67575 0.92392 0.71489 0.0
C1163 C 0.67319 0.90557 0.70727 0.0
C1164 C 0.66001 0.93506 0.71987 0.0
C1165 C 0.64202 0.92725 0.71735 0.0
H1166 H 0.62629 0.90276 0.70811 0.0
H1167 H 0.68527 0.89697 0.70361 0.0
C1168 C 0.67636 0.80466 0.70017 0.0
N1169 N 0.67776 0.82303 0.70605 0.0
C1170 C 0.68944 0.79156 0.70777 0.0
C1171 C 0.70514 0.81651 0.72737 0.0
C1172 C 0.69191 0.82916 0.71915 0.0
C1173 C 0.70399 0.79743 0.72168 0.0
H1174 H 0.66508 0.80017 0.68958 0.0
H1175 H 0.69291 0.84389 0.72328 0.0
C1176 C 0.61834 0.88508 0.66582 0.0
N1177 N 0.60033 0.91351 0.64332 0.0
C1178 C 0.5989 0.88442 0.66271 0.0
C1179 C 0.6286 0.90029 0.65767 0.0
C1180 C 0.59006 0.8989 0.65123 0.0
C1181 C 0.61925 0.9145 0.6463 0.0
C1182 C 0.62683 0.81548 0.67348 0.0
C1183 C 0.61734 0.81362 0.65362 0.0
C1184 C 0.623 0.80301 0.69052 0.0
C1185 C 0.60396 0.79939 0.65125 0.0
C1186 C 0.6095 0.789 0.68752 0.0
N1187 N 0.60033 0.7875 0.66811 0.0
C1188 C 0.65946 0.84478 0.62028 0.0
C1189 C 0.63045 0.86101 0.61859 0.0
C1190 C 0.66029 0.84381 0.59751 0.0
N1191 N 0.64474 0.85335 0.63032 0.0
C1192 C 0.63082 0.86059 0.59582 0.0
C1193 C 0.64587 0.85187 0.58488 0.0
H1194 H 0.67055 0.83863 0.63002 0.0
H1195 H 0.6187 0.86743 0.62682 0.0
C1196 C 0.59874 0.84427 0.72776 0.0
N1197 N 0.60185 0.84221 0.706 0.0
C1198 C 0.58079 0.8415 0.7364 0.0
C1199 C 0.56961 0.83419 0.70015 0.0
C1200 C 0.58774 0.83732 0.69218 0.0
C1201 C 0.56585 0.8365 0.72254 0.0
H1202 H 0.6101 0.84856 0.73835 0.0
H1203 H 0.59046 0.8362 0.67488 0.0
O1204 O 0.66927 0.86011 0.67572 0.0
O1205 O 0.64485 0.85523 0.71767 0.0
O1206 O 0.62719 0.87099 0.67702 0.0
O1207 O 0.63988 0.82939 0.67615 0.0
H1208 H 0.70426 0.86073 0.69027 0.0
H1209 H 0.66644 0.88382 0.64245 0.0
H1210 H 0.72968 0.88081 0.67528 0.0
H1211 H 0.69244 0.9036 0.62845 0.0
H1212 H 0.65373 0.81324 0.77259 0.0
H1213 H 0.66823 0.87559 0.74151 0.0
H1214 H 0.63892 0.82278 0.73761 0.0
H1215 H 0.68244 0.86518 0.77649 0.0
H1216 H 0.68987 0.9294 0.71661 0.0
H1217 H 0.62952 0.93519 0.72142 0.0
H1218 H 0.68803 0.77695 0.70308 0.0
H1219 H 0.71629 0.82163 0.73782 0.0
H1220 H 0.59072 0.87282 0.66902 0.0
H1221 H 0.64357 0.90125 0.66031 0.0
H1222 H 0.57503 0.89853 0.64863 0.0
H1223 H 0.62702 0.92636 0.63992 0.0
H1224 H 0.62018 0.82312 0.64024 0.0
H1225 H 0.6303 0.80421 0.70594 0.0
H1226 H 0.59644 0.79783 0.63602 0.0
H1227 H 0.60631 0.77931 0.70061 0.0
H1228 H 0.67201 0.83662 0.58994 0.0
H1229 H 0.61949 0.86725 0.58693 0.0
H1230 H 0.57858 0.84386 0.75367 0.0
H1231 H 0.55866 0.83016 0.68882 0.0
Li1232 Li 0.12642 0.65013 0.69119 0.0
Li1233 Li 0.16068 0.65945 0.69359 0.0
Li1234 Li 0.14648 0.64593 0.65857 0.0
Li1235 Li 0.15063 0.62738 0.69077 0.0
C1236 C 0.13419 0.68789 0.67509 0.0
N1237 N 0.12212 0.72475 0.67713 0.0
C1238 C 0.13679 0.69836 0.69416 0.0
C1239 C 0.12553 0.69619 0.65703 0.0
C1240 C 0.13058 0.71698 0.69487 0.0
C1241 C 0.11948 0.71483 0.6584 0.0
C1242 C 0.14804 0.63429 0.73237 0.0
C1243 C 0.16912 0.62035 0.75861 0.0
N1244 N 0.1545 0.61053 0.76725 0.0
C1245 C 0.13321 0.62414 0.74158 0.0
C1246 C 0.16614 0.63242 0.74096 0.0
C1247 C 0.13677 0.61216 0.75917 0.0
C1248 C 0.09121 0.63906 0.70594 0.0
N1249 N 0.10133 0.6548 0.70145 0.0
C1250 C 0.07586 0.67424 0.71337 0.0
C1251 C 0.09397 0.67221 0.7048 0.0
C1252 C 0.06526 0.6582 0.71862 0.0
C1253 C 0.07311 0.64043 0.71456 0.0
H1254 H 0.09732 0.62537 0.70306 0.0
H1255 H 0.10211 0.68456 0.70117 0.0
C1256 C 0.18965 0.68638 0.69043 0.0
N1257 N 0.17828 0.67717 0.70466 0.0
C1258 C 0.20263 0.69959 0.69805 0.0
C1259 C 0.192 0.69343 0.73483 0.0
C1260 C 0.17909 0.68053 0.72647 0.0
C1261 C 0.20402 0.70324 0.72058 0.0
H1262 H 0.18854 0.68354 0.67313 0.0
H1263 H 0.16966 0.67325 0.7374 0.0
C1264 C 0.11289 0.62724 0.65822 0.0
N1265 N 0.08198 0.6258 0.63096 0.0
C1266 C 0.1054 0.60991 0.6519 0.0
C1267 C 0.10466 0.64383 0.65062 0.0
C1268 C 0.08977 0.60948 0.63812 0.0
C1269 C 0.08904 0.64281 0.63688 0.0
C1270 C 0.18463 0.62748 0.67059 0.0
C1271 C 0.1819 0.61189 0.6571 0.0
C1272 C 0.20189 0.63005 0.68106 0.0
C1273 C 0.19647 0.59891 0.65455 0.0
C1274 C 0.21611 0.61676 0.67805 0.0
N1275 N 0.21312 0.60159 0.66499 0.0
C1276 C 0.15236 0.66312 0.6173 0.0
C1277 C 0.14359 0.63101 0.61609 0.0
C1278 C 0.15302 0.66391 0.5945 0.0
N1279 N 0.1476 0.64686 0.62755 0.0
C1280 C 0.14394 0.63119 0.59331 0.0
C1281 C 0.14865 0.64781 0.5822 0.0
H1282 H 0.15561 0.67549 0.62686 0.0
H1283 H 0.14011 0.61819 0.62464 0.0
C1284 C 0.14069 0.59037 0.6999 0.0
N1285 N 0.15565 0.60222 0.70073 0.0
C1286 C 0.14222 0.57201 0.70765 0.0
C1287 C 0.17454 0.57828 0.71722 0.0
C1288 C 0.17239 0.59655 0.70923 0.0
C1289 C 0.15931 0.56573 0.7165 0.0
H1290 H 0.1274 0.59533 0.69364 0.0
H1291 H 0.18397 0.60629 0.71032 0.0
O1292 O 0.14046 0.66975 0.67389 0.0
O1293 O 0.1449 0.64578 0.71483 0.0
O1294 O 0.12834 0.62778 0.67154 0.0
O1295 O 0.17059 0.64033 0.67334 0.0
H1296 H 0.14322 0.6921 0.70839 0.0
H1297 H 0.12349 0.68831 0.6421 0.0
H1298 H 0.13241 0.72522 0.70955 0.0
H1299 H 0.11272 0.72141 0.64456 0.0
H1300 H 0.18308 0.61866 0.76532 0.0
H1301 H 0.11914 0.62538 0.73515 0.0
H1302 H 0.17786 0.63988 0.73378 0.0
H1303 H 0.12545 0.60415 0.76638 0.0
H1304 H 0.07041 0.68821 0.71638 0.0
H1305 H 0.06535 0.62768 0.71802 0.0
H1306 H 0.21129 0.70701 0.68636 0.0
H1307 H 0.19265 0.6955 0.75232 0.0
H1308 H 0.11167 0.59692 0.65749 0.0
H1309 H 0.1102 0.65736 0.65527 0.0
H1310 H 0.08385 0.59616 0.63309 0.0
H1311 H 0.08253 0.65556 0.63091 0.0
H1312 H 0.1686 0.60974 0.6489 0.0
H1313 H 0.2042 0.64211 0.6915 0.0
H1314 H 0.19453 0.58669 0.64428 0.0
H1315 H 0.22952 0.6185 0.68613 0.0
H1316 H 0.15661 0.67703 0.58658 0.0
H1317 H 0.14078 0.61838 0.58449 0.0
H1318 H 0.12997 0.56298 0.7072 0.0
H1319 H 0.18798 0.57403 0.72389 0.0
Li1320 Li 0.35011 0.12778 0.69089 0.0
Li1321 Li 0.34254 0.16109 0.6937 0.0
Li1322 Li 0.35508 0.14794 0.65915 0.0
Li1323 Li 0.37563 0.15153 0.69138 0.0
C1324 C 0.31312 0.13542 0.67422 0.0
N1325 N 0.27673 0.12182 0.67457 0.0
C1326 C 0.30128 0.13918 0.6919 0.0
C1327 C 0.30634 0.125 0.65654 0.0
C1328 C 0.28296 0.13212 0.69181 0.0
C1329 C 0.28794 0.11817 0.65708 0.0
C1330 C 0.35161 0.14357 0.73547 0.0
C1331 C 0.35665 0.14884 0.77393 0.0
N1332 N 0.34015 0.14 0.77838 0.0
C1333 C 0.33472 0.13451 0.74044 0.0
C1334 C 0.36271 0.15077 0.75235 0.0
C1335 C 0.32916 0.13285 0.76222 0.0
C1336 C 0.36106 0.09303 0.70627 0.0
N1337 N 0.34529 0.1027 0.70076 0.0
C1338 C 0.32603 0.07652 0.71081 0.0
C1339 C 0.32794 0.09483 0.7028 0.0
C1340 C 0.34214 0.06619 0.71642 0.0
C1341 C 0.35983 0.07463 0.71397 0.0
H1342 H 0.37466 0.09969 0.70475 0.0
H1343 H 0.31556 0.10272 0.69849 0.0
C1344 C 0.31361 0.18773 0.6911 0.0
N1345 N 0.32577 0.17956 0.70531 0.0
C1346 C 0.3008 0.20125 0.69837 0.0
C1347 C 0.31337 0.19778 0.73477 0.0
C1348 C 0.32602 0.18447 0.72675 0.0
C1349 C 0.30046 0.20637 0.72055 0.0
H1350 H 0.31386 0.1837 0.67407 0.0
H1351 H 0.336 0.17811 0.73772 0.0
C1352 C 0.37505 0.11395 0.65893 0.0
N1353 N 0.37939 0.08262 0.63278 0.0
C1354 C 0.39296 0.10665 0.65499 0.0
C1355 C 0.35935 0.10531 0.64964 0.0
C1356 C 0.39487 0.0908 0.6417 0.0
C1357 C 0.36183 0.08949 0.63645 0.0
C1358 C 0.36773 0.18913 0.68183 0.0
C1359 C 0.36955 0.20415 0.66729 0.0
C1360 C 0.37091 0.19201 0.7041 0.0
C1361 C 0.37457 0.22184 0.67529 0.0
C1362 C 0.37588 0.20991 0.71146 0.0
N1363 N 0.3776 0.22433 0.69702 0.0
C1364 C 0.33823 0.15379 0.61775 0.0
C1365 C 0.37033 0.14491 0.6168 0.0
C1366 C 0.33752 0.15422 0.59494 0.0
N1367 N 0.35445 0.14909 0.62813 0.0
C1368 C 0.3702 0.14495 0.59401 0.0
C1369 C 0.35363 0.14959 0.58279 0.0
H1370 H 0.32582 0.1571 0.62721 0.0
H1371 H 0.3831 0.14146 0.62547 0.0
C1372 C 0.40619 0.14551 0.71878 0.0
N1373 N 0.40045 0.15586 0.70139 0.0
C1374 C 0.42424 0.14781 0.72722 0.0
C1375 C 0.4303 0.17116 0.69942 0.0
C1376 C 0.41206 0.16845 0.69155 0.0
C1377 C 0.43657 0.16079 0.71754 0.0
H1378 H 0.39673 0.13537 0.72601 0.0
H1379 H 0.40716 0.17637 0.6776 0.0
O1380 O 0.33106 0.14236 0.67383 0.0
O1381 O 0.35736 0.14538 0.71427 0.0
O1382 O 0.37298 0.12944 0.67192 0.0
O1383 O 0.36271 0.17177 0.6742 0.0
H1384 H 0.30612 0.14744 0.70558 0.0
H1385 H 0.31515 0.12226 0.64251 0.0
H1386 H 0.27369 0.13484 0.70545 0.0
H1387 H 0.28254 0.11002 0.64356 0.0
H1388 H 0.36507 0.1544 0.78714 0.0
H1389 H 0.32602 0.12877 0.72765 0.0
H1390 H 0.37578 0.15791 0.74881 0.0
H1391 H 0.31612 0.12587 0.76628 0.0
H1392 H 0.31215 0.07044 0.71243 0.0
H1393 H 0.37256 0.0672 0.71837 0.0
H1394 H 0.29141 0.20771 0.68668 0.0
H1395 H 0.31355 0.20106 0.75203 0.0
H1396 H 0.40525 0.11319 0.66212 0.0
H1397 H 0.34542 0.11072 0.65265 0.0
H1398 H 0.40864 0.085 0.63849 0.0
H1399 H 0.34979 0.08266 0.62915 0.0
H1400 H 0.3671 0.20214 0.65001 0.0
H1401 H 0.36956 0.18058 0.71559 0.0
H1402 H 0.37603 0.23359 0.66423 0.0
H1403 H 0.37838 0.21233 0.72864 0.0
H1404 H 0.32444 0.15777 0.5869 0.0
H1405 H 0.38299 0.14156 0.58526 0.0
H1406 H 0.42861 0.13925 0.74093 0.0
H1407 H 0.43933 0.18136 0.69154 0.0
H1408 H 0.28955 0.2114 0.23616 0.0
H1409 H 0.27235 0.22558 0.30165 0.0
H1410 H 0.26599 0.23283 0.22146 0.0
H1411 H 0.24937 0.24769 0.28717 0.0
H1412 H 0.1979 0.27299 0.25549 0.0
H1413 H 0.22057 0.25024 0.2693 0.0
H1414 H 0.25843 0.26449 0.21656 0.0
H1415 H 0.23525 0.28656 0.20232 0.0
C1416 C 0.28082 0.21929 0.24739 0.0
C1417 C 0.28272 0.21683 0.27002 0.0
C1418 C 0.26736 0.23166 0.239 0.0
C1419 C 0.25568 0.2421 0.25307 0.0
C1420 C 0.25776 0.23966 0.27576 0.0
C1421 C 0.27101 0.22706 0.28412 0.0
C1422 C 0.21107 0.27117 0.24688 0.0
C1423 C 0.21484 0.2815 0.22785 0.0
C1424 C 0.22415 0.25822 0.25484 0.0
C1425 C 0.24148 0.25551 0.24417 0.0
C1426 C 0.24516 0.26588 0.22505 0.0
C1427 C 0.23193 0.27861 0.2169 0.0
H1428 H 0.76445 0.30371 0.26066 0.0
H1429 H 0.79776 0.2583 0.28695 0.0
H1430 H 0.74176 0.28109 0.24665 0.0
H1431 H 0.77508 0.23563 0.27286 0.0
H1432 H 0.72102 0.20172 0.26279 0.0
H1433 H 0.74308 0.22451 0.27789 0.0
H1434 H 0.73927 0.25725 0.21867 0.0
H1435 H 0.71666 0.23491 0.20395 0.0
C1436 C 0.767 0.28888 0.26331 0.0
C1437 C 0.78297 0.28282 0.27485 0.0
C1438 C 0.75399 0.27591 0.25527 0.0
C1439 C 0.75662 0.25653 0.25854 0.0
C1440 C 0.77249 0.25046 0.27029 0.0
C1441 C 0.7855 0.26346 0.27836 0.0
C1442 C 0.72474 0.21389 0.25308 0.0
C1443 C 0.71704 0.21648 0.23215 0.0
C1444 C 0.73755 0.22685 0.26165 0.0
C1445 C 0.74297 0.24272 0.2495 0.0
C1446 C 0.73526 0.2453 0.22858 0.0
C1447 C 0.72246 0.23236 0.22002 0.0
H1448 H 0.76727 0.69784 0.24768 0.0
H1449 H 0.79635 0.74249 0.2138 0.0
H1450 H 0.74473 0.72052 0.2619 0.0
H1451 H 0.77353 0.76511 0.22776 0.0
H1452 H 0.7169 0.79558 0.23875 0.0
H1453 H 0.73953 0.773 0.22417 0.0
H1454 H 0.74428 0.74736 0.28782 0.0
H1455 H 0.7214 0.7697 0.3023 0.0
C1456 C 0.76896 0.7125 0.24337 0.0
C1457 C 0.78372 0.71832 0.22966 0.0
C1458 C 0.756 0.72549 0.2515 0.0
C1459 C 0.75738 0.7446 0.246 0.0
C1460 C 0.77198 0.75043 0.23209 0.0
C1461 C 0.78503 0.73745 0.22406 0.0
C1462 C 0.7227 0.78505 0.24959 0.0
C1463 C 0.71735 0.78441 0.27167 0.0
C1464 C 0.73578 0.77224 0.24129 0.0
C1465 C 0.74368 0.7584 0.25485 0.0
C1466 C 0.73832 0.75776 0.27692 0.0
C1467 C 0.72535 0.77066 0.28526 0.0
H1468 H 0.30216 0.76015 0.23153 0.0
H1469 H 0.26129 0.80504 0.23492 0.0
H1470 H 0.27912 0.73842 0.24669 0.0
H1471 H 0.23815 0.78307 0.2494 0.0
H1472 H 0.19731 0.73211 0.24992 0.0
H1473 H 0.22051 0.75443 0.23594 0.0
H1474 H 0.26129 0.73348 0.2821 0.0
H1475 H 0.2381 0.71108 0.29601 0.0
C1476 C 0.28835 0.76546 0.23564 0.0
C1477 C 0.28365 0.78442 0.23195 0.0
C1478 C 0.27513 0.75296 0.24427 0.0
C1479 C 0.25684 0.75905 0.24919 0.0
C1480 C 0.25208 0.77794 0.2455 0.0
C1481 C 0.26535 0.7905 0.2371 0.0
C1482 C 0.21124 0.73227 0.25704 0.0
C1483 C 0.21591 0.71986 0.27404 0.0
C1484 C 0.22446 0.74512 0.24916 0.0
C1485 C 0.2427 0.74568 0.25793 0.0
C1486 C 0.24737 0.73327 0.27493 0.0
C1487 C 0.23408 0.72057 0.28301 0.0
H1488 H 0.71633 0.79354 0.76361 0.0
H1489 H 0.723 0.77045 0.69893 0.0
H1490 H 0.73891 0.77084 0.77776 0.0
H1491 H 0.74608 0.74813 0.7128 0.0
H1492 H 0.77233 0.69833 0.74806 0.0
H1493 H 0.74942 0.7208 0.73414 0.0
H1494 H 0.77107 0.76298 0.7783 0.0
H1495 H 0.7935 0.74022 0.79265 0.0
C1496 C 0.72281 0.78372 0.75239 0.0
C1497 C 0.7179 0.78374 0.73019 0.0
C1498 C 0.73582 0.77073 0.76045 0.0
C1499 C 0.74441 0.75759 0.74645 0.0
C1500 C 0.73953 0.75775 0.72418 0.0
C1501 C 0.72635 0.7706 0.71618 0.0
C1502 C 0.7722 0.71244 0.75469 0.0
C1503 C 0.78467 0.71752 0.77145 0.0
C1504 C 0.75912 0.72537 0.74667 0.0
C1505 C 0.75834 0.74378 0.75504 0.0
C1506 C 0.77097 0.74886 0.77172 0.0
C1507 C 0.78389 0.73585 0.77991 0.0
H1508 H 0.19983 0.72741 0.75526 0.0
H1509 H 0.23965 0.71077 0.70551 0.0
H1510 H 0.22268 0.7496 0.76981 0.0
H1511 H 0.26214 0.73359 0.71967 0.0
H1512 H 0.28658 0.79252 0.73787 0.0
H1513 H 0.26425 0.76955 0.72329 0.0
H1514 H 0.25509 0.7479 0.78826 0.0
H1515 H 0.27746 0.77084 0.80283 0.0
C1516 C 0.21346 0.72834 0.74748 0.0
C1517 C 0.21784 0.71716 0.7292 0.0
C1518 C 0.22651 0.74114 0.7558 0.0
C1519 C 0.24417 0.74329 0.74588 0.0
C1520 C 0.24855 0.73233 0.72751 0.0
C1521 C 0.23559 0.71933 0.71934 0.0
C1522 C 0.27976 0.78285 0.74901 0.0
C1523 C 0.28371 0.78345 0.77147 0.0
C1524 C 0.26711 0.76965 0.74066 0.0
C1525 C 0.25794 0.75699 0.75466 0.0
C1526 C 0.26187 0.7576 0.77713 0.0
C1527 C 0.27475 0.77061 0.78543 0.0
H1528 H 0.19947 0.26297 0.76662 0.0
H1529 H 0.24289 0.30484 0.77394 0.0
H1530 H 0.22249 0.24084 0.75228 0.0
H1531 H 0.26593 0.28294 0.75898 0.0
H1532 H 0.30574 0.23319 0.75222 0.0
H1533 H 0.28283 0.25515 0.7669 0.0
H1534 H 0.24133 0.23435 0.72141 0.0
H1535 H 0.26384 0.21151 0.70778 0.0
C1536 C 0.21393 0.26748 0.76494 0.0
C1537 C 0.21939 0.28562 0.7714 0.0
C1538 C 0.22714 0.25483 0.75663 0.0
C1539 C 0.24612 0.26007 0.75436 0.0
C1540 C 0.25153 0.27828 0.76081 0.0
C1541 C 0.23833 0.29086 0.76934 0.0
C1542 C 0.29166 0.2331 0.74552 0.0
C1543 C 0.28667 0.22044 0.72886 0.0
C1544 C 0.27857 0.24593 0.75374 0.0
C1545 C 0.26017 0.24658 0.74539 0.0
C1546 C 0.25526 0.2341 0.72851 0.0
C1547 C 0.2683 0.22116 0.72043 0.0
H1548 H 0.73353 0.22032 0.80168 0.0
H1549 H 0.70365 0.2219 0.74036 0.0
H1550 H 0.75609 0.24321 0.78763 0.0
H1551 H 0.7264 0.24453 0.72618 0.0
H1552 H 0.75943 0.29995 0.71811 0.0
H1553 H 0.73642 0.27767 0.73234 0.0
H1554 H 0.78126 0.24408 0.75936 0.0
H1555 H 0.80431 0.26608 0.74481 0.0
C1556 C 0.73173 0.22563 0.78525 0.0
C1557 C 0.71684 0.2193 0.77212 0.0
C1558 C 0.74474 0.2386 0.77713 0.0
C1559 C 0.74304 0.24563 0.75578 0.0
C1560 C 0.728 0.23947 0.74275 0.0
C1561 C 0.71509 0.22639 0.7508 0.0
C1562 C 0.76442 0.28771 0.72686 0.0
C1563 C 0.78376 0.28486 0.73032 0.0
C1564 C 0.75122 0.27497 0.73506 0.0
C1565 C 0.75703 0.25916 0.74703 0.0
C1566 C 0.77634 0.25629 0.7505 0.0
C1567 C 0.78954 0.26894 0.74218 0.0
H1568 H 0.12328 0.3675 0.94684 0.0
H1569 H 0.17706 0.33939 0.94584 0.0
H1570 H 0.12379 0.36754 0.98657 0.0
H1571 H 0.17772 0.33962 0.98568 0.0
H1572 H 0.16276 0.32663 0.05732 0.0
H1573 H 0.16294 0.32611 0.01747 0.0
H1574 H 0.13975 0.38223 0.01646 0.0
H1575 H 0.13936 0.38261 0.0562 0.0
C1576 C 0.13531 0.36148 0.95512 0.0
C1577 C 0.15016 0.35351 0.94317 0.0
C1578 C 0.13562 0.36153 0.97792 0.0
C1579 C 0.15085 0.35369 0.98939 0.0
C1580 C 0.16566 0.34557 0.97742 0.0
C1581 C 0.1653 0.34545 0.95457 0.0
C1582 C 0.15787 0.33891 0.04856 0.0
C1583 C 0.15095 0.35462 0.05993 0.0
C1584 C 0.15798 0.33863 0.02571 0.0
C1585 C 0.15125 0.35409 0.01371 0.0
C1586 C 0.14466 0.36992 0.02514 0.0
C1587 C 0.14447 0.37016 0.04794 0.0
H1588 H 0.68032 0.14854 0.94296 0.0
H1589 H 0.61984 0.15417 0.94464 0.0
H1590 H 0.68126 0.15034 0.98252 0.0
H1591 H 0.62065 0.15439 0.9842 0.0
H1592 H 0.62784 0.17046 0.0547 0.0
H1593 H 0.62829 0.17194 0.01512 0.0
H1594 H 0.67477 0.13283 0.01385 0.0
H1595 H 0.67534 0.13258 0.05343 0.0
C1596 C 0.6672 0.15019 0.9517 0.0
C1597 C 0.64999 0.15116 0.94043 0.0
C1598 C 0.66771 0.15091 0.97451 0.0
C1599 C 0.65103 0.15239 0.98674 0.0
C1600 C 0.63384 0.15349 0.97545 0.0
C1601 C 0.63335 0.15302 0.95265 0.0
C1602 C 0.63843 0.16246 0.04605 0.0
C1603 C 0.65154 0.15137 0.05744 0.0
C1604 C 0.63848 0.16307 0.02323 0.0
C1605 C 0.65148 0.15241 0.01111 0.0
C1606 C 0.66468 0.14144 0.02251 0.0
C1607 C 0.66479 0.14104 0.04532 0.0
H1608 H 0.82545 0.63325 0.94789 0.0
H1609 H 0.87411 0.66964 0.94719 0.0
H1610 H 0.8258 0.63334 0.98746 0.0
H1611 H 0.87347 0.67101 0.98676 0.0
H1612 H 0.88109 0.65274 0.05712 0.0
H1613 H 0.88042 0.65315 0.01757 0.0
H1614 H 0.81972 0.6508 0.01893 0.0
H1615 H 0.82047 0.64879 0.05849 0.0
C1616 C 0.83621 0.64135 0.95611 0.0
C1617 C 0.84985 0.65131 0.94416 0.0
C1618 C 0.8362 0.64167 0.97893 0.0
C1619 C 0.84967 0.65218 0.99049 0.0
C1620 C 0.86305 0.66248 0.97853 0.0
C1621 C 0.86323 0.66195 0.95571 0.0
C1622 C 0.86758 0.652 0.04904 0.0
C1623 C 0.85084 0.65054 0.06117 0.0
C1624 C 0.86718 0.65259 0.02625 0.0
C1625 C 0.85001 0.65203 0.01487 0.0
C1626 C 0.83325 0.65096 0.02701 0.0
C1627 C 0.83366 0.65011 0.04982 0.0
H1628 H 0.36704 0.82842 0.05619 0.0
H1629 H 0.33774 0.88161 0.05666 0.0
H1630 H 0.36639 0.82835 0.01639 0.0
H1631 H 0.33729 0.8816 0.01688 0.0
H1632 H 0.35918 0.8848 0.94641 0.0
H1633 H 0.35934 0.88451 0.98622 0.0
H1634 H 0.34415 0.82575 0.98575 0.0
H1635 H 0.3445 0.82591 0.94589 0.0
C1636 C 0.36031 0.84002 0.04784 0.0
C1637 C 0.35248 0.85504 0.05968 0.0
C1638 C 0.35996 0.83998 0.02501 0.0
C1639 C 0.35183 0.85499 0.01345 0.0
C1640 C 0.34392 0.86996 0.02528 0.0
C1641 C 0.34421 0.86998 0.0481 0.0
C1642 C 0.35601 0.87179 0.9548 0.0
C1643 C 0.35186 0.85537 0.94296 0.0
C1644 C 0.35591 0.87167 0.97762 0.0
C1645 C 0.35174 0.85511 0.98917 0.0
C1646 C 0.34758 0.83869 0.97734 0.0
C1647 C 0.34759 0.83883 0.95451 0.0
H1648 H 0.12293 0.63272 0.55417 0.0
H1649 H 0.17495 0.66393 0.55541 0.0
H1650 H 0.12354 0.63275 0.51444 0.0
H1651 H 0.17579 0.66372 0.51556 0.0
H1652 H 0.16086 0.67545 0.44371 0.0
H1653 H 0.16074 0.67615 0.48357 0.0
H1654 H 0.1402 0.61899 0.4847 0.0
H1655 H 0.14001 0.61849 0.44496 0.0
C1656 C 0.13459 0.63946 0.54593 0.0
C1657 C 0.14893 0.64825 0.55794 0.0
C1658 C 0.13498 0.63944 0.52313 0.0
C1659 C 0.14979 0.64812 0.51173 0.0
C1660 C 0.16405 0.6571 0.52376 0.0
C1661 C 0.16359 0.6572 0.54661 0.0
C1662 C 0.15647 0.663 0.45252 0.0
C1663 C 0.15034 0.64695 0.4412 0.0
C1664 C 0.15642 0.66338 0.47537 0.0
C1665 C 0.15034 0.64767 0.48741 0.0
C1666 C 0.14457 0.6315 0.47601 0.0
C1667 C 0.14451 0.63118 0.45321 0.0
H1668 H 0.33861 0.17608 0.55551 0.0
H1669 H 0.36766 0.12283 0.55537 0.0
H1670 H 0.33872 0.17624 0.51567 0.0
H1671 H 0.36734 0.12263 0.51562 0.0
H1672 H 0.38137 0.13673 0.44531 0.0
H1673 H 0.3812 0.13731 0.48506 0.0
H1674 H 0.32563 0.16188 0.48421 0.0
H1675 H 0.32613 0.16176 0.44438 0.0
C1676 C 0.34483 0.16431 0.54693 0.0
C1677 C 0.3532 0.14949 0.55855 0.0
C1678 C 0.34486 0.16435 0.52408 0.0
C1679 C 0.3531 0.14948 0.51232 0.0
C1680 C 0.36123 0.13454 0.52404 0.0
C1681 C 0.36136 0.13459 0.54685 0.0
C1682 C 0.3691 0.14219 0.45365 0.0
C1683 C 0.35375 0.14917 0.44173 0.0
C1684 C 0.36895 0.14247 0.47646 0.0
C1685 C 0.35335 0.14955 0.48796 0.0
C1686 C 0.33801 0.15659 0.47597 0.0
C1687 C 0.33825 0.15648 0.45313 0.0
H1688 H 0.84142 0.32532 0.44543 0.0
H1689 H 0.85884 0.38346 0.44649 0.0
H1690 H 0.84098 0.32494 0.4853 0.0
H1691 H 0.85897 0.38291 0.48626 0.0
H1692 H 0.83812 0.38094 0.55673 0.0
H1693 H 0.83716 0.381 0.51697 0.0
H1694 H 0.86315 0.32616 0.51595 0.0
H1695 H 0.86423 0.32612 0.55575 0.0
C1696 C 0.84508 0.33804 0.45416 0.0
C1697 C 0.85017 0.35442 0.44277 0.0
C1698 C 0.84503 0.33776 0.47701 0.0
C1699 C 0.84996 0.35389 0.48897 0.0
C1700 C 0.85491 0.3703 0.47756 0.0
C1701 C 0.85504 0.37055 0.45475 0.0
C1702 C 0.84378 0.36895 0.54804 0.0
C1703 C 0.85133 0.35356 0.55948 0.0
C1704 C 0.84321 0.36898 0.52524 0.0
C1705 C 0.85013 0.35361 0.51327 0.0
C1706 C 0.85748 0.33811 0.52468 0.0
C1707 C 0.85808 0.3381 0.54751 0.0
H1708 H 0.6768 0.85406 0.55799 0.0
H1709 H 0.6163 0.84825 0.55629 0.0
H1710 H 0.67758 0.85352 0.51818 0.0
H1711 H 0.61718 0.8486 0.51654 0.0
H1712 H 0.62711 0.87408 0.44737 0.0
H1713 H 0.62652 0.87317 0.4873 0.0
H1714 H 0.66928 0.83014 0.48687 0.0
H1715 H 0.66977 0.83094 0.44685 0.0
C1716 C 0.66368 0.85251 0.54924 0.0
C1717 C 0.64647 0.85127 0.56052 0.0
C1718 C 0.66416 0.8523 0.5264 0.0
C1719 C 0.64744 0.85112 0.51432 0.0
C1720 C 0.63026 0.84978 0.52548 0.0
C1721 C 0.62979 0.84969 0.54829 0.0
C1722 C 0.63641 0.86447 0.45583 0.0
C1723 C 0.6485 0.85259 0.44407 0.0
C1724 C 0.63598 0.86387 0.47863 0.0
C1725 C 0.64784 0.85158 0.49013 0.0
C1726 C 0.66006 0.8398 0.47838 0.0
C1727 C 0.66026 0.84018 0.45554 0.0
H1728 H 0.18803 0.54998 0.2572 0.0
H1729 H 0.13528 0.53726 0.28878 0.0
H1730 H 0.1898 0.51762 0.24369 0.0
H1731 H 0.13694 0.50509 0.27514 0.0
H1732 H 0.15553 0.44437 0.26558 0.0
H1733 H 0.15643 0.47618 0.28026 0.0
H1734 H 0.17187 0.49756 0.21681 0.0
H1735 H 0.17056 0.46579 0.20189 0.0
C1736 C 0.17689 0.54024 0.26136 0.0
C1737 C 0.16148 0.54615 0.27397 0.0
C1738 C 0.17783 0.52179 0.2535 0.0
C1739 C 0.16351 0.50884 0.25836 0.0
C1740 C 0.14827 0.5147 0.27128 0.0
C1741 C 0.14723 0.53316 0.27892 0.0
C1742 C 0.15901 0.45583 0.25468 0.0
C1743 C 0.1628 0.45248 0.23247 0.0
C1744 C 0.15959 0.47406 0.26314 0.0
C1745 C 0.16413 0.48937 0.24966 0.0
C1746 C 0.16851 0.48601 0.22764 0.0
C1747 C 0.16779 0.46778 0.21911 0.0
H1748 H 0.55594 0.16523 0.25821 0.0
H1749 H 0.53259 0.16512 0.19312 0.0
H1750 H 0.52432 0.16651 0.27351 0.0
H1751 H 0.50098 0.16638 0.20843 0.0
H1752 H 0.44919 0.14296 0.24392 0.0
H1753 H 0.4806 0.14496 0.22836 0.0
H1754 H 0.496 0.18593 0.27723 0.0
H1755 H 0.46463 0.18346 0.29328 0.0
C1756 C 0.54408 0.16581 0.24715 0.0
C1757 C 0.5468 0.16494 0.22443 0.0
C1758 C 0.52594 0.16653 0.25593 0.0
C1759 C 0.51011 0.1664 0.2422 0.0
C1760 C 0.51286 0.16614 0.21947 0.0
C1761 C 0.53098 0.16542 0.2107 0.0
C1762 C 0.45929 0.15232 0.25145 0.0
C1763 C 0.45443 0.16296 0.26994 0.0
C1764 C 0.47724 0.15364 0.24235 0.0
C1765 C 0.49081 0.16564 0.25152 0.0
C1766 C 0.48591 0.17644 0.26989 0.0
C1767 C 0.4679 0.17516 0.27896 0.0
H1768 H 0.81069 0.5492 0.24147 0.0
H1769 H 0.86727 0.53922 0.21886 0.0
H1770 H 0.80917 0.51688 0.25546 0.0
H1771 H 0.86566 0.50694 0.23252 0.0
H1772 H 0.846 0.44523 0.23784 0.0
H1773 H 0.84553 0.47711 0.22338 0.0
H1774 H 0.82769 0.49814 0.28607 0.0
H1775 H 0.829 0.46638 0.30105 0.0
C1776 C 0.82271 0.54003 0.23939 0.0
C1777 C 0.83911 0.54664 0.22917 0.0
C1778 C 0.82188 0.52165 0.24746 0.0
C1779 C 0.83729 0.50947 0.24501 0.0
C1780 C 0.85355 0.51602 0.23448 0.0
C1781 C 0.85451 0.53447 0.2268 0.0
C1782 C 0.84217 0.4566 0.2487 0.0
C1783 C 0.83774 0.45313 0.27074 0.0
C1784 C 0.8418 0.47485 0.24032 0.0
C1785 C 0.83664 0.49004 0.25364 0.0
C1786 C 0.83157 0.48662 0.27543 0.0
C1787 C 0.83225 0.46839 0.28395 0.0
H1788 H 0.55563 0.83132 0.24419 0.0
H1789 H 0.53198 0.83747 0.30875 0.0
H1790 H 0.52406 0.83014 0.22875 0.0
H1791 H 0.50043 0.83628 0.29332 0.0
H1792 H 0.45012 0.85957 0.25507 0.0
H1793 H 0.48128 0.85711 0.27112 0.0
H1794 H 0.4948 0.81197 0.22664 0.0
H1795 H 0.46368 0.81487 0.21002 0.0
C1796 C 0.5437 0.83207 0.25514 0.0
C1797 C 0.54633 0.83464 0.27769 0.0
C1798 C 0.52559 0.8314 0.24628 0.0
C1799 C 0.50972 0.83329 0.25978 0.0
C1800 C 0.51236 0.83516 0.28242 0.0
C1801 C 0.53045 0.83584 0.29126 0.0
C1802 C 0.45976 0.84919 0.2486 0.0
C1803 C 0.45446 0.83752 0.23115 0.0
C1804 C 0.47756 0.84761 0.258 0.0
C1805 C 0.49053 0.8343 0.25021 0.0
C1806 C 0.48518 0.82246 0.23291 0.0
C1807 C 0.46731 0.82401 0.22352 0.0
H1808 H 0.82426 0.55614 0.74419 0.0
H1809 H 0.85201 0.53306 0.80088 0.0
H1810 H 0.82164 0.52463 0.72866 0.0
H1811 H 0.85009 0.50178 0.78503 0.0
H1812 H 0.82953 0.44575 0.76059 0.0
H1813 H 0.82798 0.47731 0.77596 0.0
H1814 H 0.84203 0.50073 0.71296 0.0
H1815 H 0.84341 0.46913 0.69756 0.0
C1816 C 0.82969 0.54434 0.7534 0.0
C1817 C 0.83838 0.54712 0.77377 0.0
C1818 C 0.82838 0.52631 0.74439 0.0
C1819 C 0.83567 0.51067 0.75558 0.0
C1820 C 0.84411 0.51346 0.77607 0.0
C1821 C 0.84543 0.53144 0.78505 0.0
C1822 C 0.83225 0.45765 0.75002 0.0
C1823 C 0.83673 0.45493 0.72789 0.0
C1824 C 0.83139 0.47573 0.75883 0.0
C1825 C 0.83505 0.49155 0.74575 0.0
C1826 C 0.83893 0.48887 0.72345 0.0
C1827 C 0.83974 0.47076 0.71461 0.0
H1828 H 0.53274 0.84666 0.70281 0.0
H1829 H 0.55466 0.82217 0.76218 0.0
H1830 H 0.50106 0.84486 0.71766 0.0
H1831 H 0.52292 0.82104 0.77724 0.0
H1832 H 0.46694 0.84792 0.80325 0.0
H1833 H 0.49873 0.84553 0.78873 0.0
H1834 H 0.47703 0.82055 0.7297 0.0
H1835 H 0.44523 0.82231 0.74441 0.0
C1836 C 0.53085 0.84064 0.71889 0.0
C1837 C 0.54637 0.83457 0.73126 0.0
C1838 C 0.51266 0.83969 0.72742 0.0
C1839 C 0.50954 0.83285 0.74861 0.0
C1840 C 0.52495 0.82657 0.76093 0.0
C1841 C 0.54314 0.8273 0.75231 0.0
C1842 C 0.46891 0.84153 0.78737 0.0
C1843 C 0.45341 0.83538 0.775 0.0
C1844 C 0.48715 0.84023 0.77903 0.0
C1845 C 0.49033 0.83294 0.75805 0.0
C1846 C 0.47496 0.82647 0.74582 0.0
C1847 C 0.45673 0.82756 0.75424 0.0
H1848 H 0.18917 0.45917 0.77981 0.0
H1849 H 0.13067 0.45469 0.76164 0.0
H1850 H 0.19034 0.49068 0.76393 0.0
H1851 H 0.13188 0.48597 0.74575 0.0
H1852 H 0.14536 0.53331 0.69895 0.0
H1853 H 0.14614 0.50182 0.7145 0.0
H1854 H 0.1777 0.5227 0.76962 0.0
H1855 H 0.17688 0.5543 0.75406 0.0
C1856 C 0.17654 0.46494 0.77257 0.0
C1857 C 0.15987 0.45433 0.77183 0.0
C1858 C 0.17722 0.48298 0.76346 0.0
C1859 C 0.16125 0.49076 0.7534 0.0
C1860 C 0.14455 0.48023 0.75294 0.0
C1861 C 0.14386 0.46227 0.76206 0.0
C1862 C 0.15242 0.53121 0.71442 0.0
C1863 C 0.16093 0.54635 0.72534 0.0
C1864 C 0.15286 0.51316 0.72334 0.0
C1865 C 0.16183 0.50978 0.7434 0.0
C1866 C 0.17082 0.5248 0.75405 0.0
C1867 C 0.17036 0.5429 0.74512 0.0
H1868 H 0.44774 0.16265 0.76018 0.0
H1869 H 0.46926 0.164 0.69426 0.0
H1870 H 0.47974 0.164 0.77433 0.0
H1871 H 0.50127 0.16592 0.70843 0.0
H1872 H 0.55431 0.14246 0.74257 0.0
H1873 H 0.52272 0.14443 0.7274 0.0
H1874 H 0.50742 0.18451 0.77731 0.0
H1875 H 0.53894 0.18212 0.79288 0.0
C1876 C 0.45931 0.16334 0.74872 0.0
C1877 C 0.45597 0.16308 0.7261 0.0
C1878 C 0.47763 0.16433 0.75682 0.0
C1879 C 0.49305 0.16501 0.7425 0.0
C1880 C 0.48969 0.16521 0.71988 0.0
C1881 C 0.47135 0.1643 0.71177 0.0
C1882 C 0.54419 0.15165 0.75034 0.0
C1883 C 0.54908 0.16202 0.76903 0.0
C1884 C 0.52615 0.15296 0.7415 0.0
C1885 C 0.51255 0.16462 0.75116 0.0
C1886 C 0.51754 0.17527 0.76961 0.0
C1887 C 0.53563 0.17403 0.77841 0.0
H1888 H 0.66249 0.05677 0.73595 0.0
H1889 H 0.66811 0.03446 0.80121 0.0
H1890 H 0.66334 0.02498 0.72117 0.0
H1891 H 0.66907 0.00264 0.78638 0.0
H1892 H 0.68505 0.94861 0.75002 0.0
H1893 H 0.68776 0.9808 0.7637 0.0
H1894 H 0.64221 0.99783 0.7215 0.0
H1895 H 0.63985 0.96589 0.70747 0.0
C1896 C 0.6639 0.04508 0.74715 0.0
C1897 C 0.66507 0.04816 0.76978 0.0
C1898 C 0.6644 0.02686 0.73867 0.0
C1899 C 0.66613 0.01127 0.75261 0.0
C1900 C 0.66792 0.01436 0.77519 0.0
C1901 C 0.66738 0.0326 0.78368 0.0
C1902 C 0.67579 0.9593 0.74349 0.0
C1903 C 0.6622 0.9547 0.72772 0.0
C1904 C 0.67722 0.97768 0.75147 0.0
C1905 C 0.66519 0.99186 0.7437 0.0
C1906 C 0.65183 0.98729 0.72767 0.0
C1907 C 0.65033 0.96894 0.7198 0.0
H1908 H 0.94517 0.666 0.74295 0.0
H1909 H 0.96949 0.66017 0.80721 0.0
H1910 H 0.97657 0.66675 0.72701 0.0
H1911 H 0.00087 0.66078 0.79123 0.0
H1912 H 0.05084 0.63752 0.75223 0.0
H1913 H 0.01969 0.63966 0.76848 0.0
H1914 H 0.00585 0.68526 0.72481 0.0
H1915 H 0.03694 0.68275 0.70806 0.0
C1916 C 0.9572 0.66519 0.75373 0.0
C1917 C 0.95478 0.6629 0.77636 0.0
C1918 C 0.97521 0.66559 0.74457 0.0
C1919 C 0.99121 0.66367 0.75783 0.0
C1920 C 0.98881 0.66194 0.78052 0.0
C1921 C 0.97083 0.66159 0.78967 0.0
C1922 C 0.04112 0.64792 0.74597 0.0
C1923 C 0.04635 0.65989 0.72875 0.0
C1924 C 0.02333 0.6493 0.75547 0.0
C1925 C 0.0103 0.66267 0.748 0.0
C1926 C 0.01553 0.67472 0.73084 0.0
C1927 C 0.03339 0.67339 0.72138 0.0
H1928 H 0.31937 0.0535 0.74915 0.0
H1929 H 0.36165 0.03525 0.70327 0.0
H1930 H 0.31807 0.02173 0.76455 0.0
H1931 H 0.36031 0.00354 0.71856 0.0
H1932 H 0.33708 0.9452 0.73727 0.0
H1933 H 0.33635 0.97664 0.72151 0.0
H1934 H 0.34145 0.0008 0.78583 0.0
H1935 H 0.34297 0.9694 0.80168 0.0
C1936 C 0.32823 0.04264 0.74225 0.0
C1937 C 0.34062 0.0468 0.72505 0.0
C1938 C 0.32759 0.02454 0.75114 0.0
C1939 C 0.3391 0.01021 0.74274 0.0
C1940 C 0.35119 0.01429 0.72524 0.0
C1941 C 0.35205 0.03244 0.71659 0.0
C1942 C 0.33826 0.95716 0.7481 0.0
C1943 C 0.34022 0.95466 0.77079 0.0
C1944 C 0.33773 0.97517 0.73904 0.0
C1945 C 0.33886 0.99113 0.75245 0.0
C1946 C 0.34035 0.98873 0.77514 0.0
C1947 C 0.34114 0.9707 0.7842 0.0
H1948 H 0.0398 0.36995 0.78498 0.0
H1949 H 0.04872 0.31227 0.7658 0.0
H1950 H 0.00783 0.36865 0.7704 0.0
H1951 H 0.0167 0.31103 0.75092 0.0
H1952 H 0.96799 0.33006 0.70254 0.0
H1953 H 0.99927 0.32842 0.71879 0.0
H1954 H 0.97722 0.35019 0.77932 0.0
H1955 H 0.9458 0.35107 0.7636 0.0
C1956 C 0.03488 0.35701 0.77764 0.0
C1957 C 0.04668 0.34122 0.77647 0.0
C1958 C 0.01659 0.35623 0.76942 0.0
C1959 C 0.00984 0.33974 0.75955 0.0
C1960 C 0.02163 0.32392 0.75838 0.0
C1961 C 0.03984 0.3246 0.76698 0.0
C1962 C 0.96967 0.33414 0.71945 0.0
C1963 C 0.95429 0.34086 0.73164 0.0
C1964 C 0.98762 0.33325 0.7287 0.0
C1965 C 0.99064 0.3393 0.75024 0.0
C1966 C 0.9753 0.34567 0.76257 0.0
C1967 C 0.95732 0.34629 0.75347 0.0
H1968 H 0.35059 0.03444 0.30333 0.0
H1969 H 0.32361 0.05404 0.24436 0.0
H1970 H 0.34931 0.00243 0.28977 0.0
H1971 H 0.32356 0.02213 0.23013 0.0
H1972 H 0.31206 0.95998 0.21777 0.0
H1973 H 0.31031 0.99165 0.23308 0.0
H1974 H 0.36446 0.98348 0.26365 0.0
H1975 H 0.36583 0.95178 0.24891 0.0
C1976 C 0.34426 0.03196 0.28753 0.0
C1977 C 0.33724 0.04694 0.27497 0.0
C1978 C 0.34381 0.01357 0.27957 0.0
C1979 C 0.33653 0.00963 0.25871 0.0
C1980 C 0.32915 0.02455 0.24632 0.0
C1981 C 0.32943 0.04294 0.25438 0.0
C1982 C 0.32355 0.96502 0.22778 0.0
C1983 C 0.33902 0.95338 0.23226 0.0
C1984 C 0.3226 0.98318 0.23651 0.0
C1985 C 0.33721 0.99017 0.24971 0.0
C1986 C 0.35273 0.97849 0.25401 0.0
C1987 C 0.35357 0.96031 0.24549 0.0
H1988 H 0.95957 0.37153 0.27855 0.0
H1989 H 0.9515 0.31288 0.26272 0.0
H1990 H 0.99069 0.37053 0.26219 0.0
H1991 H 0.98299 0.31185 0.24672 0.0
H1992 H 0.04888 0.31595 0.24242 0.0
H1993 H 0.01719 0.31501 0.25781 0.0
H1994 H 0.00371 0.36677 0.22458 0.0
H1995 H 0.03512 0.36757 0.20886 0.0
C1996 C 0.96436 0.35844 0.27146 0.0
C1997 C 0.95289 0.34234 0.27177 0.0
C1998 C 0.98224 0.35787 0.26212 0.0
C1999 C 0.98921 0.34116 0.253 0.0
C2000 C 0.97801 0.32491 0.25374 0.0
C2001 C 0.96 0.3255 0.26296 0.0
C2002 C 0.03907 0.32697 0.23811 0.0
C2003 C 0.04464 0.34194 0.22456 0.0
C2004 C 0.02093 0.32644 0.24698 0.0
C2005 C 0.00805 0.34093 0.24259 0.0
C2006 C 0.01346 0.3556 0.2286 0.0
C2007 C 0.03148 0.35607 0.21964 0.0
H2008 H 0.66755 0.94518 0.24012 0.0
H2009 H 0.65938 0.96864 0.30442 0.0
H2010 H 0.66887 0.97675 0.22475 0.0
H2011 H 0.66034 1.00025 0.28906 0.0
H2012 H 0.67715 0.05534 0.25689 0.0
H2013 H 0.67972 0.02371 0.27194 0.0
H2014 H 0.64769 0.00202 0.21756 0.0
H2015 H 0.64598 0.03338 0.202 0.0
C2016 C 0.66601 0.95711 0.25095 0.0
C2017 C 0.66326 0.95443 0.27345 0.0
C2018 C 0.66671 0.97521 0.24216 0.0
C2019 C 0.66455 0.99108 0.25562 0.0
C2020 C 0.66229 0.98839 0.27823 0.0
C2021 C 0.66171 0.97026 0.28705 0.0
C2022 C 0.67092 0.04377 0.24797 0.0
C2023 C 0.66132 0.04693 0.22824 0.0
C2024 C 0.67219 0.02566 0.25674 0.0
C2025 C 0.66389 0.01028 0.246 0.0
C2026 C 0.65447 0.01345 0.22616 0.0
C2027 C 0.65325 0.03151 0.21737 0.0
H2028 H 0.04948 0.68549 0.25955 0.0
H2029 H 0.03641 0.6325 0.29051 0.0
H2030 H 0.01737 0.6875 0.24603 0.0
H2031 H 0.00488 0.63381 0.2757 0.0
H2032 H 0.94444 0.64739 0.26289 0.0
H2033 H 0.97575 0.64871 0.27889 0.0
H2034 H 0.99695 0.67432 0.21977 0.0
H2035 H 0.96535 0.67365 0.20425 0.0
C2036 C 0.03979 0.67428 0.26354 0.0
C2037 C 0.04564 0.65881 0.27611 0.0
C2038 C 0.0214 0.6753 0.2555 0.0
C2039 C 0.00844 0.6608 0.25969 0.0
C2040 C 0.0143 0.6454 0.27237 0.0
C2041 C 0.03257 0.64449 0.28059 0.0
C2042 C 0.95582 0.65337 0.25341 0.0
C2043 C 0.95254 0.66031 0.23231 0.0
C2044 C 0.9738 0.65405 0.2625 0.0
C2045 C 0.98902 0.66142 0.25057 0.0
C2046 C 0.98559 0.66875 0.22959 0.0
C2047 C 0.9675 0.66831 0.22062 0.0
loop_
_geom_bond_atom_site_label_1
_geom_bond_atom_site_label_2
_geom_bond_distance
_geom_bond_site_symmetry_2
_ccdc_geom_bond_type
Li0 N17 1.990 . S
Li0 O60 1.956 . S
Li0 O61 1.970 . S
Li0 O62 1.961 . S
Li1 N25 1.990 . S
Li1 O60 1.970 . S
Li1 O61 1.956 . S
Li1 O63 1.961 . S
Li2 N47 1.990 . S
Li2 O60 1.961 . S
Li2 O62 1.956 . S
Li2 O63 1.970 . S
Li3 N53 1.990 . S
Li3 O61 1.961 . S
Li3 O62 1.970 . S
Li3 O63 1.956 . S
C4 C6 1.348 . S
C4 C7 1.356 . S
C4 O60 1.325 . S
N5 C8 1.314 . S
N5 C9 1.279 . S
C6 C4 1.348 . S
C6 C8 1.353 . S
C6 H64 0.929 . S
C7 C4 1.356 . S
C7 C9 1.358 . S
C7 H65 0.930 . S
C8 N5 1.314 . S
C8 C6 1.353 . S
C8 H66 0.930 . S
C9 N5 1.279 . S
C9 C7 1.358 . S
C9 H67 0.930 . S
C10 C13 1.348 . S
C10 C14 1.356 . S
C10 O61 1.325 . S
C11 N12 1.279 . S
C11 C14 1.358 . S
C11 H68 0.930 . S
N12 C11 1.279 . S
N12 C15 1.314 . S
C13 C10 1.348 . S
C13 C15 1.353 . S
C13 H69 0.929 . S
C14 C10 1.356 . S
C14 C11 1.358 . S
C14 H70 0.930 . S
C15 N12 1.314 . S
C15 C13 1.353 . S
C15 H71 0.930 . S
C16 N17 1.314 . S
C16 C21 1.353 . S
C16 H22 0.930 . S
N17 Li0 1.990 . S
N17 C16 1.314 . S
N17 C19 1.279 . S
C18 C19 1.358 . S
C18 C20 1.356 . S
C18 H72 0.930 . S
C19 N17 1.279 . S
C19 C18 1.358 . S
C19 H23 0.930 . S
C20 C18 1.356 . S
C20 C21 1.348 . S
C21 C16 1.353 . S
C21 C20 1.348 . S
C21 H73 0.929 . S
H22 C16 0.930 . S
H23 C19 0.930 . S
C24 N25 1.314 . S
C24 C26 1.353 . S
C24 H30 0.930 . S
N25 Li1 1.990 . S
N25 C24 1.314 . S
N25 C28 1.279 . S
C26 C24 1.353 . S
C26 C29 1.348 . S
C26 H74 0.929 . S
C27 C28 1.358 . S
C27 C29 1.356 . S
C27 H75 0.930 . S
C28 N25 1.279 . S
C28 C27 1.358 . S
C28 H31 0.930 . S
C29 C26 1.348 . S
C29 C27 1.356 . S
H30 C24 0.930 . S
H31 C28 0.930 . S
C32 C34 1.348 . S
C32 C35 1.356 . S
C32 O62 1.325 . S
N33 C36 1.314 . S
N33 C37 1.279 . S
C34 C32 1.348 . S
C34 C36 1.353 . S
C34 H76 0.929 . S
C35 C32 1.356 . S
C35 C37 1.358 . S
C35 H77 0.930 . S
C36 N33 1.314 . S
C36 C34 1.353 . S
C36 H78 0.930 . S
C37 N33 1.279 . S
C37 C35 1.358 . S
C37 H79 0.930 . S
C38 C39 1.348 . S
C38 C40 1.356 . S
C38 O63 1.325 . S
C39 C38 1.348 . S
C39 C41 1.353 . S
C39 H80 0.929 . S
C40 C38 1.356 . S
C40 C42 1.358 . S
C40 H81 0.930 . S
C41 C39 1.353 . S
C41 N43 1.314 . S
C41 H82 0.930 . S
C42 C40 1.358 . S
C42 N43 1.279 . S
C42 H83 0.930 . S
N43 C41 1.314 . S
N43 C42 1.279 . S
C44 C46 1.353 . S
C44 N47 1.314 . S
C44 H50 0.930 . S
C45 N47 1.279 . S
C45 C48 1.358 . S
C45 H51 0.930 . S
C46 C44 1.353 . S
C46 C49 1.348 . S
C46 H84 0.929 . S
N47 Li2 1.990 . S
N47 C44 1.314 . S
N47 C45 1.279 . S
C48 C45 1.358 . S
C48 C49 1.356 . S
C48 H85 0.930 . S
C49 C46 1.348 . S
C49 C48 1.356 . S
H50 C44 0.930 . S
H51 C45 0.930 . S
C52 N53 1.314 . S
C52 C54 1.353 . S
C52 H58 0.930 . S
N53 Li3 1.990 . S
N53 C52 1.314 . S
N53 C56 1.279 . S
C54 C52 1.353 . S
C54 C57 1.348 . S
C54 H86 0.929 . S
C55 C56 1.358 . S
C55 C57 1.356 . S
C55 H87 0.930 . S
C56 N53 1.279 . S
C56 C55 1.358 . S
C56 H59 0.930 . S
C57 C54 1.348 . S
C57 C55 1.356 . S
H58 C52 0.930 . S
H59 C56 0.930 . S
O60 Li0 1.956 . S
O60 Li1 1.970 . S
O60 Li2 1.961 . S
O60 C4 1.325 . S
O61 Li0 1.970 . S
O61 Li1 1.956 . S
O61 Li3 1.961 . S
O61 C10 1.325 . S
O62 Li0 1.961 . S
O62 Li2 1.956 . S
O62 Li3 1.970 . S
O62 C32 1.325 . S
O63 Li1 1.961 . S
O63 Li2 1.970 . S
O63 Li3 1.956 . S
O63 C38 1.325 . S
H64 C6 0.929 . S
H65 C7 0.930 . S
H66 C8 0.930 . S
H67 C9 0.930 . S
H68 C11 0.930 . S
H69 C13 0.929 . S
H70 C14 0.930 . S
H71 C15 0.930 . S
H72 C18 0.930 . S
H73 C21 0.929 . S
H74 C26 0.929 . S
H75 C27 0.930 . S
H76 C34 0.929 . S
H77 C35 0.930 . S
H78 C36 0.930 . S
H79 C37 0.930 . S
H80 C39 0.929 . S
H81 C40 0.930 . S
H82 C41 0.930 . S
H83 C42 0.930 . S
H84 C46 0.929 . S
H85 C48 0.930 . S
H86 C54 0.929 . S
H87 C55 0.930 . S
Li88 N105 1.990 . S
Li88 O148 1.956 . S
Li88 O149 1.970 . S
Li88 O150 1.961 . S
Li89 N113 1.990 . S
Li89 O148 1.970 . S
Li89 O149 1.956 . S
Li89 O151 1.961 . S
Li90 N135 1.990 . S
Li90 O148 1.961 . S
Li90 O150 1.956 . S
Li90 O151 1.970 . S
Li91 N141 1.990 . S
Li91 O149 1.961 . S
Li91 O150 1.970 . S
Li91 O151 1.956 . S
C92 C94 1.348 . S
C92 C95 1.356 . S
C92 O148 1.325 . S
N93 C96 1.314 . S
N93 C97 1.279 . S
C94 C92 1.348 . S
C94 C96 1.353 . S
C94 H152 0.929 . S
C95 C92 1.356 . S
C95 C97 1.358 . S
C95 H153 0.930 . S
C96 N93 1.314 . S
C96 C94 1.353 . S
C96 H154 0.930 . S
C97 N93 1.279 . S
C97 C95 1.358 . S
C97 H155 0.930 . S
C98 C101 1.348 . S
C98 C102 1.356 . S
C98 O149 1.325 . S
C99 N100 1.279 . S
C99 C102 1.358 . S
C99 H156 0.930 . S
N100 C99 1.279 . S
N100 C103 1.314 . S
C101 C98 1.348 . S
C101 C103 1.353 . S
C101 H157 0.929 . S
C102 C98 1.356 . S
C102 C99 1.358 . S
C102 H158 0.930 . S
C103 N100 1.314 . S
C103 C101 1.353 . S
C103 H159 0.930 . S
C104 N105 1.314 . S
C104 C109 1.353 . S
C104 H110 0.930 . S
N105 Li88 1.990 . S
N105 C104 1.314 . S
N105 C107 1.279 . S
C106 C107 1.358 . S
C106 C108 1.356 . S
C106 H160 0.930 . S
C107 N105 1.279 . S
C107 C106 1.358 . S
C107 H111 0.930 . S
C108 C106 1.356 . S
C108 C109 1.348 . S
C109 C104 1.353 . S
C109 C108 1.348 . S
C109 H161 0.929 . S
H110 C104 0.930 . S
H111 C107 0.930 . S
C112 N113 1.314 . S
C112 C114 1.353 . S
C112 H118 0.930 . S
N113 Li89 1.990 . S
N113 C112 1.314 . S
N113 C116 1.279 . S
C114 C112 1.353 . S
C114 C117 1.348 . S
C114 H162 0.929 . S
C115 C116 1.358 . S
C115 C117 1.356 . S
C115 H163 0.930 . S
C116 N113 1.279 . S
C116 C115 1.358 . S
C116 H119 0.930 . S
C117 C114 1.348 . S
C117 C115 1.356 . S
H118 C112 0.930 . S
H119 C116 0.930 . S
C120 C122 1.348 . S
C120 C123 1.356 . S
C120 O150 1.325 . S
N121 C124 1.314 . S
N121 C125 1.279 . S
C122 C120 1.348 . S
C122 C124 1.353 . S
C122 H164 0.929 . S
C123 C120 1.356 . S
C123 C125 1.358 . S
C123 H165 0.930 . S
C124 N121 1.314 . S
C124 C122 1.353 . S
C124 H166 0.930 . S
C125 N121 1.279 . S
C125 C123 1.358 . S
C125 H167 0.930 . S
C126 C127 1.348 . S
C126 C128 1.356 . S
C126 O151 1.325 . S
C127 C126 1.348 . S
C127 C129 1.353 . S
C127 H168 0.929 . S
C128 C126 1.356 . S
C128 C130 1.358 . S
C128 H169 0.930 . S
C129 C127 1.353 . S
C129 N131 1.314 . S
C129 H170 0.930 . S
C130 C128 1.358 . S
C130 N131 1.279 . S
C130 H171 0.930 . S
N131 C129 1.314 . S
N131 C130 1.279 . S
C132 C134 1.353 . S
C132 N135 1.314 . S
C132 H138 0.930 . S
C133 N135 1.279 . S
C133 C136 1.358 . S
C133 H139 0.930 . S
C134 C132 1.353 . S
C134 C137 1.348 . S
C134 H172 0.929 . S
N135 Li90 1.990 . S
N135 C132 1.314 . S
N135 C133 1.279 . S
C136 C133 1.358 . S
C136 C137 1.356 . S
C136 H173 0.930 . S
C137 C134 1.348 . S
C137 C136 1.356 . S
H138 C132 0.930 . S
H139 C133 0.930 . S
C140 N141 1.314 . S
C140 C142 1.353 . S
C140 H146 0.930 . S
N141 Li91 1.990 . S
N141 C140 1.314 . S
N141 C144 1.279 . S
C142 C140 1.353 . S
C142 C145 1.348 . S
C142 H174 0.929 . S
C143 C144 1.358 . S
C143 C145 1.356 . S
C143 H175 0.930 . S
C144 N141 1.279 . S
C144 C143 1.358 . S
C144 H147 0.930 . S
C145 C142 1.348 . S
C145 C143 1.356 . S
H146 C140 0.930 . S
H147 C144 0.930 . S
O148 Li88 1.956 . S
O148 Li89 1.970 . S
O148 Li90 1.961 . S
O148 C92 1.325 . S
O149 Li88 1.970 . S
O149 Li89 1.956 . S
O149 Li91 1.961 . S
O149 C98 1.325 . S
O150 Li88 1.961 . S
O150 Li90 1.956 . S
O150 Li91 1.970 . S
O150 C120 1.325 . S
O151 Li89 1.961 . S
O151 Li90 1.970 . S
O151 Li91 1.956 . S
O151 C126 1.325 . S
H152 C94 0.929 . S
H153 C95 0.930 . S
H154 C96 0.930 . S
H155 C97 0.930 . S
H156 C99 0.930 . S
H157 C101 0.929 . S
H158 C102 0.930 . S
H159 C103 0.930 . S
H160 C106 0.930 . S
H161 C109 0.929 . S
H162 C114 0.929 . S
H163 C115 0.930 . S
H164 C122 0.929 . S
H165 C123 0.930 . S
H166 C124 0.930 . S
H167 C125 0.930 . S
H168 C127 0.929 . S
H169 C128 0.930 . S
H170 C129 0.930 . S
H171 C130 0.930 . S
H172 C134 0.929 . S
H173 C136 0.930 . S
H174 C142 0.929 . S
H175 C143 0.930 . S
Li176 N193 1.990 . S
Li176 O236 1.956 . S
Li176 O237 1.970 . S
Li176 O238 1.961 . S
Li177 N201 1.990 . S
Li177 O236 1.970 . S
Li177 O237 1.956 . S
Li177 O239 1.961 . S
Li178 N223 1.990 . S
Li178 O236 1.961 . S
Li178 O238 1.956 . S
Li178 O239 1.970 . S
Li179 N229 1.990 . S
Li179 O237 1.961 . S
Li179 O238 1.970 . S
Li179 O239 1.956 . S
C180 C182 1.348 . S
C180 C183 1.356 . S
C180 O236 1.325 . S
N181 C184 1.314 . S
N181 C185 1.279 . S
C182 C180 1.348 . S
C182 C184 1.353 . S
C182 H240 0.929 . S
C183 C180 1.356 . S
C183 C185 1.358 . S
C183 H241 0.930 . S
C184 N181 1.314 . S
C184 C182 1.353 . S
C184 H242 0.930 . S
C185 N181 1.279 . S
C185 C183 1.358 . S
C185 H243 0.930 . S
C186 C189 1.348 . S
C186 C190 1.356 . S
C186 O237 1.325 . S
C187 N188 1.279 . S
C187 C190 1.358 . S
C187 H244 0.930 . S
N188 C187 1.279 . S
N188 C191 1.314 . S
C189 C186 1.348 . S
C189 C191 1.353 . S
C189 H245 0.929 . S
C190 C186 1.356 . S
C190 C187 1.358 . S
C190 H246 0.930 . S
C191 N188 1.314 . S
C191 C189 1.353 . S
C191 H247 0.930 . S
C192 N193 1.314 . S
C192 C197 1.353 . S
C192 H198 0.930 . S
N193 Li176 1.990 . S
N193 C192 1.314 . S
N193 C195 1.279 . S
C194 C195 1.358 . S
C194 C196 1.356 . S
C194 H248 0.930 . S
C195 N193 1.279 . S
C195 C194 1.358 . S
C195 H199 0.930 . S
C196 C194 1.356 . S
C196 C197 1.348 . S
C197 C192 1.353 . S
C197 C196 1.348 . S
C197 H249 0.929 . S
H198 C192 0.930 . S
H199 C195 0.930 . S
C200 N201 1.314 . S
C200 C202 1.353 . S
C200 H206 0.930 . S
N201 Li177 1.990 . S
N201 C200 1.314 . S
N201 C204 1.279 . S
C202 C200 1.353 . S
C202 C205 1.348 . S
C202 H250 0.929 . S
C203 C204 1.358 . S
C203 C205 1.356 . S
C203 H251 0.930 . S
C204 N201 1.279 . S
C204 C203 1.358 . S
C204 H207 0.930 . S
C205 C202 1.348 . S
C205 C203 1.356 . S
H206 C200 0.930 . S
H207 C204 0.930 . S
C208 C210 1.348 . S
C208 C211 1.356 . S
C208 O238 1.325 . S
N209 C212 1.314 . S
N209 C213 1.279 . S
C210 C208 1.348 . S
C210 C212 1.353 . S
C210 H252 0.929 . S
C211 C208 1.356 . S
C211 C213 1.358 . S
C211 H253 0.930 . S
C212 N209 1.314 . S
C212 C210 1.353 . S
C212 H254 0.930 . S
C213 N209 1.279 . S
C213 C211 1.358 . S
C213 H255 0.930 . S
C214 C215 1.348 . S
C214 C216 1.356 . S
C214 O239 1.325 . S
C215 C214 1.348 . S
C215 C217 1.353 . S
C215 H256 0.929 . S
C216 C214 1.356 . S
C216 C218 1.358 . S
C216 H257 0.930 . S
C217 C215 1.353 . S
C217 N219 1.314 . S
C217 H258 0.930 . S
C218 C216 1.358 . S
C218 N219 1.279 . S
C218 H259 0.930 . S
N219 C217 1.314 . S
N219 C218 1.279 . S
C220 C222 1.353 . S
C220 N223 1.314 . S
C220 H226 0.930 . S
C221 N223 1.279 . S
C221 C224 1.358 . S
C221 H227 0.930 . S
C222 C220 1.353 . S
C222 C225 1.348 . S
C222 H260 0.929 . S
N223 Li178 1.990 . S
N223 C220 1.314 . S
N223 C221 1.279 . S
C224 C221 1.358 . S
C224 C225 1.356 . S
C224 H261 0.930 . S
C225 C222 1.348 . S
C225 C224 1.356 . S
H226 C220 0.930 . S
H227 C221 0.930 . S
C228 N229 1.314 . S
C228 C230 1.353 . S
C228 H234 0.930 . S
N229 Li179 1.990 . S
N229 C228 1.314 . S
N229 C232 1.279 . S
C230 C228 1.353 . S
C230 C233 1.348 . S
C230 H262 0.929 . S
C231 C232 1.358 . S
C231 C233 1.356 . S
C231 H263 0.930 . S
C232 N229 1.279 . S
C232 C231 1.358 . S
C232 H235 0.930 . S
C233 C230 1.348 . S
C233 C231 1.356 . S
H234 C228 0.930 . S
H235 C232 0.930 . S
O236 Li176 1.956 . S
O236 Li177 1.970 . S
O236 Li178 1.961 . S
O236 C180 1.325 . S
O237 Li176 1.970 . S
O237 Li177 1.956 . S
O237 Li179 1.961 . S
O237 C186 1.325 . S
O238 Li176 1.961 . S
O238 Li178 1.956 . S
O238 Li179 1.970 . S
O238 C208 1.325 . S
O239 Li177 1.961 . S
O239 Li178 1.970 . S
O239 Li179 1.956 . S
O239 C214 1.325 . S
H240 C182 0.929 . S
H241 C183 0.930 . S
H242 C184 0.930 . S
H243 C185 0.930 . S
H244 C187 0.930 . S
H245 C189 0.929 . S
H246 C190 0.930 . S
H247 C191 0.930 . S
H248 C194 0.930 . S
H249 C197 0.929 . S
H250 C202 0.929 . S
H251 C203 0.930 . S
H252 C210 0.929 . S
H253 C211 0.930 . S
H254 C212 0.930 . S
H255 C213 0.930 . S
H256 C215 0.929 . S
H257 C216 0.930 . S
H258 C217 0.930 . S
H259 C218 0.930 . S
H260 C222 0.929 . S
H261 C224 0.930 . S
H262 C230 0.929 . S
H263 C231 0.930 . S
Li264 N281 1.990 . S
Li264 O324 1.956 . S
Li264 O325 1.970 . S
Li264 O326 1.961 . S
Li265 N289 1.990 . S
Li265 O324 1.970 . S
Li265 O325 1.956 . S
Li265 O327 1.961 . S
Li266 N311 1.990 . S
Li266 O324 1.961 . S
Li266 O326 1.956 . S
Li266 O327 1.970 . S
Li267 N317 1.990 . S
Li267 O325 1.961 . S
Li267 O326 1.970 . S
Li267 O327 1.956 . S
C268 C270 1.348 . S
C268 C271 1.356 . S
C268 O324 1.325 . S
N269 C272 1.314 . S
N269 C273 1.279 . S
C270 C268 1.348 . S
C270 C272 1.353 . S
C270 H328 0.929 . S
C271 C268 1.356 . S
C271 C273 1.358 . S
C271 H329 0.930 . S
C272 N269 1.314 . S
C272 C270 1.353 . S
C272 H330 0.930 . S
C273 N269 1.279 . S
C273 C271 1.358 . S
C273 H331 0.930 . S
C274 C277 1.348 . S
C274 C278 1.356 . S
C274 O325 1.325 . S
C275 N276 1.279 . S
C275 C278 1.358 . S
C275 H332 0.930 . S
N276 C275 1.279 . S
N276 C279 1.314 . S
C277 C274 1.348 . S
C277 C279 1.353 . S
C277 H333 0.929 . S
C278 C274 1.356 . S
C278 C275 1.358 . S
C278 H334 0.930 . S
C279 N276 1.314 . S
C279 C277 1.353 . S
C279 H335 0.930 . S
C280 N281 1.314 . S
C280 C285 1.353 . S
C280 H286 0.930 . S
N281 Li264 1.990 . S
N281 C280 1.314 . S
N281 C283 1.279 . S
C282 C283 1.358 . S
C282 C284 1.356 . S
C282 H336 0.930 . S
C283 N281 1.279 . S
C283 C282 1.358 . S
C283 H287 0.930 . S
C284 C282 1.356 . S
C284 C285 1.348 . S
C285 C280 1.353 . S
C285 C284 1.348 . S
C285 H337 0.929 . S
H286 C280 0.930 . S
H287 C283 0.930 . S
C288 N289 1.314 . S
C288 C290 1.353 . S
C288 H294 0.930 . S
N289 Li265 1.990 . S
N289 C288 1.314 . S
N289 C292 1.279 . S
C290 C288 1.353 . S
C290 C293 1.348 . S
C290 H338 0.929 . S
C291 C292 1.358 . S
C291 C293 1.356 . S
C291 H339 0.930 . S
C292 N289 1.279 . S
C292 C291 1.358 . S
C292 H295 0.930 . S
C293 C290 1.348 . S
C293 C291 1.356 . S
H294 C288 0.930 . S
H295 C292 0.930 . S
C296 C298 1.348 . S
C296 C299 1.356 . S
C296 O326 1.325 . S
N297 C300 1.314 . S
N297 C301 1.279 . S
C298 C296 1.348 . S
C298 C300 1.353 . S
C298 H340 0.929 . S
C299 C296 1.356 . S
C299 C301 1.358 . S
C299 H341 0.930 . S
C300 N297 1.314 . S
C300 C298 1.353 . S
C300 H342 0.930 . S
C301 N297 1.279 . S
C301 C299 1.358 . S
C301 H343 0.930 . S
C302 C303 1.348 . S
C302 C304 1.356 . S
C302 O327 1.325 . S
C303 C302 1.348 . S
C303 C305 1.353 . S
C303 H344 0.929 . S
C304 C302 1.356 . S
C304 C306 1.358 . S
C304 H345 0.930 . S
C305 C303 1.353 . S
C305 N307 1.314 . S
C305 H346 0.930 . S
C306 C304 1.358 . S
C306 N307 1.279 . S
C306 H347 0.930 . S
N307 C305 1.314 . S
N307 C306 1.279 . S
C308 C310 1.353 . S
C308 N311 1.314 . S
C308 H314 0.930 . S
C309 N311 1.279 . S
C309 C312 1.358 . S
C309 H315 0.930 . S
C310 C308 1.353 . S
C310 C313 1.348 . S
C310 H348 0.929 . S
N311 Li266 1.990 . S
N311 C308 1.314 . S
N311 C309 1.279 . S
C312 C309 1.358 . S
C312 C313 1.356 . S
C312 H349 0.930 . S
C313 C310 1.348 . S
C313 C312 1.356 . S
H314 C308 0.930 . S
H315 C309 0.930 . S
C316 N317 1.314 . S
C316 C318 1.353 . S
C316 H322 0.930 . S
N317 Li267 1.990 . S
N317 C316 1.314 . S
N317 C320 1.279 . S
C318 C316 1.353 . S
C318 C321 1.348 . S
C318 H350 0.929 . S
C319 C320 1.358 . S
C319 C321 1.356 . S
C319 H351 0.930 . S
C320 N317 1.279 . S
C320 C319 1.358 . S
C320 H323 0.930 . S
C321 C318 1.348 . S
C321 C319 1.356 . S
H322 C316 0.930 . S
H323 C320 0.930 . S
O324 Li264 1.956 . S
O324 Li265 1.970 . S
O324 Li266 1.961 . S
O324 C268 1.325 . S
O325 Li264 1.970 . S
O325 Li265 1.956 . S
O325 Li267 1.961 . S
O325 C274 1.325 . S
O326 Li264 1.961 . S
O326 Li266 1.956 . S
O326 Li267 1.970 . S
O326 C296 1.325 . S
O327 Li265 1.961 . S
O327 Li266 1.970 . S
O327 Li267 1.956 . S
O327 C302 1.325 . S
H328 C270 0.929 . S
H329 C271 0.930 . S
H330 C272 0.930 . S
H331 C273 0.930 . S
H332 C275 0.930 . S
H333 C277 0.929 . S
H334 C278 0.930 . S
H335 C279 0.930 . S
H336 C282 0.930 . S
H337 C285 0.929 . S
H338 C290 0.929 . S
H339 C291 0.930 . S
H340 C298 0.929 . S
H341 C299 0.930 . S
H342 C300 0.930 . S
H343 C301 0.930 . S
H344 C303 0.929 . S
H345 C304 0.930 . S
H346 C305 0.930 . S
H347 C306 0.930 . S
H348 C310 0.929 . S
H349 C312 0.930 . S
H350 C318 0.929 . S
H351 C319 0.930 . S
Li352 N369 1.990 . S
Li352 O412 1.956 . S
Li352 O413 1.970 . S
Li352 O414 1.961 . S
Li353 N377 1.990 . S
Li353 O412 1.970 . S
Li353 O413 1.956 . S
Li353 O415 1.961 . S
Li354 N399 1.990 . S
Li354 O412 1.961 . S
Li354 O414 1.956 . S
Li354 O415 1.970 . S
Li355 N405 1.990 . S
Li355 O413 1.961 . S
Li355 O414 1.970 . S
Li355 O415 1.956 . S
C356 C358 1.348 . S
C356 C359 1.356 . S
C356 O412 1.325 . S
N357 C360 1.314 . S
N357 C361 1.279 . S
C358 C356 1.348 . S
C358 C360 1.353 . S
C358 H416 0.929 . S
C359 C356 1.356 . S
C359 C361 1.358 . S
C359 H417 0.930 . S
C360 N357 1.314 . S
C360 C358 1.353 . S
C360 H418 0.930 . S
C361 N357 1.279 . S
C361 C359 1.358 . S
C361 H419 0.930 . S
C362 C365 1.348 . S
C362 C366 1.356 . S
C362 O413 1.325 . S
C363 N364 1.279 . S
C363 C366 1.358 . S
C363 H420 0.930 . S
N364 C363 1.279 . S
N364 C367 1.314 . S
C365 C362 1.348 . S
C365 C367 1.353 . S
C365 H421 0.929 . S
C366 C362 1.356 . S
C366 C363 1.358 . S
C366 H422 0.930 . S
C367 N364 1.314 . S
C367 C365 1.353 . S
C367 H423 0.930 . S
C368 N369 1.314 . S
C368 C373 1.353 . S
C368 H374 0.930 . S
N369 Li352 1.990 . S
N369 C368 1.314 . S
N369 C371 1.279 . S
C370 C371 1.358 . S
C370 C372 1.356 . S
C370 H424 0.930 . S
C371 N369 1.279 . S
C371 C370 1.358 . S
C371 H375 0.930 . S
C372 C370 1.356 . S
C372 C373 1.348 . S
C373 C368 1.353 . S
C373 C372 1.348 . S
C373 H425 0.929 . S
H374 C368 0.930 . S
H375 C371 0.930 . S
C376 N377 1.314 . S
C376 C378 1.353 . S
C376 H382 0.930 . S
N377 Li353 1.990 . S
N377 C376 1.314 . S
N377 C380 1.279 . S
C378 C376 1.353 . S
C378 C381 1.348 . S
C378 H426 0.929 . S
C379 C380 1.358 . S
C379 C381 1.356 . S
C379 H427 0.930 . S
C380 N377 1.279 . S
C380 C379 1.358 . S
C380 H383 0.930 . S
C381 C378 1.348 . S
C381 C379 1.356 . S
H382 C376 0.930 . S
H383 C380 0.930 . S
C384 C386 1.348 . S
C384 C387 1.356 . S
C384 O414 1.325 . S
N385 C388 1.314 . S
N385 C389 1.279 . S
C386 C384 1.348 . S
C386 C388 1.353 . S
C386 H428 0.929 . S
C387 C384 1.356 . S
C387 C389 1.358 . S
C387 H429 0.930 . S
C388 N385 1.314 . S
C388 C386 1.353 . S
C388 H430 0.930 . S
C389 N385 1.279 . S
C389 C387 1.358 . S
C389 H431 0.930 . S
C390 C391 1.348 . S
C390 C392 1.356 . S
C390 O415 1.325 . S
C391 C390 1.348 . S
C391 C393 1.353 . S
C391 H432 0.929 . S
C392 C390 1.356 . S
C392 C394 1.358 . S
C392 H433 0.930 . S
C393 C391 1.353 . S
C393 N395 1.314 . S
C393 H434 0.930 . S
C394 C392 1.358 . S
C394 N395 1.279 . S
C394 H435 0.930 . S
N395 C393 1.314 . S
N395 C394 1.279 . S
C396 C398 1.353 . S
C396 N399 1.314 . S
C396 H402 0.930 . S
C397 N399 1.279 . S
C397 C400 1.358 . S
C397 H403 0.930 . S
C398 C396 1.353 . S
C398 C401 1.348 . S
C398 H436 0.929 . S
N399 Li354 1.990 . S
N399 C396 1.314 . S
N399 C397 1.279 . S
C400 C397 1.358 . S
C400 C401 1.356 . S
C400 H437 0.930 . S
C401 C398 1.348 . S
C401 C400 1.356 . S
H402 C396 0.930 . S
H403 C397 0.930 . S
C404 N405 1.314 . S
C404 C406 1.353 . S
C404 H410 0.930 . S
N405 Li355 1.990 . S
N405 C404 1.314 . S
N405 C408 1.279 . S
C406 C404 1.353 . S
C406 C409 1.348 . S
C406 H438 0.929 . S
C407 C408 1.358 . S
C407 C409 1.356 . S
C407 H439 0.930 . S
C408 N405 1.279 . S
C408 C407 1.358 . S
C408 H411 0.930 . S
C409 C406 1.348 . S
C409 C407 1.356 . S
H410 C404 0.930 . S
H411 C408 0.930 . S
O412 Li352 1.956 . S
O412 Li353 1.970 . S
O412 Li354 1.961 . S
O412 C356 1.325 . S
O413 Li352 1.970 . S
O413 Li353 1.956 . S
O413 Li355 1.961 . S
O413 C362 1.325 . S
O414 Li352 1.961 . S
O414 Li354 1.956 . S
O414 Li355 1.970 . S
O414 C384 1.325 . S
O415 Li353 1.961 . S
O415 Li354 1.970 . S
O415 Li355 1.956 . S
O415 C390 1.325 . S
H416 C358 0.929 . S
H417 C359 0.930 . S
H418 C360 0.930 . S
H419 C361 0.930 . S
H420 C363 0.930 . S
H421 C365 0.929 . S
H422 C366 0.930 . S
H423 C367 0.930 . S
H424 C370 0.930 . S
H425 C373 0.929 . S
H426 C378 0.929 . S
H427 C379 0.930 . S
H428 C386 0.929 . S
H429 C387 0.930 . S
H430 C388 0.930 . S
H431 C389 0.930 . S
H432 C391 0.929 . S
H433 C392 0.930 . S
H434 C393 0.930 . S
H435 C394 0.930 . S
H436 C398 0.929 . S
H437 C400 0.930 . S
H438 C406 0.929 . S
H439 C407 0.930 . S
Li440 N457 1.990 . S
Li440 O500 1.956 . S
Li440 O501 1.970 . S
Li440 O502 1.961 . S
Li441 N465 1.990 . S
Li441 O500 1.970 . S
Li441 O501 1.956 . S
Li441 O503 1.961 . S
Li442 N487 1.990 . S
Li442 O500 1.961 . S
Li442 O502 1.956 . S
Li442 O503 1.970 . S
Li443 N493 1.990 . S
Li443 O501 1.961 . S
Li443 O502 1.970 . S
Li443 O503 1.956 . S
C444 C446 1.348 . S
C444 C447 1.356 . S
C444 O500 1.325 . S
N445 C448 1.314 . S
N445 C449 1.279 . S
C446 C444 1.348 . S
C446 C448 1.353 . S
C446 H504 0.929 . S
C447 C444 1.356 . S
C447 C449 1.358 . S
C447 H505 0.930 . S
C448 N445 1.314 . S
C448 C446 1.353 . S
C448 H506 0.930 . S
C449 N445 1.279 . S
C449 C447 1.358 . S
C449 H507 0.930 . S
C450 C453 1.348 . S
C450 C454 1.356 . S
C450 O501 1.325 . S
C451 N452 1.279 . S
C451 C454 1.358 . S
C451 H508 0.930 . S
N452 C451 1.279 . S
N452 C455 1.314 . S
C453 C450 1.348 . S
C453 C455 1.353 . S
C453 H509 0.929 . S
C454 C450 1.356 . S
C454 C451 1.358 . S
C454 H510 0.930 . S
C455 N452 1.314 . S
C455 C453 1.353 . S
C455 H511 0.930 . S
C456 N457 1.314 . S
C456 C461 1.353 . S
C456 H462 0.930 . S
N457 Li440 1.990 . S
N457 C456 1.314 . S
N457 C459 1.279 . S
C458 C459 1.358 . S
C458 C460 1.356 . S
C458 H512 0.930 . S
C459 N457 1.279 . S
C459 C458 1.358 . S
C459 H463 0.930 . S
C460 C458 1.356 . S
C460 C461 1.348 . S
C461 C456 1.353 . S
C461 C460 1.348 . S
C461 H513 0.929 . S
H462 C456 0.930 . S
H463 C459 0.930 . S
C464 N465 1.314 . S
C464 C466 1.353 . S
C464 H470 0.930 . S
N465 Li441 1.990 . S
N465 C464 1.314 . S
N465 C468 1.279 . S
C466 C464 1.353 . S
C466 C469 1.348 . S
C466 H514 0.929 . S
C467 C468 1.358 . S
C467 C469 1.356 . S
C467 H515 0.930 . S
C468 N465 1.279 . S
C468 C467 1.358 . S
C468 H471 0.930 . S
C469 C466 1.348 . S
C469 C467 1.356 . S
H470 C464 0.930 . S
H471 C468 0.930 . S
C472 C474 1.348 . S
C472 C475 1.356 . S
C472 O502 1.325 . S
N473 C476 1.314 . S
N473 C477 1.279 . S
C474 C472 1.348 . S
C474 C476 1.353 . S
C474 H516 0.929 . S
C475 C472 1.356 . S
C475 C477 1.358 . S
C475 H517 0.930 . S
C476 N473 1.314 . S
C476 C474 1.353 . S
C476 H518 0.930 . S
C477 N473 1.279 . S
C477 C475 1.358 . S
C477 H519 0.930 . S
C478 C479 1.348 . S
C478 C480 1.356 . S
C478 O503 1.325 . S
C479 C478 1.348 . S
C479 C481 1.353 . S
C479 H520 0.929 . S
C480 C478 1.356 . S
C480 C482 1.358 . S
C480 H521 0.930 . S
C481 C479 1.353 . S
C481 N483 1.314 . S
C481 H522 0.930 . S
C482 C480 1.358 . S
C482 N483 1.279 . S
C482 H523 0.930 . S
N483 C481 1.314 . S
N483 C482 1.279 . S
C484 C486 1.353 . S
C484 N487 1.314 . S
C484 H490 0.930 . S
C485 N487 1.279 . S
C485 C488 1.358 . S
C485 H491 0.930 . S
C486 C484 1.353 . S
C486 C489 1.348 . S
C486 H524 0.929 . S
N487 Li442 1.990 . S
N487 C484 1.314 . S
N487 C485 1.279 . S
C488 C485 1.358 . S
C488 C489 1.356 . S
C488 H525 0.930 . S
C489 C486 1.348 . S
C489 C488 1.356 . S
H490 C484 0.930 . S
H491 C485 0.930 . S
C492 N493 1.314 . S
C492 C494 1.353 . S
C492 H498 0.930 . S
N493 Li443 1.990 . S
N493 C492 1.314 . S
N493 C496 1.279 . S
C494 C492 1.353 . S
C494 C497 1.348 . S
C494 H526 0.929 . S
C495 C496 1.358 . S
C495 C497 1.356 . S
C495 H527 0.930 . S
C496 N493 1.279 . S
C496 C495 1.358 . S
C496 H499 0.930 . S
C497 C494 1.348 . S
C497 C495 1.356 . S
H498 C492 0.930 . S
H499 C496 0.930 . S
O500 Li440 1.956 . S
O500 Li441 1.970 . S
O500 Li442 1.961 . S
O500 C444 1.325 . S
O501 Li440 1.970 . S
O501 Li441 1.956 . S
O501 Li443 1.961 . S
O501 C450 1.325 . S
O502 Li440 1.961 . S
O502 Li442 1.956 . S
O502 Li443 1.970 . S
O502 C472 1.325 . S
O503 Li441 1.961 . S
O503 Li442 1.970 . S
O503 Li443 1.956 . S
O503 C478 1.325 . S
H504 C446 0.929 . S
H505 C447 0.930 . S
H506 C448 0.930 . S
H507 C449 0.930 . S
H508 C451 0.930 . S
H509 C453 0.929 . S
H510 C454 0.930 . S
H511 C455 0.930 . S
H512 C458 0.930 . S
H513 C461 0.929 . S
H514 C466 0.929 . S
H515 C467 0.930 . S
H516 C474 0.929 . S
H517 C475 0.930 . S
H518 C476 0.930 . S
H519 C477 0.930 . S
H520 C479 0.929 . S
H521 C480 0.930 . S
H522 C481 0.930 . S
H523 C482 0.930 . S
H524 C486 0.929 . S
H525 C488 0.930 . S
H526 C494 0.929 . S
H527 C495 0.930 . S
Li528 N545 1.990 . S
Li528 O588 1.956 . S
Li528 O589 1.970 . S
Li528 O590 1.961 . S
Li529 N553 1.990 . S
Li529 O588 1.970 . S
Li529 O589 1.956 . S
Li529 O591 1.961 . S
Li530 N575 1.990 . S
Li530 O588 1.961 . S
Li530 O590 1.956 . S
Li530 O591 1.970 . S
Li531 N581 1.990 . S
Li531 O589 1.961 . S
Li531 O590 1.970 . S
Li531 O591 1.956 . S
C532 C534 1.348 . S
C532 C535 1.356 . S
C532 O588 1.325 . S
N533 C536 1.314 . S
N533 C537 1.279 . S
C534 C532 1.348 . S
C534 C536 1.353 . S
C534 H592 0.929 . S
C535 C532 1.356 . S
C535 C537 1.358 . S
C535 H593 0.930 . S
C536 N533 1.314 . S
C536 C534 1.353 . S
C536 H594 0.930 . S
C537 N533 1.279 . S
C537 C535 1.358 . S
C537 H595 0.930 . S
C538 C541 1.348 . S
C538 C542 1.356 . S
C538 O589 1.325 . S
C539 N540 1.279 . S
C539 C542 1.358 . S
C539 H596 0.930 . S
N540 C539 1.279 . S
N540 C543 1.314 . S
C541 C538 1.348 . S
C541 C543 1.353 . S
C541 H597 0.929 . S
C542 C538 1.356 . S
C542 C539 1.358 . S
C542 H598 0.930 . S
C543 N540 1.314 . S
C543 C541 1.353 . S
C543 H599 0.930 . S
C544 N545 1.314 . S
C544 C549 1.353 . S
C544 H550 0.930 . S
N545 Li528 1.990 . S
N545 C544 1.314 . S
N545 C547 1.279 . S
C546 C547 1.358 . S
C546 C548 1.356 . S
C546 H600 0.930 . S
C547 N545 1.279 . S
C547 C546 1.358 . S
C547 H551 0.930 . S
C548 C546 1.356 . S
C548 C549 1.348 . S
C549 C544 1.353 . S
C549 C548 1.348 . S
C549 H601 0.929 . S
H550 C544 0.930 . S
H551 C547 0.930 . S
C552 N553 1.314 . S
C552 C554 1.353 . S
C552 H558 0.930 . S
N553 Li529 1.990 . S
N553 C552 1.314 . S
N553 C556 1.279 . S
C554 C552 1.353 . S
C554 C557 1.348 . S
C554 H602 0.929 . S
C555 C556 1.358 . S
C555 C557 1.356 . S
C555 H603 0.930 . S
C556 N553 1.279 . S
C556 C555 1.358 . S
C556 H559 0.930 . S
C557 C554 1.348 . S
C557 C555 1.356 . S
H558 C552 0.930 . S
H559 C556 0.930 . S
C560 C562 1.348 . S
C560 C563 1.356 . S
C560 O590 1.325 . S
N561 C564 1.314 . S
N561 C565 1.279 . S
C562 C560 1.348 . S
C562 C564 1.353 . S
C562 H604 0.929 . S
C563 C560 1.356 . S
C563 C565 1.358 . S
C563 H605 0.930 . S
C564 N561 1.314 . S
C564 C562 1.353 . S
C564 H606 0.930 . S
C565 N561 1.279 . S
C565 C563 1.358 . S
C565 H607 0.930 . S
C566 C567 1.348 . S
C566 C568 1.356 . S
C566 O591 1.325 . S
C567 C566 1.348 . S
C567 C569 1.353 . S
C567 H608 0.929 . S
C568 C566 1.356 . S
C568 C570 1.358 . S
C568 H609 0.930 . S
C569 C567 1.353 . S
C569 N571 1.314 . S
C569 H610 0.930 . S
C570 C568 1.358 . S
C570 N571 1.279 . S
C570 H611 0.930 . S
N571 C569 1.314 . S
N571 C570 1.279 . S
C572 C574 1.353 . S
C572 N575 1.314 . S
C572 H578 0.930 . S
C573 N575 1.279 . S
C573 C576 1.358 . S
C573 H579 0.930 . S
C574 C572 1.353 . S
C574 C577 1.348 . S
C574 H612 0.929 . S
N575 Li530 1.990 . S
N575 C572 1.314 . S
N575 C573 1.279 . S
C576 C573 1.358 . S
C576 C577 1.356 . S
C576 H613 0.930 . S
C577 C574 1.348 . S
C577 C576 1.356 . S
H578 C572 0.930 . S
H579 C573 0.930 . S
C580 N581 1.314 . S
C580 C582 1.353 . S
C580 H586 0.930 . S
N581 Li531 1.990 . S
N581 C580 1.314 . S
N581 C584 1.279 . S
C582 C580 1.353 . S
C582 C585 1.348 . S
C582 H614 0.929 . S
C583 C584 1.358 . S
C583 C585 1.356 . S
C583 H615 0.930 . S
C584 N581 1.279 . S
C584 C583 1.358 . S
C584 H587 0.930 . S
C585 C582 1.348 . S
C585 C583 1.356 . S
H586 C580 0.930 . S
H587 C584 0.930 . S
O588 Li528 1.956 . S
O588 Li529 1.970 . S
O588 Li530 1.961 . S
O588 C532 1.325 . S
O589 Li528 1.970 . S
O589 Li529 1.956 . S
O589 Li531 1.961 . S
O589 C538 1.325 . S
O590 Li528 1.961 . S
O590 Li530 1.956 . S
O590 Li531 1.970 . S
O590 C560 1.325 . S
O591 Li529 1.961 . S
O591 Li530 1.970 . S
O591 Li531 1.956 . S
O591 C566 1.325 . S
H592 C534 0.929 . S
H593 C535 0.930 . S
H594 C536 0.930 . S
H595 C537 0.930 . S
H596 C539 0.930 . S
H597 C541 0.929 . S
H598 C542 0.930 . S
H599 C543 0.930 . S
H600 C546 0.930 . S
H601 C549 0.929 . S
H602 C554 0.929 . S
H603 C555 0.930 . S
H604 C562 0.929 . S
H605 C563 0.930 . S
H606 C564 0.930 . S
H607 C565 0.930 . S
H608 C567 0.929 . S
H609 C568 0.930 . S
H610 C569 0.930 . S
H611 C570 0.930 . S
H612 C574 0.929 . S
H613 C576 0.930 . S
H614 C582 0.929 . S
H615 C583 0.930 . S
Li616 N633 1.990 . S
Li616 O676 1.956 . S
Li616 O677 1.970 . S
Li616 O678 1.961 . S
Li617 N641 1.990 . S
Li617 O676 1.970 . S
Li617 O677 1.956 . S
Li617 O679 1.961 . S
Li618 N663 1.990 . S
Li618 O676 1.961 . S
Li618 O678 1.956 . S
Li618 O679 1.970 . S
Li619 N669 1.990 . S
Li619 O677 1.961 . S
Li619 O678 1.970 . S
Li619 O679 1.956 . S
C620 C622 1.348 . S
C620 C623 1.356 . S
C620 O676 1.325 . S
N621 C624 1.314 . S
N621 C625 1.279 . S
C622 C620 1.348 . S
C622 C624 1.353 . S
C622 H680 0.929 . S
C623 C620 1.356 . S
C623 C625 1.358 . S
C623 H681 0.930 . S
C624 N621 1.314 . S
C624 C622 1.353 . S
C624 H682 0.930 . S
C625 N621 1.279 . S
C625 C623 1.358 . S
C625 H683 0.930 . S
C626 C629 1.348 . S
C626 C630 1.356 . S
C626 O677 1.325 . S
C627 N628 1.279 . S
C627 C630 1.358 . S
C627 H684 0.930 . S
N628 C627 1.279 . S
N628 C631 1.314 . S
C629 C626 1.348 . S
C629 C631 1.353 . S
C629 H685 0.929 . S
C630 C626 1.356 . S
C630 C627 1.358 . S
C630 H686 0.930 . S
C631 N628 1.314 . S
C631 C629 1.353 . S
C631 H687 0.930 . S
C632 N633 1.314 . S
C632 C637 1.353 . S
C632 H638 0.930 . S
N633 Li616 1.990 . S
N633 C632 1.314 . S
N633 C635 1.279 . S
C634 C635 1.358 . S
C634 C636 1.356 . S
C634 H688 0.930 . S
C635 N633 1.279 . S
C635 C634 1.358 . S
C635 H639 0.930 . S
C636 C634 1.356 . S
C636 C637 1.348 . S
C637 C632 1.353 . S
C637 C636 1.348 . S
C637 H689 0.929 . S
H638 C632 0.930 . S
H639 C635 0.930 . S
C640 N641 1.314 . S
C640 C642 1.353 . S
C640 H646 0.930 . S
N641 Li617 1.990 . S
N641 C640 1.314 . S
N641 C644 1.279 . S
C642 C640 1.353 . S
C642 C645 1.348 . S
C642 H690 0.929 . S
C643 C644 1.358 . S
C643 C645 1.356 . S
C643 H691 0.930 . S
C644 N641 1.279 . S
C644 C643 1.358 . S
C644 H647 0.930 . S
C645 C642 1.348 . S
C645 C643 1.356 . S
H646 C640 0.930 . S
H647 C644 0.930 . S
C648 C650 1.348 . S
C648 C651 1.356 . S
C648 O678 1.325 . S
N649 C652 1.314 . S
N649 C653 1.279 . S
C650 C648 1.348 . S
C650 C652 1.353 . S
C650 H692 0.929 . S
C651 C648 1.356 . S
C651 C653 1.358 . S
C651 H693 0.930 . S
C652 N649 1.314 . S
C652 C650 1.353 . S
C652 H694 0.930 . S
C653 N649 1.279 . S
C653 C651 1.358 . S
C653 H695 0.930 . S
C654 C655 1.348 . S
C654 C656 1.356 . S
C654 O679 1.325 . S
C655 C654 1.348 . S
C655 C657 1.353 . S
C655 H696 0.929 . S
C656 C654 1.356 . S
C656 C658 1.358 . S
C656 H697 0.930 . S
C657 C655 1.353 . S
C657 N659 1.314 . S
C657 H698 0.930 . S
C658 C656 1.358 . S
C658 N659 1.279 . S
C658 H699 0.930 . S
N659 C657 1.314 . S
N659 C658 1.279 . S
C660 C662 1.353 . S
C660 N663 1.314 . S
C660 H666 0.930 . S
C661 N663 1.279 . S
C661 C664 1.358 . S
C661 H667 0.930 . S
C662 C660 1.353 . S
C662 C665 1.348 . S
C662 H700 0.929 . S
N663 Li618 1.990 . S
N663 C660 1.314 . S
N663 C661 1.279 . S
C664 C661 1.358 . S
C664 C665 1.356 . S
C664 H701 0.930 . S
C665 C662 1.348 . S
C665 C664 1.356 . S
H666 C660 0.930 . S
H667 C661 0.930 . S
C668 N669 1.314 . S
C668 C670 1.353 . S
C668 H674 0.930 . S
N669 Li619 1.990 . S
N669 C668 1.314 . S
N669 C672 1.279 . S
C670 C668 1.353 . S
C670 C673 1.348 . S
C670 H702 0.929 . S
C671 C672 1.358 . S
C671 C673 1.356 . S
C671 H703 0.930 . S
C672 N669 1.279 . S
C672 C671 1.358 . S
C672 H675 0.930 . S
C673 C670 1.348 . S
C673 C671 1.356 . S
H674 C668 0.930 . S
H675 C672 0.930 . S
O676 Li616 1.956 . S
O676 Li617 1.970 . S
O676 Li618 1.961 . S
O676 C620 1.325 . S
O677 Li616 1.970 . S
O677 Li617 1.956 . S
O677 Li619 1.961 . S
O677 C626 1.325 . S
O678 Li616 1.961 . S
O678 Li618 1.956 . S
O678 Li619 1.970 . S
O678 C648 1.325 . S
O679 Li617 1.961 . S
O679 Li618 1.970 . S
O679 Li619 1.956 . S
O679 C654 1.325 . S
H680 C622 0.929 . S
H681 C623 0.930 . S
H682 C624 0.930 . S
H683 C625 0.930 . S
H684 C627 0.930 . S
H685 C629 0.929 . S
H686 C630 0.930 . S
H687 C631 0.930 . S
H688 C634 0.930 . S
H689 C637 0.929 . S
H690 C642 0.929 . S
H691 C643 0.930 . S
H692 C650 0.929 . S
H693 C651 0.930 . S
H694 C652 0.930 . S
H695 C653 0.930 . S
H696 C655 0.929 . S
H697 C656 0.930 . S
H698 C657 0.930 . S
H699 C658 0.930 . S
H700 C662 0.929 . S
H701 C664 0.930 . S
H702 C670 0.929 . S
H703 C671 0.930 . S
Li704 N721 1.990 . S
Li704 O764 1.956 . S
Li704 O765 1.970 . S
Li704 O766 1.961 . S
Li705 N729 1.990 . S
Li705 O764 1.970 . S
Li705 O765 1.956 . S
Li705 O767 1.961 . S
Li706 N751 1.990 . S
Li706 O764 1.961 . S
Li706 O766 1.956 . S
Li706 O767 1.970 . S
Li707 N757 1.990 . S
Li707 O765 1.961 . S
Li707 O766 1.970 . S
Li707 O767 1.956 . S
C708 C710 1.348 . S
C708 C711 1.356 . S
C708 O764 1.325 . S
N709 C712 1.314 . S
N709 C713 1.279 . S
C710 C708 1.348 . S
C710 C712 1.353 . S
C710 H768 0.929 . S
C711 C708 1.356 . S
C711 C713 1.358 . S
C711 H769 0.930 . S
C712 N709 1.314 . S
C712 C710 1.353 . S
C712 H770 0.930 . S
C713 N709 1.279 . S
C713 C711 1.358 . S
C713 H771 0.930 . S
C714 C717 1.348 . S
C714 C718 1.356 . S
C714 O765 1.325 . S
C715 N716 1.279 . S
C715 C718 1.358 . S
C715 H772 0.930 . S
N716 C715 1.279 . S
N716 C719 1.314 . S
C717 C714 1.348 . S
C717 C719 1.353 . S
C717 H773 0.929 . S
C718 C714 1.356 . S
C718 C715 1.358 . S
C718 H774 0.930 . S
C719 N716 1.314 . S
C719 C717 1.353 . S
C719 H775 0.930 . S
C720 N721 1.314 . S
C720 C725 1.353 . S
C720 H726 0.930 . S
N721 Li704 1.990 . S
N721 C720 1.314 . S
N721 C723 1.279 . S
C722 C723 1.358 . S
C722 C724 1.356 . S
C722 H776 0.930 . S
C723 N721 1.279 . S
C723 C722 1.358 . S
C723 H727 0.930 . S
C724 C722 1.356 . S
C724 C725 1.348 . S
C725 C720 1.353 . S
C725 C724 1.348 . S
C725 H777 0.929 . S
H726 C720 0.930 . S
H727 C723 0.930 . S
C728 N729 1.314 . S
C728 C730 1.353 . S
C728 H734 0.930 . S
N729 Li705 1.990 . S
N729 C728 1.314 . S
N729 C732 1.279 . S
C730 C728 1.353 . S
C730 C733 1.348 . S
C730 H778 0.929 . S
C731 C732 1.358 . S
C731 C733 1.356 . S
C731 H779 0.930 . S
C732 N729 1.279 . S
C732 C731 1.358 . S
C732 H735 0.930 . S
C733 C730 1.348 . S
C733 C731 1.356 . S
H734 C728 0.930 . S
H735 C732 0.930 . S
C736 C738 1.348 . S
C736 C739 1.356 . S
C736 O766 1.325 . S
N737 C740 1.314 . S
N737 C741 1.279 . S
C738 C736 1.348 . S
C738 C740 1.353 . S
C738 H780 0.929 . S
C739 C736 1.356 . S
C739 C741 1.358 . S
C739 H781 0.930 . S
C740 N737 1.314 . S
C740 C738 1.353 . S
C740 H782 0.930 . S
C741 N737 1.279 . S
C741 C739 1.358 . S
C741 H783 0.930 . S
C742 C743 1.348 . S
C742 C744 1.356 . S
C742 O767 1.325 . S
C743 C742 1.348 . S
C743 C745 1.353 . S
C743 H784 0.929 . S
C744 C742 1.356 . S
C744 C746 1.358 . S
C744 H785 0.930 . S
C745 C743 1.353 . S
C745 N747 1.314 . S
C745 H786 0.930 . S
C746 C744 1.358 . S
C746 N747 1.279 . S
C746 H787 0.930 . S
N747 C745 1.314 . S
N747 C746 1.279 . S
C748 C750 1.353 . S
C748 N751 1.314 . S
C748 H754 0.930 . S
C749 N751 1.279 . S
C749 C752 1.358 . S
C749 H755 0.930 . S
C750 C748 1.353 . S
C750 C753 1.348 . S
C750 H788 0.929 . S
N751 Li706 1.990 . S
N751 C748 1.314 . S
N751 C749 1.279 . S
C752 C749 1.358 . S
C752 C753 1.356 . S
C752 H789 0.930 . S
C753 C750 1.348 . S
C753 C752 1.356 . S
H754 C748 0.930 . S
H755 C749 0.930 . S
C756 N757 1.314 . S
C756 C758 1.353 . S
C756 H762 0.930 . S
N757 Li707 1.990 . S
N757 C756 1.314 . S
N757 C760 1.279 . S
C758 C756 1.353 . S
C758 C761 1.348 . S
C758 H790 0.929 . S
C759 C760 1.358 . S
C759 C761 1.356 . S
C759 H791 0.930 . S
C760 N757 1.279 . S
C760 C759 1.358 . S
C760 H763 0.930 . S
C761 C758 1.348 . S
C761 C759 1.356 . S
H762 C756 0.930 . S
H763 C760 0.930 . S
O764 Li704 1.956 . S
O764 Li705 1.970 . S
O764 Li706 1.961 . S
O764 C708 1.325 . S
O765 Li704 1.970 . S
O765 Li705 1.956 . S
O765 Li707 1.961 . S
O765 C714 1.325 . S
O766 Li704 1.961 . S
O766 Li706 1.956 . S
O766 Li707 1.970 . S
O766 C736 1.325 . S
O767 Li705 1.961 . S
O767 Li706 1.970 . S
O767 Li707 1.956 . S
O767 C742 1.325 . S
H768 C710 0.929 . S
H769 C711 0.930 . S
H770 C712 0.930 . S
H771 C713 0.930 . S
H772 C715 0.930 . S
H773 C717 0.929 . S
H774 C718 0.930 . S
H775 C719 0.930 . S
H776 C722 0.930 . S
H777 C725 0.929 . S
H778 C730 0.929 . S
H779 C731 0.930 . S
H780 C738 0.929 . S
H781 C739 0.930 . S
H782 C740 0.930 . S
H783 C741 0.930 . S
H784 C743 0.929 . S
H785 C744 0.930 . S
H786 C745 0.930 . S
H787 C746 0.930 . S
H788 C750 0.929 . S
H789 C752 0.930 . S
H790 C758 0.929 . S
H791 C759 0.930 . S
Li792 N809 1.990 . S
Li792 O852 1.956 . S
Li792 O853 1.970 . S
Li792 O854 1.961 . S
Li793 N817 1.990 . S
Li793 O852 1.970 . S
Li793 O853 1.956 . S
Li793 O855 1.961 . S
Li794 N839 1.990 . S
Li794 O852 1.961 . S
Li794 O854 1.956 . S
Li794 O855 1.970 . S
Li795 N845 1.990 . S
Li795 O853 1.961 . S
Li795 O854 1.970 . S
Li795 O855 1.956 . S
C796 C798 1.348 . S
C796 C799 1.356 . S
C796 O852 1.325 . S
N797 C800 1.314 . S
N797 C801 1.279 . S
C798 C796 1.348 . S
C798 C800 1.353 . S
C798 H856 0.929 . S
C799 C796 1.356 . S
C799 C801 1.358 . S
C799 H857 0.930 . S
C800 N797 1.314 . S
C800 C798 1.353 . S
C800 H858 0.930 . S
C801 N797 1.279 . S
C801 C799 1.358 . S
C801 H859 0.930 . S
C802 C805 1.348 . S
C802 C806 1.356 . S
C802 O853 1.325 . S
C803 N804 1.279 . S
C803 C806 1.358 . S
C803 H860 0.930 . S
N804 C803 1.279 . S
N804 C807 1.314 . S
C805 C802 1.348 . S
C805 C807 1.353 . S
C805 H861 0.929 . S
C806 C802 1.356 . S
C806 C803 1.358 . S
C806 H862 0.930 . S
C807 N804 1.314 . S
C807 C805 1.353 . S
C807 H863 0.930 . S
C808 N809 1.314 . S
C808 C813 1.353 . S
C808 H814 0.930 . S
N809 Li792 1.990 . S
N809 C808 1.314 . S
N809 C811 1.279 . S
C810 C811 1.358 . S
C810 C812 1.356 . S
C810 H864 0.930 . S
C811 N809 1.279 . S
C811 C810 1.358 . S
C811 H815 0.930 . S
C812 C810 1.356 . S
C812 C813 1.348 . S
C813 C808 1.353 . S
C813 C812 1.348 . S
C813 H865 0.929 . S
H814 C808 0.930 . S
H815 C811 0.930 . S
C816 N817 1.314 . S
C816 C818 1.353 . S
C816 H822 0.930 . S
N817 Li793 1.990 . S
N817 C816 1.314 . S
N817 C820 1.279 . S
C818 C816 1.353 . S
C818 C821 1.348 . S
C818 H866 0.929 . S
C819 C820 1.358 . S
C819 C821 1.356 . S
C819 H867 0.930 . S
C820 N817 1.279 . S
C820 C819 1.358 . S
C820 H823 0.930 . S
C821 C818 1.348 . S
C821 C819 1.356 . S
H822 C816 0.930 . S
H823 C820 0.930 . S
C824 C826 1.348 . S
C824 C827 1.356 . S
C824 O854 1.325 . S
N825 C828 1.314 . S
N825 C829 1.279 . S
C826 C824 1.348 . S
C826 C828 1.353 . S
C826 H868 0.929 . S
C827 C824 1.356 . S
C827 C829 1.358 . S
C827 H869 0.930 . S
C828 N825 1.314 . S
C828 C826 1.353 . S
C828 H870 0.930 . S
C829 N825 1.279 . S
C829 C827 1.358 . S
C829 H871 0.930 . S
C830 C831 1.348 . S
C830 C832 1.356 . S
C830 O855 1.325 . S
C831 C830 1.348 . S
C831 C833 1.353 . S
C831 H872 0.929 . S
C832 C830 1.356 . S
C832 C834 1.358 . S
C832 H873 0.930 . S
C833 C831 1.353 . S
C833 N835 1.314 . S
C833 H874 0.930 . S
C834 C832 1.358 . S
C834 N835 1.279 . S
C834 H875 0.930 . S
N835 C833 1.314 . S
N835 C834 1.279 . S
C836 C838 1.353 . S
C836 N839 1.314 . S
C836 H842 0.930 . S
C837 N839 1.279 . S
C837 C840 1.358 . S
C837 H843 0.930 . S
C838 C836 1.353 . S
C838 C841 1.348 . S
C838 H876 0.929 . S
N839 Li794 1.990 . S
N839 C836 1.314 . S
N839 C837 1.279 . S
C840 C837 1.358 . S
C840 C841 1.356 . S
C840 H877 0.930 . S
C841 C838 1.348 . S
C841 C840 1.356 . S
H842 C836 0.930 . S
H843 C837 0.930 . S
C844 N845 1.314 . S
C844 C846 1.353 . S
C844 H850 0.930 . S
N845 Li795 1.990 . S
N845 C844 1.314 . S
N845 C848 1.279 . S
C846 C844 1.353 . S
C846 C849 1.348 . S
C846 H878 0.929 . S
C847 C848 1.358 . S
C847 C849 1.356 . S
C847 H879 0.930 . S
C848 N845 1.279 . S
C848 C847 1.358 . S
C848 H851 0.930 . S
C849 C846 1.348 . S
C849 C847 1.356 . S
H850 C844 0.930 . S
H851 C848 0.930 . S
O852 Li792 1.956 . S
O852 Li793 1.970 . S
O852 Li794 1.961 . S
O852 C796 1.325 . S
O853 Li792 1.970 . S
O853 Li793 1.956 . S
O853 Li795 1.961 . S
O853 C802 1.325 . S
O854 Li792 1.961 . S
O854 Li794 1.956 . S
O854 Li795 1.970 . S
O854 C824 1.325 . S
O855 Li793 1.961 . S
O855 Li794 1.970 . S
O855 Li795 1.956 . S
O855 C830 1.325 . S
H856 C798 0.929 . S
H857 C799 0.930 . S
H858 C800 0.930 . S
H859 C801 0.930 . S
H860 C803 0.930 . S
H861 C805 0.929 . S
H862 C806 0.930 . S
H863 C807 0.930 . S
H864 C810 0.930 . S
H865 C813 0.929 . S
H866 C818 0.929 . S
H867 C819 0.930 . S
H868 C826 0.929 . S
H869 C827 0.930 . S
H870 C828 0.930 . S
H871 C829 0.930 . S
H872 C831 0.929 . S
H873 C832 0.930 . S
H874 C833 0.930 . S
H875 C834 0.930 . S
H876 C838 0.929 . S
H877 C840 0.930 . S
H878 C846 0.929 . S
H879 C847 0.930 . S
Li880 N897 1.990 . S
Li880 O940 1.956 . S
Li880 O941 1.970 . S
Li880 O942 1.961 . S
Li881 N905 1.990 . S
Li881 O940 1.970 . S
Li881 O941 1.956 . S
Li881 O943 1.961 . S
Li882 N927 1.990 . S
Li882 O940 1.961 . S
Li882 O942 1.956 . S
Li882 O943 1.970 . S
Li883 N933 1.990 . S
Li883 O941 1.961 . S
Li883 O942 1.970 . S
Li883 O943 1.956 . S
C884 C886 1.348 . S
C884 C887 1.356 . S
C884 O940 1.325 . S
N885 C888 1.314 . S
N885 C889 1.279 . S
C886 C884 1.348 . S
C886 C888 1.353 . S
C886 H944 0.929 . S
C887 C884 1.356 . S
C887 C889 1.358 . S
C887 H945 0.930 . S
C888 N885 1.314 . S
C888 C886 1.353 . S
C888 H946 0.930 . S
C889 N885 1.279 . S
C889 C887 1.358 . S
C889 H947 0.930 . S
C890 C893 1.348 . S
C890 C894 1.356 . S
C890 O941 1.325 . S
C891 N892 1.279 . S
C891 C894 1.358 . S
C891 H948 0.930 . S
N892 C891 1.279 . S
N892 C895 1.314 . S
C893 C890 1.348 . S
C893 C895 1.353 . S
C893 H949 0.929 . S
C894 C890 1.356 . S
C894 C891 1.358 . S
C894 H950 0.930 . S
C895 N892 1.314 . S
C895 C893 1.353 . S
C895 H951 0.930 . S
C896 N897 1.314 . S
C896 C901 1.353 . S
C896 H902 0.930 . S
N897 Li880 1.990 . S
N897 C896 1.314 . S
N897 C899 1.279 . S
C898 C899 1.358 . S
C898 C900 1.356 . S
C898 H952 0.930 . S
C899 N897 1.279 . S
C899 C898 1.358 . S
C899 H903 0.930 . S
C900 C898 1.356 . S
C900 C901 1.348 . S
C901 C896 1.353 . S
C901 C900 1.348 . S
C901 H953 0.929 . S
H902 C896 0.930 . S
H903 C899 0.930 . S
C904 N905 1.314 . S
C904 C906 1.353 . S
C904 H910 0.930 . S
N905 Li881 1.990 . S
N905 C904 1.314 . S
N905 C908 1.279 . S
C906 C904 1.353 . S
C906 C909 1.348 . S
C906 H954 0.929 . S
C907 C908 1.358 . S
C907 C909 1.356 . S
C907 H955 0.930 . S
C908 N905 1.279 . S
C908 C907 1.358 . S
C908 H911 0.930 . S
C909 C906 1.348 . S
C909 C907 1.356 . S
H910 C904 0.930 . S
H911 C908 0.930 . S
C912 C914 1.348 . S
C912 C915 1.356 . S
C912 O942 1.325 . S
N913 C916 1.314 . S
N913 C917 1.279 . S
C914 C912 1.348 . S
C914 C916 1.353 . S
C914 H956 0.929 . S
C915 C912 1.356 . S
C915 C917 1.358 . S
C915 H957 0.930 . S
C916 N913 1.314 . S
C916 C914 1.353 . S
C916 H958 0.930 . S
C917 N913 1.279 . S
C917 C915 1.358 . S
C917 H959 0.930 . S
C918 C919 1.348 . S
C918 C920 1.356 . S
C918 O943 1.325 . S
C919 C918 1.348 . S
C919 C921 1.353 . S
C919 H960 0.929 . S
C920 C918 1.356 . S
C920 C922 1.358 . S
C920 H961 0.930 . S
C921 C919 1.353 . S
C921 N923 1.314 . S
C921 H962 0.930 . S
C922 C920 1.358 . S
C922 N923 1.279 . S
C922 H963 0.930 . S
N923 C921 1.314 . S
N923 C922 1.279 . S
C924 C926 1.353 . S
C924 N927 1.314 . S
C924 H930 0.930 . S
C925 N927 1.279 . S
C925 C928 1.358 . S
C925 H931 0.930 . S
C926 C924 1.353 . S
C926 C929 1.348 . S
C926 H964 0.929 . S
N927 Li882 1.990 . S
N927 C924 1.314 . S
N927 C925 1.279 . S
C928 C925 1.358 . S
C928 C929 1.356 . S
C928 H965 0.930 . S
C929 C926 1.348 . S
C929 C928 1.356 . S
H930 C924 0.930 . S
H931 C925 0.930 . S
C932 N933 1.314 . S
C932 C934 1.353 . S
C932 H938 0.930 . S
N933 Li883 1.990 . S
N933 C932 1.314 . S
N933 C936 1.279 . S
C934 C932 1.353 . S
C934 C937 1.348 . S
C934 H966 0.929 . S
C935 C936 1.358 . S
C935 C937 1.356 . S
C935 H967 0.930 . S
C936 N933 1.279 . S
C936 C935 1.358 . S
C936 H939 0.930 . S
C937 C934 1.348 . S
C937 C935 1.356 . S
H938 C932 0.930 . S
H939 C936 0.930 . S
O940 Li880 1.956 . S
O940 Li881 1.970 . S
O940 Li882 1.961 . S
O940 C884 1.325 . S
O941 Li880 1.970 . S
O941 Li881 1.956 . S
O941 Li883 1.961 . S
O941 C890 1.325 . S
O942 Li880 1.961 . S
O942 Li882 1.956 . S
O942 Li883 1.970 . S
O942 C912 1.325 . S
O943 Li881 1.961 . S
O943 Li882 1.970 . S
O943 Li883 1.956 . S
O943 C918 1.325 . S
H944 C886 0.929 . S
H945 C887 0.930 . S
H946 C888 0.930 . S
H947 C889 0.930 . S
H948 C891 0.930 . S
H949 C893 0.929 . S
H950 C894 0.930 . S
H951 C895 0.930 . S
H952 C898 0.930 . S
H953 C901 0.929 . S
H954 C906 0.929 . S
H955 C907 0.930 . S
H956 C914 0.929 . S
H957 C915 0.930 . S
H958 C916 0.930 . S
H959 C917 0.930 . S
H960 C919 0.929 . S
H961 C920 0.930 . S
H962 C921 0.930 . S
H963 C922 0.930 . S
H964 C926 0.929 . S
H965 C928 0.930 . S
H966 C934 0.929 . S
H967 C935 0.930 . S
Li968 N985 1.990 . S
Li968 O1028 1.956 . S
Li968 O1029 1.970 . S
Li968 O1030 1.961 . S
Li969 N993 1.990 . S
Li969 O1028 1.970 . S
Li969 O1029 1.956 . S
Li969 O1031 1.961 . S
Li970 N1015 1.990 . S
Li970 O1028 1.961 . S
Li970 O1030 1.956 . S
Li970 O1031 1.970 . S
Li971 N1021 1.990 . S
Li971 O1029 1.961 . S
Li971 O1030 1.970 . S
Li971 O1031 1.956 . S
C972 C974 1.348 . S
C972 C975 1.356 . S
C972 O1028 1.325 . S
N973 C976 1.314 . S
N973 C977 1.279 . S
C974 C972 1.348 . S
C974 C976 1.353 . S
C974 H1032 0.929 . S
C975 C972 1.356 . S
C975 C977 1.358 . S
C975 H1033 0.930 . S
C976 N973 1.314 . S
C976 C974 1.353 . S
C976 H1034 0.930 . S
C977 N973 1.279 . S
C977 C975 1.358 . S
C977 H1035 0.930 . S
C978 C981 1.348 . S
C978 C982 1.356 . S
C978 O1029 1.325 . S
C979 N980 1.279 . S
C979 C982 1.358 . S
C979 H1036 0.930 . S
N980 C979 1.279 . S
N980 C983 1.314 . S
C981 C978 1.348 . S
C981 C983 1.353 . S
C981 H1037 0.929 . S
C982 C978 1.356 . S
C982 C979 1.358 . S
C982 H1038 0.930 . S
C983 N980 1.314 . S
C983 C981 1.353 . S
C983 H1039 0.930 . S
C984 N985 1.314 . S
C984 C989 1.353 . S
C984 H990 0.930 . S
N985 Li968 1.990 . S
N985 C984 1.314 . S
N985 C987 1.279 . S
C986 C987 1.358 . S
C986 C988 1.356 . S
C986 H1040 0.930 . S
C987 N985 1.279 . S
C987 C986 1.358 . S
C987 H991 0.930 . S
C988 C986 1.356 . S
C988 C989 1.348 . S
C989 C984 1.353 . S
C989 C988 1.348 . S
C989 H1041 0.929 . S
H990 C984 0.930 . S
H991 C987 0.930 . S
C992 N993 1.314 . S
C992 C994 1.353 . S
C992 H998 0.930 . S
N993 Li969 1.990 . S
N993 C992 1.314 . S
N993 C996 1.279 . S
C994 C992 1.353 . S
C994 C997 1.348 . S
C994 H1042 0.929 . S
C995 C996 1.358 . S
C995 C997 1.356 . S
C995 H1043 0.930 . S
C996 N993 1.279 . S
C996 C995 1.358 . S
C996 H999 0.930 . S
C997 C994 1.348 . S
C997 C995 1.356 . S
H998 C992 0.930 . S
H999 C996 0.930 . S
C1000 C1002 1.348 . S
C1000 C1003 1.356 . S
C1000 O1030 1.325 . S
N1001 C1004 1.314 . S
N1001 C1005 1.279 . S
C1002 C1000 1.348 . S
C1002 C1004 1.353 . S
C1002 H1044 0.929 . S
C1003 C1000 1.356 . S
C1003 C1005 1.358 . S
C1003 H1045 0.930 . S
C1004 N1001 1.314 . S
C1004 C1002 1.353 . S
C1004 H1046 0.930 . S
C1005 N1001 1.279 . S
C1005 C1003 1.358 . S
C1005 H1047 0.930 . S
C1006 C1007 1.348 . S
C1006 C1008 1.356 . S
C1006 O1031 1.325 . S
C1007 C1006 1.348 . S
C1007 C1009 1.353 . S
C1007 H1048 0.929 . S
C1008 C1006 1.356 . S
C1008 C1010 1.358 . S
C1008 H1049 0.930 . S
C1009 C1007 1.353 . S
C1009 N1011 1.314 . S
C1009 H1050 0.930 . S
C1010 C1008 1.358 . S
C1010 N1011 1.279 . S
C1010 H1051 0.930 . S
N1011 C1009 1.314 . S
N1011 C1010 1.279 . S
C1012 C1014 1.353 . S
C1012 N1015 1.314 . S
C1012 H1018 0.930 . S
C1013 N1015 1.279 . S
C1013 C1016 1.358 . S
C1013 H1019 0.930 . S
C1014 C1012 1.353 . S
C1014 C1017 1.348 . S
C1014 H1052 0.929 . S
N1015 Li970 1.990 . S
N1015 C1012 1.314 . S
N1015 C1013 1.279 . S
C1016 C1013 1.358 . S
C1016 C1017 1.356 . S
C1016 H1053 0.930 . S
C1017 C1014 1.348 . S
C1017 C1016 1.356 . S
H1018 C1012 0.930 . S
H1019 C1013 0.930 . S
C1020 N1021 1.314 . S
C1020 C1022 1.353 . S
C1020 H1026 0.930 . S
N1021 Li971 1.990 . S
N1021 C1020 1.314 . S
N1021 C1024 1.279 . S
C1022 C1020 1.353 . S
C1022 C1025 1.348 . S
C1022 H1054 0.929 . S
C1023 C1024 1.358 . S
C1023 C1025 1.356 . S
C1023 H1055 0.930 . S
C1024 N1021 1.279 . S
C1024 C1023 1.358 . S
C1024 H1027 0.930 . S
C1025 C1022 1.348 . S
C1025 C1023 1.356 . S
H1026 C1020 0.930 . S
H1027 C1024 0.930 . S
O1028 Li968 1.956 . S
O1028 Li969 1.970 . S
O1028 Li970 1.961 . S
O1028 C972 1.325 . S
O1029 Li968 1.970 . S
O1029 Li969 1.956 . S
O1029 Li971 1.961 . S
O1029 C978 1.325 . S
O1030 Li968 1.961 . S
O1030 Li970 1.956 . S
O1030 Li971 1.970 . S
O1030 C1000 1.325 . S
O1031 Li969 1.961 . S
O1031 Li970 1.970 . S
O1031 Li971 1.956 . S
O1031 C1006 1.325 . S
H1032 C974 0.929 . S
H1033 C975 0.930 . S
H1034 C976 0.930 . S
H1035 C977 0.930 . S
H1036 C979 0.930 . S
H1037 C981 0.929 . S
H1038 C982 0.930 . S
H1039 C983 0.930 . S
H1040 C986 0.930 . S
H1041 C989 0.929 . S
H1042 C994 0.929 . S
H1043 C995 0.930 . S
H1044 C1002 0.929 . S
H1045 C1003 0.930 . S
H1046 C1004 0.930 . S
H1047 C1005 0.930 . S
H1048 C1007 0.929 . S
H1049 C1008 0.930 . S
H1050 C1009 0.930 . S
H1051 C1010 0.930 . S
H1052 C1014 0.929 . S
H1053 C1016 0.930 . S
H1054 C1022 0.929 . S
H1055 C1023 0.930 . S
Li1056 N1073 1.990 . S
Li1056 O1116 1.956 . S
Li1056 O1117 1.970 . S
Li1056 O1118 1.961 . S
Li1057 N1081 1.990 . S
Li1057 O1116 1.970 . S
Li1057 O1117 1.956 . S
Li1057 O1119 1.961 . S
Li1058 N1103 1.990 . S
Li1058 O1116 1.961 . S
Li1058 O1118 1.956 . S
Li1058 O1119 1.970 . S
Li1059 N1109 1.990 . S
Li1059 O1117 1.961 . S
Li1059 O1118 1.970 . S
Li1059 O1119 1.956 . S
C1060 C1062 1.348 . S
C1060 C1063 1.356 . S
C1060 O1116 1.325 . S
N1061 C1064 1.314 . S
N1061 C1065 1.279 . S
C1062 C1060 1.348 . S
C1062 C1064 1.353 . S
C1062 H1120 0.929 . S
C1063 C1060 1.356 . S
C1063 C1065 1.358 . S
C1063 H1121 0.930 . S
C1064 N1061 1.314 . S
C1064 C1062 1.353 . S
C1064 H1122 0.930 . S
C1065 N1061 1.279 . S
C1065 C1063 1.358 . S
C1065 H1123 0.930 . S
C1066 C1069 1.348 . S
C1066 C1070 1.356 . S
C1066 O1117 1.325 . S
C1067 N1068 1.279 . S
C1067 C1070 1.358 . S
C1067 H1124 0.930 . S
N1068 C1067 1.279 . S
N1068 C1071 1.314 . S
C1069 C1066 1.348 . S
C1069 C1071 1.353 . S
C1069 H1125 0.929 . S
C1070 C1066 1.356 . S
C1070 C1067 1.358 . S
C1070 H1126 0.930 . S
C1071 N1068 1.314 . S
C1071 C1069 1.353 . S
C1071 H1127 0.930 . S
C1072 N1073 1.314 . S
C1072 C1077 1.353 . S
C1072 H1078 0.930 . S
N1073 Li1056 1.990 . S
N1073 C1072 1.314 . S
N1073 C1075 1.279 . S
C1074 C1075 1.358 . S
C1074 C1076 1.356 . S
C1074 H1128 0.930 . S
C1075 N1073 1.279 . S
C1075 C1074 1.358 . S
C1075 H1079 0.930 . S
C1076 C1074 1.356 . S
C1076 C1077 1.348 . S
C1077 C1072 1.353 . S
C1077 C1076 1.348 . S
C1077 H1129 0.929 . S
H1078 C1072 0.930 . S
H1079 C1075 0.930 . S
C1080 N1081 1.314 . S
C1080 C1082 1.353 . S
C1080 H1086 0.930 . S
N1081 Li1057 1.990 . S
N1081 C1080 1.314 . S
N1081 C1084 1.279 . S
C1082 C1080 1.353 . S
C1082 C1085 1.348 . S
C1082 H1130 0.929 . S
C1083 C1084 1.358 . S
C1083 C1085 1.356 . S
C1083 H1131 0.930 . S
C1084 N1081 1.279 . S
C1084 C1083 1.358 . S
C1084 H1087 0.930 . S
C1085 C1082 1.348 . S
C1085 C1083 1.356 . S
H1086 C1080 0.930 . S
H1087 C1084 0.930 . S
C1088 C1090 1.348 . S
C1088 C1091 1.356 . S
C1088 O1118 1.325 . S
N1089 C1092 1.314 . S
N1089 C1093 1.279 . S
C1090 C1088 1.348 . S
C1090 C1092 1.353 . S
C1090 H1132 0.929 . S
C1091 C1088 1.356 . S
C1091 C1093 1.358 . S
C1091 H1133 0.930 . S
C1092 N1089 1.314 . S
C1092 C1090 1.353 . S
C1092 H1134 0.930 . S
C1093 N1089 1.279 . S
C1093 C1091 1.358 . S
C1093 H1135 0.930 . S
C1094 C1095 1.348 . S
C1094 C1096 1.356 . S
C1094 O1119 1.325 . S
C1095 C1094 1.348 . S
C1095 C1097 1.353 . S
C1095 H1136 0.929 . S
C1096 C1094 1.356 . S
C1096 C1098 1.358 . S
C1096 H1137 0.930 . S
C1097 C1095 1.353 . S
C1097 N1099 1.314 . S
C1097 H1138 0.930 . S
C1098 C1096 1.358 . S
C1098 N1099 1.279 . S
C1098 H1139 0.930 . S
N1099 C1097 1.314 . S
N1099 C1098 1.279 . S
C1100 C1102 1.353 . S
C1100 N1103 1.314 . S
C1100 H1106 0.930 . S
C1101 N1103 1.279 . S
C1101 C1104 1.358 . S
C1101 H1107 0.930 . S
C1102 C1100 1.353 . S
C1102 C1105 1.348 . S
C1102 H1140 0.929 . S
N1103 Li1058 1.990 . S
N1103 C1100 1.314 . S
N1103 C1101 1.279 . S
C1104 C1101 1.358 . S
C1104 C1105 1.356 . S
C1104 H1141 0.930 . S
C1105 C1102 1.348 . S
C1105 C1104 1.356 . S
H1106 C1100 0.930 . S
H1107 C1101 0.930 . S
C1108 N1109 1.314 . S
C1108 C1110 1.353 . S
C1108 H1114 0.930 . S
N1109 Li1059 1.990 . S
N1109 C1108 1.314 . S
N1109 C1112 1.279 . S
C1110 C1108 1.353 . S
C1110 C1113 1.348 . S
C1110 H1142 0.929 . S
C1111 C1112 1.358 . S
C1111 C1113 1.356 . S
C1111 H1143 0.930 . S
C1112 N1109 1.279 . S
C1112 C1111 1.358 . S
C1112 H1115 0.930 . S
C1113 C1110 1.348 . S
C1113 C1111 1.356 . S
H1114 C1108 0.930 . S
H1115 C1112 0.930 . S
O1116 Li1056 1.956 . S
O1116 Li1057 1.970 . S
O1116 Li1058 1.961 . S
O1116 C1060 1.325 . S
O1117 Li1056 1.970 . S
O1117 Li1057 1.956 . S
O1117 Li1059 1.961 . S
O1117 C1066 1.325 . S
O1118 Li1056 1.961 . S
O1118 Li1058 1.956 . S
O1118 Li1059 1.970 . S
O1118 C1088 1.325 . S
O1119 Li1057 1.961 . S
O1119 Li1058 1.970 . S
O1119 Li1059 1.956 . S
O1119 C1094 1.325 . S
H1120 C1062 0.929 . S
H1121 C1063 0.930 . S
H1122 C1064 0.930 . S
H1123 C1065 0.930 . S
H1124 C1067 0.930 . S
H1125 C1069 0.929 . S
H1126 C1070 0.930 . S
H1127 C1071 0.930 . S
H1128 C1074 0.930 . S
H1129 C1077 0.929 . S
H1130 C1082 0.929 . S
H1131 C1083 0.930 . S
H1132 C1090 0.929 . S
H1133 C1091 0.930 . S
H1134 C1092 0.930 . S
H1135 C1093 0.930 . S
H1136 C1095 0.929 . S
H1137 C1096 0.930 . S
H1138 C1097 0.930 . S
H1139 C1098 0.930 . S
H1140 C1102 0.929 . S
H1141 C1104 0.930 . S
H1142 C1110 0.929 . S
H1143 C1111 0.930 . S
Li1144 N1161 1.990 . S
Li1144 O1204 1.956 . S
Li1144 O1205 1.970 . S
Li1144 O1206 1.961 . S
Li1145 N1169 1.990 . S
Li1145 O1204 1.970 . S
Li1145 O1205 1.956 . S
Li1145 O1207 1.961 . S
Li1146 N1191 1.990 . S
Li1146 O1204 1.961 . S
Li1146 O1206 1.956 . S
Li1146 O1207 1.970 . S
Li1147 N1197 1.990 . S
Li1147 O1205 1.961 . S
Li1147 O1206 1.970 . S
Li1147 O1207 1.956 . S
C1148 C1150 1.348 . S
C1148 C1151 1.356 . S
C1148 O1204 1.325 . S
N1149 C1152 1.314 . S
N1149 C1153 1.279 . S
C1150 C1148 1.348 . S
C1150 C1152 1.353 . S
C1150 H1208 0.929 . S
C1151 C1148 1.356 . S
C1151 C1153 1.358 . S
C1151 H1209 0.930 . S
C1152 N1149 1.314 . S
C1152 C1150 1.353 . S
C1152 H1210 0.930 . S
C1153 N1149 1.279 . S
C1153 C1151 1.358 . S
C1153 H1211 0.930 . S
C1154 C1157 1.348 . S
C1154 C1158 1.356 . S
C1154 O1205 1.325 . S
C1155 N1156 1.279 . S
C1155 C1158 1.358 . S
C1155 H1212 0.930 . S
N1156 C1155 1.279 . S
N1156 C1159 1.314 . S
C1157 C1154 1.348 . S
C1157 C1159 1.353 . S
C1157 H1213 0.929 . S
C1158 C1154 1.356 . S
C1158 C1155 1.358 . S
C1158 H1214 0.930 . S
C1159 N1156 1.314 . S
C1159 C1157 1.353 . S
C1159 H1215 0.930 . S
C1160 N1161 1.314 . S
C1160 C1165 1.353 . S
C1160 H1166 0.930 . S
N1161 Li1144 1.990 . S
N1161 C1160 1.314 . S
N1161 C1163 1.279 . S
C1162 C1163 1.358 . S
C1162 C1164 1.356 . S
C1162 H1216 0.930 . S
C1163 N1161 1.279 . S
C1163 C1162 1.358 . S
C1163 H1167 0.930 . S
C1164 C1162 1.356 . S
C1164 C1165 1.348 . S
C1165 C1160 1.353 . S
C1165 C1164 1.348 . S
C1165 H1217 0.929 . S
H1166 C1160 0.930 . S
H1167 C1163 0.930 . S
C1168 N1169 1.314 . S
C1168 C1170 1.353 . S
C1168 H1174 0.930 . S
N1169 Li1145 1.990 . S
N1169 C1168 1.314 . S
N1169 C1172 1.279 . S
C1170 C1168 1.353 . S
C1170 C1173 1.348 . S
C1170 H1218 0.929 . S
C1171 C1172 1.358 . S
C1171 C1173 1.356 . S
C1171 H1219 0.930 . S
C1172 N1169 1.279 . S
C1172 C1171 1.358 . S
C1172 H1175 0.930 . S
C1173 C1170 1.348 . S
C1173 C1171 1.356 . S
H1174 C1168 0.930 . S
H1175 C1172 0.930 . S
C1176 C1178 1.348 . S
C1176 C1179 1.356 . S
C1176 O1206 1.325 . S
N1177 C1180 1.314 . S
N1177 C1181 1.279 . S
C1178 C1176 1.348 . S
C1178 C1180 1.353 . S
C1178 H1220 0.929 . S
C1179 C1176 1.356 . S
C1179 C1181 1.358 . S
C1179 H1221 0.930 . S
C1180 N1177 1.314 . S
C1180 C1178 1.353 . S
C1180 H1222 0.930 . S
C1181 N1177 1.279 . S
C1181 C1179 1.358 . S
C1181 H1223 0.930 . S
C1182 C1183 1.348 . S
C1182 C1184 1.356 . S
C1182 O1207 1.325 . S
C1183 C1182 1.348 . S
C1183 C1185 1.353 . S
C1183 H1224 0.929 . S
C1184 C1182 1.356 . S
C1184 C1186 1.358 . S
C1184 H1225 0.930 . S
C1185 C1183 1.353 . S
C1185 N1187 1.314 . S
C1185 H1226 0.930 . S
C1186 C1184 1.358 . S
C1186 N1187 1.279 . S
C1186 H1227 0.930 . S
N1187 C1185 1.314 . S
N1187 C1186 1.279 . S
C1188 C1190 1.353 . S
C1188 N1191 1.314 . S
C1188 H1194 0.930 . S
C1189 N1191 1.279 . S
C1189 C1192 1.358 . S
C1189 H1195 0.930 . S
C1190 C1188 1.353 . S
C1190 C1193 1.348 . S
C1190 H1228 0.929 . S
N1191 Li1146 1.990 . S
N1191 C1188 1.314 . S
N1191 C1189 1.279 . S
C1192 C1189 1.358 . S
C1192 C1193 1.356 . S
C1192 H1229 0.930 . S
C1193 C1190 1.348 . S
C1193 C1192 1.356 . S
H1194 C1188 0.930 . S
H1195 C1189 0.930 . S
C1196 N1197 1.314 . S
C1196 C1198 1.353 . S
C1196 H1202 0.930 . S
N1197 Li1147 1.990 . S
N1197 C1196 1.314 . S
N1197 C1200 1.279 . S
C1198 C1196 1.353 . S
C1198 C1201 1.348 . S
C1198 H1230 0.929 . S
C1199 C1200 1.358 . S
C1199 C1201 1.356 . S
C1199 H1231 0.930 . S
C1200 N1197 1.279 . S
C1200 C1199 1.358 . S
C1200 H1203 0.930 . S
C1201 C1198 1.348 . S
C1201 C1199 1.356 . S
H1202 C1196 0.930 . S
H1203 C1200 0.930 . S
O1204 Li1144 1.956 . S
O1204 Li1145 1.970 . S
O1204 Li1146 1.961 . S
O1204 C1148 1.325 . S
O1205 Li1144 1.970 . S
O1205 Li1145 1.956 . S
O1205 Li1147 1.961 . S
O1205 C1154 1.325 . S
O1206 Li1144 1.961 . S
O1206 Li1146 1.956 . S
O1206 Li1147 1.970 . S
O1206 C1176 1.325 . S
O1207 Li1145 1.961 . S
O1207 Li1146 1.970 . S
O1207 Li1147 1.956 . S
O1207 C1182 1.325 . S
H1208 C1150 0.929 . S
H1209 C1151 0.930 . S
H1210 C1152 0.930 . S
H1211 C1153 0.930 . S
H1212 C1155 0.930 . S
H1213 C1157 0.929 . S
H1214 C1158 0.930 . S
H1215 C1159 0.930 . S
H1216 C1162 0.930 . S
H1217 C1165 0.929 . S
H1218 C1170 0.929 . S
H1219 C1171 0.930 . S
H1220 C1178 0.929 . S
H1221 C1179 0.930 . S
H1222 C1180 0.930 . S
H1223 C1181 0.930 . S
H1224 C1183 0.929 . S
H1225 C1184 0.930 . S
H1226 C1185 0.930 . S
H1227 C1186 0.930 . S
H1228 C1190 0.929 . S
H1229 C1192 0.930 . S
H1230 C1198 0.929 . S
H1231 C1199 0.930 . S
Li1232 N1249 1.990 . S
Li1232 O1292 1.956 . S
Li1232 O1293 1.970 . S
Li1232 O1294 1.961 . S
Li1233 N1257 1.990 . S
Li1233 O1292 1.970 . S
Li1233 O1293 1.956 . S
Li1233 O1295 1.961 . S
Li1234 N1279 1.990 . S
Li1234 O1292 1.961 . S
Li1234 O1294 1.956 . S
Li1234 O1295 1.970 . S
Li1235 N1285 1.990 . S
Li1235 O1293 1.961 . S
Li1235 O1294 1.970 . S
Li1235 O1295 1.956 . S
C1236 C1238 1.348 . S
C1236 C1239 1.356 . S
C1236 O1292 1.325 . S
N1237 C1240 1.314 . S
N1237 C1241 1.279 . S
C1238 C1236 1.348 . S
C1238 C1240 1.353 . S
C1238 H1296 0.929 . S
C1239 C1236 1.356 . S
C1239 C1241 1.358 . S
C1239 H1297 0.930 . S
C1240 N1237 1.314 . S
C1240 C1238 1.353 . S
C1240 H1298 0.930 . S
C1241 N1237 1.279 . S
C1241 C1239 1.358 . S
C1241 H1299 0.930 . S
C1242 C1245 1.348 . S
C1242 C1246 1.356 . S
C1242 O1293 1.325 . S
C1243 N1244 1.279 . S
C1243 C1246 1.358 . S
C1243 H1300 0.930 . S
N1244 C1243 1.279 . S
N1244 C1247 1.314 . S
C1245 C1242 1.348 . S
C1245 C1247 1.353 . S
C1245 H1301 0.929 . S
C1246 C1242 1.356 . S
C1246 C1243 1.358 . S
C1246 H1302 0.930 . S
C1247 N1244 1.314 . S
C1247 C1245 1.353 . S
C1247 H1303 0.930 . S
C1248 N1249 1.314 . S
C1248 C1253 1.353 . S
C1248 H1254 0.930 . S
N1249 Li1232 1.990 . S
N1249 C1248 1.314 . S
N1249 C1251 1.279 . S
C1250 C1251 1.358 . S
C1250 C1252 1.356 . S
C1250 H1304 0.930 . S
C1251 N1249 1.279 . S
C1251 C1250 1.358 . S
C1251 H1255 0.930 . S
C1252 C1250 1.356 . S
C1252 C1253 1.348 . S
C1253 C1248 1.353 . S
C1253 C1252 1.348 . S
C1253 H1305 0.929 . S
H1254 C1248 0.930 . S
H1255 C1251 0.930 . S
C1256 N1257 1.314 . S
C1256 C1258 1.353 . S
C1256 H1262 0.930 . S
N1257 Li1233 1.990 . S
N1257 C1256 1.314 . S
N1257 C1260 1.279 . S
C1258 C1256 1.353 . S
C1258 C1261 1.348 . S
C1258 H1306 0.929 . S
C1259 C1260 1.358 . S
C1259 C1261 1.356 . S
C1259 H1307 0.930 . S
C1260 N1257 1.279 . S
C1260 C1259 1.358 . S
C1260 H1263 0.930 . S
C1261 C1258 1.348 . S
C1261 C1259 1.356 . S
H1262 C1256 0.930 . S
H1263 C1260 0.930 . S
C1264 C1266 1.348 . S
C1264 C1267 1.356 . S
C1264 O1294 1.325 . S
N1265 C1268 1.314 . S
N1265 C1269 1.279 . S
C1266 C1264 1.348 . S
C1266 C1268 1.353 . S
C1266 H1308 0.929 . S
C1267 C1264 1.356 . S
C1267 C1269 1.358 . S
C1267 H1309 0.930 . S
C1268 N1265 1.314 . S
C1268 C1266 1.353 . S
C1268 H1310 0.930 . S
C1269 N1265 1.279 . S
C1269 C1267 1.358 . S
C1269 H1311 0.930 . S
C1270 C1271 1.348 . S
C1270 C1272 1.356 . S
C1270 O1295 1.325 . S
C1271 C1270 1.348 . S
C1271 C1273 1.353 . S
C1271 H1312 0.929 . S
C1272 C1270 1.356 . S
C1272 C1274 1.358 . S
C1272 H1313 0.930 . S
C1273 C1271 1.353 . S
C1273 N1275 1.314 . S
C1273 H1314 0.930 . S
C1274 C1272 1.358 . S
C1274 N1275 1.279 . S
C1274 H1315 0.930 . S
N1275 C1273 1.314 . S
N1275 C1274 1.279 . S
C1276 C1278 1.353 . S
C1276 N1279 1.314 . S
C1276 H1282 0.930 . S
C1277 N1279 1.279 . S
C1277 C1280 1.358 . S
C1277 H1283 0.930 . S
C1278 C1276 1.353 . S
C1278 C1281 1.348 . S
C1278 H1316 0.929 . S
N1279 Li1234 1.990 . S
N1279 C1276 1.314 . S
N1279 C1277 1.279 . S
C1280 C1277 1.358 . S
C1280 C1281 1.356 . S
C1280 H1317 0.930 . S
C1281 C1278 1.348 . S
C1281 C1280 1.356 . S
H1282 C1276 0.930 . S
H1283 C1277 0.930 . S
C1284 N1285 1.314 . S
C1284 C1286 1.353 . S
C1284 H1290 0.930 . S
N1285 Li1235 1.990 . S
N1285 C1284 1.314 . S
N1285 C1288 1.279 . S
C1286 C1284 1.353 . S
C1286 C1289 1.348 . S
C1286 H1318 0.929 . S
C1287 C1288 1.358 . S
C1287 C1289 1.356 . S
C1287 H1319 0.930 . S
C1288 N1285 1.279 . S
C1288 C1287 1.358 . S
C1288 H1291 0.930 . S
C1289 C1286 1.348 . S
C1289 C1287 1.356 . S
H1290 C1284 0.930 . S
H1291 C1288 0.930 . S
O1292 Li1232 1.956 . S
O1292 Li1233 1.970 . S
O1292 Li1234 1.961 . S
O1292 C1236 1.325 . S
O1293 Li1232 1.970 . S
O1293 Li1233 1.956 . S
O1293 Li1235 1.961 . S
O1293 C1242 1.325 . S
O1294 Li1232 1.961 . S
O1294 Li1234 1.956 . S
O1294 Li1235 1.970 . S
O1294 C1264 1.325 . S
O1295 Li1233 1.961 . S
O1295 Li1234 1.970 . S
O1295 Li1235 1.956 . S
O1295 C1270 1.325 . S
H1296 C1238 0.929 . S
H1297 C1239 0.930 . S
H1298 C1240 0.930 . S
H1299 C1241 0.930 . S
H1300 C1243 0.930 . S
H1301 C1245 0.929 . S
H1302 C1246 0.930 . S
H1303 C1247 0.930 . S
H1304 C1250 0.930 . S
H1305 C1253 0.929 . S
H1306 C1258 0.929 . S
H1307 C1259 0.930 . S
H1308 C1266 0.929 . S
H1309 C1267 0.930 . S
H1310 C1268 0.930 . S
H1311 C1269 0.930 . S
H1312 C1271 0.929 . S
H1313 C1272 0.930 . S
H1314 C1273 0.930 . S
H1315 C1274 0.930 . S
H1316 C1278 0.929 . S
H1317 C1280 0.930 . S
H1318 C1286 0.929 . S
H1319 C1287 0.930 . S
Li1320 N1337 1.990 . S
Li1320 O1380 1.956 . S
Li1320 O1381 1.970 . S
Li1320 O1382 1.961 . S
Li1321 N1345 1.990 . S
Li1321 O1380 1.970 . S
Li1321 O1381 1.956 . S
Li1321 O1383 1.961 . S
Li1322 N1367 1.990 . S
Li1322 O1380 1.961 . S
Li1322 O1382 1.956 . S
Li1322 O1383 1.970 . S
Li1323 N1373 1.990 . S
Li1323 O1381 1.961 . S
Li1323 O1382 1.970 . S
Li1323 O1383 1.956 . S
C1324 C1326 1.348 . S
C1324 C1327 1.356 . S
C1324 O1380 1.325 . S
N1325 C1328 1.314 . S
N1325 C1329 1.279 . S
C1326 C1324 1.348 . S
C1326 C1328 1.353 . S
C1326 H1384 0.929 . S
C1327 C1324 1.356 . S
C1327 C1329 1.358 . S
C1327 H1385 0.930 . S
C1328 N1325 1.314 . S
C1328 C1326 1.353 . S
C1328 H1386 0.930 . S
C1329 N1325 1.279 . S
C1329 C1327 1.358 . S
C1329 H1387 0.930 . S
C1330 C1333 1.348 . S
C1330 C1334 1.356 . S
C1330 O1381 1.325 . S
C1331 N1332 1.279 . S
C1331 C1334 1.358 . S
C1331 H1388 0.930 . S
N1332 C1331 1.279 . S
N1332 C1335 1.314 . S
C1333 C1330 1.348 . S
C1333 C1335 1.353 . S
C1333 H1389 0.929 . S
C1334 C1330 1.356 . S
C1334 C1331 1.358 . S
C1334 H1390 0.930 . S
C1335 N1332 1.314 . S
C1335 C1333 1.353 . S
C1335 H1391 0.930 . S
C1336 N1337 1.314 . S
C1336 C1341 1.353 . S
C1336 H1342 0.930 . S
N1337 Li1320 1.990 . S
N1337 C1336 1.314 . S
N1337 C1339 1.279 . S
C1338 C1339 1.358 . S
C1338 C1340 1.356 . S
C1338 H1392 0.930 . S
C1339 N1337 1.279 . S
C1339 C1338 1.358 . S
C1339 H1343 0.930 . S
C1340 C1338 1.356 . S
C1340 C1341 1.348 . S
C1341 C1336 1.353 . S
C1341 C1340 1.348 . S
C1341 H1393 0.929 . S
H1342 C1336 0.930 . S
H1343 C1339 0.930 . S
C1344 N1345 1.314 . S
C1344 C1346 1.353 . S
C1344 H1350 0.930 . S
N1345 Li1321 1.990 . S
N1345 C1344 1.314 . S
N1345 C1348 1.279 . S
C1346 C1344 1.353 . S
C1346 C1349 1.348 . S
C1346 H1394 0.929 . S
C1347 C1348 1.358 . S
C1347 C1349 1.356 . S
C1347 H1395 0.930 . S
C1348 N1345 1.279 . S
C1348 C1347 1.358 . S
C1348 H1351 0.930 . S
C1349 C1346 1.348 . S
C1349 C1347 1.356 . S
H1350 C1344 0.930 . S
H1351 C1348 0.930 . S
C1352 C1354 1.348 . S
C1352 C1355 1.356 . S
C1352 O1382 1.325 . S
N1353 C1356 1.314 . S
N1353 C1357 1.279 . S
C1354 C1352 1.348 . S
C1354 C1356 1.353 . S
C1354 H1396 0.929 . S
C1355 C1352 1.356 . S
C1355 C1357 1.358 . S
C1355 H1397 0.930 . S
C1356 N1353 1.314 . S
C1356 C1354 1.353 . S
C1356 H1398 0.930 . S
C1357 N1353 1.279 . S
C1357 C1355 1.358 . S
C1357 H1399 0.930 . S
C1358 C1359 1.348 . S
C1358 C1360 1.356 . S
C1358 O1383 1.325 . S
C1359 C1358 1.348 . S
C1359 C1361 1.353 . S
C1359 H1400 0.929 . S
C1360 C1358 1.356 . S
C1360 C1362 1.358 . S
C1360 H1401 0.930 . S
C1361 C1359 1.353 . S
C1361 N1363 1.314 . S
C1361 H1402 0.930 . S
C1362 C1360 1.358 . S
C1362 N1363 1.279 . S
C1362 H1403 0.930 . S
N1363 C1361 1.314 . S
N1363 C1362 1.279 . S
C1364 C1366 1.353 . S
C1364 N1367 1.314 . S
C1364 H1370 0.930 . S
C1365 N1367 1.279 . S
C1365 C1368 1.358 . S
C1365 H1371 0.930 . S
C1366 C1364 1.353 . S
C1366 C1369 1.348 . S
C1366 H1404 0.929 . S
N1367 Li1322 1.990 . S
N1367 C1364 1.314 . S
N1367 C1365 1.279 . S
C1368 C1365 1.358 . S
C1368 C1369 1.356 . S
C1368 H1405 0.930 . S
C1369 C1366 1.348 . S
C1369 C1368 1.356 . S
H1370 C1364 0.930 . S
H1371 C1365 0.930 . S
C1372 N1373 1.314 . S
C1372 C1374 1.353 . S
C1372 H1378 0.930 . S
N1373 Li1323 1.990 . S
N1373 C1372 1.314 . S
N1373 C1376 1.279 . S
C1374 C1372 1.353 . S
C1374 C1377 1.348 . S
C1374 H1406 0.929 . S
C1375 C1376 1.358 . S
C1375 C1377 1.356 . S
C1375 H1407 0.930 . S
C1376 N1373 1.279 . S
C1376 C1375 1.358 . S
C1376 H1379 0.930 . S
C1377 C1374 1.348 . S
C1377 C1375 1.356 . S
H1378 C1372 0.930 . S
H1379 C1376 0.930 . S
O1380 Li1320 1.956 . S
O1380 Li1321 1.970 . S
O1380 Li1322 1.961 . S
O1380 C1324 1.325 . S
O1381 Li1320 1.970 . S
O1381 Li1321 1.956 . S
O1381 Li1323 1.961 . S
O1381 C1330 1.325 . S
O1382 Li1320 1.961 . S
O1382 Li1322 1.956 . S
O1382 Li1323 1.970 . S
O1382 C1352 1.325 . S
O1383 Li1321 1.961 . S
O1383 Li1322 1.970 . S
O1383 Li1323 1.956 . S
O1383 C1358 1.325 . S
H1384 C1326 0.929 . S
H1385 C1327 0.930 . S
H1386 C1328 0.930 . S
H1387 C1329 0.930 . S
H1388 C1331 0.930 . S
H1389 C1333 0.929 . S
H1390 C1334 0.930 . S
H1391 C1335 0.930 . S
H1392 C1338 0.930 . S
H1393 C1341 0.929 . S
H1394 C1346 0.929 . S
H1395 C1347 0.930 . S
H1396 C1354 0.929 . S
H1397 C1355 0.930 . S
H1398 C1356 0.930 . S
H1399 C1357 0.930 . S
H1400 C1359 0.929 . S
H1401 C1360 0.930 . S
H1402 C1361 0.930 . S
H1403 C1362 0.930 . S
H1404 C1366 0.929 . S
H1405 C1368 0.930 . S
H1406 C1374 0.929 . S
H1407 C1375 0.930 . S
H1408 C1416 0.950 . S
H1409 C1421 0.950 . S
H1410 C1418 0.950 . S
H1411 C1420 0.950 . S
H1412 C1422 0.950 . S
H1413 C1424 0.950 . S
H1414 C1426 0.950 . S
H1415 C1427 0.950 . S
C1416 H1408 0.950 . S
C1416 C1417 1.386 . S
C1416 C1418 1.391 . S
C1417 C1416 1.386 . S
C1417 C1421 1.393 . S
C1418 H1410 0.950 . S
C1418 C1416 1.391 . S
C1418 C1419 1.400 . S
C1419 C1418 1.400 . S
C1419 C1420 1.398 . S
C1419 C1425 1.491 . S
C1420 H1411 0.950 . S
C1420 C1419 1.398 . S
C1420 C1421 1.391 . S
C1421 H1409 0.950 . S
C1421 C1417 1.393 . S
C1421 C1420 1.391 . S
C1422 H1412 0.950 . S
C1422 C1423 1.386 . S
C1422 C1424 1.391 . S
C1423 C1422 1.386 . S
C1423 C1427 1.393 . S
C1424 H1413 0.950 . S
C1424 C1422 1.391 . S
C1424 C1425 1.400 . S
C1425 C1419 1.491 . S
C1425 C1424 1.400 . S
C1425 C1426 1.398 . S
C1426 H1414 0.950 . S
C1426 C1425 1.398 . S
C1426 C1427 1.391 . S
C1427 H1415 0.950 . S
C1427 C1423 1.393 . S
C1427 C1426 1.391 . S
H1428 C1436 0.950 . S
H1429 C1441 0.950 . S
H1430 C1438 0.950 . S
H1431 C1440 0.950 . S
H1432 C1442 0.950 . S
H1433 C1444 0.950 . S
H1434 C1446 0.950 . S
H1435 C1447 0.950 . S
C1436 H1428 0.950 . S
C1436 C1437 1.386 . S
C1436 C1438 1.391 . S
C1437 C1436 1.386 . S
C1437 C1441 1.393 . S
C1438 H1430 0.950 . S
C1438 C1436 1.391 . S
C1438 C1439 1.400 . S
C1439 C1438 1.400 . S
C1439 C1440 1.398 . S
C1439 C1445 1.491 . S
C1440 H1431 0.950 . S
C1440 C1439 1.398 . S
C1440 C1441 1.391 . S
C1441 H1429 0.950 . S
C1441 C1437 1.393 . S
C1441 C1440 1.391 . S
C1442 H1432 0.950 . S
C1442 C1443 1.386 . S
C1442 C1444 1.391 . S
C1443 C1442 1.386 . S
C1443 C1447 1.393 . S
C1444 H1433 0.950 . S
C1444 C1442 1.391 . S
C1444 C1445 1.400 . S
C1445 C1439 1.491 . S
C1445 C1444 1.400 . S
C1445 C1446 1.398 . S
C1446 H1434 0.950 . S
C1446 C1445 1.398 . S
C1446 C1447 1.391 . S
C1447 H1435 0.950 . S
C1447 C1443 1.393 . S
C1447 C1446 1.391 . S
H1448 C1456 0.950 . S
H1449 C1461 0.950 . S
H1450 C1458 0.950 . S
H1451 C1460 0.950 . S
H1452 C1462 0.950 . S
H1453 C1464 0.950 . S
H1454 C1466 0.950 . S
H1455 C1467 0.950 . S
C1456 H1448 0.950 . S
C1456 C1457 1.386 . S
C1456 C1458 1.391 . S
C1457 C1456 1.386 . S
C1457 C1461 1.393 . S
C1458 H1450 0.950 . S
C1458 C1456 1.391 . S
C1458 C1459 1.400 . S
C1459 C1458 1.400 . S
C1459 C1460 1.398 . S
C1459 C1465 1.491 . S
C1460 H1451 0.950 . S
C1460 C1459 1.398 . S
C1460 C1461 1.391 . S
C1461 H1449 0.950 . S
C1461 C1457 1.393 . S
C1461 C1460 1.391 . S
C1462 H1452 0.950 . S
C1462 C1463 1.386 . S
C1462 C1464 1.391 . S
C1463 C1462 1.386 . S
C1463 C1467 1.393 . S
C1464 H1453 0.950 . S
C1464 C1462 1.391 . S
C1464 C1465 1.400 . S
C1465 C1459 1.491 . S
C1465 C1464 1.400 . S
C1465 C1466 1.398 . S
C1466 H1454 0.950 . S
C1466 C1465 1.398 . S
C1466 C1467 1.391 . S
C1467 H1455 0.950 . S
C1467 C1463 1.393 . S
C1467 C1466 1.391 . S
H1468 C1476 0.950 . S
H1469 C1481 0.950 . S
H1470 C1478 0.950 . S
H1471 C1480 0.950 . S
H1472 C1482 0.950 . S
H1473 C1484 0.950 . S
H1474 C1486 0.950 . S
H1475 C1487 0.950 . S
C1476 H1468 0.950 . S
C1476 C1477 1.386 . S
C1476 C1478 1.391 . S
C1477 C1476 1.386 . S
C1477 C1481 1.393 . S
C1478 H1470 0.950 . S
C1478 C1476 1.391 . S
C1478 C1479 1.400 . S
C1479 C1478 1.400 . S
C1479 C1480 1.398 . S
C1479 C1485 1.491 . S
C1480 H1471 0.950 . S
C1480 C1479 1.398 . S
C1480 C1481 1.391 . S
C1481 H1469 0.950 . S
C1481 C1477 1.393 . S
C1481 C1480 1.391 . S
C1482 H1472 0.950 . S
C1482 C1483 1.386 . S
C1482 C1484 1.391 . S
C1483 C1482 1.386 . S
C1483 C1487 1.393 . S
C1484 H1473 0.950 . S
C1484 C1482 1.391 . S
C1484 C1485 1.400 . S
C1485 C1479 1.491 . S
C1485 C1484 1.400 . S
C1485 C1486 1.398 . S
C1486 H1474 0.950 . S
C1486 C1485 1.398 . S
C1486 C1487 1.391 . S
C1487 H1475 0.950 . S
C1487 C1483 1.393 . S
C1487 C1486 1.391 . S
H1488 C1496 0.950 . S
H1489 C1501 0.950 . S
H1490 C1498 0.950 . S
H1491 C1500 0.950 . S
H1492 C1502 0.950 . S
H1493 C1504 0.950 . S
H1494 C1506 0.950 . S
H1495 C1507 0.950 . S
C1496 H1488 0.950 . S
C1496 C1497 1.386 . S
C1496 C1498 1.391 . S
C1497 C1496 1.386 . S
C1497 C1501 1.393 . S
C1498 H1490 0.950 . S
C1498 C1496 1.391 . S
C1498 C1499 1.400 . S
C1499 C1498 1.400 . S
C1499 C1500 1.398 . S
C1499 C1505 1.491 . S
C1500 H1491 0.950 . S
C1500 C1499 1.398 . S
C1500 C1501 1.391 . S
C1501 H1489 0.950 . S
C1501 C1497 1.393 . S
C1501 C1500 1.391 . S
C1502 H1492 0.950 . S
C1502 C1503 1.386 . S
C1502 C1504 1.391 . S
C1503 C1502 1.386 . S
C1503 C1507 1.393 . S
C1504 H1493 0.950 . S
C1504 C1502 1.391 . S
C1504 C1505 1.400 . S
C1505 C1499 1.491 . S
C1505 C1504 1.400 . S
C1505 C1506 1.398 . S
C1506 H1494 0.950 . S
C1506 C1505 1.398 . S
C1506 C1507 1.391 . S
C1507 H1495 0.950 . S
C1507 C1503 1.393 . S
C1507 C1506 1.391 . S
H1508 C1516 0.950 . S
H1509 C1521 0.950 . S
H1510 C1518 0.950 . S
H1511 C1520 0.950 . S
H1512 C1522 0.950 . S
H1513 C1524 0.950 . S
H1514 C1526 0.950 . S
H1515 C1527 0.950 . S
C1516 H1508 0.950 . S
C1516 C1517 1.386 . S
C1516 C1518 1.391 . S
C1517 C1516 1.386 . S
C1517 C1521 1.393 . S
C1518 H1510 0.950 . S
C1518 C1516 1.391 . S
C1518 C1519 1.400 . S
C1519 C1518 1.400 . S
C1519 C1520 1.398 . S
C1519 C1525 1.491 . S
C1520 H1511 0.950 . S
C1520 C1519 1.398 . S
C1520 C1521 1.391 . S
C1521 H1509 0.950 . S
C1521 C1517 1.393 . S
C1521 C1520 1.391 . S
C1522 H1512 0.950 . S
C1522 C1523 1.386 . S
C1522 C1524 1.391 . S
C1523 C1522 1.386 . S
C1523 C1527 1.393 . S
C1524 H1513 0.950 . S
C1524 C1522 1.391 . S
C1524 C1525 1.400 . S
C1525 C1519 1.491 . S
C1525 C1524 1.400 . S
C1525 C1526 1.398 . S
C1526 H1514 0.950 . S
C1526 C1525 1.398 . S
C1526 C1527 1.391 . S
C1527 H1515 0.950 . S
C1527 C1523 1.393 . S
C1527 C1526 1.391 . S
H1528 C1536 0.950 . S
H1529 C1541 0.950 . S
H1530 C1538 0.950 . S
H1531 C1540 0.950 . S
H1532 C1542 0.950 . S
H1533 C1544 0.950 . S
H1534 C1546 0.950 . S
H1535 C1547 0.950 . S
C1536 H1528 0.950 . S
C1536 C1537 1.386 . S
C1536 C1538 1.391 . S
C1537 C1536 1.386 . S
C1537 C1541 1.393 . S
C1538 H1530 0.950 . S
C1538 C1536 1.391 . S
C1538 C1539 1.400 . S
C1539 C1538 1.400 . S
C1539 C1540 1.398 . S
C1539 C1545 1.491 . S
C1540 H1531 0.950 . S
C1540 C1539 1.398 . S
C1540 C1541 1.391 . S
C1541 H1529 0.950 . S
C1541 C1537 1.393 . S
C1541 C1540 1.391 . S
C1542 H1532 0.950 . S
C1542 C1543 1.386 . S
C1542 C1544 1.391 . S
C1543 C1542 1.386 . S
C1543 C1547 1.393 . S
C1544 H1533 0.950 . S
C1544 C1542 1.391 . S
C1544 C1545 1.400 . S
C1545 C1539 1.491 . S
C1545 C1544 1.400 . S
C1545 C1546 1.398 . S
C1546 H1534 0.950 . S
C1546 C1545 1.398 . S
C1546 C1547 1.391 . S
C1547 H1535 0.950 . S
C1547 C1543 1.393 . S
C1547 C1546 1.391 . S
H1548 C1556 0.950 . S
H1549 C1561 0.950 . S
H1550 C1558 0.950 . S
H1551 C1560 0.950 . S
H1552 C1562 0.950 . S
H1553 C1564 0.950 . S
H1554 C1566 0.950 . S
H1555 C1567 0.950 . S
C1556 H1548 0.950 . S
C1556 C1557 1.386 . S
C1556 C1558 1.391 . S
C1557 C1556 1.386 . S
C1557 C1561 1.393 . S
C1558 H1550 0.950 . S
C1558 C1556 1.391 . S
C1558 C1559 1.400 . S
C1559 C1558 1.400 . S
C1559 C1560 1.398 . S
C1559 C1565 1.491 . S
C1560 H1551 0.950 . S
C1560 C1559 1.398 . S
C1560 C1561 1.391 . S
C1561 H1549 0.950 . S
C1561 C1557 1.393 . S
C1561 C1560 1.391 . S
C1562 H1552 0.950 . S
C1562 C1563 1.386 . S
C1562 C1564 1.391 . S
C1563 C1562 1.386 . S
C1563 C1567 1.393 . S
C1564 H1553 0.950 . S
C1564 C1562 1.391 . S
C1564 C1565 1.400 . S
C1565 C1559 1.491 . S
C1565 C1564 1.400 . S
C1565 C1566 1.398 . S
C1566 H1554 0.950 . S
C1566 C1565 1.398 . S
C1566 C1567 1.391 . S
C1567 H1555 0.950 . S
C1567 C1563 1.393 . S
C1567 C1566 1.391 . S
H1568 C1576 0.950 . S
H1569 C1581 0.950 . S
H1570 C1578 0.950 . S
H1571 C1580 0.950 . S
H1572 C1582 0.950 . S
H1573 C1584 0.950 . S
H1574 C1586 0.950 . S
H1575 C1587 0.950 . S
C1576 H1568 0.950 . S
C1576 C1577 1.386 . S
C1576 C1578 1.391 . S
C1577 C1576 1.386 . S
C1577 C1581 1.393 . S
C1578 H1570 0.950 . S
C1578 C1576 1.391 . S
C1578 C1579 1.400 . S
C1579 C1578 1.400 . S
C1579 C1580 1.398 . S
C1579 C1585 1.491 1_556 S
C1580 H1571 0.950 . S
C1580 C1579 1.398 . S
C1580 C1581 1.391 . S
C1581 H1569 0.950 . S
C1581 C1577 1.393 . S
C1581 C1580 1.391 . S
C1582 H1572 0.950 . S
C1582 C1583 1.386 . S
C1582 C1584 1.391 . S
C1583 C1582 1.386 . S
C1583 C1587 1.393 . S
C1584 H1573 0.950 . S
C1584 C1582 1.391 . S
C1584 C1585 1.400 . S
C1585 C1579 1.491 1_554 S
C1585 C1584 1.400 . S
C1585 C1586 1.398 . S
C1586 H1574 0.950 . S
C1586 C1585 1.398 . S
C1586 C1587 1.391 . S
C1587 H1575 0.950 . S
C1587 C1583 1.393 . S
C1587 C1586 1.391 . S
H1588 C1596 0.950 . S
H1589 C1601 0.950 . S
H1590 C1598 0.950 . S
H1591 C1600 0.950 . S
H1592 C1602 0.950 . S
H1593 C1604 0.950 . S
H1594 C1606 0.950 . S
H1595 C1607 0.950 . S
C1596 H1588 0.950 . S
C1596 C1597 1.386 . S
C1596 C1598 1.391 . S
C1597 C1596 1.386 . S
C1597 C1601 1.393 . S
C1598 H1590 0.950 . S
C1598 C1596 1.391 . S
C1598 C1599 1.400 . S
C1599 C1598 1.400 . S
C1599 C1600 1.398 . S
C1599 C1605 1.491 1_556 S
C1600 H1591 0.950 . S
C1600 C1599 1.398 . S
C1600 C1601 1.391 . S
C1601 H1589 0.950 . S
C1601 C1597 1.393 . S
C1601 C1600 1.391 . S
C1602 H1592 0.950 . S
C1602 C1603 1.386 . S
C1602 C1604 1.391 . S
C1603 C1602 1.386 . S
C1603 C1607 1.393 . S
C1604 H1593 0.950 . S
C1604 C1602 1.391 . S
C1604 C1605 1.400 . S
C1605 C1599 1.491 1_554 S
C1605 C1604 1.400 . S
C1605 C1606 1.398 . S
C1606 H1594 0.950 . S
C1606 C1605 1.398 . S
C1606 C1607 1.391 . S
C1607 H1595 0.950 . S
C1607 C1603 1.393 . S
C1607 C1606 1.391 . S
H1608 C1616 0.950 . S
H1609 C1621 0.950 . S
H1610 C1618 0.950 . S
H1611 C1620 0.950 . S
H1612 C1622 0.950 . S
H1613 C1624 0.950 . S
H1614 C1626 0.950 . S
H1615 C1627 0.950 . S
C1616 H1608 0.950 . S
C1616 C1617 1.386 . S
C1616 C1618 1.391 . S
C1617 C1616 1.386 . S
C1617 C1621 1.393 . S
C1618 H1610 0.950 . S
C1618 C1616 1.391 . S
C1618 C1619 1.400 . S
C1619 C1618 1.400 . S
C1619 C1620 1.398 . S
C1619 C1625 1.491 1_556 S
C1620 H1611 0.950 . S
C1620 C1619 1.398 . S
C1620 C1621 1.391 . S
C1621 H1609 0.950 . S
C1621 C1617 1.393 . S
C1621 C1620 1.391 . S
C1622 H1612 0.950 . S
C1622 C1623 1.386 . S
C1622 C1624 1.391 . S
C1623 C1622 1.386 . S
C1623 C1627 1.393 . S
C1624 H1613 0.950 . S
C1624 C1622 1.391 . S
C1624 C1625 1.400 . S
C1625 C1619 1.491 1_554 S
C1625 C1624 1.400 . S
C1625 C1626 1.398 . S
C1626 H1614 0.950 . S
C1626 C1625 1.398 . S
C1626 C1627 1.391 . S
C1627 H1615 0.950 . S
C1627 C1623 1.393 . S
C1627 C1626 1.391 . S
H1628 C1636 0.950 . S
H1629 C1641 0.950 . S
H1630 C1638 0.950 . S
H1631 C1640 0.950 . S
H1632 C1642 0.950 . S
H1633 C1644 0.950 . S
H1634 C1646 0.950 . S
H1635 C1647 0.950 . S
C1636 H1628 0.950 . S
C1636 C1637 1.386 . S
C1636 C1638 1.391 . S
C1637 C1636 1.386 . S
C1637 C1641 1.393 . S
C1638 H1630 0.950 . S
C1638 C1636 1.391 . S
C1638 C1639 1.400 . S
C1639 C1638 1.400 . S
C1639 C1640 1.398 . S
C1639 C1645 1.491 1_554 S
C1640 H1631 0.950 . S
C1640 C1639 1.398 . S
C1640 C1641 1.391 . S
C1641 H1629 0.950 . S
C1641 C1637 1.393 . S
C1641 C1640 1.391 . S
C1642 H1632 0.950 . S
C1642 C1643 1.386 . S
C1642 C1644 1.391 . S
C1643 C1642 1.386 . S
C1643 C1647 1.393 . S
C1644 H1633 0.950 . S
C1644 C1642 1.391 . S
C1644 C1645 1.400 . S
C1645 C1639 1.491 1_556 S
C1645 C1644 1.400 . S
C1645 C1646 1.398 . S
C1646 H1634 0.950 . S
C1646 C1645 1.398 . S
C1646 C1647 1.391 . S
C1647 H1635 0.950 . S
C1647 C1643 1.393 . S
C1647 C1646 1.391 . S
H1648 C1656 0.950 . S
H1649 C1661 0.950 . S
H1650 C1658 0.950 . S
H1651 C1660 0.950 . S
H1652 C1662 0.950 . S
H1653 C1664 0.950 . S
H1654 C1666 0.950 . S
H1655 C1667 0.950 . S
C1656 H1648 0.950 . S
C1656 C1657 1.386 . S
C1656 C1658 1.391 . S
C1657 C1656 1.386 . S
C1657 C1661 1.393 . S
C1658 H1650 0.950 . S
C1658 C1656 1.391 . S
C1658 C1659 1.400 . S
C1659 C1658 1.400 . S
C1659 C1660 1.398 . S
C1659 C1665 1.491 . S
C1660 H1651 0.950 . S
C1660 C1659 1.398 . S
C1660 C1661 1.391 . S
C1661 H1649 0.950 . S
C1661 C1657 1.393 . S
C1661 C1660 1.391 . S
C1662 H1652 0.950 . S
C1662 C1663 1.386 . S
C1662 C1664 1.391 . S
C1663 C1662 1.386 . S
C1663 C1667 1.393 . S
C1664 H1653 0.950 . S
C1664 C1662 1.391 . S
C1664 C1665 1.400 . S
C1665 C1659 1.491 . S
C1665 C1664 1.400 . S
C1665 C1666 1.398 . S
C1666 H1654 0.950 . S
C1666 C1665 1.398 . S
C1666 C1667 1.391 . S
C1667 H1655 0.950 . S
C1667 C1663 1.393 . S
C1667 C1666 1.391 . S
H1668 C1676 0.950 . S
H1669 C1681 0.950 . S
H1670 C1678 0.950 . S
H1671 C1680 0.950 . S
H1672 C1682 0.950 . S
H1673 C1684 0.950 . S
H1674 C1686 0.950 . S
H1675 C1687 0.950 . S
C1676 H1668 0.950 . S
C1676 C1677 1.386 . S
C1676 C1678 1.391 . S
C1677 C1676 1.386 . S
C1677 C1681 1.393 . S
C1678 H1670 0.950 . S
C1678 C1676 1.391 . S
C1678 C1679 1.400 . S
C1679 C1678 1.400 . S
C1679 C1680 1.398 . S
C1679 C1685 1.491 . S
C1680 H1671 0.950 . S
C1680 C1679 1.398 . S
C1680 C1681 1.391 . S
C1681 H1669 0.950 . S
C1681 C1677 1.393 . S
C1681 C1680 1.391 . S
C1682 H1672 0.950 . S
C1682 C1683 1.386 . S
C1682 C1684 1.391 . S
C1683 C1682 1.386 . S
C1683 C1687 1.393 . S
C1684 H1673 0.950 . S
C1684 C1682 1.391 . S
C1684 C1685 1.400 . S
C1685 C1679 1.491 . S
C1685 C1684 1.400 . S
C1685 C1686 1.398 . S
C1686 H1674 0.950 . S
C1686 C1685 1.398 . S
C1686 C1687 1.391 . S
C1687 H1675 0.950 . S
C1687 C1683 1.393 . S
C1687 C1686 1.391 . S
H1688 C1696 0.950 . S
H1689 C1701 0.950 . S
H1690 C1698 0.950 . S
H1691 C1700 0.950 . S
H1692 C1702 0.950 . S
H1693 C1704 0.950 . S
H1694 C1706 0.950 . S
H1695 C1707 0.950 . S
C1696 H1688 0.950 . S
C1696 C1697 1.386 . S
C1696 C1698 1.391 . S
C1697 C1696 1.386 . S
C1697 C1701 1.393 . S
C1698 H1690 0.950 . S
C1698 C1696 1.391 . S
C1698 C1699 1.400 . S
C1699 C1698 1.400 . S
C1699 C1700 1.398 . S
C1699 C1705 1.491 . S
C1700 H1691 0.950 . S
C1700 C1699 1.398 . S
C1700 C1701 1.391 . S
C1701 H1689 0.950 . S
C1701 C1697 1.393 . S
C1701 C1700 1.391 . S
C1702 H1692 0.950 . S
C1702 C1703 1.386 . S
C1702 C1704 1.391 . S
C1703 C1702 1.386 . S
C1703 C1707 1.393 . S
C1704 H1693 0.950 . S
C1704 C1702 1.391 . S
C1704 C1705 1.400 . S
C1705 C1699 1.491 . S
C1705 C1704 1.400 . S
C1705 C1706 1.398 . S
C1706 H1694 0.950 . S
C1706 C1705 1.398 . S
C1706 C1707 1.391 . S
C1707 H1695 0.950 . S
C1707 C1703 1.393 . S
C1707 C1706 1.391 . S
H1708 C1716 0.950 . S
H1709 C1721 0.950 . S
H1710 C1718 0.950 . S
H1711 C1720 0.950 . S
H1712 C1722 0.950 . S
H1713 C1724 0.950 . S
H1714 C1726 0.950 . S
H1715 C1727 0.950 . S
C1716 H1708 0.950 . S
C1716 C1717 1.386 . S
C1716 C1718 1.391 . S
C1717 C1716 1.386 . S
C1717 C1721 1.393 . S
C1718 H1710 0.950 . S
C1718 C1716 1.391 . S
C1718 C1719 1.400 . S
C1719 C1718 1.400 . S
C1719 C1720 1.398 . S
C1719 C1725 1.491 . S
C1720 H1711 0.950 . S
C1720 C1719 1.398 . S
C1720 C1721 1.391 . S
C1721 H1709 0.950 . S
C1721 C1717 1.393 . S
C1721 C1720 1.391 . S
C1722 H1712 0.950 . S
C1722 C1723 1.386 . S
C1722 C1724 1.391 . S
C1723 C1722 1.386 . S
C1723 C1727 1.393 . S
C1724 H1713 0.950 . S
C1724 C1722 1.391 . S
C1724 C1725 1.400 . S
C1725 C1719 1.491 . S
C1725 C1724 1.400 . S
C1725 C1726 1.398 . S
C1726 H1714 0.950 . S
C1726 C1725 1.398 . S
C1726 C1727 1.391 . S
C1727 H1715 0.950 . S
C1727 C1723 1.393 . S
C1727 C1726 1.391 . S
H1728 C1736 0.950 . S
H1729 C1741 0.950 . S
H1730 C1738 0.950 . S
H1731 C1740 0.950 . S
H1732 C1742 0.950 . S
H1733 C1744 0.950 . S
H1734 C1746 0.950 . S
H1735 C1747 0.950 . S
C1736 H1728 0.950 . S
C1736 C1737 1.386 . S
C1736 C1738 1.391 . S
C1737 C1736 1.386 . S
C1737 C1741 1.393 . S
C1738 H1730 0.950 . S
C1738 C1736 1.391 . S
C1738 C1739 1.400 . S
C1739 C1738 1.400 . S
C1739 C1740 1.398 . S
C1739 C1745 1.491 . S
C1740 H1731 0.950 . S
C1740 C1739 1.398 . S
C1740 C1741 1.391 . S
C1741 H1729 0.950 . S
C1741 C1737 1.393 . S
C1741 C1740 1.391 . S
C1742 H1732 0.950 . S
C1742 C1743 1.386 . S
C1742 C1744 1.391 . S
C1743 C1742 1.386 . S
C1743 C1747 1.393 . S
C1744 H1733 0.950 . S
C1744 C1742 1.391 . S
C1744 C1745 1.400 . S
C1745 C1739 1.491 . S
C1745 C1744 1.400 . S
C1745 C1746 1.398 . S
C1746 H1734 0.950 . S
C1746 C1745 1.398 . S
C1746 C1747 1.391 . S
C1747 H1735 0.950 . S
C1747 C1743 1.393 . S
C1747 C1746 1.391 . S
H1748 C1756 0.950 . S
H1749 C1761 0.950 . S
H1750 C1758 0.950 . S
H1751 C1760 0.950 . S
H1752 C1762 0.950 . S
H1753 C1764 0.950 . S
H1754 C1766 0.950 . S
H1755 C1767 0.950 . S
C1756 H1748 0.950 . S
C1756 C1757 1.386 . S
C1756 C1758 1.391 . S
C1757 C1756 1.386 . S
C1757 C1761 1.393 . S
C1758 H1750 0.950 . S
C1758 C1756 1.391 . S
C1758 C1759 1.400 . S
C1759 C1758 1.400 . S
C1759 C1760 1.398 . S
C1759 C1765 1.491 . S
C1760 H1751 0.950 . S
C1760 C1759 1.398 . S
C1760 C1761 1.391 . S
C1761 H1749 0.950 . S
C1761 C1757 1.393 . S
C1761 C1760 1.391 . S
C1762 H1752 0.950 . S
C1762 C1763 1.386 . S
C1762 C1764 1.391 . S
C1763 C1762 1.386 . S
C1763 C1767 1.393 . S
C1764 H1753 0.950 . S
C1764 C1762 1.391 . S
C1764 C1765 1.400 . S
C1765 C1759 1.491 . S
C1765 C1764 1.400 . S
C1765 C1766 1.398 . S
C1766 H1754 0.950 . S
C1766 C1765 1.398 . S
C1766 C1767 1.391 . S
C1767 H1755 0.950 . S
C1767 C1763 1.393 . S
C1767 C1766 1.391 . S
H1768 C1776 0.950 . S
H1769 C1781 0.950 . S
H1770 C1778 0.950 . S
H1771 C1780 0.950 . S
H1772 C1782 0.950 . S
H1773 C1784 0.950 . S
H1774 C1786 0.950 . S
H1775 C1787 0.950 . S
C1776 H1768 0.950 . S
C1776 C1777 1.386 . S
C1776 C1778 1.391 . S
C1777 C1776 1.386 . S
C1777 C1781 1.393 . S
C1778 H1770 0.950 . S
C1778 C1776 1.391 . S
C1778 C1779 1.400 . S
C1779 C1778 1.400 . S
C1779 C1780 1.398 . S
C1779 C1785 1.491 . S
C1780 H1771 0.950 . S
C1780 C1779 1.398 . S
C1780 C1781 1.391 . S
C1781 H1769 0.950 . S
C1781 C1777 1.393 . S
C1781 C1780 1.391 . S
C1782 H1772 0.950 . S
C1782 C1783 1.386 . S
C1782 C1784 1.391 . S
C1783 C1782 1.386 . S
C1783 C1787 1.393 . S
C1784 H1773 0.950 . S
C1784 C1782 1.391 . S
C1784 C1785 1.400 . S
C1785 C1779 1.491 . S
C1785 C1784 1.400 . S
C1785 C1786 1.398 . S
C1786 H1774 0.950 . S
C1786 C1785 1.398 . S
C1786 C1787 1.391 . S
C1787 H1775 0.950 . S
C1787 C1783 1.393 . S
C1787 C1786 1.391 . S
H1788 C1796 0.950 . S
H1789 C1801 0.950 . S
H1790 C1798 0.950 . S
H1791 C1800 0.950 . S
H1792 C1802 0.950 . S
H1793 C1804 0.950 . S
H1794 C1806 0.950 . S
H1795 C1807 0.950 . S
C1796 H1788 0.950 . S
C1796 C1797 1.386 . S
C1796 C1798 1.391 . S
C1797 C1796 1.386 . S
C1797 C1801 1.393 . S
C1798 H1790 0.950 . S
C1798 C1796 1.391 . S
C1798 C1799 1.400 . S
C1799 C1798 1.400 . S
C1799 C1800 1.398 . S
C1799 C1805 1.491 . S
C1800 H1791 0.950 . S
C1800 C1799 1.398 . S
C1800 C1801 1.391 . S
C1801 H1789 0.950 . S
C1801 C1797 1.393 . S
C1801 C1800 1.391 . S
C1802 H1792 0.950 . S
C1802 C1803 1.386 . S
C1802 C1804 1.391 . S
C1803 C1802 1.386 . S
C1803 C1807 1.393 . S
C1804 H1793 0.950 . S
C1804 C1802 1.391 . S
C1804 C1805 1.400 . S
C1805 C1799 1.491 . S
C1805 C1804 1.400 . S
C1805 C1806 1.398 . S
C1806 H1794 0.950 . S
C1806 C1805 1.398 . S
C1806 C1807 1.391 . S
C1807 H1795 0.950 . S
C1807 C1803 1.393 . S
C1807 C1806 1.391 . S
H1808 C1816 0.950 . S
H1809 C1821 0.950 . S
H1810 C1818 0.950 . S
H1811 C1820 0.950 . S
H1812 C1822 0.950 . S
H1813 C1824 0.950 . S
H1814 C1826 0.950 . S
H1815 C1827 0.950 . S
C1816 H1808 0.950 . S
C1816 C1817 1.386 . S
C1816 C1818 1.391 . S
C1817 C1816 1.386 . S
C1817 C1821 1.393 . S
C1818 H1810 0.950 . S
C1818 C1816 1.391 . S
C1818 C1819 1.400 . S
C1819 C1818 1.400 . S
C1819 C1820 1.398 . S
C1819 C1825 1.491 . S
C1820 H1811 0.950 . S
C1820 C1819 1.398 . S
C1820 C1821 1.391 . S
C1821 H1809 0.950 . S
C1821 C1817 1.393 . S
C1821 C1820 1.391 . S
C1822 H1812 0.950 . S
C1822 C1823 1.386 . S
C1822 C1824 1.391 . S
C1823 C1822 1.386 . S
C1823 C1827 1.393 . S
C1824 H1813 0.950 . S
C1824 C1822 1.391 . S
C1824 C1825 1.400 . S
C1825 C1819 1.491 . S
C1825 C1824 1.400 . S
C1825 C1826 1.398 . S
C1826 H1814 0.950 . S
C1826 C1825 1.398 . S
C1826 C1827 1.391 . S
C1827 H1815 0.950 . S
C1827 C1823 1.393 . S
C1827 C1826 1.391 . S
H1828 C1836 0.950 . S
H1829 C1841 0.950 . S
H1830 C1838 0.950 . S
H1831 C1840 0.950 . S
H1832 C1842 0.950 . S
H1833 C1844 0.950 . S
H1834 C1846 0.950 . S
H1835 C1847 0.950 . S
C1836 H1828 0.950 . S
C1836 C1837 1.386 . S
C1836 C1838 1.391 . S
C1837 C1836 1.386 . S
C1837 C1841 1.393 . S
C1838 H1830 0.950 . S
C1838 C1836 1.391 . S
C1838 C1839 1.400 . S
C1839 C1838 1.400 . S
C1839 C1840 1.398 . S
C1839 C1845 1.491 . S
C1840 H1831 0.950 . S
C1840 C1839 1.398 . S
C1840 C1841 1.391 . S
C1841 H1829 0.950 . S
C1841 C1837 1.393 . S
C1841 C1840 1.391 . S
C1842 H1832 0.950 . S
C1842 C1843 1.386 . S
C1842 C1844 1.391 . S
C1843 C1842 1.386 . S
C1843 C1847 1.393 . S
C1844 H1833 0.950 . S
C1844 C1842 1.391 . S
C1844 C1845 1.400 . S
C1845 C1839 1.491 . S
C1845 C1844 1.400 . S
C1845 C1846 1.398 . S
C1846 H1834 0.950 . S
C1846 C1845 1.398 . S
C1846 C1847 1.391 . S
C1847 H1835 0.950 . S
C1847 C1843 1.393 . S
C1847 C1846 1.391 . S
H1848 C1856 0.950 . S
H1849 C1861 0.950 . S
H1850 C1858 0.950 . S
H1851 C1860 0.950 . S
H1852 C1862 0.950 . S
H1853 C1864 0.950 . S
H1854 C1866 0.950 . S
H1855 C1867 0.950 . S
C1856 H1848 0.950 . S
C1856 C1857 1.386 . S
C1856 C1858 1.391 . S
C1857 C1856 1.386 . S
C1857 C1861 1.393 . S
C1858 H1850 0.950 . S
C1858 C1856 1.391 . S
C1858 C1859 1.400 . S
C1859 C1858 1.400 . S
C1859 C1860 1.398 . S
C1859 C1865 1.491 . S
C1860 H1851 0.950 . S
C1860 C1859 1.398 . S
C1860 C1861 1.391 . S
C1861 H1849 0.950 . S
C1861 C1857 1.393 . S
C1861 C1860 1.391 . S
C1862 H1852 0.950 . S
C1862 C1863 1.386 . S
C1862 C1864 1.391 . S
C1863 C1862 1.386 . S
C1863 C1867 1.393 . S
C1864 H1853 0.950 . S
C1864 C1862 1.391 . S
C1864 C1865 1.400 . S
C1865 C1859 1.491 . S
C1865 C1864 1.400 . S
C1865 C1866 1.398 . S
C1866 H1854 0.950 . S
C1866 C1865 1.398 . S
C1866 C1867 1.391 . S
C1867 H1855 0.950 . S
C1867 C1863 1.393 . S
C1867 C1866 1.391 . S
H1868 C1876 0.950 . S
H1869 C1881 0.950 . S
H1870 C1878 0.950 . S
H1871 C1880 0.950 . S
H1872 C1882 0.950 . S
H1873 C1884 0.950 . S
H1874 C1886 0.950 . S
H1875 C1887 0.950 . S
C1876 H1868 0.950 . S
C1876 C1877 1.386 . S
C1876 C1878 1.391 . S
C1877 C1876 1.386 . S
C1877 C1881 1.393 . S
C1878 H1870 0.950 . S
C1878 C1876 1.391 . S
C1878 C1879 1.400 . S
C1879 C1878 1.400 . S
C1879 C1880 1.398 . S
C1879 C1885 1.491 . S
C1880 H1871 0.950 . S
C1880 C1879 1.398 . S
C1880 C1881 1.391 . S
C1881 H1869 0.950 . S
C1881 C1877 1.393 . S
C1881 C1880 1.391 . S
C1882 H1872 0.950 . S
C1882 C1883 1.386 . S
C1882 C1884 1.391 . S
C1883 C1882 1.386 . S
C1883 C1887 1.393 . S
C1884 H1873 0.950 . S
C1884 C1882 1.391 . S
C1884 C1885 1.400 . S
C1885 C1879 1.491 . S
C1885 C1884 1.400 . S
C1885 C1886 1.398 . S
C1886 H1874 0.950 . S
C1886 C1885 1.398 . S
C1886 C1887 1.391 . S
C1887 H1875 0.950 . S
C1887 C1883 1.393 . S
C1887 C1886 1.391 . S
H1888 C1896 0.950 . S
H1889 C1901 0.950 . S
H1890 C1898 0.950 . S
H1891 C1900 0.950 . S
H1892 C1902 0.950 . S
H1893 C1904 0.950 . S
H1894 C1906 0.950 . S
H1895 C1907 0.950 . S
C1896 H1888 0.950 . S
C1896 C1897 1.386 . S
C1896 C1898 1.391 . S
C1897 C1896 1.386 . S
C1897 C1901 1.393 . S
C1898 H1890 0.950 . S
C1898 C1896 1.391 . S
C1898 C1899 1.400 . S
C1899 C1898 1.400 . S
C1899 C1900 1.398 . S
C1899 C1905 1.491 1_545 S
C1900 H1891 0.950 . S
C1900 C1899 1.398 . S
C1900 C1901 1.391 . S
C1901 H1889 0.950 . S
C1901 C1897 1.393 . S
C1901 C1900 1.391 . S
C1902 H1892 0.950 . S
C1902 C1903 1.386 . S
C1902 C1904 1.391 . S
C1903 C1902 1.386 . S
C1903 C1907 1.393 . S
C1904 H1893 0.950 . S
C1904 C1902 1.391 . S
C1904 C1905 1.400 . S
C1905 C1899 1.491 1_565 S
C1905 C1904 1.400 . S
C1905 C1906 1.398 . S
C1906 H1894 0.950 . S
C1906 C1905 1.398 . S
C1906 C1907 1.391 . S
C1907 H1895 0.950 . S
C1907 C1903 1.393 . S
C1907 C1906 1.391 . S
H1908 C1916 0.950 . S
H1909 C1921 0.950 . S
H1910 C1918 0.950 . S
H1911 C1920 0.950 . S
H1912 C1922 0.950 . S
H1913 C1924 0.950 . S
H1914 C1926 0.950 . S
H1915 C1927 0.950 . S
C1916 H1908 0.950 . S
C1916 C1917 1.386 . S
C1916 C1918 1.391 . S
C1917 C1916 1.386 . S
C1917 C1921 1.393 . S
C1918 H1910 0.950 . S
C1918 C1916 1.391 . S
C1918 C1919 1.400 . S
C1919 C1918 1.400 . S
C1919 C1920 1.398 . S
C1919 C1925 1.491 1_655 S
C1920 H1911 0.950 . S
C1920 C1919 1.398 . S
C1920 C1921 1.391 . S
C1921 H1909 0.950 . S
C1921 C1917 1.393 . S
C1921 C1920 1.391 . S
C1922 H1912 0.950 . S
C1922 C1923 1.386 . S
C1922 C1924 1.391 . S
C1923 C1922 1.386 . S
C1923 C1927 1.393 . S
C1924 H1913 0.950 . S
C1924 C1922 1.391 . S
C1924 C1925 1.400 . S
C1925 C1919 1.491 1_455 S
C1925 C1924 1.400 . S
C1925 C1926 1.398 . S
C1926 H1914 0.950 . S
C1926 C1925 1.398 . S
C1926 C1927 1.391 . S
C1927 H1915 0.950 . S
C1927 C1923 1.393 . S
C1927 C1926 1.391 . S
H1928 C1936 0.950 . S
H1929 C1941 0.950 . S
H1930 C1938 0.950 . S
H1931 C1940 0.950 . S
H1932 C1942 0.950 . S
H1933 C1944 0.950 . S
H1934 C1946 0.950 . S
H1935 C1947 0.950 . S
C1936 H1928 0.950 . S
C1936 C1937 1.386 . S
C1936 C1938 1.391 . S
C1937 C1936 1.386 . S
C1937 C1941 1.393 . S
C1938 H1930 0.950 . S
C1938 C1936 1.391 . S
C1938 C1939 1.400 . S
C1939 C1938 1.400 . S
C1939 C1940 1.398 . S
C1939 C1945 1.491 1_545 S
C1940 H1931 0.950 . S
C1940 C1939 1.398 . S
C1940 C1941 1.391 . S
C1941 H1929 0.950 . S
C1941 C1937 1.393 . S
C1941 C1940 1.391 . S
C1942 H1932 0.950 . S
C1942 C1943 1.386 . S
C1942 C1944 1.391 . S
C1943 C1942 1.386 . S
C1943 C1947 1.393 . S
C1944 H1933 0.950 . S
C1944 C1942 1.391 . S
C1944 C1945 1.400 . S
C1945 C1939 1.491 1_565 S
C1945 C1944 1.400 . S
C1945 C1946 1.398 . S
C1946 H1934 0.950 . S
C1946 C1945 1.398 . S
C1946 C1947 1.391 . S
C1947 H1935 0.950 . S
C1947 C1943 1.393 . S
C1947 C1946 1.391 . S
H1948 C1956 0.950 . S
H1949 C1961 0.950 . S
H1950 C1958 0.950 . S
H1951 C1960 0.950 . S
H1952 C1962 0.950 . S
H1953 C1964 0.950 . S
H1954 C1966 0.950 . S
H1955 C1967 0.950 . S
C1956 H1948 0.950 . S
C1956 C1957 1.386 . S
C1956 C1958 1.391 . S
C1957 C1956 1.386 . S
C1957 C1961 1.393 . S
C1958 H1950 0.950 . S
C1958 C1956 1.391 . S
C1958 C1959 1.400 . S
C1959 C1958 1.400 . S
C1959 C1960 1.398 . S
C1959 C1965 1.491 1_455 S
C1960 H1951 0.950 . S
C1960 C1959 1.398 . S
C1960 C1961 1.391 . S
C1961 H1949 0.950 . S
C1961 C1957 1.393 . S
C1961 C1960 1.391 . S
C1962 H1952 0.950 . S
C1962 C1963 1.386 . S
C1962 C1964 1.391 . S
C1963 C1962 1.386 . S
C1963 C1967 1.393 . S
C1964 H1953 0.950 . S
C1964 C1962 1.391 . S
C1964 C1965 1.400 . S
C1965 C1959 1.491 1_655 S
C1965 C1964 1.400 . S
C1965 C1966 1.398 . S
C1966 H1954 0.950 . S
C1966 C1965 1.398 . S
C1966 C1967 1.391 . S
C1967 H1955 0.950 . S
C1967 C1963 1.393 . S
C1967 C1966 1.391 . S
H1968 C1976 0.950 . S
H1969 C1981 0.950 . S
H1970 C1978 0.950 . S
H1971 C1980 0.950 . S
H1972 C1982 0.950 . S
H1973 C1984 0.950 . S
H1974 C1986 0.950 . S
H1975 C1987 0.950 . S
C1976 H1968 0.950 . S
C1976 C1977 1.386 . S
C1976 C1978 1.391 . S
C1977 C1976 1.386 . S
C1977 C1981 1.393 . S
C1978 H1970 0.950 . S
C1978 C1976 1.391 . S
C1978 C1979 1.400 . S
C1979 C1978 1.400 . S
C1979 C1980 1.398 . S
C1979 C1985 1.491 1_545 S
C1980 H1971 0.950 . S
C1980 C1979 1.398 . S
C1980 C1981 1.391 . S
C1981 H1969 0.950 . S
C1981 C1977 1.393 . S
C1981 C1980 1.391 . S
C1982 H1972 0.950 . S
C1982 C1983 1.386 . S
C1982 C1984 1.391 . S
C1983 C1982 1.386 . S
C1983 C1987 1.393 . S
C1984 H1973 0.950 . S
C1984 C1982 1.391 . S
C1984 C1985 1.400 . S
C1985 C1979 1.491 1_565 S
C1985 C1984 1.400 . S
C1985 C1986 1.398 . S
C1986 H1974 0.950 . S
C1986 C1985 1.398 . S
C1986 C1987 1.391 . S
C1987 H1975 0.950 . S
C1987 C1983 1.393 . S
C1987 C1986 1.391 . S
H1988 C1996 0.950 . S
H1989 C2001 0.950 . S
H1990 C1998 0.950 . S
H1991 C2000 0.950 . S
H1992 C2002 0.950 . S
H1993 C2004 0.950 . S
H1994 C2006 0.950 . S
H1995 C2007 0.950 . S
C1996 H1988 0.950 . S
C1996 C1997 1.386 . S
C1996 C1998 1.391 . S
C1997 C1996 1.386 . S
C1997 C2001 1.393 . S
C1998 H1990 0.950 . S
C1998 C1996 1.391 . S
C1998 C1999 1.400 . S
C1999 C1998 1.400 . S
C1999 C2000 1.398 . S
C1999 C2005 1.491 1_655 S
C2000 H1991 0.950 . S
C2000 C1999 1.398 . S
C2000 C2001 1.391 . S
C2001 H1989 0.950 . S
C2001 C1997 1.393 . S
C2001 C2000 1.391 . S
C2002 H1992 0.950 . S
C2002 C2003 1.386 . S
C2002 C2004 1.391 . S
C2003 C2002 1.386 . S
C2003 C2007 1.393 . S
C2004 H1993 0.950 . S
C2004 C2002 1.391 . S
C2004 C2005 1.400 . S
C2005 C1999 1.491 1_455 S
C2005 C2004 1.400 . S
C2005 C2006 1.398 . S
C2006 H1994 0.950 . S
C2006 C2005 1.398 . S
C2006 C2007 1.391 . S
C2007 H1995 0.950 . S
C2007 C2003 1.393 . S
C2007 C2006 1.391 . S
H2008 C2016 0.950 . S
H2009 C2021 0.950 . S
H2010 C2018 0.950 . S
H2011 C2020 0.950 . S
H2012 C2022 0.950 . S
H2013 C2024 0.950 . S
H2014 C2026 0.950 . S
H2015 C2027 0.950 . S
C2016 H2008 0.950 . S
C2016 C2017 1.386 . S
C2016 C2018 1.391 . S
C2017 C2016 1.386 . S
C2017 C2021 1.393 . S
C2018 H2010 0.950 . S
C2018 C2016 1.391 . S
C2018 C2019 1.400 . S
C2019 C2018 1.400 . S
C2019 C2020 1.398 . S
C2019 C2025 1.491 1_565 S
C2020 H2011 0.950 . S
C2020 C2019 1.398 . S
C2020 C2021 1.391 . S
C2021 H2009 0.950 . S
C2021 C2017 1.393 . S
C2021 C2020 1.391 . S
C2022 H2012 0.950 . S
C2022 C2023 1.386 . S
C2022 C2024 1.391 . S
C2023 C2022 1.386 . S
C2023 C2027 1.393 . S
C2024 H2013 0.950 . S
C2024 C2022 1.391 . S
C2024 C2025 1.400 . S
C2025 C2019 1.491 1_545 S
C2025 C2024 1.400 . S
C2025 C2026 1.398 . S
C2026 H2014 0.950 . S
C2026 C2025 1.398 . S
C2026 C2027 1.391 . S
C2027 H2015 0.950 . S
C2027 C2023 1.393 . S
C2027 C2026 1.391 . S
H2028 C2036 0.950 . S
H2029 C2041 0.950 . S
H2030 C2038 0.950 . S
H2031 C2040 0.950 . S
H2032 C2042 0.950 . S
H2033 C2044 0.950 . S
H2034 C2046 0.950 . S
H2035 C2047 0.950 . S
C2036 H2028 0.950 . S
C2036 C2037 1.386 . S
C2036 C2038 1.391 . S
C2037 C2036 1.386 . S
C2037 C2041 1.393 . S
C2038 H2030 0.950 . S
C2038 C2036 1.391 . S
C2038 C2039 1.400 . S
C2039 C2038 1.400 . S
C2039 C2040 1.398 . S
C2039 C2045 1.491 1_455 S
C2040 H2031 0.950 . S
C2040 C2039 1.398 . S
C2040 C2041 1.391 . S
C2041 H2029 0.950 . S
C2041 C2037 1.393 . S
C2041 C2040 1.391 . S
C2042 H2032 0.950 . S
C2042 C2043 1.386 . S
C2042 C2044 1.391 . S
C2043 C2042 1.386 . S
C2043 C2047 1.393 . S
C2044 H2033 0.950 . S
C2044 C2042 1.391 . S
C2044 C2045 1.400 . S
C2045 C2039 1.491 1_655 S
C2045 C2044 1.400 . S
C2045 C2046 1.398 . S
C2046 H2034 0.950 . S
C2046 C2045 1.398 . S
C2046 C2047 1.391 . S
C2047 H2035 0.950 . S
C2047 C2043 1.393 . S
C2047 C2046 1.391 . S
C1417 C489 0.947 . S
C1423 C20 0.949 . S
C1437 C577 0.949 . S
C1443 C117 0.950 . S
C1457 C196 0.949 . S
C1463 C665 0.950 . S
C1477 C293 0.949 . S
C1483 C401 0.950 . S
C1497 C1173 0.947 . S
C1503 C753 0.949 . S
C1517 C1261 0.948 . S
C1523 C841 0.950 . S
C1537 C929 0.948 . S
C1543 C1349 0.950 . S
C1557 C1017 0.950 . S
C1563 C1085 0.950 . S
C1577 C909 1.504 . S
C1583 C57 1.504 . S
C1597 C997 1.507 . S
C1603 C137 1.503 . S
C1617 C733 1.503 . S
C1623 C233 1.507 . S
C1637 C313 1.507 . S
C1643 C821 1.503 . S
C1657 C1281 1.504 . S
C1663 C381 1.504 . S
C1677 C1369 1.506 . S
C1683 C469 1.505 . S
C1697 C557 1.503 . S
C1703 C1105 1.507 . S
C1717 C1193 1.506 . S
C1723 C645 1.505 . S
C1737 C409 1.416 . S
C1743 C29 1.408 . S
C1757 C108 1.417 . S
C1763 C497 1.407 . S
C1777 C205 1.414 . S
C1783 C585 1.411 . S
C1797 C673 1.417 . S
C1803 C284 1.407 . S
C1817 C724 1.442 . S
C1823 C1113 1.450 . S
C1837 C1201 1.450 . S
C1843 C812 1.442 . S
C1857 C900 1.446 . S
C1863 C1289 1.444 . S
C1877 C1377 1.442 . S
C1883 C988 1.452 . S
C1897 C1025 1.417 . S
C1903 C1164 1.406 . S
C1917 C761 1.413 . S
C1923 C1252 1.412 . S
C1937 C1340 1.416 . S
C1943 C849 1.409 . S
C1957 C937 1.410 . S
C1963 C1076 1.413 . S
C1977 C460 1.452 . S
C1983 C321 1.445 . S
C1997 C548 1.448 . S
C2003 C49 1.450 . S
C2017 C636 1.445 . S
C2023 C145 1.452 . S
C2037 C372 1.442 . S
C2043 C225 1.450 . S
