# Generated by pormake.
# Topology wjf, (4)-cn, num edge types: 1
# Building blocks:
#     Node 0, Type 0, BuildingBlock: QUQFOY_clean_sbu_1, # of connection points: 4
#     Node 1, Type 0, BuildingBlock: QUQFOY_clean_sbu_1, # of connection points: 4
#     Node 2, Type 0, BuildingBlock: QUQFOY_clean_sbu_1, # of connection points: 4
#     Node 3, Type 0, BuildingBlock: QUQFOY_clean_sbu_1, # of connection points: 4
#     Node 4, Type 0, BuildingBlock: QUQFOY_clean_sbu_1, # of connection points: 4
#     Node 5, Type 0, BuildingBlock: QUQFOY_clean_sbu_1, # of connection points: 4
#     Node 6, Type 0, BuildingBlock: QUQFOY_clean_sbu_1, # of connection points: 4
#     Node 7, Type 0, BuildingBlock: QUQFOY_clean_sbu_1, # of connection points: 4
#     Node 8, Type 0, BuildingBlock: QUQFOY_clean_sbu_1, # of connection points: 4
#     Node 9, Type 0, BuildingBlock: QUQFOY_clean_sbu_1, # of connection points: 4
#     Node 10, Type 0, BuildingBlock: QUQFOY_clean_sbu_1, # of connection points: 4
#     Node 11, Type 0, BuildingBlock: QUQFOY_clean_sbu_1, # of connection points: 4
#     Edge 12, Type (0, 0), BuildingBlock: EYOCIG_clean_linker_4, # of connection points: 2
#     Edge 13, Type (0, 0), BuildingBlock: EYOCIG_clean_linker_4, # of connection points: 2
#     Edge 14, Type (0, 0), BuildingBlock: EYOCIG_clean_linker_4, # of connection points: 2
#     Edge 15, Type (0, 0), BuildingBlock: EYOCIG_clean_linker_4, # of connection points: 2
#     Edge 16, Type (0, 0), BuildingBlock: EYOCIG_clean_linker_4, # of connection points: 2
#     Edge 17, Type (0, 0), BuildingBlock: EYOCIG_clean_linker_4, # of connection points: 2
#     Edge 18, Type (0, 0), BuildingBlock: EYOCIG_clean_linker_4, # of connection points: 2
#     Edge 19, Type (0, 0), BuildingBlock: EYOCIG_clean_linker_4, # of connection points: 2
#     Edge 20, Type (0, 0), BuildingBlock: EYOCIG_clean_linker_4, # of connection points: 2
#     Edge 21, Type (0, 0), BuildingBlock: EYOCIG_clean_linker_4, # of connection points: 2
#     Edge 22, Type (0, 0), BuildingBlock: EYOCIG_clean_linker_4, # of connection points: 2
#     Edge 23, Type (0, 0), BuildingBlock: EYOCIG_clean_linker_4, # of connection points: 2
#     Edge 24, Type (0, 0), BuildingBlock: EYOCIG_clean_linker_4, # of connection points: 2
#     Edge 25, Type (0, 0), BuildingBlock: EYOCIG_clean_linker_4, # of connection points: 2
#     Edge 26, Type (0, 0), BuildingBlock: EYOCIG_clean_linker_4, # of connection points: 2
#     Edge 27, Type (0, 0), BuildingBlock: EYOCIG_clean_linker_4, # of connection points: 2
#     Edge 28, Type (0, 0), BuildingBlock: EYOCIG_clean_linker_4, # of connection points: 2
#     Edge 29, Type (0, 0), BuildingBlock: EYOCIG_clean_linker_4, # of connection points: 2
#     Edge 30, Type (0, 0), BuildingBlock: EYOCIG_clean_linker_4, # of connection points: 2
#     Edge 31, Type (0, 0), BuildingBlock: EYOCIG_clean_linker_4, # of connection points: 2
#     Edge 32, Type (0, 0), BuildingBlock: EYOCIG_clean_linker_4, # of connection points: 2
#     Edge 33, Type (0, 0), BuildingBlock: EYOCIG_clean_linker_4, # of connection points: 2
#     Edge 34, Type (0, 0), BuildingBlock: EYOCIG_clean_linker_4, # of connection points: 2
#     Edge 35, Type (0, 0), BuildingBlock: EYOCIG_clean_linker_4, # of connection points: 2
# Relax obj value: 0.016
# Max RMSD: 0.064
# Mean RMSD: 0.064
data_MOF--net-wjf--node1-QUQFOY_clean_sbu_1--edge1-EYOCIG_clean_linker_4
_symmetry_space_group_name_H-M    P1
_symmetry_Int_Tables_number       1
_symmetry_cell_setting            triclinic
loop_
_symmetry_equiv_pos_as_xyz
'x, y, z'
_cell_length_a     43.27583
_cell_length_b     43.237715
_cell_length_c     23.085351
_cell_angle_alpha  90.027609
_cell_angle_beta   90.015796
_cell_angle_gamma 120.04393
loop_
_atom_site_label
_atom_site_type_symbol
_atom_site_fract_x
_atom_site_fract_y
_atom_site_fract_z
_atom_type_partial_charge
O0 O 0.35196 0.3963 0.98364 0.0
Cd1 Cd 0.34447 0.42112 0.0516 0.0
Cd2 Cd 0.36578 0.37936 0.10341 0.0
O3 O 0.34591 0.34866 0.02958 0.0
O4 O 0.31491 0.4404 0.01671 0.0
O5 O 0.29353 0.39702 0.08177 0.0
C6 C 0.28798 0.41642 0.04534 0.0
C7 C 0.35759 0.3648 0.20101 0.0
C8 C 0.34831 0.36542 0.98295 0.0
C9 C 0.41929 0.45525 0.08328 0.0
O10 O 0.41319 0.42353 0.0873 0.0
O11 O 0.39388 0.46211 0.07989 0.0
O12 O 0.37534 0.35481 0.16864 0.0
O13 O 0.34186 0.38026 0.17706 0.0
O14 O 0.96004 0.35082 0.31701 0.0
Cd15 Cd 0.92788 0.34275 0.38541 0.0
Cd16 Cd 0.99106 0.36426 0.43638 0.0
O17 O 1.00155 0.34439 0.36225 0.0
O18 O 0.87898 0.31315 0.35056 0.0
O19 O 0.90127 0.29149 0.41455 0.0
C20 C 0.87623 0.28605 0.3784 0.0
C21 C 0.99733 0.35595 0.5339 0.0
C22 C 0.98712 0.347 0.31585 0.0
C23 C 0.96837 0.41751 0.41791 0.0
O24 O 0.99415 0.41163 0.42075 0.0
O25 O 0.93613 0.3919 0.41498 0.0
O26 O 0.02513 0.37374 0.50163 0.0
O27 O 0.96615 0.34017 0.50985 0.0
O28 O 0.61512 0.95882 0.65011 0.0
Cd29 Cd 0.59064 0.9264 0.71811 0.0
Cd30 Cd 0.6316 0.98947 0.76988 0.0
O31 O 0.66259 1.00043 0.69642 0.0
O32 O 0.57199 0.87752 0.68342 0.0
O33 O 0.61552 0.90026 0.74822 0.0
C34 C 0.59631 0.8751 0.71191 0.0
C35 C 0.64558 0.996 0.86772 0.0
C36 C 0.64595 0.9861 0.64963 0.0
C37 C 0.55581 0.9665 0.74954 0.0
O38 O 0.5874 0.9924 0.7531 0.0
O39 O 0.54932 0.93429 0.74656 0.0
O40 O 0.65567 0.02373 0.8352 0.0
O41 O 0.6304 0.96475 0.84383 0.0
O42 O 0.66138 0.61271 0.98305 0.0
Cd43 Cd 0.66871 0.58824 0.05165 0.0
Cd44 Cd 0.64771 0.63044 0.10251 0.0
O45 O 0.66835 0.66085 0.02851 0.0
O46 O 0.69812 0.56859 0.01741 0.0
O47 O 0.71975 0.61251 0.0816 0.0
C48 C 0.72516 0.59282 0.04556 0.0
C49 C 0.65572 0.64503 0.20018 0.0
C50 C 0.66578 0.64387 0.98201 0.0
C51 C 0.59391 0.55464 0.08308 0.0
O52 O 0.60016 0.58645 0.08623 0.0
O53 O 0.61923 0.54762 0.0804 0.0
O54 O 0.63835 0.65535 0.16751 0.0
O55 O 0.67122 0.62925 0.1765 0.0
O56 O 0.05272 0.65985 0.31607 0.0
Cd57 Cd 0.08469 0.6672 0.38449 0.0
Cd58 Cd 0.02181 0.64637 0.43603 0.0
O59 O 0.01213 0.66732 0.36225 0.0
O60 O 0.13376 0.69714 0.35056 0.0
O61 O 0.11102 0.7182 0.41487 0.0
C62 C 0.13625 0.724 0.37888 0.0
C63 C 0.01488 0.65395 0.53379 0.0
C64 C 0.0262 0.66461 0.31548 0.0
C65 C 0.04342 0.59238 0.41653 0.0
O66 O 0.01793 0.59869 0.4196 0.0
O67 O 0.0758 0.6177 0.41355 0.0
O68 O 0.98732 0.63678 0.50075 0.0
O69 O 0.04625 0.66951 0.51048 0.0
O70 O 0.39758 0.05096 0.64956 0.0
Cd71 Cd 0.42267 0.08293 0.71788 0.0
Cd72 Cd 0.38075 0.01988 0.76942 0.0
O73 O 0.3498 0.01004 0.696 0.0
O74 O 0.44182 0.13206 0.68406 0.0
O75 O 0.39845 0.10944 0.74908 0.0
C76 C 0.41773 0.13466 0.71296 0.0
C77 C 0.36644 0.01263 0.86727 0.0
C78 C 0.36636 0.02426 0.64914 0.0
C79 C 0.45631 0.04163 0.74887 0.0
O80 O 0.42451 0.01612 0.75237 0.0
O81 O 0.46341 0.07403 0.74599 0.0
O82 O 0.35606 0.98516 0.83399 0.0
O83 O 0.38216 0.0441 0.84419 0.0
O84 O 0.61575 0.65962 0.70801 0.0
Cd85 Cd 0.59084 0.66708 0.64019 0.0
Cd86 Cd 0.63245 0.64588 0.58774 0.0
O87 O 0.66334 0.66619 0.66138 0.0
O88 O 0.57207 0.69716 0.67483 0.0
O89 O 0.61538 0.71802 0.60972 0.0
C90 C 0.59624 0.72393 0.64614 0.0
C91 C 0.64709 0.65353 0.49004 0.0
C92 C 0.64677 0.6637 0.70827 0.0
C93 C 0.55669 0.59219 0.60832 0.0
O94 O 0.58841 0.59838 0.60415 0.0
O95 O 0.5498 0.6176 0.61193 0.0
O96 O 0.65706 0.63598 0.52294 0.0
O97 O 0.63157 0.66935 0.51345 0.0
O98 O 0.96048 0.61369 0.04154 0.0
Cd99 Cd 0.92835 0.58855 0.97342 0.0
Cd100 Cd 0.99115 0.63092 0.92149 0.0
O101 O 1.00102 0.66173 0.99513 0.0
O102 O 0.87935 0.56889 1.0079 0.0
O103 O 0.90132 0.61243 0.94311 0.0
C104 C 0.87634 0.59288 0.97939 0.0
C105 C 0.99757 0.64521 0.82368 0.0
C106 C 0.98702 0.64502 0.04197 0.0
C107 C 0.9699 0.55538 0.94126 0.0
O108 O 0.99528 0.58727 0.93792 0.0
O109 O 0.93749 0.5481 0.94447 0.0
O110 O 0.0253 0.6558 0.85636 0.0
O111 O 0.96631 0.6293 0.84739 0.0
O112 O 0.35196 0.95858 0.37486 0.0
Cd113 Cd 0.34419 0.92654 0.30624 0.0
Cd114 Cd 0.36501 0.98924 0.25511 0.0
O115 O 0.34403 0.99893 0.32884 0.0
O116 O 0.31424 0.87742 0.34013 0.0
O117 O 0.29307 0.90043 0.27654 0.0
C118 C 0.28732 0.8751 0.31231 0.0
C119 C 0.3573 0.99537 0.15719 0.0
C120 C 0.347 0.98499 0.37557 0.0
C121 C 0.41884 0.96763 0.27341 0.0
O122 O 0.41268 0.99326 0.27144 0.0
O123 O 0.39341 0.93526 0.27599 0.0
O124 O 0.37431 0.02323 0.18974 0.0
O125 O 0.34188 0.96414 0.1811 0.0
O126 O 0.39896 0.35062 0.7077 0.0
Cd127 Cd 0.42298 0.34254 0.6393 0.0
Cd128 Cd 0.38116 0.36416 0.58823 0.0
O129 O 0.35096 0.34412 0.66249 0.0
O130 O 0.44218 0.31288 0.67416 0.0
O131 O 0.39815 0.29121 0.61028 0.0
C132 C 0.41772 0.28575 0.64647 0.0
C133 C 0.36605 0.35627 0.49079 0.0
C134 C 0.36803 0.34671 0.70887 0.0
C135 C 0.45724 0.41738 0.60732 0.0
O136 O 0.42557 0.41145 0.60408 0.0
O137 O 0.46393 0.39181 0.61025 0.0
O138 O 0.35634 0.37403 0.52375 0.0
O139 O 0.38149 0.34033 0.51409 0.0
O140 O 0.05285 0.3969 0.04059 0.0
Cd141 Cd 0.08514 0.42121 0.97238 0.0
Cd142 Cd 0.02157 0.37951 0.92112 0.0
O143 O 0.01098 0.34912 0.99519 0.0
O144 O 0.13399 0.44054 1.00742 0.0
O145 O 0.11185 0.39679 0.94294 0.0
C146 C 0.13684 0.41635 0.97926 0.0
C147 C 0.01412 0.36442 0.8237 0.0
C148 C 0.02556 0.36607 0.04163 0.0
C149 C 0.04492 0.45573 0.94011 0.0
O150 O 0.01903 0.42408 0.93697 0.0
O151 O 0.0771 0.46227 0.94318 0.0
O152 O 0.98672 0.35489 0.85671 0.0
O153 O 0.04553 0.37965 0.84693 0.0
O154 O 0.66039 0.05171 0.37394 0.0
Cd155 Cd 0.66832 0.08339 0.30484 0.0
Cd156 Cd 0.64688 0.01992 0.25517 0.0
O157 O 0.66745 0.01036 0.32937 0.0
O158 O 0.69806 0.13261 0.33862 0.0
O159 O 0.71949 0.10962 0.27545 0.0
C160 C 0.72506 0.13501 0.31101 0.0
C161 C 0.65439 0.01293 0.1576 0.0
C162 C 0.66473 0.02492 0.37556 0.0
C163 C 0.59361 0.04247 0.27243 0.0
O164 O 0.59952 0.01666 0.27102 0.0
O165 O 0.61919 0.07478 0.27446 0.0
O166 O 0.6371 0.98534 0.19053 0.0
O167 O 0.67023 0.04434 0.18101 0.0
C168 C 0.35804 0.35873 0.31532 0.0
C169 C 0.35786 0.36148 0.26317 0.0
C170 C 0.35967 0.35707 0.37657 0.0
C171 C 0.36251 0.3568 0.4287 0.0
C172 C 1.00364 0.35647 0.64825 0.0
C173 C 1.00084 0.35628 0.59608 0.0
C174 C 0.00685 0.3581 0.7095 0.0
C175 C 0.00997 0.3609 0.76163 0.0
C176 C 0.6511 1.00256 0.98207 0.0
C177 C 0.64863 0.99967 0.92989 0.0
C178 C 0.65284 0.00584 0.04332 0.0
C179 C 0.65347 0.00894 0.09547 0.0
C180 C 0.65501 0.65106 0.31451 0.0
C181 C 0.65528 0.64836 0.26234 0.0
C182 C 0.65334 0.65269 0.37578 0.0
C183 C 0.65056 0.65298 0.42792 0.0
C184 C 1.00432 0.65112 0.70934 0.0
C185 C 1.00131 0.64845 0.7615 0.0
C186 C 0.0077 0.65283 0.64807 0.0
C187 C 0.01084 0.65327 0.59593 0.0
C188 C 0.35857 1.00183 0.04277 0.0
C189 C 0.35802 0.99894 0.09497 0.0
C190 C 0.36037 0.00519 0.9815 0.0
C191 C 0.36306 0.0084 0.92937 0.0
C192 C 0.19233 0.40798 1.00398 0.0
C193 C 0.16648 0.41049 0.99081 0.0
C194 C 0.22405 0.40801 0.02108 0.0
C195 C 0.25244 0.41054 0.03408 0.0
C196 C 0.82081 0.22209 0.35319 0.0
C197 C 0.84663 0.25047 0.3666 0.0
C198 C 0.78911 0.19039 0.33578 0.0
C199 C 0.76069 0.16455 0.32256 0.0
C200 C 0.60541 0.81996 0.68758 0.0
C201 C 0.60267 0.8457 0.70072 0.0
C202 C 0.60536 0.78821 0.6704 0.0
C203 C 0.60257 0.75969 0.65732 0.0
C204 C 0.78903 0.60115 0.02097 0.0
C205 C 0.76069 0.59868 0.0341 0.0
C206 C 0.82072 0.60113 1.00379 0.0
C207 C 0.84662 0.59867 0.99075 0.0
C208 C 0.19146 0.78824 0.35448 0.0
C209 C 0.16569 0.75975 0.36762 0.0
C210 C 0.22315 0.81995 0.33712 0.0
C211 C 0.2516 0.8457 0.32382 0.0
C212 C 0.40892 0.19004 0.68927 0.0
C213 C 0.41155 0.1642 0.70213 0.0
C214 C 0.40891 0.22174 0.67195 0.0
C215 C 0.41158 0.25014 0.65841 0.0
C216 C 0.34899 0.34541 0.81576 0.0
C217 C 0.35353 0.34547 0.76455 0.0
C218 C 0.3478 0.3463 0.87635 0.0
C219 C 0.34751 0.3508 0.92753 0.0
C220 C 1.00518 0.34613 0.209 0.0
C221 C 1.00056 0.346 0.26021 0.0
C222 C 0.0073 0.34717 0.14842 0.0
C223 C 0.01198 0.35164 0.09723 0.0
C224 C 0.66531 0.00508 0.5432 0.0
C225 C 0.66066 1.00009 0.59432 0.0
C226 C 0.66631 0.00743 0.48262 0.0
C227 C 0.66617 0.01194 0.43142 0.0
C228 C 0.66668 0.6648 0.81461 0.0
C229 C 0.66181 0.66488 0.7635 0.0
C230 C 0.66774 0.6635 0.87521 0.0
C231 C 0.66745 0.65867 0.92639 0.0
C232 C 0.00802 0.66674 0.20899 0.0
C233 C 0.01285 0.66642 0.26009 0.0
C234 C 1.0054 0.66545 0.14839 0.0
C235 C 1.0005 0.66028 0.09729 0.0
C236 C 0.34474 1.0031 0.48212 0.0
C237 C 0.34509 0.99825 0.43102 0.0
C238 C 0.34598 0.00578 0.54272 0.0
C239 C 0.35114 0.0107 0.59382 0.0
C240 C 0.48795 0.4978 0.07652 0.0
C241 C 0.4559 0.48239 0.07903 0.0
C242 C 0.5252 0.51218 0.07656 0.0
C243 C 0.55725 0.52756 0.07909 0.0
C244 C 0.01697 0.52351 0.41167 0.0
C245 C 0.03371 0.55563 0.41343 0.0
C246 C 0.99414 0.4862 0.41208 0.0
C247 C 0.9776 0.4541 0.41435 0.0
C248 C 0.51291 0.99217 0.74316 0.0
C249 C 0.5284 0.9756 0.74556 0.0
C250 C 0.49856 0.0151 0.74299 0.0
C251 C 0.48329 0.0319 0.74516 0.0
C252 C 0.51429 0.52339 0.61438 0.0
C253 C 0.52962 0.55549 0.61223 0.0
C254 C 0.49996 0.48609 0.61401 0.0
C255 C 0.48452 0.45399 0.61141 0.0
C256 C 0.99655 0.5132 0.94641 0.0
C257 C 0.97977 0.52849 0.94455 0.0
C258 C 0.01937 0.49876 0.94609 0.0
C259 C 0.03585 0.48317 0.9438 0.0
C260 C 0.52492 0.01664 0.27647 0.0
C261 C 0.55701 0.03322 0.27481 0.0
C262 C 0.48762 0.99381 0.27678 0.0
C263 C 0.45552 0.97714 0.27554 0.0
loop_
_geom_bond_atom_site_label_1
_geom_bond_atom_site_label_2
_geom_bond_distance
_geom_bond_site_symmetry_2
_ccdc_geom_bond_type
O0 Cd1 2.223 1_556 S
O0 C8 1.315 . S
Cd1 O0 2.223 1_554 S
Cd1 O4 2.297 1_554 S
Cd1 O5 2.439 . S
Cd1 O11 2.240 . S
Cd2 O3 2.240 . S
Cd2 O10 2.223 . S
Cd2 O12 2.297 . S
Cd2 O13 2.439 . S
O3 Cd2 2.240 . S
O3 C8 1.279 1_554 S
O4 Cd1 2.297 1_556 S
O4 C6 1.247 1_556 S
O5 Cd1 2.439 . S
O5 C6 1.208 . S
C6 O4 1.247 1_554 S
C6 O5 1.208 . S
C7 O12 1.247 . S
C7 O13 1.208 . S
C8 O0 1.315 . S
C8 O3 1.279 1_556 S
C9 O10 1.315 . S
C9 O11 1.279 . S
O10 Cd2 2.223 . S
O10 C9 1.315 . S
O11 Cd1 2.240 . S
O11 C9 1.279 . S
O12 Cd2 2.297 . S
O12 C7 1.247 . S
O13 Cd2 2.439 . S
O13 C7 1.208 . S
O14 Cd15 2.223 . S
O14 C22 1.315 . S
Cd15 O14 2.223 . S
Cd15 O18 2.297 . S
Cd15 O19 2.439 . S
Cd15 O25 2.240 . S
Cd16 O17 2.240 1_455 S
Cd16 O24 2.223 . S
Cd16 O26 2.297 . S
Cd16 O27 2.439 1_455 S
O17 Cd16 2.240 1_655 S
O17 C22 1.279 . S
O18 Cd15 2.297 . S
O18 C20 1.247 . S
O19 Cd15 2.439 . S
O19 C20 1.208 . S
C20 O18 1.247 . S
C20 O19 1.208 . S
C21 O26 1.247 1_655 S
C21 O27 1.208 . S
C22 O14 1.315 . S
C22 O17 1.279 . S
C23 O24 1.315 1_655 S
C23 O25 1.279 . S
O24 Cd16 2.223 . S
O24 C23 1.315 1_455 S
O25 Cd15 2.240 . S
O25 C23 1.279 . S
O26 Cd16 2.297 . S
O26 C21 1.247 1_455 S
O27 Cd16 2.439 1_655 S
O27 C21 1.208 . S
O28 Cd29 2.223 . S
O28 C36 1.315 . S
Cd29 O28 2.223 . S
Cd29 O32 2.297 . S
Cd29 O33 2.439 . S
Cd29 O39 2.240 . S
Cd30 O31 2.240 1_545 S
Cd30 O38 2.223 . S
Cd30 O40 2.297 . S
Cd30 O41 2.439 1_545 S
O31 Cd30 2.240 1_565 S
O31 C36 1.279 . S
O32 Cd29 2.297 . S
O32 C34 1.247 . S
O33 Cd29 2.439 . S
O33 C34 1.208 . S
C34 O32 1.247 . S
C34 O33 1.208 . S
C35 O40 1.247 1_565 S
C35 O41 1.208 . S
C36 O28 1.315 . S
C36 O31 1.279 . S
C37 O38 1.315 1_565 S
C37 O39 1.279 . S
O38 Cd30 2.223 . S
O38 C37 1.315 1_545 S
O39 Cd29 2.240 . S
O39 C37 1.279 . S
O40 Cd30 2.297 . S
O40 C35 1.247 1_545 S
O41 Cd30 2.439 1_565 S
O41 C35 1.208 . S
O42 Cd43 2.223 1_556 S
O42 C50 1.315 . S
Cd43 O42 2.223 1_554 S
Cd43 O46 2.297 1_554 S
Cd43 O47 2.439 . S
Cd43 O53 2.240 . S
Cd44 O45 2.240 . S
Cd44 O52 2.223 . S
Cd44 O54 2.297 . S
Cd44 O55 2.439 . S
O45 Cd44 2.240 . S
O45 C50 1.279 1_554 S
O46 Cd43 2.297 1_556 S
O46 C48 1.247 1_556 S
O47 Cd43 2.439 . S
O47 C48 1.208 . S
C48 O46 1.247 1_554 S
C48 O47 1.208 . S
C49 O54 1.247 . S
C49 O55 1.208 . S
C50 O42 1.315 . S
C50 O45 1.279 1_556 S
C51 O52 1.315 . S
C51 O53 1.279 . S
O52 Cd44 2.223 . S
O52 C51 1.315 . S
O53 Cd43 2.240 . S
O53 C51 1.279 . S
O54 Cd44 2.297 . S
O54 C49 1.247 . S
O55 Cd44 2.439 . S
O55 C49 1.208 . S
O56 Cd57 2.223 . S
O56 C64 1.315 . S
Cd57 O56 2.223 . S
Cd57 O60 2.297 . S
Cd57 O61 2.439 . S
Cd57 O67 2.240 . S
Cd58 O59 2.240 1_655 S
Cd58 O66 2.223 . S
Cd58 O68 2.297 . S
Cd58 O69 2.439 1_655 S
O59 Cd58 2.240 1_455 S
O59 C64 1.279 . S
O60 Cd57 2.297 . S
O60 C62 1.247 . S
O61 Cd57 2.439 . S
O61 C62 1.208 . S
C62 O60 1.247 . S
C62 O61 1.208 . S
C63 O68 1.247 1_455 S
C63 O69 1.208 . S
C64 O56 1.315 . S
C64 O59 1.279 . S
C65 O66 1.315 1_455 S
C65 O67 1.279 . S
O66 Cd58 2.223 . S
O66 C65 1.315 1_655 S
O67 Cd57 2.240 . S
O67 C65 1.279 . S
O68 Cd58 2.297 . S
O68 C63 1.247 1_655 S
O69 Cd58 2.439 1_455 S
O69 C63 1.208 . S
O70 Cd71 2.223 . S
O70 C78 1.315 . S
Cd71 O70 2.223 . S
Cd71 O74 2.297 . S
Cd71 O75 2.439 . S
Cd71 O81 2.240 . S
Cd72 O73 2.240 1_565 S
Cd72 O80 2.223 . S
Cd72 O82 2.297 . S
Cd72 O83 2.439 1_565 S
O73 Cd72 2.240 1_545 S
O73 C78 1.279 . S
O74 Cd71 2.297 . S
O74 C76 1.247 . S
O75 Cd71 2.439 . S
O75 C76 1.208 . S
C76 O74 1.247 . S
C76 O75 1.208 . S
C77 O82 1.247 1_545 S
C77 O83 1.208 . S
C78 O70 1.315 . S
C78 O73 1.279 . S
C79 O80 1.315 1_545 S
C79 O81 1.279 . S
O80 Cd72 2.223 . S
O80 C79 1.315 1_565 S
O81 Cd71 2.240 . S
O81 C79 1.279 . S
O82 Cd72 2.297 . S
O82 C77 1.247 1_565 S
O83 Cd72 2.439 1_545 S
O83 C77 1.208 . S
O84 Cd85 2.223 . S
O84 C92 1.315 . S
Cd85 O84 2.223 . S
Cd85 O88 2.297 . S
Cd85 O89 2.439 . S
Cd85 O95 2.240 . S
Cd86 O87 2.240 . S
Cd86 O94 2.223 . S
Cd86 O96 2.297 . S
Cd86 O97 2.439 . S
O87 Cd86 2.240 . S
O87 C92 1.279 . S
O88 Cd85 2.297 . S
O88 C90 1.247 . S
O89 Cd85 2.439 . S
O89 C90 1.208 . S
C90 O88 1.247 . S
C90 O89 1.208 . S
C91 O96 1.247 . S
C91 O97 1.208 . S
C92 O84 1.315 . S
C92 O87 1.279 . S
C93 O94 1.315 . S
C93 O95 1.279 . S
O94 Cd86 2.223 . S
O94 C93 1.315 . S
O95 Cd85 2.240 . S
O95 C93 1.279 . S
O96 Cd86 2.297 . S
O96 C91 1.247 . S
O97 Cd86 2.439 . S
O97 C91 1.208 . S
O98 Cd99 2.223 1_554 S
O98 C106 1.315 . S
Cd99 O98 2.223 1_556 S
Cd99 O102 2.297 1_556 S
Cd99 O103 2.439 . S
Cd99 O109 2.240 . S
Cd100 O101 2.240 1_455 S
Cd100 O108 2.223 . S
Cd100 O110 2.297 . S
Cd100 O111 2.439 1_455 S
O101 Cd100 2.240 1_655 S
O101 C106 1.279 1_556 S
O102 Cd99 2.297 1_554 S
O102 C104 1.247 1_554 S
O103 Cd99 2.439 . S
O103 C104 1.208 . S
C104 O102 1.247 1_556 S
C104 O103 1.208 . S
C105 O110 1.247 1_655 S
C105 O111 1.208 . S
C106 O98 1.315 . S
C106 O101 1.279 1_554 S
C107 O108 1.315 1_655 S
C107 O109 1.279 . S
O108 Cd100 2.223 . S
O108 C107 1.315 1_455 S
O109 Cd99 2.240 . S
O109 C107 1.279 . S
O110 Cd100 2.297 . S
O110 C105 1.247 1_455 S
O111 Cd100 2.439 1_655 S
O111 C105 1.208 . S
O112 Cd113 2.223 . S
O112 C120 1.315 . S
Cd113 O112 2.223 . S
Cd113 O116 2.297 . S
Cd113 O117 2.439 . S
Cd113 O123 2.240 . S
Cd114 O115 2.240 1_545 S
Cd114 O122 2.223 . S
Cd114 O124 2.297 . S
Cd114 O125 2.439 1_545 S
O115 Cd114 2.240 1_565 S
O115 C120 1.279 . S
O116 Cd113 2.297 . S
O116 C118 1.247 . S
O117 Cd113 2.439 . S
O117 C118 1.208 . S
C118 O116 1.247 . S
C118 O117 1.208 . S
C119 O124 1.247 1_565 S
C119 O125 1.208 . S
C120 O112 1.315 . S
C120 O115 1.279 . S
C121 O122 1.315 1_565 S
C121 O123 1.279 . S
O122 Cd114 2.223 . S
O122 C121 1.315 1_545 S
O123 Cd113 2.240 . S
O123 C121 1.279 . S
O124 Cd114 2.297 . S
O124 C119 1.247 1_545 S
O125 Cd114 2.439 1_565 S
O125 C119 1.208 . S
O126 Cd127 2.223 . S
O126 C134 1.315 . S
Cd127 O126 2.223 . S
Cd127 O130 2.297 . S
Cd127 O131 2.439 . S
Cd127 O137 2.240 . S
Cd128 O129 2.240 . S
Cd128 O136 2.223 . S
Cd128 O138 2.297 . S
Cd128 O139 2.439 . S
O129 Cd128 2.240 . S
O129 C134 1.279 . S
O130 Cd127 2.297 . S
O130 C132 1.247 . S
O131 Cd127 2.439 . S
O131 C132 1.208 . S
C132 O130 1.247 . S
C132 O131 1.208 . S
C133 O138 1.247 . S
C133 O139 1.208 . S
C134 O126 1.315 . S
C134 O129 1.279 . S
C135 O136 1.315 . S
C135 O137 1.279 . S
O136 Cd128 2.223 . S
O136 C135 1.315 . S
O137 Cd127 2.240 . S
O137 C135 1.279 . S
O138 Cd128 2.297 . S
O138 C133 1.247 . S
O139 Cd128 2.439 . S
O139 C133 1.208 . S
O140 Cd141 2.223 1_554 S
O140 C148 1.315 . S
Cd141 O140 2.223 1_556 S
Cd141 O144 2.297 1_556 S
Cd141 O145 2.439 . S
Cd141 O151 2.240 . S
Cd142 O143 2.240 1_655 S
Cd142 O150 2.223 . S
Cd142 O152 2.297 . S
Cd142 O153 2.439 1_655 S
O143 Cd142 2.240 1_455 S
O143 C148 1.279 1_556 S
O144 Cd141 2.297 1_554 S
O144 C146 1.247 1_554 S
O145 Cd141 2.439 . S
O145 C146 1.208 . S
C146 O144 1.247 1_556 S
C146 O145 1.208 . S
C147 O152 1.247 1_455 S
C147 O153 1.208 . S
C148 O140 1.315 . S
C148 O143 1.279 1_554 S
C149 O150 1.315 1_455 S
C149 O151 1.279 . S
O150 Cd142 2.223 . S
O150 C149 1.315 1_655 S
O151 Cd141 2.240 . S
O151 C149 1.279 . S
O152 Cd142 2.297 . S
O152 C147 1.247 1_655 S
O153 Cd142 2.439 1_455 S
O153 C147 1.208 . S
O154 Cd155 2.223 . S
O154 C162 1.315 . S
Cd155 O154 2.223 . S
Cd155 O158 2.297 . S
Cd155 O159 2.439 . S
Cd155 O165 2.240 . S
Cd156 O157 2.240 1_565 S
Cd156 O164 2.223 . S
Cd156 O166 2.297 . S
Cd156 O167 2.439 1_565 S
O157 Cd156 2.240 1_545 S
O157 C162 1.279 . S
O158 Cd155 2.297 . S
O158 C160 1.247 . S
O159 Cd155 2.439 . S
O159 C160 1.208 . S
C160 O158 1.247 . S
C160 O159 1.208 . S
C161 O166 1.247 1_545 S
C161 O167 1.208 . S
C162 O154 1.315 . S
C162 O157 1.279 . S
C163 O164 1.315 1_545 S
C163 O165 1.279 . S
O164 Cd156 2.223 . S
O164 C163 1.315 1_565 S
O165 Cd155 2.240 . S
O165 C163 1.279 . S
O166 Cd156 2.297 . S
O166 C161 1.247 1_565 S
O167 Cd156 2.439 1_545 S
O167 C161 1.208 . S
C168 C169 1.170 . S
C168 C170 1.380 . S
C169 C168 1.170 . S
C170 C168 1.380 . S
C170 C171 1.170 . S
C171 C170 1.170 . S
C172 C173 1.170 . S
C172 C174 1.381 . S
C173 C172 1.170 . S
C174 C172 1.381 . S
C174 C175 1.169 1_655 S
C175 C174 1.169 1_455 S
C176 C177 1.170 . S
C176 C178 1.380 1_566 S
C177 C176 1.170 . S
C178 C176 1.380 1_544 S
C178 C179 1.170 . S
C179 C178 1.170 . S
C180 C181 1.170 . S
C180 C182 1.380 . S
C181 C180 1.170 . S
C182 C180 1.380 . S
C182 C183 1.170 . S
C183 C182 1.170 . S
C184 C185 1.170 . S
C184 C186 1.380 1_655 S
C185 C184 1.170 . S
C186 C184 1.380 1_455 S
C186 C187 1.170 . S
C187 C186 1.170 . S
C188 C189 1.170 . S
C188 C190 1.382 1_554 S
C189 C188 1.170 . S
C190 C188 1.382 1_556 S
C190 C191 1.168 1_565 S
C191 C190 1.168 1_545 S
C192 C193 1.170 . S
C192 C194 1.380 1_556 S
C193 C192 1.170 . S
C194 C192 1.380 1_554 S
C194 C195 1.170 . S
C195 C194 1.170 . S
C196 C197 1.170 . S
C196 C198 1.380 . S
C197 C196 1.170 . S
C198 C196 1.380 . S
C198 C199 1.170 . S
C199 C198 1.170 . S
C200 C201 1.170 . S
C200 C202 1.380 . S
C201 C200 1.170 . S
C202 C200 1.380 . S
C202 C203 1.170 . S
C203 C202 1.170 . S
C204 C205 1.170 . S
C204 C206 1.380 1_554 S
C205 C204 1.170 . S
C206 C204 1.380 1_556 S
C206 C207 1.170 . S
C207 C206 1.170 . S
C208 C209 1.170 . S
C208 C210 1.380 . S
C209 C208 1.170 . S
C210 C208 1.380 . S
C210 C211 1.170 . S
C211 C210 1.170 . S
C212 C213 1.170 . S
C212 C214 1.380 . S
C213 C212 1.170 . S
C214 C212 1.380 . S
C214 C215 1.170 . S
C215 C214 1.170 . S
C216 C217 1.170 . S
C216 C218 1.380 . S
C217 C216 1.170 . S
C218 C216 1.380 . S
C218 C219 1.170 . S
C219 C218 1.170 . S
C220 C221 1.170 . S
C220 C222 1.380 1_655 S
C221 C220 1.170 . S
C222 C220 1.380 1_455 S
C222 C223 1.170 . S
C223 C222 1.170 . S
C224 C225 1.177 . S
C224 C226 1.375 1_565 S
C225 C224 1.177 . S
C226 C224 1.375 1_545 S
C226 C227 1.170 . S
C227 C226 1.170 . S
C228 C229 1.170 . S
C228 C230 1.380 . S
C229 C228 1.170 . S
C230 C228 1.380 . S
C230 C231 1.170 . S
C231 C230 1.170 . S
C232 C233 1.170 . S
C232 C234 1.380 1_455 S
C233 C232 1.170 . S
C234 C232 1.380 1_655 S
C234 C235 1.170 . S
C235 C234 1.170 . S
C236 C237 1.170 . S
C236 C238 1.380 1_565 S
C237 C236 1.170 . S
C238 C236 1.380 1_545 S
C238 C239 1.170 . S
C239 C238 1.170 . S
C240 C241 1.170 . S
C240 C242 1.380 . S
C241 C240 1.170 . S
C242 C240 1.380 . S
C242 C243 1.170 . S
C243 C242 1.170 . S
C244 C245 1.170 . S
C244 C246 1.380 1_455 S
C245 C244 1.170 . S
C246 C244 1.380 1_655 S
C246 C247 1.170 . S
C247 C246 1.170 . S
C248 C249 1.170 . S
C248 C250 1.380 1_565 S
C249 C248 1.170 . S
C250 C248 1.380 1_545 S
C250 C251 1.170 . S
C251 C250 1.170 . S
C252 C253 1.170 . S
C252 C254 1.380 . S
C253 C252 1.170 . S
C254 C252 1.380 . S
C254 C255 1.170 . S
C255 C254 1.170 . S
C256 C257 1.170 . S
C256 C258 1.380 1_655 S
C257 C256 1.170 . S
C258 C256 1.380 1_455 S
C258 C259 1.170 . S
C259 C258 1.170 . S
C260 C261 1.170 . S
C260 C262 1.380 1_545 S
C261 C260 1.170 . S
C262 C260 1.380 1_565 S
C262 C263 1.170 . S
C263 C262 1.170 . S
C169 C7 1.476 . S
C171 C133 1.466 . S
C173 C21 1.479 . S
C175 C147 1.461 . S
C177 C35 1.471 . S
C179 C161 1.463 . S
C181 C49 1.475 . S
C183 C91 1.468 . S
C185 C105 1.475 . S
C187 C63 1.468 . S
C189 C119 1.478 . S
C191 C77 1.460 . S
C193 C146 1.464 . S
C195 C6 1.466 . S
C197 C20 1.464 . S
C199 C160 1.468 . S
C201 C34 1.494 . S
C203 C90 1.493 . S
C205 C48 1.465 . S
C207 C104 1.464 . S
C209 C62 1.494 . S
C211 C118 1.493 . S
C213 C76 1.484 . S
C215 C132 1.476 . S
C217 C134 1.246 . S
C219 C8 1.278 . S
C221 C22 1.256 . S
C223 C148 1.268 . S
C225 C36 1.282 . S
C227 C162 1.242 . S
C229 C92 1.287 . S
C231 C50 1.238 . S
C233 C64 1.261 . S
C235 C106 1.265 . S
C237 C120 1.256 . S
C239 C78 1.269 . S
C241 C9 1.501 . S
C243 C51 1.500 . S
C245 C65 1.483 . S
C247 C23 1.500 . S
C249 C37 1.504 . S
C251 C79 1.492 . S
C253 C93 1.494 . S
C255 C135 1.504 . S
C257 C107 1.484 . S
C259 C149 1.501 . S
C261 C163 1.485 . S
C263 C121 1.476 . S
