# Generated by pormake.
# Topology crs, (6)-cn, num edge types: 1
# Building blocks:
#     Node 0, Type 0, BuildingBlock: MIFKUJ_clean_sbu_0, # of connection points: 6
#     Node 1, Type 0, BuildingBlock: MIFKUJ_clean_sbu_0, # of connection points: 6
#     Node 2, Type 0, BuildingBlock: MIFKUJ_clean_sbu_0, # of connection points: 6
#     Node 3, Type 0, BuildingBlock: MIFKUJ_clean_sbu_0, # of connection points: 6
#     Node 4, Type 0, BuildingBlock: MIFKUJ_clean_sbu_0, # of connection points: 6
#     Node 5, Type 0, BuildingBlock: MIFKUJ_clean_sbu_0, # of connection points: 6
#     Node 6, Type 0, BuildingBlock: MIFKUJ_clean_sbu_0, # of connection points: 6
#     Node 7, Type 0, BuildingBlock: MIFKUJ_clean_sbu_0, # of connection points: 6
#     Node 8, Type 0, BuildingBlock: MIFKUJ_clean_sbu_0, # of connection points: 6
#     Node 9, Type 0, BuildingBlock: MIFKUJ_clean_sbu_0, # of connection points: 6
#     Node 10, Type 0, BuildingBlock: MIFKUJ_clean_sbu_0, # of connection points: 6
#     Node 11, Type 0, BuildingBlock: MIFKUJ_clean_sbu_0, # of connection points: 6
#     Node 12, Type 0, BuildingBlock: MIFKUJ_clean_sbu_0, # of connection points: 6
#     Node 13, Type 0, BuildingBlock: MIFKUJ_clean_sbu_0, # of connection points: 6
#     Node 14, Type 0, BuildingBlock: MIFKUJ_clean_sbu_0, # of connection points: 6
#     Node 15, Type 0, BuildingBlock: MIFKUJ_clean_sbu_0, # of connection points: 6
#     Edge 16, Type (0, 0), BuildingBlock: KIFKEQ_clean_linker_1, # of connection points: 2
#     Edge 17, Type (0, 0), BuildingBlock: KIFKEQ_clean_linker_1, # of connection points: 2
#     Edge 18, Type (0, 0), BuildingBlock: KIFKEQ_clean_linker_1, # of connection points: 2
#     Edge 19, Type (0, 0), BuildingBlock: KIFKEQ_clean_linker_1, # of connection points: 2
#     Edge 20, Type (0, 0), BuildingBlock: KIFKEQ_clean_linker_1, # of connection points: 2
#     Edge 21, Type (0, 0), BuildingBlock: KIFKEQ_clean_linker_1, # of connection points: 2
#     Edge 22, Type (0, 0), BuildingBlock: KIFKEQ_clean_linker_1, # of connection points: 2
#     Edge 23, Type (0, 0), BuildingBlock: KIFKEQ_clean_linker_1, # of connection points: 2
#     Edge 24, Type (0, 0), BuildingBlock: KIFKEQ_clean_linker_1, # of connection points: 2
#     Edge 25, Type (0, 0), BuildingBlock: KIFKEQ_clean_linker_1, # of connection points: 2
#     Edge 26, Type (0, 0), BuildingBlock: KIFKEQ_clean_linker_1, # of connection points: 2
#     Edge 27, Type (0, 0), BuildingBlock: KIFKEQ_clean_linker_1, # of connection points: 2
#     Edge 28, Type (0, 0), BuildingBlock: KIFKEQ_clean_linker_1, # of connection points: 2
#     Edge 29, Type (0, 0), BuildingBlock: KIFKEQ_clean_linker_1, # of connection points: 2
#     Edge 30, Type (0, 0), BuildingBlock: KIFKEQ_clean_linker_1, # of connection points: 2
#     Edge 31, Type (0, 0), BuildingBlock: KIFKEQ_clean_linker_1, # of connection points: 2
#     Edge 32, Type (0, 0), BuildingBlock: KIFKEQ_clean_linker_1, # of connection points: 2
#     Edge 33, Type (0, 0), BuildingBlock: KIFKEQ_clean_linker_1, # of connection points: 2
#     Edge 34, Type (0, 0), BuildingBlock: KIFKEQ_clean_linker_1, # of connection points: 2
#     Edge 35, Type (0, 0), BuildingBlock: KIFKEQ_clean_linker_1, # of connection points: 2
#     Edge 36, Type (0, 0), BuildingBlock: KIFKEQ_clean_linker_1, # of connection points: 2
#     Edge 37, Type (0, 0), BuildingBlock: KIFKEQ_clean_linker_1, # of connection points: 2
#     Edge 38, Type (0, 0), BuildingBlock: KIFKEQ_clean_linker_1, # of connection points: 2
#     Edge 39, Type (0, 0), BuildingBlock: KIFKEQ_clean_linker_1, # of connection points: 2
#     Edge 40, Type (0, 0), BuildingBlock: KIFKEQ_clean_linker_1, # of connection points: 2
#     Edge 41, Type (0, 0), BuildingBlock: KIFKEQ_clean_linker_1, # of connection points: 2
#     Edge 42, Type (0, 0), BuildingBlock: KIFKEQ_clean_linker_1, # of connection points: 2
#     Edge 43, Type (0, 0), BuildingBlock: KIFKEQ_clean_linker_1, # of connection points: 2
#     Edge 44, Type (0, 0), BuildingBlock: KIFKEQ_clean_linker_1, # of connection points: 2
#     Edge 45, Type (0, 0), BuildingBlock: KIFKEQ_clean_linker_1, # of connection points: 2
#     Edge 46, Type (0, 0), BuildingBlock: KIFKEQ_clean_linker_1, # of connection points: 2
#     Edge 47, Type (0, 0), BuildingBlock: KIFKEQ_clean_linker_1, # of connection points: 2
#     Edge 48, Type (0, 0), BuildingBlock: KIFKEQ_clean_linker_1, # of connection points: 2
#     Edge 49, Type (0, 0), BuildingBlock: KIFKEQ_clean_linker_1, # of connection points: 2
#     Edge 50, Type (0, 0), BuildingBlock: KIFKEQ_clean_linker_1, # of connection points: 2
#     Edge 51, Type (0, 0), BuildingBlock: KIFKEQ_clean_linker_1, # of connection points: 2
#     Edge 52, Type (0, 0), BuildingBlock: KIFKEQ_clean_linker_1, # of connection points: 2
#     Edge 53, Type (0, 0), BuildingBlock: KIFKEQ_clean_linker_1, # of connection points: 2
#     Edge 54, Type (0, 0), BuildingBlock: KIFKEQ_clean_linker_1, # of connection points: 2
#     Edge 55, Type (0, 0), BuildingBlock: KIFKEQ_clean_linker_1, # of connection points: 2
#     Edge 56, Type (0, 0), BuildingBlock: KIFKEQ_clean_linker_1, # of connection points: 2
#     Edge 57, Type (0, 0), BuildingBlock: KIFKEQ_clean_linker_1, # of connection points: 2
#     Edge 58, Type (0, 0), BuildingBlock: KIFKEQ_clean_linker_1, # of connection points: 2
#     Edge 59, Type (0, 0), BuildingBlock: KIFKEQ_clean_linker_1, # of connection points: 2
#     Edge 60, Type (0, 0), BuildingBlock: KIFKEQ_clean_linker_1, # of connection points: 2
#     Edge 61, Type (0, 0), BuildingBlock: KIFKEQ_clean_linker_1, # of connection points: 2
#     Edge 62, Type (0, 0), BuildingBlock: KIFKEQ_clean_linker_1, # of connection points: 2
#     Edge 63, Type (0, 0), BuildingBlock: KIFKEQ_clean_linker_1, # of connection points: 2
# Relax obj value: 0.319
# Max RMSD: 0.287
# Mean RMSD: 0.246
data_MOF--net-crs--node1-MIFKUJ_clean_sbu_0--edge1-KIFKEQ_clean_linker_1
_symmetry_space_group_name_H-M    P1
_symmetry_Int_Tables_number       1
_symmetry_cell_setting            triclinic
loop_
_symmetry_equiv_pos_as_xyz
'x, y, z'
_cell_length_a     45.461179
_cell_length_b     44.809208
_cell_length_c     45.597522
_cell_angle_alpha  91.182846
_cell_angle_beta   90.300914
_cell_angle_gamma 78.627697
loop_
_atom_site_label
_atom_site_type_symbol
_atom_site_fract_x
_atom_site_fract_y
_atom_site_fract_z
_atom_type_partial_charge
Zn0 Zn 0.00046 0.03777 0.98746 0.0
Zn1 Zn 0.9621 -0.00256 0.00755 0.0
C2 C 0.96163 0.0908 0.01684 0.0
O3 O 0.95202 0.09961 0.99058 0.0
C4 C 0.0 0.94414 0.98134 0.0
O5 O 0.00339 0.9355 0.00872 0.0
O6 O 0.02795 0.06073 0.96813 0.0
O7 O 0.02638 0.00278 0.00833 0.0
O8 O -0.01028 0.00551 0.03988 0.0
C9 C 0.04893 0.04829 0.95101 0.0
O10 O 0.05328 0.01882 0.94567 0.0
O11 O -0.01969 0.06591 0.01956 0.0
C12 C 0.92303 0.95688 0.00476 0.0
O13 O 0.92731 0.96117 0.97682 0.0
O14 O 0.93519 0.97154 0.02389 0.0
O15 O 0.93499 0.03189 0.98733 0.0
O16 O 0.97155 0.03049 0.95604 0.0
O17 O -0.0146 0.97067 0.97596 0.0
C18 C 0.01766 0.00015 0.03442 0.0
C19 C 0.94364 0.03499 0.96134 0.0
Zn20 Zn 0.9652 0.25377 0.26822 0.0
Zn21 Zn 0.00025 0.271 0.21669 0.0
C22 C -0.00527 0.27799 0.31723 0.0
O23 O 0.00493 0.24894 0.32192 0.0
C24 C 0.96662 0.24721 0.17334 0.0
O25 O 0.96511 0.27523 0.16457 0.0
O26 O 0.94051 0.23254 0.29351 0.0
O27 O 0.9386 0.27538 0.237 0.0
O28 O 0.96815 0.30727 0.22729 0.0
C29 C 0.91416 0.22857 0.28799 0.0
O30 O 0.90045 0.23956 0.26397 0.0
O31 O -0.02167 0.28558 0.29486 0.0
C32 C 0.0423 0.25738 0.17263 0.0
O33 O 0.04067 0.23059 0.18295 0.0
O34 O 0.02652 0.28111 0.18453 0.0
O35 O 0.02929 0.25219 0.24769 0.0
O36 O -0.00046 0.22073 0.25715 0.0
O37 O -0.02011 0.23927 0.1974 0.0
C38 C 0.9419 0.30171 0.22965 0.0
C39 C 0.02568 0.22644 0.25627 0.0
Zn40 Zn 0.7604 0.24925 0.50214 0.0
Zn41 Zn 0.72049 0.217 0.47076 0.0
C42 C 0.80985 0.21221 0.47044 0.0
O43 O 0.82402 0.2128 0.49556 0.0
C44 C 0.66384 0.23951 0.5005 0.0
O45 O 0.65149 0.22987 0.47695 0.0
O46 O 0.78747 0.27606 0.51858 0.0
O47 O 0.7256 0.27916 0.48613 0.0
O48 O 0.72931 0.25138 0.44586 0.0
C49 C 0.79607 0.29163 0.49848 0.0
O50 O 0.78804 0.2871 0.47129 0.0
O51 O 0.78267 0.22571 0.46849 0.0
C52 C 0.70371 0.16386 0.44241 0.0
O53 O 0.72882 0.14885 0.45366 0.0
O54 O 0.69705 0.19261 0.44568 0.0
O55 O 0.75117 0.1871 0.49427 0.0
O56 O 0.75221 0.2193 0.53123 0.0
O57 O 0.6921 0.23684 0.50185 0.0
C58 C 0.72362 0.27749 0.4584 0.0
C59 C 0.75446 0.19209 0.52164 0.0
Zn60 Zn 0.75267 0.01883 0.76007 0.0
Zn61 Zn 0.71557 0.00144 0.71035 0.0
C62 C 0.71942 0.99632 0.80509 0.0
O63 O 0.71141 0.02557 0.81119 0.0
C64 C 0.74682 0.02532 0.6641 0.0
O65 O 0.75084 -0.00302 0.65443 0.0
O66 O 0.78052 0.03429 0.7883 0.0
O67 O 0.77824 -0.00301 0.72704 0.0
O68 O 0.74635 0.96648 0.72385 0.0
C69 C 0.80513 0.01639 0.79396 0.0
O70 O 0.81152 0.98979 0.78033 0.0
O71 O 0.73659 0.98768 0.78334 0.0
C72 C 0.67764 0.96294 0.6834 0.0
O73 O 0.67543 0.9521 0.70967 0.0
O74 O 0.69242 0.98383 0.67979 0.0
O75 O 0.68676 0.02412 0.73977 0.0
O76 O 0.71862 0.0536 0.75159 0.0
O77 O 0.73375 0.03232 0.6886 0.0
C78 C 0.77311 0.97043 0.72267 0.0
C79 C 0.69183 0.04934 0.74962 0.0
Zn80 Zn 0.46421 0.75613 0.29612 0.0
Zn81 Zn 0.51114 0.76248 0.24808 0.0
C82 C 0.48362 0.79101 0.3442 0.0
O83 O 0.48966 0.76403 0.35611 0.0
C84 C 0.48368 0.73484 0.20105 0.0
O85 O 0.47961 0.76294 0.19181 0.0
O86 O 0.43118 0.74421 0.31883 0.0
O87 O 0.44671 0.76855 0.25676 0.0
O88 O 0.47808 0.79941 0.25277 0.0
C89 C 0.40546 0.76148 0.31835 0.0
O90 O 0.40139 0.78615 0.30254 0.0
O91 O 0.47366 0.79323 0.31804 0.0
C92 C 0.56403 0.75327 0.2139 0.0
O93 O 0.56799 0.72681 0.22679 0.0
O94 O 0.54122 0.77355 0.22055 0.0
O95 O 0.5336 0.74508 0.28393 0.0
O96 O 0.49858 0.72071 0.29761 0.0
O97 O 0.49603 0.7287 0.22589 0.0
C98 C 0.45179 0.79422 0.24961 0.0
C99 C 0.52599 0.72276 0.29656 0.0
Zn100 Zn 0.20127 0.76582 0.50603 0.0
Zn101 Zn 0.24675 0.802 0.52318 0.0
C102 C 0.23615 0.71097 0.52918 0.0
O103 O 0.23619 0.70226 0.50148 0.0
C104 C 0.22007 0.85966 0.49774 0.0
O105 O 0.22598 0.87029 0.52372 0.0
O106 O 0.17015 0.74214 0.49342 0.0
O107 O 0.1804 0.80388 0.52724 0.0
O108 O 0.21931 0.79902 0.55647 0.0
C109 C 0.1546 0.73545 0.51449 0.0
O110 O 0.15785 0.74724 0.54065 0.0
O111 O 0.22424 0.73823 0.53625 0.0
C112 C 0.29604 0.83132 0.52132 0.0
O113 O 0.29098 0.82835 0.49311 0.0
O114 O 0.27995 0.82074 0.53955 0.0
O115 O 0.26631 0.76404 0.50138 0.0
O116 O 0.2277 0.76905 0.47163 0.0
O117 O 0.22559 0.83106 0.49302 0.0
C118 C 0.19114 0.80627 0.55277 0.0
C119 C 0.2558 0.76142 0.4758 0.0
Zn120 Zn 0.26639 0.53323 0.77107 0.0
Zn121 Zn 0.22731 0.51633 0.72344 0.0
C122 C 0.23713 0.50147 0.81191 0.0
O123 O 0.23425 0.52773 0.82607 0.0
C124 C 0.24418 0.54391 0.67259 0.0
O125 O 0.24477 0.51618 0.66232 0.0
O126 O 0.29247 0.54496 0.80295 0.0
O127 O 0.293 0.51755 0.73668 0.0
O128 O 0.26421 0.4844 0.72789 0.0
C129 C 0.31519 0.52502 0.80988 0.0
O130 O 0.3208 0.49898 0.79523 0.0
O131 O 0.25048 0.49808 0.78731 0.0
C132 C 0.17297 0.51219 0.69526 0.0
O133 O 0.16551 0.5397 0.70686 0.0
O134 O 0.19927 0.497 0.69925 0.0
O135 O 0.20328 0.53466 0.75842 0.0
O136 O 0.23175 0.56822 0.76636 0.0
O137 O 0.2376 0.54995 0.69939 0.0
C138 C 0.2898 0.49165 0.72686 0.0
C139 C 0.20625 0.56078 0.76771 0.0
Zn140 Zn 0.01119 0.52197 0.50828 0.0
Zn141 Zn 0.96777 0.47804 0.5212 0.0
C142 C -0.02 0.57403 0.54034 0.0
O143 O 0.97584 0.58419 0.51351 0.0
C144 C -0.00821 0.42433 0.48796 0.0
O145 O -0.01007 0.41277 0.51398 0.0
O146 O 0.04078 0.5465 0.49498 0.0
O147 O 0.03399 0.48139 0.52122 0.0
O148 O -0.00116 0.47713 0.55266 0.0
C149 C 0.05898 0.55199 0.51465 0.0
O150 O 0.05921 0.53861 0.54005 0.0
O151 O -0.00724 0.54642 0.54394 0.0
C152 C 0.91403 0.45664 0.51891 0.0
O153 O 0.91193 0.47326 0.49533 0.0
O154 O 0.93658 0.45575 0.53565 0.0
O155 O 0.94617 0.51925 0.50799 0.0
O156 O -0.0187 0.52171 0.47606 0.0
O157 O -0.01488 0.4531 0.48542 0.0
C158 C 0.02648 0.47368 0.5463 0.0
C159 C 0.95368 0.52591 0.48254 0.0
Zn160 Zn 0.23466 0.2022 0.99668 0.0
Zn161 Zn 0.22688 0.29464 0.97562 0.0
C162 C 0.27048 0.16188 0.03626 0.0
O163 O 0.28477 0.15205 0.01188 0.0
C164 C 0.19462 0.33266 0.93056 0.0
O165 O 0.17235 0.33682 0.94942 0.0
O166 O 0.21121 0.17387 0.97804 0.0
O167 O 0.20749 0.24397 0.00214 0.0
O168 O 0.18941 0.29274 0.99866 0.0
C169 C 0.19555 0.18033 0.95507 0.0
O170 O 0.19408 0.20698 0.94305 0.0
O171 O 0.24893 0.18469 0.03538 0.0
C172 C 0.24218 0.34701 0.00316 0.0
O173 O 0.21647 0.35999 0.99149 0.0
O174 O 0.25146 0.31854 -0.00052 0.0
O175 O 0.24931 0.25208 0.97112 0.0
O176 O 0.26932 0.20427 0.96919 0.0
O177 O 0.21886 0.31442 0.93669 0.0
C178 C 0.18747 0.26704 0.00907 0.0
C179 C 0.2691 0.23097 0.96041 0.0
Zn180 Zn 0.25211 0.01473 0.28065 0.0
Zn181 Zn 0.21447 0.99509 0.23497 0.0
C182 C 0.21887 -0.00234 0.32864 0.0
O183 O 0.21527 0.02699 0.33451 0.0
C184 C 0.24756 0.01405 0.1881 0.0
O185 O 0.24776 0.98604 0.17884 0.0
O186 O 0.27925 0.03103 0.30872 0.0
O187 O 0.27801 0.98956 0.25026 0.0
O188 O 0.24591 0.95889 0.24646 0.0
C189 C 0.29381 0.01185 0.32621 0.0
O190 O 0.29235 0.98297 0.32296 0.0
O191 O 0.23265 0.98697 0.30535 0.0
C192 C 0.1656 0.00377 0.19711 0.0
O193 O 0.16515 0.03135 0.20768 0.0
O194 O 0.18581 0.98198 0.20589 0.0
O195 O 0.18875 0.02045 0.26579 0.0
O196 O 0.2214 0.05036 0.2683 0.0
O197 O 0.23492 0.02319 0.21231 0.0
C198 C 0.27269 0.96317 0.24512 0.0
C199 C 0.19445 0.04689 0.26963 0.0
Zn200 Zn 0.46557 0.26346 0.77334 0.0
Zn201 Zn 0.51033 0.27269 0.72844 0.0
C202 C 0.48781 0.28374 0.82654 0.0
O203 O 0.48576 0.25573 0.83284 0.0
C204 C 0.48955 0.24391 0.67766 0.0
O205 O 0.4945 0.26909 0.66612 0.0
O206 O 0.43319 0.25107 0.79668 0.0
O207 O 0.44505 0.28591 0.73863 0.0
O208 O 0.48068 0.31174 0.73241 0.0
C209 C 0.41012 0.27106 0.80318 0.0
O210 O 0.40739 0.29859 0.79277 0.0
O211 O 0.48144 0.29297 0.80064 0.0
C212 C 0.56077 0.2561 0.69392 0.0
O213 O 0.55842 0.23012 0.70563 0.0
O214 O 0.54296 0.28021 0.7023 0.0
O215 O 0.53069 0.25464 0.76474 0.0
O216 O 0.49736 0.22575 0.76716 0.0
O217 O 0.49261 0.24066 0.70528 0.0
C218 C 0.45322 0.31006 0.7308 0.0
C219 C 0.52429 0.22906 0.77024 0.0
Zn220 Zn 0.96355 0.75052 0.78716 0.0
Zn221 Zn 0.00529 0.76657 0.74444 0.0
C222 C -0.01345 0.77791 0.83662 0.0
O223 O -0.01454 0.75103 0.84707 0.0
C224 C -0.01285 0.73837 0.69218 0.0
O225 O -0.01186 0.76544 0.68216 0.0
O226 O 0.93306 0.7387 0.81379 0.0
O227 O 0.94069 0.76909 0.75157 0.0
O228 O 0.97117 0.80117 0.75109 0.0
C229 C 0.91038 0.75946 0.81969 0.0
O230 O 0.90764 0.78588 0.80691 0.0
O231 O -0.0215 0.78357 0.81025 0.0
C232 C 0.05992 0.76787 0.71476 0.0
O233 O 0.06754 0.74047 0.72559 0.0
O234 O 0.03417 0.78367 0.72039 0.0
O235 O 0.02784 0.74816 0.77937 0.0
O236 O -0.00158 0.71507 0.78264 0.0
O237 O -0.00723 0.73323 0.71917 0.0
C238 C 0.94532 0.79553 0.74653 0.0
C239 C 0.0242 0.72173 0.78579 0.0
Zn240 Zn 0.74418 0.50554 0.30435 0.0
Zn241 Zn 0.70005 0.49166 0.25798 0.0
C242 C 0.71896 0.47036 0.34744 0.0
O243 O 0.71071 0.49683 0.36099 0.0
C244 C 0.72538 0.51617 0.20968 0.0
O245 O 0.73035 0.48724 0.20183 0.0
O246 O 0.77434 0.51866 0.33088 0.0
O247 O 0.76558 0.49175 0.26705 0.0
O248 O 0.73675 0.45814 0.26153 0.0
C249 C 0.79954 0.50088 0.33381 0.0
O250 O 0.80463 0.47455 0.31962 0.0
O251 O 0.73245 0.4691 0.32299 0.0
C252 C 0.64536 0.49218 0.22818 0.0
O253 O 0.63944 0.51928 0.24086 0.0
O254 O 0.6706 0.47495 0.23279 0.0
O255 O 0.67723 0.51175 0.29361 0.0
O256 O 0.71015 0.54063 0.3025 0.0
O257 O 0.71207 0.5245 0.2338 0.0
C258 C 0.76209 0.46564 0.2583 0.0
C259 C 0.68337 0.53661 0.30333 0.0
Zn260 Zn 0.73145 0.71189 0.02086 0.0
Zn261 Zn 0.7298 0.80442 0.00238 0.0
C262 C 0.75482 0.66092 0.05357 0.0
O263 O 0.75689 0.64972 0.02663 0.0
C264 C 0.70559 0.85525 0.96884 0.0
O265 O 0.70501 0.86752 0.99531 0.0
O266 O 0.70301 0.68849 0.00252 0.0
O267 O 0.71164 0.75533 0.02999 0.0
O268 O 0.69717 0.80444 0.03286 0.0
C269 C 0.67514 0.69697 0.99784 0.0
O270 O 0.66186 0.7251 0.00429 0.0
O271 O 0.7461 0.68945 0.05742 0.0
C272 C 0.78613 0.81329 0.0281 0.0
O273 O 0.79362 0.78345 0.02691 0.0
O274 O 0.76024 0.8264 0.0196 0.0
O275 O 0.74976 0.76093 0.99325 0.0
O276 O 0.76465 0.71181 0.99129 0.0
O277 O 0.71417 0.8266 0.96584 0.0
C278 C 0.69501 0.77831 0.04195 0.0
C279 C 0.76684 0.73782 0.98196 0.0
Zn280 Zn 0.46106 0.00896 0.52743 0.0
Zn281 Zn 0.50161 0.03095 0.49088 0.0
C282 C 0.40671 0.04577 0.50416 0.0
O283 O 0.39635 0.04431 0.53083 0.0
C284 C 0.54855 0.98295 0.51381 0.0
O285 O 0.55571 0.97641 0.48622 0.0
O286 O 0.43388 0.98998 0.55205 0.0
O287 O 0.48409 0.97344 0.50331 0.0
O288 O 0.48198 0.0029 0.4653 0.0
C289 C 0.44226 0.96354 0.56232 0.0
O290 O 0.47079 0.95055 0.56096 0.0
O291 O 0.43385 0.03387 0.4986 0.0
C292 C 0.52545 0.07405 0.45629 0.0
O293 O 0.49971 0.09214 0.46252 0.0
O294 O 0.53056 0.04697 0.46549 0.0
O295 O 0.47809 0.06694 0.51465 0.0
O296 O 0.48029 0.03741 0.5527 0.0
O297 O 0.52715 0.00491 0.52009 0.0
C298 C 0.48332 0.9765 0.47561 0.0
C299 C 0.47869 0.06384 0.54239 0.0
Zn300 Zn 0.49962 0.51754 0.01736 0.0
Zn301 Zn 0.45291 0.47993 0.03013 0.0
C302 C 0.47756 0.57557 0.04445 0.0
O303 O 0.48115 0.58404 0.0175 0.0
C304 C 0.48753 0.42732 0.99796 0.0
O305 O 0.49175 0.41507 0.02396 0.0
O306 O 0.53136 0.53635 -0.00037 0.0
O307 O 0.5195 0.47847 0.03621 0.0
O308 O 0.48034 0.48102 0.06458 0.0
C309 C 0.55677 0.53533 0.01156 0.0
O310 O 0.56358 0.51931 0.03532 0.0
O311 O 0.48229 0.54729 0.04981 0.0
C312 C 0.39557 0.46974 0.05137 0.0
O313 O 0.38897 0.49943 0.05542 0.0
O314 O 0.42143 0.45729 0.04202 0.0
O315 O 0.43136 0.51949 0.01348 0.0
O316 O 0.47019 0.51706 0.98476 0.0
O317 O 0.47347 0.45468 0.996 0.0
C318 C 0.50857 0.47447 0.06106 0.0
C319 C 0.44208 0.52433 0.98879 0.0
H320 H 0.9204 0.14437 0.02099 0.0
H321 H -0.0129 0.08412 0.07117 0.0
H322 H 0.91386 0.18131 0.06167 0.0
H323 H -0.01824 0.12135 0.11099 0.0
H324 H 0.94915 0.2547 0.11637 0.0
H325 H 0.94174 0.2158 0.08103 0.0
H326 H 0.95454 0.14906 0.1495 0.0
H327 H 0.96345 0.18806 0.18476 0.0
C328 C 0.93348 0.13892 0.04077 0.0
C329 C 0.95453 0.1115 0.04266 0.0
C330 C 0.9299 0.16016 0.06405 0.0
C331 C 0.94759 0.15462 0.08957 0.0
C332 C 0.96745 0.12642 0.09196 0.0
C333 C 0.97072 0.10507 0.0689 0.0
C334 C 0.94997 0.23183 0.12404 0.0
C335 C 0.95732 0.22438 0.1533 0.0
C336 C 0.94545 0.20945 0.10372 0.0
C337 C 0.94777 0.17908 0.11222 0.0
C338 C 0.95323 0.17205 0.14198 0.0
C339 C 0.95815 0.19443 0.16227 0.0
H340 H 0.7867 0.19648 0.4185 0.0
H341 H 0.87002 0.20406 0.46118 0.0
H342 H 0.8122 0.18923 0.37125 0.0
H343 H 0.89522 0.19833 0.41409 0.0
H344 H 0.93866 0.1877 0.3288 0.0
H345 H 0.91367 0.17174 0.37116 0.0
H346 H 0.82909 0.22412 0.34082 0.0
H347 H 0.85394 0.23857 0.29781 0.0
C348 C 0.81059 0.19609 0.41779 0.0
C349 C 0.82634 0.20134 0.44336 0.0
C350 C 0.82516 0.19213 0.39072 0.0
C351 C 0.85562 0.19384 0.38869 0.0
C352 C 0.87181 0.1966 0.4147 0.0
C353 C 0.85734 0.20008 0.4418 0.0
C354 C 0.91459 0.19516 0.33094 0.0
C355 C 0.89823 0.21476 0.31039 0.0
C356 C 0.90029 0.18615 0.35525 0.0
C357 C 0.86947 0.19712 0.3598 0.0
C358 C 0.8528 0.21494 0.338 0.0
C359 C 0.86704 0.22346 0.31338 0.0
H360 H 0.77645 0.01816 0.61158 0.0
H361 H 0.73231 0.08703 0.67305 0.0
H362 H 0.78292 0.05771 0.57767 0.0
H363 H 0.73788 0.12647 0.63884 0.0
H364 H 0.75023 0.13279 0.51055 0.0
H365 H 0.75228 0.09237 0.54577 0.0
H366 H 0.77121 0.15303 0.61517 0.0
H367 H 0.76815 0.19376 0.58005 0.0
C368 C 0.7683 0.04175 0.61795 0.0
C369 C 0.75372 0.0494 0.64497 0.0
C370 C 0.77181 0.06444 0.5984 0.0
C371 C 0.76069 0.09535 0.60532 0.0
C372 C 0.74707 0.10299 0.63284 0.0
C373 C 0.74373 0.08031 0.65246 0.0
C374 C 0.75512 0.13744 0.53326 0.0
C375 C 0.7588 0.1666 0.54247 0.0
C376 C 0.75647 0.11416 0.5535 0.0
C377 C 0.76177 0.1194 0.58344 0.0
C378 C 0.76653 0.1483 0.59242 0.0
C379 C 0.76497 0.17162 0.57222 0.0
H380 H 0.95587 0.0402 0.9035 0.0
H381 H 0.88262 0.03918 0.96336 0.0
H382 H 0.92184 0.04042 0.86211 0.0
H383 H 0.84854 0.03937 0.92164 0.0
H384 H 0.79261 0.06049 0.83708 0.0
H385 H 0.82545 0.07014 0.8775 0.0
H386 H 0.89592 -0.00084 0.84325 0.0
H387 H 0.86333 0.98946 0.80312 0.0
C388 C 0.93243 0.04041 0.90788 0.0
C389 C 0.92201 0.0393 0.93674 0.0
C390 C 0.91299 0.04046 0.88413 0.0
C391 C 0.88267 0.0396 0.88869 0.0
C392 C 0.87181 0.0402 0.91754 0.0
C393 C 0.89134 0.03997 0.94139 0.0
C394 C 0.81525 0.04723 0.83805 0.0
C395 C 0.82542 0.02417 0.817 0.0
C396 C 0.83392 0.05264 0.86123 0.0
C397 C 0.86319 0.03543 0.86344 0.0
C398 C 0.87357 0.013 0.84191 0.0
C399 C 0.85484 0.00733 0.81902 0.0
H400 H 0.07906 0.98552 0.031 0.0
H401 H 0.00571 0.00248 0.093 0.0
H402 H 0.11484 0.98203 0.07167 0.0
H403 H 0.04144 -0.00095 0.13335 0.0
H404 H 0.11206 0.0406 0.18605 0.0
H405 H 0.07638 0.03503 0.14733 0.0
H406 H 0.13326 0.95089 0.11826 0.0
H407 H 0.16919 0.95631 0.15746 0.0
C408 C 0.07059 0.9881 0.05325 0.0
C409 C 0.03955 0.9946 0.05876 0.0
C410 C 0.09107 0.98592 0.0765 0.0
C411 C 0.08083 0.9905 0.10557 0.0
C412 C 0.04988 0.99573 0.11109 0.0
C413 C 0.02946 -0.00238 0.08796 0.0
C414 C 0.1169 0.02077 0.17158 0.0
C415 C 0.1434 -0.0011 0.17473 0.0
C416 C 0.09638 0.0175 0.14952 0.0
C417 C 0.10207 0.9925 0.12989 0.0
C418 C 0.12844 0.97041 0.13312 0.0
C419 C 0.14884 0.97343 0.15558 0.0
H420 H 0.00307 0.36229 0.48645 0.0
H421 H -0.00661 0.43992 0.43005 0.0
H422 H 0.00723 0.3285 0.44381 0.0
H423 H -0.00145 0.40582 0.38703 0.0
H424 H 0.96682 0.33802 0.32113 0.0
H425 H 0.97002 0.37415 0.36114 0.0
H426 H 0.0371 0.30685 0.40351 0.0
H427 H 0.03309 0.27044 0.36402 0.0
C428 C 0.00236 0.37216 0.46492 0.0
C429 C -0.00222 0.40387 0.46173 0.0
C430 C 0.00496 0.35268 0.44034 0.0
C431 C 0.00323 0.36432 0.41183 0.0
C432 C -0.00041 0.39604 0.40862 0.0
C433 C -0.00313 0.4156 0.43329 0.0
C434 C -0.01749 0.33105 0.33882 0.0
C435 C -0.00055 0.3012 0.33952 0.0
C436 C -0.01552 0.35186 0.36174 0.0
C437 C 0.0036 0.34341 0.38582 0.0
C438 C 0.02162 0.314 0.3857 0.0
C439 C 0.01947 0.29313 0.36293 0.0
H440 H 0.67873 0.27176 0.54763 0.0
H441 H 0.60929 0.22695 0.5138 0.0
H442 H 0.65351 0.27892 0.59526 0.0
H443 H 0.58445 0.23381 0.56155 0.0
H444 H 0.58442 0.20734 0.65935 0.0
H445 H 0.60734 0.20786 0.61128 0.0
H446 H 0.59978 0.30522 0.6191 0.0
H447 H 0.57619 0.30499 0.66734 0.0
C448 C 0.65782 0.26395 0.55025 0.0
C449 C 0.64604 0.24857 0.52718 0.0
C450 C 0.64345 0.26812 0.57739 0.0
C451 C 0.6174 0.25655 0.58191 0.0
C452 C 0.60474 0.24263 0.55847 0.0
C453 C 0.61883 0.2389 0.53119 0.0
C454 C 0.58797 0.22885 0.65109 0.0
C455 C 0.5785 0.25616 0.66705 0.0
C456 C 0.60077 0.22914 0.62347 0.0
C457 C 0.60477 0.25664 0.61154 0.0
C458 C 0.59667 0.28381 0.62795 0.0
C459 C 0.58333 0.28362 0.65546 0.0
H460 H 0.67604 0.00607 0.8472 0.0
H461 H 0.74453 0.93581 0.80866 0.0
H462 H 0.66654 0.97074 0.88422 0.0
H463 H 0.73598 0.90081 0.84636 0.0
H464 H 0.70693 0.83799 0.91066 0.0
H465 H 0.70454 0.87085 0.8683 0.0
H466 H 0.69215 0.94979 0.92641 0.0
H467 H 0.69341 0.91723 0.96834 0.0
C468 C 0.68896 0.98301 0.84655 0.0
C469 C 0.71127 0.97383 0.82524 0.0
C470 C 0.68363 0.96277 0.86788 0.0
C471 C 0.70078 0.933 0.86863 0.0
C472 C 0.7221 0.92342 0.84637 0.0
C473 C 0.72717 0.94357 0.82481 0.0
C474 C 0.70316 0.86241 0.91429 0.0
C475 C 0.70055 0.87497 0.9429 0.0
C476 C 0.70202 0.88124 0.89002 0.0
C477 C 0.69837 0.91301 0.89386 0.0
C478 C 0.69454 0.92552 0.92246 0.0
C479 C 0.69548 0.90676 0.94663 0.0
H480 H 0.18423 0.2193 0.04417 0.0
H481 H 0.13718 0.30951 0.02199 0.0
H482 H 0.14797 0.21743 0.08273 0.0
H483 H 0.10004 0.30717 0.05978 0.0
H484 H 0.06569 0.21165 0.13451 0.0
H485 H 0.09807 0.21374 0.09274 0.0
H486 H 0.09571 0.30915 0.11172 0.0
H487 H 0.06209 0.30726 0.15292 0.0
C488 C 0.16579 0.23851 0.04718 0.0
C489 C 0.16362 0.26461 0.03017 0.0
C490 C 0.14488 0.23741 0.06923 0.0
C491 C 0.12109 0.26223 0.0745 0.0
C492 C 0.1184 0.28791 0.05674 0.0
C493 C 0.13953 0.28915 0.03491 0.0
C494 C 0.07203 0.23311 0.12973 0.0
C495 C 0.06154 0.25927 0.14708 0.0
C496 C 0.09073 0.23427 0.10583 0.0
C497 C 0.09974 0.26154 0.09893 0.0
C498 C 0.0889 0.28785 0.11613 0.0
C499 C 0.06981 0.28677 0.13986 0.0
H500 H 0.74217 0.41176 0.32995 0.0
H501 H 0.68733 0.46461 0.39717 0.0
H502 H 0.74015 0.36527 0.35584 0.0
H503 H 0.68441 0.41797 0.42259 0.0
H504 H 0.72112 0.33549 0.47895 0.0
H505 H 0.71696 0.38155 0.45092 0.0
H506 H 0.71021 0.33004 0.37081 0.0
H507 H 0.71542 0.28348 0.39898 0.0
C508 C 0.72925 0.41342 0.35003 0.0
C509 C 0.71514 0.44194 0.36165 0.0
C510 C 0.72794 0.38669 0.36481 0.0
C511 C 0.71228 0.3878 0.39146 0.0
C512 C 0.69718 0.41628 0.40244 0.0
C513 C 0.69869 0.44303 0.38777 0.0
C514 C 0.71846 0.33395 0.45538 0.0
C515 C 0.71864 0.30575 0.4412 0.0
C516 C 0.71589 0.36049 0.43927 0.0
C517 C 0.71317 0.35963 0.40855 0.0
C518 C 0.71266 0.3315 0.3944 0.0
C519 C 0.71546 0.30483 0.41054 0.0
H520 H 0.60366 0.94507 0.51033 0.0
H521 H 0.53369 0.98437 0.57151 0.0
H522 H 0.63671 0.92693 0.5514 0.0
H523 H 0.56667 0.96684 0.61224 0.0
H524 H 0.62919 0.93493 0.68357 0.0
H525 H 0.59816 0.92675 0.64119 0.0
H526 H 0.65961 0.96008 0.58415 0.0
H527 H 0.69041 0.96788 0.62603 0.0
C528 C 0.59512 0.94923 0.53248 0.0
C529 C 0.56645 0.96684 0.53778 0.0
C530 C 0.61401 0.93885 0.55595 0.0
C531 C 0.60441 0.94584 0.58501 0.0
C532 C 0.57471 0.96091 0.59015 0.0
C533 C 0.55593 0.97134 0.56677 0.0
C534 C 0.63636 0.93972 0.66185 0.0
C535 C 0.66176 0.95267 0.65808 0.0
C536 C 0.61864 0.93507 0.63765 0.0
C537 C 0.62633 0.943 0.6094 0.0
C538 C 0.65318 0.95345 0.60553 0.0
C539 C 0.67064 0.95832 0.62961 0.0
H540 H -0.01983 0.94966 0.92474 0.0
H541 H 0.03437 0.88682 0.98343 0.0
H542 H -0.0177 0.90918 0.8882 0.0
H543 H 0.03773 0.84643 0.94623 0.0
H544 H -0.00554 0.77627 0.89582 0.0
H545 H 0.00391 0.81674 0.92845 0.0
H546 H 0.00855 0.87374 0.85389 0.0
H547 H -0.00223 0.83339 0.82121 0.0
C548 C -0.00668 0.92737 0.92953 0.0
C549 C 0.00675 0.92133 0.95717 0.0
C550 C -0.00534 0.9041 0.90844 0.0
C551 C 0.0098 0.87431 0.91435 0.0
C552 C 0.02519 0.86889 0.94119 0.0
C553 C 0.0235 0.8921 0.96245 0.0
C554 C -0.00223 0.79732 0.88632 0.0
C555 C -0.00492 0.80172 0.85595 0.0
C556 C 0.00349 0.82052 0.90506 0.0
C557 C 0.00703 0.84864 0.8939 0.0
C558 C 0.00549 0.85259 0.86333 0.0
C559 C -0.00057 0.82943 0.84457 0.0
H560 H 0.04038 0.10996 0.94924 0.0
H561 H 0.10511 0.02801 0.92829 0.0
H562 H 0.07788 0.14042 0.93998 0.0
H563 H 0.1428 0.05874 0.91875 0.0
H564 H 0.2019 0.12043 0.9677 0.0
H565 H 0.16721 0.08702 0.95617 0.0
H566 H 0.11297 0.15795 0.90553 0.0
H567 H 0.14781 0.19172 0.9173 0.0
C568 C 0.06247 0.0985 0.94203 0.0
C569 C 0.07003 0.06658 0.94007 0.0
C570 C 0.08388 0.116 0.9364 0.0
C571 C 0.11332 0.10192 0.92887 0.0
C572 C 0.1203 0.07012 0.92478 0.0
C573 C 0.09874 0.05257 0.9302 0.0
C574 C 0.18288 0.12875 0.95366 0.0
C575 C 0.17721 0.15886 0.94387 0.0
C576 C 0.16318 0.10946 0.94676 0.0
C577 C 0.1373 0.11995 0.93009 0.0
C578 C 0.13267 0.1494 0.91862 0.0
C579 C 0.15259 0.16868 0.92533 0.0
H580 H 0.62266 0.54128 0.29703 0.0
H581 H 0.68956 0.59022 0.32941 0.0
H582 H 0.58428 0.58731 0.30278 0.0
H583 H 0.65105 0.63593 0.336 0.0
H584 H 0.5177 0.67186 0.32479 0.0
H585 H 0.55532 0.62636 0.33471 0.0
H586 H 0.62413 0.66992 0.30004 0.0
H587 H 0.58677 0.71551 0.29073 0.0
C588 C 0.62906 0.56165 0.30597 0.0
C589 C 0.65923 0.56233 0.31205 0.0
C590 C 0.60703 0.588 0.30949 0.0
C591 C 0.61475 0.6154 0.31941 0.0
C592 C 0.64454 0.61535 0.32769 0.0
C593 C 0.66656 0.58912 0.324 0.0
C594 C 0.54095 0.67191 0.31976 0.0
C595 C 0.54921 0.69715 0.3066 0.0
C596 C 0.56245 0.64579 0.32534 0.0
C597 C 0.59262 0.64443 0.31792 0.0
C598 C 0.60111 0.67033 0.30633 0.0
C599 C 0.57964 0.69644 0.3008 0.0
H600 H 0.3183 0.8731 0.49064 0.0
H601 H 0.32271 0.83083 0.57535 0.0
H602 H 0.35216 0.90553 0.50816 0.0
H603 H 0.35739 0.86314 0.59263 0.0
H604 H 0.3815 0.98156 0.55849 0.0
H605 H 0.34524 0.94845 0.55313 0.0
H606 H 0.41428 0.87033 0.57188 0.0
H607 H 0.4511 0.90332 0.57683 0.0
C608 C 0.32672 0.87055 0.51291 0.0
C609 C 0.31789 0.84949 0.53165 0.0
C610 C 0.34587 0.88925 0.52296 0.0
C611 C 0.35697 0.8869 0.55177 0.0
C612 C 0.34889 0.86534 0.57038 0.0
C613 C 0.32915 0.84697 0.56049 0.0
C614 C 0.38893 0.95745 0.56228 0.0
C615 C 0.41935 0.94497 0.56747 0.0
C616 C 0.36813 0.93856 0.55914 0.0
C617 C 0.37724 0.90697 0.56167 0.0
C618 C 0.40688 0.8947 0.56982 0.0
C619 C 0.42788 0.91359 0.57262 0.0
H620 H 0.02593 0.6631 0.8029 0.0
H621 H 0.0826 0.72745 0.7848 0.0
H622 H 0.07041 0.62294 0.80778 0.0
H623 H 0.1265 0.68742 0.78765 0.0
H624 H 0.20504 0.61411 0.79839 0.0
H625 H 0.16091 0.65189 0.8126 0.0
H626 H 0.10387 0.59445 0.77472 0.0
H627 H 0.14767 0.55615 0.76256 0.0
C628 C 0.04786 0.66869 0.80014 0.0
C629 C 0.05073 0.69825 0.79285 0.0
C630 C 0.07336 0.64567 0.80274 0.0
C631 C 0.10213 0.6517 0.79758 0.0
C632 C 0.1049 0.68178 0.79211 0.0
C633 C 0.07955 0.7048 0.79009 0.0
C634 C 0.18301 0.60948 0.79352 0.0
C635 C 0.17982 0.58252 0.77876 0.0
C636 C 0.15769 0.63115 0.80155 0.0
C637 C 0.12871 0.62656 0.79439 0.0
C638 C 0.12566 0.5988 0.78097 0.0
C639 C 0.1509 0.57692 0.77355 0.0
H640 H 0.8149 0.31014 0.5522 0.0
H641 H 0.81554 0.32809 0.45941 0.0
H642 H 0.84084 0.35247 0.56198 0.0
H643 H 0.84137 0.36957 0.46911 0.0
H644 H 0.8598 0.45953 0.49284 0.0
H645 H 0.82933 0.42058 0.49198 0.0
H646 H 0.89086 0.36691 0.5521 0.0
H647 H 0.92119 0.40637 0.55347 0.0
C648 C 0.82066 0.32297 0.53395 0.0
C649 C 0.81305 0.31587 0.50506 0.0
C650 C 0.83548 0.34713 0.53955 0.0
C651 C 0.84265 0.36461 0.51635 0.0
C652 C 0.83548 0.35702 0.48753 0.0
C653 C 0.82088 0.33301 0.48196 0.0
C654 C 0.86656 0.4397 0.50631 0.0
C655 C 0.89309 0.43576 0.52287 0.0
C656 C 0.84918 0.41734 0.50572 0.0
C657 C 0.8581 0.39043 0.52148 0.0
C658 C 0.88346 0.38743 0.53975 0.0
C659 C 0.90083 0.40998 0.54048 0.0
H660 H 0.27482 0.90299 0.25481 0.0
H661 H 0.32735 0.96597 0.2229 0.0
H662 H 0.31855 0.86182 0.25117 0.0
H663 H 0.37077 0.92463 0.21778 0.0
H664 H 0.44923 0.85527 0.25519 0.0
H665 H 0.40536 0.8956 0.24954 0.0
H666 H 0.35339 0.82907 0.22124 0.0
H667 H 0.39712 0.78859 0.22829 0.0
C668 C 0.29558 0.90783 0.24638 0.0
C669 C 0.29788 0.93763 0.23948 0.0
C670 C 0.32064 0.88423 0.24411 0.0
C671 C 0.34833 0.88993 0.2344 0.0
C672 C 0.35004 0.91955 0.22601 0.0
C673 C 0.32514 0.94321 0.22878 0.0
C674 C 0.42854 0.84935 0.24736 0.0
C675 C 0.42645 0.81885 0.2424 0.0
C676 C 0.40337 0.87248 0.24396 0.0
C677 C 0.37571 0.86561 0.23507 0.0
C678 C 0.37413 0.83513 0.22871 0.0
C679 C 0.39921 0.81196 0.23255 0.0
H680 H 0.34885 0.49 0.74032 0.0
H681 H 0.28988 0.44044 0.69405 0.0
H682 H 0.39001 0.4463 0.73471 0.0
H683 H 0.33123 0.39727 0.68731 0.0
H684 H 0.3925 0.31536 0.72992 0.0
H685 H 0.35492 0.36095 0.722 0.0
H686 H 0.42471 0.41114 0.70428 0.0
H687 H 0.46261 0.36544 0.71311 0.0
C688 C 0.3449 0.47007 0.72828 0.0
C689 C 0.31604 0.46827 0.71829 0.0
C690 C 0.36853 0.44508 0.72488 0.0
C691 C 0.36371 0.41807 0.71106 0.0
C692 C 0.33544 0.41743 0.69877 0.0
C693 C 0.3118 0.4422 0.70252 0.0
C694 C 0.39989 0.33598 0.72399 0.0
C695 C 0.43053 0.33686 0.72247 0.0
C696 C 0.3783 0.36213 0.71918 0.0
C697 C 0.38682 0.38973 0.71251 0.0
C698 C 0.41746 0.39031 0.70973 0.0
C699 C 0.43913 0.36411 0.71467 0.0
H700 H 0.2075 0.80503 0.61038 0.0
H701 H 0.12977 0.81591 0.55357 0.0
H702 H 0.17581 0.80136 0.65249 0.0
H703 H 0.09818 0.81201 0.59582 0.0
H704 H 0.04695 0.81877 0.68149 0.0
H705 H 0.07872 0.83508 0.64451 0.0
H706 H 0.14964 0.75888 0.66468 0.0
H707 H 0.11806 0.74259 0.70171 0.0
C708 C 0.18358 0.80722 0.60692 0.0
C709 C 0.17119 0.81023 0.57856 0.0
C710 C 0.16551 0.80498 0.63104 0.0
C711 C 0.1347 0.80595 0.6273 0.0
C712 C 0.1219 0.81129 0.59931 0.0
C713 C 0.14 0.81342 0.57512 0.0
C714 C 0.06946 0.80571 0.67829 0.0
C715 C 0.07998 0.77925 0.69434 0.0
C716 C 0.08756 0.81503 0.65708 0.0
C717 C 0.11656 0.79825 0.65177 0.0
C718 C 0.12747 0.77247 0.66859 0.0
C719 C 0.10932 0.763 0.68962 0.0
H720 H 0.2356 0.93566 0.32984 0.0
H721 H 0.18569 0.01287 0.37841 0.0
H722 H 0.23009 0.90268 0.3703 0.0
H723 H 0.17926 0.97969 0.41858 0.0
H724 H 0.20526 0.84541 0.44162 0.0
H725 H 0.19835 0.87875 0.39949 0.0
H726 H 0.2112 0.95411 0.45557 0.0
H727 H 0.21708 0.92111 0.49767 0.0
C728 C 0.22282 0.94548 0.34888 0.0
C729 C 0.21136 0.97695 0.35104 0.0
C730 C 0.21952 0.92652 0.37209 0.0
C731 C 0.20446 0.93854 0.3979 0.0
C732 C 0.19152 0.96976 0.3993 0.0
C733 C 0.19504 0.98876 0.37619 0.0
C734 C 0.20608 0.86924 0.44501 0.0
C735 C 0.21191 0.88056 0.47298 0.0
C736 C 0.20232 0.88831 0.42082 0.0
C737 C 0.20449 0.91909 0.42401 0.0
C738 C 0.20899 0.93066 0.45226 0.0
C739 C 0.21254 0.91165 0.47646 0.0
H740 H -0.01807 0.67992 0.70502 0.0
H741 H -0.0195 0.74111 0.63282 0.0
H742 H 0.97547 0.63919 0.6705 0.0
H743 H 0.9751 0.70051 0.5985 0.0
H744 H 0.0042 0.56692 0.59555 0.0
H745 H 0.00264 0.60614 0.63373 0.0
H746 H 0.94235 0.6697 0.58035 0.0
H747 H 0.9449 0.63083 0.54184 0.0
C748 C -0.01985 0.68471 0.68182 0.0
C749 C -0.01829 0.71381 0.67171 0.0
C750 C 0.97662 0.66131 0.662 0.0
C751 C 0.97467 0.66645 0.63161 0.0
C752 C 0.97587 0.69572 0.6217 0.0
C753 C -0.02079 0.71906 0.64145 0.0
C754 C -0.00981 0.58912 0.59222 0.0
C755 C 0.97489 0.59585 0.56555 0.0
C756 C -0.01076 0.61165 0.61417 0.0
C757 C 0.97273 0.64135 0.61004 0.0
C758 C 0.95595 0.64738 0.58404 0.0
C759 C 0.95719 0.625 0.56202 0.0
H760 H 0.31669 0.74385 0.47747 0.0
H761 H 0.2416 0.76202 0.41746 0.0
H762 H 0.35123 0.73839 0.43631 0.0
H763 H 0.27634 0.7561 0.37616 0.0
H764 H 0.34853 0.79465 0.3236 0.0
H765 H 0.31088 0.78844 0.35949 0.0
H766 H 0.36992 0.70836 0.39207 0.0
H767 H 0.40788 0.71479 0.35644 0.0
C768 C 0.30755 0.74611 0.45546 0.0
C769 C 0.27644 0.75374 0.45073 0.0
C770 C 0.32735 0.74277 0.43185 0.0
C771 C 0.31645 0.747 0.40305 0.0
C772 C 0.28533 0.75307 0.39819 0.0
C773 C 0.26548 0.75632 0.42182 0.0
C774 C 0.35335 0.77548 0.33814 0.0
C775 C 0.38132 0.75548 0.33748 0.0
C776 C 0.33167 0.77178 0.35855 0.0
C777 C 0.33756 0.74801 0.37868 0.0
C778 C 0.36495 0.7271 0.37703 0.0
C779 C 0.38662 0.73077 0.35659 0.0
H780 H 0.26869 0.00422 0.13214 0.0
H781 H 0.25254 0.07259 0.20156 0.0
H782 H 0.2811 0.04159 0.09893 0.0
H783 H 0.26586 0.10988 0.16849 0.0
H784 H 0.23937 0.17168 0.08773 0.0
H785 H 0.24062 0.13628 0.12747 0.0
H786 H 0.31421 0.07475 0.0854 0.0
H787 H 0.31238 0.10994 0.04502 0.0
C788 C 0.2684 0.02708 0.14049 0.0
C789 C 0.25917 0.03557 0.16932 0.0
C790 C 0.27577 0.0485 0.1215 0.0
C791 C 0.27427 0.07883 0.13098 0.0
C792 C 0.26675 0.08684 0.16036 0.0
C793 C 0.25921 0.06544 0.17932 0.0
C794 C 0.25623 0.15089 0.08718 0.0
C795 C 0.27542 0.14337 0.06295 0.0
C796 C 0.25708 0.13062 0.11013 0.0
C797 C 0.27727 0.10247 0.10945 0.0
C798 C 0.29799 0.09599 0.08627 0.0
C799 C 0.29705 0.11623 0.06322 0.0
H800 H 0.78149 0.79008 0.96187 0.0
H801 H 0.80061 0.69232 0.94917 0.0
H802 H 0.81644 0.7948 0.92268 0.0
H803 H 0.83455 0.69707 0.90927 0.0
H804 H 0.9162 0.71398 0.85953 0.0
H805 H 0.88209 0.70903 0.89934 0.0
H806 H 0.82126 0.7899 0.87065 0.0
H807 H 0.85591 0.79542 0.83153 0.0
C808 C 0.79311 0.76962 0.95066 0.0
C809 C 0.7884 0.74083 0.95866 0.0
C810 C 0.81295 0.77232 0.92803 0.0
C811 C 0.82825 0.74631 0.91272 0.0
C812 C 0.82353 0.71753 0.92086 0.0
C813 C 0.80393 0.71482 0.94365 0.0
C814 C 0.89545 0.73057 0.86163 0.0
C815 C 0.88873 0.7551 0.84244 0.0
C816 C 0.87584 0.72771 0.88441 0.0
C817 C 0.84895 0.74914 0.88829 0.0
C818 C 0.84203 0.77333 0.86868 0.0
C819 C 0.86177 0.77635 0.84609 0.0
H820 H 0.24541 0.54165 0.61292 0.0
H821 H 0.2532 0.601 0.6872 0.0
H822 H 0.24855 0.58256 0.57981 0.0
H823 H 0.25775 0.64183 0.65395 0.0
H824 H 0.22046 0.71611 0.58699 0.0
H825 H 0.22694 0.67572 0.62257 0.0
H826 H 0.27837 0.61379 0.55915 0.0
H827 H 0.27054 0.654 0.52309 0.0
C828 C 0.24837 0.56332 0.62217 0.0
C829 C 0.24884 0.56816 0.65267 0.0
C830 C 0.25043 0.5868 0.60314 0.0
C831 C 0.25343 0.61564 0.61411 0.0
C832 C 0.25496 0.62012 0.64469 0.0
C833 C 0.25251 0.59668 0.66377 0.0
C834 C 0.23359 0.69401 0.5808 0.0
C835 C 0.24473 0.68811 0.55214 0.0
C836 C 0.23744 0.6708 0.60129 0.0
C837 C 0.25288 0.64127 0.59369 0.0
C838 C 0.26569 0.63601 0.56556 0.0
C839 C 0.26144 0.65911 0.54494 0.0
H840 H 0.30715 0.98189 0.37705 0.0
H841 H 0.31357 0.06539 0.33396 0.0
H842 H 0.33008 -0.00071 0.4209 0.0
H843 H 0.33726 0.08257 0.37808 0.0
H844 H 0.42037 0.06033 0.44883 0.0
H845 H 0.38939 0.05863 0.40512 0.0
H846 H 0.31576 0.04531 0.4594 0.0
H847 H 0.34647 0.04735 0.5032 0.0
C848 C 0.31361 0.0039 0.3769 0.0
C849 C 0.30878 0.02223 0.35208 0.0
C850 C 0.32636 0.014 0.40211 0.0
C851 C 0.33496 0.0424 0.40285 0.0
C852 C 0.33052 0.06069 0.37798 0.0
C853 C 0.31714 0.05082 0.35284 0.0
C854 C 0.39723 0.05809 0.45149 0.0
C855 C 0.38594 0.05348 0.47933 0.0
C856 C 0.37954 0.05722 0.42651 0.0
C857 C 0.35048 0.0514 0.42905 0.0
C858 C 0.33827 0.04959 0.45702 0.0
C859 C 0.3558 0.0509 0.48204 0.0
H860 H 0.77655 0.87309 0.04473 0.0
H861 H 0.84692 0.79551 0.0245 0.0
H862 H 0.81329 0.90617 0.04515 0.0
H863 H 0.88356 0.8288 0.02461 0.0
H864 H 0.91356 0.90829 0.97246 0.0
H865 H 0.88375 0.87097 0.98556 0.0
H866 H 0.86352 0.91634 0.0696 0.0
H867 H 0.89399 0.9537 0.05667 0.0
C868 C 0.79997 0.86303 0.04106 0.0
C869 C 0.80889 0.83184 0.03424 0.0
C870 C 0.82096 0.88192 0.04148 0.0
C871 C 0.85109 0.86995 0.03469 0.0
C872 C 0.86036 0.83847 0.02978 0.0
C873 C 0.83944 0.81947 0.02982 0.0
C874 C 0.90292 0.91022 0.99381 0.0
C875 C 0.9058 0.93398 0.01348 0.0
C876 C 0.88619 0.88868 0.00142 0.0
C877 C 0.87161 0.89076 0.02864 0.0
C878 C 0.87472 0.91429 0.04853 0.0
C879 C 0.89203 0.93558 0.04113 0.0
H880 H 0.65308 0.18654 0.41123 0.0
H881 H 0.70106 0.10443 0.45105 0.0
H882 H 0.60955 0.163 0.40408 0.0
H883 H 0.65734 0.08142 0.44521 0.0
H884 H 0.57729 0.0419 0.43227 0.0
H885 H 0.62128 0.0616 0.41793 0.0
H886 H 0.57349 0.1532 0.43747 0.0
H887 H 0.52933 0.13356 0.45042 0.0
C888 C 0.65449 0.16326 0.41799 0.0
C889 C 0.68029 0.1475 0.43214 0.0
C890 C 0.62948 0.14984 0.41409 0.0
C891 C 0.6296 0.12054 0.42464 0.0
C892 C 0.65635 0.10392 0.43658 0.0
C893 C 0.6815 0.11719 0.4401 0.0
C894 C 0.57605 0.0663 0.43285 0.0
C895 C 0.55004 0.08618 0.44289 0.0
C896 C 0.6013 0.07759 0.42478 0.0
C897 C 0.60121 0.10896 0.42698 0.0
C898 C 0.57442 0.12893 0.43514 0.0
C899 C 0.54906 0.11767 0.44281 0.0
H900 H 0.76144 0.41157 0.22987 0.0
H901 H 0.821 0.4701 0.25974 0.0
H902 H 0.80459 0.37296 0.21486 0.0
H903 H 0.86403 0.43104 0.24629 0.0
H904 H 0.93891 0.36012 0.21113 0.0
H905 H 0.89457 0.40104 0.21033 0.0
H906 H 0.84051 0.33875 0.24116 0.0
H907 H 0.88409 0.29805 0.24071 0.0
C908 C 0.78375 0.41619 0.23317 0.0
C909 C 0.78788 0.44356 0.24651 0.0
C910 C 0.80848 0.39406 0.22467 0.0
C911 C 0.83782 0.39867 0.2298 0.0
C912 C 0.84182 0.42677 0.24172 0.0
C913 C 0.8171 0.44907 0.24977 0.0
C914 C 0.91742 0.35518 0.21728 0.0
C915 C 0.91506 0.32596 0.22628 0.0
C916 C 0.89205 0.37861 0.21694 0.0
C917 C 0.86397 0.37326 0.22584 0.0
C918 C 0.86157 0.34368 0.23367 0.0
C919 C 0.88675 0.32031 0.23371 0.0
H920 H 0.09721 0.57089 0.55377 0.0
H921 H 0.05789 0.58979 0.46794 0.0
H922 H 0.11916 0.61606 0.55135 0.0
H923 H 0.07978 0.63535 0.46572 0.0
H924 H 0.15122 0.69849 0.46635 0.0
H925 H 0.12897 0.65304 0.46415 0.0
H926 H 0.09731 0.67131 0.5531 0.0
H927 H 0.11962 0.71635 0.55548 0.0
C928 C 0.09349 0.5845 0.53424 0.0
C929 C 0.07561 0.57688 0.51115 0.0
C930 C 0.10587 0.61053 0.53298 0.0
C931 C 0.1007 0.6295 0.50858 0.0
C932 C 0.08409 0.62113 0.4848 0.0
C933 C 0.07158 0.59506 0.4861 0.0
C934 C 0.13911 0.69304 0.48526 0.0
C935 C 0.13742 0.71084 0.51119 0.0
C936 C 0.12641 0.66702 0.48398 0.0
C937 C 0.11193 0.65837 0.50864 0.0
C938 C 0.10898 0.67704 0.534 0.0
C939 C 0.12156 0.70299 0.53526 0.0
H940 H 0.69419 0.09985 0.78315 0.0
H941 H 0.63268 0.05435 0.73564 0.0
H942 H 0.65318 0.14215 0.79486 0.0
H943 H 0.59189 0.09712 0.74631 0.0
H944 H 0.51922 0.17059 0.78155 0.0
H945 H 0.55952 0.12571 0.78239 0.0
H946 H 0.62441 0.18269 0.76822 0.0
H947 H 0.58449 0.22738 0.76855 0.0
C948 C 0.67189 0.09892 0.77521 0.0
C949 C 0.66667 0.07399 0.75821 0.0
C950 C 0.6484 0.12317 0.78185 0.0
C951 C 0.61929 0.12317 0.77132 0.0
C952 C 0.61393 0.09771 0.75513 0.0
C953 C 0.63736 0.07328 0.74879 0.0
C954 C 0.54216 0.17352 0.77914 0.0
C955 C 0.54865 0.20246 0.77466 0.0
C956 C 0.56522 0.1478 0.77942 0.0
C957 C 0.59516 0.15055 0.77505 0.0
C958 C 0.60168 0.17971 0.77201 0.0
C959 C 0.57871 0.20538 0.772 0.0
H960 H 0.70297 0.57735 0.20759 0.0
H961 H 0.76879 0.50534 0.16796 0.0
H962 H 0.71483 0.61293 0.17181 0.0
H963 H 0.78184 0.54104 0.13318 0.0
H964 H 0.76357 0.59911 0.05143 0.0
H965 H 0.76005 0.56527 0.09134 0.0
H966 H 0.74888 0.64141 0.15286 0.0
H967 H 0.75107 0.67571 0.11235 0.0
C968 C 0.72039 0.56931 0.19156 0.0
C969 C 0.73463 0.53853 0.19022 0.0
C970 C 0.72738 0.58974 0.17116 0.0
C971 C 0.74911 0.57985 0.14931 0.0
C972 C 0.76445 0.54933 0.14914 0.0
C973 C 0.75707 0.52886 0.16917 0.0
C974 C 0.76078 0.60867 0.07349 0.0
C975 C 0.75739 0.64016 0.07866 0.0
C976 C 0.75894 0.58915 0.09653 0.0
C977 C 0.75406 0.60052 0.12545 0.0
C978 C 0.75212 0.6319 0.13082 0.0
C979 C 0.75365 0.65154 0.10764 0.0
H980 H 0.89279 0.54017 0.48874 0.0
H981 H 0.96304 0.52332 0.42343 0.0
H982 H 0.85545 0.53878 0.45043 0.0
H983 H 0.92562 0.52242 0.38515 0.0
H984 H 0.85726 0.47077 0.34083 0.0
H985 H 0.89454 0.48333 0.37498 0.0
H986 H 0.83132 0.56293 0.40509 0.0
H987 H 0.79378 0.55026 0.37104 0.0
C988 C 0.90018 0.53685 0.46615 0.0
C989 C 0.93086 0.53128 0.45915 0.0
C990 C 0.8788 0.53621 0.44421 0.0
C991 C 0.88775 0.53005 0.41491 0.0
C992 C 0.91821 0.5267 0.40766 0.0
C993 C 0.93958 0.52743 0.42957 0.0
C994 C 0.85135 0.49105 0.35458 0.0
C995 C 0.82255 0.5094 0.35341 0.0
C996 C 0.87279 0.4984 0.37394 0.0
C997 C 0.86581 0.52417 0.39258 0.0
C998 C 0.8372 0.54286 0.39104 0.0
C999 C 0.81578 0.53562 0.37153 0.0
H1000 H 0.11313 0.53442 0.68952 0.0
H1001 H 0.18439 0.46192 0.65901 0.0
H1002 H 0.07836 0.5166 0.65578 0.0
H1003 H 0.14939 0.44405 0.6252 0.0
H1004 H 0.08732 0.46571 0.54072 0.0
H1005 H 0.12336 0.46825 0.57994 0.0
H1006 H 0.0532 0.47239 0.64425 0.0
H1007 H 0.01698 0.47003 0.60509 0.0
C1008 C 0.12127 0.51447 0.67584 0.0
C1009 C 0.15151 0.49975 0.67667 0.0
C1010 C 0.1013 0.50408 0.65675 0.0
C1011 C 0.11123 0.4789 0.63797 0.0
C1012 C 0.14125 0.46356 0.63942 0.0
C1013 C 0.1612 0.47378 0.65876 0.0
C1014 C 0.0797 0.46641 0.56324 0.0
C1015 C 0.04921 0.46828 0.56979 0.0
C1016 C 0.10038 0.4677 0.58569 0.0
C1017 C 0.0909 0.47094 0.61504 0.0
C1018 C 0.06093 0.47033 0.62173 0.0
C1019 C 0.04027 0.46885 0.5993 0.0
H1020 H 0.55499 0.79912 0.1744 0.0
H1021 H 0.61831 0.71835 0.199 0.0
H1022 H 0.58614 0.80504 0.13255 0.0
H1023 H 0.65014 0.72488 0.15775 0.0
H1024 H 0.68307 0.72567 0.06389 0.0
H1025 H 0.65155 0.72023 0.10567 0.0
H1026 H 0.63213 0.818 0.11883 0.0
H1027 H 0.6626 0.82344 0.07632 0.0
C1028 C 0.57582 0.78288 0.17112 0.0
C1029 C 0.58418 0.75823 0.18996 0.0
C1030 C 0.59375 0.78633 0.14716 0.0
C1031 C 0.62063 0.76537 0.14166 0.0
C1032 C 0.6293 0.7411 0.16096 0.0
C1033 C 0.61119 0.73749 0.18477 0.0
C1034 C 0.67185 0.746 0.07556 0.0
C1035 C 0.67518 0.77499 0.06671 0.0
C1036 C 0.65402 0.74288 0.09972 0.0
C1037 C 0.63937 0.76867 0.11575 0.0
C1038 C 0.64269 0.79766 0.10677 0.0
C1039 C 0.66028 0.80079 0.08245 0.0
H1040 H 0.65513 0.44378 0.1894 0.0
H1041 H 0.58759 0.52052 0.21835 0.0
H1042 H 0.62145 0.43253 0.15053 0.0
H1043 H 0.55421 0.50941 0.17953 0.0
H1044 H 0.49233 0.47372 0.11855 0.0
H1045 H 0.52487 0.47176 0.16138 0.0
H1046 H 0.60242 0.45947 0.10483 0.0
H1047 H 0.56998 0.46094 0.06193 0.0
C1048 C 0.63297 0.45798 0.18773 0.0
C1049 C 0.62407 0.4832 0.20677 0.0
C1050 C 0.61378 0.45159 0.16541 0.0
C1051 C 0.58526 0.47011 0.16197 0.0
C1052 C 0.57593 0.4945 0.18184 0.0
C1053 C 0.59515 0.50101 0.20394 0.0
C1054 C 0.51636 0.47001 0.11522 0.0
C1055 C 0.52855 0.46804 0.08681 0.0
C1056 C 0.53496 0.46903 0.13977 0.0
C1057 C 0.56611 0.46589 0.13642 0.0
C1058 C 0.57849 0.46179 0.1081 0.0
C1059 C 0.55988 0.46285 0.08351 0.0
H1060 H 0.33601 0.48899 0.06481 0.0
H1061 H 0.40203 0.40869 0.04164 0.0
H1062 H 0.29646 0.45932 0.06059 0.0
H1063 H 0.36276 0.37956 0.03644 0.0
H1064 H 0.23738 0.40857 0.00132 0.0
H1065 H 0.27303 0.43822 0.02015 0.0
H1066 H 0.3255 0.35724 0.05838 0.0
H1067 H 0.29043 0.32738 0.03844 0.0
C1068 C 0.34213 0.46497 0.0592 0.0
C1069 C 0.3721 0.45129 0.05323 0.0
C1070 C 0.31946 0.44802 0.0566 0.0
C1071 C 0.32636 0.41712 0.04791 0.0
C1072 C 0.35657 0.40316 0.04355 0.0
C1073 C 0.37915 0.42 0.04629 0.0
C1074 C 0.25631 0.39719 0.0141 0.0
C1075 C 0.26142 0.36559 0.018 0.0
C1076 C 0.27665 0.41424 0.02511 0.0
C1077 C 0.30233 0.40006 0.04055 0.0
C1078 C 0.30631 0.36875 0.04604 0.0
C1079 C 0.28618 0.35165 0.0347 0.0
H1080 H 0.02523 0.17591 0.28786 0.0
H1081 H 0.0843 0.22259 0.24068 0.0
H1082 H 0.06668 0.13342 0.2959 0.0
H1083 H 0.12569 0.17957 0.24794 0.0
H1084 H 0.19926 0.10559 0.28172 0.0
H1085 H 0.15906 0.15048 0.28309 0.0
H1086 H 0.0943 0.09354 0.2652 0.0
H1087 H 0.13429 0.04867 0.26474 0.0
C1088 C 0.04715 0.17709 0.27928 0.0
C1089 C 0.05155 0.20236 0.26339 0.0
C1090 C 0.07084 0.15271 0.28379 0.0
C1091 C 0.09935 0.15296 0.27225 0.0
C1092 C 0.10404 0.17881 0.25735 0.0
C1093 C 0.08034 0.20339 0.25308 0.0
C1094 C 0.17638 0.10265 0.2784 0.0
C1095 C 0.16992 0.07364 0.27294 0.0
C1096 C 0.1534 0.12838 0.27903 0.0
C1097 C 0.12354 0.12559 0.2741 0.0
C1098 C 0.11703 0.09645 0.2695 0.0
C1099 C 0.13997 0.07072 0.26906 0.0
H1100 H 0.23712 0.33026 0.88812 0.0
H1101 H 0.15189 0.38281 0.91762 0.0
H1102 H 0.24245 0.37047 0.85483 0.0
H1103 H 0.15703 0.42292 0.88374 0.0
H1104 H 0.20673 0.50183 0.86332 0.0
H1105 H 0.19095 0.45912 0.88633 0.0
H1106 H 0.22469 0.40106 0.81218 0.0
H1107 H 0.241 0.4438 0.78926 0.0
C1108 C 0.21913 0.35006 0.88696 0.0
C1109 C 0.19434 0.35361 0.90592 0.0
C1110 C 0.22212 0.37307 0.86771 0.0
C1111 C 0.20037 0.40009 0.867 0.0
C1112 C 0.17441 0.40257 0.88424 0.0
C1113 C 0.17139 0.3795 0.90349 0.0
C1114 C 0.21055 0.48004 0.85177 0.0
C1115 C 0.22546 0.4761 0.82466 0.0
C1116 C 0.20121 0.45561 0.86483 0.0
C1117 C 0.20657 0.42669 0.85106 0.0
C1118 C 0.22049 0.42301 0.82342 0.0
C1119 C 0.22981 0.44749 0.81031 0.0
H1120 H 0.28037 0.2858 0.94376 0.0
H1121 H 0.30406 0.18917 0.92486 0.0
H1122 H 0.31382 0.2952 0.9049 0.0
H1123 H 0.33654 0.19853 0.88534 0.0
H1124 H 0.41683 0.22269 0.83944 0.0
H1125 H 0.38275 0.21338 0.87747 0.0
H1126 H 0.31957 0.29445 0.853 0.0
H1127 H 0.35442 0.30442 0.81565 0.0
C1128 C 0.29261 0.26661 0.93117 0.0
C1129 C 0.28975 0.23676 0.93739 0.0
C1130 C 0.3116 0.27198 0.90876 0.0
C1131 C 0.32788 0.24762 0.89195 0.0
C1132 C 0.32479 0.21779 0.89816 0.0
C1133 C 0.30609 0.21241 0.92076 0.0
C1134 C 0.39557 0.23841 0.84202 0.0
C1135 C 0.38828 0.26429 0.82459 0.0
C1136 C 0.37594 0.23301 0.86378 0.0
C1137 C 0.34839 0.25317 0.86834 0.0
C1138 C 0.34084 0.27875 0.85043 0.0
C1139 C 0.36067 0.28435 0.82888 0.0
H1140 H 0.45866 0.53437 0.93322 0.0
H1141 H 0.38063 0.53243 0.98648 0.0
H1142 H 0.42747 0.5394 0.88941 0.0
H1143 H 0.34939 0.53761 0.9423 0.0
H1144 H 0.30134 0.56714 0.85449 0.0
H1145 H 0.33139 0.57268 0.89831 0.0
H1146 H 0.401 0.49958 0.86626 0.0
H1147 H 0.37112 0.49386 0.82275 0.0
C1148 C 0.43478 0.53549 0.93567 0.0
C1149 C 0.42218 0.53251 0.96329 0.0
C1150 C 0.41698 0.53831 0.91054 0.0
C1151 C 0.38618 0.53849 0.91251 0.0
C1152 C 0.37312 0.53761 0.94026 0.0
C1153 C 0.39101 0.53456 0.9655 0.0
C1154 C 0.32321 0.5525 0.85671 0.0
C1155 C 0.33393 0.53004 0.83526 0.0
C1156 C 0.34025 0.55559 0.8818 0.0
C1157 C 0.36847 0.53664 0.88553 0.0
C1158 C 0.37944 0.51472 0.86373 0.0
C1159 C 0.36228 0.51134 0.83893 0.0
H1160 H 0.61401 0.70265 0.99736 0.0
H1161 H 0.69671 0.63817 0.98088 0.0
H1162 H 0.58625 0.66129 0.99364 0.0
H1163 H 0.66893 0.59707 0.9771 0.0
H1164 H 0.61418 0.53636 0.02859 0.0
H1165 H 0.64318 0.57504 0.01755 0.0
H1166 H 0.57191 0.61983 0.96134 0.0
H1167 H 0.5428 0.58117 0.97232 0.0
C1168 C 0.62615 0.67984 0.99224 0.0
C1169 C 0.65756 0.6736 0.98994 0.0
C1170 C 0.61027 0.65618 0.99002 0.0
C1171 C 0.62557 0.62597 0.98549 0.0
C1172 C 0.65669 0.6201 0.98108 0.0
C1173 C 0.67252 0.64369 0.98319 0.0
C1174 C 0.60492 0.55414 0.01348 0.0
C1175 C 0.57614 0.55587 0.00155 0.0
C1176 C 0.62158 0.57619 0.00702 0.0
C1177 C 0.60966 0.60048 0.9887 0.0
C1178 C 0.58147 0.60146 0.97571 0.0
C1179 C 0.56493 0.57924 0.98192 0.0
H1180 H 0.89069 0.79098 0.72337 0.0
H1181 H 0.94409 0.85613 0.75149 0.0
H1182 H 0.84925 0.83271 0.71183 0.0
H1183 H 0.90255 0.89753 0.74161 0.0
H1184 H 0.83087 0.9696 0.7063 0.0
H1185 H 0.87274 0.9262 0.70646 0.0
H1186 H 0.81326 0.86886 0.73664 0.0
H1187 H 0.77141 0.91174 0.73479 0.0
C1188 C 0.89351 0.81421 0.72711 0.0
C1189 C 0.92052 0.82034 0.73836 0.0
C1190 C 0.86977 0.83812 0.72065 0.0
C1191 C 0.87247 0.86856 0.72583 0.0
C1192 C 0.89977 0.8745 0.73669 0.0
C1193 C 0.92358 0.8507 0.74263 0.0
C1194 C 0.82682 0.94758 0.71258 0.0
C1195 C 0.79803 0.94402 0.72069 0.0
C1196 C 0.85078 0.92274 0.71285 0.0
C1197 C 0.8465 0.89402 0.72186 0.0
C1198 C 0.81741 0.89042 0.72912 0.0
C1199 C 0.79339 0.9151 0.72829 0.0
H1200 H 0.47129 0.1912 0.69254 0.0
H1201 H 0.49762 0.23845 0.61853 0.0
H1202 H 0.46606 0.14841 0.66017 0.0
H1203 H 0.49391 0.19547 0.58657 0.0
H1204 H 0.46323 0.12435 0.52949 0.0
H1205 H 0.46258 0.16801 0.56237 0.0
H1206 H 0.49356 0.10722 0.63341 0.0
H1207 H 0.49271 0.06371 0.6008 0.0
C1208 C 0.47593 0.19246 0.66937 0.0
C1209 C 0.48467 0.21836 0.65814 0.0
C1210 C 0.47321 0.16779 0.65077 0.0
C1211 C 0.47958 0.16821 0.62055 0.0
C1212 C 0.48814 0.19432 0.60946 0.0
C1213 C 0.49044 0.21906 0.62793 0.0
C1214 C 0.46977 0.12034 0.55217 0.0
C1215 C 0.47805 0.09052 0.56247 0.0
C1216 C 0.46959 0.14543 0.57108 0.0
C1217 C 0.47818 0.1414 0.60073 0.0
C1218 C 0.48629 0.11145 0.61098 0.0
C1219 C 0.48604 0.08639 0.59216 0.0
H1220 H 0.49553 0.3428 0.82188 0.0
H1221 H 0.49402 0.27246 0.8849 0.0
H1222 H 0.50172 0.37829 0.8618 0.0
H1223 H 0.49889 0.3079 0.92458 0.0
H1224 H 0.52287 0.37049 0.99297 0.0
H1225 H 0.52901 0.33649 0.95007 0.0
H1226 H 0.4728 0.40636 0.89965 0.0
H1227 H 0.4679 0.44066 0.94209 0.0
C1228 C 0.49668 0.33486 0.84421 0.0
C1229 C 0.49416 0.30482 0.85018 0.0
C1230 C 0.50003 0.35526 0.86715 0.0
C1231 C 0.5007 0.34612 0.89658 0.0
C1232 C 0.49904 0.31577 0.90231 0.0
C1233 C 0.49598 0.2954 0.87945 0.0
C1234 C 0.51226 0.37873 0.97256 0.0
C1235 C 0.49466 0.40817 0.97106 0.0
C1236 C 0.51558 0.35916 0.94798 0.0
C1237 C 0.50099 0.36838 0.92138 0.0
C1238 C 0.48463 0.39842 0.91955 0.0
C1239 C 0.48166 0.41811 0.94403 0.0
H1240 H 0.46218 0.8509 0.33109 0.0
H1241 H 0.51004 0.79363 0.39789 0.0
H1242 H 0.46243 0.8957 0.36234 0.0
H1243 H 0.51127 0.83836 0.42868 0.0
H1244 H 0.47847 0.91886 0.49043 0.0
H1245 H 0.47934 0.87483 0.45809 0.0
H1246 H 0.49198 0.92883 0.38343 0.0
H1247 H 0.49005 0.97321 0.41581 0.0
C1248 C 0.47314 0.8479 0.35227 0.0
C1249 C 0.48596 0.81862 0.36201 0.0
C1250 C 0.4734 0.87365 0.37021 0.0
C1251 C 0.48668 0.8708 0.39826 0.0
C1252 C 0.50023 0.84151 0.40756 0.0
C1253 C 0.49975 0.8158 0.38975 0.0
C1254 C 0.48147 0.92136 0.46711 0.0
C1255 C 0.48422 0.94961 0.45575 0.0
C1256 C 0.48217 0.89599 0.44851 0.0
C1257 C 0.48591 0.89805 0.41802 0.0
C1258 C 0.48868 0.92636 0.40669 0.0
C1259 C 0.48775 0.95183 0.4253 0.0
H1260 H 0.47227 0.63697 0.04039 0.0
H1261 H 0.47157 0.56639 0.10337 0.0
H1262 H 0.46977 0.67432 0.07995 0.0
H1263 H 0.46799 0.60421 0.14326 0.0
H1264 H 0.50489 0.67333 0.20408 0.0
H1265 H 0.499 0.63442 0.16748 0.0
H1266 H 0.44021 0.70241 0.11722 0.0
H1267 H 0.44713 0.74134 0.15317 0.0
C1268 C 0.47099 0.62949 0.0627 0.0
C1269 C 0.47225 0.59863 0.06866 0.0
C1270 C 0.46935 0.65103 0.0855 0.0
C1271 C 0.46867 0.6424 0.11495 0.0
C1272 C 0.46889 0.61164 0.1209 0.0
C1273 C 0.4707 0.58999 0.09801 0.0
C1274 C 0.49039 0.67984 0.1854 0.0
C1275 C 0.47678 0.71046 0.18131 0.0
C1276 C 0.48689 0.6575 0.16443 0.0
C1277 C 0.46943 0.66526 0.13909 0.0
C1278 C 0.45445 0.69566 0.13602 0.0
C1279 C 0.45825 0.718 0.15674 0.0
loop_
_geom_bond_atom_site_label_1
_geom_bond_atom_site_label_2
_geom_bond_distance
_geom_bond_site_symmetry_2
_ccdc_geom_bond_type
Zn0 O6 1.969 1_554 S
Zn0 O7 1.965 . S
Zn0 O11 2.024 1_455 S
Zn0 O16 1.969 1_454 S
Zn1 O8 1.969 1_656 S
Zn1 O14 1.969 1_556 S
Zn1 O15 1.965 1_565 S
Zn1 O17 2.024 1_655 S
C2 O3 1.229 . S
C2 O11 1.058 . S
O3 C2 1.229 . S
C4 O5 1.229 . S
C4 O17 1.058 . S
O5 C4 1.229 . S
O6 Zn0 1.969 1_556 S
O6 C9 1.289 . S
O7 Zn0 1.965 . S
O7 C18 1.260 1_545 S
O8 Zn1 1.969 1_454 S
O8 C18 1.258 . S
C9 O6 1.289 . S
C9 O10 1.189 1_556 S
O10 C9 1.189 1_554 S
O11 Zn0 2.024 1_655 S
O11 C2 1.058 . S
C12 O13 1.228 1_554 S
C12 O14 1.267 . S
O13 C12 1.228 1_556 S
O14 Zn1 1.969 1_554 S
O14 C12 1.267 . S
O15 Zn1 1.965 1_545 S
O15 C19 1.260 . S
O16 Zn0 1.969 1_656 S
O16 C19 1.258 . S
O17 Zn1 2.024 1_455 S
O17 C4 1.058 . S
C18 O7 1.260 1_565 S
C18 O8 1.258 . S
C19 O15 1.260 . S
C19 O16 1.258 . S
Zn20 O26 1.969 1_455 S
Zn20 O27 1.965 1_455 S
Zn20 O31 2.024 . S
Zn20 O36 1.969 . S
Zn21 O28 1.969 1_455 S
Zn21 O34 1.969 . S
Zn21 O35 1.965 . S
Zn21 O37 2.024 . S
C22 O23 1.229 . S
C22 O31 1.058 . S
O23 C22 1.229 . S
C24 O25 1.229 . S
C24 O37 1.058 . S
O25 C24 1.229 . S
O26 Zn20 1.969 1_655 S
O26 C29 1.267 . S
O27 Zn20 1.965 1_655 S
O27 C38 1.260 . S
O28 Zn21 1.969 1_655 S
O28 C38 1.258 . S
C29 O26 1.267 . S
C29 O30 1.228 . S
O30 C29 1.228 . S
O31 Zn20 2.024 . S
O31 C22 1.058 . S
C32 O33 1.228 . S
C32 O34 1.267 . S
O33 C32 1.228 . S
O34 Zn21 1.969 . S
O34 C32 1.267 . S
O35 Zn21 1.965 . S
O35 C39 1.260 . S
O36 Zn20 1.969 . S
O36 C39 1.258 . S
O37 Zn21 2.024 . S
O37 C24 1.058 . S
C38 O27 1.260 . S
C38 O28 1.258 . S
C39 O35 1.260 . S
C39 O36 1.258 . S
Zn40 O46 1.969 . S
Zn40 O47 1.965 . S
Zn40 O51 2.024 . S
Zn40 O56 1.969 . S
Zn41 O48 1.969 . S
Zn41 O54 1.969 . S
Zn41 O55 1.965 . S
Zn41 O57 2.024 . S
C42 O43 1.229 . S
C42 O51 1.058 . S
O43 C42 1.229 . S
C44 O45 1.229 . S
C44 O57 1.058 . S
O45 C44 1.229 . S
O46 Zn40 1.969 . S
O46 C49 1.267 . S
O47 Zn40 1.965 . S
O47 C58 1.260 . S
O48 Zn41 1.969 . S
O48 C58 1.258 . S
C49 O46 1.267 . S
C49 O50 1.228 . S
O50 C49 1.228 . S
O51 Zn40 2.024 . S
O51 C42 1.058 . S
C52 O53 1.228 . S
C52 O54 1.267 . S
O53 C52 1.228 . S
O54 Zn41 1.969 . S
O54 C52 1.267 . S
O55 Zn41 1.965 . S
O55 C59 1.260 . S
O56 Zn40 1.969 . S
O56 C59 1.258 . S
O57 Zn41 2.024 . S
O57 C44 1.058 . S
C58 O47 1.260 . S
C58 O48 1.258 . S
C59 O55 1.260 . S
C59 O56 1.258 . S
Zn60 O66 1.969 . S
Zn60 O67 1.965 . S
Zn60 O71 2.024 1_545 S
Zn60 O76 1.969 . S
Zn61 O68 1.969 . S
Zn61 O74 1.969 . S
Zn61 O75 1.965 . S
Zn61 O77 2.024 . S
C62 O63 1.229 1_565 S
C62 O71 1.058 . S
O63 C62 1.229 1_545 S
C64 O65 1.229 . S
C64 O77 1.058 . S
O65 C64 1.229 . S
O66 Zn60 1.969 . S
O66 C69 1.267 . S
O67 Zn60 1.965 . S
O67 C78 1.260 . S
O68 Zn61 1.969 . S
O68 C78 1.258 . S
C69 O66 1.267 . S
C69 O70 1.228 . S
O70 C69 1.228 . S
O71 Zn60 2.024 1_565 S
O71 C62 1.058 . S
C72 O73 1.228 . S
C72 O74 1.267 . S
O73 C72 1.228 . S
O74 Zn61 1.969 . S
O74 C72 1.267 . S
O75 Zn61 1.965 . S
O75 C79 1.260 . S
O76 Zn60 1.969 . S
O76 C79 1.258 . S
O77 Zn61 2.024 . S
O77 C64 1.058 . S
C78 O67 1.260 . S
C78 O68 1.258 . S
C79 O75 1.260 . S
C79 O76 1.258 . S
Zn80 O86 1.969 . S
Zn80 O87 1.965 . S
Zn80 O91 2.024 . S
Zn80 O96 1.969 . S
Zn81 O88 1.969 . S
Zn81 O94 1.969 . S
Zn81 O95 1.965 . S
Zn81 O97 2.024 . S
C82 O83 1.229 . S
C82 O91 1.058 . S
O83 C82 1.229 . S
C84 O85 1.229 . S
C84 O97 1.058 . S
O85 C84 1.229 . S
O86 Zn80 1.969 . S
O86 C89 1.267 . S
O87 Zn80 1.965 . S
O87 C98 1.260 . S
O88 Zn81 1.969 . S
O88 C98 1.258 . S
C89 O86 1.267 . S
C89 O90 1.228 . S
O90 C89 1.228 . S
O91 Zn80 2.024 . S
O91 C82 1.058 . S
C92 O93 1.228 . S
C92 O94 1.267 . S
O93 C92 1.228 . S
O94 Zn81 1.969 . S
O94 C92 1.267 . S
O95 Zn81 1.965 . S
O95 C99 1.260 . S
O96 Zn80 1.969 . S
O96 C99 1.258 . S
O97 Zn81 2.024 . S
O97 C84 1.058 . S
C98 O87 1.260 . S
C98 O88 1.258 . S
C99 O95 1.260 . S
C99 O96 1.258 . S
Zn100 O106 1.969 . S
Zn100 O107 1.965 . S
Zn100 O111 2.024 . S
Zn100 O116 1.969 . S
Zn101 O108 1.969 . S
Zn101 O114 1.969 . S
Zn101 O115 1.965 . S
Zn101 O117 2.024 . S
C102 O103 1.229 . S
C102 O111 1.058 . S
O103 C102 1.229 . S
C104 O105 1.229 . S
C104 O117 1.058 . S
O105 C104 1.229 . S
O106 Zn100 1.969 . S
O106 C109 1.267 . S
O107 Zn100 1.965 . S
O107 C118 1.260 . S
O108 Zn101 1.969 . S
O108 C118 1.258 . S
C109 O106 1.267 . S
C109 O110 1.228 . S
O110 C109 1.228 . S
O111 Zn100 2.024 . S
O111 C102 1.058 . S
C112 O113 1.228 . S
C112 O114 1.267 . S
O113 C112 1.228 . S
O114 Zn101 1.969 . S
O114 C112 1.267 . S
O115 Zn101 1.965 . S
O115 C119 1.260 . S
O116 Zn100 1.969 . S
O116 C119 1.258 . S
O117 Zn101 2.024 . S
O117 C104 1.058 . S
C118 O107 1.260 . S
C118 O108 1.258 . S
C119 O115 1.260 . S
C119 O116 1.258 . S
Zn120 O126 1.969 . S
Zn120 O127 1.965 . S
Zn120 O131 2.024 . S
Zn120 O136 1.969 . S
Zn121 O128 1.969 . S
Zn121 O134 1.969 . S
Zn121 O135 1.965 . S
Zn121 O137 2.024 . S
C122 O123 1.229 . S
C122 O131 1.058 . S
O123 C122 1.229 . S
C124 O125 1.229 . S
C124 O137 1.058 . S
O125 C124 1.229 . S
O126 Zn120 1.969 . S
O126 C129 1.267 . S
O127 Zn120 1.965 . S
O127 C138 1.260 . S
O128 Zn121 1.969 . S
O128 C138 1.258 . S
C129 O126 1.267 . S
C129 O130 1.228 . S
O130 C129 1.228 . S
O131 Zn120 2.024 . S
O131 C122 1.058 . S
C132 O133 1.228 . S
C132 O134 1.267 . S
O133 C132 1.228 . S
O134 Zn121 1.969 . S
O134 C132 1.267 . S
O135 Zn121 1.965 . S
O135 C139 1.260 . S
O136 Zn120 1.969 . S
O136 C139 1.258 . S
O137 Zn121 2.024 . S
O137 C124 1.058 . S
C138 O127 1.260 . S
C138 O128 1.258 . S
C139 O135 1.260 . S
C139 O136 1.258 . S
Zn140 O146 1.969 . S
Zn140 O147 1.965 . S
Zn140 O151 2.024 . S
Zn140 O156 1.969 1_455 S
Zn141 O148 1.969 . S
Zn141 O154 1.969 1_455 S
Zn141 O155 1.965 1_455 S
Zn141 O157 2.024 . S
C142 O143 1.229 . S
C142 O151 1.058 1_655 S
O143 C142 1.229 . S
C144 O145 1.229 . S
C144 O157 1.058 . S
O145 C144 1.229 . S
O146 Zn140 1.969 . S
O146 C149 1.267 . S
O147 Zn140 1.965 . S
O147 C158 1.260 . S
O148 Zn141 1.969 . S
O148 C158 1.258 . S
C149 O146 1.267 . S
C149 O150 1.228 . S
O150 C149 1.228 . S
O151 Zn140 2.024 . S
O151 C142 1.058 1_455 S
C152 O153 1.228 . S
C152 O154 1.267 . S
O153 C152 1.228 . S
O154 Zn141 1.969 1_655 S
O154 C152 1.267 . S
O155 Zn141 1.965 1_655 S
O155 C159 1.260 . S
O156 Zn140 1.969 1_655 S
O156 C159 1.258 . S
O157 Zn141 2.024 . S
O157 C144 1.058 . S
C158 O147 1.260 . S
C158 O148 1.258 . S
C159 O155 1.260 . S
C159 O156 1.258 . S
Zn160 O166 1.969 1_554 S
Zn160 O167 1.965 . S
Zn160 O171 2.024 . S
Zn160 O176 1.969 1_554 S
Zn161 O168 1.969 1_556 S
Zn161 O174 1.969 1_556 S
Zn161 O175 1.965 . S
Zn161 O177 2.024 . S
C162 O163 1.229 . S
C162 O171 1.058 . S
O163 C162 1.229 . S
C164 O165 1.229 . S
C164 O177 1.058 . S
O165 C164 1.229 . S
O166 Zn160 1.969 1_556 S
O166 C169 1.289 . S
O167 Zn160 1.965 . S
O167 C178 1.260 . S
O168 Zn161 1.969 1_554 S
O168 C178 1.258 . S
C169 O166 1.289 . S
C169 O170 1.189 1_556 S
O170 C169 1.189 1_554 S
O171 Zn160 2.024 . S
O171 C162 1.058 . S
C172 O173 1.228 1_554 S
C172 O174 1.267 . S
O173 C172 1.228 1_556 S
O174 Zn161 1.969 1_554 S
O174 C172 1.267 . S
O175 Zn161 1.965 . S
O175 C179 1.260 . S
O176 Zn160 1.969 1_556 S
O176 C179 1.258 . S
O177 Zn161 2.024 . S
O177 C164 1.058 . S
C178 O167 1.260 . S
C178 O168 1.258 . S
C179 O175 1.260 . S
C179 O176 1.258 . S
Zn180 O186 1.969 1_565 S
Zn180 O187 1.965 . S
Zn180 O191 2.024 . S
Zn180 O196 1.969 1_565 S
Zn181 O188 1.969 1_545 S
Zn181 O194 1.969 1_545 S
Zn181 O195 1.965 . S
Zn181 O197 2.024 . S
C182 O183 1.229 . S
C182 O191 1.058 . S
O183 C182 1.229 . S
C184 O185 1.229 . S
C184 O197 1.058 . S
O185 C184 1.229 . S
O186 Zn180 1.969 1_545 S
O186 C189 1.286 . S
O187 Zn180 1.965 . S
O187 C198 1.260 . S
O188 Zn181 1.969 1_565 S
O188 C198 1.258 . S
C189 O186 1.286 . S
C189 O190 1.189 1_545 S
O190 C189 1.189 1_565 S
O191 Zn180 2.024 . S
O191 C182 1.058 . S
C192 O193 1.219 1_565 S
C192 O194 1.272 . S
O193 C192 1.219 1_545 S
O194 Zn181 1.969 1_565 S
O194 C192 1.272 . S
O195 Zn181 1.965 . S
O195 C199 1.260 . S
O196 Zn180 1.969 1_545 S
O196 C199 1.258 . S
O197 Zn181 2.024 . S
O197 C184 1.058 . S
C198 O187 1.260 . S
C198 O188 1.258 . S
C199 O195 1.260 . S
C199 O196 1.258 . S
Zn200 O206 1.969 . S
Zn200 O207 1.965 . S
Zn200 O211 2.024 . S
Zn200 O216 1.969 . S
Zn201 O208 1.969 . S
Zn201 O214 1.969 . S
Zn201 O215 1.965 . S
Zn201 O217 2.024 . S
C202 O203 1.229 . S
C202 O211 1.058 . S
O203 C202 1.229 . S
C204 O205 1.229 . S
C204 O217 1.058 . S
O205 C204 1.229 . S
O206 Zn200 1.969 . S
O206 C209 1.267 . S
O207 Zn200 1.965 . S
O207 C218 1.260 . S
O208 Zn201 1.969 . S
O208 C218 1.258 . S
C209 O206 1.267 . S
C209 O210 1.228 . S
O210 C209 1.228 . S
O211 Zn200 2.024 . S
O211 C202 1.058 . S
C212 O213 1.228 . S
C212 O214 1.267 . S
O213 C212 1.228 . S
O214 Zn201 1.969 . S
O214 C212 1.267 . S
O215 Zn201 1.965 . S
O215 C219 1.260 . S
O216 Zn200 1.969 . S
O216 C219 1.258 . S
O217 Zn201 2.024 . S
O217 C204 1.058 . S
C218 O207 1.260 . S
C218 O208 1.258 . S
C219 O215 1.260 . S
C219 O216 1.258 . S
Zn220 O226 1.969 . S
Zn220 O227 1.965 . S
Zn220 O231 2.024 1_655 S
Zn220 O236 1.969 1_655 S
Zn221 O228 1.969 1_455 S
Zn221 O234 1.969 . S
Zn221 O235 1.965 . S
Zn221 O237 2.024 1_455 S
C222 O223 1.229 . S
C222 O231 1.058 . S
O223 C222 1.229 . S
C224 O225 1.229 . S
C224 O237 1.058 . S
O225 C224 1.229 . S
O226 Zn220 1.969 . S
O226 C229 1.267 . S
O227 Zn220 1.965 . S
O227 C238 1.260 . S
O228 Zn221 1.969 1_655 S
O228 C238 1.258 . S
C229 O226 1.267 . S
C229 O230 1.228 . S
O230 C229 1.228 . S
O231 Zn220 2.024 1_455 S
O231 C222 1.058 . S
C232 O233 1.228 . S
C232 O234 1.267 . S
O233 C232 1.228 . S
O234 Zn221 1.969 . S
O234 C232 1.267 . S
O235 Zn221 1.965 . S
O235 C239 1.260 . S
O236 Zn220 1.969 1_455 S
O236 C239 1.258 . S
O237 Zn221 2.024 1_655 S
O237 C224 1.058 . S
C238 O227 1.260 . S
C238 O228 1.258 . S
C239 O235 1.260 . S
C239 O236 1.258 . S
Zn240 O246 1.969 . S
Zn240 O247 1.965 . S
Zn240 O251 2.024 . S
Zn240 O256 1.969 . S
Zn241 O248 1.969 . S
Zn241 O254 1.969 . S
Zn241 O255 1.965 . S
Zn241 O257 2.024 . S
C242 O243 1.229 . S
C242 O251 1.058 . S
O243 C242 1.229 . S
C244 O245 1.229 . S
C244 O257 1.058 . S
O245 C244 1.229 . S
O246 Zn240 1.969 . S
O246 C249 1.267 . S
O247 Zn240 1.965 . S
O247 C258 1.260 . S
O248 Zn241 1.969 . S
O248 C258 1.258 . S
C249 O246 1.267 . S
C249 O250 1.228 . S
O250 C249 1.228 . S
O251 Zn240 2.024 . S
O251 C242 1.058 . S
C252 O253 1.228 . S
C252 O254 1.267 . S
O253 C252 1.228 . S
O254 Zn241 1.969 . S
O254 C252 1.267 . S
O255 Zn241 1.965 . S
O255 C259 1.260 . S
O256 Zn240 1.969 . S
O256 C259 1.258 . S
O257 Zn241 2.024 . S
O257 C244 1.058 . S
C258 O247 1.260 . S
C258 O248 1.258 . S
C259 O255 1.260 . S
C259 O256 1.258 . S
Zn260 O266 1.969 1_554 S
Zn260 O267 1.965 . S
Zn260 O271 2.024 . S
Zn260 O276 1.969 1_554 S
Zn261 O268 1.969 . S
Zn261 O274 1.969 . S
Zn261 O275 1.965 1_554 S
Zn261 O277 2.024 1_554 S
C262 O263 1.229 . S
C262 O271 1.058 . S
O263 C262 1.229 . S
C264 O265 1.229 . S
C264 O277 1.058 . S
O265 C264 1.229 . S
O266 Zn260 1.969 1_556 S
O266 C269 1.267 1_556 S
O267 Zn260 1.965 . S
O267 C278 1.260 . S
O268 Zn261 1.969 . S
O268 C278 1.258 . S
C269 O266 1.267 1_554 S
C269 O270 1.228 . S
O270 C269 1.228 . S
O271 Zn260 2.024 . S
O271 C262 1.058 . S
C272 O273 1.228 1_554 S
C272 O274 1.267 . S
O273 C272 1.228 1_556 S
O274 Zn261 1.969 . S
O274 C272 1.267 . S
O275 Zn261 1.965 1_556 S
O275 C279 1.260 . S
O276 Zn260 1.969 1_556 S
O276 C279 1.258 . S
O277 Zn261 2.024 1_556 S
O277 C264 1.058 . S
C278 O267 1.260 . S
C278 O268 1.258 . S
C279 O275 1.260 . S
C279 O276 1.258 . S
Zn280 O286 1.969 1_545 S
Zn280 O287 1.965 1_545 S
Zn280 O291 2.024 . S
Zn280 O296 1.969 . S
Zn281 O288 1.993 . S
Zn281 O294 1.969 . S
Zn281 O295 1.965 . S
Zn281 O297 2.024 . S
C282 O283 1.229 . S
C282 O291 1.058 . S
O283 C282 1.229 . S
C284 O285 1.229 . S
C284 O297 1.058 . S
O285 C284 1.229 . S
O286 Zn280 1.969 1_565 S
O286 C289 1.267 . S
O287 Zn280 1.965 1_565 S
O287 C298 1.260 . S
O288 Zn281 1.993 . S
O288 C298 1.240 1_545 S
C289 O286 1.267 . S
C289 O290 1.228 . S
O290 C289 1.228 . S
O291 Zn280 2.024 . S
O291 C282 1.058 . S
C292 O293 1.228 . S
C292 O294 1.267 . S
O293 C292 1.228 . S
O294 Zn281 1.969 . S
O294 C292 1.267 . S
O295 Zn281 1.965 . S
O295 C299 1.260 . S
O296 Zn280 1.969 . S
O296 C299 1.258 . S
O297 Zn281 2.024 . S
O297 C284 1.058 . S
C298 O287 1.260 . S
C298 O288 1.240 1_565 S
C299 O295 1.260 . S
C299 O296 1.258 . S
Zn300 O306 1.969 1_554 S
Zn300 O307 1.965 . S
Zn300 O311 2.024 . S
Zn300 O316 1.969 1_554 S
Zn301 O308 1.969 . S
Zn301 O314 1.969 . S
Zn301 O315 1.965 1_554 S
Zn301 O317 2.024 1_554 S
C302 O303 1.229 . S
C302 O311 1.058 . S
O303 C302 1.229 . S
C304 O305 1.229 . S
C304 O317 1.058 . S
O305 C304 1.229 . S
O306 Zn300 1.969 1_556 S
O306 C309 1.267 1_556 S
O307 Zn300 1.965 . S
O307 C318 1.260 . S
O308 Zn301 1.969 . S
O308 C318 1.258 . S
C309 O306 1.267 1_554 S
C309 O310 1.228 . S
O310 C309 1.228 . S
O311 Zn300 2.024 . S
O311 C302 1.058 . S
C312 O313 1.228 1_554 S
C312 O314 1.267 . S
O313 C312 1.228 1_556 S
O314 Zn301 1.969 . S
O314 C312 1.267 . S
O315 Zn301 1.965 1_556 S
O315 C319 1.260 . S
O316 Zn300 1.969 1_556 S
O316 C319 1.258 . S
O317 Zn301 2.024 1_556 S
O317 C304 1.058 . S
C318 O307 1.260 . S
C318 O308 1.258 . S
C319 O315 1.260 . S
C319 O316 1.258 . S
H320 C328 0.950 . S
H321 C333 0.950 . S
H322 C330 0.950 . S
H323 C332 0.950 . S
H324 C334 0.950 . S
H325 C336 0.950 . S
H326 C338 0.950 . S
H327 C339 0.950 . S
C328 H320 0.950 . S
C328 C329 1.386 . S
C328 C330 1.391 . S
C329 C328 1.386 . S
C329 C333 1.393 1_655 S
C330 H322 0.950 . S
C330 C328 1.391 . S
C330 C331 1.400 . S
C331 C330 1.400 . S
C331 C332 1.398 1_655 S
C331 C337 1.491 . S
C332 H323 0.950 . S
C332 C331 1.398 1_455 S
C332 C333 1.391 . S
C333 H321 0.950 . S
C333 C329 1.393 1_455 S
C333 C332 1.391 . S
C334 H324 0.950 . S
C334 C335 1.386 . S
C334 C336 1.391 . S
C335 C334 1.386 . S
C335 C339 1.393 1_455 S
C336 H325 0.950 . S
C336 C334 1.391 . S
C336 C337 1.400 1_455 S
C337 C331 1.491 . S
C337 C336 1.400 1_655 S
C337 C338 1.398 . S
C338 H326 0.950 . S
C338 C337 1.398 . S
C338 C339 1.391 . S
C339 H327 0.950 . S
C339 C335 1.393 1_655 S
C339 C338 1.391 . S
H340 C348 0.950 . S
H341 C353 0.950 . S
H342 C350 0.950 . S
H343 C352 0.950 . S
H344 C354 0.950 . S
H345 C356 0.950 . S
H346 C358 0.950 . S
H347 C359 0.950 . S
C348 H340 0.950 . S
C348 C349 1.386 . S
C348 C350 1.391 . S
C349 C348 1.386 . S
C349 C353 1.393 . S
C350 H342 0.950 . S
C350 C348 1.391 . S
C350 C351 1.400 . S
C351 C350 1.400 . S
C351 C352 1.398 . S
C351 C357 1.491 . S
C352 H343 0.950 . S
C352 C351 1.398 . S
C352 C353 1.391 . S
C353 H341 0.950 . S
C353 C349 1.393 . S
C353 C352 1.391 . S
C354 H344 0.950 . S
C354 C355 1.386 . S
C354 C356 1.391 . S
C355 C354 1.386 . S
C355 C359 1.393 . S
C356 H345 0.950 . S
C356 C354 1.391 . S
C356 C357 1.400 . S
C357 C351 1.491 . S
C357 C356 1.400 . S
C357 C358 1.398 . S
C358 H346 0.950 . S
C358 C357 1.398 . S
C358 C359 1.391 . S
C359 H347 0.950 . S
C359 C355 1.393 . S
C359 C358 1.391 . S
H360 C368 0.950 . S
H361 C373 0.950 . S
H362 C370 0.950 . S
H363 C372 0.950 . S
H364 C374 0.950 . S
H365 C376 0.950 . S
H366 C378 0.950 . S
H367 C379 0.950 . S
C368 H360 0.950 . S
C368 C369 1.386 . S
C368 C370 1.391 . S
C369 C368 1.386 . S
C369 C373 1.393 . S
C370 H362 0.950 . S
C370 C368 1.391 . S
C370 C371 1.400 . S
C371 C370 1.400 . S
C371 C372 1.398 . S
C371 C377 1.491 . S
C372 H363 0.950 . S
C372 C371 1.398 . S
C372 C373 1.391 . S
C373 H361 0.950 . S
C373 C369 1.393 . S
C373 C372 1.391 . S
C374 H364 0.950 . S
C374 C375 1.386 . S
C374 C376 1.391 . S
C375 C374 1.386 . S
C375 C379 1.393 . S
C376 H365 0.950 . S
C376 C374 1.391 . S
C376 C377 1.400 . S
C377 C371 1.491 . S
C377 C376 1.400 . S
C377 C378 1.398 . S
C378 H366 0.950 . S
C378 C377 1.398 . S
C378 C379 1.391 . S
C379 H367 0.950 . S
C379 C375 1.393 . S
C379 C378 1.391 . S
H380 C388 0.950 . S
H381 C393 0.950 . S
H382 C390 0.950 . S
H383 C392 0.950 . S
H384 C394 0.950 . S
H385 C396 0.950 . S
H386 C398 0.950 . S
H387 C399 0.950 . S
C388 H380 0.950 . S
C388 C389 1.386 . S
C388 C390 1.391 . S
C389 C388 1.386 . S
C389 C393 1.393 . S
C390 H382 0.950 . S
C390 C388 1.391 . S
C390 C391 1.400 . S
C391 C390 1.400 . S
C391 C392 1.398 . S
C391 C397 1.491 . S
C392 H383 0.950 . S
C392 C391 1.398 . S
C392 C393 1.391 . S
C393 H381 0.950 . S
C393 C389 1.393 . S
C393 C392 1.391 . S
C394 H384 0.950 . S
C394 C395 1.386 . S
C394 C396 1.391 . S
C395 C394 1.386 . S
C395 C399 1.393 . S
C396 H385 0.950 . S
C396 C394 1.391 . S
C396 C397 1.400 . S
C397 C391 1.491 . S
C397 C396 1.400 . S
C397 C398 1.398 . S
C398 H386 0.950 . S
C398 C397 1.398 . S
C398 C399 1.391 . S
C399 H387 0.950 . S
C399 C395 1.393 . S
C399 C398 1.391 . S
H400 C408 0.950 . S
H401 C413 0.950 . S
H402 C410 0.950 . S
H403 C412 0.950 . S
H404 C414 0.950 . S
H405 C416 0.950 . S
H406 C418 0.950 . S
H407 C419 0.950 . S
C408 H400 0.950 . S
C408 C409 1.386 . S
C408 C410 1.391 . S
C409 C408 1.386 . S
C409 C413 1.393 1_565 S
C410 H402 0.950 . S
C410 C408 1.391 . S
C410 C411 1.400 . S
C411 C410 1.400 . S
C411 C412 1.398 1_565 S
C411 C417 1.491 . S
C412 H403 0.950 . S
C412 C411 1.398 1_545 S
C412 C413 1.391 . S
C413 H401 0.950 . S
C413 C409 1.393 1_545 S
C413 C412 1.391 . S
C414 H404 0.950 . S
C414 C415 1.386 1_545 S
C414 C416 1.391 . S
C415 C414 1.386 1_565 S
C415 C419 1.393 . S
C416 H405 0.950 . S
C416 C414 1.391 . S
C416 C417 1.400 1_545 S
C417 C411 1.491 . S
C417 C416 1.400 1_565 S
C417 C418 1.398 . S
C418 H406 0.950 . S
C418 C417 1.398 . S
C418 C419 1.391 . S
C419 H407 0.950 . S
C419 C415 1.393 . S
C419 C418 1.391 . S
H420 C428 0.950 . S
H421 C433 0.950 . S
H422 C430 0.950 . S
H423 C432 0.950 . S
H424 C434 0.950 . S
H425 C436 0.950 . S
H426 C438 0.950 . S
H427 C439 0.950 . S
C428 H420 0.950 . S
C428 C429 1.386 . S
C428 C430 1.391 . S
C429 C428 1.386 . S
C429 C433 1.393 . S
C430 H422 0.950 . S
C430 C428 1.391 . S
C430 C431 1.400 . S
C431 C430 1.400 . S
C431 C432 1.398 . S
C431 C437 1.491 . S
C432 H423 0.950 . S
C432 C431 1.398 . S
C432 C433 1.391 . S
C433 H421 0.950 . S
C433 C429 1.393 . S
C433 C432 1.391 . S
C434 H424 0.950 . S
C434 C435 1.386 . S
C434 C436 1.391 . S
C435 C434 1.386 . S
C435 C439 1.393 . S
C436 H425 0.950 . S
C436 C434 1.391 . S
C436 C437 1.400 . S
C437 C431 1.491 . S
C437 C436 1.400 . S
C437 C438 1.398 . S
C438 H426 0.950 . S
C438 C437 1.398 . S
C438 C439 1.391 . S
C439 H427 0.950 . S
C439 C435 1.393 . S
C439 C438 1.391 . S
H440 C448 0.950 . S
H441 C453 0.950 . S
H442 C450 0.950 . S
H443 C452 0.950 . S
H444 C454 0.950 . S
H445 C456 0.950 . S
H446 C458 0.950 . S
H447 C459 0.950 . S
C448 H440 0.950 . S
C448 C449 1.386 . S
C448 C450 1.391 . S
C449 C448 1.386 . S
C449 C453 1.393 . S
C450 H442 0.950 . S
C450 C448 1.391 . S
C450 C451 1.400 . S
C451 C450 1.400 . S
C451 C452 1.398 . S
C451 C457 1.491 . S
C452 H443 0.950 . S
C452 C451 1.398 . S
C452 C453 1.391 . S
C453 H441 0.950 . S
C453 C449 1.393 . S
C453 C452 1.391 . S
C454 H444 0.950 . S
C454 C455 1.386 . S
C454 C456 1.391 . S
C455 C454 1.386 . S
C455 C459 1.393 . S
C456 H445 0.950 . S
C456 C454 1.391 . S
C456 C457 1.400 . S
C457 C451 1.491 . S
C457 C456 1.400 . S
C457 C458 1.398 . S
C458 H446 0.950 . S
C458 C457 1.398 . S
C458 C459 1.391 . S
C459 H447 0.950 . S
C459 C455 1.393 . S
C459 C458 1.391 . S
H460 C468 0.950 . S
H461 C473 0.950 . S
H462 C470 0.950 . S
H463 C472 0.950 . S
H464 C474 0.950 . S
H465 C476 0.950 . S
H466 C478 0.950 . S
H467 C479 0.950 . S
C468 H460 0.950 . S
C468 C469 1.386 . S
C468 C470 1.391 . S
C469 C468 1.386 . S
C469 C473 1.393 . S
C470 H462 0.950 . S
C470 C468 1.391 . S
C470 C471 1.400 . S
C471 C470 1.400 . S
C471 C472 1.398 . S
C471 C477 1.491 . S
C472 H463 0.950 . S
C472 C471 1.398 . S
C472 C473 1.391 . S
C473 H461 0.950 . S
C473 C469 1.393 . S
C473 C472 1.391 . S
C474 H464 0.950 . S
C474 C475 1.386 . S
C474 C476 1.391 . S
C475 C474 1.386 . S
C475 C479 1.393 . S
C476 H465 0.950 . S
C476 C474 1.391 . S
C476 C477 1.400 . S
C477 C471 1.491 . S
C477 C476 1.400 . S
C477 C478 1.398 . S
C478 H466 0.950 . S
C478 C477 1.398 . S
C478 C479 1.391 . S
C479 H467 0.950 . S
C479 C475 1.393 . S
C479 C478 1.391 . S
H480 C488 0.950 . S
H481 C493 0.950 . S
H482 C490 0.950 . S
H483 C492 0.950 . S
H484 C494 0.950 . S
H485 C496 0.950 . S
H486 C498 0.950 . S
H487 C499 0.950 . S
C488 H480 0.950 . S
C488 C489 1.386 . S
C488 C490 1.391 . S
C489 C488 1.386 . S
C489 C493 1.393 . S
C490 H482 0.950 . S
C490 C488 1.391 . S
C490 C491 1.400 . S
C491 C490 1.400 . S
C491 C492 1.398 . S
C491 C497 1.491 . S
C492 H483 0.950 . S
C492 C491 1.398 . S
C492 C493 1.391 . S
C493 H481 0.950 . S
C493 C489 1.393 . S
C493 C492 1.391 . S
C494 H484 0.950 . S
C494 C495 1.386 . S
C494 C496 1.391 . S
C495 C494 1.386 . S
C495 C499 1.393 . S
C496 H485 0.950 . S
C496 C494 1.391 . S
C496 C497 1.400 . S
C497 C491 1.491 . S
C497 C496 1.400 . S
C497 C498 1.398 . S
C498 H486 0.950 . S
C498 C497 1.398 . S
C498 C499 1.391 . S
C499 H487 0.950 . S
C499 C495 1.393 . S
C499 C498 1.391 . S
H500 C508 0.950 . S
H501 C513 0.950 . S
H502 C510 0.950 . S
H503 C512 0.950 . S
H504 C514 0.950 . S
H505 C516 0.950 . S
H506 C518 0.950 . S
H507 C519 0.950 . S
C508 H500 0.950 . S
C508 C509 1.386 . S
C508 C510 1.391 . S
C509 C508 1.386 . S
C509 C513 1.393 . S
C510 H502 0.950 . S
C510 C508 1.391 . S
C510 C511 1.400 . S
C511 C510 1.400 . S
C511 C512 1.398 . S
C511 C517 1.491 . S
C512 H503 0.950 . S
C512 C511 1.398 . S
C512 C513 1.391 . S
C513 H501 0.950 . S
C513 C509 1.393 . S
C513 C512 1.391 . S
C514 H504 0.950 . S
C514 C515 1.386 . S
C514 C516 1.391 . S
C515 C514 1.386 . S
C515 C519 1.393 . S
C516 H505 0.950 . S
C516 C514 1.391 . S
C516 C517 1.400 . S
C517 C511 1.491 . S
C517 C516 1.400 . S
C517 C518 1.398 . S
C518 H506 0.950 . S
C518 C517 1.398 . S
C518 C519 1.391 . S
C519 H507 0.950 . S
C519 C515 1.393 . S
C519 C518 1.391 . S
H520 C528 0.950 . S
H521 C533 0.950 . S
H522 C530 0.950 . S
H523 C532 0.950 . S
H524 C534 0.950 . S
H525 C536 0.950 . S
H526 C538 0.950 1_565 S
H527 C539 0.950 . S
C528 H520 0.950 . S
C528 C529 1.383 1_565 S
C528 C530 1.391 . S
C529 C528 1.383 1_545 S
C529 C533 1.402 . S
C530 H522 0.950 . S
C530 C528 1.391 . S
C530 C531 1.400 1_565 S
C531 C530 1.400 1_545 S
C531 C532 1.398 . S
C531 C537 1.491 . S
C532 H523 0.950 . S
C532 C531 1.398 . S
C532 C533 1.391 . S
C533 H521 0.950 . S
C533 C529 1.402 . S
C533 C532 1.391 . S
C534 H524 0.950 . S
C534 C535 1.386 . S
C534 C536 1.391 . S
C535 C534 1.386 . S
C535 C539 1.393 . S
C536 H525 0.950 . S
C536 C534 1.391 . S
C536 C537 1.400 . S
C537 C531 1.491 . S
C537 C536 1.400 . S
C537 C538 1.398 . S
C538 H526 0.950 1_545 S
C538 C537 1.398 . S
C538 C539 1.391 . S
C539 H527 0.950 . S
C539 C535 1.393 . S
C539 C538 1.391 . S
H540 C548 0.950 . S
H541 C553 0.950 . S
H542 C550 0.950 . S
H543 C552 0.950 . S
H544 C554 0.950 . S
H545 C556 0.950 . S
H546 C558 0.950 . S
H547 C559 0.950 . S
C548 H540 0.950 . S
C548 C549 1.386 . S
C548 C550 1.391 . S
C549 C548 1.386 . S
C549 C553 1.393 . S
C550 H542 0.950 . S
C550 C548 1.391 . S
C550 C551 1.400 . S
C551 C550 1.400 . S
C551 C552 1.398 . S
C551 C557 1.491 . S
C552 H543 0.950 . S
C552 C551 1.398 . S
C552 C553 1.391 . S
C553 H541 0.950 . S
C553 C549 1.393 . S
C553 C552 1.391 . S
C554 H544 0.950 . S
C554 C555 1.386 . S
C554 C556 1.391 . S
C555 C554 1.386 . S
C555 C559 1.393 . S
C556 H545 0.950 . S
C556 C554 1.391 . S
C556 C557 1.400 . S
C557 C551 1.491 . S
C557 C556 1.400 . S
C557 C558 1.398 . S
C558 H546 0.950 . S
C558 C557 1.398 . S
C558 C559 1.391 . S
C559 H547 0.950 . S
C559 C555 1.393 . S
C559 C558 1.391 . S
H560 C568 0.950 . S
H561 C573 0.950 . S
H562 C570 0.950 . S
H563 C572 0.950 . S
H564 C574 0.950 . S
H565 C576 0.950 . S
H566 C578 0.950 . S
H567 C579 0.950 . S
C568 H560 0.950 . S
C568 C569 1.386 1_554 S
C568 C570 1.391 . S
C569 C568 1.386 1_556 S
C569 C573 1.393 . S
C570 H562 0.950 . S
C570 C568 1.391 . S
C570 C571 1.400 1_554 S
C571 C570 1.400 1_556 S
C571 C572 1.398 . S
C571 C577 1.491 . S
C572 H563 0.950 . S
C572 C571 1.398 . S
C572 C573 1.391 . S
C573 H561 0.950 . S
C573 C569 1.393 . S
C573 C572 1.391 . S
C574 H564 0.950 . S
C574 C575 1.386 . S
C574 C576 1.391 . S
C575 C574 1.386 . S
C575 C579 1.393 1_556 S
C576 H565 0.950 . S
C576 C574 1.391 . S
C576 C577 1.400 . S
C577 C571 1.491 . S
C577 C576 1.400 . S
C577 C578 1.398 1_556 S
C578 H566 0.950 . S
C578 C577 1.398 1_554 S
C578 C579 1.391 . S
C579 H567 0.950 . S
C579 C575 1.393 1_554 S
C579 C578 1.391 . S
H580 C588 0.950 . S
H581 C593 0.950 . S
H582 C590 0.950 . S
H583 C592 0.950 . S
H584 C594 0.950 . S
H585 C596 0.950 . S
H586 C598 0.950 . S
H587 C599 0.950 . S
C588 H580 0.950 . S
C588 C589 1.386 . S
C588 C590 1.391 . S
C589 C588 1.386 . S
C589 C593 1.393 . S
C590 H582 0.950 . S
C590 C588 1.391 . S
C590 C591 1.400 . S
C591 C590 1.400 . S
C591 C592 1.398 . S
C591 C597 1.491 . S
C592 H583 0.950 . S
C592 C591 1.398 . S
C592 C593 1.391 . S
C593 H581 0.950 . S
C593 C589 1.393 . S
C593 C592 1.391 . S
C594 H584 0.950 . S
C594 C595 1.386 . S
C594 C596 1.391 . S
C595 C594 1.386 . S
C595 C599 1.393 . S
C596 H585 0.950 . S
C596 C594 1.391 . S
C596 C597 1.400 . S
C597 C591 1.491 . S
C597 C596 1.400 . S
C597 C598 1.398 . S
C598 H586 0.950 . S
C598 C597 1.398 . S
C598 C599 1.391 . S
C599 H587 0.950 . S
C599 C595 1.393 . S
C599 C598 1.391 . S
H600 C608 0.950 . S
H601 C613 0.950 . S
H602 C610 0.950 . S
H603 C612 0.950 . S
H604 C614 0.950 . S
H605 C616 0.950 . S
H606 C618 0.950 . S
H607 C619 0.950 . S
C608 H600 0.950 . S
C608 C609 1.386 . S
C608 C610 1.391 . S
C609 C608 1.386 . S
C609 C613 1.393 . S
C610 H602 0.950 . S
C610 C608 1.391 . S
C610 C611 1.400 . S
C611 C610 1.400 . S
C611 C612 1.398 . S
C611 C617 1.491 . S
C612 H603 0.950 . S
C612 C611 1.398 . S
C612 C613 1.391 . S
C613 H601 0.950 . S
C613 C609 1.393 . S
C613 C612 1.391 . S
C614 H604 0.950 . S
C614 C615 1.386 . S
C614 C616 1.391 . S
C615 C614 1.386 . S
C615 C619 1.393 . S
C616 H605 0.950 . S
C616 C614 1.391 . S
C616 C617 1.400 . S
C617 C611 1.491 . S
C617 C616 1.400 . S
C617 C618 1.398 . S
C618 H606 0.950 . S
C618 C617 1.398 . S
C618 C619 1.391 . S
C619 H607 0.950 . S
C619 C615 1.393 . S
C619 C618 1.391 . S
H620 C628 0.950 . S
H621 C633 0.950 . S
H622 C630 0.950 . S
H623 C632 0.950 . S
H624 C634 0.950 . S
H625 C636 0.950 . S
H626 C638 0.950 . S
H627 C639 0.950 . S
C628 H620 0.950 . S
C628 C629 1.386 . S
C628 C630 1.391 . S
C629 C628 1.386 . S
C629 C633 1.393 . S
C630 H622 0.950 . S
C630 C628 1.391 . S
C630 C631 1.400 . S
C631 C630 1.400 . S
C631 C632 1.398 . S
C631 C637 1.491 . S
C632 H623 0.950 . S
C632 C631 1.398 . S
C632 C633 1.391 . S
C633 H621 0.950 . S
C633 C629 1.393 . S
C633 C632 1.391 . S
C634 H624 0.950 . S
C634 C635 1.386 . S
C634 C636 1.391 . S
C635 C634 1.386 . S
C635 C639 1.393 . S
C636 H625 0.950 . S
C636 C634 1.391 . S
C636 C637 1.400 . S
C637 C631 1.491 . S
C637 C636 1.400 . S
C637 C638 1.398 . S
C638 H626 0.950 . S
C638 C637 1.398 . S
C638 C639 1.391 . S
C639 H627 0.950 . S
C639 C635 1.393 . S
C639 C638 1.391 . S
H640 C648 0.950 . S
H641 C653 0.950 . S
H642 C650 0.950 . S
H643 C652 0.950 . S
H644 C654 0.950 . S
H645 C656 0.950 . S
H646 C658 0.950 . S
H647 C659 0.950 . S
C648 H640 0.950 . S
C648 C649 1.386 . S
C648 C650 1.391 . S
C649 C648 1.386 . S
C649 C653 1.393 . S
C650 H642 0.950 . S
C650 C648 1.391 . S
C650 C651 1.400 . S
C651 C650 1.400 . S
C651 C652 1.398 . S
C651 C657 1.491 . S
C652 H643 0.950 . S
C652 C651 1.398 . S
C652 C653 1.391 . S
C653 H641 0.950 . S
C653 C649 1.393 . S
C653 C652 1.391 . S
C654 H644 0.950 . S
C654 C655 1.386 . S
C654 C656 1.391 . S
C655 C654 1.386 . S
C655 C659 1.393 . S
C656 H645 0.950 . S
C656 C654 1.391 . S
C656 C657 1.400 . S
C657 C651 1.491 . S
C657 C656 1.400 . S
C657 C658 1.398 . S
C658 H646 0.950 . S
C658 C657 1.398 . S
C658 C659 1.391 . S
C659 H647 0.950 . S
C659 C655 1.393 . S
C659 C658 1.391 . S
H660 C668 0.950 . S
H661 C673 0.950 . S
H662 C670 0.950 . S
H663 C672 0.950 . S
H664 C674 0.950 . S
H665 C676 0.950 . S
H666 C678 0.950 . S
H667 C679 0.950 . S
C668 H660 0.950 . S
C668 C669 1.386 . S
C668 C670 1.391 . S
C669 C668 1.386 . S
C669 C673 1.393 . S
C670 H662 0.950 . S
C670 C668 1.391 . S
C670 C671 1.400 . S
C671 C670 1.400 . S
C671 C672 1.398 . S
C671 C677 1.491 . S
C672 H663 0.950 . S
C672 C671 1.398 . S
C672 C673 1.391 . S
C673 H661 0.950 . S
C673 C669 1.393 . S
C673 C672 1.391 . S
C674 H664 0.950 . S
C674 C675 1.386 . S
C674 C676 1.391 . S
C675 C674 1.386 . S
C675 C679 1.393 . S
C676 H665 0.950 . S
C676 C674 1.391 . S
C676 C677 1.400 . S
C677 C671 1.491 . S
C677 C676 1.400 . S
C677 C678 1.398 . S
C678 H666 0.950 . S
C678 C677 1.398 . S
C678 C679 1.391 . S
C679 H667 0.950 . S
C679 C675 1.393 . S
C679 C678 1.391 . S
H680 C688 0.950 . S
H681 C693 0.950 . S
H682 C690 0.950 . S
H683 C692 0.950 . S
H684 C694 0.950 . S
H685 C696 0.950 . S
H686 C698 0.950 . S
H687 C699 0.950 . S
C688 H680 0.950 . S
C688 C689 1.386 . S
C688 C690 1.391 . S
C689 C688 1.386 . S
C689 C693 1.393 . S
C690 H682 0.950 . S
C690 C688 1.391 . S
C690 C691 1.400 . S
C691 C690 1.400 . S
C691 C692 1.398 . S
C691 C697 1.491 . S
C692 H683 0.950 . S
C692 C691 1.398 . S
C692 C693 1.391 . S
C693 H681 0.950 . S
C693 C689 1.393 . S
C693 C692 1.391 . S
C694 H684 0.950 . S
C694 C695 1.386 . S
C694 C696 1.391 . S
C695 C694 1.386 . S
C695 C699 1.393 . S
C696 H685 0.950 . S
C696 C694 1.391 . S
C696 C697 1.400 . S
C697 C691 1.491 . S
C697 C696 1.400 . S
C697 C698 1.398 . S
C698 H686 0.950 . S
C698 C697 1.398 . S
C698 C699 1.391 . S
C699 H687 0.950 . S
C699 C695 1.393 . S
C699 C698 1.391 . S
H700 C708 0.950 . S
H701 C713 0.950 . S
H702 C710 0.950 . S
H703 C712 0.950 . S
H704 C714 0.950 . S
H705 C716 0.950 . S
H706 C718 0.950 . S
H707 C719 0.950 . S
C708 H700 0.950 . S
C708 C709 1.386 . S
C708 C710 1.391 . S
C709 C708 1.386 . S
C709 C713 1.393 . S
C710 H702 0.950 . S
C710 C708 1.391 . S
C710 C711 1.400 . S
C711 C710 1.400 . S
C711 C712 1.398 . S
C711 C717 1.491 . S
C712 H703 0.950 . S
C712 C711 1.398 . S
C712 C713 1.391 . S
C713 H701 0.950 . S
C713 C709 1.393 . S
C713 C712 1.391 . S
C714 H704 0.950 . S
C714 C715 1.386 . S
C714 C716 1.391 . S
C715 C714 1.386 . S
C715 C719 1.393 . S
C716 H705 0.950 . S
C716 C714 1.391 . S
C716 C717 1.400 . S
C717 C711 1.491 . S
C717 C716 1.400 . S
C717 C718 1.398 . S
C718 H706 0.950 . S
C718 C717 1.398 . S
C718 C719 1.391 . S
C719 H707 0.950 . S
C719 C715 1.393 . S
C719 C718 1.391 . S
H720 C728 0.950 . S
H721 C733 0.950 . S
H722 C730 0.950 . S
H723 C732 0.950 . S
H724 C734 0.950 . S
H725 C736 0.950 . S
H726 C738 0.950 . S
H727 C739 0.950 . S
C728 H720 0.950 . S
C728 C729 1.386 . S
C728 C730 1.391 . S
C729 C728 1.386 . S
C729 C733 1.393 . S
C730 H722 0.950 . S
C730 C728 1.391 . S
C730 C731 1.400 . S
C731 C730 1.400 . S
C731 C732 1.398 . S
C731 C737 1.491 . S
C732 H723 0.950 . S
C732 C731 1.398 . S
C732 C733 1.391 . S
C733 H721 0.950 . S
C733 C729 1.393 . S
C733 C732 1.391 . S
C734 H724 0.950 . S
C734 C735 1.386 . S
C734 C736 1.391 . S
C735 C734 1.386 . S
C735 C739 1.393 . S
C736 H725 0.950 . S
C736 C734 1.391 . S
C736 C737 1.400 . S
C737 C731 1.491 . S
C737 C736 1.400 . S
C737 C738 1.398 . S
C738 H726 0.950 . S
C738 C737 1.398 . S
C738 C739 1.391 . S
C739 H727 0.950 . S
C739 C735 1.393 . S
C739 C738 1.391 . S
H740 C748 0.950 . S
H741 C753 0.950 . S
H742 C750 0.950 . S
H743 C752 0.950 . S
H744 C754 0.950 . S
H745 C756 0.950 . S
H746 C758 0.950 . S
H747 C759 0.950 . S
C748 H740 0.950 . S
C748 C749 1.386 . S
C748 C750 1.391 . S
C749 C748 1.386 . S
C749 C753 1.393 1_655 S
C750 H742 0.950 . S
C750 C748 1.391 . S
C750 C751 1.400 . S
C751 C750 1.400 . S
C751 C752 1.398 1_655 S
C751 C757 1.491 . S
C752 H743 0.950 . S
C752 C751 1.398 1_455 S
C752 C753 1.391 . S
C753 H741 0.950 . S
C753 C749 1.393 1_455 S
C753 C752 1.391 . S
C754 H744 0.950 . S
C754 C755 1.386 1_455 S
C754 C756 1.391 . S
C755 C754 1.386 1_655 S
C755 C759 1.393 . S
C756 H745 0.950 . S
C756 C754 1.391 . S
C756 C757 1.400 1_455 S
C757 C751 1.491 . S
C757 C756 1.400 1_655 S
C757 C758 1.398 . S
C758 H746 0.950 . S
C758 C757 1.398 . S
C758 C759 1.391 . S
C759 H747 0.950 . S
C759 C755 1.393 . S
C759 C758 1.391 . S
H760 C768 0.950 . S
H761 C773 0.950 . S
H762 C770 0.950 . S
H763 C772 0.950 . S
H764 C774 0.950 . S
H765 C776 0.950 . S
H766 C778 0.950 . S
H767 C779 0.950 . S
C768 H760 0.950 . S
C768 C769 1.386 . S
C768 C770 1.391 . S
C769 C768 1.386 . S
C769 C773 1.393 . S
C770 H762 0.950 . S
C770 C768 1.391 . S
C770 C771 1.400 . S
C771 C770 1.400 . S
C771 C772 1.398 . S
C771 C777 1.491 . S
C772 H763 0.950 . S
C772 C771 1.398 . S
C772 C773 1.391 . S
C773 H761 0.950 . S
C773 C769 1.393 . S
C773 C772 1.391 . S
C774 H764 0.950 . S
C774 C775 1.386 . S
C774 C776 1.391 . S
C775 C774 1.386 . S
C775 C779 1.393 . S
C776 H765 0.950 . S
C776 C774 1.391 . S
C776 C777 1.400 . S
C777 C771 1.491 . S
C777 C776 1.400 . S
C777 C778 1.398 . S
C778 H766 0.950 . S
C778 C777 1.398 . S
C778 C779 1.391 . S
C779 H767 0.950 . S
C779 C775 1.393 . S
C779 C778 1.391 . S
H780 C788 0.950 . S
H781 C793 0.950 . S
H782 C790 0.950 . S
H783 C792 0.950 . S
H784 C794 0.950 . S
H785 C796 0.950 . S
H786 C798 0.950 . S
H787 C799 0.950 . S
C788 H780 0.950 . S
C788 C789 1.386 . S
C788 C790 1.391 . S
C789 C788 1.386 . S
C789 C793 1.393 . S
C790 H782 0.950 . S
C790 C788 1.391 . S
C790 C791 1.400 . S
C791 C790 1.400 . S
C791 C792 1.398 . S
C791 C797 1.491 . S
C792 H783 0.950 . S
C792 C791 1.398 . S
C792 C793 1.391 . S
C793 H781 0.950 . S
C793 C789 1.393 . S
C793 C792 1.391 . S
C794 H784 0.950 . S
C794 C795 1.386 . S
C794 C796 1.391 . S
C795 C794 1.386 . S
C795 C799 1.393 . S
C796 H785 0.950 . S
C796 C794 1.391 . S
C796 C797 1.400 . S
C797 C791 1.491 . S
C797 C796 1.400 . S
C797 C798 1.398 . S
C798 H786 0.950 . S
C798 C797 1.398 . S
C798 C799 1.391 . S
C799 H787 0.950 . S
C799 C795 1.393 . S
C799 C798 1.391 . S
H800 C808 0.950 . S
H801 C813 0.950 . S
H802 C810 0.950 . S
H803 C812 0.950 . S
H804 C814 0.950 . S
H805 C816 0.950 . S
H806 C818 0.950 . S
H807 C819 0.950 . S
C808 H800 0.950 . S
C808 C809 1.386 . S
C808 C810 1.391 . S
C809 C808 1.386 . S
C809 C813 1.393 . S
C810 H802 0.950 . S
C810 C808 1.391 . S
C810 C811 1.400 . S
C811 C810 1.400 . S
C811 C812 1.398 . S
C811 C817 1.491 . S
C812 H803 0.950 . S
C812 C811 1.398 . S
C812 C813 1.391 . S
C813 H801 0.950 . S
C813 C809 1.393 . S
C813 C812 1.391 . S
C814 H804 0.950 . S
C814 C815 1.386 . S
C814 C816 1.391 . S
C815 C814 1.386 . S
C815 C819 1.393 . S
C816 H805 0.950 . S
C816 C814 1.391 . S
C816 C817 1.400 . S
C817 C811 1.491 . S
C817 C816 1.400 . S
C817 C818 1.398 . S
C818 H806 0.950 . S
C818 C817 1.398 . S
C818 C819 1.391 . S
C819 H807 0.950 . S
C819 C815 1.393 . S
C819 C818 1.391 . S
H820 C828 0.950 . S
H821 C833 0.950 . S
H822 C830 0.950 . S
H823 C832 0.950 . S
H824 C834 0.950 . S
H825 C836 0.950 . S
H826 C838 0.950 . S
H827 C839 0.950 . S
C828 H820 0.950 . S
C828 C829 1.386 . S
C828 C830 1.391 . S
C829 C828 1.386 . S
C829 C833 1.393 . S
C830 H822 0.950 . S
C830 C828 1.391 . S
C830 C831 1.400 . S
C831 C830 1.400 . S
C831 C832 1.398 . S
C831 C837 1.491 . S
C832 H823 0.950 . S
C832 C831 1.398 . S
C832 C833 1.391 . S
C833 H821 0.950 . S
C833 C829 1.393 . S
C833 C832 1.391 . S
C834 H824 0.950 . S
C834 C835 1.386 . S
C834 C836 1.391 . S
C835 C834 1.386 . S
C835 C839 1.393 . S
C836 H825 0.950 . S
C836 C834 1.391 . S
C836 C837 1.400 . S
C837 C831 1.491 . S
C837 C836 1.400 . S
C837 C838 1.398 . S
C838 H826 0.950 . S
C838 C837 1.398 . S
C838 C839 1.391 . S
C839 H827 0.950 . S
C839 C835 1.393 . S
C839 C838 1.391 . S
H840 C848 0.958 . S
H841 C853 0.950 . S
H842 C850 0.950 . S
H843 C852 0.950 . S
H844 C854 0.950 . S
H845 C856 0.950 . S
H846 C858 0.950 . S
H847 C859 0.950 . S
C848 H840 0.958 . S
C848 C849 1.382 1_565 S
C848 C850 1.387 1_565 S
C849 C848 1.382 1_545 S
C849 C853 1.393 . S
C850 H842 0.950 . S
C850 C848 1.387 1_545 S
C850 C851 1.400 . S
C851 C850 1.400 . S
C851 C852 1.398 . S
C851 C857 1.491 . S
C852 H843 0.950 . S
C852 C851 1.398 . S
C852 C853 1.391 . S
C853 H841 0.950 . S
C853 C849 1.393 . S
C853 C852 1.391 . S
C854 H844 0.950 . S
C854 C855 1.386 . S
C854 C856 1.391 . S
C855 C854 1.386 . S
C855 C859 1.393 . S
C856 H845 0.950 . S
C856 C854 1.391 . S
C856 C857 1.400 . S
C857 C851 1.491 . S
C857 C856 1.400 . S
C857 C858 1.398 . S
C858 H846 0.950 . S
C858 C857 1.398 . S
C858 C859 1.391 . S
C859 H847 0.950 . S
C859 C855 1.393 . S
C859 C858 1.391 . S
H860 C868 0.950 . S
H861 C873 0.950 1_556 S
H862 C870 0.950 . S
H863 C872 0.950 1_556 S
H864 C874 0.969 . S
H865 C876 0.939 1_556 S
H866 C878 0.950 . S
H867 C879 0.950 . S
C868 H860 0.950 . S
C868 C869 1.386 . S
C868 C870 1.391 . S
C869 C868 1.386 . S
C869 C873 1.393 . S
C870 H862 0.950 . S
C870 C868 1.391 . S
C870 C871 1.400 . S
C871 C870 1.400 . S
C871 C872 1.398 . S
C871 C877 1.491 . S
C872 H863 0.950 1_554 S
C872 C871 1.398 . S
C872 C873 1.391 . S
C873 H861 0.950 1_554 S
C873 C869 1.393 . S
C873 C872 1.391 . S
C874 H864 0.969 . S
C874 C875 1.369 1_556 S
C874 C876 1.390 1_556 S
C875 C874 1.369 1_554 S
C875 C879 1.393 . S
C876 H865 0.939 1_554 S
C876 C874 1.390 1_554 S
C876 C877 1.412 . S
C877 C871 1.491 . S
C877 C876 1.412 . S
C877 C878 1.398 . S
C878 H866 0.950 . S
C878 C877 1.398 . S
C878 C879 1.391 . S
C879 H867 0.950 . S
C879 C875 1.393 . S
C879 C878 1.391 . S
H880 C888 0.950 . S
H881 C893 0.950 . S
H882 C890 0.950 . S
H883 C892 0.950 . S
H884 C894 0.950 . S
H885 C896 0.950 . S
H886 C898 0.950 . S
H887 C899 0.950 . S
C888 H880 0.950 . S
C888 C889 1.386 . S
C888 C890 1.391 . S
C889 C888 1.386 . S
C889 C893 1.393 . S
C890 H882 0.950 . S
C890 C888 1.391 . S
C890 C891 1.400 . S
C891 C890 1.400 . S
C891 C892 1.398 . S
C891 C897 1.491 . S
C892 H883 0.950 . S
C892 C891 1.398 . S
C892 C893 1.391 . S
C893 H881 0.950 . S
C893 C889 1.393 . S
C893 C892 1.391 . S
C894 H884 0.950 . S
C894 C895 1.386 . S
C894 C896 1.391 . S
C895 C894 1.386 . S
C895 C899 1.393 . S
C896 H885 0.950 . S
C896 C894 1.391 . S
C896 C897 1.400 . S
C897 C891 1.491 . S
C897 C896 1.400 . S
C897 C898 1.398 . S
C898 H886 0.950 . S
C898 C897 1.398 . S
C898 C899 1.391 . S
C899 H887 0.950 . S
C899 C895 1.393 . S
C899 C898 1.391 . S
H900 C908 0.950 . S
H901 C913 0.950 . S
H902 C910 0.950 . S
H903 C912 0.950 . S
H904 C914 0.950 . S
H905 C916 0.950 . S
H906 C918 0.950 . S
H907 C919 0.950 . S
C908 H900 0.950 . S
C908 C909 1.386 . S
C908 C910 1.391 . S
C909 C908 1.386 . S
C909 C913 1.393 . S
C910 H902 0.950 . S
C910 C908 1.391 . S
C910 C911 1.400 . S
C911 C910 1.400 . S
C911 C912 1.398 . S
C911 C917 1.491 . S
C912 H903 0.950 . S
C912 C911 1.398 . S
C912 C913 1.391 . S
C913 H901 0.950 . S
C913 C909 1.393 . S
C913 C912 1.391 . S
C914 H904 0.950 . S
C914 C915 1.386 . S
C914 C916 1.391 . S
C915 C914 1.386 . S
C915 C919 1.393 . S
C916 H905 0.950 . S
C916 C914 1.391 . S
C916 C917 1.400 . S
C917 C911 1.491 . S
C917 C916 1.400 . S
C917 C918 1.398 . S
C918 H906 0.950 . S
C918 C917 1.398 . S
C918 C919 1.391 . S
C919 H907 0.950 . S
C919 C915 1.393 . S
C919 C918 1.391 . S
H920 C928 0.950 . S
H921 C933 0.950 . S
H922 C930 0.950 . S
H923 C932 0.950 . S
H924 C934 0.950 . S
H925 C936 0.950 . S
H926 C938 0.950 . S
H927 C939 0.950 . S
C928 H920 0.950 . S
C928 C929 1.386 . S
C928 C930 1.391 . S
C929 C928 1.386 . S
C929 C933 1.393 . S
C930 H922 0.950 . S
C930 C928 1.391 . S
C930 C931 1.400 . S
C931 C930 1.400 . S
C931 C932 1.398 . S
C931 C937 1.491 . S
C932 H923 0.950 . S
C932 C931 1.398 . S
C932 C933 1.391 . S
C933 H921 0.950 . S
C933 C929 1.393 . S
C933 C932 1.391 . S
C934 H924 0.950 . S
C934 C935 1.386 . S
C934 C936 1.391 . S
C935 C934 1.386 . S
C935 C939 1.393 . S
C936 H925 0.950 . S
C936 C934 1.391 . S
C936 C937 1.400 . S
C937 C931 1.491 . S
C937 C936 1.400 . S
C937 C938 1.398 . S
C938 H926 0.950 . S
C938 C937 1.398 . S
C938 C939 1.391 . S
C939 H927 0.950 . S
C939 C935 1.393 . S
C939 C938 1.391 . S
H940 C948 0.950 . S
H941 C953 0.950 . S
H942 C950 0.950 . S
H943 C952 0.950 . S
H944 C954 0.950 . S
H945 C956 0.950 . S
H946 C958 0.950 . S
H947 C959 0.950 . S
C948 H940 0.950 . S
C948 C949 1.386 . S
C948 C950 1.391 . S
C949 C948 1.386 . S
C949 C953 1.393 . S
C950 H942 0.950 . S
C950 C948 1.391 . S
C950 C951 1.400 . S
C951 C950 1.400 . S
C951 C952 1.398 . S
C951 C957 1.491 . S
C952 H943 0.950 . S
C952 C951 1.398 . S
C952 C953 1.391 . S
C953 H941 0.950 . S
C953 C949 1.393 . S
C953 C952 1.391 . S
C954 H944 0.950 . S
C954 C955 1.386 . S
C954 C956 1.391 . S
C955 C954 1.386 . S
C955 C959 1.393 . S
C956 H945 0.950 . S
C956 C954 1.391 . S
C956 C957 1.400 . S
C957 C951 1.491 . S
C957 C956 1.400 . S
C957 C958 1.398 . S
C958 H946 0.950 . S
C958 C957 1.398 . S
C958 C959 1.391 . S
C959 H947 0.950 . S
C959 C955 1.393 . S
C959 C958 1.391 . S
H960 C968 0.950 . S
H961 C973 0.950 . S
H962 C970 0.950 . S
H963 C972 0.950 . S
H964 C974 0.950 . S
H965 C976 0.950 . S
H966 C978 0.950 . S
H967 C979 0.950 . S
C968 H960 0.950 . S
C968 C969 1.386 . S
C968 C970 1.391 . S
C969 C968 1.386 . S
C969 C973 1.393 . S
C970 H962 0.950 . S
C970 C968 1.391 . S
C970 C971 1.400 . S
C971 C970 1.400 . S
C971 C972 1.398 . S
C971 C977 1.491 . S
C972 H963 0.950 . S
C972 C971 1.398 . S
C972 C973 1.391 . S
C973 H961 0.950 . S
C973 C969 1.393 . S
C973 C972 1.391 . S
C974 H964 0.950 . S
C974 C975 1.386 . S
C974 C976 1.391 . S
C975 C974 1.386 . S
C975 C979 1.393 . S
C976 H965 0.950 . S
C976 C974 1.391 . S
C976 C977 1.400 . S
C977 C971 1.491 . S
C977 C976 1.400 . S
C977 C978 1.398 . S
C978 H966 0.950 . S
C978 C977 1.398 . S
C978 C979 1.391 . S
C979 H967 0.950 . S
C979 C975 1.393 . S
C979 C978 1.391 . S
H980 C988 0.950 . S
H981 C993 0.950 . S
H982 C990 0.950 . S
H983 C992 0.950 . S
H984 C994 0.950 . S
H985 C996 0.950 . S
H986 C998 0.950 . S
H987 C999 0.950 . S
C988 H980 0.950 . S
C988 C989 1.386 . S
C988 C990 1.391 . S
C989 C988 1.386 . S
C989 C993 1.393 . S
C990 H982 0.950 . S
C990 C988 1.391 . S
C990 C991 1.400 . S
C991 C990 1.400 . S
C991 C992 1.398 . S
C991 C997 1.491 . S
C992 H983 0.950 . S
C992 C991 1.398 . S
C992 C993 1.391 . S
C993 H981 0.950 . S
C993 C989 1.393 . S
C993 C992 1.391 . S
C994 H984 0.950 . S
C994 C995 1.386 . S
C994 C996 1.391 . S
C995 C994 1.386 . S
C995 C999 1.393 . S
C996 H985 0.950 . S
C996 C994 1.391 . S
C996 C997 1.400 . S
C997 C991 1.491 . S
C997 C996 1.400 . S
C997 C998 1.398 . S
C998 H986 0.950 . S
C998 C997 1.398 . S
C998 C999 1.391 . S
C999 H987 0.950 . S
C999 C995 1.393 . S
C999 C998 1.391 . S
H1000 C1008 0.950 . S
H1001 C1013 0.950 . S
H1002 C1010 0.950 . S
H1003 C1012 0.950 . S
H1004 C1014 0.950 . S
H1005 C1016 0.950 . S
H1006 C1018 0.950 . S
H1007 C1019 0.950 . S
C1008 H1000 0.950 . S
C1008 C1009 1.386 . S
C1008 C1010 1.391 . S
C1009 C1008 1.386 . S
C1009 C1013 1.393 . S
C1010 H1002 0.950 . S
C1010 C1008 1.391 . S
C1010 C1011 1.400 . S
C1011 C1010 1.400 . S
C1011 C1012 1.398 . S
C1011 C1017 1.491 . S
C1012 H1003 0.950 . S
C1012 C1011 1.398 . S
C1012 C1013 1.391 . S
C1013 H1001 0.950 . S
C1013 C1009 1.393 . S
C1013 C1012 1.391 . S
C1014 H1004 0.950 . S
C1014 C1015 1.386 . S
C1014 C1016 1.391 . S
C1015 C1014 1.386 . S
C1015 C1019 1.393 . S
C1016 H1005 0.950 . S
C1016 C1014 1.391 . S
C1016 C1017 1.400 . S
C1017 C1011 1.491 . S
C1017 C1016 1.400 . S
C1017 C1018 1.398 . S
C1018 H1006 0.950 . S
C1018 C1017 1.398 . S
C1018 C1019 1.391 . S
C1019 H1007 0.950 . S
C1019 C1015 1.393 . S
C1019 C1018 1.391 . S
H1020 C1028 0.950 . S
H1021 C1033 0.950 . S
H1022 C1030 0.950 . S
H1023 C1032 0.950 . S
H1024 C1034 0.950 . S
H1025 C1036 0.950 . S
H1026 C1038 0.950 . S
H1027 C1039 0.950 . S
C1028 H1020 0.950 . S
C1028 C1029 1.386 . S
C1028 C1030 1.391 . S
C1029 C1028 1.386 . S
C1029 C1033 1.393 . S
C1030 H1022 0.950 . S
C1030 C1028 1.391 . S
C1030 C1031 1.400 . S
C1031 C1030 1.400 . S
C1031 C1032 1.398 . S
C1031 C1037 1.491 . S
C1032 H1023 0.950 . S
C1032 C1031 1.398 . S
C1032 C1033 1.391 . S
C1033 H1021 0.950 . S
C1033 C1029 1.393 . S
C1033 C1032 1.391 . S
C1034 H1024 0.950 . S
C1034 C1035 1.386 . S
C1034 C1036 1.391 . S
C1035 C1034 1.386 . S
C1035 C1039 1.393 . S
C1036 H1025 0.950 . S
C1036 C1034 1.391 . S
C1036 C1037 1.400 . S
C1037 C1031 1.491 . S
C1037 C1036 1.400 . S
C1037 C1038 1.398 . S
C1038 H1026 0.950 . S
C1038 C1037 1.398 . S
C1038 C1039 1.391 . S
C1039 H1027 0.950 . S
C1039 C1035 1.393 . S
C1039 C1038 1.391 . S
H1040 C1048 0.950 . S
H1041 C1053 0.950 . S
H1042 C1050 0.950 . S
H1043 C1052 0.950 . S
H1044 C1054 0.950 . S
H1045 C1056 0.950 . S
H1046 C1058 0.950 . S
H1047 C1059 0.950 . S
C1048 H1040 0.950 . S
C1048 C1049 1.386 . S
C1048 C1050 1.391 . S
C1049 C1048 1.386 . S
C1049 C1053 1.393 . S
C1050 H1042 0.950 . S
C1050 C1048 1.391 . S
C1050 C1051 1.400 . S
C1051 C1050 1.400 . S
C1051 C1052 1.398 . S
C1051 C1057 1.491 . S
C1052 H1043 0.950 . S
C1052 C1051 1.398 . S
C1052 C1053 1.391 . S
C1053 H1041 0.950 . S
C1053 C1049 1.393 . S
C1053 C1052 1.391 . S
C1054 H1044 0.950 . S
C1054 C1055 1.386 . S
C1054 C1056 1.391 . S
C1055 C1054 1.386 . S
C1055 C1059 1.393 . S
C1056 H1045 0.950 . S
C1056 C1054 1.391 . S
C1056 C1057 1.400 . S
C1057 C1051 1.491 . S
C1057 C1056 1.400 . S
C1057 C1058 1.398 . S
C1058 H1046 0.950 . S
C1058 C1057 1.398 . S
C1058 C1059 1.391 . S
C1059 H1047 0.950 . S
C1059 C1055 1.393 . S
C1059 C1058 1.391 . S
H1060 C1068 0.950 . S
H1061 C1073 0.950 . S
H1062 C1070 0.950 . S
H1063 C1072 0.950 . S
H1064 C1074 0.950 . S
H1065 C1076 0.950 . S
H1066 C1078 0.950 . S
H1067 C1079 0.950 . S
C1068 H1060 0.950 . S
C1068 C1069 1.386 . S
C1068 C1070 1.391 . S
C1069 C1068 1.386 . S
C1069 C1073 1.393 . S
C1070 H1062 0.950 . S
C1070 C1068 1.391 . S
C1070 C1071 1.400 . S
C1071 C1070 1.400 . S
C1071 C1072 1.398 . S
C1071 C1077 1.491 . S
C1072 H1063 0.950 . S
C1072 C1071 1.398 . S
C1072 C1073 1.391 . S
C1073 H1061 0.950 . S
C1073 C1069 1.393 . S
C1073 C1072 1.391 . S
C1074 H1064 0.950 . S
C1074 C1075 1.386 . S
C1074 C1076 1.391 . S
C1075 C1074 1.386 . S
C1075 C1079 1.393 . S
C1076 H1065 0.950 . S
C1076 C1074 1.391 . S
C1076 C1077 1.400 . S
C1077 C1071 1.491 . S
C1077 C1076 1.400 . S
C1077 C1078 1.398 . S
C1078 H1066 0.950 . S
C1078 C1077 1.398 . S
C1078 C1079 1.391 . S
C1079 H1067 0.950 . S
C1079 C1075 1.393 . S
C1079 C1078 1.391 . S
H1080 C1088 0.950 . S
H1081 C1093 0.950 . S
H1082 C1090 0.950 . S
H1083 C1092 0.950 . S
H1084 C1094 0.950 . S
H1085 C1096 0.950 . S
H1086 C1098 0.950 . S
H1087 C1099 0.950 . S
C1088 H1080 0.950 . S
C1088 C1089 1.386 . S
C1088 C1090 1.391 . S
C1089 C1088 1.386 . S
C1089 C1093 1.393 . S
C1090 H1082 0.950 . S
C1090 C1088 1.391 . S
C1090 C1091 1.400 . S
C1091 C1090 1.400 . S
C1091 C1092 1.398 . S
C1091 C1097 1.491 . S
C1092 H1083 0.950 . S
C1092 C1091 1.398 . S
C1092 C1093 1.391 . S
C1093 H1081 0.950 . S
C1093 C1089 1.393 . S
C1093 C1092 1.391 . S
C1094 H1084 0.950 . S
C1094 C1095 1.386 . S
C1094 C1096 1.391 . S
C1095 C1094 1.386 . S
C1095 C1099 1.393 . S
C1096 H1085 0.950 . S
C1096 C1094 1.391 . S
C1096 C1097 1.400 . S
C1097 C1091 1.491 . S
C1097 C1096 1.400 . S
C1097 C1098 1.398 . S
C1098 H1086 0.950 . S
C1098 C1097 1.398 . S
C1098 C1099 1.391 . S
C1099 H1087 0.950 . S
C1099 C1095 1.393 . S
C1099 C1098 1.391 . S
H1100 C1108 0.950 . S
H1101 C1113 0.950 . S
H1102 C1110 0.950 . S
H1103 C1112 0.950 . S
H1104 C1114 0.950 . S
H1105 C1116 0.950 . S
H1106 C1118 0.950 . S
H1107 C1119 0.950 . S
C1108 H1100 0.950 . S
C1108 C1109 1.386 . S
C1108 C1110 1.391 . S
C1109 C1108 1.386 . S
C1109 C1113 1.393 . S
C1110 H1102 0.950 . S
C1110 C1108 1.391 . S
C1110 C1111 1.400 . S
C1111 C1110 1.400 . S
C1111 C1112 1.398 . S
C1111 C1117 1.491 . S
C1112 H1103 0.950 . S
C1112 C1111 1.398 . S
C1112 C1113 1.391 . S
C1113 H1101 0.950 . S
C1113 C1109 1.393 . S
C1113 C1112 1.391 . S
C1114 H1104 0.950 . S
C1114 C1115 1.386 . S
C1114 C1116 1.391 . S
C1115 C1114 1.386 . S
C1115 C1119 1.393 . S
C1116 H1105 0.950 . S
C1116 C1114 1.391 . S
C1116 C1117 1.400 . S
C1117 C1111 1.491 . S
C1117 C1116 1.400 . S
C1117 C1118 1.398 . S
C1118 H1106 0.950 . S
C1118 C1117 1.398 . S
C1118 C1119 1.391 . S
C1119 H1107 0.950 . S
C1119 C1115 1.393 . S
C1119 C1118 1.391 . S
H1120 C1128 0.950 . S
H1121 C1133 0.950 . S
H1122 C1130 0.950 . S
H1123 C1132 0.950 . S
H1124 C1134 0.950 . S
H1125 C1136 0.950 . S
H1126 C1138 0.950 . S
H1127 C1139 0.950 . S
C1128 H1120 0.950 . S
C1128 C1129 1.386 . S
C1128 C1130 1.391 . S
C1129 C1128 1.386 . S
C1129 C1133 1.393 . S
C1130 H1122 0.950 . S
C1130 C1128 1.391 . S
C1130 C1131 1.400 . S
C1131 C1130 1.400 . S
C1131 C1132 1.398 . S
C1131 C1137 1.491 . S
C1132 H1123 0.950 . S
C1132 C1131 1.398 . S
C1132 C1133 1.391 . S
C1133 H1121 0.950 . S
C1133 C1129 1.393 . S
C1133 C1132 1.391 . S
C1134 H1124 0.950 . S
C1134 C1135 1.386 . S
C1134 C1136 1.391 . S
C1135 C1134 1.386 . S
C1135 C1139 1.393 . S
C1136 H1125 0.950 . S
C1136 C1134 1.391 . S
C1136 C1137 1.400 . S
C1137 C1131 1.491 . S
C1137 C1136 1.400 . S
C1137 C1138 1.398 . S
C1138 H1126 0.950 . S
C1138 C1137 1.398 . S
C1138 C1139 1.391 . S
C1139 H1127 0.950 . S
C1139 C1135 1.393 . S
C1139 C1138 1.391 . S
H1140 C1148 0.950 . S
H1141 C1153 0.950 . S
H1142 C1150 0.950 . S
H1143 C1152 0.950 . S
H1144 C1154 0.950 . S
H1145 C1156 0.950 . S
H1146 C1158 0.950 . S
H1147 C1159 0.950 . S
C1148 H1140 0.950 . S
C1148 C1149 1.386 . S
C1148 C1150 1.391 . S
C1149 C1148 1.386 . S
C1149 C1153 1.393 . S
C1150 H1142 0.950 . S
C1150 C1148 1.391 . S
C1150 C1151 1.400 . S
C1151 C1150 1.400 . S
C1151 C1152 1.398 . S
C1151 C1157 1.491 . S
C1152 H1143 0.950 . S
C1152 C1151 1.398 . S
C1152 C1153 1.391 . S
C1153 H1141 0.950 . S
C1153 C1149 1.393 . S
C1153 C1152 1.391 . S
C1154 H1144 0.950 . S
C1154 C1155 1.386 . S
C1154 C1156 1.391 . S
C1155 C1154 1.386 . S
C1155 C1159 1.393 . S
C1156 H1145 0.950 . S
C1156 C1154 1.391 . S
C1156 C1157 1.400 . S
C1157 C1151 1.491 . S
C1157 C1156 1.400 . S
C1157 C1158 1.398 . S
C1158 H1146 0.950 . S
C1158 C1157 1.398 . S
C1158 C1159 1.391 . S
C1159 H1147 0.950 . S
C1159 C1155 1.393 . S
C1159 C1158 1.391 . S
H1160 C1168 0.950 . S
H1161 C1173 0.950 . S
H1162 C1170 0.950 . S
H1163 C1172 0.950 . S
H1164 C1174 0.950 . S
H1165 C1176 0.950 . S
H1166 C1178 0.950 . S
H1167 C1179 0.950 . S
C1168 H1160 0.950 . S
C1168 C1169 1.386 . S
C1168 C1170 1.391 . S
C1169 C1168 1.386 . S
C1169 C1173 1.393 1_556 S
C1170 H1162 0.950 . S
C1170 C1168 1.391 . S
C1170 C1171 1.400 . S
C1171 C1170 1.400 . S
C1171 C1172 1.398 1_556 S
C1171 C1177 1.491 . S
C1172 H1163 0.950 . S
C1172 C1171 1.398 1_554 S
C1172 C1173 1.391 . S
C1173 H1161 0.950 . S
C1173 C1169 1.393 1_554 S
C1173 C1172 1.391 . S
C1174 H1164 0.950 . S
C1174 C1175 1.386 1_554 S
C1174 C1176 1.391 . S
C1175 C1174 1.386 1_556 S
C1175 C1179 1.393 . S
C1176 H1165 0.950 . S
C1176 C1174 1.391 . S
C1176 C1177 1.400 1_554 S
C1177 C1171 1.491 . S
C1177 C1176 1.400 1_556 S
C1177 C1178 1.398 . S
C1178 H1166 0.950 . S
C1178 C1177 1.398 . S
C1178 C1179 1.391 . S
C1179 H1167 0.950 . S
C1179 C1175 1.393 . S
C1179 C1178 1.391 . S
H1180 C1188 0.950 . S
H1181 C1193 0.950 . S
H1182 C1190 0.950 . S
H1183 C1192 0.950 . S
H1184 C1194 0.950 . S
H1185 C1196 0.950 . S
H1186 C1198 0.950 . S
H1187 C1199 0.950 . S
C1188 H1180 0.950 . S
C1188 C1189 1.386 . S
C1188 C1190 1.391 . S
C1189 C1188 1.386 . S
C1189 C1193 1.393 . S
C1190 H1182 0.950 . S
C1190 C1188 1.391 . S
C1190 C1191 1.400 . S
C1191 C1190 1.400 . S
C1191 C1192 1.398 . S
C1191 C1197 1.491 . S
C1192 H1183 0.950 . S
C1192 C1191 1.398 . S
C1192 C1193 1.391 . S
C1193 H1181 0.950 . S
C1193 C1189 1.393 . S
C1193 C1192 1.391 . S
C1194 H1184 0.950 . S
C1194 C1195 1.386 . S
C1194 C1196 1.391 . S
C1195 C1194 1.386 . S
C1195 C1199 1.393 . S
C1196 H1185 0.950 . S
C1196 C1194 1.391 . S
C1196 C1197 1.400 . S
C1197 C1191 1.491 . S
C1197 C1196 1.400 . S
C1197 C1198 1.398 . S
C1198 H1186 0.950 . S
C1198 C1197 1.398 . S
C1198 C1199 1.391 . S
C1199 H1187 0.950 . S
C1199 C1195 1.393 . S
C1199 C1198 1.391 . S
H1200 C1208 0.950 . S
H1201 C1213 0.950 . S
H1202 C1210 0.950 . S
H1203 C1212 0.950 . S
H1204 C1214 0.950 . S
H1205 C1216 0.950 . S
H1206 C1218 0.950 . S
H1207 C1219 0.950 . S
C1208 H1200 0.950 . S
C1208 C1209 1.386 . S
C1208 C1210 1.391 . S
C1209 C1208 1.386 . S
C1209 C1213 1.393 . S
C1210 H1202 0.950 . S
C1210 C1208 1.391 . S
C1210 C1211 1.400 . S
C1211 C1210 1.400 . S
C1211 C1212 1.398 . S
C1211 C1217 1.491 . S
C1212 H1203 0.950 . S
C1212 C1211 1.398 . S
C1212 C1213 1.391 . S
C1213 H1201 0.950 . S
C1213 C1209 1.393 . S
C1213 C1212 1.391 . S
C1214 H1204 0.950 . S
C1214 C1215 1.386 . S
C1214 C1216 1.391 . S
C1215 C1214 1.386 . S
C1215 C1219 1.393 . S
C1216 H1205 0.950 . S
C1216 C1214 1.391 . S
C1216 C1217 1.400 . S
C1217 C1211 1.491 . S
C1217 C1216 1.400 . S
C1217 C1218 1.398 . S
C1218 H1206 0.950 . S
C1218 C1217 1.398 . S
C1218 C1219 1.391 . S
C1219 H1207 0.950 . S
C1219 C1215 1.393 . S
C1219 C1218 1.391 . S
H1220 C1228 0.950 . S
H1221 C1233 0.950 . S
H1222 C1230 0.950 . S
H1223 C1232 0.950 . S
H1224 C1234 0.950 . S
H1225 C1236 0.950 . S
H1226 C1238 0.950 . S
H1227 C1239 0.950 . S
C1228 H1220 0.950 . S
C1228 C1229 1.386 . S
C1228 C1230 1.391 . S
C1229 C1228 1.386 . S
C1229 C1233 1.393 . S
C1230 H1222 0.950 . S
C1230 C1228 1.391 . S
C1230 C1231 1.400 . S
C1231 C1230 1.400 . S
C1231 C1232 1.398 . S
C1231 C1237 1.491 . S
C1232 H1223 0.950 . S
C1232 C1231 1.398 . S
C1232 C1233 1.391 . S
C1233 H1221 0.950 . S
C1233 C1229 1.393 . S
C1233 C1232 1.391 . S
C1234 H1224 0.950 . S
C1234 C1235 1.386 . S
C1234 C1236 1.391 . S
C1235 C1234 1.386 . S
C1235 C1239 1.393 . S
C1236 H1225 0.950 . S
C1236 C1234 1.391 . S
C1236 C1237 1.400 . S
C1237 C1231 1.491 . S
C1237 C1236 1.400 . S
C1237 C1238 1.398 . S
C1238 H1226 0.950 . S
C1238 C1237 1.398 . S
C1238 C1239 1.391 . S
C1239 H1227 0.950 . S
C1239 C1235 1.393 . S
C1239 C1238 1.391 . S
H1240 C1248 0.950 . S
H1241 C1253 0.950 . S
H1242 C1250 0.950 . S
H1243 C1252 0.950 . S
H1244 C1254 0.950 . S
H1245 C1256 0.950 . S
H1246 C1258 0.950 . S
H1247 C1259 0.950 . S
C1248 H1240 0.950 . S
C1248 C1249 1.386 . S
C1248 C1250 1.391 . S
C1249 C1248 1.386 . S
C1249 C1253 1.393 . S
C1250 H1242 0.950 . S
C1250 C1248 1.391 . S
C1250 C1251 1.400 . S
C1251 C1250 1.400 . S
C1251 C1252 1.398 . S
C1251 C1257 1.491 . S
C1252 H1243 0.950 . S
C1252 C1251 1.398 . S
C1252 C1253 1.391 . S
C1253 H1241 0.950 . S
C1253 C1249 1.393 . S
C1253 C1252 1.391 . S
C1254 H1244 0.950 . S
C1254 C1255 1.386 . S
C1254 C1256 1.391 . S
C1255 C1254 1.386 . S
C1255 C1259 1.393 . S
C1256 H1245 0.950 . S
C1256 C1254 1.391 . S
C1256 C1257 1.400 . S
C1257 C1251 1.491 . S
C1257 C1256 1.400 . S
C1257 C1258 1.398 . S
C1258 H1246 0.950 . S
C1258 C1257 1.398 . S
C1258 C1259 1.391 . S
C1259 H1247 0.950 . S
C1259 C1255 1.393 . S
C1259 C1258 1.391 . S
H1260 C1268 0.950 . S
H1261 C1273 0.950 . S
H1262 C1270 0.950 . S
H1263 C1272 0.950 . S
H1264 C1274 0.950 . S
H1265 C1276 0.950 . S
H1266 C1278 0.950 . S
H1267 C1279 0.950 . S
C1268 H1260 0.950 . S
C1268 C1269 1.386 . S
C1268 C1270 1.391 . S
C1269 C1268 1.386 . S
C1269 C1273 1.393 . S
C1270 H1262 0.950 . S
C1270 C1268 1.391 . S
C1270 C1271 1.400 . S
C1271 C1270 1.400 . S
C1271 C1272 1.398 . S
C1271 C1277 1.491 . S
C1272 H1263 0.950 . S
C1272 C1271 1.398 . S
C1272 C1273 1.391 . S
C1273 H1261 0.950 . S
C1273 C1269 1.393 . S
C1273 C1272 1.391 . S
C1274 H1264 0.950 . S
C1274 C1275 1.386 . S
C1274 C1276 1.391 . S
C1275 C1274 1.386 . S
C1275 C1279 1.393 . S
C1276 H1265 0.950 . S
C1276 C1274 1.391 . S
C1276 C1277 1.400 . S
C1277 C1271 1.491 . S
C1277 C1276 1.400 . S
C1277 C1278 1.398 . S
C1278 H1266 0.950 . S
C1278 C1277 1.398 . S
C1278 C1279 1.391 . S
C1279 H1267 0.950 . S
C1279 C1275 1.393 . S
C1279 C1278 1.391 . S
C329 C2 0.763 . S
C335 C24 0.775 . S
C349 C42 0.720 . S
C355 C29 0.777 . S
C369 C64 0.999 . S
C375 C59 1.064 . S
C389 C19 0.781 . S
C395 C69 0.802 . S
C409 C18 0.744 . S
C415 C192 0.763 . S
C429 C144 0.615 . S
C435 C22 0.691 . S
C449 C44 0.868 . S
C455 C212 0.903 . S
C469 C62 1.145 . S
C475 C264 1.055 . S
C489 C178 0.755 . S
C495 C32 0.730 . S
C509 C242 1.228 . S
C515 C58 1.315 . S
C529 C284 0.839 . S
C535 C72 0.924 . S
C549 C4 0.774 . S
C555 C222 0.726 . S
C569 C9 0.578 . S
C575 C169 0.606 . S
C589 C259 1.847 . S
C595 C99 1.847 . S
C609 C112 0.623 . S
C615 C289 0.617 . S
C629 C239 1.554 . S
C635 C139 1.553 . S
C649 C49 0.602 . S
C655 C152 0.620 . S
C669 C198 1.599 . S
C675 C98 1.600 . S
C689 C138 1.662 . S
C695 C218 1.661 . S
C709 C118 1.169 . S
C715 C232 1.144 . S
C729 C182 0.652 . S
C735 C104 0.642 . S
C749 C224 0.778 . S
C755 C142 0.790 . S
C769 C119 1.400 . S
C775 C89 1.375 . S
C789 C184 0.754 . S
C795 C162 0.804 . S
C809 C279 1.164 . S
C815 C229 1.140 . S
C829 C124 0.762 . S
C835 C102 0.801 . S
C849 C189 0.780 . S
C855 C282 0.777 . S
C869 C272 0.616 . S
C875 C12 0.561 . S
C889 C52 0.625 . S
C895 C292 0.577 . S
C909 C258 1.596 . S
C915 C38 1.596 . S
C929 C149 0.570 . S
C935 C109 0.607 . S
C949 C79 1.650 . S
C955 C219 1.650 . S
C969 C244 1.105 . S
C975 C262 1.040 . S
C989 C159 1.400 . S
C995 C249 1.382 . S
C1009 C132 1.145 . S
C1015 C158 1.170 . S
C1029 C92 1.150 . S
C1035 C278 1.196 . S
C1049 C252 1.176 . S
C1055 C318 1.189 . S
C1069 C312 0.555 . S
C1075 C172 0.608 . S
C1089 C39 1.482 . S
C1095 C199 1.480 . S
C1109 C164 0.756 . S
C1115 C122 0.743 . S
C1129 C179 0.788 . S
C1135 C209 0.760 . S
C1149 C319 1.158 . S
C1155 C129 1.152 . S
C1169 C269 0.631 1_556 S
C1175 C309 0.595 1_556 S
C1189 C238 1.659 . S
C1195 C78 1.658 1_565 S
C1209 C204 1.000 . S
C1215 C299 1.064 . S
C1229 C202 1.129 . S
C1235 C304 1.082 . S
C1249 C82 1.229 . S
C1255 C298 1.317 . S
C1269 C302 1.060 . S
C1275 C84 1.080 . S
