# Generated by pormake.
# Topology xfc, (7)-cn, num edge types: 1
# Building blocks:
#     Node 0, Type 0, BuildingBlock: NUHQUE_clean_sbu_2, # of connection points: 7
#     Node 1, Type 0, BuildingBlock: NUHQUE_clean_sbu_2, # of connection points: 7
#     Node 2, Type 0, BuildingBlock: NUHQUE_clean_sbu_2, # of connection points: 7
#     Node 3, Type 0, BuildingBlock: NUHQUE_clean_sbu_2, # of connection points: 7
#     Node 4, Type 0, BuildingBlock: NUHQUE_clean_sbu_2, # of connection points: 7
#     Node 5, Type 0, BuildingBlock: NUHQUE_clean_sbu_2, # of connection points: 7
#     Node 6, Type 0, BuildingBlock: NUHQUE_clean_sbu_2, # of connection points: 7
#     Node 7, Type 0, BuildingBlock: NUHQUE_clean_sbu_2, # of connection points: 7
#     Node 8, Type 0, BuildingBlock: NUHQUE_clean_sbu_2, # of connection points: 7
#     Node 9, Type 0, BuildingBlock: NUHQUE_clean_sbu_2, # of connection points: 7
#     Node 10, Type 0, BuildingBlock: NUHQUE_clean_sbu_2, # of connection points: 7
#     Node 11, Type 0, BuildingBlock: NUHQUE_clean_sbu_2, # of connection points: 7
#     Node 12, Type 0, BuildingBlock: NUHQUE_clean_sbu_2, # of connection points: 7
#     Node 13, Type 0, BuildingBlock: NUHQUE_clean_sbu_2, # of connection points: 7
#     Node 14, Type 0, BuildingBlock: NUHQUE_clean_sbu_2, # of connection points: 7
#     Node 15, Type 0, BuildingBlock: NUHQUE_clean_sbu_2, # of connection points: 7
#     Edge 16, Type (0, 0), BuildingBlock: UVAHIK_clean_linker_0, # of connection points: 2
#     Edge 17, Type (0, 0), BuildingBlock: UVAHIK_clean_linker_0, # of connection points: 2
#     Edge 18, Type (0, 0), BuildingBlock: UVAHIK_clean_linker_0, # of connection points: 2
#     Edge 19, Type (0, 0), BuildingBlock: UVAHIK_clean_linker_0, # of connection points: 2
#     Edge 20, Type (0, 0), BuildingBlock: UVAHIK_clean_linker_0, # of connection points: 2
#     Edge 21, Type (0, 0), BuildingBlock: UVAHIK_clean_linker_0, # of connection points: 2
#     Edge 22, Type (0, 0), BuildingBlock: UVAHIK_clean_linker_0, # of connection points: 2
#     Edge 23, Type (0, 0), BuildingBlock: UVAHIK_clean_linker_0, # of connection points: 2
#     Edge 24, Type (0, 0), BuildingBlock: UVAHIK_clean_linker_0, # of connection points: 2
#     Edge 25, Type (0, 0), BuildingBlock: UVAHIK_clean_linker_0, # of connection points: 2
#     Edge 26, Type (0, 0), BuildingBlock: UVAHIK_clean_linker_0, # of connection points: 2
#     Edge 27, Type (0, 0), BuildingBlock: UVAHIK_clean_linker_0, # of connection points: 2
#     Edge 28, Type (0, 0), BuildingBlock: UVAHIK_clean_linker_0, # of connection points: 2
#     Edge 29, Type (0, 0), BuildingBlock: UVAHIK_clean_linker_0, # of connection points: 2
#     Edge 30, Type (0, 0), BuildingBlock: UVAHIK_clean_linker_0, # of connection points: 2
#     Edge 31, Type (0, 0), BuildingBlock: UVAHIK_clean_linker_0, # of connection points: 2
#     Edge 32, Type (0, 0), BuildingBlock: UVAHIK_clean_linker_0, # of connection points: 2
#     Edge 33, Type (0, 0), BuildingBlock: UVAHIK_clean_linker_0, # of connection points: 2
#     Edge 34, Type (0, 0), BuildingBlock: UVAHIK_clean_linker_0, # of connection points: 2
#     Edge 35, Type (0, 0), BuildingBlock: UVAHIK_clean_linker_0, # of connection points: 2
#     Edge 36, Type (0, 0), BuildingBlock: UVAHIK_clean_linker_0, # of connection points: 2
#     Edge 37, Type (0, 0), BuildingBlock: UVAHIK_clean_linker_0, # of connection points: 2
#     Edge 38, Type (0, 0), BuildingBlock: UVAHIK_clean_linker_0, # of connection points: 2
#     Edge 39, Type (0, 0), BuildingBlock: UVAHIK_clean_linker_0, # of connection points: 2
#     Edge 40, Type (0, 0), BuildingBlock: UVAHIK_clean_linker_0, # of connection points: 2
#     Edge 41, Type (0, 0), BuildingBlock: UVAHIK_clean_linker_0, # of connection points: 2
#     Edge 42, Type (0, 0), BuildingBlock: UVAHIK_clean_linker_0, # of connection points: 2
#     Edge 43, Type (0, 0), BuildingBlock: UVAHIK_clean_linker_0, # of connection points: 2
#     Edge 44, Type (0, 0), BuildingBlock: UVAHIK_clean_linker_0, # of connection points: 2
#     Edge 45, Type (0, 0), BuildingBlock: UVAHIK_clean_linker_0, # of connection points: 2
#     Edge 46, Type (0, 0), BuildingBlock: UVAHIK_clean_linker_0, # of connection points: 2
#     Edge 47, Type (0, 0), BuildingBlock: UVAHIK_clean_linker_0, # of connection points: 2
#     Edge 48, Type (0, 0), BuildingBlock: UVAHIK_clean_linker_0, # of connection points: 2
#     Edge 49, Type (0, 0), BuildingBlock: UVAHIK_clean_linker_0, # of connection points: 2
#     Edge 50, Type (0, 0), BuildingBlock: UVAHIK_clean_linker_0, # of connection points: 2
#     Edge 51, Type (0, 0), BuildingBlock: UVAHIK_clean_linker_0, # of connection points: 2
#     Edge 52, Type (0, 0), BuildingBlock: UVAHIK_clean_linker_0, # of connection points: 2
#     Edge 53, Type (0, 0), BuildingBlock: UVAHIK_clean_linker_0, # of connection points: 2
#     Edge 54, Type (0, 0), BuildingBlock: UVAHIK_clean_linker_0, # of connection points: 2
#     Edge 55, Type (0, 0), BuildingBlock: UVAHIK_clean_linker_0, # of connection points: 2
#     Edge 56, Type (0, 0), BuildingBlock: UVAHIK_clean_linker_0, # of connection points: 2
#     Edge 57, Type (0, 0), BuildingBlock: UVAHIK_clean_linker_0, # of connection points: 2
#     Edge 58, Type (0, 0), BuildingBlock: UVAHIK_clean_linker_0, # of connection points: 2
#     Edge 59, Type (0, 0), BuildingBlock: UVAHIK_clean_linker_0, # of connection points: 2
#     Edge 60, Type (0, 0), BuildingBlock: UVAHIK_clean_linker_0, # of connection points: 2
#     Edge 61, Type (0, 0), BuildingBlock: UVAHIK_clean_linker_0, # of connection points: 2
#     Edge 62, Type (0, 0), BuildingBlock: UVAHIK_clean_linker_0, # of connection points: 2
#     Edge 63, Type (0, 0), BuildingBlock: UVAHIK_clean_linker_0, # of connection points: 2
#     Edge 64, Type (0, 0), BuildingBlock: UVAHIK_clean_linker_0, # of connection points: 2
#     Edge 65, Type (0, 0), BuildingBlock: UVAHIK_clean_linker_0, # of connection points: 2
#     Edge 66, Type (0, 0), BuildingBlock: UVAHIK_clean_linker_0, # of connection points: 2
#     Edge 67, Type (0, 0), BuildingBlock: UVAHIK_clean_linker_0, # of connection points: 2
#     Edge 68, Type (0, 0), BuildingBlock: UVAHIK_clean_linker_0, # of connection points: 2
#     Edge 69, Type (0, 0), BuildingBlock: UVAHIK_clean_linker_0, # of connection points: 2
#     Edge 70, Type (0, 0), BuildingBlock: UVAHIK_clean_linker_0, # of connection points: 2
#     Edge 71, Type (0, 0), BuildingBlock: UVAHIK_clean_linker_0, # of connection points: 2
# Relax obj value: 0.402
# Max RMSD: 0.227
# Mean RMSD: 0.227
data_MOF--net-xfc--node1-NUHQUE_clean_sbu_2--edge1-UVAHIK_clean_linker_0
_symmetry_space_group_name_H-M    P1
_symmetry_Int_Tables_number       1
_symmetry_cell_setting            triclinic
loop_
_symmetry_equiv_pos_as_xyz
'x, y, z'
_cell_length_a     46.600976
_cell_length_b     46.585402
_cell_length_c     58.734018
_cell_angle_alpha  89.861066
_cell_angle_beta   90.003098
_cell_angle_gamma 90.003691
loop_
_atom_site_label
_atom_site_type_symbol
_atom_site_fract_x
_atom_site_fract_y
_atom_site_fract_z
_atom_type_partial_charge
O0 O 0.01047 0.99542 0.15634 0.0
Tb1 Tb 0.9701 0.01759 0.15267 0.0
Eu2 Eu 0.98823 0.00532 0.20679 0.0
C3 C 0.03255 0.00467 0.14453 0.0
O4 O 0.02925 0.02666 0.13071 0.0
C5 C 0.01178 0.05705 0.17638 0.0
O6 O 0.9452 0.02717 0.20593 0.0
C7 C 0.00672 0.99094 0.24698 0.0
C8 C 0.9418 0.05506 0.20749 0.0
O9 O 0.96373 0.07116 0.21333 0.0
C10 C 0.94474 0.96746 0.17862 0.0
C11 C 0.00244 0.9703 0.26599 0.0
C12 C 0.02399 0.94982 0.27075 0.0
C13 C 0.02108 0.93072 0.28916 0.0
C14 C 0.99684 0.93267 0.3031 0.0
C15 C 0.97579 0.9537 0.29938 0.0
C16 C 0.97838 0.97215 0.28051 0.0
O17 O 0.98583 0.05698 0.16765 0.0
O18 O 0.01971 0.03565 0.18969 0.0
O19 O 0.97516 0.00287 0.11782 0.0
O20 O 0.95371 0.04241 0.12366 0.0
C21 C 0.96297 0.02477 0.10812 0.0
O22 O 0.96925 0.96591 0.18986 0.0
O23 O 0.93728 0.99149 0.1684 0.0
O24 O 0.98719 0.01097 0.24359 0.0
O25 O 0.01749 0.98059 0.22797 0.0
H26 H 0.04305 0.94877 0.26021 0.0
H27 H 0.99476 0.91809 0.31744 0.0
H28 H 0.96219 0.98845 0.27763 0.0
O29 O 0.25668 0.78358 0.45131 0.0
Tb30 Tb 0.26606 0.7552 0.42283 0.0
Eu31 Eu 0.22749 0.71725 0.46259 0.0
C32 C 0.26286 0.81108 0.45143 0.0
O33 O 0.25393 0.82716 0.46833 0.0
C34 C 0.20376 0.74504 0.41852 0.0
O35 O 0.19876 0.67848 0.46181 0.0
C36 C 0.24061 0.73727 0.50243 0.0
C37 C 0.17172 0.68132 0.45589 0.0
O38 O 0.16037 0.70713 0.45576 0.0
C39 C 0.28751 0.69517 0.44024 0.0
C40 C 0.25761 0.73218 0.52326 0.0
C41 C 0.27192 0.75563 0.53326 0.0
C42 C 0.2871 0.75221 0.55373 0.0
C43 C 0.28794 0.72513 0.56406 0.0
C44 C 0.27448 0.70138 0.55407 0.0
C45 C 0.25941 0.70486 0.53351 0.0
O46 O 0.2277 0.73431 0.41065 0.0
O47 O 0.20124 0.74725 0.44067 0.0
O48 O 0.26165 0.78164 0.39219 0.0
O49 O 0.30203 0.76299 0.39964 0.0
C50 C 0.28777 0.77828 0.38498 0.0
O51 O 0.26191 0.68846 0.44813 0.0
O52 O 0.29462 0.72145 0.4343 0.0
O53 O 0.218 0.72089 0.49874 0.0
O54 O 0.25509 0.74357 0.48385 0.0
H55 H 0.27096 0.77661 0.52525 0.0
H56 H 0.30026 0.72223 0.57958 0.0
H57 H 0.24903 0.68653 0.52572 0.0
O58 O 0.44696 0.98676 0.65048 0.0
Tb59 Tb 0.49178 0.99382 0.64234 0.0
Eu60 Eu 0.52327 0.97429 0.69975 0.0
C61 C 0.4307 0.97094 0.63715 0.0
O62 O 0.4424 0.95813 0.61956 0.0
C63 C 0.49281 0.93522 0.66347 0.0
O64 O 0.56495 0.95013 0.69858 0.0
C65 C 0.50792 0.992 0.73972 0.0
C66 C 0.56576 0.92239 0.69475 0.0
O67 O 0.54172 0.90767 0.69503 0.0
C68 C 0.53294 0.03085 0.66904 0.0
C69 C 0.51395 0.014 0.75718 0.0
C70 C 0.49116 0.03159 0.76452 0.0
C71 C 0.49568 0.05257 0.78119 0.0
C72 C 0.52296 0.05575 0.79067 0.0
C73 C 0.54558 0.03777 0.78431 0.0
C74 C 0.54123 0.01686 0.76746 0.0
O75 O 0.50779 0.95121 0.64953 0.0
O76 O 0.49134 0.94283 0.68495 0.0
O77 O 0.47468 0.0081 0.60967 0.0
O78 O 0.5188 0.99697 0.61194 0.0
C79 C 0.49852 0.00576 0.59839 0.0
O80 O 0.54549 0.00974 0.68011 0.0
O81 O 0.50579 0.02903 0.6635 0.0
O82 O 0.52688 0.97137 0.73662 0.0
O83 O 0.49593 0.00116 0.72071 0.0
H84 H 0.46986 0.0288 0.75742 0.0
H85 H 0.52627 0.07137 0.80411 0.0
H86 H 0.55876 0.00284 0.76268 0.0
O87 O 0.25546 0.1538 0.91383 0.0
Tb88 Tb 0.27726 0.19274 0.92382 0.0
Eu89 Eu 0.2938 0.25063 0.96285 0.0
C90 C 0.2698 0.12989 0.91052 0.0
O91 O 0.29649 0.12806 0.91745 0.0
C92 C 0.33201 0.19964 0.94816 0.0
O93 O 0.30522 0.29758 0.96121 0.0
C94 C 0.27525 0.23172 1.00179 0.0
C95 C 0.33212 0.30525 0.95824 0.0
O96 O 0.35225 0.28568 0.96032 0.0
C97 C 0.23697 0.24462 0.93093 0.0
C98 C 0.25303 0.23585 0.01956 0.0
C99 C 0.23562 0.21243 0.0263 0.0
C100 C 0.21563 0.2156 0.04406 0.0
C101 C 0.21374 0.24184 0.05541 0.0
C102 C 0.23114 0.26503 0.04924 0.0
C103 C 0.25038 0.26227 0.03105 0.0
O104 O 0.30707 0.18741 0.95148 0.0
O105 O 0.33272 0.22762 0.94976 0.0
O106 O 0.30316 0.18445 0.89366 0.0
O107 O 0.28991 0.22721 0.90028 0.0
C108 C 0.30404 0.21072 0.88634 0.0
O109 O 0.25822 0.26098 0.93807 0.0
O110 O 0.23829 0.21639 0.93151 0.0
O111 O 0.29517 0.25168 0.99973 0.0
O112 O 0.26701 0.22079 0.98217 0.0
H113 H 0.23764 0.1919 0.01781 0.0
H114 H 0.19858 0.24421 0.06931 0.0
H115 H 0.26369 0.28042 0.02636 0.0
O116 O 0.05363 0.02621 0.81314 0.0
Tb117 Tb 0.01469 0.02739 0.83345 0.0
Eu118 Eu 0.97471 0.98753 0.79065 0.0
C119 C 0.06926 0.00283 0.81124 0.0
O120 O 0.05996 0.97886 0.82029 0.0
C121 C 0.00293 0.96344 0.83429 0.0
O122 O 0.93476 0.96039 0.79287 0.0
C123 C 0.99577 0.99911 0.75081 0.0
C124 C 0.92112 0.9624 0.81244 0.0
O125 O 0.93214 0.97896 0.82825 0.0
C126 C 0.96094 0.05103 0.8106 0.0
C127 C 0.99361 0.02023 0.73189 0.0
C128 C 0.01693 0.03888 0.72755 0.0
C129 C 0.01599 0.05845 0.7093 0.0
C130 C 0.99195 0.05861 0.69503 0.0
C131 C 0.96884 0.04009 0.6988 0.0
C132 C 0.96944 0.02109 0.71738 0.0
O133 O 0.99244 0.9878 0.84149 0.0
O134 O 0.00237 0.95856 0.81233 0.0
O135 O 0.03866 0.03047 0.86533 0.0
O136 O 0.00399 0.05902 0.85949 0.0
C137 C 0.02353 0.05118 0.87401 0.0
O138 O 0.95093 0.02556 0.80521 0.0
O139 O 0.9886 0.05553 0.81266 0.0
O140 O 0.9743 0.98106 0.75396 0.0
O141 O 0.00727 0.00837 0.76995 0.0
H142 H 0.03573 0.03825 0.73841 0.0
H143 H 0.9913 0.07304 0.6805 0.0
H144 H 0.95145 0.00675 0.72014 0.0
O145 O 0.2748 0.80541 0.10776 0.0
Tb146 Tb 0.30802 0.77323 0.10699 0.0
Eu147 Eu 0.27688 0.7775 0.0543 0.0
C148 C 0.2803 0.83274 0.11091 0.0
O149 O 0.30694 0.84181 0.11187 0.0
C150 C 0.33399 0.80751 0.06955 0.0
O151 O 0.30407 0.73782 0.05766 0.0
C152 C 0.25268 0.7857 0.0149 0.0
C153 C 0.2925 0.71207 0.05726 0.0
O154 O 0.26543 0.70939 0.05136 0.0
C155 C 0.24995 0.74428 0.09664 0.0
C156 C 0.22816 0.7772 1.0003 0.0
C157 C 0.20901 0.79852 0.99231 0.0
C158 C 0.18612 0.7913 0.97774 0.0
C159 C 0.18277 0.76262 0.97117 0.0
C160 C 0.20193 0.7414 0.97846 0.0
C161 C 0.22463 0.7486 0.99302 0.0
O162 O 0.33806 0.78297 0.08007 0.0
O163 O 0.30822 0.81321 0.06162 0.0
O164 O 0.32406 0.79503 0.13717 0.0
O165 O 0.32686 0.7496 0.13572 0.0
C166 C 0.33197 0.77218 0.14816 0.0
O167 O 0.24415 0.7629 0.08028 0.0
O168 O 0.27646 0.7394 0.10353 0.0
O169 O 0.27336 0.7669 0.01834 0.0
O170 O 0.24677 0.80121 0.03299 0.0
H171 H 0.21204 0.8207 0.99731 0.0
H172 H 0.16585 0.75685 0.95934 0.0
H173 H 0.23954 0.73205 0.99836 0.0
O174 O 0.45721 0.95479 0.30172 0.0
Tb175 Tb 0.48934 0.98638 0.31035 0.0
Eu176 Eu 0.54028 0.02999 0.29264 0.0
C177 C 0.4303 0.96178 0.29812 0.0
O178 O 0.42308 0.98902 0.29739 0.0
C179 C 0.48075 0.05064 0.31137 0.0
O180 O 0.58061 0.05495 0.29927 0.0
C181 C 0.52504 0.02684 0.25026 0.0
C182 C 0.5789 0.08173 0.30602 0.0
O183 O 0.55379 0.09454 0.30573 0.0
C184 C 0.55015 0.96388 0.30291 0.0
C185 C 0.53151 0.0126 0.2285 0.0
C186 C 0.5086 0.00602 0.21377 0.0
C187 C 0.51379 0.99334 0.1925 0.0
C188 C 0.54215 0.98746 0.18616 0.0
C189 C 0.56515 0.99353 0.20071 0.0
C190 C 0.55984 0.00586 0.22208 0.0
O191 O 0.47118 0.02766 0.30086 0.0
O192 O 0.50849 0.05388 0.31421 0.0
O193 O 0.47377 0.97763 0.34461 0.0
O194 O 0.51471 0.99728 0.34047 0.0
C195 C 0.49598 0.98799 0.35518 0.0
O196 O 0.56039 0.98975 0.30628 0.0
O197 O 0.52364 0.96063 0.29576 0.0
O198 O 0.5438 0.04564 0.2579 0.0
O199 O 0.51355 0.01082 0.26633 0.0
H200 H 0.48677 0.0109 0.21885 0.0
H201 H 0.54638 0.97673 0.17013 0.0
H202 H 0.57756 0.01027 0.23349 0.0
O203 O 0.28487 0.19224 0.59788 0.0
Tb204 Tb 0.29128 0.23712 0.60604 0.0
Eu205 Eu 0.25565 0.25816 0.55325 0.0
C206 C 0.27006 0.17626 0.61215 0.0
O207 O 0.25981 0.18807 0.63073 0.0
C208 C 0.2277 0.23132 0.59677 0.0
O209 O 0.22482 0.29517 0.55637 0.0
C210 C 0.26639 0.23909 0.51267 0.0
C211 C 0.19822 0.29103 0.56304 0.0
O212 O 0.18775 0.26485 0.56286 0.0
C213 C 0.31536 0.28219 0.57295 0.0
C214 C 0.28281 0.24565 0.49173 0.0
C215 C 0.29812 0.22337 0.48088 0.0
C216 C 0.31375 0.22882 0.46085 0.0
C217 C 0.31316 0.25641 0.45141 0.0
C218 C 0.29779 0.27864 0.46174 0.0
C219 C 0.28296 0.27344 0.48213 0.0
O220 O 0.24596 0.24759 0.60778 0.0
O221 O 0.23211 0.22603 0.57511 0.0
O222 O 0.31645 0.22058 0.63461 0.0
O223 O 0.29639 0.26135 0.63764 0.0
C224 C 0.31218 0.24236 0.64801 0.0
O225 O 0.29002 0.28892 0.56476 0.0
O226 O 0.32031 0.25672 0.58166 0.0
O227 O 0.24412 0.2555 0.51746 0.0
O228 O 0.28142 0.2315 0.53073 0.0
H229 H 0.29817 0.20196 0.48817 0.0
H230 H 0.32473 0.26067 0.43571 0.0
H231 H 0.27128 0.29078 0.49019 0.0
O232 O 0.73987 0.32701 0.57094 0.0
Tb233 Tb 0.73703 0.28593 0.58821 0.0
Eu234 Eu 0.77988 0.25711 0.54416 0.0
C235 C 0.7565 0.34728 0.57918 0.0
O236 O 0.77232 0.34159 0.59714 0.0
C237 C 0.80181 0.28395 0.5893 0.0
O238 O 0.81196 0.2209 0.5454 0.0
C239 C 0.76944 0.27879 0.50431 0.0
C240 C 0.80394 0.19406 0.54251 0.0
O241 O 0.77812 0.18868 0.53462 0.0
C242 C 0.71769 0.23545 0.56008 0.0
C243 C 0.75359 0.27349 0.48292 0.0
C244 C 0.73757 0.29598 0.47298 0.0
C245 C 0.7244 0.29221 0.45167 0.0
C246 C 0.72723 0.2659 0.44051 0.0
C247 C 0.74235 0.24308 0.4504 0.0
C248 C 0.75535 0.24681 0.47173 0.0
O249 O 0.77933 0.27062 0.59743 0.0
O250 O 0.80391 0.28741 0.56722 0.0
O251 O 0.72127 0.30988 0.61763 0.0
O252 O 0.71158 0.26553 0.6149 0.0
C253 C 0.70871 0.28824 0.62748 0.0
O254 O 0.7444 0.22771 0.55642 0.0
O255 O 0.71158 0.26245 0.56381 0.0
O256 O 0.79162 0.2621 0.50867 0.0
O257 O 0.75422 0.28529 0.5225 0.0
H258 H 0.73574 0.31645 0.48161 0.0
H259 H 0.71636 0.26271 0.42436 0.0
H260 H 0.767 0.22911 0.47939 0.0
O261 O 0.72132 0.69658 0.12665 0.0
Tb262 Tb 0.73834 0.73611 0.11284 0.0
Eu263 Eu 0.7338 0.75683 0.03759 0.0
C264 C 0.71134 0.69618 0.14757 0.0
O265 O 0.70995 0.72033 0.15901 0.0
C266 C 0.69252 0.73644 0.0774 0.0
O267 O 0.72181 0.80127 0.04895 0.0
C268 C 0.73552 0.74761 0.99405 0.0
C269 C 0.69489 0.80805 0.05267 0.0
O270 O 0.67469 0.79011 0.04628 0.0
C271 C 0.78134 0.74855 0.07407 0.0
C272 C 0.75567 0.74783 0.97446 0.0
C273 C 0.7754 0.72516 0.97112 0.0
C274 C 0.79359 0.72513 0.95208 0.0
C275 C 0.79149 0.74726 0.93607 0.0
C276 C 0.77156 0.76948 0.93868 0.0
C277 C 0.75394 0.76995 0.95807 0.0
O278 O 0.70832 0.7546 0.08903 0.0
O279 O 0.69817 0.73265 0.0556 0.0
O280 O 0.77533 0.74494 0.13404 0.0
O281 O 0.73785 0.77102 0.13765 0.0
C282 C 0.76381 0.76614 0.14524 0.0
O283 O 0.77813 0.75785 0.05312 0.0
O284 O 0.7623 0.73013 0.08169 0.0
O285 O 0.72818 0.77254 1.00286 0.0
O286 O 0.73897 0.72727 0.00944 0.0
H287 H 0.77679 0.70765 0.98324 0.0
H288 H 0.80546 0.74706 0.92129 0.0
H289 H 0.73848 0.78715 0.96009 0.0
O290 O 0.71074 0.30899 0.92593 0.0
Tb291 Tb 0.7202 0.26632 0.91334 0.0
Eu292 Eu 0.71005 0.2313 0.97214 0.0
C293 C 0.69747 0.32789 0.91301 0.0
O294 O 0.68704 0.31963 0.89332 0.0
C295 C 0.66646 0.25772 0.93916 0.0
O296 O 0.69043 0.18725 0.96964 0.0
C297 C 0.73074 0.24683 0.01117 0.0
C298 C 0.66289 0.18412 0.96553 0.0
O299 O 0.64574 0.20611 0.96876 0.0
C300 C 0.76385 0.22571 0.93596 0.0
C301 C 0.75487 0.24216 0.02718 0.0
C302 C 0.77297 0.26547 0.03257 0.0
C303 C 0.79568 0.2621 0.0481 0.0
C304 C 0.8 0.23526 0.05831 0.0
C305 C 0.78179 0.21215 0.05366 0.0
C306 C 0.75918 0.21551 0.03811 0.0
O307 O 0.68394 0.24302 0.92639 0.0
O308 O 0.67385 0.2601 0.96052 0.0
O309 O 0.73152 0.2851 0.88042 0.0
O310 O 0.70942 0.24526 0.88125 0.0
C311 C 0.72018 0.26496 0.86809 0.0
O312 O 0.74511 0.21291 0.94946 0.0
O313 O 0.76013 0.25192 0.92826 0.0
O314 O 0.71139 0.22633 0.00896 0.0
O315 O 0.73692 0.26005 0.9919 0.0
H316 H 0.76932 0.28626 0.02475 0.0
H317 H 0.8169 0.2326 0.07085 0.0
H318 H 0.74501 0.19757 0.03478 0.0
O319 O 0.73414 0.6716 0.41905 0.0
Tb320 Tb 0.75541 0.71281 0.41977 0.0
Eu321 Eu 0.78321 0.7683 0.45274 0.0
C322 C 0.74207 0.65096 0.43301 0.0
O323 O 0.76199 0.656 0.44829 0.0
C324 C 0.81591 0.71687 0.43293 0.0
O325 O 0.80329 0.81233 0.45316 0.0
C326 C 0.77311 0.74582 0.49254 0.0
C327 C 0.78784 0.8357 0.45037 0.0
O328 O 0.75976 0.83394 0.45121 0.0
C329 C 0.71943 0.7672 0.42981 0.0
C330 C 0.7547 0.74704 0.5131 0.0
C331 C 0.74119 0.7217 0.52098 0.0
C332 C 0.72642 0.72157 0.54185 0.0
C333 C 0.72509 0.74672 0.55468 0.0
C334 C 0.73786 0.77209 0.54697 0.0
C335 C 0.75245 0.77241 0.52608 0.0
O336 O 0.79234 0.70575 0.441 0.0
O337 O 0.81705 0.74488 0.43264 0.0
O338 O 0.7682 0.7034 0.38473 0.0
O339 O 0.76726 0.74681 0.3958 0.0
C340 C 0.77264 0.72993 0.37876 0.0
O341 O 0.74285 0.78205 0.43442 0.0
O342 O 0.71901 0.73887 0.4301 0.0
O343 O 0.79131 0.76701 0.48912 0.0
O344 O 0.76164 0.73593 0.47366 0.0
H345 H 0.74282 0.70203 0.51124 0.0
H346 H 0.71359 0.74666 0.57076 0.0
H347 H 0.76254 0.7921 0.52035 0.0
O348 O 0.55883 0.52963 0.62728 0.0
Tb349 Tb 0.51731 0.52087 0.64228 0.0
Eu350 Eu 0.50034 0.52814 0.71784 0.0
C351 C 0.56206 0.53022 0.60507 0.0
O352 O 0.53953 0.52652 0.59196 0.0
C353 C 0.52782 0.56445 0.6786 0.0
O354 O 0.46078 0.55087 0.7054 0.0
C355 C 0.5058 0.52358 0.76171 0.0
C356 C 0.43658 0.53686 0.7024 0.0
O357 O 0.43428 0.5105 0.71019 0.0
C358 C 0.50064 0.47965 0.68101 0.0
C359 C 0.49983 0.50363 0.78098 0.0
C360 C 0.52277 0.4885 0.79125 0.0
C361 C 0.518 0.47139 0.8106 0.0
C362 C 0.49033 0.46905 0.81947 0.0
C363 C 0.46728 0.48349 0.80948 0.0
C364 C 0.47192 0.50091 0.79028 0.0
O365 O 0.50645 0.55187 0.66806 0.0
O366 O 0.53153 0.55865 0.70041 0.0
O367 O 0.4962 0.48937 0.62074 0.0
O368 O 0.48029 0.53251 0.62151 0.0
C369 C 0.47689 0.507 0.6127 0.0
O370 O 0.49072 0.48529 0.70145 0.0
O371 O 0.52147 0.49567 0.67308 0.0
O372 O 0.48385 0.53641 0.75187 0.0
O373 O 0.52608 0.51607 0.74726 0.0
H374 H 0.54436 0.49053 0.78458 0.0
H375 H 0.4866 0.45559 0.8343 0.0
H376 H 0.45398 0.51238 0.78285 0.0
O377 O 0.94085 0.55168 0.17315 0.0
Tb378 Tb 0.98185 0.53087 0.16826 0.0
Eu379 Eu 0.02529 0.48615 0.19496 0.0
C380 C 0.92536 0.54535 0.19121 0.0
O381 O 0.93645 0.52899 0.20717 0.0
C382 C 0.97107 0.46577 0.16819 0.0
O383 O 0.06462 0.45843 0.19467 0.0
C384 C 0.00109 0.49321 0.23438 0.0
C385 C 0.06222 0.43086 0.19054 0.0
O386 O 0.03652 0.41926 0.19037 0.0
C387 C 0.03993 0.55135 0.18595 0.0
C388 C 0.00214 0.5106 0.25543 0.0
C389 C 0.97728 0.52561 0.26227 0.0
C390 C 0.97693 0.54076 0.28286 0.0
C391 C 0.00126 0.54073 0.2967 0.0
C392 C 0.02623 0.52626 0.29015 0.0
C393 C 0.02684 0.51142 0.26936 0.0
O394 O 0.96037 0.49024 0.17523 0.0
O395 O 0.99865 0.46095 0.17017 0.0
O396 O 0.98137 0.54863 0.13377 0.0
O397 O 0.00722 0.51191 0.1409 0.0
C398 C 0.99919 0.52999 0.1252 0.0
O399 O 0.04948 0.52506 0.18359 0.0
O400 O 0.01223 0.55615 0.18799 0.0
O401 O 0.0218 0.47451 0.23077 0.0
O402 O 0.99241 0.50633 0.21576 0.0
H403 H 0.95816 0.52523 0.25176 0.0
H404 H 0.00095 0.55266 0.31255 0.0
H405 H 0.04623 0.50027 0.26433 0.0
O406 O 0.53691 0.46204 0.37049 0.0
Tb407 Tb 0.49486 0.47036 0.35646 0.0
Eu408 Eu 0.47961 0.46923 0.28024 0.0
C409 C 0.54062 0.45958 0.39256 0.0
O410 O 0.51832 0.46133 0.40617 0.0
C411 C 0.50609 0.42956 0.31832 0.0
O412 O 0.44179 0.44163 0.28936 0.0
C413 C 0.48994 0.47815 0.23739 0.0
C414 C 0.41722 0.45355 0.29493 0.0
O415 O 0.41305 0.48077 0.29006 0.0
C416 C 0.47686 0.51392 0.31973 0.0
C417 C 0.48887 0.50101 0.21967 0.0
C418 C 0.51439 0.51516 0.21303 0.0
C419 C 0.51405 0.53533 0.19525 0.0
C420 C 0.48839 0.54115 0.1839 0.0
C421 C 0.46285 0.52745 0.19015 0.0
C422 C 0.46302 0.50756 0.20818 0.0
O423 O 0.48445 0.44084 0.32947 0.0
O424 O 0.5102 0.43764 0.29702 0.0
O425 O 0.47398 0.50036 0.37932 0.0
O426 O 0.4594 0.4568 0.37827 0.0
C427 C 0.45582 0.48188 0.38781 0.0
O428 O 0.46774 0.51006 0.29881 0.0
O429 O 0.49808 0.49788 0.32691 0.0
O430 O 0.46546 0.4676 0.24494 0.0
O431 O 0.50956 0.48084 0.25341 0.0
H432 H 0.53452 0.51031 0.22143 0.0
H433 H 0.48825 0.55685 0.17021 0.0
H434 H 0.44321 0.49686 0.21284 0.0
O435 O 0.94675 0.44819 0.86463 0.0
Tb436 Tb 0.98797 0.46267 0.85223 0.0
Eu437 Eu 0.03356 0.49877 0.81797 0.0
C438 C 0.92299 0.45155 0.8529 0.0
O439 O 0.92432 0.45901 0.83134 0.0
C440 C 0.97706 0.52447 0.83919 0.0
O441 O 0.07263 0.52546 0.82523 0.0
C442 C 0.01885 0.49399 0.77552 0.0
C443 C 0.0713 0.55359 0.82433 0.0
O444 O 0.04811 0.56575 0.81599 0.0
C445 C 0.03804 0.43196 0.83045 0.0
C446 C 0.02086 0.47381 0.75603 0.0
C447 C 0.99611 0.45872 0.74897 0.0
C448 C 0.99726 0.43996 0.73031 0.0
C449 C 0.02293 0.43712 0.71824 0.0
C450 C 0.04749 0.45234 0.72456 0.0
C451 C 0.04667 0.47041 0.74365 0.0
O452 O 0.96721 0.49858 0.83561 0.0
O453 O 0.00472 0.52914 0.83734 0.0
O454 O 0.00079 0.45271 0.88702 0.0
O455 O 0.01644 0.49101 0.87171 0.0
C456 C 0.01634 0.4755 0.89019 0.0
O457 O 0.05155 0.45676 0.83067 0.0
O458 O 0.00993 0.43099 0.83182 0.0
O459 O 0.04242 0.50717 0.78217 0.0
O460 O 0.00211 0.48622 0.79254 0.0
H461 H 0.97603 0.46135 0.75805 0.0
H462 H 0.02378 0.42308 0.70353 0.0
H463 H 0.06584 0.48207 0.74848 0.0
C464 C 0.03914 0.04257 0.91392 0.0
C465 C 0.02331 0.05893 0.89828 0.0
C466 C 0.03437 0.04553 0.93725 0.0
C467 C 0.97646 0.06728 0.97632 0.0
H468 H 0.03384 0.04929 0.02196 0.0
C469 C 0.95513 0.05701 0.07441 0.0
C470 C 0.96583 0.03132 0.08368 0.0
C471 C 0.96175 0.0647 0.05192 0.0
C472 C 0.01763 0.05446 0.00937 0.0
H473 H 0.99174 0.09275 0.8946 0.0
H474 H 0.98404 0.09869 0.93546 0.0
H475 H 0.04865 0.05779 0.9827 0.0
H476 H 0.99097 0.99316 0.07668 0.0
H477 H 0.00267 0.00671 0.03772 0.0
H478 H 0.9455 0.06376 0.00324 0.0
C479 C -0.00045 0.08297 0.92974 0.0
C480 C 0.02606 0.05922 0.98688 0.0
C481 C 0.00416 0.0798 0.90636 0.0
C482 C 0.98239 0.01308 0.06997 0.0
C483 C 0.98932 0.02093 0.04775 0.0
C484 C 0.96809 0.06289 0.99893 0.0
C485 C 0.01383 0.06513 0.94544 0.0
C486 C 0.0055 0.06479 0.96991 0.0
C487 C 0.97954 0.04702 0.03866 0.0
C488 C 0.98852 0.05557 0.01547 0.0
H489 H 0.05392 0.02618 0.90811 0.0
H490 H 0.04556 0.03116 0.94873 0.0
H491 H 0.95995 0.07116 0.96372 0.0
H492 H 0.94243 0.07149 0.0847 0.0
H493 H 0.95389 0.08488 0.04519 0.0
C494 C 0.32674 0.78116 0.35589 0.0
C495 C 0.29806 0.78608 0.36209 0.0
C496 C 0.33517 0.78323 0.33308 0.0
C497 C 0.34704 0.79835 0.28233 0.0
H498 H 0.29582 0.75308 0.24465 0.0
C499 C 0.34505 0.79825 0.18356 0.0
C500 C 0.33912 0.77215 0.17259 0.0
C501 C 0.34578 0.79973 0.20731 0.0
C502 C 0.31051 0.76551 0.25497 0.0
H503 H 0.25624 0.79933 0.34986 0.0
H504 H 0.27086 0.80261 0.30999 0.0
H505 H 0.28482 0.75989 0.2848 0.0
H506 H 0.33131 0.72676 0.17762 0.0
H507 H 0.33237 0.72932 0.21926 0.0
H508 H 0.37251 0.80425 0.25219 0.0
C509 C 0.28676 0.79694 0.32268 0.0
C510 C 0.30399 0.76977 0.27788 0.0
C511 C 0.27844 0.79518 0.34547 0.0
C512 C 0.33594 0.74713 0.18568 0.0
C513 C 0.33635 0.74866 0.20947 0.0
C514 C 0.35339 0.79441 0.25921 0.0
C515 C 0.31491 0.78991 0.31617 0.0
C516 C 0.32206 0.78632 0.29177 0.0
C517 C 0.34028 0.77517 0.2205 0.0
C518 C 0.33516 0.77791 0.24533 0.0
H519 H 0.34232 0.77435 0.36849 0.0
H520 H 0.35702 0.77778 0.32851 0.0
H521 H 0.36134 0.81114 0.29272 0.0
H522 H 0.34762 0.81786 0.17381 0.0
H523 H 0.34873 0.82045 0.2153 0.0
C524 C 0.47448 0.98539 0.39378 0.0
C525 C 0.49862 0.99011 0.38005 0.0
C526 C 0.47644 0.98795 0.41736 0.0
C527 C 0.52192 0.01816 0.46341 0.0
H528 H 0.47526 0.96774 0.5008 0.0
C529 C 0.52767 0.00662 0.56264 0.0
C530 C 0.5009 0.00849 0.57351 0.0
C531 C 0.52928 0.00614 0.53884 0.0
C532 C 0.48832 0.982 0.49053 0.0
H533 H 0.54379 0.00096 0.37994 0.0
H534 H 0.54763 0.00441 0.42139 0.0
H535 H 0.47524 0.96186 0.45967 0.0
H536 H 0.45499 0.01226 0.56832 0.0
H537 H 0.4578 0.01085 0.52683 0.0
H538 H 0.53547 0.03766 0.49473 0.0
C539 C 0.52697 -0.00056 0.41395 0.0
C540 C 0.48822 0.97878 0.46695 0.0
C541 C 0.52487 0.99728 0.39025 0.0
C542 C 0.4759 0.0108 0.56033 0.0
C543 C 0.47747 0.00986 0.53665 0.0
C544 C 0.52236 0.02105 0.48712 0.0
C545 C 0.50274 0.9948 0.42781 0.0
C546 C 0.50458 0.99716 0.45302 0.0
C547 C 0.5041 0.00704 0.52573 0.0
C548 C 0.50516 0.0033 0.50079 0.0
H549 H 0.4539 0.98014 0.38627 0.0
H550 H 0.45716 0.98492 0.42736 0.0
H551 H 0.53456 0.03287 0.45324 0.0
H552 H 0.54724 0.00484 0.5725 0.0
H553 H 0.55003 0.0039 0.53073 0.0
C554 C 0.33664 0.22101 0.6818 0.0
C555 C 0.32063 0.24347 0.67218 0.0
C556 C 0.34171 0.22016 0.70523 0.0
C557 C 0.33756 0.26258 0.75881 0.0
H558 H 0.32273 0.18802 0.78578 0.0
C559 C 0.30729 0.24499 0.8536 0.0
C560 C 0.31546 0.21905 0.86391 0.0
C561 C 0.31394 0.25025 0.83071 0.0
C562 C 0.32755 0.20891 0.7786 0.0
H563 H 0.29846 0.28334 0.67922 0.0
H564 H 0.3069 0.28169 0.72025 0.0
H565 H 0.32345 0.19301 0.74472 0.0
H566 H 0.33887 0.17933 0.8592 0.0
H567 H 0.35129 0.18883 0.81962 0.0
H568 H 0.34088 0.27852 0.79294 0.0
C569 C 0.31587 0.26489 0.70972 0.0
C570 C 0.32794 0.21178 0.75497 0.0
C571 C 0.31089 0.26578 0.68623 0.0
C572 C 0.33211 0.19941 0.85156 0.0
C573 C 0.33901 0.20477 0.82883 0.0
C574 C 0.33719 0.2597 0.78256 0.0
C575 C 0.33073 0.24168 0.71956 0.0
C576 C 0.33266 0.23867 0.74474 0.0
C577 C 0.32905 0.22973 0.81786 0.0
C578 C 0.33191 0.23285 0.79273 0.0
H579 H 0.34455 0.20363 0.67131 0.0
H580 H 0.35368 0.20226 0.71221 0.0
H581 H 0.34152 0.28355 0.75146 0.0
H582 H 0.29438 0.26044 0.86279 0.0
H583 H 0.30582 0.26963 0.82279 0.0
C584 C 0.70411 0.24325 0.83147 0.0
C585 C 0.71668 0.26623 0.84323 0.0
C586 C 0.69899 0.24532 0.80808 0.0
C587 C 0.68878 0.29822 0.76218 0.0
H588 H 0.71091 0.23581 0.72235 0.0
C589 C 0.70434 0.3114 0.66548 0.0
C590 C 0.69915 0.28773 0.65135 0.0
C591 C 0.70089 0.30895 0.68902 0.0
C592 C 0.70401 0.25322 0.73323 0.0
H593 H 0.7339 0.30925 0.84 0.0
H594 H 0.72507 0.31286 0.7991 0.0
H595 H 0.71699 0.23068 0.76331 0.0
H596 H 0.68414 0.24374 0.6503 0.0
H597 H 0.67737 0.23963 0.69139 0.0
H598 H 0.67607 0.32091 0.73209 0.0
C599 C 0.71897 0.29336 0.80794 0.0
C600 C 0.70764 0.2503 0.75671 0.0
C601 C 0.72428 0.29119 0.83127 0.0
C602 C 0.68845 0.26226 0.66089 0.0
C603 C 0.68483 0.25984 0.68442 0.0
C604 C 0.68499 0.3011 0.73869 0.0
C605 C 0.70612 0.27051 0.79614 0.0
C606 C 0.7005 0.27294 0.77138 0.0
C607 C 0.69202 0.28282 0.69882 0.0
C608 C 0.69298 0.2788 0.72391 0.0
H609 H 0.69792 0.22383 0.84039 0.0
H610 H 0.68894 0.22744 0.79943 0.0
H611 H 0.68265 0.31584 0.77315 0.0
H612 H 0.7127 0.33126 0.65851 0.0
H613 H 0.70682 0.32702 0.69959 0.0
C614 C 0.75782 0.7922 0.18207 0.0
C615 C 0.77525 0.77646 0.16712 0.0
C616 C 0.76516 0.79432 0.20513 0.0
C617 C 0.79363 0.74658 0.24586 0.0
H618 H 0.79435 0.80915 0.28917 0.0
C619 C 0.79632 0.72159 0.34137 0.0
C620 C 0.78045 0.73952 0.35573 0.0
C621 C 0.80193 0.72985 0.31892 0.0
C622 C 0.79386 0.79136 0.27737 0.0
H623 H 0.8156 0.75369 0.16375 0.0
H624 H 0.82805 0.75696 0.20402 0.0
H625 H 0.79287 0.8196 0.24832 0.0
H626 H 0.75853 0.7803 0.35843 0.0
H627 H 0.76643 0.79398 0.31892 0.0
H628 H 0.79222 0.71817 0.2742 0.0
C629 C 0.80876 0.76751 0.19799 0.0
C630 C 0.79331 0.79745 0.25399 0.0
C631 C 0.80161 0.76568 0.17498 0.0
C632 C 0.7709 0.76616 0.34758 0.0
C633 C 0.77571 0.77407 0.32492 0.0
C634 C 0.79344 0.74047 0.26909 0.0
C635 C 0.78989 0.78057 0.21343 0.0
C636 C 0.7931 0.77506 0.23809 0.0
C637 C 0.79089 0.75581 0.31009 0.0
C638 C 0.79335 0.76272 0.28528 0.0
H639 H 0.73742 0.80078 0.17641 0.0
H640 H 0.75026 0.80445 0.21677 0.0
H641 H 0.7929 0.72892 0.23389 0.0
H642 H 0.8043 0.70112 0.34747 0.0
H643 H 0.81456 0.71557 0.30843 0.0
C644 C 0.42168 0.46534 0.41799 0.0
C645 C 0.439 0.487 0.40865 0.0
C646 C 0.41116 0.46788 0.44024 0.0
C647 C 0.41538 0.4659 0.49141 0.0
H648 H 0.41581 0.53862 0.52314 0.0
C649 C 0.46277 0.47587 0.58029 0.0
C650 C 0.45776 0.50042 0.59344 0.0
C651 C 0.44899 0.47238 0.55938 0.0
C652 C 0.41489 0.51794 0.51484 0.0
H653 H 0.45666 0.52939 0.41419 0.0
H654 H 0.43991 0.53336 0.45292 0.0
H655 H 0.4092 0.53792 0.48242 0.0
H656 H 0.43208 0.53891 0.59656 0.0
H657 H 0.40658 0.53209 0.56071 0.0
H658 H 0.41972 0.44583 0.52392 0.0
C659 C 0.4336 0.51456 0.44338 0.0
C660 C 0.41167 0.5176 0.49118 0.0
C661 C 0.44354 0.51224 0.42106 0.0
C662 C 0.43668 0.52003 0.58646 0.0
C663 C 0.4223 0.5162 0.56576 0.0
C664 C 0.41766 0.46618 0.51514 0.0
C665 C 0.41832 0.49187 0.45371 0.0
C666 C 0.41371 0.49173 0.47895 0.0
C667 C 0.4293 0.49306 0.55133 0.0
C668 C 0.41928 0.49228 0.5271 0.0
H669 H 0.41749 0.44581 0.40857 0.0
H670 H 0.3986 0.45038 0.44716 0.0
H671 H 0.4169 0.44538 0.48291 0.0
H672 H 0.47881 0.46029 0.58538 0.0
H673 H 0.45542 0.45437 0.54897 0.0
C674 C 0.0026 0.55177 0.08636 0.0
C675 C 0.00792 0.52864 0.1011 0.0
C676 C 0.00987 0.54994 0.06329 0.0
C677 C 0.05055 0.50476 0.02136 0.0
H678 H 0.99698 0.53825 0.97834 0.0
C679 C 0.03016 0.4643 0.9301 0.0
C680 C 0.02667 0.48471 0.91271 0.0
C681 C 0.03461 0.47302 0.95255 0.0
C682 C 0.01243 0.52921 0.99014 0.0
H683 H 0.02514 0.48559 0.10352 0.0
H684 H 0.03661 0.48172 0.06324 0.0
H685 H 0.99075 0.54695 0.01884 0.0
H686 H 0.02628 0.53014 0.90479 0.0
H687 H 0.0333 0.5455 0.94436 0.0
H688 H 0.07093 0.48546 0.99243 0.0
C689 C 0.02776 0.50173 0.06939 0.0
C690 C 0.00894 0.53423 0.01342 0.0
C691 C 0.02095 0.5038 0.0925 0.0
C692 C 0.02913 0.51401 0.91792 0.0
C693 C 0.03296 0.52277 0.94051 0.0
C694 C 0.0537 0.49933 0.99808 0.0
C695 C 0.02214 0.5247 0.05438 0.0
C696 C 0.02763 0.52165 0.02944 0.0
C697 C 0.03505 0.50233 0.95808 0.0
C698 C 0.0344 0.51115 0.9823 0.0
H699 H 0.99277 0.57128 0.09264 0.0
H700 H 0.00572 0.5683 0.05246 0.0
H701 H 0.06583 0.49526 0.03304 0.0
H702 H 0.02826 0.44158 0.92648 0.0
H703 H 0.03593 0.45683 0.96579 0.0
C704 C 0.1667 0.1954 0.0495 0.0
C705 C 0.19651 0.19213 0.05179 0.0
C706 C 0.14784 0.17781 0.0617 0.0
C707 C 0.14492 0.1366 0.1152 0.0
H708 H 0.0708 0.11246 0.09223 0.0
C709 C 0.06337 0.06982 0.16875 0.0
C710 C 0.03398 0.07562 0.16562 0.0
C711 C 0.08411 0.08334 0.15516 0.0
C712 C 0.09127 0.11934 0.09902 0.0
H713 H 0.23007 0.16747 0.06805 0.0
H714 H 0.19707 0.1362 0.08926 0.0
H715 H 0.1054 0.1344 0.06641 0.0
H716 H 0.00363 0.10158 0.14659 0.0
H717 H 0.03972 0.1256 0.1234 0.0
H718 H 0.13062 0.12185 0.14789 0.0
C719 C 0.18825 0.15246 0.07806 0.0
C720 C 0.1112 0.13181 0.08415 0.0
C721 C 0.20716 0.17001 0.06568 0.0
C722 C 0.02602 0.09648 0.14946 0.0
C723 C 0.04674 0.11001 0.13592 0.0
C724 C 0.12496 0.12413 0.13009 0.0
C725 C 0.15835 0.1567 0.07672 0.0
C726 C 0.13818 0.14093 0.09207 0.0
C727 C 0.076 0.10307 0.13815 0.0
C728 C 0.09771 0.11567 0.12227 0.0
H729 H 0.15803 0.21272 0.03924 0.0
H730 H 0.12504 0.18197 0.06039 0.0
H731 H 0.1653 0.14375 0.122 0.0
H732 H 0.07032 0.0537 0.18086 0.0
H733 H 0.10639 0.07732 0.1573 0.0
C734 C 0.07162 0.91913 0.30064 0.0
C735 C 0.04379 0.90974 0.29531 0.0
C736 C 0.09123 0.9004 0.31103 0.0
C737 C 0.10644 0.82387 0.32403 0.0
H738 H 0.14148 0.85399 0.3789 0.0
C739 C 0.18843 0.76008 0.37927 0.0
C740 C 0.18461 0.76142 0.40301 0.0
C741 C 0.17208 0.77739 0.36468 0.0
C742 C 0.13181 0.84524 0.36365 0.0
H743 H 0.01517 0.87313 0.29532 0.0
H744 H 0.0495 0.8403 0.313 0.0
H745 H 0.11305 0.88566 0.35457 0.0
H746 H 0.1601 0.78161 0.42997 0.0
H747 H 0.13168 0.81188 0.40452 0.0
H748 H 0.12495 0.78333 0.33333 0.0
C749 C 0.05622 0.86207 0.3093 0.0
C750 C 0.11582 0.86347 0.34955 0.0
C751 C 0.03655 0.88086 0.29921 0.0
C752 C 0.16362 0.78004 0.41179 0.0
C753 C 0.14749 0.79755 0.39721 0.0
C754 C 0.12274 0.80569 0.338 0.0
C755 C 0.08349 0.87184 0.31598 0.0
C756 C 0.10265 0.85294 0.32971 0.0
C757 C 0.15172 0.79665 0.37351 0.0
C758 C 0.13528 0.81609 0.35814 0.0
H759 H 0.07763 0.94135 0.29801 0.0
H760 H 0.11218 0.90847 0.31578 0.0
H761 H 0.09665 0.81513 0.30882 0.0
H762 H 0.20444 0.74601 0.37193 0.0
H763 H 0.17595 0.77629 0.34652 0.0
C764 C 0.32438 0.79099 0.55178 0.0
C765 C 0.30337 0.77614 0.56424 0.0
C766 C 0.34313 0.80997 0.56277 0.0
C767 C 0.37243 0.82435 0.62051 0.0
H768 H 0.40539 0.8913 0.59121 0.0
C769 C 0.4481 0.90517 0.66623 0.0
C770 C 0.4723 0.91418 0.65383 0.0
C771 C 0.42685 0.88846 0.65582 0.0
C772 C 0.39647 0.87254 0.59954 0.0
H773 H 0.28414 0.77085 0.59753 0.0
H774 H 0.31598 0.80469 0.61656 0.0
H775 H 0.36795 0.86407 0.57178 0.0
H776 H 0.49397 0.91132 0.62123 0.0
H777 H 0.45693 0.88219 0.60315 0.0
H778 H 0.40083 0.83311 0.64836 0.0
C779 C 0.31881 0.80105 0.5985 0.0
C780 C 0.37504 0.85689 0.5884 0.0
C781 C 0.30035 0.78187 0.58758 0.0
C782 C 0.47546 0.90495 0.63119 0.0
C783 C 0.45415 0.88847 0.62076 0.0
C784 C 0.39364 0.84017 0.63172 0.0
C785 C 0.34105 0.8147 0.58641 0.0
C786 C 0.36286 0.83241 0.59865 0.0
C787 C 0.42937 0.88049 0.63282 0.0
C788 C 0.40611 0.86424 0.62127 0.0
H789 H 0.32734 0.78672 0.53381 0.0
H790 H 0.36008 0.81985 0.55288 0.0
H791 H 0.36407 0.80534 0.62882 0.0
H792 H 0.445 0.91195 0.68368 0.0
H793 H 0.40796 0.88262 0.66553 0.0
C794 C 0.36867 0.20189 0.91696 0.0
C795 C 0.3524 0.18555 0.93246 0.0
C796 C 0.38339 0.18849 0.89919 0.0
C797 C 0.38042 0.12376 0.86408 0.0
H798 H 0.45819 0.14395 0.84708 0.0
C799 C 0.45026 0.0557 0.80339 0.0
C800 C 0.47192 0.06953 0.79094 0.0
C801 C 0.43258 0.07144 0.81802 0.0
C802 C 0.43623 0.13844 0.85123 0.0
H803 H 0.34107 0.14242 0.94283 0.0
H804 H 0.3666 0.11895 0.91158 0.0
H805 H 0.43558 0.16786 0.87919 0.0
H806 H 0.4907 0.11061 0.78234 0.0
H807 H 0.45903 0.13837 0.80702 0.0
H808 H 0.38096 0.09441 0.83608 0.0
C809 C 0.36735 0.14213 0.91289 0.0
C810 C 0.42339 0.15203 0.86977 0.0
C811 C 0.35287 0.15551 0.93078 0.0
C812 C 0.47407 0.09954 0.79182 0.0
C813 C 0.4562 0.11532 0.80618 0.0
C814 C 0.39318 0.11031 0.84538 0.0
C815 C 0.38213 0.15855 0.89658 0.0
C816 C 0.39551 0.14457 0.87657 0.0
C817 C 0.43617 0.10132 0.82029 0.0
C818 C 0.42138 0.11726 0.83885 0.0
H819 H 0.36878 0.22511 0.91774 0.0
H820 H 0.39461 0.20169 0.88686 0.0
H821 H 0.35866 0.118 0.86871 0.0
H822 H 0.44852 0.0325 0.80321 0.0
H823 H 0.41754 0.05987 0.82868 0.0
C824 C 0.13686 0.80748 0.96629 0.0
C825 C 0.16642 0.81325 0.96783 0.0
C826 C 0.11883 0.82503 0.95332 0.0
C827 C 0.11234 0.89575 0.92478 0.0
H828 H 0.05921 0.85493 0.88561 0.0
C829 C 0.02433 0.95406 0.87277 0.0
C830 C 0.01987 0.94515 0.85016 0.0
C831 C 0.04211 0.93837 0.88741 0.0
C832 C 0.07402 0.86667 0.89632 0.0
H833 H 0.19991 0.84299 0.95793 0.0
H834 H 0.16828 0.874 0.93537 0.0
H835 H 0.09044 0.82809 0.91127 0.0
H836 H 0.03029 0.91239 0.82538 0.0
H837 H 0.06119 0.88477 0.85104 0.0
H838 H 0.09607 0.93435 0.90959 0.0
C839 C 0.15908 0.85578 0.94423 0.0
C840 C 0.09172 0.8513 0.91125 0.0
C841 C 0.17721 0.8381 0.95724 0.0
C842 C 0.03315 0.91977 0.84271 0.0
C843 C 0.05084 0.90394 0.85743 0.0
C844 C 0.09448 0.91116 0.90993 0.0
C845 C 0.12983 0.84893 0.94156 0.0
C846 C 0.11105 0.86562 0.92574 0.0
C847 C 0.05577 0.91321 0.87991 0.0
C848 C 0.07505 0.89681 0.89552 0.0
H849 H 0.1278 0.78871 0.97453 0.0
H850 H 0.0963 0.81952 0.95211 0.0
H851 H 0.1269 0.90746 0.93573 0.0
H852 H 0.01447 0.97349 0.87915 0.0
H853 H 0.04504 0.94591 0.90468 0.0
C854 C 0.4928 0.98755 0.1535 0.0
C855 C 0.49009 0.98416 0.17721 0.0
C856 C 0.47386 0.9738 0.13869 0.0
C857 C 0.40473 0.93578 0.13392 0.0
H858 H 0.44501 0.88866 0.08984 0.0
C859 C 0.38116 0.82559 0.0839 0.0
C860 C 0.3542 0.83134 0.07419 0.0
C861 C 0.3979 0.84785 0.09267 0.0
C862 C 0.43348 0.90189 0.10192 0.0
H863 H 0.464 0.96552 0.20398 0.0
H864 H 0.43049 0.94186 0.17803 0.0
H865 H 0.47187 0.92253 0.11333 0.0
H866 H 0.32457 0.86528 0.06465 0.0
H867 H 0.35369 0.90409 0.08038 0.0
H868 H 0.3664 0.91454 0.12279 0.0
C869 C 0.44744 0.95505 0.17095 0.0
C870 C 0.44878 0.92139 0.11526 0.0
C871 C 0.46657 0.96867 0.18582 0.0
C872 C 0.34521 0.86007 0.07206 0.0
C873 C 0.36174 0.8823 0.08122 0.0
C874 C 0.38935 0.91654 0.12031 0.0
C875 C 0.45158 0.95662 0.14726 0.0
C876 C 0.43465 0.93818 0.13167 0.0
C877 C 0.38788 0.87629 0.09212 0.0
C878 C 0.40368 0.89904 0.10449 0.0
H879 H 0.51038 -0.00017 0.14635 0.0
H880 H 0.47723 0.9758 0.12051 0.0
H881 H 0.39331 0.9485 0.14639 0.0
H882 H 0.38877 0.80373 0.08571 0.0
H883 H 0.41796 0.84261 0.10102 0.0
C884 C 0.35945 0.21215 0.44319 0.0
C885 C 0.33085 0.20635 0.44917 0.0
C886 C 0.37446 0.19385 0.42868 0.0
C887 C 0.37489 0.12176 0.40186 0.0
H888 H 0.42042 0.16116 0.35617 0.0
C889 C 0.43211 0.06157 0.32794 0.0
C890 C 0.46074 0.06972 0.32391 0.0
C891 C 0.41454 0.07788 0.34236 0.0
C892 C 0.40799 0.14977 0.36889 0.0
H893 H 0.29594 0.17609 0.44555 0.0
H894 H 0.32221 0.14385 0.41992 0.0
H895 H 0.39383 0.18887 0.38413 0.0
H896 H 0.493 0.10192 0.33134 0.0
H897 H 0.46248 0.1303 0.35621 0.0
H898 H 0.38925 0.08257 0.38647 0.0
C899 C 0.33309 0.16255 0.42661 0.0
C900 C 0.39278 0.16567 0.38501 0.0
C901 C 0.31805 0.18092 0.44133 0.0
C902 C 0.47104 0.09504 0.33399 0.0
C903 C 0.45348 0.1114 0.34823 0.0
C904 C 0.39013 0.10578 0.38564 0.0
C905 C 0.36121 0.16931 0.41956 0.0
C906 C 0.37637 0.15192 0.40195 0.0
C907 C 0.42513 0.10283 0.35289 0.0
C908 C 0.40719 0.11962 0.36914 0.0
H909 H 0.36992 0.23149 0.44918 0.0
H910 H 0.39633 0.19932 0.42416 0.0
H911 H 0.36257 0.11045 0.4147 0.0
H912 H 0.42352 0.0421 0.32058 0.0
H913 H 0.39271 0.07085 0.34539 0.0
C914 C 0.03401 0.10701 0.69809 0.0
C915 C 0.04004 0.0784 0.70409 0.0
C916 C 0.05528 0.12457 0.68884 0.0
C917 C 0.13287 0.13452 0.68037 0.0
H918 H 0.10892 0.17223 0.6245 0.0
C919 C 0.2021 0.21943 0.6332 0.0
C920 C 0.20505 0.21573 0.60954 0.0
C921 C 0.18249 0.2029 0.64561 0.0
C922 C 0.11596 0.16178 0.64002 0.0
H923 H 0.07364 0.04643 0.70663 0.0
H924 H 0.11121 0.07748 0.69068 0.0
H925 H 0.07462 0.14322 0.64589 0.0
H926 H 0.18898 0.19234 0.58031 0.0
H927 H 0.1543 0.16397 0.60193 0.0
H928 H 0.17431 0.1532 0.67437 0.0
C929 C 0.08985 0.08614 0.69304 0.0
C930 C 0.09626 0.14538 0.65239 0.0
C931 C 0.06841 0.06841 0.70224 0.0
C932 C 0.18727 0.19577 0.59849 0.0
C933 C 0.1674 0.1795 0.61087 0.0
C934 C 0.15254 0.15127 0.6681 0.0
C935 C 0.0832 0.11406 0.6855 0.0
C936 C 0.10446 0.13158 0.6727 0.0
C937 C 0.16503 0.18266 0.63459 0.0
C938 C 0.14427 0.16502 0.64777 0.0
H939 H 0.01246 0.11547 0.69971 0.0
H940 H 0.04967 0.1462 0.68368 0.0
H941 H 0.13977 0.12415 0.69596 0.0
H942 H 0.2154 0.23467 0.64226 0.0
H943 H 0.18087 0.20607 0.66383 0.0
C944 C 0.87918 0.95289 0.8374 0.0
C945 C 0.89483 0.94593 0.81772 0.0
C946 C 0.85645 0.93577 0.8446 0.0
C947 C 0.83334 0.86101 0.84192 0.0
H948 H 0.77129 0.89 0.87947 0.0
C949 C 0.77445 0.82102 0.92669 0.0
C950 C 0.7703 0.7921 0.92096 0.0
C951 C 0.78045 0.84125 0.90967 0.0
C952 C 0.78837 0.88159 0.8689 0.0
H953 H 0.89771 0.91657 0.78928 0.0
H954 H 0.85751 0.88642 0.80183 0.0
H955 H 0.79891 0.92316 0.85576 0.0
H956 H 0.76601 0.7621 0.89303 0.0
H957 H 0.77629 0.79739 0.86335 0.0
H958 H 0.82345 0.81965 0.85555 0.0
C959 C 0.86323 0.90504 0.81186 0.0
C960 C 0.80425 0.90054 0.85535 0.0
C961 C 0.88614 0.92233 0.80459 0.0
C962 C 0.76955 0.78425 0.89788 0.0
C963 C 0.77551 0.8044 0.88092 0.0
C964 C 0.81731 0.84207 0.85527 0.0
C965 C 0.8486 0.91118 0.83229 0.0
C966 C 0.82769 0.89063 0.84242 0.0
C967 C 0.78233 0.83281 0.88671 0.0
C968 C 0.79533 0.85228 0.86953 0.0
H969 H 0.8851 0.97112 0.84781 0.0
H970 H 0.8461 0.94103 0.86056 0.0
H971 H 0.8514 0.8526 0.83245 0.0
H972 H 0.77526 0.82755 0.94436 0.0
H973 H 0.78575 0.86297 0.91468 0.0
C974 C 0.80881 0.14355 0.55685 0.0
C975 C 0.82118 0.17065 0.55281 0.0
C976 C 0.82314 0.12307 0.5701 0.0
C977 C 0.84858 0.096 0.6132 0.0
H978 H 0.93072 0.08397 0.60925 0.0
C979 C 0.92017 0.05732 0.68778 0.0
C980 C 0.94475 0.04129 0.68253 0.0
C981 C 0.90173 0.0665 0.67039 0.0
C982 C 0.90768 0.08665 0.61042 0.0
H983 H 0.85897 0.19683 0.55845 0.0
H984 H 0.88408 0.16102 0.58129 0.0
H985 H 0.90659 0.11284 0.58042 0.0
H986 H 0.96848 0.02054 0.65556 0.0
H987 H 0.93595 0.03583 0.62523 0.0
H988 H 0.84985 0.07034 0.64358 0.0
C989 C 0.86328 0.15561 0.57428 0.0
C990 C 0.89393 0.10349 0.594 0.0
C991 C 0.84885 0.17619 0.56122 0.0
C992 C 0.94942 0.03262 0.65997 0.0
C993 C 0.93102 0.04171 0.64262 0.0
C994 C 0.8624 0.07929 0.62976 0.0
C995 C 0.85028 0.12911 0.57936 0.0
C996 C 0.86432 0.10876 0.59541 0.0
C997 C 0.90773 0.05988 0.64749 0.0
C998 C 0.89219 0.07476 0.62873 0.0
H999 H 0.78749 0.13858 0.55067 0.0
H1000 H 0.81274 0.10272 0.5735 0.0
H1001 H 0.82576 0.09986 0.61486 0.0
H1002 H 0.91654 0.0647 0.70502 0.0
H1003 H 0.8841 0.08061 0.67472 0.0
C1004 C 0.5997 0.1214 0.32927 0.0
C1005 C 0.60333 0.09499 0.31816 0.0
C1006 C 0.6208 0.13172 0.34396 0.0
C1007 C 0.69631 0.12749 0.36048 0.0
H1008 H 0.66657 0.15491 0.41814 0.0
C1009 C 0.74851 0.2139 0.41533 0.0
C1010 C 0.74195 0.21508 0.43864 0.0
C1011 C 0.73898 0.19097 0.40211 0.0
C1012 C 0.67546 0.14674 0.4024 0.0
H1013 H 0.63282 0.05961 0.3126 0.0
H1014 H 0.66993 0.078 0.33818 0.0
H1015 H 0.63419 0.13307 0.39084 0.0
H1016 H 0.7236 0.19179 0.46704 0.0
H1017 H 0.70725 0.15129 0.44399 0.0
H1018 H 0.73753 0.14211 0.37188 0.0
C1019 C 0.65058 0.09047 0.3356 0.0
C1020 C 0.65676 0.13467 0.38659 0.0
C1021 C 0.62933 0.08 0.32097 0.0
C1022 C 0.72889 0.19134 0.44908 0.0
C1023 C 0.71929 0.16834 0.43583 0.0
C1024 C 0.71509 0.13981 0.37631 0.0
C1025 C 0.64607 0.11597 0.34777 0.0
C1026 C 0.66681 0.12575 0.36522 0.0
C1027 C 0.72264 0.16886 0.412 0.0
C1028 C 0.7047 0.15028 0.39721 0.0
H1029 H 0.58005 0.13359 0.32739 0.0
H1030 H 0.61706 0.15178 0.35277 0.0
H1031 H 0.70461 0.12061 0.34416 0.0
H1032 H 0.75872 0.23197 0.40696 0.0
H1033 H 0.74195 0.19213 0.38384 0.0
C1034 C 0.70984 0.84952 0.07717 0.0
C1035 C 0.68792 0.83233 0.06791 0.0
C1036 C 0.70364 0.86972 0.09408 0.0
C1037 C 0.65066 0.88339 0.13891 0.0
H1038 H 0.67767 0.9621 0.13771 0.0
C1039 C 0.60727 0.96102 0.20419 0.0
C1040 C 0.59405 0.98442 0.19341 0.0
C1041 C 0.62823 0.94514 0.1927 0.0
C1042 C 0.67025 0.94009 0.13842 0.0
H1043 H 0.64215 0.8238 0.06846 0.0
H1044 H 0.63139 0.85906 0.09776 0.0
H1045 H 0.69344 0.92849 0.10823 0.0
H1046 H 0.59441 0.01176 0.1636 0.0
H1047 H 0.6309 0.98433 0.14357 0.0
H1048 H 0.62642 0.89497 0.16828 0.0
C1049 C 0.65342 0.85661 0.0922 0.0
C1050 C 0.67932 0.92086 0.12158 0.0
C1051 C 0.65956 0.83659 0.07524 0.0
C1052 C 0.60448 0.99382 0.17225 0.0
C1053 C 0.62541 0.97805 0.16079 0.0
C1054 C 0.64175 0.90247 0.15574 0.0
C1055 C 0.67545 0.87293 0.10215 0.0
C1056 C 0.66882 0.89259 0.12127 0.0
C1057 C 0.63617 0.95249 0.17029 0.0
C1058 C 0.65073 0.93129 0.15534 0.0
H1059 H 0.73194 0.84675 0.07192 0.0
H1060 H 0.72102 0.88204 0.10143 0.0
H1061 H 0.64265 0.86156 0.13934 0.0
H1062 H 0.59941 0.9533 0.22045 0.0
H1063 H 0.63654 0.92585 0.20063 0.0
C1064 C 0.81058 0.1689 0.06297 0.0
C1065 C 0.786 0.18553 0.06681 0.0
C1066 C 0.8197 0.14902 0.07927 0.0
C1067 C 0.81991 0.14236 0.14065 0.0
H1068 H 0.85863 0.07032 0.12868 0.0
C1069 C 0.91356 0.09794 0.19449 0.0
C1070 C 0.91562 0.06809 0.19757 0.0
C1071 C 0.89152 0.10964 0.18122 0.0
C1072 C 0.84753 0.09018 0.13242 0.0
H1073 H 0.75084 0.1938 0.08991 0.0
H1074 H 0.76674 0.15889 0.11857 0.0
H1075 H 0.83005 0.09287 0.09872 0.0
H1076 H 0.8948 0.02732 0.19054 0.0
H1077 H 0.85659 0.04779 0.16736 0.0
H1078 H 0.83833 0.14024 0.17405 0.0
C1079 C 0.77888 0.16108 0.10294 0.0
C1080 C 0.83133 0.10316 0.11522 0.0
C1081 C 0.76959 0.18075 0.08647 0.0
C1082 C 0.89408 0.0504 0.18835 0.0
C1083 C 0.8722 0.06207 0.17497 0.0
C1084 C 0.83634 0.12952 0.15779 0.0
C1085 C 0.80462 0.14582 0.09986 0.0
C1086 C 0.81785 0.12968 0.11899 0.0
C1087 C 0.87118 0.09171 0.1707 0.0
C1088 C 0.8508 0.1036 0.1537 0.0
H1089 H 0.82381 0.17274 0.04809 0.0
H1090 H 0.83977 0.13782 0.07649 0.0
H1091 H 0.81005 0.16298 0.144 0.0
H1092 H 0.92978 0.11217 0.20133 0.0
H1093 H 0.89137 0.13257 0.17814 0.0
C1094 C 0.58964 0.06462 0.79414 0.0
C1095 C 0.57238 0.04033 0.79747 0.0
C1096 C 0.60683 0.07492 0.81183 0.0
C1097 C 0.63156 0.06244 0.87155 0.0
H1098 H 0.61149 0.14281 0.87803 0.0
C1099 C 0.67301 0.1395 0.94297 0.0
C1100 C 0.65316 0.15973 0.95128 0.0
C1101 C 0.66538 0.12072 0.92539 0.0
C1102 C 0.61717 0.12034 0.87656 0.0
H1103 H 0.56134 0.00622 0.8209 0.0
H1104 H 0.59141 0.02404 0.85186 0.0
H1105 H 0.59881 0.11757 0.84338 0.0
H1106 H 0.609 0.17421 0.94902 0.0
H1107 H 0.59575 0.1414 0.91857 0.0
H1108 H 0.64946 0.06545 0.9052 0.0
C1109 C 0.59205 0.03504 0.8356 0.0
C1110 C 0.61036 0.10596 0.85649 0.0
C1111 C 0.57497 0.02467 0.81782 0.0
C1112 C 0.62492 0.15913 0.94292 0.0
C1113 C 0.61736 0.14046 0.92533 0.0
C1114 C 0.63866 0.077 0.89167 0.0
C1115 C 0.6067 0.06128 0.83325 0.0
C1116 C 0.61721 0.07677 0.85376 0.0
C1117 C 0.63782 0.12188 0.91576 0.0
C1118 C 0.63107 0.10601 0.89449 0.0
H1119 H 0.5876 0.07727 0.77872 0.0
H1120 H 0.61834 0.09488 0.80935 0.0
H1121 H 0.63707 0.03995 0.86997 0.0
H1122 H 0.69495 0.1393 0.94906 0.0
H1123 H 0.68158 0.10659 0.91839 0.0
C1124 C 0.74676 0.79752 0.58331 0.0
C1125 C 0.735 0.79782 0.56132 0.0
C1126 C 0.73689 0.81666 0.59978 0.0
C1127 C 0.68876 0.87914 0.61036 0.0
H1128 H 0.66729 0.83522 0.66395 0.0
C1129 C 0.61608 0.92672 0.6802 0.0
C1130 C 0.59234 0.90935 0.68567 0.0
C1131 C 0.63924 0.91548 0.668 0.0
C1132 C 0.67327 0.84784 0.64917 0.0
H1133 H 0.70548 0.81938 0.53863 0.0
H1134 H 0.68795 0.85288 0.56743 0.0
H1135 H 0.69888 0.81393 0.63568 0.0
H1136 H 0.57515 0.86616 0.68387 0.0
H1137 H 0.61558 0.84654 0.66274 0.0
H1138 H 0.66181 0.91249 0.62341 0.0
C1139 C 0.70507 0.83822 0.57196 0.0
C1140 C 0.69167 0.83579 0.63307 0.0
C1141 C 0.71511 0.81914 0.55542 0.0
C1142 C 0.59307 0.88011 0.67992 0.0
C1143 C 0.61631 0.86885 0.66786 0.0
C1144 C 0.67041 0.89125 0.62655 0.0
C1145 C 0.71481 0.83618 0.59461 0.0
C1146 C 0.69909 0.85101 0.61319 0.0
C1147 C 0.63927 0.8866 0.66123 0.0
C1148 C 0.66188 0.87541 0.64582 0.0
H1149 H 0.76201 0.78106 0.58819 0.0
H1150 H 0.74522 0.81492 0.61695 0.0
H1151 H 0.69421 0.89146 0.5953 0.0
H1152 H 0.61627 0.94933 0.68443 0.0
H1153 H 0.6568 0.92957 0.66338 0.0
C1154 C 0.92322 0.95867 0.30878 0.0
C1155 C 0.95188 0.95638 0.31597 0.0
C1156 C 0.9008 0.95666 0.32463 0.0
C1157 C 0.88593 0.95186 0.38765 0.0
H1158 H 0.82543 0.9004 0.36816 0.0
C1159 C 0.78603 0.87984 0.42615 0.0
C1160 C 0.80165 0.86153 0.44066 0.0
C1161 C 0.80022 0.90027 0.41279 0.0
C1162 C 0.84184 0.91525 0.37379 0.0
H1163 H 0.97957 0.953 0.34552 0.0
H1164 H 0.94103 0.94825 0.37277 0.0
H1165 H 0.85791 0.92069 0.34004 0.0
H1166 H 0.84391 0.85189 0.45402 0.0
H1167 H 0.86858 0.88822 0.43118 0.0
H1168 H 0.87105 0.94416 0.42171 0.0
C1169 C 0.93543 0.95191 0.35512 0.0
C1170 C 0.86046 0.92705 0.35764 0.0
C1171 C 0.95767 0.95417 0.33939 0.0
C1172 C 0.83135 0.86568 0.44297 0.0
C1173 C 0.84544 0.88652 0.42996 0.0
C1174 C 0.86764 0.93957 0.40384 0.0
C1175 C 0.90663 0.95225 0.34795 0.0
C1176 C 0.88342 0.94471 0.36443 0.0
C1177 C 0.83015 0.9032 0.41412 0.0
C1178 C 0.84597 0.92051 0.39709 0.0
H1179 H 0.91811 0.96056 0.29085 0.0
H1180 H 0.87891 0.95762 0.3185 0.0
H1181 H 0.90281 0.96601 0.3935 0.0
H1182 H 0.76312 0.87708 0.42391 0.0
H1183 H 0.788 0.91294 0.40072 0.0
C1184 C 0.68483 0.68782 0.54305 0.0
C1185 C 0.71199 0.69578 0.55114 0.0
C1186 C 0.66738 0.66929 0.55583 0.0
C1187 C 0.65681 0.6481 0.61602 0.0
H1188 H 0.60017 0.59631 0.59077 0.0
C1189 C 0.57871 0.58174 0.67283 0.0
C1190 C 0.55045 0.57873 0.66486 0.0
C1191 C 0.59987 0.59419 0.65894 0.0
C1192 C 0.61576 0.61081 0.59813 0.0
H1193 H 0.74298 0.68962 0.57811 0.0
H1194 H 0.71318 0.6564 0.6 0.0
H1195 H 0.63544 0.61864 0.56573 0.0
H1196 H 0.52196 0.58756 0.6365 0.0
H1197 H 0.55853 0.60939 0.61254 0.0
H1198 H 0.637 0.64046 0.64838 0.0
C1199 C 0.70492 0.66483 0.5841 0.0
C1200 C 0.63602 0.62364 0.58372 0.0
C1201 C 0.72221 0.68347 0.57141 0.0
C1202 C 0.54364 0.5892 0.64305 0.0
C1203 C 0.56468 0.60159 0.62922 0.0
C1204 C 0.63666 0.63515 0.63044 0.0
C1205 C 0.67681 0.65841 0.57697 0.0
C1206 C 0.65664 0.64274 0.59242 0.0
C1207 C 0.59316 0.60399 0.63684 0.0
C1208 C 0.61563 0.6166 0.62166 0.0
H1209 H 0.67628 0.69757 0.52771 0.0
H1210 H 0.64582 0.66507 0.54984 0.0
H1211 H 0.67193 0.66311 0.62335 0.0
H1212 H 0.58462 0.57395 0.68958 0.0
H1213 H 0.62162 0.59551 0.66533 0.0
C1214 C 0.54695 0.46075 0.84516 0.0
C1215 C 0.54118 0.45527 0.82212 0.0
C1216 C 0.56293 0.4413 0.85811 0.0
C1217 C 0.60896 0.376 0.85508 0.0
H1218 H 0.57588 0.36028 0.91447 0.0
C1219 C 0.63938 0.27494 0.90526 0.0
C1220 C 0.64726 0.27891 0.92813 0.0
C1221 C 0.6255 0.29672 0.89318 0.0
C1222 C 0.58552 0.36459 0.89803 0.0
H1223 H 0.54849 0.42604 0.7942 0.0
H1224 H 0.57638 0.39175 0.81679 0.0
H1225 H 0.5566 0.39916 0.89121 0.0
H1226 H 0.64471 0.30797 0.95684 0.0
H1227 H 0.62054 0.34629 0.93561 0.0
H1228 H 0.63755 0.34101 0.86183 0.0
C1229 C 0.56898 0.41127 0.82486 0.0
C1230 C 0.5746 0.38698 0.8847 0.0
C1231 C 0.55313 0.43092 0.81185 0.0
C1232 C 0.63902 0.30433 0.9392 0.0
C1233 C 0.62519 0.32627 0.92704 0.0
C1234 C 0.61978 0.35352 0.86837 0.0
C1235 C 0.57318 0.41573 0.84836 0.0
C1236 C 0.58606 0.39289 0.86298 0.0
C1237 C 0.61923 0.32304 0.90368 0.0
C1238 C 0.608 0.34738 0.8899 0.0
H1239 H 0.53775 0.47936 0.85344 0.0
H1240 H 0.56631 0.44579 0.87599 0.0
H1241 H 0.61859 0.38017 0.83862 0.0
H1242 H 0.64503 0.25538 0.89637 0.0
H1243 H 0.62054 0.2933 0.87537 0.0
C1244 C 0.92303 0.45051 0.15309 0.0
C1245 C 0.95235 0.44471 0.15648 0.0
C1246 C 0.90585 0.43165 0.14054 0.0
C1247 C 0.90271 0.35684 0.11936 0.0
H1248 H 0.84735 0.38766 0.07646 0.0
C1249 C 0.84388 0.28279 0.05718 0.0
C1250 C 0.81407 0.28655 0.05521 0.0
C1251 C 0.86084 0.30357 0.06775 0.0
C1252 C 0.86255 0.37873 0.08849 0.0
H1253 H 0.98648 0.4143 0.14951 0.0
H1254 H 0.95662 0.38158 0.12757 0.0
H1255 H 0.87635 0.42036 0.09942 0.0
H1256 H 0.77884 0.31573 0.06168 0.0
H1257 H 0.80852 0.35222 0.08021 0.0
H1258 H 0.88897 0.31528 0.10855 0.0
C1259 C 0.94678 0.40054 0.13481 0.0
C1260 C 0.87913 0.39745 0.1017 0.0
C1261 C 0.96395 0.41937 0.14735 0.0
C1262 C 0.8018 0.31237 0.0628 0.0
C1263 C 0.81881 0.33321 0.07346 0.0
C1264 C 0.88621 0.33817 0.10617 0.0
C1265 C 0.91755 0.40653 0.13109 0.0
C1266 C 0.89949 0.38673 0.11726 0.0
C1267 C 0.8484 0.32862 0.07669 0.0
C1268 C 0.86601 0.34884 0.09048 0.0
H1269 H 0.91337 0.46983 0.15988 0.0
H1270 H 0.88334 0.43673 0.13831 0.0
H1271 H 0.91776 0.34779 0.13146 0.0
H1272 H 0.85398 0.26326 0.05121 0.0
H1273 H 0.88366 0.29967 0.06941 0.0
C1274 C 0.83159 0.66985 0.41686 0.0
C1275 C 0.83265 0.69997 0.41621 0.0
C1276 C 0.84454 0.65354 0.39977 0.0
C1277 C 0.89848 0.6572 0.35343 0.0
H1278 H 0.86123 0.58698 0.33386 0.0
C1279 C 0.94895 0.58619 0.28417 0.0
C1280 C 0.95178 0.55731 0.29057 0.0
C1281 C 0.93047 0.60439 0.29618 0.0
C1282 C 0.87188 0.60653 0.33914 0.0
H1283 H 0.84834 0.73664 0.39709 0.0
H1284 H 0.87069 0.70821 0.3671 0.0
H1285 H 0.83784 0.61764 0.36192 0.0
H1286 H 0.93703 0.52434 0.31373 0.0
H1287 H 0.9043 0.55585 0.3345 0.0
H1288 H 0.93264 0.64592 0.33079 0.0
C1289 C 0.86025 0.69712 0.38105 0.0
C1290 C 0.85858 0.62405 0.35532 0.0
C1291 C 0.84746 0.71345 0.39828 0.0
C1292 C 0.93465 0.54643 0.30822 0.0
C1293 C 0.91602 0.56453 0.32013 0.0
C1294 C 0.9117 0.63976 0.33714 0.0
C1295 C 0.85872 0.66693 0.38145 0.0
C1296 C 0.87195 0.64935 0.36302 0.0
C1297 C 0.91452 0.59396 0.3148 0.0
C1298 C 0.89879 0.61398 0.33007 0.0
H1299 H 0.82039 0.65883 0.43047 0.0
H1300 H 0.84344 0.63037 0.40097 0.0
H1301 H 0.90961 0.6763 0.35908 0.0
H1302 H 0.96241 0.59509 0.27087 0.0
H1303 H 0.92956 0.62688 0.29151 0.0
C1304 C 0.52335 0.40406 0.35319 0.0
C1305 C 0.5291 0.41473 0.33126 0.0
C1306 C 0.54514 0.39182 0.36636 0.0
C1307 C 0.62484 0.38935 0.37119 0.0
H1308 H 0.60833 0.32937 0.41512 0.0
C1309 C 0.71152 0.32282 0.41827 0.0
C1310 C 0.70623 0.31457 0.44091 0.0
C1311 C 0.69101 0.33828 0.40595 0.0
C1312 C 0.61319 0.34647 0.40321 0.0
H1313 H 0.56193 0.41912 0.30535 0.0
H1314 H 0.59986 0.3969 0.32804 0.0
H1315 H 0.57039 0.34664 0.39019 0.0
H1316 H 0.67608 0.31718 0.46882 0.0
H1317 H 0.64005 0.34444 0.4473 0.0
H1318 H 0.66791 0.38856 0.38402 0.0
C1319 C 0.57868 0.39893 0.33543 0.0
C1320 C 0.59141 0.35638 0.38881 0.0
C1321 C 0.55687 0.41148 0.32231 0.0
C1322 C 0.68077 0.32357 0.45147 0.0
C1323 C 0.66006 0.33881 0.43906 0.0
C1324 C 0.64667 0.37931 0.38552 0.0
C1325 C 0.57325 0.38938 0.35782 0.0
C1326 C 0.59685 0.37804 0.37261 0.0
C1327 C 0.6646 0.34555 0.41594 0.0
C1328 C 0.64111 0.35774 0.4017 0.0
H1329 H 0.50211 0.40596 0.36052 0.0
H1330 H 0.54003 0.38524 0.38357 0.0
H1331 H 0.62986 0.40639 0.35927 0.0
H1332 H 0.73093 0.31592 0.40972 0.0
H1333 H 0.69515 0.34297 0.38818 0.0
C1334 C 0.97473 0.39376 0.71872 0.0
C1335 C 0.972 0.4234 0.72247 0.0
C1336 C 0.9535 0.37867 0.70704 0.0
C1337 C 0.90101 0.34873 0.68818 0.0
H1338 H 0.8734 0.38572 0.63317 0.0
C1339 C 0.8179 0.29534 0.62889 0.0
C1340 C 0.82171 0.29846 0.60526 0.0
C1341 C 0.83493 0.31066 0.64419 0.0
C1342 C 0.88106 0.37502 0.6484 0.0
H1343 H 0.94435 0.46029 0.71801 0.0
H1344 H 0.90676 0.43377 0.69768 0.0
H1345 H 0.90378 0.4124 0.65952 0.0
H1346 H 0.84678 0.31989 0.57919 0.0
H1347 H 0.87695 0.34636 0.60597 0.0
H1348 H 0.87913 0.31107 0.67672 0.0
C1349 C 0.92555 0.42229 0.7036 0.0
C1350 C 0.8981 0.39047 0.66369 0.0
C1351 C 0.94683 0.4374 0.71546 0.0
C1352 C 0.84334 0.31694 0.59728 0.0
C1353 C 0.86042 0.33232 0.61263 0.0
C1354 C 0.88397 0.3333 0.67291 0.0
C1355 C 0.92903 0.39289 0.69873 0.0
C1356 C 0.90856 0.3774 0.68365 0.0
C1357 C 0.85627 0.32951 0.63628 0.0
C1358 C 0.87401 0.34616 0.65271 0.0
H1359 H 0.994 0.3825 0.72394 0.0
H1360 H 0.95707 0.35616 0.70345 0.0
H1361 H 0.90852 0.33807 0.70347 0.0
H1362 H 0.80133 0.28142 0.63566 0.0
H1363 H 0.83089 0.3082 0.66225 0.0
C1364 C 0.80497 0.6738 0.94348 0.0
C1365 C 0.81446 0.70185 0.94778 0.0
C1366 C 0.82373 0.65354 0.93405 0.0
C1367 C 0.88887 0.65206 0.8983 0.0
H1368 H 0.88722 0.57024 0.91027 0.0
C1369 C 0.96898 0.57268 0.85708 0.0
C1370 C 0.95806 0.54607 0.84991 0.0
C1371 C 0.95181 0.59163 0.86953 0.0
C1372 C 0.88773 0.59303 0.9066 0.0
H1373 H 0.85117 0.73029 0.9473 0.0
H1374 H 0.88417 0.6948 0.93164 0.0
H1375 H 0.85753 0.60243 0.93308 0.0
H1376 H 0.92017 0.51892 0.84965 0.0
H1377 H 0.89027 0.55204 0.87112 0.0
H1378 H 0.91893 0.64271 0.87179 0.0
C1379 C 0.86216 0.68853 0.93485 0.0
C1380 C 0.87075 0.61147 0.9197 0.0
C1381 C 0.8434 0.70875 0.94406 0.0
C1382 C 0.92934 0.53921 0.85492 0.0
C1383 C 0.91223 0.55808 0.86743 0.0
C1384 C 0.90588 0.63366 0.88528 0.0
C1385 C 0.8523 0.66103 0.92887 0.0
C1386 C 0.87108 0.64124 0.91569 0.0
C1387 C 0.92336 0.58435 0.87515 0.0
C1388 C 0.90544 0.60392 0.8892 0.0
H1389 H 0.78264 0.66814 0.94596 0.0
H1390 H 0.81536 0.63262 0.92959 0.0
H1391 H 0.88921 0.67478 0.89435 0.0
H1392 H 0.99104 0.57857 0.85361 0.0
H1393 H 0.96109 0.61162 0.87534 0.0
C1394 C 0.55461 0.542 0.16824 0.0
C1395 C 0.54003 0.55088 0.18787 0.0
C1396 C 0.57441 0.56023 0.15764 0.0
C1397 C 0.6156 0.62844 0.16419 0.0
H1398 H 0.6064 0.63245 0.09864 0.0
C1399 C 0.66268 0.72181 0.11085 0.0
C1400 C 0.67505 0.71491 0.08975 0.0
C1401 C 0.64707 0.70126 0.1231 0.0
C1402 C 0.60957 0.63142 0.11689 0.0
H1403 H 0.53496 0.58515 0.21227 0.0
H1404 H 0.56957 0.61717 0.19387 0.0
H1405 H 0.58009 0.59652 0.12026 0.0
H1406 H 0.68031 0.68123 0.0647 0.0
H1407 H 0.65365 0.64521 0.08623 0.0
H1408 H 0.64467 0.66377 0.1608 0.0
C1409 C 0.56625 0.59599 0.1868 0.0
C1410 C 0.59452 0.61069 0.12933 0.0
C1411 C 0.5465 0.57768 0.19741 0.0
C1412 C 0.67098 0.68723 0.0809 0.0
C1413 C 0.65558 0.6666 0.09322 0.0
C1414 C 0.6306 0.64926 0.15174 0.0
C1415 C 0.57974 0.58787 0.16634 0.0
C1416 C 0.59724 0.60895 0.15315 0.0
C1417 C 0.64359 0.67328 0.11457 0.0
C1418 C 0.62774 0.65106 0.12791 0.0
H1419 H 0.54953 0.52158 0.16042 0.0
H1420 H 0.58476 0.55307 0.14216 0.0
H1421 H 0.61844 0.62756 0.18248 0.0
H1422 H 0.66526 0.74308 0.11798 0.0
H1423 H 0.63776 0.70734 0.13927 0.0
C1424 C 0.28579 0.30957 0.4287 0.0
C1425 C 0.29794 0.30695 0.45045 0.0
C1426 C 0.29308 0.33262 0.41462 0.0
C1427 C 0.35608 0.37675 0.40464 0.0
H1428 H 0.3098 0.40877 0.3559 0.0
C1429 C 0.40599 0.41182 0.32023 0.0
C1430 C 0.39813 0.43874 0.31135 0.0
C1431 C 0.39095 0.39985 0.33846 0.0
C1432 C 0.32294 0.40026 0.36955 0.0
H1433 H 0.3255 0.3271 0.47533 0.0
H1434 H 0.33811 0.36787 0.45081 0.0
H1435 H 0.28648 0.38369 0.38758 0.0
H1436 H 0.36743 0.4736 0.31411 0.0
H1437 H 0.34078 0.45226 0.34581 0.0
H1438 H 0.39254 0.39264 0.3864 0.0
C1439 C 0.32307 0.35202 0.44455 0.0
C1440 C 0.30962 0.38582 0.38763 0.0
C1441 C 0.31564 0.32894 0.45869 0.0
C1442 C 0.37397 0.45275 0.32046 0.0
C1443 C 0.35875 0.44061 0.33865 0.0
C1444 C 0.36935 0.39101 0.38656 0.0
C1445 C 0.31291 0.35337 0.42197 0.0
C1446 C 0.32611 0.37325 0.40509 0.0
C1447 C 0.36756 0.41437 0.34819 0.0
C1448 C 0.353 0.40217 0.3685 0.0
H1449 H 0.27238 0.29259 0.42195 0.0
H1450 H 0.28504 0.33278 0.39732 0.0
H1451 H 0.36952 0.36711 0.41762 0.0
H1452 H 0.42446 0.4004 0.31367 0.0
H1453 H 0.39788 0.3793 0.34518 0.0
C1454 C 0.43601 0.53342 0.1538 0.0
C1455 C 0.43635 0.53506 0.17767 0.0
C1456 C 0.41447 0.54703 0.14129 0.0
C1457 C 0.3703 0.61087 0.14613 0.0
H1458 H 0.34049 0.58675 0.08754 0.0
C1459 C 0.33429 0.69251 0.07902 0.0
C1460 C 0.30777 0.68782 0.06826 0.0
C1461 C 0.34682 0.67109 0.09237 0.0
C1462 C 0.34843 0.59369 0.10396 0.0
H1463 H 0.41353 0.55036 0.20732 0.0
H1464 H 0.37555 0.57424 0.18541 0.0
H1465 H 0.36505 0.55195 0.11206 0.0
H1466 H 0.27423 0.65642 0.0623 0.0
H1467 H 0.29648 0.61874 0.08542 0.0
H1468 H 0.35433 0.65269 0.1379 0.0
C1469 C 0.39207 0.56255 0.17638 0.0
C1470 C 0.36257 0.57383 0.11795 0.0
C1471 C 0.41358 0.54867 0.18892 0.0
C1472 C 0.29471 0.6607 0.07031 0.0
C1473 C 0.30741 0.63913 0.08356 0.0
C1474 C 0.3564 0.63072 0.13211 0.0
C1475 C 0.39293 0.5628 0.1524 0.0
C1476 C 0.37413 0.58234 0.13902 0.0
C1477 C 0.33325 0.64437 0.09517 0.0
C1478 C 0.34587 0.62252 0.11067 0.0
H1479 H 0.45344 0.52307 0.14478 0.0
H1480 H 0.41593 0.54695 0.12288 0.0
H1481 H 0.37922 0.61827 0.1621 0.0
H1482 H 0.34498 0.71311 0.07783 0.0
H1483 H 0.36703 0.67557 0.10076 0.0
C1484 C 0.08914 0.6008 0.83876 0.0
C1485 C 0.09258 0.57094 0.83699 0.0
C1486 C 0.10578 0.61654 0.85406 0.0
C1487 C 0.16985 0.61512 0.8914 0.0
H1488 H 0.12411 0.66743 0.92762 0.0
C1489 C 0.21514 0.70447 0.94994 0.0
C1490 C 0.1986 0.71243 0.96885 0.0
C1491 C 0.20601 0.68218 0.93575 0.0
C1492 C 0.13718 0.6526 0.91794 0.0
H1493 H 0.11768 0.53451 0.84868 0.0
H1494 H 0.14662 0.56206 0.87546 0.0
H1495 H 0.10156 0.64039 0.89728 0.0
H1496 H 0.16118 0.70223 0.98905 0.0
H1497 H 0.14573 0.66254 0.96485 0.0
H1498 H 0.20554 0.62752 0.91232 0.0
C1499 C 0.13107 0.57327 0.86501 0.0
C1500 C 0.12432 0.63748 0.90023 0.0
C1501 C 0.1144 0.55749 0.84968 0.0
C1502 C 0.17436 0.69618 0.97463 0.0
C1503 C 0.16537 0.67378 0.9606 0.0
C1504 C 0.18283 0.63044 0.90915 0.0
C1505 C 0.12621 0.60279 0.86793 0.0
C1506 C 0.14049 0.61877 0.88662 0.0
C1507 C 0.18019 0.66762 0.94032 0.0
C1508 C 0.1666 0.6494 0.92259 0.0
H1509 H 0.07272 0.61188 0.82909 0.0
H1510 H 0.10199 0.6394 0.85557 0.0
H1511 H 0.18286 0.60082 0.88119 0.0
H1512 H 0.23364 0.71714 0.945 0.0
H1513 H 0.21786 0.67807 0.92023 0.0
C1514 C 0.19671 0.34048 0.57993 0.0
C1515 C 0.18326 0.3139 0.57595 0.0
C1516 C 0.18523 0.35989 0.59565 0.0
C1517 C 0.14901 0.40197 0.62394 0.0
H1518 H 0.12091 0.36674 0.67952 0.0
C1519 C 0.07268 0.45685 0.68756 0.0
C1520 C 0.07344 0.44843 0.71051 0.0
C1521 C 0.09194 0.44514 0.67191 0.0
C1522 C 0.12913 0.37705 0.66432 0.0
H1523 H 0.14616 0.28778 0.5843 0.0
H1524 H 0.126 0.32174 0.61139 0.0
H1525 H 0.1407 0.33676 0.6496 0.0
H1526 H 0.09605 0.42303 0.73558 0.0
H1527 H 0.13035 0.40288 0.70832 0.0
H1528 H 0.13717 0.44233 0.63875 0.0
C1529 C 0.14577 0.32731 0.60273 0.0
C1530 C 0.14001 0.35977 0.64696 0.0
C1531 C 0.15718 0.30796 0.58701 0.0
C1532 C 0.09536 0.4301 0.718 0.0
C1533 C 0.11465 0.41829 0.70233 0.0
C1534 C 0.13798 0.41932 0.64133 0.0
C1535 C 0.16011 0.3531 0.60776 0.0
C1536 C 0.14962 0.37194 0.62641 0.0
C1537 C 0.11222 0.42459 0.67892 0.0
C1538 C 0.12755 0.407 0.66162 0.0
H1539 H 0.21685 0.34577 0.57171 0.0
H1540 H 0.1968 0.37957 0.59912 0.0
H1541 H 0.15628 0.41201 0.60833 0.0
H1542 H 0.05563 0.47065 0.6814 0.0
H1543 H 0.08928 0.45037 0.65406 0.0
C1544 C 0.29362 0.65131 0.55389 0.0
C1545 C 0.27828 0.67304 0.56504 0.0
C1546 C 0.30497 0.62827 0.56633 0.0
C1547 C 0.3076 0.59428 0.62416 0.0
H1548 H 0.38919 0.58971 0.61172 0.0
C1549 C 0.38928 0.53327 0.68205 0.0
C1550 C 0.41442 0.5488 0.68699 0.0
C1551 C 0.36988 0.54333 0.66565 0.0
C1552 C 0.36642 0.59067 0.61536 0.0
H1553 H 0.26026 0.68651 0.59724 0.0
H1554 H 0.27981 0.64648 0.61892 0.0
H1555 H 0.35775 0.61395 0.58478 0.0
H1556 H 0.43859 0.58731 0.67883 0.0
H1557 H 0.4048 0.6048 0.65047 0.0
H1558 H 0.31675 0.57221 0.65542 0.0
C1559 C 0.28318 0.64691 0.60068 0.0
C1560 C 0.34829 0.60419 0.59975 0.0
C1561 C 0.27201 0.66993 0.58829 0.0
C1562 C 0.41944 0.57481 0.67551 0.0
C1563 C 0.40023 0.5847 0.65905 0.0
C1564 C 0.32577 0.58063 0.63977 0.0
C1565 C 0.30101 0.6266 0.59007 0.0
C1566 C 0.31879 0.607 0.6043 0.0
C1567 C 0.37542 0.56893 0.65373 0.0
C1568 C 0.35551 0.57959 0.63588 0.0
H1569 H 0.29887 0.65338 0.53599 0.0
H1570 H 0.31826 0.61271 0.55761 0.0
H1571 H 0.28494 0.59584 0.62805 0.0
H1572 H 0.38487 0.51305 0.69048 0.0
H1573 H 0.35094 0.53073 0.66188 0.0
C1574 C 0.13089 0.66273 0.43262 0.0
C1575 C 0.15732 0.65773 0.44345 0.0
C1576 C 0.12021 0.64321 0.41674 0.0
C1577 C 0.11803 0.61246 0.37153 0.0
H1578 H 0.11286 0.52987 0.37877 0.0
C1579 C 0.07519 0.54492 0.29853 0.0
C1580 C 0.05148 0.52842 0.30524 0.0
C1581 C 0.09444 0.5552 0.31489 0.0
C1582 C 0.11445 0.55289 0.37646 0.0
H1583 H 0.19206 0.62708 0.44746 0.0
H1584 H 0.17308 0.59278 0.41985 0.0
H1585 H 0.13118 0.55933 0.41015 0.0
H1586 H 0.03062 0.50734 0.33362 0.0
H1587 H 0.06426 0.52494 0.36214 0.0
H1588 H 0.10068 0.60643 0.33825 0.0
C1589 C 0.16085 0.61199 0.42354 0.0
C1590 C 0.12494 0.5697 0.39439 0.0
C1591 C 0.17167 0.63165 0.43937 0.0
C1592 C 0.04892 0.5199 0.3281 0.0
C1593 C 0.06821 0.53 0.3444 0.0
C1594 C 0.10785 0.59572 0.35362 0.0
C1595 C 0.13557 0.61814 0.41145 0.0
C1596 C 0.12616 0.59974 0.39225 0.0
C1597 C 0.09026 0.54903 0.33815 0.0
C1598 C 0.10541 0.56579 0.35598 0.0
H1599 H 0.11915 0.68247 0.43545 0.0
H1600 H 0.10033 0.64819 0.40802 0.0
H1601 H 0.11923 0.63551 0.36924 0.0
H1602 H 0.07739 0.55194 0.28102 0.0
H1603 H 0.11149 0.5695 0.30953 0.0
C1604 C 0.11366 0.42879 0.1782 0.0
C1605 C 0.08683 0.41523 0.18065 0.0
C1606 C 0.13511 0.41642 0.16476 0.0
C1607 C 0.18003 0.37672 0.14172 0.0
H1608 H 0.15093 0.34997 0.08364 0.0
C1609 C 0.23307 0.29115 0.08592 0.0
C1610 C 0.2284 0.29182 0.06232 0.0
C1611 C 0.22249 0.31303 0.09972 0.0
C1612 C 0.15959 0.35786 0.09955 0.0
H1613 H 0.06232 0.37704 0.17237 0.0
H1614 H 0.09972 0.35555 0.14901 0.0
H1615 H 0.1184 0.37241 0.11059 0.0
H1616 H 0.21152 0.31674 0.03426 0.0
H1617 H 0.19299 0.35537 0.05843 0.0
H1618 H 0.22117 0.36129 0.13081 0.0
C1619 C 0.10395 0.37595 0.15718 0.0
C1620 C 0.14083 0.37028 0.11515 0.0
C1621 C 0.08263 0.38816 0.17072 0.0
C1622 C 0.21546 0.31596 0.05243 0.0
C1623 C 0.20469 0.33785 0.06628 0.0
C1624 C 0.19885 0.364 0.12614 0.0
C1625 C 0.12999 0.39041 0.15345 0.0
C1626 C 0.1507 0.37919 0.13657 0.0
C1627 C 0.20682 0.33581 0.09015 0.0
C1628 C 0.18867 0.35393 0.10506 0.0
H1629 H 0.11762 0.44962 0.18572 0.0
H1630 H 0.15506 0.42793 0.16222 0.0
H1631 H 0.18817 0.38359 0.1581 0.0
H1632 H 0.24292 0.27256 0.09383 0.0
H1633 H 0.22435 0.3107 0.11802 0.0
C1634 C 0.43214 0.49474 0.83985 0.0
C1635 C 0.43886 0.47938 0.82004 0.0
C1636 C 0.41203 0.48391 0.85534 0.0
C1637 C 0.35957 0.42435 0.86586 0.0
H1638 H 0.39512 0.42299 0.92556 0.0
C1639 C 0.31758 0.35037 0.93776 0.0
C1640 C 0.33914 0.33344 0.94784 0.0
C1641 C 0.32479 0.37419 0.92432 0.0
C1642 C 0.38478 0.42328 0.90905 0.0
H1643 H 0.42868 0.44191 0.79999 0.0
H1644 H 0.39346 0.42298 0.8268 0.0
H1645 H 0.41415 0.45454 0.89618 0.0
H1646 H 0.38504 0.32932 0.95287 0.0
H1647 H 0.39758 0.3708 0.92967 0.0
H1648 H 0.33126 0.39175 0.87847 0.0
C1649 C 0.40322 0.44357 0.83039 0.0
C1650 C 0.39546 0.44167 0.89223 0.0
C1651 C 0.42329 0.45446 0.81491 0.0
C1652 C 0.36791 0.34187 0.94534 0.0
C1653 C 0.37509 0.36578 0.93209 0.0
C1654 C 0.34882 0.40597 0.88274 0.0
C1655 C 0.39853 0.45735 0.85138 0.0
C1656 C 0.38355 0.44184 0.87019 0.0
C1657 C 0.35369 0.38176 0.9209 0.0
C1658 C 0.36191 0.40458 0.90432 0.0
H1659 H 0.44432 0.51371 0.84434 0.0
H1660 H 0.40856 0.49532 0.87115 0.0
H1661 H 0.34972 0.42411 0.84916 0.0
H1662 H 0.29518 0.34445 0.9393 0.0
H1663 H 0.3078 0.38625 0.91613 0.0
C1664 C 0.25953 0.88208 0.11371 0.0
C1665 C 0.25647 0.85225 0.11598 0.0
C1666 C 0.23659 0.90022 0.11893 0.0
C1667 C 0.15779 0.89816 0.12607 0.0
H1668 H 0.16849 0.97242 0.1546 0.0
C1669 C 0.06253 0.96337 0.15697 0.0
C1670 C 0.06045 0.99027 0.1463 0.0
C1671 C 0.08826 0.94822 0.15642 0.0
C1672 C 0.16537 0.95168 0.14668 0.0
H1673 H 0.22773 0.81793 0.1263 0.0
H1674 H 0.18837 0.84938 0.13616 0.0
H1675 H 0.2103 0.9421 0.14673 0.0
H1676 H 0.08403 0.02355 0.12835 0.0
H1677 H 0.12919 0.9969 0.1275 0.0
H1678 H 0.11295 0.90747 0.12637 0.0
C1679 C 0.20788 0.8589 0.12955 0.0
C1680 C 0.18919 0.93446 0.14201 0.0
C1681 C 0.23049 0.84085 0.12396 0.0
C1682 C 0.08499 0.00264 0.13642 0.0
C1683 C 0.11084 0.98758 0.13611 0.0
C1684 C 0.1341 0.91509 0.13106 0.0
C1685 C 0.21047 0.88875 0.12681 0.0
C1686 C 0.18559 0.90748 0.13168 0.0
C1687 C 0.11233 0.95991 0.14545 0.0
C1688 C 0.13769 0.94192 0.14139 0.0
H1689 H 0.27945 0.89131 0.10762 0.0
H1690 H 0.23915 0.92311 0.11642 0.0
H1691 H 0.15428 0.87788 0.11754 0.0
H1692 H 0.04401 0.95348 0.16491 0.0
H1693 H 0.08913 0.92693 0.16387 0.0
C1694 C 0.41654 0.91061 0.30387 0.0
C1695 C 0.40817 0.93942 0.3012 0.0
C1696 C 0.39793 0.89085 0.31388 0.0
C1697 C 0.32571 0.87724 0.33681 0.0
H1698 H 0.36696 0.85832 0.39223 0.0
C1699 C 0.26636 0.84487 0.41885 0.0
C1700 C 0.27905 0.824 0.43276 0.0
C1701 C 0.28144 0.85613 0.40033 0.0
C1702 C 0.35512 0.86272 0.37675 0.0
H1703 H 0.37239 0.96906 0.30364 0.0
H1704 H 0.33988 0.93441 0.32116 0.0
H1705 H 0.39259 0.87899 0.36033 0.0
H1706 H 0.31746 0.79947 0.43953 0.0
H1707 H 0.34397 0.81877 0.40714 0.0
H1708 H 0.28816 0.86089 0.35327 0.0
C1709 C 0.36089 0.92724 0.3157 0.0
C1710 C 0.36989 0.87458 0.35842 0.0
C1711 C 0.37958 0.94711 0.30576 0.0
C1712 C 0.30734 0.81542 0.42874 0.0
C1713 C 0.32253 0.82675 0.41033 0.0
C1714 C 0.31094 0.86484 0.35508 0.0
C1715 C 0.37063 0.89954 0.32116 0.0
C1716 C 0.35526 0.88249 0.33849 0.0
C1717 C 0.30957 0.84684 0.3956 0.0
C1718 C 0.32538 0.85807 0.37549 0.0
H1719 H 0.43827 0.90387 0.30008 0.0
H1720 H 0.40571 0.86944 0.31766 0.0
H1721 H 0.31403 0.88321 0.32157 0.0
H1722 H 0.24459 0.85199 0.42203 0.0
H1723 H 0.27107 0.87218 0.38981 0.0
C1724 C 0.2874 0.13083 0.59456 0.0
C1725 C 0.26831 0.14489 0.6092 0.0
C1726 C 0.28989 0.101 0.59519 0.0
C1727 C 0.2821 0.04448 0.638 0.0
H1728 H 0.32325 0.00328 0.59107 0.0
C1729 C 0.3868 0.99168 0.6548 0.0
C1730 C 0.39915 0.97304 0.63886 0.0
C1731 C 0.3583 0.00025 0.6525 0.0
C1732 C 0.31111 0.01372 0.6044 0.0
H1733 H 0.23423 0.13878 0.63389 0.0
H1734 H 0.23807 0.08655 0.63462 0.0
H1735 H 0.29298 0.04341 0.58064 0.0
H1736 H 0.39021 0.94505 0.61025 0.0
H1737 H 0.34017 0.9597 0.60642 0.0
H1738 H 0.30059 0.01505 0.6618 0.0
C1739 C 0.25188 0.09854 0.62323 0.0
C1740 C 0.29404 0.03717 0.59839 0.0
C1741 C 0.24966 0.12846 0.62279 0.0
C1742 C 0.38145 0.9601 0.62245 0.0
C1743 C 0.35278 0.96855 0.62021 0.0
C1744 C 0.29868 0.02065 0.64396 0.0
C1745 C 0.27306 0.08453 0.6103 0.0
C1746 C 0.28137 0.05429 0.61532 0.0
C1747 C 0.34144 0.99017 0.63429 0.0
C1748 C 0.31538 0.00659 0.62746 0.0
H1749 H 0.30191 0.14291 0.58377 0.0
H1750 H 0.30668 0.09124 0.5851 0.0
H1751 H 0.27238 0.05675 0.65159 0.0
H1752 H 0.39972 0.00163 0.66793 0.0
H1753 H 0.35058 0.01692 0.66375 0.0
C1754 C 0.27149 0.08136 0.89209 0.0
C1755 C 0.25832 0.10835 0.89458 0.0
C1756 C 0.26198 0.06225 0.87533 0.0
C1757 C 0.22311 0.05954 0.82114 0.0
H1758 H 0.18431 0.99218 0.84457 0.0
C1759 C 0.11114 0.03215 0.79877 0.0
C1760 C 0.09969 0.00525 0.80452 0.0
C1761 C 0.14067 0.0367 0.79969 0.0
C1762 C 0.19579 0.01018 0.83725 0.0
H1763 H 0.22512 0.13656 0.88139 0.0
H1764 H 0.20887 0.10348 0.85225 0.0
H1765 H 0.21924 0.01669 0.86816 0.0
H1766 H 0.1103 0.96077 0.81174 0.0
H1767 H 0.16195 0.9687 0.81313 0.0
H1768 H 0.19834 0.05422 0.79079 0.0
C1769 C 0.22656 0.09713 0.86313 0.0
C1770 C 0.21579 0.02429 0.85092 0.0
C1771 C 0.23558 0.11587 0.88007 0.0
C1772 C 0.11848 0.98198 0.80781 0.0
C1773 C 0.1481 0.98651 0.80864 0.0
C1774 C 0.2034 0.04523 0.80734 0.0
C1775 C 0.23974 0.07027 0.86051 0.0
C1776 C 0.22792 0.0502 0.84357 0.0
C1777 C 0.1593 0.01438 0.8063 0.0
C1778 C 0.1878 0.02178 0.81599 0.0
H1779 H 0.28918 0.0751 0.90298 0.0
H1780 H 0.27209 0.04141 0.87378 0.0
H1781 H 0.23266 0.07932 0.81504 0.0
H1782 H 0.09724 0.05038 0.79566 0.0
H1783 H 0.14836 0.05849 0.79766 0.0
C1784 C 0.91193 0.06515 0.82363 0.0
C1785 C 0.94062 0.0728 0.81941 0.0
C1786 C 0.89368 0.08368 0.83534 0.0
C1787 C 0.89573 0.14565 0.87502 0.0
H1788 H 0.81355 0.14459 0.86468 0.0
C1789 C 0.8115 0.22243 0.91641 0.0
C1790 C 0.78754 0.20868 0.9261 0.0
C1791 C 0.83187 0.2067 0.90419 0.0
C1792 C 0.83646 0.14495 0.86779 0.0
H1793 H 0.97213 0.10674 0.82307 0.0
H1794 H 0.93986 0.13969 0.84267 0.0
H1795 H 0.84505 0.11775 0.83941 0.0
H1796 H 0.76664 0.16755 0.93118 0.0
H1797 H 0.80194 0.14022 0.90938 0.0
H1798 H 0.88678 0.17378 0.90306 0.0
C1799 C 0.93174 0.11889 0.83761 0.0
C1800 C 0.85456 0.12951 0.85338 0.0
C1801 C 0.95018 0.10012 0.82612 0.0
C1802 C 0.78493 0.17875 0.92404 0.0
C1803 C 0.80497 0.16313 0.91144 0.0
C1804 C 0.8776 0.16157 0.88918 0.0
C1805 C 0.90342 0.11063 0.84286 0.0
C1806 C 0.88443 0.12921 0.85701 0.0
C1807 C 0.8283 0.17706 0.90107 0.0
C1808 C 0.84779 0.16095 0.88588 0.0
H1809 H 0.90382 0.04421 0.81888 0.0
H1810 H 0.87226 0.07622 0.83932 0.0
H1811 H 0.91851 0.14564 0.87863 0.0
H1812 H 0.8141 0.24547 0.91776 0.0
H1813 H 0.84969 0.21787 0.89632 0.0
C1814 C 0.7045 0.18498 0.57039 0.0
C1815 C 0.69601 0.21338 0.56589 0.0
C1816 C 0.68505 0.16523 0.57951 0.0
C1817 C 0.61691 0.1632 0.61223 0.0
H1818 H 0.6228 0.08143 0.60104 0.0
C1819 C 0.53782 0.07782 0.6484 0.0
C1820 C 0.55071 0.05364 0.6585 0.0
C1821 C 0.55444 0.09795 0.63659 0.0
C1822 C 0.62103 0.10422 0.60437 0.0
H1823 H 0.65991 0.24274 0.56596 0.0
H1824 H 0.62569 0.20801 0.58102 0.0
H1825 H 0.6526 0.11465 0.57929 0.0
H1826 H 0.59127 0.03195 0.66444 0.0
H1827 H 0.62011 0.06691 0.64358 0.0
H1828 H 0.58488 0.15253 0.63707 0.0
C1829 C 0.64764 0.20122 0.5783 0.0
C1830 C 0.63815 0.12329 0.59197 0.0
C1831 C 0.6672 0.22109 0.56944 0.0
C1832 C 0.58064 0.05035 0.65693 0.0
C1833 C 0.59716 0.07023 0.64483 0.0
C1834 C 0.59949 0.14412 0.62438 0.0
C1835 C 0.6565 0.17325 0.58407 0.0
C1836 C 0.63664 0.15304 0.59595 0.0
C1837 C 0.58419 0.09405 0.63435 0.0
C1838 C 0.60169 0.11444 0.6208 0.0
H1839 H 0.72656 0.17832 0.56796 0.0
H1840 H 0.69286 0.14406 0.58394 0.0
H1841 H 0.61546 0.18586 0.61612 0.0
H1842 H 0.51481 0.08096 0.64932 0.0
H1843 H 0.54392 0.11613 0.62864 0.0
C1844 C 0.69322 0.81317 0.42299 0.0
C1845 C 0.69438 0.78319 0.42068 0.0
C1846 C 0.67289 0.82928 0.41114 0.0
C1847 C 0.62835 0.82656 0.35925 0.0
H1848 H 0.60085 0.8992 0.38285 0.0
C1849 C 0.55453 0.91108 0.31199 0.0
C1850 C 0.56622 0.93896 0.31222 0.0
C1851 C 0.56758 0.88884 0.3244 0.0
C1852 C 0.6083 0.8789 0.37607 0.0
H1853 H 0.67388 0.74646 0.40493 0.0
H1854 H 0.63778 0.77467 0.38449 0.0
H1855 H 0.62547 0.86582 0.40817 0.0
H1856 H 0.60175 0.96477 0.32465 0.0
H1857 H 0.62392 0.92627 0.3464 0.0
H1858 H 0.61086 0.84007 0.32705 0.0
C1859 C 0.65307 0.78573 0.39523 0.0
C1860 C 0.62252 0.85981 0.39053 0.0
C1861 C 0.67355 0.76952 0.40716 0.0
C1862 C 0.59198 0.94368 0.32412 0.0
C1863 C 0.60467 0.92168 0.33672 0.0
C1864 C 0.61368 0.8456 0.34482 0.0
C1865 C 0.65292 0.8159 0.39667 0.0
C1866 C 0.63362 0.83381 0.38216 0.0
C1867 C 0.59223 0.89428 0.33746 0.0
C1868 C 0.60436 0.8723 0.35299 0.0
H1869 H 0.70877 0.82445 0.43331 0.0
H1870 H 0.67382 0.85243 0.41253 0.0
H1871 H 0.63676 0.80686 0.35213 0.0
H1872 H 0.53471 0.9067 0.30301 0.0
H1873 H 0.55767 0.8678 0.32468 0.0
C1874 C 0.93769 0.91389 0.17896 0.0
C1875 C 0.92672 0.94161 0.17516 0.0
C1876 C 0.92151 0.88962 0.17312 0.0
C1877 C 0.84783 0.86541 0.15816 0.0
H1878 H 0.88683 0.80981 0.12013 0.0
C1879 C 0.78819 0.79536 0.09337 0.0
C1880 C 0.79726 0.76702 0.08988 0.0
C1881 C 0.80351 0.81347 0.10786 0.0
C1882 C 0.87567 0.82477 0.13109 0.0
H1883 H 0.88962 0.96555 0.16338 0.0
H1884 H 0.86157 0.92347 0.15331 0.0
H1885 H 0.91447 0.84724 0.13907 0.0
H1886 H 0.82922 0.73514 0.09848 0.0
H1887 H 0.85637 0.76696 0.12392 0.0
H1888 H 0.80893 0.84338 0.14969 0.0
C1889 C 0.88258 0.92035 0.1608 0.0
C1890 C 0.89154 0.84625 0.14196 0.0
C1891 C 0.89879 0.94452 0.16642 0.0
C1892 C 0.8219 0.75697 0.10104 0.0
C1893 C 0.8374 0.77518 0.11549 0.0
C1894 C 0.83198 0.8439 0.14735 0.0
C1895 C 0.89393 0.89261 0.16364 0.0
C1896 C 0.8777 0.86731 0.15509 0.0
C1897 C 0.82841 0.80369 0.119 0.0
C1898 C 0.84562 0.82385 0.13312 0.0
H1899 H 0.95913 0.91094 0.18568 0.0
H1900 H 0.93075 0.86853 0.17567 0.0
H1901 H 0.83659 0.881 0.16851 0.0
H1902 H 0.76925 0.8035 0.08482 0.0
H1903 H 0.79624 0.8354 0.10985 0.0
C1904 C 0.59606 0.51844 0.57361 0.0
C1905 C 0.59125 0.5299 0.59534 0.0
C1906 C 0.62391 0.51203 0.56646 0.0
C1907 C 0.69124 0.49157 0.59471 0.0
H1908 H 0.71078 0.46932 0.53309 0.0
C1909 C 0.76726 0.39963 0.58292 0.0
C1910 C 0.75274 0.37735 0.57165 0.0
C1911 C 0.75846 0.42808 0.58012 0.0
C1912 C 0.70591 0.47579 0.55036 0.0
H1913 H 0.61185 0.54698 0.62545 0.0
H1914 H 0.66045 0.538 0.61235 0.0
H1915 H 0.67369 0.5055 0.53941 0.0
H1916 H 0.72036 0.36772 0.54626 0.0
H1917 H 0.70471 0.41715 0.54168 0.0
H1918 H 0.72243 0.46119 0.60574 0.0
C1919 C 0.64279 0.53234 0.60125 0.0
C1920 C 0.68451 0.49636 0.55404 0.0
C1921 C 0.61489 0.5378 0.60872 0.0
C1922 C 0.73166 0.38436 0.55548 0.0
C1923 C 0.72287 0.41281 0.55267 0.0
C1924 C 0.71283 0.47145 0.59103 0.0
C1925 C 0.6476 0.51756 0.58072 0.0
C1926 C 0.67566 0.50316 0.57632 0.0
C1927 C 0.73502 0.43471 0.56599 0.0
C1928 C 0.71924 0.46211 0.5689 0.0
H1929 H 0.57824 0.51224 0.56284 0.0
H1930 H 0.62644 0.50058 0.55058 0.0
H1931 H 0.68516 0.49578 0.61216 0.0
H1932 H 0.784 0.39497 0.59518 0.0
H1933 H 0.76854 0.4446 0.59031 0.0
C1934 C 0.70184 0.37803 0.89897 0.0
C1935 C 0.70242 0.35866 0.9173 0.0
C1936 C 0.71796 0.40324 0.89993 0.0
C1937 C 0.78685 0.41601 0.92607 0.0
H1938 H 0.78977 0.47544 0.87987 0.0
C1939 C 0.89445 0.45056 0.88882 0.0
C1940 C 0.89517 0.45079 0.8649 0.0
C1941 C 0.86834 0.4506 0.9004 0.0
C1942 C 0.78925 0.45903 0.89295 0.0
H1943 H 0.71417 0.35339 0.95276 0.0
H1944 H 0.74124 0.39804 0.95481 0.0
H1945 H 0.7433 0.45885 0.89401 0.0
H1946 H 0.86911 0.45224 0.83435 0.0
H1947 H 0.82339 0.45099 0.85456 0.0
H1948 H 0.83242 0.41477 0.92413 0.0
C1949 C 0.72991 0.39307 0.93921 0.0
C1950 C 0.76266 0.44962 0.90114 0.0
C1951 C 0.71431 0.36752 0.93808 0.0
C1952 C 0.86922 0.45177 0.85279 0.0
C1953 C 0.84304 0.45152 0.8644 0.0
C1954 C 0.81328 0.42546 0.91799 0.0
C1955 C 0.73443 0.40952 0.9194 0.0
C1956 C 0.76112 0.42676 0.9168 0.0
C1957 C 0.84231 0.45054 0.88834 0.0
C1958 C 0.81475 0.44594 0.90047 0.0
H1959 H 0.69213 0.37214 0.88288 0.0
H1960 H 0.72033 0.41555 0.8844 0.0
H1961 H 0.78684 0.3982 0.93794 0.0
H1962 H 0.91409 0.45043 0.8987 0.0
H1963 H 0.86855 0.45022 0.91884 0.0
C1964 C 0.88262 0.56918 0.17417 0.0
C1965 C 0.89456 0.5526 0.19172 0.0
C1966 C 0.85312 0.57363 0.17316 0.0
C1967 C 0.78761 0.57545 0.20705 0.0
H1968 H 0.7559 0.58184 0.14634 0.0
C1969 C 0.71923 0.66685 0.18225 0.0
C1970 C 0.70985 0.66853 0.15962 0.0
C1971 C 0.72853 0.64068 0.19114 0.0
C1972 C 0.76351 0.57947 0.16363 0.0
H1973 H 0.88503 0.52827 0.22239 0.0
H1974 H 0.83317 0.53623 0.22059 0.0
H1975 H 0.80152 0.55892 0.15168 0.0
H1976 H 0.69698 0.64384 0.13018 0.0
H1977 H 0.71052 0.59771 0.14643 0.0
H1978 H 0.7496 0.59612 0.21905 0.0
C1979 C 0.84676 0.54565 0.20761 0.0
C1980 C 0.7902 0.56665 0.16657 0.0
C1981 C 0.87643 0.54121 0.20865 0.0
C1982 C 0.70494 0.64312 0.1475 0.0
C1983 C 0.71306 0.61674 0.15678 0.0
C1984 C 0.76048 0.58783 0.20418 0.0
C1985 C 0.83479 0.56148 0.1896 0.0
C1986 C 0.80349 0.56666 0.18798 0.0
C1987 C 0.72798 0.61567 0.17765 0.0
C1988 C 0.74924 0.59232 0.18216 0.0
H1989 H 0.896 0.57843 0.16097 0.0
H1990 H 0.84467 0.58674 0.15946 0.0
H1991 H 0.79705 0.57509 0.22389 0.0
H1992 H 0.7228 0.68614 0.19212 0.0
H1993 H 0.73928 0.64114 0.20745 0.0
C1994 C 0.57514 0.47161 0.42354 0.0
C1995 C 0.56999 0.46037 0.40179 0.0
C1996 C 0.6029 0.47956 0.42988 0.0
C1997 C 0.66607 0.50548 0.3988 0.0
H1998 H 0.68666 0.53084 0.45942 0.0
C1999 C 0.70886 0.61674 0.41398 0.0
C2000 C 0.72953 0.62203 0.4308 0.0
C2001 C 0.69721 0.58944 0.41144 0.0
C2002 C 0.68171 0.52348 0.44239 0.0
H2003 H 0.59001 0.44505 0.37088 0.0
H2004 H 0.63862 0.45629 0.3827 0.0
H2005 H 0.65358 0.49072 0.45485 0.0
H2006 H 0.75437 0.60281 0.45815 0.0
H2007 H 0.73374 0.55481 0.45368 0.0
H2008 H 0.69392 0.53832 0.38638 0.0
C2009 C 0.62122 0.46069 0.3944 0.0
C2010 C 0.66246 0.50068 0.43974 0.0
C2011 C 0.59336 0.45381 0.38771 0.0
C2012 C 0.73838 0.59938 0.44505 0.0
C2013 C 0.72662 0.57193 0.44252 0.0
C2014 C 0.68556 0.52783 0.40147 0.0
C2015 C 0.62609 0.47576 0.41477 0.0
C2016 C 0.65294 0.49268 0.41789 0.0
C2017 C 0.70599 0.5667 0.42561 0.0
C2018 C 0.69208 0.53829 0.42322 0.0
H2019 H 0.5575 0.47676 0.43482 0.0
H2020 H 0.60549 0.49108 0.44573 0.0
H2021 H 0.65956 0.50023 0.38162 0.0
H2022 H 0.70151 0.6337 0.40276 0.0
H2023 H 0.6808 0.58632 0.39862 0.0
C2024 C 0.29916 0.6433 0.43376 0.0
C2025 C 0.30842 0.67192 0.43577 0.0
C2026 C 0.31794 0.6221 0.42592 0.0
C2027 C 0.3939 0.60436 0.41491 0.0
H2028 H 0.36419 0.56565 0.36152 0.0
C2029 C 0.46794 0.55259 0.34794 0.0
C2030 C 0.45807 0.52853 0.33604 0.0
C2031 C 0.44992 0.56669 0.36333 0.0
C2032 C 0.37277 0.57567 0.37668 0.0
H2033 H 0.34517 0.70027 0.43274 0.0
H2034 H 0.37795 0.66317 0.41934 0.0
H2035 H 0.33247 0.59547 0.3842 0.0
H2036 H 0.42258 0.49922 0.33151 0.0
H2037 H 0.39118 0.52327 0.35865 0.0
H2038 H 0.43427 0.58465 0.40735 0.0
C2039 C 0.35616 0.6572 0.4237 0.0
C2040 C 0.35453 0.59284 0.38966 0.0
C2041 C 0.33731 0.67848 0.43123 0.0
C2042 C 0.43026 0.51825 0.34007 0.0
C2043 C 0.41237 0.53203 0.35567 0.0
C2044 C 0.41212 0.58684 0.40208 0.0
C2045 C 0.34642 0.62901 0.42029 0.0
C2046 C 0.36503 0.60786 0.40861 0.0
C2047 C 0.4218 0.5567 0.36728 0.0
C2048 C 0.40194 0.57282 0.38246 0.0
H2049 H 0.27705 0.63751 0.43712 0.0
H2050 H 0.30996 0.60046 0.4236 0.0
H2051 H 0.40246 0.61552 0.42958 0.0
H2052 H 0.48942 0.56073 0.34508 0.0
H2053 H 0.45782 0.58582 0.37166 0.0
C2054 C 0.05098 0.60398 0.18075 0.0
C2055 C 0.06037 0.5754 0.18275 0.0
C2056 C 0.07034 0.62578 0.1747 0.0
C2057 C 0.14893 0.64061 0.1685 0.0
H2058 H 0.12378 0.69721 0.12437 0.0
C2059 C 0.22929 0.72122 0.13117 0.0
C2060 C 0.22641 0.72885 0.10816 0.0
C2061 C 0.20751 0.70624 0.14235 0.0
C2062 C 0.13127 0.6814 0.13652 0.0
H2063 H 0.09768 0.54758 0.18082 0.0
H2064 H 0.13077 0.58489 0.16981 0.0
H2065 H 0.08907 0.66401 0.14075 0.0
H2066 H 0.19845 0.72716 0.07878 0.0
H2067 H 0.16094 0.69944 0.09785 0.0
H2068 H 0.1913 0.65628 0.16319 0.0
C2069 C 0.10877 0.59091 0.17328 0.0
C2070 C 0.1112 0.66264 0.14626 0.0
C2071 C 0.08961 0.56932 0.17946 0.0
C2072 C 0.20114 0.72154 0.09656 0.0
C2073 C 0.17956 0.70585 0.10761 0.0
C2074 C 0.169 0.65893 0.15851 0.0
C2075 C 0.09941 0.61939 0.17049 0.0
C2076 C 0.11988 0.64164 0.16208 0.0
C2077 C 0.18256 0.69775 0.13064 0.0
C2078 C 0.16058 0.67941 0.14216 0.0
H2079 H 0.02859 0.60938 0.18318 0.0
H2080 H 0.06244 0.64754 0.17303 0.0
H2081 H 0.1564 0.62517 0.18097 0.0
H2082 H 0.24835 0.72709 0.14065 0.0
H2083 H 0.21039 0.70128 0.16021 0.0
C2084 C 0.21588 0.2868 0.91082 0.0
C2085 C 0.21269 0.25862 0.91904 0.0
C2086 C 0.1943 0.29961 0.89791 0.0
C2087 C 0.11871 0.30299 0.88793 0.0
H2088 H 0.14085 0.33811 0.8306 0.0
C2089 C 0.04201 0.37947 0.84011 0.0
C2090 C 0.05504 0.40536 0.83335 0.0
C2091 C 0.05883 0.35586 0.8465 0.0
C2092 C 0.13427 0.32847 0.84657 0.0
H2093 H 0.18391 0.22207 0.92069 0.0
H2094 H 0.14546 0.24516 0.89857 0.0
H2095 H 0.17495 0.30783 0.85104 0.0
H2096 H 0.09584 0.42607 0.82648 0.0
H2097 H 0.12492 0.38547 0.83784 0.0
H2098 H 0.07874 0.32515 0.88435 0.0
C2099 C 0.16505 0.25693 0.90194 0.0
C2100 C 0.15376 0.31104 0.85817 0.0
C2101 C 0.18699 0.2438 0.91457 0.0
C2102 C 0.08508 0.40653 0.83173 0.0
C2103 C 0.10182 0.38306 0.8381 0.0
C2104 C 0.09927 0.3208 0.87646 0.0
C2105 C 0.16881 0.28476 0.89321 0.0
C2106 C 0.14646 0.29889 0.87928 0.0
C2107 C 0.08897 0.35766 0.84614 0.0
C2108 C 0.10722 0.33455 0.85602 0.0
H2109 H 0.23541 0.29883 0.91381 0.0
H2110 H 0.19752 0.32125 0.8916 0.0
H2111 H 0.11268 0.2939 0.90424 0.0
H2112 H 0.01889 0.37782 0.84146 0.0
H2113 H 0.04825 0.33648 0.8523 0.0
C2114 C 0.36526 0.29826 0.58265 0.0
C2115 C 0.33713 0.30503 0.57582 0.0
C2116 C 0.38443 0.32002 0.58877 0.0
C2117 C 0.38263 0.38827 0.61643 0.0
H2118 H 0.46246 0.39618 0.59896 0.0
C2119 C 0.45458 0.47082 0.66092 0.0
C2120 C 0.48292 0.46261 0.66548 0.0
C2121 C 0.4376 0.45457 0.64621 0.0
C2122 C 0.4403 0.39406 0.60422 0.0
H2123 H 0.30764 0.34006 0.5688 0.0
H2124 H 0.34096 0.37786 0.58002 0.0
H2125 H 0.43187 0.36155 0.57921 0.0
H2126 H 0.51615 0.43156 0.65834 0.0
H2127 H 0.48609 0.40198 0.63367 0.0
H2128 H 0.39099 0.41907 0.64233 0.0
C2129 C 0.34812 0.35573 0.5805 0.0
C2130 C 0.4228 0.3744 0.59277 0.0
C2131 C 0.32911 0.33406 0.57403 0.0
C2132 C 0.49424 0.43813 0.65502 0.0
C2133 C 0.47706 0.42145 0.64069 0.0
C2134 C 0.40018 0.40744 0.62817 0.0
C2135 C 0.37566 0.34885 0.58846 0.0
C2136 C 0.39388 0.37122 0.59892 0.0
C2137 C 0.44839 0.4293 0.63624 0.0
C2138 C 0.42936 0.41042 0.62242 0.0
H2139 H 0.37213 0.27612 0.58409 0.0
H2140 H 0.40553 0.31419 0.59498 0.0
H2141 H 0.36048 0.38589 0.62172 0.0
H2142 H 0.44574 0.49011 0.66837 0.0
H2143 H 0.41598 0.46187 0.64272 0.0
loop_
_geom_bond_atom_site_label_1
_geom_bond_atom_site_label_2
_geom_bond_distance
_geom_bond_site_symmetry_2
_ccdc_geom_bond_type
O0 Tb1 2.292 . S
O0 C3 1.255 . S
Tb1 O0 2.292 . S
Tb1 O17 2.326 . S
Tb1 O19 2.500 . S
Tb1 O20 2.473 . S
Tb1 O23 2.324 1_455 S
Eu2 O6 2.292 . S
Eu2 C7 2.852 . S
Eu2 O18 2.324 1_655 S
Eu2 O22 2.326 . S
Eu2 O24 2.500 . S
Eu2 O25 2.473 1_655 S
C3 O0 1.255 . S
C3 O4 1.247 . S
O4 C3 1.247 . S
C5 O17 1.242 . S
C5 O18 1.258 . S
O6 Eu2 2.292 . S
O6 C8 1.255 . S
C7 Eu2 2.852 . S
C7 C11 1.503 . S
C7 O24 1.273 . S
C7 O25 1.257 1_655 S
C8 O6 1.255 . S
C8 O9 1.247 . S
O9 C8 1.247 . S
C10 O22 1.242 . S
C10 O23 1.258 . S
C11 C7 1.503 . S
C11 C12 1.379 1_655 S
C11 C16 1.392 . S
C12 C11 1.379 1_455 S
C12 C13 1.404 . S
C12 H26 0.929 . S
C13 C12 1.404 . S
C13 C14 1.389 1_455 S
C14 C13 1.389 1_655 S
C14 C15 1.399 . S
C14 H27 0.931 . S
C15 C14 1.399 . S
C15 C16 1.390 . S
C16 C11 1.392 . S
C16 C15 1.390 . S
C16 H28 0.929 . S
O17 Tb1 2.326 . S
O17 C5 1.242 . S
O18 Eu2 2.324 1_455 S
O18 C5 1.258 . S
O19 Tb1 2.500 . S
O19 C21 1.273 . S
O20 Tb1 2.473 . S
O20 C21 1.257 . S
C21 O19 1.273 . S
C21 O20 1.257 . S
O22 Eu2 2.326 . S
O22 C10 1.242 . S
O23 Tb1 2.324 1_655 S
O23 C10 1.258 . S
O24 Eu2 2.500 . S
O24 C7 1.273 . S
O25 Eu2 2.473 1_455 S
O25 C7 1.257 1_455 S
H26 C12 0.929 . S
H27 C14 0.931 . S
H28 C16 0.929 . S
O29 Tb30 2.292 . S
O29 C32 1.255 . S
Tb30 O29 2.292 . S
Tb30 O46 2.326 . S
Tb30 O48 2.500 . S
Tb30 O49 2.473 . S
Tb30 O52 2.324 . S
Eu31 O35 2.292 . S
Eu31 C36 2.852 . S
Eu31 O47 2.324 . S
Eu31 O51 2.326 . S
Eu31 O53 2.500 . S
Eu31 O54 2.473 . S
C32 O29 1.255 . S
C32 O33 1.247 . S
O33 C32 1.247 . S
C34 O46 1.242 . S
C34 O47 1.258 . S
O35 Eu31 2.292 . S
O35 C37 1.255 . S
C36 Eu31 2.852 . S
C36 C40 1.503 . S
C36 O53 1.273 . S
C36 O54 1.257 . S
C37 O35 1.255 . S
C37 O38 1.247 . S
O38 C37 1.247 . S
C39 O51 1.242 . S
C39 O52 1.258 . S
C40 C36 1.503 . S
C40 C41 1.379 . S
C40 C45 1.392 . S
C41 C40 1.379 . S
C41 C42 1.404 . S
C41 H55 0.929 . S
C42 C41 1.404 . S
C42 C43 1.389 . S
C43 C42 1.389 . S
C43 C44 1.399 . S
C43 H56 0.931 . S
C44 C43 1.399 . S
C44 C45 1.390 . S
C45 C40 1.392 . S
C45 C44 1.390 . S
C45 H57 0.929 . S
O46 Tb30 2.326 . S
O46 C34 1.242 . S
O47 Eu31 2.324 . S
O47 C34 1.258 . S
O48 Tb30 2.500 . S
O48 C50 1.273 . S
O49 Tb30 2.473 . S
O49 C50 1.257 . S
C50 O48 1.273 . S
C50 O49 1.257 . S
O51 Eu31 2.326 . S
O51 C39 1.242 . S
O52 Tb30 2.324 . S
O52 C39 1.258 . S
O53 Eu31 2.500 . S
O53 C36 1.273 . S
O54 Eu31 2.473 . S
O54 C36 1.257 . S
H55 C41 0.929 . S
H56 C43 0.931 . S
H57 C45 0.929 . S
O58 Tb59 2.292 . S
O58 C61 1.255 . S
Tb59 O58 2.292 . S
Tb59 O75 2.326 . S
Tb59 O77 2.500 . S
Tb59 O78 2.473 . S
Tb59 O81 2.324 . S
Eu60 O64 2.292 . S
Eu60 C65 2.852 . S
Eu60 O76 2.324 . S
Eu60 O80 2.326 . S
Eu60 O82 2.500 . S
Eu60 O83 2.473 . S
C61 O58 1.255 . S
C61 O62 1.247 . S
O62 C61 1.247 . S
C63 O75 1.242 . S
C63 O76 1.258 . S
O64 Eu60 2.292 . S
O64 C66 1.255 . S
C65 Eu60 2.852 . S
C65 C69 1.503 . S
C65 O82 1.273 . S
C65 O83 1.257 . S
C66 O64 1.255 . S
C66 O67 1.247 . S
O67 C66 1.247 . S
C68 O80 1.242 . S
C68 O81 1.258 . S
C69 C65 1.503 . S
C69 C70 1.379 . S
C69 C74 1.392 . S
C70 C69 1.379 . S
C70 C71 1.404 . S
C70 H84 0.929 . S
C71 C70 1.404 . S
C71 C72 1.389 . S
C72 C71 1.389 . S
C72 C73 1.399 . S
C72 H85 0.931 . S
C73 C72 1.399 . S
C73 C74 1.390 . S
C74 C69 1.392 . S
C74 C73 1.390 . S
C74 H86 0.929 . S
O75 Tb59 2.326 . S
O75 C63 1.242 . S
O76 Eu60 2.324 . S
O76 C63 1.258 . S
O77 Tb59 2.500 . S
O77 C79 1.273 . S
O78 Tb59 2.473 . S
O78 C79 1.257 . S
C79 O77 1.273 . S
C79 O78 1.257 . S
O80 Eu60 2.326 . S
O80 C68 1.242 . S
O81 Tb59 2.324 . S
O81 C68 1.258 . S
O82 Eu60 2.500 . S
O82 C65 1.273 . S
O83 Eu60 2.473 . S
O83 C65 1.257 . S
H84 C70 0.929 . S
H85 C72 0.931 . S
H86 C74 0.929 . S
O87 Tb88 2.292 . S
O87 C90 1.255 . S
Tb88 O87 2.292 . S
Tb88 O104 2.326 . S
Tb88 O106 2.500 . S
Tb88 O107 2.473 . S
Tb88 O110 2.324 . S
Eu89 O93 2.292 . S
Eu89 C94 2.852 . S
Eu89 O105 2.324 . S
Eu89 O109 2.326 . S
Eu89 O111 2.500 . S
Eu89 O112 2.473 . S
C90 O87 1.255 . S
C90 O91 1.247 . S
O91 C90 1.247 . S
C92 O104 1.242 . S
C92 O105 1.258 . S
O93 Eu89 2.292 . S
O93 C95 1.255 . S
C94 Eu89 2.852 . S
C94 C98 1.503 1_556 S
C94 O111 1.273 . S
C94 O112 1.257 . S
C95 O93 1.255 . S
C95 O96 1.247 . S
O96 C95 1.247 . S
C97 O109 1.242 . S
C97 O110 1.258 . S
C98 C94 1.503 1_554 S
C98 C99 1.379 . S
C98 C103 1.392 . S
C99 C98 1.379 . S
C99 C100 1.404 . S
C99 H113 0.951 . S
C100 C99 1.404 . S
C100 C101 1.389 . S
C101 C100 1.389 . S
C101 C102 1.399 . S
C101 H114 0.931 . S
C102 C101 1.399 . S
C102 C103 1.390 . S
C103 C98 1.392 . S
C103 C102 1.390 . S
C103 H115 0.929 . S
O104 Tb88 2.326 . S
O104 C92 1.242 . S
O105 Eu89 2.324 . S
O105 C92 1.258 . S
O106 Tb88 2.500 . S
O106 C108 1.273 . S
O107 Tb88 2.473 . S
O107 C108 1.257 . S
C108 O106 1.273 . S
C108 O107 1.257 . S
O109 Eu89 2.326 . S
O109 C97 1.242 . S
O110 Tb88 2.324 . S
O110 C97 1.258 . S
O111 Eu89 2.500 . S
O111 C94 1.273 . S
O112 Eu89 2.473 . S
O112 C94 1.257 . S
H113 C99 0.951 . S
H114 C101 0.931 . S
H115 C103 0.929 . S
O116 Tb117 2.292 . S
O116 C119 1.255 . S
Tb117 O116 2.292 . S
Tb117 O133 2.326 . S
Tb117 O135 2.500 . S
Tb117 O136 2.473 . S
Tb117 O139 2.324 1_455 S
Eu118 O122 2.292 . S
Eu118 C123 2.852 . S
Eu118 O134 2.324 1_655 S
Eu118 O138 2.326 . S
Eu118 O140 2.500 . S
Eu118 O141 2.473 1_655 S
C119 O116 1.255 . S
C119 O120 1.247 . S
O120 C119 1.247 . S
C121 O133 1.242 . S
C121 O134 1.258 . S
O122 Eu118 2.292 . S
O122 C124 1.255 . S
C123 Eu118 2.852 . S
C123 C127 1.503 . S
C123 O140 1.273 . S
C123 O141 1.257 1_655 S
C124 O122 1.255 . S
C124 O125 1.247 . S
O125 C124 1.247 . S
C126 O138 1.242 . S
C126 O139 1.258 . S
C127 C123 1.503 . S
C127 C128 1.379 1_655 S
C127 C132 1.392 . S
C128 C127 1.379 1_455 S
C128 C129 1.404 . S
C128 H142 0.929 . S
C129 C128 1.404 . S
C129 C130 1.389 1_455 S
C130 C129 1.389 1_655 S
C130 C131 1.399 . S
C130 H143 0.931 . S
C131 C130 1.399 . S
C131 C132 1.390 . S
C132 C127 1.392 . S
C132 C131 1.390 . S
C132 H144 0.929 . S
O133 Tb117 2.326 . S
O133 C121 1.242 . S
O134 Eu118 2.324 1_455 S
O134 C121 1.258 . S
O135 Tb117 2.500 . S
O135 C137 1.273 . S
O136 Tb117 2.473 . S
O136 C137 1.257 . S
C137 O135 1.273 . S
C137 O136 1.257 . S
O138 Eu118 2.326 . S
O138 C126 1.242 . S
O139 Tb117 2.324 1_655 S
O139 C126 1.258 . S
O140 Eu118 2.500 . S
O140 C123 1.273 . S
O141 Eu118 2.473 1_455 S
O141 C123 1.257 1_455 S
H142 C128 0.929 . S
H143 C130 0.931 . S
H144 C132 0.929 . S
O145 Tb146 2.292 . S
O145 C148 1.255 . S
Tb146 O145 2.292 . S
Tb146 O162 2.326 . S
Tb146 O164 2.500 . S
Tb146 O165 2.473 . S
Tb146 O168 2.324 . S
Eu147 O151 2.292 . S
Eu147 C152 2.852 . S
Eu147 O163 2.324 . S
Eu147 O167 2.326 . S
Eu147 O169 2.500 . S
Eu147 O170 2.473 . S
C148 O145 1.255 . S
C148 O149 1.247 . S
O149 C148 1.247 . S
C150 O162 1.242 . S
C150 O163 1.258 . S
O151 Eu147 2.292 . S
O151 C153 1.255 . S
C152 Eu147 2.852 . S
C152 C156 1.503 1_554 S
C152 O169 1.273 . S
C152 O170 1.257 . S
C153 O151 1.255 . S
C153 O154 1.247 . S
O154 C153 1.247 . S
C155 O167 1.242 . S
C155 O168 1.258 . S
C156 C152 1.503 1_556 S
C156 C157 1.379 . S
C156 C161 1.392 . S
C157 C156 1.379 . S
C157 C158 1.404 . S
C157 H171 0.951 . S
C158 C157 1.404 . S
C158 C159 1.389 . S
C159 C158 1.389 . S
C159 C160 1.399 . S
C159 H172 0.931 . S
C160 C159 1.399 . S
C160 C161 1.390 . S
C161 C156 1.392 . S
C161 C160 1.390 . S
C161 H173 0.929 . S
O162 Tb146 2.326 . S
O162 C150 1.242 . S
O163 Eu147 2.324 . S
O163 C150 1.258 . S
O164 Tb146 2.500 . S
O164 C166 1.273 . S
O165 Tb146 2.473 . S
O165 C166 1.257 . S
C166 O164 1.273 . S
C166 O165 1.257 . S
O167 Eu147 2.326 . S
O167 C155 1.242 . S
O168 Tb146 2.324 . S
O168 C155 1.258 . S
O169 Eu147 2.500 . S
O169 C152 1.273 . S
O170 Eu147 2.473 . S
O170 C152 1.257 . S
H171 C157 0.951 . S
H172 C159 0.931 . S
H173 C161 0.929 . S
O174 Tb175 2.292 . S
O174 C177 1.255 . S
Tb175 O174 2.292 . S
Tb175 O191 2.326 . S
Tb175 O193 2.500 . S
Tb175 O194 2.473 . S
Tb175 O197 2.324 . S
Eu176 O180 2.292 . S
Eu176 C181 2.852 . S
Eu176 O192 2.324 . S
Eu176 O196 2.326 . S
Eu176 O198 2.500 . S
Eu176 O199 2.473 . S
C177 O174 1.255 . S
C177 O178 1.247 . S
O178 C177 1.247 . S
C179 O191 1.242 . S
C179 O192 1.258 . S
O180 Eu176 2.292 . S
O180 C182 1.255 . S
C181 Eu176 2.852 . S
C181 C185 1.503 . S
C181 O198 1.273 . S
C181 O199 1.257 . S
C182 O180 1.255 . S
C182 O183 1.247 . S
O183 C182 1.247 . S
C184 O196 1.242 . S
C184 O197 1.258 . S
C185 C181 1.503 . S
C185 C186 1.379 . S
C185 C190 1.392 . S
C186 C185 1.379 . S
C186 C187 1.404 . S
C186 H200 0.929 . S
C187 C186 1.404 . S
C187 C188 1.389 . S
C188 C187 1.389 . S
C188 C189 1.399 . S
C188 H201 0.931 . S
C189 C188 1.399 . S
C189 C190 1.390 . S
C190 C185 1.392 . S
C190 C189 1.390 . S
C190 H202 0.929 . S
O191 Tb175 2.326 . S
O191 C179 1.242 . S
O192 Eu176 2.324 . S
O192 C179 1.258 . S
O193 Tb175 2.500 . S
O193 C195 1.273 . S
O194 Tb175 2.473 . S
O194 C195 1.257 . S
C195 O193 1.273 . S
C195 O194 1.257 . S
O196 Eu176 2.326 . S
O196 C184 1.242 . S
O197 Tb175 2.324 . S
O197 C184 1.258 . S
O198 Eu176 2.500 . S
O198 C181 1.273 . S
O199 Eu176 2.473 . S
O199 C181 1.257 . S
H200 C186 0.929 . S
H201 C188 0.931 . S
H202 C190 0.929 . S
O203 Tb204 2.292 . S
O203 C206 1.255 . S
Tb204 O203 2.292 . S
Tb204 O220 2.326 . S
Tb204 O222 2.500 . S
Tb204 O223 2.473 . S
Tb204 O226 2.324 . S
Eu205 O209 2.292 . S
Eu205 C210 2.852 . S
Eu205 O221 2.324 . S
Eu205 O225 2.326 . S
Eu205 O227 2.500 . S
Eu205 O228 2.473 . S
C206 O203 1.255 . S
C206 O207 1.247 . S
O207 C206 1.247 . S
C208 O220 1.242 . S
C208 O221 1.258 . S
O209 Eu205 2.292 . S
O209 C211 1.255 . S
C210 Eu205 2.852 . S
C210 C214 1.503 . S
C210 O227 1.273 . S
C210 O228 1.257 . S
C211 O209 1.255 . S
C211 O212 1.247 . S
O212 C211 1.247 . S
C213 O225 1.242 . S
C213 O226 1.258 . S
C214 C210 1.503 . S
C214 C215 1.379 . S
C214 C219 1.392 . S
C215 C214 1.379 . S
C215 C216 1.404 . S
C215 H229 0.929 . S
C216 C215 1.404 . S
C216 C217 1.389 . S
C217 C216 1.389 . S
C217 C218 1.399 . S
C217 H230 0.931 . S
C218 C217 1.399 . S
C218 C219 1.390 . S
C219 C214 1.392 . S
C219 C218 1.390 . S
C219 H231 0.929 . S
O220 Tb204 2.326 . S
O220 C208 1.242 . S
O221 Eu205 2.324 . S
O221 C208 1.258 . S
O222 Tb204 2.500 . S
O222 C224 1.273 . S
O223 Tb204 2.473 . S
O223 C224 1.257 . S
C224 O222 1.273 . S
C224 O223 1.257 . S
O225 Eu205 2.326 . S
O225 C213 1.242 . S
O226 Tb204 2.324 . S
O226 C213 1.258 . S
O227 Eu205 2.500 . S
O227 C210 1.273 . S
O228 Eu205 2.473 . S
O228 C210 1.257 . S
H229 C215 0.929 . S
H230 C217 0.931 . S
H231 C219 0.929 . S
O232 Tb233 2.292 . S
O232 C235 1.255 . S
Tb233 O232 2.292 . S
Tb233 O249 2.326 . S
Tb233 O251 2.500 . S
Tb233 O252 2.473 . S
Tb233 O255 2.324 . S
Eu234 O238 2.292 . S
Eu234 C239 2.852 . S
Eu234 O250 2.324 . S
Eu234 O254 2.326 . S
Eu234 O256 2.500 . S
Eu234 O257 2.473 . S
C235 O232 1.255 . S
C235 O236 1.247 . S
O236 C235 1.247 . S
C237 O249 1.242 . S
C237 O250 1.258 . S
O238 Eu234 2.292 . S
O238 C240 1.255 . S
C239 Eu234 2.852 . S
C239 C243 1.503 . S
C239 O256 1.273 . S
C239 O257 1.257 . S
C240 O238 1.255 . S
C240 O241 1.247 . S
O241 C240 1.247 . S
C242 O254 1.242 . S
C242 O255 1.258 . S
C243 C239 1.503 . S
C243 C244 1.379 . S
C243 C248 1.392 . S
C244 C243 1.379 . S
C244 C245 1.404 . S
C244 H258 0.929 . S
C245 C244 1.404 . S
C245 C246 1.389 . S
C246 C245 1.389 . S
C246 C247 1.399 . S
C246 H259 0.931 . S
C247 C246 1.399 . S
C247 C248 1.390 . S
C248 C243 1.392 . S
C248 C247 1.390 . S
C248 H260 0.929 . S
O249 Tb233 2.326 . S
O249 C237 1.242 . S
O250 Eu234 2.324 . S
O250 C237 1.258 . S
O251 Tb233 2.500 . S
O251 C253 1.273 . S
O252 Tb233 2.473 . S
O252 C253 1.257 . S
C253 O251 1.273 . S
C253 O252 1.257 . S
O254 Eu234 2.326 . S
O254 C242 1.242 . S
O255 Tb233 2.324 . S
O255 C242 1.258 . S
O256 Eu234 2.500 . S
O256 C239 1.273 . S
O257 Eu234 2.473 . S
O257 C239 1.257 . S
H258 C244 0.929 . S
H259 C246 0.931 . S
H260 C248 0.929 . S
O261 Tb262 2.292 . S
O261 C264 1.255 . S
Tb262 O261 2.292 . S
Tb262 O278 2.326 . S
Tb262 O280 2.500 . S
Tb262 O281 2.473 . S
Tb262 O284 2.324 . S
Eu263 O267 2.292 . S
Eu263 C268 2.852 . S
Eu263 O279 2.324 . S
Eu263 O283 2.326 . S
Eu263 O285 2.500 . S
Eu263 O286 2.473 . S
C264 O261 1.255 . S
C264 O265 1.247 . S
O265 C264 1.247 . S
C266 O278 1.242 . S
C266 O279 1.258 . S
O267 Eu263 2.292 . S
O267 C269 1.255 . S
C268 Eu263 2.852 . S
C268 C272 1.503 1_554 S
C268 O285 1.273 . S
C268 O286 1.257 . S
C269 O267 1.255 . S
C269 O270 1.247 . S
O270 C269 1.247 . S
C271 O283 1.242 . S
C271 O284 1.258 . S
C272 C268 1.503 1_556 S
C272 C273 1.379 . S
C272 C277 1.392 . S
C273 C272 1.379 . S
C273 C274 1.404 . S
C273 H287 0.950 . S
C274 C273 1.404 . S
C274 C275 1.389 . S
C275 C274 1.389 . S
C275 C276 1.399 . S
C275 H288 0.931 . S
C276 C275 1.399 . S
C276 C277 1.390 . S
C277 C272 1.392 . S
C277 C276 1.390 . S
C277 H289 0.929 . S
O278 Tb262 2.326 . S
O278 C266 1.242 . S
O279 Eu263 2.324 . S
O279 C266 1.258 . S
O280 Tb262 2.500 . S
O280 C282 1.273 . S
O281 Tb262 2.473 . S
O281 C282 1.257 . S
C282 O280 1.273 . S
C282 O281 1.257 . S
O283 Eu263 2.326 . S
O283 C271 1.242 . S
O284 Tb262 2.324 . S
O284 C271 1.258 . S
O285 Eu263 2.500 . S
O285 C268 1.273 . S
O286 Eu263 2.473 . S
O286 C268 1.257 . S
H287 C273 0.950 . S
H288 C275 0.931 . S
H289 C277 0.929 . S
O290 Tb291 2.292 . S
O290 C293 1.255 . S
Tb291 O290 2.292 . S
Tb291 O307 2.326 . S
Tb291 O309 2.500 . S
Tb291 O310 2.473 . S
Tb291 O313 2.324 . S
Eu292 O296 2.292 . S
Eu292 C297 2.852 . S
Eu292 O308 2.324 . S
Eu292 O312 2.326 . S
Eu292 O314 2.500 . S
Eu292 O315 2.473 . S
C293 O290 1.255 . S
C293 O294 1.247 . S
O294 C293 1.247 . S
C295 O307 1.242 . S
C295 O308 1.258 . S
O296 Eu292 2.292 . S
O296 C298 1.255 . S
C297 Eu292 2.852 . S
C297 C301 1.503 1_556 S
C297 O314 1.273 . S
C297 O315 1.257 . S
C298 O296 1.255 . S
C298 O299 1.247 . S
O299 C298 1.247 . S
C300 O312 1.242 . S
C300 O313 1.258 . S
C301 C297 1.503 1_554 S
C301 C302 1.379 . S
C301 C306 1.392 . S
C302 C301 1.379 . S
C302 C303 1.404 . S
C302 H316 0.950 . S
C303 C302 1.404 . S
C303 C304 1.389 . S
C304 C303 1.389 . S
C304 C305 1.399 . S
C304 H317 0.931 . S
C305 C304 1.399 . S
C305 C306 1.390 . S
C306 C301 1.392 . S
C306 C305 1.390 . S
C306 H318 0.929 . S
O307 Tb291 2.326 . S
O307 C295 1.242 . S
O308 Eu292 2.324 . S
O308 C295 1.258 . S
O309 Tb291 2.500 . S
O309 C311 1.273 . S
O310 Tb291 2.473 . S
O310 C311 1.257 . S
C311 O309 1.273 . S
C311 O310 1.257 . S
O312 Eu292 2.326 . S
O312 C300 1.242 . S
O313 Tb291 2.324 . S
O313 C300 1.258 . S
O314 Eu292 2.500 . S
O314 C297 1.273 . S
O315 Eu292 2.473 . S
O315 C297 1.257 . S
H316 C302 0.950 . S
H317 C304 0.931 . S
H318 C306 0.929 . S
O319 Tb320 2.292 . S
O319 C322 1.255 . S
Tb320 O319 2.292 . S
Tb320 O336 2.326 . S
Tb320 O338 2.500 . S
Tb320 O339 2.473 . S
Tb320 O342 2.324 . S
Eu321 O325 2.292 . S
Eu321 C326 2.852 . S
Eu321 O337 2.324 . S
Eu321 O341 2.326 . S
Eu321 O343 2.500 . S
Eu321 O344 2.473 . S
C322 O319 1.255 . S
C322 O323 1.247 . S
O323 C322 1.247 . S
C324 O336 1.242 . S
C324 O337 1.258 . S
O325 Eu321 2.292 . S
O325 C327 1.255 . S
C326 Eu321 2.852 . S
C326 C330 1.503 . S
C326 O343 1.273 . S
C326 O344 1.257 . S
C327 O325 1.255 . S
C327 O328 1.247 . S
O328 C327 1.247 . S
C329 O341 1.242 . S
C329 O342 1.258 . S
C330 C326 1.503 . S
C330 C331 1.379 . S
C330 C335 1.392 . S
C331 C330 1.379 . S
C331 C332 1.404 . S
C331 H345 0.929 . S
C332 C331 1.404 . S
C332 C333 1.389 . S
C333 C332 1.389 . S
C333 C334 1.399 . S
C333 H346 0.931 . S
C334 C333 1.399 . S
C334 C335 1.390 . S
C335 C330 1.392 . S
C335 C334 1.390 . S
C335 H347 0.929 . S
O336 Tb320 2.326 . S
O336 C324 1.242 . S
O337 Eu321 2.324 . S
O337 C324 1.258 . S
O338 Tb320 2.500 . S
O338 C340 1.273 . S
O339 Tb320 2.473 . S
O339 C340 1.257 . S
C340 O338 1.273 . S
C340 O339 1.257 . S
O341 Eu321 2.326 . S
O341 C329 1.242 . S
O342 Tb320 2.324 . S
O342 C329 1.258 . S
O343 Eu321 2.500 . S
O343 C326 1.273 . S
O344 Eu321 2.473 . S
O344 C326 1.257 . S
H345 C331 0.929 . S
H346 C333 0.931 . S
H347 C335 0.929 . S
O348 Tb349 2.292 . S
O348 C351 1.255 . S
Tb349 O348 2.292 . S
Tb349 O365 2.326 . S
Tb349 O367 2.500 . S
Tb349 O368 2.473 . S
Tb349 O371 2.324 . S
Eu350 O354 2.292 . S
Eu350 C355 2.852 . S
Eu350 O366 2.324 . S
Eu350 O370 2.326 . S
Eu350 O372 2.500 . S
Eu350 O373 2.473 . S
C351 O348 1.255 . S
C351 O352 1.247 . S
O352 C351 1.247 . S
C353 O365 1.242 . S
C353 O366 1.258 . S
O354 Eu350 2.292 . S
O354 C356 1.255 . S
C355 Eu350 2.852 . S
C355 C359 1.503 . S
C355 O372 1.273 . S
C355 O373 1.257 . S
C356 O354 1.255 . S
C356 O357 1.247 . S
O357 C356 1.247 . S
C358 O370 1.242 . S
C358 O371 1.258 . S
C359 C355 1.503 . S
C359 C360 1.379 . S
C359 C364 1.392 . S
C360 C359 1.379 . S
C360 C361 1.404 . S
C360 H374 0.929 . S
C361 C360 1.404 . S
C361 C362 1.389 . S
C362 C361 1.389 . S
C362 C363 1.399 . S
C362 H375 0.931 . S
C363 C362 1.399 . S
C363 C364 1.390 . S
C364 C359 1.392 . S
C364 C363 1.390 . S
C364 H376 0.929 . S
O365 Tb349 2.326 . S
O365 C353 1.242 . S
O366 Eu350 2.324 . S
O366 C353 1.258 . S
O367 Tb349 2.500 . S
O367 C369 1.273 . S
O368 Tb349 2.473 . S
O368 C369 1.257 . S
C369 O367 1.273 . S
C369 O368 1.257 . S
O370 Eu350 2.326 . S
O370 C358 1.242 . S
O371 Tb349 2.324 . S
O371 C358 1.258 . S
O372 Eu350 2.500 . S
O372 C355 1.273 . S
O373 Eu350 2.473 . S
O373 C355 1.257 . S
H374 C360 0.929 . S
H375 C362 0.931 . S
H376 C364 0.929 . S
O377 Tb378 2.292 . S
O377 C380 1.255 . S
Tb378 O377 2.292 . S
Tb378 O394 2.326 . S
Tb378 O396 2.500 . S
Tb378 O397 2.473 1_655 S
Tb378 O400 2.324 1_655 S
Eu379 O383 2.292 . S
Eu379 C384 2.852 . S
Eu379 O395 2.324 1_455 S
Eu379 O399 2.326 . S
Eu379 O401 2.500 . S
Eu379 O402 2.473 1_455 S
C380 O377 1.255 . S
C380 O381 1.247 . S
O381 C380 1.247 . S
C382 O394 1.242 . S
C382 O395 1.258 . S
O383 Eu379 2.292 . S
O383 C385 1.255 . S
C384 Eu379 2.852 . S
C384 C388 1.503 . S
C384 O401 1.273 . S
C384 O402 1.257 1_455 S
C385 O383 1.255 . S
C385 O386 1.247 . S
O386 C385 1.247 . S
C387 O399 1.242 . S
C387 O400 1.258 . S
C388 C384 1.503 . S
C388 C389 1.379 1_455 S
C388 C393 1.392 . S
C389 C388 1.379 1_655 S
C389 C390 1.404 . S
C389 H403 0.929 . S
C390 C389 1.404 . S
C390 C391 1.389 1_655 S
C391 C390 1.389 1_455 S
C391 C392 1.399 . S
C391 H404 0.931 . S
C392 C391 1.399 . S
C392 C393 1.390 . S
C393 C388 1.392 . S
C393 C392 1.390 . S
C393 H405 0.929 . S
O394 Tb378 2.326 . S
O394 C382 1.242 . S
O395 Eu379 2.324 1_655 S
O395 C382 1.258 . S
O396 Tb378 2.500 . S
O396 C398 1.273 . S
O397 Tb378 2.473 1_455 S
O397 C398 1.257 1_455 S
C398 O396 1.273 . S
C398 O397 1.257 1_655 S
O399 Eu379 2.326 . S
O399 C387 1.242 . S
O400 Tb378 2.324 1_455 S
O400 C387 1.258 . S
O401 Eu379 2.500 . S
O401 C384 1.273 . S
O402 Eu379 2.473 1_655 S
O402 C384 1.257 1_655 S
H403 C389 0.929 . S
H404 C391 0.931 . S
H405 C393 0.929 . S
O406 Tb407 2.292 . S
O406 C409 1.255 . S
Tb407 O406 2.292 . S
Tb407 O423 2.326 . S
Tb407 O425 2.500 . S
Tb407 O426 2.473 . S
Tb407 O429 2.324 . S
Eu408 O412 2.292 . S
Eu408 C413 2.852 . S
Eu408 O424 2.324 . S
Eu408 O428 2.326 . S
Eu408 O430 2.500 . S
Eu408 O431 2.473 . S
C409 O406 1.255 . S
C409 O410 1.247 . S
O410 C409 1.247 . S
C411 O423 1.242 . S
C411 O424 1.258 . S
O412 Eu408 2.292 . S
O412 C414 1.255 . S
C413 Eu408 2.852 . S
C413 C417 1.503 . S
C413 O430 1.273 . S
C413 O431 1.257 . S
C414 O412 1.255 . S
C414 O415 1.247 . S
O415 C414 1.247 . S
C416 O428 1.242 . S
C416 O429 1.258 . S
C417 C413 1.503 . S
C417 C418 1.379 . S
C417 C422 1.392 . S
C418 C417 1.379 . S
C418 C419 1.404 . S
C418 H432 0.929 . S
C419 C418 1.404 . S
C419 C420 1.389 . S
C420 C419 1.389 . S
C420 C421 1.399 . S
C420 H433 0.931 . S
C421 C420 1.399 . S
C421 C422 1.390 . S
C422 C417 1.392 . S
C422 C421 1.390 . S
C422 H434 0.929 . S
O423 Tb407 2.326 . S
O423 C411 1.242 . S
O424 Eu408 2.324 . S
O424 C411 1.258 . S
O425 Tb407 2.500 . S
O425 C427 1.273 . S
O426 Tb407 2.473 . S
O426 C427 1.257 . S
C427 O425 1.273 . S
C427 O426 1.257 . S
O428 Eu408 2.326 . S
O428 C416 1.242 . S
O429 Tb407 2.324 . S
O429 C416 1.258 . S
O430 Eu408 2.500 . S
O430 C413 1.273 . S
O431 Eu408 2.473 . S
O431 C413 1.257 . S
H432 C418 0.929 . S
H433 C420 0.931 . S
H434 C422 0.929 . S
O435 Tb436 2.292 . S
O435 C438 1.255 . S
Tb436 O435 2.292 . S
Tb436 O452 2.326 . S
Tb436 O454 2.500 . S
Tb436 O455 2.473 1_655 S
Tb436 O458 2.324 1_655 S
Eu437 O441 2.292 . S
Eu437 C442 2.852 . S
Eu437 O453 2.324 1_455 S
Eu437 O457 2.326 . S
Eu437 O459 2.500 . S
Eu437 O460 2.473 1_455 S
C438 O435 1.255 . S
C438 O439 1.247 . S
O439 C438 1.247 . S
C440 O452 1.242 . S
C440 O453 1.258 . S
O441 Eu437 2.292 . S
O441 C443 1.255 . S
C442 Eu437 2.852 . S
C442 C446 1.503 . S
C442 O459 1.273 . S
C442 O460 1.257 1_455 S
C443 O441 1.255 . S
C443 O444 1.247 . S
O444 C443 1.247 . S
C445 O457 1.242 . S
C445 O458 1.258 . S
C446 C442 1.503 . S
C446 C447 1.379 1_455 S
C446 C451 1.392 . S
C447 C446 1.379 1_655 S
C447 C448 1.404 . S
C447 H461 0.929 . S
C448 C447 1.404 . S
C448 C449 1.389 1_655 S
C449 C448 1.389 1_455 S
C449 C450 1.399 . S
C449 H462 0.931 . S
C450 C449 1.399 . S
C450 C451 1.390 . S
C451 C446 1.392 . S
C451 C450 1.390 . S
C451 H463 0.929 . S
O452 Tb436 2.326 . S
O452 C440 1.242 . S
O453 Eu437 2.324 1_655 S
O453 C440 1.258 . S
O454 Tb436 2.500 . S
O454 C456 1.273 . S
O455 Tb436 2.473 1_455 S
O455 C456 1.257 1_455 S
C456 O454 1.273 . S
C456 O455 1.257 1_655 S
O457 Eu437 2.326 . S
O457 C445 1.242 . S
O458 Tb436 2.324 1_455 S
O458 C445 1.258 . S
O459 Eu437 2.500 . S
O459 C442 1.273 . S
O460 Eu437 2.473 1_655 S
O460 C442 1.257 1_655 S
H461 C447 0.929 . S
H462 C449 0.931 . S
H463 C451 0.929 . S
C464 C465 1.349 . S
C464 C466 1.327 . S
C464 H489 0.950 . S
C465 C464 1.349 . S
C465 C481 1.349 . S
C466 C464 1.327 . S
C466 C485 1.429 . S
C466 H490 0.950 1_565 S
C467 C484 1.574 1_556 S
C467 C486 1.368 . S
C467 H491 0.958 . S
H468 C472 0.949 . S
C469 C470 1.349 . S
C469 C471 1.327 . S
C469 H492 0.950 . S
C470 C469 1.349 . S
C470 C482 1.349 . S
C471 C469 1.327 . S
C471 C487 1.429 . S
C471 H493 0.963 1_545 S
C472 H468 0.949 . S
C472 C480 1.574 1_554 S
C472 C488 1.368 . S
H473 C481 0.950 . S
H474 C479 0.963 . S
H475 C480 0.949 . S
H476 C482 0.950 . S
H477 C483 0.950 . S
H478 C484 0.958 . S
C479 H474 0.963 . S
C479 C481 1.327 . S
C479 C485 1.429 . S
C480 C472 1.574 1_556 S
C480 H475 0.949 . S
C480 C486 1.368 1_545 S
C481 C465 1.349 . S
C481 H473 0.950 . S
C481 C479 1.327 . S
C482 C470 1.349 . S
C482 H476 0.950 . S
C482 C483 1.327 . S
C483 H477 0.950 . S
C483 C482 1.327 . S
C483 C487 1.429 . S
C484 C467 1.574 1_554 S
C484 H478 0.958 . S
C484 C488 1.368 1_565 S
C485 C466 1.429 . S
C485 C479 1.429 . S
C485 C486 1.523 . S
C486 C467 1.368 . S
C486 C480 1.368 1_565 S
C486 C485 1.523 . S
C487 C471 1.429 . S
C487 C483 1.429 . S
C487 C488 1.523 . S
C488 C472 1.368 . S
C488 C484 1.368 1_545 S
C488 C487 1.523 . S
H489 C464 0.950 . S
H490 C466 0.950 1_545 S
H491 C467 0.958 . S
H492 C469 0.950 . S
H493 C471 0.963 1_565 S
C494 C495 1.349 . S
C494 C496 1.327 . S
C494 H519 0.950 . S
C495 C494 1.349 . S
C495 C511 1.349 . S
C496 C494 1.327 . S
C496 C515 1.429 . S
C496 H520 0.950 . S
C497 C514 1.574 . S
C497 C516 1.368 . S
C497 H521 0.949 . S
H498 C502 0.949 . S
C499 C500 1.349 . S
C499 C501 1.327 . S
C499 H522 0.950 . S
C500 C499 1.349 . S
C500 C512 1.349 . S
C501 C499 1.327 . S
C501 C517 1.429 . S
C501 H523 0.950 . S
C502 H498 0.949 . S
C502 C510 1.574 . S
C502 C518 1.368 . S
H503 C511 0.950 . S
H504 C509 0.950 . S
H505 C510 0.949 . S
H506 C512 0.950 . S
H507 C513 0.950 . S
H508 C514 0.949 . S
C509 H504 0.950 . S
C509 C511 1.327 . S
C509 C515 1.429 . S
C510 C502 1.574 . S
C510 H505 0.949 . S
C510 C516 1.368 . S
C511 C495 1.349 . S
C511 H503 0.950 . S
C511 C509 1.327 . S
C512 C500 1.349 . S
C512 H506 0.950 . S
C512 C513 1.327 . S
C513 H507 0.950 . S
C513 C512 1.327 . S
C513 C517 1.429 . S
C514 C497 1.574 . S
C514 H508 0.949 . S
C514 C518 1.368 . S
C515 C496 1.429 . S
C515 C509 1.429 . S
C515 C516 1.523 . S
C516 C497 1.368 . S
C516 C510 1.368 . S
C516 C515 1.523 . S
C517 C501 1.429 . S
C517 C513 1.429 . S
C517 C518 1.523 . S
C518 C502 1.368 . S
C518 C514 1.368 . S
C518 C517 1.523 . S
H519 C494 0.950 . S
H520 C496 0.950 . S
H521 C497 0.949 . S
H522 C499 0.950 . S
H523 C501 0.950 . S
C524 C525 1.349 . S
C524 C526 1.327 . S
C524 H549 0.950 . S
C525 C524 1.349 . S
C525 C541 1.349 . S
C526 C524 1.327 . S
C526 C545 1.429 . S
C526 H550 0.950 . S
C527 C544 1.574 1_545 S
C527 C546 1.368 . S
C527 H551 0.949 . S
H528 C532 0.949 . S
C529 C530 1.349 . S
C529 C531 1.327 . S
C529 H552 0.950 . S
C530 C529 1.349 . S
C530 C542 1.349 . S
C531 C529 1.327 . S
C531 C547 1.429 . S
C531 H553 0.950 . S
C532 H528 0.949 . S
C532 C540 1.574 1_565 S
C532 C548 1.368 . S
H533 C541 0.950 . S
H534 C539 0.950 . S
H535 C540 0.949 . S
H536 C542 0.950 . S
H537 C543 0.950 . S
H538 C544 0.949 . S
C539 H534 0.950 . S
C539 C541 1.327 . S
C539 C545 1.429 . S
C540 C532 1.574 1_545 S
C540 H535 0.949 . S
C540 C546 1.368 . S
C541 C525 1.349 . S
C541 H533 0.950 . S
C541 C539 1.327 . S
C542 C530 1.349 . S
C542 H536 0.950 . S
C542 C543 1.327 . S
C543 H537 0.950 . S
C543 C542 1.327 . S
C543 C547 1.429 . S
C544 C527 1.574 1_565 S
C544 H538 0.949 . S
C544 C548 1.368 . S
C545 C526 1.429 . S
C545 C539 1.429 . S
C545 C546 1.523 . S
C546 C527 1.368 . S
C546 C540 1.368 . S
C546 C545 1.523 . S
C547 C531 1.429 . S
C547 C543 1.429 . S
C547 C548 1.523 . S
C548 C532 1.368 . S
C548 C544 1.368 . S
C548 C547 1.523 . S
H549 C524 0.950 . S
H550 C526 0.950 . S
H551 C527 0.949 . S
H552 C529 0.950 . S
H553 C531 0.950 . S
C554 C555 1.349 . S
C554 C556 1.327 . S
C554 H579 0.950 . S
C555 C554 1.349 . S
C555 C571 1.349 . S
C556 C554 1.327 . S
C556 C575 1.429 . S
C556 H580 0.950 . S
C557 C574 1.574 . S
C557 C576 1.368 . S
C557 H581 0.949 . S
H558 C562 0.949 . S
C559 C560 1.349 . S
C559 C561 1.327 . S
C559 H582 0.950 . S
C560 C559 1.349 . S
C560 C572 1.349 . S
C561 C559 1.327 . S
C561 C577 1.429 . S
C561 H583 0.950 . S
C562 H558 0.949 . S
C562 C570 1.574 . S
C562 C578 1.368 . S
H563 C571 0.950 . S
H564 C569 0.950 . S
H565 C570 0.949 . S
H566 C572 0.950 . S
H567 C573 0.950 . S
H568 C574 0.949 . S
C569 H564 0.950 . S
C569 C571 1.327 . S
C569 C575 1.429 . S
C570 C562 1.574 . S
C570 H565 0.949 . S
C570 C576 1.368 . S
C571 C555 1.349 . S
C571 H563 0.950 . S
C571 C569 1.327 . S
C572 C560 1.349 . S
C572 H566 0.950 . S
C572 C573 1.327 . S
C573 H567 0.950 . S
C573 C572 1.327 . S
C573 C577 1.429 . S
C574 C557 1.574 . S
C574 H568 0.949 . S
C574 C578 1.368 . S
C575 C556 1.429 . S
C575 C569 1.429 . S
C575 C576 1.523 . S
C576 C557 1.368 . S
C576 C570 1.368 . S
C576 C575 1.523 . S
C577 C561 1.429 . S
C577 C573 1.429 . S
C577 C578 1.523 . S
C578 C562 1.368 . S
C578 C574 1.368 . S
C578 C577 1.523 . S
H579 C554 0.950 . S
H580 C556 0.950 . S
H581 C557 0.949 . S
H582 C559 0.950 . S
H583 C561 0.950 . S
C584 C585 1.349 . S
C584 C586 1.327 . S
C584 H609 0.950 . S
C585 C584 1.349 . S
C585 C601 1.349 . S
C586 C584 1.327 . S
C586 C605 1.429 . S
C586 H610 0.950 . S
C587 C604 1.574 . S
C587 C606 1.368 . S
C587 H611 0.949 . S
H588 C592 0.949 . S
C589 C590 1.349 . S
C589 C591 1.327 . S
C589 H612 0.950 . S
C590 C589 1.349 . S
C590 C602 1.349 . S
C591 C589 1.327 . S
C591 C607 1.429 . S
C591 H613 0.950 . S
C592 H588 0.949 . S
C592 C600 1.574 . S
C592 C608 1.368 . S
H593 C601 0.950 . S
H594 C599 0.950 . S
H595 C600 0.949 . S
H596 C602 0.950 . S
H597 C603 0.950 . S
H598 C604 0.949 . S
C599 H594 0.950 . S
C599 C601 1.327 . S
C599 C605 1.429 . S
C600 C592 1.574 . S
C600 H595 0.949 . S
C600 C606 1.368 . S
C601 C585 1.349 . S
C601 H593 0.950 . S
C601 C599 1.327 . S
C602 C590 1.349 . S
C602 H596 0.950 . S
C602 C603 1.327 . S
C603 H597 0.950 . S
C603 C602 1.327 . S
C603 C607 1.429 . S
C604 C587 1.574 . S
C604 H598 0.949 . S
C604 C608 1.368 . S
C605 C586 1.429 . S
C605 C599 1.429 . S
C605 C606 1.523 . S
C606 C587 1.368 . S
C606 C600 1.368 . S
C606 C605 1.523 . S
C607 C591 1.429 . S
C607 C603 1.429 . S
C607 C608 1.523 . S
C608 C592 1.368 . S
C608 C604 1.368 . S
C608 C607 1.523 . S
H609 C584 0.950 . S
H610 C586 0.950 . S
H611 C587 0.949 . S
H612 C589 0.950 . S
H613 C591 0.950 . S
C614 C615 1.349 . S
C614 C616 1.327 . S
C614 H639 0.950 . S
C615 C614 1.349 . S
C615 C631 1.349 . S
C616 C614 1.327 . S
C616 C635 1.429 . S
C616 H640 0.950 . S
C617 C634 1.574 . S
C617 C636 1.368 . S
C617 H641 0.949 . S
H618 C622 0.949 . S
C619 C620 1.349 . S
C619 C621 1.327 . S
C619 H642 0.950 . S
C620 C619 1.349 . S
C620 C632 1.349 . S
C621 C619 1.327 . S
C621 C637 1.429 . S
C621 H643 0.950 . S
C622 H618 0.949 . S
C622 C630 1.574 . S
C622 C638 1.368 . S
H623 C631 0.950 . S
H624 C629 0.950 . S
H625 C630 0.949 . S
H626 C632 0.950 . S
H627 C633 0.950 . S
H628 C634 0.949 . S
C629 H624 0.950 . S
C629 C631 1.327 . S
C629 C635 1.429 . S
C630 C622 1.574 . S
C630 H625 0.949 . S
C630 C636 1.368 . S
C631 C615 1.349 . S
C631 H623 0.950 . S
C631 C629 1.327 . S
C632 C620 1.349 . S
C632 H626 0.950 . S
C632 C633 1.327 . S
C633 H627 0.950 . S
C633 C632 1.327 . S
C633 C637 1.429 . S
C634 C617 1.574 . S
C634 H628 0.949 . S
C634 C638 1.368 . S
C635 C616 1.429 . S
C635 C629 1.429 . S
C635 C636 1.523 . S
C636 C617 1.368 . S
C636 C630 1.368 . S
C636 C635 1.523 . S
C637 C621 1.429 . S
C637 C633 1.429 . S
C637 C638 1.523 . S
C638 C622 1.368 . S
C638 C634 1.368 . S
C638 C637 1.523 . S
H639 C614 0.950 . S
H640 C616 0.950 . S
H641 C617 0.949 . S
H642 C619 0.950 . S
H643 C621 0.950 . S
C644 C645 1.349 . S
C644 C646 1.327 . S
C644 H669 0.950 . S
C645 C644 1.349 . S
C645 C661 1.349 . S
C646 C644 1.327 . S
C646 C665 1.429 . S
C646 H670 0.950 . S
C647 C664 1.574 . S
C647 C666 1.368 . S
C647 H671 0.949 . S
H648 C652 0.949 . S
C649 C650 1.349 . S
C649 C651 1.327 . S
C649 H672 0.950 . S
C650 C649 1.349 . S
C650 C662 1.349 . S
C651 C649 1.327 . S
C651 C667 1.429 . S
C651 H673 0.950 . S
C652 H648 0.949 . S
C652 C660 1.574 . S
C652 C668 1.368 . S
H653 C661 0.950 . S
H654 C659 0.950 . S
H655 C660 0.949 . S
H656 C662 0.950 . S
H657 C663 0.950 . S
H658 C664 0.949 . S
C659 H654 0.950 . S
C659 C661 1.327 . S
C659 C665 1.429 . S
C660 C652 1.574 . S
C660 H655 0.949 . S
C660 C666 1.368 . S
C661 C645 1.349 . S
C661 H653 0.950 . S
C661 C659 1.327 . S
C662 C650 1.349 . S
C662 H656 0.950 . S
C662 C663 1.327 . S
C663 H657 0.950 . S
C663 C662 1.327 . S
C663 C667 1.429 . S
C664 C647 1.574 . S
C664 H658 0.949 . S
C664 C668 1.368 . S
C665 C646 1.429 . S
C665 C659 1.429 . S
C665 C666 1.523 . S
C666 C647 1.368 . S
C666 C660 1.368 . S
C666 C665 1.523 . S
C667 C651 1.429 . S
C667 C663 1.429 . S
C667 C668 1.523 . S
C668 C652 1.368 . S
C668 C664 1.368 . S
C668 C667 1.523 . S
H669 C644 0.950 . S
H670 C646 0.950 . S
H671 C647 0.949 . S
H672 C649 0.950 . S
H673 C651 0.950 . S
C674 C675 1.349 . S
C674 C676 1.327 . S
C674 H699 0.950 . S
C675 C674 1.349 . S
C675 C691 1.349 . S
C676 C674 1.327 . S
C676 C695 1.429 . S
C676 H700 0.950 . S
C677 C694 1.574 1_554 S
C677 C696 1.368 . S
C677 H701 0.949 . S
H678 C682 0.949 . S
C679 C680 1.349 . S
C679 C681 1.327 . S
C679 H702 0.950 . S
C680 C679 1.349 . S
C680 C692 1.349 . S
C681 C679 1.327 . S
C681 C697 1.429 . S
C681 H703 0.950 . S
C682 H678 0.949 . S
C682 C690 1.574 1_556 S
C682 C698 1.368 . S
H683 C691 0.950 . S
H684 C689 0.950 . S
H685 C690 0.949 . S
H686 C692 0.950 . S
H687 C693 0.950 . S
H688 C694 0.949 . S
C689 H684 0.950 . S
C689 C691 1.327 . S
C689 C695 1.429 . S
C690 C682 1.574 1_554 S
C690 H685 0.949 . S
C690 C696 1.368 . S
C691 C675 1.349 . S
C691 H683 0.950 . S
C691 C689 1.327 . S
C692 C680 1.349 . S
C692 H686 0.950 . S
C692 C693 1.327 . S
C693 H687 0.950 . S
C693 C692 1.327 . S
C693 C697 1.429 . S
C694 C677 1.574 1_556 S
C694 H688 0.949 . S
C694 C698 1.368 . S
C695 C676 1.429 . S
C695 C689 1.429 . S
C695 C696 1.523 . S
C696 C677 1.368 . S
C696 C690 1.368 . S
C696 C695 1.523 . S
C697 C681 1.429 . S
C697 C693 1.429 . S
C697 C698 1.523 . S
C698 C682 1.368 . S
C698 C694 1.368 . S
C698 C697 1.523 . S
H699 C674 0.950 . S
H700 C676 0.950 . S
H701 C677 0.949 . S
H702 C679 0.950 . S
H703 C681 0.950 . S
C704 C705 1.349 . S
C704 C706 1.327 . S
C704 H729 0.950 . S
C705 C704 1.349 . S
C705 C721 1.349 . S
C706 C704 1.327 . S
C706 C725 1.429 . S
C706 H730 0.950 . S
C707 C724 1.574 . S
C707 C726 1.368 . S
C707 H731 0.949 . S
H708 C712 0.949 . S
C709 C710 1.349 . S
C709 C711 1.327 . S
C709 H732 0.950 . S
C710 C709 1.349 . S
C710 C722 1.349 . S
C711 C709 1.327 . S
C711 C727 1.429 . S
C711 H733 0.950 . S
C712 H708 0.949 . S
C712 C720 1.574 . S
C712 C728 1.368 . S
H713 C721 0.950 . S
H714 C719 0.950 . S
H715 C720 0.949 . S
H716 C722 0.950 . S
H717 C723 0.950 . S
H718 C724 0.949 . S
C719 H714 0.950 . S
C719 C721 1.327 . S
C719 C725 1.429 . S
C720 C712 1.574 . S
C720 H715 0.949 . S
C720 C726 1.368 . S
C721 C705 1.349 . S
C721 H713 0.950 . S
C721 C719 1.327 . S
C722 C710 1.349 . S
C722 H716 0.950 . S
C722 C723 1.327 . S
C723 H717 0.950 . S
C723 C722 1.327 . S
C723 C727 1.429 . S
C724 C707 1.574 . S
C724 H718 0.949 . S
C724 C728 1.368 . S
C725 C706 1.429 . S
C725 C719 1.429 . S
C725 C726 1.523 . S
C726 C707 1.368 . S
C726 C720 1.368 . S
C726 C725 1.523 . S
C727 C711 1.429 . S
C727 C723 1.429 . S
C727 C728 1.523 . S
C728 C712 1.368 . S
C728 C724 1.368 . S
C728 C727 1.523 . S
H729 C704 0.950 . S
H730 C706 0.950 . S
H731 C707 0.949 . S
H732 C709 0.950 . S
H733 C711 0.950 . S
C734 C735 1.349 . S
C734 C736 1.327 . S
C734 H759 0.950 1_565 S
C735 C734 1.349 . S
C735 C751 1.349 . S
C736 C734 1.327 . S
C736 C755 1.429 . S
C736 H760 0.950 . S
C737 C754 1.574 . S
C737 C756 1.368 . S
C737 H761 0.949 . S
H738 C742 0.949 . S
C739 C740 1.349 . S
C739 C741 1.327 . S
C739 H762 0.950 . S
C740 C739 1.349 . S
C740 C752 1.349 . S
C741 C739 1.327 . S
C741 C757 1.429 . S
C741 H763 0.950 . S
C742 H738 0.949 . S
C742 C750 1.574 . S
C742 C758 1.368 . S
H743 C751 0.950 . S
H744 C749 0.950 . S
H745 C750 0.949 . S
H746 C752 0.950 . S
H747 C753 0.950 . S
H748 C754 0.949 . S
C749 H744 0.950 . S
C749 C751 1.327 . S
C749 C755 1.429 . S
C750 C742 1.574 . S
C750 H745 0.949 . S
C750 C756 1.368 . S
C751 C735 1.349 . S
C751 H743 0.950 . S
C751 C749 1.327 . S
C752 C740 1.349 . S
C752 H746 0.950 . S
C752 C753 1.327 . S
C753 H747 0.950 . S
C753 C752 1.327 . S
C753 C757 1.429 . S
C754 C737 1.574 . S
C754 H748 0.949 . S
C754 C758 1.368 . S
C755 C736 1.429 . S
C755 C749 1.429 . S
C755 C756 1.523 . S
C756 C737 1.368 . S
C756 C750 1.368 . S
C756 C755 1.523 . S
C757 C741 1.429 . S
C757 C753 1.429 . S
C757 C758 1.523 . S
C758 C742 1.368 . S
C758 C754 1.368 . S
C758 C757 1.523 . S
H759 C734 0.950 1_545 S
H760 C736 0.950 . S
H761 C737 0.949 . S
H762 C739 0.950 . S
H763 C741 0.950 . S
C764 C765 1.349 . S
C764 C766 1.327 . S
C764 H789 0.950 . S
C765 C764 1.349 . S
C765 C781 1.349 . S
C766 C764 1.327 . S
C766 C785 1.429 . S
C766 H790 0.950 . S
C767 C784 1.574 . S
C767 C786 1.368 . S
C767 H791 0.949 . S
H768 C772 0.949 . S
C769 C770 1.349 . S
C769 C771 1.327 . S
C769 H792 0.950 . S
C770 C769 1.349 . S
C770 C782 1.349 . S
C771 C769 1.327 . S
C771 C787 1.429 . S
C771 H793 0.950 . S
C772 H768 0.949 . S
C772 C780 1.574 . S
C772 C788 1.368 . S
H773 C781 0.950 . S
H774 C779 0.950 . S
H775 C780 0.949 . S
H776 C782 0.950 . S
H777 C783 0.950 . S
H778 C784 0.949 . S
C779 H774 0.950 . S
C779 C781 1.327 . S
C779 C785 1.429 . S
C780 C772 1.574 . S
C780 H775 0.949 . S
C780 C786 1.368 . S
C781 C765 1.349 . S
C781 H773 0.950 . S
C781 C779 1.327 . S
C782 C770 1.349 . S
C782 H776 0.950 . S
C782 C783 1.327 . S
C783 H777 0.950 . S
C783 C782 1.327 . S
C783 C787 1.429 . S
C784 C767 1.574 . S
C784 H778 0.949 . S
C784 C788 1.368 . S
C785 C766 1.429 . S
C785 C779 1.429 . S
C785 C786 1.523 . S
C786 C767 1.368 . S
C786 C780 1.368 . S
C786 C785 1.523 . S
C787 C771 1.429 . S
C787 C783 1.429 . S
C787 C788 1.523 . S
C788 C772 1.368 . S
C788 C784 1.368 . S
C788 C787 1.523 . S
H789 C764 0.950 . S
H790 C766 0.950 . S
H791 C767 0.949 . S
H792 C769 0.950 . S
H793 C771 0.950 . S
C794 C795 1.349 . S
C794 C796 1.327 . S
C794 H819 0.950 . S
C795 C794 1.349 . S
C795 C811 1.349 . S
C796 C794 1.327 . S
C796 C815 1.429 . S
C796 H820 0.950 . S
C797 C814 1.574 . S
C797 C816 1.368 . S
C797 H821 0.949 . S
H798 C802 0.949 . S
C799 C800 1.349 . S
C799 C801 1.327 . S
C799 H822 0.950 1_545 S
C800 C799 1.349 . S
C800 C812 1.349 . S
C801 C799 1.327 . S
C801 C817 1.429 . S
C801 H823 0.950 . S
C802 H798 0.949 . S
C802 C810 1.574 . S
C802 C818 1.368 . S
H803 C811 0.950 . S
H804 C809 0.950 . S
H805 C810 0.949 . S
H806 C812 0.950 . S
H807 C813 0.950 . S
H808 C814 0.949 . S
C809 H804 0.950 . S
C809 C811 1.327 . S
C809 C815 1.429 . S
C810 C802 1.574 . S
C810 H805 0.949 . S
C810 C816 1.368 . S
C811 C795 1.349 . S
C811 H803 0.950 . S
C811 C809 1.327 . S
C812 C800 1.349 . S
C812 H806 0.950 . S
C812 C813 1.327 . S
C813 H807 0.950 . S
C813 C812 1.327 . S
C813 C817 1.429 . S
C814 C797 1.574 . S
C814 H808 0.949 . S
C814 C818 1.368 . S
C815 C796 1.429 . S
C815 C809 1.429 . S
C815 C816 1.523 . S
C816 C797 1.368 . S
C816 C810 1.368 . S
C816 C815 1.523 . S
C817 C801 1.429 . S
C817 C813 1.429 . S
C817 C818 1.523 . S
C818 C802 1.368 . S
C818 C814 1.368 . S
C818 C817 1.523 . S
H819 C794 0.950 . S
H820 C796 0.950 . S
H821 C797 0.949 . S
H822 C799 0.950 1_565 S
H823 C801 0.950 . S
C824 C825 1.349 . S
C824 C826 1.327 . S
C824 H849 0.950 . S
C825 C824 1.349 . S
C825 C841 1.349 . S
C826 C824 1.327 . S
C826 C845 1.429 . S
C826 H850 0.950 . S
C827 C844 1.574 . S
C827 C846 1.368 . S
C827 H851 0.949 . S
H828 C832 0.949 . S
C829 C830 1.349 . S
C829 C831 1.327 . S
C829 H852 0.950 . S
C830 C829 1.349 . S
C830 C842 1.349 . S
C831 C829 1.327 . S
C831 C847 1.429 . S
C831 H853 0.950 . S
C832 H828 0.949 . S
C832 C840 1.574 . S
C832 C848 1.368 . S
H833 C841 0.950 . S
H834 C839 0.950 . S
H835 C840 0.949 . S
H836 C842 0.950 . S
H837 C843 0.950 . S
H838 C844 0.949 . S
C839 H834 0.950 . S
C839 C841 1.327 . S
C839 C845 1.429 . S
C840 C832 1.574 . S
C840 H835 0.949 . S
C840 C846 1.368 . S
C841 C825 1.349 . S
C841 H833 0.950 . S
C841 C839 1.327 . S
C842 C830 1.349 . S
C842 H836 0.950 . S
C842 C843 1.327 . S
C843 H837 0.950 . S
C843 C842 1.327 . S
C843 C847 1.429 . S
C844 C827 1.574 . S
C844 H838 0.949 . S
C844 C848 1.368 . S
C845 C826 1.429 . S
C845 C839 1.429 . S
C845 C846 1.523 . S
C846 C827 1.368 . S
C846 C840 1.368 . S
C846 C845 1.523 . S
C847 C831 1.429 . S
C847 C843 1.429 . S
C847 C848 1.523 . S
C848 C832 1.368 . S
C848 C844 1.368 . S
C848 C847 1.523 . S
H849 C824 0.950 . S
H850 C826 0.950 . S
H851 C827 0.949 . S
H852 C829 0.950 . S
H853 C831 0.950 . S
C854 C855 1.349 . S
C854 C856 1.327 . S
C854 H879 0.950 1_565 S
C855 C854 1.349 . S
C855 C871 1.349 . S
C856 C854 1.327 . S
C856 C875 1.429 . S
C856 H880 0.950 . S
C857 C874 1.574 . S
C857 C876 1.368 . S
C857 H881 0.949 . S
H858 C862 0.949 . S
C859 C860 1.349 . S
C859 C861 1.327 . S
C859 H882 0.950 . S
C860 C859 1.349 . S
C860 C872 1.349 . S
C861 C859 1.327 . S
C861 C877 1.429 . S
C861 H883 0.950 . S
C862 H858 0.949 . S
C862 C870 1.574 . S
C862 C878 1.368 . S
H863 C871 0.950 . S
H864 C869 0.950 . S
H865 C870 0.949 . S
H866 C872 0.950 . S
H867 C873 0.950 . S
H868 C874 0.949 . S
C869 H864 0.950 . S
C869 C871 1.327 . S
C869 C875 1.429 . S
C870 C862 1.574 . S
C870 H865 0.949 . S
C870 C876 1.368 . S
C871 C855 1.349 . S
C871 H863 0.950 . S
C871 C869 1.327 . S
C872 C860 1.349 . S
C872 H866 0.950 . S
C872 C873 1.327 . S
C873 H867 0.950 . S
C873 C872 1.327 . S
C873 C877 1.429 . S
C874 C857 1.574 . S
C874 H868 0.949 . S
C874 C878 1.368 . S
C875 C856 1.429 . S
C875 C869 1.429 . S
C875 C876 1.523 . S
C876 C857 1.368 . S
C876 C870 1.368 . S
C876 C875 1.523 . S
C877 C861 1.429 . S
C877 C873 1.429 . S
C877 C878 1.523 . S
C878 C862 1.368 . S
C878 C874 1.368 . S
C878 C877 1.523 . S
H879 C854 0.950 1_545 S
H880 C856 0.950 . S
H881 C857 0.949 . S
H882 C859 0.950 . S
H883 C861 0.950 . S
C884 C885 1.349 . S
C884 C886 1.327 . S
C884 H909 0.950 . S
C885 C884 1.349 . S
C885 C901 1.349 . S
C886 C884 1.327 . S
C886 C905 1.429 . S
C886 H910 0.950 . S
C887 C904 1.574 . S
C887 C906 1.368 . S
C887 H911 0.949 . S
H888 C892 0.949 . S
C889 C890 1.349 . S
C889 C891 1.327 . S
C889 H912 0.950 . S
C890 C889 1.349 . S
C890 C902 1.349 . S
C891 C889 1.327 . S
C891 C907 1.429 . S
C891 H913 0.950 . S
C892 H888 0.949 . S
C892 C900 1.574 . S
C892 C908 1.368 . S
H893 C901 0.950 . S
H894 C899 0.950 . S
H895 C900 0.949 . S
H896 C902 0.950 . S
H897 C903 0.950 . S
H898 C904 0.949 . S
C899 H894 0.950 . S
C899 C901 1.327 . S
C899 C905 1.429 . S
C900 C892 1.574 . S
C900 H895 0.949 . S
C900 C906 1.368 . S
C901 C885 1.349 . S
C901 H893 0.950 . S
C901 C899 1.327 . S
C902 C890 1.349 . S
C902 H896 0.950 . S
C902 C903 1.327 . S
C903 H897 0.950 . S
C903 C902 1.327 . S
C903 C907 1.429 . S
C904 C887 1.574 . S
C904 H898 0.949 . S
C904 C908 1.368 . S
C905 C886 1.429 . S
C905 C899 1.429 . S
C905 C906 1.523 . S
C906 C887 1.368 . S
C906 C900 1.368 . S
C906 C905 1.523 . S
C907 C891 1.429 . S
C907 C903 1.429 . S
C907 C908 1.523 . S
C908 C892 1.368 . S
C908 C904 1.368 . S
C908 C907 1.523 . S
H909 C884 0.950 . S
H910 C886 0.950 . S
H911 C887 0.949 . S
H912 C889 0.950 . S
H913 C891 0.950 . S
C914 C915 1.349 . S
C914 C916 1.327 . S
C914 H939 0.950 . S
C915 C914 1.349 . S
C915 C931 1.349 . S
C916 C914 1.327 . S
C916 C935 1.429 . S
C916 H940 0.950 . S
C917 C934 1.574 . S
C917 C936 1.368 . S
C917 H941 0.949 . S
H918 C922 0.949 . S
C919 C920 1.349 . S
C919 C921 1.327 . S
C919 H942 0.950 . S
C920 C919 1.349 . S
C920 C932 1.349 . S
C921 C919 1.327 . S
C921 C937 1.429 . S
C921 H943 0.950 . S
C922 H918 0.949 . S
C922 C930 1.574 . S
C922 C938 1.368 . S
H923 C931 0.950 . S
H924 C929 0.950 . S
H925 C930 0.949 . S
H926 C932 0.950 . S
H927 C933 0.950 . S
H928 C934 0.949 . S
C929 H924 0.950 . S
C929 C931 1.327 . S
C929 C935 1.429 . S
C930 C922 1.574 . S
C930 H925 0.949 . S
C930 C936 1.368 . S
C931 C915 1.349 . S
C931 H923 0.950 . S
C931 C929 1.327 . S
C932 C920 1.349 . S
C932 H926 0.950 . S
C932 C933 1.327 . S
C933 H927 0.950 . S
C933 C932 1.327 . S
C933 C937 1.429 . S
C934 C917 1.574 . S
C934 H928 0.949 . S
C934 C938 1.368 . S
C935 C916 1.429 . S
C935 C929 1.429 . S
C935 C936 1.523 . S
C936 C917 1.368 . S
C936 C930 1.368 . S
C936 C935 1.523 . S
C937 C921 1.429 . S
C937 C933 1.429 . S
C937 C938 1.523 . S
C938 C922 1.368 . S
C938 C934 1.368 . S
C938 C937 1.523 . S
H939 C914 0.950 . S
H940 C916 0.950 . S
H941 C917 0.949 . S
H942 C919 0.950 . S
H943 C921 0.950 . S
C944 C945 1.349 . S
C944 C946 1.327 . S
C944 H969 0.950 . S
C945 C944 1.349 . S
C945 C961 1.349 . S
C946 C944 1.327 . S
C946 C965 1.429 . S
C946 H970 0.950 . S
C947 C964 1.574 . S
C947 C966 1.368 . S
C947 H971 0.949 . S
H948 C952 0.949 . S
C949 C950 1.349 . S
C949 C951 1.327 . S
C949 H972 0.950 . S
C950 C949 1.349 . S
C950 C962 1.349 . S
C951 C949 1.327 . S
C951 C967 1.429 . S
C951 H973 0.950 . S
C952 H948 0.949 . S
C952 C960 1.574 . S
C952 C968 1.368 . S
H953 C961 0.950 . S
H954 C959 0.950 . S
H955 C960 0.949 . S
H956 C962 0.950 . S
H957 C963 0.950 . S
H958 C964 0.949 . S
C959 H954 0.950 . S
C959 C961 1.327 . S
C959 C965 1.429 . S
C960 C952 1.574 . S
C960 H955 0.949 . S
C960 C966 1.368 . S
C961 C945 1.349 . S
C961 H953 0.950 . S
C961 C959 1.327 . S
C962 C950 1.349 . S
C962 H956 0.950 . S
C962 C963 1.327 . S
C963 H957 0.950 . S
C963 C962 1.327 . S
C963 C967 1.429 . S
C964 C947 1.574 . S
C964 H958 0.949 . S
C964 C968 1.368 . S
C965 C946 1.429 . S
C965 C959 1.429 . S
C965 C966 1.523 . S
C966 C947 1.368 . S
C966 C960 1.368 . S
C966 C965 1.523 . S
C967 C951 1.429 . S
C967 C963 1.429 . S
C967 C968 1.523 . S
C968 C952 1.368 . S
C968 C964 1.368 . S
C968 C967 1.523 . S
H969 C944 0.950 . S
H970 C946 0.950 . S
H971 C947 0.949 . S
H972 C949 0.950 . S
H973 C951 0.950 . S
C974 C975 1.349 . S
C974 C976 1.327 . S
C974 H999 0.950 . S
C975 C974 1.349 . S
C975 C991 1.349 . S
C976 C974 1.327 . S
C976 C995 1.429 . S
C976 H1000 0.950 . S
C977 C994 1.574 . S
C977 C996 1.368 . S
C977 H1001 0.949 . S
H978 C982 0.949 . S
C979 C980 1.349 1_545 S
C979 C981 1.327 . S
C979 H1002 0.950 . S
C980 C979 1.349 1_565 S
C980 C992 1.349 . S
C981 C979 1.327 . S
C981 C997 1.429 . S
C981 H1003 0.950 . S
C982 H978 0.949 . S
C982 C990 1.574 . S
C982 C998 1.368 . S
H983 C991 0.950 . S
H984 C989 0.950 . S
H985 C990 0.949 . S
H986 C992 0.950 . S
H987 C993 0.950 . S
H988 C994 0.949 . S
C989 H984 0.950 . S
C989 C991 1.327 . S
C989 C995 1.429 . S
C990 C982 1.574 . S
C990 H985 0.949 . S
C990 C996 1.368 . S
C991 C975 1.349 . S
C991 H983 0.950 . S
C991 C989 1.327 . S
C992 C980 1.349 . S
C992 H986 0.950 . S
C992 C993 1.327 . S
C993 H987 0.950 . S
C993 C992 1.327 . S
C993 C997 1.429 1_565 S
C994 C977 1.574 . S
C994 H988 0.949 . S
C994 C998 1.368 . S
C995 C976 1.429 . S
C995 C989 1.429 . S
C995 C996 1.523 . S
C996 C977 1.368 . S
C996 C990 1.368 . S
C996 C995 1.523 . S
C997 C981 1.429 . S
C997 C993 1.429 1_545 S
C997 C998 1.523 . S
C998 C982 1.368 . S
C998 C994 1.368 . S
C998 C997 1.523 . S
H999 C974 0.950 . S
H1000 C976 0.950 . S
H1001 C977 0.949 . S
H1002 C979 0.950 . S
H1003 C981 0.950 . S
C1004 C1005 1.349 . S
C1004 C1006 1.327 . S
C1004 H1029 0.950 . S
C1005 C1004 1.349 . S
C1005 C1021 1.349 . S
C1006 C1004 1.327 . S
C1006 C1025 1.429 . S
C1006 H1030 0.950 . S
C1007 C1024 1.574 . S
C1007 C1026 1.368 . S
C1007 H1031 0.949 . S
H1008 C1012 0.949 . S
C1009 C1010 1.349 . S
C1009 C1011 1.327 . S
C1009 H1032 0.950 . S
C1010 C1009 1.349 . S
C1010 C1022 1.349 . S
C1011 C1009 1.327 . S
C1011 C1027 1.429 . S
C1011 H1033 0.950 . S
C1012 H1008 0.949 . S
C1012 C1020 1.574 . S
C1012 C1028 1.368 . S
H1013 C1021 0.950 . S
H1014 C1019 0.950 . S
H1015 C1020 0.949 . S
H1016 C1022 0.950 . S
H1017 C1023 0.950 . S
H1018 C1024 0.949 . S
C1019 H1014 0.950 . S
C1019 C1021 1.327 . S
C1019 C1025 1.429 . S
C1020 C1012 1.574 . S
C1020 H1015 0.949 . S
C1020 C1026 1.368 . S
C1021 C1005 1.349 . S
C1021 H1013 0.950 . S
C1021 C1019 1.327 . S
C1022 C1010 1.349 . S
C1022 H1016 0.950 . S
C1022 C1023 1.327 . S
C1023 H1017 0.950 . S
C1023 C1022 1.327 . S
C1023 C1027 1.429 . S
C1024 C1007 1.574 . S
C1024 H1018 0.949 . S
C1024 C1028 1.368 . S
C1025 C1006 1.429 . S
C1025 C1019 1.429 . S
C1025 C1026 1.523 . S
C1026 C1007 1.368 . S
C1026 C1020 1.368 . S
C1026 C1025 1.523 . S
C1027 C1011 1.429 . S
C1027 C1023 1.429 . S
C1027 C1028 1.523 . S
C1028 C1012 1.368 . S
C1028 C1024 1.368 . S
C1028 C1027 1.523 . S
H1029 C1004 0.950 . S
H1030 C1006 0.950 . S
H1031 C1007 0.949 . S
H1032 C1009 0.950 . S
H1033 C1011 0.950 . S
C1034 C1035 1.349 . S
C1034 C1036 1.327 . S
C1034 H1059 0.950 . S
C1035 C1034 1.349 . S
C1035 C1051 1.349 . S
C1036 C1034 1.327 . S
C1036 C1055 1.429 . S
C1036 H1060 0.950 . S
C1037 C1054 1.574 . S
C1037 C1056 1.368 . S
C1037 H1061 0.949 . S
H1038 C1042 0.949 . S
C1039 C1040 1.349 1_565 S
C1039 C1041 1.327 . S
C1039 H1062 0.950 . S
C1040 C1039 1.349 1_545 S
C1040 C1052 1.349 . S
C1041 C1039 1.327 . S
C1041 C1057 1.429 . S
C1041 H1063 0.950 . S
C1042 H1038 0.949 . S
C1042 C1050 1.574 . S
C1042 C1058 1.368 . S
H1043 C1051 0.950 . S
H1044 C1049 0.950 . S
H1045 C1050 0.949 . S
H1046 C1052 0.950 . S
H1047 C1053 0.950 . S
H1048 C1054 0.949 . S
C1049 H1044 0.950 . S
C1049 C1051 1.327 . S
C1049 C1055 1.429 . S
C1050 C1042 1.574 . S
C1050 H1045 0.949 . S
C1050 C1056 1.368 . S
C1051 C1035 1.349 . S
C1051 H1043 0.950 . S
C1051 C1049 1.327 . S
C1052 C1040 1.349 . S
C1052 H1046 0.950 . S
C1052 C1053 1.327 . S
C1053 H1047 0.950 . S
C1053 C1052 1.327 . S
C1053 C1057 1.429 1_545 S
C1054 C1037 1.574 . S
C1054 H1048 0.949 . S
C1054 C1058 1.368 . S
C1055 C1036 1.429 . S
C1055 C1049 1.429 . S
C1055 C1056 1.523 . S
C1056 C1037 1.368 . S
C1056 C1050 1.368 . S
C1056 C1055 1.523 . S
C1057 C1041 1.429 . S
C1057 C1053 1.429 1_565 S
C1057 C1058 1.523 . S
C1058 C1042 1.368 . S
C1058 C1054 1.368 . S
C1058 C1057 1.523 . S
H1059 C1034 0.950 . S
H1060 C1036 0.950 . S
H1061 C1037 0.949 . S
H1062 C1039 0.950 . S
H1063 C1041 0.950 . S
C1064 C1065 1.349 . S
C1064 C1066 1.327 . S
C1064 H1089 0.950 . S
C1065 C1064 1.349 . S
C1065 C1081 1.349 . S
C1066 C1064 1.327 . S
C1066 C1085 1.429 . S
C1066 H1090 0.950 . S
C1067 C1084 1.574 . S
C1067 C1086 1.368 . S
C1067 H1091 0.949 . S
H1068 C1072 0.949 . S
C1069 C1070 1.349 . S
C1069 C1071 1.327 . S
C1069 H1092 0.950 . S
C1070 C1069 1.349 . S
C1070 C1082 1.349 . S
C1071 C1069 1.327 . S
C1071 C1087 1.429 . S
C1071 H1093 0.950 . S
C1072 H1068 0.949 . S
C1072 C1080 1.574 . S
C1072 C1088 1.368 . S
H1073 C1081 0.950 . S
H1074 C1079 0.950 . S
H1075 C1080 0.949 . S
H1076 C1082 0.950 . S
H1077 C1083 0.950 . S
H1078 C1084 0.949 . S
C1079 H1074 0.950 . S
C1079 C1081 1.327 . S
C1079 C1085 1.429 . S
C1080 C1072 1.574 . S
C1080 H1075 0.949 . S
C1080 C1086 1.368 . S
C1081 C1065 1.349 . S
C1081 H1073 0.950 . S
C1081 C1079 1.327 . S
C1082 C1070 1.349 . S
C1082 H1076 0.950 . S
C1082 C1083 1.327 . S
C1083 H1077 0.950 . S
C1083 C1082 1.327 . S
C1083 C1087 1.429 . S
C1084 C1067 1.574 . S
C1084 H1078 0.949 . S
C1084 C1088 1.368 . S
C1085 C1066 1.429 . S
C1085 C1079 1.429 . S
C1085 C1086 1.523 . S
C1086 C1067 1.368 . S
C1086 C1080 1.368 . S
C1086 C1085 1.523 . S
C1087 C1071 1.429 . S
C1087 C1083 1.429 . S
C1087 C1088 1.523 . S
C1088 C1072 1.368 . S
C1088 C1084 1.368 . S
C1088 C1087 1.523 . S
H1089 C1064 0.950 . S
H1090 C1066 0.950 . S
H1091 C1067 0.949 . S
H1092 C1069 0.950 . S
H1093 C1071 0.950 . S
C1094 C1095 1.349 1_545 S
C1094 C1096 1.327 . S
C1094 H1119 0.950 . S
C1095 C1094 1.349 1_565 S
C1095 C1111 1.349 . S
C1096 C1094 1.327 . S
C1096 C1115 1.429 . S
C1096 H1120 0.950 . S
C1097 C1114 1.574 . S
C1097 C1116 1.368 . S
C1097 H1121 0.949 . S
H1098 C1102 0.949 . S
C1099 C1100 1.349 . S
C1099 C1101 1.327 . S
C1099 H1122 0.950 . S
C1100 C1099 1.349 . S
C1100 C1112 1.349 . S
C1101 C1099 1.327 . S
C1101 C1117 1.429 . S
C1101 H1123 0.950 . S
C1102 H1098 0.949 . S
C1102 C1110 1.574 . S
C1102 C1118 1.368 . S
H1103 C1111 0.950 . S
H1104 C1109 0.950 . S
H1105 C1110 0.949 . S
H1106 C1112 0.950 . S
H1107 C1113 0.950 . S
H1108 C1114 0.949 . S
C1109 H1104 0.950 . S
C1109 C1111 1.327 . S
C1109 C1115 1.429 1_565 S
C1110 C1102 1.574 . S
C1110 H1105 0.949 . S
C1110 C1116 1.368 . S
C1111 C1095 1.349 . S
C1111 H1103 0.950 . S
C1111 C1109 1.327 . S
C1112 C1100 1.349 . S
C1112 H1106 0.950 . S
C1112 C1113 1.327 . S
C1113 H1107 0.950 . S
C1113 C1112 1.327 . S
C1113 C1117 1.429 . S
C1114 C1097 1.574 . S
C1114 H1108 0.949 . S
C1114 C1118 1.368 . S
C1115 C1096 1.429 . S
C1115 C1109 1.429 1_545 S
C1115 C1116 1.523 . S
C1116 C1097 1.368 . S
C1116 C1110 1.368 . S
C1116 C1115 1.523 . S
C1117 C1101 1.429 . S
C1117 C1113 1.429 . S
C1117 C1118 1.523 . S
C1118 C1102 1.368 . S
C1118 C1114 1.368 . S
C1118 C1117 1.523 . S
H1119 C1094 0.950 . S
H1120 C1096 0.950 . S
H1121 C1097 0.949 . S
H1122 C1099 0.950 . S
H1123 C1101 0.950 . S
C1124 C1125 1.349 . S
C1124 C1126 1.327 . S
C1124 H1149 0.950 . S
C1125 C1124 1.349 . S
C1125 C1141 1.349 . S
C1126 C1124 1.327 . S
C1126 C1145 1.429 . S
C1126 H1150 0.950 . S
C1127 C1144 1.574 . S
C1127 C1146 1.368 . S
C1127 H1151 0.949 . S
H1128 C1132 0.949 . S
C1129 C1130 1.349 . S
C1129 C1131 1.327 . S
C1129 H1152 0.950 . S
C1130 C1129 1.349 . S
C1130 C1142 1.349 . S
C1131 C1129 1.327 . S
C1131 C1147 1.429 . S
C1131 H1153 0.950 . S
C1132 H1128 0.949 . S
C1132 C1140 1.574 . S
C1132 C1148 1.368 . S
H1133 C1141 0.950 . S
H1134 C1139 0.950 . S
H1135 C1140 0.949 . S
H1136 C1142 0.950 . S
H1137 C1143 0.950 . S
H1138 C1144 0.949 . S
C1139 H1134 0.950 . S
C1139 C1141 1.327 . S
C1139 C1145 1.429 . S
C1140 C1132 1.574 . S
C1140 H1135 0.949 . S
C1140 C1146 1.368 . S
C1141 C1125 1.349 . S
C1141 H1133 0.950 . S
C1141 C1139 1.327 . S
C1142 C1130 1.349 . S
C1142 H1136 0.950 . S
C1142 C1143 1.327 . S
C1143 H1137 0.950 . S
C1143 C1142 1.327 . S
C1143 C1147 1.429 . S
C1144 C1127 1.574 . S
C1144 H1138 0.949 . S
C1144 C1148 1.368 . S
C1145 C1126 1.429 . S
C1145 C1139 1.429 . S
C1145 C1146 1.523 . S
C1146 C1127 1.368 . S
C1146 C1140 1.368 . S
C1146 C1145 1.523 . S
C1147 C1131 1.429 . S
C1147 C1143 1.429 . S
C1147 C1148 1.523 . S
C1148 C1132 1.368 . S
C1148 C1144 1.368 . S
C1148 C1147 1.523 . S
H1149 C1124 0.950 . S
H1150 C1126 0.950 . S
H1151 C1127 0.949 . S
H1152 C1129 0.950 . S
H1153 C1131 0.950 . S
C1154 C1155 1.349 1_565 S
C1154 C1156 1.327 . S
C1154 H1179 0.950 . S
C1155 C1154 1.349 1_545 S
C1155 C1171 1.349 . S
C1156 C1154 1.327 . S
C1156 C1175 1.429 . S
C1156 H1180 0.950 . S
C1157 C1174 1.574 . S
C1157 C1176 1.368 . S
C1157 H1181 0.949 . S
H1158 C1162 0.949 . S
C1159 C1160 1.349 . S
C1159 C1161 1.327 . S
C1159 H1182 0.950 . S
C1160 C1159 1.349 . S
C1160 C1172 1.349 . S
C1161 C1159 1.327 . S
C1161 C1177 1.429 . S
C1161 H1183 0.950 . S
C1162 H1158 0.949 . S
C1162 C1170 1.574 . S
C1162 C1178 1.368 . S
H1163 C1171 0.950 . S
H1164 C1169 0.950 . S
H1165 C1170 0.949 . S
H1166 C1172 0.950 . S
H1167 C1173 0.950 . S
H1168 C1174 0.949 . S
C1169 H1164 0.950 . S
C1169 C1171 1.327 . S
C1169 C1175 1.429 1_545 S
C1170 C1162 1.574 . S
C1170 H1165 0.949 . S
C1170 C1176 1.368 . S
C1171 C1155 1.349 . S
C1171 H1163 0.950 . S
C1171 C1169 1.327 . S
C1172 C1160 1.349 . S
C1172 H1166 0.950 . S
C1172 C1173 1.327 . S
C1173 H1167 0.950 . S
C1173 C1172 1.327 . S
C1173 C1177 1.429 . S
C1174 C1157 1.574 . S
C1174 H1168 0.949 . S
C1174 C1178 1.368 . S
C1175 C1156 1.429 . S
C1175 C1169 1.429 1_565 S
C1175 C1176 1.523 . S
C1176 C1157 1.368 . S
C1176 C1170 1.368 . S
C1176 C1175 1.523 . S
C1177 C1161 1.429 . S
C1177 C1173 1.429 . S
C1177 C1178 1.523 . S
C1178 C1162 1.368 . S
C1178 C1174 1.368 . S
C1178 C1177 1.523 . S
H1179 C1154 0.950 . S
H1180 C1156 0.950 . S
H1181 C1157 0.949 . S
H1182 C1159 0.950 . S
H1183 C1161 0.950 . S
C1184 C1185 1.349 . S
C1184 C1186 1.327 . S
C1184 H1209 0.950 . S
C1185 C1184 1.349 . S
C1185 C1201 1.349 . S
C1186 C1184 1.327 . S
C1186 C1205 1.429 . S
C1186 H1210 0.950 . S
C1187 C1204 1.574 . S
C1187 C1206 1.368 . S
C1187 H1211 0.949 . S
H1188 C1192 0.949 . S
C1189 C1190 1.349 . S
C1189 C1191 1.327 . S
C1189 H1212 0.950 . S
C1190 C1189 1.349 . S
C1190 C1202 1.349 . S
C1191 C1189 1.327 . S
C1191 C1207 1.429 . S
C1191 H1213 0.950 . S
C1192 H1188 0.949 . S
C1192 C1200 1.574 . S
C1192 C1208 1.368 . S
H1193 C1201 0.950 . S
H1194 C1199 0.950 . S
H1195 C1200 0.949 . S
H1196 C1202 0.950 . S
H1197 C1203 0.950 . S
H1198 C1204 0.949 . S
C1199 H1194 0.950 . S
C1199 C1201 1.327 . S
C1199 C1205 1.429 . S
C1200 C1192 1.574 . S
C1200 H1195 0.949 . S
C1200 C1206 1.368 . S
C1201 C1185 1.349 . S
C1201 H1193 0.950 . S
C1201 C1199 1.327 . S
C1202 C1190 1.349 . S
C1202 H1196 0.950 . S
C1202 C1203 1.327 . S
C1203 H1197 0.950 . S
C1203 C1202 1.327 . S
C1203 C1207 1.429 . S
C1204 C1187 1.574 . S
C1204 H1198 0.949 . S
C1204 C1208 1.368 . S
C1205 C1186 1.429 . S
C1205 C1199 1.429 . S
C1205 C1206 1.523 . S
C1206 C1187 1.368 . S
C1206 C1200 1.368 . S
C1206 C1205 1.523 . S
C1207 C1191 1.429 . S
C1207 C1203 1.429 . S
C1207 C1208 1.523 . S
C1208 C1192 1.368 . S
C1208 C1204 1.368 . S
C1208 C1207 1.523 . S
H1209 C1184 0.950 . S
H1210 C1186 0.950 . S
H1211 C1187 0.949 . S
H1212 C1189 0.950 . S
H1213 C1191 0.950 . S
C1214 C1215 1.349 . S
C1214 C1216 1.327 . S
C1214 H1239 0.950 . S
C1215 C1214 1.349 . S
C1215 C1231 1.349 . S
C1216 C1214 1.327 . S
C1216 C1235 1.429 . S
C1216 H1240 0.950 . S
C1217 C1234 1.574 . S
C1217 C1236 1.368 . S
C1217 H1241 0.949 . S
H1218 C1222 0.949 . S
C1219 C1220 1.349 . S
C1219 C1221 1.327 . S
C1219 H1242 0.950 . S
C1220 C1219 1.349 . S
C1220 C1232 1.349 . S
C1221 C1219 1.327 . S
C1221 C1237 1.429 . S
C1221 H1243 0.950 . S
C1222 H1218 0.949 . S
C1222 C1230 1.574 . S
C1222 C1238 1.368 . S
H1223 C1231 0.950 . S
H1224 C1229 0.950 . S
H1225 C1230 0.949 . S
H1226 C1232 0.950 . S
H1227 C1233 0.950 . S
H1228 C1234 0.949 . S
C1229 H1224 0.950 . S
C1229 C1231 1.327 . S
C1229 C1235 1.429 . S
C1230 C1222 1.574 . S
C1230 H1225 0.949 . S
C1230 C1236 1.368 . S
C1231 C1215 1.349 . S
C1231 H1223 0.950 . S
C1231 C1229 1.327 . S
C1232 C1220 1.349 . S
C1232 H1226 0.950 . S
C1232 C1233 1.327 . S
C1233 H1227 0.950 . S
C1233 C1232 1.327 . S
C1233 C1237 1.429 . S
C1234 C1217 1.574 . S
C1234 H1228 0.949 . S
C1234 C1238 1.368 . S
C1235 C1216 1.429 . S
C1235 C1229 1.429 . S
C1235 C1236 1.523 . S
C1236 C1217 1.368 . S
C1236 C1230 1.368 . S
C1236 C1235 1.523 . S
C1237 C1221 1.429 . S
C1237 C1233 1.429 . S
C1237 C1238 1.523 . S
C1238 C1222 1.368 . S
C1238 C1234 1.368 . S
C1238 C1237 1.523 . S
H1239 C1214 0.950 . S
H1240 C1216 0.950 . S
H1241 C1217 0.949 . S
H1242 C1219 0.950 . S
H1243 C1221 0.950 . S
C1244 C1245 1.349 . S
C1244 C1246 1.327 . S
C1244 H1269 0.950 . S
C1245 C1244 1.349 . S
C1245 C1261 1.349 . S
C1246 C1244 1.327 . S
C1246 C1265 1.429 . S
C1246 H1270 0.950 . S
C1247 C1264 1.574 . S
C1247 C1266 1.368 . S
C1247 H1271 0.949 . S
H1248 C1252 0.949 . S
C1249 C1250 1.349 . S
C1249 C1251 1.327 . S
C1249 H1272 0.950 . S
C1250 C1249 1.349 . S
C1250 C1262 1.349 . S
C1251 C1249 1.327 . S
C1251 C1267 1.429 . S
C1251 H1273 0.950 . S
C1252 H1248 0.949 . S
C1252 C1260 1.574 . S
C1252 C1268 1.368 . S
H1253 C1261 0.950 . S
H1254 C1259 0.950 . S
H1255 C1260 0.949 . S
H1256 C1262 0.950 . S
H1257 C1263 0.950 . S
H1258 C1264 0.949 . S
C1259 H1254 0.950 . S
C1259 C1261 1.327 . S
C1259 C1265 1.429 . S
C1260 C1252 1.574 . S
C1260 H1255 0.949 . S
C1260 C1266 1.368 . S
C1261 C1245 1.349 . S
C1261 H1253 0.950 . S
C1261 C1259 1.327 . S
C1262 C1250 1.349 . S
C1262 H1256 0.950 . S
C1262 C1263 1.327 . S
C1263 H1257 0.950 . S
C1263 C1262 1.327 . S
C1263 C1267 1.429 . S
C1264 C1247 1.574 . S
C1264 H1258 0.949 . S
C1264 C1268 1.368 . S
C1265 C1246 1.429 . S
C1265 C1259 1.429 . S
C1265 C1266 1.523 . S
C1266 C1247 1.368 . S
C1266 C1260 1.368 . S
C1266 C1265 1.523 . S
C1267 C1251 1.429 . S
C1267 C1263 1.429 . S
C1267 C1268 1.523 . S
C1268 C1252 1.368 . S
C1268 C1264 1.368 . S
C1268 C1267 1.523 . S
H1269 C1244 0.950 . S
H1270 C1246 0.950 . S
H1271 C1247 0.949 . S
H1272 C1249 0.950 . S
H1273 C1251 0.950 . S
C1274 C1275 1.349 . S
C1274 C1276 1.327 . S
C1274 H1299 0.950 . S
C1275 C1274 1.349 . S
C1275 C1291 1.349 . S
C1276 C1274 1.327 . S
C1276 C1295 1.429 . S
C1276 H1300 0.950 . S
C1277 C1294 1.574 . S
C1277 C1296 1.368 . S
C1277 H1301 0.949 . S
H1278 C1282 0.949 . S
C1279 C1280 1.349 . S
C1279 C1281 1.327 . S
C1279 H1302 0.950 . S
C1280 C1279 1.349 . S
C1280 C1292 1.349 . S
C1281 C1279 1.327 . S
C1281 C1297 1.429 . S
C1281 H1303 0.950 . S
C1282 H1278 0.949 . S
C1282 C1290 1.574 . S
C1282 C1298 1.368 . S
H1283 C1291 0.950 . S
H1284 C1289 0.950 . S
H1285 C1290 0.949 . S
H1286 C1292 0.950 . S
H1287 C1293 0.950 . S
H1288 C1294 0.949 . S
C1289 H1284 0.950 . S
C1289 C1291 1.327 . S
C1289 C1295 1.429 . S
C1290 C1282 1.574 . S
C1290 H1285 0.949 . S
C1290 C1296 1.368 . S
C1291 C1275 1.349 . S
C1291 H1283 0.950 . S
C1291 C1289 1.327 . S
C1292 C1280 1.349 . S
C1292 H1286 0.950 . S
C1292 C1293 1.327 . S
C1293 H1287 0.950 . S
C1293 C1292 1.327 . S
C1293 C1297 1.429 . S
C1294 C1277 1.574 . S
C1294 H1288 0.949 . S
C1294 C1298 1.368 . S
C1295 C1276 1.429 . S
C1295 C1289 1.429 . S
C1295 C1296 1.523 . S
C1296 C1277 1.368 . S
C1296 C1290 1.368 . S
C1296 C1295 1.523 . S
C1297 C1281 1.429 . S
C1297 C1293 1.429 . S
C1297 C1298 1.523 . S
C1298 C1282 1.368 . S
C1298 C1294 1.368 . S
C1298 C1297 1.523 . S
H1299 C1274 0.950 . S
H1300 C1276 0.950 . S
H1301 C1277 0.949 . S
H1302 C1279 0.950 . S
H1303 C1281 0.950 . S
C1304 C1305 1.349 . S
C1304 C1306 1.327 . S
C1304 H1329 0.950 . S
C1305 C1304 1.349 . S
C1305 C1321 1.349 . S
C1306 C1304 1.327 . S
C1306 C1325 1.429 . S
C1306 H1330 0.950 . S
C1307 C1324 1.574 . S
C1307 C1326 1.368 . S
C1307 H1331 0.949 . S
H1308 C1312 0.949 . S
C1309 C1310 1.349 . S
C1309 C1311 1.327 . S
C1309 H1332 0.950 . S
C1310 C1309 1.349 . S
C1310 C1322 1.349 . S
C1311 C1309 1.327 . S
C1311 C1327 1.429 . S
C1311 H1333 0.950 . S
C1312 H1308 0.949 . S
C1312 C1320 1.574 . S
C1312 C1328 1.368 . S
H1313 C1321 0.950 . S
H1314 C1319 0.950 . S
H1315 C1320 0.949 . S
H1316 C1322 0.950 . S
H1317 C1323 0.950 . S
H1318 C1324 0.949 . S
C1319 H1314 0.950 . S
C1319 C1321 1.327 . S
C1319 C1325 1.429 . S
C1320 C1312 1.574 . S
C1320 H1315 0.949 . S
C1320 C1326 1.368 . S
C1321 C1305 1.349 . S
C1321 H1313 0.950 . S
C1321 C1319 1.327 . S
C1322 C1310 1.349 . S
C1322 H1316 0.950 . S
C1322 C1323 1.327 . S
C1323 H1317 0.950 . S
C1323 C1322 1.327 . S
C1323 C1327 1.429 . S
C1324 C1307 1.574 . S
C1324 H1318 0.949 . S
C1324 C1328 1.368 . S
C1325 C1306 1.429 . S
C1325 C1319 1.429 . S
C1325 C1326 1.523 . S
C1326 C1307 1.368 . S
C1326 C1320 1.368 . S
C1326 C1325 1.523 . S
C1327 C1311 1.429 . S
C1327 C1323 1.429 . S
C1327 C1328 1.523 . S
C1328 C1312 1.368 . S
C1328 C1324 1.368 . S
C1328 C1327 1.523 . S
H1329 C1304 0.950 . S
H1330 C1306 0.950 . S
H1331 C1307 0.949 . S
H1332 C1309 0.950 . S
H1333 C1311 0.950 . S
C1334 C1335 1.349 . S
C1334 C1336 1.327 . S
C1334 H1359 0.950 1_655 S
C1335 C1334 1.349 . S
C1335 C1351 1.349 . S
C1336 C1334 1.327 . S
C1336 C1355 1.429 . S
C1336 H1360 0.950 . S
C1337 C1354 1.574 . S
C1337 C1356 1.368 . S
C1337 H1361 0.949 . S
H1338 C1342 0.949 . S
C1339 C1340 1.349 . S
C1339 C1341 1.327 . S
C1339 H1362 0.950 . S
C1340 C1339 1.349 . S
C1340 C1352 1.349 . S
C1341 C1339 1.327 . S
C1341 C1357 1.429 . S
C1341 H1363 0.950 . S
C1342 H1338 0.949 . S
C1342 C1350 1.574 . S
C1342 C1358 1.368 . S
H1343 C1351 0.950 . S
H1344 C1349 0.950 . S
H1345 C1350 0.949 . S
H1346 C1352 0.950 . S
H1347 C1353 0.950 . S
H1348 C1354 0.949 . S
C1349 H1344 0.950 . S
C1349 C1351 1.327 . S
C1349 C1355 1.429 . S
C1350 C1342 1.574 . S
C1350 H1345 0.949 . S
C1350 C1356 1.368 . S
C1351 C1335 1.349 . S
C1351 H1343 0.950 . S
C1351 C1349 1.327 . S
C1352 C1340 1.349 . S
C1352 H1346 0.950 . S
C1352 C1353 1.327 . S
C1353 H1347 0.950 . S
C1353 C1352 1.327 . S
C1353 C1357 1.429 . S
C1354 C1337 1.574 . S
C1354 H1348 0.949 . S
C1354 C1358 1.368 . S
C1355 C1336 1.429 . S
C1355 C1349 1.429 . S
C1355 C1356 1.523 . S
C1356 C1337 1.368 . S
C1356 C1350 1.368 . S
C1356 C1355 1.523 . S
C1357 C1341 1.429 . S
C1357 C1353 1.429 . S
C1357 C1358 1.523 . S
C1358 C1342 1.368 . S
C1358 C1354 1.368 . S
C1358 C1357 1.523 . S
H1359 C1334 0.950 1_455 S
H1360 C1336 0.950 . S
H1361 C1337 0.949 . S
H1362 C1339 0.950 . S
H1363 C1341 0.950 . S
C1364 C1365 1.349 . S
C1364 C1366 1.327 . S
C1364 H1389 0.950 . S
C1365 C1364 1.349 . S
C1365 C1381 1.349 . S
C1366 C1364 1.327 . S
C1366 C1385 1.429 . S
C1366 H1390 0.950 . S
C1367 C1384 1.574 . S
C1367 C1386 1.368 . S
C1367 H1391 0.949 . S
H1368 C1372 0.949 . S
C1369 C1370 1.349 . S
C1369 C1371 1.327 . S
C1369 H1392 0.950 . S
C1370 C1369 1.349 . S
C1370 C1382 1.349 . S
C1371 C1369 1.327 . S
C1371 C1387 1.429 . S
C1371 H1393 0.950 . S
C1372 H1368 0.949 . S
C1372 C1380 1.574 . S
C1372 C1388 1.368 . S
H1373 C1381 0.950 . S
H1374 C1379 0.950 . S
H1375 C1380 0.949 . S
H1376 C1382 0.950 . S
H1377 C1383 0.950 . S
H1378 C1384 0.949 . S
C1379 H1374 0.950 . S
C1379 C1381 1.327 . S
C1379 C1385 1.429 . S
C1380 C1372 1.574 . S
C1380 H1375 0.949 . S
C1380 C1386 1.368 . S
C1381 C1365 1.349 . S
C1381 H1373 0.950 . S
C1381 C1379 1.327 . S
C1382 C1370 1.349 . S
C1382 H1376 0.950 . S
C1382 C1383 1.327 . S
C1383 H1377 0.950 . S
C1383 C1382 1.327 . S
C1383 C1387 1.429 . S
C1384 C1367 1.574 . S
C1384 H1378 0.949 . S
C1384 C1388 1.368 . S
C1385 C1366 1.429 . S
C1385 C1379 1.429 . S
C1385 C1386 1.523 . S
C1386 C1367 1.368 . S
C1386 C1380 1.368 . S
C1386 C1385 1.523 . S
C1387 C1371 1.429 . S
C1387 C1383 1.429 . S
C1387 C1388 1.523 . S
C1388 C1372 1.368 . S
C1388 C1384 1.368 . S
C1388 C1387 1.523 . S
H1389 C1364 0.950 . S
H1390 C1366 0.950 . S
H1391 C1367 0.949 . S
H1392 C1369 0.950 . S
H1393 C1371 0.950 . S
C1394 C1395 1.349 . S
C1394 C1396 1.327 . S
C1394 H1419 0.950 . S
C1395 C1394 1.349 . S
C1395 C1411 1.349 . S
C1396 C1394 1.327 . S
C1396 C1415 1.429 . S
C1396 H1420 0.950 . S
C1397 C1414 1.574 . S
C1397 C1416 1.368 . S
C1397 H1421 0.949 . S
H1398 C1402 0.949 . S
C1399 C1400 1.349 . S
C1399 C1401 1.327 . S
C1399 H1422 0.950 . S
C1400 C1399 1.349 . S
C1400 C1412 1.349 . S
C1401 C1399 1.327 . S
C1401 C1417 1.429 . S
C1401 H1423 0.950 . S
C1402 H1398 0.949 . S
C1402 C1410 1.574 . S
C1402 C1418 1.368 . S
H1403 C1411 0.950 . S
H1404 C1409 0.950 . S
H1405 C1410 0.949 . S
H1406 C1412 0.950 . S
H1407 C1413 0.950 . S
H1408 C1414 0.949 . S
C1409 H1404 0.950 . S
C1409 C1411 1.327 . S
C1409 C1415 1.429 . S
C1410 C1402 1.574 . S
C1410 H1405 0.949 . S
C1410 C1416 1.368 . S
C1411 C1395 1.349 . S
C1411 H1403 0.950 . S
C1411 C1409 1.327 . S
C1412 C1400 1.349 . S
C1412 H1406 0.950 . S
C1412 C1413 1.327 . S
C1413 H1407 0.950 . S
C1413 C1412 1.327 . S
C1413 C1417 1.429 . S
C1414 C1397 1.574 . S
C1414 H1408 0.949 . S
C1414 C1418 1.368 . S
C1415 C1396 1.429 . S
C1415 C1409 1.429 . S
C1415 C1416 1.523 . S
C1416 C1397 1.368 . S
C1416 C1410 1.368 . S
C1416 C1415 1.523 . S
C1417 C1401 1.429 . S
C1417 C1413 1.429 . S
C1417 C1418 1.523 . S
C1418 C1402 1.368 . S
C1418 C1414 1.368 . S
C1418 C1417 1.523 . S
H1419 C1394 0.950 . S
H1420 C1396 0.950 . S
H1421 C1397 0.949 . S
H1422 C1399 0.950 . S
H1423 C1401 0.950 . S
C1424 C1425 1.349 . S
C1424 C1426 1.327 . S
C1424 H1449 0.950 . S
C1425 C1424 1.349 . S
C1425 C1441 1.349 . S
C1426 C1424 1.327 . S
C1426 C1445 1.429 . S
C1426 H1450 0.950 . S
C1427 C1444 1.574 . S
C1427 C1446 1.368 . S
C1427 H1451 0.949 . S
H1428 C1432 0.949 . S
C1429 C1430 1.349 . S
C1429 C1431 1.327 . S
C1429 H1452 0.950 . S
C1430 C1429 1.349 . S
C1430 C1442 1.349 . S
C1431 C1429 1.327 . S
C1431 C1447 1.429 . S
C1431 H1453 0.950 . S
C1432 H1428 0.949 . S
C1432 C1440 1.574 . S
C1432 C1448 1.368 . S
H1433 C1441 0.950 . S
H1434 C1439 0.950 . S
H1435 C1440 0.949 . S
H1436 C1442 0.950 . S
H1437 C1443 0.950 . S
H1438 C1444 0.949 . S
C1439 H1434 0.950 . S
C1439 C1441 1.327 . S
C1439 C1445 1.429 . S
C1440 C1432 1.574 . S
C1440 H1435 0.949 . S
C1440 C1446 1.368 . S
C1441 C1425 1.349 . S
C1441 H1433 0.950 . S
C1441 C1439 1.327 . S
C1442 C1430 1.349 . S
C1442 H1436 0.950 . S
C1442 C1443 1.327 . S
C1443 H1437 0.950 . S
C1443 C1442 1.327 . S
C1443 C1447 1.429 . S
C1444 C1427 1.574 . S
C1444 H1438 0.949 . S
C1444 C1448 1.368 . S
C1445 C1426 1.429 . S
C1445 C1439 1.429 . S
C1445 C1446 1.523 . S
C1446 C1427 1.368 . S
C1446 C1440 1.368 . S
C1446 C1445 1.523 . S
C1447 C1431 1.429 . S
C1447 C1443 1.429 . S
C1447 C1448 1.523 . S
C1448 C1432 1.368 . S
C1448 C1444 1.368 . S
C1448 C1447 1.523 . S
H1449 C1424 0.950 . S
H1450 C1426 0.950 . S
H1451 C1427 0.949 . S
H1452 C1429 0.950 . S
H1453 C1431 0.950 . S
C1454 C1455 1.349 . S
C1454 C1456 1.327 . S
C1454 H1479 0.950 . S
C1455 C1454 1.349 . S
C1455 C1471 1.349 . S
C1456 C1454 1.327 . S
C1456 C1475 1.429 . S
C1456 H1480 0.950 . S
C1457 C1474 1.574 . S
C1457 C1476 1.368 . S
C1457 H1481 0.949 . S
H1458 C1462 0.949 . S
C1459 C1460 1.349 . S
C1459 C1461 1.327 . S
C1459 H1482 0.950 . S
C1460 C1459 1.349 . S
C1460 C1472 1.349 . S
C1461 C1459 1.327 . S
C1461 C1477 1.429 . S
C1461 H1483 0.950 . S
C1462 H1458 0.949 . S
C1462 C1470 1.574 . S
C1462 C1478 1.368 . S
H1463 C1471 0.950 . S
H1464 C1469 0.950 . S
H1465 C1470 0.949 . S
H1466 C1472 0.950 . S
H1467 C1473 0.950 . S
H1468 C1474 0.949 . S
C1469 H1464 0.950 . S
C1469 C1471 1.327 . S
C1469 C1475 1.429 . S
C1470 C1462 1.574 . S
C1470 H1465 0.949 . S
C1470 C1476 1.368 . S
C1471 C1455 1.349 . S
C1471 H1463 0.950 . S
C1471 C1469 1.327 . S
C1472 C1460 1.349 . S
C1472 H1466 0.950 . S
C1472 C1473 1.327 . S
C1473 H1467 0.950 . S
C1473 C1472 1.327 . S
C1473 C1477 1.429 . S
C1474 C1457 1.574 . S
C1474 H1468 0.949 . S
C1474 C1478 1.368 . S
C1475 C1456 1.429 . S
C1475 C1469 1.429 . S
C1475 C1476 1.523 . S
C1476 C1457 1.368 . S
C1476 C1470 1.368 . S
C1476 C1475 1.523 . S
C1477 C1461 1.429 . S
C1477 C1473 1.429 . S
C1477 C1478 1.523 . S
C1478 C1462 1.368 . S
C1478 C1474 1.368 . S
C1478 C1477 1.523 . S
H1479 C1454 0.950 . S
H1480 C1456 0.950 . S
H1481 C1457 0.949 . S
H1482 C1459 0.950 . S
H1483 C1461 0.950 . S
C1484 C1485 1.349 . S
C1484 C1486 1.327 . S
C1484 H1509 0.950 . S
C1485 C1484 1.349 . S
C1485 C1501 1.349 . S
C1486 C1484 1.327 . S
C1486 C1505 1.429 . S
C1486 H1510 0.950 . S
C1487 C1504 1.574 . S
C1487 C1506 1.368 . S
C1487 H1511 0.949 . S
H1488 C1492 0.949 . S
C1489 C1490 1.349 . S
C1489 C1491 1.327 . S
C1489 H1512 0.950 . S
C1490 C1489 1.349 . S
C1490 C1502 1.349 . S
C1491 C1489 1.327 . S
C1491 C1507 1.429 . S
C1491 H1513 0.950 . S
C1492 H1488 0.949 . S
C1492 C1500 1.574 . S
C1492 C1508 1.368 . S
H1493 C1501 0.950 . S
H1494 C1499 0.950 . S
H1495 C1500 0.949 . S
H1496 C1502 0.950 . S
H1497 C1503 0.950 . S
H1498 C1504 0.949 . S
C1499 H1494 0.950 . S
C1499 C1501 1.327 . S
C1499 C1505 1.429 . S
C1500 C1492 1.574 . S
C1500 H1495 0.949 . S
C1500 C1506 1.368 . S
C1501 C1485 1.349 . S
C1501 H1493 0.950 . S
C1501 C1499 1.327 . S
C1502 C1490 1.349 . S
C1502 H1496 0.950 . S
C1502 C1503 1.327 . S
C1503 H1497 0.950 . S
C1503 C1502 1.327 . S
C1503 C1507 1.429 . S
C1504 C1487 1.574 . S
C1504 H1498 0.949 . S
C1504 C1508 1.368 . S
C1505 C1486 1.429 . S
C1505 C1499 1.429 . S
C1505 C1506 1.523 . S
C1506 C1487 1.368 . S
C1506 C1500 1.368 . S
C1506 C1505 1.523 . S
C1507 C1491 1.429 . S
C1507 C1503 1.429 . S
C1507 C1508 1.523 . S
C1508 C1492 1.368 . S
C1508 C1504 1.368 . S
C1508 C1507 1.523 . S
H1509 C1484 0.950 . S
H1510 C1486 0.950 . S
H1511 C1487 0.949 . S
H1512 C1489 0.950 . S
H1513 C1491 0.950 . S
C1514 C1515 1.349 . S
C1514 C1516 1.327 . S
C1514 H1539 0.950 . S
C1515 C1514 1.349 . S
C1515 C1531 1.349 . S
C1516 C1514 1.327 . S
C1516 C1535 1.429 . S
C1516 H1540 0.950 . S
C1517 C1534 1.574 . S
C1517 C1536 1.368 . S
C1517 H1541 0.949 . S
H1518 C1522 0.949 . S
C1519 C1520 1.349 . S
C1519 C1521 1.327 . S
C1519 H1542 0.950 . S
C1520 C1519 1.349 . S
C1520 C1532 1.349 . S
C1521 C1519 1.327 . S
C1521 C1537 1.429 . S
C1521 H1543 0.950 . S
C1522 H1518 0.949 . S
C1522 C1530 1.574 . S
C1522 C1538 1.368 . S
H1523 C1531 0.950 . S
H1524 C1529 0.950 . S
H1525 C1530 0.949 . S
H1526 C1532 0.950 . S
H1527 C1533 0.950 . S
H1528 C1534 0.949 . S
C1529 H1524 0.950 . S
C1529 C1531 1.327 . S
C1529 C1535 1.429 . S
C1530 C1522 1.574 . S
C1530 H1525 0.949 . S
C1530 C1536 1.368 . S
C1531 C1515 1.349 . S
C1531 H1523 0.950 . S
C1531 C1529 1.327 . S
C1532 C1520 1.349 . S
C1532 H1526 0.950 . S
C1532 C1533 1.327 . S
C1533 H1527 0.950 . S
C1533 C1532 1.327 . S
C1533 C1537 1.429 . S
C1534 C1517 1.574 . S
C1534 H1528 0.949 . S
C1534 C1538 1.368 . S
C1535 C1516 1.429 . S
C1535 C1529 1.429 . S
C1535 C1536 1.523 . S
C1536 C1517 1.368 . S
C1536 C1530 1.368 . S
C1536 C1535 1.523 . S
C1537 C1521 1.429 . S
C1537 C1533 1.429 . S
C1537 C1538 1.523 . S
C1538 C1522 1.368 . S
C1538 C1534 1.368 . S
C1538 C1537 1.523 . S
H1539 C1514 0.950 . S
H1540 C1516 0.950 . S
H1541 C1517 0.949 . S
H1542 C1519 0.950 . S
H1543 C1521 0.950 . S
C1544 C1545 1.349 . S
C1544 C1546 1.327 . S
C1544 H1569 0.950 . S
C1545 C1544 1.349 . S
C1545 C1561 1.349 . S
C1546 C1544 1.327 . S
C1546 C1565 1.429 . S
C1546 H1570 0.950 . S
C1547 C1564 1.574 . S
C1547 C1566 1.368 . S
C1547 H1571 0.949 . S
H1548 C1552 0.949 . S
C1549 C1550 1.349 . S
C1549 C1551 1.327 . S
C1549 H1572 0.950 . S
C1550 C1549 1.349 . S
C1550 C1562 1.349 . S
C1551 C1549 1.327 . S
C1551 C1567 1.429 . S
C1551 H1573 0.950 . S
C1552 H1548 0.949 . S
C1552 C1560 1.574 . S
C1552 C1568 1.368 . S
H1553 C1561 0.950 . S
H1554 C1559 0.950 . S
H1555 C1560 0.949 . S
H1556 C1562 0.950 . S
H1557 C1563 0.950 . S
H1558 C1564 0.949 . S
C1559 H1554 0.950 . S
C1559 C1561 1.327 . S
C1559 C1565 1.429 . S
C1560 C1552 1.574 . S
C1560 H1555 0.949 . S
C1560 C1566 1.368 . S
C1561 C1545 1.349 . S
C1561 H1553 0.950 . S
C1561 C1559 1.327 . S
C1562 C1550 1.349 . S
C1562 H1556 0.950 . S
C1562 C1563 1.327 . S
C1563 H1557 0.950 . S
C1563 C1562 1.327 . S
C1563 C1567 1.429 . S
C1564 C1547 1.574 . S
C1564 H1558 0.949 . S
C1564 C1568 1.368 . S
C1565 C1546 1.429 . S
C1565 C1559 1.429 . S
C1565 C1566 1.523 . S
C1566 C1547 1.368 . S
C1566 C1560 1.368 . S
C1566 C1565 1.523 . S
C1567 C1551 1.429 . S
C1567 C1563 1.429 . S
C1567 C1568 1.523 . S
C1568 C1552 1.368 . S
C1568 C1564 1.368 . S
C1568 C1567 1.523 . S
H1569 C1544 0.950 . S
H1570 C1546 0.950 . S
H1571 C1547 0.949 . S
H1572 C1549 0.950 . S
H1573 C1551 0.950 . S
C1574 C1575 1.349 . S
C1574 C1576 1.327 . S
C1574 H1599 0.950 . S
C1575 C1574 1.349 . S
C1575 C1591 1.349 . S
C1576 C1574 1.327 . S
C1576 C1595 1.429 . S
C1576 H1600 0.950 . S
C1577 C1594 1.574 . S
C1577 C1596 1.368 . S
C1577 H1601 0.949 . S
H1578 C1582 0.949 . S
C1579 C1580 1.349 . S
C1579 C1581 1.327 . S
C1579 H1602 0.950 . S
C1580 C1579 1.349 . S
C1580 C1592 1.349 . S
C1581 C1579 1.327 . S
C1581 C1597 1.429 . S
C1581 H1603 0.950 . S
C1582 H1578 0.949 . S
C1582 C1590 1.574 . S
C1582 C1598 1.368 . S
H1583 C1591 0.950 . S
H1584 C1589 0.950 . S
H1585 C1590 0.949 . S
H1586 C1592 0.950 . S
H1587 C1593 0.950 . S
H1588 C1594 0.949 . S
C1589 H1584 0.950 . S
C1589 C1591 1.327 . S
C1589 C1595 1.429 . S
C1590 C1582 1.574 . S
C1590 H1585 0.949 . S
C1590 C1596 1.368 . S
C1591 C1575 1.349 . S
C1591 H1583 0.950 . S
C1591 C1589 1.327 . S
C1592 C1580 1.349 . S
C1592 H1586 0.950 . S
C1592 C1593 1.327 . S
C1593 H1587 0.950 . S
C1593 C1592 1.327 . S
C1593 C1597 1.429 . S
C1594 C1577 1.574 . S
C1594 H1588 0.949 . S
C1594 C1598 1.368 . S
C1595 C1576 1.429 . S
C1595 C1589 1.429 . S
C1595 C1596 1.523 . S
C1596 C1577 1.368 . S
C1596 C1590 1.368 . S
C1596 C1595 1.523 . S
C1597 C1581 1.429 . S
C1597 C1593 1.429 . S
C1597 C1598 1.523 . S
C1598 C1582 1.368 . S
C1598 C1594 1.368 . S
C1598 C1597 1.523 . S
H1599 C1574 0.950 . S
H1600 C1576 0.950 . S
H1601 C1577 0.949 . S
H1602 C1579 0.950 . S
H1603 C1581 0.950 . S
C1604 C1605 1.349 . S
C1604 C1606 1.327 . S
C1604 H1629 0.950 . S
C1605 C1604 1.349 . S
C1605 C1621 1.349 . S
C1606 C1604 1.327 . S
C1606 C1625 1.429 . S
C1606 H1630 0.950 . S
C1607 C1624 1.574 . S
C1607 C1626 1.368 . S
C1607 H1631 0.949 . S
H1608 C1612 0.949 . S
C1609 C1610 1.349 . S
C1609 C1611 1.327 . S
C1609 H1632 0.950 . S
C1610 C1609 1.349 . S
C1610 C1622 1.349 . S
C1611 C1609 1.327 . S
C1611 C1627 1.429 . S
C1611 H1633 0.950 . S
C1612 H1608 0.949 . S
C1612 C1620 1.574 . S
C1612 C1628 1.368 . S
H1613 C1621 0.950 . S
H1614 C1619 0.950 . S
H1615 C1620 0.949 . S
H1616 C1622 0.950 . S
H1617 C1623 0.950 . S
H1618 C1624 0.949 . S
C1619 H1614 0.950 . S
C1619 C1621 1.327 . S
C1619 C1625 1.429 . S
C1620 C1612 1.574 . S
C1620 H1615 0.949 . S
C1620 C1626 1.368 . S
C1621 C1605 1.349 . S
C1621 H1613 0.950 . S
C1621 C1619 1.327 . S
C1622 C1610 1.349 . S
C1622 H1616 0.950 . S
C1622 C1623 1.327 . S
C1623 H1617 0.950 . S
C1623 C1622 1.327 . S
C1623 C1627 1.429 . S
C1624 C1607 1.574 . S
C1624 H1618 0.949 . S
C1624 C1628 1.368 . S
C1625 C1606 1.429 . S
C1625 C1619 1.429 . S
C1625 C1626 1.523 . S
C1626 C1607 1.368 . S
C1626 C1620 1.368 . S
C1626 C1625 1.523 . S
C1627 C1611 1.429 . S
C1627 C1623 1.429 . S
C1627 C1628 1.523 . S
C1628 C1612 1.368 . S
C1628 C1624 1.368 . S
C1628 C1627 1.523 . S
H1629 C1604 0.950 . S
H1630 C1606 0.950 . S
H1631 C1607 0.949 . S
H1632 C1609 0.950 . S
H1633 C1611 0.950 . S
C1634 C1635 1.349 . S
C1634 C1636 1.327 . S
C1634 H1659 0.950 . S
C1635 C1634 1.349 . S
C1635 C1651 1.349 . S
C1636 C1634 1.327 . S
C1636 C1655 1.429 . S
C1636 H1660 0.950 . S
C1637 C1654 1.574 . S
C1637 C1656 1.368 . S
C1637 H1661 0.949 . S
H1638 C1642 0.949 . S
C1639 C1640 1.349 . S
C1639 C1641 1.327 . S
C1639 H1662 0.950 . S
C1640 C1639 1.349 . S
C1640 C1652 1.349 . S
C1641 C1639 1.327 . S
C1641 C1657 1.429 . S
C1641 H1663 0.950 . S
C1642 H1638 0.949 . S
C1642 C1650 1.574 . S
C1642 C1658 1.368 . S
H1643 C1651 0.950 . S
H1644 C1649 0.950 . S
H1645 C1650 0.949 . S
H1646 C1652 0.950 . S
H1647 C1653 0.950 . S
H1648 C1654 0.949 . S
C1649 H1644 0.950 . S
C1649 C1651 1.327 . S
C1649 C1655 1.429 . S
C1650 C1642 1.574 . S
C1650 H1645 0.949 . S
C1650 C1656 1.368 . S
C1651 C1635 1.349 . S
C1651 H1643 0.950 . S
C1651 C1649 1.327 . S
C1652 C1640 1.349 . S
C1652 H1646 0.950 . S
C1652 C1653 1.327 . S
C1653 H1647 0.950 . S
C1653 C1652 1.327 . S
C1653 C1657 1.429 . S
C1654 C1637 1.574 . S
C1654 H1648 0.949 . S
C1654 C1658 1.368 . S
C1655 C1636 1.429 . S
C1655 C1649 1.429 . S
C1655 C1656 1.523 . S
C1656 C1637 1.368 . S
C1656 C1650 1.368 . S
C1656 C1655 1.523 . S
C1657 C1641 1.429 . S
C1657 C1653 1.429 . S
C1657 C1658 1.523 . S
C1658 C1642 1.368 . S
C1658 C1654 1.368 . S
C1658 C1657 1.523 . S
H1659 C1634 0.950 . S
H1660 C1636 0.950 . S
H1661 C1637 0.949 . S
H1662 C1639 0.950 . S
H1663 C1641 0.950 . S
C1664 C1665 1.349 . S
C1664 C1666 1.327 . S
C1664 H1689 0.950 . S
C1665 C1664 1.349 . S
C1665 C1681 1.349 . S
C1666 C1664 1.327 . S
C1666 C1685 1.429 . S
C1666 H1690 0.950 . S
C1667 C1684 1.574 . S
C1667 C1686 1.368 . S
C1667 H1691 0.949 . S
H1668 C1672 0.949 . S
C1669 C1670 1.349 1_565 S
C1669 C1671 1.327 . S
C1669 H1692 0.950 . S
C1670 C1669 1.349 1_545 S
C1670 C1682 1.349 . S
C1671 C1669 1.327 . S
C1671 C1687 1.429 . S
C1671 H1693 0.950 . S
C1672 H1668 0.949 . S
C1672 C1680 1.574 . S
C1672 C1688 1.368 . S
H1673 C1681 0.950 . S
H1674 C1679 0.950 . S
H1675 C1680 0.949 . S
H1676 C1682 0.950 . S
H1677 C1683 0.941 1_545 S
H1678 C1684 0.949 . S
C1679 H1674 0.950 . S
C1679 C1681 1.327 . S
C1679 C1685 1.429 . S
C1680 C1672 1.574 . S
C1680 H1675 0.949 . S
C1680 C1686 1.368 . S
C1681 C1665 1.349 . S
C1681 H1673 0.950 . S
C1681 C1679 1.327 . S
C1682 C1670 1.349 . S
C1682 H1676 0.950 . S
C1682 C1683 1.311 1_545 S
C1683 H1677 0.941 1_565 S
C1683 C1682 1.311 1_565 S
C1683 C1687 1.453 . S
C1684 C1667 1.574 . S
C1684 H1678 0.949 . S
C1684 C1688 1.368 . S
C1685 C1666 1.429 . S
C1685 C1679 1.429 . S
C1685 C1686 1.523 . S
C1686 C1667 1.368 . S
C1686 C1680 1.368 . S
C1686 C1685 1.523 . S
C1687 C1671 1.429 . S
C1687 C1683 1.453 . S
C1687 C1688 1.523 . S
C1688 C1672 1.368 . S
C1688 C1684 1.368 . S
C1688 C1687 1.523 . S
H1689 C1664 0.950 . S
H1690 C1666 0.950 . S
H1691 C1667 0.949 . S
H1692 C1669 0.950 . S
H1693 C1671 0.950 . S
C1694 C1695 1.349 1_565 S
C1694 C1696 1.327 . S
C1694 H1719 0.950 . S
C1695 C1694 1.349 1_545 S
C1695 C1711 1.349 . S
C1696 C1694 1.327 . S
C1696 C1715 1.429 . S
C1696 H1720 0.950 . S
C1697 C1714 1.574 . S
C1697 C1716 1.368 . S
C1697 H1721 0.949 . S
H1698 C1702 0.949 . S
C1699 C1700 1.349 . S
C1699 C1701 1.327 . S
C1699 H1722 0.950 . S
C1700 C1699 1.349 . S
C1700 C1712 1.349 . S
C1701 C1699 1.327 . S
C1701 C1717 1.429 . S
C1701 H1723 0.950 . S
C1702 H1698 0.949 . S
C1702 C1710 1.574 . S
C1702 C1718 1.368 . S
H1703 C1711 0.950 . S
H1704 C1709 0.950 . S
H1705 C1710 0.949 . S
H1706 C1712 0.950 . S
H1707 C1713 0.950 . S
H1708 C1714 0.949 . S
C1709 H1704 0.950 . S
C1709 C1711 1.328 . S
C1709 C1715 1.427 1_545 S
C1710 C1702 1.574 . S
C1710 H1705 0.949 . S
C1710 C1716 1.368 . S
C1711 C1695 1.349 . S
C1711 H1703 0.950 . S
C1711 C1709 1.328 . S
C1712 C1700 1.349 . S
C1712 H1706 0.950 . S
C1712 C1713 1.327 . S
C1713 H1707 0.950 . S
C1713 C1712 1.327 . S
C1713 C1717 1.429 . S
C1714 C1697 1.574 . S
C1714 H1708 0.949 . S
C1714 C1718 1.368 . S
C1715 C1696 1.429 . S
C1715 C1709 1.427 1_565 S
C1715 C1716 1.523 . S
C1716 C1697 1.368 . S
C1716 C1710 1.368 . S
C1716 C1715 1.523 . S
C1717 C1701 1.429 . S
C1717 C1713 1.429 . S
C1717 C1718 1.523 . S
C1718 C1702 1.368 . S
C1718 C1714 1.368 . S
C1718 C1717 1.523 . S
H1719 C1694 0.950 . S
H1720 C1696 0.950 . S
H1721 C1697 0.949 . S
H1722 C1699 0.950 . S
H1723 C1701 0.950 . S
C1724 C1725 1.349 . S
C1724 C1726 1.327 . S
C1724 H1749 0.950 . S
C1725 C1724 1.349 . S
C1725 C1741 1.349 . S
C1726 C1724 1.327 . S
C1726 C1745 1.429 . S
C1726 H1750 0.950 . S
C1727 C1744 1.574 . S
C1727 C1746 1.368 . S
C1727 H1751 0.949 . S
H1728 C1732 0.949 . S
C1729 C1730 1.349 1_545 S
C1729 C1731 1.327 . S
C1729 H1752 0.950 . S
C1730 C1729 1.349 1_565 S
C1730 C1742 1.349 . S
C1731 C1729 1.327 . S
C1731 C1747 1.429 . S
C1731 H1753 0.950 . S
C1732 H1728 0.949 . S
C1732 C1740 1.574 . S
C1732 C1748 1.368 . S
H1733 C1741 0.950 . S
H1734 C1739 0.950 . S
H1735 C1740 0.949 . S
H1736 C1742 0.950 . S
H1737 C1743 0.950 . S
H1738 C1744 0.949 . S
C1739 H1734 0.950 . S
C1739 C1741 1.327 . S
C1739 C1745 1.429 . S
C1740 C1732 1.574 . S
C1740 H1735 0.949 . S
C1740 C1746 1.368 . S
C1741 C1725 1.349 . S
C1741 H1733 0.950 . S
C1741 C1739 1.327 . S
C1742 C1730 1.349 . S
C1742 H1736 0.950 . S
C1742 C1743 1.327 1_565 S
C1743 H1737 0.950 . S
C1743 C1742 1.327 1_545 S
C1743 C1747 1.429 . S
C1744 C1727 1.574 . S
C1744 H1738 0.949 . S
C1744 C1748 1.368 . S
C1745 C1726 1.429 . S
C1745 C1739 1.429 . S
C1745 C1746 1.523 . S
C1746 C1727 1.368 . S
C1746 C1740 1.368 . S
C1746 C1745 1.523 . S
C1747 C1731 1.429 . S
C1747 C1743 1.429 . S
C1747 C1748 1.523 . S
C1748 C1732 1.368 . S
C1748 C1744 1.368 . S
C1748 C1747 1.523 . S
H1749 C1724 0.950 . S
H1750 C1726 0.950 . S
H1751 C1727 0.949 . S
H1752 C1729 0.950 . S
H1753 C1731 0.950 . S
C1754 C1755 1.349 . S
C1754 C1756 1.327 . S
C1754 H1779 0.950 . S
C1755 C1754 1.349 . S
C1755 C1771 1.349 . S
C1756 C1754 1.327 . S
C1756 C1775 1.429 . S
C1756 H1780 0.950 . S
C1757 C1774 1.574 . S
C1757 C1776 1.368 . S
C1757 H1781 0.949 . S
H1758 C1762 0.949 . S
C1759 C1760 1.349 1_545 S
C1759 C1761 1.327 . S
C1759 H1782 0.950 . S
C1760 C1759 1.349 1_565 S
C1760 C1772 1.349 . S
C1761 C1759 1.327 . S
C1761 C1777 1.429 . S
C1761 H1783 0.950 . S
C1762 H1758 0.949 . S
C1762 C1770 1.574 . S
C1762 C1778 1.368 . S
H1763 C1771 0.950 . S
H1764 C1769 0.950 . S
H1765 C1770 0.949 . S
H1766 C1772 0.950 . S
H1767 C1773 0.950 . S
H1768 C1774 0.949 . S
C1769 H1764 0.950 . S
C1769 C1771 1.327 . S
C1769 C1775 1.429 . S
C1770 C1762 1.574 . S
C1770 H1765 0.949 . S
C1770 C1776 1.368 . S
C1771 C1755 1.349 . S
C1771 H1763 0.950 . S
C1771 C1769 1.327 . S
C1772 C1760 1.349 . S
C1772 H1766 0.950 . S
C1772 C1773 1.327 1_565 S
C1773 H1767 0.950 . S
C1773 C1772 1.327 1_545 S
C1773 C1777 1.429 . S
C1774 C1757 1.574 . S
C1774 H1768 0.949 . S
C1774 C1778 1.368 . S
C1775 C1756 1.429 . S
C1775 C1769 1.429 . S
C1775 C1776 1.523 . S
C1776 C1757 1.368 . S
C1776 C1770 1.368 . S
C1776 C1775 1.523 . S
C1777 C1761 1.429 . S
C1777 C1773 1.429 . S
C1777 C1778 1.523 . S
C1778 C1762 1.368 . S
C1778 C1774 1.368 . S
C1778 C1777 1.523 . S
H1779 C1754 0.950 . S
H1780 C1756 0.950 . S
H1781 C1757 0.949 . S
H1782 C1759 0.950 . S
H1783 C1761 0.950 . S
C1784 C1785 1.349 . S
C1784 C1786 1.327 . S
C1784 H1809 0.950 . S
C1785 C1784 1.349 . S
C1785 C1801 1.349 . S
C1786 C1784 1.327 . S
C1786 C1805 1.429 . S
C1786 H1810 0.950 . S
C1787 C1804 1.574 . S
C1787 C1806 1.368 . S
C1787 H1811 0.949 . S
H1788 C1792 0.949 . S
C1789 C1790 1.349 . S
C1789 C1791 1.327 . S
C1789 H1812 0.950 . S
C1790 C1789 1.349 . S
C1790 C1802 1.349 . S
C1791 C1789 1.327 . S
C1791 C1807 1.429 . S
C1791 H1813 0.950 . S
C1792 H1788 0.949 . S
C1792 C1800 1.574 . S
C1792 C1808 1.368 . S
H1793 C1801 0.950 . S
H1794 C1799 0.950 . S
H1795 C1800 0.949 . S
H1796 C1802 0.950 . S
H1797 C1803 0.950 . S
H1798 C1804 0.949 . S
C1799 H1794 0.950 . S
C1799 C1801 1.327 . S
C1799 C1805 1.429 . S
C1800 C1792 1.574 . S
C1800 H1795 0.949 . S
C1800 C1806 1.368 . S
C1801 C1785 1.349 . S
C1801 H1793 0.950 . S
C1801 C1799 1.327 . S
C1802 C1790 1.349 . S
C1802 H1796 0.950 . S
C1802 C1803 1.327 . S
C1803 H1797 0.950 . S
C1803 C1802 1.327 . S
C1803 C1807 1.429 . S
C1804 C1787 1.574 . S
C1804 H1798 0.949 . S
C1804 C1808 1.368 . S
C1805 C1786 1.429 . S
C1805 C1799 1.429 . S
C1805 C1806 1.523 . S
C1806 C1787 1.368 . S
C1806 C1800 1.368 . S
C1806 C1805 1.523 . S
C1807 C1791 1.429 . S
C1807 C1803 1.429 . S
C1807 C1808 1.523 . S
C1808 C1792 1.368 . S
C1808 C1804 1.368 . S
C1808 C1807 1.523 . S
H1809 C1784 0.950 . S
H1810 C1786 0.950 . S
H1811 C1787 0.949 . S
H1812 C1789 0.950 . S
H1813 C1791 0.950 . S
C1814 C1815 1.349 . S
C1814 C1816 1.327 . S
C1814 H1839 0.950 . S
C1815 C1814 1.349 . S
C1815 C1831 1.349 . S
C1816 C1814 1.327 . S
C1816 C1835 1.429 . S
C1816 H1840 0.950 . S
C1817 C1834 1.574 . S
C1817 C1836 1.368 . S
C1817 H1841 0.949 . S
H1818 C1822 0.949 . S
C1819 C1820 1.349 . S
C1819 C1821 1.327 . S
C1819 H1842 0.950 . S
C1820 C1819 1.349 . S
C1820 C1832 1.349 . S
C1821 C1819 1.327 . S
C1821 C1837 1.429 . S
C1821 H1843 0.950 . S
C1822 H1818 0.949 . S
C1822 C1830 1.574 . S
C1822 C1838 1.368 . S
H1823 C1831 0.950 . S
H1824 C1829 0.950 . S
H1825 C1830 0.949 . S
H1826 C1832 0.950 1_565 S
H1827 C1833 0.950 . S
H1828 C1834 0.949 . S
C1829 H1824 0.950 . S
C1829 C1831 1.327 . S
C1829 C1835 1.429 . S
C1830 C1822 1.574 . S
C1830 H1825 0.949 . S
C1830 C1836 1.368 . S
C1831 C1815 1.349 . S
C1831 H1823 0.950 . S
C1831 C1829 1.327 . S
C1832 C1820 1.349 . S
C1832 H1826 0.950 1_545 S
C1832 C1833 1.327 . S
C1833 H1827 0.950 . S
C1833 C1832 1.327 . S
C1833 C1837 1.429 . S
C1834 C1817 1.574 . S
C1834 H1828 0.949 . S
C1834 C1838 1.368 . S
C1835 C1816 1.429 . S
C1835 C1829 1.429 . S
C1835 C1836 1.523 . S
C1836 C1817 1.368 . S
C1836 C1830 1.368 . S
C1836 C1835 1.523 . S
C1837 C1821 1.429 . S
C1837 C1833 1.429 . S
C1837 C1838 1.523 . S
C1838 C1822 1.368 . S
C1838 C1834 1.368 . S
C1838 C1837 1.523 . S
H1839 C1814 0.950 . S
H1840 C1816 0.950 . S
H1841 C1817 0.949 . S
H1842 C1819 0.950 . S
H1843 C1821 0.950 . S
C1844 C1845 1.349 . S
C1844 C1846 1.327 . S
C1844 H1869 0.950 . S
C1845 C1844 1.349 . S
C1845 C1861 1.349 . S
C1846 C1844 1.327 . S
C1846 C1865 1.429 . S
C1846 H1870 0.950 . S
C1847 C1864 1.574 . S
C1847 C1866 1.368 . S
C1847 H1871 0.949 . S
H1848 C1852 0.949 . S
C1849 C1850 1.349 . S
C1849 C1851 1.327 . S
C1849 H1872 0.950 . S
C1850 C1849 1.349 . S
C1850 C1862 1.352 . S
C1851 C1849 1.327 . S
C1851 C1867 1.429 . S
C1851 H1873 0.950 . S
C1852 H1848 0.949 . S
C1852 C1860 1.574 . S
C1852 C1868 1.368 . S
H1853 C1861 0.950 . S
H1854 C1859 0.950 . S
H1855 C1860 0.949 . S
H1856 C1862 0.940 1_545 S
H1857 C1863 0.950 . S
H1858 C1864 0.949 . S
C1859 H1854 0.950 . S
C1859 C1861 1.327 . S
C1859 C1865 1.429 . S
C1860 C1852 1.574 . S
C1860 H1855 0.949 . S
C1860 C1866 1.368 . S
C1861 C1845 1.349 . S
C1861 H1853 0.950 . S
C1861 C1859 1.327 . S
C1862 C1850 1.352 . S
C1862 H1856 0.940 1_565 S
C1862 C1863 1.333 . S
C1863 H1857 0.950 . S
C1863 C1862 1.333 . S
C1863 C1867 1.429 . S
C1864 C1847 1.574 . S
C1864 H1858 0.949 . S
C1864 C1868 1.368 . S
C1865 C1846 1.429 . S
C1865 C1859 1.429 . S
C1865 C1866 1.523 . S
C1866 C1847 1.368 . S
C1866 C1860 1.368 . S
C1866 C1865 1.523 . S
C1867 C1851 1.429 . S
C1867 C1863 1.429 . S
C1867 C1868 1.523 . S
C1868 C1852 1.368 . S
C1868 C1864 1.368 . S
C1868 C1867 1.523 . S
H1869 C1844 0.950 . S
H1870 C1846 0.950 . S
H1871 C1847 0.949 . S
H1872 C1849 0.950 . S
H1873 C1851 0.950 . S
C1874 C1875 1.349 . S
C1874 C1876 1.327 . S
C1874 H1899 0.950 . S
C1875 C1874 1.349 . S
C1875 C1891 1.349 . S
C1876 C1874 1.327 . S
C1876 C1895 1.429 . S
C1876 H1900 0.950 . S
C1877 C1894 1.574 . S
C1877 C1896 1.368 . S
C1877 H1901 0.949 . S
H1878 C1882 0.949 . S
C1879 C1880 1.349 . S
C1879 C1881 1.327 . S
C1879 H1902 0.950 . S
C1880 C1879 1.349 . S
C1880 C1892 1.349 . S
C1881 C1879 1.327 . S
C1881 C1897 1.429 . S
C1881 H1903 0.950 . S
C1882 H1878 0.949 . S
C1882 C1890 1.574 . S
C1882 C1898 1.368 . S
H1883 C1891 0.951 . S
H1884 C1889 0.950 . S
H1885 C1890 0.949 . S
H1886 C1892 0.950 . S
H1887 C1893 0.950 . S
H1888 C1894 0.949 . S
C1889 H1884 0.950 . S
C1889 C1891 1.327 . S
C1889 C1895 1.429 . S
C1890 C1882 1.574 . S
C1890 H1885 0.949 . S
C1890 C1896 1.368 . S
C1891 C1875 1.349 . S
C1891 H1883 0.951 . S
C1891 C1889 1.327 . S
C1892 C1880 1.349 . S
C1892 H1886 0.950 . S
C1892 C1893 1.327 . S
C1893 H1887 0.950 . S
C1893 C1892 1.327 . S
C1893 C1897 1.429 . S
C1894 C1877 1.574 . S
C1894 H1888 0.949 . S
C1894 C1898 1.368 . S
C1895 C1876 1.429 . S
C1895 C1889 1.429 . S
C1895 C1896 1.523 . S
C1896 C1877 1.368 . S
C1896 C1890 1.368 . S
C1896 C1895 1.523 . S
C1897 C1881 1.429 . S
C1897 C1893 1.429 . S
C1897 C1898 1.523 . S
C1898 C1882 1.368 . S
C1898 C1894 1.368 . S
C1898 C1897 1.523 . S
H1899 C1874 0.950 . S
H1900 C1876 0.950 . S
H1901 C1877 0.949 . S
H1902 C1879 0.950 . S
H1903 C1881 0.950 . S
C1904 C1905 1.349 . S
C1904 C1906 1.327 . S
C1904 H1929 0.950 . S
C1905 C1904 1.349 . S
C1905 C1921 1.349 . S
C1906 C1904 1.327 . S
C1906 C1925 1.429 . S
C1906 H1930 0.950 . S
C1907 C1924 1.574 . S
C1907 C1926 1.368 . S
C1907 H1931 0.949 . S
H1908 C1912 0.949 . S
C1909 C1910 1.349 . S
C1909 C1911 1.327 . S
C1909 H1932 0.950 . S
C1910 C1909 1.349 . S
C1910 C1922 1.349 . S
C1911 C1909 1.327 . S
C1911 C1927 1.429 . S
C1911 H1933 0.950 . S
C1912 H1908 0.949 . S
C1912 C1920 1.574 . S
C1912 C1928 1.368 . S
H1913 C1921 0.950 . S
H1914 C1919 0.950 . S
H1915 C1920 0.949 . S
H1916 C1922 0.950 . S
H1917 C1923 0.950 . S
H1918 C1924 0.949 . S
C1919 H1914 0.950 . S
C1919 C1921 1.327 . S
C1919 C1925 1.429 . S
C1920 C1912 1.574 . S
C1920 H1915 0.949 . S
C1920 C1926 1.368 . S
C1921 C1905 1.349 . S
C1921 H1913 0.950 . S
C1921 C1919 1.327 . S
C1922 C1910 1.349 . S
C1922 H1916 0.950 . S
C1922 C1923 1.327 . S
C1923 H1917 0.950 . S
C1923 C1922 1.327 . S
C1923 C1927 1.429 . S
C1924 C1907 1.574 . S
C1924 H1918 0.949 . S
C1924 C1928 1.368 . S
C1925 C1906 1.429 . S
C1925 C1919 1.429 . S
C1925 C1926 1.523 . S
C1926 C1907 1.368 . S
C1926 C1920 1.368 . S
C1926 C1925 1.523 . S
C1927 C1911 1.429 . S
C1927 C1923 1.429 . S
C1927 C1928 1.523 . S
C1928 C1912 1.368 . S
C1928 C1924 1.368 . S
C1928 C1927 1.523 . S
H1929 C1904 0.950 . S
H1930 C1906 0.950 . S
H1931 C1907 0.949 . S
H1932 C1909 0.950 . S
H1933 C1911 0.950 . S
C1934 C1935 1.349 . S
C1934 C1936 1.327 . S
C1934 H1959 0.950 . S
C1935 C1934 1.349 . S
C1935 C1951 1.349 . S
C1936 C1934 1.327 . S
C1936 C1955 1.429 . S
C1936 H1960 0.950 . S
C1937 C1954 1.574 . S
C1937 C1956 1.368 . S
C1937 H1961 0.949 . S
H1938 C1942 0.949 . S
C1939 C1940 1.349 . S
C1939 C1941 1.327 . S
C1939 H1962 0.950 . S
C1940 C1939 1.349 . S
C1940 C1952 1.349 . S
C1941 C1939 1.327 . S
C1941 C1957 1.429 . S
C1941 H1963 0.950 . S
C1942 H1938 0.949 . S
C1942 C1950 1.574 . S
C1942 C1958 1.368 . S
H1943 C1951 0.950 . S
H1944 C1949 0.950 . S
H1945 C1950 0.949 . S
H1946 C1952 0.950 . S
H1947 C1953 0.950 . S
H1948 C1954 0.949 . S
C1949 H1944 0.950 . S
C1949 C1951 1.327 . S
C1949 C1955 1.429 . S
C1950 C1942 1.574 . S
C1950 H1945 0.949 . S
C1950 C1956 1.368 . S
C1951 C1935 1.349 . S
C1951 H1943 0.950 . S
C1951 C1949 1.327 . S
C1952 C1940 1.349 . S
C1952 H1946 0.950 . S
C1952 C1953 1.327 . S
C1953 H1947 0.950 . S
C1953 C1952 1.327 . S
C1953 C1957 1.429 . S
C1954 C1937 1.574 . S
C1954 H1948 0.949 . S
C1954 C1958 1.368 . S
C1955 C1936 1.429 . S
C1955 C1949 1.429 . S
C1955 C1956 1.523 . S
C1956 C1937 1.368 . S
C1956 C1950 1.368 . S
C1956 C1955 1.523 . S
C1957 C1941 1.429 . S
C1957 C1953 1.429 . S
C1957 C1958 1.523 . S
C1958 C1942 1.368 . S
C1958 C1954 1.368 . S
C1958 C1957 1.523 . S
H1959 C1934 0.950 . S
H1960 C1936 0.950 . S
H1961 C1937 0.949 . S
H1962 C1939 0.950 . S
H1963 C1941 0.950 . S
C1964 C1965 1.349 . S
C1964 C1966 1.327 . S
C1964 H1989 0.950 . S
C1965 C1964 1.349 . S
C1965 C1981 1.349 . S
C1966 C1964 1.327 . S
C1966 C1985 1.429 . S
C1966 H1990 0.950 . S
C1967 C1984 1.574 . S
C1967 C1986 1.368 . S
C1967 H1991 0.949 . S
H1968 C1972 0.949 . S
C1969 C1970 1.349 . S
C1969 C1971 1.327 . S
C1969 H1992 0.950 . S
C1970 C1969 1.349 . S
C1970 C1982 1.349 . S
C1971 C1969 1.327 . S
C1971 C1987 1.429 . S
C1971 H1993 0.950 . S
C1972 H1968 0.949 . S
C1972 C1980 1.574 . S
C1972 C1988 1.368 . S
H1973 C1981 0.950 . S
H1974 C1979 0.950 . S
H1975 C1980 0.949 . S
H1976 C1982 0.950 . S
H1977 C1983 0.950 . S
H1978 C1984 0.949 . S
C1979 H1974 0.950 . S
C1979 C1981 1.327 . S
C1979 C1985 1.429 . S
C1980 C1972 1.574 . S
C1980 H1975 0.949 . S
C1980 C1986 1.368 . S
C1981 C1965 1.349 . S
C1981 H1973 0.950 . S
C1981 C1979 1.327 . S
C1982 C1970 1.349 . S
C1982 H1976 0.950 . S
C1982 C1983 1.327 . S
C1983 H1977 0.950 . S
C1983 C1982 1.327 . S
C1983 C1987 1.429 . S
C1984 C1967 1.574 . S
C1984 H1978 0.949 . S
C1984 C1988 1.368 . S
C1985 C1966 1.429 . S
C1985 C1979 1.429 . S
C1985 C1986 1.523 . S
C1986 C1967 1.368 . S
C1986 C1980 1.368 . S
C1986 C1985 1.523 . S
C1987 C1971 1.429 . S
C1987 C1983 1.429 . S
C1987 C1988 1.523 . S
C1988 C1972 1.368 . S
C1988 C1984 1.368 . S
C1988 C1987 1.523 . S
H1989 C1964 0.950 . S
H1990 C1966 0.950 . S
H1991 C1967 0.949 . S
H1992 C1969 0.950 . S
H1993 C1971 0.950 . S
C1994 C1995 1.349 . S
C1994 C1996 1.327 . S
C1994 H2019 0.950 . S
C1995 C1994 1.349 . S
C1995 C2011 1.349 . S
C1996 C1994 1.327 . S
C1996 C2015 1.429 . S
C1996 H2020 0.950 . S
C1997 C2014 1.574 . S
C1997 C2016 1.368 . S
C1997 H2021 0.949 . S
H1998 C2002 0.949 . S
C1999 C2000 1.349 . S
C1999 C2001 1.327 . S
C1999 H2022 0.950 . S
C2000 C1999 1.349 . S
C2000 C2012 1.349 . S
C2001 C1999 1.327 . S
C2001 C2017 1.429 . S
C2001 H2023 0.950 . S
C2002 H1998 0.949 . S
C2002 C2010 1.574 . S
C2002 C2018 1.368 . S
H2003 C2011 0.950 . S
H2004 C2009 0.950 . S
H2005 C2010 0.949 . S
H2006 C2012 0.950 . S
H2007 C2013 0.950 . S
H2008 C2014 0.949 . S
C2009 H2004 0.950 . S
C2009 C2011 1.327 . S
C2009 C2015 1.429 . S
C2010 C2002 1.574 . S
C2010 H2005 0.949 . S
C2010 C2016 1.368 . S
C2011 C1995 1.349 . S
C2011 H2003 0.950 . S
C2011 C2009 1.327 . S
C2012 C2000 1.349 . S
C2012 H2006 0.950 . S
C2012 C2013 1.327 . S
C2013 H2007 0.950 . S
C2013 C2012 1.327 . S
C2013 C2017 1.429 . S
C2014 C1997 1.574 . S
C2014 H2008 0.949 . S
C2014 C2018 1.368 . S
C2015 C1996 1.429 . S
C2015 C2009 1.429 . S
C2015 C2016 1.523 . S
C2016 C1997 1.368 . S
C2016 C2010 1.368 . S
C2016 C2015 1.523 . S
C2017 C2001 1.429 . S
C2017 C2013 1.429 . S
C2017 C2018 1.523 . S
C2018 C2002 1.368 . S
C2018 C2014 1.368 . S
C2018 C2017 1.523 . S
H2019 C1994 0.950 . S
H2020 C1996 0.950 . S
H2021 C1997 0.949 . S
H2022 C1999 0.950 . S
H2023 C2001 0.950 . S
C2024 C2025 1.349 . S
C2024 C2026 1.327 . S
C2024 H2049 0.950 . S
C2025 C2024 1.349 . S
C2025 C2041 1.349 . S
C2026 C2024 1.327 . S
C2026 C2045 1.429 . S
C2026 H2050 0.950 . S
C2027 C2044 1.574 . S
C2027 C2046 1.368 . S
C2027 H2051 0.949 . S
H2028 C2032 0.949 . S
C2029 C2030 1.349 . S
C2029 C2031 1.327 . S
C2029 H2052 0.950 . S
C2030 C2029 1.349 . S
C2030 C2042 1.349 . S
C2031 C2029 1.327 . S
C2031 C2047 1.429 . S
C2031 H2053 0.950 . S
C2032 H2028 0.949 . S
C2032 C2040 1.574 . S
C2032 C2048 1.368 . S
H2033 C2041 0.950 . S
H2034 C2039 0.950 . S
H2035 C2040 0.949 . S
H2036 C2042 0.950 . S
H2037 C2043 0.950 . S
H2038 C2044 0.949 . S
C2039 H2034 0.950 . S
C2039 C2041 1.327 . S
C2039 C2045 1.429 . S
C2040 C2032 1.574 . S
C2040 H2035 0.949 . S
C2040 C2046 1.368 . S
C2041 C2025 1.349 . S
C2041 H2033 0.950 . S
C2041 C2039 1.327 . S
C2042 C2030 1.349 . S
C2042 H2036 0.950 . S
C2042 C2043 1.327 . S
C2043 H2037 0.950 . S
C2043 C2042 1.327 . S
C2043 C2047 1.429 . S
C2044 C2027 1.574 . S
C2044 H2038 0.949 . S
C2044 C2048 1.368 . S
C2045 C2026 1.429 . S
C2045 C2039 1.429 . S
C2045 C2046 1.523 . S
C2046 C2027 1.368 . S
C2046 C2040 1.368 . S
C2046 C2045 1.523 . S
C2047 C2031 1.429 . S
C2047 C2043 1.429 . S
C2047 C2048 1.523 . S
C2048 C2032 1.368 . S
C2048 C2044 1.368 . S
C2048 C2047 1.523 . S
H2049 C2024 0.950 . S
H2050 C2026 0.950 . S
H2051 C2027 0.949 . S
H2052 C2029 0.950 . S
H2053 C2031 0.950 . S
C2054 C2055 1.349 . S
C2054 C2056 1.327 . S
C2054 H2079 0.950 . S
C2055 C2054 1.349 . S
C2055 C2071 1.349 . S
C2056 C2054 1.327 . S
C2056 C2075 1.429 . S
C2056 H2080 0.950 . S
C2057 C2074 1.574 . S
C2057 C2076 1.368 . S
C2057 H2081 0.949 . S
H2058 C2062 0.949 . S
C2059 C2060 1.349 . S
C2059 C2061 1.327 . S
C2059 H2082 0.950 . S
C2060 C2059 1.349 . S
C2060 C2072 1.349 . S
C2061 C2059 1.327 . S
C2061 C2077 1.429 . S
C2061 H2083 0.950 . S
C2062 H2058 0.949 . S
C2062 C2070 1.574 . S
C2062 C2078 1.368 . S
H2063 C2071 0.950 . S
H2064 C2069 0.950 . S
H2065 C2070 0.949 . S
H2066 C2072 0.950 . S
H2067 C2073 0.950 . S
H2068 C2074 0.949 . S
C2069 H2064 0.950 . S
C2069 C2071 1.327 . S
C2069 C2075 1.429 . S
C2070 C2062 1.574 . S
C2070 H2065 0.949 . S
C2070 C2076 1.368 . S
C2071 C2055 1.349 . S
C2071 H2063 0.950 . S
C2071 C2069 1.327 . S
C2072 C2060 1.349 . S
C2072 H2066 0.950 . S
C2072 C2073 1.327 . S
C2073 H2067 0.950 . S
C2073 C2072 1.327 . S
C2073 C2077 1.429 . S
C2074 C2057 1.574 . S
C2074 H2068 0.949 . S
C2074 C2078 1.368 . S
C2075 C2056 1.429 . S
C2075 C2069 1.429 . S
C2075 C2076 1.523 . S
C2076 C2057 1.368 . S
C2076 C2070 1.368 . S
C2076 C2075 1.523 . S
C2077 C2061 1.429 . S
C2077 C2073 1.429 . S
C2077 C2078 1.523 . S
C2078 C2062 1.368 . S
C2078 C2074 1.368 . S
C2078 C2077 1.523 . S
H2079 C2054 0.950 . S
H2080 C2056 0.950 . S
H2081 C2057 0.949 . S
H2082 C2059 0.950 . S
H2083 C2061 0.950 . S
C2084 C2085 1.349 . S
C2084 C2086 1.327 . S
C2084 H2109 0.950 . S
C2085 C2084 1.349 . S
C2085 C2101 1.349 . S
C2086 C2084 1.327 . S
C2086 C2105 1.429 . S
C2086 H2110 0.950 . S
C2087 C2104 1.574 . S
C2087 C2106 1.368 . S
C2087 H2111 0.949 . S
H2088 C2092 0.949 . S
C2089 C2090 1.349 . S
C2089 C2091 1.327 . S
C2089 H2112 0.950 . S
C2090 C2089 1.349 . S
C2090 C2102 1.349 . S
C2091 C2089 1.327 . S
C2091 C2107 1.429 . S
C2091 H2113 0.950 . S
C2092 H2088 0.949 . S
C2092 C2100 1.574 . S
C2092 C2108 1.368 . S
H2093 C2101 0.950 . S
H2094 C2099 0.950 . S
H2095 C2100 0.949 . S
H2096 C2102 0.950 . S
H2097 C2103 0.950 . S
H2098 C2104 0.949 . S
C2099 H2094 0.950 . S
C2099 C2101 1.327 . S
C2099 C2105 1.429 . S
C2100 C2092 1.574 . S
C2100 H2095 0.949 . S
C2100 C2106 1.368 . S
C2101 C2085 1.349 . S
C2101 H2093 0.950 . S
C2101 C2099 1.327 . S
C2102 C2090 1.349 . S
C2102 H2096 0.950 . S
C2102 C2103 1.327 . S
C2103 H2097 0.950 . S
C2103 C2102 1.327 . S
C2103 C2107 1.429 . S
C2104 C2087 1.574 . S
C2104 H2098 0.949 . S
C2104 C2108 1.368 . S
C2105 C2086 1.429 . S
C2105 C2099 1.429 . S
C2105 C2106 1.523 . S
C2106 C2087 1.368 . S
C2106 C2100 1.368 . S
C2106 C2105 1.523 . S
C2107 C2091 1.429 . S
C2107 C2103 1.429 . S
C2107 C2108 1.523 . S
C2108 C2092 1.368 . S
C2108 C2104 1.368 . S
C2108 C2107 1.523 . S
H2109 C2084 0.950 . S
H2110 C2086 0.950 . S
H2111 C2087 0.949 . S
H2112 C2089 0.950 . S
H2113 C2091 0.950 . S
C2114 C2115 1.349 . S
C2114 C2116 1.327 . S
C2114 H2139 0.950 . S
C2115 C2114 1.349 . S
C2115 C2131 1.349 . S
C2116 C2114 1.327 . S
C2116 C2135 1.429 . S
C2116 H2140 0.950 . S
C2117 C2134 1.574 . S
C2117 C2136 1.368 . S
C2117 H2141 0.949 . S
H2118 C2122 0.949 . S
C2119 C2120 1.349 . S
C2119 C2121 1.327 . S
C2119 H2142 0.950 . S
C2120 C2119 1.349 . S
C2120 C2132 1.349 . S
C2121 C2119 1.327 . S
C2121 C2137 1.429 . S
C2121 H2143 0.950 . S
C2122 H2118 0.949 . S
C2122 C2130 1.574 . S
C2122 C2138 1.368 . S
H2123 C2131 0.950 . S
H2124 C2129 0.950 . S
H2125 C2130 0.949 . S
H2126 C2132 0.950 . S
H2127 C2133 0.950 . S
H2128 C2134 0.949 . S
C2129 H2124 0.950 . S
C2129 C2131 1.327 . S
C2129 C2135 1.429 . S
C2130 C2122 1.574 . S
C2130 H2125 0.949 . S
C2130 C2136 1.368 . S
C2131 C2115 1.349 . S
C2131 H2123 0.950 . S
C2131 C2129 1.327 . S
C2132 C2120 1.349 . S
C2132 H2126 0.950 . S
C2132 C2133 1.327 . S
C2133 H2127 0.950 . S
C2133 C2132 1.327 . S
C2133 C2137 1.429 . S
C2134 C2117 1.574 . S
C2134 H2128 0.949 . S
C2134 C2138 1.368 . S
C2135 C2116 1.429 . S
C2135 C2129 1.429 . S
C2135 C2136 1.523 . S
C2136 C2117 1.368 . S
C2136 C2130 1.368 . S
C2136 C2135 1.523 . S
C2137 C2121 1.429 . S
C2137 C2133 1.429 . S
C2137 C2138 1.523 . S
C2138 C2122 1.368 . S
C2138 C2134 1.368 . S
C2138 C2137 1.523 . S
H2139 C2114 0.950 . S
H2140 C2116 0.950 . S
H2141 C2117 0.949 . S
H2142 C2119 0.950 . S
H2143 C2121 0.950 . S
C465 C137 1.532 . S
C470 C21 1.532 . S
C495 C50 1.532 . S
C500 C166 1.532 . S
C525 C195 1.532 . S
C530 C79 1.532 . S
C555 C224 1.532 . S
C560 C108 1.532 . S
C585 C311 1.532 . S
C590 C253 1.532 . S
C615 C282 1.532 . S
C620 C340 1.532 . S
C645 C427 1.532 . S
C650 C369 1.532 . S
C675 C398 1.532 . S
C680 C456 1.532 . S
C705 C100 1.831 . S
C710 C5 1.849 . S
C735 C13 1.831 1_565 S
C740 C34 1.849 . S
C765 C42 1.831 . S
C770 C63 1.849 . S
C795 C92 1.849 . S
C800 C71 1.831 1_545 S
C825 C158 1.831 . S
C830 C121 1.849 . S
C855 C187 1.831 1_565 S
C860 C150 1.849 . S
C885 C216 1.831 . S
C890 C179 1.849 . S
C915 C129 1.831 1_545 S
C920 C208 1.849 . S
C945 C124 1.112 . S
C950 C276 1.198 . S
C975 C240 1.112 . S
C980 C131 1.198 . S
C1005 C182 1.112 . S
C1010 C247 1.198 . S
C1035 C269 1.112 . S
C1040 C189 1.198 . S
C1065 C305 1.198 . S
C1070 C8 1.112 . S
C1095 C73 1.198 . S
C1100 C298 1.112 . S
C1125 C334 1.198 . S
C1130 C66 1.112 . S
C1155 C15 1.198 . S
C1160 C327 1.112 . S
C1185 C332 1.831 . S
C1190 C353 1.849 . S
C1215 C361 1.831 . S
C1220 C295 1.849 . S
C1245 C382 1.849 . S
C1250 C303 1.831 . S
C1275 C324 1.849 . S
C1280 C390 1.831 . S
C1305 C411 1.849 . S
C1310 C245 1.831 . S
C1335 C448 1.831 . S
C1340 C237 1.849 . S
C1365 C274 1.831 . S
C1370 C440 1.849 . S
C1395 C419 1.831 . S
C1400 C266 1.849 . S
C1425 C218 1.198 . S
C1430 C414 1.112 . S
C1455 C421 1.198 . S
C1460 C153 1.112 . S
C1485 C443 1.112 . S
C1490 C160 1.198 . S
C1515 C211 1.112 . S
C1520 C450 1.198 . S
C1545 C44 1.198 . S
C1550 C356 1.112 . S
C1575 C37 1.112 . S
C1580 C392 1.198 . S
C1605 C385 1.112 . S
C1610 C102 1.198 . S
C1635 C363 1.198 . S
C1640 C95 1.112 . S
C1665 C148 0.596 . S
C1670 C3 0.596 . S
C1695 C177 0.596 . S
C1700 C32 0.596 . S
C1725 C206 0.596 . S
C1730 C61 0.596 . S
C1755 C90 0.596 . S
C1760 C119 0.596 . S
C1785 C126 2.962 1_545 S
C1790 C300 2.962 . S
C1815 C242 2.962 . S
C1820 C68 2.962 1_545 S
C1845 C329 2.962 . S
C1850 C184 2.962 1_565 S
C1875 C10 2.962 1_565 S
C1880 C271 2.962 . S
C1905 C351 0.596 . S
C1910 C235 0.596 . S
C1935 C293 0.596 . S
C1940 C438 0.596 . S
C1965 C380 0.596 . S
C1970 C264 0.596 . S
C1995 C409 0.596 . S
C2000 C322 0.596 . S
C2025 C39 2.962 . S
C2030 C416 2.962 . S
C2055 C387 2.962 . S
C2060 C155 2.962 . S
C2085 C97 2.962 . S
C2090 C445 2.962 . S
C2115 C213 2.962 . S
C2120 C358 2.962 . S
