# Generated by pormake.
# Topology mon, (4)-cn, num edge types: 1
# Building blocks:
#     Node 0, Type 0, BuildingBlock: ICAMEG_clean_sbu_1, # of connection points: 4
#     Node 1, Type 0, BuildingBlock: ICAMEG_clean_sbu_1, # of connection points: 4
#     Node 2, Type 0, BuildingBlock: ICAMEG_clean_sbu_1, # of connection points: 4
#     Node 3, Type 0, BuildingBlock: ICAMEG_clean_sbu_1, # of connection points: 4
#     Node 4, Type 0, BuildingBlock: ICAMEG_clean_sbu_1, # of connection points: 4
#     Node 5, Type 0, BuildingBlock: ICAMEG_clean_sbu_1, # of connection points: 4
#     Node 6, Type 0, BuildingBlock: ICAMEG_clean_sbu_1, # of connection points: 4
#     Node 7, Type 0, BuildingBlock: ICAMEG_clean_sbu_1, # of connection points: 4
#     Node 8, Type 0, BuildingBlock: ICAMEG_clean_sbu_1, # of connection points: 4
#     Node 9, Type 0, BuildingBlock: ICAMEG_clean_sbu_1, # of connection points: 4
#     Node 10, Type 0, BuildingBlock: ICAMEG_clean_sbu_1, # of connection points: 4
#     Node 11, Type 0, BuildingBlock: ICAMEG_clean_sbu_1, # of connection points: 4
#     Node 12, Type 0, BuildingBlock: ICAMEG_clean_sbu_1, # of connection points: 4
#     Node 13, Type 0, BuildingBlock: ICAMEG_clean_sbu_1, # of connection points: 4
#     Node 14, Type 0, BuildingBlock: ICAMEG_clean_sbu_1, # of connection points: 4
#     Node 15, Type 0, BuildingBlock: ICAMEG_clean_sbu_1, # of connection points: 4
#     Edge 16, Type (0, 0), BuildingBlock: XIVTED_clean_linker_0, # of connection points: 2
#     Edge 17, Type (0, 0), BuildingBlock: XIVTED_clean_linker_0, # of connection points: 2
#     Edge 18, Type (0, 0), BuildingBlock: XIVTED_clean_linker_0, # of connection points: 2
#     Edge 19, Type (0, 0), BuildingBlock: XIVTED_clean_linker_0, # of connection points: 2
#     Edge 20, Type (0, 0), BuildingBlock: XIVTED_clean_linker_0, # of connection points: 2
#     Edge 21, Type (0, 0), BuildingBlock: XIVTED_clean_linker_0, # of connection points: 2
#     Edge 22, Type (0, 0), BuildingBlock: XIVTED_clean_linker_0, # of connection points: 2
#     Edge 23, Type (0, 0), BuildingBlock: XIVTED_clean_linker_0, # of connection points: 2
#     Edge 24, Type (0, 0), BuildingBlock: XIVTED_clean_linker_0, # of connection points: 2
#     Edge 25, Type (0, 0), BuildingBlock: XIVTED_clean_linker_0, # of connection points: 2
#     Edge 26, Type (0, 0), BuildingBlock: XIVTED_clean_linker_0, # of connection points: 2
#     Edge 27, Type (0, 0), BuildingBlock: XIVTED_clean_linker_0, # of connection points: 2
#     Edge 28, Type (0, 0), BuildingBlock: XIVTED_clean_linker_0, # of connection points: 2
#     Edge 29, Type (0, 0), BuildingBlock: XIVTED_clean_linker_0, # of connection points: 2
#     Edge 30, Type (0, 0), BuildingBlock: XIVTED_clean_linker_0, # of connection points: 2
#     Edge 31, Type (0, 0), BuildingBlock: XIVTED_clean_linker_0, # of connection points: 2
#     Edge 32, Type (0, 0), BuildingBlock: XIVTED_clean_linker_0, # of connection points: 2
#     Edge 33, Type (0, 0), BuildingBlock: XIVTED_clean_linker_0, # of connection points: 2
#     Edge 34, Type (0, 0), BuildingBlock: XIVTED_clean_linker_0, # of connection points: 2
#     Edge 35, Type (0, 0), BuildingBlock: XIVTED_clean_linker_0, # of connection points: 2
#     Edge 36, Type (0, 0), BuildingBlock: XIVTED_clean_linker_0, # of connection points: 2
#     Edge 37, Type (0, 0), BuildingBlock: XIVTED_clean_linker_0, # of connection points: 2
#     Edge 38, Type (0, 0), BuildingBlock: XIVTED_clean_linker_0, # of connection points: 2
#     Edge 39, Type (0, 0), BuildingBlock: XIVTED_clean_linker_0, # of connection points: 2
#     Edge 40, Type (0, 0), BuildingBlock: XIVTED_clean_linker_0, # of connection points: 2
#     Edge 41, Type (0, 0), BuildingBlock: XIVTED_clean_linker_0, # of connection points: 2
#     Edge 42, Type (0, 0), BuildingBlock: XIVTED_clean_linker_0, # of connection points: 2
#     Edge 43, Type (0, 0), BuildingBlock: XIVTED_clean_linker_0, # of connection points: 2
#     Edge 44, Type (0, 0), BuildingBlock: XIVTED_clean_linker_0, # of connection points: 2
#     Edge 45, Type (0, 0), BuildingBlock: XIVTED_clean_linker_0, # of connection points: 2
#     Edge 46, Type (0, 0), BuildingBlock: XIVTED_clean_linker_0, # of connection points: 2
#     Edge 47, Type (0, 0), BuildingBlock: XIVTED_clean_linker_0, # of connection points: 2
# Relax obj value: 0.221
# Max RMSD: 0.232
# Mean RMSD: 0.232
data_MOF--net-mon--node1-ICAMEG_clean_sbu_1--edge1-XIVTED_clean_linker_0
_symmetry_space_group_name_H-M    P1
_symmetry_Int_Tables_number       1
_symmetry_cell_setting            triclinic
loop_
_symmetry_equiv_pos_as_xyz
'x, y, z'
_cell_length_a     34.628529
_cell_length_b     34.642077
_cell_length_c     95.424109
_cell_angle_alpha  89.963299
_cell_angle_beta   90.028828
_cell_angle_gamma 90.043561
loop_
_atom_site_label
_atom_site_type_symbol
_atom_site_fract_x
_atom_site_fract_y
_atom_site_fract_z
_atom_type_partial_charge
Co0 Co 0.99151 0.98375 0.5787 0.0
Co1 Co 0.01445 0.03323 0.60834 0.0
O2 O 0.0127 0.02942 0.5879 0.0
C3 C 0.04983 0.96717 0.55651 0.0
O4 O 0.05261 0.93196 0.56154 0.0
C5 C 0.98841 0.11145 0.59875 0.0
O6 O 0.96438 0.09545 0.58984 0.0
O7 O 0.95744 0.02515 0.60929 0.0
O8 O 0.9528 0.97576 0.59416 0.0
H9 H 0.98273 0.99246 0.6576 0.0
H10 H 0.99728 0.05714 0.56281 0.0
O11 O 0.02903 0.99205 0.56285 0.0
H12 H 0.85909 0.02287 0.5619 0.0
H13 H 0.94282 0.90628 0.53755 0.0
H14 H 0.96999 0.90535 0.58828 0.0
H15 H 0.90614 0.98091 0.57387 0.0
H16 H 0.9687 0.96426 0.54923 0.0
O17 O 0.00822 0.09057 0.60704 0.0
H18 H 0.98184 0.98739 0.63185 0.0
H19 H 0.05023 0.08878 0.62846 0.0
H20 H 0.94402 0.84676 0.57702 0.0
H21 H 0.9513 0.09957 0.5505 0.0
H22 H 0.9303 0.84697 0.55147 0.0
H23 H 0.8816 0.08261 0.55004 0.0
O24 O 0.02978 0.95071 0.58902 0.0
H25 H 0.13716 0.09001 0.58914 0.0
H26 H 0.08181 0.99892 0.62342 0.0
H27 H 0.15247 0.00641 0.62191 0.0
H28 H 0.1806 0.05235 0.60471 0.0
H29 H 0.06664 0.08132 0.5909 0.0
H30 H 0.05159 0.09514 0.65418 0.0
H31 H 0.01777 0.04668 0.66895 0.0
O32 O 0.02204 0.9764 0.61036 0.0
C33 C 0.9394 0.99604 0.60425 0.0
C34 C 0.99756 0.01378 0.65128 0.0
C35 C 0.03615 0.07143 0.64936 0.0
N36 N 0.01581 0.03782 0.62862 0.0
C37 C 0.99718 0.01105 0.63668 0.0
C38 C 0.03511 0.06779 0.63479 0.0
C39 C 0.0172 0.04422 0.65764 0.0
C40 C 0.96708 0.04929 0.56252 0.0
N41 N 0.95449 0.01646 0.56903 0.0
C42 C 0.94114 0.07355 0.55559 0.0
C43 C 0.90203 0.06407 0.55536 0.0
C44 C 0.88938 0.03059 0.56204 0.0
C45 C 0.91615 0.00703 0.56887 0.0
C46 C 0.94871 0.90581 0.54869 0.0
C47 C 0.96412 0.90567 0.57715 0.0
C48 C 0.96339 0.93855 0.55536 0.0
N49 N 0.97097 0.93818 0.56943 0.0
C50 C 0.9494 0.87241 0.57084 0.0
C51 C 0.94169 0.87255 0.5565 0.0
C52 C 0.03374 0.94949 0.60234 0.0
C53 C 0.12525 0.06999 0.59671 0.0
C54 C 0.09379 0.01887 0.61587 0.0
C55 C 0.13385 0.02304 0.61508 0.0
C56 C 0.14961 0.04882 0.60543 0.0
N57 N 0.07006 0.03986 0.60731 0.0
C58 C 0.08532 0.06503 0.59778 0.0
Co59 Co 0.29066 0.73469 0.82562 0.0
Co60 Co 0.22836 0.75366 0.85276 0.0
O61 O 0.23982 0.75149 0.83253 0.0
C62 C 0.26536 0.79849 0.80581 0.0
O63 O 0.23791 0.80927 0.8144 0.0
C64 C 0.15389 0.72811 0.83877 0.0
O65 O 0.17221 0.71853 0.82728 0.0
O66 O 0.242 0.69799 0.85475 0.0
O67 O 0.29532 0.69653 0.84142 0.0
H68 H 0.25559 0.7285 0.90372 0.0
H69 H 0.22331 0.73327 0.80613 0.0
O70 O 0.28842 0.77137 0.80919 0.0
H71 H 0.27285 0.60001 0.80674 0.0
H72 H 0.38907 0.69787 0.78909 0.0
H73 H 0.36524 0.71751 0.83953 0.0
H74 H 0.30429 0.6507 0.82079 0.0
H75 H 0.32475 0.71764 0.79749 0.0
O76 O 0.17248 0.74013 0.84945 0.0
H77 H 0.26922 0.72716 0.87838 0.0
H78 H 0.16305 0.78404 0.87 0.0
H79 H 0.4299 0.69738 0.83158 0.0
H80 H 0.1915 0.68378 0.7917 0.0
H81 H 0.44215 0.68744 0.80619 0.0
H82 H 0.2161 0.61646 0.79198 0.0
O83 O 0.31622 0.7753 0.83724 0.0
H84 H 0.16306 0.86877 0.83087 0.0
H85 H 0.25075 0.8249 0.86833 0.0
H86 H 0.23573 0.89411 0.86614 0.0
H87 H 0.19143 0.91649 0.84734 0.0
H88 H 0.17939 0.79998 0.83326 0.0
H89 H 0.14815 0.78572 0.89525 0.0
H90 H 0.19465 0.75792 0.91231 0.0
O91 O 0.28301 0.76798 0.85718 0.0
C92 C 0.2735 0.68208 0.85086 0.0
C93 C 0.23509 0.7407 0.89639 0.0
C94 C 0.17478 0.77276 0.89163 0.0
N95 N 0.21696 0.75538 0.87269 0.0
C96 C 0.24266 0.74004 0.88202 0.0
C97 C 0.18331 0.77157 0.87734 0.0
C98 C 0.20089 0.75719 0.9012 0.0
C99 C 0.23457 0.70427 0.80623 0.0
N100 N 0.26571 0.69505 0.81436 0.0
C101 C 0.21625 0.67624 0.79807 0.0
C102 C 0.23 0.63847 0.79825 0.0
C103 C 0.26178 0.62922 0.80655 0.0
C104 C 0.27934 0.65802 0.81457 0.0
C105 C 0.38408 0.70208 0.80018 0.0
C106 C 0.37027 0.71307 0.82847 0.0
C107 C 0.34774 0.7134 0.805 0.0
N108 N 0.34116 0.71857 0.81901 0.0
C109 C 0.40698 0.70175 0.82403 0.0
C110 C 0.41384 0.69621 0.80978 0.0
C111 C 0.31211 0.78052 0.85039 0.0
C112 C 0.18231 0.85938 0.83913 0.0
C113 C 0.23172 0.83434 0.86003 0.0
C114 C 0.22318 0.87361 0.85889 0.0
C115 C 0.19829 0.88614 0.84836 0.0
N116 N 0.21591 0.80819 0.85094 0.0
C117 C 0.19151 0.82033 0.84059 0.0
Co118 Co 0.53627 0.03103 0.0756 0.0
Co119 Co 0.51913 0.96956 0.10319 0.0
O120 O 0.51983 0.98046 0.08289 0.0
C121 C 0.47184 0.00478 0.05613 0.0
O122 O 0.46298 0.97584 0.06438 0.0
C123 C 0.54267 0.8945 0.0892 0.0
O124 O 0.55163 0.91248 0.07755 0.0
O125 O 0.57508 0.98313 0.10459 0.0
O126 O 0.57563 0.03593 0.09096 0.0
H127 H 0.54817 0.99806 0.15378 0.0
H128 H 0.53636 0.96277 0.05647 0.0
O129 O 0.49821 0.02865 0.0596 0.0
H130 H 0.66938 0.0131 0.05533 0.0
H131 H 0.57027 0.12857 0.03836 0.0
H132 H 0.55487 0.10584 0.08907 0.0
H133 H 0.61974 0.04477 0.06975 0.0
H134 H 0.55107 0.06448 0.04718 0.0
O135 O 0.53198 0.91349 0.09996 0.0
H136 H 0.54769 0.01102 0.12838 0.0
H137 H 0.48966 0.90488 0.12099 0.0
H138 H 0.57449 0.17027 0.08069 0.0
H139 H 0.58474 0.93074 0.04167 0.0
H140 H 0.5823 0.18198 0.05516 0.0
H141 H 0.65196 0.95572 0.04106 0.0
O142 O 0.49669 0.05693 0.08754 0.0
H143 H 0.40187 0.90487 0.08252 0.0
H144 H 0.44924 0.99237 0.11945 0.0
H145 H 0.37975 0.97778 0.11797 0.0
H146 H 0.35561 0.93358 0.09944 0.0
H147 H 0.47097 0.92073 0.08423 0.0
H148 H 0.48979 0.89066 0.14629 0.0
H149 H 0.51909 0.93748 0.16289 0.0
O150 O 0.50542 0.02436 0.10754 0.0
C151 C 0.59073 0.0145 0.10038 0.0
C152 C 0.53534 0.97741 0.14665 0.0
C153 C 0.50263 0.91712 0.14245 0.0
N154 N 0.51883 0.9587 0.12317 0.0
C155 C 0.53498 0.98459 0.13225 0.0
C156 C 0.50281 0.92526 0.12811 0.0
C157 C 0.51904 0.94342 0.15176 0.0
C158 C 0.56527 0.97425 0.05617 0.0
N159 N 0.575 0.00577 0.06402 0.0
C160 C 0.59269 0.95577 0.04781 0.0
C161 C 0.63041 0.96975 0.04749 0.0
C162 C 0.6402 1.00188 0.05551 0.0
C163 C 0.612 0.01957 0.06375 0.0
C164 C 0.567 0.12382 0.04951 0.0
C165 C 0.55839 0.11063 0.07795 0.0
C166 C 0.55601 0.08761 0.05457 0.0
N167 N 0.55202 0.08133 0.06865 0.0
C168 C 0.56943 0.14721 0.07327 0.0
C169 C 0.57377 0.15377 0.05894 0.0
C170 C 0.49242 0.05325 0.10075 0.0
C171 C 0.41204 0.92409 0.09067 0.0
C172 C 0.43903 0.97336 0.11127 0.0
C173 C 0.39961 0.96508 0.11053 0.0
C174 C 0.38609 0.94025 0.10015 0.0
N175 N 0.46438 0.95735 0.10195 0.0
C176 C 0.45126 0.93303 0.09174 0.0
Co177 Co 0.22832 0.26495 0.32402 0.0
Co178 Co 0.29211 0.25173 0.35105 0.0
O179 O 0.2799 0.25042 0.33089 0.0
C180 C 0.25575 0.20068 0.30485 0.0
O181 O 0.28397 0.19195 0.31344 0.0
C182 C 0.36636 0.27378 0.3361 0.0
O183 O 0.34832 0.27823 0.32413 0.0
O184 O 0.27785 0.30737 0.35169 0.0
O185 O 0.22301 0.30477 0.33923 0.0
H186 H 0.26621 0.28594 0.40137 0.0
H187 H 0.29517 0.26684 0.30426 0.0
O188 O 0.23125 0.22663 0.30811 0.0
H189 H 0.24047 0.39801 0.3031 0.0
H190 H 0.12725 0.29424 0.28749 0.0
H191 H 0.15376 0.28116 0.33805 0.0
H192 H 0.21136 0.34773 0.31797 0.0
H193 H 0.19255 0.27768 0.29584 0.0
O194 O 0.34765 0.26553 0.34721 0.0
H195 H 0.25171 0.28235 0.37613 0.0
H196 H 0.35841 0.22546 0.36873 0.0
H197 H 0.08812 0.29812 0.33015 0.0
H198 H 0.32474 0.31593 0.28905 0.0
H199 H 0.07451 0.30475 0.3047 0.0
H200 H 0.29752 0.38222 0.28842 0.0
O201 O 0.20473 0.22486 0.33642 0.0
H202 H 0.3574 0.13333 0.33158 0.0
H203 H 0.27173 0.1834 0.36857 0.0
H204 H 0.28745 0.11413 0.36805 0.0
H205 H 0.33075 0.08862 0.3495 0.0
H206 H 0.34041 0.20218 0.33234 0.0
H207 H 0.37417 0.22871 0.39389 0.0
H208 H 0.32784 0.25901 0.41042 0.0
O209 O 0.23779 0.23738 0.35605 0.0
C210 C 0.24552 0.3217 0.34789 0.0
C211 C 0.28663 0.27265 0.39428 0.0
C212 C 0.34723 0.24059 0.39008 0.0
N213 N 0.30416 0.25377 0.37093 0.0
C214 C 0.27856 0.2705 0.37996 0.0
C215 C 0.3382 0.23898 0.37582 0.0
C216 C 0.32122 0.25756 0.39935 0.0
C217 C 0.28281 0.29536 0.30399 0.0
N218 N 0.25145 0.3042 0.31205 0.0
C219 C 0.29985 0.32318 0.29538 0.0
C220 C 0.28461 0.36037 0.29505 0.0
C221 C 0.25266 0.36926 0.30329 0.0
C222 C 0.23641 0.34068 0.31177 0.0
C223 C 0.13283 0.29147 0.29861 0.0
C224 C 0.14813 0.28417 0.32696 0.0
C225 C 0.16973 0.28196 0.3034 0.0
N226 N 0.17704 0.27861 0.31744 0.0
C227 C 0.11087 0.2937 0.32255 0.0
C228 C 0.10325 0.29738 0.30827 0.0
C229 C 0.20925 0.22216 0.34966 0.0
C230 C 0.3386 0.14409 0.33975 0.0
C231 C 0.29033 0.1726 0.36038 0.0
C232 C 0.29926 0.1333 0.36018 0.0
C233 C 0.32359 0.11902 0.34979 0.0
N234 N 0.30521 0.19711 0.35051 0.0
C235 C 0.32902 0.18323 0.34028 0.0
Co236 Co 0.99323 0.03229 0.4333 0.0
Co237 Co 0.01142 0.96845 0.40664 0.0
O238 O 0.00926 0.98082 0.42679 0.0
C239 C 0.05571 0.00644 0.45362 0.0
O240 O 0.06737 0.97943 0.445 0.0
C241 C 0.98468 0.89495 0.42094 0.0
O242 O 0.97496 0.91377 0.43231 0.0
O243 O 0.95591 0.98256 0.40458 0.0
O244 O 0.95557 0.03697 0.41732 0.0
H245 H 0.98639 0.99358 0.35553 0.0
H246 H 0.98974 0.96563 0.45306 0.0
O247 O 0.02914 0.02985 0.44996 0.0
H248 H 0.85768 0.01831 0.45185 0.0
H249 H 0.95716 0.13308 0.46906 0.0
H250 H 0.97815 0.10654 0.41887 0.0
H251 H 0.90945 0.04809 0.43784 0.0
H252 H 0.97576 0.06799 0.46114 0.0
O253 O 0.99731 0.91298 0.41024 0.0
H254 H 0.9851 0.0083 0.38079 0.0
H255 H 0.04145 0.90226 0.38978 0.0
H256 H 0.95919 0.17196 0.42633 0.0
H257 H 0.93917 0.93547 0.46747 0.0
H258 H 0.9486 0.18559 0.45159 0.0
H259 H 0.87243 0.96165 0.46689 0.0
O260 O 0.03477 0.05653 0.42164 0.0
H261 H 0.12569 0.90296 0.42902 0.0
H262 H 0.08304 0.98941 0.391 0.0
H263 H 0.1521 0.97375 0.39336 0.0
H264 H 0.17386 0.93007 0.41244 0.0
H265 H 0.05706 0.91991 0.42646 0.0
H266 H 0.04308 0.88627 0.36463 0.0
H267 H 0.01553 0.93215 0.34729 0.0
O268 O 0.02626 0.02268 0.40192 0.0
C269 C 0.94058 0.01463 0.40815 0.0
C270 C 0.9985 0.97335 0.36298 0.0
C271 C 0.03026 0.91311 0.36809 0.0
N272 N 0.0131 0.95619 0.38678 0.0
C273 C 0.99787 0.98154 0.3773 0.0
C274 C 0.0291 0.92227 0.38233 0.0
C275 C 0.01483 0.93887 0.35837 0.0
C276 C 0.96101 0.97756 0.45282 0.0
N277 N 0.95271 0.00865 0.44454 0.0
C278 C 0.93236 0.96018 0.46098 0.0
C279 C 0.89492 0.97482 0.46063 0.0
C280 C 0.88662 0.00655 0.45217 0.0
C281 C 0.91602 0.02315 0.44417 0.0
C282 C 0.96169 0.1275 0.45802 0.0
C283 C 0.97343 0.11217 0.42988 0.0
C284 C 0.97237 0.09072 0.45347 0.0
N285 N 0.97794 0.08339 0.43954 0.0
C286 C 0.96277 0.14931 0.43404 0.0
C287 C 0.95686 0.15694 0.44822 0.0
C288 C 0.03954 0.05181 0.40848 0.0
C289 C 0.11656 0.92193 0.42064 0.0
C290 C 0.09222 0.97066 0.39942 0.0
C291 C 0.1314 0.96175 0.40066 0.0
C292 C 0.14358 0.93721 0.41135 0.0
N293 N 0.06582 0.95553 0.40857 0.0
C294 C 0.07762 0.93148 0.41908 0.0
Co295 Co 0.2277 0.73528 0.6834 0.0
Co296 Co 0.29109 0.74829 0.65617 0.0
O297 O 0.27922 0.74952 0.67637 0.0
C298 C 0.25557 0.79968 0.7025 0.0
O299 O 0.28416 0.80792 0.69401 0.0
C300 C 0.36457 0.7231 0.67088 0.0
O301 O 0.34559 0.71473 0.68236 0.0
O302 O 0.27601 0.69272 0.65537 0.0
O303 O 0.222 0.69537 0.66829 0.0
H304 H 0.26409 0.71523 0.60581 0.0
H305 H 0.29489 0.73361 0.70305 0.0
O306 O 0.23091 0.77387 0.69921 0.0
H307 H 0.23979 0.60256 0.70459 0.0
H308 H 0.12722 0.7067 0.7202 0.0
H309 H 0.1528 0.71893 0.66956 0.0
H310 H 0.21074 0.65257 0.68959 0.0
H311 H 0.19242 0.72299 0.71168 0.0
O312 O 0.34658 0.73414 0.65993 0.0
H313 H 0.25005 0.7184 0.6311 0.0
H314 H 0.3573 0.7745 0.63844 0.0
H315 H 0.08726 0.70224 0.67763 0.0
H316 H 0.32432 0.68483 0.71841 0.0
H317 H 0.07412 0.69605 0.70312 0.0
H318 H 0.29691 0.6186 0.71923 0.0
O319 O 0.20387 0.7751 0.67097 0.0
H320 H 0.35862 0.86502 0.67593 0.0
H321 H 0.2713 0.81749 0.63896 0.0
H322 H 0.28806 0.88653 0.63977 0.0
H323 H 0.3322 0.91075 0.65832 0.0
H324 H 0.34058 0.79638 0.67489 0.0
H325 H 0.3726 0.77166 0.61324 0.0
H326 H 0.32577 0.74197 0.59672 0.0
O327 O 0.2369 0.76329 0.65128 0.0
C328 C 0.24375 0.67857 0.65937 0.0
C329 C 0.28474 0.72824 0.6129 0.0
C330 C 0.34565 0.75986 0.61707 0.0
N331 N 0.30283 0.74652 0.63627 0.0
C332 C 0.27694 0.73014 0.62724 0.0
C333 C 0.33689 0.76123 0.63135 0.0
C334 C 0.31935 0.74323 0.60781 0.0
C335 C 0.28235 0.70517 0.70344 0.0
N336 N 0.25093 0.6962 0.6954 0.0
C337 C 0.29936 0.6775 0.71212 0.0
C338 C 0.28403 0.64033 0.71255 0.0
C339 C 0.25203 0.63131 0.70433 0.0
C340 C 0.23582 0.65973 0.69577 0.0
C341 C 0.13259 0.70929 0.70906 0.0
C342 C 0.14739 0.71611 0.68066 0.0
C343 C 0.16944 0.71864 0.70417 0.0
N344 N 0.1765 0.72176 0.69011 0.0
C345 C 0.11018 0.70673 0.68517 0.0
C346 C 0.10282 0.70329 0.69948 0.0
C347 C 0.20822 0.778 0.65772 0.0
C348 C 0.33943 0.85482 0.66778 0.0
C349 C 0.29021 0.82775 0.64716 0.0
C350 C 0.29975 0.86692 0.64752 0.0
C351 C 0.32455 0.88047 0.65791 0.0
N352 N 0.30493 0.8027 0.65687 0.0
C353 C 0.32924 0.81585 0.66709 0.0
Co354 Co 0.52948 0.97321 0.93262 0.0
Co355 Co 0.51007 0.03556 0.90551 0.0
O356 O 0.51237 0.02398 0.92575 0.0
C357 C 0.46647 0.99852 0.9528 0.0
O358 O 0.45675 0.02751 0.94469 0.0
C359 C 0.53588 0.10986 0.91948 0.0
O360 O 0.54691 0.09128 0.93075 0.0
O361 O 0.56589 0.0224 0.90352 0.0
O362 O 0.56778 0.96908 0.91688 0.0
H363 H 0.53533 0.00908 0.85453 0.0
H364 H 0.5308 0.0409 0.95202 0.0
O365 O 0.49265 0.97488 0.949 0.0
H366 H 0.66392 0.99093 0.95182 0.0
H367 H 0.56646 0.87446 0.96906 0.0
H368 H 0.54736 0.89902 0.91863 0.0
H369 H 0.61336 0.95955 0.9377 0.0
H370 H 0.54642 0.93878 0.96074 0.0
O371 O 0.52305 0.09149 0.90889 0.0
H372 H 0.53689 0.99522 0.87985 0.0
H373 H 0.47899 0.10071 0.88833 0.0
H374 H 0.56781 0.83438 0.9265 0.0
H375 H 0.58012 0.0726 0.96654 0.0
H376 H 0.57747 0.82176 0.95189 0.0
H377 H 0.6474 0.04781 0.96647 0.0
O378 O 0.48906 0.94753 0.92095 0.0
H379 H 0.39458 0.09952 0.92756 0.0
H380 H 0.43888 0.01274 0.88995 0.0
H381 H 0.36952 0.02707 0.89223 0.0
H382 H 0.34692 0.07089 0.91111 0.0
H383 H 0.46355 0.08393 0.92505 0.0
H384 H 0.47708 0.11583 0.8631 0.0
H385 H 0.50528 0.06979 0.84599 0.0
O386 O 0.49624 0.98087 0.90103 0.0
C387 C 0.58208 0.99105 0.90744 0.0
C388 C 0.52295 0.02939 0.86188 0.0
C389 C 0.49032 0.08931 0.86669 0.0
N390 N 0.50818 0.04714 0.8856 0.0
C391 C 0.52374 0.02169 0.87624 0.0
C392 C 0.49165 0.08066 0.88098 0.0
C393 C 0.50611 0.06346 0.8571 0.0
C394 C 0.55973 0.02949 0.95203 0.0
N395 N 0.56897 0.99825 0.94397 0.0
C396 C 0.58769 0.04778 0.96023 0.0
C397 C 0.62543 0.03392 0.96017 0.0
C398 C 0.63473 1.00207 0.95193 0.0
C399 C 0.60599 0.98455 0.94386 0.0
C400 C 0.56238 0.87961 0.95797 0.0
C401 C 0.5517 0.89383 0.92969 0.0
C402 C 0.5509 0.91595 0.95319 0.0
N403 N 0.54589 0.92274 0.93919 0.0
C404 C 0.56319 0.85714 0.93409 0.0
C405 C 0.56857 0.85006 0.94833 0.0
C406 C 0.48383 0.95168 0.90779 0.0
C407 C 0.40406 0.08045 0.91927 0.0
C408 C 0.42934 0.03157 0.89828 0.0
C409 C 0.38999 0.03971 0.89947 0.0
C410 C 0.37733 0.06433 0.91005 0.0
N411 N 0.45544 0.0475 0.90736 0.0
C412 C 0.44319 0.07165 0.91775 0.0
Co413 Co 0.28975 0.26664 0.18135 0.0
Co414 Co 0.23319 0.24093 0.15352 0.0
O415 O 0.24194 0.24475 0.17378 0.0
C416 C 0.26686 0.20256 0.20146 0.0
O417 O 0.23999 0.19024 0.19288 0.0
C418 C 0.15708 0.27291 0.16312 0.0
O419 O 0.17424 0.30341 0.16842 0.0
O420 O 0.2409 0.2978 0.15147 0.0
O421 O 0.29252 0.30467 0.16547 0.0
H422 H 0.26121 0.26743 0.10272 0.0
H423 H 0.21733 0.26278 0.19821 0.0
O424 O 0.28897 0.23039 0.19794 0.0
H425 H 0.25736 0.39922 0.19958 0.0
H426 H 0.37979 0.31347 0.21924 0.0
H427 H 0.36385 0.29087 0.16855 0.0
H428 H 0.29612 0.35126 0.18677 0.0
H429 H 0.3187 0.28741 0.20992 0.0
O430 O 0.17647 0.2472 0.15675 0.0
H431 H 0.27286 0.27096 0.12816 0.0
H432 H 0.17256 0.20357 0.13587 0.0
H433 H 0.42528 0.31738 0.17742 0.0
H434 H 0.17804 0.30958 0.21129 0.0
H435 H 0.43356 0.32883 0.20294 0.0
H436 H 0.1979 0.37845 0.21203 0.0
O437 O 0.32042 0.2283 0.1703 0.0
H438 H 0.17832 0.11997 0.1749 0.0
H439 H 0.26544 0.17224 0.1387 0.0
H440 H 0.2581 0.10181 0.14113 0.0
H441 H 0.21418 0.07521 0.15931 0.0
H442 H 0.18695 0.19022 0.17226 0.0
H443 H 0.1597 0.19952 0.11051 0.0
H444 H 0.20425 0.2315 0.09373 0.0
O445 O 0.28943 0.2332 0.14976 0.0
C446 C 0.27028 0.31685 0.15573 0.0
C447 C 0.24158 0.25335 0.10992 0.0
C448 C 0.18459 0.21529 0.11429 0.0
N449 N 0.22345 0.23754 0.13352 0.0
C450 C 0.24805 0.25523 0.12435 0.0
C451 C 0.19196 0.21781 0.12866 0.0
C452 C 0.20961 0.23321 0.10488 0.0
C453 C 0.22662 0.29246 0.19862 0.0
N454 N 0.25949 0.30399 0.19188 0.0
C455 C 0.20404 0.31896 0.20599 0.0
C456 C 0.21514 0.3576 0.20638 0.0
C457 C 0.24848 0.36926 0.19939 0.0
C458 C 0.27031 0.34195 0.19212 0.0
C459 C 0.37653 0.30864 0.2081 0.0
C460 C 0.36714 0.29596 0.17966 0.0
C461 C 0.34204 0.29374 0.20276 0.0
N462 N 0.33762 0.28779 0.18868 0.0
C463 C 0.40203 0.31089 0.18462 0.0
C464 C 0.40667 0.31727 0.19894 0.0
C465 C 0.31851 0.22299 0.15706 0.0
C466 C 0.19758 0.1312 0.16695 0.0
C467 C 0.24662 0.16096 0.14676 0.0
C468 C 0.24242 0.12101 0.14802 0.0
C469 C 0.21773 0.1061 0.15821 0.0
N470 N 0.22689 0.18542 0.15541 0.0
C471 C 0.20252 0.17099 0.16538 0.0
Co472 Co 0.74195 0.23735 0.18139 0.0
Co473 Co 0.79355 0.26325 0.15255 0.0
O474 O 0.7878 0.25978 0.17284 0.0
C475 C 0.72314 0.2941 0.20389 0.0
O476 O 0.68806 0.29652 0.1987 0.0
C477 C 0.87019 0.23279 0.16179 0.0
O478 O 0.85294 0.20381 0.16809 0.0
O479 O 0.78564 0.20628 0.15078 0.0
O480 O 0.73574 0.19949 0.1656 0.0
H481 H 0.75834 0.23616 0.10239 0.0
H482 H 0.81491 0.24339 0.19752 0.0
O483 O 0.74863 0.27404 0.19757 0.0
H484 H 0.78235 0.10482 0.19762 0.0
H485 H 0.66252 0.18508 0.22147 0.0
H486 H 0.66461 0.21499 0.17094 0.0
H487 H 0.73988 0.15185 0.18588 0.0
H488 H 0.72084 0.21262 0.2105 0.0
O489 O 0.85067 0.25722 0.15481 0.0
H490 H 0.75036 0.23287 0.12802 0.0
H491 H 0.85157 0.3004 0.13374 0.0
H492 H 0.60572 0.18736 0.18147 0.0
H493 H 0.85793 0.19742 0.20956 0.0
H494 H 0.60442 0.17224 0.20691 0.0
H495 H 0.84181 0.12754 0.20963 0.0
O496 O 0.70891 0.27552 0.171 0.0
H497 H 0.84765 0.38444 0.1739 0.0
H498 H 0.7605 0.33166 0.13778 0.0
H499 H 0.76748 0.40217 0.14017 0.0
H500 H 0.81143 0.42901 0.1583 0.0
H501 H 0.83952 0.3141 0.17125 0.0
H502 H 0.86081 0.30417 0.10816 0.0
H503 H 0.81392 0.272 0.09229 0.0
O504 O 0.7369 0.27077 0.14988 0.0
C505 C 0.75666 0.18733 0.15548 0.0
C506 C 0.77896 0.25032 0.10919 0.0
C507 C 0.8365 0.28843 0.11244 0.0
N508 N 0.80044 0.2664 0.13239 0.0
C509 C 0.77456 0.2486 0.12372 0.0
C510 C 0.83119 0.28606 0.12692 0.0
C511 C 0.81016 0.27041 0.10353 0.0
C512 C 0.80746 0.21309 0.19761 0.0
N513 N 0.77476 0.2004 0.19104 0.0
C514 C 0.83204 0.18717 0.2044 0.0
C515 C 0.82302 0.14796 0.20442 0.0
C516 C 0.78969 0.13519 0.19767 0.0
C517 C 0.76582 0.16195 0.19098 0.0
C518 C 0.66272 0.19156 0.21037 0.0
C519 C 0.66427 0.20852 0.18202 0.0
C520 C 0.69564 0.20719 0.2041 0.0
N521 N 0.69611 0.21552 0.19009 0.0
C522 C 0.63084 0.19285 0.18792 0.0
C523 C 0.63013 0.18437 0.2022 0.0
C524 C 0.70881 0.28067 0.15772 0.0
C525 C 0.8285 0.3731 0.16593 0.0
C526 C 0.77959 0.34308 0.14573 0.0
C527 C 0.78347 0.38305 0.14702 0.0
C528 C 0.80814 0.39809 0.15719 0.0
N529 N 0.7998 0.31874 0.15431 0.0
C530 C 0.82386 0.33328 0.16436 0.0
Co531 Co 0.78597 0.77108 0.68324 0.0
Co532 Co 0.72448 0.754 0.65572 0.0
O533 O 0.73538 0.75455 0.67602 0.0
C534 C 0.75973 0.70695 0.70284 0.0
O535 O 0.73081 0.698 0.69458 0.0
C536 C 0.64968 0.77824 0.66965 0.0
O537 O 0.66808 0.78955 0.68093 0.0
O538 O 0.73733 0.81007 0.65444 0.0
O539 O 0.79059 0.8105 0.66785 0.0
H540 H 0.75233 0.784 0.60515 0.0
H541 H 0.71753 0.77125 0.70231 0.0
O542 O 0.78376 0.73311 0.69929 0.0
H543 H 0.7683 0.90403 0.70364 0.0
H544 H 0.88395 0.80526 0.72032 0.0
H545 H 0.86057 0.78992 0.66965 0.0
H546 H 0.79991 0.85445 0.68918 0.0
H547 H 0.81978 0.78588 0.71161 0.0
O548 O 0.6683 0.76596 0.65904 0.0
H549 H 0.76538 0.78351 0.63053 0.0
H550 H 0.66014 0.7238 0.63792 0.0
H551 H 0.92508 0.80975 0.67792 0.0
H552 H 0.68559 0.81956 0.71716 0.0
H553 H 0.9371 0.81752 0.70342 0.0
H554 H 0.71079 0.88667 0.71786 0.0
O555 O 0.81182 0.73145 0.67127 0.0
H556 H 0.66094 0.63595 0.67616 0.0
H557 H 0.74852 0.68451 0.63944 0.0
H558 H 0.73484 0.61485 0.64089 0.0
H559 H 0.69062 0.59011 0.65932 0.0
H560 H 0.67587 0.70527 0.67448 0.0
H561 H 0.64582 0.72393 0.61262 0.0
H562 H 0.69215 0.75408 0.59603 0.0
O563 O 0.77946 0.74122 0.65128 0.0
C564 C 0.76878 0.82575 0.65856 0.0
C565 C 0.73189 0.7708 0.61227 0.0
C566 C 0.67211 0.73714 0.61647 0.0
N567 N 0.71352 0.75381 0.63574 0.0
C568 C 0.73913 0.77042 0.62667 0.0
C569 C 0.6803 0.73732 0.6308 0.0
C570 C 0.69812 0.75403 0.60716 0.0
C571 C 0.72914 0.80008 0.70266 0.0
N572 N 0.76075 0.80978 0.69485 0.0
C573 C 0.7107 0.82748 0.71104 0.0
C574 C 0.72479 0.86514 0.71141 0.0
C575 C 0.75699 0.8749 0.70342 0.0
C576 C 0.77465 0.84672 0.69516 0.0
C577 C 0.87906 0.802 0.70918 0.0
C578 C 0.8655 0.79342 0.68076 0.0
C579 C 0.8428 0.79089 0.70418 0.0
N580 N 0.83635 0.78692 0.69011 0.0
C581 C 0.90212 0.80457 0.68538 0.0
C582 C 0.90886 0.80889 0.69969 0.0
C583 C 0.80826 0.72785 0.65802 0.0
C584 C 0.68019 0.64637 0.66806 0.0
C585 C 0.72951 0.67403 0.64758 0.0
C586 C 0.72174 0.63452 0.6483 0.0
C587 C 0.6969 0.62066 0.65863 0.0
N588 N 0.71301 0.69913 0.65687 0.0
C589 C 0.68864 0.6857 0.66702 0.0
Co590 Co 0.78664 0.23374 0.32701 0.0
Co591 Co 0.72467 0.25239 0.35417 0.0
O592 O 0.73585 0.25039 0.33394 0.0
C593 C 0.76028 0.2966 0.30691 0.0
O594 O 0.73303 0.30769 0.31554 0.0
C595 C 0.65161 0.2229 0.34065 0.0
O596 O 0.67136 0.20699 0.33046 0.0
O597 O 0.73796 0.19662 0.35603 0.0
O598 O 0.79157 0.19567 0.34284 0.0
H599 H 0.75177 0.22642 0.40509 0.0
H600 H 0.71846 0.23155 0.30788 0.0
O601 O 0.78392 0.27014 0.31049 0.0
H602 H 0.76977 0.09896 0.30811 0.0
H603 H 0.88495 0.19715 0.29041 0.0
H604 H 0.86144 0.21708 0.34085 0.0
H605 H 0.80098 0.14991 0.3221 0.0
H606 H 0.82057 0.21651 0.29886 0.0
O607 O 0.6689 0.23961 0.35074 0.0
H608 H 0.76536 0.22527 0.37975 0.0
H609 H 0.65967 0.28313 0.37147 0.0
H610 H 0.92617 0.19734 0.33285 0.0
H611 H 0.68694 0.18182 0.29348 0.0
H612 H 0.93827 0.18728 0.30746 0.0
H613 H 0.71242 0.11483 0.29357 0.0
O614 O 0.81213 0.27457 0.33863 0.0
H615 H 0.65924 0.36755 0.33252 0.0
H616 H 0.74793 0.3236 0.36967 0.0
H617 H 0.73319 0.39288 0.36745 0.0
H618 H 0.68842 0.4153 0.3488 0.0
H619 H 0.67524 0.29861 0.33497 0.0
H620 H 0.64482 0.28465 0.39672 0.0
H621 H 0.69109 0.25625 0.41373 0.0
O622 O 0.7794 0.26614 0.35861 0.0
C623 C 0.76961 0.18091 0.35218 0.0
C624 C 0.73136 0.23887 0.39778 0.0
C625 C 0.67132 0.2715 0.39308 0.0
N626 N 0.71331 0.25396 0.3741 0.0
C627 C 0.7389 0.23831 0.38341 0.0
C628 C 0.67982 0.27039 0.37878 0.0
C629 C 0.69731 0.25559 0.40262 0.0
C630 C 0.73022 0.20275 0.30784 0.0
N631 N 0.76176 0.19387 0.31582 0.0
C632 C 0.71201 0.17456 0.29972 0.0
C633 C 0.72625 0.13697 0.29981 0.0
C634 C 0.75837 0.12804 0.30798 0.0
C635 C 0.7758 0.15699 0.31596 0.0
C636 C 0.88004 0.20144 0.3015 0.0
C637 C 0.8664 0.21259 0.32979 0.0
C638 C 0.84366 0.21255 0.30635 0.0
N639 N 0.83717 0.21782 0.32036 0.0
C640 C 0.90315 0.20149 0.32532 0.0
C641 C 0.90993 0.19588 0.31107 0.0
C642 C 0.80831 0.27914 0.35184 0.0
C643 C 0.67876 0.35815 0.3407 0.0
C644 C 0.72874 0.33308 0.36142 0.0
C645 C 0.72034 0.37238 0.36027 0.0
C646 C 0.69519 0.38493 0.34982 0.0
N647 N 0.71256 0.30695 0.35242 0.0
C648 C 0.68782 0.31908 0.34217 0.0
Co649 Co 0.73147 0.76928 0.8261 0.0
Co650 Co 0.79432 0.752 0.85322 0.0
O651 O 0.78254 0.75308 0.83299 0.0
C652 C 0.75739 0.70575 0.80626 0.0
O653 O 0.78629 0.69651 0.81448 0.0
C654 C 0.86804 0.77847 0.83907 0.0
O655 O 0.84896 0.79026 0.828 0.0
O656 O 0.78085 0.80781 0.85477 0.0
O657 O 0.72707 0.80821 0.84164 0.0
H658 H 0.7682 0.7802 0.90402 0.0
H659 H 0.79902 0.77063 0.80664 0.0
O660 O 0.73344 0.73183 0.80991 0.0
H661 H 0.74733 0.90304 0.80612 0.0
H662 H 0.6318 0.80356 0.78964 0.0
H663 H 0.65721 0.78684 0.84013 0.0
H664 H 0.71672 0.85274 0.82059 0.0
H665 H 0.69647 0.78464 0.79796 0.0
O666 O 0.85012 0.76499 0.84965 0.0
H667 H 0.75411 0.78021 0.87871 0.0
H668 H 0.85976 0.72219 0.87056 0.0
H669 H 0.59221 0.80618 0.83225 0.0
H670 H 0.82995 0.81968 0.79178 0.0
H671 H 0.57916 0.81464 0.80684 0.0
H672 H 0.80428 0.8866 0.79149 0.0
O673 O 0.70642 0.72906 0.83807 0.0
H674 H 0.85897 0.63583 0.83199 0.0
H675 H 0.77196 0.68154 0.86932 0.0
H676 H 0.78672 0.61219 0.86752 0.0
H677 H 0.83066 0.58889 0.84878 0.0
H678 H 0.84297 0.70482 0.83403 0.0
H679 H 0.87512 0.72183 0.89578 0.0
H680 H 0.82912 0.75088 0.91272 0.0
O681 O 0.73973 0.73817 0.85789 0.0
C682 C 0.74917 0.82337 0.85086 0.0
C683 C 0.7885 0.76746 0.89675 0.0
C684 C 0.84851 0.73476 0.89212 0.0
N685 N 0.80609 0.75135 0.87313 0.0
C686 C 0.78066 0.76737 0.88239 0.0
C687 C 0.83972 0.73521 0.87783 0.0
C688 C 0.82268 0.75103 0.90162 0.0
C689 C 0.7872 0.79938 0.80646 0.0
N690 N 0.75589 0.80858 0.8145 0.0
C691 C 0.80507 0.8272 0.79807 0.0
C692 C 0.79072 0.86475 0.79794 0.0
C693 C 0.75883 0.874 0.80616 0.0
C694 C 0.74174 0.84541 0.81442 0.0
C695 C 0.63713 0.79999 0.80074 0.0
C696 C 0.65183 0.79065 0.82906 0.0
C697 C 0.67368 0.78914 0.80552 0.0
N698 N 0.6807 0.78479 0.81954 0.0
C699 C 0.61493 0.80152 0.82466 0.0
C700 C 0.60762 0.80623 0.8104 0.0
C701 C 0.7107 0.72482 0.85127 0.0
C702 C 0.83984 0.64562 0.84022 0.0
C703 C 0.79082 0.67168 0.86105 0.0
C704 C 0.79921 0.63234 0.86013 0.0
C705 C 0.8239 0.61929 0.84963 0.0
N706 N 0.80655 0.69738 0.85178 0.0
C707 C 0.83078 0.68475 0.84146 0.0
Co708 Co 0.4907 0.47356 0.07724 0.0
Co709 Co 0.50739 0.53641 0.1044 0.0
O710 O 0.50689 0.52457 0.08418 0.0
C711 C 0.55439 0.4997 0.05742 0.0
O712 O 0.56299 0.52915 0.06546 0.0
C713 C 0.48257 0.61042 0.09 0.0
O714 O 0.47157 0.5915 0.0788 0.0
O715 O 0.45142 0.52297 0.10576 0.0
O716 O 0.45127 0.46928 0.0926 0.0
H717 H 0.47755 0.5104 0.1551 0.0
H718 H 0.48998 0.54134 0.0578 0.0
O719 O 0.52873 0.47539 0.0612 0.0
H720 H 0.35763 0.48934 0.05664 0.0
H721 H 0.45735 0.37394 0.04068 0.0
H722 H 0.47236 0.39937 0.09123 0.0
H723 H 0.40745 0.45876 0.07132 0.0
H724 H 0.47619 0.43856 0.04905 0.0
O725 O 0.49477 0.5923 0.10075 0.0
H726 H 0.47835 0.49625 0.1298 0.0
H727 H 0.53689 0.60181 0.12183 0.0
H728 H 0.4531 0.33442 0.0833 0.0
H729 H 0.44144 0.57224 0.04274 0.0
H730 H 0.4455 0.32136 0.05786 0.0
H731 H 0.37453 0.54642 0.04212 0.0
O732 O 0.53037 0.44838 0.08942 0.0
H733 H 0.62462 0.60026 0.08347 0.0
H734 H 0.57724 0.51432 0.12089 0.0
H735 H 0.64674 0.52882 0.11935 0.0
H736 H 0.67088 0.57223 0.10057 0.0
H737 H 0.55549 0.58451 0.08525 0.0
H738 H 0.53647 0.6172 0.14704 0.0
H739 H 0.50675 0.57128 0.16388 0.0
O740 O 0.52096 0.48185 0.10917 0.0
C741 C 0.4359 0.49131 0.10178 0.0
C742 C 0.49056 0.53067 0.14787 0.0
C743 C 0.52358 0.59062 0.14334 0.0
N744 N 0.50746 0.54822 0.12431 0.0
C745 C 0.49109 0.52282 0.13352 0.0
C746 C 0.52355 0.58181 0.12906 0.0
C747 C 0.50693 0.56483 0.15279 0.0
C748 C 0.46127 0.52944 0.05748 0.0
N749 N 0.45183 0.49805 0.06546 0.0
C750 C 0.43372 0.5473 0.04898 0.0
C751 C 0.39618 0.53287 0.04866 0.0
C752 C 0.38667 0.50091 0.05682 0.0
C753 C 0.41499 0.48383 0.0652 0.0
C754 C 0.46054 0.37928 0.05179 0.0
C755 C 0.46893 0.39399 0.08014 0.0
C756 C 0.47134 0.4158 0.0566 0.0
N757 N 0.47522 0.42283 0.07063 0.0
C758 C 0.4581 0.35712 0.07572 0.0
C759 C 0.45387 0.3498 0.06144 0.0
C760 C 0.53426 0.4527 0.10264 0.0
C761 C 0.61446 0.58136 0.09172 0.0
C762 C 0.58746 0.53294 0.1126 0.0
C763 C 0.62688 0.5412 0.11183 0.0
C764 C 0.6404 0.56559 0.1013 0.0
N765 N 0.56213 0.54853 0.10316 0.0
C766 C 0.57524 0.57245 0.09282 0.0
Co767 Co 0.02929 0.54196 0.57547 0.0
Co768 Co 1.00171 0.47245 0.59924 0.0
O769 O 0.01015 0.49017 0.57995 0.0
C770 C 0.96447 0.52826 0.55467 0.0
O771 O 0.94548 0.50664 0.5636 0.0
C772 C 0.04086 0.39654 0.59974 0.0
O773 O 0.06157 0.40972 0.61024 0.0
O774 O 0.05613 0.4862 0.60441 0.0
O775 O 0.06489 0.54071 0.59201 0.0
H776 H 0.00919 0.48127 0.65177 0.0
H777 H 0.03126 0.47815 0.55476 0.0
O778 O 0.99582 0.54474 0.5583 0.0
H779 H 0.16538 0.52528 0.5577 0.0
H780 H 0.07506 0.64885 0.54363 0.0
H781 H 0.0462 0.61157 0.59239 0.0
H782 H 0.11387 0.55581 0.57162 0.0
H783 H 0.05228 0.58315 0.54916 0.0
O784 O 0.01764 0.41906 0.59336 0.0
H785 H 0.01956 0.50333 0.62749 0.0
H786 H 0.96433 0.40266 0.61189 0.0
H787 H 0.0694 0.67744 0.58735 0.0
H788 H 0.08167 0.44715 0.54045 0.0
H789 H 0.08396 0.69647 0.56281 0.0
H790 H 0.14936 0.47059 0.5419 0.0
O791 O 0.98766 0.56587 0.58717 0.0
H792 H 0.89792 0.41206 0.56957 0.0
H793 H 0.9245 0.49034 0.61163 0.0
H794 H 0.85716 0.47533 0.60528 0.0
H795 H 0.8435 0.43573 0.58416 0.0
H796 H 0.9648 0.42844 0.5761 0.0
H797 H 0.95334 0.3795 0.63599 0.0
H798 H 0.97588 0.41889 0.65614 0.0
O799 O 0.9852 0.52489 0.60536 0.0
C800 C 0.0751 0.51688 0.60152 0.0
C801 C 0.99936 0.46377 0.64308 0.0
C802 C 0.968 0.40667 0.63422 0.0
N803 N 0.99296 0.4542 0.61827 0.0
C804 C 0.00526 0.47608 0.6293 0.0
C805 C 0.97437 0.41993 0.6206 0.0
C806 C 0.98064 0.42879 0.64552 0.0
C807 C 0.06061 0.48859 0.55545 0.0
N808 N 0.06966 0.51856 0.56417 0.0
C809 C 0.08905 0.47088 0.54732 0.0
C810 C 0.12702 0.48402 0.54815 0.0
C811 C 0.13604 0.51465 0.55703 0.0
C812 C 0.10683 0.53164 0.56499 0.0
C813 C 0.06878 0.64092 0.55436 0.0
C814 C 0.05263 0.61956 0.58169 0.0
C815 C 0.05566 0.6038 0.55755 0.0
N816 N 0.04793 0.59347 0.57109 0.0
C817 C 0.06568 0.65694 0.5789 0.0
C818 C 0.07381 0.66761 0.56513 0.0
C819 C 0.97758 0.55729 0.59968 0.0
C820 C 0.9035 0.42922 0.57882 0.0
C821 C 0.91885 0.47346 0.60233 0.0
C822 C 0.88063 0.46486 0.59883 0.0
C823 C 0.87299 0.44259 0.587 0.0
N824 N 0.94867 0.46022 0.59427 0.0
C825 C 0.94136 0.43839 0.58264 0.0
Co826 Co 0.49327 0.53266 0.93343 0.0
Co827 Co 0.51127 0.46944 0.90652 0.0
O828 O 0.50942 0.48143 0.92671 0.0
C829 C 0.55555 0.50631 0.95378 0.0
O830 O 0.56468 0.477 0.94576 0.0
C831 C 0.48515 0.39554 0.92074 0.0
O832 O 0.475 0.41428 0.93207 0.0
O833 O 0.45561 0.4833 0.9046 0.0
O834 O 0.45501 0.53718 0.91764 0.0
H835 H 0.48546 0.49534 0.85551 0.0
H836 H 0.49052 0.46526 0.95299 0.0
O837 O 0.53006 0.53057 0.94986 0.0
H838 H 0.35849 0.518 0.9526 0.0
H839 H 0.4582 0.63283 0.96954 0.0
H840 H 0.47674 0.60688 0.91919 0.0
H841 H 0.4097 0.5481 0.93843 0.0
H842 H 0.47701 0.56798 0.96142 0.0
O843 O 0.49766 0.41372 0.91005 0.0
H844 H 0.48447 0.50964 0.88079 0.0
H845 H 0.54134 0.40366 0.88945 0.0
H846 H 0.45753 0.67205 0.92686 0.0
H847 H 0.44053 0.4348 0.96755 0.0
H848 H 0.44816 0.68538 0.9522 0.0
H849 H 0.3738 0.461 0.96739 0.0
O850 O 0.53415 0.55736 0.92165 0.0
H851 H 0.6264 0.40462 0.92856 0.0
H852 H 0.58246 0.49105 0.89074 0.0
H853 H 0.65168 0.47595 0.89293 0.0
H854 H 0.67409 0.43229 0.91192 0.0
H855 H 0.55758 0.42095 0.92614 0.0
H856 H 0.54267 0.3881 0.86426 0.0
H857 H 0.51469 0.43416 0.84708 0.0
O858 O 0.52569 0.52385 0.90186 0.0
C859 C 0.44011 0.51513 0.90836 0.0
C860 C 0.49773 0.47502 0.86289 0.0
C861 C 0.52978 0.41482 0.8678 0.0
N862 N 0.51269 0.4575 0.88663 0.0
C863 C 0.49726 0.48296 0.87723 0.0
C864 C 0.52878 0.42373 0.88207 0.0
C865 C 0.51411 0.44069 0.85817 0.0
C866 C 0.46185 0.47729 0.95295 0.0
N867 N 0.45328 0.50861 0.94482 0.0
C868 C 0.4335 0.45969 0.96118 0.0
C869 C 0.39605 0.47434 0.96107 0.0
C870 C 0.38744 0.50626 0.95275 0.0
C871 C 0.41654 0.52306 0.94466 0.0
C872 C 0.46217 0.62738 0.95847 0.0
C873 C 0.47254 0.61238 0.93023 0.0
C874 C 0.47296 0.59073 0.95381 0.0
N875 N 0.47782 0.58357 0.93983 0.0
C876 C 0.46174 0.64938 0.93451 0.0
C877 C 0.45652 0.65684 0.94873 0.0
C878 C 0.53884 0.55294 0.90848 0.0
C879 C 0.61699 0.4236 0.92022 0.0
C880 C 0.59192 0.47229 0.89911 0.0
C881 C 0.63119 0.46371 0.90026 0.0
C882 C 0.64374 0.43918 0.9109 0.0
N883 N 0.56579 0.45687 0.90829 0.0
C884 C 0.57794 0.43283 0.91875 0.0
Co885 Co 0.03439 0.47158 0.4311 0.0
Co886 Co 0.0084 0.53535 0.40542 0.0
O887 O 0.01586 0.52259 0.4253 0.0
C888 C 0.96951 0.4856 0.45195 0.0
O889 O 0.94417 0.49349 0.44212 0.0
C890 C 0.03513 0.60953 0.41932 0.0
O891 O 0.04598 0.59105 0.43063 0.0
O892 O 0.06352 0.52219 0.40146 0.0
O893 O 0.06775 0.46737 0.41396 0.0
H894 H 0.02095 0.51241 0.3536 0.0
H895 H 0.04102 0.53798 0.45057 0.0
O896 O 0.00365 0.47518 0.4488 0.0
H897 H 0.17353 0.48803 0.44561 0.0
H898 H 0.08001 0.37158 0.46576 0.0
H899 H 0.04736 0.39751 0.41634 0.0
H900 H 0.11925 0.45674 0.43338 0.0
H901 H 0.05855 0.4363 0.45837 0.0
O902 O 0.0222 0.59112 0.40875 0.0
H903 H 0.02885 0.49689 0.37864 0.0
H904 H 0.9729 0.60142 0.38991 0.0
H905 H 0.06906 0.33247 0.42326 0.0
H906 H 0.09423 0.56981 0.46325 0.0
H907 H 0.08554 0.31915 0.44813 0.0
H908 H 0.16116 0.545 0.46075 0.0
O909 O 0.99047 0.44655 0.42085 0.0
H910 H 0.8989 0.59312 0.43304 0.0
H911 H 0.93365 0.51513 0.39174 0.0
H912 H 0.86511 0.52835 0.39671 0.0
H913 H 0.84733 0.56779 0.41745 0.0
H914 H 0.96695 0.57885 0.42779 0.0
H915 H 0.96471 0.61823 0.36499 0.0
H916 H 0.98869 0.5735 0.34662 0.0
O917 O 0.99352 0.48101 0.40103 0.0
C918 C 0.08018 0.49027 0.40446 0.0
C919 C 0.01035 0.53214 0.3615 0.0
C920 C 0.97885 0.59154 0.3679 0.0
N921 N 1.00142 0.54818 0.38576 0.0
C922 C 0.01472 0.52348 0.37571 0.0
C923 C 0.98373 0.58192 0.382 0.0
C924 C 0.99228 0.56642 0.3576 0.0
C925 C 0.07004 0.52703 0.44939 0.0
N926 N 0.0771 0.496 0.44094 0.0
C927 C 0.10007 0.54518 0.45661 0.0
C928 C 0.1376 0.53126 0.4552 0.0
C929 C 0.14457 0.49938 0.44668 0.0
C930 C 0.11379 0.482 0.43963 0.0
C931 C 0.07293 0.37703 0.45488 0.0
C932 C 0.05466 0.39202 0.42717 0.0
C933 C 0.06062 0.41361 0.45064 0.0
N934 N 0.05186 0.42078 0.43691 0.0
C935 C 0.06685 0.3551 0.43103 0.0
C936 C 0.07606 0.34763 0.44499 0.0
C937 C 0.9827 0.45132 0.40786 0.0
C938 C 0.90629 0.57619 0.4239 0.0
C939 C 0.92622 0.53238 0.40078 0.0
C940 C 0.88732 0.53976 0.40354 0.0
C941 C 0.87737 0.56189 0.41517 0.0
N942 N 0.9545 0.54686 0.4093 0.0
C943 C 0.94489 0.56823 0.42081 0.0
H944 H 0.03766 0.15205 0.61553 0.0
H945 H 0.994 0.35803 0.58113 0.0
H946 H 0.9572 0.16722 0.58139 0.0
H947 H 0.07861 0.33844 0.61361 0.0
H948 H 0.98153 0.28855 0.58026 0.0
H949 H 0.05304 0.22035 0.61454 0.0
C950 C 0.02299 0.16975 0.60784 0.0
C951 C 0.9959 0.15367 0.59855 0.0
C952 C 0.00306 0.29944 0.58748 0.0
C953 C 0.01382 0.2326 0.59731 0.0
C954 C 0.0104 0.33914 0.58794 0.0
C955 C 0.03735 0.35427 0.59751 0.0
C956 C 0.02271 0.27462 0.59668 0.0
C957 C 0.05755 0.32825 0.60608 0.0
C958 C 0.032 0.2089 0.60725 0.0
C959 C 0.9781 0.17832 0.5888 0.0
N960 N 0.04961 0.28985 0.60553 0.0
N961 N 0.98736 0.21659 0.58844 0.0
H962 H 0.91645 0.78098 0.81618 0.0
H963 H 0.10637 0.73645 0.8614 0.0
H964 H 0.91685 0.76603 0.86109 0.0
H965 H 0.1042 0.72978 0.81624 0.0
H966 H 0.03738 0.75036 0.86132 0.0
H967 H 0.98594 0.76703 0.81584 0.0
C968 C 0.93118 0.77527 0.82598 0.0
C969 C 0.91071 0.77467 0.83869 0.0
C970 C 0.05185 0.74563 0.85141 0.0
C971 C 0.99007 0.75829 0.83834 0.0
C972 C 0.09131 0.73757 0.85145 0.0
C973 C 0.1112 0.73187 0.8388 0.0
C974 C 0.03192 0.74844 0.83863 0.0
C975 C 0.09003 0.73371 0.82625 0.0
C976 C 0.97078 0.76696 0.82576 0.0
C977 C 0.93131 0.76669 0.85104 0.0
N978 N 0.05159 0.74211 0.82647 0.0
N979 N 0.96971 0.75882 0.85055 0.0
H980 H 0.48239 0.65857 0.06702 0.0
H981 H 0.53374 0.84731 0.11193 0.0
H982 H 0.49556 0.65926 0.112 0.0
H983 H 0.53859 0.84473 0.06675 0.0
H984 H 0.51737 0.77886 0.112 0.0
H985 H 0.49874 0.7275 0.06657 0.0
C986 C 0.48821 0.67326 0.07681 0.0
C987 C 0.48761 0.65299 0.08957 0.0
C988 C 0.52223 0.79311 0.10206 0.0
C989 C 0.50679 0.73176 0.0891 0.0
C990 C 0.53172 0.83227 0.10201 0.0
C991 C 0.53761 0.85192 0.08931 0.0
C992 C 0.51822 0.77323 0.08931 0.0
C993 C 0.53456 0.83076 0.07679 0.0
C994 C 0.49788 0.71254 0.07653 0.0
C995 C 0.49579 0.67355 0.10191 0.0
N996 N 0.52482 0.79264 0.0771 0.0
N997 N 0.50505 0.71165 0.10136 0.0
H998 H 0.6046 0.2134 0.31758 0.0
H999 H 0.41321 0.27509 0.3591 0.0
H1000 H 0.60171 0.2428 0.36152 0.0
H1001 H 0.4167 0.26362 0.31408 0.0
H1002 H 0.48211 0.26124 0.36006 0.0
H1003 H 0.53527 0.22777 0.31605 0.0
C1004 C 0.58935 0.22238 0.32693 0.0
C1005 C 0.60906 0.22692 0.3397 0.0
C1006 C 0.46797 0.26199 0.34994 0.0
C1007 C 0.52997 0.24381 0.33798 0.0
C1008 C 0.42856 0.27004 0.34938 0.0
C1009 C 0.40905 0.27055 0.33648 0.0
C1010 C 0.48825 0.254 0.33753 0.0
C1011 C 0.43058 0.26377 0.32425 0.0
C1012 C 0.54987 0.23092 0.32602 0.0
C1013 C 0.58785 0.23904 0.35144 0.0
N1014 N 0.46898 0.25548 0.32508 0.0
N1015 N 0.54962 0.24706 0.35029 0.0
H1016 H 0.98504 0.84591 0.44366 0.0
H1017 H 0.0234 0.65755 0.39701 0.0
H1018 H 0.99303 0.8468 0.39852 0.0
H1019 H 0.03619 0.65852 0.44201 0.0
H1020 H 0.00905 0.7264 0.39756 0.0
H1021 H 0.99877 0.77642 0.44348 0.0
C1022 C 0.98913 0.83145 0.43371 0.0
C1023 C 0.98792 0.85227 0.42108 0.0
C1024 C 0.01521 0.71168 0.40733 0.0
C1025 C 0.00407 0.77295 0.42083 0.0
C1026 C 0.02354 0.67231 0.40701 0.0
C1027 C 0.03107 0.65214 0.41948 0.0
C1028 C 0.01403 0.73122 0.42021 0.0
C1029 C 0.03081 0.67292 0.43213 0.0
C1030 C 0.99733 0.79186 0.43363 0.0
C1031 C 0.99384 0.83203 0.40851 0.0
N1032 N 0.02214 0.71127 0.43218 0.0
N1033 N 1.00169 0.79363 0.40872 0.0
H1034 H 0.41312 0.7256 0.69373 0.0
H1035 H 0.60192 0.76558 0.64733 0.0
H1036 H 0.41333 0.73079 0.64853 0.0
H1037 H 0.60042 0.77827 0.69232 0.0
H1038 H 0.5333 0.75006 0.64781 0.0
H1039 H 0.48244 0.74037 0.69368 0.0
C1040 C 0.42778 0.7293 0.68379 0.0
C1041 C 0.40727 0.72697 0.67111 0.0
C1042 C 0.54783 0.75643 0.65759 0.0
C1043 C 0.48648 0.74435 0.671 0.0
C1044 C 0.5871 0.76542 0.65732 0.0
C1045 C 0.60709 0.7733 0.6698 0.0
C1046 C 0.52816 0.75495 0.67045 0.0
C1047 C 0.58618 0.77265 0.68242 0.0
C1048 C 0.46729 0.73809 0.68378 0.0
C1049 C 0.42781 0.73244 0.65857 0.0
N1050 N 0.54791 0.76338 0.68244 0.0
N1051 N 0.46612 0.7409 0.65884 0.0
H1052 H 0.48482 0.34649 0.94346 0.0
H1053 H 0.52493 0.1579 0.89713 0.0
H1054 H 0.49508 0.34731 0.89839 0.0
H1055 H 0.53618 0.15894 0.94217 0.0
H1056 H 0.51077 0.22679 0.89759 0.0
H1057 H 0.49871 0.27703 0.9434 0.0
C1058 C 0.48947 0.33203 0.93355 0.0
C1059 C 0.48879 0.35285 0.92091 0.0
C1060 C 0.51655 0.21209 0.90738 0.0
C1061 C 0.50511 0.27349 0.92079 0.0
C1062 C 0.52475 0.17268 0.90713 0.0
C1063 C 0.53182 0.15251 0.91964 0.0
C1064 C 0.51499 0.23169 0.92025 0.0
C1065 C 0.53117 0.17334 0.93227 0.0
C1066 C 0.49775 0.29245 0.93353 0.0
C1067 C 0.49543 0.33258 0.90839 0.0
N1068 N 0.52262 0.21174 0.93227 0.0
N1069 N 0.50332 0.29417 0.90866 0.0
H1070 H 0.11763 0.205 0.16156 0.0
H1071 H 0.91012 0.29961 0.15745 0.0
H1072 H 0.1003 0.32713 0.16783 0.0
H1073 H 0.92635 0.18056 0.16945 0.0
H1074 H 0.97968 0.30997 0.1593 0.0
H1075 H 0.04793 0.19515 0.16261 0.0
C1076 C 0.09916 0.22981 0.1632 0.0
C1077 C 0.11486 0.26705 0.16455 0.0
C1078 C 0.96802 0.28165 0.1616 0.0
C1079 C 0.0348 0.25584 0.1656 0.0
C1080 C 0.92832 0.27557 0.16047 0.0
C1081 C 0.91236 0.23901 0.16322 0.0
C1082 C 0.99221 0.25082 0.16526 0.0
C1083 C 0.9374 0.20915 0.16721 0.0
C1084 C 0.05935 0.22406 0.16386 0.0
C1085 C 0.08945 0.29797 0.16675 0.0
N1086 N 0.97617 0.2156 0.16796 0.0
N1087 N 0.05058 0.29175 0.16704 0.0
H1088 H 0.04485 0.06203 0.47359 0.0
H1089 H 0.08311 0.91788 0.53738 0.0
H1090 H 0.09042 0.94713 0.46814 0.0
H1091 H 0.04516 0.03577 0.54225 0.0
H1092 H 0.09348 0.93002 0.51237 0.0
H1093 H 0.05226 0.05513 0.49889 0.0
C1094 C 0.05697 0.03551 0.4777 0.0
C1095 C 0.06671 0.005 0.46868 0.0
C1096 C 0.08341 0.95338 0.51896 0.0
C1097 C 0.07481 0.99663 0.49782 0.0
C1098 C 0.0776 0.94651 0.53327 0.0
C1099 C 0.06286 0.97571 0.54197 0.0
C1100 C 0.07427 0.98968 0.51325 0.0
C1101 C 0.05626 0.01222 0.53599 0.0
C1102 C 0.06115 0.03155 0.49218 0.0
C1103 C 0.08249 0.97142 0.47466 0.0
N1104 N 0.06158 0.01798 0.52202 0.0
N1105 N 0.08554 0.96793 0.48884 0.0
H1106 H 0.20451 0.82763 0.79074 0.0
H1107 H 0.31814 0.82453 0.71764 0.0
H1108 H 0.32493 0.79748 0.78699 0.0
H1109 H 0.19576 0.80323 0.72119 0.0
H1110 H 0.32133 0.83379 0.74309 0.0
H1111 H 0.20186 0.83772 0.7653 0.0
C1112 C 0.23062 0.82403 0.78463 0.0
C1113 C 0.26496 0.81149 0.791 0.0
C1114 C 0.2937 0.82776 0.73824 0.0
C1115 C 0.26207 0.82305 0.76193 0.0
C1116 C 0.29177 0.82278 0.7237 0.0
C1117 C 0.25664 0.8129 0.71727 0.0
C1118 C 0.26017 0.82344 0.74638 0.0
C1119 C 0.22347 0.8106 0.72572 0.0
C1120 C 0.22898 0.82952 0.77011 0.0
C1121 C 0.2978 0.80692 0.78251 0.0
N1122 N 0.22607 0.81564 0.73983 0.0
N1123 N 0.29551 0.81255 0.76842 0.0
H1124 H 0.46902 0.06634 0.03822 0.0
H1125 H 0.46577 0.93689 0.9707 0.0
H1126 H 0.44495 0.94428 0.04035 0.0
H1127 H 0.44079 0.05877 0.96893 0.0
H1128 H 0.45691 0.93852 0.99613 0.0
H1129 H 0.45748 0.0646 0.01293 0.0
C1130 C 0.46059 0.0393 0.0334 0.0
C1131 C 0.45803 0.00538 0.04142 0.0
C1132 C 0.45264 0.96476 0.99016 0.0
C1133 C 0.44566 0.00302 0.01239 0.0
C1134 C 0.45769 0.96386 0.97564 0.0
C1135 C 0.4541 0.99777 0.96767 0.0
C1136 C 0.44482 1.00001 0.99684 0.0
C1137 C 0.4437 0.03191 0.97464 0.0
C1138 C 0.454 0.03833 0.01896 0.0
C1139 C 0.4471 0.97114 0.0346 0.0
N1140 N 0.44013 0.03232 0.98885 0.0
N1141 N 0.44202 0.97069 0.02045 0.0
H1142 H 0.20706 0.17114 0.21643 0.0
H1143 H 0.31894 0.17726 0.28984 0.0
H1144 H 0.32592 0.2069 0.22048 0.0
H1145 H 0.19638 0.19686 0.28597 0.0
H1146 H 0.32281 0.16868 0.26436 0.0
H1147 H 0.20433 0.16127 0.24187 0.0
C1148 C 0.23284 0.17606 0.22261 0.0
C1149 C 0.26674 0.19006 0.21633 0.0
C1150 C 0.295 0.17418 0.26915 0.0
C1151 C 0.26376 0.17867 0.24539 0.0
C1152 C 0.29268 0.17875 0.28369 0.0
C1153 C 0.25728 0.18791 0.29004 0.0
C1154 C 0.26158 0.17812 0.26093 0.0
C1155 C 0.22427 0.18998 0.2815 0.0
C1156 C 0.23115 0.17067 0.23713 0.0
C1157 C 0.29915 0.19628 0.2249 0.0
N1158 N 0.22724 0.18527 0.26738 0.0
N1159 N 0.29683 0.19067 0.23899 0.0
H1160 H 0.67253 0.32511 0.22309 0.0
H1161 H 0.81632 0.28726 0.287 0.0
H1162 H 0.79155 0.29065 0.2183 0.0
H1163 H 0.70062 0.33088 0.29245 0.0
H1164 H 0.80969 0.29555 0.26173 0.0
H1165 H 0.68394 0.33467 0.24819 0.0
C1166 C 0.70123 0.32021 0.22724 0.0
C1167 C 0.731 0.30667 0.21853 0.0
C1168 C 0.78587 0.30382 0.26843 0.0
C1169 C 0.74414 0.31713 0.24735 0.0
C1170 C 0.78968 0.29914 0.2829 0.0
C1171 C 0.75888 0.30809 0.2919 0.0
C1172 C 0.75082 0.31716 0.2628 0.0
C1173 C 0.72514 0.32357 0.28594 0.0
C1174 C 0.70769 0.32555 0.24161 0.0
C1175 C 0.76757 0.30079 0.22456 0.0
N1176 N 0.72181 0.3271 0.27176 0.0
N1177 N 0.77294 0.30562 0.23857 0.0
H1178 H 0.6989 0.68029 0.71851 0.0
H1179 H 0.81807 0.67924 0.79051 0.0
H1180 H 0.82084 0.70503 0.72102 0.0
H1181 H 0.69628 0.70455 0.78807 0.0
H1182 H 0.81912 0.66992 0.76504 0.0
H1183 H 0.6978 0.6704 0.74396 0.0
C1184 C 0.72563 0.68271 0.72435 0.0
C1185 C 0.75999 0.6937 0.71763 0.0
C1186 C 0.79207 0.67687 0.77013 0.0
C1187 C 0.75886 0.68243 0.74673 0.0
C1188 C 0.79136 0.68191 0.78468 0.0
C1189 C 0.75706 0.69289 0.79143 0.0
C1190 C 0.75813 0.68226 0.7623 0.0
C1191 C 0.7234 0.69632 0.78329 0.0
C1192 C 0.72489 0.67735 0.73888 0.0
C1193 C 0.79367 0.6968 0.72578 0.0
N1194 N 0.72481 0.6912 0.76916 0.0
N1195 N 0.79223 0.69137 0.7399 0.0
H1196 H 0.55641 0.56783 0.97176 0.0
H1197 H 0.55625 0.4381 0.03949 0.0
H1198 H 0.58088 0.44585 0.96995 0.0
H1199 H 0.57984 0.56029 0.04135 0.0
H1200 H 0.56606 0.43991 0.0141 0.0
H1201 H 0.56573 0.56607 0.99718 0.0
C1202 C 0.56442 0.5408 0.97668 0.0
C1203 C 0.5678 0.50692 0.96869 0.0
C1204 C 0.56979 0.4662 0.02009 0.0
C1205 C 0.57765 0.50454 0.99787 0.0
C1206 C 0.5642 0.46519 0.03459 0.0
C1207 C 0.56717 0.49911 0.04258 0.0
C1208 C 0.57755 0.50154 0.01343 0.0
C1209 C 0.57742 0.5334 0.03564 0.0
C1210 C 0.56974 0.53982 0.9912 0.0
C1211 C 0.57814 0.4727 0.97566 0.0
N1212 N 0.58155 0.53388 0.02145 0.0
N1213 N 0.58202 0.47224 0.98986 0.0
H1214 H 0.99415 0.57478 0.53434 0.0
H1215 H 0.89889 0.49047 0.46582 0.0
H1216 H 0.91201 0.48238 0.54031 0.0
H1217 H 0.02202 0.49828 0.47249 0.0
H1218 H 0.88913 0.50425 0.49109 0.0
H1219 H 0.98844 0.56661 0.50909 0.0
C1220 C 0.97436 0.55317 0.53038 0.0
C1221 C 0.9542 0.52863 0.53954 0.0
C1222 C 0.91811 0.50285 0.48686 0.0
C1223 C 0.94717 0.51974 0.51049 0.0
C1224 C 0.92372 0.49515 0.47251 0.0
C1225 C 0.96133 0.49321 0.46699 0.0
C1226 C 0.9503 0.50986 0.49546 0.0
C1227 C 0.99249 0.49943 0.47616 0.0
C1228 C 0.97111 0.54865 0.51595 0.0
C1229 C 0.92838 0.50169 0.53365 0.0
N1230 N 0.98624 0.50786 0.48982 0.0
N1231 N 0.92592 0.49754 0.51944 0.0
H1232 H 0.20749 0.78713 0.6292 0.0
H1233 H 0.02242 0.9242 0.62895 0.0
H1234 H 0.14212 0.81577 0.66631 0.0
H1235 H 0.08998 0.9007 0.59195 0.0
H1236 H 0.06159 0.87858 0.64208 0.0
H1237 H 0.16142 0.82304 0.61505 0.0
C1238 C 0.1834 0.80088 0.63443 0.0
C1239 C 0.17904 0.79864 0.64908 0.0
C1240 C 0.06774 0.883 0.63107 0.0
C1241 C 0.12578 0.83991 0.63272 0.0
C1242 C 0.04529 0.90904 0.62351 0.0
C1243 C 0.05318 0.91662 0.60933 0.0
C1244 C 0.09867 0.86432 0.62447 0.0
C1245 C 0.08288 0.89572 0.60285 0.0
C1246 C 0.15701 0.82137 0.62627 0.0
C1247 C 0.14692 0.81687 0.6551 0.0
N1248 N 0.10489 0.87082 0.61053 0.0
N1249 N 0.12167 0.83687 0.64691 0.0
H1250 H 0.37298 0.82443 0.84059 0.0
H1251 H 0.43992 0.8908 0.91757 0.0
H1252 H 0.31914 0.78523 0.87886 0.0
H1253 H 0.47914 0.94475 0.87932 0.0
H1254 H 0.4016 0.84552 0.90351 0.0
H1255 H 0.41844 0.8626 0.85464 0.0
C1256 C 0.37086 0.82358 0.85191 0.0
C1257 C 0.34189 0.80183 0.85851 0.0
C1258 C 0.41879 0.86721 0.89822 0.0
C1259 C 0.3938 0.84532 0.87465 0.0
C1260 C 0.44075 0.89298 0.90625 0.0
C1261 C 0.46254 0.92193 0.89967 0.0
C1262 C 0.41885 0.87023 0.88351 0.0
C1263 C 0.46252 0.92324 0.88492 0.0
C1264 C 0.39674 0.84544 0.85994 0.0
C1265 C 0.34065 0.80182 0.87326 0.0
N1266 N 0.44096 0.89794 0.87737 0.0
N1267 N 0.36606 0.82327 0.88079 0.0
H1268 H 0.45148 0.11613 0.09103 0.0
H1269 H 0.37674 0.17693 0.1676 0.0
H1270 H 0.4859 0.05879 0.12925 0.0
H1271 H 0.33268 0.2247 0.12898 0.0
H1272 H 0.42368 0.13943 0.15396 0.0
H1273 H 0.414 0.16205 0.10503 0.0
C1274 C 0.45141 0.1133 0.10233 0.0
C1275 C 0.47159 0.08322 0.10891 0.0
C1276 C 0.40389 0.15841 0.14851 0.0
C1277 C 0.42882 0.13569 0.12502 0.0
C1278 C 0.37725 0.17994 0.1563 0.0
C1279 C 0.35041 0.20365 0.14944 0.0
C1280 C 0.40377 0.16082 0.13377 0.0
C1281 C 0.35241 0.2064 0.13475 0.0
C1282 C 0.42998 0.1395 0.11033 0.0
C1283 C 0.47052 0.08119 0.12365 0.0
N1284 N 0.37836 0.18511 0.12743 0.0
N1285 N 0.44939 0.10686 0.13117 0.0
H1286 H 0.04122 0.05808 0.37999 0.0
H1287 H 0.20433 0.22032 0.37827 0.0
H1288 H 0.0864 0.11182 0.41739 0.0
H1289 H 0.14893 0.17553 0.34112 0.0
H1290 H 0.16043 0.18252 0.39269 0.0
H1291 H 0.07905 0.10216 0.36578 0.0
C1292 C 0.05902 0.07926 0.38527 0.0
C1293 C 0.06078 0.08089 0.4 0.0
C1294 C 0.15766 0.18109 0.3814 0.0
C1295 C 0.10461 0.13183 0.38355 0.0
C1296 C 0.18282 0.20266 0.37309 0.0
C1297 C 0.18064 0.20098 0.35837 0.0
C1298 C 0.13004 0.1573 0.37501 0.0
C1299 C 0.15185 0.17771 0.35238 0.0
C1300 C 0.08062 0.10458 0.37708 0.0
C1301 C 0.08418 0.10938 0.40611 0.0
N1302 N 0.1279 0.15658 0.36073 0.0
N1303 N 0.10544 0.13352 0.39786 0.0
H1304 H 0.91375 0.99294 0.38207 0.0
H1305 H 0.74951 0.15476 0.37851 0.0
H1306 H 0.88982 0.07087 0.41626 0.0
H1307 H 0.825 0.12965 0.3437 0.0
H1308 H 0.78436 0.10659 0.39254 0.0
H1309 H 0.86439 0.02622 0.36806 0.0
C1310 C 0.89769 0.01639 0.38676 0.0
C1311 C 0.90642 0.02934 0.40035 0.0
C1312 C 0.7926 0.11124 0.38172 0.0
C1313 C 0.84933 0.06663 0.38452 0.0
C1314 C 0.77275 0.13867 0.3737 0.0
C1315 C 0.78466 0.14685 0.35994 0.0
C1316 C 0.82376 0.09109 0.37581 0.0
C1317 C 0.81486 0.12465 0.35426 0.0
C1318 C 0.86958 0.03533 0.37875 0.0
C1319 C 0.88434 0.05984 0.40586 0.0
N1320 N 0.83344 0.09794 0.36222 0.0
N1321 N 0.85694 0.07748 0.39793 0.0
H1322 H 0.64133 0.0693 0.09094 0.0
H1323 H 0.70738 0.13154 0.16513 0.0
H1324 H 0.61886 0.99629 0.12669 0.0
H1325 H 0.77357 0.16338 0.12858 0.0
H1326 H 0.67582 0.081 0.15157 0.0
H1327 H 0.69071 0.10298 0.1043 0.0
C1328 C 0.6472 0.05973 0.10151 0.0
C1329 C 0.62543 0.02995 0.10769 0.0
C1330 C 0.69778 0.09854 0.14658 0.0
C1331 C 0.68161 0.06955 0.12325 0.0
C1332 C 0.7159 0.12753 0.15432 0.0
C1333 C 0.743 0.15226 0.14798 0.0
C1334 C 0.70596 0.0947 0.13227 0.0
C1335 C 0.75264 0.14541 0.1339 0.0
C1336 C 0.67553 0.07912 0.10915 0.0
C1337 C 0.63455 0.01922 0.1215 0.0
N1338 N 0.7335 0.11786 0.12643 0.0
N1339 N 0.66132 0.0396 0.12893 0.0
H1340 H 0.69359 0.87402 0.84205 0.0
H1341 H 0.63437 0.93704 0.91625 0.0
H1342 H 0.76968 0.85125 0.87692 0.0
H1343 H 0.60783 0.01042 0.88097 0.0
H1344 H 0.6837 0.90499 0.90233 0.0
H1345 H 0.66151 0.92371 0.8558 0.0
C1346 C 0.70416 0.87988 0.85249 0.0
C1347 C 0.73434 0.85798 0.85833 0.0
C1348 C 0.66762 0.92862 0.89772 0.0
C1349 C 0.69664 0.91439 0.87431 0.0
C1350 C 0.63932 0.94704 0.90567 0.0
C1351 C 0.61648 0.97644 0.89979 0.0
C1352 C 0.67248 0.93872 0.88362 0.0
C1353 C 0.62438 0.98774 0.88594 0.0
C1354 C 0.68572 0.90838 0.86034 0.0
C1355 C 0.74639 0.86704 0.872 0.0
N1356 N 0.65109 0.96823 0.87821 0.0
N1357 N 0.7269 0.89391 0.87966 0.0
H1358 H 0.82318 0.87673 0.66801 0.0
H1359 H 0.88608 0.94443 0.5943 0.0
H1360 H 0.75007 0.85397 0.63231 0.0
H1361 H 0.9129 0.01293 0.63081 0.0
H1362 H 0.83584 0.91135 0.6076 0.0
H1363 H 0.85602 0.92683 0.65473 0.0
C1364 C 0.81341 0.88267 0.65747 0.0
C1365 C 0.78383 0.86065 0.65129 0.0
C1366 C 0.85222 0.93413 0.61262 0.0
C1367 C 0.82251 0.91762 0.63581 0.0
C1368 C 0.88102 0.9531 0.60504 0.0
C1369 C 0.9043 0.98129 0.61147 0.0
C1370 C 0.84717 0.94261 0.62686 0.0
C1371 C 0.89612 0.99113 0.62544 0.0
C1372 C 0.83231 0.9114 0.64988 0.0
C1373 C 0.77286 0.86984 0.6375 0.0
N1374 N 0.86886 0.9712 0.63276 0.0
N1375 N 0.79282 0.89701 0.6301 0.0
H1376 H 0.68659 0.27116 0.13064 0.0
H1377 H 0.54235 0.4504 0.13117 0.0
H1378 H 0.65641 0.3334 0.16822 0.0
H1379 H 0.57301 0.38742 0.09374 0.0
H1380 H 0.57894 0.4045 0.14512 0.0
H1381 H 0.63993 0.30914 0.11752 0.0
C1382 C 0.66979 0.29262 0.13619 0.0
C1383 C 0.67578 0.2994 0.15056 0.0
C1384 C 0.57753 0.40052 0.13388 0.0
C1385 C 0.62221 0.34349 0.13544 0.0
C1386 C 0.55664 0.42683 0.12583 0.0
C1387 C 0.55481 0.42315 0.11114 0.0
C1388 C 0.597 0.37011 0.12728 0.0
C1389 C 0.57375 0.39166 0.10497 0.0
C1390 C 0.64311 0.31436 0.12865 0.0
C1391 C 0.65275 0.32722 0.15718 0.0
N1392 N 0.59426 0.36654 0.11306 0.0
N1393 N 0.62729 0.34862 0.14952 0.0
H1394 H 0.81579 0.28183 0.38033 0.0
H1395 H 0.97899 0.44363 0.37949 0.0
H1396 H 0.86877 0.32434 0.34238 0.0
H1397 H 0.93733 0.39109 0.41764 0.0
H1398 H 0.94046 0.3987 0.36592 0.0
H1399 H 0.8612 0.31965 0.39408 0.0
C1400 C 0.83709 0.299 0.37483 0.0
C1401 C 0.8381 0.30008 0.36009 0.0
C1402 C 0.93982 0.39671 0.37725 0.0
C1403 C 0.89046 0.3438 0.37597 0.0
C1404 C 0.9618 0.42254 0.38507 0.0
C1405 C 0.9612 0.42154 0.39982 0.0
C1406 C 0.91657 0.36957 0.38412 0.0
C1407 C 0.93864 0.39306 0.40633 0.0
C1408 C 0.86314 0.32056 0.38276 0.0
C1409 C 0.86673 0.32265 0.35368 0.0
N1410 N 0.91691 0.36843 0.39843 0.0
N1411 N 0.89154 0.34387 0.36166 0.0
H1412 H 0.96524 0.55443 0.62791 0.0
H1413 H 0.82037 0.73203 0.62981 0.0
H1414 H 0.94176 0.62515 0.59161 0.0
H1415 H 0.86395 0.67674 0.66715 0.0
H1416 H 0.86482 0.69394 0.61573 0.0
H1417 H 0.92857 0.59901 0.64231 0.0
C1418 C 0.95244 0.5794 0.62292 0.0
C1419 C 0.95643 0.58575 0.60842 0.0
C1420 C 0.86497 0.69032 0.627 0.0
C1421 C 0.91401 0.63722 0.62505 0.0
C1422 C 0.83947 0.71201 0.63509 0.0
C1423 C 0.83811 0.70736 0.64973 0.0
C1424 C 0.88916 0.66332 0.63351 0.0
C1425 C 0.86392 0.68125 0.65592 0.0
C1426 C 0.93157 0.605 0.63122 0.0
C1427 C 0.93936 0.61895 0.60269 0.0
N1428 N 0.88809 0.65989 0.64777 0.0
N1429 N 0.91859 0.64326 0.61101 0.0
H1430 H 0.70404 0.72238 0.87979 0.0
H1431 H 0.54181 0.55935 0.87998 0.0
H1432 H 0.65045 0.67899 0.84208 0.0
H1433 H 0.58441 0.61338 0.91772 0.0
H1434 H 0.57983 0.60412 0.86606 0.0
H1435 H 0.65931 0.68431 0.89374 0.0
C1436 C 0.68274 0.70497 0.87439 0.0
C1437 C 0.68133 0.70373 0.85966 0.0
C1438 C 0.58075 0.60643 0.87737 0.0
C1439 C 0.62978 0.6597 0.87576 0.0
C1440 C 0.55905 0.58074 0.88539 0.0
C1441 C 0.56007 0.58226 0.90012 0.0
C1442 C 0.60407 0.63391 0.88405 0.0
C1443 C 0.58278 0.61099 0.90642 0.0
C1444 C 0.65709 0.68325 0.88243 0.0
C1445 C 0.65275 0.68081 0.85337 0.0
N1446 N 0.60414 0.63546 0.89835 0.0
N1447 N 0.62833 0.65945 0.86146 0.0
H1448 H 0.38927 0.57086 0.91684 0.0
H1449 H 0.32865 0.63063 0.84231 0.0
H1450 H 0.4134 0.49491 0.88209 0.0
H1451 H 0.25364 0.65596 0.87723 0.0
H1452 H 0.36076 0.58152 0.85638 0.0
H1453 H 0.34022 0.60309 0.90279 0.0
C1454 C 0.38385 0.56037 0.90635 0.0
C1455 C 0.40592 0.53014 0.90065 0.0
C1456 C 0.33678 0.5973 0.86087 0.0
C1457 C 0.35027 0.56804 0.88433 0.0
C1458 C 0.31833 0.62547 0.85284 0.0
C1459 C 0.28842 0.64788 0.85858 0.0
C1460 C 0.32616 0.59215 0.87491 0.0
C1461 C 0.2767 0.63973 0.87237 0.0
C1462 C 0.35572 0.57889 0.89833 0.0
C1463 C 0.39745 0.51822 0.88691 0.0
N1464 N 0.29621 0.61317 0.88018 0.0
N1465 N 0.37094 0.5378 0.8791 0.0
H1466 H 0.13903 0.55689 0.59324 0.0
H1467 H 0.18395 0.63271 0.66806 0.0
H1468 H 0.08839 0.50331 0.62964 0.0
H1469 H 0.26607 0.64543 0.63434 0.0
H1470 H 0.15064 0.58305 0.65469 0.0
H1471 H 0.18768 0.58669 0.60806 0.0
C1472 C 0.1384 0.55085 0.60433 0.0
C1473 C 0.10899 0.528 0.61017 0.0
C1474 C 0.17638 0.59612 0.65032 0.0
C1475 C 0.16454 0.56297 0.62737 0.0
C1476 C 0.19555 0.62462 0.65796 0.0
C1477 C 0.22782 0.64377 0.6523 0.0
C1478 C 0.18887 0.58717 0.63674 0.0
C1479 C 0.2412 0.63181 0.63911 0.0
C1480 C 0.16639 0.56788 0.61281 0.0
C1481 C 0.11015 0.52102 0.62466 0.0
N1482 N 0.22118 0.60488 0.63165 0.0
N1483 N 0.1369 0.53921 0.63282 0.0
H1484 H 0.0996 0.50953 0.37721 0.0
H1485 H 0.26997 0.35428 0.37268 0.0
H1486 H 0.13547 0.43803 0.41189 0.0
H1487 H 0.1863 0.36888 0.33952 0.0
H1488 H 0.23663 0.4045 0.38613 0.0
H1489 H 0.14732 0.47642 0.36234 0.0
C1490 C 0.11798 0.48768 0.38181 0.0
C1491 C 0.11315 0.47642 0.39586 0.0
C1492 C 0.22624 0.39715 0.37576 0.0
C1493 C 0.16829 0.43954 0.37906 0.0
C1494 C 0.24521 0.36853 0.36807 0.0
C1495 C 0.23063 0.35678 0.35501 0.0
C1496 C 0.19308 0.4148 0.37021 0.0
C1497 C 0.19849 0.37665 0.34957 0.0
C1498 C 0.14511 0.46884 0.37332 0.0
C1499 C 0.13798 0.4479 0.40122 0.0
N1500 N 0.18065 0.4045 0.35722 0.0
N1501 N 0.16435 0.43047 0.39284 0.0
H1502 H 0.40731 0.51128 0.12781 0.0
H1503 H 0.25153 0.34015 0.1289 0.0
H1504 H 0.38537 0.43602 0.09265 0.0
H1505 H 0.31855 0.37388 0.16504 0.0
H1506 H 0.28379 0.39095 0.11529 0.0
H1507 H 0.35789 0.47622 0.1412 0.0
C1508 C 0.39164 0.48807 0.12277 0.0
C1509 C 0.40109 0.4763 0.10911 0.0
C1510 C 0.29072 0.38758 0.12629 0.0
C1511 C 0.34403 0.43675 0.12427 0.0
C1512 C 0.2723 0.35865 0.13408 0.0
C1513 C 0.28278 0.35214 0.1481 0.0
C1514 C 0.31908 0.41073 0.13266 0.0
C1515 C 0.30974 0.37743 0.15425 0.0
C1516 C 0.3635 0.46806 0.13044 0.0
C1517 C 0.37944 0.44608 0.10314 0.0
N1518 N 0.3271 0.40538 0.14648 0.0
N1519 N 0.35216 0.42727 0.11076 0.0
loop_
_geom_bond_atom_site_label_1
_geom_bond_atom_site_label_2
_geom_bond_distance
_geom_bond_site_symmetry_2
_ccdc_geom_bond_type
Co0 O2 2.143 1_665 S
Co0 O8 2.074 . S
Co0 O11 2.093 1_655 S
Co0 O24 2.097 1_655 S
Co0 N41 2.151 . S
Co0 N49 2.214 . S
Co1 O2 2.160 . S
Co1 O7 2.058 1_455 S
Co1 O17 2.057 . S
Co1 O32 2.037 1_545 S
Co1 N36 2.145 . S
Co1 N57 2.257 . S
O2 Co0 2.143 1_445 S
O2 Co1 2.160 . S
C3 O4 1.278 . S
C3 O11 1.224 1_545 S
O4 C3 1.278 . S
C5 O6 1.245 . S
C5 O17 1.232 1_655 S
O6 C5 1.245 . S
O7 Co1 2.058 1_655 S
O7 C33 1.269 1_545 S
O8 Co0 2.074 . S
O8 C33 1.257 . S
H9 C34 0.930 . S
H10 C40 0.930 . S
O11 Co0 2.093 1_455 S
O11 C3 1.224 1_565 S
H12 C44 0.929 . S
H13 C46 0.930 . S
H14 C47 0.940 . S
H15 C45 0.929 . S
H16 C48 0.928 . S
O17 Co1 2.057 . S
O17 C5 1.232 1_455 S
H18 C37 0.929 . S
H19 C38 0.929 . S
H20 C50 0.931 . S
H21 C42 0.929 . S
H22 C51 0.930 . S
H23 C43 0.931 . S
O24 Co0 2.097 1_455 S
O24 C52 1.214 . S
H25 C53 0.929 . S
H26 C54 0.929 . S
H27 C55 0.930 . S
H28 C56 0.929 . S
H29 C58 0.930 . S
H30 C35 0.930 . S
H31 C39 0.930 . S
O32 Co1 2.037 1_565 S
O32 C52 1.234 . S
C33 O7 1.269 1_565 S
C33 O8 1.257 . S
C34 H9 0.930 . S
C34 C37 1.388 . S
C34 C39 1.418 . S
C35 H30 0.930 . S
C35 C38 1.404 . S
C35 C39 1.353 . S
N36 Co1 2.145 . S
N36 C37 1.397 . S
N36 C38 1.334 . S
C37 H18 0.929 . S
C37 C34 1.388 . S
C37 N36 1.397 . S
C38 H19 0.929 . S
C38 C35 1.404 . S
C38 N36 1.334 . S
C39 H31 0.930 . S
C39 C34 1.418 . S
C39 C35 1.353 . S
C40 H10 0.930 . S
C40 N41 1.330 1_545 S
C40 C42 1.446 . S
N41 Co0 2.151 . S
N41 C40 1.330 1_565 S
N41 C45 1.418 . S
C42 H21 0.929 . S
C42 C40 1.446 . S
C42 C43 1.332 1_545 S
C43 H23 0.931 . S
C43 C42 1.332 1_565 S
C43 C44 1.267 . S
C44 H12 0.929 . S
C44 C43 1.267 . S
C44 C45 1.251 . S
C45 H15 0.929 . S
C45 N41 1.418 . S
C45 C44 1.251 . S
C46 H13 0.930 . S
C46 C48 1.406 . S
C46 C51 1.261 . S
C47 H14 0.940 . S
C47 N49 1.325 . S
C47 C50 1.357 . S
C48 H16 0.928 . S
C48 C46 1.406 . S
C48 N49 1.261 . S
N49 Co0 2.214 . S
N49 C47 1.325 . S
N49 C48 1.261 . S
C50 H20 0.931 . S
C50 C47 1.357 . S
C50 C51 1.312 . S
C51 H22 0.930 . S
C51 C46 1.261 . S
C51 C50 1.312 . S
C52 O24 1.214 . S
C52 O32 1.234 . S
C53 H25 0.929 . S
C53 C56 1.391 . S
C53 C58 1.391 . S
C54 H26 0.929 . S
C54 C55 1.390 . S
C54 N57 1.391 . S
C55 H27 0.930 . S
C55 C54 1.390 . S
C55 C56 1.392 . S
C56 H28 0.929 . S
C56 C53 1.391 . S
C56 C55 1.392 . S
N57 Co1 2.257 . S
N57 C54 1.391 . S
N57 C58 1.388 . S
C58 H29 0.930 . S
C58 C53 1.391 . S
C58 N57 1.388 . S
Co59 O61 2.143 . S
Co59 O67 2.074 . S
Co59 O70 2.093 . S
Co59 O83 2.097 . S
Co59 N100 2.151 . S
Co59 N108 2.214 . S
Co60 O61 2.160 . S
Co60 O66 2.058 . S
Co60 O76 2.057 . S
Co60 O91 2.037 . S
Co60 N95 2.145 . S
Co60 N116 2.257 . S
O61 Co59 2.143 . S
O61 Co60 2.160 . S
C62 O63 1.278 . S
C62 O70 1.224 . S
O63 C62 1.278 . S
C64 O65 1.245 . S
C64 O76 1.232 . S
O65 C64 1.245 . S
O66 Co60 2.058 . S
O66 C92 1.269 . S
O67 Co59 2.074 . S
O67 C92 1.257 . S
H68 C93 0.930 . S
H69 C99 0.930 . S
O70 Co59 2.093 . S
O70 C62 1.224 . S
H71 C103 0.929 . S
H72 C105 0.930 . S
H73 C106 0.930 . S
H74 C104 0.929 . S
H75 C107 0.928 . S
O76 Co60 2.057 . S
O76 C64 1.232 . S
H77 C96 0.929 . S
H78 C97 0.929 . S
H79 C109 0.931 . S
H80 C101 0.929 . S
H81 C110 0.930 . S
H82 C102 0.931 . S
O83 Co59 2.097 . S
O83 C111 1.214 . S
H84 C112 0.929 . S
H85 C113 0.929 . S
H86 C114 0.930 . S
H87 C115 0.929 . S
H88 C117 0.930 . S
H89 C94 0.930 . S
H90 C98 0.930 . S
O91 Co60 2.037 . S
O91 C111 1.234 . S
C92 O66 1.269 . S
C92 O67 1.257 . S
C93 H68 0.930 . S
C93 C96 1.388 . S
C93 C98 1.418 . S
C94 H89 0.930 . S
C94 C97 1.404 . S
C94 C98 1.353 . S
N95 Co60 2.145 . S
N95 C96 1.397 . S
N95 C97 1.334 . S
C96 H77 0.929 . S
C96 C93 1.388 . S
C96 N95 1.397 . S
C97 H78 0.929 . S
C97 C94 1.404 . S
C97 N95 1.334 . S
C98 H90 0.930 . S
C98 C93 1.418 . S
C98 C94 1.353 . S
C99 H69 0.930 . S
C99 N100 1.330 . S
C99 C101 1.446 . S
N100 Co59 2.151 . S
N100 C99 1.330 . S
N100 C104 1.418 . S
C101 H80 0.929 . S
C101 C99 1.446 . S
C101 C102 1.332 . S
C102 H82 0.931 . S
C102 C101 1.332 . S
C102 C103 1.267 . S
C103 H71 0.929 . S
C103 C102 1.267 . S
C103 C104 1.251 . S
C104 H74 0.929 . S
C104 N100 1.418 . S
C104 C103 1.251 . S
C105 H72 0.930 . S
C105 C107 1.406 . S
C105 C110 1.261 . S
C106 H73 0.930 . S
C106 N108 1.325 . S
C106 C109 1.357 . S
C107 H75 0.928 . S
C107 C105 1.406 . S
C107 N108 1.261 . S
N108 Co59 2.214 . S
N108 C106 1.325 . S
N108 C107 1.261 . S
C109 H79 0.931 . S
C109 C106 1.357 . S
C109 C110 1.312 . S
C110 H81 0.930 . S
C110 C105 1.261 . S
C110 C109 1.312 . S
C111 O83 1.214 . S
C111 O91 1.234 . S
C112 H84 0.929 . S
C112 C115 1.391 . S
C112 C117 1.391 . S
C113 H85 0.929 . S
C113 C114 1.390 . S
C113 N116 1.391 . S
C114 H86 0.930 . S
C114 C113 1.390 . S
C114 C115 1.392 . S
C115 H87 0.929 . S
C115 C112 1.391 . S
C115 C114 1.392 . S
N116 Co60 2.257 . S
N116 C113 1.391 . S
N116 C117 1.388 . S
C117 H88 0.930 . S
C117 C112 1.391 . S
C117 N116 1.388 . S
Co118 O120 2.143 1_545 S
Co118 O126 2.074 . S
Co118 O129 2.093 . S
Co118 O142 2.097 . S
Co118 N159 2.151 . S
Co118 N167 2.214 . S
Co119 O120 2.160 . S
Co119 O125 2.058 . S
Co119 O135 2.057 . S
Co119 O150 2.037 1_565 S
Co119 N154 2.145 . S
Co119 N175 2.257 . S
O120 Co118 2.143 1_565 S
O120 Co119 2.160 . S
C121 O122 1.278 . S
C121 O129 1.224 1_565 S
O122 C121 1.278 . S
C123 O124 1.245 . S
C123 O135 1.232 . S
O124 C123 1.245 . S
O125 Co119 2.058 . S
O125 C151 1.269 1_565 S
O126 Co118 2.074 . S
O126 C151 1.257 . S
H127 C152 0.930 . S
H128 C158 0.930 . S
O129 Co118 2.093 . S
O129 C121 1.224 1_545 S
H130 C162 0.929 . S
H131 C164 0.930 . S
H132 C165 0.930 . S
H133 C163 0.929 . S
H134 C166 0.928 . S
O135 Co119 2.057 . S
O135 C123 1.232 . S
H136 C155 0.929 . S
H137 C156 0.929 . S
H138 C168 0.931 . S
H139 C160 0.929 . S
H140 C169 0.930 . S
H141 C161 0.931 . S
O142 Co118 2.097 . S
O142 C170 1.214 . S
H143 C171 0.929 . S
H144 C172 0.929 . S
H145 C173 0.930 . S
H146 C174 0.929 . S
H147 C176 0.930 . S
H148 C153 0.930 . S
H149 C157 0.930 . S
O150 Co119 2.037 1_545 S
O150 C170 1.234 . S
C151 O125 1.269 1_545 S
C151 O126 1.257 . S
C152 H127 0.930 . S
C152 C155 1.388 . S
C152 C157 1.418 . S
C153 H148 0.930 . S
C153 C156 1.404 . S
C153 C157 1.353 . S
N154 Co119 2.145 . S
N154 C155 1.397 . S
N154 C156 1.334 . S
C155 H136 0.929 . S
C155 C152 1.388 . S
C155 N154 1.397 . S
C156 H137 0.929 . S
C156 C153 1.404 . S
C156 N154 1.334 . S
C157 H149 0.930 . S
C157 C152 1.418 . S
C157 C153 1.353 . S
C158 H128 0.930 . S
C158 N159 1.330 1_565 S
C158 C160 1.446 . S
N159 Co118 2.151 . S
N159 C158 1.330 1_545 S
N159 C163 1.418 . S
C160 H139 0.929 . S
C160 C158 1.446 . S
C160 C161 1.332 1_565 S
C161 H141 0.931 . S
C161 C160 1.332 1_545 S
C161 C162 1.267 . S
C162 H130 0.929 . S
C162 C161 1.267 . S
C162 C163 1.251 . S
C163 H133 0.929 . S
C163 N159 1.418 . S
C163 C162 1.251 . S
C164 H131 0.930 . S
C164 C166 1.406 . S
C164 C169 1.261 . S
C165 H132 0.930 . S
C165 N167 1.325 . S
C165 C168 1.357 . S
C166 H134 0.928 . S
C166 C164 1.406 . S
C166 N167 1.261 . S
N167 Co118 2.214 . S
N167 C165 1.325 . S
N167 C166 1.261 . S
C168 H138 0.931 . S
C168 C165 1.357 . S
C168 C169 1.312 . S
C169 H140 0.930 . S
C169 C164 1.261 . S
C169 C168 1.312 . S
C170 O142 1.214 . S
C170 O150 1.234 . S
C171 H143 0.929 . S
C171 C174 1.391 . S
C171 C176 1.391 . S
C172 H144 0.929 . S
C172 C173 1.390 . S
C172 N175 1.391 . S
C173 H145 0.930 . S
C173 C172 1.390 . S
C173 C174 1.392 . S
C174 H146 0.929 . S
C174 C171 1.391 . S
C174 C173 1.392 . S
N175 Co119 2.257 . S
N175 C172 1.391 . S
N175 C176 1.388 . S
C176 H147 0.930 . S
C176 C171 1.391 . S
C176 N175 1.388 . S
Co177 O179 2.143 . S
Co177 O185 2.074 . S
Co177 O188 2.093 . S
Co177 O201 2.097 . S
Co177 N218 2.151 . S
Co177 N226 2.214 . S
Co178 O179 2.160 . S
Co178 O184 2.058 . S
Co178 O194 2.057 . S
Co178 O209 2.037 . S
Co178 N213 2.145 . S
Co178 N234 2.257 . S
O179 Co177 2.143 . S
O179 Co178 2.160 . S
C180 O181 1.278 . S
C180 O188 1.224 . S
O181 C180 1.278 . S
C182 O183 1.245 . S
C182 O194 1.232 . S
O183 C182 1.245 . S
O184 Co178 2.058 . S
O184 C210 1.269 . S
O185 Co177 2.074 . S
O185 C210 1.257 . S
H186 C211 0.930 . S
H187 C217 0.930 . S
O188 Co177 2.093 . S
O188 C180 1.224 . S
H189 C221 0.929 . S
H190 C223 0.930 . S
H191 C224 0.930 . S
H192 C222 0.929 . S
H193 C225 0.928 . S
O194 Co178 2.057 . S
O194 C182 1.232 . S
H195 C214 0.929 . S
H196 C215 0.929 . S
H197 C227 0.931 . S
H198 C219 0.929 . S
H199 C228 0.930 . S
H200 C220 0.931 . S
O201 Co177 2.097 . S
O201 C229 1.214 . S
H202 C230 0.929 . S
H203 C231 0.929 . S
H204 C232 0.930 . S
H205 C233 0.929 . S
H206 C235 0.930 . S
H207 C212 0.930 . S
H208 C216 0.930 . S
O209 Co178 2.037 . S
O209 C229 1.234 . S
C210 O184 1.269 . S
C210 O185 1.257 . S
C211 H186 0.930 . S
C211 C214 1.388 . S
C211 C216 1.418 . S
C212 H207 0.930 . S
C212 C215 1.404 . S
C212 C216 1.353 . S
N213 Co178 2.145 . S
N213 C214 1.397 . S
N213 C215 1.334 . S
C214 H195 0.929 . S
C214 C211 1.388 . S
C214 N213 1.397 . S
C215 H196 0.929 . S
C215 C212 1.404 . S
C215 N213 1.334 . S
C216 H208 0.930 . S
C216 C211 1.418 . S
C216 C212 1.353 . S
C217 H187 0.930 . S
C217 N218 1.330 . S
C217 C219 1.446 . S
N218 Co177 2.151 . S
N218 C217 1.330 . S
N218 C222 1.418 . S
C219 H198 0.929 . S
C219 C217 1.446 . S
C219 C220 1.332 . S
C220 H200 0.931 . S
C220 C219 1.332 . S
C220 C221 1.267 . S
C221 H189 0.929 . S
C221 C220 1.267 . S
C221 C222 1.251 . S
C222 H192 0.929 . S
C222 N218 1.418 . S
C222 C221 1.251 . S
C223 H190 0.930 . S
C223 C225 1.406 . S
C223 C228 1.261 . S
C224 H191 0.930 . S
C224 N226 1.325 . S
C224 C227 1.357 . S
C225 H193 0.928 . S
C225 C223 1.406 . S
C225 N226 1.261 . S
N226 Co177 2.214 . S
N226 C224 1.325 . S
N226 C225 1.261 . S
C227 H197 0.931 . S
C227 C224 1.357 . S
C227 C228 1.312 . S
C228 H199 0.930 . S
C228 C223 1.261 . S
C228 C227 1.312 . S
C229 O201 1.214 . S
C229 O209 1.234 . S
C230 H202 0.929 . S
C230 C233 1.391 . S
C230 C235 1.391 . S
C231 H203 0.929 . S
C231 C232 1.390 . S
C231 N234 1.391 . S
C232 H204 0.930 . S
C232 C231 1.390 . S
C232 C233 1.392 . S
C233 H205 0.929 . S
C233 C230 1.391 . S
C233 C232 1.392 . S
N234 Co178 2.257 . S
N234 C231 1.391 . S
N234 C235 1.388 . S
C235 H206 0.930 . S
C235 C230 1.391 . S
C235 N234 1.388 . S
Co236 O238 2.143 1_645 S
Co236 O244 2.074 . S
Co236 O247 2.093 1_655 S
Co236 O260 2.097 1_655 S
Co236 N277 2.151 . S
Co236 N285 2.214 . S
Co237 O238 2.160 . S
Co237 O243 2.058 1_455 S
Co237 O253 2.057 . S
Co237 O268 2.037 1_565 S
Co237 N272 2.145 . S
Co237 N293 2.257 . S
O238 Co236 2.143 1_465 S
O238 Co237 2.160 . S
C239 O240 1.278 . S
C239 O247 1.224 1_565 S
O240 C239 1.278 . S
C241 O242 1.245 . S
C241 O253 1.232 1_655 S
O242 C241 1.245 . S
O243 Co237 2.058 1_655 S
O243 C269 1.269 1_565 S
O244 Co236 2.074 . S
O244 C269 1.257 . S
H245 C270 0.930 . S
H246 C276 0.930 . S
O247 Co236 2.093 1_455 S
O247 C239 1.224 1_545 S
H248 C280 0.929 . S
H249 C282 0.930 . S
H250 C283 0.940 . S
H251 C281 0.929 . S
H252 C284 0.928 . S
O253 Co237 2.057 . S
O253 C241 1.232 1_455 S
H254 C273 0.929 . S
H255 C274 0.929 . S
H256 C286 0.931 . S
H257 C278 0.929 . S
H258 C287 0.930 . S
H259 C279 0.931 . S
O260 Co236 2.097 1_455 S
O260 C288 1.214 . S
H261 C289 0.929 . S
H262 C290 0.929 . S
H263 C291 0.930 . S
H264 C292 0.929 . S
H265 C294 0.930 . S
H266 C271 0.930 . S
H267 C275 0.930 . S
O268 Co237 2.037 1_545 S
O268 C288 1.234 . S
C269 O243 1.269 1_545 S
C269 O244 1.257 . S
C270 H245 0.930 . S
C270 C273 1.388 . S
C270 C275 1.418 . S
C271 H266 0.930 . S
C271 C274 1.404 . S
C271 C275 1.353 . S
N272 Co237 2.145 . S
N272 C273 1.397 . S
N272 C274 1.334 . S
C273 H254 0.929 . S
C273 C270 1.388 . S
C273 N272 1.397 . S
C274 H255 0.929 . S
C274 C271 1.404 . S
C274 N272 1.334 . S
C275 H267 0.930 . S
C275 C270 1.418 . S
C275 C271 1.353 . S
C276 H246 0.930 . S
C276 N277 1.330 1_565 S
C276 C278 1.446 . S
N277 Co236 2.151 . S
N277 C276 1.330 1_545 S
N277 C281 1.418 . S
C278 H257 0.929 . S
C278 C276 1.446 . S
C278 C279 1.332 1_565 S
C279 H259 0.931 . S
C279 C278 1.332 1_545 S
C279 C280 1.267 . S
C280 H248 0.929 . S
C280 C279 1.267 . S
C280 C281 1.251 . S
C281 H251 0.929 . S
C281 N277 1.418 . S
C281 C280 1.251 . S
C282 H249 0.930 . S
C282 C284 1.406 . S
C282 C287 1.261 . S
C283 H250 0.940 . S
C283 N285 1.325 . S
C283 C286 1.357 . S
C284 H252 0.928 . S
C284 C282 1.406 . S
C284 N285 1.261 . S
N285 Co236 2.214 . S
N285 C283 1.325 . S
N285 C284 1.261 . S
C286 H256 0.931 . S
C286 C283 1.357 . S
C286 C287 1.312 . S
C287 H258 0.930 . S
C287 C282 1.261 . S
C287 C286 1.312 . S
C288 O260 1.214 . S
C288 O268 1.234 . S
C289 H261 0.929 . S
C289 C292 1.391 . S
C289 C294 1.391 . S
C290 H262 0.929 . S
C290 C291 1.390 . S
C290 N293 1.391 . S
C291 H263 0.930 . S
C291 C290 1.390 . S
C291 C292 1.392 . S
C292 H264 0.929 . S
C292 C289 1.391 . S
C292 C291 1.392 . S
N293 Co237 2.257 . S
N293 C290 1.391 . S
N293 C294 1.388 . S
C294 H265 0.930 . S
C294 C289 1.391 . S
C294 N293 1.388 . S
Co295 O297 2.143 . S
Co295 O303 2.074 . S
Co295 O306 2.093 . S
Co295 O319 2.097 . S
Co295 N336 2.151 . S
Co295 N344 2.214 . S
Co296 O297 2.160 . S
Co296 O302 2.058 . S
Co296 O312 2.057 . S
Co296 O327 2.037 . S
Co296 N331 2.145 . S
Co296 N352 2.257 . S
O297 Co295 2.143 . S
O297 Co296 2.160 . S
C298 O299 1.278 . S
C298 O306 1.224 . S
O299 C298 1.278 . S
C300 O301 1.245 . S
C300 O312 1.232 . S
O301 C300 1.245 . S
O302 Co296 2.058 . S
O302 C328 1.269 . S
O303 Co295 2.074 . S
O303 C328 1.257 . S
H304 C329 0.930 . S
H305 C335 0.930 . S
O306 Co295 2.093 . S
O306 C298 1.224 . S
H307 C339 0.929 . S
H308 C341 0.930 . S
H309 C342 0.930 . S
H310 C340 0.929 . S
H311 C343 0.928 . S
O312 Co296 2.057 . S
O312 C300 1.232 . S
H313 C332 0.929 . S
H314 C333 0.929 . S
H315 C345 0.931 . S
H316 C337 0.929 . S
H317 C346 0.930 . S
H318 C338 0.931 . S
O319 Co295 2.097 . S
O319 C347 1.214 . S
H320 C348 0.929 . S
H321 C349 0.929 . S
H322 C350 0.930 . S
H323 C351 0.929 . S
H324 C353 0.930 . S
H325 C330 0.930 . S
H326 C334 0.930 . S
O327 Co296 2.037 . S
O327 C347 1.234 . S
C328 O302 1.269 . S
C328 O303 1.257 . S
C329 H304 0.930 . S
C329 C332 1.388 . S
C329 C334 1.418 . S
C330 H325 0.930 . S
C330 C333 1.404 . S
C330 C334 1.353 . S
N331 Co296 2.145 . S
N331 C332 1.397 . S
N331 C333 1.334 . S
C332 H313 0.929 . S
C332 C329 1.388 . S
C332 N331 1.397 . S
C333 H314 0.929 . S
C333 C330 1.404 . S
C333 N331 1.334 . S
C334 H326 0.930 . S
C334 C329 1.418 . S
C334 C330 1.353 . S
C335 H305 0.930 . S
C335 N336 1.330 . S
C335 C337 1.446 . S
N336 Co295 2.151 . S
N336 C335 1.330 . S
N336 C340 1.418 . S
C337 H316 0.929 . S
C337 C335 1.446 . S
C337 C338 1.332 . S
C338 H318 0.931 . S
C338 C337 1.332 . S
C338 C339 1.267 . S
C339 H307 0.929 . S
C339 C338 1.267 . S
C339 C340 1.251 . S
C340 H310 0.929 . S
C340 N336 1.418 . S
C340 C339 1.251 . S
C341 H308 0.930 . S
C341 C343 1.406 . S
C341 C346 1.261 . S
C342 H309 0.930 . S
C342 N344 1.325 . S
C342 C345 1.357 . S
C343 H311 0.928 . S
C343 C341 1.406 . S
C343 N344 1.261 . S
N344 Co295 2.214 . S
N344 C342 1.325 . S
N344 C343 1.261 . S
C345 H315 0.931 . S
C345 C342 1.357 . S
C345 C346 1.312 . S
C346 H317 0.930 . S
C346 C341 1.261 . S
C346 C345 1.312 . S
C347 O319 1.214 . S
C347 O327 1.234 . S
C348 H320 0.929 . S
C348 C351 1.391 . S
C348 C353 1.391 . S
C349 H321 0.929 . S
C349 C350 1.390 . S
C349 N352 1.391 . S
C350 H322 0.930 . S
C350 C349 1.390 . S
C350 C351 1.392 . S
C351 H323 0.929 . S
C351 C348 1.391 . S
C351 C350 1.392 . S
N352 Co296 2.257 . S
N352 C349 1.391 . S
N352 C353 1.388 . S
C353 H324 0.930 . S
C353 C348 1.391 . S
C353 N352 1.388 . S
Co354 O356 2.143 1_565 S
Co354 O362 2.074 . S
Co354 O365 2.093 . S
Co354 O378 2.097 . S
Co354 N395 2.151 . S
Co354 N403 2.214 . S
Co355 O356 2.160 . S
Co355 O361 2.058 . S
Co355 O371 2.057 . S
Co355 O386 2.037 1_545 S
Co355 N390 2.145 . S
Co355 N411 2.257 . S
O356 Co354 2.143 1_545 S
O356 Co355 2.160 . S
C357 O358 1.278 . S
C357 O365 1.224 1_545 S
O358 C357 1.278 . S
C359 O360 1.245 . S
C359 O371 1.232 . S
O360 C359 1.245 . S
O361 Co355 2.058 . S
O361 C387 1.269 1_545 S
O362 Co354 2.074 . S
O362 C387 1.257 . S
H363 C388 0.930 . S
H364 C394 0.930 . S
O365 Co354 2.093 . S
O365 C357 1.224 1_565 S
H366 C398 0.929 . S
H367 C400 0.930 . S
H368 C401 0.930 . S
H369 C399 0.929 . S
H370 C402 0.928 . S
O371 Co355 2.057 . S
O371 C359 1.232 . S
H372 C391 0.929 . S
H373 C392 0.929 . S
H374 C404 0.931 . S
H375 C396 0.929 . S
H376 C405 0.930 . S
H377 C397 0.931 . S
O378 Co354 2.097 . S
O378 C406 1.214 . S
H379 C407 0.929 . S
H380 C408 0.929 . S
H381 C409 0.930 . S
H382 C410 0.929 . S
H383 C412 0.930 . S
H384 C389 0.930 . S
H385 C393 0.930 . S
O386 Co355 2.037 1_565 S
O386 C406 1.234 . S
C387 O361 1.269 1_565 S
C387 O362 1.257 . S
C388 H363 0.930 . S
C388 C391 1.388 . S
C388 C393 1.418 . S
C389 H384 0.930 . S
C389 C392 1.404 . S
C389 C393 1.353 . S
N390 Co355 2.145 . S
N390 C391 1.397 . S
N390 C392 1.334 . S
C391 H372 0.929 . S
C391 C388 1.388 . S
C391 N390 1.397 . S
C392 H373 0.929 . S
C392 C389 1.404 . S
C392 N390 1.334 . S
C393 H385 0.930 . S
C393 C388 1.418 . S
C393 C389 1.353 . S
C394 H364 0.930 . S
C394 N395 1.330 1_545 S
C394 C396 1.446 . S
N395 Co354 2.151 . S
N395 C394 1.330 1_565 S
N395 C399 1.418 . S
C396 H375 0.929 . S
C396 C394 1.446 . S
C396 C397 1.332 1_545 S
C397 H377 0.931 . S
C397 C396 1.332 1_565 S
C397 C398 1.267 . S
C398 H366 0.929 . S
C398 C397 1.267 . S
C398 C399 1.251 . S
C399 H369 0.929 . S
C399 N395 1.418 . S
C399 C398 1.251 . S
C400 H367 0.930 . S
C400 C402 1.406 . S
C400 C405 1.261 . S
C401 H368 0.930 . S
C401 N403 1.325 . S
C401 C404 1.357 . S
C402 H370 0.928 . S
C402 C400 1.406 . S
C402 N403 1.261 . S
N403 Co354 2.214 . S
N403 C401 1.325 . S
N403 C402 1.261 . S
C404 H374 0.931 . S
C404 C401 1.357 . S
C404 C405 1.312 . S
C405 H376 0.930 . S
C405 C400 1.261 . S
C405 C404 1.312 . S
C406 O378 1.214 . S
C406 O386 1.234 . S
C407 H379 0.929 . S
C407 C410 1.391 . S
C407 C412 1.391 . S
C408 H380 0.929 . S
C408 C409 1.390 . S
C408 N411 1.391 . S
C409 H381 0.930 . S
C409 C408 1.390 . S
C409 C410 1.392 . S
C410 H382 0.929 . S
C410 C407 1.391 . S
C410 C409 1.392 . S
N411 Co355 2.257 . S
N411 C408 1.391 . S
N411 C412 1.388 . S
C412 H383 0.930 . S
C412 C407 1.391 . S
C412 N411 1.388 . S
Co413 O415 2.143 . S
Co413 O421 2.074 . S
Co413 O424 2.093 . S
Co413 O437 2.097 . S
Co413 N454 2.151 . S
Co413 N462 2.214 . S
Co414 O415 2.160 . S
Co414 O420 2.058 . S
Co414 O430 2.057 . S
Co414 O445 2.037 . S
Co414 N449 2.145 . S
Co414 N470 2.257 . S
O415 Co413 2.143 . S
O415 Co414 2.160 . S
C416 O417 1.278 . S
C416 O424 1.224 . S
O417 C416 1.278 . S
C418 O419 1.245 . S
C418 O430 1.232 . S
O419 C418 1.245 . S
O420 Co414 2.058 . S
O420 C446 1.269 . S
O421 Co413 2.074 . S
O421 C446 1.257 . S
H422 C447 0.930 . S
H423 C453 0.930 . S
O424 Co413 2.093 . S
O424 C416 1.224 . S
H425 C457 0.929 . S
H426 C459 0.930 . S
H427 C460 0.930 . S
H428 C458 0.929 . S
H429 C461 0.928 . S
O430 Co414 2.057 . S
O430 C418 1.232 . S
H431 C450 0.929 . S
H432 C451 0.929 . S
H433 C463 0.931 . S
H434 C455 0.929 . S
H435 C464 0.930 . S
H436 C456 0.931 . S
O437 Co413 2.097 . S
O437 C465 1.214 . S
H438 C466 0.929 . S
H439 C467 0.929 . S
H440 C468 0.930 . S
H441 C469 0.929 . S
H442 C471 0.930 . S
H443 C448 0.930 . S
H444 C452 0.930 . S
O445 Co414 2.037 . S
O445 C465 1.234 . S
C446 O420 1.269 . S
C446 O421 1.257 . S
C447 H422 0.930 . S
C447 C450 1.388 . S
C447 C452 1.418 . S
C448 H443 0.930 . S
C448 C451 1.404 . S
C448 C452 1.353 . S
N449 Co414 2.145 . S
N449 C450 1.397 . S
N449 C451 1.334 . S
C450 H431 0.929 . S
C450 C447 1.388 . S
C450 N449 1.397 . S
C451 H432 0.929 . S
C451 C448 1.404 . S
C451 N449 1.334 . S
C452 H444 0.930 . S
C452 C447 1.418 . S
C452 C448 1.353 . S
C453 H423 0.930 . S
C453 N454 1.330 . S
C453 C455 1.446 . S
N454 Co413 2.151 . S
N454 C453 1.330 . S
N454 C458 1.418 . S
C455 H434 0.929 . S
C455 C453 1.446 . S
C455 C456 1.332 . S
C456 H436 0.931 . S
C456 C455 1.332 . S
C456 C457 1.267 . S
C457 H425 0.929 . S
C457 C456 1.267 . S
C457 C458 1.251 . S
C458 H428 0.929 . S
C458 N454 1.418 . S
C458 C457 1.251 . S
C459 H426 0.930 . S
C459 C461 1.406 . S
C459 C464 1.261 . S
C460 H427 0.930 . S
C460 N462 1.325 . S
C460 C463 1.357 . S
C461 H429 0.928 . S
C461 C459 1.406 . S
C461 N462 1.261 . S
N462 Co413 2.214 . S
N462 C460 1.325 . S
N462 C461 1.261 . S
C463 H433 0.931 . S
C463 C460 1.357 . S
C463 C464 1.312 . S
C464 H435 0.930 . S
C464 C459 1.261 . S
C464 C463 1.312 . S
C465 O437 1.214 . S
C465 O445 1.234 . S
C466 H438 0.929 . S
C466 C469 1.391 . S
C466 C471 1.391 . S
C467 H439 0.929 . S
C467 C468 1.390 . S
C467 N470 1.391 . S
C468 H440 0.930 . S
C468 C467 1.390 . S
C468 C469 1.392 . S
C469 H441 0.929 . S
C469 C466 1.391 . S
C469 C468 1.392 . S
N470 Co414 2.257 . S
N470 C467 1.391 . S
N470 C471 1.388 . S
C471 H442 0.930 . S
C471 C466 1.391 . S
C471 N470 1.388 . S
Co472 O474 2.143 . S
Co472 O480 2.074 . S
Co472 O483 2.093 . S
Co472 O496 2.097 . S
Co472 N513 2.151 . S
Co472 N521 2.214 . S
Co473 O474 2.160 . S
Co473 O479 2.058 . S
Co473 O489 2.057 . S
Co473 O504 2.037 . S
Co473 N508 2.145 . S
Co473 N529 2.257 . S
O474 Co472 2.143 . S
O474 Co473 2.160 . S
C475 O476 1.278 . S
C475 O483 1.224 . S
O476 C475 1.278 . S
C477 O478 1.245 . S
C477 O489 1.232 . S
O478 C477 1.245 . S
O479 Co473 2.058 . S
O479 C505 1.269 . S
O480 Co472 2.074 . S
O480 C505 1.257 . S
H481 C506 0.930 . S
H482 C512 0.930 . S
O483 Co472 2.093 . S
O483 C475 1.224 . S
H484 C516 0.929 . S
H485 C518 0.930 . S
H486 C519 0.930 . S
H487 C517 0.929 . S
H488 C520 0.928 . S
O489 Co473 2.057 . S
O489 C477 1.232 . S
H490 C509 0.929 . S
H491 C510 0.929 . S
H492 C522 0.931 . S
H493 C514 0.929 . S
H494 C523 0.930 . S
H495 C515 0.931 . S
O496 Co472 2.097 . S
O496 C524 1.214 . S
H497 C525 0.929 . S
H498 C526 0.929 . S
H499 C527 0.930 . S
H500 C528 0.929 . S
H501 C530 0.930 . S
H502 C507 0.930 . S
H503 C511 0.930 . S
O504 Co473 2.037 . S
O504 C524 1.234 . S
C505 O479 1.269 . S
C505 O480 1.257 . S
C506 H481 0.930 . S
C506 C509 1.388 . S
C506 C511 1.418 . S
C507 H502 0.930 . S
C507 C510 1.404 . S
C507 C511 1.353 . S
N508 Co473 2.145 . S
N508 C509 1.397 . S
N508 C510 1.334 . S
C509 H490 0.929 . S
C509 C506 1.388 . S
C509 N508 1.397 . S
C510 H491 0.929 . S
C510 C507 1.404 . S
C510 N508 1.334 . S
C511 H503 0.930 . S
C511 C506 1.418 . S
C511 C507 1.353 . S
C512 H482 0.930 . S
C512 N513 1.330 . S
C512 C514 1.446 . S
N513 Co472 2.151 . S
N513 C512 1.330 . S
N513 C517 1.418 . S
C514 H493 0.929 . S
C514 C512 1.446 . S
C514 C515 1.332 . S
C515 H495 0.931 . S
C515 C514 1.332 . S
C515 C516 1.267 . S
C516 H484 0.929 . S
C516 C515 1.267 . S
C516 C517 1.251 . S
C517 H487 0.929 . S
C517 N513 1.418 . S
C517 C516 1.251 . S
C518 H485 0.930 . S
C518 C520 1.406 . S
C518 C523 1.261 . S
C519 H486 0.930 . S
C519 N521 1.325 . S
C519 C522 1.357 . S
C520 H488 0.928 . S
C520 C518 1.406 . S
C520 N521 1.261 . S
N521 Co472 2.214 . S
N521 C519 1.325 . S
N521 C520 1.261 . S
C522 H492 0.931 . S
C522 C519 1.357 . S
C522 C523 1.312 . S
C523 H494 0.930 . S
C523 C518 1.261 . S
C523 C522 1.312 . S
C524 O496 1.214 . S
C524 O504 1.234 . S
C525 H497 0.929 . S
C525 C528 1.391 . S
C525 C530 1.391 . S
C526 H498 0.929 . S
C526 C527 1.390 . S
C526 N529 1.391 . S
C527 H499 0.930 . S
C527 C526 1.390 . S
C527 C528 1.392 . S
C528 H500 0.929 . S
C528 C525 1.391 . S
C528 C527 1.392 . S
N529 Co473 2.257 . S
N529 C526 1.391 . S
N529 C530 1.388 . S
C530 H501 0.930 . S
C530 C525 1.391 . S
C530 N529 1.388 . S
Co531 O533 2.143 . S
Co531 O539 2.074 . S
Co531 O542 2.093 . S
Co531 O555 2.097 . S
Co531 N572 2.151 . S
Co531 N580 2.214 . S
Co532 O533 2.160 . S
Co532 O538 2.058 . S
Co532 O548 2.057 . S
Co532 O563 2.037 . S
Co532 N567 2.145 . S
Co532 N588 2.257 . S
O533 Co531 2.143 . S
O533 Co532 2.160 . S
C534 O535 1.278 . S
C534 O542 1.224 . S
O535 C534 1.278 . S
C536 O537 1.245 . S
C536 O548 1.232 . S
O537 C536 1.245 . S
O538 Co532 2.058 . S
O538 C564 1.269 . S
O539 Co531 2.074 . S
O539 C564 1.257 . S
H540 C565 0.930 . S
H541 C571 0.930 . S
O542 Co531 2.093 . S
O542 C534 1.224 . S
H543 C575 0.929 . S
H544 C577 0.930 . S
H545 C578 0.930 . S
H546 C576 0.929 . S
H547 C579 0.928 . S
O548 Co532 2.057 . S
O548 C536 1.232 . S
H549 C568 0.929 . S
H550 C569 0.929 . S
H551 C581 0.931 . S
H552 C573 0.929 . S
H553 C582 0.930 . S
H554 C574 0.931 . S
O555 Co531 2.097 . S
O555 C583 1.214 . S
H556 C584 0.929 . S
H557 C585 0.929 . S
H558 C586 0.930 . S
H559 C587 0.929 . S
H560 C589 0.930 . S
H561 C566 0.930 . S
H562 C570 0.930 . S
O563 Co532 2.037 . S
O563 C583 1.234 . S
C564 O538 1.269 . S
C564 O539 1.257 . S
C565 H540 0.930 . S
C565 C568 1.388 . S
C565 C570 1.418 . S
C566 H561 0.930 . S
C566 C569 1.404 . S
C566 C570 1.353 . S
N567 Co532 2.145 . S
N567 C568 1.397 . S
N567 C569 1.334 . S
C568 H549 0.929 . S
C568 C565 1.388 . S
C568 N567 1.397 . S
C569 H550 0.929 . S
C569 C566 1.404 . S
C569 N567 1.334 . S
C570 H562 0.930 . S
C570 C565 1.418 . S
C570 C566 1.353 . S
C571 H541 0.930 . S
C571 N572 1.330 . S
C571 C573 1.446 . S
N572 Co531 2.151 . S
N572 C571 1.330 . S
N572 C576 1.418 . S
C573 H552 0.929 . S
C573 C571 1.446 . S
C573 C574 1.332 . S
C574 H554 0.931 . S
C574 C573 1.332 . S
C574 C575 1.267 . S
C575 H543 0.929 . S
C575 C574 1.267 . S
C575 C576 1.251 . S
C576 H546 0.929 . S
C576 N572 1.418 . S
C576 C575 1.251 . S
C577 H544 0.930 . S
C577 C579 1.406 . S
C577 C582 1.261 . S
C578 H545 0.930 . S
C578 N580 1.325 . S
C578 C581 1.357 . S
C579 H547 0.928 . S
C579 C577 1.406 . S
C579 N580 1.261 . S
N580 Co531 2.214 . S
N580 C578 1.325 . S
N580 C579 1.261 . S
C581 H551 0.931 . S
C581 C578 1.357 . S
C581 C582 1.312 . S
C582 H553 0.930 . S
C582 C577 1.261 . S
C582 C581 1.312 . S
C583 O555 1.214 . S
C583 O563 1.234 . S
C584 H556 0.929 . S
C584 C587 1.391 . S
C584 C589 1.391 . S
C585 H557 0.929 . S
C585 C586 1.390 . S
C585 N588 1.391 . S
C586 H558 0.930 . S
C586 C585 1.390 . S
C586 C587 1.392 . S
C587 H559 0.929 . S
C587 C584 1.391 . S
C587 C586 1.392 . S
N588 Co532 2.257 . S
N588 C585 1.391 . S
N588 C589 1.388 . S
C589 H560 0.930 . S
C589 C584 1.391 . S
C589 N588 1.388 . S
Co590 O592 2.143 . S
Co590 O598 2.074 . S
Co590 O601 2.093 . S
Co590 O614 2.097 . S
Co590 N631 2.151 . S
Co590 N639 2.214 . S
Co591 O592 2.160 . S
Co591 O597 2.058 . S
Co591 O607 2.057 . S
Co591 O622 2.037 . S
Co591 N626 2.145 . S
Co591 N647 2.257 . S
O592 Co590 2.143 . S
O592 Co591 2.160 . S
C593 O594 1.278 . S
C593 O601 1.224 . S
O594 C593 1.278 . S
C595 O596 1.245 . S
C595 O607 1.232 . S
O596 C595 1.245 . S
O597 Co591 2.058 . S
O597 C623 1.269 . S
O598 Co590 2.074 . S
O598 C623 1.257 . S
H599 C624 0.930 . S
H600 C630 0.930 . S
O601 Co590 2.093 . S
O601 C593 1.224 . S
H602 C634 0.929 . S
H603 C636 0.930 . S
H604 C637 0.930 . S
H605 C635 0.929 . S
H606 C638 0.928 . S
O607 Co591 2.057 . S
O607 C595 1.232 . S
H608 C627 0.929 . S
H609 C628 0.929 . S
H610 C640 0.931 . S
H611 C632 0.929 . S
H612 C641 0.930 . S
H613 C633 0.931 . S
O614 Co590 2.097 . S
O614 C642 1.214 . S
H615 C643 0.929 . S
H616 C644 0.929 . S
H617 C645 0.930 . S
H618 C646 0.929 . S
H619 C648 0.930 . S
H620 C625 0.930 . S
H621 C629 0.930 . S
O622 Co591 2.037 . S
O622 C642 1.234 . S
C623 O597 1.269 . S
C623 O598 1.257 . S
C624 H599 0.930 . S
C624 C627 1.388 . S
C624 C629 1.418 . S
C625 H620 0.930 . S
C625 C628 1.404 . S
C625 C629 1.353 . S
N626 Co591 2.145 . S
N626 C627 1.397 . S
N626 C628 1.334 . S
C627 H608 0.929 . S
C627 C624 1.388 . S
C627 N626 1.397 . S
C628 H609 0.929 . S
C628 C625 1.404 . S
C628 N626 1.334 . S
C629 H621 0.930 . S
C629 C624 1.418 . S
C629 C625 1.353 . S
C630 H600 0.930 . S
C630 N631 1.330 . S
C630 C632 1.446 . S
N631 Co590 2.151 . S
N631 C630 1.330 . S
N631 C635 1.418 . S
C632 H611 0.929 . S
C632 C630 1.446 . S
C632 C633 1.332 . S
C633 H613 0.931 . S
C633 C632 1.332 . S
C633 C634 1.267 . S
C634 H602 0.929 . S
C634 C633 1.267 . S
C634 C635 1.251 . S
C635 H605 0.929 . S
C635 N631 1.418 . S
C635 C634 1.251 . S
C636 H603 0.930 . S
C636 C638 1.406 . S
C636 C641 1.261 . S
C637 H604 0.930 . S
C637 N639 1.325 . S
C637 C640 1.357 . S
C638 H606 0.928 . S
C638 C636 1.406 . S
C638 N639 1.261 . S
N639 Co590 2.214 . S
N639 C637 1.325 . S
N639 C638 1.261 . S
C640 H610 0.931 . S
C640 C637 1.357 . S
C640 C641 1.312 . S
C641 H612 0.930 . S
C641 C636 1.261 . S
C641 C640 1.312 . S
C642 O614 1.214 . S
C642 O622 1.234 . S
C643 H615 0.929 . S
C643 C646 1.391 . S
C643 C648 1.391 . S
C644 H616 0.929 . S
C644 C645 1.390 . S
C644 N647 1.391 . S
C645 H617 0.930 . S
C645 C644 1.390 . S
C645 C646 1.392 . S
C646 H618 0.929 . S
C646 C643 1.391 . S
C646 C645 1.392 . S
N647 Co591 2.257 . S
N647 C644 1.391 . S
N647 C648 1.388 . S
C648 H619 0.930 . S
C648 C643 1.391 . S
C648 N647 1.388 . S
Co649 O651 2.143 . S
Co649 O657 2.074 . S
Co649 O660 2.093 . S
Co649 O673 2.097 . S
Co649 N690 2.151 . S
Co649 N698 2.214 . S
Co650 O651 2.160 . S
Co650 O656 2.058 . S
Co650 O666 2.057 . S
Co650 O681 2.037 . S
Co650 N685 2.145 . S
Co650 N706 2.257 . S
O651 Co649 2.143 . S
O651 Co650 2.160 . S
C652 O653 1.278 . S
C652 O660 1.224 . S
O653 C652 1.278 . S
C654 O655 1.245 . S
C654 O666 1.232 . S
O655 C654 1.245 . S
O656 Co650 2.058 . S
O656 C682 1.269 . S
O657 Co649 2.074 . S
O657 C682 1.257 . S
H658 C683 0.930 . S
H659 C689 0.930 . S
O660 Co649 2.093 . S
O660 C652 1.224 . S
H661 C693 0.929 . S
H662 C695 0.930 . S
H663 C696 0.930 . S
H664 C694 0.929 . S
H665 C697 0.928 . S
O666 Co650 2.057 . S
O666 C654 1.232 . S
H667 C686 0.929 . S
H668 C687 0.929 . S
H669 C699 0.931 . S
H670 C691 0.929 . S
H671 C700 0.930 . S
H672 C692 0.931 . S
O673 Co649 2.097 . S
O673 C701 1.214 . S
H674 C702 0.929 . S
H675 C703 0.929 . S
H676 C704 0.930 . S
H677 C705 0.929 . S
H678 C707 0.930 . S
H679 C684 0.930 . S
H680 C688 0.930 . S
O681 Co650 2.037 . S
O681 C701 1.234 . S
C682 O656 1.269 . S
C682 O657 1.257 . S
C683 H658 0.930 . S
C683 C686 1.388 . S
C683 C688 1.418 . S
C684 H679 0.930 . S
C684 C687 1.404 . S
C684 C688 1.353 . S
N685 Co650 2.145 . S
N685 C686 1.397 . S
N685 C687 1.334 . S
C686 H667 0.929 . S
C686 C683 1.388 . S
C686 N685 1.397 . S
C687 H668 0.929 . S
C687 C684 1.404 . S
C687 N685 1.334 . S
C688 H680 0.930 . S
C688 C683 1.418 . S
C688 C684 1.353 . S
C689 H659 0.930 . S
C689 N690 1.330 . S
C689 C691 1.446 . S
N690 Co649 2.151 . S
N690 C689 1.330 . S
N690 C694 1.418 . S
C691 H670 0.929 . S
C691 C689 1.446 . S
C691 C692 1.332 . S
C692 H672 0.931 . S
C692 C691 1.332 . S
C692 C693 1.267 . S
C693 H661 0.929 . S
C693 C692 1.267 . S
C693 C694 1.251 . S
C694 H664 0.929 . S
C694 N690 1.418 . S
C694 C693 1.251 . S
C695 H662 0.930 . S
C695 C697 1.406 . S
C695 C700 1.261 . S
C696 H663 0.930 . S
C696 N698 1.325 . S
C696 C699 1.357 . S
C697 H665 0.928 . S
C697 C695 1.406 . S
C697 N698 1.261 . S
N698 Co649 2.214 . S
N698 C696 1.325 . S
N698 C697 1.261 . S
C699 H669 0.931 . S
C699 C696 1.357 . S
C699 C700 1.312 . S
C700 H671 0.930 . S
C700 C695 1.261 . S
C700 C699 1.312 . S
C701 O673 1.214 . S
C701 O681 1.234 . S
C702 H674 0.929 . S
C702 C705 1.391 . S
C702 C707 1.391 . S
C703 H675 0.929 . S
C703 C704 1.390 . S
C703 N706 1.391 . S
C704 H676 0.930 . S
C704 C703 1.390 . S
C704 C705 1.392 . S
C705 H677 0.929 . S
C705 C702 1.391 . S
C705 C704 1.392 . S
N706 Co650 2.257 . S
N706 C703 1.391 . S
N706 C707 1.388 . S
C707 H678 0.930 . S
C707 C702 1.391 . S
C707 N706 1.388 . S
Co708 O710 2.143 . S
Co708 O716 2.074 . S
Co708 O719 2.093 . S
Co708 O732 2.097 . S
Co708 N749 2.151 . S
Co708 N757 2.214 . S
Co709 O710 2.160 . S
Co709 O715 2.058 . S
Co709 O725 2.057 . S
Co709 O740 2.037 . S
Co709 N744 2.145 . S
Co709 N765 2.257 . S
O710 Co708 2.143 . S
O710 Co709 2.160 . S
C711 O712 1.278 . S
C711 O719 1.224 . S
O712 C711 1.278 . S
C713 O714 1.245 . S
C713 O725 1.232 . S
O714 C713 1.245 . S
O715 Co709 2.058 . S
O715 C741 1.269 . S
O716 Co708 2.074 . S
O716 C741 1.257 . S
H717 C742 0.930 . S
H718 C748 0.930 . S
O719 Co708 2.093 . S
O719 C711 1.224 . S
H720 C752 0.929 . S
H721 C754 0.930 . S
H722 C755 0.930 . S
H723 C753 0.929 . S
H724 C756 0.928 . S
O725 Co709 2.057 . S
O725 C713 1.232 . S
H726 C745 0.929 . S
H727 C746 0.929 . S
H728 C758 0.931 . S
H729 C750 0.929 . S
H730 C759 0.930 . S
H731 C751 0.931 . S
O732 Co708 2.097 . S
O732 C760 1.214 . S
H733 C761 0.929 . S
H734 C762 0.929 . S
H735 C763 0.930 . S
H736 C764 0.929 . S
H737 C766 0.930 . S
H738 C743 0.930 . S
H739 C747 0.930 . S
O740 Co709 2.037 . S
O740 C760 1.234 . S
C741 O715 1.269 . S
C741 O716 1.257 . S
C742 H717 0.930 . S
C742 C745 1.388 . S
C742 C747 1.418 . S
C743 H738 0.930 . S
C743 C746 1.404 . S
C743 C747 1.353 . S
N744 Co709 2.145 . S
N744 C745 1.397 . S
N744 C746 1.334 . S
C745 H726 0.929 . S
C745 C742 1.388 . S
C745 N744 1.397 . S
C746 H727 0.929 . S
C746 C743 1.404 . S
C746 N744 1.334 . S
C747 H739 0.930 . S
C747 C742 1.418 . S
C747 C743 1.353 . S
C748 H718 0.930 . S
C748 N749 1.330 . S
C748 C750 1.446 . S
N749 Co708 2.151 . S
N749 C748 1.330 . S
N749 C753 1.418 . S
C750 H729 0.929 . S
C750 C748 1.446 . S
C750 C751 1.332 . S
C751 H731 0.931 . S
C751 C750 1.332 . S
C751 C752 1.267 . S
C752 H720 0.929 . S
C752 C751 1.267 . S
C752 C753 1.251 . S
C753 H723 0.929 . S
C753 N749 1.418 . S
C753 C752 1.251 . S
C754 H721 0.930 . S
C754 C756 1.406 . S
C754 C759 1.261 . S
C755 H722 0.930 . S
C755 N757 1.325 . S
C755 C758 1.357 . S
C756 H724 0.928 . S
C756 C754 1.406 . S
C756 N757 1.261 . S
N757 Co708 2.214 . S
N757 C755 1.325 . S
N757 C756 1.261 . S
C758 H728 0.931 . S
C758 C755 1.357 . S
C758 C759 1.312 . S
C759 H730 0.930 . S
C759 C754 1.261 . S
C759 C758 1.312 . S
C760 O732 1.214 . S
C760 O740 1.234 . S
C761 H733 0.929 . S
C761 C764 1.391 . S
C761 C766 1.391 . S
C762 H734 0.929 . S
C762 C763 1.390 . S
C762 N765 1.391 . S
C763 H735 0.930 . S
C763 C762 1.390 . S
C763 C764 1.392 . S
C764 H736 0.929 . S
C764 C761 1.391 . S
C764 C763 1.392 . S
N765 Co709 2.257 . S
N765 C762 1.391 . S
N765 C766 1.388 . S
C766 H737 0.930 . S
C766 C761 1.391 . S
C766 N765 1.388 . S
Co767 O769 2.143 . S
Co767 O775 2.074 . S
Co767 O778 2.093 1_455 S
Co767 O791 2.097 1_455 S
Co767 N808 2.151 . S
Co767 N816 2.214 . S
Co768 O769 2.160 1_655 S
Co768 O774 2.058 1_655 S
Co768 O784 2.057 1_655 S
Co768 O799 2.037 . S
Co768 N803 2.145 . S
Co768 N824 2.257 . S
O769 Co767 2.143 . S
O769 Co768 2.160 1_455 S
C770 O771 1.278 . S
C770 O778 1.224 . S
O771 C770 1.278 . S
C772 O773 1.245 . S
C772 O784 1.232 . S
O773 C772 1.245 . S
O774 Co768 2.058 1_455 S
O774 C800 1.269 . S
O775 Co767 2.074 . S
O775 C800 1.257 . S
H776 C801 0.930 . S
H777 C807 0.930 . S
O778 Co767 2.093 1_655 S
O778 C770 1.224 . S
H779 C811 0.929 . S
H780 C813 0.930 . S
H781 C814 0.930 . S
H782 C812 0.929 . S
H783 C815 0.928 . S
O784 Co768 2.057 1_455 S
O784 C772 1.232 . S
H785 C804 0.929 . S
H786 C805 0.929 . S
H787 C817 0.931 . S
H788 C809 0.929 . S
H789 C818 0.930 . S
H790 C810 0.931 . S
O791 Co767 2.097 1_655 S
O791 C819 1.214 . S
H792 C820 0.929 . S
H793 C821 0.929 . S
H794 C822 0.930 . S
H795 C823 0.929 . S
H796 C825 0.930 . S
H797 C802 0.930 . S
H798 C806 0.930 . S
O799 Co768 2.037 . S
O799 C819 1.234 . S
C800 O774 1.269 . S
C800 O775 1.257 . S
C801 H776 0.930 . S
C801 C804 1.388 . S
C801 C806 1.418 . S
C802 H797 0.930 . S
C802 C805 1.404 . S
C802 C806 1.353 . S
N803 Co768 2.145 . S
N803 C804 1.397 . S
N803 C805 1.334 . S
C804 H785 0.929 . S
C804 C801 1.388 . S
C804 N803 1.397 . S
C805 H786 0.929 . S
C805 C802 1.404 . S
C805 N803 1.334 . S
C806 H798 0.930 . S
C806 C801 1.418 . S
C806 C802 1.353 . S
C807 H777 0.930 . S
C807 N808 1.330 . S
C807 C809 1.446 . S
N808 Co767 2.151 . S
N808 C807 1.330 . S
N808 C812 1.418 . S
C809 H788 0.929 . S
C809 C807 1.446 . S
C809 C810 1.332 . S
C810 H790 0.931 . S
C810 C809 1.332 . S
C810 C811 1.267 . S
C811 H779 0.929 . S
C811 C810 1.267 . S
C811 C812 1.251 . S
C812 H782 0.929 . S
C812 N808 1.418 . S
C812 C811 1.251 . S
C813 H780 0.930 . S
C813 C815 1.406 . S
C813 C818 1.261 . S
C814 H781 0.930 . S
C814 N816 1.325 . S
C814 C817 1.357 . S
C815 H783 0.928 . S
C815 C813 1.406 . S
C815 N816 1.261 . S
N816 Co767 2.214 . S
N816 C814 1.325 . S
N816 C815 1.261 . S
C817 H787 0.931 . S
C817 C814 1.357 . S
C817 C818 1.312 . S
C818 H789 0.930 . S
C818 C813 1.261 . S
C818 C817 1.312 . S
C819 O791 1.214 . S
C819 O799 1.234 . S
C820 H792 0.929 . S
C820 C823 1.391 . S
C820 C825 1.391 . S
C821 H793 0.929 . S
C821 C822 1.390 . S
C821 N824 1.391 . S
C822 H794 0.930 . S
C822 C821 1.390 . S
C822 C823 1.392 . S
C823 H795 0.929 . S
C823 C820 1.391 . S
C823 C822 1.392 . S
N824 Co768 2.257 . S
N824 C821 1.391 . S
N824 C825 1.388 . S
C825 H796 0.930 . S
C825 C820 1.391 . S
C825 N824 1.388 . S
Co826 O828 2.143 . S
Co826 O834 2.074 . S
Co826 O837 2.093 . S
Co826 O850 2.097 . S
Co826 N867 2.151 . S
Co826 N875 2.214 . S
Co827 O828 2.160 . S
Co827 O833 2.058 . S
Co827 O843 2.057 . S
Co827 O858 2.037 . S
Co827 N862 2.145 . S
Co827 N883 2.257 . S
O828 Co826 2.143 . S
O828 Co827 2.160 . S
C829 O830 1.278 . S
C829 O837 1.224 . S
O830 C829 1.278 . S
C831 O832 1.245 . S
C831 O843 1.232 . S
O832 C831 1.245 . S
O833 Co827 2.058 . S
O833 C859 1.269 . S
O834 Co826 2.074 . S
O834 C859 1.257 . S
H835 C860 0.930 . S
H836 C866 0.930 . S
O837 Co826 2.093 . S
O837 C829 1.224 . S
H838 C870 0.929 . S
H839 C872 0.930 . S
H840 C873 0.930 . S
H841 C871 0.929 . S
H842 C874 0.928 . S
O843 Co827 2.057 . S
O843 C831 1.232 . S
H844 C863 0.929 . S
H845 C864 0.929 . S
H846 C876 0.931 . S
H847 C868 0.929 . S
H848 C877 0.930 . S
H849 C869 0.931 . S
O850 Co826 2.097 . S
O850 C878 1.214 . S
H851 C879 0.929 . S
H852 C880 0.929 . S
H853 C881 0.930 . S
H854 C882 0.929 . S
H855 C884 0.930 . S
H856 C861 0.930 . S
H857 C865 0.930 . S
O858 Co827 2.037 . S
O858 C878 1.234 . S
C859 O833 1.269 . S
C859 O834 1.257 . S
C860 H835 0.930 . S
C860 C863 1.388 . S
C860 C865 1.418 . S
C861 H856 0.930 . S
C861 C864 1.404 . S
C861 C865 1.353 . S
N862 Co827 2.145 . S
N862 C863 1.397 . S
N862 C864 1.334 . S
C863 H844 0.929 . S
C863 C860 1.388 . S
C863 N862 1.397 . S
C864 H845 0.929 . S
C864 C861 1.404 . S
C864 N862 1.334 . S
C865 H857 0.930 . S
C865 C860 1.418 . S
C865 C861 1.353 . S
C866 H836 0.930 . S
C866 N867 1.330 . S
C866 C868 1.446 . S
N867 Co826 2.151 . S
N867 C866 1.330 . S
N867 C871 1.418 . S
C868 H847 0.929 . S
C868 C866 1.446 . S
C868 C869 1.332 . S
C869 H849 0.931 . S
C869 C868 1.332 . S
C869 C870 1.267 . S
C870 H838 0.929 . S
C870 C869 1.267 . S
C870 C871 1.251 . S
C871 H841 0.929 . S
C871 N867 1.418 . S
C871 C870 1.251 . S
C872 H839 0.930 . S
C872 C874 1.406 . S
C872 C877 1.261 . S
C873 H840 0.930 . S
C873 N875 1.325 . S
C873 C876 1.357 . S
C874 H842 0.928 . S
C874 C872 1.406 . S
C874 N875 1.261 . S
N875 Co826 2.214 . S
N875 C873 1.325 . S
N875 C874 1.261 . S
C876 H846 0.931 . S
C876 C873 1.357 . S
C876 C877 1.312 . S
C877 H848 0.930 . S
C877 C872 1.261 . S
C877 C876 1.312 . S
C878 O850 1.214 . S
C878 O858 1.234 . S
C879 H851 0.929 . S
C879 C882 1.391 . S
C879 C884 1.391 . S
C880 H852 0.929 . S
C880 C881 1.390 . S
C880 N883 1.391 . S
C881 H853 0.930 . S
C881 C880 1.390 . S
C881 C882 1.392 . S
C882 H854 0.929 . S
C882 C879 1.391 . S
C882 C881 1.392 . S
N883 Co827 2.257 . S
N883 C880 1.391 . S
N883 C884 1.388 . S
C884 H855 0.930 . S
C884 C879 1.391 . S
C884 N883 1.388 . S
Co885 O887 2.143 . S
Co885 O893 2.074 . S
Co885 O896 2.093 1_455 S
Co885 O909 2.097 1_455 S
Co885 N926 2.151 . S
Co885 N934 2.214 . S
Co886 O887 2.160 1_655 S
Co886 O892 2.058 1_655 S
Co886 O902 2.057 1_655 S
Co886 O917 2.037 . S
Co886 N921 2.145 . S
Co886 N942 2.257 . S
O887 Co885 2.143 . S
O887 Co886 2.160 1_455 S
C888 O889 1.278 . S
C888 O896 1.224 . S
O889 C888 1.278 . S
C890 O891 1.245 . S
C890 O902 1.232 . S
O891 C890 1.245 . S
O892 Co886 2.058 1_455 S
O892 C918 1.269 . S
O893 Co885 2.074 . S
O893 C918 1.257 . S
H894 C919 0.930 . S
H895 C925 0.930 . S
O896 Co885 2.093 1_655 S
O896 C888 1.224 . S
H897 C929 0.929 . S
H898 C931 0.930 . S
H899 C932 0.930 . S
H900 C930 0.929 . S
H901 C933 0.928 . S
O902 Co886 2.057 1_455 S
O902 C890 1.232 . S
H903 C922 0.929 . S
H904 C923 0.929 . S
H905 C935 0.931 . S
H906 C927 0.929 . S
H907 C936 0.930 . S
H908 C928 0.931 . S
O909 Co885 2.097 1_655 S
O909 C937 1.214 . S
H910 C938 0.929 . S
H911 C939 0.929 . S
H912 C940 0.930 . S
H913 C941 0.929 . S
H914 C943 0.930 . S
H915 C920 0.930 . S
H916 C924 0.930 . S
O917 Co886 2.037 . S
O917 C937 1.234 . S
C918 O892 1.269 . S
C918 O893 1.257 . S
C919 H894 0.930 . S
C919 C922 1.388 . S
C919 C924 1.418 . S
C920 H915 0.930 . S
C920 C923 1.404 . S
C920 C924 1.353 . S
N921 Co886 2.145 . S
N921 C922 1.397 . S
N921 C923 1.334 . S
C922 H903 0.929 . S
C922 C919 1.388 . S
C922 N921 1.397 . S
C923 H904 0.929 . S
C923 C920 1.404 . S
C923 N921 1.334 . S
C924 H916 0.930 . S
C924 C919 1.418 . S
C924 C920 1.353 . S
C925 H895 0.930 . S
C925 N926 1.330 . S
C925 C927 1.446 . S
N926 Co885 2.151 . S
N926 C925 1.330 . S
N926 C930 1.418 . S
C927 H906 0.929 . S
C927 C925 1.446 . S
C927 C928 1.332 . S
C928 H908 0.931 . S
C928 C927 1.332 . S
C928 C929 1.267 . S
C929 H897 0.929 . S
C929 C928 1.267 . S
C929 C930 1.251 . S
C930 H900 0.929 . S
C930 N926 1.418 . S
C930 C929 1.251 . S
C931 H898 0.930 . S
C931 C933 1.406 . S
C931 C936 1.261 . S
C932 H899 0.930 . S
C932 N934 1.325 . S
C932 C935 1.357 . S
C933 H901 0.928 . S
C933 C931 1.406 . S
C933 N934 1.261 . S
N934 Co885 2.214 . S
N934 C932 1.325 . S
N934 C933 1.261 . S
C935 H905 0.931 . S
C935 C932 1.357 . S
C935 C936 1.312 . S
C936 H907 0.930 . S
C936 C931 1.261 . S
C936 C935 1.312 . S
C937 O909 1.214 . S
C937 O917 1.234 . S
C938 H910 0.929 . S
C938 C941 1.391 . S
C938 C943 1.391 . S
C939 H911 0.929 . S
C939 C940 1.390 . S
C939 N942 1.391 . S
C940 H912 0.930 . S
C940 C939 1.390 . S
C940 C941 1.392 . S
C941 H913 0.929 . S
C941 C938 1.391 . S
C941 C940 1.392 . S
N942 Co886 2.257 . S
N942 C939 1.391 . S
N942 C943 1.388 . S
C943 H914 0.930 . S
C943 C938 1.391 . S
C943 N942 1.388 . S
H944 C950 0.930 . S
H945 C954 0.930 . S
H946 C959 0.929 . S
H947 C957 0.929 . S
H948 C952 0.929 . S
H949 C958 0.929 . S
C950 H944 0.930 . S
C950 C951 1.367 1_455 S
C950 C958 1.378 . S
C951 C950 1.367 1_655 S
C951 C959 1.433 . S
C952 H948 0.929 . S
C952 C954 1.378 . S
C952 C956 1.350 1_655 S
C953 C956 1.463 . S
C953 C958 1.350 . S
C953 N961 1.427 1_455 S
C954 H945 0.930 . S
C954 C952 1.378 . S
C954 C955 1.367 1_655 S
C955 C954 1.367 1_455 S
C955 C957 1.433 . S
C956 C952 1.350 1_455 S
C956 C953 1.463 . S
C956 N960 1.427 . S
C957 H947 0.929 . S
C957 C955 1.433 . S
C957 N960 1.384 . S
C958 H949 0.929 . S
C958 C950 1.378 . S
C958 C953 1.350 . S
C959 H946 0.929 . S
C959 C951 1.433 . S
C959 N961 1.384 . S
N960 C956 1.427 . S
N960 C957 1.384 . S
N961 C953 1.427 1_655 S
N961 C959 1.384 . S
H962 C968 0.930 . S
H963 C972 0.930 . S
H964 C977 0.929 . S
H965 C975 0.929 . S
H966 C970 0.929 . S
H967 C976 0.929 . S
C968 H962 0.930 . S
C968 C969 1.367 . S
C968 C976 1.378 . S
C969 C968 1.367 . S
C969 C977 1.433 . S
C970 H966 0.929 . S
C970 C972 1.378 . S
C970 C974 1.350 . S
C971 C974 1.463 1_655 S
C971 C976 1.350 . S
C971 N979 1.427 . S
C972 H963 0.930 . S
C972 C970 1.378 . S
C972 C973 1.367 . S
C973 C972 1.367 . S
C973 C975 1.433 . S
C974 C970 1.350 . S
C974 C971 1.463 1_455 S
C974 N978 1.427 . S
C975 H965 0.929 . S
C975 C973 1.433 . S
C975 N978 1.384 . S
C976 H967 0.929 . S
C976 C968 1.378 . S
C976 C971 1.350 . S
C977 H964 0.929 . S
C977 C969 1.433 . S
C977 N979 1.384 . S
N978 C974 1.427 . S
N978 C975 1.384 . S
N979 C971 1.427 . S
N979 C977 1.384 . S
H980 C986 0.930 . S
H981 C990 0.930 . S
H982 C995 0.929 . S
H983 C993 0.929 . S
H984 C988 0.929 . S
H985 C994 0.929 . S
C986 H980 0.930 . S
C986 C987 1.367 . S
C986 C994 1.378 . S
C987 C986 1.367 . S
C987 C995 1.433 . S
C988 H984 0.929 . S
C988 C990 1.378 . S
C988 C992 1.350 . S
C989 C992 1.463 . S
C989 C994 1.350 . S
C989 N997 1.427 . S
C990 H981 0.930 . S
C990 C988 1.378 . S
C990 C991 1.367 . S
C991 C990 1.367 . S
C991 C993 1.433 . S
C992 C988 1.350 . S
C992 C989 1.463 . S
C992 N996 1.427 . S
C993 H983 0.929 . S
C993 C991 1.433 . S
C993 N996 1.384 . S
C994 H985 0.929 . S
C994 C986 1.378 . S
C994 C989 1.350 . S
C995 H982 0.929 . S
C995 C987 1.433 . S
C995 N997 1.384 . S
N996 C992 1.427 . S
N996 C993 1.384 . S
N997 C989 1.427 . S
N997 C995 1.384 . S
H998 C1004 0.930 . S
H999 C1008 0.930 . S
H1000 C1013 0.929 . S
H1001 C1011 0.929 . S
H1002 C1006 0.929 . S
H1003 C1012 0.929 . S
C1004 H998 0.930 . S
C1004 C1005 1.367 . S
C1004 C1012 1.378 . S
C1005 C1004 1.367 . S
C1005 C1013 1.433 . S
C1006 H1002 0.929 . S
C1006 C1008 1.378 . S
C1006 C1010 1.350 . S
C1007 C1010 1.463 . S
C1007 C1012 1.350 . S
C1007 N1015 1.427 . S
C1008 H999 0.930 . S
C1008 C1006 1.378 . S
C1008 C1009 1.367 . S
C1009 C1008 1.367 . S
C1009 C1011 1.433 . S
C1010 C1006 1.350 . S
C1010 C1007 1.463 . S
C1010 N1014 1.427 . S
C1011 H1001 0.929 . S
C1011 C1009 1.433 . S
C1011 N1014 1.384 . S
C1012 H1003 0.929 . S
C1012 C1004 1.378 . S
C1012 C1007 1.350 . S
C1013 H1000 0.929 . S
C1013 C1005 1.433 . S
C1013 N1015 1.384 . S
N1014 C1010 1.427 . S
N1014 C1011 1.384 . S
N1015 C1007 1.427 . S
N1015 C1013 1.384 . S
H1016 C1022 0.930 . S
H1017 C1026 0.930 . S
H1018 C1031 0.929 . S
H1019 C1029 0.929 . S
H1020 C1024 0.929 . S
H1021 C1030 0.929 . S
C1022 H1016 0.930 . S
C1022 C1023 1.367 . S
C1022 C1030 1.378 . S
C1023 C1022 1.367 . S
C1023 C1031 1.433 . S
C1024 H1020 0.929 . S
C1024 C1026 1.378 . S
C1024 C1028 1.350 . S
C1025 C1028 1.463 . S
C1025 C1030 1.350 1_455 S
C1025 N1033 1.427 . S
C1026 H1017 0.930 . S
C1026 C1024 1.378 . S
C1026 C1027 1.367 . S
C1027 C1026 1.367 . S
C1027 C1029 1.433 . S
C1028 C1024 1.350 . S
C1028 C1025 1.463 . S
C1028 N1032 1.427 . S
C1029 H1019 0.929 . S
C1029 C1027 1.433 . S
C1029 N1032 1.384 . S
C1030 H1021 0.929 . S
C1030 C1022 1.378 . S
C1030 C1025 1.350 1_655 S
C1031 H1018 0.929 . S
C1031 C1023 1.433 . S
C1031 N1033 1.384 1_655 S
N1032 C1028 1.427 . S
N1032 C1029 1.384 . S
N1033 C1025 1.427 . S
N1033 C1031 1.384 1_455 S
H1034 C1040 0.930 . S
H1035 C1044 0.930 . S
H1036 C1049 0.929 . S
H1037 C1047 0.929 . S
H1038 C1042 0.929 . S
H1039 C1048 0.929 . S
C1040 H1034 0.930 . S
C1040 C1041 1.367 . S
C1040 C1048 1.378 . S
C1041 C1040 1.367 . S
C1041 C1049 1.433 . S
C1042 H1038 0.929 . S
C1042 C1044 1.378 . S
C1042 C1046 1.350 . S
C1043 C1046 1.463 . S
C1043 C1048 1.350 . S
C1043 N1051 1.427 . S
C1044 H1035 0.930 . S
C1044 C1042 1.378 . S
C1044 C1045 1.367 . S
C1045 C1044 1.367 . S
C1045 C1047 1.433 . S
C1046 C1042 1.350 . S
C1046 C1043 1.463 . S
C1046 N1050 1.427 . S
C1047 H1037 0.929 . S
C1047 C1045 1.433 . S
C1047 N1050 1.384 . S
C1048 H1039 0.929 . S
C1048 C1040 1.378 . S
C1048 C1043 1.350 . S
C1049 H1036 0.929 . S
C1049 C1041 1.433 . S
C1049 N1051 1.384 . S
N1050 C1046 1.427 . S
N1050 C1047 1.384 . S
N1051 C1043 1.427 . S
N1051 C1049 1.384 . S
H1052 C1058 0.930 . S
H1053 C1062 0.930 . S
H1054 C1067 0.929 . S
H1055 C1065 0.929 . S
H1056 C1060 0.929 . S
H1057 C1066 0.929 . S
C1058 H1052 0.930 . S
C1058 C1059 1.367 . S
C1058 C1066 1.378 . S
C1059 C1058 1.367 . S
C1059 C1067 1.433 . S
C1060 H1056 0.929 . S
C1060 C1062 1.378 . S
C1060 C1064 1.350 . S
C1061 C1064 1.463 . S
C1061 C1066 1.350 . S
C1061 N1069 1.427 . S
C1062 H1053 0.930 . S
C1062 C1060 1.378 . S
C1062 C1063 1.367 . S
C1063 C1062 1.367 . S
C1063 C1065 1.433 . S
C1064 C1060 1.350 . S
C1064 C1061 1.463 . S
C1064 N1068 1.427 . S
C1065 H1055 0.929 . S
C1065 C1063 1.433 . S
C1065 N1068 1.384 . S
C1066 H1057 0.929 . S
C1066 C1058 1.378 . S
C1066 C1061 1.350 . S
C1067 H1054 0.929 . S
C1067 C1059 1.433 . S
C1067 N1069 1.384 . S
N1068 C1064 1.427 . S
N1068 C1065 1.384 . S
N1069 C1061 1.427 . S
N1069 C1067 1.384 . S
H1070 C1076 0.930 . S
H1071 C1080 0.930 . S
H1072 C1085 0.929 . S
H1073 C1083 0.929 . S
H1074 C1078 0.929 . S
H1075 C1084 0.929 . S
C1076 H1070 0.930 . S
C1076 C1077 1.367 . S
C1076 C1084 1.378 . S
C1077 C1076 1.367 . S
C1077 C1085 1.433 . S
C1078 H1074 0.929 . S
C1078 C1080 1.378 . S
C1078 C1082 1.350 . S
C1079 C1082 1.463 1_455 S
C1079 C1084 1.350 . S
C1079 N1087 1.427 . S
C1080 H1071 0.930 . S
C1080 C1078 1.378 . S
C1080 C1081 1.367 . S
C1081 C1080 1.367 . S
C1081 C1083 1.433 . S
C1082 C1078 1.350 . S
C1082 C1079 1.463 1_655 S
C1082 N1086 1.427 . S
C1083 H1073 0.929 . S
C1083 C1081 1.433 . S
C1083 N1086 1.384 . S
C1084 H1075 0.929 . S
C1084 C1076 1.378 . S
C1084 C1079 1.350 . S
C1085 H1072 0.929 . S
C1085 C1077 1.433 . S
C1085 N1087 1.384 . S
N1086 C1082 1.427 . S
N1086 C1083 1.384 . S
N1087 C1079 1.427 . S
N1087 C1085 1.384 . S
H1088 C1094 0.930 1_655 S
H1089 C1098 0.930 . S
H1090 C1103 0.929 . S
H1091 C1101 0.913 1_655 S
H1092 C1096 0.929 . S
H1093 C1102 0.929 1_655 S
C1094 H1088 0.930 1_455 S
C1094 C1095 1.367 . S
C1094 C1102 1.378 1_565 S
C1095 C1094 1.367 . S
C1095 C1103 1.433 . S
C1096 H1092 0.929 . S
C1096 C1098 1.378 1_565 S
C1096 C1100 1.350 1_565 S
C1097 C1100 1.463 1_565 S
C1097 C1102 1.350 1_565 S
C1097 N1105 1.427 . S
C1098 H1089 0.930 . S
C1098 C1096 1.378 1_545 S
C1098 C1099 1.367 . S
C1099 C1098 1.367 . S
C1099 C1101 1.450 . S
C1100 C1096 1.350 1_545 S
C1100 C1097 1.463 1_545 S
C1100 N1104 1.427 . S
C1101 H1091 0.913 1_455 S
C1101 C1099 1.450 . S
C1101 N1104 1.384 . S
C1102 H1093 0.929 1_455 S
C1102 C1094 1.378 1_545 S
C1102 C1097 1.350 1_545 S
C1103 H1090 0.929 . S
C1103 C1095 1.433 . S
C1103 N1105 1.384 . S
N1104 C1100 1.427 . S
N1104 C1101 1.384 . S
N1105 C1097 1.427 . S
N1105 C1103 1.384 . S
H1106 C1112 0.930 . S
H1107 C1116 0.930 . S
H1108 C1121 0.929 . S
H1109 C1119 0.929 . S
H1110 C1114 0.929 . S
H1111 C1120 0.929 . S
C1112 H1106 0.930 . S
C1112 C1113 1.367 . S
C1112 C1120 1.378 . S
C1113 C1112 1.367 . S
C1113 C1121 1.433 . S
C1114 H1110 0.929 . S
C1114 C1116 1.378 . S
C1114 C1118 1.350 . S
C1115 C1118 1.463 . S
C1115 C1120 1.350 . S
C1115 N1123 1.427 . S
C1116 H1107 0.930 . S
C1116 C1114 1.378 . S
C1116 C1117 1.367 . S
C1117 C1116 1.367 . S
C1117 C1119 1.433 . S
C1118 C1114 1.350 . S
C1118 C1115 1.463 . S
C1118 N1122 1.427 . S
C1119 H1109 0.929 . S
C1119 C1117 1.433 . S
C1119 N1122 1.384 . S
C1120 H1111 0.929 . S
C1120 C1112 1.378 . S
C1120 C1115 1.350 . S
C1121 H1108 0.929 . S
C1121 C1113 1.433 . S
C1121 N1123 1.384 . S
N1122 C1118 1.427 . S
N1122 C1119 1.384 . S
N1123 C1115 1.427 . S
N1123 C1121 1.384 . S
H1124 C1130 0.930 . S
H1125 C1134 0.930 . S
H1126 C1139 0.929 . S
H1127 C1137 0.929 . S
H1128 C1132 0.929 . S
H1129 C1138 0.929 . S
C1130 H1124 0.930 . S
C1130 C1131 1.367 1_545 S
C1130 C1138 1.378 . S
C1131 C1130 1.367 1_565 S
C1131 C1139 1.433 . S
C1132 H1128 0.929 . S
C1132 C1134 1.378 . S
C1132 C1136 1.334 1_565 S
C1133 C1136 1.461 1_564 S
C1133 C1138 1.334 1_565 S
C1133 N1141 1.446 . S
C1134 H1125 0.930 . S
C1134 C1132 1.378 . S
C1134 C1135 1.367 1_565 S
C1135 C1134 1.367 1_545 S
C1135 C1137 1.433 . S
C1136 C1132 1.334 1_545 S
C1136 C1133 1.461 1_546 S
C1136 N1140 1.446 . S
C1137 H1127 0.929 . S
C1137 C1135 1.433 . S
C1137 N1140 1.384 . S
C1138 H1129 0.929 . S
C1138 C1130 1.378 . S
C1138 C1133 1.334 1_545 S
C1139 H1126 0.929 . S
C1139 C1131 1.433 . S
C1139 N1141 1.384 . S
N1140 C1136 1.446 . S
N1140 C1137 1.384 . S
N1141 C1133 1.446 . S
N1141 C1139 1.384 . S
H1142 C1148 0.930 . S
H1143 C1152 0.930 . S
H1144 C1157 0.929 . S
H1145 C1155 0.929 . S
H1146 C1150 0.929 . S
H1147 C1156 0.929 . S
C1148 H1142 0.930 . S
C1148 C1149 1.367 . S
C1148 C1156 1.378 . S
C1149 C1148 1.367 . S
C1149 C1157 1.433 . S
C1150 H1146 0.929 . S
C1150 C1152 1.378 . S
C1150 C1154 1.350 . S
C1151 C1154 1.463 . S
C1151 C1156 1.350 . S
C1151 N1159 1.427 . S
C1152 H1143 0.930 . S
C1152 C1150 1.378 . S
C1152 C1153 1.367 . S
C1153 C1152 1.367 . S
C1153 C1155 1.433 . S
C1154 C1150 1.350 . S
C1154 C1151 1.463 . S
C1154 N1158 1.427 . S
C1155 H1145 0.929 . S
C1155 C1153 1.433 . S
C1155 N1158 1.384 . S
C1156 H1147 0.929 . S
C1156 C1148 1.378 . S
C1156 C1151 1.350 . S
C1157 H1144 0.929 . S
C1157 C1149 1.433 . S
C1157 N1159 1.384 . S
N1158 C1154 1.427 . S
N1158 C1155 1.384 . S
N1159 C1151 1.427 . S
N1159 C1157 1.384 . S
H1160 C1166 0.930 . S
H1161 C1170 0.930 . S
H1162 C1175 0.929 . S
H1163 C1173 0.929 . S
H1164 C1168 0.929 . S
H1165 C1174 0.929 . S
C1166 H1160 0.930 . S
C1166 C1167 1.367 . S
C1166 C1174 1.378 . S
C1167 C1166 1.367 . S
C1167 C1175 1.433 . S
C1168 H1164 0.929 . S
C1168 C1170 1.378 . S
C1168 C1172 1.350 . S
C1169 C1172 1.463 . S
C1169 C1174 1.350 . S
C1169 N1177 1.427 . S
C1170 H1161 0.930 . S
C1170 C1168 1.378 . S
C1170 C1171 1.367 . S
C1171 C1170 1.367 . S
C1171 C1173 1.433 . S
C1172 C1168 1.350 . S
C1172 C1169 1.463 . S
C1172 N1176 1.427 . S
C1173 H1163 0.929 . S
C1173 C1171 1.433 . S
C1173 N1176 1.384 . S
C1174 H1165 0.929 . S
C1174 C1166 1.378 . S
C1174 C1169 1.350 . S
C1175 H1162 0.929 . S
C1175 C1167 1.433 . S
C1175 N1177 1.384 . S
N1176 C1172 1.427 . S
N1176 C1173 1.384 . S
N1177 C1169 1.427 . S
N1177 C1175 1.384 . S
H1178 C1184 0.930 . S
H1179 C1188 0.930 . S
H1180 C1193 0.929 . S
H1181 C1191 0.929 . S
H1182 C1186 0.929 . S
H1183 C1192 0.929 . S
C1184 H1178 0.930 . S
C1184 C1185 1.367 . S
C1184 C1192 1.378 . S
C1185 C1184 1.367 . S
C1185 C1193 1.433 . S
C1186 H1182 0.929 . S
C1186 C1188 1.378 . S
C1186 C1190 1.350 . S
C1187 C1190 1.463 . S
C1187 C1192 1.350 . S
C1187 N1195 1.427 . S
C1188 H1179 0.930 . S
C1188 C1186 1.378 . S
C1188 C1189 1.367 . S
C1189 C1188 1.367 . S
C1189 C1191 1.433 . S
C1190 C1186 1.350 . S
C1190 C1187 1.463 . S
C1190 N1194 1.427 . S
C1191 H1181 0.929 . S
C1191 C1189 1.433 . S
C1191 N1194 1.384 . S
C1192 H1183 0.929 . S
C1192 C1184 1.378 . S
C1192 C1187 1.350 . S
C1193 H1180 0.929 . S
C1193 C1185 1.433 . S
C1193 N1195 1.384 . S
N1194 C1190 1.427 . S
N1194 C1191 1.384 . S
N1195 C1187 1.427 . S
N1195 C1193 1.384 . S
H1196 C1202 0.930 . S
H1197 C1206 0.930 . S
H1198 C1211 0.929 . S
H1199 C1209 0.929 . S
H1200 C1204 0.929 . S
H1201 C1210 0.929 . S
C1202 H1196 0.930 . S
C1202 C1203 1.367 . S
C1202 C1210 1.378 . S
C1203 C1202 1.367 . S
C1203 C1211 1.433 . S
C1204 H1200 0.929 . S
C1204 C1206 1.378 . S
C1204 C1208 1.350 . S
C1205 C1208 1.463 1_556 S
C1205 C1210 1.350 . S
C1205 N1213 1.427 . S
C1206 H1197 0.930 . S
C1206 C1204 1.378 . S
C1206 C1207 1.367 . S
C1207 C1206 1.367 . S
C1207 C1209 1.433 . S
C1208 C1204 1.350 . S
C1208 C1205 1.463 1_554 S
C1208 N1212 1.427 . S
C1209 H1199 0.929 . S
C1209 C1207 1.433 . S
C1209 N1212 1.384 . S
C1210 H1201 0.929 . S
C1210 C1202 1.378 . S
C1210 C1205 1.350 . S
C1211 H1198 0.929 . S
C1211 C1203 1.433 . S
C1211 N1213 1.384 . S
N1212 C1208 1.427 . S
N1212 C1209 1.384 . S
N1213 C1205 1.427 . S
N1213 C1211 1.384 . S
H1214 C1220 0.930 . S
H1215 C1224 0.930 . S
H1216 C1229 0.929 . S
H1217 C1227 0.929 . S
H1218 C1222 0.929 . S
H1219 C1228 0.929 . S
C1220 H1214 0.930 . S
C1220 C1221 1.367 1_455 S
C1220 C1228 1.378 . S
C1221 C1220 1.367 1_655 S
C1221 C1229 1.433 . S
C1222 H1218 0.929 . S
C1222 C1224 1.378 . S
C1222 C1226 1.350 . S
C1223 C1226 1.463 . S
C1223 C1228 1.350 1_655 S
C1223 N1231 1.427 . S
C1224 H1215 0.930 . S
C1224 C1222 1.378 . S
C1224 C1225 1.367 . S
C1225 C1224 1.367 . S
C1225 C1227 1.433 1_655 S
C1226 C1222 1.350 . S
C1226 C1223 1.463 . S
C1226 N1230 1.427 1_655 S
C1227 H1217 0.929 . S
C1227 C1225 1.433 1_455 S
C1227 N1230 1.384 . S
C1228 H1219 0.929 . S
C1228 C1220 1.378 . S
C1228 C1223 1.350 1_455 S
C1229 H1216 0.929 . S
C1229 C1221 1.433 . S
C1229 N1231 1.384 . S
N1230 C1226 1.427 1_455 S
N1230 C1227 1.384 . S
N1231 C1223 1.427 . S
N1231 C1229 1.384 . S
H1232 C1238 0.930 . S
H1233 C1242 0.930 . S
H1234 C1247 0.929 . S
H1235 C1245 0.929 . S
H1236 C1240 0.929 . S
H1237 C1246 0.929 . S
C1238 H1232 0.930 . S
C1238 C1239 1.367 . S
C1238 C1246 1.378 . S
C1239 C1238 1.367 . S
C1239 C1247 1.433 . S
C1240 H1236 0.929 . S
C1240 C1242 1.378 . S
C1240 C1244 1.350 . S
C1241 C1244 1.463 . S
C1241 C1246 1.350 . S
C1241 N1249 1.427 . S
C1242 H1233 0.930 . S
C1242 C1240 1.378 . S
C1242 C1243 1.367 . S
C1243 C1242 1.367 . S
C1243 C1245 1.433 . S
C1244 C1240 1.350 . S
C1244 C1241 1.463 . S
C1244 N1248 1.427 . S
C1245 H1235 0.929 . S
C1245 C1243 1.433 . S
C1245 N1248 1.384 . S
C1246 H1237 0.929 . S
C1246 C1238 1.378 . S
C1246 C1241 1.350 . S
C1247 H1234 0.929 . S
C1247 C1239 1.433 . S
C1247 N1249 1.384 . S
N1248 C1244 1.427 . S
N1248 C1245 1.384 . S
N1249 C1241 1.427 . S
N1249 C1247 1.384 . S
H1250 C1256 0.930 . S
H1251 C1260 0.930 . S
H1252 C1265 0.929 . S
H1253 C1263 0.929 . S
H1254 C1258 0.929 . S
H1255 C1264 0.929 . S
C1256 H1250 0.930 . S
C1256 C1257 1.367 . S
C1256 C1264 1.378 . S
C1257 C1256 1.367 . S
C1257 C1265 1.433 . S
C1258 H1254 0.929 . S
C1258 C1260 1.378 . S
C1258 C1262 1.350 . S
C1259 C1262 1.463 . S
C1259 C1264 1.350 . S
C1259 N1267 1.427 . S
C1260 H1251 0.930 . S
C1260 C1258 1.378 . S
C1260 C1261 1.367 . S
C1261 C1260 1.367 . S
C1261 C1263 1.433 . S
C1262 C1258 1.350 . S
C1262 C1259 1.463 . S
C1262 N1266 1.427 . S
C1263 H1253 0.929 . S
C1263 C1261 1.433 . S
C1263 N1266 1.384 . S
C1264 H1255 0.929 . S
C1264 C1256 1.378 . S
C1264 C1259 1.350 . S
C1265 H1252 0.929 . S
C1265 C1257 1.433 . S
C1265 N1267 1.384 . S
N1266 C1262 1.427 . S
N1266 C1263 1.384 . S
N1267 C1259 1.427 . S
N1267 C1265 1.384 . S
H1268 C1274 0.930 . S
H1269 C1278 0.930 . S
H1270 C1283 0.929 . S
H1271 C1281 0.929 . S
H1272 C1276 0.929 . S
H1273 C1282 0.929 . S
C1274 H1268 0.930 . S
C1274 C1275 1.367 . S
C1274 C1282 1.378 . S
C1275 C1274 1.367 . S
C1275 C1283 1.433 . S
C1276 H1272 0.929 . S
C1276 C1278 1.378 . S
C1276 C1280 1.350 . S
C1277 C1280 1.463 . S
C1277 C1282 1.350 . S
C1277 N1285 1.427 . S
C1278 H1269 0.930 . S
C1278 C1276 1.378 . S
C1278 C1279 1.367 . S
C1279 C1278 1.367 . S
C1279 C1281 1.433 . S
C1280 C1276 1.350 . S
C1280 C1277 1.463 . S
C1280 N1284 1.427 . S
C1281 H1271 0.929 . S
C1281 C1279 1.433 . S
C1281 N1284 1.384 . S
C1282 H1273 0.929 . S
C1282 C1274 1.378 . S
C1282 C1277 1.350 . S
C1283 H1270 0.929 . S
C1283 C1275 1.433 . S
C1283 N1285 1.384 . S
N1284 C1280 1.427 . S
N1284 C1281 1.384 . S
N1285 C1277 1.427 . S
N1285 C1283 1.384 . S
H1286 C1292 0.930 . S
H1287 C1296 0.930 . S
H1288 C1301 0.929 . S
H1289 C1299 0.929 . S
H1290 C1294 0.929 . S
H1291 C1300 0.929 . S
C1292 H1286 0.930 . S
C1292 C1293 1.367 . S
C1292 C1300 1.378 . S
C1293 C1292 1.367 . S
C1293 C1301 1.433 . S
C1294 H1290 0.929 . S
C1294 C1296 1.378 . S
C1294 C1298 1.350 . S
C1295 C1298 1.463 . S
C1295 C1300 1.350 . S
C1295 N1303 1.427 . S
C1296 H1287 0.930 . S
C1296 C1294 1.378 . S
C1296 C1297 1.367 . S
C1297 C1296 1.367 . S
C1297 C1299 1.433 . S
C1298 C1294 1.350 . S
C1298 C1295 1.463 . S
C1298 N1302 1.427 . S
C1299 H1289 0.929 . S
C1299 C1297 1.433 . S
C1299 N1302 1.384 . S
C1300 H1291 0.929 . S
C1300 C1292 1.378 . S
C1300 C1295 1.350 . S
C1301 H1288 0.929 . S
C1301 C1293 1.433 . S
C1301 N1303 1.384 . S
N1302 C1298 1.427 . S
N1302 C1299 1.384 . S
N1303 C1295 1.427 . S
N1303 C1301 1.384 . S
H1304 C1310 0.930 . S
H1305 C1314 0.930 . S
H1306 C1319 0.929 . S
H1307 C1317 0.929 . S
H1308 C1312 0.929 . S
H1309 C1318 0.929 . S
C1310 H1304 0.930 . S
C1310 C1311 1.367 . S
C1310 C1318 1.378 . S
C1311 C1310 1.367 . S
C1311 C1319 1.433 . S
C1312 H1308 0.929 . S
C1312 C1314 1.378 . S
C1312 C1316 1.350 . S
C1313 C1316 1.463 . S
C1313 C1318 1.350 . S
C1313 N1321 1.427 . S
C1314 H1305 0.930 . S
C1314 C1312 1.378 . S
C1314 C1315 1.367 . S
C1315 C1314 1.367 . S
C1315 C1317 1.433 . S
C1316 C1312 1.350 . S
C1316 C1313 1.463 . S
C1316 N1320 1.427 . S
C1317 H1307 0.929 . S
C1317 C1315 1.433 . S
C1317 N1320 1.384 . S
C1318 H1309 0.929 . S
C1318 C1310 1.378 . S
C1318 C1313 1.350 . S
C1319 H1306 0.929 . S
C1319 C1311 1.433 . S
C1319 N1321 1.384 . S
N1320 C1316 1.427 . S
N1320 C1317 1.384 . S
N1321 C1313 1.427 . S
N1321 C1319 1.384 . S
H1322 C1328 0.930 . S
H1323 C1332 0.930 . S
H1324 C1337 0.945 . S
H1325 C1335 0.929 . S
H1326 C1330 0.929 . S
H1327 C1336 0.929 . S
C1328 H1322 0.930 . S
C1328 C1329 1.367 . S
C1328 C1336 1.378 . S
C1329 C1328 1.367 . S
C1329 C1337 1.433 . S
C1330 H1326 0.929 . S
C1330 C1332 1.378 . S
C1330 C1334 1.350 . S
C1331 C1334 1.463 . S
C1331 C1336 1.350 . S
C1331 N1339 1.427 . S
C1332 H1323 0.930 . S
C1332 C1330 1.378 . S
C1332 C1333 1.367 . S
C1333 C1332 1.367 . S
C1333 C1335 1.433 . S
C1334 C1330 1.350 . S
C1334 C1331 1.463 . S
C1334 N1338 1.427 . S
C1335 H1325 0.929 . S
C1335 C1333 1.433 . S
C1335 N1338 1.384 . S
C1336 H1327 0.929 . S
C1336 C1328 1.378 . S
C1336 C1331 1.350 . S
C1337 H1324 0.945 . S
C1337 C1329 1.433 . S
C1337 N1339 1.384 . S
N1338 C1334 1.427 . S
N1338 C1335 1.384 . S
N1339 C1331 1.427 . S
N1339 C1337 1.384 . S
H1340 C1346 0.930 . S
H1341 C1350 0.930 . S
H1342 C1355 0.929 . S
H1343 C1353 0.929 . S
H1344 C1348 0.929 . S
H1345 C1354 0.929 . S
C1346 H1340 0.930 . S
C1346 C1347 1.367 . S
C1346 C1354 1.378 . S
C1347 C1346 1.367 . S
C1347 C1355 1.433 . S
C1348 H1344 0.929 . S
C1348 C1350 1.378 . S
C1348 C1352 1.350 . S
C1349 C1352 1.463 . S
C1349 C1354 1.350 . S
C1349 N1357 1.427 . S
C1350 H1341 0.930 . S
C1350 C1348 1.378 . S
C1350 C1351 1.367 . S
C1351 C1350 1.367 . S
C1351 C1353 1.433 . S
C1352 C1348 1.350 . S
C1352 C1349 1.463 . S
C1352 N1356 1.427 . S
C1353 H1343 0.929 . S
C1353 C1351 1.433 . S
C1353 N1356 1.384 . S
C1354 H1345 0.929 . S
C1354 C1346 1.378 . S
C1354 C1349 1.350 . S
C1355 H1342 0.929 . S
C1355 C1347 1.433 . S
C1355 N1357 1.384 . S
N1356 C1352 1.427 . S
N1356 C1353 1.384 . S
N1357 C1349 1.427 . S
N1357 C1355 1.384 . S
H1358 C1364 0.930 . S
H1359 C1368 0.930 . S
H1360 C1373 0.929 . S
H1361 C1371 0.929 . S
H1362 C1366 0.929 . S
H1363 C1372 0.929 . S
C1364 H1358 0.930 . S
C1364 C1365 1.367 . S
C1364 C1372 1.378 . S
C1365 C1364 1.367 . S
C1365 C1373 1.433 . S
C1366 H1362 0.929 . S
C1366 C1368 1.378 . S
C1366 C1370 1.350 . S
C1367 C1370 1.463 . S
C1367 C1372 1.350 . S
C1367 N1375 1.427 . S
C1368 H1359 0.930 . S
C1368 C1366 1.378 . S
C1368 C1369 1.367 . S
C1369 C1368 1.367 . S
C1369 C1371 1.433 . S
C1370 C1366 1.350 . S
C1370 C1367 1.463 . S
C1370 N1374 1.427 . S
C1371 H1361 0.929 . S
C1371 C1369 1.433 . S
C1371 N1374 1.384 . S
C1372 H1363 0.929 . S
C1372 C1364 1.378 . S
C1372 C1367 1.350 . S
C1373 H1360 0.929 . S
C1373 C1365 1.433 . S
C1373 N1375 1.384 . S
N1374 C1370 1.427 . S
N1374 C1371 1.384 . S
N1375 C1367 1.427 . S
N1375 C1373 1.384 . S
H1376 C1382 0.930 . S
H1377 C1386 0.930 . S
H1378 C1391 0.929 . S
H1379 C1389 0.929 . S
H1380 C1384 0.929 . S
H1381 C1390 0.929 . S
C1382 H1376 0.930 . S
C1382 C1383 1.367 . S
C1382 C1390 1.378 . S
C1383 C1382 1.367 . S
C1383 C1391 1.433 . S
C1384 H1380 0.929 . S
C1384 C1386 1.378 . S
C1384 C1388 1.350 . S
C1385 C1388 1.463 . S
C1385 C1390 1.350 . S
C1385 N1393 1.427 . S
C1386 H1377 0.930 . S
C1386 C1384 1.378 . S
C1386 C1387 1.367 . S
C1387 C1386 1.367 . S
C1387 C1389 1.433 . S
C1388 C1384 1.350 . S
C1388 C1385 1.463 . S
C1388 N1392 1.427 . S
C1389 H1379 0.929 . S
C1389 C1387 1.433 . S
C1389 N1392 1.384 . S
C1390 H1381 0.929 . S
C1390 C1382 1.378 . S
C1390 C1385 1.350 . S
C1391 H1378 0.929 . S
C1391 C1383 1.433 . S
C1391 N1393 1.384 . S
N1392 C1388 1.427 . S
N1392 C1389 1.384 . S
N1393 C1385 1.427 . S
N1393 C1391 1.384 . S
H1394 C1400 0.930 . S
H1395 C1404 0.930 . S
H1396 C1409 0.929 . S
H1397 C1407 0.929 . S
H1398 C1402 0.929 . S
H1399 C1408 0.929 . S
C1400 H1394 0.930 . S
C1400 C1401 1.367 . S
C1400 C1408 1.378 . S
C1401 C1400 1.367 . S
C1401 C1409 1.433 . S
C1402 H1398 0.929 . S
C1402 C1404 1.378 . S
C1402 C1406 1.350 . S
C1403 C1406 1.463 . S
C1403 C1408 1.350 . S
C1403 N1411 1.427 . S
C1404 H1395 0.930 . S
C1404 C1402 1.378 . S
C1404 C1405 1.367 . S
C1405 C1404 1.367 . S
C1405 C1407 1.433 . S
C1406 C1402 1.350 . S
C1406 C1403 1.463 . S
C1406 N1410 1.427 . S
C1407 H1397 0.929 . S
C1407 C1405 1.433 . S
C1407 N1410 1.384 . S
C1408 H1399 0.929 . S
C1408 C1400 1.378 . S
C1408 C1403 1.350 . S
C1409 H1396 0.929 . S
C1409 C1401 1.433 . S
C1409 N1411 1.384 . S
N1410 C1406 1.427 . S
N1410 C1407 1.384 . S
N1411 C1403 1.427 . S
N1411 C1409 1.384 . S
H1412 C1418 0.930 . S
H1413 C1422 0.930 . S
H1414 C1427 0.929 . S
H1415 C1425 0.929 . S
H1416 C1420 0.929 . S
H1417 C1426 0.929 . S
C1418 H1412 0.930 . S
C1418 C1419 1.367 . S
C1418 C1426 1.378 . S
C1419 C1418 1.367 . S
C1419 C1427 1.433 . S
C1420 H1416 0.929 . S
C1420 C1422 1.378 . S
C1420 C1424 1.350 . S
C1421 C1424 1.463 . S
C1421 C1426 1.350 . S
C1421 N1429 1.427 . S
C1422 H1413 0.930 . S
C1422 C1420 1.378 . S
C1422 C1423 1.367 . S
C1423 C1422 1.367 . S
C1423 C1425 1.433 . S
C1424 C1420 1.350 . S
C1424 C1421 1.463 . S
C1424 N1428 1.427 . S
C1425 H1415 0.929 . S
C1425 C1423 1.433 . S
C1425 N1428 1.384 . S
C1426 H1417 0.929 . S
C1426 C1418 1.378 . S
C1426 C1421 1.350 . S
C1427 H1414 0.929 . S
C1427 C1419 1.433 . S
C1427 N1429 1.384 . S
N1428 C1424 1.427 . S
N1428 C1425 1.384 . S
N1429 C1421 1.427 . S
N1429 C1427 1.384 . S
H1430 C1436 0.930 . S
H1431 C1440 0.930 . S
H1432 C1445 0.929 . S
H1433 C1443 0.929 . S
H1434 C1438 0.929 . S
H1435 C1444 0.929 . S
C1436 H1430 0.930 . S
C1436 C1437 1.367 . S
C1436 C1444 1.378 . S
C1437 C1436 1.367 . S
C1437 C1445 1.433 . S
C1438 H1434 0.929 . S
C1438 C1440 1.378 . S
C1438 C1442 1.350 . S
C1439 C1442 1.463 . S
C1439 C1444 1.350 . S
C1439 N1447 1.427 . S
C1440 H1431 0.930 . S
C1440 C1438 1.378 . S
C1440 C1441 1.367 . S
C1441 C1440 1.367 . S
C1441 C1443 1.433 . S
C1442 C1438 1.350 . S
C1442 C1439 1.463 . S
C1442 N1446 1.427 . S
C1443 H1433 0.929 . S
C1443 C1441 1.433 . S
C1443 N1446 1.384 . S
C1444 H1435 0.929 . S
C1444 C1436 1.378 . S
C1444 C1439 1.350 . S
C1445 H1432 0.929 . S
C1445 C1437 1.433 . S
C1445 N1447 1.384 . S
N1446 C1442 1.427 . S
N1446 C1443 1.384 . S
N1447 C1439 1.427 . S
N1447 C1445 1.384 . S
H1448 C1454 0.930 . S
H1449 C1458 0.930 . S
H1450 C1463 0.929 . S
H1451 C1461 0.929 . S
H1452 C1456 0.929 . S
H1453 C1462 0.929 . S
C1454 H1448 0.930 . S
C1454 C1455 1.367 . S
C1454 C1462 1.378 . S
C1455 C1454 1.367 . S
C1455 C1463 1.433 . S
C1456 H1452 0.929 . S
C1456 C1458 1.378 . S
C1456 C1460 1.350 . S
C1457 C1460 1.463 . S
C1457 C1462 1.350 . S
C1457 N1465 1.427 . S
C1458 H1449 0.930 . S
C1458 C1456 1.378 . S
C1458 C1459 1.367 . S
C1459 C1458 1.367 . S
C1459 C1461 1.433 . S
C1460 C1456 1.350 . S
C1460 C1457 1.463 . S
C1460 N1464 1.427 . S
C1461 H1451 0.929 . S
C1461 C1459 1.433 . S
C1461 N1464 1.384 . S
C1462 H1453 0.929 . S
C1462 C1454 1.378 . S
C1462 C1457 1.350 . S
C1463 H1450 0.929 . S
C1463 C1455 1.433 . S
C1463 N1465 1.384 . S
N1464 C1460 1.427 . S
N1464 C1461 1.384 . S
N1465 C1457 1.427 . S
N1465 C1463 1.384 . S
H1466 C1472 0.930 . S
H1467 C1476 0.930 . S
H1468 C1481 0.929 . S
H1469 C1479 0.929 . S
H1470 C1474 0.929 . S
H1471 C1480 0.929 . S
C1472 H1466 0.930 . S
C1472 C1473 1.367 . S
C1472 C1480 1.378 . S
C1473 C1472 1.367 . S
C1473 C1481 1.433 . S
C1474 H1470 0.929 . S
C1474 C1476 1.378 . S
C1474 C1478 1.350 . S
C1475 C1478 1.463 . S
C1475 C1480 1.350 . S
C1475 N1483 1.427 . S
C1476 H1467 0.930 . S
C1476 C1474 1.378 . S
C1476 C1477 1.367 . S
C1477 C1476 1.367 . S
C1477 C1479 1.433 . S
C1478 C1474 1.350 . S
C1478 C1475 1.463 . S
C1478 N1482 1.427 . S
C1479 H1469 0.929 . S
C1479 C1477 1.433 . S
C1479 N1482 1.384 . S
C1480 H1471 0.929 . S
C1480 C1472 1.378 . S
C1480 C1475 1.350 . S
C1481 H1468 0.929 . S
C1481 C1473 1.433 . S
C1481 N1483 1.384 . S
N1482 C1478 1.427 . S
N1482 C1479 1.384 . S
N1483 C1475 1.427 . S
N1483 C1481 1.384 . S
H1484 C1490 0.930 . S
H1485 C1494 0.930 . S
H1486 C1499 0.929 . S
H1487 C1497 0.929 . S
H1488 C1492 0.929 . S
H1489 C1498 0.929 . S
C1490 H1484 0.930 . S
C1490 C1491 1.367 . S
C1490 C1498 1.378 . S
C1491 C1490 1.367 . S
C1491 C1499 1.433 . S
C1492 H1488 0.929 . S
C1492 C1494 1.378 . S
C1492 C1496 1.350 . S
C1493 C1496 1.463 . S
C1493 C1498 1.350 . S
C1493 N1501 1.427 . S
C1494 H1485 0.930 . S
C1494 C1492 1.378 . S
C1494 C1495 1.367 . S
C1495 C1494 1.367 . S
C1495 C1497 1.433 . S
C1496 C1492 1.350 . S
C1496 C1493 1.463 . S
C1496 N1500 1.427 . S
C1497 H1487 0.929 . S
C1497 C1495 1.433 . S
C1497 N1500 1.384 . S
C1498 H1489 0.929 . S
C1498 C1490 1.378 . S
C1498 C1493 1.350 . S
C1499 H1486 0.929 . S
C1499 C1491 1.433 . S
C1499 N1501 1.384 . S
N1500 C1496 1.427 . S
N1500 C1497 1.384 . S
N1501 C1493 1.427 . S
N1501 C1499 1.384 . S
H1502 C1508 0.930 . S
H1503 C1512 0.930 . S
H1504 C1517 0.929 . S
H1505 C1515 0.929 . S
H1506 C1510 0.929 . S
H1507 C1516 0.929 . S
C1508 H1502 0.930 . S
C1508 C1509 1.367 . S
C1508 C1516 1.378 . S
C1509 C1508 1.367 . S
C1509 C1517 1.433 . S
C1510 H1506 0.929 . S
C1510 C1512 1.378 . S
C1510 C1514 1.350 . S
C1511 C1514 1.463 . S
C1511 C1516 1.350 . S
C1511 N1519 1.427 . S
C1512 H1503 0.930 . S
C1512 C1510 1.378 . S
C1512 C1513 1.367 . S
C1513 C1512 1.367 . S
C1513 C1515 1.433 . S
C1514 C1510 1.350 . S
C1514 C1511 1.463 . S
C1514 N1518 1.427 . S
C1515 H1505 0.929 . S
C1515 C1513 1.433 . S
C1515 N1518 1.384 . S
C1516 H1507 0.929 . S
C1516 C1508 1.378 . S
C1516 C1511 1.350 . S
C1517 H1504 0.929 . S
C1517 C1509 1.433 . S
C1517 N1519 1.384 . S
N1518 C1514 1.427 . S
N1518 C1515 1.384 . S
N1519 C1511 1.427 . S
N1519 C1517 1.384 . S
C951 C5 1.290 . S
C955 C772 1.290 . S
C969 C654 1.295 . S
C973 C64 1.297 . S
C987 C713 1.298 . S
C991 C123 1.299 . S
C1005 C595 1.299 . S
C1009 C182 1.300 . S
C1023 C241 1.296 . S
C1027 C890 1.297 . S
C1041 C300 1.298 . S
C1045 C536 1.300 . S
C1059 C831 1.299 . S
C1063 C359 1.300 . S
C1077 C418 1.290 . S
C1081 C477 1.290 . S
C1095 C239 1.639 . S
C1099 C3 1.641 . S
C1113 C62 1.641 . S
C1117 C298 1.642 . S
C1131 C121 1.638 . S
C1135 C357 1.639 . S
C1149 C416 1.641 . S
C1153 C180 1.642 . S
C1167 C475 1.640 . S
C1171 C593 1.638 . S
C1185 C534 1.643 . S
C1189 C652 1.642 . S
C1203 C829 1.637 . S
C1207 C711 1.638 . S
C1221 C770 1.639 . S
C1225 C888 1.641 . S
C1239 C347 1.396 . S
C1243 C52 1.395 . S
C1257 C111 1.399 . S
C1261 C406 1.398 . S
C1275 C170 1.397 . S
C1279 C465 1.399 . S
C1293 C288 1.396 . S
C1297 C229 1.395 . S
C1311 C269 1.680 . S
C1315 C623 1.686 . S
C1329 C151 1.676 . S
C1333 C505 1.681 . S
C1347 C682 1.677 . S
C1351 C387 1.676 . S
C1365 C564 1.678 . S
C1369 C33 1.676 . S
C1383 C524 1.396 . S
C1387 C760 1.394 . S
C1401 C642 1.398 . S
C1405 C937 1.396 . S
C1419 C819 1.394 . S
C1423 C583 1.393 . S
C1437 C701 1.396 . S
C1441 C878 1.395 . S
C1455 C859 1.676 . S
C1459 C92 1.679 . S
C1473 C800 1.681 . S
C1477 C328 1.676 . S
C1491 C918 1.678 . S
C1495 C210 1.684 . S
C1509 C741 1.687 . S
C1513 C446 1.683 . S
