# Generated by pormake.
# Topology vbe, (5)-cn, num edge types: 1
# Building blocks:
#     Node 0, Type 0, BuildingBlock: BEQFEK_clean_sbu_0, # of connection points: 5
#     Node 1, Type 0, BuildingBlock: BEQFEK_clean_sbu_0, # of connection points: 5
#     Node 2, Type 0, BuildingBlock: BEQFEK_clean_sbu_0, # of connection points: 5
#     Node 3, Type 0, BuildingBlock: BEQFEK_clean_sbu_0, # of connection points: 5
#     Node 4, Type 0, BuildingBlock: BEQFEK_clean_sbu_0, # of connection points: 5
#     Node 5, Type 0, BuildingBlock: BEQFEK_clean_sbu_0, # of connection points: 5
#     Node 6, Type 0, BuildingBlock: BEQFEK_clean_sbu_0, # of connection points: 5
#     Node 7, Type 0, BuildingBlock: BEQFEK_clean_sbu_0, # of connection points: 5
#     Node 8, Type 0, BuildingBlock: BEQFEK_clean_sbu_0, # of connection points: 5
#     Node 9, Type 0, BuildingBlock: BEQFEK_clean_sbu_0, # of connection points: 5
#     Node 10, Type 0, BuildingBlock: BEQFEK_clean_sbu_0, # of connection points: 5
#     Node 11, Type 0, BuildingBlock: BEQFEK_clean_sbu_0, # of connection points: 5
#     Node 12, Type 0, BuildingBlock: BEQFEK_clean_sbu_0, # of connection points: 5
#     Node 13, Type 0, BuildingBlock: BEQFEK_clean_sbu_0, # of connection points: 5
#     Node 14, Type 0, BuildingBlock: BEQFEK_clean_sbu_0, # of connection points: 5
#     Node 15, Type 0, BuildingBlock: BEQFEK_clean_sbu_0, # of connection points: 5
#     Edge 16, Type (0, 0), None
#     Edge 17, Type (0, 0), None
#     Edge 18, Type (0, 0), None
#     Edge 19, Type (0, 0), None
#     Edge 20, Type (0, 0), None
#     Edge 21, Type (0, 0), None
#     Edge 22, Type (0, 0), None
#     Edge 23, Type (0, 0), None
#     Edge 24, Type (0, 0), None
#     Edge 25, Type (0, 0), None
#     Edge 26, Type (0, 0), None
#     Edge 27, Type (0, 0), None
#     Edge 28, Type (0, 0), None
#     Edge 29, Type (0, 0), None
#     Edge 30, Type (0, 0), None
#     Edge 31, Type (0, 0), None
#     Edge 32, Type (0, 0), None
#     Edge 33, Type (0, 0), None
#     Edge 34, Type (0, 0), None
#     Edge 35, Type (0, 0), None
#     Edge 36, Type (0, 0), None
#     Edge 37, Type (0, 0), None
#     Edge 38, Type (0, 0), None
#     Edge 39, Type (0, 0), None
#     Edge 40, Type (0, 0), None
#     Edge 41, Type (0, 0), None
#     Edge 42, Type (0, 0), None
#     Edge 43, Type (0, 0), None
#     Edge 44, Type (0, 0), None
#     Edge 45, Type (0, 0), None
#     Edge 46, Type (0, 0), None
#     Edge 47, Type (0, 0), None
#     Edge 48, Type (0, 0), None
#     Edge 49, Type (0, 0), None
#     Edge 50, Type (0, 0), None
#     Edge 51, Type (0, 0), None
#     Edge 52, Type (0, 0), None
#     Edge 53, Type (0, 0), None
#     Edge 54, Type (0, 0), None
#     Edge 55, Type (0, 0), None
# Relax obj value: 0.401
# Max RMSD: 0.232
# Mean RMSD: 0.232
data_MOF--net-vbe--node1-BEQFEK_clean_sbu_0--edge1-none
_symmetry_space_group_name_H-M    P1
_symmetry_Int_Tables_number       1
_symmetry_cell_setting            triclinic
loop_
_symmetry_equiv_pos_as_xyz
'x, y, z'
_cell_length_a     20.89218
_cell_length_b     20.888187
_cell_length_c     31.504002
_cell_angle_alpha  90.007872
_cell_angle_beta   89.999989
_cell_angle_gamma 90.001225
loop_
_atom_site_label
_atom_site_type_symbol
_atom_site_fract_x
_atom_site_fract_y
_atom_site_fract_z
_atom_type_partial_charge
Co0 Co 0.14161 0.14052 0.32809 0.0
Co1 Co 0.05331 0.0792 0.3938 0.0
C2 C 0.03843 0.21929 0.37316 0.0
O3 O 0.08263 0.21363 0.3454 0.0
O4 O 0.02374 0.1721 0.39693 0.0
C5 C 0.23129 0.22544 0.29841 0.0
O6 O 0.2285 0.24522 0.33799 0.0
C7 C 0.03506 0.05086 0.48206 0.0
C8 C 0.97871 0.9617 0.48232 0.0
C9 C 1.01219 0.00321 0.50866 0.0
N10 N 1.01755 0.03729 0.442 0.0
N11 N 0.98296 0.98437 0.44232 0.0
C12 C 0.07807 0.10544 0.49368 0.0
H13 H 0.08986 0.13485 0.46545 0.0
H14 H 0.12301 0.08677 0.5078 0.0
H15 H 0.05418 0.13594 0.51779 0.0
C16 C 0.24251 0.07472 0.37482 0.0
N17 N 0.18211 0.09704 0.37212 0.0
N18 N 0.14482 0.0647 0.3978 0.0
C19 C 0.18067 0.01913 0.41713 0.0
C20 C 0.24399 0.02472 0.40373 0.0
C21 C 0.29399 0.09023 0.34328 0.0
H22 H 0.27674 0.07928 0.31079 0.0
H23 H 0.30555 0.14187 0.34518 0.0
H24 H 0.33855 0.06282 0.34907 0.0
O25 O 0.09276 0.08066 0.29304 0.0
O26 O 1.01743 0.04773 0.33752 0.0
H27 H 0.10754 0.94822 0.42652 0.0
H28 H 0.18698 0.92194 0.44091 0.0
C29 C 0.15356 0.96323 0.44089 0.0
H30 H 0.14525 0.97719 0.47435 0.0
H31 H 0.96524 0.96197 0.41515 0.0
O32 O 0.20456 0.17331 0.28885 0.0
C33 C 0.04042 0.05174 0.29986 0.0
Co34 Co 0.39524 0.85743 0.3281 0.0
Co35 Co 0.4836 0.91876 0.39381 0.0
C36 C 0.49839 0.77864 0.37317 0.0
O37 O 0.45417 0.78428 0.34543 0.0
O38 O 0.51315 0.82585 0.39691 0.0
C39 C 0.30548 0.77256 0.29841 0.0
O40 O 0.30822 0.75279 0.33799 0.0
C41 C 0.50191 0.94711 0.48206 0.0
C42 C 0.55829 0.03624 0.48231 0.0
C43 C 0.5248 0.99476 0.50866 0.0
N44 N 0.51941 0.96066 0.442 0.0
N45 N 0.55403 0.01356 0.44232 0.0
C46 C 0.45887 0.89256 0.49369 0.0
H47 H 0.44707 0.86314 0.46546 0.0
H48 H 0.41394 0.91125 0.50781 0.0
H49 H 0.48275 0.86206 0.5178 0.0
C50 C 0.29441 0.92343 0.37478 0.0
N51 N 0.35477 0.90101 0.37212 0.0
N52 N 0.3921 0.9333 0.39782 0.0
C53 C 0.35631 0.97895 0.41714 0.0
C54 C 0.29304 0.97349 0.40365 0.0
C55 C 0.24294 0.90798 0.34323 0.0
H56 H 0.26024 0.91887 0.31074 0.0
H57 H 0.23129 0.85636 0.34514 0.0
H58 H 0.19843 0.93549 0.34899 0.0
O59 O 0.44417 0.9172 0.29304 0.0
O60 O 0.51945 0.95027 0.33753 0.0
H61 H 0.42951 0.04977 0.42656 0.0
H62 H 0.35012 0.07612 0.44096 0.0
C63 C 0.38348 0.0348 0.44092 0.0
H64 H 0.39178 0.02081 0.47438 0.0
H65 H 0.57175 0.03593 0.41515 0.0
O66 O 0.33226 0.82466 0.28886 0.0
C67 C 0.49647 0.9462 0.29988 0.0
Co68 Co 0.64159 0.85761 0.23527 0.0
Co69 Co 0.55333 0.91872 0.16947 0.0
C70 C 0.53841 0.77872 0.19021 0.0
O71 O 0.58248 0.78452 0.21804 0.0
O72 O 0.52384 0.82579 0.1663 0.0
C73 C 0.73126 0.77267 0.26493 0.0
O74 O 0.72844 0.75289 0.22536 0.0
C75 C 0.53506 0.94711 0.08122 0.0
C76 C 0.47871 0.03625 0.08099 0.0
C77 C 0.51218 0.99476 0.05463 0.0
N78 N 0.51755 0.96065 0.12128 0.0
N79 N 0.48295 0.01356 0.12097 0.0
C80 C 0.57808 0.89254 0.06958 0.0
H81 H 0.58989 0.86313 0.09781 0.0
H82 H 0.62301 0.91123 0.05545 0.0
H83 H 0.55419 0.86204 0.04547 0.0
C84 C 0.74252 0.92328 0.18848 0.0
N85 N 0.68212 0.90095 0.19118 0.0
N86 N 0.64484 0.93326 0.16548 0.0
C87 C 0.68068 0.97883 0.14615 0.0
C88 C 0.744 0.97326 0.15956 0.0
C89 C 0.79398 0.90781 0.22004 0.0
H90 H 0.77672 0.9188 0.25252 0.0
H91 H 0.80556 0.85618 0.21816 0.0
H92 H 0.83854 0.93523 0.21424 0.0
O93 O 0.59292 0.91766 0.27027 0.0
O94 O 0.51739 0.95012 0.22576 0.0
H95 H 0.60754 0.04972 0.13674 0.0
H96 H 0.68697 0.07601 0.12235 0.0
C97 C 0.65357 0.03472 0.12238 0.0
H98 H 0.64528 0.02075 0.08891 0.0
H99 H 0.46523 0.03594 0.14815 0.0
O100 O 0.70452 0.82479 0.2745 0.0
C101 C 0.54046 0.94636 0.2634 0.0
Co102 Co 0.89526 0.14043 0.23525 0.0
Co103 Co 0.98358 0.07931 0.16947 0.0
C104 C 0.99842 0.21933 0.1902 0.0
O105 O 0.95431 0.21356 0.21801 0.0
O106 O 1.01305 0.17224 0.16632 0.0
C107 C 0.80551 0.22532 0.26493 0.0
O108 O 0.80827 0.24508 0.22536 0.0
C109 C 1.0019 0.05091 0.08121 0.0
C110 C 0.0583 0.9618 0.08099 0.0
C111 C 0.0248 0.00325 0.05463 0.0
N112 N 0.01941 0.0374 0.12128 0.0
N113 N 0.05403 0.9845 0.12097 0.0
C114 C 0.95885 0.10545 0.06957 0.0
H115 H 0.94703 0.13488 0.0978 0.0
H116 H 0.91393 0.08674 0.05544 0.0
H117 H 0.98274 0.13595 0.04546 0.0
C118 C 0.7944 0.07455 0.18852 0.0
N119 N 0.85476 0.09699 0.19118 0.0
N120 N 0.89208 0.06472 0.16546 0.0
C121 C 0.8563 0.01908 0.14614 0.0
C122 C 0.79303 0.02451 0.15964 0.0
C123 C 0.74294 0.08996 0.22009 0.0
H124 H 0.76026 0.07904 0.25257 0.0
H125 H 0.73128 0.14157 0.21821 0.0
H126 H 0.69843 0.06244 0.21432 0.0
O127 O 0.94402 0.08046 0.27026 0.0
O128 O 0.01949 0.04787 0.22575 0.0
H129 H 0.92952 0.94828 0.1367 0.0
H130 H 0.85012 0.92191 0.12231 0.0
C131 C 0.88348 0.96324 0.12234 0.0
H132 H 0.89176 0.97723 0.08888 0.0
H133 H 0.07175 0.96215 0.14816 0.0
O134 O 0.8323 0.17323 0.27449 0.0
C135 C 0.99643 0.05168 0.26339 0.0
Co136 Co 0.89538 0.85748 0.73521 0.0
Co137 Co 0.98368 0.91879 0.66949 0.0
C138 C 0.99856 0.7787 0.69013 0.0
O139 O 0.95437 0.78436 0.71789 0.0
O140 O 1.01325 0.82589 0.66636 0.0
C141 C 0.80571 0.77255 0.76488 0.0
O142 O 0.80849 0.75278 0.72531 0.0
C143 C 1.0019 0.94716 0.58124 0.0
C144 C 0.05826 0.0363 0.58097 0.0
C145 C 0.02473 0.99482 0.55464 0.0
N146 N 0.01944 0.96071 0.62129 0.0
N147 N 0.05404 0.01362 0.62096 0.0
C148 C 0.95887 0.89258 0.56962 0.0
H149 H 0.94709 0.86317 0.59785 0.0
H150 H 0.91393 0.91126 0.5555 0.0
H151 H 0.98275 0.86208 0.54551 0.0
C152 C 0.79448 0.92327 0.68848 0.0
N153 N 0.85488 0.90095 0.69117 0.0
N154 N 0.89217 0.93329 0.66549 0.0
C155 C 0.85632 0.97887 0.64617 0.0
C156 C 0.793 0.97327 0.65957 0.0
C157 C 0.74301 0.90776 0.72001 0.0
H158 H 0.76026 0.9187 0.7525 0.0
H159 H 0.73145 0.85612 0.71811 0.0
H160 H 0.69845 0.93517 0.71423 0.0
O161 O 0.94423 0.91734 0.77025 0.0
O162 O 0.01957 0.95026 0.72578 0.0
H163 H 0.92946 0.04977 0.63677 0.0
H164 H 0.85003 0.07607 0.62241 0.0
C165 C 0.88343 0.03478 0.62242 0.0
H166 H 0.8917 0.02083 0.58894 0.0
H167 H 0.07179 0.03599 0.64814 0.0
O168 O 0.83244 0.82468 0.77444 0.0
C169 C 0.99657 0.94625 0.76343 0.0
Co170 Co 0.64175 0.14056 0.73519 0.0
Co171 Co 0.55339 0.07924 0.66949 0.0
C172 C 0.5386 0.21935 0.69012 0.0
O173 O 0.58282 0.21371 0.71786 0.0
O174 O 0.52385 0.17214 0.66638 0.0
C175 C 0.73151 0.22544 0.76488 0.0
O176 O 0.72877 0.2452 0.72531 0.0
C177 C 0.53512 0.05086 0.58123 0.0
C178 C 0.47872 0.96174 0.58098 0.0
C179 C 0.51226 0.00319 0.55464 0.0
N180 N 0.51758 0.03734 0.62129 0.0
N181 N 0.48295 0.98444 0.62097 0.0
C182 C 0.57817 0.10541 0.56961 0.0
H183 H 0.58997 0.13483 0.59784 0.0
H184 H 0.6231 0.0867 0.55549 0.0
H185 H 0.5543 0.13591 0.54549 0.0
C186 C 0.74258 0.07456 0.68851 0.0
N187 N 0.68221 0.09699 0.69117 0.0
N188 N 0.64489 0.06469 0.66547 0.0
C189 C 0.68068 0.01904 0.64616 0.0
C190 C 0.74395 0.0245 0.65965 0.0
C191 C 0.79405 0.09002 0.72007 0.0
H192 H 0.77675 0.07913 0.75255 0.0
H193 H 0.8057 0.14163 0.71816 0.0
H194 H 0.83856 0.06251 0.71431 0.0
O195 O 0.59282 0.08079 0.77025 0.0
O196 O 0.51754 0.04773 0.72576 0.0
H197 H 0.60746 0.94823 0.63674 0.0
H198 H 0.68686 0.92185 0.62236 0.0
C199 C 0.65351 0.96318 0.62238 0.0
H200 H 0.64524 0.97715 0.58892 0.0
H201 H 0.4652 0.96209 0.64814 0.0
O202 O 0.70472 0.17334 0.77443 0.0
C203 C 0.54052 0.05179 0.76342 0.0
Co204 Co 0.3954 0.14038 0.82803 0.0
Co205 Co 0.48367 0.07928 0.89382 0.0
C206 C 0.49858 0.21927 0.87308 0.0
O207 O 0.45452 0.21347 0.84525 0.0
O208 O 0.51315 0.1722 0.897 0.0
C209 C 0.30574 0.22533 0.79836 0.0
O210 O 0.30855 0.2451 0.83794 0.0
C211 C 0.50189 0.05087 0.98207 0.0
C212 C 0.55827 0.96174 0.98231 0.0
C213 C 0.52474 0.00319 1.00866 0.0
N214 N 0.51944 0.03735 0.94202 0.0
N215 N 0.55405 0.98444 0.94233 0.0
C216 C 0.45886 0.10543 0.99371 0.0
H217 H 0.44705 0.13484 0.96548 0.0
H218 H 0.41393 0.08673 1.00783 0.0
H219 H 0.48274 0.13593 1.01782 0.0
C220 C 0.29447 0.07471 0.87481 0.0
N221 N 0.35487 0.09704 0.87211 0.0
N222 N 0.39216 0.06473 0.89781 0.0
C223 C 0.35631 0.01916 0.91714 0.0
C224 C 0.29299 0.02473 0.90373 0.0
C225 C 0.24301 0.09018 0.84325 0.0
H226 H 0.26028 0.0792 0.81077 0.0
H227 H 0.23144 0.14182 0.84513 0.0
H228 H 0.19845 0.06276 0.84905 0.0
O229 O 0.44407 0.08033 0.79303 0.0
O230 O 0.51961 0.04787 0.83753 0.0
H231 H 0.42946 0.94828 0.92656 0.0
H232 H 0.35003 0.92196 0.9409 0.0
C233 C 0.38342 0.96326 0.9409 0.0
H234 H 0.39168 0.97721 0.97438 0.0
H235 H 0.5718 0.96209 0.91515 0.0
O236 O 0.33248 0.17321 0.78879 0.0
C237 C 0.49653 0.05163 0.79989 0.0
Co238 Co 0.14173 0.85757 0.82804 0.0
Co239 Co 0.0534 0.91868 0.89383 0.0
C240 C 0.03857 0.77866 0.87309 0.0
O241 O 0.08268 0.78444 0.84528 0.0
O242 O 0.02395 0.82575 0.89697 0.0
C243 C 0.23148 0.77267 0.79836 0.0
O244 O 0.22871 0.75291 0.83794 0.0
C245 C 0.03513 0.9471 0.98208 0.0
C246 C 0.97871 0.03621 0.98231 0.0
C247 C 1.01226 0.99478 1.00866 0.0
N248 N 1.01759 0.9606 0.94202 0.0
N249 N 0.98295 0.01348 0.94232 0.0
C250 C 0.07819 0.89257 0.99372 0.0
H251 H 0.09 0.86314 0.9655 0.0
H252 H 0.12311 0.91129 1.00784 0.0
H253 H 0.05431 0.86207 1.01783 0.0
C254 C 0.24259 0.92344 0.87477 0.0
N255 N 0.18222 0.901 0.87211 0.0
N256 N 0.1449 0.93327 0.89783 0.0
C257 C 0.18069 0.97892 0.91715 0.0
C258 C 0.24396 0.97348 0.90365 0.0
C259 C 0.29405 0.90803 0.8432 0.0
H260 H 0.27673 0.91895 0.81072 0.0
H261 H 0.30571 0.85642 0.84508 0.0
H262 H 0.33856 0.93555 0.84897 0.0
O263 O 0.09297 0.91754 0.79303 0.0
O264 O 1.01749 0.95012 0.83754 0.0
H265 H 0.10746 0.04971 0.92659 0.0
H266 H 0.18686 0.07611 0.94095 0.0
C267 C 0.15351 0.03477 0.94094 0.0
H268 H 0.14527 0.02079 0.9744 0.0
H269 H 0.96519 0.03582 0.91514 0.0
O270 O 0.20469 0.82477 0.7888 0.0
C271 C 0.04056 0.94631 0.7999 0.0
Co272 Co 0.64165 0.64055 0.32809 0.0
Co273 Co 0.55332 0.57924 0.3938 0.0
C274 C 0.53849 0.71933 0.37317 0.0
O275 O 0.5827 0.71368 0.34541 0.0
O276 O 0.52378 0.67214 0.39693 0.0
C277 C 0.73139 0.72543 0.29842 0.0
O278 O 0.72866 0.74528 0.33797 0.0
C279 C 0.53506 0.55087 0.48206 0.0
C280 C 0.4787 0.46173 0.48231 0.0
C281 C 0.51218 0.50323 0.50866 0.0
N282 N 0.51755 0.53732 0.442 0.0
N283 N 0.48295 0.4844 0.44232 0.0
C284 C 0.57808 0.60545 0.49369 0.0
H285 H 0.58987 0.63486 0.46546 0.0
H286 H 0.62302 0.58677 0.50781 0.0
H287 H 0.55419 0.63594 0.51781 0.0
C288 C 0.74253 0.57472 0.37483 0.0
N289 N 0.68213 0.59705 0.37213 0.0
N290 N 0.64483 0.56472 0.39781 0.0
C291 C 0.68067 0.51914 0.41714 0.0
C292 C 0.74399 0.52473 0.40375 0.0
C293 C 0.79401 0.59023 0.3433 0.0
H294 H 0.77677 0.57928 0.31081 0.0
H295 H 0.80559 0.64186 0.34521 0.0
H296 H 0.83857 0.5628 0.34909 0.0
O297 O 0.59277 0.58072 0.29304 0.0
O298 O 0.51744 0.54777 0.33752 0.0
H299 H 0.60753 0.44825 0.42653 0.0
H300 H 0.68696 0.42195 0.44092 0.0
C301 C 0.65355 0.46324 0.4409 0.0
H302 H 0.64525 0.47721 0.47436 0.0
H303 H 0.46523 0.46202 0.41515 0.0
O304 O 0.70463 0.67331 0.28886 0.0
C305 C 0.54042 0.5518 0.29986 0.0
Co306 Co 0.8952 0.35741 0.3281 0.0
Co307 Co 0.98359 0.41872 0.39381 0.0
C308 C 0.99833 0.2786 0.37317 0.0
O309 O 0.9541 0.28424 0.34544 0.0
O310 O 1.01311 0.32581 0.39691 0.0
C311 C 0.80538 0.27257 0.29842 0.0
O312 O 0.80806 0.25274 0.33797 0.0
C313 C 1.0019 0.4471 0.48207 0.0
C314 C 0.0583 0.53621 0.48231 0.0
C315 C 0.02481 0.49475 0.50866 0.0
N316 N 0.01941 0.46062 0.44201 0.0
N317 N 0.05404 0.51352 0.44232 0.0
C318 C 0.95886 0.39255 0.49371 0.0
H319 H 0.94706 0.36312 0.46548 0.0
H320 H 0.91393 0.41126 0.50782 0.0
H321 H 0.98273 0.36206 0.51782 0.0
C322 C 0.79439 0.42343 0.37479 0.0
N323 N 0.85475 0.401 0.37213 0.0
N324 N 0.89209 0.43329 0.39783 0.0
C325 C 0.85631 0.47893 0.41715 0.0
C326 C 0.79304 0.47349 0.40366 0.0
C327 C 0.74291 0.40799 0.34325 0.0
H328 H 0.76021 0.41888 0.31076 0.0
H329 H 0.73125 0.35637 0.34516 0.0
H330 H 0.69841 0.43551 0.34901 0.0
O331 O 0.94417 0.41715 0.29304 0.0
O332 O 0.01944 0.45022 0.33753 0.0
H333 H 0.92953 0.54974 0.42657 0.0
H334 H 0.85013 0.57611 0.44097 0.0
C335 C 0.88349 0.53478 0.44093 0.0
H336 H 0.89178 0.5208 0.47439 0.0
H337 H 0.07176 0.53588 0.41514 0.0
O338 O 0.83219 0.32467 0.28887 0.0
C339 C 0.99647 0.44615 0.29988 0.0
Co340 Co 0.14163 0.35758 0.23526 0.0
Co341 Co 0.05334 0.41868 0.16947 0.0
C342 C 0.03847 0.27868 0.19021 0.0
O343 O 0.08255 0.28447 0.21803 0.0
O344 O 0.02388 0.32575 0.16631 0.0
C345 C 0.23136 0.27268 0.26493 0.0
O346 O 0.2286 0.25283 0.22537 0.0
C347 C 0.03506 0.44709 0.08121 0.0
C348 C 0.9787 0.53622 0.08099 0.0
C349 C 1.01218 0.49475 0.05463 0.0
N350 N 1.01755 0.46061 0.12128 0.0
N351 N 0.98295 0.51352 0.12097 0.0
C352 C 0.07809 0.39253 0.06957 0.0
H353 H 0.0899 0.36311 0.09779 0.0
H354 H 0.12302 0.41123 0.05544 0.0
H355 H 0.05421 0.36204 0.04545 0.0
C356 C 0.24253 0.42328 0.18847 0.0
N357 N 0.18214 0.40094 0.19117 0.0
N358 N 0.14485 0.43324 0.16547 0.0
C359 C 0.18068 0.47882 0.14614 0.0
C360 C 0.244 0.47326 0.15954 0.0
C361 C 0.29401 0.40782 0.22002 0.0
H362 H 0.27675 0.4188 0.2525 0.0
H363 H 0.3056 0.35619 0.21814 0.0
H364 H 0.33856 0.43525 0.21422 0.0
O365 O 0.09292 0.4176 0.27027 0.0
O366 O 1.01739 0.45008 0.22576 0.0
H367 H 0.10753 0.54969 0.13673 0.0
H368 H 0.18695 0.576 0.12235 0.0
C369 C 0.15356 0.5347 0.12237 0.0
H370 H 0.14527 0.52073 0.0889 0.0
H371 H 0.96522 0.53589 0.14816 0.0
O372 O 0.20459 0.32479 0.27449 0.0
C373 C 0.04047 0.4463 0.2634 0.0
Co374 Co 0.39522 0.64045 0.23525 0.0
Co375 Co 0.48357 0.57935 0.16946 0.0
C376 C 0.49836 0.71938 0.1902 0.0
O377 O 0.45424 0.7136 0.21801 0.0
O378 O 0.51301 0.67228 0.16633 0.0
C379 C 0.30541 0.7253 0.26493 0.0
O380 O 0.30812 0.74514 0.22537 0.0
C381 C 0.5019 0.55093 0.08121 0.0
C382 C 0.55831 0.46182 0.081 0.0
C383 C 0.52481 0.50326 0.05463 0.0
N384 N 0.51941 0.53743 0.12127 0.0
N385 N 0.55404 0.48454 0.12098 0.0
C386 C 0.45884 0.60546 0.06956 0.0
H387 H 0.44702 0.63489 0.09778 0.0
H388 H 0.41393 0.58673 0.05543 0.0
H389 H 0.48272 0.63595 0.04544 0.0
C390 C 0.29438 0.57455 0.18851 0.0
N391 N 0.35474 0.597 0.19117 0.0
N392 N 0.39207 0.56474 0.16546 0.0
C393 C 0.3563 0.5191 0.14613 0.0
C394 C 0.29303 0.52452 0.15962 0.0
C395 C 0.24292 0.58995 0.22007 0.0
H396 H 0.26023 0.57903 0.25255 0.0
H397 H 0.23124 0.64156 0.21819 0.0
H398 H 0.19841 0.56243 0.2143 0.0
O399 O 0.44401 0.58051 0.27026 0.0
O400 O 0.51949 0.54792 0.22575 0.0
H401 H 0.42953 0.44831 0.13669 0.0
H402 H 0.35014 0.42192 0.1223 0.0
C403 C 0.38349 0.46326 0.12234 0.0
H404 H 0.39176 0.47725 0.08887 0.0
H405 H 0.57176 0.4622 0.14816 0.0
O406 O 0.33223 0.67322 0.27448 0.0
C407 C 0.49642 0.55174 0.26339 0.0
Co408 Co 0.39534 0.35745 0.7352 0.0
Co409 Co 0.48367 0.41876 0.66949 0.0
C410 C 0.4985 0.27866 0.69013 0.0
O411 O 0.4543 0.28432 0.71788 0.0
O412 O 0.51321 0.32585 0.66636 0.0
C413 C 0.30561 0.27256 0.76488 0.0
O414 O 0.30834 0.25272 0.72532 0.0
C415 C 0.50189 0.44714 0.58123 0.0
C416 C 0.55827 0.53627 0.58098 0.0
C417 C 0.52474 0.49481 0.55464 0.0
N418 N 0.51944 0.46067 0.62129 0.0
N419 N 0.55405 0.51358 0.62097 0.0
C420 C 0.45886 0.39257 0.5696 0.0
H421 H 0.44708 0.36316 0.59783 0.0
H422 H 0.41392 0.41126 0.55549 0.0
H423 H 0.48274 0.36208 0.54549 0.0
C424 C 0.29446 0.42327 0.68847 0.0
N425 N 0.35486 0.40095 0.69117 0.0
N426 N 0.39216 0.43328 0.66549 0.0
C427 C 0.35632 0.47886 0.64616 0.0
C428 C 0.293 0.47327 0.65955 0.0
C429 C 0.24298 0.40776 0.71999 0.0
H430 H 0.26022 0.41871 0.75249 0.0
H431 H 0.23141 0.35613 0.71809 0.0
H432 H 0.19842 0.43519 0.71421 0.0
O433 O 0.44422 0.41728 0.77025 0.0
O434 O 0.51956 0.45022 0.72577 0.0
H435 H 0.42947 0.54974 0.63677 0.0
H436 H 0.35004 0.57606 0.62241 0.0
C437 C 0.38344 0.53476 0.62241 0.0
H438 H 0.39171 0.52082 0.58894 0.0
H439 H 0.5718 0.53595 0.64814 0.0
O440 O 0.33237 0.32468 0.77443 0.0
C441 C 0.49657 0.44619 0.76343 0.0
Co442 Co 0.14179 0.64058 0.73519 0.0
Co443 Co 0.0534 0.57927 0.66948 0.0
C444 C 0.03866 0.7194 0.69012 0.0
O445 O 0.08289 0.71375 0.71786 0.0
O446 O 0.02389 0.67219 0.66638 0.0
C447 C 0.23161 0.72542 0.76488 0.0
O448 O 0.22892 0.74525 0.72532 0.0
C449 C 0.03513 0.55088 0.58122 0.0
C450 C 0.97871 0.46177 0.58098 0.0
C451 C 1.01226 0.5032 0.55464 0.0
N452 N 1.01758 0.53737 0.62128 0.0
N453 N 0.98294 0.48448 0.62097 0.0
C454 C 0.07818 0.60542 0.56959 0.0
H455 H 0.08998 0.63485 0.59782 0.0
H456 H 0.12311 0.5867 0.55548 0.0
H457 H 0.05432 0.63591 0.54547 0.0
C458 C 0.2426 0.57456 0.6885 0.0
N459 N 0.18223 0.59699 0.69117 0.0
N460 N 0.1449 0.5647 0.66547 0.0
C461 C 0.18068 0.51906 0.64615 0.0
C462 C 0.24395 0.52451 0.65963 0.0
C463 C 0.29408 0.59001 0.72005 0.0
H464 H 0.27678 0.57912 0.75254 0.0
H465 H 0.30574 0.64162 0.71814 0.0
H466 H 0.33858 0.56249 0.71429 0.0
O467 O 0.09282 0.58084 0.77025 0.0
O468 O 1.01754 0.54778 0.72576 0.0
H469 H 0.10745 0.44826 0.63673 0.0
H470 H 0.18685 0.42186 0.62236 0.0
C471 C 0.1535 0.4632 0.62238 0.0
H472 H 0.14524 0.47716 0.58891 0.0
H473 H 0.96519 0.46214 0.64815 0.0
O474 O 0.20479 0.67333 0.77442 0.0
C475 C 0.04052 0.55185 0.76342 0.0
Co476 Co 0.89536 0.64041 0.82803 0.0
Co477 Co 0.98365 0.57931 0.89383 0.0
C478 C 0.99852 0.71931 0.87309 0.0
O479 O 0.95445 0.71352 0.84526 0.0
O480 O 1.01311 0.67224 0.89699 0.0
C481 C 0.80564 0.72531 0.79837 0.0
O482 O 0.80839 0.74516 0.83792 0.0
C483 C 1.00189 0.55088 0.98208 0.0
C484 C 0.05827 0.46176 0.9823 0.0
C485 C 0.02474 0.5032 1.00866 0.0
N486 N 0.01944 0.53738 0.94202 0.0
N487 N 0.05406 0.48448 0.94232 0.0
C488 C 0.95885 0.60544 0.99372 0.0
H489 H 0.94704 0.63486 0.9655 0.0
H490 H 0.91392 0.58673 1.00784 0.0
H491 H 0.98273 0.63593 1.01784 0.0
C492 C 0.79446 0.57471 0.87482 0.0
N493 N 0.85485 0.59705 0.87212 0.0
N494 N 0.89214 0.56475 0.89782 0.0
C495 C 0.85631 0.51917 0.91715 0.0
C496 C 0.79299 0.52474 0.90375 0.0
C497 C 0.74298 0.59017 0.84327 0.0
H498 H 0.76024 0.5792 0.81079 0.0
H499 H 0.7314 0.64181 0.84516 0.0
H500 H 0.69843 0.56275 0.84907 0.0
O501 O 0.94407 0.58039 0.79303 0.0
O502 O 0.0196 0.54792 0.83753 0.0
H503 H 0.92948 0.44831 0.92656 0.0
H504 H 0.85005 0.42197 0.94091 0.0
C505 C 0.88343 0.46328 0.94091 0.0
H506 H 0.89168 0.47723 0.97439 0.0
H507 H 0.07181 0.46214 0.91514 0.0
O508 O 0.8324 0.6732 0.7888 0.0
C509 C 0.99652 0.55169 0.79989 0.0
Co510 Co 0.64177 0.35754 0.82804 0.0
Co511 Co 0.55342 0.41865 0.89383 0.0
C512 C 0.53864 0.27862 0.87309 0.0
O513 O 0.58274 0.2844 0.84528 0.0
O514 O 0.52399 0.32571 0.89697 0.0
C515 C 0.73158 0.27269 0.79837 0.0
O516 O 0.72887 0.25286 0.83792 0.0
C517 C 0.53513 0.44709 0.98209 0.0
C518 C 0.4787 0.53618 0.9823 0.0
C519 C 0.51226 0.49477 1.00866 0.0
N520 N 0.51759 0.46056 0.94202 0.0
N521 N 0.48294 0.51344 0.94232 0.0
C522 C 0.5782 0.39256 0.99374 0.0
H523 H 0.59002 0.36313 0.96551 0.0
H524 H 0.62312 0.41129 1.00786 0.0
H525 H 0.55433 0.36207 1.01785 0.0
C526 C 0.74261 0.42344 0.87478 0.0
N527 N 0.68224 0.401 0.87212 0.0
N528 N 0.64492 0.43326 0.89784 0.0
C529 C 0.68069 0.4789 0.91716 0.0
C530 C 0.74396 0.47348 0.90367 0.0
C531 C 0.79407 0.40804 0.84322 0.0
H532 H 0.77676 0.41896 0.81074 0.0
H533 H 0.80575 0.35643 0.8451 0.0
H534 H 0.83858 0.43556 0.84899 0.0
O535 O 0.59298 0.41749 0.79303 0.0
O536 O 0.5175 0.45007 0.83755 0.0
H537 H 0.60745 0.54968 0.9266 0.0
H538 H 0.68684 0.5761 0.94096 0.0
C539 C 0.65351 0.53475 0.94094 0.0
H540 H 0.64527 0.52078 0.97441 0.0
H541 H 0.46518 0.53576 0.91514 0.0
O542 O 0.70476 0.32477 0.78881 0.0
C543 C 0.54056 0.44626 0.7999 0.0
loop_
_geom_bond_atom_site_label_1
_geom_bond_atom_site_label_2
_geom_bond_distance
_geom_bond_site_symmetry_2
_ccdc_geom_bond_type
Co0 O3 1.970 . S
Co0 N17 1.989 . S
Co0 O25 1.967 . S
Co0 O32 1.920 . S
Co1 O4 1.966 . S
Co1 N10 2.022 . S
Co1 N18 1.993 . S
Co1 O26 1.941 1_455 S
C2 O3 1.258 . S
C2 O4 1.263 . S
O3 Co0 1.970 . S
O3 C2 1.258 . S
O4 Co1 1.966 . S
O4 C2 1.263 . S
C5 O6 1.235 . S
C5 O32 1.289 . S
O6 C5 1.235 . S
C7 C9 1.400 1_545 S
C7 N10 1.351 . S
C7 C12 1.501 . S
C8 C9 1.387 . S
C8 N11 1.341 . S
C9 C7 1.400 1_565 S
C9 C8 1.387 . S
N10 Co1 2.022 . S
N10 C7 1.351 . S
N10 N11 1.365 1_545 S
N11 C8 1.341 . S
N11 N10 1.365 1_565 S
N11 H31 0.862 . S
C12 C7 1.501 . S
C12 H13 0.961 . S
C12 H14 0.961 . S
C12 H15 0.960 1_455 S
H13 C12 0.961 . S
H14 C12 0.961 . S
H15 C12 0.960 1_655 S
C16 N17 1.342 . S
C16 C20 1.401 . S
C16 C21 1.499 . S
N17 Co0 1.989 . S
N17 C16 1.342 . S
N17 N18 1.388 . S
N18 Co1 1.993 . S
N18 N17 1.388 . S
N18 C19 1.346 . S
C19 N18 1.346 . S
C19 C20 1.396 . S
C19 C29 1.510 1_545 S
C20 C16 1.401 . S
C20 C19 1.396 . S
C21 C16 1.499 . S
C21 H22 0.959 . S
C21 H23 0.960 . S
C21 H24 0.961 . S
H22 C21 0.959 . S
H23 C21 0.960 . S
H24 C21 0.961 . S
O25 Co0 1.967 . S
O25 C33 1.258 . S
O26 Co1 1.941 1_655 S
O26 C33 1.266 1_655 S
H27 C29 0.959 . S
H28 C29 0.961 . S
C29 C19 1.510 1_565 S
C29 H27 0.959 . S
C29 H28 0.961 . S
C29 H30 0.960 . S
H30 C29 0.960 . S
H31 N11 0.862 . S
O32 Co0 1.920 . S
O32 C5 1.289 . S
C33 O25 1.258 . S
C33 O26 1.266 1_455 S
Co34 O37 1.970 . S
Co34 N51 1.989 . S
Co34 O59 1.967 . S
Co34 O66 1.920 . S
Co35 O38 1.966 . S
Co35 N44 2.022 . S
Co35 N52 1.993 . S
Co35 O60 1.941 . S
C36 O37 1.258 . S
C36 O38 1.263 . S
O37 Co34 1.970 . S
O37 C36 1.258 . S
O38 Co35 1.966 . S
O38 C36 1.263 . S
C39 O40 1.235 . S
C39 O66 1.289 . S
O40 C39 1.235 . S
C41 C43 1.400 1_565 S
C41 N44 1.351 . S
C41 C46 1.501 . S
C42 C43 1.387 . S
C42 N45 1.341 . S
C43 C41 1.400 1_545 S
C43 C42 1.387 . S
N44 Co35 2.022 . S
N44 C41 1.351 . S
N44 N45 1.365 1_565 S
N45 C42 1.341 . S
N45 N44 1.365 1_545 S
N45 H65 0.862 . S
C46 C41 1.501 . S
C46 H47 0.961 . S
C46 H48 0.961 . S
C46 H49 0.960 . S
H47 C46 0.961 . S
H48 C46 0.961 . S
H49 C46 0.960 . S
C50 N51 1.342 . S
C50 C54 1.401 . S
C50 C55 1.499 . S
N51 Co34 1.989 . S
N51 C50 1.342 . S
N51 N52 1.388 . S
N52 Co35 1.993 . S
N52 N51 1.388 . S
N52 C53 1.346 . S
C53 N52 1.346 . S
C53 C54 1.396 . S
C53 C63 1.510 1_565 S
C54 C50 1.401 . S
C54 C53 1.396 . S
C55 C50 1.499 . S
C55 H56 0.959 . S
C55 H57 0.960 . S
C55 H58 0.961 . S
H56 C55 0.959 . S
H57 C55 0.960 . S
H58 C55 0.961 . S
O59 Co34 1.967 . S
O59 C67 1.258 . S
O60 Co35 1.941 . S
O60 C67 1.266 . S
H61 C63 0.959 . S
H62 C63 0.961 . S
C63 C53 1.510 1_545 S
C63 H61 0.959 . S
C63 H62 0.961 . S
C63 H64 0.960 . S
H64 C63 0.960 . S
H65 N45 0.862 . S
O66 Co34 1.920 . S
O66 C39 1.289 . S
C67 O59 1.258 . S
C67 O60 1.266 . S
Co68 O71 1.970 . S
Co68 N85 1.989 . S
Co68 O93 1.967 . S
Co68 O100 1.920 . S
Co69 O72 1.966 . S
Co69 N78 2.022 . S
Co69 N86 1.993 . S
Co69 O94 1.941 . S
C70 O71 1.258 . S
C70 O72 1.263 . S
O71 Co68 1.970 . S
O71 C70 1.258 . S
O72 Co69 1.966 . S
O72 C70 1.263 . S
C73 O74 1.235 . S
C73 O100 1.289 . S
O74 C73 1.235 . S
C75 C77 1.400 1_565 S
C75 N78 1.351 . S
C75 C80 1.501 . S
C76 C77 1.387 . S
C76 N79 1.341 . S
C77 C75 1.400 1_545 S
C77 C76 1.387 . S
N78 Co69 2.022 . S
N78 C75 1.351 . S
N78 N79 1.365 1_565 S
N79 C76 1.341 . S
N79 N78 1.365 1_545 S
N79 H99 0.862 . S
C80 C75 1.501 . S
C80 H81 0.961 . S
C80 H82 0.961 . S
C80 H83 0.960 . S
H81 C80 0.961 . S
H82 C80 0.961 . S
H83 C80 0.960 . S
C84 N85 1.342 . S
C84 C88 1.401 . S
C84 C89 1.499 . S
N85 Co68 1.989 . S
N85 C84 1.342 . S
N85 N86 1.388 . S
N86 Co69 1.993 . S
N86 N85 1.388 . S
N86 C87 1.346 . S
C87 N86 1.346 . S
C87 C88 1.396 . S
C87 C97 1.510 1_565 S
C88 C84 1.401 . S
C88 C87 1.396 . S
C89 C84 1.499 . S
C89 H90 0.959 . S
C89 H91 0.960 . S
C89 H92 0.961 . S
H90 C89 0.959 . S
H91 C89 0.960 . S
H92 C89 0.961 . S
O93 Co68 1.967 . S
O93 C101 1.258 . S
O94 Co69 1.941 . S
O94 C101 1.266 . S
H95 C97 0.959 . S
H96 C97 0.961 . S
C97 C87 1.510 1_545 S
C97 H95 0.959 . S
C97 H96 0.961 . S
C97 H98 0.960 . S
H98 C97 0.960 . S
H99 N79 0.862 . S
O100 Co68 1.920 . S
O100 C73 1.289 . S
C101 O93 1.258 . S
C101 O94 1.266 . S
Co102 O105 1.970 . S
Co102 N119 1.989 . S
Co102 O127 1.967 . S
Co102 O134 1.920 . S
Co103 O106 1.966 . S
Co103 N112 2.022 . S
Co103 N120 1.993 . S
Co103 O128 1.941 1_655 S
C104 O105 1.258 . S
C104 O106 1.263 . S
O105 Co102 1.970 . S
O105 C104 1.258 . S
O106 Co103 1.966 . S
O106 C104 1.263 . S
C107 O108 1.235 . S
C107 O134 1.289 . S
O108 C107 1.235 . S
C109 C111 1.400 1_545 S
C109 N112 1.351 . S
C109 C114 1.501 . S
C110 C111 1.387 . S
C110 N113 1.341 . S
C111 C109 1.400 1_565 S
C111 C110 1.387 . S
N112 Co103 2.022 . S
N112 C109 1.351 . S
N112 N113 1.365 1_545 S
N113 C110 1.341 . S
N113 N112 1.365 1_565 S
N113 H133 0.862 . S
C114 C109 1.501 . S
C114 H115 0.961 . S
C114 H116 0.961 . S
C114 H117 0.960 1_655 S
H115 C114 0.961 . S
H116 C114 0.961 . S
H117 C114 0.960 1_455 S
C118 N119 1.342 . S
C118 C122 1.401 . S
C118 C123 1.499 . S
N119 Co102 1.989 . S
N119 C118 1.342 . S
N119 N120 1.388 . S
N120 Co103 1.993 . S
N120 N119 1.388 . S
N120 C121 1.346 . S
C121 N120 1.346 . S
C121 C122 1.396 . S
C121 C131 1.510 1_545 S
C122 C118 1.401 . S
C122 C121 1.396 . S
C123 C118 1.499 . S
C123 H124 0.959 . S
C123 H125 0.960 . S
C123 H126 0.961 . S
H124 C123 0.959 . S
H125 C123 0.960 . S
H126 C123 0.961 . S
O127 Co102 1.967 . S
O127 C135 1.258 . S
O128 Co103 1.941 1_455 S
O128 C135 1.266 1_455 S
H129 C131 0.959 . S
H130 C131 0.961 . S
C131 C121 1.510 1_565 S
C131 H129 0.959 . S
C131 H130 0.961 . S
C131 H132 0.960 . S
H132 C131 0.960 . S
H133 N113 0.862 . S
O134 Co102 1.920 . S
O134 C107 1.289 . S
C135 O127 1.258 . S
C135 O128 1.266 1_655 S
Co136 O139 1.970 . S
Co136 N153 1.989 . S
Co136 O161 1.967 . S
Co136 O168 1.920 . S
Co137 O140 1.966 . S
Co137 N146 2.022 . S
Co137 N154 1.993 . S
Co137 O162 1.941 1_655 S
C138 O139 1.258 . S
C138 O140 1.263 . S
O139 Co136 1.970 . S
O139 C138 1.258 . S
O140 Co137 1.966 . S
O140 C138 1.263 . S
C141 O142 1.235 . S
C141 O168 1.289 . S
O142 C141 1.235 . S
C143 C145 1.400 1_565 S
C143 N146 1.351 . S
C143 C148 1.501 . S
C144 C145 1.387 . S
C144 N147 1.341 . S
C145 C143 1.400 1_545 S
C145 C144 1.387 . S
N146 Co137 2.022 . S
N146 C143 1.351 . S
N146 N147 1.365 1_565 S
N147 C144 1.341 . S
N147 N146 1.365 1_545 S
N147 H167 0.862 . S
C148 C143 1.501 . S
C148 H149 0.961 . S
C148 H150 0.961 . S
C148 H151 0.960 1_655 S
H149 C148 0.961 . S
H150 C148 0.961 . S
H151 C148 0.960 1_455 S
C152 N153 1.342 . S
C152 C156 1.401 . S
C152 C157 1.499 . S
N153 Co136 1.989 . S
N153 C152 1.342 . S
N153 N154 1.388 . S
N154 Co137 1.993 . S
N154 N153 1.388 . S
N154 C155 1.346 . S
C155 N154 1.346 . S
C155 C156 1.396 . S
C155 C165 1.510 1_565 S
C156 C152 1.401 . S
C156 C155 1.396 . S
C157 C152 1.499 . S
C157 H158 0.959 . S
C157 H159 0.960 . S
C157 H160 0.961 . S
H158 C157 0.959 . S
H159 C157 0.960 . S
H160 C157 0.961 . S
O161 Co136 1.967 . S
O161 C169 1.258 . S
O162 Co137 1.941 1_455 S
O162 C169 1.266 1_455 S
H163 C165 0.959 . S
H164 C165 0.961 . S
C165 C155 1.510 1_545 S
C165 H163 0.959 . S
C165 H164 0.961 . S
C165 H166 0.960 . S
H166 C165 0.960 . S
H167 N147 0.862 . S
O168 Co136 1.920 . S
O168 C141 1.289 . S
C169 O161 1.258 . S
C169 O162 1.266 1_655 S
Co170 O173 1.970 . S
Co170 N187 1.989 . S
Co170 O195 1.967 . S
Co170 O202 1.920 . S
Co171 O174 1.966 . S
Co171 N180 2.022 . S
Co171 N188 1.993 . S
Co171 O196 1.941 . S
C172 O173 1.258 . S
C172 O174 1.263 . S
O173 Co170 1.970 . S
O173 C172 1.258 . S
O174 Co171 1.966 . S
O174 C172 1.263 . S
C175 O176 1.235 . S
C175 O202 1.289 . S
O176 C175 1.235 . S
C177 C179 1.400 1_545 S
C177 N180 1.351 . S
C177 C182 1.501 . S
C178 C179 1.387 . S
C178 N181 1.341 . S
C179 C177 1.400 1_565 S
C179 C178 1.387 . S
N180 Co171 2.022 . S
N180 C177 1.351 . S
N180 N181 1.365 1_545 S
N181 C178 1.341 . S
N181 N180 1.365 1_565 S
N181 H201 0.862 . S
C182 C177 1.501 . S
C182 H183 0.961 . S
C182 H184 0.961 . S
C182 H185 0.960 . S
H183 C182 0.961 . S
H184 C182 0.961 . S
H185 C182 0.960 . S
C186 N187 1.342 . S
C186 C190 1.401 . S
C186 C191 1.499 . S
N187 Co170 1.989 . S
N187 C186 1.342 . S
N187 N188 1.388 . S
N188 Co171 1.993 . S
N188 N187 1.388 . S
N188 C189 1.346 . S
C189 N188 1.346 . S
C189 C190 1.396 . S
C189 C199 1.510 1_545 S
C190 C186 1.401 . S
C190 C189 1.396 . S
C191 C186 1.499 . S
C191 H192 0.959 . S
C191 H193 0.960 . S
C191 H194 0.961 . S
H192 C191 0.959 . S
H193 C191 0.960 . S
H194 C191 0.961 . S
O195 Co170 1.967 . S
O195 C203 1.258 . S
O196 Co171 1.941 . S
O196 C203 1.266 . S
H197 C199 0.959 . S
H198 C199 0.961 . S
C199 C189 1.510 1_565 S
C199 H197 0.959 . S
C199 H198 0.961 . S
C199 H200 0.960 . S
H200 C199 0.960 . S
H201 N181 0.862 . S
O202 Co170 1.920 . S
O202 C175 1.289 . S
C203 O195 1.258 . S
C203 O196 1.266 . S
Co204 O207 1.970 . S
Co204 N221 1.989 . S
Co204 O229 1.967 . S
Co204 O236 1.920 . S
Co205 O208 1.966 . S
Co205 N214 2.022 . S
Co205 N222 1.993 . S
Co205 O230 1.941 . S
C206 O207 1.258 . S
C206 O208 1.263 . S
O207 Co204 1.970 . S
O207 C206 1.258 . S
O208 Co205 1.966 . S
O208 C206 1.263 . S
C209 O210 1.235 . S
C209 O236 1.289 . S
O210 C209 1.235 . S
C211 C213 1.400 1_545 S
C211 N214 1.351 . S
C211 C216 1.501 . S
C212 C213 1.387 . S
C212 N215 1.341 . S
C213 C211 1.400 1_565 S
C213 C212 1.387 . S
N214 Co205 2.022 . S
N214 C211 1.351 . S
N214 N215 1.365 1_545 S
N215 C212 1.341 . S
N215 N214 1.365 1_565 S
N215 H235 0.862 . S
C216 C211 1.501 . S
C216 H217 0.961 . S
C216 H218 0.961 . S
C216 H219 0.960 . S
H217 C216 0.961 . S
H218 C216 0.961 . S
H219 C216 0.960 . S
C220 N221 1.342 . S
C220 C224 1.401 . S
C220 C225 1.499 . S
N221 Co204 1.989 . S
N221 C220 1.342 . S
N221 N222 1.388 . S
N222 Co205 1.993 . S
N222 N221 1.388 . S
N222 C223 1.346 . S
C223 N222 1.346 . S
C223 C224 1.396 . S
C223 C233 1.510 1_545 S
C224 C220 1.401 . S
C224 C223 1.396 . S
C225 C220 1.499 . S
C225 H226 0.959 . S
C225 H227 0.960 . S
C225 H228 0.961 . S
H226 C225 0.959 . S
H227 C225 0.960 . S
H228 C225 0.961 . S
O229 Co204 1.967 . S
O229 C237 1.258 . S
O230 Co205 1.941 . S
O230 C237 1.266 . S
H231 C233 0.959 . S
H232 C233 0.961 . S
C233 C223 1.510 1_565 S
C233 H231 0.959 . S
C233 H232 0.961 . S
C233 H234 0.960 . S
H234 C233 0.960 . S
H235 N215 0.862 . S
O236 Co204 1.920 . S
O236 C209 1.289 . S
C237 O229 1.258 . S
C237 O230 1.266 . S
Co238 O241 1.970 . S
Co238 N255 1.989 . S
Co238 O263 1.967 . S
Co238 O270 1.920 . S
Co239 O242 1.966 . S
Co239 N248 2.022 . S
Co239 N256 1.993 . S
Co239 O264 1.941 1_455 S
C240 O241 1.258 . S
C240 O242 1.263 . S
O241 Co238 1.970 . S
O241 C240 1.258 . S
O242 Co239 1.966 . S
O242 C240 1.263 . S
C243 O244 1.235 . S
C243 O270 1.289 . S
O244 C243 1.235 . S
C245 C247 1.400 1_565 S
C245 N248 1.351 . S
C245 C250 1.501 . S
C246 C247 1.387 . S
C246 N249 1.341 . S
C247 C245 1.400 1_545 S
C247 C246 1.387 . S
N248 Co239 2.022 . S
N248 C245 1.351 . S
N248 N249 1.365 1_565 S
N249 C246 1.341 . S
N249 N248 1.365 1_545 S
N249 H269 0.862 . S
C250 C245 1.501 . S
C250 H251 0.961 . S
C250 H252 0.961 . S
C250 H253 0.960 1_455 S
H251 C250 0.961 . S
H252 C250 0.961 . S
H253 C250 0.960 1_655 S
C254 N255 1.342 . S
C254 C258 1.401 . S
C254 C259 1.499 . S
N255 Co238 1.989 . S
N255 C254 1.342 . S
N255 N256 1.388 . S
N256 Co239 1.993 . S
N256 N255 1.388 . S
N256 C257 1.346 . S
C257 N256 1.346 . S
C257 C258 1.396 . S
C257 C267 1.510 1_565 S
C258 C254 1.401 . S
C258 C257 1.396 . S
C259 C254 1.499 . S
C259 H260 0.959 . S
C259 H261 0.960 . S
C259 H262 0.961 . S
H260 C259 0.959 . S
H261 C259 0.960 . S
H262 C259 0.961 . S
O263 Co238 1.967 . S
O263 C271 1.258 . S
O264 Co239 1.941 1_655 S
O264 C271 1.266 1_655 S
H265 C267 0.959 . S
H266 C267 0.961 . S
C267 C257 1.510 1_545 S
C267 H265 0.959 . S
C267 H266 0.961 . S
C267 H268 0.960 . S
H268 C267 0.960 . S
H269 N249 0.862 . S
O270 Co238 1.920 . S
O270 C243 1.289 . S
C271 O263 1.258 . S
C271 O264 1.266 1_455 S
Co272 O275 1.970 . S
Co272 N289 1.989 . S
Co272 O297 1.967 . S
Co272 O304 1.920 . S
Co273 O276 1.966 . S
Co273 N282 2.022 . S
Co273 N290 1.993 . S
Co273 O298 1.941 . S
C274 O275 1.258 . S
C274 O276 1.263 . S
O275 Co272 1.970 . S
O275 C274 1.258 . S
O276 Co273 1.966 . S
O276 C274 1.263 . S
C277 O278 1.235 . S
C277 O304 1.289 . S
O278 C277 1.235 . S
C279 C281 1.400 . S
C279 N282 1.351 . S
C279 C284 1.501 . S
C280 C281 1.387 . S
C280 N283 1.341 . S
C281 C279 1.400 . S
C281 C280 1.387 . S
N282 Co273 2.022 . S
N282 C279 1.351 . S
N282 N283 1.365 . S
N283 C280 1.341 . S
N283 N282 1.365 . S
N283 H303 0.862 . S
C284 C279 1.501 . S
C284 H285 0.961 . S
C284 H286 0.961 . S
C284 H287 0.960 . S
H285 C284 0.961 . S
H286 C284 0.961 . S
H287 C284 0.960 . S
C288 N289 1.342 . S
C288 C292 1.401 . S
C288 C293 1.499 . S
N289 Co272 1.989 . S
N289 C288 1.342 . S
N289 N290 1.388 . S
N290 Co273 1.993 . S
N290 N289 1.388 . S
N290 C291 1.346 . S
C291 N290 1.346 . S
C291 C292 1.396 . S
C291 C301 1.510 . S
C292 C288 1.401 . S
C292 C291 1.396 . S
C293 C288 1.499 . S
C293 H294 0.959 . S
C293 H295 0.960 . S
C293 H296 0.961 . S
H294 C293 0.959 . S
H295 C293 0.960 . S
H296 C293 0.961 . S
O297 Co272 1.967 . S
O297 C305 1.258 . S
O298 Co273 1.941 . S
O298 C305 1.266 . S
H299 C301 0.959 . S
H300 C301 0.961 . S
C301 C291 1.510 . S
C301 H299 0.959 . S
C301 H300 0.961 . S
C301 H302 0.960 . S
H302 C301 0.960 . S
H303 N283 0.862 . S
O304 Co272 1.920 . S
O304 C277 1.289 . S
C305 O297 1.258 . S
C305 O298 1.266 . S
Co306 O309 1.970 . S
Co306 N323 1.989 . S
Co306 O331 1.967 . S
Co306 O338 1.920 . S
Co307 O310 1.966 . S
Co307 N316 2.022 . S
Co307 N324 1.993 . S
Co307 O332 1.941 1_655 S
C308 O309 1.258 . S
C308 O310 1.263 . S
O309 Co306 1.970 . S
O309 C308 1.258 . S
O310 Co307 1.966 . S
O310 C308 1.263 . S
C311 O312 1.235 . S
C311 O338 1.289 . S
O312 C311 1.235 . S
C313 C315 1.400 . S
C313 N316 1.351 . S
C313 C318 1.501 . S
C314 C315 1.387 . S
C314 N317 1.341 . S
C315 C313 1.400 . S
C315 C314 1.387 . S
N316 Co307 2.022 . S
N316 C313 1.351 . S
N316 N317 1.365 . S
N317 C314 1.341 . S
N317 N316 1.365 . S
N317 H337 0.862 . S
C318 C313 1.501 . S
C318 H319 0.961 . S
C318 H320 0.961 . S
C318 H321 0.960 1_655 S
H319 C318 0.961 . S
H320 C318 0.961 . S
H321 C318 0.960 1_455 S
C322 N323 1.342 . S
C322 C326 1.401 . S
C322 C327 1.499 . S
N323 Co306 1.989 . S
N323 C322 1.342 . S
N323 N324 1.388 . S
N324 Co307 1.993 . S
N324 N323 1.388 . S
N324 C325 1.346 . S
C325 N324 1.346 . S
C325 C326 1.396 . S
C325 C335 1.510 . S
C326 C322 1.401 . S
C326 C325 1.396 . S
C327 C322 1.499 . S
C327 H328 0.959 . S
C327 H329 0.960 . S
C327 H330 0.961 . S
H328 C327 0.959 . S
H329 C327 0.960 . S
H330 C327 0.961 . S
O331 Co306 1.967 . S
O331 C339 1.258 . S
O332 Co307 1.941 1_455 S
O332 C339 1.266 1_455 S
H333 C335 0.959 . S
H334 C335 0.961 . S
C335 C325 1.510 . S
C335 H333 0.959 . S
C335 H334 0.961 . S
C335 H336 0.960 . S
H336 C335 0.960 . S
H337 N317 0.862 . S
O338 Co306 1.920 . S
O338 C311 1.289 . S
C339 O331 1.258 . S
C339 O332 1.266 1_655 S
Co340 O343 1.970 . S
Co340 N357 1.989 . S
Co340 O365 1.967 . S
Co340 O372 1.920 . S
Co341 O344 1.966 . S
Co341 N350 2.022 . S
Co341 N358 1.993 . S
Co341 O366 1.941 1_455 S
C342 O343 1.258 . S
C342 O344 1.263 . S
O343 Co340 1.970 . S
O343 C342 1.258 . S
O344 Co341 1.966 . S
O344 C342 1.263 . S
C345 O346 1.235 . S
C345 O372 1.289 . S
O346 C345 1.235 . S
C347 C349 1.400 . S
C347 N350 1.351 . S
C347 C352 1.501 . S
C348 C349 1.387 . S
C348 N351 1.341 . S
C349 C347 1.400 . S
C349 C348 1.387 . S
N350 Co341 2.022 . S
N350 C347 1.351 . S
N350 N351 1.365 . S
N351 C348 1.341 . S
N351 N350 1.365 . S
N351 H371 0.862 . S
C352 C347 1.501 . S
C352 H353 0.961 . S
C352 H354 0.961 . S
C352 H355 0.960 1_455 S
H353 C352 0.961 . S
H354 C352 0.961 . S
H355 C352 0.960 1_655 S
C356 N357 1.342 . S
C356 C360 1.401 . S
C356 C361 1.499 . S
N357 Co340 1.989 . S
N357 C356 1.342 . S
N357 N358 1.388 . S
N358 Co341 1.993 . S
N358 N357 1.388 . S
N358 C359 1.346 . S
C359 N358 1.346 . S
C359 C360 1.396 . S
C359 C369 1.510 . S
C360 C356 1.401 . S
C360 C359 1.396 . S
C361 C356 1.499 . S
C361 H362 0.959 . S
C361 H363 0.960 . S
C361 H364 0.961 . S
H362 C361 0.959 . S
H363 C361 0.960 . S
H364 C361 0.961 . S
O365 Co340 1.967 . S
O365 C373 1.258 . S
O366 Co341 1.941 1_655 S
O366 C373 1.266 1_655 S
H367 C369 0.959 . S
H368 C369 0.961 . S
C369 C359 1.510 . S
C369 H367 0.959 . S
C369 H368 0.961 . S
C369 H370 0.960 . S
H370 C369 0.960 . S
H371 N351 0.862 . S
O372 Co340 1.920 . S
O372 C345 1.289 . S
C373 O365 1.258 . S
C373 O366 1.266 1_455 S
Co374 O377 1.970 . S
Co374 N391 1.989 . S
Co374 O399 1.967 . S
Co374 O406 1.920 . S
Co375 O378 1.966 . S
Co375 N384 2.022 . S
Co375 N392 1.993 . S
Co375 O400 1.941 . S
C376 O377 1.258 . S
C376 O378 1.263 . S
O377 Co374 1.970 . S
O377 C376 1.258 . S
O378 Co375 1.966 . S
O378 C376 1.263 . S
C379 O380 1.235 . S
C379 O406 1.289 . S
O380 C379 1.235 . S
C381 C383 1.400 . S
C381 N384 1.351 . S
C381 C386 1.501 . S
C382 C383 1.387 . S
C382 N385 1.341 . S
C383 C381 1.400 . S
C383 C382 1.387 . S
N384 Co375 2.022 . S
N384 C381 1.351 . S
N384 N385 1.365 . S
N385 C382 1.341 . S
N385 N384 1.365 . S
N385 H405 0.862 . S
C386 C381 1.501 . S
C386 H387 0.961 . S
C386 H388 0.961 . S
C386 H389 0.960 . S
H387 C386 0.961 . S
H388 C386 0.961 . S
H389 C386 0.960 . S
C390 N391 1.342 . S
C390 C394 1.401 . S
C390 C395 1.499 . S
N391 Co374 1.989 . S
N391 C390 1.342 . S
N391 N392 1.388 . S
N392 Co375 1.993 . S
N392 N391 1.388 . S
N392 C393 1.346 . S
C393 N392 1.346 . S
C393 C394 1.396 . S
C393 C403 1.510 . S
C394 C390 1.401 . S
C394 C393 1.396 . S
C395 C390 1.499 . S
C395 H396 0.959 . S
C395 H397 0.960 . S
C395 H398 0.961 . S
H396 C395 0.959 . S
H397 C395 0.960 . S
H398 C395 0.961 . S
O399 Co374 1.967 . S
O399 C407 1.258 . S
O400 Co375 1.941 . S
O400 C407 1.266 . S
H401 C403 0.959 . S
H402 C403 0.961 . S
C403 C393 1.510 . S
C403 H401 0.959 . S
C403 H402 0.961 . S
C403 H404 0.960 . S
H404 C403 0.960 . S
H405 N385 0.862 . S
O406 Co374 1.920 . S
O406 C379 1.289 . S
C407 O399 1.258 . S
C407 O400 1.266 . S
Co408 O411 1.970 . S
Co408 N425 1.989 . S
Co408 O433 1.967 . S
Co408 O440 1.920 . S
Co409 O412 1.966 . S
Co409 N418 2.022 . S
Co409 N426 1.993 . S
Co409 O434 1.941 . S
C410 O411 1.258 . S
C410 O412 1.263 . S
O411 Co408 1.970 . S
O411 C410 1.258 . S
O412 Co409 1.966 . S
O412 C410 1.263 . S
C413 O414 1.235 . S
C413 O440 1.289 . S
O414 C413 1.235 . S
C415 C417 1.400 . S
C415 N418 1.351 . S
C415 C420 1.501 . S
C416 C417 1.387 . S
C416 N419 1.341 . S
C417 C415 1.400 . S
C417 C416 1.387 . S
N418 Co409 2.022 . S
N418 C415 1.351 . S
N418 N419 1.365 . S
N419 C416 1.341 . S
N419 N418 1.365 . S
N419 H439 0.862 . S
C420 C415 1.501 . S
C420 H421 0.961 . S
C420 H422 0.961 . S
C420 H423 0.960 . S
H421 C420 0.961 . S
H422 C420 0.961 . S
H423 C420 0.960 . S
C424 N425 1.342 . S
C424 C428 1.401 . S
C424 C429 1.499 . S
N425 Co408 1.989 . S
N425 C424 1.342 . S
N425 N426 1.388 . S
N426 Co409 1.993 . S
N426 N425 1.388 . S
N426 C427 1.346 . S
C427 N426 1.346 . S
C427 C428 1.396 . S
C427 C437 1.510 . S
C428 C424 1.401 . S
C428 C427 1.396 . S
C429 C424 1.499 . S
C429 H430 0.959 . S
C429 H431 0.960 . S
C429 H432 0.961 . S
H430 C429 0.959 . S
H431 C429 0.960 . S
H432 C429 0.961 . S
O433 Co408 1.967 . S
O433 C441 1.258 . S
O434 Co409 1.941 . S
O434 C441 1.266 . S
H435 C437 0.959 . S
H436 C437 0.961 . S
C437 C427 1.510 . S
C437 H435 0.959 . S
C437 H436 0.961 . S
C437 H438 0.960 . S
H438 C437 0.960 . S
H439 N419 0.862 . S
O440 Co408 1.920 . S
O440 C413 1.289 . S
C441 O433 1.258 . S
C441 O434 1.266 . S
Co442 O445 1.970 . S
Co442 N459 1.989 . S
Co442 O467 1.967 . S
Co442 O474 1.920 . S
Co443 O446 1.966 . S
Co443 N452 2.022 . S
Co443 N460 1.993 . S
Co443 O468 1.941 1_455 S
C444 O445 1.258 . S
C444 O446 1.263 . S
O445 Co442 1.970 . S
O445 C444 1.258 . S
O446 Co443 1.966 . S
O446 C444 1.263 . S
C447 O448 1.235 . S
C447 O474 1.289 . S
O448 C447 1.235 . S
C449 C451 1.400 . S
C449 N452 1.351 . S
C449 C454 1.501 . S
C450 C451 1.387 . S
C450 N453 1.341 . S
C451 C449 1.400 . S
C451 C450 1.387 . S
N452 Co443 2.022 . S
N452 C449 1.351 . S
N452 N453 1.365 . S
N453 C450 1.341 . S
N453 N452 1.365 . S
N453 H473 0.862 . S
C454 C449 1.501 . S
C454 H455 0.961 . S
C454 H456 0.961 . S
C454 H457 0.960 1_455 S
H455 C454 0.961 . S
H456 C454 0.961 . S
H457 C454 0.960 1_655 S
C458 N459 1.342 . S
C458 C462 1.401 . S
C458 C463 1.499 . S
N459 Co442 1.989 . S
N459 C458 1.342 . S
N459 N460 1.388 . S
N460 Co443 1.993 . S
N460 N459 1.388 . S
N460 C461 1.346 . S
C461 N460 1.346 . S
C461 C462 1.396 . S
C461 C471 1.510 . S
C462 C458 1.401 . S
C462 C461 1.396 . S
C463 C458 1.499 . S
C463 H464 0.959 . S
C463 H465 0.960 . S
C463 H466 0.961 . S
H464 C463 0.959 . S
H465 C463 0.960 . S
H466 C463 0.961 . S
O467 Co442 1.967 . S
O467 C475 1.258 . S
O468 Co443 1.941 1_655 S
O468 C475 1.266 1_655 S
H469 C471 0.959 . S
H470 C471 0.961 . S
C471 C461 1.510 . S
C471 H469 0.959 . S
C471 H470 0.961 . S
C471 H472 0.960 . S
H472 C471 0.960 . S
H473 N453 0.862 . S
O474 Co442 1.920 . S
O474 C447 1.289 . S
C475 O467 1.258 . S
C475 O468 1.266 1_455 S
Co476 O479 1.970 . S
Co476 N493 1.989 . S
Co476 O501 1.967 . S
Co476 O508 1.920 . S
Co477 O480 1.966 . S
Co477 N486 2.022 . S
Co477 N494 1.993 . S
Co477 O502 1.941 1_655 S
C478 O479 1.258 . S
C478 O480 1.263 . S
O479 Co476 1.970 . S
O479 C478 1.258 . S
O480 Co477 1.966 . S
O480 C478 1.263 . S
C481 O482 1.235 . S
C481 O508 1.289 . S
O482 C481 1.235 . S
C483 C485 1.400 . S
C483 N486 1.351 . S
C483 C488 1.501 . S
C484 C485 1.387 . S
C484 N487 1.341 . S
C485 C483 1.400 . S
C485 C484 1.387 . S
N486 Co477 2.022 . S
N486 C483 1.351 . S
N486 N487 1.365 . S
N487 C484 1.341 . S
N487 N486 1.365 . S
N487 H507 0.862 . S
C488 C483 1.501 . S
C488 H489 0.961 . S
C488 H490 0.961 . S
C488 H491 0.960 1_655 S
H489 C488 0.961 . S
H490 C488 0.961 . S
H491 C488 0.960 1_455 S
C492 N493 1.342 . S
C492 C496 1.401 . S
C492 C497 1.499 . S
N493 Co476 1.989 . S
N493 C492 1.342 . S
N493 N494 1.388 . S
N494 Co477 1.993 . S
N494 N493 1.388 . S
N494 C495 1.346 . S
C495 N494 1.346 . S
C495 C496 1.396 . S
C495 C505 1.510 . S
C496 C492 1.401 . S
C496 C495 1.396 . S
C497 C492 1.499 . S
C497 H498 0.959 . S
C497 H499 0.960 . S
C497 H500 0.961 . S
H498 C497 0.959 . S
H499 C497 0.960 . S
H500 C497 0.961 . S
O501 Co476 1.967 . S
O501 C509 1.258 . S
O502 Co477 1.941 1_455 S
O502 C509 1.266 1_455 S
H503 C505 0.959 . S
H504 C505 0.961 . S
C505 C495 1.510 . S
C505 H503 0.959 . S
C505 H504 0.961 . S
C505 H506 0.960 . S
H506 C505 0.960 . S
H507 N487 0.862 . S
O508 Co476 1.920 . S
O508 C481 1.289 . S
C509 O501 1.258 . S
C509 O502 1.266 1_655 S
Co510 O513 1.970 . S
Co510 N527 1.989 . S
Co510 O535 1.967 . S
Co510 O542 1.920 . S
Co511 O514 1.966 . S
Co511 N520 2.022 . S
Co511 N528 1.993 . S
Co511 O536 1.941 . S
C512 O513 1.258 . S
C512 O514 1.263 . S
O513 Co510 1.970 . S
O513 C512 1.258 . S
O514 Co511 1.966 . S
O514 C512 1.263 . S
C515 O516 1.235 . S
C515 O542 1.289 . S
O516 C515 1.235 . S
C517 C519 1.400 . S
C517 N520 1.351 . S
C517 C522 1.501 . S
C518 C519 1.387 . S
C518 N521 1.341 . S
C519 C517 1.400 . S
C519 C518 1.387 . S
N520 Co511 2.022 . S
N520 C517 1.351 . S
N520 N521 1.365 . S
N521 C518 1.341 . S
N521 N520 1.365 . S
N521 H541 0.862 . S
C522 C517 1.501 . S
C522 H523 0.961 . S
C522 H524 0.961 . S
C522 H525 0.960 . S
H523 C522 0.961 . S
H524 C522 0.961 . S
H525 C522 0.960 . S
C526 N527 1.342 . S
C526 C530 1.401 . S
C526 C531 1.499 . S
N527 Co510 1.989 . S
N527 C526 1.342 . S
N527 N528 1.388 . S
N528 Co511 1.993 . S
N528 N527 1.388 . S
N528 C529 1.346 . S
C529 N528 1.346 . S
C529 C530 1.396 . S
C529 C539 1.510 . S
C530 C526 1.401 . S
C530 C529 1.396 . S
C531 C526 1.499 . S
C531 H532 0.959 . S
C531 H533 0.960 . S
C531 H534 0.961 . S
H532 C531 0.959 . S
H533 C531 0.960 . S
H534 C531 0.961 . S
O535 Co510 1.967 . S
O535 C543 1.258 . S
O536 Co511 1.941 . S
O536 C543 1.266 . S
H537 C539 0.959 . S
H538 C539 0.961 . S
C539 C529 1.510 . S
C539 H537 0.959 . S
C539 H538 0.961 . S
C539 H540 0.960 . S
H540 C539 0.960 . S
H541 N521 0.862 . S
O542 Co510 1.920 . S
O542 C515 1.289 . S
C543 O535 1.258 . S
C543 O536 1.266 . S
C135 C33 2.200 1_655 S
C101 C67 2.200 . S
C169 C271 2.200 1_655 S
C203 C237 2.200 . S
C305 C407 2.200 . S
C339 C373 2.200 1_655 S
C543 C441 2.200 . S
C509 C475 2.200 1_655 S
C5 C345 0.631 . S
C379 C39 0.631 . S
C277 C73 0.631 . S
C311 C107 0.631 . S
C481 C141 0.631 . S
C515 C175 0.631 . S
C413 C209 0.631 . S
C447 C243 0.631 . S
C9 C145 2.176 1_465 S
C43 C179 2.176 1_545 S
C213 C77 2.176 1_566 S
C111 C247 2.176 1_664 S
C281 C417 2.176 . S
C451 C315 2.176 1_455 S
C349 C485 2.176 1_454 S
C519 C383 2.176 1_556 S
C20 C54 1.573 1_545 S
C122 C88 1.573 1_545 S
C190 C156 1.573 1_545 S
C224 C258 1.573 1_545 S
C326 C292 1.573 . S
C394 C360 1.573 . S
C428 C462 1.573 . S
C530 C496 1.573 . S
C2 C308 1.933 1_455 S
C36 C274 1.933 . S
C70 C376 1.933 . S
C104 C342 1.933 1_655 S
C138 C444 1.933 1_655 S
C410 C172 1.933 . S
C206 C512 1.933 . S
C478 C240 1.933 1_655 S
