# Generated by pormake.
# Topology vbe, (5)-cn, num edge types: 1
# Building blocks:
#     Node 0, Type 0, BuildingBlock: XOMCOT_clean_sbu_1, # of connection points: 5
#     Node 1, Type 0, BuildingBlock: XOMCOT_clean_sbu_1, # of connection points: 5
#     Node 2, Type 0, BuildingBlock: XOMCOT_clean_sbu_1, # of connection points: 5
#     Node 3, Type 0, BuildingBlock: XOMCOT_clean_sbu_1, # of connection points: 5
#     Node 4, Type 0, BuildingBlock: XOMCOT_clean_sbu_1, # of connection points: 5
#     Node 5, Type 0, BuildingBlock: XOMCOT_clean_sbu_1, # of connection points: 5
#     Node 6, Type 0, BuildingBlock: XOMCOT_clean_sbu_1, # of connection points: 5
#     Node 7, Type 0, BuildingBlock: XOMCOT_clean_sbu_1, # of connection points: 5
#     Node 8, Type 0, BuildingBlock: XOMCOT_clean_sbu_1, # of connection points: 5
#     Node 9, Type 0, BuildingBlock: XOMCOT_clean_sbu_1, # of connection points: 5
#     Node 10, Type 0, BuildingBlock: XOMCOT_clean_sbu_1, # of connection points: 5
#     Node 11, Type 0, BuildingBlock: XOMCOT_clean_sbu_1, # of connection points: 5
#     Node 12, Type 0, BuildingBlock: XOMCOT_clean_sbu_1, # of connection points: 5
#     Node 13, Type 0, BuildingBlock: XOMCOT_clean_sbu_1, # of connection points: 5
#     Node 14, Type 0, BuildingBlock: XOMCOT_clean_sbu_1, # of connection points: 5
#     Node 15, Type 0, BuildingBlock: XOMCOT_clean_sbu_1, # of connection points: 5
#     Edge 16, Type (0, 0), BuildingBlock: UVAHIK_clean_linker_0, # of connection points: 2
#     Edge 17, Type (0, 0), BuildingBlock: UVAHIK_clean_linker_0, # of connection points: 2
#     Edge 18, Type (0, 0), BuildingBlock: UVAHIK_clean_linker_0, # of connection points: 2
#     Edge 19, Type (0, 0), BuildingBlock: UVAHIK_clean_linker_0, # of connection points: 2
#     Edge 20, Type (0, 0), BuildingBlock: UVAHIK_clean_linker_0, # of connection points: 2
#     Edge 21, Type (0, 0), BuildingBlock: UVAHIK_clean_linker_0, # of connection points: 2
#     Edge 22, Type (0, 0), BuildingBlock: UVAHIK_clean_linker_0, # of connection points: 2
#     Edge 23, Type (0, 0), BuildingBlock: UVAHIK_clean_linker_0, # of connection points: 2
#     Edge 24, Type (0, 0), BuildingBlock: UVAHIK_clean_linker_0, # of connection points: 2
#     Edge 25, Type (0, 0), BuildingBlock: UVAHIK_clean_linker_0, # of connection points: 2
#     Edge 26, Type (0, 0), BuildingBlock: UVAHIK_clean_linker_0, # of connection points: 2
#     Edge 27, Type (0, 0), BuildingBlock: UVAHIK_clean_linker_0, # of connection points: 2
#     Edge 28, Type (0, 0), BuildingBlock: UVAHIK_clean_linker_0, # of connection points: 2
#     Edge 29, Type (0, 0), BuildingBlock: UVAHIK_clean_linker_0, # of connection points: 2
#     Edge 30, Type (0, 0), BuildingBlock: UVAHIK_clean_linker_0, # of connection points: 2
#     Edge 31, Type (0, 0), BuildingBlock: UVAHIK_clean_linker_0, # of connection points: 2
#     Edge 32, Type (0, 0), BuildingBlock: UVAHIK_clean_linker_0, # of connection points: 2
#     Edge 33, Type (0, 0), BuildingBlock: UVAHIK_clean_linker_0, # of connection points: 2
#     Edge 34, Type (0, 0), BuildingBlock: UVAHIK_clean_linker_0, # of connection points: 2
#     Edge 35, Type (0, 0), BuildingBlock: UVAHIK_clean_linker_0, # of connection points: 2
#     Edge 36, Type (0, 0), BuildingBlock: UVAHIK_clean_linker_0, # of connection points: 2
#     Edge 37, Type (0, 0), BuildingBlock: UVAHIK_clean_linker_0, # of connection points: 2
#     Edge 38, Type (0, 0), BuildingBlock: UVAHIK_clean_linker_0, # of connection points: 2
#     Edge 39, Type (0, 0), BuildingBlock: UVAHIK_clean_linker_0, # of connection points: 2
#     Edge 40, Type (0, 0), BuildingBlock: UVAHIK_clean_linker_0, # of connection points: 2
#     Edge 41, Type (0, 0), BuildingBlock: UVAHIK_clean_linker_0, # of connection points: 2
#     Edge 42, Type (0, 0), BuildingBlock: UVAHIK_clean_linker_0, # of connection points: 2
#     Edge 43, Type (0, 0), BuildingBlock: UVAHIK_clean_linker_0, # of connection points: 2
#     Edge 44, Type (0, 0), BuildingBlock: UVAHIK_clean_linker_0, # of connection points: 2
#     Edge 45, Type (0, 0), BuildingBlock: UVAHIK_clean_linker_0, # of connection points: 2
#     Edge 46, Type (0, 0), BuildingBlock: UVAHIK_clean_linker_0, # of connection points: 2
#     Edge 47, Type (0, 0), BuildingBlock: UVAHIK_clean_linker_0, # of connection points: 2
#     Edge 48, Type (0, 0), BuildingBlock: UVAHIK_clean_linker_0, # of connection points: 2
#     Edge 49, Type (0, 0), BuildingBlock: UVAHIK_clean_linker_0, # of connection points: 2
#     Edge 50, Type (0, 0), BuildingBlock: UVAHIK_clean_linker_0, # of connection points: 2
#     Edge 51, Type (0, 0), BuildingBlock: UVAHIK_clean_linker_0, # of connection points: 2
#     Edge 52, Type (0, 0), BuildingBlock: UVAHIK_clean_linker_0, # of connection points: 2
#     Edge 53, Type (0, 0), BuildingBlock: UVAHIK_clean_linker_0, # of connection points: 2
#     Edge 54, Type (0, 0), BuildingBlock: UVAHIK_clean_linker_0, # of connection points: 2
#     Edge 55, Type (0, 0), BuildingBlock: UVAHIK_clean_linker_0, # of connection points: 2
# Relax obj value: 0.482
# Max RMSD: 0.268
# Mean RMSD: 0.268
data_MOF--net-vbe--node1-XOMCOT_clean_sbu_1--edge1-UVAHIK_clean_linker_0
_symmetry_space_group_name_H-M    P1
_symmetry_Int_Tables_number       1
_symmetry_cell_setting            triclinic
loop_
_symmetry_equiv_pos_as_xyz
'x, y, z'
_cell_length_a     49.706336
_cell_length_b     52.209297
_cell_length_c     62.156695
_cell_angle_alpha  90.0814
_cell_angle_beta   89.859423
_cell_angle_gamma 90.213348
loop_
_atom_site_label
_atom_site_type_symbol
_atom_site_fract_x
_atom_site_fract_y
_atom_site_fract_z
_atom_type_partial_charge
C0 C 0.14069 0.14232 0.34594 0.0
C1 C 0.14512 0.15637 0.32755 0.0
N2 N 0.13136 0.17847 0.32912 0.0
N3 N 0.12424 0.15541 0.35923 0.0
C4 C 0.11875 0.17736 0.34843 0.0
H5 H 0.14887 0.12361 0.3493 0.0
Co6 Co 0.11189 0.14297 0.3859 0.0
C7 C 0.11006 0.2001 0.39813 0.0
O8 O 0.13391 0.20815 0.39191 0.0
N9 N 0.09953 0.13085 0.41263 0.0
C10 C 0.09091 0.12951 0.44772 0.0
C11 C 0.10332 0.14302 0.43157 0.0
C12 C 0.08533 0.10955 0.4178 0.0
N13 N 0.07956 0.1085 0.43903 0.0
O14 O 0.14766 0.1442 0.39725 0.0
H15 H 0.11441 0.16072 0.43356 0.0
H16 H 0.07896 0.09525 0.40629 0.0
O17 O 0.10327 0.17683 0.39547 0.0
C18 C 0.15539 0.12093 0.39622 0.0
O19 O 0.13912 0.10374 0.38786 0.0
N20 N 0.07773 0.13891 0.37446 0.0
C21 C 0.02815 0.1246 0.3575 0.0
C22 C 0.03231 0.14947 0.36552 0.0
C23 C 0.05728 0.15627 0.37403 0.0
C24 C 0.07429 0.11494 0.36632 0.0
C25 C 0.04954 0.10718 0.35817 0.0
H26 H 0.05996 0.17553 0.37987 0.0
H27 H 0.09082 0.10155 0.36665 0.0
H28 H 0.10519 0.19197 0.35426 0.0
H29 H 0.15774 0.15083 0.31412 0.0
H30 H 0.0905 0.1346 0.46461 0.0
H31 H 0.01673 0.16387 0.3647 0.0
H32 H 0.04734 0.08773 0.35236 0.0
C33 C 0.35664 0.90345 0.34647 0.0
C34 C 0.3508 0.89082 0.32756 0.0
N35 N 0.35784 0.86602 0.32966 0.0
N36 N 0.3673 0.8868 0.36058 0.0
C37 C 0.36739 0.86407 0.34997 0.0
H38 H 0.35457 0.92378 0.34932 0.0
Co39 Co 0.38419 0.89596 0.38657 0.0
C40 C 0.3731 0.83975 0.40528 0.0
O41 O 0.3486 0.83032 0.4044 0.0
N42 N 0.40086 0.90502 0.41254 0.0
C43 C 0.40588 0.91006 0.44777 0.0
C44 C 0.39165 0.89769 0.43202 0.0
C45 C 0.4205 0.92232 0.4169 0.0
N46 N 0.42389 0.92581 0.43835 0.0
O47 O 0.3506 0.90806 0.39788 0.0
H48 H 0.37498 0.88472 0.43467 0.0
H49 H 0.43104 0.93311 0.40463 0.0
O50 O 0.37761 0.8621 0.39785 0.0
C51 C 0.35132 0.93246 0.39729 0.0
O52 O 0.3727 0.94375 0.38916 0.0
N53 N 0.41701 0.88679 0.37435 0.0
C54 C 0.44215 0.8762 0.33583 0.0
C55 C 0.43848 0.85671 0.35099 0.0
C56 C 0.42573 0.86247 0.37042 0.0
C57 C 0.42535 0.90655 0.36171 0.0
C58 C 0.43789 0.90166 0.34211 0.0
H59 H 0.41921 0.84673 0.3801 0.0
H60 H 0.41811 0.92568 0.36497 0.0
H61 H 0.37596 0.84674 0.35648 0.0
H62 H 0.34276 0.8995 0.31316 0.0
H63 H 0.4028 0.90783 0.4649 0.0
H64 H 0.44171 0.83683 0.34672 0.0
H65 H 0.44092 0.91725 0.33086 0.0
C66 C 0.63465 0.90302 0.14785 0.0
C67 C 0.63807 0.88798 0.16574 0.0
N68 N 0.62158 0.86752 0.16421 0.0
N69 N 0.61618 0.89218 0.1348 0.0
C70 C 0.60861 0.87051 0.14526 0.0
H71 H 0.64483 0.92097 0.14487 0.0
Co72 Co 0.60262 0.90608 0.10894 0.0
C73 C 0.62187 0.85363 0.09502 0.0
O74 O 0.64176 0.85127 0.10874 0.0
N75 N 0.5895 0.91978 0.08357 0.0
C76 C 0.58611 0.93031 0.04915 0.0
C77 C 0.59807 0.91405 0.06353 0.0
C78 C 0.57237 0.93954 0.08104 0.0
N79 N 0.57008 0.94642 0.06019 0.0
O80 O 0.63752 0.91895 0.10137 0.0
H81 H 0.6129 0.89966 0.05965 0.0
H82 H 0.56284 0.94943 0.09433 0.0
O83 O 0.6083 0.87418 0.09441 0.0
C84 C 0.63781 0.94274 0.10608 0.0
O85 O 0.61683 0.95223 0.11622 0.0
N86 N 0.56801 0.8953 0.11639 0.0
C87 C 0.52153 0.87499 0.134 0.0
C88 C 0.53036 0.86662 0.11386 0.0
C89 C 0.55354 0.87754 0.10503 0.0
C90 C 0.55811 0.90537 0.13498 0.0
C91 C 0.53489 0.89526 0.14423 0.0
H92 H 0.56035 0.87096 0.08951 0.0
H93 H 0.56936 0.92006 0.14337 0.0
H94 H 0.59333 0.85753 0.13929 0.0
H95 H 0.65175 0.89192 0.17885 0.0
H96 H 0.58933 0.93053 0.03192 0.0
H97 H 0.52012 0.85119 0.10552 0.0
H98 H 0.5283 0.90215 0.15982 0.0
C99 C 0.84882 0.13776 0.14406 0.0
C100 C 0.8399 0.14948 0.16258 0.0
N101 N 0.84371 0.17491 0.16055 0.0
N102 N 0.85837 0.15566 0.13037 0.0
C103 C 0.85432 0.17818 0.14072 0.0
H104 H 0.85103 0.11735 0.14187 0.0
Co105 Co 0.88307 0.14852 0.10829 0.0
C106 C 0.88363 0.19608 0.08303 0.0
O107 O 0.87603 0.18347 0.06575 0.0
N108 N 0.90858 0.14138 0.08682 0.0
C109 C 0.94575 0.14407 0.06688 0.0
C110 C 0.93018 0.15616 0.08202 0.0
C111 C 0.91192 0.12009 0.07474 0.0
N112 N 0.93428 0.12133 0.06244 0.0
O113 O 0.85394 0.14252 0.08882 0.0
H114 H 0.93499 0.17419 0.0897 0.0
H115 H 0.89877 0.1036 0.07526 0.0
O116 O 0.88533 0.18436 0.10094 0.0
C117 C 0.8484 0.11871 0.09024 0.0
O118 O 0.86295 0.10435 0.10303 0.0
N119 N 0.91044 0.15153 0.12817 0.0
C120 C 0.92428 0.14631 0.17073 0.0
C121 C 0.92286 0.17078 0.16152 0.0
C122 C 0.91615 0.17302 0.13983 0.0
C123 C 0.91638 0.12787 0.13583 0.0
C124 C 0.92341 0.12477 0.15727 0.0
H125 H 0.91179 0.19176 0.13357 0.0
H126 H 0.91172 0.11112 0.12626 0.0
H127 H 0.86223 0.19632 0.13513 0.0
H128 H 0.83323 0.13986 0.17707 0.0
H129 H 0.96479 0.15083 0.06052 0.0
H130 H 0.92379 0.18787 0.1714 0.0
H131 H 0.92527 0.1056 0.16373 0.0
C132 C 0.85071 0.89222 0.6431 0.0
C133 C 0.83854 0.87674 0.65819 0.0
N134 N 0.84964 0.8532 0.65719 0.0
N135 N 0.8695 0.8787 0.63239 0.0
C136 C 0.86774 0.85483 0.64089 0.0
H137 H 0.84805 0.91268 0.64188 0.0
Co138 Co 0.89953 0.89295 0.61803 0.0
C139 C 0.91165 0.85728 0.58329 0.0
O140 O 0.90875 0.87598 0.56937 0.0
N141 N 0.93038 0.90678 0.60401 0.0
C142 C 0.97152 0.90839 0.58962 0.0
C143 C 0.9549 0.89557 0.60359 0.0
C144 C 0.93301 0.92682 0.59029 0.0
N145 N 0.95768 0.928 0.5812 0.0
O146 O 0.87628 0.90576 0.59576 0.0
H147 H 0.96017 0.87819 0.61191 0.0
H148 H 0.91692 0.93954 0.58597 0.0
O149 O 0.90554 0.86103 0.60298 0.0
C150 C 0.86913 0.92852 0.60055 0.0
O151 O 0.87947 0.93944 0.61771 0.0
N152 N 0.92058 0.88257 0.64119 0.0
C153 C 0.92366 0.86409 0.68264 0.0
C154 C 0.93254 0.84896 0.66542 0.0
C155 C 0.93084 0.85865 0.64454 0.0
C156 C 0.91639 0.89885 0.65795 0.0
C157 C 0.91743 0.88985 0.67896 0.0
H158 H 0.93461 0.84583 0.63128 0.0
H159 H 0.90832 0.91771 0.65491 0.0
H160 H 0.88133 0.83959 0.63652 0.0
H161 H 0.82459 0.88331 0.67036 0.0
H162 H 0.992 0.90331 0.58555 0.0
H163 H 0.93786 0.82906 0.6678 0.0
H164 H 0.91109 0.90221 0.69202 0.0
C165 C 0.66948 0.13308 0.64604 0.0
C166 C 0.67434 0.14745 0.6642 0.0
N167 N 0.65565 0.16601 0.66552 0.0
N168 N 0.64792 0.1425 0.63564 0.0
C169 C 0.6398 0.16251 0.64805 0.0
H170 H 0.68085 0.11654 0.64095 0.0
Co171 Co 0.63323 0.12842 0.61017 0.0
C172 C 0.62344 0.18449 0.59912 0.0
O173 O 0.64705 0.19434 0.60387 0.0
N174 N 0.61858 0.11505 0.58448 0.0
C175 C 0.61071 0.1127 0.5493 0.0
C176 C 0.62308 0.1264 0.56528 0.0
C177 C 0.60315 0.09435 0.57967 0.0
N178 N 0.59817 0.09251 0.55831 0.0
O179 O 0.6669 0.1335 0.59549 0.0
H180 H 0.63474 0.14372 0.563 0.0
H181 H 0.59597 0.08068 0.59141 0.0
O182 O 0.619 0.16073 0.6017 0.0
C183 C 0.67742 0.1112 0.59564 0.0
O184 O 0.6644 0.09244 0.60517 0.0
N185 N 0.60206 0.12068 0.62518 0.0
C186 C 0.56899 0.10592 0.65899 0.0
C187 C 0.5663 0.13031 0.64966 0.0
C188 C 0.58297 0.1373 0.6325 0.0
C189 C 0.60322 0.0963 0.63274 0.0
C190 C 0.58638 0.08828 0.64926 0.0
H191 H 0.58208 0.15673 0.62667 0.0
H192 H 0.61868 0.08352 0.62692 0.0
H193 H 0.62268 0.1744 0.64435 0.0
H194 H 0.69011 0.14406 0.67582 0.0
H195 H 0.61057 0.1175 0.53237 0.0
H196 H 0.55321 0.14463 0.65664 0.0
H197 H 0.58852 0.06901 0.65541 0.0
C198 C 0.36689 0.12964 0.84264 0.0
C199 C 0.36507 0.14341 0.82396 0.0
N200 N 0.36121 0.16821 0.82904 0.0
N201 N 0.36416 0.14552 0.85961 0.0
C202 C 0.36051 0.16901 0.85083 0.0
H203 H 0.37079 0.10933 0.84383 0.0
Co204 Co 0.3688 0.13385 0.88792 0.0
C205 C 0.38019 0.18087 0.91406 0.0
O206 O 0.36757 0.17252 0.93129 0.0
N207 N 0.37372 0.12134 0.91596 0.0
C208 C 0.36892 0.09721 0.94514 0.0
C209 C 0.3569 0.10543 0.92656 0.0
C210 C 0.39605 0.12226 0.92839 0.0
N211 N 0.39369 0.10761 0.9462 0.0
O212 O 0.33124 0.13974 0.89396 0.0
H213 H 0.338 0.09845 0.92048 0.0
H214 H 0.4142 0.13244 0.92385 0.0
O215 O 0.37967 0.1678 0.89676 0.0
C216 C 0.31862 0.12121 0.88505 0.0
O217 O 0.33259 0.10383 0.87465 0.0
N218 N 0.40435 0.12604 0.88125 0.0
C219 C 0.45234 0.10931 0.86319 0.0
C220 C 0.4464 0.13557 0.86428 0.0
C221 C 0.42222 0.14355 0.87333 0.0
C222 C 0.41044 0.10064 0.88157 0.0
C223 C 0.4346 0.09187 0.87295 0.0
H224 H 0.41702 0.16355 0.87227 0.0
H225 H 0.39581 0.08697 0.88752 0.0
H226 H 0.35853 0.18643 0.86015 0.0
H227 H 0.36675 0.13576 0.80782 0.0
H228 H 0.3609 0.08289 0.95601 0.0
H229 H 0.45908 0.14973 0.85653 0.0
H230 H 0.43848 0.07148 0.87265 0.0
C231 C 0.09041 0.90427 0.83673 0.0
C232 C 0.09619 0.89213 0.81768 0.0
N233 N 0.10288 0.86765 0.82192 0.0
N234 N 0.09378 0.88781 0.85317 0.0
C235 C 0.10158 0.86568 0.84362 0.0
H236 H 0.08266 0.92348 0.83826 0.0
Co237 Co 0.08316 0.89463 0.88161 0.0
C238 C 0.10618 0.85173 0.90697 0.0
O239 O 0.11615 0.8669 0.92187 0.0
N240 N 0.07182 0.90151 0.90974 0.0
C241 C 0.04938 0.89845 0.94056 0.0
C242 C 0.0582 0.88536 0.9228 0.0
C243 C 0.07073 0.92438 0.91984 0.0
N244 N 0.05711 0.92311 0.93866 0.0
O245 O 0.1176 0.9098 0.88752 0.0
H246 H 0.05335 0.86567 0.91898 0.0
H247 H 0.0786 0.94187 0.913 0.0
O248 O 0.09513 0.86133 0.8904 0.0
C249 C 0.11769 0.93315 0.88158 0.0
O250 O 0.09567 0.9428 0.87331 0.0
N251 N 0.04902 0.88152 0.87548 0.0
C252 C -0.00344 0.86633 0.86594 0.0
C253 C 0.01783 0.84874 0.86502 0.0
C254 C 0.0439 0.85669 0.86987 0.0
C255 C 0.02867 0.89885 0.8767 0.0
C256 C 0.00222 0.89158 0.87237 0.0
H257 H 0.05993 0.84297 0.86845 0.0
H258 H 0.03308 0.9185 0.88103 0.0
H259 H 0.10448 0.84798 0.85227 0.0
H260 H 0.09457 0.90063 0.80188 0.0
H261 H 0.03656 0.89071 0.95307 0.0
H262 H 0.01471 0.82925 0.85958 0.0
H263 H 0.9865 0.90582 0.87352 0.0
C264 C 0.58967 0.62883 0.33645 0.0
C265 C 0.59482 0.64094 0.31726 0.0
N266 N 0.59946 0.66597 0.3212 0.0
N267 N 0.59132 0.64592 0.35267 0.0
C268 C 0.59759 0.66835 0.34285 0.0
H269 H 0.58366 0.60905 0.3382 0.0
Co270 Co 0.58086 0.63925 0.38124 0.0
C271 C 0.60148 0.68334 0.40673 0.0
O272 O 0.61136 0.66874 0.42198 0.0
N273 N 0.56953 0.63258 0.40969 0.0
C274 C 0.54537 0.63586 0.43972 0.0
C275 C 0.55445 0.64853 0.42185 0.0
C276 C 0.56905 0.61018 0.42056 0.0
N277 N 0.55434 0.61159 0.43885 0.0
O278 O 0.61558 0.62463 0.38699 0.0
H279 H 0.54843 0.66756 0.41713 0.0
H280 H 0.57791 0.59272 0.41462 0.0
O281 O 0.59227 0.67309 0.38965 0.0
C282 C 0.61371 0.60088 0.38232 0.0
O283 O 0.5904 0.59228 0.3754 0.0
N284 N 0.54645 0.65136 0.37509 0.0
C285 C 0.49334 0.66429 0.36598 0.0
C286 C 0.51399 0.68268 0.36457 0.0
C287 C 0.5404 0.67585 0.36929 0.0
C288 C 0.52672 0.63333 0.37687 0.0
C289 C 0.49997 0.63953 0.37295 0.0
H290 H 0.55593 0.69014 0.36759 0.0
H291 H 0.53184 0.61397 0.38143 0.0
H292 H 0.59906 0.68643 0.35125 0.0
H293 H 0.59426 0.63198 0.30157 0.0
H294 H 0.5313 0.64341 0.45141 0.0
H295 H 0.51019 0.70186 0.35877 0.0
H296 H 0.4848 0.62474 0.37469 0.0
C297 C 0.89115 0.40659 0.33467 0.0
C298 C 0.88962 0.39181 0.31646 0.0
N299 N 0.87784 0.36936 0.3216 0.0
N300 N 0.88038 0.39365 0.35135 0.0
C301 C 0.87219 0.37101 0.34288 0.0
H302 H 0.90015 0.42543 0.33586 0.0
Co303 Co 0.88132 0.4064 0.37948 0.0
C304 C 0.87894 0.36043 0.40854 0.0
O305 O 0.86939 0.37271 0.42534 0.0
N306 N 0.88254 0.42009 0.40763 0.0
C307 C 0.87387 0.44514 0.4358 0.0
C308 C 0.86466 0.43662 0.41628 0.0
C309 C 0.9025 0.41893 0.42242 0.0
N310 N 0.89785 0.43424 0.43954 0.0
O311 O 0.84268 0.40889 0.37976 0.0
H312 H 0.84681 0.44356 0.40846 0.0
H313 H 0.92068 0.40785 0.42034 0.0
O314 O 0.88086 0.37171 0.39043 0.0
C315 C 0.83488 0.4278 0.36839 0.0
O316 O 0.85303 0.4409 0.3576 0.0
N317 N 0.91905 0.40541 0.37833 0.0
C318 C 0.9749 0.40638 0.3741 0.0
C319 C 0.96056 0.38327 0.37255 0.0
C320 C 0.93271 0.38323 0.37447 0.0
C321 C 0.9325 0.42814 0.37977 0.0
C322 C 0.96052 0.42901 0.37811 0.0
H323 H 0.92215 0.36549 0.37168 0.0
H324 H 0.92137 0.44569 0.38215 0.0
H325 H 0.86325 0.35571 0.35224 0.0
H326 H 0.89683 0.39715 0.30063 0.0
H327 H 0.86466 0.45986 0.44563 0.0
H328 H 0.9705 0.36547 0.36849 0.0
H329 H 0.97069 0.44734 0.37926 0.0
C330 C 0.15039 0.41681 0.15514 0.0
C331 C 0.16027 0.40142 0.17128 0.0
N332 N 0.14954 0.3778 0.16913 0.0
N333 N 0.13342 0.40307 0.14274 0.0
C334 C 0.13405 0.37918 0.1513 0.0
H335 H 0.15307 0.43732 0.1541 0.0
Co336 Co 0.10542 0.41715 0.12613 0.0
C337 C 0.09513 0.37876 0.09299 0.0
O338 O 0.10064 0.39594 0.07818 0.0
N339 N 0.0763 0.43069 0.1098 0.0
C340 C 0.03508 0.43299 0.09589 0.0
C341 C 0.0509 0.42136 0.11094 0.0
C342 C 0.07518 0.44813 0.09362 0.0
N343 N 0.05033 0.44974 0.08482 0.0
O344 O 0.13113 0.42728 0.10445 0.0
H345 H 0.04422 0.40615 0.12142 0.0
H346 H 0.09238 0.45857 0.08757 0.0
O347 O 0.09863 0.38431 0.11278 0.0
C348 C 0.13753 0.45048 0.10865 0.0
O349 O 0.12483 0.46211 0.12443 0.0
N350 N 0.08227 0.40993 0.14891 0.0
C351 C 0.07474 0.3998 0.19205 0.0
C352 C 0.06896 0.38087 0.17671 0.0
C353 C 0.07269 0.38643 0.15492 0.0
C354 C 0.08372 0.42949 0.1633 0.0
C355 C 0.08016 0.42481 0.18511 0.0
H356 H 0.07102 0.37108 0.14341 0.0
H357 H 0.09125 0.44796 0.15817 0.0
H358 H 0.12075 0.36391 0.14623 0.0
H359 H 0.17272 0.40778 0.18452 0.0
H360 H 0.01398 0.42905 0.09314 0.0
H361 H 0.06429 0.36142 0.18153 0.0
H362 H 0.08395 0.44009 0.19654 0.0
C363 C 0.35199 0.64028 0.14253 0.0
C364 C 0.34173 0.65471 0.15919 0.0
N365 N 0.35358 0.67801 0.15895 0.0
N366 N 0.3702 0.65429 0.13154 0.0
C367 C 0.3702 0.67736 0.14165 0.0
H368 H 0.34792 0.6202 0.13979 0.0
Co369 Co 0.39661 0.64142 0.11247 0.0
C370 C 0.40358 0.68144 0.08012 0.0
O371 O 0.39833 0.66468 0.06488 0.0
N372 N 0.42393 0.62901 0.09376 0.0
C373 C 0.46243 0.62874 0.07527 0.0
C374 C 0.44772 0.64119 0.09068 0.0
C375 C 0.42509 0.60869 0.08014 0.0
N376 N 0.4482 0.60832 0.06863 0.0
O377 O 0.36877 0.63158 0.09251 0.0
H378 H 0.45384 0.65865 0.09863 0.0
H379 H 0.4092 0.59475 0.0781 0.0
O380 O 0.40065 0.67498 0.09976 0.0
C381 C 0.3627 0.60821 0.09621 0.0
O382 O 0.3766 0.59569 0.11073 0.0
N383 N 0.42236 0.64857 0.13329 0.0
C384 C 0.43289 0.66013 0.17559 0.0
C385 C 0.43826 0.67834 0.15958 0.0
C386 C 0.43298 0.67204 0.13816 0.0
C387 C 0.42213 0.62941 0.14805 0.0
C388 C 0.42724 0.63483 0.16954 0.0
H389 H 0.43379 0.6871 0.12632 0.0
H390 H 0.41386 0.61091 0.14374 0.0
H391 H 0.38393 0.69267 0.13753 0.0
H392 H 0.32772 0.64786 0.17122 0.0
H393 H 0.48215 0.63425 0.06942 0.0
H394 H 0.44299 0.698 0.16374 0.0
H395 H 0.42354 0.62019 0.18154 0.0
C396 C 0.34623 0.39201 0.64402 0.0
C397 C 0.33725 0.37944 0.66213 0.0
N398 N 0.34257 0.35427 0.65993 0.0
N399 N 0.35709 0.37493 0.63027 0.0
C400 C 0.35397 0.35205 0.64023 0.0
H401 H 0.34726 0.41255 0.64209 0.0
Co402 Co 0.38095 0.3835 0.60789 0.0
C403 C 0.386 0.33573 0.58315 0.0
O404 O 0.3777 0.34733 0.56564 0.0
N405 N 0.40564 0.39205 0.58606 0.0
C406 C 0.44293 0.39148 0.56617 0.0
C407 C 0.42851 0.379 0.58179 0.0
C408 C 0.40709 0.41287 0.57319 0.0
N409 N 0.42949 0.41283 0.56088 0.0
O410 O 0.35129 0.38708 0.58861 0.0
H411 H 0.43496 0.36198 0.59017 0.0
H412 H 0.39259 0.42822 0.57321 0.0
O413 O 0.38591 0.3478 0.60098 0.0
C414 C 0.34436 0.41049 0.59027 0.0
O415 O 0.35821 0.42568 0.603 0.0
N416 N 0.40874 0.38286 0.62743 0.0
C417 C 0.43102 0.39147 0.66735 0.0
C418 C 0.42717 0.3663 0.65994 0.0
C419 C 0.41611 0.36235 0.63961 0.0
C420 C 0.41582 0.4071 0.63313 0.0
C421 C 0.42734 0.41185 0.65304 0.0
H422 H 0.4106 0.34313 0.63496 0.0
H423 H 0.40974 0.42305 0.6232 0.0
H424 H 0.36206 0.33436 0.63398 0.0
H425 H 0.32981 0.38856 0.67661 0.0
H426 H 0.46254 0.3861 0.56009 0.0
H427 H 0.42995 0.35002 0.67047 0.0
H428 H 0.43089 0.43149 0.65796 0.0
C429 C 0.13939 0.63 0.64862 0.0
C430 C 0.14333 0.64459 0.66679 0.0
N431 N 0.12729 0.66531 0.66571 0.0
N432 N 0.12111 0.64145 0.63592 0.0
C433 C 0.114 0.66286 0.64684 0.0
H434 H 0.14921 0.61205 0.64506 0.0
Co435 Co 0.10801 0.6287 0.60974 0.0
C436 C 0.12586 0.68197 0.59684 0.0
O437 O 0.14662 0.68406 0.60977 0.0
N438 N 0.09501 0.61598 0.58384 0.0
C439 C 0.09058 0.60709 0.54911 0.0
C440 C 0.10352 0.62231 0.56391 0.0
C441 C 0.07705 0.5969 0.58082 0.0
N442 N 0.07396 0.59113 0.55981 0.0
O443 O 0.14347 0.61842 0.60126 0.0
H444 H 0.1187 0.6366 0.56038 0.0
H445 H 0.06724 0.58674 0.59382 0.0
O446 O 0.11208 0.66143 0.59643 0.0
C447 C 0.14496 0.59415 0.60305 0.0
O448 O 0.12445 0.58165 0.61138 0.0
N449 N 0.07288 0.63677 0.61814 0.0
C450 C 0.02039 0.64339 0.63322 0.0
C451 C 0.03283 0.6621 0.62035 0.0
C452 C 0.05883 0.65823 0.61265 0.0
C453 C 0.06115 0.61821 0.63033 0.0
C454 C 0.03479 0.62086 0.63768 0.0
H455 H 0.06749 0.67293 0.60269 0.0
H456 H 0.07237 0.60111 0.63419 0.0
H457 H 0.0991 0.67625 0.64112 0.0
H458 H 0.15715 0.64024 0.67968 0.0
H459 H 0.09328 0.60768 0.53183 0.0
H460 H 0.02303 0.68003 0.61667 0.0
H461 H 0.02601 0.6054 0.64693 0.0
C462 C 0.8413 0.6348 0.84836 0.0
C463 C 0.82988 0.6503 0.83302 0.0
N464 N 0.84136 0.67376 0.83408 0.0
N465 N 0.86003 0.6482 0.85926 0.0
C466 C 0.85877 0.6721 0.85078 0.0
H467 H 0.83857 0.6143 0.84943 0.0
Co468 Co 0.89029 0.63326 0.87247 0.0
C469 C 0.90275 0.66778 0.90804 0.0
O470 O 0.89788 0.64917 0.92171 0.0
N471 N 0.92154 0.61853 0.88546 0.0
C472 C 0.9644 0.61284 0.89504 0.0
C473 C 0.94742 0.62472 0.88088 0.0
C474 C 0.92368 0.6026 0.90265 0.0
N475 N 0.94945 0.59898 0.90879 0.0
O476 O 0.86756 0.61981 0.89486 0.0
H477 H 0.95399 0.63781 0.86853 0.0
H478 H 0.90677 0.59498 0.9115 0.0
O479 O 0.89776 0.6645 0.8881 0.0
C480 C 0.8613 0.59678 0.89003 0.0
O481 O 0.87206 0.58638 0.87281 0.0
N482 N 0.91049 0.64424 0.84892 0.0
C483 C 0.91303 0.66329 0.80757 0.0
C484 C 0.9225 0.67812 0.8248 0.0
C485 C 0.92112 0.66811 0.84563 0.0
C486 C 0.90552 0.62829 0.83209 0.0
C487 C 0.90635 0.63755 0.81117 0.0
H488 H 0.9258 0.68048 0.859 0.0
H489 H 0.89728 0.60942 0.83509 0.0
H490 H 0.87258 0.68716 0.85527 0.0
H491 H 0.81638 0.64368 0.82056 0.0
H492 H 0.9861 0.61462 0.89536 0.0
H493 H 0.92844 0.6979 0.82249 0.0
H494 H 0.89988 0.62525 0.7981 0.0
C495 C 0.66419 0.38328 0.85779 0.0
C496 C 0.66944 0.36845 0.83999 0.0
N497 N 0.65005 0.35046 0.83828 0.0
N498 N 0.64172 0.37466 0.86761 0.0
C499 C 0.63331 0.35482 0.85513 0.0
H500 H 0.67608 0.39941 0.86316 0.0
Co501 Co 0.62694 0.38863 0.89297 0.0
C502 C 0.62126 0.33185 0.90456 0.0
O503 O 0.64449 0.32308 0.89773 0.0
N504 N 0.61201 0.40207 0.91838 0.0
C505 C 0.6001 0.40493 0.95278 0.0
C506 C 0.61474 0.39128 0.93797 0.0
C507 C 0.59599 0.42259 0.92177 0.0
N508 N 0.58822 0.42457 0.94256 0.0
O509 O 0.66135 0.38672 0.90695 0.0
H510 H 0.62643 0.37431 0.94125 0.0
H511 H 0.58956 0.4355 0.90924 0.0
O512 O 0.61566 0.35546 0.90262 0.0
C513 C 0.67002 0.4098 0.90681 0.0
O514 O 0.65529 0.42756 0.89769 0.0
N515 N 0.59458 0.3934 0.87898 0.0
C516 C 0.54832 0.40939 0.85798 0.0
C517 C 0.54923 0.38535 0.86808 0.0
C518 C 0.57255 0.37775 0.87869 0.0
C519 C 0.59427 0.41652 0.86897 0.0
C520 C 0.57121 0.42515 0.85876 0.0
H521 H 0.57269 0.35928 0.88638 0.0
H522 H 0.61194 0.42865 0.86952 0.0
H523 H 0.61551 0.34351 0.85853 0.0
H524 H 0.68614 0.37095 0.82897 0.0
H525 H 0.59841 0.40077 0.96979 0.0
H526 H 0.53236 0.37219 0.86742 0.0
H527 H 0.57144 0.44401 0.85155 0.0
C528 C 0.90344 0.12519 0.20261 0.0
C529 C 0.92201 0.143 0.19423 0.0
C530 C 0.90105 0.12162 0.22473 0.0
C531 C 0.92099 0.10372 0.26827 0.0
H532 H 0.93469 0.15861 0.30886 0.0
C533 C 0.00325 0.10264 0.32784 0.0
C534 C 0.00262 0.11778 0.34654 0.0
C535 C 0.98052 0.10023 0.31501 0.0
C536 C 0.92995 0.14295 0.29804 0.0
H537 H 0.9515 0.17204 0.20232 0.0
H538 H 0.94779 0.1655 0.2411 0.0
H539 H 0.91793 0.16872 0.27315 0.0
H540 H 0.97662 0.13963 0.3678 0.0
H541 H 0.93703 0.13633 0.34466 0.0
H542 H 0.93493 0.07813 0.29263 0.0
C543 C 0.93483 0.15449 0.23055 0.0
C544 C 0.92072 0.14882 0.27749 0.0
C545 C 0.93722 0.15806 0.20839 0.0
C546 C 0.97799 0.12848 0.35313 0.0
C547 C 0.95524 0.12634 0.34008 0.0
C548 C 0.93022 0.09786 0.28884 0.0
C549 C 0.91706 0.13592 0.2389 0.0
C550 C 0.91801 0.12941 0.262 0.0
C551 C 0.95672 0.11318 0.32041 0.0
C552 C 0.9367 0.11761 0.3033 0.0
H553 H 0.89072 0.11396 0.19203 0.0
H554 H 0.88705 0.10737 0.23074 0.0
H555 H 0.91889 0.08832 0.25669 0.0
H556 H 0.02181 0.09429 0.32204 0.0
H557 H 0.98249 0.09026 0.2998 0.0
C558 C 0.47437 0.86971 0.14652 0.0
C559 C 0.50091 0.86089 0.14602 0.0
C560 C 0.45715 0.86197 0.16309 0.0
C561 C 0.45496 0.82474 0.21482 0.0
H562 H 0.43387 0.89097 0.23729 0.0
C563 C 0.46135 0.85169 0.30456 0.0
C564 C 0.44311 0.86969 0.31273 0.0
C565 C 0.46067 0.84497 0.28275 0.0
C566 C 0.43893 0.8721 0.2313 0.0
H567 H 0.52981 0.83543 0.16054 0.0
H568 H 0.50034 0.82255 0.18985 0.0
H569 H 0.44331 0.88649 0.19955 0.0
H570 H 0.40851 0.89318 0.30514 0.0
H571 H 0.40721 0.88144 0.2674 0.0
H572 H 0.45194 0.81093 0.24722 0.0
C573 C 0.49223 0.8348 0.17743 0.0
C574 C 0.44424 0.86947 0.20945 0.0
C575 C 0.50924 0.84227 0.16072 0.0
C576 C 0.42353 0.88003 0.29905 0.0
C577 C 0.42263 0.87312 0.27746 0.0
C578 C 0.4496 0.8274 0.23682 0.0
C579 C 0.46665 0.84596 0.17962 0.0
C580 C 0.45349 0.84608 0.20108 0.0
C581 C 0.44144 0.85587 0.26893 0.0
C582 C 0.44259 0.85141 0.24538 0.0
H583 H 0.46772 0.88414 0.13523 0.0
H584 H 0.43732 0.87043 0.16408 0.0
H585 H 0.46168 0.80636 0.20879 0.0
H586 H 0.47632 0.84316 0.31493 0.0
H587 H 0.4757 0.83188 0.27662 0.0
C588 C 0.93586 0.83754 0.71462 0.0
C589 C 0.91706 0.85238 0.70358 0.0
C590 C 0.92981 0.8282 0.73512 0.0
C591 C 0.887 0.8471 0.7807 0.0
H592 H 0.93503 0.79893 0.80799 0.0
C593 C 0.95979 0.834 0.85888 0.0
C594 C 0.96971 0.85923 0.85724 0.0
C595 C 0.93841 0.82582 0.84594 0.0
C596 C 0.92065 0.81195 0.80091 0.0
H597 H 0.87626 0.86685 0.70397 0.0
H598 H 0.86511 0.84947 0.73915 0.0
H599 H 0.92484 0.79424 0.77007 0.0
H600 H 0.96277 0.89632 0.84249 0.0
H601 H 0.92601 0.88241 0.82046 0.0
H602 H 0.88321 0.86503 0.81145 0.0
C603 C 0.88502 0.84606 0.7327 0.0
C604 C 0.91523 0.80955 0.77897 0.0
C605 C 0.89139 0.85604 0.71253 0.0
C606 C 0.95575 0.87679 0.84438 0.0
C607 C 0.93437 0.86872 0.83165 0.0
C608 C 0.89184 0.84906 0.80272 0.0
C609 C 0.90455 0.83303 0.74474 0.0
C610 C 0.90067 0.82869 0.76823 0.0
C611 C 0.9265 0.8428 0.83128 0.0
C612 C 0.91101 0.83322 0.81249 0.0
H613 H 0.95568 0.83428 0.70789 0.0
H614 H 0.94565 0.81862 0.74385 0.0
H615 H 0.87509 0.86197 0.77331 0.0
H616 H 0.96958 0.82016 0.86915 0.0
H617 H 0.93248 0.80585 0.84633 0.0
C618 C 0.53241 0.11049 0.68683 0.0
C619 C 0.55732 0.10028 0.68046 0.0
C620 C 0.52354 0.10782 0.70806 0.0
C621 C 0.53167 0.07071 0.75745 0.0
H622 H 0.51146 0.13388 0.78604 0.0
C623 C 0.49718 0.11482 0.84512 0.0
C624 C 0.47364 0.10028 0.8483 0.0
C625 C 0.51293 0.11101 0.82679 0.0
C626 C 0.51749 0.11616 0.77835 0.0
H627 H 0.5922 0.07894 0.69156 0.0
H628 H 0.57613 0.07359 0.72807 0.0
H629 H 0.52457 0.13475 0.74821 0.0
H630 H 0.45003 0.06834 0.83597 0.0
H631 H 0.47787 0.06137 0.80454 0.0
H632 H 0.52385 0.05205 0.78756 0.0
C633 C 0.56352 0.08353 0.71663 0.0
C634 C 0.5245 0.11661 0.75666 0.0
C635 C 0.57257 0.08649 0.69559 0.0
C636 C 0.46809 0.07981 0.83422 0.0
C637 C 0.48401 0.07583 0.81607 0.0
C638 C 0.52428 0.0702 0.77913 0.0
C639 C 0.53927 0.09465 0.72315 0.0
C640 C 0.53141 0.09388 0.746 0.0
C641 C 0.50559 0.09234 0.8116 0.0
C642 C 0.517 0.09292 0.7897 0.0
H643 H 0.52004 0.12096 0.67557 0.0
H644 H 0.50458 0.11635 0.71277 0.0
H645 H 0.53703 0.05295 0.74951 0.0
H646 H 0.50234 0.13033 0.85596 0.0
H647 H 0.52982 0.1237 0.82378 0.0
C648 C 0.45316 0.65065 0.34481 0.0
C649 C 0.46637 0.66974 0.35678 0.0
C650 C 0.43247 0.65699 0.33086 0.0
C651 C 0.39403 0.67281 0.29749 0.0
H652 H 0.43009 0.72563 0.26445 0.0
C653 C 0.40167 0.6621 0.20664 0.0
C654 C 0.42675 0.6685 0.1977 0.0
C655 C 0.39467 0.6704 0.22717 0.0
C656 C 0.41988 0.71067 0.27338 0.0
H657 H 0.46485 0.70977 0.36626 0.0
H658 H 0.42904 0.72102 0.3412 0.0
H659 H 0.43536 0.72461 0.30312 0.0
H660 H 0.46389 0.68925 0.20272 0.0
H661 H 0.45274 0.70236 0.23928 0.0
H662 H 0.38177 0.65656 0.26782 0.0
C663 C 0.43517 0.70119 0.34238 0.0
C664 C 0.4223 0.71048 0.29574 0.0
C665 C 0.45584 0.69476 0.35661 0.0
C666 C 0.44454 0.6839 0.20943 0.0
C667 C 0.4378 0.69177 0.23026 0.0
C668 C 0.39238 0.67245 0.27511 0.0
C669 C 0.4246 0.68265 0.32828 0.0
C670 C 0.41144 0.69011 0.3078 0.0
C671 C 0.41278 0.68495 0.23953 0.0
C672 C 0.40716 0.69019 0.2627 0.0
H673 H 0.46049 0.63117 0.34433 0.0
H674 H 0.42505 0.64204 0.32032 0.0
H675 H 0.38442 0.6575 0.30644 0.0
H676 H 0.38722 0.65087 0.19759 0.0
H677 H 0.37502 0.66518 0.2333 0.0
C678 C 0.01285 0.42628 0.35373 0.0
C679 C 0.0037 0.40704 0.36773 0.0
C680 C 0.0365 0.42294 0.34204 0.0
C681 C 0.08485 0.41126 0.31532 0.0
H682 H 0.06876 0.34663 0.28727 0.0
C683 C 0.1018 0.40182 0.22563 0.0
C684 C 0.07865 0.39314 0.21489 0.0
C685 C 0.1052 0.39719 0.24752 0.0
C686 C 0.07377 0.36464 0.29498 0.0
H687 H 0.01451 0.3713 0.38321 0.0
H688 H 0.05568 0.36521 0.36232 0.0
H689 H 0.05413 0.35368 0.32409 0.0
H690 H 0.04174 0.37141 0.21813 0.0
H691 H 0.04674 0.36442 0.25669 0.0
H692 H 0.10167 0.42337 0.28548 0.0
C693 C 0.04427 0.38264 0.36014 0.0
C694 C 0.06579 0.36857 0.31627 0.0
C695 C 0.02063 0.38609 0.372 0.0
C696 C 0.05964 0.37846 0.22613 0.0
C697 C 0.06277 0.37421 0.24817 0.0
C698 C 0.09256 0.40745 0.29398 0.0
C699 C 0.05142 0.40022 0.34401 0.0
C700 C 0.06943 0.39265 0.32606 0.0
C701 C 0.08521 0.38422 0.25925 0.0
C702 C 0.08534 0.38476 0.28313 0.0
H703 H 0.00043 0.44266 0.34995 0.0
H704 H 0.04126 0.4369 0.32972 0.0
H705 H 0.08848 0.4298 0.32264 0.0
H706 H 0.11716 0.41259 0.21713 0.0
H707 H 0.12298 0.40465 0.25541 0.0
C708 C 0.49845 0.40901 0.85095 0.0
C709 C 0.52456 0.41703 0.84516 0.0
C710 C 0.47701 0.41231 0.83674 0.0
C711 C 0.45751 0.44166 0.78482 0.0
H712 H 0.43762 0.37231 0.76875 0.0
C713 C 0.45103 0.38148 0.70332 0.0
C714 C 0.43428 0.3967 0.69054 0.0
C715 C 0.45268 0.3859 0.72541 0.0
C716 C 0.44262 0.39183 0.7732 0.0
H717 H 0.54797 0.43667 0.82055 0.0
H718 H 0.5108 0.44296 0.7964 0.0
H719 H 0.45573 0.38066 0.80448 0.0
H720 H 0.40518 0.4277 0.69097 0.0
H721 H 0.40885 0.43584 0.72942 0.0
H722 H 0.4465 0.45242 0.75288 0.0
C723 C 0.50678 0.43421 0.81188 0.0
C724 C 0.4526 0.39669 0.79373 0.0
C725 C 0.52821 0.43051 0.82581 0.0
C726 C 0.41895 0.41616 0.7003 0.0
C727 C 0.42072 0.42065 0.72232 0.0
C728 C 0.44738 0.43682 0.76432 0.0
C729 C 0.4813 0.42413 0.81677 0.0
C730 C 0.4617 0.42135 0.79919 0.0
C731 C 0.43761 0.40559 0.73505 0.0
C732 C 0.44139 0.41161 0.758 0.0
H733 H 0.49478 0.39918 0.866 0.0
H734 H 0.45746 0.40445 0.84084 0.0
H735 H 0.46429 0.46085 0.78876 0.0
H736 H 0.46304 0.36638 0.69623 0.0
H737 H 0.4663 0.37434 0.73487 0.0
C738 C 0.88359 0.66957 0.77564 0.0
C739 C 0.90797 0.67469 0.78625 0.0
C740 C 0.88019 0.67648 0.75418 0.0
C741 C 0.91656 0.70471 0.70691 0.0
H742 H 0.9049 0.63663 0.68364 0.0
C743 C 0.98762 0.63801 0.66364 0.0
C744 C -0.0064 0.64826 0.64326 0.0
C745 C 0.96416 0.64482 0.67438 0.0
C746 C 0.90731 0.65606 0.68951 0.0
H747 H 0.94659 0.69367 0.78375 0.0
H748 H 0.9414 0.70469 0.74596 0.0
H749 H 0.88525 0.64792 0.71803 0.0
H750 H 0.97813 0.67263 0.61773 0.0
H751 H 0.93799 0.68603 0.63759 0.0
H752 H 0.94136 0.71148 0.67925 0.0
C753 C 0.92457 0.6958 0.75418 0.0
C754 C 0.89603 0.66266 0.70927 0.0
C755 C 0.92778 0.6892 0.77579 0.0
C756 C 0.97472 0.66481 0.63362 0.0
C757 C 0.95151 0.67226 0.64476 0.0
C758 C 0.92778 0.69809 0.68704 0.0
C759 C 0.90138 0.68812 0.74282 0.0
C760 C 0.90256 0.68623 0.71903 0.0
C761 C 0.94633 0.6625 0.66533 0.0
C762 C 0.92501 0.67301 0.67918 0.0
H763 H 0.8676 0.65912 0.78367 0.0
H764 H 0.86186 0.67086 0.74602 0.0
H765 H 0.92135 0.72323 0.71382 0.0
H766 H 0.00164 0.62579 0.67201 0.0
H767 H 0.96081 0.63748 0.69048 0.0
C768 C 0.13282 0.19307 0.29128 0.0
C769 C 0.13076 0.1988 0.31332 0.0
C770 C 0.13391 0.2126 0.2759 0.0
C771 C 0.12307 0.28318 0.26804 0.0
H772 H 0.16632 0.27113 0.21702 0.0
C773 C 0.15214 0.36333 0.20719 0.0
C774 C 0.14889 0.35763 0.18517 0.0
C775 C 0.14928 0.34424 0.22287 0.0
C776 C 0.15398 0.27473 0.23108 0.0
H777 H 0.12795 0.22969 0.33645 0.0
H778 H 0.1307 0.26395 0.30974 0.0
H779 H 0.16272 0.23799 0.24434 0.0
H780 H 0.14087 0.32696 0.16255 0.0
H781 H 0.13665 0.29349 0.18988 0.0
H782 H 0.1152 0.32041 0.25484 0.0
C783 C 0.13083 0.24429 0.30418 0.0
C784 C 0.15175 0.25563 0.24679 0.0
C785 C 0.12932 0.22465 0.31958 0.0
C786 C 0.14338 0.33211 0.1793 0.0
C787 C 0.14105 0.3129 0.19497 0.0
C788 C 0.12565 0.30245 0.25243 0.0
C789 C 0.13343 0.23858 0.28207 0.0
C790 C 0.13608 0.2594 0.26548 0.0
C791 C 0.14373 0.31878 0.21697 0.0
C792 C 0.14101 0.2984 0.23369 0.0
H793 H 0.13348 0.17336 0.28589 0.0
H794 H 0.13505 0.20719 0.25911 0.0
H795 H 0.1105 0.28686 0.28193 0.0
H796 H 0.15622 0.38269 0.21246 0.0
H797 H 0.15168 0.3494 0.23964 0.0
C798 C 0.34334 0.6913 0.19657 0.0
C799 C 0.35285 0.69735 0.17582 0.0
C800 C 0.34474 0.70913 0.21339 0.0
C801 C 0.37699 0.77204 0.2288 0.0
H802 H 0.32475 0.76871 0.27516 0.0
C803 C 0.35977 0.85358 0.29108 0.0
C804 C 0.35821 0.8466 0.31294 0.0
C805 C 0.36079 0.83494 0.27488 0.0
C806 C 0.33964 0.76974 0.26243 0.0
H807 H 0.37007 0.72795 0.15658 0.0
H808 H 0.37156 0.75923 0.18552 0.0
H809 H 0.32202 0.73823 0.24567 0.0
H810 H 0.35612 0.81421 0.33466 0.0
H811 H 0.35708 0.78164 0.30626 0.0
H812 H 0.39356 0.80461 0.24535 0.0
C813 C 0.36402 0.74024 0.18912 0.0
C814 C 0.33823 0.75211 0.24545 0.0
C815 C 0.36298 0.72223 0.17233 0.0
C816 C 0.35747 0.82035 0.31807 0.0
C817 C 0.35791 0.80167 0.3018 0.0
C818 C 0.37799 0.79004 0.24557 0.0
C819 C 0.35523 0.73391 0.21005 0.0
C820 C 0.35687 0.75289 0.22828 0.0
C821 C 0.35964 0.80878 0.28 0.0
C822 C 0.35932 0.78909 0.26258 0.0
H823 H 0.33582 0.67237 0.20027 0.0
H824 H 0.33831 0.70299 0.2292 0.0
H825 H 0.39219 0.77314 0.21634 0.0
H826 H 0.36069 0.87351 0.28642 0.0
H827 H 0.36199 0.84105 0.25825 0.0
C828 C 0.59373 0.68248 0.28405 0.0
C829 C 0.60228 0.68624 0.30543 0.0
C830 C 0.59575 0.70212 0.26887 0.0
C831 C 0.60133 0.77242 0.26376 0.0
H832 H 0.62408 0.75659 0.20552 0.0
C833 C 0.62525 0.8514 0.20157 0.0
C834 C 0.61812 0.84733 0.17992 0.0
C835 C 0.62266 0.83185 0.21676 0.0
C836 C 0.61732 0.76132 0.22162 0.0
H837 H 0.61995 0.71401 0.32729 0.0
H838 H 0.62332 0.7483 0.30078 0.0
H839 H 0.62169 0.72258 0.23229 0.0
H840 H 0.60231 0.81923 0.15749 0.0
H841 H 0.5972 0.78524 0.18412 0.0
H842 H 0.59684 0.81112 0.25309 0.0
C843 C 0.61482 0.73008 0.2959 0.0
C844 C 0.61602 0.7418 0.237 0.0
C845 C 0.6129 0.71036 0.31112 0.0
C846 C 0.60788 0.82318 0.17398 0.0
C847 C 0.60524 0.80356 0.18924 0.0
C848 C 0.60256 0.79193 0.24836 0.0
C849 C 0.60627 0.72618 0.27457 0.0
C850 C 0.60803 0.74709 0.25828 0.0
C851 C 0.61272 0.80762 0.21082 0.0
C852 C 0.61064 0.78666 0.22708 0.0
H853 H 0.58489 0.66452 0.27899 0.0
H854 H 0.5885 0.69856 0.25272 0.0
H855 H 0.59466 0.77712 0.27988 0.0
H856 H 0.63279 0.86979 0.20691 0.0
H857 H 0.62891 0.83565 0.23313 0.0
C858 C 0.89174 0.34386 0.29009 0.0
C859 C 0.87378 0.34796 0.30723 0.0
C860 C 0.88716 0.3244 0.27513 0.0
C861 C 0.84848 0.26458 0.26515 0.0
H862 H 0.86617 0.28027 0.20581 0.0
C863 C 0.85129 0.18683 0.19861 0.0
C864 C 0.84361 0.19365 0.17762 0.0
C865 C 0.8532 0.20536 0.21481 0.0
C866 C 0.86074 0.27558 0.22222 0.0
H867 H 0.83731 0.33425 0.3225 0.0
H868 H 0.82894 0.30024 0.29607 0.0
H869 H 0.8723 0.31274 0.2333 0.0
H870 H 0.83154 0.22509 0.15727 0.0
H871 H 0.834 0.25745 0.18564 0.0
H872 H 0.83619 0.22757 0.25386 0.0
C873 C 0.84677 0.31203 0.29434 0.0
C874 C 0.86469 0.29414 0.23812 0.0
C875 C 0.85151 0.3315 0.30948 0.0
C876 C 0.83752 0.21935 0.17329 0.0
C877 C 0.83913 0.23787 0.18954 0.0
C878 C 0.84435 0.24601 0.24918 0.0
C879 C 0.86435 0.30852 0.27675 0.0
C880 C 0.85893 0.28884 0.25984 0.0
C881 C 0.84729 0.23119 0.21049 0.0
C882 C 0.85062 0.25119 0.2275 0.0
H883 H 0.90946 0.35576 0.28821 0.0
H884 H 0.90161 0.32184 0.26224 0.0
H885 H 0.84396 0.25974 0.28171 0.0
H886 H 0.85678 0.16729 0.20234 0.0
H887 H 0.8601 0.19952 0.23056 0.0
C888 C 0.82112 0.69236 0.80099 0.0
C889 C 0.84055 0.69339 0.81745 0.0
C890 C 0.82213 0.70927 0.78353 0.0
C891 C 0.86819 0.7546 0.75462 0.0
H892 H 0.80158 0.77638 0.72819 0.0
C893 C 0.86711 0.81407 0.67553 0.0
C894 C 0.84732 0.83321 0.67339 0.0
C895 C 0.86631 0.79661 0.69268 0.0
C896 C 0.82045 0.77081 0.73544 0.0
H897 H 0.87579 0.71459 0.82832 0.0
H898 H 0.87684 0.74437 0.79851 0.0
H899 H 0.80013 0.7487 0.7594 0.0
H900 H 0.81043 0.84771 0.68759 0.0
H901 H 0.8096 0.81822 0.71752 0.0
H902 H 0.88844 0.7777 0.73111 0.0
C903 C 0.86125 0.72984 0.79878 0.0
C904 C 0.81962 0.75447 0.75326 0.0
C905 C 0.86038 0.71277 0.8162 0.0
C906 C 0.8263 0.83368 0.68863 0.0
C907 C 0.82564 0.8164 0.70582 0.0
C908 C 0.86901 0.77121 0.73688 0.0
C909 C 0.84231 0.72818 0.78204 0.0
C910 C 0.84344 0.74601 0.76313 0.0
C911 C 0.84572 0.79768 0.70825 0.0
C912 C 0.84512 0.7796 0.72701 0.0
H913 H 0.80524 0.67818 0.80124 0.0
H914 H 0.80732 0.70703 0.77093 0.0
H915 H 0.88703 0.74832 0.7615 0.0
H916 H 0.88378 0.81285 0.66441 0.0
H917 H 0.88197 0.78231 0.69372 0.0
C918 C 0.62352 0.32126 0.81464 0.0
C919 C 0.64845 0.33064 0.82199 0.0
C920 C 0.62235 0.30291 0.79806 0.0
C921 C 0.66354 0.25321 0.7709 0.0
H922 H 0.61462 0.2616 0.72299 0.0
C923 C 0.67618 0.19334 0.6937 0.0
C924 C 0.65325 0.18506 0.68241 0.0
C925 C 0.67406 0.21081 0.71071 0.0
C926 C 0.62817 0.25868 0.73637 0.0
H927 H 0.69163 0.32736 0.81809 0.0
H928 H 0.68964 0.2956 0.78947 0.0
H929 H 0.61321 0.29176 0.75311 0.0
H930 H 0.60999 0.18906 0.68018 0.0
H931 H 0.60614 0.21932 0.71014 0.0
H932 H 0.67841 0.22014 0.75453 0.0
C933 C 0.67095 0.30238 0.79637 0.0
C934 C 0.62736 0.27605 0.75366 0.0
C935 C 0.67209 0.32083 0.81268 0.0
C936 C 0.62809 0.19516 0.68839 0.0
C937 C 0.62592 0.21256 0.70561 0.0
C938 C 0.66422 0.23579 0.75377 0.0
C939 C 0.6461 0.29322 0.78872 0.0
C940 C 0.64535 0.27377 0.771 0.0
C941 C 0.64888 0.22046 0.71719 0.0
C942 C 0.64688 0.23845 0.73602 0.0
H943 H 0.60494 0.32851 0.82138 0.0
H944 H 0.60287 0.29616 0.79266 0.0
H945 H 0.67735 0.25053 0.78416 0.0
H946 H 0.69593 0.18643 0.68928 0.0
H947 H 0.69235 0.21687 0.71868 0.0
C948 C 0.35947 0.31409 0.67637 0.0
C949 C 0.34194 0.33522 0.67686 0.0
C950 C 0.36011 0.29662 0.69339 0.0
C951 C 0.3445 0.28975 0.75117 0.0
H952 H 0.35016 0.21725 0.7386 0.0
C953 C 0.34307 0.21026 0.81744 0.0
C954 C 0.35987 0.18907 0.81387 0.0
C955 C 0.34003 0.22907 0.80148 0.0
C956 C 0.34891 0.23744 0.74245 0.0
H957 H 0.31104 0.35405 0.69576 0.0
H958 H 0.31236 0.32362 0.72554 0.0
H959 H 0.34605 0.24765 0.70922 0.0
H960 H 0.38812 0.17202 0.79151 0.0
H961 H 0.38327 0.20467 0.76408 0.0
H962 H 0.34776 0.27946 0.78447 0.0
C963 C 0.32574 0.32078 0.71197 0.0
C964 C 0.34649 0.25489 0.72556 0.0
C965 C 0.32495 0.3382 0.69485 0.0
C966 C 0.37448 0.18773 0.79453 0.0
C967 C 0.3716 0.20646 0.77874 0.0
C968 C 0.34707 0.27225 0.76814 0.0
C969 C 0.34337 0.2998 0.71146 0.0
C970 C 0.34456 0.28128 0.72965 0.0
C971 C 0.35388 0.22708 0.78173 0.0
C972 C 0.34968 0.24588 0.76397 0.0
H973 H 0.37336 0.3113 0.66317 0.0
H974 H 0.37425 0.28091 0.69261 0.0
H975 H 0.34326 0.30999 0.75487 0.0
H976 H 0.33155 0.21176 0.83219 0.0
H977 H 0.32618 0.24467 0.80434 0.0
C978 C 0.11471 0.70975 0.67586 0.0
C979 C 0.12483 0.68555 0.68154 0.0
C980 C 0.11272 0.72934 0.6912 0.0
C981 C 0.11164 0.74085 0.75035 0.0
H982 H 0.12832 0.81067 0.73376 0.0
C983 C 0.11899 0.82399 0.81231 0.0
C984 C 0.10684 0.84727 0.80639 0.0
C985 C 0.12198 0.80411 0.79732 0.0
C986 C 0.12339 0.7913 0.73863 0.0
H987 H 0.1403 0.6631 0.70813 0.0
H988 H 0.13764 0.69728 0.73449 0.0
H989 H 0.13141 0.77651 0.70715 0.0
H990 H 0.08791 0.86726 0.77978 0.0
H991 H 0.09342 0.83302 0.75393 0.0
H992 H 0.10376 0.75573 0.78188 0.0
C993 C 0.13087 0.70108 0.71827 0.0
C994 C 0.12508 0.77169 0.72333 0.0
C995 C 0.13275 0.68149 0.70299 0.0
C996 C 0.09791 0.85003 0.78503 0.0
C997 C 0.10101 0.83026 0.77008 0.0
C998 C 0.11007 0.76047 0.76568 0.0
C999 C 0.12086 0.72529 0.71261 0.0
C1000 C 0.11911 0.7462 0.72895 0.0
C1001 C 0.11303 0.80704 0.77601 0.0
C1002 C 0.11577 0.78596 0.75997 0.0
H1003 H 0.10863 0.71376 0.65952 0.0
H1004 H 0.10459 0.74763 0.68628 0.0
H1005 H 0.1065 0.72154 0.75522 0.0
H1006 H 0.12638 0.82112 0.82848 0.0
H1007 H 0.13158 0.78652 0.80236 0.0
C1008 C 0.04774 0.09651 0.46777 0.0
C1009 C 0.06407 0.0894 0.4503 0.0
C1010 C 0.03372 0.07803 0.47954 0.0
C1011 C 0.03732 1.01122 0.49537 0.0
H1012 H 0.96332 0.0207 0.51355 0.0
C1013 C 0.98415 0.9362 0.54832 0.0
C1014 C 0.96677 0.94507 0.56451 0.0
C1015 C -0.00609 0.95285 0.53255 0.0
C1016 C 0.98409 0.01788 0.50886 0.0
H1017 H 0.07825 0.05746 0.4312 0.0
H1018 H 0.05393 0.02487 0.45207 0.0
H1019 H 0.98413 0.05148 0.48907 0.0
H1020 H 0.94551 0.97814 0.5767 0.0
H1021 H 0.96329 1.00762 0.54966 0.0
H1022 H 0.03792 0.97838 0.51575 0.0
C1023 C 0.05195 0.04483 0.45655 0.0
C1024 C -0.00407 0.03544 0.49471 0.0
C1025 C 0.06571 0.06343 0.44454 0.0
C1026 C 0.95884 0.97084 0.56435 0.0
C1027 C 0.96895 0.98765 0.54875 0.0
C1028 C 0.02563 0.99385 0.50973 0.0
C1029 C 0.03597 0.05197 0.47426 0.0
C1030 C 0.02271 0.03237 0.48795 0.0
C1031 C 0.98687 0.97892 0.53275 0.0
C1032 C -0.00111 0.997 0.51679 0.0
H1033 H 0.04588 0.11643 0.47238 0.0
H1034 H 0.02173 0.08407 0.4932 0.0
H1035 H 0.05814 1.0086 0.49068 0.0
H1036 H 0.99008 0.91628 0.54777 0.0
H1037 H 0.00701 0.94519 0.52019 0.0
C1038 C 0.4656 0.95219 0.43984 0.0
C1039 C 0.44148 0.94363 0.44932 0.0
C1040 C 0.48318 0.96831 0.45125 0.0
C1041 C 0.50053 0.98688 0.50696 0.0
H1042 H 0.53543 0.04532 0.48038 0.0
C1043 C 0.55937 0.06266 0.55649 0.0
C1044 C 0.58233 0.07365 0.547 0.0
C1045 C 0.54275 0.04619 0.54459 0.0
C1046 C 0.52616 0.02886 0.48801 0.0
H1047 H 0.41626 0.9468 0.47779 0.0
H1048 H 0.44677 0.9744 0.49752 0.0
H1049 H 0.50567 0.01817 0.45902 0.0
H1050 H 0.60666 0.07489 0.51805 0.0
H1051 H 0.57816 0.04592 0.49751 0.0
H1052 H 0.52108 0.99735 0.53589 0.0
C1053 C 0.4525 0.9682 0.48152 0.0
C1054 C 0.50906 1.01333 0.47573 0.0
C1055 C 0.43499 0.95227 0.47015 0.0
C1056 C 0.58882 0.06711 0.52567 0.0
C1057 C 0.57239 0.05057 0.51386 0.0
C1058 C 0.51773 1.00231 0.5192 0.0
C1059 C 0.47698 0.97613 0.47237 0.0
C1060 C 0.49591 0.99225 0.4851 0.0
C1061 C 0.54888 0.0402 0.52301 0.0
C1062 C 0.53071 0.02357 0.50993 0.0
H1063 H 0.47125 0.94589 0.42386 0.0
H1064 H 0.50194 0.97408 0.44376 0.0
H1065 H 0.49103 0.97054 0.51459 0.0
H1066 H 0.55374 0.06754 0.57282 0.0
H1067 H 0.52468 0.03878 0.55213 0.0
C1068 C 0.4082 0.09069 0.98133 0.0
C1069 C 0.4147 0.09973 0.96067 0.0
C1070 C 0.42764 0.07882 0.99404 0.0
C1071 C 0.4892 0.04165 0.98696 0.0
H1072 H 0.49279 0.04455 0.04924 0.0
C1073 C 0.56475 0.98035 0.03307 0.0
C1074 C 0.55517 0.96751 0.05141 0.0
C1075 C 0.54966 0.99968 0.02356 0.0
C1076 C 0.49189 0.04343 0.03186 0.0
H1077 H 0.44721 0.10485 0.93771 0.0
H1078 H 0.48126 0.08466 0.96005 0.0
H1079 H 0.46329 0.07398 0.02992 0.0
H1080 H 0.5227 0.96543 0.07462 0.0
H1081 H 0.49587 0.99906 0.05775 0.0
H1082 H 0.51709 1.01077 0.98876 0.0
C1083 C 0.46097 0.08635 0.96628 0.0
C1084 C 0.47507 0.06032 0.0208 0.0
C1085 C 0.44151 0.09821 0.95357 0.0
C1086 C 0.53056 0.97507 0.06052 0.0
C1087 C 0.51529 0.99437 0.05089 0.0
C1088 C 0.50591 0.02479 0.99797 0.0
C1089 C 0.45403 0.07576 0.98635 0.0
C1090 C 0.47342 0.05949 0.99822 0.0
C1091 C 0.52447 1.00656 0.03205 0.0
C1092 C 0.50737 0.02535 0.02055 0.0
H1093 H 0.38779 0.09191 0.98735 0.0
H1094 H 0.42158 0.07082 0.00938 0.0
H1095 H 0.48795 0.04005 0.96961 0.0
H1096 H 0.58397 0.97539 0.02602 0.0
H1097 H 0.55764 1.00911 0.00939 0.0
C1098 C 0.94323 0.07569 0.05542 0.0
C1099 C 0.94552 0.10145 0.04926 0.0
C1100 C 0.95596 0.05657 0.04348 0.0
C1101 C 0.01053 0.04741 0.00337 0.0
H1102 H 0.97738 0.98052 0.99679 0.0
C1103 C 0.0474 0.96922 0.94408 0.0
C1104 C 0.04854 0.94406 0.95215 0.0
C1105 C 0.03637 0.98891 0.95647 0.0
C1106 C 0.98694 0.99906 0.99868 0.0
H1107 H 0.96192 0.12744 0.02548 0.0
H1108 H 0.98342 0.09404 0.00412 0.0
H1109 H 0.95373 1.0139 0.01655 0.0
H1110 H 0.04055 0.92043 0.98019 0.0
H1111 H 0.02074 0.95468 0.0015 0.0
H1112 H 0.04343 0.03253 0.98489 0.0
C1113 C 0.97257 0.08859 0.01854 0.0
C1114 C 0.97346 0.01818 0.01004 0.0
C1115 C 0.96015 0.10771 0.03065 0.0
C1116 C 0.0394 0.93937 0.97322 0.0
C1117 C 0.02812 0.95898 0.98548 0.0
C1118 C 0.02385 0.02836 0.99176 0.0
C1119 C 0.97094 0.06281 0.02496 0.0
C1120 C 0.98512 0.04257 0.01259 0.0
C1121 C 0.02609 0.9838 0.97707 0.0
C1122 C 0.01221 1.00401 0.98942 0.0
H1123 H 0.93241 0.07042 0.06989 0.0
H1124 H 0.95462 0.037 0.04912 0.0
H1125 H 0.02035 0.0658 0.00535 0.0
H1126 H 0.05397 0.97365 0.92792 0.0
H1127 H 0.03491 1.00792 0.94961 0.0
C1128 C 0.53475 0.59574 0.47289 0.0
C1129 C 0.54534 0.59076 0.4523 0.0
C1130 C 0.52276 0.57622 0.48487 0.0
C1131 C 0.51862 0.50685 0.49158 0.0
H1132 H 0.44697 0.52054 0.51355 0.0
C1133 C 0.45442 0.42683 0.52878 0.0
C1134 C 0.43934 0.43289 0.54718 0.0
C1135 C 0.46651 0.44614 0.51664 0.0
C1136 C 0.46709 0.51649 0.50779 0.0
H1137 H 0.55259 0.56078 0.42868 0.0
H1138 H 0.53234 0.52669 0.44992 0.0
H1139 H 0.47156 0.55408 0.49452 0.0
H1140 H 0.4246 0.46379 0.5672 0.0
H1141 H 0.44624 0.49764 0.54635 0.0
H1142 H 0.51459 0.46952 0.5052 0.0
C1143 C 0.53321 0.54584 0.45662 0.0
C1144 C 0.48112 0.53569 0.49687 0.0
C1145 C 0.54494 0.56543 0.4445 0.0
C1146 C 0.43586 0.45867 0.55291 0.0
C1147 C 0.44827 0.47802 0.54094 0.0
C1148 C 0.50474 0.48774 0.50272 0.0
C1149 C 0.52147 0.55121 0.47667 0.0
C1150 C 0.50697 0.531 0.48864 0.0
C1151 C 0.4641 0.47194 0.52284 0.0
C1152 C 0.47875 0.49229 0.51089 0.0
H1153 H 0.53524 0.61485 0.47962 0.0
H1154 H 0.51425 0.58072 0.50048 0.0
H1155 H 0.53864 0.50287 0.48552 0.0
H1156 H 0.45707 0.40707 0.52395 0.0
H1157 H 0.47796 0.4408 0.5025 0.0
C1158 C 0.06451 0.55921 0.53151 0.0
C1159 C 0.05704 0.57152 0.55071 0.0
C1160 C 0.04777 0.54072 0.5223 0.0
C1161 C 0.97719 0.52131 0.51963 0.0
H1162 H 0.00587 0.45954 0.49367 0.0
C1163 C 0.90761 0.45085 0.47581 0.0
C1164 C 0.91679 0.44233 0.45567 0.0
C1165 C 0.92522 0.46279 0.49016 0.0
C1166 C -0.00243 0.47675 0.50075 0.0
H1167 H 0.02634 0.57399 0.57543 0.0
H1168 H -0.00299 0.54158 0.55931 0.0
H1169 H 0.03575 0.48826 0.5135 0.0
H1170 H 0.95185 0.43864 0.43511 0.0
H1171 H 0.98254 0.4597 0.45997 0.0
H1172 H 0.93926 0.51044 0.50635 0.0
C1173 C 0.01581 0.54631 0.55139 0.0
C1174 C 0.01467 0.49317 0.51212 0.0
C1175 C 0.03267 0.5647 0.5607 0.0
C1176 C 0.94425 0.4447 0.45063 0.0
C1177 C 0.96184 0.45682 0.46491 0.0
C1178 C 0.96013 0.50499 0.50819 0.0
C1179 C 0.02314 0.53424 0.53203 0.0
C1180 C 0.00471 0.51578 0.52143 0.0
C1181 C 0.95237 0.46666 0.4846 0.0
C1182 C 0.97016 0.48266 0.49838 0.0
H1183 H 0.08333 0.56383 0.52362 0.0
H1184 H 0.05384 0.53194 0.50726 0.0
H1185 H 0.96901 0.53878 0.52637 0.0
H1186 H 0.8866 0.44896 0.48017 0.0
H1187 H 0.91738 0.46962 0.50539 0.0
C1188 C 0.01989 0.45658 0.05397 0.0
C1189 C 0.04173 0.46481 0.06662 0.0
C1190 C 0.0104 0.47158 0.03707 0.0
C1191 C 0.02888 0.52375 0.99999 0.0
H1192 H 0.95159 0.53054 0.99382 0.0
C1193 C 0.98233 0.59282 0.93807 0.0
C1194 C 0.95909 0.58478 0.92709 0.0
C1195 C 0.99226 0.57875 0.95541 0.0
C1196 C 0.97321 0.52861 0.9951 0.0
H1197 H 0.07115 0.4951 0.07091 0.0
H1198 H 0.05461 0.52138 0.04116 0.0
H1199 H 0.96977 0.50509 0.02315 0.0
H1200 H 0.92795 0.55574 0.92579 0.0
H1201 H 0.9455 0.53079 0.95584 0.0
H1202 H 0.03237 0.54695 0.97178 0.0
C1203 C 0.04488 0.5032 0.04443 0.0
C1204 C 0.98365 0.51405 0.01198 0.0
C1205 C 0.05438 0.48815 0.06146 0.0
C1206 C 0.94577 0.5625 0.93405 0.0
C1207 C 0.95584 0.54826 0.95131 0.0
C1208 C 0.01844 0.53821 0.98302 0.0
C1209 C 0.02253 0.49521 0.03223 0.0
C1210 C 0.0116 0.51135 0.01459 0.0
C1211 C 0.97933 0.55613 0.96216 0.0
C1212 C 0.99045 0.54081 0.98032 0.0
H1213 H 0.01008 0.43842 0.05704 0.0
H1214 H -0.00641 0.46454 0.02768 0.0
H1215 H 0.05049 0.5218 0.00138 0.0
H1216 H -0.00727 0.61019 0.93339 0.0
H1217 H 0.00999 0.58579 0.96364 0.0
C1218 C 0.56948 0.46839 0.9442 0.0
C1219 C 0.57037 0.44317 0.952 0.0
C1220 C 0.55322 0.4867 0.95427 0.0
C1221 C 0.49523 0.49438 0.99117 0.0
H1222 H 0.52933 0.55894 0.00576 0.0
C1223 C 0.45168 0.56393 0.05505 0.0
C1224 C 0.45654 0.59023 0.05248 0.0
C1225 C 0.46287 0.54624 0.04064 0.0
C1226 C 0.5192 0.54127 0.00149 0.0
H1227 H 0.55397 0.41706 0.97577 0.0
H1228 H 0.52577 0.44893 0.99338 0.0
H1229 H 0.55351 0.52794 0.98396 0.0
H1230 H 0.47503 0.61887 0.03204 0.0
H1231 H 0.49374 0.5883 0.00652 0.0
H1232 H 0.4609 0.50767 0.00875 0.0
C1233 C 0.53761 0.45462 0.97952 0.0
C1234 C 0.53316 0.52345 0.989 0.0
C1235 C 0.55402 0.43644 0.9696 0.0
C1236 C 0.47146 0.59863 0.03461 0.0
C1237 C 0.48229 0.58107 0.02007 0.0
C1238 C 0.48113 0.51232 0.00353 0.0
C1239 C 0.53729 0.48004 0.97217 0.0
C1240 C 0.52148 0.49969 0.98392 0.0
C1241 C 0.47883 0.55459 0.02321 0.0
C1242 C 0.49304 0.53591 0.00905 0.0
H1243 H 0.58191 0.47414 0.93071 0.0
H1244 H 0.55323 0.50612 0.94815 0.0
H1245 H 0.48561 0.47631 0.98732 0.0
H1246 H 0.44035 0.557 0.06877 0.0
H1247 H 0.45993 0.52602 0.04372 0.0
C1248 C 0.17899 0.09609 0.42383 0.0
C1249 C 0.1806 0.11165 0.40549 0.0
C1250 C 0.1992 0.07834 0.42827 0.0
C1251 C 0.2675 0.05636 0.41252 0.0
H1252 H 0.23801 0.98872 0.42377 0.0
C1253 C 0.30296 0.94563 0.39998 0.0
C1254 C 0.32988 0.94871 0.40619 0.0
C1255 C 0.28425 0.96508 0.4043 0.0
C1256 C 0.24655 1.00746 0.42064 0.0
H1257 H 0.20488 0.12185 0.37791 0.0
H1258 H 0.24063 0.09126 0.38579 0.0
H1259 H 0.20827 0.02583 0.42336 0.0
H1260 H 0.35803 0.97297 0.4233 0.0
H1261 H 0.32542 1.00623 0.43157 0.0
H1262 H 0.30554 0.03797 0.40884 0.0
C1263 C 0.22398 0.09289 0.39698 0.0
C1264 C 0.22959 0.02881 0.42067 0.0
C1265 C 0.20368 0.11064 0.39254 0.0
C1266 C 0.33736 0.97033 0.41821 0.0
C1267 C 0.31874 0.98947 0.42275 0.0
C1268 C 0.28444 0.03507 0.41253 0.0
C1269 C 0.22131 0.0757 0.41432 0.0
C1270 C 0.23983 0.05349 0.41637 0.0
C1271 C 0.29228 0.98769 0.41502 0.0
C1272 C 0.27417 1.01031 0.4164 0.0
H1273 H 0.16097 0.0961 0.4337 0.0
H1274 H 0.19674 0.06569 0.44193 0.0
H1275 H 0.27605 0.07506 0.40921 0.0
H1276 H 0.29686 0.9292 0.39048 0.0
H1277 H 0.26402 0.9631 0.39807 0.0
C1278 C 0.79907 0.11362 0.08534 0.0
C1279 C 0.82532 0.10666 0.07956 0.0
C1280 C 0.77769 0.09653 0.08187 0.0
C1281 C 0.76841 0.0267 0.07906 0.0
H1282 H 0.69338 0.04413 0.07138 0.0
C1283 C 0.68212 0.95172 0.08754 0.0
C1284 C 0.65998 0.96017 0.09969 0.0
C1285 C 0.70212 0.96915 0.08104 0.0
C1286 C 0.71428 0.03896 0.07357 0.0
H1287 H 0.84976 0.07779 0.06408 0.0
H1288 H 0.81244 0.04856 0.05704 0.0
H1289 H 0.72794 0.07674 0.06553 0.0
H1290 H 0.64165 0.99345 0.1147 0.0
H1291 H 0.67628 0.02335 0.10367 0.0
H1292 H 0.75471 0.98917 0.08772 0.0
C1293 C 0.80826 0.06672 0.06477 0.0
C1294 C 0.73406 0.05766 0.07021 0.0
C1295 C 0.82956 0.08361 0.06848 0.0
C1296 C 0.65835 0.98622 0.10528 0.0
C1297 C 0.67811 1.00351 0.09876 0.0
C1298 C 0.74863 1.00802 0.08238 0.0
C1299 C 0.78234 0.07233 0.0725 0.0
C1300 C 0.76136 0.0519 0.07332 0.0
C1301 C 0.70016 0.9953 0.08646 0.0
C1302 C 0.7213 1.01409 0.08018 0.0
H1303 H 0.79549 0.13105 0.09438 0.0
H1304 H 0.75803 0.10145 0.08814 0.0
H1305 H 0.78917 0.02163 0.08201 0.0
H1306 H 0.68388 0.93179 0.08293 0.0
H1307 H 0.7189 0.96225 0.07155 0.0
C1308 C 0.70203 0.09099 0.56579 0.0
C1309 C 0.70296 0.10481 0.58515 0.0
C1310 C 0.72306 0.07454 0.5601 0.0
C1311 C 0.7546 0.02528 0.56483 0.0
H1312 H 0.8293 0.03367 0.58103 0.0
C1313 C 0.82291 0.94138 0.59032 0.0
C1314 C 0.85076 0.94371 0.58724 0.0
C1315 C 0.80565 0.96102 0.58372 0.0
C1316 C 0.80864 0.03098 0.576 0.0
H1317 H 0.72697 0.11349 0.61317 0.0
H1318 H 0.76391 0.08524 0.60322 0.0
H1319 H 0.79993 0.0708 0.58032 0.0
H1320 H 0.88239 0.9675 0.57395 0.0
H1321 H 0.85236 1.00116 0.56155 0.0
H1322 H 0.76324 0.98537 0.56081 0.0
C1323 C 0.74727 0.08723 0.59215 0.0
C1324 C 0.79171 0.05232 0.57584 0.0
C1325 C 0.72622 0.10368 0.5978 0.0
C1326 C 0.86092 0.96504 0.57616 0.0
C1327 C 0.84372 0.98453 0.56938 0.0
C1328 C 0.77156 1.00393 0.56495 0.0
C1329 C 0.7453 0.07145 0.57381 0.0
C1330 C 0.76431 0.04968 0.57075 0.0
C1331 C 0.81602 0.98336 0.57397 0.0
C1332 C 0.79868 1.00639 0.571 0.0
H1333 H 0.68392 0.09103 0.55611 0.0
H1334 H 0.72106 0.06301 0.54569 0.0
H1335 H 0.73355 0.02237 0.56109 0.0
H1336 H 0.81474 0.92543 0.59939 0.0
H1337 H 0.7845 0.9595 0.58774 0.0
C1338 C 0.28164 0.10638 0.90894 0.0
C1339 C 0.29002 0.11546 0.88873 0.0
C1340 C 0.26052 0.08855 0.91042 0.0
C1341 C 0.23333 0.03843 0.87506 0.0
H1342 H 0.18199 0.02513 0.92076 0.0
C1343 C 0.14774 0.96611 0.8663 0.0
C1344 C 0.14139 0.94992 0.88355 0.0
C1345 C 0.16693 0.98539 0.86861 0.0
C1346 C 0.19655 0.02847 0.90807 0.0
H1347 H 0.28059 0.11627 0.85482 0.0
H1348 H 0.24266 0.08686 0.85751 0.0
H1349 H 0.20972 0.06415 0.92186 0.0
H1350 H 0.15008 0.94083 0.91677 0.0
H1351 H 0.18393 0.97515 0.92101 0.0
H1352 H 0.22015 1.00312 0.86113 0.0
C1353 C 0.25311 0.09228 0.8721 0.0
C1354 C 0.21228 0.05086 0.90862 0.0
C1355 C 0.27445 0.1096 0.8706 0.0
C1356 C 0.15507 0.95287 0.90314 0.0
C1357 C 0.17409 0.97263 0.90562 0.0
C1358 C 0.21767 1.01626 0.87449 0.0
C1359 C 0.24728 0.08003 0.89172 0.0
C1360 C 0.23045 0.05635 0.89184 0.0
C1361 C 0.17995 0.98925 0.88839 0.0
C1362 C 0.19877 1.01122 0.89075 0.0
H1363 H 0.29324 0.11068 0.92322 0.0
H1364 H 0.25633 0.07975 0.92584 0.0
H1365 H 0.24782 0.04147 0.86227 0.0
H1366 H 0.13723 0.9643 0.85111 0.0
H1367 H 0.17078 0.998 0.85511 0.0
C1368 C 0.79796 0.45387 0.35326 0.0
C1369 C 0.8076 0.43874 0.37021 0.0
C1370 C 0.77542 0.46932 0.35607 0.0
C1371 C 0.73985 0.50558 0.39707 0.0
H1372 H 0.6848 0.51138 0.35329 0.0
C1373 C 0.63082 0.55629 0.38153 0.0
C1374 C 0.63618 0.58251 0.38464 0.0
C1375 C 0.65145 0.53839 0.38186 0.0
C1376 C 0.69997 0.50995 0.36571 0.0
H1377 H 0.80037 0.42688 0.40313 0.0
H1378 H 0.7608 0.45439 0.40817 0.0
H1379 H 0.7194 0.47871 0.34978 0.0
H1380 H 0.66745 0.61032 0.39161 0.0
H1381 H 0.70404 0.57855 0.39219 0.0
H1382 H 0.72036 0.53721 0.41283 0.0
C1383 C 0.77091 0.45421 0.39272 0.0
C1384 C 0.7198 0.49128 0.36366 0.0
C1385 C 0.7933 0.43827 0.38975 0.0
C1386 C 0.66273 0.59028 0.38905 0.0
C1387 C 0.68358 0.57213 0.38946 0.0
C1388 C 0.72006 0.52454 0.39902 0.0
C1389 C 0.76214 0.47028 0.37601 0.0
C1390 C 0.73998 0.48888 0.37927 0.0
C1391 C 0.67811 0.54608 0.38535 0.0
C1392 C 0.69989 0.52683 0.38335 0.0
H1393 H 0.80862 0.45464 0.33804 0.0
H1394 H 0.7692 0.48152 0.34291 0.0
H1395 H 0.75541 0.50436 0.4092 0.0
H1396 H 0.6106 0.54945 0.37843 0.0
H1397 H 0.64654 0.51843 0.37906 0.0
C1398 C 0.34402 0.56911 0.07934 0.0
C1399 C 0.34024 0.59466 0.08563 0.0
C1400 C 0.32204 0.55333 0.07472 0.0
C1401 C 0.24745 0.55149 0.0672 0.0
H1402 H 0.25459 0.48529 0.09484 0.0
C1403 C 0.15713 0.49173 0.09639 0.0
C1404 C 0.15865 0.46486 0.0969 0.0
C1405 C 0.17884 0.50647 0.08928 0.0
C1406 C 0.25233 0.5034 0.08658 0.0
H1407 H 0.31065 0.62425 0.09105 0.0
H1408 H 0.27189 0.59655 0.08333 0.0
H1409 H 0.29312 0.51382 0.09285 0.0
H1410 H 0.18361 0.43224 0.08919 0.0
H1411 H 0.22191 0.4581 0.07652 0.0
H1412 H 0.20624 0.54123 0.06167 0.0
C1413 C 0.29192 0.58876 0.08152 0.0
C1414 C 0.27451 0.5199 0.08545 0.0
C1415 C 0.31409 0.60472 0.08586 0.0
C1416 C 0.18185 0.45291 0.08888 0.0
C1417 C 0.20383 0.46775 0.08185 0.0
C1418 C 0.22519 0.53495 0.06836 0.0
C1419 C 0.29561 0.56256 0.07673 0.0
C1420 C 0.27233 0.54434 0.07604 0.0
C1421 C 0.20282 0.49477 0.08254 0.0
C1422 C 0.22721 0.51086 0.07843 0.0
H1423 H 0.36402 0.56092 0.07906 0.0
H1424 H 0.32577 0.53352 0.07051 0.0
H1425 H 0.24506 0.56998 0.05959 0.0
H1426 H 0.13943 0.50151 0.1024 0.0
H1427 H 0.17729 0.52712 0.09028 0.0
C1428 C 0.2954 0.41805 0.58946 0.0
C1429 C 0.32065 0.42129 0.57976 0.0
C1430 C 0.27498 0.43594 0.58591 0.0
C1431 C 0.23247 0.47497 0.57393 0.0
H1432 H 0.26031 0.54449 0.57545 0.0
C1433 C 0.16017 0.55974 0.57881 0.0
C1434 C 0.16685 0.57926 0.59337 0.0
C1435 C 0.17931 0.54175 0.57255 0.0
C1436 C 0.25217 0.52522 0.57509 0.0
H1437 H 0.34407 0.44442 0.55775 0.0
H1438 H 0.30808 0.47488 0.55054 0.0
H1439 H 0.29128 0.50873 0.57226 0.0
H1440 H 0.19871 0.59614 0.61233 0.0
H1441 H 0.23236 0.56418 0.6019 0.0
H1442 H 0.19352 0.49132 0.57814 0.0
C1443 C 0.30406 0.45901 0.56128 0.0
C1444 C 0.26992 0.50465 0.5729 0.0
C1445 C 0.3245 0.44129 0.56503 0.0
C1446 C 0.19333 0.58138 0.60083 0.0
C1447 C 0.2125 0.56304 0.59483 0.0
C1448 C 0.21475 0.49551 0.57628 0.0
C1449 C 0.27955 0.45736 0.57258 0.0
C1450 C 0.26033 0.47922 0.57254 0.0
C1451 C 0.20544 0.54251 0.58113 0.0
C1452 C 0.22437 0.52092 0.57712 0.0
H1453 H 0.29233 0.40323 0.60141 0.0
H1454 H 0.25651 0.4341 0.59505 0.0
H1455 H 0.22432 0.45571 0.57357 0.0
H1456 H 0.13978 0.55788 0.57284 0.0
H1457 H 0.17331 0.52672 0.56151 0.0
C1458 C 0.71856 0.41823 0.90211 0.0
C1459 C 0.69603 0.41783 0.9157 0.0
C1460 C 0.73976 0.43535 0.90598 0.0
C1461 C 0.78495 0.47171 0.91835 0.0
H1462 H 0.75821 0.53892 0.93403 0.0
C1463 C 0.85481 0.55892 0.91332 0.0
C1464 C 0.84387 0.58072 0.90359 0.0
C1465 C 0.83808 0.5393 0.92081 0.0
C1466 C 0.76606 0.52032 0.92961 0.0
H1467 H 0.67851 0.43367 0.94463 0.0
H1468 H 0.71605 0.46264 0.95214 0.0
H1469 H 0.7283 0.50203 0.93575 0.0
H1470 H 0.80706 0.59965 0.89446 0.0
H1471 H 0.77759 0.56522 0.90711 0.0
H1472 H 0.82214 0.49021 0.91077 0.0
C1473 C 0.71728 0.45018 0.93823 0.0
C1474 C 0.74898 0.49899 0.93091 0.0
C1475 C 0.69603 0.4332 0.93423 0.0
C1476 C 0.81586 0.58327 0.90245 0.0
C1477 C 0.79904 0.56343 0.90965 0.0
C1478 C 0.80196 0.49305 0.91689 0.0
C1479 C 0.73875 0.45246 0.92354 0.0
C1480 C 0.75803 0.47444 0.92491 0.0
C1481 C 0.81 0.54072 0.91818 0.0
C1482 C 0.79264 0.51775 0.92214 0.0
H1483 H 0.7186 0.40716 0.88735 0.0
H1484 H 0.75574 0.43663 0.89417 0.0
H1485 H 0.79276 0.45314 0.91381 0.0
H1486 H 0.87641 0.55638 0.91402 0.0
H1487 H 0.84727 0.52246 0.92774 0.0
C1488 C 0.06605 0.20892 0.41593 0.0
C1489 C 0.08867 0.2182 0.4047 0.0
C1490 C 0.04341 0.22426 0.41895 0.0
C1491 C 0.00064 0.26343 0.43025 0.0
H1492 H 0.97896 0.30351 0.38084 0.0
C1493 C 0.91109 0.33495 0.43079 0.0
C1494 C 0.89651 0.33786 0.4116 0.0
C1495 C 0.93342 0.31868 0.43157 0.0
C1496 C 0.98455 0.2922 0.39471 0.0
H1497 H 0.10582 0.25138 0.38884 0.0
H1498 H 0.06635 0.27855 0.39451 0.0
H1499 H 0.02131 0.28029 0.37985 0.0
H1500 H 0.89237 0.32425 0.37883 0.0
H1501 H 0.93086 0.2955 0.3803 0.0
H1502 H 0.96348 0.27492 0.44488 0.0
C1503 C 0.06599 0.25915 0.40064 0.0
C1504 C 0.00911 0.27923 0.39429 0.0
C1505 C 0.08875 0.24372 0.39763 0.0
C1506 C 0.90327 0.32248 0.39383 0.0
C1507 C 0.92557 0.30628 0.39459 0.0
C1508 C 0.97604 0.27643 0.43068 0.0
C1509 C 0.04279 0.24938 0.41088 0.0
C1510 C 0.01744 0.26455 0.41199 0.0
C1511 C 0.94158 0.30496 0.41318 0.0
C1512 C 0.96758 0.29081 0.41284 0.0
H1513 H 0.06537 0.18932 0.42163 0.0
H1514 H 0.02592 0.21596 0.42672 0.0
H1515 H 0.0065 0.25249 0.44425 0.0
H1516 H 0.90661 0.34672 0.44471 0.0
H1517 H 0.94528 0.31816 0.44615 0.0
C1518 C 0.41868 0.83438 0.42176 0.0
C1519 C 0.39577 0.82343 0.41219 0.0
C1520 C 0.44188 0.81988 0.42491 0.0
C1521 C 0.48642 0.78223 0.43638 0.0
H1522 H 0.50681 0.74172 0.38668 0.0
C1523 C 0.57674 0.71136 0.43249 0.0
C1524 C 0.58918 0.70823 0.41231 0.0
C1525 C 0.55518 0.72835 0.43488 0.0
C1526 C 0.50156 0.75316 0.40061 0.0
H1527 H 0.37865 0.7883 0.39958 0.0
H1528 H 0.41926 0.76283 0.40511 0.0
H1529 H 0.46341 0.76306 0.38724 0.0
H1530 H 0.59179 0.72323 0.37992 0.0
H1531 H 0.55482 0.75331 0.38423 0.0
H1532 H 0.52489 0.77244 0.44958 0.0
C1533 C 0.41932 0.78275 0.41 0.0
C1534 C 0.47645 0.76504 0.40108 0.0
C1535 C 0.39599 0.79724 0.40703 0.0
C1536 C 0.58238 0.72506 0.39559 0.0
C1537 C 0.5609 0.74198 0.39796 0.0
C1538 C 0.51156 0.77019 0.43596 0.0
C1539 C 0.44276 0.7941 0.41846 0.0
C1540 C 0.46864 0.7799 0.41889 0.0
C1541 C 0.54602 0.74264 0.4172 0.0
C1542 C 0.51954 0.7558 0.41793 0.0
H1543 H 0.41922 0.85446 0.42584 0.0
H1544 H 0.45961 0.82928 0.4313 0.0
H1545 H 0.4809 0.7934 0.45039 0.0
H1546 H 0.58141 0.69859 0.44568 0.0
H1547 H 0.54425 0.72855 0.44998 0.0
C1548 C 0.60654 0.80825 0.09843 0.0
C1549 C 0.60814 0.83078 0.0862 0.0
C1550 C 0.5862 0.79026 0.09439 0.0
C1551 C 0.5293 0.76994 0.09551 0.0
H1552 H 0.49676 0.75621 0.04004 0.0
C1553 C 0.4253 0.72269 0.09091 0.0
C1554 C 0.42209 0.70307 0.07564 0.0
C1555 C 0.44744 0.73924 0.08988 0.0
C1556 C 0.50566 0.75968 0.05566 0.0
H1557 H 0.59163 0.85091 0.05883 0.0
H1558 H 0.55617 0.81988 0.05191 0.0
H1559 H 0.53949 0.77918 0.04182 0.0
H1560 H 0.43868 0.68647 0.04651 0.0
H1561 H 0.47734 0.71508 0.0448 0.0
H1562 H 0.49607 0.74982 0.10936 0.0
C1563 C 0.57047 0.81582 0.06455 0.0
C1564 C 0.53011 0.77305 0.05669 0.0
C1565 C 0.59089 0.83365 0.06848 0.0
C1566 C 0.44037 0.70158 0.0584 0.0
C1567 C 0.46268 0.71798 0.05748 0.0
C1568 C 0.50504 0.75642 0.09446 0.0
C1569 C 0.56706 0.7945 0.0781 0.0
C1570 C 0.5422 0.77848 0.07665 0.0
C1571 C 0.46704 0.73641 0.07366 0.0
C1572 C 0.49273 0.75127 0.07455 0.0
H1573 H 0.6194 0.80558 0.11229 0.0
H1574 H 0.58463 0.7737 0.1048 0.0
H1575 H 0.5376 0.77415 0.11121 0.0
H1576 H 0.41148 0.72437 0.10434 0.0
H1577 H 0.44966 0.75368 0.10228 0.0
C1578 C 0.90882 0.22841 0.06084 0.0
C1579 C 0.89857 0.22055 0.08088 0.0
C1580 C 0.92844 0.24768 0.05965 0.0
C1581 C 0.9649 0.29675 0.09311 0.0
H1582 H 0.02262 0.28453 0.05226 0.0
C1583 C 0.07064 0.33882 0.10371 0.0
C1584 C 0.0776 0.35663 0.08766 0.0
C1585 C 0.04909 0.32199 0.10072 0.0
C1586 C 0.00654 0.28815 0.06366 0.0
H1587 H 0.89883 0.22861 0.11509 0.0
H1588 H 0.93367 0.2609 0.11327 0.0
H1589 H 0.98214 0.25785 0.05113 0.0
H1590 H 0.06915 0.36878 0.05497 0.0
H1591 H 0.03215 0.3384 0.04949 0.0
H1592 H 0.9902 0.3261 0.10632 0.0
C1593 C 0.92661 0.25266 0.09832 0.0
C1594 C 0.98319 0.27309 0.06292 0.0
C1595 C 0.90673 0.23379 0.09944 0.0
C1596 C 0.06428 0.3554 0.06771 0.0
C1597 C 0.04303 0.33814 0.06457 0.0
C1598 C 0.98845 0.31133 0.09412 0.0
C1599 C 0.9384 0.25935 0.07849 0.0
C1600 C 0.96213 0.27698 0.07783 0.0
C1601 C 0.03462 0.32208 0.08138 0.0
C1602 C 0.00954 0.30697 0.07957 0.0
H1603 H 0.90288 0.21869 0.04619 0.0
H1604 H 0.93641 0.2528 0.04401 0.0
H1605 H 0.94898 0.30088 0.10449 0.0
H1606 H 0.08098 0.33871 0.11901 0.0
H1607 H 0.04317 0.30942 0.11377 0.0
C1608 C 0.94961 0.83874 0.56191 0.0
C1609 C 0.93035 0.83604 0.57837 0.0
C1610 C 0.9716 0.82213 0.56071 0.0
C1611 C 0.01178 0.78131 0.59664 0.0
H1612 H 0.04633 0.75899 0.5439 0.0
C1613 C 0.09457 0.70214 0.57081 0.0
C1614 C 0.11238 0.70492 0.58821 0.0
C1615 C 0.07489 0.72054 0.56685 0.0
C1616 C 0.03693 0.76508 0.55878 0.0
H1617 H 0.9177 0.81241 0.60521 0.0
H1618 H 0.95569 0.78312 0.60285 0.0
H1619 H 0.00443 0.7832 0.54215 0.0
H1620 H 0.12517 0.73026 0.61386 0.0
H1621 H 0.09138 0.76294 0.60649 0.0
H1622 H 0.04363 0.76259 0.61333 0.0
C1623 C 0.95429 0.79853 0.59126 0.0
C1624 C 0.01298 0.77907 0.55777 0.0
C1625 C 0.93237 0.81515 0.59249 0.0
C1626 C 0.1119 0.72769 0.60022 0.0
C1627 C 0.09219 0.74617 0.59624 0.0
C1628 C 0.03564 0.76734 0.59765 0.0
C1629 C 0.97473 0.80242 0.57589 0.0
C1630 C -0.0 0.7872 0.5767 0.0
C1631 C 0.07267 0.74222 0.58015 0.0
C1632 C 0.0485 0.75894 0.57876 0.0
H1633 H 0.9488 0.85474 0.55086 0.0
H1634 H 0.98696 0.82574 0.54869 0.0
H1635 H 0.00265 0.78766 0.61155 0.0
H1636 H 0.0944 0.68467 0.56137 0.0
H1637 H 0.0602 0.71675 0.5544 0.0
C1638 C 0.41866 0.30899 0.56227 0.0
C1639 C 0.40443 0.3136 0.58146 0.0
C1640 C 0.44145 0.2933 0.56227 0.0
C1641 C 0.49421 0.27268 0.59981 0.0
H1642 H 0.5159 0.22748 0.55345 0.0
C1643 C 0.57722 0.18924 0.58419 0.0
C1644 C 0.60035 0.20076 0.59301 0.0
C1645 C 0.55395 0.20346 0.5807 0.0
C1646 C 0.51011 0.24003 0.56654 0.0
H1647 H 0.40129 0.30331 0.61515 0.0
H1648 H 0.44071 0.27572 0.61508 0.0
H1649 H 0.4722 0.24867 0.55192 0.0
H1650 H 0.61747 0.23653 0.6043 0.0
H1651 H 0.57664 0.2616 0.59806 0.0
H1652 H 0.53181 0.26371 0.61465 0.0
C1653 C 0.43479 0.2848 0.60018 0.0
C1654 C 0.48513 0.25227 0.5656 0.0
C1655 C 0.41204 0.30042 0.60017 0.0
C1656 C 0.60001 0.22713 0.59746 0.0
C1657 C 0.57655 0.2414 0.59406 0.0
C1658 C 0.51918 0.26052 0.60072 0.0
C1659 C 0.45039 0.28189 0.58144 0.0
C1660 C 0.47679 0.26857 0.58233 0.0
C1661 C 0.55311 0.2296 0.58597 0.0
C1662 C 0.52738 0.24391 0.58418 0.0
H1663 H 0.41348 0.319 0.54761 0.0
H1664 H 0.45299 0.29147 0.54756 0.0
H1665 H 0.48865 0.28549 0.61279 0.0
H1666 H 0.57681 0.16895 0.5805 0.0
H1667 H 0.53625 0.19367 0.57467 0.0
C1668 C 0.41161 0.21252 0.89721 0.0
C1669 C 0.40129 0.2009 0.91588 0.0
C1670 C 0.43518 0.22717 0.898 0.0
C1671 C 0.48346 0.25951 0.93509 0.0
H1672 H 0.53229 0.25048 0.88695 0.0
C1673 C 0.59892 0.28847 0.90482 0.0
C1674 C 0.5991 0.31434 0.91102 0.0
C1675 C 0.57576 0.27342 0.90777 0.0
C1676 C 0.51914 0.25296 0.9007 0.0
H1677 H 0.40701 0.19655 0.95024 0.0
H1678 H 0.44823 0.222 0.95164 0.0
H1679 H 0.48944 0.22798 0.88727 0.0
H1680 H 0.57573 0.34421 0.92652 0.0
H1681 H 0.53553 0.31836 0.93122 0.0
H1682 H 0.51355 0.284 0.94877 0.0
C1683 C 0.43799 0.22003 0.93637 0.0
C1684 C 0.49424 0.2404 0.9007 0.0
C1685 C 0.41424 0.20548 0.9356 0.0
C1686 C 0.57624 0.32436 0.92139 0.0
C1687 C 0.55315 0.30944 0.92424 0.0
C1688 C 0.50847 0.27199 0.93515 0.0
C1689 C 0.44919 0.23046 0.91746 0.0
C1690 C 0.4759 0.24371 0.91777 0.0
C1691 C 0.55231 0.28393 0.917 0.0
C1692 C 0.52656 0.26909 0.91785 0.0
H1693 H 0.40201 0.20948 0.88179 0.0
H1694 H 0.44273 0.23547 0.8832 0.0
H1695 H 0.46989 0.26265 0.94848 0.0
H1696 H 0.6162 0.28016 0.89681 0.0
H1697 H 0.57605 0.2537 0.90237 0.0
C1698 C 0.93698 0.68688 0.93294 0.0
C1699 C 0.92118 0.68889 0.91424 0.0
C1700 C 0.95877 0.70347 0.93625 0.0
C1701 C 0.01265 0.72932 0.91032 0.0
H1702 H 0.01552 0.79166 0.94417 0.0
C1703 C 0.09057 0.80855 0.89583 0.0
C1704 C 0.09713 0.82558 0.91253 0.0
C1705 C 0.07258 0.78842 0.89937 0.0
C1706 C 0.01536 0.77399 0.93504 0.0
H1707 H 0.9143 0.71144 0.88549 0.0
H1708 H 0.95277 0.74001 0.89115 0.0
H1709 H 0.97473 0.76525 0.94458 0.0
H1710 H 0.09256 0.83304 0.94666 0.0
H1711 H 0.06207 0.79707 0.95311 0.0
H1712 H 0.05301 0.73775 0.90061 0.0
C1713 C 0.94827 0.72546 0.90305 0.0
C1714 C 0.9919 0.75908 0.93516 0.0
C1715 C 0.92637 0.70907 0.89982 0.0
C1716 C 0.08799 0.82018 0.93346 0.0
C1717 C 0.07006 0.79987 0.93706 0.0
C1718 C 0.03618 0.74403 0.91034 0.0
C1719 C 0.96501 0.72227 0.92095 0.0
C1720 C 0.99028 0.73695 0.92247 0.0
C1721 C 0.06105 0.78459 0.91981 0.0
C1722 C 0.03767 0.76688 0.92233 0.0
H1723 H 0.93361 0.67154 0.94435 0.0
H1724 H 0.97153 0.70079 0.95016 0.0
H1725 H 0.01172 0.71217 0.9005 0.0
H1726 H 0.09738 0.81222 0.87955 0.0
H1727 H 0.06614 0.77723 0.88563 0.0
loop_
_geom_bond_atom_site_label_1
_geom_bond_atom_site_label_2
_geom_bond_distance
_geom_bond_site_symmetry_2
_ccdc_geom_bond_type
C0 C1 1.351 . S
C0 N3 1.368 . S
C0 H5 0.931 . S
C1 C0 1.351 . S
C1 N2 1.373 . S
C1 H29 0.930 . S
N2 C1 1.373 . S
N2 C4 1.340 . S
N3 C0 1.368 . S
N3 C4 1.321 . S
N3 Co6 2.135 . S
C4 N2 1.340 . S
C4 N3 1.321 . S
C4 H28 0.930 . S
H5 C0 0.931 . S
Co6 N3 2.135 . S
Co6 N9 2.121 . S
Co6 O14 2.055 . S
Co6 O17 2.039 . S
Co6 N20 2.140 . S
C7 O8 1.227 . S
C7 O17 1.265 . S
O8 C7 1.227 . S
N9 Co6 2.121 . S
N9 C11 1.375 . S
N9 C12 1.313 . S
C10 C11 1.338 . S
C10 N13 1.377 . S
C10 H30 0.930 . S
C11 N9 1.375 . S
C11 C10 1.338 . S
C11 H15 0.931 . S
C12 N9 1.313 . S
C12 N13 1.344 . S
C12 H16 0.930 . S
N13 C10 1.377 . S
N13 C12 1.344 . S
O14 Co6 2.055 . S
O14 C18 1.253 . S
H15 C11 0.931 . S
H16 C12 0.930 . S
O17 Co6 2.039 . S
O17 C7 1.265 . S
C18 O14 1.253 . S
C18 O19 1.227 . S
O19 C18 1.227 . S
N20 Co6 2.140 . S
N20 C23 1.346 . S
N20 C24 1.345 . S
C21 C22 1.387 . S
C21 C25 1.391 . S
C22 C21 1.387 . S
C22 C23 1.369 . S
C22 H31 0.929 . S
C23 N20 1.346 . S
C23 C22 1.369 . S
C23 H26 0.928 . S
C24 N20 1.345 . S
C24 C25 1.371 . S
C24 H27 0.931 . S
C25 C21 1.391 . S
C25 C24 1.371 . S
C25 H32 0.930 . S
H26 C23 0.928 . S
H27 C24 0.931 . S
H28 C4 0.930 . S
H29 C1 0.930 . S
H30 C10 0.930 . S
H31 C22 0.929 . S
H32 C25 0.930 . S
C33 C34 1.351 . S
C33 N36 1.368 . S
C33 H38 0.931 . S
C34 C33 1.351 . S
C34 N35 1.373 . S
C34 H62 0.930 . S
N35 C34 1.373 . S
N35 C37 1.340 . S
N36 C33 1.368 . S
N36 C37 1.321 . S
N36 Co39 2.135 . S
C37 N35 1.340 . S
C37 N36 1.321 . S
C37 H61 0.930 . S
H38 C33 0.931 . S
Co39 N36 2.135 . S
Co39 N42 2.121 . S
Co39 O47 2.055 . S
Co39 O50 2.039 . S
Co39 N53 2.140 . S
C40 O41 1.227 . S
C40 O50 1.265 . S
O41 C40 1.227 . S
N42 Co39 2.121 . S
N42 C44 1.375 . S
N42 C45 1.313 . S
C43 C44 1.338 . S
C43 N46 1.377 . S
C43 H63 0.930 . S
C44 N42 1.375 . S
C44 C43 1.338 . S
C44 H48 0.931 . S
C45 N42 1.313 . S
C45 N46 1.344 . S
C45 H49 0.930 . S
N46 C43 1.377 . S
N46 C45 1.344 . S
O47 Co39 2.055 . S
O47 C51 1.253 . S
H48 C44 0.931 . S
H49 C45 0.930 . S
O50 Co39 2.039 . S
O50 C40 1.265 . S
C51 O47 1.253 . S
C51 O52 1.227 . S
O52 C51 1.227 . S
N53 Co39 2.140 . S
N53 C56 1.346 . S
N53 C57 1.345 . S
C54 C55 1.387 . S
C54 C58 1.391 . S
C55 C54 1.387 . S
C55 C56 1.369 . S
C55 H64 0.929 . S
C56 N53 1.346 . S
C56 C55 1.369 . S
C56 H59 0.928 . S
C57 N53 1.345 . S
C57 C58 1.371 . S
C57 H60 0.931 . S
C58 C54 1.391 . S
C58 C57 1.371 . S
C58 H65 0.930 . S
H59 C56 0.928 . S
H60 C57 0.931 . S
H61 C37 0.930 . S
H62 C34 0.930 . S
H63 C43 0.930 . S
H64 C55 0.929 . S
H65 C58 0.930 . S
C66 C67 1.351 . S
C66 N69 1.368 . S
C66 H71 0.931 . S
C67 C66 1.351 . S
C67 N68 1.373 . S
C67 H95 0.930 . S
N68 C67 1.373 . S
N68 C70 1.340 . S
N69 C66 1.368 . S
N69 C70 1.321 . S
N69 Co72 2.135 . S
C70 N68 1.340 . S
C70 N69 1.321 . S
C70 H94 0.930 . S
H71 C66 0.931 . S
Co72 N69 2.135 . S
Co72 N75 2.121 . S
Co72 O80 2.055 . S
Co72 O83 2.039 . S
Co72 N86 2.140 . S
C73 O74 1.227 . S
C73 O83 1.265 . S
O74 C73 1.227 . S
N75 Co72 2.121 . S
N75 C77 1.375 . S
N75 C78 1.313 . S
C76 C77 1.338 . S
C76 N79 1.377 . S
C76 H96 0.930 . S
C77 N75 1.375 . S
C77 C76 1.338 . S
C77 H81 0.931 . S
C78 N75 1.313 . S
C78 N79 1.344 . S
C78 H82 0.930 . S
N79 C76 1.377 . S
N79 C78 1.344 . S
O80 Co72 2.055 . S
O80 C84 1.253 . S
H81 C77 0.931 . S
H82 C78 0.930 . S
O83 Co72 2.039 . S
O83 C73 1.265 . S
C84 O80 1.253 . S
C84 O85 1.227 . S
O85 C84 1.227 . S
N86 Co72 2.140 . S
N86 C89 1.346 . S
N86 C90 1.345 . S
C87 C88 1.387 . S
C87 C91 1.391 . S
C88 C87 1.387 . S
C88 C89 1.369 . S
C88 H97 0.929 . S
C89 N86 1.346 . S
C89 C88 1.369 . S
C89 H92 0.928 . S
C90 N86 1.345 . S
C90 C91 1.371 . S
C90 H93 0.931 . S
C91 C87 1.391 . S
C91 C90 1.371 . S
C91 H98 0.930 . S
H92 C89 0.928 . S
H93 C90 0.931 . S
H94 C70 0.930 . S
H95 C67 0.930 . S
H96 C76 0.930 . S
H97 C88 0.929 . S
H98 C91 0.930 . S
C99 C100 1.351 . S
C99 N102 1.368 . S
C99 H104 0.931 . S
C100 C99 1.351 . S
C100 N101 1.373 . S
C100 H128 0.930 . S
N101 C100 1.373 . S
N101 C103 1.340 . S
N102 C99 1.368 . S
N102 C103 1.321 . S
N102 Co105 2.135 . S
C103 N101 1.340 . S
C103 N102 1.321 . S
C103 H127 0.930 . S
H104 C99 0.931 . S
Co105 N102 2.135 . S
Co105 N108 2.121 . S
Co105 O113 2.055 . S
Co105 O116 2.039 . S
Co105 N119 2.140 . S
C106 O107 1.227 . S
C106 O116 1.265 . S
O107 C106 1.227 . S
N108 Co105 2.121 . S
N108 C110 1.375 . S
N108 C111 1.313 . S
C109 C110 1.338 . S
C109 N112 1.377 . S
C109 H129 0.930 . S
C110 N108 1.375 . S
C110 C109 1.338 . S
C110 H114 0.931 . S
C111 N108 1.313 . S
C111 N112 1.344 . S
C111 H115 0.930 . S
N112 C109 1.377 . S
N112 C111 1.344 . S
O113 Co105 2.055 . S
O113 C117 1.253 . S
H114 C110 0.931 . S
H115 C111 0.930 . S
O116 Co105 2.039 . S
O116 C106 1.265 . S
C117 O113 1.253 . S
C117 O118 1.227 . S
O118 C117 1.227 . S
N119 Co105 2.140 . S
N119 C122 1.346 . S
N119 C123 1.345 . S
C120 C121 1.387 . S
C120 C124 1.391 . S
C121 C120 1.387 . S
C121 C122 1.369 . S
C121 H130 0.929 . S
C122 N119 1.346 . S
C122 C121 1.369 . S
C122 H125 0.928 . S
C123 N119 1.345 . S
C123 C124 1.371 . S
C123 H126 0.931 . S
C124 C120 1.391 . S
C124 C123 1.371 . S
C124 H131 0.930 . S
H125 C122 0.928 . S
H126 C123 0.931 . S
H127 C103 0.930 . S
H128 C100 0.930 . S
H129 C109 0.930 . S
H130 C121 0.929 . S
H131 C124 0.930 . S
C132 C133 1.351 . S
C132 N135 1.368 . S
C132 H137 0.931 . S
C133 C132 1.351 . S
C133 N134 1.373 . S
C133 H161 0.930 . S
N134 C133 1.373 . S
N134 C136 1.340 . S
N135 C132 1.368 . S
N135 C136 1.321 . S
N135 Co138 2.135 . S
C136 N134 1.340 . S
C136 N135 1.321 . S
C136 H160 0.930 . S
H137 C132 0.931 . S
Co138 N135 2.135 . S
Co138 N141 2.121 . S
Co138 O146 2.055 . S
Co138 O149 2.039 . S
Co138 N152 2.140 . S
C139 O140 1.227 . S
C139 O149 1.265 . S
O140 C139 1.227 . S
N141 Co138 2.121 . S
N141 C143 1.375 . S
N141 C144 1.313 . S
C142 C143 1.338 . S
C142 N145 1.377 . S
C142 H162 0.930 . S
C143 N141 1.375 . S
C143 C142 1.338 . S
C143 H147 0.931 . S
C144 N141 1.313 . S
C144 N145 1.344 . S
C144 H148 0.930 . S
N145 C142 1.377 . S
N145 C144 1.344 . S
O146 Co138 2.055 . S
O146 C150 1.253 . S
H147 C143 0.931 . S
H148 C144 0.930 . S
O149 Co138 2.039 . S
O149 C139 1.265 . S
C150 O146 1.253 . S
C150 O151 1.227 . S
O151 C150 1.227 . S
N152 Co138 2.140 . S
N152 C155 1.346 . S
N152 C156 1.345 . S
C153 C154 1.387 . S
C153 C157 1.391 . S
C154 C153 1.387 . S
C154 C155 1.369 . S
C154 H163 0.929 . S
C155 N152 1.346 . S
C155 C154 1.369 . S
C155 H158 0.928 . S
C156 N152 1.345 . S
C156 C157 1.371 . S
C156 H159 0.931 . S
C157 C153 1.391 . S
C157 C156 1.371 . S
C157 H164 0.930 . S
H158 C155 0.928 . S
H159 C156 0.931 . S
H160 C136 0.930 . S
H161 C133 0.930 . S
H162 C142 0.930 . S
H163 C154 0.929 . S
H164 C157 0.930 . S
C165 C166 1.351 . S
C165 N168 1.368 . S
C165 H170 0.931 . S
C166 C165 1.351 . S
C166 N167 1.373 . S
C166 H194 0.930 . S
N167 C166 1.373 . S
N167 C169 1.340 . S
N168 C165 1.368 . S
N168 C169 1.321 . S
N168 Co171 2.135 . S
C169 N167 1.340 . S
C169 N168 1.321 . S
C169 H193 0.930 . S
H170 C165 0.931 . S
Co171 N168 2.135 . S
Co171 N174 2.121 . S
Co171 O179 2.055 . S
Co171 O182 2.039 . S
Co171 N185 2.140 . S
C172 O173 1.227 . S
C172 O182 1.265 . S
O173 C172 1.227 . S
N174 Co171 2.121 . S
N174 C176 1.375 . S
N174 C177 1.313 . S
C175 C176 1.338 . S
C175 N178 1.377 . S
C175 H195 0.930 . S
C176 N174 1.375 . S
C176 C175 1.338 . S
C176 H180 0.931 . S
C177 N174 1.313 . S
C177 N178 1.344 . S
C177 H181 0.930 . S
N178 C175 1.377 . S
N178 C177 1.344 . S
O179 Co171 2.055 . S
O179 C183 1.253 . S
H180 C176 0.931 . S
H181 C177 0.930 . S
O182 Co171 2.039 . S
O182 C172 1.265 . S
C183 O179 1.253 . S
C183 O184 1.227 . S
O184 C183 1.227 . S
N185 Co171 2.140 . S
N185 C188 1.346 . S
N185 C189 1.345 . S
C186 C187 1.387 . S
C186 C190 1.391 . S
C187 C186 1.387 . S
C187 C188 1.369 . S
C187 H196 0.929 . S
C188 N185 1.346 . S
C188 C187 1.369 . S
C188 H191 0.928 . S
C189 N185 1.345 . S
C189 C190 1.371 . S
C189 H192 0.931 . S
C190 C186 1.391 . S
C190 C189 1.371 . S
C190 H197 0.930 . S
H191 C188 0.928 . S
H192 C189 0.931 . S
H193 C169 0.930 . S
H194 C166 0.930 . S
H195 C175 0.930 . S
H196 C187 0.929 . S
H197 C190 0.930 . S
C198 C199 1.351 . S
C198 N201 1.368 . S
C198 H203 0.931 . S
C199 C198 1.351 . S
C199 N200 1.373 . S
C199 H227 0.930 . S
N200 C199 1.373 . S
N200 C202 1.340 . S
N201 C198 1.368 . S
N201 C202 1.321 . S
N201 Co204 2.135 . S
C202 N200 1.340 . S
C202 N201 1.321 . S
C202 H226 0.930 . S
H203 C198 0.931 . S
Co204 N201 2.135 . S
Co204 N207 2.121 . S
Co204 O212 2.055 . S
Co204 O215 2.039 . S
Co204 N218 2.140 . S
C205 O206 1.227 . S
C205 O215 1.265 . S
O206 C205 1.227 . S
N207 Co204 2.121 . S
N207 C209 1.375 . S
N207 C210 1.313 . S
C208 C209 1.338 . S
C208 N211 1.377 . S
C208 H228 0.930 . S
C209 N207 1.375 . S
C209 C208 1.338 . S
C209 H213 0.931 . S
C210 N207 1.313 . S
C210 N211 1.344 . S
C210 H214 0.930 . S
N211 C208 1.377 . S
N211 C210 1.344 . S
O212 Co204 2.055 . S
O212 C216 1.253 . S
H213 C209 0.931 . S
H214 C210 0.930 . S
O215 Co204 2.039 . S
O215 C205 1.265 . S
C216 O212 1.253 . S
C216 O217 1.227 . S
O217 C216 1.227 . S
N218 Co204 2.140 . S
N218 C221 1.346 . S
N218 C222 1.345 . S
C219 C220 1.387 . S
C219 C223 1.391 . S
C220 C219 1.387 . S
C220 C221 1.369 . S
C220 H229 0.929 . S
C221 N218 1.346 . S
C221 C220 1.369 . S
C221 H224 0.928 . S
C222 N218 1.345 . S
C222 C223 1.371 . S
C222 H225 0.931 . S
C223 C219 1.391 . S
C223 C222 1.371 . S
C223 H230 0.930 . S
H224 C221 0.928 . S
H225 C222 0.931 . S
H226 C202 0.930 . S
H227 C199 0.930 . S
H228 C208 0.930 . S
H229 C220 0.929 . S
H230 C223 0.930 . S
C231 C232 1.351 . S
C231 N234 1.368 . S
C231 H236 0.931 . S
C232 C231 1.351 . S
C232 N233 1.373 . S
C232 H260 0.930 . S
N233 C232 1.373 . S
N233 C235 1.340 . S
N234 C231 1.368 . S
N234 C235 1.321 . S
N234 Co237 2.135 . S
C235 N233 1.340 . S
C235 N234 1.321 . S
C235 H259 0.930 . S
H236 C231 0.931 . S
Co237 N234 2.135 . S
Co237 N240 2.121 . S
Co237 O245 2.055 . S
Co237 O248 2.039 . S
Co237 N251 2.140 . S
C238 O239 1.227 . S
C238 O248 1.265 . S
O239 C238 1.227 . S
N240 Co237 2.121 . S
N240 C242 1.375 . S
N240 C243 1.313 . S
C241 C242 1.338 . S
C241 N244 1.377 . S
C241 H261 0.930 . S
C242 N240 1.375 . S
C242 C241 1.338 . S
C242 H246 0.931 . S
C243 N240 1.313 . S
C243 N244 1.344 . S
C243 H247 0.930 . S
N244 C241 1.377 . S
N244 C243 1.344 . S
O245 Co237 2.055 . S
O245 C249 1.253 . S
H246 C242 0.931 . S
H247 C243 0.930 . S
O248 Co237 2.039 . S
O248 C238 1.265 . S
C249 O245 1.253 . S
C249 O250 1.227 . S
O250 C249 1.227 . S
N251 Co237 2.140 . S
N251 C254 1.346 . S
N251 C255 1.345 . S
C252 C253 1.387 . S
C252 C256 1.391 . S
C253 C252 1.387 . S
C253 C254 1.369 . S
C253 H262 0.929 . S
C254 N251 1.346 . S
C254 C253 1.369 . S
C254 H257 0.928 . S
C255 N251 1.345 . S
C255 C256 1.371 . S
C255 H258 0.931 . S
C256 C252 1.391 . S
C256 C255 1.371 . S
C256 H263 0.930 . S
H257 C254 0.928 . S
H258 C255 0.931 . S
H259 C235 0.930 . S
H260 C232 0.930 . S
H261 C241 0.930 . S
H262 C253 0.929 . S
H263 C256 0.930 . S
C264 C265 1.351 . S
C264 N267 1.368 . S
C264 H269 0.931 . S
C265 C264 1.351 . S
C265 N266 1.373 . S
C265 H293 0.930 . S
N266 C265 1.373 . S
N266 C268 1.340 . S
N267 C264 1.368 . S
N267 C268 1.321 . S
N267 Co270 2.135 . S
C268 N266 1.340 . S
C268 N267 1.321 . S
C268 H292 0.930 . S
H269 C264 0.931 . S
Co270 N267 2.135 . S
Co270 N273 2.121 . S
Co270 O278 2.055 . S
Co270 O281 2.039 . S
Co270 N284 2.140 . S
C271 O272 1.227 . S
C271 O281 1.265 . S
O272 C271 1.227 . S
N273 Co270 2.121 . S
N273 C275 1.375 . S
N273 C276 1.313 . S
C274 C275 1.338 . S
C274 N277 1.377 . S
C274 H294 0.930 . S
C275 N273 1.375 . S
C275 C274 1.338 . S
C275 H279 0.931 . S
C276 N273 1.313 . S
C276 N277 1.344 . S
C276 H280 0.930 . S
N277 C274 1.377 . S
N277 C276 1.344 . S
O278 Co270 2.055 . S
O278 C282 1.253 . S
H279 C275 0.931 . S
H280 C276 0.930 . S
O281 Co270 2.039 . S
O281 C271 1.265 . S
C282 O278 1.253 . S
C282 O283 1.227 . S
O283 C282 1.227 . S
N284 Co270 2.140 . S
N284 C287 1.346 . S
N284 C288 1.345 . S
C285 C286 1.387 . S
C285 C289 1.391 . S
C286 C285 1.387 . S
C286 C287 1.369 . S
C286 H295 0.929 . S
C287 N284 1.346 . S
C287 C286 1.369 . S
C287 H290 0.928 . S
C288 N284 1.345 . S
C288 C289 1.371 . S
C288 H291 0.931 . S
C289 C285 1.391 . S
C289 C288 1.371 . S
C289 H296 0.930 . S
H290 C287 0.928 . S
H291 C288 0.931 . S
H292 C268 0.930 . S
H293 C265 0.930 . S
H294 C274 0.930 . S
H295 C286 0.929 . S
H296 C289 0.930 . S
C297 C298 1.351 . S
C297 N300 1.368 . S
C297 H302 0.931 . S
C298 C297 1.351 . S
C298 N299 1.373 . S
C298 H326 0.930 . S
N299 C298 1.373 . S
N299 C301 1.340 . S
N300 C297 1.368 . S
N300 C301 1.321 . S
N300 Co303 2.135 . S
C301 N299 1.340 . S
C301 N300 1.321 . S
C301 H325 0.930 . S
H302 C297 0.931 . S
Co303 N300 2.135 . S
Co303 N306 2.121 . S
Co303 O311 2.055 . S
Co303 O314 2.039 . S
Co303 N317 2.140 . S
C304 O305 1.227 . S
C304 O314 1.265 . S
O305 C304 1.227 . S
N306 Co303 2.121 . S
N306 C308 1.375 . S
N306 C309 1.313 . S
C307 C308 1.338 . S
C307 N310 1.377 . S
C307 H327 0.930 . S
C308 N306 1.375 . S
C308 C307 1.338 . S
C308 H312 0.931 . S
C309 N306 1.313 . S
C309 N310 1.344 . S
C309 H313 0.930 . S
N310 C307 1.377 . S
N310 C309 1.344 . S
O311 Co303 2.055 . S
O311 C315 1.253 . S
H312 C308 0.931 . S
H313 C309 0.930 . S
O314 Co303 2.039 . S
O314 C304 1.265 . S
C315 O311 1.253 . S
C315 O316 1.227 . S
O316 C315 1.227 . S
N317 Co303 2.140 . S
N317 C320 1.346 . S
N317 C321 1.345 . S
C318 C319 1.387 . S
C318 C322 1.391 . S
C319 C318 1.387 . S
C319 C320 1.369 . S
C319 H328 0.929 . S
C320 N317 1.346 . S
C320 C319 1.369 . S
C320 H323 0.928 . S
C321 N317 1.345 . S
C321 C322 1.371 . S
C321 H324 0.931 . S
C322 C318 1.391 . S
C322 C321 1.371 . S
C322 H329 0.930 . S
H323 C320 0.928 . S
H324 C321 0.931 . S
H325 C301 0.930 . S
H326 C298 0.930 . S
H327 C307 0.930 . S
H328 C319 0.929 . S
H329 C322 0.930 . S
C330 C331 1.351 . S
C330 N333 1.368 . S
C330 H335 0.931 . S
C331 C330 1.351 . S
C331 N332 1.373 . S
C331 H359 0.930 . S
N332 C331 1.373 . S
N332 C334 1.340 . S
N333 C330 1.368 . S
N333 C334 1.321 . S
N333 Co336 2.135 . S
C334 N332 1.340 . S
C334 N333 1.321 . S
C334 H358 0.930 . S
H335 C330 0.931 . S
Co336 N333 2.135 . S
Co336 N339 2.121 . S
Co336 O344 2.055 . S
Co336 O347 2.039 . S
Co336 N350 2.140 . S
C337 O338 1.227 . S
C337 O347 1.265 . S
O338 C337 1.227 . S
N339 Co336 2.121 . S
N339 C341 1.375 . S
N339 C342 1.313 . S
C340 C341 1.338 . S
C340 N343 1.377 . S
C340 H360 0.930 . S
C341 N339 1.375 . S
C341 C340 1.338 . S
C341 H345 0.931 . S
C342 N339 1.313 . S
C342 N343 1.344 . S
C342 H346 0.930 . S
N343 C340 1.377 . S
N343 C342 1.344 . S
O344 Co336 2.055 . S
O344 C348 1.253 . S
H345 C341 0.931 . S
H346 C342 0.930 . S
O347 Co336 2.039 . S
O347 C337 1.265 . S
C348 O344 1.253 . S
C348 O349 1.227 . S
O349 C348 1.227 . S
N350 Co336 2.140 . S
N350 C353 1.346 . S
N350 C354 1.345 . S
C351 C352 1.387 . S
C351 C355 1.391 . S
C352 C351 1.387 . S
C352 C353 1.369 . S
C352 H361 0.929 . S
C353 N350 1.346 . S
C353 C352 1.369 . S
C353 H356 0.928 . S
C354 N350 1.345 . S
C354 C355 1.371 . S
C354 H357 0.931 . S
C355 C351 1.391 . S
C355 C354 1.371 . S
C355 H362 0.930 . S
H356 C353 0.928 . S
H357 C354 0.931 . S
H358 C334 0.930 . S
H359 C331 0.930 . S
H360 C340 0.930 . S
H361 C352 0.929 . S
H362 C355 0.930 . S
C363 C364 1.351 . S
C363 N366 1.368 . S
C363 H368 0.931 . S
C364 C363 1.351 . S
C364 N365 1.373 . S
C364 H392 0.930 . S
N365 C364 1.373 . S
N365 C367 1.340 . S
N366 C363 1.368 . S
N366 C367 1.321 . S
N366 Co369 2.135 . S
C367 N365 1.340 . S
C367 N366 1.321 . S
C367 H391 0.930 . S
H368 C363 0.931 . S
Co369 N366 2.135 . S
Co369 N372 2.121 . S
Co369 O377 2.055 . S
Co369 O380 2.039 . S
Co369 N383 2.140 . S
C370 O371 1.227 . S
C370 O380 1.265 . S
O371 C370 1.227 . S
N372 Co369 2.121 . S
N372 C374 1.375 . S
N372 C375 1.313 . S
C373 C374 1.338 . S
C373 N376 1.377 . S
C373 H393 0.930 . S
C374 N372 1.375 . S
C374 C373 1.338 . S
C374 H378 0.931 . S
C375 N372 1.313 . S
C375 N376 1.344 . S
C375 H379 0.930 . S
N376 C373 1.377 . S
N376 C375 1.344 . S
O377 Co369 2.055 . S
O377 C381 1.253 . S
H378 C374 0.931 . S
H379 C375 0.930 . S
O380 Co369 2.039 . S
O380 C370 1.265 . S
C381 O377 1.253 . S
C381 O382 1.227 . S
O382 C381 1.227 . S
N383 Co369 2.140 . S
N383 C386 1.346 . S
N383 C387 1.345 . S
C384 C385 1.387 . S
C384 C388 1.391 . S
C385 C384 1.387 . S
C385 C386 1.369 . S
C385 H394 0.929 . S
C386 N383 1.346 . S
C386 C385 1.369 . S
C386 H389 0.928 . S
C387 N383 1.345 . S
C387 C388 1.371 . S
C387 H390 0.931 . S
C388 C384 1.391 . S
C388 C387 1.371 . S
C388 H395 0.930 . S
H389 C386 0.928 . S
H390 C387 0.931 . S
H391 C367 0.930 . S
H392 C364 0.930 . S
H393 C373 0.930 . S
H394 C385 0.929 . S
H395 C388 0.930 . S
C396 C397 1.351 . S
C396 N399 1.368 . S
C396 H401 0.931 . S
C397 C396 1.351 . S
C397 N398 1.373 . S
C397 H425 0.930 . S
N398 C397 1.373 . S
N398 C400 1.340 . S
N399 C396 1.368 . S
N399 C400 1.321 . S
N399 Co402 2.135 . S
C400 N398 1.340 . S
C400 N399 1.321 . S
C400 H424 0.930 . S
H401 C396 0.931 . S
Co402 N399 2.135 . S
Co402 N405 2.121 . S
Co402 O410 2.055 . S
Co402 O413 2.039 . S
Co402 N416 2.140 . S
C403 O404 1.227 . S
C403 O413 1.265 . S
O404 C403 1.227 . S
N405 Co402 2.121 . S
N405 C407 1.375 . S
N405 C408 1.313 . S
C406 C407 1.338 . S
C406 N409 1.377 . S
C406 H426 0.930 . S
C407 N405 1.375 . S
C407 C406 1.338 . S
C407 H411 0.931 . S
C408 N405 1.313 . S
C408 N409 1.344 . S
C408 H412 0.930 . S
N409 C406 1.377 . S
N409 C408 1.344 . S
O410 Co402 2.055 . S
O410 C414 1.253 . S
H411 C407 0.931 . S
H412 C408 0.930 . S
O413 Co402 2.039 . S
O413 C403 1.265 . S
C414 O410 1.253 . S
C414 O415 1.227 . S
O415 C414 1.227 . S
N416 Co402 2.140 . S
N416 C419 1.346 . S
N416 C420 1.345 . S
C417 C418 1.387 . S
C417 C421 1.391 . S
C418 C417 1.387 . S
C418 C419 1.369 . S
C418 H427 0.929 . S
C419 N416 1.346 . S
C419 C418 1.369 . S
C419 H422 0.928 . S
C420 N416 1.345 . S
C420 C421 1.371 . S
C420 H423 0.931 . S
C421 C417 1.391 . S
C421 C420 1.371 . S
C421 H428 0.930 . S
H422 C419 0.928 . S
H423 C420 0.931 . S
H424 C400 0.930 . S
H425 C397 0.930 . S
H426 C406 0.930 . S
H427 C418 0.929 . S
H428 C421 0.930 . S
C429 C430 1.351 . S
C429 N432 1.368 . S
C429 H434 0.931 . S
C430 C429 1.351 . S
C430 N431 1.373 . S
C430 H458 0.930 . S
N431 C430 1.373 . S
N431 C433 1.340 . S
N432 C429 1.368 . S
N432 C433 1.321 . S
N432 Co435 2.135 . S
C433 N431 1.340 . S
C433 N432 1.321 . S
C433 H457 0.930 . S
H434 C429 0.931 . S
Co435 N432 2.135 . S
Co435 N438 2.121 . S
Co435 O443 2.055 . S
Co435 O446 2.039 . S
Co435 N449 2.140 . S
C436 O437 1.227 . S
C436 O446 1.265 . S
O437 C436 1.227 . S
N438 Co435 2.121 . S
N438 C440 1.375 . S
N438 C441 1.313 . S
C439 C440 1.338 . S
C439 N442 1.377 . S
C439 H459 0.930 . S
C440 N438 1.375 . S
C440 C439 1.338 . S
C440 H444 0.931 . S
C441 N438 1.313 . S
C441 N442 1.344 . S
C441 H445 0.930 . S
N442 C439 1.377 . S
N442 C441 1.344 . S
O443 Co435 2.055 . S
O443 C447 1.253 . S
H444 C440 0.931 . S
H445 C441 0.930 . S
O446 Co435 2.039 . S
O446 C436 1.265 . S
C447 O443 1.253 . S
C447 O448 1.227 . S
O448 C447 1.227 . S
N449 Co435 2.140 . S
N449 C452 1.346 . S
N449 C453 1.345 . S
C450 C451 1.387 . S
C450 C454 1.391 . S
C451 C450 1.387 . S
C451 C452 1.369 . S
C451 H460 0.929 . S
C452 N449 1.346 . S
C452 C451 1.369 . S
C452 H455 0.928 . S
C453 N449 1.345 . S
C453 C454 1.371 . S
C453 H456 0.931 . S
C454 C450 1.391 . S
C454 C453 1.371 . S
C454 H461 0.930 . S
H455 C452 0.928 . S
H456 C453 0.931 . S
H457 C433 0.930 . S
H458 C430 0.930 . S
H459 C439 0.930 . S
H460 C451 0.929 . S
H461 C454 0.930 . S
C462 C463 1.351 . S
C462 N465 1.368 . S
C462 H467 0.931 . S
C463 C462 1.351 . S
C463 N464 1.373 . S
C463 H491 0.930 . S
N464 C463 1.373 . S
N464 C466 1.340 . S
N465 C462 1.368 . S
N465 C466 1.321 . S
N465 Co468 2.135 . S
C466 N464 1.340 . S
C466 N465 1.321 . S
C466 H490 0.930 . S
H467 C462 0.931 . S
Co468 N465 2.135 . S
Co468 N471 2.121 . S
Co468 O476 2.055 . S
Co468 O479 2.039 . S
Co468 N482 2.140 . S
C469 O470 1.227 . S
C469 O479 1.265 . S
O470 C469 1.227 . S
N471 Co468 2.121 . S
N471 C473 1.375 . S
N471 C474 1.313 . S
C472 C473 1.338 . S
C472 N475 1.377 . S
C472 H492 0.930 . S
C473 N471 1.375 . S
C473 C472 1.338 . S
C473 H477 0.931 . S
C474 N471 1.313 . S
C474 N475 1.344 . S
C474 H478 0.930 . S
N475 C472 1.377 . S
N475 C474 1.344 . S
O476 Co468 2.055 . S
O476 C480 1.253 . S
H477 C473 0.931 . S
H478 C474 0.930 . S
O479 Co468 2.039 . S
O479 C469 1.265 . S
C480 O476 1.253 . S
C480 O481 1.227 . S
O481 C480 1.227 . S
N482 Co468 2.140 . S
N482 C485 1.346 . S
N482 C486 1.345 . S
C483 C484 1.387 . S
C483 C487 1.391 . S
C484 C483 1.387 . S
C484 C485 1.369 . S
C484 H493 0.929 . S
C485 N482 1.346 . S
C485 C484 1.369 . S
C485 H488 0.928 . S
C486 N482 1.345 . S
C486 C487 1.371 . S
C486 H489 0.931 . S
C487 C483 1.391 . S
C487 C486 1.371 . S
C487 H494 0.930 . S
H488 C485 0.928 . S
H489 C486 0.931 . S
H490 C466 0.930 . S
H491 C463 0.930 . S
H492 C472 0.930 . S
H493 C484 0.929 . S
H494 C487 0.930 . S
C495 C496 1.351 . S
C495 N498 1.368 . S
C495 H500 0.931 . S
C496 C495 1.351 . S
C496 N497 1.373 . S
C496 H524 0.930 . S
N497 C496 1.373 . S
N497 C499 1.340 . S
N498 C495 1.368 . S
N498 C499 1.321 . S
N498 Co501 2.135 . S
C499 N497 1.340 . S
C499 N498 1.321 . S
C499 H523 0.930 . S
H500 C495 0.931 . S
Co501 N498 2.135 . S
Co501 N504 2.121 . S
Co501 O509 2.055 . S
Co501 O512 2.039 . S
Co501 N515 2.140 . S
C502 O503 1.227 . S
C502 O512 1.265 . S
O503 C502 1.227 . S
N504 Co501 2.121 . S
N504 C506 1.375 . S
N504 C507 1.313 . S
C505 C506 1.338 . S
C505 N508 1.377 . S
C505 H525 0.930 . S
C506 N504 1.375 . S
C506 C505 1.338 . S
C506 H510 0.931 . S
C507 N504 1.313 . S
C507 N508 1.344 . S
C507 H511 0.930 . S
N508 C505 1.377 . S
N508 C507 1.344 . S
O509 Co501 2.055 . S
O509 C513 1.253 . S
H510 C506 0.931 . S
H511 C507 0.930 . S
O512 Co501 2.039 . S
O512 C502 1.265 . S
C513 O509 1.253 . S
C513 O514 1.227 . S
O514 C513 1.227 . S
N515 Co501 2.140 . S
N515 C518 1.346 . S
N515 C519 1.345 . S
C516 C517 1.387 . S
C516 C520 1.391 . S
C517 C516 1.387 . S
C517 C518 1.369 . S
C517 H526 0.929 . S
C518 N515 1.346 . S
C518 C517 1.369 . S
C518 H521 0.928 . S
C519 N515 1.345 . S
C519 C520 1.371 . S
C519 H522 0.931 . S
C520 C516 1.391 . S
C520 C519 1.371 . S
C520 H527 0.930 . S
H521 C518 0.928 . S
H522 C519 0.931 . S
H523 C499 0.930 . S
H524 C496 0.930 . S
H525 C505 0.930 . S
H526 C517 0.929 . S
H527 C520 0.930 . S
C528 C529 1.349 . S
C528 C530 1.327 . S
C528 H553 0.950 . S
C529 C528 1.349 . S
C529 C545 1.349 . S
C530 C528 1.327 . S
C530 C549 1.429 . S
C530 H554 0.950 . S
C531 C548 1.574 . S
C531 C550 1.368 1_455 S
C531 H555 0.949 . S
H532 C536 0.949 . S
C533 C534 1.349 . S
C533 C535 1.327 . S
C533 H556 0.950 . S
C534 C533 1.349 . S
C534 C546 1.349 . S
C535 C533 1.327 . S
C535 C551 1.429 . S
C535 H557 0.950 . S
C536 H532 0.949 . S
C536 C544 1.574 . S
C536 C552 1.368 1_655 S
H537 C545 0.950 . S
H538 C543 0.950 . S
H539 C544 0.949 . S
H540 C546 0.950 . S
H541 C547 0.950 . S
H542 C548 0.949 . S
C543 H538 0.950 . S
C543 C545 1.327 . S
C543 C549 1.429 . S
C544 C536 1.574 . S
C544 H539 0.949 . S
C544 C550 1.368 . S
C545 C529 1.349 . S
C545 H537 0.950 . S
C545 C543 1.327 . S
C546 C534 1.349 . S
C546 H540 0.950 . S
C546 C547 1.327 . S
C547 H541 0.950 . S
C547 C546 1.327 . S
C547 C551 1.429 . S
C548 C531 1.574 . S
C548 H542 0.949 . S
C548 C552 1.368 . S
C549 C530 1.429 . S
C549 C543 1.429 . S
C549 C550 1.523 . S
C550 C531 1.368 1_655 S
C550 C544 1.368 . S
C550 C549 1.523 . S
C551 C535 1.429 . S
C551 C547 1.429 . S
C551 C552 1.523 . S
C552 C536 1.368 1_455 S
C552 C548 1.368 . S
C552 C551 1.523 . S
H553 C528 0.950 . S
H554 C530 0.950 . S
H555 C531 0.949 . S
H556 C533 0.950 . S
H557 C535 0.950 . S
C558 C559 1.349 . S
C558 C560 1.327 . S
C558 H583 0.950 . S
C559 C558 1.349 . S
C559 C575 1.349 . S
C560 C558 1.327 . S
C560 C579 1.429 . S
C560 H584 0.950 . S
C561 C578 1.574 . S
C561 C580 1.368 . S
C561 H585 0.949 . S
H562 C566 0.949 . S
C563 C564 1.349 . S
C563 C565 1.327 . S
C563 H586 0.950 . S
C564 C563 1.349 . S
C564 C576 1.349 . S
C565 C563 1.327 . S
C565 C581 1.429 . S
C565 H587 0.950 . S
C566 H562 0.949 . S
C566 C574 1.574 . S
C566 C582 1.368 . S
H567 C575 0.950 . S
H568 C573 0.950 . S
H569 C574 0.949 . S
H570 C576 0.950 . S
H571 C577 0.950 . S
H572 C578 0.949 . S
C573 H568 0.950 . S
C573 C575 1.327 . S
C573 C579 1.429 . S
C574 C566 1.574 . S
C574 H569 0.949 . S
C574 C580 1.368 . S
C575 C559 1.349 . S
C575 H567 0.950 . S
C575 C573 1.327 . S
C576 C564 1.349 . S
C576 H570 0.950 . S
C576 C577 1.327 . S
C577 H571 0.950 . S
C577 C576 1.327 . S
C577 C581 1.429 . S
C578 C561 1.574 . S
C578 H572 0.949 . S
C578 C582 1.368 . S
C579 C560 1.429 . S
C579 C573 1.429 . S
C579 C580 1.523 . S
C580 C561 1.368 . S
C580 C574 1.368 . S
C580 C579 1.523 . S
C581 C565 1.429 . S
C581 C577 1.429 . S
C581 C582 1.523 . S
C582 C566 1.368 . S
C582 C578 1.368 . S
C582 C581 1.523 . S
H583 C558 0.950 . S
H584 C560 0.950 . S
H585 C561 0.949 . S
H586 C563 0.950 . S
H587 C565 0.950 . S
C588 C589 1.349 . S
C588 C590 1.327 . S
C588 H613 0.950 . S
C589 C588 1.349 . S
C589 C605 1.349 . S
C590 C588 1.327 . S
C590 C609 1.429 . S
C590 H614 0.950 . S
C591 C608 1.574 . S
C591 C610 1.368 . S
C591 H615 0.949 . S
H592 C596 0.949 . S
C593 C594 1.349 . S
C593 C595 1.327 . S
C593 H616 0.950 . S
C594 C593 1.349 . S
C594 C606 1.349 . S
C595 C593 1.327 . S
C595 C611 1.429 . S
C595 H617 0.950 . S
C596 H592 0.949 . S
C596 C604 1.574 . S
C596 C612 1.368 . S
H597 C605 0.950 . S
H598 C603 0.950 . S
H599 C604 0.949 . S
H600 C606 0.950 . S
H601 C607 0.950 . S
H602 C608 0.949 . S
C603 H598 0.950 . S
C603 C605 1.327 . S
C603 C609 1.429 . S
C604 C596 1.574 . S
C604 H599 0.949 . S
C604 C610 1.368 1_455 S
C605 C589 1.349 . S
C605 H597 0.950 . S
C605 C603 1.327 . S
C606 C594 1.349 . S
C606 H600 0.950 . S
C606 C607 1.327 . S
C607 H601 0.950 . S
C607 C606 1.327 . S
C607 C611 1.429 . S
C608 C591 1.574 . S
C608 H602 0.949 . S
C608 C612 1.368 1_655 S
C609 C590 1.429 . S
C609 C603 1.429 . S
C609 C610 1.523 . S
C610 C591 1.368 . S
C610 C604 1.368 1_655 S
C610 C609 1.523 . S
C611 C595 1.429 . S
C611 C607 1.429 . S
C611 C612 1.523 . S
C612 C596 1.368 . S
C612 C608 1.368 1_455 S
C612 C611 1.523 . S
H613 C588 0.950 . S
H614 C590 0.950 . S
H615 C591 0.949 . S
H616 C593 0.950 . S
H617 C595 0.950 . S
C618 C619 1.349 . S
C618 C620 1.327 . S
C618 H643 0.950 . S
C619 C618 1.349 . S
C619 C635 1.349 . S
C620 C618 1.327 . S
C620 C639 1.429 . S
C620 H644 0.950 . S
C621 C638 1.574 . S
C621 C640 1.368 . S
C621 H645 0.949 . S
H622 C626 0.949 . S
C623 C624 1.349 . S
C623 C625 1.327 . S
C623 H646 0.950 . S
C624 C623 1.349 . S
C624 C636 1.349 . S
C625 C623 1.327 . S
C625 C641 1.429 . S
C625 H647 0.950 . S
C626 H622 0.949 . S
C626 C634 1.574 . S
C626 C642 1.368 . S
H627 C635 0.950 . S
H628 C633 0.950 . S
H629 C634 0.949 . S
H630 C636 0.950 . S
H631 C637 0.950 . S
H632 C638 0.949 . S
C633 H628 0.950 . S
C633 C635 1.327 . S
C633 C639 1.429 . S
C634 C626 1.574 . S
C634 H629 0.949 . S
C634 C640 1.368 . S
C635 C619 1.349 . S
C635 H627 0.950 . S
C635 C633 1.327 . S
C636 C624 1.349 . S
C636 H630 0.950 . S
C636 C637 1.327 . S
C637 H631 0.950 . S
C637 C636 1.327 . S
C637 C641 1.429 . S
C638 C621 1.574 . S
C638 H632 0.949 . S
C638 C642 1.368 . S
C639 C620 1.429 . S
C639 C633 1.429 . S
C639 C640 1.523 . S
C640 C621 1.368 . S
C640 C634 1.368 . S
C640 C639 1.523 . S
C641 C625 1.429 . S
C641 C637 1.429 . S
C641 C642 1.523 . S
C642 C626 1.368 . S
C642 C638 1.368 . S
C642 C641 1.523 . S
H643 C618 0.950 . S
H644 C620 0.950 . S
H645 C621 0.949 . S
H646 C623 0.950 . S
H647 C625 0.950 . S
C648 C649 1.349 . S
C648 C650 1.327 . S
C648 H673 0.950 . S
C649 C648 1.349 . S
C649 C665 1.349 . S
C650 C648 1.327 . S
C650 C669 1.429 . S
C650 H674 0.950 . S
C651 C668 1.574 . S
C651 C670 1.368 . S
C651 H675 0.949 . S
H652 C656 0.949 . S
C653 C654 1.349 . S
C653 C655 1.327 . S
C653 H676 0.950 . S
C654 C653 1.349 . S
C654 C666 1.349 . S
C655 C653 1.327 . S
C655 C671 1.429 . S
C655 H677 0.950 . S
C656 H652 0.949 . S
C656 C664 1.574 . S
C656 C672 1.368 . S
H657 C665 0.950 . S
H658 C663 0.950 . S
H659 C664 0.949 . S
H660 C666 0.950 . S
H661 C667 0.950 . S
H662 C668 0.949 . S
C663 H658 0.950 . S
C663 C665 1.327 . S
C663 C669 1.429 . S
C664 C656 1.574 . S
C664 H659 0.949 . S
C664 C670 1.368 . S
C665 C649 1.349 . S
C665 H657 0.950 . S
C665 C663 1.327 . S
C666 C654 1.349 . S
C666 H660 0.950 . S
C666 C667 1.327 . S
C667 H661 0.950 . S
C667 C666 1.327 . S
C667 C671 1.429 . S
C668 C651 1.574 . S
C668 H662 0.949 . S
C668 C672 1.368 . S
C669 C650 1.429 . S
C669 C663 1.429 . S
C669 C670 1.523 . S
C670 C651 1.368 . S
C670 C664 1.368 . S
C670 C669 1.523 . S
C671 C655 1.429 . S
C671 C667 1.429 . S
C671 C672 1.523 . S
C672 C656 1.368 . S
C672 C668 1.368 . S
C672 C671 1.523 . S
H673 C648 0.950 . S
H674 C650 0.950 . S
H675 C651 0.949 . S
H676 C653 0.950 . S
H677 C655 0.950 . S
C678 C679 1.349 . S
C678 C680 1.327 . S
C678 H703 0.950 . S
C679 C678 1.349 . S
C679 C695 1.349 . S
C680 C678 1.327 . S
C680 C699 1.429 . S
C680 H704 0.950 . S
C681 C698 1.574 . S
C681 C700 1.368 1_455 S
C681 H705 0.949 . S
H682 C686 0.949 . S
C683 C684 1.349 . S
C683 C685 1.327 . S
C683 H706 0.950 . S
C684 C683 1.349 . S
C684 C696 1.349 . S
C685 C683 1.327 . S
C685 C701 1.429 . S
C685 H707 0.950 . S
C686 H682 0.949 . S
C686 C694 1.574 . S
C686 C702 1.368 1_655 S
H687 C695 0.950 . S
H688 C693 0.950 . S
H689 C694 0.949 . S
H690 C696 0.950 . S
H691 C697 0.950 . S
H692 C698 0.949 . S
C693 H688 0.950 . S
C693 C695 1.327 . S
C693 C699 1.429 . S
C694 C686 1.574 . S
C694 H689 0.949 . S
C694 C700 1.368 . S
C695 C679 1.349 . S
C695 H687 0.950 . S
C695 C693 1.327 . S
C696 C684 1.349 . S
C696 H690 0.950 . S
C696 C697 1.327 . S
C697 H691 0.950 . S
C697 C696 1.327 . S
C697 C701 1.429 . S
C698 C681 1.574 . S
C698 H692 0.949 . S
C698 C702 1.368 . S
C699 C680 1.429 . S
C699 C693 1.429 . S
C699 C700 1.523 . S
C700 C681 1.368 1_655 S
C700 C694 1.368 . S
C700 C699 1.523 . S
C701 C685 1.429 . S
C701 C697 1.429 . S
C701 C702 1.523 . S
C702 C686 1.368 1_455 S
C702 C698 1.368 . S
C702 C701 1.523 . S
H703 C678 0.950 . S
H704 C680 0.950 . S
H705 C681 0.949 . S
H706 C683 0.950 . S
H707 C685 0.950 . S
C708 C709 1.349 . S
C708 C710 1.327 . S
C708 H733 0.950 . S
C709 C708 1.349 . S
C709 C725 1.349 . S
C710 C708 1.327 . S
C710 C729 1.429 . S
C710 H734 0.950 . S
C711 C728 1.574 . S
C711 C730 1.368 . S
C711 H735 0.949 . S
H712 C716 0.949 . S
C713 C714 1.349 . S
C713 C715 1.327 . S
C713 H736 0.950 . S
C714 C713 1.349 . S
C714 C726 1.349 . S
C715 C713 1.327 . S
C715 C731 1.429 . S
C715 H737 0.950 . S
C716 H712 0.949 . S
C716 C724 1.574 . S
C716 C732 1.368 . S
H717 C725 0.950 . S
H718 C723 0.950 . S
H719 C724 0.949 . S
H720 C726 0.950 . S
H721 C727 0.950 . S
H722 C728 0.949 . S
C723 H718 0.950 . S
C723 C725 1.327 . S
C723 C729 1.429 . S
C724 C716 1.574 . S
C724 H719 0.949 . S
C724 C730 1.368 . S
C725 C709 1.349 . S
C725 H717 0.950 . S
C725 C723 1.327 . S
C726 C714 1.349 . S
C726 H720 0.950 . S
C726 C727 1.327 . S
C727 H721 0.950 . S
C727 C726 1.327 . S
C727 C731 1.429 . S
C728 C711 1.574 . S
C728 H722 0.949 . S
C728 C732 1.368 . S
C729 C710 1.429 . S
C729 C723 1.429 . S
C729 C730 1.523 . S
C730 C711 1.368 . S
C730 C724 1.368 . S
C730 C729 1.523 . S
C731 C715 1.429 . S
C731 C727 1.429 . S
C731 C732 1.523 . S
C732 C716 1.368 . S
C732 C728 1.368 . S
C732 C731 1.523 . S
H733 C708 0.950 . S
H734 C710 0.950 . S
H735 C711 0.949 . S
H736 C713 0.950 . S
H737 C715 0.950 . S
C738 C739 1.349 . S
C738 C740 1.327 . S
C738 H763 0.950 . S
C739 C738 1.349 . S
C739 C755 1.349 . S
C740 C738 1.327 . S
C740 C759 1.429 . S
C740 H764 0.950 . S
C741 C758 1.574 . S
C741 C760 1.368 1_455 S
C741 H765 0.949 . S
H742 C746 0.949 . S
C743 C744 1.349 . S
C743 C745 1.327 . S
C743 H766 0.950 . S
C744 C743 1.349 . S
C744 C756 1.349 . S
C745 C743 1.327 . S
C745 C761 1.429 . S
C745 H767 0.950 . S
C746 H742 0.949 . S
C746 C754 1.574 . S
C746 C762 1.368 1_655 S
H747 C755 0.950 . S
H748 C753 0.950 . S
H749 C754 0.949 . S
H750 C756 0.950 . S
H751 C757 0.950 . S
H752 C758 0.949 . S
C753 H748 0.950 . S
C753 C755 1.327 . S
C753 C759 1.429 . S
C754 C746 1.574 . S
C754 H749 0.949 . S
C754 C760 1.368 . S
C755 C739 1.349 . S
C755 H747 0.950 . S
C755 C753 1.327 . S
C756 C744 1.349 . S
C756 H750 0.950 . S
C756 C757 1.327 . S
C757 H751 0.950 . S
C757 C756 1.327 . S
C757 C761 1.429 . S
C758 C741 1.574 . S
C758 H752 0.949 . S
C758 C762 1.368 . S
C759 C740 1.429 . S
C759 C753 1.429 . S
C759 C760 1.523 . S
C760 C741 1.368 1_655 S
C760 C754 1.368 . S
C760 C759 1.523 . S
C761 C745 1.429 . S
C761 C757 1.429 . S
C761 C762 1.523 . S
C762 C746 1.368 1_455 S
C762 C758 1.368 . S
C762 C761 1.523 . S
H763 C738 0.950 . S
H764 C740 0.950 . S
H765 C741 0.949 . S
H766 C743 0.950 . S
H767 C745 0.950 . S
C768 C769 1.349 . S
C768 C770 1.327 . S
C768 H793 0.950 . S
C769 C768 1.349 . S
C769 C785 1.349 . S
C770 C768 1.327 . S
C770 C789 1.429 . S
C770 H794 0.950 . S
C771 C788 1.574 . S
C771 C790 1.368 . S
C771 H795 0.949 . S
H772 C776 0.949 . S
C773 C774 1.349 . S
C773 C775 1.327 . S
C773 H796 0.950 . S
C774 C773 1.349 . S
C774 C786 1.349 . S
C775 C773 1.327 . S
C775 C791 1.429 . S
C775 H797 0.950 . S
C776 H772 0.949 . S
C776 C784 1.574 . S
C776 C792 1.368 . S
H777 C785 0.950 . S
H778 C783 0.950 . S
H779 C784 0.949 . S
H780 C786 0.950 . S
H781 C787 0.950 . S
H782 C788 0.949 . S
C783 H778 0.950 . S
C783 C785 1.327 . S
C783 C789 1.429 . S
C784 C776 1.574 . S
C784 H779 0.949 . S
C784 C790 1.368 . S
C785 C769 1.349 . S
C785 H777 0.950 . S
C785 C783 1.327 . S
C786 C774 1.349 . S
C786 H780 0.950 . S
C786 C787 1.327 . S
C787 H781 0.950 . S
C787 C786 1.327 . S
C787 C791 1.429 . S
C788 C771 1.574 . S
C788 H782 0.949 . S
C788 C792 1.368 . S
C789 C770 1.429 . S
C789 C783 1.429 . S
C789 C790 1.523 . S
C790 C771 1.368 . S
C790 C784 1.368 . S
C790 C789 1.523 . S
C791 C775 1.429 . S
C791 C787 1.429 . S
C791 C792 1.523 . S
C792 C776 1.368 . S
C792 C788 1.368 . S
C792 C791 1.523 . S
H793 C768 0.950 . S
H794 C770 0.950 . S
H795 C771 0.949 . S
H796 C773 0.950 . S
H797 C775 0.950 . S
C798 C799 1.349 . S
C798 C800 1.327 . S
C798 H823 0.950 . S
C799 C798 1.349 . S
C799 C815 1.349 . S
C800 C798 1.327 . S
C800 C819 1.429 . S
C800 H824 0.950 . S
C801 C818 1.574 . S
C801 C820 1.368 . S
C801 H825 0.949 . S
H802 C806 0.949 . S
C803 C804 1.349 . S
C803 C805 1.327 . S
C803 H826 0.950 . S
C804 C803 1.349 . S
C804 C816 1.349 . S
C805 C803 1.327 . S
C805 C821 1.429 . S
C805 H827 0.950 . S
C806 H802 0.949 . S
C806 C814 1.574 . S
C806 C822 1.368 . S
H807 C815 0.950 . S
H808 C813 0.950 . S
H809 C814 0.949 . S
H810 C816 0.950 . S
H811 C817 0.950 . S
H812 C818 0.949 . S
C813 H808 0.950 . S
C813 C815 1.327 . S
C813 C819 1.429 . S
C814 C806 1.574 . S
C814 H809 0.949 . S
C814 C820 1.368 . S
C815 C799 1.349 . S
C815 H807 0.950 . S
C815 C813 1.327 . S
C816 C804 1.349 . S
C816 H810 0.950 . S
C816 C817 1.327 . S
C817 H811 0.950 . S
C817 C816 1.327 . S
C817 C821 1.429 . S
C818 C801 1.574 . S
C818 H812 0.949 . S
C818 C822 1.368 . S
C819 C800 1.429 . S
C819 C813 1.429 . S
C819 C820 1.523 . S
C820 C801 1.368 . S
C820 C814 1.368 . S
C820 C819 1.523 . S
C821 C805 1.429 . S
C821 C817 1.429 . S
C821 C822 1.523 . S
C822 C806 1.368 . S
C822 C818 1.368 . S
C822 C821 1.523 . S
H823 C798 0.950 . S
H824 C800 0.950 . S
H825 C801 0.949 . S
H826 C803 0.950 . S
H827 C805 0.950 . S
C828 C829 1.349 . S
C828 C830 1.327 . S
C828 H853 0.950 . S
C829 C828 1.349 . S
C829 C845 1.349 . S
C830 C828 1.327 . S
C830 C849 1.429 . S
C830 H854 0.950 . S
C831 C848 1.574 . S
C831 C850 1.368 . S
C831 H855 0.949 . S
H832 C836 0.949 . S
C833 C834 1.349 . S
C833 C835 1.327 . S
C833 H856 0.950 . S
C834 C833 1.349 . S
C834 C846 1.349 . S
C835 C833 1.327 . S
C835 C851 1.429 . S
C835 H857 0.950 . S
C836 H832 0.949 . S
C836 C844 1.574 . S
C836 C852 1.368 . S
H837 C845 0.950 . S
H838 C843 0.950 . S
H839 C844 0.949 . S
H840 C846 0.950 . S
H841 C847 0.950 . S
H842 C848 0.949 . S
C843 H838 0.950 . S
C843 C845 1.327 . S
C843 C849 1.429 . S
C844 C836 1.574 . S
C844 H839 0.949 . S
C844 C850 1.368 . S
C845 C829 1.349 . S
C845 H837 0.950 . S
C845 C843 1.327 . S
C846 C834 1.349 . S
C846 H840 0.950 . S
C846 C847 1.327 . S
C847 H841 0.950 . S
C847 C846 1.327 . S
C847 C851 1.429 . S
C848 C831 1.574 . S
C848 H842 0.949 . S
C848 C852 1.368 . S
C849 C830 1.429 . S
C849 C843 1.429 . S
C849 C850 1.523 . S
C850 C831 1.368 . S
C850 C844 1.368 . S
C850 C849 1.523 . S
C851 C835 1.429 . S
C851 C847 1.429 . S
C851 C852 1.523 . S
C852 C836 1.368 . S
C852 C848 1.368 . S
C852 C851 1.523 . S
H853 C828 0.950 . S
H854 C830 0.950 . S
H855 C831 0.949 . S
H856 C833 0.950 . S
H857 C835 0.950 . S
C858 C859 1.349 . S
C858 C860 1.327 . S
C858 H883 0.950 . S
C859 C858 1.349 . S
C859 C875 1.349 . S
C860 C858 1.327 . S
C860 C879 1.429 . S
C860 H884 0.950 . S
C861 C878 1.574 . S
C861 C880 1.368 . S
C861 H885 0.949 . S
H862 C866 0.949 . S
C863 C864 1.349 . S
C863 C865 1.327 . S
C863 H886 0.950 . S
C864 C863 1.349 . S
C864 C876 1.349 . S
C865 C863 1.327 . S
C865 C881 1.429 . S
C865 H887 0.950 . S
C866 H862 0.949 . S
C866 C874 1.574 . S
C866 C882 1.368 . S
H867 C875 0.950 . S
H868 C873 0.950 . S
H869 C874 0.949 . S
H870 C876 0.950 . S
H871 C877 0.950 . S
H872 C878 0.949 . S
C873 H868 0.950 . S
C873 C875 1.327 . S
C873 C879 1.429 . S
C874 C866 1.574 . S
C874 H869 0.949 . S
C874 C880 1.368 . S
C875 C859 1.349 . S
C875 H867 0.950 . S
C875 C873 1.327 . S
C876 C864 1.349 . S
C876 H870 0.950 . S
C876 C877 1.327 . S
C877 H871 0.950 . S
C877 C876 1.327 . S
C877 C881 1.429 . S
C878 C861 1.574 . S
C878 H872 0.949 . S
C878 C882 1.368 . S
C879 C860 1.429 . S
C879 C873 1.429 . S
C879 C880 1.523 . S
C880 C861 1.368 . S
C880 C874 1.368 . S
C880 C879 1.523 . S
C881 C865 1.429 . S
C881 C877 1.429 . S
C881 C882 1.523 . S
C882 C866 1.368 . S
C882 C878 1.368 . S
C882 C881 1.523 . S
H883 C858 0.950 . S
H884 C860 0.950 . S
H885 C861 0.949 . S
H886 C863 0.950 . S
H887 C865 0.950 . S
C888 C889 1.349 . S
C888 C890 1.327 . S
C888 H913 0.950 . S
C889 C888 1.349 . S
C889 C905 1.349 . S
C890 C888 1.327 . S
C890 C909 1.429 . S
C890 H914 0.950 . S
C891 C908 1.574 . S
C891 C910 1.368 . S
C891 H915 0.949 . S
H892 C896 0.949 . S
C893 C894 1.349 . S
C893 C895 1.327 . S
C893 H916 0.950 . S
C894 C893 1.349 . S
C894 C906 1.349 . S
C895 C893 1.327 . S
C895 C911 1.429 . S
C895 H917 0.950 . S
C896 H892 0.949 . S
C896 C904 1.574 . S
C896 C912 1.368 . S
H897 C905 0.950 . S
H898 C903 0.950 . S
H899 C904 0.949 . S
H900 C906 0.950 . S
H901 C907 0.950 . S
H902 C908 0.949 . S
C903 H898 0.950 . S
C903 C905 1.327 . S
C903 C909 1.429 . S
C904 C896 1.574 . S
C904 H899 0.949 . S
C904 C910 1.368 . S
C905 C889 1.349 . S
C905 H897 0.950 . S
C905 C903 1.327 . S
C906 C894 1.349 . S
C906 H900 0.950 . S
C906 C907 1.327 . S
C907 H901 0.950 . S
C907 C906 1.327 . S
C907 C911 1.429 . S
C908 C891 1.574 . S
C908 H902 0.949 . S
C908 C912 1.368 . S
C909 C890 1.429 . S
C909 C903 1.429 . S
C909 C910 1.523 . S
C910 C891 1.368 . S
C910 C904 1.368 . S
C910 C909 1.523 . S
C911 C895 1.429 . S
C911 C907 1.429 . S
C911 C912 1.523 . S
C912 C896 1.368 . S
C912 C908 1.368 . S
C912 C911 1.523 . S
H913 C888 0.950 . S
H914 C890 0.950 . S
H915 C891 0.949 . S
H916 C893 0.950 . S
H917 C895 0.950 . S
C918 C919 1.349 . S
C918 C920 1.327 . S
C918 H943 0.950 . S
C919 C918 1.349 . S
C919 C935 1.349 . S
C920 C918 1.327 . S
C920 C939 1.429 . S
C920 H944 0.950 . S
C921 C938 1.574 . S
C921 C940 1.368 . S
C921 H945 0.949 . S
H922 C926 0.949 . S
C923 C924 1.349 . S
C923 C925 1.327 . S
C923 H946 0.950 . S
C924 C923 1.349 . S
C924 C936 1.349 . S
C925 C923 1.327 . S
C925 C941 1.429 . S
C925 H947 0.950 . S
C926 H922 0.949 . S
C926 C934 1.574 . S
C926 C942 1.368 . S
H927 C935 0.950 . S
H928 C933 0.950 . S
H929 C934 0.949 . S
H930 C936 0.950 . S
H931 C937 0.950 . S
H932 C938 0.949 . S
C933 H928 0.950 . S
C933 C935 1.327 . S
C933 C939 1.429 . S
C934 C926 1.574 . S
C934 H929 0.949 . S
C934 C940 1.368 . S
C935 C919 1.349 . S
C935 H927 0.950 . S
C935 C933 1.327 . S
C936 C924 1.349 . S
C936 H930 0.950 . S
C936 C937 1.327 . S
C937 H931 0.950 . S
C937 C936 1.327 . S
C937 C941 1.429 . S
C938 C921 1.574 . S
C938 H932 0.949 . S
C938 C942 1.368 . S
C939 C920 1.429 . S
C939 C933 1.429 . S
C939 C940 1.523 . S
C940 C921 1.368 . S
C940 C934 1.368 . S
C940 C939 1.523 . S
C941 C925 1.429 . S
C941 C937 1.429 . S
C941 C942 1.523 . S
C942 C926 1.368 . S
C942 C938 1.368 . S
C942 C941 1.523 . S
H943 C918 0.950 . S
H944 C920 0.950 . S
H945 C921 0.949 . S
H946 C923 0.950 . S
H947 C925 0.950 . S
C948 C949 1.349 . S
C948 C950 1.327 . S
C948 H973 0.950 . S
C949 C948 1.349 . S
C949 C965 1.349 . S
C950 C948 1.327 . S
C950 C969 1.429 . S
C950 H974 0.950 . S
C951 C968 1.574 . S
C951 C970 1.368 . S
C951 H975 0.949 . S
H952 C956 0.949 . S
C953 C954 1.349 . S
C953 C955 1.327 . S
C953 H976 0.950 . S
C954 C953 1.349 . S
C954 C966 1.349 . S
C955 C953 1.327 . S
C955 C971 1.429 . S
C955 H977 0.950 . S
C956 H952 0.949 . S
C956 C964 1.574 . S
C956 C972 1.368 . S
H957 C965 0.950 . S
H958 C963 0.950 . S
H959 C964 0.949 . S
H960 C966 0.950 . S
H961 C967 0.950 . S
H962 C968 0.949 . S
C963 H958 0.950 . S
C963 C965 1.327 . S
C963 C969 1.429 . S
C964 C956 1.574 . S
C964 H959 0.949 . S
C964 C970 1.368 . S
C965 C949 1.349 . S
C965 H957 0.950 . S
C965 C963 1.327 . S
C966 C954 1.349 . S
C966 H960 0.950 . S
C966 C967 1.327 . S
C967 H961 0.950 . S
C967 C966 1.327 . S
C967 C971 1.429 . S
C968 C951 1.574 . S
C968 H962 0.949 . S
C968 C972 1.368 . S
C969 C950 1.429 . S
C969 C963 1.429 . S
C969 C970 1.523 . S
C970 C951 1.368 . S
C970 C964 1.368 . S
C970 C969 1.523 . S
C971 C955 1.429 . S
C971 C967 1.429 . S
C971 C972 1.523 . S
C972 C956 1.368 . S
C972 C968 1.368 . S
C972 C971 1.523 . S
H973 C948 0.950 . S
H974 C950 0.950 . S
H975 C951 0.949 . S
H976 C953 0.950 . S
H977 C955 0.950 . S
C978 C979 1.349 . S
C978 C980 1.327 . S
C978 H1003 0.950 . S
C979 C978 1.349 . S
C979 C995 1.349 . S
C980 C978 1.327 . S
C980 C999 1.429 . S
C980 H1004 0.950 . S
C981 C998 1.574 . S
C981 C1000 1.368 . S
C981 H1005 0.949 . S
H982 C986 0.949 . S
C983 C984 1.349 . S
C983 C985 1.327 . S
C983 H1006 0.950 . S
C984 C983 1.349 . S
C984 C996 1.349 . S
C985 C983 1.327 . S
C985 C1001 1.429 . S
C985 H1007 0.950 . S
C986 H982 0.949 . S
C986 C994 1.574 . S
C986 C1002 1.368 . S
H987 C995 0.950 . S
H988 C993 0.950 . S
H989 C994 0.949 . S
H990 C996 0.950 . S
H991 C997 0.950 . S
H992 C998 0.949 . S
C993 H988 0.950 . S
C993 C995 1.327 . S
C993 C999 1.429 . S
C994 C986 1.574 . S
C994 H989 0.949 . S
C994 C1000 1.368 . S
C995 C979 1.349 . S
C995 H987 0.950 . S
C995 C993 1.327 . S
C996 C984 1.349 . S
C996 H990 0.950 . S
C996 C997 1.327 . S
C997 H991 0.950 . S
C997 C996 1.327 . S
C997 C1001 1.429 . S
C998 C981 1.574 . S
C998 H992 0.949 . S
C998 C1002 1.368 . S
C999 C980 1.429 . S
C999 C993 1.429 . S
C999 C1000 1.523 . S
C1000 C981 1.368 . S
C1000 C994 1.368 . S
C1000 C999 1.523 . S
C1001 C985 1.429 . S
C1001 C997 1.429 . S
C1001 C1002 1.523 . S
C1002 C986 1.368 . S
C1002 C998 1.368 . S
C1002 C1001 1.523 . S
H1003 C978 0.950 . S
H1004 C980 0.950 . S
H1005 C981 0.949 . S
H1006 C983 0.950 . S
H1007 C985 0.950 . S
C1008 C1009 1.349 . S
C1008 C1010 1.327 . S
C1008 H1033 0.950 . S
C1009 C1008 1.349 . S
C1009 C1025 1.349 . S
C1010 C1008 1.327 . S
C1010 C1029 1.429 . S
C1010 H1034 0.950 . S
C1011 C1028 1.574 . S
C1011 C1030 1.368 1_565 S
C1011 H1035 0.949 . S
H1012 C1016 0.949 . S
C1013 C1014 1.349 . S
C1013 C1015 1.327 . S
C1013 H1036 0.950 . S
C1014 C1013 1.349 . S
C1014 C1026 1.349 . S
C1015 C1013 1.327 . S
C1015 C1031 1.429 . S
C1015 H1037 0.950 . S
C1016 H1012 0.949 . S
C1016 C1024 1.574 . S
C1016 C1032 1.368 1_545 S
H1017 C1025 0.950 . S
H1018 C1023 0.950 1_565 S
H1019 C1024 0.949 . S
H1020 C1026 0.950 . S
H1021 C1027 0.950 1_545 S
H1022 C1028 0.949 . S
C1023 H1018 0.950 1_545 S
C1023 C1025 1.327 . S
C1023 C1029 1.429 . S
C1024 C1016 1.574 . S
C1024 H1019 0.949 . S
C1024 C1030 1.368 1_655 S
C1025 C1009 1.349 . S
C1025 H1017 0.950 . S
C1025 C1023 1.327 . S
C1026 C1014 1.349 . S
C1026 H1020 0.950 . S
C1026 C1027 1.327 . S
C1027 H1021 0.950 1_565 S
C1027 C1026 1.327 . S
C1027 C1031 1.429 . S
C1028 C1011 1.574 . S
C1028 H1022 0.949 . S
C1028 C1032 1.368 1_455 S
C1029 C1010 1.429 . S
C1029 C1023 1.429 . S
C1029 C1030 1.523 . S
C1030 C1011 1.368 1_545 S
C1030 C1024 1.368 1_455 S
C1030 C1029 1.523 . S
C1031 C1015 1.429 . S
C1031 C1027 1.429 . S
C1031 C1032 1.523 . S
C1032 C1016 1.368 1_565 S
C1032 C1028 1.368 1_655 S
C1032 C1031 1.523 . S
H1033 C1008 0.950 . S
H1034 C1010 0.950 . S
H1035 C1011 0.949 . S
H1036 C1013 0.950 . S
H1037 C1015 0.950 . S
C1038 C1039 1.349 . S
C1038 C1040 1.327 . S
C1038 H1063 0.950 . S
C1039 C1038 1.349 . S
C1039 C1055 1.349 . S
C1040 C1038 1.327 . S
C1040 C1059 1.429 . S
C1040 H1064 0.950 . S
C1041 C1058 1.574 . S
C1041 C1060 1.368 . S
C1041 H1065 0.949 . S
H1042 C1046 0.949 . S
C1043 C1044 1.349 . S
C1043 C1045 1.327 . S
C1043 H1066 0.950 . S
C1044 C1043 1.349 . S
C1044 C1056 1.349 . S
C1045 C1043 1.327 . S
C1045 C1061 1.429 . S
C1045 H1067 0.950 . S
C1046 H1042 0.949 . S
C1046 C1054 1.574 . S
C1046 C1062 1.368 . S
H1047 C1055 0.950 . S
H1048 C1053 0.950 . S
H1049 C1054 0.949 . S
H1050 C1056 0.950 . S
H1051 C1057 0.950 . S
H1052 C1058 0.949 . S
C1053 H1048 0.950 . S
C1053 C1055 1.327 . S
C1053 C1059 1.429 . S
C1054 C1046 1.574 . S
C1054 H1049 0.949 . S
C1054 C1060 1.368 1_545 S
C1055 C1039 1.349 . S
C1055 H1047 0.950 . S
C1055 C1053 1.327 . S
C1056 C1044 1.349 . S
C1056 H1050 0.950 . S
C1056 C1057 1.327 . S
C1057 H1051 0.950 . S
C1057 C1056 1.327 . S
C1057 C1061 1.429 . S
C1058 C1041 1.574 . S
C1058 H1052 0.949 . S
C1058 C1062 1.368 1_565 S
C1059 C1040 1.429 . S
C1059 C1053 1.429 . S
C1059 C1060 1.523 . S
C1060 C1041 1.368 . S
C1060 C1054 1.368 1_565 S
C1060 C1059 1.523 . S
C1061 C1045 1.429 . S
C1061 C1057 1.429 . S
C1061 C1062 1.523 . S
C1062 C1046 1.368 . S
C1062 C1058 1.368 1_545 S
C1062 C1061 1.523 . S
H1063 C1038 0.950 . S
H1064 C1040 0.950 . S
H1065 C1041 0.949 . S
H1066 C1043 0.950 . S
H1067 C1045 0.950 . S
C1068 C1069 1.349 . S
C1068 C1070 1.327 . S
C1068 H1093 0.950 . S
C1069 C1068 1.349 . S
C1069 C1085 1.349 . S
C1070 C1068 1.327 . S
C1070 C1089 1.429 . S
C1070 H1094 0.950 . S
C1071 C1088 1.574 . S
C1071 C1090 1.368 1_565 S
C1071 H1095 0.949 . S
H1072 C1076 0.949 . S
C1073 C1074 1.349 . S
C1073 C1075 1.327 . S
C1073 H1096 0.950 . S
C1074 C1073 1.349 . S
C1074 C1086 1.349 . S
C1075 C1073 1.327 . S
C1075 C1091 1.429 . S
C1075 H1097 0.950 . S
C1076 H1072 0.949 . S
C1076 C1084 1.574 . S
C1076 C1092 1.368 1_545 S
H1077 C1085 0.950 . S
H1078 C1083 0.950 . S
H1079 C1084 0.949 . S
H1080 C1086 0.950 . S
H1081 C1087 0.950 . S
H1082 C1088 0.949 . S
C1083 H1078 0.950 . S
C1083 C1085 1.327 . S
C1083 C1089 1.429 . S
C1084 C1076 1.574 . S
C1084 H1079 0.949 . S
C1084 C1090 1.368 1_554 S
C1085 C1069 1.349 . S
C1085 H1077 0.950 . S
C1085 C1083 1.327 . S
C1086 C1074 1.349 . S
C1086 H1080 0.950 . S
C1086 C1087 1.327 . S
C1087 H1081 0.950 . S
C1087 C1086 1.327 . S
C1087 C1091 1.429 . S
C1088 C1071 1.574 . S
C1088 H1082 0.949 . S
C1088 C1092 1.368 1_556 S
C1089 C1070 1.429 . S
C1089 C1083 1.429 . S
C1089 C1090 1.523 . S
C1090 C1071 1.368 1_545 S
C1090 C1084 1.368 1_556 S
C1090 C1089 1.523 . S
C1091 C1075 1.429 . S
C1091 C1087 1.429 . S
C1091 C1092 1.523 . S
C1092 C1076 1.368 1_565 S
C1092 C1088 1.368 1_554 S
C1092 C1091 1.523 . S
H1093 C1068 0.950 . S
H1094 C1070 0.950 . S
H1095 C1071 0.949 . S
H1096 C1073 0.950 . S
H1097 C1075 0.950 . S
C1098 C1099 1.349 . S
C1098 C1100 1.327 . S
C1098 H1123 0.950 . S
C1099 C1098 1.349 . S
C1099 C1115 1.349 . S
C1100 C1098 1.327 . S
C1100 C1119 1.429 . S
C1100 H1124 0.950 . S
C1101 C1118 1.574 1_554 S
C1101 C1120 1.368 1_455 S
C1101 H1125 0.949 . S
H1102 C1106 0.949 . S
C1103 C1104 1.349 . S
C1103 C1105 1.327 . S
C1103 H1126 0.950 . S
C1104 C1103 1.349 . S
C1104 C1116 1.349 . S
C1105 C1103 1.327 . S
C1105 C1121 1.429 . S
C1105 H1127 0.950 . S
C1106 H1102 0.949 . S
C1106 C1114 1.574 1_556 S
C1106 C1122 1.368 1_655 S
H1107 C1115 0.950 . S
H1108 C1113 0.950 . S
H1109 C1114 0.949 . S
H1110 C1116 0.950 . S
H1111 C1117 0.950 . S
H1112 C1118 0.949 . S
C1113 H1108 0.950 . S
C1113 C1115 1.327 . S
C1113 C1119 1.429 . S
C1114 C1106 1.574 1_554 S
C1114 H1109 0.949 . S
C1114 C1120 1.368 1_565 S
C1115 C1099 1.349 . S
C1115 H1107 0.950 . S
C1115 C1113 1.327 . S
C1116 C1104 1.349 . S
C1116 H1110 0.950 . S
C1116 C1117 1.327 . S
C1117 H1111 0.950 . S
C1117 C1116 1.327 . S
C1117 C1121 1.429 . S
C1118 C1101 1.574 1_556 S
C1118 H1112 0.949 . S
C1118 C1122 1.368 1_545 S
C1119 C1100 1.429 . S
C1119 C1113 1.429 . S
C1119 C1120 1.523 . S
C1120 C1101 1.368 1_655 S
C1120 C1114 1.368 1_545 S
C1120 C1119 1.523 . S
C1121 C1105 1.429 . S
C1121 C1117 1.429 . S
C1121 C1122 1.523 . S
C1122 C1106 1.368 1_455 S
C1122 C1118 1.368 1_565 S
C1122 C1121 1.523 . S
H1123 C1098 0.950 . S
H1124 C1100 0.950 . S
H1125 C1101 0.949 . S
H1126 C1103 0.950 . S
H1127 C1105 0.950 . S
C1128 C1129 1.349 . S
C1128 C1130 1.327 . S
C1128 H1153 0.950 . S
C1129 C1128 1.349 . S
C1129 C1145 1.349 . S
C1130 C1128 1.327 . S
C1130 C1149 1.429 . S
C1130 H1154 0.950 . S
C1131 C1148 1.574 . S
C1131 C1150 1.368 . S
C1131 H1155 0.949 . S
H1132 C1136 0.949 . S
C1133 C1134 1.349 . S
C1133 C1135 1.327 . S
C1133 H1156 0.950 . S
C1134 C1133 1.349 . S
C1134 C1146 1.349 . S
C1135 C1133 1.327 . S
C1135 C1151 1.429 . S
C1135 H1157 0.950 . S
C1136 H1132 0.949 . S
C1136 C1144 1.574 . S
C1136 C1152 1.368 . S
H1137 C1145 0.950 . S
H1138 C1143 0.950 . S
H1139 C1144 0.949 . S
H1140 C1146 0.950 . S
H1141 C1147 0.950 . S
H1142 C1148 0.949 . S
C1143 H1138 0.950 . S
C1143 C1145 1.327 . S
C1143 C1149 1.429 . S
C1144 C1136 1.574 . S
C1144 H1139 0.949 . S
C1144 C1150 1.368 . S
C1145 C1129 1.349 . S
C1145 H1137 0.950 . S
C1145 C1143 1.327 . S
C1146 C1134 1.349 . S
C1146 H1140 0.950 . S
C1146 C1147 1.327 . S
C1147 H1141 0.950 . S
C1147 C1146 1.327 . S
C1147 C1151 1.429 . S
C1148 C1131 1.574 . S
C1148 H1142 0.949 . S
C1148 C1152 1.368 . S
C1149 C1130 1.429 . S
C1149 C1143 1.429 . S
C1149 C1150 1.523 . S
C1150 C1131 1.368 . S
C1150 C1144 1.368 . S
C1150 C1149 1.523 . S
C1151 C1135 1.429 . S
C1151 C1147 1.429 . S
C1151 C1152 1.523 . S
C1152 C1136 1.368 . S
C1152 C1148 1.368 . S
C1152 C1151 1.523 . S
H1153 C1128 0.950 . S
H1154 C1130 0.950 . S
H1155 C1131 0.949 . S
H1156 C1133 0.950 . S
H1157 C1135 0.950 . S
C1158 C1159 1.349 . S
C1158 C1160 1.327 . S
C1158 H1183 0.950 . S
C1159 C1158 1.349 . S
C1159 C1175 1.349 . S
C1160 C1158 1.327 . S
C1160 C1179 1.429 . S
C1160 H1184 0.950 . S
C1161 C1178 1.574 . S
C1161 C1180 1.368 1_655 S
C1161 H1185 0.949 . S
H1162 C1166 0.949 . S
C1163 C1164 1.349 . S
C1163 C1165 1.327 . S
C1163 H1186 0.950 . S
C1164 C1163 1.349 . S
C1164 C1176 1.349 . S
C1165 C1163 1.327 . S
C1165 C1181 1.429 . S
C1165 H1187 0.950 . S
C1166 H1162 0.949 . S
C1166 C1174 1.574 . S
C1166 C1182 1.368 1_455 S
H1167 C1175 0.950 . S
H1168 C1173 0.950 . S
H1169 C1174 0.949 . S
H1170 C1176 0.950 . S
H1171 C1177 0.950 . S
H1172 C1178 0.949 . S
C1173 H1168 0.950 . S
C1173 C1175 1.327 . S
C1173 C1179 1.429 . S
C1174 C1166 1.574 . S
C1174 H1169 0.949 . S
C1174 C1180 1.368 . S
C1175 C1159 1.349 . S
C1175 H1167 0.950 . S
C1175 C1173 1.327 . S
C1176 C1164 1.349 . S
C1176 H1170 0.950 . S
C1176 C1177 1.327 . S
C1177 H1171 0.950 . S
C1177 C1176 1.327 . S
C1177 C1181 1.429 . S
C1178 C1161 1.574 . S
C1178 H1172 0.949 . S
C1178 C1182 1.368 . S
C1179 C1160 1.429 . S
C1179 C1173 1.429 . S
C1179 C1180 1.523 . S
C1180 C1161 1.368 1_455 S
C1180 C1174 1.368 . S
C1180 C1179 1.523 . S
C1181 C1165 1.429 . S
C1181 C1177 1.429 . S
C1181 C1182 1.523 . S
C1182 C1166 1.368 1_655 S
C1182 C1178 1.368 . S
C1182 C1181 1.523 . S
H1183 C1158 0.950 . S
H1184 C1160 0.950 . S
H1185 C1161 0.949 . S
H1186 C1163 0.950 . S
H1187 C1165 0.950 . S
C1188 C1189 1.349 . S
C1188 C1190 1.327 . S
C1188 H1213 0.950 . S
C1189 C1188 1.349 . S
C1189 C1205 1.349 . S
C1190 C1188 1.327 . S
C1190 C1209 1.429 . S
C1190 H1214 0.950 . S
C1191 C1208 1.574 1_554 S
C1191 C1210 1.368 . S
C1191 H1215 0.949 . S
H1192 C1196 0.949 . S
C1193 C1194 1.349 . S
C1193 C1195 1.327 . S
C1193 H1216 0.950 . S
C1194 C1193 1.349 . S
C1194 C1206 1.349 . S
C1195 C1193 1.327 . S
C1195 C1211 1.429 . S
C1195 H1217 0.950 . S
C1196 H1192 0.949 . S
C1196 C1204 1.574 1_556 S
C1196 C1212 1.368 . S
H1197 C1205 0.950 . S
H1198 C1203 0.950 . S
H1199 C1204 0.949 . S
H1200 C1206 0.950 . S
H1201 C1207 0.950 . S
H1202 C1208 0.949 . S
C1203 H1198 0.950 . S
C1203 C1205 1.327 . S
C1203 C1209 1.429 . S
C1204 C1196 1.574 1_554 S
C1204 H1199 0.949 . S
C1204 C1210 1.368 1_655 S
C1205 C1189 1.349 . S
C1205 H1197 0.950 . S
C1205 C1203 1.327 . S
C1206 C1194 1.349 . S
C1206 H1200 0.950 . S
C1206 C1207 1.327 . S
C1207 H1201 0.950 . S
C1207 C1206 1.327 . S
C1207 C1211 1.429 . S
C1208 C1191 1.574 1_556 S
C1208 H1202 0.949 . S
C1208 C1212 1.368 1_455 S
C1209 C1190 1.429 . S
C1209 C1203 1.429 . S
C1209 C1210 1.523 . S
C1210 C1191 1.368 . S
C1210 C1204 1.368 1_455 S
C1210 C1209 1.523 . S
C1211 C1195 1.429 . S
C1211 C1207 1.429 . S
C1211 C1212 1.523 . S
C1212 C1196 1.368 . S
C1212 C1208 1.368 1_655 S
C1212 C1211 1.523 . S
H1213 C1188 0.950 . S
H1214 C1190 0.950 . S
H1215 C1191 0.949 . S
H1216 C1193 0.950 . S
H1217 C1195 0.950 . S
C1218 C1219 1.349 . S
C1218 C1220 1.327 . S
C1218 H1243 0.950 . S
C1219 C1218 1.349 . S
C1219 C1235 1.349 . S
C1220 C1218 1.327 . S
C1220 C1239 1.429 . S
C1220 H1244 0.950 . S
C1221 C1238 1.574 . S
C1221 C1240 1.368 1_554 S
C1221 H1245 0.949 . S
H1222 C1226 0.949 . S
C1223 C1224 1.349 . S
C1223 C1225 1.327 . S
C1223 H1246 0.950 . S
C1224 C1223 1.349 . S
C1224 C1236 1.349 . S
C1225 C1223 1.327 . S
C1225 C1241 1.429 . S
C1225 H1247 0.950 . S
C1226 H1222 0.949 . S
C1226 C1234 1.574 . S
C1226 C1242 1.368 1_556 S
H1227 C1235 0.950 . S
H1228 C1233 0.950 . S
H1229 C1234 0.949 . S
H1230 C1236 0.950 . S
H1231 C1237 0.950 . S
H1232 C1238 0.949 . S
C1233 H1228 0.950 . S
C1233 C1235 1.327 . S
C1233 C1239 1.429 . S
C1234 C1226 1.574 . S
C1234 H1229 0.949 . S
C1234 C1240 1.368 . S
C1235 C1219 1.349 . S
C1235 H1227 0.950 . S
C1235 C1233 1.327 . S
C1236 C1224 1.349 . S
C1236 H1230 0.950 . S
C1236 C1237 1.327 . S
C1237 H1231 0.950 . S
C1237 C1236 1.327 . S
C1237 C1241 1.429 . S
C1238 C1221 1.574 . S
C1238 H1232 0.949 . S
C1238 C1242 1.368 . S
C1239 C1220 1.429 . S
C1239 C1233 1.429 . S
C1239 C1240 1.523 . S
C1240 C1221 1.368 1_556 S
C1240 C1234 1.368 . S
C1240 C1239 1.523 . S
C1241 C1225 1.429 . S
C1241 C1237 1.429 . S
C1241 C1242 1.523 . S
C1242 C1226 1.368 1_554 S
C1242 C1238 1.368 . S
C1242 C1241 1.523 . S
H1243 C1218 0.950 . S
H1244 C1220 0.950 . S
H1245 C1221 0.949 . S
H1246 C1223 0.950 . S
H1247 C1225 0.950 . S
C1248 C1249 1.349 . S
C1248 C1250 1.327 . S
C1248 H1273 0.950 . S
C1249 C1248 1.349 . S
C1249 C1265 1.349 . S
C1250 C1248 1.327 . S
C1250 C1269 1.429 . S
C1250 H1274 0.950 . S
C1251 C1268 1.574 1_545 S
C1251 C1270 1.368 . S
C1251 H1275 0.949 . S
H1252 C1256 0.949 . S
C1253 C1254 1.349 . S
C1253 C1255 1.327 . S
C1253 H1276 0.950 . S
C1254 C1253 1.349 . S
C1254 C1266 1.349 . S
C1255 C1253 1.327 . S
C1255 C1271 1.429 . S
C1255 H1277 0.950 . S
C1256 H1252 0.949 . S
C1256 C1264 1.574 1_565 S
C1256 C1272 1.368 . S
H1257 C1265 0.950 . S
H1258 C1263 0.950 . S
H1259 C1264 0.949 . S
H1260 C1266 0.950 . S
H1261 C1267 0.950 . S
H1262 C1268 0.949 . S
C1263 H1258 0.950 . S
C1263 C1265 1.327 . S
C1263 C1269 1.429 . S
C1264 C1256 1.574 1_545 S
C1264 H1259 0.949 . S
C1264 C1270 1.368 . S
C1265 C1249 1.349 . S
C1265 H1257 0.950 . S
C1265 C1263 1.327 . S
C1266 C1254 1.349 . S
C1266 H1260 0.950 . S
C1266 C1267 1.327 . S
C1267 H1261 0.950 . S
C1267 C1266 1.327 . S
C1267 C1271 1.429 . S
C1268 C1251 1.574 1_565 S
C1268 H1262 0.949 . S
C1268 C1272 1.368 . S
C1269 C1250 1.429 . S
C1269 C1263 1.429 . S
C1269 C1270 1.523 . S
C1270 C1251 1.368 . S
C1270 C1264 1.368 . S
C1270 C1269 1.523 . S
C1271 C1255 1.429 . S
C1271 C1267 1.429 . S
C1271 C1272 1.523 . S
C1272 C1256 1.368 . S
C1272 C1268 1.368 . S
C1272 C1271 1.523 . S
H1273 C1248 0.950 . S
H1274 C1250 0.950 . S
H1275 C1251 0.949 . S
H1276 C1253 0.950 . S
H1277 C1255 0.950 . S
C1278 C1279 1.349 . S
C1278 C1280 1.327 . S
C1278 H1303 0.950 . S
C1279 C1278 1.349 . S
C1279 C1295 1.349 . S
C1280 C1278 1.327 . S
C1280 C1299 1.429 . S
C1280 H1304 0.950 . S
C1281 C1298 1.574 1_545 S
C1281 C1300 1.368 . S
C1281 H1305 0.949 . S
H1282 C1286 0.949 . S
C1283 C1284 1.349 . S
C1283 C1285 1.327 . S
C1283 H1306 0.950 . S
C1284 C1283 1.349 . S
C1284 C1296 1.349 . S
C1285 C1283 1.327 . S
C1285 C1301 1.429 . S
C1285 H1307 0.950 . S
C1286 H1282 0.949 . S
C1286 C1294 1.574 1_565 S
C1286 C1302 1.368 . S
H1287 C1295 0.950 . S
H1288 C1293 0.950 . S
H1289 C1294 0.949 . S
H1290 C1296 0.950 . S
H1291 C1297 0.950 . S
H1292 C1298 0.949 . S
C1293 H1288 0.950 . S
C1293 C1295 1.327 . S
C1293 C1299 1.429 . S
C1294 C1286 1.574 1_545 S
C1294 H1289 0.949 . S
C1294 C1300 1.368 . S
C1295 C1279 1.349 . S
C1295 H1287 0.950 . S
C1295 C1293 1.327 . S
C1296 C1284 1.349 . S
C1296 H1290 0.950 . S
C1296 C1297 1.327 . S
C1297 H1291 0.950 . S
C1297 C1296 1.327 . S
C1297 C1301 1.429 . S
C1298 C1281 1.574 1_565 S
C1298 H1292 0.949 . S
C1298 C1302 1.368 . S
C1299 C1280 1.429 . S
C1299 C1293 1.429 . S
C1299 C1300 1.523 . S
C1300 C1281 1.368 . S
C1300 C1294 1.368 . S
C1300 C1299 1.523 . S
C1301 C1285 1.429 . S
C1301 C1297 1.429 . S
C1301 C1302 1.523 . S
C1302 C1286 1.368 . S
C1302 C1298 1.368 . S
C1302 C1301 1.523 . S
H1303 C1278 0.950 . S
H1304 C1280 0.950 . S
H1305 C1281 0.949 . S
H1306 C1283 0.950 . S
H1307 C1285 0.950 . S
C1308 C1309 1.349 . S
C1308 C1310 1.327 . S
C1308 H1333 0.950 . S
C1309 C1308 1.349 . S
C1309 C1325 1.349 . S
C1310 C1308 1.327 . S
C1310 C1329 1.429 . S
C1310 H1334 0.950 . S
C1311 C1328 1.574 1_545 S
C1311 C1330 1.368 . S
C1311 H1335 0.949 . S
H1312 C1316 0.949 . S
C1313 C1314 1.349 . S
C1313 C1315 1.327 . S
C1313 H1336 0.950 . S
C1314 C1313 1.349 . S
C1314 C1326 1.349 . S
C1315 C1313 1.327 . S
C1315 C1331 1.429 . S
C1315 H1337 0.950 . S
C1316 H1312 0.949 . S
C1316 C1324 1.574 1_565 S
C1316 C1332 1.368 . S
H1317 C1325 0.950 . S
H1318 C1323 0.950 . S
H1319 C1324 0.949 . S
H1320 C1326 0.950 . S
H1321 C1327 0.950 . S
H1322 C1328 0.949 . S
C1323 H1318 0.950 . S
C1323 C1325 1.327 . S
C1323 C1329 1.429 . S
C1324 C1316 1.574 1_545 S
C1324 H1319 0.949 . S
C1324 C1330 1.368 . S
C1325 C1309 1.349 . S
C1325 H1317 0.950 . S
C1325 C1323 1.327 . S
C1326 C1314 1.349 . S
C1326 H1320 0.950 . S
C1326 C1327 1.327 . S
C1327 H1321 0.950 . S
C1327 C1326 1.327 . S
C1327 C1331 1.429 . S
C1328 C1311 1.574 1_565 S
C1328 H1322 0.949 . S
C1328 C1332 1.368 . S
C1329 C1310 1.429 . S
C1329 C1323 1.429 . S
C1329 C1330 1.523 . S
C1330 C1311 1.368 . S
C1330 C1324 1.368 . S
C1330 C1329 1.523 . S
C1331 C1315 1.429 . S
C1331 C1327 1.429 . S
C1331 C1332 1.523 . S
C1332 C1316 1.368 . S
C1332 C1328 1.368 . S
C1332 C1331 1.523 . S
H1333 C1308 0.950 . S
H1334 C1310 0.950 . S
H1335 C1311 0.949 . S
H1336 C1313 0.950 . S
H1337 C1315 0.950 . S
C1338 C1339 1.349 . S
C1338 C1340 1.327 . S
C1338 H1363 0.950 . S
C1339 C1338 1.349 . S
C1339 C1355 1.349 . S
C1340 C1338 1.327 . S
C1340 C1359 1.429 . S
C1340 H1364 0.950 . S
C1341 C1358 1.574 1_545 S
C1341 C1360 1.368 . S
C1341 H1365 0.949 . S
H1342 C1346 0.949 . S
C1343 C1344 1.349 . S
C1343 C1345 1.327 . S
C1343 H1366 0.950 . S
C1344 C1343 1.349 . S
C1344 C1356 1.349 . S
C1345 C1343 1.327 . S
C1345 C1361 1.429 . S
C1345 H1367 0.950 . S
C1346 H1342 0.949 . S
C1346 C1354 1.574 1_565 S
C1346 C1362 1.368 . S
H1347 C1355 0.950 . S
H1348 C1353 0.950 . S
H1349 C1354 0.949 . S
H1350 C1356 0.950 . S
H1351 C1357 0.950 . S
H1352 C1358 0.949 . S
C1353 H1348 0.950 . S
C1353 C1355 1.327 . S
C1353 C1359 1.429 . S
C1354 C1346 1.574 1_545 S
C1354 H1349 0.949 . S
C1354 C1360 1.368 . S
C1355 C1339 1.349 . S
C1355 H1347 0.950 . S
C1355 C1353 1.327 . S
C1356 C1344 1.349 . S
C1356 H1350 0.950 . S
C1356 C1357 1.327 . S
C1357 H1351 0.950 . S
C1357 C1356 1.327 . S
C1357 C1361 1.429 . S
C1358 C1341 1.574 1_565 S
C1358 H1352 0.949 . S
C1358 C1362 1.368 . S
C1359 C1340 1.429 . S
C1359 C1353 1.429 . S
C1359 C1360 1.523 . S
C1360 C1341 1.368 . S
C1360 C1354 1.368 . S
C1360 C1359 1.523 . S
C1361 C1345 1.429 . S
C1361 C1357 1.429 . S
C1361 C1362 1.523 . S
C1362 C1346 1.368 . S
C1362 C1358 1.368 . S
C1362 C1361 1.523 . S
H1363 C1338 0.950 . S
H1364 C1340 0.950 . S
H1365 C1341 0.949 . S
H1366 C1343 0.950 . S
H1367 C1345 0.950 . S
C1368 C1369 1.349 . S
C1368 C1370 1.327 . S
C1368 H1393 0.950 . S
C1369 C1368 1.349 . S
C1369 C1385 1.349 . S
C1370 C1368 1.327 . S
C1370 C1389 1.429 . S
C1370 H1394 0.950 . S
C1371 C1388 1.574 . S
C1371 C1390 1.368 . S
C1371 H1395 0.949 . S
H1372 C1376 0.949 . S
C1373 C1374 1.349 . S
C1373 C1375 1.327 . S
C1373 H1396 0.950 . S
C1374 C1373 1.349 . S
C1374 C1386 1.349 . S
C1375 C1373 1.327 . S
C1375 C1391 1.429 . S
C1375 H1397 0.950 . S
C1376 H1372 0.949 . S
C1376 C1384 1.574 . S
C1376 C1392 1.368 . S
H1377 C1385 0.950 . S
H1378 C1383 0.950 . S
H1379 C1384 0.949 . S
H1380 C1386 0.950 . S
H1381 C1387 0.950 . S
H1382 C1388 0.949 . S
C1383 H1378 0.950 . S
C1383 C1385 1.327 . S
C1383 C1389 1.429 . S
C1384 C1376 1.574 . S
C1384 H1379 0.949 . S
C1384 C1390 1.368 . S
C1385 C1369 1.349 . S
C1385 H1377 0.950 . S
C1385 C1383 1.327 . S
C1386 C1374 1.349 . S
C1386 H1380 0.950 . S
C1386 C1387 1.327 . S
C1387 H1381 0.950 . S
C1387 C1386 1.327 . S
C1387 C1391 1.429 . S
C1388 C1371 1.574 . S
C1388 H1382 0.949 . S
C1388 C1392 1.368 . S
C1389 C1370 1.429 . S
C1389 C1383 1.429 . S
C1389 C1390 1.523 . S
C1390 C1371 1.368 . S
C1390 C1384 1.368 . S
C1390 C1389 1.523 . S
C1391 C1375 1.429 . S
C1391 C1387 1.429 . S
C1391 C1392 1.523 . S
C1392 C1376 1.368 . S
C1392 C1388 1.368 . S
C1392 C1391 1.523 . S
H1393 C1368 0.950 . S
H1394 C1370 0.950 . S
H1395 C1371 0.949 . S
H1396 C1373 0.950 . S
H1397 C1375 0.950 . S
C1398 C1399 1.349 . S
C1398 C1400 1.327 . S
C1398 H1423 0.950 . S
C1399 C1398 1.349 . S
C1399 C1415 1.349 . S
C1400 C1398 1.327 . S
C1400 C1419 1.429 . S
C1400 H1424 0.950 . S
C1401 C1418 1.574 . S
C1401 C1420 1.368 . S
C1401 H1425 0.949 . S
H1402 C1406 0.949 . S
C1403 C1404 1.349 . S
C1403 C1405 1.327 . S
C1403 H1426 0.950 . S
C1404 C1403 1.349 . S
C1404 C1416 1.349 . S
C1405 C1403 1.327 . S
C1405 C1421 1.429 . S
C1405 H1427 0.950 . S
C1406 H1402 0.949 . S
C1406 C1414 1.574 . S
C1406 C1422 1.368 . S
H1407 C1415 0.950 . S
H1408 C1413 0.950 . S
H1409 C1414 0.949 . S
H1410 C1416 0.950 . S
H1411 C1417 0.950 . S
H1412 C1418 0.949 . S
C1413 H1408 0.950 . S
C1413 C1415 1.327 . S
C1413 C1419 1.429 . S
C1414 C1406 1.574 . S
C1414 H1409 0.949 . S
C1414 C1420 1.368 . S
C1415 C1399 1.349 . S
C1415 H1407 0.950 . S
C1415 C1413 1.327 . S
C1416 C1404 1.349 . S
C1416 H1410 0.950 . S
C1416 C1417 1.327 . S
C1417 H1411 0.950 . S
C1417 C1416 1.327 . S
C1417 C1421 1.429 . S
C1418 C1401 1.574 . S
C1418 H1412 0.949 . S
C1418 C1422 1.368 . S
C1419 C1400 1.429 . S
C1419 C1413 1.429 . S
C1419 C1420 1.523 . S
C1420 C1401 1.368 . S
C1420 C1414 1.368 . S
C1420 C1419 1.523 . S
C1421 C1405 1.429 . S
C1421 C1417 1.429 . S
C1421 C1422 1.523 . S
C1422 C1406 1.368 . S
C1422 C1418 1.368 . S
C1422 C1421 1.523 . S
H1423 C1398 0.950 . S
H1424 C1400 0.950 . S
H1425 C1401 0.949 . S
H1426 C1403 0.950 . S
H1427 C1405 0.950 . S
C1428 C1429 1.349 . S
C1428 C1430 1.327 . S
C1428 H1453 0.950 . S
C1429 C1428 1.349 . S
C1429 C1445 1.349 . S
C1430 C1428 1.327 . S
C1430 C1449 1.429 . S
C1430 H1454 0.950 . S
C1431 C1448 1.574 . S
C1431 C1450 1.368 . S
C1431 H1455 0.949 . S
H1432 C1436 0.949 . S
C1433 C1434 1.349 . S
C1433 C1435 1.327 . S
C1433 H1456 0.950 . S
C1434 C1433 1.349 . S
C1434 C1446 1.349 . S
C1435 C1433 1.327 . S
C1435 C1451 1.429 . S
C1435 H1457 0.950 . S
C1436 H1432 0.949 . S
C1436 C1444 1.574 . S
C1436 C1452 1.368 . S
H1437 C1445 0.950 . S
H1438 C1443 0.950 . S
H1439 C1444 0.949 . S
H1440 C1446 0.950 . S
H1441 C1447 0.950 . S
H1442 C1448 0.949 . S
C1443 H1438 0.950 . S
C1443 C1445 1.327 . S
C1443 C1449 1.429 . S
C1444 C1436 1.574 . S
C1444 H1439 0.949 . S
C1444 C1450 1.368 . S
C1445 C1429 1.349 . S
C1445 H1437 0.950 . S
C1445 C1443 1.327 . S
C1446 C1434 1.349 . S
C1446 H1440 0.950 . S
C1446 C1447 1.327 . S
C1447 H1441 0.950 . S
C1447 C1446 1.327 . S
C1447 C1451 1.429 . S
C1448 C1431 1.574 . S
C1448 H1442 0.949 . S
C1448 C1452 1.368 . S
C1449 C1430 1.429 . S
C1449 C1443 1.429 . S
C1449 C1450 1.523 . S
C1450 C1431 1.368 . S
C1450 C1444 1.368 . S
C1450 C1449 1.523 . S
C1451 C1435 1.429 . S
C1451 C1447 1.429 . S
C1451 C1452 1.523 . S
C1452 C1436 1.368 . S
C1452 C1448 1.368 . S
C1452 C1451 1.523 . S
H1453 C1428 0.950 . S
H1454 C1430 0.950 . S
H1455 C1431 0.949 . S
H1456 C1433 0.950 . S
H1457 C1435 0.950 . S
C1458 C1459 1.349 . S
C1458 C1460 1.327 . S
C1458 H1483 0.950 . S
C1459 C1458 1.349 . S
C1459 C1475 1.349 . S
C1460 C1458 1.327 . S
C1460 C1479 1.429 . S
C1460 H1484 0.950 . S
C1461 C1478 1.574 . S
C1461 C1480 1.368 . S
C1461 H1485 0.949 . S
H1462 C1466 0.949 . S
C1463 C1464 1.349 . S
C1463 C1465 1.327 . S
C1463 H1486 0.950 . S
C1464 C1463 1.349 . S
C1464 C1476 1.349 . S
C1465 C1463 1.327 . S
C1465 C1481 1.429 . S
C1465 H1487 0.950 . S
C1466 H1462 0.949 . S
C1466 C1474 1.574 . S
C1466 C1482 1.368 . S
H1467 C1475 0.950 . S
H1468 C1473 0.950 . S
H1469 C1474 0.949 . S
H1470 C1476 0.950 . S
H1471 C1477 0.950 . S
H1472 C1478 0.949 . S
C1473 H1468 0.950 . S
C1473 C1475 1.327 . S
C1473 C1479 1.429 . S
C1474 C1466 1.574 . S
C1474 H1469 0.949 . S
C1474 C1480 1.368 . S
C1475 C1459 1.349 . S
C1475 H1467 0.950 . S
C1475 C1473 1.327 . S
C1476 C1464 1.349 . S
C1476 H1470 0.950 . S
C1476 C1477 1.327 . S
C1477 H1471 0.950 . S
C1477 C1476 1.327 . S
C1477 C1481 1.429 . S
C1478 C1461 1.574 . S
C1478 H1472 0.949 . S
C1478 C1482 1.368 . S
C1479 C1460 1.429 . S
C1479 C1473 1.429 . S
C1479 C1480 1.523 . S
C1480 C1461 1.368 . S
C1480 C1474 1.368 . S
C1480 C1479 1.523 . S
C1481 C1465 1.429 . S
C1481 C1477 1.429 . S
C1481 C1482 1.523 . S
C1482 C1466 1.368 . S
C1482 C1478 1.368 . S
C1482 C1481 1.523 . S
H1483 C1458 0.950 . S
H1484 C1460 0.950 . S
H1485 C1461 0.949 . S
H1486 C1463 0.950 . S
H1487 C1465 0.950 . S
C1488 C1489 1.349 . S
C1488 C1490 1.327 . S
C1488 H1513 0.950 . S
C1489 C1488 1.349 . S
C1489 C1505 1.349 . S
C1490 C1488 1.327 . S
C1490 C1509 1.429 . S
C1490 H1514 0.950 . S
C1491 C1508 1.574 1_455 S
C1491 C1510 1.368 . S
C1491 H1515 0.949 . S
H1492 C1496 0.949 . S
C1493 C1494 1.349 . S
C1493 C1495 1.327 . S
C1493 H1516 0.950 . S
C1494 C1493 1.349 . S
C1494 C1506 1.349 . S
C1495 C1493 1.327 . S
C1495 C1511 1.429 . S
C1495 H1517 0.950 . S
C1496 H1492 0.949 . S
C1496 C1504 1.574 1_655 S
C1496 C1512 1.368 . S
H1497 C1505 0.950 . S
H1498 C1503 0.950 . S
H1499 C1504 0.949 . S
H1500 C1506 0.950 . S
H1501 C1507 0.950 . S
H1502 C1508 0.949 . S
C1503 H1498 0.950 . S
C1503 C1505 1.327 . S
C1503 C1509 1.429 . S
C1504 C1496 1.574 1_455 S
C1504 H1499 0.949 . S
C1504 C1510 1.368 . S
C1505 C1489 1.349 . S
C1505 H1497 0.950 . S
C1505 C1503 1.327 . S
C1506 C1494 1.349 . S
C1506 H1500 0.950 . S
C1506 C1507 1.327 . S
C1507 H1501 0.950 . S
C1507 C1506 1.327 . S
C1507 C1511 1.429 . S
C1508 C1491 1.574 1_655 S
C1508 H1502 0.949 . S
C1508 C1512 1.368 . S
C1509 C1490 1.429 . S
C1509 C1503 1.429 . S
C1509 C1510 1.523 . S
C1510 C1491 1.368 . S
C1510 C1504 1.368 . S
C1510 C1509 1.523 . S
C1511 C1495 1.429 . S
C1511 C1507 1.429 . S
C1511 C1512 1.523 . S
C1512 C1496 1.368 . S
C1512 C1508 1.368 . S
C1512 C1511 1.523 . S
H1513 C1488 0.950 . S
H1514 C1490 0.950 . S
H1515 C1491 0.949 . S
H1516 C1493 0.950 . S
H1517 C1495 0.950 . S
C1518 C1519 1.349 . S
C1518 C1520 1.327 . S
C1518 H1543 0.950 . S
C1519 C1518 1.349 . S
C1519 C1535 1.349 . S
C1520 C1518 1.327 . S
C1520 C1539 1.429 . S
C1520 H1544 0.950 . S
C1521 C1538 1.574 . S
C1521 C1540 1.368 . S
C1521 H1545 0.949 . S
H1522 C1526 0.949 . S
C1523 C1524 1.349 . S
C1523 C1525 1.327 . S
C1523 H1546 0.950 . S
C1524 C1523 1.349 . S
C1524 C1536 1.349 . S
C1525 C1523 1.327 . S
C1525 C1541 1.429 . S
C1525 H1547 0.950 . S
C1526 H1522 0.949 . S
C1526 C1534 1.574 . S
C1526 C1542 1.368 . S
H1527 C1535 0.950 . S
H1528 C1533 0.950 . S
H1529 C1534 0.949 . S
H1530 C1536 0.950 . S
H1531 C1537 0.950 . S
H1532 C1538 0.949 . S
C1533 H1528 0.950 . S
C1533 C1535 1.327 . S
C1533 C1539 1.429 . S
C1534 C1526 1.574 . S
C1534 H1529 0.949 . S
C1534 C1540 1.368 . S
C1535 C1519 1.349 . S
C1535 H1527 0.950 . S
C1535 C1533 1.327 . S
C1536 C1524 1.349 . S
C1536 H1530 0.950 . S
C1536 C1537 1.327 . S
C1537 H1531 0.950 . S
C1537 C1536 1.327 . S
C1537 C1541 1.429 . S
C1538 C1521 1.574 . S
C1538 H1532 0.949 . S
C1538 C1542 1.368 . S
C1539 C1520 1.429 . S
C1539 C1533 1.429 . S
C1539 C1540 1.523 . S
C1540 C1521 1.368 . S
C1540 C1534 1.368 . S
C1540 C1539 1.523 . S
C1541 C1525 1.429 . S
C1541 C1537 1.429 . S
C1541 C1542 1.523 . S
C1542 C1526 1.368 . S
C1542 C1538 1.368 . S
C1542 C1541 1.523 . S
H1543 C1518 0.950 . S
H1544 C1520 0.950 . S
H1545 C1521 0.949 . S
H1546 C1523 0.950 . S
H1547 C1525 0.950 . S
C1548 C1549 1.349 . S
C1548 C1550 1.327 . S
C1548 H1573 0.950 . S
C1549 C1548 1.349 . S
C1549 C1565 1.349 . S
C1550 C1548 1.327 . S
C1550 C1569 1.429 . S
C1550 H1574 0.950 . S
C1551 C1568 1.574 . S
C1551 C1570 1.368 . S
C1551 H1575 0.949 . S
H1552 C1556 0.949 . S
C1553 C1554 1.349 . S
C1553 C1555 1.327 . S
C1553 H1576 0.950 . S
C1554 C1553 1.349 . S
C1554 C1566 1.349 . S
C1555 C1553 1.327 . S
C1555 C1571 1.429 . S
C1555 H1577 0.950 . S
C1556 H1552 0.949 . S
C1556 C1564 1.574 . S
C1556 C1572 1.368 . S
H1557 C1565 0.950 . S
H1558 C1563 0.950 . S
H1559 C1564 0.949 . S
H1560 C1566 0.950 . S
H1561 C1567 0.950 . S
H1562 C1568 0.949 . S
C1563 H1558 0.950 . S
C1563 C1565 1.327 . S
C1563 C1569 1.429 . S
C1564 C1556 1.574 . S
C1564 H1559 0.949 . S
C1564 C1570 1.368 . S
C1565 C1549 1.349 . S
C1565 H1557 0.950 . S
C1565 C1563 1.327 . S
C1566 C1554 1.349 . S
C1566 H1560 0.950 . S
C1566 C1567 1.327 . S
C1567 H1561 0.950 . S
C1567 C1566 1.327 . S
C1567 C1571 1.429 . S
C1568 C1551 1.574 . S
C1568 H1562 0.949 . S
C1568 C1572 1.368 . S
C1569 C1550 1.429 . S
C1569 C1563 1.429 . S
C1569 C1570 1.523 . S
C1570 C1551 1.368 . S
C1570 C1564 1.368 . S
C1570 C1569 1.523 . S
C1571 C1555 1.429 . S
C1571 C1567 1.429 . S
C1571 C1572 1.523 . S
C1572 C1556 1.368 . S
C1572 C1568 1.368 . S
C1572 C1571 1.523 . S
H1573 C1548 0.950 . S
H1574 C1550 0.950 . S
H1575 C1551 0.949 . S
H1576 C1553 0.950 . S
H1577 C1555 0.950 . S
C1578 C1579 1.349 . S
C1578 C1580 1.327 . S
C1578 H1603 0.950 . S
C1579 C1578 1.349 . S
C1579 C1595 1.349 . S
C1580 C1578 1.327 . S
C1580 C1599 1.429 . S
C1580 H1604 0.950 . S
C1581 C1598 1.574 1_655 S
C1581 C1600 1.368 . S
C1581 H1605 0.949 . S
H1582 C1586 0.949 . S
C1583 C1584 1.349 . S
C1583 C1585 1.327 . S
C1583 H1606 0.950 . S
C1584 C1583 1.349 . S
C1584 C1596 1.349 . S
C1585 C1583 1.327 . S
C1585 C1601 1.429 . S
C1585 H1607 0.950 . S
C1586 H1582 0.949 . S
C1586 C1594 1.574 1_455 S
C1586 C1602 1.368 . S
H1587 C1595 0.950 . S
H1588 C1593 0.950 . S
H1589 C1594 0.949 . S
H1590 C1596 0.950 . S
H1591 C1597 0.950 . S
H1592 C1598 0.949 . S
C1593 H1588 0.950 . S
C1593 C1595 1.327 . S
C1593 C1599 1.429 . S
C1594 C1586 1.574 1_655 S
C1594 H1589 0.949 . S
C1594 C1600 1.368 . S
C1595 C1579 1.349 . S
C1595 H1587 0.950 . S
C1595 C1593 1.327 . S
C1596 C1584 1.349 . S
C1596 H1590 0.950 . S
C1596 C1597 1.327 . S
C1597 H1591 0.950 . S
C1597 C1596 1.327 . S
C1597 C1601 1.429 . S
C1598 C1581 1.574 1_455 S
C1598 H1592 0.949 . S
C1598 C1602 1.368 . S
C1599 C1580 1.429 . S
C1599 C1593 1.429 . S
C1599 C1600 1.523 . S
C1600 C1581 1.368 . S
C1600 C1594 1.368 . S
C1600 C1599 1.523 . S
C1601 C1585 1.429 . S
C1601 C1597 1.429 . S
C1601 C1602 1.523 . S
C1602 C1586 1.368 . S
C1602 C1598 1.368 . S
C1602 C1601 1.523 . S
H1603 C1578 0.950 . S
H1604 C1580 0.950 . S
H1605 C1581 0.949 . S
H1606 C1583 0.950 . S
H1607 C1585 0.950 . S
C1608 C1609 1.349 . S
C1608 C1610 1.327 . S
C1608 H1633 0.950 . S
C1609 C1608 1.349 . S
C1609 C1625 1.349 . S
C1610 C1608 1.327 . S
C1610 C1629 1.429 . S
C1610 H1634 0.950 . S
C1611 C1628 1.574 1_655 S
C1611 C1630 1.368 . S
C1611 H1635 0.949 . S
H1612 C1616 0.949 . S
C1613 C1614 1.349 . S
C1613 C1615 1.327 . S
C1613 H1636 0.950 . S
C1614 C1613 1.349 . S
C1614 C1626 1.349 . S
C1615 C1613 1.327 . S
C1615 C1631 1.429 . S
C1615 H1637 0.950 . S
C1616 H1612 0.949 . S
C1616 C1624 1.574 1_455 S
C1616 C1632 1.368 . S
H1617 C1625 0.950 . S
H1618 C1623 0.950 . S
H1619 C1624 0.949 . S
H1620 C1626 0.950 . S
H1621 C1627 0.950 . S
H1622 C1628 0.949 . S
C1623 H1618 0.950 . S
C1623 C1625 1.327 . S
C1623 C1629 1.429 . S
C1624 C1616 1.574 1_655 S
C1624 H1619 0.949 . S
C1624 C1630 1.368 . S
C1625 C1609 1.349 . S
C1625 H1617 0.950 . S
C1625 C1623 1.327 . S
C1626 C1614 1.349 . S
C1626 H1620 0.950 . S
C1626 C1627 1.327 . S
C1627 H1621 0.950 . S
C1627 C1626 1.327 . S
C1627 C1631 1.429 . S
C1628 C1611 1.574 1_455 S
C1628 H1622 0.949 . S
C1628 C1632 1.368 . S
C1629 C1610 1.429 . S
C1629 C1623 1.429 . S
C1629 C1630 1.523 . S
C1630 C1611 1.368 . S
C1630 C1624 1.368 . S
C1630 C1629 1.523 . S
C1631 C1615 1.429 . S
C1631 C1627 1.429 . S
C1631 C1632 1.523 . S
C1632 C1616 1.368 . S
C1632 C1628 1.368 . S
C1632 C1631 1.523 . S
H1633 C1608 0.950 . S
H1634 C1610 0.950 . S
H1635 C1611 0.949 . S
H1636 C1613 0.950 . S
H1637 C1615 0.950 . S
C1638 C1639 1.349 . S
C1638 C1640 1.327 . S
C1638 H1663 0.950 . S
C1639 C1638 1.349 . S
C1639 C1655 1.349 . S
C1640 C1638 1.327 . S
C1640 C1659 1.429 . S
C1640 H1664 0.950 . S
C1641 C1658 1.574 . S
C1641 C1660 1.368 . S
C1641 H1665 0.949 . S
H1642 C1646 0.949 . S
C1643 C1644 1.349 . S
C1643 C1645 1.327 . S
C1643 H1666 0.950 . S
C1644 C1643 1.349 . S
C1644 C1656 1.349 . S
C1645 C1643 1.327 . S
C1645 C1661 1.429 . S
C1645 H1667 0.950 . S
C1646 H1642 0.949 . S
C1646 C1654 1.574 . S
C1646 C1662 1.368 . S
H1647 C1655 0.950 . S
H1648 C1653 0.950 . S
H1649 C1654 0.949 . S
H1650 C1656 0.950 . S
H1651 C1657 0.950 . S
H1652 C1658 0.949 . S
C1653 H1648 0.950 . S
C1653 C1655 1.327 . S
C1653 C1659 1.429 . S
C1654 C1646 1.574 . S
C1654 H1649 0.949 . S
C1654 C1660 1.368 . S
C1655 C1639 1.349 . S
C1655 H1647 0.950 . S
C1655 C1653 1.327 . S
C1656 C1644 1.349 . S
C1656 H1650 0.950 . S
C1656 C1657 1.327 . S
C1657 H1651 0.950 . S
C1657 C1656 1.327 . S
C1657 C1661 1.429 . S
C1658 C1641 1.574 . S
C1658 H1652 0.949 . S
C1658 C1662 1.368 . S
C1659 C1640 1.429 . S
C1659 C1653 1.429 . S
C1659 C1660 1.523 . S
C1660 C1641 1.368 . S
C1660 C1654 1.368 . S
C1660 C1659 1.523 . S
C1661 C1645 1.429 . S
C1661 C1657 1.429 . S
C1661 C1662 1.523 . S
C1662 C1646 1.368 . S
C1662 C1658 1.368 . S
C1662 C1661 1.523 . S
H1663 C1638 0.950 . S
H1664 C1640 0.950 . S
H1665 C1641 0.949 . S
H1666 C1643 0.950 . S
H1667 C1645 0.950 . S
C1668 C1669 1.349 . S
C1668 C1670 1.327 . S
C1668 H1693 0.950 . S
C1669 C1668 1.349 . S
C1669 C1685 1.349 . S
C1670 C1668 1.327 . S
C1670 C1689 1.429 . S
C1670 H1694 0.950 . S
C1671 C1688 1.574 . S
C1671 C1690 1.368 . S
C1671 H1695 0.949 . S
H1672 C1676 0.949 . S
C1673 C1674 1.349 . S
C1673 C1675 1.327 . S
C1673 H1696 0.950 . S
C1674 C1673 1.349 . S
C1674 C1686 1.349 . S
C1675 C1673 1.327 . S
C1675 C1691 1.429 . S
C1675 H1697 0.950 . S
C1676 H1672 0.949 . S
C1676 C1684 1.574 . S
C1676 C1692 1.368 . S
H1677 C1685 0.950 . S
H1678 C1683 0.950 . S
H1679 C1684 0.949 . S
H1680 C1686 0.950 . S
H1681 C1687 0.950 . S
H1682 C1688 0.949 . S
C1683 H1678 0.950 . S
C1683 C1685 1.327 . S
C1683 C1689 1.429 . S
C1684 C1676 1.574 . S
C1684 H1679 0.949 . S
C1684 C1690 1.368 . S
C1685 C1669 1.349 . S
C1685 H1677 0.950 . S
C1685 C1683 1.327 . S
C1686 C1674 1.349 . S
C1686 H1680 0.950 . S
C1686 C1687 1.327 . S
C1687 H1681 0.950 . S
C1687 C1686 1.327 . S
C1687 C1691 1.429 . S
C1688 C1671 1.574 . S
C1688 H1682 0.949 . S
C1688 C1692 1.368 . S
C1689 C1670 1.429 . S
C1689 C1683 1.429 . S
C1689 C1690 1.523 . S
C1690 C1671 1.368 . S
C1690 C1684 1.368 . S
C1690 C1689 1.523 . S
C1691 C1675 1.429 . S
C1691 C1687 1.429 . S
C1691 C1692 1.523 . S
C1692 C1676 1.368 . S
C1692 C1688 1.368 . S
C1692 C1691 1.523 . S
H1693 C1668 0.950 . S
H1694 C1670 0.950 . S
H1695 C1671 0.949 . S
H1696 C1673 0.950 . S
H1697 C1675 0.950 . S
C1698 C1699 1.349 . S
C1698 C1700 1.327 . S
C1698 H1723 0.950 . S
C1699 C1698 1.349 . S
C1699 C1715 1.349 . S
C1700 C1698 1.327 . S
C1700 C1719 1.429 . S
C1700 H1724 0.950 . S
C1701 C1718 1.574 1_655 S
C1701 C1720 1.368 . S
C1701 H1725 0.949 . S
H1702 C1706 0.949 . S
C1703 C1704 1.349 . S
C1703 C1705 1.327 . S
C1703 H1726 0.950 . S
C1704 C1703 1.349 . S
C1704 C1716 1.349 . S
C1705 C1703 1.327 . S
C1705 C1721 1.429 . S
C1705 H1727 0.950 . S
C1706 H1702 0.949 . S
C1706 C1714 1.574 1_455 S
C1706 C1722 1.368 . S
H1707 C1715 0.950 . S
H1708 C1713 0.950 . S
H1709 C1714 0.949 . S
H1710 C1716 0.950 . S
H1711 C1717 0.950 . S
H1712 C1718 0.949 . S
C1713 H1708 0.950 . S
C1713 C1715 1.327 . S
C1713 C1719 1.429 . S
C1714 C1706 1.574 1_655 S
C1714 H1709 0.949 . S
C1714 C1720 1.368 . S
C1715 C1699 1.349 . S
C1715 H1707 0.950 . S
C1715 C1713 1.327 . S
C1716 C1704 1.349 . S
C1716 H1710 0.950 . S
C1716 C1717 1.327 . S
C1717 H1711 0.950 . S
C1717 C1716 1.327 . S
C1717 C1721 1.429 . S
C1718 C1701 1.574 1_455 S
C1718 H1712 0.949 . S
C1718 C1722 1.368 . S
C1719 C1700 1.429 . S
C1719 C1713 1.429 . S
C1719 C1720 1.523 . S
C1720 C1701 1.368 . S
C1720 C1714 1.368 . S
C1720 C1719 1.523 . S
C1721 C1705 1.429 . S
C1721 C1717 1.429 . S
C1721 C1722 1.523 . S
C1722 C1706 1.368 . S
C1722 C1718 1.368 . S
C1722 C1721 1.523 . S
H1723 C1698 0.950 . S
H1724 C1700 0.950 . S
H1725 C1701 0.949 . S
H1726 C1703 0.950 . S
H1727 C1705 0.950 . S
C529 C120 0.475 . S
C534 C21 0.475 . S
C559 C87 0.475 . S
C564 C54 0.475 . S
C589 C153 0.475 . S
C594 C252 0.475 . S
C619 C186 0.475 . S
C624 C219 0.475 . S
C649 C285 0.475 . S
C654 C384 0.475 . S
C679 C318 0.475 . S
C684 C351 0.475 . S
C709 C516 0.475 . S
C714 C417 0.475 . S
C739 C483 0.475 . S
C744 C450 0.475 . S
C769 N2 1.044 . S
C774 N332 1.044 . S
C799 N365 1.044 . S
C804 N35 1.044 . S
C829 N266 1.044 . S
C834 N68 1.044 . S
C859 N299 1.044 . S
C864 N101 1.044 . S
C889 N464 1.044 . S
C894 N134 1.044 . S
C919 N497 1.044 . S
C924 N167 1.044 . S
C949 N398 1.044 . S
C954 N200 1.044 . S
C979 N431 1.044 . S
C984 N233 1.044 . S
C1009 N13 1.667 . S
C1014 N145 1.667 . S
C1039 N46 1.667 . S
C1044 N178 1.667 . S
C1069 N211 1.667 . S
C1074 N79 1.667 . S
C1099 N112 1.667 . S
C1104 N244 1.667 . S
C1129 N277 1.667 . S
C1134 N409 1.667 . S
C1159 N442 1.667 . S
C1164 N310 1.667 . S
C1189 N343 1.667 . S
C1194 N475 1.667 . S
C1219 N508 1.667 . S
C1224 N376 1.667 . S
C1249 C18 1.317 . S
C1254 C51 1.317 . S
C1279 C117 1.317 . S
C1284 C84 1.317 . S
C1309 C183 1.317 . S
C1314 C150 1.317 . S
C1339 C216 1.317 . S
C1344 C249 1.317 . S
C1369 C315 1.317 . S
C1374 C282 1.317 . S
C1399 C381 1.317 . S
C1404 C348 1.317 . S
C1429 C414 1.317 . S
C1434 C447 1.317 . S
C1459 C513 1.317 . S
C1464 C480 1.317 . S
C1489 C7 0.651 . S
C1494 C304 0.651 . S
C1519 C40 0.651 . S
C1524 C271 0.651 . S
C1549 C73 0.651 . S
C1554 C370 0.651 . S
C1579 C106 0.651 . S
C1584 C337 0.651 . S
C1609 C139 0.651 . S
C1614 C436 0.651 . S
C1639 C403 0.651 . S
C1644 C172 0.651 . S
C1669 C205 0.651 . S
C1674 C502 0.651 . S
C1699 C469 0.651 . S
C1704 C238 0.651 . S
