# Generated by pormake.
# Topology snp, (6)-cn, num edge types: 1
# Building blocks:
#     Node 0, Type 0, BuildingBlock: KUMJIN_clean_sbu_0, # of connection points: 6
#     Node 1, Type 0, BuildingBlock: KUMJIN_clean_sbu_0, # of connection points: 6
#     Node 2, Type 0, BuildingBlock: KUMJIN_clean_sbu_0, # of connection points: 6
#     Node 3, Type 0, BuildingBlock: KUMJIN_clean_sbu_0, # of connection points: 6
#     Edge 4, Type (0, 0), BuildingBlock: OJICUG_clean_linker_0, # of connection points: 2
#     Edge 5, Type (0, 0), BuildingBlock: OJICUG_clean_linker_0, # of connection points: 2
#     Edge 6, Type (0, 0), BuildingBlock: OJICUG_clean_linker_0, # of connection points: 2
#     Edge 7, Type (0, 0), BuildingBlock: OJICUG_clean_linker_0, # of connection points: 2
#     Edge 8, Type (0, 0), BuildingBlock: OJICUG_clean_linker_0, # of connection points: 2
#     Edge 9, Type (0, 0), BuildingBlock: OJICUG_clean_linker_0, # of connection points: 2
#     Edge 10, Type (0, 0), BuildingBlock: OJICUG_clean_linker_0, # of connection points: 2
#     Edge 11, Type (0, 0), BuildingBlock: OJICUG_clean_linker_0, # of connection points: 2
#     Edge 12, Type (0, 0), BuildingBlock: OJICUG_clean_linker_0, # of connection points: 2
#     Edge 13, Type (0, 0), BuildingBlock: OJICUG_clean_linker_0, # of connection points: 2
#     Edge 14, Type (0, 0), BuildingBlock: OJICUG_clean_linker_0, # of connection points: 2
#     Edge 15, Type (0, 0), BuildingBlock: OJICUG_clean_linker_0, # of connection points: 2
# Relax obj value: 0.319
# Max RMSD: 0.235
# Mean RMSD: 0.215
data_MOF--net-snp--node1-KUMJIN_clean_sbu_0--edge1-OJICUG_clean_linker_0
_symmetry_space_group_name_H-M    P1
_symmetry_Int_Tables_number       1
_symmetry_cell_setting            triclinic
loop_
_symmetry_equiv_pos_as_xyz
'x, y, z'
_cell_length_a     19.265796
_cell_length_b     20.022475
_cell_length_c     23.600718
_cell_angle_alpha  116.84833
_cell_angle_beta   105.24232
_cell_angle_gamma 71.166528
loop_
_atom_site_label
_atom_site_type_symbol
_atom_site_fract_x
_atom_site_fract_y
_atom_site_fract_z
_atom_type_partial_charge
Eu0 Eu 0.26645 0.25038 0.1611 0.0
C1 C 0.53632 0.92999 0.08508 0.0
C2 C 0.48415 0.81891 1.02826 0.0
C3 C 0.6171 0.80162 1.04249 0.0
C4 C 0.47578 0.89935 1.06437 0.0
C5 C 0.60802 0.8816 1.07531 0.0
C6 C 0.55505 0.77031 1.01838 0.0
C7 C 0.65636 0.99473 0.12994 0.0
N8 N 0.52513 1.00759 0.11398 0.0
C9 C 0.58417 0.04034 0.13379 0.0
C10 C 0.66858 0.91498 0.0997 0.0
Eu11 Eu 0.40957 0.08241 0.15208 0.0
N12 N 0.4084 0.94862 1.07609 0.0
C13 C 0.34685 0.91928 1.04497 0.0
C14 C 0.42111 0.78972 1.00143 0.0
C15 C 0.35207 0.84053 1.00858 0.0
H16 H 0.57627 0.1022 0.15594 0.0
H17 H 0.30241 0.81932 0.98543 0.0
H18 H 0.56236 0.70861 0.99157 0.0
H19 H 0.70222 1.02156 0.14905 0.0
H20 H 0.29233 0.95527 1.04534 0.0
H21 H 0.46039 0.40935 0.34957 0.0
H22 H 0.42506 0.72868 0.97309 0.0
H23 H 0.09597 0.2451 0.16993 0.0
H24 H 0.42447 0.30768 0.24777 0.0
H25 H 0.01187 0.30131 0.25021 0.0
H26 H 0.67164 0.76374 1.03466 0.0
H27 H 0.3693 0.49388 0.42487 0.0
H28 H 0.2419 0.52752 0.45246 0.0
H29 H 0.72464 0.87999 0.09479 0.0
H30 H 0.12159 0.49508 0.4273 0.0
N31 N 0.31292 0.33408 0.26372 0.0
C32 C 0.3835 0.34415 0.27942 0.0
C33 C 0.35269 0.44991 0.37961 0.0
C34 C 0.281 0.43856 0.36401 0.0
C35 C 0.40436 0.40196 0.33742 0.0
C36 C 0.26244 0.37951 0.30479 0.0
H37 H 0.03949 0.40513 0.35506 0.0
N38 N 0.17866 0.30429 0.23326 0.0
C39 C 0.06263 0.31942 0.26208 0.0
C40 C 0.19413 0.36244 0.29003 0.0
C41 C 0.11182 0.2858 0.2173 0.0
C42 C 0.07809 0.37849 0.32087 0.0
C43 C 0.14342 0.40235 0.33486 0.0
O44 O 0.16729 0.30811 0.11392 0.0
O45 O 0.3288 0.14049 0.08797 0.0
O46 O 0.43532 0.13844 0.09572 0.0
O47 O 0.36744 0.26437 0.13912 0.0
O48 O 0.21588 0.17192 1.06582 0.0
O49 O 0.2638 0.3554 0.15398 0.0
O50 O 0.47958 0.15727 0.22458 0.0
O51 O 0.34755 0.19358 0.22075 0.0
O52 O 0.2148 0.16028 0.15481 0.0
O53 O 0.30751 0.04648 0.14462 0.0
O54 O 0.35957 0.095 0.23559 0.0
O55 O 0.49542 0.04116 0.21797 0.0
C56 C 0.27433 0.12041 1.04405 0.0
C57 C 0.19258 0.37527 1.06342 0.0
C58 C 0.24997 0.36896 0.97999 0.0
C59 C 0.25328 0.3476 1.02979 0.0
C60 C 0.18479 0.41766 0.96342 0.0
C61 C 0.1276 0.42284 1.04573 0.0
C62 C 0.12377 0.44377 0.99579 0.0
C63 C 0.42259 0.21304 0.10878 0.0
C64 C 0.19865 0.36015 0.12014 0.0
C65 C 0.16037 0.46312 0.39274 0.0
C66 C 0.22878 0.48172 0.40701 0.0
C67 C 0.33557 0.16962 0.25859 0.0
C68 C 0.53036 0.13612 0.32047 0.0
C69 C 0.53263 0.09088 0.35273 0.0
C70 C 0.55145 0.11783 0.41964 0.0
C71 C 0.56935 0.18987 0.45407 0.0
C72 C 0.54842 0.20801 0.35583 0.0
C73 C 0.56784 0.23457 0.42223 0.0
C74 C 0.23794 0.08609 0.14399 0.0
C75 C 0.51462 0.10707 0.24989 0.0
H76 H 0.30363 0.31061 1.043 0.0
H77 H 0.18059 0.43438 0.9247 0.0
H78 H 0.08039 0.44483 1.07127 0.0
H79 H 0.07355 0.48068 0.98234 0.0
H80 H 0.51838 0.03554 0.32622 0.0
H81 H 0.5841 0.21169 0.50571 0.0
H82 H 0.54824 0.24341 0.33204 0.0
H83 H 0.58169 0.29001 0.44912 0.0
Eu84 Eu 0.05639 0.41633 0.55699 0.0
C85 C 0.33898 0.44478 0.73733 0.0
C86 C 0.4471 0.43308 0.69593 0.0
C87 C 0.43406 0.51286 0.80803 0.0
C88 C 0.37962 0.41361 0.68694 0.0
C89 C 0.36508 0.49664 0.79804 0.0
C90 C 0.47489 0.48132 0.75702 0.0
C91 C 0.24905 0.52105 0.83263 0.0
N92 N 0.2714 0.42951 0.72566 0.0
C93 C 0.22507 0.47025 0.77161 0.0
C94 C 0.31986 0.53327 0.84633 0.0
Eu95 Eu 0.24232 0.33178 0.62211 0.0
N96 N 0.35078 0.36815 0.62806 0.0
C97 C 0.38678 0.34044 0.57632 0.0
C98 C 0.48391 0.40491 0.6429 0.0
C99 C 0.45324 0.35885 0.58273 0.0
H100 H 0.16881 0.46565 0.76214 0.0
H101 H 0.48128 0.33655 0.54143 0.0
H102 H 0.52699 0.49616 0.76496 0.0
H103 H 0.21236 0.55159 0.86888 0.0
H104 H 0.36596 0.30074 0.53074 0.0
H105 H 0.91082 0.55467 0.76495 0.0
H106 H 0.53564 0.41885 0.64782 0.0
H107 H 0.00456 0.30033 0.40446 0.0
H108 H 0.01552 0.51727 0.70571 0.0
H109 H 0.89679 0.24656 0.34015 0.0
H110 H 0.45518 0.55181 0.85452 0.0
H111 H 0.7975 0.50693 0.70815 0.0
H112 H 0.72844 0.42844 0.60534 0.0
H113 H 0.33793 0.57334 0.89352 0.0
H114 H 0.72488 0.34452 0.49023 0.0
N115 N 0.96173 0.44882 0.61723 0.0
C116 C 0.96614 0.49618 0.68088 0.0
C117 C 0.84305 0.49065 0.68206 0.0
C118 C 0.83868 0.44294 0.61648 0.0
C119 C 0.90699 0.51762 0.71434 0.0
C120 C 0.8996 0.42333 0.58481 0.0
H121 H 0.78744 0.27612 0.39108 0.0
N122 N 0.95748 0.3586 0.49145 0.0
C123 C 0.89633 0.28286 0.39074 0.0
C124 C 0.89762 0.37626 0.52008 0.0
C125 C 0.95729 0.31358 0.42735 0.0
C126 C 0.83468 0.29976 0.41966 0.0
C127 C 0.83461 0.34719 0.48505 0.0
O128 O 0.03873 0.48281 0.50039 0.0
O129 O 0.17456 0.35844 0.53818 0.0
O130 O 0.24071 0.44023 0.61521 0.0
O131 O 0.12404 0.49152 0.64123 0.0
O132 O 0.1015 0.37268 0.46215 0.0
O133 O 0.99482 0.53756 0.58978 0.0
O134 O 0.27884 0.23946 0.65499 0.0
O135 O 0.12089 0.37341 0.6351 0.0
O136 O 0.06003 0.29306 0.52798 0.0
O137 O 0.1866 0.25159 0.52926 0.0
O138 O 0.19147 0.32538 0.6956 0.0
O139 O 0.33858 0.23499 0.58817 0.0
C140 C 0.17088 0.34814 0.47982 0.0
C141 C 0.91926 0.56655 0.50281 0.0
C142 C 0.83374 0.53548 0.40246 0.0
C143 C 0.90608 0.53396 0.43562 0.0
C144 C 0.77413 0.58235 0.43732 0.0
C145 C 0.85916 0.61325 0.53683 0.0
C146 C 0.78719 0.62263 0.5039 0.0
C147 C 0.18515 0.50008 0.63308 0.0
C148 C 0.99335 0.54206 0.53614 0.0
C149 C 0.77376 0.36635 0.51631 0.0
C150 C 0.77577 0.41416 0.58186 0.0
C151 C 0.1222 0.35102 0.67912 0.0
C152 C 0.40726 0.21524 0.68249 0.0
C153 C 0.39931 0.21729 0.74076 0.0
C154 C 0.44591 0.24918 0.79718 0.0
C155 C 0.50778 0.2689 0.79386 0.0
C156 C 0.47007 0.23442 0.67965 0.0
C157 C 0.5211 0.25888 0.73473 0.0
C158 C 0.12124 0.23756 0.52188 0.0
C159 C 0.34135 0.21188 0.63234 0.0
H160 H 0.95251 0.502 0.4092 0.0
H161 H 0.71744 0.5852 0.41403 0.0
H162 H 0.86746 0.6403 0.58874 0.0
H163 H 0.74097 0.65777 0.53048 0.0
H164 H 0.35038 0.20441 0.74421 0.0
H165 H 0.54372 0.29478 0.8371 0.0
H166 H 0.47784 0.23463 0.63604 0.0
H167 H 0.56826 0.27525 0.73237 0.0
Eu168 Eu 0.81558 0.24793 1.02064 0.0
C169 C 0.83062 0.9491 1.02039 0.0
C170 C 0.71286 0.91764 0.96712 0.0
C171 C 0.82574 0.81674 0.94752 0.0
C172 C 0.75474 0.97217 1.00999 0.0
C173 C 0.86698 0.87063 0.99052 0.0
C174 C 0.7488 0.84037 0.9354 0.0
C175 C 0.98193 0.90352 1.05003 0.0
N176 N 0.86932 1.0031 1.05969 0.0
C177 C 0.94322 0.98014 1.07792 0.0
C178 C 0.94379 0.84858 1.00497 0.0
Eu179 Eu 0.80348 0.13393 0.10831 0.0
N180 N 0.72181 0.04719 1.04277 0.0
C181 C 0.64598 0.06773 1.03895 0.0
C182 C 0.63591 0.94169 0.95837 0.0
C183 C 0.60233 1.0168 0.99521 0.0
H184 H 0.97195 1.01983 0.11643 0.0
H185 H 0.54269 0.03421 0.99254 0.0
H186 H 0.71742 0.79813 0.90246 0.0
H187 H 0.04087 0.88674 1.0644 0.0
H188 H 0.61771 0.12176 1.0721 0.0
H189 H 0.98375 0.42887 0.2173 0.0
H190 H 0.60192 0.90177 0.92597 0.0
H191 H 0.6638 0.30189 0.92581 0.0
H192 H 0.95368 0.3061 0.13444 0.0
H193 H 0.57118 0.42136 0.92614 0.0
H194 H 0.85279 0.75663 0.92369 0.0
H195 H 0.89182 0.55191 0.23238 0.0
H196 H 0.76853 0.6233 0.19538 0.0
H197 H 0.97369 0.78907 0.98329 0.0
H198 H 0.65584 0.62131 0.11641 0.0
N199 N 0.84612 0.36093 0.10339 0.0
C200 C 0.91334 0.36005 0.14091 0.0
C201 C 0.8784 0.49874 0.19591 0.0
C202 C 0.81083 0.49935 0.15533 0.0
C203 C 0.93041 0.429 0.18778 0.0
C204 C 0.79639 0.42855 0.10825 0.0
H205 H 0.5823 0.54651 1.01557 0.0
N206 N 0.72313 0.35874 1.01649 0.0
C207 C 0.61585 0.42374 0.96549 0.0
C208 C 0.73277 0.4274 1.06387 0.0
C209 C 0.66805 0.3564 0.96556 0.0
C210 C 0.62227 0.49427 1.01613 0.0
C211 C 0.68213 0.49703 1.06533 0.0
O212 O 0.82578 0.22203 0.92091 0.0
O213 O 0.81828 0.13042 1.01453 0.0
O214 O 0.91321 0.16015 0.12872 0.0
O215 O 0.92625 0.16835 1.03784 0.0
O216 O 0.75077 0.16704 0.94275 0.0
O217 O 0.90386 0.27582 0.99599 0.0
O218 O 0.88412 0.1213 0.19139 0.0
O219 O 0.82062 0.24551 0.11737 0.0
O220 O 0.6932 0.27311 1.02997 0.0
O221 O 0.68884 0.19601 0.08012 0.0
O222 O 0.74429 0.25236 0.16983 0.0
O223 O 0.77314 0.11897 0.18538 0.0
C224 C 0.77296 0.11231 0.96304 0.0
C225 C 0.87901 0.30235 0.9003 0.0
C226 C 0.92248 0.33607 0.8264 0.0
C227 C 0.93307 0.28887 0.86127 0.0
C228 C 0.85819 0.39589 0.83255 0.0
C229 C 0.81803 0.36517 0.90536 0.0
C230 C 0.80751 0.41062 0.87183 0.0
C231 C 0.95348 0.14836 0.08697 0.0
C232 C 0.88222 0.2517 0.93441 0.0
C233 C 0.69445 0.56733 0.11418 0.0
C234 C 0.75868 0.56848 0.15908 0.0
C235 C 0.77683 0.29196 0.15857 0.0
C236 C 0.86841 0.04264 0.23761 0.0
C237 C 0.91004 0.04688 0.29946 0.0
C238 C 0.93658 0.97973 0.31447 0.0
C239 C 0.91814 0.91106 0.26736 0.0
C240 C 0.85522 0.97108 0.19267 0.0
C241 C 0.87859 0.90684 0.20767 0.0
C242 C 0.65766 0.24386 1.05107 0.0
C243 C 0.8397 0.10997 0.21724 0.0
H244 H 0.98176 0.24183 0.85724 0.0
H245 H 0.84779 0.43328 0.80788 0.0
H246 H 0.77762 0.37942 0.93539 0.0
H247 H 0.75925 0.45823 0.87648 0.0
H248 H 0.92312 0.10078 0.33448 0.0
H249 H 0.93568 0.85917 0.27639 0.0
H250 H 0.82653 0.96445 0.14518 0.0
H251 H 0.86664 0.85261 0.17216 0.0
Eu252 Eu 0.0621 0.95176 0.66628 0.0
C253 C 0.37203 0.7561 0.63116 0.0
C254 C 0.43407 0.77661 0.73916 0.0
C255 C 0.46735 0.65209 0.65157 0.0
C256 C 0.37979 0.80327 0.69586 0.0
C257 C 0.4168 0.68059 0.60807 0.0
C258 C 0.47602 0.70005 0.71703 0.0
C259 C 0.36214 0.66909 0.50031 0.0
N260 N 0.32217 0.78523 0.59038 0.0
C261 C 0.31873 0.74422 0.52547 0.0
C262 C 0.41069 0.63674 0.5418 0.0
Eu263 Eu 0.25045 0.91314 0.6367 0.0
N264 N 0.33914 0.8773 0.71548 0.0
C265 C 0.35735 0.92979 0.77528 0.0
C266 C 0.44736 0.82886 0.80262 0.0
C267 C 0.41033 0.90634 0.82023 0.0
H268 H 0.28099 0.76891 0.49328 0.0
H269 H 0.42334 0.94823 0.86806 0.0
H270 H 0.51717 0.67825 0.74975 0.0
H271 H 0.3581 0.63621 0.44895 0.0
H272 H 0.3325 0.99032 0.78767 0.0
H273 H 0.99973 0.74081 0.42431 0.0
H274 H 0.48884 0.8109 0.83731 0.0
H275 H 0.96601 0.12991 0.74782 0.0
H276 H 0.07635 0.79176 0.52948 0.0
H277 H 0.84457 0.21677 0.73104 0.0
H278 H 0.50154 0.59385 0.63488 0.0
H279 H 0.87732 0.8205 0.40003 0.0
H280 H 0.77993 0.944 0.43582 0.0
H281 H 0.44434 0.57859 0.52219 0.0
H282 H 0.73821 0.07271 0.51853 0.0
N283 N 0.99894 0.8997 0.5625 0.0
C284 C 0.02331 0.82705 0.51861 0.0
C285 C 0.91072 0.84314 0.44601 0.0
C286 C 0.88508 0.91665 0.49221 0.0
C287 C 0.97994 0.79804 0.45942 0.0
C288 C 0.93073 0.94361 0.55127 0.0
H289 H 0.7622 0.17501 0.62821 0.0
N290 N 0.95202 0.04186 0.65478 0.0
C291 C 0.8618 0.16091 0.69333 0.0
C292 C 0.90697 1.01669 0.59833 0.0
C293 C 0.93027 0.11197 0.70265 0.0
C294 C 0.81528 0.13698 0.63518 0.0
C295 C 0.83735 0.06401 0.58692 0.0
O296 O 0.99161 0.96122 0.72933 0.0
O297 O 0.17962 0.95117 0.71659 0.0
O298 O 0.22169 0.80034 0.6099 0.0
O299 O 0.14576 0.85385 0.68618 0.0
O300 O 0.09378 0.03513 0.76749 0.0
O301 O 0.02399 0.85208 0.64799 0.0
O302 O 0.33829 0.97615 0.67509 0.0
O303 O 0.13092 0.92397 0.5918 0.0
O304 O 0.06767 0.0542 0.65556 0.0
O305 O 0.1941 0.0399 0.6857 0.0
O306 O 0.2036 0.90817 0.53536 0.0
O307 O 0.30023 0.93037 0.57298 0.0
C308 C 0.16527 1.00813 0.77093 0.0
C309 C 0.91257 0.87448 0.68582 0.0
C310 C 0.81827 0.8766 0.73826 0.0
C311 C 0.88444 0.89363 0.74086 0.0
C312 C 0.77836 0.84159 0.67815 0.0
C313 C 0.87355 0.83807 0.62559 0.0
C314 C 0.8062 0.82235 0.62199 0.0
C315 C 0.18416 0.79296 0.64486 0.0
C316 C 0.98507 0.88995 0.69547 0.0
C317 C 0.79194 0.03716 0.52807 0.0
C318 C 0.81568 0.96376 0.48094 0.0
C319 C 0.13392 0.92271 0.5375 0.0
C320 C 0.42412 0.94012 0.6034 0.0
C321 C 0.4395 0.97231 0.56779 0.0
C322 C 0.51075 0.95256 0.55141 0.0
C323 C 0.56625 0.89714 0.56947 0.0
C324 C 0.47994 0.88526 0.62149 0.0
C325 C 0.55065 0.86363 0.60416 0.0
C326 C 0.12878 0.07611 0.66499 0.0
C327 C 0.34829 0.96408 0.61841 0.0
H328 H 0.91459 0.9239 0.78665 0.0
H329 H 0.72605 0.8298 0.67472 0.0
H330 H 0.89473 0.82199 0.58185 0.0
H331 H 0.77549 0.79538 0.57564 0.0
H332 H 0.39518 1.01319 0.55273 0.0
H333 H 0.62185 0.881 0.5581 0.0
H334 H 0.46892 0.85914 0.64855 0.0
H335 H 0.59367 0.82122 0.61811 0.0
C336 C 0.06149 0.10391 0.15574 0.0
C337 C 0.03069 0.10947 0.09641 0.0
H338 H 0.15779 0.06361 0.21127 0.0
C339 C 0.07238 0.07134 1.04568 0.0
H340 H 0.02951 0.12938 0.19512 0.0
C341 C 0.14686 0.03758 1.05713 0.0
C342 C 0.17962 0.04559 0.11994 0.0
H343 H 0.04883 0.07127 0.9986 0.0
H344 H 0.18013 1.01926 1.01998 0.0
C345 C 0.13447 0.06552 0.16503 0.0
C346 C 0.19115 0.10931 0.60581 0.0
C347 C 0.12671 0.11831 0.62784 0.0
H348 H 0.23836 0.12845 0.54408 0.0
C349 C 0.05815 0.15359 0.60266 0.0
H350 H 0.24457 0.08348 0.62486 0.0
C351 C 0.05449 0.18018 0.55683 0.0
C352 C 0.12002 0.177 0.53936 0.0
H353 H 0.00708 0.16001 0.61783 0.0
H354 H 0.00097 0.20963 0.53989 0.0
C355 C 0.1874 0.13479 0.55927 0.0
C356 C 0.55043 0.31819 0.10647 0.0
C357 C 0.57728 0.26778 1.04806 0.0
H358 H 0.48044 0.33819 0.17238 0.0
C359 C 0.53788 0.21311 1.00267 0.0
H360 H 0.58016 0.36063 0.14227 0.0
C361 C 0.48288 0.19811 1.02081 0.0
C362 C 0.46577 0.23948 0.08359 0.0
H363 H 0.55765 0.17359 0.95723 0.0
H364 H 0.45803 0.15054 0.98762 0.0
C365 C 0.49481 0.30395 0.1243 0.0
C366 C 0.14586 0.64228 0.6785 0.0
C367 C 0.18893 0.57452 0.63846 0.0
H368 H 0.11269 0.76423 0.71345 0.0
C369 C 0.23306 0.57823 0.60154 0.0
H370 H 0.11176 0.64064 0.70757 0.0
C371 C 0.23212 0.6492 0.60327 0.0
C372 C 0.18857 0.71728 0.64322 0.0
H373 H 0.26637 0.52617 0.56982 0.0
H374 H 0.26445 0.65052 0.57281 0.0
C375 C 0.14643 0.713 0.68153 0.0
C376 C 0.28571 0.3152 0.4277 0.0
C377 C 0.22317 0.29556 0.43085 0.0
H378 H 0.37332 0.28839 0.37373 0.0
C379 C 0.19997 0.23353 0.37727 0.0
H380 H 0.30297 0.36536 0.46581 0.0
C381 C 0.23682 0.19364 0.32267 0.0
C382 C 0.2974 0.21461 0.31819 0.0
H383 H 0.15105 0.21745 0.37653 0.0
H384 H 0.2167 0.14718 0.28296 0.0
C385 C 0.32426 0.27303 0.37345 0.0
C386 C 0.09022 0.35365 0.77778 0.0
C387 C 0.06571 0.35059 0.71445 0.0
H388 H 0.06804 0.34846 0.86069 0.0
C389 C 0.99596 0.33341 0.6864 0.0
H390 H 0.14436 0.36407 0.80156 0.0
C391 C 0.9514 0.32495 0.7213 0.0
C392 C 0.97596 0.32943 0.78499 0.0
H393 H 0.97629 0.32431 0.63699 0.0
H394 H 0.89698 0.31495 0.69821 0.0
C395 C 0.04688 0.34313 0.81197 0.0
C396 C 0.09575 0.89696 0.42041 0.0
C397 C 0.07686 0.93846 0.48313 0.0
H398 H 0.06962 0.87835 0.32104 0.0
C399 C 0.01274 0.99985 0.49079 0.0
H400 H 0.14526 0.85056 0.41151 0.0
C401 C 0.96854 1.01702 0.43779 0.0
C402 C 0.98755 0.97386 0.37495 0.0
H403 H 0.99669 0.03524 0.53769 0.0
H404 H 0.91865 0.0629 0.4459 0.0
C405 C 0.05244 0.91378 0.36803 0.0
C406 C 0.24515 0.98021 0.86685 0.0
C407 C 0.21314 0.03116 0.83577 0.0
H408 H 0.29496 0.9658 0.95419 0.0
C409 C 0.21278 0.10948 0.87326 0.0
H410 H 0.24416 0.91993 0.84073 0.0
C411 C 0.24132 0.13603 0.93926 0.0
C412 C 0.27183 0.08592 0.97138 0.0
H413 H 0.18625 0.15138 0.85232 0.0
H414 H 0.23396 0.19747 0.96657 0.0
C415 C 0.27475 1.00695 0.93296 0.0
C416 C 0.83655 0.9759 0.90964 0.0
C417 C 0.77124 0.03383 0.9161 0.0
H418 H 0.89534 0.86698 0.84955 0.0
C419 C 0.71091 1.02206 0.86678 0.0
H420 H 0.88538 0.98503 0.94484 0.0
C421 C 0.72051 0.95902 0.80797 0.0
C422 C 0.78973 0.90646 0.79972 0.0
H423 H 0.66002 0.06664 0.87062 0.0
H424 H 0.67814 0.95813 0.76719 0.0
C425 C 0.84238 0.90864 0.85422 0.0
C426 C 0.50318 0.11223 0.50443 0.0
C427 C 0.54601 0.07434 0.45433 0.0
H428 H 0.45935 0.10274 0.57336 0.0
C429 C 0.58017 0.99543 0.43675 0.0
H430 H 0.47537 0.17261 0.51827 0.0
C431 C 0.57092 0.95528 0.46902 0.0
C432 C 0.52632 0.99338 0.51845 0.0
H433 H 0.61366 0.96499 0.39809 0.0
H434 H 0.59677 0.89434 0.45415 0.0
C435 C 0.49351 0.07217 0.53575 0.0
C436 C 0.39137 0.35891 0.88999 0.0
C437 C 0.417 0.27891 0.85819 0.0
H438 H 0.31668 0.45036 0.95289 0.0
C439 C 0.39559 0.22938 0.87393 0.0
H440 H 0.40631 0.39807 0.8778 0.0
C441 C 0.34476 0.25925 0.91708 0.0
C442 C 0.31349 0.33884 0.94401 0.0
H443 H 0.41392 0.16746 0.84926 0.0
H444 H 0.32621 0.21967 0.92583 0.0
C445 C 0.33932 0.38867 0.93206 0.0
C446 C 0.74464 0.4317 0.23155 0.0
C447 C 0.79543 0.35975 0.21361 0.0
H448 H 0.71847 0.54621 0.30428 0.0
C449 C 0.85872 0.34734 0.25607 0.0
H450 H 0.69387 0.44121 0.19996 0.0
C451 C 0.87195 0.40555 0.31555 0.0
C452 C 0.82194 0.47831 0.33487 0.0
H453 H 0.89567 0.29059 0.24477 0.0
H454 H 0.91957 0.39113 0.3477 0.0
C455 C 0.75842 0.49121 0.29146 0.0
loop_
_geom_bond_atom_site_label_1
_geom_bond_atom_site_label_2
_geom_bond_distance
_geom_bond_site_symmetry_2
_ccdc_geom_bond_type
Eu0 N31 2.657 . S
Eu0 N38 2.609 . S
Eu0 O44 2.558 1_554 S
Eu0 O45 2.612 1_544 S
Eu0 O47 2.339 . S
Eu0 O48 2.563 1_554 S
Eu0 O49 2.419 1_554 S
Eu0 O51 2.380 . S
Eu0 O52 2.432 . S
Eu0 C64 2.848 1_554 S
C1 C4 1.429 . S
C1 C5 1.411 . S
C1 N8 1.377 1_556 S
C2 C4 1.420 . S
C2 C6 1.423 . S
C2 C14 1.392 . S
C3 C5 1.420 . S
C3 C6 1.351 . S
C3 H26 0.931 . S
C4 C1 1.429 . S
C4 C2 1.420 . S
C4 N12 1.362 . S
C5 C1 1.411 . S
C5 C3 1.420 . S
C5 C10 1.395 . S
C6 C2 1.423 . S
C6 C3 1.351 . S
C6 H18 0.930 . S
C7 C9 1.400 . S
C7 C10 1.386 1_554 S
C7 H19 0.930 . S
N8 C1 1.377 1_554 S
N8 C9 1.321 . S
N8 Eu11 2.609 . S
C9 C7 1.400 . S
C9 N8 1.321 . S
C9 H16 0.930 . S
C10 C5 1.395 . S
C10 C7 1.386 1_556 S
C10 H29 0.930 . S
Eu11 N8 2.609 . S
Eu11 N12 2.657 1_554 S
Eu11 O45 2.380 1_554 S
Eu11 O46 2.432 . S
Eu11 O50 2.558 . S
Eu11 O51 2.612 1_565 S
Eu11 O53 2.339 . S
Eu11 O54 2.563 1_565 S
Eu11 O55 2.419 . S
Eu11 C75 2.848 . S
N12 C4 1.362 . S
N12 Eu11 2.657 1_556 S
N12 C13 1.334 . S
C13 N12 1.334 . S
C13 C15 1.413 . S
C13 H20 0.929 . S
C14 C2 1.392 . S
C14 C15 1.367 . S
C14 H22 0.930 . S
C15 C13 1.413 . S
C15 C14 1.367 . S
C15 H17 0.930 . S
H16 C9 0.930 . S
H17 C15 0.930 . S
H18 C6 0.930 . S
H19 C7 0.930 . S
H20 C13 0.929 . S
H21 C35 0.930 . S
H22 C14 0.930 . S
H23 C41 0.930 . S
H24 C32 0.929 . S
H25 C39 0.930 . S
H26 C3 0.931 . S
H27 C33 0.930 . S
H28 C66 0.930 . S
H29 C10 0.930 . S
H30 C65 0.931 . S
N31 Eu0 2.657 . S
N31 C32 1.334 . S
N31 C36 1.362 . S
C32 H24 0.929 . S
C32 N31 1.334 . S
C32 C35 1.413 . S
C33 H27 0.930 . S
C33 C34 1.392 . S
C33 C35 1.367 . S
C34 C33 1.392 . S
C34 C36 1.420 . S
C34 C66 1.423 . S
C35 H21 0.930 . S
C35 C32 1.413 . S
C35 C33 1.367 . S
C36 N31 1.362 . S
C36 C34 1.420 . S
C36 C40 1.429 . S
H37 C42 0.930 . S
N38 Eu0 2.609 . S
N38 C40 1.377 . S
N38 C41 1.321 . S
C39 H25 0.930 . S
C39 C41 1.400 . S
C39 C42 1.386 . S
C40 C36 1.429 . S
C40 N38 1.377 . S
C40 C43 1.411 . S
C41 H23 0.930 . S
C41 N38 1.321 . S
C41 C39 1.400 . S
C42 H37 0.930 . S
C42 C39 1.386 . S
C42 C43 1.395 . S
C43 C40 1.411 . S
C43 C42 1.395 . S
C43 C65 1.420 . S
O44 Eu0 2.558 1_556 S
O44 C64 1.257 . S
O45 Eu0 2.612 1_566 S
O45 Eu11 2.380 1_556 S
O45 C56 1.276 . S
O46 Eu11 2.432 . S
O46 C63 1.264 1_565 S
O47 Eu0 2.339 . S
O47 C63 1.254 . S
O48 Eu0 2.563 1_556 S
O48 C56 1.235 1_545 S
O49 Eu0 2.419 1_556 S
O49 C64 1.249 . S
O50 Eu11 2.558 . S
O50 C75 1.257 . S
O51 Eu0 2.380 . S
O51 Eu11 2.612 1_545 S
O51 C67 1.276 . S
O52 Eu0 2.432 . S
O52 C74 1.264 . S
O53 Eu11 2.339 . S
O53 C74 1.254 1_565 S
O54 Eu11 2.563 1_545 S
O54 C67 1.235 . S
O55 Eu11 2.419 . S
O55 C75 1.249 . S
C56 O45 1.276 . S
C56 O48 1.235 1_565 S
C57 C59 1.393 . S
C57 C61 1.395 . S
C57 C64 1.492 . S
C58 C59 1.392 . S
C58 C60 1.386 . S
C59 C57 1.393 . S
C59 C58 1.392 . S
C59 H76 0.930 . S
C60 C58 1.386 . S
C60 C62 1.395 . S
C60 H77 0.930 . S
C61 C57 1.395 . S
C61 C62 1.379 . S
C61 H78 0.930 . S
C62 C60 1.395 . S
C62 C61 1.379 . S
C62 H79 0.930 . S
C63 O46 1.264 1_545 S
C63 O47 1.254 . S
C64 Eu0 2.848 1_556 S
C64 O44 1.257 . S
C64 O49 1.249 . S
C64 C57 1.492 . S
C65 H30 0.931 . S
C65 C43 1.420 . S
C65 C66 1.351 . S
C66 H28 0.930 . S
C66 C34 1.423 . S
C66 C65 1.351 . S
C67 O51 1.276 . S
C67 O54 1.235 . S
C68 C69 1.393 . S
C68 C72 1.395 . S
C68 C75 1.492 . S
C69 C68 1.393 . S
C69 C70 1.392 . S
C69 H80 0.930 . S
C70 C69 1.392 . S
C70 C71 1.386 . S
C71 C70 1.386 . S
C71 C73 1.395 . S
C71 H81 0.930 . S
C72 C68 1.395 . S
C72 C73 1.379 . S
C72 H82 0.930 . S
C73 C71 1.395 . S
C73 C72 1.379 . S
C73 H83 0.930 . S
C74 O52 1.264 . S
C74 O53 1.254 1_545 S
C75 Eu11 2.848 . S
C75 O50 1.257 . S
C75 O55 1.249 . S
C75 C68 1.492 . S
H76 C59 0.930 . S
H77 C60 0.930 . S
H78 C61 0.930 . S
H79 C62 0.930 . S
H80 C69 0.930 . S
H81 C71 0.930 . S
H82 C72 0.930 . S
H83 C73 0.930 . S
Eu84 N115 2.657 1_455 S
Eu84 N122 2.609 1_455 S
Eu84 O128 2.558 1_455 S
Eu84 O129 2.612 . S
Eu84 O131 2.339 . S
Eu84 O132 2.563 . S
Eu84 O133 2.419 1_455 S
Eu84 O135 2.380 . S
Eu84 O136 2.432 . S
Eu84 C148 2.848 1_455 S
C85 C88 1.429 . S
C85 C89 1.411 . S
C85 N92 1.377 . S
C86 C88 1.420 . S
C86 C90 1.423 . S
C86 C98 1.392 . S
C87 C89 1.420 . S
C87 C90 1.351 . S
C87 H110 0.931 . S
C88 C85 1.429 . S
C88 C86 1.420 . S
C88 N96 1.362 . S
C89 C85 1.411 . S
C89 C87 1.420 . S
C89 C94 1.395 . S
C90 C86 1.423 . S
C90 C87 1.351 . S
C90 H102 0.930 . S
C91 C93 1.400 . S
C91 C94 1.386 . S
C91 H103 0.930 . S
N92 C85 1.377 . S
N92 C93 1.321 . S
N92 Eu95 2.609 . S
C93 C91 1.400 . S
C93 N92 1.321 . S
C93 H100 0.930 . S
C94 C89 1.395 . S
C94 C91 1.386 . S
C94 H113 0.930 . S
Eu95 N92 2.609 . S
Eu95 N96 2.657 . S
Eu95 O129 2.380 . S
Eu95 O130 2.432 . S
Eu95 O134 2.558 . S
Eu95 O135 2.612 . S
Eu95 O137 2.339 . S
Eu95 O138 2.563 . S
Eu95 O139 2.419 . S
Eu95 C159 2.848 . S
N96 C88 1.362 . S
N96 Eu95 2.657 . S
N96 C97 1.334 . S
C97 N96 1.334 . S
C97 C99 1.413 . S
C97 H104 0.929 . S
C98 C86 1.392 . S
C98 C99 1.367 . S
C98 H106 0.930 . S
C99 C97 1.413 . S
C99 C98 1.367 . S
C99 H101 0.930 . S
H100 C93 0.930 . S
H101 C99 0.930 . S
H102 C90 0.930 . S
H103 C91 0.930 . S
H104 C97 0.929 . S
H105 C119 0.930 . S
H106 C98 0.930 . S
H107 C125 0.930 . S
H108 C116 0.929 . S
H109 C123 0.930 . S
H110 C87 0.931 . S
H111 C117 0.930 . S
H112 C150 0.930 . S
H113 C94 0.930 . S
H114 C149 0.931 . S
N115 Eu84 2.657 1_655 S
N115 C116 1.334 . S
N115 C120 1.362 . S
C116 H108 0.929 . S
C116 N115 1.334 . S
C116 C119 1.413 . S
C117 H111 0.930 . S
C117 C118 1.392 . S
C117 C119 1.367 . S
C118 C117 1.392 . S
C118 C120 1.420 . S
C118 C150 1.423 . S
C119 H105 0.930 . S
C119 C116 1.413 . S
C119 C117 1.367 . S
C120 N115 1.362 . S
C120 C118 1.420 . S
C120 C124 1.429 . S
H121 C126 0.930 . S
N122 Eu84 2.609 1_655 S
N122 C124 1.377 . S
N122 C125 1.321 . S
C123 H109 0.930 . S
C123 C125 1.400 . S
C123 C126 1.386 . S
C124 C120 1.429 . S
C124 N122 1.377 . S
C124 C127 1.411 . S
C125 H107 0.930 . S
C125 N122 1.321 . S
C125 C123 1.400 . S
C126 H121 0.930 . S
C126 C123 1.386 . S
C126 C127 1.395 . S
C127 C124 1.411 . S
C127 C126 1.395 . S
C127 C149 1.420 . S
O128 Eu84 2.558 1_655 S
O128 C148 1.257 . S
O129 Eu84 2.612 . S
O129 Eu95 2.380 . S
O129 C140 1.276 . S
O130 Eu95 2.432 . S
O130 C147 1.264 . S
O131 Eu84 2.339 . S
O131 C147 1.254 . S
O132 Eu84 2.563 . S
O132 C140 1.235 . S
O133 Eu84 2.419 1_655 S
O133 C148 1.249 . S
O134 Eu95 2.558 . S
O134 C159 1.257 . S
O135 Eu84 2.380 . S
O135 Eu95 2.612 . S
O135 C151 1.276 . S
O136 Eu84 2.432 . S
O136 C158 1.264 . S
O137 Eu95 2.339 . S
O137 C158 1.254 . S
O138 Eu95 2.563 . S
O138 C151 1.235 . S
O139 Eu95 2.419 . S
O139 C159 1.249 . S
C140 O129 1.276 . S
C140 O132 1.235 . S
C141 C143 1.393 . S
C141 C145 1.395 . S
C141 C148 1.492 . S
C142 C143 1.392 . S
C142 C144 1.386 . S
C143 C141 1.393 . S
C143 C142 1.392 . S
C143 H160 0.930 . S
C144 C142 1.386 . S
C144 C146 1.395 . S
C144 H161 0.930 . S
C145 C141 1.395 . S
C145 C146 1.379 . S
C145 H162 0.930 . S
C146 C144 1.395 . S
C146 C145 1.379 . S
C146 H163 0.930 . S
C147 O130 1.264 . S
C147 O131 1.254 . S
C148 Eu84 2.848 1_655 S
C148 O128 1.257 . S
C148 O133 1.249 . S
C148 C141 1.492 . S
C149 H114 0.931 . S
C149 C127 1.420 . S
C149 C150 1.351 . S
C150 H112 0.930 . S
C150 C118 1.423 . S
C150 C149 1.351 . S
C151 O135 1.276 . S
C151 O138 1.235 . S
C152 C153 1.393 . S
C152 C156 1.395 . S
C152 C159 1.492 . S
C153 C152 1.393 . S
C153 C154 1.392 . S
C153 H164 0.930 . S
C154 C153 1.392 . S
C154 C155 1.386 . S
C155 C154 1.386 . S
C155 C157 1.395 . S
C155 H165 0.930 . S
C156 C152 1.395 . S
C156 C157 1.379 . S
C156 H166 0.930 . S
C157 C155 1.395 . S
C157 C156 1.379 . S
C157 H167 0.930 . S
C158 O136 1.264 . S
C158 O137 1.254 . S
C159 Eu95 2.848 . S
C159 O134 1.257 . S
C159 O139 1.249 . S
C159 C152 1.492 . S
H160 C143 0.930 . S
H161 C144 0.930 . S
H162 C145 0.930 . S
H163 C146 0.930 . S
H164 C153 0.930 . S
H165 C155 0.930 . S
H166 C156 0.930 . S
H167 C157 0.930 . S
Eu168 N199 2.657 . S
Eu168 N206 2.609 . S
Eu168 O212 2.558 1_554 S
Eu168 O213 2.612 1_554 S
Eu168 O215 2.339 . S
Eu168 O216 2.563 1_554 S
Eu168 O217 2.419 1_554 S
Eu168 O219 2.380 . S
Eu168 O220 2.432 . S
Eu168 C232 2.848 1_554 S
C169 C172 1.429 . S
C169 C173 1.411 1_655 S
C169 N176 1.377 . S
C170 C172 1.420 . S
C170 C174 1.423 . S
C170 C182 1.392 . S
C171 C173 1.420 . S
C171 C174 1.351 1_455 S
C171 H194 0.931 . S
C172 C169 1.429 . S
C172 C170 1.420 . S
C172 N180 1.362 1_565 S
C173 C169 1.411 1_455 S
C173 C171 1.420 . S
C173 C178 1.395 . S
C174 C170 1.423 . S
C174 C171 1.351 1_655 S
C174 H186 0.930 . S
C175 C177 1.399 1_556 S
C175 C178 1.387 . S
C175 H187 0.929 1_556 S
N176 C169 1.377 . S
N176 C177 1.321 1_656 S
N176 Eu179 2.609 1_566 S
C177 C175 1.399 1_554 S
C177 N176 1.321 1_454 S
C177 H184 0.930 1_565 S
C178 C173 1.395 . S
C178 C175 1.387 . S
C178 H197 0.930 . S
Eu179 N176 2.609 1_544 S
Eu179 N180 2.657 1_554 S
Eu179 O213 2.380 1_554 S
Eu179 O214 2.432 1_655 S
Eu179 O218 2.558 . S
Eu179 O219 2.612 . S
Eu179 O221 2.339 . S
Eu179 O222 2.563 . S
Eu179 O223 2.419 . S
Eu179 C243 2.848 . S
N180 C172 1.362 1_545 S
N180 Eu179 2.657 1_556 S
N180 C181 1.334 . S
C181 N180 1.334 . S
C181 C183 1.413 1_545 S
C181 H188 0.929 . S
C182 C170 1.392 . S
C182 C183 1.367 . S
C182 H190 0.930 . S
C183 C181 1.413 1_565 S
C183 C182 1.367 . S
C183 H185 0.930 . S
H184 C177 0.930 1_545 S
H185 C183 0.930 . S
H186 C174 0.930 . S
H187 C175 0.929 1_554 S
H188 C181 0.929 . S
H189 C203 0.930 1_455 S
H190 C182 0.930 . S
H191 C209 0.930 . S
H192 C200 0.929 . S
H193 C207 0.930 . S
H194 C171 0.931 . S
H195 C201 0.930 . S
H196 C234 0.930 . S
H197 C178 0.930 . S
H198 C233 0.931 . S
N199 Eu168 2.657 . S
N199 C200 1.334 . S
N199 C204 1.362 . S
C200 H192 0.929 . S
C200 N199 1.334 . S
C200 C203 1.413 . S
C201 H195 0.930 . S
C201 C202 1.392 . S
C201 C203 1.367 . S
C202 C201 1.392 . S
C202 C204 1.420 . S
C202 C234 1.423 . S
C203 H189 0.930 1_655 S
C203 C200 1.413 . S
C203 C201 1.367 . S
C204 N199 1.362 . S
C204 C202 1.420 . S
C204 C208 1.429 . S
H205 C210 0.930 . S
N206 Eu168 2.609 . S
N206 C208 1.377 . S
N206 C209 1.321 . S
C207 H193 0.930 . S
C207 C209 1.400 . S
C207 C210 1.386 . S
C208 C204 1.429 . S
C208 N206 1.377 . S
C208 C211 1.411 . S
C209 H191 0.930 . S
C209 N206 1.321 . S
C209 C207 1.400 . S
C210 H205 0.930 . S
C210 C207 1.386 . S
C210 C211 1.395 . S
C211 C208 1.411 . S
C211 C210 1.395 . S
C211 C233 1.420 . S
O212 Eu168 2.558 1_556 S
O212 C232 1.257 . S
O213 Eu168 2.612 1_556 S
O213 Eu179 2.380 1_556 S
O213 C224 1.276 . S
O214 Eu179 2.432 1_455 S
O214 C231 1.264 . S
O215 Eu168 2.339 . S
O215 C231 1.254 1_655 S
O216 Eu168 2.563 1_556 S
O216 C224 1.235 . S
O217 Eu168 2.419 1_556 S
O217 C232 1.249 . S
O218 Eu179 2.558 . S
O218 C243 1.257 . S
O219 Eu168 2.380 . S
O219 Eu179 2.612 . S
O219 C235 1.276 . S
O220 Eu168 2.432 . S
O220 C242 1.264 . S
O221 Eu179 2.339 . S
O221 C242 1.254 . S
O222 Eu179 2.563 . S
O222 C235 1.235 . S
O223 Eu179 2.419 . S
O223 C243 1.249 . S
C224 O213 1.276 . S
C224 O216 1.235 . S
C225 C227 1.393 . S
C225 C229 1.395 . S
C225 C232 1.492 . S
C226 C227 1.392 . S
C226 C228 1.386 . S
C227 C225 1.393 . S
C227 C226 1.392 . S
C227 H244 0.930 . S
C228 C226 1.386 . S
C228 C230 1.395 . S
C228 H245 0.930 . S
C229 C225 1.395 . S
C229 C230 1.379 . S
C229 H246 0.930 . S
C230 C228 1.395 . S
C230 C229 1.379 . S
C230 H247 0.930 . S
C231 O214 1.264 . S
C231 O215 1.254 1_455 S
C232 Eu168 2.848 1_556 S
C232 O212 1.257 . S
C232 O217 1.249 . S
C232 C225 1.492 . S
C233 H198 0.931 . S
C233 C211 1.420 . S
C233 C234 1.351 . S
C234 H196 0.930 . S
C234 C202 1.423 . S
C234 C233 1.351 . S
C235 O219 1.276 . S
C235 O222 1.235 . S
C236 C237 1.393 1_565 S
C236 C240 1.395 . S
C236 C243 1.492 1_565 S
C237 C236 1.393 1_545 S
C237 C238 1.392 1_545 S
C237 H248 0.930 . S
C238 C237 1.392 1_565 S
C238 C239 1.386 . S
C239 C238 1.386 . S
C239 C241 1.395 1_655 S
C239 H249 0.930 . S
C240 C236 1.395 . S
C240 C241 1.379 1_655 S
C240 H250 0.930 1_655 S
C241 C239 1.395 1_455 S
C241 C240 1.379 1_455 S
C241 H251 0.930 . S
C242 O220 1.264 . S
C242 O221 1.254 . S
C243 Eu179 2.848 . S
C243 O218 1.257 . S
C243 O223 1.249 . S
C243 C236 1.492 1_545 S
H244 C227 0.930 . S
H245 C228 0.930 . S
H246 C229 0.930 . S
H247 C230 0.930 . S
H248 C237 0.930 . S
H249 C239 0.930 . S
H250 C240 0.930 1_455 S
H251 C241 0.930 . S
Eu252 N283 2.657 . S
Eu252 N290 2.609 1_565 S
Eu252 O296 2.558 1_565 S
Eu252 O297 2.612 1_655 S
Eu252 O299 2.339 1_655 S
Eu252 O300 2.563 1_655 S
Eu252 O301 2.419 . S
Eu252 O303 2.380 1_655 S
Eu252 O304 2.432 1_665 S
Eu252 C316 2.848 1_565 S
C253 C256 1.429 . S
C253 C257 1.411 . S
C253 N260 1.377 . S
C254 C256 1.420 . S
C254 C258 1.423 . S
C254 C266 1.392 . S
C255 C257 1.420 . S
C255 C258 1.351 . S
C255 H278 0.931 . S
C256 C253 1.429 . S
C256 C254 1.420 . S
C256 N264 1.362 . S
C257 C253 1.411 . S
C257 C255 1.420 . S
C257 C262 1.395 . S
C258 C254 1.423 . S
C258 C255 1.351 . S
C258 H270 0.930 . S
C259 C261 1.400 . S
C259 C262 1.386 . S
C259 H271 0.930 . S
N260 C253 1.377 . S
N260 C261 1.321 . S
N260 Eu263 2.609 . S
C261 C259 1.400 . S
C261 N260 1.321 . S
C261 H268 0.930 . S
C262 C257 1.395 . S
C262 C259 1.386 . S
C262 H281 0.930 . S
Eu263 N260 2.609 . S
Eu263 N264 2.657 . S
Eu263 O297 2.380 . S
Eu263 O298 2.432 . S
Eu263 O302 2.558 . S
Eu263 O303 2.612 . S
Eu263 O305 2.339 . S
Eu263 O306 2.563 . S
Eu263 O307 2.419 . S
Eu263 C327 2.848 . S
N264 C256 1.362 . S
N264 Eu263 2.657 . S
N264 C265 1.334 . S
C265 N264 1.334 . S
C265 C267 1.413 . S
C265 H272 0.929 1_565 S
C266 C254 1.392 . S
C266 C267 1.367 . S
C266 H274 0.930 . S
C267 C265 1.413 . S
C267 C266 1.367 . S
C267 H269 0.930 1_565 S
H268 C261 0.930 . S
H269 C267 0.930 1_545 S
H270 C258 0.930 . S
H271 C259 0.930 . S
H272 C265 0.929 1_545 S
H273 C287 0.930 . S
H274 C266 0.930 . S
H275 C293 0.930 . S
H276 C284 0.929 . S
H277 C291 0.930 . S
H278 C255 0.931 . S
H279 C285 0.930 . S
H280 C318 0.930 . S
H281 C262 0.930 . S
H282 C317 0.931 . S
N283 Eu252 2.657 . S
N283 C284 1.334 . S
N283 C288 1.362 . S
C284 H276 0.929 . S
C284 N283 1.334 . S
C284 C287 1.413 . S
C285 H279 0.930 . S
C285 C286 1.392 . S
C285 C287 1.367 . S
C286 C285 1.392 . S
C286 C288 1.420 . S
C286 C318 1.423 1_565 S
C287 H273 0.930 . S
C287 C284 1.413 . S
C287 C285 1.367 . S
C288 N283 1.362 . S
C288 C286 1.420 . S
C288 C292 1.429 1_565 S
H289 C294 0.930 . S
N290 Eu252 2.609 1_545 S
N290 C292 1.377 . S
N290 C293 1.321 . S
C291 H277 0.930 . S
C291 C293 1.400 . S
C291 C294 1.386 . S
C292 C288 1.429 1_545 S
C292 N290 1.377 . S
C292 C295 1.411 . S
C293 H275 0.930 . S
C293 N290 1.321 . S
C293 C291 1.400 . S
C294 H289 0.930 . S
C294 C291 1.386 . S
C294 C295 1.395 . S
C295 C292 1.411 . S
C295 C294 1.395 . S
C295 C317 1.420 . S
O296 Eu252 2.558 1_545 S
O296 C316 1.257 . S
O297 Eu252 2.612 1_455 S
O297 Eu263 2.380 . S
O297 C308 1.276 . S
O298 Eu263 2.432 . S
O298 C315 1.264 . S
O299 Eu252 2.339 1_455 S
O299 C315 1.254 . S
O300 Eu252 2.563 1_455 S
O300 C308 1.235 . S
O301 Eu252 2.419 . S
O301 C316 1.249 1_565 S
O302 Eu263 2.558 . S
O302 C327 1.257 . S
O303 Eu252 2.380 1_455 S
O303 Eu263 2.612 . S
O303 C319 1.276 . S
O304 Eu252 2.432 1_445 S
O304 C326 1.264 . S
O305 Eu263 2.339 . S
O305 C326 1.254 1_565 S
O306 Eu263 2.563 . S
O306 C319 1.235 . S
O307 Eu263 2.419 . S
O307 C327 1.249 . S
C308 O297 1.276 . S
C308 O300 1.235 . S
C309 C311 1.393 1_545 S
C309 C313 1.395 . S
C309 C316 1.492 . S
C310 C311 1.392 . S
C310 C312 1.386 1_565 S
C311 C309 1.393 1_565 S
C311 C310 1.392 . S
C311 H328 0.930 . S
C312 C310 1.386 1_545 S
C312 C314 1.395 . S
C312 H329 0.930 . S
C313 C309 1.395 . S
C313 C314 1.379 . S
C313 H330 0.930 . S
C314 C312 1.395 . S
C314 C313 1.379 . S
C314 H331 0.930 . S
C315 O298 1.264 . S
C315 O299 1.254 . S
C316 Eu252 2.848 1_545 S
C316 O296 1.257 . S
C316 O301 1.249 1_545 S
C316 C309 1.492 . S
C317 H282 0.931 . S
C317 C295 1.420 . S
C317 C318 1.351 . S
C318 H280 0.930 . S
C318 C286 1.423 1_545 S
C318 C317 1.351 . S
C319 O303 1.276 . S
C319 O306 1.235 . S
C320 C321 1.393 . S
C320 C324 1.395 . S
C320 C327 1.492 . S
C321 C320 1.393 . S
C321 C322 1.392 . S
C321 H332 0.930 . S
C322 C321 1.392 . S
C322 C323 1.386 . S
C323 C322 1.386 . S
C323 C325 1.395 . S
C323 H333 0.930 . S
C324 C320 1.395 . S
C324 C325 1.379 . S
C324 H334 0.930 . S
C325 C323 1.395 . S
C325 C324 1.379 . S
C325 H335 0.930 . S
C326 O304 1.264 . S
C326 O305 1.254 1_545 S
C327 Eu263 2.848 . S
C327 O302 1.257 . S
C327 O307 1.249 . S
C327 C320 1.492 . S
H328 C311 0.930 . S
H329 C312 0.930 . S
H330 C313 0.930 . S
H331 C314 0.930 . S
H332 C321 0.930 . S
H333 C323 0.930 . S
H334 C324 0.930 . S
H335 C325 0.930 . S
C336 C337 1.387 . S
C336 H340 0.950 . S
C336 C345 1.390 . S
C337 C336 1.387 . S
C337 C339 1.387 1_554 S
H338 C345 0.950 . S
C339 C337 1.387 1_556 S
C339 C341 1.390 . S
C339 H343 0.950 . S
H340 C336 0.950 . S
C341 C339 1.390 . S
C341 C342 1.389 1_556 S
C341 H344 0.949 . S
C342 C341 1.389 1_554 S
C342 C345 1.387 . S
H343 C339 0.950 . S
H344 C341 0.949 . S
C345 C336 1.390 . S
C345 H338 0.950 . S
C345 C342 1.387 . S
C346 C347 1.387 . S
C346 H350 0.950 . S
C346 C355 1.390 . S
C347 C346 1.387 . S
C347 C349 1.387 . S
H348 C355 0.950 . S
C349 C347 1.387 . S
C349 C351 1.390 . S
C349 H353 0.950 . S
H350 C346 0.950 . S
C351 C349 1.390 . S
C351 C352 1.387 . S
C351 H354 0.950 . S
C352 C351 1.387 . S
C352 C355 1.387 . S
H353 C349 0.950 . S
H354 C351 0.950 . S
C355 C346 1.390 . S
C355 H348 0.950 . S
C355 C352 1.387 . S
C356 C357 1.387 . S
C356 H360 0.950 . S
C356 C365 1.390 . S
C357 C356 1.387 . S
C357 C359 1.387 1_554 S
H358 C365 0.950 . S
C359 C357 1.387 1_556 S
C359 C361 1.390 . S
C359 H363 0.950 . S
H360 C356 0.950 . S
C361 C359 1.390 . S
C361 C362 1.387 1_556 S
C361 H364 0.950 . S
C362 C361 1.387 1_554 S
C362 C365 1.387 . S
H363 C359 0.950 . S
H364 C361 0.950 . S
C365 C356 1.390 . S
C365 H358 0.950 . S
C365 C362 1.387 . S
C366 C367 1.387 . S
C366 H370 0.950 . S
C366 C375 1.390 . S
C367 C366 1.387 . S
C367 C369 1.387 . S
H368 C375 0.950 . S
C369 C367 1.387 . S
C369 C371 1.390 . S
C369 H373 0.950 . S
H370 C366 0.950 . S
C371 C369 1.390 . S
C371 C372 1.387 . S
C371 H374 0.950 . S
C372 C371 1.387 . S
C372 C375 1.387 . S
H373 C369 0.950 . S
H374 C371 0.950 . S
C375 C366 1.390 . S
C375 H368 0.950 . S
C375 C372 1.387 . S
C376 C377 1.387 . S
C376 H380 0.950 . S
C376 C385 1.390 . S
C377 C376 1.387 . S
C377 C379 1.387 . S
H378 C385 0.950 . S
C379 C377 1.387 . S
C379 C381 1.390 . S
C379 H383 0.950 . S
H380 C376 0.950 . S
C381 C379 1.390 . S
C381 C382 1.387 . S
C381 H384 0.950 . S
C382 C381 1.387 . S
C382 C385 1.387 . S
H383 C379 0.950 . S
H384 C381 0.950 . S
C385 C376 1.390 . S
C385 H378 0.950 . S
C385 C382 1.387 . S
C386 C387 1.387 . S
C386 H390 0.950 . S
C386 C395 1.390 . S
C387 C386 1.387 . S
C387 C389 1.387 . S
H388 C395 0.950 . S
C389 C387 1.387 . S
C389 C391 1.390 . S
C389 H393 0.950 . S
H390 C386 0.950 . S
C391 C389 1.390 . S
C391 C392 1.387 . S
C391 H394 0.950 . S
C392 C391 1.387 . S
C392 C395 1.387 . S
H393 C389 0.950 . S
H394 C391 0.950 . S
C395 C386 1.390 . S
C395 H388 0.950 . S
C395 C392 1.387 . S
C396 C397 1.387 . S
C396 H400 0.950 . S
C396 C405 1.390 . S
C397 C396 1.387 . S
C397 C399 1.387 1_565 S
H398 C405 0.950 . S
C399 C397 1.387 1_545 S
C399 C401 1.390 . S
C399 H403 0.950 . S
H400 C396 0.950 . S
C401 C399 1.390 . S
C401 C402 1.387 1_545 S
C401 H404 0.950 . S
C402 C401 1.387 1_565 S
C402 C405 1.387 . S
H403 C399 0.950 . S
H404 C401 0.950 . S
C405 C396 1.390 . S
C405 H398 0.950 . S
C405 C402 1.387 . S
C406 C407 1.387 . S
C406 H410 0.950 . S
C406 C415 1.390 . S
C407 C406 1.387 . S
C407 C409 1.387 . S
H408 C415 0.950 . S
C409 C407 1.387 . S
C409 C411 1.390 . S
C409 H413 0.950 1_565 S
H410 C406 0.950 . S
C411 C409 1.390 . S
C411 C412 1.387 . S
C411 H414 0.950 1_565 S
C412 C411 1.387 . S
C412 C415 1.387 . S
H413 C409 0.950 1_545 S
H414 C411 0.950 1_545 S
C415 C406 1.390 . S
C415 H408 0.950 . S
C415 C412 1.387 . S
C416 C417 1.387 . S
C416 H420 0.950 . S
C416 C425 1.390 1_545 S
C417 C416 1.387 . S
C417 C419 1.387 . S
H418 C425 0.950 . S
C419 C417 1.387 . S
C419 C421 1.390 . S
C419 H423 0.950 . S
H420 C416 0.950 . S
C421 C419 1.390 . S
C421 C422 1.387 1_545 S
C421 H424 0.950 . S
C422 C421 1.387 1_565 S
C422 C425 1.387 . S
H423 C419 0.950 . S
H424 C421 0.950 . S
C425 C416 1.390 1_565 S
C425 H418 0.950 . S
C425 C422 1.387 . S
C426 C427 1.387 . S
C426 H430 0.950 . S
C426 C435 1.390 . S
C427 C426 1.387 . S
C427 C429 1.387 . S
H428 C435 0.950 . S
C429 C427 1.387 . S
C429 C431 1.390 . S
C429 H433 0.950 . S
H430 C426 0.950 . S
C431 C429 1.390 . S
C431 C432 1.387 . S
C431 H434 0.950 . S
C432 C431 1.387 . S
C432 C435 1.387 . S
H433 C429 0.950 . S
H434 C431 0.950 . S
C435 C426 1.390 . S
C435 H428 0.950 . S
C435 C432 1.387 . S
C436 C437 1.387 . S
C436 H440 0.950 . S
C436 C445 1.390 . S
C437 C436 1.387 . S
C437 C439 1.387 . S
H438 C445 0.950 . S
C439 C437 1.387 . S
C439 C441 1.390 . S
C439 H443 0.950 . S
H440 C436 0.950 . S
C441 C439 1.390 . S
C441 C442 1.387 . S
C441 H444 0.950 . S
C442 C441 1.387 . S
C442 C445 1.387 . S
H443 C439 0.950 . S
H444 C441 0.950 . S
C445 C436 1.390 . S
C445 H438 0.950 . S
C445 C442 1.387 . S
C446 C447 1.387 . S
C446 H450 0.950 . S
C446 C455 1.390 . S
C447 C446 1.387 . S
C447 C449 1.387 . S
H448 C455 0.950 . S
C449 C447 1.387 . S
C449 C451 1.390 . S
C449 H453 0.950 . S
H450 C446 0.950 . S
C451 C449 1.390 . S
C451 C452 1.387 . S
C451 H454 0.950 . S
C452 C451 1.387 . S
C452 C455 1.387 . S
H453 C449 0.950 . S
H454 C451 0.950 . S
C455 C446 1.390 . S
C455 H448 0.950 . S
C455 C452 1.387 . S
C337 C231 1.109 . S
C342 C74 1.109 . S
C347 C326 0.970 . S
C352 C158 0.975 . S
C357 C242 1.446 . S
C362 C63 1.446 . S
C367 C147 0.952 . S
C372 C315 0.965 . S
C377 C140 3.038 . S
C382 C67 3.073 . S
C387 C151 3.061 1_655 S
C392 C226 3.114 . S
C397 C319 2.528 1_655 S
C402 C238 2.220 . S
C407 C308 2.754 . S
C412 C56 2.499 . S
C417 C224 1.022 . S
C422 C310 0.764 . S
C427 C70 0.672 . S
C432 C322 0.714 . S
C437 C154 0.595 . S
C442 C58 0.887 . S
C447 C235 0.714 . S
C452 C142 0.767 . S
