# Generated by pormake.
# Topology wio, (6)-cn, num edge types: 1
# Building blocks:
#     Node 0, Type 0, BuildingBlock: BETDAH_clean_sbu_0, # of connection points: 6
#     Node 1, Type 0, BuildingBlock: BETDAH_clean_sbu_0, # of connection points: 6
#     Node 2, Type 0, BuildingBlock: BETDAH_clean_sbu_0, # of connection points: 6
#     Node 3, Type 0, BuildingBlock: BETDAH_clean_sbu_0, # of connection points: 6
#     Node 4, Type 0, BuildingBlock: BETDAH_clean_sbu_0, # of connection points: 6
#     Node 5, Type 0, BuildingBlock: BETDAH_clean_sbu_0, # of connection points: 6
#     Node 6, Type 0, BuildingBlock: BETDAH_clean_sbu_0, # of connection points: 6
#     Node 7, Type 0, BuildingBlock: BETDAH_clean_sbu_0, # of connection points: 6
#     Node 8, Type 0, BuildingBlock: BETDAH_clean_sbu_0, # of connection points: 6
#     Node 9, Type 0, BuildingBlock: BETDAH_clean_sbu_0, # of connection points: 6
#     Node 10, Type 0, BuildingBlock: BETDAH_clean_sbu_0, # of connection points: 6
#     Node 11, Type 0, BuildingBlock: BETDAH_clean_sbu_0, # of connection points: 6
#     Node 12, Type 0, BuildingBlock: BETDAH_clean_sbu_0, # of connection points: 6
#     Node 13, Type 0, BuildingBlock: BETDAH_clean_sbu_0, # of connection points: 6
#     Node 14, Type 0, BuildingBlock: BETDAH_clean_sbu_0, # of connection points: 6
#     Node 15, Type 0, BuildingBlock: BETDAH_clean_sbu_0, # of connection points: 6
#     Node 16, Type 0, BuildingBlock: BETDAH_clean_sbu_0, # of connection points: 6
#     Node 17, Type 0, BuildingBlock: BETDAH_clean_sbu_0, # of connection points: 6
#     Node 18, Type 0, BuildingBlock: BETDAH_clean_sbu_0, # of connection points: 6
#     Node 19, Type 0, BuildingBlock: BETDAH_clean_sbu_0, # of connection points: 6
#     Node 20, Type 0, BuildingBlock: BETDAH_clean_sbu_0, # of connection points: 6
#     Node 21, Type 0, BuildingBlock: BETDAH_clean_sbu_0, # of connection points: 6
#     Node 22, Type 0, BuildingBlock: BETDAH_clean_sbu_0, # of connection points: 6
#     Node 23, Type 0, BuildingBlock: BETDAH_clean_sbu_0, # of connection points: 6
#     Node 24, Type 0, BuildingBlock: BETDAH_clean_sbu_0, # of connection points: 6
#     Node 25, Type 0, BuildingBlock: BETDAH_clean_sbu_0, # of connection points: 6
#     Node 26, Type 0, BuildingBlock: BETDAH_clean_sbu_0, # of connection points: 6
#     Node 27, Type 0, BuildingBlock: BETDAH_clean_sbu_0, # of connection points: 6
#     Node 28, Type 0, BuildingBlock: BETDAH_clean_sbu_0, # of connection points: 6
#     Node 29, Type 0, BuildingBlock: BETDAH_clean_sbu_0, # of connection points: 6
#     Node 30, Type 0, BuildingBlock: BETDAH_clean_sbu_0, # of connection points: 6
#     Node 31, Type 0, BuildingBlock: BETDAH_clean_sbu_0, # of connection points: 6
#     Edge 32, Type (0, 0), None
#     Edge 33, Type (0, 0), None
#     Edge 34, Type (0, 0), None
#     Edge 35, Type (0, 0), None
#     Edge 36, Type (0, 0), None
#     Edge 37, Type (0, 0), None
#     Edge 38, Type (0, 0), None
#     Edge 39, Type (0, 0), None
#     Edge 40, Type (0, 0), None
#     Edge 41, Type (0, 0), None
#     Edge 42, Type (0, 0), None
#     Edge 43, Type (0, 0), None
#     Edge 44, Type (0, 0), None
#     Edge 45, Type (0, 0), None
#     Edge 46, Type (0, 0), None
#     Edge 47, Type (0, 0), None
#     Edge 48, Type (0, 0), None
#     Edge 49, Type (0, 0), None
#     Edge 50, Type (0, 0), None
#     Edge 51, Type (0, 0), None
#     Edge 52, Type (0, 0), None
#     Edge 53, Type (0, 0), None
#     Edge 54, Type (0, 0), None
#     Edge 55, Type (0, 0), None
#     Edge 56, Type (0, 0), None
#     Edge 57, Type (0, 0), None
#     Edge 58, Type (0, 0), None
#     Edge 59, Type (0, 0), None
#     Edge 60, Type (0, 0), None
#     Edge 61, Type (0, 0), None
#     Edge 62, Type (0, 0), None
#     Edge 63, Type (0, 0), None
#     Edge 64, Type (0, 0), None
#     Edge 65, Type (0, 0), None
#     Edge 66, Type (0, 0), None
#     Edge 67, Type (0, 0), None
#     Edge 68, Type (0, 0), None
#     Edge 69, Type (0, 0), None
#     Edge 70, Type (0, 0), None
#     Edge 71, Type (0, 0), None
#     Edge 72, Type (0, 0), None
#     Edge 73, Type (0, 0), None
#     Edge 74, Type (0, 0), None
#     Edge 75, Type (0, 0), None
#     Edge 76, Type (0, 0), None
#     Edge 77, Type (0, 0), None
#     Edge 78, Type (0, 0), None
#     Edge 79, Type (0, 0), None
#     Edge 80, Type (0, 0), None
#     Edge 81, Type (0, 0), None
#     Edge 82, Type (0, 0), None
#     Edge 83, Type (0, 0), None
#     Edge 84, Type (0, 0), None
#     Edge 85, Type (0, 0), None
#     Edge 86, Type (0, 0), None
#     Edge 87, Type (0, 0), None
#     Edge 88, Type (0, 0), None
#     Edge 89, Type (0, 0), None
#     Edge 90, Type (0, 0), None
#     Edge 91, Type (0, 0), None
#     Edge 92, Type (0, 0), None
#     Edge 93, Type (0, 0), None
#     Edge 94, Type (0, 0), None
#     Edge 95, Type (0, 0), None
#     Edge 96, Type (0, 0), None
#     Edge 97, Type (0, 0), None
#     Edge 98, Type (0, 0), None
#     Edge 99, Type (0, 0), None
#     Edge 100, Type (0, 0), None
#     Edge 101, Type (0, 0), None
#     Edge 102, Type (0, 0), None
#     Edge 103, Type (0, 0), None
#     Edge 104, Type (0, 0), None
#     Edge 105, Type (0, 0), None
#     Edge 106, Type (0, 0), None
#     Edge 107, Type (0, 0), None
#     Edge 108, Type (0, 0), None
#     Edge 109, Type (0, 0), None
#     Edge 110, Type (0, 0), None
#     Edge 111, Type (0, 0), None
#     Edge 112, Type (0, 0), None
#     Edge 113, Type (0, 0), None
#     Edge 114, Type (0, 0), None
#     Edge 115, Type (0, 0), None
#     Edge 116, Type (0, 0), None
#     Edge 117, Type (0, 0), None
#     Edge 118, Type (0, 0), None
#     Edge 119, Type (0, 0), None
#     Edge 120, Type (0, 0), None
#     Edge 121, Type (0, 0), None
#     Edge 122, Type (0, 0), None
#     Edge 123, Type (0, 0), None
#     Edge 124, Type (0, 0), None
#     Edge 125, Type (0, 0), None
#     Edge 126, Type (0, 0), None
#     Edge 127, Type (0, 0), None
# Relax obj value: 0.280
# Max RMSD: 0.266
# Mean RMSD: 0.266
data_MOF--net-wio--node1-BETDAH_clean_sbu_0--edge1-none
_symmetry_space_group_name_H-M    P1
_symmetry_Int_Tables_number       1
_symmetry_cell_setting            triclinic
loop_
_symmetry_equiv_pos_as_xyz
'x, y, z'
_cell_length_a     32.963739
_cell_length_b     32.962517
_cell_length_c     27.236768
_cell_angle_alpha  89.997909
_cell_angle_beta   90.002029
_cell_angle_gamma 90.00032
loop_
_atom_site_label
_atom_site_type_symbol
_atom_site_fract_x
_atom_site_fract_y
_atom_site_fract_z
_atom_type_partial_charge
Ho0 Ho 0.21297 0.13192 0.35812 0.0
Ho1 Ho 0.12307 0.14478 0.35556 0.0
C2 C 0.17218 0.1579 0.25243 0.0
C3 C 0.28753 0.10961 0.35458 0.0
C4 C 0.32149 0.13068 0.33226 0.0
C5 C 0.35496 0.10856 0.316 0.0
C6 C 0.3797 0.12498 0.27976 0.0
C7 C 0.37014 0.16291 0.25936 0.0
C8 C 0.34118 0.18768 0.28169 0.0
C9 C 0.31651 0.17139 0.31808 0.0
C10 C 0.19304 0.20646 0.39145 0.0
C11 C 0.16851 0.12518 0.4569 0.0
C12 C 0.05047 0.1642 0.38372 0.0
C13 C 1.03181 0.16214 0.43362 0.0
C14 C 1.00748 0.19388 0.45151 0.0
C15 C 0.98653 0.1899 0.49636 0.0
C16 C 0.98903 0.1539 0.52408 0.0
C17 C 1.0162 0.12377 0.50787 0.0
C18 C 1.03745 0.12786 0.46359 0.0
C19 C 0.14696 0.06472 0.34361 0.0
O20 O 0.20341 0.14174 0.2762 0.0
O21 O 0.1371 0.1649 0.2758 0.0
O22 O 0.2718 0.12845 0.39205 0.0
O23 O 0.26015 0.09658 0.32337 0.0
O24 O 0.22646 0.18789 0.40087 0.0
O25 O 0.17453 0.18756 0.35721 0.0
O26 O 0.1378 0.14431 0.43682 0.0
O27 O 0.19539 0.10646 0.42963 0.0
O28 O 0.05934 0.12964 0.36291 0.0
O29 O 0.07912 0.1909 0.37723 0.0
O30 O 0.11712 0.08213 0.32059 0.0
O31 O 0.16168 0.09084 0.37208 0.0
H32 H 0.35916 0.07725 0.32698 0.0
H33 H 0.40212 0.1056 0.26247 0.0
H34 H 0.33332 0.21685 0.26594 0.0
H35 H 0.29069 0.18887 0.33068 0.0
H36 H 1.00317 0.22105 0.42974 0.0
H37 H 0.96615 0.21379 0.50665 0.0
H38 H 1.01879 0.09542 0.5278 0.0
H39 H 0.05677 0.10316 0.4517 0.0
Ho40 Ho 0.20323 0.96295 0.6081 0.0
Ho41 Ho 0.19037 0.87303 0.60557 0.0
C42 C 0.17725 0.92214 0.50243 0.0
C43 C 0.22554 1.03751 0.60452 0.0
C44 C 0.20446 0.07146 0.5822 0.0
C45 C 0.22657 0.10494 0.56594 0.0
C46 C 0.21013 0.1297 0.52973 0.0
C47 C 0.17218 0.12014 0.50938 0.0
C48 C 0.14743 0.09114 0.53167 0.0
C49 C 0.16375 0.06646 0.56804 0.0
C50 C 0.12869 0.94301 0.64145 0.0
C51 C 0.20998 0.9185 0.7069 0.0
C52 C 0.17095 0.80044 0.63374 0.0
C53 C 0.17299 0.78178 0.68365 0.0
C54 C 0.14125 0.75744 0.70152 0.0
C55 C 0.14521 0.73648 0.74637 0.0
C56 C 0.1812 0.73899 0.77411 0.0
C57 C 0.21134 0.76616 0.75791 0.0
C58 C 0.20725 0.78742 0.71363 0.0
C59 C 0.27043 0.89694 0.59361 0.0
O60 O 0.1934 0.95337 0.52619 0.0
O61 O 0.17025 0.88706 0.52581 0.0
O62 O 0.20672 1.02179 0.64201 0.0
O63 O 0.23856 1.01011 0.57332 0.0
O64 O 0.14726 0.97644 0.65085 0.0
O65 O 0.14759 0.9245 0.60721 0.0
O66 O 0.19086 0.88778 0.68683 0.0
O67 O 0.22868 0.94538 0.67962 0.0
O68 O 0.20551 0.80931 0.61295 0.0
O69 O 0.14425 0.82909 0.62724 0.0
O70 O 0.25302 0.86709 0.57061 0.0
O71 O 0.24431 0.91166 0.62208 0.0
H72 H 0.25788 0.10915 0.57691 0.0
H73 H 0.22949 0.15213 0.51244 0.0
H74 H 0.11827 0.08328 0.51592 0.0
H75 H 0.14629 1.04062 0.58063 0.0
H76 H 0.11409 0.75312 0.67974 0.0
H77 H 0.12133 0.7161 0.75665 0.0
H78 H 0.23968 0.76875 0.77786 0.0
H79 H 0.23195 0.80675 0.70176 0.0
Ho80 Ho 0.37223 0.95319 0.85809 0.0
Ho81 Ho 0.46214 0.94032 0.85554 0.0
C82 C 0.41303 0.92721 0.75241 0.0
C83 C 0.29768 0.97551 0.85452 0.0
C84 C 0.26373 0.95444 0.83219 0.0
C85 C 0.23025 0.97655 0.81594 0.0
C86 C 0.20548 0.96012 0.77973 0.0
C87 C 0.21504 0.92217 0.75938 0.0
C88 C 0.24404 0.89741 0.78165 0.0
C89 C 0.26872 0.91373 0.81802 0.0
C90 C 0.39216 0.87865 0.89142 0.0
C91 C 0.4167 0.95991 0.95688 0.0
C92 C 0.53474 0.92091 0.8837 0.0
C93 C 0.5534 0.92297 0.9336 0.0
C94 C 0.57774 0.89124 0.9515 0.0
C95 C 0.59869 0.89522 0.99635 0.0
C96 C 0.59618 0.93122 1.02406 0.0
C97 C 0.56901 0.96135 1.00784 0.0
C98 C 0.54776 0.95725 0.96356 0.0
C99 C 0.43824 1.02039 0.8436 0.0
O100 O 0.3818 0.94337 0.77618 0.0
O101 O 0.44811 0.92021 0.77578 0.0
O102 O 0.3134 0.95668 0.892 0.0
O103 O 0.32507 0.98854 0.82332 0.0
O104 O 0.35874 0.89721 0.90082 0.0
O105 O 0.41068 0.89755 0.85719 0.0
O106 O 0.44741 0.9408 0.9368 0.0
O107 O 0.38981 0.97862 0.92962 0.0
O108 O 0.52587 0.95546 0.86288 0.0
O109 O 0.50608 0.89421 0.87723 0.0
O110 O 0.46808 1.00298 0.82059 0.0
O111 O 0.42353 0.99426 0.87207 0.0
H112 H 0.22604 1.00787 0.8269 0.0
H113 H 0.18305 0.97948 0.76244 0.0
H114 H 0.25189 0.86825 0.7659 0.0
H115 H 0.29456 0.89627 0.83061 0.0
H116 H 0.58206 0.86407 0.92973 0.0
H117 H 0.61908 0.87135 1.00664 0.0
H118 H 0.56641 0.9897 1.02777 0.0
H119 H 0.52843 0.98195 0.95167 0.0
Ho120 Ho 0.382 0.12215 0.10809 0.0
Ho121 Ho 0.39483 0.21207 0.10557 0.0
C122 C 0.40796 0.16297 1.00242 0.0
C123 C 0.35971 0.04759 0.10452 0.0
C124 C 0.38078 1.01364 1.08219 0.0
C125 C 0.35868 0.98015 1.06595 0.0
C126 C 0.37511 0.95539 1.02973 0.0
C127 C 0.41305 0.96496 1.00936 0.0
C128 C 0.4378 0.99397 1.03163 0.0
C129 C 0.42149 1.01864 1.068 0.0
C130 C 0.45652 0.14211 0.14145 0.0
C131 C 0.37522 0.16659 0.20689 0.0
C132 C 0.41426 0.28467 0.13374 0.0
C133 C 0.41222 0.30333 0.18364 0.0
C134 C 0.44396 0.32767 0.20151 0.0
C135 C 0.44 0.34863 0.24635 0.0
C136 C 0.40401 0.34612 0.27409 0.0
C137 C 0.37388 0.31894 0.25791 0.0
C138 C 0.37796 0.29769 0.21363 0.0
C139 C 0.31478 0.18815 1.0936 0.0
O140 O 0.39182 0.13173 1.02619 0.0
O141 O 0.41494 0.19806 1.0258 0.0
O142 O 0.37854 0.06331 0.142 0.0
O143 O 0.34667 0.07498 1.07332 0.0
O144 O 0.43797 0.10868 0.15085 0.0
O145 O 0.43762 0.16062 0.10721 0.0
O146 O 0.39432 0.19733 0.18683 0.0
O147 O 0.35653 0.13971 0.1796 0.0
O148 O 0.37969 0.2758 0.11294 0.0
O149 O 0.44095 0.25602 0.12724 0.0
O150 O 0.33218 0.21801 1.07061 0.0
O151 O 0.34091 0.17343 0.12206 0.0
H152 H 0.32737 0.97594 1.07694 0.0
H153 H 0.35574 0.93295 1.01246 0.0
H154 H 0.46695 1.00183 1.01587 0.0
H155 H 0.43894 0.04449 1.08058 0.0
H156 H 0.47111 0.33199 0.17972 0.0
H157 H 0.46388 0.36902 0.25662 0.0
H158 H 0.34554 0.31635 0.27786 0.0
H159 H 0.35326 0.27836 0.20176 0.0
Ho160 Ho 0.21297 0.95314 0.34134 0.0
Ho161 Ho 0.12305 0.9403 0.34388 0.0
C162 C 0.17216 0.92722 0.44703 0.0
C163 C 0.28753 0.97546 0.34487 0.0
C164 C 0.3215 0.95442 0.36719 0.0
C165 C 0.35497 0.97656 0.38342 0.0
C166 C 0.37975 0.96015 0.41963 0.0
C167 C 0.37022 0.92222 0.44005 0.0
C168 C 0.34126 0.89743 0.41774 0.0
C169 C 0.31656 0.91371 0.38137 0.0
C170 C 0.19304 0.87858 0.30808 0.0
C171 C 0.16853 0.95979 0.24252 0.0
C172 C 0.05046 0.92089 0.31572 0.0
C173 C 1.03181 0.92295 0.26581 0.0
C174 C 1.00747 0.89122 0.24791 0.0
C175 C 0.98653 0.8952 0.20304 0.0
C176 C 0.98905 0.9312 0.17533 0.0
C177 C 1.01622 0.96133 0.19155 0.0
C178 C 1.03746 0.95723 0.23584 0.0
C179 C 0.14692 1.02034 0.35568 0.0
O180 O 0.20339 0.94337 0.42326 0.0
O181 O 0.13708 0.92021 0.42365 0.0
O182 O 0.2718 0.95661 0.30741 0.0
O183 O 0.26014 0.9885 0.37608 0.0
O184 O 0.22648 0.89712 0.29871 0.0
O185 O 0.17451 0.89751 0.34228 0.0
O186 O 0.13779 0.94073 0.26262 0.0
O187 O 0.19542 0.9785 0.26977 0.0
O188 O 0.05933 0.95544 0.33653 0.0
O189 O 0.0791 0.89418 0.32221 0.0
O190 O 0.11711 1.00298 0.3788 0.0
O191 O 0.16169 0.99421 0.32728 0.0
H192 H 0.35915 1.00787 0.37243 0.0
H193 H 0.40217 0.97955 0.4369 0.0
H194 H 0.33343 0.86826 0.4335 0.0
H195 H 0.29074 0.89622 0.36879 0.0
H196 H 1.00314 0.86405 0.26967 0.0
H197 H 0.96616 0.87132 0.19274 0.0
H198 H 1.01883 0.98967 0.17161 0.0
H199 H 0.05679 0.98192 0.24774 0.0
Ho200 Ho 0.38201 0.96297 0.59135 0.0
Ho201 Ho 0.39484 0.87305 0.59385 0.0
C202 C 0.40794 0.92214 0.69702 0.0
C203 C 0.3597 1.03754 0.5949 0.0
C204 C 0.38075 0.0715 0.6172 0.0
C205 C 0.35863 0.10498 0.63343 0.0
C206 C 0.37505 0.12976 0.66964 0.0
C207 C 0.41298 0.12021 0.69005 0.0
C208 C 0.43776 0.09124 0.66775 0.0
C209 C 0.42146 0.06654 0.63139 0.0
C210 C 0.45656 0.94303 0.55805 0.0
C211 C 0.37532 0.91856 0.49252 0.0
C212 C 0.41427 0.80046 0.56568 0.0
C213 C 0.41223 0.78181 0.51577 0.0
C214 C 0.44397 0.75748 0.49789 0.0
C215 C 0.44001 0.73654 0.45303 0.0
C216 C 0.40402 0.73905 0.42529 0.0
C217 C 0.37388 0.76622 0.4415 0.0
C218 C 0.37797 0.78746 0.48579 0.0
C219 C 0.3148 0.8969 0.60568 0.0
O220 O 0.39179 0.95338 0.67326 0.0
O221 O 0.41494 0.88706 0.67363 0.0
O222 O 0.37854 1.02181 0.55743 0.0
O223 O 0.34667 1.01015 0.62611 0.0
O224 O 0.43802 0.97648 0.54869 0.0
O225 O 0.43763 0.9245 0.59226 0.0
O226 O 0.39438 0.8878 0.51259 0.0
O227 O 0.35662 0.94544 0.51979 0.0
O228 O 0.37971 0.80932 0.58648 0.0
O229 O 0.44097 0.82911 0.57219 0.0
O230 O 0.33217 0.86708 0.62878 0.0
O231 O 0.34093 0.91169 0.57728 0.0
H232 H 0.32732 0.10918 0.62244 0.0
H233 H 0.35567 0.15219 0.6869 0.0
H234 H 0.46692 0.0834 0.68351 0.0
H235 H 0.43895 1.04071 0.61881 0.0
H236 H 0.47113 0.75315 0.51967 0.0
H237 H 0.46389 0.71616 0.44274 0.0
H238 H 0.34555 0.76882 0.42155 0.0
H239 H 0.35327 0.80679 0.49767 0.0
Ho240 Ho 0.37221 0.13197 0.84135 0.0
Ho241 Ho 0.46214 0.14481 0.84387 0.0
C242 C 0.41304 0.1579 0.94703 0.0
C243 C 0.29766 0.10963 0.84489 0.0
C244 C 0.26368 0.13067 0.8672 0.0
C245 C 0.23022 0.10852 0.88344 0.0
C246 C 0.20544 0.12493 0.91966 0.0
C247 C 0.21497 0.16287 0.94006 0.0
C248 C 0.24392 0.18766 0.91775 0.0
C249 C 0.26862 0.17138 0.88138 0.0
C250 C 0.39214 0.20653 0.80807 0.0
C251 C 0.41664 0.1253 0.74252 0.0
C252 C 0.53473 0.16423 0.81571 0.0
C253 C 0.55338 0.16217 0.7658 0.0
C254 C 0.57772 0.1939 0.74791 0.0
C255 C 0.59866 0.18993 0.70305 0.0
C256 C 0.59614 0.15393 0.67533 0.0
C257 C 0.56897 0.1238 0.69155 0.0
C258 C 0.54773 0.1279 0.73583 0.0
C259 C 0.43828 0.06476 0.85568 0.0
O260 O 0.3818 0.14174 0.92327 0.0
O261 O 0.44812 0.1649 0.92365 0.0
O262 O 0.31338 0.12849 0.80743 0.0
O263 O 0.32505 0.0966 0.8761 0.0
O264 O 0.3587 0.18799 0.79871 0.0
O265 O 0.41068 0.18759 0.84227 0.0
O266 O 0.44739 0.14436 0.76261 0.0
O267 O 0.38975 0.10659 0.76979 0.0
O268 O 0.52586 0.12967 0.83652 0.0
O269 O 0.50608 0.19093 0.8222 0.0
O270 O 0.4681 0.08213 0.87879 0.0
O271 O 0.4235 0.0909 0.82729 0.0
H272 H 0.22605 0.07721 0.87245 0.0
H273 H 0.18303 0.10553 0.93693 0.0
H274 H 0.25175 0.21683 0.93351 0.0
H275 H 0.29444 0.18888 0.8688 0.0
H276 H 0.58205 0.22107 0.76968 0.0
H277 H 0.61904 0.2138 0.69276 0.0
H278 H 0.56636 0.09546 0.67161 0.0
H279 H 0.5284 0.10321 0.74772 0.0
Ho280 Ho 0.20319 0.12212 1.09138 0.0
Ho281 Ho 0.19036 0.21205 1.09386 0.0
C282 C 0.17727 0.16297 0.19704 0.0
C283 C 0.2255 0.04756 1.09496 0.0
C284 C 0.20444 1.0136 0.11728 0.0
C285 C 0.22654 0.9801 0.13348 0.0
C286 C 0.21011 0.9553 0.16966 0.0
C287 C 0.17217 0.96485 0.19004 0.0
C288 C 0.14742 0.99388 0.1678 0.0
C289 C 0.16373 1.01859 0.13147 0.0
C290 C 0.12864 0.14206 1.05808 0.0
C291 C 0.20988 0.16652 0.99253 0.0
C292 C 0.17094 0.28464 1.06568 0.0
C293 C 0.17298 0.30329 1.01577 0.0
C294 C 0.14124 0.32764 0.9979 0.0
C295 C 0.14521 0.34859 0.95305 0.0
C296 C 0.18119 0.34606 0.9253 0.0
C297 C 0.21131 0.31887 0.94149 0.0
C298 C 0.20723 0.29763 0.98578 0.0
C299 C 0.2704 0.18819 0.10569 0.0
O300 O 0.19342 0.13173 0.17329 0.0
O301 O 0.17027 0.19805 0.17364 0.0
O302 O 0.20668 0.06328 1.05748 0.0
O303 O 0.23853 0.07496 0.12617 0.0
O304 O 0.14718 0.10861 1.04873 0.0
O305 O 0.14758 0.1606 1.09227 0.0
O306 O 0.19082 0.19729 1.0126 0.0
O307 O 0.22857 0.13964 1.01981 0.0
O308 O 0.20551 0.27577 1.08647 0.0
O309 O 0.14424 0.25599 1.0722 0.0
O310 O 0.25304 0.21801 0.12878 0.0
O311 O 0.24427 0.1734 1.0773 0.0
H312 H 0.25785 0.9759 0.12249 0.0
H313 H 0.22947 0.93285 0.18691 0.0
H314 H 0.11826 1.00173 0.18357 0.0
H315 H 0.14627 0.04444 0.11892 0.0
H316 H 0.11409 0.33198 1.01969 0.0
H317 H 0.12133 0.36898 0.94277 0.0
H318 H 0.23964 0.31626 0.92153 0.0
H319 H 0.23192 0.27829 0.99765 0.0
Ho320 Ho 0.96141 0.94015 0.84359 0.0
Ho321 Ho 0.87147 0.95392 0.84151 0.0
C322 C 0.91573 0.95993 0.74259 0.0
C323 C 1.03387 0.92028 0.81527 0.0
C324 C 0.05237 0.92164 0.76524 0.0
C325 C 0.07757 0.8902 0.74838 0.0
C326 C 0.09869 0.8939 0.70361 0.0
C327 C 0.09549 0.92936 0.67497 0.0
C328 C 0.06746 0.95906 0.69011 0.0
C329 C 0.04604 0.95521 0.7343 0.0
C330 C 0.93838 1.02035 0.85567 0.0
C331 C 0.91246 0.92769 0.947 0.0
C332 C 0.79715 0.97706 0.84513 0.0
C333 C 0.76294 0.95618 0.86714 0.0
C334 C 0.73 0.9786 0.88435 0.0
C335 C 0.70535 0.96208 0.92061 0.0
C336 C 0.71453 0.92373 0.94013 0.0
C337 C 0.7428 0.89879 0.91682 0.0
C338 C 0.76734 0.91518 0.88036 0.0
C339 C 0.89062 0.87913 0.80808 0.0
O340 O 0.94619 0.94029 0.76248 0.0
O341 O 0.88937 0.97922 0.77002 0.0
O342 O 1.02507 0.95515 0.8353 0.0
O343 O 1.00525 0.89368 0.82258 0.0
O344 O 0.9682 1.00271 0.87843 0.0
O345 O 0.92311 0.99444 0.82735 0.0
O346 O 0.8813 0.94413 0.92337 0.0
O347 O 0.9474 0.9203 0.92347 0.0
O348 O 0.81274 0.95839 0.80746 0.0
O349 O 0.82463 0.98953 0.87656 0.0
O350 O 0.85725 0.89793 0.79904 0.0
O351 O 0.90939 0.89799 0.84216 0.0
H352 H 0.08248 0.86357 0.77094 0.0
H353 H 0.11974 0.87035 0.69411 0.0
H354 H 0.06436 0.987 0.66945 0.0
H355 H 1.0261 0.97966 0.74544 0.0
H356 H 0.72625 1.01015 0.87418 0.0
H357 H 0.68345 0.98159 0.93864 0.0
H358 H 0.75033 0.86929 0.93186 0.0
H359 H 0.79273 0.89745 0.86704 0.0
Ho360 Ho 0.89499 0.21132 0.5936 0.0
Ho361 Ho 0.88124 0.12138 0.59152 0.0
C362 C 0.87519 0.16565 0.4926 0.0
C363 C 0.91487 0.28378 0.56527 0.0
C364 C 0.91351 0.30228 0.51524 0.0
C365 C 0.94497 0.32747 0.49839 0.0
C366 C 0.94128 0.3486 0.45362 0.0
C367 C 0.90582 0.34542 0.42496 0.0
C368 C 0.87611 0.31739 0.4401 0.0
C369 C 0.87995 0.29596 0.48429 0.0
C370 C 0.8148 0.18828 0.60568 0.0
C371 C 0.90749 0.16238 0.69701 0.0
C372 C 0.85811 0.04706 0.59518 0.0
C373 C 0.87901 1.01286 0.6172 0.0
C374 C 0.85661 0.97989 0.6344 0.0
C375 C 0.87316 0.95522 0.67062 0.0
C376 C 0.91151 0.96441 0.6901 0.0
C377 C 0.93643 0.99273 0.66685 0.0
C378 C 0.92001 1.01729 0.63042 0.0
C379 C 0.95597 0.14057 0.558 0.0
O380 O 0.89484 0.19611 0.51249 0.0
O381 O 0.85592 0.13928 0.52004 0.0
O382 O 0.87999 0.27498 0.5853 0.0
O383 O 0.94146 0.25516 0.57259 0.0
O384 O 0.83243 0.21811 0.62843 0.0
O385 O 0.84071 0.17301 0.57736 0.0
O386 O 0.89106 0.13121 0.67338 0.0
O387 O 0.91486 0.19732 0.67348 0.0
O388 O 0.87678 0.06264 0.55749 0.0
O389 O 0.84564 0.07455 0.62659 0.0
O390 O 0.93719 0.10718 0.54898 0.0
O391 O 0.93717 0.15931 0.59214 0.0
H392 H 0.97159 0.33237 0.52095 0.0
H393 H 0.96483 0.36965 0.44414 0.0
H394 H 0.84817 0.31431 0.41945 0.0
H395 H 0.85549 0.27603 0.49542 0.0
H396 H 0.82507 0.97613 0.62423 0.0
H397 H 0.85367 0.9333 0.68865 0.0
H398 H 0.96592 1.00029 0.68189 0.0
H399 H 0.93771 0.04271 0.61712 0.0
Ho400 Ho 0.6238 0.14497 0.3436 0.0
Ho401 Ho 0.71374 0.13119 0.34154 0.0
C402 C 0.66948 0.1252 0.24261 0.0
C403 C 0.55133 0.16485 0.31528 0.0
C404 C 0.53284 0.16349 0.26524 0.0
C405 C 0.50761 0.19492 0.2484 0.0
C406 C 0.48649 0.19122 0.20362 0.0
C407 C 0.48972 0.15578 0.17497 0.0
C408 C 0.51777 0.12609 0.19009 0.0
C409 C 0.53919 0.12994 0.23429 0.0
C410 C 0.64682 0.06477 0.35567 0.0
C411 C 0.67274 0.15742 0.44703 0.0
C412 C 0.78805 0.10805 0.3452 0.0
C413 C 0.82226 0.12894 0.36721 0.0
C414 C 0.85521 0.10653 0.38441 0.0
C415 C 0.87989 0.12308 0.42063 0.0
C416 C 0.87071 0.16143 0.44011 0.0
C417 C 0.84239 0.18636 0.41686 0.0
C418 C 0.81783 0.16994 0.38044 0.0
C419 C 0.69459 0.20599 0.30811 0.0
O420 O 0.63902 0.14483 0.2625 0.0
O421 O 0.69585 0.10591 0.27004 0.0
O422 O 0.56014 0.12997 0.3353 0.0
O423 O 0.57995 0.19144 0.3226 0.0
O424 O 0.617 0.0824 0.37843 0.0
O425 O 0.6621 0.09068 0.32736 0.0
O426 O 0.7039 0.14098 0.4234 0.0
O427 O 0.6378 0.16482 0.42349 0.0
O428 O 0.77247 0.12671 0.30751 0.0
O429 O 0.76056 0.09558 0.37661 0.0
O430 O 0.72796 0.18719 0.29909 0.0
O431 O 0.67582 0.18713 0.34218 0.0
H432 H 0.50269 0.22153 0.27097 0.0
H433 H 0.46543 0.21476 0.19414 0.0
H434 H 0.52089 0.09816 0.16942 0.0
H435 H 0.55915 0.1055 0.24542 0.0
H436 H 0.85897 0.07499 0.37424 0.0
H437 H 0.90181 0.10358 0.43866 0.0
H438 H 0.83485 0.21585 0.43191 0.0
H439 H 0.79242 0.18765 0.36714 0.0
Ho440 Ho 0.69021 0.87381 1.09359 0.0
Ho441 Ho 0.70396 0.96376 1.09154 0.0
C442 C 0.71002 0.9195 0.99261 0.0
C443 C 0.67033 0.80135 1.06527 0.0
C444 C 0.67168 0.78285 1.01524 0.0
C445 C 0.64023 0.75765 0.9984 0.0
C446 C 0.64392 0.73652 0.95363 0.0
C447 C 0.67938 0.7397 0.92497 0.0
C448 C 0.70908 0.76773 0.9401 0.0
C449 C 0.70524 0.78917 0.98429 0.0
C450 C 0.7704 0.89685 0.10569 0.0
C451 C 0.67771 0.92275 0.19701 0.0
C452 C 0.72708 1.03807 1.0952 0.0
C453 C 0.70619 0.07228 0.11722 0.0
C454 C 0.7286 0.10524 0.13441 0.0
C455 C 0.71205 0.12991 0.17064 0.0
C456 C 0.6737 0.12072 0.19012 0.0
C457 C 0.64878 0.09241 0.16687 0.0
C458 C 0.66519 0.06785 0.13044 0.0
C459 C 0.62924 0.94456 1.05799 0.0
O460 O 0.69039 0.88902 1.01248 0.0
O461 O 0.72929 0.94587 1.02005 0.0
O462 O 0.70521 0.81015 1.0853 0.0
O463 O 0.64374 0.82997 1.07258 0.0
O464 O 0.75277 0.86701 0.12843 0.0
O465 O 0.74449 0.91213 1.07737 0.0
O466 O 0.69413 0.95392 0.17338 0.0
O467 O 0.67035 0.8878 0.17347 0.0
O468 O 0.70842 1.0225 1.05751 0.0
O469 O 0.73956 1.01058 0.12661 0.0
O470 O 0.648 0.97795 1.04899 0.0
O471 O 0.64804 0.92582 1.09213 0.0
H472 H 0.61362 0.75275 1.02096 0.0
H473 H 0.62038 0.71546 0.94416 0.0
H474 H 0.73702 0.77082 0.91945 0.0
H475 H 0.7297 0.8091 0.99542 0.0
H476 H 0.76014 0.109 0.12424 0.0
H477 H 0.73154 0.15183 0.18866 0.0
H478 H 0.61929 0.08486 0.18191 0.0
H479 H 0.64749 1.04243 0.11714 0.0
Ho480 Ho 0.96142 0.14494 0.85586 0.0
Ho481 Ho 0.87147 0.1312 0.8579 0.0
C482 C 0.9157 0.12527 0.95687 0.0
C483 C 1.03388 0.1648 0.88419 0.0
C484 C 0.05237 0.16344 0.93423 0.0
C485 C 0.07757 0.19488 0.9511 0.0
C486 C 0.09868 0.19117 0.99589 0.0
C487 C 0.09546 0.15571 1.02453 0.0
C488 C 0.06743 0.12601 1.00938 0.0
C489 C 0.04602 0.12987 0.96516 0.0
C490 C 0.93842 0.06476 0.84393 0.0
C491 C 0.91249 0.15737 0.75242 0.0
C492 C 0.79715 0.10805 0.85428 0.0
C493 C 0.76293 0.12893 0.83228 0.0
C494 C 0.72997 0.10652 0.81511 0.0
C495 C 0.70528 0.12305 0.77889 0.0
C496 C 0.71445 0.1614 0.75936 0.0
C497 C 0.74275 0.18633 0.78264 0.0
C498 C 0.76732 0.16994 0.81905 0.0
C499 C 0.89062 0.20601 0.89127 0.0
O500 O 0.94619 0.14485 0.93697 0.0
O501 O 0.88932 0.10598 0.92946 0.0
O502 O 1.02507 0.12993 0.86416 0.0
O503 O 1.00527 0.19141 0.87687 0.0
O504 O 0.96822 0.08236 0.82107 0.0
O505 O 0.9231 0.09069 0.87218 0.0
O506 O 0.88133 0.14093 0.77605 0.0
O507 O 0.94742 0.16478 0.77597 0.0
O508 O 0.81274 0.12673 0.89196 0.0
O509 O 0.82463 0.09559 0.82285 0.0
O510 O 0.85723 0.18723 0.90027 0.0
O511 O 0.9094 0.18711 0.85724 0.0
H512 H 0.08248 0.2215 0.92855 0.0
H513 H 0.11971 0.21472 1.00539 0.0
H514 H 0.06432 0.09807 1.03003 0.0
H515 H 1.02609 0.10542 0.95402 0.0
H516 H 0.72622 0.07498 0.82529 0.0
H517 H 0.68336 0.10355 0.76089 0.0
H518 H 0.75028 0.21583 0.76759 0.0
H519 H 0.79273 0.18766 0.83234 0.0
Ho520 Ho 0.69022 0.21133 0.60587 0.0
Ho521 Ho 0.70393 0.12138 0.60792 0.0
C522 C 0.70993 0.16561 0.70688 0.0
C523 C 0.67034 0.28379 0.63421 0.0
C524 C 0.67168 0.30228 0.68425 0.0
C525 C 0.64023 0.32747 0.70109 0.0
C526 C 0.64391 0.34859 0.74587 0.0
C527 C 0.67936 0.3454 0.77454 0.0
C528 C 0.70906 0.31736 0.75941 0.0
C529 C 0.70523 0.29594 0.71521 0.0
C530 C 0.77039 0.18833 0.59393 0.0
C531 C 0.67774 0.16241 0.50244 0.0
C532 C 0.72705 0.04706 0.6043 0.0
C533 C 0.70618 1.01283 0.5823 0.0
C534 C 0.7286 0.97988 0.56512 0.0
C535 C 0.71208 0.9552 0.52889 0.0
C536 C 0.67374 0.96437 0.50936 0.0
C537 C 0.64879 0.99265 0.53263 0.0
C538 C 0.66518 1.01722 0.56907 0.0
C539 C 0.62919 0.14059 0.64139 0.0
O540 O 0.69035 0.19611 0.68699 0.0
O541 O 0.7292 0.13924 0.67945 0.0
O542 O 0.70522 0.27499 0.6142 0.0
O543 O 0.64374 0.25518 0.62687 0.0
O544 O 0.7528 0.21813 0.57108 0.0
O545 O 0.74446 0.173 0.62217 0.0
O546 O 0.69415 0.13123 0.52607 0.0
O547 O 0.67037 0.19735 0.52598 0.0
O548 O 0.70837 0.06265 0.64197 0.0
O549 O 0.73954 0.07454 0.57288 0.0
O550 O 0.64793 0.10717 0.65037 0.0
O551 O 0.64803 0.15934 0.60729 0.0
H552 H 0.61362 0.33238 0.67851 0.0
H553 H 0.62036 0.36964 0.75534 0.0
H554 H 0.737 0.31427 0.78007 0.0
H555 H 0.72969 0.27601 0.70408 0.0
H556 H 0.76015 0.97614 0.57531 0.0
H557 H 0.7316 0.93329 0.51088 0.0
H558 H 0.6193 1.00018 0.51759 0.0
H559 H 0.64745 0.04262 0.58236 0.0
Ho560 Ho 0.6238 0.94018 0.35587 0.0
Ho561 Ho 0.71375 0.95392 0.3579 0.0
C562 C 0.66953 0.95986 0.45687 0.0
C563 C 0.55134 0.9203 0.3842 0.0
C564 C 0.53285 0.92167 0.43423 0.0
C565 C 0.50764 0.89022 0.45109 0.0
C566 C 0.48653 0.89392 0.49587 0.0
C567 C 0.48974 0.92938 0.52452 0.0
C568 C 0.51778 0.95908 0.50938 0.0
C569 C 0.53919 0.95523 0.46517 0.0
C570 C 0.64678 1.02036 0.34393 0.0
C571 C 0.67271 0.92774 0.25243 0.0
C572 C 0.78806 0.97706 0.35427 0.0
C573 C 0.82229 0.95618 0.33226 0.0
C574 C 0.85525 0.9786 0.3151 0.0
C575 C 0.87993 0.96207 0.27888 0.0
C576 C 0.87076 0.92373 0.25935 0.0
C577 C 0.84247 0.89879 0.28261 0.0
C578 C 0.81789 0.91518 0.31903 0.0
C579 C 0.69459 0.87911 0.39128 0.0
O580 O 0.63903 0.94029 0.43698 0.0
O581 O 0.69591 0.97914 0.42945 0.0
O582 O 0.56014 0.95518 0.36416 0.0
O583 O 0.57995 0.89371 0.37688 0.0
O584 O 0.61699 1.00276 0.32108 0.0
O585 O 0.66212 0.99443 0.37217 0.0
O586 O 0.70388 0.94418 0.27604 0.0
O587 O 0.63778 0.92034 0.27597 0.0
O588 O 0.77248 0.95838 0.39194 0.0
O589 O 0.76058 0.98953 0.32284 0.0
O590 O 0.72798 0.89788 0.40027 0.0
O591 O 0.67581 0.89801 0.35725 0.0
H592 H 0.50273 0.86361 0.42853 0.0
H593 H 0.46549 0.87038 0.50537 0.0
H594 H 0.52089 0.98701 0.53003 0.0
H595 H 0.55913 0.97968 0.45403 0.0
H596 H 0.859 1.01014 0.32529 0.0
H597 H 0.90186 0.98158 0.26089 0.0
H598 H 0.83494 0.86929 0.26756 0.0
H599 H 0.79248 0.89745 0.33232 0.0
Ho600 Ho 0.89498 0.87379 0.10586 0.0
Ho601 Ho 0.88127 0.96375 0.10789 0.0
C602 C 0.87529 0.91952 0.20686 0.0
C603 C 0.91485 0.80133 0.1342 0.0
C604 C 0.9135 0.78283 0.18423 0.0
C605 C 0.94495 0.75763 0.20108 0.0
C606 C 0.94127 0.73651 0.24585 0.0
C607 C 0.90582 0.7397 0.27452 0.0
C608 C 0.87612 0.76775 0.25939 0.0
C609 C 0.87995 0.78917 0.21519 0.0
C610 C 0.81481 0.8968 1.09392 0.0
C611 C 0.90746 0.9227 1.00242 0.0
C612 C 0.85814 1.03806 0.10424 0.0
C613 C 0.87902 0.07228 1.08222 0.0
C614 C 0.85661 0.10525 1.06507 0.0
C615 C 0.87315 0.12995 1.02887 0.0
C616 C 0.9115 0.12079 1.00937 0.0
C617 C 0.93643 0.09246 1.03259 0.0
C618 C 0.92002 0.06787 1.06899 0.0
C619 C 0.95601 0.94454 0.14137 0.0
O620 O 0.89485 0.88901 0.18698 0.0
O621 O 0.85602 0.9459 0.17943 0.0
O622 O 0.87997 0.81013 0.11418 0.0
O623 O 0.94145 0.82994 0.12687 0.0
O624 O 0.83239 0.86699 1.07108 0.0
O625 O 0.84074 0.91213 0.12216 0.0
O626 O 0.89105 0.95388 1.02604 0.0
O627 O 0.91482 0.88776 1.02597 0.0
O628 O 0.87682 1.02248 0.14192 0.0
O629 O 0.84567 1.01058 1.07283 0.0
O630 O 0.93728 0.97796 0.15033 0.0
O631 O 0.93717 0.92578 0.10728 0.0
H632 H 0.97156 0.75272 0.1785 0.0
H633 H 0.96481 0.71545 0.25532 0.0
H634 H 0.84819 0.77084 0.28005 0.0
H635 H 0.8555 0.80911 0.20407 0.0
H636 H 0.82507 0.109 1.07525 0.0
H637 H 0.85365 0.15188 1.01086 0.0
H638 H 0.96592 0.08492 1.01753 0.0
H639 H 0.93774 1.04245 1.08226 0.0
Ho640 Ho 0.71299 0.63196 0.85813 0.0
Ho641 Ho 0.62308 0.64481 0.85557 0.0
C642 C 0.6722 0.65796 0.75244 0.0
C643 C 0.78755 0.60966 0.85459 0.0
C644 C 0.82151 0.63072 0.83226 0.0
C645 C 0.85497 0.6086 0.81599 0.0
C646 C 0.87971 0.62501 0.77974 0.0
C647 C 0.87015 0.66295 0.75934 0.0
C648 C 0.8412 0.68773 0.78168 0.0
C649 C 0.81654 0.67143 0.81809 0.0
C650 C 0.69302 0.70644 0.89154 0.0
C651 C 0.66853 0.62518 0.9569 0.0
C652 C 0.55049 0.66423 0.88373 0.0
C653 C 0.53183 0.66218 0.93364 0.0
C654 C 0.50748 0.69391 0.95151 0.0
C655 C 0.48652 0.68994 0.99635 0.0
C656 C 0.48903 0.65395 1.02409 0.0
C657 C 0.51621 0.62382 1.00789 0.0
C658 C 0.53746 0.62791 0.96361 0.0
C659 C 0.64699 0.56475 0.8436 0.0
O660 O 0.70344 0.64181 0.77621 0.0
O661 O 0.63711 0.66494 0.77581 0.0
O662 O 0.77183 0.62851 0.89205 0.0
O663 O 0.76017 0.59662 0.82338 0.0
O664 O 0.72646 0.6879 0.90093 0.0
O665 O 0.67453 0.68759 0.85724 0.0
O666 O 0.63782 0.64431 0.93683 0.0
O667 O 0.6954 0.60647 0.92962 0.0
O668 O 0.55936 0.62966 0.86293 0.0
O669 O 0.57914 0.69092 0.87725 0.0
O670 O 0.61714 0.58215 0.8206 0.0
O671 O 0.6617 0.59087 0.87207 0.0
H672 H 0.85917 0.57728 0.82697 0.0
H673 H 0.90212 0.60562 0.76244 0.0
H674 H 0.83335 0.71689 0.76594 0.0
H675 H 0.79072 0.68892 0.8307 0.0
H676 H 0.50316 0.72107 0.92972 0.0
H677 H 0.46613 0.71382 1.00663 0.0
H678 H 0.5188 0.59548 1.02784 0.0
H679 H 0.5568 0.60321 0.95174 0.0
Ho680 Ho 0.70325 0.46292 0.10808 0.0
Ho681 Ho 0.69036 0.37301 0.10556 0.0
C682 C 0.67725 0.42212 1.00241 0.0
C683 C 0.72558 0.53747 0.10449 0.0
C684 C 0.70451 0.57142 1.08217 0.0
C685 C 0.72661 0.60491 1.06592 0.0
C686 C 0.71015 0.62968 1.02972 0.0
C687 C 0.6722 0.62012 1.00938 0.0
C688 C 0.64746 0.59111 1.03166 0.0
C689 C 0.66379 0.56643 1.06801 0.0
C690 C 0.62871 0.44302 0.14144 0.0
C691 C 0.70998 0.41847 0.20688 0.0
C692 C 0.67092 0.30041 0.13374 0.0
C693 C 0.67299 0.28176 0.18364 0.0
C694 C 0.64125 0.25742 0.20156 0.0
C695 C 0.64524 0.23648 0.24642 0.0
C696 C 0.68125 0.239 0.27411 0.0
C697 C 0.71138 0.26616 0.25788 0.0
C698 C 0.70727 0.2874 0.21359 0.0
C699 C 0.77042 0.39688 1.0936 0.0
O700 O 0.69343 0.45335 1.02617 0.0
O701 O 0.67024 0.38704 1.02579 0.0
O702 O 0.70678 0.52176 0.14199 0.0
O703 O 0.73859 0.51007 1.07329 0.0
O704 O 0.64729 0.47644 0.15082 0.0
O705 O 0.6476 0.42449 0.1072 0.0
O706 O 0.69085 0.38776 0.18681 0.0
O707 O 0.72869 0.44534 0.17961 0.0
O708 O 0.70547 0.30927 0.1129 0.0
O709 O 0.64423 0.32908 0.12726 0.0
O710 O 0.75301 0.36703 1.0706 0.0
O711 O 0.74431 0.41161 0.12206 0.0
H712 H 0.75792 0.60912 1.07688 0.0
H713 H 0.72951 0.65212 1.01243 0.0
H714 H 0.6183 0.58325 1.01591 0.0
H715 H 0.64634 0.54058 1.0806 0.0
H716 H 0.61408 0.25311 0.1798 0.0
H717 H 0.62136 0.21612 0.25674 0.0
H718 H 0.73973 0.26877 0.27781 0.0
H719 H 0.73197 0.30673 0.20169 0.0
Ho720 Ho 0.87222 0.45315 0.3581 0.0
Ho721 Ho 0.96213 0.44031 0.35555 0.0
C722 C 0.91301 0.42716 0.25242 0.0
C723 C 0.79766 0.47547 0.35452 0.0
C724 C 0.76371 0.45441 0.33219 0.0
C725 C 0.73023 0.47653 0.31593 0.0
C726 C 0.70548 0.46009 0.2797 0.0
C727 C 0.71503 0.42214 0.25936 0.0
C728 C 0.74401 0.39738 0.28165 0.0
C729 C 0.76869 0.41369 0.31803 0.0
C730 C 0.89218 0.37867 0.39152 0.0
C731 C 0.91668 0.45992 0.45688 0.0
C732 C 1.03472 0.42089 0.38371 0.0
C733 C 0.05339 0.42294 0.43361 0.0
C734 C 0.07774 0.39121 0.45149 0.0
C735 C 0.0987 0.39518 0.49633 0.0
C736 C 0.09618 0.43117 0.52407 0.0
C737 C 0.069 0.4613 0.50787 0.0
C738 C 0.04775 0.45721 0.46359 0.0
C739 C 0.93822 0.52037 0.3436 0.0
O740 O 0.88177 0.4433 0.27619 0.0
O741 O 0.9481 0.42018 0.27579 0.0
O742 O 0.81338 0.45663 0.392 0.0
O743 O 0.82505 0.48851 0.32333 0.0
O744 O 0.85874 0.3972 0.40088 0.0
O745 O 0.91067 0.39753 0.35722 0.0
O746 O 0.9474 0.4408 0.43681 0.0
O747 O 0.8898 0.47862 0.42961 0.0
O748 O 1.02586 0.45544 0.3629 0.0
O749 O 1.00607 0.39419 0.37724 0.0
O750 O 0.96807 0.50297 0.32059 0.0
O751 O 0.9235 0.49424 0.37206 0.0
H752 H 0.72604 0.50784 0.32689 0.0
H753 H 0.68305 0.47947 0.26241 0.0
H754 H 0.75186 0.36821 0.26591 0.0
H755 H 0.79452 0.39622 0.33063 0.0
H756 H 0.08207 0.36405 0.42971 0.0
H757 H 0.11909 0.37131 0.50661 0.0
H758 H 0.0664 0.48963 0.52782 0.0
H759 H 1.02841 0.4819 0.45171 0.0
Ho760 Ho 0.88198 0.62219 0.60808 0.0
Ho761 Ho 0.89485 0.71211 0.60556 0.0
C762 C 0.90796 0.663 0.50241 0.0
C763 C 0.85966 0.54763 0.60448 0.0
C764 C 0.88073 0.51368 0.58216 0.0
C765 C 0.85864 0.48019 0.56593 0.0
C766 C 0.87508 0.45542 0.52972 0.0
C767 C 0.91302 0.46498 0.50936 0.0
C768 C 0.93777 0.494 0.53162 0.0
C769 C 0.92144 0.51869 0.56798 0.0
C770 C 0.95651 0.64211 0.64143 0.0
C771 C 0.87522 0.66662 0.70687 0.0
C772 C 0.91429 0.7847 0.63373 0.0
C773 C 0.91222 0.80336 0.68363 0.0
C774 C 0.94395 0.82769 0.70154 0.0
C775 C 0.93997 0.84864 0.7464 0.0
C776 C 0.90396 0.84612 0.77409 0.0
C777 C 0.87383 0.81895 0.75787 0.0
C778 C 0.87793 0.79771 0.71358 0.0
C779 C 0.81478 0.68822 0.5936 0.0
O780 O 0.8918 0.63176 0.52617 0.0
O781 O 0.91496 0.69808 0.52579 0.0
O782 O 0.87848 0.56334 0.64198 0.0
O783 O 0.84664 0.57503 0.57328 0.0
O784 O 0.93794 0.60868 0.65082 0.0
O785 O 0.93761 0.66063 0.6072 0.0
O786 O 0.89433 0.69736 0.68681 0.0
O787 O 0.85652 0.63975 0.67959 0.0
O788 O 0.87974 0.77584 0.61289 0.0
O789 O 0.94098 0.75603 0.62726 0.0
O790 O 0.83219 0.71807 0.5706 0.0
O791 O 0.84091 0.67349 0.62205 0.0
H792 H 0.82733 0.47597 0.5769 0.0
H793 H 0.85572 0.43297 0.51245 0.0
H794 H 0.96692 0.50187 0.51586 0.0
H795 H 0.9389 0.54454 0.58055 0.0
H796 H 0.97112 0.83201 0.67978 0.0
H797 H 0.96385 0.869 0.75671 0.0
H798 H 0.84548 0.81635 0.7778 0.0
H799 H 0.85324 0.77839 0.70168 0.0
Ho800 Ho 0.71298 0.45314 0.84134 0.0
Ho801 Ho 0.62307 0.44033 0.84387 0.0
C802 C 0.67217 0.4272 0.94702 0.0
C803 C 0.78755 0.47543 0.84488 0.0
C804 C 0.82151 0.45437 0.8672 0.0
C805 C 0.855 0.47649 0.88342 0.0
C806 C 0.87977 0.46007 0.91963 0.0
C807 C 0.87022 0.42213 0.94005 0.0
C808 C 0.84123 0.39737 0.91775 0.0
C809 C 0.81654 0.41366 0.88139 0.0
C810 C 0.69301 0.37864 0.80799 0.0
C811 C 0.66855 0.45985 0.74252 0.0
C812 C 0.55047 0.42092 0.8157 0.0
C813 C 0.53182 0.42297 0.76579 0.0
C814 C 0.50748 0.39123 0.74791 0.0
C815 C 0.48654 0.3952 0.70305 0.0
C816 C 0.48906 0.43119 0.67531 0.0
C817 C 0.51623 0.46132 0.69152 0.0
C818 C 0.53747 0.45723 0.73581 0.0
C819 C 0.64694 0.52037 0.85568 0.0
O820 O 0.70341 0.44334 0.92325 0.0
O821 O 0.63708 0.42022 0.92364 0.0
O822 O 0.77182 0.45659 0.80742 0.0
O823 O 0.76017 0.48848 0.87608 0.0
O824 O 0.72647 0.39715 0.79863 0.0
O825 O 0.67451 0.39753 0.84225 0.0
O826 O 0.6378 0.44078 0.76261 0.0
O827 O 0.69544 0.47855 0.76978 0.0
O828 O 0.55934 0.45548 0.8365 0.0
O829 O 0.57912 0.39422 0.8222 0.0
O830 O 0.61713 0.50301 0.87879 0.0
O831 O 0.66171 0.49423 0.82728 0.0
H832 H 0.8592 0.5078 0.87242 0.0
H833 H 0.90221 0.47945 0.93689 0.0
H834 H 0.83339 0.3682 0.93352 0.0
H835 H 0.79071 0.39619 0.86881 0.0
H836 H 0.50315 0.36407 0.76969 0.0
H837 H 0.46616 0.37132 0.69277 0.0
H838 H 0.51884 0.48966 0.67157 0.0
H839 H 0.5568 0.48193 0.74769 0.0
Ho840 Ho 0.882 0.4629 1.09135 0.0
Ho841 Ho 0.89484 0.37297 1.09386 0.0
C842 C 0.90793 0.42208 0.19702 0.0
C843 C 0.85968 0.53746 1.0949 0.0
C844 C 0.88073 0.57143 0.11721 0.0
C845 C 0.85861 0.60491 0.13343 0.0
C846 C 0.87503 0.62969 0.16964 0.0
C847 C 0.91296 0.62015 0.19005 0.0
C848 C 0.93774 0.59117 0.16775 0.0
C849 C 0.92144 0.56647 0.13139 0.0
C850 C 0.95655 0.44297 1.05806 0.0
C851 C 0.87531 0.41848 0.99252 0.0
C852 C 0.91428 0.30038 1.06569 0.0
C853 C 0.91221 0.28174 1.01578 0.0
C854 C 0.94395 0.25741 0.99786 0.0
C855 C 0.93996 0.23649 0.95298 0.0
C856 C 0.90395 0.23901 0.92529 0.0
C857 C 0.87382 0.26616 0.94153 0.0
C858 C 0.87792 0.28738 0.98583 0.0
C859 C 0.8148 0.39683 0.10568 0.0
O860 O 0.89178 0.45331 0.17326 0.0
O861 O 0.91493 0.387 0.17364 0.0
O862 O 0.87852 0.52174 1.05743 0.0
O863 O 0.84665 0.51007 0.1261 0.0
O864 O 0.93801 0.47642 1.0487 0.0
O865 O 0.93762 0.42444 1.09226 0.0
O866 O 0.89437 0.38772 1.0126 0.0
O867 O 0.85662 0.44537 1.01979 0.0
O868 O 0.87972 0.30924 1.08652 0.0
O869 O 0.94097 0.32904 1.07217 0.0
O870 O 0.83216 0.367 0.12877 0.0
O871 O 0.84093 0.41161 1.07728 0.0
H872 H 0.8273 0.6091 0.12244 0.0
H873 H 0.85564 0.65212 0.1869 0.0
H874 H 0.9669 0.58334 0.18351 0.0
H875 H 0.93893 0.54065 0.11882 0.0
H876 H 0.97112 0.2531 1.01961 0.0
H877 H 0.96385 0.21614 0.94265 0.0
H878 H 0.84548 0.26877 0.9216 0.0
H879 H 0.85323 0.3067 0.99774 0.0
Ho880 Ho 0.8722 0.63197 0.34135 0.0
Ho881 Ho 0.96212 0.64478 0.34386 0.0
C882 C 0.91303 0.65791 0.44701 0.0
C883 C 0.79764 0.60967 0.3449 0.0
C884 C 0.76367 0.63072 0.36722 0.0
C885 C 0.73019 0.6086 0.38344 0.0
C886 C 0.70542 0.62502 0.41966 0.0
C887 C 0.71497 0.66295 0.44007 0.0
C888 C 0.74395 0.68773 0.41777 0.0
C889 C 0.76864 0.67143 0.3814 0.0
C890 C 0.89218 0.70646 0.30798 0.0
C891 C 0.91662 0.62525 0.24252 0.0
C892 C 1.03471 0.66421 0.31569 0.0
C893 C 0.05336 0.66216 0.26578 0.0
C894 C 0.07772 0.69389 0.24791 0.0
C895 C 0.09866 0.68992 0.20305 0.0
C896 C 0.09614 0.65394 0.17532 0.0
C897 C 0.06895 0.62381 0.19151 0.0
C898 C 0.04771 0.6279 0.2358 0.0
C899 C 0.93825 0.56474 0.35569 0.0
O900 O 0.88178 0.64177 0.42325 0.0
O901 O 0.94811 0.66489 0.42363 0.0
O902 O 0.81336 0.62851 0.30743 0.0
O903 O 0.82502 0.59663 0.3761 0.0
O904 O 0.85871 0.68796 0.29863 0.0
O905 O 0.91068 0.68758 0.34224 0.0
O906 O 0.94738 0.64431 0.2626 0.0
O907 O 0.88973 0.60655 0.2698 0.0
O908 O 1.02585 0.62964 0.33649 0.0
O909 O 1.00606 0.6909 0.32218 0.0
O910 O 0.96808 0.5821 0.37879 0.0
O911 O 0.92347 0.59088 0.32729 0.0
H912 H 0.726 0.57729 0.37245 0.0
H913 H 0.68299 0.60564 0.43692 0.0
H914 H 0.75179 0.71689 0.43352 0.0
H915 H 0.79447 0.68891 0.36882 0.0
H916 H 0.08204 0.72105 0.26969 0.0
H917 H 0.11905 0.7138 0.19278 0.0
H918 H 0.06635 0.59548 0.17156 0.0
H919 H 1.02838 0.6032 0.24768 0.0
Ho920 Ho 0.7032 0.6222 0.59138 0.0
Ho921 Ho 0.69037 0.71213 0.59387 0.0
C922 C 0.67728 0.66304 0.69705 0.0
C923 C 0.72552 0.54764 0.59497 0.0
C924 C 0.70446 0.51368 0.61728 0.0
C925 C 0.72656 0.48018 0.63348 0.0
C926 C 0.71013 0.45538 0.66966 0.0
C927 C 0.67219 0.46492 0.69004 0.0
C928 C 0.64743 0.49395 0.6678 0.0
C929 C 0.66375 0.51867 0.63147 0.0
C930 C 0.62865 0.64213 0.55808 0.0
C931 C 0.70988 0.66661 0.49254 0.0
C932 C 0.67094 0.78472 0.56569 0.0
C933 C 0.673 0.80337 0.51578 0.0
C934 C 0.64127 0.82771 0.49787 0.0
C935 C 0.64525 0.84864 0.453 0.0
C936 C 0.68125 0.84611 0.4253 0.0
C937 C 0.71138 0.81894 0.44153 0.0
C938 C 0.70728 0.79772 0.48583 0.0
C939 C 0.77041 0.68827 0.60568 0.0
O940 O 0.69343 0.6318 0.67329 0.0
O941 O 0.67028 0.69812 0.67366 0.0
O942 O 0.70669 0.56336 0.55748 0.0
O943 O 0.73855 0.57504 0.62617 0.0
O944 O 0.64718 0.60868 0.54874 0.0
O945 O 0.64759 0.66067 0.59228 0.0
O946 O 0.69083 0.69737 0.51261 0.0
O947 O 0.72857 0.63972 0.51981 0.0
O948 O 0.70549 0.77586 0.58652 0.0
O949 O 0.64424 0.75606 0.57217 0.0
O950 O 0.75305 0.7181 0.62877 0.0
O951 O 0.74427 0.67348 0.5773 0.0
H952 H 0.75787 0.47598 0.6225 0.0
H953 H 0.7295 0.43293 0.68691 0.0
H954 H 0.61828 0.5018 0.68357 0.0
H955 H 0.64629 0.54452 0.61892 0.0
H956 H 0.6141 0.83204 0.51963 0.0
H957 H 0.62137 0.86901 0.44268 0.0
H958 H 0.73972 0.81633 0.42159 0.0
H959 H 0.73197 0.77839 0.49773 0.0
Ho960 Ho 0.46142 0.44018 0.3436 0.0
Ho961 Ho 0.37149 0.45393 0.34151 0.0
C962 C 0.41576 0.45998 0.2426 0.0
C963 C 0.53388 0.4203 0.31527 0.0
C964 C 0.55239 0.42168 0.26524 0.0
C965 C 0.57757 0.39022 0.24837 0.0
C966 C 0.59869 0.39392 0.20359 0.0
C967 C 0.59551 0.42939 0.17496 0.0
C968 C 0.5675 0.45911 0.19012 0.0
C969 C 0.54608 0.45526 0.23432 0.0
C970 C 0.43839 0.52037 0.35568 0.0
C971 C 0.41247 0.42768 0.447 0.0
C972 C 0.29717 0.47705 0.34513 0.0
C973 C 0.26296 0.45616 0.36715 0.0
C974 C 0.23001 0.47857 0.38436 0.0
C975 C 0.20536 0.46203 0.42061 0.0
C976 C 0.21456 0.42369 0.44013 0.0
C977 C 0.24284 0.39876 0.41683 0.0
C978 C 0.26738 0.41516 0.38038 0.0
C979 C 0.39068 0.3792 0.30799 0.0
O980 O 0.44622 0.44034 0.26248 0.0
O981 O 0.3894 0.47926 0.27003 0.0
O982 O 0.52509 0.45517 0.33532 0.0
O983 O 0.50526 0.39371 0.32256 0.0
O984 O 0.46822 0.50274 0.37843 0.0
O985 O 0.42312 0.49446 0.32736 0.0
O986 O 0.38131 0.44411 0.42336 0.0
O987 O 0.44742 0.42031 0.42347 0.0
O988 O 0.31276 0.45837 0.30746 0.0
O989 O 0.32465 0.48953 0.37655 0.0
O990 O 0.3573 0.39798 0.29896 0.0
O991 O 0.40942 0.398 0.34213 0.0
H992 H 0.58246 0.36359 0.27091 0.0
H993 H 0.61971 0.37036 0.19409 0.0
H994 H 0.56442 0.48706 0.16948 0.0
H995 H 0.52616 0.47972 0.24547 0.0
H996 H 0.22625 0.51011 0.37418 0.0
H997 H 0.18345 0.48153 0.43864 0.0
H998 H 0.25038 0.36926 0.43187 0.0
H999 H 0.29278 0.39744 0.36706 0.0
Ho1000 Ho 0.39498 0.71137 1.09359 0.0
Ho1001 Ho 0.38124 0.62143 1.09153 0.0
C1002 C 0.37518 0.66569 0.9926 0.0
C1003 C 0.41487 0.78383 1.06525 0.0
C1004 C 0.41351 0.80232 1.01522 0.0
C1005 C 0.44496 0.82751 0.99835 0.0
C1006 C 0.44126 0.84863 0.95358 0.0
C1007 C 0.4058 0.84544 0.92494 0.0
C1008 C 0.37609 0.81741 0.94008 0.0
C1009 C 0.37994 0.79599 0.98428 0.0
C1010 C 0.31479 0.68833 0.10567 0.0
C1011 C 0.40749 0.66243 0.19701 0.0
C1012 C 0.35812 0.54711 1.09519 0.0
C1013 C 0.37903 0.51291 0.11721 0.0
C1014 C 0.35664 0.47994 0.1344 0.0
C1015 C 0.37319 0.45527 0.17062 0.0
C1016 C 0.41154 0.46446 0.1901 0.0
C1017 C 0.43645 0.4928 0.16686 0.0
C1018 C 0.42002 0.51735 0.13043 0.0
C1019 C 0.45596 0.64062 1.058 0.0
O1020 O 0.39482 0.69615 1.01248 0.0
O1021 O 0.35591 0.63932 1.02004 0.0
O1022 O 0.38 0.77503 1.08529 0.0
O1023 O 0.44146 0.7552 1.07256 0.0
O1024 O 0.33242 0.71816 0.12842 0.0
O1025 O 0.34071 0.67306 1.07736 0.0
O1026 O 0.39106 0.63126 0.17338 0.0
O1027 O 0.41485 0.69737 0.17348 0.0
O1028 O 0.37678 0.56269 1.0575 0.0
O1029 O 0.34564 0.57459 0.1266 0.0
O1030 O 0.43719 0.60723 1.04899 0.0
O1031 O 0.43716 0.65936 1.09214 0.0
H1032 H 0.47158 0.83242 1.02091 0.0
H1033 H 0.46482 0.86967 0.94408 0.0
H1034 H 0.34815 0.81432 0.91943 0.0
H1035 H 0.35549 0.77606 0.99542 0.0
H1036 H 0.32509 0.47616 0.12423 0.0
H1037 H 0.35371 0.43333 0.18865 0.0
H1038 H 0.46594 0.50035 0.1819 0.0
H1039 H 0.43772 0.54278 0.11714 0.0
Ho1040 Ho 0.12378 0.64493 0.84361 0.0
Ho1041 Ho 0.21372 0.63118 0.84154 0.0
C1042 C 0.16946 0.62515 0.74261 0.0
C1043 C 0.05132 0.66482 0.81527 0.0
C1044 C 1.03282 0.66346 0.76524 0.0
C1045 C 1.00762 0.6949 0.74839 0.0
C1046 C 0.9865 0.69121 0.70361 0.0
C1047 C 0.98971 0.65575 0.67496 0.0
C1048 C 1.01774 0.62605 0.6901 0.0
C1049 C 1.03916 0.62989 0.7343 0.0
C1050 C 0.14682 0.56474 0.85568 0.0
C1051 C 0.17273 0.65743 0.94702 0.0
C1052 C 0.28803 0.60806 0.8452 0.0
C1053 C 0.32223 0.62896 0.86723 0.0
C1054 C 0.3552 0.60656 0.88441 0.0
C1055 C 0.37987 0.62311 0.92063 0.0
C1056 C 0.37068 0.66147 0.94011 0.0
C1057 C 0.34235 0.68638 0.91687 0.0
C1058 C 0.3178 0.66995 0.88045 0.0
C1059 C 0.19453 0.70591 0.80802 0.0
O1060 O 0.13899 0.64478 0.7625 0.0
O1061 O 0.19582 0.60587 0.77004 0.0
O1062 O 0.06012 0.62994 0.83531 0.0
O1063 O 0.07995 0.69141 0.82258 0.0
O1064 O 0.11699 0.58237 0.87843 0.0
O1065 O 0.16209 0.59065 0.82737 0.0
O1066 O 0.20389 0.641 0.92339 0.0
O1067 O 0.13778 0.6648 0.92349 0.0
O1068 O 0.27246 0.62672 0.80751 0.0
O1069 O 0.26055 0.59558 0.87661 0.0
O1070 O 0.22792 0.68714 0.799 0.0
O1071 O 0.17579 0.68711 0.84215 0.0
H1072 H 1.00271 0.72152 0.77095 0.0
H1073 H 0.96546 0.71476 0.69412 0.0
H1074 H 1.02084 0.59811 0.66944 0.0
H1075 H 0.0591 0.60544 0.74543 0.0
H1076 H 0.35897 0.57502 0.87424 0.0
H1077 H 0.40181 0.60363 0.93865 0.0
H1078 H 0.3348 0.71587 0.93192 0.0
H1079 H 0.29237 0.68766 0.86716 0.0
Ho1080 Ho 0.19022 0.37375 0.59359 0.0
Ho1081 Ho 0.20396 0.4637 0.59154 0.0
C1082 C 0.21004 0.41945 0.49261 0.0
C1083 C 0.17033 0.3013 0.56525 0.0
C1084 C 0.17169 0.2828 0.51522 0.0
C1085 C 0.14024 0.2576 0.49836 0.0
C1086 C 0.14394 0.23648 0.45359 0.0
C1087 C 0.17939 0.23967 0.42495 0.0
C1088 C 0.2091 0.2677 0.44008 0.0
C1089 C 0.20525 0.28913 0.48428 0.0
C1090 C 0.27041 0.39679 0.60568 0.0
C1091 C 0.17771 0.42269 0.69701 0.0
C1092 C 0.22708 0.53802 0.59521 0.0
C1093 C 0.20618 0.57222 0.61723 0.0
C1094 C 0.22858 0.60519 0.63442 0.0
C1095 C 0.21202 0.62986 0.67064 0.0
C1096 C 0.17367 0.62066 0.69012 0.0
C1097 C 0.14876 0.59234 0.66687 0.0
C1098 C 0.16518 0.56778 0.63045 0.0
C1099 C 0.12924 0.4445 0.55799 0.0
O1100 O 0.1904 0.38897 0.51248 0.0
O1101 O 0.2293 0.44582 0.52006 0.0
O1102 O 0.2052 0.31009 0.58529 0.0
O1103 O 0.14374 0.32993 0.57255 0.0
O1104 O 0.25278 0.36695 0.62842 0.0
O1105 O 0.24449 0.41207 0.57738 0.0
O1106 O 0.19413 0.45386 0.67339 0.0
O1107 O 0.17035 0.38774 0.67347 0.0
O1108 O 0.20842 0.52244 0.55752 0.0
O1109 O 0.23956 0.51053 0.62662 0.0
O1110 O 0.14801 0.4779 0.54899 0.0
O1111 O 0.14804 0.42576 0.59213 0.0
H1112 H 0.11362 0.2527 0.52092 0.0
H1113 H 0.12038 0.21544 0.44409 0.0
H1114 H 0.23704 0.2708 0.41943 0.0
H1115 H 0.22971 0.30906 0.49542 0.0
H1116 H 0.26012 0.60896 0.62424 0.0
H1117 H 0.23151 0.65179 0.68866 0.0
H1118 H 0.11927 0.58478 0.68192 0.0
H1119 H 0.14748 0.54236 0.61715 0.0
Ho1120 Ho 0.46143 0.64497 0.35585 0.0
Ho1121 Ho 0.37148 0.63124 0.35792 0.0
C1122 C 0.41573 0.62527 0.45687 0.0
C1123 C 0.53389 0.66484 0.38419 0.0
C1124 C 0.55238 0.66348 0.43423 0.0
C1125 C 0.57758 0.69493 0.4511 0.0
C1126 C 0.59868 0.69123 0.49588 0.0
C1127 C 0.59547 0.65578 0.52453 0.0
C1128 C 0.56744 0.62607 0.50938 0.0
C1129 C 0.54604 0.62992 0.46517 0.0
C1130 C 0.43844 0.56479 0.34393 0.0
C1131 C 0.41249 0.65743 0.25243 0.0
C1132 C 0.29717 0.60811 0.3543 0.0
C1133 C 0.26295 0.62898 0.33228 0.0
C1134 C 0.22999 0.60656 0.31512 0.0
C1135 C 0.2053 0.62309 0.2789 0.0
C1136 C 0.21447 0.66142 0.25935 0.0
C1137 C 0.24276 0.68637 0.28262 0.0
C1138 C 0.26734 0.66998 0.31904 0.0
C1139 C 0.39068 0.70599 0.39137 0.0
O1140 O 0.44622 0.64485 0.43697 0.0
O1141 O 0.38935 0.60599 0.42946 0.0
O1142 O 0.52509 0.62997 0.36415 0.0
O1143 O 0.50527 0.69144 0.37687 0.0
O1144 O 0.46823 0.58238 0.32107 0.0
O1145 O 0.42311 0.59071 0.37217 0.0
O1146 O 0.38132 0.64101 0.27606 0.0
O1147 O 0.44743 0.66481 0.27596 0.0
O1148 O 0.31275 0.6268 0.39196 0.0
O1149 O 0.32464 0.59562 0.32289 0.0
O1150 O 0.35728 0.68724 0.40036 0.0
O1151 O 0.40943 0.68715 0.35727 0.0
H1152 H 0.58249 0.72155 0.42853 0.0
H1153 H 0.61972 0.71479 0.50538 0.0
H1154 H 0.56433 0.59814 0.53004 0.0
H1155 H 0.5261 0.60547 0.45403 0.0
H1156 H 0.22624 0.57502 0.32532 0.0
H1157 H 0.18338 0.60357 0.2609 0.0
H1158 H 0.25029 0.71586 0.26756 0.0
H1159 H 0.29275 0.68771 0.33233 0.0
Ho1160 Ho 0.19021 0.71136 0.10587 0.0
Ho1161 Ho 0.20393 0.6214 0.10791 0.0
C1162 C 0.20994 0.66563 0.20687 0.0
C1163 C 0.17032 0.78381 0.13421 0.0
C1164 C 0.17168 0.8023 0.18425 0.0
C1165 C 0.14023 0.82747 0.20113 0.0
C1166 C 0.14393 0.84858 0.24592 0.0
C1167 C 0.17939 0.84538 0.27455 0.0
C1168 C 0.2091 0.81736 0.25939 0.0
C1169 C 0.20525 0.79596 0.21518 0.0
C1170 C 0.27038 0.68837 1.09392 0.0
C1171 C 0.17773 0.66243 1.00243 0.0
C1172 C 0.22705 0.54708 0.10428 0.0
C1173 C 0.20616 0.51286 1.08227 0.0
C1174 C 0.22857 0.47989 1.06512 0.0
C1175 C 0.21203 0.45521 1.0289 0.0
C1176 C 0.1737 0.46439 1.00935 0.0
C1177 C 0.14877 0.4927 1.03261 0.0
C1178 C 0.16517 0.51727 1.06903 0.0
C1179 C 0.12919 0.6406 0.14138 0.0
O1180 O 0.19035 0.69614 0.18698 0.0
O1181 O 0.2292 0.63925 0.17944 0.0
O1182 O 0.20519 0.77502 0.11417 0.0
O1183 O 0.14373 0.75519 0.12689 0.0
O1184 O 0.25279 0.71817 1.07107 0.0
O1185 O 0.24446 0.67303 0.12216 0.0
O1186 O 0.19415 0.63125 1.02606 0.0
O1187 O 0.17036 0.69737 1.02597 0.0
O1188 O 0.20837 0.56267 0.14195 0.0
O1189 O 0.23953 0.57456 1.07286 0.0
O1190 O 0.14794 0.60719 0.15037 0.0
O1191 O 0.14802 0.65935 0.10728 0.0
H1192 H 0.1136 0.83238 0.17858 0.0
H1193 H 0.12037 0.8696 0.25543 0.0
H1194 H 0.23704 0.81426 0.28004 0.0
H1195 H 0.22971 0.77604 0.20403 0.0
H1196 H 0.26011 0.47613 1.07532 0.0
H1197 H 0.23154 0.43327 1.01091 0.0
H1198 H 0.11928 0.50024 1.01755 0.0
H1199 H 0.14745 0.54269 1.0823 0.0
Ho1200 Ho 0.12378 0.44015 0.85586 0.0
Ho1201 Ho 0.21373 0.45387 0.85791 0.0
C1202 C 0.1695 0.45986 0.95686 0.0
C1203 C 0.05132 0.42026 0.88419 0.0
C1204 C 1.03283 0.42162 0.93423 0.0
C1205 C 1.00763 0.39017 0.95109 0.0
C1206 C 0.98652 0.39387 0.99587 0.0
C1207 C 0.98974 0.42932 1.02452 0.0
C1208 C 1.01777 0.45903 1.00938 0.0
C1209 C 1.03918 0.45518 0.96517 0.0
C1210 C 0.14677 0.52033 0.84392 0.0
C1211 C 0.17271 0.42768 0.75243 0.0
C1212 C 0.28805 0.47699 0.85429 0.0
C1213 C 0.32227 0.45612 0.83227 0.0
C1214 C 0.35523 0.47855 0.81512 0.0
C1215 C 0.37991 0.46203 0.77889 0.0
C1216 C 0.37074 0.42369 0.75934 0.0
C1217 C 0.34245 0.39875 0.78259 0.0
C1218 C 0.31787 0.41513 0.81902 0.0
C1219 C 0.19452 0.37912 0.89137 0.0
O1220 O 0.13899 0.44028 0.93697 0.0
O1221 O 0.19588 0.47913 0.92944 0.0
O1222 O 0.06011 0.45513 0.86415 0.0
O1223 O 0.07995 0.39367 0.87688 0.0
O1224 O 0.11697 0.50274 0.82107 0.0
O1225 O 0.16211 0.4944 0.87216 0.0
O1226 O 0.20389 0.4441 0.77606 0.0
O1227 O 0.13777 0.42031 0.77596 0.0
O1228 O 0.27246 0.4583 0.89195 0.0
O1229 O 0.26057 0.48948 0.82288 0.0
O1230 O 0.22793 0.39787 0.90036 0.0
O1231 O 0.17578 0.39796 0.85727 0.0
H1232 H 1.00272 0.36356 0.92852 0.0
H1233 H 0.96548 0.37032 1.00537 0.0
H1234 H 1.02088 0.48696 1.03004 0.0
H1235 H 0.05911 0.47963 0.95403 0.0
H1236 H 0.35898 0.51008 0.82532 0.0
H1237 H 0.40183 0.48154 0.7609 0.0
H1238 H 0.33492 0.36925 0.76753 0.0
H1239 H 0.29246 0.3974 0.8323 0.0
Ho1240 Ho 0.39499 0.37376 0.60586 0.0
Ho1241 Ho 0.38127 0.46371 0.60788 0.0
C1242 C 0.37528 0.41949 0.70685 0.0
C1243 C 0.41488 0.3013 0.6342 0.0
C1244 C 0.41351 0.28281 0.68424 0.0
C1245 C 0.44496 0.25762 0.70112 0.0
C1246 C 0.44125 0.23651 0.7459 0.0
C1247 C 0.40579 0.23971 0.77453 0.0
C1248 C 0.37608 0.26774 0.75937 0.0
C1249 C 0.37994 0.28915 0.71516 0.0
C1250 C 0.31482 0.39675 0.59392 0.0
C1251 C 0.40747 0.42268 0.50242 0.0
C1252 C 0.35814 0.53803 0.60421 0.0
C1253 C 0.37904 0.57224 0.58219 0.0
C1254 C 0.35664 0.60523 0.56506 0.0
C1255 C 0.37319 0.62994 0.52887 0.0
C1256 C 0.41154 0.62076 0.50937 0.0
C1257 C 0.43645 0.59241 0.53257 0.0
C1258 C 0.42003 0.56781 0.56895 0.0
C1259 C 0.45601 0.44452 0.64136 0.0
O1260 O 0.39485 0.38898 0.68697 0.0
O1261 O 0.35602 0.44587 0.67942 0.0
O1262 O 0.38001 0.31009 0.61415 0.0
O1263 O 0.44147 0.32993 0.6269 0.0
O1264 O 0.33241 0.36695 0.57107 0.0
O1265 O 0.34075 0.41209 0.62215 0.0
O1266 O 0.39104 0.45386 0.52603 0.0
O1267 O 0.41484 0.38774 0.52596 0.0
O1268 O 0.37681 0.52246 0.6419 0.0
O1269 O 0.34567 0.51054 0.5728 0.0
O1270 O 0.43727 0.47793 0.65033 0.0
O1271 O 0.43718 0.42576 0.60727 0.0
H1272 H 0.47158 0.25272 0.67857 0.0
H1273 H 0.46481 0.21548 0.75541 0.0
H1274 H 0.34814 0.27084 0.78002 0.0
H1275 H 0.35548 0.30907 0.70401 0.0
H1276 H 0.32511 0.609 0.57525 0.0
H1277 H 0.35371 0.65189 0.51089 0.0
H1278 H 0.46594 0.58486 0.5175 0.0
H1279 H 0.43773 0.54237 0.58221 0.0
loop_
_geom_bond_atom_site_label_1
_geom_bond_atom_site_label_2
_geom_bond_distance
_geom_bond_site_symmetry_2
_ccdc_geom_bond_type
Ho0 C3 2.811 . S
Ho0 O20 2.322 . S
Ho0 O22 2.378 . S
Ho0 O23 2.524 . S
Ho0 O24 2.381 . S
Ho0 O25 2.669 . S
Ho0 O27 2.346 . S
Ho0 O31 2.305 . S
Ho1 C12 2.811 . S
Ho1 O21 2.346 . S
Ho1 O25 2.305 . S
Ho1 O26 2.322 . S
Ho1 O28 2.378 . S
Ho1 O29 2.524 . S
Ho1 O30 2.381 . S
Ho1 O31 2.669 . S
C2 O20 1.259 . S
C2 O21 1.268 . S
C3 Ho0 2.811 . S
C3 C4 1.488 . S
C3 O22 1.215 . S
C3 O23 1.289 . S
C4 C3 1.488 . S
C4 C5 1.348 . S
C4 C9 1.413 . S
C5 C4 1.348 . S
C5 C6 1.442 . S
C5 H32 0.930 . S
C6 C5 1.442 . S
C6 C7 1.381 . S
C6 H33 0.931 . S
C7 C6 1.381 . S
C7 C8 1.321 . S
C8 C7 1.321 . S
C8 C9 1.403 . S
C8 H34 0.934 . S
C9 C4 1.413 . S
C9 C8 1.403 . S
C9 H35 0.930 . S
C10 O24 1.275 . S
C10 O25 1.256 . S
C11 O26 1.259 . S
C11 O27 1.268 . S
C12 Ho1 2.811 . S
C12 C13 1.488 1_455 S
C12 O28 1.215 . S
C12 O29 1.289 . S
C13 C12 1.488 1_655 S
C13 C14 1.348 . S
C13 C18 1.413 . S
C14 C13 1.348 . S
C14 C15 1.442 . S
C14 H36 0.930 1_655 S
C15 C14 1.442 . S
C15 C16 1.381 . S
C15 H37 0.931 . S
C16 C15 1.381 . S
C16 C17 1.321 . S
C17 C16 1.321 . S
C17 C18 1.403 . S
C17 H38 0.934 . S
C18 C13 1.413 . S
C18 C17 1.403 . S
C18 H39 0.930 . S
C19 O30 1.275 . S
C19 O31 1.256 . S
O20 Ho0 2.322 . S
O20 C2 1.259 . S
O21 Ho1 2.346 . S
O21 C2 1.268 . S
O22 Ho0 2.378 . S
O22 C3 1.215 . S
O23 Ho0 2.524 . S
O23 C3 1.289 . S
O24 Ho0 2.381 . S
O24 C10 1.275 . S
O25 Ho0 2.669 . S
O25 Ho1 2.305 . S
O25 C10 1.256 . S
O26 Ho1 2.322 . S
O26 C11 1.259 . S
O27 Ho0 2.346 . S
O27 C11 1.268 . S
O28 Ho1 2.378 . S
O28 C12 1.215 . S
O29 Ho1 2.524 . S
O29 C12 1.289 . S
O30 Ho1 2.381 . S
O30 C19 1.275 . S
O31 Ho0 2.305 . S
O31 Ho1 2.669 . S
O31 C19 1.256 . S
H32 C5 0.930 . S
H33 C6 0.931 . S
H34 C8 0.934 . S
H35 C9 0.930 . S
H36 C14 0.930 1_455 S
H37 C15 0.931 . S
H38 C17 0.934 . S
H39 C18 0.930 . S
Ho40 C43 2.811 . S
Ho40 O60 2.322 . S
Ho40 O62 2.378 . S
Ho40 O63 2.524 . S
Ho40 O64 2.381 . S
Ho40 O65 2.669 . S
Ho40 O67 2.346 . S
Ho40 O71 2.305 . S
Ho41 C52 2.811 . S
Ho41 O61 2.346 . S
Ho41 O65 2.305 . S
Ho41 O66 2.322 . S
Ho41 O68 2.378 . S
Ho41 O69 2.524 . S
Ho41 O70 2.381 . S
Ho41 O71 2.669 . S
C42 O60 1.259 . S
C42 O61 1.268 . S
C43 Ho40 2.811 . S
C43 C44 1.488 1_565 S
C43 O62 1.215 . S
C43 O63 1.289 . S
C44 C43 1.488 1_545 S
C44 C45 1.348 . S
C44 C49 1.413 . S
C45 C44 1.348 . S
C45 C46 1.442 . S
C45 H72 0.930 1_545 S
C46 C45 1.442 . S
C46 C47 1.381 . S
C46 H73 0.931 . S
C47 C46 1.381 . S
C47 C48 1.321 . S
C48 C47 1.321 . S
C48 C49 1.403 . S
C48 H74 0.934 . S
C49 C44 1.413 . S
C49 C48 1.403 . S
C49 H75 0.930 . S
C50 O64 1.275 . S
C50 O65 1.256 . S
C51 O66 1.259 . S
C51 O67 1.268 . S
C52 Ho41 2.811 . S
C52 C53 1.488 . S
C52 O68 1.215 . S
C52 O69 1.289 . S
C53 C52 1.488 . S
C53 C54 1.348 . S
C53 C58 1.413 . S
C54 C53 1.348 . S
C54 C55 1.442 . S
C54 H76 0.930 . S
C55 C54 1.442 . S
C55 C56 1.381 . S
C55 H77 0.931 . S
C56 C55 1.381 . S
C56 C57 1.321 . S
C57 C56 1.321 . S
C57 C58 1.403 . S
C57 H78 0.934 . S
C58 C53 1.413 . S
C58 C57 1.403 . S
C58 H79 0.930 . S
C59 O70 1.275 . S
C59 O71 1.256 . S
O60 Ho40 2.322 . S
O60 C42 1.259 . S
O61 Ho41 2.346 . S
O61 C42 1.268 . S
O62 Ho40 2.378 . S
O62 C43 1.215 . S
O63 Ho40 2.524 . S
O63 C43 1.289 . S
O64 Ho40 2.381 . S
O64 C50 1.275 . S
O65 Ho40 2.669 . S
O65 Ho41 2.305 . S
O65 C50 1.256 . S
O66 Ho41 2.322 . S
O66 C51 1.259 . S
O67 Ho40 2.346 . S
O67 C51 1.268 . S
O68 Ho41 2.378 . S
O68 C52 1.215 . S
O69 Ho41 2.524 . S
O69 C52 1.289 . S
O70 Ho41 2.381 . S
O70 C59 1.275 . S
O71 Ho40 2.305 . S
O71 Ho41 2.669 . S
O71 C59 1.256 . S
H72 C45 0.930 1_565 S
H73 C46 0.931 . S
H74 C48 0.934 . S
H75 C49 0.930 . S
H76 C54 0.930 . S
H77 C55 0.931 . S
H78 C57 0.934 . S
H79 C58 0.930 . S
Ho80 C83 2.811 . S
Ho80 O100 2.322 . S
Ho80 O102 2.378 . S
Ho80 O103 2.524 . S
Ho80 O104 2.381 . S
Ho80 O105 2.669 . S
Ho80 O107 2.346 . S
Ho80 O111 2.305 . S
Ho81 C92 2.811 . S
Ho81 O101 2.346 . S
Ho81 O105 2.305 . S
Ho81 O106 2.322 . S
Ho81 O108 2.378 . S
Ho81 O109 2.524 . S
Ho81 O110 2.381 . S
Ho81 O111 2.669 . S
C82 O100 1.259 . S
C82 O101 1.268 . S
C83 Ho80 2.811 . S
C83 C84 1.488 . S
C83 O102 1.215 . S
C83 O103 1.289 . S
C84 C83 1.488 . S
C84 C85 1.348 . S
C84 C89 1.413 . S
C85 C84 1.348 . S
C85 C86 1.442 . S
C85 H112 0.930 . S
C86 C85 1.442 . S
C86 C87 1.381 . S
C86 H113 0.931 . S
C87 C86 1.381 . S
C87 C88 1.321 . S
C88 C87 1.321 . S
C88 C89 1.403 . S
C88 H114 0.934 . S
C89 C84 1.413 . S
C89 C88 1.403 . S
C89 H115 0.930 . S
C90 O104 1.275 . S
C90 O105 1.256 . S
C91 O106 1.259 . S
C91 O107 1.268 . S
C92 Ho81 2.811 . S
C92 C93 1.488 . S
C92 O108 1.215 . S
C92 O109 1.289 . S
C93 C92 1.488 . S
C93 C94 1.348 . S
C93 C98 1.413 . S
C94 C93 1.348 . S
C94 C95 1.442 . S
C94 H116 0.930 . S
C95 C94 1.442 . S
C95 C96 1.381 . S
C95 H117 0.931 . S
C96 C95 1.381 . S
C96 C97 1.321 . S
C97 C96 1.321 . S
C97 C98 1.403 . S
C97 H118 0.934 . S
C98 C93 1.413 . S
C98 C97 1.403 . S
C98 H119 0.930 . S
C99 O110 1.275 . S
C99 O111 1.256 . S
O100 Ho80 2.322 . S
O100 C82 1.259 . S
O101 Ho81 2.346 . S
O101 C82 1.268 . S
O102 Ho80 2.378 . S
O102 C83 1.215 . S
O103 Ho80 2.524 . S
O103 C83 1.289 . S
O104 Ho80 2.381 . S
O104 C90 1.275 . S
O105 Ho80 2.669 . S
O105 Ho81 2.305 . S
O105 C90 1.256 . S
O106 Ho81 2.322 . S
O106 C91 1.259 . S
O107 Ho80 2.346 . S
O107 C91 1.268 . S
O108 Ho81 2.378 . S
O108 C92 1.215 . S
O109 Ho81 2.524 . S
O109 C92 1.289 . S
O110 Ho81 2.381 . S
O110 C99 1.275 . S
O111 Ho80 2.305 . S
O111 Ho81 2.669 . S
O111 C99 1.256 . S
H112 C85 0.930 . S
H113 C86 0.931 . S
H114 C88 0.934 . S
H115 C89 0.930 . S
H116 C94 0.930 . S
H117 C95 0.931 . S
H118 C97 0.934 . S
H119 C98 0.930 . S
Ho120 C123 2.811 1_554 S
Ho120 O140 2.322 1_554 S
Ho120 O142 2.378 1_554 S
Ho120 O143 2.524 1_554 S
Ho120 O144 2.381 . S
Ho120 O145 2.669 . S
Ho120 O147 2.346 . S
Ho120 O151 2.305 1_554 S
Ho121 C132 2.811 . S
Ho121 O141 2.346 1_554 S
Ho121 O145 2.305 . S
Ho121 O146 2.322 . S
Ho121 O148 2.378 . S
Ho121 O149 2.524 . S
Ho121 O150 2.381 1_554 S
Ho121 O151 2.669 1_554 S
C122 O140 1.259 . S
C122 O141 1.268 . S
C123 Ho120 2.811 1_556 S
C123 C124 1.488 1_545 S
C123 O142 1.215 . S
C123 O143 1.289 . S
C124 C123 1.488 1_565 S
C124 C125 1.348 . S
C124 C129 1.413 . S
C125 C124 1.348 . S
C125 C126 1.442 . S
C125 H152 0.930 1_565 S
C126 C125 1.442 . S
C126 C127 1.381 . S
C126 H153 0.931 . S
C127 C126 1.381 . S
C127 C128 1.321 . S
C128 C127 1.321 . S
C128 C129 1.403 . S
C128 H154 0.934 . S
C129 C124 1.413 . S
C129 C128 1.403 . S
C129 H155 0.930 . S
C130 O144 1.275 . S
C130 O145 1.256 . S
C131 O146 1.259 . S
C131 O147 1.268 . S
C132 Ho121 2.811 . S
C132 C133 1.488 . S
C132 O148 1.215 . S
C132 O149 1.289 . S
C133 C132 1.488 . S
C133 C134 1.348 . S
C133 C138 1.413 . S
C134 C133 1.348 . S
C134 C135 1.442 . S
C134 H156 0.930 . S
C135 C134 1.442 . S
C135 C136 1.381 . S
C135 H157 0.931 . S
C136 C135 1.381 . S
C136 C137 1.321 . S
C137 C136 1.321 . S
C137 C138 1.403 . S
C137 H158 0.934 . S
C138 C133 1.413 . S
C138 C137 1.403 . S
C138 H159 0.930 . S
C139 O150 1.275 . S
C139 O151 1.256 . S
O140 Ho120 2.322 1_556 S
O140 C122 1.259 . S
O141 Ho121 2.346 1_556 S
O141 C122 1.268 . S
O142 Ho120 2.378 1_556 S
O142 C123 1.215 . S
O143 Ho120 2.524 1_556 S
O143 C123 1.289 . S
O144 Ho120 2.381 . S
O144 C130 1.275 . S
O145 Ho120 2.669 . S
O145 Ho121 2.305 . S
O145 C130 1.256 . S
O146 Ho121 2.322 . S
O146 C131 1.259 . S
O147 Ho120 2.346 . S
O147 C131 1.268 . S
O148 Ho121 2.378 . S
O148 C132 1.215 . S
O149 Ho121 2.524 . S
O149 C132 1.289 . S
O150 Ho121 2.381 1_556 S
O150 C139 1.275 . S
O151 Ho120 2.305 1_556 S
O151 Ho121 2.669 1_556 S
O151 C139 1.256 . S
H152 C125 0.930 1_545 S
H153 C126 0.931 . S
H154 C128 0.934 . S
H155 C129 0.930 . S
H156 C134 0.930 . S
H157 C135 0.931 . S
H158 C137 0.934 . S
H159 C138 0.930 . S
Ho160 C163 2.811 . S
Ho160 O180 2.322 . S
Ho160 O182 2.378 . S
Ho160 O183 2.524 . S
Ho160 O184 2.381 . S
Ho160 O185 2.669 . S
Ho160 O187 2.346 . S
Ho160 O191 2.305 . S
Ho161 C172 2.811 . S
Ho161 O181 2.346 . S
Ho161 O185 2.305 . S
Ho161 O186 2.322 . S
Ho161 O188 2.378 . S
Ho161 O189 2.524 . S
Ho161 O190 2.381 . S
Ho161 O191 2.669 . S
C162 O180 1.259 . S
C162 O181 1.268 . S
C163 Ho160 2.811 . S
C163 C164 1.488 . S
C163 O182 1.215 . S
C163 O183 1.289 . S
C164 C163 1.488 . S
C164 C165 1.348 . S
C164 C169 1.413 . S
C165 C164 1.348 . S
C165 C166 1.442 . S
C165 H192 0.930 . S
C166 C165 1.442 . S
C166 C167 1.381 . S
C166 H193 0.931 . S
C167 C166 1.381 . S
C167 C168 1.321 . S
C168 C167 1.321 . S
C168 C169 1.403 . S
C168 H194 0.934 . S
C169 C164 1.413 . S
C169 C168 1.403 . S
C169 H195 0.930 . S
C170 O184 1.275 . S
C170 O185 1.256 . S
C171 O186 1.259 . S
C171 O187 1.268 . S
C172 Ho161 2.811 . S
C172 C173 1.488 1_455 S
C172 O188 1.215 . S
C172 O189 1.289 . S
C173 C172 1.488 1_655 S
C173 C174 1.348 . S
C173 C178 1.413 . S
C174 C173 1.348 . S
C174 C175 1.442 . S
C174 H196 0.930 1_655 S
C175 C174 1.442 . S
C175 C176 1.381 . S
C175 H197 0.931 . S
C176 C175 1.381 . S
C176 C177 1.321 . S
C177 C176 1.321 . S
C177 C178 1.403 . S
C177 H198 0.934 . S
C178 C173 1.413 . S
C178 C177 1.403 . S
C178 H199 0.930 . S
C179 O190 1.275 . S
C179 O191 1.256 . S
O180 Ho160 2.322 . S
O180 C162 1.259 . S
O181 Ho161 2.346 . S
O181 C162 1.268 . S
O182 Ho160 2.378 . S
O182 C163 1.215 . S
O183 Ho160 2.524 . S
O183 C163 1.289 . S
O184 Ho160 2.381 . S
O184 C170 1.275 . S
O185 Ho160 2.669 . S
O185 Ho161 2.305 . S
O185 C170 1.256 . S
O186 Ho161 2.322 . S
O186 C171 1.259 . S
O187 Ho160 2.346 . S
O187 C171 1.268 . S
O188 Ho161 2.378 . S
O188 C172 1.215 . S
O189 Ho161 2.524 . S
O189 C172 1.289 . S
O190 Ho161 2.381 . S
O190 C179 1.275 . S
O191 Ho160 2.305 . S
O191 Ho161 2.669 . S
O191 C179 1.256 . S
H192 C165 0.930 . S
H193 C166 0.931 . S
H194 C168 0.934 . S
H195 C169 0.930 . S
H196 C174 0.930 1_455 S
H197 C175 0.931 . S
H198 C177 0.934 . S
H199 C178 0.930 . S
Ho200 C203 2.811 . S
Ho200 O220 2.322 . S
Ho200 O222 2.378 . S
Ho200 O223 2.524 . S
Ho200 O224 2.381 . S
Ho200 O225 2.669 . S
Ho200 O227 2.346 . S
Ho200 O231 2.305 . S
Ho201 C212 2.811 . S
Ho201 O221 2.346 . S
Ho201 O225 2.305 . S
Ho201 O226 2.322 . S
Ho201 O228 2.378 . S
Ho201 O229 2.524 . S
Ho201 O230 2.381 . S
Ho201 O231 2.669 . S
C202 O220 1.259 . S
C202 O221 1.268 . S
C203 Ho200 2.811 . S
C203 C204 1.488 1_565 S
C203 O222 1.215 . S
C203 O223 1.289 . S
C204 C203 1.488 1_545 S
C204 C205 1.348 . S
C204 C209 1.413 . S
C205 C204 1.348 . S
C205 C206 1.442 . S
C205 H232 0.930 1_545 S
C206 C205 1.442 . S
C206 C207 1.381 . S
C206 H233 0.931 . S
C207 C206 1.381 . S
C207 C208 1.321 . S
C208 C207 1.321 . S
C208 C209 1.403 . S
C208 H234 0.934 . S
C209 C204 1.413 . S
C209 C208 1.403 . S
C209 H235 0.930 . S
C210 O224 1.275 . S
C210 O225 1.256 . S
C211 O226 1.259 . S
C211 O227 1.268 . S
C212 Ho201 2.811 . S
C212 C213 1.488 . S
C212 O228 1.215 . S
C212 O229 1.289 . S
C213 C212 1.488 . S
C213 C214 1.348 . S
C213 C218 1.413 . S
C214 C213 1.348 . S
C214 C215 1.442 . S
C214 H236 0.930 . S
C215 C214 1.442 . S
C215 C216 1.381 . S
C215 H237 0.931 . S
C216 C215 1.381 . S
C216 C217 1.321 . S
C217 C216 1.321 . S
C217 C218 1.403 . S
C217 H238 0.934 . S
C218 C213 1.413 . S
C218 C217 1.403 . S
C218 H239 0.930 . S
C219 O230 1.275 . S
C219 O231 1.256 . S
O220 Ho200 2.322 . S
O220 C202 1.259 . S
O221 Ho201 2.346 . S
O221 C202 1.268 . S
O222 Ho200 2.378 . S
O222 C203 1.215 . S
O223 Ho200 2.524 . S
O223 C203 1.289 . S
O224 Ho200 2.381 . S
O224 C210 1.275 . S
O225 Ho200 2.669 . S
O225 Ho201 2.305 . S
O225 C210 1.256 . S
O226 Ho201 2.322 . S
O226 C211 1.259 . S
O227 Ho200 2.346 . S
O227 C211 1.268 . S
O228 Ho201 2.378 . S
O228 C212 1.215 . S
O229 Ho201 2.524 . S
O229 C212 1.289 . S
O230 Ho201 2.381 . S
O230 C219 1.275 . S
O231 Ho200 2.305 . S
O231 Ho201 2.669 . S
O231 C219 1.256 . S
H232 C205 0.930 1_565 S
H233 C206 0.931 . S
H234 C208 0.934 . S
H235 C209 0.930 . S
H236 C214 0.930 . S
H237 C215 0.931 . S
H238 C217 0.934 . S
H239 C218 0.930 . S
Ho240 C243 2.811 . S
Ho240 O260 2.322 . S
Ho240 O262 2.378 . S
Ho240 O263 2.524 . S
Ho240 O264 2.381 . S
Ho240 O265 2.669 . S
Ho240 O267 2.346 . S
Ho240 O271 2.305 . S
Ho241 C252 2.811 . S
Ho241 O261 2.346 . S
Ho241 O265 2.305 . S
Ho241 O266 2.322 . S
Ho241 O268 2.378 . S
Ho241 O269 2.524 . S
Ho241 O270 2.381 . S
Ho241 O271 2.669 . S
C242 O260 1.259 . S
C242 O261 1.268 . S
C243 Ho240 2.811 . S
C243 C244 1.488 . S
C243 O262 1.215 . S
C243 O263 1.289 . S
C244 C243 1.488 . S
C244 C245 1.348 . S
C244 C249 1.413 . S
C245 C244 1.348 . S
C245 C246 1.442 . S
C245 H272 0.930 . S
C246 C245 1.442 . S
C246 C247 1.381 . S
C246 H273 0.931 . S
C247 C246 1.381 . S
C247 C248 1.321 . S
C248 C247 1.321 . S
C248 C249 1.403 . S
C248 H274 0.934 . S
C249 C244 1.413 . S
C249 C248 1.403 . S
C249 H275 0.930 . S
C250 O264 1.275 . S
C250 O265 1.256 . S
C251 O266 1.259 . S
C251 O267 1.268 . S
C252 Ho241 2.811 . S
C252 C253 1.488 . S
C252 O268 1.215 . S
C252 O269 1.289 . S
C253 C252 1.488 . S
C253 C254 1.348 . S
C253 C258 1.413 . S
C254 C253 1.348 . S
C254 C255 1.442 . S
C254 H276 0.930 . S
C255 C254 1.442 . S
C255 C256 1.381 . S
C255 H277 0.931 . S
C256 C255 1.381 . S
C256 C257 1.321 . S
C257 C256 1.321 . S
C257 C258 1.403 . S
C257 H278 0.934 . S
C258 C253 1.413 . S
C258 C257 1.403 . S
C258 H279 0.930 . S
C259 O270 1.275 . S
C259 O271 1.256 . S
O260 Ho240 2.322 . S
O260 C242 1.259 . S
O261 Ho241 2.346 . S
O261 C242 1.268 . S
O262 Ho240 2.378 . S
O262 C243 1.215 . S
O263 Ho240 2.524 . S
O263 C243 1.289 . S
O264 Ho240 2.381 . S
O264 C250 1.275 . S
O265 Ho240 2.669 . S
O265 Ho241 2.305 . S
O265 C250 1.256 . S
O266 Ho241 2.322 . S
O266 C251 1.259 . S
O267 Ho240 2.346 . S
O267 C251 1.268 . S
O268 Ho241 2.378 . S
O268 C252 1.215 . S
O269 Ho241 2.524 . S
O269 C252 1.289 . S
O270 Ho241 2.381 . S
O270 C259 1.275 . S
O271 Ho240 2.305 . S
O271 Ho241 2.669 . S
O271 C259 1.256 . S
H272 C245 0.930 . S
H273 C246 0.931 . S
H274 C248 0.934 . S
H275 C249 0.930 . S
H276 C254 0.930 . S
H277 C255 0.931 . S
H278 C257 0.934 . S
H279 C258 0.930 . S
Ho280 C283 2.811 1_556 S
Ho280 O300 2.322 1_556 S
Ho280 O302 2.378 1_556 S
Ho280 O303 2.524 1_556 S
Ho280 O304 2.381 . S
Ho280 O305 2.669 . S
Ho280 O307 2.346 . S
Ho280 O311 2.305 1_556 S
Ho281 C292 2.811 . S
Ho281 O301 2.346 1_556 S
Ho281 O305 2.305 . S
Ho281 O306 2.322 . S
Ho281 O308 2.378 . S
Ho281 O309 2.524 . S
Ho281 O310 2.381 1_556 S
Ho281 O311 2.669 1_556 S
C282 O300 1.259 . S
C282 O301 1.268 . S
C283 Ho280 2.811 1_554 S
C283 C284 1.488 1_545 S
C283 O302 1.215 . S
C283 O303 1.289 . S
C284 C283 1.488 1_565 S
C284 C285 1.348 . S
C284 C289 1.413 . S
C285 C284 1.348 . S
C285 C286 1.442 . S
C285 H312 0.930 1_565 S
C286 C285 1.442 . S
C286 C287 1.381 . S
C286 H313 0.931 . S
C287 C286 1.381 . S
C287 C288 1.321 . S
C288 C287 1.321 . S
C288 C289 1.403 . S
C288 H314 0.934 . S
C289 C284 1.413 . S
C289 C288 1.403 . S
C289 H315 0.930 . S
C290 O304 1.275 . S
C290 O305 1.256 . S
C291 O306 1.259 . S
C291 O307 1.268 . S
C292 Ho281 2.811 . S
C292 C293 1.488 . S
C292 O308 1.215 . S
C292 O309 1.289 . S
C293 C292 1.488 . S
C293 C294 1.348 . S
C293 C298 1.413 . S
C294 C293 1.348 . S
C294 C295 1.442 . S
C294 H316 0.930 . S
C295 C294 1.442 . S
C295 C296 1.381 . S
C295 H317 0.931 . S
C296 C295 1.381 . S
C296 C297 1.321 . S
C297 C296 1.321 . S
C297 C298 1.403 . S
C297 H318 0.934 . S
C298 C293 1.413 . S
C298 C297 1.403 . S
C298 H319 0.930 . S
C299 O310 1.275 . S
C299 O311 1.256 . S
O300 Ho280 2.322 1_554 S
O300 C282 1.259 . S
O301 Ho281 2.346 1_554 S
O301 C282 1.268 . S
O302 Ho280 2.378 1_554 S
O302 C283 1.215 . S
O303 Ho280 2.524 1_554 S
O303 C283 1.289 . S
O304 Ho280 2.381 . S
O304 C290 1.275 . S
O305 Ho280 2.669 . S
O305 Ho281 2.305 . S
O305 C290 1.256 . S
O306 Ho281 2.322 . S
O306 C291 1.259 . S
O307 Ho280 2.346 . S
O307 C291 1.268 . S
O308 Ho281 2.378 . S
O308 C292 1.215 . S
O309 Ho281 2.524 . S
O309 C292 1.289 . S
O310 Ho281 2.381 1_554 S
O310 C299 1.275 . S
O311 Ho280 2.305 1_554 S
O311 Ho281 2.669 1_554 S
O311 C299 1.256 . S
H312 C285 0.930 1_545 S
H313 C286 0.931 . S
H314 C288 0.934 . S
H315 C289 0.930 . S
H316 C294 0.930 . S
H317 C295 0.931 . S
H318 C297 0.934 . S
H319 C298 0.930 . S
Ho320 C323 2.811 . S
Ho320 O340 2.322 . S
Ho320 O342 2.378 . S
Ho320 O343 2.524 . S
Ho320 O344 2.381 . S
Ho320 O345 2.669 . S
Ho320 O347 2.346 . S
Ho320 O351 2.305 . S
Ho321 C332 2.811 . S
Ho321 O341 2.346 . S
Ho321 O345 2.305 . S
Ho321 O346 2.322 . S
Ho321 O348 2.378 . S
Ho321 O349 2.524 . S
Ho321 O350 2.381 . S
Ho321 O351 2.669 . S
C322 O340 1.259 . S
C322 O341 1.268 . S
C323 Ho320 2.811 . S
C323 C324 1.488 1_655 S
C323 O342 1.215 . S
C323 O343 1.289 . S
C324 C323 1.488 1_455 S
C324 C325 1.348 . S
C324 C329 1.413 . S
C325 C324 1.348 . S
C325 C326 1.442 . S
C325 H352 0.930 1_455 S
C326 C325 1.442 . S
C326 C327 1.381 . S
C326 H353 0.931 . S
C327 C326 1.381 . S
C327 C328 1.321 . S
C328 C327 1.321 . S
C328 C329 1.403 . S
C328 H354 0.934 . S
C329 C324 1.413 . S
C329 C328 1.403 . S
C329 H355 0.930 . S
C330 O344 1.275 . S
C330 O345 1.256 . S
C331 O346 1.259 . S
C331 O347 1.268 . S
C332 Ho321 2.811 . S
C332 C333 1.488 . S
C332 O348 1.215 . S
C332 O349 1.289 . S
C333 C332 1.488 . S
C333 C334 1.348 . S
C333 C338 1.413 . S
C334 C333 1.348 . S
C334 C335 1.442 . S
C334 H356 0.930 . S
C335 C334 1.442 . S
C335 C336 1.381 . S
C335 H357 0.931 . S
C336 C335 1.381 . S
C336 C337 1.321 . S
C337 C336 1.321 . S
C337 C338 1.403 . S
C337 H358 0.934 . S
C338 C333 1.413 . S
C338 C337 1.403 . S
C338 H359 0.930 . S
C339 O350 1.275 . S
C339 O351 1.256 . S
O340 Ho320 2.322 . S
O340 C322 1.259 . S
O341 Ho321 2.346 . S
O341 C322 1.268 . S
O342 Ho320 2.378 . S
O342 C323 1.215 . S
O343 Ho320 2.524 . S
O343 C323 1.289 . S
O344 Ho320 2.381 . S
O344 C330 1.275 . S
O345 Ho320 2.669 . S
O345 Ho321 2.305 . S
O345 C330 1.256 . S
O346 Ho321 2.322 . S
O346 C331 1.259 . S
O347 Ho320 2.346 . S
O347 C331 1.268 . S
O348 Ho321 2.378 . S
O348 C332 1.215 . S
O349 Ho321 2.524 . S
O349 C332 1.289 . S
O350 Ho321 2.381 . S
O350 C339 1.275 . S
O351 Ho320 2.305 . S
O351 Ho321 2.669 . S
O351 C339 1.256 . S
H352 C325 0.930 1_655 S
H353 C326 0.931 . S
H354 C328 0.934 . S
H355 C329 0.930 . S
H356 C334 0.930 . S
H357 C335 0.931 . S
H358 C337 0.934 . S
H359 C338 0.930 . S
Ho360 C363 2.811 . S
Ho360 O380 2.322 . S
Ho360 O382 2.378 . S
Ho360 O383 2.524 . S
Ho360 O384 2.381 . S
Ho360 O385 2.669 . S
Ho360 O387 2.346 . S
Ho360 O391 2.305 . S
Ho361 C372 2.811 . S
Ho361 O381 2.346 . S
Ho361 O385 2.305 . S
Ho361 O386 2.322 . S
Ho361 O388 2.378 . S
Ho361 O389 2.524 . S
Ho361 O390 2.381 . S
Ho361 O391 2.669 . S
C362 O380 1.259 . S
C362 O381 1.268 . S
C363 Ho360 2.811 . S
C363 C364 1.488 . S
C363 O382 1.215 . S
C363 O383 1.289 . S
C364 C363 1.488 . S
C364 C365 1.348 . S
C364 C369 1.413 . S
C365 C364 1.348 . S
C365 C366 1.442 . S
C365 H392 0.930 . S
C366 C365 1.442 . S
C366 C367 1.381 . S
C366 H393 0.931 . S
C367 C366 1.381 . S
C367 C368 1.321 . S
C368 C367 1.321 . S
C368 C369 1.403 . S
C368 H394 0.934 . S
C369 C364 1.413 . S
C369 C368 1.403 . S
C369 H395 0.930 . S
C370 O384 1.275 . S
C370 O385 1.256 . S
C371 O386 1.259 . S
C371 O387 1.268 . S
C372 Ho361 2.811 . S
C372 C373 1.488 1_545 S
C372 O388 1.215 . S
C372 O389 1.289 . S
C373 C372 1.488 1_565 S
C373 C374 1.348 . S
C373 C378 1.413 . S
C374 C373 1.348 . S
C374 C375 1.442 . S
C374 H396 0.930 1_565 S
C375 C374 1.442 . S
C375 C376 1.381 . S
C375 H397 0.931 . S
C376 C375 1.381 . S
C376 C377 1.321 . S
C377 C376 1.321 . S
C377 C378 1.403 . S
C377 H398 0.934 . S
C378 C373 1.413 . S
C378 C377 1.403 . S
C378 H399 0.930 . S
C379 O390 1.275 . S
C379 O391 1.256 . S
O380 Ho360 2.322 . S
O380 C362 1.259 . S
O381 Ho361 2.346 . S
O381 C362 1.268 . S
O382 Ho360 2.378 . S
O382 C363 1.215 . S
O383 Ho360 2.524 . S
O383 C363 1.289 . S
O384 Ho360 2.381 . S
O384 C370 1.275 . S
O385 Ho360 2.669 . S
O385 Ho361 2.305 . S
O385 C370 1.256 . S
O386 Ho361 2.322 . S
O386 C371 1.259 . S
O387 Ho360 2.346 . S
O387 C371 1.268 . S
O388 Ho361 2.378 . S
O388 C372 1.215 . S
O389 Ho361 2.524 . S
O389 C372 1.289 . S
O390 Ho361 2.381 . S
O390 C379 1.275 . S
O391 Ho360 2.305 . S
O391 Ho361 2.669 . S
O391 C379 1.256 . S
H392 C365 0.930 . S
H393 C366 0.931 . S
H394 C368 0.934 . S
H395 C369 0.930 . S
H396 C374 0.930 1_545 S
H397 C375 0.931 . S
H398 C377 0.934 . S
H399 C378 0.930 . S
Ho400 C403 2.811 . S
Ho400 O420 2.322 . S
Ho400 O422 2.378 . S
Ho400 O423 2.524 . S
Ho400 O424 2.381 . S
Ho400 O425 2.669 . S
Ho400 O427 2.346 . S
Ho400 O431 2.305 . S
Ho401 C412 2.811 . S
Ho401 O421 2.346 . S
Ho401 O425 2.305 . S
Ho401 O426 2.322 . S
Ho401 O428 2.378 . S
Ho401 O429 2.524 . S
Ho401 O430 2.381 . S
Ho401 O431 2.669 . S
C402 O420 1.259 . S
C402 O421 1.268 . S
C403 Ho400 2.811 . S
C403 C404 1.488 . S
C403 O422 1.215 . S
C403 O423 1.289 . S
C404 C403 1.488 . S
C404 C405 1.348 . S
C404 C409 1.413 . S
C405 C404 1.348 . S
C405 C406 1.442 . S
C405 H432 0.930 . S
C406 C405 1.442 . S
C406 C407 1.381 . S
C406 H433 0.931 . S
C407 C406 1.381 . S
C407 C408 1.321 . S
C408 C407 1.321 . S
C408 C409 1.403 . S
C408 H434 0.934 . S
C409 C404 1.413 . S
C409 C408 1.403 . S
C409 H435 0.930 . S
C410 O424 1.275 . S
C410 O425 1.256 . S
C411 O426 1.259 . S
C411 O427 1.268 . S
C412 Ho401 2.811 . S
C412 C413 1.488 . S
C412 O428 1.215 . S
C412 O429 1.289 . S
C413 C412 1.488 . S
C413 C414 1.348 . S
C413 C418 1.413 . S
C414 C413 1.348 . S
C414 C415 1.442 . S
C414 H436 0.930 . S
C415 C414 1.442 . S
C415 C416 1.381 . S
C415 H437 0.931 . S
C416 C415 1.381 . S
C416 C417 1.321 . S
C417 C416 1.321 . S
C417 C418 1.403 . S
C417 H438 0.934 . S
C418 C413 1.413 . S
C418 C417 1.403 . S
C418 H439 0.930 . S
C419 O430 1.275 . S
C419 O431 1.256 . S
O420 Ho400 2.322 . S
O420 C402 1.259 . S
O421 Ho401 2.346 . S
O421 C402 1.268 . S
O422 Ho400 2.378 . S
O422 C403 1.215 . S
O423 Ho400 2.524 . S
O423 C403 1.289 . S
O424 Ho400 2.381 . S
O424 C410 1.275 . S
O425 Ho400 2.669 . S
O425 Ho401 2.305 . S
O425 C410 1.256 . S
O426 Ho401 2.322 . S
O426 C411 1.259 . S
O427 Ho400 2.346 . S
O427 C411 1.268 . S
O428 Ho401 2.378 . S
O428 C412 1.215 . S
O429 Ho401 2.524 . S
O429 C412 1.289 . S
O430 Ho401 2.381 . S
O430 C419 1.275 . S
O431 Ho400 2.305 . S
O431 Ho401 2.669 . S
O431 C419 1.256 . S
H432 C405 0.930 . S
H433 C406 0.931 . S
H434 C408 0.934 . S
H435 C409 0.930 . S
H436 C414 0.930 . S
H437 C415 0.931 . S
H438 C417 0.934 . S
H439 C418 0.930 . S
Ho440 C443 2.811 . S
Ho440 O460 2.322 . S
Ho440 O462 2.378 . S
Ho440 O463 2.524 . S
Ho440 O464 2.381 1_556 S
Ho440 O465 2.669 1_556 S
Ho440 O467 2.346 1_556 S
Ho440 O471 2.305 . S
Ho441 C452 2.811 1_556 S
Ho441 O461 2.346 . S
Ho441 O465 2.305 1_556 S
Ho441 O466 2.322 1_556 S
Ho441 O468 2.378 1_556 S
Ho441 O469 2.524 1_556 S
Ho441 O470 2.381 . S
Ho441 O471 2.669 . S
C442 O460 1.259 . S
C442 O461 1.268 . S
C443 Ho440 2.811 . S
C443 C444 1.488 . S
C443 O462 1.215 . S
C443 O463 1.289 . S
C444 C443 1.488 . S
C444 C445 1.348 . S
C444 C449 1.413 . S
C445 C444 1.348 . S
C445 C446 1.442 . S
C445 H472 0.930 . S
C446 C445 1.442 . S
C446 C447 1.381 . S
C446 H473 0.931 . S
C447 C446 1.381 . S
C447 C448 1.321 . S
C448 C447 1.321 . S
C448 C449 1.403 . S
C448 H474 0.934 . S
C449 C444 1.413 . S
C449 C448 1.403 . S
C449 H475 0.930 . S
C450 O464 1.275 . S
C450 O465 1.256 . S
C451 O466 1.259 . S
C451 O467 1.268 . S
C452 Ho441 2.811 1_554 S
C452 C453 1.488 1_565 S
C452 O468 1.215 . S
C452 O469 1.289 . S
C453 C452 1.488 1_545 S
C453 C454 1.348 . S
C453 C458 1.413 . S
C454 C453 1.348 . S
C454 C455 1.442 . S
C454 H476 0.930 1_545 S
C455 C454 1.442 . S
C455 C456 1.381 . S
C455 H477 0.931 . S
C456 C455 1.381 . S
C456 C457 1.321 . S
C457 C456 1.321 . S
C457 C458 1.403 . S
C457 H478 0.934 . S
C458 C453 1.413 . S
C458 C457 1.403 . S
C458 H479 0.930 . S
C459 O470 1.275 . S
C459 O471 1.256 . S
O460 Ho440 2.322 . S
O460 C442 1.259 . S
O461 Ho441 2.346 . S
O461 C442 1.268 . S
O462 Ho440 2.378 . S
O462 C443 1.215 . S
O463 Ho440 2.524 . S
O463 C443 1.289 . S
O464 Ho440 2.381 1_554 S
O464 C450 1.275 . S
O465 Ho440 2.669 1_554 S
O465 Ho441 2.305 1_554 S
O465 C450 1.256 . S
O466 Ho441 2.322 1_554 S
O466 C451 1.259 . S
O467 Ho440 2.346 1_554 S
O467 C451 1.268 . S
O468 Ho441 2.378 1_554 S
O468 C452 1.215 . S
O469 Ho441 2.524 1_554 S
O469 C452 1.289 . S
O470 Ho441 2.381 . S
O470 C459 1.275 . S
O471 Ho440 2.305 . S
O471 Ho441 2.669 . S
O471 C459 1.256 . S
H472 C445 0.930 . S
H473 C446 0.931 . S
H474 C448 0.934 . S
H475 C449 0.930 . S
H476 C454 0.930 1_565 S
H477 C455 0.931 . S
H478 C457 0.934 . S
H479 C458 0.930 . S
Ho480 C483 2.811 . S
Ho480 O500 2.322 . S
Ho480 O502 2.378 . S
Ho480 O503 2.524 . S
Ho480 O504 2.381 . S
Ho480 O505 2.669 . S
Ho480 O507 2.346 . S
Ho480 O511 2.305 . S
Ho481 C492 2.811 . S
Ho481 O501 2.346 . S
Ho481 O505 2.305 . S
Ho481 O506 2.322 . S
Ho481 O508 2.378 . S
Ho481 O509 2.524 . S
Ho481 O510 2.381 . S
Ho481 O511 2.669 . S
C482 O500 1.259 . S
C482 O501 1.268 . S
C483 Ho480 2.811 . S
C483 C484 1.488 1_655 S
C483 O502 1.215 . S
C483 O503 1.289 . S
C484 C483 1.488 1_455 S
C484 C485 1.348 . S
C484 C489 1.413 . S
C485 C484 1.348 . S
C485 C486 1.442 . S
C485 H512 0.930 1_455 S
C486 C485 1.442 . S
C486 C487 1.381 . S
C486 H513 0.931 . S
C487 C486 1.381 . S
C487 C488 1.321 . S
C488 C487 1.321 . S
C488 C489 1.403 . S
C488 H514 0.934 . S
C489 C484 1.413 . S
C489 C488 1.403 . S
C489 H515 0.930 . S
C490 O504 1.275 . S
C490 O505 1.256 . S
C491 O506 1.259 . S
C491 O507 1.268 . S
C492 Ho481 2.811 . S
C492 C493 1.488 . S
C492 O508 1.215 . S
C492 O509 1.289 . S
C493 C492 1.488 . S
C493 C494 1.348 . S
C493 C498 1.413 . S
C494 C493 1.348 . S
C494 C495 1.442 . S
C494 H516 0.930 . S
C495 C494 1.442 . S
C495 C496 1.381 . S
C495 H517 0.931 . S
C496 C495 1.381 . S
C496 C497 1.321 . S
C497 C496 1.321 . S
C497 C498 1.403 . S
C497 H518 0.934 . S
C498 C493 1.413 . S
C498 C497 1.403 . S
C498 H519 0.930 . S
C499 O510 1.275 . S
C499 O511 1.256 . S
O500 Ho480 2.322 . S
O500 C482 1.259 . S
O501 Ho481 2.346 . S
O501 C482 1.268 . S
O502 Ho480 2.378 . S
O502 C483 1.215 . S
O503 Ho480 2.524 . S
O503 C483 1.289 . S
O504 Ho480 2.381 . S
O504 C490 1.275 . S
O505 Ho480 2.669 . S
O505 Ho481 2.305 . S
O505 C490 1.256 . S
O506 Ho481 2.322 . S
O506 C491 1.259 . S
O507 Ho480 2.346 . S
O507 C491 1.268 . S
O508 Ho481 2.378 . S
O508 C492 1.215 . S
O509 Ho481 2.524 . S
O509 C492 1.289 . S
O510 Ho481 2.381 . S
O510 C499 1.275 . S
O511 Ho480 2.305 . S
O511 Ho481 2.669 . S
O511 C499 1.256 . S
H512 C485 0.930 1_655 S
H513 C486 0.931 . S
H514 C488 0.934 . S
H515 C489 0.930 . S
H516 C494 0.930 . S
H517 C495 0.931 . S
H518 C497 0.934 . S
H519 C498 0.930 . S
Ho520 C523 2.811 . S
Ho520 O540 2.322 . S
Ho520 O542 2.378 . S
Ho520 O543 2.524 . S
Ho520 O544 2.381 . S
Ho520 O545 2.669 . S
Ho520 O547 2.346 . S
Ho520 O551 2.305 . S
Ho521 C532 2.811 . S
Ho521 O541 2.346 . S
Ho521 O545 2.305 . S
Ho521 O546 2.322 . S
Ho521 O548 2.378 . S
Ho521 O549 2.524 . S
Ho521 O550 2.381 . S
Ho521 O551 2.669 . S
C522 O540 1.259 . S
C522 O541 1.268 . S
C523 Ho520 2.811 . S
C523 C524 1.488 . S
C523 O542 1.215 . S
C523 O543 1.289 . S
C524 C523 1.488 . S
C524 C525 1.348 . S
C524 C529 1.413 . S
C525 C524 1.348 . S
C525 C526 1.442 . S
C525 H552 0.930 . S
C526 C525 1.442 . S
C526 C527 1.381 . S
C526 H553 0.931 . S
C527 C526 1.381 . S
C527 C528 1.321 . S
C528 C527 1.321 . S
C528 C529 1.403 . S
C528 H554 0.934 . S
C529 C524 1.413 . S
C529 C528 1.403 . S
C529 H555 0.930 . S
C530 O544 1.275 . S
C530 O545 1.256 . S
C531 O546 1.259 . S
C531 O547 1.268 . S
C532 Ho521 2.811 . S
C532 C533 1.488 1_545 S
C532 O548 1.215 . S
C532 O549 1.289 . S
C533 C532 1.488 1_565 S
C533 C534 1.348 . S
C533 C538 1.413 . S
C534 C533 1.348 . S
C534 C535 1.442 . S
C534 H556 0.930 1_565 S
C535 C534 1.442 . S
C535 C536 1.381 . S
C535 H557 0.931 . S
C536 C535 1.381 . S
C536 C537 1.321 . S
C537 C536 1.321 . S
C537 C538 1.403 . S
C537 H558 0.934 . S
C538 C533 1.413 . S
C538 C537 1.403 . S
C538 H559 0.930 . S
C539 O550 1.275 . S
C539 O551 1.256 . S
O540 Ho520 2.322 . S
O540 C522 1.259 . S
O541 Ho521 2.346 . S
O541 C522 1.268 . S
O542 Ho520 2.378 . S
O542 C523 1.215 . S
O543 Ho520 2.524 . S
O543 C523 1.289 . S
O544 Ho520 2.381 . S
O544 C530 1.275 . S
O545 Ho520 2.669 . S
O545 Ho521 2.305 . S
O545 C530 1.256 . S
O546 Ho521 2.322 . S
O546 C531 1.259 . S
O547 Ho520 2.346 . S
O547 C531 1.268 . S
O548 Ho521 2.378 . S
O548 C532 1.215 . S
O549 Ho521 2.524 . S
O549 C532 1.289 . S
O550 Ho521 2.381 . S
O550 C539 1.275 . S
O551 Ho520 2.305 . S
O551 Ho521 2.669 . S
O551 C539 1.256 . S
H552 C525 0.930 . S
H553 C526 0.931 . S
H554 C528 0.934 . S
H555 C529 0.930 . S
H556 C534 0.930 1_545 S
H557 C535 0.931 . S
H558 C537 0.934 . S
H559 C538 0.930 . S
Ho560 C563 2.811 . S
Ho560 O580 2.322 . S
Ho560 O582 2.378 . S
Ho560 O583 2.524 . S
Ho560 O584 2.381 . S
Ho560 O585 2.669 . S
Ho560 O587 2.346 . S
Ho560 O591 2.305 . S
Ho561 C572 2.811 . S
Ho561 O581 2.346 . S
Ho561 O585 2.305 . S
Ho561 O586 2.322 . S
Ho561 O588 2.378 . S
Ho561 O589 2.524 . S
Ho561 O590 2.381 . S
Ho561 O591 2.669 . S
C562 O580 1.259 . S
C562 O581 1.268 . S
C563 Ho560 2.811 . S
C563 C564 1.488 . S
C563 O582 1.215 . S
C563 O583 1.289 . S
C564 C563 1.488 . S
C564 C565 1.348 . S
C564 C569 1.413 . S
C565 C564 1.348 . S
C565 C566 1.442 . S
C565 H592 0.930 . S
C566 C565 1.442 . S
C566 C567 1.381 . S
C566 H593 0.931 . S
C567 C566 1.381 . S
C567 C568 1.321 . S
C568 C567 1.321 . S
C568 C569 1.403 . S
C568 H594 0.934 . S
C569 C564 1.413 . S
C569 C568 1.403 . S
C569 H595 0.930 . S
C570 O584 1.275 . S
C570 O585 1.256 . S
C571 O586 1.259 . S
C571 O587 1.268 . S
C572 Ho561 2.811 . S
C572 C573 1.488 . S
C572 O588 1.215 . S
C572 O589 1.289 . S
C573 C572 1.488 . S
C573 C574 1.348 . S
C573 C578 1.413 . S
C574 C573 1.348 . S
C574 C575 1.442 . S
C574 H596 0.930 . S
C575 C574 1.442 . S
C575 C576 1.381 . S
C575 H597 0.931 . S
C576 C575 1.381 . S
C576 C577 1.321 . S
C577 C576 1.321 . S
C577 C578 1.403 . S
C577 H598 0.934 . S
C578 C573 1.413 . S
C578 C577 1.403 . S
C578 H599 0.930 . S
C579 O590 1.275 . S
C579 O591 1.256 . S
O580 Ho560 2.322 . S
O580 C562 1.259 . S
O581 Ho561 2.346 . S
O581 C562 1.268 . S
O582 Ho560 2.378 . S
O582 C563 1.215 . S
O583 Ho560 2.524 . S
O583 C563 1.289 . S
O584 Ho560 2.381 . S
O584 C570 1.275 . S
O585 Ho560 2.669 . S
O585 Ho561 2.305 . S
O585 C570 1.256 . S
O586 Ho561 2.322 . S
O586 C571 1.259 . S
O587 Ho560 2.346 . S
O587 C571 1.268 . S
O588 Ho561 2.378 . S
O588 C572 1.215 . S
O589 Ho561 2.524 . S
O589 C572 1.289 . S
O590 Ho561 2.381 . S
O590 C579 1.275 . S
O591 Ho560 2.305 . S
O591 Ho561 2.669 . S
O591 C579 1.256 . S
H592 C565 0.930 . S
H593 C566 0.931 . S
H594 C568 0.934 . S
H595 C569 0.930 . S
H596 C574 0.930 . S
H597 C575 0.931 . S
H598 C577 0.934 . S
H599 C578 0.930 . S
Ho600 C603 2.811 . S
Ho600 O620 2.322 . S
Ho600 O622 2.378 . S
Ho600 O623 2.524 . S
Ho600 O624 2.381 1_554 S
Ho600 O625 2.669 1_554 S
Ho600 O627 2.346 1_554 S
Ho600 O631 2.305 . S
Ho601 C612 2.811 1_554 S
Ho601 O621 2.346 . S
Ho601 O625 2.305 1_554 S
Ho601 O626 2.322 1_554 S
Ho601 O628 2.378 1_554 S
Ho601 O629 2.524 1_554 S
Ho601 O630 2.381 . S
Ho601 O631 2.669 . S
C602 O620 1.259 . S
C602 O621 1.268 . S
C603 Ho600 2.811 . S
C603 C604 1.488 . S
C603 O622 1.215 . S
C603 O623 1.289 . S
C604 C603 1.488 . S
C604 C605 1.348 . S
C604 C609 1.413 . S
C605 C604 1.348 . S
C605 C606 1.442 . S
C605 H632 0.930 . S
C606 C605 1.442 . S
C606 C607 1.381 . S
C606 H633 0.931 . S
C607 C606 1.381 . S
C607 C608 1.321 . S
C608 C607 1.321 . S
C608 C609 1.403 . S
C608 H634 0.934 . S
C609 C604 1.413 . S
C609 C608 1.403 . S
C609 H635 0.930 . S
C610 O624 1.275 . S
C610 O625 1.256 . S
C611 O626 1.259 . S
C611 O627 1.268 . S
C612 Ho601 2.811 1_556 S
C612 C613 1.488 1_565 S
C612 O628 1.215 . S
C612 O629 1.289 . S
C613 C612 1.488 1_545 S
C613 C614 1.348 . S
C613 C618 1.413 . S
C614 C613 1.348 . S
C614 C615 1.442 . S
C614 H636 0.930 1_545 S
C615 C614 1.442 . S
C615 C616 1.381 . S
C615 H637 0.931 . S
C616 C615 1.381 . S
C616 C617 1.321 . S
C617 C616 1.321 . S
C617 C618 1.403 . S
C617 H638 0.934 . S
C618 C613 1.413 . S
C618 C617 1.403 . S
C618 H639 0.930 . S
C619 O630 1.275 . S
C619 O631 1.256 . S
O620 Ho600 2.322 . S
O620 C602 1.259 . S
O621 Ho601 2.346 . S
O621 C602 1.268 . S
O622 Ho600 2.378 . S
O622 C603 1.215 . S
O623 Ho600 2.524 . S
O623 C603 1.289 . S
O624 Ho600 2.381 1_556 S
O624 C610 1.275 . S
O625 Ho600 2.669 1_556 S
O625 Ho601 2.305 1_556 S
O625 C610 1.256 . S
O626 Ho601 2.322 1_556 S
O626 C611 1.259 . S
O627 Ho600 2.346 1_556 S
O627 C611 1.268 . S
O628 Ho601 2.378 1_556 S
O628 C612 1.215 . S
O629 Ho601 2.524 1_556 S
O629 C612 1.289 . S
O630 Ho601 2.381 . S
O630 C619 1.275 . S
O631 Ho600 2.305 . S
O631 Ho601 2.669 . S
O631 C619 1.256 . S
H632 C605 0.930 . S
H633 C606 0.931 . S
H634 C608 0.934 . S
H635 C609 0.930 . S
H636 C614 0.930 1_565 S
H637 C615 0.931 . S
H638 C617 0.934 . S
H639 C618 0.930 . S
Ho640 C643 2.811 . S
Ho640 O660 2.322 . S
Ho640 O662 2.378 . S
Ho640 O663 2.524 . S
Ho640 O664 2.381 . S
Ho640 O665 2.669 . S
Ho640 O667 2.346 . S
Ho640 O671 2.305 . S
Ho641 C652 2.811 . S
Ho641 O661 2.346 . S
Ho641 O665 2.305 . S
Ho641 O666 2.322 . S
Ho641 O668 2.378 . S
Ho641 O669 2.524 . S
Ho641 O670 2.381 . S
Ho641 O671 2.669 . S
C642 O660 1.259 . S
C642 O661 1.268 . S
C643 Ho640 2.811 . S
C643 C644 1.488 . S
C643 O662 1.215 . S
C643 O663 1.289 . S
C644 C643 1.488 . S
C644 C645 1.348 . S
C644 C649 1.413 . S
C645 C644 1.348 . S
C645 C646 1.442 . S
C645 H672 0.930 . S
C646 C645 1.442 . S
C646 C647 1.381 . S
C646 H673 0.931 . S
C647 C646 1.381 . S
C647 C648 1.321 . S
C648 C647 1.321 . S
C648 C649 1.403 . S
C648 H674 0.934 . S
C649 C644 1.413 . S
C649 C648 1.403 . S
C649 H675 0.930 . S
C650 O664 1.275 . S
C650 O665 1.256 . S
C651 O666 1.259 . S
C651 O667 1.268 . S
C652 Ho641 2.811 . S
C652 C653 1.488 . S
C652 O668 1.215 . S
C652 O669 1.289 . S
C653 C652 1.488 . S
C653 C654 1.348 . S
C653 C658 1.413 . S
C654 C653 1.348 . S
C654 C655 1.442 . S
C654 H676 0.930 . S
C655 C654 1.442 . S
C655 C656 1.381 . S
C655 H677 0.931 . S
C656 C655 1.381 . S
C656 C657 1.321 . S
C657 C656 1.321 . S
C657 C658 1.403 . S
C657 H678 0.934 . S
C658 C653 1.413 . S
C658 C657 1.403 . S
C658 H679 0.930 . S
C659 O670 1.275 . S
C659 O671 1.256 . S
O660 Ho640 2.322 . S
O660 C642 1.259 . S
O661 Ho641 2.346 . S
O661 C642 1.268 . S
O662 Ho640 2.378 . S
O662 C643 1.215 . S
O663 Ho640 2.524 . S
O663 C643 1.289 . S
O664 Ho640 2.381 . S
O664 C650 1.275 . S
O665 Ho640 2.669 . S
O665 Ho641 2.305 . S
O665 C650 1.256 . S
O666 Ho641 2.322 . S
O666 C651 1.259 . S
O667 Ho640 2.346 . S
O667 C651 1.268 . S
O668 Ho641 2.378 . S
O668 C652 1.215 . S
O669 Ho641 2.524 . S
O669 C652 1.289 . S
O670 Ho641 2.381 . S
O670 C659 1.275 . S
O671 Ho640 2.305 . S
O671 Ho641 2.669 . S
O671 C659 1.256 . S
H672 C645 0.930 . S
H673 C646 0.931 . S
H674 C648 0.934 . S
H675 C649 0.930 . S
H676 C654 0.930 . S
H677 C655 0.931 . S
H678 C657 0.934 . S
H679 C658 0.930 . S
Ho680 C683 2.811 1_554 S
Ho680 O700 2.322 1_554 S
Ho680 O702 2.378 1_554 S
Ho680 O703 2.524 1_554 S
Ho680 O704 2.381 . S
Ho680 O705 2.669 . S
Ho680 O707 2.346 . S
Ho680 O711 2.305 1_554 S
Ho681 C692 2.811 . S
Ho681 O701 2.346 1_554 S
Ho681 O705 2.305 . S
Ho681 O706 2.322 . S
Ho681 O708 2.378 . S
Ho681 O709 2.524 . S
Ho681 O710 2.381 1_554 S
Ho681 O711 2.669 1_554 S
C682 O700 1.259 . S
C682 O701 1.268 . S
C683 Ho680 2.811 1_556 S
C683 C684 1.488 . S
C683 O702 1.215 . S
C683 O703 1.289 . S
C684 C683 1.488 . S
C684 C685 1.348 . S
C684 C689 1.413 . S
C685 C684 1.348 . S
C685 C686 1.442 . S
C685 H712 0.930 . S
C686 C685 1.442 . S
C686 C687 1.381 . S
C686 H713 0.931 . S
C687 C686 1.381 . S
C687 C688 1.321 . S
C688 C687 1.321 . S
C688 C689 1.403 . S
C688 H714 0.934 . S
C689 C684 1.413 . S
C689 C688 1.403 . S
C689 H715 0.930 . S
C690 O704 1.275 . S
C690 O705 1.256 . S
C691 O706 1.259 . S
C691 O707 1.268 . S
C692 Ho681 2.811 . S
C692 C693 1.488 . S
C692 O708 1.215 . S
C692 O709 1.289 . S
C693 C692 1.488 . S
C693 C694 1.348 . S
C693 C698 1.413 . S
C694 C693 1.348 . S
C694 C695 1.442 . S
C694 H716 0.930 . S
C695 C694 1.442 . S
C695 C696 1.381 . S
C695 H717 0.931 . S
C696 C695 1.381 . S
C696 C697 1.321 . S
C697 C696 1.321 . S
C697 C698 1.403 . S
C697 H718 0.934 . S
C698 C693 1.413 . S
C698 C697 1.403 . S
C698 H719 0.930 . S
C699 O710 1.275 . S
C699 O711 1.256 . S
O700 Ho680 2.322 1_556 S
O700 C682 1.259 . S
O701 Ho681 2.346 1_556 S
O701 C682 1.268 . S
O702 Ho680 2.378 1_556 S
O702 C683 1.215 . S
O703 Ho680 2.524 1_556 S
O703 C683 1.289 . S
O704 Ho680 2.381 . S
O704 C690 1.275 . S
O705 Ho680 2.669 . S
O705 Ho681 2.305 . S
O705 C690 1.256 . S
O706 Ho681 2.322 . S
O706 C691 1.259 . S
O707 Ho680 2.346 . S
O707 C691 1.268 . S
O708 Ho681 2.378 . S
O708 C692 1.215 . S
O709 Ho681 2.524 . S
O709 C692 1.289 . S
O710 Ho681 2.381 1_556 S
O710 C699 1.275 . S
O711 Ho680 2.305 1_556 S
O711 Ho681 2.669 1_556 S
O711 C699 1.256 . S
H712 C685 0.930 . S
H713 C686 0.931 . S
H714 C688 0.934 . S
H715 C689 0.930 . S
H716 C694 0.930 . S
H717 C695 0.931 . S
H718 C697 0.934 . S
H719 C698 0.930 . S
Ho720 C723 2.811 . S
Ho720 O740 2.322 . S
Ho720 O742 2.378 . S
Ho720 O743 2.524 . S
Ho720 O744 2.381 . S
Ho720 O745 2.669 . S
Ho720 O747 2.346 . S
Ho720 O751 2.305 . S
Ho721 C732 2.811 . S
Ho721 O741 2.346 . S
Ho721 O745 2.305 . S
Ho721 O746 2.322 . S
Ho721 O748 2.378 . S
Ho721 O749 2.524 . S
Ho721 O750 2.381 . S
Ho721 O751 2.669 . S
C722 O740 1.259 . S
C722 O741 1.268 . S
C723 Ho720 2.811 . S
C723 C724 1.488 . S
C723 O742 1.215 . S
C723 O743 1.289 . S
C724 C723 1.488 . S
C724 C725 1.348 . S
C724 C729 1.413 . S
C725 C724 1.348 . S
C725 C726 1.442 . S
C725 H752 0.930 . S
C726 C725 1.442 . S
C726 C727 1.381 . S
C726 H753 0.931 . S
C727 C726 1.381 . S
C727 C728 1.321 . S
C728 C727 1.321 . S
C728 C729 1.403 . S
C728 H754 0.934 . S
C729 C724 1.413 . S
C729 C728 1.403 . S
C729 H755 0.930 . S
C730 O744 1.275 . S
C730 O745 1.256 . S
C731 O746 1.259 . S
C731 O747 1.268 . S
C732 Ho721 2.811 . S
C732 C733 1.488 1_655 S
C732 O748 1.215 . S
C732 O749 1.289 . S
C733 C732 1.488 1_455 S
C733 C734 1.348 . S
C733 C738 1.413 . S
C734 C733 1.348 . S
C734 C735 1.442 . S
C734 H756 0.930 1_455 S
C735 C734 1.442 . S
C735 C736 1.381 . S
C735 H757 0.931 . S
C736 C735 1.381 . S
C736 C737 1.321 . S
C737 C736 1.321 . S
C737 C738 1.403 . S
C737 H758 0.934 . S
C738 C733 1.413 . S
C738 C737 1.403 . S
C738 H759 0.930 . S
C739 O750 1.275 . S
C739 O751 1.256 . S
O740 Ho720 2.322 . S
O740 C722 1.259 . S
O741 Ho721 2.346 . S
O741 C722 1.268 . S
O742 Ho720 2.378 . S
O742 C723 1.215 . S
O743 Ho720 2.524 . S
O743 C723 1.289 . S
O744 Ho720 2.381 . S
O744 C730 1.275 . S
O745 Ho720 2.669 . S
O745 Ho721 2.305 . S
O745 C730 1.256 . S
O746 Ho721 2.322 . S
O746 C731 1.259 . S
O747 Ho720 2.346 . S
O747 C731 1.268 . S
O748 Ho721 2.378 . S
O748 C732 1.215 . S
O749 Ho721 2.524 . S
O749 C732 1.289 . S
O750 Ho721 2.381 . S
O750 C739 1.275 . S
O751 Ho720 2.305 . S
O751 Ho721 2.669 . S
O751 C739 1.256 . S
H752 C725 0.930 . S
H753 C726 0.931 . S
H754 C728 0.934 . S
H755 C729 0.930 . S
H756 C734 0.930 1_655 S
H757 C735 0.931 . S
H758 C737 0.934 . S
H759 C738 0.930 . S
Ho760 C763 2.811 . S
Ho760 O780 2.322 . S
Ho760 O782 2.378 . S
Ho760 O783 2.524 . S
Ho760 O784 2.381 . S
Ho760 O785 2.669 . S
Ho760 O787 2.346 . S
Ho760 O791 2.305 . S
Ho761 C772 2.811 . S
Ho761 O781 2.346 . S
Ho761 O785 2.305 . S
Ho761 O786 2.322 . S
Ho761 O788 2.378 . S
Ho761 O789 2.524 . S
Ho761 O790 2.381 . S
Ho761 O791 2.669 . S
C762 O780 1.259 . S
C762 O781 1.268 . S
C763 Ho760 2.811 . S
C763 C764 1.488 . S
C763 O782 1.215 . S
C763 O783 1.289 . S
C764 C763 1.488 . S
C764 C765 1.348 . S
C764 C769 1.413 . S
C765 C764 1.348 . S
C765 C766 1.442 . S
C765 H792 0.930 . S
C766 C765 1.442 . S
C766 C767 1.381 . S
C766 H793 0.931 . S
C767 C766 1.381 . S
C767 C768 1.321 . S
C768 C767 1.321 . S
C768 C769 1.403 . S
C768 H794 0.934 . S
C769 C764 1.413 . S
C769 C768 1.403 . S
C769 H795 0.930 . S
C770 O784 1.275 . S
C770 O785 1.256 . S
C771 O786 1.259 . S
C771 O787 1.268 . S
C772 Ho761 2.811 . S
C772 C773 1.488 . S
C772 O788 1.215 . S
C772 O789 1.289 . S
C773 C772 1.488 . S
C773 C774 1.348 . S
C773 C778 1.413 . S
C774 C773 1.348 . S
C774 C775 1.442 . S
C774 H796 0.930 . S
C775 C774 1.442 . S
C775 C776 1.381 . S
C775 H797 0.931 . S
C776 C775 1.381 . S
C776 C777 1.321 . S
C777 C776 1.321 . S
C777 C778 1.403 . S
C777 H798 0.934 . S
C778 C773 1.413 . S
C778 C777 1.403 . S
C778 H799 0.930 . S
C779 O790 1.275 . S
C779 O791 1.256 . S
O780 Ho760 2.322 . S
O780 C762 1.259 . S
O781 Ho761 2.346 . S
O781 C762 1.268 . S
O782 Ho760 2.378 . S
O782 C763 1.215 . S
O783 Ho760 2.524 . S
O783 C763 1.289 . S
O784 Ho760 2.381 . S
O784 C770 1.275 . S
O785 Ho760 2.669 . S
O785 Ho761 2.305 . S
O785 C770 1.256 . S
O786 Ho761 2.322 . S
O786 C771 1.259 . S
O787 Ho760 2.346 . S
O787 C771 1.268 . S
O788 Ho761 2.378 . S
O788 C772 1.215 . S
O789 Ho761 2.524 . S
O789 C772 1.289 . S
O790 Ho761 2.381 . S
O790 C779 1.275 . S
O791 Ho760 2.305 . S
O791 Ho761 2.669 . S
O791 C779 1.256 . S
H792 C765 0.930 . S
H793 C766 0.931 . S
H794 C768 0.934 . S
H795 C769 0.930 . S
H796 C774 0.930 . S
H797 C775 0.931 . S
H798 C777 0.934 . S
H799 C778 0.930 . S
Ho800 C803 2.811 . S
Ho800 O820 2.322 . S
Ho800 O822 2.378 . S
Ho800 O823 2.524 . S
Ho800 O824 2.381 . S
Ho800 O825 2.669 . S
Ho800 O827 2.346 . S
Ho800 O831 2.305 . S
Ho801 C812 2.811 . S
Ho801 O821 2.346 . S
Ho801 O825 2.305 . S
Ho801 O826 2.322 . S
Ho801 O828 2.378 . S
Ho801 O829 2.524 . S
Ho801 O830 2.381 . S
Ho801 O831 2.669 . S
C802 O820 1.259 . S
C802 O821 1.268 . S
C803 Ho800 2.811 . S
C803 C804 1.488 . S
C803 O822 1.215 . S
C803 O823 1.289 . S
C804 C803 1.488 . S
C804 C805 1.348 . S
C804 C809 1.413 . S
C805 C804 1.348 . S
C805 C806 1.442 . S
C805 H832 0.930 . S
C806 C805 1.442 . S
C806 C807 1.381 . S
C806 H833 0.931 . S
C807 C806 1.381 . S
C807 C808 1.321 . S
C808 C807 1.321 . S
C808 C809 1.403 . S
C808 H834 0.934 . S
C809 C804 1.413 . S
C809 C808 1.403 . S
C809 H835 0.930 . S
C810 O824 1.275 . S
C810 O825 1.256 . S
C811 O826 1.259 . S
C811 O827 1.268 . S
C812 Ho801 2.811 . S
C812 C813 1.488 . S
C812 O828 1.215 . S
C812 O829 1.289 . S
C813 C812 1.488 . S
C813 C814 1.348 . S
C813 C818 1.413 . S
C814 C813 1.348 . S
C814 C815 1.442 . S
C814 H836 0.930 . S
C815 C814 1.442 . S
C815 C816 1.381 . S
C815 H837 0.931 . S
C816 C815 1.381 . S
C816 C817 1.321 . S
C817 C816 1.321 . S
C817 C818 1.403 . S
C817 H838 0.934 . S
C818 C813 1.413 . S
C818 C817 1.403 . S
C818 H839 0.930 . S
C819 O830 1.275 . S
C819 O831 1.256 . S
O820 Ho800 2.322 . S
O820 C802 1.259 . S
O821 Ho801 2.346 . S
O821 C802 1.268 . S
O822 Ho800 2.378 . S
O822 C803 1.215 . S
O823 Ho800 2.524 . S
O823 C803 1.289 . S
O824 Ho800 2.381 . S
O824 C810 1.275 . S
O825 Ho800 2.669 . S
O825 Ho801 2.305 . S
O825 C810 1.256 . S
O826 Ho801 2.322 . S
O826 C811 1.259 . S
O827 Ho800 2.346 . S
O827 C811 1.268 . S
O828 Ho801 2.378 . S
O828 C812 1.215 . S
O829 Ho801 2.524 . S
O829 C812 1.289 . S
O830 Ho801 2.381 . S
O830 C819 1.275 . S
O831 Ho800 2.305 . S
O831 Ho801 2.669 . S
O831 C819 1.256 . S
H832 C805 0.930 . S
H833 C806 0.931 . S
H834 C808 0.934 . S
H835 C809 0.930 . S
H836 C814 0.930 . S
H837 C815 0.931 . S
H838 C817 0.934 . S
H839 C818 0.930 . S
Ho840 C843 2.811 1_556 S
Ho840 O860 2.322 1_556 S
Ho840 O862 2.378 1_556 S
Ho840 O863 2.524 1_556 S
Ho840 O864 2.381 . S
Ho840 O865 2.669 . S
Ho840 O867 2.346 . S
Ho840 O871 2.305 1_556 S
Ho841 C852 2.811 . S
Ho841 O861 2.346 1_556 S
Ho841 O865 2.305 . S
Ho841 O866 2.322 . S
Ho841 O868 2.378 . S
Ho841 O869 2.524 . S
Ho841 O870 2.381 1_556 S
Ho841 O871 2.669 1_556 S
C842 O860 1.259 . S
C842 O861 1.268 . S
C843 Ho840 2.811 1_554 S
C843 C844 1.488 . S
C843 O862 1.215 . S
C843 O863 1.289 . S
C844 C843 1.488 . S
C844 C845 1.348 . S
C844 C849 1.413 . S
C845 C844 1.348 . S
C845 C846 1.442 . S
C845 H872 0.930 . S
C846 C845 1.442 . S
C846 C847 1.381 . S
C846 H873 0.931 . S
C847 C846 1.381 . S
C847 C848 1.321 . S
C848 C847 1.321 . S
C848 C849 1.403 . S
C848 H874 0.934 . S
C849 C844 1.413 . S
C849 C848 1.403 . S
C849 H875 0.930 . S
C850 O864 1.275 . S
C850 O865 1.256 . S
C851 O866 1.259 . S
C851 O867 1.268 . S
C852 Ho841 2.811 . S
C852 C853 1.488 . S
C852 O868 1.215 . S
C852 O869 1.289 . S
C853 C852 1.488 . S
C853 C854 1.348 . S
C853 C858 1.413 . S
C854 C853 1.348 . S
C854 C855 1.442 . S
C854 H876 0.930 . S
C855 C854 1.442 . S
C855 C856 1.381 . S
C855 H877 0.931 . S
C856 C855 1.381 . S
C856 C857 1.321 . S
C857 C856 1.321 . S
C857 C858 1.403 . S
C857 H878 0.934 . S
C858 C853 1.413 . S
C858 C857 1.403 . S
C858 H879 0.930 . S
C859 O870 1.275 . S
C859 O871 1.256 . S
O860 Ho840 2.322 1_554 S
O860 C842 1.259 . S
O861 Ho841 2.346 1_554 S
O861 C842 1.268 . S
O862 Ho840 2.378 1_554 S
O862 C843 1.215 . S
O863 Ho840 2.524 1_554 S
O863 C843 1.289 . S
O864 Ho840 2.381 . S
O864 C850 1.275 . S
O865 Ho840 2.669 . S
O865 Ho841 2.305 . S
O865 C850 1.256 . S
O866 Ho841 2.322 . S
O866 C851 1.259 . S
O867 Ho840 2.346 . S
O867 C851 1.268 . S
O868 Ho841 2.378 . S
O868 C852 1.215 . S
O869 Ho841 2.524 . S
O869 C852 1.289 . S
O870 Ho841 2.381 1_554 S
O870 C859 1.275 . S
O871 Ho840 2.305 1_554 S
O871 Ho841 2.669 1_554 S
O871 C859 1.256 . S
H872 C845 0.930 . S
H873 C846 0.931 . S
H874 C848 0.934 . S
H875 C849 0.930 . S
H876 C854 0.930 . S
H877 C855 0.931 . S
H878 C857 0.934 . S
H879 C858 0.930 . S
Ho880 C883 2.811 . S
Ho880 O900 2.322 . S
Ho880 O902 2.378 . S
Ho880 O903 2.524 . S
Ho880 O904 2.381 . S
Ho880 O905 2.669 . S
Ho880 O907 2.346 . S
Ho880 O911 2.305 . S
Ho881 C892 2.811 . S
Ho881 O901 2.346 . S
Ho881 O905 2.305 . S
Ho881 O906 2.322 . S
Ho881 O908 2.378 . S
Ho881 O909 2.524 . S
Ho881 O910 2.381 . S
Ho881 O911 2.669 . S
C882 O900 1.259 . S
C882 O901 1.268 . S
C883 Ho880 2.811 . S
C883 C884 1.488 . S
C883 O902 1.215 . S
C883 O903 1.289 . S
C884 C883 1.488 . S
C884 C885 1.348 . S
C884 C889 1.413 . S
C885 C884 1.348 . S
C885 C886 1.442 . S
C885 H912 0.930 . S
C886 C885 1.442 . S
C886 C887 1.381 . S
C886 H913 0.931 . S
C887 C886 1.381 . S
C887 C888 1.321 . S
C888 C887 1.321 . S
C888 C889 1.403 . S
C888 H914 0.934 . S
C889 C884 1.413 . S
C889 C888 1.403 . S
C889 H915 0.930 . S
C890 O904 1.275 . S
C890 O905 1.256 . S
C891 O906 1.259 . S
C891 O907 1.268 . S
C892 Ho881 2.811 . S
C892 C893 1.488 1_655 S
C892 O908 1.215 . S
C892 O909 1.289 . S
C893 C892 1.488 1_455 S
C893 C894 1.348 . S
C893 C898 1.413 . S
C894 C893 1.348 . S
C894 C895 1.442 . S
C894 H916 0.930 1_455 S
C895 C894 1.442 . S
C895 C896 1.381 . S
C895 H917 0.931 . S
C896 C895 1.381 . S
C896 C897 1.321 . S
C897 C896 1.321 . S
C897 C898 1.403 . S
C897 H918 0.934 . S
C898 C893 1.413 . S
C898 C897 1.403 . S
C898 H919 0.930 . S
C899 O910 1.275 . S
C899 O911 1.256 . S
O900 Ho880 2.322 . S
O900 C882 1.259 . S
O901 Ho881 2.346 . S
O901 C882 1.268 . S
O902 Ho880 2.378 . S
O902 C883 1.215 . S
O903 Ho880 2.524 . S
O903 C883 1.289 . S
O904 Ho880 2.381 . S
O904 C890 1.275 . S
O905 Ho880 2.669 . S
O905 Ho881 2.305 . S
O905 C890 1.256 . S
O906 Ho881 2.322 . S
O906 C891 1.259 . S
O907 Ho880 2.346 . S
O907 C891 1.268 . S
O908 Ho881 2.378 . S
O908 C892 1.215 . S
O909 Ho881 2.524 . S
O909 C892 1.289 . S
O910 Ho881 2.381 . S
O910 C899 1.275 . S
O911 Ho880 2.305 . S
O911 Ho881 2.669 . S
O911 C899 1.256 . S
H912 C885 0.930 . S
H913 C886 0.931 . S
H914 C888 0.934 . S
H915 C889 0.930 . S
H916 C894 0.930 1_655 S
H917 C895 0.931 . S
H918 C897 0.934 . S
H919 C898 0.930 . S
Ho920 C923 2.811 . S
Ho920 O940 2.322 . S
Ho920 O942 2.378 . S
Ho920 O943 2.524 . S
Ho920 O944 2.381 . S
Ho920 O945 2.669 . S
Ho920 O947 2.346 . S
Ho920 O951 2.305 . S
Ho921 C932 2.811 . S
Ho921 O941 2.346 . S
Ho921 O945 2.305 . S
Ho921 O946 2.322 . S
Ho921 O948 2.378 . S
Ho921 O949 2.524 . S
Ho921 O950 2.381 . S
Ho921 O951 2.669 . S
C922 O940 1.259 . S
C922 O941 1.268 . S
C923 Ho920 2.811 . S
C923 C924 1.488 . S
C923 O942 1.215 . S
C923 O943 1.289 . S
C924 C923 1.488 . S
C924 C925 1.348 . S
C924 C929 1.413 . S
C925 C924 1.348 . S
C925 C926 1.442 . S
C925 H952 0.930 . S
C926 C925 1.442 . S
C926 C927 1.381 . S
C926 H953 0.931 . S
C927 C926 1.381 . S
C927 C928 1.321 . S
C928 C927 1.321 . S
C928 C929 1.403 . S
C928 H954 0.934 . S
C929 C924 1.413 . S
C929 C928 1.403 . S
C929 H955 0.930 . S
C930 O944 1.275 . S
C930 O945 1.256 . S
C931 O946 1.259 . S
C931 O947 1.268 . S
C932 Ho921 2.811 . S
C932 C933 1.488 . S
C932 O948 1.215 . S
C932 O949 1.289 . S
C933 C932 1.488 . S
C933 C934 1.348 . S
C933 C938 1.413 . S
C934 C933 1.348 . S
C934 C935 1.442 . S
C934 H956 0.930 . S
C935 C934 1.442 . S
C935 C936 1.381 . S
C935 H957 0.931 . S
C936 C935 1.381 . S
C936 C937 1.321 . S
C937 C936 1.321 . S
C937 C938 1.403 . S
C937 H958 0.934 . S
C938 C933 1.413 . S
C938 C937 1.403 . S
C938 H959 0.930 . S
C939 O950 1.275 . S
C939 O951 1.256 . S
O940 Ho920 2.322 . S
O940 C922 1.259 . S
O941 Ho921 2.346 . S
O941 C922 1.268 . S
O942 Ho920 2.378 . S
O942 C923 1.215 . S
O943 Ho920 2.524 . S
O943 C923 1.289 . S
O944 Ho920 2.381 . S
O944 C930 1.275 . S
O945 Ho920 2.669 . S
O945 Ho921 2.305 . S
O945 C930 1.256 . S
O946 Ho921 2.322 . S
O946 C931 1.259 . S
O947 Ho920 2.346 . S
O947 C931 1.268 . S
O948 Ho921 2.378 . S
O948 C932 1.215 . S
O949 Ho921 2.524 . S
O949 C932 1.289 . S
O950 Ho921 2.381 . S
O950 C939 1.275 . S
O951 Ho920 2.305 . S
O951 Ho921 2.669 . S
O951 C939 1.256 . S
H952 C925 0.930 . S
H953 C926 0.931 . S
H954 C928 0.934 . S
H955 C929 0.930 . S
H956 C934 0.930 . S
H957 C935 0.931 . S
H958 C937 0.934 . S
H959 C938 0.930 . S
Ho960 C963 2.811 . S
Ho960 O980 2.322 . S
Ho960 O982 2.378 . S
Ho960 O983 2.524 . S
Ho960 O984 2.381 . S
Ho960 O985 2.669 . S
Ho960 O987 2.346 . S
Ho960 O991 2.305 . S
Ho961 C972 2.811 . S
Ho961 O981 2.346 . S
Ho961 O985 2.305 . S
Ho961 O986 2.322 . S
Ho961 O988 2.378 . S
Ho961 O989 2.524 . S
Ho961 O990 2.381 . S
Ho961 O991 2.669 . S
C962 O980 1.259 . S
C962 O981 1.268 . S
C963 Ho960 2.811 . S
C963 C964 1.488 . S
C963 O982 1.215 . S
C963 O983 1.289 . S
C964 C963 1.488 . S
C964 C965 1.348 . S
C964 C969 1.413 . S
C965 C964 1.348 . S
C965 C966 1.442 . S
C965 H992 0.930 . S
C966 C965 1.442 . S
C966 C967 1.381 . S
C966 H993 0.931 . S
C967 C966 1.381 . S
C967 C968 1.321 . S
C968 C967 1.321 . S
C968 C969 1.403 . S
C968 H994 0.934 . S
C969 C964 1.413 . S
C969 C968 1.403 . S
C969 H995 0.930 . S
C970 O984 1.275 . S
C970 O985 1.256 . S
C971 O986 1.259 . S
C971 O987 1.268 . S
C972 Ho961 2.811 . S
C972 C973 1.488 . S
C972 O988 1.215 . S
C972 O989 1.289 . S
C973 C972 1.488 . S
C973 C974 1.348 . S
C973 C978 1.413 . S
C974 C973 1.348 . S
C974 C975 1.442 . S
C974 H996 0.930 . S
C975 C974 1.442 . S
C975 C976 1.381 . S
C975 H997 0.931 . S
C976 C975 1.381 . S
C976 C977 1.321 . S
C977 C976 1.321 . S
C977 C978 1.403 . S
C977 H998 0.934 . S
C978 C973 1.413 . S
C978 C977 1.403 . S
C978 H999 0.930 . S
C979 O990 1.275 . S
C979 O991 1.256 . S
O980 Ho960 2.322 . S
O980 C962 1.259 . S
O981 Ho961 2.346 . S
O981 C962 1.268 . S
O982 Ho960 2.378 . S
O982 C963 1.215 . S
O983 Ho960 2.524 . S
O983 C963 1.289 . S
O984 Ho960 2.381 . S
O984 C970 1.275 . S
O985 Ho960 2.669 . S
O985 Ho961 2.305 . S
O985 C970 1.256 . S
O986 Ho961 2.322 . S
O986 C971 1.259 . S
O987 Ho960 2.346 . S
O987 C971 1.268 . S
O988 Ho961 2.378 . S
O988 C972 1.215 . S
O989 Ho961 2.524 . S
O989 C972 1.289 . S
O990 Ho961 2.381 . S
O990 C979 1.275 . S
O991 Ho960 2.305 . S
O991 Ho961 2.669 . S
O991 C979 1.256 . S
H992 C965 0.930 . S
H993 C966 0.931 . S
H994 C968 0.934 . S
H995 C969 0.930 . S
H996 C974 0.930 . S
H997 C975 0.931 . S
H998 C977 0.934 . S
H999 C978 0.930 . S
Ho1000 C1003 2.811 . S
Ho1000 O1020 2.322 . S
Ho1000 O1022 2.378 . S
Ho1000 O1023 2.524 . S
Ho1000 O1024 2.381 1_556 S
Ho1000 O1025 2.669 1_556 S
Ho1000 O1027 2.346 1_556 S
Ho1000 O1031 2.305 . S
Ho1001 C1012 2.811 1_556 S
Ho1001 O1021 2.346 . S
Ho1001 O1025 2.305 1_556 S
Ho1001 O1026 2.322 1_556 S
Ho1001 O1028 2.378 1_556 S
Ho1001 O1029 2.524 1_556 S
Ho1001 O1030 2.381 . S
Ho1001 O1031 2.669 . S
C1002 O1020 1.259 . S
C1002 O1021 1.268 . S
C1003 Ho1000 2.811 . S
C1003 C1004 1.488 . S
C1003 O1022 1.215 . S
C1003 O1023 1.289 . S
C1004 C1003 1.488 . S
C1004 C1005 1.348 . S
C1004 C1009 1.413 . S
C1005 C1004 1.348 . S
C1005 C1006 1.442 . S
C1005 H1032 0.930 . S
C1006 C1005 1.442 . S
C1006 C1007 1.381 . S
C1006 H1033 0.931 . S
C1007 C1006 1.381 . S
C1007 C1008 1.321 . S
C1008 C1007 1.321 . S
C1008 C1009 1.403 . S
C1008 H1034 0.934 . S
C1009 C1004 1.413 . S
C1009 C1008 1.403 . S
C1009 H1035 0.930 . S
C1010 O1024 1.275 . S
C1010 O1025 1.256 . S
C1011 O1026 1.259 . S
C1011 O1027 1.268 . S
C1012 Ho1001 2.811 1_554 S
C1012 C1013 1.488 . S
C1012 O1028 1.215 . S
C1012 O1029 1.289 . S
C1013 C1012 1.488 . S
C1013 C1014 1.348 . S
C1013 C1018 1.413 . S
C1014 C1013 1.348 . S
C1014 C1015 1.442 . S
C1014 H1036 0.930 . S
C1015 C1014 1.442 . S
C1015 C1016 1.381 . S
C1015 H1037 0.931 . S
C1016 C1015 1.381 . S
C1016 C1017 1.321 . S
C1017 C1016 1.321 . S
C1017 C1018 1.403 . S
C1017 H1038 0.934 . S
C1018 C1013 1.413 . S
C1018 C1017 1.403 . S
C1018 H1039 0.930 . S
C1019 O1030 1.275 . S
C1019 O1031 1.256 . S
O1020 Ho1000 2.322 . S
O1020 C1002 1.259 . S
O1021 Ho1001 2.346 . S
O1021 C1002 1.268 . S
O1022 Ho1000 2.378 . S
O1022 C1003 1.215 . S
O1023 Ho1000 2.524 . S
O1023 C1003 1.289 . S
O1024 Ho1000 2.381 1_554 S
O1024 C1010 1.275 . S
O1025 Ho1000 2.669 1_554 S
O1025 Ho1001 2.305 1_554 S
O1025 C1010 1.256 . S
O1026 Ho1001 2.322 1_554 S
O1026 C1011 1.259 . S
O1027 Ho1000 2.346 1_554 S
O1027 C1011 1.268 . S
O1028 Ho1001 2.378 1_554 S
O1028 C1012 1.215 . S
O1029 Ho1001 2.524 1_554 S
O1029 C1012 1.289 . S
O1030 Ho1001 2.381 . S
O1030 C1019 1.275 . S
O1031 Ho1000 2.305 . S
O1031 Ho1001 2.669 . S
O1031 C1019 1.256 . S
H1032 C1005 0.930 . S
H1033 C1006 0.931 . S
H1034 C1008 0.934 . S
H1035 C1009 0.930 . S
H1036 C1014 0.930 . S
H1037 C1015 0.931 . S
H1038 C1017 0.934 . S
H1039 C1018 0.930 . S
Ho1040 C1043 2.811 . S
Ho1040 O1060 2.322 . S
Ho1040 O1062 2.378 . S
Ho1040 O1063 2.524 . S
Ho1040 O1064 2.381 . S
Ho1040 O1065 2.669 . S
Ho1040 O1067 2.346 . S
Ho1040 O1071 2.305 . S
Ho1041 C1052 2.811 . S
Ho1041 O1061 2.346 . S
Ho1041 O1065 2.305 . S
Ho1041 O1066 2.322 . S
Ho1041 O1068 2.378 . S
Ho1041 O1069 2.524 . S
Ho1041 O1070 2.381 . S
Ho1041 O1071 2.669 . S
C1042 O1060 1.259 . S
C1042 O1061 1.268 . S
C1043 Ho1040 2.811 . S
C1043 C1044 1.488 1_455 S
C1043 O1062 1.215 . S
C1043 O1063 1.289 . S
C1044 C1043 1.488 1_655 S
C1044 C1045 1.348 . S
C1044 C1049 1.413 . S
C1045 C1044 1.348 . S
C1045 C1046 1.442 . S
C1045 H1072 0.930 1_655 S
C1046 C1045 1.442 . S
C1046 C1047 1.381 . S
C1046 H1073 0.931 . S
C1047 C1046 1.381 . S
C1047 C1048 1.321 . S
C1048 C1047 1.321 . S
C1048 C1049 1.403 . S
C1048 H1074 0.934 . S
C1049 C1044 1.413 . S
C1049 C1048 1.403 . S
C1049 H1075 0.930 . S
C1050 O1064 1.275 . S
C1050 O1065 1.256 . S
C1051 O1066 1.259 . S
C1051 O1067 1.268 . S
C1052 Ho1041 2.811 . S
C1052 C1053 1.488 . S
C1052 O1068 1.215 . S
C1052 O1069 1.289 . S
C1053 C1052 1.488 . S
C1053 C1054 1.348 . S
C1053 C1058 1.413 . S
C1054 C1053 1.348 . S
C1054 C1055 1.442 . S
C1054 H1076 0.930 . S
C1055 C1054 1.442 . S
C1055 C1056 1.381 . S
C1055 H1077 0.931 . S
C1056 C1055 1.381 . S
C1056 C1057 1.321 . S
C1057 C1056 1.321 . S
C1057 C1058 1.403 . S
C1057 H1078 0.934 . S
C1058 C1053 1.413 . S
C1058 C1057 1.403 . S
C1058 H1079 0.930 . S
C1059 O1070 1.275 . S
C1059 O1071 1.256 . S
O1060 Ho1040 2.322 . S
O1060 C1042 1.259 . S
O1061 Ho1041 2.346 . S
O1061 C1042 1.268 . S
O1062 Ho1040 2.378 . S
O1062 C1043 1.215 . S
O1063 Ho1040 2.524 . S
O1063 C1043 1.289 . S
O1064 Ho1040 2.381 . S
O1064 C1050 1.275 . S
O1065 Ho1040 2.669 . S
O1065 Ho1041 2.305 . S
O1065 C1050 1.256 . S
O1066 Ho1041 2.322 . S
O1066 C1051 1.259 . S
O1067 Ho1040 2.346 . S
O1067 C1051 1.268 . S
O1068 Ho1041 2.378 . S
O1068 C1052 1.215 . S
O1069 Ho1041 2.524 . S
O1069 C1052 1.289 . S
O1070 Ho1041 2.381 . S
O1070 C1059 1.275 . S
O1071 Ho1040 2.305 . S
O1071 Ho1041 2.669 . S
O1071 C1059 1.256 . S
H1072 C1045 0.930 1_455 S
H1073 C1046 0.931 . S
H1074 C1048 0.934 . S
H1075 C1049 0.930 . S
H1076 C1054 0.930 . S
H1077 C1055 0.931 . S
H1078 C1057 0.934 . S
H1079 C1058 0.930 . S
Ho1080 C1083 2.811 . S
Ho1080 O1100 2.322 . S
Ho1080 O1102 2.378 . S
Ho1080 O1103 2.524 . S
Ho1080 O1104 2.381 . S
Ho1080 O1105 2.669 . S
Ho1080 O1107 2.346 . S
Ho1080 O1111 2.305 . S
Ho1081 C1092 2.811 . S
Ho1081 O1101 2.346 . S
Ho1081 O1105 2.305 . S
Ho1081 O1106 2.322 . S
Ho1081 O1108 2.378 . S
Ho1081 O1109 2.524 . S
Ho1081 O1110 2.381 . S
Ho1081 O1111 2.669 . S
C1082 O1100 1.259 . S
C1082 O1101 1.268 . S
C1083 Ho1080 2.811 . S
C1083 C1084 1.488 . S
C1083 O1102 1.215 . S
C1083 O1103 1.289 . S
C1084 C1083 1.488 . S
C1084 C1085 1.348 . S
C1084 C1089 1.413 . S
C1085 C1084 1.348 . S
C1085 C1086 1.442 . S
C1085 H1112 0.930 . S
C1086 C1085 1.442 . S
C1086 C1087 1.381 . S
C1086 H1113 0.931 . S
C1087 C1086 1.381 . S
C1087 C1088 1.321 . S
C1088 C1087 1.321 . S
C1088 C1089 1.403 . S
C1088 H1114 0.934 . S
C1089 C1084 1.413 . S
C1089 C1088 1.403 . S
C1089 H1115 0.930 . S
C1090 O1104 1.275 . S
C1090 O1105 1.256 . S
C1091 O1106 1.259 . S
C1091 O1107 1.268 . S
C1092 Ho1081 2.811 . S
C1092 C1093 1.488 . S
C1092 O1108 1.215 . S
C1092 O1109 1.289 . S
C1093 C1092 1.488 . S
C1093 C1094 1.348 . S
C1093 C1098 1.413 . S
C1094 C1093 1.348 . S
C1094 C1095 1.442 . S
C1094 H1116 0.930 . S
C1095 C1094 1.442 . S
C1095 C1096 1.381 . S
C1095 H1117 0.931 . S
C1096 C1095 1.381 . S
C1096 C1097 1.321 . S
C1097 C1096 1.321 . S
C1097 C1098 1.403 . S
C1097 H1118 0.934 . S
C1098 C1093 1.413 . S
C1098 C1097 1.403 . S
C1098 H1119 0.930 . S
C1099 O1110 1.275 . S
C1099 O1111 1.256 . S
O1100 Ho1080 2.322 . S
O1100 C1082 1.259 . S
O1101 Ho1081 2.346 . S
O1101 C1082 1.268 . S
O1102 Ho1080 2.378 . S
O1102 C1083 1.215 . S
O1103 Ho1080 2.524 . S
O1103 C1083 1.289 . S
O1104 Ho1080 2.381 . S
O1104 C1090 1.275 . S
O1105 Ho1080 2.669 . S
O1105 Ho1081 2.305 . S
O1105 C1090 1.256 . S
O1106 Ho1081 2.322 . S
O1106 C1091 1.259 . S
O1107 Ho1080 2.346 . S
O1107 C1091 1.268 . S
O1108 Ho1081 2.378 . S
O1108 C1092 1.215 . S
O1109 Ho1081 2.524 . S
O1109 C1092 1.289 . S
O1110 Ho1081 2.381 . S
O1110 C1099 1.275 . S
O1111 Ho1080 2.305 . S
O1111 Ho1081 2.669 . S
O1111 C1099 1.256 . S
H1112 C1085 0.930 . S
H1113 C1086 0.931 . S
H1114 C1088 0.934 . S
H1115 C1089 0.930 . S
H1116 C1094 0.930 . S
H1117 C1095 0.931 . S
H1118 C1097 0.934 . S
H1119 C1098 0.930 . S
Ho1120 C1123 2.811 . S
Ho1120 O1140 2.322 . S
Ho1120 O1142 2.378 . S
Ho1120 O1143 2.524 . S
Ho1120 O1144 2.381 . S
Ho1120 O1145 2.669 . S
Ho1120 O1147 2.346 . S
Ho1120 O1151 2.305 . S
Ho1121 C1132 2.811 . S
Ho1121 O1141 2.346 . S
Ho1121 O1145 2.305 . S
Ho1121 O1146 2.322 . S
Ho1121 O1148 2.378 . S
Ho1121 O1149 2.524 . S
Ho1121 O1150 2.381 . S
Ho1121 O1151 2.669 . S
C1122 O1140 1.259 . S
C1122 O1141 1.268 . S
C1123 Ho1120 2.811 . S
C1123 C1124 1.488 . S
C1123 O1142 1.215 . S
C1123 O1143 1.289 . S
C1124 C1123 1.488 . S
C1124 C1125 1.348 . S
C1124 C1129 1.413 . S
C1125 C1124 1.348 . S
C1125 C1126 1.442 . S
C1125 H1152 0.930 . S
C1126 C1125 1.442 . S
C1126 C1127 1.381 . S
C1126 H1153 0.931 . S
C1127 C1126 1.381 . S
C1127 C1128 1.321 . S
C1128 C1127 1.321 . S
C1128 C1129 1.403 . S
C1128 H1154 0.934 . S
C1129 C1124 1.413 . S
C1129 C1128 1.403 . S
C1129 H1155 0.930 . S
C1130 O1144 1.275 . S
C1130 O1145 1.256 . S
C1131 O1146 1.259 . S
C1131 O1147 1.268 . S
C1132 Ho1121 2.811 . S
C1132 C1133 1.488 . S
C1132 O1148 1.215 . S
C1132 O1149 1.289 . S
C1133 C1132 1.488 . S
C1133 C1134 1.348 . S
C1133 C1138 1.413 . S
C1134 C1133 1.348 . S
C1134 C1135 1.442 . S
C1134 H1156 0.930 . S
C1135 C1134 1.442 . S
C1135 C1136 1.381 . S
C1135 H1157 0.931 . S
C1136 C1135 1.381 . S
C1136 C1137 1.321 . S
C1137 C1136 1.321 . S
C1137 C1138 1.403 . S
C1137 H1158 0.934 . S
C1138 C1133 1.413 . S
C1138 C1137 1.403 . S
C1138 H1159 0.930 . S
C1139 O1150 1.275 . S
C1139 O1151 1.256 . S
O1140 Ho1120 2.322 . S
O1140 C1122 1.259 . S
O1141 Ho1121 2.346 . S
O1141 C1122 1.268 . S
O1142 Ho1120 2.378 . S
O1142 C1123 1.215 . S
O1143 Ho1120 2.524 . S
O1143 C1123 1.289 . S
O1144 Ho1120 2.381 . S
O1144 C1130 1.275 . S
O1145 Ho1120 2.669 . S
O1145 Ho1121 2.305 . S
O1145 C1130 1.256 . S
O1146 Ho1121 2.322 . S
O1146 C1131 1.259 . S
O1147 Ho1120 2.346 . S
O1147 C1131 1.268 . S
O1148 Ho1121 2.378 . S
O1148 C1132 1.215 . S
O1149 Ho1121 2.524 . S
O1149 C1132 1.289 . S
O1150 Ho1121 2.381 . S
O1150 C1139 1.275 . S
O1151 Ho1120 2.305 . S
O1151 Ho1121 2.669 . S
O1151 C1139 1.256 . S
H1152 C1125 0.930 . S
H1153 C1126 0.931 . S
H1154 C1128 0.934 . S
H1155 C1129 0.930 . S
H1156 C1134 0.930 . S
H1157 C1135 0.931 . S
H1158 C1137 0.934 . S
H1159 C1138 0.930 . S
Ho1160 C1163 2.811 . S
Ho1160 O1180 2.322 . S
Ho1160 O1182 2.378 . S
Ho1160 O1183 2.524 . S
Ho1160 O1184 2.381 1_554 S
Ho1160 O1185 2.669 1_554 S
Ho1160 O1187 2.346 1_554 S
Ho1160 O1191 2.305 . S
Ho1161 C1172 2.811 1_554 S
Ho1161 O1181 2.346 . S
Ho1161 O1185 2.305 1_554 S
Ho1161 O1186 2.322 1_554 S
Ho1161 O1188 2.378 1_554 S
Ho1161 O1189 2.524 1_554 S
Ho1161 O1190 2.381 . S
Ho1161 O1191 2.669 . S
C1162 O1180 1.259 . S
C1162 O1181 1.268 . S
C1163 Ho1160 2.811 . S
C1163 C1164 1.488 . S
C1163 O1182 1.215 . S
C1163 O1183 1.289 . S
C1164 C1163 1.488 . S
C1164 C1165 1.348 . S
C1164 C1169 1.413 . S
C1165 C1164 1.348 . S
C1165 C1166 1.442 . S
C1165 H1192 0.930 . S
C1166 C1165 1.442 . S
C1166 C1167 1.381 . S
C1166 H1193 0.931 . S
C1167 C1166 1.381 . S
C1167 C1168 1.321 . S
C1168 C1167 1.321 . S
C1168 C1169 1.403 . S
C1168 H1194 0.934 . S
C1169 C1164 1.413 . S
C1169 C1168 1.403 . S
C1169 H1195 0.930 . S
C1170 O1184 1.275 . S
C1170 O1185 1.256 . S
C1171 O1186 1.259 . S
C1171 O1187 1.268 . S
C1172 Ho1161 2.811 1_556 S
C1172 C1173 1.488 . S
C1172 O1188 1.215 . S
C1172 O1189 1.289 . S
C1173 C1172 1.488 . S
C1173 C1174 1.348 . S
C1173 C1178 1.413 . S
C1174 C1173 1.348 . S
C1174 C1175 1.442 . S
C1174 H1196 0.930 . S
C1175 C1174 1.442 . S
C1175 C1176 1.381 . S
C1175 H1197 0.931 . S
C1176 C1175 1.381 . S
C1176 C1177 1.321 . S
C1177 C1176 1.321 . S
C1177 C1178 1.403 . S
C1177 H1198 0.934 . S
C1178 C1173 1.413 . S
C1178 C1177 1.403 . S
C1178 H1199 0.930 . S
C1179 O1190 1.275 . S
C1179 O1191 1.256 . S
O1180 Ho1160 2.322 . S
O1180 C1162 1.259 . S
O1181 Ho1161 2.346 . S
O1181 C1162 1.268 . S
O1182 Ho1160 2.378 . S
O1182 C1163 1.215 . S
O1183 Ho1160 2.524 . S
O1183 C1163 1.289 . S
O1184 Ho1160 2.381 1_556 S
O1184 C1170 1.275 . S
O1185 Ho1160 2.669 1_556 S
O1185 Ho1161 2.305 1_556 S
O1185 C1170 1.256 . S
O1186 Ho1161 2.322 1_556 S
O1186 C1171 1.259 . S
O1187 Ho1160 2.346 1_556 S
O1187 C1171 1.268 . S
O1188 Ho1161 2.378 1_556 S
O1188 C1172 1.215 . S
O1189 Ho1161 2.524 1_556 S
O1189 C1172 1.289 . S
O1190 Ho1161 2.381 . S
O1190 C1179 1.275 . S
O1191 Ho1160 2.305 . S
O1191 Ho1161 2.669 . S
O1191 C1179 1.256 . S
H1192 C1165 0.930 . S
H1193 C1166 0.931 . S
H1194 C1168 0.934 . S
H1195 C1169 0.930 . S
H1196 C1174 0.930 . S
H1197 C1175 0.931 . S
H1198 C1177 0.934 . S
H1199 C1178 0.930 . S
Ho1200 C1203 2.811 . S
Ho1200 O1220 2.322 . S
Ho1200 O1222 2.378 . S
Ho1200 O1223 2.524 . S
Ho1200 O1224 2.381 . S
Ho1200 O1225 2.669 . S
Ho1200 O1227 2.346 . S
Ho1200 O1231 2.305 . S
Ho1201 C1212 2.811 . S
Ho1201 O1221 2.346 . S
Ho1201 O1225 2.305 . S
Ho1201 O1226 2.322 . S
Ho1201 O1228 2.378 . S
Ho1201 O1229 2.524 . S
Ho1201 O1230 2.381 . S
Ho1201 O1231 2.669 . S
C1202 O1220 1.259 . S
C1202 O1221 1.268 . S
C1203 Ho1200 2.811 . S
C1203 C1204 1.488 1_455 S
C1203 O1222 1.215 . S
C1203 O1223 1.289 . S
C1204 C1203 1.488 1_655 S
C1204 C1205 1.348 . S
C1204 C1209 1.413 . S
C1205 C1204 1.348 . S
C1205 C1206 1.442 . S
C1205 H1232 0.930 1_655 S
C1206 C1205 1.442 . S
C1206 C1207 1.381 . S
C1206 H1233 0.931 . S
C1207 C1206 1.381 . S
C1207 C1208 1.321 . S
C1208 C1207 1.321 . S
C1208 C1209 1.403 . S
C1208 H1234 0.934 . S
C1209 C1204 1.413 . S
C1209 C1208 1.403 . S
C1209 H1235 0.930 . S
C1210 O1224 1.275 . S
C1210 O1225 1.256 . S
C1211 O1226 1.259 . S
C1211 O1227 1.268 . S
C1212 Ho1201 2.811 . S
C1212 C1213 1.488 . S
C1212 O1228 1.215 . S
C1212 O1229 1.289 . S
C1213 C1212 1.488 . S
C1213 C1214 1.348 . S
C1213 C1218 1.413 . S
C1214 C1213 1.348 . S
C1214 C1215 1.442 . S
C1214 H1236 0.930 . S
C1215 C1214 1.442 . S
C1215 C1216 1.381 . S
C1215 H1237 0.931 . S
C1216 C1215 1.381 . S
C1216 C1217 1.321 . S
C1217 C1216 1.321 . S
C1217 C1218 1.403 . S
C1217 H1238 0.934 . S
C1218 C1213 1.413 . S
C1218 C1217 1.403 . S
C1218 H1239 0.930 . S
C1219 O1230 1.275 . S
C1219 O1231 1.256 . S
O1220 Ho1200 2.322 . S
O1220 C1202 1.259 . S
O1221 Ho1201 2.346 . S
O1221 C1202 1.268 . S
O1222 Ho1200 2.378 . S
O1222 C1203 1.215 . S
O1223 Ho1200 2.524 . S
O1223 C1203 1.289 . S
O1224 Ho1200 2.381 . S
O1224 C1210 1.275 . S
O1225 Ho1200 2.669 . S
O1225 Ho1201 2.305 . S
O1225 C1210 1.256 . S
O1226 Ho1201 2.322 . S
O1226 C1211 1.259 . S
O1227 Ho1200 2.346 . S
O1227 C1211 1.268 . S
O1228 Ho1201 2.378 . S
O1228 C1212 1.215 . S
O1229 Ho1201 2.524 . S
O1229 C1212 1.289 . S
O1230 Ho1201 2.381 . S
O1230 C1219 1.275 . S
O1231 Ho1200 2.305 . S
O1231 Ho1201 2.669 . S
O1231 C1219 1.256 . S
H1232 C1205 0.930 1_455 S
H1233 C1206 0.931 . S
H1234 C1208 0.934 . S
H1235 C1209 0.930 . S
H1236 C1214 0.930 . S
H1237 C1215 0.931 . S
H1238 C1217 0.934 . S
H1239 C1218 0.930 . S
Ho1240 C1243 2.811 . S
Ho1240 O1260 2.322 . S
Ho1240 O1262 2.378 . S
Ho1240 O1263 2.524 . S
Ho1240 O1264 2.381 . S
Ho1240 O1265 2.669 . S
Ho1240 O1267 2.346 . S
Ho1240 O1271 2.305 . S
Ho1241 C1252 2.811 . S
Ho1241 O1261 2.346 . S
Ho1241 O1265 2.305 . S
Ho1241 O1266 2.322 . S
Ho1241 O1268 2.378 . S
Ho1241 O1269 2.524 . S
Ho1241 O1270 2.381 . S
Ho1241 O1271 2.669 . S
C1242 O1260 1.259 . S
C1242 O1261 1.268 . S
C1243 Ho1240 2.811 . S
C1243 C1244 1.488 . S
C1243 O1262 1.215 . S
C1243 O1263 1.289 . S
C1244 C1243 1.488 . S
C1244 C1245 1.348 . S
C1244 C1249 1.413 . S
C1245 C1244 1.348 . S
C1245 C1246 1.442 . S
C1245 H1272 0.930 . S
C1246 C1245 1.442 . S
C1246 C1247 1.381 . S
C1246 H1273 0.931 . S
C1247 C1246 1.381 . S
C1247 C1248 1.321 . S
C1248 C1247 1.321 . S
C1248 C1249 1.403 . S
C1248 H1274 0.934 . S
C1249 C1244 1.413 . S
C1249 C1248 1.403 . S
C1249 H1275 0.930 . S
C1250 O1264 1.275 . S
C1250 O1265 1.256 . S
C1251 O1266 1.259 . S
C1251 O1267 1.268 . S
C1252 Ho1241 2.811 . S
C1252 C1253 1.488 . S
C1252 O1268 1.215 . S
C1252 O1269 1.289 . S
C1253 C1252 1.488 . S
C1253 C1254 1.348 . S
C1253 C1258 1.413 . S
C1254 C1253 1.348 . S
C1254 C1255 1.442 . S
C1254 H1276 0.930 . S
C1255 C1254 1.442 . S
C1255 C1256 1.381 . S
C1255 H1277 0.931 . S
C1256 C1255 1.381 . S
C1256 C1257 1.321 . S
C1257 C1256 1.321 . S
C1257 C1258 1.403 . S
C1257 H1278 0.934 . S
C1258 C1253 1.413 . S
C1258 C1257 1.403 . S
C1258 H1279 0.930 . S
C1259 O1270 1.275 . S
C1259 O1271 1.256 . S
O1260 Ho1240 2.322 . S
O1260 C1242 1.259 . S
O1261 Ho1241 2.346 . S
O1261 C1242 1.268 . S
O1262 Ho1240 2.378 . S
O1262 C1243 1.215 . S
O1263 Ho1240 2.524 . S
O1263 C1243 1.289 . S
O1264 Ho1240 2.381 . S
O1264 C1250 1.275 . S
O1265 Ho1240 2.669 . S
O1265 Ho1241 2.305 . S
O1265 C1250 1.256 . S
O1266 Ho1241 2.322 . S
O1266 C1251 1.259 . S
O1267 Ho1240 2.346 . S
O1267 C1251 1.268 . S
O1268 Ho1241 2.378 . S
O1268 C1252 1.215 . S
O1269 Ho1241 2.524 . S
O1269 C1252 1.289 . S
O1270 Ho1241 2.381 . S
O1270 C1259 1.275 . S
O1271 Ho1240 2.305 . S
O1271 Ho1241 2.669 . S
O1271 C1259 1.256 . S
H1272 C1245 0.930 . S
H1273 C1246 0.931 . S
H1274 C1248 0.934 . S
H1275 C1249 0.930 . S
H1276 C1254 0.930 . S
H1277 C1255 0.931 . S
H1278 C1257 0.934 . S
H1279 C1258 0.930 . S
C7 C131 0.538 . S
C11 C47 0.539 . S
C87 C51 0.538 . S
C91 C127 0.539 . S
C211 C167 0.538 . S
C207 C251 0.539 . S
C291 C247 0.538 . S
C171 C287 0.539 . S
C336 C442 0.538 . S
C376 C322 0.539 . S
C416 C362 0.538 . S
C456 C402 0.539 . S
C496 C522 0.538 . S
C536 C562 0.539 . S
C602 C576 0.538 . S
C482 C616 0.539 . S
C647 C771 0.538 . S
C651 C687 0.539 . S
C691 C727 0.538 . S
C767 C731 0.539 . S
C807 C851 0.538 . S
C891 C847 0.539 . S
C887 C931 0.538 . S
C811 C927 0.539 . S
C1082 C976 0.538 . S
C962 C1016 0.539 . S
C1056 C1002 0.538 . S
C1042 C1096 0.539 . S
C1162 C1136 0.538 . S
C1202 C1176 0.539 . S
C1242 C1216 0.538 . S
C1256 C1122 0.539 . S
C1087 C10 1.923 . S
C50 C327 1.923 . S
C90 C1007 1.923 . S
C130 C407 1.923 . S
C170 C1167 1.923 . S
C567 C210 1.923 . S
C1247 C250 1.923 . S
C290 C487 1.923 . S
C339 C776 1.923 . S
C16 C379 1.923 . S
C696 C419 1.923 . S
C96 C459 1.923 . S
C856 C499 1.923 . S
C256 C539 1.923 . S
C579 C936 1.923 . S
C619 C176 1.923 . S
C650 C447 1.923 . S
C690 C967 1.923 . S
C730 C367 1.923 . S
C770 C1047 1.923 . S
C810 C527 1.923 . S
C850 C1207 1.923 . S
C607 C890 1.923 . S
C930 C1127 1.923 . S
C136 C979 1.923 . S
C656 C1019 1.923 . S
C56 C1059 1.923 . S
C736 C1099 1.923 . S
C216 C1139 1.923 . S
C1179 C896 1.923 . S
C1219 C296 1.923 . S
C816 C1259 1.923 . S
C19 C179 2.859 1_545 S
C59 C219 2.860 . S
C99 C259 2.859 1_565 S
C299 C139 2.860 1_554 S
C490 C330 2.859 1_545 S
C530 C370 2.860 . S
C410 C570 2.859 1_545 S
C450 C610 2.860 1_554 S
C659 C819 2.859 . S
C859 C699 2.860 1_554 S
C899 C739 2.859 . S
C939 C779 2.860 . S
C1130 C970 2.859 . S
C1010 C1170 2.860 1_554 S
C1210 C1050 2.859 . S
C1090 C1250 2.860 . S
C282 C2 3.857 . S
C42 C162 3.857 . S
C82 C202 3.857 . S
C242 C122 3.857 . S
C331 C611 3.857 . S
C491 C371 3.857 . S
C531 C411 3.857 . S
C451 C571 3.857 . S
C642 C922 3.857 . S
C802 C682 3.857 . S
C842 C722 3.857 . S
C882 C762 3.857 . S
C971 C1251 3.857 . S
C1131 C1011 3.857 . S
C1051 C1171 3.857 . S
C1211 C1091 3.857 . S
