# Generated by pormake.
# Topology rob, (6)-cn, num edge types: 1
# Building blocks:
#     Node 0, Type 0, BuildingBlock: PAMTOO_clean_sbu_0, # of connection points: 6
#     Node 1, Type 0, BuildingBlock: PAMTOO_clean_sbu_0, # of connection points: 6
#     Node 2, Type 0, BuildingBlock: PAMTOO_clean_sbu_0, # of connection points: 6
#     Node 3, Type 0, BuildingBlock: PAMTOO_clean_sbu_0, # of connection points: 6
#     Edge 4, Type (0, 0), BuildingBlock: XIVTED_clean_linker_0, # of connection points: 2
#     Edge 5, Type (0, 0), BuildingBlock: XIVTED_clean_linker_0, # of connection points: 2
#     Edge 6, Type (0, 0), BuildingBlock: XIVTED_clean_linker_0, # of connection points: 2
#     Edge 7, Type (0, 0), BuildingBlock: XIVTED_clean_linker_0, # of connection points: 2
#     Edge 8, Type (0, 0), BuildingBlock: XIVTED_clean_linker_0, # of connection points: 2
#     Edge 9, Type (0, 0), BuildingBlock: XIVTED_clean_linker_0, # of connection points: 2
#     Edge 10, Type (0, 0), BuildingBlock: XIVTED_clean_linker_0, # of connection points: 2
#     Edge 11, Type (0, 0), BuildingBlock: XIVTED_clean_linker_0, # of connection points: 2
#     Edge 12, Type (0, 0), BuildingBlock: XIVTED_clean_linker_0, # of connection points: 2
#     Edge 13, Type (0, 0), BuildingBlock: XIVTED_clean_linker_0, # of connection points: 2
#     Edge 14, Type (0, 0), BuildingBlock: XIVTED_clean_linker_0, # of connection points: 2
#     Edge 15, Type (0, 0), BuildingBlock: XIVTED_clean_linker_0, # of connection points: 2
# Relax obj value: 0.079
# Max RMSD: 0.196
# Mean RMSD: 0.196
data_MOF--net-rob--node1-PAMTOO_clean_sbu_0--edge1-XIVTED_clean_linker_0
_symmetry_space_group_name_H-M    P1
_symmetry_Int_Tables_number       1
_symmetry_cell_setting            triclinic
loop_
_symmetry_equiv_pos_as_xyz
'x, y, z'
_cell_length_a     16.485336
_cell_length_b     26.078916
_cell_length_c     36.149296
_cell_angle_alpha  102.37864
_cell_angle_beta   89.878856
_cell_angle_gamma 90.045152
loop_
_atom_site_label
_atom_site_type_symbol
_atom_site_fract_x
_atom_site_fract_y
_atom_site_fract_z
_atom_type_partial_charge
Dy0 Dy 0.30889 0.20184 0.98654 0.0
Dy1 Dy 0.16286 0.27262 0.03526 0.0
C2 C 0.32361 0.32473 1.01266 0.0
O3 O 0.34709 0.21356 0.0474 0.0
O4 O 0.22061 0.22819 0.0744 0.0
O5 O 0.43429 0.19185 0.96871 0.0
O6 O 0.3448 0.13336 0.94484 0.0
O7 O 0.11288 0.19228 1.01306 0.0
O8 O 0.23081 0.14474 1.00787 0.0
O9 O 0.15519 0.28984 0.97725 0.0
O10 O 0.21055 0.21182 0.9464 0.0
O11 O 0.03629 0.28904 0.04888 0.0
O12 O 0.1296 0.33784 0.08038 0.0
C13 C 0.29779 0.21673 0.07654 0.0
O14 O 0.33099 0.28519 0.98366 0.0
O15 O 0.27405 0.32221 0.04055 0.0
C16 C 0.44307 0.15425 0.90356 0.0
C17 C 0.48859 0.16051 0.82932 0.0
C18 C 0.42533 0.1919 0.84812 0.0
C19 C 0.40292 0.18885 0.88491 0.0
C20 C 0.50576 0.12262 0.88498 0.0
C21 C 0.52846 0.12575 0.84818 0.0
C22 C 0.4182 0.15079 0.94204 0.0
C23 C 0.15147 0.1476 1.01053 0.0
C24 C 0.16962 0.25482 0.94591 0.0
C25 C 0.01928 0.31706 0.11499 0.0
C26 C 0.96923 0.30426 0.18718 0.0
C27 C 0.00434 0.26226 0.16109 0.0
C28 C 0.02926 0.26864 0.12542 0.0
C29 C 0.98369 0.35899 0.14065 0.0
C30 C 0.95879 0.35267 0.17648 0.0
C31 C 0.05321 0.32497 0.07897 0.0
H32 H 0.39407 0.21956 0.8347 0.0
H33 H 0.35431 0.21363 0.89888 0.0
H34 H 0.53702 0.09547 0.89889 0.0
H35 H 0.57678 0.1006 0.83436 0.0
H36 H 0.01456 0.22474 0.16859 0.0
H37 H 0.05799 0.23603 0.10624 0.0
H38 H 0.97644 0.39682 0.13322 0.0
H39 H 0.93136 0.38564 0.19579 0.0
Dy40 Dy 0.81424 0.70113 0.99674 0.0
Dy41 Dy 0.66973 0.7728 0.04666 0.0
C42 C 0.8254 0.82609 0.0208 0.0
O43 O 0.82306 0.6836 0.05442 0.0
O44 O 0.76962 0.7619 0.0859 0.0
O45 O 0.94007 0.68892 0.98 0.0
O46 O 0.84943 0.63237 0.955 0.0
O47 O 0.64657 0.68928 0.04878 0.0
O48 O 0.7019 0.65267 0.99141 0.0
O49 O 0.62875 0.76194 0.98623 0.0
O50 O 0.75265 0.74251 0.95699 0.0
O51 O 0.54486 0.78464 0.06485 0.0
O52 O 0.63705 0.84043 0.08995 0.0
C53 C 0.81026 0.7186 0.08587 0.0
O54 O 0.86392 0.78157 0.0191 0.0
O55 O 0.74613 0.82899 0.02361 0.0
C56 C 0.95132 0.65138 0.91488 0.0
C57 C -0.00411 0.65472 0.84006 0.0
C58 C 0.94663 0.6942 0.86148 0.0
C59 C 0.92482 0.69262 0.89857 0.0
C60 C 0.00057 0.61193 0.89377 0.0
C61 C 0.02305 0.61368 0.85668 0.0
C62 C 0.9238 0.64834 0.95306 0.0
C63 C 0.65282 0.65007 0.01947 0.0
C64 C 0.67576 0.75524 0.95602 0.0
C65 C 0.53816 0.81853 0.13054 0.0
C66 C 0.49353 0.80737 0.20383 0.0
C67 C 0.54737 0.7716 0.18163 0.0
C68 C 0.56954 0.77719 0.1454 0.0
C69 C 0.48522 0.85472 0.1526 0.0
C70 C 0.46314 0.84927 0.18903 0.0
C71 C 0.56285 0.82412 0.09248 0.0
H72 H 0.92574 0.72673 0.84975 0.0
H73 H 0.88692 0.72353 0.91448 0.0
H74 H 0.021 0.57959 0.90583 0.0
H75 H 0.06059 0.5825 0.84079 0.0
H76 H 0.57291 0.73943 0.19237 0.0
H77 H 0.61139 0.74923 0.12894 0.0
H78 H 0.46086 0.88705 0.14163 0.0
H79 H 0.42114 0.87723 0.20532 0.0
Dy80 Dy 0.30442 0.77147 0.54738 0.0
Dy81 Dy 0.16346 0.69835 0.49625 0.0
C82 C 0.32385 0.64659 0.52 0.0
O83 O 0.31746 0.78889 0.48969 0.0
O84 O 0.26181 0.71182 0.45679 0.0
O85 O 0.42858 0.79332 0.56268 0.0
O86 O 0.32918 0.83502 0.59497 0.0
O87 O 0.13871 0.78084 0.49247 0.0
O88 O 0.19269 0.82028 0.54952 0.0
O89 O 0.12328 0.70862 0.55681 0.0
O90 O 0.24886 0.72283 0.5842 0.0
O91 O 0.03812 0.68465 0.47965 0.0
O92 O 0.13137 0.63098 0.45267 0.0
C93 C 0.30482 0.75457 0.45783 0.0
O94 O 0.36017 0.69254 0.52569 0.0
O95 O 0.245 0.64168 0.51568 0.0
C96 C 0.44203 0.81822 0.62936 0.0
C97 C 0.49165 0.80364 0.70103 0.0
C98 C 0.47392 0.76021 0.6717 0.0
C99 C 0.44884 0.76744 0.63627 0.0
C100 C 0.46059 0.86163 0.65835 0.0
C101 C 0.48508 0.85444 0.69394 0.0
C102 C 0.40697 0.8263 0.59365 0.0
C103 C 0.14473 0.82129 0.52084 0.0
C104 C 0.1721 0.71034 0.58581 0.0
C105 C 0.02919 0.65252 0.41391 0.0
C106 C 0.98241 0.66466 0.34132 0.0
C107 C 0.03135 0.70256 0.36452 0.0
C108 C 0.05466 0.69647 0.40039 0.0
C109 C 0.98087 0.61433 0.39093 0.0
C110 C 0.9577 0.62029 0.35481 0.0
C111 C 0.0563 0.64612 0.45134 0.0
H112 H 0.47738 0.72064 0.67645 0.0
H113 H 0.43296 0.7334 0.61455 0.0
H114 H 0.4545 0.90113 0.65369 0.0
H115 H 0.49897 0.8886 0.71589 0.0
H116 H 0.05253 0.7367 0.35474 0.0
H117 H 0.09309 0.72598 0.41755 0.0
H118 H 0.96126 0.57997 0.40087 0.0
H119 H 0.91958 0.59061 0.33767 0.0
Dy120 Dy 0.81687 0.27066 0.53511 0.0
Dy121 Dy 0.66979 0.2002 0.48611 0.0
C122 C 0.82641 0.14499 0.51065 0.0
O123 O 0.82623 0.28698 0.47691 0.0
O124 O 0.76859 0.20973 0.44589 0.0
O125 O 0.94328 0.28779 0.5486 0.0
O126 O 0.84916 0.3354 0.58067 0.0
O127 O 0.64875 0.28356 0.4832 0.0
O128 O 0.70702 0.32131 0.53964 0.0
O129 O 0.63194 0.21143 0.5471 0.0
O130 O 0.75831 0.22621 0.57401 0.0
O131 O 0.54395 0.19097 0.46907 0.0
O132 O 0.63259 0.13259 0.44396 0.0
C133 C 0.8111 0.25221 0.44556 0.0
O134 O 0.86594 0.18965 0.51469 0.0
O135 O 0.74735 0.14207 0.50635 0.0
C136 C 0.9607 0.31575 0.61475 0.0
C137 C 0.01168 0.30397 0.68697 0.0
C138 C 0.97739 0.26147 0.66107 0.0
C139 C 0.95197 0.26735 0.62537 0.0
C140 C -0.0044 0.35813 0.64021 0.0
C141 C 0.02094 0.35232 0.67605 0.0
C142 C 0.92588 0.32334 0.57888 0.0
C143 C 0.65731 0.32348 0.51182 0.0
C144 C 0.68126 0.21443 0.57613 0.0
C145 C 0.53277 0.15437 0.40384 0.0
C146 C 0.4835 0.16219 0.33046 0.0
C147 C 0.55001 0.1914 0.34803 0.0
C148 C 0.57427 0.1876 0.38439 0.0
C149 C 0.46678 0.12495 0.38649 0.0
C150 C 0.44223 0.12885 0.35012 0.0
C151 C 0.55913 0.15026 0.44196 0.0
H152 H 0.96811 0.22396 0.66874 0.0
H153 H 0.92372 0.2344 0.60637 0.0
H154 H 0.00185 0.39595 0.63264 0.0
H155 H 0.04774 0.38566 0.69519 0.0
H156 H 0.58248 0.21796 0.33399 0.0
H157 H 0.62536 0.21074 0.39742 0.0
H158 H 0.43432 0.09894 0.40103 0.0
H159 H 0.39138 0.10537 0.33727 0.0
H160 H 0.65045 0.56098 0.9634 0.0
H161 H 0.32474 0.41419 0.06843 0.0
H162 H 0.54496 0.62947 0.07224 0.0
H163 H 0.43169 0.34533 0.95999 0.0
H164 H 0.4045 0.49348 0.07019 0.0
H165 H 0.57034 0.48184 0.96157 0.0
C166 C 0.61044 0.55943 0.98694 0.0
C167 C 0.60443 0.60199 0.01803 0.0
C168 C 0.41054 0.46104 0.04601 0.0
C169 C 0.51248 0.51134 0.01609 0.0
C170 C 0.36497 0.41569 0.04496 0.0
C171 C 0.37153 0.37298 1.014 0.0
C172 C 0.46308 0.46378 0.01588 0.0
C173 C 0.42469 0.37726 0.98443 0.0
C174 C 0.56469 0.51416 0.98586 0.0
C175 C 0.55154 0.59766 0.04769 0.0
N176 N 0.46842 0.42187 0.98612 0.0
N177 N 0.50761 0.55312 0.04597 0.0
H178 H 0.28075 0.54495 0.49051 0.0
H179 H 0.68165 0.42068 0.55705 0.0
H180 H 0.47856 0.63963 0.546 0.0
H181 H 0.52508 0.33624 0.46908 0.0
H182 H 0.6012 0.49994 0.55886 0.0
H183 H 0.3628 0.46632 0.48806 0.0
C184 C 0.34139 0.5492 0.50226 0.0
C185 C 0.37297 0.5989 0.51845 0.0
C186 C 0.58472 0.46407 0.5391 0.0
C187 C 0.46685 0.5091 0.51586 0.0
C188 C 0.63033 0.41878 0.53814 0.0
C189 C 0.60995 0.37178 0.51288 0.0
C190 C 0.51761 0.46213 0.51502 0.0
C191 C 0.54308 0.37166 0.48891 0.0
C192 C 0.38827 0.50433 0.50067 0.0
C193 C 0.45205 0.60208 0.53307 0.0
N194 N 0.49896 0.4161 0.49074 0.0
N195 N 0.4962 0.55771 0.53162 0.0
H196 H 0.20836 0.0476 1.00543 0.0
H197 H 0.76831 0.92575 0.02459 0.0
H198 H 0.98699 0.13825 0.01771 0.0
H199 H -0.01012 0.83538 1.01357 0.0
H200 H 0.84739 0.00392 0.02167 0.0
H201 H 0.12918 0.96925 1.00778 0.0
C202 C 0.14312 0.05108 1.00857 0.0
C203 C 0.10431 0.09964 1.01136 0.0
C204 C 0.87872 0.967 0.01991 0.0
C205 C 0.01329 0.01001 1.01413 0.0
C206 C 0.83358 0.92229 0.0216 0.0
C207 C 0.87249 0.87388 0.01939 0.0
C208 C 0.96341 0.96332 0.01596 0.0
C209 C 0.95725 0.87186 0.01547 0.0
C210 C 0.09793 0.00628 1.00993 0.0
C211 C 0.01957 0.10168 1.0154 0.0
N212 N -0.00016 0.91593 1.01388 0.0
N213 N 0.97694 0.05751 0.01669 0.0
H214 H 0.77898 0.04309 0.48468 0.0
H215 H 0.16615 0.91978 0.56465 0.0
H216 H 0.97788 0.1372 0.53961 0.0
H217 H 0.01574 0.83176 0.47554 0.0
H218 H 0.08821 -0.00119 0.56232 0.0
H219 H 0.85593 0.96377 0.48746 0.0
C220 C 0.83877 0.04706 0.49736 0.0
C221 C 0.87226 0.09678 0.51182 0.0
C222 C 0.07242 0.96217 0.54328 0.0
C223 C 0.96002 0.00637 0.51536 0.0
C224 C 0.11657 0.91702 0.5447 0.0
C225 C 0.09743 0.86914 0.52021 0.0
C226 C 0.00799 0.95924 0.51759 0.0
C227 C 0.03277 0.86791 0.49483 0.0
C228 C 0.88268 0.00182 0.4988 0.0
C229 C 0.95004 0.09964 0.52785 0.0
N230 N -0.00992 0.91228 0.49429 0.0
N231 N -0.00884 0.05502 0.52938 0.0
H232 H 0.32779 0.1676 0.30513 0.0
H233 H 0.45495 0.19843 0.09659 0.0
H234 H 0.57695 0.16909 0.26846 0.0
H235 H 0.20944 0.21094 0.13953 0.0
H236 H 0.50152 0.18295 0.15772 0.0
H237 H 0.2839 0.17812 0.24282 0.0
C238 C 0.37335 0.16969 0.28388 0.0
C239 C 0.45625 0.16742 0.29216 0.0
C240 C 0.43748 0.18903 0.15364 0.0
C241 C 0.40627 0.18018 0.22054 0.0
C242 C 0.41084 0.19779 0.11873 0.0
C243 C 0.32815 0.20614 0.11282 0.0
C244 C 0.38098 0.18838 0.18275 0.0
C245 C 0.27381 0.2049 0.14264 0.0
C246 C 0.34824 0.17608 0.2483 0.0
C247 C 0.51243 0.17127 0.26353 0.0
N248 N 0.30117 0.19623 0.17616 0.0
N249 N 0.48645 0.17744 0.22903 0.0
H250 H 0.45178 0.71576 0.22413 0.0
H251 H 0.37539 0.8443 0.44344 0.0
H252 H 0.47689 0.88191 0.27011 0.0
H253 H 0.30942 0.68568 0.38942 0.0
H254 H 0.42387 0.85824 0.38205 0.0
H255 H 0.41077 0.70339 0.28642 0.0
C256 C 0.44914 0.74967 0.24742 0.0
C257 C 0.468 0.79995 0.24184 0.0
C258 C 0.39888 0.82041 0.38378 0.0
C259 C 0.42025 0.7861 0.31352 0.0
C260 C 0.37154 0.81234 0.41882 0.0
C261 C 0.33819 0.76375 0.42167 0.0
C262 C 0.39339 0.77944 0.3515 0.0
C263 C 0.33438 0.72386 0.38872 0.0
C264 C 0.4252 0.74262 0.283 0.0
C265 C 0.46217 0.84252 0.27304 0.0
N266 N 0.36163 0.7326 0.35517 0.0
N267 N 0.43901 0.83463 0.30759 0.0
H268 H 0.53702 0.80727 0.94196 0.0
H269 H 0.60051 0.73258 0.71708 0.0
H270 H 0.74014 0.71835 0.88612 0.0
H271 H 0.43924 0.85655 0.77106 0.0
H272 H 0.64082 0.71959 0.77936 0.0
H273 H 0.4888 0.81892 0.87989 0.0
C274 C 0.57123 0.7901 0.91674 0.0
C275 C 0.643 0.76213 0.91929 0.0
C276 C 0.59663 0.7497 0.77765 0.0
C277 C 0.58817 0.77492 0.84853 0.0
C278 C 0.57331 0.75693 0.74208 0.0
C279 C 0.51662 0.79578 0.73888 0.0
C280 C 0.56259 0.78123 0.81042 0.0
C281 C 0.48389 0.82655 0.7723 0.0
C282 C 0.54393 0.79692 0.88141 0.0
C283 C 0.68502 0.74074 0.88568 0.0
N284 N 0.50716 0.81853 0.80673 0.0
N285 N 0.65692 0.74747 0.85183 0.0
H286 H 0.77118 0.20424 0.63739 0.0
H287 H 0.39266 0.17088 0.76905 0.0
H288 H 0.52365 0.19936 0.59784 0.0
H289 H 0.64311 0.16104 0.80138 0.0
H290 H 0.43742 0.18175 0.7065 0.0
H291 H 0.72343 0.1886 0.69754 0.0
C292 C 0.70656 0.19983 0.64126 0.0
C293 C 0.65133 0.20332 0.61235 0.0
C294 C 0.48248 0.17696 0.72724 0.0
C295 C 0.59596 0.18534 0.68186 0.0
C296 C 0.45704 0.17104 0.76304 0.0
C297 C 0.51422 0.16508 0.79063 0.0
C298 C 0.56574 0.17726 0.71899 0.0
C299 C 0.59676 0.16487 0.78098 0.0
C300 C 0.67932 0.19076 0.67577 0.0
C301 C 0.56842 0.19696 0.61926 0.0
N302 N 0.6199 0.17109 0.74613 0.0
N303 N 0.54317 0.18851 0.6534 0.0
H304 H 0.88359 0.63025 0.10074 0.0
H305 H 0.9286 0.75471 0.32248 0.0
H306 H 0.80412 0.7861 0.15489 0.0
H307 H 0.97817 0.5917 0.27393 0.0
H308 H 0.89031 0.76753 0.26003 0.0
H309 H 0.92643 0.61599 0.16271 0.0
C310 C 0.87557 0.66155 0.12553 0.0
C311 C 0.84029 0.70948 0.12252 0.0
C312 C 0.90945 0.72888 0.26293 0.0
C313 C 0.88884 0.69335 0.19338 0.0
C314 C 0.93173 0.72161 0.2986 0.0
C315 C 0.95689 0.67209 0.30344 0.0
C316 C 0.9125 0.68641 0.23162 0.0
C317 C 0.95847 0.63043 0.27152 0.0
C318 C 0.89973 0.65329 0.1609 0.0
C319 C 0.83102 0.74851 0.15568 0.0
N320 N 0.93685 0.63855 0.23691 0.0
N321 N 0.85513 0.73957 0.1896 0.0
H322 H 0.8929 0.3375 0.42983 0.0
H323 H 0.89328 0.21988 0.20579 0.0
H324 H 0.79252 0.18692 0.37623 0.0
H325 H -0.0103 0.37287 0.25587 0.0
H326 H 0.85819 0.20746 0.26878 0.0
H327 H 0.93186 0.35142 0.36714 0.0
C328 C 0.87948 0.30727 0.40501 0.0
C329 C 0.83946 0.26094 0.40843 0.0
C330 C 0.88696 0.24383 0.26611 0.0
C331 C 0.88333 0.27674 0.3367 0.0
C332 C 0.90734 0.25085 0.23008 0.0
C333 C 0.94478 0.29742 0.22547 0.0
C334 C 0.90413 0.2836 0.29802 0.0
C335 C 0.96019 0.33654 0.25804 0.0
C336 C 0.90149 0.31531 0.36923 0.0
C337 C 0.82331 0.22326 0.37519 0.0
N338 N 0.94003 0.32869 0.29295 0.0
N339 N 0.84517 0.23204 0.34088 0.0
H340 H 0.08974 0.22068 0.70596 0.0
H341 H 0.08818 0.34002 0.92986 0.0
H342 H -0.01008 0.37293 0.75547 0.0
H343 H 0.18968 0.18956 0.87667 0.0
H344 H 0.0497 0.35344 0.86702 0.0
H345 H 0.1255 0.20929 0.76906 0.0
C346 C 0.07506 0.2517 0.73015 0.0
C347 C 0.03646 0.29775 0.72533 0.0
C348 C 0.08024 0.31748 0.86924 0.0
C349 C 0.07785 0.28512 0.79804 0.0
C350 C 0.10199 0.30974 0.90511 0.0
C351 C 0.14206 0.26354 0.90869 0.0
C352 C 0.09875 0.27876 0.83681 0.0
C353 C 0.15874 0.22578 0.87553 0.0
C354 C 0.09583 0.24528 0.76624 0.0
C355 C 0.02031 0.33698 0.75778 0.0
N356 N 0.13713 0.23427 0.84116 0.0
N357 N 0.04084 0.32972 0.79277 0.0
H358 H 0.01396 0.70014 0.60836 0.0
H359 H 0.14557 0.63596 0.80705 0.0
H360 H 0.26212 0.69029 0.64423 0.0
H361 H 0.90131 0.67923 0.7838 0.0
H362 H 0.18594 0.64436 0.74359 0.0
H363 H 0.9683 0.68197 0.66903 0.0
C364 C 0.05875 0.69387 0.62881 0.0
C365 C 0.14195 0.69706 0.62124 0.0
C366 C 0.12341 0.65188 0.75229 0.0
C367 C 0.09032 0.67609 0.6904 0.0
C368 C 0.10022 0.64673 0.78845 0.0
C369 C 0.02005 0.65715 0.80084 0.0
C370 C 0.06599 0.66732 0.72813 0.0
C371 C 0.96406 0.67155 0.77559 0.0
C372 C 0.0327 0.68366 0.66343 0.0
C373 C 0.19734 0.68863 0.64883 0.0
N374 N 0.98809 0.67628 0.74044 0.0
N375 N 0.17054 0.67858 0.68206 0.0
loop_
_geom_bond_atom_site_label_1
_geom_bond_atom_site_label_2
_geom_bond_distance
_geom_bond_site_symmetry_2
_ccdc_geom_bond_type
Dy0 O3 2.307 1_556 S
Dy0 O5 2.395 . S
Dy0 O6 2.379 . S
Dy0 O8 2.339 . S
Dy0 O10 2.298 . S
Dy0 O14 2.275 . S
Dy0 C22 2.738 . S
Dy1 O4 2.298 . S
Dy1 O7 2.275 . S
Dy1 O9 2.307 1_554 S
Dy1 O11 2.395 . S
Dy1 O12 2.379 . S
Dy1 O15 2.339 . S
Dy1 C31 2.738 . S
C2 O14 1.254 1_554 S
C2 O15 1.257 . S
O3 Dy0 2.307 1_554 S
O3 C13 1.266 . S
O4 Dy1 2.298 . S
O4 C13 1.236 . S
O5 Dy0 2.395 . S
O5 C22 1.255 . S
O6 Dy0 2.379 . S
O6 C22 1.249 . S
O7 Dy1 2.275 . S
O7 C23 1.254 1_554 S
O8 Dy0 2.339 . S
O8 C23 1.257 . S
O9 Dy1 2.307 1_556 S
O9 C24 1.266 . S
O10 Dy0 2.298 . S
O10 C24 1.236 . S
O11 Dy1 2.395 . S
O11 C31 1.255 . S
O12 Dy1 2.379 . S
O12 C31 1.249 . S
C13 O3 1.266 . S
C13 O4 1.236 . S
O14 Dy0 2.275 . S
O14 C2 1.254 1_556 S
O15 Dy1 2.339 . S
O15 C2 1.257 . S
C16 C19 1.344 . S
C16 C20 1.328 . S
C16 C22 1.516 . S
C17 C18 1.304 . S
C17 C21 1.323 . S
C18 C17 1.304 . S
C18 C19 1.371 . S
C18 H32 0.930 . S
C19 C16 1.344 . S
C19 C18 1.371 . S
C19 H33 0.931 . S
C20 C16 1.328 . S
C20 C21 1.433 . S
C20 H34 0.931 . S
C21 C17 1.323 . S
C21 C20 1.433 . S
C21 H35 0.933 . S
C22 Dy0 2.738 . S
C22 O5 1.255 . S
C22 O6 1.249 . S
C22 C16 1.516 . S
C23 O7 1.254 1_556 S
C23 O8 1.257 . S
C24 O9 1.266 . S
C24 O10 1.236 . S
C25 C28 1.344 . S
C25 C29 1.328 . S
C25 C31 1.516 . S
C26 C27 1.304 1_655 S
C26 C30 1.323 1_655 S
C27 C26 1.304 1_455 S
C27 C28 1.371 . S
C27 H36 0.931 . S
C28 C25 1.344 . S
C28 C27 1.371 . S
C28 H37 0.931 . S
C29 C25 1.328 . S
C29 C30 1.433 . S
C29 H38 0.931 . S
C30 C26 1.323 1_455 S
C30 C29 1.433 . S
C30 H39 0.933 1_455 S
C31 Dy1 2.738 . S
C31 O11 1.255 . S
C31 O12 1.249 . S
C31 C25 1.516 . S
H32 C18 0.930 . S
H33 C19 0.931 . S
H34 C20 0.931 . S
H35 C21 0.933 . S
H36 C27 0.931 . S
H37 C28 0.931 . S
H38 C29 0.931 . S
H39 C30 0.933 1_655 S
Dy40 O43 2.307 1_556 S
Dy40 O45 2.395 . S
Dy40 O46 2.379 . S
Dy40 O48 2.339 . S
Dy40 O50 2.298 . S
Dy40 O54 2.275 . S
Dy40 C62 2.738 . S
Dy41 O44 2.298 . S
Dy41 O47 2.275 . S
Dy41 O49 2.307 1_554 S
Dy41 O51 2.395 . S
Dy41 O52 2.379 . S
Dy41 O55 2.339 . S
Dy41 C71 2.738 . S
C42 O54 1.254 1_554 S
C42 O55 1.257 . S
O43 Dy40 2.307 1_554 S
O43 C53 1.266 . S
O44 Dy41 2.298 . S
O44 C53 1.236 . S
O45 Dy40 2.395 . S
O45 C62 1.255 . S
O46 Dy40 2.379 . S
O46 C62 1.249 . S
O47 Dy41 2.275 . S
O47 C63 1.254 1_554 S
O48 Dy40 2.339 . S
O48 C63 1.257 . S
O49 Dy41 2.307 1_556 S
O49 C64 1.266 . S
O50 Dy40 2.298 . S
O50 C64 1.236 . S
O51 Dy41 2.395 . S
O51 C71 1.255 . S
O52 Dy41 2.379 . S
O52 C71 1.249 . S
C53 O43 1.266 . S
C53 O44 1.236 . S
O54 Dy40 2.275 . S
O54 C42 1.254 1_556 S
O55 Dy41 2.339 . S
O55 C42 1.257 . S
C56 C59 1.344 . S
C56 C60 1.328 . S
C56 C62 1.516 . S
C57 C58 1.304 1_455 S
C57 C61 1.323 1_455 S
C58 C57 1.304 1_655 S
C58 C59 1.371 . S
C58 H72 0.931 . S
C59 C56 1.344 . S
C59 C58 1.371 . S
C59 H73 0.931 . S
C60 C56 1.328 . S
C60 C61 1.433 . S
C60 H74 0.931 . S
C61 C57 1.323 1_655 S
C61 C60 1.433 . S
C61 H75 0.933 1_655 S
C62 Dy40 2.738 . S
C62 O45 1.255 . S
C62 O46 1.249 . S
C62 C56 1.516 . S
C63 O47 1.254 1_556 S
C63 O48 1.257 . S
C64 O49 1.266 . S
C64 O50 1.236 . S
C65 C68 1.344 . S
C65 C69 1.328 . S
C65 C71 1.516 . S
C66 C67 1.304 . S
C66 C70 1.323 . S
C67 C66 1.304 . S
C67 C68 1.371 . S
C67 H76 0.930 . S
C68 C65 1.344 . S
C68 C67 1.371 . S
C68 H77 0.931 . S
C69 C65 1.328 . S
C69 C70 1.433 . S
C69 H78 0.931 . S
C70 C66 1.323 . S
C70 C69 1.433 . S
C70 H79 0.933 . S
C71 Dy41 2.738 . S
C71 O51 1.255 . S
C71 O52 1.249 . S
C71 C65 1.516 . S
H72 C58 0.931 . S
H73 C59 0.931 . S
H74 C60 0.931 . S
H75 C61 0.933 1_455 S
H76 C67 0.930 . S
H77 C68 0.931 . S
H78 C69 0.931 . S
H79 C70 0.933 . S
Dy80 O83 2.307 . S
Dy80 O85 2.395 . S
Dy80 O86 2.379 . S
Dy80 O88 2.339 . S
Dy80 O90 2.298 . S
Dy80 O94 2.275 . S
Dy80 C102 2.738 . S
Dy81 O84 2.298 . S
Dy81 O87 2.275 . S
Dy81 O89 2.307 . S
Dy81 O91 2.395 . S
Dy81 O92 2.379 . S
Dy81 O95 2.339 . S
Dy81 C111 2.738 . S
C82 O94 1.254 . S
C82 O95 1.257 . S
O83 Dy80 2.307 . S
O83 C93 1.266 . S
O84 Dy81 2.298 . S
O84 C93 1.236 . S
O85 Dy80 2.395 . S
O85 C102 1.255 . S
O86 Dy80 2.379 . S
O86 C102 1.249 . S
O87 Dy81 2.275 . S
O87 C103 1.254 . S
O88 Dy80 2.339 . S
O88 C103 1.257 . S
O89 Dy81 2.307 . S
O89 C104 1.266 . S
O90 Dy80 2.298 . S
O90 C104 1.236 . S
O91 Dy81 2.395 . S
O91 C111 1.255 . S
O92 Dy81 2.379 . S
O92 C111 1.249 . S
C93 O83 1.266 . S
C93 O84 1.236 . S
O94 Dy80 2.275 . S
O94 C82 1.254 . S
O95 Dy81 2.339 . S
O95 C82 1.257 . S
C96 C99 1.344 . S
C96 C100 1.328 . S
C96 C102 1.516 . S
C97 C98 1.304 . S
C97 C101 1.323 . S
C98 C97 1.304 . S
C98 C99 1.371 . S
C98 H112 0.930 . S
C99 C96 1.344 . S
C99 C98 1.371 . S
C99 H113 0.931 . S
C100 C96 1.328 . S
C100 C101 1.433 . S
C100 H114 0.931 . S
C101 C97 1.323 . S
C101 C100 1.433 . S
C101 H115 0.933 . S
C102 Dy80 2.738 . S
C102 O85 1.255 . S
C102 O86 1.249 . S
C102 C96 1.516 . S
C103 O87 1.254 . S
C103 O88 1.257 . S
C104 O89 1.266 . S
C104 O90 1.236 . S
C105 C108 1.344 . S
C105 C109 1.328 . S
C105 C111 1.516 . S
C106 C107 1.304 1_655 S
C106 C110 1.323 1_655 S
C107 C106 1.304 1_455 S
C107 C108 1.371 . S
C107 H116 0.931 . S
C108 C105 1.344 . S
C108 C107 1.371 . S
C108 H117 0.931 . S
C109 C105 1.328 . S
C109 C110 1.433 . S
C109 H118 0.931 . S
C110 C106 1.323 1_455 S
C110 C109 1.433 . S
C110 H119 0.933 1_455 S
C111 Dy81 2.738 . S
C111 O91 1.255 . S
C111 O92 1.249 . S
C111 C105 1.516 . S
H112 C98 0.930 . S
H113 C99 0.931 . S
H114 C100 0.931 . S
H115 C101 0.933 . S
H116 C107 0.931 . S
H117 C108 0.931 . S
H118 C109 0.931 . S
H119 C110 0.933 1_655 S
Dy120 O123 2.307 . S
Dy120 O125 2.395 . S
Dy120 O126 2.379 . S
Dy120 O128 2.339 . S
Dy120 O130 2.298 . S
Dy120 O134 2.275 . S
Dy120 C142 2.738 . S
Dy121 O124 2.298 . S
Dy121 O127 2.275 . S
Dy121 O129 2.307 . S
Dy121 O131 2.395 . S
Dy121 O132 2.379 . S
Dy121 O135 2.339 . S
Dy121 C151 2.738 . S
C122 O134 1.254 . S
C122 O135 1.257 . S
O123 Dy120 2.307 . S
O123 C133 1.266 . S
O124 Dy121 2.298 . S
O124 C133 1.236 . S
O125 Dy120 2.395 . S
O125 C142 1.255 . S
O126 Dy120 2.379 . S
O126 C142 1.249 . S
O127 Dy121 2.275 . S
O127 C143 1.254 . S
O128 Dy120 2.339 . S
O128 C143 1.257 . S
O129 Dy121 2.307 . S
O129 C144 1.266 . S
O130 Dy120 2.298 . S
O130 C144 1.236 . S
O131 Dy121 2.395 . S
O131 C151 1.255 . S
O132 Dy121 2.379 . S
O132 C151 1.249 . S
C133 O123 1.266 . S
C133 O124 1.236 . S
O134 Dy120 2.275 . S
O134 C122 1.254 . S
O135 Dy121 2.339 . S
O135 C122 1.257 . S
C136 C139 1.344 . S
C136 C140 1.328 . S
C136 C142 1.516 . S
C137 C138 1.304 1_455 S
C137 C141 1.323 1_455 S
C138 C137 1.304 1_655 S
C138 C139 1.371 . S
C138 H152 0.931 . S
C139 C136 1.344 . S
C139 C138 1.371 . S
C139 H153 0.931 . S
C140 C136 1.328 . S
C140 C141 1.433 . S
C140 H154 0.931 . S
C141 C137 1.323 1_655 S
C141 C140 1.433 . S
C141 H155 0.933 1_655 S
C142 Dy120 2.738 . S
C142 O125 1.255 . S
C142 O126 1.249 . S
C142 C136 1.516 . S
C143 O127 1.254 . S
C143 O128 1.257 . S
C144 O129 1.266 . S
C144 O130 1.236 . S
C145 C148 1.344 . S
C145 C149 1.328 . S
C145 C151 1.516 . S
C146 C147 1.304 . S
C146 C150 1.323 . S
C147 C146 1.304 . S
C147 C148 1.371 . S
C147 H156 0.930 . S
C148 C145 1.344 . S
C148 C147 1.371 . S
C148 H157 0.931 . S
C149 C145 1.328 . S
C149 C150 1.433 . S
C149 H158 0.931 . S
C150 C146 1.323 . S
C150 C149 1.433 . S
C150 H159 0.933 . S
C151 Dy121 2.738 . S
C151 O131 1.255 . S
C151 O132 1.249 . S
C151 C145 1.516 . S
H152 C138 0.931 . S
H153 C139 0.931 . S
H154 C140 0.931 . S
H155 C141 0.933 1_455 S
H156 C147 0.930 . S
H157 C148 0.931 . S
H158 C149 0.931 . S
H159 C150 0.933 . S
H160 C166 0.930 . S
H161 C170 0.930 . S
H162 C175 0.929 . S
H163 C173 0.929 . S
H164 C168 0.929 . S
H165 C174 0.929 . S
C166 H160 0.930 . S
C166 C167 1.367 . S
C166 C174 1.378 . S
C167 C166 1.367 . S
C167 C175 1.433 1_556 S
C168 H164 0.929 . S
C168 C170 1.378 . S
C168 C172 1.350 . S
C169 C172 1.456 1_556 S
C169 C174 1.376 . S
C169 N177 1.406 1_556 S
C170 H161 0.930 . S
C170 C168 1.378 . S
C170 C171 1.367 . S
C171 C170 1.367 . S
C171 C173 1.433 1_554 S
C172 C168 1.350 . S
C172 C169 1.456 1_554 S
C172 N176 1.427 1_554 S
C173 H163 0.929 . S
C173 C171 1.433 1_556 S
C173 N176 1.384 . S
C174 H165 0.929 . S
C174 C166 1.378 . S
C174 C169 1.376 . S
C175 H162 0.929 . S
C175 C167 1.433 1_554 S
C175 N177 1.384 . S
N176 C172 1.427 1_556 S
N176 C173 1.384 . S
N177 C169 1.406 1_554 S
N177 C175 1.384 . S
H178 C184 0.930 . S
H179 C188 0.930 . S
H180 C193 0.929 . S
H181 C191 0.929 . S
H182 C186 0.929 . S
H183 C192 0.929 . S
C184 H178 0.930 . S
C184 C185 1.367 . S
C184 C192 1.378 . S
C185 C184 1.367 . S
C185 C193 1.433 . S
C186 H182 0.929 . S
C186 C188 1.378 . S
C186 C190 1.350 . S
C187 C190 1.463 . S
C187 C192 1.350 . S
C187 N195 1.427 . S
C188 H179 0.930 . S
C188 C186 1.378 . S
C188 C189 1.367 . S
C189 C188 1.367 . S
C189 C191 1.433 . S
C190 C186 1.350 . S
C190 C187 1.463 . S
C190 N194 1.427 . S
C191 H181 0.929 . S
C191 C189 1.433 . S
C191 N194 1.384 . S
C192 H183 0.929 . S
C192 C184 1.378 . S
C192 C187 1.350 . S
C193 H180 0.929 . S
C193 C185 1.433 . S
C193 N195 1.384 . S
N194 C190 1.427 . S
N194 C191 1.384 . S
N195 C187 1.427 . S
N195 C193 1.384 . S
H196 C202 0.930 . S
H197 C206 0.930 . S
H198 C211 0.929 . S
H199 C209 0.925 . S
H200 C204 0.929 1_545 S
H201 C210 0.929 1_565 S
C202 H196 0.930 . S
C202 C203 1.364 . S
C202 C210 1.378 . S
C203 C202 1.364 . S
C203 C211 1.433 1_556 S
C204 H200 0.929 1_565 S
C204 C206 1.378 . S
C204 C208 1.350 . S
C205 C208 1.460 1_445 S
C205 C210 1.350 1_554 S
C205 N213 1.428 1_455 S
C206 H197 0.930 . S
C206 C204 1.378 . S
C206 C207 1.367 . S
C207 C206 1.367 . S
C207 C209 1.433 1_554 S
C208 C204 1.350 . S
C208 C205 1.460 1_665 S
C208 N212 1.430 1_654 S
C209 H199 0.925 . S
C209 C207 1.433 1_556 S
C209 N212 1.389 1_655 S
C210 H201 0.929 1_545 S
C210 C202 1.378 . S
C210 C205 1.350 1_556 S
C211 H198 0.929 . S
C211 C203 1.433 1_554 S
C211 N213 1.384 1_455 S
N212 C208 1.430 1_456 S
N212 C209 1.389 1_455 S
N213 C205 1.428 1_655 S
N213 C211 1.384 1_655 S
H214 C220 0.930 . S
H215 C224 0.930 . S
H216 C229 0.929 . S
H217 C227 0.929 . S
H218 C222 0.929 1_545 S
H219 C228 0.929 1_565 S
C220 H214 0.930 . S
C220 C221 1.367 . S
C220 C228 1.378 . S
C221 C220 1.367 . S
C221 C229 1.433 . S
C222 H218 0.929 1_565 S
C222 C224 1.378 . S
C222 C226 1.350 . S
C223 C226 1.463 1_645 S
C223 C228 1.350 . S
C223 N231 1.427 . S
C224 H215 0.930 . S
C224 C222 1.378 . S
C224 C225 1.367 . S
C225 C224 1.367 . S
C225 C227 1.433 . S
C226 C222 1.350 . S
C226 C223 1.463 1_465 S
C226 N230 1.427 . S
C227 H217 0.929 . S
C227 C225 1.433 . S
C227 N230 1.384 . S
C228 H219 0.929 1_545 S
C228 C220 1.378 . S
C228 C223 1.350 . S
C229 H216 0.929 . S
C229 C221 1.433 . S
C229 N231 1.384 . S
N230 C226 1.427 . S
N230 C227 1.384 . S
N231 C223 1.427 . S
N231 C229 1.384 . S
H232 C238 0.930 . S
H233 C242 0.930 . S
H234 C247 0.929 . S
H235 C245 0.929 . S
H236 C240 0.929 . S
H237 C246 0.929 . S
C238 H232 0.930 . S
C238 C239 1.367 . S
C238 C246 1.378 . S
C239 C238 1.367 . S
C239 C247 1.433 . S
C240 H236 0.929 . S
C240 C242 1.378 . S
C240 C244 1.350 . S
C241 C244 1.463 . S
C241 C246 1.350 . S
C241 N249 1.427 . S
C242 H233 0.930 . S
C242 C240 1.378 . S
C242 C243 1.367 . S
C243 C242 1.367 . S
C243 C245 1.433 . S
C244 C240 1.350 . S
C244 C241 1.463 . S
C244 N248 1.427 . S
C245 H235 0.929 . S
C245 C243 1.433 . S
C245 N248 1.384 . S
C246 H237 0.929 . S
C246 C238 1.378 . S
C246 C241 1.350 . S
C247 H234 0.929 . S
C247 C239 1.433 . S
C247 N249 1.384 . S
N248 C244 1.427 . S
N248 C245 1.384 . S
N249 C241 1.427 . S
N249 C247 1.384 . S
H250 C256 0.930 . S
H251 C260 0.930 . S
H252 C265 0.929 . S
H253 C263 0.929 . S
H254 C258 0.929 . S
H255 C264 0.929 . S
C256 H250 0.930 . S
C256 C257 1.367 . S
C256 C264 1.378 . S
C257 C256 1.367 . S
C257 C265 1.433 . S
C258 H254 0.929 . S
C258 C260 1.378 . S
C258 C262 1.350 . S
C259 C262 1.463 . S
C259 C264 1.350 . S
C259 N267 1.427 . S
C260 H251 0.930 . S
C260 C258 1.378 . S
C260 C261 1.367 . S
C261 C260 1.367 . S
C261 C263 1.433 . S
C262 C258 1.350 . S
C262 C259 1.463 . S
C262 N266 1.427 . S
C263 H253 0.929 . S
C263 C261 1.433 . S
C263 N266 1.384 . S
C264 H255 0.929 . S
C264 C256 1.378 . S
C264 C259 1.350 . S
C265 H252 0.929 . S
C265 C257 1.433 . S
C265 N267 1.384 . S
N266 C262 1.427 . S
N266 C263 1.384 . S
N267 C259 1.427 . S
N267 C265 1.384 . S
H268 C274 0.930 . S
H269 C278 0.930 . S
H270 C283 0.929 . S
H271 C281 0.929 . S
H272 C276 0.929 . S
H273 C282 0.929 . S
C274 H268 0.930 . S
C274 C275 1.367 . S
C274 C282 1.378 . S
C275 C274 1.367 . S
C275 C283 1.433 . S
C276 H272 0.929 . S
C276 C278 1.378 . S
C276 C280 1.350 . S
C277 C280 1.463 . S
C277 C282 1.350 . S
C277 N285 1.427 . S
C278 H269 0.930 . S
C278 C276 1.378 . S
C278 C279 1.367 . S
C279 C278 1.367 . S
C279 C281 1.433 . S
C280 C276 1.350 . S
C280 C277 1.463 . S
C280 N284 1.427 . S
C281 H271 0.929 . S
C281 C279 1.433 . S
C281 N284 1.384 . S
C282 H273 0.929 . S
C282 C274 1.378 . S
C282 C277 1.350 . S
C283 H270 0.929 . S
C283 C275 1.433 . S
C283 N285 1.384 . S
N284 C280 1.427 . S
N284 C281 1.384 . S
N285 C277 1.427 . S
N285 C283 1.384 . S
H286 C292 0.930 . S
H287 C296 0.930 . S
H288 C301 0.929 . S
H289 C299 0.929 . S
H290 C294 0.929 . S
H291 C300 0.929 . S
C292 H286 0.930 . S
C292 C293 1.367 . S
C292 C300 1.378 . S
C293 C292 1.367 . S
C293 C301 1.433 . S
C294 H290 0.929 . S
C294 C296 1.378 . S
C294 C298 1.350 . S
C295 C298 1.463 . S
C295 C300 1.350 . S
C295 N303 1.427 . S
C296 H287 0.930 . S
C296 C294 1.378 . S
C296 C297 1.367 . S
C297 C296 1.367 . S
C297 C299 1.433 . S
C298 C294 1.350 . S
C298 C295 1.463 . S
C298 N302 1.427 . S
C299 H289 0.929 . S
C299 C297 1.433 . S
C299 N302 1.384 . S
C300 H291 0.929 . S
C300 C292 1.378 . S
C300 C295 1.350 . S
C301 H288 0.929 . S
C301 C293 1.433 . S
C301 N303 1.384 . S
N302 C298 1.427 . S
N302 C299 1.384 . S
N303 C295 1.427 . S
N303 C301 1.384 . S
H304 C310 0.930 . S
H305 C314 0.930 . S
H306 C319 0.929 . S
H307 C317 0.927 1_455 S
H308 C312 0.929 . S
H309 C318 0.929 . S
C310 H304 0.930 . S
C310 C311 1.367 . S
C310 C318 1.378 . S
C311 C310 1.367 . S
C311 C319 1.433 . S
C312 H308 0.929 . S
C312 C314 1.378 . S
C312 C316 1.350 . S
C313 C316 1.463 . S
C313 C318 1.350 . S
C313 N321 1.427 . S
C314 H305 0.930 . S
C314 C312 1.378 . S
C314 C315 1.367 . S
C315 C314 1.367 . S
C315 C317 1.435 . S
C316 C312 1.350 . S
C316 C313 1.463 . S
C316 N320 1.427 . S
C317 H307 0.927 1_655 S
C317 C315 1.435 . S
C317 N320 1.384 . S
C318 H309 0.929 . S
C318 C310 1.378 . S
C318 C313 1.350 . S
C319 H306 0.929 . S
C319 C311 1.433 . S
C319 N321 1.384 . S
N320 C316 1.427 . S
N320 C317 1.384 . S
N321 C313 1.427 . S
N321 C319 1.384 . S
H322 C328 0.930 . S
H323 C332 0.930 . S
H324 C337 0.929 . S
H325 C335 0.929 . S
H326 C330 0.929 . S
H327 C336 0.929 . S
C328 H322 0.930 . S
C328 C329 1.367 . S
C328 C336 1.378 . S
C329 C328 1.367 . S
C329 C337 1.433 . S
C330 H326 0.929 . S
C330 C332 1.378 . S
C330 C334 1.350 . S
C331 C334 1.463 . S
C331 C336 1.350 . S
C331 N339 1.427 . S
C332 H323 0.930 . S
C332 C330 1.378 . S
C332 C333 1.367 . S
C333 C332 1.367 . S
C333 C335 1.433 1_655 S
C334 C330 1.350 . S
C334 C331 1.463 . S
C334 N338 1.427 . S
C335 H325 0.929 . S
C335 C333 1.433 1_455 S
C335 N338 1.384 1_455 S
C336 H327 0.929 . S
C336 C328 1.378 . S
C336 C331 1.350 . S
C337 H324 0.929 . S
C337 C329 1.433 . S
C337 N339 1.384 . S
N338 C334 1.427 . S
N338 C335 1.384 1_655 S
N339 C331 1.427 . S
N339 C337 1.384 . S
H340 C346 0.930 . S
H341 C350 0.930 . S
H342 C355 0.929 . S
H343 C353 0.929 . S
H344 C348 0.929 1_655 S
H345 C354 0.929 . S
C346 H340 0.930 . S
C346 C347 1.367 . S
C346 C354 1.378 . S
C347 C346 1.367 . S
C347 C355 1.433 1_455 S
C348 H344 0.929 1_455 S
C348 C350 1.378 . S
C348 C352 1.350 . S
C349 C352 1.463 . S
C349 C354 1.350 . S
C349 N357 1.427 1_455 S
C350 H341 0.930 . S
C350 C348 1.378 . S
C350 C351 1.367 . S
C351 C350 1.367 . S
C351 C353 1.433 . S
C352 C348 1.350 . S
C352 C349 1.463 . S
C352 N356 1.427 . S
C353 H343 0.929 . S
C353 C351 1.433 . S
C353 N356 1.384 . S
C354 H345 0.929 . S
C354 C346 1.378 . S
C354 C349 1.350 . S
C355 H342 0.929 . S
C355 C347 1.433 1_655 S
C355 N357 1.384 . S
N356 C352 1.427 . S
N356 C353 1.384 . S
N357 C349 1.427 1_655 S
N357 C355 1.384 . S
H358 C364 0.930 . S
H359 C368 0.930 . S
H360 C373 0.929 . S
H361 C371 0.927 1_655 S
H362 C366 0.929 . S
H363 C372 0.929 . S
C364 H358 0.930 . S
C364 C365 1.367 . S
C364 C372 1.378 . S
C365 C364 1.367 . S
C365 C373 1.433 . S
C366 H362 0.929 . S
C366 C368 1.378 . S
C366 C370 1.350 . S
C367 C370 1.463 . S
C367 C372 1.350 . S
C367 N375 1.427 . S
C368 H359 0.930 . S
C368 C366 1.378 . S
C368 C369 1.367 . S
C369 C368 1.367 . S
C369 C371 1.434 . S
C370 C366 1.350 . S
C370 C367 1.463 . S
C370 N374 1.427 . S
C371 H361 0.927 1_455 S
C371 C369 1.434 . S
C371 N374 1.384 . S
C372 H363 0.929 . S
C372 C364 1.378 . S
C372 C367 1.350 . S
C373 H360 0.929 . S
C373 C365 1.433 . S
C373 N375 1.384 . S
N374 C370 1.427 . S
N374 C371 1.384 . S
N375 C367 1.427 . S
N375 C373 1.384 . S
C167 C63 1.549 . S
C171 C2 1.549 . S
C185 C82 1.552 . S
C189 C143 1.552 . S
C203 C23 1.558 . S
C207 C42 1.552 . S
C221 C122 1.549 . S
C225 C103 1.549 . S
C239 C146 1.223 . S
C243 C13 1.255 . S
C257 C66 1.210 . S
C261 C93 1.255 . S
C275 C64 1.255 . S
C279 C97 1.211 . S
C293 C144 1.253 . S
C297 C17 1.208 . S
C311 C53 1.256 . S
C315 C106 1.214 . S
C329 C133 1.256 . S
C333 C26 1.215 . S
C347 C137 1.221 . S
C351 C24 1.255 . S
C365 C104 1.252 . S
C369 C57 1.226 . S
