# Generated by pormake.
# Topology lcs, (4)-cn, num edge types: 1
# Building blocks:
#     Node 0, Type 0, BuildingBlock: GALJAG_clean_sbu_0, # of connection points: 4
#     Node 1, Type 0, BuildingBlock: GALJAG_clean_sbu_0, # of connection points: 4
#     Node 2, Type 0, BuildingBlock: GALJAG_clean_sbu_0, # of connection points: 4
#     Node 3, Type 0, BuildingBlock: GALJAG_clean_sbu_0, # of connection points: 4
#     Node 4, Type 0, BuildingBlock: GALJAG_clean_sbu_0, # of connection points: 4
#     Node 5, Type 0, BuildingBlock: GALJAG_clean_sbu_0, # of connection points: 4
#     Node 6, Type 0, BuildingBlock: GALJAG_clean_sbu_0, # of connection points: 4
#     Node 7, Type 0, BuildingBlock: GALJAG_clean_sbu_0, # of connection points: 4
#     Node 8, Type 0, BuildingBlock: GALJAG_clean_sbu_0, # of connection points: 4
#     Node 9, Type 0, BuildingBlock: GALJAG_clean_sbu_0, # of connection points: 4
#     Node 10, Type 0, BuildingBlock: GALJAG_clean_sbu_0, # of connection points: 4
#     Node 11, Type 0, BuildingBlock: GALJAG_clean_sbu_0, # of connection points: 4
#     Node 12, Type 0, BuildingBlock: GALJAG_clean_sbu_0, # of connection points: 4
#     Node 13, Type 0, BuildingBlock: GALJAG_clean_sbu_0, # of connection points: 4
#     Node 14, Type 0, BuildingBlock: GALJAG_clean_sbu_0, # of connection points: 4
#     Node 15, Type 0, BuildingBlock: GALJAG_clean_sbu_0, # of connection points: 4
#     Node 16, Type 0, BuildingBlock: GALJAG_clean_sbu_0, # of connection points: 4
#     Node 17, Type 0, BuildingBlock: GALJAG_clean_sbu_0, # of connection points: 4
#     Node 18, Type 0, BuildingBlock: GALJAG_clean_sbu_0, # of connection points: 4
#     Node 19, Type 0, BuildingBlock: GALJAG_clean_sbu_0, # of connection points: 4
#     Node 20, Type 0, BuildingBlock: GALJAG_clean_sbu_0, # of connection points: 4
#     Node 21, Type 0, BuildingBlock: GALJAG_clean_sbu_0, # of connection points: 4
#     Node 22, Type 0, BuildingBlock: GALJAG_clean_sbu_0, # of connection points: 4
#     Node 23, Type 0, BuildingBlock: GALJAG_clean_sbu_0, # of connection points: 4
#     Edge 24, Type (0, 0), BuildingBlock: XUDNAN_clean_linker_2, # of connection points: 2
#     Edge 25, Type (0, 0), BuildingBlock: XUDNAN_clean_linker_2, # of connection points: 2
#     Edge 26, Type (0, 0), BuildingBlock: XUDNAN_clean_linker_2, # of connection points: 2
#     Edge 27, Type (0, 0), BuildingBlock: XUDNAN_clean_linker_2, # of connection points: 2
#     Edge 28, Type (0, 0), BuildingBlock: XUDNAN_clean_linker_2, # of connection points: 2
#     Edge 29, Type (0, 0), BuildingBlock: XUDNAN_clean_linker_2, # of connection points: 2
#     Edge 30, Type (0, 0), BuildingBlock: XUDNAN_clean_linker_2, # of connection points: 2
#     Edge 31, Type (0, 0), BuildingBlock: XUDNAN_clean_linker_2, # of connection points: 2
#     Edge 32, Type (0, 0), BuildingBlock: XUDNAN_clean_linker_2, # of connection points: 2
#     Edge 33, Type (0, 0), BuildingBlock: XUDNAN_clean_linker_2, # of connection points: 2
#     Edge 34, Type (0, 0), BuildingBlock: XUDNAN_clean_linker_2, # of connection points: 2
#     Edge 35, Type (0, 0), BuildingBlock: XUDNAN_clean_linker_2, # of connection points: 2
#     Edge 36, Type (0, 0), BuildingBlock: XUDNAN_clean_linker_2, # of connection points: 2
#     Edge 37, Type (0, 0), BuildingBlock: XUDNAN_clean_linker_2, # of connection points: 2
#     Edge 38, Type (0, 0), BuildingBlock: XUDNAN_clean_linker_2, # of connection points: 2
#     Edge 39, Type (0, 0), BuildingBlock: XUDNAN_clean_linker_2, # of connection points: 2
#     Edge 40, Type (0, 0), BuildingBlock: XUDNAN_clean_linker_2, # of connection points: 2
#     Edge 41, Type (0, 0), BuildingBlock: XUDNAN_clean_linker_2, # of connection points: 2
#     Edge 42, Type (0, 0), BuildingBlock: XUDNAN_clean_linker_2, # of connection points: 2
#     Edge 43, Type (0, 0), BuildingBlock: XUDNAN_clean_linker_2, # of connection points: 2
#     Edge 44, Type (0, 0), BuildingBlock: XUDNAN_clean_linker_2, # of connection points: 2
#     Edge 45, Type (0, 0), BuildingBlock: XUDNAN_clean_linker_2, # of connection points: 2
#     Edge 46, Type (0, 0), BuildingBlock: XUDNAN_clean_linker_2, # of connection points: 2
#     Edge 47, Type (0, 0), BuildingBlock: XUDNAN_clean_linker_2, # of connection points: 2
#     Edge 48, Type (0, 0), BuildingBlock: XUDNAN_clean_linker_2, # of connection points: 2
#     Edge 49, Type (0, 0), BuildingBlock: XUDNAN_clean_linker_2, # of connection points: 2
#     Edge 50, Type (0, 0), BuildingBlock: XUDNAN_clean_linker_2, # of connection points: 2
#     Edge 51, Type (0, 0), BuildingBlock: XUDNAN_clean_linker_2, # of connection points: 2
#     Edge 52, Type (0, 0), BuildingBlock: XUDNAN_clean_linker_2, # of connection points: 2
#     Edge 53, Type (0, 0), BuildingBlock: XUDNAN_clean_linker_2, # of connection points: 2
#     Edge 54, Type (0, 0), BuildingBlock: XUDNAN_clean_linker_2, # of connection points: 2
#     Edge 55, Type (0, 0), BuildingBlock: XUDNAN_clean_linker_2, # of connection points: 2
#     Edge 56, Type (0, 0), BuildingBlock: XUDNAN_clean_linker_2, # of connection points: 2
#     Edge 57, Type (0, 0), BuildingBlock: XUDNAN_clean_linker_2, # of connection points: 2
#     Edge 58, Type (0, 0), BuildingBlock: XUDNAN_clean_linker_2, # of connection points: 2
#     Edge 59, Type (0, 0), BuildingBlock: XUDNAN_clean_linker_2, # of connection points: 2
#     Edge 60, Type (0, 0), BuildingBlock: XUDNAN_clean_linker_2, # of connection points: 2
#     Edge 61, Type (0, 0), BuildingBlock: XUDNAN_clean_linker_2, # of connection points: 2
#     Edge 62, Type (0, 0), BuildingBlock: XUDNAN_clean_linker_2, # of connection points: 2
#     Edge 63, Type (0, 0), BuildingBlock: XUDNAN_clean_linker_2, # of connection points: 2
#     Edge 64, Type (0, 0), BuildingBlock: XUDNAN_clean_linker_2, # of connection points: 2
#     Edge 65, Type (0, 0), BuildingBlock: XUDNAN_clean_linker_2, # of connection points: 2
#     Edge 66, Type (0, 0), BuildingBlock: XUDNAN_clean_linker_2, # of connection points: 2
#     Edge 67, Type (0, 0), BuildingBlock: XUDNAN_clean_linker_2, # of connection points: 2
#     Edge 68, Type (0, 0), BuildingBlock: XUDNAN_clean_linker_2, # of connection points: 2
#     Edge 69, Type (0, 0), BuildingBlock: XUDNAN_clean_linker_2, # of connection points: 2
#     Edge 70, Type (0, 0), BuildingBlock: XUDNAN_clean_linker_2, # of connection points: 2
#     Edge 71, Type (0, 0), BuildingBlock: XUDNAN_clean_linker_2, # of connection points: 2
# Relax obj value: 0.033
# Max RMSD: 0.061
# Mean RMSD: 0.060
data_MOF--net-lcs--node1-GALJAG_clean_sbu_0--edge1-XUDNAN_clean_linker_2
_symmetry_space_group_name_H-M    P1
_symmetry_Int_Tables_number       1
_symmetry_cell_setting            triclinic
loop_
_symmetry_equiv_pos_as_xyz
'x, y, z'
_cell_length_a     49.388792
_cell_length_b     49.341612
_cell_length_c     49.360809
_cell_angle_alpha  90.112223
_cell_angle_beta   90.094342
_cell_angle_gamma 90.105732
loop_
_atom_site_label
_atom_site_type_symbol
_atom_site_fract_x
_atom_site_fract_y
_atom_site_fract_z
_atom_type_partial_charge
In0 In 0.00971 0.25724 0.3817 0.0
O1 O 0.04262 0.22597 0.39079 0.0
O2 O 0.0319 0.25333 0.42218 0.0
C3 C 0.9639 0.27034 0.40871 0.0
C4 C 0.03496 0.3023 0.36284 0.0
C5 C 0.99535 0.21939 0.34436 0.0
O6 O 0.9774 0.24922 0.41358 0.0
O7 O 0.9737 0.28528 0.3904 0.0
O8 O 0.97979 0.22739 0.36289 0.0
O9 O 0.01808 0.23108 0.34397 0.0
C10 C 0.04698 0.23415 0.41462 0.0
O11 O 0.01529 0.29171 0.35028 0.0
O12 O 0.04119 0.29049 0.38451 0.0
In13 In 1.00227 0.75455 0.62347 0.0
O14 O 0.03301 0.74295 0.5905 0.0
O15 O 0.04571 0.74182 0.63161 0.0
C16 C 0.9589 0.77052 0.59442 0.0
C17 C 0.98047 0.70883 0.64445 0.0
C18 C 0.01516 0.80363 0.64406 0.0
O19 O 0.97968 0.76031 0.58346 0.0
O20 O 0.9601 0.77269 0.61991 0.0
O21 O 0.01035 0.78357 0.65931 0.0
O22 O 0.01346 0.7987 0.61902 0.0
C23 C 0.05196 0.73844 0.60709 0.0
O24 O 0.98835 0.72802 0.65959 0.0
O25 O 0.98405 0.71277 0.61953 0.0
In26 In 0.49837 0.75272 0.87918 0.0
O27 O 0.53336 0.72475 0.89052 0.0
O28 O 0.52431 0.75699 0.9175 0.0
C29 C 0.45456 0.7678 0.90847 0.0
C30 C 0.51527 0.79529 0.84874 0.0
C31 C 0.4842 0.7092 0.84869 0.0
O32 O 0.46891 0.74757 0.91456 0.0
O33 O 0.46241 0.78053 0.88777 0.0
O34 O 0.46866 0.7195 0.86611 0.0
O35 O 0.50667 0.72112 0.84625 0.0
C36 C 0.53915 0.73686 0.91228 0.0
O37 O 0.52652 0.78866 0.87067 0.0
O38 O 0.49564 0.78035 0.84198 0.0
In39 In 0.50938 0.25763 0.13391 0.0
O40 O 0.53662 0.22766 0.11109 0.0
O41 O 0.54703 0.26915 0.1091 0.0
C42 C 0.46593 0.27162 0.10347 0.0
C43 C 0.4931 0.21467 0.16404 0.0
C44 C 0.52477 0.29784 0.1683 0.0
O45 O 0.48303 0.25425 0.09579 0.0
O46 O 0.47083 0.28202 0.12633 0.0
O47 O 0.5228 0.27339 0.17546 0.0
O48 O 0.51864 0.30214 0.14389 0.0
C49 C 0.55298 0.24524 0.10251 0.0
O50 O 0.47699 0.22823 0.14959 0.0
O51 O 0.51722 0.22314 0.1638 0.0
In52 In 1.00023 0.75309 0.13144 0.0
O53 O 0.01769 0.72517 0.16442 0.0
O54 O 0.00626 0.7077 0.12673 0.0
C55 C 0.9875 0.7958 0.16346 0.0
C56 C 0.04385 0.76704 0.10107 0.0
C57 C 0.95061 0.74425 0.11004 0.0
O58 O 0.98632 0.79655 0.13797 0.0
O59 O 0.99513 0.77335 0.17306 0.0
O60 O 0.96802 0.75919 0.09876 0.0
O61 O 0.95809 0.73398 0.1322 0.0
C62 C 0.01568 0.70395 0.15017 0.0
O63 O 0.02386 0.75427 0.09155 0.0
O64 O 0.04196 0.77268 0.1259 0.0
In65 In 0.50888 0.76126 0.37673 0.0
O66 O 0.48347 0.7632 0.41541 0.0
O67 O 0.47579 0.73071 0.38837 0.0
C68 C 0.5457 0.79263 0.40266 0.0
C69 C 0.53744 0.71962 0.35493 0.0
C70 C 0.48601 0.79515 0.34001 0.0
O71 O 0.54011 0.76892 0.41056 0.0
O72 O 0.53261 0.80035 0.38213 0.0
O73 O 0.50688 0.78139 0.33478 0.0
O74 O 0.47627 0.79102 0.3632 0.0
C75 C 0.46942 0.74252 0.4101 0.0
O76 O 0.51281 0.72347 0.34928 0.0
O77 O 0.54733 0.73656 0.37131 0.0
In78 In 0.50609 0.2518 0.62899 0.0
O79 O 0.50918 0.23132 0.67026 0.0
O80 O 0.51904 0.20792 0.63538 0.0
C81 C 0.48792 0.30094 0.64554 0.0
C82 C 0.55738 0.26305 0.61354 0.0
C83 C 0.46506 0.23387 0.59712 0.0
O84 O 0.48517 0.27992 0.65978 0.0
O85 O 0.49958 0.29707 0.62322 0.0
O86 O 0.48676 0.24329 0.5875 0.0
O87 O 0.46415 0.2334 0.62261 0.0
C88 C 0.51686 0.20877 0.66087 0.0
O89 O 0.53881 0.25803 0.5966 0.0
O90 O 0.5501 0.26209 0.638 0.0
In91 In 1.00331 0.25617 0.88323 0.0
O92 O 0.98231 0.24245 0.92272 0.0
O93 O 0.96906 0.22567 0.88519 0.0
C94 C 0.05205 0.27412 0.90084 0.0
C95 C 0.01915 0.2153 0.85057 0.0
C96 C 0.97711 0.30235 0.86886 0.0
O97 O 0.03435 0.26537 0.91712 0.0
O98 O 0.04487 0.27417 0.87634 0.0
O99 O 0.99119 0.28901 0.85223 0.0
O100 O 0.97609 0.29226 0.89224 0.0
C101 C 0.96642 0.22637 0.91055 0.0
O102 O 1.00205 0.23288 0.8431 0.0
O103 O 0.02839 0.21864 0.87423 0.0
In104 In 0.37875 0.0046 0.24799 0.0
O105 O 0.34197 1.00059 0.27584 0.0
O106 O 0.37261 0.02861 0.2872 0.0
C107 C 0.34832 0.99141 0.20407 0.0
C108 C 0.40955 0.04829 0.23492 0.0
C109 C 0.40659 0.95908 0.26094 0.0
O110 O 0.34135 0.00945 0.22078 0.0
O111 O 0.37055 0.98016 0.20945 0.0
O112 O 0.41325 0.97429 0.24154 0.0
O113 O 0.38615 0.96698 0.27401 0.0
C114 C 0.35008 0.01795 0.29282 0.0
O115 O 0.41773 0.02974 0.25044 0.0
O116 O 0.38591 0.0448 0.2259 0.0
In117 In 0.25717 0.12441 0.50263 0.0
O118 O 0.2593 0.08665 0.52967 0.0
O119 O 0.2324 0.11816 0.541 0.0
C120 C 0.27225 0.09387 0.45956 0.0
C121 C 0.21355 0.15445 0.48809 0.0
C122 C 0.30143 0.15369 0.51675 0.0
O123 O 0.28465 0.11507 0.46668 0.0
O124 O 0.25228 0.08781 0.47431 0.0
O125 O 0.2875 0.15887 0.49595 0.0
O126 O 0.29292 0.13397 0.53056 0.0
C127 C 0.24196 0.09513 0.54642 0.0
O128 O 0.22969 0.16153 0.50662 0.0
O129 O 0.2197 0.13256 0.47648 0.0
In130 In 0.12284 0.00685 0.75053 0.0
O131 O 0.11731 0.04557 0.77577 0.0
O132 O 0.08329 0.03109 0.75408 0.0
C133 C 0.092 0.96791 0.72676 0.0
C134 C 0.15685 0.02041 0.70966 0.0
C135 C 0.15149 0.98943 0.79381 0.0
O136 O 0.10423 0.96391 0.74888 0.0
O137 O 0.09505 0.99137 0.71719 0.0
O138 O 0.16165 1.00358 0.77513 0.0
O139 O 0.12673 0.98369 0.79063 0.0
C140 C 0.09288 0.04909 0.76947 0.0
O141 O 0.15653 0.99715 0.72019 0.0
O142 O 0.14042 0.03694 0.72006 0.0
In143 In 0.2471 0.87909 1.00075 0.0
O144 O 0.21716 0.84413 0.99492 0.0
O145 O 0.21364 0.86784 0.03067 0.0
C146 C 0.2893 0.84763 0.9851 0.0
C147 C 0.23115 0.90973 0.95804 0.0
C148 C 0.2633 0.91034 0.04303 0.0
O149 O 0.28288 0.86919 0.97307 0.0
O150 O 0.27426 0.84168 0.00484 0.0
O151 O 0.27587 0.88942 0.03556 0.0
O152 O 0.24253 0.91567 0.02913 0.0
C153 C 0.20465 0.84829 0.01681 0.0
O154 O 0.2526 0.91434 0.97118 0.0
O155 O 0.21754 0.88991 0.96662 0.0
In156 In 0.26007 0.37809 1.00149 0.0
O157 O 0.25578 0.4181 0.02413 0.0
O158 O 0.23813 0.38319 0.04211 0.0
C159 C 0.27435 0.41051 0.95959 0.0
C160 C 0.30159 0.34762 0.02094 0.0
C161 C 0.22027 0.34797 0.97829 0.0
O162 O 0.25102 0.41066 0.96994 0.0
O163 O 0.29078 0.39452 0.97082 0.0
O164 O 0.24338 0.35115 0.96801 0.0
O165 O 0.21716 0.35949 1.00093 0.0
C166 C 0.24271 0.40834 0.04378 0.0
O167 O 0.28304 0.33796 0.00627 0.0
O168 O 0.29908 0.37248 0.02612 0.0
In169 In 0.7563 0.12836 0.00839 0.0
O170 O 0.75668 0.08935 0.03363 0.0
O171 O 0.77541 0.12439 0.05029 0.0
C172 C 0.73756 0.10926 0.96041 0.0
C173 C 0.71559 0.1615 0.02469 0.0
C174 C 0.80668 0.1421 0.99209 0.0
O175 O 0.73623 0.09549 0.98191 0.0
O176 O 0.74773 0.13253 0.9633 0.0
O177 O 0.79045 0.15933 1.00187 0.0
O178 O 0.79757 0.11818 0.99101 0.0
C179 C 0.76949 0.09971 0.05325 0.0
O180 O 0.73814 0.17045 0.01666 0.0
O181 O 0.71367 0.13605 0.0245 0.0
In182 In 0.13453 0.50708 0.25055 0.0
O183 O 0.16497 0.51524 0.21655 0.0
O184 O 0.14912 0.47549 0.21965 0.0
C185 C 0.16384 0.53258 0.2893 0.0
C186 C 0.09655 0.54174 0.23093 0.0
C187 C 0.11723 0.46254 0.27725 0.0
O188 O 0.1724 0.52928 0.26542 0.0
O189 O 0.14053 0.52301 0.29366 0.0
O190 O 0.10105 0.47776 0.26455 0.0
O191 O 0.14173 0.46973 0.27619 0.0
C192 C 0.16439 0.49154 0.20701 0.0
O193 O 0.09932 0.51791 0.22216 0.0
O194 O 0.1121 0.5477 0.25025 0.0
In195 In 0.75564 0.89064 0.50557 0.0
O196 O 0.7511 0.92911 0.53058 0.0
O197 O 0.73473 0.89276 0.54694 0.0
C198 C 0.78104 0.91971 0.46658 0.0
C199 C 0.79532 0.85528 0.51988 0.0
C200 C 0.70685 0.87561 0.48537 0.0
O201 O 0.78077 0.92681 0.49114 0.0
O202 O 0.76871 0.89785 0.46168 0.0
O203 O 0.72218 0.85901 0.49735 0.0
O204 O 0.71611 0.89937 0.48388 0.0
C205 C 0.7387 0.91791 0.54991 0.0
O206 O 0.78195 0.85289 0.49824 0.0
O207 O 0.78823 0.87492 0.53451 0.0
In208 In 0.88923 0.00896 0.25611 0.0
O209 O 0.87678 0.03508 0.22014 0.0
O210 O 0.84976 1.00379 0.23161 0.0
C211 C 0.86354 0.99818 0.30347 0.0
C212 C 0.91977 0.96501 0.2431 0.0
C213 C 0.91906 0.0539 0.26554 0.0
O214 O 0.85715 0.98647 0.28161 0.0
O215 O 0.88229 0.01532 0.30121 0.0
O216 O 0.92936 0.03259 0.25569 0.0
O217 O 0.894 0.05241 0.27028 0.0
C218 C 0.85477 0.02302 0.21557 0.0
O219 O 0.90819 0.97945 0.22557 0.0
O220 O 0.9167 0.97317 0.26708 0.0
In221 In 0.25791 0.63778 0.50041 0.0
O222 O 0.25152 0.59835 0.52462 0.0
O223 O 0.28783 0.62038 0.53083 0.0
C224 C 0.24157 0.61813 0.45181 0.0
C225 C 0.2189 0.66734 0.52571 0.0
C226 C 0.30243 0.66626 0.48638 0.0
O227 O 0.23893 0.60473 0.47342 0.0
O228 O 0.25202 0.64127 0.45483 0.0
O229 O 0.28221 0.67714 0.49767 0.0
O230 O 0.30009 0.64113 0.48202 0.0
C231 C 0.27353 0.60035 0.53749 0.0
O232 O 0.24203 0.66324 0.53555 0.0
O233 O 0.21541 0.65712 0.50256 0.0
In234 In 0.37528 0.50384 0.74719 0.0
O235 O 0.34085 0.49698 0.71654 0.0
O236 O 0.3636 0.53333 0.71368 0.0
C237 C 0.34736 0.48785 0.79149 0.0
C238 C 0.40494 0.46434 0.72342 0.0
C239 C 0.40558 0.54473 0.76802 0.0
O240 O 0.33678 0.5014 0.77258 0.0
O241 O 0.372 0.4821 0.78797 0.0
O242 O 0.41578 0.52323 0.75876 0.0
O243 O 0.38008 0.54552 0.76714 0.0
C244 C 0.34487 0.51887 0.70401 0.0
O245 O 0.40748 0.48911 0.71782 0.0
O246 O 0.38753 0.45927 0.74142 0.0
In247 In 0.62512 0.00489 0.75859 0.0
O248 O 0.64555 0.97371 0.73052 0.0
O249 O 0.65279 0.01542 0.72328 0.0
C250 C 0.65769 0.02449 0.79849 0.0
C251 C 0.59053 0.04562 0.74585 0.0
C252 C 0.59644 0.96009 0.77185 0.0
O253 O 0.66388 0.02518 0.77376 0.0
O254 O 0.63531 0.0132 0.80337 0.0
O255 O 0.58759 0.97792 0.75582 0.0
O256 O 0.6198 0.96481 0.78119 0.0
C257 C 0.65699 0.99132 0.71597 0.0
O258 O 0.6 0.02952 0.72848 0.0
O259 O 0.59772 0.04067 0.76984 0.0
In260 In 0.74626 0.63276 0.01331 0.0
O261 O 0.75388 0.59414 0.03831 0.0
O262 O 0.71825 0.61662 0.04632 0.0
C263 C 0.77031 0.61682 0.96641 0.0
C264 C 0.69992 0.6581 0.99897 0.0
C265 C 0.78362 0.66589 0.03629 0.0
O266 O 0.7533 0.60191 0.97838 0.0
O267 O 0.77492 0.63901 0.97814 0.0
O268 O 0.76625 0.67406 0.01946 0.0
O269 O 0.78183 0.64106 0.0421 0.0
C270 C 0.73273 0.59655 0.05244 0.0
O271 O 0.71468 0.66594 0.01835 0.0
O272 O 0.70836 0.63719 0.98685 0.0
In273 In 0.87806 0.50989 0.76416 0.0
O274 O 0.91335 0.53859 0.75332 0.0
O275 O 0.87594 0.54207 0.7319 0.0
C276 C 0.89953 0.47001 0.79475 0.0
C277 C 0.85324 0.53983 0.80247 0.0
C278 C 0.86077 0.48054 0.72132 0.0
O279 O 0.91395 0.48391 0.77876 0.0
O280 O 0.87488 0.47656 0.79542 0.0
O281 O 0.8444 0.49446 0.73538 0.0
O282 O 0.88493 0.48095 0.72963 0.0
C283 C 0.89989 0.55051 0.735 0.0
O284 O 0.8405 0.52185 0.7892 0.0
O285 O 0.87783 0.54256 0.79612 0.0
In286 In 0.75976 0.37522 0.51362 0.0
O287 O 0.71924 0.35198 0.51402 0.0
O288 O 0.74484 0.34874 0.54833 0.0
C289 C 0.79786 0.34407 0.48966 0.0
C290 C 0.7359 0.40785 0.47632 0.0
C291 C 0.787 0.40367 0.55228 0.0
O292 O 0.77933 0.33421 0.50429 0.0
O293 O 0.7968 0.36945 0.48674 0.0
O294 O 0.76152 0.40401 0.55064 0.0
O295 O 0.7984 0.39014 0.53394 0.0
C296 C 0.72265 0.34233 0.53743 0.0
O297 O 0.74825 0.38641 0.47017 0.0
O298 O 0.73556 0.41305 0.50135 0.0
In299 In 0.63507 0.50342 0.26524 0.0
O300 O 0.60182 0.53459 0.27536 0.0
O301 O 0.64312 0.54692 0.2772 0.0
C302 C 0.60633 0.45811 0.25295 0.0
C303 C 0.6627 0.51405 0.219 0.0
C304 C 0.65501 0.49007 0.31435 0.0
O305 O 0.59738 0.4815 0.24774 0.0
O306 O 0.62924 0.45782 0.26412 0.0
O307 O 0.66923 0.48861 0.29307 0.0
O308 O 0.63103 0.49818 0.31072 0.0
C309 C 0.61861 0.5534 0.28033 0.0
O310 O 0.67399 0.50386 0.23958 0.0
O311 O 0.63772 0.51841 0.22173 0.0
H312 H 0.06938 0.43371 0.27304 0.0
H313 H 0.1457 0.43716 0.31668 0.0
H314 H 0.13228 0.3972 0.34334 0.0
H315 H 0.02759 0.41187 0.32917 0.0
H316 H 0.0072 0.38911 0.30905 0.0
H317 H 0.02222 0.41861 0.29368 0.0
H318 H 0.04542 0.38815 0.25781 0.0
H319 H 0.03047 0.35856 0.27306 0.0
H320 H 0.06665 0.36057 0.26876 0.0
H321 H 0.11094 0.35799 0.36577 0.0
H322 H 0.0837 0.31933 0.38143 0.0
H323 H 0.02157 0.33864 0.32221 0.0
C324 C 0.08314 0.42606 0.28831 0.0
C325 C 0.10854 0.43857 0.29291 0.0
C326 C 0.12618 0.42786 0.31281 0.0
C327 C 0.11872 0.40522 0.3281 0.0
C328 C 0.09365 0.39329 0.32307 0.0
C329 C 0.07616 0.40309 0.30356 0.0
C330 C 0.05079 0.38569 0.30181 0.0
C331 C 0.02545 0.40232 0.30885 0.0
C332 C 0.04819 0.37246 0.27369 0.0
C333 C 0.05679 0.36473 0.32349 0.0
C334 C 0.08157 0.36977 0.33556 0.0
C335 C 0.09155 0.35373 0.35643 0.0
C336 C 0.07587 0.33183 0.3652 0.0
C337 C 0.05056 0.32592 0.353 0.0
C338 C 0.04092 0.3426 0.3318 0.0
H339 H 0.91814 0.8039 0.61129 0.0
H340 H 0.94586 0.75736 0.54209 0.0
H341 H 0.9056 0.77205 0.51604 0.0
H342 H 0.84639 0.79221 0.60262 0.0
H343 H 0.83717 0.82616 0.61248 0.0
H344 H 0.86744 0.81094 0.62597 0.0
H345 H 0.89591 0.85143 0.60841 0.0
H346 H 0.86572 0.86682 0.59499 0.0
H347 H 0.89418 0.86047 0.57308 0.0
H348 H 0.86206 0.79199 0.49766 0.0
H349 H 0.82074 0.81833 0.48723 0.0
H350 H 0.82286 0.85321 0.56796 0.0
C351 C 0.91564 0.79664 0.59072 0.0
C352 C 0.93497 0.77934 0.57872 0.0
C353 C 0.93123 0.77061 0.55163 0.0
C354 C 0.9084 0.77876 0.53675 0.0
C355 C 0.88967 0.79583 0.54919 0.0
C356 C 0.8932 0.80487 0.57549 0.0
C357 C 0.87085 0.82415 0.58375 0.0
C358 C 0.8545 0.81267 0.60762 0.0
C359 C 0.88236 0.85239 0.59044 0.0
C360 C 0.85417 0.82459 0.558 0.0
C361 C 0.86517 0.80791 0.53838 0.0
C362 C 0.85329 0.80512 0.51287 0.0
C363 C 0.82979 0.82008 0.50716 0.0
C364 C 0.81863 0.83779 0.52677 0.0
C365 C 0.83092 0.83981 0.55256 0.0
H366 H 0.38877 0.58844 0.79788 0.0
H367 H 0.45986 0.55244 0.76101 0.0
H368 H 0.48752 0.5913 0.77655 0.0
H369 H 0.40447 0.65791 0.78302 0.0
H370 H 0.39208 0.67063 0.81493 0.0
H371 H 0.37777 0.64022 0.80055 0.0
H372 H 0.38888 0.61397 0.84461 0.0
H373 H 0.40309 0.64433 0.85917 0.0
H374 H 0.42312 0.61389 0.85731 0.0
H375 H 0.50713 0.63468 0.79507 0.0
H376 H 0.51809 0.67772 0.81839 0.0
H377 H 0.43464 0.68439 0.84492 0.0
C378 C 0.41016 0.58876 0.79308 0.0
C379 C 0.4222 0.56753 0.77815 0.0
C380 C 0.45027 0.56851 0.77246 0.0
C381 C 0.46611 0.59053 0.78111 0.0
C382 C 0.4536 0.61124 0.79566 0.0
C383 C 0.42633 0.61041 0.80187 0.0
C384 C 0.41802 0.63486 0.81848 0.0
C385 C 0.39683 0.65191 0.80333 0.0
C386 C 0.40767 0.62624 0.84656 0.0
C387 C 0.44486 0.64963 0.82054 0.0
C388 C 0.46506 0.63579 0.80703 0.0
C389 C 0.4915 0.64564 0.80581 0.0
C390 C 0.49751 0.67013 0.81903 0.0
C391 C 0.47723 0.68432 0.83348 0.0
C392 C 0.45057 0.67393 0.83409 0.0
H393 H 0.57143 0.19456 0.08943 0.0
H394 H 0.59128 0.27995 0.08241 0.0
H395 H 0.63456 0.268 0.06029 0.0
H396 H 0.63743 0.17211 0.10579 0.0
H397 H 0.635 0.14095 0.08681 0.0
H398 H 0.60492 0.15626 0.1005 0.0
H399 H 0.58326 0.15701 0.05265 0.0
H400 H 0.61324 0.14155 0.03882 0.0
H401 H 0.60106 0.17313 0.02518 0.0
H402 H 0.67684 0.24645 0.04096 0.0
H403 H 0.71419 0.21705 0.02516 0.0
H404 H 0.66643 0.14591 0.04492 0.0
C405 C 0.58472 0.21076 0.08293 0.0
C406 C 0.57796 0.2382 0.08754 0.0
C407 C 0.59602 0.25879 0.07898 0.0
C408 C 0.62065 0.2522 0.06642 0.0
C409 C 0.62688 0.22492 0.06252 0.0
C410 C 0.60936 0.20454 0.07041 0.0
C411 C 0.62117 0.17681 0.06468 0.0
C412 C 0.62485 0.16059 0.09102 0.0
C413 C 0.60364 0.16121 0.0441 0.0
C414 C 0.6482 0.18475 0.05259 0.0
C415 C 0.65111 0.21258 0.05144 0.0
C416 C 0.67469 0.22463 0.04161 0.0
C417 C 0.69581 0.20779 0.03273 0.0
C418 C 0.6932 0.17922 0.03375 0.0
C419 C 0.669 0.16768 0.04376 0.0
H420 H 0.09115 0.59559 0.24359 0.0
H421 H 0.06236 0.53357 0.18807 0.0
H422 H 0.03653 0.56819 0.16288 0.0
H423 H 0.02869 0.63663 0.24405 0.0
H424 H 0.04713 0.66817 0.24533 0.0
H425 H 0.06133 0.63813 0.26041 0.0
H426 H 0.10452 0.64404 0.23129 0.0
H427 H 0.0904 0.67393 0.21596 0.0
H428 H 0.10146 0.64616 0.19495 0.0
H429 H 0.01735 0.60986 0.14139 0.0
H430 H 0.00414 0.65556 0.12618 0.0
H431 H 0.04474 0.69077 0.19594 0.0
C432 C 0.07897 0.58921 0.22646 0.0
C433 C 0.07864 0.56186 0.21785 0.0
C434 C 0.06277 0.55437 0.19511 0.0
C435 C 0.04807 0.5739 0.18066 0.0
C436 C 0.04932 0.60078 0.18931 0.0
C437 C 0.06415 0.60845 0.21182 0.0
C438 C 0.06308 0.63888 0.21608 0.0
C439 C 0.04923 0.64586 0.24307 0.0
C440 C 0.09156 0.65148 0.21446 0.0
C441 C 0.04577 0.6472 0.19214 0.0
C442 C 0.03801 0.62487 0.17701 0.0
C443 C 0.02301 0.62745 0.15325 0.0
C444 C 0.01571 0.65351 0.14472 0.0
C445 C 0.02332 0.67669 0.15994 0.0
C446 C 0.03841 0.6734 0.18405 0.0
H447 H 0.58606 0.77741 0.4381 0.0
H448 H 0.55294 0.84672 0.39546 0.0
H449 H 0.58925 0.87563 0.41407 0.0
H450 H 0.60896 0.81431 0.4988 0.0
H451 H 0.6395 0.79464 0.5021 0.0
H452 H 0.60966 0.77964 0.48723 0.0
H453 H 0.6371 0.76729 0.44427 0.0
H454 H 0.66697 0.78232 0.45895 0.0
H455 H 0.65501 0.79358 0.42634 0.0
H456 H 0.62973 0.89663 0.43528 0.0
H457 H 0.6729 0.90858 0.45731 0.0
H458 H 0.68127 0.82576 0.48568 0.0
C459 C 0.58626 0.79877 0.43308 0.0
C460 C 0.56659 0.80991 0.41549 0.0
C461 C 0.56776 0.83781 0.40895 0.0
C462 C 0.58827 0.8544 0.41946 0.0
C463 C 0.60756 0.84279 0.43642 0.0
C464 C 0.60682 0.81564 0.44322 0.0
C465 C 0.63096 0.80811 0.46073 0.0
C466 C 0.62171 0.79862 0.48888 0.0
C467 C 0.64855 0.78655 0.44673 0.0
C468 C 0.6455 0.83519 0.46235 0.0
C469 C 0.63143 0.85491 0.44837 0.0
C470 C 0.64088 0.88142 0.44642 0.0
C471 C 0.66545 0.88799 0.459 0.0
C472 C 0.68045 0.86812 0.47324 0.0
C473 C 0.67021 0.84139 0.47502 0.0
H474 H 0.455 0.31393 0.68861 0.0
H475 H 0.49965 0.34916 0.62164 0.0
H476 H 0.48423 0.39469 0.63522 0.0
H477 H 0.39738 0.3579 0.68334 0.0
H478 H 0.39206 0.36025 0.71938 0.0
H479 H 0.4074 0.33038 0.70512 0.0
H480 H 0.44876 0.33648 0.73693 0.0
H481 H 0.43355 0.3664 0.75128 0.0
H482 H 0.46703 0.36815 0.73689 0.0
H483 H 0.46417 0.43618 0.65565 0.0
H484 H 0.43903 0.47127 0.68073 0.0
H485 H 0.40604 0.40954 0.73391 0.0
C486 C 0.46162 0.33127 0.67693 0.0
C487 C 0.4786 0.32806 0.65413 0.0
C488 C 0.48664 0.35116 0.63917 0.0
C489 C 0.47805 0.37712 0.64675 0.0
C490 C 0.46128 0.37962 0.66926 0.0
C491 C 0.453 0.35738 0.68409 0.0
C492 C 0.43426 0.36575 0.70693 0.0
C493 C 0.40611 0.3528 0.70347 0.0
C494 C 0.44665 0.35878 0.73465 0.0
C495 C 0.43329 0.39614 0.70253 0.0
C496 C 0.44919 0.40366 0.6808 0.0
C497 C 0.45163 0.43057 0.6727 0.0
C498 C 0.43729 0.45035 0.6871 0.0
C499 C 0.42058 0.44313 0.70924 0.0
C500 C 0.41865 0.41564 0.71706 0.0
H501 H 0.92909 0.24014 0.94953 0.0
H502 H 0.95882 0.17311 0.90122 0.0
H503 H 0.9235 0.14329 0.92035 0.0
H504 H 0.90676 0.20049 0.00937 0.0
H505 H 0.87659 0.22048 0.01397 0.0
H506 H 0.9065 0.23567 0.99959 0.0
H507 H 0.87871 0.2505 0.95762 0.0
H508 H 0.84879 0.23527 0.9718 0.0
H509 H 0.86016 0.22538 0.93854 0.0
H510 H 0.88401 0.12148 0.94232 0.0
H511 H 0.84055 0.1094 0.96355 0.0
H512 H 0.83358 0.19111 0.99555 0.0
C513 C 0.92849 0.21899 0.94365 0.0
C514 C 0.94688 0.20861 0.92438 0.0
C515 C 0.94502 0.18119 0.91623 0.0
C516 C 0.92511 0.16414 0.92702 0.0
C517 C 0.90691 0.17497 0.94563 0.0
C518 C 0.9082 0.20178 0.95378 0.0
C519 C 0.8844 0.20884 0.9719 0.0
C520 C 0.89415 0.21684 1.0004 0.0
C521 C 0.86699 0.23133 0.9592 0.0
C522 C 0.86942 0.18194 0.97229 0.0
C523 C 0.88309 0.16262 0.95737 0.0
C524 C 0.87316 0.13638 0.95418 0.0
C525 C 0.84844 0.12972 0.96633 0.0
C526 C 0.83367 0.14929 0.9812 0.0
C527 C 0.84446 0.1757 0.98437 0.0
H528 H 0.31644 0.10164 0.42711 0.0
H529 H 0.2457 0.0504 0.43729 0.0
H530 H 0.25807 0.02499 0.39586 0.0
H531 H 0.3137 0.10614 0.35509 0.0
H532 H 0.34991 0.10503 0.3507 0.0
H533 H 0.33577 0.11871 0.38141 0.0
H534 H 0.36395 0.08474 0.40978 0.0
H535 H 0.37824 0.07101 0.37915 0.0
H536 H 0.36125 0.04897 0.40275 0.0
H537 H 0.27755 0.00617 0.35241 0.0
H538 H 0.30339 0.99442 0.31117 0.0
H539 H 0.36173 0.05758 0.33005 0.0
C540 C 0.3036 0.085 0.4207 0.0
C541 C 0.28009 0.07798 0.43539 0.0
C542 C 0.26383 0.05607 0.42635 0.0
C543 C 0.27068 0.04156 0.40285 0.0
C544 C 0.29392 0.04914 0.38872 0.0
C545 C 0.31021 0.07025 0.3974 0.0
C546 C 0.33404 0.0744 0.37857 0.0
C547 C 0.33329 0.10275 0.36568 0.0
C548 C 0.36096 0.06948 0.39345 0.0
C549 C 0.32851 0.05247 0.35779 0.0
C550 C 0.30527 0.03813 0.36397 0.0
C551 C 0.29585 0.01718 0.34745 0.0
C552 C 0.31063 0.01068 0.32405 0.0
C553 C 0.33458 0.02504 0.31745 0.0
C554 C 0.34356 0.04617 0.33462 0.0
H555 H 0.15696 0.06765 0.68074 0.0
H556 H 0.19522 0.98869 0.68529 0.0
H557 H 0.22228 0.99954 0.64458 0.0
H558 H 0.15104 0.06966 0.60914 0.0
H559 H 0.15789 0.10546 0.60655 0.0
H560 H 0.14272 0.09202 0.63682 0.0
H561 H 0.18132 0.11295 0.66575 0.0
H562 H 0.19656 0.12657 0.63556 0.0
H563 H 0.21603 0.10508 0.65772 0.0
H564 H 0.24409 0.01868 0.6023 0.0
H565 H 0.25887 0.0446 0.56204 0.0
H566 H 0.20577 0.11061 0.58526 0.0
C567 C 0.17124 0.05274 0.67335 0.0
C568 C 0.17409 0.02736 0.68621 0.0
C569 C 0.19278 0.0083 0.67577 0.0
C570 C 0.20823 0.01428 0.65267 0.0
C571 C 0.20471 0.0394 0.64029 0.0
C572 C 0.1867 0.05833 0.65031 0.0
C573 C 0.18608 0.0835 0.63283 0.0
C574 C 0.15775 0.0879 0.62061 0.0
C575 C 0.19557 0.1085 0.64893 0.0
C576 C 0.20641 0.07571 0.61128 0.0
C577 C 0.21704 0.05026 0.61596 0.0
C578 C 0.23596 0.03867 0.59851 0.0
C579 C 0.24422 0.05351 0.5757 0.0
C580 C 0.23347 0.07958 0.57054 0.0
C581 C 0.21437 0.09073 0.58867 0.0
H582 H 0.1373 0.95241 0.83295 0.0
H583 H 0.20168 0.00714 0.80861 0.0
H584 H 0.22844 0.99361 0.84861 0.0
H585 H 0.14359 0.9627 0.90514 0.0
H586 H 0.13724 0.9277 0.91343 0.0
H587 H 0.12276 0.94211 0.8832 0.0
H588 H 0.14504 0.90439 0.85427 0.0
H589 H 0.15952 0.88984 0.88441 0.0
H590 H 0.18109 0.89914 0.8565 0.0
H591 H 0.24814 0.97449 0.89132 0.0
H592 H 0.26042 0.94925 0.93273 0.0
H593 H 0.18398 0.90586 0.92875 0.0
C594 C 0.15699 0.96158 0.83611 0.0
C595 C 0.16739 0.9809 0.81774 0.0
C596 C 0.19333 0.99229 0.82242 0.0
C597 C 0.20866 0.98479 0.84512 0.0
C598 C 0.19785 0.96573 0.86286 0.0
C599 C 0.17271 0.95412 0.85856 0.0
C600 C 0.16618 0.93355 0.88038 0.0
C601 C 0.14095 0.94203 0.89649 0.0
C602 C 0.16276 0.90504 0.86815 0.0
C603 C 0.19156 0.93545 0.8976 0.0
C604 C 0.20948 0.95427 0.88723 0.0
C605 C 0.23429 0.95966 0.89963 0.0
C606 C 0.24106 0.94527 0.92315 0.0
C607 C 0.22318 0.9256 0.93393 0.0
C608 C 0.19807 0.92077 0.92097 0.0
H609 H 0.30881 0.90373 0.07396 0.0
H610 H 0.23741 0.9541 0.06528 0.0
H611 H 0.25155 0.98088 0.10533 0.0
H612 H 0.30936 0.9015 0.14621 0.0
H613 H 0.34574 0.90293 0.14894 0.0
H614 H 0.33019 0.88818 0.11935 0.0
H615 H 0.35692 0.92134 0.08869 0.0
H616 H 0.37259 0.93616 0.11819 0.0
H617 H 0.35444 0.95731 0.09464 0.0
H618 H 0.27316 1.00141 0.1472 0.0
H619 H 0.30092 0.01456 0.18691 0.0
H620 H 0.35829 0.95094 0.16749 0.0
C621 C 0.29618 0.92045 0.08042 0.0
C622 C 0.272 0.92685 0.06653 0.0
C623 C 0.25604 0.94888 0.07561 0.0
C624 C 0.2639 0.96418 0.09833 0.0
C625 C 0.28782 0.95724 0.11165 0.0
C626 C 0.30377 0.93596 0.10294 0.0
C627 C 0.32847 0.93255 0.12082 0.0
C628 C 0.32842 0.90463 0.13465 0.0
C629 C 0.35465 0.93712 0.10462 0.0
C630 C 0.32385 0.95512 0.14108 0.0
C631 C 0.30031 0.96915 0.13548 0.0
C632 C 0.29169 0.99063 0.1517 0.0
C633 C 0.30755 0.99793 0.17421 0.0
C634 C 0.33176 0.98382 0.18023 0.0
C635 C 0.33994 0.96219 0.16335 0.0
H636 H 0.3378 0.36059 0.06104 0.0
H637 H 0.31812 0.29826 1.00207 0.0
H638 H 0.3584 0.27216 0.01634 0.0
H639 H 0.40977 0.358 0.05421 0.0
H640 H 0.41641 0.36277 0.08982 0.0
H641 H 0.38612 0.37655 0.07492 0.0
H642 H 0.35686 0.35072 0.10997 0.0
H643 H 0.38707 0.33698 0.12507 0.0
H644 H 0.36065 0.31455 0.11337 0.0
H645 H 0.4021 0.25396 0.0357 0.0
H646 H 0.44372 0.24306 0.06142 0.0
H647 H 0.43332 0.31603 0.10943 0.0
C648 C 0.34195 0.34141 0.05118 0.0
C649 C 0.32494 0.33146 0.03037 0.0
C650 C 0.33089 0.30621 0.01809 0.0
C651 C 0.35375 0.2913 0.026 0.0
C652 C 0.37025 0.30178 0.04644 0.0
C653 C 0.36444 0.32609 0.05911 0.0
C654 C 0.38506 0.33256 0.08095 0.0
C655 C 0.40024 0.35904 0.07458 0.0
C656 C 0.3716 0.33376 0.109 0.0
C657 C 0.40352 0.30821 0.07844 0.0
C658 C 0.39478 0.29081 0.05826 0.0
C659 C 0.40901 0.26733 0.05169 0.0
C660 C 0.43266 0.26136 0.06633 0.0
C661 C 0.44162 0.27863 0.08747 0.0
C662 C 0.42682 0.30235 0.09351 0.0
H663 H 0.96659 0.84418 0.14665 0.0
H664 H 0.99212 0.80079 0.21864 0.0
H665 H 0.97978 0.84044 0.24683 0.0
H666 H 0.98966 0.9108 0.16755 0.0
H667 H 0.96106 0.92794 0.15273 0.0
H668 H 0.97296 0.8966 0.13827 0.0
H669 H 0.92506 0.8757 0.14335 0.0
H670 H 0.91299 0.90697 0.15773 0.0
H671 H 0.90897 0.8757 0.17611 0.0
H672 H 0.96357 0.88468 0.26714 0.0
H673 H 0.94318 0.92907 0.27817 0.0
H674 H 0.92786 0.94302 0.19274 0.0
C675 C 0.96975 0.84305 0.16834 0.0
C676 C 0.9804 0.81945 0.18049 0.0
C677 C 0.98402 0.8187 0.20894 0.0
C678 C 0.97714 0.84114 0.22508 0.0
C679 C 0.96665 0.86411 0.21243 0.0
C680 C 0.9629 0.86516 0.1847 0.0
C681 C 0.95041 0.89183 0.17615 0.0
C682 C 0.96968 0.90773 0.15758 0.0
C683 C 0.92272 0.88727 0.16254 0.0
C684 C 0.94745 0.90557 0.20342 0.0
C685 C 0.95712 0.88936 0.22409 0.0
C686 C 0.95604 0.89756 0.2511 0.0
C687 C 0.94447 0.92283 0.25716 0.0
C688 C 0.93401 0.93952 0.23631 0.0
C689 C 0.93582 0.93079 0.20911 0.0
H690 H 0.16656 0.67808 0.50952 0.0
H691 H 0.22247 0.68784 0.57681 0.0
H692 H 0.18612 0.70827 0.60418 0.0
H693 H 0.12927 0.74136 0.52095 0.0
H694 H 0.0971 0.7267 0.51168 0.0
H695 H 0.12784 0.71395 0.49678 0.0
H696 H 0.11575 0.66559 0.51317 0.0
H697 H 0.08507 0.67819 0.52824 0.0
H698 H 0.10916 0.65987 0.54862 0.0
H699 H 0.14349 0.72466 0.62533 0.0
H700 H 0.09735 0.73849 0.63833 0.0
H701 H 0.06873 0.71967 0.55725 0.0
C702 C 0.17119 0.68483 0.52989 0.0
C703 C 0.19737 0.68141 0.54103 0.0
C704 C 0.20261 0.69033 0.56783 0.0
C705 C 0.18209 0.70194 0.58356 0.0
C706 C 0.15644 0.70468 0.57216 0.0
C707 C 0.15092 0.69664 0.54589 0.0
C708 C 0.1214 0.70147 0.53884 0.0
C709 C 0.11876 0.7221 0.51569 0.0
C710 C 0.107 0.67468 0.53181 0.0
C711 C 0.11117 0.7131 0.56538 0.0
C712 C 0.13178 0.71471 0.5843 0.0
C713 C 0.12724 0.72377 0.61063 0.0
C714 C 0.10094 0.73149 0.61784 0.0
C715 C 0.07952 0.73027 0.59877 0.0
C716 C 0.08478 0.72105 0.57216 0.0
H717 H 0.98307 0.68498 0.6953 0.0
H718 H 0.94681 0.67675 0.61551 0.0
H719 H 0.92329 0.63535 0.63017 0.0
H720 H 0.99422 0.61272 0.70511 0.0
H721 H 0.98664 0.6134 0.74082 0.0
H722 H 1.00047 0.64304 0.7246 0.0
H723 H 0.95992 0.67153 0.74164 0.0
H724 H 0.94601 0.64201 0.75796 0.0
H725 H 0.9259 0.66065 0.73387 0.0
H726 H 0.90213 0.59655 0.65315 0.0
H727 H 0.88612 0.55998 0.68303 0.0
H728 H 0.93794 0.58988 0.74761 0.0
C729 C 0.9701 0.67443 0.68104 0.0
C730 C 0.96667 0.68411 0.65428 0.0
C731 C 0.94979 0.66966 0.63606 0.0
C732 C 0.93629 0.64614 0.64419 0.0
C733 C 0.94014 0.63701 0.67054 0.0
C734 C 0.95677 0.65043 0.68871 0.0
C735 C 0.95765 0.63554 0.71565 0.0
C736 C 0.98646 0.62558 0.72191 0.0
C737 C 0.94671 0.65351 0.73864 0.0
C738 C 0.93868 0.61195 0.70975 0.0
C739 C 0.92873 0.61347 0.68362 0.0
C740 C 0.90996 0.59493 0.67357 0.0
C741 C 0.90096 0.57427 0.6907 0.0
C742 C 0.91099 0.57201 0.71746 0.0
C743 C 0.93032 0.59094 0.72706 0.0
H744 H 0.17921 0.14655 0.44512 0.0
H745 H 0.19177 0.19681 0.5163 0.0
H746 H 0.14923 0.22123 0.50646 0.0
H747 H 0.15276 0.19954 0.40278 0.0
H748 H 0.12873 0.17774 0.38589 0.0
H749 H 0.15978 0.16388 0.39903 0.0
H750 H 0.13229 0.12907 0.42708 0.0
H751 H 0.10114 0.14298 0.41419 0.0
H752 H 0.1067 0.14094 0.45023 0.0
H753 H 0.10509 0.23984 0.48908 0.0
H754 H 0.06441 0.25374 0.46346 0.0
H755 H 0.0813 0.19212 0.40298 0.0
C756 C 0.173 0.16271 0.45862 0.0
C757 C 0.18872 0.16977 0.48151 0.0
C758 C 0.18004 0.19112 0.49862 0.0
C759 C 0.15586 0.20501 0.49327 0.0
C760 C 0.1407 0.1974 0.47065 0.0
C761 C 0.14905 0.17693 0.45345 0.0
C762 C 0.12949 0.17329 0.43004 0.0
C763 C 0.14353 0.17896 0.40283 0.0
C764 C 0.11665 0.14488 0.43042 0.0
C765 C 0.10886 0.19496 0.43672 0.0
C766 C 0.11556 0.20846 0.46036 0.0
C767 C 0.09964 0.22942 0.47054 0.0
C768 C 0.07653 0.2371 0.45591 0.0
C769 C 0.06969 0.22399 0.43127 0.0
C770 C 0.08596 0.20245 0.4218 0.0
H771 H 0.57277 0.44745 0.20961 0.0
H772 H 0.60841 0.41124 0.28121 0.0
H773 H 0.58794 0.36716 0.26917 0.0
H774 H 0.50965 0.40674 0.20815 0.0
H775 H 0.50994 0.40357 0.17176 0.0
H776 H 0.52437 0.43317 0.18771 0.0
H777 H 0.56974 0.4244 0.16297 0.0
H778 H 0.5555 0.39477 0.14705 0.0
H779 H 0.58618 0.39202 0.16668 0.0
H780 H 0.56601 0.32664 0.24843 0.0
H781 H 0.54609 0.29145 0.21887 0.0
H782 H 0.52668 0.35279 0.15902 0.0
C783 C 0.57563 0.43035 0.22302 0.0
C784 C 0.59179 0.43273 0.24655 0.0
C785 C 0.59591 0.4098 0.26321 0.0
C786 C 0.58431 0.38472 0.25658 0.0
C787 C 0.56889 0.38281 0.23302 0.0
C788 C 0.56461 0.40492 0.21636 0.0
C789 C 0.5493 0.39666 0.19096 0.0
C790 C 0.52167 0.41088 0.18958 0.0
C791 C 0.5662 0.40229 0.16541 0.0
C792 C 0.54604 0.36647 0.1958 0.0
C793 C 0.55711 0.35903 0.2204 0.0
C794 C 0.55713 0.33221 0.22918 0.0
C795 C 0.54577 0.31237 0.21225 0.0
C796 C 0.53485 0.31937 0.18667 0.0
C797 C 0.53482 0.34684 0.1785 0.0
H798 H 0.32438 0.85691 0.9432 0.0
H799 H 0.30808 0.8015 0.00939 0.0
H800 H 0.34869 0.77495 0.99709 0.0
H801 H 0.34822 0.80661 0.8957 0.0
H802 H 0.37385 0.82848 0.88164 0.0
H803 H 0.34337 0.84281 0.89555 0.0
H804 H 0.37212 0.87297 0.92766 0.0
H805 H 0.40268 0.85866 0.91392 0.0
H806 H 0.39652 0.85736 0.94987 0.0
H807 H 0.3916 0.75491 0.9779 0.0
H808 H 0.43295 0.74233 0.95267 0.0
H809 H 0.42092 0.81086 0.89902 0.0
C810 C 0.32928 0.83913 0.95505 0.0
C811 C 0.31307 0.83123 0.97724 0.0
C812 C 0.32019 0.80787 0.99227 0.0
C813 C 0.34323 0.7927 0.98546 0.0
C814 C 0.35887 0.80114 0.96355 0.0
C815 C 0.35215 0.82376 0.94852 0.0
C816 C 0.37236 0.82857 0.92598 0.0
C817 C 0.35863 0.82648 0.89807 0.0
C818 C 0.38677 0.85602 0.92959 0.0
C819 C 0.39157 0.80518 0.93072 0.0
C820 C 0.38347 0.78959 0.95249 0.0
C821 C 0.39811 0.76694 0.96079 0.0
C822 C 0.42157 0.75998 0.94636 0.0
C823 C 0.43013 0.77561 0.92391 0.0
C824 C 0.41489 0.79851 0.9161 0.0
H825 H 0.94178 0.43565 0.78274 0.0
H826 H 0.8799 0.45224 0.84274 0.0
H827 H 0.89412 0.412 0.8687 0.0
H828 H 0.93241 0.36409 0.78272 0.0
H829 H 0.9677 0.35595 0.77832 0.0
H830 H 0.95458 0.38747 0.76553 0.0
H831 H 0.99053 0.41405 0.79314 0.0
H832 H 0.00391 0.38259 0.80588 0.0
H833 H 0.99319 0.40863 0.82916 0.0
H834 H 0.91399 0.36984 0.88764 0.0
H835 H 0.93753 0.32706 0.89794 0.0
H836 H 0.98502 0.33542 0.8245 0.0
C837 C 0.93165 0.43102 0.80162 0.0
C838 C 0.90997 0.44718 0.81099 0.0
C839 C 0.89664 0.44017 0.83535 0.0
C840 C 0.90459 0.41739 0.85023 0.0
C841 C 0.92568 0.40158 0.84028 0.0
C842 C 0.93901 0.40794 0.81651 0.0
C843 C 0.95992 0.38649 0.80961 0.0
C844 C 0.95324 0.37268 0.78243 0.0
C845 C 0.98859 0.39867 0.80945 0.0
C846 C 0.95615 0.36711 0.83316 0.0
C847 C 0.93647 0.37643 0.85071 0.0
C848 C 0.92943 0.3623 0.87406 0.0
C849 C 0.94291 0.33801 0.87972 0.0
C850 C 0.96299 0.32786 0.86198 0.0
C851 C 0.96961 0.3426 0.83833 0.0
H852 H 0.32767 0.15457 0.56558 0.0
H853 H 0.33118 0.18695 0.48402 0.0
H854 H 0.37384 0.2108 0.49543 0.0
H855 H 0.3524 0.21519 0.59891 0.0
H856 H 0.37111 0.19669 0.6242 0.0
H857 H 0.34109 0.18207 0.60938 0.0
H858 H 0.36857 0.13968 0.59515 0.0
H859 H 0.3987 0.15422 0.60981 0.0
H860 H 0.39856 0.14381 0.57478 0.0
H861 H 0.41734 0.22938 0.51536 0.0
H862 H 0.45623 0.24437 0.5434 0.0
H863 H 0.42265 0.20182 0.61247 0.0
C864 C 0.33741 0.16672 0.55015 0.0
C865 C 0.32626 0.16886 0.52389 0.0
C866 C 0.33941 0.18511 0.50428 0.0
C867 C 0.36367 0.19864 0.51055 0.0
C868 C 0.37426 0.19596 0.5366 0.0
C869 C 0.36137 0.18067 0.55618 0.0
C870 C 0.37659 0.18158 0.58281 0.0
C871 C 0.35926 0.19467 0.60514 0.0
C872 C 0.38617 0.15313 0.59111 0.0
C873 C 0.40021 0.19956 0.57511 0.0
C874 C 0.39865 0.20747 0.54832 0.0
C875 C 0.41865 0.2235 0.53643 0.0
C876 C 0.44068 0.23183 0.55245 0.0
C877 C 0.44232 0.22438 0.58008 0.0
C878 C 0.42179 0.20802 0.59145 0.0
H879 H 0.51973 0.67327 0.32874 0.0
H880 H 0.5922 0.71547 0.35557 0.0
H881 H 0.62035 0.67841 0.33766 0.0
H882 H 0.54279 0.60676 0.3464 0.0
H883 H 0.52745 0.59015 0.31765 0.0
H884 H 0.51273 0.6207 0.33109 0.0
H885 H 0.51593 0.64316 0.28381 0.0
H886 H 0.53068 0.61265 0.27022 0.0
H887 H 0.54817 0.64456 0.26678 0.0
H888 H 0.64077 0.63729 0.3176 0.0
H889 H 0.65254 0.59282 0.2984 0.0
H890 H 0.56725 0.57525 0.28573 0.0
C891 C 0.54154 0.67475 0.33058 0.0
C892 C 0.55382 0.69733 0.3434 0.0
C893 C 0.58237 0.6984 0.3458 0.0
C894 C 0.59855 0.67748 0.33563 0.0
C895 C 0.5859 0.65547 0.32325 0.0
C896 C 0.55807 0.65378 0.32079 0.0
C897 C 0.54979 0.62716 0.3076 0.0
C898 C 0.53215 0.61019 0.32684 0.0
C899 C 0.53528 0.63219 0.28049 0.0
C900 C 0.5773 0.61418 0.30326 0.0
C901 C 0.59779 0.63109 0.31221 0.0
C902 C 0.62493 0.62384 0.31049 0.0
C903 C 0.6314 0.59851 0.2995 0.0
C904 C 0.61084 0.58053 0.29056 0.0
C905 C 0.5834 0.58856 0.29239 0.0
H906 H 0.08443 0.80249 0.11462 0.0
H907 H 0.05614 0.75001 0.04983 0.0
H908 H 0.0951 0.76395 0.02167 0.0
H909 H 0.10599 0.85675 0.0719 0.0
H910 H 0.13503 0.86532 0.09237 0.0
H911 H 0.10567 0.85022 0.10782 0.0
H912 H 0.13552 0.81172 0.12726 0.0
H913 H 0.16499 0.8267 0.11185 0.0
H914 H 0.15626 0.79194 0.10465 0.0
H915 H 0.13706 0.78389 1.00051 0.0
H916 H 0.1778 0.8098 0.98718 0.0
H917 H 0.17775 0.85034 0.06528 0.0
C918 C 0.08655 0.79378 0.09458 0.0
C919 C 0.06737 0.77506 0.08442 0.0
C920 C 0.07064 0.76436 0.05799 0.0
C921 C 0.09272 0.77211 0.04189 0.0
C922 C 0.11123 0.7907 0.05247 0.0
C923 C 0.1083 0.8015 0.07815 0.0
C924 C 0.13047 0.82186 0.08436 0.0
C925 C 0.11857 0.85021 0.0894 0.0
C926 C 0.14784 0.81248 0.10846 0.0
C927 C 0.1463 0.82088 0.05813 0.0
C928 C 0.135 0.80263 0.04007 0.0
C929 C 0.14608 0.79823 0.01448 0.0
C930 C 0.16922 0.81301 0.00711 0.0
C931 C 0.18089 0.83208 0.02517 0.0
C932 C 0.16926 0.83592 0.05102 0.0
H933 H 0.71009 0.89887 0.59377 0.0
H934 H 0.74671 0.97158 0.56051 0.0
H935 H 0.73135 0.99764 0.6003 0.0
H936 H 0.65118 0.93107 0.62078 0.0
H937 H 0.64978 0.91031 0.65076 0.0
H938 H 0.66446 0.89706 0.62012 0.0
H939 H 0.70882 0.88634 0.64603 0.0
H940 H 0.69428 0.89962 0.67676 0.0
H941 H 0.7259 0.91301 0.66437 0.0
H942 H 0.71103 0.01616 0.64272 0.0
H943 H 0.6865 0.02617 0.68505 0.0
H944 H 0.66309 0.94157 0.69137 0.0
C945 C 0.71498 0.92024 0.59495 0.0
C946 C 0.72964 0.9332 0.57405 0.0
C947 C 0.73553 0.96122 0.57627 0.0
C948 C 0.72694 0.9762 0.59881 0.0
C949 C 0.7125 0.96286 0.61902 0.0
C950 C 0.70653 0.93553 0.61735 0.0
C951 C 0.69014 0.92633 0.64163 0.0
C952 C 0.66224 0.91557 0.63278 0.0
C953 C 0.70572 0.90507 0.65818 0.0
C954 C 0.68765 0.95281 0.65706 0.0
C955 C 0.70079 0.97358 0.64366 0.0
C956 C 0.70079 1.00005 0.65349 0.0
C957 C 0.6868 0.00553 0.67755 0.0
C958 C 0.67299 0.98464 0.69156 0.0
C959 C 0.67367 0.9579 0.68124 0.0
H960 H 0.82961 0.95574 0.31624 0.0
H961 H 0.8703 0.02582 0.35076 0.0
H962 H 0.85259 0.01401 0.3959 0.0
H963 H 0.7693 0.95866 0.35912 0.0
H964 H 0.7668 0.92234 0.36214 0.0
H965 H 0.78138 0.93715 0.33217 0.0
H966 H 0.82492 0.90885 0.33939 0.0
H967 H 0.81055 0.89407 0.36945 0.0
H968 H 0.84278 0.9112 0.37121 0.0
H969 H 0.83206 0.99388 0.43753 0.0
H970 H 0.80963 0.96672 0.47301 0.0
H971 H 0.78268 0.90923 0.41194 0.0
C972 C 0.83446 0.96877 0.33326 0.0
C973 C 0.85123 0.99176 0.32999 0.0
C974 C 0.85745 0.00813 0.35279 0.0
C975 C 0.84748 1.00161 0.37852 0.0
C976 C 0.83133 0.97862 0.38117 0.0
C977 C 0.82478 0.96245 0.35919 0.0
C978 C 0.8078 0.93834 0.36784 0.0
C979 C 0.77965 0.93919 0.35453 0.0
C980 C 0.82239 0.91154 0.3616 0.0
C981 C 0.80607 0.94339 0.3981 0.0
C982 C 0.81968 0.96681 0.40531 0.0
C983 C 0.82123 0.97555 0.43213 0.0
C984 C 0.80847 0.95998 0.45214 0.0
C985 C 0.79444 0.93588 0.44524 0.0
C986 C 0.79326 0.92757 0.41783 0.0
H987 H 0.80676 0.11418 0.09155 0.0
H988 H 0.75071 0.05002 0.06953 0.0
H989 H 0.76478 0.02401 0.11005 0.0
H990 H 0.85977 0.0707 0.11369 0.0
H991 H 0.87049 0.09276 0.14082 0.0
H992 H 0.85473 0.10678 0.1111 0.0
H993 H 0.81852 0.12996 0.14117 0.0
H994 H 0.83415 0.11596 0.17101 0.0
H995 H 0.7988 0.10974 0.16428 0.0
H996 H 0.78541 0.00507 0.15333 0.0
H997 H 0.81299 0.99347 0.19365 0.0
H998 H 0.85675 0.06931 0.18551 0.0
C999 C 0.79726 0.09477 0.09538 0.0
C1000 C 0.77749 0.08417 0.07756 0.0
C1001 C 0.76585 0.05851 0.083 0.0
C1002 C 0.77366 0.04366 0.10598 0.0
C1003 C 0.79329 0.05467 0.12314 0.0
C1004 C 0.80506 0.07957 0.11796 0.0
C1005 C 0.82661 0.08638 0.13872 0.0
C1006 C 0.85455 0.08931 0.12527 0.0
C1007 C 0.81906 0.11203 0.15475 0.0
C1008 C 0.82525 0.06139 0.15639 0.0
C1009 C 0.80571 0.04345 0.14732 0.0
C1010 C 0.80078 0.01897 0.16056 0.0
C1011 C 0.81647 0.01258 0.18346 0.0
C1012 C 0.83702 0.03045 0.19261 0.0
C1013 C 0.84125 0.0552 0.17893 0.0
H1014 H 0.65326 0.01979 0.85392 0.0
H1015 H 0.69942 0.05967 0.7907 0.0
H1016 H 0.72512 0.08501 0.82537 0.0
H1017 H 0.64805 0.07611 0.89847 0.0
H1018 H 0.65236 0.05678 0.92912 0.0
H1019 H 0.63797 0.04098 0.89948 0.0
H1020 H 0.67477 1.00368 0.90112 0.0
H1021 H 0.68918 0.01926 0.93089 0.0
H1022 H 0.71001 0.01328 0.90154 0.0
H1023 H 0.74316 0.10867 0.86626 0.0
H1024 H 0.75588 0.12605 0.91145 0.0
H1025 H 0.70054 0.06898 0.94889 0.0
C1026 C 0.66897 0.03367 0.84744 0.0
C1027 C 0.67433 0.03782 0.81961 0.0
C1028 C 0.69504 0.05611 0.81189 0.0
C1029 C 0.7097 0.07066 0.83143 0.0
C1030 C 0.70368 0.06642 0.85864 0.0
C1031 C 0.68413 0.04809 0.86674 0.0
C1032 C 0.68185 0.04735 0.8974 0.0
C1033 C 0.65336 0.05581 0.90665 0.0
C1034 C 0.68941 0.01922 0.90838 0.0
C1035 C 0.70287 0.06844 0.90519 0.0
C1036 C 0.71502 0.07931 0.88245 0.0
C1037 C 0.73407 0.10008 0.88424 0.0
C1038 C 0.74105 0.10991 0.90997 0.0
C1039 C 0.72932 0.09873 0.9336 0.0
C1040 C 0.71005 0.07764 0.93115 0.0
H1041 H 0.57347 0.694 0.90469 0.0
H1042 H 0.55616 0.76061 0.9595 0.0
H1043 H 0.5948 0.74697 0.98831 0.0
H1044 H 0.59341 0.64557 0.95606 0.0
H1045 H 0.61979 0.63093 0.93554 0.0
H1046 H 0.5904 0.64557 0.91965 0.0
H1047 H 0.62134 0.67708 0.8913 0.0
H1048 H 0.6508 0.66256 0.90711 0.0
H1049 H 0.64546 0.69867 0.90834 0.0
H1050 H 0.63608 0.72684 0.01037 0.0
H1051 H 0.67686 0.70151 0.02432 0.0
H1052 H 0.66699 0.64779 0.95526 0.0
C1053 C 0.57772 0.70564 0.92283 0.0
C1054 C 0.56182 0.72836 0.9299 0.0
C1055 C 0.56807 0.74311 0.95374 0.0
C1056 C 0.58995 0.73552 0.97022 0.0
C1057 C 0.60531 0.71309 0.9626 0.0
C1058 C 0.59944 0.69832 0.9395 0.0
C1059 C 0.61934 0.67531 0.93563 0.0
C1060 C 0.60487 0.64771 0.9368 0.0
C1061 C 0.63517 0.67861 0.90902 0.0
C1062 C 0.63746 0.67954 0.96005 0.0
C1063 C 0.62899 0.70141 0.97537 0.0
C1064 C 0.64282 0.7096 0.99861 0.0
C1065 C 0.66597 0.6951 0.00635 0.0
C1066 C 0.67504 0.67265 0.99092 0.0
C1067 C 0.66045 0.66477 0.96755 0.0
H1068 H 0.10508 0.08431 0.81068 0.0
H1069 H 0.0456 0.06814 0.74792 0.0
H1070 H 0.02082 0.10971 0.7609 0.0
H1071 H 0.0572 0.10909 0.86026 0.0
H1072 H 0.08015 0.13424 0.87362 0.0
H1073 H 0.09324 0.10347 0.85901 0.0
H1074 H 0.1226 0.13178 0.826 0.0
H1075 H 0.10943 0.16263 0.84037 0.0
H1076 H 0.10659 0.15652 0.80446 0.0
H1077 H 1.00359 0.15421 0.77971 0.0
H1078 H 0.99276 0.19569 0.8058 0.0
H1079 H 0.06222 0.18129 0.85769 0.0
C1080 C 0.0868 0.0895 0.79972 0.0
C1081 C 0.07728 0.07311 0.77823 0.0
C1082 C 0.05319 0.08042 0.76449 0.0
C1083 C 0.03906 0.10404 0.77164 0.0
C1084 C 0.04913 0.11993 0.79277 0.0
C1085 C 0.07225 0.11277 0.80686 0.0
C1086 C 0.07836 0.13287 0.82929 0.0
C1087 C 0.07715 0.11909 0.85719 0.0
C1088 C 0.10588 0.14677 0.82474 0.0
C1089 C 0.05519 0.15256 0.82553 0.0
C1090 C 0.03869 0.14492 0.80419 0.0
C1091 C 0.01627 0.16029 0.79657 0.0
C1092 C 0.01035 0.18386 0.8114 0.0
C1093 C 0.0266 0.19162 0.83377 0.0
C1094 C 0.04936 0.17578 0.84075 0.0
H1095 H 0.93477 0.31776 0.40771 0.0
H1096 H 0.93483 0.23654 0.44129 0.0
H1097 H 0.89134 0.24589 0.46404 0.0
H1098 H 0.90795 0.35053 0.46686 0.0
H1099 H 0.88793 0.37449 0.44798 0.0
H1100 H 0.91856 0.36103 0.43355 0.0
H1101 H 0.8916 0.34461 0.39151 0.0
H1102 H 0.86084 0.3579 0.40589 0.0
H1103 H 0.86267 0.32275 0.39606 0.0
H1104 H 0.84773 0.26398 0.48304 0.0
H1105 H 0.80864 0.2906 0.49938 0.0
H1106 H 0.83764 0.36047 0.45465 0.0
C1107 C 0.92558 0.30194 0.4198 0.0
C1108 C 0.93812 0.27639 0.42268 0.0
C1109 C 0.92559 0.25627 0.43884 0.0
C1110 C 0.90083 0.26135 0.45176 0.0
C1111 C 0.88894 0.28672 0.44847 0.0
C1112 C 0.90098 0.30676 0.43307 0.0
C1113 C 0.88442 0.33259 0.4336 0.0
C1114 C 0.90069 0.35604 0.44626 0.0
C1115 C 0.87428 0.33988 0.40507 0.0
C1116 C 0.86126 0.32394 0.45176 0.0
C1117 C 0.86412 0.29733 0.45991 0.0
C1118 C 0.84528 0.28485 0.47681 0.0
C1119 C 0.82311 0.30009 0.48593 0.0
C1120 C 0.82012 0.32757 0.4783 0.0
C1121 C 0.83938 0.33949 0.46081 0.0
H1122 H 0.60757 0.92309 0.81172 0.0
H1123 H 0.54967 0.94193 0.74831 0.0
H1124 H 0.52322 0.90109 0.76024 0.0
H1125 H 0.60594 0.85026 0.80409 0.0
H1126 H 0.60832 0.84386 0.83996 0.0
H1127 H 0.6231 0.87412 0.82589 0.0
H1128 H 0.59511 0.90352 0.85915 0.0
H1129 H 0.58027 0.87337 0.87333 0.0
H1130 H 0.55881 0.89973 0.8601 0.0
H1131 H 0.50315 0.85809 0.77906 0.0
H1132 H 0.48979 0.81724 0.80475 0.0
H1133 H 0.56003 0.82728 0.85677 0.0
C1134 C 0.58939 0.91854 0.80026 0.0
C1135 C 0.58071 0.93559 0.77901 0.0
C1136 C 0.55669 0.92912 0.76467 0.0
C1137 C 0.54157 0.90594 0.77125 0.0
C1138 C 0.55067 0.88955 0.79234 0.0
C1139 C 0.57394 0.89563 0.80673 0.0
C1140 C 0.57886 0.87512 0.82901 0.0
C1141 C 0.60564 0.85994 0.82445 0.0
C1142 C 0.57821 0.88876 0.85706 0.0
C1143 C 0.55471 0.85658 0.82492 0.0
C1144 C 0.5388 0.86514 0.80354 0.0
C1145 C 0.51543 0.85121 0.79586 0.0
C1146 C 0.50803 0.82802 0.81053 0.0
C1147 C 0.52384 0.81913 0.83276 0.0
C1148 C 0.54752 0.83361 0.8399 0.0
H1149 H 0.9463 0.19431 0.33985 0.0
H1150 H 0.02847 0.19207 0.30908 0.0
H1151 H 0.01747 0.15039 0.28323 0.0
H1152 H 0.93881 0.12473 0.35 0.0
H1153 H 0.90379 0.12332 0.33976 0.0
H1154 H 0.91751 0.15413 0.35375 0.0
H1155 H 0.90242 0.18056 0.311 0.0
H1156 H 0.88844 0.14985 0.29693 0.0
H1157 H 0.91306 0.16903 0.27802 0.0
H1158 H 0.99825 0.1063 0.26425 0.0
H1159 H 0.97179 0.06536 0.25183 0.0
H1160 H 0.90224 0.09783 0.29441 0.0
C1161 C 0.96187 0.18534 0.3273 0.0
C1162 C 0.98822 0.19643 0.32639 0.0
C1163 C 0.00809 0.18399 0.3099 0.0
C1164 C 1.00204 0.16029 0.29521 0.0
C1165 C 0.97597 0.14952 0.29704 0.0
C1166 C 0.95613 0.16188 0.31244 0.0
C1167 C 0.93 0.14585 0.31191 0.0
C1168 C 0.92208 0.13645 0.34055 0.0
C1169 C 0.90713 0.16231 0.29867 0.0
C1170 C 0.93832 0.12222 0.29428 0.0
C1171 C 0.96488 0.12462 0.28582 0.0
C1172 C 0.97733 0.10442 0.27046 0.0
C1173 C 0.9622 0.08122 0.26357 0.0
C1174 C 0.93494 0.07853 0.27199 0.0
C1175 C 0.92294 0.09944 0.28738 0.0
H1176 H 0.57883 0.0638 0.69486 0.0
H1177 H 0.56673 0.08231 0.77995 0.0
H1178 H 0.54377 0.12498 0.76734 0.0
H1179 H 0.59512 0.1298 0.67473 0.0
H1180 H 0.57824 0.12787 0.64238 0.0
H1181 H 0.59111 0.09755 0.65793 0.0
H1182 H 0.5435 0.07554 0.65521 0.0
H1183 H 0.53048 0.10576 0.63946 0.0
H1184 H 0.5149 0.09286 0.66982 0.0
H1185 H 0.52535 0.16726 0.74547 0.0
H1186 H 0.51235 0.20558 0.71602 0.0
H1187 H 0.53685 0.15941 0.64531 0.0
C1188 C 0.57086 0.07656 0.71084 0.0
C1189 C 0.57438 0.06968 0.73839 0.0
C1190 C 0.5641 0.08713 0.75871 0.0
C1191 C 0.55104 0.11139 0.75174 0.0
C1192 C 0.54839 0.11785 0.72438 0.0
C1193 C 0.55789 0.10085 0.70424 0.0
C1194 C 0.55391 0.11317 0.67644 0.0
C1195 C 0.58122 0.11734 0.66204 0.0
C1196 C 0.53454 0.0958 0.65922 0.0
C1197 C 0.54113 0.13996 0.68408 0.0
C1198 C 0.53794 0.14221 0.71181 0.0
C1199 C 0.52751 0.1656 0.72371 0.0
C1200 C 0.52024 0.18728 0.70684 0.0
C1201 C 0.52351 0.18543 0.67839 0.0
C1202 C 0.53392 0.16135 0.66696 0.0
H1203 H 0.16839 0.33669 0.99606 0.0
H1204 H 0.22252 0.32677 0.92753 0.0
H1205 H 0.18571 0.30548 0.90138 0.0
H1206 H 0.13164 0.27237 0.98615 0.0
H1207 H 0.0995 0.28649 0.99603 0.0
H1208 H 0.13042 0.29996 0.01012 0.0
H1209 H 0.11717 0.34793 0.99361 0.0
H1210 H 0.08629 0.33461 0.97937 0.0
H1211 H 0.10955 0.35321 0.95828 0.0
H1212 H 0.14291 0.28889 0.88128 0.0
H1213 H 0.09664 0.27465 0.86912 0.0
H1214 H 0.06963 0.29267 0.95081 0.0
C1215 C 0.17252 0.32972 0.97567 0.0
C1216 C 0.19835 0.33339 0.96383 0.0
C1217 C 0.20296 0.32412 0.93706 0.0
C1218 C 0.18216 0.31202 0.922 0.0
C1219 C 0.15689 0.30903 0.93406 0.0
C1220 C 0.15196 0.31729 0.96035 0.0
C1221 C 0.12268 0.31194 0.96812 0.0
C1222 C 0.12097 0.29147 0.99149 0.0
C1223 C 0.10806 0.33851 0.97526 0.0
C1224 C 0.1119 0.29986 0.9419 0.0
C1225 C 0.13206 0.29852 0.92257 0.0
C1226 C 0.12701 0.2895 0.89632 0.0
C1227 C 0.10063 0.28158 0.88958 0.0
C1228 C 0.07964 0.28242 0.90906 0.0
C1229 C 0.0854 0.2915 0.93564 0.0
H1230 H 0.43964 0.69565 0.40615 0.0
H1231 H 0.4458 0.77107 0.45112 0.0
H1232 H 0.40409 0.75946 0.47614 0.0
H1233 H 0.36842 0.69493 0.39884 0.0
H1234 H 0.36478 0.65888 0.40344 0.0
H1235 H 0.39574 0.67249 0.38983 0.0
H1236 H 0.42319 0.64885 0.42779 0.0
H1237 H 0.39232 0.63498 0.4414 0.0
H1238 H 0.41442 0.65484 0.46273 0.0
H1239 H 0.35978 0.74131 0.49365 0.0
H1240 H 0.31819 0.7159 0.50536 0.0
H1241 H 0.34211 0.6513 0.45072 0.0
C1242 C 0.43237 0.70956 0.42149 0.0
C1243 C 0.44593 0.73427 0.42671 0.0
C1244 C 0.43579 0.75197 0.44689 0.0
C1245 C 0.41207 0.7456 0.46115 0.0
C1246 C 0.39893 0.72129 0.45521 0.0
C1247 C 0.40891 0.70335 0.43615 0.0
C1248 C 0.39085 0.67862 0.43356 0.0
C1249 C 0.37926 0.6761 0.40471 0.0
C1250 C 0.40611 0.65279 0.44187 0.0
C1251 C 0.36894 0.68564 0.45382 0.0
C1252 C 0.37389 0.71042 0.46598 0.0
C1253 C 0.35586 0.72173 0.48451 0.0
C1254 C 0.33226 0.70724 0.49095 0.0
C1255 C 0.32708 0.6816 0.47909 0.0
C1256 C 0.34572 0.67072 0.46033 0.0
H1257 H 0.81026 0.52711 0.83606 0.0
H1258 H 0.86972 0.58952 0.81863 0.0
H1259 H 0.85327 0.61637 0.85732 0.0
H1260 H 0.756 0.57276 0.85999 0.0
H1261 H 0.74548 0.55013 0.88661 0.0
H1262 H 0.76006 0.53667 0.85597 0.0
H1263 H 0.7963 0.51157 0.88435 0.0
H1264 H 0.78196 0.52509 0.91504 0.0
H1265 H 0.81726 0.53055 0.90756 0.0
H1266 H 0.83269 0.63546 0.89845 0.0
H1267 H 0.8089 0.64617 0.94078 0.0
H1268 H 0.76297 0.57129 0.93397 0.0
C1269 C 0.81935 0.54669 0.84014 0.0
C1270 C 0.8411 0.55641 0.82424 0.0
C1271 C 0.853 0.58178 0.83052 0.0
C1272 C 0.84377 0.59719 0.85242 0.0
C1273 C 0.82272 0.5869 0.86805 0.0
C1274 C 0.81058 0.56229 0.86233 0.0
C1275 C 0.78939 0.55543 0.88358 0.0
C1276 C 0.76105 0.55365 0.87077 0.0
C1277 C 0.79667 0.5291 0.89851 0.0
C1278 C 0.79182 0.57991 0.90218 0.0
C1279 C 0.81106 0.59782 0.89256 0.0
C1280 C 0.81746 0.62169 0.90615 0.0
C1281 C 0.80383 0.62756 0.93025 0.0
C1282 C 0.78406 0.6096 0.94074 0.0
C1283 C 0.77796 0.58542 0.92645 0.0
H1284 H 0.64502 0.54671 0.17814 0.0
H1285 H 0.71383 0.49855 0.20365 0.0
H1286 H 0.73849 0.51204 0.16208 0.0
H1287 H 0.65034 0.53431 0.10585 0.0
H1288 H 0.64103 0.56848 0.09703 0.0
H1289 H 0.62836 0.5535 0.12777 0.0
H1290 H 0.64804 0.59358 0.15559 0.0
H1291 H 0.66069 0.60869 0.12496 0.0
H1292 H 0.68349 0.6018 0.15264 0.0
H1293 H 0.75581 0.53185 0.11769 0.0
H1294 H 0.76539 0.55847 0.07629 0.0
H1295 H 0.68566 0.59483 0.08142 0.0
C1296 C 0.66517 0.53873 0.17485 0.0
C1297 C 0.67746 0.52138 0.19397 0.0
C1298 C 0.70402 0.51178 0.18918 0.0
C1299 C 0.71812 0.51928 0.1656 0.0
C1300 C 0.70543 0.53654 0.14718 0.0
C1301 C 0.67959 0.54627 0.15168 0.0
C1302 C 0.67098 0.56576 0.12966 0.0
C1303 C 0.64621 0.55485 0.11416 0.0
C1304 C 0.66549 0.59413 0.14142 0.0
C1305 C 0.69603 0.56565 0.11205 0.0
C1306 C 0.7156 0.54845 0.12227 0.0
C1307 C 0.74059 0.54532 0.10952 0.0
C1308 C 0.74583 0.56045 0.08598 0.0
C1309 C 0.72628 0.57868 0.07564 0.0
C1310 C 0.701 0.58101 0.08879 0.0
H1311 H 0.74434 0.4082 0.42151 0.0
H1312 H 0.69641 0.44562 0.48489 0.0
H1313 H 0.67154 0.47202 0.45033 0.0
H1314 H 0.74955 0.46903 0.37926 0.0
H1315 H 0.74773 0.45011 0.34803 0.0
H1316 H 0.7622 0.43481 0.37783 0.0
H1317 H 0.72837 0.39482 0.37368 0.0
H1318 H 0.71374 0.41002 0.34395 0.0
H1319 H 0.69254 0.4017 0.37245 0.0
H1320 H 0.64959 0.49147 0.40867 0.0
H1321 H 0.63418 0.50521 0.3631 0.0
H1322 H 0.69824 0.45735 0.32684 0.0
C1323 C 0.72873 0.4221 0.42811 0.0
C1324 C 0.72219 0.42484 0.45585 0.0
C1325 C 0.70177 0.44331 0.46374 0.0
C1326 C 0.68752 0.45833 0.44426 0.0
C1327 C 0.69429 0.45497 0.41704 0.0
C1328 C 0.71466 0.4376 0.40898 0.0
C1329 C 0.71796 0.43774 0.37843 0.0
C1330 C 0.74603 0.44857 0.37042 0.0
C1331 C 0.71284 0.40938 0.36643 0.0
C1332 C 0.69579 0.45739 0.3705 0.0
C1333 C 0.68235 0.46705 0.39309 0.0
C1334 C 0.66021 0.48435 0.39088 0.0
C1335 C 0.65156 0.49197 0.36491 0.0
C1336 C 0.66518 0.48254 0.3415 0.0
C1337 C 0.68772 0.4652 0.34441 0.0
H1338 H 0.81067 0.4775 0.69581 0.0
H1339 H 0.89458 0.45221 0.68872 0.0
H1340 H 0.88471 0.43163 0.64447 0.0
H1341 H 0.7818 0.4169 0.66465 0.0
H1342 H 0.75531 0.43503 0.6473 0.0
H1343 H 0.76871 0.44795 0.67875 0.0
H1344 H 0.77971 0.49358 0.65532 0.0
H1345 H 0.7666 0.48069 0.62373 0.0
H1346 H 0.80066 0.49378 0.62544 0.0
H1347 H 0.86704 0.41527 0.6007 0.0
H1348 H 0.84112 0.39985 0.56096 0.0
H1349 H 0.76778 0.43374 0.59558 0.0
C1350 C 0.82685 0.46742 0.685 0.0
C1351 C 0.85342 0.46653 0.69577 0.0
C1352 C 0.87407 0.4532 0.68097 0.0
C1353 C 0.86872 0.4415 0.65572 0.0
C1354 C 0.84255 0.44308 0.64546 0.0
C1355 C 0.82181 0.45537 0.65964 0.0
C1356 C 0.79542 0.45369 0.64383 0.0
C1357 C 0.77405 0.43742 0.65957 0.0
C1358 C 0.78499 0.48213 0.63666 0.0
C1359 C 0.8047 0.43854 0.61867 0.0
C1360 C 0.83205 0.43294 0.62006 0.0
C1361 C 0.84557 0.4194 0.59938 0.0
C1362 C 0.83066 0.41081 0.57682 0.0
C1363 C 0.80243 0.41556 0.57514 0.0
C1364 C 0.78935 0.42988 0.59627 0.0
H1365 H 0.3955 0.09143 0.20287 0.0
H1366 H 0.46134 0.05927 0.25138 0.0
H1367 H 0.48939 0.0991 0.23974 0.0
H1368 H 0.43646 0.11814 0.14951 0.0
H1369 H 0.41585 0.14783 0.14453 0.0
H1370 H 0.40081 0.11712 0.15722 0.0
H1371 H 0.38284 0.14324 0.19907 0.0
H1372 H 0.3979 0.17404 0.18654 0.0
H1373 H 0.40621 0.16206 0.22 0.0
H1374 H 0.51069 0.14188 0.22182 0.0
H1375 H 0.52371 0.18439 0.19881 0.0
H1376 H 0.44379 0.18897 0.16246 0.0
C1377 C 0.4158 0.0928 0.2111 0.0
C1378 C 0.42626 0.07225 0.22803 0.0
C1379 C 0.45291 0.07478 0.23837 0.0
C1380 C 0.46899 0.09734 0.2319 0.0
C1381 C 0.45808 0.11724 0.21514 0.0
C1382 C 0.43209 0.11522 0.2049 0.0
C1383 C 0.42533 0.13923 0.18703 0.0
C1384 C 0.41926 0.13002 0.15784 0.0
C1385 C 0.40167 0.15561 0.19888 0.0
C1386 C 0.45165 0.15498 0.18864 0.0
C1387 C 0.47026 0.14197 0.205 0.0
C1388 C 0.49623 0.15231 0.20908 0.0
C1389 C 0.50344 0.17647 0.19594 0.0
C1390 C 0.48474 0.19005 0.17896 0.0
C1391 C 0.45846 0.17918 0.1755 0.0
H1392 H 0.0373 0.81813 0.69351 0.0
H1393 H 0.00957 0.85083 0.61679 0.0
H1394 H 0.02346 0.89659 0.63124 0.0
H1395 H 0.01888 0.87698 0.73587 0.0
H1396 H 0.04882 0.87451 0.75665 0.0
H1397 H 0.03445 0.84445 0.74152 0.0
H1398 H 0.08055 0.8337 0.71902 0.0
H1399 H 0.09502 0.86371 0.73401 0.0
H1400 H 0.09644 0.85884 0.69784 0.0
H1401 H 0.04196 0.93811 0.65241 0.0
H1402 H 0.06571 0.97333 0.67869 0.0
H1403 H 0.08335 0.91458 0.74167 0.0
C1404 C 0.03377 0.83505 0.68003 0.0
C1405 C 0.02218 0.83101 0.6541 0.0
C1406 C 0.01838 0.85349 0.63674 0.0
C1407 C 0.02611 0.87958 0.64479 0.0
C1408 C 0.03781 0.88291 0.67024 0.0
C1409 C 0.04175 0.86134 0.68764 0.0
C1410 C 0.05644 0.87048 0.71316 0.0
C1411 C 0.03858 0.86636 0.73829 0.0
C1412 C 0.08373 0.85581 0.71617 0.0
C1413 C 0.06042 0.9004 0.70711 0.0
C1414 C 0.04919 0.90708 0.68236 0.0
C1415 C 0.05071 0.93321 0.6719 0.0
C1416 C 0.06427 0.95308 0.687 0.0
C1417 C 0.07635 0.94675 0.71225 0.0
C1418 C 0.07418 0.92006 0.72251 0.0
H1419 H 0.44337 0.82913 0.34934 0.0
H1420 H 0.50565 0.81032 0.29036 0.0
H1421 H 0.49116 0.84952 0.26273 0.0
H1422 H 0.392 0.85232 0.30103 0.0
H1423 H 0.3802 0.8787 0.32338 0.0
H1424 H 0.39426 0.84803 0.33723 0.0
H1425 H 0.42899 0.87648 0.3646 0.0
H1426 H 0.41524 0.9072 0.35066 0.0
H1427 H 0.4508 0.89992 0.34705 0.0
H1428 H 0.47185 0.89282 0.24329 0.0
H1429 H 0.44786 0.93544 0.2325 0.0
H1430 H 0.39821 0.92551 0.30426 0.0
C1431 C 0.45367 0.83295 0.33037 0.0
C1432 C 0.47556 0.8166 0.3219 0.0
C1433 C 0.48872 0.82248 0.29713 0.0
C1434 C 0.48067 0.84473 0.28135 0.0
C1435 C 0.45938 0.8608 0.29059 0.0
C1436 C 0.44591 0.85502 0.31442 0.0
C1437 C 0.42435 0.87597 0.32041 0.0
C1438 C 0.39603 0.86297 0.32051 0.0
C1439 C 0.43021 0.89076 0.34727 0.0
C1440 C 0.42796 0.89465 0.2964 0.0
C1441 C 0.44825 0.88557 0.27941 0.0
C1442 C 0.45578 0.89998 0.25634 0.0
C1443 C 0.44211 0.9242 0.25043 0.0
C1444 C 0.42115 0.93374 0.2675 0.0
C1445 C 0.41405 0.91867 0.29074 0.0
H1446 H 0.82027 0.65468 0.07657 0.0
H1447 H 0.79694 0.7166 0.01879 0.0
H1448 H 0.83607 0.74451 0.0329 0.0
H1449 H 0.844 0.70175 0.1295 0.0
H1450 H 0.87145 0.6799 0.1395 0.0
H1451 H 0.84073 0.66552 0.12589 0.0
H1452 H 0.86857 0.64058 0.08907 0.0
H1453 H 0.89933 0.65497 0.10245 0.0
H1454 H 0.89068 0.65981 0.0673 0.0
H1455 H 0.88007 0.76359 0.05011 0.0
H1456 H 0.92407 0.77407 0.07181 0.0
H1457 H 0.91743 0.70104 0.12015 0.0
C1458 C 0.8232 0.67428 0.06717 0.0
C1459 C 0.80559 0.6835 0.04659 0.0
C1460 C 0.81012 0.70921 0.03469 0.0
C1461 C 0.83231 0.72518 0.04253 0.0
C1462 C 0.84956 0.71533 0.06257 0.0
C1463 C 0.84506 0.69064 0.075 0.0
C1464 C 0.86696 0.68452 0.09562 0.0
C1465 C 0.85507 0.68283 0.12433 0.0
C1466 C 0.88229 0.65843 0.08815 0.0
C1467 C 0.88476 0.70933 0.09241 0.0
C1468 C 0.87441 0.72682 0.07319 0.0
C1469 C 0.88816 0.75028 0.06552 0.0
C1470 C 0.91314 0.75602 0.07786 0.0
C1471 C 0.92392 0.73852 0.09781 0.0
C1472 C 0.9094 0.71502 0.10528 0.0
H1473 H 0.57532 0.2803 0.56375 0.0
H1474 H 0.60217 0.2634 0.64573 0.0
H1475 H 0.64829 0.27855 0.63386 0.0
H1476 H 0.63853 0.26102 0.5291 0.0
H1477 H 0.63608 0.28821 0.50489 0.0
H1478 H 0.60577 0.27352 0.51896 0.0
H1479 H 0.59026 0.32103 0.53504 0.0
H1480 H 0.62049 0.33584 0.52108 0.0
H1481 H 0.61238 0.34096 0.55631 0.0
H1482 H 0.69059 0.29777 0.61415 0.0
H1483 H 0.72615 0.32145 0.58835 0.0
H1484 H 0.672 0.32735 0.51926 0.0
C1485 C 0.59106 0.27934 0.57902 0.0
C1486 C 0.58527 0.27047 0.60561 0.0
C1487 C 0.60621 0.27004 0.62523 0.0
C1488 C 0.63248 0.27852 0.61865 0.0
C1489 C 0.63748 0.2875 0.59239 0.0
C1490 C 0.61739 0.28804 0.57287 0.0
C1491 C 0.62776 0.30038 0.54672 0.0
C1492 C 0.62699 0.27953 0.52355 0.0
C1493 C 0.61177 0.32608 0.53937 0.0
C1494 C 0.65665 0.30711 0.55479 0.0
C1495 C 0.66188 0.29917 0.58111 0.0
C1496 C 0.68682 0.3039 0.59345 0.0
C1497 C 0.70689 0.31739 0.57862 0.0
C1498 C 0.70188 0.32619 0.55178 0.0
C1499 C 0.67649 0.32069 0.53967 0.0
H1500 H 0.21129 0.39298 0.08711 0.0
H1501 H 0.25408 0.46172 0.05284 0.0
H1502 H 0.23971 0.49006 0.09146 0.0
H1503 H 0.15419 0.4306 0.11176 0.0
H1504 H 0.15053 0.41073 0.14214 0.0
H1505 H 0.16472 0.39563 0.11212 0.0
H1506 H 0.20753 0.382 0.13924 0.0
H1507 H 0.19349 0.39712 0.16934 0.0
H1508 H 0.22632 0.40765 0.15735 0.0
H1509 H 0.22056 0.51107 0.13357 0.0
H1510 H 0.19678 0.52364 0.17573 0.0
H1511 H 0.16594 0.44151 0.18256 0.0
C1512 C 0.21768 0.41397 0.08779 0.0
C1513 C 0.23385 0.42514 0.06699 0.0
C1514 C 0.24169 0.45274 0.06854 0.0
C1515 C 0.23368 0.46899 0.09042 0.0
C1516 C 0.21776 0.45738 0.11059 0.0
C1517 C 0.20976 0.43055 0.10946 0.0
C1518 C 0.19221 0.42325 0.13356 0.0
C1519 C 0.16372 0.41455 0.12434 0.0
C1520 C 0.2057 0.4012 0.1509 0.0
C1521 C 0.19154 0.4502 0.14834 0.0
C1522 C 0.20652 0.46958 0.13479 0.0
C1523 C 0.2088 0.49607 0.14438 0.0
C1524 C 0.19524 0.50301 0.16835 0.0
C1525 C 0.17955 0.48357 0.18243 0.0
C1526 C 0.17784 0.4568 0.17228 0.0
H1527 H 0.3648 0.4557 0.83335 0.0
H1528 H 0.29551 0.50158 0.80487 0.0
H1529 H 0.26998 0.48832 0.84575 0.0
H1530 H 0.32698 0.40019 0.86072 0.0
H1531 H 0.34918 0.39544 0.88933 0.0
H1532 H 0.36227 0.40928 0.85827 0.0
H1533 H 0.38006 0.45128 0.88445 0.0
H1534 H 0.36693 0.4376 0.9156 0.0
H1535 H 0.35694 0.47097 0.90469 0.0
H1536 H 0.25175 0.46955 0.88934 0.0
H1537 H 0.24153 0.44529 0.93184 0.0
H1538 H 0.32252 0.41129 0.93188 0.0
C1539 C 0.34428 0.46302 0.83577 0.0
C1540 C 0.33213 0.47972 0.81596 0.0
C1541 C 0.30521 0.48877 0.81978 0.0
C1542 C 0.29057 0.4814 0.84297 0.0
C1543 C 0.30314 0.46494 0.86213 0.0
C1544 C 0.32934 0.45578 0.85875 0.0
C1545 C 0.33786 0.43772 0.88206 0.0
C1546 C 0.34445 0.40895 0.87199 0.0
C1547 C 0.36187 0.45015 0.89762 0.0
C1548 C 0.31229 0.43803 0.89897 0.0
C1549 C 0.29256 0.45398 0.88718 0.0
C1550 C 0.26706 0.45707 0.89881 0.0
C1551 C 0.26146 0.44324 0.92296 0.0
C1552 C 0.28124 0.42648 0.9352 0.0
C1553 C 0.30704 0.42409 0.9231 0.0
H1554 H 0.31574 0.60697 0.57242 0.0
H1555 H 0.24777 0.55401 0.55464 0.0
H1556 H 0.25881 0.52657 0.5952 0.0
H1557 H 0.36146 0.55559 0.59808 0.0
H1558 H 0.37509 0.57762 0.62391 0.0
H1559 H 0.3626 0.5917 0.59267 0.0
H1560 H 0.33029 0.62293 0.61979 0.0
H1561 H 0.34249 0.60879 0.65109 0.0
H1562 H 0.30679 0.60812 0.64346 0.0
H1563 H 0.27711 0.50569 0.63881 0.0
H1564 H 0.3009 0.49333 0.68126 0.0
H1565 H 0.35549 0.56142 0.67045 0.0
C1566 C 0.30337 0.58937 0.57679 0.0
C1567 C 0.28102 0.58246 0.56028 0.0
C1568 C 0.2651 0.55954 0.56696 0.0
C1569 C 0.27119 0.54389 0.58995 0.0
C1570 C 0.29317 0.55157 0.60606 0.0
C1571 C 0.309 0.57378 0.59969 0.0
C1572 C 0.33085 0.5785 0.62069 0.0
C1573 C 0.35917 0.57567 0.60808 0.0
C1574 C 0.32738 0.60623 0.63457 0.0
C1575 C 0.32488 0.55553 0.63999 0.0
C1576 C 0.30318 0.54008 0.63122 0.0
C1577 C 0.29411 0.51767 0.64584 0.0
C1578 C 0.30769 0.51083 0.66992 0.0
C1579 C 0.32993 0.52649 0.67919 0.0
C1580 C 0.33845 0.54915 0.66399 0.0
H1581 H 0.15704 0.53045 0.34439 0.0
H1582 H 0.20609 0.56736 0.28159 0.0
H1583 H 0.23146 0.593 0.31647 0.0
H1584 H 0.15251 0.58802 0.38813 0.0
H1585 H 0.15538 0.56878 0.419 0.0
H1586 H 0.14104 0.55333 0.38915 0.0
H1587 H 0.1763 0.51462 0.39198 0.0
H1588 H 0.19071 0.52991 0.42189 0.0
H1589 H 0.21187 0.52283 0.39301 0.0
H1590 H 0.24951 0.61658 0.35777 0.0
H1591 H 0.26195 0.63371 0.40317 0.0
H1592 H 0.20357 0.57912 0.43966 0.0
C1593 C 0.17315 0.54391 0.33803 0.0
C1594 C 0.17955 0.54709 0.31031 0.0
C1595 C 0.20092 0.56465 0.30273 0.0
C1596 C 0.21537 0.57932 0.32238 0.0
C1597 C 0.20847 0.57587 0.34953 0.0
C1598 C 0.18813 0.55834 0.35742 0.0
C1599 C 0.18517 0.55795 0.388 0.0
C1600 C 0.15685 0.5676 0.39656 0.0
C1601 C 0.19139 0.52964 0.39939 0.0
C1602 C 0.20681 0.57827 0.39604 0.0
C1603 C 0.21982 0.58853 0.37349 0.0
C1604 C 0.23969 0.60848 0.37559 0.0
C1605 C 0.24655 0.61814 0.40144 0.0
C1606 C 0.23386 0.60758 0.42486 0.0
C1607 C 0.21383 0.58728 0.42209 0.0
loop_
_geom_bond_atom_site_label_1
_geom_bond_atom_site_label_2
_geom_bond_distance
_geom_bond_site_symmetry_2
_ccdc_geom_bond_type
In0 O1 2.294 . S
In0 O2 2.326 . S
In0 O6 2.266 1_455 S
In0 O7 2.326 1_455 S
In0 O8 2.266 1_455 S
In0 O9 2.326 1_455 S
In0 O11 2.294 . S
In0 O12 2.326 . S
O1 In0 2.294 . S
O1 C10 1.240 . S
O2 In0 2.326 . S
O2 C10 1.252 . S
C3 O6 1.252 . S
C3 O7 1.260 . S
C4 O11 1.240 . S
C4 O12 1.252 . S
C5 O8 1.252 . S
C5 O9 1.260 . S
O6 In0 2.266 1_655 S
O6 C3 1.252 . S
O7 In0 2.326 1_655 S
O7 C3 1.260 . S
O8 In0 2.266 1_655 S
O8 C5 1.252 . S
O9 In0 2.326 1_655 S
O9 C5 1.260 . S
C10 O1 1.240 . S
C10 O2 1.252 . S
O11 In0 2.294 . S
O11 C4 1.240 . S
O12 In0 2.326 . S
O12 C4 1.252 . S
In13 O14 2.294 . S
In13 O15 2.326 . S
In13 O19 2.266 1_455 S
In13 O20 2.326 1_455 S
In13 O21 2.266 . S
In13 O22 2.326 . S
In13 O24 2.294 1_455 S
In13 O25 2.326 1_455 S
O14 In13 2.294 . S
O14 C23 1.240 . S
O15 In13 2.326 . S
O15 C23 1.252 . S
C16 O19 1.252 . S
C16 O20 1.260 . S
C17 O24 1.240 . S
C17 O25 1.252 . S
C18 O21 1.252 . S
C18 O22 1.260 . S
O19 In13 2.266 1_655 S
O19 C16 1.252 . S
O20 In13 2.326 1_655 S
O20 C16 1.260 . S
O21 In13 2.266 . S
O21 C18 1.252 . S
O22 In13 2.326 . S
O22 C18 1.260 . S
C23 O14 1.240 . S
C23 O15 1.252 . S
O24 In13 2.294 1_655 S
O24 C17 1.240 . S
O25 In13 2.326 1_655 S
O25 C17 1.252 . S
In26 O27 2.294 . S
In26 O28 2.326 . S
In26 O32 2.266 . S
In26 O33 2.326 . S
In26 O34 2.266 . S
In26 O35 2.326 . S
In26 O37 2.294 . S
In26 O38 2.326 . S
O27 In26 2.294 . S
O27 C36 1.240 . S
O28 In26 2.326 . S
O28 C36 1.252 . S
C29 O32 1.252 . S
C29 O33 1.260 . S
C30 O37 1.240 . S
C30 O38 1.252 . S
C31 O34 1.252 . S
C31 O35 1.260 . S
O32 In26 2.266 . S
O32 C29 1.252 . S
O33 In26 2.326 . S
O33 C29 1.260 . S
O34 In26 2.266 . S
O34 C31 1.252 . S
O35 In26 2.326 . S
O35 C31 1.260 . S
C36 O27 1.240 . S
C36 O28 1.252 . S
O37 In26 2.294 . S
O37 C30 1.240 . S
O38 In26 2.326 . S
O38 C30 1.252 . S
In39 O40 2.294 . S
In39 O41 2.326 . S
In39 O45 2.266 . S
In39 O46 2.326 . S
In39 O47 2.266 . S
In39 O48 2.326 . S
In39 O50 2.294 . S
In39 O51 2.326 . S
O40 In39 2.294 . S
O40 C49 1.240 . S
O41 In39 2.326 . S
O41 C49 1.252 . S
C42 O45 1.252 . S
C42 O46 1.260 . S
C43 O50 1.240 . S
C43 O51 1.252 . S
C44 O47 1.252 . S
C44 O48 1.260 . S
O45 In39 2.266 . S
O45 C42 1.252 . S
O46 In39 2.326 . S
O46 C42 1.260 . S
O47 In39 2.266 . S
O47 C44 1.252 . S
O48 In39 2.326 . S
O48 C44 1.260 . S
C49 O40 1.240 . S
C49 O41 1.252 . S
O50 In39 2.294 . S
O50 C43 1.240 . S
O51 In39 2.326 . S
O51 C43 1.252 . S
In52 O53 2.294 . S
In52 O54 2.326 . S
In52 O58 2.266 1_455 S
In52 O59 2.326 1_455 S
In52 O60 2.266 1_455 S
In52 O61 2.326 1_455 S
In52 O63 2.294 . S
In52 O64 2.326 . S
O53 In52 2.294 . S
O53 C62 1.240 . S
O54 In52 2.326 . S
O54 C62 1.252 . S
C55 O58 1.252 . S
C55 O59 1.260 . S
C56 O63 1.240 . S
C56 O64 1.252 . S
C57 O60 1.252 . S
C57 O61 1.260 . S
O58 In52 2.266 1_655 S
O58 C55 1.252 . S
O59 In52 2.326 1_655 S
O59 C55 1.260 . S
O60 In52 2.266 1_655 S
O60 C57 1.252 . S
O61 In52 2.326 1_655 S
O61 C57 1.260 . S
C62 O53 1.240 . S
C62 O54 1.252 . S
O63 In52 2.294 . S
O63 C56 1.240 . S
O64 In52 2.326 . S
O64 C56 1.252 . S
In65 O66 2.294 . S
In65 O67 2.326 . S
In65 O71 2.266 . S
In65 O72 2.326 . S
In65 O73 2.266 . S
In65 O74 2.326 . S
In65 O76 2.294 . S
In65 O77 2.326 . S
O66 In65 2.294 . S
O66 C75 1.240 . S
O67 In65 2.326 . S
O67 C75 1.252 . S
C68 O71 1.252 . S
C68 O72 1.260 . S
C69 O76 1.240 . S
C69 O77 1.252 . S
C70 O73 1.252 . S
C70 O74 1.260 . S
O71 In65 2.266 . S
O71 C68 1.252 . S
O72 In65 2.326 . S
O72 C68 1.260 . S
O73 In65 2.266 . S
O73 C70 1.252 . S
O74 In65 2.326 . S
O74 C70 1.260 . S
C75 O66 1.240 . S
C75 O67 1.252 . S
O76 In65 2.294 . S
O76 C69 1.240 . S
O77 In65 2.326 . S
O77 C69 1.252 . S
In78 O79 2.294 . S
In78 O80 2.326 . S
In78 O84 2.266 . S
In78 O85 2.326 . S
In78 O86 2.266 . S
In78 O87 2.326 . S
In78 O89 2.294 . S
In78 O90 2.326 . S
O79 In78 2.294 . S
O79 C88 1.240 . S
O80 In78 2.326 . S
O80 C88 1.252 . S
C81 O84 1.252 . S
C81 O85 1.260 . S
C82 O89 1.240 . S
C82 O90 1.252 . S
C83 O86 1.252 . S
C83 O87 1.260 . S
O84 In78 2.266 . S
O84 C81 1.252 . S
O85 In78 2.326 . S
O85 C81 1.260 . S
O86 In78 2.266 . S
O86 C83 1.252 . S
O87 In78 2.326 . S
O87 C83 1.260 . S
C88 O79 1.240 . S
C88 O80 1.252 . S
O89 In78 2.294 . S
O89 C82 1.240 . S
O90 In78 2.326 . S
O90 C82 1.252 . S
In91 O92 2.278 1_455 S
In91 O93 2.300 1_455 S
In91 O97 2.282 . S
In91 O98 2.352 . S
In91 O99 2.261 1_455 S
In91 O100 2.314 1_455 S
In91 O102 2.300 . S
In91 O103 2.338 . S
O92 In91 2.278 1_655 S
O92 C101 1.240 . S
O93 In91 2.300 1_655 S
O93 C101 1.252 . S
C94 O97 1.252 . S
C94 O98 1.260 . S
C95 O102 1.240 . S
C95 O103 1.252 . S
C96 O99 1.252 . S
C96 O100 1.260 . S
O97 In91 2.282 . S
O97 C94 1.252 . S
O98 In91 2.352 . S
O98 C94 1.260 . S
O99 In91 2.261 1_655 S
O99 C96 1.252 . S
O100 In91 2.314 1_655 S
O100 C96 1.260 . S
C101 O92 1.240 . S
C101 O93 1.252 . S
O102 In91 2.300 . S
O102 C95 1.240 . S
O103 In91 2.338 . S
O103 C95 1.252 . S
In104 O105 2.294 . S
In104 O106 2.326 . S
In104 O110 2.266 1_545 S
In104 O111 2.326 1_545 S
In104 O112 2.266 1_545 S
In104 O113 2.326 1_545 S
In104 O115 2.294 . S
In104 O116 2.326 . S
O105 In104 2.294 . S
O105 C114 1.240 . S
O106 In104 2.326 . S
O106 C114 1.252 . S
C107 O110 1.252 . S
C107 O111 1.260 . S
C108 O115 1.240 . S
C108 O116 1.252 . S
C109 O112 1.252 . S
C109 O113 1.260 . S
O110 In104 2.266 1_565 S
O110 C107 1.252 . S
O111 In104 2.326 1_565 S
O111 C107 1.260 . S
O112 In104 2.266 1_565 S
O112 C109 1.252 . S
O113 In104 2.326 1_565 S
O113 C109 1.260 . S
C114 O105 1.240 . S
C114 O106 1.252 . S
O115 In104 2.294 . S
O115 C108 1.240 . S
O116 In104 2.326 . S
O116 C108 1.252 . S
In117 O118 2.294 . S
In117 O119 2.326 . S
In117 O123 2.266 . S
In117 O124 2.326 . S
In117 O125 2.266 . S
In117 O126 2.326 . S
In117 O128 2.294 . S
In117 O129 2.326 . S
O118 In117 2.294 . S
O118 C127 1.240 . S
O119 In117 2.326 . S
O119 C127 1.252 . S
C120 O123 1.252 . S
C120 O124 1.260 . S
C121 O128 1.240 . S
C121 O129 1.252 . S
C122 O125 1.252 . S
C122 O126 1.260 . S
O123 In117 2.266 . S
O123 C120 1.252 . S
O124 In117 2.326 . S
O124 C120 1.260 . S
O125 In117 2.266 . S
O125 C122 1.252 . S
O126 In117 2.326 . S
O126 C122 1.260 . S
C127 O118 1.240 . S
C127 O119 1.252 . S
O128 In117 2.294 . S
O128 C121 1.240 . S
O129 In117 2.326 . S
O129 C121 1.252 . S
In130 O131 2.294 . S
In130 O132 2.326 . S
In130 O136 2.266 1_545 S
In130 O137 2.326 1_545 S
In130 O138 2.266 1_545 S
In130 O139 2.326 1_545 S
In130 O141 2.294 . S
In130 O142 2.326 . S
O131 In130 2.294 . S
O131 C140 1.240 . S
O132 In130 2.326 . S
O132 C140 1.252 . S
C133 O136 1.252 . S
C133 O137 1.260 . S
C134 O141 1.240 . S
C134 O142 1.252 . S
C135 O138 1.252 . S
C135 O139 1.260 . S
O136 In130 2.266 1_565 S
O136 C133 1.252 . S
O137 In130 2.326 1_565 S
O137 C133 1.260 . S
O138 In130 2.266 1_565 S
O138 C135 1.252 . S
O139 In130 2.326 1_565 S
O139 C135 1.260 . S
C140 O131 1.240 . S
C140 O132 1.252 . S
O141 In130 2.294 . S
O141 C134 1.240 . S
O142 In130 2.326 . S
O142 C134 1.252 . S
In143 O144 2.300 . S
In143 O145 2.338 . S
In143 O149 2.261 1_554 S
In143 O150 2.314 1_554 S
In143 O151 2.282 . S
In143 O152 2.352 . S
In143 O154 2.278 1_554 S
In143 O155 2.300 1_554 S
O144 In143 2.300 . S
O144 C153 1.240 . S
O145 In143 2.338 . S
O145 C153 1.252 . S
C146 O149 1.252 . S
C146 O150 1.260 . S
C147 O154 1.240 . S
C147 O155 1.252 . S
C148 O151 1.252 . S
C148 O152 1.260 . S
O149 In143 2.261 1_556 S
O149 C146 1.252 . S
O150 In143 2.314 1_556 S
O150 C146 1.260 . S
O151 In143 2.282 . S
O151 C148 1.252 . S
O152 In143 2.352 . S
O152 C148 1.260 . S
C153 O144 1.240 . S
C153 O145 1.252 . S
O154 In143 2.278 1_556 S
O154 C147 1.240 . S
O155 In143 2.300 1_556 S
O155 C147 1.252 . S
In156 O157 2.294 . S
In156 O158 2.326 . S
In156 O162 2.266 1_554 S
In156 O163 2.326 1_554 S
In156 O164 2.266 1_554 S
In156 O165 2.326 1_554 S
In156 O167 2.294 . S
In156 O168 2.326 . S
O157 In156 2.294 . S
O157 C166 1.240 . S
O158 In156 2.326 . S
O158 C166 1.252 . S
C159 O162 1.252 . S
C159 O163 1.260 . S
C160 O167 1.240 . S
C160 O168 1.252 . S
C161 O164 1.252 . S
C161 O165 1.260 . S
O162 In156 2.266 1_556 S
O162 C159 1.252 . S
O163 In156 2.326 1_556 S
O163 C159 1.260 . S
O164 In156 2.266 1_556 S
O164 C161 1.252 . S
O165 In156 2.326 1_556 S
O165 C161 1.260 . S
C166 O157 1.240 . S
C166 O158 1.252 . S
O167 In156 2.294 . S
O167 C160 1.240 . S
O168 In156 2.326 . S
O168 C160 1.252 . S
In169 O170 2.294 . S
In169 O171 2.326 . S
In169 O175 2.266 1_554 S
In169 O176 2.326 1_554 S
In169 O177 2.266 1_554 S
In169 O178 2.326 1_554 S
In169 O180 2.294 . S
In169 O181 2.326 . S
O170 In169 2.294 . S
O170 C179 1.240 . S
O171 In169 2.326 . S
O171 C179 1.252 . S
C172 O175 1.252 . S
C172 O176 1.260 . S
C173 O180 1.240 . S
C173 O181 1.252 . S
C174 O177 1.252 . S
C174 O178 1.260 . S
O175 In169 2.266 1_556 S
O175 C172 1.252 . S
O176 In169 2.326 1_556 S
O176 C172 1.260 . S
O177 In169 2.266 1_556 S
O177 C174 1.252 . S
O178 In169 2.326 1_556 S
O178 C174 1.260 . S
C179 O170 1.240 . S
C179 O171 1.252 . S
O180 In169 2.294 . S
O180 C173 1.240 . S
O181 In169 2.326 . S
O181 C173 1.252 . S
In182 O183 2.294 . S
In182 O184 2.326 . S
In182 O188 2.266 . S
In182 O189 2.326 . S
In182 O190 2.266 . S
In182 O191 2.326 . S
In182 O193 2.294 . S
In182 O194 2.326 . S
O183 In182 2.294 . S
O183 C192 1.240 . S
O184 In182 2.326 . S
O184 C192 1.252 . S
C185 O188 1.252 . S
C185 O189 1.260 . S
C186 O193 1.240 . S
C186 O194 1.252 . S
C187 O190 1.252 . S
C187 O191 1.260 . S
O188 In182 2.266 . S
O188 C185 1.252 . S
O189 In182 2.326 . S
O189 C185 1.260 . S
O190 In182 2.266 . S
O190 C187 1.252 . S
O191 In182 2.326 . S
O191 C187 1.260 . S
C192 O183 1.240 . S
C192 O184 1.252 . S
O193 In182 2.294 . S
O193 C186 1.240 . S
O194 In182 2.326 . S
O194 C186 1.252 . S
In195 O196 2.294 . S
In195 O197 2.326 . S
In195 O201 2.266 . S
In195 O202 2.326 . S
In195 O203 2.266 . S
In195 O204 2.326 . S
In195 O206 2.294 . S
In195 O207 2.326 . S
O196 In195 2.294 . S
O196 C205 1.240 . S
O197 In195 2.326 . S
O197 C205 1.252 . S
C198 O201 1.252 . S
C198 O202 1.260 . S
C199 O206 1.240 . S
C199 O207 1.252 . S
C200 O203 1.252 . S
C200 O204 1.260 . S
O201 In195 2.266 . S
O201 C198 1.252 . S
O202 In195 2.326 . S
O202 C198 1.260 . S
O203 In195 2.266 . S
O203 C200 1.252 . S
O204 In195 2.326 . S
O204 C200 1.260 . S
C205 O196 1.240 . S
C205 O197 1.252 . S
O206 In195 2.294 . S
O206 C199 1.240 . S
O207 In195 2.326 . S
O207 C199 1.252 . S
In208 O209 2.300 . S
In208 O210 2.338 . S
In208 O214 2.261 1_545 S
In208 O215 2.314 1_545 S
In208 O216 2.282 . S
In208 O217 2.352 . S
In208 O219 2.278 1_545 S
In208 O220 2.300 1_545 S
O209 In208 2.300 . S
O209 C218 1.240 . S
O210 In208 2.338 . S
O210 C218 1.252 . S
C211 O214 1.252 . S
C211 O215 1.260 . S
C212 O219 1.240 . S
C212 O220 1.252 . S
C213 O216 1.252 . S
C213 O217 1.260 . S
O214 In208 2.261 1_565 S
O214 C211 1.252 . S
O215 In208 2.314 1_565 S
O215 C211 1.260 . S
O216 In208 2.282 . S
O216 C213 1.252 . S
O217 In208 2.352 . S
O217 C213 1.260 . S
C218 O209 1.240 . S
C218 O210 1.252 . S
O219 In208 2.278 1_565 S
O219 C212 1.240 . S
O220 In208 2.300 1_565 S
O220 C212 1.252 . S
In221 O222 2.294 . S
In221 O223 2.326 . S
In221 O227 2.266 . S
In221 O228 2.326 . S
In221 O229 2.266 . S
In221 O230 2.326 . S
In221 O232 2.294 . S
In221 O233 2.326 . S
O222 In221 2.294 . S
O222 C231 1.240 . S
O223 In221 2.326 . S
O223 C231 1.252 . S
C224 O227 1.252 . S
C224 O228 1.260 . S
C225 O232 1.240 . S
C225 O233 1.252 . S
C226 O229 1.252 . S
C226 O230 1.260 . S
O227 In221 2.266 . S
O227 C224 1.252 . S
O228 In221 2.326 . S
O228 C224 1.260 . S
O229 In221 2.266 . S
O229 C226 1.252 . S
O230 In221 2.326 . S
O230 C226 1.260 . S
C231 O222 1.240 . S
C231 O223 1.252 . S
O232 In221 2.294 . S
O232 C225 1.240 . S
O233 In221 2.326 . S
O233 C225 1.252 . S
In234 O235 2.294 . S
In234 O236 2.326 . S
In234 O240 2.266 . S
In234 O241 2.326 . S
In234 O242 2.266 . S
In234 O243 2.326 . S
In234 O245 2.294 . S
In234 O246 2.326 . S
O235 In234 2.294 . S
O235 C244 1.240 . S
O236 In234 2.326 . S
O236 C244 1.252 . S
C237 O240 1.252 . S
C237 O241 1.260 . S
C238 O245 1.240 . S
C238 O246 1.252 . S
C239 O242 1.252 . S
C239 O243 1.260 . S
O240 In234 2.266 . S
O240 C237 1.252 . S
O241 In234 2.326 . S
O241 C237 1.260 . S
O242 In234 2.266 . S
O242 C239 1.252 . S
O243 In234 2.326 . S
O243 C239 1.260 . S
C244 O235 1.240 . S
C244 O236 1.252 . S
O245 In234 2.294 . S
O245 C238 1.240 . S
O246 In234 2.326 . S
O246 C238 1.252 . S
In247 O248 2.294 1_545 S
In247 O249 2.326 1_545 S
In247 O253 2.266 . S
In247 O254 2.326 . S
In247 O255 2.266 1_545 S
In247 O256 2.326 1_545 S
In247 O258 2.294 . S
In247 O259 2.326 . S
O248 In247 2.294 1_565 S
O248 C257 1.240 . S
O249 In247 2.326 1_565 S
O249 C257 1.252 . S
C250 O253 1.252 . S
C250 O254 1.260 . S
C251 O258 1.240 . S
C251 O259 1.252 . S
C252 O255 1.252 . S
C252 O256 1.260 . S
O253 In247 2.266 . S
O253 C250 1.252 . S
O254 In247 2.326 . S
O254 C250 1.260 . S
O255 In247 2.266 1_565 S
O255 C252 1.252 . S
O256 In247 2.326 1_565 S
O256 C252 1.260 . S
C257 O248 1.240 . S
C257 O249 1.252 . S
O258 In247 2.294 . S
O258 C251 1.240 . S
O259 In247 2.326 . S
O259 C251 1.252 . S
In260 O261 2.294 . S
In260 O262 2.326 . S
In260 O266 2.266 1_554 S
In260 O267 2.326 1_554 S
In260 O268 2.266 . S
In260 O269 2.326 . S
In260 O271 2.294 1_554 S
In260 O272 2.326 1_554 S
O261 In260 2.294 . S
O261 C270 1.240 . S
O262 In260 2.326 . S
O262 C270 1.252 . S
C263 O266 1.252 . S
C263 O267 1.260 . S
C264 O271 1.240 . S
C264 O272 1.252 . S
C265 O268 1.252 . S
C265 O269 1.260 . S
O266 In260 2.266 1_556 S
O266 C263 1.252 . S
O267 In260 2.326 1_556 S
O267 C263 1.260 . S
O268 In260 2.266 . S
O268 C265 1.252 . S
O269 In260 2.326 . S
O269 C265 1.260 . S
C270 O261 1.240 . S
C270 O262 1.252 . S
O271 In260 2.294 1_556 S
O271 C264 1.240 . S
O272 In260 2.326 1_556 S
O272 C264 1.252 . S
In273 O274 2.294 . S
In273 O275 2.326 . S
In273 O279 2.266 . S
In273 O280 2.326 . S
In273 O281 2.266 . S
In273 O282 2.326 . S
In273 O284 2.294 . S
In273 O285 2.326 . S
O274 In273 2.294 . S
O274 C283 1.240 . S
O275 In273 2.326 . S
O275 C283 1.252 . S
C276 O279 1.252 . S
C276 O280 1.260 . S
C277 O284 1.240 . S
C277 O285 1.252 . S
C278 O281 1.252 . S
C278 O282 1.260 . S
O279 In273 2.266 . S
O279 C276 1.252 . S
O280 In273 2.326 . S
O280 C276 1.260 . S
O281 In273 2.266 . S
O281 C278 1.252 . S
O282 In273 2.326 . S
O282 C278 1.260 . S
C283 O274 1.240 . S
C283 O275 1.252 . S
O284 In273 2.294 . S
O284 C277 1.240 . S
O285 In273 2.326 . S
O285 C277 1.252 . S
In286 O287 2.294 . S
In286 O288 2.326 . S
In286 O292 2.266 . S
In286 O293 2.326 . S
In286 O294 2.266 . S
In286 O295 2.326 . S
In286 O297 2.294 . S
In286 O298 2.326 . S
O287 In286 2.294 . S
O287 C296 1.240 . S
O288 In286 2.326 . S
O288 C296 1.252 . S
C289 O292 1.252 . S
C289 O293 1.260 . S
C290 O297 1.240 . S
C290 O298 1.252 . S
C291 O294 1.252 . S
C291 O295 1.260 . S
O292 In286 2.266 . S
O292 C289 1.252 . S
O293 In286 2.326 . S
O293 C289 1.260 . S
O294 In286 2.266 . S
O294 C291 1.252 . S
O295 In286 2.326 . S
O295 C291 1.260 . S
C296 O287 1.240 . S
C296 O288 1.252 . S
O297 In286 2.294 . S
O297 C290 1.240 . S
O298 In286 2.326 . S
O298 C290 1.252 . S
In299 O300 2.294 . S
In299 O301 2.326 . S
In299 O305 2.266 . S
In299 O306 2.326 . S
In299 O307 2.266 . S
In299 O308 2.326 . S
In299 O310 2.294 . S
In299 O311 2.326 . S
O300 In299 2.294 . S
O300 C309 1.240 . S
O301 In299 2.326 . S
O301 C309 1.252 . S
C302 O305 1.252 . S
C302 O306 1.260 . S
C303 O310 1.240 . S
C303 O311 1.252 . S
C304 O307 1.252 . S
C304 O308 1.260 . S
O305 In299 2.266 . S
O305 C302 1.252 . S
O306 In299 2.326 . S
O306 C302 1.260 . S
O307 In299 2.266 . S
O307 C304 1.252 . S
O308 In299 2.326 . S
O308 C304 1.260 . S
C309 O300 1.240 . S
C309 O301 1.252 . S
O310 In299 2.294 . S
O310 C303 1.240 . S
O311 In299 2.326 . S
O311 C303 1.252 . S
H312 C324 0.930 . S
H313 C326 0.930 . S
H314 C327 0.930 . S
H315 C331 0.959 . S
H316 C331 0.959 . S
H317 C331 0.961 . S
H318 C332 0.960 . S
H319 C332 0.961 . S
H320 C332 0.959 . S
H321 C335 0.929 . S
H322 C336 0.931 . S
H323 C338 0.930 . S
C324 H312 0.930 . S
C324 C325 1.399 . S
C324 C329 1.399 . S
C325 C324 1.399 . S
C325 C326 1.376 . S
C326 H313 0.930 . S
C326 C325 1.376 . S
C326 C327 1.388 . S
C327 H314 0.930 . S
C327 C326 1.388 . S
C327 C328 1.390 . S
C328 C327 1.390 . S
C328 C329 1.394 . S
C328 C334 1.465 . S
C329 C324 1.399 . S
C329 C328 1.394 . S
C329 C330 1.516 . S
C330 C329 1.516 . S
C330 C331 1.502 . S
C330 C332 1.561 . S
C330 C333 1.526 . S
C331 H315 0.959 . S
C331 H316 0.959 . S
C331 H317 0.961 . S
C331 C330 1.502 . S
C332 H318 0.960 . S
C332 H319 0.961 . S
C332 H320 0.959 . S
C332 C330 1.561 . S
C333 C330 1.526 . S
C333 C334 1.396 . S
C333 C338 1.390 . S
C334 C328 1.465 . S
C334 C333 1.396 . S
C334 C335 1.399 . S
C335 H321 0.929 . S
C335 C334 1.399 . S
C335 C336 1.385 . S
C336 H322 0.931 . S
C336 C335 1.385 . S
C336 C337 1.389 . S
C337 C336 1.389 . S
C337 C338 1.387 . S
C338 H323 0.930 . S
C338 C333 1.390 . S
C338 C337 1.387 . S
H339 C351 0.930 . S
H340 C353 0.930 . S
H341 C354 0.930 . S
H342 C358 0.959 . S
H343 C358 0.959 . S
H344 C358 0.961 . S
H345 C359 0.960 . S
H346 C359 0.961 . S
H347 C359 0.959 . S
H348 C362 0.929 . S
H349 C363 0.931 . S
H350 C365 0.930 . S
C351 H339 0.930 . S
C351 C352 1.399 . S
C351 C356 1.399 . S
C352 C351 1.399 . S
C352 C353 1.376 . S
C353 H340 0.930 . S
C353 C352 1.376 . S
C353 C354 1.388 . S
C354 H341 0.930 . S
C354 C353 1.388 . S
C354 C355 1.390 . S
C355 C354 1.390 . S
C355 C356 1.394 . S
C355 C361 1.465 . S
C356 C351 1.399 . S
C356 C355 1.394 . S
C356 C357 1.516 . S
C357 C356 1.516 . S
C357 C358 1.502 . S
C357 C359 1.561 . S
C357 C360 1.526 . S
C358 H342 0.959 . S
C358 H343 0.959 . S
C358 H344 0.961 . S
C358 C357 1.502 . S
C359 H345 0.960 . S
C359 H346 0.961 . S
C359 H347 0.959 . S
C359 C357 1.561 . S
C360 C357 1.526 . S
C360 C361 1.396 . S
C360 C365 1.390 . S
C361 C355 1.465 . S
C361 C360 1.396 . S
C361 C362 1.399 . S
C362 H348 0.929 . S
C362 C361 1.399 . S
C362 C363 1.385 . S
C363 H349 0.931 . S
C363 C362 1.385 . S
C363 C364 1.389 . S
C364 C363 1.389 . S
C364 C365 1.387 . S
C365 H350 0.930 . S
C365 C360 1.390 . S
C365 C364 1.387 . S
H366 C378 0.930 . S
H367 C380 0.930 . S
H368 C381 0.930 . S
H369 C385 0.959 . S
H370 C385 0.959 . S
H371 C385 0.961 . S
H372 C386 0.960 . S
H373 C386 0.961 . S
H374 C386 0.959 . S
H375 C389 0.929 . S
H376 C390 0.931 . S
H377 C392 0.930 . S
C378 H366 0.930 . S
C378 C379 1.399 . S
C378 C383 1.399 . S
C379 C378 1.399 . S
C379 C380 1.376 . S
C380 H367 0.930 . S
C380 C379 1.376 . S
C380 C381 1.388 . S
C381 H368 0.930 . S
C381 C380 1.388 . S
C381 C382 1.390 . S
C382 C381 1.390 . S
C382 C383 1.394 . S
C382 C388 1.465 . S
C383 C378 1.399 . S
C383 C382 1.394 . S
C383 C384 1.516 . S
C384 C383 1.516 . S
C384 C385 1.502 . S
C384 C386 1.561 . S
C384 C387 1.526 . S
C385 H369 0.959 . S
C385 H370 0.959 . S
C385 H371 0.961 . S
C385 C384 1.502 . S
C386 H372 0.960 . S
C386 H373 0.961 . S
C386 H374 0.959 . S
C386 C384 1.561 . S
C387 C384 1.526 . S
C387 C388 1.396 . S
C387 C392 1.390 . S
C388 C382 1.465 . S
C388 C387 1.396 . S
C388 C389 1.399 . S
C389 H375 0.929 . S
C389 C388 1.399 . S
C389 C390 1.385 . S
C390 H376 0.931 . S
C390 C389 1.385 . S
C390 C391 1.389 . S
C391 C390 1.389 . S
C391 C392 1.387 . S
C392 H377 0.930 . S
C392 C387 1.390 . S
C392 C391 1.387 . S
H393 C405 0.930 . S
H394 C407 0.930 . S
H395 C408 0.930 . S
H396 C412 0.959 . S
H397 C412 0.959 . S
H398 C412 0.961 . S
H399 C413 0.960 . S
H400 C413 0.961 . S
H401 C413 0.959 . S
H402 C416 0.929 . S
H403 C417 0.931 . S
H404 C419 0.930 . S
C405 H393 0.930 . S
C405 C406 1.399 . S
C405 C410 1.399 . S
C406 C405 1.399 . S
C406 C407 1.376 . S
C407 H394 0.930 . S
C407 C406 1.376 . S
C407 C408 1.388 . S
C408 H395 0.930 . S
C408 C407 1.388 . S
C408 C409 1.390 . S
C409 C408 1.390 . S
C409 C410 1.394 . S
C409 C415 1.465 . S
C410 C405 1.399 . S
C410 C409 1.394 . S
C410 C411 1.516 . S
C411 C410 1.516 . S
C411 C412 1.502 . S
C411 C413 1.561 . S
C411 C414 1.526 . S
C412 H396 0.959 . S
C412 H397 0.959 . S
C412 H398 0.961 . S
C412 C411 1.502 . S
C413 H399 0.960 . S
C413 H400 0.961 . S
C413 H401 0.959 . S
C413 C411 1.561 . S
C414 C411 1.526 . S
C414 C415 1.396 . S
C414 C419 1.390 . S
C415 C409 1.465 . S
C415 C414 1.396 . S
C415 C416 1.399 . S
C416 H402 0.929 . S
C416 C415 1.399 . S
C416 C417 1.385 . S
C417 H403 0.931 . S
C417 C416 1.385 . S
C417 C418 1.389 . S
C418 C417 1.389 . S
C418 C419 1.387 . S
C419 H404 0.930 . S
C419 C414 1.390 . S
C419 C418 1.387 . S
H420 C432 0.930 . S
H421 C434 0.930 . S
H422 C435 0.930 . S
H423 C439 0.959 . S
H424 C439 0.959 . S
H425 C439 0.961 . S
H426 C440 0.960 . S
H427 C440 0.961 . S
H428 C440 0.959 . S
H429 C443 0.929 . S
H430 C444 0.931 . S
H431 C446 0.930 . S
C432 H420 0.930 . S
C432 C433 1.399 . S
C432 C437 1.399 . S
C433 C432 1.399 . S
C433 C434 1.376 . S
C434 H421 0.930 . S
C434 C433 1.376 . S
C434 C435 1.388 . S
C435 H422 0.930 . S
C435 C434 1.388 . S
C435 C436 1.390 . S
C436 C435 1.390 . S
C436 C437 1.394 . S
C436 C442 1.465 . S
C437 C432 1.399 . S
C437 C436 1.394 . S
C437 C438 1.516 . S
C438 C437 1.516 . S
C438 C439 1.502 . S
C438 C440 1.561 . S
C438 C441 1.526 . S
C439 H423 0.959 . S
C439 H424 0.959 . S
C439 H425 0.961 . S
C439 C438 1.502 . S
C440 H426 0.960 . S
C440 H427 0.961 . S
C440 H428 0.959 . S
C440 C438 1.561 . S
C441 C438 1.526 . S
C441 C442 1.396 . S
C441 C446 1.390 . S
C442 C436 1.465 . S
C442 C441 1.396 . S
C442 C443 1.399 . S
C443 H429 0.929 . S
C443 C442 1.399 . S
C443 C444 1.385 . S
C444 H430 0.931 . S
C444 C443 1.385 . S
C444 C445 1.389 . S
C445 C444 1.389 . S
C445 C446 1.387 . S
C446 H431 0.930 . S
C446 C441 1.390 . S
C446 C445 1.387 . S
H447 C459 0.930 . S
H448 C461 0.930 . S
H449 C462 0.930 . S
H450 C466 0.959 . S
H451 C466 0.959 . S
H452 C466 0.961 . S
H453 C467 0.960 . S
H454 C467 0.961 . S
H455 C467 0.959 . S
H456 C470 0.929 . S
H457 C471 0.931 . S
H458 C473 0.930 . S
C459 H447 0.930 . S
C459 C460 1.399 . S
C459 C464 1.399 . S
C460 C459 1.399 . S
C460 C461 1.376 . S
C461 H448 0.930 . S
C461 C460 1.376 . S
C461 C462 1.388 . S
C462 H449 0.930 . S
C462 C461 1.388 . S
C462 C463 1.390 . S
C463 C462 1.390 . S
C463 C464 1.394 . S
C463 C469 1.465 . S
C464 C459 1.399 . S
C464 C463 1.394 . S
C464 C465 1.516 . S
C465 C464 1.516 . S
C465 C466 1.502 . S
C465 C467 1.561 . S
C465 C468 1.526 . S
C466 H450 0.959 . S
C466 H451 0.959 . S
C466 H452 0.961 . S
C466 C465 1.502 . S
C467 H453 0.960 . S
C467 H454 0.961 . S
C467 H455 0.959 . S
C467 C465 1.561 . S
C468 C465 1.526 . S
C468 C469 1.396 . S
C468 C473 1.390 . S
C469 C463 1.465 . S
C469 C468 1.396 . S
C469 C470 1.399 . S
C470 H456 0.929 . S
C470 C469 1.399 . S
C470 C471 1.385 . S
C471 H457 0.931 . S
C471 C470 1.385 . S
C471 C472 1.389 . S
C472 C471 1.389 . S
C472 C473 1.387 . S
C473 H458 0.930 . S
C473 C468 1.390 . S
C473 C472 1.387 . S
H474 C486 0.930 . S
H475 C488 0.930 . S
H476 C489 0.930 . S
H477 C493 0.959 . S
H478 C493 0.959 . S
H479 C493 0.961 . S
H480 C494 0.960 . S
H481 C494 0.961 . S
H482 C494 0.959 . S
H483 C497 0.929 . S
H484 C498 0.931 . S
H485 C500 0.930 . S
C486 H474 0.930 . S
C486 C487 1.399 . S
C486 C491 1.399 . S
C487 C486 1.399 . S
C487 C488 1.376 . S
C488 H475 0.930 . S
C488 C487 1.376 . S
C488 C489 1.388 . S
C489 H476 0.930 . S
C489 C488 1.388 . S
C489 C490 1.390 . S
C490 C489 1.390 . S
C490 C491 1.394 . S
C490 C496 1.465 . S
C491 C486 1.399 . S
C491 C490 1.394 . S
C491 C492 1.516 . S
C492 C491 1.516 . S
C492 C493 1.502 . S
C492 C494 1.561 . S
C492 C495 1.526 . S
C493 H477 0.959 . S
C493 H478 0.959 . S
C493 H479 0.961 . S
C493 C492 1.502 . S
C494 H480 0.960 . S
C494 H481 0.961 . S
C494 H482 0.959 . S
C494 C492 1.561 . S
C495 C492 1.526 . S
C495 C496 1.396 . S
C495 C500 1.390 . S
C496 C490 1.465 . S
C496 C495 1.396 . S
C496 C497 1.399 . S
C497 H483 0.929 . S
C497 C496 1.399 . S
C497 C498 1.385 . S
C498 H484 0.931 . S
C498 C497 1.385 . S
C498 C499 1.389 . S
C499 C498 1.389 . S
C499 C500 1.387 . S
C500 H485 0.930 . S
C500 C495 1.390 . S
C500 C499 1.387 . S
H501 C513 0.930 . S
H502 C515 0.930 . S
H503 C516 0.930 . S
H504 C520 0.959 . S
H505 C520 0.959 . S
H506 C520 0.961 . S
H507 C521 0.960 . S
H508 C521 0.961 . S
H509 C521 0.959 . S
H510 C524 0.929 . S
H511 C525 0.931 . S
H512 C527 0.930 . S
C513 H501 0.930 . S
C513 C514 1.399 . S
C513 C518 1.399 . S
C514 C513 1.399 . S
C514 C515 1.376 . S
C515 H502 0.930 . S
C515 C514 1.376 . S
C515 C516 1.388 . S
C516 H503 0.930 . S
C516 C515 1.388 . S
C516 C517 1.390 . S
C517 C516 1.390 . S
C517 C518 1.394 . S
C517 C523 1.465 . S
C518 C513 1.399 . S
C518 C517 1.394 . S
C518 C519 1.516 . S
C519 C518 1.516 . S
C519 C520 1.502 . S
C519 C521 1.561 . S
C519 C522 1.526 . S
C520 H504 0.959 . S
C520 H505 0.959 . S
C520 H506 0.961 . S
C520 C519 1.502 . S
C521 H507 0.960 . S
C521 H508 0.961 . S
C521 H509 0.959 . S
C521 C519 1.561 . S
C522 C519 1.526 . S
C522 C523 1.396 . S
C522 C527 1.390 . S
C523 C517 1.465 . S
C523 C522 1.396 . S
C523 C524 1.399 . S
C524 H510 0.929 . S
C524 C523 1.399 . S
C524 C525 1.385 . S
C525 H511 0.931 . S
C525 C524 1.385 . S
C525 C526 1.389 . S
C526 C525 1.389 . S
C526 C527 1.387 . S
C527 H512 0.930 . S
C527 C522 1.390 . S
C527 C526 1.387 . S
H528 C540 0.930 . S
H529 C542 0.930 . S
H530 C543 0.930 . S
H531 C547 0.959 . S
H532 C547 0.959 . S
H533 C547 0.961 . S
H534 C548 0.960 . S
H535 C548 0.961 . S
H536 C548 0.959 . S
H537 C551 0.929 . S
H538 C552 0.931 . S
H539 C554 0.930 . S
C540 H528 0.930 . S
C540 C541 1.399 . S
C540 C545 1.399 . S
C541 C540 1.399 . S
C541 C542 1.376 . S
C542 H529 0.930 . S
C542 C541 1.376 . S
C542 C543 1.388 . S
C543 H530 0.930 . S
C543 C542 1.388 . S
C543 C544 1.390 . S
C544 C543 1.390 . S
C544 C545 1.394 . S
C544 C550 1.465 . S
C545 C540 1.399 . S
C545 C544 1.394 . S
C545 C546 1.516 . S
C546 C545 1.516 . S
C546 C547 1.502 . S
C546 C548 1.561 . S
C546 C549 1.526 . S
C547 H531 0.959 . S
C547 H532 0.959 . S
C547 H533 0.961 . S
C547 C546 1.502 . S
C548 H534 0.960 . S
C548 H535 0.961 . S
C548 H536 0.959 . S
C548 C546 1.561 . S
C549 C546 1.526 . S
C549 C550 1.396 . S
C549 C554 1.390 . S
C550 C544 1.465 . S
C550 C549 1.396 . S
C550 C551 1.399 . S
C551 H537 0.929 . S
C551 C550 1.399 . S
C551 C552 1.385 . S
C552 H538 0.931 . S
C552 C551 1.385 . S
C552 C553 1.389 . S
C553 C552 1.389 . S
C553 C554 1.387 . S
C554 H539 0.930 . S
C554 C549 1.390 . S
C554 C553 1.387 . S
H555 C567 0.930 . S
H556 C569 0.930 . S
H557 C570 0.930 . S
H558 C574 0.959 . S
H559 C574 0.959 . S
H560 C574 0.961 . S
H561 C575 0.960 . S
H562 C575 0.961 . S
H563 C575 0.959 . S
H564 C578 0.929 . S
H565 C579 0.931 . S
H566 C581 0.930 . S
C567 H555 0.930 . S
C567 C568 1.399 . S
C567 C572 1.399 . S
C568 C567 1.399 . S
C568 C569 1.376 . S
C569 H556 0.930 . S
C569 C568 1.376 . S
C569 C570 1.388 . S
C570 H557 0.930 . S
C570 C569 1.388 . S
C570 C571 1.390 . S
C571 C570 1.390 . S
C571 C572 1.394 . S
C571 C577 1.465 . S
C572 C567 1.399 . S
C572 C571 1.394 . S
C572 C573 1.516 . S
C573 C572 1.516 . S
C573 C574 1.502 . S
C573 C575 1.561 . S
C573 C576 1.526 . S
C574 H558 0.959 . S
C574 H559 0.959 . S
C574 H560 0.961 . S
C574 C573 1.502 . S
C575 H561 0.960 . S
C575 H562 0.961 . S
C575 H563 0.959 . S
C575 C573 1.561 . S
C576 C573 1.526 . S
C576 C577 1.396 . S
C576 C581 1.390 . S
C577 C571 1.465 . S
C577 C576 1.396 . S
C577 C578 1.399 . S
C578 H564 0.929 . S
C578 C577 1.399 . S
C578 C579 1.385 . S
C579 H565 0.931 . S
C579 C578 1.385 . S
C579 C580 1.389 . S
C580 C579 1.389 . S
C580 C581 1.387 . S
C581 H566 0.930 . S
C581 C576 1.390 . S
C581 C580 1.387 . S
H582 C594 0.930 . S
H583 C596 0.930 . S
H584 C597 0.930 . S
H585 C601 0.959 . S
H586 C601 0.959 . S
H587 C601 0.961 . S
H588 C602 0.960 . S
H589 C602 0.961 . S
H590 C602 0.959 . S
H591 C605 0.929 . S
H592 C606 0.931 . S
H593 C608 0.930 . S
C594 H582 0.930 . S
C594 C595 1.399 . S
C594 C599 1.399 . S
C595 C594 1.399 . S
C595 C596 1.376 . S
C596 H583 0.930 . S
C596 C595 1.376 . S
C596 C597 1.388 . S
C597 H584 0.930 . S
C597 C596 1.388 . S
C597 C598 1.390 . S
C598 C597 1.390 . S
C598 C599 1.394 . S
C598 C604 1.465 . S
C599 C594 1.399 . S
C599 C598 1.394 . S
C599 C600 1.516 . S
C600 C599 1.516 . S
C600 C601 1.502 . S
C600 C602 1.561 . S
C600 C603 1.526 . S
C601 H585 0.959 . S
C601 H586 0.959 . S
C601 H587 0.961 . S
C601 C600 1.502 . S
C602 H588 0.960 . S
C602 H589 0.961 . S
C602 H590 0.959 . S
C602 C600 1.561 . S
C603 C600 1.526 . S
C603 C604 1.396 . S
C603 C608 1.390 . S
C604 C598 1.465 . S
C604 C603 1.396 . S
C604 C605 1.399 . S
C605 H591 0.929 . S
C605 C604 1.399 . S
C605 C606 1.385 . S
C606 H592 0.931 . S
C606 C605 1.385 . S
C606 C607 1.389 . S
C607 C606 1.389 . S
C607 C608 1.387 . S
C608 H593 0.930 . S
C608 C603 1.390 . S
C608 C607 1.387 . S
H609 C621 0.930 . S
H610 C623 0.930 . S
H611 C624 0.930 . S
H612 C628 0.959 . S
H613 C628 0.959 . S
H614 C628 0.961 . S
H615 C629 0.960 . S
H616 C629 0.961 . S
H617 C629 0.959 . S
H618 C632 0.929 . S
H619 C633 0.931 . S
H620 C635 0.930 . S
C621 H609 0.930 . S
C621 C622 1.399 . S
C621 C626 1.399 . S
C622 C621 1.399 . S
C622 C623 1.376 . S
C623 H610 0.930 . S
C623 C622 1.376 . S
C623 C624 1.388 . S
C624 H611 0.930 . S
C624 C623 1.388 . S
C624 C625 1.390 . S
C625 C624 1.390 . S
C625 C626 1.394 . S
C625 C631 1.465 . S
C626 C621 1.399 . S
C626 C625 1.394 . S
C626 C627 1.516 . S
C627 C626 1.516 . S
C627 C628 1.502 . S
C627 C629 1.561 . S
C627 C630 1.526 . S
C628 H612 0.959 . S
C628 H613 0.959 . S
C628 H614 0.961 . S
C628 C627 1.502 . S
C629 H615 0.960 . S
C629 H616 0.961 . S
C629 H617 0.959 . S
C629 C627 1.561 . S
C630 C627 1.526 . S
C630 C631 1.396 . S
C630 C635 1.390 . S
C631 C625 1.465 . S
C631 C630 1.396 . S
C631 C632 1.399 . S
C632 H618 0.929 . S
C632 C631 1.399 . S
C632 C633 1.385 . S
C633 H619 0.931 . S
C633 C632 1.385 . S
C633 C634 1.389 . S
C634 C633 1.389 . S
C634 C635 1.387 . S
C635 H620 0.930 . S
C635 C630 1.390 . S
C635 C634 1.387 . S
H636 C648 0.930 . S
H637 C650 0.930 . S
H638 C651 0.930 . S
H639 C655 0.959 . S
H640 C655 0.959 . S
H641 C655 0.961 . S
H642 C656 0.960 . S
H643 C656 0.961 . S
H644 C656 0.959 . S
H645 C659 0.929 . S
H646 C660 0.931 . S
H647 C662 0.930 . S
C648 H636 0.930 . S
C648 C649 1.399 . S
C648 C653 1.399 . S
C649 C648 1.399 . S
C649 C650 1.376 . S
C650 H637 0.930 . S
C650 C649 1.376 . S
C650 C651 1.388 . S
C651 H638 0.930 . S
C651 C650 1.388 . S
C651 C652 1.390 . S
C652 C651 1.390 . S
C652 C653 1.394 . S
C652 C658 1.465 . S
C653 C648 1.399 . S
C653 C652 1.394 . S
C653 C654 1.516 . S
C654 C653 1.516 . S
C654 C655 1.502 . S
C654 C656 1.561 . S
C654 C657 1.526 . S
C655 H639 0.959 . S
C655 H640 0.959 . S
C655 H641 0.961 . S
C655 C654 1.502 . S
C656 H642 0.960 . S
C656 H643 0.961 . S
C656 H644 0.959 . S
C656 C654 1.561 . S
C657 C654 1.526 . S
C657 C658 1.396 . S
C657 C662 1.390 . S
C658 C652 1.465 . S
C658 C657 1.396 . S
C658 C659 1.399 . S
C659 H645 0.929 . S
C659 C658 1.399 . S
C659 C660 1.385 . S
C660 H646 0.931 . S
C660 C659 1.385 . S
C660 C661 1.389 . S
C661 C660 1.389 . S
C661 C662 1.387 . S
C662 H647 0.930 . S
C662 C657 1.390 . S
C662 C661 1.387 . S
H663 C675 0.930 . S
H664 C677 0.930 . S
H665 C678 0.930 . S
H666 C682 0.959 . S
H667 C682 0.959 . S
H668 C682 0.961 . S
H669 C683 0.960 . S
H670 C683 0.961 . S
H671 C683 0.959 . S
H672 C686 0.929 . S
H673 C687 0.931 . S
H674 C689 0.930 . S
C675 H663 0.930 . S
C675 C676 1.399 . S
C675 C680 1.399 . S
C676 C675 1.399 . S
C676 C677 1.376 . S
C677 H664 0.930 . S
C677 C676 1.376 . S
C677 C678 1.388 . S
C678 H665 0.930 . S
C678 C677 1.388 . S
C678 C679 1.390 . S
C679 C678 1.390 . S
C679 C680 1.394 . S
C679 C685 1.465 . S
C680 C675 1.399 . S
C680 C679 1.394 . S
C680 C681 1.516 . S
C681 C680 1.516 . S
C681 C682 1.502 . S
C681 C683 1.561 . S
C681 C684 1.526 . S
C682 H666 0.959 . S
C682 H667 0.959 . S
C682 H668 0.961 . S
C682 C681 1.502 . S
C683 H669 0.960 . S
C683 H670 0.961 . S
C683 H671 0.959 . S
C683 C681 1.561 . S
C684 C681 1.526 . S
C684 C685 1.396 . S
C684 C689 1.390 . S
C685 C679 1.465 . S
C685 C684 1.396 . S
C685 C686 1.399 . S
C686 H672 0.929 . S
C686 C685 1.399 . S
C686 C687 1.385 . S
C687 H673 0.931 . S
C687 C686 1.385 . S
C687 C688 1.389 . S
C688 C687 1.389 . S
C688 C689 1.387 . S
C689 H674 0.930 . S
C689 C684 1.390 . S
C689 C688 1.387 . S
H690 C702 0.930 . S
H691 C704 0.930 . S
H692 C705 0.930 . S
H693 C709 0.959 . S
H694 C709 0.959 . S
H695 C709 0.961 . S
H696 C710 0.960 . S
H697 C710 0.961 . S
H698 C710 0.959 . S
H699 C713 0.929 . S
H700 C714 0.931 . S
H701 C716 0.930 . S
C702 H690 0.930 . S
C702 C703 1.399 . S
C702 C707 1.399 . S
C703 C702 1.399 . S
C703 C704 1.376 . S
C704 H691 0.930 . S
C704 C703 1.376 . S
C704 C705 1.388 . S
C705 H692 0.930 . S
C705 C704 1.388 . S
C705 C706 1.390 . S
C706 C705 1.390 . S
C706 C707 1.394 . S
C706 C712 1.465 . S
C707 C702 1.399 . S
C707 C706 1.394 . S
C707 C708 1.516 . S
C708 C707 1.516 . S
C708 C709 1.502 . S
C708 C710 1.561 . S
C708 C711 1.526 . S
C709 H693 0.959 . S
C709 H694 0.959 . S
C709 H695 0.961 . S
C709 C708 1.502 . S
C710 H696 0.960 . S
C710 H697 0.961 . S
C710 H698 0.959 . S
C710 C708 1.561 . S
C711 C708 1.526 . S
C711 C712 1.396 . S
C711 C716 1.390 . S
C712 C706 1.465 . S
C712 C711 1.396 . S
C712 C713 1.399 . S
C713 H699 0.929 . S
C713 C712 1.399 . S
C713 C714 1.385 . S
C714 H700 0.931 . S
C714 C713 1.385 . S
C714 C715 1.389 . S
C715 C714 1.389 . S
C715 C716 1.387 . S
C716 H701 0.930 . S
C716 C711 1.390 . S
C716 C715 1.387 . S
H717 C729 0.930 . S
H718 C731 0.930 . S
H719 C732 0.930 . S
H720 C736 0.959 . S
H721 C736 0.959 . S
H722 C736 0.961 . S
H723 C737 0.960 . S
H724 C737 0.961 . S
H725 C737 0.959 . S
H726 C740 0.929 . S
H727 C741 0.931 . S
H728 C743 0.930 . S
C729 H717 0.930 . S
C729 C730 1.399 . S
C729 C734 1.399 . S
C730 C729 1.399 . S
C730 C731 1.376 . S
C731 H718 0.930 . S
C731 C730 1.376 . S
C731 C732 1.388 . S
C732 H719 0.930 . S
C732 C731 1.388 . S
C732 C733 1.390 . S
C733 C732 1.390 . S
C733 C734 1.394 . S
C733 C739 1.465 . S
C734 C729 1.399 . S
C734 C733 1.394 . S
C734 C735 1.516 . S
C735 C734 1.516 . S
C735 C736 1.502 . S
C735 C737 1.561 . S
C735 C738 1.526 . S
C736 H720 0.959 . S
C736 H721 0.959 . S
C736 H722 0.961 . S
C736 C735 1.502 . S
C737 H723 0.960 . S
C737 H724 0.961 . S
C737 H725 0.959 . S
C737 C735 1.561 . S
C738 C735 1.526 . S
C738 C739 1.396 . S
C738 C743 1.390 . S
C739 C733 1.465 . S
C739 C738 1.396 . S
C739 C740 1.399 . S
C740 H726 0.929 . S
C740 C739 1.399 . S
C740 C741 1.385 . S
C741 H727 0.931 . S
C741 C740 1.385 . S
C741 C742 1.389 . S
C742 C741 1.389 . S
C742 C743 1.387 . S
C743 H728 0.930 . S
C743 C738 1.390 . S
C743 C742 1.387 . S
H744 C756 0.930 . S
H745 C758 0.930 . S
H746 C759 0.930 . S
H747 C763 0.959 . S
H748 C763 0.959 . S
H749 C763 0.961 . S
H750 C764 0.960 . S
H751 C764 0.961 . S
H752 C764 0.959 . S
H753 C767 0.929 . S
H754 C768 0.931 . S
H755 C770 0.930 . S
C756 H744 0.930 . S
C756 C757 1.399 . S
C756 C761 1.399 . S
C757 C756 1.399 . S
C757 C758 1.376 . S
C758 H745 0.930 . S
C758 C757 1.376 . S
C758 C759 1.388 . S
C759 H746 0.930 . S
C759 C758 1.388 . S
C759 C760 1.390 . S
C760 C759 1.390 . S
C760 C761 1.394 . S
C760 C766 1.465 . S
C761 C756 1.399 . S
C761 C760 1.394 . S
C761 C762 1.516 . S
C762 C761 1.516 . S
C762 C763 1.502 . S
C762 C764 1.561 . S
C762 C765 1.526 . S
C763 H747 0.959 . S
C763 H748 0.959 . S
C763 H749 0.961 . S
C763 C762 1.502 . S
C764 H750 0.960 . S
C764 H751 0.961 . S
C764 H752 0.959 . S
C764 C762 1.561 . S
C765 C762 1.526 . S
C765 C766 1.396 . S
C765 C770 1.390 . S
C766 C760 1.465 . S
C766 C765 1.396 . S
C766 C767 1.399 . S
C767 H753 0.929 . S
C767 C766 1.399 . S
C767 C768 1.385 . S
C768 H754 0.931 . S
C768 C767 1.385 . S
C768 C769 1.389 . S
C769 C768 1.389 . S
C769 C770 1.387 . S
C770 H755 0.930 . S
C770 C765 1.390 . S
C770 C769 1.387 . S
H771 C783 0.930 . S
H772 C785 0.930 . S
H773 C786 0.930 . S
H774 C790 0.959 . S
H775 C790 0.959 . S
H776 C790 0.961 . S
H777 C791 0.960 . S
H778 C791 0.961 . S
H779 C791 0.959 . S
H780 C794 0.929 . S
H781 C795 0.931 . S
H782 C797 0.930 . S
C783 H771 0.930 . S
C783 C784 1.399 . S
C783 C788 1.399 . S
C784 C783 1.399 . S
C784 C785 1.376 . S
C785 H772 0.930 . S
C785 C784 1.376 . S
C785 C786 1.388 . S
C786 H773 0.930 . S
C786 C785 1.388 . S
C786 C787 1.390 . S
C787 C786 1.390 . S
C787 C788 1.394 . S
C787 C793 1.465 . S
C788 C783 1.399 . S
C788 C787 1.394 . S
C788 C789 1.516 . S
C789 C788 1.516 . S
C789 C790 1.502 . S
C789 C791 1.561 . S
C789 C792 1.526 . S
C790 H774 0.959 . S
C790 H775 0.959 . S
C790 H776 0.961 . S
C790 C789 1.502 . S
C791 H777 0.960 . S
C791 H778 0.961 . S
C791 H779 0.959 . S
C791 C789 1.561 . S
C792 C789 1.526 . S
C792 C793 1.396 . S
C792 C797 1.390 . S
C793 C787 1.465 . S
C793 C792 1.396 . S
C793 C794 1.399 . S
C794 H780 0.929 . S
C794 C793 1.399 . S
C794 C795 1.385 . S
C795 H781 0.931 . S
C795 C794 1.385 . S
C795 C796 1.389 . S
C796 C795 1.389 . S
C796 C797 1.387 . S
C797 H782 0.930 . S
C797 C792 1.390 . S
C797 C796 1.387 . S
H798 C810 0.930 . S
H799 C812 0.930 1_554 S
H800 C813 0.930 . S
H801 C817 0.959 . S
H802 C817 0.959 . S
H803 C817 0.961 . S
H804 C818 0.960 . S
H805 C818 0.961 . S
H806 C818 0.959 . S
H807 C821 0.929 . S
H808 C822 0.931 . S
H809 C824 0.930 . S
C810 H798 0.930 . S
C810 C811 1.399 . S
C810 C815 1.399 . S
C811 C810 1.399 . S
C811 C812 1.376 . S
C812 H799 0.930 1_556 S
C812 C811 1.376 . S
C812 C813 1.388 . S
C813 H800 0.930 . S
C813 C812 1.388 . S
C813 C814 1.390 . S
C814 C813 1.390 . S
C814 C815 1.394 . S
C814 C820 1.465 . S
C815 C810 1.399 . S
C815 C814 1.394 . S
C815 C816 1.516 . S
C816 C815 1.516 . S
C816 C817 1.502 . S
C816 C818 1.561 . S
C816 C819 1.526 . S
C817 H801 0.959 . S
C817 H802 0.959 . S
C817 H803 0.961 . S
C817 C816 1.502 . S
C818 H804 0.960 . S
C818 H805 0.961 . S
C818 H806 0.959 . S
C818 C816 1.561 . S
C819 C816 1.526 . S
C819 C820 1.396 . S
C819 C824 1.390 . S
C820 C814 1.465 . S
C820 C819 1.396 . S
C820 C821 1.399 . S
C821 H807 0.929 . S
C821 C820 1.399 . S
C821 C822 1.385 . S
C822 H808 0.931 . S
C822 C821 1.385 . S
C822 C823 1.389 . S
C823 C822 1.389 . S
C823 C824 1.387 . S
C824 H809 0.930 . S
C824 C819 1.390 . S
C824 C823 1.387 . S
H825 C837 0.930 . S
H826 C839 0.930 . S
H827 C840 0.930 . S
H828 C844 0.959 . S
H829 C844 0.959 . S
H830 C844 0.961 . S
H831 C845 0.962 . S
H832 C845 0.961 1_455 S
H833 C845 0.959 1_455 S
H834 C848 0.929 . S
H835 C849 0.931 . S
H836 C851 0.930 . S
C837 H825 0.930 . S
C837 C838 1.399 . S
C837 C842 1.399 . S
C838 C837 1.399 . S
C838 C839 1.376 . S
C839 H826 0.930 . S
C839 C838 1.376 . S
C839 C840 1.388 . S
C840 H827 0.930 . S
C840 C839 1.388 . S
C840 C841 1.390 . S
C841 C840 1.390 . S
C841 C842 1.394 . S
C841 C847 1.465 . S
C842 C837 1.399 . S
C842 C841 1.394 . S
C842 C843 1.516 . S
C843 C842 1.516 . S
C843 C844 1.502 . S
C843 C845 1.561 . S
C843 C846 1.526 . S
C844 H828 0.959 . S
C844 H829 0.959 . S
C844 H830 0.961 . S
C844 C843 1.502 . S
C845 H831 0.962 . S
C845 H832 0.961 1_655 S
C845 H833 0.959 1_655 S
C845 C843 1.561 . S
C846 C843 1.526 . S
C846 C847 1.396 . S
C846 C851 1.390 . S
C847 C841 1.465 . S
C847 C846 1.396 . S
C847 C848 1.399 . S
C848 H834 0.929 . S
C848 C847 1.399 . S
C848 C849 1.385 . S
C849 H835 0.931 . S
C849 C848 1.385 . S
C849 C850 1.389 . S
C850 C849 1.389 . S
C850 C851 1.387 . S
C851 H836 0.930 . S
C851 C846 1.390 . S
C851 C850 1.387 . S
H852 C864 0.930 . S
H853 C866 0.930 . S
H854 C867 0.930 . S
H855 C871 0.959 . S
H856 C871 0.959 . S
H857 C871 0.961 . S
H858 C872 0.960 . S
H859 C872 0.961 . S
H860 C872 0.959 . S
H861 C875 0.929 . S
H862 C876 0.931 . S
H863 C878 0.930 . S
C864 H852 0.930 . S
C864 C865 1.399 . S
C864 C869 1.399 . S
C865 C864 1.399 . S
C865 C866 1.376 . S
C866 H853 0.930 . S
C866 C865 1.376 . S
C866 C867 1.388 . S
C867 H854 0.930 . S
C867 C866 1.388 . S
C867 C868 1.390 . S
C868 C867 1.390 . S
C868 C869 1.394 . S
C868 C874 1.465 . S
C869 C864 1.399 . S
C869 C868 1.394 . S
C869 C870 1.516 . S
C870 C869 1.516 . S
C870 C871 1.502 . S
C870 C872 1.561 . S
C870 C873 1.526 . S
C871 H855 0.959 . S
C871 H856 0.959 . S
C871 H857 0.961 . S
C871 C870 1.502 . S
C872 H858 0.960 . S
C872 H859 0.961 . S
C872 H860 0.959 . S
C872 C870 1.561 . S
C873 C870 1.526 . S
C873 C874 1.396 . S
C873 C878 1.390 . S
C874 C868 1.465 . S
C874 C873 1.396 . S
C874 C875 1.399 . S
C875 H861 0.929 . S
C875 C874 1.399 . S
C875 C876 1.385 . S
C876 H862 0.931 . S
C876 C875 1.385 . S
C876 C877 1.389 . S
C877 C876 1.389 . S
C877 C878 1.387 . S
C878 H863 0.930 . S
C878 C873 1.390 . S
C878 C877 1.387 . S
H879 C891 0.930 . S
H880 C893 0.930 . S
H881 C894 0.930 . S
H882 C898 0.959 . S
H883 C898 0.959 . S
H884 C898 0.961 . S
H885 C899 0.960 . S
H886 C899 0.961 . S
H887 C899 0.959 . S
H888 C902 0.929 . S
H889 C903 0.931 . S
H890 C905 0.930 . S
C891 H879 0.930 . S
C891 C892 1.399 . S
C891 C896 1.399 . S
C892 C891 1.399 . S
C892 C893 1.376 . S
C893 H880 0.930 . S
C893 C892 1.376 . S
C893 C894 1.388 . S
C894 H881 0.930 . S
C894 C893 1.388 . S
C894 C895 1.390 . S
C895 C894 1.390 . S
C895 C896 1.394 . S
C895 C901 1.465 . S
C896 C891 1.399 . S
C896 C895 1.394 . S
C896 C897 1.516 . S
C897 C896 1.516 . S
C897 C898 1.502 . S
C897 C899 1.561 . S
C897 C900 1.526 . S
C898 H882 0.959 . S
C898 H883 0.959 . S
C898 H884 0.961 . S
C898 C897 1.502 . S
C899 H885 0.960 . S
C899 H886 0.961 . S
C899 H887 0.959 . S
C899 C897 1.561 . S
C900 C897 1.526 . S
C900 C901 1.396 . S
C900 C905 1.390 . S
C901 C895 1.465 . S
C901 C900 1.396 . S
C901 C902 1.399 . S
C902 H888 0.929 . S
C902 C901 1.399 . S
C902 C903 1.385 . S
C903 H889 0.931 . S
C903 C902 1.385 . S
C903 C904 1.389 . S
C904 C903 1.389 . S
C904 C905 1.387 . S
C905 H890 0.930 . S
C905 C900 1.390 . S
C905 C904 1.387 . S
H906 C918 0.930 . S
H907 C920 0.930 . S
H908 C921 0.930 . S
H909 C925 0.959 . S
H910 C925 0.959 . S
H911 C925 0.961 . S
H912 C926 0.960 . S
H913 C926 0.961 . S
H914 C926 0.959 . S
H915 C929 0.929 . S
H916 C930 0.931 1_556 S
H917 C932 0.930 . S
C918 H906 0.930 . S
C918 C919 1.399 . S
C918 C923 1.399 . S
C919 C918 1.399 . S
C919 C920 1.376 . S
C920 H907 0.930 . S
C920 C919 1.376 . S
C920 C921 1.388 . S
C921 H908 0.930 . S
C921 C920 1.388 . S
C921 C922 1.390 . S
C922 C921 1.390 . S
C922 C923 1.394 . S
C922 C928 1.465 . S
C923 C918 1.399 . S
C923 C922 1.394 . S
C923 C924 1.516 . S
C924 C923 1.516 . S
C924 C925 1.502 . S
C924 C926 1.561 . S
C924 C927 1.526 . S
C925 H909 0.959 . S
C925 H910 0.959 . S
C925 H911 0.961 . S
C925 C924 1.502 . S
C926 H912 0.960 . S
C926 H913 0.961 . S
C926 H914 0.959 . S
C926 C924 1.561 . S
C927 C924 1.526 . S
C927 C928 1.396 . S
C927 C932 1.390 . S
C928 C922 1.465 . S
C928 C927 1.396 . S
C928 C929 1.399 . S
C929 H915 0.929 . S
C929 C928 1.399 . S
C929 C930 1.385 . S
C930 H916 0.931 1_554 S
C930 C929 1.385 . S
C930 C931 1.389 . S
C931 C930 1.389 . S
C931 C932 1.387 . S
C932 H917 0.930 . S
C932 C927 1.390 . S
C932 C931 1.387 . S
H933 C945 0.930 . S
H934 C947 0.930 . S
H935 C948 0.930 . S
H936 C952 0.959 . S
H937 C952 0.959 . S
H938 C952 0.961 . S
H939 C953 0.960 . S
H940 C953 0.961 . S
H941 C953 0.959 . S
H942 C956 0.929 . S
H943 C957 0.931 . S
H944 C959 0.930 . S
C945 H933 0.930 . S
C945 C946 1.399 . S
C945 C950 1.399 . S
C946 C945 1.399 . S
C946 C947 1.376 . S
C947 H934 0.930 . S
C947 C946 1.376 . S
C947 C948 1.388 . S
C948 H935 0.930 . S
C948 C947 1.388 . S
C948 C949 1.390 . S
C949 C948 1.390 . S
C949 C950 1.394 . S
C949 C955 1.465 . S
C950 C945 1.399 . S
C950 C949 1.394 . S
C950 C951 1.516 . S
C951 C950 1.516 . S
C951 C952 1.502 . S
C951 C953 1.561 . S
C951 C954 1.526 . S
C952 H936 0.959 . S
C952 H937 0.959 . S
C952 H938 0.961 . S
C952 C951 1.502 . S
C953 H939 0.960 . S
C953 H940 0.961 . S
C953 H941 0.959 . S
C953 C951 1.561 . S
C954 C951 1.526 . S
C954 C955 1.396 . S
C954 C959 1.390 . S
C955 C949 1.465 . S
C955 C954 1.396 . S
C955 C956 1.399 . S
C956 H942 0.929 . S
C956 C955 1.399 . S
C956 C957 1.385 . S
C957 H943 0.931 . S
C957 C956 1.385 . S
C957 C958 1.389 . S
C958 C957 1.389 . S
C958 C959 1.387 . S
C959 H944 0.930 . S
C959 C954 1.390 . S
C959 C958 1.387 . S
H960 C972 0.930 . S
H961 C974 0.930 1_545 S
H962 C975 0.930 . S
H963 C979 0.959 . S
H964 C979 0.959 . S
H965 C979 0.961 . S
H966 C980 0.960 . S
H967 C980 0.961 . S
H968 C980 0.959 . S
H969 C983 0.929 . S
H970 C984 0.931 . S
H971 C986 0.930 . S
C972 H960 0.930 . S
C972 C973 1.399 . S
C972 C977 1.399 . S
C973 C972 1.399 . S
C973 C974 1.376 . S
C974 H961 0.930 1_565 S
C974 C973 1.376 . S
C974 C975 1.388 . S
C975 H962 0.930 . S
C975 C974 1.388 . S
C975 C976 1.390 . S
C976 C975 1.390 . S
C976 C977 1.394 . S
C976 C982 1.465 . S
C977 C972 1.399 . S
C977 C976 1.394 . S
C977 C978 1.516 . S
C978 C977 1.516 . S
C978 C979 1.502 . S
C978 C980 1.561 . S
C978 C981 1.526 . S
C979 H963 0.959 . S
C979 H964 0.959 . S
C979 H965 0.961 . S
C979 C978 1.502 . S
C980 H966 0.960 . S
C980 H967 0.961 . S
C980 H968 0.959 . S
C980 C978 1.561 . S
C981 C978 1.526 . S
C981 C982 1.396 . S
C981 C986 1.390 . S
C982 C976 1.465 . S
C982 C981 1.396 . S
C982 C983 1.399 . S
C983 H969 0.929 . S
C983 C982 1.399 . S
C983 C984 1.385 . S
C984 H970 0.931 . S
C984 C983 1.385 . S
C984 C985 1.389 . S
C985 C984 1.389 . S
C985 C986 1.387 . S
C986 H971 0.930 . S
C986 C981 1.390 . S
C986 C985 1.387 . S
H987 C999 0.930 . S
H988 C1001 0.930 . S
H989 C1002 0.930 . S
H990 C1006 0.959 . S
H991 C1006 0.959 . S
H992 C1006 0.961 . S
H993 C1007 0.960 . S
H994 C1007 0.961 . S
H995 C1007 0.959 . S
H996 C1010 0.929 1_565 S
H997 C1011 0.931 1_565 S
H998 C1013 0.930 . S
C999 H987 0.930 . S
C999 C1000 1.399 . S
C999 C1004 1.399 . S
C1000 C999 1.399 . S
C1000 C1001 1.376 . S
C1001 H988 0.930 . S
C1001 C1000 1.376 . S
C1001 C1002 1.388 . S
C1002 H989 0.930 . S
C1002 C1001 1.388 . S
C1002 C1003 1.390 . S
C1003 C1002 1.390 . S
C1003 C1004 1.394 . S
C1003 C1009 1.465 . S
C1004 C999 1.399 . S
C1004 C1003 1.394 . S
C1004 C1005 1.516 . S
C1005 C1004 1.516 . S
C1005 C1006 1.502 . S
C1005 C1007 1.561 . S
C1005 C1008 1.526 . S
C1006 H990 0.959 . S
C1006 H991 0.959 . S
C1006 H992 0.961 . S
C1006 C1005 1.502 . S
C1007 H993 0.960 . S
C1007 H994 0.961 . S
C1007 H995 0.959 . S
C1007 C1005 1.561 . S
C1008 C1005 1.526 . S
C1008 C1009 1.396 . S
C1008 C1013 1.390 . S
C1009 C1003 1.465 . S
C1009 C1008 1.396 . S
C1009 C1010 1.399 . S
C1010 H996 0.929 1_545 S
C1010 C1009 1.399 . S
C1010 C1011 1.385 . S
C1011 H997 0.931 1_545 S
C1011 C1010 1.385 . S
C1011 C1012 1.389 . S
C1012 C1011 1.389 . S
C1012 C1013 1.387 . S
C1013 H998 0.930 . S
C1013 C1008 1.390 . S
C1013 C1012 1.387 . S
H1014 C1026 0.930 . S
H1015 C1028 0.930 . S
H1016 C1029 0.930 . S
H1017 C1033 0.959 . S
H1018 C1033 0.959 . S
H1019 C1033 0.961 . S
H1020 C1034 0.960 1_565 S
H1021 C1034 0.961 1_565 S
H1022 C1034 0.959 . S
H1023 C1037 0.929 . S
H1024 C1038 0.931 . S
H1025 C1040 0.930 . S
C1026 H1014 0.930 . S
C1026 C1027 1.399 . S
C1026 C1031 1.399 . S
C1027 C1026 1.399 . S
C1027 C1028 1.376 . S
C1028 H1015 0.930 . S
C1028 C1027 1.376 . S
C1028 C1029 1.388 . S
C1029 H1016 0.930 . S
C1029 C1028 1.388 . S
C1029 C1030 1.390 . S
C1030 C1029 1.390 . S
C1030 C1031 1.394 . S
C1030 C1036 1.465 . S
C1031 C1026 1.399 . S
C1031 C1030 1.394 . S
C1031 C1032 1.516 . S
C1032 C1031 1.516 . S
C1032 C1033 1.502 . S
C1032 C1034 1.561 . S
C1032 C1035 1.526 . S
C1033 H1017 0.959 . S
C1033 H1018 0.959 . S
C1033 H1019 0.961 . S
C1033 C1032 1.502 . S
C1034 H1020 0.960 1_545 S
C1034 H1021 0.961 1_545 S
C1034 H1022 0.959 . S
C1034 C1032 1.561 . S
C1035 C1032 1.526 . S
C1035 C1036 1.396 . S
C1035 C1040 1.390 . S
C1036 C1030 1.465 . S
C1036 C1035 1.396 . S
C1036 C1037 1.399 . S
C1037 H1023 0.929 . S
C1037 C1036 1.399 . S
C1037 C1038 1.385 . S
C1038 H1024 0.931 . S
C1038 C1037 1.385 . S
C1038 C1039 1.389 . S
C1039 C1038 1.389 . S
C1039 C1040 1.387 . S
C1040 H1025 0.930 . S
C1040 C1035 1.390 . S
C1040 C1039 1.387 . S
H1041 C1053 0.930 . S
H1042 C1055 0.930 . S
H1043 C1056 0.930 . S
H1044 C1060 0.959 . S
H1045 C1060 0.959 . S
H1046 C1060 0.961 . S
H1047 C1061 0.960 . S
H1048 C1061 0.961 . S
H1049 C1061 0.959 . S
H1050 C1064 0.929 . S
H1051 C1065 0.931 . S
H1052 C1067 0.930 . S
C1053 H1041 0.930 . S
C1053 C1054 1.399 . S
C1053 C1058 1.399 . S
C1054 C1053 1.399 . S
C1054 C1055 1.376 . S
C1055 H1042 0.930 . S
C1055 C1054 1.376 . S
C1055 C1056 1.388 . S
C1056 H1043 0.930 . S
C1056 C1055 1.388 . S
C1056 C1057 1.390 . S
C1057 C1056 1.390 . S
C1057 C1058 1.394 . S
C1057 C1063 1.465 . S
C1058 C1053 1.399 . S
C1058 C1057 1.394 . S
C1058 C1059 1.516 . S
C1059 C1058 1.516 . S
C1059 C1060 1.502 . S
C1059 C1061 1.561 . S
C1059 C1062 1.526 . S
C1060 H1044 0.959 . S
C1060 H1045 0.959 . S
C1060 H1046 0.961 . S
C1060 C1059 1.502 . S
C1061 H1047 0.960 . S
C1061 H1048 0.961 . S
C1061 H1049 0.959 . S
C1061 C1059 1.561 . S
C1062 C1059 1.526 . S
C1062 C1063 1.396 . S
C1062 C1067 1.390 . S
C1063 C1057 1.465 . S
C1063 C1062 1.396 . S
C1063 C1064 1.399 . S
C1064 H1050 0.929 . S
C1064 C1063 1.399 . S
C1064 C1065 1.385 . S
C1065 H1051 0.931 . S
C1065 C1064 1.385 . S
C1065 C1066 1.389 . S
C1066 C1065 1.389 . S
C1066 C1067 1.387 . S
C1067 H1052 0.930 . S
C1067 C1062 1.390 . S
C1067 C1066 1.387 . S
H1068 C1080 0.930 . S
H1069 C1082 0.930 . S
H1070 C1083 0.930 . S
H1071 C1087 0.959 . S
H1072 C1087 0.959 . S
H1073 C1087 0.961 . S
H1074 C1088 0.960 . S
H1075 C1088 0.961 . S
H1076 C1088 0.959 . S
H1077 C1091 0.929 . S
H1078 C1092 0.931 . S
H1079 C1094 0.930 . S
C1080 H1068 0.930 . S
C1080 C1081 1.399 . S
C1080 C1085 1.399 . S
C1081 C1080 1.399 . S
C1081 C1082 1.376 . S
C1082 H1069 0.930 . S
C1082 C1081 1.376 . S
C1082 C1083 1.388 . S
C1083 H1070 0.930 . S
C1083 C1082 1.388 . S
C1083 C1084 1.390 . S
C1084 C1083 1.390 . S
C1084 C1085 1.394 . S
C1084 C1090 1.465 . S
C1085 C1080 1.399 . S
C1085 C1084 1.394 . S
C1085 C1086 1.516 . S
C1086 C1085 1.516 . S
C1086 C1087 1.502 . S
C1086 C1088 1.561 . S
C1086 C1089 1.526 . S
C1087 H1071 0.959 . S
C1087 H1072 0.959 . S
C1087 H1073 0.961 . S
C1087 C1086 1.502 . S
C1088 H1074 0.960 . S
C1088 H1075 0.961 . S
C1088 H1076 0.959 . S
C1088 C1086 1.561 . S
C1089 C1086 1.526 . S
C1089 C1090 1.396 . S
C1089 C1094 1.390 . S
C1090 C1084 1.465 . S
C1090 C1089 1.396 . S
C1090 C1091 1.399 . S
C1091 H1077 0.929 . S
C1091 C1090 1.399 . S
C1091 C1092 1.385 . S
C1092 H1078 0.931 . S
C1092 C1091 1.385 . S
C1092 C1093 1.389 . S
C1093 C1092 1.389 . S
C1093 C1094 1.387 . S
C1094 H1079 0.930 . S
C1094 C1089 1.390 . S
C1094 C1093 1.387 . S
H1095 C1107 0.930 . S
H1096 C1109 0.930 . S
H1097 C1110 0.930 . S
H1098 C1114 0.959 . S
H1099 C1114 0.959 . S
H1100 C1114 0.961 . S
H1101 C1115 0.960 . S
H1102 C1115 0.961 . S
H1103 C1115 0.959 . S
H1104 C1118 0.929 . S
H1105 C1119 0.931 . S
H1106 C1121 0.930 . S
C1107 H1095 0.930 . S
C1107 C1108 1.399 . S
C1107 C1112 1.399 . S
C1108 C1107 1.399 . S
C1108 C1109 1.376 . S
C1109 H1096 0.930 . S
C1109 C1108 1.376 . S
C1109 C1110 1.388 . S
C1110 H1097 0.930 . S
C1110 C1109 1.388 . S
C1110 C1111 1.390 . S
C1111 C1110 1.390 . S
C1111 C1112 1.394 . S
C1111 C1117 1.465 . S
C1112 C1107 1.399 . S
C1112 C1111 1.394 . S
C1112 C1113 1.516 . S
C1113 C1112 1.516 . S
C1113 C1114 1.502 . S
C1113 C1115 1.561 . S
C1113 C1116 1.526 . S
C1114 H1098 0.959 . S
C1114 H1099 0.959 . S
C1114 H1100 0.961 . S
C1114 C1113 1.502 . S
C1115 H1101 0.960 . S
C1115 H1102 0.961 . S
C1115 H1103 0.959 . S
C1115 C1113 1.561 . S
C1116 C1113 1.526 . S
C1116 C1117 1.396 . S
C1116 C1121 1.390 . S
C1117 C1111 1.465 . S
C1117 C1116 1.396 . S
C1117 C1118 1.399 . S
C1118 H1104 0.929 . S
C1118 C1117 1.399 . S
C1118 C1119 1.385 . S
C1119 H1105 0.931 . S
C1119 C1118 1.385 . S
C1119 C1120 1.389 . S
C1120 C1119 1.389 . S
C1120 C1121 1.387 . S
C1121 H1106 0.930 . S
C1121 C1116 1.390 . S
C1121 C1120 1.387 . S
H1122 C1134 0.930 . S
H1123 C1136 0.930 . S
H1124 C1137 0.930 . S
H1125 C1141 0.959 . S
H1126 C1141 0.959 . S
H1127 C1141 0.961 . S
H1128 C1142 0.960 . S
H1129 C1142 0.961 . S
H1130 C1142 0.959 . S
H1131 C1145 0.929 . S
H1132 C1146 0.931 . S
H1133 C1148 0.930 . S
C1134 H1122 0.930 . S
C1134 C1135 1.399 . S
C1134 C1139 1.399 . S
C1135 C1134 1.399 . S
C1135 C1136 1.376 . S
C1136 H1123 0.930 . S
C1136 C1135 1.376 . S
C1136 C1137 1.388 . S
C1137 H1124 0.930 . S
C1137 C1136 1.388 . S
C1137 C1138 1.390 . S
C1138 C1137 1.390 . S
C1138 C1139 1.394 . S
C1138 C1144 1.465 . S
C1139 C1134 1.399 . S
C1139 C1138 1.394 . S
C1139 C1140 1.516 . S
C1140 C1139 1.516 . S
C1140 C1141 1.502 . S
C1140 C1142 1.561 . S
C1140 C1143 1.526 . S
C1141 H1125 0.959 . S
C1141 H1126 0.959 . S
C1141 H1127 0.961 . S
C1141 C1140 1.502 . S
C1142 H1128 0.960 . S
C1142 H1129 0.961 . S
C1142 H1130 0.959 . S
C1142 C1140 1.561 . S
C1143 C1140 1.526 . S
C1143 C1144 1.396 . S
C1143 C1148 1.390 . S
C1144 C1138 1.465 . S
C1144 C1143 1.396 . S
C1144 C1145 1.399 . S
C1145 H1131 0.929 . S
C1145 C1144 1.399 . S
C1145 C1146 1.385 . S
C1146 H1132 0.931 . S
C1146 C1145 1.385 . S
C1146 C1147 1.389 . S
C1147 C1146 1.389 . S
C1147 C1148 1.387 . S
C1148 H1133 0.930 . S
C1148 C1143 1.390 . S
C1148 C1147 1.387 . S
H1149 C1161 0.930 . S
H1150 C1163 0.930 . S
H1151 C1164 0.930 . S
H1152 C1168 0.959 . S
H1153 C1168 0.959 . S
H1154 C1168 0.961 . S
H1155 C1169 0.960 . S
H1156 C1169 0.961 . S
H1157 C1169 0.959 . S
H1158 C1172 0.929 . S
H1159 C1173 0.931 . S
H1160 C1175 0.930 . S
C1161 H1149 0.930 . S
C1161 C1162 1.399 . S
C1161 C1166 1.399 . S
C1162 C1161 1.399 . S
C1162 C1163 1.376 . S
C1163 H1150 0.930 . S
C1163 C1162 1.376 . S
C1163 C1164 1.388 . S
C1164 H1151 0.930 . S
C1164 C1163 1.388 . S
C1164 C1165 1.390 . S
C1165 C1164 1.390 . S
C1165 C1166 1.394 . S
C1165 C1171 1.465 . S
C1166 C1161 1.399 . S
C1166 C1165 1.394 . S
C1166 C1167 1.516 . S
C1167 C1166 1.516 . S
C1167 C1168 1.502 . S
C1167 C1169 1.561 . S
C1167 C1170 1.526 . S
C1168 H1152 0.959 . S
C1168 H1153 0.959 . S
C1168 H1154 0.961 . S
C1168 C1167 1.502 . S
C1169 H1155 0.960 . S
C1169 H1156 0.961 . S
C1169 H1157 0.959 . S
C1169 C1167 1.561 . S
C1170 C1167 1.526 . S
C1170 C1171 1.396 . S
C1170 C1175 1.390 . S
C1171 C1165 1.465 . S
C1171 C1170 1.396 . S
C1171 C1172 1.399 . S
C1172 H1158 0.929 . S
C1172 C1171 1.399 . S
C1172 C1173 1.385 . S
C1173 H1159 0.931 . S
C1173 C1172 1.385 . S
C1173 C1174 1.389 . S
C1174 C1173 1.389 . S
C1174 C1175 1.387 . S
C1175 H1160 0.930 . S
C1175 C1170 1.390 . S
C1175 C1174 1.387 . S
H1176 C1188 0.930 . S
H1177 C1190 0.930 . S
H1178 C1191 0.930 . S
H1179 C1195 0.959 . S
H1180 C1195 0.959 . S
H1181 C1195 0.961 . S
H1182 C1196 0.960 . S
H1183 C1196 0.961 . S
H1184 C1196 0.959 . S
H1185 C1199 0.929 . S
H1186 C1200 0.931 . S
H1187 C1202 0.930 . S
C1188 H1176 0.930 . S
C1188 C1189 1.399 . S
C1188 C1193 1.399 . S
C1189 C1188 1.399 . S
C1189 C1190 1.376 . S
C1190 H1177 0.930 . S
C1190 C1189 1.376 . S
C1190 C1191 1.388 . S
C1191 H1178 0.930 . S
C1191 C1190 1.388 . S
C1191 C1192 1.390 . S
C1192 C1191 1.390 . S
C1192 C1193 1.394 . S
C1192 C1198 1.465 . S
C1193 C1188 1.399 . S
C1193 C1192 1.394 . S
C1193 C1194 1.516 . S
C1194 C1193 1.516 . S
C1194 C1195 1.502 . S
C1194 C1196 1.561 . S
C1194 C1197 1.526 . S
C1195 H1179 0.959 . S
C1195 H1180 0.959 . S
C1195 H1181 0.961 . S
C1195 C1194 1.502 . S
C1196 H1182 0.960 . S
C1196 H1183 0.961 . S
C1196 H1184 0.959 . S
C1196 C1194 1.561 . S
C1197 C1194 1.526 . S
C1197 C1198 1.396 . S
C1197 C1202 1.390 . S
C1198 C1192 1.465 . S
C1198 C1197 1.396 . S
C1198 C1199 1.399 . S
C1199 H1185 0.929 . S
C1199 C1198 1.399 . S
C1199 C1200 1.385 . S
C1200 H1186 0.931 . S
C1200 C1199 1.385 . S
C1200 C1201 1.389 . S
C1201 C1200 1.389 . S
C1201 C1202 1.387 . S
C1202 H1187 0.930 . S
C1202 C1197 1.390 . S
C1202 C1201 1.387 . S
H1203 C1215 0.930 . S
H1204 C1217 0.930 . S
H1205 C1218 0.930 . S
H1206 C1222 0.959 . S
H1207 C1222 0.959 . S
H1208 C1222 0.961 . S
H1209 C1223 0.960 . S
H1210 C1223 0.961 . S
H1211 C1223 0.959 . S
H1212 C1226 0.929 . S
H1213 C1227 0.931 . S
H1214 C1229 0.930 . S
C1215 H1203 0.930 . S
C1215 C1216 1.399 . S
C1215 C1220 1.399 . S
C1216 C1215 1.399 . S
C1216 C1217 1.376 . S
C1217 H1204 0.930 . S
C1217 C1216 1.376 . S
C1217 C1218 1.388 . S
C1218 H1205 0.930 . S
C1218 C1217 1.388 . S
C1218 C1219 1.390 . S
C1219 C1218 1.390 . S
C1219 C1220 1.394 . S
C1219 C1225 1.465 . S
C1220 C1215 1.399 . S
C1220 C1219 1.394 . S
C1220 C1221 1.516 . S
C1221 C1220 1.516 . S
C1221 C1222 1.502 . S
C1221 C1223 1.561 . S
C1221 C1224 1.526 . S
C1222 H1206 0.959 . S
C1222 H1207 0.959 . S
C1222 H1208 0.961 . S
C1222 C1221 1.502 . S
C1223 H1209 0.960 . S
C1223 H1210 0.961 . S
C1223 H1211 0.959 . S
C1223 C1221 1.561 . S
C1224 C1221 1.526 . S
C1224 C1225 1.396 . S
C1224 C1229 1.390 . S
C1225 C1219 1.465 . S
C1225 C1224 1.396 . S
C1225 C1226 1.399 . S
C1226 H1212 0.929 . S
C1226 C1225 1.399 . S
C1226 C1227 1.385 . S
C1227 H1213 0.931 . S
C1227 C1226 1.385 . S
C1227 C1228 1.389 . S
C1228 C1227 1.389 . S
C1228 C1229 1.387 . S
C1229 H1214 0.930 . S
C1229 C1224 1.390 . S
C1229 C1228 1.387 . S
H1230 C1242 0.930 . S
H1231 C1244 0.930 . S
H1232 C1245 0.930 . S
H1233 C1249 0.959 . S
H1234 C1249 0.959 . S
H1235 C1249 0.961 . S
H1236 C1250 0.960 . S
H1237 C1250 0.961 . S
H1238 C1250 0.959 . S
H1239 C1253 0.929 . S
H1240 C1254 0.931 . S
H1241 C1256 0.930 . S
C1242 H1230 0.930 . S
C1242 C1243 1.399 . S
C1242 C1247 1.399 . S
C1243 C1242 1.399 . S
C1243 C1244 1.376 . S
C1244 H1231 0.930 . S
C1244 C1243 1.376 . S
C1244 C1245 1.388 . S
C1245 H1232 0.930 . S
C1245 C1244 1.388 . S
C1245 C1246 1.390 . S
C1246 C1245 1.390 . S
C1246 C1247 1.394 . S
C1246 C1252 1.465 . S
C1247 C1242 1.399 . S
C1247 C1246 1.394 . S
C1247 C1248 1.516 . S
C1248 C1247 1.516 . S
C1248 C1249 1.502 . S
C1248 C1250 1.561 . S
C1248 C1251 1.526 . S
C1249 H1233 0.959 . S
C1249 H1234 0.959 . S
C1249 H1235 0.961 . S
C1249 C1248 1.502 . S
C1250 H1236 0.960 . S
C1250 H1237 0.961 . S
C1250 H1238 0.959 . S
C1250 C1248 1.561 . S
C1251 C1248 1.526 . S
C1251 C1252 1.396 . S
C1251 C1256 1.390 . S
C1252 C1246 1.465 . S
C1252 C1251 1.396 . S
C1252 C1253 1.399 . S
C1253 H1239 0.929 . S
C1253 C1252 1.399 . S
C1253 C1254 1.385 . S
C1254 H1240 0.931 . S
C1254 C1253 1.385 . S
C1254 C1255 1.389 . S
C1255 C1254 1.389 . S
C1255 C1256 1.387 . S
C1256 H1241 0.930 . S
C1256 C1251 1.390 . S
C1256 C1255 1.387 . S
H1257 C1269 0.930 . S
H1258 C1271 0.930 . S
H1259 C1272 0.930 . S
H1260 C1276 0.959 . S
H1261 C1276 0.959 . S
H1262 C1276 0.961 . S
H1263 C1277 0.960 . S
H1264 C1277 0.961 . S
H1265 C1277 0.959 . S
H1266 C1280 0.929 . S
H1267 C1281 0.931 . S
H1268 C1283 0.930 . S
C1269 H1257 0.930 . S
C1269 C1270 1.399 . S
C1269 C1274 1.399 . S
C1270 C1269 1.399 . S
C1270 C1271 1.376 . S
C1271 H1258 0.930 . S
C1271 C1270 1.376 . S
C1271 C1272 1.388 . S
C1272 H1259 0.930 . S
C1272 C1271 1.388 . S
C1272 C1273 1.390 . S
C1273 C1272 1.390 . S
C1273 C1274 1.394 . S
C1273 C1279 1.465 . S
C1274 C1269 1.399 . S
C1274 C1273 1.394 . S
C1274 C1275 1.516 . S
C1275 C1274 1.516 . S
C1275 C1276 1.502 . S
C1275 C1277 1.561 . S
C1275 C1278 1.526 . S
C1276 H1260 0.959 . S
C1276 H1261 0.959 . S
C1276 H1262 0.961 . S
C1276 C1275 1.502 . S
C1277 H1263 0.960 . S
C1277 H1264 0.961 . S
C1277 H1265 0.959 . S
C1277 C1275 1.561 . S
C1278 C1275 1.526 . S
C1278 C1279 1.396 . S
C1278 C1283 1.390 . S
C1279 C1273 1.465 . S
C1279 C1278 1.396 . S
C1279 C1280 1.399 . S
C1280 H1266 0.929 . S
C1280 C1279 1.399 . S
C1280 C1281 1.385 . S
C1281 H1267 0.931 . S
C1281 C1280 1.385 . S
C1281 C1282 1.389 . S
C1282 C1281 1.389 . S
C1282 C1283 1.387 . S
C1283 H1268 0.930 . S
C1283 C1278 1.390 . S
C1283 C1282 1.387 . S
H1284 C1296 0.930 . S
H1285 C1298 0.930 . S
H1286 C1299 0.930 . S
H1287 C1303 0.959 . S
H1288 C1303 0.959 . S
H1289 C1303 0.961 . S
H1290 C1304 0.960 . S
H1291 C1304 0.961 . S
H1292 C1304 0.959 . S
H1293 C1307 0.929 . S
H1294 C1308 0.931 . S
H1295 C1310 0.930 . S
C1296 H1284 0.930 . S
C1296 C1297 1.399 . S
C1296 C1301 1.399 . S
C1297 C1296 1.399 . S
C1297 C1298 1.376 . S
C1298 H1285 0.930 . S
C1298 C1297 1.376 . S
C1298 C1299 1.388 . S
C1299 H1286 0.930 . S
C1299 C1298 1.388 . S
C1299 C1300 1.390 . S
C1300 C1299 1.390 . S
C1300 C1301 1.394 . S
C1300 C1306 1.465 . S
C1301 C1296 1.399 . S
C1301 C1300 1.394 . S
C1301 C1302 1.516 . S
C1302 C1301 1.516 . S
C1302 C1303 1.502 . S
C1302 C1304 1.561 . S
C1302 C1305 1.526 . S
C1303 H1287 0.959 . S
C1303 H1288 0.959 . S
C1303 H1289 0.961 . S
C1303 C1302 1.502 . S
C1304 H1290 0.960 . S
C1304 H1291 0.961 . S
C1304 H1292 0.959 . S
C1304 C1302 1.561 . S
C1305 C1302 1.526 . S
C1305 C1306 1.396 . S
C1305 C1310 1.390 . S
C1306 C1300 1.465 . S
C1306 C1305 1.396 . S
C1306 C1307 1.399 . S
C1307 H1293 0.929 . S
C1307 C1306 1.399 . S
C1307 C1308 1.385 . S
C1308 H1294 0.931 . S
C1308 C1307 1.385 . S
C1308 C1309 1.389 . S
C1309 C1308 1.389 . S
C1309 C1310 1.387 . S
C1310 H1295 0.930 . S
C1310 C1305 1.390 . S
C1310 C1309 1.387 . S
H1311 C1323 0.930 . S
H1312 C1325 0.930 . S
H1313 C1326 0.930 . S
H1314 C1330 0.959 . S
H1315 C1330 0.959 . S
H1316 C1330 0.961 . S
H1317 C1331 0.960 . S
H1318 C1331 0.961 . S
H1319 C1331 0.959 . S
H1320 C1334 0.929 . S
H1321 C1335 0.931 . S
H1322 C1337 0.930 . S
C1323 H1311 0.930 . S
C1323 C1324 1.399 . S
C1323 C1328 1.399 . S
C1324 C1323 1.399 . S
C1324 C1325 1.376 . S
C1325 H1312 0.930 . S
C1325 C1324 1.376 . S
C1325 C1326 1.388 . S
C1326 H1313 0.930 . S
C1326 C1325 1.388 . S
C1326 C1327 1.390 . S
C1327 C1326 1.390 . S
C1327 C1328 1.394 . S
C1327 C1333 1.465 . S
C1328 C1323 1.399 . S
C1328 C1327 1.394 . S
C1328 C1329 1.516 . S
C1329 C1328 1.516 . S
C1329 C1330 1.502 . S
C1329 C1331 1.561 . S
C1329 C1332 1.526 . S
C1330 H1314 0.959 . S
C1330 H1315 0.959 . S
C1330 H1316 0.961 . S
C1330 C1329 1.502 . S
C1331 H1317 0.960 . S
C1331 H1318 0.961 . S
C1331 H1319 0.959 . S
C1331 C1329 1.561 . S
C1332 C1329 1.526 . S
C1332 C1333 1.396 . S
C1332 C1337 1.390 . S
C1333 C1327 1.465 . S
C1333 C1332 1.396 . S
C1333 C1334 1.399 . S
C1334 H1320 0.929 . S
C1334 C1333 1.399 . S
C1334 C1335 1.385 . S
C1335 H1321 0.931 . S
C1335 C1334 1.385 . S
C1335 C1336 1.389 . S
C1336 C1335 1.389 . S
C1336 C1337 1.387 . S
C1337 H1322 0.930 . S
C1337 C1332 1.390 . S
C1337 C1336 1.387 . S
H1338 C1350 0.930 . S
H1339 C1352 0.930 . S
H1340 C1353 0.930 . S
H1341 C1357 0.959 . S
H1342 C1357 0.959 . S
H1343 C1357 0.961 . S
H1344 C1358 0.960 . S
H1345 C1358 0.961 . S
H1346 C1358 0.959 . S
H1347 C1361 0.929 . S
H1348 C1362 0.931 . S
H1349 C1364 0.930 . S
C1350 H1338 0.930 . S
C1350 C1351 1.399 . S
C1350 C1355 1.399 . S
C1351 C1350 1.399 . S
C1351 C1352 1.376 . S
C1352 H1339 0.930 . S
C1352 C1351 1.376 . S
C1352 C1353 1.388 . S
C1353 H1340 0.930 . S
C1353 C1352 1.388 . S
C1353 C1354 1.390 . S
C1354 C1353 1.390 . S
C1354 C1355 1.394 . S
C1354 C1360 1.465 . S
C1355 C1350 1.399 . S
C1355 C1354 1.394 . S
C1355 C1356 1.516 . S
C1356 C1355 1.516 . S
C1356 C1357 1.502 . S
C1356 C1358 1.561 . S
C1356 C1359 1.526 . S
C1357 H1341 0.959 . S
C1357 H1342 0.959 . S
C1357 H1343 0.961 . S
C1357 C1356 1.502 . S
C1358 H1344 0.960 . S
C1358 H1345 0.961 . S
C1358 H1346 0.959 . S
C1358 C1356 1.561 . S
C1359 C1356 1.526 . S
C1359 C1360 1.396 . S
C1359 C1364 1.390 . S
C1360 C1354 1.465 . S
C1360 C1359 1.396 . S
C1360 C1361 1.399 . S
C1361 H1347 0.929 . S
C1361 C1360 1.399 . S
C1361 C1362 1.385 . S
C1362 H1348 0.931 . S
C1362 C1361 1.385 . S
C1362 C1363 1.389 . S
C1363 C1362 1.389 . S
C1363 C1364 1.387 . S
C1364 H1349 0.930 . S
C1364 C1359 1.390 . S
C1364 C1363 1.387 . S
H1365 C1377 0.930 . S
H1366 C1379 0.930 . S
H1367 C1380 0.930 . S
H1368 C1384 0.959 . S
H1369 C1384 0.959 . S
H1370 C1384 0.961 . S
H1371 C1385 0.960 . S
H1372 C1385 0.961 . S
H1373 C1385 0.959 . S
H1374 C1388 0.929 . S
H1375 C1389 0.931 . S
H1376 C1391 0.930 . S
C1377 H1365 0.930 . S
C1377 C1378 1.399 . S
C1377 C1382 1.399 . S
C1378 C1377 1.399 . S
C1378 C1379 1.376 . S
C1379 H1366 0.930 . S
C1379 C1378 1.376 . S
C1379 C1380 1.388 . S
C1380 H1367 0.930 . S
C1380 C1379 1.388 . S
C1380 C1381 1.390 . S
C1381 C1380 1.390 . S
C1381 C1382 1.394 . S
C1381 C1387 1.465 . S
C1382 C1377 1.399 . S
C1382 C1381 1.394 . S
C1382 C1383 1.516 . S
C1383 C1382 1.516 . S
C1383 C1384 1.502 . S
C1383 C1385 1.561 . S
C1383 C1386 1.526 . S
C1384 H1368 0.959 . S
C1384 H1369 0.959 . S
C1384 H1370 0.961 . S
C1384 C1383 1.502 . S
C1385 H1371 0.960 . S
C1385 H1372 0.961 . S
C1385 H1373 0.959 . S
C1385 C1383 1.561 . S
C1386 C1383 1.526 . S
C1386 C1387 1.396 . S
C1386 C1391 1.390 . S
C1387 C1381 1.465 . S
C1387 C1386 1.396 . S
C1387 C1388 1.399 . S
C1388 H1374 0.929 . S
C1388 C1387 1.399 . S
C1388 C1389 1.385 . S
C1389 H1375 0.931 . S
C1389 C1388 1.385 . S
C1389 C1390 1.389 . S
C1390 C1389 1.389 . S
C1390 C1391 1.387 . S
C1391 H1376 0.930 . S
C1391 C1386 1.390 . S
C1391 C1390 1.387 . S
H1392 C1404 0.930 1_655 S
H1393 C1406 0.930 . S
H1394 C1407 0.930 . S
H1395 C1411 0.959 . S
H1396 C1411 0.959 . S
H1397 C1411 0.961 1_655 S
H1398 C1412 0.960 1_655 S
H1399 C1412 0.961 . S
H1400 C1412 0.959 . S
H1401 C1415 0.929 . S
H1402 C1416 0.931 . S
H1403 C1418 0.930 . S
C1404 H1392 0.930 1_455 S
C1404 C1405 1.399 . S
C1404 C1409 1.399 . S
C1405 C1404 1.399 . S
C1405 C1406 1.376 . S
C1406 H1393 0.930 . S
C1406 C1405 1.376 . S
C1406 C1407 1.388 . S
C1407 H1394 0.930 . S
C1407 C1406 1.388 . S
C1407 C1408 1.390 . S
C1408 C1407 1.390 . S
C1408 C1409 1.394 . S
C1408 C1414 1.465 . S
C1409 C1404 1.399 . S
C1409 C1408 1.394 . S
C1409 C1410 1.516 . S
C1410 C1409 1.516 . S
C1410 C1411 1.502 . S
C1410 C1412 1.561 . S
C1410 C1413 1.526 . S
C1411 H1395 0.959 . S
C1411 H1396 0.959 . S
C1411 H1397 0.961 1_455 S
C1411 C1410 1.502 . S
C1412 H1398 0.960 1_455 S
C1412 H1399 0.961 . S
C1412 H1400 0.959 . S
C1412 C1410 1.561 . S
C1413 C1410 1.526 . S
C1413 C1414 1.396 . S
C1413 C1418 1.390 . S
C1414 C1408 1.465 . S
C1414 C1413 1.396 . S
C1414 C1415 1.399 . S
C1415 H1401 0.929 . S
C1415 C1414 1.399 . S
C1415 C1416 1.385 . S
C1416 H1402 0.931 . S
C1416 C1415 1.385 . S
C1416 C1417 1.389 . S
C1417 C1416 1.389 . S
C1417 C1418 1.387 . S
C1418 H1403 0.930 . S
C1418 C1413 1.390 . S
C1418 C1417 1.387 . S
H1419 C1431 0.930 . S
H1420 C1433 0.930 . S
H1421 C1434 0.930 . S
H1422 C1438 0.959 . S
H1423 C1438 0.959 . S
H1424 C1438 0.961 . S
H1425 C1439 0.960 . S
H1426 C1439 0.961 . S
H1427 C1439 0.959 . S
H1428 C1442 0.929 . S
H1429 C1443 0.931 . S
H1430 C1445 0.930 . S
C1431 H1419 0.930 . S
C1431 C1432 1.399 . S
C1431 C1436 1.399 . S
C1432 C1431 1.399 . S
C1432 C1433 1.376 . S
C1433 H1420 0.930 . S
C1433 C1432 1.376 . S
C1433 C1434 1.388 . S
C1434 H1421 0.930 . S
C1434 C1433 1.388 . S
C1434 C1435 1.390 . S
C1435 C1434 1.390 . S
C1435 C1436 1.394 . S
C1435 C1441 1.465 . S
C1436 C1431 1.399 . S
C1436 C1435 1.394 . S
C1436 C1437 1.516 . S
C1437 C1436 1.516 . S
C1437 C1438 1.502 . S
C1437 C1439 1.561 . S
C1437 C1440 1.526 . S
C1438 H1422 0.959 . S
C1438 H1423 0.959 . S
C1438 H1424 0.961 . S
C1438 C1437 1.502 . S
C1439 H1425 0.960 . S
C1439 H1426 0.961 . S
C1439 H1427 0.959 . S
C1439 C1437 1.561 . S
C1440 C1437 1.526 . S
C1440 C1441 1.396 . S
C1440 C1445 1.390 . S
C1441 C1435 1.465 . S
C1441 C1440 1.396 . S
C1441 C1442 1.399 . S
C1442 H1428 0.929 . S
C1442 C1441 1.399 . S
C1442 C1443 1.385 . S
C1443 H1429 0.931 . S
C1443 C1442 1.385 . S
C1443 C1444 1.389 . S
C1444 C1443 1.389 . S
C1444 C1445 1.387 . S
C1445 H1430 0.930 . S
C1445 C1440 1.390 . S
C1445 C1444 1.387 . S
H1446 C1458 0.930 . S
H1447 C1460 0.930 1_556 S
H1448 C1461 0.930 1_556 S
H1449 C1465 0.959 . S
H1450 C1465 0.959 . S
H1451 C1465 0.961 . S
H1452 C1466 0.960 . S
H1453 C1466 0.961 . S
H1454 C1466 0.959 . S
H1455 C1469 0.929 . S
H1456 C1470 0.931 . S
H1457 C1472 0.930 . S
C1458 H1446 0.930 . S
C1458 C1459 1.399 . S
C1458 C1463 1.399 . S
C1459 C1458 1.399 . S
C1459 C1460 1.376 . S
C1460 H1447 0.930 1_554 S
C1460 C1459 1.376 . S
C1460 C1461 1.388 . S
C1461 H1448 0.930 1_554 S
C1461 C1460 1.388 . S
C1461 C1462 1.390 . S
C1462 C1461 1.390 . S
C1462 C1463 1.394 . S
C1462 C1468 1.465 . S
C1463 C1458 1.399 . S
C1463 C1462 1.394 . S
C1463 C1464 1.516 . S
C1464 C1463 1.516 . S
C1464 C1465 1.502 . S
C1464 C1466 1.561 . S
C1464 C1467 1.526 . S
C1465 H1449 0.959 . S
C1465 H1450 0.959 . S
C1465 H1451 0.961 . S
C1465 C1464 1.502 . S
C1466 H1452 0.960 . S
C1466 H1453 0.961 . S
C1466 H1454 0.959 . S
C1466 C1464 1.561 . S
C1467 C1464 1.526 . S
C1467 C1468 1.396 . S
C1467 C1472 1.390 . S
C1468 C1462 1.465 . S
C1468 C1467 1.396 . S
C1468 C1469 1.399 . S
C1469 H1455 0.929 . S
C1469 C1468 1.399 . S
C1469 C1470 1.385 . S
C1470 H1456 0.931 . S
C1470 C1469 1.385 . S
C1470 C1471 1.389 . S
C1471 C1470 1.389 . S
C1471 C1472 1.387 . S
C1472 H1457 0.930 . S
C1472 C1467 1.390 . S
C1472 C1471 1.387 . S
H1473 C1485 0.930 . S
H1474 C1487 0.930 . S
H1475 C1488 0.930 . S
H1476 C1492 0.959 . S
H1477 C1492 0.959 . S
H1478 C1492 0.961 . S
H1479 C1493 0.960 . S
H1480 C1493 0.961 . S
H1481 C1493 0.959 . S
H1482 C1496 0.929 . S
H1483 C1497 0.931 . S
H1484 C1499 0.930 . S
C1485 H1473 0.930 . S
C1485 C1486 1.399 . S
C1485 C1490 1.399 . S
C1486 C1485 1.399 . S
C1486 C1487 1.376 . S
C1487 H1474 0.930 . S
C1487 C1486 1.376 . S
C1487 C1488 1.388 . S
C1488 H1475 0.930 . S
C1488 C1487 1.388 . S
C1488 C1489 1.390 . S
C1489 C1488 1.390 . S
C1489 C1490 1.394 . S
C1489 C1495 1.465 . S
C1490 C1485 1.399 . S
C1490 C1489 1.394 . S
C1490 C1491 1.516 . S
C1491 C1490 1.516 . S
C1491 C1492 1.502 . S
C1491 C1493 1.561 . S
C1491 C1494 1.526 . S
C1492 H1476 0.959 . S
C1492 H1477 0.959 . S
C1492 H1478 0.961 . S
C1492 C1491 1.502 . S
C1493 H1479 0.960 . S
C1493 H1480 0.961 . S
C1493 H1481 0.959 . S
C1493 C1491 1.561 . S
C1494 C1491 1.526 . S
C1494 C1495 1.396 . S
C1494 C1499 1.390 . S
C1495 C1489 1.465 . S
C1495 C1494 1.396 . S
C1495 C1496 1.399 . S
C1496 H1482 0.929 . S
C1496 C1495 1.399 . S
C1496 C1497 1.385 . S
C1497 H1483 0.931 . S
C1497 C1496 1.385 . S
C1497 C1498 1.389 . S
C1498 C1497 1.389 . S
C1498 C1499 1.387 . S
C1499 H1484 0.930 . S
C1499 C1494 1.390 . S
C1499 C1498 1.387 . S
H1500 C1512 0.930 . S
H1501 C1514 0.930 . S
H1502 C1515 0.930 . S
H1503 C1519 0.959 . S
H1504 C1519 0.959 . S
H1505 C1519 0.961 . S
H1506 C1520 0.960 . S
H1507 C1520 0.961 . S
H1508 C1520 0.959 . S
H1509 C1523 0.929 . S
H1510 C1524 0.931 . S
H1511 C1526 0.930 . S
C1512 H1500 0.930 . S
C1512 C1513 1.399 . S
C1512 C1517 1.399 . S
C1513 C1512 1.399 . S
C1513 C1514 1.376 . S
C1514 H1501 0.930 . S
C1514 C1513 1.376 . S
C1514 C1515 1.388 . S
C1515 H1502 0.930 . S
C1515 C1514 1.388 . S
C1515 C1516 1.390 . S
C1516 C1515 1.390 . S
C1516 C1517 1.394 . S
C1516 C1522 1.465 . S
C1517 C1512 1.399 . S
C1517 C1516 1.394 . S
C1517 C1518 1.516 . S
C1518 C1517 1.516 . S
C1518 C1519 1.502 . S
C1518 C1520 1.561 . S
C1518 C1521 1.526 . S
C1519 H1503 0.959 . S
C1519 H1504 0.959 . S
C1519 H1505 0.961 . S
C1519 C1518 1.502 . S
C1520 H1506 0.960 . S
C1520 H1507 0.961 . S
C1520 H1508 0.959 . S
C1520 C1518 1.561 . S
C1521 C1518 1.526 . S
C1521 C1522 1.396 . S
C1521 C1526 1.390 . S
C1522 C1516 1.465 . S
C1522 C1521 1.396 . S
C1522 C1523 1.399 . S
C1523 H1509 0.929 . S
C1523 C1522 1.399 . S
C1523 C1524 1.385 . S
C1524 H1510 0.931 . S
C1524 C1523 1.385 . S
C1524 C1525 1.389 . S
C1525 C1524 1.389 . S
C1525 C1526 1.387 . S
C1526 H1511 0.930 . S
C1526 C1521 1.390 . S
C1526 C1525 1.387 . S
H1527 C1539 0.930 . S
H1528 C1541 0.930 . S
H1529 C1542 0.930 . S
H1530 C1546 0.959 . S
H1531 C1546 0.959 . S
H1532 C1546 0.961 . S
H1533 C1547 0.960 . S
H1534 C1547 0.961 . S
H1535 C1547 0.959 . S
H1536 C1550 0.929 . S
H1537 C1551 0.931 . S
H1538 C1553 0.930 . S
C1539 H1527 0.930 . S
C1539 C1540 1.399 . S
C1539 C1544 1.399 . S
C1540 C1539 1.399 . S
C1540 C1541 1.376 . S
C1541 H1528 0.930 . S
C1541 C1540 1.376 . S
C1541 C1542 1.388 . S
C1542 H1529 0.930 . S
C1542 C1541 1.388 . S
C1542 C1543 1.390 . S
C1543 C1542 1.390 . S
C1543 C1544 1.394 . S
C1543 C1549 1.465 . S
C1544 C1539 1.399 . S
C1544 C1543 1.394 . S
C1544 C1545 1.516 . S
C1545 C1544 1.516 . S
C1545 C1546 1.502 . S
C1545 C1547 1.561 . S
C1545 C1548 1.526 . S
C1546 H1530 0.959 . S
C1546 H1531 0.959 . S
C1546 H1532 0.961 . S
C1546 C1545 1.502 . S
C1547 H1533 0.960 . S
C1547 H1534 0.961 . S
C1547 H1535 0.959 . S
C1547 C1545 1.561 . S
C1548 C1545 1.526 . S
C1548 C1549 1.396 . S
C1548 C1553 1.390 . S
C1549 C1543 1.465 . S
C1549 C1548 1.396 . S
C1549 C1550 1.399 . S
C1550 H1536 0.929 . S
C1550 C1549 1.399 . S
C1550 C1551 1.385 . S
C1551 H1537 0.931 . S
C1551 C1550 1.385 . S
C1551 C1552 1.389 . S
C1552 C1551 1.389 . S
C1552 C1553 1.387 . S
C1553 H1538 0.930 . S
C1553 C1548 1.390 . S
C1553 C1552 1.387 . S
H1554 C1566 0.930 . S
H1555 C1568 0.930 . S
H1556 C1569 0.930 . S
H1557 C1573 0.959 . S
H1558 C1573 0.959 . S
H1559 C1573 0.961 . S
H1560 C1574 0.960 . S
H1561 C1574 0.961 . S
H1562 C1574 0.959 . S
H1563 C1577 0.929 . S
H1564 C1578 0.931 . S
H1565 C1580 0.930 . S
C1566 H1554 0.930 . S
C1566 C1567 1.399 . S
C1566 C1571 1.399 . S
C1567 C1566 1.399 . S
C1567 C1568 1.376 . S
C1568 H1555 0.930 . S
C1568 C1567 1.376 . S
C1568 C1569 1.388 . S
C1569 H1556 0.930 . S
C1569 C1568 1.388 . S
C1569 C1570 1.390 . S
C1570 C1569 1.390 . S
C1570 C1571 1.394 . S
C1570 C1576 1.465 . S
C1571 C1566 1.399 . S
C1571 C1570 1.394 . S
C1571 C1572 1.516 . S
C1572 C1571 1.516 . S
C1572 C1573 1.502 . S
C1572 C1574 1.561 . S
C1572 C1575 1.526 . S
C1573 H1557 0.959 . S
C1573 H1558 0.959 . S
C1573 H1559 0.961 . S
C1573 C1572 1.502 . S
C1574 H1560 0.960 . S
C1574 H1561 0.961 . S
C1574 H1562 0.959 . S
C1574 C1572 1.561 . S
C1575 C1572 1.526 . S
C1575 C1576 1.396 . S
C1575 C1580 1.390 . S
C1576 C1570 1.465 . S
C1576 C1575 1.396 . S
C1576 C1577 1.399 . S
C1577 H1563 0.929 . S
C1577 C1576 1.399 . S
C1577 C1578 1.385 . S
C1578 H1564 0.931 . S
C1578 C1577 1.385 . S
C1578 C1579 1.389 . S
C1579 C1578 1.389 . S
C1579 C1580 1.387 . S
C1580 H1565 0.930 . S
C1580 C1575 1.390 . S
C1580 C1579 1.387 . S
H1581 C1593 0.930 . S
H1582 C1595 0.930 . S
H1583 C1596 0.930 . S
H1584 C1600 0.959 . S
H1585 C1600 0.959 . S
H1586 C1600 0.961 . S
H1587 C1601 0.960 . S
H1588 C1601 0.961 . S
H1589 C1601 0.959 . S
H1590 C1604 0.929 . S
H1591 C1605 0.931 . S
H1592 C1607 0.930 . S
C1593 H1581 0.930 . S
C1593 C1594 1.399 . S
C1593 C1598 1.399 . S
C1594 C1593 1.399 . S
C1594 C1595 1.376 . S
C1595 H1582 0.930 . S
C1595 C1594 1.376 . S
C1595 C1596 1.388 . S
C1596 H1583 0.930 . S
C1596 C1595 1.388 . S
C1596 C1597 1.390 . S
C1597 C1596 1.390 . S
C1597 C1598 1.394 . S
C1597 C1603 1.465 . S
C1598 C1593 1.399 . S
C1598 C1597 1.394 . S
C1598 C1599 1.516 . S
C1599 C1598 1.516 . S
C1599 C1600 1.502 . S
C1599 C1601 1.561 . S
C1599 C1602 1.526 . S
C1600 H1584 0.959 . S
C1600 H1585 0.959 . S
C1600 H1586 0.961 . S
C1600 C1599 1.502 . S
C1601 H1587 0.960 . S
C1601 H1588 0.961 . S
C1601 H1589 0.959 . S
C1601 C1599 1.561 . S
C1602 C1599 1.526 . S
C1602 C1603 1.396 . S
C1602 C1607 1.390 . S
C1603 C1597 1.465 . S
C1603 C1602 1.396 . S
C1603 C1604 1.399 . S
C1604 H1590 0.929 . S
C1604 C1603 1.399 . S
C1604 C1605 1.385 . S
C1605 H1591 0.931 . S
C1605 C1604 1.385 . S
C1605 C1606 1.389 . S
C1606 C1605 1.389 . S
C1606 C1607 1.387 . S
C1607 H1592 0.930 . S
C1607 C1602 1.390 . S
C1607 C1606 1.387 . S
C325 C187 1.881 . S
C337 C4 1.880 . S
C352 C16 1.876 . S
C364 C199 1.878 . S
C379 C239 1.886 . S
C391 C31 1.886 . S
C406 C49 1.866 . S
C418 C173 1.862 . S
C433 C186 1.863 . S
C445 C62 1.867 . S
C460 C68 1.886 . S
C472 C200 1.886 . S
C487 C81 1.877 . S
C499 C238 1.875 . S
C514 C101 1.881 . S
C526 C174 1.881 . S
C541 C120 1.877 . S
C553 C114 1.875 . S
C568 C134 1.862 . S
C580 C127 1.860 . S
C595 C135 1.876 . S
C607 C147 1.875 . S
C622 C148 1.883 . S
C634 C107 1.884 . S
C649 C160 1.875 . S
C661 C42 1.876 . S
C676 C55 1.881 . S
C688 C212 1.879 . S
C703 C225 1.863 . S
C715 C23 1.867 . S
C730 C17 1.202 . S
C742 C283 1.201 . S
C757 C121 1.202 . S
C769 C10 1.203 . S
C784 C302 1.205 . S
C796 C44 1.202 . S
C811 C146 1.218 . S
C823 C29 1.215 . S
C838 C276 1.212 . S
C850 C96 1.214 . S
C865 C122 1.210 . S
C877 C83 1.209 . S
C892 C69 1.201 . S
C904 C309 1.202 . S
C919 C56 1.203 . S
C931 C153 1.204 . S
C946 C205 1.202 . S
C958 C257 1.203 . S
C973 C211 1.218 . S
C985 C198 1.215 . S
C1000 C179 1.203 . S
C1012 C218 1.204 . S
C1027 C250 1.203 . S
C1039 C172 1.206 . S
C1054 C36 1.202 . S
C1066 C264 1.202 . S
C1081 C140 1.202 . S
C1093 C95 1.202 . S
C1108 C3 1.222 . S
C1120 C289 1.221 . S
C1135 C252 1.881 . S
C1147 C30 1.881 . S
C1162 C5 1.881 . S
C1174 C213 1.882 . S
C1189 C251 1.865 . S
C1201 C88 1.860 . S
C1216 C161 1.886 . S
C1228 C94 1.885 . S
C1243 C75 1.875 . S
C1255 C226 1.876 . S
C1270 C277 1.881 . S
C1282 C263 1.881 . S
C1297 C303 1.859 . S
C1309 C270 1.862 . S
C1324 C290 1.882 . S
C1336 C304 1.881 . S
C1351 C278 1.886 . S
C1363 C291 1.887 . S
C1378 C108 1.203 . S
C1390 C43 1.203 . S
C1405 C18 1.201 . S
C1417 C133 1.204 . S
C1432 C70 1.221 . S
C1444 C109 1.223 . S
C1459 C265 1.210 . S
C1471 C57 1.209 . S
C1486 C82 1.202 . S
C1498 C296 1.201 . S
C1513 C166 1.204 . S
C1525 C192 1.203 . S
C1540 C237 1.220 . S
C1552 C159 1.222 . S
C1567 C231 1.203 . S
C1579 C244 1.204 . S
C1594 C185 1.203 . S
C1606 C224 1.207 . S
