# Generated by pormake.
# Topology ske, (6)-cn, num edge types: 1
# Building blocks:
#     Node 0, Type 0, BuildingBlock: PAMTOO_clean_sbu_0, # of connection points: 6
#     Node 1, Type 0, BuildingBlock: PAMTOO_clean_sbu_0, # of connection points: 6
#     Node 2, Type 0, BuildingBlock: PAMTOO_clean_sbu_0, # of connection points: 6
#     Node 3, Type 0, BuildingBlock: PAMTOO_clean_sbu_0, # of connection points: 6
#     Node 4, Type 0, BuildingBlock: PAMTOO_clean_sbu_0, # of connection points: 6
#     Node 5, Type 0, BuildingBlock: PAMTOO_clean_sbu_0, # of connection points: 6
#     Node 6, Type 0, BuildingBlock: PAMTOO_clean_sbu_0, # of connection points: 6
#     Node 7, Type 0, BuildingBlock: PAMTOO_clean_sbu_0, # of connection points: 6
#     Edge 8, Type (0, 0), BuildingBlock: UVAHIK_clean_linker_0, # of connection points: 2
#     Edge 9, Type (0, 0), BuildingBlock: UVAHIK_clean_linker_0, # of connection points: 2
#     Edge 10, Type (0, 0), BuildingBlock: UVAHIK_clean_linker_0, # of connection points: 2
#     Edge 11, Type (0, 0), BuildingBlock: UVAHIK_clean_linker_0, # of connection points: 2
#     Edge 12, Type (0, 0), BuildingBlock: UVAHIK_clean_linker_0, # of connection points: 2
#     Edge 13, Type (0, 0), BuildingBlock: UVAHIK_clean_linker_0, # of connection points: 2
#     Edge 14, Type (0, 0), BuildingBlock: UVAHIK_clean_linker_0, # of connection points: 2
#     Edge 15, Type (0, 0), BuildingBlock: UVAHIK_clean_linker_0, # of connection points: 2
#     Edge 16, Type (0, 0), BuildingBlock: UVAHIK_clean_linker_0, # of connection points: 2
#     Edge 17, Type (0, 0), BuildingBlock: UVAHIK_clean_linker_0, # of connection points: 2
#     Edge 18, Type (0, 0), BuildingBlock: UVAHIK_clean_linker_0, # of connection points: 2
#     Edge 19, Type (0, 0), BuildingBlock: UVAHIK_clean_linker_0, # of connection points: 2
#     Edge 20, Type (0, 0), BuildingBlock: UVAHIK_clean_linker_0, # of connection points: 2
#     Edge 21, Type (0, 0), BuildingBlock: UVAHIK_clean_linker_0, # of connection points: 2
#     Edge 22, Type (0, 0), BuildingBlock: UVAHIK_clean_linker_0, # of connection points: 2
#     Edge 23, Type (0, 0), BuildingBlock: UVAHIK_clean_linker_0, # of connection points: 2
#     Edge 24, Type (0, 0), BuildingBlock: UVAHIK_clean_linker_0, # of connection points: 2
#     Edge 25, Type (0, 0), BuildingBlock: UVAHIK_clean_linker_0, # of connection points: 2
#     Edge 26, Type (0, 0), BuildingBlock: UVAHIK_clean_linker_0, # of connection points: 2
#     Edge 27, Type (0, 0), BuildingBlock: UVAHIK_clean_linker_0, # of connection points: 2
#     Edge 28, Type (0, 0), BuildingBlock: UVAHIK_clean_linker_0, # of connection points: 2
#     Edge 29, Type (0, 0), BuildingBlock: UVAHIK_clean_linker_0, # of connection points: 2
#     Edge 30, Type (0, 0), BuildingBlock: UVAHIK_clean_linker_0, # of connection points: 2
#     Edge 31, Type (0, 0), BuildingBlock: UVAHIK_clean_linker_0, # of connection points: 2
# Relax obj value: 0.158
# Max RMSD: 0.177
# Mean RMSD: 0.172
data_MOF--net-ske--node1-PAMTOO_clean_sbu_0--edge1-UVAHIK_clean_linker_0
_symmetry_space_group_name_H-M    P1
_symmetry_Int_Tables_number       1
_symmetry_cell_setting            triclinic
loop_
_symmetry_equiv_pos_as_xyz
'x, y, z'
_cell_length_a     122.67861
_cell_length_b     38.723849
_cell_length_c     19.950612
_cell_angle_alpha  89.996005
_cell_angle_beta   89.98684
_cell_angle_gamma 89.991503
loop_
_atom_site_label
_atom_site_type_symbol
_atom_site_fract_x
_atom_site_fract_y
_atom_site_fract_z
_atom_type_partial_charge
Dy0 Dy 0.14432 0.24872 0.58221 0.0
Dy1 Dy 0.11707 0.25391 0.58659 0.0
C2 C 0.12938 0.18217 0.57615 0.0
O3 O 0.1391 0.24041 0.47633 0.0
O4 O 0.12116 0.25896 0.4776 0.0
O5 O 0.15932 0.22085 0.56261 0.0
O6 O 0.15977 0.27462 0.5931 0.0
O7 O 0.12409 0.3054 0.61151 0.0
O8 O 0.13909 0.30036 0.54533 0.0
O9 O 0.12242 0.24172 0.69074 0.0
O10 O 0.14029 0.25974 0.68933 0.0
O11 O 0.10225 0.28224 0.56659 0.0
O12 O 0.10163 0.23383 0.62156 0.0
C13 C 0.13005 0.24943 0.44541 0.0
O14 O 0.13779 0.19634 0.60628 0.0
O15 O 0.12136 0.20097 0.55229 0.0
C16 C 0.17567 0.24123 0.61633 0.0
C17 C 0.19684 0.23222 0.6706 0.0
C18 C 0.19065 0.20355 0.64969 0.0
C19 C 0.1802 0.20801 0.62265 0.0
C20 C 0.18173 0.2697 0.63904 0.0
C21 C 0.19215 0.26528 0.66589 0.0
C22 C 0.16546 0.2472 0.57823 0.0
C23 C 0.13179 0.31956 0.57526 0.0
C24 C 0.13141 0.25076 0.72184 0.0
C25 C 0.08526 0.25141 0.56592 0.0
C26 C 0.06316 0.24478 0.52688 0.0
C27 C 0.07025 0.26697 0.49186 0.0
C28 C 0.08117 0.27033 0.51125 0.0
C29 C 0.07831 0.22811 0.5989 0.0
C30 C 0.06741 0.22475 0.57956 0.0
C31 C 0.09606 0.25923 0.5956 0.0
H32 H 0.19396 0.17768 0.6532 0.0
H33 H 0.17581 0.18553 0.60489 0.0
H34 H 0.17859 0.29571 0.63365 0.0
H35 H 0.1967 0.28806 0.68021 0.0
H36 H 0.06728 0.28244 0.45047 0.0
H37 H 0.08628 0.2887 0.48499 0.0
H38 H 0.08117 0.21361 0.64189 0.0
H39 H 0.06219 0.20776 0.60831 0.0
Dy40 Dy 0.86496 0.25586 0.592 0.0
Dy41 Dy 0.89223 0.26129 0.59643 0.0
C42 C 0.87741 0.3269 0.58589 0.0
O43 O 0.87027 0.24796 0.48614 0.0
O44 O 0.88819 0.26661 0.48751 0.0
O45 O 0.84943 0.28077 0.60585 0.0
O46 O 0.85008 0.22816 0.56817 0.0
O47 O 0.88791 0.20836 0.5622 0.0
O48 O 0.87154 0.20367 0.6169 0.0
O49 O 0.8869 0.24938 0.70073 0.0
O50 O 0.86892 0.26647 0.69936 0.0
O51 O 0.90763 0.2411 0.63169 0.0
O52 O 0.9071 0.28931 0.57608 0.0
C53 C 0.8793 0.25709 0.45528 0.0
O54 O 0.8701 0.3077 0.55599 0.0
O55 O 0.88521 0.31279 0.6214 0.0
C56 C 0.83346 0.24613 0.62131 0.0
C57 C 0.81178 0.23892 0.66813 0.0
C58 C 0.81876 0.26399 0.69586 0.0
C59 C 0.82947 0.26761 0.67263 0.0
C60 C 0.82668 0.22001 0.59599 0.0
C61 C 0.81598 0.21636 0.61925 0.0
C62 C 0.84386 0.25383 0.58657 0.0
C63 C 0.87994 0.18952 0.58657 0.0
C64 C 0.87785 0.25795 0.73181 0.0
C65 C 0.92397 0.25783 0.57493 0.0
C66 C 0.94594 0.24962 0.53397 0.0
C67 C 0.94167 0.22999 0.58717 0.0
C68 C 0.93084 0.23413 0.60747 0.0
C69 C 0.92807 0.27642 0.51986 0.0
C70 C 0.93893 0.27229 0.49952 0.0
C71 C 0.91326 0.26623 0.60518 0.0
H72 H 0.81579 0.282 0.73316 0.0
H73 H 0.83445 0.28822 0.69286 0.0
H74 H 0.82949 0.20329 0.55603 0.0
H75 H 0.81091 0.19637 0.59762 0.0
H76 H 0.94684 0.21265 0.61552 0.0
H77 H 0.92798 0.21986 0.65075 0.0
H78 H 0.92303 0.29508 0.49391 0.0
H79 H 0.9419 0.28748 0.45777 0.0
Dy80 Dy 0.14385 0.74852 0.41649 0.0
Dy81 Dy 0.11657 0.75389 0.41217 0.0
C82 C 0.13139 0.8196 0.42251 0.0
O83 O 0.13856 0.74113 0.52253 0.0
O84 O 0.12059 0.75939 0.52104 0.0
O85 O 0.15945 0.77278 0.40042 0.0
O86 O 0.15866 0.72103 0.44211 0.0
O87 O 0.12093 0.70099 0.44658 0.0
O88 O 0.13726 0.69637 0.39149 0.0
O89 O 0.12188 0.74197 0.30785 0.0
O90 O 0.13985 0.7591 0.30917 0.0
O91 O 0.10114 0.73347 0.37775 0.0
O92 O 0.10172 0.78217 0.43174 0.0
C93 C 0.1295 0.75015 0.55332 0.0
O94 O 0.13877 0.80051 0.45209 0.0
O95 O 0.1236 0.80539 0.38712 0.0
C96 C 0.17527 0.73715 0.38658 0.0
C97 C 0.19684 0.72641 0.34001 0.0
C98 C 0.19067 0.75473 0.31726 0.0
C99 C 0.18003 0.76009 0.34039 0.0
C100 C 0.18125 0.70803 0.40699 0.0
C101 C 0.19188 0.70264 0.38381 0.0
C102 C 0.16496 0.74604 0.42144 0.0
C103 C 0.12889 0.68217 0.42203 0.0
C104 C 0.13092 0.75058 0.27675 0.0
C105 C 0.0848 0.75102 0.43369 0.0
C106 C 0.0628 0.74403 0.47471 0.0
C107 C 0.06692 0.72447 0.42098 0.0
C108 C 0.07777 0.72801 0.40066 0.0
C109 C 0.08085 0.7695 0.48931 0.0
C110 C 0.06997 0.76597 0.50967 0.0
C111 C 0.09554 0.75892 0.40336 0.0
H112 H 0.19424 0.77378 0.28414 0.0
H113 H 0.17573 0.78306 0.32425 0.0
H114 H 0.17787 0.69009 0.44311 0.0
H115 H 0.19632 0.68026 0.40156 0.0
H116 H 0.06163 0.70769 0.39224 0.0
H117 H 0.08052 0.71385 0.35698 0.0
H118 H 0.08602 0.78762 0.51568 0.0
H119 H 0.06711 0.78107 0.55184 0.0
Dy120 Dy 0.86443 0.757 0.42775 0.0
Dy121 Dy 0.89171 0.76075 0.42285 0.0
C122 C 0.87904 0.68955 0.4338 0.0
O123 O 0.8697 0.74748 0.53315 0.0
O124 O 0.88763 0.766 0.5319 0.0
O125 O 0.84914 0.73007 0.44425 0.0
O126 O 0.84928 0.78491 0.42179 0.0
O127 O 0.88499 0.81255 0.39751 0.0
O128 O 0.87011 0.80812 0.46468 0.0
O129 O 0.88623 0.74883 0.31884 0.0
O130 O 0.86843 0.76764 0.3204 0.0
O131 O 0.90671 0.78805 0.44331 0.0
O132 O 0.90701 0.73998 0.38714 0.0
C133 C 0.87875 0.75639 0.56412 0.0
O134 O 0.87059 0.70403 0.40455 0.0
O135 O 0.8872 0.70799 0.45695 0.0
C136 C 0.83272 0.75495 0.39835 0.0
C137 C 0.81087 0.75121 0.35319 0.0
C138 C 0.81702 0.72092 0.36271 0.0
C139 C 0.82783 0.72275 0.38553 0.0
C140 C 0.8267 0.78515 0.38585 0.0
C141 C 0.81593 0.78331 0.36346 0.0
C142 C 0.8433 0.75776 0.43384 0.0
C143 C 0.87738 0.82705 0.43387 0.0
C144 C 0.87726 0.75824 0.28782 0.0
C145 C 0.9235 0.75611 0.44305 0.0
C146 C 0.94556 0.74764 0.48183 0.0
C147 C 0.93863 0.77014 0.51737 0.0
C148 C 0.92773 0.7744 0.49811 0.0
C149 C 0.93028 0.73253 0.4095 0.0
C150 C 0.94116 0.72826 0.42872 0.0
C151 C 0.91275 0.76485 0.41366 0.0
H152 H 0.81333 0.69579 0.35555 0.0
H153 H 0.83218 0.69897 0.39552 0.0
H154 H 0.83017 0.81034 0.39599 0.0
H155 H 0.81148 0.80712 0.35566 0.0
H156 H 0.94171 0.78512 0.55911 0.0
H157 H 0.92276 0.79297 0.52482 0.0
H158 H 0.92732 0.71849 0.3662 0.0
H159 H 0.94625 0.71107 0.39955 0.0
Dy160 Dy 0.64416 0.72619 0.08895 0.0
Dy161 Dy 0.61692 0.72068 0.09382 0.0
C162 C 0.63177 0.65515 0.08219 0.0
O163 O 0.63884 0.73374 0.98309 0.0
O164 O 0.62083 0.71589 0.98462 0.0
O165 O 0.65973 0.70195 0.10577 0.0
O166 O 0.65901 0.75339 0.0623 0.0
O167 O 0.6211 0.77386 0.05977 0.0
O168 O 0.63761 0.77857 0.11303 0.0
O169 O 0.62223 0.73327 0.19777 0.0
O170 O 0.64017 0.7159 0.19644 0.0
O171 O 0.60139 0.74037 0.12738 0.0
O172 O 0.60223 0.69101 0.07563 0.0
C173 C 0.62975 0.72507 0.95233 0.0
O174 O 0.63909 0.67434 0.05242 0.0
O175 O 0.62411 0.66935 0.11872 0.0
C176 C 0.67559 0.73707 0.11671 0.0
C177 C 0.6967 0.74576 0.17127 0.0
C178 C 0.68816 0.73232 0.2107 0.0
C179 C 0.6777 0.72797 0.18365 0.0
C180 C 0.68397 0.75161 0.07821 0.0
C181 C 0.6944 0.7559 0.10504 0.0
C182 C 0.66525 0.72826 0.08301 0.0
C183 C 0.62915 0.7927 0.08319 0.0
C184 C 0.63127 0.72468 0.22889 0.0
C185 C 0.58503 0.72005 0.07511 0.0
C186 C 0.5629 0.73091 0.04072 0.0
C187 C 0.57038 0.75855 0.0404 0.0
C188 C 0.58134 0.7532 0.05758 0.0
C189 C 0.5777 0.6923 0.07278 0.0
C190 C 0.56678 0.69761 0.05584 0.0
C191 C 0.59596 0.71402 0.10392 0.0
H192 H 0.6896 0.72471 0.26217 0.0
H193 H 0.67136 0.71667 0.21442 0.0
H194 H 0.68256 0.75846 0.02625 0.0
H195 H 0.70076 0.76584 0.07275 0.0
H196 H 0.56773 0.78446 0.0281 0.0
H197 H 0.58682 0.77511 0.05906 0.0
H198 H 0.58032 0.66658 0.08691 0.0
H199 H 0.56128 0.67577 0.05771 0.0
Dy200 Dy 0.36404 0.75438 0.09405 0.0
Dy201 Dy 0.39126 0.76096 0.0983 0.0
C202 C 0.37615 0.82598 0.08701 0.0
O203 O 0.36932 0.74729 0.98793 0.0
O204 O 0.38725 0.7659 0.9893 0.0
O205 O 0.34833 0.77779 0.11044 0.0
O206 O 0.34935 0.72599 0.06903 0.0
O207 O 0.38726 0.70771 0.06389 0.0
O208 O 0.37089 0.70241 0.11835 0.0
O209 O 0.38604 0.74827 0.20245 0.0
O210 O 0.36806 0.76524 0.20124 0.0
O211 O 0.40693 0.74157 0.13066 0.0
O212 O 0.40578 0.79127 0.08056 0.0
C213 C 0.37836 0.75642 0.95709 0.0
O214 O 0.36882 0.80658 0.05769 0.0
O215 O 0.38388 0.81201 0.12326 0.0
C216 C 0.33282 0.74121 0.12568 0.0
C217 C 0.31169 0.73074 0.17902 0.0
C218 C 0.31914 0.75287 0.21125 0.0
C219 C 0.3296 0.75808 0.18487 0.0
C220 C 0.32558 0.71798 0.09522 0.0
C221 C 0.31515 0.71271 0.12162 0.0
C222 C 0.34295 0.75072 0.08983 0.0
C223 C 0.37932 0.68855 0.08781 0.0
C224 C 0.377 0.75672 0.23364 0.0
C225 C 0.42316 0.76298 0.07738 0.0
C226 C 0.44557 0.75791 0.04449 0.0
C227 C 0.43983 0.72896 0.06841 0.0
C228 C 0.42876 0.7315 0.08497 0.0
C229 C 0.42877 0.79137 0.05027 0.0
C230 C 0.43982 0.78885 0.03385 0.0
C231 C 0.41222 0.76825 0.10735 0.0
H232 H 0.3168 0.76678 0.25611 0.0
H233 H 0.33499 0.7762 0.20955 0.0
H234 H 0.32781 0.70497 0.04912 0.0
H235 H 0.30961 0.69578 0.09502 0.0
H236 H 0.44402 0.70482 0.07774 0.0
H237 H 0.42474 0.70924 0.10659 0.0
H238 H 0.42474 0.8161 0.04453 0.0
H239 H 0.44396 0.8115 0.0146 0.0
Dy240 Dy 0.64421 0.22645 0.91782 0.0
Dy241 Dy 0.617 0.22043 0.91331 0.0
C242 C 0.62906 0.29267 0.92401 0.0
O243 O 0.63894 0.23413 0.02378 0.0
O244 O 0.62098 0.21577 0.02245 0.0
O245 O 0.65904 0.25447 0.94134 0.0
O246 O 0.65979 0.20197 0.90322 0.0
O247 O 0.62429 0.16927 0.88834 0.0
O248 O 0.63924 0.17456 0.95475 0.0
O249 O 0.62227 0.23326 0.80935 0.0
O250 O 0.6402 0.21578 0.81052 0.0
O251 O 0.60239 0.1904 0.93172 0.0
O252 O 0.60141 0.23975 0.88002 0.0
C253 C 0.62988 0.22523 0.05464 0.0
O254 O 0.63752 0.27869 0.89394 0.0
O255 O 0.62105 0.27367 0.94749 0.0
C256 C 0.6756 0.2372 0.88675 0.0
C257 C 0.69714 0.24543 0.83808 0.0
C258 C 0.69294 0.26783 0.88726 0.0
C259 C 0.68232 0.26366 0.91144 0.0
C260 C 0.67958 0.2159 0.83511 0.0
C261 C 0.69022 0.22003 0.81096 0.0
C262 C 0.66532 0.22904 0.92233 0.0
C263 C 0.63195 0.15521 0.925 0.0
C264 C 0.63129 0.22463 0.77812 0.0
C265 C 0.58515 0.2191 0.93289 0.0
C266 C 0.56308 0.22971 0.96882 0.0
C267 C 0.56691 0.19657 0.95205 0.0
C268 C 0.5778 0.19139 0.93435 0.0
C269 C 0.58151 0.25207 0.95197 0.0
C270 C 0.57057 0.2573 0.96991 0.0
C271 C 0.59606 0.21327 0.9036 0.0
H272 H 0.69796 0.28806 0.90844 0.0
H273 H 0.67951 0.28028 0.9516 0.0
H274 H 0.67466 0.19504 0.81532 0.0
H275 H 0.69319 0.20215 0.77344 0.0
H276 H 0.56139 0.17479 0.94953 0.0
H277 H 0.58039 0.16581 0.91905 0.0
H278 H 0.58701 0.27395 0.95119 0.0
H279 H 0.56795 0.28308 0.98346 0.0
Dy280 Dy 0.36424 0.25518 0.92174 0.0
Dy281 Dy 0.39146 0.26035 0.9175 0.0
C282 C 0.37916 0.18843 0.92795 0.0
O283 O 0.36944 0.24661 0.0276 0.0
O284 O 0.38738 0.26514 0.02652 0.0
O285 O 0.34921 0.22735 0.94077 0.0
O286 O 0.34883 0.28122 0.91081 0.0
O287 O 0.38434 0.3118 0.89272 0.0
O288 O 0.36944 0.30672 0.95942 0.0
O289 O 0.38618 0.24791 0.81336 0.0
O290 O 0.36834 0.26616 0.81465 0.0
O291 O 0.40607 0.29013 0.93535 0.0
O292 O 0.40707 0.24035 0.88545 0.0
C293 C 0.37849 0.25553 0.05862 0.0
O294 O 0.37074 0.20268 0.89802 0.0
O295 O 0.38724 0.20717 0.95137 0.0
C296 C 0.3328 0.24822 0.88817 0.0
C297 C 0.31129 0.24028 0.83919 0.0
C298 C 0.31742 0.21128 0.85879 0.0
C299 C 0.32805 0.21523 0.88347 0.0
C300 C 0.32684 0.27691 0.86542 0.0
C301 C 0.31624 0.27298 0.84113 0.0
C302 C 0.34311 0.25385 0.92553 0.0
C303 C 0.37673 0.32598 0.92958 0.0
C304 C 0.3772 0.257 0.78218 0.0
C305 C 0.42337 0.26134 0.93869 0.0
C306 C 0.44578 0.2561 0.97135 0.0
C307 C 0.43998 0.28678 0.98376 0.0
C308 C 0.42893 0.28938 0.96747 0.0
C309 C 0.42901 0.23007 0.92935 0.0
C310 C 0.44008 0.22744 0.94581 0.0
C311 C 0.41245 0.26688 0.9087 0.0
H312 H 0.3138 0.18576 0.85824 0.0
H313 H 0.33236 0.19263 0.9014 0.0
H314 H 0.33019 0.30273 0.86901 0.0
H315 H 0.31179 0.29577 0.82551 0.0
H316 H 0.44408 0.30918 1.00427 0.0
H317 H 0.42487 0.31396 0.97458 0.0
H318 H 0.42503 0.2081 0.9064 0.0
H319 H 0.44431 0.20352 0.93509 0.0
C320 C 0.21254 0.24942 0.74475 0.0
C321 C 0.20836 0.22827 0.6935 0.0
C322 C 0.2236 0.24842 0.76144 0.0
C323 C 0.24878 0.19661 0.74919 0.0
H324 H 0.26302 0.28556 0.76601 0.0
C325 C 0.29579 0.21071 0.77877 0.0
C326 C 0.29954 0.23705 0.82142 0.0
C327 C 0.2847 0.20825 0.76239 0.0
C328 C 0.25918 0.26046 0.76248 0.0
H329 H 0.2126 0.18861 0.62113 0.0
H330 H 0.23188 0.18648 0.65128 0.0
H331 H 0.24361 0.28301 0.74192 0.0
H332 H 0.29452 0.28052 0.88253 0.0
H333 H 0.27529 0.27597 0.85517 0.0
H334 H 0.26435 0.17404 0.77072 0.0
C335 C 0.22655 0.20384 0.67847 0.0
C336 C 0.24803 0.25902 0.74852 0.0
C337 C 0.21547 0.205 0.66138 0.0
C338 C 0.29194 0.26042 0.84826 0.0
C339 C 0.28089 0.25782 0.83241 0.0
C340 C 0.25996 0.19803 0.76376 0.0
C341 C 0.23077 0.22606 0.72772 0.0
C342 C 0.24268 0.22713 0.74212 0.0
C343 C 0.2771 0.23192 0.78878 0.0
C344 C 0.26529 0.23001 0.77107 0.0
H345 H 0.20728 0.26712 0.77159 0.0
H346 H 0.22657 0.26539 0.80055 0.0
H347 H 0.24488 0.17163 0.74485 0.0
H348 H 0.30146 0.19239 0.75713 0.0
H349 H 0.28212 0.18818 0.72813 0.0
C350 C 0.71693 0.25243 0.86782 0.0
C351 C 0.70888 0.24695 0.81875 0.0
C352 C 0.72799 0.25208 0.85091 0.0
C353 C 0.7471 0.21986 0.72191 0.0
H354 H 0.76718 0.28452 0.80424 0.0
C355 C 0.79201 0.2327 0.63706 0.0
C356 C 0.8 0.23789 0.68665 0.0
C357 C 0.78093 0.23341 0.6533 0.0
C358 C 0.76171 0.26598 0.78141 0.0
H359 H 0.70621 0.23755 0.71287 0.0
H360 H 0.72553 0.23702 0.68327 0.0
H361 H 0.7478 0.28764 0.83084 0.0
H362 H 0.80253 0.24715 0.7927 0.0
H363 H 0.78317 0.24832 0.82111 0.0
H364 H 0.76101 0.19819 0.6725 0.0
C365 C 0.72327 0.2411 0.73514 0.0
C366 C 0.75058 0.26781 0.79658 0.0
C367 C 0.71219 0.24147 0.75208 0.0
C368 C 0.7966 0.24347 0.75311 0.0
C369 C 0.7855 0.2442 0.76937 0.0
C370 C 0.75822 0.21803 0.70672 0.0
C371 C 0.73132 0.24619 0.78444 0.0
C372 C 0.74313 0.24474 0.76711 0.0
C373 C 0.77751 0.23937 0.71958 0.0
C374 C 0.76568 0.24105 0.73633 0.0
H375 H 0.71471 0.25603 0.9199 0.0
H376 H 0.73395 0.25552 0.89039 0.0
H377 H 0.74164 0.2013 0.69913 0.0
H378 H 0.7943 0.22904 0.58512 0.0
H379 H 0.77502 0.23014 0.61348 0.0
C380 C 0.29454 0.69661 0.20081 0.0
C381 C 0.30015 0.7283 0.20196 0.0
C382 C 0.28345 0.69497 0.21723 0.0
C383 C 0.25878 0.74966 0.22451 0.0
H384 H 0.24677 0.6741 0.32847 0.0
C385 C 0.2123 0.73155 0.25718 0.0
C386 C 0.20859 0.72305 0.32183 0.0
C387 C 0.22344 0.73054 0.24178 0.0
C388 C 0.25 0.69547 0.29961 0.0
H389 H 0.29844 0.78309 0.22217 0.0
H390 H 0.27921 0.78011 0.25198 0.0
H391 H 0.26634 0.6762 0.30643 0.0
H392 H 0.21378 0.70681 0.42094 0.0
H393 H 0.23312 0.70486 0.39398 0.0
H394 H 0.2425 0.76927 0.21863 0.0
C395 C 0.28335 0.75655 0.23763 0.0
C396 C 0.26121 0.6965 0.28645 0.0
C397 C 0.29444 0.75817 0.22141 0.0
C398 C 0.21629 0.7129 0.37027 0.0
C399 C 0.22741 0.71185 0.35485 0.0
C400 C 0.24758 0.74856 0.23746 0.0
C401 C 0.27768 0.72502 0.23495 0.0
C402 C 0.26575 0.7237 0.24897 0.0
C403 C 0.23114 0.72099 0.29062 0.0
C404 C 0.24304 0.72152 0.27534 0.0
H405 H 0.29871 0.67305 0.18663 0.0
H406 H 0.27934 0.67028 0.21428 0.0
H407 H 0.26197 0.77075 0.19474 0.0
H408 H 0.2066 0.73902 0.21836 0.0
H409 H 0.22601 0.7372 0.19148 0.0
C410 C 0.71241 0.72076 0.23683 0.0
C411 C 0.7081 0.74758 0.19727 0.0
C412 C 0.72336 0.72112 0.25663 0.0
C413 C 0.74752 0.77883 0.27253 0.0
H414 H 0.76356 0.69255 0.27158 0.0
C415 C 0.79161 0.77092 0.37078 0.0
C416 C 0.79905 0.74963 0.33659 0.0
C417 C 0.78051 0.77001 0.3555 0.0
C418 C 0.75924 0.71694 0.27154 0.0
H419 H 0.71194 0.79649 0.14977 0.0
H420 H 0.73102 0.79665 0.18253 0.0
H421 H 0.74429 0.69282 0.24204 0.0
H422 H 0.80061 0.71045 0.2597 0.0
H423 H 0.7812 0.70925 0.23188 0.0
H424 H 0.76252 0.80315 0.29966 0.0
C425 C 0.72593 0.77544 0.19898 0.0
C426 C 0.74813 0.71703 0.25554 0.0
C427 C 0.71498 0.77516 0.17945 0.0
C428 C 0.79508 0.72704 0.28716 0.0
C429 C 0.78394 0.72631 0.27143 0.0
C430 C 0.75863 0.77876 0.28816 0.0
C431 C 0.73031 0.74826 0.23728 0.0
C432 C 0.74211 0.74799 0.25576 0.0
C433 C 0.77651 0.74793 0.30522 0.0
C434 C 0.76466 0.74783 0.288 0.0
H435 H 0.7074 0.69891 0.25098 0.0
H436 H 0.72638 0.7 0.28698 0.0
H437 H 0.74316 0.80312 0.27402 0.0
H438 H 0.79437 0.78807 0.41017 0.0
H439 H 0.77504 0.78643 0.38376 0.0
C440 C 0.12288 0.87808 0.40986 0.0
C441 C 0.13148 0.85735 0.43321 0.0
C442 C 0.12266 0.9134 0.42407 0.0
C443 C 0.14006 0.98636 0.47586 0.0
H444 H 0.11287 0.02631 0.53766 0.0
C445 C 0.13794 0.12363 0.58634 0.0
C446 C 0.12922 0.14443 0.56501 0.0
C447 C 0.1381 0.08838 0.57149 0.0
C448 C 0.12049 0.01562 0.51985 0.0
H449 H 0.14673 0.8576 0.48841 0.0
H450 H 0.14632 0.91909 0.51327 0.0
H451 H 0.11348 0.96555 0.50569 0.0
H452 H 0.1137 0.14433 0.51255 0.0
H453 H 0.11405 0.08305 0.48625 0.0
H454 H 0.14708 0.0364 0.48985 0.0
C455 C 0.13978 0.90811 0.48365 0.0
C456 C 0.12084 0.98085 0.50143 0.0
C457 C 0.13998 0.87282 0.46967 0.0
C458 C 0.12055 0.12907 0.52987 0.0
C459 C 0.12071 0.09387 0.51502 0.0
C460 C 0.13971 0.02113 0.49417 0.0
C461 C 0.13106 0.92871 0.46163 0.0
C462 C 0.13063 0.96585 0.47937 0.0
C463 C 0.12954 0.0732 0.53503 0.0
C464 C 0.12993 0.03613 0.51649 0.0
H465 H 0.11621 0.86696 0.38156 0.0
H466 H 0.11591 0.92874 0.40572 0.0
H467 H 0.14769 0.97561 0.45823 0.0
H468 H 0.14473 0.13461 0.61367 0.0
H469 H 0.14494 0.07301 0.58848 0.0
C470 C 0.86865 0.37999 0.53944 0.0
C471 C 0.87724 0.36464 0.57531 0.0
C472 C 0.86877 0.41528 0.52553 0.0
C473 C 0.88757 0.48812 0.50612 0.0
H474 H 0.86135 0.54361 0.52049 0.0
C475 C 0.88787 0.63622 0.4789 0.0
C476 C 0.87913 0.6518 0.44477 0.0
C477 C 0.88769 0.601 0.49345 0.0
C478 C 0.8687 0.52835 0.51537 0.0
H479 H 0.89258 0.37445 0.62604 0.0
H480 H 0.89274 0.43625 0.60194 0.0
H481 H 0.86083 0.48277 0.55196 0.0
H482 H 0.86346 0.64238 0.39767 0.0
H483 H 0.86324 0.58069 0.42231 0.0
H484 H 0.89543 0.5336 0.46921 0.0
C485 C 0.88598 0.42081 0.58403 0.0
C486 C 0.86841 0.49356 0.5336 0.0
C487 C 0.88585 0.38548 0.5982 0.0
C488 C 0.87031 0.63121 0.42421 0.0
C489 C 0.87014 0.59592 0.43874 0.0
C490 C 0.88785 0.52289 0.48774 0.0
C491 C 0.87749 0.43599 0.54701 0.0
C492 C 0.87784 0.4731 0.52918 0.0
C493 C 0.87878 0.58051 0.4741 0.0
C494 C 0.87842 0.54339 0.49219 0.0
H495 H 0.86189 0.36468 0.52112 0.0
H496 H 0.86216 0.42618 0.49637 0.0
H497 H 0.89492 0.47284 0.50112 0.0
H498 H 0.89478 0.6513 0.49564 0.0
H499 H 0.89441 0.59001 0.52143 0.0
C500 C 0.88602 0.88529 0.42045 0.0
C501 C 0.87742 0.86478 0.44461 0.0
C502 C 0.88633 0.92063 0.43448 0.0
C503 C 0.86911 0.99387 0.48697 0.0
H504 H 0.89643 0.0336 0.54711 0.0
C505 C 0.87145 0.13096 0.59755 0.0
C506 C 0.88012 0.15178 0.57558 0.0
C507 C 0.87127 0.09572 0.58273 0.0
C508 C 0.88877 0.02297 0.52977 0.0
H509 H 0.86229 0.86538 0.50107 0.0
H510 H 0.86287 0.92686 0.5256 0.0
H511 H 0.89572 0.97283 0.51524 0.0
H512 H 0.89554 0.15174 0.52211 0.0
H513 H 0.89517 0.09044 0.49586 0.0
H514 H 0.86216 0.04397 0.50133 0.0
C515 C 0.86933 0.91572 0.49552 0.0
C516 C 0.88837 0.9882 0.5114 0.0
C517 C 0.86903 0.88044 0.48173 0.0
C518 C 0.88874 0.13646 0.53991 0.0
C519 C 0.88856 0.10125 0.52508 0.0
C520 C 0.86952 0.02864 0.50522 0.0
C521 C 0.87802 0.93613 0.47262 0.0
C522 C 0.87853 0.97328 0.49 0.0
C523 C 0.87977 0.08058 0.54566 0.0
C524 C 0.87934 0.04354 0.527 0.0
H525 H 0.8926 0.874 0.39163 0.0
H526 H 0.89306 0.93583 0.4155 0.0
H527 H 0.86145 0.98319 0.46981 0.0
H528 H 0.86469 0.14192 0.62533 0.0
H529 H 0.86447 0.08033 0.60018 0.0
C530 C 0.12015 0.62899 0.4687 0.0
C531 C 0.12874 0.64441 0.43286 0.0
C532 C 0.12035 0.59375 0.48323 0.0
C533 C 0.13287 0.51128 0.43295 0.0
H534 H 0.12522 0.48277 0.61334 0.0
C535 C 0.14015 0.37264 0.52597 0.0
C536 C 0.13178 0.35724 0.56369 0.0
C537 C 0.13983 0.40783 0.51116 0.0
C538 C 0.12727 0.49027 0.56257 0.0
H539 H 0.14415 0.63468 0.38282 0.0
H540 H 0.14449 0.57314 0.4084 0.0
H541 H 0.12432 0.5437 0.58298 0.0
H542 H 0.11662 0.36686 0.61654 0.0
H543 H 0.11603 0.4283 0.59011 0.0
H544 H 0.13579 0.45788 0.41243 0.0
C545 C 0.13758 0.58833 0.42488 0.0
C546 C 0.12675 0.52515 0.54517 0.0
C547 C 0.1374 0.62363 0.41044 0.0
C548 C 0.12321 0.37795 0.58752 0.0
C549 C 0.12289 0.41319 0.57258 0.0
C550 C 0.13338 0.4764 0.4503 0.0
C551 C 0.12912 0.57312 0.46212 0.0
C552 C 0.12955 0.53603 0.48019 0.0
C553 C 0.13114 0.42842 0.53361 0.0
C554 C 0.1306 0.46551 0.51535 0.0
H555 H 0.11333 0.6442 0.48653 0.0
H556 H 0.11364 0.58264 0.51112 0.0
H557 H 0.13495 0.51884 0.38224 0.0
H558 H 0.14691 0.35746 0.50718 0.0
H559 H 0.14642 0.41892 0.48206 0.0
C560 C 0.64008 0.602 0.03257 0.0
C561 C 0.63175 0.61743 0.07055 0.0
C562 C 0.63976 0.56678 0.01787 0.0
C563 C 0.62068 0.49406 1.0021 0.0
H564 H 0.64695 0.43844 0.00878 0.0
C565 C 0.62028 0.34568 0.97162 0.0
C566 C 0.62886 0.33044 0.93541 0.0
C567 C 0.62047 0.38089 0.98679 0.0
C568 C 0.63957 0.45371 1.00581 0.0
H569 H 0.61664 0.6078 0.12395 0.0
H570 H 0.61614 0.54615 0.09858 0.0
H571 H 0.64772 0.49914 0.04072 0.0
H572 H 0.64422 0.34053 0.88509 0.0
H573 H 0.64446 0.40204 0.91077 0.0
H574 H 0.61254 0.44867 0.96691 0.0
C575 C 0.62285 0.56146 0.0796 0.0
C576 C 0.64001 0.48847 0.02429 0.0
C577 C 0.62318 0.59672 0.09453 0.0
C578 C 0.6375 0.35138 0.9133 0.0
C579 C 0.63768 0.38661 0.92844 0.0
C580 C 0.62025 0.4593 0.98349 0.0
C581 C 0.6311 0.54617 0.04066 0.0
C582 C 0.63057 0.50904 0.02256 0.0
C583 C 0.62924 0.40168 0.96605 0.0
C584 C 0.62969 0.43874 0.98503 0.0
H585 H 0.64679 0.6172 0.01324 0.0
H586 H 0.64618 0.55585 0.98718 0.0
H587 H 0.61331 0.50938 0.99923 0.0
H588 H 0.61351 0.33032 0.98958 0.0
H589 H 0.61389 0.3916 0.01641 0.0
C590 C 0.36775 0.87897 0.03712 0.0
C591 C 0.3761 0.86369 0.07513 0.0
C592 C 0.36804 0.91417 0.02206 0.0
C593 C 0.38714 0.98683 1.00529 0.0
H594 H 0.36093 0.04273 0.01202 0.0
C595 C 0.3878 0.13514 0.97534 0.0
C596 C 0.37925 0.15065 0.93929 0.0
C597 C 0.38752 0.09993 0.99036 0.0
C598 C 0.36829 0.02737 0.00901 0.0
H599 H 0.39121 0.87359 0.12829 0.0
H600 H 0.39167 0.93514 0.10231 0.0
H601 H 0.3601 0.98202 0.04401 0.0
H602 H 0.36385 0.14101 0.88917 0.0
H603 H 0.36346 0.07947 0.91456 0.0
H604 H 0.39533 0.03211 0.97005 0.0
C605 C 0.38496 0.91975 0.08355 0.0
C606 C 0.36782 0.99261 0.02753 0.0
C607 C 0.38465 0.88453 0.09884 0.0
C608 C 0.37055 0.12995 0.91724 0.0
C609 C 0.37029 0.09471 0.93222 0.0
C610 C 0.38761 0.02157 0.98664 0.0
C611 C 0.3767 0.93488 0.04449 0.0
C612 C 0.37723 0.97196 0.0259 0.0
C613 C 0.37871 0.07936 0.96961 0.0
C614 C 0.37819 0.04226 0.98829 0.0
H615 H 0.36104 0.86366 0.01801 0.0
H616 H 0.36161 0.92499 0.99133 0.0
H617 H 0.3945 0.97145 1.00245 0.0
H618 H 0.39462 0.1503 0.99328 0.0
H619 H 0.39409 0.08902 0.01985 0.0
C620 C 0.36849 0.37904 0.98002 0.0
C621 C 0.37678 0.36368 0.94155 0.0
C622 C 0.36881 0.41426 0.99483 0.0
C623 C 0.38785 0.48722 0.00943 0.0
H624 H 0.36151 0.5425 1.00429 0.0
C625 C 0.3881 0.63566 0.03966 0.0
C626 C 0.37956 0.65079 0.0764 0.0
C627 C 0.38794 0.60044 0.02454 0.0
C628 C 0.36891 0.52732 0.00683 0.0
H629 H 0.39181 0.37342 0.88745 0.0
H630 H 0.39232 0.43506 0.91299 0.0
H631 H 0.36076 0.48178 0.97254 0.0
H632 H 0.3643 0.64047 0.12771 0.0
H633 H 0.36411 0.57896 0.10211 0.0
H634 H 0.396 0.53274 0.04396 0.0
C635 C 0.38564 0.4197 0.93228 0.0
C636 C 0.36849 0.49255 0.98845 0.0
C637 C 0.3853 0.38445 0.91726 0.0
C638 C 0.37099 0.62971 0.09908 0.0
C639 C 0.37083 0.59448 0.08399 0.0
C640 C 0.38827 0.522 0.02792 0.0
C641 C 0.37744 0.43493 0.97164 0.0
C642 C 0.37795 0.47209 0.98964 0.0
C643 C 0.37924 0.57952 0.04585 0.0
C644 C 0.3788 0.54244 0.02694 0.0
H645 H 0.36181 0.3638 0.99961 0.0
H646 H 0.36243 0.42513 0.02585 0.0
H647 H 0.39525 0.47199 0.01186 0.0
H648 H 0.39482 0.65112 0.02125 0.0
H649 H 0.39448 0.58982 0.99452 0.0
C650 C 0.64029 0.10221 0.97511 0.0
C651 C 0.63197 0.11751 0.93688 0.0
C652 C 0.63999 0.067 0.99004 0.0
C653 C 0.62093 0.99423 0.00593 0.0
H654 H 0.6472 0.93859 0.99961 0.0
C655 C 0.62045 0.84587 0.03578 0.0
C656 C 0.629 0.83049 0.07195 0.0
C657 C 0.62067 0.88109 0.02082 0.0
C658 C 0.63982 0.95387 1.0025 0.0
H659 H 0.6169 0.10767 0.88324 0.0
H660 H 0.61643 0.04608 0.90901 0.0
H661 H 0.64798 -0.00069 0.96775 0.0
H662 H 0.64436 0.84036 0.12241 0.0
H663 H 0.64466 0.90191 0.09712 0.0
H664 H 0.61277 0.94884 0.04094 0.0
C665 C 0.62312 0.06146 0.92803 0.0
C666 C 0.64027 0.98863 0.98405 0.0
C667 C 0.62343 0.0967 0.91286 0.0
C668 C 0.63766 0.85132 0.09422 0.0
C669 C 0.63787 0.88657 0.07931 0.0
C670 C 0.62049 0.95947 0.02451 0.0
C671 C 0.63135 0.0463 0.96725 0.0
C672 C 0.63083 0.0092 0.98558 0.0
C673 C 0.62944 0.90178 0.04176 0.0
C674 C 0.62993 0.93889 0.02304 0.0
H675 H 0.64698 0.1175 0.99446 0.0
H676 H 0.6464 0.05617 0.02092 0.0
H677 H 0.61356 0.00954 0.00866 0.0
H678 H 0.61366 0.8306 0.01769 0.0
H679 H 0.6141 0.89191 0.99123 0.0
C680 C 0.12025 0.25216 0.33477 0.0
C681 C 0.13004 0.24928 0.37107 0.0
C682 C 0.12036 0.2522 0.26458 0.0
C683 C 0.13804 0.27052 0.1201 0.0
H684 H 0.11778 0.21303 0.02135 0.0
C685 C 0.14118 0.25316 0.83257 0.0
C686 C 0.13141 0.25076 0.79618 0.0
C687 C 0.14107 0.25284 0.90276 0.0
C688 C 0.1234 0.22964 0.04799 0.0
H689 H 0.14761 0.24441 0.36179 0.0
H690 H 0.14776 0.24474 0.23977 0.0
H691 H 0.11725 0.21342 0.14349 0.0
H692 H 0.11382 0.2468 0.8052 0.0
H693 H 0.1136 0.2472 0.92685 0.0
H694 H 0.14409 0.28729 0.02495 0.0
C695 C 0.14002 0.247 0.26557 0.0
C696 C 0.1231 0.22977 0.11805 0.0
C697 C 0.13991 0.24657 0.33557 0.0
C698 C 0.12152 0.24835 0.83154 0.0
C699 C 0.1214 0.24837 0.90154 0.0
C700 C 0.13828 0.27067 0.05001 0.0
C701 C 0.13026 0.24979 0.22929 0.0
C702 C 0.13044 0.25013 0.15485 0.0
C703 C 0.13116 0.25045 0.93819 0.0
C704 C 0.13097 0.25019 0.01296 0.0
H705 H 0.11251 0.25426 0.36049 0.0
H706 H 0.11271 0.25462 0.2379 0.0
H707 H 0.14372 0.28679 0.14715 0.0
H708 H 0.14895 0.25487 0.80691 0.0
H709 H 0.14877 0.25399 0.92918 0.0
C710 C 0.8891 0.25998 0.3446 0.0
C711 C 0.87932 0.257 0.38094 0.0
C712 C 0.88898 0.25997 0.27441 0.0
C713 C 0.87125 0.27788 0.12998 0.0
H714 H 0.89158 0.22056 0.0313 0.0
C715 C 0.86808 0.26007 0.8426 0.0
C716 C 0.87786 0.25793 0.80614 0.0
C717 C 0.8682 0.25979 0.91279 0.0
C718 C 0.88594 0.23712 0.05792 0.0
H719 H 0.86175 0.25192 0.37176 0.0
H720 H 0.86159 0.25216 0.24977 0.0
H721 H 0.89214 0.22113 0.15344 0.0
H722 H 0.89546 0.25441 0.81506 0.0
H723 H 0.89569 0.25485 0.93669 0.0
H724 H 0.86515 0.2944 0.03481 0.0
C725 C 0.86933 0.25454 0.27552 0.0
C726 C 0.88626 0.23736 0.12798 0.0
C727 C 0.86944 0.25417 0.3455 0.0
C728 C 0.88775 0.25577 0.84144 0.0
C729 C 0.88789 0.25581 0.91142 0.0
C730 C 0.87099 0.27792 0.05991 0.0
C731 C 0.87909 0.25741 0.23918 0.0
C732 C 0.8789 0.25766 0.16475 0.0
C733 C 0.87812 0.25767 0.94814 0.0
C734 C 0.87833 0.25749 0.02289 0.0
H735 H 0.89684 0.26217 0.37027 0.0
H736 H 0.89663 0.26245 0.24767 0.0
H737 H 0.86555 0.29411 0.15701 0.0
H738 H 0.86031 0.26158 0.81699 0.0
H739 H 0.86051 0.26076 0.93927 0.0
C740 C 0.14068 0.75297 0.16594 0.0
C741 C 0.1309 0.75064 0.20243 0.0
C742 C 0.14055 0.75282 0.09576 0.0
C743 C 0.12284 0.73016 0.95055 0.0
H744 H 0.14314 0.78757 0.85176 0.0
C745 C 0.11969 0.75302 0.66393 0.0
C746 C 0.12948 0.75019 0.62765 0.0
C747 C 0.11979 0.75306 0.73411 0.0
C748 C 0.13747 0.77123 0.87871 0.0
H749 H 0.11331 0.74695 0.19355 0.0
H750 H 0.11306 0.7476 0.07191 0.0
H751 H 0.14354 0.78773 0.97397 0.0
H752 H 0.14706 0.74547 0.63694 0.0
H753 H 0.1472 0.7458 0.75894 0.0
H754 H 0.11668 0.71417 0.85496 0.0
C755 C 0.12087 0.74861 0.09716 0.0
C756 C 0.13772 0.77119 0.94878 0.0
C757 C 0.12101 0.74844 0.16715 0.0
C758 C 0.13936 0.7476 0.66315 0.0
C759 C 0.13946 0.74801 0.73314 0.0
C760 C 0.12253 0.73046 0.8805 0.0
C761 C 0.13063 0.75065 0.06043 0.0
C762 C 0.13042 0.7506 0.98569 0.0
C763 C 0.12969 0.7507 0.76941 0.0
C764 C 0.12986 0.75092 0.84383 0.0
H765 H 0.14845 0.75453 0.19153 0.0
H766 H 0.14824 0.75393 0.06925 0.0
H767 H 0.11722 0.71348 0.9771 0.0
H768 H 0.11194 0.75503 0.63821 0.0
H769 H 0.11214 0.7554 0.7608 0.0
C770 C 0.86887 0.75352 0.67389 0.0
C771 C 0.87876 0.75611 0.63847 0.0
C772 C 0.86875 0.75393 0.74389 0.0
C773 C 0.88558 0.7365 0.8917 0.0
H774 H 0.86467 0.79457 0.9843 0.0
C775 C 0.88714 0.75537 0.17813 0.0
C776 C 0.87726 0.75815 0.21347 0.0
C777 C 0.88727 0.75527 0.10813 0.0
C778 C 0.87046 0.77779 0.95939 0.0
H779 H 0.89629 0.76083 0.6492 0.0
H780 H 0.89606 0.76113 0.77183 0.0
H781 H 0.86509 0.79393 0.86211 0.0
H782 H 0.85973 0.7628 0.20268 0.0
H783 H 0.85991 0.76169 0.08039 0.0
H784 H 0.89083 0.71973 0.98854 0.0
C785 C 0.88841 0.75883 0.74506 0.0
C786 C 0.87072 0.77756 0.8893 0.0
C787 C 0.88854 0.75882 0.67486 0.0
C788 C 0.86749 0.7608 0.17703 0.0
C789 C 0.86761 0.76035 0.10683 0.0
C790 C 0.88525 0.73644 0.96177 0.0
C791 C 0.8785 0.75658 0.78027 0.0
C792 C 0.8783 0.75698 0.85472 0.0
C793 C 0.87751 0.75758 0.07142 0.0
C794 C 0.87771 0.75719 0.99664 0.0
H795 H 0.86117 0.75149 0.64761 0.0
H796 H 0.861 0.75179 0.76962 0.0
H797 H 0.89141 0.72 0.8664 0.0
H798 H 0.89483 0.75363 0.20448 0.0
H799 H 0.89506 0.75382 0.08286 0.0
C800 C 0.64105 0.72239 0.33967 0.0
C801 C 0.63127 0.72485 0.30322 0.0
C802 C 0.64091 0.72264 0.40986 0.0
C803 C 0.62319 0.70467 0.55443 0.0
H804 H 0.64329 0.76306 0.65243 0.0
C805 C 0.61994 0.72304 0.84164 0.0
C806 C 0.62973 0.7254 0.878 0.0
C807 C 0.62005 0.72335 0.77145 0.0
C808 C 0.63771 0.74622 0.626 0.0
H809 H 0.61367 0.72926 0.31219 0.0
H810 H 0.61348 0.72944 0.43418 0.0
H811 H 0.64389 0.76203 0.53031 0.0
H812 H 0.64732 0.72942 0.86885 0.0
H813 H 0.64752 0.72905 0.74727 0.0
H814 H 0.61711 0.68833 0.64979 0.0
C815 C 0.62124 0.72727 0.40853 0.0
C816 C 0.63806 0.74571 0.55595 0.0
C817 C 0.62137 0.72739 0.33855 0.0
C818 C 0.63961 0.72789 0.84258 0.0
C819 C 0.63972 0.72789 0.77261 0.0
C820 C 0.62291 0.70491 0.6245 0.0
C821 C 0.631 0.72494 0.44499 0.0
C822 C 0.63078 0.725 0.51942 0.0
C823 C 0.62996 0.72572 0.73601 0.0
C824 C 0.63016 0.72572 0.66127 0.0
H825 H 0.64881 0.72044 0.31406 0.0
H826 H 0.64856 0.72058 0.43669 0.0
H827 H 0.61756 0.68814 0.52761 0.0
H828 H 0.61218 0.72127 0.86733 0.0
H829 H 0.61236 0.72214 0.74504 0.0
C830 C 0.3685 0.75355 0.84734 0.0
C831 C 0.37837 0.75627 0.88276 0.0
C832 C 0.36839 0.75368 0.77736 0.0
C833 C 0.38518 0.77722 0.62932 0.0
H834 H 0.3644 0.71946 0.53495 0.0
C835 C 0.38689 0.75448 0.34336 0.0
C836 C 0.377 0.7567 0.30797 0.0
C837 C 0.38701 0.75472 0.41336 0.0
C838 C 0.37018 0.73596 0.56064 0.0
H839 H 0.3959 0.76096 0.8721 0.0
H840 H 0.39574 0.76029 0.74984 0.0
H841 H 0.36495 0.71852 0.65708 0.0
H842 H 0.35945 0.7607 0.3187 0.0
H843 H 0.35966 0.76077 0.4413 0.0
H844 H 0.39053 0.79407 0.53246 0.0
C845 C 0.38805 0.75882 0.77623 0.0
C846 C 0.37049 0.73551 0.63069 0.0
C847 C 0.38815 0.75901 0.84641 0.0
C848 C 0.36721 0.75899 0.34436 0.0
C849 C 0.36732 0.75885 0.41454 0.0
C850 C 0.38494 0.77741 0.55924 0.0
C851 C 0.37816 0.75619 0.74077 0.0
C852 C 0.37797 0.75623 0.66603 0.0
C853 C 0.37723 0.75685 0.44974 0.0
C854 C 0.37742 0.75684 0.52417 0.0
H855 H 0.3608 0.75173 0.87362 0.0
H856 H 0.3606 0.7523 0.752 0.0
H857 H 0.39092 0.79398 0.65466 0.0
H858 H 0.3946 0.75276 0.31704 0.0
H859 H 0.39476 0.75279 0.43908 0.0
C860 C 0.63974 0.22816 0.1644 0.0
C861 C 0.62986 0.22552 0.12897 0.0
C862 C 0.63985 0.22795 0.23439 0.0
C863 C 0.62298 0.24584 0.38188 0.0
H864 H 0.64391 0.1882 0.4752 0.0
C865 C 0.62141 0.22744 0.66847 0.0
C866 C 0.63129 0.22487 0.70379 0.0
C867 C 0.62128 0.22751 0.59848 0.0
C868 C 0.63812 0.20485 0.45007 0.0
H869 H 0.61232 0.22089 0.13965 0.0
H870 H 0.61253 0.22089 0.26227 0.0
H871 H 0.6435 0.18842 0.35302 0.0
H872 H 0.64883 0.22067 0.69296 0.0
H873 H 0.64865 0.22169 0.57069 0.0
H874 H 0.6177 0.26286 0.47852 0.0
C875 C 0.62018 0.22309 0.23552 0.0
C876 C 0.63786 0.20484 0.38 0.0
C877 C 0.62007 0.22292 0.16533 0.0
C878 C 0.64107 0.22249 0.66734 0.0
C879 C 0.64095 0.22288 0.59716 0.0
C880 C 0.6233 0.24611 0.45194 0.0
C881 C 0.63008 0.22544 0.27074 0.0
C882 C 0.63027 0.22527 0.34516 0.0
C883 C 0.63104 0.22536 0.56178 0.0
C884 C 0.63085 0.22553 0.48703 0.0
H885 H 0.64744 0.23012 0.13814 0.0
H886 H 0.64759 0.23016 0.26012 0.0
H887 H 0.61714 0.26222 0.35637 0.0
H888 H 0.61371 0.22901 0.69484 0.0
H889 H 0.61348 0.22876 0.5732 0.0
C890 C 0.36862 0.25254 0.16843 0.0
C891 C 0.3785 0.25521 0.13295 0.0
C892 C 0.36851 0.25287 0.23843 0.0
C893 C 0.38542 0.2354 0.38597 0.0
H894 H 0.36452 0.2933 0.47904 0.0
C895 C 0.38707 0.25422 0.67243 0.0
C896 C 0.3772 0.25687 0.70785 0.0
C897 C 0.38719 0.25414 0.60243 0.0
C898 C 0.3703 0.27657 0.45399 0.0
H899 H 0.39603 0.25997 0.14356 0.0
H900 H 0.39583 0.26016 0.26615 0.0
H901 H 0.36487 0.29272 0.35685 0.0
H902 H 0.35966 0.26125 0.69719 0.0
H903 H 0.35982 0.26018 0.57494 0.0
H904 H 0.39073 0.21864 0.48268 0.0
C905 C 0.38818 0.25786 0.23945 0.0
C906 C 0.37053 0.27637 0.38391 0.0
C907 C 0.38828 0.25792 0.16927 0.0
C908 C 0.36742 0.25937 0.67149 0.0
C909 C 0.36752 0.25894 0.60131 0.0
C910 C 0.38513 0.23532 0.45603 0.0
C911 C 0.37828 0.25552 0.27473 0.0
C912 C 0.3781 0.25585 0.34916 0.0
C913 C 0.37742 0.25634 0.56582 0.0
C914 C 0.37759 0.256 0.49106 0.0
H915 H 0.36092 0.2505 0.14219 0.0
H916 H 0.36077 0.25067 0.26423 0.0
H917 H 0.39124 0.21895 0.36053 0.0
H918 H 0.39478 0.25258 0.69874 0.0
H919 H 0.39498 0.2528 0.57707 0.0
C920 C 0.04518 0.21364 0.51596 0.0
C921 C 0.05122 0.24447 0.51251 0.0
C922 C 0.03382 0.21402 0.50915 0.0
C923 C 0.01035 0.2728 0.5299 0.0
H924 H 0.99425 0.20026 0.43975 0.0
C925 C 0.96362 0.27892 0.50492 0.0
C926 C 0.95782 0.24834 0.51833 0.0
C927 C 0.97494 0.27837 0.49676 0.0
C928 C 0.99862 0.22059 0.46554 0.0
H929 H 0.04999 0.29984 0.49758 0.0
H930 H 0.03027 0.30038 0.48414 0.0
H931 H 0.01417 0.19944 0.43846 0.0
H932 H 0.95942 0.19293 0.53071 0.0
H933 H 0.97919 0.19204 0.51762 0.0
H934 H 0.99488 0.29374 0.55781 0.0
C935 C 0.03429 0.27591 0.49306 0.0
C936 C 0.01004 0.22011 0.4648 0.0
C937 C 0.04564 0.27553 0.49986 0.0
C938 C 0.96363 0.21702 0.52118 0.0
C939 C 0.97496 0.21647 0.51298 0.0
C940 C 0.99896 0.27327 0.53063 0.0
C941 C 0.02821 0.24527 0.49881 0.0
C942 C 0.01606 0.24617 0.49719 0.0
C943 C 0.98079 0.24723 0.50185 0.0
C944 C 0.99294 0.24713 0.49868 0.0
H945 H 0.04921 0.1892 0.52494 0.0
H946 H 0.02941 0.18995 0.51425 0.0
H947 H 0.01469 0.29291 0.55655 0.0
H948 H 0.95946 0.30358 0.50307 0.0
H949 H 0.97913 0.30249 0.48727 0.0
C950 C 0.9633 0.77691 0.50962 0.0
C951 C 0.95749 0.74636 0.49617 0.0
C952 C 0.97464 0.77641 0.51642 0.0
C953 C 0.99849 0.71864 0.54319 0.0
H954 H 0.01418 0.79182 0.45223 0.0
C955 C 0.04488 0.71261 0.48674 0.0
C956 C 0.0509 0.74349 0.4904 0.0
C957 C 0.03354 0.71281 0.49495 0.0
C958 C 0.00995 0.77146 0.47884 0.0
H959 H 0.9591 0.69104 0.48235 0.0
H960 H 0.97891 0.69026 0.49304 0.0
H961 H 0.99437 0.79243 0.45346 0.0
H962 H 0.04966 0.79871 0.50716 0.0
H963 H 0.02998 0.79892 0.52298 0.0
H964 H 0.01414 0.69746 0.56769 0.0
C965 C 0.97467 0.71461 0.49876 0.0
C966 C 0.99856 0.77181 0.47955 0.0
C967 C 0.96331 0.71511 0.49194 0.0
C968 C 0.04533 0.77437 0.50466 0.0
C969 C 0.034 0.77457 0.51283 0.0
C970 C 0.00991 0.71829 0.54246 0.0
C971 C 0.98051 0.74536 0.50989 0.0
C972 C 0.99266 0.74537 0.51152 0.0
C973 C 0.02794 0.7439 0.50692 0.0
C974 C 0.01579 0.74466 0.51007 0.0
H975 H 0.95913 0.80151 0.51252 0.0
H976 H 0.97884 0.80051 0.52598 0.0
H977 H 0.99422 0.69807 0.56895 0.0
H978 H 0.04891 0.6883 0.47655 0.0
H979 H 0.02914 0.68873 0.48967 0.0
C980 C 0.54457 0.71226 0.99627 0.0
C981 C 0.551 0.73682 0.03005 0.0
C982 C 0.53324 0.71605 0.99241 0.0
C983 C 0.51038 0.75993 0.07912 0.0
H984 H 0.49372 0.73076 0.92394 0.0
C985 C 0.46414 0.78417 0.05879 0.0
C986 C 0.45763 0.7567 0.03578 0.0
C987 C 0.4755 0.78257 0.05437 0.0
C988 C 0.49826 0.73875 0.96785 0.0
H989 H 0.55046 0.78527 0.08462 0.0
H990 H 0.53081 0.79247 0.07586 0.0
H991 H 0.51361 0.72751 0.92148 0.0
H992 H 0.45802 0.70625 0.98878 0.0
H993 H 0.47792 0.70338 0.98127 0.0
H994 H 0.49505 0.77126 0.12538 0.0
C995 C 0.5345 0.76982 0.05354 0.0
C996 C 0.50967 0.73688 0.9665 0.0
C997 C 0.54582 0.76595 0.05766 0.0
C998 C 0.46279 0.72776 0.00728 0.0
C999 C 0.47418 0.72625 1.00247 0.0
C1000 C 0.499 0.76197 0.0803 0.0
C1001 C 0.52803 0.74461 0.02196 0.0
C1002 C 0.51588 0.7474 0.0222 0.0
C1003 C 0.48067 0.7535 0.02666 0.0
C1004 C 0.4928 0.75139 0.02475 0.0
H1005 H 0.54828 0.68973 0.97357 0.0
H1006 H 0.52855 0.69597 0.96804 0.0
H1007 H 0.51484 0.76755 0.12354 0.0
H1008 H 0.46046 0.80665 0.08186 0.0
H1009 H 0.48024 0.80415 0.07284 0.0
C1010 C 0.46306 0.22572 0.00667 0.0
C1011 C 0.45784 0.25497 0.9798 0.0
C1012 C 0.47445 0.2243 0.01106 0.0
C1013 C 0.49915 0.26125 0.93404 0.0
H1014 H 0.51395 0.22497 0.0906 0.0
C1015 C 0.54599 0.265 0.95441 0.0
C1016 C 0.5512 0.23555 0.98046 0.0
C1017 C 0.53467 0.26885 0.95935 0.0
C1018 C 0.50995 0.23486 0.04619 0.0
H1019 H 0.46057 0.30558 0.93624 0.0
H1020 H 0.48036 0.30321 0.94451 0.0
H1021 H 0.49406 0.22811 0.08917 0.0
H1022 H 0.54854 0.18784 0.03509 0.0
H1023 H 0.52883 0.19404 0.04199 0.0
H1024 H 0.51493 0.26742 0.89033 0.0
C1025 C 0.47565 0.28132 0.96203 0.0
C1026 C 0.49855 0.23667 0.04545 0.0
C1027 C 0.46429 0.28284 0.95805 0.0
C1028 C 0.54481 0.21062 0.01357 0.0
C1029 C 0.53349 0.21439 0.01823 0.0
C1030 C 0.51052 0.25926 0.9346 0.0
C1031 C 0.48089 0.25195 0.98806 0.0
C1032 C 0.49301 0.24995 0.98938 0.0
C1033 C 0.52824 0.24328 0.99019 0.0
C1034 C 0.5161 0.24607 0.99068 0.0
H1035 H 0.45833 0.20389 0.02417 0.0
H1036 H 0.47823 0.2012 0.03096 0.0
H1037 H 0.49514 0.27105 0.88957 0.0
H1038 H 0.55059 0.28461 0.92802 0.0
H1039 H 0.53096 0.29175 0.93821 0.0
loop_
_geom_bond_atom_site_label_1
_geom_bond_atom_site_label_2
_geom_bond_distance
_geom_bond_site_symmetry_2
_ccdc_geom_bond_type
Dy0 O3 2.307 . S
Dy0 O5 2.395 . S
Dy0 O6 2.379 . S
Dy0 O8 2.339 . S
Dy0 O10 2.298 . S
Dy0 O14 2.275 . S
Dy0 C22 2.738 . S
Dy1 O4 2.298 . S
Dy1 O7 2.275 . S
Dy1 O9 2.307 . S
Dy1 O11 2.395 . S
Dy1 O12 2.379 . S
Dy1 O15 2.339 . S
Dy1 C31 2.738 . S
C2 O14 1.254 . S
C2 O15 1.257 . S
O3 Dy0 2.307 . S
O3 C13 1.266 . S
O4 Dy1 2.298 . S
O4 C13 1.236 . S
O5 Dy0 2.395 . S
O5 C22 1.255 . S
O6 Dy0 2.379 . S
O6 C22 1.249 . S
O7 Dy1 2.275 . S
O7 C23 1.254 . S
O8 Dy0 2.339 . S
O8 C23 1.257 . S
O9 Dy1 2.307 . S
O9 C24 1.266 . S
O10 Dy0 2.298 . S
O10 C24 1.236 . S
O11 Dy1 2.395 . S
O11 C31 1.255 . S
O12 Dy1 2.379 . S
O12 C31 1.249 . S
C13 O3 1.266 . S
C13 O4 1.236 . S
O14 Dy0 2.275 . S
O14 C2 1.254 . S
O15 Dy1 2.339 . S
O15 C2 1.257 . S
C16 C19 1.344 . S
C16 C20 1.328 . S
C16 C22 1.516 . S
C17 C18 1.304 . S
C17 C21 1.323 . S
C18 C17 1.304 . S
C18 C19 1.371 . S
C18 H32 0.930 . S
C19 C16 1.344 . S
C19 C18 1.371 . S
C19 H33 0.931 . S
C20 C16 1.328 . S
C20 C21 1.433 . S
C20 H34 0.931 . S
C21 C17 1.323 . S
C21 C20 1.433 . S
C21 H35 0.933 . S
C22 Dy0 2.738 . S
C22 O5 1.255 . S
C22 O6 1.249 . S
C22 C16 1.516 . S
C23 O7 1.254 . S
C23 O8 1.257 . S
C24 O9 1.266 . S
C24 O10 1.236 . S
C25 C28 1.344 . S
C25 C29 1.328 . S
C25 C31 1.516 . S
C26 C27 1.304 . S
C26 C30 1.323 . S
C27 C26 1.304 . S
C27 C28 1.371 . S
C27 H36 0.930 . S
C28 C25 1.344 . S
C28 C27 1.371 . S
C28 H37 0.931 . S
C29 C25 1.328 . S
C29 C30 1.433 . S
C29 H38 0.931 . S
C30 C26 1.323 . S
C30 C29 1.433 . S
C30 H39 0.933 . S
C31 Dy1 2.738 . S
C31 O11 1.255 . S
C31 O12 1.249 . S
C31 C25 1.516 . S
H32 C18 0.930 . S
H33 C19 0.931 . S
H34 C20 0.931 . S
H35 C21 0.933 . S
H36 C27 0.930 . S
H37 C28 0.931 . S
H38 C29 0.931 . S
H39 C30 0.933 . S
Dy40 O43 2.307 . S
Dy40 O45 2.395 . S
Dy40 O46 2.379 . S
Dy40 O48 2.339 . S
Dy40 O50 2.298 . S
Dy40 O54 2.275 . S
Dy40 C62 2.738 . S
Dy41 O44 2.298 . S
Dy41 O47 2.275 . S
Dy41 O49 2.307 . S
Dy41 O51 2.395 . S
Dy41 O52 2.379 . S
Dy41 O55 2.339 . S
Dy41 C71 2.738 . S
C42 O54 1.254 . S
C42 O55 1.257 . S
O43 Dy40 2.307 . S
O43 C53 1.266 . S
O44 Dy41 2.298 . S
O44 C53 1.236 . S
O45 Dy40 2.395 . S
O45 C62 1.255 . S
O46 Dy40 2.379 . S
O46 C62 1.249 . S
O47 Dy41 2.275 . S
O47 C63 1.254 . S
O48 Dy40 2.339 . S
O48 C63 1.257 . S
O49 Dy41 2.307 . S
O49 C64 1.266 . S
O50 Dy40 2.298 . S
O50 C64 1.236 . S
O51 Dy41 2.395 . S
O51 C71 1.255 . S
O52 Dy41 2.379 . S
O52 C71 1.249 . S
C53 O43 1.266 . S
C53 O44 1.236 . S
O54 Dy40 2.275 . S
O54 C42 1.254 . S
O55 Dy41 2.339 . S
O55 C42 1.257 . S
C56 C59 1.344 . S
C56 C60 1.328 . S
C56 C62 1.516 . S
C57 C58 1.304 . S
C57 C61 1.323 . S
C58 C57 1.304 . S
C58 C59 1.371 . S
C58 H72 0.930 . S
C59 C56 1.344 . S
C59 C58 1.371 . S
C59 H73 0.931 . S
C60 C56 1.328 . S
C60 C61 1.433 . S
C60 H74 0.931 . S
C61 C57 1.323 . S
C61 C60 1.433 . S
C61 H75 0.933 . S
C62 Dy40 2.738 . S
C62 O45 1.255 . S
C62 O46 1.249 . S
C62 C56 1.516 . S
C63 O47 1.254 . S
C63 O48 1.257 . S
C64 O49 1.266 . S
C64 O50 1.236 . S
C65 C68 1.344 . S
C65 C69 1.328 . S
C65 C71 1.516 . S
C66 C67 1.304 . S
C66 C70 1.323 . S
C67 C66 1.304 . S
C67 C68 1.371 . S
C67 H76 0.930 . S
C68 C65 1.344 . S
C68 C67 1.371 . S
C68 H77 0.931 . S
C69 C65 1.328 . S
C69 C70 1.433 . S
C69 H78 0.931 . S
C70 C66 1.323 . S
C70 C69 1.433 . S
C70 H79 0.933 . S
C71 Dy41 2.738 . S
C71 O51 1.255 . S
C71 O52 1.249 . S
C71 C65 1.516 . S
H72 C58 0.930 . S
H73 C59 0.931 . S
H74 C60 0.931 . S
H75 C61 0.933 . S
H76 C67 0.930 . S
H77 C68 0.931 . S
H78 C69 0.931 . S
H79 C70 0.933 . S
Dy80 O83 2.307 . S
Dy80 O85 2.395 . S
Dy80 O86 2.379 . S
Dy80 O88 2.339 . S
Dy80 O90 2.298 . S
Dy80 O94 2.275 . S
Dy80 C102 2.738 . S
Dy81 O84 2.298 . S
Dy81 O87 2.275 . S
Dy81 O89 2.307 . S
Dy81 O91 2.395 . S
Dy81 O92 2.379 . S
Dy81 O95 2.339 . S
Dy81 C111 2.738 . S
C82 O94 1.254 . S
C82 O95 1.257 . S
O83 Dy80 2.307 . S
O83 C93 1.266 . S
O84 Dy81 2.298 . S
O84 C93 1.236 . S
O85 Dy80 2.395 . S
O85 C102 1.255 . S
O86 Dy80 2.379 . S
O86 C102 1.249 . S
O87 Dy81 2.275 . S
O87 C103 1.254 . S
O88 Dy80 2.339 . S
O88 C103 1.257 . S
O89 Dy81 2.307 . S
O89 C104 1.266 . S
O90 Dy80 2.298 . S
O90 C104 1.236 . S
O91 Dy81 2.395 . S
O91 C111 1.255 . S
O92 Dy81 2.379 . S
O92 C111 1.249 . S
C93 O83 1.266 . S
C93 O84 1.236 . S
O94 Dy80 2.275 . S
O94 C82 1.254 . S
O95 Dy81 2.339 . S
O95 C82 1.257 . S
C96 C99 1.344 . S
C96 C100 1.328 . S
C96 C102 1.516 . S
C97 C98 1.304 . S
C97 C101 1.323 . S
C98 C97 1.304 . S
C98 C99 1.371 . S
C98 H112 0.930 . S
C99 C96 1.344 . S
C99 C98 1.371 . S
C99 H113 0.931 . S
C100 C96 1.328 . S
C100 C101 1.433 . S
C100 H114 0.931 . S
C101 C97 1.323 . S
C101 C100 1.433 . S
C101 H115 0.933 . S
C102 Dy80 2.738 . S
C102 O85 1.255 . S
C102 O86 1.249 . S
C102 C96 1.516 . S
C103 O87 1.254 . S
C103 O88 1.257 . S
C104 O89 1.266 . S
C104 O90 1.236 . S
C105 C108 1.344 . S
C105 C109 1.328 . S
C105 C111 1.516 . S
C106 C107 1.304 . S
C106 C110 1.323 . S
C107 C106 1.304 . S
C107 C108 1.371 . S
C107 H116 0.930 . S
C108 C105 1.344 . S
C108 C107 1.371 . S
C108 H117 0.931 . S
C109 C105 1.328 . S
C109 C110 1.433 . S
C109 H118 0.931 . S
C110 C106 1.323 . S
C110 C109 1.433 . S
C110 H119 0.933 . S
C111 Dy81 2.738 . S
C111 O91 1.255 . S
C111 O92 1.249 . S
C111 C105 1.516 . S
H112 C98 0.930 . S
H113 C99 0.931 . S
H114 C100 0.931 . S
H115 C101 0.933 . S
H116 C107 0.930 . S
H117 C108 0.931 . S
H118 C109 0.931 . S
H119 C110 0.933 . S
Dy120 O123 2.307 . S
Dy120 O125 2.395 . S
Dy120 O126 2.379 . S
Dy120 O128 2.339 . S
Dy120 O130 2.298 . S
Dy120 O134 2.275 . S
Dy120 C142 2.738 . S
Dy121 O124 2.298 . S
Dy121 O127 2.275 . S
Dy121 O129 2.307 . S
Dy121 O131 2.395 . S
Dy121 O132 2.379 . S
Dy121 O135 2.339 . S
Dy121 C151 2.738 . S
C122 O134 1.254 . S
C122 O135 1.257 . S
O123 Dy120 2.307 . S
O123 C133 1.266 . S
O124 Dy121 2.298 . S
O124 C133 1.236 . S
O125 Dy120 2.395 . S
O125 C142 1.255 . S
O126 Dy120 2.379 . S
O126 C142 1.249 . S
O127 Dy121 2.275 . S
O127 C143 1.254 . S
O128 Dy120 2.339 . S
O128 C143 1.257 . S
O129 Dy121 2.307 . S
O129 C144 1.266 . S
O130 Dy120 2.298 . S
O130 C144 1.236 . S
O131 Dy121 2.395 . S
O131 C151 1.255 . S
O132 Dy121 2.379 . S
O132 C151 1.249 . S
C133 O123 1.266 . S
C133 O124 1.236 . S
O134 Dy120 2.275 . S
O134 C122 1.254 . S
O135 Dy121 2.339 . S
O135 C122 1.257 . S
C136 C139 1.344 . S
C136 C140 1.328 . S
C136 C142 1.516 . S
C137 C138 1.304 . S
C137 C141 1.323 . S
C138 C137 1.304 . S
C138 C139 1.371 . S
C138 H152 0.930 . S
C139 C136 1.344 . S
C139 C138 1.371 . S
C139 H153 0.931 . S
C140 C136 1.328 . S
C140 C141 1.433 . S
C140 H154 0.931 . S
C141 C137 1.323 . S
C141 C140 1.433 . S
C141 H155 0.933 . S
C142 Dy120 2.738 . S
C142 O125 1.255 . S
C142 O126 1.249 . S
C142 C136 1.516 . S
C143 O127 1.254 . S
C143 O128 1.257 . S
C144 O129 1.266 . S
C144 O130 1.236 . S
C145 C148 1.344 . S
C145 C149 1.328 . S
C145 C151 1.516 . S
C146 C147 1.304 . S
C146 C150 1.323 . S
C147 C146 1.304 . S
C147 C148 1.371 . S
C147 H156 0.930 . S
C148 C145 1.344 . S
C148 C147 1.371 . S
C148 H157 0.931 . S
C149 C145 1.328 . S
C149 C150 1.433 . S
C149 H158 0.931 . S
C150 C146 1.323 . S
C150 C149 1.433 . S
C150 H159 0.933 . S
C151 Dy121 2.738 . S
C151 O131 1.255 . S
C151 O132 1.249 . S
C151 C145 1.516 . S
H152 C138 0.930 . S
H153 C139 0.931 . S
H154 C140 0.931 . S
H155 C141 0.933 . S
H156 C147 0.930 . S
H157 C148 0.931 . S
H158 C149 0.931 . S
H159 C150 0.933 . S
Dy160 O163 2.307 . S
Dy160 O165 2.395 1_556 S
Dy160 O166 2.379 1_556 S
Dy160 O168 2.339 . S
Dy160 O170 2.298 1_556 S
Dy160 O174 2.275 . S
Dy160 C182 2.738 1_556 S
Dy161 O164 2.298 1_554 S
Dy161 O167 2.275 . S
Dy161 O169 2.307 . S
Dy161 O171 2.395 1_554 S
Dy161 O172 2.379 1_554 S
Dy161 O175 2.339 . S
Dy161 C191 2.738 1_554 S
C162 O174 1.254 1_554 S
C162 O175 1.257 . S
O163 Dy160 2.307 . S
O163 C173 1.266 . S
O164 Dy161 2.298 1_556 S
O164 C173 1.236 . S
O165 Dy160 2.395 1_554 S
O165 C182 1.255 . S
O166 Dy160 2.379 1_554 S
O166 C182 1.249 . S
O167 Dy161 2.275 . S
O167 C183 1.254 1_554 S
O168 Dy160 2.339 . S
O168 C183 1.257 . S
O169 Dy161 2.307 . S
O169 C184 1.266 . S
O170 Dy160 2.298 1_554 S
O170 C184 1.236 . S
O171 Dy161 2.395 1_556 S
O171 C191 1.255 . S
O172 Dy161 2.379 1_556 S
O172 C191 1.249 . S
C173 O163 1.266 . S
C173 O164 1.236 . S
O174 Dy160 2.275 . S
O174 C162 1.254 1_556 S
O175 Dy161 2.339 . S
O175 C162 1.257 . S
C176 C179 1.344 . S
C176 C180 1.328 . S
C176 C182 1.516 . S
C177 C178 1.304 . S
C177 C181 1.323 . S
C178 C177 1.304 . S
C178 C179 1.371 . S
C178 H192 0.930 . S
C179 C176 1.344 . S
C179 C178 1.371 . S
C179 H193 0.931 . S
C180 C176 1.328 . S
C180 C181 1.433 . S
C180 H194 0.931 . S
C181 C177 1.323 . S
C181 C180 1.433 . S
C181 H195 0.933 . S
C182 Dy160 2.738 1_554 S
C182 O165 1.255 . S
C182 O166 1.249 . S
C182 C176 1.516 . S
C183 O167 1.254 1_556 S
C183 O168 1.257 . S
C184 O169 1.266 . S
C184 O170 1.236 . S
C185 C188 1.344 . S
C185 C189 1.328 . S
C185 C191 1.516 . S
C186 C187 1.304 . S
C186 C190 1.323 . S
C187 C186 1.304 . S
C187 C188 1.371 . S
C187 H196 0.930 . S
C188 C185 1.344 . S
C188 C187 1.371 . S
C188 H197 0.931 . S
C189 C185 1.328 . S
C189 C190 1.433 . S
C189 H198 0.931 . S
C190 C186 1.323 . S
C190 C189 1.433 . S
C190 H199 0.933 . S
C191 Dy161 2.738 1_556 S
C191 O171 1.255 . S
C191 O172 1.249 . S
C191 C185 1.516 . S
H192 C178 0.930 . S
H193 C179 0.931 . S
H194 C180 0.931 . S
H195 C181 0.933 . S
H196 C187 0.930 . S
H197 C188 0.931 . S
H198 C189 0.931 . S
H199 C190 0.933 . S
Dy200 O203 2.307 . S
Dy200 O205 2.395 1_556 S
Dy200 O206 2.379 1_556 S
Dy200 O208 2.339 . S
Dy200 O210 2.298 1_556 S
Dy200 O214 2.275 . S
Dy200 C222 2.738 1_556 S
Dy201 O204 2.298 1_554 S
Dy201 O207 2.275 . S
Dy201 O209 2.307 . S
Dy201 O211 2.395 1_554 S
Dy201 O212 2.379 1_554 S
Dy201 O215 2.339 . S
Dy201 C231 2.738 1_554 S
C202 O214 1.254 1_554 S
C202 O215 1.257 . S
O203 Dy200 2.307 . S
O203 C213 1.266 . S
O204 Dy201 2.298 1_556 S
O204 C213 1.236 . S
O205 Dy200 2.395 1_554 S
O205 C222 1.255 . S
O206 Dy200 2.379 1_554 S
O206 C222 1.249 . S
O207 Dy201 2.275 . S
O207 C223 1.254 1_554 S
O208 Dy200 2.339 . S
O208 C223 1.257 . S
O209 Dy201 2.307 . S
O209 C224 1.266 . S
O210 Dy200 2.298 1_554 S
O210 C224 1.236 . S
O211 Dy201 2.395 1_556 S
O211 C231 1.255 . S
O212 Dy201 2.379 1_556 S
O212 C231 1.249 . S
C213 O203 1.266 . S
C213 O204 1.236 . S
O214 Dy200 2.275 . S
O214 C202 1.254 1_556 S
O215 Dy201 2.339 . S
O215 C202 1.257 . S
C216 C219 1.344 . S
C216 C220 1.328 . S
C216 C222 1.516 . S
C217 C218 1.304 . S
C217 C221 1.323 . S
C218 C217 1.304 . S
C218 C219 1.371 . S
C218 H232 0.930 . S
C219 C216 1.344 . S
C219 C218 1.371 . S
C219 H233 0.931 . S
C220 C216 1.328 . S
C220 C221 1.433 . S
C220 H234 0.931 . S
C221 C217 1.323 . S
C221 C220 1.433 . S
C221 H235 0.933 . S
C222 Dy200 2.738 1_554 S
C222 O205 1.255 . S
C222 O206 1.249 . S
C222 C216 1.516 . S
C223 O207 1.254 1_556 S
C223 O208 1.257 . S
C224 O209 1.266 . S
C224 O210 1.236 . S
C225 C228 1.344 . S
C225 C229 1.328 . S
C225 C231 1.516 . S
C226 C227 1.304 . S
C226 C230 1.323 . S
C227 C226 1.304 . S
C227 C228 1.371 . S
C227 H236 0.930 . S
C228 C225 1.344 . S
C228 C227 1.371 . S
C228 H237 0.931 . S
C229 C225 1.328 . S
C229 C230 1.433 . S
C229 H238 0.931 . S
C230 C226 1.323 . S
C230 C229 1.433 . S
C230 H239 0.933 . S
C231 Dy201 2.738 1_556 S
C231 O211 1.255 . S
C231 O212 1.249 . S
C231 C225 1.516 . S
H232 C218 0.930 . S
H233 C219 0.931 . S
H234 C220 0.931 . S
H235 C221 0.933 . S
H236 C227 0.930 . S
H237 C228 0.931 . S
H238 C229 0.931 . S
H239 C230 0.933 . S
Dy240 O243 2.307 . S
Dy240 O245 2.395 1_554 S
Dy240 O246 2.379 1_554 S
Dy240 O248 2.339 . S
Dy240 O250 2.298 1_554 S
Dy240 O254 2.275 . S
Dy240 C262 2.738 1_554 S
Dy241 O244 2.298 1_556 S
Dy241 O247 2.275 . S
Dy241 O249 2.307 . S
Dy241 O251 2.395 1_556 S
Dy241 O252 2.379 1_556 S
Dy241 O255 2.339 . S
Dy241 C271 2.738 1_556 S
C242 O254 1.254 1_556 S
C242 O255 1.257 . S
O243 Dy240 2.307 . S
O243 C253 1.266 . S
O244 Dy241 2.298 1_554 S
O244 C253 1.236 . S
O245 Dy240 2.395 1_556 S
O245 C262 1.255 . S
O246 Dy240 2.379 1_556 S
O246 C262 1.249 . S
O247 Dy241 2.275 . S
O247 C263 1.254 1_556 S
O248 Dy240 2.339 . S
O248 C263 1.257 . S
O249 Dy241 2.307 . S
O249 C264 1.266 . S
O250 Dy240 2.298 1_556 S
O250 C264 1.236 . S
O251 Dy241 2.395 1_554 S
O251 C271 1.255 . S
O252 Dy241 2.379 1_554 S
O252 C271 1.249 . S
C253 O243 1.266 . S
C253 O244 1.236 . S
O254 Dy240 2.275 . S
O254 C242 1.254 1_554 S
O255 Dy241 2.339 . S
O255 C242 1.257 . S
C256 C259 1.344 . S
C256 C260 1.328 . S
C256 C262 1.516 . S
C257 C258 1.304 . S
C257 C261 1.323 . S
C258 C257 1.304 . S
C258 C259 1.371 . S
C258 H272 0.930 . S
C259 C256 1.344 . S
C259 C258 1.371 . S
C259 H273 0.931 . S
C260 C256 1.328 . S
C260 C261 1.433 . S
C260 H274 0.931 . S
C261 C257 1.323 . S
C261 C260 1.433 . S
C261 H275 0.933 . S
C262 Dy240 2.738 1_556 S
C262 O245 1.255 . S
C262 O246 1.249 . S
C262 C256 1.516 . S
C263 O247 1.254 1_554 S
C263 O248 1.257 . S
C264 O249 1.266 . S
C264 O250 1.236 . S
C265 C268 1.344 . S
C265 C269 1.328 . S
C265 C271 1.516 . S
C266 C267 1.304 . S
C266 C270 1.323 . S
C267 C266 1.304 . S
C267 C268 1.371 . S
C267 H276 0.930 . S
C268 C265 1.344 . S
C268 C267 1.371 . S
C268 H277 0.931 . S
C269 C265 1.328 . S
C269 C270 1.433 . S
C269 H278 0.931 . S
C270 C266 1.323 . S
C270 C269 1.433 . S
C270 H279 0.933 . S
C271 Dy241 2.738 1_554 S
C271 O251 1.255 . S
C271 O252 1.249 . S
C271 C265 1.516 . S
H272 C258 0.930 . S
H273 C259 0.931 . S
H274 C260 0.931 . S
H275 C261 0.933 . S
H276 C267 0.930 . S
H277 C268 0.931 . S
H278 C269 0.931 . S
H279 C270 0.933 . S
Dy280 O283 2.307 . S
Dy280 O285 2.395 1_554 S
Dy280 O286 2.379 1_554 S
Dy280 O288 2.339 . S
Dy280 O290 2.298 1_554 S
Dy280 O294 2.275 . S
Dy280 C302 2.738 1_554 S
Dy281 O284 2.298 1_556 S
Dy281 O287 2.275 . S
Dy281 O289 2.307 . S
Dy281 O291 2.395 1_556 S
Dy281 O292 2.379 1_556 S
Dy281 O295 2.339 . S
Dy281 C311 2.738 1_556 S
C282 O294 1.254 1_556 S
C282 O295 1.257 . S
O283 Dy280 2.307 . S
O283 C293 1.266 . S
O284 Dy281 2.298 1_554 S
O284 C293 1.236 . S
O285 Dy280 2.395 1_556 S
O285 C302 1.255 . S
O286 Dy280 2.379 1_556 S
O286 C302 1.249 . S
O287 Dy281 2.275 . S
O287 C303 1.254 1_556 S
O288 Dy280 2.339 . S
O288 C303 1.257 . S
O289 Dy281 2.307 . S
O289 C304 1.266 . S
O290 Dy280 2.298 1_556 S
O290 C304 1.236 . S
O291 Dy281 2.395 1_554 S
O291 C311 1.255 . S
O292 Dy281 2.379 1_554 S
O292 C311 1.249 . S
C293 O283 1.266 . S
C293 O284 1.236 . S
O294 Dy280 2.275 . S
O294 C282 1.254 1_554 S
O295 Dy281 2.339 . S
O295 C282 1.257 . S
C296 C299 1.344 . S
C296 C300 1.328 . S
C296 C302 1.516 . S
C297 C298 1.304 . S
C297 C301 1.323 . S
C298 C297 1.304 . S
C298 C299 1.371 . S
C298 H312 0.930 . S
C299 C296 1.344 . S
C299 C298 1.371 . S
C299 H313 0.931 . S
C300 C296 1.328 . S
C300 C301 1.433 . S
C300 H314 0.931 . S
C301 C297 1.323 . S
C301 C300 1.433 . S
C301 H315 0.933 . S
C302 Dy280 2.738 1_556 S
C302 O285 1.255 . S
C302 O286 1.249 . S
C302 C296 1.516 . S
C303 O287 1.254 1_554 S
C303 O288 1.257 . S
C304 O289 1.266 . S
C304 O290 1.236 . S
C305 C308 1.344 . S
C305 C309 1.328 . S
C305 C311 1.516 . S
C306 C307 1.304 . S
C306 C310 1.323 . S
C307 C306 1.304 . S
C307 C308 1.371 . S
C307 H316 0.930 . S
C308 C305 1.344 . S
C308 C307 1.371 . S
C308 H317 0.931 . S
C309 C305 1.328 . S
C309 C310 1.433 . S
C309 H318 0.931 . S
C310 C306 1.323 . S
C310 C309 1.433 . S
C310 H319 0.933 . S
C311 Dy281 2.738 1_554 S
C311 O291 1.255 . S
C311 O292 1.249 . S
C311 C305 1.516 . S
H312 C298 0.930 . S
H313 C299 0.931 . S
H314 C300 0.931 . S
H315 C301 0.933 . S
H316 C307 0.930 . S
H317 C308 0.931 . S
H318 C309 0.931 . S
H319 C310 0.933 . S
C320 C321 1.349 . S
C320 C322 1.327 . S
C320 H345 0.950 . S
C321 C320 1.349 . S
C321 C337 1.349 . S
C322 C320 1.327 . S
C322 C341 1.429 . S
C322 H346 0.950 . S
C323 C340 1.574 . S
C323 C342 1.368 . S
C323 H347 0.949 . S
H324 C328 0.949 . S
C325 C326 1.349 . S
C325 C327 1.327 . S
C325 H348 0.950 . S
C326 C325 1.349 . S
C326 C338 1.349 . S
C327 C325 1.327 . S
C327 C343 1.429 . S
C327 H349 0.950 . S
C328 H324 0.949 . S
C328 C336 1.574 . S
C328 C344 1.368 . S
H329 C337 0.950 . S
H330 C335 0.950 . S
H331 C336 0.949 . S
H332 C338 0.950 . S
H333 C339 0.950 . S
H334 C340 0.949 . S
C335 H330 0.950 . S
C335 C337 1.327 . S
C335 C341 1.429 . S
C336 C328 1.574 . S
C336 H331 0.949 . S
C336 C342 1.368 . S
C337 C321 1.349 . S
C337 H329 0.950 . S
C337 C335 1.327 . S
C338 C326 1.349 . S
C338 H332 0.950 . S
C338 C339 1.327 . S
C339 H333 0.950 . S
C339 C338 1.327 . S
C339 C343 1.429 . S
C340 C323 1.574 . S
C340 H334 0.949 . S
C340 C344 1.368 . S
C341 C322 1.429 . S
C341 C335 1.429 . S
C341 C342 1.523 . S
C342 C323 1.368 . S
C342 C336 1.368 . S
C342 C341 1.523 . S
C343 C327 1.429 . S
C343 C339 1.429 . S
C343 C344 1.523 . S
C344 C328 1.368 . S
C344 C340 1.368 . S
C344 C343 1.523 . S
H345 C320 0.950 . S
H346 C322 0.950 . S
H347 C323 0.949 . S
H348 C325 0.950 . S
H349 C327 0.950 . S
C350 C351 1.349 . S
C350 C352 1.327 . S
C350 H375 0.950 . S
C351 C350 1.349 . S
C351 C367 1.349 . S
C352 C350 1.327 . S
C352 C371 1.429 . S
C352 H376 0.950 . S
C353 C370 1.574 . S
C353 C372 1.368 . S
C353 H377 0.949 . S
H354 C358 0.949 . S
C355 C356 1.349 . S
C355 C357 1.327 . S
C355 H378 0.950 . S
C356 C355 1.349 . S
C356 C368 1.349 . S
C357 C355 1.327 . S
C357 C373 1.429 . S
C357 H379 0.950 . S
C358 H354 0.949 . S
C358 C366 1.574 . S
C358 C374 1.368 . S
H359 C367 0.950 . S
H360 C365 0.950 . S
H361 C366 0.949 . S
H362 C368 0.950 . S
H363 C369 0.950 . S
H364 C370 0.949 . S
C365 H360 0.950 . S
C365 C367 1.327 . S
C365 C371 1.429 . S
C366 C358 1.574 . S
C366 H361 0.949 . S
C366 C372 1.368 . S
C367 C351 1.349 . S
C367 H359 0.950 . S
C367 C365 1.327 . S
C368 C356 1.349 . S
C368 H362 0.950 . S
C368 C369 1.327 . S
C369 H363 0.950 . S
C369 C368 1.327 . S
C369 C373 1.429 . S
C370 C353 1.574 . S
C370 H364 0.949 . S
C370 C374 1.368 . S
C371 C352 1.429 . S
C371 C365 1.429 . S
C371 C372 1.523 . S
C372 C353 1.368 . S
C372 C366 1.368 . S
C372 C371 1.523 . S
C373 C357 1.429 . S
C373 C369 1.429 . S
C373 C374 1.523 . S
C374 C358 1.368 . S
C374 C370 1.368 . S
C374 C373 1.523 . S
H375 C350 0.950 . S
H376 C352 0.950 . S
H377 C353 0.949 . S
H378 C355 0.950 . S
H379 C357 0.950 . S
C380 C381 1.349 . S
C380 C382 1.327 . S
C380 H405 0.950 . S
C381 C380 1.349 . S
C381 C397 1.349 . S
C382 C380 1.327 . S
C382 C401 1.429 . S
C382 H406 0.950 . S
C383 C400 1.574 . S
C383 C402 1.368 . S
C383 H407 0.949 . S
H384 C388 0.949 . S
C385 C386 1.349 . S
C385 C387 1.327 . S
C385 H408 0.950 . S
C386 C385 1.349 . S
C386 C398 1.349 . S
C387 C385 1.327 . S
C387 C403 1.429 . S
C387 H409 0.950 . S
C388 H384 0.949 . S
C388 C396 1.574 . S
C388 C404 1.368 . S
H389 C397 0.950 . S
H390 C395 0.950 . S
H391 C396 0.949 . S
H392 C398 0.950 . S
H393 C399 0.950 . S
H394 C400 0.949 . S
C395 H390 0.950 . S
C395 C397 1.327 . S
C395 C401 1.429 . S
C396 C388 1.574 . S
C396 H391 0.949 . S
C396 C402 1.368 . S
C397 C381 1.349 . S
C397 H389 0.950 . S
C397 C395 1.327 . S
C398 C386 1.349 . S
C398 H392 0.950 . S
C398 C399 1.327 . S
C399 H393 0.950 . S
C399 C398 1.327 . S
C399 C403 1.429 . S
C400 C383 1.574 . S
C400 H394 0.949 . S
C400 C404 1.368 . S
C401 C382 1.429 . S
C401 C395 1.429 . S
C401 C402 1.523 . S
C402 C383 1.368 . S
C402 C396 1.368 . S
C402 C401 1.523 . S
C403 C387 1.429 . S
C403 C399 1.429 . S
C403 C404 1.523 . S
C404 C388 1.368 . S
C404 C400 1.368 . S
C404 C403 1.523 . S
H405 C380 0.950 . S
H406 C382 0.950 . S
H407 C383 0.949 . S
H408 C385 0.950 . S
H409 C387 0.950 . S
C410 C411 1.349 . S
C410 C412 1.327 . S
C410 H435 0.950 . S
C411 C410 1.349 . S
C411 C427 1.349 . S
C412 C410 1.327 . S
C412 C431 1.429 . S
C412 H436 0.950 . S
C413 C430 1.574 . S
C413 C432 1.368 . S
C413 H437 0.949 . S
H414 C418 0.949 . S
C415 C416 1.349 . S
C415 C417 1.327 . S
C415 H438 0.950 . S
C416 C415 1.349 . S
C416 C428 1.349 . S
C417 C415 1.327 . S
C417 C433 1.429 . S
C417 H439 0.950 . S
C418 H414 0.949 . S
C418 C426 1.574 . S
C418 C434 1.368 . S
H419 C427 0.950 . S
H420 C425 0.950 . S
H421 C426 0.949 . S
H422 C428 0.950 . S
H423 C429 0.950 . S
H424 C430 0.949 . S
C425 H420 0.950 . S
C425 C427 1.327 . S
C425 C431 1.429 . S
C426 C418 1.574 . S
C426 H421 0.949 . S
C426 C432 1.368 . S
C427 C411 1.349 . S
C427 H419 0.950 . S
C427 C425 1.327 . S
C428 C416 1.349 . S
C428 H422 0.950 . S
C428 C429 1.327 . S
C429 H423 0.950 . S
C429 C428 1.327 . S
C429 C433 1.429 . S
C430 C413 1.574 . S
C430 H424 0.949 . S
C430 C434 1.368 . S
C431 C412 1.429 . S
C431 C425 1.429 . S
C431 C432 1.523 . S
C432 C413 1.368 . S
C432 C426 1.368 . S
C432 C431 1.523 . S
C433 C417 1.429 . S
C433 C429 1.429 . S
C433 C434 1.523 . S
C434 C418 1.368 . S
C434 C430 1.368 . S
C434 C433 1.523 . S
H435 C410 0.950 . S
H436 C412 0.950 . S
H437 C413 0.949 . S
H438 C415 0.950 . S
H439 C417 0.950 . S
C440 C441 1.349 . S
C440 C442 1.327 . S
C440 H465 0.950 . S
C441 C440 1.349 . S
C441 C457 1.349 . S
C442 C440 1.327 . S
C442 C461 1.429 . S
C442 H466 0.950 . S
C443 C460 1.574 1_565 S
C443 C462 1.368 . S
C443 H467 0.949 . S
H444 C448 0.949 . S
C445 C446 1.349 . S
C445 C447 1.327 . S
C445 H468 0.950 . S
C446 C445 1.349 . S
C446 C458 1.349 . S
C447 C445 1.327 . S
C447 C463 1.429 . S
C447 H469 0.950 . S
C448 H444 0.949 . S
C448 C456 1.574 1_545 S
C448 C464 1.368 . S
H449 C457 0.950 . S
H450 C455 0.950 . S
H451 C456 0.949 . S
H452 C458 0.950 . S
H453 C459 0.950 . S
H454 C460 0.949 . S
C455 H450 0.950 . S
C455 C457 1.327 . S
C455 C461 1.429 . S
C456 C448 1.574 1_565 S
C456 H451 0.949 . S
C456 C462 1.368 . S
C457 C441 1.349 . S
C457 H449 0.950 . S
C457 C455 1.327 . S
C458 C446 1.349 . S
C458 H452 0.950 . S
C458 C459 1.327 . S
C459 H453 0.950 . S
C459 C458 1.327 . S
C459 C463 1.429 . S
C460 C443 1.574 1_545 S
C460 H454 0.949 . S
C460 C464 1.368 . S
C461 C442 1.429 . S
C461 C455 1.429 . S
C461 C462 1.523 . S
C462 C443 1.368 . S
C462 C456 1.368 . S
C462 C461 1.523 . S
C463 C447 1.429 . S
C463 C459 1.429 . S
C463 C464 1.523 . S
C464 C448 1.368 . S
C464 C460 1.368 . S
C464 C463 1.523 . S
H465 C440 0.950 . S
H466 C442 0.950 . S
H467 C443 0.949 . S
H468 C445 0.950 . S
H469 C447 0.950 . S
C470 C471 1.349 . S
C470 C472 1.327 . S
C470 H495 0.950 . S
C471 C470 1.349 . S
C471 C487 1.349 . S
C472 C470 1.327 . S
C472 C491 1.429 . S
C472 H496 0.950 . S
C473 C490 1.574 . S
C473 C492 1.368 . S
C473 H497 0.949 . S
H474 C478 0.949 . S
C475 C476 1.349 . S
C475 C477 1.327 . S
C475 H498 0.950 . S
C476 C475 1.349 . S
C476 C488 1.349 . S
C477 C475 1.327 . S
C477 C493 1.429 . S
C477 H499 0.950 . S
C478 H474 0.949 . S
C478 C486 1.574 . S
C478 C494 1.368 . S
H479 C487 0.950 . S
H480 C485 0.950 . S
H481 C486 0.949 . S
H482 C488 0.950 . S
H483 C489 0.950 . S
H484 C490 0.949 . S
C485 H480 0.950 . S
C485 C487 1.327 . S
C485 C491 1.429 . S
C486 C478 1.574 . S
C486 H481 0.949 . S
C486 C492 1.368 . S
C487 C471 1.349 . S
C487 H479 0.950 . S
C487 C485 1.327 . S
C488 C476 1.349 . S
C488 H482 0.950 . S
C488 C489 1.327 . S
C489 H483 0.950 . S
C489 C488 1.327 . S
C489 C493 1.429 . S
C490 C473 1.574 . S
C490 H484 0.949 . S
C490 C494 1.368 . S
C491 C472 1.429 . S
C491 C485 1.429 . S
C491 C492 1.523 . S
C492 C473 1.368 . S
C492 C486 1.368 . S
C492 C491 1.523 . S
C493 C477 1.429 . S
C493 C489 1.429 . S
C493 C494 1.523 . S
C494 C478 1.368 . S
C494 C490 1.368 . S
C494 C493 1.523 . S
H495 C470 0.950 . S
H496 C472 0.950 . S
H497 C473 0.949 . S
H498 C475 0.950 . S
H499 C477 0.950 . S
C500 C501 1.349 . S
C500 C502 1.327 . S
C500 H525 0.950 . S
C501 C500 1.349 . S
C501 C517 1.349 . S
C502 C500 1.327 . S
C502 C521 1.429 . S
C502 H526 0.950 . S
C503 C520 1.574 1_565 S
C503 C522 1.368 . S
C503 H527 0.949 . S
H504 C508 0.949 . S
C505 C506 1.349 . S
C505 C507 1.327 . S
C505 H528 0.950 . S
C506 C505 1.349 . S
C506 C518 1.349 . S
C507 C505 1.327 . S
C507 C523 1.429 . S
C507 H529 0.950 . S
C508 H504 0.949 . S
C508 C516 1.574 1_545 S
C508 C524 1.368 . S
H509 C517 0.950 . S
H510 C515 0.950 . S
H511 C516 0.949 . S
H512 C518 0.950 . S
H513 C519 0.950 . S
H514 C520 0.949 . S
C515 H510 0.950 . S
C515 C517 1.327 . S
C515 C521 1.429 . S
C516 C508 1.574 1_565 S
C516 H511 0.949 . S
C516 C522 1.368 . S
C517 C501 1.349 . S
C517 H509 0.950 . S
C517 C515 1.327 . S
C518 C506 1.349 . S
C518 H512 0.950 . S
C518 C519 1.327 . S
C519 H513 0.950 . S
C519 C518 1.327 . S
C519 C523 1.429 . S
C520 C503 1.574 1_545 S
C520 H514 0.949 . S
C520 C524 1.368 . S
C521 C502 1.429 . S
C521 C515 1.429 . S
C521 C522 1.523 . S
C522 C503 1.368 . S
C522 C516 1.368 . S
C522 C521 1.523 . S
C523 C507 1.429 . S
C523 C519 1.429 . S
C523 C524 1.523 . S
C524 C508 1.368 . S
C524 C520 1.368 . S
C524 C523 1.523 . S
H525 C500 0.950 . S
H526 C502 0.950 . S
H527 C503 0.949 . S
H528 C505 0.950 . S
H529 C507 0.950 . S
C530 C531 1.349 . S
C530 C532 1.327 . S
C530 H555 0.950 . S
C531 C530 1.349 . S
C531 C547 1.349 . S
C532 C530 1.327 . S
C532 C551 1.429 . S
C532 H556 0.950 . S
C533 C550 1.574 . S
C533 C552 1.368 . S
C533 H557 0.949 . S
H534 C538 0.949 . S
C535 C536 1.349 . S
C535 C537 1.327 . S
C535 H558 0.950 . S
C536 C535 1.349 . S
C536 C548 1.349 . S
C537 C535 1.327 . S
C537 C553 1.429 . S
C537 H559 0.950 . S
C538 H534 0.949 . S
C538 C546 1.574 . S
C538 C554 1.368 . S
H539 C547 0.950 . S
H540 C545 0.950 . S
H541 C546 0.949 . S
H542 C548 0.950 . S
H543 C549 0.950 . S
H544 C550 0.949 . S
C545 H540 0.950 . S
C545 C547 1.327 . S
C545 C551 1.429 . S
C546 C538 1.574 . S
C546 H541 0.949 . S
C546 C552 1.368 . S
C547 C531 1.349 . S
C547 H539 0.950 . S
C547 C545 1.327 . S
C548 C536 1.349 . S
C548 H542 0.950 . S
C548 C549 1.327 . S
C549 H543 0.950 . S
C549 C548 1.327 . S
C549 C553 1.429 . S
C550 C533 1.574 . S
C550 H544 0.949 . S
C550 C554 1.368 . S
C551 C532 1.429 . S
C551 C545 1.429 . S
C551 C552 1.523 . S
C552 C533 1.368 . S
C552 C546 1.368 . S
C552 C551 1.523 . S
C553 C537 1.429 . S
C553 C549 1.429 . S
C553 C554 1.523 . S
C554 C538 1.368 . S
C554 C550 1.368 . S
C554 C553 1.523 . S
H555 C530 0.950 . S
H556 C532 0.950 . S
H557 C533 0.949 . S
H558 C535 0.950 . S
H559 C537 0.950 . S
C560 C561 1.349 1_556 S
C560 C562 1.327 . S
C560 H585 0.950 . S
C561 C560 1.349 1_554 S
C561 C577 1.349 . S
C562 C560 1.327 . S
C562 C581 1.429 1_556 S
C562 H586 0.950 . S
C563 C580 1.574 . S
C563 C582 1.368 . S
C563 H587 0.949 . S
H564 C568 0.949 . S
C565 C566 1.349 1_554 S
C565 C567 1.327 . S
C565 H588 0.950 . S
C566 C565 1.349 1_556 S
C566 C578 1.349 . S
C567 C565 1.327 . S
C567 C583 1.429 1_554 S
C567 H589 0.950 . S
C568 H564 0.949 . S
C568 C576 1.574 . S
C568 C584 1.368 . S
H569 C577 0.950 . S
H570 C575 0.950 . S
H571 C576 0.949 . S
H572 C578 0.950 . S
H573 C579 0.950 . S
H574 C580 0.949 . S
C575 H570 0.950 . S
C575 C577 1.327 . S
C575 C581 1.429 . S
C576 C568 1.574 . S
C576 H571 0.949 . S
C576 C582 1.368 1_556 S
C577 C561 1.349 . S
C577 H569 0.950 . S
C577 C575 1.327 . S
C578 C566 1.349 . S
C578 H572 0.950 . S
C578 C579 1.327 . S
C579 H573 0.950 . S
C579 C578 1.327 . S
C579 C583 1.429 . S
C580 C563 1.574 . S
C580 H574 0.949 . S
C580 C584 1.368 1_554 S
C581 C562 1.429 1_554 S
C581 C575 1.429 . S
C581 C582 1.523 . S
C582 C563 1.368 . S
C582 C576 1.368 1_554 S
C582 C581 1.523 . S
C583 C567 1.429 1_556 S
C583 C579 1.429 . S
C583 C584 1.523 . S
C584 C568 1.368 . S
C584 C580 1.368 1_556 S
C584 C583 1.523 . S
H585 C560 0.950 . S
H586 C562 0.950 . S
H587 C563 0.949 . S
H588 C565 0.950 . S
H589 C567 0.950 . S
C590 C591 1.349 1_556 S
C590 C592 1.327 . S
C590 H615 0.950 . S
C591 C590 1.349 1_554 S
C591 C607 1.349 . S
C592 C590 1.327 . S
C592 C611 1.429 1_556 S
C592 H616 0.950 . S
C593 C610 1.574 1_565 S
C593 C612 1.368 . S
C593 H617 0.949 . S
H594 C598 0.949 . S
C595 C596 1.349 1_554 S
C595 C597 1.327 . S
C595 H618 0.950 . S
C596 C595 1.349 1_556 S
C596 C608 1.349 . S
C597 C595 1.327 . S
C597 C613 1.429 1_554 S
C597 H619 0.950 . S
C598 H594 0.949 . S
C598 C606 1.574 1_545 S
C598 C614 1.368 . S
H599 C607 0.950 . S
H600 C605 0.950 . S
H601 C606 0.949 . S
H602 C608 0.950 . S
H603 C609 0.950 . S
H604 C610 0.949 . S
C605 H600 0.950 . S
C605 C607 1.327 . S
C605 C611 1.429 . S
C606 C598 1.574 1_565 S
C606 H601 0.949 . S
C606 C612 1.368 1_556 S
C607 C591 1.349 . S
C607 H599 0.950 . S
C607 C605 1.327 . S
C608 C596 1.349 . S
C608 H602 0.950 . S
C608 C609 1.327 . S
C609 H603 0.950 . S
C609 C608 1.327 . S
C609 C613 1.429 . S
C610 C593 1.574 1_545 S
C610 H604 0.949 . S
C610 C614 1.368 1_554 S
C611 C592 1.429 1_554 S
C611 C605 1.429 . S
C611 C612 1.523 . S
C612 C593 1.368 . S
C612 C606 1.368 1_554 S
C612 C611 1.523 . S
C613 C597 1.429 1_556 S
C613 C609 1.429 . S
C613 C614 1.523 . S
C614 C598 1.368 . S
C614 C610 1.368 1_556 S
C614 C613 1.523 . S
H615 C590 0.950 . S
H616 C592 0.950 . S
H617 C593 0.949 . S
H618 C595 0.950 . S
H619 C597 0.950 . S
C620 C621 1.349 1_556 S
C620 C622 1.327 . S
C620 H645 0.950 . S
C621 C620 1.349 1_554 S
C621 C637 1.349 . S
C622 C620 1.327 . S
C622 C641 1.429 1_556 S
C622 H646 0.950 . S
C623 C640 1.574 . S
C623 C642 1.368 . S
C623 H647 0.949 . S
H624 C628 0.949 . S
C625 C626 1.349 1_554 S
C625 C627 1.327 . S
C625 H648 0.950 . S
C626 C625 1.349 1_556 S
C626 C638 1.349 . S
C627 C625 1.327 . S
C627 C643 1.429 1_554 S
C627 H649 0.950 . S
C628 H624 0.949 . S
C628 C636 1.574 . S
C628 C644 1.368 . S
H629 C637 0.950 . S
H630 C635 0.950 . S
H631 C636 0.949 . S
H632 C638 0.950 . S
H633 C639 0.950 . S
H634 C640 0.949 . S
C635 H630 0.950 . S
C635 C637 1.327 . S
C635 C641 1.429 . S
C636 C628 1.574 . S
C636 H631 0.949 . S
C636 C642 1.368 1_556 S
C637 C621 1.349 . S
C637 H629 0.950 . S
C637 C635 1.327 . S
C638 C626 1.349 . S
C638 H632 0.950 . S
C638 C639 1.327 . S
C639 H633 0.950 . S
C639 C638 1.327 . S
C639 C643 1.429 . S
C640 C623 1.574 . S
C640 H634 0.949 . S
C640 C644 1.368 1_554 S
C641 C622 1.429 1_554 S
C641 C635 1.429 . S
C641 C642 1.523 . S
C642 C623 1.368 . S
C642 C636 1.368 1_554 S
C642 C641 1.523 . S
C643 C627 1.429 1_556 S
C643 C639 1.429 . S
C643 C644 1.523 . S
C644 C628 1.368 . S
C644 C640 1.368 1_556 S
C644 C643 1.523 . S
H645 C620 0.950 . S
H646 C622 0.950 . S
H647 C623 0.949 . S
H648 C625 0.950 . S
H649 C627 0.950 . S
C650 C651 1.349 1_556 S
C650 C652 1.327 . S
C650 H675 0.950 . S
C651 C650 1.349 1_554 S
C651 C667 1.349 . S
C652 C650 1.327 . S
C652 C671 1.429 1_556 S
C652 H676 0.950 . S
C653 C670 1.574 1_545 S
C653 C672 1.368 . S
C653 H677 0.949 . S
H654 C658 0.949 . S
C655 C656 1.349 1_554 S
C655 C657 1.327 . S
C655 H678 0.950 . S
C656 C655 1.349 1_556 S
C656 C668 1.349 . S
C657 C655 1.327 . S
C657 C673 1.429 1_554 S
C657 H679 0.950 . S
C658 H654 0.949 . S
C658 C666 1.574 1_565 S
C658 C674 1.368 . S
H659 C667 0.950 . S
H660 C665 0.950 . S
H661 C666 0.949 . S
H662 C668 0.950 . S
H663 C669 0.950 . S
H664 C670 0.949 . S
C665 H660 0.950 . S
C665 C667 1.327 . S
C665 C671 1.429 . S
C666 C658 1.574 1_545 S
C666 H661 0.949 . S
C666 C672 1.368 1_556 S
C667 C651 1.349 . S
C667 H659 0.950 . S
C667 C665 1.327 . S
C668 C656 1.349 . S
C668 H662 0.950 . S
C668 C669 1.327 . S
C669 H663 0.950 . S
C669 C668 1.327 . S
C669 C673 1.429 . S
C670 C653 1.574 1_565 S
C670 H664 0.949 . S
C670 C674 1.368 1_554 S
C671 C652 1.429 1_554 S
C671 C665 1.429 . S
C671 C672 1.523 . S
C672 C653 1.368 . S
C672 C666 1.368 1_554 S
C672 C671 1.523 . S
C673 C657 1.429 1_556 S
C673 C669 1.429 . S
C673 C674 1.523 . S
C674 C658 1.368 . S
C674 C670 1.368 1_556 S
C674 C673 1.523 . S
H675 C650 0.950 . S
H676 C652 0.950 . S
H677 C653 0.949 . S
H678 C655 0.950 . S
H679 C657 0.950 . S
C680 C681 1.349 . S
C680 C682 1.327 . S
C680 H705 0.950 . S
C681 C680 1.349 . S
C681 C697 1.349 . S
C682 C680 1.327 . S
C682 C701 1.429 . S
C682 H706 0.950 . S
C683 C700 1.574 1_554 S
C683 C702 1.368 . S
C683 H707 0.949 . S
H684 C688 0.949 . S
C685 C686 1.349 . S
C685 C687 1.327 . S
C685 H708 0.950 . S
C686 C685 1.349 . S
C686 C698 1.349 . S
C687 C685 1.327 . S
C687 C703 1.429 . S
C687 H709 0.950 . S
C688 H684 0.949 . S
C688 C696 1.570 1_556 S
C688 C704 1.368 . S
H689 C697 0.950 . S
H690 C695 0.950 . S
H691 C696 0.951 . S
H692 C698 0.950 . S
H693 C699 0.950 . S
H694 C700 0.949 . S
C695 H690 0.950 . S
C695 C697 1.327 . S
C695 C701 1.429 . S
C696 C688 1.570 1_554 S
C696 H691 0.951 . S
C696 C702 1.370 . S
C697 C681 1.349 . S
C697 H689 0.950 . S
C697 C695 1.327 . S
C698 C686 1.349 . S
C698 H692 0.950 . S
C698 C699 1.327 . S
C699 H693 0.950 . S
C699 C698 1.327 . S
C699 C703 1.429 . S
C700 C683 1.574 1_556 S
C700 H694 0.949 . S
C700 C704 1.368 . S
C701 C682 1.429 . S
C701 C695 1.429 . S
C701 C702 1.523 . S
C702 C683 1.368 . S
C702 C696 1.370 . S
C702 C701 1.523 . S
C703 C687 1.429 . S
C703 C699 1.429 . S
C703 C704 1.523 . S
C704 C688 1.368 . S
C704 C700 1.368 . S
C704 C703 1.523 . S
H705 C680 0.950 . S
H706 C682 0.950 . S
H707 C683 0.949 . S
H708 C685 0.950 . S
H709 C687 0.950 . S
C710 C711 1.349 . S
C710 C712 1.327 . S
C710 H735 0.950 . S
C711 C710 1.349 . S
C711 C727 1.349 . S
C712 C710 1.327 . S
C712 C731 1.429 . S
C712 H736 0.950 . S
C713 C730 1.574 1_554 S
C713 C732 1.368 . S
C713 H737 0.949 . S
H714 C718 0.949 . S
C715 C716 1.349 . S
C715 C717 1.327 . S
C715 H738 0.950 . S
C716 C715 1.349 . S
C716 C728 1.349 . S
C717 C715 1.327 . S
C717 C733 1.429 . S
C717 H739 0.950 . S
C718 H714 0.949 . S
C718 C726 1.574 . S
C718 C734 1.368 . S
H719 C727 0.950 . S
H720 C725 0.950 . S
H721 C726 0.949 1_554 S
H722 C728 0.950 . S
H723 C729 0.950 . S
H724 C730 0.949 . S
C725 H720 0.950 . S
C725 C727 1.327 . S
C725 C731 1.429 . S
C726 C718 1.574 . S
C726 H721 0.949 1_556 S
C726 C732 1.368 1_556 S
C727 C711 1.349 . S
C727 H719 0.950 . S
C727 C725 1.327 . S
C728 C716 1.349 . S
C728 H722 0.950 . S
C728 C729 1.327 . S
C729 H723 0.950 . S
C729 C728 1.327 . S
C729 C733 1.429 . S
C730 C713 1.574 1_556 S
C730 H724 0.949 . S
C730 C734 1.368 . S
C731 C712 1.429 . S
C731 C725 1.429 . S
C731 C732 1.523 . S
C732 C713 1.368 . S
C732 C726 1.368 1_554 S
C732 C731 1.523 . S
C733 C717 1.429 . S
C733 C729 1.429 . S
C733 C734 1.523 . S
C734 C718 1.368 . S
C734 C730 1.368 . S
C734 C733 1.523 . S
H735 C710 0.950 . S
H736 C712 0.950 . S
H737 C713 0.949 . S
H738 C715 0.950 . S
H739 C717 0.950 . S
C740 C741 1.349 . S
C740 C742 1.327 . S
C740 H765 0.950 . S
C741 C740 1.349 . S
C741 C757 1.349 . S
C742 C740 1.327 . S
C742 C761 1.429 . S
C742 H766 0.950 . S
C743 C760 1.574 . S
C743 C762 1.368 . S
C743 H767 0.949 . S
H744 C748 0.949 . S
C745 C746 1.349 . S
C745 C747 1.327 . S
C745 H768 0.950 . S
C746 C745 1.349 . S
C746 C758 1.349 . S
C747 C745 1.327 . S
C747 C763 1.429 . S
C747 H769 0.950 . S
C748 H744 0.949 . S
C748 C756 1.574 1_556 S
C748 C764 1.368 . S
H749 C757 0.950 . S
H750 C755 0.950 . S
H751 C756 0.949 . S
H752 C758 0.950 . S
H753 C759 0.950 . S
H754 C760 0.949 1_556 S
C755 H750 0.950 . S
C755 C757 1.327 . S
C755 C761 1.429 . S
C756 C748 1.574 1_554 S
C756 H751 0.949 . S
C756 C762 1.368 . S
C757 C741 1.349 . S
C757 H749 0.950 . S
C757 C755 1.327 . S
C758 C746 1.349 . S
C758 H752 0.950 . S
C758 C759 1.327 . S
C759 H753 0.950 . S
C759 C758 1.327 . S
C759 C763 1.429 . S
C760 C743 1.574 . S
C760 H754 0.949 1_554 S
C760 C764 1.368 1_554 S
C761 C742 1.429 . S
C761 C755 1.429 . S
C761 C762 1.523 . S
C762 C743 1.368 . S
C762 C756 1.368 . S
C762 C761 1.523 . S
C763 C747 1.429 . S
C763 C759 1.429 . S
C763 C764 1.523 . S
C764 C748 1.368 . S
C764 C760 1.368 1_556 S
C764 C763 1.523 . S
H765 C740 0.950 . S
H766 C742 0.950 . S
H767 C743 0.949 . S
H768 C745 0.950 . S
H769 C747 0.950 . S
C770 C771 1.349 . S
C770 C772 1.327 . S
C770 H795 0.950 . S
C771 C770 1.349 . S
C771 C787 1.349 . S
C772 C770 1.327 . S
C772 C791 1.429 . S
C772 H796 0.950 . S
C773 C790 1.567 1_556 S
C773 C792 1.371 . S
C773 H797 0.952 . S
H774 C778 0.949 . S
C775 C776 1.349 . S
C775 C777 1.327 . S
C775 H798 0.950 . S
C776 C775 1.349 . S
C776 C788 1.349 . S
C777 C775 1.327 . S
C777 C793 1.429 . S
C777 H799 0.950 . S
C778 H774 0.949 . S
C778 C786 1.574 1_554 S
C778 C794 1.368 . S
H779 C787 0.950 . S
H780 C785 0.950 . S
H781 C786 0.949 . S
H782 C788 0.950 . S
H783 C789 0.950 . S
H784 C790 0.949 . S
C785 H780 0.950 . S
C785 C787 1.327 . S
C785 C791 1.429 . S
C786 C778 1.574 1_556 S
C786 H781 0.949 . S
C786 C792 1.368 . S
C787 C771 1.349 . S
C787 H779 0.950 . S
C787 C785 1.327 . S
C788 C776 1.349 . S
C788 H782 0.950 . S
C788 C789 1.327 . S
C789 H783 0.950 . S
C789 C788 1.327 . S
C789 C793 1.429 . S
C790 C773 1.567 1_554 S
C790 H784 0.949 . S
C790 C794 1.368 . S
C791 C772 1.429 . S
C791 C785 1.429 . S
C791 C792 1.523 . S
C792 C773 1.371 . S
C792 C786 1.368 . S
C792 C791 1.523 . S
C793 C777 1.429 . S
C793 C789 1.429 . S
C793 C794 1.523 . S
C794 C778 1.368 . S
C794 C790 1.368 . S
C794 C793 1.523 . S
H795 C770 0.950 . S
H796 C772 0.950 . S
H797 C773 0.952 . S
H798 C775 0.950 . S
H799 C777 0.950 . S
C800 C801 1.349 . S
C800 C802 1.327 . S
C800 H825 0.950 . S
C801 C800 1.349 . S
C801 C817 1.349 . S
C802 C800 1.327 . S
C802 C821 1.429 . S
C802 H826 0.950 . S
C803 C820 1.574 . S
C803 C822 1.368 . S
C803 H827 0.949 . S
H804 C808 0.949 . S
C805 C806 1.349 . S
C805 C807 1.327 . S
C805 H828 0.950 . S
C806 C805 1.349 . S
C806 C818 1.349 . S
C807 C805 1.327 . S
C807 C823 1.429 . S
C807 H829 0.950 . S
C808 H804 0.949 . S
C808 C816 1.574 . S
C808 C824 1.368 . S
H809 C817 0.950 . S
H810 C815 0.950 . S
H811 C816 0.949 . S
H812 C818 0.950 . S
H813 C819 0.950 . S
H814 C820 0.949 . S
C815 H810 0.950 . S
C815 C817 1.327 . S
C815 C821 1.429 . S
C816 C808 1.574 . S
C816 H811 0.949 . S
C816 C822 1.368 . S
C817 C801 1.349 . S
C817 H809 0.950 . S
C817 C815 1.327 . S
C818 C806 1.349 . S
C818 H812 0.950 . S
C818 C819 1.327 . S
C819 H813 0.950 . S
C819 C818 1.327 . S
C819 C823 1.429 . S
C820 C803 1.574 . S
C820 H814 0.949 . S
C820 C824 1.368 . S
C821 C802 1.429 . S
C821 C815 1.429 . S
C821 C822 1.523 . S
C822 C803 1.368 . S
C822 C816 1.368 . S
C822 C821 1.523 . S
C823 C807 1.429 . S
C823 C819 1.429 . S
C823 C824 1.523 . S
C824 C808 1.368 . S
C824 C820 1.368 . S
C824 C823 1.523 . S
H825 C800 0.950 . S
H826 C802 0.950 . S
H827 C803 0.949 . S
H828 C805 0.950 . S
H829 C807 0.950 . S
C830 C831 1.349 . S
C830 C832 1.327 . S
C830 H855 0.950 . S
C831 C830 1.349 . S
C831 C847 1.349 . S
C832 C830 1.327 . S
C832 C851 1.429 . S
C832 H856 0.950 . S
C833 C850 1.574 . S
C833 C852 1.368 . S
C833 H857 0.949 . S
H834 C838 0.949 . S
C835 C836 1.349 . S
C835 C837 1.327 . S
C835 H858 0.950 . S
C836 C835 1.349 . S
C836 C848 1.349 . S
C837 C835 1.327 . S
C837 C853 1.429 . S
C837 H859 0.950 . S
C838 H834 0.949 . S
C838 C846 1.574 . S
C838 C854 1.368 . S
H839 C847 0.950 . S
H840 C845 0.950 . S
H841 C846 0.949 . S
H842 C848 0.950 . S
H843 C849 0.950 . S
H844 C850 0.949 . S
C845 H840 0.950 . S
C845 C847 1.327 . S
C845 C851 1.429 . S
C846 C838 1.574 . S
C846 H841 0.949 . S
C846 C852 1.368 . S
C847 C831 1.349 . S
C847 H839 0.950 . S
C847 C845 1.327 . S
C848 C836 1.349 . S
C848 H842 0.950 . S
C848 C849 1.327 . S
C849 H843 0.950 . S
C849 C848 1.327 . S
C849 C853 1.429 . S
C850 C833 1.574 . S
C850 H844 0.949 . S
C850 C854 1.368 . S
C851 C832 1.429 . S
C851 C845 1.429 . S
C851 C852 1.523 . S
C852 C833 1.368 . S
C852 C846 1.368 . S
C852 C851 1.523 . S
C853 C837 1.429 . S
C853 C849 1.429 . S
C853 C854 1.523 . S
C854 C838 1.368 . S
C854 C850 1.368 . S
C854 C853 1.523 . S
H855 C830 0.950 . S
H856 C832 0.950 . S
H857 C833 0.949 . S
H858 C835 0.950 . S
H859 C837 0.950 . S
C860 C861 1.349 . S
C860 C862 1.327 . S
C860 H885 0.950 . S
C861 C860 1.349 . S
C861 C877 1.349 . S
C862 C860 1.327 . S
C862 C881 1.429 . S
C862 H886 0.950 . S
C863 C880 1.574 . S
C863 C882 1.368 . S
C863 H887 0.949 . S
H864 C868 0.949 . S
C865 C866 1.349 . S
C865 C867 1.327 . S
C865 H888 0.950 . S
C866 C865 1.349 . S
C866 C878 1.349 . S
C867 C865 1.327 . S
C867 C883 1.429 . S
C867 H889 0.950 . S
C868 H864 0.949 . S
C868 C876 1.574 . S
C868 C884 1.368 . S
H869 C877 0.950 . S
H870 C875 0.950 . S
H871 C876 0.949 . S
H872 C878 0.950 . S
H873 C879 0.950 . S
H874 C880 0.949 . S
C875 H870 0.950 . S
C875 C877 1.327 . S
C875 C881 1.429 . S
C876 C868 1.574 . S
C876 H871 0.949 . S
C876 C882 1.368 . S
C877 C861 1.349 . S
C877 H869 0.950 . S
C877 C875 1.327 . S
C878 C866 1.349 . S
C878 H872 0.950 . S
C878 C879 1.327 . S
C879 H873 0.950 . S
C879 C878 1.327 . S
C879 C883 1.429 . S
C880 C863 1.574 . S
C880 H874 0.949 . S
C880 C884 1.368 . S
C881 C862 1.429 . S
C881 C875 1.429 . S
C881 C882 1.523 . S
C882 C863 1.368 . S
C882 C876 1.368 . S
C882 C881 1.523 . S
C883 C867 1.429 . S
C883 C879 1.429 . S
C883 C884 1.523 . S
C884 C868 1.368 . S
C884 C880 1.368 . S
C884 C883 1.523 . S
H885 C860 0.950 . S
H886 C862 0.950 . S
H887 C863 0.949 . S
H888 C865 0.950 . S
H889 C867 0.950 . S
C890 C891 1.349 . S
C890 C892 1.327 . S
C890 H915 0.950 . S
C891 C890 1.349 . S
C891 C907 1.349 . S
C892 C890 1.327 . S
C892 C911 1.429 . S
C892 H916 0.950 . S
C893 C910 1.574 . S
C893 C912 1.368 . S
C893 H917 0.949 . S
H894 C898 0.949 . S
C895 C896 1.349 . S
C895 C897 1.327 . S
C895 H918 0.950 . S
C896 C895 1.349 . S
C896 C908 1.349 . S
C897 C895 1.327 . S
C897 C913 1.429 . S
C897 H919 0.950 . S
C898 H894 0.949 . S
C898 C906 1.574 . S
C898 C914 1.368 . S
H899 C907 0.950 . S
H900 C905 0.950 . S
H901 C906 0.949 . S
H902 C908 0.950 . S
H903 C909 0.950 . S
H904 C910 0.949 . S
C905 H900 0.950 . S
C905 C907 1.327 . S
C905 C911 1.429 . S
C906 C898 1.574 . S
C906 H901 0.949 . S
C906 C912 1.368 . S
C907 C891 1.349 . S
C907 H899 0.950 . S
C907 C905 1.327 . S
C908 C896 1.349 . S
C908 H902 0.950 . S
C908 C909 1.327 . S
C909 H903 0.950 . S
C909 C908 1.327 . S
C909 C913 1.429 . S
C910 C893 1.574 . S
C910 H904 0.949 . S
C910 C914 1.368 . S
C911 C892 1.429 . S
C911 C905 1.429 . S
C911 C912 1.523 . S
C912 C893 1.368 . S
C912 C906 1.368 . S
C912 C911 1.523 . S
C913 C897 1.429 . S
C913 C909 1.429 . S
C913 C914 1.523 . S
C914 C898 1.368 . S
C914 C910 1.368 . S
C914 C913 1.523 . S
H915 C890 0.950 . S
H916 C892 0.950 . S
H917 C893 0.949 . S
H918 C895 0.950 . S
H919 C897 0.950 . S
C920 C921 1.349 . S
C920 C922 1.327 . S
C920 H945 0.950 . S
C921 C920 1.349 . S
C921 C937 1.349 . S
C922 C920 1.327 . S
C922 C941 1.429 . S
C922 H946 0.950 . S
C923 C940 1.574 1_455 S
C923 C942 1.368 . S
C923 H947 0.949 . S
H924 C928 0.949 . S
C925 C926 1.349 . S
C925 C927 1.327 . S
C925 H948 0.950 . S
C926 C925 1.349 . S
C926 C938 1.349 . S
C927 C925 1.327 . S
C927 C943 1.429 . S
C927 H949 0.950 . S
C928 H924 0.949 . S
C928 C936 1.574 1_655 S
C928 C944 1.368 . S
H929 C937 0.950 . S
H930 C935 0.950 . S
H931 C936 0.949 . S
H932 C938 0.950 . S
H933 C939 0.950 . S
H934 C940 0.949 . S
C935 H930 0.950 . S
C935 C937 1.327 . S
C935 C941 1.429 . S
C936 C928 1.574 1_455 S
C936 H931 0.949 . S
C936 C942 1.368 . S
C937 C921 1.349 . S
C937 H929 0.950 . S
C937 C935 1.327 . S
C938 C926 1.349 . S
C938 H932 0.950 . S
C938 C939 1.327 . S
C939 H933 0.950 . S
C939 C938 1.327 . S
C939 C943 1.429 . S
C940 C923 1.574 1_655 S
C940 H934 0.949 . S
C940 C944 1.368 . S
C941 C922 1.429 . S
C941 C935 1.429 . S
C941 C942 1.523 . S
C942 C923 1.368 . S
C942 C936 1.368 . S
C942 C941 1.523 . S
C943 C927 1.429 . S
C943 C939 1.429 . S
C943 C944 1.523 . S
C944 C928 1.368 . S
C944 C940 1.368 . S
C944 C943 1.523 . S
H945 C920 0.950 . S
H946 C922 0.950 . S
H947 C923 0.949 . S
H948 C925 0.950 . S
H949 C927 0.950 . S
C950 C951 1.349 . S
C950 C952 1.327 . S
C950 H975 0.950 . S
C951 C950 1.349 . S
C951 C967 1.349 . S
C952 C950 1.327 . S
C952 C971 1.429 . S
C952 H976 0.950 . S
C953 C970 1.574 1_655 S
C953 C972 1.368 . S
C953 H977 0.949 . S
H954 C958 0.949 . S
C955 C956 1.349 . S
C955 C957 1.327 . S
C955 H978 0.950 . S
C956 C955 1.349 . S
C956 C968 1.349 . S
C957 C955 1.327 . S
C957 C973 1.429 . S
C957 H979 0.950 . S
C958 H954 0.949 . S
C958 C966 1.574 1_455 S
C958 C974 1.368 . S
H959 C967 0.950 . S
H960 C965 0.950 . S
H961 C966 0.949 . S
H962 C968 0.950 . S
H963 C969 0.950 . S
H964 C970 0.949 . S
C965 H960 0.950 . S
C965 C967 1.327 . S
C965 C971 1.429 . S
C966 C958 1.574 1_655 S
C966 H961 0.949 . S
C966 C972 1.368 . S
C967 C951 1.349 . S
C967 H959 0.950 . S
C967 C965 1.327 . S
C968 C956 1.349 . S
C968 H962 0.950 . S
C968 C969 1.327 . S
C969 H963 0.950 . S
C969 C968 1.327 . S
C969 C973 1.429 . S
C970 C953 1.574 1_455 S
C970 H964 0.949 . S
C970 C974 1.368 . S
C971 C952 1.429 . S
C971 C965 1.429 . S
C971 C972 1.523 . S
C972 C953 1.368 . S
C972 C966 1.368 . S
C972 C971 1.523 . S
C973 C957 1.429 . S
C973 C969 1.429 . S
C973 C974 1.523 . S
C974 C958 1.368 . S
C974 C970 1.368 . S
C974 C973 1.523 . S
H975 C950 0.950 . S
H976 C952 0.950 . S
H977 C953 0.949 . S
H978 C955 0.950 . S
H979 C957 0.950 . S
C980 C981 1.349 . S
C980 C982 1.327 . S
C980 H1005 0.950 . S
C981 C980 1.349 . S
C981 C997 1.349 . S
C982 C980 1.327 . S
C982 C1001 1.429 . S
C982 H1006 0.950 . S
C983 C1000 1.574 . S
C983 C1002 1.368 . S
C983 H1007 0.949 . S
H984 C988 0.949 . S
C985 C986 1.349 . S
C985 C987 1.327 . S
C985 H1008 0.950 . S
C986 C985 1.349 . S
C986 C998 1.349 . S
C987 C985 1.327 . S
C987 C1003 1.429 . S
C987 H1009 0.950 . S
C988 H984 0.949 . S
C988 C996 1.574 . S
C988 C1004 1.368 . S
H989 C997 0.950 . S
H990 C995 0.950 . S
H991 C996 0.949 . S
H992 C998 0.950 . S
H993 C999 0.950 . S
H994 C1000 0.949 . S
C995 H990 0.950 . S
C995 C997 1.327 . S
C995 C1001 1.429 . S
C996 C988 1.574 . S
C996 H991 0.949 . S
C996 C1002 1.368 . S
C997 C981 1.349 . S
C997 H989 0.950 . S
C997 C995 1.327 . S
C998 C986 1.349 . S
C998 H992 0.950 . S
C998 C999 1.327 . S
C999 H993 0.950 . S
C999 C998 1.327 . S
C999 C1003 1.429 . S
C1000 C983 1.574 . S
C1000 H994 0.949 . S
C1000 C1004 1.368 . S
C1001 C982 1.429 . S
C1001 C995 1.429 . S
C1001 C1002 1.523 . S
C1002 C983 1.368 . S
C1002 C996 1.368 . S
C1002 C1001 1.523 . S
C1003 C987 1.429 . S
C1003 C999 1.429 . S
C1003 C1004 1.523 . S
C1004 C988 1.368 . S
C1004 C1000 1.368 . S
C1004 C1003 1.523 . S
H1005 C980 0.950 . S
H1006 C982 0.950 . S
H1007 C983 0.949 . S
H1008 C985 0.950 . S
H1009 C987 0.950 . S
C1010 C1011 1.349 . S
C1010 C1012 1.327 . S
C1010 H1035 0.950 . S
C1011 C1010 1.349 . S
C1011 C1027 1.349 . S
C1012 C1010 1.327 . S
C1012 C1031 1.429 . S
C1012 H1036 0.950 . S
C1013 C1030 1.574 . S
C1013 C1032 1.368 . S
C1013 H1037 0.949 . S
H1014 C1018 0.949 . S
C1015 C1016 1.349 . S
C1015 C1017 1.327 . S
C1015 H1038 0.950 . S
C1016 C1015 1.349 . S
C1016 C1028 1.349 . S
C1017 C1015 1.327 . S
C1017 C1033 1.429 . S
C1017 H1039 0.950 . S
C1018 H1014 0.949 . S
C1018 C1026 1.574 . S
C1018 C1034 1.368 . S
H1019 C1027 0.950 . S
H1020 C1025 0.950 . S
H1021 C1026 0.949 . S
H1022 C1028 0.950 . S
H1023 C1029 0.950 . S
H1024 C1030 0.949 . S
C1025 H1020 0.950 . S
C1025 C1027 1.327 . S
C1025 C1031 1.429 . S
C1026 C1018 1.574 . S
C1026 H1021 0.949 . S
C1026 C1032 1.368 . S
C1027 C1011 1.349 . S
C1027 H1019 0.950 . S
C1027 C1025 1.327 . S
C1028 C1016 1.349 . S
C1028 H1022 0.950 . S
C1028 C1029 1.327 . S
C1029 H1023 0.950 . S
C1029 C1028 1.327 . S
C1029 C1033 1.429 . S
C1030 C1013 1.574 . S
C1030 H1024 0.949 . S
C1030 C1034 1.368 . S
C1031 C1012 1.429 . S
C1031 C1025 1.429 . S
C1031 C1032 1.523 . S
C1032 C1013 1.368 . S
C1032 C1026 1.368 . S
C1032 C1031 1.523 . S
C1033 C1017 1.429 . S
C1033 C1029 1.429 . S
C1033 C1034 1.523 . S
C1034 C1018 1.368 . S
C1034 C1030 1.368 . S
C1034 C1033 1.523 . S
H1035 C1010 0.950 . S
H1036 C1012 0.950 . S
H1037 C1013 0.949 . S
H1038 C1015 0.950 . S
H1039 C1017 0.950 . S
C321 C17 1.700 . S
C326 C297 1.699 . S
C351 C257 1.700 . S
C356 C57 1.699 . S
C381 C217 1.700 . S
C386 C97 1.699 . S
C411 C177 1.700 . S
C416 C137 1.699 . S
C441 C82 1.006 . S
C446 C2 1.006 . S
C471 C42 1.006 . S
C476 C122 1.006 . S
C501 C143 2.001 . S
C506 C63 2.001 . S
C531 C103 2.001 . S
C536 C23 2.001 . S
C561 C162 0.979 . S
C566 C242 0.979 . S
C591 C202 0.979 . S
C596 C282 0.979 . S
C621 C303 1.954 . S
C626 C223 1.954 . S
C651 C263 1.954 . S
C656 C183 1.954 . S
C681 C13 1.876 . S
C686 C24 1.876 . S
C711 C53 1.876 . S
C716 C64 1.876 . S
C741 C104 1.876 . S
C746 C93 1.876 . S
C771 C133 1.876 . S
C776 C144 1.876 . S
C801 C184 1.876 . S
C806 C173 1.876 . S
C831 C213 1.876 . S
C836 C224 1.876 . S
C861 C253 1.876 . S
C866 C264 1.876 . S
C891 C293 1.876 . S
C896 C304 1.876 . S
C921 C26 2.193 . S
C926 C66 2.193 . S
C951 C146 2.193 . S
C956 C106 2.193 . S
C981 C186 2.193 . S
C986 C226 2.193 . S
C1011 C306 2.193 . S
C1016 C266 2.193 . S
